# Generated by pormake.
# Topology pyr, (3,6)-cn, num edge types: 1
# Building blocks:
#     Node 0, Type 0, BuildingBlock: KAKCAD_clean_linker_0, # of connection points: 3
#     Node 1, Type 0, BuildingBlock: KAKCAD_clean_linker_0, # of connection points: 3
#     Node 2, Type 0, BuildingBlock: KAKCAD_clean_linker_0, # of connection points: 3
#     Node 3, Type 0, BuildingBlock: KAKCAD_clean_linker_0, # of connection points: 3
#     Node 4, Type 0, BuildingBlock: KAKCAD_clean_linker_0, # of connection points: 3
#     Node 5, Type 0, BuildingBlock: KAKCAD_clean_linker_0, # of connection points: 3
#     Node 6, Type 0, BuildingBlock: KAKCAD_clean_linker_0, # of connection points: 3
#     Node 7, Type 0, BuildingBlock: KAKCAD_clean_linker_0, # of connection points: 3
#     Node 8, Type 1, BuildingBlock: BETFEN_clean_sbu_0, # of connection points: 6
#     Node 9, Type 1, BuildingBlock: BETFEN_clean_sbu_0, # of connection points: 6
#     Node 10, Type 1, BuildingBlock: BETFEN_clean_sbu_0, # of connection points: 6
#     Node 11, Type 1, BuildingBlock: BETFEN_clean_sbu_0, # of connection points: 6
#     Edge 12, Type (0, 1), BuildingBlock: MIFKUJ_clean_linker_0, # of connection points: 2
#     Edge 13, Type (0, 1), BuildingBlock: MIFKUJ_clean_linker_0, # of connection points: 2
#     Edge 14, Type (0, 1), BuildingBlock: MIFKUJ_clean_linker_0, # of connection points: 2
#     Edge 15, Type (0, 1), BuildingBlock: MIFKUJ_clean_linker_0, # of connection points: 2
#     Edge 16, Type (0, 1), BuildingBlock: MIFKUJ_clean_linker_0, # of connection points: 2
#     Edge 17, Type (0, 1), BuildingBlock: MIFKUJ_clean_linker_0, # of connection points: 2
#     Edge 18, Type (0, 1), BuildingBlock: MIFKUJ_clean_linker_0, # of connection points: 2
#     Edge 19, Type (0, 1), BuildingBlock: MIFKUJ_clean_linker_0, # of connection points: 2
#     Edge 20, Type (0, 1), BuildingBlock: MIFKUJ_clean_linker_0, # of connection points: 2
#     Edge 21, Type (0, 1), BuildingBlock: MIFKUJ_clean_linker_0, # of connection points: 2
#     Edge 22, Type (0, 1), BuildingBlock: MIFKUJ_clean_linker_0, # of connection points: 2
#     Edge 23, Type (0, 1), BuildingBlock: MIFKUJ_clean_linker_0, # of connection points: 2
#     Edge 24, Type (0, 1), BuildingBlock: MIFKUJ_clean_linker_0, # of connection points: 2
#     Edge 25, Type (0, 1), BuildingBlock: MIFKUJ_clean_linker_0, # of connection points: 2
#     Edge 26, Type (0, 1), BuildingBlock: MIFKUJ_clean_linker_0, # of connection points: 2
#     Edge 27, Type (0, 1), BuildingBlock: MIFKUJ_clean_linker_0, # of connection points: 2
#     Edge 28, Type (0, 1), BuildingBlock: MIFKUJ_clean_linker_0, # of connection points: 2
#     Edge 29, Type (0, 1), BuildingBlock: MIFKUJ_clean_linker_0, # of connection points: 2
#     Edge 30, Type (0, 1), BuildingBlock: MIFKUJ_clean_linker_0, # of connection points: 2
#     Edge 31, Type (0, 1), BuildingBlock: MIFKUJ_clean_linker_0, # of connection points: 2
#     Edge 32, Type (0, 1), BuildingBlock: MIFKUJ_clean_linker_0, # of connection points: 2
#     Edge 33, Type (0, 1), BuildingBlock: MIFKUJ_clean_linker_0, # of connection points: 2
#     Edge 34, Type (0, 1), BuildingBlock: MIFKUJ_clean_linker_0, # of connection points: 2
#     Edge 35, Type (0, 1), BuildingBlock: MIFKUJ_clean_linker_0, # of connection points: 2
# Relax obj value: 0.110
# Max RMSD: 0.216
# Mean RMSD: 0.104
data_MOF--net-pyr--node1-BETFEN_clean_sbu_0--node2-KAKCAD_clean_linker_0--edge1-MIFKUJ_clean_linker_0
_symmetry_space_group_name_H-M    P1
_symmetry_Int_Tables_number       1
_symmetry_cell_setting            triclinic
loop_
_symmetry_equiv_pos_as_xyz
'x, y, z'
_cell_length_a     56.276329
_cell_length_b     59.870567
_cell_length_c     58.161976
_cell_angle_alpha  91.124088
_cell_angle_beta   98.343232
_cell_angle_gamma 104.77306
loop_
_atom_site_label
_atom_site_type_symbol
_atom_site_fract_x
_atom_site_fract_y
_atom_site_fract_z
_atom_type_partial_charge
C0 C 0.22934 0.23005 0.27558 0.0
C1 C 0.23944 0.22557 0.29797 0.0
C2 C 0.24423 0.24416 0.26182 0.0
C3 C 0.2695 0.25379 0.27014 0.0
C4 C 0.28015 0.24805 0.29176 0.0
C5 C 0.2651 0.23399 0.30573 0.0
C6 C 0.28403 0.2706 0.25629 0.0
C7 C 0.27575 0.28998 0.24973 0.0
C8 C 0.28565 0.3036 0.23236 0.0
C9 C 0.30509 0.29832 0.22257 0.0
C10 C 0.3141 0.27943 0.22982 0.0
C11 C 0.30354 0.26562 0.24679 0.0
C12 C 0.3321 0.27199 0.21767 0.0
C13 C 0.32795 0.26911 0.19326 0.0
C14 C 0.35166 0.2649 0.23053 0.0
C15 C 0.36581 0.25361 0.21929 0.0
C16 C 0.36054 0.24929 0.19507 0.0
C17 C 0.27323 0.32084 0.22204 0.0
C18 C 0.24711 0.3158 0.21858 0.0
C19 C 0.28689 0.34109 0.21337 0.0
C20 C 0.2746 0.3551 0.20006 0.0
C21 C 0.24853 0.34924 0.19566 0.0
C22 C 0.23492 0.32997 0.2057 0.0
C23 C 0.34218 0.25783 0.18199 0.0
H24 H 0.20974 0.22311 0.26894 0.0
H25 H 0.23592 0.24802 0.24486 0.0
H26 H 0.29975 0.25521 0.29818 0.0
H27 H 0.27326 0.23054 0.3229 0.0
H28 H 0.26057 0.29362 0.25737 0.0
H29 H 0.30919 0.25004 0.25133 0.0
H30 H 0.31239 0.30809 0.2085 0.0
H31 H 0.31272 0.2742 0.18304 0.0
H32 H 0.35524 0.26715 0.24936 0.0
H33 H 0.38017 0.24736 0.22959 0.0
H34 H 0.23589 0.30009 0.22444 0.0
H35 H 0.30703 0.34558 0.21605 0.0
H36 H 0.33779 0.25449 0.16327 0.0
H37 H 0.21477 0.32479 0.20208 0.0
H38 H 0.28538 0.36991 0.19237 0.0
C39 C 0.29098 0.83134 0.79453 0.0
C40 C 0.31698 0.83969 0.79578 0.0
C41 C 0.27597 0.82164 0.77349 0.0
C42 C 0.28674 0.81992 0.75345 0.0
C43 C 0.31255 0.82853 0.7546 0.0
C44 C 0.32743 0.83842 0.7754 0.0
C45 C 0.27175 0.80809 0.73147 0.0
C46 C 0.25189 0.8157 0.71985 0.0
C47 C 0.2395 0.80587 0.69761 0.0
C48 C 0.24776 0.78806 0.68727 0.0
C49 C 0.26802 0.78059 0.69882 0.0
C50 C 0.27917 0.79032 0.72112 0.0
C51 C 0.27921 0.76375 0.68787 0.0
C52 C 0.26463 0.74278 0.67636 0.0
C53 C 0.3053 0.76802 0.69074 0.0
C54 C 0.31652 0.75138 0.68366 0.0
C55 C 0.30208 0.73006 0.67306 0.0
C56 C 0.21934 0.81556 0.68494 0.0
C57 C 0.20411 0.82507 0.69733 0.0
C58 C 0.2161 0.81686 0.66057 0.0
C59 C 0.19892 0.82798 0.64916 0.0
C60 C 0.18466 0.8386 0.66172 0.0
C61 C 0.18736 0.8366 0.68601 0.0
C62 C 0.27599 0.7261 0.66891 0.0
H63 H 0.28226 0.83191 0.80987 0.0
H64 H 0.25611 0.81494 0.77302 0.0
H65 H 0.32126 0.82761 0.73929 0.0
H66 H 0.34718 0.84529 0.77536 0.0
H67 H 0.2471 0.83016 0.72775 0.0
H68 H 0.29435 0.7844 0.73044 0.0
H69 H 0.23896 0.78041 0.67014 0.0
H70 H 0.24452 0.73894 0.6739 0.0
H71 H 0.31719 0.78421 0.69896 0.0
H72 H 0.33665 0.75522 0.68655 0.0
H73 H 0.20534 0.82401 0.716 0.0
H74 H 0.22737 0.80996 0.65021 0.0
H75 H 0.2644 0.70983 0.66062 0.0
H76 H 0.17712 0.84453 0.69661 0.0
H77 H 0.19713 0.82839 0.63041 0.0
C78 C 0.74502 0.36929 0.83288 0.0
C79 C 0.75998 0.35697 0.84566 0.0
C80 C 0.72202 0.35767 0.82017 0.0
C81 C 0.71362 0.33332 0.81942 0.0
C82 C 0.72915 0.321 0.83173 0.0
C83 C 0.75194 0.33273 0.84493 0.0
C84 C 0.68825 0.32124 0.80689 0.0
C85 C 0.67768 0.33061 0.78725 0.0
C86 C 0.65236 0.32224 0.7776 0.0
C87 C 0.63813 0.30224 0.78663 0.0
C88 C 0.6491 0.29132 0.80508 0.0
C89 C 0.67385 0.30131 0.81535 0.0
C90 C 0.63515 0.26987 0.81473 0.0
C91 C 0.61347 0.26928 0.82428 0.0
C92 C 0.64533 0.25072 0.81698 0.0
C93 C 0.63454 0.23169 0.82903 0.0
C94 C 0.61349 0.23144 0.83951 0.0
C95 C 0.64134 0.33541 0.75891 0.0
C96 C 0.65099 0.35955 0.75865 0.0
C97 C 0.62182 0.3245 0.74107 0.0
C98 C 0.61261 0.33736 0.72346 0.0
C99 C 0.62288 0.36147 0.72298 0.0
C100 C 0.64242 0.37215 0.74084 0.0
C101 C 0.60286 0.25034 0.83671 0.0
H102 H 0.75071 0.38803 0.83344 0.0
H103 H 0.71052 0.36798 0.81156 0.0
H104 H 0.72371 0.30229 0.83133 0.0
H105 H 0.7633 0.32289 0.85461 0.0
H106 H 0.68936 0.34483 0.77959 0.0
H107 H 0.68151 0.29383 0.83058 0.0
H108 H 0.61868 0.29522 0.77955 0.0
H109 H 0.6054 0.2839 0.82305 0.0
H110 H 0.66213 0.25078 0.80991 0.0
H111 H 0.64335 0.21758 0.831 0.0
H112 H 0.66538 0.36906 0.7723 0.0
H113 H 0.61382 0.306 0.74047 0.0
H114 H 0.58654 0.25063 0.84443 0.0
H115 H 0.65156 0.39041 0.7412 0.0
H116 H 0.59731 0.32831 0.71038 0.0
C117 C 0.84705 0.62752 0.22912 0.0
C118 C 0.87291 0.6329 0.22837 0.0
C119 C 0.83736 0.63682 0.24723 0.0
C120 C 0.85306 0.65217 0.26522 0.0
C121 C 0.87887 0.65761 0.26433 0.0
C122 C 0.88853 0.64817 0.24642 0.0
C123 C 0.84293 0.66263 0.28471 0.0
C124 C 0.82229 0.64966 0.29467 0.0
C125 C 0.81401 0.65909 0.31373 0.0
C126 C 0.82615 0.68198 0.32212 0.0
C127 C 0.84607 0.69577 0.31245 0.0
C128 C 0.85441 0.68575 0.29387 0.0
C129 C 0.85801 0.72038 0.32254 0.0
C130 C 0.84367 0.73343 0.33202 0.0
C131 C 0.88379 0.73069 0.3242 0.0
C132 C 0.89481 0.75273 0.33571 0.0
C133 C 0.8805 0.76501 0.34622 0.0
C134 C 0.7933 0.64564 0.32604 0.0
C135 C 0.7699 0.63324 0.314 0.0
C136 C 0.7962 0.64723 0.35058 0.0
C137 C 0.77643 0.63763 0.36262 0.0
C138 C 0.75275 0.62572 0.35076 0.0
C139 C 0.74994 0.62352 0.32615 0.0
C140 C 0.85472 0.7551 0.34388 0.0
H141 H 0.83417 0.61578 0.21586 0.0
H142 H 0.81742 0.63217 0.24691 0.0
H143 H 0.89187 0.66905 0.27775 0.0
H144 H 0.90846 0.65317 0.24666 0.0
H145 H 0.81336 0.63195 0.28831 0.0
H146 H 0.86958 0.69619 0.28614 0.0
H147 H 0.81999 0.68908 0.33675 0.0
H148 H 0.82369 0.72687 0.33051 0.0
H149 H 0.89569 0.72145 0.31733 0.0
H150 H 0.91474 0.7598 0.33711 0.0
H151 H 0.76676 0.6317 0.29516 0.0
H152 H 0.81386 0.65642 0.36064 0.0
H153 H 0.84295 0.76418 0.35124 0.0
H154 H 0.73226 0.6143 0.31616 0.0
H155 H 0.77971 0.64024 0.38139 0.0
C156 C 0.78444 0.78257 0.72933 0.0
C157 C 0.78753 0.80663 0.73134 0.0
C158 C 0.76812 0.7678 0.74169 0.0
C159 C 0.7549 0.77679 0.75661 0.0
C160 C 0.75734 0.80079 0.75792 0.0
C161 C 0.77321 0.81548 0.7452 0.0
C162 C 0.74056 0.76169 0.77249 0.0
C163 C 0.7501 0.74455 0.78377 0.0
C164 C 0.73918 0.73311 0.80198 0.0
C165 C 0.7185 0.73885 0.80875 0.0
C166 C 0.70952 0.75656 0.79836 0.0
C167 C 0.71957 0.76683 0.7793 0.0
C168 C 0.69431 0.76785 0.81084 0.0
C169 C 0.67535 0.7548 0.82208 0.0
C170 C 0.70137 0.79206 0.81439 0.0
C171 C 0.6902 0.80297 0.8293 0.0
C172 C 0.67194 0.78992 0.84124 0.0
C173 C 0.75192 0.71834 0.81654 0.0
C174 C 0.76323 0.70302 0.80648 0.0
C175 C 0.75452 0.72094 0.84094 0.0
C176 C 0.76855 0.70894 0.85495 0.0
C177 C 0.78062 0.69436 0.84492 0.0
C178 C 0.7776 0.69119 0.82058 0.0
C179 C 0.66423 0.76578 0.83722 0.0
H180 H 0.79535 0.77515 0.71899 0.0
H181 H 0.76646 0.74939 0.74008 0.0
H182 H 0.74788 0.80852 0.76953 0.0
H183 H 0.77475 0.83386 0.74678 0.0
H184 H 0.76727 0.74151 0.77978 0.0
H185 H 0.71216 0.78019 0.77097 0.0
H186 H 0.71081 0.73095 0.82357 0.0
H187 H 0.6696 0.73611 0.81964 0.0
H188 H 0.71632 0.80264 0.80646 0.0
H189 H 0.69602 0.82168 0.83158 0.0
H190 H 0.76143 0.7006 0.78774 0.0
H191 H 0.74673 0.73311 0.84935 0.0
H192 H 0.65006 0.75538 0.84615 0.0
H193 H 0.7868 0.67999 0.8125 0.0
H194 H 0.77107 0.71208 0.87367 0.0
C195 C 0.731 0.18554 0.25064 0.0
C196 C 0.72015 0.19872 0.23464 0.0
C197 C 0.74573 0.19592 0.2714 0.0
C198 C 0.75035 0.21986 0.2766 0.0
C199 C 0.74029 0.2332 0.26004 0.0
C200 C 0.72519 0.2227 0.23939 0.0
C201 C 0.76374 0.23024 0.29999 0.0
C202 C 0.78262 0.22146 0.31199 0.0
C203 C 0.79216 0.22778 0.33571 0.0
C204 C 0.78375 0.24498 0.34679 0.0
C205 C 0.7662 0.25529 0.33439 0.0
C206 C 0.75609 0.24747 0.31128 0.0
C207 C 0.75668 0.27326 0.34535 0.0
C208 C 0.74585 0.26915 0.36565 0.0
C209 C 0.75549 0.29345 0.33374 0.0
C210 C 0.74299 0.30875 0.34175 0.0
C211 C 0.73108 0.30411 0.36142 0.0
C212 C 0.80976 0.21537 0.34865 0.0
C213 C 0.80845 0.19231 0.3418 0.0
C214 C 0.82793 0.226 0.3677 0.0
C215 C 0.84408 0.21391 0.3794 0.0
C216 C 0.84285 0.1909 0.37223 0.0
C217 C 0.82492 0.18057 0.35296 0.0
C218 C 0.73305 0.28434 0.37353 0.0
H219 H 0.72718 0.16696 0.24759 0.0
H220 H 0.75258 0.1849 0.2838 0.0
H221 H 0.74376 0.25172 0.26314 0.0
H222 H 0.71725 0.23329 0.22722 0.0
H223 H 0.78963 0.20931 0.30269 0.0
H224 H 0.74124 0.25415 0.30249 0.0
H225 H 0.79047 0.25019 0.36499 0.0
H226 H 0.74624 0.25362 0.37478 0.0
H227 H 0.76359 0.29701 0.31797 0.0
H228 H 0.74172 0.3237 0.33192 0.0
H229 H 0.79444 0.18291 0.3278 0.0
H230 H 0.82987 0.24372 0.37358 0.0
H231 H 0.72431 0.28039 0.38889 0.0
H232 H 0.82344 0.16323 0.34619 0.0
H233 H 0.85729 0.22261 0.39427 0.0
C234 C 0.27743 0.67868 0.20962 0.0
C235 C 0.27621 0.67011 0.18661 0.0
C236 C 0.30031 0.69015 0.22286 0.0
C237 C 0.32232 0.69363 0.21322 0.0
C238 C 0.32126 0.6849 0.19045 0.0
C239 C 0.29855 0.67305 0.1774 0.0
C240 C 0.34635 0.7072 0.22636 0.0
C241 C 0.3563 0.70001 0.24753 0.0
C242 C 0.37972 0.71239 0.25967 0.0
C243 C 0.39289 0.73261 0.25005 0.0
C244 C 0.38304 0.73979 0.22853 0.0
C245 C 0.35975 0.72694 0.21703 0.0
C246 C 0.39658 0.7603 0.21715 0.0
C247 C 0.40574 0.7822 0.22901 0.0
C248 C 0.39789 0.75842 0.19324 0.0
C249 C 0.40683 0.77798 0.1812 0.0
C250 C 0.4148 0.80011 0.19267 0.0
C251 C 0.3905 0.70307 0.28147 0.0
C252 C 0.37484 0.6908 0.2964 0.0
C253 C 0.4161 0.70457 0.28663 0.0
C254 C 0.4255 0.69327 0.30542 0.0
C255 C 0.40956 0.67978 0.31948 0.0
C256 C 0.38411 0.67914 0.31482 0.0
C257 C 0.41477 0.80193 0.21688 0.0
H258 H 0.2607 0.67705 0.21728 0.0
H259 H 0.30073 0.69692 0.24037 0.0
H260 H 0.33809 0.68722 0.18276 0.0
H261 H 0.29861 0.66617 0.16007 0.0
H262 H 0.3461 0.68408 0.2539 0.0
H263 H 0.35181 0.73242 0.20066 0.0
H264 H 0.41085 0.7425 0.25898 0.0
H265 H 0.40482 0.78422 0.24738 0.0
H266 H 0.39133 0.74174 0.18366 0.0
H267 H 0.40721 0.77577 0.16274 0.0
H268 H 0.35512 0.68968 0.29357 0.0
H269 H 0.42888 0.71375 0.27566 0.0
H270 H 0.42076 0.81869 0.22628 0.0
H271 H 0.37094 0.66895 0.32485 0.0
H272 H 0.44531 0.6949 0.30862 0.0
C273 C 0.17693 0.28001 0.69008 0.0
C274 C 0.15112 0.27033 0.68786 0.0
C275 C 0.18825 0.30166 0.70192 0.0
C276 C 0.17416 0.31496 0.71145 0.0
C277 C 0.14829 0.30493 0.70969 0.0
C278 C 0.13702 0.2829 0.69827 0.0
C279 C 0.18647 0.33936 0.72208 0.0
C280 C 0.20766 0.35276 0.71378 0.0
C281 C 0.22019 0.37528 0.72304 0.0
C282 C 0.21068 0.38503 0.74102 0.0
C283 C 0.18913 0.37237 0.74983 0.0
C284 C 0.17738 0.34953 0.74009 0.0
C285 C 0.17869 0.38272 0.76911 0.0
C286 C 0.19422 0.39612 0.78844 0.0
C287 C 0.15281 0.37896 0.76856 0.0
C288 C 0.14288 0.38816 0.78643 0.0
C289 C 0.15828 0.40131 0.8061 0.0
C290 C 0.24308 0.38789 0.71315 0.0
C291 C 0.26176 0.37665 0.71034 0.0
C292 C 0.24527 0.40981 0.70398 0.0
C293 C 0.26492 0.41965 0.69159 0.0
C294 C 0.28329 0.40808 0.68829 0.0
C295 C 0.28153 0.38658 0.69832 0.0
C296 C 0.18428 0.40503 0.80658 0.0
H297 H 0.18851 0.27072 0.68273 0.0
H298 H 0.20826 0.30789 0.70349 0.0
H299 H 0.13651 0.31431 0.71652 0.0
H300 H 0.11708 0.27602 0.69691 0.0
H301 H 0.21433 0.34591 0.69934 0.0
H302 H 0.16144 0.33943 0.74702 0.0
H303 H 0.22001 0.40245 0.74807 0.0
H304 H 0.21422 0.39932 0.78989 0.0
H305 H 0.14002 0.36912 0.75397 0.0
H306 H 0.12289 0.38509 0.7844 0.0
H307 H 0.26078 0.35974 0.71706 0.0
H308 H 0.2312 0.41894 0.70554 0.0
H309 H 0.19726 0.41454 0.82119 0.0
H310 H 0.29496 0.3769 0.69614 0.0
H311 H 0.26561 0.43632 0.68444 0.0
Pr312 Pr 0.99572 1.01249 0.53235 0.0
Pr313 Pr 0.03235 0.02083 0.50729 0.0
C314 C 0.96092 0.99503 0.55881 0.0
C315 C 0.96081 0.98072 0.57885 0.0
C316 C 0.94834 0.98484 0.59692 0.0
C317 C 0.94775 0.97109 0.61595 0.0
C318 C 0.95971 0.95307 0.61714 0.0
C319 C 0.97301 0.94957 0.59939 0.0
C320 C 0.97356 0.96332 0.58035 0.0
C321 C 0.0297 0.05528 0.54831 0.0
C322 C 0.04312 0.98919 0.54837 0.0
C323 C 0.06624 0.03811 0.48009 0.0
C324 C 0.06572 0.05114 0.45906 0.0
C325 C 0.06501 0.03993 0.43749 0.0
C326 C 0.0671 0.05253 0.41776 0.0
C327 C 0.07032 0.07655 0.41947 0.0
C328 C 0.06873 0.08743 0.44054 0.0
C329 C 0.06646 0.07479 0.46028 0.0
C330 C 0.99844 0.97806 0.49095 0.0
C331 C 0.98607 0.04446 0.49095 0.0
O332 O 0.96211 0.98506 0.53902 0.0
O333 O 0.97529 1.01599 0.56242 0.0
O334 O 0.03567 0.03661 0.54463 0.0
O335 O 1.00594 0.05241 0.54255 0.0
O336 O 0.05497 1.00444 0.5354 0.0
O337 O 0.01924 0.98702 0.5485 0.0
O338 O 0.06495 0.04879 0.49946 0.0
O339 O 0.05296 0.01669 0.47772 0.0
O340 O 0.99237 0.9966 0.49508 0.0
O341 O 0.02226 0.98126 0.49616 0.0
O342 O 0.97365 0.02829 0.50273 0.0
O343 O 1.01023 0.04758 0.49243 0.0
H344 H 0.93863 0.99834 0.59607 0.0
H345 H 0.93692 0.97389 0.62916 0.0
H346 H 0.98237 0.93581 0.59992 0.0
H347 H 0.98348 0.95998 0.5666 0.0
H348 H 0.06404 0.02163 0.43606 0.0
H349 H 0.0683 0.0439 0.40158 0.0
H350 H 0.07149 0.10601 0.44224 0.0
H351 H 0.06657 0.08381 0.47664 0.0
Pr352 Pr 0.49454 0.02396 0.02257 0.0
Pr353 Pr 0.53962 1.00739 0.01672 0.0
C354 C 0.45424 0.02765 0.03976 0.0
C355 C 0.45032 0.04508 0.05567 0.0
C356 C 0.43535 0.05953 0.04736 0.0
C357 C 0.43412 0.07807 0.06146 0.0
C358 C 0.44768 0.08216 0.08403 0.0
C359 C 0.4619 0.06728 0.0927 0.0
C360 C 0.46332 0.04888 0.07857 0.0
C361 C 0.52087 0.05587 0.99444 0.0
C362 C 0.5474 0.04807 0.05721 0.0
C363 C 0.5776 0.99405 1.0034 0.0
C364 C 0.57975 0.98077 0.98282 0.0
C365 C 0.57638 0.95679 0.98362 0.0
C366 C 0.57701 0.94378 0.96389 0.0
C367 C 0.5813 0.95458 0.94318 0.0
C368 C 0.58489 0.97852 0.94227 0.0
C369 C 0.58393 0.99158 0.96199 0.0
C370 C 0.51262 0.98517 0.05009 0.0
C371 C 0.48699 0.986 0.97927 0.0
O372 O 0.46872 1.01509 0.04885 0.0
O373 O 0.45838 0.0344 0.01907 0.0
O374 O 0.52755 0.03852 1.00242 0.0
O375 O 0.50041 0.05737 1.00137 0.0
O376 O 0.55867 0.03864 0.0429 0.0
O377 O 0.52293 0.04336 0.0548 0.0
O378 O 0.57434 1.01467 1.00004 0.0
O379 O 0.56367 0.98251 0.01761 0.0
O380 O 0.50361 0.98921 0.02989 0.0
O381 O 0.53661 0.99354 0.05398 0.0
O382 O 0.47612 0.9978 0.99166 0.0
O383 O 0.51109 0.98746 0.98422 0.0
H384 H 0.4252 0.05686 0.02979 0.0
H385 H 0.42267 0.08927 0.05475 0.0
H386 H 0.47237 0.07024 0.11014 0.0
H387 H 0.47514 0.03807 0.08546 0.0
H388 H 0.57331 0.94806 0.99949 0.0
H389 H 0.575 0.92536 0.96505 0.0
H390 H 0.58869 0.98706 0.92645 0.0
H391 H 0.58656 1.01007 0.96091 0.0
Pr392 Pr 0.51323 0.53949 0.52805 0.0
Pr393 Pr 0.51693 0.49318 0.50554 0.0
C394 C 0.50469 0.58003 0.54076 0.0
C395 C 0.48763 0.5878 0.55445 0.0
C396 C 0.49713 0.60617 0.57138 0.0
C397 C 0.48123 0.61421 0.58398 0.0
C398 C 0.45537 0.60411 0.57988 0.0
C399 C 0.44596 0.58545 0.56313 0.0
C400 C 0.46188 0.57736 0.55061 0.0
C401 C 0.53779 0.51332 0.55774 0.0
C402 C 0.4727 0.49252 0.53953 0.0
C403 C 0.52536 0.45299 0.49135 0.0
C404 C 0.54129 0.44516 0.47635 0.0
C405 C 0.53071 0.42706 0.45931 0.0
C406 C 0.54573 0.41836 0.44616 0.0
C407 C 0.57176 0.4275 0.4498 0.0
C408 C 0.58224 0.44601 0.46655 0.0
C409 C 0.56722 0.45476 0.47961 0.0
C410 C 0.4926 0.51989 0.4763 0.0
C411 C 0.55748 0.5404 0.49426 0.0
O412 O 0.49476 0.56857 0.52082 0.0
O413 O 0.5221 0.57187 0.55225 0.0
O414 O 0.54016 0.51619 0.53664 0.0
O415 O 0.52394 0.52559 0.56468 0.0
O416 O 0.4871 0.48059 0.53149 0.0
O417 O 0.47635 0.51489 0.53661 0.0
O418 O 0.53673 0.46488 0.51066 0.0
O419 O 0.50685 0.46063 0.48123 0.0
O420 O 0.48966 0.51614 0.49711 0.0
O421 O 0.50772 0.50884 0.46967 0.0
O422 O 0.54306 0.55221 0.50234 0.0
O423 O 0.55385 0.51798 0.49698 0.0
H424 H 0.51689 0.61451 0.57468 0.0
H425 H 0.48916 0.62875 0.59653 0.0
H426 H 0.42624 0.57699 0.55973 0.0
H427 H 0.45396 0.563 0.53783 0.0
H428 H 0.51081 0.41938 0.45639 0.0
H429 H 0.5369 0.40436 0.43319 0.0
H430 H 0.60218 0.45334 0.47012 0.0
H431 H 0.57603 0.46875 0.4926 0.0
Pr432 Pr 1.01112 0.53322 1.00053 0.0
Pr433 Pr 0.01894 0.50028 0.0336 0.0
C434 C 0.99326 0.5618 0.97223 0.0
C435 C 0.98248 0.58128 0.97585 0.0
C436 C 0.99767 0.60397 0.9807 0.0
C437 C 0.98706 0.62231 0.98361 0.0
C438 C 0.96114 0.61822 0.9817 0.0
C439 C 0.94611 0.59543 0.97759 0.0
C440 C 0.95664 0.57719 0.9746 0.0
C441 C 0.05563 0.5492 0.03115 0.0
C442 C 0.98872 0.53562 0.05132 0.0
C443 C 0.03591 0.47093 0.0615 0.0
C444 C 0.04594 0.45104 0.05775 0.0
C445 C 0.03309 0.42905 0.06337 0.0
C446 C 0.04324 0.41029 0.06152 0.0
C447 C 0.06662 0.41337 0.05439 0.0
C448 C 0.07862 0.43505 0.04719 0.0
C449 C 0.06833 0.45374 0.04879 0.0
C450 C 0.97439 0.48458 1.00306 0.0
C451 C 0.04147 0.49812 0.98304 0.0
O452 O 0.97991 0.54136 0.97631 0.0
O453 O 0.01703 0.56507 0.97968 0.0
O454 O 0.03498 0.53939 0.03698 0.0
O455 O 0.05397 0.55085 1.00879 0.0
O456 O 1.00353 0.52253 0.05888 0.0
O457 O 0.98601 0.53997 0.02892 0.0
O458 O 0.0497 0.49133 0.05786 0.0
O459 O 1.01228 0.46802 0.0538 0.0
O460 O 0.99511 0.49413 0.99722 0.0
O461 O 0.97602 0.48309 0.02541 0.0
O462 O 0.02606 0.51054 0.97527 0.0
O463 O 0.04473 0.49434 1.00554 0.0
H464 H 0.01768 0.60762 0.98182 0.0
H465 H 0.99902 0.63975 0.98658 0.0
H466 H 0.92601 0.59174 0.97531 0.0
H467 H 0.94442 0.55994 0.97079 0.0
H468 H 0.01558 0.42653 0.06992 0.0
H469 H 0.03351 0.39368 0.06695 0.0
H470 H 0.0968 0.43806 0.04189 0.0
H471 H 0.07845 0.47044 0.04389 0.0
H472 H 0.24569 0.19036 0.32548 0.0
H473 H 0.21486 0.16694 0.34707 0.0
H474 H 0.16468 0.20913 0.32571 0.0
H475 H 0.19565 0.23308 0.30512 0.0
H476 H 0.16199 0.19641 0.36949 0.0
H477 H 0.16222 0.15969 0.29401 0.0
H478 H 0.1818 0.14326 0.26485 0.0
H479 H 0.19997 0.09461 0.31324 0.0
H480 H 0.18083 0.111 0.34276 0.0
H481 H 0.05673 0.11269 0.39766 0.0
H482 H 0.08198 0.14005 0.37403 0.0
H483 H 0.13684 0.10051 0.38148 0.0
H484 H 0.11134 0.07296 0.40345 0.0
H485 H 0.13332 0.11382 0.34119 0.0
H486 H 0.13797 0.15082 0.41796 0.0
H487 H 0.12063 0.16689 0.44912 0.0
H488 H 0.09639 0.21398 0.40215 0.0
H489 H 0.11327 0.19791 0.37064 0.0
C490 C 0.2283 0.19488 0.3259 0.0
C491 C 0.22268 0.21309 0.31328 0.0
C492 C 0.21073 0.1815 0.33806 0.0
C493 C 0.18741 0.18612 0.33742 0.0
C494 C 0.18252 0.20526 0.32619 0.0
C495 C 0.20008 0.2187 0.31425 0.0
C496 C 0.1672 0.16997 0.34658 0.0
C497 C 0.15558 0.17834 0.3633 0.0
C498 C 0.15898 0.14652 0.33839 0.0
C499 C 0.1703 0.13667 0.32058 0.0
C500 C 0.17053 0.14558 0.29843 0.0
C501 C 0.18154 0.13627 0.28186 0.0
C502 C 0.19216 0.11793 0.2872 0.0
C503 C 0.19177 0.10883 0.30913 0.0
C504 C 0.18085 0.11811 0.32577 0.0
C505 C 0.07383 0.10967 0.39349 0.0
C506 C 0.08203 0.09068 0.40193 0.0
C507 C 0.08832 0.12533 0.38032 0.0
C508 C 0.11143 0.12245 0.37635 0.0
C509 C 0.11899 0.10299 0.38415 0.0
C510 C 0.10434 0.08716 0.39662 0.0
C511 C 0.12877 0.13985 0.36508 0.0
C512 C 0.13965 0.13186 0.34752 0.0
C513 C 0.13667 0.16345 0.37299 0.0
C514 C 0.12654 0.17298 0.39192 0.0
C515 C 0.12876 0.16447 0.41426 0.0
C516 C 0.11904 0.17359 0.43198 0.0
C517 C 0.10734 0.19139 0.4276 0.0
C518 C 0.10539 0.20015 0.40551 0.0
C519 C 0.115 0.19104 0.38772 0.0
H520 H 0.09985 0.19845 0.44135 0.0
H521 H 0.20067 0.11074 0.27434 0.0
H522 H 0.36432 0.83659 0.81197 0.0
H523 H 0.39329 0.85875 0.84456 0.0
H524 H 0.33556 0.88779 0.86345 0.0
H525 H 0.30695 0.86699 0.82977 0.0
H526 H 0.37389 0.92049 0.86212 0.0
H527 H 0.36211 0.84793 0.89745 0.0
H528 H 0.36048 0.80664 0.90121 0.0
H529 H 0.43765 0.82043 0.89391 0.0
H530 H 0.43966 0.86177 0.88982 0.0
H531 H 0.43664 0.97678 0.96822 0.0
H532 H 0.40919 0.94965 0.93844 0.0
H533 H 0.47216 0.93104 0.91698 0.0
H534 H 0.50023 0.95814 0.94758 0.0
H535 H 0.43293 0.89299 0.91928 0.0
H536 H 0.44317 0.96672 0.88469 0.0
H537 H 0.44336 1.00792 0.88338 0.0
H538 H 0.36634 0.99089 0.89179 0.0
H539 H 0.36578 0.94963 0.89342 0.0
C540 C 0.35772 0.84773 0.82299 0.0
C541 C 0.33334 0.85032 0.81785 0.0
C542 C 0.37427 0.86011 0.84195 0.0
C543 C 0.36669 0.87494 0.85663 0.0
C544 C 0.34194 0.87653 0.85235 0.0
C545 C 0.32547 0.86442 0.83315 0.0
C546 C 0.38512 0.89058 0.87482 0.0
C547 C 0.38646 0.9143 0.87484 0.0
C548 C 0.40222 0.8828 0.891 0.0
C549 C 0.40095 0.8579 0.89307 0.0
C550 C 0.37866 0.84212 0.89641 0.0
C551 C 0.37769 0.81871 0.89866 0.0
C552 C 0.39892 0.8109 0.89773 0.0
C553 C 0.4212 0.82649 0.89459 0.0
C554 C 0.42227 0.84991 0.89232 0.0
C555 C 0.44491 0.9671 0.95718 0.0
C556 C 0.47082 0.96987 0.96023 0.0
C557 C 0.42905 0.95156 0.94006 0.0
C558 C 0.4386 0.93861 0.92518 0.0
C559 C 0.46441 0.94101 0.92821 0.0
C560 C 0.48043 0.95656 0.9456 0.0
C561 C 0.4213 0.92264 0.90661 0.0
C562 C 0.42028 0.89899 0.90647 0.0
C563 C 0.4042 0.93036 0.89048 0.0
C564 C 0.4045 0.95514 0.88933 0.0
C565 C 0.42632 0.97179 0.88639 0.0
C566 C 0.42649 0.99515 0.88557 0.0
C567 C 0.40489 1.00202 0.88754 0.0
C568 C 0.38306 0.98555 0.89027 0.0
C569 C 0.3828 0.96218 0.89111 0.0
H570 H 0.40506 0.02011 0.88691 0.0
H571 H 0.39814 0.79278 0.8995 0.0
H572 H 0.62328 0.40774 0.72615 0.0
H573 H 0.61079 0.43138 0.69611 0.0
H574 H 0.58525 0.37175 0.64758 0.0
H575 H 0.60073 0.34815 0.67703 0.0
H576 H 0.60307 0.40601 0.62441 0.0
H577 H 0.54465 0.39685 0.67711 0.0
H578 H 0.53037 0.39691 0.71523 0.0
H579 H 0.56503 0.46979 0.72651 0.0
H580 H 0.57981 0.47009 0.6886 0.0
H581 H 0.52853 0.46656 0.55043 0.0
H582 H 0.54374 0.43934 0.57572 0.0
H583 H 0.58274 0.49587 0.62539 0.0
H584 H 0.56783 0.5231 0.59963 0.0
H585 H 0.55563 0.46058 0.64582 0.0
H586 H 0.61326 0.46767 0.59034 0.0
H587 H 0.62352 0.46553 0.55069 0.0
H588 H 0.58478 0.39341 0.54261 0.0
H589 H 0.57395 0.39521 0.58209 0.0
C590 C 0.61569 0.39944 0.70904 0.0
C591 C 0.61342 0.3757 0.70437 0.0
C592 C 0.6079 0.41311 0.69182 0.0
C593 C 0.59629 0.40342 0.66955 0.0
C594 C 0.59393 0.37977 0.66463 0.0
C595 C 0.60251 0.36613 0.68173 0.0
C596 C 0.58656 0.41811 0.65177 0.0
C597 C 0.59239 0.41767 0.62908 0.0
C598 C 0.57259 0.43352 0.65751 0.0
C599 C 0.56344 0.43345 0.68012 0.0
C600 C 0.5493 0.41286 0.68778 0.0
C601 C 0.54113 0.41283 0.70934 0.0
C602 C 0.54682 0.43333 0.7233 0.0
C603 C 0.56064 0.45392 0.71569 0.0
C604 C 0.56889 0.45404 0.69416 0.0
C605 C 0.54129 0.47326 0.56617 0.0
C606 C 0.54797 0.49704 0.57253 0.0
C607 C 0.5497 0.45765 0.58085 0.0
C608 C 0.56486 0.46552 0.60235 0.0
C609 C 0.57129 0.48933 0.60882 0.0
C610 C 0.56283 0.5049 0.59411 0.0
C611 C 0.57272 0.44893 0.61881 0.0
C612 C 0.56633 0.4489 0.64121 0.0
C613 C 0.58559 0.43279 0.61255 0.0
C614 C 0.59262 0.43163 0.58907 0.0
C615 C 0.60681 0.45139 0.58005 0.0
C616 C 0.61274 0.45023 0.55761 0.0
C617 C 0.60475 0.42936 0.54411 0.0
C618 C 0.59092 0.40957 0.55307 0.0
C619 C 0.58491 0.41064 0.57548 0.0
H620 H 0.60931 0.42852 0.52672 0.0
H621 H 0.54049 0.43327 0.74001 0.0
H622 H 0.91678 0.61925 0.23153 0.0
H623 H 0.93452 0.60348 0.20116 0.0
H624 H 0.8719 0.6073 0.15056 0.0
H625 H 0.85369 0.62267 0.18119 0.0
H626 H 0.88293 0.57103 0.13822 0.0
H627 H 0.93472 0.64661 0.15568 0.0
H628 H 0.96145 0.68064 0.17967 0.0
H629 H 1.01355 0.64152 0.20341 0.0
H630 H 0.98694 0.60714 0.17977 0.0
H631 H 0.94916 0.55589 0.04248 0.0
H632 H 0.92842 0.57223 0.07057 0.0
H633 H 0.97837 0.55585 0.12715 0.0
H634 H 0.99877 0.53918 0.09929 0.0
H635 H 0.97288 0.60002 0.13417 0.0
H636 H 0.91746 0.52387 0.11349 0.0
H637 H 0.88997 0.49285 0.08612 0.0
H638 H 0.84379 0.5379 0.06383 0.0
H639 H 0.87123 0.5693 0.09086 0.0
C640 C 0.90673 0.61701 0.21395 0.0
C641 C 0.88368 0.62268 0.20919 0.0
C642 C 0.91707 0.60793 0.19633 0.0
C643 C 0.90517 0.60447 0.17293 0.0
C644 C 0.88187 0.60968 0.16818 0.0
C645 C 0.87134 0.61855 0.18591 0.0
C646 C 0.91698 0.59543 0.15377 0.0
C647 C 0.90255 0.57774 0.1373 0.0
C648 C 0.94267 0.60373 0.15191 0.0
C649 C 0.95873 0.62426 0.16616 0.0
C650 C 0.95179 0.64523 0.16616 0.0
C651 C 0.96693 0.66458 0.17967 0.0
C652 C 0.98915 0.66323 0.19311 0.0
C653 C 0.99631 0.64253 0.19302 0.0
C654 C 0.98122 0.62311 0.17956 0.0
C655 C 0.95573 0.55567 0.0609 0.0
C656 C 0.97575 0.54596 0.06836 0.0
C657 C 0.94373 0.56503 0.07708 0.0
C658 C 0.95151 0.56533 0.10134 0.0
C659 C 0.97173 0.55596 0.10873 0.0
C660 C 0.98343 0.54628 0.09263 0.0
C661 C 0.93895 0.57545 0.11905 0.0
C662 C 0.95326 0.59339 0.13518 0.0
C663 C 0.91306 0.56784 0.12012 0.0
C664 C 0.89653 0.54898 0.10399 0.0
C665 C 0.90155 0.52721 0.10261 0.0
C666 C 0.88597 0.50955 0.08719 0.0
C667 C 0.86519 0.51342 0.07319 0.0
C668 C 0.85991 0.53494 0.07465 0.0
C669 C 0.87547 0.55266 0.09002 0.0
H670 H 0.85314 0.49972 0.06126 0.0
H671 H 1.00085 0.67823 0.20356 0.0
H672 H 0.3632 0.20704 0.20841 0.0
H673 H 0.3823 0.18044 0.19025 0.0
H674 H 0.40282 0.2295 0.13849 0.0
H675 H 0.38312 0.25613 0.15644 0.0
H676 H 0.38268 0.18507 0.12022 0.0
H677 H 0.44561 0.22372 0.18505 0.0
H678 H 0.45985 0.23623 0.22653 0.0
H679 H 0.4412 0.16542 0.24489 0.0
H680 H 0.42652 0.15253 0.20356 0.0
H681 H 0.45679 0.12683 0.07289 0.0
H682 H 0.44847 0.15866 0.09463 0.0
H683 H 0.42737 0.11315 0.14912 0.0
H684 H 0.43622 0.08141 0.12764 0.0
H685 H 0.44986 0.15716 0.16616 0.0
H686 H 0.38431 0.11717 0.10711 0.0
H687 H 0.3663 0.10016 0.06751 0.0
H688 H 0.38394 0.16766 0.0405 0.0
H689 H 0.40257 0.18503 0.07994 0.0
C690 C 0.37202 0.2122 0.19329 0.0
C691 C 0.37225 0.23368 0.18397 0.0
C692 C 0.38285 0.19705 0.18297 0.0
C693 C 0.39442 0.20338 0.16348 0.0
C694 C 0.39414 0.22457 0.15374 0.0
C695 C 0.383 0.23969 0.16393 0.0
C696 C 0.40659 0.18764 0.15318 0.0
C697 C 0.39774 0.17934 0.13006 0.0
C698 C 0.42538 0.17946 0.16652 0.0
C699 C 0.43487 0.18721 0.19126 0.0
C700 C 0.44448 0.21085 0.19796 0.0
C701 C 0.45261 0.21799 0.22143 0.0
C702 C 0.4514 0.20163 0.23834 0.0
C703 C 0.44213 0.17808 0.23179 0.0
C704 C 0.43394 0.17084 0.20834 0.0
C705 C 0.45086 0.12387 0.08974 0.0
C706 C 0.4466 0.10185 0.09858 0.0
C707 C 0.44627 0.14195 0.10211 0.0
C708 C 0.43688 0.13791 0.1231 0.0
C709 C 0.43458 0.11641 0.13287 0.0
C710 C 0.43948 0.09837 0.12061 0.0
C711 C 0.42627 0.155 0.13314 0.0
C712 C 0.43517 0.1633 0.15621 0.0
C713 C 0.40693 0.1626 0.12003 0.0
C714 C 0.39508 0.15236 0.09641 0.0
C715 C 0.38449 0.12837 0.0927 0.0
C716 C 0.37418 0.11866 0.07029 0.0
C717 C 0.37404 0.13281 0.05149 0.0
C718 C 0.38412 0.15672 0.05508 0.0
C719 C 0.39456 0.16651 0.07745 0.0
H720 H 0.36606 0.12526 0.03414 0.0
H721 H 0.45766 0.20721 0.25651 0.0
H722 H 0.18954 0.86294 0.6219 0.0
H723 H 0.16348 0.88619 0.60347 0.0
H724 H 0.11664 0.87127 0.65663 0.0
H725 H 0.14121 0.84602 0.67402 0.0
H726 H 0.08836 0.87309 0.61841 0.0
H727 H 0.16473 0.92473 0.65587 0.0
H728 H 0.21031 0.94008 0.66493 0.0
H729 H 0.21364 0.95335 0.59302 0.0
H730 H 0.16812 0.93784 0.5835 0.0
H731 H 0.03169 0.96535 0.5871 0.0
H732 H 0.05413 0.9399 0.60811 0.0
H733 H 0.10587 0.95104 0.55886 0.0
H734 H 0.0845 0.97746 0.53889 0.0
H735 H 0.13094 0.95177 0.59824 0.0
H736 H 0.05369 0.89818 0.56097 0.0
H737 H 1.00791 0.88404 0.55311 0.0
H738 H 1.00601 0.87576 0.62605 0.0
H739 H 0.05175 0.89002 0.63434 0.0
C740 C 0.17342 0.86399 0.62954 0.0
C741 C 0.16793 0.85244 0.6498 0.0
C742 C 0.15867 0.87782 0.61911 0.0
C743 C 0.13837 0.88126 0.62895 0.0
C744 C 0.13231 0.86926 0.64872 0.0
C745 C 0.14674 0.85498 0.65891 0.0
C746 C 0.12388 0.89766 0.61886 0.0
C747 C 0.09773 0.89038 0.61425 0.0
C748 C 0.13578 0.9203 0.61319 0.0
C749 C 0.16307 0.93 0.61897 0.0
C750 C 0.17521 0.93085 0.64199 0.0
C751 C 0.20103 0.93957 0.64721 0.0
C752 C 0.21486 0.94765 0.62956 0.0
C753 C 0.20291 0.94709 0.60667 0.0
C754 C 0.1771 0.93837 0.60136 0.0
C755 C 0.04789 0.96236 0.58082 0.0
C756 C 0.05631 0.97351 0.56133 0.0
C757 C 0.06064 0.9476 0.59274 0.0
C758 C 0.08163 0.943 0.58497 0.0
C759 C 0.08989 0.95417 0.56543 0.0
C760 C 0.07757 0.96933 0.55393 0.0
C761 C 0.09544 0.92701 0.59711 0.0
C762 C 0.12153 0.93445 0.6023 0.0
C763 C 0.08344 0.90461 0.60339 0.0
C764 C 0.05608 0.89529 0.59828 0.0
C765 C 0.04348 0.89335 0.57532 0.0
C766 C 0.01755 0.88534 0.57079 0.0
C767 C 1.00406 0.87906 0.58908 0.0
C768 C 0.01648 0.88063 0.61191 0.0
C769 C 0.0424 0.88863 0.61652 0.0
H770 H 0.98398 0.87293 0.58556 0.0
H771 H 0.23485 0.95437 0.63362 0.0
H772 H 0.77232 0.35465 0.8923 0.0
H773 H 0.80945 0.37785 0.91776 0.0
H774 H 0.83717 0.41079 0.8582 0.0
H775 H 0.79964 0.38809 0.83273 0.0
H776 H 0.87296 0.39326 0.89293 0.0
H777 H 0.81713 0.44202 0.88538 0.0
H778 H 0.7773 0.45195 0.88586 0.0
H779 H 0.78004 0.4374 0.95806 0.0
H780 H 0.8197 0.42697 0.95788 0.0
H781 H 0.9694 0.48326 0.95572 0.0
H782 H 0.93325 0.46252 0.92783 0.0
H783 H 0.89341 0.43869 0.98449 0.0
H784 H 0.92943 0.45969 1.01248 0.0
H785 H 0.86403 0.45261 0.94952 0.0
H786 H 0.9196 0.40313 0.95687 0.0
H787 H 0.95999 0.39421 0.95661 0.0
H788 H 0.95817 0.41063 0.88494 0.0
H789 H 0.9179 0.41995 0.88487 0.0
C790 C 0.78648 0.36669 0.88467 0.0
C791 C 0.78327 0.36961 0.86062 0.0
C792 C 0.80756 0.37995 0.89918 0.0
C793 C 0.82595 0.39599 0.8898 0.0
C794 C 0.82316 0.39845 0.86569 0.0
C795 C 0.80179 0.38556 0.85123 0.0
C796 C 0.84775 0.41058 0.90537 0.0
C797 C 0.87113 0.40646 0.90509 0.0
C798 C 0.84518 0.42749 0.92144 0.0
C799 C 0.82119 0.43342 0.92153 0.0
C800 C 0.80907 0.44063 0.90127 0.0
C801 C 0.78656 0.44642 0.90151 0.0
C802 C 0.7761 0.44523 0.92196 0.0
C803 C 0.78813 0.43826 0.94222 0.0
C804 C 0.81062 0.43241 0.94206 0.0
C805 C 0.95289 0.47368 0.96222 0.0
C806 C 0.95223 0.47293 0.98625 0.0
C807 C 0.9323 0.46178 0.94627 0.0
C808 C 0.91076 0.44882 0.9541 0.0
C809 C 0.90986 0.44855 0.97809 0.0
C810 C 0.93045 0.46048 0.99405 0.0
C811 C 0.88931 0.43521 0.93729 0.0
C812 C 0.86594 0.43946 0.93734 0.0
C813 C 0.89192 0.41842 0.92103 0.0
C814 C 0.91586 0.4124 0.92091 0.0
C815 C 0.92789 0.40495 0.94109 0.0
C816 C 0.95075 0.39982 0.941 0.0
C817 C 0.96167 0.40191 0.92079 0.0
C818 C 0.9497 0.40905 0.90059 0.0
C819 C 0.92684 0.41422 0.90059 0.0
H820 H 0.97939 0.39795 0.92076 0.0
H821 H 0.7587 0.44977 0.92213 0.0
H822 H 0.75452 0.60825 0.39462 0.0
H823 H 0.72111 0.5952 0.41733 0.0
H824 H 0.66815 0.60688 0.36059 0.0
H825 H 0.70193 0.62129 0.33804 0.0
H826 H 0.6555 0.62 0.39869 0.0
H827 H 0.67425 0.55034 0.37625 0.0
H828 H 0.70035 0.52369 0.37139 0.0
H829 H 0.72232 0.52635 0.44546 0.0
H830 H 0.6966 0.55327 0.45074 0.0
H831 H 0.55178 0.56267 0.45389 0.0
H832 H 0.58222 0.57588 0.42778 0.0
H833 H 0.63857 0.55795 0.47707 0.0
H834 H 0.6072 0.54237 0.50177 0.0
H835 H 0.6478 0.54745 0.43988 0.0
H836 H 0.62928 0.61991 0.46125 0.0
H837 H 0.60083 0.64476 0.4643 0.0
H838 H 0.57635 0.63527 0.39047 0.0
H839 H 0.60451 0.61023 0.38704 0.0
C840 C 0.73589 0.60837 0.38683 0.0
C841 C 0.7314 0.61612 0.36421 0.0
C842 C 0.7165 0.60047 0.3999 0.0
C843 C 0.69163 0.59953 0.39083 0.0
C844 C 0.68697 0.60721 0.36824 0.0
C845 C 0.70645 0.61528 0.35514 0.0
C846 C 0.6708 0.59083 0.40503 0.0
C847 C 0.65376 0.604 0.40751 0.0
C848 C 0.66815 0.57005 0.41694 0.0
C849 C 0.68371 0.55398 0.41385 0.0
C850 C 0.68481 0.54538 0.39148 0.0
C851 C 0.6995 0.5302 0.38866 0.0
C852 C 0.71304 0.52338 0.4081 0.0
C853 C 0.71186 0.53168 0.43042 0.0
C854 C 0.69722 0.54688 0.43334 0.0
C855 C 0.57075 0.56181 0.45924 0.0
C856 C 0.57707 0.55176 0.48015 0.0
C857 C 0.58844 0.56966 0.44431 0.0
C858 C 0.61346 0.56881 0.45032 0.0
C859 C 0.6197 0.55905 0.47158 0.0
C860 C 0.60175 0.55031 0.48598 0.0
C861 C 0.63291 0.57703 0.43441 0.0
C862 C 0.64963 0.56363 0.43139 0.0
C863 C 0.63514 0.59754 0.42193 0.0
C864 C 0.61883 0.61311 0.42394 0.0
C865 C 0.6178 0.62314 0.4457 0.0
C866 C 0.60172 0.63722 0.44748 0.0
C867 C 0.58675 0.64154 0.4276 0.0
C868 C 0.58794 0.6319 0.40586 0.0
C869 C 0.60398 0.6178 0.40398 0.0
H870 H 0.57426 0.6524 0.42904 0.0
H871 H 0.72439 0.51161 0.40588 0.0
H872 H 0.20843 0.36603 0.19868 0.0
H873 H 0.17914 0.3724 0.16564 0.0
H874 H 0.2284 0.36177 0.11858 0.0
H875 H 0.25789 0.35565 0.15159 0.0
H876 H 0.20282 0.3957 0.10566 0.0
H877 H 0.18509 0.31689 0.12901 0.0
H878 H 0.17828 0.28757 0.15825 0.0
H879 H 0.11505 0.30939 0.17377 0.0
H880 H 0.12179 0.33915 0.14502 0.0
H881 H 0.09688 0.39908 0.02735 0.0
H882 H 0.12952 0.38007 0.04147 0.0
H883 H 0.10158 0.3709 0.10698 0.0
H884 H 0.06926 0.38921 0.09299 0.0
H885 H 0.12093 0.33824 0.10033 0.0
H886 H 0.14568 0.42251 0.09245 0.0
H887 H 0.15452 0.45845 0.0715 0.0
H888 H 0.20314 0.43237 0.03403 0.0
H889 H 0.19431 0.39617 0.05459 0.0
C890 C 0.21333 0.36588 0.18135 0.0
C891 C 0.23519 0.36021 0.17753 0.0
C892 C 0.19659 0.3693 0.16255 0.0
C893 C 0.20143 0.36678 0.13978 0.0
C894 C 0.22436 0.36349 0.13608 0.0
C895 C 0.24122 0.36022 0.15492 0.0
C896 C 0.18162 0.3656 0.11998 0.0
C897 C 0.18503 0.38288 0.10409 0.0
C898 C 0.15855 0.34879 0.11817 0.0
C899 C 0.15396 0.33025 0.13482 0.0
C900 C 0.16977 0.31546 0.13868 0.0
C901 C 0.16594 0.29879 0.15521 0.0
C902 C 0.14623 0.29661 0.16784 0.0
C903 C 0.13028 0.31107 0.16395 0.0
C904 C 0.13408 0.32782 0.14752 0.0
C905 C 0.09734 0.39227 0.04445 0.0
C906 C 0.08083 0.39597 0.0592 0.0
C907 C 0.11597 0.38148 0.0525 0.0
C908 C 0.1184 0.37466 0.0755 0.0
C909 C 0.10017 0.37603 0.08917 0.0
C910 C 0.08152 0.3865 0.08108 0.0
C911 C 0.14139 0.36952 0.08708 0.0
C912 C 0.1389 0.35066 0.10128 0.0
C913 C 0.16501 0.38548 0.08803 0.0
C914 C 0.16905 0.40657 0.07473 0.0
C915 C 0.15801 0.42437 0.07953 0.0
C916 C 0.1631 0.4448 0.06782 0.0
C917 C 0.17947 0.44772 0.05153 0.0
C918 C 0.19052 0.4301 0.0467 0.0
C919 C 0.18542 0.40961 0.05831 0.0
H920 H 0.18349 0.4636 0.04256 0.0
H921 H 0.14332 0.28371 0.18065 0.0
H922 H 0.60521 0.18463 0.83022 0.0
H923 H 0.59134 0.15325 0.85566 0.0
H924 H 0.58631 0.20311 0.90798 0.0
H925 H 0.60005 0.23451 0.88263 0.0
H926 H 0.61187 0.17097 0.92562 0.0
H927 H 0.53468 0.17083 0.87705 0.0
H928 H 0.50735 0.16882 0.83945 0.0
H929 H 0.5159 0.10138 0.82283 0.0
H930 H 0.54359 0.10314 0.86021 0.0
H931 H 0.52035 0.10096 0.99103 0.0
H932 H 0.54014 0.12884 0.96476 0.0
H933 H 0.57053 0.07713 0.93637 0.0
H934 H 0.55157 0.04929 0.96349 0.0
H935 H 0.53477 0.10751 0.90517 0.0
H936 H 0.61248 0.10718 0.95183 0.0
H937 H 0.64585 0.11111 0.98536 0.0
H938 H 0.63953 0.17903 1.00332 0.0
H939 H 0.60587 0.17536 0.97008 0.0
C940 C 0.60104 0.1889 0.84711 0.0
C941 C 0.60363 0.21212 0.85432 0.0
C942 C 0.59303 0.17092 0.86161 0.0
C943 C 0.58769 0.17576 0.88376 0.0
C944 C 0.59027 0.19891 0.89098 0.0
C945 C 0.59794 0.21685 0.87638 0.0
C946 C 0.57992 0.15684 0.89965 0.0
C947 C 0.59487 0.15721 0.92123 0.0
C948 C 0.55823 0.13839 0.89363 0.0
C949 C 0.54138 0.13721 0.87131 0.0
C950 C 0.53088 0.15565 0.86529 0.0
C951 C 0.5153 0.15454 0.84404 0.0
C952 C 0.50994 0.13501 0.82873 0.0
C953 C 0.52009 0.11651 0.83469 0.0
C954 C 0.53571 0.11754 0.85591 0.0
C955 C 0.53156 0.09559 0.97945 0.0
C956 C 0.53446 0.07292 0.97941 0.0
C957 C 0.54291 0.11158 0.96447 0.0
C958 C 0.55698 0.10518 0.94869 0.0
C959 C 0.56001 0.08256 0.94859 0.0
C960 C 0.54918 0.06668 0.96408 0.0
C961 C 0.56665 0.12179 0.9313 0.0
C962 C 0.55188 0.12114 0.9095 0.0
C963 C 0.58869 0.13987 0.93699 0.0
C964 C 0.60635 0.14082 0.95871 0.0
C965 C 0.6177 0.12268 0.96331 0.0
C966 C 0.63686 0.12496 0.98212 0.0
C967 C 0.64486 0.14537 0.99637 0.0
C968 C 0.63333 0.16327 0.99222 0.0
C969 C 0.61419 0.16108 0.97344 0.0
H970 H 0.66014 0.14742 1.01054 0.0
H971 H 0.49788 0.13419 0.81228 0.0
H972 H 0.91419 0.80372 0.33439 0.0
H973 H 0.93205 0.8408 0.3568 0.0
H974 H 0.89195 0.81446 0.41258 0.0
H975 H 0.87302 0.77799 0.38956 0.0
H976 H 0.8908 0.85581 0.41064 0.0
H977 H 0.96046 0.82196 0.41075 0.0
H978 H 0.98931 0.80531 0.39217 0.0
H979 H 1.0115 0.86759 0.35648 0.0
H980 H 0.98257 0.88447 0.37466 0.0
H981 H 0.96071 0.94161 0.49995 0.0
H982 H 0.93992 0.9065 0.47497 0.0
H983 H 0.981 0.93461 0.42034 0.0
H984 H 1.00263 0.96901 0.44589 0.0
H985 H 0.98128 0.89315 0.42064 0.0
H986 H 0.91332 0.92779 0.4209 0.0
H987 H 0.88419 0.94491 0.43848 0.0
H988 H 0.85847 0.88209 0.4723 0.0
H989 H 0.88768 0.86472 0.45515 0.0
C990 C 0.90926 0.80582 0.35147 0.0
C991 C 0.8922 0.78769 0.36013 0.0
C992 C 0.91966 0.8271 0.36447 0.0
C993 C 0.91405 0.8307 0.38694 0.0
C994 C 0.89685 0.81253 0.39545 0.0
C995 C 0.88601 0.7915 0.38224 0.0
C996 C 0.92578 0.85316 0.40158 0.0
C997 C 0.91067 0.86371 0.413 0.0
C998 C 0.95163 0.86436 0.40444 0.0
C999 C 0.96925 0.85436 0.39388 0.0
C1000 C 0.97145 0.83204 0.39887 0.0
C1001 C 0.9878 0.82257 0.38841 0.0
C1002 C 1.00218 0.83537 0.37311 0.0
C1003 C 1.00033 0.85769 0.36831 0.0
C1004 C 0.98398 0.86722 0.37869 0.0
C1005 C 0.9649 0.94042 0.48244 0.0
C1006 C 0.98299 0.9583 0.47476 0.0
C1007 C 0.95293 0.92028 0.46802 0.0
C1008 C 0.95833 0.91764 0.44528 0.0
C1009 C 0.97623 0.93584 0.43762 0.0
C1010 C 0.9885 0.95571 0.45219 0.0
C1011 C 0.94634 0.89573 0.42986 0.0
C1012 C 0.9614 0.88529 0.41828 0.0
C1013 C 0.92045 0.88471 0.42678 0.0
C1014 C 0.90282 0.89506 0.43694 0.0
C1015 C 0.90155 0.9177 0.4322 0.0
C1016 C 0.88502 0.92743 0.44207 0.0
C1017 C 0.86954 0.91462 0.45654 0.0
C1018 C 0.8705 0.89201 0.46112 0.0
C1019 C 0.88701 0.88221 0.45132 0.0
H1020 H 0.85676 0.92219 0.46418 0.0
H1021 H 0.01481 0.82799 0.365 0.0
H1022 H 0.33818 0.71521 0.70014 0.0
H1023 H 0.36229 0.68939 0.68857 0.0
H1024 H 0.31934 0.67957 0.61969 0.0
H1025 H 0.29459 0.70489 0.63151 0.0
H1026 H 0.32952 0.64001 0.63295 0.0
H1027 H 0.37877 0.72061 0.63524 0.0
H1028 H 0.39903 0.75877 0.65555 0.0
H1029 H 0.44196 0.72725 0.70585 0.0
H1030 H 0.42171 0.68888 0.686 0.0
H1031 H 0.40965 0.61018 0.56233 0.0
H1032 H 0.38246 0.62694 0.58224 0.0
H1033 H 0.43491 0.6363 0.64581 0.0
H1034 H 0.46232 0.6195 0.62591 0.0
H1035 H 0.42067 0.67358 0.64019 0.0
H1036 H 0.37763 0.59531 0.63922 0.0
H1037 H 0.35743 0.55519 0.62406 0.0
H1038 H 0.30344 0.57875 0.57773 0.0
H1039 H 0.32357 0.61908 0.59235 0.0
C1040 C 0.33374 0.70737 0.68257 0.0
C1041 C 0.31469 0.71231 0.66662 0.0
C1042 C 0.34761 0.69267 0.67595 0.0
C1043 C 0.34317 0.68299 0.65303 0.0
C1044 C 0.3233 0.68695 0.63741 0.0
C1045 C 0.30913 0.70141 0.64416 0.0
C1046 C 0.35989 0.66969 0.64498 0.0
C1047 C 0.3494 0.64746 0.63425 0.0
C1048 C 0.38607 0.6788 0.64776 0.0
C1049 C 0.39862 0.70192 0.65926 0.0
C1050 C 0.39249 0.72184 0.65067 0.0
C1051 C 0.40395 0.74349 0.66211 0.0
C1052 C 0.42173 0.74543 0.682 0.0
C1053 C 0.42817 0.72573 0.69045 0.0
C1054 C 0.41673 0.70404 0.67911 0.0
C1055 C 0.41527 0.61542 0.58065 0.0
C1056 C 0.43825 0.61343 0.59246 0.0
C1057 C 0.39963 0.62502 0.59207 0.0
C1058 C 0.40638 0.6327 0.61568 0.0
C1059 C 0.42921 0.63055 0.6276 0.0
C1060 C 0.44494 0.62101 0.61616 0.0
C1061 C 0.39021 0.64412 0.62738 0.0
C1062 C 0.4008 0.66599 0.63889 0.0
C1063 C 0.36424 0.63439 0.62588 0.0
C1064 C 0.35228 0.61024 0.61671 0.0
C1065 C 0.36161 0.59197 0.62562 0.0
C1066 C 0.35014 0.56918 0.61716 0.0
C1067 C 0.3292 0.56443 0.5999 0.0
C1068 C 0.31968 0.58246 0.59107 0.0
C1069 C 0.33111 0.60529 0.59945 0.0
H1070 H 0.32032 0.54677 0.59339 0.0
H1071 H 0.43056 0.7622 0.69084 0.0
H1072 H 0.80158 0.80057 0.68892 0.0
H1073 H 0.83648 0.82516 0.67308 0.0
H1074 H 0.85143 0.87356 0.73253 0.0
H1075 H 0.81763 0.84862 0.74924 0.0
H1076 H 0.85062 0.89234 0.68465 0.0
H1077 H 0.88685 0.84301 0.73657 0.0
H1078 H 0.88868 0.80499 0.75115 0.0
H1079 H 0.8985 0.78202 0.68358 0.0
H1080 H 0.89637 0.81984 0.66854 0.0
H1081 H 0.96053 0.96155 0.66356 0.0
H1082 H 0.938 0.93437 0.6887 0.0
H1083 H 0.92502 0.87922 0.63585 0.0
H1084 H 0.9472 0.9062 0.61059 0.0
H1085 H 0.92597 0.86399 0.68224 0.0
H1086 H 0.88647 0.90885 0.62873 0.0
H1087 H 0.88356 0.94524 0.61081 0.0
H1088 H 0.87737 0.97454 0.67697 0.0
H1089 H 0.88073 0.9384 0.69536 0.0
C1090 C 0.81236 0.81636 0.69871 0.0
C1091 C 0.80687 0.82253 0.72041 0.0
C1092 C 0.83211 0.83042 0.68955 0.0
C1093 C 0.84637 0.85095 0.7018 0.0
C1094 C 0.84042 0.85773 0.72291 0.0
C1095 C 0.82098 0.84351 0.73229 0.0
C1096 C 0.86824 0.86493 0.69305 0.0
C1097 C 0.86726 0.88637 0.68447 0.0
C1098 C 0.88952 0.85667 0.69231 0.0
C1099 C 0.89125 0.83413 0.70141 0.0
C1100 C 0.88922 0.82978 0.7248 0.0
C1101 C 0.89035 0.80829 0.73315 0.0
C1102 C 0.89365 0.79108 0.71829 0.0
C1103 C 0.89593 0.79536 0.69507 0.0
C1104 C 0.89479 0.81682 0.68663 0.0
C1105 C 0.9537 0.94344 0.65771 0.0
C1106 C 0.95489 0.93606 0.63495 0.0
C1107 C 0.94102 0.92796 0.6721 0.0
C1108 C 0.92945 0.90507 0.66374 0.0
C1109 C 0.93382 0.8969 0.64245 0.0
C1110 C 0.94648 0.91237 0.62804 0.0
C1111 C 0.90854 0.89159 0.67423 0.0
C1112 C 0.90952 0.87014 0.68282 0.0
C1113 C 0.88699 0.8996 0.67455 0.0
C1114 C 0.88411 0.92105 0.66345 0.0
C1115 C 0.88462 0.9231 0.63947 0.0
C1116 C 0.88288 0.94366 0.62923 0.0
C1117 C 0.88034 0.96221 0.64275 0.0
C1118 C 0.87939 0.96017 0.66653 0.0
C1119 C 0.88121 0.93965 0.67687 0.0
H1120 H 0.87905 0.97814 0.63481 0.0
H1121 H 0.8945 0.77444 0.72478 0.0
H1122 H 0.674 0.20434 0.21904 0.0
H1123 H 0.64289 0.18171 0.18758 0.0
H1124 H 0.69503 0.14387 0.1723 0.0
H1125 H 0.72619 0.16644 0.20372 0.0
H1126 H 0.66758 0.155 0.13221 0.0
H1127 H 0.65445 0.12036 0.20438 0.0
H1128 H 0.64766 0.11986 0.24531 0.0
H1129 H 0.57948 0.13942 0.226 0.0
H1130 H 0.58612 0.14043 0.18496 0.0
H1131 H 0.59577 0.0519 0.07475 0.0
H1132 H 0.62244 0.07947 0.10492 0.0
H1133 H 0.56136 0.10858 0.11337 0.0
H1134 H 0.53403 0.08023 0.08347 0.0
H1135 H 0.59079 0.10534 0.15562 0.0
H1136 H 0.60415 0.13542 0.08063 0.0
H1137 H 0.61037 0.12775 0.04037 0.0
H1138 H 0.67946 0.11215 0.06607 0.0
H1139 H 0.6735 0.11944 0.10643 0.0
C1140 C 0.67896 0.1915 0.20867 0.0
C1141 C 0.70246 0.18705 0.21387 0.0
C1142 C 0.66115 0.17852 0.19081 0.0
C1143 C 0.6666 0.16099 0.17776 0.0
C1144 C 0.69045 0.1573 0.18218 0.0
C1145 C 0.70817 0.1701 0.20019 0.0
C1146 C 0.64702 0.14547 0.16056 0.0
C1147 C 0.65078 0.14421 0.13733 0.0
C1148 C 0.62502 0.13145 0.16716 0.0
C1149 C 0.62093 0.13078 0.19172 0.0
C1150 C 0.63813 0.12478 0.20892 0.0
C1151 C 0.6343 0.12436 0.23212 0.0
C1152 C 0.61319 0.12968 0.23827 0.0
C1153 C 0.59585 0.13536 0.22122 0.0
C1154 C 0.59964 0.13586 0.19799 0.0
C1155 C 0.5879 0.06407 0.08304 0.0
C1156 C 0.56288 0.06413 0.07646 0.0
C1157 C 0.6032 0.07985 0.10031 0.0
C1158 C 0.59406 0.09645 0.11099 0.0
C1159 C 0.56882 0.09601 0.1052 0.0
C1160 C 0.55329 0.07989 0.08808 0.0
C1161 C 0.61139 0.11482 0.12733 0.0
C1162 C 0.60726 0.11659 0.15038 0.0
C1163 C 0.63319 0.12915 0.12065 0.0
C1164 C 0.63833 0.12786 0.09649 0.0
C1165 C 0.62079 0.13059 0.07764 0.0
C1166 C 0.6242 0.12619 0.05484 0.0
C1167 C 0.64518 0.11924 0.05074 0.0
C1168 C 0.66318 0.11743 0.06933 0.0
C1169 C 0.65984 0.12177 0.09215 0.0
H1170 H 0.64743 0.11501 0.03319 0.0
H1171 H 0.61024 0.12933 0.25625 0.0
H1172 H 0.44911 0.65998 0.32092 0.0
H1173 H 0.46299 0.63542 0.34975 0.0
H1174 H 0.40445 0.6404 0.38829 0.0
H1175 H 0.39187 0.66694 0.36075 0.0
H1176 H 0.44232 0.63884 0.41806 0.0
H1177 H 0.40114 0.59187 0.3487 0.0
H1178 H 0.39323 0.58032 0.30676 0.0
H1179 H 0.46769 0.57314 0.31062 0.0
H1180 H 0.47613 0.58491 0.3525 0.0
H1181 H 0.45467 0.53967 0.48259 0.0
H1182 H 0.43893 0.56719 0.45786 0.0
H1183 H 0.4947 0.56718 0.4141 0.0
H1184 H 0.50909 0.53867 0.4377 0.0
H1185 H 0.45465 0.5653 0.38777 0.0
H1186 H 0.49565 0.61306 0.45808 0.0
H1187 H 0.50163 0.62206 0.50045 0.0
H1188 H 0.42596 0.6261 0.4953 0.0
H1189 H 0.41942 0.61675 0.45297 0.0
C1190 C 0.43942 0.65648 0.33575 0.0
C1191 C 0.41903 0.66554 0.33804 0.0
C1192 C 0.44719 0.64193 0.35214 0.0
C1193 C 0.43434 0.63528 0.37097 0.0
C1194 C 0.41458 0.64491 0.37384 0.0
C1195 C 0.40714 0.65992 0.35774 0.0
C1196 C 0.4411 0.61786 0.38716 0.0
C1197 C 0.44479 0.62268 0.41139 0.0
C1198 C 0.44446 0.59665 0.37876 0.0
C1199 C 0.4393 0.58941 0.35365 0.0
C1200 C 0.41584 0.58793 0.34055 0.0
C1201 C 0.41127 0.58134 0.31681 0.0
C1202 C 0.42996 0.57604 0.30603 0.0
C1203 C 0.45324 0.57726 0.31898 0.0
C1204 C 0.45792 0.58386 0.34272 0.0
C1205 C 0.46347 0.54558 0.46765 0.0
C1206 C 0.48311 0.53701 0.46208 0.0
C1207 C 0.45463 0.56149 0.4536 0.0
C1208 C 0.4658 0.56972 0.43413 0.0
C1209 C 0.48559 0.56121 0.42886 0.0
C1210 C 0.49394 0.54493 0.44247 0.0
C1211 C 0.45674 0.58657 0.41865 0.0
C1212 C 0.45235 0.58153 0.39449 0.0
C1213 C 0.45268 0.60744 0.42719 0.0
C1214 C 0.457 0.61405 0.45242 0.0
C1215 C 0.48029 0.61585 0.46601 0.0
C1216 C 0.48376 0.62097 0.49001 0.0
C1217 C 0.46417 0.62459 0.50057 0.0
C1218 C 0.44111 0.62326 0.48711 0.0
C1219 C 0.43751 0.61807 0.46311 0.0
H1220 H 0.46686 0.62845 0.51917 0.0
H1221 H 0.42638 0.57095 0.28764 0.0
H1222 H 0.1109 0.38616 0.81905 0.0
H1223 H 0.09293 0.40247 0.84881 0.0
H1224 H 0.16208 0.45402 0.86953 0.0
H1225 H 0.18008 0.43876 0.8389 0.0
H1226 H 0.13931 0.4337 0.90875 0.0
H1227 H 0.1153 0.4695 0.83805 0.0
H1228 H 0.09652 0.46823 0.79684 0.0
H1229 H 0.0268 0.42753 0.81269 0.0
H1230 H 0.04529 0.42832 0.85395 0.0
H1231 H 0.09155 0.50093 0.98503 0.0
H1232 H 0.11239 0.48618 0.95626 0.0
H1233 H 0.04103 0.45516 0.9146 0.0
H1234 H 0.02071 0.47215 0.94224 0.0
H1235 H 0.06648 0.46506 0.88559 0.0
H1236 H 0.08587 0.42573 0.95302 0.0
H1237 H 0.10112 0.42177 0.99419 0.0
H1238 H 0.1745 0.46056 0.98572 0.0
H1239 H 0.15951 0.46525 0.94448 0.0
C1240 C 0.12249 0.40123 0.82942 0.0
C1241 C 0.14728 0.41097 0.82566 0.0
C1242 C 0.11204 0.41049 0.84687 0.0
C1243 C 0.12589 0.42972 0.86169 0.0
C1244 C 0.15077 0.43916 0.85858 0.0
C1245 C 0.16117 0.43016 0.84086 0.0
C1246 C 0.11416 0.44026 0.87978 0.0
C1247 C 0.12358 0.44084 0.90365 0.0
C1248 C 0.09295 0.44887 0.87365 0.0
C1249 C 0.08172 0.44883 0.84901 0.0
C1250 C 0.096 0.46019 0.8327 0.0
C1251 C 0.08541 0.45956 0.80935 0.0
C1252 C 0.0605 0.44776 0.80214 0.0
C1253 C 0.0461 0.43665 0.8183 0.0
C1254 C 0.05661 0.4372 0.84167 0.0
C1255 C 0.08032 0.49092 0.96973 0.0
C1256 C 0.05435 0.48772 0.96615 0.0
C1257 C 0.09229 0.4821 0.95319 0.0
C1258 C 0.07867 0.46863 0.93294 0.0
C1259 C 0.05255 0.46537 0.92963 0.0
C1260 C 0.04073 0.47501 0.94568 0.0
C1261 C 0.09129 0.45842 0.91506 0.0
C1262 C 0.08212 0.45793 0.89105 0.0
C1263 C 0.11219 0.4491 0.92119 0.0
C1264 C 0.1215 0.44603 0.94575 0.0
C1265 C 0.10524 0.4335 0.95996 0.0
C1266 C 0.11383 0.43113 0.9833 0.0
C1267 C 0.13875 0.44088 0.99257 0.0
C1268 C 0.15518 0.45304 0.9785 0.0
C1269 C 0.14664 0.45558 0.95513 0.0
H1270 H 0.14527 0.43895 1.01063 0.0
H1271 H 0.05234 0.44727 0.78405 0.0
H1272 H 0.69544 0.8256 0.87288 0.0
H1273 H 0.67604 0.8516 0.89129 0.0
H1274 H 0.60343 0.80687 0.86488 0.0
H1275 H 0.6228 0.78153 0.84506 0.0
H1276 H 0.60673 0.84803 0.85093 0.0
H1277 H 0.62676 0.81794 0.92463 0.0
H1278 H 0.65239 0.8058 0.95762 0.0
H1279 H 0.6997 0.87495 0.96919 0.0
H1280 H 0.67465 0.88745 0.93603 0.0
H1281 H 0.54988 0.91549 0.92146 0.0
H1282 H 0.56267 0.88618 0.89983 0.0
H1283 H 0.63537 0.93304 0.90183 0.0
H1284 H 0.62256 0.96248 0.92309 0.0
H1285 H 0.62931 0.88975 0.92867 0.0
H1286 H 0.61147 0.91883 0.85367 0.0
H1287 H 0.58531 0.93175 0.82167 0.0
H1288 H 0.53359 0.86455 0.8139 0.0
H1289 H 0.55926 0.85133 0.84617 0.0
C1290 C 0.67534 0.82114 0.87131 0.0
C1291 C 0.66054 0.80195 0.85708 0.0
C1292 C 0.66428 0.83581 0.88214 0.0
C1293 C 0.6383 0.83114 0.87935 0.0
C1294 C 0.62355 0.81074 0.86709 0.0
C1295 C 0.63461 0.79623 0.85592 0.0
C1296 C 0.62678 0.84931 0.8858 0.0
C1297 C 0.61123 0.85678 0.86813 0.0
C1298 C 0.63342 0.86122 0.90797 0.0
C1299 C 0.64888 0.8536 0.92767 0.0
C1300 C 0.64278 0.83052 0.93403 0.0
C1301 C 0.65718 0.82358 0.95281 0.0
C1302 C 0.67768 0.83958 0.96546 0.0
C1303 C 0.68383 0.86256 0.95936 0.0
C1304 C 0.66952 0.86958 0.94058 0.0
C1305 C 0.56814 0.91981 0.9162 0.0
C1306 C 0.58539 0.94093 0.92385 0.0
C1307 C 0.5754 0.90317 0.90397 0.0
C1308 C 0.59993 0.90763 0.89961 0.0
C1309 C 0.61634 0.92956 0.90512 0.0
C1310 C 0.60899 0.94631 0.91707 0.0
C1311 C 0.6097 0.88828 0.89379 0.0
C1312 C 0.62478 0.88068 0.91161 0.0
C1313 C 0.60265 0.87626 0.87187 0.0
C1314 C 0.58713 0.88417 0.85252 0.0
C1315 C 0.59437 0.90688 0.84534 0.0
C1316 C 0.57967 0.91424 0.8271 0.0
C1317 C 0.55776 0.899 0.81581 0.0
C1318 C 0.55054 0.87635 0.8227 0.0
C1319 C 0.56517 0.8689 0.84095 0.0
H1320 H 0.54642 0.90473 0.80167 0.0
H1321 H 0.68877 0.83417 0.98003 0.0
H1322 H 0.89083 0.20685 0.39703 0.0
H1323 H 0.91685 0.18433 0.41763 0.0
H1324 H 0.85994 0.12145 0.39489 0.0
H1325 H 0.83296 0.1437 0.37672 0.0
H1326 H 0.87572 0.1172 0.43576 0.0
H1327 H 0.92046 0.14458 0.37176 0.0
H1328 H 0.94325 0.17447 0.34859 0.0
H1329 H 0.99668 0.20272 0.40925 0.0
H1330 H 0.97403 0.17317 0.43282 0.0
H1331 H 0.9404 0.03294 0.46381 0.0
H1332 H 0.91884 0.05865 0.44244 0.0
H1333 H 0.98055 0.11725 0.46784 0.0
H1334 H 1.00303 0.09109 0.48743 0.0
H1335 H 0.96411 0.12612 0.42792 0.0
H1336 H 0.92027 0.099 0.49163 0.0
H1337 H 0.89787 0.06943 0.51536 0.0
H1338 H 0.84273 0.04155 0.45574 0.0
H1339 H 0.86495 0.07078 0.43162 0.0
C1340 C 0.88359 0.18827 0.39665 0.0
C1341 C 0.85955 0.17737 0.38475 0.0
C1342 C 0.89884 0.17526 0.40815 0.0
C1343 C 0.8908 0.15093 0.40756 0.0
C1344 C 0.86689 0.14011 0.39569 0.0
C1345 C 0.85147 0.15304 0.38482 0.0
C1346 C 0.90637 0.13644 0.41994 0.0
C1347 C 0.89496 0.11904 0.43366 0.0
C1348 C 0.93187 0.13916 0.41828 0.0
C1349 C 0.94543 0.15682 0.40406 0.0
C1350 C 0.93698 0.15726 0.38016 0.0
C1351 C 0.94988 0.17413 0.36697 0.0
C1352 C 0.97136 0.19052 0.37745 0.0
C1353 C 0.98002 0.19005 0.40115 0.0
C1354 C 0.96718 0.17324 0.41443 0.0
C1355 C 0.94939 0.0513 0.46468 0.0
C1356 C 0.97329 0.06002 0.47745 0.0
C1357 C 0.93694 0.06612 0.45264 0.0
C1358 C 0.94747 0.09025 0.45408 0.0
C1359 C 0.97172 0.09885 0.46643 0.0
C1360 C 0.98458 0.08388 0.47773 0.0
C1361 C 0.93315 0.10644 0.44309 0.0
C1362 C 0.94485 0.12426 0.42989 0.0
C1363 C 0.90786 0.10423 0.44524 0.0
C1364 C 0.89433 0.08696 0.45984 0.0
C1365 C 0.9034 0.08651 0.4836 0.0
C1366 C 0.89075 0.06981 0.4971 0.0
C1367 C 0.86892 0.0536 0.48705 0.0
C1368 C 0.85964 0.0541 0.4635 0.0
C1369 C 0.87223 0.07074 0.44992 0.0
H1370 H 0.85917 0.04067 0.49753 0.0
H1371 H 0.98132 0.20356 0.3672 0.0
H1372 H 0.23417 0.64225 0.20051 0.0
H1373 H 0.19482 0.62302 0.17627 0.0
H1374 H 0.22417 0.65087 0.11528 0.0
H1375 H 0.2626 0.67176 0.13951 0.0
H1376 H 0.17909 0.65247 0.11108 0.0
H1377 H 0.22044 0.5926 0.13342 0.0
H1378 H 0.23997 0.56951 0.16125 0.0
H1379 H 0.17235 0.54807 0.19028 0.0
H1380 H 0.15252 0.57128 0.16281 0.0
H1381 H 0.1003 0.57504 0.02195 0.0
H1382 H 0.13624 0.59579 0.05012 0.0
H1383 H 0.09653 0.57089 0.10657 0.0
H1384 H 0.06066 0.54987 0.07847 0.0
H1385 H 0.14418 0.568 0.11514 0.0
H1386 H 0.10207 0.62566 0.0907 0.0
H1387 H 0.08235 0.64791 0.06209 0.0
H1388 H 0.15152 0.67293 0.03636 0.0
H1389 H 0.17157 0.65055 0.0646 0.0
C1390 C 0.23217 0.64466 0.18201 0.0
C1391 C 0.25188 0.65842 0.17205 0.0
C1392 C 0.20969 0.63333 0.16807 0.0
C1393 C 0.20663 0.63499 0.1438 0.0
C1394 C 0.22604 0.64911 0.13391 0.0
C1395 C 0.24826 0.66081 0.14784 0.0
C1396 C 0.18346 0.62196 0.12849 0.0
C1397 C 0.17167 0.63395 0.11185 0.0
C1398 C 0.1732 0.59788 0.12982 0.0
C1399 C 0.18509 0.58384 0.14622 0.0
C1400 C 0.2098 0.58307 0.14584 0.0
C1401 C 0.22091 0.56996 0.16154 0.0
C1402 C 0.20743 0.55738 0.17757 0.0
C1403 C 0.18278 0.55785 0.17789 0.0
C1404 C 0.17159 0.57096 0.16225 0.0
C1405 C 0.09929 0.57394 0.04036 0.0
C1406 C 0.07768 0.56098 0.04804 0.0
C1407 C 0.11977 0.58587 0.05643 0.0
C1408 C 0.11893 0.58514 0.08044 0.0
C1409 C 0.09755 0.57175 0.08813 0.0
C1410 C 0.07707 0.55981 0.07207 0.0
C1411 C 0.14032 0.59844 0.0975 0.0
C1412 C 0.15164 0.58653 0.11449 0.0
C1413 C 0.15021 0.62255 0.09644 0.0
C1414 C 0.13828 0.63629 0.07966 0.0
C1415 C 0.11304 0.63579 0.07885 0.0
C1416 C 0.1018 0.64844 0.0627 0.0
C1417 C 0.11566 0.66179 0.04739 0.0
C1418 C 0.1408 0.66257 0.04823 0.0
C1419 C 0.15212 0.64993 0.06432 0.0
H1420 H 0.10693 0.67156 0.03489 0.0
H1421 H 0.21607 0.54723 0.1897 0.0
H1422 H 0.28014 0.43075 0.64737 0.0
H1423 H 0.31233 0.44452 0.62299 0.0
H1424 H 0.36503 0.42112 0.67145 0.0
H1425 H 0.33292 0.4074 0.69602 0.0
H1426 H 0.38727 0.46362 0.65567 0.0
H1427 H 0.33903 0.39001 0.62112 0.0
H1428 H 0.30055 0.36058 0.60497 0.0
H1429 H 0.28462 0.40546 0.55149 0.0
H1430 H 0.32287 0.43532 0.56756 0.0
H1431 H 0.47454 0.46207 0.57442 0.0
H1432 H 0.44338 0.44807 0.6002 0.0
H1433 H 0.39445 0.48391 0.56202 0.0
H1434 H 0.42591 0.49877 0.53702 0.0
H1435 H 0.37113 0.4345 0.57293 0.0
H1436 H 0.41867 0.50831 0.60778 0.0
H1437 H 0.4568 0.5381 0.62399 0.0
H1438 H 0.47391 0.4931 0.6769 0.0
H1439 H 0.43604 0.46282 0.66069 0.0
C1440 C 0.29861 0.42872 0.65309 0.0
C1441 C 0.30361 0.41778 0.67384 0.0
C1442 C 0.31709 0.4365 0.63893 0.0
C1443 C 0.34135 0.4338 0.64506 0.0
C1444 C 0.34662 0.42349 0.6661 0.0
C1445 C 0.32805 0.41545 0.68013 0.0
C1446 C 0.36081 0.44107 0.62921 0.0
C1447 C 0.38377 0.45694 0.63769 0.0
C1448 C 0.35652 0.43288 0.60549 0.0
C1449 C 0.33366 0.41496 0.59566 0.0
C1450 C 0.32722 0.39366 0.60602 0.0
C1451 C 0.30547 0.3769 0.59687 0.0
C1452 C 0.29012 0.38117 0.57725 0.0
C1453 C 0.29652 0.4022 0.56671 0.0
C1454 C 0.31824 0.41904 0.57582 0.0
C1455 C 0.45699 0.46668 0.5713 0.0
C1456 C 0.45268 0.48135 0.55338 0.0
C1457 C 0.4392 0.4588 0.58619 0.0
C1458 C 0.41634 0.46483 0.58318 0.0
C1459 C 0.41176 0.47887 0.5648 0.0
C1460 C 0.42981 0.48733 0.55043 0.0
C1461 C 0.39747 0.45704 0.59937 0.0
C1462 C 0.37463 0.44108 0.59094 0.0
C1463 C 0.40188 0.46516 0.6231 0.0
C1464 C 0.42475 0.48317 0.63279 0.0
C1465 C 0.43074 0.50463 0.62267 0.0
C1466 C 0.45226 0.52164 0.6319 0.0
C1467 C 0.46783 0.51746 0.65141 0.0
C1468 C 0.46187 0.49628 0.66174 0.0
C1469 C 0.44038 0.47918 0.65253 0.0
H1470 H 0.48446 0.53067 0.65856 0.0
H1471 H 0.27328 0.36817 0.57019 0.0
H1472 H 0.82817 0.6966 0.83959 0.0
H1473 H 0.86003 0.6869 0.86771 0.0
H1474 H 0.80561 0.66163 0.91273 0.0
H1475 H 0.77365 0.67179 0.88469 0.0
H1476 H 0.84603 0.68951 0.93684 0.0
H1477 H 0.82908 0.62436 0.88377 0.0
H1478 H 0.82222 0.60267 0.84588 0.0
H1479 H 0.89671 0.63623 0.83561 0.0
H1480 H 0.90389 0.65839 0.87328 0.0
H1481 H 0.9208 0.62295 1.00058 0.0
H1482 H 0.89137 0.64358 0.98263 0.0
H1483 H 0.94467 0.67741 0.93971 0.0
H1484 H 0.97374 0.65626 0.95686 0.0
H1485 H 0.90386 0.64509 0.91596 0.0
H1486 H 0.91973 0.70911 0.97251 0.0
H1487 H 0.92477 0.72666 1.0122 0.0
H1488 H 0.84986 0.6899 0.01804 0.0
H1489 H 0.84449 0.67187 0.97849 0.0
C1490 C 0.82288 0.68843 0.8552 0.0
C1491 C 0.79852 0.68481 0.85999 0.0
C1492 C 0.84109 0.68299 0.8713 0.0
C1493 C 0.83512 0.67349 0.89225 0.0
C1494 C 0.81057 0.66907 0.8967 0.0
C1495 C 0.79237 0.67472 0.88068 0.0
C1496 C 0.85488 0.6692 0.90984 0.0
C1497 C 0.85853 0.67957 0.93239 0.0
C1498 C 0.87122 0.65639 0.90395 0.0
C1499 C 0.86694 0.64319 0.88124 0.0
C1500 C 0.84392 0.62727 0.87333 0.0
C1501 C 0.83999 0.61486 0.85191 0.0
C1502 C 0.859 0.61812 0.83832 0.0
C1503 C 0.88199 0.63375 0.84614 0.0
C1504 C 0.88601 0.64623 0.86753 0.0
C1505 C 0.92662 0.63557 0.98805 0.0
C1506 C 0.94912 0.63744 0.9795 0.0
C1507 C 0.90986 0.64746 0.97793 0.0
C1508 C 0.91576 0.66156 0.95953 0.0
C1509 C 0.93982 0.66639 0.95378 0.0
C1510 C 0.95649 0.65436 0.96373 0.0
C1511 C 0.89554 0.66603 0.94271 0.0
C1512 C 0.89156 0.6553 0.92034 0.0
C1513 C 0.87866 0.67799 0.949 0.0
C1514 C 0.88177 0.68905 0.97261 0.0
C1515 C 0.90439 0.70465 0.98232 0.0
C1516 C 0.9073 0.71471 1.00478 0.0
C1517 C 0.88767 0.70937 0.01765 0.0
C1518 C 0.86506 0.69402 1.00805 0.0
C1519 C 0.86206 0.68391 0.98561 0.0
H1520 H 0.88996 0.71716 0.03504 0.0
H1521 H 0.85592 0.60848 0.82175 0.0
H1522 H 0.39257 0.8088 0.14992 0.0
H1523 H 0.4059 0.84167 0.12643 0.0
H1524 H 0.46714 0.87197 0.18079 0.0
H1525 H 0.45381 0.83899 0.20454 0.0
H1526 H 0.44628 0.90483 0.16167 0.0
H1527 H 0.47525 0.84233 0.13245 0.0
H1528 H 0.47051 0.80259 0.11682 0.0
H1529 H 0.4193 0.81278 0.05814 0.0
H1530 H 0.42345 0.85248 0.07363 0.0
H1531 H 0.52793 0.97833 0.09534 0.0
H1532 H 0.50745 0.94892 0.11979 0.0
H1533 H 0.44616 0.92474 0.06386 0.0
H1534 H 0.46649 0.95447 0.03934 0.0
H1535 H 0.46425 0.88912 0.08278 0.0
H1536 H 0.4368 0.95184 0.10976 0.0
H1537 H 0.44029 0.99149 0.12481 0.0
H1538 H 0.48688 0.98113 0.18683 0.0
H1539 H 0.48405 0.94153 0.17194 0.0
C1540 C 0.40898 0.82237 0.15689 0.0
C1541 C 0.42234 0.821 0.17904 0.0
C1542 C 0.41654 0.84124 0.14342 0.0
C1543 C 0.43782 0.85919 0.15159 0.0
C1544 C 0.45071 0.85834 0.17403 0.0
C1545 C 0.44306 0.83946 0.18762 0.0
C1546 C 0.44702 0.87837 0.13641 0.0
C1547 C 0.45051 0.90139 0.14455 0.0
C1548 C 0.45181 0.874 0.1137 0.0
C1549 C 0.44949 0.85026 0.10429 0.0
C1550 C 0.46286 0.83603 0.11629 0.0
C1551 C 0.46028 0.81353 0.10745 0.0
C1552 C 0.44457 0.80515 0.08653 0.0
C1553 C 0.43144 0.81928 0.07436 0.0
C1554 C 0.4339 0.84178 0.08315 0.0
C1555 C 0.50994 0.96694 0.08833 0.0
C1556 C 0.49888 0.9687 0.06539 0.0
C1557 C 0.49821 0.95015 0.10236 0.0
C1558 C 0.47522 0.93458 0.09372 0.0
C1559 C 0.46389 0.93654 0.07092 0.0
C1560 C 0.47548 0.95359 0.05696 0.0
C1561 C 0.46381 0.91559 0.10815 0.0
C1562 C 0.45993 0.89259 0.09986 0.0
C1563 C 0.45855 0.92 0.13064 0.0
C1564 C 0.46042 0.94381 0.13963 0.0
C1565 C 0.44801 0.9581 0.1265 0.0
C1566 C 0.44983 0.98055 0.13502 0.0
C1567 C 0.46385 0.98885 0.15674 0.0
C1568 C 0.47606 0.97469 0.17 0.0
C1569 C 0.47435 0.95224 0.16153 0.0
H1570 H 0.46521 1.00623 0.16333 0.0
H1571 H 0.44261 0.78772 0.0797 0.0
H1572 H 0.15712 0.25716 0.64406 0.0
H1573 H 0.13772 0.22025 0.62154 0.0
H1574 H 0.09927 0.19444 0.67831 0.0
H1575 H 0.11807 0.23171 0.70069 0.0
H1576 H 0.12597 0.16256 0.65484 0.0
H1577 H 0.06496 0.20668 0.63907 0.0
H1578 H 0.05163 0.24148 0.62728 0.0
H1579 H 0.07518 0.23588 0.56088 0.0
H1580 H 0.08903 0.20122 0.57246 0.0
H1581 H 0.04289 0.05984 0.59567 0.0
H1582 H 0.06407 0.09523 0.61998 0.0
H1583 H 0.0736 0.13311 0.55813 0.0
H1584 H 0.05109 0.09788 0.53402 0.0
H1585 H 0.06244 0.15936 0.58533 0.0
H1586 H 0.12351 0.11662 0.59868 0.0
H1587 H 0.14047 0.08343 0.60926 0.0
H1588 H 0.12159 0.08748 0.67787 0.0
H1589 H 0.10423 0.12053 0.66761 0.0
C1590 C 0.14455 0.24364 0.6518 0.0
C1591 C 0.13916 0.24754 0.67424 0.0
C1592 C 0.13345 0.22248 0.63887 0.0
C1593 C 0.11702 0.20436 0.64815 0.0
C1594 C 0.11191 0.20802 0.67071 0.0
C1595 C 0.12256 0.22943 0.68346 0.0
C1596 C 0.10468 0.18201 0.63393 0.0
C1597 C 0.11181 0.16174 0.63983 0.0
C1598 C 0.08683 0.18092 0.61382 0.0
C1599 C 0.07827 0.20154 0.60672 0.0
C1600 C 0.0675 0.213 0.62204 0.0
C1601 C 0.05982 0.23267 0.61538 0.0
C1602 C 0.06263 0.24093 0.59337 0.0
C1603 C 0.07305 0.22948 0.57794 0.0
C1604 C 0.08081 0.20982 0.58453 0.0
C1605 C 0.04993 0.07567 0.58731 0.0
C1606 C 0.04575 0.07595 0.56291 0.0
C1607 C 0.0622 0.09603 0.60125 0.0
C1608 C 0.07115 0.11724 0.59119 0.0
C1609 C 0.06711 0.11728 0.56666 0.0
C1610 C 0.05442 0.09701 0.55277 0.0
C1611 C 0.08362 0.13945 0.60604 0.0
C1612 C 0.07657 0.15988 0.60029 0.0
C1613 C 0.10194 0.14073 0.62604 0.0
C1614 C 0.11233 0.12087 0.63229 0.0
C1615 C 0.12281 0.11032 0.61597 0.0
C1616 C 0.13252 0.09155 0.62192 0.0
C1617 C 0.13204 0.08331 0.6442 0.0
C1618 C 0.12191 0.09386 0.66061 0.0
C1619 C 0.11215 0.11262 0.65474 0.0
H1620 H 0.13956 0.06877 0.64877 0.0
H1621 H 0.05667 0.25617 0.58825 0.0
H1622 H 0.68483 0.29061 0.37408 0.0
H1623 H 0.65884 0.315 0.38476 0.0
H1624 H 0.71575 0.37606 0.37489 0.0
H1625 H 0.742 0.35166 0.3643 0.0
H1626 H 0.69763 0.38087 0.41463 0.0
H1627 H 0.66426 0.36117 0.33605 0.0
H1628 H 0.64737 0.33685 0.29976 0.0
H1629 H 0.58481 0.30022 0.3305 0.0
H1630 H 0.60154 0.3241 0.36714 0.0
H1631 H 0.61423 0.44982 0.43265 0.0
H1632 H 0.64194 0.43248 0.41381 0.0
H1633 H 0.59394 0.36456 0.41891 0.0
H1634 H 0.56629 0.38168 0.43781 0.0
H1635 H 0.60978 0.36803 0.37735 0.0
H1636 H 0.64902 0.38808 0.45836 0.0
H1637 H 0.66695 0.41567 0.49229 0.0
H1638 H 0.71999 0.45579 0.45297 0.0
H1639 H 0.70215 0.42855 0.41873 0.0
C1640 C 0.69193 0.30923 0.37435 0.0
C1641 C 0.71558 0.31916 0.36846 0.0
C1642 C 0.67692 0.32317 0.38022 0.0
C1643 C 0.68518 0.3474 0.38041 0.0
C1644 C 0.7089 0.35742 0.37478 0.0
C1645 C 0.72385 0.34345 0.36866 0.0
C1646 C 0.66924 0.36208 0.38722 0.0
C1647 C 0.67855 0.37831 0.4062 0.0
C1648 C 0.64434 0.35892 0.37626 0.0
C1649 C 0.63431 0.34424 0.35444 0.0
C1650 C 0.64704 0.34775 0.33517 0.0
C1651 C 0.63746 0.33409 0.31451 0.0
C1652 C 0.61507 0.31695 0.31285 0.0
C1653 C 0.60218 0.31347 0.33183 0.0
C1654 C 0.6117 0.32708 0.35255 0.0
C1655 C 0.60958 0.43118 0.42985 0.0
C1656 C 0.588 0.41719 0.43696 0.0
C1657 C 0.62545 0.42128 0.419 0.0
C1658 C 0.62028 0.39714 0.41521 0.0
C1659 C 0.59839 0.38322 0.42161 0.0
C1660 C 0.5825 0.39308 0.43239 0.0
C1661 C 0.63789 0.38613 0.40531 0.0
C1662 C 0.62891 0.37066 0.38566 0.0
C1663 C 0.66324 0.39034 0.41535 0.0
C1664 C 0.67412 0.40645 0.43598 0.0
C1665 C 0.66442 0.40286 0.45695 0.0
C1666 C 0.67457 0.41842 0.47622 0.0
C1667 C 0.69456 0.4375 0.47477 0.0
C1668 C 0.70449 0.44102 0.45406 0.0
C1669 C 0.69438 0.42553 0.43473 0.0
H1670 H 0.70238 0.44954 0.48971 0.0
H1671 H 0.60766 0.3064 0.29682 0.0
loop_
_geom_bond_atom_site_label_1
_geom_bond_atom_site_label_2
_geom_bond_distance
_geom_bond_site_symmetry_2
_ccdc_geom_bond_type
C0 C1 1.386 . S
C0 C2 1.397 . S
C0 H24 0.931 . S
C1 C0 1.386 . S
C1 C5 1.397 . S
C2 C0 1.397 . S
C2 C3 1.384 . S
C2 H25 0.930 . S
C3 C2 1.384 . S
C3 C4 1.377 . S
C3 C6 1.481 . S
C4 C3 1.377 . S
C4 C5 1.389 . S
C4 H26 0.929 . S
C5 C1 1.397 . S
C5 C4 1.389 . S
C5 H27 0.931 . S
C6 C3 1.481 . S
C6 C7 1.387 . S
C6 C11 1.390 . S
C7 C6 1.387 . S
C7 C8 1.401 . S
C7 H28 0.930 . S
C8 C7 1.401 . S
C8 C9 1.376 . S
C8 C17 1.511 . S
C9 C8 1.376 . S
C9 C10 1.392 . S
C9 H30 0.931 . S
C10 C9 1.392 . S
C10 C11 1.361 . S
C10 C12 1.500 . S
C11 C6 1.390 . S
C11 C10 1.361 . S
C11 H29 0.931 . S
C12 C10 1.500 . S
C12 C13 1.371 . S
C12 C14 1.365 . S
C13 C12 1.371 . S
C13 C23 1.386 . S
C13 H31 0.931 . S
C14 C12 1.365 . S
C14 C15 1.409 . S
C14 H32 0.929 . S
C15 C14 1.409 . S
C15 C16 1.380 . S
C15 H33 0.930 . S
C16 C15 1.380 . S
C16 C23 1.357 . S
C17 C8 1.511 . S
C17 C18 1.341 . S
C17 C19 1.371 . S
C18 C17 1.341 . S
C18 C22 1.394 . S
C18 H34 0.930 . S
C19 C17 1.371 . S
C19 C20 1.392 . S
C19 H35 0.931 . S
C20 C19 1.392 . S
C20 C21 1.331 . S
C20 H38 0.932 . S
C21 C20 1.331 . S
C21 C22 1.336 . S
C22 C18 1.394 . S
C22 C21 1.336 . S
C22 H37 0.929 . S
C23 C13 1.386 . S
C23 C16 1.357 . S
C23 H36 0.928 . S
H24 C0 0.931 . S
H25 C2 0.930 . S
H26 C4 0.929 . S
H27 C5 0.931 . S
H28 C7 0.930 . S
H29 C11 0.931 . S
H30 C9 0.931 . S
H31 C13 0.931 . S
H32 C14 0.929 . S
H33 C15 0.930 . S
H34 C18 0.930 . S
H35 C19 0.931 . S
H36 C23 0.928 . S
H37 C22 0.929 . S
H38 C20 0.932 . S
C39 C40 1.386 . S
C39 C41 1.397 . S
C39 H63 0.931 . S
C40 C39 1.386 . S
C40 C44 1.397 . S
C41 C39 1.397 . S
C41 C42 1.384 . S
C41 H64 0.930 . S
C42 C41 1.384 . S
C42 C43 1.377 . S
C42 C45 1.481 . S
C43 C42 1.377 . S
C43 C44 1.389 . S
C43 H65 0.929 . S
C44 C40 1.397 . S
C44 C43 1.389 . S
C44 H66 0.931 . S
C45 C42 1.481 . S
C45 C46 1.387 . S
C45 C50 1.390 . S
C46 C45 1.387 . S
C46 C47 1.401 . S
C46 H67 0.930 . S
C47 C46 1.401 . S
C47 C48 1.376 . S
C47 C56 1.511 . S
C48 C47 1.376 . S
C48 C49 1.392 . S
C48 H69 0.931 . S
C49 C48 1.392 . S
C49 C50 1.361 . S
C49 C51 1.500 . S
C50 C45 1.390 . S
C50 C49 1.361 . S
C50 H68 0.931 . S
C51 C49 1.500 . S
C51 C52 1.371 . S
C51 C53 1.365 . S
C52 C51 1.371 . S
C52 C62 1.386 . S
C52 H70 0.931 . S
C53 C51 1.365 . S
C53 C54 1.409 . S
C53 H71 0.929 . S
C54 C53 1.409 . S
C54 C55 1.380 . S
C54 H72 0.930 . S
C55 C54 1.380 . S
C55 C62 1.357 . S
C56 C47 1.511 . S
C56 C57 1.341 . S
C56 C58 1.371 . S
C57 C56 1.341 . S
C57 C61 1.394 . S
C57 H73 0.930 . S
C58 C56 1.371 . S
C58 C59 1.392 . S
C58 H74 0.931 . S
C59 C58 1.392 . S
C59 C60 1.331 . S
C59 H77 0.932 . S
C60 C59 1.331 . S
C60 C61 1.336 . S
C61 C57 1.394 . S
C61 C60 1.336 . S
C61 H76 0.929 . S
C62 C52 1.386 . S
C62 C55 1.357 . S
C62 H75 0.928 . S
H63 C39 0.931 . S
H64 C41 0.930 . S
H65 C43 0.929 . S
H66 C44 0.931 . S
H67 C46 0.930 . S
H68 C50 0.931 . S
H69 C48 0.931 . S
H70 C52 0.931 . S
H71 C53 0.929 . S
H72 C54 0.930 . S
H73 C57 0.930 . S
H74 C58 0.931 . S
H75 C62 0.928 . S
H76 C61 0.929 . S
H77 C59 0.932 . S
C78 C79 1.386 . S
C78 C80 1.397 . S
C78 H102 0.931 . S
C79 C78 1.386 . S
C79 C83 1.397 . S
C80 C78 1.397 . S
C80 C81 1.384 . S
C80 H103 0.930 . S
C81 C80 1.384 . S
C81 C82 1.377 . S
C81 C84 1.481 . S
C82 C81 1.377 . S
C82 C83 1.389 . S
C82 H104 0.929 . S
C83 C79 1.397 . S
C83 C82 1.389 . S
C83 H105 0.931 . S
C84 C81 1.481 . S
C84 C85 1.387 . S
C84 C89 1.390 . S
C85 C84 1.387 . S
C85 C86 1.401 . S
C85 H106 0.930 . S
C86 C85 1.401 . S
C86 C87 1.376 . S
C86 C95 1.511 . S
C87 C86 1.376 . S
C87 C88 1.392 . S
C87 H108 0.931 . S
C88 C87 1.392 . S
C88 C89 1.361 . S
C88 C90 1.500 . S
C89 C84 1.390 . S
C89 C88 1.361 . S
C89 H107 0.931 . S
C90 C88 1.500 . S
C90 C91 1.371 . S
C90 C92 1.365 . S
C91 C90 1.371 . S
C91 C101 1.386 . S
C91 H109 0.931 . S
C92 C90 1.365 . S
C92 C93 1.409 . S
C92 H110 0.929 . S
C93 C92 1.409 . S
C93 C94 1.380 . S
C93 H111 0.930 . S
C94 C93 1.380 . S
C94 C101 1.357 . S
C95 C86 1.511 . S
C95 C96 1.341 . S
C95 C97 1.371 . S
C96 C95 1.341 . S
C96 C100 1.394 . S
C96 H112 0.930 . S
C97 C95 1.371 . S
C97 C98 1.392 . S
C97 H113 0.931 . S
C98 C97 1.392 . S
C98 C99 1.331 . S
C98 H116 0.932 . S
C99 C98 1.331 . S
C99 C100 1.336 . S
C100 C96 1.394 . S
C100 C99 1.336 . S
C100 H115 0.929 . S
C101 C91 1.386 . S
C101 C94 1.357 . S
C101 H114 0.928 . S
H102 C78 0.931 . S
H103 C80 0.930 . S
H104 C82 0.929 . S
H105 C83 0.931 . S
H106 C85 0.930 . S
H107 C89 0.931 . S
H108 C87 0.931 . S
H109 C91 0.931 . S
H110 C92 0.929 . S
H111 C93 0.930 . S
H112 C96 0.930 . S
H113 C97 0.931 . S
H114 C101 0.928 . S
H115 C100 0.929 . S
H116 C98 0.932 . S
C117 C118 1.386 . S
C117 C119 1.397 . S
C117 H141 0.931 . S
C118 C117 1.386 . S
C118 C122 1.397 . S
C119 C117 1.397 . S
C119 C120 1.384 . S
C119 H142 0.930 . S
C120 C119 1.384 . S
C120 C121 1.377 . S
C120 C123 1.481 . S
C121 C120 1.377 . S
C121 C122 1.389 . S
C121 H143 0.929 . S
C122 C118 1.397 . S
C122 C121 1.389 . S
C122 H144 0.931 . S
C123 C120 1.481 . S
C123 C124 1.387 . S
C123 C128 1.390 . S
C124 C123 1.387 . S
C124 C125 1.401 . S
C124 H145 0.930 . S
C125 C124 1.401 . S
C125 C126 1.376 . S
C125 C134 1.511 . S
C126 C125 1.376 . S
C126 C127 1.392 . S
C126 H147 0.931 . S
C127 C126 1.392 . S
C127 C128 1.361 . S
C127 C129 1.500 . S
C128 C123 1.390 . S
C128 C127 1.361 . S
C128 H146 0.931 . S
C129 C127 1.500 . S
C129 C130 1.371 . S
C129 C131 1.365 . S
C130 C129 1.371 . S
C130 C140 1.386 . S
C130 H148 0.931 . S
C131 C129 1.365 . S
C131 C132 1.409 . S
C131 H149 0.929 . S
C132 C131 1.409 . S
C132 C133 1.380 . S
C132 H150 0.930 . S
C133 C132 1.380 . S
C133 C140 1.357 . S
C134 C125 1.511 . S
C134 C135 1.341 . S
C134 C136 1.371 . S
C135 C134 1.341 . S
C135 C139 1.394 . S
C135 H151 0.930 . S
C136 C134 1.371 . S
C136 C137 1.392 . S
C136 H152 0.931 . S
C137 C136 1.392 . S
C137 C138 1.331 . S
C137 H155 0.932 . S
C138 C137 1.331 . S
C138 C139 1.336 . S
C139 C135 1.394 . S
C139 C138 1.336 . S
C139 H154 0.929 . S
C140 C130 1.386 . S
C140 C133 1.357 . S
C140 H153 0.928 . S
H141 C117 0.931 . S
H142 C119 0.930 . S
H143 C121 0.929 . S
H144 C122 0.931 . S
H145 C124 0.930 . S
H146 C128 0.931 . S
H147 C126 0.931 . S
H148 C130 0.931 . S
H149 C131 0.929 . S
H150 C132 0.930 . S
H151 C135 0.930 . S
H152 C136 0.931 . S
H153 C140 0.928 . S
H154 C139 0.929 . S
H155 C137 0.932 . S
C156 C157 1.386 . S
C156 C158 1.397 . S
C156 H180 0.931 . S
C157 C156 1.386 . S
C157 C161 1.397 . S
C158 C156 1.397 . S
C158 C159 1.384 . S
C158 H181 0.930 . S
C159 C158 1.384 . S
C159 C160 1.377 . S
C159 C162 1.481 . S
C160 C159 1.377 . S
C160 C161 1.389 . S
C160 H182 0.929 . S
C161 C157 1.397 . S
C161 C160 1.389 . S
C161 H183 0.931 . S
C162 C159 1.481 . S
C162 C163 1.387 . S
C162 C167 1.390 . S
C163 C162 1.387 . S
C163 C164 1.401 . S
C163 H184 0.930 . S
C164 C163 1.401 . S
C164 C165 1.376 . S
C164 C173 1.511 . S
C165 C164 1.376 . S
C165 C166 1.392 . S
C165 H186 0.931 . S
C166 C165 1.392 . S
C166 C167 1.361 . S
C166 C168 1.500 . S
C167 C162 1.390 . S
C167 C166 1.361 . S
C167 H185 0.931 . S
C168 C166 1.500 . S
C168 C169 1.371 . S
C168 C170 1.365 . S
C169 C168 1.371 . S
C169 C179 1.386 . S
C169 H187 0.931 . S
C170 C168 1.365 . S
C170 C171 1.409 . S
C170 H188 0.929 . S
C171 C170 1.409 . S
C171 C172 1.380 . S
C171 H189 0.930 . S
C172 C171 1.380 . S
C172 C179 1.357 . S
C173 C164 1.511 . S
C173 C174 1.341 . S
C173 C175 1.371 . S
C174 C173 1.341 . S
C174 C178 1.394 . S
C174 H190 0.930 . S
C175 C173 1.371 . S
C175 C176 1.392 . S
C175 H191 0.931 . S
C176 C175 1.392 . S
C176 C177 1.331 . S
C176 H194 0.932 . S
C177 C176 1.331 . S
C177 C178 1.336 . S
C178 C174 1.394 . S
C178 C177 1.336 . S
C178 H193 0.929 . S
C179 C169 1.386 . S
C179 C172 1.357 . S
C179 H192 0.928 . S
H180 C156 0.931 . S
H181 C158 0.930 . S
H182 C160 0.929 . S
H183 C161 0.931 . S
H184 C163 0.930 . S
H185 C167 0.931 . S
H186 C165 0.931 . S
H187 C169 0.931 . S
H188 C170 0.929 . S
H189 C171 0.930 . S
H190 C174 0.930 . S
H191 C175 0.931 . S
H192 C179 0.928 . S
H193 C178 0.929 . S
H194 C176 0.932 . S
C195 C196 1.386 . S
C195 C197 1.397 . S
C195 H219 0.931 . S
C196 C195 1.386 . S
C196 C200 1.397 . S
C197 C195 1.397 . S
C197 C198 1.384 . S
C197 H220 0.930 . S
C198 C197 1.384 . S
C198 C199 1.377 . S
C198 C201 1.481 . S
C199 C198 1.377 . S
C199 C200 1.389 . S
C199 H221 0.929 . S
C200 C196 1.397 . S
C200 C199 1.389 . S
C200 H222 0.931 . S
C201 C198 1.481 . S
C201 C202 1.387 . S
C201 C206 1.390 . S
C202 C201 1.387 . S
C202 C203 1.401 . S
C202 H223 0.930 . S
C203 C202 1.401 . S
C203 C204 1.376 . S
C203 C212 1.511 . S
C204 C203 1.376 . S
C204 C205 1.392 . S
C204 H225 0.931 . S
C205 C204 1.392 . S
C205 C206 1.361 . S
C205 C207 1.500 . S
C206 C201 1.390 . S
C206 C205 1.361 . S
C206 H224 0.931 . S
C207 C205 1.500 . S
C207 C208 1.371 . S
C207 C209 1.365 . S
C208 C207 1.371 . S
C208 C218 1.386 . S
C208 H226 0.931 . S
C209 C207 1.365 . S
C209 C210 1.409 . S
C209 H227 0.929 . S
C210 C209 1.409 . S
C210 C211 1.380 . S
C210 H228 0.930 . S
C211 C210 1.380 . S
C211 C218 1.357 . S
C212 C203 1.511 . S
C212 C213 1.341 . S
C212 C214 1.371 . S
C213 C212 1.341 . S
C213 C217 1.394 . S
C213 H229 0.930 . S
C214 C212 1.371 . S
C214 C215 1.392 . S
C214 H230 0.931 . S
C215 C214 1.392 . S
C215 C216 1.331 . S
C215 H233 0.932 . S
C216 C215 1.331 . S
C216 C217 1.336 . S
C217 C213 1.394 . S
C217 C216 1.336 . S
C217 H232 0.929 . S
C218 C208 1.386 . S
C218 C211 1.357 . S
C218 H231 0.928 . S
H219 C195 0.931 . S
H220 C197 0.930 . S
H221 C199 0.929 . S
H222 C200 0.931 . S
H223 C202 0.930 . S
H224 C206 0.931 . S
H225 C204 0.931 . S
H226 C208 0.931 . S
H227 C209 0.929 . S
H228 C210 0.930 . S
H229 C213 0.930 . S
H230 C214 0.931 . S
H231 C218 0.928 . S
H232 C217 0.929 . S
H233 C215 0.932 . S
C234 C235 1.386 . S
C234 C236 1.397 . S
C234 H258 0.931 . S
C235 C234 1.386 . S
C235 C239 1.397 . S
C236 C234 1.397 . S
C236 C237 1.384 . S
C236 H259 0.930 . S
C237 C236 1.384 . S
C237 C238 1.377 . S
C237 C240 1.481 . S
C238 C237 1.377 . S
C238 C239 1.389 . S
C238 H260 0.929 . S
C239 C235 1.397 . S
C239 C238 1.389 . S
C239 H261 0.931 . S
C240 C237 1.481 . S
C240 C241 1.387 . S
C240 C245 1.390 . S
C241 C240 1.387 . S
C241 C242 1.401 . S
C241 H262 0.930 . S
C242 C241 1.401 . S
C242 C243 1.376 . S
C242 C251 1.511 . S
C243 C242 1.376 . S
C243 C244 1.392 . S
C243 H264 0.931 . S
C244 C243 1.392 . S
C244 C245 1.361 . S
C244 C246 1.500 . S
C245 C240 1.390 . S
C245 C244 1.361 . S
C245 H263 0.931 . S
C246 C244 1.500 . S
C246 C247 1.371 . S
C246 C248 1.365 . S
C247 C246 1.371 . S
C247 C257 1.386 . S
C247 H265 0.931 . S
C248 C246 1.365 . S
C248 C249 1.409 . S
C248 H266 0.929 . S
C249 C248 1.409 . S
C249 C250 1.380 . S
C249 H267 0.930 . S
C250 C249 1.380 . S
C250 C257 1.357 . S
C251 C242 1.511 . S
C251 C252 1.341 . S
C251 C253 1.371 . S
C252 C251 1.341 . S
C252 C256 1.394 . S
C252 H268 0.930 . S
C253 C251 1.371 . S
C253 C254 1.392 . S
C253 H269 0.931 . S
C254 C253 1.392 . S
C254 C255 1.331 . S
C254 H272 0.932 . S
C255 C254 1.331 . S
C255 C256 1.336 . S
C256 C252 1.394 . S
C256 C255 1.336 . S
C256 H271 0.929 . S
C257 C247 1.386 . S
C257 C250 1.357 . S
C257 H270 0.928 . S
H258 C234 0.931 . S
H259 C236 0.930 . S
H260 C238 0.929 . S
H261 C239 0.931 . S
H262 C241 0.930 . S
H263 C245 0.931 . S
H264 C243 0.931 . S
H265 C247 0.931 . S
H266 C248 0.929 . S
H267 C249 0.930 . S
H268 C252 0.930 . S
H269 C253 0.931 . S
H270 C257 0.928 . S
H271 C256 0.929 . S
H272 C254 0.932 . S
C273 C274 1.386 . S
C273 C275 1.397 . S
C273 H297 0.931 . S
C274 C273 1.386 . S
C274 C278 1.397 . S
C275 C273 1.397 . S
C275 C276 1.384 . S
C275 H298 0.930 . S
C276 C275 1.384 . S
C276 C277 1.377 . S
C276 C279 1.481 . S
C277 C276 1.377 . S
C277 C278 1.389 . S
C277 H299 0.929 . S
C278 C274 1.397 . S
C278 C277 1.389 . S
C278 H300 0.931 . S
C279 C276 1.481 . S
C279 C280 1.387 . S
C279 C284 1.390 . S
C280 C279 1.387 . S
C280 C281 1.401 . S
C280 H301 0.930 . S
C281 C280 1.401 . S
C281 C282 1.376 . S
C281 C290 1.511 . S
C282 C281 1.376 . S
C282 C283 1.392 . S
C282 H303 0.931 . S
C283 C282 1.392 . S
C283 C284 1.361 . S
C283 C285 1.500 . S
C284 C279 1.390 . S
C284 C283 1.361 . S
C284 H302 0.931 . S
C285 C283 1.500 . S
C285 C286 1.371 . S
C285 C287 1.365 . S
C286 C285 1.371 . S
C286 C296 1.386 . S
C286 H304 0.931 . S
C287 C285 1.365 . S
C287 C288 1.409 . S
C287 H305 0.929 . S
C288 C287 1.409 . S
C288 C289 1.380 . S
C288 H306 0.930 . S
C289 C288 1.380 . S
C289 C296 1.357 . S
C290 C281 1.511 . S
C290 C291 1.341 . S
C290 C292 1.371 . S
C291 C290 1.341 . S
C291 C295 1.394 . S
C291 H307 0.930 . S
C292 C290 1.371 . S
C292 C293 1.392 . S
C292 H308 0.931 . S
C293 C292 1.392 . S
C293 C294 1.331 . S
C293 H311 0.932 . S
C294 C293 1.331 . S
C294 C295 1.336 . S
C295 C291 1.394 . S
C295 C294 1.336 . S
C295 H310 0.929 . S
C296 C286 1.386 . S
C296 C289 1.357 . S
C296 H309 0.928 . S
H297 C273 0.931 . S
H298 C275 0.930 . S
H299 C277 0.929 . S
H300 C278 0.931 . S
H301 C280 0.930 . S
H302 C284 0.931 . S
H303 C282 0.931 . S
H304 C286 0.931 . S
H305 C287 0.929 . S
H306 C288 0.930 . S
H307 C291 0.930 . S
H308 C292 0.931 . S
H309 C296 0.928 . S
H310 C295 0.929 . S
H311 C293 0.932 . S
Pr312 C314 2.880 . S
Pr312 O332 2.562 . S
Pr312 O333 2.490 . S
Pr312 O334 2.695 1_665 S
Pr312 O335 2.512 1_665 S
Pr312 O337 2.437 1_655 S
Pr312 O340 2.436 . S
Pr312 O342 2.438 1_565 S
Pr313 C323 2.880 . S
Pr313 O334 2.436 . S
Pr313 O336 2.438 1_545 S
Pr313 O338 2.562 . S
Pr313 O339 2.490 . S
Pr313 O340 2.695 1_445 S
Pr313 O341 2.508 1_445 S
Pr313 O343 2.437 1_455 S
C314 Pr312 2.880 . S
C314 C315 1.491 . S
C314 O332 1.254 . S
C314 O333 1.225 . S
C315 C314 1.491 . S
C315 C316 1.392 . S
C315 C320 1.356 . S
C316 C315 1.392 . S
C316 C317 1.368 . S
C316 H344 0.929 . S
C317 C316 1.368 . S
C317 C318 1.386 . S
C317 H345 0.929 . S
C318 C317 1.386 . S
C318 C319 1.373 . S
C319 C318 1.373 . S
C319 C320 1.409 . S
C319 H346 0.931 . S
C320 C315 1.356 . S
C320 C319 1.409 . S
C320 H347 0.930 . S
C321 O334 1.270 . S
C321 O335 1.248 . S
C322 O336 1.267 . S
C322 O337 1.278 . S
C323 Pr313 2.880 . S
C323 C324 1.491 . S
C323 O338 1.254 . S
C323 O339 1.225 . S
C324 C323 1.491 . S
C324 C325 1.392 . S
C324 C329 1.356 . S
C325 C324 1.392 . S
C325 C326 1.368 . S
C325 H348 0.929 . S
C326 C325 1.368 . S
C326 C327 1.386 . S
C326 H349 0.929 . S
C327 C326 1.386 . S
C327 C328 1.373 . S
C328 C327 1.373 . S
C328 C329 1.409 . S
C328 H350 0.931 . S
C329 C324 1.356 . S
C329 C328 1.409 . S
C329 H351 0.930 . S
C330 O340 1.270 . S
C330 O341 1.258 . S
C331 O342 1.267 . S
C331 O343 1.278 . S
O332 Pr312 2.562 . S
O332 C314 1.254 . S
O333 Pr312 2.490 . S
O333 C314 1.225 . S
O334 Pr312 2.695 1_445 S
O334 Pr313 2.436 . S
O334 C321 1.270 . S
O335 Pr312 2.512 1_445 S
O335 C321 1.248 . S
O336 Pr313 2.438 1_565 S
O336 C322 1.267 . S
O337 Pr312 2.437 1_455 S
O337 C322 1.278 . S
O338 Pr313 2.562 . S
O338 C323 1.254 . S
O339 Pr313 2.490 . S
O339 C323 1.225 . S
O340 Pr312 2.436 . S
O340 Pr313 2.695 1_665 S
O340 C330 1.270 . S
O341 Pr313 2.508 1_665 S
O341 C330 1.258 . S
O342 Pr312 2.438 1_545 S
O342 C331 1.267 . S
O343 Pr313 2.437 1_655 S
O343 C331 1.278 . S
H344 C316 0.929 . S
H345 C317 0.929 . S
H346 C319 0.931 . S
H347 C320 0.930 . S
H348 C325 0.929 . S
H349 C326 0.929 . S
H350 C328 0.931 . S
H351 C329 0.930 . S
Pr352 C354 2.877 . S
Pr352 O372 2.559 . S
Pr352 O373 2.489 . S
Pr352 O374 2.697 1_554 S
Pr352 O375 2.515 1_554 S
Pr352 O377 2.435 . S
Pr352 O380 2.434 1_545 S
Pr352 O382 2.441 1_544 S
Pr353 C363 2.880 1_554 S
Pr353 O374 2.436 1_564 S
Pr353 O376 2.438 1_565 S
Pr353 O378 2.562 1_554 S
Pr353 O379 2.490 1_554 S
Pr353 O380 2.695 . S
Pr353 O381 2.512 . S
Pr353 O383 2.437 1_554 S
C354 Pr352 2.877 . S
C354 C355 1.491 . S
C354 O372 1.254 . S
C354 O373 1.225 . S
C355 C354 1.491 . S
C355 C356 1.392 . S
C355 C360 1.356 . S
C356 C355 1.392 . S
C356 C357 1.368 . S
C356 H384 0.929 . S
C357 C356 1.368 . S
C357 C358 1.386 . S
C357 H385 0.929 . S
C358 C357 1.386 . S
C358 C359 1.373 . S
C359 C358 1.373 . S
C359 C360 1.409 . S
C359 H386 0.931 . S
C360 C355 1.356 . S
C360 C359 1.409 . S
C360 H387 0.930 . S
C361 O374 1.270 . S
C361 O375 1.248 . S
C362 O376 1.267 . S
C362 O377 1.278 . S
C363 Pr353 2.880 1_556 S
C363 C364 1.491 . S
C363 O378 1.254 . S
C363 O379 1.225 . S
C364 C363 1.491 . S
C364 C365 1.392 . S
C364 C369 1.356 . S
C365 C364 1.392 . S
C365 C366 1.368 . S
C365 H388 0.929 . S
C366 C365 1.368 . S
C366 C367 1.386 . S
C366 H389 0.929 . S
C367 C366 1.386 . S
C367 C368 1.373 . S
C368 C367 1.373 . S
C368 C369 1.409 . S
C368 H390 0.931 . S
C369 C364 1.356 . S
C369 C368 1.409 . S
C369 H391 0.930 . S
C370 O380 1.270 . S
C370 O381 1.248 . S
C371 O382 1.267 . S
C371 O383 1.278 . S
O372 Pr352 2.559 . S
O372 C354 1.254 . S
O373 Pr352 2.489 . S
O373 C354 1.225 . S
O374 Pr352 2.697 1_556 S
O374 Pr353 2.436 1_546 S
O374 C361 1.270 . S
O375 Pr352 2.515 1_556 S
O375 C361 1.248 . S
O376 Pr353 2.438 1_545 S
O376 C362 1.267 . S
O377 Pr352 2.435 . S
O377 C362 1.278 . S
O378 Pr353 2.562 1_556 S
O378 C363 1.254 . S
O379 Pr353 2.490 1_556 S
O379 C363 1.225 . S
O380 Pr352 2.434 1_565 S
O380 Pr353 2.695 . S
O380 C370 1.270 . S
O381 Pr353 2.512 . S
O381 C370 1.248 . S
O382 Pr352 2.441 1_566 S
O382 C371 1.267 . S
O383 Pr353 2.437 1_556 S
O383 C371 1.278 . S
H384 C356 0.929 . S
H385 C357 0.929 . S
H386 C359 0.931 . S
H387 C360 0.930 . S
H388 C365 0.929 . S
H389 C366 0.929 . S
H390 C368 0.931 . S
H391 C369 0.930 . S
Pr392 C394 2.880 . S
Pr392 O412 2.562 . S
Pr392 O413 2.490 . S
Pr392 O414 2.695 . S
Pr392 O415 2.512 . S
Pr392 O417 2.437 . S
Pr392 O420 2.436 . S
Pr392 O422 2.438 . S
Pr393 C403 2.880 . S
Pr393 O414 2.436 . S
Pr393 O416 2.438 . S
Pr393 O418 2.562 . S
Pr393 O419 2.490 . S
Pr393 O420 2.695 . S
Pr393 O421 2.512 . S
Pr393 O423 2.437 . S
C394 Pr392 2.880 . S
C394 C395 1.491 . S
C394 O412 1.254 . S
C394 O413 1.225 . S
C395 C394 1.491 . S
C395 C396 1.392 . S
C395 C400 1.356 . S
C396 C395 1.392 . S
C396 C397 1.368 . S
C396 H424 0.929 . S
C397 C396 1.368 . S
C397 C398 1.386 . S
C397 H425 0.929 . S
C398 C397 1.386 . S
C398 C399 1.373 . S
C399 C398 1.373 . S
C399 C400 1.409 . S
C399 H426 0.931 . S
C400 C395 1.356 . S
C400 C399 1.409 . S
C400 H427 0.930 . S
C401 O414 1.270 . S
C401 O415 1.248 . S
C402 O416 1.267 . S
C402 O417 1.278 . S
C403 Pr393 2.880 . S
C403 C404 1.491 . S
C403 O418 1.254 . S
C403 O419 1.225 . S
C404 C403 1.491 . S
C404 C405 1.392 . S
C404 C409 1.356 . S
C405 C404 1.392 . S
C405 C406 1.368 . S
C405 H428 0.929 . S
C406 C405 1.368 . S
C406 C407 1.386 . S
C406 H429 0.929 . S
C407 C406 1.386 . S
C407 C408 1.373 . S
C408 C407 1.373 . S
C408 C409 1.409 . S
C408 H430 0.931 . S
C409 C404 1.356 . S
C409 C408 1.409 . S
C409 H431 0.930 . S
C410 O420 1.270 . S
C410 O421 1.248 . S
C411 O422 1.267 . S
C411 O423 1.278 . S
O412 Pr392 2.562 . S
O412 C394 1.254 . S
O413 Pr392 2.490 . S
O413 C394 1.225 . S
O414 Pr392 2.695 . S
O414 Pr393 2.436 . S
O414 C401 1.270 . S
O415 Pr392 2.512 . S
O415 C401 1.248 . S
O416 Pr393 2.438 . S
O416 C402 1.267 . S
O417 Pr392 2.437 . S
O417 C402 1.278 . S
O418 Pr393 2.562 . S
O418 C403 1.254 . S
O419 Pr393 2.490 . S
O419 C403 1.225 . S
O420 Pr392 2.436 . S
O420 Pr393 2.695 . S
O420 C410 1.270 . S
O421 Pr393 2.512 . S
O421 C410 1.248 . S
O422 Pr392 2.438 . S
O422 C411 1.267 . S
O423 Pr393 2.437 . S
O423 C411 1.278 . S
H424 C396 0.929 . S
H425 C397 0.929 . S
H426 C399 0.931 . S
H427 C400 0.930 . S
H428 C405 0.929 . S
H429 C406 0.929 . S
H430 C408 0.931 . S
H431 C409 0.930 . S
Pr432 C434 2.902 . S
Pr432 O452 2.590 . S
Pr432 O453 2.501 . S
Pr432 O454 2.679 1_656 S
Pr432 O455 2.495 1_656 S
Pr432 O457 2.452 1_556 S
Pr432 O460 2.447 . S
Pr432 O462 2.416 1_655 S
Pr433 C443 2.880 . S
Pr433 O454 2.436 . S
Pr433 O456 2.438 1_455 S
Pr433 O458 2.562 . S
Pr433 O459 2.490 . S
Pr433 O460 2.695 1_454 S
Pr433 O461 2.512 1_454 S
Pr433 O463 2.437 1_554 S
C434 Pr432 2.902 . S
C434 C435 1.491 . S
C434 O452 1.254 . S
C434 O453 1.225 . S
C435 C434 1.491 . S
C435 C436 1.392 . S
C435 C440 1.356 . S
C436 C435 1.392 . S
C436 C437 1.368 . S
C436 H464 0.929 . S
C437 C436 1.368 . S
C437 C438 1.386 . S
C437 H465 0.929 . S
C438 C437 1.386 . S
C438 C439 1.373 . S
C439 C438 1.373 . S
C439 C440 1.409 . S
C439 H466 0.931 . S
C440 C435 1.356 . S
C440 C439 1.409 . S
C440 H467 0.930 . S
C441 O454 1.270 . S
C441 O455 1.248 . S
C442 O456 1.267 . S
C442 O457 1.278 . S
C443 Pr433 2.880 . S
C443 C444 1.491 . S
C443 O458 1.254 . S
C443 O459 1.225 . S
C444 C443 1.491 . S
C444 C445 1.392 . S
C444 C449 1.356 . S
C445 C444 1.392 . S
C445 C446 1.368 . S
C445 H468 0.929 . S
C446 C445 1.368 . S
C446 C447 1.386 . S
C446 H469 0.929 . S
C447 C446 1.386 . S
C447 C448 1.373 . S
C448 C447 1.373 . S
C448 C449 1.409 . S
C448 H470 0.931 . S
C449 C444 1.356 . S
C449 C448 1.409 . S
C449 H471 0.930 . S
C450 O460 1.270 . S
C450 O461 1.248 . S
C451 O462 1.267 . S
C451 O463 1.278 . S
O452 Pr432 2.590 . S
O452 C434 1.254 . S
O453 Pr432 2.501 . S
O453 C434 1.225 . S
O454 Pr432 2.679 1_454 S
O454 Pr433 2.436 . S
O454 C441 1.270 . S
O455 Pr432 2.495 1_454 S
O455 C441 1.248 . S
O456 Pr433 2.438 1_655 S
O456 C442 1.267 . S
O457 Pr432 2.452 1_554 S
O457 C442 1.278 . S
O458 Pr433 2.562 . S
O458 C443 1.254 . S
O459 Pr433 2.490 . S
O459 C443 1.225 . S
O460 Pr432 2.447 . S
O460 Pr433 2.695 1_656 S
O460 C450 1.270 . S
O461 Pr433 2.512 1_656 S
O461 C450 1.248 . S
O462 Pr432 2.416 1_455 S
O462 C451 1.267 . S
O463 Pr433 2.437 1_556 S
O463 C451 1.278 . S
H464 C436 0.929 . S
H465 C437 0.929 . S
H466 C439 0.931 . S
H467 C440 0.930 . S
H468 C445 0.929 . S
H469 C446 0.929 . S
H470 C448 0.931 . S
H471 C449 0.930 . S
H472 C490 0.951 . S
H473 C492 0.951 . S
H474 C494 0.950 . S
H475 C495 0.950 . S
H476 C497 0.950 . S
H477 C500 0.950 . S
H478 C501 0.950 . S
H479 C503 0.950 . S
H480 C504 0.950 . S
H481 C505 0.951 . S
H482 C507 0.951 . S
H483 C509 0.950 . S
H484 C510 0.950 . S
H485 C512 0.950 . S
H486 C515 0.950 . S
H487 C516 0.950 . S
H488 C518 0.950 . S
H489 C519 0.950 . S
C490 H472 0.951 . S
C490 C491 1.366 . S
C490 C492 1.388 . S
C491 C490 1.366 . S
C491 C495 1.385 . S
C492 H473 0.951 . S
C492 C490 1.388 . S
C492 C493 1.366 . S
C493 C492 1.366 . S
C493 C494 1.414 . S
C493 C496 1.499 . S
C494 H474 0.950 . S
C494 C493 1.414 . S
C494 C495 1.374 . S
C495 H475 0.950 . S
C495 C491 1.385 . S
C495 C494 1.374 . S
C496 C493 1.499 . S
C496 C497 1.373 . S
C496 C498 1.389 . S
C497 H476 0.950 . S
C497 C496 1.373 . S
C497 C513 1.377 . S
C498 C496 1.389 . S
C498 C499 1.524 . S
C498 C512 1.377 . S
C499 C498 1.524 . S
C499 C500 1.397 . S
C499 C504 1.363 . S
C500 H477 0.950 . S
C500 C499 1.397 . S
C500 C501 1.334 . S
C501 H478 0.950 . S
C501 C500 1.334 . S
C501 C502 1.287 . S
C502 C501 1.287 . S
C502 C503 1.524 . S
C502 H521 0.913 . S
C503 H479 0.950 . S
C503 C502 1.524 . S
C503 C504 1.415 . S
C504 H480 0.950 . S
C504 C499 1.363 . S
C504 C503 1.415 . S
C505 H481 0.951 . S
C505 C506 1.366 . S
C505 C507 1.388 . S
C506 C505 1.366 . S
C506 C510 1.385 . S
C507 H482 0.951 . S
C507 C505 1.388 . S
C507 C508 1.366 . S
C508 C507 1.366 . S
C508 C509 1.414 . S
C508 C511 1.499 . S
C509 H483 0.950 . S
C509 C508 1.414 . S
C509 C510 1.374 . S
C510 H484 0.950 . S
C510 C506 1.385 . S
C510 C509 1.374 . S
C511 C508 1.499 . S
C511 C512 1.373 . S
C511 C513 1.389 . S
C512 H485 0.950 . S
C512 C498 1.377 . S
C512 C511 1.373 . S
C513 C497 1.377 . S
C513 C511 1.389 . S
C513 C514 1.524 . S
C514 C513 1.524 . S
C514 C515 1.397 . S
C514 C519 1.363 . S
C515 H486 0.950 . S
C515 C514 1.397 . S
C515 C516 1.334 . S
C516 H487 0.950 . S
C516 C515 1.334 . S
C516 C517 1.287 . S
C517 C516 1.287 . S
C517 C518 1.524 . S
C517 H520 0.999 . S
C518 H488 0.950 . S
C518 C517 1.524 . S
C518 C519 1.415 . S
C519 H489 0.950 . S
C519 C514 1.363 . S
C519 C518 1.415 . S
H520 C517 0.999 . S
H521 C502 0.913 . S
H522 C540 0.951 . S
H523 C542 0.951 . S
H524 C544 0.950 . S
H525 C545 0.950 . S
H526 C547 0.950 . S
H527 C550 0.950 . S
H528 C551 0.950 . S
H529 C553 0.950 . S
H530 C554 0.950 . S
H531 C555 0.951 . S
H532 C557 0.951 . S
H533 C559 0.950 . S
H534 C560 0.950 . S
H535 C562 0.950 . S
H536 C565 0.950 . S
H537 C566 0.950 . S
H538 C568 0.950 . S
H539 C569 0.950 . S
C540 H522 0.951 . S
C540 C541 1.366 . S
C540 C542 1.388 . S
C541 C540 1.366 . S
C541 C545 1.385 . S
C542 H523 0.951 . S
C542 C540 1.388 . S
C542 C543 1.366 . S
C543 C542 1.366 . S
C543 C544 1.414 . S
C543 C546 1.499 . S
C544 H524 0.950 . S
C544 C543 1.414 . S
C544 C545 1.374 . S
C545 H525 0.950 . S
C545 C541 1.385 . S
C545 C544 1.374 . S
C546 C543 1.499 . S
C546 C547 1.373 . S
C546 C548 1.389 . S
C547 H526 0.950 . S
C547 C546 1.373 . S
C547 C563 1.377 . S
C548 C546 1.389 . S
C548 C549 1.524 . S
C548 C562 1.377 . S
C549 C548 1.524 . S
C549 C550 1.397 . S
C549 C554 1.363 . S
C550 H527 0.950 . S
C550 C549 1.397 . S
C550 C551 1.334 . S
C551 H528 0.950 . S
C551 C550 1.334 . S
C551 C552 1.287 . S
C552 C551 1.287 . S
C552 C553 1.524 . S
C552 H571 0.913 . S
C553 H529 0.950 . S
C553 C552 1.524 . S
C553 C554 1.415 . S
C554 H530 0.950 . S
C554 C549 1.363 . S
C554 C553 1.415 . S
C555 H531 0.951 . S
C555 C556 1.366 . S
C555 C557 1.388 . S
C556 C555 1.366 . S
C556 C560 1.385 . S
C557 H532 0.951 . S
C557 C555 1.388 . S
C557 C558 1.366 . S
C558 C557 1.366 . S
C558 C559 1.414 . S
C558 C561 1.499 . S
C559 H533 0.950 . S
C559 C558 1.414 . S
C559 C560 1.374 . S
C560 H534 0.950 . S
C560 C556 1.385 . S
C560 C559 1.374 . S
C561 C558 1.499 . S
C561 C562 1.373 . S
C561 C563 1.389 . S
C562 H535 0.950 . S
C562 C548 1.377 . S
C562 C561 1.373 . S
C563 C547 1.377 . S
C563 C561 1.389 . S
C563 C564 1.524 . S
C564 C563 1.524 . S
C564 C565 1.397 . S
C564 C569 1.363 . S
C565 H536 0.950 . S
C565 C564 1.397 . S
C565 C566 1.334 . S
C566 H537 0.950 . S
C566 C565 1.334 . S
C566 C567 1.287 . S
C567 C566 1.287 . S
C567 C568 1.524 . S
C567 H570 0.999 . S
C568 H538 0.950 . S
C568 C567 1.524 . S
C568 C569 1.415 . S
C569 H539 0.950 . S
C569 C564 1.363 . S
C569 C568 1.415 . S
H570 C567 0.999 . S
H571 C552 0.913 . S
H572 C590 0.951 . S
H573 C592 0.951 . S
H574 C594 0.950 . S
H575 C595 0.950 . S
H576 C597 0.950 . S
H577 C600 0.950 . S
H578 C601 0.950 . S
H579 C603 0.950 . S
H580 C604 0.950 . S
H581 C605 0.951 . S
H582 C607 0.951 . S
H583 C609 0.950 . S
H584 C610 0.950 . S
H585 C612 0.950 . S
H586 C615 0.950 . S
H587 C616 0.950 . S
H588 C618 0.950 . S
H589 C619 0.950 . S
C590 H572 0.951 . S
C590 C591 1.366 . S
C590 C592 1.388 . S
C591 C590 1.366 . S
C591 C595 1.385 . S
C592 H573 0.951 . S
C592 C590 1.388 . S
C592 C593 1.366 . S
C593 C592 1.366 . S
C593 C594 1.414 . S
C593 C596 1.499 . S
C594 H574 0.950 . S
C594 C593 1.414 . S
C594 C595 1.374 . S
C595 H575 0.950 . S
C595 C591 1.385 . S
C595 C594 1.374 . S
C596 C593 1.499 . S
C596 C597 1.373 . S
C596 C598 1.389 . S
C597 H576 0.950 . S
C597 C596 1.373 . S
C597 C613 1.377 . S
C598 C596 1.389 . S
C598 C599 1.524 . S
C598 C612 1.377 . S
C599 C598 1.524 . S
C599 C600 1.397 . S
C599 C604 1.363 . S
C600 H577 0.950 . S
C600 C599 1.397 . S
C600 C601 1.334 . S
C601 H578 0.950 . S
C601 C600 1.334 . S
C601 C602 1.287 . S
C602 C601 1.287 . S
C602 C603 1.524 . S
C602 H621 0.913 . S
C603 H579 0.950 . S
C603 C602 1.524 . S
C603 C604 1.415 . S
C604 H580 0.950 . S
C604 C599 1.363 . S
C604 C603 1.415 . S
C605 H581 0.951 . S
C605 C606 1.366 . S
C605 C607 1.388 . S
C606 C605 1.366 . S
C606 C610 1.385 . S
C607 H582 0.951 . S
C607 C605 1.388 . S
C607 C608 1.366 . S
C608 C607 1.366 . S
C608 C609 1.414 . S
C608 C611 1.499 . S
C609 H583 0.950 . S
C609 C608 1.414 . S
C609 C610 1.374 . S
C610 H584 0.950 . S
C610 C606 1.385 . S
C610 C609 1.374 . S
C611 C608 1.499 . S
C611 C612 1.373 . S
C611 C613 1.389 . S
C612 H585 0.950 . S
C612 C598 1.377 . S
C612 C611 1.373 . S
C613 C597 1.377 . S
C613 C611 1.389 . S
C613 C614 1.524 . S
C614 C613 1.524 . S
C614 C615 1.397 . S
C614 C619 1.363 . S
C615 H586 0.950 . S
C615 C614 1.397 . S
C615 C616 1.334 . S
C616 H587 0.950 . S
C616 C615 1.334 . S
C616 C617 1.287 . S
C617 C616 1.287 . S
C617 C618 1.524 . S
C617 H620 0.999 . S
C618 H588 0.950 . S
C618 C617 1.524 . S
C618 C619 1.415 . S
C619 H589 0.950 . S
C619 C614 1.363 . S
C619 C618 1.415 . S
H620 C617 0.999 . S
H621 C602 0.913 . S
H622 C640 0.951 . S
H623 C642 0.951 . S
H624 C644 0.950 . S
H625 C645 0.950 . S
H626 C647 0.950 . S
H627 C650 0.950 . S
H628 C651 0.950 . S
H629 C653 0.950 . S
H630 C654 0.950 . S
H631 C655 0.951 . S
H632 C657 0.951 . S
H633 C659 0.950 . S
H634 C660 0.950 . S
H635 C662 0.950 . S
H636 C665 0.950 . S
H637 C666 0.950 . S
H638 C668 0.950 . S
H639 C669 0.950 . S
C640 H622 0.951 . S
C640 C641 1.366 . S
C640 C642 1.388 . S
C641 C640 1.366 . S
C641 C645 1.385 . S
C642 H623 0.951 . S
C642 C640 1.388 . S
C642 C643 1.366 . S
C643 C642 1.366 . S
C643 C644 1.414 . S
C643 C646 1.499 . S
C644 H624 0.950 . S
C644 C643 1.414 . S
C644 C645 1.374 . S
C645 H625 0.950 . S
C645 C641 1.385 . S
C645 C644 1.374 . S
C646 C643 1.499 . S
C646 C647 1.373 . S
C646 C648 1.389 . S
C647 H626 0.950 . S
C647 C646 1.373 . S
C647 C663 1.377 . S
C648 C646 1.389 . S
C648 C649 1.524 . S
C648 C662 1.377 . S
C649 C648 1.524 . S
C649 C650 1.397 . S
C649 C654 1.363 . S
C650 H627 0.950 . S
C650 C649 1.397 . S
C650 C651 1.334 . S
C651 H628 0.950 . S
C651 C650 1.334 . S
C651 C652 1.287 . S
C652 C651 1.287 . S
C652 C653 1.524 . S
C652 H671 0.913 . S
C653 H629 0.950 . S
C653 C652 1.524 . S
C653 C654 1.415 . S
C654 H630 0.950 . S
C654 C649 1.363 . S
C654 C653 1.415 . S
C655 H631 0.951 . S
C655 C656 1.366 . S
C655 C657 1.388 . S
C656 C655 1.366 . S
C656 C660 1.385 . S
C657 H632 0.951 . S
C657 C655 1.388 . S
C657 C658 1.366 . S
C658 C657 1.366 . S
C658 C659 1.414 . S
C658 C661 1.499 . S
C659 H633 0.950 . S
C659 C658 1.414 . S
C659 C660 1.374 . S
C660 H634 0.950 . S
C660 C656 1.385 . S
C660 C659 1.374 . S
C661 C658 1.499 . S
C661 C662 1.373 . S
C661 C663 1.389 . S
C662 H635 0.950 . S
C662 C648 1.377 . S
C662 C661 1.373 . S
C663 C647 1.377 . S
C663 C661 1.389 . S
C663 C664 1.524 . S
C664 C663 1.524 . S
C664 C665 1.397 . S
C664 C669 1.363 . S
C665 H636 0.950 . S
C665 C664 1.397 . S
C665 C666 1.334 . S
C666 H637 0.950 . S
C666 C665 1.334 . S
C666 C667 1.287 . S
C667 C666 1.287 . S
C667 C668 1.524 . S
C667 H670 0.999 . S
C668 H638 0.950 . S
C668 C667 1.524 . S
C668 C669 1.415 . S
C669 H639 0.950 . S
C669 C664 1.363 . S
C669 C668 1.415 . S
H670 C667 0.999 . S
H671 C652 0.913 . S
H672 C690 0.951 . S
H673 C692 0.951 . S
H674 C694 0.950 . S
H675 C695 0.950 . S
H676 C697 0.950 . S
H677 C700 0.950 . S
H678 C701 0.950 . S
H679 C703 0.950 . S
H680 C704 0.950 . S
H681 C705 0.951 . S
H682 C707 0.951 . S
H683 C709 0.950 . S
H684 C710 0.950 . S
H685 C712 0.950 . S
H686 C715 0.950 . S
H687 C716 0.950 . S
H688 C718 0.950 . S
H689 C719 0.950 . S
C690 H672 0.951 . S
C690 C691 1.366 . S
C690 C692 1.388 . S
C691 C690 1.366 . S
C691 C695 1.385 . S
C692 H673 0.951 . S
C692 C690 1.388 . S
C692 C693 1.366 . S
C693 C692 1.366 . S
C693 C694 1.414 . S
C693 C696 1.499 . S
C694 H674 0.950 . S
C694 C693 1.414 . S
C694 C695 1.374 . S
C695 H675 0.950 . S
C695 C691 1.385 . S
C695 C694 1.374 . S
C696 C693 1.499 . S
C696 C697 1.373 . S
C696 C698 1.389 . S
C697 H676 0.950 . S
C697 C696 1.373 . S
C697 C713 1.377 . S
C698 C696 1.389 . S
C698 C699 1.524 . S
C698 C712 1.377 . S
C699 C698 1.524 . S
C699 C700 1.397 . S
C699 C704 1.363 . S
C700 H677 0.950 . S
C700 C699 1.397 . S
C700 C701 1.334 . S
C701 H678 0.950 . S
C701 C700 1.334 . S
C701 C702 1.287 . S
C702 C701 1.287 . S
C702 C703 1.524 . S
C702 H721 0.913 . S
C703 H679 0.950 . S
C703 C702 1.524 . S
C703 C704 1.415 . S
C704 H680 0.950 . S
C704 C699 1.363 . S
C704 C703 1.415 . S
C705 H681 0.951 . S
C705 C706 1.366 . S
C705 C707 1.388 . S
C706 C705 1.366 . S
C706 C710 1.385 . S
C707 H682 0.951 . S
C707 C705 1.388 . S
C707 C708 1.366 . S
C708 C707 1.366 . S
C708 C709 1.414 . S
C708 C711 1.499 . S
C709 H683 0.950 . S
C709 C708 1.414 . S
C709 C710 1.374 . S
C710 H684 0.950 . S
C710 C706 1.385 . S
C710 C709 1.374 . S
C711 C708 1.499 . S
C711 C712 1.373 . S
C711 C713 1.389 . S
C712 H685 0.950 . S
C712 C698 1.377 . S
C712 C711 1.373 . S
C713 C697 1.377 . S
C713 C711 1.389 . S
C713 C714 1.524 . S
C714 C713 1.524 . S
C714 C715 1.397 . S
C714 C719 1.363 . S
C715 H686 0.950 . S
C715 C714 1.397 . S
C715 C716 1.334 . S
C716 H687 0.950 . S
C716 C715 1.334 . S
C716 C717 1.287 . S
C717 C716 1.287 . S
C717 C718 1.524 . S
C717 H720 0.999 . S
C718 H688 0.950 . S
C718 C717 1.524 . S
C718 C719 1.415 . S
C719 H689 0.950 . S
C719 C714 1.363 . S
C719 C718 1.415 . S
H720 C717 0.999 . S
H721 C702 0.913 . S
H722 C740 0.951 . S
H723 C742 0.951 . S
H724 C744 0.950 . S
H725 C745 0.950 . S
H726 C747 0.950 . S
H727 C750 0.950 . S
H728 C751 0.950 . S
H729 C753 0.950 . S
H730 C754 0.950 . S
H731 C755 0.951 . S
H732 C757 0.951 . S
H733 C759 0.950 . S
H734 C760 0.950 . S
H735 C762 0.950 . S
H736 C765 0.950 . S
H737 C766 0.950 1_655 S
H738 C768 0.950 1_655 S
H739 C769 0.950 . S
C740 H722 0.951 . S
C740 C741 1.366 . S
C740 C742 1.388 . S
C741 C740 1.366 . S
C741 C745 1.385 . S
C742 H723 0.951 . S
C742 C740 1.388 . S
C742 C743 1.366 . S
C743 C742 1.366 . S
C743 C744 1.414 . S
C743 C746 1.499 . S
C744 H724 0.950 . S
C744 C743 1.414 . S
C744 C745 1.374 . S
C745 H725 0.950 . S
C745 C741 1.385 . S
C745 C744 1.374 . S
C746 C743 1.499 . S
C746 C747 1.373 . S
C746 C748 1.389 . S
C747 H726 0.950 . S
C747 C746 1.373 . S
C747 C763 1.377 . S
C748 C746 1.389 . S
C748 C749 1.524 . S
C748 C762 1.377 . S
C749 C748 1.524 . S
C749 C750 1.397 . S
C749 C754 1.363 . S
C750 H727 0.950 . S
C750 C749 1.397 . S
C750 C751 1.334 . S
C751 H728 0.950 . S
C751 C750 1.334 . S
C751 C752 1.287 . S
C752 C751 1.287 . S
C752 C753 1.524 . S
C752 H771 0.913 . S
C753 H729 0.950 . S
C753 C752 1.524 . S
C753 C754 1.415 . S
C754 H730 0.950 . S
C754 C749 1.363 . S
C754 C753 1.415 . S
C755 H731 0.951 . S
C755 C756 1.366 . S
C755 C757 1.388 . S
C756 C755 1.366 . S
C756 C760 1.385 . S
C757 H732 0.951 . S
C757 C755 1.388 . S
C757 C758 1.366 . S
C758 C757 1.366 . S
C758 C759 1.414 . S
C758 C761 1.499 . S
C759 H733 0.950 . S
C759 C758 1.414 . S
C759 C760 1.374 . S
C760 H734 0.950 . S
C760 C756 1.385 . S
C760 C759 1.374 . S
C761 C758 1.499 . S
C761 C762 1.373 . S
C761 C763 1.389 . S
C762 H735 0.950 . S
C762 C748 1.377 . S
C762 C761 1.373 . S
C763 C747 1.377 . S
C763 C761 1.389 . S
C763 C764 1.524 . S
C764 C763 1.524 . S
C764 C765 1.397 . S
C764 C769 1.363 . S
C765 H736 0.950 . S
C765 C764 1.397 . S
C765 C766 1.334 . S
C766 H737 0.950 1_455 S
C766 C765 1.334 . S
C766 C767 1.287 1_455 S
C767 C766 1.287 1_655 S
C767 C768 1.524 1_655 S
C767 H770 0.999 . S
C768 H738 0.950 1_455 S
C768 C767 1.524 1_455 S
C768 C769 1.415 . S
C769 H739 0.950 . S
C769 C764 1.363 . S
C769 C768 1.415 . S
H770 C767 0.999 . S
H771 C752 0.913 . S
H772 C790 0.951 . S
H773 C792 0.951 . S
H774 C794 0.950 . S
H775 C795 0.950 . S
H776 C797 0.950 . S
H777 C800 0.950 . S
H778 C801 0.950 . S
H779 C803 0.950 . S
H780 C804 0.950 . S
H781 C805 0.951 . S
H782 C807 0.951 . S
H783 C809 0.950 . S
H784 C810 0.950 . S
H785 C812 0.950 . S
H786 C815 0.950 . S
H787 C816 0.950 . S
H788 C818 0.950 . S
H789 C819 0.950 . S
C790 H772 0.951 . S
C790 C791 1.366 . S
C790 C792 1.388 . S
C791 C790 1.366 . S
C791 C795 1.385 . S
C792 H773 0.951 . S
C792 C790 1.388 . S
C792 C793 1.366 . S
C793 C792 1.366 . S
C793 C794 1.414 . S
C793 C796 1.499 . S
C794 H774 0.950 . S
C794 C793 1.414 . S
C794 C795 1.374 . S
C795 H775 0.950 . S
C795 C791 1.385 . S
C795 C794 1.374 . S
C796 C793 1.499 . S
C796 C797 1.373 . S
C796 C798 1.389 . S
C797 H776 0.950 . S
C797 C796 1.373 . S
C797 C813 1.377 . S
C798 C796 1.389 . S
C798 C799 1.524 . S
C798 C812 1.377 . S
C799 C798 1.524 . S
C799 C800 1.397 . S
C799 C804 1.363 . S
C800 H777 0.950 . S
C800 C799 1.397 . S
C800 C801 1.334 . S
C801 H778 0.950 . S
C801 C800 1.334 . S
C801 C802 1.287 . S
C802 C801 1.287 . S
C802 C803 1.524 . S
C802 H821 0.913 . S
C803 H779 0.950 . S
C803 C802 1.524 . S
C803 C804 1.415 . S
C804 H780 0.950 . S
C804 C799 1.363 . S
C804 C803 1.415 . S
C805 H781 0.951 . S
C805 C806 1.366 . S
C805 C807 1.388 . S
C806 C805 1.366 . S
C806 C810 1.385 . S
C807 H782 0.951 . S
C807 C805 1.388 . S
C807 C808 1.366 . S
C808 C807 1.366 . S
C808 C809 1.414 . S
C808 C811 1.499 . S
C809 H783 0.950 . S
C809 C808 1.414 . S
C809 C810 1.374 . S
C810 H784 0.950 . S
C810 C806 1.385 . S
C810 C809 1.374 . S
C811 C808 1.499 . S
C811 C812 1.373 . S
C811 C813 1.389 . S
C812 H785 0.950 . S
C812 C798 1.377 . S
C812 C811 1.373 . S
C813 C797 1.377 . S
C813 C811 1.389 . S
C813 C814 1.524 . S
C814 C813 1.524 . S
C814 C815 1.397 . S
C814 C819 1.363 . S
C815 H786 0.950 . S
C815 C814 1.397 . S
C815 C816 1.334 . S
C816 H787 0.950 . S
C816 C815 1.334 . S
C816 C817 1.287 . S
C817 C816 1.287 . S
C817 C818 1.524 . S
C817 H820 0.999 . S
C818 H788 0.950 . S
C818 C817 1.524 . S
C818 C819 1.415 . S
C819 H789 0.950 . S
C819 C814 1.363 . S
C819 C818 1.415 . S
H820 C817 0.999 . S
H821 C802 0.913 . S
H822 C840 0.951 . S
H823 C842 0.951 . S
H824 C844 0.950 . S
H825 C845 0.950 . S
H826 C847 0.950 . S
H827 C850 0.950 . S
H828 C851 0.950 . S
H829 C853 0.950 . S
H830 C854 0.950 . S
H831 C855 0.951 . S
H832 C857 0.951 . S
H833 C859 0.950 . S
H834 C860 0.950 . S
H835 C862 0.950 . S
H836 C865 0.950 . S
H837 C866 0.950 . S
H838 C868 0.950 . S
H839 C869 0.950 . S
C840 H822 0.951 . S
C840 C841 1.366 . S
C840 C842 1.388 . S
C841 C840 1.366 . S
C841 C845 1.385 . S
C842 H823 0.951 . S
C842 C840 1.388 . S
C842 C843 1.366 . S
C843 C842 1.366 . S
C843 C844 1.414 . S
C843 C846 1.499 . S
C844 H824 0.950 . S
C844 C843 1.414 . S
C844 C845 1.374 . S
C845 H825 0.950 . S
C845 C841 1.385 . S
C845 C844 1.374 . S
C846 C843 1.499 . S
C846 C847 1.373 . S
C846 C848 1.389 . S
C847 H826 0.950 . S
C847 C846 1.373 . S
C847 C863 1.377 . S
C848 C846 1.389 . S
C848 C849 1.524 . S
C848 C862 1.377 . S
C849 C848 1.524 . S
C849 C850 1.397 . S
C849 C854 1.363 . S
C850 H827 0.950 . S
C850 C849 1.397 . S
C850 C851 1.334 . S
C851 H828 0.950 . S
C851 C850 1.334 . S
C851 C852 1.287 . S
C852 C851 1.287 . S
C852 C853 1.524 . S
C852 H871 0.913 . S
C853 H829 0.950 . S
C853 C852 1.524 . S
C853 C854 1.415 . S
C854 H830 0.950 . S
C854 C849 1.363 . S
C854 C853 1.415 . S
C855 H831 0.951 . S
C855 C856 1.366 . S
C855 C857 1.388 . S
C856 C855 1.366 . S
C856 C860 1.385 . S
C857 H832 0.951 . S
C857 C855 1.388 . S
C857 C858 1.366 . S
C858 C857 1.366 . S
C858 C859 1.414 . S
C858 C861 1.499 . S
C859 H833 0.950 . S
C859 C858 1.414 . S
C859 C860 1.374 . S
C860 H834 0.950 . S
C860 C856 1.385 . S
C860 C859 1.374 . S
C861 C858 1.499 . S
C861 C862 1.373 . S
C861 C863 1.389 . S
C862 H835 0.950 . S
C862 C848 1.377 . S
C862 C861 1.373 . S
C863 C847 1.377 . S
C863 C861 1.389 . S
C863 C864 1.524 . S
C864 C863 1.524 . S
C864 C865 1.397 . S
C864 C869 1.363 . S
C865 H836 0.950 . S
C865 C864 1.397 . S
C865 C866 1.334 . S
C866 H837 0.950 . S
C866 C865 1.334 . S
C866 C867 1.287 . S
C867 C866 1.287 . S
C867 C868 1.524 . S
C867 H870 0.999 . S
C868 H838 0.950 . S
C868 C867 1.524 . S
C868 C869 1.415 . S
C869 H839 0.950 . S
C869 C864 1.363 . S
C869 C868 1.415 . S
H870 C867 0.999 . S
H871 C852 0.913 . S
H872 C890 0.951 . S
H873 C892 0.951 . S
H874 C894 0.950 . S
H875 C895 0.950 . S
H876 C897 0.950 . S
H877 C900 0.950 . S
H878 C901 0.950 . S
H879 C903 0.950 . S
H880 C904 0.950 . S
H881 C905 0.951 . S
H882 C907 0.951 . S
H883 C909 0.950 . S
H884 C910 0.950 . S
H885 C912 0.950 . S
H886 C915 0.950 . S
H887 C916 0.950 . S
H888 C918 0.950 . S
H889 C919 0.950 . S
C890 H872 0.951 . S
C890 C891 1.366 . S
C890 C892 1.388 . S
C891 C890 1.366 . S
C891 C895 1.385 . S
C892 H873 0.951 . S
C892 C890 1.388 . S
C892 C893 1.366 . S
C893 C892 1.366 . S
C893 C894 1.414 . S
C893 C896 1.499 . S
C894 H874 0.950 . S
C894 C893 1.414 . S
C894 C895 1.374 . S
C895 H875 0.950 . S
C895 C891 1.385 . S
C895 C894 1.374 . S
C896 C893 1.499 . S
C896 C897 1.373 . S
C896 C898 1.389 . S
C897 H876 0.950 . S
C897 C896 1.373 . S
C897 C913 1.377 . S
C898 C896 1.389 . S
C898 C899 1.524 . S
C898 C912 1.377 . S
C899 C898 1.524 . S
C899 C900 1.397 . S
C899 C904 1.363 . S
C900 H877 0.950 . S
C900 C899 1.397 . S
C900 C901 1.334 . S
C901 H878 0.950 . S
C901 C900 1.334 . S
C901 C902 1.287 . S
C902 C901 1.287 . S
C902 C903 1.524 . S
C902 H921 0.913 . S
C903 H879 0.950 . S
C903 C902 1.524 . S
C903 C904 1.415 . S
C904 H880 0.950 . S
C904 C899 1.363 . S
C904 C903 1.415 . S
C905 H881 0.951 . S
C905 C906 1.366 . S
C905 C907 1.388 . S
C906 C905 1.366 . S
C906 C910 1.385 . S
C907 H882 0.951 . S
C907 C905 1.388 . S
C907 C908 1.366 . S
C908 C907 1.366 . S
C908 C909 1.414 . S
C908 C911 1.499 . S
C909 H883 0.950 . S
C909 C908 1.414 . S
C909 C910 1.374 . S
C910 H884 0.950 . S
C910 C906 1.385 . S
C910 C909 1.374 . S
C911 C908 1.499 . S
C911 C912 1.373 . S
C911 C913 1.389 . S
C912 H885 0.950 . S
C912 C898 1.377 . S
C912 C911 1.373 . S
C913 C897 1.377 . S
C913 C911 1.389 . S
C913 C914 1.524 . S
C914 C913 1.524 . S
C914 C915 1.397 . S
C914 C919 1.363 . S
C915 H886 0.950 . S
C915 C914 1.397 . S
C915 C916 1.334 . S
C916 H887 0.950 . S
C916 C915 1.334 . S
C916 C917 1.287 . S
C917 C916 1.287 . S
C917 C918 1.524 . S
C917 H920 0.999 . S
C918 H888 0.950 . S
C918 C917 1.524 . S
C918 C919 1.415 . S
C919 H889 0.950 . S
C919 C914 1.363 . S
C919 C918 1.415 . S
H920 C917 0.999 . S
H921 C902 0.913 . S
H922 C940 0.951 . S
H923 C942 0.951 . S
H924 C944 0.950 . S
H925 C945 0.950 . S
H926 C947 0.950 . S
H927 C950 0.950 . S
H928 C951 0.950 . S
H929 C953 0.950 . S
H930 C954 0.950 . S
H931 C955 0.951 . S
H932 C957 0.951 . S
H933 C959 0.950 . S
H934 C960 0.950 . S
H935 C962 0.950 . S
H936 C965 0.950 . S
H937 C966 0.950 . S
H938 C968 0.950 . S
H939 C969 0.950 . S
C940 H922 0.951 . S
C940 C941 1.366 . S
C940 C942 1.388 . S
C941 C940 1.366 . S
C941 C945 1.385 . S
C942 H923 0.951 . S
C942 C940 1.388 . S
C942 C943 1.366 . S
C943 C942 1.366 . S
C943 C944 1.414 . S
C943 C946 1.499 . S
C944 H924 0.950 . S
C944 C943 1.414 . S
C944 C945 1.374 . S
C945 H925 0.950 . S
C945 C941 1.385 . S
C945 C944 1.374 . S
C946 C943 1.499 . S
C946 C947 1.373 . S
C946 C948 1.389 . S
C947 H926 0.950 . S
C947 C946 1.373 . S
C947 C963 1.377 . S
C948 C946 1.389 . S
C948 C949 1.524 . S
C948 C962 1.377 . S
C949 C948 1.524 . S
C949 C950 1.397 . S
C949 C954 1.363 . S
C950 H927 0.950 . S
C950 C949 1.397 . S
C950 C951 1.334 . S
C951 H928 0.950 . S
C951 C950 1.334 . S
C951 C952 1.287 . S
C952 C951 1.287 . S
C952 C953 1.524 . S
C952 H971 0.913 . S
C953 H929 0.950 . S
C953 C952 1.524 . S
C953 C954 1.415 . S
C954 H930 0.950 . S
C954 C949 1.363 . S
C954 C953 1.415 . S
C955 H931 0.951 . S
C955 C956 1.366 . S
C955 C957 1.388 . S
C956 C955 1.366 . S
C956 C960 1.385 . S
C957 H932 0.951 . S
C957 C955 1.388 . S
C957 C958 1.366 . S
C958 C957 1.366 . S
C958 C959 1.414 . S
C958 C961 1.499 . S
C959 H933 0.950 . S
C959 C958 1.414 . S
C959 C960 1.374 . S
C960 H934 0.950 . S
C960 C956 1.385 . S
C960 C959 1.374 . S
C961 C958 1.499 . S
C961 C962 1.373 . S
C961 C963 1.389 . S
C962 H935 0.950 . S
C962 C948 1.377 . S
C962 C961 1.373 . S
C963 C947 1.377 . S
C963 C961 1.389 . S
C963 C964 1.524 . S
C964 C963 1.524 . S
C964 C965 1.397 . S
C964 C969 1.363 . S
C965 H936 0.950 . S
C965 C964 1.397 . S
C965 C966 1.334 . S
C966 H937 0.950 . S
C966 C965 1.334 . S
C966 C967 1.287 . S
C967 C966 1.287 . S
C967 C968 1.524 . S
C967 H970 0.999 . S
C968 H938 0.950 . S
C968 C967 1.524 . S
C968 C969 1.415 . S
C969 H939 0.950 . S
C969 C964 1.363 . S
C969 C968 1.415 . S
H970 C967 0.999 . S
H971 C952 0.913 . S
H972 C990 0.951 . S
H973 C992 0.951 . S
H974 C994 0.950 . S
H975 C995 0.950 . S
H976 C997 0.950 . S
H977 C1000 0.950 . S
H978 C1001 0.950 . S
H979 C1003 0.950 . S
H980 C1004 0.950 . S
H981 C1005 0.951 . S
H982 C1007 0.951 . S
H983 C1009 0.950 . S
H984 C1010 0.950 . S
H985 C1012 0.950 . S
H986 C1015 0.950 . S
H987 C1016 0.950 . S
H988 C1018 0.950 . S
H989 C1019 0.950 . S
C990 H972 0.951 . S
C990 C991 1.366 . S
C990 C992 1.388 . S
C991 C990 1.366 . S
C991 C995 1.385 . S
C992 H973 0.951 . S
C992 C990 1.388 . S
C992 C993 1.366 . S
C993 C992 1.366 . S
C993 C994 1.414 . S
C993 C996 1.499 . S
C994 H974 0.950 . S
C994 C993 1.414 . S
C994 C995 1.374 . S
C995 H975 0.950 . S
C995 C991 1.385 . S
C995 C994 1.374 . S
C996 C993 1.499 . S
C996 C997 1.373 . S
C996 C998 1.389 . S
C997 H976 0.950 . S
C997 C996 1.373 . S
C997 C1013 1.377 . S
C998 C996 1.389 . S
C998 C999 1.524 . S
C998 C1012 1.377 . S
C999 C998 1.524 . S
C999 C1000 1.397 . S
C999 C1004 1.363 . S
C1000 H977 0.950 . S
C1000 C999 1.397 . S
C1000 C1001 1.334 . S
C1001 H978 0.950 . S
C1001 C1000 1.334 . S
C1001 C1002 1.287 . S
C1002 C1001 1.287 . S
C1002 C1003 1.524 . S
C1002 H1021 0.913 . S
C1003 H979 0.950 . S
C1003 C1002 1.524 . S
C1003 C1004 1.415 . S
C1004 H980 0.950 . S
C1004 C999 1.363 . S
C1004 C1003 1.415 . S
C1005 H981 0.951 . S
C1005 C1006 1.366 . S
C1005 C1007 1.388 . S
C1006 C1005 1.366 . S
C1006 C1010 1.385 . S
C1007 H982 0.951 . S
C1007 C1005 1.388 . S
C1007 C1008 1.366 . S
C1008 C1007 1.366 . S
C1008 C1009 1.414 . S
C1008 C1011 1.499 . S
C1009 H983 0.950 . S
C1009 C1008 1.414 . S
C1009 C1010 1.374 . S
C1010 H984 0.950 . S
C1010 C1006 1.385 . S
C1010 C1009 1.374 . S
C1011 C1008 1.499 . S
C1011 C1012 1.373 . S
C1011 C1013 1.389 . S
C1012 H985 0.950 . S
C1012 C998 1.377 . S
C1012 C1011 1.373 . S
C1013 C997 1.377 . S
C1013 C1011 1.389 . S
C1013 C1014 1.524 . S
C1014 C1013 1.524 . S
C1014 C1015 1.397 . S
C1014 C1019 1.363 . S
C1015 H986 0.950 . S
C1015 C1014 1.397 . S
C1015 C1016 1.334 . S
C1016 H987 0.950 . S
C1016 C1015 1.334 . S
C1016 C1017 1.287 . S
C1017 C1016 1.287 . S
C1017 C1018 1.524 . S
C1017 H1020 0.999 . S
C1018 H988 0.950 . S
C1018 C1017 1.524 . S
C1018 C1019 1.415 . S
C1019 H989 0.950 . S
C1019 C1014 1.363 . S
C1019 C1018 1.415 . S
H1020 C1017 0.999 . S
H1021 C1002 0.913 . S
H1022 C1040 0.951 . S
H1023 C1042 0.951 . S
H1024 C1044 0.950 . S
H1025 C1045 0.950 . S
H1026 C1047 0.950 . S
H1027 C1050 0.950 . S
H1028 C1051 0.950 . S
H1029 C1053 0.950 . S
H1030 C1054 0.950 . S
H1031 C1055 0.951 . S
H1032 C1057 0.951 . S
H1033 C1059 0.950 . S
H1034 C1060 0.950 . S
H1035 C1062 0.950 . S
H1036 C1065 0.950 . S
H1037 C1066 0.950 . S
H1038 C1068 0.950 . S
H1039 C1069 0.950 . S
C1040 H1022 0.951 . S
C1040 C1041 1.366 . S
C1040 C1042 1.388 . S
C1041 C1040 1.366 . S
C1041 C1045 1.385 . S
C1042 H1023 0.951 . S
C1042 C1040 1.388 . S
C1042 C1043 1.366 . S
C1043 C1042 1.366 . S
C1043 C1044 1.414 . S
C1043 C1046 1.499 . S
C1044 H1024 0.950 . S
C1044 C1043 1.414 . S
C1044 C1045 1.374 . S
C1045 H1025 0.950 . S
C1045 C1041 1.385 . S
C1045 C1044 1.374 . S
C1046 C1043 1.499 . S
C1046 C1047 1.373 . S
C1046 C1048 1.389 . S
C1047 H1026 0.950 . S
C1047 C1046 1.373 . S
C1047 C1063 1.377 . S
C1048 C1046 1.389 . S
C1048 C1049 1.524 . S
C1048 C1062 1.377 . S
C1049 C1048 1.524 . S
C1049 C1050 1.397 . S
C1049 C1054 1.363 . S
C1050 H1027 0.950 . S
C1050 C1049 1.397 . S
C1050 C1051 1.334 . S
C1051 H1028 0.950 . S
C1051 C1050 1.334 . S
C1051 C1052 1.287 . S
C1052 C1051 1.287 . S
C1052 C1053 1.524 . S
C1052 H1071 0.913 . S
C1053 H1029 0.950 . S
C1053 C1052 1.524 . S
C1053 C1054 1.415 . S
C1054 H1030 0.950 . S
C1054 C1049 1.363 . S
C1054 C1053 1.415 . S
C1055 H1031 0.951 . S
C1055 C1056 1.366 . S
C1055 C1057 1.388 . S
C1056 C1055 1.366 . S
C1056 C1060 1.385 . S
C1057 H1032 0.951 . S
C1057 C1055 1.388 . S
C1057 C1058 1.366 . S
C1058 C1057 1.366 . S
C1058 C1059 1.414 . S
C1058 C1061 1.499 . S
C1059 H1033 0.950 . S
C1059 C1058 1.414 . S
C1059 C1060 1.374 . S
C1060 H1034 0.950 . S
C1060 C1056 1.385 . S
C1060 C1059 1.374 . S
C1061 C1058 1.499 . S
C1061 C1062 1.373 . S
C1061 C1063 1.389 . S
C1062 H1035 0.950 . S
C1062 C1048 1.377 . S
C1062 C1061 1.373 . S
C1063 C1047 1.377 . S
C1063 C1061 1.389 . S
C1063 C1064 1.524 . S
C1064 C1063 1.524 . S
C1064 C1065 1.397 . S
C1064 C1069 1.363 . S
C1065 H1036 0.950 . S
C1065 C1064 1.397 . S
C1065 C1066 1.334 . S
C1066 H1037 0.950 . S
C1066 C1065 1.334 . S
C1066 C1067 1.287 . S
C1067 C1066 1.287 . S
C1067 C1068 1.524 . S
C1067 H1070 0.999 . S
C1068 H1038 0.950 . S
C1068 C1067 1.524 . S
C1068 C1069 1.415 . S
C1069 H1039 0.950 . S
C1069 C1064 1.363 . S
C1069 C1068 1.415 . S
H1070 C1067 0.999 . S
H1071 C1052 0.913 . S
H1072 C1090 0.951 . S
H1073 C1092 0.951 . S
H1074 C1094 0.950 . S
H1075 C1095 0.950 . S
H1076 C1097 0.950 . S
H1077 C1100 0.950 . S
H1078 C1101 0.950 . S
H1079 C1103 0.950 . S
H1080 C1104 0.950 . S
H1081 C1105 0.951 . S
H1082 C1107 0.951 . S
H1083 C1109 0.950 . S
H1084 C1110 0.950 . S
H1085 C1112 0.950 . S
H1086 C1115 0.950 . S
H1087 C1116 0.950 . S
H1088 C1118 0.950 . S
H1089 C1119 0.950 . S
C1090 H1072 0.951 . S
C1090 C1091 1.366 . S
C1090 C1092 1.388 . S
C1091 C1090 1.366 . S
C1091 C1095 1.385 . S
C1092 H1073 0.951 . S
C1092 C1090 1.388 . S
C1092 C1093 1.366 . S
C1093 C1092 1.366 . S
C1093 C1094 1.414 . S
C1093 C1096 1.499 . S
C1094 H1074 0.950 . S
C1094 C1093 1.414 . S
C1094 C1095 1.374 . S
C1095 H1075 0.950 . S
C1095 C1091 1.385 . S
C1095 C1094 1.374 . S
C1096 C1093 1.499 . S
C1096 C1097 1.373 . S
C1096 C1098 1.389 . S
C1097 H1076 0.950 . S
C1097 C1096 1.373 . S
C1097 C1113 1.377 . S
C1098 C1096 1.389 . S
C1098 C1099 1.524 . S
C1098 C1112 1.377 . S
C1099 C1098 1.524 . S
C1099 C1100 1.397 . S
C1099 C1104 1.363 . S
C1100 H1077 0.950 . S
C1100 C1099 1.397 . S
C1100 C1101 1.334 . S
C1101 H1078 0.950 . S
C1101 C1100 1.334 . S
C1101 C1102 1.287 . S
C1102 C1101 1.287 . S
C1102 C1103 1.524 . S
C1102 H1121 0.913 . S
C1103 H1079 0.950 . S
C1103 C1102 1.524 . S
C1103 C1104 1.415 . S
C1104 H1080 0.950 . S
C1104 C1099 1.363 . S
C1104 C1103 1.415 . S
C1105 H1081 0.951 . S
C1105 C1106 1.366 . S
C1105 C1107 1.388 . S
C1106 C1105 1.366 . S
C1106 C1110 1.385 . S
C1107 H1082 0.951 . S
C1107 C1105 1.388 . S
C1107 C1108 1.366 . S
C1108 C1107 1.366 . S
C1108 C1109 1.414 . S
C1108 C1111 1.499 . S
C1109 H1083 0.950 . S
C1109 C1108 1.414 . S
C1109 C1110 1.374 . S
C1110 H1084 0.950 . S
C1110 C1106 1.385 . S
C1110 C1109 1.374 . S
C1111 C1108 1.499 . S
C1111 C1112 1.373 . S
C1111 C1113 1.389 . S
C1112 H1085 0.950 . S
C1112 C1098 1.377 . S
C1112 C1111 1.373 . S
C1113 C1097 1.377 . S
C1113 C1111 1.389 . S
C1113 C1114 1.524 . S
C1114 C1113 1.524 . S
C1114 C1115 1.397 . S
C1114 C1119 1.363 . S
C1115 H1086 0.950 . S
C1115 C1114 1.397 . S
C1115 C1116 1.334 . S
C1116 H1087 0.950 . S
C1116 C1115 1.334 . S
C1116 C1117 1.287 . S
C1117 C1116 1.287 . S
C1117 C1118 1.524 . S
C1117 H1120 0.999 . S
C1118 H1088 0.950 . S
C1118 C1117 1.524 . S
C1118 C1119 1.415 . S
C1119 H1089 0.950 . S
C1119 C1114 1.363 . S
C1119 C1118 1.415 . S
H1120 C1117 0.999 . S
H1121 C1102 0.913 . S
H1122 C1140 0.951 . S
H1123 C1142 0.951 . S
H1124 C1144 0.950 . S
H1125 C1145 0.950 . S
H1126 C1147 0.950 . S
H1127 C1150 0.950 . S
H1128 C1151 0.950 . S
H1129 C1153 0.950 . S
H1130 C1154 0.950 . S
H1131 C1155 0.951 . S
H1132 C1157 0.951 . S
H1133 C1159 0.950 . S
H1134 C1160 0.950 . S
H1135 C1162 0.950 . S
H1136 C1165 0.950 . S
H1137 C1166 0.950 . S
H1138 C1168 0.950 . S
H1139 C1169 0.950 . S
C1140 H1122 0.951 . S
C1140 C1141 1.366 . S
C1140 C1142 1.388 . S
C1141 C1140 1.366 . S
C1141 C1145 1.385 . S
C1142 H1123 0.951 . S
C1142 C1140 1.388 . S
C1142 C1143 1.366 . S
C1143 C1142 1.366 . S
C1143 C1144 1.414 . S
C1143 C1146 1.499 . S
C1144 H1124 0.950 . S
C1144 C1143 1.414 . S
C1144 C1145 1.374 . S
C1145 H1125 0.950 . S
C1145 C1141 1.385 . S
C1145 C1144 1.374 . S
C1146 C1143 1.499 . S
C1146 C1147 1.373 . S
C1146 C1148 1.389 . S
C1147 H1126 0.950 . S
C1147 C1146 1.373 . S
C1147 C1163 1.377 . S
C1148 C1146 1.389 . S
C1148 C1149 1.524 . S
C1148 C1162 1.377 . S
C1149 C1148 1.524 . S
C1149 C1150 1.397 . S
C1149 C1154 1.363 . S
C1150 H1127 0.950 . S
C1150 C1149 1.397 . S
C1150 C1151 1.334 . S
C1151 H1128 0.950 . S
C1151 C1150 1.334 . S
C1151 C1152 1.287 . S
C1152 C1151 1.287 . S
C1152 C1153 1.524 . S
C1152 H1171 0.913 . S
C1153 H1129 0.950 . S
C1153 C1152 1.524 . S
C1153 C1154 1.415 . S
C1154 H1130 0.950 . S
C1154 C1149 1.363 . S
C1154 C1153 1.415 . S
C1155 H1131 0.951 . S
C1155 C1156 1.366 . S
C1155 C1157 1.388 . S
C1156 C1155 1.366 . S
C1156 C1160 1.385 . S
C1157 H1132 0.951 . S
C1157 C1155 1.388 . S
C1157 C1158 1.366 . S
C1158 C1157 1.366 . S
C1158 C1159 1.414 . S
C1158 C1161 1.499 . S
C1159 H1133 0.950 . S
C1159 C1158 1.414 . S
C1159 C1160 1.374 . S
C1160 H1134 0.950 . S
C1160 C1156 1.385 . S
C1160 C1159 1.374 . S
C1161 C1158 1.499 . S
C1161 C1162 1.373 . S
C1161 C1163 1.389 . S
C1162 H1135 0.950 . S
C1162 C1148 1.377 . S
C1162 C1161 1.373 . S
C1163 C1147 1.377 . S
C1163 C1161 1.389 . S
C1163 C1164 1.524 . S
C1164 C1163 1.524 . S
C1164 C1165 1.397 . S
C1164 C1169 1.363 . S
C1165 H1136 0.950 . S
C1165 C1164 1.397 . S
C1165 C1166 1.334 . S
C1166 H1137 0.950 . S
C1166 C1165 1.334 . S
C1166 C1167 1.287 . S
C1167 C1166 1.287 . S
C1167 C1168 1.524 . S
C1167 H1170 0.999 . S
C1168 H1138 0.950 . S
C1168 C1167 1.524 . S
C1168 C1169 1.415 . S
C1169 H1139 0.950 . S
C1169 C1164 1.363 . S
C1169 C1168 1.415 . S
H1170 C1167 0.999 . S
H1171 C1152 0.913 . S
H1172 C1190 0.951 . S
H1173 C1192 0.951 . S
H1174 C1194 0.950 . S
H1175 C1195 0.950 . S
H1176 C1197 0.950 . S
H1177 C1200 0.950 . S
H1178 C1201 0.950 . S
H1179 C1203 0.950 . S
H1180 C1204 0.950 . S
H1181 C1205 0.951 . S
H1182 C1207 0.951 . S
H1183 C1209 0.950 . S
H1184 C1210 0.950 . S
H1185 C1212 0.950 . S
H1186 C1215 0.950 . S
H1187 C1216 0.950 . S
H1188 C1218 0.950 . S
H1189 C1219 0.950 . S
C1190 H1172 0.951 . S
C1190 C1191 1.366 . S
C1190 C1192 1.388 . S
C1191 C1190 1.366 . S
C1191 C1195 1.385 . S
C1192 H1173 0.951 . S
C1192 C1190 1.388 . S
C1192 C1193 1.366 . S
C1193 C1192 1.366 . S
C1193 C1194 1.414 . S
C1193 C1196 1.499 . S
C1194 H1174 0.950 . S
C1194 C1193 1.414 . S
C1194 C1195 1.374 . S
C1195 H1175 0.950 . S
C1195 C1191 1.385 . S
C1195 C1194 1.374 . S
C1196 C1193 1.499 . S
C1196 C1197 1.373 . S
C1196 C1198 1.389 . S
C1197 H1176 0.950 . S
C1197 C1196 1.373 . S
C1197 C1213 1.377 . S
C1198 C1196 1.389 . S
C1198 C1199 1.524 . S
C1198 C1212 1.377 . S
C1199 C1198 1.524 . S
C1199 C1200 1.397 . S
C1199 C1204 1.363 . S
C1200 H1177 0.950 . S
C1200 C1199 1.397 . S
C1200 C1201 1.334 . S
C1201 H1178 0.950 . S
C1201 C1200 1.334 . S
C1201 C1202 1.287 . S
C1202 C1201 1.287 . S
C1202 C1203 1.524 . S
C1202 H1221 0.913 . S
C1203 H1179 0.950 . S
C1203 C1202 1.524 . S
C1203 C1204 1.415 . S
C1204 H1180 0.950 . S
C1204 C1199 1.363 . S
C1204 C1203 1.415 . S
C1205 H1181 0.951 . S
C1205 C1206 1.366 . S
C1205 C1207 1.388 . S
C1206 C1205 1.366 . S
C1206 C1210 1.385 . S
C1207 H1182 0.951 . S
C1207 C1205 1.388 . S
C1207 C1208 1.366 . S
C1208 C1207 1.366 . S
C1208 C1209 1.414 . S
C1208 C1211 1.499 . S
C1209 H1183 0.950 . S
C1209 C1208 1.414 . S
C1209 C1210 1.374 . S
C1210 H1184 0.950 . S
C1210 C1206 1.385 . S
C1210 C1209 1.374 . S
C1211 C1208 1.499 . S
C1211 C1212 1.373 . S
C1211 C1213 1.389 . S
C1212 H1185 0.950 . S
C1212 C1198 1.377 . S
C1212 C1211 1.373 . S
C1213 C1197 1.377 . S
C1213 C1211 1.389 . S
C1213 C1214 1.524 . S
C1214 C1213 1.524 . S
C1214 C1215 1.397 . S
C1214 C1219 1.363 . S
C1215 H1186 0.950 . S
C1215 C1214 1.397 . S
C1215 C1216 1.334 . S
C1216 H1187 0.950 . S
C1216 C1215 1.334 . S
C1216 C1217 1.287 . S
C1217 C1216 1.287 . S
C1217 C1218 1.524 . S
C1217 H1220 0.999 . S
C1218 H1188 0.950 . S
C1218 C1217 1.524 . S
C1218 C1219 1.415 . S
C1219 H1189 0.950 . S
C1219 C1214 1.363 . S
C1219 C1218 1.415 . S
H1220 C1217 0.999 . S
H1221 C1202 0.913 . S
H1222 C1240 0.951 . S
H1223 C1242 0.951 . S
H1224 C1244 0.950 . S
H1225 C1245 0.950 . S
H1226 C1247 0.950 . S
H1227 C1250 0.950 . S
H1228 C1251 0.950 . S
H1229 C1253 0.950 . S
H1230 C1254 0.950 . S
H1231 C1255 0.951 . S
H1232 C1257 0.951 . S
H1233 C1259 0.950 . S
H1234 C1260 0.950 . S
H1235 C1262 0.950 . S
H1236 C1265 0.950 . S
H1237 C1266 0.950 . S
H1238 C1268 0.950 . S
H1239 C1269 0.950 . S
C1240 H1222 0.951 . S
C1240 C1241 1.366 . S
C1240 C1242 1.388 . S
C1241 C1240 1.366 . S
C1241 C1245 1.385 . S
C1242 H1223 0.951 . S
C1242 C1240 1.388 . S
C1242 C1243 1.366 . S
C1243 C1242 1.366 . S
C1243 C1244 1.414 . S
C1243 C1246 1.499 . S
C1244 H1224 0.950 . S
C1244 C1243 1.414 . S
C1244 C1245 1.374 . S
C1245 H1225 0.950 . S
C1245 C1241 1.385 . S
C1245 C1244 1.374 . S
C1246 C1243 1.499 . S
C1246 C1247 1.373 . S
C1246 C1248 1.389 . S
C1247 H1226 0.950 . S
C1247 C1246 1.373 . S
C1247 C1263 1.377 . S
C1248 C1246 1.389 . S
C1248 C1249 1.524 . S
C1248 C1262 1.377 . S
C1249 C1248 1.524 . S
C1249 C1250 1.397 . S
C1249 C1254 1.363 . S
C1250 H1227 0.950 . S
C1250 C1249 1.397 . S
C1250 C1251 1.334 . S
C1251 H1228 0.950 . S
C1251 C1250 1.334 . S
C1251 C1252 1.287 . S
C1252 C1251 1.287 . S
C1252 C1253 1.524 . S
C1252 H1271 0.913 . S
C1253 H1229 0.950 . S
C1253 C1252 1.524 . S
C1253 C1254 1.415 . S
C1254 H1230 0.950 . S
C1254 C1249 1.363 . S
C1254 C1253 1.415 . S
C1255 H1231 0.951 . S
C1255 C1256 1.366 . S
C1255 C1257 1.388 . S
C1256 C1255 1.366 . S
C1256 C1260 1.385 . S
C1257 H1232 0.951 . S
C1257 C1255 1.388 . S
C1257 C1258 1.366 . S
C1258 C1257 1.366 . S
C1258 C1259 1.414 . S
C1258 C1261 1.499 . S
C1259 H1233 0.950 . S
C1259 C1258 1.414 . S
C1259 C1260 1.374 . S
C1260 H1234 0.950 . S
C1260 C1256 1.385 . S
C1260 C1259 1.374 . S
C1261 C1258 1.499 . S
C1261 C1262 1.373 . S
C1261 C1263 1.389 . S
C1262 H1235 0.950 . S
C1262 C1248 1.377 . S
C1262 C1261 1.373 . S
C1263 C1247 1.377 . S
C1263 C1261 1.389 . S
C1263 C1264 1.524 . S
C1264 C1263 1.524 . S
C1264 C1265 1.397 . S
C1264 C1269 1.363 . S
C1265 H1236 0.950 . S
C1265 C1264 1.397 . S
C1265 C1266 1.334 . S
C1266 H1237 0.950 . S
C1266 C1265 1.334 . S
C1266 C1267 1.287 . S
C1267 C1266 1.287 . S
C1267 C1268 1.524 . S
C1267 H1270 0.999 . S
C1268 H1238 0.950 . S
C1268 C1267 1.524 . S
C1268 C1269 1.415 . S
C1269 H1239 0.950 . S
C1269 C1264 1.363 . S
C1269 C1268 1.415 . S
H1270 C1267 0.999 . S
H1271 C1252 0.913 . S
H1272 C1290 0.951 . S
H1273 C1292 0.951 . S
H1274 C1294 0.950 . S
H1275 C1295 0.950 . S
H1276 C1297 0.950 . S
H1277 C1300 0.950 . S
H1278 C1301 0.950 . S
H1279 C1303 0.950 . S
H1280 C1304 0.950 . S
H1281 C1305 0.951 . S
H1282 C1307 0.951 . S
H1283 C1309 0.950 . S
H1284 C1310 0.950 . S
H1285 C1312 0.950 . S
H1286 C1315 0.950 . S
H1287 C1316 0.950 . S
H1288 C1318 0.950 . S
H1289 C1319 0.950 . S
C1290 H1272 0.951 . S
C1290 C1291 1.366 . S
C1290 C1292 1.388 . S
C1291 C1290 1.366 . S
C1291 C1295 1.385 . S
C1292 H1273 0.951 . S
C1292 C1290 1.388 . S
C1292 C1293 1.366 . S
C1293 C1292 1.366 . S
C1293 C1294 1.414 . S
C1293 C1296 1.499 . S
C1294 H1274 0.950 . S
C1294 C1293 1.414 . S
C1294 C1295 1.374 . S
C1295 H1275 0.950 . S
C1295 C1291 1.385 . S
C1295 C1294 1.374 . S
C1296 C1293 1.499 . S
C1296 C1297 1.373 . S
C1296 C1298 1.389 . S
C1297 H1276 0.950 . S
C1297 C1296 1.373 . S
C1297 C1313 1.377 . S
C1298 C1296 1.389 . S
C1298 C1299 1.524 . S
C1298 C1312 1.377 . S
C1299 C1298 1.524 . S
C1299 C1300 1.397 . S
C1299 C1304 1.363 . S
C1300 H1277 0.950 . S
C1300 C1299 1.397 . S
C1300 C1301 1.334 . S
C1301 H1278 0.950 . S
C1301 C1300 1.334 . S
C1301 C1302 1.287 . S
C1302 C1301 1.287 . S
C1302 C1303 1.524 . S
C1302 H1321 0.913 . S
C1303 H1279 0.950 . S
C1303 C1302 1.524 . S
C1303 C1304 1.415 . S
C1304 H1280 0.950 . S
C1304 C1299 1.363 . S
C1304 C1303 1.415 . S
C1305 H1281 0.951 . S
C1305 C1306 1.366 . S
C1305 C1307 1.388 . S
C1306 C1305 1.366 . S
C1306 C1310 1.385 . S
C1307 H1282 0.951 . S
C1307 C1305 1.388 . S
C1307 C1308 1.366 . S
C1308 C1307 1.366 . S
C1308 C1309 1.414 . S
C1308 C1311 1.499 . S
C1309 H1283 0.950 . S
C1309 C1308 1.414 . S
C1309 C1310 1.374 . S
C1310 H1284 0.950 . S
C1310 C1306 1.385 . S
C1310 C1309 1.374 . S
C1311 C1308 1.499 . S
C1311 C1312 1.373 . S
C1311 C1313 1.389 . S
C1312 H1285 0.950 . S
C1312 C1298 1.377 . S
C1312 C1311 1.373 . S
C1313 C1297 1.377 . S
C1313 C1311 1.389 . S
C1313 C1314 1.524 . S
C1314 C1313 1.524 . S
C1314 C1315 1.397 . S
C1314 C1319 1.363 . S
C1315 H1286 0.950 . S
C1315 C1314 1.397 . S
C1315 C1316 1.334 . S
C1316 H1287 0.950 . S
C1316 C1315 1.334 . S
C1316 C1317 1.287 . S
C1317 C1316 1.287 . S
C1317 C1318 1.524 . S
C1317 H1320 0.999 . S
C1318 H1288 0.950 . S
C1318 C1317 1.524 . S
C1318 C1319 1.415 . S
C1319 H1289 0.950 . S
C1319 C1314 1.363 . S
C1319 C1318 1.415 . S
H1320 C1317 0.999 . S
H1321 C1302 0.913 . S
H1322 C1340 0.951 . S
H1323 C1342 0.951 . S
H1324 C1344 0.950 . S
H1325 C1345 0.950 . S
H1326 C1347 0.950 . S
H1327 C1350 0.950 . S
H1328 C1351 0.950 . S
H1329 C1353 0.950 . S
H1330 C1354 0.950 . S
H1331 C1355 0.951 . S
H1332 C1357 0.951 . S
H1333 C1359 0.950 . S
H1334 C1360 0.950 . S
H1335 C1362 0.950 . S
H1336 C1365 0.950 . S
H1337 C1366 0.950 . S
H1338 C1368 0.950 . S
H1339 C1369 0.950 . S
C1340 H1322 0.951 . S
C1340 C1341 1.366 . S
C1340 C1342 1.388 . S
C1341 C1340 1.366 . S
C1341 C1345 1.385 . S
C1342 H1323 0.951 . S
C1342 C1340 1.388 . S
C1342 C1343 1.366 . S
C1343 C1342 1.366 . S
C1343 C1344 1.414 . S
C1343 C1346 1.499 . S
C1344 H1324 0.950 . S
C1344 C1343 1.414 . S
C1344 C1345 1.374 . S
C1345 H1325 0.950 . S
C1345 C1341 1.385 . S
C1345 C1344 1.374 . S
C1346 C1343 1.499 . S
C1346 C1347 1.373 . S
C1346 C1348 1.389 . S
C1347 H1326 0.950 . S
C1347 C1346 1.373 . S
C1347 C1363 1.377 . S
C1348 C1346 1.389 . S
C1348 C1349 1.524 . S
C1348 C1362 1.377 . S
C1349 C1348 1.524 . S
C1349 C1350 1.397 . S
C1349 C1354 1.363 . S
C1350 H1327 0.950 . S
C1350 C1349 1.397 . S
C1350 C1351 1.334 . S
C1351 H1328 0.950 . S
C1351 C1350 1.334 . S
C1351 C1352 1.287 . S
C1352 C1351 1.287 . S
C1352 C1353 1.524 . S
C1352 H1371 0.913 . S
C1353 H1329 0.950 . S
C1353 C1352 1.524 . S
C1353 C1354 1.415 . S
C1354 H1330 0.950 . S
C1354 C1349 1.363 . S
C1354 C1353 1.415 . S
C1355 H1331 0.951 . S
C1355 C1356 1.366 . S
C1355 C1357 1.388 . S
C1356 C1355 1.366 . S
C1356 C1360 1.385 . S
C1357 H1332 0.951 . S
C1357 C1355 1.388 . S
C1357 C1358 1.366 . S
C1358 C1357 1.366 . S
C1358 C1359 1.414 . S
C1358 C1361 1.499 . S
C1359 H1333 0.950 . S
C1359 C1358 1.414 . S
C1359 C1360 1.374 . S
C1360 H1334 0.950 . S
C1360 C1356 1.385 . S
C1360 C1359 1.374 . S
C1361 C1358 1.499 . S
C1361 C1362 1.373 . S
C1361 C1363 1.389 . S
C1362 H1335 0.950 . S
C1362 C1348 1.377 . S
C1362 C1361 1.373 . S
C1363 C1347 1.377 . S
C1363 C1361 1.389 . S
C1363 C1364 1.524 . S
C1364 C1363 1.524 . S
C1364 C1365 1.397 . S
C1364 C1369 1.363 . S
C1365 H1336 0.950 . S
C1365 C1364 1.397 . S
C1365 C1366 1.334 . S
C1366 H1337 0.950 . S
C1366 C1365 1.334 . S
C1366 C1367 1.287 . S
C1367 C1366 1.287 . S
C1367 C1368 1.524 . S
C1367 H1370 0.999 . S
C1368 H1338 0.950 . S
C1368 C1367 1.524 . S
C1368 C1369 1.415 . S
C1369 H1339 0.950 . S
C1369 C1364 1.363 . S
C1369 C1368 1.415 . S
H1370 C1367 0.999 . S
H1371 C1352 0.913 . S
H1372 C1390 0.951 . S
H1373 C1392 0.951 . S
H1374 C1394 0.950 . S
H1375 C1395 0.950 . S
H1376 C1397 0.950 . S
H1377 C1400 0.950 . S
H1378 C1401 0.950 . S
H1379 C1403 0.950 . S
H1380 C1404 0.950 . S
H1381 C1405 0.951 . S
H1382 C1407 0.951 . S
H1383 C1409 0.950 . S
H1384 C1410 0.950 . S
H1385 C1412 0.950 . S
H1386 C1415 0.950 . S
H1387 C1416 0.950 . S
H1388 C1418 0.950 . S
H1389 C1419 0.950 . S
C1390 H1372 0.951 . S
C1390 C1391 1.366 . S
C1390 C1392 1.388 . S
C1391 C1390 1.366 . S
C1391 C1395 1.385 . S
C1392 H1373 0.951 . S
C1392 C1390 1.388 . S
C1392 C1393 1.366 . S
C1393 C1392 1.366 . S
C1393 C1394 1.414 . S
C1393 C1396 1.499 . S
C1394 H1374 0.950 . S
C1394 C1393 1.414 . S
C1394 C1395 1.374 . S
C1395 H1375 0.950 . S
C1395 C1391 1.385 . S
C1395 C1394 1.374 . S
C1396 C1393 1.499 . S
C1396 C1397 1.373 . S
C1396 C1398 1.389 . S
C1397 H1376 0.950 . S
C1397 C1396 1.373 . S
C1397 C1413 1.377 . S
C1398 C1396 1.389 . S
C1398 C1399 1.524 . S
C1398 C1412 1.377 . S
C1399 C1398 1.524 . S
C1399 C1400 1.397 . S
C1399 C1404 1.363 . S
C1400 H1377 0.950 . S
C1400 C1399 1.397 . S
C1400 C1401 1.334 . S
C1401 H1378 0.950 . S
C1401 C1400 1.334 . S
C1401 C1402 1.287 . S
C1402 C1401 1.287 . S
C1402 C1403 1.524 . S
C1402 H1421 0.913 . S
C1403 H1379 0.950 . S
C1403 C1402 1.524 . S
C1403 C1404 1.415 . S
C1404 H1380 0.950 . S
C1404 C1399 1.363 . S
C1404 C1403 1.415 . S
C1405 H1381 0.951 . S
C1405 C1406 1.366 . S
C1405 C1407 1.388 . S
C1406 C1405 1.366 . S
C1406 C1410 1.385 . S
C1407 H1382 0.951 . S
C1407 C1405 1.388 . S
C1407 C1408 1.366 . S
C1408 C1407 1.366 . S
C1408 C1409 1.414 . S
C1408 C1411 1.499 . S
C1409 H1383 0.950 . S
C1409 C1408 1.414 . S
C1409 C1410 1.374 . S
C1410 H1384 0.950 . S
C1410 C1406 1.385 . S
C1410 C1409 1.374 . S
C1411 C1408 1.499 . S
C1411 C1412 1.373 . S
C1411 C1413 1.389 . S
C1412 H1385 0.950 . S
C1412 C1398 1.377 . S
C1412 C1411 1.373 . S
C1413 C1397 1.377 . S
C1413 C1411 1.389 . S
C1413 C1414 1.524 . S
C1414 C1413 1.524 . S
C1414 C1415 1.397 . S
C1414 C1419 1.363 . S
C1415 H1386 0.950 . S
C1415 C1414 1.397 . S
C1415 C1416 1.334 . S
C1416 H1387 0.950 . S
C1416 C1415 1.334 . S
C1416 C1417 1.287 . S
C1417 C1416 1.287 . S
C1417 C1418 1.524 . S
C1417 H1420 0.999 . S
C1418 H1388 0.950 . S
C1418 C1417 1.524 . S
C1418 C1419 1.415 . S
C1419 H1389 0.950 . S
C1419 C1414 1.363 . S
C1419 C1418 1.415 . S
H1420 C1417 0.999 . S
H1421 C1402 0.913 . S
H1422 C1440 0.951 . S
H1423 C1442 0.951 . S
H1424 C1444 0.950 . S
H1425 C1445 0.950 . S
H1426 C1447 0.950 . S
H1427 C1450 0.950 . S
H1428 C1451 0.950 . S
H1429 C1453 0.950 . S
H1430 C1454 0.950 . S
H1431 C1455 0.951 . S
H1432 C1457 0.951 . S
H1433 C1459 0.950 . S
H1434 C1460 0.950 . S
H1435 C1462 0.950 . S
H1436 C1465 0.950 . S
H1437 C1466 0.950 . S
H1438 C1468 0.950 . S
H1439 C1469 0.950 . S
C1440 H1422 0.951 . S
C1440 C1441 1.366 . S
C1440 C1442 1.388 . S
C1441 C1440 1.366 . S
C1441 C1445 1.385 . S
C1442 H1423 0.951 . S
C1442 C1440 1.388 . S
C1442 C1443 1.366 . S
C1443 C1442 1.366 . S
C1443 C1444 1.414 . S
C1443 C1446 1.499 . S
C1444 H1424 0.950 . S
C1444 C1443 1.414 . S
C1444 C1445 1.374 . S
C1445 H1425 0.950 . S
C1445 C1441 1.385 . S
C1445 C1444 1.374 . S
C1446 C1443 1.499 . S
C1446 C1447 1.373 . S
C1446 C1448 1.389 . S
C1447 H1426 0.950 . S
C1447 C1446 1.373 . S
C1447 C1463 1.377 . S
C1448 C1446 1.389 . S
C1448 C1449 1.524 . S
C1448 C1462 1.377 . S
C1449 C1448 1.524 . S
C1449 C1450 1.397 . S
C1449 C1454 1.363 . S
C1450 H1427 0.950 . S
C1450 C1449 1.397 . S
C1450 C1451 1.334 . S
C1451 H1428 0.950 . S
C1451 C1450 1.334 . S
C1451 C1452 1.287 . S
C1452 C1451 1.287 . S
C1452 C1453 1.524 . S
C1452 H1471 0.913 . S
C1453 H1429 0.950 . S
C1453 C1452 1.524 . S
C1453 C1454 1.415 . S
C1454 H1430 0.950 . S
C1454 C1449 1.363 . S
C1454 C1453 1.415 . S
C1455 H1431 0.951 . S
C1455 C1456 1.366 . S
C1455 C1457 1.388 . S
C1456 C1455 1.366 . S
C1456 C1460 1.385 . S
C1457 H1432 0.951 . S
C1457 C1455 1.388 . S
C1457 C1458 1.366 . S
C1458 C1457 1.366 . S
C1458 C1459 1.414 . S
C1458 C1461 1.499 . S
C1459 H1433 0.950 . S
C1459 C1458 1.414 . S
C1459 C1460 1.374 . S
C1460 H1434 0.950 . S
C1460 C1456 1.385 . S
C1460 C1459 1.374 . S
C1461 C1458 1.499 . S
C1461 C1462 1.373 . S
C1461 C1463 1.389 . S
C1462 H1435 0.950 . S
C1462 C1448 1.377 . S
C1462 C1461 1.373 . S
C1463 C1447 1.377 . S
C1463 C1461 1.389 . S
C1463 C1464 1.524 . S
C1464 C1463 1.524 . S
C1464 C1465 1.397 . S
C1464 C1469 1.363 . S
C1465 H1436 0.950 . S
C1465 C1464 1.397 . S
C1465 C1466 1.334 . S
C1466 H1437 0.950 . S
C1466 C1465 1.334 . S
C1466 C1467 1.287 . S
C1467 C1466 1.287 . S
C1467 C1468 1.524 . S
C1467 H1470 0.999 . S
C1468 H1438 0.950 . S
C1468 C1467 1.524 . S
C1468 C1469 1.415 . S
C1469 H1439 0.950 . S
C1469 C1464 1.363 . S
C1469 C1468 1.415 . S
H1470 C1467 0.999 . S
H1471 C1452 0.913 . S
H1472 C1490 0.951 . S
H1473 C1492 0.951 . S
H1474 C1494 0.950 . S
H1475 C1495 0.950 . S
H1476 C1497 0.950 . S
H1477 C1500 0.950 . S
H1478 C1501 0.950 . S
H1479 C1503 0.950 . S
H1480 C1504 0.950 . S
H1481 C1505 0.951 . S
H1482 C1507 0.951 . S
H1483 C1509 0.950 . S
H1484 C1510 0.950 . S
H1485 C1512 0.950 . S
H1486 C1515 0.950 . S
H1487 C1516 0.950 . S
H1488 C1518 0.950 . S
H1489 C1519 0.950 . S
C1490 H1472 0.951 . S
C1490 C1491 1.366 . S
C1490 C1492 1.388 . S
C1491 C1490 1.366 . S
C1491 C1495 1.385 . S
C1492 H1473 0.951 . S
C1492 C1490 1.388 . S
C1492 C1493 1.366 . S
C1493 C1492 1.366 . S
C1493 C1494 1.414 . S
C1493 C1496 1.499 . S
C1494 H1474 0.950 . S
C1494 C1493 1.414 . S
C1494 C1495 1.374 . S
C1495 H1475 0.950 . S
C1495 C1491 1.385 . S
C1495 C1494 1.374 . S
C1496 C1493 1.499 . S
C1496 C1497 1.373 . S
C1496 C1498 1.389 . S
C1497 H1476 0.950 . S
C1497 C1496 1.373 . S
C1497 C1513 1.377 . S
C1498 C1496 1.389 . S
C1498 C1499 1.524 . S
C1498 C1512 1.377 . S
C1499 C1498 1.524 . S
C1499 C1500 1.397 . S
C1499 C1504 1.363 . S
C1500 H1477 0.950 . S
C1500 C1499 1.397 . S
C1500 C1501 1.334 . S
C1501 H1478 0.950 . S
C1501 C1500 1.334 . S
C1501 C1502 1.287 . S
C1502 C1501 1.287 . S
C1502 C1503 1.524 . S
C1502 H1521 0.913 . S
C1503 H1479 0.950 . S
C1503 C1502 1.524 . S
C1503 C1504 1.415 . S
C1504 H1480 0.950 . S
C1504 C1499 1.363 . S
C1504 C1503 1.415 . S
C1505 H1481 0.951 . S
C1505 C1506 1.366 . S
C1505 C1507 1.388 . S
C1506 C1505 1.366 . S
C1506 C1510 1.385 . S
C1507 H1482 0.951 . S
C1507 C1505 1.388 . S
C1507 C1508 1.366 . S
C1508 C1507 1.366 . S
C1508 C1509 1.414 . S
C1508 C1511 1.499 . S
C1509 H1483 0.950 . S
C1509 C1508 1.414 . S
C1509 C1510 1.374 . S
C1510 H1484 0.950 . S
C1510 C1506 1.385 . S
C1510 C1509 1.374 . S
C1511 C1508 1.499 . S
C1511 C1512 1.373 . S
C1511 C1513 1.389 . S
C1512 H1485 0.950 . S
C1512 C1498 1.377 . S
C1512 C1511 1.373 . S
C1513 C1497 1.377 . S
C1513 C1511 1.389 . S
C1513 C1514 1.524 . S
C1514 C1513 1.524 . S
C1514 C1515 1.397 . S
C1514 C1519 1.363 . S
C1515 H1486 0.950 . S
C1515 C1514 1.397 . S
C1515 C1516 1.334 . S
C1516 H1487 0.950 . S
C1516 C1515 1.334 . S
C1516 C1517 1.287 . S
C1517 C1516 1.287 . S
C1517 C1518 1.524 . S
C1517 H1520 0.999 1_556 S
C1518 H1488 0.950 . S
C1518 C1517 1.524 . S
C1518 C1519 1.415 . S
C1519 H1489 0.950 . S
C1519 C1514 1.363 . S
C1519 C1518 1.415 . S
H1520 C1517 0.999 1_554 S
H1521 C1502 0.913 . S
H1522 C1540 0.951 . S
H1523 C1542 0.951 . S
H1524 C1544 0.950 . S
H1525 C1545 0.950 . S
H1526 C1547 0.950 . S
H1527 C1550 0.950 . S
H1528 C1551 0.950 . S
H1529 C1553 0.950 . S
H1530 C1554 0.950 . S
H1531 C1555 0.951 . S
H1532 C1557 0.951 . S
H1533 C1559 0.950 . S
H1534 C1560 0.950 . S
H1535 C1562 0.950 . S
H1536 C1565 0.950 . S
H1537 C1566 0.950 . S
H1538 C1568 0.950 . S
H1539 C1569 0.950 . S
C1540 H1522 0.951 . S
C1540 C1541 1.366 . S
C1540 C1542 1.388 . S
C1541 C1540 1.366 . S
C1541 C1545 1.385 . S
C1542 H1523 0.951 . S
C1542 C1540 1.388 . S
C1542 C1543 1.366 . S
C1543 C1542 1.366 . S
C1543 C1544 1.414 . S
C1543 C1546 1.499 . S
C1544 H1524 0.950 . S
C1544 C1543 1.414 . S
C1544 C1545 1.374 . S
C1545 H1525 0.950 . S
C1545 C1541 1.385 . S
C1545 C1544 1.374 . S
C1546 C1543 1.499 . S
C1546 C1547 1.373 . S
C1546 C1548 1.389 . S
C1547 H1526 0.950 . S
C1547 C1546 1.373 . S
C1547 C1563 1.377 . S
C1548 C1546 1.389 . S
C1548 C1549 1.524 . S
C1548 C1562 1.377 . S
C1549 C1548 1.524 . S
C1549 C1550 1.397 . S
C1549 C1554 1.363 . S
C1550 H1527 0.950 . S
C1550 C1549 1.397 . S
C1550 C1551 1.334 . S
C1551 H1528 0.950 . S
C1551 C1550 1.334 . S
C1551 C1552 1.287 . S
C1552 C1551 1.287 . S
C1552 C1553 1.524 . S
C1552 H1571 0.913 . S
C1553 H1529 0.950 . S
C1553 C1552 1.524 . S
C1553 C1554 1.415 . S
C1554 H1530 0.950 . S
C1554 C1549 1.363 . S
C1554 C1553 1.415 . S
C1555 H1531 0.951 . S
C1555 C1556 1.366 . S
C1555 C1557 1.388 . S
C1556 C1555 1.366 . S
C1556 C1560 1.385 . S
C1557 H1532 0.951 . S
C1557 C1555 1.388 . S
C1557 C1558 1.366 . S
C1558 C1557 1.366 . S
C1558 C1559 1.414 . S
C1558 C1561 1.499 . S
C1559 H1533 0.950 . S
C1559 C1558 1.414 . S
C1559 C1560 1.374 . S
C1560 H1534 0.950 . S
C1560 C1556 1.385 . S
C1560 C1559 1.374 . S
C1561 C1558 1.499 . S
C1561 C1562 1.373 . S
C1561 C1563 1.389 . S
C1562 H1535 0.950 . S
C1562 C1548 1.377 . S
C1562 C1561 1.373 . S
C1563 C1547 1.377 . S
C1563 C1561 1.389 . S
C1563 C1564 1.524 . S
C1564 C1563 1.524 . S
C1564 C1565 1.397 . S
C1564 C1569 1.363 . S
C1565 H1536 0.950 . S
C1565 C1564 1.397 . S
C1565 C1566 1.334 . S
C1566 H1537 0.950 . S
C1566 C1565 1.334 . S
C1566 C1567 1.287 . S
C1567 C1566 1.287 . S
C1567 C1568 1.524 . S
C1567 H1570 0.999 . S
C1568 H1538 0.950 . S
C1568 C1567 1.524 . S
C1568 C1569 1.415 . S
C1569 H1539 0.950 . S
C1569 C1564 1.363 . S
C1569 C1568 1.415 . S
H1570 C1567 0.999 . S
H1571 C1552 0.913 . S
H1572 C1590 0.951 . S
H1573 C1592 0.951 . S
H1574 C1594 0.950 . S
H1575 C1595 0.950 . S
H1576 C1597 0.950 . S
H1577 C1600 0.950 . S
H1578 C1601 0.950 . S
H1579 C1603 0.950 . S
H1580 C1604 0.950 . S
H1581 C1605 0.951 . S
H1582 C1607 0.951 . S
H1583 C1609 0.950 . S
H1584 C1610 0.950 . S
H1585 C1612 0.950 . S
H1586 C1615 0.950 . S
H1587 C1616 0.950 . S
H1588 C1618 0.950 . S
H1589 C1619 0.950 . S
C1590 H1572 0.951 . S
C1590 C1591 1.366 . S
C1590 C1592 1.388 . S
C1591 C1590 1.366 . S
C1591 C1595 1.385 . S
C1592 H1573 0.951 . S
C1592 C1590 1.388 . S
C1592 C1593 1.366 . S
C1593 C1592 1.366 . S
C1593 C1594 1.414 . S
C1593 C1596 1.499 . S
C1594 H1574 0.950 . S
C1594 C1593 1.414 . S
C1594 C1595 1.374 . S
C1595 H1575 0.950 . S
C1595 C1591 1.385 . S
C1595 C1594 1.374 . S
C1596 C1593 1.499 . S
C1596 C1597 1.373 . S
C1596 C1598 1.389 . S
C1597 H1576 0.950 . S
C1597 C1596 1.373 . S
C1597 C1613 1.377 . S
C1598 C1596 1.389 . S
C1598 C1599 1.524 . S
C1598 C1612 1.377 . S
C1599 C1598 1.524 . S
C1599 C1600 1.397 . S
C1599 C1604 1.363 . S
C1600 H1577 0.950 . S
C1600 C1599 1.397 . S
C1600 C1601 1.334 . S
C1601 H1578 0.950 . S
C1601 C1600 1.334 . S
C1601 C1602 1.287 . S
C1602 C1601 1.287 . S
C1602 C1603 1.524 . S
C1602 H1621 0.913 . S
C1603 H1579 0.950 . S
C1603 C1602 1.524 . S
C1603 C1604 1.415 . S
C1604 H1580 0.950 . S
C1604 C1599 1.363 . S
C1604 C1603 1.415 . S
C1605 H1581 0.951 . S
C1605 C1606 1.366 . S
C1605 C1607 1.388 . S
C1606 C1605 1.366 . S
C1606 C1610 1.385 . S
C1607 H1582 0.951 . S
C1607 C1605 1.388 . S
C1607 C1608 1.366 . S
C1608 C1607 1.366 . S
C1608 C1609 1.414 . S
C1608 C1611 1.499 . S
C1609 H1583 0.950 . S
C1609 C1608 1.414 . S
C1609 C1610 1.374 . S
C1610 H1584 0.950 . S
C1610 C1606 1.385 . S
C1610 C1609 1.374 . S
C1611 C1608 1.499 . S
C1611 C1612 1.373 . S
C1611 C1613 1.389 . S
C1612 H1585 0.950 . S
C1612 C1598 1.377 . S
C1612 C1611 1.373 . S
C1613 C1597 1.377 . S
C1613 C1611 1.389 . S
C1613 C1614 1.524 . S
C1614 C1613 1.524 . S
C1614 C1615 1.397 . S
C1614 C1619 1.363 . S
C1615 H1586 0.950 . S
C1615 C1614 1.397 . S
C1615 C1616 1.334 . S
C1616 H1587 0.950 . S
C1616 C1615 1.334 . S
C1616 C1617 1.287 . S
C1617 C1616 1.287 . S
C1617 C1618 1.524 . S
C1617 H1620 0.999 . S
C1618 H1588 0.950 . S
C1618 C1617 1.524 . S
C1618 C1619 1.415 . S
C1619 H1589 0.950 . S
C1619 C1614 1.363 . S
C1619 C1618 1.415 . S
H1620 C1617 0.999 . S
H1621 C1602 0.913 . S
H1622 C1640 0.951 . S
H1623 C1642 0.951 . S
H1624 C1644 0.950 . S
H1625 C1645 0.950 . S
H1626 C1647 0.950 . S
H1627 C1650 0.950 . S
H1628 C1651 0.950 . S
H1629 C1653 0.950 . S
H1630 C1654 0.950 . S
H1631 C1655 0.951 . S
H1632 C1657 0.951 . S
H1633 C1659 0.950 . S
H1634 C1660 0.950 . S
H1635 C1662 0.950 . S
H1636 C1665 0.950 . S
H1637 C1666 0.950 . S
H1638 C1668 0.950 . S
H1639 C1669 0.950 . S
C1640 H1622 0.951 . S
C1640 C1641 1.366 . S
C1640 C1642 1.388 . S
C1641 C1640 1.366 . S
C1641 C1645 1.385 . S
C1642 H1623 0.951 . S
C1642 C1640 1.388 . S
C1642 C1643 1.366 . S
C1643 C1642 1.366 . S
C1643 C1644 1.414 . S
C1643 C1646 1.499 . S
C1644 H1624 0.950 . S
C1644 C1643 1.414 . S
C1644 C1645 1.374 . S
C1645 H1625 0.950 . S
C1645 C1641 1.385 . S
C1645 C1644 1.374 . S
C1646 C1643 1.499 . S
C1646 C1647 1.373 . S
C1646 C1648 1.389 . S
C1647 H1626 0.950 . S
C1647 C1646 1.373 . S
C1647 C1663 1.377 . S
C1648 C1646 1.389 . S
C1648 C1649 1.524 . S
C1648 C1662 1.377 . S
C1649 C1648 1.524 . S
C1649 C1650 1.397 . S
C1649 C1654 1.363 . S
C1650 H1627 0.950 . S
C1650 C1649 1.397 . S
C1650 C1651 1.334 . S
C1651 H1628 0.950 . S
C1651 C1650 1.334 . S
C1651 C1652 1.287 . S
C1652 C1651 1.287 . S
C1652 C1653 1.524 . S
C1652 H1671 0.913 . S
C1653 H1629 0.950 . S
C1653 C1652 1.524 . S
C1653 C1654 1.415 . S
C1654 H1630 0.950 . S
C1654 C1649 1.363 . S
C1654 C1653 1.415 . S
C1655 H1631 0.951 . S
C1655 C1656 1.366 . S
C1655 C1657 1.388 . S
C1656 C1655 1.366 . S
C1656 C1660 1.385 . S
C1657 H1632 0.951 . S
C1657 C1655 1.388 . S
C1657 C1658 1.366 . S
C1658 C1657 1.366 . S
C1658 C1659 1.414 . S
C1658 C1661 1.499 . S
C1659 H1633 0.950 . S
C1659 C1658 1.414 . S
C1659 C1660 1.374 . S
C1660 H1634 0.950 . S
C1660 C1656 1.385 . S
C1660 C1659 1.374 . S
C1661 C1658 1.499 . S
C1661 C1662 1.373 . S
C1661 C1663 1.389 . S
C1662 H1635 0.950 . S
C1662 C1648 1.377 . S
C1662 C1661 1.373 . S
C1663 C1647 1.377 . S
C1663 C1661 1.389 . S
C1663 C1664 1.524 . S
C1664 C1663 1.524 . S
C1664 C1665 1.397 . S
C1664 C1669 1.363 . S
C1665 H1636 0.950 . S
C1665 C1664 1.397 . S
C1665 C1666 1.334 . S
C1666 H1637 0.950 . S
C1666 C1665 1.334 . S
C1666 C1667 1.287 . S
C1667 C1666 1.287 . S
C1667 C1668 1.524 . S
C1667 H1670 0.999 . S
C1668 H1638 0.950 . S
C1668 C1667 1.524 . S
C1668 C1669 1.415 . S
C1669 H1639 0.950 . S
C1669 C1664 1.363 . S
C1669 C1668 1.415 . S
H1670 C1667 0.999 . S
H1671 C1652 0.913 . S
C491 C1 0.931 . S
C506 C327 0.933 . S
C541 C40 1.600 . S
C556 C371 1.580 . S
C606 C401 2.016 . S
C591 C99 2.020 . S
C641 C118 2.802 . S
C656 C442 2.760 . S
C706 C358 0.712 . S
C691 C16 0.711 . S
C756 C322 2.635 . S
C741 C60 2.619 . S
C806 C450 1.102 . S
C791 C79 1.110 . S
C856 C411 2.121 . S
C841 C138 2.165 . S
C891 C21 0.692 . S
C906 C447 0.689 . S
C956 C361 1.987 . S
C941 C94 2.032 . S
C991 C133 2.127 . S
C1006 C330 2.073 . S
C1041 C55 1.884 . S
C1056 C398 1.896 . S
C1106 C318 0.937 . S
C1091 C157 0.937 . S
C1141 C196 1.595 . S
C1156 C362 1.582 . S
C1191 C255 2.026 . S
C1206 C410 2.016 . S
C1241 C289 2.796 . S
C1256 C451 2.756 . S
C1291 C172 0.710 . S
C1306 C367 0.709 . S
C1356 C331 2.636 . S
C1341 C216 2.606 . S
C1406 C441 1.103 . S
C1391 C235 1.112 . S
C1456 C402 2.117 . S
C1441 C294 2.171 . S
C1491 C177 0.686 . S
C1506 C438 0.687 . S
C1556 C370 1.988 . S
C1541 C250 2.032 . S
C1606 C321 2.077 . S
C1591 C274 2.133 . S
C1641 C211 1.885 . S
C1656 C407 1.894 . S
