# Generated by pormake.
# Topology apo, (3,6)-cn, num edge types: 1
# Building blocks:
#     Node 0, Type 0, BuildingBlock: BELTOD_clean_linker_0, # of connection points: 3
#     Node 1, Type 0, BuildingBlock: BELTOD_clean_linker_0, # of connection points: 3
#     Node 2, Type 0, BuildingBlock: BELTOD_clean_linker_0, # of connection points: 3
#     Node 3, Type 0, BuildingBlock: BELTOD_clean_linker_0, # of connection points: 3
#     Node 4, Type 0, BuildingBlock: BELTOD_clean_linker_0, # of connection points: 3
#     Node 5, Type 0, BuildingBlock: BELTOD_clean_linker_0, # of connection points: 3
#     Node 6, Type 0, BuildingBlock: BELTOD_clean_linker_0, # of connection points: 3
#     Node 7, Type 0, BuildingBlock: BELTOD_clean_linker_0, # of connection points: 3
#     Node 8, Type 1, BuildingBlock: KUMBUR_clean_sbu_1, # of connection points: 6
#     Node 9, Type 1, BuildingBlock: KUMBUR_clean_sbu_1, # of connection points: 6
#     Node 10, Type 1, BuildingBlock: KUMBUR_clean_sbu_1, # of connection points: 6
#     Node 11, Type 1, BuildingBlock: KUMBUR_clean_sbu_1, # of connection points: 6
#     Edge 12, Type (0, 1), BuildingBlock: XUDNAN_clean_linker_2, # of connection points: 2
#     Edge 13, Type (0, 1), BuildingBlock: XUDNAN_clean_linker_2, # of connection points: 2
#     Edge 14, Type (0, 1), BuildingBlock: XUDNAN_clean_linker_2, # of connection points: 2
#     Edge 15, Type (0, 1), BuildingBlock: XUDNAN_clean_linker_2, # of connection points: 2
#     Edge 16, Type (0, 1), BuildingBlock: XUDNAN_clean_linker_2, # of connection points: 2
#     Edge 17, Type (0, 1), BuildingBlock: XUDNAN_clean_linker_2, # of connection points: 2
#     Edge 18, Type (0, 1), BuildingBlock: XUDNAN_clean_linker_2, # of connection points: 2
#     Edge 19, Type (0, 1), BuildingBlock: XUDNAN_clean_linker_2, # of connection points: 2
#     Edge 20, Type (0, 1), BuildingBlock: XUDNAN_clean_linker_2, # of connection points: 2
#     Edge 21, Type (0, 1), BuildingBlock: XUDNAN_clean_linker_2, # of connection points: 2
#     Edge 22, Type (0, 1), BuildingBlock: XUDNAN_clean_linker_2, # of connection points: 2
#     Edge 23, Type (0, 1), BuildingBlock: XUDNAN_clean_linker_2, # of connection points: 2
#     Edge 24, Type (0, 1), BuildingBlock: XUDNAN_clean_linker_2, # of connection points: 2
#     Edge 25, Type (0, 1), BuildingBlock: XUDNAN_clean_linker_2, # of connection points: 2
#     Edge 26, Type (0, 1), BuildingBlock: XUDNAN_clean_linker_2, # of connection points: 2
#     Edge 27, Type (0, 1), BuildingBlock: XUDNAN_clean_linker_2, # of connection points: 2
#     Edge 28, Type (0, 1), BuildingBlock: XUDNAN_clean_linker_2, # of connection points: 2
#     Edge 29, Type (0, 1), BuildingBlock: XUDNAN_clean_linker_2, # of connection points: 2
#     Edge 30, Type (0, 1), BuildingBlock: XUDNAN_clean_linker_2, # of connection points: 2
#     Edge 31, Type (0, 1), BuildingBlock: XUDNAN_clean_linker_2, # of connection points: 2
#     Edge 32, Type (0, 1), BuildingBlock: XUDNAN_clean_linker_2, # of connection points: 2
#     Edge 33, Type (0, 1), BuildingBlock: XUDNAN_clean_linker_2, # of connection points: 2
#     Edge 34, Type (0, 1), BuildingBlock: XUDNAN_clean_linker_2, # of connection points: 2
#     Edge 35, Type (0, 1), BuildingBlock: XUDNAN_clean_linker_2, # of connection points: 2
# Relax obj value: 0.009
# Max RMSD: 0.111
# Mean RMSD: 0.081
data_MOF--net-apo--node1-KUMBUR_clean_sbu_1--node2-BELTOD_clean_linker_0--edge1-XUDNAN_clean_linker_2
_symmetry_space_group_name_H-M    P1
_symmetry_Int_Tables_number       1
_symmetry_cell_setting            triclinic
loop_
_symmetry_equiv_pos_as_xyz
'x, y, z'
_cell_length_a     27.51385
_cell_length_b     48.304759
_cell_length_c     60.058846
_cell_angle_alpha  89.626318
_cell_angle_beta   90.03845
_cell_angle_gamma 90.38415
loop_
_atom_site_label
_atom_site_type_symbol
_atom_site_fract_x
_atom_site_fract_y
_atom_site_fract_z
_atom_type_partial_charge
P0 P 0.32305 0.36381 0.40397 0.0
H1 H 0.33846 0.32368 0.43924 0.0
H2 H 0.35305 0.32928 0.47908 0.0
H3 H 0.31055 0.41504 0.474 0.0
H4 H 0.29657 0.40935 0.43407 0.0
H5 H 0.33041 0.32203 0.36984 0.0
H6 H 0.27052 0.29473 0.3496 0.0
H7 H 0.1555 0.33047 0.38852 0.0
H8 H 0.21637 0.35801 0.40931 0.0
H9 H 0.39996 0.40487 0.40285 0.0
H10 H 0.25376 0.39744 0.37741 0.0
O11 O 0.37696 0.34917 0.39958 0.0
H12 H 0.40949 0.44936 0.38351 0.0
H13 H 0.26313 0.44243 0.35834 0.0
C14 C 0.31731 0.36618 0.43369 0.0
C15 C 0.33092 0.34347 0.44684 0.0
C16 C 0.33927 0.34671 0.46961 0.0
C17 C 0.33403 0.37278 0.47956 0.0
C18 C 0.31608 0.39489 0.46666 0.0
C19 C 0.30772 0.3916 0.44386 0.0
C20 C 0.27791 0.34187 0.39123 0.0
C21 C 0.29254 0.3237 0.37448 0.0
C22 C 0.25835 0.30803 0.36292 0.0
C23 C 0.20873 0.31037 0.36773 0.0
C24 C 0.19378 0.32806 0.38486 0.0
C25 C 0.22835 0.34381 0.39659 0.0
C26 C 0.3266 0.39759 0.39116 0.0
C27 C 0.36986 0.41286 0.39317 0.0
C28 C 0.3753 0.43822 0.38221 0.0
C29 C 0.33716 0.44896 0.3694 0.0
C30 C 0.29295 0.43436 0.36815 0.0
C31 C 0.2877 0.4087 0.37897 0.0
P32 P 0.29502 0.10287 0.9138 0.0
H33 H 0.32301 0.06368 0.87961 0.0
H34 H 0.27649 0.03241 0.85556 0.0
H35 H 0.14309 0.06001 0.88552 0.0
H36 H 0.18969 0.0917 0.90947 0.0
H37 H 0.37779 0.14059 0.91764 0.0
H38 H 0.40594 0.17971 0.89464 0.0
H39 H 0.2757 0.17388 0.85497 0.0
H40 H 0.24737 0.13472 0.87801 0.0
H41 H 0.2724 0.06614 0.95039 0.0
H42 H 0.24683 0.1517 0.93338 0.0
O43 O 0.34667 0.08675 0.92024 0.0
H44 H 0.22557 0.07148 0.98459 0.0
H45 H 0.19975 0.15722 0.96785 0.0
C46 C 0.25992 0.07978 0.89648 0.0
C47 C 0.28382 0.0629 0.88117 0.0
C48 C 0.25732 0.04496 0.86754 0.0
C49 C 0.20645 0.04355 0.86905 0.0
C50 C 0.18239 0.06036 0.88445 0.0
C51 C 0.20898 0.07855 0.89798 0.0
C52 C 0.31098 0.13442 0.89923 0.0
C53 C 0.35481 0.14803 0.90427 0.0
C54 C 0.37075 0.17045 0.89127 0.0
C55 C 0.34275 0.17973 0.87322 0.0
C56 C 0.29759 0.16712 0.86896 0.0
C57 C 0.28161 0.14469 0.882 0.0
C58 C 0.26318 0.10851 0.93946 0.0
C59 C 0.25693 0.08615 0.95413 0.0
C60 C 0.22994 0.08918 0.97358 0.0
C61 C 0.20865 0.11469 0.97872 0.0
C62 C 0.21589 0.13736 0.96425 0.0
C63 C 0.24269 0.13421 0.94459 0.0
P64 P 0.8197 0.13488 0.60619 0.0
H65 H 0.87907 0.1698 0.57839 0.0
H66 H 0.8914 0.17319 0.53861 0.0
H67 H 0.78614 0.10773 0.52813 0.0
H68 H 0.77508 0.10369 0.56887 0.0
H69 H 0.82629 0.19299 0.61694 0.0
H70 H 0.77289 0.22349 0.63765 0.0
H71 H 0.65981 0.16125 0.63663 0.0
H72 H 0.71365 0.13049 0.61535 0.0
H73 H 0.86064 0.08233 0.59248 0.0
H74 H 0.7711 0.1128 0.64584 0.0
O75 O 0.87251 0.14565 0.6169 0.0
H76 H 0.87852 0.04093 0.61462 0.0
H77 H 0.78816 0.07139 0.66754 0.0
C78 C 0.82653 0.13637 0.57653 0.0
C79 C 0.85888 0.15591 0.56768 0.0
C80 C 0.86573 0.15792 0.54486 0.0
C81 C 0.83939 0.14091 0.53023 0.0
C82 C 0.80709 0.12098 0.53906 0.0
C83 C 0.80046 0.11883 0.56221 0.0
C84 C 0.77459 0.15908 0.61548 0.0
C85 C 0.78964 0.18604 0.6206 0.0
C86 C 0.75901 0.20357 0.63228 0.0
C87 C 0.71261 0.19453 0.63885 0.0
C88 C 0.69547 0.16863 0.63165 0.0
C89 C 0.7263 0.15102 0.61972 0.0
C90 C 0.81323 0.10041 0.61713 0.0
C91 C 0.84222 0.07937 0.60825 0.0
C92 C 0.85258 0.05575 0.6209 0.0
C93 C 0.83424 0.05311 0.64258 0.0
C94 C 0.80197 0.07295 0.65068 0.0
C95 C 0.79184 0.09656 0.63812 0.0
P96 P 0.79172 0.40041 0.09905 0.0
H97 H 0.81597 0.43621 0.13655 0.0
H98 H 0.76856 0.47037 0.15736 0.0
H99 H 0.64038 0.44751 0.1202 0.0
H100 H 0.68728 0.41305 0.09984 0.0
H101 H 0.87139 0.36108 0.09499 0.0
H102 H 0.89681 0.32195 0.11845 0.0
H103 H 0.76611 0.33018 0.15749 0.0
H104 H 0.74073 0.36906 0.13399 0.0
H105 H 0.78143 0.43684 0.06103 0.0
H106 H 0.73406 0.35469 0.0797 0.0
O107 O 0.84448 0.41658 0.0942 0.0
H108 H 0.73834 0.43289 0.02573 0.0
H109 H 0.68963 0.35068 0.04445 0.0
C110 C 0.75545 0.42267 0.11625 0.0
C111 C 0.7775 0.43826 0.13313 0.0
C112 C 0.75044 0.45759 0.14509 0.0
C113 C 0.70107 0.46157 0.14019 0.0
C114 C 0.67853 0.44487 0.12411 0.0
C115 C 0.70541 0.42532 0.1124 0.0
C116 C 0.80486 0.36836 0.11317 0.0
C117 C 0.84776 0.35407 0.10832 0.0
C118 C 0.86212 0.33165 0.12161 0.0
C119 C 0.83366 0.32337 0.1399 0.0
C120 C 0.78893 0.33645 0.14362 0.0
C121 C 0.77447 0.35868 0.13025 0.0
C122 C 0.76183 0.39584 0.07269 0.0
C123 C 0.76191 0.41784 0.05741 0.0
C124 C 0.73662 0.41569 0.03736 0.0
C125 C 0.71022 0.39152 0.03226 0.0
C126 C 0.70999 0.36948 0.04775 0.0
C127 C 0.73541 0.3717 0.06788 0.0
P128 P 0.77743 0.60983 0.59674 0.0
H129 H 0.81284 0.61275 0.55093 0.0
H130 H 0.77231 0.61971 0.5152 0.0
H131 H 0.63685 0.63444 0.54915 0.0
H132 H 0.6776 0.62677 0.58518 0.0
H133 H 0.86083 0.62082 0.62536 0.0
H134 H 0.88876 0.66159 0.64545 0.0
H135 H 0.75953 0.70526 0.62473 0.0
H136 H 0.73284 0.66454 0.60395 0.0
H137 H 0.72523 0.56065 0.58284 0.0
H138 H 0.75072 0.60386 0.64437 0.0
O139 O 0.82838 0.59304 0.59042 0.0
H140 H 0.68611 0.52284 0.60325 0.0
H141 H 0.71202 0.56572 0.66508 0.0
C142 C 0.74815 0.61892 0.57075 0.0
C143 C 0.77449 0.6176 0.55082 0.0
C144 C 0.75128 0.62152 0.53036 0.0
C145 C 0.70134 0.6273 0.52941 0.0
C146 C 0.67538 0.63 0.54943 0.0
C147 C 0.69859 0.62564 0.56998 0.0
C148 C 0.79518 0.63977 0.61278 0.0
C149 C 0.83853 0.6392 0.62508 0.0
C150 C 0.85431 0.66254 0.63678 0.0
C151 C 0.82671 0.68697 0.63667 0.0
C152 C 0.78238 0.6871 0.62484 0.0
C153 C 0.76678 0.66372 0.61303 0.0
C154 C 0.74043 0.58523 0.612 0.0
C155 C 0.72148 0.56227 0.60073 0.0
C156 C 0.69952 0.5405 0.61248 0.0
C157 C 0.69635 0.54106 0.63587 0.0
C158 C 0.71355 0.5647 0.64709 0.0
C159 C 0.73577 0.58652 0.63525 0.0
P160 P 0.8092 0.8689 0.10548 0.0
H161 H 0.87351 0.88075 0.14262 0.0
H162 H 0.88845 0.92171 0.16485 0.0
H163 H 0.78237 0.96694 0.12638 0.0
H164 H 0.76809 0.92538 0.10343 0.0
H165 H 0.77755 0.8119 0.09911 0.0
H166 H 0.71954 0.78309 0.11998 0.0
H167 H 0.66562 0.85592 0.15272 0.0
H168 H 0.72339 0.88464 0.13188 0.0
H169 H 0.88037 0.89976 0.08087 0.0
H170 H 0.74845 0.85471 0.06624 0.0
O171 O 0.8557 0.84773 0.11046 0.0
H172 H 0.89508 0.90664 0.04142 0.0
H173 H 0.7622 0.8623 0.0262 0.0
C174 C 0.81956 0.89994 0.12143 0.0
C175 C 0.85352 0.8994 0.13875 0.0
C176 C 0.86202 0.92288 0.1515 0.0
C177 C 0.83623 0.94742 0.14748 0.0
C178 C 0.80287 0.94831 0.12975 0.0
C179 C 0.79448 0.92459 0.11681 0.0
C180 C 0.75545 0.85033 0.11426 0.0
C181 C 0.75192 0.82181 0.11012 0.0
C182 C 0.71864 0.80536 0.12197 0.0
C183 C 0.6886 0.81731 0.1381 0.0
C184 C 0.68869 0.84625 0.14044 0.0
C185 C 0.72182 0.86268 0.12855 0.0
C186 C 0.81301 0.87715 0.07643 0.0
C187 C 0.85387 0.89193 0.06909 0.0
C188 C 0.8622 0.89588 0.04648 0.0
C189 C 0.82965 0.8852 0.03063 0.0
C190 C 0.78812 0.87061 0.03802 0.0
C191 C 0.77994 0.86651 0.06086 0.0
P192 P 0.28138 0.89555 0.41491 0.0
H193 H 0.30999 0.8948 0.46191 0.0
H194 H 0.26456 0.88731 0.4964 0.0
H195 H 0.13406 0.87226 0.45817 0.0
H196 H 0.17997 0.87959 0.42368 0.0
H197 H 0.35016 0.8885 0.3787 0.0
H198 H 0.37441 0.8485 0.35637 0.0
H199 H 0.27308 0.79702 0.39289 0.0
H200 H 0.24857 0.83708 0.41504 0.0
H201 H 0.26871 0.95562 0.41376 0.0
H202 H 0.21391 0.88461 0.37829 0.0
O203 O 0.33242 0.91244 0.42157 0.0
H204 H 0.22645 0.98641 0.38766 0.0
H205 H 0.17123 0.91505 0.35245 0.0
C206 C 0.24831 0.8879 0.44021 0.0
C207 C 0.27163 0.88984 0.46092 0.0
C208 C 0.24548 0.88579 0.48067 0.0
C209 C 0.19551 0.87946 0.48009 0.0
C210 C 0.17251 0.877 0.45923 0.0
C211 C 0.19868 0.88122 0.43949 0.0
C212 C 0.29845 0.86561 0.3989 0.0
C213 C 0.33306 0.8686 0.38186 0.0
C214 C 0.34646 0.84588 0.36892 0.0
C215 C 0.32548 0.81976 0.37288 0.0
C216 C 0.28984 0.81698 0.38957 0.0
C217 C 0.27611 0.83978 0.40235 0.0
C218 C 0.24568 0.91793 0.39747 0.0
C219 C 0.24731 0.94668 0.40044 0.0
C220 C 0.22286 0.96423 0.38564 0.0
C221 C 0.19631 0.95316 0.36772 0.0
C222 C 0.19243 0.92423 0.36573 0.0
C223 C 0.21677 0.90678 0.38052 0.0
P224 P 0.32497 0.63615 0.90411 0.0
H225 H 0.37623 0.6244 0.86335 0.0
H226 H 0.38475 0.58263 0.84117 0.0
H227 H 0.29363 0.53752 0.88753 0.0
H228 H 0.28486 0.5798 0.90987 0.0
H229 H 0.31351 0.69566 0.89933 0.0
H230 H 0.25248 0.72425 0.88066 0.0
H231 H 0.16836 0.65117 0.86541 0.0
H232 H 0.22966 0.62231 0.88424 0.0
H233 H 0.3816 0.59972 0.93199 0.0
H234 H 0.26035 0.65486 0.94015 0.0
O235 O 0.37661 0.65408 0.90103 0.0
H236 H 0.38537 0.5925 0.97224 0.0
H237 H 0.26411 0.64776 0.98063 0.0
C238 C 0.3306 0.605 0.88834 0.0
C239 C 0.35829 0.60555 0.86886 0.0
C240 C 0.36306 0.58174 0.85622 0.0
C241 C 0.33988 0.55703 0.86278 0.0
C242 C 0.31216 0.55634 0.88236 0.0
C243 C 0.3071 0.5804 0.895 0.0
C244 C 0.27643 0.65686 0.89293 0.0
C245 C 0.28189 0.68571 0.89212 0.0
C246 C 0.24725 0.702 0.88139 0.0
C247 C 0.20657 0.6897 0.87136 0.0
C248 C 0.20005 0.66091 0.87276 0.0
C249 C 0.2348 0.64454 0.88361 0.0
C250 C 0.32047 0.62763 0.93315 0.0
C251 C 0.35496 0.60971 0.94244 0.0
C252 C 0.35702 0.6055 0.96541 0.0
C253 C 0.32503 0.61954 0.97949 0.0
C254 C 0.28927 0.63676 0.97007 0.0
C255 C 0.28702 0.64079 0.947 0.0
Tb256 Tb 0.06594 0.13721 0.22919 0.0
C257 C 0.85591 0.11891 0.26734 0.0
N258 N 0.88352 0.14227 0.26594 0.0
C259 C 0.81517 0.16737 0.25159 0.0
C260 C 0.80726 0.11858 0.25999 0.0
C261 C 0.86333 0.16662 0.25901 0.0
C262 C 0.78718 0.14316 0.25178 0.0
C263 C 0.84907 0.07076 0.27851 0.0
C264 C 0.8767 0.09531 0.27636 0.0
C265 C 0.80103 0.07002 0.27054 0.0
C266 C 0.78018 0.09387 0.2613 0.0
Tb267 Tb 0.96213 0.13824 0.27781 0.0
N268 N 0.92373 0.09661 0.28335 0.0
C269 C 0.87031 0.04786 0.28894 0.0
C270 C 0.94348 0.0749 0.29478 0.0
C271 C 0.91739 0.05013 0.2975 0.0
H272 H 0.88365 0.18572 0.25966 0.0
H273 H 0.9336 0.03283 0.30623 0.0
H274 H 0.14274 0.09171 0.25337 0.0
H275 H 0.09797 0.24038 0.19823 0.0
H276 H 0.9789 0.07666 0.30217 0.0
H277 H 0.85033 0.0286 0.29093 0.0
H278 H 0.05225 0.19636 0.20278 0.0
H279 H 0.79955 0.18668 0.24593 0.0
H280 H 0.77945 0.05123 0.27178 0.0
H281 H 0.74288 0.09312 0.25552 0.0
H282 H 0.22085 0.09325 0.2727 0.0
H283 H 0.74986 0.1438 0.24603 0.0
H284 H 0.17741 0.24658 0.21703 0.0
N285 N 0.13938 0.1352 0.24749 0.0
C286 C 0.16659 0.15885 0.24642 0.0
C287 C 0.20544 0.11208 0.26595 0.0
C288 C 0.21312 0.16042 0.25623 0.0
C289 C 0.15982 0.11149 0.2557 0.0
C290 C 0.23183 0.1368 0.26663 0.0
N291 N 0.10444 0.17864 0.2246 0.0
C292 C 0.0866 0.19913 0.21122 0.0
C293 C 0.17642 0.20568 0.23202 0.0
C294 C 0.14899 0.18111 0.23421 0.0
C295 C 0.15744 0.22733 0.21913 0.0
C296 C 0.11254 0.22394 0.20851 0.0
H297 H 0.26754 0.13708 0.27425 0.0
H298 H 0.27593 0.1867 0.26212 0.0
H299 H 0.24354 0.22644 0.24113 0.0
O300 O 0.05928 0.13867 0.19345 0.0
O301 O 0.06142 0.17234 0.25173 0.0
O302 O 0.03747 0.15127 0.28365 0.0
O303 O 0.11945 0.11863 0.21053 0.0
O304 O 0.99655 0.15786 0.22142 0.0
O305 O 0.96852 0.17424 0.25561 0.0
O306 O 0.95379 0.13149 0.31197 0.0
O307 O 0.94333 0.11926 0.24548 0.0
O308 O 0.01438 0.10273 0.22974 0.0
O309 O 0.9352 0.1709 0.29748 0.0
O310 O 0.02734 0.11392 0.28438 0.0
O311 O 0.05839 0.10002 0.25033 0.0
C312 C 0.05769 0.17229 0.27341 0.0
C313 C 0.12451 0.11728 0.1708 0.0
C314 C 0.13205 0.11713 0.13043 0.0
C315 C 0.17632 0.10307 0.1324 0.0
C316 C 0.16891 0.10299 0.1723 0.0
C317 C 0.19448 0.09595 0.15322 0.0
C318 C 0.10578 0.1242 0.14966 0.0
C319 C 0.97185 0.1757 0.23363 0.0
C320 C 0.10013 0.12537 0.19163 0.0
C321 C 0.24025 0.1851 0.25457 0.0
C322 C 0.22191 0.20769 0.24253 0.0
C323 C 0.9669 0.10277 0.2319 0.0
C324 C 0.89397 0.15593 0.33053 0.0
C325 C 0.86342 0.15164 0.3684 0.0
C326 C 0.81576 0.15399 0.36034 0.0
C327 C 0.84617 0.1582 0.32261 0.0
C328 C 0.90239 0.15257 0.35345 0.0
C329 C 0.80724 0.1572 0.33753 0.0
C330 C 0.05087 0.0963 0.27186 0.0
C331 C 0.93602 0.15581 0.31557 0.0
H332 H 0.19663 0.09732 0.1177 0.0
H333 H 0.18432 0.09731 0.18827 0.0
H334 H 0.22854 0.08498 0.1546 0.0
H335 H 0.07162 0.13509 0.14815 0.0
H336 H 0.78533 0.15426 0.37178 0.0
H337 H 0.83889 0.1608 0.30505 0.0
H338 H 0.93932 0.1513 0.35972 0.0
H339 H 0.77041 0.15934 0.33145 0.0
Tb340 Tb 0.45364 0.36583 0.73503 0.0
C341 C 0.66867 0.39089 0.77207 0.0
N342 N 0.64556 0.36625 0.77491 0.0
C343 C 0.72046 0.34235 0.76869 0.0
C344 C 0.71851 0.39227 0.76672 0.0
C345 C 0.67087 0.34216 0.77379 0.0
C346 C 0.74432 0.36753 0.76487 0.0
C347 C 0.66468 0.4409 0.7723 0.0
C348 C 0.64209 0.41478 0.77475 0.0
C349 C 0.71402 0.4425 0.76637 0.0
C350 C 0.74092 0.41821 0.76362 0.0
Tb351 Tb 0.56376 0.3677 0.7812 0.0
N352 N 0.59421 0.41227 0.78014 0.0
C353 C 0.63726 0.46459 0.77635 0.0
C354 C 0.56878 0.43529 0.78595 0.0
C355 C 0.58938 0.46172 0.78367 0.0
H356 H 0.65339 0.32284 0.77788 0.0
H357 H 0.56854 0.47984 0.78796 0.0
H358 H 0.37277 0.41241 0.75028 0.0
H359 H 0.43602 0.25503 0.72193 0.0
H360 H 0.53342 0.43366 0.79317 0.0
H361 H 0.65319 0.48507 0.77468 0.0
H362 H 0.47728 0.29986 0.72068 0.0
H363 H 0.7403 0.3231 0.76795 0.0
H364 H 0.73191 0.46239 0.76425 0.0
H365 H 0.77911 0.41972 0.75936 0.0
H366 H 0.28934 0.41326 0.76516 0.0
H367 H 0.78274 0.36766 0.76092 0.0
H368 H 0.35158 0.25148 0.73574 0.0
N369 N 0.37475 0.36892 0.74692 0.0
C370 C 0.34877 0.34494 0.74779 0.0
C371 C 0.30572 0.39382 0.76053 0.0
C372 C 0.30038 0.34435 0.75554 0.0
C373 C 0.35347 0.39329 0.75257 0.0
C374 C 0.27909 0.3692 0.76216 0.0
N375 N 0.41861 0.32233 0.73459 0.0
C376 C 0.44117 0.29907 0.72713 0.0
C377 C 0.34595 0.29538 0.74216 0.0
C378 C 0.37136 0.32083 0.7413 0.0
C379 C 0.36978 0.27144 0.73533 0.0
C380 C 0.41744 0.27336 0.72759 0.0
H381 H 0.24206 0.36964 0.76827 0.0
H382 H 0.23775 0.31819 0.76238 0.0
H383 H 0.27762 0.27527 0.75057 0.0
O384 O 0.45303 0.35922 0.69996 0.0
O385 O 0.43901 0.34716 0.76814 0.0
O386 O 0.51522 0.33277 0.7762 0.0
O387 O 0.4166 0.39382 0.71491 0.0
O388 O 0.51936 0.34238 0.72572 0.0
O389 O 0.56564 0.33272 0.75782 0.0
O390 O 0.56536 0.37767 0.81557 0.0
O391 O 0.58267 0.38293 0.74777 0.0
O392 O 0.50852 0.39913 0.7371 0.0
O393 O 0.58854 0.33803 0.80394 0.0
O394 O 0.49408 0.38778 0.78932 0.0
O395 O 0.46719 0.40233 0.75511 0.0
C396 C 0.46874 0.332 0.7801 0.0
C397 C 0.39305 0.38371 0.67786 0.0
C398 C 0.38071 0.38664 0.63772 0.0
C399 C 0.33563 0.39922 0.64125 0.0
C400 C 0.34726 0.39595 0.68105 0.0
C401 C 0.31893 0.40372 0.6628 0.0
C402 C 0.40945 0.37886 0.65602 0.0
C403 C 0.55403 0.32884 0.73651 0.0
C404 C 0.4278 0.38158 0.6965 0.0
C405 C 0.27496 0.31907 0.7565 0.0
C406 C 0.29768 0.29463 0.74979 0.0
C407 C 0.55531 0.3966 0.73369 0.0
C408 C 0.6225 0.35286 0.83804 0.0
C409 C 0.64642 0.35624 0.87712 0.0
C410 C 0.69143 0.34435 0.87181 0.0
C411 C 0.66761 0.34074 0.8333 0.0
C412 C 0.61222 0.3608 0.86005 0.0
C413 C 0.70187 0.33674 0.85005 0.0
C414 C 0.46565 0.40334 0.7769 0.0
C415 C 0.58361 0.35383 0.82112 0.0
H416 H 0.31363 0.40588 0.62725 0.0
H417 H 0.33415 0.40062 0.6976 0.0
H418 H 0.28441 0.41382 0.66536 0.0
H419 H 0.44519 0.3702 0.65325 0.0
H420 H 0.71876 0.34101 0.88452 0.0
H421 H 0.67617 0.33352 0.81685 0.0
H422 H 0.57703 0.36945 0.86402 0.0
H423 H 0.73641 0.3273 0.84619 0.0
Tb424 Tb 0.06074 0.8636 0.73315 0.0
C425 C 0.845 0.85189 0.76375 0.0
N426 N 0.87342 0.87503 0.76427 0.0
C427 C 0.80759 0.90221 0.75001 0.0
C428 C 0.79683 0.85297 0.75579 0.0
C429 C 0.85519 0.90014 0.75801 0.0
C430 C 0.77835 0.87852 0.7488 0.0
C431 C 0.83664 0.80234 0.76992 0.0
C432 C 0.86466 0.82685 0.77084 0.0
C433 C 0.78866 0.80335 0.76197 0.0
C434 C 0.76879 0.82859 0.75497 0.0
Tb435 Tb 0.94995 0.86854 0.7777 0.0
N436 N 0.91161 0.82647 0.77809 0.0
C437 C 0.85776 0.7775 0.77695 0.0
C438 C 0.93169 0.80247 0.78566 0.0
C439 C 0.90538 0.77762 0.78498 0.0
H440 H 0.87685 0.91877 0.75942 0.0
H441 H 0.92175 0.7586 0.79082 0.0
H442 H 0.13913 0.81777 0.75478 0.0
H443 H 0.09523 0.96559 0.69996 0.0
H444 H 0.96748 0.80231 0.79254 0.0
H445 H 0.83752 0.7582 0.77643 0.0
H446 H 0.04954 0.92167 0.70485 0.0
H447 H 0.79339 0.9221 0.7449 0.0
H448 H 0.76661 0.78471 0.76115 0.0
H449 H 0.73172 0.82901 0.74888 0.0
H450 H 0.2182 0.81873 0.7737 0.0
H451 H 0.7415 0.88021 0.74257 0.0
H452 H 0.1739 0.97237 0.71933 0.0
N453 N 0.1357 0.86135 0.75003 0.0
C454 C 0.16261 0.88507 0.74934 0.0
C455 C 0.20246 0.83775 0.76749 0.0
C456 C 0.20942 0.88645 0.75887 0.0
C457 C 0.15655 0.83741 0.75749 0.0
C458 C 0.2286 0.86255 0.76865 0.0
N459 N 0.10027 0.90475 0.72781 0.0
C460 C 0.08329 0.92475 0.71369 0.0
C461 C 0.17242 0.93182 0.73494 0.0
C462 C 0.14478 0.90735 0.7374 0.0
C463 C 0.15381 0.9532 0.72164 0.0
C464 C 0.10936 0.94948 0.71071 0.0
H465 H 0.26453 0.86268 0.77605 0.0
H466 H 0.27225 0.91274 0.76477 0.0
H467 H 0.23959 0.95259 0.74395 0.0
O468 O 0.04844 0.86223 0.69778 0.0
O469 O 0.05552 0.90028 0.75434 0.0
O470 O 0.02243 0.88435 0.78696 0.0
O471 O 0.11349 0.84565 0.71325 0.0
O472 O 0.99276 0.88498 0.72349 0.0
O473 O 0.96094 0.90407 0.75597 0.0
O474 O 0.93133 0.85854 0.8106 0.0
O475 O 0.93869 0.84925 0.74489 0.0
O476 O 0.01139 0.82839 0.73746 0.0
O477 O 0.92136 0.90018 0.79768 0.0
O478 O 0.01675 0.84863 0.78817 0.0
O479 O 0.05596 0.82921 0.758 0.0
C480 C 0.04907 0.90234 0.77589 0.0
C481 C 0.11148 0.84197 0.67331 0.0
C482 C 0.11963 0.84533 0.63283 0.0
C483 C 0.16004 0.82781 0.63391 0.0
C484 C 0.15188 0.82424 0.67375 0.0
C485 C 0.17587 0.81728 0.65422 0.0
C486 C 0.095 0.85245 0.6526 0.0
C487 C 0.96819 0.90421 0.7343 0.0
C488 C 0.09065 0.85079 0.69486 0.0
C489 C 0.23641 0.91121 0.75736 0.0
C490 C 0.21792 0.93386 0.74543 0.0
C491 C 0.96428 0.83011 0.73492 0.0
C492 C 0.87769 0.88705 0.83053 0.0
C493 C 0.85176 0.88855 0.86918 0.0
C494 C 0.80484 0.89574 0.86219 0.0
C495 C 0.83076 0.89426 0.82361 0.0
C496 C 0.88797 0.88414 0.85331 0.0
C497 C 0.79442 0.89854 0.83948 0.0
C498 C 0.0448 0.82973 0.77947 0.0
C499 C 0.91803 0.88374 0.81496 0.0
H500 H 0.17926 0.82213 0.61889 0.0
H501 H 0.16556 0.81593 0.68931 0.0
H502 H 0.20706 0.80376 0.65484 0.0
H503 H 0.06416 0.86626 0.65188 0.0
H504 H 0.77676 0.89995 0.87432 0.0
H505 H 0.82242 0.8969 0.80611 0.0
H506 H 0.92456 0.87921 0.85873 0.0
H507 H 0.75835 0.90452 0.83421 0.0
Tb508 Tb 0.43824 0.64014 0.23304 0.0
C509 C 0.66009 0.64694 0.26603 0.0
N510 N 0.6296 0.62495 0.26363 0.0
C511 C 0.69522 0.59828 0.24867 0.0
C512 C 0.70893 0.64588 0.25901 0.0
C513 C 0.64732 0.60031 0.25627 0.0
C514 C 0.72599 0.62133 0.24969 0.0
C515 C 0.6739 0.69266 0.2812 0.0
C516 C 0.6431 0.66986 0.27701 0.0
C517 C 0.72199 0.69231 0.27339 0.0
C518 C 0.7395 0.66894 0.2623 0.0
Tb519 Tb 0.55185 0.63053 0.27658 0.0
N520 N 0.59633 0.66946 0.28409 0.0
C521 C 0.65553 0.7149 0.29336 0.0
C522 C 0.57892 0.69046 0.2969 0.0
C523 C 0.60792 0.71366 0.30143 0.0
H524 H 0.62522 0.58188 0.25704 0.0
H525 H 0.59359 0.73051 0.31117 0.0
H526 H 0.36027 0.68441 0.25499 0.0
H527 H 0.42673 0.53002 0.21593 0.0
H528 H 0.54262 0.6894 0.30353 0.0
H529 H 0.67794 0.73288 0.29687 0.0
H530 H 0.46611 0.57556 0.21579 0.0
H531 H 0.70869 0.57876 0.24253 0.0
H532 H 0.74616 0.70973 0.27621 0.0
H533 H 0.77703 0.66862 0.25686 0.0
H534 H 0.27591 0.68295 0.26884 0.0
H535 H 0.76329 0.61962 0.24412 0.0
H536 H 0.34266 0.52472 0.22987 0.0
N537 N 0.36212 0.64144 0.24753 0.0
C538 C 0.33682 0.61717 0.24654 0.0
C539 C 0.29276 0.66427 0.26278 0.0
C540 C 0.28849 0.61544 0.25419 0.0
C541 C 0.34077 0.66495 0.25518 0.0
C542 C 0.26652 0.63941 0.26234 0.0
N543 N 0.40725 0.59608 0.23147 0.0
C544 C 0.43057 0.57369 0.22289 0.0
C545 C 0.33557 0.56805 0.23815 0.0
C546 C 0.36016 0.59375 0.23846 0.0
C547 C 0.36022 0.54485 0.23028 0.0
C548 C 0.40778 0.54774 0.22252 0.0
H549 H 0.22934 0.63895 0.26827 0.0
H550 H 0.22659 0.58819 0.25938 0.0
H551 H 0.26784 0.54673 0.24549 0.0
O552 O 0.41482 0.63096 0.20039 0.0
O553 O 0.42716 0.62042 0.26556 0.0
O554 O 0.49892 0.59812 0.26892 0.0
O555 O 0.4011 0.67136 0.21532 0.0
O556 O 0.50508 0.622 0.21987 0.0
O557 O 0.54486 0.6007 0.24931 0.0
O558 O 0.54111 0.6315 0.31159 0.0
O559 O 0.55362 0.66801 0.25536 0.0
O560 O 0.50533 0.6618 0.22375 0.0
O561 O 0.58706 0.60132 0.29664 0.0
O562 O 0.48544 0.65175 0.28659 0.0
O563 O 0.44901 0.67461 0.25673 0.0
C564 C 0.45332 0.60075 0.27439 0.0
C565 C 0.37049 0.66424 0.17761 0.0
C566 C 0.35431 0.66009 0.13767 0.0
C567 C 0.31953 0.68121 0.13957 0.0
C568 C 0.33619 0.6855 0.17885 0.0
C569 C 0.31073 0.69379 0.15995 0.0
C570 C 0.37932 0.65135 0.15696 0.0
C571 C 0.53876 0.60539 0.22785 0.0
C572 C 0.39556 0.65532 0.19811 0.0
C573 C 0.2638 0.58992 0.25361 0.0
C574 C 0.28732 0.56629 0.24569 0.0
C575 C 0.5401 0.67451 0.23486 0.0
C576 C 0.61101 0.61706 0.3321 0.0
C577 C 0.63606 0.6212 0.37105 0.0
C578 C 0.68488 0.62019 0.36431 0.0
C579 C 0.66033 0.61665 0.32584 0.0
C580 C 0.599 0.61985 0.35483 0.0
C581 C 0.69684 0.61816 0.34186 0.0
C582 C 0.46109 0.67282 0.27809 0.0
C583 C 0.57268 0.61209 0.31521 0.0
H584 H 0.29852 0.68788 0.12528 0.0
H585 H 0.32845 0.69545 0.19456 0.0
H586 H 0.28384 0.70996 0.16112 0.0
H587 H 0.40602 0.63501 0.15585 0.0
H588 H 0.71392 0.62115 0.37649 0.0
H589 H 0.6709 0.61453 0.30858 0.0
H590 H 0.56122 0.62004 0.35993 0.0
H591 H 0.7346 0.61743 0.33688 0.0
H592 H 0.1472 0.0025 0.37294 0.0
H593 H 0.19983 0.94554 0.32289 0.0
H594 H 0.166 0.97522 0.29335 0.0
H595 H 0.03511 0.0206 0.34422 0.0
H596 H 0.03738 0.05642 0.35236 0.0
H597 H 0.06393 0.03027 0.37002 0.0
H598 H 0.14643 0.05649 0.36903 0.0
H599 H 0.11995 0.08275 0.3515 0.0
H600 H 0.17379 0.06491 0.34254 0.0
H601 H 0.12536 0.00987 0.26926 0.0
H602 H 0.08547 0.04989 0.2516 0.0
H603 H 0.06443 0.08663 0.31671 0.0
C604 C 0.15163 0.99633 0.35576 0.0
C605 C 0.17551 0.97144 0.35024 0.0
C606 C 0.18059 0.96411 0.32756 0.0
C607 C 0.16175 0.9809 0.31064 0.0
C608 C 0.13802 0.00506 0.31661 0.0
C609 C 0.13307 0.01295 0.33856 0.0
C610 C 0.10668 0.04033 0.34023 0.0
C611 C 0.05789 0.03667 0.35243 0.0
C612 C 0.13865 0.06242 0.35148 0.0
C613 C 0.09882 0.04679 0.31576 0.0
C614 C 0.11635 0.02588 0.3025 0.0
C615 C 0.11186 0.02656 0.27942 0.0
C616 C 0.08924 0.04941 0.26955 0.0
C617 C 0.07243 0.07162 0.2827 0.0
C618 C 0.07714 0.0701 0.30615 0.0
H619 H 0.37519 0.5052 0.8729 0.0
H620 H 0.31425 0.55516 0.81963 0.0
H621 H 0.33539 0.51927 0.7925 0.0
H622 H 0.47486 0.48184 0.84412 0.0
H623 H 0.47522 0.44684 0.85468 0.0
H624 H 0.44933 0.47405 0.87111 0.0
H625 H 0.36767 0.44727 0.87366 0.0
H626 H 0.39367 0.41961 0.85766 0.0
H627 H 0.33823 0.43579 0.84849 0.0
H628 H 0.37989 0.48564 0.77096 0.0
H629 H 0.42749 0.44796 0.75531 0.0
H630 H 0.45064 0.41413 0.82166 0.0
C631 C 0.36479 0.50793 0.85564 0.0
C632 C 0.34335 0.53283 0.84815 0.0
C633 C 0.33094 0.5362 0.82548 0.0
C634 C 0.3428 0.51599 0.81001 0.0
C635 C 0.36632 0.49236 0.81759 0.0
C636 C 0.37598 0.48764 0.83987 0.0
C637 C 0.40393 0.46084 0.84303 0.0
C638 C 0.45378 0.46623 0.85388 0.0
C639 C 0.37407 0.43962 0.85651 0.0
C640 C 0.40946 0.45191 0.81898 0.0
C641 C 0.38813 0.4708 0.80473 0.0
C642 C 0.39431 0.46973 0.78183 0.0
C643 C 0.42132 0.44809 0.77312 0.0
C644 C 0.43973 0.42684 0.78709 0.0
C645 C 0.43469 0.42919 0.81045 0.0
H646 H 0.6355 0.53831 0.67272 0.0
H647 H 0.71845 0.48719 0.62749 0.0
H648 H 0.69087 0.44539 0.64755 0.0
H649 H 0.65881 0.4966 0.72245 0.0
H650 H 0.59893 0.50156 0.73381 0.0
H651 H 0.62573 0.52776 0.7161 0.0
H652 H 0.55073 0.52522 0.69003 0.0
H653 H 0.52398 0.49894 0.70765 0.0
H654 H 0.53283 0.49236 0.67842 0.0
H655 H 0.65782 0.40918 0.67301 0.0
H656 H 0.61595 0.38013 0.70126 0.0
H657 H 0.55046 0.45338 0.72937 0.0
C658 C 0.64796 0.51831 0.66712 0.0
C659 C 0.67888 0.5161 0.64835 0.0
C660 C 0.69412 0.48949 0.64152 0.0
C661 C 0.67895 0.46558 0.65292 0.0
C662 C 0.64843 0.46844 0.67122 0.0
C663 C 0.63284 0.49405 0.67829 0.0
C664 C 0.59955 0.49104 0.69838 0.0
C665 C 0.62211 0.50508 0.7189 0.0
C666 C 0.54876 0.50257 0.69331 0.0
C667 C 0.59839 0.45973 0.70119 0.0
C668 C 0.62762 0.44723 0.68553 0.0
C669 C 0.63445 0.41866 0.68522 0.0
C670 C 0.61067 0.40234 0.70129 0.0
C671 C 0.57964 0.41452 0.7171 0.0
C672 C 0.57334 0.44359 0.71708 0.0
H673 H 0.8569 0.00281 0.13818 0.0
H674 H 0.83091 0.94445 0.1922 0.0
H675 H 0.85564 0.97962 0.21935 0.0
H676 H 0.96077 0.03338 0.1591 0.0
H677 H 0.94775 0.06871 0.15146 0.0
H678 H 0.92163 0.04073 0.13573 0.0
H679 H 0.83528 0.05965 0.14278 0.0
H680 H 0.86119 0.08799 0.1583 0.0
H681 H 0.81567 0.06597 0.17092 0.0
H682 H 0.89876 0.01554 0.23947 0.0
H683 H 0.94504 0.05562 0.25318 0.0
H684 H 0.93503 0.09526 0.1887 0.0
C685 C 0.85504 0.99787 0.15578 0.0
C686 C 0.84259 0.9708 0.16315 0.0
C687 C 0.84102 0.96491 0.18624 0.0
C688 C 0.85482 0.98476 0.20179 0.0
C689 C 0.86919 0.01073 0.19408 0.0
C690 C 0.86827 0.0178 0.17174 0.0
C691 C 0.88772 0.04714 0.16831 0.0
C692 C 0.9321 0.04749 0.15273 0.0
C693 C 0.84756 0.06632 0.15956 0.0
C694 C 0.90195 0.05457 0.19203 0.0
C695 C 0.89072 0.03309 0.20649 0.0
C696 C 0.90531 0.03317 0.22866 0.0
C697 C 0.93091 0.05615 0.23648 0.0
C698 C 0.94002 0.07917 0.22259 0.0
C699 C 0.92623 0.0783 0.19991 0.0
H700 H 0.82702 0.99623 0.64446 0.0
H701 H 0.89405 0.06749 0.67584 0.0
H702 H 0.93609 0.03678 0.7025 0.0
H703 H 0.80869 0.95777 0.6968 0.0
H704 H 0.8202 0.92456 0.68447 0.0
H705 H 0.7946 0.95206 0.66787 0.0
H706 H 0.86492 0.94732 0.63942 0.0
H707 H 0.89067 0.91985 0.65595 0.0
H708 H 0.92696 0.94988 0.64895 0.0
H709 H 0.96928 0.99942 0.72586 0.0
H710 H 0.99414 0.95621 0.74469 0.0
H711 H 0.9086 0.90826 0.69796 0.0
C712 C 0.8505 0.00515 0.65703 0.0
C713 C 0.85741 0.03402 0.65838 0.0
C714 C 0.88822 0.04532 0.67489 0.0
C715 C 0.91221 0.02811 0.69 0.0
C716 C 0.90462 0.99971 0.68841 0.0
C717 C 0.87444 0.98819 0.67248 0.0
C718 C 0.87239 0.95694 0.67484 0.0
C719 C 0.82092 0.94726 0.68138 0.0
C720 C 0.8898 0.94267 0.65352 0.0
C721 C 0.90776 0.95275 0.69389 0.0
C722 C 0.92506 0.97781 0.7017 0.0
C723 C 0.95639 0.97963 0.71982 0.0
C724 C 0.97038 0.9551 0.73034 0.0
C725 C 0.95398 0.92925 0.72233 0.0
C726 C 0.9224 0.92793 0.7039 0.0
H727 H 0.68026 0.4713 0.18432 0.0
H728 H 0.66249 0.50469 0.11766 0.0
H729 H 0.62067 0.54548 0.13299 0.0
H730 H 0.56148 0.49298 0.20416 0.0
H731 H 0.58273 0.5007 0.23184 0.0
H732 H 0.61241 0.47446 0.2157 0.0
H733 H 0.69474 0.49999 0.22095 0.0
H734 H 0.66515 0.5265 0.23686 0.0
H735 H 0.70033 0.53579 0.21261 0.0
H736 H 0.58462 0.58338 0.15538 0.0
H737 H 0.5488 0.61438 0.18326 0.0
H738 H 0.58081 0.55416 0.23515 0.0
C739 C 0.66743 0.48726 0.17306 0.0
C740 C 0.67455 0.4851 0.14985 0.0
C741 C 0.65709 0.50611 0.13548 0.0
C742 C 0.63356 0.52933 0.14404 0.0
C743 C 0.62719 0.53101 0.16698 0.0
C744 C 0.64282 0.51039 0.18132 0.0
C745 C 0.62942 0.51695 0.2052 0.0
C746 C 0.59442 0.49497 0.21478 0.0
C747 C 0.67514 0.51999 0.21976 0.0
C748 C 0.60432 0.54456 0.202 0.0
C749 C 0.6041 0.55241 0.17986 0.0
C750 C 0.58429 0.57741 0.17278 0.0
C751 C 0.56399 0.59486 0.18875 0.0
C752 C 0.56295 0.58711 0.21155 0.0
C753 C 0.58286 0.56137 0.2181 0.0
H754 H 0.39517 0.45608 0.33331 0.0
H755 H 0.29752 0.4996 0.37724 0.0
H756 H 0.31616 0.54367 0.35738 0.0
H757 H 0.48645 0.50661 0.32881 0.0
H758 H 0.49814 0.5015 0.2996 0.0
H759 H 0.47483 0.47336 0.31632 0.0
H760 H 0.4018 0.46767 0.28931 0.0
H761 H 0.42529 0.49567 0.27239 0.0
H762 H 0.36422 0.49716 0.28307 0.0
H763 H 0.34688 0.58282 0.33298 0.0
H764 H 0.38751 0.61431 0.30603 0.0
H765 H 0.46682 0.54509 0.27882 0.0
C766 C 0.37744 0.47492 0.33851 0.0
C767 C 0.34489 0.47475 0.35663 0.0
C768 C 0.32221 0.49955 0.3632 0.0
C769 C 0.33268 0.52455 0.35207 0.0
C770 C 0.36539 0.52412 0.33432 0.0
C771 C 0.38705 0.4999 0.32744 0.0
C772 C 0.421 0.50501 0.30799 0.0
C773 C 0.4732 0.4961 0.31353 0.0
C774 C 0.40195 0.49051 0.28695 0.0
C775 C 0.41707 0.5361 0.30572 0.0
C776 C 0.38397 0.54667 0.32071 0.0
C777 C 0.37292 0.57477 0.32122 0.0
C778 C 0.39614 0.59245 0.30593 0.0
C779 C 0.43066 0.58202 0.29073 0.0
C780 C 0.44133 0.55355 0.29067 0.0
H781 H 0.15163 0.99611 0.87638 0.0
H782 H 0.20099 0.05312 0.825 0.0
H783 H 0.16065 0.0246 0.79639 0.0
H784 H 0.17127 0.93478 0.84586 0.0
H785 H 0.1181 0.91647 0.85572 0.0
H786 H 0.14602 0.94265 0.87277 0.0
H787 H 0.06407 0.9685 0.87508 0.0
H788 H 0.03586 0.94234 0.85803 0.0
H789 H 0.03312 0.97823 0.84979 0.0
H790 H 0.11843 0.99036 0.77345 0.0
H791 H 0.07965 0.95014 0.75632 0.0
H792 H 0.06091 0.91182 0.82132 0.0
C793 C 0.153 0.00267 0.85911 0.0
C794 C 0.17891 0.02688 0.85273 0.0
C795 C 0.18102 0.03472 0.83006 0.0
C796 C 0.15815 0.01871 0.81377 0.0
C797 C 0.13345 0.99481 0.82042 0.0
C798 C 0.13064 0.98663 0.84247 0.0
C799 C 0.10413 0.95894 0.84461 0.0
C800 C 0.13686 0.93691 0.85537 0.0
C801 C 0.05647 0.9622 0.85765 0.0
C802 C 0.09412 0.95258 0.82025 0.0
C803 C 0.11059 0.97395 0.80679 0.0
C804 C 0.10577 0.97336 0.78379 0.0
C805 C 0.0842 0.95012 0.77415 0.0
C806 C 0.06869 0.92727 0.78726 0.0
C807 C 0.07288 0.92879 0.81076 0.0
H808 H 0.2142 0.15401 0.01141 0.0
H809 H 0.13594 0.07989 0.9919 0.0
H810 H 0.09076 0.08036 0.02732 0.0
H811 H 0.23559 0.13525 0.06459 0.0
H812 H 0.22765 0.16884 0.07696 0.0
H813 H 0.24499 0.16631 0.04827 0.0
H814 H 0.17055 0.19616 0.0373 0.0
H815 H 0.15247 0.19812 0.06612 0.0
H816 H 0.11045 0.1852 0.04558 0.0
H817 H 0.06416 0.08396 0.06626 0.0
H818 H 0.06711 0.08669 0.10726 0.0
H819 H 0.16291 0.15779 0.10258 0.0
C820 C 0.18624 0.13854 0.01434 0.0
C821 C 0.17808 0.11709 0.9989 0.0
C822 C 0.14253 0.09655 0.00353 0.0
C823 C 0.11629 0.09684 0.02348 0.0
C824 C 0.12569 0.11794 0.03861 0.0
C825 C 0.15993 0.13842 0.03434 0.0
C826 C 0.1683 0.15621 0.0547 0.0
C827 C 0.22231 0.15663 0.06153 0.0
C828 C 0.14931 0.18567 0.05068 0.0
C829 C 0.13691 0.14094 0.07157 0.0
C830 C 0.11076 0.11978 0.06166 0.0
C831 C 0.08328 0.10091 0.07415 0.0
C832 C 0.08478 0.1027 0.09741 0.0
C833 C 0.11421 0.12286 0.10782 0.0
C834 C 0.13874 0.14293 0.0948 0.0
H835 H 0.32034 0.33976 0.51654 0.0
H836 H 0.38872 0.41631 0.49441 0.0
H837 H 0.4218 0.42349 0.53214 0.0
H838 H 0.28264 0.3634 0.56842 0.0
H839 H 0.29376 0.33122 0.58286 0.0
H840 H 0.28046 0.33108 0.55358 0.0
H841 H 0.36064 0.3044 0.54674 0.0
H842 H 0.37488 0.30538 0.57604 0.0
H843 H 0.41752 0.31908 0.55598 0.0
H844 H 0.44249 0.42418 0.57265 0.0
H845 H 0.43771 0.42198 0.6138 0.0
H846 H 0.35628 0.34527 0.60968 0.0
C847 C 0.34284 0.35782 0.51958 0.0
C848 C 0.35198 0.37746 0.50254 0.0
C849 C 0.38079 0.40113 0.50727 0.0
C850 C 0.40039 0.40517 0.52856 0.0
C851 C 0.39114 0.38528 0.54493 0.0
C852 C 0.36256 0.36223 0.54076 0.0
C853 C 0.35415 0.34539 0.56176 0.0
C854 C 0.29952 0.34264 0.56695 0.0
C855 C 0.37824 0.31687 0.56002 0.0
C856 C 0.38014 0.36337 0.57861 0.0
C857 C 0.40271 0.3858 0.56846 0.0
C858 C 0.42565 0.40651 0.58077 0.0
C859 C 0.42307 0.40504 0.60408 0.0
C860 C 0.39735 0.38321 0.61464 0.0
C861 C 0.37729 0.36166 0.60183 0.0
H862 H 0.70502 0.3464 0.00486 0.0
H863 H 0.65834 0.43172 0.01025 0.0
H864 H 0.62459 0.42959 0.97222 0.0
H865 H 0.74524 0.34934 0.95156 0.0
H866 H 0.72431 0.31544 0.94343 0.0
H867 H 0.73751 0.32233 0.97215 0.0
H868 H 0.65041 0.30647 0.98302 0.0
H869 H 0.63687 0.29963 0.95419 0.0
H870 H 0.59875 0.32255 0.96991 0.0
H871 H 0.60655 0.42026 0.93191 0.0
H872 H 0.60838 0.40475 0.89272 0.0
H873 H 0.66337 0.32507 0.9143 0.0
C874 C 0.68622 0.36434 0.99838 0.0
C875 C 0.68444 0.38922 0.01057 0.0
C876 C 0.66069 0.4125 1.00115 0.0
C877 C 0.6409 0.41141 0.97964 0.0
C878 C 0.64439 0.38676 0.96786 0.0
C879 C 0.66605 0.36355 0.977 0.0
C880 C 0.6692 0.34042 0.96022 0.0
C881 C 0.7222 0.33139 0.95663 0.0
C882 C 0.63688 0.31581 0.96726 0.0
C883 C 0.64888 0.35483 0.93984 0.0
C884 C 0.63359 0.38131 0.94466 0.0
C885 C 0.61747 0.39937 0.92802 0.0
C886 C 0.61852 0.39039 0.90582 0.0
C887 C 0.63623 0.3638 0.90054 0.0
C888 C 0.6498 0.34556 0.91789 0.0
H889 H 0.85028 0.10286 0.49592 0.0
H890 H 0.83773 0.19071 0.50972 0.0
H891 H 0.85559 0.2016 0.47071 0.0
H892 H 0.94663 0.1096 0.45342 0.0
H893 H 0.92164 0.08328 0.43554 0.0
H894 H 0.91237 0.08118 0.46522 0.0
H895 H 0.8192 0.07899 0.45962 0.0
H896 H 0.82834 0.08024 0.42997 0.0
H897 H 0.7898 0.10536 0.44313 0.0
H898 H 0.87534 0.20427 0.43174 0.0
H899 H 0.8762 0.19839 0.39105 0.0
H900 H 0.86895 0.10925 0.39956 0.0
C901 C 0.85119 0.12432 0.4906 0.0
C902 C 0.84418 0.14604 0.506 0.0
C903 C 0.84473 0.17383 0.4984 0.0
C904 C 0.85502 0.18026 0.47629 0.0
C905 C 0.86393 0.15868 0.46175 0.0
C906 C 0.86083 0.13122 0.46824 0.0
C907 C 0.8678 0.11234 0.44832 0.0
C908 C 0.9149 0.09561 0.45077 0.0
C909 C 0.82362 0.09312 0.44507 0.0
C910 C 0.87219 0.13371 0.42965 0.0
C911 C 0.87216 0.16021 0.43817 0.0
C912 C 0.8752 0.1837 0.42472 0.0
C913 C 0.87571 0.18021 0.40171 0.0
C914 C 0.87227 0.15353 0.39247 0.0
C915 C 0.87178 0.12985 0.40648 0.0
H916 H 0.81789 0.84772 0.99643 0.0
H917 H 0.86475 0.93189 0.0104 0.0
H918 H 0.88867 0.93808 0.97128 0.0
H919 H 0.91193 0.83369 0.9537 0.0
H920 H 0.87094 0.81407 0.93639 0.0
H921 H 0.8628 0.81426 0.96619 0.0
H922 H 0.77429 0.83137 0.96155 0.0
H923 H 0.78176 0.83035 0.93183 0.0
H924 H 0.76277 0.86193 0.94499 0.0
H925 H 0.90419 0.9366 0.9311 0.0
H926 H 0.89622 0.93049 0.89045 0.0
H927 H 0.83416 0.84881 0.90108 0.0
C928 C 0.83313 0.86744 0.99123 0.0
C929 C 0.84032 0.88916 0.00661 0.0
C930 C 0.86018 0.91469 0.9991 0.0
C931 C 0.87405 0.9184 0.97691 0.0
C932 C 0.86761 0.89646 0.96232 0.0
C933 C 0.84688 0.87162 0.96899 0.0
C934 C 0.84002 0.8524 0.94934 0.0
C935 C 0.87341 0.82711 0.95153 0.0
C936 C 0.78652 0.84352 0.94678 0.0
C937 C 0.85645 0.87126 0.93045 0.0
C938 C 0.87442 0.89604 0.93853 0.0
C939 C 0.89035 0.9173 0.92451 0.0
C940 C 0.88566 0.91371 0.90153 0.0
C941 C 0.86429 0.88937 0.89296 0.0
C942 C 0.85072 0.86755 0.90746 0.0
H943 H 0.70487 0.58993 0.49579 0.0
H944 H 0.64299 0.66901 0.51342 0.0
H945 H 0.60833 0.67339 0.47537 0.0
H946 H 0.7424 0.60674 0.44281 0.0
H947 H 0.72728 0.57375 0.43066 0.0
H948 H 0.74122 0.57584 0.45983 0.0
H949 H 0.65834 0.55263 0.46916 0.0
H950 H 0.64391 0.55077 0.43992 0.0
H951 H 0.60303 0.56778 0.45877 0.0
H952 H 0.58891 0.67108 0.43362 0.0
H953 H 0.58909 0.66293 0.39283 0.0
H954 H 0.66268 0.58506 0.4035 0.0
C955 C 0.68342 0.60799 0.49171 0.0
C956 C 0.67663 0.62917 0.50745 0.0
C957 C 0.64825 0.65247 0.5016 0.0
C958 C 0.62843 0.65507 0.48006 0.0
C959 C 0.63652 0.63392 0.46476 0.0
C960 C 0.66299 0.61069 0.47049 0.0
C961 C 0.6691 0.59156 0.45087 0.0
C962 C 0.7232 0.58672 0.44574 0.0
C963 C 0.64198 0.56406 0.45493 0.0
C964 C 0.64469 0.60837 0.43278 0.0
C965 C 0.62498 0.63246 0.4411 0.0
C966 C 0.60344 0.65204 0.42705 0.0
C967 C 0.60344 0.64723 0.40394 0.0
C968 C 0.62545 0.62327 0.39518 0.0
C969 C 0.64501 0.60335 0.40988 0.0
H970 H 0.33299 0.66361 0.00689 0.0
H971 H 0.33669 0.57396 0.00669 0.0
H972 H 0.35378 0.57385 0.04732 0.0
H973 H 0.43081 0.67287 0.04634 0.0
H974 H 0.40306 0.70249 0.05913 0.0
H975 H 0.3919 0.69519 0.03019 0.0
H976 H 0.29883 0.69424 0.03714 0.0
H977 H 0.3095 0.70226 0.06593 0.0
H978 H 0.27446 0.67198 0.05867 0.0
H979 H 0.3647 0.5846 0.0891 0.0
H980 H 0.36564 0.6048 0.12699 0.0
H981 H 0.36147 0.68715 0.09791 0.0
C982 C 0.33697 0.64394 0.01544 0.0
C983 C 0.33286 0.6188 0.00385 0.0
C984 C 0.33947 0.59345 0.01543 0.0
C985 C 0.34937 0.59323 0.03843 0.0
C986 C 0.35345 0.61855 0.04938 0.0
C987 C 0.34761 0.64338 0.03813 0.0
C988 C 0.35302 0.66782 0.05343 0.0
C989 C 0.39734 0.68564 0.04688 0.0
C990 C 0.30617 0.68508 0.05381 0.0
C991 C 0.36117 0.65302 0.07531 0.0
C992 C 0.36166 0.6246 0.07279 0.0
C993 C 0.36493 0.60684 0.09118 0.0
C994 C 0.36572 0.61848 0.11264 0.0
C995 C 0.36305 0.64757 0.11543 0.0
C996 C 0.3629 0.66484 0.09639 0.0
H997 H 0.20101 0.9091 0.51914 0.0
H998 H 0.12856 0.83869 0.48892 0.0
H999 H 0.08635 0.82889 0.52433 0.0
H1000 H 0.22712 0.87939 0.56941 0.0
H1001 H 0.21533 0.90943 0.5862 0.0
H1002 H 0.23261 0.91368 0.55756 0.0
H1003 H 0.15479 0.94242 0.55055 0.0
H1004 H 0.13688 0.93771 0.57923 0.0
H1005 H 0.09619 0.92766 0.55715 0.0
H1006 H 0.06052 0.82283 0.5637 0.0
H1007 H 0.0605 0.81791 0.60464 0.0
H1008 H 0.15041 0.89133 0.61015 0.0
C1009 C 0.17571 0.89186 0.5199 0.0
C1010 C 0.16781 0.87479 0.50114 0.0
C1011 C 0.13449 0.8524 0.50286 0.0
C1012 C 0.11024 0.8467 0.52294 0.0
C1013 C 0.11904 0.86379 0.54114 0.0
C1014 C 0.15096 0.88596 0.53982 0.0
C1015 C 0.15742 0.89947 0.56239 0.0
C1016 C 0.21131 0.90051 0.56929 0.0
C1017 C 0.135 0.92854 0.56232 0.0
C1018 C 0.12796 0.87979 0.57697 0.0
C1019 C 0.10429 0.86014 0.56418 0.0
C1020 C 0.07789 0.83845 0.57385 0.0
C1021 C 0.07766 0.83592 0.59712 0.0
C1022 C 0.10423 0.85468 0.61045 0.0
C1023 C 0.12826 0.87742 0.60029 0.0
H1024 H 0.15105 0.2643 0.37547 0.0
H1025 H 0.1912 0.32532 0.32547 0.0
H1026 H 0.14685 0.2988 0.29696 0.0
H1027 H 0.16766 0.20669 0.34494 0.0
H1028 H 0.11543 0.18692 0.35404 0.0
H1029 H 0.14089 0.21308 0.37182 0.0
H1030 H 0.05743 0.23733 0.37402 0.0
H1031 H 0.03143 0.21099 0.35639 0.0
H1032 H 0.0265 0.24697 0.34871 0.0
H1033 H 0.10941 0.26399 0.27332 0.0
H1034 H 0.07948 0.22227 0.255 0.0
H1035 H 0.06462 0.18099 0.31911 0.0
C1036 C 0.14856 0.27247 0.35868 0.0
C1037 C 0.17362 0.29702 0.35257 0.0
C1038 C 0.17138 0.30681 0.33039 0.0
C1039 C 0.14629 0.2919 0.31414 0.0
C1040 C 0.1232 0.26733 0.32039 0.0
C1041 C 0.1233 0.25773 0.34213 0.0
C1042 C 0.09896 0.22938 0.34365 0.0
C1043 C 0.1328 0.20775 0.35422 0.0
C1044 C 0.05073 0.23127 0.35646 0.0
C1045 C 0.08967 0.22358 0.31916 0.0
C1046 C 0.10239 0.24631 0.30628 0.0
C1047 C 0.09893 0.24613 0.28322 0.0
C1048 C 0.08248 0.22205 0.27292 0.0
C1049 C 0.07083 0.19797 0.28548 0.0
C1050 C 0.07348 0.19898 0.30902 0.0
H1051 H 0.34247 0.23687 0.87397 0.0
H1052 H 0.39093 0.16629 0.83597 0.0
H1053 H 0.42757 0.19777 0.80791 0.0
H1054 H 0.31027 0.28027 0.82752 0.0
H1055 H 0.33246 0.31193 0.83972 0.0
H1056 H 0.3113 0.28407 0.85737 0.0
H1057 H 0.3939 0.28395 0.87814 0.0
H1058 H 0.4152 0.3119 0.8606 0.0
H1059 H 0.44929 0.28025 0.86247 0.0
H1060 H 0.46123 0.23617 0.78495 0.0
H1061 H 0.48714 0.27988 0.76698 0.0
H1062 H 0.41193 0.32661 0.81759 0.0
C1063 C 0.36079 0.22825 0.85968 0.0
C1064 C 0.36396 0.19929 0.85689 0.0
C1065 C 0.38821 0.18848 0.83817 0.0
C1066 C 0.40911 0.20616 0.82224 0.0
C1067 C 0.40522 0.23462 0.82527 0.0
C1068 C 0.38167 0.24572 0.84345 0.0
C1069 C 0.38275 0.27717 0.84245 0.0
C1070 C 0.3311 0.28905 0.84172 0.0
C1071 C 0.41202 0.28901 0.86208 0.0
C1072 C 0.40921 0.28191 0.82055 0.0
C1073 C 0.42265 0.257 0.81124 0.0
C1074 C 0.45011 0.25578 0.79182 0.0
C1075 C 0.46429 0.28067 0.78164 0.0
C1076 C 0.44978 0.30642 0.79044 0.0
C1077 C 0.42189 0.30709 0.81015 0.0
H1078 H 0.62659 0.22441 0.63744 0.0
H1079 H 0.74512 0.19924 0.68054 0.0
H1080 H 0.71365 0.22876 0.71038 0.0
H1081 H 0.62302 0.29342 0.65136 0.0
H1082 H 0.55793 0.29742 0.65246 0.0
H1083 H 0.584 0.27106 0.63523 0.0
H1084 H 0.5323 0.23353 0.6553 0.0
H1085 H 0.50555 0.25991 0.67244 0.0
H1086 H 0.53498 0.23063 0.6852 0.0
H1087 H 0.67288 0.26077 0.7348 0.0
H1088 H 0.62579 0.29616 0.75316 0.0
H1089 H 0.53888 0.30783 0.69357 0.0
C1090 C 0.64491 0.22475 0.65339 0.0
C1091 C 0.68812 0.20959 0.65689 0.0
C1092 C 0.71187 0.21067 0.67773 0.0
C1093 C 0.69423 0.22728 0.69476 0.0
C1094 C 0.65253 0.2426 0.69073 0.0
C1095 C 0.62766 0.24147 0.67076 0.0
C1096 C 0.5851 0.26151 0.6709 0.0
C1097 C 0.58774 0.28209 0.65132 0.0
C1098 C 0.53662 0.24544 0.67095 0.0
C1099 C 0.5931 0.27567 0.69318 0.0
C1100 C 0.63084 0.26332 0.70456 0.0
C1101 C 0.64377 0.27101 0.72594 0.0
C1102 C 0.61733 0.29184 0.73614 0.0
C1103 C 0.57999 0.30618 0.72476 0.0
C1104 C 0.56773 0.29782 0.70279 0.0
H1105 H 0.87003 0.27065 0.13382 0.0
H1106 H 0.84219 0.3328 0.18398 0.0
H1107 H 0.87607 0.30204 0.21287 0.0
H1108 H 0.83734 0.21198 0.16879 0.0
H1109 H 0.88342 0.18953 0.1578 0.0
H1110 H 0.85833 0.21657 0.14057 0.0
H1111 H 0.94489 0.23619 0.13346 0.0
H1112 H 0.97016 0.20917 0.15065 0.0
H1113 H 0.98306 0.24494 0.15684 0.0
H1114 H 0.91303 0.26576 0.23613 0.0
H1115 H 0.94837 0.22435 0.25342 0.0
H1116 H 0.95047 0.18376 0.18906 0.0
C1117 C 0.87121 0.27765 0.1509 0.0
C1118 C 0.85323 0.30398 0.15679 0.0
C1119 C 0.85515 0.31254 0.17926 0.0
C1120 C 0.87459 0.29531 0.19573 0.0
C1121 C 0.89168 0.26946 0.18951 0.0
C1122 C 0.89 0.26045 0.16772 0.0
C1123 C 0.90954 0.2312 0.16592 0.0
C1124 C 0.86978 0.21113 0.15779 0.0
C1125 C 0.95459 0.23035 0.15082 0.0
C1126 C 0.92282 0.22546 0.19004 0.0
C1127 C 0.91226 0.24793 0.20325 0.0
C1128 C 0.9212 0.24792 0.22603 0.0
C1129 C 0.94114 0.2242 0.23569 0.0
C1130 C 0.95166 0.20062 0.22266 0.0
C1131 C 0.9427 0.20141 0.19947 0.0
H1132 H 0.87683 0.69022 0.67663 0.0
H1133 H 0.81791 0.74128 0.62339 0.0
H1134 H 0.84586 0.78315 0.64295 0.0
H1135 H 0.84848 0.73562 0.72173 0.0
H1136 H 0.90387 0.72896 0.73679 0.0
H1137 H 0.87846 0.70275 0.71893 0.0
H1138 H 0.95973 0.70024 0.69719 0.0
H1139 H 0.9854 0.72628 0.71511 0.0
H1140 H 0.98544 0.73145 0.68536 0.0
H1141 H 0.87675 0.81975 0.66913 0.0
H1142 H 0.91495 0.84819 0.69866 0.0
H1143 H 0.96011 0.77363 0.73314 0.0
C1144 C 0.87013 0.71014 0.66891 0.0
C1145 C 0.84445 0.71227 0.64849 0.0
C1146 C 0.83627 0.73894 0.63923 0.0
C1147 C 0.85237 0.76291 0.65014 0.0
C1148 C 0.87707 0.76002 0.67027 0.0
C1149 C 0.8864 0.73431 0.67947 0.0
C1150 C 0.91435 0.73698 0.70116 0.0
C1151 C 0.88451 0.72538 0.72081 0.0
C1152 C 0.96419 0.72291 0.6996 0.0
C1153 C 0.91954 0.76817 0.70262 0.0
C1154 C 0.8971 0.78109 0.68479 0.0
C1155 C 0.89488 0.80986 0.68303 0.0
C1156 C 0.91644 0.82582 0.69984 0.0
C1157 C 0.9407 0.81296 0.71785 0.0
C1158 C 0.94233 0.78382 0.71926 0.0
H1159 H 0.62185 0.77435 0.1333 0.0
H1160 H 0.70629 0.81991 0.18205 0.0
H1161 H 0.67635 0.78886 0.21176 0.0
H1162 H 0.51699 0.76195 0.17125 0.0
H1163 H 0.50423 0.72804 0.16026 0.0
H1164 H 0.53066 0.75441 0.14258 0.0
H1165 H 0.60195 0.72178 0.13336 0.0
H1166 H 0.57596 0.69534 0.15105 0.0
H1167 H 0.63744 0.70711 0.15571 0.0
H1168 H 0.64087 0.75268 0.23588 0.0
H1169 H 0.59824 0.71388 0.25383 0.0
H1170 H 0.53574 0.69028 0.19037 0.0
C1171 C 0.63334 0.77786 0.15031 0.0
C1172 C 0.66592 0.79968 0.15552 0.0
C1173 C 0.68063 0.80364 0.17785 0.0
C1174 C 0.66405 0.78604 0.1948 0.0
C1175 C 0.63217 0.76472 0.18923 0.0
C1176 C 0.61628 0.76067 0.16765 0.0
C1177 C 0.58145 0.73613 0.16655 0.0
C1178 C 0.5303 0.7457 0.15976 0.0
C1179 C 0.60037 0.71376 0.15073 0.0
C1180 C 0.5823 0.72638 0.19068 0.0
C1181 C 0.61144 0.74346 0.2034 0.0
C1182 C 0.61808 0.73905 0.22609 0.0
C1183 C 0.59423 0.7166 0.23615 0.0
C1184 C 0.56469 0.69835 0.22363 0.0
C1185 C 0.5584 0.70359 0.20051 0.0
H1186 H 0.33173 0.80936 0.32753 0.0
H1187 H 0.36303 0.77448 0.3927 0.0
H1188 H 0.39846 0.73339 0.37505 0.0
H1189 H 0.29917 0.74173 0.30219 0.0
H1190 H 0.32485 0.75046 0.27544 0.0
H1191 H 0.30035 0.77726 0.29284 0.0
H1192 H 0.38246 0.8037 0.29107 0.0
H1193 H 0.4071 0.77703 0.27366 0.0
H1194 H 0.43748 0.78622 0.2992 0.0
H1195 H 0.43172 0.6974 0.35156 0.0
H1196 H 0.46233 0.66655 0.32307 0.0
H1197 H 0.41118 0.72278 0.27132 0.0
C1198 C 0.34586 0.79291 0.33796 0.0
C1199 C 0.34449 0.79491 0.36151 0.0
C1200 C 0.36321 0.77311 0.3747 0.0
C1201 C 0.38349 0.74977 0.36482 0.0
C1202 C 0.38423 0.74829 0.34168 0.0
C1203 C 0.36565 0.76901 0.32829 0.0
C1204 C 0.37104 0.76157 0.30378 0.0
C1205 C 0.32087 0.75752 0.29292 0.0
C1206 C 0.40135 0.78344 0.29119 0.0
C1207 C 0.39773 0.73413 0.30562 0.0
C1208 C 0.40397 0.72692 0.32774 0.0
C1209 C 0.42705 0.70274 0.33416 0.0
C1210 C 0.44453 0.68534 0.31764 0.0
C1211 C 0.43969 0.69209 0.29468 0.0
C1212 C 0.41553 0.71689 0.28862 0.0
H1213 H 0.19933 0.70116 0.82676 0.0
H1214 H 0.13601 0.71929 0.89103 0.0
H1215 H 0.08457 0.7552 0.87361 0.0
H1216 H 0.20699 0.76987 0.80796 0.0
H1217 H 0.19172 0.76317 0.77932 0.0
H1218 H 0.21994 0.73661 0.79597 0.0
H1219 H 0.14874 0.70287 0.78734 0.0
H1220 H 0.12086 0.72925 0.77034 0.0
H1221 H 0.08719 0.71343 0.79286 0.0
H1222 H 0.05123 0.79304 0.8512 0.0
H1223 H 0.02668 0.82769 0.82396 0.0
H1224 H 0.10283 0.7829 0.772 0.0
C1225 C 0.17342 0.71219 0.83691 0.0
C1226 C 0.17076 0.70746 0.86013 0.0
C1227 C 0.13779 0.7226 0.87319 0.0
C1228 C 0.10871 0.743 0.86345 0.0
C1229 C 0.11308 0.74783 0.84064 0.0
C1230 C 0.1438 0.73262 0.82736 0.0
C1231 C 0.1429 0.74321 0.80346 0.0
C1232 C 0.19339 0.75383 0.79626 0.0
C1233 C 0.12376 0.72085 0.78756 0.0
C1234 C 0.10734 0.76693 0.80552 0.0
C1235 C 0.09142 0.76931 0.82723 0.0
C1236 C 0.06247 0.79103 0.83403 0.0
C1237 C 0.04898 0.81079 0.81824 0.0
C1238 C 0.06307 0.80853 0.79551 0.0
C1239 C 0.09222 0.78591 0.78911 0.0
loop_
_geom_bond_atom_site_label_1
_geom_bond_atom_site_label_2
_geom_bond_distance
_geom_bond_site_symmetry_2
_ccdc_geom_bond_type
P0 O11 1.490 . S
P0 C14 1.812 . S
P0 C20 1.803 . S
P0 C26 1.819 . S
H1 C15 0.941 . S
H2 C16 0.939 . S
H3 C18 0.940 . S
H4 C19 0.940 . S
H5 C21 0.939 . S
H6 C22 0.942 . S
H7 C24 0.940 . S
H8 C25 0.939 . S
H9 C27 0.941 . S
H10 C31 0.939 . S
O11 P0 1.490 . S
H12 C28 0.939 . S
H13 C30 0.940 . S
C14 P0 1.812 . S
C14 C15 1.389 . S
C14 C19 1.391 . S
C15 H1 0.941 . S
C15 C14 1.389 . S
C15 C16 1.397 . S
C16 H2 0.939 . S
C16 C15 1.397 . S
C16 C17 1.378 . S
C17 C16 1.378 . S
C17 C18 1.378 . S
C18 H3 0.940 . S
C18 C17 1.378 . S
C18 C19 1.396 . S
C19 H4 0.940 . S
C19 C14 1.391 . S
C19 C18 1.396 . S
C20 P0 1.803 . S
C20 C21 1.378 . S
C20 C25 1.400 . S
C21 H5 0.939 . S
C21 C20 1.378 . S
C21 C22 1.361 . S
C22 H6 0.942 . S
C22 C21 1.361 . S
C22 C23 1.369 . S
C23 C22 1.369 . S
C23 C24 1.404 . S
C24 H7 0.940 . S
C24 C23 1.404 . S
C24 C25 1.389 . S
C25 H8 0.939 . S
C25 C20 1.400 . S
C25 C24 1.389 . S
C26 P0 1.819 . S
C26 C27 1.391 . S
C26 C31 1.391 . S
C27 H9 0.941 . S
C27 C26 1.391 . S
C27 C28 1.396 . S
C28 H12 0.939 . S
C28 C27 1.396 . S
C28 C29 1.397 . S
C29 C28 1.397 . S
C29 C30 1.385 . S
C30 H13 0.940 . S
C30 C29 1.385 . S
C30 C31 1.388 . S
C31 H10 0.939 . S
C31 C26 1.391 . S
C31 C30 1.388 . S
P32 O43 1.490 . S
P32 C46 1.812 . S
P32 C52 1.803 . S
P32 C58 1.819 . S
H33 C47 0.941 . S
H34 C48 0.939 . S
H35 C50 0.940 . S
H36 C51 0.940 . S
H37 C53 0.939 . S
H38 C54 0.942 . S
H39 C56 0.940 . S
H40 C57 0.939 . S
H41 C59 0.941 . S
H42 C63 0.939 . S
O43 P32 1.490 . S
H44 C60 0.939 . S
H45 C62 0.940 . S
C46 P32 1.812 . S
C46 C47 1.389 . S
C46 C51 1.391 . S
C47 H33 0.941 . S
C47 C46 1.389 . S
C47 C48 1.397 . S
C48 H34 0.939 . S
C48 C47 1.397 . S
C48 C49 1.378 . S
C49 C48 1.378 . S
C49 C50 1.378 . S
C50 H35 0.940 . S
C50 C49 1.378 . S
C50 C51 1.396 . S
C51 H36 0.940 . S
C51 C46 1.391 . S
C51 C50 1.396 . S
C52 P32 1.803 . S
C52 C53 1.378 . S
C52 C57 1.400 . S
C53 H37 0.939 . S
C53 C52 1.378 . S
C53 C54 1.361 . S
C54 H38 0.942 . S
C54 C53 1.361 . S
C54 C55 1.369 . S
C55 C54 1.369 . S
C55 C56 1.404 . S
C56 H39 0.940 . S
C56 C55 1.404 . S
C56 C57 1.389 . S
C57 H40 0.939 . S
C57 C52 1.400 . S
C57 C56 1.389 . S
C58 P32 1.819 . S
C58 C59 1.391 . S
C58 C63 1.391 . S
C59 H41 0.941 . S
C59 C58 1.391 . S
C59 C60 1.396 . S
C60 H44 0.939 . S
C60 C59 1.396 . S
C60 C61 1.397 . S
C61 C60 1.397 . S
C61 C62 1.385 . S
C62 H45 0.940 . S
C62 C61 1.385 . S
C62 C63 1.388 . S
C63 H42 0.939 . S
C63 C58 1.391 . S
C63 C62 1.388 . S
P64 O75 1.490 . S
P64 C78 1.812 . S
P64 C84 1.803 . S
P64 C90 1.819 . S
H65 C79 0.941 . S
H66 C80 0.939 . S
H67 C82 0.940 . S
H68 C83 0.940 . S
H69 C85 0.939 . S
H70 C86 0.942 . S
H71 C88 0.940 . S
H72 C89 0.939 . S
H73 C91 0.941 . S
H74 C95 0.939 . S
O75 P64 1.490 . S
H76 C92 0.939 . S
H77 C94 0.940 . S
C78 P64 1.812 . S
C78 C79 1.389 . S
C78 C83 1.391 . S
C79 H65 0.941 . S
C79 C78 1.389 . S
C79 C80 1.397 . S
C80 H66 0.939 . S
C80 C79 1.397 . S
C80 C81 1.378 . S
C81 C80 1.378 . S
C81 C82 1.378 . S
C82 H67 0.940 . S
C82 C81 1.378 . S
C82 C83 1.396 . S
C83 H68 0.940 . S
C83 C78 1.391 . S
C83 C82 1.396 . S
C84 P64 1.803 . S
C84 C85 1.378 . S
C84 C89 1.400 . S
C85 H69 0.939 . S
C85 C84 1.378 . S
C85 C86 1.361 . S
C86 H70 0.942 . S
C86 C85 1.361 . S
C86 C87 1.369 . S
C87 C86 1.369 . S
C87 C88 1.404 . S
C88 H71 0.940 . S
C88 C87 1.404 . S
C88 C89 1.389 . S
C89 H72 0.939 . S
C89 C84 1.400 . S
C89 C88 1.389 . S
C90 P64 1.819 . S
C90 C91 1.391 . S
C90 C95 1.391 . S
C91 H73 0.941 . S
C91 C90 1.391 . S
C91 C92 1.396 . S
C92 H76 0.939 . S
C92 C91 1.396 . S
C92 C93 1.397 . S
C93 C92 1.397 . S
C93 C94 1.385 . S
C94 H77 0.940 . S
C94 C93 1.385 . S
C94 C95 1.388 . S
C95 H74 0.939 . S
C95 C90 1.391 . S
C95 C94 1.388 . S
P96 O107 1.490 . S
P96 C110 1.812 . S
P96 C116 1.803 . S
P96 C122 1.819 . S
H97 C111 0.941 . S
H98 C112 0.939 . S
H99 C114 0.940 . S
H100 C115 0.940 . S
H101 C117 0.939 . S
H102 C118 0.942 . S
H103 C120 0.940 . S
H104 C121 0.939 . S
H105 C123 0.941 . S
H106 C127 0.939 . S
O107 P96 1.490 . S
H108 C124 0.939 . S
H109 C126 0.940 . S
C110 P96 1.812 . S
C110 C111 1.389 . S
C110 C115 1.391 . S
C111 H97 0.941 . S
C111 C110 1.389 . S
C111 C112 1.397 . S
C112 H98 0.939 . S
C112 C111 1.397 . S
C112 C113 1.378 . S
C113 C112 1.378 . S
C113 C114 1.378 . S
C114 H99 0.940 . S
C114 C113 1.378 . S
C114 C115 1.396 . S
C115 H100 0.940 . S
C115 C110 1.391 . S
C115 C114 1.396 . S
C116 P96 1.803 . S
C116 C117 1.378 . S
C116 C121 1.400 . S
C117 H101 0.939 . S
C117 C116 1.378 . S
C117 C118 1.361 . S
C118 H102 0.942 . S
C118 C117 1.361 . S
C118 C119 1.369 . S
C119 C118 1.369 . S
C119 C120 1.404 . S
C120 H103 0.940 . S
C120 C119 1.404 . S
C120 C121 1.389 . S
C121 H104 0.939 . S
C121 C116 1.400 . S
C121 C120 1.389 . S
C122 P96 1.819 . S
C122 C123 1.391 . S
C122 C127 1.391 . S
C123 H105 0.941 . S
C123 C122 1.391 . S
C123 C124 1.396 . S
C124 H108 0.939 . S
C124 C123 1.396 . S
C124 C125 1.397 . S
C125 C124 1.397 . S
C125 C126 1.385 . S
C126 H109 0.940 . S
C126 C125 1.385 . S
C126 C127 1.388 . S
C127 H106 0.939 . S
C127 C122 1.391 . S
C127 C126 1.388 . S
P128 O139 1.490 . S
P128 C142 1.812 . S
P128 C148 1.803 . S
P128 C154 1.819 . S
H129 C143 0.941 . S
H130 C144 0.939 . S
H131 C146 0.940 . S
H132 C147 0.940 . S
H133 C149 0.939 . S
H134 C150 0.942 . S
H135 C152 0.940 . S
H136 C153 0.939 . S
H137 C155 0.941 . S
H138 C159 0.939 . S
O139 P128 1.490 . S
H140 C156 0.939 . S
H141 C158 0.940 . S
C142 P128 1.812 . S
C142 C143 1.389 . S
C142 C147 1.391 . S
C143 H129 0.941 . S
C143 C142 1.389 . S
C143 C144 1.397 . S
C144 H130 0.939 . S
C144 C143 1.397 . S
C144 C145 1.378 . S
C145 C144 1.378 . S
C145 C146 1.378 . S
C146 H131 0.940 . S
C146 C145 1.378 . S
C146 C147 1.396 . S
C147 H132 0.940 . S
C147 C142 1.391 . S
C147 C146 1.396 . S
C148 P128 1.803 . S
C148 C149 1.378 . S
C148 C153 1.400 . S
C149 H133 0.939 . S
C149 C148 1.378 . S
C149 C150 1.361 . S
C150 H134 0.942 . S
C150 C149 1.361 . S
C150 C151 1.369 . S
C151 C150 1.369 . S
C151 C152 1.404 . S
C152 H135 0.940 . S
C152 C151 1.404 . S
C152 C153 1.389 . S
C153 H136 0.939 . S
C153 C148 1.400 . S
C153 C152 1.389 . S
C154 P128 1.819 . S
C154 C155 1.391 . S
C154 C159 1.391 . S
C155 H137 0.941 . S
C155 C154 1.391 . S
C155 C156 1.396 . S
C156 H140 0.939 . S
C156 C155 1.396 . S
C156 C157 1.397 . S
C157 C156 1.397 . S
C157 C158 1.385 . S
C158 H141 0.940 . S
C158 C157 1.385 . S
C158 C159 1.388 . S
C159 H138 0.939 . S
C159 C154 1.391 . S
C159 C158 1.388 . S
P160 O171 1.490 . S
P160 C174 1.812 . S
P160 C180 1.803 . S
P160 C186 1.819 . S
H161 C175 0.941 . S
H162 C176 0.939 . S
H163 C178 0.940 . S
H164 C179 0.940 . S
H165 C181 0.939 . S
H166 C182 0.942 . S
H167 C184 0.940 . S
H168 C185 0.939 . S
H169 C187 0.941 . S
H170 C191 0.939 . S
O171 P160 1.490 . S
H172 C188 0.939 . S
H173 C190 0.940 . S
C174 P160 1.812 . S
C174 C175 1.389 . S
C174 C179 1.391 . S
C175 H161 0.941 . S
C175 C174 1.389 . S
C175 C176 1.397 . S
C176 H162 0.939 . S
C176 C175 1.397 . S
C176 C177 1.378 . S
C177 C176 1.378 . S
C177 C178 1.378 . S
C178 H163 0.940 . S
C178 C177 1.378 . S
C178 C179 1.396 . S
C179 H164 0.940 . S
C179 C174 1.391 . S
C179 C178 1.396 . S
C180 P160 1.803 . S
C180 C181 1.378 . S
C180 C185 1.400 . S
C181 H165 0.939 . S
C181 C180 1.378 . S
C181 C182 1.361 . S
C182 H166 0.942 . S
C182 C181 1.361 . S
C182 C183 1.369 . S
C183 C182 1.369 . S
C183 C184 1.404 . S
C184 H167 0.940 . S
C184 C183 1.404 . S
C184 C185 1.389 . S
C185 H168 0.939 . S
C185 C180 1.400 . S
C185 C184 1.389 . S
C186 P160 1.819 . S
C186 C187 1.391 . S
C186 C191 1.391 . S
C187 H169 0.941 . S
C187 C186 1.391 . S
C187 C188 1.396 . S
C188 H172 0.939 . S
C188 C187 1.396 . S
C188 C189 1.397 . S
C189 C188 1.397 . S
C189 C190 1.385 . S
C190 H173 0.940 . S
C190 C189 1.385 . S
C190 C191 1.388 . S
C191 H170 0.939 . S
C191 C186 1.391 . S
C191 C190 1.388 . S
P192 O203 1.490 . S
P192 C206 1.812 . S
P192 C212 1.803 . S
P192 C218 1.819 . S
H193 C207 0.941 . S
H194 C208 0.939 . S
H195 C210 0.940 . S
H196 C211 0.940 . S
H197 C213 0.939 . S
H198 C214 0.942 . S
H199 C216 0.940 . S
H200 C217 0.939 . S
H201 C219 0.941 . S
H202 C223 0.939 . S
O203 P192 1.490 . S
H204 C220 0.939 . S
H205 C222 0.940 . S
C206 P192 1.812 . S
C206 C207 1.389 . S
C206 C211 1.391 . S
C207 H193 0.941 . S
C207 C206 1.389 . S
C207 C208 1.397 . S
C208 H194 0.939 . S
C208 C207 1.397 . S
C208 C209 1.378 . S
C209 C208 1.378 . S
C209 C210 1.378 . S
C210 H195 0.940 . S
C210 C209 1.378 . S
C210 C211 1.396 . S
C211 H196 0.940 . S
C211 C206 1.391 . S
C211 C210 1.396 . S
C212 P192 1.803 . S
C212 C213 1.378 . S
C212 C217 1.400 . S
C213 H197 0.939 . S
C213 C212 1.378 . S
C213 C214 1.361 . S
C214 H198 0.942 . S
C214 C213 1.361 . S
C214 C215 1.369 . S
C215 C214 1.369 . S
C215 C216 1.404 . S
C216 H199 0.940 . S
C216 C215 1.404 . S
C216 C217 1.389 . S
C217 H200 0.939 . S
C217 C212 1.400 . S
C217 C216 1.389 . S
C218 P192 1.819 . S
C218 C219 1.391 . S
C218 C223 1.391 . S
C219 H201 0.941 . S
C219 C218 1.391 . S
C219 C220 1.396 . S
C220 H204 0.939 . S
C220 C219 1.396 . S
C220 C221 1.397 . S
C221 C220 1.397 . S
C221 C222 1.385 . S
C222 H205 0.940 . S
C222 C221 1.385 . S
C222 C223 1.388 . S
C223 H202 0.939 . S
C223 C218 1.391 . S
C223 C222 1.388 . S
P224 O235 1.490 . S
P224 C238 1.812 . S
P224 C244 1.803 . S
P224 C250 1.819 . S
H225 C239 0.941 . S
H226 C240 0.939 . S
H227 C242 0.940 . S
H228 C243 0.940 . S
H229 C245 0.939 . S
H230 C246 0.942 . S
H231 C248 0.940 . S
H232 C249 0.939 . S
H233 C251 0.941 . S
H234 C255 0.939 . S
O235 P224 1.490 . S
H236 C252 0.939 . S
H237 C254 0.940 . S
C238 P224 1.812 . S
C238 C239 1.389 . S
C238 C243 1.391 . S
C239 H225 0.941 . S
C239 C238 1.389 . S
C239 C240 1.397 . S
C240 H226 0.939 . S
C240 C239 1.397 . S
C240 C241 1.378 . S
C241 C240 1.378 . S
C241 C242 1.378 . S
C242 H227 0.940 . S
C242 C241 1.378 . S
C242 C243 1.396 . S
C243 H228 0.940 . S
C243 C238 1.391 . S
C243 C242 1.396 . S
C244 P224 1.803 . S
C244 C245 1.378 . S
C244 C249 1.400 . S
C245 H229 0.939 . S
C245 C244 1.378 . S
C245 C246 1.361 . S
C246 H230 0.942 . S
C246 C245 1.361 . S
C246 C247 1.369 . S
C247 C246 1.369 . S
C247 C248 1.404 . S
C248 H231 0.940 . S
C248 C247 1.404 . S
C248 C249 1.389 . S
C249 H232 0.939 . S
C249 C244 1.400 . S
C249 C248 1.389 . S
C250 P224 1.819 . S
C250 C251 1.391 . S
C250 C255 1.391 . S
C251 H233 0.941 . S
C251 C250 1.391 . S
C251 C252 1.396 . S
C252 H236 0.939 . S
C252 C251 1.396 . S
C252 C253 1.397 . S
C253 C252 1.397 . S
C253 C254 1.385 . S
C254 H237 0.940 . S
C254 C253 1.385 . S
C254 C255 1.388 . S
C255 H234 0.939 . S
C255 C250 1.391 . S
C255 C254 1.388 . S
Tb256 N285 2.617 . S
Tb256 N291 2.572 . S
Tb256 O300 2.465 . S
Tb256 O301 2.387 . S
Tb256 O303 2.428 . S
Tb256 O304 2.308 . S
Tb256 O308 2.349 . S
Tb256 O311 2.393 . S
Tb256 C320 2.802 . S
C257 N258 1.379 . S
C257 C260 1.416 . S
C257 C264 1.424 . S
N258 C257 1.379 . S
N258 C261 1.334 . S
N258 Tb267 2.617 . S
C259 C261 1.390 . S
C259 C262 1.339 . S
C259 H279 0.930 . S
C260 C257 1.416 . S
C260 C262 1.416 . S
C260 C266 1.448 . S
C261 N258 1.334 . S
C261 C259 1.390 . S
C261 H272 0.930 . S
C262 C259 1.339 . S
C262 C260 1.416 . S
C262 H283 0.930 . S
C263 C264 1.413 . S
C263 C265 1.427 . S
C263 C269 1.416 . S
C264 C257 1.424 . S
C264 C263 1.413 . S
C264 N268 1.361 . S
C265 C263 1.427 . S
C265 C266 1.328 . S
C265 H280 0.929 . S
C266 C260 1.448 . S
C266 C265 1.328 . S
C266 H281 0.930 . S
Tb267 N258 2.617 . S
Tb267 N268 2.572 . S
Tb267 O302 2.349 1_655 S
Tb267 O305 2.393 . S
Tb267 O306 2.465 . S
Tb267 O307 2.387 . S
Tb267 O309 2.428 . S
Tb267 O310 2.308 1_655 S
Tb267 C331 2.802 . S
N268 C264 1.361 . S
N268 Tb267 2.572 . S
N268 C270 1.340 . S
C269 C263 1.416 . S
C269 C271 1.332 . S
C269 H277 0.931 . S
C270 N268 1.340 . S
C270 C271 1.407 . S
C270 H276 0.930 . S
C271 C269 1.332 . S
C271 C270 1.407 . S
C271 H273 0.929 . S
H272 C261 0.930 . S
H273 C271 0.929 . S
H274 C289 0.930 . S
H275 C296 0.929 . S
H276 C270 0.930 . S
H277 C269 0.931 . S
H278 C292 0.930 . S
H279 C259 0.930 . S
H280 C265 0.929 . S
H281 C266 0.930 . S
H282 C287 0.930 . S
H283 C262 0.930 . S
H284 C295 0.931 . S
N285 Tb256 2.617 . S
N285 C286 1.379 . S
N285 C289 1.334 . S
C286 N285 1.379 . S
C286 C288 1.416 . S
C286 C294 1.424 . S
C287 H282 0.930 . S
C287 C289 1.390 . S
C287 C290 1.339 . S
C288 C286 1.416 . S
C288 C290 1.416 . S
C288 C321 1.448 . S
C289 H274 0.930 . S
C289 N285 1.334 . S
C289 C287 1.390 . S
C290 C287 1.339 . S
C290 C288 1.416 . S
C290 H297 0.930 . S
N291 Tb256 2.572 . S
N291 C292 1.340 . S
N291 C294 1.361 . S
C292 H278 0.930 . S
C292 N291 1.340 . S
C292 C296 1.407 . S
C293 C294 1.413 . S
C293 C295 1.416 . S
C293 C322 1.427 . S
C294 C286 1.424 . S
C294 N291 1.361 . S
C294 C293 1.413 . S
C295 H284 0.931 . S
C295 C293 1.416 . S
C295 C296 1.332 . S
C296 H275 0.929 . S
C296 C292 1.407 . S
C296 C295 1.332 . S
H297 C290 0.930 . S
H298 C321 0.930 . S
H299 C322 0.929 . S
O300 Tb256 2.465 . S
O300 C320 1.264 . S
O301 Tb256 2.387 . S
O301 C312 1.264 . S
O302 Tb267 2.349 1_455 S
O302 C312 1.243 . S
O303 Tb256 2.428 . S
O303 C320 1.256 . S
O304 Tb256 2.308 . S
O304 C319 1.266 1_455 S
O305 Tb267 2.393 . S
O305 C319 1.248 . S
O306 Tb267 2.465 . S
O306 C331 1.264 . S
O307 Tb267 2.387 . S
O307 C323 1.264 . S
O308 Tb256 2.349 . S
O308 C323 1.243 1_455 S
O309 Tb267 2.428 . S
O309 C331 1.256 . S
O310 Tb267 2.308 1_455 S
O310 C330 1.266 . S
O311 Tb256 2.393 . S
O311 C330 1.248 . S
C312 O301 1.264 . S
C312 O302 1.243 . S
C313 C316 1.399 . S
C313 C318 1.383 . S
C313 C320 1.496 . S
C314 C315 1.399 . S
C314 C318 1.389 . S
C315 C314 1.399 . S
C315 C317 1.380 . S
C315 H332 0.929 . S
C316 C313 1.399 . S
C316 C317 1.392 . S
C316 H333 0.929 . S
C317 C315 1.380 . S
C317 C316 1.392 . S
C317 H334 0.929 . S
C318 C313 1.383 . S
C318 C314 1.389 . S
C318 H335 0.931 . S
C319 O304 1.266 1_655 S
C319 O305 1.248 . S
C320 Tb256 2.802 . S
C320 O300 1.264 . S
C320 O303 1.256 . S
C320 C313 1.496 . S
C321 C288 1.448 . S
C321 H298 0.930 . S
C321 C322 1.328 . S
C322 C293 1.427 . S
C322 H299 0.929 . S
C322 C321 1.328 . S
C323 O307 1.264 . S
C323 O308 1.243 1_655 S
C324 C327 1.399 . S
C324 C328 1.383 . S
C324 C331 1.496 . S
C325 C326 1.399 . S
C325 C328 1.389 . S
C326 C325 1.399 . S
C326 C329 1.380 . S
C326 H336 0.929 . S
C327 C324 1.399 . S
C327 C329 1.392 . S
C327 H337 0.929 . S
C328 C324 1.383 . S
C328 C325 1.389 . S
C328 H338 0.931 . S
C329 C326 1.380 . S
C329 C327 1.392 . S
C329 H339 0.929 . S
C330 O310 1.266 . S
C330 O311 1.248 . S
C331 Tb267 2.802 . S
C331 O306 1.264 . S
C331 O309 1.256 . S
C331 C324 1.496 . S
H332 C315 0.929 . S
H333 C316 0.929 . S
H334 C317 0.929 . S
H335 C318 0.931 . S
H336 C326 0.929 . S
H337 C327 0.929 . S
H338 C328 0.931 . S
H339 C329 0.929 . S
Tb340 N369 2.617 . S
Tb340 N375 2.572 . S
Tb340 O384 2.465 . S
Tb340 O385 2.387 . S
Tb340 O387 2.428 . S
Tb340 O388 2.308 . S
Tb340 O392 2.349 . S
Tb340 O395 2.393 . S
Tb340 C404 2.802 . S
C341 N342 1.379 . S
C341 C344 1.416 . S
C341 C348 1.424 . S
N342 C341 1.379 . S
N342 C345 1.334 . S
N342 Tb351 2.617 . S
C343 C345 1.390 . S
C343 C346 1.339 . S
C343 H363 0.930 . S
C344 C341 1.416 . S
C344 C346 1.416 . S
C344 C350 1.448 . S
C345 N342 1.334 . S
C345 C343 1.390 . S
C345 H356 0.930 . S
C346 C343 1.339 . S
C346 C344 1.416 . S
C346 H367 0.930 . S
C347 C348 1.413 . S
C347 C349 1.427 . S
C347 C353 1.416 . S
C348 C341 1.424 . S
C348 C347 1.413 . S
C348 N352 1.361 . S
C349 C347 1.427 . S
C349 C350 1.328 . S
C349 H364 0.929 . S
C350 C344 1.448 . S
C350 C349 1.328 . S
C350 H365 0.930 . S
Tb351 N342 2.617 . S
Tb351 N352 2.572 . S
Tb351 O386 2.349 . S
Tb351 O389 2.393 . S
Tb351 O390 2.465 . S
Tb351 O391 2.387 . S
Tb351 O393 2.428 . S
Tb351 O394 2.308 . S
Tb351 C415 2.802 . S
N352 C348 1.361 . S
N352 Tb351 2.572 . S
N352 C354 1.340 . S
C353 C347 1.416 . S
C353 C355 1.332 . S
C353 H361 0.931 . S
C354 N352 1.340 . S
C354 C355 1.407 . S
C354 H360 0.930 . S
C355 C353 1.332 . S
C355 C354 1.407 . S
C355 H357 0.929 . S
H356 C345 0.930 . S
H357 C355 0.929 . S
H358 C373 0.930 . S
H359 C380 0.929 . S
H360 C354 0.930 . S
H361 C353 0.931 . S
H362 C376 0.930 . S
H363 C343 0.930 . S
H364 C349 0.929 . S
H365 C350 0.930 . S
H366 C371 0.930 . S
H367 C346 0.930 . S
H368 C379 0.931 . S
N369 Tb340 2.617 . S
N369 C370 1.379 . S
N369 C373 1.334 . S
C370 N369 1.379 . S
C370 C372 1.416 . S
C370 C378 1.424 . S
C371 H366 0.930 . S
C371 C373 1.390 . S
C371 C374 1.339 . S
C372 C370 1.416 . S
C372 C374 1.416 . S
C372 C405 1.448 . S
C373 H358 0.930 . S
C373 N369 1.334 . S
C373 C371 1.390 . S
C374 C371 1.339 . S
C374 C372 1.416 . S
C374 H381 0.930 . S
N375 Tb340 2.572 . S
N375 C376 1.340 . S
N375 C378 1.361 . S
C376 H362 0.930 . S
C376 N375 1.340 . S
C376 C380 1.407 . S
C377 C378 1.413 . S
C377 C379 1.416 . S
C377 C406 1.427 . S
C378 C370 1.424 . S
C378 N375 1.361 . S
C378 C377 1.413 . S
C379 H368 0.931 . S
C379 C377 1.416 . S
C379 C380 1.332 . S
C380 H359 0.929 . S
C380 C376 1.407 . S
C380 C379 1.332 . S
H381 C374 0.930 . S
H382 C405 0.930 . S
H383 C406 0.929 . S
O384 Tb340 2.465 . S
O384 C404 1.264 . S
O385 Tb340 2.387 . S
O385 C396 1.264 . S
O386 Tb351 2.349 . S
O386 C396 1.243 . S
O387 Tb340 2.428 . S
O387 C404 1.256 . S
O388 Tb340 2.308 . S
O388 C403 1.266 . S
O389 Tb351 2.393 . S
O389 C403 1.248 . S
O390 Tb351 2.465 . S
O390 C415 1.264 . S
O391 Tb351 2.387 . S
O391 C407 1.264 . S
O392 Tb340 2.349 . S
O392 C407 1.243 . S
O393 Tb351 2.428 . S
O393 C415 1.256 . S
O394 Tb351 2.308 . S
O394 C414 1.266 . S
O395 Tb340 2.393 . S
O395 C414 1.248 . S
C396 O385 1.264 . S
C396 O386 1.243 . S
C397 C400 1.399 . S
C397 C402 1.383 . S
C397 C404 1.496 . S
C398 C399 1.399 . S
C398 C402 1.389 . S
C399 C398 1.399 . S
C399 C401 1.380 . S
C399 H416 0.929 . S
C400 C397 1.399 . S
C400 C401 1.392 . S
C400 H417 0.929 . S
C401 C399 1.380 . S
C401 C400 1.392 . S
C401 H418 0.929 . S
C402 C397 1.383 . S
C402 C398 1.389 . S
C402 H419 0.931 . S
C403 O388 1.266 . S
C403 O389 1.248 . S
C404 Tb340 2.802 . S
C404 O384 1.264 . S
C404 O387 1.256 . S
C404 C397 1.496 . S
C405 C372 1.448 . S
C405 H382 0.930 . S
C405 C406 1.328 . S
C406 C377 1.427 . S
C406 H383 0.929 . S
C406 C405 1.328 . S
C407 O391 1.264 . S
C407 O392 1.243 . S
C408 C411 1.399 . S
C408 C412 1.383 . S
C408 C415 1.496 . S
C409 C410 1.399 . S
C409 C412 1.389 . S
C410 C409 1.399 . S
C410 C413 1.380 . S
C410 H420 0.929 . S
C411 C408 1.399 . S
C411 C413 1.392 . S
C411 H421 0.929 . S
C412 C408 1.383 . S
C412 C409 1.389 . S
C412 H422 0.931 . S
C413 C410 1.380 . S
C413 C411 1.392 . S
C413 H423 0.929 . S
C414 O394 1.266 . S
C414 O395 1.248 . S
C415 Tb351 2.802 . S
C415 O390 1.264 . S
C415 O393 1.256 . S
C415 C408 1.496 . S
H416 C399 0.929 . S
H417 C400 0.929 . S
H418 C401 0.929 . S
H419 C402 0.931 . S
H420 C410 0.929 . S
H421 C411 0.929 . S
H422 C412 0.931 . S
H423 C413 0.929 . S
Tb424 N453 2.617 . S
Tb424 N459 2.572 . S
Tb424 O468 2.465 . S
Tb424 O469 2.387 . S
Tb424 O471 2.428 . S
Tb424 O472 2.308 . S
Tb424 O476 2.349 . S
Tb424 O479 2.393 . S
Tb424 C488 2.802 . S
C425 N426 1.379 . S
C425 C428 1.416 . S
C425 C432 1.424 . S
N426 C425 1.379 . S
N426 C429 1.334 . S
N426 Tb435 2.617 . S
C427 C429 1.390 . S
C427 C430 1.339 . S
C427 H447 0.930 . S
C428 C425 1.416 . S
C428 C430 1.416 . S
C428 C434 1.448 . S
C429 N426 1.334 . S
C429 C427 1.390 . S
C429 H440 0.930 . S
C430 C427 1.339 . S
C430 C428 1.416 . S
C430 H451 0.930 . S
C431 C432 1.413 . S
C431 C433 1.427 . S
C431 C437 1.416 . S
C432 C425 1.424 . S
C432 C431 1.413 . S
C432 N436 1.361 . S
C433 C431 1.427 . S
C433 C434 1.328 . S
C433 H448 0.929 . S
C434 C428 1.448 . S
C434 C433 1.328 . S
C434 H449 0.930 . S
Tb435 N426 2.617 . S
Tb435 N436 2.572 . S
Tb435 O470 2.349 1_655 S
Tb435 O473 2.393 . S
Tb435 O474 2.465 . S
Tb435 O475 2.387 . S
Tb435 O477 2.428 . S
Tb435 O478 2.308 1_655 S
Tb435 C499 2.802 . S
N436 C432 1.361 . S
N436 Tb435 2.572 . S
N436 C438 1.340 . S
C437 C431 1.416 . S
C437 C439 1.332 . S
C437 H445 0.931 . S
C438 N436 1.340 . S
C438 C439 1.407 . S
C438 H444 0.930 . S
C439 C437 1.332 . S
C439 C438 1.407 . S
C439 H441 0.929 . S
H440 C429 0.930 . S
H441 C439 0.929 . S
H442 C457 0.930 . S
H443 C464 0.929 . S
H444 C438 0.930 . S
H445 C437 0.931 . S
H446 C460 0.930 . S
H447 C427 0.930 . S
H448 C433 0.929 . S
H449 C434 0.930 . S
H450 C455 0.930 . S
H451 C430 0.930 . S
H452 C463 0.931 . S
N453 Tb424 2.617 . S
N453 C454 1.379 . S
N453 C457 1.334 . S
C454 N453 1.379 . S
C454 C456 1.416 . S
C454 C462 1.424 . S
C455 H450 0.930 . S
C455 C457 1.390 . S
C455 C458 1.339 . S
C456 C454 1.416 . S
C456 C458 1.416 . S
C456 C489 1.448 . S
C457 H442 0.930 . S
C457 N453 1.334 . S
C457 C455 1.390 . S
C458 C455 1.339 . S
C458 C456 1.416 . S
C458 H465 0.930 . S
N459 Tb424 2.572 . S
N459 C460 1.340 . S
N459 C462 1.361 . S
C460 H446 0.930 . S
C460 N459 1.340 . S
C460 C464 1.407 . S
C461 C462 1.413 . S
C461 C463 1.416 . S
C461 C490 1.427 . S
C462 C454 1.424 . S
C462 N459 1.361 . S
C462 C461 1.413 . S
C463 H452 0.931 . S
C463 C461 1.416 . S
C463 C464 1.332 . S
C464 H443 0.929 . S
C464 C460 1.407 . S
C464 C463 1.332 . S
H465 C458 0.930 . S
H466 C489 0.930 . S
H467 C490 0.929 . S
O468 Tb424 2.465 . S
O468 C488 1.264 . S
O469 Tb424 2.387 . S
O469 C480 1.264 . S
O470 Tb435 2.349 1_455 S
O470 C480 1.243 . S
O471 Tb424 2.428 . S
O471 C488 1.256 . S
O472 Tb424 2.308 . S
O472 C487 1.266 1_455 S
O473 Tb435 2.393 . S
O473 C487 1.248 . S
O474 Tb435 2.465 . S
O474 C499 1.264 . S
O475 Tb435 2.387 . S
O475 C491 1.264 . S
O476 Tb424 2.349 . S
O476 C491 1.243 1_455 S
O477 Tb435 2.428 . S
O477 C499 1.256 . S
O478 Tb435 2.308 1_455 S
O478 C498 1.266 . S
O479 Tb424 2.393 . S
O479 C498 1.248 . S
C480 O469 1.264 . S
C480 O470 1.243 . S
C481 C484 1.399 . S
C481 C486 1.383 . S
C481 C488 1.496 . S
C482 C483 1.399 . S
C482 C486 1.389 . S
C483 C482 1.399 . S
C483 C485 1.380 . S
C483 H500 0.929 . S
C484 C481 1.399 . S
C484 C485 1.392 . S
C484 H501 0.929 . S
C485 C483 1.380 . S
C485 C484 1.392 . S
C485 H502 0.929 . S
C486 C481 1.383 . S
C486 C482 1.389 . S
C486 H503 0.931 . S
C487 O472 1.266 1_655 S
C487 O473 1.248 . S
C488 Tb424 2.802 . S
C488 O468 1.264 . S
C488 O471 1.256 . S
C488 C481 1.496 . S
C489 C456 1.448 . S
C489 H466 0.930 . S
C489 C490 1.328 . S
C490 C461 1.427 . S
C490 H467 0.929 . S
C490 C489 1.328 . S
C491 O475 1.264 . S
C491 O476 1.243 1_655 S
C492 C495 1.399 . S
C492 C496 1.383 . S
C492 C499 1.496 . S
C493 C494 1.399 . S
C493 C496 1.389 . S
C494 C493 1.399 . S
C494 C497 1.380 . S
C494 H504 0.929 . S
C495 C492 1.399 . S
C495 C497 1.392 . S
C495 H505 0.929 . S
C496 C492 1.383 . S
C496 C493 1.389 . S
C496 H506 0.931 . S
C497 C494 1.380 . S
C497 C495 1.392 . S
C497 H507 0.929 . S
C498 O478 1.266 . S
C498 O479 1.248 . S
C499 Tb435 2.802 . S
C499 O474 1.264 . S
C499 O477 1.256 . S
C499 C492 1.496 . S
H500 C483 0.929 . S
H501 C484 0.929 . S
H502 C485 0.929 . S
H503 C486 0.931 . S
H504 C494 0.929 . S
H505 C495 0.929 . S
H506 C496 0.931 . S
H507 C497 0.929 . S
Tb508 N537 2.617 . S
Tb508 N543 2.572 . S
Tb508 O552 2.465 . S
Tb508 O553 2.387 . S
Tb508 O555 2.428 . S
Tb508 O556 2.308 . S
Tb508 O560 2.349 . S
Tb508 O563 2.393 . S
Tb508 C572 2.802 . S
C509 N510 1.379 . S
C509 C512 1.416 . S
C509 C516 1.424 . S
N510 C509 1.379 . S
N510 C513 1.334 . S
N510 Tb519 2.617 . S
C511 C513 1.390 . S
C511 C514 1.339 . S
C511 H531 0.930 . S
C512 C509 1.416 . S
C512 C514 1.416 . S
C512 C518 1.448 . S
C513 N510 1.334 . S
C513 C511 1.390 . S
C513 H524 0.930 . S
C514 C511 1.339 . S
C514 C512 1.416 . S
C514 H535 0.930 . S
C515 C516 1.413 . S
C515 C517 1.427 . S
C515 C521 1.416 . S
C516 C509 1.424 . S
C516 C515 1.413 . S
C516 N520 1.361 . S
C517 C515 1.427 . S
C517 C518 1.328 . S
C517 H532 0.929 . S
C518 C512 1.448 . S
C518 C517 1.328 . S
C518 H533 0.930 . S
Tb519 N510 2.617 . S
Tb519 N520 2.572 . S
Tb519 O554 2.349 . S
Tb519 O557 2.393 . S
Tb519 O558 2.465 . S
Tb519 O559 2.387 . S
Tb519 O561 2.428 . S
Tb519 O562 2.308 . S
Tb519 C583 2.802 . S
N520 C516 1.361 . S
N520 Tb519 2.572 . S
N520 C522 1.340 . S
C521 C515 1.416 . S
C521 C523 1.332 . S
C521 H529 0.931 . S
C522 N520 1.340 . S
C522 C523 1.407 . S
C522 H528 0.930 . S
C523 C521 1.332 . S
C523 C522 1.407 . S
C523 H525 0.929 . S
H524 C513 0.930 . S
H525 C523 0.929 . S
H526 C541 0.930 . S
H527 C548 0.929 . S
H528 C522 0.930 . S
H529 C521 0.931 . S
H530 C544 0.930 . S
H531 C511 0.930 . S
H532 C517 0.929 . S
H533 C518 0.930 . S
H534 C539 0.930 . S
H535 C514 0.930 . S
H536 C547 0.931 . S
N537 Tb508 2.617 . S
N537 C538 1.379 . S
N537 C541 1.334 . S
C538 N537 1.379 . S
C538 C540 1.416 . S
C538 C546 1.424 . S
C539 H534 0.930 . S
C539 C541 1.390 . S
C539 C542 1.339 . S
C540 C538 1.416 . S
C540 C542 1.416 . S
C540 C573 1.448 . S
C541 H526 0.930 . S
C541 N537 1.334 . S
C541 C539 1.390 . S
C542 C539 1.339 . S
C542 C540 1.416 . S
C542 H549 0.930 . S
N543 Tb508 2.572 . S
N543 C544 1.340 . S
N543 C546 1.361 . S
C544 H530 0.930 . S
C544 N543 1.340 . S
C544 C548 1.407 . S
C545 C546 1.413 . S
C545 C547 1.416 . S
C545 C574 1.427 . S
C546 C538 1.424 . S
C546 N543 1.361 . S
C546 C545 1.413 . S
C547 H536 0.931 . S
C547 C545 1.416 . S
C547 C548 1.332 . S
C548 H527 0.929 . S
C548 C544 1.407 . S
C548 C547 1.332 . S
H549 C542 0.930 . S
H550 C573 0.930 . S
H551 C574 0.929 . S
O552 Tb508 2.465 . S
O552 C572 1.264 . S
O553 Tb508 2.387 . S
O553 C564 1.264 . S
O554 Tb519 2.349 . S
O554 C564 1.243 . S
O555 Tb508 2.428 . S
O555 C572 1.256 . S
O556 Tb508 2.308 . S
O556 C571 1.266 . S
O557 Tb519 2.393 . S
O557 C571 1.248 . S
O558 Tb519 2.465 . S
O558 C583 1.264 . S
O559 Tb519 2.387 . S
O559 C575 1.264 . S
O560 Tb508 2.349 . S
O560 C575 1.243 . S
O561 Tb519 2.428 . S
O561 C583 1.256 . S
O562 Tb519 2.308 . S
O562 C582 1.266 . S
O563 Tb508 2.393 . S
O563 C582 1.248 . S
C564 O553 1.264 . S
C564 O554 1.243 . S
C565 C568 1.399 . S
C565 C570 1.383 . S
C565 C572 1.496 . S
C566 C567 1.399 . S
C566 C570 1.389 . S
C567 C566 1.399 . S
C567 C569 1.380 . S
C567 H584 0.929 . S
C568 C565 1.399 . S
C568 C569 1.392 . S
C568 H585 0.929 . S
C569 C567 1.380 . S
C569 C568 1.392 . S
C569 H586 0.929 . S
C570 C565 1.383 . S
C570 C566 1.389 . S
C570 H587 0.931 . S
C571 O556 1.266 . S
C571 O557 1.248 . S
C572 Tb508 2.802 . S
C572 O552 1.264 . S
C572 O555 1.256 . S
C572 C565 1.496 . S
C573 C540 1.448 . S
C573 H550 0.930 . S
C573 C574 1.328 . S
C574 C545 1.427 . S
C574 H551 0.929 . S
C574 C573 1.328 . S
C575 O559 1.264 . S
C575 O560 1.243 . S
C576 C579 1.399 . S
C576 C580 1.383 . S
C576 C583 1.496 . S
C577 C578 1.399 . S
C577 C580 1.389 . S
C578 C577 1.399 . S
C578 C581 1.380 . S
C578 H588 0.929 . S
C579 C576 1.399 . S
C579 C581 1.392 . S
C579 H589 0.929 . S
C580 C576 1.383 . S
C580 C577 1.389 . S
C580 H590 0.931 . S
C581 C578 1.380 . S
C581 C579 1.392 . S
C581 H591 0.929 . S
C582 O562 1.266 . S
C582 O563 1.248 . S
C583 Tb519 2.802 . S
C583 O558 1.264 . S
C583 O561 1.256 . S
C583 C576 1.496 . S
H584 C567 0.929 . S
H585 C568 0.929 . S
H586 C569 0.929 . S
H587 C570 0.931 . S
H588 C578 0.929 . S
H589 C579 0.929 . S
H590 C580 0.931 . S
H591 C581 0.929 . S
H592 C604 0.930 . S
H593 C606 0.930 . S
H594 C607 0.930 . S
H595 C611 0.959 . S
H596 C611 0.959 . S
H597 C611 0.961 . S
H598 C612 0.960 . S
H599 C612 0.961 . S
H600 C612 0.959 . S
H601 C615 0.929 . S
H602 C616 0.931 . S
H603 C618 0.930 . S
C604 H592 0.930 . S
C604 C605 1.399 . S
C604 C609 1.399 1_565 S
C605 C604 1.399 . S
C605 C606 1.376 . S
C606 H593 0.930 . S
C606 C605 1.376 . S
C606 C607 1.388 . S
C607 H594 0.930 . S
C607 C606 1.388 . S
C607 C608 1.390 1_565 S
C608 C607 1.390 1_545 S
C608 C609 1.394 . S
C608 C614 1.465 . S
C609 C604 1.399 1_545 S
C609 C608 1.394 . S
C609 C610 1.516 . S
C610 C609 1.516 . S
C610 C611 1.502 . S
C610 C612 1.561 . S
C610 C613 1.526 . S
C611 H595 0.959 . S
C611 H596 0.959 . S
C611 H597 0.961 . S
C611 C610 1.502 . S
C612 H598 0.960 . S
C612 H599 0.961 . S
C612 H600 0.959 . S
C612 C610 1.561 . S
C613 C610 1.526 . S
C613 C614 1.396 . S
C613 C618 1.390 . S
C614 C608 1.465 . S
C614 C613 1.396 . S
C614 C615 1.399 . S
C615 H601 0.929 . S
C615 C614 1.399 . S
C615 C616 1.385 . S
C616 H602 0.931 . S
C616 C615 1.385 . S
C616 C617 1.389 . S
C617 C616 1.389 . S
C617 C618 1.387 . S
C618 H603 0.930 . S
C618 C613 1.390 . S
C618 C617 1.387 . S
H619 C631 0.930 . S
H620 C633 0.930 . S
H621 C634 0.930 . S
H622 C638 0.959 . S
H623 C638 0.959 . S
H624 C638 0.961 . S
H625 C639 0.960 . S
H626 C639 0.961 . S
H627 C639 0.959 . S
H628 C642 0.929 . S
H629 C643 0.931 . S
H630 C645 0.930 . S
C631 H619 0.930 . S
C631 C632 1.399 . S
C631 C636 1.399 . S
C632 C631 1.399 . S
C632 C633 1.376 . S
C633 H620 0.930 . S
C633 C632 1.376 . S
C633 C634 1.388 . S
C634 H621 0.930 . S
C634 C633 1.388 . S
C634 C635 1.390 . S
C635 C634 1.390 . S
C635 C636 1.394 . S
C635 C641 1.465 . S
C636 C631 1.399 . S
C636 C635 1.394 . S
C636 C637 1.516 . S
C637 C636 1.516 . S
C637 C638 1.502 . S
C637 C639 1.561 . S
C637 C640 1.526 . S
C638 H622 0.959 . S
C638 H623 0.959 . S
C638 H624 0.961 . S
C638 C637 1.502 . S
C639 H625 0.960 . S
C639 H626 0.961 . S
C639 H627 0.959 . S
C639 C637 1.561 . S
C640 C637 1.526 . S
C640 C641 1.396 . S
C640 C645 1.390 . S
C641 C635 1.465 . S
C641 C640 1.396 . S
C641 C642 1.399 . S
C642 H628 0.929 . S
C642 C641 1.399 . S
C642 C643 1.385 . S
C643 H629 0.931 . S
C643 C642 1.385 . S
C643 C644 1.389 . S
C644 C643 1.389 . S
C644 C645 1.387 . S
C645 H630 0.930 . S
C645 C640 1.390 . S
C645 C644 1.387 . S
H646 C658 0.930 . S
H647 C660 0.930 . S
H648 C661 0.930 . S
H649 C665 0.959 . S
H650 C665 0.959 . S
H651 C665 0.961 . S
H652 C666 0.960 . S
H653 C666 0.961 . S
H654 C666 0.959 . S
H655 C669 0.929 . S
H656 C670 0.931 . S
H657 C672 0.930 . S
C658 H646 0.930 . S
C658 C659 1.399 . S
C658 C663 1.399 . S
C659 C658 1.399 . S
C659 C660 1.376 . S
C660 H647 0.930 . S
C660 C659 1.376 . S
C660 C661 1.388 . S
C661 H648 0.930 . S
C661 C660 1.388 . S
C661 C662 1.390 . S
C662 C661 1.390 . S
C662 C663 1.394 . S
C662 C668 1.465 . S
C663 C658 1.399 . S
C663 C662 1.394 . S
C663 C664 1.516 . S
C664 C663 1.516 . S
C664 C665 1.502 . S
C664 C666 1.561 . S
C664 C667 1.526 . S
C665 H649 0.959 . S
C665 H650 0.959 . S
C665 H651 0.961 . S
C665 C664 1.502 . S
C666 H652 0.960 . S
C666 H653 0.961 . S
C666 H654 0.959 . S
C666 C664 1.561 . S
C667 C664 1.526 . S
C667 C668 1.396 . S
C667 C672 1.390 . S
C668 C662 1.465 . S
C668 C667 1.396 . S
C668 C669 1.399 . S
C669 H655 0.929 . S
C669 C668 1.399 . S
C669 C670 1.385 . S
C670 H656 0.931 . S
C670 C669 1.385 . S
C670 C671 1.389 . S
C671 C670 1.389 . S
C671 C672 1.387 . S
C672 H657 0.930 . S
C672 C667 1.390 . S
C672 C671 1.387 . S
H673 C685 0.930 . S
H674 C687 0.930 . S
H675 C688 0.930 . S
H676 C692 0.959 . S
H677 C692 0.959 . S
H678 C692 0.961 . S
H679 C693 0.960 . S
H680 C693 0.961 . S
H681 C693 0.959 . S
H682 C696 0.929 . S
H683 C697 0.931 . S
H684 C699 0.930 . S
C685 H673 0.930 . S
C685 C686 1.399 1_545 S
C685 C690 1.399 . S
C686 C685 1.399 1_565 S
C686 C687 1.376 . S
C687 H674 0.930 . S
C687 C686 1.376 . S
C687 C688 1.388 . S
C688 H675 0.930 . S
C688 C687 1.388 . S
C688 C689 1.390 1_565 S
C689 C688 1.390 1_545 S
C689 C690 1.394 . S
C689 C695 1.465 . S
C690 C685 1.399 . S
C690 C689 1.394 . S
C690 C691 1.516 . S
C691 C690 1.516 . S
C691 C692 1.502 . S
C691 C693 1.561 . S
C691 C694 1.526 . S
C692 H676 0.959 . S
C692 H677 0.959 . S
C692 H678 0.961 . S
C692 C691 1.502 . S
C693 H679 0.960 . S
C693 H680 0.961 . S
C693 H681 0.959 . S
C693 C691 1.561 . S
C694 C691 1.526 . S
C694 C695 1.396 . S
C694 C699 1.390 . S
C695 C689 1.465 . S
C695 C694 1.396 . S
C695 C696 1.399 . S
C696 H682 0.929 . S
C696 C695 1.399 . S
C696 C697 1.385 . S
C697 H683 0.931 . S
C697 C696 1.385 . S
C697 C698 1.389 . S
C698 C697 1.389 . S
C698 C699 1.387 . S
C699 H684 0.930 . S
C699 C694 1.390 . S
C699 C698 1.387 . S
H700 C712 0.930 1_565 S
H701 C714 0.930 . S
H702 C715 0.930 . S
H703 C719 0.959 . S
H704 C719 0.959 . S
H705 C719 0.961 . S
H706 C720 0.960 . S
H707 C720 0.961 . S
H708 C720 0.959 . S
H709 C723 0.929 . S
H710 C724 0.931 . S
H711 C726 0.930 . S
C712 H700 0.930 1_545 S
C712 C713 1.399 . S
C712 C717 1.399 1_545 S
C713 C712 1.399 . S
C713 C714 1.376 . S
C714 H701 0.930 . S
C714 C713 1.376 . S
C714 C715 1.388 . S
C715 H702 0.930 . S
C715 C714 1.388 . S
C715 C716 1.390 1_545 S
C716 C715 1.390 1_565 S
C716 C717 1.394 . S
C716 C722 1.465 . S
C717 C712 1.399 1_565 S
C717 C716 1.394 . S
C717 C718 1.516 . S
C718 C717 1.516 . S
C718 C719 1.502 . S
C718 C720 1.561 . S
C718 C721 1.526 . S
C719 H703 0.959 . S
C719 H704 0.959 . S
C719 H705 0.961 . S
C719 C718 1.502 . S
C720 H706 0.960 . S
C720 H707 0.961 . S
C720 H708 0.959 . S
C720 C718 1.561 . S
C721 C718 1.526 . S
C721 C722 1.396 . S
C721 C726 1.390 . S
C722 C716 1.465 . S
C722 C721 1.396 . S
C722 C723 1.399 . S
C723 H709 0.929 . S
C723 C722 1.399 . S
C723 C724 1.385 . S
C724 H710 0.931 . S
C724 C723 1.385 . S
C724 C725 1.389 . S
C725 C724 1.389 . S
C725 C726 1.387 . S
C726 H711 0.930 . S
C726 C721 1.390 . S
C726 C725 1.387 . S
H727 C739 0.930 . S
H728 C741 0.930 . S
H729 C742 0.930 . S
H730 C746 0.959 . S
H731 C746 0.959 . S
H732 C746 0.961 . S
H733 C747 0.960 . S
H734 C747 0.961 . S
H735 C747 0.959 . S
H736 C750 0.929 . S
H737 C751 0.931 . S
H738 C753 0.930 . S
C739 H727 0.930 . S
C739 C740 1.399 . S
C739 C744 1.399 . S
C740 C739 1.399 . S
C740 C741 1.376 . S
C741 H728 0.930 . S
C741 C740 1.376 . S
C741 C742 1.388 . S
C742 H729 0.930 . S
C742 C741 1.388 . S
C742 C743 1.390 . S
C743 C742 1.390 . S
C743 C744 1.394 . S
C743 C749 1.465 . S
C744 C739 1.399 . S
C744 C743 1.394 . S
C744 C745 1.516 . S
C745 C744 1.516 . S
C745 C746 1.502 . S
C745 C747 1.561 . S
C745 C748 1.526 . S
C746 H730 0.959 . S
C746 H731 0.959 . S
C746 H732 0.961 . S
C746 C745 1.502 . S
C747 H733 0.960 . S
C747 H734 0.961 . S
C747 H735 0.959 . S
C747 C745 1.561 . S
C748 C745 1.526 . S
C748 C749 1.396 . S
C748 C753 1.390 . S
C749 C743 1.465 . S
C749 C748 1.396 . S
C749 C750 1.399 . S
C750 H736 0.929 . S
C750 C749 1.399 . S
C750 C751 1.385 . S
C751 H737 0.931 . S
C751 C750 1.385 . S
C751 C752 1.389 . S
C752 C751 1.389 . S
C752 C753 1.387 . S
C753 H738 0.930 . S
C753 C748 1.390 . S
C753 C752 1.387 . S
H754 C766 0.930 . S
H755 C768 0.930 . S
H756 C769 0.930 . S
H757 C773 0.959 . S
H758 C773 0.959 . S
H759 C773 0.961 . S
H760 C774 0.960 . S
H761 C774 0.961 . S
H762 C774 0.959 . S
H763 C777 0.929 . S
H764 C778 0.931 . S
H765 C780 0.930 . S
C766 H754 0.930 . S
C766 C767 1.399 . S
C766 C771 1.399 . S
C767 C766 1.399 . S
C767 C768 1.376 . S
C768 H755 0.930 . S
C768 C767 1.376 . S
C768 C769 1.388 . S
C769 H756 0.930 . S
C769 C768 1.388 . S
C769 C770 1.390 . S
C770 C769 1.390 . S
C770 C771 1.394 . S
C770 C776 1.465 . S
C771 C766 1.399 . S
C771 C770 1.394 . S
C771 C772 1.516 . S
C772 C771 1.516 . S
C772 C773 1.502 . S
C772 C774 1.561 . S
C772 C775 1.526 . S
C773 H757 0.959 . S
C773 H758 0.959 . S
C773 H759 0.961 . S
C773 C772 1.502 . S
C774 H760 0.960 . S
C774 H761 0.961 . S
C774 H762 0.959 . S
C774 C772 1.561 . S
C775 C772 1.526 . S
C775 C776 1.396 . S
C775 C780 1.390 . S
C776 C770 1.465 . S
C776 C775 1.396 . S
C776 C777 1.399 . S
C777 H763 0.929 . S
C777 C776 1.399 . S
C777 C778 1.385 . S
C778 H764 0.931 . S
C778 C777 1.385 . S
C778 C779 1.389 . S
C779 C778 1.389 . S
C779 C780 1.387 . S
C780 H765 0.930 . S
C780 C775 1.390 . S
C780 C779 1.387 . S
H781 C793 0.930 . S
H782 C795 0.930 . S
H783 C796 0.930 . S
H784 C800 0.959 . S
H785 C800 0.959 . S
H786 C800 0.961 . S
H787 C801 0.960 . S
H788 C801 0.961 . S
H789 C801 0.959 . S
H790 C804 0.929 . S
H791 C805 0.931 . S
H792 C807 0.930 . S
C793 H781 0.930 . S
C793 C794 1.399 1_565 S
C793 C798 1.399 . S
C794 C793 1.399 1_545 S
C794 C795 1.376 . S
C795 H782 0.930 . S
C795 C794 1.376 . S
C795 C796 1.388 . S
C796 H783 0.930 . S
C796 C795 1.388 . S
C796 C797 1.390 1_545 S
C797 C796 1.390 1_565 S
C797 C798 1.394 . S
C797 C803 1.465 . S
C798 C793 1.399 . S
C798 C797 1.394 . S
C798 C799 1.516 . S
C799 C798 1.516 . S
C799 C800 1.502 . S
C799 C801 1.561 . S
C799 C802 1.526 . S
C800 H784 0.959 . S
C800 H785 0.959 . S
C800 H786 0.961 . S
C800 C799 1.502 . S
C801 H787 0.960 . S
C801 H788 0.961 . S
C801 H789 0.959 . S
C801 C799 1.561 . S
C802 C799 1.526 . S
C802 C803 1.396 . S
C802 C807 1.390 . S
C803 C797 1.465 . S
C803 C802 1.396 . S
C803 C804 1.399 . S
C804 H790 0.929 . S
C804 C803 1.399 . S
C804 C805 1.385 . S
C805 H791 0.931 . S
C805 C804 1.385 . S
C805 C806 1.389 . S
C806 C805 1.389 . S
C806 C807 1.387 . S
C807 H792 0.930 . S
C807 C802 1.390 . S
C807 C806 1.387 . S
H808 C820 0.930 . S
H809 C822 0.930 1_556 S
H810 C823 0.930 . S
H811 C827 0.959 . S
H812 C827 0.959 . S
H813 C827 0.961 . S
H814 C828 0.960 . S
H815 C828 0.961 . S
H816 C828 0.959 . S
H817 C831 0.929 . S
H818 C832 0.931 . S
H819 C834 0.930 . S
C820 H808 0.930 . S
C820 C821 1.399 1_554 S
C820 C825 1.399 . S
C821 C820 1.399 1_556 S
C821 C822 1.376 1_556 S
C822 H809 0.930 1_554 S
C822 C821 1.376 1_554 S
C822 C823 1.388 . S
C823 H810 0.930 . S
C823 C822 1.388 . S
C823 C824 1.390 . S
C824 C823 1.390 . S
C824 C825 1.394 . S
C824 C830 1.465 . S
C825 C820 1.399 . S
C825 C824 1.394 . S
C825 C826 1.516 . S
C826 C825 1.516 . S
C826 C827 1.502 . S
C826 C828 1.561 . S
C826 C829 1.526 . S
C827 H811 0.959 . S
C827 H812 0.959 . S
C827 H813 0.961 . S
C827 C826 1.502 . S
C828 H814 0.960 . S
C828 H815 0.961 . S
C828 H816 0.959 . S
C828 C826 1.561 . S
C829 C826 1.526 . S
C829 C830 1.396 . S
C829 C834 1.390 . S
C830 C824 1.465 . S
C830 C829 1.396 . S
C830 C831 1.399 . S
C831 H817 0.929 . S
C831 C830 1.399 . S
C831 C832 1.385 . S
C832 H818 0.931 . S
C832 C831 1.385 . S
C832 C833 1.389 . S
C833 C832 1.389 . S
C833 C834 1.387 . S
C834 H819 0.930 . S
C834 C829 1.390 . S
C834 C833 1.387 . S
H835 C847 0.930 . S
H836 C849 0.930 . S
H837 C850 0.930 . S
H838 C854 0.959 . S
H839 C854 0.959 . S
H840 C854 0.961 . S
H841 C855 0.960 . S
H842 C855 0.961 . S
H843 C855 0.959 . S
H844 C858 0.929 . S
H845 C859 0.931 . S
H846 C861 0.930 . S
C847 H835 0.930 . S
C847 C848 1.399 . S
C847 C852 1.399 . S
C848 C847 1.399 . S
C848 C849 1.376 . S
C849 H836 0.930 . S
C849 C848 1.376 . S
C849 C850 1.388 . S
C850 H837 0.930 . S
C850 C849 1.388 . S
C850 C851 1.390 . S
C851 C850 1.390 . S
C851 C852 1.394 . S
C851 C857 1.465 . S
C852 C847 1.399 . S
C852 C851 1.394 . S
C852 C853 1.516 . S
C853 C852 1.516 . S
C853 C854 1.502 . S
C853 C855 1.561 . S
C853 C856 1.526 . S
C854 H838 0.959 . S
C854 H839 0.959 . S
C854 H840 0.961 . S
C854 C853 1.502 . S
C855 H841 0.960 . S
C855 H842 0.961 . S
C855 H843 0.959 . S
C855 C853 1.561 . S
C856 C853 1.526 . S
C856 C857 1.396 . S
C856 C861 1.390 . S
C857 C851 1.465 . S
C857 C856 1.396 . S
C857 C858 1.399 . S
C858 H844 0.929 . S
C858 C857 1.399 . S
C858 C859 1.385 . S
C859 H845 0.931 . S
C859 C858 1.385 . S
C859 C860 1.389 . S
C860 C859 1.389 . S
C860 C861 1.387 . S
C861 H846 0.930 . S
C861 C856 1.390 . S
C861 C860 1.387 . S
H862 C874 0.930 . S
H863 C876 0.930 . S
H864 C877 0.930 . S
H865 C881 0.959 . S
H866 C881 0.959 . S
H867 C881 0.961 . S
H868 C882 0.960 . S
H869 C882 0.961 . S
H870 C882 0.959 . S
H871 C885 0.929 . S
H872 C886 0.931 . S
H873 C888 0.930 . S
C874 H862 0.930 . S
C874 C875 1.399 1_556 S
C874 C879 1.399 . S
C875 C874 1.399 1_554 S
C875 C876 1.376 . S
C876 H863 0.930 . S
C876 C875 1.376 . S
C876 C877 1.388 1_554 S
C877 H864 0.930 . S
C877 C876 1.388 1_556 S
C877 C878 1.390 . S
C878 C877 1.390 . S
C878 C879 1.394 . S
C878 C884 1.465 . S
C879 C874 1.399 . S
C879 C878 1.394 . S
C879 C880 1.516 . S
C880 C879 1.516 . S
C880 C881 1.502 . S
C880 C882 1.561 . S
C880 C883 1.526 . S
C881 H865 0.959 . S
C881 H866 0.959 . S
C881 H867 0.961 . S
C881 C880 1.502 . S
C882 H868 0.960 . S
C882 H869 0.961 . S
C882 H870 0.959 . S
C882 C880 1.561 . S
C883 C880 1.526 . S
C883 C884 1.396 . S
C883 C888 1.390 . S
C884 C878 1.465 . S
C884 C883 1.396 . S
C884 C885 1.399 . S
C885 H871 0.929 . S
C885 C884 1.399 . S
C885 C886 1.385 . S
C886 H872 0.931 . S
C886 C885 1.385 . S
C886 C887 1.389 . S
C887 C886 1.389 . S
C887 C888 1.387 . S
C888 H873 0.930 . S
C888 C883 1.390 . S
C888 C887 1.387 . S
H889 C901 0.930 . S
H890 C903 0.930 . S
H891 C904 0.930 . S
H892 C908 0.959 . S
H893 C908 0.959 . S
H894 C908 0.961 . S
H895 C909 0.960 . S
H896 C909 0.961 . S
H897 C909 0.959 . S
H898 C912 0.929 . S
H899 C913 0.931 . S
H900 C915 0.930 . S
C901 H889 0.930 . S
C901 C902 1.399 . S
C901 C906 1.399 . S
C902 C901 1.399 . S
C902 C903 1.376 . S
C903 H890 0.930 . S
C903 C902 1.376 . S
C903 C904 1.388 . S
C904 H891 0.930 . S
C904 C903 1.388 . S
C904 C905 1.390 . S
C905 C904 1.390 . S
C905 C906 1.394 . S
C905 C911 1.465 . S
C906 C901 1.399 . S
C906 C905 1.394 . S
C906 C907 1.516 . S
C907 C906 1.516 . S
C907 C908 1.502 . S
C907 C909 1.561 . S
C907 C910 1.526 . S
C908 H892 0.959 . S
C908 H893 0.959 . S
C908 H894 0.961 . S
C908 C907 1.502 . S
C909 H895 0.960 . S
C909 H896 0.961 . S
C909 H897 0.959 . S
C909 C907 1.561 . S
C910 C907 1.526 . S
C910 C911 1.396 . S
C910 C915 1.390 . S
C911 C905 1.465 . S
C911 C910 1.396 . S
C911 C912 1.399 . S
C912 H898 0.929 . S
C912 C911 1.399 . S
C912 C913 1.385 . S
C913 H899 0.931 . S
C913 C912 1.385 . S
C913 C914 1.389 . S
C914 C913 1.389 . S
C914 C915 1.387 . S
C915 H900 0.930 . S
C915 C910 1.390 . S
C915 C914 1.387 . S
H916 C928 0.930 . S
H917 C930 0.930 1_554 S
H918 C931 0.930 . S
H919 C935 0.959 . S
H920 C935 0.959 . S
H921 C935 0.961 . S
H922 C936 0.960 . S
H923 C936 0.961 . S
H924 C936 0.959 . S
H925 C939 0.929 . S
H926 C940 0.931 . S
H927 C942 0.930 . S
C928 H916 0.930 . S
C928 C929 1.399 1_556 S
C928 C933 1.399 . S
C929 C928 1.399 1_554 S
C929 C930 1.376 1_554 S
C930 H917 0.930 1_556 S
C930 C929 1.376 1_556 S
C930 C931 1.388 . S
C931 H918 0.930 . S
C931 C930 1.388 . S
C931 C932 1.390 . S
C932 C931 1.390 . S
C932 C933 1.394 . S
C932 C938 1.465 . S
C933 C928 1.399 . S
C933 C932 1.394 . S
C933 C934 1.516 . S
C934 C933 1.516 . S
C934 C935 1.502 . S
C934 C936 1.561 . S
C934 C937 1.526 . S
C935 H919 0.959 . S
C935 H920 0.959 . S
C935 H921 0.961 . S
C935 C934 1.502 . S
C936 H922 0.960 . S
C936 H923 0.961 . S
C936 H924 0.959 . S
C936 C934 1.561 . S
C937 C934 1.526 . S
C937 C938 1.396 . S
C937 C942 1.390 . S
C938 C932 1.465 . S
C938 C937 1.396 . S
C938 C939 1.399 . S
C939 H925 0.929 . S
C939 C938 1.399 . S
C939 C940 1.385 . S
C940 H926 0.931 . S
C940 C939 1.385 . S
C940 C941 1.389 . S
C941 C940 1.389 . S
C941 C942 1.387 . S
C942 H927 0.930 . S
C942 C937 1.390 . S
C942 C941 1.387 . S
H943 C955 0.930 . S
H944 C957 0.930 . S
H945 C958 0.930 . S
H946 C962 0.959 . S
H947 C962 0.959 . S
H948 C962 0.961 . S
H949 C963 0.960 . S
H950 C963 0.961 . S
H951 C963 0.959 . S
H952 C966 0.929 . S
H953 C967 0.931 . S
H954 C969 0.930 . S
C955 H943 0.930 . S
C955 C956 1.399 . S
C955 C960 1.399 . S
C956 C955 1.399 . S
C956 C957 1.376 . S
C957 H944 0.930 . S
C957 C956 1.376 . S
C957 C958 1.388 . S
C958 H945 0.930 . S
C958 C957 1.388 . S
C958 C959 1.390 . S
C959 C958 1.390 . S
C959 C960 1.394 . S
C959 C965 1.465 . S
C960 C955 1.399 . S
C960 C959 1.394 . S
C960 C961 1.516 . S
C961 C960 1.516 . S
C961 C962 1.502 . S
C961 C963 1.561 . S
C961 C964 1.526 . S
C962 H946 0.959 . S
C962 H947 0.959 . S
C962 H948 0.961 . S
C962 C961 1.502 . S
C963 H949 0.960 . S
C963 H950 0.961 . S
C963 H951 0.959 . S
C963 C961 1.561 . S
C964 C961 1.526 . S
C964 C965 1.396 . S
C964 C969 1.390 . S
C965 C959 1.465 . S
C965 C964 1.396 . S
C965 C966 1.399 . S
C966 H952 0.929 . S
C966 C965 1.399 . S
C966 C967 1.385 . S
C967 H953 0.931 . S
C967 C966 1.385 . S
C967 C968 1.389 . S
C968 C967 1.389 . S
C968 C969 1.387 . S
C969 H954 0.930 . S
C969 C964 1.390 . S
C969 C968 1.387 . S
H970 C982 0.930 . S
H971 C984 0.930 1_556 S
H972 C985 0.930 . S
H973 C989 0.959 . S
H974 C989 0.959 . S
H975 C989 0.961 . S
H976 C990 0.960 . S
H977 C990 0.961 . S
H978 C990 0.959 . S
H979 C993 0.929 . S
H980 C994 0.931 . S
H981 C996 0.930 . S
C982 H970 0.930 . S
C982 C983 1.399 1_554 S
C982 C987 1.399 . S
C983 C982 1.399 1_556 S
C983 C984 1.376 1_556 S
C984 H971 0.930 1_554 S
C984 C983 1.376 1_554 S
C984 C985 1.388 . S
C985 H972 0.930 . S
C985 C984 1.388 . S
C985 C986 1.390 . S
C986 C985 1.390 . S
C986 C987 1.394 . S
C986 C992 1.465 . S
C987 C982 1.399 . S
C987 C986 1.394 . S
C987 C988 1.516 . S
C988 C987 1.516 . S
C988 C989 1.502 . S
C988 C990 1.561 . S
C988 C991 1.526 . S
C989 H973 0.959 . S
C989 H974 0.959 . S
C989 H975 0.961 . S
C989 C988 1.502 . S
C990 H976 0.960 . S
C990 H977 0.961 . S
C990 H978 0.959 . S
C990 C988 1.561 . S
C991 C988 1.526 . S
C991 C992 1.396 . S
C991 C996 1.390 . S
C992 C986 1.465 . S
C992 C991 1.396 . S
C992 C993 1.399 . S
C993 H979 0.929 . S
C993 C992 1.399 . S
C993 C994 1.385 . S
C994 H980 0.931 . S
C994 C993 1.385 . S
C994 C995 1.389 . S
C995 C994 1.389 . S
C995 C996 1.387 . S
C996 H981 0.930 . S
C996 C991 1.390 . S
C996 C995 1.387 . S
H997 C1009 0.930 . S
H998 C1011 0.930 . S
H999 C1012 0.930 . S
H1000 C1016 0.959 . S
H1001 C1016 0.959 . S
H1002 C1016 0.961 . S
H1003 C1017 0.960 . S
H1004 C1017 0.961 . S
H1005 C1017 0.959 . S
H1006 C1020 0.929 . S
H1007 C1021 0.931 . S
H1008 C1023 0.930 . S
C1009 H997 0.930 . S
C1009 C1010 1.399 . S
C1009 C1014 1.399 . S
C1010 C1009 1.399 . S
C1010 C1011 1.376 . S
C1011 H998 0.930 . S
C1011 C1010 1.376 . S
C1011 C1012 1.388 . S
C1012 H999 0.930 . S
C1012 C1011 1.388 . S
C1012 C1013 1.390 . S
C1013 C1012 1.390 . S
C1013 C1014 1.394 . S
C1013 C1019 1.465 . S
C1014 C1009 1.399 . S
C1014 C1013 1.394 . S
C1014 C1015 1.516 . S
C1015 C1014 1.516 . S
C1015 C1016 1.502 . S
C1015 C1017 1.561 . S
C1015 C1018 1.526 . S
C1016 H1000 0.959 . S
C1016 H1001 0.959 . S
C1016 H1002 0.961 . S
C1016 C1015 1.502 . S
C1017 H1003 0.960 . S
C1017 H1004 0.961 . S
C1017 H1005 0.959 . S
C1017 C1015 1.561 . S
C1018 C1015 1.526 . S
C1018 C1019 1.396 . S
C1018 C1023 1.390 . S
C1019 C1013 1.465 . S
C1019 C1018 1.396 . S
C1019 C1020 1.399 . S
C1020 H1006 0.929 . S
C1020 C1019 1.399 . S
C1020 C1021 1.385 . S
C1021 H1007 0.931 . S
C1021 C1020 1.385 . S
C1021 C1022 1.389 . S
C1022 C1021 1.389 . S
C1022 C1023 1.387 . S
C1023 H1008 0.930 . S
C1023 C1018 1.390 . S
C1023 C1022 1.387 . S
H1024 C1036 0.930 . S
H1025 C1038 0.930 . S
H1026 C1039 0.930 . S
H1027 C1043 0.959 . S
H1028 C1043 0.959 . S
H1029 C1043 0.961 . S
H1030 C1044 0.960 . S
H1031 C1044 0.961 . S
H1032 C1044 0.959 . S
H1033 C1047 0.929 . S
H1034 C1048 0.931 . S
H1035 C1050 0.930 . S
C1036 H1024 0.930 . S
C1036 C1037 1.399 . S
C1036 C1041 1.399 . S
C1037 C1036 1.399 . S
C1037 C1038 1.376 . S
C1038 H1025 0.930 . S
C1038 C1037 1.376 . S
C1038 C1039 1.388 . S
C1039 H1026 0.930 . S
C1039 C1038 1.388 . S
C1039 C1040 1.390 . S
C1040 C1039 1.390 . S
C1040 C1041 1.394 . S
C1040 C1046 1.465 . S
C1041 C1036 1.399 . S
C1041 C1040 1.394 . S
C1041 C1042 1.516 . S
C1042 C1041 1.516 . S
C1042 C1043 1.502 . S
C1042 C1044 1.561 . S
C1042 C1045 1.526 . S
C1043 H1027 0.959 . S
C1043 H1028 0.959 . S
C1043 H1029 0.961 . S
C1043 C1042 1.502 . S
C1044 H1030 0.960 . S
C1044 H1031 0.961 . S
C1044 H1032 0.959 . S
C1044 C1042 1.561 . S
C1045 C1042 1.526 . S
C1045 C1046 1.396 . S
C1045 C1050 1.390 . S
C1046 C1040 1.465 . S
C1046 C1045 1.396 . S
C1046 C1047 1.399 . S
C1047 H1033 0.929 . S
C1047 C1046 1.399 . S
C1047 C1048 1.385 . S
C1048 H1034 0.931 . S
C1048 C1047 1.385 . S
C1048 C1049 1.389 . S
C1049 C1048 1.389 . S
C1049 C1050 1.387 . S
C1050 H1035 0.930 . S
C1050 C1045 1.390 . S
C1050 C1049 1.387 . S
H1051 C1063 0.930 . S
H1052 C1065 0.930 . S
H1053 C1066 0.930 . S
H1054 C1070 0.959 . S
H1055 C1070 0.959 . S
H1056 C1070 0.961 . S
H1057 C1071 0.960 . S
H1058 C1071 0.961 . S
H1059 C1071 0.959 . S
H1060 C1074 0.929 . S
H1061 C1075 0.931 . S
H1062 C1077 0.930 . S
C1063 H1051 0.930 . S
C1063 C1064 1.399 . S
C1063 C1068 1.399 . S
C1064 C1063 1.399 . S
C1064 C1065 1.376 . S
C1065 H1052 0.930 . S
C1065 C1064 1.376 . S
C1065 C1066 1.388 . S
C1066 H1053 0.930 . S
C1066 C1065 1.388 . S
C1066 C1067 1.390 . S
C1067 C1066 1.390 . S
C1067 C1068 1.394 . S
C1067 C1073 1.465 . S
C1068 C1063 1.399 . S
C1068 C1067 1.394 . S
C1068 C1069 1.516 . S
C1069 C1068 1.516 . S
C1069 C1070 1.502 . S
C1069 C1071 1.561 . S
C1069 C1072 1.526 . S
C1070 H1054 0.959 . S
C1070 H1055 0.959 . S
C1070 H1056 0.961 . S
C1070 C1069 1.502 . S
C1071 H1057 0.960 . S
C1071 H1058 0.961 . S
C1071 H1059 0.959 . S
C1071 C1069 1.561 . S
C1072 C1069 1.526 . S
C1072 C1073 1.396 . S
C1072 C1077 1.390 . S
C1073 C1067 1.465 . S
C1073 C1072 1.396 . S
C1073 C1074 1.399 . S
C1074 H1060 0.929 . S
C1074 C1073 1.399 . S
C1074 C1075 1.385 . S
C1075 H1061 0.931 . S
C1075 C1074 1.385 . S
C1075 C1076 1.389 . S
C1076 C1075 1.389 . S
C1076 C1077 1.387 . S
C1077 H1062 0.930 . S
C1077 C1072 1.390 . S
C1077 C1076 1.387 . S
H1078 C1090 0.930 . S
H1079 C1092 0.930 . S
H1080 C1093 0.930 . S
H1081 C1097 0.959 . S
H1082 C1097 0.959 . S
H1083 C1097 0.961 . S
H1084 C1098 0.960 . S
H1085 C1098 0.961 . S
H1086 C1098 0.959 . S
H1087 C1101 0.929 . S
H1088 C1102 0.931 . S
H1089 C1104 0.930 . S
C1090 H1078 0.930 . S
C1090 C1091 1.399 . S
C1090 C1095 1.399 . S
C1091 C1090 1.399 . S
C1091 C1092 1.376 . S
C1092 H1079 0.930 . S
C1092 C1091 1.376 . S
C1092 C1093 1.388 . S
C1093 H1080 0.930 . S
C1093 C1092 1.388 . S
C1093 C1094 1.390 . S
C1094 C1093 1.390 . S
C1094 C1095 1.394 . S
C1094 C1100 1.465 . S
C1095 C1090 1.399 . S
C1095 C1094 1.394 . S
C1095 C1096 1.516 . S
C1096 C1095 1.516 . S
C1096 C1097 1.502 . S
C1096 C1098 1.561 . S
C1096 C1099 1.526 . S
C1097 H1081 0.959 . S
C1097 H1082 0.959 . S
C1097 H1083 0.961 . S
C1097 C1096 1.502 . S
C1098 H1084 0.960 . S
C1098 H1085 0.961 . S
C1098 H1086 0.959 . S
C1098 C1096 1.561 . S
C1099 C1096 1.526 . S
C1099 C1100 1.396 . S
C1099 C1104 1.390 . S
C1100 C1094 1.465 . S
C1100 C1099 1.396 . S
C1100 C1101 1.399 . S
C1101 H1087 0.929 . S
C1101 C1100 1.399 . S
C1101 C1102 1.385 . S
C1102 H1088 0.931 . S
C1102 C1101 1.385 . S
C1102 C1103 1.389 . S
C1103 C1102 1.389 . S
C1103 C1104 1.387 . S
C1104 H1089 0.930 . S
C1104 C1099 1.390 . S
C1104 C1103 1.387 . S
H1105 C1117 0.930 . S
H1106 C1119 0.930 . S
H1107 C1120 0.930 . S
H1108 C1124 0.959 . S
H1109 C1124 0.959 . S
H1110 C1124 0.961 . S
H1111 C1125 0.960 . S
H1112 C1125 0.961 . S
H1113 C1125 0.959 . S
H1114 C1128 0.929 . S
H1115 C1129 0.931 . S
H1116 C1131 0.930 . S
C1117 H1105 0.930 . S
C1117 C1118 1.399 . S
C1117 C1122 1.399 . S
C1118 C1117 1.399 . S
C1118 C1119 1.376 . S
C1119 H1106 0.930 . S
C1119 C1118 1.376 . S
C1119 C1120 1.388 . S
C1120 H1107 0.930 . S
C1120 C1119 1.388 . S
C1120 C1121 1.390 . S
C1121 C1120 1.390 . S
C1121 C1122 1.394 . S
C1121 C1127 1.465 . S
C1122 C1117 1.399 . S
C1122 C1121 1.394 . S
C1122 C1123 1.516 . S
C1123 C1122 1.516 . S
C1123 C1124 1.502 . S
C1123 C1125 1.561 . S
C1123 C1126 1.526 . S
C1124 H1108 0.959 . S
C1124 H1109 0.959 . S
C1124 H1110 0.961 . S
C1124 C1123 1.502 . S
C1125 H1111 0.960 . S
C1125 H1112 0.961 . S
C1125 H1113 0.959 . S
C1125 C1123 1.561 . S
C1126 C1123 1.526 . S
C1126 C1127 1.396 . S
C1126 C1131 1.390 . S
C1127 C1121 1.465 . S
C1127 C1126 1.396 . S
C1127 C1128 1.399 . S
C1128 H1114 0.929 . S
C1128 C1127 1.399 . S
C1128 C1129 1.385 . S
C1129 H1115 0.931 . S
C1129 C1128 1.385 . S
C1129 C1130 1.389 . S
C1130 C1129 1.389 . S
C1130 C1131 1.387 . S
C1131 H1116 0.930 . S
C1131 C1126 1.390 . S
C1131 C1130 1.387 . S
H1132 C1144 0.930 . S
H1133 C1146 0.930 . S
H1134 C1147 0.930 . S
H1135 C1151 0.959 . S
H1136 C1151 0.959 . S
H1137 C1151 0.961 . S
H1138 C1152 0.960 . S
H1139 C1152 0.961 . S
H1140 C1152 0.959 . S
H1141 C1155 0.929 . S
H1142 C1156 0.931 . S
H1143 C1158 0.930 . S
C1144 H1132 0.930 . S
C1144 C1145 1.399 . S
C1144 C1149 1.399 . S
C1145 C1144 1.399 . S
C1145 C1146 1.376 . S
C1146 H1133 0.930 . S
C1146 C1145 1.376 . S
C1146 C1147 1.388 . S
C1147 H1134 0.930 . S
C1147 C1146 1.388 . S
C1147 C1148 1.390 . S
C1148 C1147 1.390 . S
C1148 C1149 1.394 . S
C1148 C1154 1.465 . S
C1149 C1144 1.399 . S
C1149 C1148 1.394 . S
C1149 C1150 1.516 . S
C1150 C1149 1.516 . S
C1150 C1151 1.502 . S
C1150 C1152 1.561 . S
C1150 C1153 1.526 . S
C1151 H1135 0.959 . S
C1151 H1136 0.959 . S
C1151 H1137 0.961 . S
C1151 C1150 1.502 . S
C1152 H1138 0.960 . S
C1152 H1139 0.961 . S
C1152 H1140 0.959 . S
C1152 C1150 1.561 . S
C1153 C1150 1.526 . S
C1153 C1154 1.396 . S
C1153 C1158 1.390 . S
C1154 C1148 1.465 . S
C1154 C1153 1.396 . S
C1154 C1155 1.399 . S
C1155 H1141 0.929 . S
C1155 C1154 1.399 . S
C1155 C1156 1.385 . S
C1156 H1142 0.931 . S
C1156 C1155 1.385 . S
C1156 C1157 1.389 . S
C1157 C1156 1.389 . S
C1157 C1158 1.387 . S
C1158 H1143 0.930 . S
C1158 C1153 1.390 . S
C1158 C1157 1.387 . S
H1159 C1171 0.930 . S
H1160 C1173 0.930 . S
H1161 C1174 0.930 . S
H1162 C1178 0.959 . S
H1163 C1178 0.959 . S
H1164 C1178 0.961 . S
H1165 C1179 0.960 . S
H1166 C1179 0.961 . S
H1167 C1179 0.959 . S
H1168 C1182 0.929 . S
H1169 C1183 0.931 . S
H1170 C1185 0.930 . S
C1171 H1159 0.930 . S
C1171 C1172 1.399 . S
C1171 C1176 1.399 . S
C1172 C1171 1.399 . S
C1172 C1173 1.376 . S
C1173 H1160 0.930 . S
C1173 C1172 1.376 . S
C1173 C1174 1.388 . S
C1174 H1161 0.930 . S
C1174 C1173 1.388 . S
C1174 C1175 1.390 . S
C1175 C1174 1.390 . S
C1175 C1176 1.394 . S
C1175 C1181 1.465 . S
C1176 C1171 1.399 . S
C1176 C1175 1.394 . S
C1176 C1177 1.516 . S
C1177 C1176 1.516 . S
C1177 C1178 1.502 . S
C1177 C1179 1.561 . S
C1177 C1180 1.526 . S
C1178 H1162 0.959 . S
C1178 H1163 0.959 . S
C1178 H1164 0.961 . S
C1178 C1177 1.502 . S
C1179 H1165 0.960 . S
C1179 H1166 0.961 . S
C1179 H1167 0.959 . S
C1179 C1177 1.561 . S
C1180 C1177 1.526 . S
C1180 C1181 1.396 . S
C1180 C1185 1.390 . S
C1181 C1175 1.465 . S
C1181 C1180 1.396 . S
C1181 C1182 1.399 . S
C1182 H1168 0.929 . S
C1182 C1181 1.399 . S
C1182 C1183 1.385 . S
C1183 H1169 0.931 . S
C1183 C1182 1.385 . S
C1183 C1184 1.389 . S
C1184 C1183 1.389 . S
C1184 C1185 1.387 . S
C1185 H1170 0.930 . S
C1185 C1180 1.390 . S
C1185 C1184 1.387 . S
H1186 C1198 0.930 . S
H1187 C1200 0.930 . S
H1188 C1201 0.930 . S
H1189 C1205 0.959 . S
H1190 C1205 0.959 . S
H1191 C1205 0.961 . S
H1192 C1206 0.960 . S
H1193 C1206 0.961 . S
H1194 C1206 0.959 . S
H1195 C1209 0.929 . S
H1196 C1210 0.931 . S
H1197 C1212 0.930 . S
C1198 H1186 0.930 . S
C1198 C1199 1.399 . S
C1198 C1203 1.399 . S
C1199 C1198 1.399 . S
C1199 C1200 1.376 . S
C1200 H1187 0.930 . S
C1200 C1199 1.376 . S
C1200 C1201 1.388 . S
C1201 H1188 0.930 . S
C1201 C1200 1.388 . S
C1201 C1202 1.390 . S
C1202 C1201 1.390 . S
C1202 C1203 1.394 . S
C1202 C1208 1.465 . S
C1203 C1198 1.399 . S
C1203 C1202 1.394 . S
C1203 C1204 1.516 . S
C1204 C1203 1.516 . S
C1204 C1205 1.502 . S
C1204 C1206 1.561 . S
C1204 C1207 1.526 . S
C1205 H1189 0.959 . S
C1205 H1190 0.959 . S
C1205 H1191 0.961 . S
C1205 C1204 1.502 . S
C1206 H1192 0.960 . S
C1206 H1193 0.961 . S
C1206 H1194 0.959 . S
C1206 C1204 1.561 . S
C1207 C1204 1.526 . S
C1207 C1208 1.396 . S
C1207 C1212 1.390 . S
C1208 C1202 1.465 . S
C1208 C1207 1.396 . S
C1208 C1209 1.399 . S
C1209 H1195 0.929 . S
C1209 C1208 1.399 . S
C1209 C1210 1.385 . S
C1210 H1196 0.931 . S
C1210 C1209 1.385 . S
C1210 C1211 1.389 . S
C1211 C1210 1.389 . S
C1211 C1212 1.387 . S
C1212 H1197 0.930 . S
C1212 C1207 1.390 . S
C1212 C1211 1.387 . S
H1213 C1225 0.930 . S
H1214 C1227 0.930 . S
H1215 C1228 0.930 . S
H1216 C1232 0.959 . S
H1217 C1232 0.959 . S
H1218 C1232 0.961 . S
H1219 C1233 0.960 . S
H1220 C1233 0.961 . S
H1221 C1233 0.959 . S
H1222 C1236 0.929 . S
H1223 C1237 0.931 . S
H1224 C1239 0.930 . S
C1225 H1213 0.930 . S
C1225 C1226 1.399 . S
C1225 C1230 1.399 . S
C1226 C1225 1.399 . S
C1226 C1227 1.376 . S
C1227 H1214 0.930 . S
C1227 C1226 1.376 . S
C1227 C1228 1.388 . S
C1228 H1215 0.930 . S
C1228 C1227 1.388 . S
C1228 C1229 1.390 . S
C1229 C1228 1.390 . S
C1229 C1230 1.394 . S
C1229 C1235 1.465 . S
C1230 C1225 1.399 . S
C1230 C1229 1.394 . S
C1230 C1231 1.516 . S
C1231 C1230 1.516 . S
C1231 C1232 1.502 . S
C1231 C1233 1.561 . S
C1231 C1234 1.526 . S
C1232 H1216 0.959 . S
C1232 H1217 0.959 . S
C1232 H1218 0.961 . S
C1232 C1231 1.502 . S
C1233 H1219 0.960 . S
C1233 H1220 0.961 . S
C1233 H1221 0.959 . S
C1233 C1231 1.561 . S
C1234 C1231 1.526 . S
C1234 C1235 1.396 . S
C1234 C1239 1.390 . S
C1235 C1229 1.465 . S
C1235 C1234 1.396 . S
C1235 C1236 1.399 . S
C1236 H1222 0.929 . S
C1236 C1235 1.399 . S
C1236 C1237 1.385 . S
C1237 H1223 0.931 . S
C1237 C1236 1.385 . S
C1237 C1238 1.389 . S
C1238 C1237 1.389 . S
C1238 C1239 1.387 . S
C1239 H1224 0.930 . S
C1239 C1234 1.390 . S
C1239 C1238 1.387 . S
C605 C221 1.449 . S
C617 C330 1.444 . S
C644 C414 1.446 . S
C632 C241 1.444 . S
C671 C407 1.462 . S
C659 C157 1.460 . S
C686 C177 1.418 . S
C698 C323 1.488 . S
C725 C487 1.456 . S
C713 C93 1.399 . S
C752 C571 1.492 . S
C740 C113 1.472 . S
C767 C29 1.461 . S
C779 C564 1.463 . S
C794 C49 1.471 . S
C806 C480 1.488 . S
C833 C314 1.314 . S
C821 C61 1.506 . S
C860 C398 1.324 . S
C848 C17 1.453 . S
C887 C409 1.443 . S
C875 C125 1.524 . S
C914 C325 1.338 . S
C902 C81 1.487 . S
C941 C493 1.281 . S
C929 C189 1.482 . S
C956 C145 1.513 . S
C968 C577 1.399 . S
C995 C566 1.420 . S
C983 C253 1.504 . S
C1010 C209 1.530 . S
C1022 C482 1.382 . S
C1049 C312 1.562 . S
C1037 C23 1.505 . S
C1076 C396 1.574 . S
C1064 C55 1.531 . S
C1091 C87 1.476 . S
C1103 C403 1.516 . S
C1130 C319 1.521 . S
C1118 C119 1.517 . S
C1157 C491 1.543 . S
C1145 C151 1.549 . S
C1172 C183 1.464 . S
C1184 C575 1.570 . S
C1199 C215 1.525 . S
C1211 C582 1.549 . S
C1226 C247 1.536 . S
C1238 C498 1.558 . S
