# Generated by pormake.
# Topology ctn, (3,4)-cn, num edge types: 1
# Building blocks:
#     Node 0, Type 0, BuildingBlock: QEWDON_clean_linker_0, # of connection points: 3
#     Node 1, Type 0, BuildingBlock: QEWDON_clean_linker_0, # of connection points: 3
#     Node 2, Type 0, BuildingBlock: QEWDON_clean_linker_0, # of connection points: 3
#     Node 3, Type 0, BuildingBlock: QEWDON_clean_linker_0, # of connection points: 3
#     Node 4, Type 0, BuildingBlock: QEWDON_clean_linker_0, # of connection points: 3
#     Node 5, Type 0, BuildingBlock: QEWDON_clean_linker_0, # of connection points: 3
#     Node 6, Type 0, BuildingBlock: QEWDON_clean_linker_0, # of connection points: 3
#     Node 7, Type 0, BuildingBlock: QEWDON_clean_linker_0, # of connection points: 3
#     Node 8, Type 0, BuildingBlock: QEWDON_clean_linker_0, # of connection points: 3
#     Node 9, Type 0, BuildingBlock: QEWDON_clean_linker_0, # of connection points: 3
#     Node 10, Type 0, BuildingBlock: QEWDON_clean_linker_0, # of connection points: 3
#     Node 11, Type 0, BuildingBlock: QEWDON_clean_linker_0, # of connection points: 3
#     Node 12, Type 0, BuildingBlock: QEWDON_clean_linker_0, # of connection points: 3
#     Node 13, Type 0, BuildingBlock: QEWDON_clean_linker_0, # of connection points: 3
#     Node 14, Type 0, BuildingBlock: QEWDON_clean_linker_0, # of connection points: 3
#     Node 15, Type 0, BuildingBlock: QEWDON_clean_linker_0, # of connection points: 3
#     Node 16, Type 1, BuildingBlock: KUFVIS_clean_sbu_0, # of connection points: 4
#     Node 17, Type 1, BuildingBlock: KUFVIS_clean_sbu_0, # of connection points: 4
#     Node 18, Type 1, BuildingBlock: KUFVIS_clean_sbu_0, # of connection points: 4
#     Node 19, Type 1, BuildingBlock: KUFVIS_clean_sbu_0, # of connection points: 4
#     Node 20, Type 1, BuildingBlock: KUFVIS_clean_sbu_0, # of connection points: 4
#     Node 21, Type 1, BuildingBlock: KUFVIS_clean_sbu_0, # of connection points: 4
#     Node 22, Type 1, BuildingBlock: KUFVIS_clean_sbu_0, # of connection points: 4
#     Node 23, Type 1, BuildingBlock: KUFVIS_clean_sbu_0, # of connection points: 4
#     Node 24, Type 1, BuildingBlock: KUFVIS_clean_sbu_0, # of connection points: 4
#     Node 25, Type 1, BuildingBlock: KUFVIS_clean_sbu_0, # of connection points: 4
#     Node 26, Type 1, BuildingBlock: KUFVIS_clean_sbu_0, # of connection points: 4
#     Node 27, Type 1, BuildingBlock: KUFVIS_clean_sbu_0, # of connection points: 4
#     Edge 28, Type (0, 1), BuildingBlock: OJICUG_clean_linker_0, # of connection points: 2
#     Edge 29, Type (0, 1), BuildingBlock: OJICUG_clean_linker_0, # of connection points: 2
#     Edge 30, Type (0, 1), BuildingBlock: OJICUG_clean_linker_0, # of connection points: 2
#     Edge 31, Type (0, 1), BuildingBlock: OJICUG_clean_linker_0, # of connection points: 2
#     Edge 32, Type (0, 1), BuildingBlock: OJICUG_clean_linker_0, # of connection points: 2
#     Edge 33, Type (0, 1), BuildingBlock: OJICUG_clean_linker_0, # of connection points: 2
#     Edge 34, Type (0, 1), BuildingBlock: OJICUG_clean_linker_0, # of connection points: 2
#     Edge 35, Type (0, 1), BuildingBlock: OJICUG_clean_linker_0, # of connection points: 2
#     Edge 36, Type (0, 1), BuildingBlock: OJICUG_clean_linker_0, # of connection points: 2
#     Edge 37, Type (0, 1), BuildingBlock: OJICUG_clean_linker_0, # of connection points: 2
#     Edge 38, Type (0, 1), BuildingBlock: OJICUG_clean_linker_0, # of connection points: 2
#     Edge 39, Type (0, 1), BuildingBlock: OJICUG_clean_linker_0, # of connection points: 2
#     Edge 40, Type (0, 1), BuildingBlock: OJICUG_clean_linker_0, # of connection points: 2
#     Edge 41, Type (0, 1), BuildingBlock: OJICUG_clean_linker_0, # of connection points: 2
#     Edge 42, Type (0, 1), BuildingBlock: OJICUG_clean_linker_0, # of connection points: 2
#     Edge 43, Type (0, 1), BuildingBlock: OJICUG_clean_linker_0, # of connection points: 2
#     Edge 44, Type (0, 1), BuildingBlock: OJICUG_clean_linker_0, # of connection points: 2
#     Edge 45, Type (0, 1), BuildingBlock: OJICUG_clean_linker_0, # of connection points: 2
#     Edge 46, Type (0, 1), BuildingBlock: OJICUG_clean_linker_0, # of connection points: 2
#     Edge 47, Type (0, 1), BuildingBlock: OJICUG_clean_linker_0, # of connection points: 2
#     Edge 48, Type (0, 1), BuildingBlock: OJICUG_clean_linker_0, # of connection points: 2
#     Edge 49, Type (0, 1), BuildingBlock: OJICUG_clean_linker_0, # of connection points: 2
#     Edge 50, Type (0, 1), BuildingBlock: OJICUG_clean_linker_0, # of connection points: 2
#     Edge 51, Type (0, 1), BuildingBlock: OJICUG_clean_linker_0, # of connection points: 2
#     Edge 52, Type (0, 1), BuildingBlock: OJICUG_clean_linker_0, # of connection points: 2
#     Edge 53, Type (0, 1), BuildingBlock: OJICUG_clean_linker_0, # of connection points: 2
#     Edge 54, Type (0, 1), BuildingBlock: OJICUG_clean_linker_0, # of connection points: 2
#     Edge 55, Type (0, 1), BuildingBlock: OJICUG_clean_linker_0, # of connection points: 2
#     Edge 56, Type (0, 1), BuildingBlock: OJICUG_clean_linker_0, # of connection points: 2
#     Edge 57, Type (0, 1), BuildingBlock: OJICUG_clean_linker_0, # of connection points: 2
#     Edge 58, Type (0, 1), BuildingBlock: OJICUG_clean_linker_0, # of connection points: 2
#     Edge 59, Type (0, 1), BuildingBlock: OJICUG_clean_linker_0, # of connection points: 2
#     Edge 60, Type (0, 1), BuildingBlock: OJICUG_clean_linker_0, # of connection points: 2
#     Edge 61, Type (0, 1), BuildingBlock: OJICUG_clean_linker_0, # of connection points: 2
#     Edge 62, Type (0, 1), BuildingBlock: OJICUG_clean_linker_0, # of connection points: 2
#     Edge 63, Type (0, 1), BuildingBlock: OJICUG_clean_linker_0, # of connection points: 2
#     Edge 64, Type (0, 1), BuildingBlock: OJICUG_clean_linker_0, # of connection points: 2
#     Edge 65, Type (0, 1), BuildingBlock: OJICUG_clean_linker_0, # of connection points: 2
#     Edge 66, Type (0, 1), BuildingBlock: OJICUG_clean_linker_0, # of connection points: 2
#     Edge 67, Type (0, 1), BuildingBlock: OJICUG_clean_linker_0, # of connection points: 2
#     Edge 68, Type (0, 1), BuildingBlock: OJICUG_clean_linker_0, # of connection points: 2
#     Edge 69, Type (0, 1), BuildingBlock: OJICUG_clean_linker_0, # of connection points: 2
#     Edge 70, Type (0, 1), BuildingBlock: OJICUG_clean_linker_0, # of connection points: 2
#     Edge 71, Type (0, 1), BuildingBlock: OJICUG_clean_linker_0, # of connection points: 2
#     Edge 72, Type (0, 1), BuildingBlock: OJICUG_clean_linker_0, # of connection points: 2
#     Edge 73, Type (0, 1), BuildingBlock: OJICUG_clean_linker_0, # of connection points: 2
#     Edge 74, Type (0, 1), BuildingBlock: OJICUG_clean_linker_0, # of connection points: 2
#     Edge 75, Type (0, 1), BuildingBlock: OJICUG_clean_linker_0, # of connection points: 2
# Relax obj value: 0.131
# Max RMSD: 0.267
# Mean RMSD: 0.158
data_MOF--net-ctn--node1-KUFVIS_clean_sbu_0--node2-QEWDON_clean_linker_0--edge1-OJICUG_clean_linker_0
_symmetry_space_group_name_H-M    P1
_symmetry_Int_Tables_number       1
_symmetry_cell_setting            triclinic
loop_
_symmetry_equiv_pos_as_xyz
'x, y, z'
_cell_length_a     37.461997
_cell_length_b     39.337141
_cell_length_c     42.394398
_cell_angle_alpha  100.08643
_cell_angle_beta   92.704313
_cell_angle_gamma 97.224656
loop_
_atom_site_label
_atom_site_type_symbol
_atom_site_fract_x
_atom_site_fract_y
_atom_site_fract_z
_atom_type_partial_charge
H0 H 0.12807 0.02686 0.05313 0.0
C1 C 0.11268 0.02015 0.0727 0.0
C2 C 0.11361 0.98753 0.08209 0.0
C3 C 0.0941 0.04539 0.08974 0.0
H4 H 0.09637 0.95642 0.11751 0.0
C5 C 0.09533 0.98098 0.10959 0.0
C6 C 0.0762 1.00631 0.12708 0.0
C7 C 0.07549 0.03802 0.11613 0.0
C8 C 0.09804 0.08145 0.08322 0.0
H9 H 0.06063 0.05773 0.12829 0.0
C10 C 0.08363 0.08953 0.05449 0.0
C11 C 0.08692 0.1245 0.05009 0.0
C12 C 0.11589 0.10844 0.10702 0.0
H13 H 0.12713 0.10278 0.12925 0.0
C14 C 0.11953 0.14288 0.10239 0.0
H15 H 0.06956 0.06898 0.03606 0.0
C16 C 0.10511 0.15091 0.07414 0.0
H17 H 0.10799 0.17787 0.07105 0.0
H18 H 0.13343 0.16345 0.12085 0.0
H19 H 0.44336 0.72797 0.2387 0.0
C20 C 0.416 0.71513 0.2384 0.0
C21 C 0.40871 0.69205 0.25967 0.0
C22 C 0.38848 0.72339 0.21847 0.0
H23 H 0.36868 0.65492 0.2741 0.0
C24 C 0.37425 0.67319 0.25799 0.0
C25 C 0.34663 0.6787 0.23649 0.0
C26 C 0.35372 0.70425 0.21712 0.0
C27 C 0.39635 0.75386 0.20169 0.0
H28 H 0.33181 0.71006 0.20225 0.0
C29 C 0.37778 0.75599 0.17241 0.0
C30 C 0.38686 0.78477 0.15714 0.0
C31 C 0.42293 0.78192 0.21569 0.0
H32 H 0.43641 0.7829 0.23903 0.0
C33 C 0.43238 0.80979 0.20019 0.0
H34 H 0.3566 0.73547 0.16131 0.0
C35 C 0.41473 0.81112 0.17099 0.0
H36 H 0.42179 0.83363 0.15989 0.0
H37 H 0.45304 0.83083 0.21123 0.0
H38 H 0.06353 0.50702 0.0631 0.0
C39 C 0.04148 0.5211 0.05803 0.0
C40 C 0.03049 0.54604 0.08231 0.0
C41 C 0.02608 0.51553 0.02658 0.0
H42 H 0.99557 0.58577 0.09237 0.0
C43 C 1.00339 0.5659 0.07402 0.0
C44 C 0.98681 0.56028 0.04219 0.0
C45 C 0.99847 0.53438 0.01907 0.0
C46 C 0.04122 0.49232 1.00071 0.0
H47 H 0.98619 0.52831 0.9948 0.0
C48 C 0.04311 0.45705 1.00216 0.0
C49 C 0.058 0.43557 0.97735 0.0
C50 C 0.05463 0.50604 0.97453 0.0
H51 H 0.05367 0.53314 0.97307 0.0
C52 C 0.06991 0.48511 0.95026 0.0
H53 H 0.03264 0.44636 0.02228 0.0
C54 C 0.07156 0.45017 0.95156 0.0
H55 H 0.08252 0.43432 0.9318 0.0
H56 H 0.0802 0.49594 0.93017 0.0
H57 H 0.76735 0.84597 0.24439 0.0
C58 C 0.76823 0.8364 0.21905 0.0
C59 C 0.7877 0.8563 0.19905 0.0
C60 C 0.75175 0.80225 0.20725 0.0
H61 H 0.80298 0.85445 0.14973 0.0
C62 C 0.78737 0.84138 0.16596 0.0
C63 C 0.76791 0.80833 0.15346 0.0
C64 C 0.75039 0.78907 0.17434 0.0
C65 C 0.74244 0.77803 0.22968 0.0
H66 H 0.73769 0.76258 0.16525 0.0
C67 C 0.7197 0.78575 0.25478 0.0
C68 C 0.71311 0.76268 0.2765 0.0
C69 C 0.75849 0.74727 0.22666 0.0
H70 H 0.77662 0.74108 0.20796 0.0
C71 C 0.75202 0.72452 0.24808 0.0
H72 H 0.70736 0.80948 0.2574 0.0
C73 C 0.72951 0.73208 0.2728 0.0
H74 H 0.72446 0.71361 0.28879 0.0
H75 H 0.76452 0.70091 0.24551 0.0
H76 H 0.15127 0.99814 0.51603 0.0
C77 C 0.1307 0.99994 0.49776 0.0
C78 C 0.13612 0.02657 0.47943 0.0
C79 C 0.10046 0.97378 0.49086 0.0
H80 H 0.11484 0.04658 0.43937 0.0
C81 C 0.11031 0.02706 0.45426 0.0
C82 C 0.07987 1.00142 0.44687 0.0
C83 C 0.07504 0.97505 0.46567 0.0
C84 C 0.10053 0.94098 0.50407 0.0
H85 H 0.05262 0.95425 0.45949 0.0
C86 C 0.07482 0.92961 0.52497 0.0
C87 C 0.07619 0.89739 0.5355 0.0
C88 C 0.12697 0.91989 0.49409 0.0
H89 H 0.14672 0.92784 0.478 0.0
C90 C 0.12799 0.88817 0.50416 0.0
H91 H 0.05437 0.94564 0.53308 0.0
C92 C 0.10287 0.87699 0.52461 0.0
H93 H 0.10455 0.85238 0.53239 0.0
H94 H 0.14847 0.87217 0.49612 0.0
H95 H 0.29965 0.65865 0.7863 0.0
C96 C 0.2928 0.67332 0.80879 0.0
C97 C 0.3106 0.66943 0.83762 0.0
C98 C 0.26683 0.69623 0.80844 0.0
H99 H 0.31649 0.68752 0.88912 0.0
C100 C 0.30209 0.68927 0.86682 0.0
C101 C 0.27562 0.71214 0.86698 0.0
C102 C 0.25765 0.71456 0.83773 0.0
C103 C 0.25294 0.70418 0.77733 0.0
H104 H 0.23826 0.73272 0.8376 0.0
C105 C 0.21639 0.70834 0.77123 0.0
C106 C 0.20484 0.7177 0.74207 0.0
C107 C 0.27738 0.70936 0.75384 0.0
H108 H 0.30569 0.70718 0.75797 0.0
C109 C 0.26595 0.71832 0.72505 0.0
H110 H 0.19719 0.70462 0.78906 0.0
C111 C 0.23005 0.72251 0.71918 0.0
H112 H 0.22189 0.72928 0.69647 0.0
H113 H 0.28509 0.72224 0.70724 0.0
H114 H 0.99421 0.60723 0.47516 0.0
C115 C 0.97522 0.58698 0.48179 0.0
C116 C 0.96439 0.59051 0.51357 0.0
C117 C 0.95881 0.55905 0.45795 0.0
H118 H 0.92775 0.56848 0.5449 0.0
C119 C 0.93768 0.56518 0.52127 0.0
C120 C 0.92202 0.53671 0.49805 0.0
C121 C 0.93318 0.53366 0.46673 0.0
C122 C 0.96337 0.55836 0.42306 0.0
H123 H 0.92038 0.5121 0.44855 0.0
C124 C 0.99751 0.56137 0.41009 0.0
C125 C 0.99973 0.55743 0.37643 0.0
C126 C 0.93207 0.55315 0.40207 0.0
H127 H 0.90553 0.55151 0.41127 0.0
C128 C 0.9344 0.54976 0.36903 0.0
H129 H 0.02193 0.56558 0.4258 0.0
C130 C 0.96794 0.55156 0.35625 0.0
H131 H 0.96913 0.54877 0.33044 0.0
H132 H 0.91007 0.54556 0.35325 0.0
H133 H 0.87839 0.86339 0.79745 0.0
C134 C 0.87443 0.84723 0.81556 0.0
C135 C 0.88973 0.81589 0.81293 0.0
C136 C 0.85446 0.85812 0.84183 0.0
H137 H 0.89509 0.77078 0.83497 0.0
C138 C 0.88396 0.79509 0.83695 0.0
C139 C 0.86335 0.80514 0.86316 0.0
C140 C 0.84953 0.83714 0.86541 0.0
C141 C 0.84141 0.89289 0.84706 0.0
H142 H 0.83482 0.84622 0.88593 0.0
C143 C 0.81869 0.90384 0.82407 0.0
C144 C 0.80629 0.93679 0.8312 0.0
C145 C 0.85139 0.91522 0.8767 0.0
H146 H 0.86891 0.9077 0.8946 0.0
C147 C 0.83904 0.94738 0.88375 0.0
H148 H 0.8108 0.88702 0.80107 0.0
C149 C 0.81668 0.95804 0.86134 0.0
H150 H 0.80739 0.9832 0.86765 0.0
H151 H 0.84686 0.96418 0.90675 0.0
H152 H 0.38242 0.35998 0.28988 0.0
C153 C 0.37759 0.34483 0.30866 0.0
C154 C 0.39208 0.31334 0.30763 0.0
C155 C 0.35737 0.35744 0.33409 0.0
H156 H 0.39591 0.26964 0.33176 0.0
C157 C 0.38533 0.29411 0.33259 0.0
C158 C 0.36491 0.30613 0.35846 0.0
C159 C 0.35171 0.3384 0.359 0.0
C160 C 0.34788 0.39339 0.33762 0.0
H161 H 0.33769 0.34947 0.37927 0.0
C162 C 0.31569 0.4014 0.3233 0.0
C163 C 0.30805 0.43632 0.32811 0.0
C164 C 0.37231 0.4203 0.35597 0.0
H165 H 0.39709 0.41469 0.36697 0.0
C166 C 0.36528 0.45462 0.36016 0.0
H167 H 0.29662 0.38071 0.30921 0.0
C168 C 0.3336 0.4626 0.34641 0.0
H169 H 0.32921 0.48967 0.34998 0.0
H170 H 0.3845 0.47521 0.37418 0.0
H171 H 0.56309 1.00966 0.56309 0.0
C172 C 0.54129 0.024 0.55797 0.0
C173 C 0.53057 0.04921 0.58216 0.0
C174 C 0.52596 0.01847 0.52649 0.0
H175 H 0.49626 0.08953 0.59198 0.0
C176 C 0.50388 0.06946 0.57373 0.0
C177 C 0.48747 0.06396 0.54185 0.0
C178 C 0.49875 0.0377 0.51886 0.0
C179 C 0.54083 0.99488 0.50071 0.0
H180 H 0.48649 0.03165 0.49458 0.0
C181 C 0.54267 0.95968 0.50254 0.0
C182 C 0.55744 0.93789 0.47789 0.0
C183 C 0.5541 1.00816 0.47426 0.0
H184 H 0.55319 0.0352 0.4725 0.0
C185 C 0.56919 0.98691 0.45011 0.0
H186 H 0.53232 0.9493 0.52287 0.0
C187 C 0.57084 0.95207 0.45182 0.0
H188 H 0.58172 0.93595 0.43218 0.0
H189 H 0.57938 0.9974 0.42982 0.0
H190 H 0.26456 0.34505 0.74202 0.0
C191 C 0.2654 0.336 0.7166 0.0
C192 C 0.28447 0.35659 0.69689 0.0
C193 C 0.24937 0.30178 0.70437 0.0
H194 H 0.29949 0.35583 0.64762 0.0
C195 C 0.28417 0.34225 0.66368 0.0
C196 C 0.26522 0.30909 0.65076 0.0
C197 C 0.24805 0.28918 0.67134 0.0
C198 C 0.24037 0.27703 0.72641 0.0
H199 H 0.23571 0.26265 0.66191 0.0
C200 C 0.21808 0.28437 0.75195 0.0
C201 C 0.21176 0.26082 0.77329 0.0
C202 C 0.25627 0.24616 0.7226 0.0
H203 H 0.27408 0.24024 0.70358 0.0
C204 C 0.25007 0.22293 0.74362 0.0
H205 H 0.20587 0.30818 0.75519 0.0
C206 C 0.228 0.23011 0.76875 0.0
H207 H 0.22313 0.21124 0.7844 0.0
H208 H 0.26244 0.19924 0.74042 0.0
H209 H 0.94549 0.23166 0.73578 0.0
C210 C 0.9178 0.21964 0.73534 0.0
C211 C 0.90963 0.19629 0.75622 0.0
C212 C 0.89083 0.22899 0.71552 0.0
H213 H 0.86848 0.15988 0.77012 0.0
C214 C 0.87471 0.17839 0.75434 0.0
C215 C 0.8475 0.1851 0.73309 0.0
C216 C 0.85557 0.21081 0.71405 0.0
C217 C 0.89985 0.25943 0.69887 0.0
H218 H 0.83404 0.21746 0.69931 0.0
C219 C 0.88117 0.26257 0.66993 0.0
C220 C 0.89114 0.29133 0.65482 0.0
C221 C 0.92761 0.28649 0.71264 0.0
H222 H 0.9413 0.28682 0.73575 0.0
C223 C 0.93798 0.31425 0.69724 0.0
H224 H 0.85917 0.24289 0.65898 0.0
C225 C 0.92011 0.31657 0.66841 0.0
H226 H 0.9279 0.33904 0.65745 0.0
H227 H 0.95951 0.33449 0.70811 0.0
H228 H 0.62569 0.52483 0.55241 0.0
C229 C 0.61005 0.51828 0.5719 0.0
C230 C 0.60989 0.48533 0.5808 0.0
C231 C 0.5924 0.544 0.58937 0.0
H232 H 0.5918 0.45404 0.6158 0.0
C233 C 0.59145 0.47888 0.60822 0.0
C234 C 0.57313 0.50465 0.62608 0.0
C235 C 0.57352 0.53675 0.61564 0.0
C236 C 0.59818 0.58033 0.58371 0.0
H237 H 0.55944 0.55691 0.62816 0.0
C238 C 0.58359 0.59001 0.55582 0.0
C239 C 0.58969 0.62507 0.55179 0.0
C240 C 0.61858 0.60585 0.60727 0.0
H241 H 0.62993 0.59891 0.62888 0.0
C242 C 0.62479 0.6404 0.60311 0.0
H243 H 0.56766 0.57056 0.53756 0.0
C244 C 0.61055 0.64998 0.57552 0.0
H245 H 0.61561 0.677 0.57275 0.0
H246 H 0.6407 0.65983 0.62134 0.0
H247 H 0.64837 0.4933 0.01376 0.0
C248 C 0.62796 0.49572 0.9956 0.0
C249 C 0.6335 0.52316 0.97818 0.0
C250 C 0.59785 0.46956 0.98779 0.0
H251 H 0.61263 0.54435 0.93864 0.0
C252 C 0.60796 0.52432 0.95296 0.0
C253 C 0.57765 0.49863 0.94472 0.0
C254 C 0.57272 0.47153 0.96264 0.0
C255 C 0.59791 0.43599 0.99956 0.0
H256 H 0.55045 0.45068 0.95575 0.0
C257 C 0.57376 0.42477 0.0217 0.0
C258 C 0.57441 0.39154 0.03033 0.0
C259 C 0.62229 0.4139 0.98661 0.0
H260 H 0.64082 0.42181 0.96952 0.0
C261 C 0.62269 0.38125 0.99494 0.0
H262 H 0.55488 0.44156 0.03202 0.0
C263 C 0.59895 0.37011 0.01651 0.0
H264 H 0.60007 0.34471 0.02283 0.0
H265 H 0.64154 0.36446 0.98461 0.0
H266 H 0.80166 0.15767 0.28798 0.0
C267 C 0.79449 0.17223 0.31042 0.0
C268 C 0.81226 0.16862 0.33934 0.0
C269 C 0.76828 0.19483 0.30985 0.0
H270 H 0.81799 0.1871 0.3908 0.0
C271 C 0.8035 0.18849 0.36844 0.0
C272 C 0.77669 0.21098 0.36839 0.0
C273 C 0.75866 0.213 0.33904 0.0
C274 C 0.75493 0.20292 0.27862 0.0
H275 H 0.73895 0.23078 0.33875 0.0
C276 C 0.71834 0.20639 0.27173 0.0
C277 C 0.70734 0.21575 0.2424 0.0
C278 C 0.77999 0.2089 0.25581 0.0
H279 H 0.80833 0.20726 0.26057 0.0
C280 C 0.76912 0.21789 0.22688 0.0
H281 H 0.69868 0.20209 0.28906 0.0
C282 C 0.73318 0.22132 0.2202 0.0
H283 H 0.72547 0.22809 0.19736 0.0
H284 H 0.78874 0.22241 0.2096 0.0
H285 H 0.49779 0.09837 0.971 0.0
C286 C 0.47948 0.07852 0.97896 0.0
C287 C 0.46755 0.0848 1.01036 0.0
C288 C 0.46531 0.04782 0.95714 0.0
H289 H 0.43055 0.06528 0.04261 0.0
C290 C 0.44136 0.06003 0.01944 0.0
C291 C 0.42898 0.0284 0.99892 0.0
C292 C 0.44165 0.02226 0.96815 0.0
C293 C 0.4705 0.04362 0.92192 0.0
H294 H 0.4312 0.99818 0.95194 0.0
C295 C 0.50444 0.05115 0.90938 0.0
C296 C 0.50756 0.04451 0.87573 0.0
C297 C 0.44004 0.03121 0.90024 0.0
H298 H 0.41344 0.02627 0.90882 0.0
C299 C 0.44319 0.02506 0.86724 0.0
H300 H 0.52821 0.06106 0.9255 0.0
C301 C 0.47668 0.03134 0.85506 0.0
H302 H 0.47844 0.02638 0.82925 0.0
H303 H 0.4195 0.01536 0.85101 0.0
Mn304 Mn 0.27271 0.85607 0.0229 0.0
Mn305 Mn 0.25544 0.8867 0.95545 0.0
C306 C 0.25094 0.81765 0.97536 0.0
C307 C 0.3079 0.83296 0.05846 0.0
C308 C 0.21163 0.89948 0.01427 0.0
O309 O 0.30524 0.90364 0.03023 0.0
O310 O 0.29512 0.91915 0.98177 0.0
C311 C 0.32347 0.87921 0.92368 0.0
N312 N 0.28701 0.87109 0.92345 0.0
C313 C 0.28465 0.83372 0.87175 0.0
C314 C 0.32214 0.84179 0.87138 0.0
C315 C 0.34163 0.86458 0.89749 0.0
C316 C 0.26802 0.84908 0.8985 0.0
H317 H 0.3386 0.89658 0.94375 0.0
C318 C 0.31159 0.92386 1.00977 0.0
O319 O 0.28112 0.84917 0.06758 0.0
O320 O 0.31572 0.83151 0.02873 0.0
N321 N 0.21805 0.85612 0.92837 0.0
C322 C 0.18246 0.84911 0.93346 0.0
C323 C 0.15932 0.82605 0.90995 0.0
C324 C 0.17298 0.8105 0.88146 0.0
C325 C 0.20973 0.81805 0.8768 0.0
C326 C 0.23147 0.84129 0.90104 0.0
H327 H 0.17182 0.86096 0.95532 0.0
O328 O 0.24427 0.80932 1.00304 0.0
O329 O 0.26729 0.84899 0.97694 0.0
O330 O 0.22727 0.87976 0.02948 0.0
O331 O 0.22049 0.9045 0.98652 0.0
C332 C 0.22572 0.80301 0.84927 0.0
C333 C 0.26319 0.81066 0.84683 0.0
H334 H 0.33627 0.83046 0.85129 0.0
H335 H 0.3706 0.87081 0.89746 0.0
H336 H 0.13102 0.82025 0.91378 0.0
H337 H 0.15508 0.7926 0.86344 0.0
H338 H 0.20952 0.78511 0.83004 0.0
H339 H 0.27527 0.79841 0.82581 0.0
Mn340 Mn 0.17163 0.54582 0.25026 0.0
Mn341 Mn 0.15276 0.62849 0.25885 0.0
C342 C 0.21223 0.58914 0.23563 0.0
C343 C 0.1992 0.50428 0.27361 0.0
C344 C 0.11781 0.5705 0.20458 0.0
O345 O 0.13093 0.54618 0.28088 0.0
O346 O 0.12387 0.60313 0.28804 0.0
C347 C 0.18337 0.65398 0.32575 0.0
N348 N 0.18237 0.65679 0.29416 0.0
C349 C 0.22969 0.70558 0.30468 0.0
C350 C 0.23095 0.70341 0.33736 0.0
C351 C 0.2077 0.67748 0.34793 0.0
C352 C 0.20458 0.68171 0.28374 0.0
H353 H 0.16591 0.63382 0.33395 0.0
C354 C 0.11671 0.5724 0.29451 0.0
O355 O 0.17549 0.49453 0.24923 0.0
O356 O 0.20573 0.53736 0.28458 0.0
N357 N 0.1797 0.65579 0.23251 0.0
C358 C 0.1771 0.65266 0.19993 0.0
C359 C 0.19949 0.67587 0.18536 0.0
C360 C 0.22434 0.702 0.2044 0.0
C361 C 0.22646 0.70479 0.23788 0.0
C362 C 0.20309 0.68124 0.2511 0.0
H363 H 0.15834 0.63242 0.18512 0.0
O364 O 0.21342 0.55661 0.22397 0.0
O365 O 0.18724 0.5951 0.25525 0.0
O366 O 0.13496 0.54626 0.21186 0.0
O367 O 0.12192 0.60139 0.22122 0.0
C368 C 0.25149 0.72945 0.25858 0.0
C369 C 0.25312 0.72984 0.29195 0.0
H370 H 0.24999 0.72121 0.35449 0.0
H371 H 0.20873 0.67544 0.37307 0.0
H372 H 0.19781 0.67344 0.1595 0.0
H373 H 0.24193 0.71952 0.19304 0.0
H374 H 0.27004 0.74784 0.24902 0.0
H375 H 0.27291 0.74851 0.30755 0.0
Mn376 Mn 0.81816 0.66298 0.99946 0.0
Mn377 Mn 0.74062 0.6823 0.96624 0.0
C378 C 0.76257 0.62658 0.99862 0.0
C379 C 0.87114 0.63662 1.00478 0.0
C380 C 0.77402 0.71942 0.03094 0.0
O381 O 0.83826 0.69674 0.96948 0.0
O382 O 0.78395 0.70849 0.95279 0.0
C383 C 0.75087 0.65282 0.89853 0.0
N384 N 0.73014 0.65496 0.92415 0.0
C385 C 0.67989 0.6191 0.89227 0.0
C386 C 0.70065 0.61658 0.86549 0.0
C387 C 0.73639 0.63331 0.86871 0.0
C388 C 0.69597 0.63844 0.92147 0.0
H389 H 0.77817 0.66605 0.90077 0.0
C390 C 0.81841 0.71307 0.95332 0.0
O391 O 0.8657 0.66484 0.02342 0.0
O392 O 0.84707 0.62466 0.98092 0.0
N393 N 0.69595 0.65886 0.97641 0.0
C394 C 0.68023 0.66235 1.00493 0.0
C395 C 0.6448 0.6462 1.00609 0.0
C396 C 0.62559 0.62747 0.9778 0.0
C397 C 0.64215 0.62476 0.94865 0.0
C398 C 0.6777 0.64087 0.94908 0.0
H399 H 0.69468 0.67727 0.02661 0.0
O400 O 0.78819 0.62795 0.02067 0.0
O401 O 0.76942 0.64703 0.97807 0.0
O402 O 0.80171 0.70381 0.02922 0.0
O403 O 0.74786 0.71215 1.00949 0.0
C404 C 0.62485 0.6066 0.91919 0.0
C405 C 0.64384 0.60332 0.89111 0.0
H406 H 0.68945 0.60182 0.84238 0.0
H407 H 0.75261 0.63145 0.84817 0.0
H408 H 0.6322 0.64846 0.02868 0.0
H409 H 0.5982 0.61519 0.97876 0.0
H410 H 0.59706 0.59468 0.91791 0.0
H411 H 0.63045 0.58863 0.86877 0.0
Mn412 Mn 0.93703 0.0177 0.28421 0.0
Mn413 Mn 0.95388 0.93371 0.2727 0.0
C414 C 0.8966 0.97325 0.25272 0.0
C415 C 0.90989 0.06516 0.31128 0.0
C416 C 0.99093 0.98725 0.237 0.0
O417 O 0.97479 0.01856 0.3217 0.0
O418 O 0.98293 0.96196 0.3111 0.0
C419 C 0.92336 0.91431 0.33135 0.0
N420 N 0.92469 0.90818 0.29883 0.0
C421 C 0.88175 0.85617 0.29334 0.0
C422 C 0.88011 0.86183 0.32679 0.0
C423 C 0.90091 0.89108 0.34586 0.0
C424 C 0.90466 0.88018 0.28024 0.0
H425 H 0.93929 0.93673 0.34613 0.0
C426 C 0.98927 0.99254 0.32846 0.0
O427 O 0.93685 0.06972 0.29362 0.0
O428 O 0.90018 0.03332 0.31489 0.0
N429 N 0.92718 0.90294 0.23695 0.0
C430 C 0.92933 0.90291 0.20494 0.0
C431 C 0.90924 0.87596 0.18252 0.0
C432 C 0.88729 0.84921 0.19319 0.0
C433 C 0.88546 0.84978 0.22622 0.0
C434 C 0.90626 0.8772 0.24746 0.0
H435 H 0.94589 0.92352 0.19658 0.0
O436 O 0.8974 1.00525 0.24869 0.0
O437 O 0.91971 0.96798 0.27456 0.0
O438 O 0.97607 1.01303 0.25082 0.0
O439 O 0.98464 0.95679 0.24376 0.0
C440 C 0.86293 0.8248 0.23891 0.0
C441 C 0.86099 0.82806 0.27244 0.0
H442 H 0.86272 0.84406 0.33807 0.0
H443 H 0.89965 0.89571 0.37168 0.0
H444 H 0.91054 0.8759 0.15706 0.0
H445 H 0.87152 0.82869 0.17582 0.0
H446 H 0.84635 0.80344 0.22308 0.0
H447 H 0.843 0.80911 0.28187 0.0
Mn448 Mn 0.31997 0.16701 0.49711 0.0
Mn449 Mn 0.24253 0.18488 0.46258 0.0
C450 C 0.26481 0.13023 0.4964 0.0
C451 C 0.37318 0.14125 0.50325 0.0
C452 C 0.27411 0.22249 0.5276 0.0
O453 O 0.34008 0.20051 0.46701 0.0
O454 O 0.28584 0.21233 0.45024 0.0
C455 C 0.2558 0.15599 0.39543 0.0
N456 N 0.23401 0.15751 0.42033 0.0
C457 C 0.18585 0.11975 0.38727 0.0
C458 C 0.2077 0.11789 0.36122 0.0
C459 C 0.24292 0.13591 0.36539 0.0
C460 C 0.20034 0.13979 0.41673 0.0
H461 H 0.28274 0.17008 0.39839 0.0
C462 C 0.32031 0.21709 0.45106 0.0
O463 O 0.36739 0.16957 0.52157 0.0
O464 O 0.34938 0.12891 0.47925 0.0
N465 N 0.19776 0.1604 0.47139 0.0
C466 C 0.1807 0.16373 0.49923 0.0
C467 C 0.14549 0.14656 0.49935 0.0
C468 C 0.12786 0.12695 0.47071 0.0
C469 C 0.14572 0.12443 0.44223 0.0
C470 C 0.18094 0.14172 0.44367 0.0
H471 H 0.19393 0.17927 0.52118 0.0
O472 O 0.29034 0.13225 0.51866 0.0
O473 O 0.27154 0.15017 0.47536 0.0
O474 O 0.30248 0.20785 0.5261 0.0
O475 O 0.24806 0.21441 0.50602 0.0
C476 C 0.13007 0.10531 0.41249 0.0
C477 C 0.15025 0.10259 0.38514 0.0
H478 H 0.19774 0.10265 0.33796 0.0
H479 H 0.25998 0.13455 0.34544 0.0
H480 H 0.13187 0.14867 0.52142 0.0
H481 H 0.10067 0.11381 0.47088 0.0
H482 H 0.10263 0.09228 0.41043 0.0
H483 H 0.13812 0.08726 0.36257 0.0
Mn484 Mn 0.43409 0.51717 0.7832 0.0
Mn485 Mn 0.44997 0.43287 0.77152 0.0
C486 C 0.39323 0.47311 0.75173 0.0
C487 C 0.40742 0.56501 0.81017 0.0
C488 C 0.48741 0.48607 0.73576 0.0
O489 O 0.47185 0.51767 0.82063 0.0
O490 O 0.47953 0.46098 0.80968 0.0
C491 C 0.41968 0.41397 0.83044 0.0
N492 N 0.42076 0.40771 0.79789 0.0
C493 C 0.37749 0.35597 0.79276 0.0
C494 C 0.37609 0.36177 0.82624 0.0
C495 C 0.39718 0.39097 0.84514 0.0
C496 C 0.40044 0.37977 0.77947 0.0
H497 H 0.43586 0.43633 0.84508 0.0
C498 C 0.48628 0.49151 0.8271 0.0
O499 O 0.43446 0.56926 0.79254 0.0
O500 O 0.39741 0.53326 0.8139 0.0
N501 N 0.42284 0.40218 0.73596 0.0
C502 C 0.42488 0.40195 0.70391 0.0
C503 C 0.40461 0.37497 0.68164 0.0
C504 C 0.3826 0.3484 0.69251 0.0
C505 C 0.38088 0.34918 0.72558 0.0
C506 C 0.40186 0.37662 0.74666 0.0
H507 H 0.44149 0.42241 0.6954 0.0
O508 O 0.39443 0.50514 0.74773 0.0
O509 O 0.41621 0.46754 0.77355 0.0
O510 O 0.47303 0.51207 0.74978 0.0
O511 O 0.48069 0.45558 0.74235 0.0
C512 C 0.35831 0.3244 0.73847 0.0
C513 C 0.35651 0.32787 0.77203 0.0
H514 H 0.35869 0.34417 0.83767 0.0
H515 H 0.39612 0.3957 0.87098 0.0
H516 H 0.40581 0.37474 0.65615 0.0
H517 H 0.3667 0.32785 0.67526 0.0
H518 H 0.34161 0.30302 0.72277 0.0
H519 H 0.3385 0.30906 0.78161 0.0
Mn520 Mn 0.77257 0.35966 0.52101 0.0
Mn521 Mn 0.74916 0.38461 0.45199 0.0
C522 C 0.75103 0.31804 0.47517 0.0
C523 C 0.81069 0.34038 0.55713 0.0
C524 C 0.7072 0.39774 0.51186 0.0
O525 O 0.80206 0.40881 0.52566 0.0
O526 O 0.7872 0.42026 0.47652 0.0
C527 C 0.81686 0.38048 0.41902 0.0
N528 N 0.78087 0.37007 0.41975 0.0
C529 C 0.77915 0.33194 0.36852 0.0
C530 C 0.81617 0.34232 0.36718 0.0
C531 C 0.83511 0.36662 0.39259 0.0
C532 C 0.76245 0.34651 0.39555 0.0
H533 H 0.83152 0.39914 0.4385 0.0
C534 C 0.80522 0.42797 0.50395 0.0
O535 O 0.78336 0.35575 0.56618 0.0
O536 O 0.81762 0.33804 0.5271 0.0
N537 N 0.71303 0.35092 0.42652 0.0
C538 C 0.67804 0.34189 0.43255 0.0
C539 C 0.65554 0.31718 0.40983 0.0
C540 C 0.6692 0.30217 0.38113 0.0
C541 C 0.70532 0.31184 0.37551 0.0
C542 C 0.72647 0.33652 0.39905 0.0
H543 H 0.6674 0.35344 0.45452 0.0
O544 O 0.74641 0.31107 0.50366 0.0
O545 O 0.76527 0.34971 0.47497 0.0
O546 O 0.72558 0.38067 0.5278 0.0
O547 O 0.71389 0.4012 0.48321 0.0
C548 C 0.72127 0.29768 0.34763 0.0
C549 C 0.75823 0.30751 0.34424 0.0
H550 H 0.83034 0.33169 0.34684 0.0
H551 H 0.86371 0.37467 0.39178 0.0
H552 H 0.62772 0.30976 0.41439 0.0
H553 H 0.65178 0.28308 0.36368 0.0
H554 H 0.70547 0.2788 0.32885 0.0
H555 H 0.77034 0.29589 0.32297 0.0
Mn556 Mn 0.67633 0.05014 0.74697 0.0
Mn557 Mn 0.65298 0.13124 0.75866 0.0
C558 C 0.71313 0.09556 0.73149 0.0
C559 C 0.70938 1.01 0.76707 0.0
C560 C 0.61839 0.07357 0.70413 0.0
O561 O 0.63834 0.04778 0.77992 0.0
O562 O 0.62619 0.10327 0.78734 0.0
C563 C 0.68455 0.15518 0.82545 0.0
N564 N 0.68248 0.15926 0.79419 0.0
C565 C 0.72836 0.20927 0.80545 0.0
C566 C 0.73075 0.20575 0.83779 0.0
C567 C 0.70874 0.17859 0.84782 0.0
C568 C 0.7034 0.18543 0.7843 0.0
H569 H 0.66805 0.1341 0.83324 0.0
C570 C 0.62207 0.07238 0.79386 0.0
O571 O 0.6833 0.99921 0.7448 0.0
O572 O 0.71447 0.04302 0.77835 0.0
N573 N 0.67773 0.16092 0.73301 0.0
C574 C 0.6743 0.15901 0.70058 0.0
C575 C 0.69544 0.18357 0.68649 0.0
C576 C 0.71996 0.20975 0.70584 0.0
C577 C 0.723 0.21123 0.73915 0.0
C578 C 0.70083 0.18636 0.75191 0.0
H579 H 0.6559 0.13867 0.68551 0.0
O580 O 0.71504 0.06351 0.71852 0.0
O581 O 0.68931 0.0998 0.75259 0.0
O582 O 0.6364 0.04964 0.71081 0.0
O583 O 0.62228 0.10438 0.7209 0.0
C584 C 0.74785 0.23584 0.76008 0.0
C585 C 0.75053 0.23485 0.7932 0.0
H586 H 0.7497 0.22348 0.85505 0.0
H587 H 0.71063 0.17554 0.8727 0.0
H588 H 0.69309 0.18213 0.66073 0.0
H589 H 0.7366 0.22834 0.69483 0.0
H590 H 0.76546 0.25526 0.75087 0.0
H591 H 0.77018 0.25353 0.80896 0.0
Mn592 Mn 0.06131 0.22935 0.89499 0.0
Mn593 Mn 0.97868 0.22743 0.92297 0.0
C594 C 1.01125 0.19845 0.86346 0.0
C595 C 0.10745 0.25314 0.86704 0.0
C596 C 0.03722 0.18982 0.94787 0.0
O597 O 0.06655 0.27235 0.93071 0.0
O598 O 1.00866 0.27183 0.94385 0.0
C599 C 0.9527 0.2858 0.89699 0.0
N600 N 0.94903 0.25129 0.89872 0.0
C601 C 0.89659 0.23914 0.86138 0.0
C602 C 0.89975 0.27456 0.85933 0.0
C603 C 0.92793 0.29798 0.87721 0.0
C604 C 0.92192 0.22854 0.88168 0.0
H605 H 0.97448 0.30389 0.91044 0.0
C606 C 0.04157 0.28642 0.94563 0.0
O607 O 0.11373 0.23473 0.88875 0.0
O608 O 0.07444 0.25904 0.86245 0.0
N609 N 0.94782 0.1859 0.90288 0.0
C610 C 0.95001 0.15224 0.90574 0.0
C611 C 0.9244 0.12544 0.88859 0.0
C612 C 0.89685 0.13348 0.86866 0.0
C613 C 0.89516 0.16828 0.86604 0.0
C614 C 0.92126 0.19393 0.88391 0.0
H615 H 0.97123 0.14584 0.92086 0.0
O616 O 0.0431 0.18966 0.85853 0.0
O617 O 1.01024 0.22321 0.88771 0.0
O618 O 0.05973 0.19691 0.92763 0.0
O619 O 1.00671 0.2012 0.9492 0.0
C620 C 0.86908 0.17842 0.84584 0.0
C621 C 0.86981 0.21382 0.84348 0.0
H622 H 0.8809 0.28401 0.84387 0.0
H623 H 0.93068 0.32533 0.87561 0.0
H624 H 0.92598 0.09862 0.89063 0.0
H625 H 0.87734 0.11269 0.85525 0.0
H626 H 0.84864 0.15913 0.83168 0.0
H627 H 0.84995 0.22123 0.82749 0.0
Mn628 Mn 0.5621 0.73157 0.39759 0.0
Mn629 Mn 0.47968 0.72881 0.42613 0.0
C630 C 0.51223 0.69953 0.3667 0.0
C631 C 0.60786 0.75542 0.36932 0.0
C632 C 0.53916 0.69239 0.45103 0.0
O633 O 0.56701 0.77492 0.43283 0.0
O634 O 0.5093 0.77363 0.44662 0.0
C635 C 0.45261 0.78655 0.39988 0.0
N636 N 0.4494 0.75212 0.40188 0.0
C637 C 0.39658 0.73918 0.36496 0.0
C638 C 0.39926 0.77451 0.36264 0.0
C639 C 0.42741 0.79828 0.38017 0.0
C640 C 0.42233 0.72903 0.38518 0.0
H641 H 0.47436 0.80491 0.41305 0.0
C642 C 0.54199 0.7887 0.44793 0.0
O643 O 0.61445 0.73747 0.39132 0.0
O644 O 0.57469 0.76077 0.36451 0.0
N645 N 0.44909 0.68693 0.40648 0.0
C646 C 0.45178 0.65341 0.40951 0.0
C647 C 0.42627 0.6263 0.3927 0.0
C648 C 0.39833 0.63388 0.3729 0.0
C649 C 0.39614 0.66855 0.37008 0.0
C650 C 0.42214 0.69453 0.38764 0.0
H651 H 0.4733 0.64735 0.42451 0.0
O652 O 0.54425 0.69122 0.36169 0.0
O653 O 0.51096 0.72464 0.39061 0.0
O654 O 0.56138 0.69985 0.43071 0.0
O655 O 0.5083 0.70306 0.45241 0.0
C656 C 0.36965 0.67823 0.34998 0.0
C657 C 0.36989 0.71351 0.34737 0.0
H658 H 0.38009 0.78361 0.34723 0.0
H659 H 0.42979 0.82556 0.37835 0.0
H660 H 0.42824 0.59958 0.39487 0.0
H661 H 0.37891 0.61285 0.35973 0.0
H662 H 0.34928 0.65868 0.33607 0.0
H663 H 0.34972 0.72055 0.33144 0.0
Mn664 Mn 0.01814 0.76558 0.64832 0.0
Mn665 Mn 0.98541 0.69048 0.67237 0.0
C666 C 1.01243 0.71148 0.61312 0.0
C667 C 0.01766 0.81515 0.62356 0.0
C668 C 0.06066 0.72777 0.69245 0.0
O669 O 0.98994 0.78379 0.6876 0.0
O670 O 0.97116 0.73145 0.70045 0.0
C671 C 0.90728 0.69196 0.65905 0.0
N672 N 0.93683 0.67511 0.65524 0.0
C673 C 0.90076 0.62269 0.62705 0.0
C674 C 0.8699 0.6394 0.63082 0.0
C675 C 0.87322 0.67427 0.64667 0.0
C676 C 0.93402 0.64179 0.6395 0.0
H677 H 0.90967 0.71861 0.67154 0.0
C678 C 0.97256 0.76467 0.70513 0.0
O679 O 0.04216 0.81312 0.64539 0.0
O680 O 0.9913 0.78946 0.61773 0.0
N681 N 0.99659 0.6485 0.64699 0.0
C682 C 0.0293 0.63718 0.64314 0.0
C683 C 0.03092 0.60337 0.62635 0.0
C684 C 0.99891 0.58132 0.61438 0.0
C685 C 0.96558 0.59349 0.61892 0.0
C686 C 0.96568 0.62763 0.63528 0.0
H687 H 0.05392 0.65383 0.65282 0.0
O688 O 0.03636 0.73707 0.60936 0.0
O689 O 0.99352 0.71765 0.63781 0.0
O690 O 0.05716 0.75302 0.67801 0.0
O691 O 0.03559 0.70249 0.6916 0.0
C692 C 0.93225 0.57314 0.60777 0.0
C693 C 0.89989 0.58787 0.6114 0.0
H694 H 0.84355 0.62577 0.62151 0.0
H695 H 0.84954 0.68739 0.64959 0.0
H696 H 0.05676 0.59418 0.62294 0.0
H697 H 1.00025 0.55517 0.60163 0.0
H698 H 0.93125 0.54638 0.59561 0.0
H699 H 0.87453 0.57225 0.60188 0.0
Mn700 Mn 0.52108 0.25999 0.14468 0.0
Mn701 Mn 0.48878 0.18492 0.16884 0.0
C702 C 0.5156 0.20602 0.10947 0.0
C703 C 0.51975 0.3094 0.11996 0.0
C704 C 0.56379 0.22279 0.18917 0.0
O705 O 0.49297 0.27798 0.18394 0.0
O706 O 0.47397 0.2257 0.19686 0.0
C707 C 0.41052 0.18545 0.15535 0.0
N708 N 0.44036 0.16904 0.15151 0.0
C709 C 0.40492 0.11621 0.12341 0.0
C710 C 0.37377 0.13249 0.12713 0.0
C711 C 0.37663 0.16735 0.14295 0.0
C712 C 0.43798 0.13575 0.13579 0.0
H713 H 0.41255 0.21205 0.16791 0.0
C714 C 0.47551 0.25893 0.20147 0.0
O715 O 0.54458 0.30766 0.14163 0.0
O716 O 0.49364 0.28348 0.11428 0.0
N717 N 0.50056 0.14318 0.14351 0.0
C718 C 0.53347 0.13229 0.13974 0.0
C719 C 0.53555 0.09854 0.12302 0.0
C720 C 0.50378 0.07611 0.11107 0.0
C721 C 0.47023 0.08785 0.1155 0.0
C722 C 0.46988 0.12199 0.13169 0.0
H723 H 0.55791 0.14922 0.14947 0.0
O724 O 0.53938 0.23173 0.10569 0.0
O725 O 0.49675 0.21204 0.13424 0.0
O726 O 0.56032 0.24776 0.17436 0.0
O727 O 0.53881 0.19745 0.1884 0.0
C728 C 0.4371 0.06707 0.10446 0.0
C729 C 0.40449 0.08138 0.10797 0.0
H730 H 0.34755 0.11853 0.11786 0.0
H731 H 0.35273 0.18011 0.14587 0.0
H732 H 0.56155 0.08969 0.1197 0.0
H733 H 0.50546 0.04999 0.09843 0.0
H734 H 0.43645 0.04031 0.09239 0.0
H735 H 0.37928 0.06543 0.09849 0.0
C736 C 0.29769 0.76113 0.91276 0.0
C737 C 0.26917 0.7368 0.89662 0.0
H738 H 0.31384 0.80604 0.94958 0.0
C739 C 0.23405 0.73908 0.90673 0.0
H740 H 0.32486 0.76058 0.90517 0.0
C741 C 0.22776 0.76493 0.93259 0.0
C742 C 0.25624 0.78985 0.94796 0.0
H743 H 0.21144 0.72099 0.89442 0.0
H744 H 0.20058 0.76603 0.93998 0.0
C745 C 0.29126 0.78743 0.93791 0.0
C746 C 0.05451 0.59261 0.36172 0.0
C747 C 0.03446 0.55991 0.36112 0.0
H748 H 0.09602 0.62227 0.341 0.0
C749 C 0.04359 0.53074 0.34043 0.0
H750 H 0.0475 0.61555 0.377 0.0
C751 C 0.07142 0.53441 0.3198 0.0
C752 C 0.09013 0.5675 0.31892 0.0
H753 H 0.02802 0.50533 0.33918 0.0
H754 H 0.07701 0.5116 0.30343 0.0
C755 C 0.08194 0.59642 0.34075 0.0
C756 C 0.82023 0.78141 0.90022 0.0
C757 C 0.85417 0.78201 0.88743 0.0
H758 H 0.78368 0.76134 0.93122 0.0
C759 C 0.87801 0.7604 0.89802 0.0
H760 H 0.80043 0.79656 0.89242 0.0
C761 C 0.86776 0.73874 0.92046 0.0
C762 C 0.83344 0.73825 0.93278 0.0
H763 H 0.90454 0.76016 0.88898 0.0
H764 H 0.88622 0.72186 0.92745 0.0
C765 C 0.81036 0.76051 0.92255 0.0
C766 C 0.04618 0.96804 0.39587 0.0
C767 C 0.05578 0.99984 0.41717 0.0
H768 H 0.01869 0.94096 0.35177 0.0
C769 C 0.04373 0.02993 0.40889 0.0
H770 H 0.05543 0.94445 0.401 0.0
C771 C 0.02247 0.02809 0.3801 0.0
C772 C 1.01299 0.99612 0.35876 0.0
H773 H 0.05044 0.05484 0.42486 0.0
H774 H 1.01341 0.05163 0.37467 0.0
C775 C 0.02529 0.96622 0.36724 0.0
C776 C 0.23555 0.27612 0.59801 0.0
C777 C 0.2671 0.29247 0.61671 0.0
H778 H 0.21287 0.24167 0.5548 0.0
C779 C 0.30069 0.28842 0.60432 0.0
H780 H 0.2093 0.27875 0.60712 0.0
C781 C 0.30277 0.26672 0.57475 0.0
C782 C 0.27129 0.24898 0.55668 0.0
H783 H 0.32542 0.30037 0.61836 0.0
H784 H 0.32917 0.26299 0.56649 0.0
C785 C 0.23759 0.25488 0.56811 0.0
C786 C 0.53699 0.46598 0.65912 0.0
C787 C 0.55374 0.49911 0.65571 0.0
H788 H 0.504 0.43579 0.68694 0.0
C789 C 0.5503 0.52757 0.68046 0.0
H790 H 0.53857 0.44331 0.64092 0.0
C791 C 0.5291 0.52346 0.70634 0.0
C792 C 0.5116 0.49054 0.70915 0.0
H793 H 0.56386 0.55341 0.67997 0.0
H794 H 0.52653 0.54614 0.72424 0.0
C795 C 0.51667 0.46172 0.68557 0.0
C796 C 0.88621 0.30625 0.59971 0.0
C797 C 0.86948 0.29782 0.62691 0.0
H798 H 0.88056 0.32602 0.55581 0.0
C799 C 0.83292 0.30121 0.62967 0.0
H800 H 0.91452 0.30405 0.59722 0.0
C801 C 0.81395 0.31464 0.60663 0.0
C802 C 0.83095 0.32434 0.58003 0.0
H803 H 0.81956 0.29535 0.65058 0.0
H804 H 0.78603 0.31798 0.60996 0.0
C805 C 0.86693 0.31899 0.57619 0.0
C806 C 0.56136 0.02707 0.62786 0.0
C807 C 0.5494 0.05507 0.61534 0.0
H808 H 0.59238 1.01062 0.66498 0.0
C809 C 0.55833 0.08877 0.63372 0.0
H810 H 0.55442 1.00054 0.61503 0.0
C811 C 0.57961 0.0944 0.66284 0.0
C812 C 0.59306 0.0666 0.67449 0.0
H813 H 0.55016 0.11112 0.62505 0.0
H814 H 0.58649 0.12093 0.67569 0.0
C815 C 0.58309 0.03277 0.65675 0.0
C816 C 0.95472 0.22658 0.80016 0.0
C817 C 0.93633 0.19502 0.78292 0.0
H818 H 0.99261 0.25183 0.83872 0.0
C819 C 0.94286 0.16357 0.79231 0.0
H820 H 0.9498 0.25131 0.79411 0.0
C821 C 0.96772 0.16394 0.81837 0.0
C822 C 0.98534 0.19581 0.83568 0.0
H823 H 0.92896 0.13887 0.77947 0.0
H824 H 0.97255 0.13964 0.82538 0.0
C825 C 0.97895 0.22693 0.82601 0.0
C826 C 0.5251 0.87979 0.48416 0.0
C827 C 0.55663 0.89987 0.47753 0.0
H828 H 0.4959 0.82882 0.48064 0.0
C829 C 0.58571 0.8827 0.46659 0.0
H830 H 0.50218 0.89214 0.49257 0.0
C831 C 0.58214 0.84629 0.4596 0.0
C832 C 0.54935 0.82615 0.46333 0.0
H833 H 0.61067 0.89747 0.46187 0.0
H834 H 0.60434 0.83409 0.4493 0.0
C835 C 0.5215 0.84336 0.47718 0.0
C836 C 0.15244 0.27494 0.79365 0.0
C837 C 0.18726 0.26672 0.79965 0.0
H838 H 0.09959 0.27735 0.8106 0.0
C839 C 0.19694 0.25954 0.82999 0.0
H840 H 0.14422 0.2805 0.77045 0.0
C841 C 0.17149 0.25754 0.85282 0.0
C842 C 0.13581 0.26283 0.84586 0.0
H843 H 0.22381 0.25373 0.8355 0.0
H844 H 0.17935 0.25008 0.87529 0.0
C845 C 0.12688 0.27303 0.81661 0.0
C846 C 0.599 0.6486 0.50163 0.0
C847 C 0.57512 0.63669 0.52304 0.0
H848 H 0.60642 0.67505 0.46209 0.0
C849 C 0.53861 0.64106 0.51952 0.0
H850 H 0.62736 0.64587 0.5042 0.0
C851 C 0.52647 0.6584 0.49565 0.0
C852 C 0.55068 0.67146 0.4748 0.0
H853 H 0.51987 0.63251 0.53615 0.0
H854 H 0.49838 0.6623 0.49405 0.0
C855 C 0.58691 0.6655 0.47764 0.0
C856 C 0.93507 0.82743 0.77154 0.0
C857 C 0.91069 0.80408 0.78464 0.0
H858 H 0.97394 0.83379 0.73623 0.0
C859 C 0.90623 0.76872 0.7704 0.0
H860 H 0.93929 0.85493 0.78191 0.0
C861 C 0.92601 0.75678 0.74468 0.0
C862 C 0.95109 0.77967 0.73186 0.0
H863 H 0.88711 0.75002 0.77899 0.0
H864 H 0.92139 0.72914 0.73485 0.0
C865 C 0.95504 0.81537 0.74539 0.0
C866 C 0.0249 0.85578 0.54869 0.0
C867 C 0.05208 0.88427 0.55907 0.0
H868 H 0.9917 0.81203 0.56114 0.0
C869 C 0.06291 0.89306 0.59197 0.0
H870 H 0.01673 0.8478 0.52334 0.0
C871 C 0.04912 0.87223 0.61353 0.0
C872 C 0.02395 0.84214 0.60281 0.0
H873 H 0.08442 0.91425 0.60056 0.0
H874 H 0.06009 0.87836 0.63828 0.0
C875 C 1.01067 0.83517 0.57038 0.0
C876 C 0.13815 0.69602 0.73584 0.0
C877 C 0.16675 0.7224 0.73452 0.0
H878 H 0.08215 0.67676 0.72343 0.0
C879 C 0.15936 0.75188 0.72217 0.0
H880 H 0.14311 0.67291 0.74505 0.0
C881 C 0.12468 0.75417 0.70981 0.0
C882 C 0.09633 0.72692 0.7093 0.0
H883 H 0.18081 0.77279 0.72112 0.0
H884 H 0.12047 0.77689 0.69966 0.0
C885 C 0.10329 0.69819 0.72326 0.0
C886 C 0.01468 0.63424 0.54506 0.0
C887 C 0.97761 0.62239 0.53798 0.0
H888 H 0.05502 0.67166 0.57483 0.0
C889 C 0.95264 0.64114 0.5547 0.0
H890 H 0.03453 0.62045 0.5324 0.0
C891 C 0.9643 0.67037 0.57843 0.0
C892 C 1.0012 0.68116 0.58681 0.0
H893 H 0.92392 0.63322 0.54935 0.0
H894 H 0.94428 0.68444 0.59052 0.0
C895 C 0.02639 0.66344 0.56929 0.0
C896 C 0.82148 0.89883 0.24663 0.0
C897 C 0.81149 0.89014 0.21327 0.0
H898 H 0.85528 0.93202 0.28479 0.0
C899 C 0.82697 0.91304 0.19375 0.0
H900 H 0.81114 0.88324 0.26352 0.0
C901 C 0.85395 0.94087 0.2065 0.0
C902 C 0.86584 0.94665 0.23906 0.0
H903 H 0.81919 0.90935 0.1684 0.0
H904 H 0.86652 0.9569 0.19067 0.0
C905 C 0.84778 0.92687 0.25922 0.0
C906 C 0.83655 0.11432 0.35052 0.0
C907 C 0.84095 0.14512 0.33772 0.0
H908 H 0.85468 0.06484 0.35224 0.0
C909 C 0.87039 0.15077 0.31894 0.0
H910 H 0.81389 0.10897 0.36469 0.0
C911 C 0.89395 0.12576 0.31204 0.0
C912 C 0.88844 0.09398 0.32323 0.0
H913 H 0.87436 0.1741 0.30851 0.0
H914 H 0.91546 0.13065 0.29655 0.0
C915 C 0.85987 0.08896 0.3432 0.0
C916 C 0.3665 1.01222 0.0156 0.0
C917 C 0.40055 1.00274 1.00826 0.0
H918 H 0.3111 0.99425 0.02192 0.0
C919 C 0.40597 0.96779 1.00662 0.0
H920 H 0.36153 0.03894 0.01673 0.0
C921 C 0.37749 0.94253 1.01069 0.0
C922 C 0.34288 0.95161 0.01587 0.0
H923 H 0.4319 0.95979 1.00091 0.0
H924 H 0.38187 0.91546 1.0074 0.0
C925 C 0.33775 0.98677 0.01881 0.0
C926 C 0.25664 0.47156 0.33414 0.0
C927 C 0.27414 0.44684 0.31474 0.0
H928 H 0.21934 0.50873 0.33627 0.0
C929 C 0.26192 0.43672 0.28206 0.0
H930 H 0.26474 0.47952 0.35951 0.0
C931 C 0.235 0.45322 0.26873 0.0
C932 C 0.22015 0.48023 0.28785 0.0
H933 H 0.27483 0.41785 0.26641 0.0
H934 H 0.22784 0.44669 0.24314 0.0
C935 C 0.23042 0.48824 0.32085 0.0
C936 C 0.18339 0.07014 0.51527 0.0
C937 C 0.17016 0.05204 0.48443 0.0
H938 H 0.22349 0.1093 0.54325 0.0
C939 C 0.18971 0.05855 0.45806 0.0
H940 H 0.16922 0.06558 0.53613 0.0
C941 C 0.22079 0.08326 0.4622 0.0
C942 C 0.23277 0.1028 0.49269 0.0
H943 H 0.18092 0.04454 0.43407 0.0
H944 H 0.23522 0.08749 0.44138 0.0
C945 C 0.21444 0.09518 0.51935 0.0
C946 C 0.79152 0.14998 0.70278 0.0
C947 C 0.81054 0.16586 0.73215 0.0
H948 H 0.74535 0.11484 0.67948 0.0
C949 C 0.79545 0.16056 0.76093 0.0
H950 H 0.80266 0.15332 0.68023 0.0
C951 C 0.7631 0.13861 0.76043 0.0
C952 C 0.7445 0.12214 0.73119 0.0
H953 H 0.80917 0.17272 0.78395 0.0
H954 H 0.75312 0.13369 0.78301 0.0
C955 C 0.75893 0.12791 0.70231 0.0
C956 C 0.45235 0.08851 0.49945 0.0
C957 C 0.45886 0.08509 0.53197 0.0
H958 H 0.41994 0.10755 0.46471 0.0
C959 C 0.43696 0.1014 0.55451 0.0
H960 H 0.46901 0.07804 0.48103 0.0
C961 C 0.40989 0.12 0.54499 0.0
C962 C 0.40284 0.12209 0.51251 0.0
H963 H 0.44001 0.09941 0.57958 0.0
H964 H 0.39366 0.13205 0.56312 0.0
C965 C 0.42429 0.10597 0.48982 0.0
C966 C 0.63377 0.45666 0.52898 0.0
C967 C 0.63125 0.45927 0.56245 0.0
H968 H 0.65906 0.43551 0.48687 0.0
C969 C 0.65167 0.43882 0.57835 0.0
H970 H 0.61803 0.47133 0.51557 0.0
C971 C 0.67501 0.41784 0.56167 0.0
C972 C 0.67886 0.41663 0.52852 0.0
H973 H 0.65094 0.44015 0.60403 0.0
H974 H 0.69109 0.40353 0.57517 0.0
C975 C 0.65725 0.43584 0.51234 0.0
C976 C 0.79815 0.26181 0.41258 0.0
C977 C 0.77019 0.23596 0.3978 0.0
H978 H 0.81351 0.30821 0.44787 0.0
C979 C 0.73533 0.23707 0.40886 0.0
H980 H 0.82503 0.26218 0.40417 0.0
C981 C 0.72879 0.26322 0.43439 0.0
C982 C 0.75665 0.28962 0.44839 0.0
H983 H 0.7131 0.21784 0.39753 0.0
H984 H 0.70182 0.26343 0.44251 0.0
C985 C 0.7914 0.2884 0.43733 0.0
C986 C 0.55734 0.08576 0.86031 0.0
C987 C 0.54214 0.05142 0.86077 0.0
H988 H 0.59432 0.11938 0.83869 0.0
C989 C 0.55563 0.02389 0.84122 0.0
H990 H 0.54695 0.10742 0.8747 0.0
C991 C 0.5827 0.03058 0.82054 0.0
C992 C 0.59643 0.06502 0.81849 0.0
H993 H 0.54392 0.99718 0.84081 0.0
H994 H 0.59156 1.00876 0.80505 0.0
C995 C 0.58411 0.09252 0.83931 0.0
C996 C 0.32309 0.28617 0.39858 0.0
C997 C 0.35611 0.28484 0.38428 0.0
H998 H 0.2872 0.26766 0.43107 0.0
C999 C 0.37937 0.26244 0.39443 0.0
H1000 H 0.30381 0.30216 0.39141 0.0
C1001 C 0.36922 0.24143 0.41735 0.0
C1002 C 0.3356 0.24236 0.43074 0.0
H1003 H 0.40533 0.26084 0.38452 0.0
H1004 H 0.38709 0.2237 0.42369 0.0
C1005 C 0.3133 0.26577 0.42142 0.0
C1006 C 0.54079 0.52773 0.90775 0.0
C1007 C 0.55384 0.49766 0.915 0.0
H1008 H 0.50931 0.5498 0.8746 0.0
C1009 C 0.54513 0.46636 0.89284 0.0
H1010 H 0.54675 0.55222 0.92446 0.0
C1011 C 0.52398 0.46496 0.86445 0.0
C1012 C 0.51051 0.49481 0.85705 0.0
H1013 H 0.55516 0.44282 0.89719 0.0
H1014 H 0.51805 0.44005 0.84832 0.0
C1015 C 0.51928 0.52633 0.87918 0.0
C1016 C 0.80272 0.7854 0.10733 0.0
C1017 C 0.7694 0.7911 0.11955 0.0
H1018 H 0.83024 0.75808 0.06981 0.0
C1019 C 0.73748 0.77567 0.10095 0.0
H1020 H 0.82768 0.79661 0.12133 0.0
C1021 C 0.73884 0.75378 0.07127 0.0
C1022 C 0.77217 0.74628 0.05998 0.0
H1023 H 0.71144 0.77954 0.10998 0.0
H1024 H 0.7138 0.74138 0.05801 0.0
C1025 C 0.80409 0.76303 0.07798 0.0
C1026 C 0.05284 0.02925 0.18123 0.0
C1027 C 0.057 1.00072 0.15681 0.0
H1028 H 0.02861 0.04774 0.2248 0.0
C1029 C 0.04113 0.96742 0.16064 0.0
H1030 H 0.06571 0.05526 0.18041 0.0
C1031 C 0.02091 0.96307 0.18715 0.0
C1032 C 0.0151 0.9919 0.21039 0.0
H1033 H 0.04329 0.94468 0.1427 0.0
H1034 H 1.00889 0.93701 0.18881 0.0
C1035 C 0.03177 0.025 0.20717 0.0
C1036 C 0.32866 0.79306 0.13087 0.0
C1037 C 0.36537 0.79009 0.12868 0.0
H1038 H 0.28193 0.80955 0.11046 0.0
C1039 C 0.38247 0.79836 0.1016 0.0
H1040 H 0.31503 0.78729 0.15169 0.0
C1041 C 0.36346 0.81085 0.07777 0.0
C1042 C 0.32738 0.81607 0.08116 0.0
H1043 H 0.4109 0.79649 0.09957 0.0
H1044 H 0.37745 0.81806 0.05763 0.0
C1045 C 0.30993 0.80624 0.10749 0.0
C1046 C 0.05844 0.58573 0.1337 0.0
C1047 C 0.0494 0.552 0.11543 0.0
H1048 H 0.08667 0.61797 0.17564 0.0
C1049 C 0.0613 0.52402 0.12801 0.0
H1050 H 0.0503 0.60805 0.12494 0.0
C1051 C 0.08293 0.52975 0.15696 0.0
C1052 C 0.09295 0.56361 0.17464 0.0
H1053 H 0.05434 0.49748 0.1152 0.0
H1054 H 0.09207 0.5076 0.1653 0.0
C1055 C 0.07972 0.59142 0.16284 0.0
C1056 C 0.4532 0.72437 0.30321 0.0
C1057 C 0.43573 0.69215 0.2865 0.0
H1058 H 0.49095 0.75138 0.3412 0.0
C1059 C 0.44364 0.66136 0.2964 0.0
H1060 H 0.44722 0.74863 0.29677 0.0
C1061 C 0.469 0.66304 0.3224 0.0
C1062 C 0.48576 0.69555 0.33912 0.0
H1063 H 0.43046 0.63618 0.28397 0.0
H1064 H 0.47493 0.63924 0.32979 0.0
C1065 C 0.47796 0.726 0.32897 0.0
C1066 C 0.08592 0.38021 0.96513 0.0
C1067 C 0.05703 0.39743 0.97649 0.0
H1068 H 0.10414 0.33158 0.94708 0.0
C1069 C 0.02547 0.37736 0.98308 0.0
H1070 H 0.11091 0.39495 0.96045 0.0
C1071 C 0.02165 0.34094 0.97567 0.0
C1072 C 0.04928 0.32373 0.96142 0.0
H1073 H 1.00269 0.38973 0.99179 0.0
H1074 H 0.99603 0.32645 0.97915 0.0
C1075 C 0.08212 0.34379 0.95771 0.0
C1076 C 0.69782 0.76295 0.33325 0.0
C1077 C 0.68821 0.76897 0.30246 0.0
H1078 H 0.67997 0.75446 0.37871 0.0
C1079 C 0.65313 0.77618 0.29572 0.0
H1080 H 0.72485 0.75791 0.33928 0.0
C1081 C 0.6273 0.77434 0.31846 0.0
C1082 C 0.63624 0.76523 0.34821 0.0
H1083 H 0.645 0.78083 0.27216 0.0
H1084 H 0.59986 0.77778 0.31193 0.0
C1085 C 0.67211 0.76104 0.35585 0.0
C1086 C 0.0943 0.14145 0.99668 0.0
C1087 C 0.07168 0.13462 0.02085 0.0
H1088 H 0.10117 0.16384 0.95457 0.0
C1089 C 0.03659 0.14355 0.01971 0.0
H1090 H 0.12169 0.13532 0.99748 0.0
C1091 C 0.02474 0.16031 0.99533 0.0
C1092 C 0.04792 0.16862 0.97176 0.0
H1093 H 0.01895 0.13905 0.03852 0.0
H1094 H 0.99791 0.16783 0.99566 0.0
C1095 C 0.08252 0.15807 0.97229 0.0
C1096 C 0.4381 0.32304 0.26649 0.0
C1097 C 0.41372 0.30028 0.28022 0.0
H1098 H 0.47679 0.32831 0.23094 0.0
C1099 C 0.40969 0.26458 0.26723 0.0
H1100 H 0.44218 0.35075 0.27598 0.0
C1101 C 0.42961 0.25187 0.24183 0.0
C1102 C 0.45432 0.27432 0.22818 0.0
H1103 H 0.39068 0.24626 0.27639 0.0
H1104 H 0.42527 0.22405 0.23279 0.0
C1105 C 0.4581 0.31022 0.24071 0.0
C1106 C 0.5242 0.3499 0.04501 0.0
C1107 C 0.55164 0.3783 0.05469 0.0
H1108 H 0.49163 0.30632 0.05829 0.0
C1109 C 0.56368 0.38713 0.08732 0.0
H1110 H 0.51504 0.34198 0.01986 0.0
C1111 C 0.55079 0.36635 0.10924 0.0
C1112 C 0.52534 0.33634 0.09913 0.0
H1113 H 0.58536 0.4083 0.09534 0.0
H1114 H 0.56263 0.37248 0.13372 0.0
C1115 C 0.51089 0.32937 0.06705 0.0
C1116 C 0.64099 0.19262 0.23444 0.0
C1117 C 0.66922 0.2196 0.23388 0.0
H1118 H 0.58552 0.17218 0.22058 0.0
C1119 C 0.6616 0.24885 0.22126 0.0
H1120 H 0.64613 0.16966 0.24382 0.0
C1121 C 0.62714 0.25035 0.20792 0.0
C1122 C 0.59923 0.22254 0.2067 0.0
H1123 H 0.68275 0.27021 0.22077 0.0
H1124 H 0.62277 0.27296 0.19764 0.0
C1125 C 0.60634 0.19401 0.22091 0.0
C1126 C 0.51766 0.12946 0.04075 0.0
C1127 C 0.48059 0.11768 0.0336 0.0
H1128 H 0.55805 0.16656 0.07078 0.0
C1129 C 0.45565 0.13639 0.05044 0.0
H1130 H 0.53752 0.11558 0.02819 0.0
C1131 C 0.46735 0.16532 0.0745 0.0
C1132 C 0.50426 0.17595 0.08295 0.0
H1133 H 0.42692 0.12844 0.0452 0.0
H1134 H 0.44735 0.17923 0.08681 0.0
C1135 C 0.5294 0.15845 0.06517 0.0
C1136 C 0.31765 0.399 0.74493 0.0
C1137 C 0.30797 0.3905 0.7115 0.0
H1138 H 0.35133 0.43184 0.78339 0.0
C1139 C 0.32365 0.41363 0.69226 0.0
H1140 H 0.30704 0.38338 0.76168 0.0
C1141 C 0.35065 0.44131 0.70529 0.0
C1142 C 0.36236 0.44676 0.73786 0.0
H1143 H 0.31607 0.41023 0.6669 0.0
H1144 H 0.36341 0.45747 0.68964 0.0
C1145 C 0.34401 0.42689 0.7578 0.0
C1146 C 0.33455 0.61507 0.84914 0.0
C1147 C 0.33897 0.64557 0.83587 0.0
H1148 H 0.35249 0.56562 0.85144 0.0
C1149 C 0.36825 0.65072 0.81682 0.0
H1150 H 0.31202 0.61011 0.86356 0.0
C1151 C 0.39167 0.62554 0.81015 0.0
C1152 C 0.38614 0.59406 0.82184 0.0
H1153 H 0.37228 0.67383 0.80607 0.0
H1154 H 0.41308 0.63006 0.79447 0.0
C1155 C 0.35769 0.5895 0.84203 0.0
C1156 C 0.89338 0.48974 0.52661 0.0
C1157 C 0.89058 0.51247 0.50465 0.0
H1158 H 0.8683 0.44481 0.54397 0.0
C1159 C 0.85788 0.51013 0.48643 0.0
H1160 H 0.91836 0.49116 0.54103 0.0
C1161 C 0.82939 0.4843 0.4884 0.0
C1162 C 0.83278 0.45963 0.50839 0.0
H1163 H 0.85481 0.52762 0.46968 0.0
H1164 H 0.80513 0.4827 0.47294 0.0
C1165 C 0.86469 0.46338 0.5284 0.0
C1166 C 0.79438 0.98473 0.80251 0.0
C1167 C 0.7834 0.95097 0.80812 0.0
H1168 H 0.77969 0.0293 0.78541 0.0
C1169 C 0.74848 0.93455 0.79636 0.0
H1170 H 0.82109 0.99805 0.81106 0.0
C1171 C 0.72438 0.95266 0.7812 0.0
C1172 C 0.73483 0.98752 0.77807 0.0
H1173 H 0.73913 0.90867 0.8006 0.0
H1174 H 0.69713 0.94019 0.77372 0.0
C1175 C 0.77047 1.00275 0.78797 0.0
C1176 C 0.68732 0.55624 0.95817 0.0
C1177 C 0.66751 0.54868 0.98408 0.0
H1178 H 0.73318 0.58578 0.94267 0.0
C1179 C 0.68063 0.56561 0.01533 0.0
H1180 H 0.67865 0.54314 0.93386 0.0
C1181 C 0.71184 0.59051 0.02031 0.0
C1182 C 0.73047 0.59914 0.99413 0.0
H1183 H 0.66626 0.56021 0.03586 0.0
H1184 H 0.72079 0.60374 0.04451 0.0
C1185 C 0.71856 0.58077 0.96319 0.0
C1186 C 0.29504 0.65372 0.26459 0.0
C1187 C 0.31016 0.65858 0.23571 0.0
H1188 H 0.25235 0.6276 0.28692 0.0
C1189 C 0.29146 0.64191 0.20642 0.0
H1190 H 0.30854 0.66648 0.28753 0.0
C1191 C 0.25895 0.6198 0.20614 0.0
C1192 C 0.24424 0.61486 0.23511 0.0
H1193 H 0.30266 0.6449 0.18382 0.0
H1194 H 0.24547 0.60634 0.1834 0.0
C1195 C 0.26267 0.63183 0.26427 0.0
C1196 C 0.93556 0.59662 0.05524 0.0
C1197 C 0.95764 0.58091 0.03253 0.0
H1198 H 0.89182 0.62659 0.06427 0.0
C1199 C 0.9508 0.58448 1.00009 0.0
H1200 H 0.93881 0.59443 0.08025 0.0
C1201 C 0.92238 0.60165 0.99073 0.0
C1202 C 0.90084 0.61728 0.01361 0.0
H1203 H 0.96753 0.57441 0.98155 0.0
H1204 H 0.91788 0.60349 0.96569 0.0
C1205 C 0.9081 0.61491 0.04599 0.0
C1206 C 0.13892 0.95941 0.03067 0.0
C1207 C 0.1357 0.96185 0.06406 0.0
H1208 H 0.16486 0.93827 0.98893 0.0
C1209 C 0.15581 0.94132 0.08017 0.0
H1210 H 0.12341 0.97402 0.01702 0.0
C1211 C 0.17928 0.92025 0.06378 0.0
C1212 C 0.18368 0.91911 0.03073 0.0
H1213 H 0.15464 0.94251 0.1058 0.0
H1214 H 0.19496 0.90576 0.07743 0.0
C1215 C 0.16264 0.93861 0.01436 0.0
loop_
_geom_bond_atom_site_label_1
_geom_bond_atom_site_label_2
_geom_bond_distance
_geom_bond_site_symmetry_2
_ccdc_geom_bond_type
H0 C1 0.949 . S
C1 H0 0.949 . S
C1 C2 1.395 1_545 S
C1 C3 1.391 . S
C2 C1 1.395 1_565 S
C2 C5 1.390 . S
C3 C1 1.391 . S
C3 C7 1.387 . S
C3 C8 1.491 . S
H4 C5 0.950 . S
C5 C2 1.390 . S
C5 H4 0.950 . S
C5 C6 1.378 1_565 S
C6 C5 1.378 1_545 S
C6 C7 1.409 . S
C7 C3 1.387 . S
C7 C6 1.409 . S
C7 H9 0.951 . S
C8 C3 1.491 . S
C8 C10 1.382 1_554 S
C8 C12 1.404 . S
H9 C7 0.951 . S
C10 C8 1.382 1_556 S
C10 C11 1.390 . S
C10 H15 0.949 . S
C11 C10 1.390 . S
C11 C16 1.399 . S
C12 C8 1.404 . S
C12 H13 0.950 . S
C12 C14 1.375 . S
H13 C12 0.950 . S
C14 C12 1.375 . S
C14 C16 1.382 1_554 S
C14 H18 0.950 . S
H15 C10 0.949 . S
C16 C11 1.399 . S
C16 C14 1.382 1_556 S
C16 H17 0.952 . S
H17 C16 0.952 . S
H18 C14 0.950 . S
H19 C20 0.949 . S
C20 H19 0.949 . S
C20 C21 1.395 . S
C20 C22 1.391 . S
C21 C20 1.395 . S
C21 C24 1.390 . S
C22 C20 1.391 . S
C22 C26 1.387 . S
C22 C27 1.491 . S
H23 C24 0.950 . S
C24 C21 1.390 . S
C24 H23 0.950 . S
C24 C25 1.378 . S
C25 C24 1.378 . S
C25 C26 1.409 . S
C26 C22 1.387 . S
C26 C25 1.409 . S
C26 H28 0.951 . S
C27 C22 1.491 . S
C27 C29 1.382 . S
C27 C31 1.404 . S
H28 C26 0.951 . S
C29 C27 1.382 . S
C29 C30 1.390 . S
C29 H34 0.949 . S
C30 C29 1.390 . S
C30 C35 1.399 . S
C31 C27 1.404 . S
C31 H32 0.950 . S
C31 C33 1.375 . S
H32 C31 0.950 . S
C33 C31 1.375 . S
C33 C35 1.382 . S
C33 H37 0.950 . S
H34 C29 0.949 . S
C35 C30 1.399 . S
C35 C33 1.382 . S
C35 H36 0.952 . S
H36 C35 0.952 . S
H37 C33 0.950 . S
H38 C39 0.949 . S
C39 H38 0.949 . S
C39 C40 1.395 . S
C39 C41 1.391 1_455 S
C40 C39 1.395 . S
C40 C43 1.390 1_455 S
C41 C39 1.391 1_655 S
C41 C45 1.387 . S
C41 C46 1.491 1_654 S
H42 C43 0.950 . S
C43 C40 1.390 1_655 S
C43 H42 0.950 . S
C43 C44 1.378 . S
C44 C43 1.378 . S
C44 C45 1.409 . S
C45 C41 1.387 . S
C45 C44 1.409 . S
C45 H47 0.951 1_554 S
C46 C41 1.491 1_456 S
C46 C48 1.381 . S
C46 C50 1.404 . S
H47 C45 0.951 1_556 S
C48 C46 1.381 . S
C48 C49 1.390 . S
C48 H53 0.930 1_556 S
C49 C48 1.390 . S
C49 C54 1.399 . S
C50 C46 1.404 . S
C50 H51 0.947 1_455 S
C50 C52 1.377 . S
H51 C50 0.947 1_655 S
C52 C50 1.377 . S
C52 C54 1.382 . S
C52 H56 0.950 . S
H53 C48 0.930 1_554 S
C54 C49 1.399 . S
C54 C52 1.382 . S
C54 H55 0.952 . S
H55 C54 0.952 . S
H56 C52 0.950 . S
H57 C58 0.949 . S
C58 H57 0.949 . S
C58 C59 1.395 . S
C58 C60 1.391 . S
C59 C58 1.395 . S
C59 C62 1.390 . S
C60 C58 1.391 . S
C60 C64 1.387 . S
C60 C65 1.491 . S
H61 C62 0.950 . S
C62 C59 1.390 . S
C62 H61 0.950 . S
C62 C63 1.378 . S
C63 C62 1.378 . S
C63 C64 1.409 . S
C64 C60 1.387 . S
C64 C63 1.409 . S
C64 H66 0.951 . S
C65 C60 1.491 . S
C65 C67 1.382 . S
C65 C69 1.404 . S
H66 C64 0.951 . S
C67 C65 1.382 . S
C67 C68 1.390 . S
C67 H72 0.949 . S
C68 C67 1.390 . S
C68 C73 1.399 . S
C69 C65 1.404 . S
C69 H70 0.950 . S
C69 C71 1.375 . S
H70 C69 0.950 . S
C71 C69 1.375 . S
C71 C73 1.382 . S
C71 H75 0.950 . S
H72 C67 0.949 . S
C73 C68 1.399 . S
C73 C71 1.382 . S
C73 H74 0.952 . S
H74 C73 0.952 . S
H75 C71 0.950 . S
H76 C77 0.949 . S
C77 H76 0.949 . S
C77 C78 1.395 1_565 S
C77 C79 1.391 . S
C78 C77 1.395 1_545 S
C78 C81 1.390 . S
C79 C77 1.391 . S
C79 C83 1.387 . S
C79 C84 1.491 . S
H80 C81 0.950 . S
C81 C78 1.390 . S
C81 H80 0.950 . S
C81 C82 1.378 1_545 S
C82 C81 1.378 1_565 S
C82 C83 1.409 . S
C83 C79 1.387 . S
C83 C82 1.409 . S
C83 H85 0.951 . S
C84 C79 1.491 . S
C84 C86 1.382 . S
C84 C88 1.404 . S
H85 C83 0.951 . S
C86 C84 1.382 . S
C86 C87 1.390 . S
C86 H91 0.949 . S
C87 C86 1.390 . S
C87 C92 1.399 . S
C88 C84 1.404 . S
C88 H89 0.950 . S
C88 C90 1.375 . S
H89 C88 0.950 . S
C90 C88 1.375 . S
C90 C92 1.382 . S
C90 H94 0.950 . S
H91 C86 0.949 . S
C92 C87 1.399 . S
C92 C90 1.382 . S
C92 H93 0.952 . S
H93 C92 0.952 . S
H94 C90 0.950 . S
H95 C96 0.949 . S
C96 H95 0.949 . S
C96 C97 1.395 . S
C96 C98 1.391 . S
C97 C96 1.395 . S
C97 C100 1.390 . S
C98 C96 1.391 . S
C98 C102 1.387 . S
C98 C103 1.491 . S
H99 C100 0.950 . S
C100 C97 1.390 . S
C100 H99 0.950 . S
C100 C101 1.378 . S
C101 C100 1.378 . S
C101 C102 1.409 . S
C102 C98 1.387 . S
C102 C101 1.409 . S
C102 H104 0.951 . S
C103 C98 1.491 . S
C103 C105 1.382 . S
C103 C107 1.404 . S
H104 C102 0.951 . S
C105 C103 1.382 . S
C105 C106 1.390 . S
C105 H110 0.949 . S
C106 C105 1.390 . S
C106 C111 1.399 . S
C107 C103 1.404 . S
C107 H108 0.950 . S
C107 C109 1.375 . S
H108 C107 0.950 . S
C109 C107 1.375 . S
C109 C111 1.382 . S
C109 H113 0.950 . S
H110 C105 0.949 . S
C111 C106 1.399 . S
C111 C109 1.382 . S
C111 H112 0.952 . S
H112 C111 0.952 . S
H113 C109 0.950 . S
H114 C115 0.949 1_455 S
C115 H114 0.949 1_655 S
C115 C116 1.395 . S
C115 C117 1.391 . S
C116 C115 1.395 . S
C116 C119 1.390 . S
C117 C115 1.391 . S
C117 C121 1.387 . S
C117 C122 1.491 . S
H118 C119 0.950 . S
C119 C116 1.390 . S
C119 H118 0.950 . S
C119 C120 1.378 . S
C120 C119 1.378 . S
C120 C121 1.409 . S
C121 C117 1.387 . S
C121 C120 1.409 . S
C121 H123 0.951 . S
C122 C117 1.491 . S
C122 C124 1.382 1_655 S
C122 C126 1.404 . S
H123 C121 0.951 . S
C124 C122 1.382 1_455 S
C124 C125 1.390 . S
C124 H129 0.949 . S
C125 C124 1.390 . S
C125 C130 1.399 . S
C126 C122 1.404 . S
C126 H127 0.950 . S
C126 C128 1.375 . S
H127 C126 0.950 . S
C128 C126 1.375 . S
C128 C130 1.382 1_655 S
C128 H132 0.950 . S
H129 C124 0.949 . S
C130 C125 1.399 . S
C130 C128 1.382 1_455 S
C130 H131 0.952 . S
H131 C130 0.952 . S
H132 C128 0.950 . S
H133 C134 0.949 . S
C134 H133 0.949 . S
C134 C135 1.395 . S
C134 C136 1.391 . S
C135 C134 1.395 . S
C135 C138 1.390 . S
C136 C134 1.391 . S
C136 C140 1.387 . S
C136 C141 1.491 . S
H137 C138 0.950 . S
C138 C135 1.390 . S
C138 H137 0.950 . S
C138 C139 1.378 . S
C139 C138 1.378 . S
C139 C140 1.409 . S
C140 C136 1.387 . S
C140 C139 1.409 . S
C140 H142 0.951 . S
C141 C136 1.491 . S
C141 C143 1.382 . S
C141 C145 1.404 . S
H142 C140 0.951 . S
C143 C141 1.382 . S
C143 C144 1.390 . S
C143 H148 0.949 . S
C144 C143 1.390 . S
C144 C149 1.399 . S
C145 C141 1.404 . S
C145 H146 0.950 . S
C145 C147 1.375 . S
H146 C145 0.950 . S
C147 C145 1.375 . S
C147 C149 1.382 . S
C147 H151 0.950 . S
H148 C143 0.949 . S
C149 C144 1.399 . S
C149 C147 1.382 . S
C149 H150 0.952 . S
H150 C149 0.952 . S
H151 C147 0.950 . S
H152 C153 0.949 . S
C153 H152 0.949 . S
C153 C154 1.395 . S
C153 C155 1.391 . S
C154 C153 1.395 . S
C154 C157 1.390 . S
C155 C153 1.391 . S
C155 C159 1.387 . S
C155 C160 1.491 . S
H156 C157 0.950 . S
C157 C154 1.390 . S
C157 H156 0.950 . S
C157 C158 1.378 . S
C158 C157 1.378 . S
C158 C159 1.409 . S
C159 C155 1.387 . S
C159 C158 1.409 . S
C159 H161 0.951 . S
C160 C155 1.491 . S
C160 C162 1.382 . S
C160 C164 1.404 . S
H161 C159 0.951 . S
C162 C160 1.382 . S
C162 C163 1.390 . S
C162 H167 0.949 . S
C163 C162 1.390 . S
C163 C168 1.399 . S
C164 C160 1.404 . S
C164 H165 0.950 . S
C164 C166 1.375 . S
H165 C164 0.950 . S
C166 C164 1.375 . S
C166 C168 1.382 . S
C166 H170 0.950 . S
H167 C162 0.949 . S
C168 C163 1.399 . S
C168 C166 1.382 . S
C168 H169 0.952 . S
H169 C168 0.952 . S
H170 C166 0.950 . S
H171 C172 0.949 . S
C172 H171 0.949 . S
C172 C173 1.395 . S
C172 C174 1.391 . S
C173 C172 1.395 . S
C173 C176 1.390 1_565 S
C174 C172 1.391 . S
C174 C178 1.387 . S
C174 C179 1.491 . S
H175 C176 0.950 . S
C176 C173 1.390 1_545 S
C176 H175 0.950 . S
C176 C177 1.378 . S
C177 C176 1.378 . S
C177 C178 1.409 1_545 S
C178 C174 1.387 . S
C178 C177 1.409 1_565 S
C178 H180 0.951 . S
C179 C174 1.491 . S
C179 C181 1.382 . S
C179 C183 1.404 . S
H180 C178 0.951 . S
C181 C179 1.382 . S
C181 C182 1.390 . S
C181 H186 0.949 . S
C182 C181 1.390 . S
C182 C187 1.399 . S
C183 C179 1.404 . S
C183 H184 0.950 . S
C183 C185 1.375 . S
H184 C183 0.950 . S
C185 C183 1.375 . S
C185 C187 1.382 . S
C185 H189 0.950 . S
H186 C181 0.949 . S
C187 C182 1.399 . S
C187 C185 1.382 . S
C187 H188 0.952 . S
H188 C187 0.952 . S
H189 C185 0.950 . S
H190 C191 0.949 . S
C191 H190 0.949 . S
C191 C192 1.395 . S
C191 C193 1.391 . S
C192 C191 1.395 . S
C192 C195 1.390 . S
C193 C191 1.391 . S
C193 C197 1.387 . S
C193 C198 1.491 . S
H194 C195 0.950 . S
C195 C192 1.390 . S
C195 H194 0.950 . S
C195 C196 1.378 . S
C196 C195 1.378 . S
C196 C197 1.409 . S
C197 C193 1.387 . S
C197 C196 1.409 . S
C197 H199 0.951 . S
C198 C193 1.491 . S
C198 C200 1.382 . S
C198 C202 1.404 . S
H199 C197 0.951 . S
C200 C198 1.382 . S
C200 C201 1.390 . S
C200 H205 0.949 . S
C201 C200 1.390 . S
C201 C206 1.399 . S
C202 C198 1.404 . S
C202 H203 0.950 . S
C202 C204 1.375 . S
H203 C202 0.950 . S
C204 C202 1.375 . S
C204 C206 1.382 . S
C204 H208 0.950 . S
H205 C200 0.949 . S
C206 C201 1.399 . S
C206 C204 1.382 . S
C206 H207 0.952 . S
H207 C206 0.952 . S
H208 C204 0.950 . S
H209 C210 0.949 . S
C210 H209 0.949 . S
C210 C211 1.395 . S
C210 C212 1.391 . S
C211 C210 1.395 . S
C211 C214 1.390 . S
C212 C210 1.391 . S
C212 C216 1.387 . S
C212 C217 1.491 . S
H213 C214 0.950 . S
C214 C211 1.390 . S
C214 H213 0.950 . S
C214 C215 1.378 . S
C215 C214 1.378 . S
C215 C216 1.409 . S
C216 C212 1.387 . S
C216 C215 1.409 . S
C216 H218 0.951 . S
C217 C212 1.491 . S
C217 C219 1.382 . S
C217 C221 1.404 . S
H218 C216 0.951 . S
C219 C217 1.382 . S
C219 C220 1.390 . S
C219 H224 0.949 . S
C220 C219 1.390 . S
C220 C225 1.399 . S
C221 C217 1.404 . S
C221 H222 0.950 . S
C221 C223 1.375 . S
H222 C221 0.950 . S
C223 C221 1.375 . S
C223 C225 1.382 . S
C223 H227 0.950 . S
H224 C219 0.949 . S
C225 C220 1.399 . S
C225 C223 1.382 . S
C225 H226 0.952 . S
H226 C225 0.952 . S
H227 C223 0.950 . S
H228 C229 0.949 . S
C229 H228 0.949 . S
C229 C230 1.395 . S
C229 C231 1.391 . S
C230 C229 1.395 . S
C230 C233 1.390 . S
C231 C229 1.391 . S
C231 C235 1.387 . S
C231 C236 1.491 . S
H232 C233 0.950 . S
C233 C230 1.390 . S
C233 H232 0.950 . S
C233 C234 1.378 . S
C234 C233 1.378 . S
C234 C235 1.409 . S
C235 C231 1.387 . S
C235 C234 1.409 . S
C235 H237 0.951 . S
C236 C231 1.491 . S
C236 C238 1.382 . S
C236 C240 1.404 . S
H237 C235 0.951 . S
C238 C236 1.382 . S
C238 C239 1.390 . S
C238 H243 0.949 . S
C239 C238 1.390 . S
C239 C244 1.399 . S
C240 C236 1.404 . S
C240 H241 0.950 . S
C240 C242 1.375 . S
H241 C240 0.950 . S
C242 C240 1.375 . S
C242 C244 1.382 . S
C242 H246 0.950 . S
H243 C238 0.949 . S
C244 C239 1.399 . S
C244 C242 1.382 . S
C244 H245 0.952 . S
H245 C244 0.952 . S
H246 C242 0.950 . S
H247 C248 0.949 1_554 S
C248 H247 0.949 1_556 S
C248 C249 1.395 . S
C248 C250 1.391 . S
C249 C248 1.395 . S
C249 C252 1.390 . S
C250 C248 1.391 . S
C250 C254 1.387 . S
C250 C255 1.491 . S
H251 C252 0.950 . S
C252 C249 1.390 . S
C252 H251 0.950 . S
C252 C253 1.378 . S
C253 C252 1.378 . S
C253 C254 1.409 . S
C254 C250 1.387 . S
C254 C253 1.409 . S
C254 H256 0.951 . S
C255 C250 1.491 . S
C255 C257 1.382 1_556 S
C255 C259 1.404 . S
H256 C254 0.951 . S
C257 C255 1.382 1_554 S
C257 C258 1.390 . S
C257 H262 0.949 . S
C258 C257 1.390 . S
C258 C263 1.399 . S
C259 C255 1.404 . S
C259 H260 0.950 . S
C259 C261 1.375 . S
H260 C259 0.950 . S
C261 C259 1.375 . S
C261 C263 1.382 1_556 S
C261 H265 0.950 . S
H262 C257 0.949 . S
C263 C258 1.399 . S
C263 C261 1.382 1_554 S
C263 H264 0.952 . S
H264 C263 0.952 . S
H265 C261 0.950 . S
H266 C267 0.949 . S
C267 H266 0.949 . S
C267 C268 1.395 . S
C267 C269 1.391 . S
C268 C267 1.395 . S
C268 C271 1.390 . S
C269 C267 1.391 . S
C269 C273 1.387 . S
C269 C274 1.491 . S
H270 C271 0.950 . S
C271 C268 1.390 . S
C271 H270 0.950 . S
C271 C272 1.378 . S
C272 C271 1.378 . S
C272 C273 1.409 . S
C273 C269 1.387 . S
C273 C272 1.409 . S
C273 H275 0.951 . S
C274 C269 1.491 . S
C274 C276 1.382 . S
C274 C278 1.404 . S
H275 C273 0.951 . S
C276 C274 1.382 . S
C276 C277 1.390 . S
C276 H281 0.949 . S
C277 C276 1.390 . S
C277 C282 1.399 . S
C278 C274 1.404 . S
C278 H279 0.950 . S
C278 C280 1.375 . S
H279 C278 0.950 . S
C280 C278 1.375 . S
C280 C282 1.382 . S
C280 H284 0.950 . S
H281 C276 0.949 . S
C282 C277 1.399 . S
C282 C280 1.382 . S
C282 H283 0.952 . S
H283 C282 0.952 . S
H284 C280 0.950 . S
H285 C286 0.949 . S
C286 H285 0.949 . S
C286 C287 1.395 1_556 S
C286 C288 1.391 . S
C287 C286 1.395 1_554 S
C287 C290 1.390 . S
C288 C286 1.391 . S
C288 C292 1.387 . S
C288 C293 1.491 . S
H289 C290 0.950 . S
C290 C287 1.390 . S
C290 H289 0.950 . S
C290 C291 1.378 1_554 S
C291 C290 1.378 1_556 S
C291 C292 1.409 . S
C292 C288 1.387 . S
C292 C291 1.409 . S
C292 H294 0.951 1_545 S
C293 C288 1.491 . S
C293 C295 1.382 . S
C293 C297 1.404 . S
H294 C292 0.951 1_565 S
C295 C293 1.382 . S
C295 C296 1.390 . S
C295 H300 0.949 . S
C296 C295 1.390 . S
C296 C301 1.399 . S
C297 C293 1.404 . S
C297 H298 0.950 . S
C297 C299 1.375 . S
H298 C297 0.950 . S
C299 C297 1.375 . S
C299 C301 1.382 . S
C299 H303 0.950 . S
H300 C295 0.949 . S
C301 C296 1.399 . S
C301 C299 1.382 . S
C301 H302 0.952 . S
H302 C301 0.952 . S
H303 C299 0.950 . S
Mn304 O309 2.095 . S
Mn304 O319 2.162 . S
Mn304 O320 2.297 . S
Mn304 O328 2.385 . S
Mn304 O329 2.209 1_554 S
Mn304 O330 2.094 . S
Mn305 O310 2.121 1_556 S
Mn305 N312 2.257 . S
Mn305 N321 2.282 . S
Mn305 O329 2.215 . S
Mn305 O331 2.117 1_556 S
C306 O328 1.234 1_556 S
C306 O329 1.283 . S
C307 O319 1.281 . S
C307 O320 1.236 . S
C308 O330 1.240 . S
C308 O331 1.264 . S
O309 Mn304 2.095 . S
O309 C318 1.250 . S
O310 Mn305 2.121 1_554 S
O310 C318 1.258 . S
C311 N312 1.326 . S
C311 C315 1.460 . S
C311 H317 0.929 . S
N312 Mn305 2.257 . S
N312 C311 1.326 . S
N312 C316 1.362 . S
C313 C314 1.258 . S
C313 C316 1.431 . S
C313 C333 1.449 . S
C314 C313 1.258 . S
C314 C315 1.477 . S
C314 H334 0.931 . S
C315 C311 1.460 . S
C315 C314 1.477 . S
C315 H335 0.930 . S
C316 N312 1.362 . S
C316 C313 1.431 . S
C316 C326 1.476 . S
H317 C311 0.929 . S
C318 O309 1.250 . S
C318 O310 1.258 . S
O319 Mn304 2.162 . S
O319 C307 1.281 . S
O320 Mn304 2.297 . S
O320 C307 1.236 . S
N321 Mn305 2.282 . S
N321 C322 1.328 . S
N321 C326 1.318 . S
C322 N321 1.328 . S
C322 C323 1.457 . S
C322 H327 0.929 . S
C323 C322 1.457 . S
C323 C324 1.291 . S
C323 H336 0.931 . S
C324 C323 1.291 . S
C324 C325 1.373 . S
C324 H337 0.929 . S
C325 C324 1.373 . S
C325 C326 1.396 . S
C325 C332 1.403 . S
C326 C316 1.476 . S
C326 N321 1.318 . S
C326 C325 1.396 . S
H327 C322 0.929 . S
O328 Mn304 2.385 . S
O328 C306 1.234 1_554 S
O329 Mn304 2.209 1_556 S
O329 Mn305 2.215 . S
O329 C306 1.283 . S
O330 Mn304 2.094 . S
O330 C308 1.240 . S
O331 Mn305 2.117 1_554 S
O331 C308 1.264 . S
C332 C325 1.403 . S
C332 C333 1.399 . S
C332 H338 0.929 . S
C333 C313 1.449 . S
C333 C332 1.399 . S
C333 H339 0.930 . S
H334 C314 0.931 . S
H335 C315 0.930 . S
H336 C323 0.931 . S
H337 C324 0.929 . S
H338 C332 0.929 . S
H339 C333 0.930 . S
Mn340 O345 2.095 . S
Mn340 O355 2.162 . S
Mn340 O356 2.297 . S
Mn340 O364 2.385 . S
Mn340 O365 2.209 . S
Mn340 O366 2.094 . S
Mn341 O346 2.121 . S
Mn341 N348 2.257 . S
Mn341 N357 2.282 . S
Mn341 O365 2.215 . S
Mn341 O367 2.117 . S
C342 O364 1.234 . S
C342 O365 1.283 . S
C343 O355 1.281 . S
C343 O356 1.236 . S
C344 O366 1.240 . S
C344 O367 1.264 . S
O345 Mn340 2.095 . S
O345 C354 1.250 . S
O346 Mn341 2.121 . S
O346 C354 1.258 . S
C347 N348 1.326 . S
C347 C351 1.460 . S
C347 H353 0.929 . S
N348 Mn341 2.257 . S
N348 C347 1.326 . S
N348 C352 1.362 . S
C349 C350 1.258 . S
C349 C352 1.431 . S
C349 C369 1.449 . S
C350 C349 1.258 . S
C350 C351 1.477 . S
C350 H370 0.931 . S
C351 C347 1.460 . S
C351 C350 1.477 . S
C351 H371 0.930 . S
C352 N348 1.362 . S
C352 C349 1.431 . S
C352 C362 1.476 . S
H353 C347 0.929 . S
C354 O345 1.250 . S
C354 O346 1.258 . S
O355 Mn340 2.162 . S
O355 C343 1.281 . S
O356 Mn340 2.297 . S
O356 C343 1.236 . S
N357 Mn341 2.282 . S
N357 C358 1.328 . S
N357 C362 1.318 . S
C358 N357 1.328 . S
C358 C359 1.457 . S
C358 H363 0.929 . S
C359 C358 1.457 . S
C359 C360 1.291 . S
C359 H372 0.931 . S
C360 C359 1.291 . S
C360 C361 1.373 . S
C360 H373 0.929 . S
C361 C360 1.373 . S
C361 C362 1.396 . S
C361 C368 1.403 . S
C362 C352 1.476 . S
C362 N357 1.318 . S
C362 C361 1.396 . S
H363 C358 0.929 . S
O364 Mn340 2.385 . S
O364 C342 1.234 . S
O365 Mn340 2.209 . S
O365 Mn341 2.215 . S
O365 C342 1.283 . S
O366 Mn340 2.094 . S
O366 C344 1.240 . S
O367 Mn341 2.117 . S
O367 C344 1.264 . S
C368 C361 1.403 . S
C368 C369 1.399 . S
C368 H374 0.929 . S
C369 C349 1.449 . S
C369 C368 1.399 . S
C369 H375 0.930 . S
H370 C350 0.931 . S
H371 C351 0.930 . S
H372 C359 0.931 . S
H373 C360 0.929 . S
H374 C368 0.929 . S
H375 C369 0.930 . S
Mn376 O381 2.095 1_554 S
Mn376 O391 2.162 . S
Mn376 O392 2.297 1_554 S
Mn376 O400 2.385 . S
Mn376 O401 2.209 1_554 S
Mn376 O402 2.094 . S
Mn377 O382 2.121 . S
Mn377 N384 2.257 . S
Mn377 N393 2.282 1_556 S
Mn377 O401 2.215 . S
Mn377 O403 2.117 1_556 S
C378 O400 1.204 1_556 S
C378 O401 1.309 . S
C379 O391 1.281 1_556 S
C379 O392 1.236 . S
C380 O402 1.240 . S
C380 O403 1.264 . S
O381 Mn376 2.095 1_556 S
O381 C390 1.250 . S
O382 Mn377 2.121 . S
O382 C390 1.258 . S
C383 N384 1.326 . S
C383 C387 1.460 . S
C383 H389 0.929 . S
N384 Mn377 2.257 . S
N384 C383 1.326 . S
N384 C388 1.362 . S
C385 C386 1.258 . S
C385 C388 1.431 . S
C385 C405 1.449 . S
C386 C385 1.258 . S
C386 C387 1.477 . S
C386 H406 0.931 . S
C387 C383 1.460 . S
C387 C386 1.477 . S
C387 H407 0.930 . S
C388 N384 1.362 . S
C388 C385 1.431 . S
C388 C398 1.476 . S
H389 C383 0.929 . S
C390 O381 1.250 . S
C390 O382 1.258 . S
O391 Mn376 2.162 . S
O391 C379 1.281 1_554 S
O392 Mn376 2.297 1_556 S
O392 C379 1.236 . S
N393 Mn377 2.282 1_554 S
N393 C394 1.328 . S
N393 C398 1.318 1_554 S
C394 N393 1.328 . S
C394 C395 1.457 . S
C394 H399 0.929 . S
C395 C394 1.457 . S
C395 C396 1.291 . S
C395 H408 0.931 . S
C396 C395 1.291 . S
C396 C397 1.373 1_554 S
C396 H409 0.929 . S
C397 C396 1.373 1_556 S
C397 C398 1.396 . S
C397 C404 1.403 . S
C398 C388 1.476 . S
C398 N393 1.318 1_556 S
C398 C397 1.396 . S
H399 C394 0.929 . S
O400 Mn376 2.385 . S
O400 C378 1.204 1_554 S
O401 Mn376 2.209 1_556 S
O401 Mn377 2.215 . S
O401 C378 1.309 . S
O402 Mn376 2.094 . S
O402 C380 1.240 . S
O403 Mn377 2.117 1_554 S
O403 C380 1.264 . S
C404 C397 1.403 . S
C404 C405 1.399 . S
C404 H410 0.929 . S
C405 C385 1.449 . S
C405 C404 1.399 . S
C405 H411 0.930 . S
H406 C386 0.931 . S
H407 C387 0.930 . S
H408 C395 0.931 . S
H409 C396 0.929 . S
H410 C404 0.929 . S
H411 C405 0.930 . S
Mn412 O417 2.095 . S
Mn412 O427 2.162 . S
Mn412 O428 2.297 . S
Mn412 O436 2.385 . S
Mn412 O437 2.209 1_545 S
Mn412 O438 2.094 . S
Mn413 O418 2.121 . S
Mn413 N420 2.257 . S
Mn413 N429 2.282 . S
Mn413 O437 2.215 . S
Mn413 O439 2.117 . S
C414 O436 1.234 1_565 S
C414 O437 1.283 . S
C415 O427 1.281 . S
C415 O428 1.236 . S
C416 O438 1.240 . S
C416 O439 1.264 1_545 S
O417 Mn412 2.095 . S
O417 C426 1.250 . S
O418 Mn413 2.121 . S
O418 C426 1.258 1_565 S
C419 N420 1.326 . S
C419 C423 1.460 . S
C419 H425 0.929 . S
N420 Mn413 2.257 . S
N420 C419 1.326 . S
N420 C424 1.362 . S
C421 C422 1.258 . S
C421 C424 1.431 . S
C421 C441 1.449 . S
C422 C421 1.258 . S
C422 C423 1.477 . S
C422 H442 0.931 . S
C423 C419 1.460 . S
C423 C422 1.477 . S
C423 H443 0.930 . S
C424 N420 1.362 . S
C424 C421 1.431 . S
C424 C434 1.476 . S
H425 C419 0.929 . S
C426 O417 1.250 . S
C426 O418 1.258 1_545 S
O427 Mn412 2.162 . S
O427 C415 1.281 . S
O428 Mn412 2.297 . S
O428 C415 1.236 . S
N429 Mn413 2.282 . S
N429 C430 1.328 . S
N429 C434 1.318 . S
C430 N429 1.328 . S
C430 C431 1.457 . S
C430 H435 0.929 . S
C431 C430 1.457 . S
C431 C432 1.291 . S
C431 H444 0.931 . S
C432 C431 1.291 . S
C432 C433 1.373 . S
C432 H445 0.929 . S
C433 C432 1.373 . S
C433 C434 1.396 . S
C433 C440 1.403 . S
C434 C424 1.476 . S
C434 N429 1.318 . S
C434 C433 1.396 . S
H435 C430 0.929 . S
O436 Mn412 2.385 . S
O436 C414 1.234 1_545 S
O437 Mn412 2.209 1_565 S
O437 Mn413 2.215 . S
O437 C414 1.283 . S
O438 Mn412 2.094 . S
O438 C416 1.240 . S
O439 Mn413 2.117 . S
O439 C416 1.264 1_565 S
C440 C433 1.403 . S
C440 C441 1.399 . S
C440 H446 0.929 . S
C441 C421 1.449 . S
C441 C440 1.399 . S
C441 H447 0.930 . S
H442 C422 0.931 . S
H443 C423 0.930 . S
H444 C431 0.931 . S
H445 C432 0.929 . S
H446 C440 0.929 . S
H447 C441 0.930 . S
Mn448 O453 2.095 . S
Mn448 O463 2.162 . S
Mn448 O464 2.297 . S
Mn448 O472 2.385 . S
Mn448 O473 2.209 . S
Mn448 O474 2.094 . S
Mn449 O454 2.121 . S
Mn449 N456 2.257 . S
Mn449 N465 2.282 . S
Mn449 O473 2.215 . S
Mn449 O475 2.117 . S
C450 O472 1.234 . S
C450 O473 1.283 . S
C451 O463 1.281 . S
C451 O464 1.236 . S
C452 O474 1.240 . S
C452 O475 1.264 . S
O453 Mn448 2.095 . S
O453 C462 1.250 . S
O454 Mn449 2.121 . S
O454 C462 1.258 . S
C455 N456 1.326 . S
C455 C459 1.460 . S
C455 H461 0.929 . S
N456 Mn449 2.257 . S
N456 C455 1.326 . S
N456 C460 1.362 . S
C457 C458 1.258 . S
C457 C460 1.431 . S
C457 C477 1.449 . S
C458 C457 1.258 . S
C458 C459 1.477 . S
C458 H478 0.931 . S
C459 C455 1.460 . S
C459 C458 1.477 . S
C459 H479 0.930 . S
C460 N456 1.362 . S
C460 C457 1.431 . S
C460 C470 1.476 . S
H461 C455 0.929 . S
C462 O453 1.250 . S
C462 O454 1.258 . S
O463 Mn448 2.162 . S
O463 C451 1.281 . S
O464 Mn448 2.297 . S
O464 C451 1.236 . S
N465 Mn449 2.282 . S
N465 C466 1.328 . S
N465 C470 1.318 . S
C466 N465 1.328 . S
C466 C467 1.457 . S
C466 H471 0.929 . S
C467 C466 1.457 . S
C467 C468 1.291 . S
C467 H480 0.931 . S
C468 C467 1.291 . S
C468 C469 1.373 . S
C468 H481 0.929 . S
C469 C468 1.373 . S
C469 C470 1.396 . S
C469 C476 1.403 . S
C470 C460 1.476 . S
C470 N465 1.318 . S
C470 C469 1.396 . S
H471 C466 0.929 . S
O472 Mn448 2.385 . S
O472 C450 1.234 . S
O473 Mn448 2.209 . S
O473 Mn449 2.215 . S
O473 C450 1.283 . S
O474 Mn448 2.094 . S
O474 C452 1.240 . S
O475 Mn449 2.117 . S
O475 C452 1.264 . S
C476 C469 1.403 . S
C476 C477 1.399 . S
C476 H482 0.929 . S
C477 C457 1.449 . S
C477 C476 1.399 . S
C477 H483 0.930 . S
H478 C458 0.931 . S
H479 C459 0.930 . S
H480 C467 0.931 . S
H481 C468 0.929 . S
H482 C476 0.929 . S
H483 C477 0.930 . S
Mn484 O489 2.095 . S
Mn484 O499 2.162 . S
Mn484 O500 2.297 . S
Mn484 O508 2.385 . S
Mn484 O509 2.209 . S
Mn484 O510 2.094 . S
Mn485 O490 2.121 . S
Mn485 N492 2.257 . S
Mn485 N501 2.282 . S
Mn485 O509 2.215 . S
Mn485 O511 2.117 . S
C486 O508 1.234 . S
C486 O509 1.283 . S
C487 O499 1.281 . S
C487 O500 1.236 . S
C488 O510 1.240 . S
C488 O511 1.264 . S
O489 Mn484 2.095 . S
O489 C498 1.250 . S
O490 Mn485 2.121 . S
O490 C498 1.258 . S
C491 N492 1.326 . S
C491 C495 1.460 . S
C491 H497 0.929 . S
N492 Mn485 2.257 . S
N492 C491 1.326 . S
N492 C496 1.362 . S
C493 C494 1.258 . S
C493 C496 1.431 . S
C493 C513 1.449 . S
C494 C493 1.258 . S
C494 C495 1.477 . S
C494 H514 0.931 . S
C495 C491 1.460 . S
C495 C494 1.477 . S
C495 H515 0.930 . S
C496 N492 1.362 . S
C496 C493 1.431 . S
C496 C506 1.476 . S
H497 C491 0.929 . S
C498 O489 1.250 . S
C498 O490 1.258 . S
O499 Mn484 2.162 . S
O499 C487 1.281 . S
O500 Mn484 2.297 . S
O500 C487 1.236 . S
N501 Mn485 2.282 . S
N501 C502 1.328 . S
N501 C506 1.318 . S
C502 N501 1.328 . S
C502 C503 1.457 . S
C502 H507 0.929 . S
C503 C502 1.457 . S
C503 C504 1.291 . S
C503 H516 0.931 . S
C504 C503 1.291 . S
C504 C505 1.373 . S
C504 H517 0.929 . S
C505 C504 1.373 . S
C505 C506 1.396 . S
C505 C512 1.403 . S
C506 C496 1.476 . S
C506 N501 1.318 . S
C506 C505 1.396 . S
H507 C502 0.929 . S
O508 Mn484 2.385 . S
O508 C486 1.234 . S
O509 Mn484 2.209 . S
O509 Mn485 2.215 . S
O509 C486 1.283 . S
O510 Mn484 2.094 . S
O510 C488 1.240 . S
O511 Mn485 2.117 . S
O511 C488 1.264 . S
C512 C505 1.403 . S
C512 C513 1.399 . S
C512 H518 0.929 . S
C513 C493 1.449 . S
C513 C512 1.399 . S
C513 H519 0.930 . S
H514 C494 0.931 . S
H515 C495 0.930 . S
H516 C503 0.931 . S
H517 C504 0.929 . S
H518 C512 0.929 . S
H519 C513 0.930 . S
Mn520 O525 2.095 . S
Mn520 O535 2.162 . S
Mn520 O536 2.297 . S
Mn520 O544 2.385 . S
Mn520 O545 2.209 . S
Mn520 O546 2.094 . S
Mn521 O526 2.121 . S
Mn521 N528 2.257 . S
Mn521 N537 2.282 . S
Mn521 O545 2.215 . S
Mn521 O547 2.117 . S
C522 O544 1.234 . S
C522 O545 1.283 . S
C523 O535 1.281 . S
C523 O536 1.236 . S
C524 O546 1.240 . S
C524 O547 1.264 . S
O525 Mn520 2.095 . S
O525 C534 1.250 . S
O526 Mn521 2.121 . S
O526 C534 1.258 . S
C527 N528 1.326 . S
C527 C531 1.460 . S
C527 H533 0.929 . S
N528 Mn521 2.257 . S
N528 C527 1.326 . S
N528 C532 1.362 . S
C529 C530 1.258 . S
C529 C532 1.431 . S
C529 C549 1.449 . S
C530 C529 1.258 . S
C530 C531 1.477 . S
C530 H550 0.931 . S
C531 C527 1.460 . S
C531 C530 1.477 . S
C531 H551 0.930 . S
C532 N528 1.362 . S
C532 C529 1.431 . S
C532 C542 1.476 . S
H533 C527 0.929 . S
C534 O525 1.250 . S
C534 O526 1.258 . S
O535 Mn520 2.162 . S
O535 C523 1.281 . S
O536 Mn520 2.297 . S
O536 C523 1.236 . S
N537 Mn521 2.282 . S
N537 C538 1.328 . S
N537 C542 1.318 . S
C538 N537 1.328 . S
C538 C539 1.457 . S
C538 H543 0.929 . S
C539 C538 1.457 . S
C539 C540 1.291 . S
C539 H552 0.931 . S
C540 C539 1.291 . S
C540 C541 1.373 . S
C540 H553 0.929 . S
C541 C540 1.373 . S
C541 C542 1.396 . S
C541 C548 1.403 . S
C542 C532 1.476 . S
C542 N537 1.318 . S
C542 C541 1.396 . S
H543 C538 0.929 . S
O544 Mn520 2.385 . S
O544 C522 1.234 . S
O545 Mn520 2.209 . S
O545 Mn521 2.215 . S
O545 C522 1.283 . S
O546 Mn520 2.094 . S
O546 C524 1.240 . S
O547 Mn521 2.117 . S
O547 C524 1.264 . S
C548 C541 1.403 . S
C548 C549 1.399 . S
C548 H554 0.929 . S
C549 C529 1.449 . S
C549 C548 1.399 . S
C549 H555 0.930 . S
H550 C530 0.931 . S
H551 C531 0.930 . S
H552 C539 0.931 . S
H553 C540 0.929 . S
H554 C548 0.929 . S
H555 C549 0.930 . S
Mn556 O561 2.095 . S
Mn556 O571 2.162 1_545 S
Mn556 O572 2.297 . S
Mn556 O580 2.385 . S
Mn556 O581 2.209 . S
Mn556 O582 2.095 . S
Mn557 O562 2.121 . S
Mn557 N564 2.257 . S
Mn557 N573 2.282 . S
Mn557 O581 2.215 . S
Mn557 O583 2.117 . S
C558 O580 1.234 . S
C558 O581 1.283 . S
C559 O571 1.281 . S
C559 O572 1.236 1_565 S
C560 O582 1.267 . S
C560 O583 1.264 . S
O561 Mn556 2.095 . S
O561 C570 1.250 . S
O562 Mn557 2.121 . S
O562 C570 1.258 . S
C563 N564 1.326 . S
C563 C567 1.460 . S
C563 H569 0.929 . S
N564 Mn557 2.257 . S
N564 C563 1.326 . S
N564 C568 1.362 . S
C565 C566 1.258 . S
C565 C568 1.431 . S
C565 C585 1.449 . S
C566 C565 1.258 . S
C566 C567 1.477 . S
C566 H586 0.931 . S
C567 C563 1.460 . S
C567 C566 1.477 . S
C567 H587 0.930 . S
C568 N564 1.362 . S
C568 C565 1.431 . S
C568 C578 1.476 . S
H569 C563 0.929 . S
C570 O561 1.250 . S
C570 O562 1.258 . S
O571 Mn556 2.162 1_565 S
O571 C559 1.281 . S
O572 Mn556 2.297 . S
O572 C559 1.236 1_545 S
N573 Mn557 2.282 . S
N573 C574 1.328 . S
N573 C578 1.318 . S
C574 N573 1.328 . S
C574 C575 1.457 . S
C574 H579 0.929 . S
C575 C574 1.457 . S
C575 C576 1.291 . S
C575 H588 0.931 . S
C576 C575 1.291 . S
C576 C577 1.373 . S
C576 H589 0.929 . S
C577 C576 1.373 . S
C577 C578 1.396 . S
C577 C584 1.403 . S
C578 C568 1.476 . S
C578 N573 1.318 . S
C578 C577 1.396 . S
H579 C574 0.929 . S
O580 Mn556 2.385 . S
O580 C558 1.234 . S
O581 Mn556 2.209 . S
O581 Mn557 2.215 . S
O581 C558 1.283 . S
O582 Mn556 2.095 . S
O582 C560 1.267 . S
O583 Mn557 2.117 . S
O583 C560 1.264 . S
C584 C577 1.403 . S
C584 C585 1.399 . S
C584 H590 0.929 . S
C585 C565 1.449 . S
C585 C584 1.399 . S
C585 H591 0.930 . S
H586 C566 0.931 . S
H587 C567 0.930 . S
H588 C575 0.931 . S
H589 C576 0.929 . S
H590 C584 0.929 . S
H591 C585 0.930 . S
Mn592 O597 2.095 . S
Mn592 O607 2.162 . S
Mn592 O608 2.297 . S
Mn592 O616 2.385 1_455 S
Mn592 O617 2.209 1_455 S
Mn592 O618 2.094 . S
Mn593 O598 2.121 . S
Mn593 N600 2.257 . S
Mn593 N609 2.282 . S
Mn593 O617 2.215 . S
Mn593 O619 2.117 . S
C594 O616 1.234 . S
C594 O617 1.283 . S
C595 O607 1.281 . S
C595 O608 1.236 . S
C596 O618 1.240 . S
C596 O619 1.264 1_455 S
O597 Mn592 2.095 . S
O597 C606 1.250 . S
O598 Mn593 2.121 . S
O598 C606 1.258 1_655 S
C599 N600 1.326 . S
C599 C603 1.460 . S
C599 H605 0.929 . S
N600 Mn593 2.257 . S
N600 C599 1.326 . S
N600 C604 1.362 . S
C601 C602 1.258 . S
C601 C604 1.431 . S
C601 C621 1.449 . S
C602 C601 1.258 . S
C602 C603 1.477 . S
C602 H622 0.931 . S
C603 C599 1.460 . S
C603 C602 1.477 . S
C603 H623 0.930 . S
C604 N600 1.362 . S
C604 C601 1.431 . S
C604 C614 1.476 . S
H605 C599 0.929 . S
C606 O597 1.250 . S
C606 O598 1.258 1_455 S
O607 Mn592 2.162 . S
O607 C595 1.281 . S
O608 Mn592 2.297 . S
O608 C595 1.236 . S
N609 Mn593 2.282 . S
N609 C610 1.328 . S
N609 C614 1.318 . S
C610 N609 1.328 . S
C610 C611 1.457 . S
C610 H615 0.929 . S
C611 C610 1.457 . S
C611 C612 1.291 . S
C611 H624 0.931 . S
C612 C611 1.291 . S
C612 C613 1.373 . S
C612 H625 0.929 . S
C613 C612 1.373 . S
C613 C614 1.396 . S
C613 C620 1.403 . S
C614 C604 1.476 . S
C614 N609 1.318 . S
C614 C613 1.396 . S
H615 C610 0.929 . S
O616 Mn592 2.385 1_655 S
O616 C594 1.234 . S
O617 Mn592 2.209 1_655 S
O617 Mn593 2.215 . S
O617 C594 1.283 . S
O618 Mn592 2.094 . S
O618 C596 1.240 . S
O619 Mn593 2.117 . S
O619 C596 1.264 1_655 S
C620 C613 1.403 . S
C620 C621 1.399 . S
C620 H626 0.929 . S
C621 C601 1.449 . S
C621 C620 1.399 . S
C621 H627 0.930 . S
H622 C602 0.931 . S
H623 C603 0.930 . S
H624 C611 0.931 . S
H625 C612 0.929 . S
H626 C620 0.929 . S
H627 C621 0.930 . S
Mn628 O633 2.095 . S
Mn628 O643 2.162 . S
Mn628 O644 2.297 . S
Mn628 O652 2.385 . S
Mn628 O653 2.209 . S
Mn628 O654 2.094 . S
Mn629 O634 2.121 . S
Mn629 N636 2.257 . S
Mn629 N645 2.282 . S
Mn629 O653 2.215 . S
Mn629 O655 2.117 . S
C630 O652 1.234 . S
C630 O653 1.283 . S
C631 O643 1.281 . S
C631 O644 1.236 . S
C632 O654 1.240 . S
C632 O655 1.264 . S
O633 Mn628 2.095 . S
O633 C642 1.250 . S
O634 Mn629 2.121 . S
O634 C642 1.258 . S
C635 N636 1.326 . S
C635 C639 1.460 . S
C635 H641 0.929 . S
N636 Mn629 2.257 . S
N636 C635 1.326 . S
N636 C640 1.362 . S
C637 C638 1.258 . S
C637 C640 1.431 . S
C637 C657 1.449 . S
C638 C637 1.258 . S
C638 C639 1.477 . S
C638 H658 0.931 . S
C639 C635 1.460 . S
C639 C638 1.477 . S
C639 H659 0.930 . S
C640 N636 1.362 . S
C640 C637 1.431 . S
C640 C650 1.476 . S
H641 C635 0.929 . S
C642 O633 1.250 . S
C642 O634 1.258 . S
O643 Mn628 2.162 . S
O643 C631 1.281 . S
O644 Mn628 2.297 . S
O644 C631 1.236 . S
N645 Mn629 2.282 . S
N645 C646 1.328 . S
N645 C650 1.318 . S
C646 N645 1.328 . S
C646 C647 1.457 . S
C646 H651 0.929 . S
C647 C646 1.457 . S
C647 C648 1.291 . S
C647 H660 0.931 . S
C648 C647 1.291 . S
C648 C649 1.373 . S
C648 H661 0.929 . S
C649 C648 1.373 . S
C649 C650 1.396 . S
C649 C656 1.403 . S
C650 C640 1.476 . S
C650 N645 1.318 . S
C650 C649 1.396 . S
H651 C646 0.929 . S
O652 Mn628 2.385 . S
O652 C630 1.234 . S
O653 Mn628 2.209 . S
O653 Mn629 2.215 . S
O653 C630 1.283 . S
O654 Mn628 2.094 . S
O654 C632 1.240 . S
O655 Mn629 2.117 . S
O655 C632 1.264 . S
C656 C649 1.403 . S
C656 C657 1.399 . S
C656 H662 0.929 . S
C657 C637 1.449 . S
C657 C656 1.399 . S
C657 H663 0.930 . S
H658 C638 0.931 . S
H659 C639 0.930 . S
H660 C647 0.931 . S
H661 C648 0.929 . S
H662 C656 0.929 . S
H663 C657 0.930 . S
Mn664 O669 2.095 1_455 S
Mn664 O679 2.162 . S
Mn664 O680 2.297 1_455 S
Mn664 O688 2.385 . S
Mn664 O689 2.209 1_455 S
Mn664 O690 2.094 . S
Mn665 O670 2.121 . S
Mn665 N672 2.257 . S
Mn665 N681 2.282 . S
Mn665 O689 2.215 . S
Mn665 O691 2.117 1_655 S
C666 O688 1.234 . S
C666 O689 1.283 1_455 S
C667 O679 1.281 . S
C667 O680 1.236 1_455 S
C668 O690 1.240 . S
C668 O691 1.264 . S
O669 Mn664 2.095 1_655 S
O669 C678 1.250 . S
O670 Mn665 2.121 . S
O670 C678 1.258 . S
C671 N672 1.326 . S
C671 C675 1.460 . S
C671 H677 0.929 . S
N672 Mn665 2.257 . S
N672 C671 1.326 . S
N672 C676 1.362 . S
C673 C674 1.258 . S
C673 C676 1.431 . S
C673 C693 1.449 . S
C674 C673 1.258 . S
C674 C675 1.477 . S
C674 H694 0.931 . S
C675 C671 1.460 . S
C675 C674 1.477 . S
C675 H695 0.930 . S
C676 N672 1.362 . S
C676 C673 1.431 . S
C676 C686 1.476 . S
H677 C671 0.929 . S
C678 O669 1.250 . S
C678 O670 1.258 . S
O679 Mn664 2.162 . S
O679 C667 1.281 . S
O680 Mn664 2.297 1_655 S
O680 C667 1.236 1_655 S
N681 Mn665 2.282 . S
N681 C682 1.328 1_655 S
N681 C686 1.318 . S
C682 N681 1.328 1_455 S
C682 C683 1.457 . S
C682 H687 0.929 . S
C683 C682 1.457 . S
C683 C684 1.291 . S
C683 H696 0.931 . S
C684 C683 1.291 . S
C684 C685 1.373 1_455 S
C684 H697 0.929 . S
C685 C684 1.373 1_655 S
C685 C686 1.396 . S
C685 C692 1.403 . S
C686 C676 1.476 . S
C686 N681 1.318 . S
C686 C685 1.396 . S
H687 C682 0.929 . S
O688 Mn664 2.385 . S
O688 C666 1.234 . S
O689 Mn664 2.209 1_655 S
O689 Mn665 2.215 . S
O689 C666 1.283 1_655 S
O690 Mn664 2.094 . S
O690 C668 1.240 . S
O691 Mn665 2.117 1_455 S
O691 C668 1.264 . S
C692 C685 1.403 . S
C692 C693 1.399 . S
C692 H698 0.929 . S
C693 C673 1.449 . S
C693 C692 1.399 . S
C693 H699 0.930 . S
H694 C674 0.931 . S
H695 C675 0.930 . S
H696 C683 0.931 . S
H697 C684 0.929 . S
H698 C692 0.929 . S
H699 C693 0.930 . S
Mn700 O705 2.095 . S
Mn700 O715 2.162 . S
Mn700 O716 2.297 . S
Mn700 O724 2.385 . S
Mn700 O725 2.209 . S
Mn700 O726 2.094 . S
Mn701 O706 2.121 . S
Mn701 N708 2.257 . S
Mn701 N717 2.282 . S
Mn701 O725 2.215 . S
Mn701 O727 2.117 . S
C702 O724 1.234 . S
C702 O725 1.283 . S
C703 O715 1.281 . S
C703 O716 1.236 . S
C704 O726 1.240 . S
C704 O727 1.264 . S
O705 Mn700 2.095 . S
O705 C714 1.250 . S
O706 Mn701 2.121 . S
O706 C714 1.258 . S
C707 N708 1.326 . S
C707 C711 1.460 . S
C707 H713 0.929 . S
N708 Mn701 2.257 . S
N708 C707 1.326 . S
N708 C712 1.362 . S
C709 C710 1.258 . S
C709 C712 1.431 . S
C709 C729 1.449 . S
C710 C709 1.258 . S
C710 C711 1.477 . S
C710 H730 0.931 . S
C711 C707 1.460 . S
C711 C710 1.477 . S
C711 H731 0.930 . S
C712 N708 1.362 . S
C712 C709 1.431 . S
C712 C722 1.476 . S
H713 C707 0.929 . S
C714 O705 1.250 . S
C714 O706 1.258 . S
O715 Mn700 2.162 . S
O715 C703 1.281 . S
O716 Mn700 2.297 . S
O716 C703 1.236 . S
N717 Mn701 2.282 . S
N717 C718 1.328 . S
N717 C722 1.318 . S
C718 N717 1.328 . S
C718 C719 1.457 . S
C718 H723 0.929 . S
C719 C718 1.457 . S
C719 C720 1.291 . S
C719 H732 0.931 . S
C720 C719 1.291 . S
C720 C721 1.373 . S
C720 H733 0.929 . S
C721 C720 1.373 . S
C721 C722 1.396 . S
C721 C728 1.403 . S
C722 C712 1.476 . S
C722 N717 1.318 . S
C722 C721 1.396 . S
H723 C718 0.929 . S
O724 Mn700 2.385 . S
O724 C702 1.234 . S
O725 Mn700 2.209 . S
O725 Mn701 2.215 . S
O725 C702 1.283 . S
O726 Mn700 2.094 . S
O726 C704 1.240 . S
O727 Mn701 2.117 . S
O727 C704 1.264 . S
C728 C721 1.403 . S
C728 C729 1.399 . S
C728 H734 0.929 . S
C729 C709 1.449 . S
C729 C728 1.399 . S
C729 H735 0.930 . S
H730 C710 0.931 . S
H731 C711 0.930 . S
H732 C719 0.931 . S
H733 C720 0.929 . S
H734 C728 0.929 . S
H735 C729 0.930 . S
C736 C737 1.387 . S
C736 H740 0.950 . S
C736 C745 1.390 . S
C737 C736 1.387 . S
C737 C739 1.387 . S
H738 C745 0.950 . S
C739 C737 1.387 . S
C739 C741 1.390 . S
C739 H743 0.950 . S
H740 C736 0.950 . S
C741 C739 1.390 . S
C741 C742 1.387 . S
C741 H744 0.950 . S
C742 C741 1.387 . S
C742 C745 1.387 . S
H743 C739 0.950 . S
H744 C741 0.950 . S
C745 C736 1.390 . S
C745 H738 0.950 . S
C745 C742 1.387 . S
C746 C747 1.387 . S
C746 H750 0.950 . S
C746 C755 1.390 . S
C747 C746 1.387 . S
C747 C749 1.387 . S
H748 C755 0.950 . S
C749 C747 1.387 . S
C749 C751 1.390 . S
C749 H753 0.950 . S
H750 C746 0.950 . S
C751 C749 1.390 . S
C751 C752 1.387 . S
C751 H754 0.950 . S
C752 C751 1.387 . S
C752 C755 1.387 . S
H753 C749 0.950 . S
H754 C751 0.950 . S
C755 C746 1.390 . S
C755 H748 0.950 . S
C755 C752 1.387 . S
C756 C757 1.387 . S
C756 H760 0.950 . S
C756 C765 1.390 . S
C757 C756 1.387 . S
C757 C759 1.387 . S
H758 C765 0.950 . S
C759 C757 1.387 . S
C759 C761 1.390 . S
C759 H763 0.950 . S
H760 C756 0.950 . S
C761 C759 1.390 . S
C761 C762 1.387 . S
C761 H764 0.950 . S
C762 C761 1.387 . S
C762 C765 1.387 . S
H763 C759 0.950 . S
H764 C761 0.950 . S
C765 C756 1.390 . S
C765 H758 0.950 . S
C765 C762 1.387 . S
C766 C767 1.387 1_565 S
C766 H770 0.950 . S
C766 C775 1.390 . S
C767 C766 1.387 1_545 S
C767 C769 1.387 . S
H768 C775 0.950 . S
C769 C767 1.387 . S
C769 C771 1.390 . S
C769 H773 0.950 . S
H770 C766 0.950 . S
C771 C769 1.390 . S
C771 C772 1.387 . S
C771 H774 0.950 . S
C772 C771 1.387 . S
C772 C775 1.387 1_545 S
H773 C769 0.950 . S
H774 C771 0.950 . S
C775 C766 1.390 . S
C775 H768 0.950 . S
C775 C772 1.387 1_565 S
C776 C777 1.387 . S
C776 H780 0.950 . S
C776 C785 1.390 . S
C777 C776 1.387 . S
C777 C779 1.387 . S
H778 C785 0.950 . S
C779 C777 1.387 . S
C779 C781 1.390 . S
C779 H783 0.950 . S
H780 C776 0.950 . S
C781 C779 1.390 . S
C781 C782 1.387 . S
C781 H784 0.950 . S
C782 C781 1.387 . S
C782 C785 1.387 . S
H783 C779 0.950 . S
H784 C781 0.950 . S
C785 C776 1.390 . S
C785 H778 0.950 . S
C785 C782 1.387 . S
C786 C787 1.387 . S
C786 H790 0.950 . S
C786 C795 1.390 . S
C787 C786 1.387 . S
C787 C789 1.387 . S
H788 C795 0.950 . S
C789 C787 1.387 . S
C789 C791 1.390 . S
C789 H793 0.950 . S
H790 C786 0.950 . S
C791 C789 1.390 . S
C791 C792 1.387 . S
C791 H794 0.950 . S
C792 C791 1.387 . S
C792 C795 1.387 . S
H793 C789 0.950 . S
H794 C791 0.950 . S
C795 C786 1.390 . S
C795 H788 0.950 . S
C795 C792 1.387 . S
C796 C797 1.387 . S
C796 H800 0.950 . S
C796 C805 1.390 . S
C797 C796 1.387 . S
C797 C799 1.387 . S
H798 C805 0.950 . S
C799 C797 1.387 . S
C799 C801 1.390 . S
C799 H803 0.950 . S
H800 C796 0.950 . S
C801 C799 1.390 . S
C801 C802 1.387 . S
C801 H804 0.950 . S
C802 C801 1.387 . S
C802 C805 1.387 . S
H803 C799 0.950 . S
H804 C801 0.950 . S
C805 C796 1.390 . S
C805 H798 0.950 . S
C805 C802 1.387 . S
C806 C807 1.381 1_565 S
C806 H810 0.950 . S
C806 C815 1.390 . S
C807 C806 1.381 1_545 S
C807 C809 1.393 . S
H808 C815 0.950 . S
C809 C807 1.393 . S
C809 C811 1.390 . S
C809 H813 0.950 . S
H810 C806 0.950 . S
C811 C809 1.390 . S
C811 C812 1.387 . S
C811 H814 0.950 . S
C812 C811 1.387 . S
C812 C815 1.387 1_545 S
H813 C809 0.950 . S
H814 C811 0.950 . S
C815 C806 1.390 . S
C815 H808 0.950 . S
C815 C812 1.387 1_565 S
C816 C817 1.387 . S
C816 H820 0.950 . S
C816 C825 1.390 . S
C817 C816 1.387 . S
C817 C819 1.387 . S
H818 C825 0.950 . S
C819 C817 1.387 . S
C819 C821 1.390 . S
C819 H823 0.950 . S
H820 C816 0.950 . S
C821 C819 1.390 . S
C821 C822 1.387 . S
C821 H824 0.950 . S
C822 C821 1.387 . S
C822 C825 1.387 . S
H823 C819 0.950 . S
H824 C821 0.950 . S
C825 C816 1.390 . S
C825 H818 0.950 . S
C825 C822 1.387 . S
C826 C827 1.387 . S
C826 H830 0.950 . S
C826 C835 1.390 . S
C827 C826 1.387 . S
C827 C829 1.387 . S
H828 C835 0.950 . S
C829 C827 1.387 . S
C829 C831 1.390 . S
C829 H833 0.950 . S
H830 C826 0.950 . S
C831 C829 1.390 . S
C831 C832 1.387 . S
C831 H834 0.950 . S
C832 C831 1.387 . S
C832 C835 1.387 . S
H833 C829 0.950 . S
H834 C831 0.950 . S
C835 C826 1.390 . S
C835 H828 0.950 . S
C835 C832 1.387 . S
C836 C837 1.387 . S
C836 H840 0.950 . S
C836 C845 1.390 . S
C837 C836 1.387 . S
C837 C839 1.387 . S
H838 C845 0.950 . S
C839 C837 1.387 . S
C839 C841 1.390 . S
C839 H843 0.950 . S
H840 C836 0.950 . S
C841 C839 1.390 . S
C841 C842 1.387 . S
C841 H844 0.950 . S
C842 C841 1.387 . S
C842 C845 1.387 . S
H843 C839 0.950 . S
H844 C841 0.950 . S
C845 C836 1.390 . S
C845 H838 0.950 . S
C845 C842 1.387 . S
C846 C847 1.387 . S
C846 H850 0.950 . S
C846 C855 1.390 . S
C847 C846 1.387 . S
C847 C849 1.387 . S
H848 C855 0.950 . S
C849 C847 1.387 . S
C849 C851 1.390 . S
C849 H853 0.950 . S
H850 C846 0.950 . S
C851 C849 1.390 . S
C851 C852 1.387 . S
C851 H854 0.950 . S
C852 C851 1.387 . S
C852 C855 1.387 . S
H853 C849 0.950 . S
H854 C851 0.950 . S
C855 C846 1.390 . S
C855 H848 0.950 . S
C855 C852 1.387 . S
C856 C857 1.387 . S
C856 H860 0.950 . S
C856 C865 1.390 . S
C857 C856 1.387 . S
C857 C859 1.387 . S
H858 C865 0.950 . S
C859 C857 1.387 . S
C859 C861 1.390 . S
C859 H863 0.950 . S
H860 C856 0.950 . S
C861 C859 1.390 . S
C861 C862 1.387 . S
C861 H864 0.950 . S
C862 C861 1.387 . S
C862 C865 1.387 . S
H863 C859 0.950 . S
H864 C861 0.950 . S
C865 C856 1.390 . S
C865 H858 0.950 . S
C865 C862 1.387 . S
C866 C867 1.387 . S
C866 H870 0.950 . S
C866 C875 1.390 . S
C867 C866 1.387 . S
C867 C869 1.387 . S
H868 C875 0.950 1_655 S
C869 C867 1.387 . S
C869 C871 1.390 . S
C869 H873 0.950 . S
H870 C866 0.950 . S
C871 C869 1.390 . S
C871 C872 1.387 . S
C871 H874 0.950 . S
C872 C871 1.387 . S
C872 C875 1.387 . S
H873 C869 0.950 . S
H874 C871 0.950 . S
C875 C866 1.390 . S
C875 H868 0.950 1_455 S
C875 C872 1.387 . S
C876 C877 1.387 . S
C876 H880 0.950 . S
C876 C885 1.390 . S
C877 C876 1.387 . S
C877 C879 1.387 . S
H878 C885 0.950 . S
C879 C877 1.387 . S
C879 C881 1.390 . S
C879 H883 0.950 . S
H880 C876 0.950 . S
C881 C879 1.390 . S
C881 C882 1.387 . S
C881 H884 0.950 . S
C882 C881 1.387 . S
C882 C885 1.387 . S
H883 C879 0.950 . S
H884 C881 0.950 . S
C885 C876 1.390 . S
C885 H878 0.950 . S
C885 C882 1.387 . S
C886 C887 1.387 1_455 S
C886 H890 0.950 . S
C886 C895 1.390 . S
C887 C886 1.387 1_655 S
C887 C889 1.387 . S
H888 C895 0.950 . S
C889 C887 1.387 . S
C889 C891 1.390 . S
C889 H893 0.950 . S
H890 C886 0.950 . S
C891 C889 1.390 . S
C891 C892 1.387 . S
C891 H894 0.950 . S
C892 C891 1.387 . S
C892 C895 1.387 1_655 S
H893 C889 0.950 . S
H894 C891 0.950 . S
C895 C886 1.390 . S
C895 H888 0.950 . S
C895 C892 1.387 1_455 S
C896 C897 1.387 . S
C896 H900 0.950 . S
C896 C905 1.390 . S
C897 C896 1.387 . S
C897 C899 1.387 . S
H898 C905 0.950 . S
C899 C897 1.387 . S
C899 C901 1.390 . S
C899 H903 0.950 . S
H900 C896 0.950 . S
C901 C899 1.390 . S
C901 C902 1.387 . S
C901 H904 0.950 . S
C902 C901 1.387 . S
C902 C905 1.387 . S
H903 C899 0.950 . S
H904 C901 0.950 . S
C905 C896 1.390 . S
C905 H898 0.950 . S
C905 C902 1.387 . S
C906 C907 1.387 . S
C906 H910 0.950 . S
C906 C915 1.390 . S
C907 C906 1.387 . S
C907 C909 1.387 . S
H908 C915 0.950 . S
C909 C907 1.387 . S
C909 C911 1.390 . S
C909 H913 0.950 . S
H910 C906 0.950 . S
C911 C909 1.390 . S
C911 C912 1.387 . S
C911 H914 0.950 . S
C912 C911 1.387 . S
C912 C915 1.387 . S
H913 C909 0.950 . S
H914 C911 0.950 . S
C915 C906 1.390 . S
C915 H908 0.950 . S
C915 C912 1.387 . S
C916 C917 1.387 1_545 S
C916 H920 0.950 . S
C916 C925 1.390 1_545 S
C917 C916 1.387 1_565 S
C917 C919 1.387 . S
H918 C925 0.950 . S
C919 C917 1.387 . S
C919 C921 1.390 . S
C919 H923 0.950 1_554 S
H920 C916 0.950 . S
C921 C919 1.390 . S
C921 C922 1.387 . S
C921 H924 0.950 . S
C922 C921 1.387 . S
C922 C925 1.387 . S
H923 C919 0.950 1_556 S
H924 C921 0.950 . S
C925 C916 1.390 1_565 S
C925 H918 0.950 . S
C925 C922 1.387 . S
C926 C927 1.387 . S
C926 H930 0.950 . S
C926 C935 1.390 . S
C927 C926 1.387 . S
C927 C929 1.387 . S
H928 C935 0.950 . S
C929 C927 1.387 . S
C929 C931 1.390 . S
C929 H933 0.950 . S
H930 C926 0.950 . S
C931 C929 1.390 . S
C931 C932 1.387 . S
C931 H934 0.950 . S
C932 C931 1.387 . S
C932 C935 1.387 . S
H933 C929 0.950 . S
H934 C931 0.950 . S
C935 C926 1.390 . S
C935 H928 0.950 . S
C935 C932 1.387 . S
C936 C937 1.387 . S
C936 H940 0.950 . S
C936 C945 1.390 . S
C937 C936 1.387 . S
C937 C939 1.387 . S
H938 C945 0.950 . S
C939 C937 1.387 . S
C939 C941 1.390 . S
C939 H943 0.950 . S
H940 C936 0.950 . S
C941 C939 1.390 . S
C941 C942 1.387 . S
C941 H944 0.950 . S
C942 C941 1.387 . S
C942 C945 1.387 . S
H943 C939 0.950 . S
H944 C941 0.950 . S
C945 C936 1.390 . S
C945 H938 0.950 . S
C945 C942 1.387 . S
C946 C947 1.387 . S
C946 H950 0.950 . S
C946 C955 1.390 . S
C947 C946 1.387 . S
C947 C949 1.387 . S
H948 C955 0.950 . S
C949 C947 1.387 . S
C949 C951 1.390 . S
C949 H953 0.950 . S
H950 C946 0.950 . S
C951 C949 1.390 . S
C951 C952 1.387 . S
C951 H954 0.950 . S
C952 C951 1.387 . S
C952 C955 1.387 . S
H953 C949 0.950 . S
H954 C951 0.950 . S
C955 C946 1.390 . S
C955 H948 0.950 . S
C955 C952 1.387 . S
C956 C957 1.387 . S
C956 H960 0.950 . S
C956 C965 1.390 . S
C957 C956 1.387 . S
C957 C959 1.387 . S
H958 C965 0.950 . S
C959 C957 1.387 . S
C959 C961 1.390 . S
C959 H963 0.950 . S
H960 C956 0.950 . S
C961 C959 1.390 . S
C961 C962 1.387 . S
C961 H964 0.950 . S
C962 C961 1.387 . S
C962 C965 1.387 . S
H963 C959 0.950 . S
H964 C961 0.950 . S
C965 C956 1.390 . S
C965 H958 0.950 . S
C965 C962 1.387 . S
C966 C967 1.387 . S
C966 H970 0.950 . S
C966 C975 1.390 . S
C967 C966 1.387 . S
C967 C969 1.387 . S
H968 C975 0.950 . S
C969 C967 1.387 . S
C969 C971 1.390 . S
C969 H973 0.950 . S
H970 C966 0.950 . S
C971 C969 1.390 . S
C971 C972 1.387 . S
C971 H974 0.950 . S
C972 C971 1.387 . S
C972 C975 1.387 . S
H973 C969 0.950 . S
H974 C971 0.950 . S
C975 C966 1.390 . S
C975 H968 0.950 . S
C975 C972 1.387 . S
C976 C977 1.387 . S
C976 H980 0.950 . S
C976 C985 1.390 . S
C977 C976 1.387 . S
C977 C979 1.387 . S
H978 C985 0.950 . S
C979 C977 1.387 . S
C979 C981 1.390 . S
C979 H983 0.950 . S
H980 C976 0.950 . S
C981 C979 1.390 . S
C981 C982 1.387 . S
C981 H984 0.950 . S
C982 C981 1.387 . S
C982 C985 1.387 . S
H983 C979 0.950 . S
H984 C981 0.950 . S
C985 C976 1.390 . S
C985 H978 0.950 . S
C985 C982 1.387 . S
C986 C987 1.387 . S
C986 H990 0.950 . S
C986 C995 1.390 . S
C987 C986 1.387 . S
C987 C989 1.387 . S
H988 C995 0.950 . S
C989 C987 1.387 . S
C989 C991 1.390 . S
C989 H993 0.950 1_545 S
H990 C986 0.950 . S
C991 C989 1.390 . S
C991 C992 1.387 . S
C991 H994 0.950 1_545 S
C992 C991 1.387 . S
C992 C995 1.387 . S
H993 C989 0.950 1_565 S
H994 C991 0.950 1_565 S
C995 C986 1.390 . S
C995 H988 0.950 . S
C995 C992 1.387 . S
C996 C997 1.387 . S
C996 H1000 0.950 . S
C996 C1005 1.390 . S
C997 C996 1.387 . S
C997 C999 1.387 . S
H998 C1005 0.950 . S
C999 C997 1.387 . S
C999 C1001 1.390 . S
C999 H1003 0.950 . S
H1000 C996 0.950 . S
C1001 C999 1.390 . S
C1001 C1002 1.387 . S
C1001 H1004 0.950 . S
C1002 C1001 1.387 . S
C1002 C1005 1.387 . S
H1003 C999 0.950 . S
H1004 C1001 0.950 . S
C1005 C996 1.390 . S
C1005 H998 0.950 . S
C1005 C1002 1.387 . S
C1006 C1007 1.387 . S
C1006 H1010 0.950 . S
C1006 C1015 1.390 . S
C1007 C1006 1.387 . S
C1007 C1009 1.387 . S
H1008 C1015 0.950 . S
C1009 C1007 1.387 . S
C1009 C1011 1.390 . S
C1009 H1013 0.950 . S
H1010 C1006 0.950 . S
C1011 C1009 1.390 . S
C1011 C1012 1.387 . S
C1011 H1014 0.950 . S
C1012 C1011 1.387 . S
C1012 C1015 1.387 . S
H1013 C1009 0.950 . S
H1014 C1011 0.950 . S
C1015 C1006 1.390 . S
C1015 H1008 0.950 . S
C1015 C1012 1.387 . S
C1016 C1017 1.387 . S
C1016 H1020 0.950 . S
C1016 C1025 1.390 . S
C1017 C1016 1.387 . S
C1017 C1019 1.387 . S
H1018 C1025 0.950 . S
C1019 C1017 1.387 . S
C1019 C1021 1.390 . S
C1019 H1023 0.950 . S
H1020 C1016 0.950 . S
C1021 C1019 1.390 . S
C1021 C1022 1.387 . S
C1021 H1024 0.950 . S
C1022 C1021 1.387 . S
C1022 C1025 1.387 . S
H1023 C1019 0.950 . S
H1024 C1021 0.950 . S
C1025 C1016 1.390 . S
C1025 H1018 0.950 . S
C1025 C1022 1.387 . S
C1026 C1027 1.387 . S
C1026 H1030 0.950 . S
C1026 C1035 1.390 . S
C1027 C1026 1.387 . S
C1027 C1029 1.387 1_545 S
H1028 C1035 0.950 . S
C1029 C1027 1.387 1_565 S
C1029 C1031 1.390 . S
C1029 H1033 0.950 . S
H1030 C1026 0.950 . S
C1031 C1029 1.390 . S
C1031 C1032 1.387 1_565 S
C1031 H1034 0.950 . S
C1032 C1031 1.387 1_545 S
C1032 C1035 1.387 . S
H1033 C1029 0.950 . S
H1034 C1031 0.950 . S
C1035 C1026 1.390 . S
C1035 H1028 0.950 . S
C1035 C1032 1.387 . S
C1036 C1037 1.387 . S
C1036 H1040 0.950 . S
C1036 C1045 1.390 . S
C1037 C1036 1.387 . S
C1037 C1039 1.387 . S
H1038 C1045 0.950 . S
C1039 C1037 1.387 . S
C1039 C1041 1.390 . S
C1039 H1043 0.950 . S
H1040 C1036 0.950 . S
C1041 C1039 1.390 . S
C1041 C1042 1.387 . S
C1041 H1044 0.950 . S
C1042 C1041 1.387 . S
C1042 C1045 1.387 . S
H1043 C1039 0.950 . S
H1044 C1041 0.950 . S
C1045 C1036 1.390 . S
C1045 H1038 0.950 . S
C1045 C1042 1.387 . S
C1046 C1047 1.387 . S
C1046 H1050 0.950 . S
C1046 C1055 1.390 . S
C1047 C1046 1.387 . S
C1047 C1049 1.387 . S
H1048 C1055 0.950 . S
C1049 C1047 1.387 . S
C1049 C1051 1.390 . S
C1049 H1053 0.950 . S
H1050 C1046 0.950 . S
C1051 C1049 1.390 . S
C1051 C1052 1.387 . S
C1051 H1054 0.950 . S
C1052 C1051 1.387 . S
C1052 C1055 1.387 . S
H1053 C1049 0.950 . S
H1054 C1051 0.950 . S
C1055 C1046 1.390 . S
C1055 H1048 0.950 . S
C1055 C1052 1.387 . S
C1056 C1057 1.387 . S
C1056 H1060 0.950 . S
C1056 C1065 1.390 . S
C1057 C1056 1.387 . S
C1057 C1059 1.387 . S
H1058 C1065 0.950 . S
C1059 C1057 1.387 . S
C1059 C1061 1.390 . S
C1059 H1063 0.950 . S
H1060 C1056 0.950 . S
C1061 C1059 1.390 . S
C1061 C1062 1.387 . S
C1061 H1064 0.950 . S
C1062 C1061 1.387 . S
C1062 C1065 1.387 . S
H1063 C1059 0.950 . S
H1064 C1061 0.950 . S
C1065 C1056 1.390 . S
C1065 H1058 0.950 . S
C1065 C1062 1.387 . S
C1066 C1067 1.387 . S
C1066 H1070 0.950 . S
C1066 C1075 1.390 . S
C1067 C1066 1.387 . S
C1067 C1069 1.387 1_455 S
H1068 C1075 0.950 . S
C1069 C1067 1.387 1_655 S
C1069 C1071 1.390 . S
C1069 H1073 0.950 . S
H1070 C1066 0.950 . S
C1071 C1069 1.390 . S
C1071 C1072 1.387 1_655 S
C1071 H1074 0.950 . S
C1072 C1071 1.387 1_455 S
C1072 C1075 1.387 . S
H1073 C1069 0.950 . S
H1074 C1071 0.950 . S
C1075 C1066 1.390 . S
C1075 H1068 0.950 . S
C1075 C1072 1.387 . S
C1076 C1077 1.387 . S
C1076 H1080 0.950 . S
C1076 C1085 1.390 . S
C1077 C1076 1.387 . S
C1077 C1079 1.387 . S
H1078 C1085 0.950 . S
C1079 C1077 1.387 . S
C1079 C1081 1.390 . S
C1079 H1083 0.950 . S
H1080 C1076 0.950 . S
C1081 C1079 1.390 . S
C1081 C1082 1.387 . S
C1081 H1084 0.950 . S
C1082 C1081 1.387 . S
C1082 C1085 1.387 . S
H1083 C1079 0.950 . S
H1084 C1081 0.950 . S
C1085 C1076 1.390 . S
C1085 H1078 0.950 . S
C1085 C1082 1.387 . S
C1086 C1087 1.387 . S
C1086 H1090 0.950 . S
C1086 C1095 1.390 . S
C1087 C1086 1.387 . S
C1087 C1089 1.387 . S
H1088 C1095 0.950 . S
C1089 C1087 1.387 . S
C1089 C1091 1.399 . S
C1089 H1093 0.950 1_455 S
H1090 C1086 0.950 . S
C1091 C1089 1.399 . S
C1091 C1092 1.401 . S
C1091 H1094 0.928 1_455 S
C1092 C1091 1.401 . S
C1092 C1095 1.387 . S
H1093 C1089 0.950 1_655 S
H1094 C1091 0.928 1_655 S
C1095 C1086 1.390 . S
C1095 H1088 0.950 . S
C1095 C1092 1.387 . S
C1096 C1097 1.387 . S
C1096 H1100 0.950 . S
C1096 C1105 1.390 . S
C1097 C1096 1.387 . S
C1097 C1099 1.387 . S
H1098 C1105 0.950 . S
C1099 C1097 1.387 . S
C1099 C1101 1.390 . S
C1099 H1103 0.950 . S
H1100 C1096 0.950 . S
C1101 C1099 1.390 . S
C1101 C1102 1.387 . S
C1101 H1104 0.950 . S
C1102 C1101 1.387 . S
C1102 C1105 1.387 . S
H1103 C1099 0.950 . S
H1104 C1101 0.950 . S
C1105 C1096 1.390 . S
C1105 H1098 0.950 . S
C1105 C1102 1.387 . S
C1106 C1107 1.387 . S
C1106 H1110 0.950 . S
C1106 C1115 1.390 . S
C1107 C1106 1.387 . S
C1107 C1109 1.387 . S
H1108 C1115 0.950 . S
C1109 C1107 1.387 . S
C1109 C1111 1.390 . S
C1109 H1113 0.950 . S
H1110 C1106 0.950 . S
C1111 C1109 1.390 . S
C1111 C1112 1.387 . S
C1111 H1114 0.950 . S
C1112 C1111 1.387 . S
C1112 C1115 1.387 . S
H1113 C1109 0.950 . S
H1114 C1111 0.950 . S
C1115 C1106 1.390 . S
C1115 H1108 0.950 . S
C1115 C1112 1.387 . S
C1116 C1117 1.387 . S
C1116 H1120 0.950 . S
C1116 C1125 1.390 . S
C1117 C1116 1.387 . S
C1117 C1119 1.387 . S
H1118 C1125 0.950 . S
C1119 C1117 1.387 . S
C1119 C1121 1.390 . S
C1119 H1123 0.950 . S
H1120 C1116 0.950 . S
C1121 C1119 1.390 . S
C1121 C1122 1.387 . S
C1121 H1124 0.950 . S
C1122 C1121 1.387 . S
C1122 C1125 1.387 . S
H1123 C1119 0.950 . S
H1124 C1121 0.950 . S
C1125 C1116 1.390 . S
C1125 H1118 0.950 . S
C1125 C1122 1.387 . S
C1126 C1127 1.387 . S
C1126 H1130 0.950 . S
C1126 C1135 1.390 . S
C1127 C1126 1.387 . S
C1127 C1129 1.387 . S
H1128 C1135 0.950 . S
C1129 C1127 1.387 . S
C1129 C1131 1.390 . S
C1129 H1133 0.950 . S
H1130 C1126 0.950 . S
C1131 C1129 1.390 . S
C1131 C1132 1.387 . S
C1131 H1134 0.950 . S
C1132 C1131 1.387 . S
C1132 C1135 1.387 . S
H1133 C1129 0.950 . S
H1134 C1131 0.950 . S
C1135 C1126 1.390 . S
C1135 H1128 0.950 . S
C1135 C1132 1.387 . S
C1136 C1137 1.387 . S
C1136 H1140 0.950 . S
C1136 C1145 1.390 . S
C1137 C1136 1.387 . S
C1137 C1139 1.387 . S
H1138 C1145 0.950 . S
C1139 C1137 1.387 . S
C1139 C1141 1.390 . S
C1139 H1143 0.950 . S
H1140 C1136 0.950 . S
C1141 C1139 1.390 . S
C1141 C1142 1.387 . S
C1141 H1144 0.950 . S
C1142 C1141 1.387 . S
C1142 C1145 1.387 . S
H1143 C1139 0.950 . S
H1144 C1141 0.950 . S
C1145 C1136 1.390 . S
C1145 H1138 0.950 . S
C1145 C1142 1.387 . S
C1146 C1147 1.387 . S
C1146 H1150 0.950 . S
C1146 C1155 1.390 . S
C1147 C1146 1.387 . S
C1147 C1149 1.387 . S
H1148 C1155 0.950 . S
C1149 C1147 1.387 . S
C1149 C1151 1.390 . S
C1149 H1153 0.950 . S
H1150 C1146 0.950 . S
C1151 C1149 1.390 . S
C1151 C1152 1.387 . S
C1151 H1154 0.950 . S
C1152 C1151 1.387 . S
C1152 C1155 1.387 . S
H1153 C1149 0.950 . S
H1154 C1151 0.950 . S
C1155 C1146 1.390 . S
C1155 H1148 0.950 . S
C1155 C1152 1.387 . S
C1156 C1157 1.387 . S
C1156 H1160 0.950 . S
C1156 C1165 1.390 . S
C1157 C1156 1.387 . S
C1157 C1159 1.387 . S
H1158 C1165 0.950 . S
C1159 C1157 1.387 . S
C1159 C1161 1.390 . S
C1159 H1163 0.950 . S
H1160 C1156 0.950 . S
C1161 C1159 1.390 . S
C1161 C1162 1.387 . S
C1161 H1164 0.950 . S
C1162 C1161 1.387 . S
C1162 C1165 1.387 . S
H1163 C1159 0.950 . S
H1164 C1161 0.950 . S
C1165 C1156 1.390 . S
C1165 H1158 0.950 . S
C1165 C1162 1.387 . S
C1166 C1167 1.387 . S
C1166 H1170 0.950 . S
C1166 C1175 1.390 . S
C1167 C1166 1.387 . S
C1167 C1169 1.387 . S
H1168 C1175 0.950 . S
C1169 C1167 1.387 . S
C1169 C1171 1.390 . S
C1169 H1173 0.950 . S
H1170 C1166 0.950 . S
C1171 C1169 1.390 . S
C1171 C1172 1.387 . S
C1171 H1174 0.950 . S
C1172 C1171 1.387 . S
C1172 C1175 1.387 . S
H1173 C1169 0.950 . S
H1174 C1171 0.950 . S
C1175 C1166 1.390 . S
C1175 H1168 0.950 . S
C1175 C1172 1.387 . S
C1176 C1177 1.387 . S
C1176 H1180 0.950 . S
C1176 C1185 1.390 . S
C1177 C1176 1.387 . S
C1177 C1179 1.387 1_556 S
H1178 C1185 0.950 . S
C1179 C1177 1.387 1_554 S
C1179 C1181 1.390 . S
C1179 H1183 0.950 . S
H1180 C1176 0.950 . S
C1181 C1179 1.390 . S
C1181 C1182 1.387 1_554 S
C1181 H1184 0.950 . S
C1182 C1181 1.387 1_556 S
C1182 C1185 1.387 . S
H1183 C1179 0.950 . S
H1184 C1181 0.950 . S
C1185 C1176 1.390 . S
C1185 H1178 0.950 . S
C1185 C1182 1.387 . S
C1186 C1187 1.387 . S
C1186 H1190 0.950 . S
C1186 C1195 1.390 . S
C1187 C1186 1.387 . S
C1187 C1189 1.387 . S
H1188 C1195 0.950 . S
C1189 C1187 1.387 . S
C1189 C1191 1.390 . S
C1189 H1193 0.950 . S
H1190 C1186 0.950 . S
C1191 C1189 1.390 . S
C1191 C1192 1.387 . S
C1191 H1194 0.950 . S
C1192 C1191 1.387 . S
C1192 C1195 1.387 . S
H1193 C1189 0.950 . S
H1194 C1191 0.950 . S
C1195 C1186 1.390 . S
C1195 H1188 0.950 . S
C1195 C1192 1.387 . S
C1196 C1197 1.387 . S
C1196 H1200 0.950 . S
C1196 C1205 1.390 . S
C1197 C1196 1.387 . S
C1197 C1199 1.387 1_554 S
H1198 C1205 0.950 . S
C1199 C1197 1.387 1_556 S
C1199 C1201 1.390 . S
C1199 H1203 0.950 . S
H1200 C1196 0.950 . S
C1201 C1199 1.390 . S
C1201 C1202 1.387 1_556 S
C1201 H1204 0.950 . S
C1202 C1201 1.387 1_554 S
C1202 C1205 1.387 . S
H1203 C1199 0.950 . S
H1204 C1201 0.950 . S
C1205 C1196 1.390 . S
C1205 H1198 0.950 . S
C1205 C1202 1.387 . S
C1206 C1207 1.387 . S
C1206 H1210 0.950 1_554 S
C1206 C1215 1.390 . S
C1207 C1206 1.387 . S
C1207 C1209 1.387 . S
H1208 C1215 0.950 1_556 S
C1209 C1207 1.387 . S
C1209 C1211 1.390 . S
C1209 H1213 0.950 . S
H1210 C1206 0.950 1_556 S
C1211 C1209 1.390 . S
C1211 C1212 1.387 . S
C1211 H1214 0.950 . S
C1212 C1211 1.387 . S
C1212 C1215 1.387 . S
H1213 C1209 0.950 . S
H1214 C1211 0.950 . S
C1215 C1206 1.390 . S
C1215 H1208 0.950 1_554 S
C1215 C1212 1.387 . S
C742 C306 1.856 . S
C737 C101 1.824 . S
C752 C354 1.307 . S
C747 C125 1.194 . S
C757 C139 1.869 . S
C762 C390 1.776 . S
C772 C426 1.722 1_455 S
C767 C82 1.800 1_545 S
C782 C452 1.534 . S
C777 C196 1.531 . S
C792 C488 1.844 . S
C787 C234 1.879 . S
C797 C220 1.068 . S
C802 C523 1.260 . S
C812 C560 1.725 . S
C807 C173 1.734 1_545 S
C817 C211 1.206 . S
C822 C594 1.226 . S
C832 C642 1.224 . S
C827 C182 1.180 . S
C837 C201 1.188 . S
C842 C595 1.397 . S
C852 C632 1.511 . S
C847 C239 1.368 . S
C857 C135 1.647 . S
C862 C678 1.557 . S
C867 C87 1.704 . S
C872 C667 1.873 . S
C877 C106 1.191 . S
C882 C668 1.395 . S
C887 C116 1.342 . S
C892 C666 1.343 1_655 S
C897 C59 1.709 . S
C902 C414 1.712 . S
C907 C268 2.057 . S
C912 C415 2.082 . S
C922 C318 1.346 . S
C917 C291 1.461 1_564 S
C932 C343 1.431 . S
C927 C163 1.341 . S
C937 C78 2.038 . S
C942 C450 2.048 . S
C952 C558 1.321 . S
C947 C215 1.335 . S
C962 C451 1.624 . S
C957 C177 1.645 . S
C972 C524 1.840 . S
C967 C230 1.842 . S
C982 C522 1.856 . S
C977 C272 1.824 . S
C987 C296 1.195 . S
C992 C570 1.307 . S
C997 C158 1.868 . S
C1002 C462 1.776 . S
C1012 C498 1.721 . S
C1007 C253 1.800 . S
C1017 C63 1.530 . S
C1022 C380 1.533 . S
C1032 C416 1.843 1_455 S
C1027 C6 1.878 . S
C1042 C307 1.261 . S
C1037 C30 1.075 . S
C1052 C344 1.726 . S
C1047 C40 1.736 . S
C1057 C21 1.206 . S
C1062 C630 1.226 . S
C1067 C49 1.177 . S
C1072 C606 1.225 . S
C1077 C68 1.184 . S
C1082 C631 1.396 . S
C1087 C11 1.367 . S
C1092 C596 1.511 . S
C1102 C714 1.556 . S
C1097 C154 1.647 . S
C1112 C703 1.874 . S
C1107 C258 1.705 . S
C1122 C704 1.394 . S
C1117 C277 1.190 . S
C1127 C287 1.343 . S
C1132 C702 1.344 . S
C1137 C192 1.710 . S
C1142 C486 1.713 . S
C1152 C487 2.082 . S
C1147 C97 2.057 . S
C1162 C534 1.350 . S
C1157 C120 1.461 . S
C1172 C559 1.431 . S
C1167 C144 1.340 . S
C1177 C249 2.039 . S
C1182 C378 2.048 . S
C1192 C342 1.321 . S
C1187 C25 1.335 . S
C1197 C44 1.645 . S
C1202 C379 1.622 1_554 S
C1212 C308 1.840 . S
C1207 C2 1.842 . S
