# Generated by pormake.
# Topology anh, (6,3)-cn, num edge types: 1
# Building blocks:
#     Node 0, Type 0, BuildingBlock: PAMTOO_clean_sbu_0, # of connection points: 6
#     Node 1, Type 0, BuildingBlock: PAMTOO_clean_sbu_0, # of connection points: 6
#     Node 2, Type 0, BuildingBlock: PAMTOO_clean_sbu_0, # of connection points: 6
#     Node 3, Type 1, BuildingBlock: MIDCAF_clean_linker_0, # of connection points: 3
#     Node 4, Type 1, BuildingBlock: MIDCAF_clean_linker_0, # of connection points: 3
#     Node 5, Type 1, BuildingBlock: MIDCAF_clean_linker_0, # of connection points: 3
#     Node 6, Type 1, BuildingBlock: MIDCAF_clean_linker_0, # of connection points: 3
#     Node 7, Type 1, BuildingBlock: MIDCAF_clean_linker_0, # of connection points: 3
#     Node 8, Type 1, BuildingBlock: MIDCAF_clean_linker_0, # of connection points: 3
#     Edge 9, Type (0, 1), BuildingBlock: ZUJKAS_clean_linker_0, # of connection points: 2
#     Edge 10, Type (0, 1), BuildingBlock: ZUJKAS_clean_linker_0, # of connection points: 2
#     Edge 11, Type (0, 1), BuildingBlock: ZUJKAS_clean_linker_0, # of connection points: 2
#     Edge 12, Type (0, 1), BuildingBlock: ZUJKAS_clean_linker_0, # of connection points: 2
#     Edge 13, Type (0, 1), BuildingBlock: ZUJKAS_clean_linker_0, # of connection points: 2
#     Edge 14, Type (0, 1), BuildingBlock: ZUJKAS_clean_linker_0, # of connection points: 2
#     Edge 15, Type (0, 1), BuildingBlock: ZUJKAS_clean_linker_0, # of connection points: 2
#     Edge 16, Type (0, 1), BuildingBlock: ZUJKAS_clean_linker_0, # of connection points: 2
#     Edge 17, Type (0, 1), BuildingBlock: ZUJKAS_clean_linker_0, # of connection points: 2
#     Edge 18, Type (0, 1), BuildingBlock: ZUJKAS_clean_linker_0, # of connection points: 2
#     Edge 19, Type (0, 1), BuildingBlock: ZUJKAS_clean_linker_0, # of connection points: 2
#     Edge 20, Type (0, 1), BuildingBlock: ZUJKAS_clean_linker_0, # of connection points: 2
#     Edge 21, Type (0, 1), BuildingBlock: ZUJKAS_clean_linker_0, # of connection points: 2
#     Edge 22, Type (0, 1), BuildingBlock: ZUJKAS_clean_linker_0, # of connection points: 2
#     Edge 23, Type (0, 1), BuildingBlock: ZUJKAS_clean_linker_0, # of connection points: 2
#     Edge 24, Type (0, 1), BuildingBlock: ZUJKAS_clean_linker_0, # of connection points: 2
#     Edge 25, Type (0, 1), BuildingBlock: ZUJKAS_clean_linker_0, # of connection points: 2
#     Edge 26, Type (0, 1), BuildingBlock: ZUJKAS_clean_linker_0, # of connection points: 2
# Relax obj value: 0.161
# Max RMSD: 0.187
# Mean RMSD: 0.150
data_MOF--net-anh--node1-PAMTOO_clean_sbu_0--node2-MIDCAF_clean_linker_0--edge1-ZUJKAS_clean_linker_0
_symmetry_space_group_name_H-M    P1
_symmetry_Int_Tables_number       1
_symmetry_cell_setting            triclinic
loop_
_symmetry_equiv_pos_as_xyz
'x, y, z'
_cell_length_a     45.10319
_cell_length_b     43.890983
_cell_length_c     82.506983
_cell_angle_alpha  90.284127
_cell_angle_beta   95.065203
_cell_angle_gamma 107.97306
loop_
_atom_site_label
_atom_site_type_symbol
_atom_site_fract_x
_atom_site_fract_y
_atom_site_fract_z
_atom_type_partial_charge
Dy0 Dy 0.05838 0.58759 0.14608 0.0
Dy1 Dy 1.03425 0.50861 0.14303 0.0
C2 C 0.04582 0.55112 0.11245 0.0
O3 O 1.00754 0.57456 0.15012 0.0
O4 O 0.99047 0.52305 0.13924 0.0
O5 O 0.07868 0.63181 0.13414 0.0
O6 O 0.0652 0.63287 0.15867 0.0
O7 O 1.02936 0.52191 0.16855 0.0
O8 O 0.06793 0.57045 0.17076 0.0
O9 O 0.08622 0.52076 0.1488 0.0
O10 O 0.10198 0.5744 0.14306 0.0
O11 O 1.03224 0.46206 0.15208 0.0
O12 O 1.00766 0.46596 0.12876 0.0
C13 C 0.98477 0.54869 0.14479 0.0
O14 O 1.03702 0.57159 0.12087 0.0
O15 O 0.05314 0.52768 0.11977 0.0
C16 C 0.10974 0.67398 0.15167 0.0
C17 C 0.16885 0.72031 0.15899 0.0
C18 C 0.1465 0.72623 0.14747 0.0
C19 C 0.11723 0.70329 0.14388 0.0
C20 C 0.13185 0.66783 0.16317 0.0
C21 C 0.16109 0.69086 0.16686 0.0
C22 C 0.07951 0.64954 0.14699 0.0
C23 C 0.04923 0.54562 0.17742 0.0
C24 C 0.10832 0.54759 0.14633 0.0
C25 C 0.98378 0.42259 0.14471 0.0
C26 C 0.92876 0.37624 0.15289 0.0
C27 C 0.94081 0.40555 0.16179 0.0
C28 C 0.96799 0.4286 0.15768 0.0
C29 C 0.97184 0.39347 0.13577 0.0
C30 C 0.9445 0.37048 0.13979 0.0
C31 C 1.01213 0.44684 0.14012 0.0
H32 H 0.15181 0.74834 0.14096 0.0
H33 H 0.10057 0.70826 0.13482 0.0
H34 H 0.12659 0.64516 0.1692 0.0
H35 H 0.17752 0.68561 0.17593 0.0
H36 H 0.92897 0.41083 0.1718 0.0
H37 H 0.97663 0.45116 0.1646 0.0
H38 H 0.98364 0.38853 0.12566 0.0
H39 H 0.9359 0.34803 0.1328 0.0
Dy40 Dy 0.54853 0.01995 0.51258 0.0
Dy41 Dy 0.6257 0.04728 0.51858 0.0
C42 C 0.58296 0.02515 0.54793 0.0
O43 O 0.56102 0.07168 0.52031 0.0
O44 O 0.61025 0.08953 0.51173 0.0
O45 O 0.50288 0.01288 0.52099 0.0
O46 O 0.50703 0.99757 0.49651 0.0
O47 O 0.61354 0.03606 0.49192 0.0
O48 O 0.56531 0.04328 0.48976 0.0
O49 O 0.61351 0.99483 0.52282 0.0
O50 O 0.56546 0.97815 0.5079 0.0
O51 O 0.67169 0.04891 0.51215 0.0
O52 O 0.66696 0.07728 0.5327 0.0
C53 C 0.58514 0.09509 0.51624 0.0
O54 O 0.56073 0.00665 0.53771 0.0
O55 O 0.60693 0.04712 0.54277 0.0
C56 C 0.46388 0.96694 0.50942 0.0
C57 C 0.41707 0.90722 0.51023 0.0
C58 C 0.44857 0.91028 0.51519 0.0
C59 C 0.47181 0.93994 0.51478 0.0
C60 C 0.43253 0.96423 0.50485 0.0
C61 C 0.40931 0.93466 0.50525 0.0
C62 C 0.48815 0.99757 0.5076 0.0
C63 C 0.58996 0.04113 0.48311 0.0
C64 C 0.59 0.97211 0.51529 0.0
C65 C 0.70928 0.09964 0.51732 0.0
C66 C 0.75425 0.15468 0.50723 0.0
C67 C 0.72227 0.15218 0.50552 0.0
C68 C 0.69997 0.12483 0.51047 0.0
C69 C 0.74105 0.10187 0.51893 0.0
C70 C 0.76339 0.12914 0.51389 0.0
C71 C 0.68607 0.07135 0.52308 0.0
H72 H 0.4553 0.88971 0.51923 0.0
H73 H 0.496 0.94169 0.51835 0.0
H74 H 0.42609 0.98485 0.50058 0.0
H75 H 0.38542 0.93311 0.50108 0.0
H76 H 0.71448 0.17126 0.50023 0.0
H77 H 0.67547 0.1234 0.50904 0.0
H78 H 0.74861 0.08263 0.52421 0.0
H79 H 0.78786 0.1305 0.51547 0.0
Dy80 Dy 0.56222 0.51081 0.84418 0.0
Dy81 Dy 0.48543 0.48678 0.83883 0.0
C82 C 0.52694 0.501 0.80948 0.0
O83 O 0.54897 0.5552 0.83956 0.0
O84 O 0.49765 0.53888 0.84528 0.0
O85 O 0.60514 0.54204 0.83635 0.0
O86 O 0.60655 0.51044 0.85636 0.0
O87 O 0.49817 0.47836 0.86485 0.0
O88 O 0.54544 0.51805 0.86803 0.0
O89 O 0.49851 0.44214 0.83584 0.0
O90 O 0.54931 0.45811 0.84763 0.0
O91 O 0.43964 0.48317 0.84602 0.0
O92 O 0.44421 0.46207 0.82295 0.0
C93 C 0.52339 0.56157 0.84263 0.0
O94 O 0.54778 0.49218 0.81866 0.0
O95 O 0.5046 0.50844 0.81605 0.0
C96 C 0.64592 0.51933 0.83797 0.0
C97 C 0.68995 0.50064 0.82144 0.0
C98 C 0.68905 0.53238 0.82096 0.0
C99 C 0.66739 0.54164 0.82922 0.0
C100 C 0.64618 0.48741 0.8382 0.0
C101 C 0.66812 0.47819 0.83007 0.0
C102 C 0.62254 0.52965 0.84596 0.0
C103 C 0.52128 0.49815 0.87421 0.0
C104 C 0.52382 0.43565 0.84177 0.0
C105 C 0.40728 0.48933 0.82329 0.0
C106 C 0.37256 0.52581 0.80746 0.0
C107 C 0.40445 0.53991 0.8127 0.0
C108 C 0.42164 0.52179 0.82044 0.0
C109 C 0.37579 0.47478 0.81773 0.0
C110 C 0.35853 0.49287 0.80981 0.0
C111 C 0.42569 0.47102 0.83184 0.0
H112 H 0.70516 0.55016 0.81421 0.0
H113 H 0.66729 0.56627 0.82869 0.0
H114 H 0.62957 0.46958 0.84469 0.0
H115 H 0.66843 0.45367 0.83089 0.0
H116 H 0.41597 0.56524 0.81139 0.0
H117 H 0.44611 0.53331 0.82447 0.0
H118 H 0.36452 0.44959 0.81962 0.0
H119 H 0.33413 0.48116 0.80573 0.0
C120 C 0.4792 0.94728 0.22157 0.0
C121 C 0.46802 0.95201 0.20566 0.0
C122 C 0.48394 0.97975 0.19772 0.0
C123 C 0.51026 0.00254 0.20567 0.0
H124 H 0.60399 0.07025 0.19972 0.0
H125 H 0.64512 0.1102 0.18699 0.0
H126 H 0.66961 0.16705 0.23193 0.0
H127 H 0.62948 0.12695 0.24471 0.0
H128 H 0.61302 0.09228 0.27738 0.0
H129 H 0.61765 0.09236 0.30702 0.0
H130 H 0.54467 0.00122 0.3055 0.0
H131 H 0.54017 0.00078 0.27588 0.0
H132 H 0.51273 0.9659 0.24193 0.0
H133 H 0.46724 0.92634 0.22807 0.0
H134 H 0.47591 0.9839 0.18541 0.0
H135 H 0.52174 0.02392 0.19935 0.0
N136 N 0.56734 0.04667 0.223 0.0
N137 N 0.59327 0.06971 0.24814 0.0
N138 N 0.5501 0.02339 0.24742 0.0
C139 C 0.59067 0.06997 0.23162 0.0
C140 C 0.57315 0.04651 0.25615 0.0
C141 C 0.54691 0.02329 0.23089 0.0
C142 C 0.61366 0.09518 0.22329 0.0
C143 C 0.61806 0.09139 0.20683 0.0
C144 C 0.64157 0.11436 0.19951 0.0
C145 C 0.661 0.14167 0.20849 0.0
C146 C 0.6557 0.14593 0.22476 0.0
C147 C 0.63249 0.12295 0.23208 0.0
C148 C 0.57619 0.04652 0.27419 0.0
C149 C 0.59798 0.07217 0.28333 0.0
C150 C 0.60055 0.07234 0.30033 0.0
C151 C 0.58152 0.04681 0.30859 0.0
C152 C 0.5599 0.02107 0.29948 0.0
C153 C 0.55721 0.02095 0.28248 0.0
C154 C 0.52081 0.99822 0.22179 0.0
C155 C 0.50518 0.97014 0.22956 0.0
C156 C 0.55165 0.41262 0.55301 0.0
C157 C 0.56654 0.41244 0.5388 0.0
C158 C 0.58037 0.44177 0.53154 0.0
C159 C 0.5793 0.4707 0.53846 0.0
H160 H 0.59809 0.57927 0.53459 0.0
H161 H 0.60278 0.63134 0.52228 0.0
H162 H 0.5425 0.64993 0.5563 0.0
H163 H 0.53819 0.59875 0.56863 0.0
H164 H 0.5647 0.57712 0.60656 0.0
H165 H 0.55921 0.57532 0.63573 0.0
H166 H 0.54259 0.47301 0.63381 0.0
H167 H 0.54774 0.47457 0.60471 0.0
H168 H 0.53946 0.44028 0.57105 0.0
H169 H 0.54119 0.39055 0.55905 0.0
H170 H 0.59197 0.44231 0.52055 0.0
H171 H 0.59036 0.493 0.53276 0.0
N172 N 0.56799 0.52842 0.55309 0.0
N173 N 0.56282 0.55406 0.57733 0.0
N174 N 0.56137 0.50047 0.5774 0.0
C175 C 0.56656 0.55509 0.56115 0.0
C176 C 0.56042 0.52692 0.58557 0.0
C177 C 0.5651 0.50083 0.56124 0.0
C178 C 0.56792 0.58503 0.55261 0.0
C179 C 0.58565 0.59442 0.53928 0.0
C180 C 0.58844 0.62419 0.53231 0.0
C181 C 0.57289 0.64457 0.53831 0.0
C182 C 0.55447 0.63461 0.55131 0.0
C183 C 0.55221 0.60536 0.55844 0.0
C184 C 0.55668 0.526 0.60325 0.0
C185 C 0.55977 0.55421 0.61232 0.0
C186 C 0.5568 0.55324 0.62905 0.0
C187 C 0.55045 0.52403 0.63704 0.0
C188 C 0.54713 0.49582 0.62796 0.0
C189 C 0.55029 0.49679 0.61128 0.0
C190 C 0.56493 0.47073 0.55291 0.0
C191 C 0.55094 0.44129 0.55999 0.0
C192 C 0.98189 0.51138 0.85652 0.0
C193 C 0.9739 0.51525 0.83996 0.0
C194 C 0.99357 0.54066 0.83187 0.0
C195 C 1.01987 0.56241 0.8403 0.0
H196 H 0.10345 0.62803 0.8337 0.0
H197 H 0.14869 0.6505 0.81902 0.0
H198 H 0.20389 0.69038 0.86408 0.0
H199 H 0.15845 0.66651 0.87903 0.0
H200 H 0.13127 0.63194 0.91331 0.0
H201 H 0.13291 0.63115 0.94308 0.0
H202 H 1.03271 0.58651 0.93939 0.0
H203 H 1.03097 0.5872 0.90988 0.0
H204 H 1.01299 0.53002 0.87782 0.0
H205 H 0.9676 0.49173 0.86305 0.0
H206 H 0.98793 0.54468 0.81919 0.0
H207 H 1.03404 0.58221 0.83381 0.0
N208 N 0.07655 0.60337 0.85831 0.0
N209 N 0.10306 0.62722 0.88318 0.0
N210 N 0.05514 0.58605 0.88269 0.0
C211 C 0.10143 0.62524 0.86663 0.0
C212 C 0.07972 0.60783 0.89126 0.0
C213 C 0.05343 0.58361 0.86623 0.0
C214 C 0.12748 0.6446 0.85764 0.0
C215 C 0.12504 0.64197 0.84055 0.0
C216 C 0.15105 0.65535 0.83203 0.0
C217 C 0.18019 0.67196 0.84035 0.0
C218 C 0.18194 0.67716 0.85732 0.0
C219 C 0.15586 0.66353 0.86589 0.0
C220 C 0.08102 0.60951 0.90924 0.0
C221 C 0.1096 0.62226 0.91888 0.0
C222 C 0.11057 0.62166 0.93589 0.0
C223 C 0.08293 0.60882 0.94352 0.0
C224 C 0.05434 0.59686 0.93386 0.0
C225 C 0.05341 0.59705 0.91693 0.0
C226 C 1.02685 0.55943 0.85704 0.0
C227 C 1.00791 0.53335 0.86499 0.0
C228 C 0.15358 0.63557 0.44067 0.0
C229 C 0.15966 0.63379 0.45757 0.0
C230 C 0.14192 0.60689 0.46548 0.0
C231 C 0.11845 0.58236 0.45663 0.0
H232 H 1.03575 0.50426 0.46083 0.0
H233 H 0.99964 0.45923 0.47351 0.0
H234 H 0.9692 0.41098 0.42643 0.0
H235 H 1.00505 0.45548 0.41377 0.0
H236 H 1.01357 0.50731 0.38256 0.0
H237 H 1.01099 0.50855 0.35282 0.0
H238 H 0.10856 0.56478 0.35582 0.0
H239 H 0.11118 0.56415 0.38553 0.0
H240 H 0.1266 0.61341 0.41883 0.0
H241 H 0.16717 0.65572 0.43417 0.0
H242 H 0.14602 0.60495 0.47851 0.0
H243 H 0.10517 0.56194 0.46307 0.0
N244 N 0.06771 0.534 0.43742 0.0
N245 N 0.04385 0.51129 0.41186 0.0
N246 N 0.08634 0.55839 0.4135 0.0
C247 C 0.04546 0.51041 0.42838 0.0
C248 C 0.06423 0.53514 0.40435 0.0
C249 C 0.08822 0.55816 0.43002 0.0
C250 C 1.02342 0.48354 0.43627 0.0
C251 C 1.02137 0.48404 0.45319 0.0
C252 C 1.00061 0.45835 0.46045 0.0
C253 C 0.98177 0.43153 0.45097 0.0
C254 C 0.98375 0.43112 0.43409 0.0
C255 C 1.00421 0.4568 0.42683 0.0
C256 C 0.06258 0.53567 0.38638 0.0
C257 C 1.03448 0.51993 0.37688 0.0
C258 C 1.03292 0.52073 0.35989 0.0
C259 C 0.05959 0.53671 0.35211 0.0
C260 C 0.08774 0.55216 0.36157 0.0
C261 C 0.08915 0.55192 0.37855 0.0
C262 C 0.11253 0.58413 0.43968 0.0
C263 C 0.1304 0.61109 0.43185 0.0
C264 C 0.51154 0.10353 0.8004 0.0
C265 C 0.5211 0.11177 0.81692 0.0
C266 C 0.53289 0.09097 0.82656 0.0
C267 C 0.53542 0.06267 0.81968 0.0
H268 H 0.51359 0.95334 0.82433 0.0
H269 H 0.51238 0.90255 0.83704 0.0
H270 H 0.56608 0.88269 0.79981 0.0
H271 H 0.56743 0.93287 0.78728 0.0
H272 H 0.54549 0.95464 0.75119 0.0
H273 H 0.55199 0.95629 0.72217 0.0
H274 H 0.55164 0.05456 0.72193 0.0
H275 H 0.54542 0.05318 0.75096 0.0
H276 H 0.50739 0.07049 0.78065 0.0
H277 H 0.50274 0.11922 0.7926 0.0
H278 H 0.54033 0.09671 0.83935 0.0
H279 H 0.54508 0.04734 0.82728 0.0
N280 N 0.53376 0.00114 0.80361 0.0
N281 N 0.54269 0.97717 0.77975 0.0
N282 N 0.53566 0.02768 0.77887 0.0
C283 C 0.53908 0.97601 0.79594 0.0
C284 C 0.54101 0.00286 0.77112 0.0
C285 C 0.53205 0.02712 0.79505 0.0
C286 C 0.54046 0.94707 0.80475 0.0
C287 C 0.52548 0.93828 0.81903 0.0
C288 C 0.52462 0.90916 0.82624 0.0
C289 C 0.53919 0.88867 0.81944 0.0
C290 C 0.55497 0.89808 0.80549 0.0
C291 C 0.55552 0.9268 0.79821 0.0
C292 C 0.54493 0.00379 0.75346 0.0
C293 C 0.54683 0.97665 0.74499 0.0
C294 C 0.55038 0.9775 0.72833 0.0
C295 C 0.55233 0.00555 0.71979 0.0
C296 C 0.55055 0.0327 0.72823 0.0
C297 C 0.54679 0.03182 0.74487 0.0
C298 C 0.52676 0.05508 0.803 0.0
C299 C 0.51446 0.07566 0.79352 0.0
C300 C 0.65385 0.57278 0.13848 0.0
C301 C 0.66095 0.54449 0.14256 0.0
C302 C 0.63577 0.51618 0.14368 0.0
C303 C 0.60468 0.51575 0.13981 0.0
H304 H 0.4895 0.52291 0.1526 0.0
H305 H 0.43903 0.52556 0.16073 0.0
H306 H 0.42958 0.58091 0.11857 0.0
H307 H 0.47928 0.57825 0.11062 0.0
H308 H 0.4867 0.52909 0.07865 0.0
H309 H 0.4824 0.52084 0.04925 0.0
H310 H 0.57775 0.51849 0.05217 0.0
H311 H 0.58238 0.52723 0.08158 0.0
H312 H 0.61827 0.59393 0.13041 0.0
H313 H 0.67238 0.59498 0.13723 0.0
H314 H 0.64011 0.494 0.14702 0.0
H315 H 0.58604 0.49317 0.1397 0.0
N316 N 0.54284 0.54569 0.13337 0.0
N317 N 0.51376 0.53941 0.10775 0.0
N318 N 0.5645 0.53583 0.10964 0.0
C319 C 0.51582 0.54484 0.12409 0.0
C320 C 0.53777 0.53469 0.10043 0.0
C321 C 0.56733 0.54126 0.126 0.0
C322 C 0.48844 0.55041 0.13099 0.0
C323 C 0.47689 0.53622 0.14534 0.0
C324 C 0.44783 0.53746 0.14987 0.0
C325 C 0.43009 0.55342 0.14029 0.0
C326 C 0.44256 0.56873 0.12637 0.0
C327 C 0.47111 0.56709 0.12176 0.0
C328 C 0.53494 0.52894 0.08255 0.0
C329 C 0.5068 0.52678 0.07308 0.0
C330 C 0.50422 0.52183 0.05621 0.0
C331 C 0.52972 0.51901 0.04839 0.0
C332 C 0.55779 0.52094 0.05783 0.0
C333 C 0.56036 0.5258 0.07471 0.0
C334 C 0.59792 0.54368 0.13495 0.0
C335 C 0.62276 0.5723 0.13465 0.0
H336 H 0.16095 0.59799 0.14201 0.0
H337 H 0.21514 0.59755 0.14255 0.0
H338 H 0.18579 0.49712 0.15305 0.0
H339 H 0.13147 0.49715 0.15229 0.0
H340 H 0.2541 0.58336 0.16692 0.0
H341 H 0.23567 0.4981 0.11438 0.0
H342 H 0.20675 0.51672 0.11898 0.0
H343 H 0.21073 0.48297 0.13022 0.0
C344 C 0.1659 0.57571 0.14438 0.0
C345 C 0.14157 0.54753 0.14698 0.0
C346 C 0.19702 0.57554 0.14471 0.0
C347 C 0.20468 0.54719 0.14756 0.0
C348 C 0.18055 0.51916 0.15045 0.0
H349 H 0.38226 0.50282 0.14991 0.0
H350 H 0.32816 0.50107 0.15311 0.0
C351 C 0.1494 0.51928 0.15011 0.0
C352 C 0.2379 0.54713 0.14769 0.0
H353 H 0.28563 0.51302 0.12927 0.0
C354 C 0.26096 0.568 0.15866 0.0
C355 C 0.24704 0.52706 0.13696 0.0
C356 C 0.22385 0.50514 0.12436 0.0
C357 C 0.29263 0.56915 0.15928 0.0
C358 C 0.30179 0.54927 0.14847 0.0
C359 C 0.2787 0.52817 0.13762 0.0
C360 C 0.33529 0.55088 0.14774 0.0
C361 C 0.31595 0.59136 0.17172 0.0
C362 C 0.35754 0.57946 0.14375 0.0
C363 C 0.38847 0.58055 0.14197 0.0
C364 C 0.39805 0.55303 0.14406 0.0
C365 C 0.37591 0.52458 0.14842 0.0
C366 C 0.34486 0.52348 0.15012 0.0
H367 H 0.3043 0.59764 0.18198 0.0
H368 H 0.33387 0.58044 0.17668 0.0
H369 H 0.32806 0.61391 0.16584 0.0
H370 H 0.35078 0.60082 0.14156 0.0
H371 H 0.40483 0.60292 0.13869 0.0
H372 H 0.75792 0.21724 0.51295 0.0
H373 H 0.7968 0.26537 0.5042 0.0
H374 H 0.84318 0.2063 0.48153 0.0
H375 H 0.80424 0.15807 0.49004 0.0
H376 H 0.86571 0.28362 0.51114 0.0
H377 H 0.8244 0.26638 0.44523 0.0
H378 H 0.80022 0.24699 0.46086 0.0
H379 H 0.83073 0.23209 0.45502 0.0
C380 C 0.77628 0.21451 0.50599 0.0
C381 C 0.77796 0.18388 0.50211 0.0
C382 C 0.79853 0.242 0.50111 0.0
C383 C 0.82261 0.23929 0.49211 0.0
C384 C 0.82455 0.20881 0.48834 0.0
H385 H 0.97317 0.36802 0.44525 0.0
H386 H 0.93512 0.32227 0.45628 0.0
C387 C 0.80244 0.18133 0.4933 0.0
C388 C 0.8458 0.26833 0.48666 0.0
H389 H 0.87171 0.30775 0.45262 0.0
C390 C 0.86702 0.28908 0.49836 0.0
C391 C 0.84729 0.27523 0.47 0.0
C392 C 0.82433 0.2542 0.45701 0.0
C393 C 0.8904 0.31622 0.49378 0.0
C394 C 0.89205 0.32304 0.47707 0.0
C395 C 0.87049 0.30243 0.46541 0.0
C396 C 0.91625 0.35103 0.47128 0.0
C397 C 0.91367 0.33675 0.50681 0.0
C398 C 0.91837 0.38243 0.4761 0.0
C399 C 0.94023 0.40866 0.46985 0.0
C400 C 0.96 0.4039 0.4585 0.0
C401 C 0.95801 0.37243 0.45384 0.0
C402 C 0.93636 0.34628 0.46017 0.0
H403 H 0.91438 0.32374 0.51828 0.0
H404 H 0.93758 0.34488 0.5027 0.0
H405 H 0.90677 0.35827 0.50954 0.0
H406 H 0.90261 0.38668 0.48438 0.0
H407 H 0.94098 0.43265 0.4735 0.0
H408 H 0.47375 0.58466 0.84504 0.0
H409 H 0.47388 0.64043 0.84321 0.0
H410 H 0.57302 0.67059 0.83829 0.0
H411 H 0.57317 0.61518 0.83992 0.0
H412 H 0.5095 0.69696 0.86235 0.0
H413 H 0.53541 0.705 0.79775 0.0
H414 H 0.52195 0.66725 0.80763 0.0
H415 H 0.56237 0.69134 0.8108 0.0
C416 C 0.49562 0.60317 0.84363 0.0
C417 C 0.52341 0.59536 0.84248 0.0
C418 C 0.49563 0.63501 0.84261 0.0
C419 C 0.52336 0.65952 0.84036 0.0
C420 C 0.55126 0.65194 0.83972 0.0
H421 H 0.58575 0.86126 0.82466 0.0
H422 H 0.58029 0.80574 0.8314 0.0
C423 C 0.55129 0.62021 0.8407 0.0
C424 C 0.5233 0.69303 0.8383 0.0
H425 H 0.5403 0.75402 0.81175 0.0
C426 C 0.51596 0.70944 0.85126 0.0
C427 C 0.53153 0.7091 0.82376 0.0
C428 C 0.53797 0.69223 0.80912 0.0
C429 C 0.51789 0.74198 0.85027 0.0
C430 C 0.52706 0.75825 0.8359 0.0
C431 C 0.53359 0.74156 0.82282 0.0
C432 C 0.5307 0.79277 0.83408 0.0
C433 C 0.5111 0.75898 0.86474 0.0
C434 C 0.50472 0.80407 0.8337 0.0
C435 C 0.50778 0.83586 0.82983 0.0
C436 C 0.53681 0.85673 0.82613 0.0
C437 C 0.56301 0.84565 0.82726 0.0
C438 C 0.55995 0.81399 0.83115 0.0
H439 H 0.51076 0.74504 0.87597 0.0
H440 H 0.5288 0.78297 0.86699 0.0
H441 H 0.48781 0.7625 0.86223 0.0
H442 H 0.48183 0.78795 0.83566 0.0
H443 H 0.48711 0.8436 0.82887 0.0
H444 H 0.9309 0.50031 0.13442 0.0
H445 H 0.87662 0.50012 0.13465 0.0
H446 H 0.90862 0.59565 0.15625 0.0
H447 H 0.96294 0.59631 0.1558 0.0
H448 H 0.84292 0.5058 0.15981 0.0
H449 H 0.84973 0.60629 0.1184 0.0
H450 H 0.87992 0.5872 0.12085 0.0
H451 H 0.87833 0.61664 0.13572 0.0
C452 C 0.92649 0.52141 0.13914 0.0
C453 C 0.95154 0.54844 0.14497 0.0
C454 C 0.89532 0.52122 0.13929 0.0
C455 C 0.88832 0.54808 0.14519 0.0
C456 C 0.91325 0.5749 0.15124 0.0
H457 H 0.71379 0.59118 0.15627 0.0
H458 H 0.76836 0.5916 0.15745 0.0
C459 C 0.94442 0.57515 0.15107 0.0
C460 C 0.855 0.54773 0.1453 0.0
H461 H 0.80335 0.58725 0.13179 0.0
C462 C 0.83428 0.52355 0.15362 0.0
C463 C 0.84352 0.57087 0.13726 0.0
C464 C 0.86392 0.59654 0.12742 0.0
C465 C 0.80276 0.52218 0.15432 0.0
C466 C 0.79131 0.54533 0.14629 0.0
C467 C 0.81203 0.56956 0.13802 0.0
C468 C 0.75783 0.54453 0.14604 0.0
C469 C 0.78217 0.49629 0.16397 0.0
C470 C 0.73351 0.51803 0.13915 0.0
C471 C 0.70222 0.51777 0.13836 0.0
C472 C 0.69431 0.54409 0.1444 0.0
C473 C 0.71878 0.57056 0.15137 0.0
C474 C 0.7501 0.57081 0.15211 0.0
H475 H 0.7962 0.48626 0.17294 0.0
H476 H 0.76612 0.50555 0.17055 0.0
H477 H 0.76776 0.47645 0.15552 0.0
H478 H 0.73877 0.49775 0.134 0.0
H479 H 0.68433 0.49725 0.13254 0.0
H480 H 0.35666 0.89243 0.5183 0.0
H481 H 0.31471 0.84173 0.51304 0.0
H482 H 0.37998 0.799 0.49485 0.0
H483 H 0.42182 0.84996 0.49947 0.0
H484 H 0.32893 0.79127 0.47365 0.0
H485 H 0.29137 0.75586 0.53473 0.0
H486 H 0.2924 0.79616 0.53035 0.0
H487 H 0.32814 0.78581 0.53185 0.0
C488 C 0.36216 0.87217 0.5133 0.0
C489 C 0.39258 0.87535 0.50921 0.0
C490 C 0.33822 0.84306 0.51052 0.0
C491 C 0.34428 0.81644 0.50374 0.0
C492 C 0.37486 0.81917 0.50021 0.0
H493 H 0.20471 0.62818 0.48092 0.0
H494 H 0.24991 0.67134 0.4934 0.0
C495 C 0.3988 0.8483 0.50295 0.0
C496 C 0.31813 0.78707 0.49862 0.0
H497 H 0.25518 0.73022 0.51186 0.0
C498 C 0.31306 0.77771 0.48206 0.0
C499 C 0.29756 0.76921 0.50961 0.0
C500 C 0.30278 0.77706 0.52765 0.0
C501 C 0.28739 0.75173 0.47608 0.0
C502 C 0.26588 0.73497 0.48691 0.0
C503 C 0.27152 0.74343 0.50357 0.0
C504 C 0.23702 0.70924 0.48089 0.0
C505 C 0.28338 0.74255 0.45818 0.0
C506 C 0.21437 0.71648 0.4702 0.0
C507 C 0.18864 0.69202 0.46312 0.0
C508 C 0.18498 0.65982 0.46663 0.0
C509 C 0.20685 0.65276 0.47802 0.0
C510 C 0.2327 0.67734 0.48511 0.0
H511 H 0.30567 0.75209 0.45245 0.0
H512 H 0.27473 0.7161 0.45623 0.0
H513 H 0.26592 0.75263 0.45187 0.0
H514 H 0.21701 0.74104 0.46704 0.0
H515 H 0.17186 0.69827 0.45464 0.0
H516 H 0.57196 0.41211 0.85184 0.0
H517 H 0.57222 0.35648 0.85002 0.0
H518 H 0.47616 0.32707 0.82929 0.0
H519 H 0.4756 0.38242 0.83093 0.0
H520 H 0.53177 0.29892 0.86322 0.0
H521 H 0.52374 0.29502 0.79566 0.0
H522 H 0.53475 0.33211 0.80756 0.0
H523 H 0.49429 0.30831 0.8041 0.0
C524 C 0.55083 0.39382 0.84694 0.0
C525 C 0.52382 0.40184 0.84141 0.0
C526 C 0.55103 0.36204 0.84595 0.0
C527 C 0.52435 0.33779 0.83933 0.0
C528 C 0.49715 0.34555 0.83421 0.0
H529 H 0.47319 0.13748 0.81264 0.0
H530 H 0.4744 0.19192 0.81995 0.0
C531 C 0.49688 0.37724 0.8352 0.0
C532 C 0.52497 0.30443 0.83738 0.0
H533 H 0.51693 0.24558 0.80863 0.0
C534 C 0.52871 0.28723 0.8513 0.0
C535 C 0.52115 0.28939 0.8218 0.0
C536 C 0.51854 0.30718 0.8064 0.0
C537 C 0.52765 0.25492 0.85006 0.0
C538 C 0.52318 0.23972 0.83448 0.0
C539 C 0.52006 0.25719 0.82057 0.0
C540 C 0.52133 0.20563 0.83212 0.0
C541 C 0.53042 0.23708 0.86541 0.0
C542 C 0.54708 0.19503 0.83683 0.0
C543 C 0.54641 0.16382 0.83269 0.0
C544 C 0.52009 0.14288 0.8236 0.0
C545 C 0.4939 0.15319 0.8195 0.0
C546 C 0.49454 0.18425 0.82369 0.0
H547 H 0.52612 0.24962 0.87626 0.0
H548 H 0.51365 0.21242 0.86438 0.0
H549 H 0.55444 0.2352 0.86739 0.0
H550 H 0.56822 0.2113 0.84306 0.0
H551 H 0.56707 0.15667 0.83583 0.0
H552 H 0.54123 0.91732 0.50767 0.0
H553 H 0.54175 0.86192 0.50948 0.0
H554 H 0.64064 0.8953 0.52488 0.0
H555 H 0.64014 0.95078 0.5236 0.0
H556 H 0.57252 0.82816 0.49422 0.0
H557 H 0.60857 0.83548 0.56056 0.0
H558 H 0.59658 0.86653 0.55031 0.0
H559 H 0.6356 0.86439 0.5493 0.0
C560 C 0.56313 0.91292 0.51143 0.0
C561 C 0.59061 0.93852 0.51563 0.0
C562 C 0.56338 0.88119 0.51245 0.0
C563 C 0.5911 0.87437 0.51762 0.0
C564 C 0.61878 0.8999 0.5213 0.0
H565 H 0.62738 0.69132 0.53355 0.0
H566 H 0.63367 0.74723 0.52664 0.0
C567 C 0.61849 0.93165 0.52047 0.0
C568 C 0.59086 0.84056 0.51922 0.0
H569 H 0.60607 0.78755 0.54643 0.0
C570 C 0.57988 0.81931 0.50564 0.0
C571 C 0.60039 0.82893 0.53414 0.0
C572 C 0.61065 0.84991 0.54945 0.0
C573 C 0.57818 0.78686 0.50659 0.0
C574 C 0.58768 0.77537 0.52149 0.0
C575 C 0.59911 0.7966 0.53498 0.0
C576 C 0.58399 0.74096 0.5237 0.0
C577 C 0.56618 0.76497 0.49171 0.0
C578 C 0.55399 0.71896 0.52414 0.0
C579 C 0.55037 0.68722 0.52818 0.0
C580 C 0.5767 0.67685 0.53177 0.0
C581 C 0.6067 0.69859 0.53066 0.0
C582 C 0.61032 0.7305 0.5268 0.0
H583 H 0.56577 0.7786 0.48043 0.0
H584 H 0.58088 0.74911 0.49037 0.0
H585 H 0.54196 0.7495 0.49308 0.0
H586 H 0.5334 0.72666 0.52197 0.0
H587 H 0.52699 0.67094 0.52893 0.0
H588 H 0.75115 0.53626 0.82144 0.0
H589 H 0.79355 0.52034 0.81188 0.0
H590 H 0.72898 0.42829 0.79554 0.0
H591 H 0.68572 0.44442 0.80497 0.0
H592 H 0.77698 0.42187 0.81498 0.0
H593 H 0.82679 0.50867 0.76956 0.0
H594 H 0.81935 0.53059 0.78625 0.0
H595 H 0.78709 0.50128 0.77473 0.0
C596 C 0.74559 0.51304 0.81531 0.0
C597 C 0.71497 0.49168 0.81395 0.0
C598 C 0.76995 0.50397 0.80974 0.0
C599 C 0.76438 0.47339 0.80261 0.0
C600 C 0.73371 0.45218 0.8008 0.0
H601 H 0.96056 0.49168 0.80818 0.0
H602 H 0.90846 0.46696 0.79386 0.0
C603 C 0.70913 0.46132 0.80634 0.0
C604 C 0.79161 0.46268 0.79977 0.0
H605 H 0.86613 0.4969 0.79009 0.0
C606 C 0.79618 0.43741 0.80895 0.0
C607 C 0.81638 0.48186 0.79138 0.0
C608 C 0.81191 0.50684 0.77977 0.0
C609 C 0.8262 0.43452 0.81222 0.0
C610 C 0.85202 0.45793 0.80649 0.0
C611 C 0.84653 0.47952 0.79499 0.0
C612 C 0.8837 0.4659 0.81525 0.0
C613 C 0.83032 0.4082 0.82299 0.0
C614 C 0.88711 0.4732 0.83203 0.0
C615 C 0.91657 0.48757 0.84015 0.0
C616 C 0.94347 0.4952 0.83168 0.0
C617 C 0.94026 0.48642 0.81502 0.0
C618 C 0.91056 0.47203 0.80685 0.0
H619 H 0.81071 0.38572 0.82011 0.0
H620 H 0.8528 0.4035 0.8216 0.0
H621 H 0.82979 0.41511 0.8359 0.0
H622 H 0.86678 0.46992 0.83871 0.0
H623 H 0.91794 0.49461 0.85286 0.0
H624 H 0.18293 0.78569 0.16147 0.0
H625 H 0.23446 0.82559 0.16679 0.0
H626 H 0.2771 0.75018 0.17104 0.0
H627 H 0.22589 0.71016 0.16485 0.0
H628 H 0.27536 0.83474 0.19335 0.0
H629 H 0.33116 0.80799 0.14014 0.0
H630 H 0.28954 0.7922 0.14163 0.0
H631 H 0.31583 0.77352 0.15203 0.0
C632 C 0.2033 0.77755 0.16323 0.0
C633 C 0.20019 0.74464 0.16261 0.0
C634 C 0.23274 0.80042 0.16639 0.0
C635 C 0.25973 0.79093 0.16901 0.0
C636 C 0.25672 0.75813 0.16865 0.0
H637 H 0.45186 0.88661 0.20475 0.0
H638 H 0.40128 0.84827 0.19468 0.0
C639 C 0.2273 0.73523 0.16537 0.0
C640 C 0.29081 0.81533 0.17282 0.0
H641 H 0.36517 0.84212 0.16124 0.0
C642 C 0.29489 0.83653 0.18623 0.0
C643 C 0.31629 0.81769 0.1635 0.0
C644 C 0.31296 0.79685 0.14843 0.0
C645 C 0.32393 0.85951 0.1908 0.0
C646 C 0.34948 0.86142 0.18167 0.0
C647 C 0.34545 0.84047 0.1682 0.0
C648 C 0.38077 0.88455 0.18631 0.0
C649 C 0.32737 0.88112 0.20559 0.0
C650 C 0.3861 0.91752 0.18453 0.0
C651 C 0.41496 0.93946 0.19022 0.0
C652 C 0.43886 0.92873 0.19786 0.0
C653 C 0.43375 0.89557 0.19907 0.0
C654 C 0.40499 0.87367 0.19327 0.0
H655 H 0.30678 0.87327 0.21278 0.0
H656 H 0.34872 0.88184 0.21359 0.0
H657 H 0.32992 0.90587 0.20165 0.0
H658 H 0.36768 0.92629 0.17908 0.0
H659 H 0.41812 0.96485 0.18923 0.0
H660 H 0.53627 0.1158 0.5234 0.0
H661 H 0.53459 0.17086 0.52454 0.0
H662 H 0.62955 0.20524 0.51162 0.0
H663 H 0.63133 0.1502 0.51018 0.0
H664 H 0.57211 0.22048 0.54466 0.0
H665 H 0.58504 0.2515 0.47993 0.0
H666 H 0.5754 0.21074 0.48656 0.0
H667 H 0.6151 0.23682 0.48945 0.0
C668 C 0.55676 0.135 0.52069 0.0
C669 C 0.58392 0.12849 0.51667 0.0
C670 C 0.55574 0.16649 0.52133 0.0
C671 C 0.58177 0.19215 0.51793 0.0
C672 C 0.60894 0.18579 0.51393 0.0
H673 H 0.61774 0.39931 0.52861 0.0
H674 H 0.62227 0.34625 0.52225 0.0
C675 C 0.60997 0.15427 0.51323 0.0
C676 C 0.58086 0.22558 0.51943 0.0
H677 H 0.58637 0.29375 0.49836 0.0
C678 C 0.57515 0.23644 0.53452 0.0
C679 C 0.58506 0.24649 0.50621 0.0
C680 C 0.59023 0.2358 0.48957 0.0
C681 C 0.57352 0.26755 0.53677 0.0
C682 C 0.57724 0.28828 0.52351 0.0
C683 C 0.58347 0.27773 0.50847 0.0
C684 C 0.57378 0.32064 0.5251 0.0
C685 C 0.56803 0.27812 0.55338 0.0
C686 C 0.54476 0.32383 0.52812 0.0
C687 C 0.54209 0.35394 0.53168 0.0
C688 C 0.5684 0.38153 0.53225 0.0
C689 C 0.59704 0.37853 0.52819 0.0
C690 C 0.5997 0.34826 0.52463 0.0
H691 H 0.57306 0.2624 0.56305 0.0
H692 H 0.58282 0.30318 0.55644 0.0
H693 H 0.54314 0.27714 0.55337 0.0
H694 H 0.52436 0.30285 0.52825 0.0
H695 H 0.5196 0.35555 0.53449 0.0
H696 H 0.31302 0.52172 0.81358 0.0
H697 H 0.28558 0.56047 0.80737 0.0
H698 H 0.362 0.61631 0.78145 0.0
H699 H 0.38954 0.57686 0.78725 0.0
H700 H 0.34872 0.65076 0.80603 0.0
H701 H 0.23924 0.58838 0.76873 0.0
H702 H 0.24544 0.56346 0.78499 0.0
H703 H 0.27299 0.57422 0.76982 0.0
C704 C 0.32357 0.54145 0.80599 0.0
C705 C 0.35363 0.54622 0.80103 0.0
C706 C 0.30777 0.56368 0.80242 0.0
C707 C 0.32159 0.59112 0.79379 0.0
C708 C 0.35086 0.59518 0.78804 0.0
H709 H 0.18922 0.69208 0.80901 0.0
H710 H 0.23023 0.68592 0.79292 0.0
C711 C 0.36663 0.57275 0.7915 0.0
C712 C 0.30749 0.61741 0.79336 0.0
H713 H 0.23525 0.62706 0.7897 0.0
C714 C 0.32417 0.64619 0.80193 0.0
C715 C 0.27581 0.61203 0.78761 0.0
C716 C 0.2575 0.58295 0.77711 0.0
C717 C 0.30878 0.66747 0.80686 0.0
C718 C 0.276 0.65939 0.80332 0.0
C719 C 0.26033 0.63304 0.79274 0.0
C720 C 0.25673 0.67254 0.81326 0.0
C721 C 0.32736 0.69713 0.81686 0.0
C722 C 0.2587 0.66835 0.83013 0.0
C723 C 0.23517 0.67134 0.83928 0.0
C724 C 0.20903 0.67848 0.83174 0.0
C725 C 0.20872 0.6859 0.81513 0.0
C726 C 0.23225 0.68265 0.80593 0.0
H727 H 0.35112 0.70709 0.8127 0.0
H728 H 0.31551 0.71589 0.81615 0.0
H729 H 0.33032 0.69077 0.82977 0.0
H730 H 0.27687 0.65975 0.83602 0.0
H731 H 0.23615 0.665 0.85194 0.0
H732 H 0.91388 0.35632 0.18327 0.0
H733 H 0.86645 0.31597 0.19061 0.0
H734 H 0.83088 0.30089 0.13996 0.0
H735 H 0.87852 0.34097 0.13252 0.0
H736 H 0.80585 0.31515 0.18587 0.0
H737 H 0.82057 0.21006 0.15364 0.0
H738 H 0.85164 0.24762 0.15684 0.0
H739 H 0.82065 0.24304 0.14085 0.0
C740 C 0.89593 0.34443 0.1737 0.0
C741 C 0.89996 0.35171 0.15731 0.0
C742 C 0.86889 0.32132 0.1779 0.0
C743 C 0.84533 0.30504 0.16582 0.0
C744 C 0.84909 0.31254 0.14946 0.0
H745 H 0.66231 0.16421 0.17738 0.0
H746 H 0.70585 0.20395 0.16591 0.0
C747 C 0.87627 0.3355 0.14522 0.0
C748 C 0.81657 0.28086 0.17051 0.0
H749 H 0.77337 0.20169 0.166 0.0
C750 C 0.79875 0.29037 0.18149 0.0
C751 C 0.80726 0.24852 0.16476 0.0
C752 C 0.82614 0.23654 0.15349 0.0
C753 C 0.77209 0.26838 0.18699 0.0
C754 C 0.7631 0.23606 0.18142 0.0
C755 C 0.78037 0.2266 0.17016 0.0
C756 C 0.73703 0.21141 0.18803 0.0
C757 C 0.75378 0.27975 0.19882 0.0
C758 C 0.74052 0.20214 0.20412 0.0
C759 C 0.71597 0.17929 0.21064 0.0
C760 C 0.6873 0.16532 0.20121 0.0
C761 C 0.6841 0.17431 0.18494 0.0
C762 C 0.70885 0.1971 0.17839 0.0
H763 H 0.75986 0.30629 0.19936 0.0
H764 H 0.72822 0.26924 0.19543 0.0
H765 H 0.75906 0.27175 0.21118 0.0
H766 H 0.76232 0.21261 0.21165 0.0
H767 H 0.7196 0.17241 0.22306 0.0
H768 H 0.07261 0.51965 0.09231 0.0
H769 H 0.08267 0.53086 0.06395 0.0
H770 H 1.03792 0.6046 0.06462 0.0
H771 H 1.02838 0.59408 0.09305 0.0
H772 H 0.04278 0.52795 0.03675 0.0
H773 H 0.12136 0.6524 0.04836 0.0
H774 H 0.11001 0.6248 0.0645 0.0
H775 H 0.084 0.64581 0.05607 0.0
C776 C 0.06483 0.53821 0.08642 0.0
C777 C 0.04989 0.55614 0.09497 0.0
C778 C 0.07067 0.54462 0.07022 0.0
C779 C 0.06169 0.56906 0.0623 0.0
C780 C 0.04585 0.58626 0.07064 0.0
H781 H 0.04465 0.62499 0.96347 0.0
H782 H 1.04214 0.61588 0.99267 0.0
C783 C 1.04018 0.58002 0.08685 0.0
C784 C 0.06836 0.57621 0.04522 0.0
H785 H 0.10296 0.63669 0.02054 0.0
C786 C 0.05621 0.55163 0.03324 0.0
C787 C 0.08611 0.60709 0.04068 0.0
C788 C 0.1014 0.63396 0.0531 0.0
C789 C 0.06046 0.55741 0.01676 0.0
C790 C 0.07725 0.58848 0.01222 0.0
C791 C 0.08997 0.61293 0.02416 0.0
C792 C 0.08064 0.59616 0.99497 0.0
C793 C 0.04644 0.53057 0.0042 0.0
C794 C 0.10357 0.58862 0.9868 0.0
C795 C 0.10515 0.5939 0.97015 0.0
C796 C 0.08364 0.60656 0.96145 0.0
C797 C 0.06131 0.61494 0.96984 0.0
C798 C 0.05991 0.60987 0.98649 0.0
H799 H 1.03291 0.50802 0.00966 0.0
H800 H 1.03072 0.5377 0.99489 0.0
H801 H 0.06538 0.52588 -0.00215 0.0
H802 H 0.11972 0.578 0.99322 0.0
H803 H 0.12239 0.58696 0.96395 0.0
H804 H 0.63409 0.03232 0.46441 0.0
H805 H 0.63411 0.03498 0.43481 0.0
H806 H 0.5483 0.05948 0.43191 0.0
H807 H 0.54771 0.0563 0.46141 0.0
H808 H 0.54599 0.01167 0.41011 0.0
H809 H 0.65466 0.11338 0.40674 0.0
H810 H 0.66005 0.08144 0.41896 0.0
H811 H 0.63559 0.10399 0.42524 0.0
C812 C 0.61534 0.03853 0.45749 0.0
C813 C 0.5909 0.04412 0.46529 0.0
C814 C 0.6155 0.04021 0.44059 0.0
C815 C 0.59145 0.04787 0.43119 0.0
C816 C 0.56715 0.05365 0.43894 0.0
H817 H 0.58635 0.09704 0.32948 0.0
H818 H 0.58893 0.0971 0.35923 0.0
C819 C 0.56688 0.05183 0.45582 0.0
C820 C 0.59074 0.04844 0.41322 0.0
H821 H 0.63198 0.08419 0.38197 0.0
C822 C 0.56474 0.02759 0.40395 0.0
C823 C 0.61506 0.0695 0.40522 0.0
C824 C 0.64279 0.09358 0.41453 0.0
C825 C 0.56254 0.02695 0.38688 0.0
C826 C 0.58734 0.04725 0.37889 0.0
C827 C 0.61316 0.06841 0.38814 0.0
C828 C 0.58664 0.04725 0.36091 0.0
C829 C 0.53341 0.00498 0.37758 0.0
C830 C 0.58504 0.01935 0.35203 0.0
C831 C 0.58353 0.01923 0.33505 0.0
C832 C 0.58392 0.04713 0.32665 0.0
C833 C 0.58625 0.07525 0.33561 0.0
C834 C 0.58762 0.0753 0.35259 0.0
H835 H 0.5135 0.99764 0.38525 0.0
H836 H 0.5263 0.01665 0.36665 0.0
H837 H 0.53818 0.98297 0.37348 0.0
H838 H 0.58501 0.99767 0.35824 0.0
H839 H 0.58231 0.99738 0.32849 0.0
H840 H 0.57474 0.49596 0.79259 0.0
H841 H 0.57927 0.50168 0.76339 0.0
H842 H 0.48913 0.51723 0.75706 0.0
H843 H 0.48469 0.51227 0.78632 0.0
H844 H 0.54242 0.4664 0.73794 0.0
H845 H 0.54337 0.59278 0.73414 0.0
H846 H 0.54837 0.5744 0.75327 0.0
H847 H 0.50987 0.56743 0.743 0.0
C848 C 0.55589 0.50068 0.785 0.0
C849 C 0.52941 0.50381 0.79178 0.0
C850 C 0.55855 0.50396 0.76832 0.0
C851 C 0.5348 0.51042 0.7581 0.0
C852 C 0.50809 0.51304 0.76478 0.0
H853 H 0.50632 0.48106 0.65315 0.0
H854 H 0.50278 0.47804 0.68254 0.0
C855 C 0.5055 0.50998 0.78149 0.0
C856 C 0.53764 0.51349 0.74039 0.0
H857 H 0.53778 0.56384 0.70897 0.0
C858 C 0.54153 0.48775 0.73161 0.0
C859 C 0.53696 0.54156 0.73221 0.0
C860 C 0.53473 0.57075 0.74115 0.0
C861 C 0.54422 0.48907 0.7148 0.0
C862 C 0.54222 0.51661 0.70651 0.0
C863 C 0.53892 0.5426 0.71533 0.0
C864 C 0.5438 0.519 0.68869 0.0
C865 C 0.54972 0.46119 0.70616 0.0
C866 C 0.56739 0.54369 0.68238 0.0
C867 C 0.56932 0.54562 0.66558 0.0
C868 C 0.54766 0.52287 0.65481 0.0
C869 C 0.52366 0.49858 0.66117 0.0
C870 C 0.52165 0.49678 0.67794 0.0
H871 H 0.55938 0.44648 0.71477 0.0
H872 H 0.52712 0.44551 0.70017 0.0
H873 H 0.5661 0.46955 0.69666 0.0
H874 H 0.58463 0.56116 0.69047 0.0
H875 H 0.58818 0.56447 0.66105 0.0
H876 H 0.53973 0.97941 0.56337 0.0
H877 H 0.53499 0.9753 0.59267 0.0
H878 H 0.61572 0.0591 0.60185 0.0
H879 H 0.62075 0.06351 0.57264 0.0
H880 H 0.58358 0.97141 0.61856 0.0
H881 H 0.54351 0.07837 0.62478 0.0
H882 H 0.54114 0.05787 0.60544 0.0
H883 H 0.57805 0.084 0.61431 0.0
C884 C 0.55651 0.99697 0.57161 0.0
C885 C 0.58053 0.02189 0.56565 0.0
C886 C 0.55378 0.99453 0.58833 0.0
C887 C 0.57479 0.01711 0.59934 0.0
C888 C 0.59905 0.04169 0.59349 0.0
H889 H 0.59186 0.05294 0.70353 0.0
H890 H 0.59772 0.05468 0.6743 0.0
C891 C 0.60194 0.04407 0.57679 0.0
C892 C 0.57137 0.01504 0.61698 0.0
H893 H 0.55399 0.05366 0.64905 0.0
C894 C 0.577 0.98927 0.62526 0.0
C895 C 0.5629 0.0385 0.6256 0.0
C896 C 0.55579 0.06617 0.61712 0.0
C897 C 0.57498 0.98665 0.64211 0.0
C898 C 0.56635 0.01006 0.65075 0.0
C899 C 0.56062 0.03578 0.64241 0.0
C900 C 0.56316 0.00845 0.66847 0.0
C901 C 0.58289 0.95934 0.65055 0.0
C902 C 0.54157 0.98203 0.67485 0.0
C903 C 0.53824 0.98094 0.69153 0.0
C904 C 0.55615 0.00648 0.70211 0.0
C905 C 0.57755 0.03304 0.69566 0.0
C906 C 0.581 0.03401 0.67899 0.0
H907 H 0.5973 0.94909 0.64325 0.0
H908 H 0.59576 0.96723 0.66271 0.0
H909 H 0.5609 0.93998 0.65225 0.0
H910 H 0.52697 0.96243 0.6669 0.0
H911 H 0.5212 0.96041 0.69612 0.0
H912 H 0.47464 0.46231 0.89186 0.0
H913 H 0.47278 0.46437 0.92143 0.0
H914 H 0.56335 0.53652 0.92649 0.0
H915 H 0.56534 0.53497 0.89709 0.0
H916 H 0.51479 0.45313 0.94633 0.0
H917 H 0.50918 0.57726 0.95095 0.0
H918 H 0.50161 0.55471 0.93185 0.0
H919 H 0.5412 0.57404 0.94032 0.0
C920 C 0.49413 0.47867 0.89926 0.0
C921 C 0.52004 0.49863 0.89208 0.0
C922 C 0.49302 0.47979 0.91614 0.0
C923 C 0.51767 0.501 0.92609 0.0
C924 C 0.54376 0.5205 0.91899 0.0
H925 H 0.57287 0.54864 0.02761 0.0
H926 H 0.5684 0.54227 -0.00206 0.0
C927 C 0.54491 0.51943 0.90216 0.0
C928 C 0.51663 0.50248 0.94395 0.0
H929 H 0.5209 0.55402 0.97582 0.0
C930 C 0.51577 0.47505 0.9528 0.0
C931 C 0.51785 0.53114 0.9523 0.0
C932 C 0.5172 0.56088 0.94337 0.0
C933 C 0.51731 0.47586 0.96988 0.0
C934 C 0.51936 0.50476 0.97822 0.0
C935 C 0.51953 0.53197 0.96935 0.0
C936 C 0.52213 0.50757 0.99621 0.0
C937 C 0.51779 0.44617 0.97889 0.0
C938 C 0.49751 0.49023 0.00501 0.0
C939 C 0.50003 0.49372 0.02198 0.0
C940 C 0.52722 0.51468 0.03041 0.0
C941 C 0.55183 0.53197 0.0215 0.0
C942 C 0.54924 0.52853 0.00456 0.0
H943 H 0.52259 0.42809 0.97092 0.0
H944 H 0.53579 0.45228 0.98949 0.0
H945 H 0.49466 0.4351 0.98353 0.0
H946 H 0.47621 0.47428 -0.00124 0.0
H947 H 0.48076 0.47992 0.0285 0.0
H948 H 1.03013 0.49302 0.19596 0.0
H949 H 1.03179 0.49161 0.22564 0.0
H950 H 0.07075 0.59469 0.22894 0.0
H951 H 0.07058 0.59608 0.19933 0.0
H952 H 0.10021 0.56997 0.25081 0.0
H953 H 0.97337 0.51172 0.25414 0.0
H954 H 0.99007 0.48757 0.24257 0.0
H955 H 0.98944 0.52608 0.23536 0.0
C956 C 1.03897 0.51537 0.20303 0.0
C957 C 0.05011 0.54467 0.19534 0.0
C958 C 1.03967 0.51457 0.21999 0.0
C959 C 0.05068 0.5431 0.22954 0.0
C960 C 0.06201 0.57236 0.22185 0.0
H961 H 1.01827 0.55525 0.33151 0.0
H962 H 1.01683 0.55797 0.3018 0.0
C963 C 0.0619 0.57313 0.20492 0.0
C964 C 0.0513 0.54251 0.24757 0.0
H965 H 1.00634 0.51438 0.27873 0.0
C966 C 0.07961 0.558 0.25691 0.0
C967 C 1.02431 0.52739 0.25557 0.0
C968 C 0.99253 0.51258 0.24639 0.0
C969 C 0.08181 0.55848 0.27399 0.0
C970 C 0.05525 0.54186 0.28197 0.0
C971 C 1.02682 0.52674 0.27263 0.0
C972 C 0.05626 0.54021 0.29998 0.0
C973 C 0.11239 0.57753 0.28322 0.0
C974 C 0.07857 0.52891 0.30883 0.0
C975 C 0.07976 0.52795 0.32579 0.0
C976 C 0.0581 0.53741 0.33416 0.0
C977 C 1.03517 0.54778 0.3253 0.0
C978 C 1.03437 0.54933 0.30836 0.0
H979 H 0.12632 0.59677 0.27574 0.0
H980 H 0.10851 0.58868 0.29463 0.0
H981 H 0.12655 0.56137 0.28641 0.0
H982 H 0.09502 0.5207 0.30263 0.0
H983 H 0.09735 0.51942 0.33237 0.0
loop_
_geom_bond_atom_site_label_1
_geom_bond_atom_site_label_2
_geom_bond_distance
_geom_bond_site_symmetry_2
_ccdc_geom_bond_type
Dy0 O3 2.307 1_455 S
Dy0 O5 2.395 . S
Dy0 O6 2.379 . S
Dy0 O8 2.339 . S
Dy0 O10 2.298 . S
Dy0 O14 2.275 . S
Dy0 C22 2.738 . S
Dy1 O4 2.298 . S
Dy1 O7 2.275 1_655 S
Dy1 O9 2.307 1_655 S
Dy1 O11 2.395 . S
Dy1 O12 2.379 . S
Dy1 O15 2.339 . S
Dy1 C31 2.738 . S
C2 O14 1.254 . S
C2 O15 1.257 1_455 S
O3 Dy0 2.307 1_655 S
O3 C13 1.266 . S
O4 Dy1 2.298 . S
O4 C13 1.236 . S
O5 Dy0 2.395 . S
O5 C22 1.255 . S
O6 Dy0 2.379 . S
O6 C22 1.249 . S
O7 Dy1 2.275 1_455 S
O7 C23 1.254 . S
O8 Dy0 2.339 . S
O8 C23 1.257 . S
O9 Dy1 2.307 1_455 S
O9 C24 1.266 . S
O10 Dy0 2.298 . S
O10 C24 1.236 . S
O11 Dy1 2.395 . S
O11 C31 1.255 . S
O12 Dy1 2.379 . S
O12 C31 1.249 . S
C13 O3 1.266 . S
C13 O4 1.236 . S
O14 Dy0 2.275 . S
O14 C2 1.254 . S
O15 Dy1 2.339 . S
O15 C2 1.257 1_655 S
C16 C19 1.344 . S
C16 C20 1.328 . S
C16 C22 1.516 . S
C17 C18 1.304 . S
C17 C21 1.323 . S
C18 C17 1.304 . S
C18 C19 1.371 . S
C18 H32 0.930 . S
C19 C16 1.344 . S
C19 C18 1.371 . S
C19 H33 0.931 . S
C20 C16 1.328 . S
C20 C21 1.433 . S
C20 H34 0.931 . S
C21 C17 1.323 . S
C21 C20 1.433 . S
C21 H35 0.933 . S
C22 Dy0 2.738 . S
C22 O5 1.255 . S
C22 O6 1.249 . S
C22 C16 1.516 . S
C23 O7 1.254 . S
C23 O8 1.257 . S
C24 O9 1.266 . S
C24 O10 1.236 . S
C25 C28 1.344 . S
C25 C29 1.328 . S
C25 C31 1.516 . S
C26 C27 1.304 . S
C26 C30 1.323 . S
C27 C26 1.304 . S
C27 C28 1.371 . S
C27 H36 0.930 . S
C28 C25 1.344 . S
C28 C27 1.371 . S
C28 H37 0.931 . S
C29 C25 1.328 . S
C29 C30 1.433 . S
C29 H38 0.931 . S
C30 C26 1.323 . S
C30 C29 1.433 . S
C30 H39 0.933 . S
C31 Dy1 2.738 . S
C31 O11 1.255 . S
C31 O12 1.249 . S
C31 C25 1.516 . S
H32 C18 0.930 . S
H33 C19 0.931 . S
H34 C20 0.931 . S
H35 C21 0.933 . S
H36 C27 0.930 . S
H37 C28 0.931 . S
H38 C29 0.931 . S
H39 C30 0.933 . S
Dy40 O43 2.307 . S
Dy40 O45 2.395 1_545 S
Dy40 O46 2.379 1_545 S
Dy40 O48 2.339 . S
Dy40 O50 2.298 1_545 S
Dy40 O54 2.275 . S
Dy40 C62 2.738 1_545 S
Dy41 O44 2.298 . S
Dy41 O47 2.275 . S
Dy41 O49 2.307 1_545 S
Dy41 O51 2.395 . S
Dy41 O52 2.379 . S
Dy41 O55 2.339 . S
Dy41 C71 2.738 . S
C42 O54 1.254 . S
C42 O55 1.257 . S
O43 Dy40 2.307 . S
O43 C53 1.266 . S
O44 Dy41 2.298 . S
O44 C53 1.236 . S
O45 Dy40 2.395 1_565 S
O45 C62 1.255 . S
O46 Dy40 2.379 1_565 S
O46 C62 1.249 . S
O47 Dy41 2.275 . S
O47 C63 1.254 . S
O48 Dy40 2.339 . S
O48 C63 1.257 . S
O49 Dy41 2.307 1_565 S
O49 C64 1.266 . S
O50 Dy40 2.298 1_565 S
O50 C64 1.236 . S
O51 Dy41 2.395 . S
O51 C71 1.255 . S
O52 Dy41 2.379 . S
O52 C71 1.249 . S
C53 O43 1.266 . S
C53 O44 1.236 . S
O54 Dy40 2.275 . S
O54 C42 1.254 . S
O55 Dy41 2.339 . S
O55 C42 1.257 . S
C56 C59 1.344 . S
C56 C60 1.328 . S
C56 C62 1.516 . S
C57 C58 1.304 . S
C57 C61 1.323 . S
C58 C57 1.304 . S
C58 C59 1.371 . S
C58 H72 0.930 . S
C59 C56 1.344 . S
C59 C58 1.371 . S
C59 H73 0.931 . S
C60 C56 1.328 . S
C60 C61 1.433 . S
C60 H74 0.931 . S
C61 C57 1.323 . S
C61 C60 1.433 . S
C61 H75 0.933 . S
C62 Dy40 2.738 1_565 S
C62 O45 1.255 . S
C62 O46 1.249 . S
C62 C56 1.516 . S
C63 O47 1.254 . S
C63 O48 1.257 . S
C64 O49 1.266 . S
C64 O50 1.236 . S
C65 C68 1.344 . S
C65 C69 1.328 . S
C65 C71 1.516 . S
C66 C67 1.304 . S
C66 C70 1.323 . S
C67 C66 1.304 . S
C67 C68 1.371 . S
C67 H76 0.930 . S
C68 C65 1.344 . S
C68 C67 1.371 . S
C68 H77 0.931 . S
C69 C65 1.328 . S
C69 C70 1.433 . S
C69 H78 0.931 . S
C70 C66 1.323 . S
C70 C69 1.433 . S
C70 H79 0.933 . S
C71 Dy41 2.738 . S
C71 O51 1.255 . S
C71 O52 1.249 . S
C71 C65 1.516 . S
H72 C58 0.930 . S
H73 C59 0.931 . S
H74 C60 0.931 . S
H75 C61 0.933 . S
H76 C67 0.930 . S
H77 C68 0.931 . S
H78 C69 0.931 . S
H79 C70 0.933 . S
Dy80 O83 2.307 . S
Dy80 O85 2.395 . S
Dy80 O86 2.379 . S
Dy80 O88 2.339 . S
Dy80 O90 2.298 . S
Dy80 O94 2.275 . S
Dy80 C102 2.738 . S
Dy81 O84 2.298 . S
Dy81 O87 2.275 . S
Dy81 O89 2.307 . S
Dy81 O91 2.395 . S
Dy81 O92 2.379 . S
Dy81 O95 2.339 . S
Dy81 C111 2.738 . S
C82 O94 1.254 . S
C82 O95 1.257 . S
O83 Dy80 2.307 . S
O83 C93 1.266 . S
O84 Dy81 2.298 . S
O84 C93 1.236 . S
O85 Dy80 2.395 . S
O85 C102 1.255 . S
O86 Dy80 2.379 . S
O86 C102 1.249 . S
O87 Dy81 2.275 . S
O87 C103 1.254 . S
O88 Dy80 2.339 . S
O88 C103 1.257 . S
O89 Dy81 2.307 . S
O89 C104 1.266 . S
O90 Dy80 2.298 . S
O90 C104 1.236 . S
O91 Dy81 2.395 . S
O91 C111 1.255 . S
O92 Dy81 2.379 . S
O92 C111 1.249 . S
C93 O83 1.266 . S
C93 O84 1.236 . S
O94 Dy80 2.275 . S
O94 C82 1.254 . S
O95 Dy81 2.339 . S
O95 C82 1.257 . S
C96 C99 1.344 . S
C96 C100 1.328 . S
C96 C102 1.516 . S
C97 C98 1.304 . S
C97 C101 1.323 . S
C98 C97 1.304 . S
C98 C99 1.371 . S
C98 H112 0.930 . S
C99 C96 1.344 . S
C99 C98 1.371 . S
C99 H113 0.931 . S
C100 C96 1.328 . S
C100 C101 1.433 . S
C100 H114 0.931 . S
C101 C97 1.323 . S
C101 C100 1.433 . S
C101 H115 0.933 . S
C102 Dy80 2.738 . S
C102 O85 1.255 . S
C102 O86 1.249 . S
C102 C96 1.516 . S
C103 O87 1.254 . S
C103 O88 1.257 . S
C104 O89 1.266 . S
C104 O90 1.236 . S
C105 C108 1.344 . S
C105 C109 1.328 . S
C105 C111 1.516 . S
C106 C107 1.304 . S
C106 C110 1.323 . S
C107 C106 1.304 . S
C107 C108 1.371 . S
C107 H116 0.930 . S
C108 C105 1.344 . S
C108 C107 1.371 . S
C108 H117 0.931 . S
C109 C105 1.328 . S
C109 C110 1.433 . S
C109 H118 0.931 . S
C110 C106 1.323 . S
C110 C109 1.433 . S
C110 H119 0.933 . S
C111 Dy81 2.738 . S
C111 O91 1.255 . S
C111 O92 1.249 . S
C111 C105 1.516 . S
H112 C98 0.930 . S
H113 C99 0.931 . S
H114 C100 0.931 . S
H115 C101 0.933 . S
H116 C107 0.930 . S
H117 C108 0.931 . S
H118 C109 0.931 . S
H119 C110 0.933 . S
C120 C121 1.384 . S
C120 H133 0.947 . S
C120 C155 1.382 . S
C121 C120 1.384 . S
C121 C122 1.378 . S
C122 C121 1.378 . S
C122 C123 1.378 1_565 S
C122 H134 0.952 . S
C123 C122 1.378 1_545 S
C123 H135 0.950 . S
C123 C154 1.383 . S
H124 C143 0.947 . S
H125 C144 0.946 . S
H126 C146 0.953 . S
H127 C147 0.945 . S
H128 C149 0.952 . S
H129 C150 0.949 . S
H130 C152 0.950 . S
H131 C153 0.948 . S
H132 C155 0.951 . S
H133 C120 0.947 . S
H134 C122 0.952 . S
H135 C123 0.950 . S
N136 C139 1.382 . S
N136 C141 1.363 . S
N137 C139 1.371 . S
N137 C140 1.372 . S
N138 C140 1.361 . S
N138 C141 1.377 . S
C139 N136 1.382 . S
C139 N137 1.371 . S
C139 C142 1.480 . S
C140 N137 1.372 . S
C140 N138 1.361 . S
C140 C148 1.457 . S
C141 N136 1.363 . S
C141 N138 1.377 . S
C141 C154 1.479 . S
C142 C139 1.480 . S
C142 C143 1.383 . S
C142 C147 1.385 . S
C143 H124 0.947 . S
C143 C142 1.383 . S
C143 C144 1.388 . S
C144 H125 0.946 . S
C144 C143 1.388 . S
C144 C145 1.384 . S
C145 C144 1.384 . S
C145 C146 1.377 . S
C146 H126 0.953 . S
C146 C145 1.377 . S
C146 C147 1.369 . S
C147 H127 0.945 . S
C147 C142 1.385 . S
C147 C146 1.369 . S
C148 C140 1.457 . S
C148 C149 1.372 . S
C148 C153 1.364 . S
C149 H128 0.952 . S
C149 C148 1.372 . S
C149 C150 1.389 . S
C150 H129 0.949 . S
C150 C149 1.389 . S
C150 C151 1.387 . S
C151 C150 1.387 . S
C151 C152 1.372 . S
C152 H130 0.950 . S
C152 C151 1.372 . S
C152 C153 1.379 . S
C153 H131 0.948 . S
C153 C148 1.364 . S
C153 C152 1.379 . S
C154 C123 1.383 . S
C154 C141 1.479 . S
C154 C155 1.398 1_545 S
C155 C120 1.382 . S
C155 H132 0.951 . S
C155 C154 1.398 1_565 S
C156 C157 1.384 . S
C156 H169 0.947 . S
C156 C191 1.382 . S
C157 C156 1.384 . S
C157 C158 1.378 . S
C158 C157 1.378 . S
C158 C159 1.378 . S
C158 H170 0.952 . S
C159 C158 1.378 . S
C159 H171 0.950 . S
C159 C190 1.383 . S
H160 C179 0.947 . S
H161 C180 0.946 . S
H162 C182 0.953 . S
H163 C183 0.945 . S
H164 C185 0.952 . S
H165 C186 0.949 . S
H166 C188 0.950 . S
H167 C189 0.948 . S
H168 C191 0.951 . S
H169 C156 0.947 . S
H170 C158 0.952 . S
H171 C159 0.950 . S
N172 C175 1.382 . S
N172 C177 1.363 . S
N173 C175 1.371 . S
N173 C176 1.372 . S
N174 C176 1.361 . S
N174 C177 1.377 . S
C175 N172 1.382 . S
C175 N173 1.371 . S
C175 C178 1.480 . S
C176 N173 1.372 . S
C176 N174 1.361 . S
C176 C184 1.457 . S
C177 N172 1.363 . S
C177 N174 1.377 . S
C177 C190 1.479 . S
C178 C175 1.480 . S
C178 C179 1.383 . S
C178 C183 1.385 . S
C179 H160 0.947 . S
C179 C178 1.383 . S
C179 C180 1.388 . S
C180 H161 0.946 . S
C180 C179 1.388 . S
C180 C181 1.384 . S
C181 C180 1.384 . S
C181 C182 1.377 . S
C182 H162 0.953 . S
C182 C181 1.377 . S
C182 C183 1.369 . S
C183 H163 0.945 . S
C183 C178 1.385 . S
C183 C182 1.369 . S
C184 C176 1.457 . S
C184 C185 1.372 . S
C184 C189 1.364 . S
C185 H164 0.952 . S
C185 C184 1.372 . S
C185 C186 1.389 . S
C186 H165 0.949 . S
C186 C185 1.389 . S
C186 C187 1.387 . S
C187 C186 1.387 . S
C187 C188 1.372 . S
C188 H166 0.950 . S
C188 C187 1.372 . S
C188 C189 1.379 . S
C189 H167 0.948 . S
C189 C184 1.364 . S
C189 C188 1.379 . S
C190 C159 1.383 . S
C190 C177 1.479 . S
C190 C191 1.398 . S
C191 C156 1.382 . S
C191 H168 0.951 . S
C191 C190 1.398 . S
C192 C193 1.384 . S
C192 H205 0.947 . S
C192 C227 1.382 . S
C193 C192 1.384 . S
C193 C194 1.378 . S
C194 C193 1.378 . S
C194 C195 1.378 . S
C194 H206 0.952 . S
C195 C194 1.378 . S
C195 H207 0.950 . S
C195 C226 1.383 . S
H196 C215 0.947 . S
H197 C216 0.946 . S
H198 C218 0.953 . S
H199 C219 0.945 . S
H200 C221 0.952 . S
H201 C222 0.949 . S
H202 C224 0.951 . S
H203 C225 0.948 . S
H204 C227 0.951 . S
H205 C192 0.947 . S
H206 C194 0.952 . S
H207 C195 0.950 . S
N208 C211 1.382 . S
N208 C213 1.363 1_455 S
N209 C211 1.371 . S
N209 C212 1.372 . S
N210 C212 1.361 1_655 S
N210 C213 1.377 . S
C211 N208 1.382 . S
C211 N209 1.371 . S
C211 C214 1.480 . S
C212 N209 1.372 . S
C212 N210 1.361 1_455 S
C212 C220 1.457 . S
C213 N208 1.363 1_655 S
C213 N210 1.377 . S
C213 C226 1.479 . S
C214 C211 1.480 . S
C214 C215 1.383 . S
C214 C219 1.385 . S
C215 H196 0.947 . S
C215 C214 1.383 . S
C215 C216 1.388 . S
C216 H197 0.946 . S
C216 C215 1.388 . S
C216 C217 1.384 . S
C217 C216 1.384 . S
C217 C218 1.377 . S
C218 H198 0.953 . S
C218 C217 1.377 . S
C218 C219 1.369 . S
C219 H199 0.945 . S
C219 C214 1.385 . S
C219 C218 1.369 . S
C220 C212 1.457 . S
C220 C221 1.372 . S
C220 C225 1.364 1_455 S
C221 H200 0.952 . S
C221 C220 1.372 . S
C221 C222 1.389 . S
C222 H201 0.949 . S
C222 C221 1.389 . S
C222 C223 1.387 . S
C223 C222 1.387 . S
C223 C224 1.371 1_455 S
C224 H202 0.951 . S
C224 C223 1.371 1_655 S
C224 C225 1.379 . S
C225 H203 0.948 . S
C225 C220 1.364 1_655 S
C225 C224 1.379 . S
C226 C195 1.383 . S
C226 C213 1.479 . S
C226 C227 1.398 . S
C227 C192 1.382 . S
C227 H204 0.951 . S
C227 C226 1.398 . S
C228 C229 1.384 . S
C228 H241 0.947 . S
C228 C263 1.382 . S
C229 C228 1.384 . S
C229 C230 1.378 . S
C230 C229 1.378 . S
C230 C231 1.378 . S
C230 H242 0.952 . S
C231 C230 1.378 . S
C231 H243 0.950 . S
C231 C262 1.383 . S
H232 C251 0.947 . S
H233 C252 0.946 . S
H234 C254 0.953 . S
H235 C255 0.945 . S
H236 C257 0.952 . S
H237 C258 0.949 . S
H238 C260 0.950 . S
H239 C261 0.948 . S
H240 C263 0.951 . S
H241 C228 0.947 . S
H242 C230 0.952 . S
H243 C231 0.950 . S
N244 C247 1.382 1_455 S
N244 C249 1.363 . S
N245 C247 1.371 . S
N245 C248 1.372 1_655 S
N246 C248 1.361 . S
N246 C249 1.377 . S
C247 N244 1.382 1_655 S
C247 N245 1.371 . S
C247 C250 1.480 . S
C248 N245 1.372 1_455 S
C248 N246 1.361 . S
C248 C256 1.457 . S
C249 N244 1.363 . S
C249 N246 1.377 . S
C249 C262 1.479 . S
C250 C247 1.480 . S
C250 C251 1.383 . S
C250 C255 1.385 . S
C251 H232 0.947 . S
C251 C250 1.383 . S
C251 C252 1.388 . S
C252 H233 0.946 . S
C252 C251 1.388 . S
C252 C253 1.384 . S
C253 C252 1.384 . S
C253 C254 1.377 . S
C254 H234 0.953 . S
C254 C253 1.377 . S
C254 C255 1.369 . S
C255 H235 0.945 . S
C255 C250 1.385 . S
C255 C254 1.369 . S
C256 C248 1.457 . S
C256 C257 1.372 1_455 S
C256 C261 1.364 . S
C257 H236 0.952 . S
C257 C256 1.372 1_655 S
C257 C258 1.389 . S
C258 H237 0.949 . S
C258 C257 1.389 . S
C258 C259 1.387 1_655 S
C259 C258 1.387 1_455 S
C259 C260 1.372 . S
C260 H238 0.950 . S
C260 C259 1.372 . S
C260 C261 1.379 . S
C261 H239 0.948 . S
C261 C256 1.364 . S
C261 C260 1.379 . S
C262 C231 1.383 . S
C262 C249 1.479 . S
C262 C263 1.398 . S
C263 C228 1.382 . S
C263 H240 0.951 . S
C263 C262 1.398 . S
C264 C265 1.384 . S
C264 H277 0.947 . S
C264 C299 1.382 . S
C265 C264 1.384 . S
C265 C266 1.378 . S
C266 C265 1.378 . S
C266 C267 1.378 . S
C266 H278 0.952 . S
C267 C266 1.378 . S
C267 H279 0.950 . S
C267 C298 1.383 . S
H268 C287 0.947 . S
H269 C288 0.946 . S
H270 C290 0.953 . S
H271 C291 0.945 . S
H272 C293 0.952 . S
H273 C294 0.949 . S
H274 C296 0.950 . S
H275 C297 0.948 . S
H276 C299 0.951 . S
H277 C264 0.947 . S
H278 C266 0.952 . S
H279 C267 0.950 . S
N280 C283 1.382 1_545 S
N280 C285 1.363 . S
N281 C283 1.371 . S
N281 C284 1.372 1_565 S
N282 C284 1.361 . S
N282 C285 1.377 . S
C283 N280 1.382 1_565 S
C283 N281 1.371 . S
C283 C286 1.480 . S
C284 N281 1.372 1_545 S
C284 N282 1.361 . S
C284 C292 1.457 . S
C285 N280 1.363 . S
C285 N282 1.377 . S
C285 C298 1.479 . S
C286 C283 1.480 . S
C286 C287 1.383 . S
C286 C291 1.385 . S
C287 H268 0.947 . S
C287 C286 1.383 . S
C287 C288 1.388 . S
C288 H269 0.946 . S
C288 C287 1.388 . S
C288 C289 1.384 . S
C289 C288 1.384 . S
C289 C290 1.377 . S
C290 H270 0.953 . S
C290 C289 1.377 . S
C290 C291 1.369 . S
C291 H271 0.945 . S
C291 C286 1.385 . S
C291 C290 1.369 . S
C292 C284 1.457 . S
C292 C293 1.372 1_545 S
C292 C297 1.364 . S
C293 H272 0.952 . S
C293 C292 1.372 1_565 S
C293 C294 1.389 . S
C294 H273 0.949 . S
C294 C293 1.389 . S
C294 C295 1.387 1_565 S
C295 C294 1.387 1_545 S
C295 C296 1.372 . S
C296 H274 0.950 . S
C296 C295 1.372 . S
C296 C297 1.379 . S
C297 H275 0.948 . S
C297 C292 1.364 . S
C297 C296 1.379 . S
C298 C267 1.383 . S
C298 C285 1.479 . S
C298 C299 1.398 . S
C299 C264 1.382 . S
C299 H276 0.951 . S
C299 C298 1.398 . S
C300 C301 1.384 . S
C300 H313 0.947 . S
C300 C335 1.382 . S
C301 C300 1.384 . S
C301 C302 1.378 . S
C302 C301 1.378 . S
C302 C303 1.378 . S
C302 H314 0.952 . S
C303 C302 1.378 . S
C303 H315 0.950 . S
C303 C334 1.383 . S
H304 C323 0.947 . S
H305 C324 0.946 . S
H306 C326 0.953 . S
H307 C327 0.945 . S
H308 C329 0.952 . S
H309 C330 0.949 . S
H310 C332 0.950 . S
H311 C333 0.948 . S
H312 C335 0.951 . S
H313 C300 0.947 . S
H314 C302 0.952 . S
H315 C303 0.950 . S
N316 C319 1.382 . S
N316 C321 1.363 . S
N317 C319 1.371 . S
N317 C320 1.372 . S
N318 C320 1.361 . S
N318 C321 1.377 . S
C319 N316 1.382 . S
C319 N317 1.371 . S
C319 C322 1.480 . S
C320 N317 1.372 . S
C320 N318 1.361 . S
C320 C328 1.457 . S
C321 N316 1.363 . S
C321 N318 1.377 . S
C321 C334 1.479 . S
C322 C319 1.480 . S
C322 C323 1.383 . S
C322 C327 1.385 . S
C323 H304 0.947 . S
C323 C322 1.383 . S
C323 C324 1.388 . S
C324 H305 0.946 . S
C324 C323 1.388 . S
C324 C325 1.384 . S
C325 C324 1.384 . S
C325 C326 1.377 . S
C326 H306 0.953 . S
C326 C325 1.377 . S
C326 C327 1.369 . S
C327 H307 0.945 . S
C327 C322 1.385 . S
C327 C326 1.369 . S
C328 C320 1.457 . S
C328 C329 1.372 . S
C328 C333 1.364 . S
C329 H308 0.952 . S
C329 C328 1.372 . S
C329 C330 1.389 . S
C330 H309 0.949 . S
C330 C329 1.389 . S
C330 C331 1.387 . S
C331 C330 1.387 . S
C331 C332 1.372 . S
C332 H310 0.950 . S
C332 C331 1.372 . S
C332 C333 1.379 . S
C333 H311 0.948 . S
C333 C328 1.364 . S
C333 C332 1.379 . S
C334 C303 1.383 . S
C334 C321 1.479 . S
C334 C335 1.398 . S
C335 C300 1.382 . S
C335 H312 0.951 . S
C335 C334 1.398 . S
H336 C344 0.929 . S
H337 C346 0.930 . S
H338 C348 0.930 . S
H339 C351 0.929 . S
H340 C354 0.930 . S
H341 C356 0.960 . S
H342 C356 0.960 . S
H343 C356 0.960 . S
C344 H336 0.929 . S
C344 C345 1.377 . S
C344 C346 1.384 . S
C345 C344 1.377 . S
C345 C351 1.390 . S
C346 H337 0.930 . S
C346 C344 1.384 . S
C346 C347 1.372 . S
C347 C346 1.372 . S
C347 C348 1.400 . S
C347 C352 1.490 . S
C348 H338 0.930 . S
C348 C347 1.400 . S
C348 C351 1.386 . S
H349 C365 0.930 . S
H350 C366 0.931 . S
C351 H339 0.929 . S
C351 C345 1.390 . S
C351 C348 1.386 . S
C352 C347 1.490 . S
C352 C354 1.395 . S
C352 C355 1.403 . S
H353 C359 0.930 . S
C354 H340 0.930 . S
C354 C352 1.395 . S
C354 C357 1.403 . S
C355 C352 1.403 . S
C355 C356 1.524 . S
C355 C359 1.400 . S
C356 H341 0.960 . S
C356 H342 0.960 . S
C356 H343 0.960 . S
C356 C355 1.524 . S
C357 C354 1.403 . S
C357 C358 1.392 . S
C357 C361 1.495 . S
C358 C357 1.392 . S
C358 C359 1.385 . S
C358 C360 1.478 . S
C359 H353 0.930 . S
C359 C355 1.400 . S
C359 C358 1.385 . S
C360 C358 1.478 . S
C360 C362 1.381 . S
C360 C366 1.383 . S
C361 C357 1.495 . S
C361 H367 0.959 . S
C361 H368 0.961 . S
C361 H369 0.960 . S
C362 C360 1.381 . S
C362 C363 1.394 . S
C362 H370 0.930 . S
C363 C362 1.394 . S
C363 C364 1.383 . S
C363 H371 0.929 . S
C364 C363 1.383 . S
C364 C365 1.377 . S
C365 H349 0.930 . S
C365 C364 1.377 . S
C365 C366 1.379 . S
C366 H350 0.931 . S
C366 C360 1.383 . S
C366 C365 1.379 . S
H367 C361 0.959 . S
H368 C361 0.961 . S
H369 C361 0.960 . S
H370 C362 0.930 . S
H371 C363 0.929 . S
H372 C380 0.929 . S
H373 C382 0.930 . S
H374 C384 0.930 . S
H375 C387 0.929 . S
H376 C390 0.930 . S
H377 C392 0.960 . S
H378 C392 0.960 . S
H379 C392 0.960 . S
C380 H372 0.929 . S
C380 C381 1.377 . S
C380 C382 1.384 . S
C381 C380 1.377 . S
C381 C387 1.390 . S
C382 H373 0.930 . S
C382 C380 1.384 . S
C382 C383 1.372 . S
C383 C382 1.372 . S
C383 C384 1.400 . S
C383 C388 1.490 . S
C384 H374 0.930 . S
C384 C383 1.400 . S
C384 C387 1.386 . S
H385 C401 0.930 . S
H386 C402 0.931 . S
C387 H375 0.929 . S
C387 C381 1.390 . S
C387 C384 1.386 . S
C388 C383 1.490 . S
C388 C390 1.395 . S
C388 C391 1.403 . S
H389 C395 0.930 . S
C390 H376 0.930 . S
C390 C388 1.395 . S
C390 C393 1.403 . S
C391 C388 1.403 . S
C391 C392 1.524 . S
C391 C395 1.400 . S
C392 H377 0.960 . S
C392 H378 0.960 . S
C392 H379 0.960 . S
C392 C391 1.524 . S
C393 C390 1.403 . S
C393 C394 1.392 . S
C393 C397 1.495 . S
C394 C393 1.392 . S
C394 C395 1.385 . S
C394 C396 1.478 . S
C395 H389 0.930 . S
C395 C391 1.400 . S
C395 C394 1.385 . S
C396 C394 1.478 . S
C396 C398 1.381 . S
C396 C402 1.383 . S
C397 C393 1.495 . S
C397 H403 0.959 . S
C397 H404 0.961 . S
C397 H405 0.960 . S
C398 C396 1.381 . S
C398 C399 1.394 . S
C398 H406 0.930 . S
C399 C398 1.394 . S
C399 C400 1.383 . S
C399 H407 0.929 . S
C400 C399 1.383 . S
C400 C401 1.377 . S
C401 H385 0.930 . S
C401 C400 1.377 . S
C401 C402 1.379 . S
C402 H386 0.931 . S
C402 C396 1.383 . S
C402 C401 1.379 . S
H403 C397 0.959 . S
H404 C397 0.961 . S
H405 C397 0.960 . S
H406 C398 0.930 . S
H407 C399 0.929 . S
H408 C416 0.929 . S
H409 C418 0.930 . S
H410 C420 0.930 . S
H411 C423 0.929 . S
H412 C426 0.930 . S
H413 C428 0.960 . S
H414 C428 0.960 . S
H415 C428 0.960 . S
C416 H408 0.929 . S
C416 C417 1.377 . S
C416 C418 1.384 . S
C417 C416 1.377 . S
C417 C423 1.390 . S
C418 H409 0.930 . S
C418 C416 1.384 . S
C418 C419 1.372 . S
C419 C418 1.372 . S
C419 C420 1.400 . S
C419 C424 1.490 . S
C420 H410 0.930 . S
C420 C419 1.400 . S
C420 C423 1.386 . S
H421 C437 0.930 . S
H422 C438 0.931 . S
C423 H411 0.929 . S
C423 C417 1.390 . S
C423 C420 1.386 . S
C424 C419 1.490 . S
C424 C426 1.395 . S
C424 C427 1.403 . S
H425 C431 0.930 . S
C426 H412 0.930 . S
C426 C424 1.395 . S
C426 C429 1.403 . S
C427 C424 1.403 . S
C427 C428 1.524 . S
C427 C431 1.400 . S
C428 H413 0.960 . S
C428 H414 0.960 . S
C428 H415 0.960 . S
C428 C427 1.524 . S
C429 C426 1.403 . S
C429 C430 1.392 . S
C429 C433 1.495 . S
C430 C429 1.392 . S
C430 C431 1.385 . S
C430 C432 1.478 . S
C431 H425 0.930 . S
C431 C427 1.400 . S
C431 C430 1.385 . S
C432 C430 1.478 . S
C432 C434 1.381 . S
C432 C438 1.383 . S
C433 C429 1.495 . S
C433 H439 0.959 . S
C433 H440 0.961 . S
C433 H441 0.960 . S
C434 C432 1.381 . S
C434 C435 1.394 . S
C434 H442 0.930 . S
C435 C434 1.394 . S
C435 C436 1.383 . S
C435 H443 0.929 . S
C436 C435 1.383 . S
C436 C437 1.377 . S
C437 H421 0.930 . S
C437 C436 1.377 . S
C437 C438 1.379 . S
C438 H422 0.931 . S
C438 C432 1.383 . S
C438 C437 1.379 . S
H439 C433 0.959 . S
H440 C433 0.961 . S
H441 C433 0.960 . S
H442 C434 0.930 . S
H443 C435 0.929 . S
H444 C452 0.929 . S
H445 C454 0.930 . S
H446 C456 0.930 . S
H447 C459 0.929 . S
H448 C462 0.930 . S
H449 C464 0.960 . S
H450 C464 0.960 . S
H451 C464 0.960 . S
C452 H444 0.929 . S
C452 C453 1.377 . S
C452 C454 1.384 . S
C453 C452 1.377 . S
C453 C459 1.390 . S
C454 H445 0.930 . S
C454 C452 1.384 . S
C454 C455 1.372 . S
C455 C454 1.372 . S
C455 C456 1.400 . S
C455 C460 1.490 . S
C456 H446 0.930 . S
C456 C455 1.400 . S
C456 C459 1.386 . S
H457 C473 0.930 . S
H458 C474 0.931 . S
C459 H447 0.929 . S
C459 C453 1.390 . S
C459 C456 1.386 . S
C460 C455 1.490 . S
C460 C462 1.395 . S
C460 C463 1.403 . S
H461 C467 0.930 . S
C462 H448 0.930 . S
C462 C460 1.395 . S
C462 C465 1.403 . S
C463 C460 1.403 . S
C463 C464 1.524 . S
C463 C467 1.400 . S
C464 H449 0.960 . S
C464 H450 0.960 . S
C464 H451 0.960 . S
C464 C463 1.524 . S
C465 C462 1.403 . S
C465 C466 1.392 . S
C465 C469 1.495 . S
C466 C465 1.392 . S
C466 C467 1.385 . S
C466 C468 1.478 . S
C467 H461 0.930 . S
C467 C463 1.400 . S
C467 C466 1.385 . S
C468 C466 1.478 . S
C468 C470 1.381 . S
C468 C474 1.383 . S
C469 C465 1.495 . S
C469 H475 0.959 . S
C469 H476 0.961 . S
C469 H477 0.960 . S
C470 C468 1.381 . S
C470 C471 1.394 . S
C470 H478 0.930 . S
C471 C470 1.394 . S
C471 C472 1.383 . S
C471 H479 0.929 . S
C472 C471 1.383 . S
C472 C473 1.377 . S
C473 H457 0.930 . S
C473 C472 1.377 . S
C473 C474 1.379 . S
C474 H458 0.931 . S
C474 C468 1.383 . S
C474 C473 1.379 . S
H475 C469 0.959 . S
H476 C469 0.961 . S
H477 C469 0.960 . S
H478 C470 0.930 . S
H479 C471 0.929 . S
H480 C488 0.929 . S
H481 C490 0.930 . S
H482 C492 0.930 . S
H483 C495 0.929 . S
H484 C498 0.930 . S
H485 C500 0.960 . S
H486 C500 0.960 . S
H487 C500 0.960 . S
C488 H480 0.929 . S
C488 C489 1.377 . S
C488 C490 1.384 . S
C489 C488 1.377 . S
C489 C495 1.390 . S
C490 H481 0.930 . S
C490 C488 1.384 . S
C490 C491 1.372 . S
C491 C490 1.372 . S
C491 C492 1.400 . S
C491 C496 1.490 . S
C492 H482 0.930 . S
C492 C491 1.400 . S
C492 C495 1.386 . S
H493 C509 0.930 . S
H494 C510 0.931 . S
C495 H483 0.929 . S
C495 C489 1.390 . S
C495 C492 1.386 . S
C496 C491 1.490 . S
C496 C498 1.395 . S
C496 C499 1.403 . S
H497 C503 0.930 . S
C498 H484 0.930 . S
C498 C496 1.395 . S
C498 C501 1.403 . S
C499 C496 1.403 . S
C499 C500 1.524 . S
C499 C503 1.400 . S
C500 H485 0.960 . S
C500 H486 0.960 . S
C500 H487 0.960 . S
C500 C499 1.524 . S
C501 C498 1.403 . S
C501 C502 1.392 . S
C501 C505 1.495 . S
C502 C501 1.392 . S
C502 C503 1.385 . S
C502 C504 1.478 . S
C503 H497 0.930 . S
C503 C499 1.400 . S
C503 C502 1.385 . S
C504 C502 1.478 . S
C504 C506 1.381 . S
C504 C510 1.383 . S
C505 C501 1.495 . S
C505 H511 0.959 . S
C505 H512 0.961 . S
C505 H513 0.960 . S
C506 C504 1.381 . S
C506 C507 1.394 . S
C506 H514 0.930 . S
C507 C506 1.394 . S
C507 C508 1.383 . S
C507 H515 0.929 . S
C508 C507 1.383 . S
C508 C509 1.377 . S
C509 H493 0.930 . S
C509 C508 1.377 . S
C509 C510 1.379 . S
C510 H494 0.931 . S
C510 C504 1.383 . S
C510 C509 1.379 . S
H511 C505 0.959 . S
H512 C505 0.961 . S
H513 C505 0.960 . S
H514 C506 0.930 . S
H515 C507 0.929 . S
H516 C524 0.929 . S
H517 C526 0.930 . S
H518 C528 0.930 . S
H519 C531 0.929 . S
H520 C534 0.930 . S
H521 C536 0.960 . S
H522 C536 0.960 . S
H523 C536 0.960 . S
C524 H516 0.929 . S
C524 C525 1.377 . S
C524 C526 1.384 . S
C525 C524 1.377 . S
C525 C531 1.390 . S
C526 H517 0.930 . S
C526 C524 1.384 . S
C526 C527 1.372 . S
C527 C526 1.372 . S
C527 C528 1.400 . S
C527 C532 1.490 . S
C528 H518 0.930 . S
C528 C527 1.400 . S
C528 C531 1.386 . S
H529 C545 0.930 . S
H530 C546 0.931 . S
C531 H519 0.929 . S
C531 C525 1.390 . S
C531 C528 1.386 . S
C532 C527 1.490 . S
C532 C534 1.395 . S
C532 C535 1.403 . S
H533 C539 0.930 . S
C534 H520 0.930 . S
C534 C532 1.395 . S
C534 C537 1.403 . S
C535 C532 1.403 . S
C535 C536 1.524 . S
C535 C539 1.400 . S
C536 H521 0.960 . S
C536 H522 0.960 . S
C536 H523 0.960 . S
C536 C535 1.524 . S
C537 C534 1.403 . S
C537 C538 1.392 . S
C537 C541 1.495 . S
C538 C537 1.392 . S
C538 C539 1.385 . S
C538 C540 1.478 . S
C539 H533 0.930 . S
C539 C535 1.400 . S
C539 C538 1.385 . S
C540 C538 1.478 . S
C540 C542 1.381 . S
C540 C546 1.383 . S
C541 C537 1.495 . S
C541 H547 0.959 . S
C541 H548 0.961 . S
C541 H549 0.960 . S
C542 C540 1.381 . S
C542 C543 1.394 . S
C542 H550 0.930 . S
C543 C542 1.394 . S
C543 C544 1.383 . S
C543 H551 0.929 . S
C544 C543 1.383 . S
C544 C545 1.377 . S
C545 H529 0.930 . S
C545 C544 1.377 . S
C545 C546 1.379 . S
C546 H530 0.931 . S
C546 C540 1.383 . S
C546 C545 1.379 . S
H547 C541 0.959 . S
H548 C541 0.961 . S
H549 C541 0.960 . S
H550 C542 0.930 . S
H551 C543 0.929 . S
H552 C560 0.929 . S
H553 C562 0.930 . S
H554 C564 0.930 . S
H555 C567 0.929 . S
H556 C570 0.930 . S
H557 C572 0.960 . S
H558 C572 0.960 . S
H559 C572 0.960 . S
C560 H552 0.929 . S
C560 C561 1.377 . S
C560 C562 1.384 . S
C561 C560 1.377 . S
C561 C567 1.390 . S
C562 H553 0.930 . S
C562 C560 1.384 . S
C562 C563 1.372 . S
C563 C562 1.372 . S
C563 C564 1.400 . S
C563 C568 1.490 . S
C564 H554 0.930 . S
C564 C563 1.400 . S
C564 C567 1.386 . S
H565 C581 0.930 . S
H566 C582 0.931 . S
C567 H555 0.929 . S
C567 C561 1.390 . S
C567 C564 1.386 . S
C568 C563 1.490 . S
C568 C570 1.395 . S
C568 C571 1.403 . S
H569 C575 0.930 . S
C570 H556 0.930 . S
C570 C568 1.395 . S
C570 C573 1.403 . S
C571 C568 1.403 . S
C571 C572 1.524 . S
C571 C575 1.400 . S
C572 H557 0.960 . S
C572 H558 0.960 . S
C572 H559 0.960 . S
C572 C571 1.524 . S
C573 C570 1.403 . S
C573 C574 1.392 . S
C573 C577 1.495 . S
C574 C573 1.392 . S
C574 C575 1.385 . S
C574 C576 1.478 . S
C575 H569 0.930 . S
C575 C571 1.400 . S
C575 C574 1.385 . S
C576 C574 1.478 . S
C576 C578 1.381 . S
C576 C582 1.383 . S
C577 C573 1.495 . S
C577 H583 0.959 . S
C577 H584 0.961 . S
C577 H585 0.960 . S
C578 C576 1.381 . S
C578 C579 1.394 . S
C578 H586 0.930 . S
C579 C578 1.394 . S
C579 C580 1.383 . S
C579 H587 0.929 . S
C580 C579 1.383 . S
C580 C581 1.377 . S
C581 H565 0.930 . S
C581 C580 1.377 . S
C581 C582 1.379 . S
C582 H566 0.931 . S
C582 C576 1.383 . S
C582 C581 1.379 . S
H583 C577 0.959 . S
H584 C577 0.961 . S
H585 C577 0.960 . S
H586 C578 0.930 . S
H587 C579 0.929 . S
H588 C596 0.929 . S
H589 C598 0.930 . S
H590 C600 0.930 . S
H591 C603 0.929 . S
H592 C606 0.930 . S
H593 C608 0.960 . S
H594 C608 0.960 . S
H595 C608 0.960 . S
C596 H588 0.929 . S
C596 C597 1.377 . S
C596 C598 1.384 . S
C597 C596 1.377 . S
C597 C603 1.390 . S
C598 H589 0.930 . S
C598 C596 1.384 . S
C598 C599 1.372 . S
C599 C598 1.372 . S
C599 C600 1.400 . S
C599 C604 1.490 . S
C600 H590 0.930 . S
C600 C599 1.400 . S
C600 C603 1.386 . S
H601 C617 0.930 . S
H602 C618 0.931 . S
C603 H591 0.929 . S
C603 C597 1.390 . S
C603 C600 1.386 . S
C604 C599 1.490 . S
C604 C606 1.395 . S
C604 C607 1.403 . S
H605 C611 0.930 . S
C606 H592 0.930 . S
C606 C604 1.395 . S
C606 C609 1.403 . S
C607 C604 1.403 . S
C607 C608 1.524 . S
C607 C611 1.400 . S
C608 H593 0.960 . S
C608 H594 0.960 . S
C608 H595 0.960 . S
C608 C607 1.524 . S
C609 C606 1.403 . S
C609 C610 1.392 . S
C609 C613 1.495 . S
C610 C609 1.392 . S
C610 C611 1.385 . S
C610 C612 1.478 . S
C611 H605 0.930 . S
C611 C607 1.400 . S
C611 C610 1.385 . S
C612 C610 1.478 . S
C612 C614 1.381 . S
C612 C618 1.383 . S
C613 C609 1.495 . S
C613 H619 0.959 . S
C613 H620 0.961 . S
C613 H621 0.960 . S
C614 C612 1.381 . S
C614 C615 1.394 . S
C614 H622 0.930 . S
C615 C614 1.394 . S
C615 C616 1.383 . S
C615 H623 0.929 . S
C616 C615 1.383 . S
C616 C617 1.377 . S
C617 H601 0.930 . S
C617 C616 1.377 . S
C617 C618 1.379 . S
C618 H602 0.931 . S
C618 C612 1.383 . S
C618 C617 1.379 . S
H619 C613 0.959 . S
H620 C613 0.961 . S
H621 C613 0.960 . S
H622 C614 0.930 . S
H623 C615 0.929 . S
H624 C632 0.929 . S
H625 C634 0.930 . S
H626 C636 0.930 . S
H627 C639 0.929 . S
H628 C642 0.930 . S
H629 C644 0.960 . S
H630 C644 0.960 . S
H631 C644 0.960 . S
C632 H624 0.929 . S
C632 C633 1.377 . S
C632 C634 1.384 . S
C633 C632 1.377 . S
C633 C639 1.390 . S
C634 H625 0.930 . S
C634 C632 1.384 . S
C634 C635 1.372 . S
C635 C634 1.372 . S
C635 C636 1.400 . S
C635 C640 1.490 . S
C636 H626 0.930 . S
C636 C635 1.400 . S
C636 C639 1.386 . S
H637 C653 0.930 . S
H638 C654 0.931 . S
C639 H627 0.929 . S
C639 C633 1.390 . S
C639 C636 1.386 . S
C640 C635 1.490 . S
C640 C642 1.395 . S
C640 C643 1.403 . S
H641 C647 0.930 . S
C642 H628 0.930 . S
C642 C640 1.395 . S
C642 C645 1.403 . S
C643 C640 1.403 . S
C643 C644 1.524 . S
C643 C647 1.400 . S
C644 H629 0.960 . S
C644 H630 0.960 . S
C644 H631 0.960 . S
C644 C643 1.524 . S
C645 C642 1.403 . S
C645 C646 1.392 . S
C645 C649 1.495 . S
C646 C645 1.392 . S
C646 C647 1.385 . S
C646 C648 1.478 . S
C647 H641 0.930 . S
C647 C643 1.400 . S
C647 C646 1.385 . S
C648 C646 1.478 . S
C648 C650 1.381 . S
C648 C654 1.383 . S
C649 C645 1.495 . S
C649 H655 0.959 . S
C649 H656 0.961 . S
C649 H657 0.960 . S
C650 C648 1.381 . S
C650 C651 1.394 . S
C650 H658 0.930 . S
C651 C650 1.394 . S
C651 C652 1.383 . S
C651 H659 0.929 . S
C652 C651 1.383 . S
C652 C653 1.377 . S
C653 H637 0.930 . S
C653 C652 1.377 . S
C653 C654 1.379 . S
C654 H638 0.931 . S
C654 C648 1.383 . S
C654 C653 1.379 . S
H655 C649 0.959 . S
H656 C649 0.961 . S
H657 C649 0.960 . S
H658 C650 0.930 . S
H659 C651 0.929 . S
H660 C668 0.929 . S
H661 C670 0.930 . S
H662 C672 0.930 . S
H663 C675 0.929 . S
H664 C678 0.930 . S
H665 C680 0.960 . S
H666 C680 0.960 . S
H667 C680 0.960 . S
C668 H660 0.929 . S
C668 C669 1.377 . S
C668 C670 1.384 . S
C669 C668 1.377 . S
C669 C675 1.390 . S
C670 H661 0.930 . S
C670 C668 1.384 . S
C670 C671 1.372 . S
C671 C670 1.372 . S
C671 C672 1.400 . S
C671 C676 1.490 . S
C672 H662 0.930 . S
C672 C671 1.400 . S
C672 C675 1.386 . S
H673 C689 0.930 . S
H674 C690 0.931 . S
C675 H663 0.929 . S
C675 C669 1.390 . S
C675 C672 1.386 . S
C676 C671 1.490 . S
C676 C678 1.395 . S
C676 C679 1.403 . S
H677 C683 0.930 . S
C678 H664 0.930 . S
C678 C676 1.395 . S
C678 C681 1.403 . S
C679 C676 1.403 . S
C679 C680 1.524 . S
C679 C683 1.400 . S
C680 H665 0.960 . S
C680 H666 0.960 . S
C680 H667 0.960 . S
C680 C679 1.524 . S
C681 C678 1.403 . S
C681 C682 1.392 . S
C681 C685 1.495 . S
C682 C681 1.392 . S
C682 C683 1.385 . S
C682 C684 1.478 . S
C683 H677 0.930 . S
C683 C679 1.400 . S
C683 C682 1.385 . S
C684 C682 1.478 . S
C684 C686 1.381 . S
C684 C690 1.383 . S
C685 C681 1.495 . S
C685 H691 0.959 . S
C685 H692 0.961 . S
C685 H693 0.960 . S
C686 C684 1.381 . S
C686 C687 1.394 . S
C686 H694 0.930 . S
C687 C686 1.394 . S
C687 C688 1.383 . S
C687 H695 0.929 . S
C688 C687 1.383 . S
C688 C689 1.377 . S
C689 H673 0.930 . S
C689 C688 1.377 . S
C689 C690 1.379 . S
C690 H674 0.931 . S
C690 C684 1.383 . S
C690 C689 1.379 . S
H691 C685 0.959 . S
H692 C685 0.961 . S
H693 C685 0.960 . S
H694 C686 0.930 . S
H695 C687 0.929 . S
H696 C704 0.929 . S
H697 C706 0.930 . S
H698 C708 0.930 . S
H699 C711 0.929 . S
H700 C714 0.930 . S
H701 C716 0.960 . S
H702 C716 0.960 . S
H703 C716 0.960 . S
C704 H696 0.929 . S
C704 C705 1.377 . S
C704 C706 1.384 . S
C705 C704 1.377 . S
C705 C711 1.390 . S
C706 H697 0.930 . S
C706 C704 1.384 . S
C706 C707 1.372 . S
C707 C706 1.372 . S
C707 C708 1.400 . S
C707 C712 1.490 . S
C708 H698 0.930 . S
C708 C707 1.400 . S
C708 C711 1.386 . S
H709 C725 0.930 . S
H710 C726 0.931 . S
C711 H699 0.929 . S
C711 C705 1.390 . S
C711 C708 1.386 . S
C712 C707 1.490 . S
C712 C714 1.395 . S
C712 C715 1.403 . S
H713 C719 0.930 . S
C714 H700 0.930 . S
C714 C712 1.395 . S
C714 C717 1.403 . S
C715 C712 1.403 . S
C715 C716 1.524 . S
C715 C719 1.400 . S
C716 H701 0.960 . S
C716 H702 0.960 . S
C716 H703 0.960 . S
C716 C715 1.524 . S
C717 C714 1.403 . S
C717 C718 1.392 . S
C717 C721 1.495 . S
C718 C717 1.392 . S
C718 C719 1.385 . S
C718 C720 1.478 . S
C719 H713 0.930 . S
C719 C715 1.400 . S
C719 C718 1.385 . S
C720 C718 1.478 . S
C720 C722 1.381 . S
C720 C726 1.383 . S
C721 C717 1.495 . S
C721 H727 0.959 . S
C721 H728 0.961 . S
C721 H729 0.960 . S
C722 C720 1.381 . S
C722 C723 1.394 . S
C722 H730 0.930 . S
C723 C722 1.394 . S
C723 C724 1.383 . S
C723 H731 0.929 . S
C724 C723 1.383 . S
C724 C725 1.377 . S
C725 H709 0.930 . S
C725 C724 1.377 . S
C725 C726 1.379 . S
C726 H710 0.931 . S
C726 C720 1.383 . S
C726 C725 1.379 . S
H727 C721 0.959 . S
H728 C721 0.961 . S
H729 C721 0.960 . S
H730 C722 0.930 . S
H731 C723 0.929 . S
H732 C740 0.929 . S
H733 C742 0.930 . S
H734 C744 0.930 . S
H735 C747 0.929 . S
H736 C750 0.930 . S
H737 C752 0.960 . S
H738 C752 0.960 . S
H739 C752 0.960 . S
C740 H732 0.929 . S
C740 C741 1.377 . S
C740 C742 1.384 . S
C741 C740 1.377 . S
C741 C747 1.390 . S
C742 H733 0.930 . S
C742 C740 1.384 . S
C742 C743 1.372 . S
C743 C742 1.372 . S
C743 C744 1.400 . S
C743 C748 1.490 . S
C744 H734 0.930 . S
C744 C743 1.400 . S
C744 C747 1.386 . S
H745 C761 0.930 . S
H746 C762 0.931 . S
C747 H735 0.929 . S
C747 C741 1.390 . S
C747 C744 1.386 . S
C748 C743 1.490 . S
C748 C750 1.395 . S
C748 C751 1.403 . S
H749 C755 0.930 . S
C750 H736 0.930 . S
C750 C748 1.395 . S
C750 C753 1.403 . S
C751 C748 1.403 . S
C751 C752 1.524 . S
C751 C755 1.400 . S
C752 H737 0.960 . S
C752 H738 0.960 . S
C752 H739 0.960 . S
C752 C751 1.524 . S
C753 C750 1.403 . S
C753 C754 1.392 . S
C753 C757 1.495 . S
C754 C753 1.392 . S
C754 C755 1.385 . S
C754 C756 1.478 . S
C755 H749 0.930 . S
C755 C751 1.400 . S
C755 C754 1.385 . S
C756 C754 1.478 . S
C756 C758 1.381 . S
C756 C762 1.383 . S
C757 C753 1.495 . S
C757 H763 0.959 . S
C757 H764 0.961 . S
C757 H765 0.960 . S
C758 C756 1.381 . S
C758 C759 1.394 . S
C758 H766 0.930 . S
C759 C758 1.394 . S
C759 C760 1.383 . S
C759 H767 0.929 . S
C760 C759 1.383 . S
C760 C761 1.377 . S
C761 H745 0.930 . S
C761 C760 1.377 . S
C761 C762 1.379 . S
C762 H746 0.931 . S
C762 C756 1.383 . S
C762 C761 1.379 . S
H763 C757 0.959 . S
H764 C757 0.961 . S
H765 C757 0.960 . S
H766 C758 0.930 . S
H767 C759 0.929 . S
H768 C776 0.929 . S
H769 C778 0.930 . S
H770 C780 0.930 . S
H771 C783 0.929 . S
H772 C786 0.930 . S
H773 C788 0.960 . S
H774 C788 0.960 . S
H775 C788 0.960 . S
C776 H768 0.929 . S
C776 C777 1.377 . S
C776 C778 1.384 . S
C777 C776 1.377 . S
C777 C783 1.390 1_455 S
C778 H769 0.930 . S
C778 C776 1.384 . S
C778 C779 1.372 . S
C779 C778 1.372 . S
C779 C780 1.400 1_455 S
C779 C784 1.490 . S
C780 H770 0.930 . S
C780 C779 1.400 1_655 S
C780 C783 1.386 . S
H781 C797 0.930 1_655 S
H782 C798 0.931 1_655 S
C783 H771 0.929 . S
C783 C777 1.390 1_655 S
C783 C780 1.386 . S
C784 C779 1.490 . S
C784 C786 1.395 . S
C784 C787 1.403 . S
H785 C791 0.930 . S
C786 H772 0.930 . S
C786 C784 1.395 . S
C786 C789 1.403 . S
C787 C784 1.403 . S
C787 C788 1.524 . S
C787 C791 1.400 . S
C788 H773 0.960 . S
C788 H774 0.960 . S
C788 H775 0.960 . S
C788 C787 1.524 . S
C789 C786 1.403 . S
C789 C790 1.392 . S
C789 C793 1.495 . S
C790 C789 1.392 . S
C790 C791 1.385 . S
C790 C792 1.478 . S
C791 H785 0.930 . S
C791 C787 1.400 . S
C791 C790 1.385 . S
C792 C790 1.478 . S
C792 C794 1.381 . S
C792 C798 1.383 . S
C793 C789 1.495 . S
C793 H799 0.959 . S
C793 H800 0.961 . S
C793 H801 0.960 . S
C794 C792 1.381 . S
C794 C795 1.394 1_554 S
C794 H802 0.930 . S
C795 C794 1.394 1_556 S
C795 C796 1.383 . S
C795 H803 0.929 . S
C796 C795 1.383 . S
C796 C797 1.377 . S
C797 H781 0.930 1_455 S
C797 C796 1.377 . S
C797 C798 1.379 1_556 S
C798 H782 0.931 1_455 S
C798 C792 1.383 . S
C798 C797 1.379 1_554 S
H799 C793 0.959 . S
H800 C793 0.961 . S
H801 C793 0.960 . S
H802 C794 0.930 . S
H803 C795 0.929 . S
H804 C812 0.929 . S
H805 C814 0.930 . S
H806 C816 0.930 . S
H807 C819 0.929 . S
H808 C822 0.930 1_565 S
H809 C824 0.960 . S
H810 C824 0.960 . S
H811 C824 0.960 . S
C812 H804 0.929 . S
C812 C813 1.377 . S
C812 C814 1.384 . S
C813 C812 1.377 . S
C813 C819 1.390 . S
C814 H805 0.930 . S
C814 C812 1.384 . S
C814 C815 1.372 . S
C815 C814 1.372 . S
C815 C816 1.400 . S
C815 C820 1.490 . S
C816 H806 0.930 . S
C816 C815 1.400 . S
C816 C819 1.386 . S
H817 C833 0.930 . S
H818 C834 0.931 . S
C819 H807 0.929 . S
C819 C813 1.390 . S
C819 C816 1.386 . S
C820 C815 1.490 . S
C820 C822 1.395 . S
C820 C823 1.403 . S
H821 C827 0.930 . S
C822 H808 0.930 1_545 S
C822 C820 1.395 . S
C822 C825 1.403 . S
C823 C820 1.403 . S
C823 C824 1.524 . S
C823 C827 1.400 . S
C824 H809 0.960 . S
C824 H810 0.960 . S
C824 H811 0.960 . S
C824 C823 1.524 . S
C825 C822 1.403 . S
C825 C826 1.392 . S
C825 C829 1.495 1_545 S
C826 C825 1.392 . S
C826 C827 1.385 . S
C826 C828 1.478 . S
C827 H821 0.930 . S
C827 C823 1.400 . S
C827 C826 1.385 . S
C828 C826 1.478 . S
C828 C830 1.381 . S
C828 C834 1.383 . S
C829 C825 1.495 1_565 S
C829 H835 0.959 . S
C829 H836 0.961 . S
C829 H837 0.960 . S
C830 C828 1.381 . S
C830 C831 1.394 . S
C830 H838 0.930 . S
C831 C830 1.394 . S
C831 C832 1.383 . S
C831 H839 0.929 . S
C832 C831 1.383 . S
C832 C833 1.377 . S
C833 H817 0.930 . S
C833 C832 1.377 . S
C833 C834 1.379 . S
C834 H818 0.931 . S
C834 C828 1.383 . S
C834 C833 1.379 . S
H835 C829 0.959 . S
H836 C829 0.961 . S
H837 C829 0.960 . S
H838 C830 0.930 . S
H839 C831 0.929 . S
H840 C848 0.929 . S
H841 C850 0.930 . S
H842 C852 0.930 . S
H843 C855 0.929 . S
H844 C858 0.930 . S
H845 C860 0.960 . S
H846 C860 0.960 . S
H847 C860 0.960 . S
C848 H840 0.929 . S
C848 C849 1.377 . S
C848 C850 1.384 . S
C849 C848 1.377 . S
C849 C855 1.390 . S
C850 H841 0.930 . S
C850 C848 1.384 . S
C850 C851 1.372 . S
C851 C850 1.372 . S
C851 C852 1.400 . S
C851 C856 1.490 . S
C852 H842 0.930 . S
C852 C851 1.400 . S
C852 C855 1.386 . S
H853 C869 0.930 . S
H854 C870 0.931 . S
C855 H843 0.929 . S
C855 C849 1.390 . S
C855 C852 1.386 . S
C856 C851 1.490 . S
C856 C858 1.395 . S
C856 C859 1.403 . S
H857 C863 0.930 . S
C858 H844 0.930 . S
C858 C856 1.395 . S
C858 C861 1.403 . S
C859 C856 1.403 . S
C859 C860 1.524 . S
C859 C863 1.400 . S
C860 H845 0.960 . S
C860 H846 0.960 . S
C860 H847 0.960 . S
C860 C859 1.524 . S
C861 C858 1.403 . S
C861 C862 1.392 . S
C861 C865 1.495 . S
C862 C861 1.392 . S
C862 C863 1.385 . S
C862 C864 1.478 . S
C863 H857 0.930 . S
C863 C859 1.400 . S
C863 C862 1.385 . S
C864 C862 1.478 . S
C864 C866 1.381 . S
C864 C870 1.383 . S
C865 C861 1.495 . S
C865 H871 0.959 . S
C865 H872 0.961 . S
C865 H873 0.960 . S
C866 C864 1.381 . S
C866 C867 1.394 . S
C866 H874 0.930 . S
C867 C866 1.394 . S
C867 C868 1.383 . S
C867 H875 0.929 . S
C868 C867 1.383 . S
C868 C869 1.377 . S
C869 H853 0.930 . S
C869 C868 1.377 . S
C869 C870 1.379 . S
C870 H854 0.931 . S
C870 C864 1.383 . S
C870 C869 1.379 . S
H871 C865 0.959 . S
H872 C865 0.961 . S
H873 C865 0.960 . S
H874 C866 0.930 . S
H875 C867 0.929 . S
H876 C884 0.929 . S
H877 C886 0.930 . S
H878 C888 0.930 . S
H879 C891 0.929 . S
H880 C894 0.930 1_565 S
H881 C896 0.960 . S
H882 C896 0.960 . S
H883 C896 0.960 . S
C884 H876 0.929 . S
C884 C885 1.377 1_565 S
C884 C886 1.384 . S
C885 C884 1.377 1_545 S
C885 C891 1.390 . S
C886 H877 0.930 . S
C886 C884 1.384 . S
C886 C887 1.372 1_565 S
C887 C886 1.372 1_545 S
C887 C888 1.400 . S
C887 C892 1.490 . S
C888 H878 0.930 . S
C888 C887 1.400 . S
C888 C891 1.386 . S
H889 C905 0.930 . S
H890 C906 0.931 . S
C891 H879 0.929 . S
C891 C885 1.390 . S
C891 C888 1.386 . S
C892 C887 1.490 . S
C892 C894 1.395 . S
C892 C895 1.403 . S
H893 C899 0.930 . S
C894 H880 0.930 1_545 S
C894 C892 1.395 . S
C894 C897 1.403 . S
C895 C892 1.403 . S
C895 C896 1.524 . S
C895 C899 1.400 . S
C896 H881 0.960 . S
C896 H882 0.960 . S
C896 H883 0.960 . S
C896 C895 1.524 . S
C897 C894 1.403 . S
C897 C898 1.392 . S
C897 C901 1.495 1_545 S
C898 C897 1.392 . S
C898 C899 1.385 . S
C898 C900 1.478 . S
C899 H893 0.930 . S
C899 C895 1.400 . S
C899 C898 1.385 . S
C900 C898 1.478 . S
C900 C902 1.381 1_545 S
C900 C906 1.383 . S
C901 C897 1.495 1_565 S
C901 H907 0.959 . S
C901 H908 0.961 1_565 S
C901 H909 0.960 . S
C902 C900 1.381 1_565 S
C902 C903 1.394 . S
C902 H910 0.930 . S
C903 C902 1.394 . S
C903 C904 1.383 1_565 S
C903 H911 0.929 . S
C904 C903 1.383 1_545 S
C904 C905 1.377 . S
C905 H889 0.930 . S
C905 C904 1.377 . S
C905 C906 1.379 . S
C906 H890 0.931 . S
C906 C900 1.383 . S
C906 C905 1.379 . S
H907 C901 0.959 . S
H908 C901 0.961 1_545 S
H909 C901 0.960 . S
H910 C902 0.930 . S
H911 C903 0.929 . S
H912 C920 0.929 . S
H913 C922 0.930 . S
H914 C924 0.930 . S
H915 C927 0.929 . S
H916 C930 0.930 . S
H917 C932 0.960 . S
H918 C932 0.960 . S
H919 C932 0.960 . S
C920 H912 0.929 . S
C920 C921 1.377 . S
C920 C922 1.384 . S
C921 C920 1.377 . S
C921 C927 1.390 . S
C922 H913 0.930 . S
C922 C920 1.384 . S
C922 C923 1.372 . S
C923 C922 1.372 . S
C923 C924 1.400 . S
C923 C928 1.490 . S
C924 H914 0.930 . S
C924 C923 1.400 . S
C924 C927 1.386 . S
H925 C941 0.930 . S
H926 C942 0.931 . S
C927 H915 0.929 . S
C927 C921 1.390 . S
C927 C924 1.386 . S
C928 C923 1.490 . S
C928 C930 1.395 . S
C928 C931 1.403 . S
H929 C935 0.930 . S
C930 H916 0.930 . S
C930 C928 1.395 . S
C930 C933 1.403 . S
C931 C928 1.403 . S
C931 C932 1.524 . S
C931 C935 1.400 . S
C932 H917 0.960 . S
C932 H918 0.960 . S
C932 H919 0.960 . S
C932 C931 1.524 . S
C933 C930 1.403 . S
C933 C934 1.392 . S
C933 C937 1.495 . S
C934 C933 1.392 . S
C934 C935 1.385 . S
C934 C936 1.478 . S
C935 H929 0.930 . S
C935 C931 1.400 . S
C935 C934 1.385 . S
C936 C934 1.478 . S
C936 C938 1.381 . S
C936 C942 1.383 . S
C937 C933 1.495 . S
C937 H943 0.959 . S
C937 H944 0.961 . S
C937 H945 0.960 . S
C938 C936 1.381 . S
C938 C939 1.394 1_556 S
C938 H946 0.930 . S
C939 C938 1.394 1_554 S
C939 C940 1.383 . S
C939 H947 0.929 . S
C940 C939 1.383 . S
C940 C941 1.377 . S
C941 H925 0.930 . S
C941 C940 1.377 . S
C941 C942 1.379 1_554 S
C942 H926 0.931 . S
C942 C936 1.383 . S
C942 C941 1.379 1_556 S
H943 C937 0.959 . S
H944 C937 0.961 . S
H945 C937 0.960 . S
H946 C938 0.930 . S
H947 C939 0.929 . S
H948 C956 0.929 . S
H949 C958 0.930 . S
H950 C960 0.930 . S
H951 C963 0.929 . S
H952 C966 0.930 . S
H953 C968 0.960 . S
H954 C968 0.960 . S
H955 C968 0.960 . S
C956 H948 0.929 . S
C956 C957 1.377 . S
C956 C958 1.384 . S
C957 C956 1.377 . S
C957 C963 1.390 1_455 S
C958 H949 0.930 . S
C958 C956 1.384 . S
C958 C959 1.372 . S
C959 C958 1.372 . S
C959 C960 1.400 1_455 S
C959 C964 1.490 . S
C960 H950 0.930 . S
C960 C959 1.400 1_655 S
C960 C963 1.386 . S
H961 C977 0.930 . S
H962 C978 0.931 . S
C963 H951 0.929 . S
C963 C957 1.390 1_655 S
C963 C960 1.386 . S
C964 C959 1.490 . S
C964 C966 1.395 . S
C964 C967 1.403 1_455 S
H965 C971 0.930 . S
C966 H952 0.930 . S
C966 C964 1.395 . S
C966 C969 1.403 . S
C967 C964 1.403 1_655 S
C967 C968 1.524 . S
C967 C971 1.400 . S
C968 H953 0.960 . S
C968 H954 0.960 . S
C968 H955 0.960 . S
C968 C967 1.524 . S
C969 C966 1.403 . S
C969 C970 1.392 . S
C969 C973 1.495 . S
C970 C969 1.392 . S
C970 C971 1.385 1_455 S
C970 C972 1.478 . S
C971 H965 0.930 . S
C971 C967 1.400 . S
C971 C970 1.385 1_655 S
C972 C970 1.478 . S
C972 C974 1.381 . S
C972 C978 1.383 1_455 S
C973 C969 1.495 . S
C973 H979 0.959 . S
C973 H980 0.961 . S
C973 H981 0.960 . S
C974 C972 1.381 . S
C974 C975 1.394 . S
C974 H982 0.930 . S
C975 C974 1.394 . S
C975 C976 1.383 . S
C975 H983 0.929 . S
C976 C975 1.383 . S
C976 C977 1.377 1_455 S
C977 H961 0.930 . S
C977 C976 1.377 1_655 S
C977 C978 1.379 . S
C978 H962 0.931 . S
C978 C972 1.383 1_655 S
C978 C977 1.379 . S
H979 C973 0.959 . S
H980 C973 0.961 . S
H981 C973 0.960 . S
H982 C974 0.930 . S
H983 C975 0.929 . S
C345 C24 2.844 . S
C364 C325 2.782 . S
C381 C66 1.027 . S
C400 C253 1.059 . S
C417 C93 1.723 . S
C436 C289 1.695 . S
C453 C13 2.999 . S
C472 C301 2.972 . S
C508 C229 1.213 . S
C489 C57 1.239 . S
C544 C265 1.881 . S
C525 C104 1.904 . S
C561 C64 1.890 . S
C580 C181 1.834 . S
C597 C97 0.362 . S
C616 C193 0.336 . S
C633 C17 1.212 . S
C652 C121 1.210 . S
C688 C157 1.697 . S
C669 C53 1.736 . S
C724 C217 0.200 . S
C705 C106 0.320 . S
C741 C26 1.052 . S
C760 C145 1.036 . S
C796 C223 1.074 . S
C777 C2 1.085 . S
C813 C63 1.467 . S
C832 C151 1.487 . S
C849 C82 1.369 . S
C868 C187 1.382 . S
C904 C295 1.392 . S
C885 C42 1.390 . S
C940 C331 1.762 . S
C921 C103 1.733 . S
C957 C23 1.475 . S
C976 C259 1.483 . S
