# Generated by pormake.
# Topology llj, (12,3)-cn, num edge types: 1
# Building blocks:
#     Node 0, Type 0, BuildingBlock: QEWDON_clean_sbu_0, # of connection points: 12
#     Node 1, Type 0, BuildingBlock: QEWDON_clean_sbu_0, # of connection points: 12
#     Node 2, Type 1, BuildingBlock: VETTIZ_charged_linker_0, # of connection points: 3
#     Node 3, Type 1, BuildingBlock: VETTIZ_charged_linker_0, # of connection points: 3
#     Node 4, Type 1, BuildingBlock: VETTIZ_charged_linker_0, # of connection points: 3
#     Node 5, Type 1, BuildingBlock: VETTIZ_charged_linker_0, # of connection points: 3
#     Node 6, Type 1, BuildingBlock: VETTIZ_charged_linker_0, # of connection points: 3
#     Node 7, Type 1, BuildingBlock: VETTIZ_charged_linker_0, # of connection points: 3
#     Node 8, Type 1, BuildingBlock: VETTIZ_charged_linker_0, # of connection points: 3
#     Node 9, Type 1, BuildingBlock: VETTIZ_charged_linker_0, # of connection points: 3
#     Edge 10, Type (0, 1), BuildingBlock: KIFKEQ_clean_linker_1, # of connection points: 2
#     Edge 11, Type (0, 1), BuildingBlock: KIFKEQ_clean_linker_1, # of connection points: 2
#     Edge 12, Type (0, 1), BuildingBlock: KIFKEQ_clean_linker_1, # of connection points: 2
#     Edge 13, Type (0, 1), BuildingBlock: KIFKEQ_clean_linker_1, # of connection points: 2
#     Edge 14, Type (0, 1), BuildingBlock: KIFKEQ_clean_linker_1, # of connection points: 2
#     Edge 15, Type (0, 1), BuildingBlock: KIFKEQ_clean_linker_1, # of connection points: 2
#     Edge 16, Type (0, 1), BuildingBlock: KIFKEQ_clean_linker_1, # of connection points: 2
#     Edge 17, Type (0, 1), BuildingBlock: KIFKEQ_clean_linker_1, # of connection points: 2
#     Edge 18, Type (0, 1), BuildingBlock: KIFKEQ_clean_linker_1, # of connection points: 2
#     Edge 19, Type (0, 1), BuildingBlock: KIFKEQ_clean_linker_1, # of connection points: 2
#     Edge 20, Type (0, 1), BuildingBlock: KIFKEQ_clean_linker_1, # of connection points: 2
#     Edge 21, Type (0, 1), BuildingBlock: KIFKEQ_clean_linker_1, # of connection points: 2
#     Edge 22, Type (0, 1), BuildingBlock: KIFKEQ_clean_linker_1, # of connection points: 2
#     Edge 23, Type (0, 1), BuildingBlock: KIFKEQ_clean_linker_1, # of connection points: 2
#     Edge 24, Type (0, 1), BuildingBlock: KIFKEQ_clean_linker_1, # of connection points: 2
#     Edge 25, Type (0, 1), BuildingBlock: KIFKEQ_clean_linker_1, # of connection points: 2
#     Edge 26, Type (0, 1), BuildingBlock: KIFKEQ_clean_linker_1, # of connection points: 2
#     Edge 27, Type (0, 1), BuildingBlock: KIFKEQ_clean_linker_1, # of connection points: 2
#     Edge 28, Type (0, 1), BuildingBlock: KIFKEQ_clean_linker_1, # of connection points: 2
#     Edge 29, Type (0, 1), BuildingBlock: KIFKEQ_clean_linker_1, # of connection points: 2
#     Edge 30, Type (0, 1), BuildingBlock: KIFKEQ_clean_linker_1, # of connection points: 2
#     Edge 31, Type (0, 1), BuildingBlock: KIFKEQ_clean_linker_1, # of connection points: 2
#     Edge 32, Type (0, 1), BuildingBlock: KIFKEQ_clean_linker_1, # of connection points: 2
#     Edge 33, Type (0, 1), BuildingBlock: KIFKEQ_clean_linker_1, # of connection points: 2
# Relax obj value: 0.012
# Max RMSD: 0.057
# Mean RMSD: 0.053
data_MOF--net-llj--node1-QEWDON_clean_sbu_0--node2-VETTIZ_charged_linker_0--edge1-KIFKEQ_clean_linker_1
_symmetry_space_group_name_H-M    P1
_symmetry_Int_Tables_number       1
_symmetry_cell_setting            triclinic
loop_
_symmetry_equiv_pos_as_xyz
'x, y, z'
_cell_length_a     45.508199
_cell_length_b     45.518754
_cell_length_c     31.908202
_cell_angle_alpha  89.958238
_cell_angle_beta   90.094819
_cell_angle_gamma 89.94051
loop_
_atom_site_label
_atom_site_type_symbol
_atom_site_fract_x
_atom_site_fract_y
_atom_site_fract_z
_atom_type_partial_charge
Zn0 Zn 0.94335 0.04792 0.96924 0.0
Zn1 Zn 0.94568 0.05252 0.06872 0.0
O2 O 0.97112 0.04741 0.0186 0.0
H3 H 0.98919 0.03632 0.01787 0.0
C4 C 0.91797 0.98547 0.92133 0.0
O5 O 0.9105 0.99557 0.95837 0.0
Zn6 Zn 0.0561 0.95318 0.07087 0.0
Zn7 Zn 0.05555 0.94529 0.97217 0.0
O8 O 0.02922 0.95327 0.02183 0.0
H9 H 0.01078 0.96368 0.01994 0.0
Zn10 Zn 0.94615 0.94344 0.97514 0.0
O11 O 0.95128 0.97183 0.02324 0.0
Zn12 Zn 0.95016 0.94716 0.07466 0.0
H13 H 0.9619 0.9901 0.0203 0.0
Zn14 Zn 0.05233 0.05356 0.9643 0.0
O15 O 0.04731 0.02948 0.01679 0.0
H16 H 0.03629 0.01141 0.01689 0.0
Zn17 Zn 0.0506 0.05773 0.06402 0.0
C18 C 0.08215 0.00729 0.921 0.0
O19 O 0.08921 0.00124 0.96001 0.0
O20 O 0.90538 0.07036 0.98223 0.0
O21 O 0.90856 0.07519 0.05145 0.0
O22 O 0.09322 0.92288 0.98817 0.0
O23 O 0.09249 0.92876 0.0573 0.0
O24 O 0.92408 0.90606 0.99266 0.0
O25 O 0.92723 0.90936 0.06208 0.0
C26 C 0.99586 0.07707 0.11096 0.0
O27 O 0.07437 0.09214 0.97522 0.0
O28 O 0.07439 0.09328 0.04494 0.0
O29 O 0.03341 0.93082 0.91991 0.0
C30 C 0.89539 0.08017 0.01675 0.0
O31 O 0.96279 0.05859 0.91306 0.0
C32 C 0.00775 0.93283 0.12168 0.0
O33 O 0.93383 0.96254 0.91913 0.0
C34 C 0.10433 0.91831 0.02426 0.0
O35 O 0.06585 0.02935 0.91342 0.0
C36 C 0.92751 0.99744 0.11958 0.0
O37 O 0.96808 0.07482 0.11383 0.0
O38 O 0.00841 0.0664 0.07889 0.0
C39 C 0.91835 0.89613 0.02908 0.0
O40 O 0.03557 0.93518 0.12051 0.0
O41 O 0.993 0.94137 0.09003 0.0
C42 C 0.07261 0.01033 0.11438 0.0
O43 O 0.9295 0.96957 0.12083 0.0
O44 O 0.93847 0.01074 0.08822 0.0
C45 C 0.08178 0.10424 0.00964 0.0
O46 O 0.07037 0.03817 0.11376 0.0
O47 O 0.06381 0.99603 0.0826 0.0
C48 C 0.01042 0.91569 0.92642 0.0
O49 O 0.00232 0.91035 0.96519 0.0
C50 C 0.98548 0.07478 0.9149 0.0
O51 O 0.99547 0.08293 0.95175 0.0
Zn52 Zn 0.44614 0.55 0.46795 0.0
Zn53 Zn 0.44655 0.55117 0.56867 0.0
O54 O 0.47232 0.54562 0.51878 0.0
H55 H 0.48977 0.53357 0.51839 0.0
C56 C 0.41552 0.48315 0.41982 0.0
O57 O 0.41034 0.49582 0.45605 0.0
Zn58 Zn 0.55389 0.45406 0.57029 0.0
Zn59 Zn 0.55099 0.44554 0.47116 0.0
O60 O 0.52615 0.45491 0.52196 0.0
H61 H 0.5083 0.46636 0.52073 0.0
Zn62 Zn 0.44387 0.44175 0.47543 0.0
O63 O 0.44853 0.47067 0.52295 0.0
Zn64 Zn 0.44833 0.44645 0.57499 0.0
H65 H 0.45804 0.48944 0.51943 0.0
Zn66 Zn 0.55642 0.55424 0.4623 0.0
O67 O 0.54898 0.53036 0.51453 0.0
H68 H 0.53858 0.51193 0.51392 0.0
Zn69 Zn 0.55141 0.55822 0.56261 0.0
C70 C 0.58934 0.50854 0.42036 0.0
O71 O 0.59333 0.50039 0.45947 0.0
O72 O 0.40716 0.57058 0.48169 0.0
O73 O 0.40965 0.57389 0.55116 0.0
O74 O 0.58955 0.42432 0.48613 0.0
O75 O 0.5899 0.4295 0.55541 0.0
O76 O 0.42316 0.40398 0.49427 0.0
O77 O 0.42622 0.40806 0.56361 0.0
C78 C 0.49658 0.57576 0.6114 0.0
O79 O 0.57639 0.59374 0.47481 0.0
O80 O 0.57422 0.5946 0.54443 0.0
O81 O 0.5282 0.42852 0.42084 0.0
C82 C 0.39669 0.57939 0.51647 0.0
O83 O 0.46711 0.5659 0.41535 0.0
C84 C 0.50618 0.43373 0.62208 0.0
O85 O 0.43011 0.45934 0.41904 0.0
C86 C 0.60129 0.41952 0.52176 0.0
O87 O 0.57367 0.53104 0.41264 0.0
C88 C 0.42631 0.49679 0.61972 0.0
O89 O 0.46882 0.57317 0.6141 0.0
O90 O 0.5092 0.566 0.57873 0.0
C91 C 0.41771 0.39428 0.53089 0.0
O92 O 0.53395 0.43636 0.6206 0.0
O93 O 0.49125 0.44141 0.59015 0.0
C94 C 0.57254 0.51095 0.6136 0.0
O95 O 0.42753 0.46888 0.62086 0.0
O96 O 0.43825 0.50982 0.58886 0.0
C97 C 0.58222 0.606 0.5097 0.0
O98 O 0.57149 0.53883 0.61205 0.0
O99 O 0.56284 0.49659 0.58239 0.0
C100 C 0.50595 0.4125 0.4283 0.0
O101 O 0.49807 0.40797 0.46737 0.0
C102 C 0.46363 0.59303 0.40738 0.0
O103 O 0.4467 0.60883 0.43194 0.0
C104 C 0.39792 0.32681 0.88577 0.0
C105 C 0.42483 0.34193 0.88477 0.0
C106 C 0.44111 0.3451 0.92209 0.0
C107 C 0.40315 0.31964 0.96079 0.0
C108 C 0.38763 0.31575 0.92397 0.0
C109 C 0.35943 0.29922 0.93072 0.0
H110 H 0.26356 0.23558 0.06479 0.0
C111 C 0.38583 0.30672 0.99521 0.0
C112 C 0.36028 0.29452 0.97783 0.0
H113 H 0.25727 0.24235 0.92982 0.0
H114 H 0.30391 0.26726 0.92753 0.0
H115 H 0.33259 0.21891 0.06813 0.0
H116 H 0.28624 0.30105 0.07922 0.0
H117 H 0.31514 0.30189 0.11563 0.0
H118 H 0.28681 0.27444 0.12072 0.0
H119 H 0.31059 0.22806 0.11292 0.0
H120 H 0.34864 0.23877 0.10951 0.0
C121 C 0.36133 0.26982 0.90638 0.0
C122 C 0.33361 0.31938 0.91729 0.0
C123 C 0.41989 0.32028 0.14519 0.0
C124 C 0.40743 0.31314 0.18415 0.0
C125 C 0.38111 0.29686 0.18514 0.0
C126 C 0.36711 0.2884 0.14786 0.0
C127 C 0.37944 0.29652 0.10916 0.0
C128 C 0.40559 0.31187 0.10835 0.0
C129 C 0.41522 0.31926 0.0646 0.0
C130 C 0.39031 0.30615 0.0392 0.0
C131 C 0.36942 0.29287 0.06539 0.0
C132 C 0.44481 0.30344 0.05615 0.0
C133 C 0.41644 0.35321 0.06059 0.0
C134 C 0.27209 0.2427 0.03478 0.0
C135 C 0.25666 0.237 0.99744 0.0
C136 C 0.26883 0.2462 0.959 0.0
C137 C 0.29589 0.26078 0.95774 0.0
C138 C 0.31099 0.26636 0.99532 0.0
C139 C 0.2991 0.2573 0.03298 0.0
C140 C 0.31826 0.26516 0.06974 0.0
C141 C 0.34372 0.2802 0.04785 0.0
C142 C 0.33926 0.28094 0.0043 0.0
C143 C 0.328 0.23636 0.09163 0.0
C144 C 0.30085 0.28659 0.09818 0.0
H145 H 0.44368 0.33751 0.98742 0.0
H146 H 0.38518 0.32363 0.85744 0.0
H147 H 0.33798 0.34258 0.92634 0.0
H148 H 0.31268 0.3138 0.93277 0.0
H149 H 0.33036 0.31882 0.8828 0.0
H150 H 0.3843 0.26143 0.90562 0.0
H151 H 0.35389 0.27254 0.87343 0.0
H152 H 0.34858 0.25201 0.92127 0.0
H153 H 0.43984 0.33317 0.14328 0.0
H154 H 0.37125 0.29083 0.2148 0.0
H155 H 0.34702 0.27625 0.15063 0.0
H156 H 0.44605 0.28219 0.07335 0.0
H157 H 0.46372 0.31706 0.06643 0.0
H158 H 0.44771 0.29742 0.02285 0.0
H159 H 0.3983 0.36365 0.0786 0.0
H160 H 0.4134 0.3611 0.02818 0.0
H161 H 0.43751 0.36196 0.07297 0.0
H162 H 0.46182 0.35681 0.92211 0.0
C163 C 0.43044 0.33403 0.96004 0.0
C164 C 0.66926 0.39403 0.87956 0.0
C165 C 0.65372 0.4208 0.87817 0.0
C166 C 0.65075 0.43732 0.91529 0.0
C167 C 0.67712 0.40007 0.95434 0.0
C168 C 0.68078 0.38416 0.91786 0.0
C169 C 0.69761 0.3561 0.92522 0.0
H170 H 0.7648 0.2638 0.06219 0.0
C171 C 0.69076 0.38343 0.98897 0.0
C172 C 0.70299 0.35768 0.9722 0.0
H173 H 0.75481 0.25314 0.92821 0.0
H174 H 0.7296 0.29972 0.92396 0.0
H175 H 0.78077 0.33302 0.0604 0.0
H176 H 0.70017 0.28535 0.07815 0.0
H177 H 0.69859 0.31572 0.11181 0.0
H178 H 0.72714 0.28861 0.11893 0.0
H179 H 0.77306 0.31204 0.10675 0.0
H180 H 0.76165 0.34983 0.10184 0.0
C181 C 0.72663 0.35772 0.90005 0.0
C182 C 0.67749 0.32998 0.91325 0.0
C183 C 0.67989 0.42041 0.13796 0.0
C184 C 0.68797 0.40874 0.1771 0.0
C185 C 0.70468 0.38266 0.17852 0.0
C186 C 0.71259 0.36809 0.14152 0.0
C187 C 0.70348 0.37956 0.10267 0.0
C188 C 0.68774 0.40551 0.10139 0.0
C189 C 0.67929 0.41415 0.05755 0.0
C190 C 0.69217 0.38885 0.03269 0.0
C191 C 0.70629 0.3687 0.05923 0.0
C192 C 0.69456 0.44371 0.04713 0.0
C193 C 0.64525 0.41493 0.05493 0.0
C194 C 0.75695 0.2713 0.03196 0.0
C195 C 0.7618 0.25465 0.99553 0.0
C196 C 0.75164 0.26563 0.95673 0.0
C197 C 0.73687 0.29264 0.95433 0.0
C198 C 0.73208 0.3089 0.99111 0.0
C199 C 0.74212 0.29815 0.02905 0.0
C200 C 0.73481 0.31813 0.065 0.0
C201 C 0.71893 0.34278 0.04239 0.0
C202 C 0.71734 0.3373 -0.00089 0.0
C203 C 0.76397 0.32879 0.08496 0.0
C204 C 0.71429 0.30124 0.09539 0.0
H205 H 0.65913 0.44071 0.98028 0.0
H206 H 0.67192 0.38075 0.85168 0.0
H207 H 0.65434 0.33445 0.92242 0.0
H208 H 0.68334 0.30942 0.92962 0.0
H209 H 0.67783 0.32601 0.8789 0.0
H210 H 0.73557 0.38046 0.90012 0.0
H211 H 0.72311 0.3512 0.86688 0.0
H212 H 0.74429 0.34405 0.91364 0.0
H213 H 0.66668 0.44017 0.13578 0.0
H214 H 0.71142 0.37342 0.20832 0.0
H215 H 0.72508 0.34821 0.14465 0.0
H216 H 0.71604 0.44562 0.06362 0.0
H217 H 0.68081 0.46268 0.05683 0.0
H218 H 0.70005 0.44589 0.01353 0.0
H219 H 0.63543 0.39716 0.07434 0.0
H220 H 0.63671 0.411 0.02305 0.0
H221 H 0.63648 0.4362 0.06655 0.0
H222 H 0.63955 0.45833 0.915 0.0
C223 C 0.66234 0.42714 0.95322 0.0
C224 C 0.59071 0.69222 0.15329 0.0
C225 C 0.56322 0.67813 0.15389 0.0
C226 C 0.54944 0.67106 0.11565 0.0
C227 C 0.59111 0.69013 0.0773 0.0
C228 C 0.60413 0.69814 0.11471 0.0
C229 C 0.63344 0.7127 0.1082 0.0
H230 H 0.74054 0.75732 0.97565 0.0
C231 C 0.61146 0.69777 0.04305 0.0
C232 C 0.63618 0.71127 0.06078 0.0
H233 H 0.73658 0.76708 0.11043 0.0
H234 H 0.68965 0.74291 0.11162 0.0
H235 H 0.71611 0.68983 0.97514 0.0
H236 H 0.6724 0.77308 0.95693 0.0
H237 H 0.65967 0.74821 0.91876 0.0
H238 H 0.69793 0.75836 0.91953 0.0
H239 H 0.72127 0.71149 0.92869 0.0
H240 H 0.69111 0.68607 0.93349 0.0
C241 C 0.6572 0.69386 0.13043 0.0
C242 C 0.6312 0.74477 0.12422 0.0
C243 C 0.58709 0.6653 0.89546 0.0
C244 C 0.60204 0.66698 0.8571 0.0
C245 C 0.62895 0.68229 0.85532 0.0
C246 C 0.64113 0.69492 0.8916 0.0
C247 C 0.62623 0.69223 0.93002 0.0
C248 C 0.5995 0.67788 0.93122 0.0
C249 C 0.5866 0.67687 0.9744 0.0
C250 C 0.61022 0.69251 -0.00069 0.0
C251 C 0.63343 0.7015 0.97334 0.0
C252 C 0.58361 0.64413 0.98729 0.0
C253 C 0.55729 0.69432 0.97396 0.0
C254 C 0.7297 0.75397 0.00546 0.0
C255 C 0.74232 0.76434 0.04298 0.0
C256 C 0.72722 0.75979 0.081 0.0
C257 C 0.69996 0.7456 0.08167 0.0
C258 C 0.68755 0.73562 0.04398 0.0
C259 C 0.70239 0.73975 0.00669 0.0
C260 C 0.68574 0.72744 0.96981 0.0
C261 C 0.65829 0.71577 0.99111 0.0
C262 C 0.65959 0.72058 0.03458 0.0
C263 C 0.70443 0.7025 0.95034 0.0
C264 C 0.67861 0.75293 0.9393 0.0
H265 H 0.55176 0.6706 0.0495 0.0
H266 H 0.60163 0.69829 0.1822 0.0
H267 H 0.60862 0.75366 0.11976 0.0
H268 H 0.6455 0.76008 0.10676 0.0
H269 H 0.63647 0.74616 0.15816 0.0
H270 H 0.65239 0.67003 0.12684 0.0
H271 H 0.65804 0.69875 0.16451 0.0
H272 H 0.67936 0.69676 0.11706 0.0
H273 H 0.56606 0.65427 0.89775 0.0
H274 H 0.64089 0.68392 0.82608 0.0
H275 H 0.66181 0.70602 0.88843 0.0
H276 H 0.60259 0.63107 0.97562 0.0
H277 H 0.5633 0.63431 0.974 0.0
H278 H 0.5837 0.64069 0.0215 0.0
H279 H 0.55774 0.71222 0.95019 0.0
H280 H 0.55296 0.7057 0.00395 0.0
H281 H 0.53841 0.67983 0.96634 0.0
H282 H 0.52836 0.66001 0.1153 0.0
C283 C 0.56319 0.67702 0.07743 0.0
C284 C 0.31235 0.59157 0.15354 0.0
C285 C 0.32734 0.56451 0.15363 0.0
C286 C 0.33133 0.5495 0.11544 0.0
C287 C 0.30818 0.58949 0.07777 0.0
C288 C 0.30301 0.60361 0.11535 0.0
C289 C 0.28799 0.63279 0.10927 0.0
H290 H 0.23728 0.73761 0.97687 0.0
C291 C 0.29808 0.60891 0.04361 0.0
C292 C 0.28612 0.63429 0.06177 0.0
H293 H 0.23431 0.73697 0.1124 0.0
H294 H 0.25755 0.68938 0.11351 0.0
H295 H 0.30181 0.71456 0.96954 0.0
H296 H 0.21944 0.66833 0.96359 0.0
H297 H 0.24194 0.65634 0.922 0.0
H298 H 0.23127 0.69437 0.92481 0.0
H299 H 0.27998 0.71414 0.9227 0.0
H300 H 0.30675 0.68582 0.93366 0.0
C301 C 0.30816 0.65707 0.12744 0.0
C302 C 0.25719 0.63108 0.12976 0.0
C303 C 0.31951 0.58068 0.89317 0.0
C304 C 0.31716 0.59594 0.8551 0.0
C305 C 0.30388 0.6239 0.85451 0.0
C306 C 0.29334 0.63661 0.89162 0.0
C307 C 0.29661 0.6214 0.92975 0.0
C308 C 0.30946 0.59388 0.92998 0.0
C309 C 0.31317 0.58179 0.97347 0.0
C310 C 0.30034 0.60655 -0.00058 0.0
C311 C 0.29041 0.62955 0.97371 0.0
C312 C 0.34655 0.57744 0.98172 0.0
C313 C 0.29457 0.55341 0.97698 0.0
C314 C 0.24189 0.72737 0.00682 0.0
C315 C 0.2339 0.74114 0.0446 0.0
C316 C 0.23991 0.72674 0.08282 0.0
C317 C 0.25352 0.69912 0.08343 0.0
C318 C 0.26137 0.68569 0.04543 0.0
C319 C 0.25548 0.69978 0.00797 0.0
C320 C 0.26549 0.68223 0.97068 0.0
C321 C 0.27781 0.65504 0.99196 0.0
C322 C 0.27549 0.65729 0.03573 0.0
C323 C 0.28961 0.7 0.94757 0.0
C324 C 0.23826 0.67496 0.94348 0.0
H325 H 0.32591 0.54947 0.04959 0.0
H326 H 0.30896 0.60368 0.18233 0.0
H327 H 0.24801 0.60848 0.1276 0.0
H328 H 0.24078 0.64512 0.11383 0.0
H329 H 0.25816 0.63706 0.16347 0.0
H330 H 0.33162 0.65231 0.12032 0.0
H331 H 0.30592 0.65852 0.16204 0.0
H332 H 0.30397 0.67895 0.11378 0.0
H333 H 0.33023 0.55943 0.89461 0.0
H334 H 0.3019 0.63596 0.82536 0.0
H335 H 0.28355 0.65801 0.88931 0.0
H336 H 0.35988 0.59362 0.96382 0.0
H337 H 0.35386 0.55514 0.9722 0.0
H338 H 0.35282 0.58121 0.01472 0.0
H339 H 0.27354 0.55573 0.95944 0.0
H340 H 0.288 0.54838 0.00951 0.0
H341 H 0.3065 0.53425 0.96375 0.0
H342 H 0.34219 0.52832 0.11476 0.0
C343 C 0.32177 0.56178 0.0776 0.0
C344 C 0.89818 0.82189 0.3822 0.0
C345 C 0.92537 0.83645 0.37995 0.0
C346 C 0.9421 0.84018 0.41673 0.0
C347 C 0.90383 0.81701 0.4575 0.0
C348 C 0.88798 0.81216 0.42121 0.0
C349 C 0.85956 0.79633 0.42955 0.0
H350 H 0.76276 0.74197 0.57054 0.0
C351 C 0.88644 0.80593 0.49305 0.0
C352 C 0.86063 0.79342 0.47697 0.0
H353 H 0.75672 0.73994 0.43525 0.0
H354 H 0.80364 0.76427 0.4299 0.0
H355 H 0.83103 0.72306 0.57548 0.0
H356 H 0.78727 0.80693 0.57724 0.0
H357 H 0.81598 0.80882 0.61383 0.0
H358 H 0.78689 0.78249 0.62139 0.0
H359 H 0.81013 0.73562 0.61964 0.0
H360 H 0.84847 0.74474 0.6137 0.0
C361 C 0.86084 0.76602 0.4075 0.0
C362 C 0.83396 0.81631 0.41487 0.0
C363 C 0.91948 0.8289 0.64099 0.0
C364 C 0.90668 0.82426 0.68045 0.0
C365 C 0.88089 0.80729 0.68335 0.0
C366 C 0.86733 0.79624 0.64715 0.0
C367 C 0.87969 0.8023 0.6077 0.0
C368 C 0.90566 0.81787 0.60525 0.0
C369 C 0.91561 0.82246 0.5609 0.0
C370 C 0.89089 0.80773 0.53695 0.0
C371 C 0.86989 0.79608 0.56446 0.0
C372 C 0.94533 0.80629 0.55489 0.0
C373 C 0.91676 0.85603 0.55265 0.0
C374 C 0.77162 0.74656 0.53973 0.0
C375 C 0.75594 0.7391 0.50329 0.0
C376 C 0.76813 0.74586 0.46383 0.0
C377 C 0.7955 0.75978 0.46078 0.0
C378 C 0.81085 0.76711 0.49754 0.0
C379 C 0.79891 0.76037 0.53614 0.0
C380 C 0.81828 0.76976 0.57187 0.0
C381 C 0.844 0.78294 0.54833 0.0
C382 C 0.83945 0.78151 0.50482 0.0
C383 C 0.82742 0.74201 0.59688 0.0
C384 C 0.80138 0.79307 0.59782 0.0
H385 H 0.94507 0.83444 0.48234 0.0
H386 H 0.88512 0.81828 0.35427 0.0
H387 H 0.83831 0.83962 0.42336 0.0
H388 H 0.81282 0.81093 0.42984 0.0
H389 H 0.83118 0.81524 0.38031 0.0
H390 H 0.88373 0.75743 0.40651 0.0
H391 H 0.85278 0.76752 0.37469 0.0
H392 H 0.84827 0.74893 0.42431 0.0
H393 H 0.93964 0.84135 0.6379 0.0
H394 H 0.87068 0.8034 0.71349 0.0
H395 H 0.84742 0.78397 0.65123 0.0
H396 H 0.94737 0.78719 0.5765 0.0
H397 H 0.9642 0.82112 0.56115 0.0
H398 H 0.94764 0.79673 0.52319 0.0
H399 H 0.89772 0.86727 0.56753 0.0
H400 H 0.91532 0.86189 0.51919 0.0
H401 H 0.93712 0.86579 0.56587 0.0
H402 H 0.96306 0.85143 0.41575 0.0
C403 C 0.93152 0.83048 0.45543 0.0
C404 C 0.16971 0.89139 0.37871 0.0
C405 C 0.15283 0.91734 0.37717 0.0
C406 C 0.14775 0.93303 0.41451 0.0
C407 C 0.1741 0.8962 0.45422 0.0
C408 C 0.18013 0.88126 0.41755 0.0
C409 C 0.19788 0.85381 0.42547 0.0
H410 H 0.26053 0.76088 0.56621 0.0
C411 C 0.18668 0.87938 0.4894 0.0
C412 C 0.20092 0.8546 0.47295 0.0
H413 H 0.26014 0.75335 0.43114 0.0
H414 H 0.23289 0.79884 0.42562 0.0
H415 H 0.27475 0.83042 0.56925 0.0
H416 H 0.19451 0.78061 0.57471 0.0
H417 H 0.19092 0.80947 0.6107 0.0
H418 H 0.21956 0.78254 0.6181 0.0
H419 H 0.26459 0.80893 0.61411 0.0
H420 H 0.25252 0.84646 0.60803 0.0
C421 C 0.22793 0.85725 0.40333 0.0
C422 C 0.17966 0.8271 0.41046 0.0
C423 C 0.16436 0.91147 0.63783 0.0
C424 C 0.17082 0.89938 0.67726 0.0
C425 C 0.1895 0.87475 0.67982 0.0
C426 C 0.20055 0.8616 0.64333 0.0
C427 C 0.1928 0.87325 0.60396 0.0
C428 C 0.17546 0.89811 0.60183 0.0
C429 C 0.16934 0.90754 0.5576 0.0
C430 C 0.18524 0.88375 0.53333 0.0
C431 C 0.19884 0.86371 0.56055 0.0
C432 C 0.18342 0.93821 0.55075 0.0
C433 C 0.1356 0.90645 0.55064 0.0
C434 C 0.25486 0.76915 0.53539 0.0
C435 C 0.26254 0.75352 0.49908 0.0
C436 C 0.2542 0.76482 0.45962 0.0
C437 C 0.23855 0.79132 0.45648 0.0
C438 C 0.23099 0.80663 0.49318 0.0
C439 C 0.23923 0.79546 0.53175 0.0
C440 C 0.22907 0.8143 0.56751 0.0
C441 C 0.21359 0.83882 0.54411 0.0
C442 C 0.21468 0.83425 0.50056 0.0
C443 C 0.2565 0.82557 0.59137 0.0
C444 C 0.20753 0.79594 0.59454 0.0
H445 H 0.15337 0.93554 0.48006 0.0
H446 H 0.1741 0.87887 0.35055 0.0
H447 H 0.15601 0.8301 0.41819 0.0
H448 H 0.18606 0.80637 0.42592 0.0
H449 H 0.18141 0.82426 0.37598 0.0
H450 H 0.23582 0.88034 0.40532 0.0
H451 H 0.22629 0.8514 0.36961 0.0
H452 H 0.24547 0.84399 0.41803 0.0
H453 H 0.15055 0.93077 0.63497 0.0
H454 H 0.19483 0.86513 0.70996 0.0
H455 H 0.21421 0.84256 0.64717 0.0
H456 H 0.20289 0.94143 0.57138 0.0
H457 H 0.16757 0.95611 0.55776 0.0
H458 H 0.19201 0.94113 0.5186 0.0
H459 H 0.12581 0.88729 0.56717 0.0
H460 H 0.12925 0.90352 0.51754 0.0
H461 H 0.12482 0.92659 0.56288 0.0
H462 H 0.13553 0.95347 0.41408 0.0
C463 C 0.15831 0.92267 0.45286 0.0
C464 C 0.09576 0.17862 0.6513 0.0
C465 C 0.0698 0.16186 0.65105 0.0
C466 C 0.0555 0.15641 0.61266 0.0
C467 C 0.09428 0.1816 0.57542 0.0
C468 C 0.10758 0.18822 0.61317 0.0
C469 C 0.1358 0.20496 0.60733 0.0
H470 H 0.23994 0.25827 0.47664 0.0
C471 C 0.11334 0.19246 0.54148 0.0
C472 C 0.13761 0.20637 0.5598 0.0
H473 H 0.23664 0.26358 0.61192 0.0
H474 H 0.18991 0.23889 0.612 0.0
H475 H 0.21616 0.19095 0.47068 0.0
H476 H 0.17118 0.27422 0.46076 0.0
H477 H 0.15793 0.25076 0.4212 0.0
H478 H 0.19609 0.26138 0.42117 0.0
H479 H 0.22108 0.21506 0.42669 0.0
H480 H 0.19129 0.18907 0.42858 0.0
C481 C 0.16112 0.1865 0.6265 0.0
C482 C 0.13194 0.23583 0.62705 0.0
C483 C 0.08831 0.16553 0.39208 0.0
C484 C 0.10272 0.1693 0.35364 0.0
C485 C 0.12867 0.1862 0.35232 0.0
C486 C 0.14065 0.19811 0.38925 0.0
C487 C 0.12648 0.19305 0.42779 0.0
C488 C 0.10051 0.17738 0.42844 0.0
C489 C 0.08844 0.17361 0.47176 0.0
C490 C 0.11163 0.18928 0.49739 0.0
C491 C 0.13393 0.20063 0.47168 0.0
C492 C 0.08732 0.14018 0.48145 0.0
C493 C 0.05833 0.18954 0.4739 0.0
C494 C 0.22927 0.25383 0.50628 0.0
C495 C 0.24208 0.26285 0.54435 0.0
C496 C 0.22716 0.25713 0.58217 0.0
C497 C 0.20005 0.24266 0.58217 0.0
C498 C 0.18765 0.2336 0.54398 0.0
C499 C 0.20209 0.23937 0.50683 0.0
C500 C 0.18532 0.22831 0.46929 0.0
C501 C 0.15841 0.2151 0.49012 0.0
C502 C 0.16008 0.21809 0.53391 0.0
C503 C 0.20435 0.20472 0.44725 0.0
C504 C 0.17726 0.2549 0.44127 0.0
H505 H 0.05581 0.16092 0.54678 0.0
H506 H 0.10724 0.18318 0.68033 0.0
H507 H 0.10873 0.24339 0.62482 0.0
H508 H 0.14471 0.25295 0.61058 0.0
H509 H 0.13811 0.23575 0.66075 0.0
H510 H 0.1579 0.16273 0.61984 0.0
H511 H 0.16209 0.18923 0.66107 0.0
H512 H 0.18284 0.1918 0.61324 0.0
H513 H 0.068 0.1532 0.39402 0.0
H514 H 0.1401 0.1895 0.32295 0.0
H515 H 0.16068 0.21037 0.38649 0.0
H516 H 0.10579 0.12837 0.46602 0.0
H517 H 0.06652 0.13027 0.46993 0.0
H518 H 0.08992 0.13502 0.51503 0.0
H519 H 0.05797 0.20918 0.45311 0.0
H520 H 0.05341 0.19826 0.50546 0.0
H521 H 0.04018 0.17485 0.46381 0.0
H522 H 0.03512 0.14414 0.61177 0.0
C523 C 0.06752 0.16627 0.57493 0.0
C524 C 0.81856 0.10005 0.6557 0.0
C525 C 0.83503 0.07388 0.65677 0.0
C526 C 0.84002 0.05847 0.61918 0.0
C527 C 0.81451 0.09622 0.58004 0.0
C528 C 0.80861 0.11084 0.61702 0.0
C529 C 0.79203 0.13905 0.60965 0.0
H530 H 0.73691 0.23813 0.47162 0.0
C531 C 0.80319 0.11419 0.54511 0.0
C532 C 0.78995 0.13934 0.5621 0.0
H533 H 0.73244 0.24067 0.60697 0.0
H534 H 0.75843 0.19447 0.61096 0.0
H535 H 0.80157 0.21727 0.46513 0.0
H536 H 0.72095 0.16797 0.46305 0.0
H537 H 0.74366 0.15499 0.42241 0.0
H538 H 0.73181 0.19274 0.42209 0.0
H539 H 0.77933 0.21489 0.4188 0.0
H540 H 0.8073 0.18792 0.43053 0.0
C541 C 0.81089 0.16478 0.62652 0.0
C542 C 0.76142 0.13623 0.63043 0.0
C543 C 0.82426 0.08255 0.39596 0.0
C544 C 0.82061 0.09649 0.35707 0.0
C545 C 0.80602 0.12375 0.35519 0.0
C546 C 0.79546 0.13711 0.3918 0.0
C547 C 0.79998 0.12324 0.4307 0.0
C548 C 0.81413 0.09639 0.43222 0.0
C549 C 0.81895 0.08581 0.47627 0.0
C550 C 0.80519 0.11067 0.50106 0.0
C551 C 0.7939 0.13237 0.47428 0.0
C552 C 0.85259 0.08332 0.48392 0.0
C553 C 0.80179 0.0567 0.48193 0.0
C554 C 0.74126 0.22864 0.50215 0.0
C555 C 0.73257 0.24312 0.53902 0.0
C556 C 0.73921 0.23018 0.57809 0.0
C557 C 0.7541 0.20323 0.58035 0.0
C558 C 0.76257 0.18905 0.54315 0.0
C559 C 0.756 0.20175 0.50491 0.0
C560 C 0.76657 0.18361 0.46859 0.0
C561 C 0.78019 0.15769 0.4913 0.0
C562 C 0.77799 0.16105 0.53496 0.0
C563 C 0.78975 0.20174 0.44412 0.0
C564 C 0.73949 0.17437 0.44228 0.0
H565 H 0.83464 0.0568 0.55344 0.0
H566 H 0.81437 0.11238 0.6841 0.0
H567 H 0.75324 0.11323 0.62872 0.0
H568 H 0.74439 0.14944 0.61444 0.0
H569 H 0.76229 0.14252 0.66404 0.0
H570 H 0.8345 0.16127 0.61903 0.0
H571 H 0.8089 0.16668 0.66111 0.0
H572 H 0.80524 0.18612 0.61224 0.0
H573 H 0.836 0.06188 0.39835 0.0
H574 H 0.80303 0.1348 0.32539 0.0
H575 H 0.78467 0.15795 0.38846 0.0
H576 H 0.86504 0.09891 0.46378 0.0
H577 H 0.86074 0.06086 0.47687 0.0
H578 H 0.85909 0.0893 0.51618 0.0
H579 H 0.78032 0.05763 0.46522 0.0
H580 H 0.79615 0.0521 0.51495 0.0
H581 H 0.81434 0.03781 0.46906 0.0
H582 H 0.85209 0.03794 0.61933 0.0
C583 C 0.82978 0.06942 0.58093 0.0
H584 H 0.10017 0.13492 0.94089 0.0
H585 H 0.10986 0.13062 0.07562 0.0
H586 H 0.13971 0.17079 0.93752 0.0
H587 H 0.14985 0.16606 0.072 0.0
H588 H 0.21114 0.244 0.05265 0.0
H589 H 0.16524 0.21626 0.05546 0.0
H590 H 0.19254 0.16604 0.94742 0.0
H591 H 0.23822 0.19363 0.94466 0.0
C592 C 0.11048 0.14187 0.96985 0.0
C593 C 0.10215 0.12954 0.00847 0.0
C594 C 0.13326 0.1623 0.96786 0.0
C595 C 0.14826 0.17085 0.00439 0.0
C596 C 0.13868 0.15999 0.0433 0.0
C597 C 0.11581 0.13958 0.04533 0.0
C598 C 0.20731 0.22699 0.02957 0.0
C599 C 0.2283 0.22099 -0.00157 0.0
C600 C 0.18102 0.21117 0.03113 0.0
C601 C 0.17519 0.18907 0.00155 0.0
C602 C 0.19606 0.18335 0.97015 0.0
C603 C 0.22229 0.19913 0.9686 0.0
H604 H 0.86149 0.09465 0.94906 0.0
H605 H 0.87223 0.11248 0.08132 0.0
H606 H 0.82573 0.13425 0.94397 0.0
H607 H 0.83665 0.15242 0.07591 0.0
H608 H 0.7568 0.21176 0.05547 0.0
H609 H 0.78509 0.16633 0.06145 0.0
H610 H 0.83114 0.18788 0.94725 0.0
H611 H 0.80319 0.23332 0.94147 0.0
C612 C 0.85597 0.10674 0.97721 0.0
C613 C 0.87007 0.10063 0.01551 0.0
C614 C 0.83558 0.12956 0.97417 0.0
C615 C 0.82875 0.14678 0.00935 0.0
C616 C 0.8414 0.1395 0.04825 0.0
C617 C 0.86186 0.11664 0.05132 0.0
C618 C 0.77303 0.20683 0.03171 0.0
C619 C 0.7778 0.22623 -0.00197 0.0
C620 C 0.78916 0.18078 0.03511 0.0
C621 C 0.81027 0.17348 0.00479 0.0
C622 C 0.81465 0.19261 0.97074 0.0
C623 C 0.79862 0.21868 0.96742 0.0
H624 H 0.89499 0.86272 0.96607 0.0
H625 H 0.89495 0.87275 0.10083 0.0
H626 H 0.85479 0.82775 0.97128 0.0
H627 H 0.85501 0.83726 0.10596 0.0
H628 H 0.79178 0.75225 0.99688 0.0
H629 H 0.83792 0.77969 0.9956 0.0
H630 H 0.80303 0.84024 0.08711 0.0
H631 H 0.75709 0.81308 0.08822 0.0
C632 C 0.88683 0.85703 0.99692 0.0
C633 C 0.89793 0.87092 0.033 0.0
C634 C 0.86384 0.83683 -0.00013 0.0
C635 C 0.85141 0.83004 0.03898 0.0
C636 C 0.86375 0.84249 0.07529 0.0
C637 C 0.88679 0.86267 0.07236 0.0
C638 C 0.79397 0.77147 0.01662 0.0
C639 C 0.77073 0.78044 0.04268 0.0
C640 C 0.82042 0.78712 0.01599 0.0
C641 C 0.82423 0.81203 0.04146 0.0
C642 C 0.80109 0.82078 0.06779 0.0
C643 C 0.77469 0.80522 0.06835 0.0
H644 H 0.13028 0.89837 0.09639 0.0
H645 H 0.13468 0.89096 0.96141 0.0
H646 H 0.16555 0.85831 0.10319 0.0
H647 H 0.16952 0.85067 0.96839 0.0
H648 H 0.24548 0.78869 0.99451 0.0
H649 H 0.21867 0.83514 0.99119 0.0
H650 H 0.16134 0.80534 0.09022 0.0
H651 H 0.1879 0.75897 0.09335 0.0
C652 C 0.13906 0.88853 0.06815 0.0
C653 C 0.12932 0.89763 0.02834 0.0
C654 C 0.15913 0.86544 0.0721 0.0
C655 C 0.16999 0.85105 0.03636 0.0
C656 C 0.16168 0.86137 0.99654 0.0
C657 C 0.14157 0.88441 0.99257 0.0
C658 C 0.22713 0.79207 0.01553 0.0
C659 C 0.21876 0.77007 0.04409 0.0
C660 C 0.21185 0.81869 0.0137 0.0
C661 C 0.18793 0.82394 0.04048 0.0
C662 C 0.18 0.80221 0.06967 0.0
C663 C 0.19521 0.77559 0.07143 0.0
H664 H 0.60486 0.63539 0.4424 0.0
H665 H 0.60411 0.63523 0.57796 0.0
H666 H 0.64398 0.67167 0.44291 0.0
H667 H 0.64301 0.67202 0.57829 0.0
H668 H 0.74132 0.69453 0.55648 0.0
H669 H 0.69521 0.66775 0.56012 0.0
H670 H 0.65971 0.72166 0.46067 0.0
H671 H 0.70601 0.7487 0.45713 0.0
C672 C 0.61256 0.64355 0.47228 0.0
C673 C 0.6017 0.632 0.51012 0.0
C674 C 0.63492 0.6645 0.47259 0.0
C675 C 0.64686 0.67437 0.51066 0.0
C676 C 0.6346 0.66437 0.54848 0.0
C677 C 0.6122 0.64343 0.5482 0.0
C678 C 0.72353 0.70105 0.53589 0.0
C679 C 0.72734 0.72368 0.50644 0.0
C680 C 0.69705 0.68575 0.53806 0.0
C681 C 0.67377 0.69268 0.51079 0.0
C682 C 0.67735 0.71568 0.48183 0.0
C683 C 0.70388 0.73105 0.47971 0.0
H684 H 0.36576 0.5985 0.44817 0.0
H685 H 0.37008 0.60649 0.5831 0.0
H686 H 0.33042 0.63846 0.44546 0.0
H687 H 0.33405 0.64613 0.58033 0.0
H688 H 0.30929 0.74209 0.55013 0.0
H689 H 0.33711 0.69667 0.55642 0.0
H690 H 0.28172 0.65641 0.46255 0.0
H691 H 0.25385 0.70214 0.45613 0.0
C692 C 0.3587 0.60832 0.47739 0.0
C693 C 0.37114 0.59957 0.51582 0.0
C694 C 0.33828 0.6312 0.4758 0.0
C695 C 0.32975 0.64579 0.51261 0.0
C696 C 0.34068 0.63573 0.55132 0.0
C697 C 0.36116 0.61286 0.55293 0.0
C698 C 0.30281 0.72345 0.53117 0.0
C699 C 0.27938 0.7257 0.50262 0.0
C700 C 0.31868 0.69734 0.53492 0.0
C701 C 0.3115 0.67281 0.51022 0.0
C702 C 0.28795 0.67499 0.48178 0.0
C703 C 0.27207 0.70119 0.47799 0.0
H704 H 0.39491 0.36009 0.46842 0.0
H705 H 0.3949 0.37089 0.60307 0.0
H706 H 0.35497 0.32498 0.47404 0.0
H707 H 0.35529 0.33507 0.60867 0.0
H708 H 0.25731 0.31062 0.59127 0.0
H709 H 0.30349 0.33746 0.59068 0.0
H710 H 0.33783 0.27752 0.49787 0.0
H711 H 0.29139 0.25067 0.49835 0.0
C712 C 0.38685 0.3545 0.49935 0.0
C713 C 0.39781 0.36872 0.53525 0.0
C714 C 0.36399 0.3342 0.50256 0.0
C715 C 0.35162 0.32755 0.54175 0.0
C716 C 0.36394 0.34021 0.57793 0.0
C717 C 0.38682 0.36057 0.57473 0.0
C718 C 0.27485 0.30289 0.57118 0.0
C719 C 0.27065 0.27856 0.54477 0.0
C720 C 0.3014 0.31821 0.57096 0.0
C721 C 0.32444 0.30957 0.54435 0.0
C722 C 0.32042 0.28493 0.51841 0.0
C723 C 0.2938 0.26961 0.5186 0.0
H724 H 0.63243 0.39528 0.45721 0.0
H725 H 0.62688 0.3968 0.59249 0.0
H726 H 0.66762 0.35505 0.46126 0.0
H727 H 0.66169 0.35618 0.59636 0.0
H728 H 0.73934 0.2923 0.58781 0.0
H729 H 0.71191 0.33843 0.58335 0.0
H730 H 0.66139 0.30344 0.48012 0.0
H731 H 0.68853 0.25754 0.48467 0.0
C732 C 0.63898 0.38732 0.48784 0.0
C733 C 0.62646 0.39896 0.5245 0.0
C734 C 0.65902 0.36414 0.49013 0.0
C735 C 0.66699 0.35207 0.52909 0.0
C736 C 0.65604 0.36502 0.56586 0.0
C737 C 0.636 0.38827 0.5636 0.0
C738 C 0.72228 0.29446 0.56431 0.0
C739 C 0.71618 0.27129 0.53651 0.0
C740 C 0.70665 0.32089 0.56168 0.0
C741 C 0.68468 0.32469 0.53113 0.0
C742 C 0.67865 0.3015 0.50337 0.0
C743 C 0.69418 0.27514 0.50604 0.0
H744 H 0.98324 0.07542 0.19419 0.0
H745 H 0.04615 0.109 0.10559 0.0
H746 H 0.01128 0.09729 0.25153 0.0
H747 H 0.07503 0.12995 0.16277 0.0
H748 H 0.09537 0.19265 0.27504 0.0
H749 H 0.07083 0.16974 0.21504 0.0
H750 H 0.05863 0.09035 0.28719 0.0
H751 H 0.08297 0.11317 0.34683 0.0
C752 C 0.00328 0.08724 0.18704 0.0
C753 C 0.01302 0.08996 0.14554 0.0
C754 C 0.01946 0.09956 0.21983 0.0
C755 C 0.04556 0.11509 0.2117 0.0
C756 C 0.05506 0.11809 0.17006 0.0
C757 C 0.03889 0.10565 0.13735 0.0
C758 C 0.08781 0.17018 0.27775 0.0
C759 C 0.0907 0.15484 0.31573 0.0
C760 C 0.07376 0.15706 0.24348 0.0
C761 C 0.06244 0.12838 0.24665 0.0
C762 C 0.06649 0.1127 0.28411 0.0
C763 C 0.08046 0.12576 0.31821 0.0
H764 H 0.91324 0.97586 0.1965 0.0
H765 H 0.90867 0.05462 0.12165 0.0
H766 H 0.88697 0.00058 0.25254 0.0
H767 H 0.8811 0.07905 0.17649 0.0
H768 H 0.85742 0.12266 0.30139 0.0
H769 H 0.88409 0.09942 0.24403 0.0
H770 H 0.83974 0.0174 0.27016 0.0
H771 H 0.81421 0.04054 0.32861 0.0
C772 C 0.90648 0.99846 0.19181 0.0
C773 C 0.91291 0.01327 0.15428 0.0
C774 C 0.89115 0.01258 0.22386 0.0
C775 C 0.88149 0.04175 0.21895 0.0
C776 C 0.88838 0.05669 0.18166 0.0
C777 C 0.9041 0.04264 0.14991 0.0
C778 C 0.85318 0.09977 0.29437 0.0
C779 C 0.83387 0.08332 0.31929 0.0
C780 C 0.86841 0.08641 0.26151 0.0
C781 C 0.86431 0.05641 0.25261 0.0
C782 C 0.84404 0.04033 0.27672 0.0
C783 C 0.82918 0.05359 0.30993 0.0
H784 H 0.95223 0.91035 0.1302 0.0
H785 H 0.03187 0.92775 0.19928 0.0
H786 H 0.93126 0.8863 0.19134 0.0
H787 H 0.01082 0.90446 0.26083 0.0
H788 H 0.98015 0.83185 0.34636 0.0
H789 H 0.9988 0.85581 0.2835 0.0
H790 H 0.91319 0.89413 0.26134 0.0
H791 H 0.89445 0.86951 0.32384 0.0
C792 C 0.96503 0.90949 0.15854 0.0
C793 C 0.99368 0.92077 0.15966 0.0
C794 C 0.95305 0.89571 0.19371 0.0
C795 C 0.9695 0.89311 0.23086 0.0
C796 C 0.99781 0.9054 0.2324 0.0
C797 C 0.0098 0.91894 0.19717 0.0
C798 C 0.96534 0.8453 0.32789 0.0
C799 C 0.93593 0.84893 0.33995 0.0
C800 C 0.97602 0.85918 0.29206 0.0
C801 C 0.95758 0.87722 0.2677 0.0
C802 C 0.92791 0.88021 0.2792 0.0
C803 C 0.91717 0.86611 0.31493 0.0
H804 H 0.10183 0.95826 0.11934 0.0
H805 H 0.06877 0.0293 0.19504 0.0
H806 H 0.11982 0.93332 0.18203 0.0
H807 H 0.08759 0.00501 0.25788 0.0
H808 H 0.0978 0.93928 0.36425 0.0
H809 H 0.07773 0.96053 0.30024 0.0
H810 H 0.15871 0.94098 0.23554 0.0
H811 H 0.17896 0.91981 0.29987 0.0
C812 C 0.09799 0.96823 0.14942 0.0
C813 C 0.0834 0.99528 0.15235 0.0
C814 C 0.1087 0.95424 0.18529 0.0
C815 C 0.10501 0.96715 0.22489 0.0
C816 C 0.0904 0.99431 0.22783 0.0
C817 C 0.07983 0.00832 0.19188 0.0
C818 C 0.11139 0.93963 0.33642 0.0
C819 C 0.14011 0.9282 0.33722 0.0
C820 C 0.09987 0.95178 0.29978 0.0
C821 C 0.11675 0.95268 0.26303 0.0
C822 C 0.14512 0.9404 0.26336 0.0
C823 C 0.15671 0.92827 0.30014 0.0
H824 H 0.11801 0.95924 0.92657 0.0
H825 H 0.07296 0.01481 0.83719 0.0
H826 H 0.13852 0.93047 0.86913 0.0
H827 H 0.094 0.98656 0.77996 0.0
H828 H 0.11359 0.91464 0.68766 0.0
H829 H 0.09111 0.93839 0.74797 0.0
H830 H 0.1746 0.9366 0.81272 0.0
H831 H 0.19704 0.9124 0.75225 0.0
C832 C 0.11244 0.96528 0.8947 0.0
C833 C 0.09388 0.9893 0.88639 0.0
C834 C 0.12434 0.94891 0.86183 0.0
C835 C 0.1179 0.95626 0.82005 0.0
C836 C 0.09906 0.98008 0.81183 0.0
C837 C 0.08714 0.99639 0.84464 0.0
C838 C 0.12713 0.91935 0.7148 0.0
C839 C 0.15713 0.91204 0.71517 0.0
C840 C 0.11428 0.93296 0.74929 0.0
C841 C 0.13115 0.93966 0.78489 0.0
C842 C 0.16097 0.93149 0.78584 0.0
C843 C 0.17384 0.91772 0.75127 0.0
H844 H 0.96688 0.06694 0.83429 0.0
H845 H 0.03515 0.10798 0.90818 0.0
H846 H 0.98793 0.08796 0.77093 0.0
H847 H 0.0566 0.12844 0.84462 0.0
H848 H 0.06429 0.18781 0.72805 0.0
H849 H 0.04492 0.16581 0.79218 0.0
H850 H 0.03078 0.08408 0.72633 0.0
H851 H 0.04986 0.1061 0.66242 0.0
C852 C 0.98656 0.08019 0.83696 0.0
C853 C -0.00071 0.08591 0.87624 0.0
C854 C 0.99869 0.09214 0.80063 0.0
C855 C 0.02387 0.10995 0.8028 0.0
C856 C 0.03692 0.11519 0.84202 0.0
C857 C 0.02474 0.1033 0.87838 0.0
C858 C 0.05717 0.16511 0.72745 0.0
C859 C 0.05832 0.14875 0.6902 0.0
C860 C 0.04617 0.15248 0.76413 0.0
C861 C 0.03623 0.12323 0.76425 0.0
C862 C 0.03775 0.10682 0.72707 0.0
C863 C 0.04865 0.11944 0.69046 0.0
H864 H 0.8855 0.03581 0.91539 0.0
H865 H 0.92597 0.96795 0.8403 0.0
H866 H 0.86649 0.05902 0.85205 0.0
H867 H 0.90632 0.99071 0.77714 0.0
H868 H 0.89058 0.05352 0.66947 0.0
H869 H 0.91171 0.03388 0.73382 0.0
H870 H 0.82973 0.04981 0.79817 0.0
H871 H 0.80871 0.06985 0.73366 0.0
C872 C 0.89034 0.02584 0.88539 0.0
C873 C 0.9072 2e-05 0.88286 0.0
C874 C 0.87928 0.03905 0.84912 0.0
C875 C 0.88481 0.02667 0.80957 0.0
C876 C 0.90198 0.00103 0.80707 0.0
C877 C 0.91311 0.98788 0.8433 0.0
C878 C 0.87704 0.0527 0.69734 0.0
C879 C 0.84791 0.06294 0.69649 0.0
C880 C 0.88913 0.04144 0.73418 0.0
C881 C 0.87234 0.04007 0.77103 0.0
C882 C 0.84335 0.05086 0.77041 0.0
C883 C 0.83128 0.06227 0.7335 0.0
H884 H 0.0223 0.92112 0.84301 0.0
H885 H 0.96049 0.88251 0.92979 0.0
H886 H 0.99563 0.89933 0.78469 0.0
H887 H 0.93339 0.86125 0.87123 0.0
H888 H 0.91655 0.79975 0.7576 0.0
H889 H 0.94017 0.8228 0.81812 0.0
H890 H 0.94897 0.90364 0.74815 0.0
H891 H 0.92571 0.88057 0.68783 0.0
C892 C 0.00288 0.90818 0.84962 0.0
C893 C 0.99354 0.90347 0.891 0.0
C894 C 0.98749 0.89583 0.81618 0.0
C895 C 0.9624 0.87857 0.82339 0.0
C896 C 0.95286 0.87414 0.86475 0.0
C897 C 0.96828 0.88648 0.89824 0.0
C898 C 0.92333 0.82251 0.75541 0.0
C899 C 0.91966 0.83828 0.71794 0.0
C900 C 0.93677 0.83572 0.79001 0.0
C901 C 0.94663 0.86495 0.78773 0.0
C902 C 0.94217 0.8809 0.75057 0.0
C903 C 0.92886 0.8677 0.71606 0.0
H904 H 0.48129 0.57617 0.6939 0.0
H905 H 0.54923 0.60419 0.60909 0.0
H906 H 0.50846 0.59749 0.75241 0.0
H907 H 0.57718 0.6245 0.66744 0.0
H908 H 0.59812 0.68837 0.77692 0.0
H909 H 0.57383 0.66545 0.71688 0.0
H910 H 0.5534 0.58958 0.79282 0.0
H911 H 0.57753 0.61246 0.85263 0.0
C912 C 0.50223 0.58662 0.68778 0.0
C913 C 0.5135 0.58804 0.64688 0.0
C914 C 0.51791 0.59863 0.72132 0.0
C915 C 0.54511 0.61252 0.71464 0.0
C916 C 0.55627 0.61402 0.67368 0.0
C917 C 0.54056 0.60194 0.64024 0.0
C918 C 0.58877 0.66665 0.78055 0.0
C919 C 0.58945 0.65236 0.81958 0.0
C920 C 0.57485 0.65351 0.74621 0.0
C921 C 0.56141 0.62582 0.75024 0.0
C922 C 0.56296 0.61119 0.78894 0.0
C923 C 0.57682 0.62429 0.82318 0.0
H924 H 0.40809 0.47476 0.69457 0.0
H925 H 0.41052 0.55504 0.62282 0.0
H926 H 0.38108 0.49975 0.74951 0.0
H927 H 0.38208 0.57983 0.67654 0.0
H928 H 0.35641 0.62179 0.80249 0.0
H929 H 0.38338 0.59871 0.74522 0.0
H930 H 0.33421 0.51853 0.76437 0.0
H931 H 0.30837 0.54139 0.82274 0.0
C932 C 0.40268 0.49776 0.69027 0.0
C933 C 0.41124 0.51286 0.65385 0.0
C934 C 0.38689 0.51205 0.72169 0.0
C935 C 0.37889 0.54175 0.7173 0.0
C936 C 0.38797 0.55701 0.68123 0.0
C937 C 0.40415 0.54274 0.65009 0.0
C938 C 0.35117 0.59937 0.79391 0.0
C939 C 0.33045 0.58328 0.81695 0.0
C940 C 0.36658 0.58611 0.7611 0.0
C941 C 0.36127 0.55659 0.75038 0.0
C942 C 0.33949 0.54102 0.77242 0.0
C943 C 0.32445 0.55414 0.80557 0.0
H944 H 0.45111 0.41042 0.63227 0.0
H945 H 0.53046 0.4317 0.69982 0.0
H946 H 0.43058 0.38831 0.69522 0.0
H947 H 0.50985 0.41033 0.76308 0.0
H948 H 0.48027 0.33917 0.85285 0.0
H949 H 0.49874 0.3624 0.78935 0.0
H950 H 0.41239 0.39821 0.76463 0.0
H951 H 0.39385 0.37437 0.82785 0.0
C952 C 0.46393 0.41084 0.66064 0.0
C953 C 0.49237 0.42265 0.66086 0.0
C954 C 0.4522 0.39818 0.69685 0.0
C955 C 0.46871 0.39725 0.73413 0.0
C956 C 0.4968 0.41003 0.73466 0.0
C957 C 0.50854 0.42245 0.69843 0.0
C958 C 0.46529 0.35205 0.83383 0.0
C959 C 0.43568 0.35505 0.84528 0.0
C960 C 0.47586 0.36547 0.79756 0.0
C961 C 0.4571 0.38241 0.7721 0.0
C962 C 0.42735 0.38507 0.7833 0.0
C963 C 0.41673 0.37144 0.81947 0.0
H964 H 0.59634 0.45608 0.62135 0.0
H965 H 0.57311 0.53301 0.69279 0.0
H966 H 0.61436 0.43221 0.68488 0.0
H967 H 0.59169 0.50954 0.7563 0.0
H968 H 0.60019 0.44704 0.86741 0.0
H969 H 0.57953 0.46754 0.80323 0.0
H970 H 0.65624 0.43924 0.7347 0.0
H971 H 0.6772 0.41904 0.7991 0.0
C972 C 0.59475 0.4677 0.65063 0.0
C973 C 0.58304 0.49619 0.65206 0.0
C974 C 0.60539 0.45421 0.68697 0.0
C975 C 0.60439 0.469 0.72557 0.0
C976 C 0.59245 0.49746 0.72708 0.0
C977 C 0.58202 0.51097 0.69067 0.0
C978 C 0.61277 0.44535 0.83873 0.0
C979 C 0.6405 0.43166 0.83848 0.0
C980 C 0.60088 0.45703 0.80198 0.0
C981 C 0.61635 0.45515 0.76405 0.0
C982 C 0.6437 0.44077 0.76345 0.0
C983 C 0.65569 0.42918 0.80031 0.0
H984 H 0.62478 0.46008 0.42592 0.0
H985 H 0.58767 0.52153 0.33694 0.0
H986 H 0.65122 0.43574 0.36918 0.0
H987 H 0.61366 0.49695 0.28039 0.0
H988 H 0.68694 0.46728 0.19564 0.0
H989 H 0.6642 0.49087 0.25604 0.0
H990 H 0.64172 0.40572 0.30651 0.0
H991 H 0.66455 0.38212 0.24611 0.0
C992 C 0.62214 0.4683 0.39427 0.0
C993 C 0.60425 0.49282 0.38594 0.0
C994 C 0.63722 0.4543 0.36179 0.0
C995 C 0.63475 0.46462 0.32041 0.0
C996 C 0.61649 0.48885 0.31208 0.0
C997 C 0.6014 0.50279 0.34446 0.0
C998 C 0.67726 0.45362 0.21976 0.0
C999 C 0.67734 0.42287 0.21603 0.0
C1000 C 0.66418 0.46711 0.25425 0.0
C1001 C 0.65085 0.45015 0.28574 0.0
C1002 C 0.65199 0.41936 0.2829 0.0
C1003 C 0.66512 0.40585 0.24836 0.0
H1004 H 0.45587 0.6485 0.37677 0.0
H1005 H 0.50582 0.56885 0.35723 0.0
H1006 H 0.48102 0.67141 0.31773 0.0
H1007 H 0.53077 0.59176 0.29805 0.0
H1008 H 0.58967 0.65141 0.22051 0.0
H1009 H 0.56626 0.63241 0.28381 0.0
H1010 H 0.48234 0.66475 0.24017 0.0
H1011 H 0.50584 0.68423 0.17727 0.0
C1012 C 0.47221 0.63588 0.3599 0.0
C1013 C 0.47881 0.60683 0.37156 0.0
C1014 C 0.48652 0.64899 0.32603 0.0
C1015 C 0.50787 0.63339 0.30339 0.0
C1016 C 0.51465 0.60443 0.31527 0.0
C1017 C 0.50019 0.59124 0.34894 0.0
C1018 C 0.56633 0.65492 0.22485 0.0
C1019 C 0.54953 0.66922 0.19397 0.0
C1020 C 0.5529 0.64377 0.26081 0.0
C1021 C 0.52247 0.64692 0.26672 0.0
C1022 C 0.50586 0.66214 0.23654 0.0
C1023 C 0.51925 0.67309 0.20044 0.0
H1024 H 0.38514 0.53456 0.41039 0.0
H1025 H 0.41839 0.46012 0.34093 0.0
H1026 H 0.36391 0.55455 0.34618 0.0
H1027 H 0.3967 0.47983 0.27701 0.0
H1028 H 0.38135 0.53967 0.16429 0.0
H1029 H 0.403 0.52061 0.22858 0.0
H1030 H 0.3242 0.54373 0.29639 0.0
H1031 H 0.30247 0.56289 0.23182 0.0
C1032 C 0.38789 0.52244 0.38146 0.0
C1033 C 0.40341 0.49573 0.38075 0.0
C1034 C 0.37556 0.53381 0.34473 0.0
C1035 C 0.37854 0.51872 0.30656 0.0
C1036 C 0.3943 0.49215 0.30584 0.0
C1037 C 0.40663 0.4808 0.34251 0.0
C1038 C 0.36849 0.54037 0.1928 0.0
C1039 C 0.34011 0.55259 0.19292 0.0
C1040 C 0.38093 0.52949 0.22966 0.0
C1041 C 0.3653 0.53059 0.26754 0.0
C1042 C 0.33694 0.54292 0.26777 0.0
C1043 C 0.32448 0.55383 0.23082 0.0
H1044 H 0.45767 0.37691 0.43333 0.0
H1045 H 0.51872 0.41481 0.34486 0.0
H1046 H 0.43327 0.35085 0.37622 0.0
H1047 H 0.49422 0.38896 0.28796 0.0
H1048 H 0.46577 0.31408 0.20425 0.0
H1049 H 0.48881 0.33753 0.26458 0.0
H1050 H 0.40323 0.36096 0.31254 0.0
H1051 H 0.38014 0.33761 0.25199 0.0
C1052 C 0.46576 0.37984 0.40171 0.0
C1053 C 0.4902 0.39784 0.39364 0.0
C1054 C 0.45175 0.36495 0.36903 0.0
C1055 C 0.46203 0.36764 0.32772 0.0
C1056 C 0.48615 0.38603 0.31961 0.0
C1057 C 0.50005 0.40101 0.35218 0.0
C1058 C 0.45188 0.32417 0.22774 0.0
C1059 C 0.42116 0.32421 0.22322 0.0
C1060 C 0.46506 0.33764 0.2622 0.0
C1061 C 0.44782 0.35139 0.29297 0.0
C1062 C 0.41706 0.35038 0.28942 0.0
C1063 C 0.40385 0.33694 0.25483 0.0
loop_
_geom_bond_atom_site_label_1
_geom_bond_atom_site_label_2
_geom_bond_distance
_geom_bond_site_symmetry_2
_ccdc_geom_bond_type
Zn0 O2 1.933 1_556 S
Zn0 O20 1.985 . S
Zn0 O31 1.955 . S
Zn1 O2 1.911 . S
Zn1 O21 1.970 . S
Zn1 O37 1.945 . S
Zn1 O44 1.981 . S
O2 Zn0 1.933 1_554 S
O2 Zn1 1.911 . S
O2 H3 0.841 1_655 S
H3 O2 0.841 1_455 S
C4 O5 1.246 . S
C4 O33 1.276 1_545 S
O5 C4 1.246 . S
Zn6 O8 1.911 . S
Zn6 O23 1.970 . S
Zn6 O40 1.945 . S
Zn6 O47 1.981 . S
Zn7 O8 1.933 1_556 S
Zn7 O22 1.985 . S
Zn7 O29 1.955 . S
O8 Zn6 1.911 . S
O8 Zn7 1.933 1_554 S
O8 H9 0.841 1_455 S
H9 O8 0.841 1_655 S
Zn10 O11 1.933 1_556 S
Zn10 O24 1.985 . S
Zn10 O33 1.955 . S
O11 Zn10 1.933 1_554 S
O11 Zn12 1.911 . S
O11 H13 0.841 1_565 S
Zn12 O11 1.911 . S
Zn12 O25 1.970 . S
Zn12 O41 1.981 . S
Zn12 O43 1.945 . S
H13 O11 0.841 1_545 S
Zn14 O15 1.933 1_556 S
Zn14 O27 1.985 . S
Zn14 O35 1.955 . S
O15 Zn14 1.933 1_554 S
O15 H16 0.841 1_545 S
O15 Zn17 1.911 . S
H16 O15 0.841 1_565 S
Zn17 O15 1.911 . S
Zn17 O28 1.970 . S
Zn17 O38 1.981 . S
Zn17 O46 1.945 . S
C18 O19 1.246 . S
C18 O35 1.276 1_565 S
O19 C18 1.246 . S
O20 Zn0 1.985 . S
O20 C30 1.245 1_556 S
O21 Zn1 1.970 . S
O21 C30 1.263 . S
O22 Zn7 1.985 . S
O22 C34 1.245 1_556 S
O23 Zn6 1.970 . S
O23 C34 1.263 . S
O24 Zn10 1.985 . S
O24 C39 1.245 1_556 S
O25 Zn12 1.970 . S
O25 C39 1.263 . S
C26 O37 1.262 1_455 S
C26 O38 1.245 . S
O27 Zn14 1.985 . S
O27 C45 1.245 1_556 S
O28 Zn17 1.970 . S
O28 C45 1.263 . S
O29 Zn7 1.955 . S
O29 C48 1.276 1_455 S
C30 O20 1.245 1_554 S
C30 O21 1.263 . S
O31 Zn0 1.955 . S
O31 C50 1.276 1_655 S
C32 O40 1.262 1_655 S
C32 O41 1.245 . S
O33 C4 1.276 1_565 S
O33 Zn10 1.955 . S
C34 O22 1.245 1_554 S
C34 O23 1.263 . S
O35 Zn14 1.955 . S
O35 C18 1.276 1_545 S
C36 O43 1.262 1_545 S
C36 O44 1.245 . S
O37 Zn1 1.945 . S
O37 C26 1.262 1_655 S
O38 Zn17 1.981 . S
O38 C26 1.245 . S
C39 O24 1.245 1_554 S
C39 O25 1.263 . S
O40 Zn6 1.945 . S
O40 C32 1.262 1_455 S
O41 Zn12 1.981 . S
O41 C32 1.245 . S
C42 O46 1.262 1_565 S
C42 O47 1.245 . S
O43 Zn12 1.945 . S
O43 C36 1.262 1_565 S
O44 Zn1 1.981 . S
O44 C36 1.245 . S
C45 O27 1.245 1_554 S
C45 O28 1.263 . S
O46 Zn17 1.945 . S
O46 C42 1.262 1_545 S
O47 Zn6 1.981 . S
O47 C42 1.245 . S
C48 O29 1.276 1_655 S
C48 O49 1.246 . S
O49 C48 1.246 . S
C50 O31 1.276 1_455 S
C50 O51 1.246 . S
O51 C50 1.246 . S
Zn52 O54 1.933 . S
Zn52 O72 1.985 . S
Zn52 O83 1.955 . S
Zn53 O54 1.911 . S
Zn53 O73 1.970 . S
Zn53 O89 1.945 . S
Zn53 O96 1.981 . S
O54 Zn52 1.933 . S
O54 Zn53 1.911 . S
O54 H55 0.841 . S
H55 O54 0.841 . S
C56 O57 1.246 . S
C56 O85 1.276 . S
O57 C56 1.246 . S
Zn58 O60 1.911 . S
Zn58 O75 1.970 . S
Zn58 O92 1.945 . S
Zn58 O99 1.981 . S
Zn59 O60 1.933 . S
Zn59 O74 1.985 . S
Zn59 O81 1.955 . S
O60 Zn58 1.911 . S
O60 Zn59 1.933 . S
O60 H61 0.841 . S
H61 O60 0.841 . S
Zn62 O63 1.933 . S
Zn62 O76 1.985 . S
Zn62 O85 1.955 . S
O63 Zn62 1.933 . S
O63 Zn64 1.911 . S
O63 H65 0.841 . S
Zn64 O63 1.911 . S
Zn64 O77 1.970 . S
Zn64 O93 1.981 . S
Zn64 O95 1.945 . S
H65 O63 0.841 . S
Zn66 O67 1.933 . S
Zn66 O79 1.985 . S
Zn66 O87 1.955 . S
O67 Zn66 1.933 . S
O67 H68 0.841 . S
O67 Zn69 1.911 . S
H68 O67 0.841 . S
Zn69 O67 1.911 . S
Zn69 O80 1.970 . S
Zn69 O90 1.981 . S
Zn69 O98 1.945 . S
C70 O71 1.246 . S
C70 O87 1.276 . S
O71 C70 1.246 . S
O72 Zn52 1.985 . S
O72 C82 1.245 . S
O73 Zn53 1.970 . S
O73 C82 1.263 . S
O74 Zn59 1.985 . S
O74 C86 1.245 . S
O75 Zn58 1.970 . S
O75 C86 1.263 . S
O76 Zn62 1.985 . S
O76 C91 1.245 . S
O77 Zn64 1.970 . S
O77 C91 1.263 . S
C78 O89 1.262 . S
C78 O90 1.245 . S
O79 Zn66 1.985 . S
O79 C97 1.245 . S
O80 Zn69 1.970 . S
O80 C97 1.263 . S
O81 Zn59 1.955 . S
O81 C100 1.276 . S
C82 O72 1.245 . S
C82 O73 1.263 . S
O83 Zn52 1.955 . S
O83 C102 1.276 . S
C84 O92 1.262 . S
C84 O93 1.245 . S
O85 C56 1.276 . S
O85 Zn62 1.955 . S
C86 O74 1.245 . S
C86 O75 1.263 . S
O87 Zn66 1.955 . S
O87 C70 1.276 . S
C88 O95 1.262 . S
C88 O96 1.245 . S
O89 Zn53 1.945 . S
O89 C78 1.262 . S
O90 Zn69 1.981 . S
O90 C78 1.245 . S
C91 O76 1.245 . S
C91 O77 1.263 . S
O92 Zn58 1.945 . S
O92 C84 1.262 . S
O93 Zn64 1.981 . S
O93 C84 1.245 . S
C94 O98 1.262 . S
C94 O99 1.245 . S
O95 Zn64 1.945 . S
O95 C88 1.262 . S
O96 Zn53 1.981 . S
O96 C88 1.245 . S
C97 O79 1.245 . S
C97 O80 1.263 . S
O98 Zn69 1.945 . S
O98 C94 1.262 . S
O99 Zn58 1.981 . S
O99 C94 1.245 . S
C100 O81 1.276 . S
C100 O101 1.246 . S
O101 C100 1.246 . S
C102 O83 1.276 . S
C102 O103 1.246 . S
O103 C102 1.246 . S
C104 C105 1.391 . S
C104 C108 1.391 . S
C104 H146 0.948 . S
C105 C104 1.391 . S
C105 C106 1.391 . S
C106 C105 1.391 . S
C106 H162 0.947 . S
C106 C163 1.392 . S
C107 C108 1.391 . S
C107 C111 1.397 . S
C107 C163 1.419 . S
C108 C104 1.391 . S
C108 C107 1.391 . S
C108 C109 1.399 . S
C109 C108 1.399 . S
C109 C112 1.396 . S
C109 C121 1.453 . S
C109 C122 1.684 . S
H110 C134 0.948 . S
C111 C107 1.397 . S
C111 C112 1.394 . S
C111 C130 1.723 1_556 S
C112 C109 1.396 . S
C112 C111 1.394 . S
C112 C142 1.723 1_556 S
H113 C136 0.947 . S
H114 C137 0.948 . S
H115 C143 0.982 . S
H116 C144 0.979 . S
H117 C144 0.980 . S
H118 C144 0.983 . S
H119 C143 0.979 . S
H120 C143 0.977 . S
C121 C109 1.453 . S
C121 H150 0.982 . S
C121 H151 0.979 . S
C121 H152 0.977 . S
C122 C109 1.684 . S
C122 H147 0.979 . S
C122 H148 0.980 . S
C122 H149 0.983 . S
C123 C124 1.391 . S
C123 C128 1.391 . S
C123 H153 0.948 . S
C124 C123 1.391 . S
C124 C125 1.391 . S
C125 C124 1.391 . S
C125 C126 1.392 . S
C125 H154 0.947 . S
C126 C125 1.392 . S
C126 C127 1.419 . S
C126 H155 0.948 . S
C127 C126 1.419 . S
C127 C128 1.391 . S
C127 C131 1.397 . S
C128 C123 1.391 . S
C128 C127 1.391 . S
C128 C129 1.399 . S
C129 C128 1.399 . S
C129 C130 1.396 . S
C129 C132 1.453 . S
C129 C133 1.684 . S
C130 C111 1.723 1_554 S
C130 C129 1.396 . S
C130 C131 1.394 . S
C131 C127 1.397 . S
C131 C130 1.394 . S
C131 C141 1.723 . S
C132 C129 1.453 . S
C132 H156 0.982 . S
C132 H157 0.979 . S
C132 H158 0.977 . S
C133 C129 1.684 . S
C133 H159 0.979 . S
C133 H160 0.980 . S
C133 H161 0.983 . S
C134 H110 0.948 . S
C134 C135 1.391 . S
C134 C139 1.391 . S
C135 C134 1.391 . S
C135 C136 1.391 1_554 S
C136 H113 0.947 . S
C136 C135 1.391 1_556 S
C136 C137 1.392 . S
C137 H114 0.948 . S
C137 C136 1.392 . S
C137 C138 1.419 1_556 S
C138 C137 1.419 1_554 S
C138 C139 1.391 . S
C138 C142 1.397 . S
C139 C134 1.391 . S
C139 C138 1.391 . S
C139 C140 1.399 . S
C140 C139 1.399 . S
C140 C141 1.396 . S
C140 C143 1.453 . S
C140 C144 1.684 . S
C141 C131 1.723 . S
C141 C140 1.396 . S
C141 C142 1.394 . S
C142 C112 1.723 1_554 S
C142 C138 1.397 . S
C142 C141 1.394 . S
C143 H115 0.982 . S
C143 H119 0.979 . S
C143 H120 0.977 . S
C143 C140 1.453 . S
C144 H116 0.979 . S
C144 H117 0.980 . S
C144 H118 0.983 . S
C144 C140 1.684 . S
H145 C163 0.948 . S
H146 C104 0.948 . S
H147 C122 0.979 . S
H148 C122 0.980 . S
H149 C122 0.983 . S
H150 C121 0.982 . S
H151 C121 0.979 . S
H152 C121 0.977 . S
H153 C123 0.948 . S
H154 C125 0.947 . S
H155 C126 0.948 . S
H156 C132 0.982 . S
H157 C132 0.979 . S
H158 C132 0.977 . S
H159 C133 0.979 . S
H160 C133 0.980 . S
H161 C133 0.983 . S
H162 C106 0.947 . S
C163 C106 1.392 . S
C163 C107 1.419 . S
C163 H145 0.948 . S
C164 C165 1.391 . S
C164 C168 1.391 . S
C164 H206 0.948 . S
C165 C164 1.391 . S
C165 C166 1.391 . S
C166 C165 1.391 . S
C166 H222 0.947 . S
C166 C223 1.392 . S
C167 C168 1.391 . S
C167 C171 1.397 . S
C167 C223 1.419 . S
C168 C164 1.391 . S
C168 C167 1.391 . S
C168 C169 1.399 . S
C169 C168 1.399 . S
C169 C172 1.396 . S
C169 C181 1.453 . S
C169 C182 1.684 . S
H170 C194 0.948 . S
C171 C167 1.397 . S
C171 C172 1.394 . S
C171 C190 1.723 1_556 S
C172 C169 1.396 . S
C172 C171 1.394 . S
C172 C202 1.723 1_556 S
H173 C196 0.947 . S
H174 C197 0.948 . S
H175 C203 0.982 . S
H176 C204 0.979 . S
H177 C204 0.980 . S
H178 C204 0.983 . S
H179 C203 0.979 . S
H180 C203 0.977 . S
C181 C169 1.453 . S
C181 H210 0.982 . S
C181 H211 0.979 . S
C181 H212 0.977 . S
C182 C169 1.684 . S
C182 H207 0.979 . S
C182 H208 0.980 . S
C182 H209 0.983 . S
C183 C184 1.391 . S
C183 C188 1.391 . S
C183 H213 0.948 . S
C184 C183 1.391 . S
C184 C185 1.391 . S
C185 C184 1.391 . S
C185 C186 1.392 . S
C185 H214 0.947 . S
C186 C185 1.392 . S
C186 C187 1.419 . S
C186 H215 0.948 . S
C187 C186 1.419 . S
C187 C188 1.391 . S
C187 C191 1.397 . S
C188 C183 1.391 . S
C188 C187 1.391 . S
C188 C189 1.399 . S
C189 C188 1.399 . S
C189 C190 1.396 . S
C189 C192 1.453 . S
C189 C193 1.684 . S
C190 C171 1.723 1_554 S
C190 C189 1.396 . S
C190 C191 1.394 . S
C191 C187 1.397 . S
C191 C190 1.394 . S
C191 C201 1.723 . S
C192 C189 1.453 . S
C192 H216 0.982 . S
C192 H217 0.979 . S
C192 H218 0.977 . S
C193 C189 1.684 . S
C193 H219 0.979 . S
C193 H220 0.980 . S
C193 H221 0.983 . S
C194 H170 0.948 . S
C194 C195 1.391 . S
C194 C199 1.391 . S
C195 C194 1.391 . S
C195 C196 1.391 1_554 S
C196 H173 0.947 . S
C196 C195 1.391 1_556 S
C196 C197 1.392 . S
C197 H174 0.948 . S
C197 C196 1.392 . S
C197 C198 1.419 1_556 S
C198 C197 1.419 1_554 S
C198 C199 1.391 . S
C198 C202 1.397 . S
C199 C194 1.391 . S
C199 C198 1.391 . S
C199 C200 1.399 . S
C200 C199 1.399 . S
C200 C201 1.396 . S
C200 C203 1.453 . S
C200 C204 1.684 . S
C201 C191 1.723 . S
C201 C200 1.396 . S
C201 C202 1.394 . S
C202 C172 1.723 1_554 S
C202 C198 1.397 . S
C202 C201 1.394 . S
C203 H175 0.982 . S
C203 H179 0.979 . S
C203 H180 0.977 . S
C203 C200 1.453 . S
C204 H176 0.979 . S
C204 H177 0.980 . S
C204 H178 0.983 . S
C204 C200 1.684 . S
H205 C223 0.948 . S
H206 C164 0.948 . S
H207 C182 0.979 . S
H208 C182 0.980 . S
H209 C182 0.983 . S
H210 C181 0.982 . S
H211 C181 0.979 . S
H212 C181 0.977 . S
H213 C183 0.948 . S
H214 C185 0.947 . S
H215 C186 0.948 . S
H216 C192 0.982 . S
H217 C192 0.979 . S
H218 C192 0.977 . S
H219 C193 0.979 . S
H220 C193 0.980 . S
H221 C193 0.983 . S
H222 C166 0.947 . S
C223 C166 1.392 . S
C223 C167 1.419 . S
C223 H205 0.948 . S
C224 C225 1.391 . S
C224 C228 1.391 . S
C224 H266 0.948 . S
C225 C224 1.391 . S
C225 C226 1.391 . S
C226 C225 1.391 . S
C226 H282 0.947 . S
C226 C283 1.392 . S
C227 C228 1.391 . S
C227 C231 1.397 . S
C227 C283 1.419 . S
C228 C224 1.391 . S
C228 C227 1.391 . S
C228 C229 1.399 . S
C229 C228 1.399 . S
C229 C232 1.396 . S
C229 C241 1.453 . S
C229 C242 1.684 . S
H230 C254 0.948 . S
C231 C227 1.397 . S
C231 C232 1.394 . S
C231 C250 1.723 . S
C232 C229 1.396 . S
C232 C231 1.394 . S
C232 C262 1.723 . S
H233 C256 0.947 . S
H234 C257 0.948 . S
H235 C263 0.982 . S
H236 C264 0.979 . S
H237 C264 0.980 . S
H238 C264 0.983 . S
H239 C263 0.979 . S
H240 C263 0.977 . S
C241 C229 1.453 . S
C241 H270 0.982 . S
C241 H271 0.979 . S
C241 H272 0.977 . S
C242 C229 1.684 . S
C242 H267 0.979 . S
C242 H268 0.980 . S
C242 H269 0.983 . S
C243 C244 1.391 . S
C243 C248 1.391 . S
C243 H273 0.948 . S
C244 C243 1.391 . S
C244 C245 1.391 . S
C245 C244 1.391 . S
C245 C246 1.392 . S
C245 H274 0.947 . S
C246 C245 1.392 . S
C246 C247 1.419 . S
C246 H275 0.948 . S
C247 C246 1.419 . S
C247 C248 1.391 . S
C247 C251 1.397 . S
C248 C243 1.391 . S
C248 C247 1.391 . S
C248 C249 1.399 . S
C249 C248 1.399 . S
C249 C250 1.396 1_556 S
C249 C252 1.453 . S
C249 C253 1.684 . S
C250 C231 1.723 . S
C250 C249 1.396 1_554 S
C250 C251 1.394 1_554 S
C251 C247 1.397 . S
C251 C250 1.394 1_556 S
C251 C261 1.723 . S
C252 C249 1.453 . S
C252 H276 0.982 . S
C252 H277 0.979 . S
C252 H278 0.977 1_556 S
C253 C249 1.684 . S
C253 H279 0.979 . S
C253 H280 0.980 1_556 S
C253 H281 0.983 . S
C254 H230 0.948 . S
C254 C255 1.391 1_556 S
C254 C259 1.391 . S
C255 C254 1.391 1_554 S
C255 C256 1.391 . S
C256 H233 0.947 . S
C256 C255 1.391 . S
C256 C257 1.392 . S
C257 H234 0.948 . S
C257 C256 1.392 . S
C257 C258 1.419 . S
C258 C257 1.419 . S
C258 C259 1.391 1_554 S
C258 C262 1.397 . S
C259 C254 1.391 . S
C259 C258 1.391 1_556 S
C259 C260 1.399 . S
C260 C259 1.399 . S
C260 C261 1.396 . S
C260 C263 1.453 . S
C260 C264 1.684 . S
C261 C251 1.723 . S
C261 C260 1.396 . S
C261 C262 1.394 1_556 S
C262 C232 1.723 . S
C262 C258 1.397 . S
C262 C261 1.394 1_554 S
C263 H235 0.982 . S
C263 H239 0.979 . S
C263 H240 0.977 . S
C263 C260 1.453 . S
C264 H236 0.979 . S
C264 H237 0.980 . S
C264 H238 0.983 . S
C264 C260 1.684 . S
H265 C283 0.948 . S
H266 C224 0.948 . S
H267 C242 0.979 . S
H268 C242 0.980 . S
H269 C242 0.983 . S
H270 C241 0.982 . S
H271 C241 0.979 . S
H272 C241 0.977 . S
H273 C243 0.948 . S
H274 C245 0.947 . S
H275 C246 0.948 . S
H276 C252 0.982 . S
H277 C252 0.979 . S
H278 C252 0.977 1_554 S
H279 C253 0.979 . S
H280 C253 0.980 1_554 S
H281 C253 0.983 . S
H282 C226 0.947 . S
C283 C226 1.392 . S
C283 C227 1.419 . S
C283 H265 0.948 . S
C284 C285 1.391 . S
C284 C288 1.391 . S
C284 H326 0.948 . S
C285 C284 1.391 . S
C285 C286 1.391 . S
C286 C285 1.391 . S
C286 H342 0.947 . S
C286 C343 1.392 . S
C287 C288 1.391 . S
C287 C291 1.397 . S
C287 C343 1.419 . S
C288 C284 1.391 . S
C288 C287 1.391 . S
C288 C289 1.399 . S
C289 C288 1.399 . S
C289 C292 1.396 . S
C289 C301 1.453 . S
C289 C302 1.684 . S
H290 C314 0.948 . S
C291 C287 1.397 . S
C291 C292 1.394 . S
C291 C310 1.723 . S
C292 C289 1.396 . S
C292 C291 1.394 . S
C292 C322 1.723 . S
H293 C316 0.947 . S
H294 C317 0.948 . S
H295 C323 0.982 . S
H296 C324 0.979 . S
H297 C324 0.980 . S
H298 C324 0.983 . S
H299 C323 0.979 . S
H300 C323 0.977 . S
C301 C289 1.453 . S
C301 H330 0.982 . S
C301 H331 0.979 . S
C301 H332 0.977 . S
C302 C289 1.684 . S
C302 H327 0.979 . S
C302 H328 0.980 . S
C302 H329 0.983 . S
C303 C304 1.391 . S
C303 C308 1.391 . S
C303 H333 0.948 . S
C304 C303 1.391 . S
C304 C305 1.391 . S
C305 C304 1.391 . S
C305 C306 1.392 . S
C305 H334 0.947 . S
C306 C305 1.392 . S
C306 C307 1.419 . S
C306 H335 0.948 . S
C307 C306 1.419 . S
C307 C308 1.391 . S
C307 C311 1.397 . S
C308 C303 1.391 . S
C308 C307 1.391 . S
C308 C309 1.399 . S
C309 C308 1.399 . S
C309 C310 1.396 1_556 S
C309 C312 1.453 . S
C309 C313 1.684 . S
C310 C291 1.723 . S
C310 C309 1.396 1_554 S
C310 C311 1.394 1_554 S
C311 C307 1.397 . S
C311 C310 1.394 1_556 S
C311 C321 1.723 . S
C312 C309 1.453 . S
C312 H336 0.982 . S
C312 H337 0.979 . S
C312 H338 0.977 1_556 S
C313 C309 1.684 . S
C313 H339 0.979 . S
C313 H340 0.980 1_556 S
C313 H341 0.983 . S
C314 H290 0.948 . S
C314 C315 1.391 1_556 S
C314 C319 1.391 . S
C315 C314 1.391 1_554 S
C315 C316 1.391 . S
C316 H293 0.947 . S
C316 C315 1.391 . S
C316 C317 1.392 . S
C317 H294 0.948 . S
C317 C316 1.392 . S
C317 C318 1.419 . S
C318 C317 1.419 . S
C318 C319 1.391 1_554 S
C318 C322 1.397 . S
C319 C314 1.391 . S
C319 C318 1.391 1_556 S
C319 C320 1.399 . S
C320 C319 1.399 . S
C320 C321 1.396 . S
C320 C323 1.453 . S
C320 C324 1.684 . S
C321 C311 1.723 . S
C321 C320 1.396 . S
C321 C322 1.394 1_556 S
C322 C292 1.723 . S
C322 C318 1.397 . S
C322 C321 1.394 1_554 S
C323 H295 0.982 . S
C323 H299 0.979 . S
C323 H300 0.977 . S
C323 C320 1.453 . S
C324 H296 0.979 . S
C324 H297 0.980 . S
C324 H298 0.983 . S
C324 C320 1.684 . S
H325 C343 0.948 . S
H326 C284 0.948 . S
H327 C302 0.979 . S
H328 C302 0.980 . S
H329 C302 0.983 . S
H330 C301 0.982 . S
H331 C301 0.979 . S
H332 C301 0.977 . S
H333 C303 0.948 . S
H334 C305 0.947 . S
H335 C306 0.948 . S
H336 C312 0.982 . S
H337 C312 0.979 . S
H338 C312 0.977 1_554 S
H339 C313 0.979 . S
H340 C313 0.980 1_554 S
H341 C313 0.983 . S
H342 C286 0.947 . S
C343 C286 1.392 . S
C343 C287 1.419 . S
C343 H325 0.948 . S
C344 C345 1.391 . S
C344 C348 1.391 . S
C344 H386 0.948 . S
C345 C344 1.391 . S
C345 C346 1.391 . S
C346 C345 1.391 . S
C346 H402 0.947 . S
C346 C403 1.392 . S
C347 C348 1.391 . S
C347 C351 1.397 . S
C347 C403 1.419 . S
C348 C344 1.391 . S
C348 C347 1.391 . S
C348 C349 1.399 . S
C349 C348 1.399 . S
C349 C352 1.396 . S
C349 C361 1.453 . S
C349 C362 1.684 . S
H350 C374 0.948 . S
C351 C347 1.397 . S
C351 C352 1.394 . S
C351 C370 1.723 . S
C352 C349 1.396 . S
C352 C351 1.394 . S
C352 C382 1.723 . S
H353 C376 0.947 . S
H354 C377 0.948 . S
H355 C383 0.982 . S
H356 C384 0.979 . S
H357 C384 0.980 . S
H358 C384 0.983 . S
H359 C383 0.979 . S
H360 C383 0.977 . S
C361 C349 1.453 . S
C361 H390 0.982 . S
C361 H391 0.979 . S
C361 H392 0.977 . S
C362 C349 1.684 . S
C362 H387 0.979 . S
C362 H388 0.980 . S
C362 H389 0.983 . S
C363 C364 1.391 . S
C363 C368 1.391 . S
C363 H393 0.948 . S
C364 C363 1.391 . S
C364 C365 1.391 . S
C365 C364 1.391 . S
C365 C366 1.392 . S
C365 H394 0.947 . S
C366 C365 1.392 . S
C366 C367 1.419 . S
C366 H395 0.948 . S
C367 C366 1.419 . S
C367 C368 1.391 . S
C367 C371 1.397 . S
C368 C363 1.391 . S
C368 C367 1.391 . S
C368 C369 1.399 . S
C369 C368 1.399 . S
C369 C370 1.396 . S
C369 C372 1.453 . S
C369 C373 1.684 . S
C370 C351 1.723 . S
C370 C369 1.396 . S
C370 C371 1.394 . S
C371 C367 1.397 . S
C371 C370 1.394 . S
C371 C381 1.723 . S
C372 C369 1.453 . S
C372 H396 0.982 . S
C372 H397 0.979 . S
C372 H398 0.977 . S
C373 C369 1.684 . S
C373 H399 0.979 . S
C373 H400 0.980 . S
C373 H401 0.983 . S
C374 H350 0.948 . S
C374 C375 1.391 . S
C374 C379 1.391 . S
C375 C374 1.391 . S
C375 C376 1.391 . S
C376 H353 0.947 . S
C376 C375 1.391 . S
C376 C377 1.392 . S
C377 H354 0.948 . S
C377 C376 1.392 . S
C377 C378 1.419 . S
C378 C377 1.419 . S
C378 C379 1.391 . S
C378 C382 1.397 . S
C379 C374 1.391 . S
C379 C378 1.391 . S
C379 C380 1.399 . S
C380 C379 1.399 . S
C380 C381 1.396 . S
C380 C383 1.453 . S
C380 C384 1.684 . S
C381 C371 1.723 . S
C381 C380 1.396 . S
C381 C382 1.394 . S
C382 C352 1.723 . S
C382 C378 1.397 . S
C382 C381 1.394 . S
C383 H355 0.982 . S
C383 H359 0.979 . S
C383 H360 0.977 . S
C383 C380 1.453 . S
C384 H356 0.979 . S
C384 H357 0.980 . S
C384 H358 0.983 . S
C384 C380 1.684 . S
H385 C403 0.948 . S
H386 C344 0.948 . S
H387 C362 0.979 . S
H388 C362 0.980 . S
H389 C362 0.983 . S
H390 C361 0.982 . S
H391 C361 0.979 . S
H392 C361 0.977 . S
H393 C363 0.948 . S
H394 C365 0.947 . S
H395 C366 0.948 . S
H396 C372 0.982 . S
H397 C372 0.979 . S
H398 C372 0.977 . S
H399 C373 0.979 . S
H400 C373 0.980 . S
H401 C373 0.983 . S
H402 C346 0.947 . S
C403 C346 1.392 . S
C403 C347 1.419 . S
C403 H385 0.948 . S
C404 C405 1.391 . S
C404 C408 1.391 . S
C404 H446 0.948 . S
C405 C404 1.391 . S
C405 C406 1.391 . S
C406 C405 1.391 . S
C406 H462 0.947 . S
C406 C463 1.392 . S
C407 C408 1.391 . S
C407 C411 1.397 . S
C407 C463 1.419 . S
C408 C404 1.391 . S
C408 C407 1.391 . S
C408 C409 1.399 . S
C409 C408 1.399 . S
C409 C412 1.396 . S
C409 C421 1.453 . S
C409 C422 1.684 . S
H410 C434 0.948 . S
C411 C407 1.397 . S
C411 C412 1.394 . S
C411 C430 1.723 . S
C412 C409 1.396 . S
C412 C411 1.394 . S
C412 C442 1.723 . S
H413 C436 0.947 . S
H414 C437 0.948 . S
H415 C443 0.982 . S
H416 C444 0.979 . S
H417 C444 0.980 . S
H418 C444 0.983 . S
H419 C443 0.979 . S
H420 C443 0.977 . S
C421 C409 1.453 . S
C421 H450 0.982 . S
C421 H451 0.979 . S
C421 H452 0.977 . S
C422 C409 1.684 . S
C422 H447 0.979 . S
C422 H448 0.980 . S
C422 H449 0.983 . S
C423 C424 1.391 . S
C423 C428 1.391 . S
C423 H453 0.948 . S
C424 C423 1.391 . S
C424 C425 1.391 . S
C425 C424 1.391 . S
C425 C426 1.392 . S
C425 H454 0.947 . S
C426 C425 1.392 . S
C426 C427 1.419 . S
C426 H455 0.948 . S
C427 C426 1.419 . S
C427 C428 1.391 . S
C427 C431 1.397 . S
C428 C423 1.391 . S
C428 C427 1.391 . S
C428 C429 1.399 . S
C429 C428 1.399 . S
C429 C430 1.396 . S
C429 C432 1.453 . S
C429 C433 1.684 . S
C430 C411 1.723 . S
C430 C429 1.396 . S
C430 C431 1.394 . S
C431 C427 1.397 . S
C431 C430 1.394 . S
C431 C441 1.723 . S
C432 C429 1.453 . S
C432 H456 0.982 . S
C432 H457 0.979 . S
C432 H458 0.977 . S
C433 C429 1.684 . S
C433 H459 0.979 . S
C433 H460 0.980 . S
C433 H461 0.983 . S
C434 H410 0.948 . S
C434 C435 1.391 . S
C434 C439 1.391 . S
C435 C434 1.391 . S
C435 C436 1.391 . S
C436 H413 0.947 . S
C436 C435 1.391 . S
C436 C437 1.392 . S
C437 H414 0.948 . S
C437 C436 1.392 . S
C437 C438 1.419 . S
C438 C437 1.419 . S
C438 C439 1.391 . S
C438 C442 1.397 . S
C439 C434 1.391 . S
C439 C438 1.391 . S
C439 C440 1.399 . S
C440 C439 1.399 . S
C440 C441 1.396 . S
C440 C443 1.453 . S
C440 C444 1.684 . S
C441 C431 1.723 . S
C441 C440 1.396 . S
C441 C442 1.394 . S
C442 C412 1.723 . S
C442 C438 1.397 . S
C442 C441 1.394 . S
C443 H415 0.982 . S
C443 H419 0.979 . S
C443 H420 0.977 . S
C443 C440 1.453 . S
C444 H416 0.979 . S
C444 H417 0.980 . S
C444 H418 0.983 . S
C444 C440 1.684 . S
H445 C463 0.948 . S
H446 C404 0.948 . S
H447 C422 0.979 . S
H448 C422 0.980 . S
H449 C422 0.983 . S
H450 C421 0.982 . S
H451 C421 0.979 . S
H452 C421 0.977 . S
H453 C423 0.948 . S
H454 C425 0.947 . S
H455 C426 0.948 . S
H456 C432 0.982 . S
H457 C432 0.979 . S
H458 C432 0.977 . S
H459 C433 0.979 . S
H460 C433 0.980 . S
H461 C433 0.983 . S
H462 C406 0.947 . S
C463 C406 1.392 . S
C463 C407 1.419 . S
C463 H445 0.948 . S
C464 C465 1.391 . S
C464 C468 1.391 . S
C464 H506 0.948 . S
C465 C464 1.391 . S
C465 C466 1.391 . S
C466 C465 1.391 . S
C466 H522 0.947 . S
C466 C523 1.392 . S
C467 C468 1.391 . S
C467 C471 1.397 . S
C467 C523 1.419 . S
C468 C464 1.391 . S
C468 C467 1.391 . S
C468 C469 1.399 . S
C469 C468 1.399 . S
C469 C472 1.396 . S
C469 C481 1.453 . S
C469 C482 1.684 . S
H470 C494 0.948 . S
C471 C467 1.397 . S
C471 C472 1.394 . S
C471 C490 1.723 . S
C472 C469 1.396 . S
C472 C471 1.394 . S
C472 C502 1.723 . S
H473 C496 0.947 . S
H474 C497 0.948 . S
H475 C503 0.982 . S
H476 C504 0.979 . S
H477 C504 0.980 . S
H478 C504 0.983 . S
H479 C503 0.979 . S
H480 C503 0.977 . S
C481 C469 1.453 . S
C481 H510 0.982 . S
C481 H511 0.979 . S
C481 H512 0.977 . S
C482 C469 1.684 . S
C482 H507 0.979 . S
C482 H508 0.980 . S
C482 H509 0.983 . S
C483 C484 1.391 . S
C483 C488 1.391 . S
C483 H513 0.948 . S
C484 C483 1.391 . S
C484 C485 1.391 . S
C485 C484 1.391 . S
C485 C486 1.392 . S
C485 H514 0.947 . S
C486 C485 1.392 . S
C486 C487 1.419 . S
C486 H515 0.948 . S
C487 C486 1.419 . S
C487 C488 1.391 . S
C487 C491 1.397 . S
C488 C483 1.391 . S
C488 C487 1.391 . S
C488 C489 1.399 . S
C489 C488 1.399 . S
C489 C490 1.396 . S
C489 C492 1.453 . S
C489 C493 1.684 . S
C490 C471 1.723 . S
C490 C489 1.396 . S
C490 C491 1.394 . S
C491 C487 1.397 . S
C491 C490 1.394 . S
C491 C501 1.723 . S
C492 C489 1.453 . S
C492 H516 0.982 . S
C492 H517 0.979 . S
C492 H518 0.977 . S
C493 C489 1.684 . S
C493 H519 0.979 . S
C493 H520 0.980 . S
C493 H521 0.983 . S
C494 H470 0.948 . S
C494 C495 1.391 . S
C494 C499 1.391 . S
C495 C494 1.391 . S
C495 C496 1.391 . S
C496 H473 0.947 . S
C496 C495 1.391 . S
C496 C497 1.392 . S
C497 H474 0.948 . S
C497 C496 1.392 . S
C497 C498 1.419 . S
C498 C497 1.419 . S
C498 C499 1.391 . S
C498 C502 1.397 . S
C499 C494 1.391 . S
C499 C498 1.391 . S
C499 C500 1.399 . S
C500 C499 1.399 . S
C500 C501 1.396 . S
C500 C503 1.453 . S
C500 C504 1.684 . S
C501 C491 1.723 . S
C501 C500 1.396 . S
C501 C502 1.394 . S
C502 C472 1.723 . S
C502 C498 1.397 . S
C502 C501 1.394 . S
C503 H475 0.982 . S
C503 H479 0.979 . S
C503 H480 0.977 . S
C503 C500 1.453 . S
C504 H476 0.979 . S
C504 H477 0.980 . S
C504 H478 0.983 . S
C504 C500 1.684 . S
H505 C523 0.948 . S
H506 C464 0.948 . S
H507 C482 0.979 . S
H508 C482 0.980 . S
H509 C482 0.983 . S
H510 C481 0.982 . S
H511 C481 0.979 . S
H512 C481 0.977 . S
H513 C483 0.948 . S
H514 C485 0.947 . S
H515 C486 0.948 . S
H516 C492 0.982 . S
H517 C492 0.979 . S
H518 C492 0.977 . S
H519 C493 0.979 . S
H520 C493 0.980 . S
H521 C493 0.983 . S
H522 C466 0.947 . S
C523 C466 1.392 . S
C523 C467 1.419 . S
C523 H505 0.948 . S
C524 C525 1.391 . S
C524 C528 1.391 . S
C524 H566 0.948 . S
C525 C524 1.391 . S
C525 C526 1.391 . S
C526 C525 1.391 . S
C526 H582 0.947 . S
C526 C583 1.392 . S
C527 C528 1.391 . S
C527 C531 1.397 . S
C527 C583 1.419 . S
C528 C524 1.391 . S
C528 C527 1.391 . S
C528 C529 1.399 . S
C529 C528 1.399 . S
C529 C532 1.396 . S
C529 C541 1.453 . S
C529 C542 1.684 . S
H530 C554 0.948 . S
C531 C527 1.397 . S
C531 C532 1.394 . S
C531 C550 1.723 . S
C532 C529 1.396 . S
C532 C531 1.394 . S
C532 C562 1.723 . S
H533 C556 0.947 . S
H534 C557 0.948 . S
H535 C563 0.982 . S
H536 C564 0.979 . S
H537 C564 0.980 . S
H538 C564 0.983 . S
H539 C563 0.979 . S
H540 C563 0.977 . S
C541 C529 1.453 . S
C541 H570 0.982 . S
C541 H571 0.979 . S
C541 H572 0.977 . S
C542 C529 1.684 . S
C542 H567 0.979 . S
C542 H568 0.980 . S
C542 H569 0.983 . S
C543 C544 1.391 . S
C543 C548 1.391 . S
C543 H573 0.948 . S
C544 C543 1.391 . S
C544 C545 1.391 . S
C545 C544 1.391 . S
C545 C546 1.392 . S
C545 H574 0.947 . S
C546 C545 1.392 . S
C546 C547 1.419 . S
C546 H575 0.948 . S
C547 C546 1.419 . S
C547 C548 1.391 . S
C547 C551 1.397 . S
C548 C543 1.391 . S
C548 C547 1.391 . S
C548 C549 1.399 . S
C549 C548 1.399 . S
C549 C550 1.396 . S
C549 C552 1.453 . S
C549 C553 1.684 . S
C550 C531 1.723 . S
C550 C549 1.396 . S
C550 C551 1.394 . S
C551 C547 1.397 . S
C551 C550 1.394 . S
C551 C561 1.723 . S
C552 C549 1.453 . S
C552 H576 0.982 . S
C552 H577 0.979 . S
C552 H578 0.977 . S
C553 C549 1.684 . S
C553 H579 0.979 . S
C553 H580 0.980 . S
C553 H581 0.983 . S
C554 H530 0.948 . S
C554 C555 1.391 . S
C554 C559 1.391 . S
C555 C554 1.391 . S
C555 C556 1.391 . S
C556 H533 0.947 . S
C556 C555 1.391 . S
C556 C557 1.392 . S
C557 H534 0.948 . S
C557 C556 1.392 . S
C557 C558 1.419 . S
C558 C557 1.419 . S
C558 C559 1.391 . S
C558 C562 1.397 . S
C559 C554 1.391 . S
C559 C558 1.391 . S
C559 C560 1.399 . S
C560 C559 1.399 . S
C560 C561 1.396 . S
C560 C563 1.453 . S
C560 C564 1.684 . S
C561 C551 1.723 . S
C561 C560 1.396 . S
C561 C562 1.394 . S
C562 C532 1.723 . S
C562 C558 1.397 . S
C562 C561 1.394 . S
C563 H535 0.982 . S
C563 H539 0.979 . S
C563 H540 0.977 . S
C563 C560 1.453 . S
C564 H536 0.979 . S
C564 H537 0.980 . S
C564 H538 0.983 . S
C564 C560 1.684 . S
H565 C583 0.948 . S
H566 C524 0.948 . S
H567 C542 0.979 . S
H568 C542 0.980 . S
H569 C542 0.983 . S
H570 C541 0.982 . S
H571 C541 0.979 . S
H572 C541 0.977 . S
H573 C543 0.948 . S
H574 C545 0.947 . S
H575 C546 0.948 . S
H576 C552 0.982 . S
H577 C552 0.979 . S
H578 C552 0.977 . S
H579 C553 0.979 . S
H580 C553 0.980 . S
H581 C553 0.983 . S
H582 C526 0.947 . S
C583 C526 1.392 . S
C583 C527 1.419 . S
C583 H565 0.948 . S
H584 C592 0.937 1_556 S
H585 C597 0.950 . S
H586 C594 0.950 1_556 S
H587 C596 0.950 . S
H588 C598 0.950 . S
H589 C600 0.950 . S
H590 C602 0.950 1_556 S
H591 C603 0.950 1_556 S
C592 H584 0.937 1_554 S
C592 C593 1.399 . S
C592 C594 1.392 . S
C593 C592 1.399 . S
C593 C597 1.393 . S
C594 H586 0.950 1_554 S
C594 C592 1.392 . S
C594 C595 1.400 . S
C595 C594 1.400 . S
C595 C596 1.398 . S
C595 C601 1.491 . S
C596 H587 0.950 . S
C596 C595 1.398 . S
C596 C597 1.391 . S
C597 H585 0.950 . S
C597 C593 1.393 . S
C597 C596 1.391 . S
C598 H588 0.950 . S
C598 C599 1.386 . S
C598 C600 1.391 . S
C599 C598 1.386 . S
C599 C603 1.393 . S
C600 H589 0.950 . S
C600 C598 1.391 . S
C600 C601 1.400 . S
C601 C595 1.491 . S
C601 C600 1.400 . S
C601 C602 1.398 . S
C602 H590 0.950 1_554 S
C602 C601 1.398 . S
C602 C603 1.391 . S
C603 H591 0.950 1_554 S
C603 C599 1.393 . S
C603 C602 1.391 . S
H604 C612 0.950 . S
H605 C617 0.950 . S
H606 C614 0.950 . S
H607 C616 0.950 . S
H608 C618 0.950 . S
H609 C620 0.950 . S
H610 C622 0.950 . S
H611 C623 0.950 . S
C612 H604 0.950 . S
C612 C613 1.386 1_556 S
C612 C614 1.391 . S
C613 C612 1.386 1_554 S
C613 C617 1.393 . S
C614 H606 0.950 . S
C614 C612 1.391 . S
C614 C615 1.400 1_556 S
C615 C614 1.400 1_554 S
C615 C616 1.398 . S
C615 C621 1.491 . S
C616 H607 0.950 . S
C616 C615 1.398 . S
C616 C617 1.391 . S
C617 H605 0.950 . S
C617 C613 1.393 . S
C617 C616 1.391 . S
C618 H608 0.950 . S
C618 C619 1.386 . S
C618 C620 1.391 . S
C619 C618 1.386 . S
C619 C623 1.393 1_554 S
C620 H609 0.950 . S
C620 C618 1.391 . S
C620 C621 1.400 . S
C621 C615 1.491 . S
C621 C620 1.400 . S
C621 C622 1.398 1_554 S
C622 H610 0.950 . S
C622 C621 1.398 1_556 S
C622 C623 1.391 . S
C623 H611 0.950 . S
C623 C619 1.393 1_556 S
C623 C622 1.391 . S
H624 C632 0.950 . S
H625 C637 0.950 . S
H626 C634 0.950 . S
H627 C636 0.950 . S
H628 C638 0.950 . S
H629 C640 0.950 . S
H630 C642 0.950 . S
H631 C643 0.950 . S
C632 H624 0.950 . S
C632 C633 1.386 . S
C632 C634 1.391 . S
C633 C632 1.386 . S
C633 C637 1.393 . S
C634 H626 0.950 . S
C634 C632 1.391 . S
C634 C635 1.400 . S
C635 C634 1.400 . S
C635 C636 1.398 . S
C635 C641 1.491 . S
C636 H627 0.950 . S
C636 C635 1.398 . S
C636 C637 1.391 . S
C637 H625 0.950 . S
C637 C633 1.393 . S
C637 C636 1.391 . S
C638 H628 0.950 . S
C638 C639 1.386 . S
C638 C640 1.391 . S
C639 C638 1.386 . S
C639 C643 1.393 . S
C640 H629 0.950 . S
C640 C638 1.391 . S
C640 C641 1.400 . S
C641 C635 1.491 . S
C641 C640 1.400 . S
C641 C642 1.398 . S
C642 H630 0.950 . S
C642 C641 1.398 . S
C642 C643 1.391 . S
C643 H631 0.950 . S
C643 C639 1.393 . S
C643 C642 1.391 . S
H644 C652 0.950 . S
H645 C657 0.950 . S
H646 C654 0.950 . S
H647 C656 0.950 . S
H648 C658 0.950 . S
H649 C660 0.950 . S
H650 C662 0.950 . S
H651 C663 0.950 . S
C652 H644 0.950 . S
C652 C653 1.386 . S
C652 C654 1.391 . S
C653 C652 1.386 . S
C653 C657 1.393 1_554 S
C654 H646 0.950 . S
C654 C652 1.391 . S
C654 C655 1.400 . S
C655 C654 1.400 . S
C655 C656 1.398 1_554 S
C655 C661 1.491 . S
C656 H647 0.950 . S
C656 C655 1.398 1_556 S
C656 C657 1.391 . S
C657 H645 0.950 . S
C657 C653 1.393 1_556 S
C657 C656 1.391 . S
C658 H648 0.950 . S
C658 C659 1.386 1_556 S
C658 C660 1.391 . S
C659 C658 1.386 1_554 S
C659 C663 1.393 . S
C660 H649 0.950 . S
C660 C658 1.391 . S
C660 C661 1.400 1_556 S
C661 C655 1.491 . S
C661 C660 1.400 1_554 S
C661 C662 1.398 . S
C662 H650 0.950 . S
C662 C661 1.398 . S
C662 C663 1.391 . S
C663 H651 0.950 . S
C663 C659 1.393 . S
C663 C662 1.391 . S
H664 C672 0.950 . S
H665 C677 0.950 . S
H666 C674 0.950 . S
H667 C676 0.950 . S
H668 C678 0.950 . S
H669 C680 0.950 . S
H670 C682 0.950 . S
H671 C683 0.950 . S
C672 H664 0.950 . S
C672 C673 1.386 . S
C672 C674 1.391 . S
C673 C672 1.386 . S
C673 C677 1.393 . S
C674 H666 0.950 . S
C674 C672 1.391 . S
C674 C675 1.400 . S
C675 C674 1.400 . S
C675 C676 1.398 . S
C675 C681 1.491 . S
C676 H667 0.950 . S
C676 C675 1.398 . S
C676 C677 1.391 . S
C677 H665 0.950 . S
C677 C673 1.393 . S
C677 C676 1.391 . S
C678 H668 0.950 . S
C678 C679 1.386 . S
C678 C680 1.391 . S
C679 C678 1.386 . S
C679 C683 1.393 . S
C680 H669 0.950 . S
C680 C678 1.391 . S
C680 C681 1.400 . S
C681 C675 1.491 . S
C681 C680 1.400 . S
C681 C682 1.398 . S
C682 H670 0.950 . S
C682 C681 1.398 . S
C682 C683 1.391 . S
C683 H671 0.950 . S
C683 C679 1.393 . S
C683 C682 1.391 . S
H684 C692 0.950 . S
H685 C697 0.950 . S
H686 C694 0.950 . S
H687 C696 0.950 . S
H688 C698 0.950 . S
H689 C700 0.950 . S
H690 C702 0.950 . S
H691 C703 0.950 . S
C692 H684 0.950 . S
C692 C693 1.386 . S
C692 C694 1.391 . S
C693 C692 1.386 . S
C693 C697 1.393 . S
C694 H686 0.950 . S
C694 C692 1.391 . S
C694 C695 1.400 . S
C695 C694 1.400 . S
C695 C696 1.398 . S
C695 C701 1.491 . S
C696 H687 0.950 . S
C696 C695 1.398 . S
C696 C697 1.391 . S
C697 H685 0.950 . S
C697 C693 1.393 . S
C697 C696 1.391 . S
C698 H688 0.950 . S
C698 C699 1.386 . S
C698 C700 1.391 . S
C699 C698 1.386 . S
C699 C703 1.393 . S
C700 H689 0.950 . S
C700 C698 1.391 . S
C700 C701 1.400 . S
C701 C695 1.491 . S
C701 C700 1.400 . S
C701 C702 1.398 . S
C702 H690 0.950 . S
C702 C701 1.398 . S
C702 C703 1.391 . S
C703 H691 0.950 . S
C703 C699 1.393 . S
C703 C702 1.391 . S
H704 C712 0.950 . S
H705 C717 0.950 . S
H706 C714 0.950 . S
H707 C716 0.950 . S
H708 C718 0.950 . S
H709 C720 0.950 . S
H710 C722 0.950 . S
H711 C723 0.950 . S
C712 H704 0.950 . S
C712 C713 1.386 . S
C712 C714 1.391 . S
C713 C712 1.386 . S
C713 C717 1.393 . S
C714 H706 0.950 . S
C714 C712 1.391 . S
C714 C715 1.400 . S
C715 C714 1.400 . S
C715 C716 1.398 . S
C715 C721 1.491 . S
C716 H707 0.950 . S
C716 C715 1.398 . S
C716 C717 1.391 . S
C717 H705 0.950 . S
C717 C713 1.393 . S
C717 C716 1.391 . S
C718 H708 0.950 . S
C718 C719 1.386 . S
C718 C720 1.391 . S
C719 C718 1.386 . S
C719 C723 1.393 . S
C720 H709 0.950 . S
C720 C718 1.391 . S
C720 C721 1.400 . S
C721 C715 1.491 . S
C721 C720 1.400 . S
C721 C722 1.398 . S
C722 H710 0.950 . S
C722 C721 1.398 . S
C722 C723 1.391 . S
C723 H711 0.950 . S
C723 C719 1.393 . S
C723 C722 1.391 . S
H724 C732 0.950 . S
H725 C737 0.950 . S
H726 C734 0.950 . S
H727 C736 0.950 . S
H728 C738 0.950 . S
H729 C740 0.950 . S
H730 C742 0.950 . S
H731 C743 0.950 . S
C732 H724 0.950 . S
C732 C733 1.386 . S
C732 C734 1.391 . S
C733 C732 1.386 . S
C733 C737 1.393 . S
C734 H726 0.950 . S
C734 C732 1.391 . S
C734 C735 1.400 . S
C735 C734 1.400 . S
C735 C736 1.398 . S
C735 C741 1.491 . S
C736 H727 0.950 . S
C736 C735 1.398 . S
C736 C737 1.391 . S
C737 H725 0.950 . S
C737 C733 1.393 . S
C737 C736 1.391 . S
C738 H728 0.950 . S
C738 C739 1.386 . S
C738 C740 1.391 . S
C739 C738 1.386 . S
C739 C743 1.393 . S
C740 H729 0.950 . S
C740 C738 1.391 . S
C740 C741 1.400 . S
C741 C735 1.491 . S
C741 C740 1.400 . S
C741 C742 1.398 . S
C742 H730 0.950 . S
C742 C741 1.398 . S
C742 C743 1.391 . S
C743 H731 0.950 . S
C743 C739 1.393 . S
C743 C742 1.391 . S
H744 C752 0.950 . S
H745 C757 0.950 . S
H746 C754 0.950 . S
H747 C756 0.950 . S
H748 C758 0.950 . S
H749 C760 0.950 . S
H750 C762 0.950 . S
H751 C763 0.950 . S
C752 H744 0.950 . S
C752 C753 1.386 . S
C752 C754 1.391 . S
C753 C752 1.386 . S
C753 C757 1.393 . S
C754 H746 0.950 . S
C754 C752 1.391 . S
C754 C755 1.400 . S
C755 C754 1.400 . S
C755 C756 1.398 . S
C755 C761 1.491 . S
C756 H747 0.950 . S
C756 C755 1.398 . S
C756 C757 1.391 . S
C757 H745 0.950 . S
C757 C753 1.393 . S
C757 C756 1.391 . S
C758 H748 0.950 . S
C758 C759 1.386 . S
C758 C760 1.391 . S
C759 C758 1.386 . S
C759 C763 1.393 . S
C760 H749 0.950 . S
C760 C758 1.391 . S
C760 C761 1.400 . S
C761 C755 1.491 . S
C761 C760 1.400 . S
C761 C762 1.398 . S
C762 H750 0.950 . S
C762 C761 1.398 . S
C762 C763 1.391 . S
C763 H751 0.950 . S
C763 C759 1.393 . S
C763 C762 1.391 . S
H764 C772 0.950 . S
H765 C777 0.950 . S
H766 C774 0.950 . S
H767 C776 0.950 . S
H768 C778 0.950 . S
H769 C780 0.950 . S
H770 C782 0.950 . S
H771 C783 0.950 . S
C772 H764 0.950 . S
C772 C773 1.386 . S
C772 C774 1.391 . S
C773 C772 1.386 . S
C773 C777 1.393 . S
C774 H766 0.950 . S
C774 C772 1.391 . S
C774 C775 1.400 . S
C775 C774 1.400 . S
C775 C776 1.398 . S
C775 C781 1.491 . S
C776 H767 0.950 . S
C776 C775 1.398 . S
C776 C777 1.391 . S
C777 H765 0.950 . S
C777 C773 1.393 . S
C777 C776 1.391 . S
C778 H768 0.950 . S
C778 C779 1.386 . S
C778 C780 1.391 . S
C779 C778 1.386 . S
C779 C783 1.393 . S
C780 H769 0.950 . S
C780 C778 1.391 . S
C780 C781 1.400 . S
C781 C775 1.491 . S
C781 C780 1.400 . S
C781 C782 1.398 . S
C782 H770 0.950 . S
C782 C781 1.398 . S
C782 C783 1.391 . S
C783 H771 0.950 . S
C783 C779 1.393 . S
C783 C782 1.391 . S
H784 C792 0.950 . S
H785 C797 0.950 . S
H786 C794 0.950 . S
H787 C796 0.950 . S
H788 C798 0.950 . S
H789 C800 0.950 . S
H790 C802 0.950 . S
H791 C803 0.950 . S
C792 H784 0.950 . S
C792 C793 1.386 . S
C792 C794 1.391 . S
C793 C792 1.386 . S
C793 C797 1.393 . S
C794 H786 0.950 . S
C794 C792 1.391 . S
C794 C795 1.400 . S
C795 C794 1.400 . S
C795 C796 1.398 . S
C795 C801 1.491 . S
C796 H787 0.950 . S
C796 C795 1.398 . S
C796 C797 1.391 . S
C797 H785 0.950 . S
C797 C793 1.393 . S
C797 C796 1.391 . S
C798 H788 0.950 . S
C798 C799 1.386 . S
C798 C800 1.391 . S
C799 C798 1.386 . S
C799 C803 1.393 . S
C800 H789 0.950 . S
C800 C798 1.391 . S
C800 C801 1.400 . S
C801 C795 1.491 . S
C801 C800 1.400 . S
C801 C802 1.398 . S
C802 H790 0.950 . S
C802 C801 1.398 . S
C802 C803 1.391 . S
C803 H791 0.950 . S
C803 C799 1.393 . S
C803 C802 1.391 . S
H804 C812 0.950 . S
H805 C817 0.950 . S
H806 C814 0.950 . S
H807 C816 0.950 . S
H808 C818 0.950 . S
H809 C820 0.950 . S
H810 C822 0.950 . S
H811 C823 0.950 . S
C812 H804 0.950 . S
C812 C813 1.386 . S
C812 C814 1.391 . S
C813 C812 1.386 . S
C813 C817 1.393 . S
C814 H806 0.950 . S
C814 C812 1.391 . S
C814 C815 1.400 . S
C815 C814 1.400 . S
C815 C816 1.398 . S
C815 C821 1.491 . S
C816 H807 0.950 . S
C816 C815 1.398 . S
C816 C817 1.391 . S
C817 H805 0.950 . S
C817 C813 1.393 . S
C817 C816 1.391 . S
C818 H808 0.950 . S
C818 C819 1.386 . S
C818 C820 1.391 . S
C819 C818 1.386 . S
C819 C823 1.393 . S
C820 H809 0.950 . S
C820 C818 1.391 . S
C820 C821 1.400 . S
C821 C815 1.491 . S
C821 C820 1.400 . S
C821 C822 1.398 . S
C822 H810 0.950 . S
C822 C821 1.398 . S
C822 C823 1.391 . S
C823 H811 0.950 . S
C823 C819 1.393 . S
C823 C822 1.391 . S
H824 C832 0.950 . S
H825 C837 0.950 . S
H826 C834 0.950 . S
H827 C836 0.950 . S
H828 C838 0.950 . S
H829 C840 0.950 . S
H830 C842 0.950 . S
H831 C843 0.950 . S
C832 H824 0.950 . S
C832 C833 1.386 . S
C832 C834 1.391 . S
C833 C832 1.386 . S
C833 C837 1.393 . S
C834 H826 0.950 . S
C834 C832 1.391 . S
C834 C835 1.400 . S
C835 C834 1.400 . S
C835 C836 1.398 . S
C835 C841 1.491 . S
C836 H827 0.950 . S
C836 C835 1.398 . S
C836 C837 1.391 . S
C837 H825 0.950 . S
C837 C833 1.393 . S
C837 C836 1.391 . S
C838 H828 0.950 . S
C838 C839 1.386 . S
C838 C840 1.391 . S
C839 C838 1.386 . S
C839 C843 1.393 . S
C840 H829 0.950 . S
C840 C838 1.391 . S
C840 C841 1.400 . S
C841 C835 1.491 . S
C841 C840 1.400 . S
C841 C842 1.398 . S
C842 H830 0.950 . S
C842 C841 1.398 . S
C842 C843 1.391 . S
C843 H831 0.950 . S
C843 C839 1.393 . S
C843 C842 1.391 . S
H844 C852 0.950 . S
H845 C857 0.950 . S
H846 C854 0.950 . S
H847 C856 0.950 . S
H848 C858 0.950 . S
H849 C860 0.950 . S
H850 C862 0.950 . S
H851 C863 0.950 . S
C852 H844 0.950 . S
C852 C853 1.386 . S
C852 C854 1.391 . S
C853 C852 1.386 . S
C853 C857 1.393 . S
C854 H846 0.950 . S
C854 C852 1.391 . S
C854 C855 1.400 . S
C855 C854 1.400 . S
C855 C856 1.398 . S
C855 C861 1.491 . S
C856 H847 0.950 . S
C856 C855 1.398 . S
C856 C857 1.391 . S
C857 H845 0.950 . S
C857 C853 1.393 . S
C857 C856 1.391 . S
C858 H848 0.950 . S
C858 C859 1.386 . S
C858 C860 1.391 . S
C859 C858 1.386 . S
C859 C863 1.393 . S
C860 H849 0.950 . S
C860 C858 1.391 . S
C860 C861 1.400 . S
C861 C855 1.491 . S
C861 C860 1.400 . S
C861 C862 1.398 . S
C862 H850 0.950 . S
C862 C861 1.398 . S
C862 C863 1.391 . S
C863 H851 0.950 . S
C863 C859 1.393 . S
C863 C862 1.391 . S
H864 C872 0.950 . S
H865 C877 0.950 . S
H866 C874 0.950 . S
H867 C876 0.950 . S
H868 C878 0.950 . S
H869 C880 0.950 . S
H870 C882 0.950 . S
H871 C883 0.950 . S
C872 H864 0.950 . S
C872 C873 1.386 . S
C872 C874 1.391 . S
C873 C872 1.386 . S
C873 C877 1.393 . S
C874 H866 0.950 . S
C874 C872 1.391 . S
C874 C875 1.400 . S
C875 C874 1.400 . S
C875 C876 1.398 . S
C875 C881 1.491 . S
C876 H867 0.950 . S
C876 C875 1.398 . S
C876 C877 1.391 . S
C877 H865 0.950 . S
C877 C873 1.393 . S
C877 C876 1.391 . S
C878 H868 0.950 . S
C878 C879 1.386 . S
C878 C880 1.391 . S
C879 C878 1.386 . S
C879 C883 1.393 . S
C880 H869 0.950 . S
C880 C878 1.391 . S
C880 C881 1.400 . S
C881 C875 1.491 . S
C881 C880 1.400 . S
C881 C882 1.398 . S
C882 H870 0.950 . S
C882 C881 1.398 . S
C882 C883 1.391 . S
C883 H871 0.950 . S
C883 C879 1.393 . S
C883 C882 1.391 . S
H884 C892 0.950 . S
H885 C897 0.950 . S
H886 C894 0.950 . S
H887 C896 0.950 . S
H888 C898 0.950 . S
H889 C900 0.950 . S
H890 C902 0.950 . S
H891 C903 0.950 . S
C892 H884 0.950 . S
C892 C893 1.386 . S
C892 C894 1.391 . S
C893 C892 1.386 . S
C893 C897 1.393 . S
C894 H886 0.950 . S
C894 C892 1.391 . S
C894 C895 1.400 . S
C895 C894 1.400 . S
C895 C896 1.398 . S
C895 C901 1.491 . S
C896 H887 0.950 . S
C896 C895 1.398 . S
C896 C897 1.391 . S
C897 H885 0.950 . S
C897 C893 1.393 . S
C897 C896 1.391 . S
C898 H888 0.950 . S
C898 C899 1.386 . S
C898 C900 1.391 . S
C899 C898 1.386 . S
C899 C903 1.393 . S
C900 H889 0.950 . S
C900 C898 1.391 . S
C900 C901 1.400 . S
C901 C895 1.491 . S
C901 C900 1.400 . S
C901 C902 1.398 . S
C902 H890 0.950 . S
C902 C901 1.398 . S
C902 C903 1.391 . S
C903 H891 0.950 . S
C903 C899 1.393 . S
C903 C902 1.391 . S
H904 C912 0.950 . S
H905 C917 0.950 . S
H906 C914 0.950 . S
H907 C916 0.950 . S
H908 C918 0.950 . S
H909 C920 0.950 . S
H910 C922 0.950 . S
H911 C923 0.950 . S
C912 H904 0.950 . S
C912 C913 1.386 . S
C912 C914 1.391 . S
C913 C912 1.386 . S
C913 C917 1.393 . S
C914 H906 0.950 . S
C914 C912 1.391 . S
C914 C915 1.400 . S
C915 C914 1.400 . S
C915 C916 1.398 . S
C915 C921 1.491 . S
C916 H907 0.950 . S
C916 C915 1.398 . S
C916 C917 1.391 . S
C917 H905 0.950 . S
C917 C913 1.393 . S
C917 C916 1.391 . S
C918 H908 0.950 . S
C918 C919 1.386 . S
C918 C920 1.391 . S
C919 C918 1.386 . S
C919 C923 1.393 . S
C920 H909 0.950 . S
C920 C918 1.391 . S
C920 C921 1.400 . S
C921 C915 1.491 . S
C921 C920 1.400 . S
C921 C922 1.398 . S
C922 H910 0.950 . S
C922 C921 1.398 . S
C922 C923 1.391 . S
C923 H911 0.950 . S
C923 C919 1.393 . S
C923 C922 1.391 . S
H924 C932 0.950 . S
H925 C937 0.950 . S
H926 C934 0.950 . S
H927 C936 0.950 . S
H928 C938 0.950 . S
H929 C940 0.950 . S
H930 C942 0.950 . S
H931 C943 0.950 . S
C932 H924 0.950 . S
C932 C933 1.386 . S
C932 C934 1.391 . S
C933 C932 1.386 . S
C933 C937 1.393 . S
C934 H926 0.950 . S
C934 C932 1.391 . S
C934 C935 1.400 . S
C935 C934 1.400 . S
C935 C936 1.398 . S
C935 C941 1.491 . S
C936 H927 0.950 . S
C936 C935 1.398 . S
C936 C937 1.391 . S
C937 H925 0.950 . S
C937 C933 1.393 . S
C937 C936 1.391 . S
C938 H928 0.950 . S
C938 C939 1.386 . S
C938 C940 1.391 . S
C939 C938 1.386 . S
C939 C943 1.393 . S
C940 H929 0.950 . S
C940 C938 1.391 . S
C940 C941 1.400 . S
C941 C935 1.491 . S
C941 C940 1.400 . S
C941 C942 1.398 . S
C942 H930 0.950 . S
C942 C941 1.398 . S
C942 C943 1.391 . S
C943 H931 0.950 . S
C943 C939 1.393 . S
C943 C942 1.391 . S
H944 C952 0.950 . S
H945 C957 0.950 . S
H946 C954 0.950 . S
H947 C956 0.950 . S
H948 C958 0.950 . S
H949 C960 0.950 . S
H950 C962 0.950 . S
H951 C963 0.950 . S
C952 H944 0.950 . S
C952 C953 1.386 . S
C952 C954 1.391 . S
C953 C952 1.386 . S
C953 C957 1.393 . S
C954 H946 0.950 . S
C954 C952 1.391 . S
C954 C955 1.400 . S
C955 C954 1.400 . S
C955 C956 1.398 . S
C955 C961 1.491 . S
C956 H947 0.950 . S
C956 C955 1.398 . S
C956 C957 1.391 . S
C957 H945 0.950 . S
C957 C953 1.393 . S
C957 C956 1.391 . S
C958 H948 0.950 . S
C958 C959 1.386 . S
C958 C960 1.391 . S
C959 C958 1.386 . S
C959 C963 1.393 . S
C960 H949 0.950 . S
C960 C958 1.391 . S
C960 C961 1.400 . S
C961 C955 1.491 . S
C961 C960 1.400 . S
C961 C962 1.398 . S
C962 H950 0.950 . S
C962 C961 1.398 . S
C962 C963 1.391 . S
C963 H951 0.950 . S
C963 C959 1.393 . S
C963 C962 1.391 . S
H964 C972 0.950 . S
H965 C977 0.950 . S
H966 C974 0.950 . S
H967 C976 0.950 . S
H968 C978 0.950 . S
H969 C980 0.950 . S
H970 C982 0.950 . S
H971 C983 0.950 . S
C972 H964 0.950 . S
C972 C973 1.386 . S
C972 C974 1.391 . S
C973 C972 1.386 . S
C973 C977 1.393 . S
C974 H966 0.950 . S
C974 C972 1.391 . S
C974 C975 1.400 . S
C975 C974 1.400 . S
C975 C976 1.398 . S
C975 C981 1.491 . S
C976 H967 0.950 . S
C976 C975 1.398 . S
C976 C977 1.391 . S
C977 H965 0.950 . S
C977 C973 1.393 . S
C977 C976 1.391 . S
C978 H968 0.950 . S
C978 C979 1.386 . S
C978 C980 1.391 . S
C979 C978 1.386 . S
C979 C983 1.393 . S
C980 H969 0.950 . S
C980 C978 1.391 . S
C980 C981 1.400 . S
C981 C975 1.491 . S
C981 C980 1.400 . S
C981 C982 1.398 . S
C982 H970 0.950 . S
C982 C981 1.398 . S
C982 C983 1.391 . S
C983 H971 0.950 . S
C983 C979 1.393 . S
C983 C982 1.391 . S
H984 C992 0.950 . S
H985 C997 0.950 . S
H986 C994 0.950 . S
H987 C996 0.950 . S
H988 C998 0.950 . S
H989 C1000 0.950 . S
H990 C1002 0.950 . S
H991 C1003 0.950 . S
C992 H984 0.950 . S
C992 C993 1.386 . S
C992 C994 1.391 . S
C993 C992 1.386 . S
C993 C997 1.393 . S
C994 H986 0.950 . S
C994 C992 1.391 . S
C994 C995 1.400 . S
C995 C994 1.400 . S
C995 C996 1.398 . S
C995 C1001 1.491 . S
C996 H987 0.950 . S
C996 C995 1.398 . S
C996 C997 1.391 . S
C997 H985 0.950 . S
C997 C993 1.393 . S
C997 C996 1.391 . S
C998 H988 0.950 . S
C998 C999 1.386 . S
C998 C1000 1.391 . S
C999 C998 1.386 . S
C999 C1003 1.393 . S
C1000 H989 0.950 . S
C1000 C998 1.391 . S
C1000 C1001 1.400 . S
C1001 C995 1.491 . S
C1001 C1000 1.400 . S
C1001 C1002 1.398 . S
C1002 H990 0.950 . S
C1002 C1001 1.398 . S
C1002 C1003 1.391 . S
C1003 H991 0.950 . S
C1003 C999 1.393 . S
C1003 C1002 1.391 . S
H1004 C1012 0.950 . S
H1005 C1017 0.950 . S
H1006 C1014 0.950 . S
H1007 C1016 0.950 . S
H1008 C1018 0.950 . S
H1009 C1020 0.950 . S
H1010 C1022 0.950 . S
H1011 C1023 0.950 . S
C1012 H1004 0.950 . S
C1012 C1013 1.386 . S
C1012 C1014 1.391 . S
C1013 C1012 1.386 . S
C1013 C1017 1.393 . S
C1014 H1006 0.950 . S
C1014 C1012 1.391 . S
C1014 C1015 1.400 . S
C1015 C1014 1.400 . S
C1015 C1016 1.398 . S
C1015 C1021 1.491 . S
C1016 H1007 0.950 . S
C1016 C1015 1.398 . S
C1016 C1017 1.391 . S
C1017 H1005 0.950 . S
C1017 C1013 1.393 . S
C1017 C1016 1.391 . S
C1018 H1008 0.950 . S
C1018 C1019 1.386 . S
C1018 C1020 1.391 . S
C1019 C1018 1.386 . S
C1019 C1023 1.393 . S
C1020 H1009 0.950 . S
C1020 C1018 1.391 . S
C1020 C1021 1.400 . S
C1021 C1015 1.491 . S
C1021 C1020 1.400 . S
C1021 C1022 1.398 . S
C1022 H1010 0.950 . S
C1022 C1021 1.398 . S
C1022 C1023 1.391 . S
C1023 H1011 0.950 . S
C1023 C1019 1.393 . S
C1023 C1022 1.391 . S
H1024 C1032 0.950 . S
H1025 C1037 0.950 . S
H1026 C1034 0.950 . S
H1027 C1036 0.950 . S
H1028 C1038 0.950 . S
H1029 C1040 0.950 . S
H1030 C1042 0.950 . S
H1031 C1043 0.950 . S
C1032 H1024 0.950 . S
C1032 C1033 1.386 . S
C1032 C1034 1.391 . S
C1033 C1032 1.386 . S
C1033 C1037 1.393 . S
C1034 H1026 0.950 . S
C1034 C1032 1.391 . S
C1034 C1035 1.400 . S
C1035 C1034 1.400 . S
C1035 C1036 1.398 . S
C1035 C1041 1.491 . S
C1036 H1027 0.950 . S
C1036 C1035 1.398 . S
C1036 C1037 1.391 . S
C1037 H1025 0.950 . S
C1037 C1033 1.393 . S
C1037 C1036 1.391 . S
C1038 H1028 0.950 . S
C1038 C1039 1.386 . S
C1038 C1040 1.391 . S
C1039 C1038 1.386 . S
C1039 C1043 1.393 . S
C1040 H1029 0.950 . S
C1040 C1038 1.391 . S
C1040 C1041 1.400 . S
C1041 C1035 1.491 . S
C1041 C1040 1.400 . S
C1041 C1042 1.398 . S
C1042 H1030 0.950 . S
C1042 C1041 1.398 . S
C1042 C1043 1.391 . S
C1043 H1031 0.950 . S
C1043 C1039 1.393 . S
C1043 C1042 1.391 . S
H1044 C1052 0.950 . S
H1045 C1057 0.950 . S
H1046 C1054 0.950 . S
H1047 C1056 0.950 . S
H1048 C1058 0.950 . S
H1049 C1060 0.950 . S
H1050 C1062 0.950 . S
H1051 C1063 0.950 . S
C1052 H1044 0.950 . S
C1052 C1053 1.386 . S
C1052 C1054 1.391 . S
C1053 C1052 1.386 . S
C1053 C1057 1.393 . S
C1054 H1046 0.950 . S
C1054 C1052 1.391 . S
C1054 C1055 1.400 . S
C1055 C1054 1.400 . S
C1055 C1056 1.398 . S
C1055 C1061 1.491 . S
C1056 H1047 0.950 . S
C1056 C1055 1.398 . S
C1056 C1057 1.391 . S
C1057 H1045 0.950 . S
C1057 C1053 1.393 . S
C1057 C1056 1.391 . S
C1058 H1048 0.950 . S
C1058 C1059 1.386 . S
C1058 C1060 1.391 . S
C1059 C1058 1.386 . S
C1059 C1063 1.393 . S
C1060 H1049 0.950 . S
C1060 C1058 1.391 . S
C1060 C1061 1.400 . S
C1061 C1055 1.491 . S
C1061 C1060 1.400 . S
C1061 C1062 1.398 . S
C1062 H1050 0.950 . S
C1062 C1061 1.398 . S
C1062 C1063 1.391 . S
C1063 H1051 0.950 . S
C1063 C1059 1.393 . S
C1063 C1062 1.391 . S
C593 C45 1.634 . S
C599 C135 1.595 . S
C613 C30 1.637 . S
C619 C195 1.601 . S
C633 C39 1.629 . S
C639 C255 1.640 . S
C659 C315 1.634 . S
C653 C34 1.621 . S
C673 C97 1.637 . S
C679 C375 1.598 . S
C699 C435 1.588 . S
C693 C82 1.632 . S
C719 C495 1.646 . S
C713 C91 1.637 . S
C739 C555 1.637 . S
C733 C86 1.633 . S
C759 C484 1.565 . S
C753 C26 1.498 . S
C779 C544 1.564 . S
C773 C36 1.504 . S
C799 C345 1.462 . S
C793 C32 1.480 . S
C819 C405 1.477 . S
C813 C42 1.487 . S
C833 C18 1.581 . S
C839 C424 1.613 . S
C859 C465 1.624 . S
C853 C50 1.556 . S
C873 C4 1.575 . S
C879 C525 1.618 . S
C893 C48 1.555 . S
C899 C364 1.592 . S
C919 C244 1.565 . S
C913 C78 1.494 . S
C933 C88 1.501 . S
C939 C304 1.558 . S
C959 C105 1.459 . S
C953 C84 1.479 . S
C979 C165 1.479 . S
C973 C94 1.489 . S
C999 C184 1.602 . S
C993 C70 1.577 . S
C1019 C225 1.612 . S
C1013 C102 1.567 . S
C1033 C56 1.577 . S
C1039 C285 1.618 . S
C1053 C100 1.575 . S
C1059 C124 1.600 . S
