# Generated by pormake.
# Topology zzz, (3,6)-cn, num edge types: 1
# Building blocks:
#     Node 0, Type 0, BuildingBlock: MIDCAF_clean_linker_0, # of connection points: 3
#     Node 1, Type 0, BuildingBlock: MIDCAF_clean_linker_0, # of connection points: 3
#     Node 2, Type 0, BuildingBlock: MIDCAF_clean_linker_0, # of connection points: 3
#     Node 3, Type 0, BuildingBlock: MIDCAF_clean_linker_0, # of connection points: 3
#     Node 4, Type 0, BuildingBlock: MIDCAF_clean_linker_0, # of connection points: 3
#     Node 5, Type 0, BuildingBlock: MIDCAF_clean_linker_0, # of connection points: 3
#     Node 6, Type 0, BuildingBlock: MIDCAF_clean_linker_0, # of connection points: 3
#     Node 7, Type 0, BuildingBlock: MIDCAF_clean_linker_0, # of connection points: 3
#     Node 8, Type 1, BuildingBlock: HISSIN_clean_sbu_0, # of connection points: 6
#     Node 9, Type 1, BuildingBlock: HISSIN_clean_sbu_0, # of connection points: 6
#     Node 10, Type 1, BuildingBlock: HISSIN_clean_sbu_0, # of connection points: 6
#     Node 11, Type 1, BuildingBlock: HISSIN_clean_sbu_0, # of connection points: 6
#     Edge 12, Type (0, 1), BuildingBlock: MIFKUJ_clean_linker_0, # of connection points: 2
#     Edge 13, Type (0, 1), BuildingBlock: MIFKUJ_clean_linker_0, # of connection points: 2
#     Edge 14, Type (0, 1), BuildingBlock: MIFKUJ_clean_linker_0, # of connection points: 2
#     Edge 15, Type (0, 1), BuildingBlock: MIFKUJ_clean_linker_0, # of connection points: 2
#     Edge 16, Type (0, 1), BuildingBlock: MIFKUJ_clean_linker_0, # of connection points: 2
#     Edge 17, Type (0, 1), BuildingBlock: MIFKUJ_clean_linker_0, # of connection points: 2
#     Edge 18, Type (0, 1), BuildingBlock: MIFKUJ_clean_linker_0, # of connection points: 2
#     Edge 19, Type (0, 1), BuildingBlock: MIFKUJ_clean_linker_0, # of connection points: 2
#     Edge 20, Type (0, 1), BuildingBlock: MIFKUJ_clean_linker_0, # of connection points: 2
#     Edge 21, Type (0, 1), BuildingBlock: MIFKUJ_clean_linker_0, # of connection points: 2
#     Edge 22, Type (0, 1), BuildingBlock: MIFKUJ_clean_linker_0, # of connection points: 2
#     Edge 23, Type (0, 1), BuildingBlock: MIFKUJ_clean_linker_0, # of connection points: 2
#     Edge 24, Type (0, 1), BuildingBlock: MIFKUJ_clean_linker_0, # of connection points: 2
#     Edge 25, Type (0, 1), BuildingBlock: MIFKUJ_clean_linker_0, # of connection points: 2
#     Edge 26, Type (0, 1), BuildingBlock: MIFKUJ_clean_linker_0, # of connection points: 2
#     Edge 27, Type (0, 1), BuildingBlock: MIFKUJ_clean_linker_0, # of connection points: 2
#     Edge 28, Type (0, 1), BuildingBlock: MIFKUJ_clean_linker_0, # of connection points: 2
#     Edge 29, Type (0, 1), BuildingBlock: MIFKUJ_clean_linker_0, # of connection points: 2
#     Edge 30, Type (0, 1), BuildingBlock: MIFKUJ_clean_linker_0, # of connection points: 2
#     Edge 31, Type (0, 1), BuildingBlock: MIFKUJ_clean_linker_0, # of connection points: 2
#     Edge 32, Type (0, 1), BuildingBlock: MIFKUJ_clean_linker_0, # of connection points: 2
#     Edge 33, Type (0, 1), BuildingBlock: MIFKUJ_clean_linker_0, # of connection points: 2
#     Edge 34, Type (0, 1), BuildingBlock: MIFKUJ_clean_linker_0, # of connection points: 2
#     Edge 35, Type (0, 1), BuildingBlock: MIFKUJ_clean_linker_0, # of connection points: 2
# Relax obj value: 0.359
# Max RMSD: 0.210
# Mean RMSD: 0.189
data_MOF--net-zzz--node1-HISSIN_clean_sbu_0--node2-MIDCAF_clean_linker_0--edge1-MIFKUJ_clean_linker_0
_symmetry_space_group_name_H-M    P1
_symmetry_Int_Tables_number       1
_symmetry_cell_setting            triclinic
loop_
_symmetry_equiv_pos_as_xyz
'x, y, z'
_cell_length_a     69.823403
_cell_length_b     70.340097
_cell_length_c     26.935462
_cell_angle_alpha  89.493068
_cell_angle_beta   92.246134
_cell_angle_gamma 91.879139
loop_
_atom_site_label
_atom_site_type_symbol
_atom_site_fract_x
_atom_site_fract_y
_atom_site_fract_z
_atom_type_partial_charge
C0 C 0.78448 0.58047 0.34421 0.0
C1 C 0.79086 0.56174 0.34861 0.0
C2 C 0.78225 0.54772 0.31721 0.0
C3 C 0.76898 0.55272 0.27917 0.0
H4 H 0.71005 0.54789 0.17432 0.0
H5 H 0.68026 0.53851 0.12795 0.0
H6 H 0.68359 0.5909 0.04353 0.0
H7 H 0.71304 0.60017 0.08928 0.0
H8 H 0.75845 0.6095 0.0545 0.0
H9 H 0.78328 0.61616 0.99505 0.0
H10 H 0.82671 0.60447 0.10918 0.0
H11 H 0.80221 0.59891 0.1685 0.0
H12 H 0.76809 0.60029 0.3009 0.0
H13 H 0.79049 0.59155 0.36837 0.0
H14 H 0.78689 0.53318 0.31935 0.0
H15 H 0.76391 0.54203 0.25264 0.0
N16 N 0.73886 0.57338 0.20425 0.0
N17 N 0.74573 0.59015 0.13059 0.0
N18 N 0.76892 0.58882 0.19512 0.0
C19 C 0.73318 0.5797 0.15797 0.0
C20 C 0.76367 0.59467 0.14874 0.0
C21 C 0.75673 0.57836 0.22312 0.0
C22 C 0.71396 0.57472 0.13534 0.0
C23 C 0.70419 0.5575 0.14646 0.0
C24 C 0.68723 0.55209 0.11969 0.0
C25 C 0.67956 0.56396 0.08203 0.0
C26 C 0.68895 0.58151 0.07259 0.0
C27 C 0.70594 0.58676 0.09866 0.0
C28 C 0.77829 0.60314 0.11596 0.0
C29 C 0.77334 0.60892 0.06717 0.0
C30 C 0.7876 0.61267 0.033 0.0
C31 C 0.80706 0.61041 0.04675 0.0
C32 C 0.81197 0.60652 0.09688 0.0
C33 C 0.79778 0.60307 0.1311 0.0
C34 C 0.76415 0.57179 0.27205 0.0
C35 C 0.77142 0.58545 0.30607 0.0
C36 C 0.96613 0.78382 0.32251 0.0
C37 C 0.98268 0.7957 0.31982 0.0
C38 C 0.99598 0.79175 0.28349 0.0
C39 C 0.99195 0.77739 0.24816 0.0
H40 H 0.99866 0.715 0.14335 0.0
H41 H 0.00607 0.68667 0.09544 0.0
H42 H 0.94639 0.68031 0.04817 0.0
H43 H 0.93912 0.70791 0.09609 0.0
H44 H 0.92817 0.75116 0.04278 0.0
H45 H 0.91534 0.77339 0.98118 0.0
H46 H 0.92286 0.81897 0.08731 0.0
H47 H 0.93522 0.79684 0.14909 0.0
H48 H 0.94852 0.76173 0.28803 0.0
H49 H 0.95572 0.78619 0.35038 0.0
H50 H 0.0088 0.80066 0.28001 0.0
H51 H 1.00155 0.77586 0.21792 0.0
N52 N 0.97213 0.74002 0.18668 0.0
N53 N 0.95054 0.7429 0.11775 0.0
N54 N 0.95365 0.76732 0.17565 0.0
C55 C 0.96364 0.73259 0.14399 0.0
C56 C 0.94552 0.76024 0.13303 0.0
C57 C 0.96678 0.75745 0.20277 0.0
C58 C 0.96831 0.71373 0.12361 0.0
C59 C 0.98712 0.70718 0.12375 0.0
C60 C 0.99137 0.6911 0.09573 0.0
C61 C 0.97685 0.68113 0.06755 0.0
C62 C 0.95796 0.6873 0.06966 0.0
C63 C 0.95379 0.7033 0.09709 0.0
C64 C 0.93333 0.77233 0.10041 0.0
C65 C 0.92658 0.76581 0.05349 0.0
C66 C 0.9192 0.77854 0.01814 0.0
C67 C 0.91848 0.798 0.02899 0.0
C68 C 0.92317 0.80407 0.07766 0.0
C69 C 0.93049 0.79136 0.11305 0.0
C70 C 0.97468 0.76656 0.24882 0.0
C71 C 0.96216 0.76953 0.28734 0.0
C72 C 0.72568 0.96504 0.29229 0.0
C73 C 0.71885 0.98349 0.29734 0.0
C74 C 0.72819 0.99849 0.27158 0.0
C75 C 0.74302 0.99485 0.23912 0.0
H76 H 0.82342 0.96981 0.16517 0.0
H77 H 0.85156 0.9769 0.11585 0.0
H78 H 0.81605 0.00762 0.00979 0.0
H79 H 0.78826 1.0008 0.05985 0.0
H80 H 0.77781 0.9364 0.03576 0.0
H81 H 0.75952 0.92168 0.9667 0.0
H82 H 0.70901 0.91947 0.05446 0.0
H83 H 0.72725 0.93371 0.12362 0.0
H84 H 0.74438 0.94684 0.25514 0.0
H85 H 0.71937 0.95316 0.31243 0.0
H86 H 0.72336 0.0129 0.27438 0.0
H87 H 0.74906 0.00645 0.21746 0.0
N88 N 0.77677 0.98087 0.17596 0.0
N89 N 0.77916 0.96053 0.10753 0.0
N90 N 0.75378 0.95611 0.16058 0.0
C91 C 0.7863 0.97531 0.13519 0.0
C92 C 0.76297 0.95083 0.1198 0.0
C93 C 0.76046 0.97094 0.18903 0.0
C94 C 0.80375 0.98525 0.1172 0.0
C95 C 0.8219 0.97888 0.13263 0.0
C96 C 0.83794 0.98261 0.10364 0.0
C97 C 0.83617 0.99264 0.05816 0.0
C98 C 0.81818 1.00005 0.04464 0.0
C99 C 0.8022 0.9963 0.07362 0.0
C100 C 0.7538 0.93692 0.08458 0.0
C101 C 0.76295 0.93222 0.04093 0.0
C102 C 0.75249 0.92373 1.0013 0.0
C103 C 0.7327 0.9199 1.00455 0.0
C104 C 0.72422 0.92225 0.05052 0.0
C105 C 0.73469 0.93064 0.09022 0.0
C106 C 0.74876 0.97613 0.23172 0.0
C107 C 0.74026 0.96142 0.25983 0.0
C108 C 0.44221 0.73417 0.05357 0.0
C109 C 0.44139 0.74286 0.00639 0.0
C110 C 0.45014 0.76092 1.00013 0.0
C111 C 0.46042 0.76968 0.03965 0.0
H112 H 0.47688 0.8238 0.13535 0.0
H113 H 0.48761 0.85256 0.09383 0.0
H114 H 0.54615 0.83426 0.10729 0.0
H115 H 0.53491 0.80474 0.14786 0.0
H116 H 0.52707 0.76365 0.26134 0.0
H117 H 0.53484 0.74013 0.32669 0.0
H118 H 0.47969 0.71183 0.29848 0.0
H119 H 0.4719 0.7351 0.23534 0.0
H120 H 0.45364 0.73537 0.12827 0.0
H121 H 0.4358 0.72012 0.0593 0.0
H122 H 0.44965 0.76794 0.96415 0.0
H123 H 0.46761 0.78329 0.03301 0.0
N124 N 0.48377 0.78582 0.12028 0.0
N125 N 0.50267 0.78164 0.19374 0.0
N126 N 0.48083 0.75755 0.16528 0.0
C127 C 0.49714 0.79268 0.15393 0.0
C128 C 0.49418 0.76398 0.19977 0.0
C129 C 0.47562 0.76828 0.1254 0.0
C130 C 0.50506 0.81209 0.14494 0.0
C131 C 0.49214 0.82622 0.13102 0.0
C132 C 0.49838 0.84282 0.10716 0.0
C133 C 0.51781 0.84584 0.09646 0.0
C134 C 0.53103 0.83232 0.11408 0.0
C135 C 0.52469 0.81556 0.13814 0.0
C136 C 0.49891 0.75127 0.24279 0.0
C137 C 0.51655 0.75256 0.26983 0.0
C138 C 0.52105 0.73899 0.30695 0.0
C139 C 0.50787 0.72406 0.31812 0.0
C140 C 0.4901 0.72323 0.2918 0.0
C141 C 0.4857 0.73658 0.25495 0.0
C142 C 0.46233 0.76042 0.08603 0.0
C143 C 0.45261 0.74284 0.09297 0.0
C144 C 0.23577 0.45404 0.89768 0.0
C145 C 0.23069 0.4732 0.89556 0.0
C146 C 0.24081 0.48635 0.92674 0.0
C147 C 0.25475 0.48021 0.96167 0.0
H148 H 0.3153 0.48421 0.06219 0.0
H149 H 0.34483 0.49269 0.11108 0.0
H150 H 0.34575 0.43563 0.1713 0.0
H151 H 0.31648 0.42734 0.12348 0.0
H152 H 0.27119 0.42946 0.18658 0.0
H153 H 0.24786 0.42478 0.25073 0.0
H154 H 0.20211 0.42176 0.13832 0.0
H155 H 0.22533 0.42644 0.07384 0.0
H156 H 0.25188 0.4328 0.93677 0.0
H157 H 0.22813 0.44352 0.87463 0.0
H158 H 0.23723 0.50123 0.9258 0.0
H159 H 0.26133 0.49037 0.98767 0.0
N160 N 0.2863 0.45784 0.02683 0.0
N161 N 0.28195 0.44066 0.10114 0.0
N162 N 0.25639 0.44312 0.04341 0.0
C163 C 0.29358 0.45092 0.07099 0.0
C164 C 0.26334 0.43681 0.08796 0.0
C165 C 0.26768 0.45345 0.0126 0.0
C166 C 0.31349 0.45519 0.08952 0.0
C167 C 0.32218 0.47339 0.08478 0.0
C168 C 0.33902 0.47824 0.11289 0.0
C169 C 0.34734 0.46493 0.14593 0.0
C170 C 0.33943 0.44634 0.1472 0.0
C171 C 0.32272 0.44156 0.11953 0.0
C172 C 0.25009 0.42886 0.12503 0.0
C173 C 0.25623 0.42725 0.17524 0.0
C174 C 0.24289 0.42459 0.21212 0.0
C175 C 0.22321 0.42324 0.19946 0.0
C176 C 0.21722 0.42275 0.14909 0.0
C177 C 0.23055 0.42557 0.11216 0.0
C178 C 0.2586 0.46081 0.96635 0.0
C179 C 0.24942 0.44789 0.93312 0.0
C180 C 0.01615 0.23088 0.95697 0.0
C181 C 0.02927 0.22671 0.92044 0.0
C182 C 0.04569 0.23863 0.9163 0.0
C183 C 0.04985 0.25313 0.95065 0.0
H184 H 0.01383 0.30548 0.09567 0.0
H185 H 1.00402 0.33142 0.14933 0.0
H186 H 0.0595 0.33156 0.22571 0.0
H187 H 0.06921 0.30627 0.17336 0.0
H188 H 0.07634 0.25697 0.19966 0.0
H189 H 0.09121 0.23029 0.24054 0.0
H190 H 0.11149 0.2117 0.0997 0.0
H191 H 0.09541 0.23806 0.05833 0.0
H192 H 0.01109 0.247 0.02256 0.0
H193 H 1.0034 0.22192 0.96123 0.0
H194 H 0.05595 0.23599 0.88823 0.0
H195 H 0.06348 0.26089 0.94902 0.0
N196 N 0.0395 0.28011 0.05938 0.0
N197 N 0.06338 0.27674 0.12287 0.0
N198 N 0.0617 0.25563 0.05668 0.0
C199 C 0.04839 0.28646 0.10283 0.0
C200 C 0.07015 0.26144 0.10007 0.0
C201 C 0.04649 0.26467 0.03603 0.0
C202 C 0.04221 0.30344 0.13048 0.0
C203 C 0.02394 0.31122 0.12361 0.0
C204 C 0.01833 0.32606 0.15436 0.0
C205 C 0.03084 0.3333 0.19261 0.0
C206 C 0.04929 0.32603 0.19769 0.0
C207 C 0.05486 0.31144 0.16726 0.0
C208 C 0.08426 0.24927 0.12569 0.0
C209 C 0.08452 0.24758 0.17761 0.0
C210 C 0.09326 0.23222 0.20118 0.0
C211 C 0.1022 0.2184 0.17331 0.0
C212 C 0.1042 0.22168 0.12214 0.0
C213 C 0.09507 0.23683 0.09841 0.0
C214 C 0.03774 0.25614 0.99011 0.0
C215 C 0.02041 0.24542 0.99173 0.0
C216 C 0.30296 0.01129 0.99817 0.0
C217 C 0.30593 0.02242 0.95522 0.0
C218 C 0.29294 0.03678 0.94337 0.0
C219 C 0.27846 0.04103 0.97568 0.0
H220 H 0.22557 0.01143 0.13338 0.0
H221 H 0.19762 0.00449 0.18451 0.0
H222 H 0.19736 0.0636 0.22634 0.0
H223 H 0.22439 0.07048 0.17548 0.0
H224 H 0.26665 0.09011 0.19699 0.0
H225 H 0.29113 0.1099 0.2403 0.0
H226 H 0.3299 0.10039 0.12219 0.0
H227 H 0.30544 0.0817 0.07845 0.0
H228 H 0.28788 0.00825 0.0662 0.0
H229 H 0.31277 1.00018 0.00849 0.0
H230 H 0.29467 0.04549 0.91038 0.0
H231 H 0.26986 0.0533 0.9675 0.0
N232 N 0.25182 0.03557 0.08548 0.0
N233 N 0.25564 0.06226 0.13787 0.0
N234 N 0.27792 0.05732 0.07763 0.0
C235 C 0.24534 0.04636 0.12332 0.0
C236 C 0.27189 0.06783 0.11532 0.0
C237 C 0.26821 0.04135 0.06231 0.0
C238 C 0.22739 0.04151 0.15015 0.0
C239 C 0.21932 0.02293 0.15298 0.0
C240 C 0.2034 0.01894 0.1827 0.0
C241 C 0.19507 0.03349 0.20966 0.0
C242 C 0.20301 0.05202 0.20574 0.0
C243 C 0.21878 0.05594 0.17662 0.0
C244 C 0.28434 0.08367 0.13521 0.0
C245 C 0.28022 0.09277 0.17962 0.0
C246 C 0.2943 0.1041 0.20455 0.0
C247 C 0.31282 0.10627 0.18587 0.0
C248 C 0.31596 0.09915 0.13829 0.0
C249 C 0.30188 0.08806 0.11324 0.0
C250 C 0.27656 0.03111 0.02085 0.0
C251 C 0.28851 0.01571 0.03091 0.0
C252 C 0.58526 0.29442 0.20278 0.0
C253 C 0.59224 0.28355 0.24326 0.0
C254 C 0.58714 0.26404 0.24523 0.0
C255 C 0.57433 0.25596 0.20949 0.0
H256 H 0.5414 0.20186 0.12803 0.0
H257 H 0.5294 0.17466 0.17603 0.0
H258 H 0.47782 0.20447 0.20312 0.0
H259 H 0.48975 0.2316 0.15372 0.0
H260 H 0.50903 0.25658 0.98315 0.0
H261 H 0.50067 0.27926 0.9161 0.0
H262 H 0.52053 0.3258 0.01025 0.0
H263 H 0.52874 0.30349 0.07619 0.0
H264 H 0.56695 0.29546 0.13768 0.0
H265 H 0.58854 0.30954 0.20019 0.0
H266 H 0.5925 0.25516 0.27537 0.0
H267 H 0.57007 0.24109 0.21332 0.0
N268 N 0.54194 0.24256 0.14722 0.0
N269 N 0.5184 0.24788 0.08391 0.0
N270 N 0.54297 0.2708 0.10121 0.0
C271 C 0.52598 0.23654 0.12067 0.0
C272 C 0.52714 0.26506 0.07376 0.0
C273 C 0.55051 0.25969 0.13783 0.0
C274 C 0.51636 0.21866 0.13662 0.0
C275 C 0.52715 0.20224 0.1425 0.0
C276 C 0.5203 0.18671 0.17012 0.0
C277 C 0.50272 0.18748 0.19359 0.0
C278 C 0.49144 0.20352 0.18552 0.0
C279 C 0.49814 0.21893 0.15682 0.0
C280 C 0.51958 0.27823 0.03489 0.0
C281 C 0.51124 0.27168 0.98958 0.0
C282 C 0.50664 0.28464 0.95114 0.0
C283 C 0.50992 0.30435 0.95786 0.0
C284 C 0.51758 0.31078 1.00391 0.0
C285 C 0.5224 0.29793 0.0417 0.0
C286 C 0.56643 0.2672 0.17087 0.0
C287 C 0.57263 0.28634 0.16694 0.0
Eu288 Eu 0.99666 0.01913 0.58075 0.0
Eu289 Eu 0.02668 1.00176 0.66284 0.0
C290 C 0.019 0.04686 0.66055 0.0
C291 C 0.98351 0.05097 0.47803 0.0
C292 C 0.99424 0.06626 0.49951 0.0
C293 C 0.99386 0.06124 0.39666 0.0
C294 C 1.00518 0.07846 0.47017 0.0
C295 C 0.98292 0.04891 0.42619 0.0
C296 C 0.00564 0.07565 0.41876 0.0
C297 C 0.97661 0.03526 0.5099 0.0
O298 O 0.99699 0.99327 0.68889 0.0
O299 O 0.97972 0.0166 0.6504 0.0
C300 C 0.98167 1.00368 0.68558 0.0
O301 O 0.99 0.98744 0.57933 0.0
O302 O 0.03579 0.99663 0.74009 0.0
O303 O 0.05125 0.98418 0.68114 0.0
O304 O 0.02001 0.979 0.60531 0.0
C305 C 1.00339 0.97476 0.58302 0.0
O306 O 0.02465 0.01528 0.54259 0.0
O307 O 0.04606 0.0169 0.60881 0.0
O308 O 0.02367 0.03204 0.68797 0.0
O309 O 0.98521 0.0193 0.50412 0.0
O310 O 0.97487 0.03919 0.55673 0.0
O311 O 0.01214 0.04493 0.61465 0.0
C312 C 0.04194 0.96434 0.74775 0.0
C313 C 0.03439 0.95028 0.71494 0.0
C314 C 0.02839 0.9467 0.81656 0.0
C315 C 0.0231 0.93518 0.73247 0.0
C316 C 0.03967 0.96191 0.79895 0.0
C317 C 0.01921 0.93381 0.78307 0.0
C318 C 0.04727 0.9833 0.72807 0.0
C319 C 0.04234 0.01747 0.56062 0.0
H320 H 0.99513 0.0682 0.53938 0.0
H321 H 0.99398 0.05881 0.35702 0.0
H322 H 0.01385 0.0897 0.48798 0.0
H323 H 0.97497 0.03707 0.40892 0.0
H324 H 0.03579 0.95175 0.67519 0.0
H325 H 0.02558 0.94595 0.85581 0.0
H326 H 0.01642 0.92524 0.70604 0.0
H327 H 0.04516 0.97266 0.82483 0.0
Eu328 Eu 0.52431 0.02508 0.66431 0.0
Eu329 Eu 0.50285 0.99476 0.58823 0.0
C330 C 0.52117 0.98011 0.69153 0.0
C331 C 0.56606 0.04162 0.73884 0.0
C332 C 0.57049 0.03753 0.78899 0.0
C333 C 0.59502 0.02616 0.71589 0.0
C334 C 0.58655 0.02696 0.80219 0.0
C335 C 0.57907 0.03677 0.70277 0.0
C336 C 0.59833 0.02035 0.76532 0.0
C337 C 0.54618 0.04598 0.72338 0.0
O338 O 0.47865 0.0073 0.6299 0.0
O339 O 0.49492 0.02177 0.69597 0.0
C340 C 0.47891 0.01529 0.67397 0.0
O341 O 0.50679 0.04345 0.61203 0.0
O342 O 0.4773 0.97882 0.56038 0.0
O343 O 0.50329 0.97827 0.51989 0.0
O344 O 0.50671 0.02268 0.54755 0.0
C345 C 0.50475 0.03991 0.56435 0.0
O346 O 0.5449 0.01944 0.60352 0.0
O347 O 0.53453 0.98942 0.5826 0.0
O348 O 0.50718 0.97748 0.65807 0.0
O349 O 0.54307 0.05023 0.67652 0.0
O350 O 0.53332 0.03379 0.73942 0.0
O351 O 0.53217 0.99567 0.69173 0.0
C352 C 0.47442 0.98448 0.4746 0.0
C353 C 0.4838 0.99841 0.44564 0.0
C354 C 0.44386 0.99466 0.43926 0.0
C355 C 0.47327 0.01091 0.41574 0.0
C356 C 0.45442 0.98215 0.46929 0.0
C357 C 0.45314 0.00976 0.4141 0.0
C358 C 0.4847 0.97578 0.51762 0.0
C359 C 0.54779 1.00311 0.58223 0.0
H360 H 0.56063 0.04097 0.81739 0.0
H361 H 0.6041 0.02149 0.68692 0.0
H362 H 0.58879 0.02264 0.84062 0.0
H363 H 0.57613 0.03975 0.66378 0.0
H364 H 0.49921 1.00068 0.44886 0.0
H365 H 0.42837 0.99309 0.43771 0.0
H366 H 0.4809 0.02233 0.3969 0.0
H367 H 0.44684 0.97155 0.49119 0.0
Eu368 Eu 0.49665 0.51441 0.64457 0.0
Eu369 Eu 0.53344 0.50212 0.58241 0.0
C370 C 0.5387 0.51754 0.69313 0.0
C371 C 0.46008 0.54385 0.70593 0.0
C372 C 0.47324 0.55847 0.72017 0.0
C373 C 0.43394 0.56519 0.71602 0.0
C374 C 0.46678 0.57627 0.73286 0.0
C375 C 0.44043 0.54732 0.70376 0.0
C376 C 0.44705 0.57987 0.73086 0.0
C377 C 0.46674 0.52536 0.69036 0.0
O378 O 0.52064 0.47425 0.61136 0.0
O379 O 0.50385 0.48568 0.6757 0.0
C380 C 0.51155 0.47156 0.65292 0.0
O381 O 0.48583 0.49625 0.58018 0.0
O382 O 0.56444 0.50129 0.57355 0.0
O383 O 0.54481 0.48851 0.51821 0.0
O384 O 0.50866 0.50637 0.52759 0.0
C385 C 0.49131 0.49951 0.53483 0.0
O386 O 0.50295 0.53959 0.595 0.0
O387 O 0.5341 0.53429 0.57596 0.0
O388 O 0.54291 0.5038 0.66324 0.0
O389 O 0.4669 0.52293 0.64248 0.0
O390 O 0.48215 0.51918 0.71336 0.0
O391 O 0.52297 0.52704 0.68516 0.0
C392 C 0.5737 0.47316 0.53522 0.0
C393 C 0.56536 0.45587 0.55115 0.0
C394 C 0.60225 0.45665 0.51425 0.0
C395 C 0.57512 0.439 0.54714 0.0
C396 C 0.59235 0.47354 0.51784 0.0
C397 C 0.59354 0.43909 0.52761 0.0
C398 C 0.56262 0.49056 0.5343 0.0
C399 C 0.51936 0.54547 0.57711 0.0
H400 H 0.48852 0.55615 0.72142 0.0
H401 H 0.41869 0.56755 0.71337 0.0
H402 H 0.47727 0.58712 0.7449 0.0
H403 H 0.43011 0.53625 0.69207 0.0
H404 H 0.55099 0.45531 0.56499 0.0
H405 H 0.61652 0.45732 0.49989 0.0
H406 H 0.56778 0.4258 0.55713 0.0
H407 H 0.59907 0.48681 0.50584 0.0
Eu408 Eu 0.01819 0.52368 0.58844 0.0
Eu409 Eu 0.99871 0.49378 0.66494 0.0
C410 C 0.04397 0.50008 0.66377 0.0
C411 C 0.05454 0.53722 0.49882 0.0
C412 C 0.07142 0.53189 0.52489 0.0
C413 C 0.06588 0.52228 0.4248 0.0
C414 C 0.08495 0.52124 0.50173 0.0
C415 C 0.0523 0.53297 0.448 0.0
C416 C 0.08196 0.51567 0.45202 0.0
C417 C 0.03802 0.54375 0.52614 0.0
O418 O 0.9911 0.52262 0.69252 0.0
O419 O 0.01612 0.53988 0.66068 0.0
C420 C 1.00233 0.53794 0.69251 0.0
O421 O 0.98716 0.53145 0.58348 0.0
O422 O 0.99678 0.4829 0.74067 0.0
O423 O 0.97884 0.47016 0.68182 0.0
O424 O 0.97471 0.50298 0.61213 0.0
C425 C 0.97257 0.51946 0.5894 0.0
O426 O 0.00886 0.49753 0.54417 0.0
O427 O 0.01082 0.47529 0.60618 0.0
O428 O 0.02932 0.49918 0.69268 0.0
O429 O 0.02153 0.53547 0.51383 0.0
O430 O 0.04057 0.54519 0.57426 0.0
O431 O 0.04139 0.50432 0.61668 0.0
C432 C 0.96443 0.47783 0.75691 0.0
C433 C 0.94832 0.48499 0.73087 0.0
C434 C 0.95256 0.49005 0.83355 0.0
C435 C 0.93485 0.49514 0.75565 0.0
C436 C 0.96601 0.47978 0.80874 0.0
C437 C 0.93725 0.4984 0.8069 0.0
C438 C 0.98136 0.47259 0.72969 0.0
C439 C 0.01015 0.47973 0.55866 0.0
H440 H 0.07373 0.53495 0.56405 0.0
H441 H 0.06319 0.51828 0.38639 0.0
H442 H 0.09743 0.51675 0.52336 0.0
H443 H 0.03944 0.53686 0.42702 0.0
H444 H 0.94678 0.48397 0.69081 0.0
H445 H 0.95458 0.49214 0.87323 0.0
H446 H 0.9233 0.50152 0.73404 0.0
H447 H 0.97838 0.47455 0.82953 0.0
H448 H 0.18823 1.00285 0.27254 0.0
H449 H 0.16269 0.99885 0.33233 0.0
H450 H 0.13907 0.05187 0.28257 0.0
H451 H 0.16413 0.0558 0.22256 0.0
H452 H 0.14205 0.05044 0.38315 0.0
H453 H 0.11709 0.01007 0.25069 0.0
H454 H 0.1179 0.98369 0.19115 0.0
H455 H 0.12476 0.94389 0.31183 0.0
H456 H 0.12423 0.97009 0.37208 0.0
H457 H 0.03986 0.01564 0.45892 0.0
H458 H 0.06579 0.01735 0.40064 0.0
H459 H 0.10707 0.02505 0.52257 0.0
H460 H 0.08112 0.02332 0.58145 0.0
H461 H 0.09609 0.99527 0.38832 0.0
H462 H 0.14369 0.05528 0.4821 0.0
H463 H 0.13976 0.084 0.53223 0.0
H464 H 0.08208 0.08865 0.47318 0.0
H465 H 0.08575 0.0602 0.42209 0.0
C466 C 0.17742 0.01351 0.27373 0.0
C467 C 0.17848 0.02976 0.24281 0.0
C468 C 0.16286 0.01126 0.30823 0.0
C469 C 0.14897 0.02517 0.31257 0.0
C470 C 0.14972 0.04108 0.28078 0.0
C471 C 0.16414 0.0433 0.24632 0.0
C472 C 0.13376 0.02347 0.35034 0.0
C473 C 0.13207 0.03832 0.38436 0.0
C474 C 0.12052 0.0078 0.3519 0.0
C475 C 0.12085 0.99205 0.31582 0.0
C476 C 0.11894 0.99571 0.26449 0.0
C477 C 0.11931 0.98079 0.23063 0.0
C478 C 0.12144 0.96213 0.24769 0.0
C479 C 0.12315 0.95835 0.29866 0.0
C480 C 0.1228 0.97322 0.33268 0.0
C481 C 0.05443 0.01775 0.47359 0.0
C482 C 0.0583 0.01934 0.52519 0.0
C483 C 0.0693 0.01861 0.44003 0.0
C484 C 0.08847 0.02131 0.45694 0.0
C485 C 0.09242 0.02307 0.5084 0.0
C486 C 0.07753 0.02206 0.54212 0.0
C487 C 0.10422 0.0224 0.42064 0.0
C488 C 0.10614 0.00735 0.38731 0.0
C489 C 0.11724 0.03823 0.41843 0.0
C490 C 0.11493 0.05542 0.44888 0.0
C491 C 0.13018 0.06245 0.47976 0.0
C492 C 0.128 0.0787 0.5083 0.0
C493 C 0.11066 0.0881 0.50602 0.0
C494 C 0.09548 0.08132 0.47504 0.0
C495 C 0.09759 0.06511 0.44639 0.0
H496 H 0.10899 0.10065 0.52819 0.0
H497 H 0.12172 0.9506 0.22142 0.0
H498 H 0.50244 0.14877 0.18279 0.0
H499 H 0.4984 0.1245 0.24778 0.0
H500 H 0.48817 0.16826 0.35374 0.0
H501 H 0.49198 0.19257 0.28872 0.0
H502 H 0.51654 0.14412 0.38634 0.0
H503 H 0.45212 0.13893 0.32898 0.0
H504 H 0.42414 0.13606 0.27052 0.0
H505 H 0.44323 0.08227 0.22113 0.0
H506 H 0.47139 0.0848 0.27944 0.0
H507 H 0.49866 0.07774 0.5822 0.0
H508 H 0.49511 0.10341 0.52066 0.0
H509 H 0.50085 0.06324 0.40249 0.0
H510 H 0.5042 0.03768 0.4633 0.0
H511 H 0.4738 0.08648 0.37769 0.0
H512 H 0.53836 0.09362 0.4422 0.0
H513 H 0.56408 0.09745 0.50706 0.0
H514 H 0.54092 0.15025 0.55114 0.0
H515 H 0.51489 0.1466 0.48695 0.0
C516 C 0.49897 0.15316 0.21973 0.0
C517 C 0.49747 0.17256 0.23063 0.0
C518 C 0.49661 0.13929 0.25681 0.0
C519 C 0.49298 0.14456 0.30568 0.0
C520 C 0.49093 0.16387 0.31631 0.0
C521 C 0.49297 0.17773 0.27904 0.0
C522 C 0.49295 0.13002 0.34618 0.0
C523 C 0.50679 0.13179 0.38528 0.0
C524 C 0.48055 0.11372 0.34424 0.0
C525 C 0.46406 0.11224 0.3079 0.0
C526 C 0.4505 0.1266 0.30517 0.0
C527 C 0.43456 0.12499 0.2723 0.0
C528 C 0.43201 0.10908 0.24187 0.0
C529 C 0.44532 0.09465 0.24454 0.0
C530 C 0.46125 0.09614 0.27761 0.0
C531 C 0.4991 0.07438 0.54312 0.0
C532 C 0.50173 0.05561 0.52782 0.0
C533 C 0.49717 0.08908 0.50794 0.0
C534 C 0.49803 0.08534 0.45683 0.0
C535 C 0.50019 0.06655 0.44158 0.0
C536 C 0.50207 0.0519 0.47658 0.0
C537 C 0.49679 0.10092 0.41904 0.0
C538 C 0.48304 0.09914 0.37973 0.0
C539 C 0.50889 0.11747 0.42166 0.0
C540 C 0.52456 0.11973 0.46014 0.0
C541 C 0.53866 0.10597 0.46599 0.0
C542 C 0.55331 0.10813 0.50258 0.0
C543 C 0.5541 0.12406 0.53329 0.0
C544 C 0.54027 0.1379 0.52738 0.0
C545 C 0.52557 0.1358 0.49088 0.0
H546 H 0.56546 0.1257 0.5616 0.0
H547 H 0.41967 0.10791 0.21642 0.0
H548 H 0.34932 0.45664 0.24465 0.0
H549 H 0.37493 0.46479 0.30553 0.0
H550 H 0.4064 0.49436 0.19213 0.0
H551 H 0.38063 0.486 0.13026 0.0
H552 H 0.42921 0.47029 0.2527 0.0
H553 H 0.38525 0.51993 0.27412 0.0
H554 H 0.35368 0.53359 0.28572 0.0
H555 H 0.34892 0.50331 0.42403 0.0
H556 H 0.38034 0.48923 0.41292 0.0
H557 H 0.49635 0.50841 0.43679 0.0
H558 H 0.4731 0.50448 0.36707 0.0
H559 H 0.43202 0.47934 0.46582 0.0
H560 H 0.45502 0.4836 0.53584 0.0
H561 H 0.4152 0.50432 0.40705 0.0
H562 H 0.45715 0.45253 0.38316 0.0
H563 H 0.48819 0.43768 0.37204 0.0
H564 H 0.49631 0.47083 0.23944 0.0
H565 H 0.46542 0.48607 0.25015 0.0
C566 C 0.36173 0.46479 0.23244 0.0
C567 C 0.36302 0.47054 0.18248 0.0
C568 C 0.3763 0.46957 0.26744 0.0
C569 C 0.39253 0.4803 0.25352 0.0
C570 C 0.39397 0.48609 0.20366 0.0
C571 C 0.37923 0.48141 0.16847 0.0
C572 C 0.40793 0.48513 0.2915 0.0
C573 C 0.42629 0.47807 0.28602 0.0
C574 C 0.40397 0.49488 0.3355 0.0
C575 C 0.38511 0.50342 0.34249 0.0
C576 C 0.37741 0.51607 0.30684 0.0
C577 C 0.35955 0.52391 0.31335 0.0
C578 C 0.34928 0.5193 0.35554 0.0
C579 C 0.35688 0.50687 0.39136 0.0
C580 C 0.37473 0.49897 0.385 0.0
C581 C 0.48241 0.50194 0.44367 0.0
C582 C 0.47758 0.49629 0.49198 0.0
C583 C 0.46913 0.49964 0.40366 0.0
C584 C 0.45081 0.49145 0.41097 0.0
C585 C 0.44602 0.48573 0.45916 0.0
C586 C 0.45924 0.48811 0.49919 0.0
C587 C 0.43645 0.48916 0.36884 0.0
C588 C 0.41824 0.49671 0.37354 0.0
C589 C 0.44053 0.47976 0.32431 0.0
C590 C 0.45908 0.4706 0.31777 0.0
C591 C 0.46563 0.45677 0.35186 0.0
C592 C 0.48318 0.44826 0.34559 0.0
C593 C 0.49424 0.45335 0.30515 0.0
C594 C 0.48775 0.46693 0.2708 0.0
C595 C 0.47021 0.47549 0.27693 0.0
H596 H 0.50783 0.44675 0.30035 0.0
H597 H 0.33546 0.52538 0.36051 0.0
H598 H 0.03676 0.33318 0.2933 0.0
H599 H 0.03045 0.35815 0.35209 0.0
H600 H 0.00541 0.39177 0.23326 0.0
H601 H 0.01207 0.36673 0.17359 0.0
H602 H 0.03028 0.41318 0.29204 0.0
H603 H 0.97722 0.37038 0.31977 0.0
H604 H 0.96096 0.33946 0.33631 0.0
H605 H 0.99247 0.33501 0.47583 0.0
H606 H 0.00913 0.3658 0.45982 0.0
H607 H 1.0003 0.48258 0.45964 0.0
H608 H 1.00072 0.45804 0.39634 0.0
H609 H 0.02156 0.41806 0.5065 0.0
H610 H 0.02039 0.44246 0.57061 0.0
H611 H 0.99648 0.40054 0.44814 0.0
H612 H 0.05111 0.44183 0.41816 0.0
H613 H 0.06791 0.4724 0.40205 0.0
H614 H 0.03407 0.4795 0.2671 0.0
H615 H 0.01676 0.449 0.28282 0.0
C616 C 0.02984 0.34585 0.27953 0.0
C617 C 0.02502 0.34796 0.22855 0.0
C618 C 0.02611 0.3601 0.31338 0.0
C619 C 0.01732 0.37688 0.29742 0.0
C620 C 0.01218 0.37897 0.24662 0.0
C621 C 0.01585 0.36458 0.21257 0.0
C622 C 0.01422 0.39234 0.33383 0.0
C623 C 0.02256 0.4105 0.3257 0.0
C624 C 1.00457 0.38884 0.37853 0.0
C625 C 0.99454 0.37034 0.38839 0.0
C626 C 0.98079 0.36274 0.35381 0.0
C627 C 0.97149 0.34525 0.36313 0.0
C628 C 0.97571 0.33526 0.40705 0.0
C629 C 0.98922 0.34276 0.44181 0.0
C630 C 0.99859 0.36025 0.43266 0.0
C631 C 1.00499 0.46857 0.47054 0.0
C632 C 0.01043 0.46457 0.52033 0.0
C633 C 1.00531 0.45451 0.43408 0.0
C634 C 0.01155 0.43617 0.44608 0.0
C635 C 0.01673 0.43206 0.49598 0.0
C636 C 0.01612 0.44606 0.53269 0.0
C637 C 0.01275 0.42133 0.40673 0.0
C638 C 1.00407 0.40328 0.41431 0.0
C639 C 0.02213 0.42493 0.3616 0.0
C640 C 0.0325 0.44324 0.35196 0.0
C641 C 0.04712 0.44999 0.38529 0.0
C642 C 0.05674 0.46732 0.37622 0.0
C643 C 0.05204 0.47796 0.33369 0.0
C644 C 0.03765 0.47129 0.30014 0.0
C645 C 0.02793 0.45397 0.30908 0.0
H646 H 0.05965 0.49128 0.3265 0.0
H647 H 0.96849 0.32172 0.41419 0.0
H648 H 0.8624 0.96553 0.03871 0.0
H649 H 0.8872 0.9666 0.97725 0.0
H650 H 0.87135 0.02329 0.93423 0.0
H651 H 0.84656 0.02242 0.99607 0.0
H652 H 0.87539 1.00155 0.85342 0.0
H653 H 0.9148 0.0153 1.00278 0.0
H654 H 0.92638 0.00872 0.08878 0.0
H655 H 0.94416 0.95364 0.0452 0.0
H656 H 0.93253 0.95989 0.95898 0.0
H657 H 0.95271 0.02765 0.70383 0.0
H658 H 0.92887 0.02485 0.76735 0.0
H659 H 0.95194 0.97136 0.81609 0.0
H660 H 0.97649 0.97454 0.7536 0.0
H661 H 0.94387 0.98956 0.89391 0.0
H662 H 0.90745 0.97552 0.74521 0.0
H663 H 0.89511 0.97998 0.65901 0.0
H664 H 0.8699 0.03221 0.69963 0.0
H665 H 0.88232 0.0282 0.78597 0.0
C666 C 0.86439 0.97843 0.01704 0.0
C667 C 0.85239 0.99393 0.02294 0.0
C668 C 0.87861 0.97898 0.98157 0.0
C669 C 0.88138 0.9951 0.95107 0.0
C670 C 0.86955 0.01065 0.95706 0.0
C671 C 0.85531 0.01012 0.99255 0.0
C672 C 0.89617 0.99553 0.91204 0.0
C673 C 0.89041 0.99922 0.86242 0.0
C674 C 0.91569 0.99171 0.92304 0.0
C675 C 0.92286 0.98806 0.97458 0.0
C676 C 0.92117 1.00179 0.01161 0.0
C677 C 0.92774 0.99812 0.06035 0.0
C678 C 0.93605 0.98078 0.07241 0.0
C679 C 0.93782 0.96709 0.03574 0.0
C680 C 0.9313 0.97071 0.98694 0.0
C681 C 0.95268 0.01518 0.72772 0.0
C682 C 0.9665 1.00125 0.72307 0.0
C683 C 0.93889 0.01354 0.76412 0.0
C684 C 0.93815 0.99768 0.79632 0.0
C685 C 0.95201 0.98374 0.79186 0.0
C686 C 0.96604 0.98553 0.75584 0.0
C687 C 0.9232 0.99596 0.83504 0.0
C688 C 0.92888 0.99193 0.88465 0.0
C689 C 0.9035 0.99917 0.82384 0.0
C690 C 0.89597 1.00164 0.77198 0.0
C691 C 0.89939 0.98803 0.73569 0.0
C692 C 0.89237 0.99047 0.68681 0.0
C693 C 0.88177 0.0064 0.67383 0.0
C694 C 0.87813 0.01989 0.70973 0.0
C695 C 0.88514 0.01753 0.75866 0.0
H696 H 0.87634 0.00826 0.63596 0.0
H697 H 0.94109 0.97795 0.11018 0.0
H698 H 0.50341 0.88184 0.08946 0.0
H699 H 0.50727 0.90473 0.02206 0.0
H700 H 0.55 0.87001 0.95994 0.0
H701 H 0.54499 0.84619 0.02482 0.0
H702 H 0.53142 0.92717 0.98481 0.0
H703 H 0.5482 0.87201 0.83538 0.0
H704 H 0.54243 0.83784 0.81819 0.0
H705 H 0.49218 0.83738 0.90521 0.0
H706 H 0.49752 0.87158 0.92236 0.0
H707 H 0.5503 0.97884 0.76312 0.0
H708 H 0.5533 0.95652 0.83297 0.0
H709 H 0.50133 0.92681 0.78166 0.0
H710 H 0.49848 0.9487 0.71125 0.0
H711 H 0.52557 0.90202 0.81323 0.0
H712 H 0.5026 0.95977 0.87509 0.0
H713 H 0.5027 0.99419 0.89139 0.0
H714 H 0.55481 0.98999 0.98029 0.0
H715 H 0.55514 0.95554 0.96404 0.0
C716 C 0.5136 0.87896 0.06141 0.0
C717 C 0.52347 0.86179 0.0622 0.0
C718 C 0.51596 0.89225 0.02301 0.0
C719 C 0.52853 0.88894 0.98477 0.0
C720 C 0.53975 0.87269 0.98799 0.0
C721 C 0.53709 0.85916 0.02584 0.0
C722 C 0.52888 0.90185 0.94032 0.0
C723 C 0.53028 0.92164 0.94732 0.0
C724 C 0.52686 0.89479 0.89114 0.0
C725 C 0.52341 0.87428 0.88061 0.0
C726 C 0.5359 0.86461 0.85071 0.0
C727 C 0.5327 0.84525 0.84099 0.0
C728 C 0.51699 0.83543 0.86075 0.0
C729 C 0.50439 0.84498 0.89008 0.0
C730 C 0.5075 0.86435 0.89984 0.0
C731 C 0.53961 0.96743 0.76636 0.0
C732 C 0.5241 0.96563 0.73149 0.0
C733 C 0.5413 0.95472 0.80656 0.0
C734 C 0.5274 0.94009 0.81317 0.0
C735 C 0.51226 0.93793 0.77752 0.0
C736 C 0.51064 0.95052 0.73718 0.0
C737 C 0.52821 0.92732 0.85774 0.0
C738 C 0.52698 0.90756 0.85072 0.0
C739 C 0.52953 0.93445 0.90689 0.0
C740 C 0.52916 0.95513 0.91736 0.0
C741 C 0.51421 0.9662 0.89765 0.0
C742 C 0.51415 0.98572 0.90702 0.0
C743 C 0.52882 0.99429 0.93659 0.0
C744 C 0.54351 0.98334 0.95716 0.0
C745 C 0.54365 0.96383 0.94787 0.0
H746 H 0.52875 0.00941 0.94377 0.0
H747 H 0.51456 0.82044 0.85323 0.0
H748 H 0.67238 0.52933 0.03831 0.0
H749 H 0.64674 0.52071 0.97712 0.0
H750 H 0.62312 0.5762 0.99109 0.0
H751 H 0.64861 0.58484 0.05266 0.0
H752 H 0.59479 0.54727 0.98317 0.0
H753 H 0.65109 0.56856 0.89814 0.0
H754 H 0.6853 0.56853 0.87864 0.0
H755 H 0.67899 0.51031 0.83254 0.0
H756 H 0.64478 0.50991 0.85249 0.0
H757 H 0.53853 0.54826 0.75561 0.0
H758 H 0.56095 0.55565 0.82555 0.0
H759 H 0.5906 0.50403 0.7995 0.0
H760 H 0.56872 0.49689 0.72894 0.0
H761 H 0.61567 0.53122 0.8151 0.0
H762 H 0.55955 0.50944 0.89872 0.0
H763 H 0.5254 0.50883 0.91905 0.0
H764 H 0.53112 0.56667 0.96853 0.0
H765 H 0.56526 0.56771 0.94787 0.0
C766 C 0.66149 0.53955 0.02917 0.0
C767 C 0.6626 0.55781 0.05014 0.0
C768 C 0.64693 0.53466 0.99389 0.0
C769 C 0.63315 0.54791 0.97901 0.0
C770 C 0.63363 0.56578 1.00184 0.0
C771 C 0.64826 0.57073 0.03682 0.0
C772 C 0.61899 0.54357 0.93756 0.0
C773 C 0.59931 0.54393 0.94627 0.0
C774 C 0.6249 0.5389 0.88962 0.0
C775 C 0.64543 0.53915 0.8773 0.0
C776 C 0.65703 0.55571 0.88422 0.0
C777 C 0.67642 0.55578 0.87303 0.0
C778 C 0.68432 0.53941 0.85449 0.0
C779 C 0.67285 0.52296 0.84698 0.0
C780 C 0.65346 0.52281 0.8582 0.0
C781 C 0.5498 0.53846 0.76491 0.0
C782 C 0.55182 0.52199 0.73656 0.0
C783 C 0.56256 0.54265 0.80513 0.0
C784 C 0.57741 0.5303 0.81837 0.0
C785 C 0.57934 0.51382 0.79015 0.0
C786 C 0.56675 0.50974 0.74975 0.0
C787 C 0.59132 0.53468 0.86058 0.0
C788 C 0.61103 0.53444 0.85198 0.0
C789 C 0.58541 0.53932 0.90864 0.0
C790 C 0.56491 0.53871 0.92129 0.0
C791 C 0.55349 0.52208 0.9136 0.0
C792 C 0.53414 0.52164 0.92523 0.0
C793 C 0.52608 0.53771 0.94494 0.0
C794 C 0.53737 0.55424 0.95319 0.0
C795 C 0.55673 0.55476 0.94157 0.0
H796 H 0.5111 0.53735 0.95392 0.0
H797 H 0.69933 0.53949 0.84584 0.0
H798 H 0.00786 0.67762 0.00826 0.0
H799 H 0.01293 0.65303 0.94685 0.0
H800 H 0.96017 0.6242 0.98631 0.0
H801 H 0.95548 0.64818 0.04923 0.0
H802 H 0.98527 0.59877 0.97042 0.0
H803 H 0.96341 0.65317 0.88003 0.0
H804 H 0.96347 0.68681 0.8534 0.0
H805 H 0.01973 0.68183 0.79691 0.0
H806 H 0.0201 0.6482 0.82382 0.0
H807 H 0.97277 0.54066 0.7561 0.0
H808 H 0.96879 0.56441 0.81999 0.0
H809 H 0.02171 0.59283 0.77978 0.0
H810 H 0.02553 0.56933 0.71472 0.0
H811 H 0.9966 0.61839 0.79646 0.0
H812 H 0.01649 0.56197 0.88554 0.0
H813 H 0.01408 0.52824 0.91109 0.0
H814 H 0.95876 0.53702 0.96958 0.0
H815 H 0.96057 0.57066 0.94305 0.0
C816 C 0.99752 0.66586 1.00467 0.0
C817 C 0.98115 0.66509 0.03369 0.0
C818 C 1.0003 0.65189 0.96891 0.0
C819 C 0.98674 0.63686 0.96092 0.0
C820 C 0.97082 0.63564 0.99125 0.0
C821 C 0.96807 0.64952 0.0271 0.0
C822 C 0.98887 0.6226 0.92057 0.0
C823 C 0.98758 0.6031 0.93231 0.0
C824 C 0.99204 0.62807 0.87069 0.0
C825 C 0.99187 0.64825 0.85444 0.0
C826 C 0.97585 0.6593 0.86229 0.0
C827 C 0.9758 0.67835 0.84708 0.0
C828 C 0.99162 0.68647 0.82362 0.0
C829 C 0.00751 0.67553 0.81518 0.0
C830 C 0.00764 0.65647 0.83037 0.0
C831 C 0.98357 0.55199 0.76061 0.0
C832 C 0.99955 0.55297 0.73018 0.0
C833 C 0.98131 0.56557 0.79755 0.0
C834 C 0.99512 0.58035 0.80569 0.0
C835 C 0.01086 0.58159 0.7746 0.0
C836 C 0.01305 0.56809 0.73733 0.0
C837 C 0.99321 0.59453 0.84636 0.0
C838 C 0.99445 0.61404 0.83463 0.0
C839 C 0.9897 0.58905 0.89612 0.0
C840 C 0.98861 0.5688 0.91197 0.0
C841 C 1.00374 0.55666 0.90346 0.0
C842 C 1.00247 0.53756 0.91807 0.0
C843 C 0.98626 0.53048 0.94184 0.0
C844 C 0.97131 0.54251 0.95117 0.0
C845 C 0.97241 0.56158 0.9362 0.0
H846 H 0.9853 0.51568 0.9531 0.0
H847 H 0.99155 0.70122 0.81186 0.0
H848 H 0.09679 0.18384 0.12759 0.0
H849 H 0.08899 0.15408 0.16903 0.0
H850 H 0.10467 0.17918 0.31072 0.0
H851 H 0.11374 0.20898 0.26941 0.0
H852 H 0.10227 0.12754 0.25823 0.0
H853 H 0.06065 0.1815 0.35672 0.0
H854 H 0.05151 0.21501 0.34698 0.0
H855 H 0.0466 0.20833 0.18862 0.0
H856 H 0.05531 0.17472 0.19763 0.0
H857 H 0.04349 0.08294 0.44095 0.0
H858 H 0.06589 0.10322 0.39508 0.0
H859 H 0.02132 0.11399 0.28389 0.0
H860 H 0.99872 0.09383 0.33006 0.0
H861 H 0.03936 0.1466 0.31827 0.0
H862 H 0.05717 0.08542 0.26069 0.0
H863 H 0.06807 0.05249 0.26828 0.0
H864 H 0.12081 0.07269 0.33981 0.0
H865 H 0.10998 0.10548 0.33444 0.0
C866 C 0.09982 0.1829 0.16723 0.0
C867 C 0.10521 0.19917 0.19533 0.0
C868 C 0.09529 0.16572 0.1909 0.0
C869 C 0.09584 0.16467 0.24281 0.0
C870 C 0.10401 0.17987 0.27049 0.0
C871 C 0.10892 0.19697 0.24678 0.0
C872 C 0.08321 0.15054 0.26707 0.0
C873 C 0.08858 0.1316 0.27185 0.0
C874 C 0.06519 0.15592 0.2834 0.0
C875 C 0.05876 0.17571 0.27786 0.0
C876 C 0.05743 0.18717 0.31991 0.0
C877 C 0.05235 0.20617 0.31451 0.0
C878 C 0.04851 0.21381 0.2672 0.0
C879 C 0.04958 0.20241 0.22523 0.0
C880 C 0.05457 0.18339 0.23047 0.0
C881 C 0.03848 0.08965 0.4067 0.0
C882 C 0.01933 0.08704 0.38923 0.0
C883 C 0.05133 0.10105 0.38036 0.0
C884 C 0.04526 0.11001 0.33609 0.0
C885 C 0.02624 0.10714 0.31802 0.0
C886 C 0.0134 0.09562 0.34422 0.0
C887 C 0.0584 0.12336 0.31039 0.0
C888 C 0.05306 0.14233 0.3051 0.0
C889 C 0.07636 0.11786 0.2935 0.0
C890 C 0.08267 0.09794 0.29752 0.0
C891 C 0.07098 0.08279 0.27871 0.0
C892 C 0.07715 0.06411 0.28265 0.0
C893 C 0.09509 0.06042 0.30472 0.0
C894 C 0.10688 0.07542 0.32296 0.0
C895 C 0.10071 0.09407 0.3196 0.0
H896 H 0.09988 0.04595 0.30746 0.0
H897 H 0.04471 0.22855 0.26306 0.0
H898 H 0.34688 0.12481 0.16219 0.0
H899 H 0.37758 0.11926 0.20566 0.0
H900 H 0.34793 0.09473 0.3293 0.0
H901 H 0.31748 0.09908 0.28571 0.0
H902 H 0.38542 0.11103 0.35529 0.0
H903 H 0.35199 0.06689 0.23905 0.0
H904 H 0.3368 0.05898 0.15732 0.0
H905 H 0.38949 0.07338 0.0868 0.0
H906 H 0.40492 0.08156 0.16818 0.0
H907 H 0.42138 0.02597 0.44897 0.0
H908 H 0.40348 0.05208 0.41263 0.0
H909 H 0.44236 0.05603 0.29209 0.0
H910 H 0.45994 0.02925 0.32722 0.0
H911 H 0.407 0.05669 0.25772 0.0
H912 H 0.44192 0.0915 0.38286 0.0
H913 H 0.45589 0.09839 0.46681 0.0
H914 H 0.39933 0.10028 0.5232 0.0
H915 H 0.38521 0.0932 0.43973 0.0
C916 C 0.34683 0.11876 0.19928 0.0
C917 C 0.32967 0.11152 0.21921 0.0
C918 C 0.36442 0.1158 0.22425 0.0
C919 C 0.36493 0.10607 0.2699 0.0
C920 C 0.34779 0.10212 0.29381 0.0
C921 C 0.33025 0.10471 0.26857 0.0
C922 C 0.38211 0.09574 0.2866 0.0
C923 C 0.39035 0.09925 0.33399 0.0
C924 C 0.38857 0.0805 0.25834 0.0
C925 C 0.37947 0.07524 0.20951 0.0
C926 C 0.36027 0.06854 0.20605 0.0
C927 C 0.35164 0.06395 0.15982 0.0
C928 C 0.36214 0.06579 0.11685 0.0
C929 C 0.38134 0.07208 0.12009 0.0
C930 C 0.39004 0.07671 0.16626 0.0
C931 C 0.42603 0.0322 0.41438 0.0
C932 C 0.44199 0.02534 0.39074 0.0
C933 C 0.416 0.04745 0.3942 0.0
C934 C 0.42185 0.05638 0.35026 0.0
C935 C 0.43776 0.04957 0.32644 0.0
C936 C 0.44778 0.03424 0.34654 0.0
C937 C 0.41021 0.07163 0.32725 0.0
C938 C 0.40278 0.06888 0.27864 0.0
C939 C 0.40437 0.08739 0.35475 0.0
C940 C 0.41264 0.09172 0.40514 0.0
C941 C 0.43259 0.09328 0.41335 0.0
C942 C 0.4405 0.09723 0.46076 0.0
C943 C 0.42851 0.09973 0.50034 0.0
C944 C 0.40861 0.09834 0.4925 0.0
C945 C 0.40066 0.09439 0.44509 0.0
H946 H 0.43464 0.10278 0.53706 0.0
H947 H 0.35542 0.06226 0.08107 0.0
H948 H 0.58894 0.2759 0.3427 0.0
H949 H 0.59896 0.29671 0.41127 0.0
H950 H 0.62744 0.33478 0.30944 0.0
H951 H 0.61871 0.31334 0.24104 0.0
H952 H 0.64439 0.33783 0.39954 0.0
H953 H 0.57938 0.3382 0.32987 0.0
H954 H 0.54775 0.32365 0.30609 0.0
H955 H 0.53916 0.30782 0.45816 0.0
H956 H 0.5709 0.32204 0.48268 0.0
H957 H 0.61441 0.43068 0.44711 0.0
H958 H 0.62373 0.39944 0.42077 0.0
H959 H 0.60151 0.37436 0.55421 0.0
H960 H 0.59277 0.40579 0.58213 0.0
H961 H 0.58414 0.36047 0.467 0.0
H962 H 0.6474 0.36971 0.53534 0.0
H963 H 0.67828 0.38679 0.55279 0.0
H964 H 0.68948 0.38777 0.39718 0.0
H965 H 0.65853 0.37095 0.37864 0.0
C966 C 0.59809 0.28821 0.33499 0.0
C967 C 0.60252 0.29322 0.28593 0.0
C968 C 0.60368 0.30021 0.37436 0.0
C969 C 0.61335 0.31762 0.36519 0.0
C970 C 0.61974 0.32155 0.31733 0.0
C971 C 0.61448 0.30938 0.27808 0.0
C972 C 0.61384 0.33306 0.40246 0.0
C973 C 0.63127 0.34277 0.41454 0.0
C974 C 0.59671 0.33935 0.42255 0.0
C975 C 0.57758 0.33094 0.40798 0.0
C976 C 0.57078 0.3315 0.35816 0.0
C977 C 0.55285 0.32333 0.34456 0.0
C978 C 0.54148 0.31476 0.38057 0.0
C979 C 0.54801 0.31441 0.43029 0.0
C980 C 0.56597 0.32251 0.44406 0.0
C981 C 0.61218 0.41871 0.47201 0.0
C982 C 0.60257 0.42079 0.51653 0.0
C983 C 0.61753 0.4008 0.45677 0.0
C984 C 0.61331 0.3846 0.48554 0.0
C985 C 0.60489 0.38672 0.5315 0.0
C986 C 0.59974 0.40468 0.54711 0.0
C987 C 0.61465 0.36552 0.46344 0.0
C988 C 0.59743 0.35519 0.45367 0.0
C989 C 0.63189 0.35902 0.4447 0.0
C990 C 0.65056 0.36912 0.45559 0.0
C991 C 0.65637 0.37369 0.50477 0.0
C992 C 0.67391 0.38331 0.51487 0.0
C993 C 0.68582 0.38839 0.47611 0.0
C994 C 0.68024 0.38383 0.42717 0.0
C995 C 0.66271 0.37421 0.41685 0.0
H996 H 0.6994 0.39583 0.48402 0.0
H997 H 0.52759 0.30844 0.36998 0.0
H998 H 0.22413 0.4504 0.26995 0.0
H999 H 0.19837 0.45895 0.32257 0.0
H1000 H 0.16403 0.41078 0.26822 0.0
H1001 H 0.18975 0.40264 0.21341 0.0
H1002 H 0.14353 0.43931 0.26252 0.0
H1003 H 0.18164 0.41485 0.39461 0.0
H1004 H 0.2106 0.40906 0.44712 0.0
H1005 H 0.21543 0.46834 0.48384 0.0
H1006 H 0.18667 0.47457 0.43096 0.0
H1007 H 0.09639 0.48377 0.49569 0.0
H1008 H 0.11722 0.46077 0.45992 0.0
H1009 H 0.11726 0.49321 0.32314 0.0
H1010 H 0.09614 0.5161 0.35849 0.0
H1011 H 0.15152 0.46456 0.43363 0.0
H1012 H 0.12273 0.47117 0.23125 0.0
H1013 H 0.09211 0.47022 0.18202 0.0
H1014 H 0.06609 0.43564 0.29461 0.0
H1015 H 0.09623 0.43723 0.34557 0.0
C1016 C 0.21132 0.44127 0.2703 0.0
C1017 C 0.20895 0.42579 0.23784 0.0
C1018 C 0.19657 0.44615 0.3006 0.0
C1019 C 0.17927 0.43539 0.30002 0.0
C1020 C 0.17723 0.41931 0.26936 0.0
C1021 C 0.19192 0.41462 0.23823 0.0
C1022 C 0.16274 0.44236 0.32692 0.0
C1023 C 0.14527 0.44457 0.30021 0.0
C1024 C 0.16465 0.44881 0.3766 0.0
C1025 C 0.182 0.44518 0.40857 0.0
C1026 C 0.18894 0.42668 0.4136 0.0
C1027 C 0.20532 0.42332 0.44349 0.0
C1028 C 0.21486 0.43832 0.46876 0.0
C1029 C 0.20802 0.45672 0.46426 0.0
C1030 C 0.19165 0.46017 0.43439 0.0
C1031 C 0.10092 0.48607 0.45805 0.0
C1032 C 0.09479 0.50189 0.43006 0.0
C1033 C 0.11267 0.47279 0.43749 0.0
C1034 C 0.11863 0.47507 0.38859 0.0
C1035 C 0.11244 0.49081 0.36046 0.0
C1036 C 0.10052 0.50401 0.38086 0.0
C1037 C 0.1327 0.46207 0.36849 0.0
C1038 C 0.14972 0.45886 0.3964 0.0
C1039 C 0.13014 0.454 0.32076 0.0
C1040 C 0.11162 0.45446 0.29226 0.0
C1041 C 0.11036 0.46362 0.24573 0.0
C1042 C 0.09307 0.46306 0.21771 0.0
C1043 C 0.07709 0.45304 0.23543 0.0
C1044 C 0.07835 0.44368 0.28136 0.0
C1045 C 0.09546 0.4446 0.31009 0.0
H1046 H 0.06377 0.45243 0.21348 0.0
H1047 H 0.22754 0.43568 0.49187 0.0
H1048 H 0.89917 0.83155 0.02714 0.0
H1049 H 0.90471 0.85843 0.97041 0.0
H1050 H 0.94109 0.82383 0.88488 0.0
H1051 H 0.93536 0.79722 0.9401 0.0
H1052 H 0.93676 0.87543 0.96604 0.0
H1053 H 0.94922 0.83869 0.77415 0.0
H1054 H 0.9321 0.81559 0.71878 0.0
H1055 H 0.879 0.82736 0.78567 0.0
H1056 H 0.89571 0.85077 0.84095 0.0
H1057 H 0.01994 0.90992 0.86358 0.0
H1058 H 0.9933 0.89026 0.89428 0.0
H1059 H 0.95676 0.90932 0.77202 0.0
H1060 H 0.98348 0.92864 0.74067 0.0
H1061 H 0.94991 0.87348 0.78657 0.0
H1062 H 0.95274 0.92721 0.88756 0.0
H1063 H 0.96765 0.95259 0.93991 0.0
H1064 H 0.98368 0.91133 0.051 0.0
H1065 H 0.96948 0.88557 0.99861 0.0
C1066 C 0.90779 0.82956 0.99513 0.0
C1067 C 0.91692 0.8123 0.98834 0.0
C1068 C 0.91095 0.84491 0.96275 0.0
C1069 C 0.92333 0.84323 0.92323 0.0
C1070 C 0.9311 0.82549 0.91418 0.0
C1071 C 0.92782 0.81017 0.9461 0.0
C1072 C 0.93115 0.86034 0.89733 0.0
C1073 C 0.93932 0.87516 0.92662 0.0
C1074 C 0.93392 0.86049 0.84552 0.0
C1075 C 0.92376 0.84652 0.81186 0.0
C1076 C 0.93386 0.8365 0.77682 0.0
C1077 C 0.92423 0.8233 0.7455 0.0
C1078 C 0.90448 0.82 0.74873 0.0
C1079 C 0.89431 0.8299 0.78327 0.0
C1080 C 0.90386 0.84312 0.81467 0.0
C1081 C 0.00625 0.90979 0.84321 0.0
C1082 C 1.00376 0.92071 0.79979 0.0
C1083 C 0.99102 0.89869 0.86085 0.0
C1084 C 0.97292 0.89865 0.83598 0.0
C1085 C 0.97056 0.90919 0.79188 0.0
C1086 C 0.98585 0.92013 0.77392 0.0
C1087 C 0.95663 0.88745 0.85619 0.0
C1088 C 0.94686 0.87396 0.8257 0.0
C1089 C 0.95183 0.88892 0.90653 0.0
C1090 C 0.96007 0.9044 0.93892 0.0
C1091 C 0.95955 0.9235 0.92299 0.0
C1092 C 0.96793 0.93796 0.95264 0.0
C1093 C 0.97659 0.93357 0.99875 0.0
C1094 C 0.97694 0.9147 0.01527 0.0
C1095 C 0.96876 0.90015 0.98555 0.0
H1096 H 0.983 0.94481 0.02173 0.0
H1097 H 0.89706 0.80976 0.72446 0.0
H1098 H 0.70038 0.89691 0.9882 0.0
H1099 H 0.67487 0.90265 0.92541 0.0
H1100 H 0.71099 0.94563 0.85723 0.0
H1101 H 0.73628 0.93977 0.9184 0.0
H1102 H 0.65818 0.93367 0.92756 0.0
H1103 H 0.6969 0.95978 0.74723 0.0
H1104 H 0.72094 0.94796 0.69157 0.0
H1105 H 0.709 0.89074 0.74086 0.0
H1106 H 0.68465 0.90214 0.79627 0.0
H1107 H 0.62512 0.01966 0.84198 0.0
H1108 H 0.64577 0.99336 0.86596 0.0
H1109 H 0.62287 0.96083 0.74094 0.0
H1110 H 0.60232 0.98713 0.71655 0.0
H1111 H 0.66164 0.95717 0.75385 0.0
H1112 H 0.60672 0.94969 0.84823 0.0
H1113 H 0.58084 0.95986 0.90038 0.0
H1114 H 0.62203 0.97452 0.01751 0.0
H1115 H 0.64827 0.96484 0.9655 0.0
C1116 C 0.7031 0.90701 0.95851 0.0
C1117 C 0.72024 0.91808 0.95881 0.0
C1118 C 0.68852 0.91027 0.92262 0.0
C1119 C 0.69087 0.9247 0.88669 0.0
C1120 C 0.7088 0.93418 0.88376 0.0
C1121 C 0.72337 0.93081 0.91919 0.0
C1122 C 0.67398 0.93294 0.86027 0.0
C1123 C 0.65882 0.93843 0.88924 0.0
C1124 C 0.67438 0.93881 0.80985 0.0
C1125 C 0.68892 0.93185 0.7761 0.0
C1126 C 0.69926 0.94465 0.74595 0.0
C1127 C 0.71299 0.93803 0.71449 0.0
C1128 C 0.71651 0.91861 0.71271 0.0
C1129 C 0.70629 0.90578 0.74236 0.0
C1130 C 0.69254 0.91232 0.77387 0.0
C1131 C 0.62466 0.00697 0.81942 0.0
C1132 C 0.61224 0.00545 0.77735 0.0
C1133 C 0.63639 0.99197 0.8331 0.0
C1134 C 0.63567 0.97511 0.80536 0.0
C1135 C 0.62367 0.97375 0.7626 0.0
C1136 C 0.61201 0.9888 0.74872 0.0
C1137 C 0.64703 0.95877 0.82245 0.0
C1138 C 0.66091 0.95184 0.79166 0.0
C1139 C 0.64521 0.95112 0.87075 0.0
C1140 C 0.62948 0.95659 0.90282 0.0
C1141 C 0.61028 0.95517 0.88501 0.0
C1142 C 0.59553 0.96085 0.91457 0.0
C1143 C 0.59977 0.96783 0.9623 0.0
C1144 C 0.61877 0.9691 0.98055 0.0
C1145 C 0.6336 0.9635 0.95103 0.0
H1146 H 0.58834 0.97225 0.98516 0.0
H1147 H 0.72716 0.91352 0.68835 0.0
H1148 H 0.40767 0.72199 0.99668 0.0
H1149 H 0.39976 0.69768 0.93395 0.0
H1150 H 0.45093 0.71387 0.85714 0.0
H1151 H 0.45864 0.73837 0.91883 0.0
H1152 H 0.42352 0.70007 0.79229 0.0
H1153 H 0.45292 0.68179 0.95073 0.0
H1154 H 0.45474 0.67956 0.04223 0.0
H1155 H 0.40125 0.6476 0.04027 0.0
H1156 H 0.39897 0.64994 0.94871 0.0
H1157 H 0.46337 0.61506 0.71244 0.0
H1158 H 0.45462 0.64539 0.7465 0.0
H1159 H 0.40592 0.61793 0.81446 0.0
H1160 H 0.41538 0.5873 0.78344 0.0
H1161 H 0.42572 0.63773 0.87966 0.0
H1162 H 0.40115 0.65125 0.71473 0.0
H1163 H 0.4027 0.65301 0.62348 0.0
H1164 H 0.45035 0.69303 0.63686 0.0
H1165 H 0.44921 0.69138 0.7282 0.0
C1166 C 0.41687 0.72073 0.96549 0.0
C1167 C 0.4339 0.73182 0.96295 0.0
C1168 C 0.41233 0.70689 0.92967 0.0
C1169 C 0.42501 0.7037 0.89162 0.0
C1170 C 0.44097 0.71608 0.88623 0.0
C1171 C 0.44537 0.73006 0.92162 0.0
C1172 C 0.42375 0.68574 0.86329 0.0
C1173 C 0.42388 0.6864 0.8112 0.0
C1174 C 0.42416 0.66791 0.88807 0.0
C1175 C 0.42565 0.66624 0.94301 0.0
C1176 C 0.4415 0.67439 0.96987 0.0
C1177 C 0.44261 0.67311 0.02171 0.0
C1178 C 0.4281 0.66349 0.04706 0.0
C1179 C 0.41246 0.65508 0.02059 0.0
C1180 C 0.41124 0.65639 0.96873 0.0
C1181 C 0.4508 0.61546 0.73465 0.0
C1182 C 0.44025 0.59869 0.74577 0.0
C1183 C 0.44559 0.6329 0.75336 0.0
C1184 C 0.42946 0.634 0.7826 0.0
C1185 C 0.41838 0.61743 0.79179 0.0
C1186 C 0.42374 0.59993 0.7737 0.0
C1187 C 0.42552 0.65191 0.80836 0.0
C1188 C 0.42466 0.65127 0.86028 0.0
C1189 C 0.42476 0.66968 0.78332 0.0
C1190 C 0.42512 0.67114 0.72835 0.0
C1191 C 0.41198 0.6604 0.69821 0.0
C1192 C 0.41279 0.66138 0.64647 0.0
C1193 C 0.42662 0.67312 0.62439 0.0
C1194 C 0.43963 0.68397 0.65401 0.0
C1195 C 0.43887 0.68306 0.70577 0.0
H1196 H 0.42726 0.67382 0.58433 0.0
H1197 H 0.42898 0.6625 0.0872 0.0
H1198 H 0.8019 0.59477 0.9543 0.0
H1199 H 0.82659 0.58195 0.90483 0.0
H1200 H 0.87034 0.60672 1.00383 0.0
H1201 H 0.84562 0.62079 0.0524 0.0
H1202 H 0.88282 0.60147 0.90468 0.0
H1203 H 0.85348 0.56616 0.03653 0.0
H1204 H 0.82601 0.55373 0.08312 0.0
H1205 H 0.80508 0.52224 0.9552 0.0
H1206 H 0.83224 0.53483 0.9075 0.0
H1207 H 0.94824 0.52661 0.87156 0.0
H1208 H 0.92803 0.55005 0.90852 0.0
H1209 H 0.87836 0.525 0.83056 0.0
H1210 H 0.89836 0.50105 0.79555 0.0
H1211 H 0.87082 0.53183 0.92326 0.0
H1212 H 0.90237 0.5671 0.79232 0.0
H1213 H 0.93045 0.58014 0.74909 0.0
H1214 H 0.9488 0.61147 0.87948 0.0
H1215 H 0.92111 0.59826 0.92394 0.0
C1216 C 0.8167 0.59847 0.96442 0.0
C1217 C 0.82169 0.60836 0.0085 0.0
C1218 C 0.83086 0.59095 0.93606 0.0
C1219 C 0.85021 0.59288 0.95171 0.0
C1220 C 0.85543 0.60487 0.99159 0.0
C1221 C 0.84124 0.61269 0.01966 0.0
C1222 C 0.86408 0.57942 0.93323 0.0
C1223 C 0.88035 0.58624 0.90894 0.0
C1224 C 0.86087 0.55958 0.93936 0.0
C1225 C 0.84479 0.55158 0.96832 0.0
C1226 C 0.84296 0.55668 0.01825 0.0
C1227 C 0.82744 0.54961 0.04485 0.0
C1228 C 0.81379 0.53723 0.02211 0.0
C1229 C 0.81566 0.53185 0.97275 0.0
C1230 C 0.83111 0.53895 0.9459 0.0
C1231 C 0.93295 0.52589 0.86328 0.0
C1232 C 0.92483 0.51189 0.83122 0.0
C1233 C 0.92148 0.53948 0.88365 0.0
C1234 C 0.90174 0.53945 0.87167 0.0
C1235 C 0.89359 0.52533 0.84014 0.0
C1236 C 0.90501 0.51169 0.82005 0.0
C1237 C 0.88932 0.55373 0.89285 0.0
C1238 C 0.87335 0.54704 0.91851 0.0
C1239 C 0.89306 0.57361 0.88843 0.0
C1240 C 0.90971 0.58158 0.86158 0.0
C1241 C 0.91247 0.57664 0.81192 0.0
C1242 C 0.92833 0.58407 0.7872 0.0
C1243 C 0.9414 0.59662 0.81153 0.0
C1244 C 0.93869 0.60172 0.86071 0.0
C1245 C 0.92292 0.59427 0.88569 0.0
H1246 H 0.95362 0.60241 0.79225 0.0
H1247 H 0.80178 0.53177 0.04275 0.0
H1248 H 0.99766 0.21229 0.86659 0.0
H1249 H 0.99512 0.18281 0.81825 0.0
H1250 H 0.05365 0.17076 0.86179 0.0
H1251 H 0.0564 0.20045 0.90789 0.0
H1252 H 0.04948 0.16165 0.77249 0.0
H1253 H 0.01131 0.14774 0.91321 0.0
H1254 H 0.9856 0.15216 0.97186 0.0
H1255 H 0.94326 0.14658 0.85247 0.0
H1256 H 0.96875 0.14237 0.79298 0.0
H1257 H 0.04246 0.05921 0.73871 0.0
H1258 H 0.04354 0.09061 0.7781 0.0
H1259 H 0.9994 0.10932 0.67439 0.0
H1260 H 0.99865 0.0782 0.63377 0.0
H1261 H 0.99518 0.11511 0.78934 0.0
H1262 H 0.03579 0.12763 0.65002 0.0
H1263 H 0.06275 0.12081 0.59719 0.0
H1264 H 0.1021 0.12656 0.72313 0.0
H1265 H 0.0753 0.1331 0.77691 0.0
C1266 C 0.00995 0.20333 0.86567 0.0
C1267 C 0.02727 0.20882 0.8908 0.0
C1268 C 0.00849 0.18637 0.83825 0.0
C1269 C 0.02413 0.17421 0.83654 0.0
C1270 C 0.04137 0.17976 0.86189 0.0
C1271 C 0.04294 0.19682 0.88837 0.0
C1272 C 0.0228 0.15581 0.80842 0.0
C1273 C 0.03763 0.15148 0.77677 0.0
C1274 C 0.0073 0.14238 0.81294 0.0
C1275 C 0.99195 0.14497 0.84857 0.0
C1276 C 0.99653 0.14761 0.89941 0.0
C1277 C 0.982 0.15005 0.93281 0.0
C1278 C 0.96281 0.14971 0.91588 0.0
C1279 C 0.95813 0.14688 0.86552 0.0
C1280 C 0.97261 0.14446 0.83194 0.0
C1281 C 0.0331 0.07006 0.72398 0.0
C1282 C 0.02055 0.06619 0.68286 0.0
C1283 C 0.03371 0.08798 0.74659 0.0
C1284 C 0.0215 0.10229 0.72931 0.0
C1285 C 0.00893 0.09849 0.68839 0.0
C1286 C 0.00863 0.08072 0.665 0.0
C1287 C 0.02183 0.12116 0.75422 0.0
C1288 C 0.00688 0.12545 0.78517 0.0
C1289 C 0.03737 0.13438 0.74993 0.0
C1290 C 0.05351 0.13064 0.71758 0.0
C1291 C 0.05017 0.12725 0.66655 0.0
C1292 C 0.06542 0.12348 0.63641 0.0
C1293 C 0.08412 0.1232 0.65681 0.0
C1294 C 0.0876 0.12675 0.70739 0.0
C1295 C 0.07239 0.13051 0.7377 0.0
H1296 H 0.09591 0.12027 0.63342 0.0
H1297 H 0.95158 0.1516 0.9418 0.0
H1298 H 0.33103 0.05085 0.92898 0.0
H1299 H 0.35994 0.04887 0.88166 0.0
H1300 H 0.3499 0.98831 0.86669 0.0
H1301 H 0.32122 0.99021 0.91648 0.0
H1302 H 0.38611 0.99404 0.87895 0.0
H1303 H 0.34035 0.02246 0.76843 0.0
H1304 H 0.31589 0.04509 0.74028 0.0
H1305 H 0.35706 0.09147 0.75794 0.0
H1306 H 0.38172 0.06914 0.78685 0.0
H1307 H 0.44649 0.99244 0.66253 0.0
H1308 H 0.41722 0.99291 0.71007 0.0
H1309 H 0.44033 0.04114 0.79261 0.0
H1310 H 0.46995 0.04038 0.74646 0.0
H1311 H 0.39726 0.04034 0.74218 0.0
H1312 H 0.4425 0.00948 0.85734 0.0
H1313 H 0.46617 0.9851 0.87806 0.0
H1314 H 0.42409 0.94099 0.84195 0.0
H1315 H 0.40025 0.96516 0.82019 0.0
C1316 C 0.33488 0.0371 0.91535 0.0
C1317 C 0.32359 0.02073 0.92586 0.0
C1318 C 0.35146 0.03598 0.88799 0.0
C1319 C 0.35703 0.01851 0.86897 0.0
C1320 C 0.34598 1.00202 0.88039 0.0
C1321 C 0.32952 1.0031 0.90877 0.0
C1322 C 0.37435 0.01764 0.83754 0.0
C1323 C 0.38831 0.00406 0.84873 0.0
C1324 C 0.37759 0.03066 0.79781 0.0
C1325 C 0.36284 0.04414 0.78022 0.0
C1326 C 0.34416 0.0375 0.76662 0.0
C1327 C 0.33026 0.05027 0.75049 0.0
C1328 C 0.33491 0.06971 0.74743 0.0
C1329 C 0.35348 0.07641 0.76037 0.0
C1330 C 0.36743 0.0637 0.77659 0.0
C1331 C 0.44533 1.00324 0.69059 0.0
C1332 C 0.46061 0.0164 0.70055 0.0
C1333 C 0.42859 1.00343 0.71787 0.0
C1334 C 0.42658 0.01702 0.75502 0.0
C1335 C 0.44157 0.0305 0.7642 0.0
C1336 C 0.45851 0.03003 0.73778 0.0
C1337 C 0.40889 0.01709 0.78445 0.0
C1338 C 0.39489 0.0304 0.77253 0.0
C1339 C 0.40546 1.00364 0.82273 0.0
C1340 C 0.41967 0.98912 0.83653 0.0
C1341 C 0.43836 0.99459 0.85331 0.0
C1342 C 0.4518 0.98081 0.86535 0.0
C1343 C 0.44667 0.96151 0.86114 0.0
C1344 C 0.42806 0.95595 0.84509 0.0
C1345 C 0.41457 0.96968 0.83293 0.0
H1346 H 0.4571 0.95087 0.87044 0.0
H1347 H 0.32413 0.07957 0.73494 0.0
H1348 H 0.51948 0.30212 0.8601 0.0
H1349 H 0.5176 0.32729 0.79653 0.0
H1350 H 0.49124 0.36368 0.9004 0.0
H1351 H 0.4927 0.33854 0.96338 0.0
H1352 H 0.47486 0.3675 0.80917 0.0
H1353 H 0.53978 0.36656 0.88068 0.0
H1354 H 0.57061 0.35173 0.9017 0.0
H1355 H 0.57862 0.34135 0.74714 0.0
H1356 H 0.54769 0.35591 0.72528 0.0
H1357 H 0.4954 0.46166 0.74048 0.0
H1358 H 0.49337 0.43053 0.78 0.0
H1359 H 0.52207 0.40616 0.65796 0.0
H1360 H 0.52454 0.43765 0.61817 0.0
H1361 H 0.53626 0.39284 0.74451 0.0
H1362 H 0.47348 0.39803 0.67199 0.0
H1363 H 0.44286 0.41324 0.65099 0.0
H1364 H 0.43056 0.41549 0.80573 0.0
H1365 H 0.46124 0.40054 0.82775 0.0
C1366 C 0.5129 0.31534 0.86897 0.0
C1367 C 0.50639 0.31838 0.91696 0.0
C1368 C 0.512 0.32979 0.83276 0.0
C1369 C 0.50457 0.34754 0.84387 0.0
C1370 C 0.49713 0.35019 0.89091 0.0
C1371 C 0.49807 0.33582 0.92702 0.0
C1372 C 0.50531 0.36379 0.80795 0.0
C1373 C 0.48829 0.37307 0.79516 0.0
C1374 C 0.52274 0.37078 0.78828 0.0
C1375 C 0.54133 0.3621 0.80142 0.0
C1376 C 0.54805 0.36098 0.85123 0.0
C1377 C 0.56555 0.35264 0.86328 0.0
C1378 C 0.57654 0.34554 0.82579 0.0
C1379 C 0.57007 0.34681 0.77615 0.0
C1380 C 0.55257 0.35511 0.7639 0.0
C1381 C 0.50122 0.44973 0.72163 0.0
C1382 C 0.51005 0.45224 0.67583 0.0
C1383 C 0.49994 0.43184 0.74431 0.0
C1384 C 0.50723 0.41584 0.72164 0.0
C1385 C 0.51622 0.41825 0.67607 0.0
C1386 C 0.51758 0.43626 0.6533 0.0
C1387 C 0.50586 0.39688 0.74681 0.0
C1388 C 0.52275 0.38709 0.75764 0.0
C1389 C 0.4883 0.38939 0.76459 0.0
C1390 C 0.46973 0.39825 0.75152 0.0
C1391 C 0.46431 0.40187 0.70157 0.0
C1392 C 0.44693 0.41043 0.68948 0.0
C1393 C 0.43479 0.41535 0.727 0.0
C1394 C 0.43998 0.41167 0.7767 0.0
C1395 C 0.45735 0.40312 0.789 0.0
H1396 H 0.42135 0.42199 0.71757 0.0
H1397 H 0.59008 0.3391 0.8352 0.0
H1398 H 0.22044 0.46424 0.79881 0.0
H1399 H 0.18961 0.46982 0.75479 0.0
H1400 H 0.17042 0.49929 0.88242 0.0
H1401 H 0.20115 0.49394 0.9263 0.0
H1402 H 0.14524 0.46877 0.84585 0.0
H1403 H 0.18012 0.52451 0.78582 0.0
H1404 H 0.20683 0.54106 0.74431 0.0
H1405 H 0.19285 0.51011 0.61034 0.0
H1406 H 0.16621 0.49317 0.6513 0.0
H1407 H 0.05645 0.50284 0.76071 0.0
H1408 H 0.08888 0.49914 0.79544 0.0
H1409 H 0.10836 0.4863 0.64968 0.0
H1410 H 0.07602 0.49114 0.6143 0.0
H1411 H 0.1343 0.50686 0.69211 0.0
H1412 H 0.10048 0.45108 0.74561 0.0
H1413 H 0.07456 0.43194 0.78332 0.0
H1414 H 0.08737 0.45865 0.924 0.0
H1415 H 0.11321 0.47815 0.88697 0.0
C1416 C 0.20974 0.47218 0.8171 0.0
C1417 C 0.21327 0.47874 0.86593 0.0
C1418 C 0.19217 0.47536 0.79193 0.0
C1419 C 0.17772 0.48494 0.81539 0.0
C1420 C 0.18138 0.49188 0.86364 0.0
C1421 C 0.19902 0.48896 0.88849 0.0
C1422 C 0.15839 0.48677 0.79103 0.0
C1423 C 0.14277 0.47728 0.81256 0.0
C1424 C 0.15534 0.49719 0.74644 0.0
C1425 C 0.1713 0.50742 0.7218 0.0
C1426 C 0.18285 0.5211 0.74766 0.0
C1427 C 0.19795 0.53059 0.72419 0.0
C1428 C 0.20157 0.5266 0.67476 0.0
C1429 C 0.19005 0.51316 0.64865 0.0
C1430 C 0.17494 0.50363 0.67196 0.0
C1431 C 0.06761 0.49912 0.73606 0.0
C1432 C 0.0636 0.49707 0.68483 0.0
C1433 C 0.08619 0.4969 0.75603 0.0
C1434 C 0.10114 0.49195 0.72555 0.0
C1435 C 0.09716 0.49003 0.67419 0.0
C1436 C 0.07862 0.4927 0.65399 0.0
C1437 C 0.12088 0.48906 0.74733 0.0
C1438 C 0.13664 0.49827 0.72529 0.0
C1439 C 0.12417 0.47795 0.79087 0.0
C1440 C 0.10868 0.4662 0.81338 0.0
C1441 C 0.09769 0.45297 0.78451 0.0
C1442 C 0.08302 0.44204 0.80577 0.0
C1443 C 0.07929 0.44411 0.85599 0.0
C1444 C 0.09026 0.45708 0.88509 0.0
C1445 C 0.10493 0.46806 0.86399 0.0
H1446 H 0.06793 0.43563 0.87239 0.0
H1447 H 0.21326 0.53396 0.65666 0.0
H1448 H 0.95511 0.82074 0.34171 0.0
H1449 H 0.95857 0.85009 0.38936 0.0
H1450 H 0.01874 0.84039 0.41594 0.0
H1451 H 0.01535 0.81072 0.36826 0.0
H1452 H 1.0001 0.85319 0.50185 0.0
H1453 H 0.00645 0.87144 0.33041 0.0
H1454 H 0.99665 0.87258 0.24152 0.0
H1455 H 0.94444 0.89913 0.27696 0.0
H1456 H 0.95381 0.8979 0.36619 0.0
H1457 H 0.02897 0.94618 0.57939 0.0
H1458 H 0.02497 0.91559 0.53796 0.0
H1459 H 0.96715 0.92907 0.49159 0.0
H1460 H 0.97121 0.96007 0.5323 0.0
H1461 H 0.98434 0.91389 0.41681 0.0
H1462 H 0.97703 0.89641 0.58646 0.0
H1463 H 0.98585 0.89586 0.67598 0.0
H1464 H 0.03792 0.86799 0.6461 0.0
H1465 H 0.02954 0.86861 0.55625 0.0
C1466 C 0.96906 0.82462 0.35825 0.0
C1467 C 0.98493 0.81321 0.35123 0.0
C1468 C 0.97104 0.84155 0.38524 0.0
C1469 C 0.98893 0.84758 0.40612 0.0
C1470 C 1.00477 0.83606 0.40024 0.0
C1471 C 1.00284 0.81915 0.37271 0.0
C1472 C 0.99108 0.8662 0.43257 0.0
C1473 C 0.99691 0.86649 0.48311 0.0
C1474 C 0.98637 0.88356 0.40867 0.0
C1475 C 0.98075 0.8844 0.35502 0.0
C1476 C 0.9928 0.87738 0.31929 0.0
C1477 C 0.98734 0.87807 0.26883 0.0
C1478 C 0.96991 0.88588 0.25361 0.0
C1479 C 0.95793 0.89306 0.28881 0.0
C1480 C 0.96331 0.89238 0.33933 0.0
C1481 C 0.01532 0.94268 0.5607 0.0
C1482 C 1.00039 0.95569 0.55945 0.0
C1483 C 0.01303 0.92504 0.53709 0.0
C1484 C 0.99566 0.91976 0.512 0.0
C1485 C 0.98069 0.93271 0.51069 0.0
C1486 C 0.983 0.95044 0.5342 0.0
C1487 C 0.99338 0.90097 0.48625 0.0
C1488 C 0.98751 0.90062 0.43575 0.0
C1489 C 0.99784 0.88355 0.5104 0.0
C1490 C 1.00273 0.8827 0.56453 0.0
C1491 C 0.99041 0.89024 0.59893 0.0
C1492 C 0.99532 0.88992 0.64975 0.0
C1493 C 0.01246 0.88195 0.66671 0.0
C1494 C 0.02466 0.87418 0.6329 0.0
C1495 C 0.01982 0.87449 0.58201 0.0
H1496 H 0.01626 0.88177 0.70606 0.0
H1497 H 0.9657 0.88641 0.21453 0.0
H1498 H 0.68651 0.96044 0.30279 0.0
H1499 H 0.65839 0.96452 0.35172 0.0
H1500 H 0.68245 0.01784 0.40684 0.0
H1501 H 0.71119 0.0135 0.35888 0.0
H1502 H 0.66664 0.99763 0.4812 0.0
H1503 H 0.64546 0.01609 0.31741 0.0
H1504 H 0.64014 0.01287 0.22679 0.0
H1505 H 0.60487 0.96258 0.24878 0.0
H1506 H 0.61019 0.96535 0.33955 0.0
H1507 H 0.57912 0.02762 0.57921 0.0
H1508 H 0.60812 0.02463 0.53259 0.0
H1509 H 0.58677 0.97049 0.47627 0.0
H1510 H 0.55757 0.97338 0.52308 0.0
H1511 H 0.60127 0.99229 0.40242 0.0
H1512 H 0.624 0.97232 0.56415 0.0
H1513 H 0.62939 0.97463 0.65475 0.0
H1514 H 0.66111 0.02742 0.63668 0.0
H1515 H 0.65596 0.02535 0.54562 0.0
C1516 C 0.68604 0.97298 0.32567 0.0
C1517 C 0.70137 0.98656 0.32694 0.0
C1518 C 0.66973 0.97541 0.35331 0.0
C1519 C 0.66803 0.99161 0.38278 0.0
C1520 C 0.68329 0.00522 0.38438 0.0
C1521 C 0.6997 1.00279 0.35657 0.0
C1522 C 0.65041 0.99407 0.41206 0.0
C1523 C 0.65238 0.99679 0.46371 0.0
C1524 C 0.63164 0.99252 0.38987 0.0
C1525 C 0.62837 0.99084 0.33529 0.0
C1526 C 0.63669 0.00426 0.30292 0.0
C1527 C 0.63365 1.00253 0.25152 0.0
C1528 C 0.62221 0.98751 0.23204 0.0
C1529 C 0.61374 0.9742 0.26393 0.0
C1530 C 0.61675 0.97585 0.31536 0.0
C1531 C 0.58059 0.01495 0.55736 0.0
C1532 C 0.56591 1.0007 0.55533 0.0
C1533 C 0.59729 0.01325 0.53066 0.0
C1534 C 0.59985 0.99725 0.501 0.0
C1535 C 0.58523 0.98298 0.49882 0.0
C1536 C 0.56854 0.98461 0.52586 0.0
C1537 C 0.61753 0.99569 0.47148 0.0
C1538 C 0.61555 0.99319 0.41981 0.0
C1539 C 0.63626 0.99742 0.4936 0.0
C1540 C 0.63944 0.99877 0.54818 0.0
C1541 C 0.63203 0.98448 0.57953 0.0
C1542 C 0.63507 0.98573 0.63098 0.0
C1543 C 0.64549 1.00123 0.6516 0.0
C1544 C 0.653 0.01544 0.62069 0.0
C1545 C 0.65009 0.0142 0.56912 0.0
H1546 H 0.64781 1.00218 0.69149 0.0
H1547 H 0.61988 0.98619 0.19224 0.0
H1548 H 0.54202 0.70599 0.33444 0.0
H1549 H 0.54786 0.67795 0.38678 0.0
H1550 H 0.48976 0.67871 0.43546 0.0
H1551 H 0.48421 0.70721 0.38564 0.0
H1552 H 0.51137 0.66798 0.50931 0.0
H1553 H 0.50422 0.64966 0.33761 0.0
H1554 H 0.51191 0.65015 0.249 0.0
H1555 H 0.569 0.6326 0.28695 0.0
H1556 H 0.56171 0.63224 0.3759 0.0
H1557 H 0.49121 0.5716 0.56942 0.0
H1558 H 0.49288 0.60338 0.53317 0.0
H1559 H 0.55236 0.59633 0.50224 0.0
H1560 H 0.55069 0.56411 0.53762 0.0
H1561 H 0.53388 0.61113 0.42397 0.0
H1562 H 0.53773 0.62558 0.59817 0.0
H1563 H 0.52754 0.624 0.68478 0.0
H1564 H 0.47363 0.6478 0.6402 0.0
H1565 H 0.48338 0.64928 0.55315 0.0
C1566 C 0.53064 0.70047 0.35723 0.0
C1567 C 0.51253 0.70873 0.35508 0.0
C1568 C 0.53392 0.68426 0.38673 0.0
C1569 C 0.5191 0.67582 0.41423 0.0
C1570 C 0.50141 0.68475 0.41438 0.0
C1571 C 0.49819 0.701 0.38538 0.0
C1572 C 0.52148 0.65722 0.44079 0.0
C1573 C 0.5162 0.65554 0.49052 0.0
C1574 C 0.52808 0.64095 0.4168 0.0
C1575 C 0.5325 0.64115 0.3634 0.0
C1576 C 0.51846 0.64604 0.32707 0.0
C1577 C 0.52274 0.64628 0.27679 0.0
C1578 C 0.54095 0.64147 0.26237 0.0
C1579 C 0.55491 0.63636 0.29819 0.0
C1580 C 0.55071 0.63614 0.34853 0.0
C1581 C 0.50473 0.57676 0.55522 0.0
C1582 C 0.52084 0.56519 0.55659 0.0
C1583 C 0.50569 0.59508 0.53473 0.0
C1584 C 0.52283 0.60249 0.51562 0.0
C1585 C 0.53898 0.59101 0.51695 0.0
C1586 C 0.53801 0.57258 0.53729 0.0
C1587 C 0.52355 0.62183 0.49229 0.0
C1588 C 0.52935 0.62364 0.44307 0.0
C1589 C 0.5171 0.63812 0.51654 0.0
C1590 C 0.51127 0.63742 0.56901 0.0
C1591 C 0.52366 0.63037 0.60675 0.0
C1592 C 0.51796 0.62951 0.65594 0.0
C1593 C 0.49994 0.63578 0.66796 0.0
C1594 C 0.48759 0.64295 0.63082 0.0
C1595 C 0.49321 0.64383 0.58156 0.0
H1596 H 0.49558 0.63511 0.70607 0.0
H1597 H 0.54424 0.64166 0.22343 0.0
H1598 H 0.82362 0.58364 0.36103 0.0
H1599 H 0.85303 0.57619 0.4077 0.0
H1600 H 0.82744 0.52271 0.45442 0.0
H1601 H 0.79755 0.53023 0.40802 0.0
H1602 H 0.85023 0.54264 0.53154 0.0
H1603 H 0.85559 0.52138 0.36344 0.0
H1604 H 0.85381 0.52484 0.27222 0.0
H1605 H 0.89637 0.57029 0.28071 0.0
H1606 H 0.89818 0.56729 0.3721 0.0
H1607 H 0.93862 0.49952 0.60042 0.0
H1608 H 0.90702 0.50687 0.56475 0.0
H1609 H 0.93084 0.55771 0.49719 0.0
H1610 H 0.96261 0.55037 0.53234 0.0
H1611 H 0.9082 0.53811 0.4319 0.0
H1612 H 0.90322 0.56033 0.59772 0.0
H1613 H 0.90541 0.55816 0.68918 0.0
H1614 H 0.86289 0.51265 0.68618 0.0
H1615 H 0.86063 0.51436 0.59456 0.0
C1616 C 0.82399 0.57046 0.38208 0.0
C1617 C 0.80811 0.55757 0.3809 0.0
C1618 C 0.84092 0.56616 0.40846 0.0
C1619 C 0.84249 0.54885 0.43426 0.0
C1620 C 0.82652 0.53617 0.43475 0.0
C1621 C 0.80951 0.54042 0.40797 0.0
C1622 C 0.86123 0.54371 0.45797 0.0
C1623 C 0.86286 0.54133 0.50977 0.0
C1624 C 0.87781 0.54252 0.42966 0.0
C1625 C 0.87689 0.54422 0.37466 0.0
C1626 C 0.86446 0.53221 0.34589 0.0
C1627 C 0.86346 0.53407 0.29415 0.0
C1628 C 0.87494 0.5478 0.27069 0.0
C1629 C 0.88747 0.55967 0.29894 0.0
C1630 C 0.88851 0.55788 0.35071 0.0
C1631 C 0.93718 0.51231 0.57813 0.0
C1632 C 0.95323 0.52433 0.5692 0.0
C1633 C 0.91904 0.51655 0.55794 0.0
C1634 C 0.91649 0.53292 0.52855 0.0
C1635 C 0.93245 0.54499 0.51975 0.0
C1636 C 0.95061 0.5408 0.54002 0.0
C1637 C 0.89732 0.53713 0.50563 0.0
C1638 C 0.8956 0.53933 0.45384 0.0
C1639 C 0.88075 0.53831 0.53407 0.0
C1640 C 0.88189 0.53735 0.5892 0.0
C1641 C 0.89443 0.54976 0.61652 0.0
C1642 C 0.89568 0.54863 0.66839 0.0
C1643 C 0.88433 0.53525 0.69344 0.0
C1644 C 0.87168 0.52299 0.66668 0.0
C1645 C 0.8704 0.52405 0.61477 0.0
H1646 H 0.88529 0.53443 0.73357 0.0
H1647 H 0.87414 0.54923 0.23062 0.0
loop_
_geom_bond_atom_site_label_1
_geom_bond_atom_site_label_2
_geom_bond_distance
_geom_bond_site_symmetry_2
_ccdc_geom_bond_type
C0 C1 1.384 . S
C0 H13 0.947 . S
C0 C35 1.382 . S
C1 C0 1.384 . S
C1 C2 1.378 . S
C2 C1 1.378 . S
C2 C3 1.378 . S
C2 H14 0.952 . S
C3 C2 1.378 . S
C3 H15 0.950 . S
C3 C34 1.383 . S
H4 C23 0.947 . S
H5 C24 0.946 . S
H6 C26 0.953 . S
H7 C27 0.945 . S
H8 C29 0.952 . S
H9 C30 0.949 . S
H10 C32 0.950 . S
H11 C33 0.948 . S
H12 C35 0.951 . S
H13 C0 0.947 . S
H14 C2 0.952 . S
H15 C3 0.950 . S
N16 C19 1.382 . S
N16 C21 1.363 . S
N17 C19 1.371 . S
N17 C20 1.372 . S
N18 C20 1.361 . S
N18 C21 1.377 . S
C19 N16 1.382 . S
C19 N17 1.371 . S
C19 C22 1.480 . S
C20 N17 1.372 . S
C20 N18 1.361 . S
C20 C28 1.457 . S
C21 N16 1.363 . S
C21 N18 1.377 . S
C21 C34 1.479 . S
C22 C19 1.480 . S
C22 C23 1.383 . S
C22 C27 1.385 . S
C23 H4 0.947 . S
C23 C22 1.383 . S
C23 C24 1.388 . S
C24 H5 0.946 . S
C24 C23 1.388 . S
C24 C25 1.384 . S
C25 C24 1.384 . S
C25 C26 1.377 . S
C26 H6 0.953 . S
C26 C25 1.377 . S
C26 C27 1.369 . S
C27 H7 0.945 . S
C27 C22 1.385 . S
C27 C26 1.369 . S
C28 C20 1.457 . S
C28 C29 1.372 . S
C28 C33 1.364 . S
C29 H8 0.952 . S
C29 C28 1.372 . S
C29 C30 1.389 1_554 S
C30 H9 0.949 . S
C30 C29 1.389 1_556 S
C30 C31 1.387 1_556 S
C31 C30 1.387 1_554 S
C31 C32 1.372 . S
C32 H10 0.950 . S
C32 C31 1.372 . S
C32 C33 1.379 . S
C33 H11 0.948 . S
C33 C28 1.364 . S
C33 C32 1.379 . S
C34 C3 1.383 . S
C34 C21 1.479 . S
C34 C35 1.398 . S
C35 C0 1.382 . S
C35 H12 0.951 . S
C35 C34 1.398 . S
C36 C37 1.384 . S
C36 H49 0.947 . S
C36 C71 1.382 . S
C37 C36 1.384 . S
C37 C38 1.378 . S
C38 C37 1.378 . S
C38 C39 1.378 . S
C38 H50 0.952 . S
C39 C38 1.378 . S
C39 H51 0.950 . S
C39 C70 1.383 . S
H40 C59 0.947 . S
H41 C60 0.946 . S
H42 C62 0.953 . S
H43 C63 0.945 . S
H44 C65 0.952 . S
H45 C66 0.949 . S
H46 C68 0.950 . S
H47 C69 0.948 . S
H48 C71 0.951 . S
H49 C36 0.947 . S
H50 C38 0.952 . S
H51 C39 0.950 . S
N52 C55 1.382 . S
N52 C57 1.363 . S
N53 C55 1.371 . S
N53 C56 1.372 . S
N54 C56 1.361 . S
N54 C57 1.377 . S
C55 N52 1.382 . S
C55 N53 1.371 . S
C55 C58 1.480 . S
C56 N53 1.372 . S
C56 N54 1.361 . S
C56 C64 1.457 . S
C57 N52 1.363 . S
C57 N54 1.377 . S
C57 C70 1.479 . S
C58 C55 1.480 . S
C58 C59 1.383 . S
C58 C63 1.385 . S
C59 H40 0.947 . S
C59 C58 1.383 . S
C59 C60 1.388 . S
C60 H41 0.946 . S
C60 C59 1.388 . S
C60 C61 1.384 . S
C61 C60 1.384 . S
C61 C62 1.377 . S
C62 H42 0.953 . S
C62 C61 1.377 . S
C62 C63 1.369 . S
C63 H43 0.945 . S
C63 C58 1.385 . S
C63 C62 1.369 . S
C64 C56 1.457 . S
C64 C65 1.372 . S
C64 C69 1.364 . S
C65 H44 0.952 . S
C65 C64 1.372 . S
C65 C66 1.389 . S
C66 H45 0.949 . S
C66 C65 1.389 . S
C66 C67 1.387 . S
C67 C66 1.387 . S
C67 C68 1.372 . S
C68 H46 0.950 . S
C68 C67 1.372 . S
C68 C69 1.379 . S
C69 H47 0.948 . S
C69 C64 1.364 . S
C69 C68 1.379 . S
C70 C39 1.383 . S
C70 C57 1.479 . S
C70 C71 1.398 . S
C71 C36 1.382 . S
C71 H48 0.951 . S
C71 C70 1.398 . S
C72 C73 1.384 . S
C72 H85 0.947 . S
C72 C107 1.382 . S
C73 C72 1.384 . S
C73 C74 1.378 . S
C74 C73 1.378 . S
C74 C75 1.378 . S
C74 H86 0.952 . S
C75 C74 1.378 . S
C75 H87 0.950 . S
C75 C106 1.383 . S
H76 C95 0.947 . S
H77 C96 0.946 . S
H78 C98 0.953 . S
H79 C99 0.945 . S
H80 C101 0.952 . S
H81 C102 0.949 . S
H82 C104 0.950 . S
H83 C105 0.948 . S
H84 C107 0.951 . S
H85 C72 0.947 . S
H86 C74 0.952 . S
H87 C75 0.950 . S
N88 C91 1.382 . S
N88 C93 1.363 . S
N89 C91 1.371 . S
N89 C92 1.372 . S
N90 C92 1.361 . S
N90 C93 1.377 . S
C91 N88 1.382 . S
C91 N89 1.371 . S
C91 C94 1.480 . S
C92 N89 1.372 . S
C92 N90 1.361 . S
C92 C100 1.457 . S
C93 N88 1.363 . S
C93 N90 1.377 . S
C93 C106 1.479 . S
C94 C91 1.480 . S
C94 C95 1.383 . S
C94 C99 1.385 . S
C95 H76 0.947 . S
C95 C94 1.383 . S
C95 C96 1.388 . S
C96 H77 0.946 . S
C96 C95 1.388 . S
C96 C97 1.384 . S
C97 C96 1.384 . S
C97 C98 1.377 . S
C98 H78 0.953 . S
C98 C97 1.377 . S
C98 C99 1.369 . S
C99 H79 0.945 . S
C99 C94 1.385 . S
C99 C98 1.369 . S
C100 C92 1.457 . S
C100 C101 1.372 . S
C100 C105 1.364 . S
C101 H80 0.952 . S
C101 C100 1.372 . S
C101 C102 1.389 . S
C102 H81 0.949 . S
C102 C101 1.389 . S
C102 C103 1.387 . S
C103 C102 1.387 . S
C103 C104 1.372 . S
C104 H82 0.950 . S
C104 C103 1.372 . S
C104 C105 1.379 . S
C105 H83 0.948 . S
C105 C100 1.364 . S
C105 C104 1.379 . S
C106 C75 1.383 . S
C106 C93 1.479 . S
C106 C107 1.398 . S
C107 C72 1.382 . S
C107 H84 0.951 . S
C107 C106 1.398 . S
C108 C109 1.384 . S
C108 H121 0.947 . S
C108 C143 1.382 . S
C109 C108 1.384 . S
C109 C110 1.378 . S
C110 C109 1.378 . S
C110 C111 1.378 . S
C110 H122 0.952 1_554 S
C111 C110 1.378 . S
C111 H123 0.950 . S
C111 C142 1.383 . S
H112 C131 0.947 . S
H113 C132 0.946 . S
H114 C134 0.953 . S
H115 C135 0.945 . S
H116 C137 0.952 . S
H117 C138 0.949 . S
H118 C140 0.950 . S
H119 C141 0.948 . S
H120 C143 0.951 . S
H121 C108 0.947 . S
H122 C110 0.952 1_556 S
H123 C111 0.950 . S
N124 C127 1.382 . S
N124 C129 1.363 . S
N125 C127 1.371 . S
N125 C128 1.372 . S
N126 C128 1.361 . S
N126 C129 1.377 . S
C127 N124 1.382 . S
C127 N125 1.371 . S
C127 C130 1.480 . S
C128 N125 1.372 . S
C128 N126 1.361 . S
C128 C136 1.457 . S
C129 N124 1.363 . S
C129 N126 1.377 . S
C129 C142 1.479 . S
C130 C127 1.480 . S
C130 C131 1.383 . S
C130 C135 1.385 . S
C131 H112 0.947 . S
C131 C130 1.383 . S
C131 C132 1.388 . S
C132 H113 0.946 . S
C132 C131 1.388 . S
C132 C133 1.384 . S
C133 C132 1.384 . S
C133 C134 1.377 . S
C134 H114 0.953 . S
C134 C133 1.377 . S
C134 C135 1.369 . S
C135 H115 0.945 . S
C135 C130 1.385 . S
C135 C134 1.369 . S
C136 C128 1.457 . S
C136 C137 1.372 . S
C136 C141 1.364 . S
C137 H116 0.952 . S
C137 C136 1.372 . S
C137 C138 1.389 . S
C138 H117 0.949 . S
C138 C137 1.389 . S
C138 C139 1.387 . S
C139 C138 1.387 . S
C139 C140 1.372 . S
C140 H118 0.950 . S
C140 C139 1.372 . S
C140 C141 1.379 . S
C141 H119 0.948 . S
C141 C136 1.364 . S
C141 C140 1.379 . S
C142 C111 1.383 . S
C142 C129 1.479 . S
C142 C143 1.398 . S
C143 C108 1.382 . S
C143 H120 0.951 . S
C143 C142 1.398 . S
C144 C145 1.384 . S
C144 H157 0.947 . S
C144 C179 1.382 . S
C145 C144 1.384 . S
C145 C146 1.378 . S
C146 C145 1.378 . S
C146 C147 1.378 . S
C146 H158 0.952 . S
C147 C146 1.378 . S
C147 H159 0.950 . S
C147 C178 1.383 . S
H148 C167 0.947 . S
H149 C168 0.946 . S
H150 C170 0.953 . S
H151 C171 0.945 . S
H152 C173 0.952 . S
H153 C174 0.949 . S
H154 C176 0.950 . S
H155 C177 0.948 . S
H156 C179 0.951 . S
H157 C144 0.947 . S
H158 C146 0.952 . S
H159 C147 0.950 . S
N160 C163 1.382 . S
N160 C165 1.363 . S
N161 C163 1.371 . S
N161 C164 1.372 . S
N162 C164 1.361 . S
N162 C165 1.377 . S
C163 N160 1.382 . S
C163 N161 1.371 . S
C163 C166 1.480 . S
C164 N161 1.372 . S
C164 N162 1.361 . S
C164 C172 1.457 . S
C165 N160 1.363 . S
C165 N162 1.377 . S
C165 C178 1.479 1_554 S
C166 C163 1.480 . S
C166 C167 1.383 . S
C166 C171 1.385 . S
C167 H148 0.947 . S
C167 C166 1.383 . S
C167 C168 1.388 . S
C168 H149 0.946 . S
C168 C167 1.388 . S
C168 C169 1.384 . S
C169 C168 1.384 . S
C169 C170 1.377 . S
C170 H150 0.953 . S
C170 C169 1.377 . S
C170 C171 1.369 . S
C171 H151 0.945 . S
C171 C166 1.385 . S
C171 C170 1.369 . S
C172 C164 1.457 . S
C172 C173 1.372 . S
C172 C177 1.364 . S
C173 H152 0.952 . S
C173 C172 1.372 . S
C173 C174 1.389 . S
C174 H153 0.949 . S
C174 C173 1.389 . S
C174 C175 1.387 . S
C175 C174 1.387 . S
C175 C176 1.372 . S
C176 H154 0.950 . S
C176 C175 1.372 . S
C176 C177 1.379 . S
C177 H155 0.948 . S
C177 C172 1.364 . S
C177 C176 1.379 . S
C178 C147 1.383 . S
C178 C165 1.479 1_556 S
C178 C179 1.398 . S
C179 C144 1.382 . S
C179 H156 0.951 . S
C179 C178 1.398 . S
C180 C181 1.384 . S
C180 H193 0.947 . S
C180 C215 1.382 . S
C181 C180 1.384 . S
C181 C182 1.378 . S
C182 C181 1.378 . S
C182 C183 1.378 . S
C182 H194 0.952 . S
C183 C182 1.378 . S
C183 H195 0.950 . S
C183 C214 1.383 . S
H184 C203 0.947 1_556 S
H185 C204 0.946 . S
H186 C206 0.953 . S
H187 C207 0.945 . S
H188 C209 0.952 . S
H189 C210 0.949 . S
H190 C212 0.950 . S
H191 C213 0.948 . S
H192 C215 0.951 . S
H193 C180 0.947 . S
H194 C182 0.952 . S
H195 C183 0.950 . S
N196 C199 1.382 1_556 S
N196 C201 1.363 . S
N197 C199 1.371 . S
N197 C200 1.372 . S
N198 C200 1.361 . S
N198 C201 1.377 1_554 S
C199 N196 1.382 1_554 S
C199 N197 1.371 . S
C199 C202 1.480 . S
C200 N197 1.372 . S
C200 N198 1.361 . S
C200 C208 1.457 . S
C201 N196 1.363 . S
C201 N198 1.377 1_556 S
C201 C214 1.479 . S
C202 C199 1.480 . S
C202 C203 1.383 . S
C202 C207 1.385 . S
C203 H184 0.947 1_554 S
C203 C202 1.383 . S
C203 C204 1.388 . S
C204 H185 0.946 . S
C204 C203 1.388 . S
C204 C205 1.384 . S
C205 C204 1.384 . S
C205 C206 1.377 . S
C206 H186 0.953 . S
C206 C205 1.377 . S
C206 C207 1.369 . S
C207 H187 0.945 . S
C207 C202 1.385 . S
C207 C206 1.369 . S
C208 C200 1.457 . S
C208 C209 1.372 . S
C208 C213 1.364 . S
C209 H188 0.952 . S
C209 C208 1.372 . S
C209 C210 1.389 . S
C210 H189 0.949 . S
C210 C209 1.389 . S
C210 C211 1.387 . S
C211 C210 1.387 . S
C211 C212 1.372 . S
C212 H190 0.950 . S
C212 C211 1.372 . S
C212 C213 1.379 . S
C213 H191 0.948 . S
C213 C208 1.364 . S
C213 C212 1.379 . S
C214 C183 1.383 . S
C214 C201 1.479 . S
C214 C215 1.398 . S
C215 C180 1.382 . S
C215 H192 0.951 . S
C215 C214 1.398 . S
C216 C217 1.384 . S
C216 H229 0.947 . S
C216 C251 1.382 . S
C217 C216 1.384 . S
C217 C218 1.378 . S
C218 C217 1.378 . S
C218 C219 1.378 . S
C218 H230 0.952 . S
C219 C218 1.378 . S
C219 H231 0.950 . S
C219 C250 1.383 . S
H220 C239 0.947 . S
H221 C240 0.946 1_556 S
H222 C242 0.953 . S
H223 C243 0.945 . S
H224 C245 0.952 . S
H225 C246 0.949 . S
H226 C248 0.950 . S
H227 C249 0.948 . S
H228 C251 0.951 . S
H229 C216 0.947 . S
H230 C218 0.952 . S
H231 C219 0.950 . S
N232 C235 1.382 1_556 S
N232 C237 1.363 . S
N233 C235 1.371 . S
N233 C236 1.372 . S
N234 C236 1.361 1_556 S
N234 C237 1.377 . S
C235 N232 1.382 1_554 S
C235 N233 1.371 . S
C235 C238 1.480 . S
C236 N233 1.372 . S
C236 N234 1.361 1_554 S
C236 C244 1.457 . S
C237 N232 1.363 . S
C237 N234 1.377 . S
C237 C250 1.479 . S
C238 C235 1.480 . S
C238 C239 1.383 1_554 S
C238 C243 1.385 . S
C239 H220 0.947 . S
C239 C238 1.383 1_556 S
C239 C240 1.388 1_556 S
C240 H221 0.946 1_554 S
C240 C239 1.388 1_554 S
C240 C241 1.384 . S
C241 C240 1.384 . S
C241 C242 1.377 . S
C242 H222 0.953 . S
C242 C241 1.377 . S
C242 C243 1.369 . S
C243 H223 0.945 . S
C243 C238 1.385 . S
C243 C242 1.369 . S
C244 C236 1.457 . S
C244 C245 1.372 . S
C244 C249 1.364 . S
C245 H224 0.952 . S
C245 C244 1.372 . S
C245 C246 1.389 . S
C246 H225 0.949 . S
C246 C245 1.389 . S
C246 C247 1.387 . S
C247 C246 1.387 . S
C247 C248 1.372 . S
C248 H226 0.950 . S
C248 C247 1.372 . S
C248 C249 1.379 . S
C249 H227 0.948 . S
C249 C244 1.364 . S
C249 C248 1.379 . S
C250 C219 1.383 . S
C250 C237 1.479 . S
C250 C251 1.398 . S
C251 C216 1.382 . S
C251 H228 0.951 . S
C251 C250 1.398 . S
C252 C253 1.384 . S
C252 H265 0.947 . S
C252 C287 1.382 . S
C253 C252 1.384 . S
C253 C254 1.378 . S
C254 C253 1.378 . S
C254 C255 1.378 . S
C254 H266 0.952 . S
C255 C254 1.378 . S
C255 H267 0.950 . S
C255 C286 1.383 . S
H256 C275 0.947 . S
H257 C276 0.946 . S
H258 C278 0.953 . S
H259 C279 0.945 . S
H260 C281 0.952 . S
H261 C282 0.949 . S
H262 C284 0.950 . S
H263 C285 0.948 . S
H264 C287 0.951 . S
H265 C252 0.947 . S
H266 C254 0.952 . S
H267 C255 0.950 . S
N268 C271 1.382 . S
N268 C273 1.363 . S
N269 C271 1.371 . S
N269 C272 1.372 . S
N270 C272 1.361 . S
N270 C273 1.377 . S
C271 N268 1.382 . S
C271 N269 1.371 . S
C271 C274 1.480 . S
C272 N269 1.372 . S
C272 N270 1.361 . S
C272 C280 1.457 1_554 S
C273 N268 1.363 . S
C273 N270 1.377 . S
C273 C286 1.479 . S
C274 C271 1.480 . S
C274 C275 1.383 . S
C274 C279 1.385 . S
C275 H256 0.947 . S
C275 C274 1.383 . S
C275 C276 1.388 . S
C276 H257 0.946 . S
C276 C275 1.388 . S
C276 C277 1.384 . S
C277 C276 1.384 . S
C277 C278 1.377 . S
C278 H258 0.953 . S
C278 C277 1.377 . S
C278 C279 1.369 . S
C279 H259 0.945 . S
C279 C274 1.385 . S
C279 C278 1.369 . S
C280 C272 1.457 1_556 S
C280 C281 1.372 . S
C280 C285 1.364 . S
C281 H260 0.952 . S
C281 C280 1.372 . S
C281 C282 1.389 . S
C282 H261 0.949 . S
C282 C281 1.389 . S
C282 C283 1.387 . S
C283 C282 1.387 . S
C283 C284 1.372 . S
C284 H262 0.950 . S
C284 C283 1.372 . S
C284 C285 1.379 . S
C285 H263 0.948 . S
C285 C280 1.364 . S
C285 C284 1.379 . S
C286 C255 1.383 . S
C286 C273 1.479 . S
C286 C287 1.398 . S
C287 C252 1.382 . S
C287 H264 0.951 . S
C287 C286 1.398 . S
Eu288 C297 2.828 . S
Eu288 O299 2.392 . S
Eu288 O301 2.418 1_545 S
Eu288 O306 2.373 1_655 S
Eu288 O309 2.488 . S
Eu288 O310 2.471 . S
Eu288 O311 2.349 1_655 S
Eu289 O298 2.373 1_455 S
Eu289 O302 2.488 . S
Eu289 O303 2.471 . S
Eu289 O304 2.349 . S
Eu289 O307 2.392 1_565 S
Eu289 O308 2.418 1_565 S
Eu289 C318 2.828 . S
C290 O308 1.244 . S
C290 O311 1.265 . S
C291 C292 1.379 1_655 S
C291 C295 1.373 . S
C291 C297 1.505 . S
C292 C291 1.379 1_455 S
C292 C294 1.369 . S
C292 H320 0.930 . S
C293 C295 1.383 . S
C293 C296 1.382 1_655 S
C293 H321 0.930 . S
C294 C292 1.369 . S
C294 C296 1.392 . S
C294 H322 0.930 . S
C295 C291 1.373 . S
C295 C293 1.383 . S
C295 H323 0.931 . S
C296 C293 1.382 1_455 S
C296 C294 1.392 . S
C297 Eu288 2.828 . S
C297 C291 1.505 . S
C297 O309 1.249 . S
C297 O310 1.244 . S
O298 Eu289 2.373 1_655 S
O298 C300 1.258 . S
O299 Eu288 2.392 . S
O299 C300 1.242 1_545 S
C300 O298 1.258 . S
C300 O299 1.242 1_565 S
O301 Eu288 2.418 1_565 S
O301 C305 1.244 . S
O302 Eu289 2.488 . S
O302 C318 1.249 . S
O303 Eu289 2.471 . S
O303 C318 1.244 . S
O304 Eu289 2.349 . S
O304 C305 1.265 1_455 S
C305 O301 1.244 . S
C305 O304 1.265 1_655 S
O306 Eu288 2.373 1_455 S
O306 C319 1.258 . S
O307 Eu289 2.392 1_545 S
O307 C319 1.242 . S
O308 Eu289 2.418 1_545 S
O308 C290 1.244 . S
O309 Eu288 2.488 . S
O309 C297 1.249 . S
O310 Eu288 2.471 . S
O310 C297 1.244 . S
O311 Eu288 2.349 1_455 S
O311 C290 1.265 . S
C312 C313 1.379 . S
C312 C316 1.373 . S
C312 C318 1.505 . S
C313 C312 1.379 . S
C313 C315 1.369 . S
C313 H324 0.930 1_455 S
C314 C316 1.383 . S
C314 C317 1.382 . S
C314 H325 0.930 . S
C315 C313 1.369 . S
C315 C317 1.392 . S
C315 H326 0.930 1_455 S
C316 C312 1.373 . S
C316 C314 1.383 . S
C316 H327 0.931 . S
C317 C314 1.382 . S
C317 C315 1.392 . S
C318 Eu289 2.828 . S
C318 O302 1.249 . S
C318 O303 1.244 . S
C318 C312 1.505 . S
C319 O306 1.258 . S
C319 O307 1.242 . S
H320 C292 0.930 . S
H321 C293 0.930 . S
H322 C294 0.930 . S
H323 C295 0.931 . S
H324 C313 0.930 1_655 S
H325 C314 0.930 . S
H326 C315 0.930 1_655 S
H327 C316 0.931 . S
Eu328 C337 2.828 . S
Eu328 O339 2.392 . S
Eu328 O341 2.418 . S
Eu328 O346 2.373 . S
Eu328 O349 2.488 . S
Eu328 O350 2.471 . S
Eu328 O351 2.349 1_545 S
Eu329 O338 2.373 1_565 S
Eu329 O342 2.488 . S
Eu329 O343 2.471 1_565 S
Eu329 O344 2.349 1_565 S
Eu329 O347 2.392 . S
Eu329 O348 2.418 . S
Eu329 C358 2.828 . S
C330 O348 1.244 . S
C330 O351 1.265 . S
C331 C332 1.379 1_545 S
C331 C335 1.373 . S
C331 C337 1.505 . S
C332 C331 1.379 1_565 S
C332 C334 1.369 . S
C332 H360 0.930 . S
C333 C335 1.383 . S
C333 C336 1.382 . S
C333 H361 0.930 . S
C334 C332 1.369 . S
C334 C336 1.392 1_565 S
C334 H362 0.930 . S
C335 C331 1.373 . S
C335 C333 1.383 . S
C335 H363 0.931 . S
C336 C333 1.382 . S
C336 C334 1.392 1_545 S
C337 Eu328 2.828 . S
C337 C331 1.505 . S
C337 O349 1.249 . S
C337 O350 1.244 . S
O338 Eu329 2.373 1_545 S
O338 C340 1.258 . S
O339 Eu328 2.392 . S
O339 C340 1.242 . S
C340 O338 1.258 . S
C340 O339 1.242 . S
O341 Eu328 2.418 . S
O341 C345 1.244 . S
O342 Eu329 2.488 . S
O342 C358 1.249 . S
O343 Eu329 2.471 1_545 S
O343 C358 1.244 1_545 S
O344 Eu329 2.349 1_545 S
O344 C345 1.265 . S
C345 O341 1.244 . S
C345 O344 1.265 . S
O346 Eu328 2.373 . S
O346 C359 1.258 1_545 S
O347 Eu329 2.392 . S
O347 C359 1.242 . S
O348 Eu329 2.418 . S
O348 C330 1.244 . S
O349 Eu328 2.488 . S
O349 C337 1.249 . S
O350 Eu328 2.471 . S
O350 C337 1.244 . S
O351 Eu328 2.349 1_565 S
O351 C330 1.265 . S
C352 C353 1.379 . S
C352 C356 1.373 1_545 S
C352 C358 1.505 1_545 S
C353 C352 1.379 . S
C353 C355 1.369 . S
C353 H364 0.930 . S
C354 C356 1.383 . S
C354 C357 1.382 1_565 S
C354 H365 0.930 . S
C355 C353 1.369 . S
C355 C357 1.392 . S
C355 H366 0.930 . S
C356 C352 1.373 1_565 S
C356 C354 1.383 . S
C356 H367 0.931 . S
C357 C354 1.382 1_545 S
C357 C355 1.392 . S
C358 Eu329 2.828 . S
C358 O342 1.249 . S
C358 O343 1.244 1_565 S
C358 C352 1.505 1_565 S
C359 O346 1.258 1_565 S
C359 O347 1.242 . S
H360 C332 0.930 . S
H361 C333 0.930 . S
H362 C334 0.930 . S
H363 C335 0.931 . S
H364 C353 0.930 . S
H365 C354 0.930 . S
H366 C355 0.930 . S
H367 C356 0.931 . S
Eu368 C377 2.828 . S
Eu368 O379 2.392 . S
Eu368 O381 2.418 . S
Eu368 O386 2.373 . S
Eu368 O389 2.488 . S
Eu368 O390 2.471 . S
Eu368 O391 2.349 . S
Eu369 O378 2.373 . S
Eu369 O382 2.488 . S
Eu369 O383 2.471 . S
Eu369 O384 2.349 . S
Eu369 O387 2.392 . S
Eu369 O388 2.418 . S
Eu369 C398 2.828 . S
C370 O388 1.244 . S
C370 O391 1.265 . S
C371 C372 1.379 . S
C371 C375 1.373 . S
C371 C377 1.505 . S
C372 C371 1.379 . S
C372 C374 1.369 . S
C372 H400 0.930 . S
C373 C375 1.383 . S
C373 C376 1.382 . S
C373 H401 0.930 . S
C374 C372 1.369 . S
C374 C376 1.392 . S
C374 H402 0.930 . S
C375 C371 1.373 . S
C375 C373 1.383 . S
C375 H403 0.931 . S
C376 C373 1.382 . S
C376 C374 1.392 . S
C377 Eu368 2.828 . S
C377 C371 1.505 . S
C377 O389 1.249 . S
C377 O390 1.244 . S
O378 Eu369 2.373 . S
O378 C380 1.258 . S
O379 Eu368 2.392 . S
O379 C380 1.242 . S
C380 O378 1.258 . S
C380 O379 1.242 . S
O381 Eu368 2.418 . S
O381 C385 1.244 . S
O382 Eu369 2.488 . S
O382 C398 1.249 . S
O383 Eu369 2.471 . S
O383 C398 1.244 . S
O384 Eu369 2.349 . S
O384 C385 1.265 . S
C385 O381 1.244 . S
C385 O384 1.265 . S
O386 Eu368 2.373 . S
O386 C399 1.258 . S
O387 Eu369 2.392 . S
O387 C399 1.242 . S
O388 Eu369 2.418 . S
O388 C370 1.244 . S
O389 Eu368 2.488 . S
O389 C377 1.249 . S
O390 Eu368 2.471 . S
O390 C377 1.244 . S
O391 Eu368 2.349 . S
O391 C370 1.265 . S
C392 C393 1.379 . S
C392 C396 1.373 . S
C392 C398 1.505 . S
C393 C392 1.379 . S
C393 C395 1.369 . S
C393 H404 0.930 . S
C394 C396 1.383 . S
C394 C397 1.382 . S
C394 H405 0.930 . S
C395 C393 1.369 . S
C395 C397 1.392 . S
C395 H406 0.930 . S
C396 C392 1.373 . S
C396 C394 1.383 . S
C396 H407 0.931 . S
C397 C394 1.382 . S
C397 C395 1.392 . S
C398 Eu369 2.828 . S
C398 O382 1.249 . S
C398 O383 1.244 . S
C398 C392 1.505 . S
C399 O386 1.258 . S
C399 O387 1.242 . S
H400 C372 0.930 . S
H401 C373 0.930 . S
H402 C374 0.930 . S
H403 C375 0.931 . S
H404 C393 0.930 . S
H405 C394 0.930 . S
H406 C395 0.930 . S
H407 C396 0.931 . S
Eu408 C417 2.828 . S
Eu408 O419 2.392 . S
Eu408 O421 2.418 1_455 S
Eu408 O426 2.373 . S
Eu408 O429 2.488 . S
Eu408 O430 2.471 . S
Eu408 O431 2.349 . S
Eu409 O418 2.373 . S
Eu409 O422 2.488 . S
Eu409 O423 2.471 . S
Eu409 O424 2.349 . S
Eu409 O427 2.392 1_655 S
Eu409 O428 2.418 1_655 S
Eu409 C438 2.828 . S
C410 O428 1.244 . S
C410 O431 1.265 . S
C411 C412 1.379 . S
C411 C415 1.373 . S
C411 C417 1.505 . S
C412 C411 1.379 . S
C412 C414 1.369 . S
C412 H440 0.930 . S
C413 C415 1.383 . S
C413 C416 1.382 . S
C413 H441 0.930 . S
C414 C412 1.369 . S
C414 C416 1.392 . S
C414 H442 0.930 . S
C415 C411 1.373 . S
C415 C413 1.383 . S
C415 H443 0.931 . S
C416 C413 1.382 . S
C416 C414 1.392 . S
C417 Eu408 2.828 . S
C417 C411 1.505 . S
C417 O429 1.249 . S
C417 O430 1.244 . S
O418 Eu409 2.373 . S
O418 C420 1.258 1_655 S
O419 Eu408 2.392 . S
O419 C420 1.242 . S
C420 O418 1.258 1_455 S
C420 O419 1.242 . S
O421 Eu408 2.418 1_655 S
O421 C425 1.244 . S
O422 Eu409 2.488 . S
O422 C438 1.249 . S
O423 Eu409 2.471 . S
O423 C438 1.244 . S
O424 Eu409 2.349 . S
O424 C425 1.265 . S
C425 O421 1.244 . S
C425 O424 1.265 . S
O426 Eu408 2.373 . S
O426 C439 1.258 . S
O427 Eu409 2.392 1_455 S
O427 C439 1.242 . S
O428 Eu409 2.418 1_455 S
O428 C410 1.244 . S
O429 Eu408 2.488 . S
O429 C417 1.249 . S
O430 Eu408 2.471 . S
O430 C417 1.244 . S
O431 Eu408 2.349 . S
O431 C410 1.265 . S
C432 C433 1.379 . S
C432 C436 1.373 . S
C432 C438 1.505 . S
C433 C432 1.379 . S
C433 C435 1.369 . S
C433 H444 0.930 . S
C434 C436 1.383 . S
C434 C437 1.382 . S
C434 H445 0.930 . S
C435 C433 1.369 . S
C435 C437 1.392 . S
C435 H446 0.930 . S
C436 C432 1.373 . S
C436 C434 1.383 . S
C436 H447 0.931 . S
C437 C434 1.382 . S
C437 C435 1.392 . S
C438 Eu409 2.828 . S
C438 O422 1.249 . S
C438 O423 1.244 . S
C438 C432 1.505 . S
C439 O426 1.258 . S
C439 O427 1.242 . S
H440 C412 0.930 . S
H441 C413 0.930 . S
H442 C414 0.930 . S
H443 C415 0.931 . S
H444 C433 0.930 . S
H445 C434 0.930 . S
H446 C435 0.930 . S
H447 C436 0.931 . S
H448 C466 0.951 . S
H449 C468 0.951 . S
H450 C470 0.950 . S
H451 C471 0.950 . S
H452 C473 0.950 . S
H453 C476 0.950 . S
H454 C477 0.952 . S
H455 C479 0.950 . S
H456 C480 0.950 . S
H457 C481 0.951 . S
H458 C483 0.951 . S
H459 C485 0.950 . S
H460 C486 0.950 . S
H461 C488 0.950 . S
H462 C491 0.950 . S
H463 C492 0.950 . S
H464 C494 0.950 . S
H465 C495 0.950 . S
C466 H448 0.951 . S
C466 C467 1.366 . S
C466 C468 1.388 . S
C467 C466 1.366 . S
C467 C471 1.385 . S
C468 H449 0.951 . S
C468 C466 1.388 . S
C468 C469 1.366 . S
C469 C468 1.366 . S
C469 C470 1.414 . S
C469 C472 1.499 . S
C470 H450 0.950 . S
C470 C469 1.414 . S
C470 C471 1.374 . S
C471 H451 0.950 . S
C471 C467 1.385 . S
C471 C470 1.374 . S
C472 C469 1.499 . S
C472 C473 1.373 . S
C472 C474 1.389 . S
C473 H452 0.950 . S
C473 C472 1.373 . S
C473 C489 1.377 . S
C474 C472 1.389 . S
C474 C475 1.524 . S
C474 C488 1.377 . S
C475 C474 1.524 . S
C475 C476 1.397 . S
C475 C480 1.363 1_545 S
C476 H453 0.950 . S
C476 C475 1.397 . S
C476 C477 1.334 1_545 S
C477 H454 0.952 . S
C477 C476 1.334 1_565 S
C477 C478 1.287 . S
C478 C477 1.287 . S
C478 C479 1.524 . S
C478 H497 0.913 . S
C479 H455 0.950 . S
C479 C478 1.524 . S
C479 C480 1.415 . S
C480 H456 0.950 . S
C480 C475 1.363 1_565 S
C480 C479 1.415 . S
C481 H457 0.951 . S
C481 C482 1.366 . S
C481 C483 1.388 . S
C482 C481 1.366 . S
C482 C486 1.385 . S
C483 H458 0.951 . S
C483 C481 1.388 . S
C483 C484 1.366 . S
C484 C483 1.366 . S
C484 C485 1.414 . S
C484 C487 1.499 . S
C485 H459 0.950 . S
C485 C484 1.414 . S
C485 C486 1.374 . S
C486 H460 0.950 . S
C486 C482 1.385 . S
C486 C485 1.374 . S
C487 C484 1.499 . S
C487 C488 1.373 . S
C487 C489 1.389 . S
C488 H461 0.950 . S
C488 C474 1.377 . S
C488 C487 1.373 . S
C489 C473 1.377 . S
C489 C487 1.389 . S
C489 C490 1.524 . S
C490 C489 1.524 . S
C490 C491 1.397 . S
C490 C495 1.363 . S
C491 H462 0.950 . S
C491 C490 1.397 . S
C491 C492 1.334 . S
C492 H463 0.950 . S
C492 C491 1.334 . S
C492 C493 1.287 . S
C493 C492 1.287 . S
C493 C494 1.524 . S
C493 H496 0.999 . S
C494 H464 0.950 . S
C494 C493 1.524 . S
C494 C495 1.415 . S
C495 H465 0.950 . S
C495 C490 1.363 . S
C495 C494 1.415 . S
H496 C493 0.999 . S
H497 C478 0.913 . S
H498 C516 0.951 . S
H499 C518 0.951 . S
H500 C520 0.950 . S
H501 C521 0.950 . S
H502 C523 0.950 . S
H503 C526 0.950 . S
H504 C527 0.950 . S
H505 C529 0.950 . S
H506 C530 0.950 . S
H507 C531 0.951 . S
H508 C533 0.951 . S
H509 C535 0.950 . S
H510 C536 0.950 . S
H511 C538 0.950 . S
H512 C541 0.950 . S
H513 C542 0.950 . S
H514 C544 0.950 . S
H515 C545 0.950 . S
C516 H498 0.951 . S
C516 C517 1.366 . S
C516 C518 1.388 . S
C517 C516 1.366 . S
C517 C521 1.385 . S
C518 H499 0.951 . S
C518 C516 1.388 . S
C518 C519 1.366 . S
C519 C518 1.366 . S
C519 C520 1.414 . S
C519 C522 1.499 . S
C520 H500 0.950 . S
C520 C519 1.414 . S
C520 C521 1.374 . S
C521 H501 0.950 . S
C521 C517 1.385 . S
C521 C520 1.374 . S
C522 C519 1.499 . S
C522 C523 1.373 . S
C522 C524 1.389 . S
C523 H502 0.950 . S
C523 C522 1.373 . S
C523 C539 1.377 . S
C524 C522 1.389 . S
C524 C525 1.524 . S
C524 C538 1.377 . S
C525 C524 1.524 . S
C525 C526 1.397 . S
C525 C530 1.363 . S
C526 H503 0.950 . S
C526 C525 1.397 . S
C526 C527 1.334 . S
C527 H504 0.950 . S
C527 C526 1.334 . S
C527 C528 1.287 . S
C528 C527 1.287 . S
C528 C529 1.524 . S
C528 H547 0.913 . S
C529 H505 0.950 . S
C529 C528 1.524 . S
C529 C530 1.415 . S
C530 H506 0.950 . S
C530 C525 1.363 . S
C530 C529 1.415 . S
C531 H507 0.951 . S
C531 C532 1.366 . S
C531 C533 1.388 . S
C532 C531 1.366 . S
C532 C536 1.385 . S
C533 H508 0.951 . S
C533 C531 1.388 . S
C533 C534 1.366 . S
C534 C533 1.366 . S
C534 C535 1.414 . S
C534 C537 1.499 . S
C535 H509 0.950 . S
C535 C534 1.414 . S
C535 C536 1.374 . S
C536 H510 0.950 . S
C536 C532 1.385 . S
C536 C535 1.374 . S
C537 C534 1.499 . S
C537 C538 1.373 . S
C537 C539 1.389 . S
C538 H511 0.950 . S
C538 C524 1.377 . S
C538 C537 1.373 . S
C539 C523 1.377 . S
C539 C537 1.389 . S
C539 C540 1.524 . S
C540 C539 1.524 . S
C540 C541 1.397 . S
C540 C545 1.363 . S
C541 H512 0.950 . S
C541 C540 1.397 . S
C541 C542 1.334 . S
C542 H513 0.950 . S
C542 C541 1.334 . S
C542 C543 1.287 . S
C543 C542 1.287 . S
C543 C544 1.524 . S
C543 H546 0.999 . S
C544 H514 0.950 . S
C544 C543 1.524 . S
C544 C545 1.415 . S
C545 H515 0.950 . S
C545 C540 1.363 . S
C545 C544 1.415 . S
H546 C543 0.999 . S
H547 C528 0.913 . S
H548 C566 0.951 . S
H549 C568 0.951 . S
H550 C570 0.950 . S
H551 C571 0.950 . S
H552 C573 0.950 . S
H553 C576 0.950 . S
H554 C577 0.950 . S
H555 C579 0.950 . S
H556 C580 0.950 . S
H557 C581 0.951 . S
H558 C583 0.951 . S
H559 C585 0.950 . S
H560 C586 0.950 . S
H561 C588 0.950 . S
H562 C591 0.950 . S
H563 C592 0.950 . S
H564 C594 0.950 . S
H565 C595 0.950 . S
C566 H548 0.951 . S
C566 C567 1.366 . S
C566 C568 1.388 . S
C567 C566 1.366 . S
C567 C571 1.385 . S
C568 H549 0.951 . S
C568 C566 1.388 . S
C568 C569 1.366 . S
C569 C568 1.366 . S
C569 C570 1.414 . S
C569 C572 1.499 . S
C570 H550 0.950 . S
C570 C569 1.414 . S
C570 C571 1.374 . S
C571 H551 0.950 . S
C571 C567 1.385 . S
C571 C570 1.374 . S
C572 C569 1.499 . S
C572 C573 1.373 . S
C572 C574 1.389 . S
C573 H552 0.950 . S
C573 C572 1.373 . S
C573 C589 1.377 . S
C574 C572 1.389 . S
C574 C575 1.524 . S
C574 C588 1.377 . S
C575 C574 1.524 . S
C575 C576 1.397 . S
C575 C580 1.363 . S
C576 H553 0.950 . S
C576 C575 1.397 . S
C576 C577 1.334 . S
C577 H554 0.950 . S
C577 C576 1.334 . S
C577 C578 1.287 . S
C578 C577 1.287 . S
C578 C579 1.524 . S
C578 H597 0.913 . S
C579 H555 0.950 . S
C579 C578 1.524 . S
C579 C580 1.415 . S
C580 H556 0.950 . S
C580 C575 1.363 . S
C580 C579 1.415 . S
C581 H557 0.951 . S
C581 C582 1.366 . S
C581 C583 1.388 . S
C582 C581 1.366 . S
C582 C586 1.385 . S
C583 H558 0.951 . S
C583 C581 1.388 . S
C583 C584 1.366 . S
C584 C583 1.366 . S
C584 C585 1.414 . S
C584 C587 1.499 . S
C585 H559 0.950 . S
C585 C584 1.414 . S
C585 C586 1.374 . S
C586 H560 0.950 . S
C586 C582 1.385 . S
C586 C585 1.374 . S
C587 C584 1.499 . S
C587 C588 1.373 . S
C587 C589 1.389 . S
C588 H561 0.950 . S
C588 C574 1.377 . S
C588 C587 1.373 . S
C589 C573 1.377 . S
C589 C587 1.389 . S
C589 C590 1.524 . S
C590 C589 1.524 . S
C590 C591 1.397 . S
C590 C595 1.363 . S
C591 H562 0.950 . S
C591 C590 1.397 . S
C591 C592 1.334 . S
C592 H563 0.950 . S
C592 C591 1.334 . S
C592 C593 1.287 . S
C593 C592 1.287 . S
C593 C594 1.524 . S
C593 H596 0.999 . S
C594 H564 0.950 . S
C594 C593 1.524 . S
C594 C595 1.415 . S
C595 H565 0.950 . S
C595 C590 1.363 . S
C595 C594 1.415 . S
H596 C593 0.999 . S
H597 C578 0.913 . S
H598 C616 0.951 . S
H599 C618 0.951 . S
H600 C620 0.950 . S
H601 C621 0.950 . S
H602 C623 0.950 . S
H603 C626 0.950 . S
H604 C627 0.950 . S
H605 C629 0.950 . S
H606 C630 0.950 . S
H607 C631 0.951 . S
H608 C633 0.951 . S
H609 C635 0.950 . S
H610 C636 0.950 . S
H611 C638 0.950 . S
H612 C641 0.950 . S
H613 C642 0.950 . S
H614 C644 0.950 . S
H615 C645 0.950 . S
C616 H598 0.951 . S
C616 C617 1.366 . S
C616 C618 1.388 . S
C617 C616 1.366 . S
C617 C621 1.385 . S
C618 H599 0.951 . S
C618 C616 1.388 . S
C618 C619 1.366 . S
C619 C618 1.366 . S
C619 C620 1.414 . S
C619 C622 1.499 . S
C620 H600 0.950 . S
C620 C619 1.414 . S
C620 C621 1.374 . S
C621 H601 0.950 . S
C621 C617 1.385 . S
C621 C620 1.374 . S
C622 C619 1.499 . S
C622 C623 1.373 . S
C622 C624 1.389 . S
C623 H602 0.950 . S
C623 C622 1.373 . S
C623 C639 1.377 . S
C624 C622 1.389 . S
C624 C625 1.524 . S
C624 C638 1.377 . S
C625 C624 1.524 . S
C625 C626 1.397 1_455 S
C625 C630 1.363 . S
C626 H603 0.950 . S
C626 C625 1.397 1_655 S
C626 C627 1.334 . S
C627 H604 0.950 . S
C627 C626 1.334 . S
C627 C628 1.287 . S
C628 C627 1.287 . S
C628 C629 1.524 . S
C628 H647 0.913 . S
C629 H605 0.950 . S
C629 C628 1.524 . S
C629 C630 1.415 1_655 S
C630 H606 0.950 . S
C630 C625 1.363 . S
C630 C629 1.415 1_455 S
C631 H607 0.951 . S
C631 C632 1.366 . S
C631 C633 1.388 . S
C632 C631 1.366 . S
C632 C636 1.385 . S
C633 H608 0.951 . S
C633 C631 1.388 . S
C633 C634 1.366 . S
C634 C633 1.366 . S
C634 C635 1.414 . S
C634 C637 1.499 . S
C635 H609 0.950 . S
C635 C634 1.414 . S
C635 C636 1.374 . S
C636 H610 0.950 . S
C636 C632 1.385 . S
C636 C635 1.374 . S
C637 C634 1.499 . S
C637 C638 1.373 . S
C637 C639 1.389 . S
C638 H611 0.950 . S
C638 C624 1.377 . S
C638 C637 1.373 . S
C639 C623 1.377 . S
C639 C637 1.389 . S
C639 C640 1.524 . S
C640 C639 1.524 . S
C640 C641 1.397 . S
C640 C645 1.363 . S
C641 H612 0.950 . S
C641 C640 1.397 . S
C641 C642 1.334 . S
C642 H613 0.950 . S
C642 C641 1.334 . S
C642 C643 1.287 . S
C643 C642 1.287 . S
C643 C644 1.524 . S
C643 H646 0.999 . S
C644 H614 0.950 . S
C644 C643 1.524 . S
C644 C645 1.415 . S
C645 H615 0.950 . S
C645 C640 1.363 . S
C645 C644 1.415 . S
H646 C643 0.999 . S
H647 C628 0.913 . S
H648 C666 0.951 . S
H649 C668 0.951 . S
H650 C670 0.950 . S
H651 C671 0.950 . S
H652 C673 0.950 . S
H653 C676 0.950 . S
H654 C677 0.950 . S
H655 C679 0.950 . S
H656 C680 0.950 . S
H657 C681 0.951 . S
H658 C683 0.951 1_545 S
H659 C685 0.950 . S
H660 C686 0.950 . S
H661 C688 0.950 . S
H662 C691 0.950 . S
H663 C692 0.950 . S
H664 C694 0.950 . S
H665 C695 0.950 . S
C666 H648 0.951 . S
C666 C667 1.366 . S
C666 C668 1.388 . S
C667 C666 1.366 . S
C667 C671 1.385 . S
C668 H649 0.951 . S
C668 C666 1.388 . S
C668 C669 1.366 . S
C669 C668 1.366 . S
C669 C670 1.414 . S
C669 C672 1.499 1_554 S
C670 H650 0.950 . S
C670 C669 1.414 . S
C670 C671 1.374 . S
C671 H651 0.950 . S
C671 C667 1.385 . S
C671 C670 1.374 . S
C672 C669 1.499 1_556 S
C672 C673 1.373 . S
C672 C674 1.389 . S
C673 H652 0.950 . S
C673 C672 1.373 . S
C673 C689 1.377 . S
C674 C672 1.389 . S
C674 C675 1.513 1_556 S
C674 C688 1.377 . S
C675 C674 1.513 1_554 S
C675 C676 1.414 . S
C675 C680 1.357 1_554 S
C676 H653 0.950 . S
C676 C675 1.414 . S
C676 C677 1.334 . S
C677 H654 0.950 . S
C677 C676 1.334 . S
C677 C678 1.287 . S
C678 C677 1.287 . S
C678 C679 1.524 . S
C678 H697 0.913 . S
C679 H655 0.950 . S
C679 C678 1.524 . S
C679 C680 1.415 1_554 S
C680 H656 0.950 . S
C680 C675 1.357 1_556 S
C680 C679 1.415 1_556 S
C681 H657 0.951 . S
C681 C682 1.366 1_545 S
C681 C683 1.388 1_545 S
C682 C681 1.366 1_565 S
C682 C686 1.385 . S
C683 H658 0.951 1_565 S
C683 C681 1.388 1_565 S
C683 C684 1.366 . S
C684 C683 1.366 . S
C684 C685 1.414 . S
C684 C687 1.499 . S
C685 H659 0.950 . S
C685 C684 1.414 . S
C685 C686 1.374 . S
C686 H660 0.950 . S
C686 C682 1.385 . S
C686 C685 1.374 . S
C687 C684 1.499 . S
C687 C688 1.373 . S
C687 C689 1.389 . S
C688 H661 0.950 . S
C688 C674 1.377 . S
C688 C687 1.373 . S
C689 C673 1.377 . S
C689 C687 1.389 . S
C689 C690 1.524 . S
C690 C689 1.524 . S
C690 C691 1.397 . S
C690 C695 1.363 1_565 S
C691 H662 0.950 . S
C691 C690 1.397 . S
C691 C692 1.334 . S
C692 H663 0.950 . S
C692 C691 1.334 . S
C692 C693 1.287 1_565 S
C693 C692 1.287 1_545 S
C693 C694 1.524 . S
C693 H696 0.999 . S
C694 H664 0.950 . S
C694 C693 1.524 . S
C694 C695 1.415 . S
C695 H665 0.950 . S
C695 C690 1.363 1_545 S
C695 C694 1.415 . S
H696 C693 0.999 . S
H697 C678 0.913 . S
H698 C716 0.951 . S
H699 C718 0.951 . S
H700 C720 0.950 . S
H701 C721 0.950 . S
H702 C723 0.950 . S
H703 C726 0.950 . S
H704 C727 0.950 . S
H705 C729 0.950 . S
H706 C730 0.950 . S
H707 C731 0.951 . S
H708 C733 0.951 . S
H709 C735 0.950 . S
H710 C736 0.950 . S
H711 C738 0.950 . S
H712 C741 0.950 . S
H713 C742 0.950 . S
H714 C744 0.950 . S
H715 C745 0.950 . S
C716 H698 0.951 . S
C716 C717 1.366 . S
C716 C718 1.388 1_554 S
C717 C716 1.366 . S
C717 C721 1.385 . S
C718 H699 0.951 . S
C718 C716 1.388 1_556 S
C718 C719 1.366 . S
C719 C718 1.366 . S
C719 C720 1.414 1_556 S
C719 C722 1.499 . S
C720 H700 0.950 . S
C720 C719 1.414 1_554 S
C720 C721 1.374 . S
C721 H701 0.950 . S
C721 C717 1.385 . S
C721 C720 1.374 . S
C722 C719 1.499 . S
C722 C723 1.373 . S
C722 C724 1.389 . S
C723 H702 0.950 . S
C723 C722 1.373 . S
C723 C739 1.377 . S
C724 C722 1.389 . S
C724 C725 1.524 . S
C724 C738 1.377 . S
C725 C724 1.524 . S
C725 C726 1.397 . S
C725 C730 1.363 . S
C726 H703 0.950 . S
C726 C725 1.397 . S
C726 C727 1.334 . S
C727 H704 0.950 . S
C727 C726 1.334 . S
C727 C728 1.287 . S
C728 C727 1.287 . S
C728 C729 1.524 . S
C728 H747 0.913 . S
C729 H705 0.950 . S
C729 C728 1.524 . S
C729 C730 1.415 . S
C730 H706 0.950 . S
C730 C725 1.363 . S
C730 C729 1.415 . S
C731 H707 0.951 . S
C731 C732 1.366 . S
C731 C733 1.388 . S
C732 C731 1.366 . S
C732 C736 1.385 . S
C733 H708 0.951 . S
C733 C731 1.388 . S
C733 C734 1.366 . S
C734 C733 1.366 . S
C734 C735 1.414 . S
C734 C737 1.499 . S
C735 H709 0.950 . S
C735 C734 1.414 . S
C735 C736 1.374 . S
C736 H710 0.950 . S
C736 C732 1.385 . S
C736 C735 1.374 . S
C737 C734 1.499 . S
C737 C738 1.373 . S
C737 C739 1.389 . S
C738 H711 0.950 . S
C738 C724 1.377 . S
C738 C737 1.373 . S
C739 C723 1.377 . S
C739 C737 1.389 . S
C739 C740 1.524 . S
C740 C739 1.524 . S
C740 C741 1.397 . S
C740 C745 1.363 . S
C741 H712 0.950 . S
C741 C740 1.397 . S
C741 C742 1.334 . S
C742 H713 0.950 . S
C742 C741 1.334 . S
C742 C743 1.287 . S
C743 C742 1.287 . S
C743 C744 1.524 . S
C743 H746 0.999 . S
C744 H714 0.950 . S
C744 C743 1.524 . S
C744 C745 1.415 . S
C745 H715 0.950 . S
C745 C740 1.363 . S
C745 C744 1.415 . S
H746 C743 0.999 . S
H747 C728 0.913 . S
H748 C766 0.951 . S
H749 C768 0.951 . S
H750 C770 0.950 . S
H751 C771 0.950 . S
H752 C773 0.950 . S
H753 C776 0.950 . S
H754 C777 0.950 . S
H755 C779 0.950 . S
H756 C780 0.950 . S
H757 C781 0.951 . S
H758 C783 0.951 . S
H759 C785 0.950 . S
H760 C786 0.950 . S
H761 C788 0.950 . S
H762 C791 0.950 . S
H763 C792 0.950 . S
H764 C794 0.950 . S
H765 C795 0.950 . S
C766 H748 0.951 . S
C766 C767 1.366 . S
C766 C768 1.388 1_554 S
C767 C766 1.366 . S
C767 C771 1.385 . S
C768 H749 0.951 . S
C768 C766 1.388 1_556 S
C768 C769 1.366 . S
C769 C768 1.366 . S
C769 C770 1.414 . S
C769 C772 1.499 . S
C770 H750 0.950 . S
C770 C769 1.414 . S
C770 C771 1.374 1_556 S
C771 H751 0.950 . S
C771 C767 1.385 . S
C771 C770 1.374 1_554 S
C772 C769 1.499 . S
C772 C773 1.373 . S
C772 C774 1.389 . S
C773 H752 0.950 . S
C773 C772 1.373 . S
C773 C789 1.377 . S
C774 C772 1.389 . S
C774 C775 1.524 . S
C774 C788 1.377 . S
C775 C774 1.524 . S
C775 C776 1.397 . S
C775 C780 1.363 . S
C776 H753 0.950 . S
C776 C775 1.397 . S
C776 C777 1.334 . S
C777 H754 0.950 . S
C777 C776 1.334 . S
C777 C778 1.287 . S
C778 C777 1.287 . S
C778 C779 1.524 . S
C778 H797 0.913 . S
C779 H755 0.950 . S
C779 C778 1.524 . S
C779 C780 1.415 . S
C780 H756 0.950 . S
C780 C775 1.363 . S
C780 C779 1.415 . S
C781 H757 0.951 . S
C781 C782 1.366 . S
C781 C783 1.388 . S
C782 C781 1.366 . S
C782 C786 1.385 . S
C783 H758 0.951 . S
C783 C781 1.388 . S
C783 C784 1.366 . S
C784 C783 1.366 . S
C784 C785 1.414 . S
C784 C787 1.499 . S
C785 H759 0.950 . S
C785 C784 1.414 . S
C785 C786 1.374 . S
C786 H760 0.950 . S
C786 C782 1.385 . S
C786 C785 1.374 . S
C787 C784 1.499 . S
C787 C788 1.373 . S
C787 C789 1.389 . S
C788 H761 0.950 . S
C788 C774 1.377 . S
C788 C787 1.373 . S
C789 C773 1.377 . S
C789 C787 1.389 . S
C789 C790 1.524 . S
C790 C789 1.524 . S
C790 C791 1.397 . S
C790 C795 1.363 . S
C791 H762 0.950 . S
C791 C790 1.397 . S
C791 C792 1.334 . S
C792 H763 0.950 . S
C792 C791 1.334 . S
C792 C793 1.287 . S
C793 C792 1.287 . S
C793 C794 1.524 . S
C793 H796 0.999 . S
C794 H764 0.950 . S
C794 C793 1.524 . S
C794 C795 1.415 . S
C795 H765 0.950 . S
C795 C790 1.363 . S
C795 C794 1.415 . S
H796 C793 0.999 . S
H797 C778 0.913 . S
H798 C816 0.951 . S
H799 C818 0.951 1_455 S
H800 C820 0.950 . S
H801 C821 0.950 . S
H802 C823 0.950 . S
H803 C826 0.950 . S
H804 C827 0.950 . S
H805 C829 0.950 . S
H806 C830 0.950 . S
H807 C831 0.951 . S
H808 C833 0.951 . S
H809 C835 0.950 . S
H810 C836 0.950 . S
H811 C838 0.950 . S
H812 C841 0.911 1_455 S
H813 C842 0.950 . S
H814 C844 0.950 . S
H815 C845 0.950 . S
C816 H798 0.951 . S
C816 C817 1.366 . S
C816 C818 1.388 . S
C817 C816 1.366 . S
C817 C821 1.385 . S
C818 H799 0.951 1_655 S
C818 C816 1.388 . S
C818 C819 1.366 . S
C819 C818 1.366 . S
C819 C820 1.414 . S
C819 C822 1.499 1_554 S
C820 H800 0.950 . S
C820 C819 1.414 . S
C820 C821 1.374 . S
C821 H801 0.950 . S
C821 C817 1.385 . S
C821 C820 1.374 . S
C822 C819 1.499 1_556 S
C822 C823 1.373 . S
C822 C824 1.389 . S
C823 H802 0.950 . S
C823 C822 1.373 . S
C823 C839 1.377 . S
C824 C822 1.389 . S
C824 C825 1.524 . S
C824 C838 1.377 . S
C825 C824 1.524 . S
C825 C826 1.397 . S
C825 C830 1.363 1_655 S
C826 H803 0.950 . S
C826 C825 1.397 . S
C826 C827 1.334 . S
C827 H804 0.950 . S
C827 C826 1.334 . S
C827 C828 1.287 . S
C828 C827 1.287 . S
C828 C829 1.524 1_655 S
C828 H847 0.913 . S
C829 H805 0.950 . S
C829 C828 1.524 1_455 S
C829 C830 1.415 . S
C830 H806 0.950 . S
C830 C825 1.363 1_455 S
C830 C829 1.415 . S
C831 H807 0.951 . S
C831 C832 1.366 . S
C831 C833 1.388 . S
C832 C831 1.366 . S
C832 C836 1.385 1_655 S
C833 H808 0.951 . S
C833 C831 1.388 . S
C833 C834 1.366 . S
C834 C833 1.366 . S
C834 C835 1.414 1_655 S
C834 C837 1.499 . S
C835 H809 0.950 . S
C835 C834 1.414 1_455 S
C835 C836 1.374 . S
C836 H810 0.950 . S
C836 C832 1.385 1_455 S
C836 C835 1.374 . S
C837 C834 1.499 . S
C837 C838 1.373 . S
C837 C839 1.389 . S
C838 H811 0.950 . S
C838 C824 1.377 . S
C838 C837 1.373 . S
C839 C823 1.377 . S
C839 C837 1.389 . S
C839 C840 1.524 . S
C840 C839 1.524 . S
C840 C841 1.397 . S
C840 C845 1.363 . S
C841 H812 0.911 1_655 S
C841 C840 1.397 . S
C841 C842 1.334 . S
C842 H813 0.950 . S
C842 C841 1.334 . S
C842 C843 1.287 . S
C843 C842 1.287 . S
C843 C844 1.524 . S
C843 H846 0.999 . S
C844 H814 0.950 . S
C844 C843 1.524 . S
C844 C845 1.415 . S
C845 H815 0.950 . S
C845 C840 1.363 . S
C845 C844 1.415 . S
H846 C843 0.999 . S
H847 C828 0.913 . S
H848 C866 0.951 . S
H849 C868 0.951 . S
H850 C870 0.950 . S
H851 C871 0.950 . S
H852 C873 0.950 . S
H853 C876 0.928 1_455 S
H854 C877 0.950 . S
H855 C879 0.950 . S
H856 C880 0.950 . S
H857 C881 0.951 . S
H858 C883 0.951 . S
H859 C885 0.951 . S
H860 C886 0.950 . S
H861 C888 0.950 1_655 S
H862 C891 0.950 . S
H863 C892 0.950 . S
H864 C894 0.950 . S
H865 C895 0.950 . S
C866 H848 0.951 . S
C866 C867 1.366 . S
C866 C868 1.388 . S
C867 C866 1.366 . S
C867 C871 1.385 . S
C868 H849 0.951 . S
C868 C866 1.388 . S
C868 C869 1.366 . S
C869 C868 1.366 . S
C869 C870 1.414 . S
C869 C872 1.499 . S
C870 H850 0.950 . S
C870 C869 1.414 . S
C870 C871 1.374 . S
C871 H851 0.950 . S
C871 C867 1.385 . S
C871 C870 1.374 . S
C872 C869 1.499 . S
C872 C873 1.373 . S
C872 C874 1.389 . S
C873 H852 0.950 . S
C873 C872 1.373 . S
C873 C889 1.377 . S
C874 C872 1.389 . S
C874 C875 1.524 1_455 S
C874 C888 1.377 . S
C875 C874 1.524 1_655 S
C875 C876 1.397 . S
C875 C880 1.363 . S
C876 H853 0.928 1_655 S
C876 C875 1.397 . S
C876 C877 1.356 . S
C877 H854 0.950 . S
C877 C876 1.356 . S
C877 C878 1.287 . S
C878 C877 1.287 . S
C878 C879 1.524 . S
C878 H897 0.913 . S
C879 H855 0.950 . S
C879 C878 1.524 . S
C879 C880 1.415 . S
C880 H856 0.950 . S
C880 C875 1.363 . S
C880 C879 1.415 . S
C881 H857 0.951 . S
C881 C882 1.363 . S
C881 C883 1.388 . S
C882 C881 1.363 . S
C882 C886 1.386 1_455 S
C883 H858 0.951 . S
C883 C881 1.388 . S
C883 C884 1.366 . S
C884 C883 1.366 . S
C884 C885 1.413 1_455 S
C884 C887 1.499 . S
C885 H859 0.951 . S
C885 C884 1.413 1_655 S
C885 C886 1.374 . S
C886 H860 0.950 . S
C886 C882 1.386 1_655 S
C886 C885 1.374 . S
C887 C884 1.499 . S
C887 C888 1.373 . S
C887 C889 1.389 . S
C888 H861 0.950 1_455 S
C888 C874 1.377 . S
C888 C887 1.373 . S
C889 C873 1.377 . S
C889 C887 1.389 . S
C889 C890 1.524 . S
C890 C889 1.524 . S
C890 C891 1.397 . S
C890 C895 1.363 . S
C891 H862 0.950 . S
C891 C890 1.397 . S
C891 C892 1.334 . S
C892 H863 0.950 . S
C892 C891 1.334 . S
C892 C893 1.287 . S
C893 C892 1.287 . S
C893 C894 1.524 . S
C893 H896 0.999 . S
C894 H864 0.950 . S
C894 C893 1.524 . S
C894 C895 1.415 . S
C895 H865 0.950 . S
C895 C890 1.363 . S
C895 C894 1.415 . S
H896 C893 0.999 . S
H897 C878 0.913 . S
H898 C916 0.951 . S
H899 C918 0.951 . S
H900 C920 0.950 . S
H901 C921 0.950 . S
H902 C923 0.950 . S
H903 C926 0.950 . S
H904 C927 0.950 . S
H905 C929 0.950 . S
H906 C930 0.950 . S
H907 C931 0.962 . S
H908 C933 0.951 . S
H909 C935 0.950 . S
H910 C936 0.950 . S
H911 C938 0.950 . S
H912 C941 0.950 . S
H913 C942 0.950 . S
H914 C944 0.950 . S
H915 C945 0.950 . S
C916 H898 0.951 . S
C916 C917 1.366 . S
C916 C918 1.388 . S
C917 C916 1.366 . S
C917 C921 1.385 . S
C918 H899 0.951 . S
C918 C916 1.388 . S
C918 C919 1.366 . S
C919 C918 1.366 . S
C919 C920 1.414 . S
C919 C922 1.499 . S
C920 H900 0.950 . S
C920 C919 1.414 . S
C920 C921 1.374 . S
C921 H901 0.950 . S
C921 C917 1.385 . S
C921 C920 1.374 . S
C922 C919 1.499 . S
C922 C923 1.373 . S
C922 C924 1.389 . S
C923 H902 0.950 . S
C923 C922 1.373 . S
C923 C939 1.377 . S
C924 C922 1.389 . S
C924 C925 1.524 . S
C924 C938 1.377 . S
C925 C924 1.524 . S
C925 C926 1.397 . S
C925 C930 1.363 . S
C926 H903 0.950 . S
C926 C925 1.397 . S
C926 C927 1.334 . S
C927 H904 0.950 . S
C927 C926 1.334 . S
C927 C928 1.287 . S
C928 C927 1.287 . S
C928 C929 1.524 . S
C928 H947 0.913 . S
C929 H905 0.950 . S
C929 C928 1.524 . S
C929 C930 1.415 . S
C930 H906 0.950 . S
C930 C925 1.363 . S
C930 C929 1.415 . S
C931 H907 0.962 . S
C931 C932 1.366 . S
C931 C933 1.388 . S
C932 C931 1.366 . S
C932 C936 1.385 . S
C933 H908 0.951 . S
C933 C931 1.388 . S
C933 C934 1.366 . S
C934 C933 1.366 . S
C934 C935 1.414 . S
C934 C937 1.499 . S
C935 H909 0.950 . S
C935 C934 1.414 . S
C935 C936 1.374 . S
C936 H910 0.950 . S
C936 C932 1.385 . S
C936 C935 1.374 . S
C937 C934 1.499 . S
C937 C938 1.373 . S
C937 C939 1.389 . S
C938 H911 0.950 . S
C938 C924 1.377 . S
C938 C937 1.373 . S
C939 C923 1.377 . S
C939 C937 1.389 . S
C939 C940 1.524 . S
C940 C939 1.524 . S
C940 C941 1.397 . S
C940 C945 1.363 . S
C941 H912 0.950 . S
C941 C940 1.397 . S
C941 C942 1.334 . S
C942 H913 0.950 . S
C942 C941 1.334 . S
C942 C943 1.287 . S
C943 C942 1.287 . S
C943 C944 1.524 . S
C943 H946 0.999 . S
C944 H914 0.950 . S
C944 C943 1.524 . S
C944 C945 1.415 . S
C945 H915 0.950 . S
C945 C940 1.363 . S
C945 C944 1.415 . S
H946 C943 0.999 . S
H947 C928 0.913 . S
H948 C966 0.951 . S
H949 C968 0.951 . S
H950 C970 0.950 . S
H951 C971 0.950 . S
H952 C973 0.950 . S
H953 C976 0.950 . S
H954 C977 0.950 . S
H955 C979 0.950 . S
H956 C980 0.950 . S
H957 C981 0.951 . S
H958 C983 0.951 . S
H959 C985 0.950 . S
H960 C986 0.950 . S
H961 C988 0.950 . S
H962 C991 0.950 . S
H963 C992 0.950 . S
H964 C994 0.950 . S
H965 C995 0.950 . S
C966 H948 0.951 . S
C966 C967 1.366 . S
C966 C968 1.388 . S
C967 C966 1.366 . S
C967 C971 1.385 . S
C968 H949 0.951 . S
C968 C966 1.388 . S
C968 C969 1.366 . S
C969 C968 1.366 . S
C969 C970 1.414 . S
C969 C972 1.499 . S
C970 H950 0.950 . S
C970 C969 1.414 . S
C970 C971 1.374 . S
C971 H951 0.950 . S
C971 C967 1.385 . S
C971 C970 1.374 . S
C972 C969 1.499 . S
C972 C973 1.373 . S
C972 C974 1.389 . S
C973 H952 0.950 . S
C973 C972 1.373 . S
C973 C989 1.377 . S
C974 C972 1.389 . S
C974 C975 1.524 . S
C974 C988 1.377 . S
C975 C974 1.524 . S
C975 C976 1.397 . S
C975 C980 1.363 . S
C976 H953 0.950 . S
C976 C975 1.397 . S
C976 C977 1.334 . S
C977 H954 0.950 . S
C977 C976 1.334 . S
C977 C978 1.287 . S
C978 C977 1.287 . S
C978 C979 1.524 . S
C978 H997 0.913 . S
C979 H955 0.950 . S
C979 C978 1.524 . S
C979 C980 1.415 . S
C980 H956 0.950 . S
C980 C975 1.363 . S
C980 C979 1.415 . S
C981 H957 0.951 . S
C981 C982 1.366 . S
C981 C983 1.388 . S
C982 C981 1.366 . S
C982 C986 1.385 . S
C983 H958 0.951 . S
C983 C981 1.388 . S
C983 C984 1.366 . S
C984 C983 1.366 . S
C984 C985 1.414 . S
C984 C987 1.499 . S
C985 H959 0.950 . S
C985 C984 1.414 . S
C985 C986 1.374 . S
C986 H960 0.950 . S
C986 C982 1.385 . S
C986 C985 1.374 . S
C987 C984 1.499 . S
C987 C988 1.373 . S
C987 C989 1.389 . S
C988 H961 0.950 . S
C988 C974 1.377 . S
C988 C987 1.373 . S
C989 C973 1.377 . S
C989 C987 1.389 . S
C989 C990 1.524 . S
C990 C989 1.524 . S
C990 C991 1.397 . S
C990 C995 1.363 . S
C991 H962 0.950 . S
C991 C990 1.397 . S
C991 C992 1.334 . S
C992 H963 0.950 . S
C992 C991 1.334 . S
C992 C993 1.287 . S
C993 C992 1.287 . S
C993 C994 1.524 . S
C993 H996 0.999 . S
C994 H964 0.950 . S
C994 C993 1.524 . S
C994 C995 1.415 . S
C995 H965 0.950 . S
C995 C990 1.363 . S
C995 C994 1.415 . S
H996 C993 0.999 . S
H997 C978 0.913 . S
H998 C1016 0.951 . S
H999 C1018 0.951 . S
H1000 C1020 0.950 . S
H1001 C1021 0.950 . S
H1002 C1023 0.950 . S
H1003 C1026 0.950 . S
H1004 C1027 0.950 . S
H1005 C1029 0.950 . S
H1006 C1030 0.950 . S
H1007 C1031 0.951 . S
H1008 C1033 0.951 . S
H1009 C1035 0.950 . S
H1010 C1036 0.950 . S
H1011 C1038 0.950 . S
H1012 C1041 0.950 . S
H1013 C1042 0.950 . S
H1014 C1044 0.950 . S
H1015 C1045 0.950 . S
C1016 H998 0.951 . S
C1016 C1017 1.366 . S
C1016 C1018 1.388 . S
C1017 C1016 1.366 . S
C1017 C1021 1.385 . S
C1018 H999 0.951 . S
C1018 C1016 1.388 . S
C1018 C1019 1.366 . S
C1019 C1018 1.366 . S
C1019 C1020 1.414 . S
C1019 C1022 1.499 . S
C1020 H1000 0.950 . S
C1020 C1019 1.414 . S
C1020 C1021 1.374 . S
C1021 H1001 0.950 . S
C1021 C1017 1.385 . S
C1021 C1020 1.374 . S
C1022 C1019 1.499 . S
C1022 C1023 1.373 . S
C1022 C1024 1.389 . S
C1023 H1002 0.950 . S
C1023 C1022 1.373 . S
C1023 C1039 1.377 . S
C1024 C1022 1.389 . S
C1024 C1025 1.524 . S
C1024 C1038 1.377 . S
C1025 C1024 1.524 . S
C1025 C1026 1.397 . S
C1025 C1030 1.363 . S
C1026 H1003 0.950 . S
C1026 C1025 1.397 . S
C1026 C1027 1.334 . S
C1027 H1004 0.950 . S
C1027 C1026 1.334 . S
C1027 C1028 1.287 . S
C1028 C1027 1.287 . S
C1028 C1029 1.524 . S
C1028 H1047 0.913 . S
C1029 H1005 0.950 . S
C1029 C1028 1.524 . S
C1029 C1030 1.415 . S
C1030 H1006 0.950 . S
C1030 C1025 1.363 . S
C1030 C1029 1.415 . S
C1031 H1007 0.951 . S
C1031 C1032 1.366 . S
C1031 C1033 1.388 . S
C1032 C1031 1.366 . S
C1032 C1036 1.385 . S
C1033 H1008 0.951 . S
C1033 C1031 1.388 . S
C1033 C1034 1.366 . S
C1034 C1033 1.366 . S
C1034 C1035 1.414 . S
C1034 C1037 1.499 . S
C1035 H1009 0.950 . S
C1035 C1034 1.414 . S
C1035 C1036 1.374 . S
C1036 H1010 0.950 . S
C1036 C1032 1.385 . S
C1036 C1035 1.374 . S
C1037 C1034 1.499 . S
C1037 C1038 1.373 . S
C1037 C1039 1.389 . S
C1038 H1011 0.950 . S
C1038 C1024 1.377 . S
C1038 C1037 1.373 . S
C1039 C1023 1.377 . S
C1039 C1037 1.389 . S
C1039 C1040 1.524 . S
C1040 C1039 1.524 . S
C1040 C1041 1.397 . S
C1040 C1045 1.363 . S
C1041 H1012 0.950 . S
C1041 C1040 1.397 . S
C1041 C1042 1.334 . S
C1042 H1013 0.950 . S
C1042 C1041 1.334 . S
C1042 C1043 1.287 . S
C1043 C1042 1.287 . S
C1043 C1044 1.524 . S
C1043 H1046 0.999 . S
C1044 H1014 0.950 . S
C1044 C1043 1.524 . S
C1044 C1045 1.415 . S
C1045 H1015 0.950 . S
C1045 C1040 1.363 . S
C1045 C1044 1.415 . S
H1046 C1043 0.999 . S
H1047 C1028 0.913 . S
H1048 C1066 0.951 . S
H1049 C1068 0.951 1_556 S
H1050 C1070 1.011 . S
H1051 C1071 0.950 . S
H1052 C1073 0.946 1_454 S
H1053 C1076 0.950 . S
H1054 C1077 0.950 . S
H1055 C1079 0.950 . S
H1056 C1080 0.950 . S
H1057 C1081 0.951 . S
H1058 C1083 0.951 . S
H1059 C1085 0.950 . S
H1060 C1086 0.950 . S
H1061 C1088 0.950 . S
H1062 C1091 0.950 1_656 S
H1063 C1092 0.950 . S
H1064 C1094 0.950 . S
H1065 C1095 0.950 . S
C1066 H1048 0.951 . S
C1066 C1067 1.366 . S
C1066 C1068 1.388 . S
C1067 C1066 1.366 . S
C1067 C1071 1.385 . S
C1068 H1049 0.951 1_554 S
C1068 C1066 1.388 . S
C1068 C1069 1.366 1_554 S
C1069 C1068 1.366 1_556 S
C1069 C1070 1.414 1_556 S
C1069 C1072 1.499 . S
C1070 H1050 1.011 . S
C1070 C1069 1.414 1_554 S
C1070 C1071 1.374 . S
C1071 H1051 0.950 . S
C1071 C1067 1.385 . S
C1071 C1070 1.374 . S
C1072 C1069 1.499 . S
C1072 C1073 1.373 . S
C1072 C1074 1.389 . S
C1073 H1052 0.946 1_656 S
C1073 C1072 1.373 . S
C1073 C1089 1.366 1_655 S
C1074 C1072 1.389 . S
C1074 C1075 1.524 . S
C1074 C1088 1.377 . S
C1075 C1074 1.524 . S
C1075 C1076 1.397 . S
C1075 C1080 1.363 . S
C1076 H1053 0.950 . S
C1076 C1075 1.397 . S
C1076 C1077 1.334 . S
C1077 H1054 0.950 . S
C1077 C1076 1.334 . S
C1077 C1078 1.287 . S
C1078 C1077 1.287 . S
C1078 C1079 1.524 . S
C1078 H1097 0.913 . S
C1079 H1055 0.950 . S
C1079 C1078 1.524 . S
C1079 C1080 1.415 . S
C1080 H1056 0.950 . S
C1080 C1075 1.363 . S
C1080 C1079 1.415 . S
C1081 H1057 0.951 . S
C1081 C1082 1.366 . S
C1081 C1083 1.388 . S
C1082 C1081 1.366 . S
C1082 C1086 1.385 1_455 S
C1083 H1058 0.951 . S
C1083 C1081 1.388 . S
C1083 C1084 1.399 . S
C1084 C1083 1.399 . S
C1084 C1085 1.393 1_455 S
C1084 C1087 1.487 1_455 S
C1085 H1059 0.950 . S
C1085 C1084 1.393 1_655 S
C1085 C1086 1.374 . S
C1086 H1060 0.950 . S
C1086 C1082 1.385 1_655 S
C1086 C1085 1.374 . S
C1087 C1084 1.487 1_655 S
C1087 C1088 1.373 . S
C1087 C1089 1.378 1_655 S
C1088 H1061 0.950 . S
C1088 C1074 1.377 . S
C1088 C1087 1.373 . S
C1089 C1073 1.366 1_455 S
C1089 C1087 1.378 1_455 S
C1089 C1090 1.546 1_556 S
C1090 C1089 1.546 1_554 S
C1090 C1091 1.397 . S
C1090 C1095 1.363 . S
C1091 H1062 0.950 1_454 S
C1091 C1090 1.397 . S
C1091 C1092 1.334 . S
C1092 H1063 0.950 . S
C1092 C1091 1.334 . S
C1092 C1093 1.287 . S
C1093 C1092 1.287 . S
C1093 C1094 1.524 . S
C1093 H1096 0.999 . S
C1094 H1064 0.950 . S
C1094 C1093 1.524 . S
C1094 C1095 1.415 . S
C1095 H1065 0.950 . S
C1095 C1090 1.363 . S
C1095 C1094 1.415 . S
H1096 C1093 0.999 . S
H1097 C1078 0.913 . S
H1098 C1116 0.951 . S
H1099 C1118 0.951 . S
H1100 C1120 0.950 . S
H1101 C1121 0.950 . S
H1102 C1123 0.950 1_554 S
H1103 C1126 0.950 . S
H1104 C1127 0.950 . S
H1105 C1129 0.950 . S
H1106 C1130 0.950 . S
H1107 C1131 0.951 . S
H1108 C1133 0.951 . S
H1109 C1135 0.950 . S
H1110 C1136 0.950 . S
H1111 C1138 0.950 . S
H1112 C1141 0.950 . S
H1113 C1142 0.950 1_565 S
H1114 C1144 0.950 . S
H1115 C1145 0.951 . S
C1116 H1098 0.951 . S
C1116 C1117 1.366 . S
C1116 C1118 1.388 1_554 S
C1117 C1116 1.366 . S
C1117 C1121 1.385 . S
C1118 H1099 0.951 . S
C1118 C1116 1.388 1_556 S
C1118 C1119 1.366 . S
C1119 C1118 1.366 . S
C1119 C1120 1.414 1_556 S
C1119 C1122 1.499 . S
C1120 H1100 0.950 . S
C1120 C1119 1.414 1_554 S
C1120 C1121 1.374 . S
C1121 H1101 0.950 . S
C1121 C1117 1.385 . S
C1121 C1120 1.374 . S
C1122 C1119 1.499 . S
C1122 C1123 1.373 . S
C1122 C1124 1.389 . S
C1123 H1102 0.950 1_556 S
C1123 C1122 1.373 . S
C1123 C1139 1.377 . S
C1124 C1122 1.389 . S
C1124 C1125 1.524 . S
C1124 C1138 1.377 . S
C1125 C1124 1.524 . S
C1125 C1126 1.397 . S
C1125 C1130 1.363 . S
C1126 H1103 0.950 . S
C1126 C1125 1.397 . S
C1126 C1127 1.334 . S
C1127 H1104 0.950 . S
C1127 C1126 1.334 . S
C1127 C1128 1.287 . S
C1128 C1127 1.287 . S
C1128 C1129 1.524 . S
C1128 H1147 0.913 . S
C1129 H1105 0.950 . S
C1129 C1128 1.524 . S
C1129 C1130 1.415 . S
C1130 H1106 0.950 . S
C1130 C1125 1.363 . S
C1130 C1129 1.415 . S
C1131 H1107 0.951 . S
C1131 C1132 1.366 . S
C1131 C1133 1.388 . S
C1132 C1131 1.366 . S
C1132 C1136 1.385 1_545 S
C1133 H1108 0.951 . S
C1133 C1131 1.388 . S
C1133 C1134 1.366 1_545 S
C1134 C1133 1.366 1_565 S
C1134 C1135 1.414 . S
C1134 C1137 1.499 . S
C1135 H1109 0.950 . S
C1135 C1134 1.414 . S
C1135 C1136 1.374 . S
C1136 H1110 0.950 . S
C1136 C1132 1.385 1_565 S
C1136 C1135 1.374 . S
C1137 C1134 1.499 . S
C1137 C1138 1.373 . S
C1137 C1139 1.389 . S
C1138 H1111 0.950 . S
C1138 C1124 1.377 . S
C1138 C1137 1.373 . S
C1139 C1123 1.377 . S
C1139 C1137 1.389 . S
C1139 C1140 1.524 . S
C1140 C1139 1.524 . S
C1140 C1141 1.397 . S
C1140 C1145 1.363 1_565 S
C1141 H1112 0.950 . S
C1141 C1140 1.397 . S
C1141 C1142 1.334 1_565 S
C1142 H1113 0.950 1_545 S
C1142 C1141 1.334 1_545 S
C1142 C1143 1.287 1_556 S
C1143 C1142 1.287 1_554 S
C1143 C1144 1.524 . S
C1143 H1146 0.999 . S
C1144 H1114 0.950 . S
C1144 C1143 1.524 . S
C1144 C1145 1.415 1_554 S
C1145 H1115 0.951 . S
C1145 C1140 1.363 1_545 S
C1145 C1144 1.415 1_556 S
H1146 C1143 0.999 . S
H1147 C1128 0.913 . S
H1148 C1166 0.951 . S
H1149 C1168 0.951 . S
H1150 C1170 0.950 . S
H1151 C1171 0.950 . S
H1152 C1173 0.950 . S
H1153 C1176 0.950 1_556 S
H1154 C1177 0.950 . S
H1155 C1179 0.950 . S
H1156 C1180 0.950 1_556 S
H1157 C1181 0.951 . S
H1158 C1183 0.951 . S
H1159 C1185 0.950 . S
H1160 C1186 0.950 . S
H1161 C1188 0.950 . S
H1162 C1191 0.950 . S
H1163 C1192 0.950 . S
H1164 C1194 0.950 . S
H1165 C1195 0.950 . S
C1166 H1148 0.951 . S
C1166 C1167 1.366 . S
C1166 C1168 1.388 1_554 S
C1167 C1166 1.366 . S
C1167 C1171 1.385 1_554 S
C1168 H1149 0.951 . S
C1168 C1166 1.388 1_556 S
C1168 C1169 1.366 . S
C1169 C1168 1.366 . S
C1169 C1170 1.414 . S
C1169 C1172 1.499 . S
C1170 H1150 0.950 . S
C1170 C1169 1.414 . S
C1170 C1171 1.374 . S
C1171 H1151 0.950 . S
C1171 C1167 1.385 1_556 S
C1171 C1170 1.374 . S
C1172 C1169 1.499 . S
C1172 C1173 1.373 . S
C1172 C1174 1.389 . S
C1173 H1152 0.950 . S
C1173 C1172 1.373 . S
C1173 C1189 1.377 . S
C1174 C1172 1.389 . S
C1174 C1175 1.524 . S
C1174 C1188 1.377 . S
C1175 C1174 1.524 . S
C1175 C1176 1.397 1_556 S
C1175 C1180 1.363 1_556 S
C1176 H1153 0.950 1_554 S
C1176 C1175 1.397 1_554 S
C1176 C1177 1.334 . S
C1177 H1154 0.950 . S
C1177 C1176 1.334 . S
C1177 C1178 1.287 . S
C1178 C1177 1.287 . S
C1178 C1179 1.524 . S
C1178 H1197 0.913 . S
C1179 H1155 0.950 . S
C1179 C1178 1.524 . S
C1179 C1180 1.415 . S
C1180 H1156 0.950 1_554 S
C1180 C1175 1.363 1_554 S
C1180 C1179 1.415 . S
C1181 H1157 0.951 . S
C1181 C1182 1.366 . S
C1181 C1183 1.388 . S
C1182 C1181 1.366 . S
C1182 C1186 1.385 . S
C1183 H1158 0.951 . S
C1183 C1181 1.388 . S
C1183 C1184 1.366 . S
C1184 C1183 1.366 . S
C1184 C1185 1.414 . S
C1184 C1187 1.499 . S
C1185 H1159 0.950 . S
C1185 C1184 1.414 . S
C1185 C1186 1.374 . S
C1186 H1160 0.950 . S
C1186 C1182 1.385 . S
C1186 C1185 1.374 . S
C1187 C1184 1.499 . S
C1187 C1188 1.373 . S
C1187 C1189 1.389 . S
C1188 H1161 0.950 . S
C1188 C1174 1.377 . S
C1188 C1187 1.373 . S
C1189 C1173 1.377 . S
C1189 C1187 1.389 . S
C1189 C1190 1.524 . S
C1190 C1189 1.524 . S
C1190 C1191 1.397 . S
C1190 C1195 1.363 . S
C1191 H1162 0.950 . S
C1191 C1190 1.397 . S
C1191 C1192 1.334 . S
C1192 H1163 0.950 . S
C1192 C1191 1.334 . S
C1192 C1193 1.287 . S
C1193 C1192 1.287 . S
C1193 C1194 1.524 . S
C1193 H1196 0.999 . S
C1194 H1164 0.950 . S
C1194 C1193 1.524 . S
C1194 C1195 1.415 . S
C1195 H1165 0.950 . S
C1195 C1190 1.363 . S
C1195 C1194 1.415 . S
H1196 C1193 0.999 . S
H1197 C1178 0.913 . S
H1198 C1216 0.951 . S
H1199 C1218 0.951 . S
H1200 C1220 0.950 . S
H1201 C1221 0.950 . S
H1202 C1223 0.950 . S
H1203 C1226 0.947 1_554 S
H1204 C1227 0.950 1_554 S
H1205 C1229 0.950 . S
H1206 C1230 0.950 . S
H1207 C1231 0.951 . S
H1208 C1233 0.951 . S
H1209 C1235 0.950 . S
H1210 C1236 0.950 . S
H1211 C1238 0.950 . S
H1212 C1241 0.950 . S
H1213 C1242 0.950 . S
H1214 C1244 0.950 . S
H1215 C1245 0.950 . S
C1216 H1198 0.951 . S
C1216 C1217 1.366 . S
C1216 C1218 1.388 . S
C1217 C1216 1.366 . S
C1217 C1221 1.385 1_556 S
C1218 H1199 0.951 . S
C1218 C1216 1.388 . S
C1218 C1219 1.366 . S
C1219 C1218 1.366 . S
C1219 C1220 1.414 1_556 S
C1219 C1222 1.499 . S
C1220 H1200 0.950 . S
C1220 C1219 1.414 1_554 S
C1220 C1221 1.374 . S
C1221 H1201 0.950 . S
C1221 C1217 1.385 1_554 S
C1221 C1220 1.374 . S
C1222 C1219 1.499 . S
C1222 C1223 1.373 . S
C1222 C1224 1.389 . S
C1223 H1202 0.950 . S
C1223 C1222 1.373 . S
C1223 C1239 1.377 . S
C1224 C1222 1.389 . S
C1224 C1225 1.524 . S
C1224 C1238 1.377 . S
C1225 C1224 1.524 . S
C1225 C1226 1.397 . S
C1225 C1230 1.363 . S
C1226 H1203 0.947 1_556 S
C1226 C1225 1.397 . S
C1226 C1227 1.334 . S
C1227 H1204 0.950 1_556 S
C1227 C1226 1.334 . S
C1227 C1228 1.287 . S
C1228 C1227 1.287 . S
C1228 C1229 1.524 . S
C1228 H1247 0.913 . S
C1229 H1205 0.950 . S
C1229 C1228 1.524 . S
C1229 C1230 1.415 . S
C1230 H1206 0.950 . S
C1230 C1225 1.363 . S
C1230 C1229 1.415 . S
C1231 H1207 0.951 . S
C1231 C1232 1.366 . S
C1231 C1233 1.388 . S
C1232 C1231 1.366 . S
C1232 C1236 1.385 . S
C1233 H1208 0.951 . S
C1233 C1231 1.388 . S
C1233 C1234 1.366 . S
C1234 C1233 1.366 . S
C1234 C1235 1.414 . S
C1234 C1237 1.499 . S
C1235 H1209 0.950 . S
C1235 C1234 1.414 . S
C1235 C1236 1.374 . S
C1236 H1210 0.950 . S
C1236 C1232 1.385 . S
C1236 C1235 1.374 . S
C1237 C1234 1.499 . S
C1237 C1238 1.373 . S
C1237 C1239 1.389 . S
C1238 H1211 0.950 . S
C1238 C1224 1.377 . S
C1238 C1237 1.373 . S
C1239 C1223 1.377 . S
C1239 C1237 1.389 . S
C1239 C1240 1.524 . S
C1240 C1239 1.524 . S
C1240 C1241 1.397 . S
C1240 C1245 1.363 . S
C1241 H1212 0.950 . S
C1241 C1240 1.397 . S
C1241 C1242 1.334 . S
C1242 H1213 0.950 . S
C1242 C1241 1.334 . S
C1242 C1243 1.287 . S
C1243 C1242 1.287 . S
C1243 C1244 1.524 . S
C1243 H1246 0.999 . S
C1244 H1214 0.950 . S
C1244 C1243 1.524 . S
C1244 C1245 1.415 . S
C1245 H1215 0.950 . S
C1245 C1240 1.363 . S
C1245 C1244 1.415 . S
H1246 C1243 0.999 . S
H1247 C1228 0.913 . S
H1248 C1266 0.951 . S
H1249 C1268 0.951 . S
H1250 C1270 0.950 . S
H1251 C1271 0.950 . S
H1252 C1273 0.950 . S
H1253 C1276 0.950 . S
H1254 C1277 0.950 . S
H1255 C1279 0.950 . S
H1256 C1280 0.950 . S
H1257 C1281 0.951 . S
H1258 C1283 0.951 . S
H1259 C1285 0.947 . S
H1260 C1286 0.950 1_655 S
H1261 C1288 0.950 . S
H1262 C1291 0.950 . S
H1263 C1292 0.950 . S
H1264 C1294 0.950 . S
H1265 C1295 0.950 . S
C1266 H1248 0.951 . S
C1266 C1267 1.366 . S
C1266 C1268 1.388 . S
C1267 C1266 1.366 . S
C1267 C1271 1.385 . S
C1268 H1249 0.951 . S
C1268 C1266 1.388 . S
C1268 C1269 1.366 . S
C1269 C1268 1.366 . S
C1269 C1270 1.414 . S
C1269 C1272 1.499 . S
C1270 H1250 0.950 . S
C1270 C1269 1.414 . S
C1270 C1271 1.374 . S
C1271 H1251 0.950 . S
C1271 C1267 1.385 . S
C1271 C1270 1.374 . S
C1272 C1269 1.499 . S
C1272 C1273 1.373 . S
C1272 C1274 1.389 . S
C1273 H1252 0.950 . S
C1273 C1272 1.373 . S
C1273 C1289 1.377 . S
C1274 C1272 1.389 . S
C1274 C1275 1.524 . S
C1274 C1288 1.377 . S
C1275 C1274 1.524 . S
C1275 C1276 1.397 . S
C1275 C1280 1.363 1_455 S
C1276 H1253 0.950 . S
C1276 C1275 1.397 . S
C1276 C1277 1.334 . S
C1277 H1254 0.950 . S
C1277 C1276 1.334 . S
C1277 C1278 1.287 1_455 S
C1278 C1277 1.287 1_655 S
C1278 C1279 1.524 . S
C1278 H1297 0.913 . S
C1279 H1255 0.950 . S
C1279 C1278 1.524 . S
C1279 C1280 1.415 . S
C1280 H1256 0.950 . S
C1280 C1275 1.363 1_655 S
C1280 C1279 1.415 . S
C1281 H1257 0.951 . S
C1281 C1282 1.366 . S
C1281 C1283 1.388 . S
C1282 C1281 1.366 . S
C1282 C1286 1.385 . S
C1283 H1258 0.951 . S
C1283 C1281 1.388 . S
C1283 C1284 1.366 . S
C1284 C1283 1.366 . S
C1284 C1285 1.414 . S
C1284 C1287 1.499 . S
C1285 H1259 0.947 . S
C1285 C1284 1.414 . S
C1285 C1286 1.374 . S
C1286 H1260 0.950 1_455 S
C1286 C1282 1.385 . S
C1286 C1285 1.374 . S
C1287 C1284 1.499 . S
C1287 C1288 1.373 . S
C1287 C1289 1.389 . S
C1288 H1261 0.950 . S
C1288 C1274 1.377 . S
C1288 C1287 1.373 . S
C1289 C1273 1.377 . S
C1289 C1287 1.389 . S
C1289 C1290 1.524 . S
C1290 C1289 1.524 . S
C1290 C1291 1.397 . S
C1290 C1295 1.363 . S
C1291 H1262 0.950 . S
C1291 C1290 1.397 . S
C1291 C1292 1.334 . S
C1292 H1263 0.950 . S
C1292 C1291 1.334 . S
C1292 C1293 1.287 . S
C1293 C1292 1.287 . S
C1293 C1294 1.524 . S
C1293 H1296 0.999 . S
C1294 H1264 0.950 . S
C1294 C1293 1.524 . S
C1294 C1295 1.415 . S
C1295 H1265 0.950 . S
C1295 C1290 1.363 . S
C1295 C1294 1.415 . S
H1296 C1293 0.999 . S
H1297 C1278 0.913 . S
H1298 C1316 0.951 . S
H1299 C1318 0.951 . S
H1300 C1320 0.950 . S
H1301 C1321 0.950 . S
H1302 C1323 0.950 . S
H1303 C1326 0.950 . S
H1304 C1327 0.950 . S
H1305 C1329 0.950 . S
H1306 C1330 0.950 . S
H1307 C1331 0.951 . S
H1308 C1333 0.951 . S
H1309 C1335 0.950 . S
H1310 C1336 0.950 . S
H1311 C1338 0.950 . S
H1312 C1341 0.950 . S
H1313 C1342 0.950 . S
H1314 C1344 0.950 . S
H1315 C1345 0.947 1_565 S
C1316 H1298 0.951 . S
C1316 C1317 1.366 . S
C1316 C1318 1.388 . S
C1317 C1316 1.366 . S
C1317 C1321 1.385 . S
C1318 H1299 0.951 . S
C1318 C1316 1.388 . S
C1318 C1319 1.366 . S
C1319 C1318 1.366 . S
C1319 C1320 1.414 . S
C1319 C1322 1.499 . S
C1320 H1300 0.950 . S
C1320 C1319 1.414 . S
C1320 C1321 1.374 . S
C1321 H1301 0.950 . S
C1321 C1317 1.385 . S
C1321 C1320 1.374 . S
C1322 C1319 1.499 . S
C1322 C1323 1.373 . S
C1322 C1324 1.389 . S
C1323 H1302 0.950 . S
C1323 C1322 1.373 . S
C1323 C1339 1.377 . S
C1324 C1322 1.389 . S
C1324 C1325 1.524 . S
C1324 C1338 1.377 . S
C1325 C1324 1.524 . S
C1325 C1326 1.397 . S
C1325 C1330 1.363 . S
C1326 H1303 0.950 . S
C1326 C1325 1.397 . S
C1326 C1327 1.334 . S
C1327 H1304 0.950 . S
C1327 C1326 1.334 . S
C1327 C1328 1.287 . S
C1328 C1327 1.287 . S
C1328 C1329 1.524 . S
C1328 H1347 0.913 . S
C1329 H1305 0.950 . S
C1329 C1328 1.524 . S
C1329 C1330 1.415 . S
C1330 H1306 0.950 . S
C1330 C1325 1.363 . S
C1330 C1329 1.415 . S
C1331 H1307 0.951 . S
C1331 C1332 1.366 . S
C1331 C1333 1.388 . S
C1332 C1331 1.366 . S
C1332 C1336 1.385 . S
C1333 H1308 0.951 . S
C1333 C1331 1.388 . S
C1333 C1334 1.366 . S
C1334 C1333 1.366 . S
C1334 C1335 1.414 . S
C1334 C1337 1.499 . S
C1335 H1309 0.950 . S
C1335 C1334 1.414 . S
C1335 C1336 1.374 . S
C1336 H1310 0.950 . S
C1336 C1332 1.385 . S
C1336 C1335 1.374 . S
C1337 C1334 1.499 . S
C1337 C1338 1.373 . S
C1337 C1339 1.389 . S
C1338 H1311 0.950 . S
C1338 C1324 1.377 . S
C1338 C1337 1.373 . S
C1339 C1323 1.377 . S
C1339 C1337 1.389 . S
C1339 C1340 1.524 . S
C1340 C1339 1.524 . S
C1340 C1341 1.397 . S
C1340 C1345 1.363 . S
C1341 H1312 0.950 . S
C1341 C1340 1.397 . S
C1341 C1342 1.334 . S
C1342 H1313 0.950 . S
C1342 C1341 1.334 . S
C1342 C1343 1.293 . S
C1343 C1342 1.293 . S
C1343 C1344 1.521 1_545 S
C1343 H1346 0.995 1_545 S
C1344 H1314 0.950 . S
C1344 C1343 1.521 1_565 S
C1344 C1345 1.415 1_565 S
C1345 H1315 0.947 1_545 S
C1345 C1340 1.363 . S
C1345 C1344 1.415 1_545 S
H1346 C1343 0.995 1_565 S
H1347 C1328 0.913 . S
H1348 C1366 0.951 . S
H1349 C1368 0.951 . S
H1350 C1370 0.950 . S
H1351 C1371 0.950 . S
H1352 C1373 0.950 . S
H1353 C1376 0.950 . S
H1354 C1377 0.950 . S
H1355 C1379 0.950 . S
H1356 C1380 0.950 . S
H1357 C1381 0.951 . S
H1358 C1383 0.951 . S
H1359 C1385 0.950 . S
H1360 C1386 0.950 . S
H1361 C1388 0.950 . S
H1362 C1391 0.950 . S
H1363 C1392 0.950 . S
H1364 C1394 0.950 . S
H1365 C1395 0.950 . S
C1366 H1348 0.951 . S
C1366 C1367 1.366 . S
C1366 C1368 1.388 . S
C1367 C1366 1.366 . S
C1367 C1371 1.385 . S
C1368 H1349 0.951 . S
C1368 C1366 1.388 . S
C1368 C1369 1.366 . S
C1369 C1368 1.366 . S
C1369 C1370 1.414 . S
C1369 C1372 1.499 . S
C1370 H1350 0.950 . S
C1370 C1369 1.414 . S
C1370 C1371 1.374 . S
C1371 H1351 0.950 . S
C1371 C1367 1.385 . S
C1371 C1370 1.374 . S
C1372 C1369 1.499 . S
C1372 C1373 1.373 . S
C1372 C1374 1.389 . S
C1373 H1352 0.950 . S
C1373 C1372 1.373 . S
C1373 C1389 1.377 . S
C1374 C1372 1.389 . S
C1374 C1375 1.524 . S
C1374 C1388 1.377 . S
C1375 C1374 1.524 . S
C1375 C1376 1.397 . S
C1375 C1380 1.363 . S
C1376 H1353 0.950 . S
C1376 C1375 1.397 . S
C1376 C1377 1.334 . S
C1377 H1354 0.950 . S
C1377 C1376 1.334 . S
C1377 C1378 1.287 . S
C1378 C1377 1.287 . S
C1378 C1379 1.524 . S
C1378 H1397 0.913 . S
C1379 H1355 0.950 . S
C1379 C1378 1.524 . S
C1379 C1380 1.415 . S
C1380 H1356 0.950 . S
C1380 C1375 1.363 . S
C1380 C1379 1.415 . S
C1381 H1357 0.951 . S
C1381 C1382 1.366 . S
C1381 C1383 1.388 . S
C1382 C1381 1.366 . S
C1382 C1386 1.385 . S
C1383 H1358 0.951 . S
C1383 C1381 1.388 . S
C1383 C1384 1.366 . S
C1384 C1383 1.366 . S
C1384 C1385 1.414 . S
C1384 C1387 1.499 . S
C1385 H1359 0.950 . S
C1385 C1384 1.414 . S
C1385 C1386 1.374 . S
C1386 H1360 0.950 . S
C1386 C1382 1.385 . S
C1386 C1385 1.374 . S
C1387 C1384 1.499 . S
C1387 C1388 1.373 . S
C1387 C1389 1.389 . S
C1388 H1361 0.950 . S
C1388 C1374 1.377 . S
C1388 C1387 1.373 . S
C1389 C1373 1.377 . S
C1389 C1387 1.389 . S
C1389 C1390 1.524 . S
C1390 C1389 1.524 . S
C1390 C1391 1.397 . S
C1390 C1395 1.363 . S
C1391 H1362 0.950 . S
C1391 C1390 1.397 . S
C1391 C1392 1.334 . S
C1392 H1363 0.950 . S
C1392 C1391 1.334 . S
C1392 C1393 1.287 . S
C1393 C1392 1.287 . S
C1393 C1394 1.524 . S
C1393 H1396 0.999 . S
C1394 H1364 0.950 . S
C1394 C1393 1.524 . S
C1394 C1395 1.415 . S
C1395 H1365 0.950 . S
C1395 C1390 1.363 . S
C1395 C1394 1.415 . S
H1396 C1393 0.999 . S
H1397 C1378 0.913 . S
H1398 C1416 0.951 . S
H1399 C1418 0.951 . S
H1400 C1420 0.950 . S
H1401 C1421 0.950 . S
H1402 C1423 0.950 . S
H1403 C1426 0.950 . S
H1404 C1427 0.950 . S
H1405 C1429 0.950 . S
H1406 C1430 0.950 . S
H1407 C1431 0.951 . S
H1408 C1433 0.951 . S
H1409 C1435 0.950 . S
H1410 C1436 0.950 . S
H1411 C1438 0.950 . S
H1412 C1441 0.950 . S
H1413 C1442 0.950 . S
H1414 C1444 0.950 . S
H1415 C1445 0.950 . S
C1416 H1398 0.951 . S
C1416 C1417 1.366 . S
C1416 C1418 1.388 . S
C1417 C1416 1.366 . S
C1417 C1421 1.385 . S
C1418 H1399 0.951 . S
C1418 C1416 1.388 . S
C1418 C1419 1.366 . S
C1419 C1418 1.366 . S
C1419 C1420 1.414 . S
C1419 C1422 1.499 . S
C1420 H1400 0.950 . S
C1420 C1419 1.414 . S
C1420 C1421 1.374 . S
C1421 H1401 0.950 . S
C1421 C1417 1.385 . S
C1421 C1420 1.374 . S
C1422 C1419 1.499 . S
C1422 C1423 1.373 . S
C1422 C1424 1.389 . S
C1423 H1402 0.950 . S
C1423 C1422 1.373 . S
C1423 C1439 1.377 . S
C1424 C1422 1.389 . S
C1424 C1425 1.524 . S
C1424 C1438 1.377 . S
C1425 C1424 1.524 . S
C1425 C1426 1.397 . S
C1425 C1430 1.363 . S
C1426 H1403 0.950 . S
C1426 C1425 1.397 . S
C1426 C1427 1.334 . S
C1427 H1404 0.950 . S
C1427 C1426 1.334 . S
C1427 C1428 1.287 . S
C1428 C1427 1.287 . S
C1428 C1429 1.524 . S
C1428 H1447 0.913 . S
C1429 H1405 0.950 . S
C1429 C1428 1.524 . S
C1429 C1430 1.415 . S
C1430 H1406 0.950 . S
C1430 C1425 1.363 . S
C1430 C1429 1.415 . S
C1431 H1407 0.951 . S
C1431 C1432 1.366 . S
C1431 C1433 1.388 . S
C1432 C1431 1.366 . S
C1432 C1436 1.385 . S
C1433 H1408 0.951 . S
C1433 C1431 1.388 . S
C1433 C1434 1.366 . S
C1434 C1433 1.366 . S
C1434 C1435 1.414 . S
C1434 C1437 1.499 . S
C1435 H1409 0.950 . S
C1435 C1434 1.414 . S
C1435 C1436 1.374 . S
C1436 H1410 0.950 . S
C1436 C1432 1.385 . S
C1436 C1435 1.374 . S
C1437 C1434 1.499 . S
C1437 C1438 1.373 . S
C1437 C1439 1.389 . S
C1438 H1411 0.950 . S
C1438 C1424 1.377 . S
C1438 C1437 1.373 . S
C1439 C1423 1.377 . S
C1439 C1437 1.389 . S
C1439 C1440 1.524 . S
C1440 C1439 1.524 . S
C1440 C1441 1.397 . S
C1440 C1445 1.363 . S
C1441 H1412 0.950 . S
C1441 C1440 1.397 . S
C1441 C1442 1.334 . S
C1442 H1413 0.950 . S
C1442 C1441 1.334 . S
C1442 C1443 1.287 . S
C1443 C1442 1.287 . S
C1443 C1444 1.524 . S
C1443 H1446 0.999 . S
C1444 H1414 0.950 . S
C1444 C1443 1.524 . S
C1444 C1445 1.415 . S
C1445 H1415 0.950 . S
C1445 C1440 1.363 . S
C1445 C1444 1.415 . S
H1446 C1443 0.999 . S
H1447 C1428 0.913 . S
H1448 C1466 0.951 . S
H1449 C1468 0.951 . S
H1450 C1470 0.950 1_455 S
H1451 C1471 0.950 . S
H1452 C1473 0.950 . S
H1453 C1476 0.950 . S
H1454 C1477 0.950 . S
H1455 C1479 0.950 . S
H1456 C1480 0.950 . S
H1457 C1481 0.951 . S
H1458 C1483 0.951 . S
H1459 C1485 0.950 . S
H1460 C1486 0.950 . S
H1461 C1488 0.950 . S
H1462 C1491 0.950 . S
H1463 C1492 0.950 . S
H1464 C1494 0.950 . S
H1465 C1495 0.950 . S
C1466 H1448 0.951 . S
C1466 C1467 1.366 . S
C1466 C1468 1.388 . S
C1467 C1466 1.366 . S
C1467 C1471 1.385 . S
C1468 H1449 0.951 . S
C1468 C1466 1.388 . S
C1468 C1469 1.366 . S
C1469 C1468 1.366 . S
C1469 C1470 1.414 . S
C1469 C1472 1.499 . S
C1470 H1450 0.950 1_655 S
C1470 C1469 1.414 . S
C1470 C1471 1.374 . S
C1471 H1451 0.950 . S
C1471 C1467 1.385 . S
C1471 C1470 1.374 . S
C1472 C1469 1.499 . S
C1472 C1473 1.373 . S
C1472 C1474 1.389 . S
C1473 H1452 0.950 . S
C1473 C1472 1.373 . S
C1473 C1489 1.377 . S
C1474 C1472 1.389 . S
C1474 C1475 1.524 . S
C1474 C1488 1.377 . S
C1475 C1474 1.524 . S
C1475 C1476 1.397 . S
C1475 C1480 1.363 . S
C1476 H1453 0.950 . S
C1476 C1475 1.397 . S
C1476 C1477 1.334 . S
C1477 H1454 0.950 . S
C1477 C1476 1.334 . S
C1477 C1478 1.287 . S
C1478 C1477 1.287 . S
C1478 C1479 1.524 . S
C1478 H1497 0.913 . S
C1479 H1455 0.950 . S
C1479 C1478 1.524 . S
C1479 C1480 1.415 . S
C1480 H1456 0.950 . S
C1480 C1475 1.363 . S
C1480 C1479 1.415 . S
C1481 H1457 0.951 . S
C1481 C1482 1.366 1_455 S
C1481 C1483 1.388 . S
C1482 C1481 1.366 1_655 S
C1482 C1486 1.385 . S
C1483 H1458 0.951 . S
C1483 C1481 1.388 . S
C1483 C1484 1.366 1_455 S
C1484 C1483 1.366 1_655 S
C1484 C1485 1.414 . S
C1484 C1487 1.499 . S
C1485 H1459 0.950 . S
C1485 C1484 1.414 . S
C1485 C1486 1.374 . S
C1486 H1460 0.950 . S
C1486 C1482 1.385 . S
C1486 C1485 1.374 . S
C1487 C1484 1.499 . S
C1487 C1488 1.373 . S
C1487 C1489 1.389 . S
C1488 H1461 0.950 . S
C1488 C1474 1.377 . S
C1488 C1487 1.373 . S
C1489 C1473 1.377 . S
C1489 C1487 1.389 . S
C1489 C1490 1.505 1_655 S
C1490 C1489 1.505 1_455 S
C1490 C1491 1.372 1_455 S
C1490 C1495 1.404 . S
C1491 H1462 0.950 . S
C1491 C1490 1.372 1_655 S
C1491 C1492 1.334 . S
C1492 H1463 0.950 . S
C1492 C1491 1.334 . S
C1492 C1493 1.287 1_655 S
C1493 C1492 1.287 1_455 S
C1493 C1494 1.524 . S
C1493 H1496 0.999 . S
C1494 H1464 0.950 . S
C1494 C1493 1.524 . S
C1494 C1495 1.415 . S
C1495 H1465 0.950 . S
C1495 C1490 1.404 . S
C1495 C1494 1.415 . S
H1496 C1493 0.999 . S
H1497 C1478 0.913 . S
H1498 C1516 0.951 . S
H1499 C1518 0.951 . S
H1500 C1520 0.950 . S
H1501 C1521 0.950 . S
H1502 C1523 0.950 . S
H1503 C1526 0.950 . S
H1504 C1527 0.950 1_545 S
H1505 C1529 0.950 . S
H1506 C1530 0.950 . S
H1507 C1531 0.951 . S
H1508 C1533 0.951 . S
H1509 C1535 0.950 . S
H1510 C1536 0.950 . S
H1511 C1538 0.950 . S
H1512 C1541 0.950 . S
H1513 C1542 0.950 . S
H1514 C1544 0.950 . S
H1515 C1545 0.950 . S
C1516 H1498 0.951 . S
C1516 C1517 1.366 . S
C1516 C1518 1.388 . S
C1517 C1516 1.366 . S
C1517 C1521 1.385 . S
C1518 H1499 0.951 . S
C1518 C1516 1.388 . S
C1518 C1519 1.366 . S
C1519 C1518 1.366 . S
C1519 C1520 1.414 . S
C1519 C1522 1.499 . S
C1520 H1500 0.950 . S
C1520 C1519 1.414 . S
C1520 C1521 1.374 . S
C1521 H1501 0.950 . S
C1521 C1517 1.385 . S
C1521 C1520 1.374 . S
C1522 C1519 1.499 . S
C1522 C1523 1.373 . S
C1522 C1524 1.389 . S
C1523 H1502 0.950 . S
C1523 C1522 1.373 . S
C1523 C1539 1.377 . S
C1524 C1522 1.389 . S
C1524 C1525 1.524 . S
C1524 C1538 1.377 . S
C1525 C1524 1.524 . S
C1525 C1526 1.397 . S
C1525 C1530 1.363 . S
C1526 H1503 0.950 . S
C1526 C1525 1.397 . S
C1526 C1527 1.334 . S
C1527 H1504 0.950 1_565 S
C1527 C1526 1.334 . S
C1527 C1528 1.287 . S
C1528 C1527 1.287 . S
C1528 C1529 1.524 . S
C1528 H1547 0.913 . S
C1529 H1505 0.950 . S
C1529 C1528 1.524 . S
C1529 C1530 1.415 . S
C1530 H1506 0.950 . S
C1530 C1525 1.363 . S
C1530 C1529 1.415 . S
C1531 H1507 0.951 . S
C1531 C1532 1.366 . S
C1531 C1533 1.388 . S
C1532 C1531 1.366 . S
C1532 C1536 1.385 . S
C1533 H1508 0.951 . S
C1533 C1531 1.388 . S
C1533 C1534 1.366 . S
C1534 C1533 1.366 . S
C1534 C1535 1.414 . S
C1534 C1537 1.499 . S
C1535 H1509 0.950 . S
C1535 C1534 1.414 . S
C1535 C1536 1.374 . S
C1536 H1510 0.950 . S
C1536 C1532 1.385 . S
C1536 C1535 1.374 . S
C1537 C1534 1.499 . S
C1537 C1538 1.373 . S
C1537 C1539 1.389 . S
C1538 H1511 0.950 . S
C1538 C1524 1.377 . S
C1538 C1537 1.373 . S
C1539 C1523 1.377 . S
C1539 C1537 1.389 . S
C1539 C1540 1.524 . S
C1540 C1539 1.524 . S
C1540 C1541 1.397 . S
C1540 C1545 1.363 . S
C1541 H1512 0.950 . S
C1541 C1540 1.397 . S
C1541 C1542 1.334 . S
C1542 H1513 0.950 . S
C1542 C1541 1.334 . S
C1542 C1543 1.287 . S
C1543 C1542 1.287 . S
C1543 C1544 1.524 . S
C1543 H1546 0.999 . S
C1544 H1514 0.950 . S
C1544 C1543 1.524 . S
C1544 C1545 1.415 . S
C1545 H1515 0.950 . S
C1545 C1540 1.363 . S
C1545 C1544 1.415 . S
H1546 C1543 0.999 . S
H1547 C1528 0.913 . S
H1548 C1566 0.951 . S
H1549 C1568 0.951 . S
H1550 C1570 0.950 . S
H1551 C1571 0.950 . S
H1552 C1573 0.950 . S
H1553 C1576 0.950 . S
H1554 C1577 0.950 . S
H1555 C1579 0.950 . S
H1556 C1580 0.950 . S
H1557 C1581 0.951 . S
H1558 C1583 0.951 . S
H1559 C1585 0.950 . S
H1560 C1586 0.950 . S
H1561 C1588 0.950 . S
H1562 C1591 0.950 . S
H1563 C1592 0.950 . S
H1564 C1594 0.950 . S
H1565 C1595 0.950 . S
C1566 H1548 0.951 . S
C1566 C1567 1.366 . S
C1566 C1568 1.388 . S
C1567 C1566 1.366 . S
C1567 C1571 1.385 . S
C1568 H1549 0.951 . S
C1568 C1566 1.388 . S
C1568 C1569 1.366 . S
C1569 C1568 1.366 . S
C1569 C1570 1.414 . S
C1569 C1572 1.499 . S
C1570 H1550 0.950 . S
C1570 C1569 1.414 . S
C1570 C1571 1.374 . S
C1571 H1551 0.950 . S
C1571 C1567 1.385 . S
C1571 C1570 1.374 . S
C1572 C1569 1.499 . S
C1572 C1573 1.373 . S
C1572 C1574 1.389 . S
C1573 H1552 0.950 . S
C1573 C1572 1.373 . S
C1573 C1589 1.377 . S
C1574 C1572 1.389 . S
C1574 C1575 1.524 . S
C1574 C1588 1.377 . S
C1575 C1574 1.524 . S
C1575 C1576 1.397 . S
C1575 C1580 1.363 . S
C1576 H1553 0.950 . S
C1576 C1575 1.397 . S
C1576 C1577 1.334 . S
C1577 H1554 0.950 . S
C1577 C1576 1.334 . S
C1577 C1578 1.287 . S
C1578 C1577 1.287 . S
C1578 C1579 1.524 . S
C1578 H1597 0.913 . S
C1579 H1555 0.950 . S
C1579 C1578 1.524 . S
C1579 C1580 1.415 . S
C1580 H1556 0.950 . S
C1580 C1575 1.363 . S
C1580 C1579 1.415 . S
C1581 H1557 0.951 . S
C1581 C1582 1.366 . S
C1581 C1583 1.388 . S
C1582 C1581 1.366 . S
C1582 C1586 1.385 . S
C1583 H1558 0.951 . S
C1583 C1581 1.388 . S
C1583 C1584 1.366 . S
C1584 C1583 1.366 . S
C1584 C1585 1.414 . S
C1584 C1587 1.499 . S
C1585 H1559 0.950 . S
C1585 C1584 1.414 . S
C1585 C1586 1.374 . S
C1586 H1560 0.950 . S
C1586 C1582 1.385 . S
C1586 C1585 1.374 . S
C1587 C1584 1.499 . S
C1587 C1588 1.373 . S
C1587 C1589 1.389 . S
C1588 H1561 0.950 . S
C1588 C1574 1.377 . S
C1588 C1587 1.373 . S
C1589 C1573 1.377 . S
C1589 C1587 1.389 . S
C1589 C1590 1.524 . S
C1590 C1589 1.524 . S
C1590 C1591 1.397 . S
C1590 C1595 1.363 . S
C1591 H1562 0.950 . S
C1591 C1590 1.397 . S
C1591 C1592 1.334 . S
C1592 H1563 0.950 . S
C1592 C1591 1.334 . S
C1592 C1593 1.287 . S
C1593 C1592 1.287 . S
C1593 C1594 1.524 . S
C1593 H1596 0.999 . S
C1594 H1564 0.950 . S
C1594 C1593 1.524 . S
C1594 C1595 1.415 . S
C1595 H1565 0.950 . S
C1595 C1590 1.363 . S
C1595 C1594 1.415 . S
H1596 C1593 0.999 . S
H1597 C1578 0.913 . S
H1598 C1616 0.951 . S
H1599 C1618 0.951 . S
H1600 C1620 0.950 . S
H1601 C1621 0.950 . S
H1602 C1623 0.950 . S
H1603 C1626 0.950 . S
H1604 C1627 0.950 . S
H1605 C1629 0.950 . S
H1606 C1630 0.950 . S
H1607 C1631 0.951 . S
H1608 C1633 0.951 . S
H1609 C1635 0.950 . S
H1610 C1636 0.950 . S
H1611 C1638 0.950 . S
H1612 C1641 0.950 . S
H1613 C1642 0.950 . S
H1614 C1644 0.950 . S
H1615 C1645 0.950 . S
C1616 H1598 0.951 . S
C1616 C1617 1.366 . S
C1616 C1618 1.388 . S
C1617 C1616 1.366 . S
C1617 C1621 1.385 . S
C1618 H1599 0.951 . S
C1618 C1616 1.388 . S
C1618 C1619 1.366 . S
C1619 C1618 1.366 . S
C1619 C1620 1.414 . S
C1619 C1622 1.499 . S
C1620 H1600 0.950 . S
C1620 C1619 1.414 . S
C1620 C1621 1.374 . S
C1621 H1601 0.950 . S
C1621 C1617 1.385 . S
C1621 C1620 1.374 . S
C1622 C1619 1.499 . S
C1622 C1623 1.373 . S
C1622 C1624 1.389 . S
C1623 H1602 0.950 . S
C1623 C1622 1.373 . S
C1623 C1639 1.377 . S
C1624 C1622 1.389 . S
C1624 C1625 1.524 . S
C1624 C1638 1.377 . S
C1625 C1624 1.524 . S
C1625 C1626 1.397 . S
C1625 C1630 1.363 . S
C1626 H1603 0.950 . S
C1626 C1625 1.397 . S
C1626 C1627 1.334 . S
C1627 H1604 0.950 . S
C1627 C1626 1.334 . S
C1627 C1628 1.287 . S
C1628 C1627 1.287 . S
C1628 C1629 1.524 . S
C1628 H1647 0.913 . S
C1629 H1605 0.950 . S
C1629 C1628 1.524 . S
C1629 C1630 1.415 . S
C1630 H1606 0.950 . S
C1630 C1625 1.363 . S
C1630 C1629 1.415 . S
C1631 H1607 0.951 . S
C1631 C1632 1.366 . S
C1631 C1633 1.388 . S
C1632 C1631 1.366 . S
C1632 C1636 1.385 . S
C1633 H1608 0.951 . S
C1633 C1631 1.388 . S
C1633 C1634 1.366 . S
C1634 C1633 1.366 . S
C1634 C1635 1.414 . S
C1634 C1637 1.499 . S
C1635 H1609 0.950 . S
C1635 C1634 1.414 . S
C1635 C1636 1.374 . S
C1636 H1610 0.950 . S
C1636 C1632 1.385 . S
C1636 C1635 1.374 . S
C1637 C1634 1.499 . S
C1637 C1638 1.373 . S
C1637 C1639 1.389 . S
C1638 H1611 0.950 . S
C1638 C1624 1.377 . S
C1638 C1637 1.373 . S
C1639 C1623 1.377 . S
C1639 C1637 1.389 . S
C1639 C1640 1.524 . S
C1640 C1639 1.524 . S
C1640 C1641 1.397 . S
C1640 C1645 1.363 . S
C1641 H1612 0.950 . S
C1641 C1640 1.397 . S
C1641 C1642 1.334 . S
C1642 H1613 0.950 . S
C1642 C1641 1.334 . S
C1642 C1643 1.287 . S
C1643 C1642 1.287 . S
C1643 C1644 1.524 . S
C1643 H1646 0.999 . S
C1644 H1614 0.950 . S
C1644 C1643 1.524 . S
C1644 C1645 1.415 . S
C1645 H1615 0.950 . S
C1645 C1640 1.363 . S
C1645 C1644 1.415 . S
H1646 C1643 0.999 . S
H1647 C1628 0.913 . S
C467 C241 2.559 . S
C482 C319 2.738 . S
C532 C345 1.991 . S
C517 C277 1.886 . S
C582 C385 2.098 . S
C567 C169 1.958 . S
C632 C439 2.683 . S
C617 C205 2.533 . S
C682 C300 2.738 . S
C667 C97 2.517 . S
C717 C133 1.854 . S
C732 C330 1.991 . S
C767 C25 1.918 . S
C782 C370 2.097 . S
C817 C61 2.506 . S
C832 C420 2.684 1_655 S
C882 C296 0.279 . S
C867 C211 0.325 . S
C932 C357 0.468 . S
C917 C247 0.450 . S
C982 C397 0.251 . S
C967 C253 0.167 . S
C1017 C175 0.475 . S
C1032 C416 0.376 . S
C1067 C67 0.474 . S
C1082 C317 0.280 . S
C1132 C336 0.469 . S
C1117 C103 0.505 . S
C1182 C376 0.251 . S
C1167 C109 0.212 . S
C1217 C31 0.637 1_556 S
C1232 C437 0.378 . S
C1267 C181 2.281 . S
C1282 C290 2.513 . S
C1317 C217 3.072 . S
C1332 C340 3.313 . S
C1382 C380 2.987 . S
C1367 C283 2.721 . S
C1432 C410 2.245 . S
C1417 C145 2.059 . S
C1467 C37 2.262 . S
C1482 C305 2.513 . S
C1532 C359 3.313 . S
C1517 C73 3.046 . S
C1582 C399 2.987 . S
C1567 C139 2.683 . S
C1617 C1 2.031 . S
C1632 C425 2.245 . S
