# Generated by pormake.
# Topology anh, (6,3)-cn, num edge types: 1
# Building blocks:
#     Node 0, Type 0, BuildingBlock: BETDAH_clean_sbu_0, # of connection points: 6
#     Node 1, Type 0, BuildingBlock: BETDAH_clean_sbu_0, # of connection points: 6
#     Node 2, Type 0, BuildingBlock: BETDAH_clean_sbu_0, # of connection points: 6
#     Node 3, Type 1, BuildingBlock: BETDIP_clean_linker_0, # of connection points: 3
#     Node 4, Type 1, BuildingBlock: BETDIP_clean_linker_0, # of connection points: 3
#     Node 5, Type 1, BuildingBlock: BETDIP_clean_linker_0, # of connection points: 3
#     Node 6, Type 1, BuildingBlock: BETDIP_clean_linker_0, # of connection points: 3
#     Node 7, Type 1, BuildingBlock: BETDIP_clean_linker_0, # of connection points: 3
#     Node 8, Type 1, BuildingBlock: BETDIP_clean_linker_0, # of connection points: 3
#     Edge 9, Type (0, 1), BuildingBlock: TEMPAE_clean_linker_10, # of connection points: 2
#     Edge 10, Type (0, 1), BuildingBlock: TEMPAE_clean_linker_10, # of connection points: 2
#     Edge 11, Type (0, 1), BuildingBlock: TEMPAE_clean_linker_10, # of connection points: 2
#     Edge 12, Type (0, 1), BuildingBlock: TEMPAE_clean_linker_10, # of connection points: 2
#     Edge 13, Type (0, 1), BuildingBlock: TEMPAE_clean_linker_10, # of connection points: 2
#     Edge 14, Type (0, 1), BuildingBlock: TEMPAE_clean_linker_10, # of connection points: 2
#     Edge 15, Type (0, 1), BuildingBlock: TEMPAE_clean_linker_10, # of connection points: 2
#     Edge 16, Type (0, 1), BuildingBlock: TEMPAE_clean_linker_10, # of connection points: 2
#     Edge 17, Type (0, 1), BuildingBlock: TEMPAE_clean_linker_10, # of connection points: 2
#     Edge 18, Type (0, 1), BuildingBlock: TEMPAE_clean_linker_10, # of connection points: 2
#     Edge 19, Type (0, 1), BuildingBlock: TEMPAE_clean_linker_10, # of connection points: 2
#     Edge 20, Type (0, 1), BuildingBlock: TEMPAE_clean_linker_10, # of connection points: 2
#     Edge 21, Type (0, 1), BuildingBlock: TEMPAE_clean_linker_10, # of connection points: 2
#     Edge 22, Type (0, 1), BuildingBlock: TEMPAE_clean_linker_10, # of connection points: 2
#     Edge 23, Type (0, 1), BuildingBlock: TEMPAE_clean_linker_10, # of connection points: 2
#     Edge 24, Type (0, 1), BuildingBlock: TEMPAE_clean_linker_10, # of connection points: 2
#     Edge 25, Type (0, 1), BuildingBlock: TEMPAE_clean_linker_10, # of connection points: 2
#     Edge 26, Type (0, 1), BuildingBlock: TEMPAE_clean_linker_10, # of connection points: 2
# Relax obj value: 0.157
# Max RMSD: 0.181
# Mean RMSD: 0.126
data_MOF--net-anh--node1-BETDAH_clean_sbu_0--node2-BETDIP_clean_linker_0--edge1-TEMPAE_clean_linker_10
_symmetry_space_group_name_H-M    P1
_symmetry_Int_Tables_number       1
_symmetry_cell_setting            triclinic
loop_
_symmetry_equiv_pos_as_xyz
'x, y, z'
_cell_length_a     32.894652
_cell_length_b     38.404411
_cell_length_c     50.018269
_cell_angle_alpha  95.710944
_cell_angle_beta   89.13732
_cell_angle_gamma 130.03228
loop_
_atom_site_label
_atom_site_type_symbol
_atom_site_fract_x
_atom_site_fract_y
_atom_site_fract_z
_atom_type_partial_charge
Ho0 Ho 0.09529 0.54751 0.14059 0.0
Ho1 Ho 1.03868 0.58174 0.1626 0.0
C2 C 0.16024 0.65793 0.15352 0.0
C3 C 0.14904 0.53034 0.11315 0.0
C4 C 0.1889 0.52542 0.11859 0.0
C5 C 0.23637 0.5507 0.10538 0.0
C6 C 0.27211 0.54295 0.1079 0.0
C7 C 0.26067 0.50929 0.12343 0.0
C8 C 0.21429 0.48563 0.13772 0.0
C9 C 0.17883 0.49373 0.13541 0.0
C10 C 0.09146 0.55228 0.19449 0.0
C11 C 0.97248 0.47187 0.15011 0.0
C12 C 0.97764 0.59273 0.18736 0.0
C13 C 0.91916 0.56066 0.18753 0.0
C14 C 0.89104 0.5749 0.18084 0.0
C15 C 0.83626 0.54267 0.17434 0.0
C16 C 0.80884 0.49555 0.17405 0.0
C17 C 0.8365 0.48179 0.18284 0.0
C18 C 0.89103 0.51406 0.1897 0.0
C19 C 1.04384 0.57527 0.1083 0.0
O20 O 0.15416 0.6248 0.13753 0.0
O21 O 0.12229 0.64825 0.16931 0.0
O22 O 0.10114 0.49873 0.12051 0.0
O23 O 0.16431 0.57136 0.11809 0.0
O24 O 0.09578 0.52482 0.18039 0.0
O25 O 0.09826 0.58042 0.18009 0.0
O26 O 0.97825 0.50519 0.1653 0.0
O27 O 1.01003 0.48125 0.13412 0.0
O28 O 0.99595 0.60715 0.16406 0.0
O29 O 1.00241 0.58154 0.19913 0.0
O30 O 1.04692 0.6073 0.12219 0.0
O31 O 1.0349 0.54733 0.12354 0.0
H32 H 0.24508 0.57554 0.09247 0.0
H33 H 0.30799 0.5624 0.09705 0.0
H34 H 0.20395 0.4592 0.14965 0.0
H35 H 0.14268 0.47395 0.14604 0.0
H36 H 0.91191 0.61068 0.17914 0.0
H37 H 0.81587 0.55451 0.16835 0.0
H38 H 0.81692 0.44588 0.18279 0.0
H39 H 0.91149 0.50206 0.19515 0.0
Ho40 Ho 0.64406 0.05925 0.47616 0.0
Ho41 Ho 0.57466 0.0818 0.46187 0.0
C42 C 0.51504 0.97673 0.46548 0.0
C43 C 0.68554 0.02914 0.49781 0.0
C44 C 0.67024 0.9845 0.50137 0.0
C45 C 0.68233 0.97834 0.52629 0.0
C46 C 0.66876 0.93661 0.53032 0.0
C47 C 0.64307 0.90013 0.50942 0.0
C48 C 0.63033 0.90625 0.48451 0.0
C49 C 0.64362 0.948 0.48055 0.0
C50 C 0.63129 0.06046 0.42314 0.0
C51 C 0.70464 0.16347 0.46992 0.0
C52 C 0.53473 0.11482 0.44271 0.0
C53 C 0.54432 0.15752 0.45099 0.0
C54 C 0.53292 0.17635 0.43296 0.0
C55 C 0.54159 0.21675 0.44118 0.0
C56 C 0.56138 0.23856 0.46763 0.0
C57 C 0.57359 0.21992 0.48544 0.0
C58 C 0.56544 0.17996 0.47715 0.0
C59 C 0.58879 0.08322 0.51521 0.0
O60 O 0.5598 0.99175 0.47812 0.0
O61 O 0.51348 1.00489 0.45313 0.0
O62 O 0.69389 0.04081 0.47337 0.0
O63 O 0.65911 0.03914 0.51109 0.0
O64 O 0.6752 0.07417 0.43466 0.0
O65 O 0.59581 0.04423 0.43976 0.0
O66 O 0.65896 0.1483 0.45841 0.0
O67 O 0.70752 0.13615 0.48232 0.0
O68 O 0.51154 0.08492 0.46009 0.0
O69 O 0.57476 0.11974 0.43249 0.0
O70 O 0.54579 0.07112 0.50377 0.0
O71 O 0.62358 0.09773 0.49829 0.0
H72 H 0.7023 1.0059 0.5427 0.0
H73 H 0.6781 0.93286 0.54995 0.0
H74 H 0.61088 0.87905 0.46792 0.0
H75 H 0.63339 0.95181 0.46119 0.0
H76 H 0.51698 0.15965 0.41263 0.0
H77 H 0.53174 0.23036 0.42709 0.0
H78 H 0.58962 0.23638 0.5058 0.0
H79 H 0.57529 0.16634 0.49126 0.0
Ho80 Ho 0.63459 0.59315 0.8435 0.0
Ho81 Ho 0.55727 0.49305 0.84567 0.0
C82 C 0.50317 0.54165 0.84688 0.0
C83 C 0.68542 0.67538 0.83114 0.0
C84 C 0.67355 0.70551 0.82664 0.0
C85 C 0.62261 0.68758 0.81734 0.0
C86 C 0.61288 0.71693 0.81223 0.0
C87 C 0.65397 0.76479 0.81622 0.0
C88 C 0.70464 0.78247 0.82601 0.0
C89 C 0.71427 0.75311 0.83116 0.0
C90 C 0.61997 0.56662 0.89296 0.0
C91 C 0.68946 0.54533 0.84396 0.0
C92 C 0.51023 0.4109 0.85671 0.0
C93 C 0.52017 0.37878 0.84962 0.0
C94 C 0.51175 0.34983 0.86812 0.0
C95 C 0.52082 0.31909 0.86135 0.0
C96 C 0.53802 0.31658 0.83585 0.0
C97 C 0.54723 0.34621 0.81757 0.0
C98 C 0.53874 0.37716 0.82444 0.0
C99 C 0.57273 0.51789 0.79562 0.0
O100 O 0.55227 0.57784 0.8407 0.0
O101 O 0.49638 0.50491 0.85276 0.0
O102 O 0.68337 0.66609 0.85581 0.0
O103 O 0.66406 0.63955 0.8133 0.0
O104 O 0.66638 0.59923 0.88489 0.0
O105 O 0.5843 0.55085 0.87477 0.0
O106 O 0.63945 0.50804 0.84811 0.0
O107 O 0.69723 0.58298 0.83934 0.0
O108 O 0.49438 0.42 0.83674 0.0
O109 O 0.54617 0.44752 0.87313 0.0
O110 O 0.527 0.484 0.80342 0.0
O111 O 0.60836 0.53511 0.81414 0.0
H112 H 0.59058 0.65093 0.81361 0.0
H113 H 0.57354 0.7021 0.80446 0.0
H114 H 0.73697 0.81909 0.82969 0.0
H115 H 0.75378 0.76762 0.83844 0.0
H116 H 0.49787 0.35081 0.88774 0.0
H117 H 0.51335 0.29666 0.87582 0.0
H118 H 0.56139 0.34564 0.79797 0.0
H119 H 0.54651 0.39972 0.80997 0.0
H120 H 0.52797 0.01911 0.1468 0.0
H121 H 0.6234 0.11112 0.21796 0.0
H122 H 0.49121 0.96986 0.22464 0.0
H123 H 0.60256 0.15398 0.18459 0.0
C124 C 0.62891 0.15169 0.17276 0.0
C125 C 0.53598 0.0252 0.16842 0.0
C126 C 0.50402 0.98833 0.18423 0.0
C127 C 0.57861 0.07007 0.1807 0.0
C128 C 0.58951 0.07738 0.20871 0.0
C129 C 0.55914 0.04108 0.22453 0.0
C130 C 0.51603 0.99735 0.21219 0.0
N131 N 0.61276 0.10728 0.16498 0.0
H132 H 0.58949 0.53377 0.5181 0.0
H133 H 0.58962 0.58945 0.59699 0.0
H134 H 0.61487 0.49216 0.58822 0.0
H135 H 0.53833 0.59851 0.57448 0.0
C136 C 0.56012 0.61176 0.55654 0.0
C137 C 0.59334 0.53583 0.53981 0.0
C138 C 0.60209 0.50908 0.55131 0.0
C139 C 0.58895 0.56497 0.55612 0.0
C140 C 0.59345 0.56733 0.58432 0.0
C141 C 0.60254 0.54103 0.5963 0.0
C142 C 0.60766 0.51257 0.57947 0.0
N143 N 0.58149 0.59242 0.54367 0.0
H144 H 0.05702 0.54582 0.82822 0.0
H145 H 0.11782 0.54083 0.90306 0.0
H146 H 0.99296 0.54705 0.90433 0.0
H147 H 0.19494 0.57571 0.88505 0.0
C148 C 0.18544 0.55692 0.86527 0.0
C149 C 0.05658 0.54532 0.8498 0.0
C150 C 1.01764 0.54646 0.86445 0.0
C151 C 0.09605 0.54486 0.86372 0.0
C152 C 0.0926 0.54378 0.89177 0.0
C153 C 0.05612 0.5448 0.906 0.0
C154 C 1.02002 0.54599 0.89242 0.0
N155 N 0.13716 0.54408 0.85079 0.0
H156 H 0.1613 0.61156 0.47316 0.0
H157 H 1.04951 0.52411 0.40522 0.0
H158 H 0.19357 0.65901 0.39492 0.0
H159 H 0.99521 0.51695 0.45096 0.0
C160 C 1.01096 0.5006 0.45607 0.0
C161 C 0.1497 0.60608 0.45202 0.0
C162 C 0.18346 0.64119 0.43538 0.0
C163 C 0.10083 0.56368 0.44116 0.0
C164 C 0.08646 0.5567 0.41364 0.0
C165 C 0.1199 0.59074 0.3968 0.0
C166 C 0.16773 0.63271 0.40792 0.0
N167 N 0.06737 0.52704 0.45728 0.0
H168 H 0.59759 0.06961 0.79268 0.0
H169 H 0.62015 0.02621 0.7154 0.0
H170 H 0.60459 0.12963 0.72287 0.0
H171 H 0.56978 0.95761 0.73312 0.0
C172 C 0.5894 0.96873 0.75314 0.0
C173 C 0.60184 0.07205 0.77126 0.0
C174 C 0.60232 0.10422 0.75969 0.0
C175 C 0.60661 0.04279 0.75526 0.0
C176 C 0.61346 0.04686 0.72753 0.0
C177 C 0.61297 0.07818 0.71546 0.0
C178 C 0.60705 0.10645 0.73184 0.0
N179 N 0.60543 0.01017 0.76748 0.0
H180 H 0.38417 0.31038 0.0969 0.0
H181 H 0.49032 0.32732 0.03791 0.0
H182 H 0.48465 0.43521 0.06031 0.0
H183 H 0.43725 0.22633 0.06651 0.0
C184 C 0.45004 0.25944 0.0748 0.0
C185 C 0.41461 0.33143 0.0832 0.0
C186 C 0.43398 0.37597 0.08137 0.0
C187 C 0.43559 0.31427 0.06797 0.0
C188 C 0.47502 0.34117 0.05003 0.0
C189 C 0.49319 0.38513 0.04713 0.0
C190 C 0.47273 0.40221 0.06315 0.0
N191 N 0.41602 0.26942 0.07058 0.0
C192 C 0.3035 0.48289 0.14545 0.0
C193 C 0.29379 0.4955 0.12252 0.0
C194 C 0.32933 0.46463 0.14379 0.0
C195 C 0.34584 0.45902 0.11863 0.0
C196 C 0.33828 0.47358 0.09571 0.0
C197 C 0.31215 0.49139 0.09791 0.0
C198 C 0.3371 0.44978 0.16867 0.0
C199 C 0.35584 0.46862 0.06852 0.0
C200 C 0.44495 0.44073 0.10763 0.0
C201 C 0.41142 0.39459 0.09659 0.0
C202 C 0.42402 0.46163 0.11699 0.0
C203 C 0.36827 0.43559 0.11543 0.0
C204 C 0.33418 0.38802 0.10668 0.0
C205 C 0.35621 0.36806 0.09727 0.0
C206 C 0.46171 0.51234 0.12636 0.0
C207 C 0.27445 0.35898 0.1051 0.0
H208 H 0.29007 0.48656 0.16462 0.0
H209 H 0.30412 0.50028 0.07998 0.0
H210 H 0.31071 0.41187 0.16658 0.0
H211 H 0.37862 0.46329 0.17109 0.0
H212 H 0.32784 0.46139 0.1872 0.0
H213 H 0.3499 0.48416 0.05312 0.0
H214 H 0.39854 0.48506 0.0701 0.0
H215 H 0.33298 0.4318 0.06143 0.0
H216 H 0.48773 0.46112 0.10768 0.0
H217 H 0.33009 0.33242 0.08876 0.0
H218 H 0.44797 0.52007 0.14459 0.0
H219 H 0.46284 0.53093 0.11034 0.0
H220 H 0.50281 0.52574 0.13086 0.0
H221 H 0.26115 0.36582 0.12389 0.0
H222 H 0.25369 0.32181 0.10162 0.0
H223 H 0.26217 0.36785 0.08827 0.0
C224 C 0.75873 0.23521 0.44703 0.0
C225 C 0.75318 0.21238 0.46885 0.0
C226 C 0.80373 0.28147 0.44564 0.0
C227 C 0.84382 0.30649 0.46703 0.0
C228 C 0.83837 0.28358 0.48917 0.0
C229 C 0.7937 0.23675 0.4896 0.0
C230 C 0.80811 0.30368 0.42126 0.0
C231 C 0.87892 0.30894 0.51284 0.0
C232 C 0.97951 0.42034 0.45413 0.0
C233 C 0.97212 0.45195 0.46194 0.0
C234 C 0.93858 0.37302 0.45601 0.0
C235 C 0.88966 0.35702 0.46672 0.0
C236 C 0.88335 0.38939 0.4758 0.0
C237 C 0.92402 0.43605 0.47279 0.0
C238 C 0.9467 0.33989 0.44526 0.0
C239 C 0.83294 0.37463 0.48813 0.0
H240 H 0.72797 0.21664 0.43076 0.0
H241 H 0.78967 0.21956 0.50663 0.0
H242 H 0.80554 0.33079 0.42719 0.0
H243 H 0.8473 0.32033 0.41269 0.0
H244 H 0.77624 0.27869 0.40532 0.0
H245 H 0.86971 0.28622 0.52826 0.0
H246 H 0.91913 0.32481 0.50599 0.0
H247 H 0.88034 0.33708 0.5224 0.0
H248 H 1.01616 0.43222 0.44525 0.0
H249 H 0.91797 0.46028 0.47874 0.0
H250 H 0.91802 0.31709 0.42777 0.0
H251 H 0.93872 0.31778 0.46076 0.0
H252 H 0.98766 0.35766 0.43878 0.0
H253 H 0.79935 0.35387 0.4726 0.0
H254 H 0.83641 0.40428 0.49681 0.0
H255 H 0.82287 0.35278 0.50424 0.0
C256 C 0.5974 0.78769 0.81559 0.0
C257 C 0.6446 0.79615 0.80933 0.0
C258 C 0.58759 0.81628 0.80833 0.0
C259 C 0.62579 0.85419 0.79438 0.0
C260 C 0.67383 0.86329 0.78838 0.0
C261 C 0.68262 0.83423 0.7959 0.0
C262 C 0.53597 0.80548 0.8152 0.0
C263 C 0.71545 0.90311 0.77337 0.0
C264 C 0.58082 0.89921 0.74918 0.0
C265 C 0.5974 0.93926 0.76472 0.0
C266 C 0.58904 0.87091 0.75879 0.0
C267 C 0.61445 0.88289 0.78467 0.0
C268 C 0.63058 0.923 0.80068 0.0
C269 C 0.62194 0.95081 0.79049 0.0
C270 C 0.5713 0.82858 0.74103 0.0
C271 C 0.65766 0.93686 0.82838 0.0
H272 H 0.56808 0.7587 0.82625 0.0
H273 H 0.71885 0.8407 0.79061 0.0
H274 H 0.5441 0.8358 0.82675 0.0
H275 H 0.5124 0.79729 0.79643 0.0
H276 H 0.51151 0.77607 0.8272 0.0
H277 H 0.75174 0.90684 0.77138 0.0
H278 H 0.69879 0.89832 0.75291 0.0
H279 H 0.72705 0.93545 0.78386 0.0
H280 H 0.56182 0.8902 0.72926 0.0
H281 H 0.63481 0.98172 0.80261 0.0
H282 H 0.5439 0.79784 0.75167 0.0
H283 H 0.60623 0.8312 0.73644 0.0
H284 H 0.55079 0.8234 0.72174 0.0
H285 H 0.63262 0.90846 0.84099 0.0
H286 H 0.66571 0.96789 0.83875 0.0
H287 H 0.69594 0.94382 0.82685 0.0
C288 C 0.71699 0.41883 0.17246 0.0
C289 C 0.75342 0.46079 0.16201 0.0
C290 C 0.66639 0.3842 0.15955 0.0
C291 C 0.65167 0.39201 0.13586 0.0
C292 C 0.6877 0.43458 0.12555 0.0
C293 C 0.73819 0.4683 0.13864 0.0
C294 C 0.62889 0.33918 0.17112 0.0
C295 C 0.6733 0.44418 0.10036 0.0
C296 C 0.54313 0.29267 0.08589 0.0
C297 C 0.50073 0.29181 0.09147 0.0
C298 C 0.59231 0.32444 0.10068 0.0
C299 C 0.59876 0.35569 0.12158 0.0
C300 C 0.5553 0.35369 0.12793 0.0
C301 C 0.50662 0.32144 0.11294 0.0
C302 C 0.63777 0.32547 0.09343 0.0
C303 C 0.56057 0.3863 0.15013 0.0
H304 H 0.72815 0.41288 0.19066 0.0
H305 H 0.76636 0.50011 0.13001 0.0
H306 H 0.5934 0.33432 0.17784 0.0
H307 H 0.61468 0.31032 0.15548 0.0
H308 H 0.64784 0.33736 0.18851 0.0
H309 H 0.70527 0.47959 0.09544 0.0
H310 H 0.66547 0.41976 0.08304 0.0
H311 H 0.63628 0.43913 0.10276 0.0
H312 H 0.53818 0.26924 0.06952 0.0
H313 H 0.47314 0.31944 0.1181 0.0
H314 H 0.65587 0.32476 0.11167 0.0
H315 H 0.66922 0.35781 0.08496 0.0
H316 H 0.62493 0.29624 0.07842 0.0
H317 H 0.5747 0.38407 0.16936 0.0
H318 H 0.5224 0.37919 0.15309 0.0
H319 H 0.59065 0.42202 0.14532 0.0
C320 C 0.42051 0.9089 0.44847 0.0
C321 C 0.46665 0.92697 0.46417 0.0
C322 C 0.37524 0.86194 0.44648 0.0
C323 C 0.37542 0.83181 0.46067 0.0
C324 C 0.42151 0.84996 0.47696 0.0
C325 C 0.46641 0.89704 0.47843 0.0
C326 C 0.32747 0.84435 0.42862 0.0
C327 C 0.42374 0.81949 0.49256 0.0
C328 C 0.23843 0.71489 0.46735 0.0
C329 C 0.23537 0.68722 0.44547 0.0
C330 C 0.28451 0.76148 0.47332 0.0
C331 C 0.32866 0.78107 0.45701 0.0
C332 C 0.3267 0.75247 0.43588 0.0
C333 C 0.28052 0.70619 0.43051 0.0
C334 C 0.28494 0.7903 0.4963 0.0
C335 C 0.37243 0.7713 0.41793 0.0
H336 H 0.41991 0.93139 0.43733 0.0
H337 H 0.50154 0.91033 0.49073 0.0
H338 H 0.32016 0.819 0.41212 0.0
H339 H 0.29146 0.82651 0.44033 0.0
H340 H 0.33274 0.8722 0.41959 0.0
H341 H 0.46117 0.83909 0.50547 0.0
H342 H 0.3895 0.80063 0.50547 0.0
H343 H 0.42062 0.79359 0.47843 0.0
H344 H 0.20382 0.70081 0.47893 0.0
H345 H 0.27892 0.68505 0.41375 0.0
H346 H 0.28378 0.81555 0.48822 0.0
H347 H 0.32217 0.80987 0.50931 0.0
H348 H 0.25043 0.76927 0.50884 0.0
H349 H 0.3773 0.79684 0.40634 0.0
H350 H 0.36621 0.74411 0.40347 0.0
H351 H 0.41011 0.78918 0.43021 0.0
C352 C 0.57479 0.27799 0.84512 0.0
C353 C 0.54584 0.28293 0.82796 0.0
C354 C 0.58482 0.2481 0.83702 0.0
C355 C 0.56493 0.22219 0.81128 0.0
C356 C 0.53431 0.22609 0.79425 0.0
C357 C 0.52539 0.25651 0.80273 0.0
C358 C 0.61807 0.24529 0.85564 0.0
C359 C 0.51185 0.19879 0.76677 0.0
C360 C 0.63153 0.18208 0.77332 0.0
C361 C 0.59659 0.13517 0.77608 0.0
C362 C 0.62316 0.21119 0.78584 0.0
C363 C 0.57834 0.1929 0.80129 0.0
C364 C 0.54418 0.1459 0.80513 0.0
C365 C 0.5539 0.1176 0.79258 0.0
C366 C 0.66101 0.26116 0.7815 0.0
C367 C 0.49583 0.12501 0.82131 0.0
H368 H 0.59096 0.29856 0.86456 0.0
H369 H 0.50235 0.25971 0.78956 0.0
H370 H 0.59689 0.20913 0.85865 0.0
H371 H 0.6558 0.25845 0.84641 0.0
H372 H 0.62777 0.26539 0.8756 0.0
H373 H 0.48643 0.20381 0.75662 0.0
H374 H 0.54481 0.20908 0.7538 0.0
H375 H 0.48787 0.16177 0.7685 0.0
H376 H 0.66489 0.19582 0.76078 0.0
H377 H 0.52664 0.0813 0.79461 0.0
H378 H 0.67444 0.28309 0.80104 0.0
H379 H 0.64025 0.26861 0.76912 0.0
H380 H 0.69655 0.27085 0.77113 0.0
H381 H 0.50686 0.14566 0.84116 0.0
H382 H 0.4763 0.08923 0.8246 0.0
H383 H 0.46657 0.12503 0.81057 0.0
C384 C 0.66578 0.85632 0.52885 0.0
C385 C 0.63002 0.85613 0.51373 0.0
C386 C 0.65334 0.81534 0.53421 0.0
C387 C 0.60417 0.77295 0.52389 0.0
C388 C 0.56847 0.77237 0.50797 0.0
C389 C 0.58167 0.81395 0.50319 0.0
C390 C 0.69244 0.81748 0.55137 0.0
C391 C 0.51586 0.72783 0.49644 0.0
C392 C 0.5944 0.66857 0.52311 0.0
C393 C 0.56865 0.65106 0.54677 0.0
C394 C 0.60476 0.70744 0.5149 0.0
C395 C 0.58942 0.72942 0.53088 0.0
C396 C 0.56241 0.71119 0.55447 0.0
C397 C 0.55218 0.67212 0.56205 0.0
C398 C 0.63313 0.72559 0.48946 0.0
C399 C 0.54572 0.73376 0.57218 0.0
H400 H 0.70371 0.88865 0.53659 0.0
H401 H 0.55352 0.81336 0.49171 0.0
H402 H 0.6738 0.80095 0.56985 0.0
H403 H 0.70332 0.7983 0.54029 0.0
H404 H 0.7294 0.85319 0.55742 0.0
H405 H 0.4941 0.7332 0.48306 0.0
H406 H 0.52221 0.70569 0.48482 0.0
H407 H 0.49042 0.70903 0.51302 0.0
H408 H 0.60702 0.65227 0.51113 0.0
H409 H 0.53225 0.65857 0.58035 0.0
H410 H 0.67258 0.75998 0.4945 0.0
H411 H 0.61018 0.72955 0.47598 0.0
H412 H 0.63911 0.70282 0.47834 0.0
H413 H 0.58144 0.76878 0.58043 0.0
H414 H 0.52316 0.71423 0.58924 0.0
H415 H 0.52062 0.73722 0.56019 0.0
C416 C 0.73533 0.51086 0.85554 0.0
C417 C 0.73771 0.54488 0.84448 0.0
C418 C 0.77966 0.51103 0.85689 0.0
C419 C 0.83009 0.54519 0.84609 0.0
C420 C 0.83208 0.57898 0.83427 0.0
C421 C 0.78775 0.57882 0.83408 0.0
C422 C 0.77171 0.4739 0.87043 0.0
C423 C 0.8813 0.61632 0.82125 0.0
C424 C 0.97067 0.58182 0.86891 0.0
C425 C 0.9743 0.54992 0.85452 0.0
C426 C 0.92576 0.58038 0.86656 0.0
C427 C 0.88028 0.54691 0.8483 0.0
C428 C 0.88427 0.51549 0.8327 0.0
C429 C 0.92932 0.5168 0.83625 0.0
C430 C 0.92724 0.61493 0.8848 0.0
C431 C 0.84029 0.47898 0.81215 0.0
H432 H 0.69843 0.48385 0.86387 0.0
H433 H 0.79255 0.60577 0.82518 0.0
H434 H 0.75855 0.44517 0.85495 0.0
H435 H 0.80905 0.48633 0.88102 0.0
H436 H 0.74046 0.46025 0.88515 0.0
H437 H 0.87022 0.62255 0.80252 0.0
H438 H 0.90392 0.64863 0.8351 0.0
H439 H 0.90761 0.60828 0.81618 0.0
H440 H 1.0031 0.60782 0.88349 0.0
H441 H 0.9281 0.49046 0.82508 0.0
H442 H 0.88697 0.60063 0.89081 0.0
H443 H 0.9437 0.64505 0.87405 0.0
H444 H 0.9533 0.62718 0.90333 0.0
H445 H 0.81382 0.44628 0.82113 0.0
H446 H 0.85684 0.47327 0.79439 0.0
H447 H 0.81617 0.48765 0.80523 0.0
C448 C 0.22153 0.7405 0.17432 0.0
C449 C 0.21089 0.70676 0.15425 0.0
C450 C 0.26957 0.78623 0.17608 0.0
C451 C 0.30839 0.79939 0.15712 0.0
C452 C 0.29742 0.76579 0.13639 0.0
C453 C 0.24921 0.72002 0.13531 0.0
C454 C 0.27936 0.82032 0.19878 0.0
C455 C 0.33703 0.77803 0.11553 0.0
C456 C 0.41727 0.92951 0.15558 0.0
C457 C 0.45794 0.93986 0.17281 0.0
C458 C 0.36938 0.88379 0.14918 0.0
C459 C 0.36162 0.84739 0.16035 0.0
C460 C 0.40386 0.85755 0.17649 0.0
C461 C 0.45123 0.90322 0.18228 0.0
C462 C 0.32608 0.87472 0.13147 0.0
C463 C 0.39804 0.82043 0.18896 0.0
H464 H 0.19261 0.73101 0.18915 0.0
H465 H 0.24162 0.69458 0.11959 0.0
H466 H 0.31447 0.83309 0.21185 0.0
H467 H 0.28844 0.85031 0.1906 0.0
H468 H 0.24471 0.80528 0.21138 0.0
H469 H 0.32108 0.74917 0.0995 0.0
H470 H 0.34858 0.80798 0.10608 0.0
H471 H 0.37372 0.78793 0.1253 0.0
H472 H 0.4217 0.95731 0.14819 0.0
H473 H 0.48259 0.91055 0.19526 0.0
H474 H 0.29246 0.86486 0.14375 0.0
H475 H 0.31048 0.84574 0.11564 0.0
H476 H 0.34028 0.90523 0.12168 0.0
H477 H 0.36662 0.80588 0.20359 0.0
H478 H 0.43558 0.83335 0.19962 0.0
H479 H 0.38547 0.7921 0.1733 0.0
C480 C 0.59481 0.31726 0.46195 0.0
C481 C 0.5682 0.28003 0.47706 0.0
C482 C 0.60306 0.35724 0.47143 0.0
C483 C 0.5836 0.35966 0.49639 0.0
C484 C 0.55582 0.32175 0.51142 0.0
C485 C 0.54872 0.28255 0.50164 0.0
C486 C 0.63337 0.39714 0.455 0.0
C487 C 0.53382 0.32267 0.53797 0.0
C488 C 0.64087 0.47141 0.5389 0.0
C489 C 0.6018 0.47497 0.53427 0.0
C490 C 0.63704 0.43542 0.52549 0.0
C491 C 0.59271 0.40187 0.50727 0.0
C492 C 0.55446 0.40653 0.50158 0.0
C493 C 0.55962 0.44319 0.51506 0.0
C494 C 0.6791 0.43208 0.53182 0.0
C495 C 0.50641 0.37133 0.48247 0.0
H496 H 0.61023 0.31548 0.44303 0.0
H497 H 0.52753 0.25358 0.51319 0.0
H498 H 0.609 0.40671 0.45047 0.0
H499 H 0.66998 0.4274 0.46676 0.0
H500 H 0.64484 0.38944 0.43574 0.0
H501 H 0.51182 0.28983 0.54677 0.0
H502 H 0.56672 0.35055 0.5526 0.0
H503 H 0.50656 0.3299 0.53523 0.0
H504 H 0.67381 0.49624 0.55354 0.0
H505 H 0.5291 0.44562 0.51161 0.0
H506 H 0.69314 0.42625 0.51297 0.0
H507 H 0.66183 0.40239 0.54317 0.0
H508 H 0.71386 0.46342 0.54405 0.0
H509 H 0.5186 0.3646 0.46318 0.0
H510 H 0.48328 0.38224 0.47817 0.0
H511 H 0.47996 0.33853 0.49136 0.0
C512 C 0.46004 0.58041 0.84106 0.0
C513 C 0.45514 0.54252 0.84746 0.0
C514 C 0.41667 0.58162 0.84164 0.0
C515 C 0.36416 0.54411 0.84885 0.0
C516 C 0.35892 0.50572 0.85519 0.0
C517 C 0.40292 0.50536 0.85439 0.0
C518 C 0.42756 0.62403 0.83455 0.0
C519 C 0.306 0.46429 0.86323 0.0
C520 C 0.268 0.56599 0.87914 0.0
C521 C 0.22879 0.55116 0.85839 0.0
C522 C 0.31012 0.56378 0.87628 0.0
C523 C 0.31688 0.54625 0.85162 0.0
C524 C 0.27764 0.53102 0.83026 0.0
C525 C 0.23508 0.53342 0.83375 0.0
C526 C 0.34808 0.58062 0.90031 0.0
C527 C 0.28072 0.51204 0.80325 0.0
H528 H 0.49859 0.60998 0.83555 0.0
H529 H 0.39608 0.47528 0.85948 0.0
H530 H 0.39865 0.61476 0.81818 0.0
H531 H 0.42211 0.64021 0.85225 0.0
H532 H 0.46853 0.64955 0.82803 0.0
H533 H 0.30622 0.43625 0.86658 0.0
H534 H 0.29534 0.47394 0.88202 0.0
H535 H 0.27449 0.4513 0.8474 0.0
H536 H 0.26583 0.57989 0.89852 0.0
H537 H 0.207 0.52152 0.81695 0.0
H538 H 0.38933 0.60896 0.89536 0.0
H539 H 0.3471 0.55266 0.90549 0.0
H540 H 0.33849 0.59301 0.91828 0.0
H541 H 0.32006 0.53802 0.79528 0.0
H542 H 0.24899 0.50185 0.78841 0.0
H543 H 0.27725 0.48177 0.80546 0.0
C544 C 0.89811 0.41009 0.17588 0.0
C545 C 0.92292 0.42343 0.1515 0.0
C546 C 0.85148 0.36472 0.17795 0.0
C547 C 0.82731 0.33172 0.15482 0.0
C548 C 0.85183 0.34522 0.13001 0.0
C549 C 0.89976 0.39051 0.12877 0.0
C550 C 0.82819 0.35213 0.20504 0.0
C551 C 0.82665 0.31213 0.10457 0.0
C552 C 0.72732 0.20385 0.16489 0.0
C553 C 0.67889 0.19521 0.16461 0.0
C554 C 0.77578 0.24781 0.16146 0.0
C555 C 0.77579 0.28371 0.15664 0.0
C556 C 0.72641 0.27423 0.15507 0.0
C557 C 0.67905 0.23065 0.15966 0.0
C558 C 0.82729 0.25648 0.16442 0.0
C559 C 0.72357 0.31042 0.14908 0.0
H560 H 0.91586 0.43511 0.19363 0.0
H561 H 0.9183 0.40054 0.10978 0.0
H562 H 0.78885 0.34342 0.20453 0.0
H563 H 0.82183 0.3214 0.20987 0.0
H564 H 0.85416 0.3804 0.22147 0.0
H565 H 0.85006 0.32787 0.08682 0.0
H566 H 0.82265 0.28169 0.10703 0.0
H567 H 0.78596 0.29985 0.10052 0.0
H568 H 0.72772 0.17699 0.16927 0.0
H569 H 0.64181 0.2243 0.15958 0.0
H570 H 0.85199 0.28246 0.18199 0.0
H571 H 0.85037 0.27056 0.1464 0.0
H572 H 0.82072 0.22492 0.16732 0.0
H573 H 0.74262 0.33803 0.16619 0.0
H574 H 0.68191 0.29622 0.14558 0.0
H575 H 0.74554 0.32629 0.13104 0.0
C576 C 1.05042 0.59985 0.06287 0.0
C577 C 1.04862 0.5711 0.07895 0.0
C578 C 0.05332 0.59513 0.03483 0.0
C579 C 0.05512 0.56122 0.02267 0.0
C580 C 0.05452 0.53279 0.03897 0.0
C581 C 1.05094 0.53789 0.0669 0.0
C582 C 0.05347 0.62589 0.01816 0.0
C583 C 0.05707 0.49666 0.02689 0.0
C584 C 1.00813 0.51972 0.94867 0.0
C585 C 0.05626 0.54602 0.93595 0.0
C586 C 1.00729 0.52383 0.97684 0.0
C587 C 0.05578 0.55456 0.99282 0.0
C588 C 0.10461 0.5799 0.98018 0.0
C589 C 0.10426 0.57548 0.95191 0.0
C590 C 0.95436 0.49614 0.98949 0.0
C591 C 0.15717 0.61261 -0.00349 0.0
H592 H 1.0487 0.62558 0.07216 0.0
H593 H 1.04991 0.51579 0.07932 0.0
H594 H 0.0893 0.6448 0.00632 0.0
H595 H 1.01822 0.6049 0.00359 0.0
H596 H 0.05286 0.65108 0.03071 0.0
H597 H 0.05916 0.47909 0.04248 0.0
H598 H 1.0214 0.47063 0.01309 0.0
H599 H 0.09237 0.51229 0.01476 0.0
H600 H 0.9709 0.49625 0.93653 0.0
H601 H 0.14161 0.59621 0.94229 0.0
H602 H 0.94962 0.51948 0.00094 0.0
H603 H 0.95275 0.47528 0.00398 0.0
H604 H 0.92029 0.47293 0.97428 0.0
H605 H 0.16056 0.64106 0.00742 0.0
H606 H 0.1916 0.62736 0.98376 0.0
H607 H 0.15946 0.59487 0.01186 0.0
C608 C 0.57257 0.04266 0.38377 0.0
C609 C 0.62313 0.06194 0.39445 0.0
C610 C 0.56362 0.04225 0.35635 0.0
C611 C 0.60637 0.06186 0.33924 0.0
C612 C 0.65787 0.08256 0.35012 0.0
C613 C 0.6656 0.08222 0.37762 0.0
C614 C 0.50808 0.01967 0.34554 0.0
C615 C 0.70453 0.1041 0.33259 0.0
C616 C 0.57122 0.01482 0.26527 0.0
C617 C 0.57324 0.04782 0.25384 0.0
C618 C 0.58227 0.01923 0.29293 0.0
C619 C 0.59635 0.0579 0.3097 0.0
C620 C 0.59969 0.09193 0.29829 0.0
C621 C 0.58802 0.08646 0.27048 0.0
C622 C 0.57826 0.98215 0.30426 0.0
C623 C 0.61484 0.13374 0.31552 0.0
H624 H 0.53969 0.02716 0.39678 0.0
H625 H 0.70484 0.09748 0.3859 0.0
H626 H 0.50848 0.04369 0.33468 0.0
H627 H 0.4931 0.9895 0.33087 0.0
H628 H 0.47984 0.00819 0.36173 0.0
H629 H 0.7426 0.12148 0.34446 0.0
H630 H 0.69787 0.07742 0.3175 0.0
H631 H 0.70829 0.12945 0.32136 0.0
H632 H 0.561 0.98535 0.2525 0.0
H633 H 0.58941 0.11198 0.26185 0.0
H634 H 0.54798 0.96685 0.31949 0.0
H635 H 0.61681 0.997 0.31459 0.0
H636 H 0.56722 0.95443 0.28845 0.0
H637 H 0.58482 0.12326 0.33058 0.0
H638 H 0.61778 0.15796 0.30343 0.0
H639 H 0.6536 0.15195 0.32683 0.0
C640 C 0.63119 0.5452 0.75694 0.0
C641 C 0.58246 0.52786 0.76746 0.0
C642 C 0.63863 0.55048 0.72942 0.0
C643 C 0.59688 0.53952 0.71239 0.0
C644 C 0.54858 0.52419 0.72336 0.0
C645 C 0.54166 0.51781 0.75069 0.0
C646 C 0.69013 0.56572 0.71838 0.0
C647 C 0.5037 0.51347 0.70608 0.0
C648 C 0.62553 0.58189 0.64344 0.0
C649 C 0.60429 0.5417 0.62623 0.0
C650 C 0.62388 0.58191 0.67153 0.0
C651 C 0.60207 0.54116 0.68283 0.0
C652 C 0.58253 0.501 0.66573 0.0
C653 C 0.58299 0.50153 0.63773 0.0
C654 C 0.64404 0.62517 0.68908 0.0
C655 C 0.55993 0.45703 0.67699 0.0
H656 H 0.66266 0.55277 0.76996 0.0
H657 H 0.50415 0.5048 0.75897 0.0
H658 H 0.68211 0.53761 0.70408 0.0
H659 H 0.70788 0.59544 0.70701 0.0
H660 H 0.71966 0.57527 0.7345 0.0
H661 H 0.47091 0.5062 0.71819 0.0
H662 H 0.51866 0.54259 0.69464 0.0
H663 H 0.48726 0.48319 0.6912 0.0
H664 H 0.64319 0.61344 0.635 0.0
H665 H 0.56534 0.46992 0.62488 0.0
H666 H 0.67516 0.63506 0.70419 0.0
H667 H 0.61101 0.61905 0.70033 0.0
H668 H 0.6608 0.65427 0.67722 0.0
H669 H 0.58823 0.46345 0.69269 0.0
H670 H 0.55118 0.43017 0.66119 0.0
H671 H 0.52256 0.4437 0.68669 0.0
C672 C 0.64385 0.09616 0.55522 0.0
C673 C 0.59703 0.08466 0.54439 0.0
C674 C 0.65035 0.0952 0.5828 0.0
C675 C 0.60998 0.08442 0.60004 0.0
C676 C 0.56338 0.07423 0.58926 0.0
C677 C 0.55716 0.07383 0.56153 0.0
C678 C 0.69995 0.10504 0.59338 0.0
C679 C 0.52003 0.06383 0.60703 0.0
C680 C 0.59333 0.04077 0.66765 0.0
C681 C 0.6168 0.08053 0.68573 0.0
C682 C 0.59344 0.04205 0.63967 0.0
C683 C 0.61605 0.08379 0.62941 0.0
C684 C 0.64094 0.12423 0.64742 0.0
C685 C 0.64181 0.12226 0.67526 0.0
C686 C 0.5677 0.99836 0.6211 0.0
C687 C 0.66466 0.16929 0.63734 0.0
H688 H 0.67518 0.10543 0.54212 0.0
H689 H 0.52107 0.0653 0.55327 0.0
H690 H 0.72244 0.13569 0.60858 0.0
H691 H 0.68895 0.07589 0.60359 0.0
H692 H 0.72651 0.11098 0.57714 0.0
H693 H 0.48742 0.05864 0.59567 0.0
H694 H 0.50285 0.03248 0.61662 0.0
H695 H 0.5369 0.0923 0.62344 0.0
H696 H 0.57328 0.00816 0.67526 0.0
H697 H 0.66146 0.15352 0.68885 0.0
H698 H 0.59443 1.00417 0.60502 0.0
H699 H 0.53051 0.98723 0.61114 0.0
H700 H 0.55778 0.97017 0.63202 0.0
H701 H 0.69427 0.1778 0.62243 0.0
H702 H 0.6843 0.19796 0.65388 0.0
H703 H 0.6329 0.16645 0.62695 0.0
C704 C 0.56253 0.52091 0.92878 0.0
C705 C 0.61083 0.5431 0.91663 0.0
C706 C 0.5512 0.49597 0.95041 0.0
C707 C 0.58841 0.49182 0.95945 0.0
C708 C 0.6371 0.51372 0.94693 0.0
C709 C 0.64815 0.53983 0.92585 0.0
C710 C 0.49928 0.47401 0.96355 0.0
C711 C 0.67678 0.50866 0.95533 0.0
C712 C 0.56649 0.45989 0.03037 0.0
C713 C 0.52867 0.41192 0.0256 0.0
C714 C 0.58957 0.48665 0.00901 0.0
C715 C 0.57576 0.46487 0.98227 0.0
C716 C 0.54266 0.41654 0.97756 0.0
C717 C 0.51903 0.39054 -0.00071 0.0
C718 C 0.62437 0.53803 0.01498 0.0
C719 C 0.52842 0.39207 0.94937 0.0
H720 H 0.53366 0.52332 0.92143 0.0
H721 H 0.68507 0.55629 0.91597 0.0
H722 H 0.47471 0.43626 0.96107 0.0
H723 H 0.50705 0.48561 0.98548 0.0
H724 H 0.4759 0.4823 0.95487 0.0
H725 H 0.71272 0.52782 0.94352 0.0
H726 H 0.68931 0.52105 0.977 0.0
H727 H 0.65793 0.47194 0.95261 0.0
H728 H 0.57527 0.47664 0.05075 0.0
H729 H 0.49004 0.35353 -0.00465 0.0
H730 H 0.60184 0.54876 0.00902 0.0
H731 H 0.6602 0.55549 0.00317 0.0
H732 H 0.63722 0.54991 0.0367 0.0
H733 H 0.49837 0.3918 0.93932 0.0
H734 H 0.51153 0.35605 0.94941 0.0
H735 H 0.5638 0.41002 0.93719 0.0
C736 C 1.04704 0.54405 0.23673 0.0
C737 C 0.09237 0.55721 0.22394 0.0
C738 C 1.04688 0.54772 0.26493 0.0
C739 C 0.09332 0.56507 0.28051 0.0
C740 C 0.13919 0.57828 0.26749 0.0
C741 C 0.13799 0.57384 0.23926 0.0
C742 C 0.997 0.53269 0.27803 0.0
C743 C 0.18958 0.59723 0.28337 0.0
C744 C 0.1171 0.61657 0.35319 0.0
C745 C 0.10693 0.58204 0.36724 0.0
C746 C 0.1113 0.61097 0.32498 0.0
C747 C 0.09432 0.56964 0.31044 0.0
C748 C 0.08145 0.53378 0.32451 0.0
C749 C 0.08813 0.54048 0.35274 0.0
C750 C 0.12533 0.64998 0.31071 0.0
C751 C 0.0627 0.48902 0.30972 0.0
H752 H 1.01142 0.53008 0.22465 0.0
H753 H 0.17281 0.58366 0.22911 0.0
H754 H 0.98294 0.50484 0.29045 0.0
H755 H 1.0056 0.56156 0.29173 0.0
H756 H 0.96444 0.52027 0.26301 0.0
H757 H 0.22188 0.60633 0.27016 0.0
H758 H 0.20378 0.62827 0.29693 0.0
H759 H 0.18152 0.57172 0.29623 0.0
H760 H 0.13069 0.64845 0.36427 0.0
H761 H 0.08065 0.51379 0.36337 0.0
H762 H 0.09185 0.6379 0.29656 0.0
H763 H 0.16016 0.66292 0.29862 0.0
H764 H 0.13507 0.67887 0.32497 0.0
H765 H 1.0291 0.47476 0.29498 0.0
H766 H 1.04976 0.46317 0.32361 0.0
H767 H 0.0954 0.49495 0.29824 0.0
loop_
_geom_bond_atom_site_label_1
_geom_bond_atom_site_label_2
_geom_bond_distance
_geom_bond_site_symmetry_2
_ccdc_geom_bond_type
Ho0 C3 2.811 . S
Ho0 O20 2.322 . S
Ho0 O22 2.378 . S
Ho0 O23 2.524 . S
Ho0 O24 2.381 . S
Ho0 O25 2.669 . S
Ho0 O27 2.346 . S
Ho0 O31 2.305 . S
Ho1 C12 2.811 1_455 S
Ho1 O21 2.346 . S
Ho1 O25 2.305 . S
Ho1 O26 2.322 1_455 S
Ho1 O28 2.378 1_455 S
Ho1 O29 2.524 1_455 S
Ho1 O30 2.381 . S
Ho1 O31 2.669 . S
C2 O20 1.259 . S
C2 O21 1.268 . S
C3 Ho0 2.811 . S
C3 C4 1.488 . S
C3 O22 1.215 . S
C3 O23 1.289 . S
C4 C3 1.488 . S
C4 C5 1.348 . S
C4 C9 1.413 . S
C5 C4 1.348 . S
C5 C6 1.442 . S
C5 H32 0.930 . S
C6 C5 1.442 . S
C6 C7 1.381 . S
C6 H33 0.931 . S
C7 C6 1.381 . S
C7 C8 1.321 . S
C8 C7 1.321 . S
C8 C9 1.403 . S
C8 H34 0.934 . S
C9 C4 1.413 . S
C9 C8 1.403 . S
C9 H35 0.930 . S
C10 O24 1.275 . S
C10 O25 1.256 . S
C11 O26 1.259 . S
C11 O27 1.268 1_655 S
C12 Ho1 2.811 1_655 S
C12 C13 1.488 . S
C12 O28 1.215 . S
C12 O29 1.289 . S
C13 C12 1.488 . S
C13 C14 1.348 . S
C13 C18 1.413 . S
C14 C13 1.348 . S
C14 C15 1.442 . S
C14 H36 0.930 . S
C15 C14 1.442 . S
C15 C16 1.381 . S
C15 H37 0.931 . S
C16 C15 1.381 . S
C16 C17 1.321 . S
C17 C16 1.321 . S
C17 C18 1.403 . S
C17 H38 0.934 . S
C18 C13 1.413 . S
C18 C17 1.403 . S
C18 H39 0.930 . S
C19 O30 1.275 . S
C19 O31 1.256 . S
O20 Ho0 2.322 . S
O20 C2 1.259 . S
O21 Ho1 2.346 . S
O21 C2 1.268 . S
O22 Ho0 2.378 . S
O22 C3 1.215 . S
O23 Ho0 2.524 . S
O23 C3 1.289 . S
O24 Ho0 2.381 . S
O24 C10 1.275 . S
O25 Ho0 2.669 . S
O25 Ho1 2.305 . S
O25 C10 1.256 . S
O26 Ho1 2.322 1_655 S
O26 C11 1.259 . S
O27 Ho0 2.346 . S
O27 C11 1.268 1_455 S
O28 Ho1 2.378 1_655 S
O28 C12 1.215 . S
O29 Ho1 2.524 1_655 S
O29 C12 1.289 . S
O30 Ho1 2.381 . S
O30 C19 1.275 . S
O31 Ho0 2.305 . S
O31 Ho1 2.669 . S
O31 C19 1.256 . S
H32 C5 0.930 . S
H33 C6 0.931 . S
H34 C8 0.934 . S
H35 C9 0.930 . S
H36 C14 0.930 . S
H37 C15 0.931 . S
H38 C17 0.934 . S
H39 C18 0.930 . S
Ho40 C43 2.811 1_545 S
Ho40 O60 2.322 1_545 S
Ho40 O62 2.378 1_545 S
Ho40 O63 2.524 1_545 S
Ho40 O64 2.381 . S
Ho40 O65 2.669 . S
Ho40 O67 2.346 . S
Ho40 O71 2.305 . S
Ho41 C52 2.811 . S
Ho41 O61 2.346 1_545 S
Ho41 O65 2.305 . S
Ho41 O66 2.322 . S
Ho41 O68 2.378 . S
Ho41 O69 2.524 . S
Ho41 O70 2.381 . S
Ho41 O71 2.669 . S
C42 O60 1.259 . S
C42 O61 1.268 . S
C43 Ho40 2.811 1_565 S
C43 C44 1.488 . S
C43 O62 1.215 . S
C43 O63 1.289 . S
C44 C43 1.488 . S
C44 C45 1.348 . S
C44 C49 1.413 . S
C45 C44 1.348 . S
C45 C46 1.442 . S
C45 H72 0.930 . S
C46 C45 1.442 . S
C46 C47 1.381 . S
C46 H73 0.931 . S
C47 C46 1.381 . S
C47 C48 1.321 . S
C48 C47 1.321 . S
C48 C49 1.403 . S
C48 H74 0.934 . S
C49 C44 1.413 . S
C49 C48 1.403 . S
C49 H75 0.930 . S
C50 O64 1.275 . S
C50 O65 1.256 . S
C51 O66 1.259 . S
C51 O67 1.268 . S
C52 Ho41 2.811 . S
C52 C53 1.488 . S
C52 O68 1.215 . S
C52 O69 1.289 . S
C53 C52 1.488 . S
C53 C54 1.348 . S
C53 C58 1.413 . S
C54 C53 1.348 . S
C54 C55 1.442 . S
C54 H76 0.930 . S
C55 C54 1.442 . S
C55 C56 1.381 . S
C55 H77 0.931 . S
C56 C55 1.381 . S
C56 C57 1.321 . S
C57 C56 1.321 . S
C57 C58 1.403 . S
C57 H78 0.934 . S
C58 C53 1.413 . S
C58 C57 1.403 . S
C58 H79 0.930 . S
C59 O70 1.275 . S
C59 O71 1.256 . S
O60 Ho40 2.322 1_565 S
O60 C42 1.259 . S
O61 Ho41 2.346 1_565 S
O61 C42 1.268 . S
O62 Ho40 2.378 1_565 S
O62 C43 1.215 . S
O63 Ho40 2.524 1_565 S
O63 C43 1.289 . S
O64 Ho40 2.381 . S
O64 C50 1.275 . S
O65 Ho40 2.669 . S
O65 Ho41 2.305 . S
O65 C50 1.256 . S
O66 Ho41 2.322 . S
O66 C51 1.259 . S
O67 Ho40 2.346 . S
O67 C51 1.268 . S
O68 Ho41 2.378 . S
O68 C52 1.215 . S
O69 Ho41 2.524 . S
O69 C52 1.289 . S
O70 Ho41 2.381 . S
O70 C59 1.275 . S
O71 Ho40 2.305 . S
O71 Ho41 2.669 . S
O71 C59 1.256 . S
H72 C45 0.930 . S
H73 C46 0.931 . S
H74 C48 0.934 . S
H75 C49 0.930 . S
H76 C54 0.930 . S
H77 C55 0.931 . S
H78 C57 0.934 . S
H79 C58 0.930 . S
Ho80 C83 2.811 . S
Ho80 O100 2.322 . S
Ho80 O102 2.378 . S
Ho80 O103 2.524 . S
Ho80 O104 2.381 . S
Ho80 O105 2.669 . S
Ho80 O107 2.346 . S
Ho80 O111 2.305 . S
Ho81 C92 2.811 . S
Ho81 O101 2.346 . S
Ho81 O105 2.305 . S
Ho81 O106 2.322 . S
Ho81 O108 2.378 . S
Ho81 O109 2.524 . S
Ho81 O110 2.381 . S
Ho81 O111 2.669 . S
C82 O100 1.259 . S
C82 O101 1.268 . S
C83 Ho80 2.811 . S
C83 C84 1.488 . S
C83 O102 1.215 . S
C83 O103 1.289 . S
C84 C83 1.488 . S
C84 C85 1.348 . S
C84 C89 1.413 . S
C85 C84 1.348 . S
C85 C86 1.442 . S
C85 H112 0.930 . S
C86 C85 1.442 . S
C86 C87 1.381 . S
C86 H113 0.931 . S
C87 C86 1.381 . S
C87 C88 1.321 . S
C88 C87 1.321 . S
C88 C89 1.403 . S
C88 H114 0.934 . S
C89 C84 1.413 . S
C89 C88 1.403 . S
C89 H115 0.930 . S
C90 O104 1.275 . S
C90 O105 1.256 . S
C91 O106 1.259 . S
C91 O107 1.268 . S
C92 Ho81 2.811 . S
C92 C93 1.488 . S
C92 O108 1.215 . S
C92 O109 1.289 . S
C93 C92 1.488 . S
C93 C94 1.348 . S
C93 C98 1.413 . S
C94 C93 1.348 . S
C94 C95 1.442 . S
C94 H116 0.930 . S
C95 C94 1.442 . S
C95 C96 1.381 . S
C95 H117 0.931 . S
C96 C95 1.381 . S
C96 C97 1.321 . S
C97 C96 1.321 . S
C97 C98 1.403 . S
C97 H118 0.934 . S
C98 C93 1.413 . S
C98 C97 1.403 . S
C98 H119 0.930 . S
C99 O110 1.275 . S
C99 O111 1.256 . S
O100 Ho80 2.322 . S
O100 C82 1.259 . S
O101 Ho81 2.346 . S
O101 C82 1.268 . S
O102 Ho80 2.378 . S
O102 C83 1.215 . S
O103 Ho80 2.524 . S
O103 C83 1.289 . S
O104 Ho80 2.381 . S
O104 C90 1.275 . S
O105 Ho80 2.669 . S
O105 Ho81 2.305 . S
O105 C90 1.256 . S
O106 Ho81 2.322 . S
O106 C91 1.259 . S
O107 Ho80 2.346 . S
O107 C91 1.268 . S
O108 Ho81 2.378 . S
O108 C92 1.215 . S
O109 Ho81 2.524 . S
O109 C92 1.289 . S
O110 Ho81 2.381 . S
O110 C99 1.275 . S
O111 Ho80 2.305 . S
O111 Ho81 2.669 . S
O111 C99 1.256 . S
H112 C85 0.930 . S
H113 C86 0.931 . S
H114 C88 0.934 . S
H115 C89 0.930 . S
H116 C94 0.930 . S
H117 C95 0.931 . S
H118 C97 0.934 . S
H119 C98 0.930 . S
H120 C125 0.930 . S
H121 C128 0.930 . S
H122 C130 0.930 1_565 S
H123 C124 1.016 . S
C124 H123 1.016 . S
C124 N131 1.286 . S
C125 H120 0.930 . S
C125 C126 1.397 1_545 S
C125 C127 1.361 . S
C126 C125 1.397 1_565 S
C126 C130 1.390 1_565 S
C127 C125 1.361 . S
C127 C128 1.393 . S
C127 N131 1.413 . S
C128 H121 0.930 . S
C128 C127 1.393 . S
C128 C129 1.399 . S
C129 C128 1.399 . S
C129 C130 1.381 . S
C130 H122 0.930 1_545 S
C130 C126 1.390 1_545 S
C130 C129 1.381 . S
N131 C124 1.286 . S
N131 C127 1.413 . S
H132 C137 0.930 . S
H133 C140 0.930 . S
H134 C142 0.930 . S
H135 C136 1.016 . S
C136 H135 1.016 . S
C136 N143 1.286 . S
C137 H132 0.930 . S
C137 C138 1.397 . S
C137 C139 1.361 . S
C138 C137 1.397 . S
C138 C142 1.390 . S
C139 C137 1.361 . S
C139 C140 1.393 . S
C139 N143 1.413 . S
C140 H133 0.930 . S
C140 C139 1.393 . S
C140 C141 1.399 . S
C141 C140 1.399 . S
C141 C142 1.381 . S
C142 H134 0.930 . S
C142 C138 1.390 . S
C142 C141 1.381 . S
N143 C136 1.286 . S
N143 C139 1.413 . S
H144 C149 0.930 . S
H145 C152 0.930 . S
H146 C154 0.930 1_655 S
H147 C148 1.016 . S
C148 H147 1.016 . S
C148 N155 1.286 . S
C149 H144 0.930 . S
C149 C150 1.397 1_455 S
C149 C151 1.361 . S
C150 C149 1.397 1_655 S
C150 C154 1.390 1_655 S
C151 C149 1.361 . S
C151 C152 1.393 . S
C151 N155 1.413 . S
C152 H145 0.930 . S
C152 C151 1.393 . S
C152 C153 1.399 . S
C153 C152 1.399 . S
C153 C154 1.381 . S
C154 H146 0.930 1_455 S
C154 C150 1.390 1_455 S
C154 C153 1.381 . S
N155 C148 1.286 . S
N155 C151 1.413 . S
H156 C161 0.930 . S
H157 C164 0.930 . S
H158 C166 0.930 . S
H159 C160 1.016 . S
C160 H159 1.016 . S
C160 N167 1.286 . S
C161 H156 0.930 . S
C161 C162 1.397 . S
C161 C163 1.361 1_455 S
C162 C161 1.397 . S
C162 C166 1.390 . S
C163 C161 1.361 1_655 S
C163 C164 1.393 . S
C163 N167 1.413 . S
C164 H157 0.930 . S
C164 C163 1.393 . S
C164 C165 1.399 1_655 S
C165 C164 1.399 1_455 S
C165 C166 1.381 . S
C166 H158 0.930 . S
C166 C162 1.390 . S
C166 C165 1.381 . S
N167 C160 1.286 . S
N167 C163 1.413 . S
H168 C173 0.930 . S
H169 C176 0.904 1_565 S
H170 C178 0.930 . S
H171 C172 1.016 . S
C172 H171 1.016 . S
C172 N179 1.286 . S
C173 H168 0.930 . S
C173 C174 1.397 . S
C173 C175 1.361 . S
C174 C173 1.397 . S
C174 C178 1.390 . S
C175 C173 1.361 . S
C175 C176 1.394 . S
C175 N179 1.413 1_545 S
C176 H169 0.904 1_545 S
C176 C175 1.394 . S
C176 C177 1.425 . S
C177 C176 1.425 . S
C177 C178 1.381 . S
C178 H170 0.930 . S
C178 C174 1.390 . S
C178 C177 1.381 . S
N179 C172 1.286 . S
N179 C175 1.413 1_565 S
H180 C185 0.930 . S
H181 C188 0.930 . S
H182 C190 0.930 . S
H183 C184 1.016 . S
C184 H183 1.016 . S
C184 N191 1.286 . S
C185 H180 0.930 . S
C185 C186 1.397 . S
C185 C187 1.361 . S
C186 C185 1.397 . S
C186 C190 1.390 . S
C187 C185 1.361 . S
C187 C188 1.393 . S
C187 N191 1.413 . S
C188 H181 0.930 . S
C188 C187 1.393 . S
C188 C189 1.399 . S
C189 C188 1.399 . S
C189 C190 1.381 . S
C190 H182 0.930 . S
C190 C186 1.390 . S
C190 C189 1.381 . S
N191 C184 1.286 . S
N191 C187 1.413 . S
C192 C193 1.391 . S
C192 C194 1.394 . S
C192 H208 0.931 . S
C193 C192 1.391 . S
C193 C197 1.376 . S
C194 C192 1.394 . S
C194 C195 1.369 . S
C194 C198 1.531 . S
C195 C194 1.369 . S
C195 C196 1.410 . S
C195 C203 1.503 . S
C196 C195 1.410 . S
C196 C197 1.392 . S
C196 C199 1.511 . S
C197 C193 1.376 . S
C197 C196 1.392 . S
C197 H209 0.929 . S
C198 C194 1.531 . S
C198 H210 0.960 . S
C198 H211 0.962 . S
C198 H212 0.960 . S
C199 C196 1.511 . S
C199 H213 0.961 . S
C199 H214 0.961 . S
C199 H215 0.961 . S
C200 C201 1.370 . S
C200 C202 1.363 . S
C200 H216 0.931 . S
C201 C200 1.370 . S
C201 C205 1.408 . S
C202 C200 1.363 . S
C202 C203 1.370 . S
C202 C206 1.524 . S
C203 C195 1.503 . S
C203 C202 1.370 . S
C203 C204 1.403 . S
C204 C203 1.403 . S
C204 C205 1.404 . S
C204 C207 1.539 . S
C205 C201 1.408 . S
C205 C204 1.404 . S
C205 H217 0.930 . S
C206 C202 1.524 . S
C206 H218 0.956 . S
C206 H219 0.961 . S
C206 H220 0.961 . S
C207 C204 1.539 . S
C207 H221 0.958 . S
C207 H222 0.961 . S
C207 H223 0.960 . S
H208 C192 0.931 . S
H209 C197 0.929 . S
H210 C198 0.960 . S
H211 C198 0.962 . S
H212 C198 0.960 . S
H213 C199 0.961 . S
H214 C199 0.961 . S
H215 C199 0.961 . S
H216 C200 0.931 . S
H217 C205 0.930 . S
H218 C206 0.956 . S
H219 C206 0.961 . S
H220 C206 0.961 . S
H221 C207 0.958 . S
H222 C207 0.961 . S
H223 C207 0.960 . S
C224 C225 1.391 . S
C224 C226 1.394 . S
C224 H240 0.931 . S
C225 C224 1.391 . S
C225 C229 1.376 . S
C226 C224 1.394 . S
C226 C227 1.369 . S
C226 C230 1.531 . S
C227 C226 1.369 . S
C227 C228 1.410 . S
C227 C235 1.503 . S
C228 C227 1.410 . S
C228 C229 1.392 . S
C228 C231 1.511 . S
C229 C225 1.376 . S
C229 C228 1.392 . S
C229 H241 0.929 . S
C230 C226 1.531 . S
C230 H242 0.960 . S
C230 H243 0.962 . S
C230 H244 0.960 . S
C231 C228 1.511 . S
C231 H245 0.961 . S
C231 H246 0.961 . S
C231 H247 0.961 . S
C232 C233 1.370 . S
C232 C234 1.363 . S
C232 H248 0.931 . S
C233 C232 1.370 . S
C233 C237 1.408 . S
C234 C232 1.363 . S
C234 C235 1.370 . S
C234 C238 1.524 . S
C235 C227 1.503 . S
C235 C234 1.370 . S
C235 C236 1.403 . S
C236 C235 1.403 . S
C236 C237 1.404 . S
C236 C239 1.539 . S
C237 C233 1.408 . S
C237 C236 1.404 . S
C237 H249 0.930 . S
C238 C234 1.524 . S
C238 H250 0.956 . S
C238 H251 0.961 . S
C238 H252 0.961 . S
C239 C236 1.539 . S
C239 H253 0.958 . S
C239 H254 0.961 . S
C239 H255 0.960 . S
H240 C224 0.931 . S
H241 C229 0.929 . S
H242 C230 0.960 . S
H243 C230 0.962 . S
H244 C230 0.960 . S
H245 C231 0.961 . S
H246 C231 0.961 . S
H247 C231 0.961 . S
H248 C232 0.931 . S
H249 C237 0.930 . S
H250 C238 0.956 . S
H251 C238 0.961 . S
H252 C238 0.961 . S
H253 C239 0.958 . S
H254 C239 0.961 . S
H255 C239 0.960 . S
C256 C257 1.391 . S
C256 C258 1.394 . S
C256 H272 0.931 . S
C257 C256 1.391 . S
C257 C261 1.376 . S
C258 C256 1.394 . S
C258 C259 1.369 . S
C258 C262 1.531 . S
C259 C258 1.369 . S
C259 C260 1.410 . S
C259 C267 1.503 . S
C260 C259 1.410 . S
C260 C261 1.392 . S
C260 C263 1.511 . S
C261 C257 1.376 . S
C261 C260 1.392 . S
C261 H273 0.929 . S
C262 C258 1.531 . S
C262 H274 0.960 . S
C262 H275 0.962 . S
C262 H276 0.960 . S
C263 C260 1.511 . S
C263 H277 0.961 . S
C263 H278 0.961 . S
C263 H279 0.961 . S
C264 C265 1.370 . S
C264 C266 1.363 . S
C264 H280 0.931 . S
C265 C264 1.370 . S
C265 C269 1.408 . S
C266 C264 1.363 . S
C266 C267 1.370 . S
C266 C270 1.524 . S
C267 C259 1.503 . S
C267 C266 1.370 . S
C267 C268 1.403 . S
C268 C267 1.403 . S
C268 C269 1.404 . S
C268 C271 1.539 . S
C269 C265 1.408 . S
C269 C268 1.404 . S
C269 H281 0.930 . S
C270 C266 1.524 . S
C270 H282 0.956 . S
C270 H283 0.961 . S
C270 H284 0.961 . S
C271 C268 1.539 . S
C271 H285 0.958 . S
C271 H286 0.961 . S
C271 H287 0.960 . S
H272 C256 0.931 . S
H273 C261 0.929 . S
H274 C262 0.960 . S
H275 C262 0.962 . S
H276 C262 0.960 . S
H277 C263 0.961 . S
H278 C263 0.961 . S
H279 C263 0.961 . S
H280 C264 0.931 . S
H281 C269 0.930 . S
H282 C270 0.956 . S
H283 C270 0.961 . S
H284 C270 0.961 . S
H285 C271 0.958 . S
H286 C271 0.961 . S
H287 C271 0.960 . S
C288 C289 1.391 . S
C288 C290 1.394 . S
C288 H304 0.931 . S
C289 C288 1.391 . S
C289 C293 1.376 . S
C290 C288 1.394 . S
C290 C291 1.369 . S
C290 C294 1.531 . S
C291 C290 1.369 . S
C291 C292 1.410 . S
C291 C299 1.503 . S
C292 C291 1.410 . S
C292 C293 1.392 . S
C292 C295 1.511 . S
C293 C289 1.376 . S
C293 C292 1.392 . S
C293 H305 0.929 . S
C294 C290 1.531 . S
C294 H306 0.960 . S
C294 H307 0.962 . S
C294 H308 0.960 . S
C295 C292 1.511 . S
C295 H309 0.961 . S
C295 H310 0.961 . S
C295 H311 0.961 . S
C296 C297 1.370 . S
C296 C298 1.363 . S
C296 H312 0.931 . S
C297 C296 1.370 . S
C297 C301 1.408 . S
C298 C296 1.363 . S
C298 C299 1.370 . S
C298 C302 1.524 . S
C299 C291 1.503 . S
C299 C298 1.370 . S
C299 C300 1.403 . S
C300 C299 1.403 . S
C300 C301 1.404 . S
C300 C303 1.539 . S
C301 C297 1.408 . S
C301 C300 1.404 . S
C301 H313 0.930 . S
C302 C298 1.524 . S
C302 H314 0.956 . S
C302 H315 0.961 . S
C302 H316 0.961 . S
C303 C300 1.539 . S
C303 H317 0.958 . S
C303 H318 0.961 . S
C303 H319 0.960 . S
H304 C288 0.931 . S
H305 C293 0.929 . S
H306 C294 0.960 . S
H307 C294 0.962 . S
H308 C294 0.960 . S
H309 C295 0.961 . S
H310 C295 0.961 . S
H311 C295 0.961 . S
H312 C296 0.931 . S
H313 C301 0.930 . S
H314 C302 0.956 . S
H315 C302 0.961 . S
H316 C302 0.961 . S
H317 C303 0.958 . S
H318 C303 0.961 . S
H319 C303 0.960 . S
C320 C321 1.391 . S
C320 C322 1.394 . S
C320 H336 0.931 . S
C321 C320 1.391 . S
C321 C325 1.376 . S
C322 C320 1.394 . S
C322 C323 1.369 . S
C322 C326 1.531 . S
C323 C322 1.369 . S
C323 C324 1.410 . S
C323 C331 1.503 . S
C324 C323 1.410 . S
C324 C325 1.392 . S
C324 C327 1.511 . S
C325 C321 1.376 . S
C325 C324 1.392 . S
C325 H337 0.929 . S
C326 C322 1.531 . S
C326 H338 0.960 . S
C326 H339 0.962 . S
C326 H340 0.960 . S
C327 C324 1.511 . S
C327 H341 0.961 . S
C327 H342 0.961 . S
C327 H343 0.961 . S
C328 C329 1.370 . S
C328 C330 1.363 . S
C328 H344 0.931 . S
C329 C328 1.370 . S
C329 C333 1.408 . S
C330 C328 1.363 . S
C330 C331 1.370 . S
C330 C334 1.524 . S
C331 C323 1.503 . S
C331 C330 1.370 . S
C331 C332 1.403 . S
C332 C331 1.403 . S
C332 C333 1.404 . S
C332 C335 1.539 . S
C333 C329 1.408 . S
C333 C332 1.404 . S
C333 H345 0.930 . S
C334 C330 1.524 . S
C334 H346 0.956 . S
C334 H347 0.961 . S
C334 H348 0.961 . S
C335 C332 1.539 . S
C335 H349 0.958 . S
C335 H350 0.961 . S
C335 H351 0.960 . S
H336 C320 0.931 . S
H337 C325 0.929 . S
H338 C326 0.960 . S
H339 C326 0.962 . S
H340 C326 0.960 . S
H341 C327 0.961 . S
H342 C327 0.961 . S
H343 C327 0.961 . S
H344 C328 0.931 . S
H345 C333 0.930 . S
H346 C334 0.956 . S
H347 C334 0.961 . S
H348 C334 0.961 . S
H349 C335 0.958 . S
H350 C335 0.961 . S
H351 C335 0.960 . S
C352 C353 1.391 . S
C352 C354 1.394 . S
C352 H368 0.931 . S
C353 C352 1.391 . S
C353 C357 1.376 . S
C354 C352 1.394 . S
C354 C355 1.369 . S
C354 C358 1.531 . S
C355 C354 1.369 . S
C355 C356 1.410 . S
C355 C363 1.503 . S
C356 C355 1.410 . S
C356 C357 1.392 . S
C356 C359 1.511 . S
C357 C353 1.376 . S
C357 C356 1.392 . S
C357 H369 0.929 . S
C358 C354 1.531 . S
C358 H370 0.960 . S
C358 H371 0.962 . S
C358 H372 0.960 . S
C359 C356 1.511 . S
C359 H373 0.961 . S
C359 H374 0.961 . S
C359 H375 0.961 . S
C360 C361 1.370 . S
C360 C362 1.363 . S
C360 H376 0.931 . S
C361 C360 1.370 . S
C361 C365 1.408 . S
C362 C360 1.363 . S
C362 C363 1.370 . S
C362 C366 1.524 . S
C363 C355 1.503 . S
C363 C362 1.370 . S
C363 C364 1.403 . S
C364 C363 1.403 . S
C364 C365 1.404 . S
C364 C367 1.539 . S
C365 C361 1.408 . S
C365 C364 1.404 . S
C365 H377 0.930 . S
C366 C362 1.524 . S
C366 H378 0.956 . S
C366 H379 0.961 . S
C366 H380 0.961 . S
C367 C364 1.539 . S
C367 H381 0.958 . S
C367 H382 0.961 . S
C367 H383 0.960 . S
H368 C352 0.931 . S
H369 C357 0.929 . S
H370 C358 0.960 . S
H371 C358 0.962 . S
H372 C358 0.960 . S
H373 C359 0.961 . S
H374 C359 0.961 . S
H375 C359 0.961 . S
H376 C360 0.931 . S
H377 C365 0.930 . S
H378 C366 0.956 . S
H379 C366 0.961 . S
H380 C366 0.961 . S
H381 C367 0.958 . S
H382 C367 0.961 . S
H383 C367 0.960 . S
C384 C385 1.391 . S
C384 C386 1.394 . S
C384 H400 0.931 . S
C385 C384 1.391 . S
C385 C389 1.376 . S
C386 C384 1.394 . S
C386 C387 1.369 . S
C386 C390 1.531 . S
C387 C386 1.369 . S
C387 C388 1.410 . S
C387 C395 1.503 . S
C388 C387 1.410 . S
C388 C389 1.392 . S
C388 C391 1.511 . S
C389 C385 1.376 . S
C389 C388 1.392 . S
C389 H401 0.929 . S
C390 C386 1.531 . S
C390 H402 0.960 . S
C390 H403 0.962 . S
C390 H404 0.960 . S
C391 C388 1.511 . S
C391 H405 0.961 . S
C391 H406 0.961 . S
C391 H407 0.961 . S
C392 C393 1.370 . S
C392 C394 1.363 . S
C392 H408 0.931 . S
C393 C392 1.370 . S
C393 C397 1.408 . S
C394 C392 1.363 . S
C394 C395 1.370 . S
C394 C398 1.524 . S
C395 C387 1.503 . S
C395 C394 1.370 . S
C395 C396 1.403 . S
C396 C395 1.403 . S
C396 C397 1.404 . S
C396 C399 1.539 . S
C397 C393 1.408 . S
C397 C396 1.404 . S
C397 H409 0.930 . S
C398 C394 1.524 . S
C398 H410 0.956 . S
C398 H411 0.961 . S
C398 H412 0.961 . S
C399 C396 1.539 . S
C399 H413 0.958 . S
C399 H414 0.961 . S
C399 H415 0.960 . S
H400 C384 0.931 . S
H401 C389 0.929 . S
H402 C390 0.960 . S
H403 C390 0.962 . S
H404 C390 0.960 . S
H405 C391 0.961 . S
H406 C391 0.961 . S
H407 C391 0.961 . S
H408 C392 0.931 . S
H409 C397 0.930 . S
H410 C398 0.956 . S
H411 C398 0.961 . S
H412 C398 0.961 . S
H413 C399 0.958 . S
H414 C399 0.961 . S
H415 C399 0.960 . S
C416 C417 1.391 . S
C416 C418 1.394 . S
C416 H432 0.931 . S
C417 C416 1.391 . S
C417 C421 1.376 . S
C418 C416 1.394 . S
C418 C419 1.369 . S
C418 C422 1.531 . S
C419 C418 1.369 . S
C419 C420 1.410 . S
C419 C427 1.503 . S
C420 C419 1.410 . S
C420 C421 1.392 . S
C420 C423 1.511 . S
C421 C417 1.376 . S
C421 C420 1.392 . S
C421 H433 0.929 . S
C422 C418 1.531 . S
C422 H434 0.960 . S
C422 H435 0.962 . S
C422 H436 0.960 . S
C423 C420 1.511 . S
C423 H437 0.961 . S
C423 H438 0.961 . S
C423 H439 0.961 . S
C424 C425 1.370 . S
C424 C426 1.363 . S
C424 H440 0.931 . S
C425 C424 1.370 . S
C425 C429 1.408 . S
C426 C424 1.363 . S
C426 C427 1.370 . S
C426 C430 1.524 . S
C427 C419 1.503 . S
C427 C426 1.370 . S
C427 C428 1.403 . S
C428 C427 1.403 . S
C428 C429 1.404 . S
C428 C431 1.539 . S
C429 C425 1.408 . S
C429 C428 1.404 . S
C429 H441 0.930 . S
C430 C426 1.524 . S
C430 H442 0.956 . S
C430 H443 0.961 . S
C430 H444 0.961 . S
C431 C428 1.539 . S
C431 H445 0.958 . S
C431 H446 0.961 . S
C431 H447 0.960 . S
H432 C416 0.931 . S
H433 C421 0.929 . S
H434 C422 0.960 . S
H435 C422 0.962 . S
H436 C422 0.960 . S
H437 C423 0.961 . S
H438 C423 0.961 . S
H439 C423 0.961 . S
H440 C424 0.931 . S
H441 C429 0.930 . S
H442 C430 0.956 . S
H443 C430 0.961 . S
H444 C430 0.961 . S
H445 C431 0.958 . S
H446 C431 0.961 . S
H447 C431 0.960 . S
C448 C449 1.391 . S
C448 C450 1.394 . S
C448 H464 0.931 . S
C449 C448 1.391 . S
C449 C453 1.376 . S
C450 C448 1.394 . S
C450 C451 1.369 . S
C450 C454 1.531 . S
C451 C450 1.369 . S
C451 C452 1.410 . S
C451 C459 1.503 . S
C452 C451 1.410 . S
C452 C453 1.392 . S
C452 C455 1.511 . S
C453 C449 1.376 . S
C453 C452 1.392 . S
C453 H465 0.929 . S
C454 C450 1.531 . S
C454 H466 0.960 . S
C454 H467 0.962 . S
C454 H468 0.960 . S
C455 C452 1.511 . S
C455 H469 0.961 . S
C455 H470 0.961 . S
C455 H471 0.961 . S
C456 C457 1.370 . S
C456 C458 1.363 . S
C456 H472 0.931 . S
C457 C456 1.370 . S
C457 C461 1.408 . S
C458 C456 1.363 . S
C458 C459 1.370 . S
C458 C462 1.524 . S
C459 C451 1.503 . S
C459 C458 1.370 . S
C459 C460 1.403 . S
C460 C459 1.403 . S
C460 C461 1.404 . S
C460 C463 1.539 . S
C461 C457 1.408 . S
C461 C460 1.404 . S
C461 H473 0.930 . S
C462 C458 1.524 . S
C462 H474 0.956 . S
C462 H475 0.961 . S
C462 H476 0.961 . S
C463 C460 1.539 . S
C463 H477 0.958 . S
C463 H478 0.961 . S
C463 H479 0.960 . S
H464 C448 0.931 . S
H465 C453 0.929 . S
H466 C454 0.960 . S
H467 C454 0.962 . S
H468 C454 0.960 . S
H469 C455 0.961 . S
H470 C455 0.961 . S
H471 C455 0.961 . S
H472 C456 0.931 . S
H473 C461 0.930 . S
H474 C462 0.956 . S
H475 C462 0.961 . S
H476 C462 0.961 . S
H477 C463 0.958 . S
H478 C463 0.961 . S
H479 C463 0.960 . S
C480 C481 1.391 . S
C480 C482 1.394 . S
C480 H496 0.931 . S
C481 C480 1.391 . S
C481 C485 1.376 . S
C482 C480 1.394 . S
C482 C483 1.369 . S
C482 C486 1.531 . S
C483 C482 1.369 . S
C483 C484 1.410 . S
C483 C491 1.503 . S
C484 C483 1.410 . S
C484 C485 1.392 . S
C484 C487 1.511 . S
C485 C481 1.376 . S
C485 C484 1.392 . S
C485 H497 0.929 . S
C486 C482 1.531 . S
C486 H498 0.960 . S
C486 H499 0.962 . S
C486 H500 0.960 . S
C487 C484 1.511 . S
C487 H501 0.961 . S
C487 H502 0.961 . S
C487 H503 0.961 . S
C488 C489 1.370 . S
C488 C490 1.363 . S
C488 H504 0.931 . S
C489 C488 1.370 . S
C489 C493 1.408 . S
C490 C488 1.363 . S
C490 C491 1.370 . S
C490 C494 1.524 . S
C491 C483 1.503 . S
C491 C490 1.370 . S
C491 C492 1.403 . S
C492 C491 1.403 . S
C492 C493 1.404 . S
C492 C495 1.539 . S
C493 C489 1.408 . S
C493 C492 1.404 . S
C493 H505 0.930 . S
C494 C490 1.524 . S
C494 H506 0.956 . S
C494 H507 0.961 . S
C494 H508 0.961 . S
C495 C492 1.539 . S
C495 H509 0.958 . S
C495 H510 0.961 . S
C495 H511 0.960 . S
H496 C480 0.931 . S
H497 C485 0.929 . S
H498 C486 0.960 . S
H499 C486 0.962 . S
H500 C486 0.960 . S
H501 C487 0.961 . S
H502 C487 0.961 . S
H503 C487 0.961 . S
H504 C488 0.931 . S
H505 C493 0.930 . S
H506 C494 0.956 . S
H507 C494 0.961 . S
H508 C494 0.961 . S
H509 C495 0.958 . S
H510 C495 0.961 . S
H511 C495 0.960 . S
C512 C513 1.391 . S
C512 C514 1.394 . S
C512 H528 0.931 . S
C513 C512 1.391 . S
C513 C517 1.376 . S
C514 C512 1.394 . S
C514 C515 1.369 . S
C514 C518 1.531 . S
C515 C514 1.369 . S
C515 C516 1.410 . S
C515 C523 1.503 . S
C516 C515 1.410 . S
C516 C517 1.392 . S
C516 C519 1.511 . S
C517 C513 1.376 . S
C517 C516 1.392 . S
C517 H529 0.929 . S
C518 C514 1.531 . S
C518 H530 0.960 . S
C518 H531 0.962 . S
C518 H532 0.960 . S
C519 C516 1.511 . S
C519 H533 0.961 . S
C519 H534 0.961 . S
C519 H535 0.961 . S
C520 C521 1.370 . S
C520 C522 1.363 . S
C520 H536 0.931 . S
C521 C520 1.370 . S
C521 C525 1.408 . S
C522 C520 1.363 . S
C522 C523 1.370 . S
C522 C526 1.524 . S
C523 C515 1.503 . S
C523 C522 1.370 . S
C523 C524 1.403 . S
C524 C523 1.403 . S
C524 C525 1.404 . S
C524 C527 1.539 . S
C525 C521 1.408 . S
C525 C524 1.404 . S
C525 H537 0.930 . S
C526 C522 1.524 . S
C526 H538 0.956 . S
C526 H539 0.961 . S
C526 H540 0.961 . S
C527 C524 1.539 . S
C527 H541 0.958 . S
C527 H542 0.961 . S
C527 H543 0.960 . S
H528 C512 0.931 . S
H529 C517 0.929 . S
H530 C518 0.960 . S
H531 C518 0.962 . S
H532 C518 0.960 . S
H533 C519 0.961 . S
H534 C519 0.961 . S
H535 C519 0.961 . S
H536 C520 0.931 . S
H537 C525 0.930 . S
H538 C526 0.956 . S
H539 C526 0.961 . S
H540 C526 0.961 . S
H541 C527 0.958 . S
H542 C527 0.961 . S
H543 C527 0.960 . S
C544 C545 1.391 . S
C544 C546 1.394 . S
C544 H560 0.931 . S
C545 C544 1.391 . S
C545 C549 1.376 . S
C546 C544 1.394 . S
C546 C547 1.369 . S
C546 C550 1.531 . S
C547 C546 1.369 . S
C547 C548 1.410 . S
C547 C555 1.503 . S
C548 C547 1.410 . S
C548 C549 1.392 . S
C548 C551 1.511 . S
C549 C545 1.376 . S
C549 C548 1.392 . S
C549 H561 0.929 . S
C550 C546 1.531 . S
C550 H562 0.960 . S
C550 H563 0.962 . S
C550 H564 0.960 . S
C551 C548 1.511 . S
C551 H565 0.961 . S
C551 H566 0.961 . S
C551 H567 0.961 . S
C552 C553 1.370 . S
C552 C554 1.363 . S
C552 H568 0.931 . S
C553 C552 1.370 . S
C553 C557 1.408 . S
C554 C552 1.363 . S
C554 C555 1.370 . S
C554 C558 1.524 . S
C555 C547 1.503 . S
C555 C554 1.370 . S
C555 C556 1.403 . S
C556 C555 1.403 . S
C556 C557 1.404 . S
C556 C559 1.539 . S
C557 C553 1.408 . S
C557 C556 1.404 . S
C557 H569 0.930 . S
C558 C554 1.524 . S
C558 H570 0.956 . S
C558 H571 0.961 . S
C558 H572 0.961 . S
C559 C556 1.539 . S
C559 H573 0.958 . S
C559 H574 0.961 . S
C559 H575 0.960 . S
H560 C544 0.931 . S
H561 C549 0.929 . S
H562 C550 0.960 . S
H563 C550 0.962 . S
H564 C550 0.960 . S
H565 C551 0.961 . S
H566 C551 0.961 . S
H567 C551 0.961 . S
H568 C552 0.931 . S
H569 C557 0.930 . S
H570 C558 0.956 . S
H571 C558 0.961 . S
H572 C558 0.961 . S
H573 C559 0.958 . S
H574 C559 0.961 . S
H575 C559 0.960 . S
C576 C577 1.391 . S
C576 C578 1.394 . S
C576 H592 0.931 . S
C577 C576 1.391 . S
C577 C581 1.376 . S
C578 C576 1.394 . S
C578 C579 1.369 . S
C578 C582 1.531 . S
C579 C578 1.369 . S
C579 C580 1.410 . S
C579 C587 1.503 1_554 S
C580 C579 1.410 . S
C580 C581 1.392 . S
C580 C583 1.511 . S
C581 C577 1.376 . S
C581 C580 1.392 . S
C581 H593 0.929 . S
C582 C578 1.531 . S
C582 H594 0.960 . S
C582 H595 0.962 . S
C582 H596 0.960 . S
C583 C580 1.511 . S
C583 H597 0.961 . S
C583 H598 0.961 . S
C583 H599 0.961 . S
C584 C585 1.370 . S
C584 C586 1.363 . S
C584 H600 0.931 1_455 S
C585 C584 1.370 . S
C585 C589 1.408 . S
C586 C584 1.363 . S
C586 C587 1.370 . S
C586 C590 1.524 1_456 S
C587 C579 1.503 1_556 S
C587 C586 1.370 . S
C587 C588 1.403 . S
C588 C587 1.403 . S
C588 C589 1.404 . S
C588 C591 1.539 . S
C589 C585 1.408 . S
C589 C588 1.404 . S
C589 H601 0.930 . S
C590 C586 1.524 1_654 S
C590 H602 0.956 . S
C590 H603 0.961 . S
C590 H604 0.961 1_554 S
C591 C588 1.539 . S
C591 H605 0.958 . S
C591 H606 0.961 . S
C591 H607 0.960 1_556 S
H592 C576 0.931 . S
H593 C581 0.929 . S
H594 C582 0.960 . S
H595 C582 0.962 . S
H596 C582 0.960 . S
H597 C583 0.961 . S
H598 C583 0.961 . S
H599 C583 0.961 . S
H600 C584 0.931 1_655 S
H601 C589 0.930 . S
H602 C590 0.956 . S
H603 C590 0.961 . S
H604 C590 0.961 1_556 S
H605 C591 0.958 . S
H606 C591 0.961 . S
H607 C591 0.960 1_554 S
C608 C609 1.391 . S
C608 C610 1.394 . S
C608 H624 0.931 . S
C609 C608 1.391 . S
C609 C613 1.376 . S
C610 C608 1.394 . S
C610 C611 1.369 . S
C610 C614 1.531 . S
C611 C610 1.369 . S
C611 C612 1.410 . S
C611 C619 1.503 . S
C612 C611 1.410 . S
C612 C613 1.392 . S
C612 C615 1.511 . S
C613 C609 1.376 . S
C613 C612 1.392 . S
C613 H625 0.929 . S
C614 C610 1.531 . S
C614 H626 0.960 . S
C614 H627 0.962 1_545 S
C614 H628 0.960 . S
C615 C612 1.511 . S
C615 H629 0.961 . S
C615 H630 0.961 . S
C615 H631 0.961 . S
C616 C617 1.370 . S
C616 C618 1.363 . S
C616 H632 0.931 1_545 S
C617 C616 1.370 . S
C617 C621 1.408 . S
C618 C616 1.363 . S
C618 C619 1.370 . S
C618 C622 1.524 1_545 S
C619 C611 1.503 . S
C619 C618 1.370 . S
C619 C620 1.403 . S
C620 C619 1.403 . S
C620 C621 1.404 . S
C620 C623 1.539 . S
C621 C617 1.408 . S
C621 C620 1.404 . S
C621 H633 0.930 . S
C622 C618 1.524 1_565 S
C622 H634 0.956 . S
C622 H635 0.961 . S
C622 H636 0.961 . S
C623 C620 1.539 . S
C623 H637 0.958 . S
C623 H638 0.961 . S
C623 H639 0.960 . S
H624 C608 0.931 . S
H625 C613 0.929 . S
H626 C614 0.960 . S
H627 C614 0.962 1_565 S
H628 C614 0.960 . S
H629 C615 0.961 . S
H630 C615 0.961 . S
H631 C615 0.961 . S
H632 C616 0.931 1_565 S
H633 C621 0.930 . S
H634 C622 0.956 . S
H635 C622 0.961 . S
H636 C622 0.961 . S
H637 C623 0.958 . S
H638 C623 0.961 . S
H639 C623 0.960 . S
C640 C641 1.391 . S
C640 C642 1.394 . S
C640 H656 0.931 . S
C641 C640 1.391 . S
C641 C645 1.376 . S
C642 C640 1.394 . S
C642 C643 1.369 . S
C642 C646 1.531 . S
C643 C642 1.369 . S
C643 C644 1.410 . S
C643 C651 1.503 . S
C644 C643 1.410 . S
C644 C645 1.392 . S
C644 C647 1.511 . S
C645 C641 1.376 . S
C645 C644 1.392 . S
C645 H657 0.929 . S
C646 C642 1.531 . S
C646 H658 0.960 . S
C646 H659 0.962 . S
C646 H660 0.960 . S
C647 C644 1.511 . S
C647 H661 0.961 . S
C647 H662 0.961 . S
C647 H663 0.961 . S
C648 C649 1.370 . S
C648 C650 1.363 . S
C648 H664 0.931 . S
C649 C648 1.370 . S
C649 C653 1.408 . S
C650 C648 1.363 . S
C650 C651 1.370 . S
C650 C654 1.524 . S
C651 C643 1.503 . S
C651 C650 1.370 . S
C651 C652 1.403 . S
C652 C651 1.403 . S
C652 C653 1.404 . S
C652 C655 1.539 . S
C653 C649 1.408 . S
C653 C652 1.404 . S
C653 H665 0.930 . S
C654 C650 1.524 . S
C654 H666 0.956 . S
C654 H667 0.961 . S
C654 H668 0.961 . S
C655 C652 1.539 . S
C655 H669 0.958 . S
C655 H670 0.961 . S
C655 H671 0.960 . S
H656 C640 0.931 . S
H657 C645 0.929 . S
H658 C646 0.960 . S
H659 C646 0.962 . S
H660 C646 0.960 . S
H661 C647 0.961 . S
H662 C647 0.961 . S
H663 C647 0.961 . S
H664 C648 0.931 . S
H665 C653 0.930 . S
H666 C654 0.956 . S
H667 C654 0.961 . S
H668 C654 0.961 . S
H669 C655 0.958 . S
H670 C655 0.961 . S
H671 C655 0.960 . S
C672 C673 1.391 . S
C672 C674 1.394 . S
C672 H688 0.931 . S
C673 C672 1.391 . S
C673 C677 1.376 . S
C674 C672 1.394 . S
C674 C675 1.369 . S
C674 C678 1.531 . S
C675 C674 1.369 . S
C675 C676 1.410 . S
C675 C683 1.503 . S
C676 C675 1.410 . S
C676 C677 1.392 . S
C676 C679 1.511 1_545 S
C677 C673 1.376 . S
C677 C676 1.392 . S
C677 H689 0.929 1_545 S
C678 C674 1.531 . S
C678 H690 0.960 . S
C678 H691 0.962 . S
C678 H692 0.960 . S
C679 C676 1.511 1_565 S
C679 H693 0.961 . S
C679 H694 0.961 . S
C679 H695 0.961 . S
C680 C681 1.370 1_565 S
C680 C682 1.363 . S
C680 H696 0.931 . S
C681 C680 1.370 1_545 S
C681 C685 1.408 . S
C682 C680 1.363 . S
C682 C683 1.370 1_565 S
C682 C686 1.524 . S
C683 C675 1.503 . S
C683 C682 1.370 1_545 S
C683 C684 1.403 . S
C684 C683 1.403 . S
C684 C685 1.404 . S
C684 C687 1.539 . S
C685 C681 1.408 . S
C685 C684 1.404 . S
C685 H697 0.930 . S
C686 C682 1.524 . S
C686 H698 0.956 . S
C686 H699 0.961 . S
C686 H700 0.961 . S
C687 C684 1.539 . S
C687 H701 0.958 . S
C687 H702 0.961 . S
C687 H703 0.960 . S
H688 C672 0.931 . S
H689 C677 0.929 1_565 S
H690 C678 0.960 . S
H691 C678 0.962 . S
H692 C678 0.960 . S
H693 C679 0.961 . S
H694 C679 0.961 . S
H695 C679 0.961 . S
H696 C680 0.931 . S
H697 C685 0.930 . S
H698 C686 0.956 . S
H699 C686 0.961 . S
H700 C686 0.961 . S
H701 C687 0.958 . S
H702 C687 0.961 . S
H703 C687 0.960 . S
C704 C705 1.391 . S
C704 C706 1.394 . S
C704 H720 0.931 . S
C705 C704 1.391 . S
C705 C709 1.376 . S
C706 C704 1.394 . S
C706 C707 1.369 . S
C706 C710 1.531 . S
C707 C706 1.369 . S
C707 C708 1.410 . S
C707 C715 1.503 . S
C708 C707 1.410 . S
C708 C709 1.392 . S
C708 C711 1.511 . S
C709 C705 1.376 . S
C709 C708 1.392 . S
C709 H721 0.929 . S
C710 C706 1.531 . S
C710 H722 0.960 . S
C710 H723 0.962 . S
C710 H724 0.960 . S
C711 C708 1.511 . S
C711 H725 0.961 . S
C711 H726 0.961 . S
C711 H727 0.961 . S
C712 C713 1.370 . S
C712 C714 1.363 . S
C712 H728 0.931 . S
C713 C712 1.370 . S
C713 C717 1.408 . S
C714 C712 1.363 . S
C714 C715 1.370 1_554 S
C714 C718 1.524 1_554 S
C715 C707 1.503 . S
C715 C714 1.370 1_556 S
C715 C716 1.403 1_556 S
C716 C715 1.403 1_554 S
C716 C717 1.404 . S
C716 C719 1.539 1_554 S
C717 C713 1.408 . S
C717 C716 1.404 . S
C717 H729 0.930 . S
C718 C714 1.524 1_556 S
C718 H730 0.956 . S
C718 H731 0.961 . S
C718 H732 0.961 . S
C719 C716 1.539 1_556 S
C719 H733 0.958 . S
C719 H734 0.961 1_556 S
C719 H735 0.960 . S
H720 C704 0.931 . S
H721 C709 0.929 . S
H722 C710 0.960 . S
H723 C710 0.962 . S
H724 C710 0.960 . S
H725 C711 0.961 . S
H726 C711 0.961 . S
H727 C711 0.961 . S
H728 C712 0.931 . S
H729 C717 0.930 . S
H730 C718 0.956 . S
H731 C718 0.961 . S
H732 C718 0.961 . S
H733 C719 0.958 . S
H734 C719 0.961 1_554 S
H735 C719 0.960 . S
C736 C737 1.391 . S
C736 C738 1.394 . S
C736 H752 0.931 1_455 S
C737 C736 1.391 . S
C737 C741 1.376 . S
C738 C736 1.394 . S
C738 C739 1.369 . S
C738 C742 1.531 1_455 S
C739 C738 1.369 . S
C739 C740 1.410 . S
C739 C747 1.503 . S
C740 C739 1.410 . S
C740 C741 1.392 . S
C740 C743 1.511 . S
C741 C737 1.376 . S
C741 C740 1.392 . S
C741 H753 0.929 . S
C742 C738 1.531 1_655 S
C742 H754 0.960 . S
C742 H755 0.962 . S
C742 H756 0.960 . S
C743 C740 1.511 . S
C743 H757 0.961 . S
C743 H758 0.961 . S
C743 H759 0.961 . S
C744 C745 1.370 . S
C744 C746 1.363 . S
C744 H760 0.931 . S
C745 C744 1.370 . S
C745 C749 1.409 . S
C746 C744 1.363 . S
C746 C747 1.370 . S
C746 C750 1.524 . S
C747 C739 1.503 . S
C747 C746 1.370 . S
C747 C748 1.403 . S
C748 C747 1.403 . S
C748 C749 1.404 . S
C748 C751 1.539 1_455 S
C749 C745 1.409 . S
C749 C748 1.404 . S
C749 H761 0.930 1_455 S
C750 C746 1.524 . S
C750 H762 0.956 . S
C750 H763 0.961 . S
C750 H764 0.961 . S
C751 C748 1.539 1_655 S
C751 H765 0.958 . S
C751 H766 0.961 . S
C751 H767 0.960 1_655 S
H752 C736 0.931 1_655 S
H753 C741 0.929 . S
H754 C742 0.960 . S
H755 C742 0.962 . S
H756 C742 0.960 . S
H757 C743 0.961 . S
H758 C743 0.961 . S
H759 C743 0.961 . S
H760 C744 0.931 . S
H761 C749 0.930 1_655 S
H762 C750 0.956 . S
H763 C750 0.961 . S
H764 C750 0.961 . S
H765 C751 0.958 . S
H766 C751 0.961 . S
H767 C751 0.960 1_455 S
C193 C7 0.771 . S
C201 C186 0.865 . S
C225 C51 1.952 . S
C233 C160 1.889 . S
C257 C87 1.296 . S
C265 C172 1.283 . S
C289 C16 0.444 . S
C297 C184 0.327 . S
C329 C162 1.837 . S
C321 C42 1.863 . S
C361 C174 1.157 . S
C353 C96 1.166 . S
C385 C47 1.297 . S
C393 C136 1.279 . S
C417 C91 3.352 . S
C425 C150 3.331 . S
C449 C2 1.882 . S
C457 C126 1.870 . S
C489 C138 1.163 . S
C481 C56 1.167 . S
C521 C148 2.697 . S
C513 C82 2.791 . S
C545 C11 1.965 . S
C553 C124 1.897 . S
C585 C153 1.772 . S
C577 C19 1.713 . S
C609 C50 1.432 . S
C617 C129 1.480 . S
C641 C99 1.487 . S
C649 C141 1.525 . S
C681 C177 1.523 . S
C673 C59 1.499 . S
C713 C189 1.253 . S
C705 C90 1.240 . S
C737 C10 1.386 . S
C745 C165 1.446 . S
