# Generated by pormake.
# Topology anh, (6,3)-cn, num edge types: 1
# Building blocks:
#     Node 0, Type 0, BuildingBlock: BETDIP_clean_sbu_0, # of connection points: 6
#     Node 1, Type 0, BuildingBlock: BETDIP_clean_sbu_0, # of connection points: 6
#     Node 2, Type 0, BuildingBlock: BETDIP_clean_sbu_0, # of connection points: 6
#     Node 3, Type 1, BuildingBlock: PAMTOO_clean_linker_0, # of connection points: 3
#     Node 4, Type 1, BuildingBlock: PAMTOO_clean_linker_0, # of connection points: 3
#     Node 5, Type 1, BuildingBlock: PAMTOO_clean_linker_0, # of connection points: 3
#     Node 6, Type 1, BuildingBlock: PAMTOO_clean_linker_0, # of connection points: 3
#     Node 7, Type 1, BuildingBlock: PAMTOO_clean_linker_0, # of connection points: 3
#     Node 8, Type 1, BuildingBlock: PAMTOO_clean_linker_0, # of connection points: 3
#     Edge 9, Type (0, 1), BuildingBlock: XUDNAN_clean_linker_2, # of connection points: 2
#     Edge 10, Type (0, 1), BuildingBlock: XUDNAN_clean_linker_2, # of connection points: 2
#     Edge 11, Type (0, 1), BuildingBlock: XUDNAN_clean_linker_2, # of connection points: 2
#     Edge 12, Type (0, 1), BuildingBlock: XUDNAN_clean_linker_2, # of connection points: 2
#     Edge 13, Type (0, 1), BuildingBlock: XUDNAN_clean_linker_2, # of connection points: 2
#     Edge 14, Type (0, 1), BuildingBlock: XUDNAN_clean_linker_2, # of connection points: 2
#     Edge 15, Type (0, 1), BuildingBlock: XUDNAN_clean_linker_2, # of connection points: 2
#     Edge 16, Type (0, 1), BuildingBlock: XUDNAN_clean_linker_2, # of connection points: 2
#     Edge 17, Type (0, 1), BuildingBlock: XUDNAN_clean_linker_2, # of connection points: 2
#     Edge 18, Type (0, 1), BuildingBlock: XUDNAN_clean_linker_2, # of connection points: 2
#     Edge 19, Type (0, 1), BuildingBlock: XUDNAN_clean_linker_2, # of connection points: 2
#     Edge 20, Type (0, 1), BuildingBlock: XUDNAN_clean_linker_2, # of connection points: 2
#     Edge 21, Type (0, 1), BuildingBlock: XUDNAN_clean_linker_2, # of connection points: 2
#     Edge 22, Type (0, 1), BuildingBlock: XUDNAN_clean_linker_2, # of connection points: 2
#     Edge 23, Type (0, 1), BuildingBlock: XUDNAN_clean_linker_2, # of connection points: 2
#     Edge 24, Type (0, 1), BuildingBlock: XUDNAN_clean_linker_2, # of connection points: 2
#     Edge 25, Type (0, 1), BuildingBlock: XUDNAN_clean_linker_2, # of connection points: 2
#     Edge 26, Type (0, 1), BuildingBlock: XUDNAN_clean_linker_2, # of connection points: 2
# Relax obj value: 0.251
# Max RMSD: 0.147
# Mean RMSD: 0.114
data_MOF--net-anh--node1-BETDIP_clean_sbu_0--node2-PAMTOO_clean_linker_0--edge1-XUDNAN_clean_linker_2
_symmetry_space_group_name_H-M    P1
_symmetry_Int_Tables_number       1
_symmetry_cell_setting            triclinic
loop_
_symmetry_equiv_pos_as_xyz
'x, y, z'
_cell_length_a     31.475752
_cell_length_b     31.477353
_cell_length_c     49.114036
_cell_angle_alpha  85.998179
_cell_angle_beta   92.302517
_cell_angle_gamma 119.74436
loop_
_atom_site_label
_atom_site_type_symbol
_atom_site_fract_x
_atom_site_fract_y
_atom_site_fract_z
_atom_type_partial_charge
Tb0 Tb 0.18511 0.60268 0.15503 0.0
Tb1 Tb 0.13747 0.49662 0.16386 0.0
C2 C 0.23338 0.69291 0.16222 0.0
C3 C 0.2805 0.73929 0.15974 0.0
C4 C 0.31212 0.75606 0.18235 0.0
C5 C 0.34944 0.80498 0.18262 0.0
C6 C 0.35547 0.83824 0.16042 0.0
C7 C 0.32623 0.82036 0.137 0.0
C8 C 0.28918 0.7715 0.13668 0.0
C9 C 0.16411 0.55472 0.11043 0.0
C10 C 0.25617 0.5511 0.15831 0.0
C11 C 1.08611 0.40663 0.15642 0.0
C12 C 1.03369 0.37134 0.15616 0.0
C13 C 1.01619 0.32885 0.14174 0.0
C14 C 0.96589 0.29665 0.13967 0.0
C15 C 0.93257 0.3069 0.15183 0.0
C16 C 0.9505 0.34943 0.16649 0.0
C17 C 1.00065 0.38141 0.1686 0.0
C18 C 0.15806 0.54121 0.21017 0.0
C19 C 1.06685 0.54778 0.15386 0.0
O20 O 0.22879 0.6591 0.18097 0.0
O21 O 0.20931 0.67453 0.13975 0.0
O22 O 0.18026 0.54621 0.13253 0.0
O23 O 0.16155 0.59438 0.11176 0.0
O24 O 0.25355 0.59287 0.15689 0.0
O25 O 0.21381 0.50864 0.16015 0.0
O26 O 0.10048 0.44094 0.13678 0.0
O27 O 0.10543 0.42395 0.18003 0.0
O28 O 0.14247 0.55319 0.18832 0.0
O29 O 0.16054 0.50214 0.20636 0.0
O30 O 1.07079 0.50701 0.15661 0.0
O31 O 0.10816 0.59093 0.15447 0.0
H32 H 0.30618 0.73228 0.20053 0.0
H33 H 0.37187 0.81733 0.20081 0.0
H34 H 0.32926 0.84482 0.11963 0.0
H35 H 0.26514 0.76002 0.11904 0.0
H36 H 1.0414 0.32096 0.13178 0.0
H37 H 0.95306 0.26424 0.12822 0.0
H38 H 0.92576 0.35781 0.17656 0.0
H39 H 1.0136 0.41415 0.17976 0.0
Tb40 Tb 0.68806 0.07034 0.48867 0.0
Tb41 Tb 0.63179 0.11807 0.49159 0.0
C42 C 0.72578 1.01672 0.49795 0.0
C43 C 0.71802 0.96782 0.4926 0.0
C44 C 0.71672 0.93669 0.51478 0.0
C45 C 0.71862 0.8943 0.51053 0.0
C46 C 0.72216 0.88229 0.48396 0.0
C47 C 0.72032 0.91186 0.46166 0.0
C48 C 0.71818 0.95424 0.46592 0.0
C49 C 0.66056 0.09227 0.44077 0.0
C50 C 0.5664 1.00001 0.48839 0.0
C51 C 0.60078 0.17768 0.48476 0.0
C52 C 0.62636 0.22888 0.49223 0.0
C53 C 0.61199 0.26244 0.48168 0.0
C54 C 0.6394 0.31185 0.48787 0.0
C55 C 0.68186 0.32793 0.50406 0.0
C56 C 0.69569 0.2941 0.51473 0.0
C57 C 0.6679 0.24497 0.50912 0.0
C58 C 0.65701 0.09637 0.54076 0.0
C59 C 0.75325 0.18706 0.48593 0.0
O60 O 0.69582 1.01882 0.51489 0.0
O61 O 0.73706 1.04851 0.47708 0.0
O62 O 0.63598 0.07563 0.46207 0.0
O63 O 0.7025 0.09462 0.445 0.0
O64 O 0.61073 1.00344 0.4918 0.0
O65 O 0.56585 1.04249 0.48541 0.0
O66 O 0.6219 0.16826 0.46548 0.0
O67 O 0.58823 0.14532 0.50538 0.0
O68 O 0.6839 0.11294 0.51978 0.0
O69 O 0.61516 0.09269 0.53435 0.0
O70 O 0.70912 0.18378 0.48227 0.0
O71 O 0.75313 0.14527 0.49265 0.0
H72 H 0.71694 0.94653 0.53551 0.0
H73 H 0.72073 0.87282 0.52821 0.0
H74 H 0.72263 0.90333 0.44097 0.0
H75 H 0.71898 0.97744 0.44836 0.0
H76 H 0.58005 0.25058 0.46857 0.0
H77 H 0.6281 0.33757 0.47966 0.0
H78 H 0.72788 0.30569 0.52763 0.0
H79 H 0.67919 0.21953 0.51783 0.0
Tb80 Tb 0.67359 0.62634 0.82334 0.0
Tb81 Tb 0.77863 0.68303 0.82743 0.0
C82 C 0.58458 0.58387 0.83495 0.0
C83 C 0.53736 0.58272 0.8342 0.0
C84 C 0.50952 0.56625 0.85806 0.0
C85 C 0.45961 0.55032 0.85694 0.0
C86 C 0.43653 0.5508 0.83186 0.0
C87 C 0.46555 0.5719 0.80838 0.0
C88 C 0.51564 0.58757 0.8095 0.0
C89 C 0.7181 0.6555 0.77614 0.0
C90 C 0.72476 0.7483 0.8219 0.0
C91 C 0.86781 0.71451 0.82085 0.0
C92 C 0.89399 0.68833 0.83025 0.0
C93 C 0.91599 0.67433 0.81113 0.0
C94 C 0.92648 0.63663 0.818 0.0
C95 C 0.91492 0.61238 0.84407 0.0
C96 C 0.89682 0.62949 0.86379 0.0
C97 C 0.88662 0.6671 0.857 0.0
C98 C 0.73625 0.65263 0.87599 0.0
C99 C 0.7277 0.56276 0.82054 0.0
O100 O 0.61899 0.61284 0.85153 0.0
O101 O 0.60143 0.57955 0.81199 0.0
O102 O 0.72862 0.67952 0.79704 0.0
O103 O 0.67837 0.61388 0.78034 0.0
O104 O 0.68332 0.70422 0.82335 0.0
O105 O 0.76732 0.74836 0.82151 0.0
O106 O 0.83501 0.69284 0.80189 0.0
O107 O 0.85098 0.72909 0.83997 0.0
O108 O 0.72391 0.62831 0.85477 0.0
O109 O 0.77493 0.69425 0.87042 0.0
O110 O 0.76791 0.60738 0.81968 0.0
O111 O 0.68507 0.56076 0.82472 0.0
H112 H 0.52549 0.56181 0.87727 0.0
H113 H 0.43866 0.53387 0.87544 0.0
H114 H 0.44911 0.57375 0.78885 0.0
H115 H 0.53652 0.60036 0.79078 0.0
H116 H 0.92159 0.68991 0.79033 0.0
H117 H 0.94137 0.62492 0.80252 0.0
H118 H 0.88688 0.61144 0.88396 0.0
H119 H 0.86912 0.67651 0.87219 0.0
H120 H 0.62976 0.1402 0.24107 0.0
H121 H 0.52006 0.17795 0.25918 0.0
H122 H 0.57395 0.20093 0.1777 0.0
H123 H 0.45339 0.1972 0.18554 0.0
C124 C 0.46354 0.17674 0.20134 0.0
O125 O 0.51196 0.2065 0.20883 0.0
H126 H 0.43988 0.16922 0.21929 0.0
C127 C 0.60513 0.15372 0.23451 0.0
C128 C 0.60549 0.17 0.20713 0.0
C129 C 0.57502 0.15684 0.2537 0.0
C130 C 0.54351 0.17481 0.24486 0.0
C131 C 0.54272 0.18982 0.21742 0.0
C132 C 0.57402 0.18799 0.19873 0.0
H133 H 0.82924 0.71878 0.58503 0.0
H134 H 0.94135 0.68823 0.61538 0.0
H135 H 0.90944 0.68456 0.52943 0.0
H136 H 0.95164 0.61746 0.59829 0.0
C137 C 0.95153 0.62215 0.57564 0.0
O138 O 0.96125 0.66929 0.56788 0.0
H139 H 0.982 0.6176 0.56848 0.0
C140 C 0.85682 0.70901 0.581 0.0
C141 C 0.86637 0.70349 0.55412 0.0
C142 C 0.88343 0.70327 0.60301 0.0
C143 C 0.92105 0.69332 0.59835 0.0
C144 C 0.92947 0.68539 0.57186 0.0
C145 C 0.90247 0.69076 0.54979 0.0
H146 H 0.96017 0.35553 0.9561 0.0
H147 H 1.0968 0.36544 0.93638 0.0
H148 H 0.99461 0.34884 0.87302 0.0
H149 H 1.06584 0.30308 0.86211 0.0
C150 C 1.09335 0.32826 0.87665 0.0
O151 O 1.0797 0.36103 0.8842 0.0
H152 H 1.09591 0.30641 0.89481 0.0
C153 C 0.98353 0.35306 0.9414 0.0
C154 C 0.97133 0.35178 0.91347 0.0
C155 C 1.02933 0.3594 0.94994 0.0
C156 C 1.0601 0.35761 0.93069 0.0
C157 C 1.04605 0.35148 0.90323 0.0
C158 C 1.00154 0.34765 0.89476 0.0
H159 H 1.05685 0.49727 0.40875 0.0
H160 H 0.19433 0.63057 0.41304 0.0
H161 H 0.11875 0.5536 0.48768 0.0
H162 H 0.20349 0.6927 0.48168 0.0
C163 C 0.22364 0.68707 0.46555 0.0
O164 O 0.20551 0.63497 0.46547 0.0
H165 H 0.21245 0.69878 0.44599 0.0
C166 C 1.08442 0.52458 0.42144 0.0
C167 C 1.07901 0.51836 0.45022 0.0
C168 C 0.12508 0.56473 0.40817 0.0
C169 C 0.16299 0.60085 0.4236 0.0
C170 C 0.16259 0.59931 0.45224 0.0
C171 C 0.11983 0.55691 0.46561 0.0
H172 H 0.70866 1.04685 0.74443 0.0
H173 H 0.71725 0.18733 0.74332 0.0
H174 H 0.72334 0.11509 0.82057 0.0
H175 H 0.66815 0.19814 0.81407 0.0
C176 C 0.69406 0.2197 0.79726 0.0
O177 O 0.72732 0.2009 0.79569 0.0
H178 H 0.67161 0.21103 0.77828 0.0
C179 C 0.71025 0.07572 0.75598 0.0
C180 C 0.71421 0.0726 0.7847 0.0
C181 C 0.71124 0.11631 0.74125 0.0
C182 C 0.71517 0.15599 0.75514 0.0
C183 C 0.71832 0.15708 0.78386 0.0
C184 C 0.71869 0.11476 0.79863 0.0
H185 H 0.7738 0.57628 0.07752 0.0
H186 H 0.63321 0.56727 0.08089 0.0
H187 H 0.70191 0.54972 0.15546 0.0
H188 H 0.61425 0.61254 0.11803 0.0
C189 C 0.601 0.58546 0.13581 0.0
O190 O 0.61826 0.55131 0.13296 0.0
H191 H 0.61967 0.60655 0.15394 0.0
C192 C 0.74434 0.57275 0.08987 0.0
C193 C 0.74577 0.56376 0.1185 0.0
C194 C 0.70394 0.57324 0.07633 0.0
C195 C 0.66401 0.56724 0.09158 0.0
C196 C 0.66206 0.56065 0.12017 0.0
C197 C 0.70329 0.55762 0.13362 0.0
H198 H 0.3591 0.62697 0.14803 0.0
H199 H 0.26856 0.46985 0.16264 0.0
H200 H 0.34084 0.46009 0.1584 0.0
H201 H 0.44022 0.62173 0.09786 0.0
H202 H 0.49513 0.67392 0.10953 0.0
H203 H 0.43644 0.66948 0.11397 0.0
H204 H 0.45306 0.67868 0.16567 0.0
H205 H 0.51183 0.68327 0.16135 0.0
H206 H 0.46844 0.63738 0.18511 0.0
H207 H 0.42896 0.46651 0.1524 0.0
H208 H 0.51603 0.48959 0.14569 0.0
H209 H 0.55298 0.64159 0.13434 0.0
C210 C 0.35408 0.59033 0.15049 0.0
C211 C 0.3055 0.5492 0.15593 0.0
C212 C 0.30338 0.50261 0.15861 0.0
C213 C 0.34518 0.49648 0.15616 0.0
C214 C 0.39171 0.53709 0.1508 0.0
C215 C 0.39634 0.58337 0.148 0.0
C216 C 0.45086 0.62097 0.14218 0.0
C217 C 0.45596 0.64816 0.11423 0.0
C218 C 0.47232 0.65725 0.16492 0.0
C219 C 0.47589 0.58907 0.14209 0.0
C220 C 0.44105 0.54056 0.14716 0.0
C221 C 0.45587 0.50466 0.1483 0.0
C222 C 0.50623 0.51812 0.14432 0.0
C223 C 0.54348 0.56762 0.13884 0.0
C224 C 0.52665 0.60312 0.13797 0.0
H225 H 0.79424 0.27434 0.44773 0.0
H226 H 0.83152 0.217 0.52185 0.0
H227 H 0.91237 0.29231 0.52267 0.0
H228 H 0.91855 0.3302 0.41836 0.0
H229 H 0.91705 0.38246 0.40193 0.0
H230 H 0.86089 0.32543 0.40782 0.0
H231 H 0.82668 0.37023 0.43341 0.0
H232 H 0.88294 0.42753 0.42833 0.0
H233 H 0.85964 0.40453 0.46226 0.0
H234 H 0.99531 0.38062 0.51556 0.0
H235 H 1.0657 0.46017 0.49945 0.0
H236 H 0.98057 0.4618 0.42821 0.0
C237 C 0.81896 0.27752 0.46442 0.0
C238 C 0.80369 0.23758 0.48519 0.0
C239 C 0.83986 0.24525 0.50574 0.0
C240 C 0.88686 0.28886 0.50638 0.0
C241 C 0.90059 0.32687 0.48588 0.0
C242 C 0.86757 0.32113 0.46495 0.0
C243 C 0.89285 0.36637 0.44445 0.0
C244 C 0.89759 0.35015 0.41647 0.0
C245 C 0.86381 0.39382 0.44193 0.0
C246 C 0.94433 0.39872 0.45718 0.0
C247 C 0.94796 0.3753 0.48126 0.0
C248 C 0.99195 0.39837 0.49658 0.0
C249 C 1.03259 0.44475 0.48722 0.0
C250 C 1.03164 0.47003 0.46211 0.0
C251 C 0.98523 0.4453 0.44732 0.0
H252 H 0.66502 0.7847 0.7924 0.0
H253 H 0.78825 0.83173 0.8481 0.0
H254 H 0.79582 0.9138 0.84747 0.0
H255 H 0.71748 0.90191 0.75139 0.0
H256 H 0.65986 0.90007 0.74483 0.0
H257 H 0.6616 0.84381 0.75091 0.0
H258 H 0.59986 0.8177 0.79011 0.0
H259 H 0.59809 0.87399 0.78418 0.0
H260 H 0.61337 0.85775 0.81758 0.0
H261 H 0.78933 0.99642 0.84124 0.0
H262 H 0.77567 0.06581 0.82633 0.0
H263 H 0.66123 0.97118 0.77163 0.0
C264 C 0.69334 0.81187 0.80481 0.0
C265 C 0.72551 0.79915 0.8209 0.0
C266 C 0.76247 0.83822 0.83581 0.0
C267 C 0.76711 0.88589 0.83558 0.0
C268 C 0.73531 0.89708 0.81973 0.0
C269 C 0.69943 0.86104 0.80422 0.0
C270 C 0.67195 0.88382 0.78759 0.0
C271 C 0.67807 0.88229 0.75685 0.0
C272 C 0.61757 0.85668 0.79531 0.0
C273 C 0.69733 0.9376 0.79619 0.0
C274 C 0.73347 0.94434 0.81511 0.0
C275 C 0.76105 0.9907 0.82629 0.0
C276 C 0.75265 1.03062 0.81779 0.0
C277 C 0.71711 1.0263 0.79759 0.0
C278 C 0.68901 0.97774 0.78706 0.0
H279 H 1.03307 0.61157 0.12697 0.0
H280 H 0.97802 0.4747 0.17552 0.0
H281 H 0.89545 0.46611 0.17435 0.0
H282 H 0.95523 0.65475 0.15455 0.0
H283 H 0.94431 0.67843 0.12217 0.0
H284 H 0.99978 0.67545 0.12771 0.0
H285 H 0.98042 0.62447 0.08544 0.0
H286 H 0.92504 0.62753 0.0797 0.0
H287 H 0.9224 0.56888 0.08311 0.0
H288 H 0.81348 0.47447 0.16938 0.0
H289 H 0.74663 0.49224 0.15616 0.0
H290 H 0.84916 0.61898 0.10667 0.0
C291 C 1.0039 0.57973 0.13757 0.0
C292 C 1.0146 0.54412 0.15183 0.0
C293 C 0.97317 0.50308 0.16457 0.0
C294 C 0.92519 0.49789 0.16406 0.0
C295 C 0.91618 0.53337 0.15011 0.0
C296 C 0.95461 0.57318 0.13657 0.0
C297 C 0.93433 0.60455 0.12159 0.0
C298 C 0.95996 0.65639 0.13212 0.0
C299 C 0.94096 0.6065 0.09062 0.0
C300 C 0.87915 0.57702 0.12898 0.0
C301 C 0.86955 0.53631 0.14588 0.0
C302 C 0.82152 0.50628 0.15596 0.0
C303 C 0.78303 0.51703 0.14845 0.0
C304 C 0.79036 0.55742 0.13023 0.0
C305 C 0.84038 0.58764 0.12064 0.0
H306 H 0.4632 0.97028 0.47765 0.0
H307 H 0.55709 0.90696 0.49336 0.0
H308 H 0.48559 0.82418 0.48955 0.0
H309 H 0.35599 0.87266 0.51516 0.0
H310 H 0.31162 0.87388 0.49123 0.0
H311 H 0.37007 0.92833 0.49523 0.0
H312 H 0.38554 0.93393 0.44359 0.0
H313 H 0.32714 0.87947 0.43946 0.0
H314 H 0.38215 0.88213 0.42802 0.0
H315 H 0.3967 0.74096 0.48358 0.0
H316 H 0.30974 0.67674 0.4767 0.0
H317 H 0.27094 0.7907 0.46462 0.0
C318 C 0.46918 0.93924 0.48041 0.0
C319 C 0.51836 0.94778 0.48605 0.0
C320 C 0.52171 0.90399 0.48917 0.0
C321 C 0.48036 0.85571 0.48697 0.0
C322 C 0.4331 0.84876 0.48146 0.0
C323 C 0.42751 0.88986 0.47822 0.0
C324 C 0.37267 0.87237 0.47235 0.0
C325 C 0.35132 0.88774 0.49482 0.0
C326 C 0.36651 0.89323 0.44419 0.0
C327 C 0.34832 0.81566 0.47274 0.0
C328 C 0.38379 0.80251 0.47805 0.0
C329 C 0.3694 0.75194 0.4794 0.0
C330 C 0.31901 0.71484 0.47538 0.0
C331 C 0.28111 0.72662 0.4698 0.0
C332 C 0.29757 0.77877 0.46864 0.0
H333 H 0.65773 0.45798 0.82875 0.0
H334 H 0.80648 0.55571 0.80194 0.0
H335 H 0.81514 0.48378 0.79329 0.0
H336 H 0.68163 0.36427 0.8641 0.0
H337 H 0.62448 0.31292 0.85401 0.0
H338 H 0.62883 0.37162 0.85742 0.0
H339 H 0.59788 0.37079 0.80792 0.0
H340 H 0.59334 0.31205 0.8044 0.0
H341 H 0.62931 0.36272 0.78058 0.0
H342 H 0.8094 0.39541 0.78845 0.0
H343 H 0.7864 0.30779 0.78564 0.0
H344 H 0.64307 0.26484 0.81657 0.0
C345 C 0.69259 0.4648 0.82132 0.0
C346 C 0.73147 0.51503 0.81633 0.0
C347 C 0.77571 0.5195 0.80642 0.0
C348 C 0.78131 0.47808 0.80155 0.0
C349 C 0.74311 0.42986 0.80708 0.0
C350 C 0.69932 0.42317 0.81677 0.0
C351 C 0.66359 0.3673 0.82076 0.0
C352 C 0.64873 0.35319 0.85086 0.0
C353 C 0.61833 0.35233 0.80233 0.0
C354 C 0.69367 0.34366 0.812 0.0
C355 C 0.73968 0.38043 0.8041 0.0
C356 C 0.77331 0.36704 0.79488 0.0
C357 C 0.75999 0.31628 0.79347 0.0
C358 C 0.7131 0.27699 0.80158 0.0
C359 C 0.67987 0.29248 0.8108 0.0
H360 H 0.6842 0.79163 0.51057 0.0
H361 H 0.79174 0.88766 0.45026 0.0
H362 H 0.82868 0.83459 0.4532 0.0
H363 H 0.75967 0.78025 0.55327 0.0
H364 H 0.72236 0.71676 0.56457 0.0
H365 H 0.69384 0.75091 0.55116 0.0
H366 H 0.64792 0.68706 0.51489 0.0
H367 H 0.6761 0.65215 0.52845 0.0
H368 H 0.68186 0.67155 0.49273 0.0
H369 H 0.86837 0.78856 0.47244 0.0
H370 H 0.9047 0.75229 0.50495 0.0
H371 H 0.77047 0.68156 0.55168 0.0
C372 C 0.71419 0.80015 0.49714 0.0
C373 C 0.73496 0.84362 0.48015 0.0
C374 C 0.77457 0.85408 0.46306 0.0
C375 C 0.7959 0.82408 0.46464 0.0
C376 C 0.7767 0.78325 0.48302 0.0
C377 C 0.73589 0.77054 0.49855 0.0
C378 C 0.72737 0.73015 0.51998 0.0
C379 C 0.72579 0.74549 0.54892 0.0
C380 C 0.68053 0.68239 0.51362 0.0
C381 C 0.77241 0.72573 0.51591 0.0
C382 C 0.79965 0.7555 0.49396 0.0
C383 C 0.84657 0.7637 0.48904 0.0
C384 C 0.86697 0.7428 0.50764 0.0
C385 C 0.84056 0.71427 0.53099 0.0
C386 C 0.79169 0.70345 0.53412 0.0
H387 H 0.94202 0.5823 0.89203 0.0
H388 H 0.89182 0.53855 0.80983 0.0
H389 H 0.88397 0.45744 0.82193 0.0
H390 H 1.01543 0.52799 0.89953 0.0
H391 H 1.00219 0.51118 0.9353 0.0
H392 H 0.99881 0.56286 0.91996 0.0
H393 H 0.90938 0.52348 0.93722 0.0
H394 H 0.91233 0.47077 0.9517 0.0
H395 H 0.86474 0.46294 0.92749 0.0
H396 H 0.88575 0.38253 0.84276 0.0
H397 H 0.91189 0.32803 0.86735 0.0
H398 H 0.96082 0.42326 0.93522 0.0
C399 C 0.92865 0.55547 0.87664 0.0
C400 C 0.91631 0.56631 0.85017 0.0
C401 C 0.9009 0.5308 0.83035 0.0
C402 C 0.89577 0.48445 0.83712 0.0
C403 C 0.90647 0.47439 0.86378 0.0
C404 C 0.9234 0.50932 0.88305 0.0
C405 C 0.93722 0.49162 0.90941 0.0
C406 C 0.99162 0.52537 0.91643 0.0
C407 C 0.90391 0.48692 0.93283 0.0
C408 C 0.92727 0.4419 0.90167 0.0
C409 C 0.9083 0.43188 0.87556 0.0
C410 C 0.90031 0.38985 0.86331 0.0
C411 C 0.91523 0.35907 0.87744 0.0
C412 C 0.93883 0.37126 0.90323 0.0
C413 C 0.94199 0.41167 0.91595 0.0
H414 H 0.36725 0.89 0.20535 0.0
H415 H 0.41205 0.9086 0.1209 0.0
H416 H 0.44928 0.99828 0.12289 0.0
H417 H 0.33189 0.97559 0.20298 0.0
H418 H 0.35469 0.99878 0.23612 0.0
H419 H 0.33829 0.93691 0.22976 0.0
H420 H 0.42504 0.95354 0.24438 0.0
H421 H 0.44149 1.01534 0.25141 0.0
H422 H 0.47796 1.00471 0.22839 0.0
H423 H 0.47156 0.08474 0.13232 0.0
H424 H 0.48289 0.16178 0.14987 0.0
H425 H 0.42594 0.08619 0.2283 0.0
C426 C 0.38661 0.91283 0.18757 0.0
C427 C 0.38661 0.89205 0.16295 0.0
C428 C 0.4111 0.92354 0.13992 0.0
C429 C 0.43259 0.97456 0.14089 0.0
C430 C 0.43001 0.9936 0.16516 0.0
C431 C 0.40855 0.96373 0.18827 0.0
C432 C 0.40768 0.9929 0.21128 0.0
C433 C 0.35501 0.97496 0.22055 0.0
C434 C 0.43997 0.99153 0.23528 0.0
C435 C 0.42986 1.04342 0.19712 0.0
C436 C 0.44303 1.04329 0.17062 0.0
C437 C 0.46195 0.08536 0.15314 0.0
C438 C 0.4678 0.12869 0.16311 0.0
C439 C 0.4545 0.12935 0.19019 0.0
C440 C 0.43582 0.08631 0.20741 0.0
H441 H 0.77732 0.38932 0.49148 0.0
H442 H 0.65444 0.38034 0.53343 0.0
H443 H 0.70958 0.45997 0.55335 0.0
H444 H 0.86173 0.43516 0.54351 0.0
H445 H 0.91303 0.475 0.52189 0.0
H446 H 0.86236 0.42106 0.50872 0.0
H447 H 0.85186 0.47648 0.46932 0.0
H448 H 0.90312 0.52934 0.48327 0.0
H449 H 0.84512 0.52734 0.4782 0.0
H450 H 0.77985 0.52963 0.57582 0.0
H451 H 0.85883 0.59259 0.59389 0.0
H452 H 0.93566 0.5621 0.53365 0.0
C453 C 0.76196 0.40521 0.50407 0.0
C454 C 0.71187 0.37947 0.51084 0.0
C455 C 0.6927 0.40028 0.52778 0.0
C456 C 0.72375 0.44521 0.53923 0.0
C457 C 0.77346 0.46895 0.533 0.0
C458 C 0.79229 0.45032 0.51526 0.0
C459 C 0.84742 0.48138 0.51326 0.0
C460 C 0.87259 0.45137 0.52237 0.0
C461 C 0.86279 0.50503 0.4843 0.0
C462 C 0.8569 0.51933 0.53344 0.0
C463 C 0.81379 0.51133 0.54473 0.0
C464 C 0.81367 0.53758 0.56636 0.0
C465 C 0.85871 0.57332 0.57646 0.0
C466 C 0.90321 0.58346 0.56445 0.0
C467 C 0.90211 0.55611 0.54262 0.0
H468 H 0.36995 0.54298 0.86922 0.0
H469 H 0.38028 0.49291 0.79084 0.0
H470 H 0.29204 0.43341 0.79221 0.0
H471 H 0.297 0.42786 0.89894 0.0
H472 H 0.26087 0.44404 0.91892 0.0
H473 H 0.32231 0.48956 0.90955 0.0
H474 H 0.29117 0.54591 0.88675 0.0
H475 H 0.22962 0.50098 0.89657 0.0
H476 H 0.24336 0.52223 0.86129 0.0
H477 H 0.20434 0.37251 0.80467 0.0
H478 H 0.12357 0.31886 0.8264 0.0
H479 H 0.17418 0.40406 0.89819 0.0
C480 C 0.3536 0.5202 0.85206 0.0
C481 C 0.38226 0.52289 0.82992 0.0
C482 C 0.35914 0.49246 0.80782 0.0
C483 C 0.30901 0.4581 0.80851 0.0
C484 C 0.28254 0.45457 0.83142 0.0
C485 C 0.30397 0.48519 0.85266 0.0
C486 C 0.26887 0.47124 0.87606 0.0
C487 C 0.28845 0.45734 0.90241 0.0
C488 C 0.25758 0.51254 0.88041 0.0
C489 C 0.22482 0.42711 0.865 0.0
C490 C 0.23297 0.41842 0.83906 0.0
C491 C 0.1974 0.3792 0.8249 0.0
C492 C 0.1519 0.34876 0.8374 0.0
C493 C 0.14295 0.35759 0.86385 0.0
C494 C 0.18025 0.3967 0.8779 0.0
H495 H 0.86118 0.33111 0.14213 0.0
H496 H 0.88388 0.20674 0.15876 0.0
H497 H 0.79481 0.1523 0.16391 0.0
H498 H 0.78266 0.30401 0.19207 0.0
H499 H 0.74366 0.324 0.17452 0.0
H500 H 0.80609 0.35004 0.16426 0.0
H501 H 0.77771 0.32454 0.11485 0.0
H502 H 0.71478 0.29824 0.12503 0.0
H503 H 0.73457 0.26144 0.1088 0.0
H504 H 0.70814 0.11581 0.17767 0.0
H505 H 0.63222 0.10098 0.19944 0.0
H506 H 0.66594 0.24923 0.17476 0.0
C507 C 0.84716 0.29215 0.14606 0.0
C508 C 0.87922 0.27305 0.15006 0.0
C509 C 0.85982 0.22199 0.15524 0.0
C510 C 0.80925 0.19079 0.15815 0.0
C511 C 0.7787 0.2112 0.1554 0.0
C512 C 0.79695 0.26073 0.14913 0.0
C513 C 0.75803 0.27508 0.1515 0.0
C514 C 0.77354 0.31561 0.1718 0.0
C515 C 0.74553 0.29074 0.12336 0.0
C516 C 0.7161 0.22678 0.16226 0.0
C517 C 0.72815 0.18996 0.16352 0.0
C518 C 0.69772 0.1439 0.17608 0.0
C519 C 0.65486 0.13587 0.18853 0.0
C520 C 0.64325 0.17392 0.18855 0.0
C521 C 0.67325 0.21911 0.17429 0.0
H522 H 0.10494 0.54955 0.06643 0.0
H523 H 0.19148 0.48751 0.1028 0.0
H524 H 0.16351 0.42809 0.06698 0.0
H525 H 1.0025 0.43592 0.0472 0.0
H526 H 0.99127 0.4608 0.01531 0.0
H527 H 1.0187 0.49957 0.0435 0.0
H528 H 1.09252 0.56013 0.01328 0.0
H529 H 1.06484 0.52189 0.98493 0.0
H530 H 0.12603 0.53759 -0.00418 0.0
H531 H 0.1258 0.37478 0.02763 0.0
H532 H 1.08397 0.3342 0.98548 0.0
H533 H 1.02239 0.4309 0.97465 0.0
C534 C 0.11833 0.52379 0.06657 0.0
C535 C 0.15018 0.52289 0.08733 0.0
C536 C 0.16683 0.48856 0.08707 0.0
C537 C 0.15109 0.45458 0.06688 0.0
C538 C 0.11877 0.4555 0.04702 0.0
C539 C 0.10284 0.4894 0.04651 0.0
C540 C 1.06824 0.48239 0.02275 0.0
C541 C 1.01715 0.46886 0.0328 0.0
C542 C 1.08918 0.52822 0.00302 0.0
C543 C 1.06751 0.43953 0.01004 0.0
C544 C 1.09671 0.42441 0.0244 0.0
C545 C 0.10266 0.38615 0.0162 0.0
C546 C 1.07879 0.3633 0.99231 0.0
C547 C 1.04934 0.37879 0.97701 0.0
C548 C 1.04344 0.41714 0.98627 0.0
H549 H 0.70813 0.13391 0.39195 0.0
H550 H 0.56537 1.06369 0.43015 0.0
H551 H 0.52804 0.07202 0.38663 0.0
H552 H 0.68995 0.22234 0.34967 0.0
H553 H 0.72272 0.22034 0.32097 0.0
H554 H 0.73848 0.20788 0.3551 0.0
H555 H 0.72503 0.12408 0.34126 0.0
H556 H 0.70912 0.13626 0.3071 0.0
H557 H 0.66727 0.0812 0.32647 0.0
H558 H 0.50542 0.08616 0.33902 0.0
H559 H 0.49981 0.10844 0.29033 0.0
H560 H 0.65751 0.17408 0.28342 0.0
C561 C 0.66905 0.1202 0.39102 0.0
C562 C 0.63959 0.09792 0.41432 0.0
C563 C 0.58864 0.08082 0.41251 0.0
C564 C 0.567 0.0853 0.38787 0.0
C565 C 0.59686 0.10738 0.36523 0.0
C566 C 0.64679 0.12489 0.36654 0.0
C567 C 0.67046 0.14816 0.33922 0.0
C568 C 0.70759 0.20293 0.34138 0.0
C569 C 0.69437 0.12078 0.32785 0.0
C570 C 0.62599 0.14067 0.32247 0.0
C571 C 0.5839 0.11686 0.33783 0.0
C572 C 0.53817 0.10519 0.32676 0.0
C573 C 0.53538 0.11828 0.29914 0.0
C574 C 0.57812 0.14308 0.28298 0.0
C575 C 0.62396 0.15449 0.29501 0.0
H576 H 0.70436 0.60485 0.73039 0.0
H577 H 0.80077 0.74298 0.76657 0.0
H578 H 0.85581 0.76906 0.727 0.0
H579 H 0.79735 0.58874 0.70078 0.0
H580 H 0.76312 0.56419 0.67 0.0
H581 H 0.7314 0.55583 0.70137 0.0
H582 H 0.68368 0.59599 0.67791 0.0
H583 H 0.7149 0.60403 0.64642 0.0
H584 H 0.71703 0.65607 0.66098 0.0
H585 H 0.9016 0.7793 0.68412 0.0
H586 H 0.93072 0.77564 0.63854 0.0
H587 H 0.80284 0.63302 0.62946 0.0
C588 C 0.73695 0.64062 0.72986 0.0
C589 C 0.74873 0.67171 0.75158 0.0
C590 C 0.79143 0.71842 0.75019 0.0
C591 C 0.82294 0.73354 0.72785 0.0
C592 C 0.81082 0.70174 0.70694 0.0
C593 C 0.76855 0.65654 0.70754 0.0
C594 C 0.76336 0.63001 0.68202 0.0
C595 C 0.76385 0.58185 0.68897 0.0
C596 C 0.717 0.62102 0.66588 0.0
C597 C 0.80927 0.66735 0.66703 0.0
C598 C 0.83646 0.70827 0.68187 0.0
C599 C 0.8806 0.74753 0.67226 0.0
C600 C 0.89696 0.74516 0.64654 0.0
C601 C 0.86887 0.7041 0.63091 0.0
C602 C 0.82477 0.6647 0.6413 0.0
H603 H 0.60444 0.07956 0.58754 0.0
H604 H 0.75019 0.12316 0.5597 0.0
H605 H 0.78001 0.13398 0.60765 0.0
H606 H 0.64103 0.16454 0.64025 0.0
H607 H 0.5938 0.12266 0.66365 0.0
H608 H 0.58381 0.11695 0.6274 0.0
H609 H 0.56427 1.02665 0.63302 0.0
H610 H 0.57387 1.03197 0.66931 0.0
H611 H 0.6079 1.01237 0.64997 0.0
H612 H 0.7938 0.14048 0.65941 0.0
H613 H 0.79016 0.14105 0.70972 0.0
H614 H 0.63582 0.09499 0.70393 0.0
C615 C 0.64263 0.0911 0.5915 0.0
C616 C 0.67498 0.10038 0.5697 0.0
C617 C 0.72465 0.11562 0.57592 0.0
C618 C 0.74191 0.12198 0.60316 0.0
C619 C 0.70912 0.11304 0.62411 0.0
C620 C 0.66044 0.09778 0.61855 0.0
C621 C 0.6327 0.09098 0.64466 0.0
C622 C 0.6116 0.12587 0.64394 0.0
C623 C 0.5923 1.03731 0.64952 0.0
C624 C 0.6733 0.10496 0.66589 0.0
C625 C 0.71712 0.11745 0.65361 0.0
C626 C 0.75967 0.13094 0.66908 0.0
C627 C 0.75735 0.13132 0.69766 0.0
C628 C 0.71296 0.1187 0.7107 0.0
C629 C 0.67043 0.10548 0.69449 0.0
H630 H 0.78708 0.69045 0.92325 0.0
H631 H 0.6545 0.56717 0.89381 0.0
H632 H 0.63202 0.53345 0.94155 0.0
H633 H 0.81291 0.62084 0.97661 0.0
H634 H 0.83683 0.66926 3e-05 0.0
H635 H 0.84161 0.68394 0.96376 0.0
H636 H 0.79726 0.73369 0.96853 0.0
H637 H 0.79236 0.7192 0.0048 0.0
H638 H 0.73819 0.70464 0.98465 0.0
H639 H 0.62302 0.51492 0.99333 0.0
H640 H 0.63006 0.51044 0.04367 0.0
H641 H 0.77119 0.64327 0.03942 0.0
C642 C 0.75319 0.65637 0.9268 0.0
C643 C 0.72228 0.63162 0.90465 0.0
C644 C 0.67864 0.58688 0.91032 0.0
C645 C 0.66563 0.5675 0.93743 0.0
C646 C 0.69696 0.59286 0.95877 0.0
C647 C 0.74012 0.63614 0.95368 0.0
C648 C 0.76806 0.6557 0.98011 0.0
C649 C 0.8178 0.65753 0.98012 0.0
C650 C 0.77432 0.70631 0.98479 0.0
C651 C 0.73375 0.61703 0.00102 0.0
C652 C 0.69276 0.58127 0.98827 0.0
C653 C 0.65515 0.54261 0.00337 0.0
C654 C 0.65941 0.54045 0.03203 0.0
C655 C 0.7012 0.57635 0.04565 0.0
C656 C 0.73901 0.61496 0.02971 0.0
H657 H 0.14799 0.48827 0.2587 0.0
H658 H 0.15739 0.62379 0.22527 0.0
H659 H 0.14987 0.64473 0.27203 0.0
H660 H 1.05652 0.46194 0.3092 0.0
H661 H 1.08151 0.4357 0.33433 0.0
H662 H 1.08931 0.43259 0.29852 0.0
H663 H 0.18321 0.47479 0.3055 0.0
H664 H 0.17571 0.47794 0.34133 0.0
H665 H 0.21468 0.53297 0.32102 0.0
H666 H 0.14421 0.65166 0.32362 0.0
H667 H 0.13576 0.64183 0.37396 0.0
H668 H 0.12385 0.4988 0.37318 0.0
C669 C 0.14869 0.52253 0.26115 0.0
C670 C 0.15381 0.5547 0.23818 0.0
C671 C 0.15381 0.59873 0.24244 0.0
C672 C 0.14953 0.61085 0.26898 0.0
C673 C 0.14446 0.57822 0.29115 0.0
C674 C 0.14351 0.53467 0.28739 0.0
C675 C 0.13614 0.50506 0.31437 0.0
C676 C 1.08801 0.45591 0.31408 0.0
C677 C 0.18005 0.49725 0.32094 0.0
C678 C 0.13353 0.53881 0.33409 0.0
C679 C 0.13885 0.58106 0.32034 0.0
C680 C 0.13956 0.61847 0.33441 0.0
C681 C 0.13478 0.61261 0.36305 0.0
C682 C 0.1286 0.56938 0.37757 0.0
C683 C 0.12773 0.53194 0.36269 0.0
loop_
_geom_bond_atom_site_label_1
_geom_bond_atom_site_label_2
_geom_bond_distance
_geom_bond_site_symmetry_2
_ccdc_geom_bond_type
Tb0 C2 2.809 . S
Tb0 O20 2.484 . S
Tb0 O21 2.440 . S
Tb0 O22 2.658 . S
Tb0 O23 2.409 . S
Tb0 O24 2.378 . S
Tb0 O28 2.325 . S
Tb0 O31 2.341 1_455 S
Tb1 C11 2.809 . S
Tb1 O22 2.325 1_655 S
Tb1 O25 2.341 1_655 S
Tb1 O26 2.484 . S
Tb1 O27 2.440 . S
Tb1 O28 2.658 1_655 S
Tb1 O29 2.409 1_655 S
Tb1 O30 2.378 . S
C2 Tb0 2.809 . S
C2 C3 1.514 . S
C2 O20 1.248 . S
C2 O21 1.266 . S
C3 C2 1.514 . S
C3 C4 1.359 . S
C3 C8 1.348 . S
C4 C3 1.359 . S
C4 C5 1.380 . S
C4 H32 0.929 . S
C5 C4 1.380 . S
C5 C6 1.347 . S
C5 H33 0.931 . S
C6 C5 1.347 . S
C6 C7 1.369 . S
C7 C6 1.369 . S
C7 C8 1.408 . S
C7 H34 0.930 . S
C8 C3 1.348 . S
C8 C7 1.408 . S
C8 H35 0.930 . S
C9 O22 1.281 . S
C9 O23 1.254 . S
C10 O24 1.236 . S
C10 O25 1.266 . S
C11 Tb1 2.809 . S
C11 C12 1.514 . S
C11 O26 1.248 . S
C11 O27 1.266 . S
C12 C11 1.514 . S
C12 C13 1.359 . S
C12 C17 1.348 . S
C13 C12 1.359 . S
C13 C14 1.380 . S
C13 H36 0.929 . S
C14 C13 1.380 . S
C14 C15 1.347 . S
C14 H37 0.931 . S
C15 C14 1.347 . S
C15 C16 1.369 . S
C16 C15 1.369 . S
C16 C17 1.408 . S
C16 H38 0.930 . S
C17 C12 1.348 . S
C17 C16 1.408 . S
C17 H39 0.930 . S
C18 O28 1.281 . S
C18 O29 1.254 . S
C19 O30 1.236 . S
C19 O31 1.266 . S
O20 Tb0 2.484 . S
O20 C2 1.248 . S
O21 Tb0 2.440 . S
O21 C2 1.266 . S
O22 Tb0 2.658 . S
O22 Tb1 2.325 1_455 S
O22 C9 1.281 . S
O23 Tb0 2.409 . S
O23 C9 1.254 . S
O24 Tb0 2.378 . S
O24 C10 1.236 . S
O25 Tb1 2.341 1_455 S
O25 C10 1.266 . S
O26 Tb1 2.484 . S
O26 C11 1.248 . S
O27 Tb1 2.440 . S
O27 C11 1.266 . S
O28 Tb0 2.325 . S
O28 Tb1 2.658 1_455 S
O28 C18 1.281 . S
O29 Tb1 2.409 1_455 S
O29 C18 1.254 . S
O30 Tb1 2.378 . S
O30 C19 1.236 . S
O31 Tb0 2.341 1_655 S
O31 C19 1.266 . S
H32 C4 0.929 . S
H33 C5 0.931 . S
H34 C7 0.930 . S
H35 C8 0.930 . S
H36 C13 0.929 . S
H37 C14 0.931 . S
H38 C16 0.930 . S
H39 C17 0.930 . S
Tb40 C42 2.809 1_545 S
Tb40 O60 2.484 1_545 S
Tb40 O61 2.440 1_545 S
Tb40 O62 2.658 . S
Tb40 O63 2.409 . S
Tb40 O64 2.378 1_545 S
Tb40 O68 2.325 . S
Tb40 O71 2.341 . S
Tb41 C51 2.809 . S
Tb41 O62 2.325 . S
Tb41 O65 2.341 1_545 S
Tb41 O66 2.484 . S
Tb41 O67 2.440 . S
Tb41 O68 2.658 . S
Tb41 O69 2.409 . S
Tb41 O70 2.378 . S
C42 Tb40 2.809 1_565 S
C42 C43 1.514 . S
C42 O60 1.248 . S
C42 O61 1.266 . S
C43 C42 1.514 . S
C43 C44 1.359 . S
C43 C48 1.348 . S
C44 C43 1.359 . S
C44 C45 1.380 . S
C44 H72 0.929 . S
C45 C44 1.380 . S
C45 C46 1.347 . S
C45 H73 0.931 . S
C46 C45 1.347 . S
C46 C47 1.369 . S
C47 C46 1.369 . S
C47 C48 1.408 . S
C47 H74 0.930 . S
C48 C43 1.348 . S
C48 C47 1.408 . S
C48 H75 0.930 . S
C49 O62 1.281 . S
C49 O63 1.254 . S
C50 O64 1.236 . S
C50 O65 1.266 . S
C51 Tb41 2.809 . S
C51 C52 1.514 . S
C51 O66 1.248 . S
C51 O67 1.266 . S
C52 C51 1.514 . S
C52 C53 1.359 . S
C52 C57 1.348 . S
C53 C52 1.359 . S
C53 C54 1.380 . S
C53 H76 0.929 . S
C54 C53 1.380 . S
C54 C55 1.347 . S
C54 H77 0.931 . S
C55 C54 1.347 . S
C55 C56 1.369 . S
C56 C55 1.369 . S
C56 C57 1.408 . S
C56 H78 0.930 . S
C57 C52 1.348 . S
C57 C56 1.408 . S
C57 H79 0.930 . S
C58 O68 1.281 . S
C58 O69 1.254 . S
C59 O70 1.236 . S
C59 O71 1.266 . S
O60 Tb40 2.484 1_565 S
O60 C42 1.248 . S
O61 Tb40 2.440 1_565 S
O61 C42 1.266 . S
O62 Tb40 2.658 . S
O62 Tb41 2.325 . S
O62 C49 1.281 . S
O63 Tb40 2.409 . S
O63 C49 1.254 . S
O64 Tb40 2.378 1_565 S
O64 C50 1.236 . S
O65 Tb41 2.341 1_565 S
O65 C50 1.266 . S
O66 Tb41 2.484 . S
O66 C51 1.248 . S
O67 Tb41 2.440 . S
O67 C51 1.266 . S
O68 Tb40 2.325 . S
O68 Tb41 2.658 . S
O68 C58 1.281 . S
O69 Tb41 2.409 . S
O69 C58 1.254 . S
O70 Tb41 2.378 . S
O70 C59 1.236 . S
O71 Tb40 2.341 . S
O71 C59 1.266 . S
H72 C44 0.929 . S
H73 C45 0.931 . S
H74 C47 0.930 . S
H75 C48 0.930 . S
H76 C53 0.929 . S
H77 C54 0.931 . S
H78 C56 0.930 . S
H79 C57 0.930 . S
Tb80 C82 2.809 . S
Tb80 O100 2.484 . S
Tb80 O101 2.440 . S
Tb80 O102 2.658 . S
Tb80 O103 2.409 . S
Tb80 O104 2.378 . S
Tb80 O108 2.325 . S
Tb80 O111 2.341 . S
Tb81 C91 2.809 . S
Tb81 O102 2.325 . S
Tb81 O105 2.341 . S
Tb81 O106 2.484 . S
Tb81 O107 2.440 . S
Tb81 O108 2.658 . S
Tb81 O109 2.409 . S
Tb81 O110 2.378 . S
C82 Tb80 2.809 . S
C82 C83 1.514 . S
C82 O100 1.248 . S
C82 O101 1.266 . S
C83 C82 1.514 . S
C83 C84 1.359 . S
C83 C88 1.348 . S
C84 C83 1.359 . S
C84 C85 1.380 . S
C84 H112 0.929 . S
C85 C84 1.380 . S
C85 C86 1.347 . S
C85 H113 0.931 . S
C86 C85 1.347 . S
C86 C87 1.369 . S
C87 C86 1.369 . S
C87 C88 1.408 . S
C87 H114 0.930 . S
C88 C83 1.348 . S
C88 C87 1.408 . S
C88 H115 0.930 . S
C89 O102 1.281 . S
C89 O103 1.254 . S
C90 O104 1.236 . S
C90 O105 1.266 . S
C91 Tb81 2.809 . S
C91 C92 1.514 . S
C91 O106 1.248 . S
C91 O107 1.266 . S
C92 C91 1.514 . S
C92 C93 1.359 . S
C92 C97 1.348 . S
C93 C92 1.359 . S
C93 C94 1.380 . S
C93 H116 0.929 . S
C94 C93 1.380 . S
C94 C95 1.347 . S
C94 H117 0.931 . S
C95 C94 1.347 . S
C95 C96 1.369 . S
C96 C95 1.369 . S
C96 C97 1.408 . S
C96 H118 0.930 . S
C97 C92 1.348 . S
C97 C96 1.408 . S
C97 H119 0.930 . S
C98 O108 1.281 . S
C98 O109 1.254 . S
C99 O110 1.236 . S
C99 O111 1.266 . S
O100 Tb80 2.484 . S
O100 C82 1.248 . S
O101 Tb80 2.440 . S
O101 C82 1.266 . S
O102 Tb80 2.658 . S
O102 Tb81 2.325 . S
O102 C89 1.281 . S
O103 Tb80 2.409 . S
O103 C89 1.254 . S
O104 Tb80 2.378 . S
O104 C90 1.236 . S
O105 Tb81 2.341 . S
O105 C90 1.266 . S
O106 Tb81 2.484 . S
O106 C91 1.248 . S
O107 Tb81 2.440 . S
O107 C91 1.266 . S
O108 Tb80 2.325 . S
O108 Tb81 2.658 . S
O108 C98 1.281 . S
O109 Tb81 2.409 . S
O109 C98 1.254 . S
O110 Tb81 2.378 . S
O110 C99 1.236 . S
O111 Tb80 2.341 . S
O111 C99 1.266 . S
H112 C84 0.929 . S
H113 C85 0.931 . S
H114 C87 0.930 . S
H115 C88 0.930 . S
H116 C93 0.929 . S
H117 C94 0.931 . S
H118 C96 0.930 . S
H119 C97 0.930 . S
H120 C127 0.929 . S
H121 C130 0.930 1_565 S
H122 C132 0.929 . S
H123 C124 0.969 . S
C124 H123 0.969 . S
C124 O125 1.550 . S
C124 H126 0.973 . S
O125 C124 1.550 . S
O125 C131 1.412 1_565 S
H126 C124 0.973 . S
C127 H120 0.929 . S
C127 C128 1.400 . S
C127 C129 1.364 . S
C128 C127 1.400 . S
C128 C132 1.377 . S
C129 C127 1.364 . S
C129 C130 1.374 . S
C130 H121 0.930 1_545 S
C130 C129 1.374 . S
C130 C131 1.383 . S
C131 O125 1.412 1_545 S
C131 C130 1.383 . S
C131 C132 1.394 . S
C132 H122 0.929 . S
C132 C128 1.377 . S
C132 C131 1.394 . S
H133 C140 0.929 . S
H134 C143 0.930 . S
H135 C145 0.929 . S
H136 C137 0.969 . S
C137 H136 0.969 . S
C137 O138 1.550 . S
C137 H139 0.973 . S
O138 C137 1.550 . S
O138 C144 1.412 . S
H139 C137 0.973 . S
C140 H133 0.929 . S
C140 C141 1.400 . S
C140 C142 1.364 . S
C141 C140 1.400 . S
C141 C145 1.377 . S
C142 C140 1.364 . S
C142 C143 1.374 . S
C143 H134 0.930 . S
C143 C142 1.374 . S
C143 C144 1.383 . S
C144 O138 1.412 . S
C144 C143 1.383 . S
C144 C145 1.394 . S
C145 H135 0.929 . S
C145 C141 1.377 . S
C145 C144 1.394 . S
H146 C153 0.929 . S
H147 C156 0.930 . S
H148 C158 0.929 . S
H149 C150 0.969 . S
C150 H149 0.969 . S
C150 O151 1.550 . S
C150 H152 0.973 . S
O151 C150 1.550 . S
O151 C157 1.412 . S
H152 C150 0.973 . S
C153 H146 0.929 . S
C153 C154 1.400 . S
C153 C155 1.364 1_655 S
C154 C153 1.400 . S
C154 C158 1.377 1_655 S
C155 C153 1.364 1_455 S
C155 C156 1.374 . S
C156 H147 0.930 . S
C156 C155 1.374 . S
C156 C157 1.383 . S
C157 O151 1.412 . S
C157 C156 1.383 . S
C157 C158 1.394 . S
C158 H148 0.929 . S
C158 C154 1.377 1_455 S
C158 C157 1.394 . S
H159 C166 0.929 . S
H160 C169 0.930 . S
H161 C171 0.929 . S
H162 C163 0.969 . S
C163 H162 0.969 . S
C163 O164 1.550 . S
C163 H165 0.973 . S
O164 C163 1.550 . S
O164 C170 1.412 . S
H165 C163 0.973 . S
C166 H159 0.929 . S
C166 C167 1.400 . S
C166 C168 1.364 . S
C167 C166 1.400 . S
C167 C171 1.377 . S
C168 C166 1.364 . S
C168 C169 1.374 . S
C169 H160 0.930 . S
C169 C168 1.374 . S
C169 C170 1.383 . S
C170 O164 1.412 . S
C170 C169 1.383 . S
C170 C171 1.394 . S
C171 H161 0.929 . S
C171 C167 1.377 . S
C171 C170 1.394 . S
H172 C179 0.929 . S
H173 C182 0.930 . S
H174 C184 0.929 . S
H175 C176 0.969 . S
C176 H175 0.969 . S
C176 O177 1.550 . S
C176 H178 0.973 . S
O177 C176 1.550 . S
O177 C183 1.412 . S
H178 C176 0.973 . S
C179 H172 0.929 . S
C179 C180 1.400 . S
C179 C181 1.364 1_565 S
C180 C179 1.400 . S
C180 C184 1.377 . S
C181 C179 1.364 1_545 S
C181 C182 1.374 . S
C182 H173 0.930 . S
C182 C181 1.374 . S
C182 C183 1.383 . S
C183 O177 1.412 . S
C183 C182 1.383 . S
C183 C184 1.394 1_545 S
C184 H174 0.929 . S
C184 C180 1.377 . S
C184 C183 1.394 1_565 S
H185 C192 0.929 . S
H186 C195 0.930 . S
H187 C197 0.929 . S
H188 C189 0.969 . S
C189 H188 0.969 . S
C189 O190 1.550 . S
C189 H191 0.973 . S
O190 C189 1.550 . S
O190 C196 1.412 . S
H191 C189 0.973 . S
C192 H185 0.929 . S
C192 C193 1.400 . S
C192 C194 1.364 . S
C193 C192 1.400 . S
C193 C197 1.377 . S
C194 C192 1.364 . S
C194 C195 1.374 . S
C195 H186 0.930 . S
C195 C194 1.374 . S
C195 C196 1.383 . S
C196 O190 1.412 . S
C196 C195 1.383 . S
C196 C197 1.394 . S
C197 H187 0.929 . S
C197 C193 1.377 . S
C197 C196 1.394 . S
H198 C210 0.930 . S
H199 C212 0.930 . S
H200 C213 0.930 . S
H201 C217 0.959 . S
H202 C217 0.959 . S
H203 C217 0.961 . S
H204 C218 0.960 . S
H205 C218 0.961 . S
H206 C218 0.959 . S
H207 C221 0.929 . S
H208 C222 0.931 . S
H209 C224 0.930 . S
C210 H198 0.930 . S
C210 C211 1.399 . S
C210 C215 1.399 . S
C211 C210 1.399 . S
C211 C212 1.376 . S
C212 H199 0.930 . S
C212 C211 1.376 . S
C212 C213 1.388 . S
C213 H200 0.930 . S
C213 C212 1.388 . S
C213 C214 1.390 . S
C214 C213 1.390 . S
C214 C215 1.394 . S
C214 C220 1.465 . S
C215 C210 1.399 . S
C215 C214 1.394 . S
C215 C216 1.516 . S
C216 C215 1.516 . S
C216 C217 1.502 . S
C216 C218 1.561 . S
C216 C219 1.526 . S
C217 H201 0.959 . S
C217 H202 0.959 . S
C217 H203 0.961 . S
C217 C216 1.502 . S
C218 H204 0.960 . S
C218 H205 0.961 . S
C218 H206 0.959 . S
C218 C216 1.561 . S
C219 C216 1.526 . S
C219 C220 1.396 . S
C219 C224 1.390 . S
C220 C214 1.465 . S
C220 C219 1.396 . S
C220 C221 1.399 . S
C221 H207 0.929 . S
C221 C220 1.399 . S
C221 C222 1.385 . S
C222 H208 0.931 . S
C222 C221 1.385 . S
C222 C223 1.389 . S
C223 C222 1.389 . S
C223 C224 1.387 . S
C224 H209 0.930 . S
C224 C219 1.390 . S
C224 C223 1.387 . S
H225 C237 0.930 . S
H226 C239 0.930 . S
H227 C240 0.930 . S
H228 C244 0.959 . S
H229 C244 0.959 . S
H230 C244 0.961 . S
H231 C245 0.960 . S
H232 C245 0.961 . S
H233 C245 0.959 . S
H234 C248 0.929 . S
H235 C249 0.931 . S
H236 C251 0.930 . S
C237 H225 0.930 . S
C237 C238 1.399 . S
C237 C242 1.399 . S
C238 C237 1.399 . S
C238 C239 1.376 . S
C239 H226 0.930 . S
C239 C238 1.376 . S
C239 C240 1.388 . S
C240 H227 0.930 . S
C240 C239 1.388 . S
C240 C241 1.390 . S
C241 C240 1.390 . S
C241 C242 1.394 . S
C241 C247 1.465 . S
C242 C237 1.399 . S
C242 C241 1.394 . S
C242 C243 1.516 . S
C243 C242 1.516 . S
C243 C244 1.502 . S
C243 C245 1.561 . S
C243 C246 1.526 . S
C244 H228 0.959 . S
C244 H229 0.959 . S
C244 H230 0.961 . S
C244 C243 1.502 . S
C245 H231 0.960 . S
C245 H232 0.961 . S
C245 H233 0.959 . S
C245 C243 1.561 . S
C246 C243 1.526 . S
C246 C247 1.396 . S
C246 C251 1.390 . S
C247 C241 1.465 . S
C247 C246 1.396 . S
C247 C248 1.399 . S
C248 H234 0.929 . S
C248 C247 1.399 . S
C248 C249 1.385 . S
C249 H235 0.931 . S
C249 C248 1.385 . S
C249 C250 1.389 . S
C250 C249 1.389 . S
C250 C251 1.387 . S
C251 H236 0.930 . S
C251 C246 1.390 . S
C251 C250 1.387 . S
H252 C264 0.930 . S
H253 C266 0.930 . S
H254 C267 0.930 . S
H255 C271 0.959 . S
H256 C271 0.959 . S
H257 C271 0.961 . S
H258 C272 0.960 . S
H259 C272 0.961 . S
H260 C272 0.959 . S
H261 C275 0.929 . S
H262 C276 0.931 . S
H263 C278 0.930 . S
C264 H252 0.930 . S
C264 C265 1.399 . S
C264 C269 1.399 . S
C265 C264 1.399 . S
C265 C266 1.376 . S
C266 H253 0.930 . S
C266 C265 1.376 . S
C266 C267 1.388 . S
C267 H254 0.930 . S
C267 C266 1.388 . S
C267 C268 1.390 . S
C268 C267 1.390 . S
C268 C269 1.394 . S
C268 C274 1.465 . S
C269 C264 1.399 . S
C269 C268 1.394 . S
C269 C270 1.516 . S
C270 C269 1.516 . S
C270 C271 1.502 . S
C270 C272 1.561 . S
C270 C273 1.526 . S
C271 H255 0.959 . S
C271 H256 0.959 . S
C271 H257 0.961 . S
C271 C270 1.502 . S
C272 H258 0.960 . S
C272 H259 0.961 . S
C272 H260 0.959 . S
C272 C270 1.561 . S
C273 C270 1.526 . S
C273 C274 1.396 . S
C273 C278 1.390 . S
C274 C268 1.465 . S
C274 C273 1.396 . S
C274 C275 1.399 . S
C275 H261 0.929 . S
C275 C274 1.399 . S
C275 C276 1.385 . S
C276 H262 0.931 . S
C276 C275 1.385 . S
C276 C277 1.389 . S
C277 C276 1.389 . S
C277 C278 1.387 . S
C278 H263 0.930 . S
C278 C273 1.390 . S
C278 C277 1.387 . S
H279 C291 0.930 . S
H280 C293 0.930 . S
H281 C294 0.930 . S
H282 C298 0.959 . S
H283 C298 0.959 . S
H284 C298 0.961 . S
H285 C299 0.960 . S
H286 C299 0.961 . S
H287 C299 0.959 . S
H288 C302 0.929 . S
H289 C303 0.931 . S
H290 C305 0.930 . S
C291 H279 0.930 . S
C291 C292 1.399 . S
C291 C296 1.399 . S
C292 C291 1.399 . S
C292 C293 1.376 . S
C293 H280 0.930 . S
C293 C292 1.376 . S
C293 C294 1.388 . S
C294 H281 0.930 . S
C294 C293 1.388 . S
C294 C295 1.390 . S
C295 C294 1.390 . S
C295 C296 1.394 . S
C295 C301 1.465 . S
C296 C291 1.399 . S
C296 C295 1.394 . S
C296 C297 1.516 . S
C297 C296 1.516 . S
C297 C298 1.502 . S
C297 C299 1.561 . S
C297 C300 1.526 . S
C298 H282 0.959 . S
C298 H283 0.959 . S
C298 H284 0.961 . S
C298 C297 1.502 . S
C299 H285 0.960 . S
C299 H286 0.961 . S
C299 H287 0.959 . S
C299 C297 1.561 . S
C300 C297 1.526 . S
C300 C301 1.396 . S
C300 C305 1.390 . S
C301 C295 1.465 . S
C301 C300 1.396 . S
C301 C302 1.399 . S
C302 H288 0.929 . S
C302 C301 1.399 . S
C302 C303 1.385 . S
C303 H289 0.931 . S
C303 C302 1.385 . S
C303 C304 1.389 . S
C304 C303 1.389 . S
C304 C305 1.387 . S
C305 H290 0.930 . S
C305 C300 1.390 . S
C305 C304 1.387 . S
H306 C318 0.930 . S
H307 C320 0.930 . S
H308 C321 0.930 . S
H309 C325 0.959 . S
H310 C325 0.959 . S
H311 C325 0.961 . S
H312 C326 0.960 . S
H313 C326 0.961 . S
H314 C326 0.959 . S
H315 C329 0.929 . S
H316 C330 0.931 . S
H317 C332 0.930 . S
C318 H306 0.930 . S
C318 C319 1.399 . S
C318 C323 1.399 . S
C319 C318 1.399 . S
C319 C320 1.376 . S
C320 H307 0.930 . S
C320 C319 1.376 . S
C320 C321 1.388 . S
C321 H308 0.930 . S
C321 C320 1.388 . S
C321 C322 1.390 . S
C322 C321 1.390 . S
C322 C323 1.394 . S
C322 C328 1.465 . S
C323 C318 1.399 . S
C323 C322 1.394 . S
C323 C324 1.516 . S
C324 C323 1.516 . S
C324 C325 1.502 . S
C324 C326 1.561 . S
C324 C327 1.526 . S
C325 H309 0.959 . S
C325 H310 0.959 . S
C325 H311 0.961 . S
C325 C324 1.502 . S
C326 H312 0.960 . S
C326 H313 0.961 . S
C326 H314 0.959 . S
C326 C324 1.561 . S
C327 C324 1.526 . S
C327 C328 1.396 . S
C327 C332 1.390 . S
C328 C322 1.465 . S
C328 C327 1.396 . S
C328 C329 1.399 . S
C329 H315 0.929 . S
C329 C328 1.399 . S
C329 C330 1.385 . S
C330 H316 0.931 . S
C330 C329 1.385 . S
C330 C331 1.389 . S
C331 C330 1.389 . S
C331 C332 1.387 . S
C332 H317 0.930 . S
C332 C327 1.390 . S
C332 C331 1.387 . S
H333 C345 0.930 . S
H334 C347 0.930 . S
H335 C348 0.930 . S
H336 C352 0.959 . S
H337 C352 0.959 . S
H338 C352 0.961 . S
H339 C353 0.960 . S
H340 C353 0.961 . S
H341 C353 0.959 . S
H342 C356 0.929 . S
H343 C357 0.931 . S
H344 C359 0.930 . S
C345 H333 0.930 . S
C345 C346 1.399 . S
C345 C350 1.399 . S
C346 C345 1.399 . S
C346 C347 1.376 . S
C347 H334 0.930 . S
C347 C346 1.376 . S
C347 C348 1.388 . S
C348 H335 0.930 . S
C348 C347 1.388 . S
C348 C349 1.390 . S
C349 C348 1.390 . S
C349 C350 1.394 . S
C349 C355 1.465 . S
C350 C345 1.399 . S
C350 C349 1.394 . S
C350 C351 1.516 . S
C351 C350 1.516 . S
C351 C352 1.502 . S
C351 C353 1.561 . S
C351 C354 1.526 . S
C352 H336 0.959 . S
C352 H337 0.959 . S
C352 H338 0.961 . S
C352 C351 1.502 . S
C353 H339 0.960 . S
C353 H340 0.961 . S
C353 H341 0.959 . S
C353 C351 1.561 . S
C354 C351 1.526 . S
C354 C355 1.396 . S
C354 C359 1.390 . S
C355 C349 1.465 . S
C355 C354 1.396 . S
C355 C356 1.399 . S
C356 H342 0.929 . S
C356 C355 1.399 . S
C356 C357 1.385 . S
C357 H343 0.931 . S
C357 C356 1.385 . S
C357 C358 1.389 . S
C358 C357 1.389 . S
C358 C359 1.387 . S
C359 H344 0.930 . S
C359 C354 1.390 . S
C359 C358 1.387 . S
H360 C372 0.930 . S
H361 C374 0.930 . S
H362 C375 0.930 . S
H363 C379 0.959 . S
H364 C379 0.959 . S
H365 C379 0.961 . S
H366 C380 0.960 . S
H367 C380 0.961 . S
H368 C380 0.959 . S
H369 C383 0.929 . S
H370 C384 0.931 . S
H371 C386 0.930 . S
C372 H360 0.930 . S
C372 C373 1.399 . S
C372 C377 1.399 . S
C373 C372 1.399 . S
C373 C374 1.376 . S
C374 H361 0.930 . S
C374 C373 1.376 . S
C374 C375 1.388 . S
C375 H362 0.930 . S
C375 C374 1.388 . S
C375 C376 1.390 . S
C376 C375 1.390 . S
C376 C377 1.394 . S
C376 C382 1.465 . S
C377 C372 1.399 . S
C377 C376 1.394 . S
C377 C378 1.516 . S
C378 C377 1.516 . S
C378 C379 1.502 . S
C378 C380 1.561 . S
C378 C381 1.526 . S
C379 H363 0.959 . S
C379 H364 0.959 . S
C379 H365 0.961 . S
C379 C378 1.502 . S
C380 H366 0.960 . S
C380 H367 0.961 . S
C380 H368 0.959 . S
C380 C378 1.561 . S
C381 C378 1.526 . S
C381 C382 1.396 . S
C381 C386 1.390 . S
C382 C376 1.465 . S
C382 C381 1.396 . S
C382 C383 1.399 . S
C383 H369 0.929 . S
C383 C382 1.399 . S
C383 C384 1.385 . S
C384 H370 0.931 . S
C384 C383 1.385 . S
C384 C385 1.389 . S
C385 C384 1.389 . S
C385 C386 1.387 . S
C386 H371 0.930 . S
C386 C381 1.390 . S
C386 C385 1.387 . S
H387 C399 0.930 . S
H388 C401 0.930 . S
H389 C402 0.930 . S
H390 C406 0.959 . S
H391 C406 0.959 . S
H392 C406 0.961 . S
H393 C407 0.960 . S
H394 C407 0.961 . S
H395 C407 0.959 . S
H396 C410 0.929 . S
H397 C411 0.931 . S
H398 C413 0.930 . S
C399 H387 0.930 . S
C399 C400 1.399 . S
C399 C404 1.399 . S
C400 C399 1.399 . S
C400 C401 1.376 . S
C401 H388 0.930 . S
C401 C400 1.376 . S
C401 C402 1.388 . S
C402 H389 0.930 . S
C402 C401 1.388 . S
C402 C403 1.390 . S
C403 C402 1.390 . S
C403 C404 1.394 . S
C403 C409 1.465 . S
C404 C399 1.399 . S
C404 C403 1.394 . S
C404 C405 1.516 . S
C405 C404 1.516 . S
C405 C406 1.502 . S
C405 C407 1.561 . S
C405 C408 1.526 . S
C406 H390 0.959 . S
C406 H391 0.959 . S
C406 H392 0.961 . S
C406 C405 1.502 . S
C407 H393 0.960 . S
C407 H394 0.961 . S
C407 H395 0.959 . S
C407 C405 1.561 . S
C408 C405 1.526 . S
C408 C409 1.396 . S
C408 C413 1.390 . S
C409 C403 1.465 . S
C409 C408 1.396 . S
C409 C410 1.399 . S
C410 H396 0.929 . S
C410 C409 1.399 . S
C410 C411 1.385 . S
C411 H397 0.931 . S
C411 C410 1.385 . S
C411 C412 1.389 . S
C412 C411 1.389 . S
C412 C413 1.387 . S
C413 H398 0.930 . S
C413 C408 1.390 . S
C413 C412 1.387 . S
H414 C426 0.930 . S
H415 C428 0.930 . S
H416 C429 0.930 . S
H417 C433 0.959 . S
H418 C433 0.959 . S
H419 C433 0.961 . S
H420 C434 0.960 . S
H421 C434 0.961 . S
H422 C434 0.959 . S
H423 C437 0.929 . S
H424 C438 0.931 . S
H425 C440 0.930 . S
C426 H414 0.930 . S
C426 C427 1.399 . S
C426 C431 1.399 . S
C427 C426 1.399 . S
C427 C428 1.376 . S
C428 H415 0.930 . S
C428 C427 1.376 . S
C428 C429 1.388 . S
C429 H416 0.930 . S
C429 C428 1.388 . S
C429 C430 1.390 . S
C430 C429 1.390 . S
C430 C431 1.394 . S
C430 C436 1.465 . S
C431 C426 1.399 . S
C431 C430 1.394 . S
C431 C432 1.516 . S
C432 C431 1.516 . S
C432 C433 1.502 . S
C432 C434 1.561 . S
C432 C435 1.526 . S
C433 H417 0.959 . S
C433 H418 0.959 . S
C433 H419 0.961 . S
C433 C432 1.502 . S
C434 H420 0.960 . S
C434 H421 0.961 . S
C434 H422 0.959 . S
C434 C432 1.561 . S
C435 C432 1.526 . S
C435 C436 1.396 . S
C435 C440 1.390 . S
C436 C430 1.465 . S
C436 C435 1.396 . S
C436 C437 1.399 . S
C437 H423 0.929 . S
C437 C436 1.399 . S
C437 C438 1.385 . S
C438 H424 0.931 . S
C438 C437 1.385 . S
C438 C439 1.389 . S
C439 C438 1.389 . S
C439 C440 1.387 . S
C440 H425 0.930 . S
C440 C435 1.390 . S
C440 C439 1.387 . S
H441 C453 0.930 . S
H442 C455 0.930 . S
H443 C456 0.930 . S
H444 C460 0.959 . S
H445 C460 0.959 . S
H446 C460 0.961 . S
H447 C461 0.960 . S
H448 C461 0.961 . S
H449 C461 0.959 . S
H450 C464 0.929 . S
H451 C465 0.931 . S
H452 C467 0.930 . S
C453 H441 0.930 . S
C453 C454 1.399 . S
C453 C458 1.399 . S
C454 C453 1.399 . S
C454 C455 1.376 . S
C455 H442 0.930 . S
C455 C454 1.376 . S
C455 C456 1.388 . S
C456 H443 0.930 . S
C456 C455 1.388 . S
C456 C457 1.390 . S
C457 C456 1.390 . S
C457 C458 1.394 . S
C457 C463 1.465 . S
C458 C453 1.399 . S
C458 C457 1.394 . S
C458 C459 1.516 . S
C459 C458 1.516 . S
C459 C460 1.502 . S
C459 C461 1.561 . S
C459 C462 1.526 . S
C460 H444 0.959 . S
C460 H445 0.959 . S
C460 H446 0.961 . S
C460 C459 1.502 . S
C461 H447 0.960 . S
C461 H448 0.961 . S
C461 H449 0.959 . S
C461 C459 1.561 . S
C462 C459 1.526 . S
C462 C463 1.396 . S
C462 C467 1.390 . S
C463 C457 1.465 . S
C463 C462 1.396 . S
C463 C464 1.399 . S
C464 H450 0.929 . S
C464 C463 1.399 . S
C464 C465 1.385 . S
C465 H451 0.931 . S
C465 C464 1.385 . S
C465 C466 1.389 . S
C466 C465 1.389 . S
C466 C467 1.387 . S
C467 H452 0.930 . S
C467 C462 1.390 . S
C467 C466 1.387 . S
H468 C480 0.930 . S
H469 C482 0.930 . S
H470 C483 0.930 . S
H471 C487 0.959 . S
H472 C487 0.959 . S
H473 C487 0.961 . S
H474 C488 0.960 . S
H475 C488 0.961 . S
H476 C488 0.959 . S
H477 C491 0.929 . S
H478 C492 0.931 . S
H479 C494 0.930 . S
C480 H468 0.930 . S
C480 C481 1.399 . S
C480 C485 1.399 . S
C481 C480 1.399 . S
C481 C482 1.376 . S
C482 H469 0.930 . S
C482 C481 1.376 . S
C482 C483 1.388 . S
C483 H470 0.930 . S
C483 C482 1.388 . S
C483 C484 1.390 . S
C484 C483 1.390 . S
C484 C485 1.394 . S
C484 C490 1.465 . S
C485 C480 1.399 . S
C485 C484 1.394 . S
C485 C486 1.516 . S
C486 C485 1.516 . S
C486 C487 1.502 . S
C486 C488 1.561 . S
C486 C489 1.526 . S
C487 H471 0.959 . S
C487 H472 0.959 . S
C487 H473 0.961 . S
C487 C486 1.502 . S
C488 H474 0.960 . S
C488 H475 0.961 . S
C488 H476 0.959 . S
C488 C486 1.561 . S
C489 C486 1.526 . S
C489 C490 1.396 . S
C489 C494 1.390 . S
C490 C484 1.465 . S
C490 C489 1.396 . S
C490 C491 1.399 . S
C491 H477 0.929 . S
C491 C490 1.399 . S
C491 C492 1.385 . S
C492 H478 0.931 . S
C492 C491 1.385 . S
C492 C493 1.389 . S
C493 C492 1.389 . S
C493 C494 1.387 . S
C494 H479 0.930 . S
C494 C489 1.390 . S
C494 C493 1.387 . S
H495 C507 0.930 . S
H496 C509 0.930 . S
H497 C510 0.930 . S
H498 C514 0.959 . S
H499 C514 0.959 . S
H500 C514 0.961 . S
H501 C515 0.960 . S
H502 C515 0.961 . S
H503 C515 0.959 . S
H504 C518 0.929 . S
H505 C519 0.931 . S
H506 C521 0.930 . S
C507 H495 0.930 . S
C507 C508 1.399 . S
C507 C512 1.399 . S
C508 C507 1.399 . S
C508 C509 1.376 . S
C509 H496 0.930 . S
C509 C508 1.376 . S
C509 C510 1.388 . S
C510 H497 0.930 . S
C510 C509 1.388 . S
C510 C511 1.390 . S
C511 C510 1.390 . S
C511 C512 1.394 . S
C511 C517 1.465 . S
C512 C507 1.399 . S
C512 C511 1.394 . S
C512 C513 1.516 . S
C513 C512 1.516 . S
C513 C514 1.502 . S
C513 C515 1.561 . S
C513 C516 1.526 . S
C514 H498 0.959 . S
C514 H499 0.959 . S
C514 H500 0.961 . S
C514 C513 1.502 . S
C515 H501 0.960 . S
C515 H502 0.961 . S
C515 H503 0.959 . S
C515 C513 1.561 . S
C516 C513 1.526 . S
C516 C517 1.396 . S
C516 C521 1.390 . S
C517 C511 1.465 . S
C517 C516 1.396 . S
C517 C518 1.399 . S
C518 H504 0.929 . S
C518 C517 1.399 . S
C518 C519 1.385 . S
C519 H505 0.931 . S
C519 C518 1.385 . S
C519 C520 1.389 . S
C520 C519 1.389 . S
C520 C521 1.387 . S
C521 H506 0.930 . S
C521 C516 1.390 . S
C521 C520 1.387 . S
H522 C534 0.930 . S
H523 C536 0.930 1_655 S
H524 C537 0.930 1_655 S
H525 C541 0.959 . S
H526 C541 0.959 1_556 S
H527 C541 0.961 . S
H528 C542 0.960 . S
H529 C542 0.961 . S
H530 C542 0.959 . S
H531 C545 0.929 1_654 S
H532 C546 0.931 . S
H533 C548 0.930 . S
C534 H522 0.930 . S
C534 C535 1.399 . S
C534 C539 1.399 . S
C535 C534 1.399 . S
C535 C536 1.376 . S
C536 H523 0.930 1_455 S
C536 C535 1.376 . S
C536 C537 1.388 . S
C537 H524 0.930 1_455 S
C537 C536 1.388 . S
C537 C538 1.390 . S
C538 C537 1.390 . S
C538 C539 1.394 . S
C538 C544 1.465 . S
C539 C534 1.399 . S
C539 C538 1.394 . S
C539 C540 1.516 . S
C540 C539 1.516 . S
C540 C541 1.502 . S
C540 C542 1.561 . S
C540 C543 1.526 1_554 S
C541 H525 0.959 . S
C541 H526 0.959 1_554 S
C541 H527 0.961 . S
C541 C540 1.502 . S
C542 H528 0.960 . S
C542 H529 0.961 . S
C542 H530 0.959 . S
C542 C540 1.561 . S
C543 C540 1.526 1_556 S
C543 C544 1.396 1_556 S
C543 C548 1.390 . S
C544 C538 1.465 . S
C544 C543 1.396 1_554 S
C544 C545 1.399 1_554 S
C545 H531 0.929 1_456 S
C545 C544 1.399 1_556 S
C545 C546 1.385 . S
C546 H532 0.931 . S
C546 C545 1.385 . S
C546 C547 1.389 . S
C547 C546 1.389 . S
C547 C548 1.387 . S
C548 H533 0.930 . S
C548 C543 1.390 . S
C548 C547 1.387 . S
H549 C561 0.930 . S
H550 C563 0.930 . S
H551 C564 0.930 . S
H552 C568 0.959 . S
H553 C568 0.959 . S
H554 C568 0.961 . S
H555 C569 0.960 . S
H556 C569 0.961 . S
H557 C569 0.959 . S
H558 C572 0.929 . S
H559 C573 0.931 . S
H560 C575 0.930 . S
C561 H549 0.930 . S
C561 C562 1.399 . S
C561 C566 1.399 . S
C562 C561 1.399 . S
C562 C563 1.376 1_545 S
C563 H550 0.930 . S
C563 C562 1.376 1_565 S
C563 C564 1.388 . S
C564 H551 0.930 . S
C564 C563 1.388 . S
C564 C565 1.390 1_565 S
C565 C564 1.390 1_545 S
C565 C566 1.394 . S
C565 C571 1.465 . S
C566 C561 1.399 . S
C566 C565 1.394 . S
C566 C567 1.516 . S
C567 C566 1.516 . S
C567 C568 1.502 . S
C567 C569 1.561 . S
C567 C570 1.526 . S
C568 H552 0.959 . S
C568 H553 0.959 . S
C568 H554 0.961 . S
C568 C567 1.502 . S
C569 H555 0.960 . S
C569 H556 0.961 . S
C569 H557 0.959 . S
C569 C567 1.561 . S
C570 C567 1.526 . S
C570 C571 1.396 . S
C570 C575 1.390 . S
C571 C565 1.465 . S
C571 C570 1.396 . S
C571 C572 1.399 1_545 S
C572 H558 0.929 . S
C572 C571 1.399 1_565 S
C572 C573 1.385 . S
C573 H559 0.931 . S
C573 C572 1.385 . S
C573 C574 1.389 1_565 S
C574 C573 1.389 1_545 S
C574 C575 1.387 . S
C575 H560 0.930 . S
C575 C570 1.390 . S
C575 C574 1.387 . S
H576 C588 0.930 . S
H577 C590 0.930 . S
H578 C591 0.930 . S
H579 C595 0.959 . S
H580 C595 0.959 . S
H581 C595 0.961 . S
H582 C596 0.960 . S
H583 C596 0.961 . S
H584 C596 0.959 . S
H585 C599 0.929 . S
H586 C600 0.931 . S
H587 C602 0.930 . S
C588 H576 0.930 . S
C588 C589 1.399 . S
C588 C593 1.399 . S
C589 C588 1.399 . S
C589 C590 1.376 . S
C590 H577 0.930 . S
C590 C589 1.376 . S
C590 C591 1.388 . S
C591 H578 0.930 . S
C591 C590 1.388 . S
C591 C592 1.390 . S
C592 C591 1.390 . S
C592 C593 1.394 . S
C592 C598 1.465 . S
C593 C588 1.399 . S
C593 C592 1.394 . S
C593 C594 1.516 . S
C594 C593 1.516 . S
C594 C595 1.502 . S
C594 C596 1.561 . S
C594 C597 1.526 . S
C595 H579 0.959 . S
C595 H580 0.959 . S
C595 H581 0.961 . S
C595 C594 1.502 . S
C596 H582 0.960 . S
C596 H583 0.961 . S
C596 H584 0.959 . S
C596 C594 1.561 . S
C597 C594 1.526 . S
C597 C598 1.396 . S
C597 C602 1.390 . S
C598 C592 1.465 . S
C598 C597 1.396 . S
C598 C599 1.399 . S
C599 H585 0.929 . S
C599 C598 1.399 . S
C599 C600 1.385 . S
C600 H586 0.931 . S
C600 C599 1.385 . S
C600 C601 1.389 . S
C601 C600 1.389 . S
C601 C602 1.387 . S
C602 H587 0.930 . S
C602 C597 1.390 . S
C602 C601 1.387 . S
H603 C615 0.930 . S
H604 C617 0.930 . S
H605 C618 0.930 . S
H606 C622 0.959 . S
H607 C622 0.959 . S
H608 C622 0.961 . S
H609 C623 0.960 . S
H610 C623 0.961 . S
H611 C623 0.959 . S
H612 C626 0.929 . S
H613 C627 0.931 . S
H614 C629 0.930 . S
C615 H603 0.930 . S
C615 C616 1.399 1_565 S
C615 C620 1.400 1_565 S
C616 C615 1.399 1_545 S
C616 C617 1.376 . S
C617 H604 0.930 . S
C617 C616 1.376 . S
C617 C618 1.388 . S
C618 H605 0.930 . S
C618 C617 1.388 . S
C618 C619 1.390 . S
C619 C618 1.390 . S
C619 C620 1.392 . S
C619 C625 1.465 . S
C620 C615 1.400 1_545 S
C620 C619 1.392 . S
C620 C621 1.517 1_545 S
C621 C620 1.517 1_565 S
C621 C622 1.502 . S
C621 C623 1.561 . S
C621 C624 1.540 . S
C622 H606 0.959 . S
C622 H607 0.959 . S
C622 H608 0.961 . S
C622 C621 1.502 . S
C623 H609 0.960 . S
C623 H610 0.961 . S
C623 H611 0.959 . S
C623 C621 1.561 . S
C624 C621 1.540 . S
C624 C625 1.382 1_565 S
C624 C629 1.389 . S
C625 C619 1.465 . S
C625 C624 1.382 1_545 S
C625 C626 1.399 . S
C626 H612 0.929 . S
C626 C625 1.399 . S
C626 C627 1.385 . S
C627 H613 0.931 . S
C627 C626 1.385 . S
C627 C628 1.389 . S
C628 C627 1.389 . S
C628 C629 1.387 1_545 S
C629 H614 0.930 . S
C629 C624 1.389 . S
C629 C628 1.387 1_565 S
H630 C642 0.930 . S
H631 C644 0.930 . S
H632 C645 0.930 . S
H633 C649 0.959 . S
H634 C649 0.959 1_554 S
H635 C649 0.961 . S
H636 C650 0.960 . S
H637 C650 0.961 1_554 S
H638 C650 0.959 . S
H639 C653 0.929 . S
H640 C654 0.931 . S
H641 C656 0.930 . S
C642 H630 0.930 . S
C642 C643 1.399 . S
C642 C647 1.399 . S
C643 C642 1.399 . S
C643 C644 1.376 . S
C644 H631 0.930 . S
C644 C643 1.376 . S
C644 C645 1.388 . S
C645 H632 0.930 . S
C645 C644 1.388 . S
C645 C646 1.390 . S
C646 C645 1.390 . S
C646 C647 1.394 . S
C646 C652 1.465 1_556 S
C647 C642 1.399 . S
C647 C646 1.394 . S
C647 C648 1.516 . S
C648 C647 1.516 . S
C648 C649 1.502 . S
C648 C650 1.561 . S
C648 C651 1.526 1_556 S
C649 H633 0.959 . S
C649 H634 0.959 1_556 S
C649 H635 0.961 . S
C649 C648 1.502 . S
C650 H636 0.960 . S
C650 H637 0.961 1_556 S
C650 H638 0.959 . S
C650 C648 1.561 . S
C651 C648 1.526 1_554 S
C651 C652 1.396 . S
C651 C656 1.390 . S
C652 C646 1.465 1_554 S
C652 C651 1.396 . S
C652 C653 1.399 . S
C653 H639 0.929 . S
C653 C652 1.399 . S
C653 C654 1.385 . S
C654 H640 0.931 . S
C654 C653 1.385 . S
C654 C655 1.389 . S
C655 C654 1.389 . S
C655 C656 1.387 . S
C656 H641 0.930 . S
C656 C651 1.390 . S
C656 C655 1.387 . S
H657 C669 0.930 1_655 S
H658 C671 0.930 . S
H659 C672 0.930 . S
H660 C676 0.959 . S
H661 C676 0.959 . S
H662 C676 0.961 . S
H663 C677 0.960 . S
H664 C677 0.961 . S
H665 C677 0.959 . S
H666 C680 0.929 . S
H667 C681 0.931 . S
H668 C683 0.930 . S
C669 H657 0.930 1_455 S
C669 C670 1.399 . S
C669 C674 1.399 . S
C670 C669 1.399 . S
C670 C671 1.376 . S
C671 H658 0.930 . S
C671 C670 1.376 . S
C671 C672 1.388 . S
C672 H659 0.930 . S
C672 C671 1.388 . S
C672 C673 1.390 . S
C673 C672 1.390 . S
C673 C674 1.394 . S
C673 C679 1.465 . S
C674 C669 1.399 . S
C674 C673 1.394 . S
C674 C675 1.516 . S
C675 C674 1.516 . S
C675 C676 1.502 1_455 S
C675 C677 1.561 . S
C675 C678 1.526 . S
C676 H660 0.959 . S
C676 H661 0.959 . S
C676 H662 0.961 . S
C676 C675 1.502 1_655 S
C677 H663 0.960 . S
C677 H664 0.961 . S
C677 H665 0.959 . S
C677 C675 1.561 . S
C678 C675 1.526 . S
C678 C679 1.396 . S
C678 C683 1.390 . S
C679 C673 1.465 . S
C679 C678 1.396 . S
C679 C680 1.399 . S
C680 H666 0.929 . S
C680 C679 1.399 . S
C680 C681 1.385 . S
C681 H667 0.931 . S
C681 C680 1.385 . S
C681 C682 1.389 . S
C682 C681 1.389 . S
C682 C683 1.387 . S
C683 H668 0.930 . S
C683 C678 1.390 . S
C683 C682 1.387 . S
C211 C10 3.050 . S
C223 C189 2.879 . S
C238 C59 2.988 . S
C250 C167 2.971 1_655 S
C265 C90 2.921 . S
C277 C180 2.895 . S
C292 C19 3.008 . S
C304 C193 2.963 . S
C331 C163 2.920 . S
C319 C50 3.072 . S
C358 C176 2.963 . S
C346 C99 3.140 . S
C373 C46 0.177 . S
C385 C141 0.196 . S
C400 C95 0.375 . S
C412 C154 0.322 . S
C427 C6 0.583 . S
C439 C124 0.633 . S
C466 C137 0.518 . S
C454 C55 0.543 . S
C493 C150 0.603 . S
C481 C86 0.527 . S
C508 C15 0.229 . S
C520 C128 0.180 . S
C547 C155 1.256 . S
C535 C9 1.248 . S
C562 C49 1.223 . S
C574 C129 1.269 . S
C589 C89 1.157 . S
C601 C142 1.196 . S
C628 C181 1.792 . S
C616 C58 1.698 . S
C655 C194 1.734 . S
C643 C98 1.716 . S
C670 C18 1.702 . S
C682 C168 1.763 . S
