# Generated by pormake.
# Topology zzz, (3,6)-cn, num edge types: 1
# Building blocks:
#     Node 0, Type 0, BuildingBlock: BETDAH_clean_linker_0, # of connection points: 3
#     Node 1, Type 0, BuildingBlock: BETDAH_clean_linker_0, # of connection points: 3
#     Node 2, Type 0, BuildingBlock: BETDAH_clean_linker_0, # of connection points: 3
#     Node 3, Type 0, BuildingBlock: BETDAH_clean_linker_0, # of connection points: 3
#     Node 4, Type 0, BuildingBlock: BETDAH_clean_linker_0, # of connection points: 3
#     Node 5, Type 0, BuildingBlock: BETDAH_clean_linker_0, # of connection points: 3
#     Node 6, Type 0, BuildingBlock: BETDAH_clean_linker_0, # of connection points: 3
#     Node 7, Type 0, BuildingBlock: BETDAH_clean_linker_0, # of connection points: 3
#     Node 8, Type 1, BuildingBlock: KUMBUR_clean_sbu_0, # of connection points: 6
#     Node 9, Type 1, BuildingBlock: KUMBUR_clean_sbu_0, # of connection points: 6
#     Node 10, Type 1, BuildingBlock: KUMBUR_clean_sbu_0, # of connection points: 6
#     Node 11, Type 1, BuildingBlock: KUMBUR_clean_sbu_0, # of connection points: 6
#     Edge 12, Type (0, 1), BuildingBlock: TEMPAE_clean_linker_10, # of connection points: 2
#     Edge 13, Type (0, 1), BuildingBlock: TEMPAE_clean_linker_10, # of connection points: 2
#     Edge 14, Type (0, 1), BuildingBlock: TEMPAE_clean_linker_10, # of connection points: 2
#     Edge 15, Type (0, 1), BuildingBlock: TEMPAE_clean_linker_10, # of connection points: 2
#     Edge 16, Type (0, 1), BuildingBlock: TEMPAE_clean_linker_10, # of connection points: 2
#     Edge 17, Type (0, 1), BuildingBlock: TEMPAE_clean_linker_10, # of connection points: 2
#     Edge 18, Type (0, 1), BuildingBlock: TEMPAE_clean_linker_10, # of connection points: 2
#     Edge 19, Type (0, 1), BuildingBlock: TEMPAE_clean_linker_10, # of connection points: 2
#     Edge 20, Type (0, 1), BuildingBlock: TEMPAE_clean_linker_10, # of connection points: 2
#     Edge 21, Type (0, 1), BuildingBlock: TEMPAE_clean_linker_10, # of connection points: 2
#     Edge 22, Type (0, 1), BuildingBlock: TEMPAE_clean_linker_10, # of connection points: 2
#     Edge 23, Type (0, 1), BuildingBlock: TEMPAE_clean_linker_10, # of connection points: 2
#     Edge 24, Type (0, 1), BuildingBlock: TEMPAE_clean_linker_10, # of connection points: 2
#     Edge 25, Type (0, 1), BuildingBlock: TEMPAE_clean_linker_10, # of connection points: 2
#     Edge 26, Type (0, 1), BuildingBlock: TEMPAE_clean_linker_10, # of connection points: 2
#     Edge 27, Type (0, 1), BuildingBlock: TEMPAE_clean_linker_10, # of connection points: 2
#     Edge 28, Type (0, 1), BuildingBlock: TEMPAE_clean_linker_10, # of connection points: 2
#     Edge 29, Type (0, 1), BuildingBlock: TEMPAE_clean_linker_10, # of connection points: 2
#     Edge 30, Type (0, 1), BuildingBlock: TEMPAE_clean_linker_10, # of connection points: 2
#     Edge 31, Type (0, 1), BuildingBlock: TEMPAE_clean_linker_10, # of connection points: 2
#     Edge 32, Type (0, 1), BuildingBlock: TEMPAE_clean_linker_10, # of connection points: 2
#     Edge 33, Type (0, 1), BuildingBlock: TEMPAE_clean_linker_10, # of connection points: 2
#     Edge 34, Type (0, 1), BuildingBlock: TEMPAE_clean_linker_10, # of connection points: 2
#     Edge 35, Type (0, 1), BuildingBlock: TEMPAE_clean_linker_10, # of connection points: 2
# Relax obj value: 0.175
# Max RMSD: 0.164
# Mean RMSD: 0.117
data_MOF--net-zzz--node1-KUMBUR_clean_sbu_0--node2-BETDAH_clean_linker_0--edge1-TEMPAE_clean_linker_10
_symmetry_space_group_name_H-M    P1
_symmetry_Int_Tables_number       1
_symmetry_cell_setting            triclinic
loop_
_symmetry_equiv_pos_as_xyz
'x, y, z'
_cell_length_a     51.498938
_cell_length_b     51.478748
_cell_length_c     15.086598
_cell_angle_alpha  90.529662
_cell_angle_beta   90.122451
_cell_angle_gamma 89.967555
loop_
_atom_site_label
_atom_site_type_symbol
_atom_site_fract_x
_atom_site_fract_y
_atom_site_fract_z
_atom_type_partial_charge
H0 H 0.81765 0.55673 0.24266 0.0
H1 H 0.74244 0.54926 0.12262 0.0
H2 H 0.75281 0.53397 0.40216 0.0
C3 C 0.79705 0.55263 0.24902 0.0
C4 C 0.78778 0.54436 0.33071 0.0
C5 C 0.78132 0.55275 0.1731 0.0
C6 C 0.75453 0.54891 0.18139 0.0
C7 C 0.74369 0.54321 0.26469 0.0
C8 C 0.76063 0.54017 0.33926 0.0
N9 N 0.71626 0.53917 0.2738 0.0
C10 C 0.69777 0.54113 0.20508 0.0
H11 H 0.99697 0.83086 0.12113 0.0
H12 H 1.00108 0.75008 0.06423 0.0
H13 H 0.99938 0.77625 0.3374 0.0
C14 C 0.99832 0.81142 0.1473 0.0
C15 C 0.99922 0.80729 0.23949 0.0
C16 C 1.00016 0.791 0.08563 0.0
C17 C 0.99967 0.76542 0.11356 0.0
C18 C 0.99873 0.75959 0.20389 0.0
C19 C 0.99892 0.78067 0.26744 0.0
N20 N 0.99871 0.73279 0.23048 0.0
C21 C 0.9994 0.71124 0.17115 0.0
H22 H 0.69707 0.95889 0.20829 0.0
H23 H 0.77135 0.9706 0.08913 0.0
H24 H 0.75078 0.01245 0.32863 0.0
C25 C 0.71622 0.9674 0.21222 0.0
C26 C 0.72137 0.9857 0.27936 0.0
C27 C 0.73373 0.96209 0.14329 0.0
C28 C 0.75811 0.97428 0.14349 0.0
C29 C 0.76477 0.99216 0.21095 0.0
C30 C 0.74607 0.99813 0.27812 0.0
N31 N 0.78951 1.00508 0.21088 0.0
C32 C 0.80947 1.00204 0.14748 0.0
H33 H 0.55611 0.71823 0.25395 0.0
H34 H 0.54968 0.79075 0.11798 0.0
H35 H 0.52397 0.78424 0.38978 0.0
C36 C 0.55142 0.73875 0.25547 0.0
C37 C 0.53911 0.74894 0.33023 0.0
C38 C 0.55433 0.75319 0.17813 0.0
C39 C 0.54791 0.77974 0.17848 0.0
C40 C 0.53833 0.79162 0.25676 0.0
C41 C 0.53323 0.77581 0.3319 0.0
N42 N 0.53227 0.8188 0.26096 0.0
C43 C 0.53582 0.83724 0.19374 0.0
H44 H 0.21448 0.47934 0.13087 0.0
H45 H 0.29303 0.48883 0.22071 0.0
H46 H 0.26751 0.52549 0.97935 0.0
C47 C 0.23385 0.4869 0.12051 0.0
C48 C 0.23827 0.50237 0.04583 0.0
C49 C 0.25333 0.4821 0.18411 0.0
C50 C 0.27808 0.49262 0.172 0.0
C51 C 0.2835 0.50855 0.09942 0.0
C52 C 0.26357 0.51304 0.03519 0.0
N53 N 0.30842 0.52083 0.09225 0.0
C54 C 0.32823 0.51987 0.15708 0.0
H55 H 0.06744 0.21471 0.09653 0.0
H56 H 0.05409 0.28882 0.21412 0.0
H57 H 1.00846 0.26437 0.98713 0.0
C58 C 0.05775 0.23319 0.0921 0.0
C59 C 0.038 0.23663 0.02878 0.0
C60 C 0.06368 0.25166 0.15782 0.0
C61 C 0.04995 0.27508 0.16116 0.0
C62 C 0.03007 0.28013 0.09981 0.0
C63 C 0.02403 0.2607 0.03363 0.0
N64 N 0.01546 0.30399 0.10576 0.0
C65 C 0.01863 0.32402 0.17018 0.0
H66 H 0.31831 0.05251 0.12098 0.0
H67 H 0.23722 0.05589 0.18109 0.0
H68 H 0.2623 0.03654 0.9154 0.0
C69 C 0.29835 0.05184 0.09815 0.0
C70 C 0.29337 0.04562 0.00879 0.0
C71 C 0.27828 0.05536 0.1601 0.0
C72 C 0.25249 0.05296 0.13278 0.0
C73 C 0.24625 0.04568 0.04567 0.0
C74 C 0.26687 0.04203 0.9831 0.0
N75 N 0.21953 0.04138 0.02176 0.0
C76 C 0.19851 0.04227 0.08204 0.0
H77 H 0.5124 0.31905 0.0649 0.0
H78 H 0.50828 0.2401 0.15379 0.0
H79 H 0.4852 0.25967 0.88668 0.0
C80 C 0.50854 0.29868 0.05136 0.0
C81 C 0.49919 0.29182 0.96754 0.0
C82 C 0.51215 0.28019 0.11839 0.0
C83 C 0.50569 0.25419 0.10172 0.0
C84 C 0.49581 0.24641 0.01862 0.0
C85 C 0.49276 0.2654 0.95097 0.0
N86 N 0.48864 0.21987 1.00247 0.0
C87 C 0.4896 0.19993 0.06581 0.0
Tb88 Tb 0.03233 0.01484 0.71701 0.0
C89 C 0.93325 1.00242 0.49662 0.0
C90 C 0.94389 0.97473 0.37157 0.0
C91 C 0.89928 0.97745 0.42279 0.0
C92 C 0.95149 0.99222 0.43952 0.0
C93 C 0.90687 0.99534 0.48872 0.0
C94 C 0.91775 0.96726 0.364 0.0
C95 C 0.8971 0.02567 0.60697 0.0
N96 N 0.94125 0.02 0.55815 0.0
C97 C 0.92338 0.0324 0.61107 0.0
C98 C 0.88882 1.0069 0.54595 0.0
Tb99 Tb 0.98472 0.03029 0.55906 0.0
N100 N 0.97658 0.99987 0.44927 0.0
C101 C 0.99486 0.99129 0.3899 0.0
C102 C 0.96272 0.96548 0.31269 0.0
C103 C 0.98827 0.97395 0.32162 0.0
H104 H 0.92952 0.04703 0.65839 0.0
H105 H 1.00298 0.96716 0.27584 0.0
H106 H 0.9116 0.95377 0.31253 0.0
H107 H 0.88326 0.03503 0.65071 0.0
H108 H 0.01486 0.99702 0.3949 0.0
H109 H 0.01584 0.07215 0.01645 0.0
H110 H 0.9577 0.952 0.25979 0.0
H111 H 0.08989 0.99401 0.64195 0.0
H112 H 1.00565 0.03884 0.9068 0.0
H113 H 0.13526 1.00908 0.64507 0.0
H114 H 0.87913 0.97173 0.41572 0.0
H115 H 0.05714 0.0962 0.00846 0.0
H116 H 0.10085 0.10104 0.93855 0.0
H117 H 0.86841 1.00186 0.54236 0.0
H118 H 0.13367 0.0839 0.83578 0.0
N119 N 0.03926 0.04545 0.82696 0.0
C120 C 0.02308 0.04978 0.89755 0.0
C121 C 0.0524 0.08203 0.95736 0.0
C122 C 0.07013 0.07575 0.89054 0.0
C123 C 0.02909 0.06849 0.96215 0.0
C124 C 0.06312 0.05686 0.82628 0.0
H125 H 0.14693 0.049 0.7282 0.0
N126 N 0.07545 0.02612 0.71791 0.0
C127 C 0.1204 0.02005 0.6796 0.0
C128 C 0.08185 0.04689 0.76954 0.0
C129 C 0.09461 0.01162 0.67785 0.0
C130 C 0.12687 0.04268 0.72614 0.0
C131 C 0.10771 0.05589 0.77437 0.0
O132 O 0.0563 0.99639 0.81065 0.0
O133 O 1.00649 0.99837 0.61628 0.0
O134 O 0.96623 1.00704 0.6629 0.0
O135 O 0.99311 0.01822 0.78013 0.0
O136 O 0.04381 0.98562 0.61756 0.0
O137 O 0.01923 0.98044 0.77628 0.0
O138 O 0.96185 0.06185 0.52015 0.0
O139 O 0.01165 0.04649 0.65743 0.0
O140 O 0.05327 0.03324 0.60606 0.0
O141 O 0.02307 0.03076 0.49217 0.0
O142 O 0.97569 0.06198 0.65506 0.0
O143 O 0.99453 0.04948 0.44128 0.0
C144 C 0.02168 0.98186 0.57982 0.0
C145 C 0.05457 0.9512 0.78498 0.0
C146 C 0.05142 0.9072 0.72305 0.0
C147 C 0.04009 0.93134 0.74414 0.0
C148 C 0.07841 0.90427 0.73565 0.0
C149 C 0.08134 0.94766 0.79792 0.0
C150 C 0.09321 0.9245 0.7716 0.0
C151 C 0.97012 0.0104 0.74904 0.0
C152 C 0.04183 0.97582 0.8111 0.0
C153 C 0.114 0.0765 0.832 0.0
C154 C 0.09528 0.0863 0.89042 0.0
C155 C 0.9978 0.064 0.69359 0.0
C156 C 0.98898 0.09461 0.46613 0.0
C157 C 0.01412 0.10014 0.43508 0.0
C158 C 0.02526 0.12447 0.452 0.0
C159 C 0.01096 0.14354 0.4978 0.0
C160 C 0.97499 0.11399 0.51205 0.0
C161 C 0.98604 0.13825 0.52814 0.0
C162 C 0.04713 0.03471 0.52093 0.0
C163 C 0.97813 0.0682 0.45819 0.0
H164 H 0.01969 0.93453 0.73099 0.0
H165 H 0.08805 0.88597 0.72248 0.0
H166 H 0.0931 0.9628 0.82803 0.0
H167 H 0.11385 0.92187 0.78201 0.0
H168 H 0.02506 0.08569 0.39806 0.0
H169 H 0.01889 0.1628 0.50839 0.0
H170 H 0.95563 0.11028 0.53682 0.0
H171 H 0.97521 0.15304 0.56367 0.0
Tb172 Tb 0.51555 0.04909 0.71162 0.0
C173 C 0.53924 0.94619 0.54235 0.0
C174 C 0.56212 0.9542 0.40545 0.0
C175 C 0.57125 0.91507 0.48864 0.0
C176 C 0.54447 0.96233 0.47174 0.0
C177 C 0.55193 0.92199 0.54988 0.0
C178 C 0.57615 0.93103 0.41603 0.0
C179 C 0.52194 0.91093 0.66636 0.0
N180 N 0.51953 0.95284 0.59757 0.0
C181 C 0.50973 0.93495 0.65565 0.0
C182 C 0.54356 0.90468 0.61482 0.0
Tb183 Tb 0.50235 0.9936 0.57838 0.0
N184 N 0.52953 0.98392 0.46144 0.0
C185 C 0.52858 0.99558 0.38018 0.0
C186 C 0.56356 0.96839 0.32712 0.0
C187 C 0.54609 0.98862 0.31328 0.0
H188 H 0.49324 0.93977 0.69677 0.0
H189 H 0.54572 0.99855 0.25034 0.0
H190 H 0.5898 0.92454 0.3659 0.0
H191 H 0.5147 0.89727 0.71437 0.0
H192 H 0.51404 0.00983 0.36435 0.0
H193 H 0.45417 0.04556 1.00132 0.0
H194 H 0.57683 0.96281 0.27467 0.0
H195 H 0.53187 0.09889 0.58427 0.0
H196 H 0.48531 0.02844 0.89314 0.0
H197 H 0.51743 0.1439 0.55974 0.0
H198 H 0.58137 0.89668 0.4938 0.0
H199 H 0.43579 0.08954 0.98304 0.0
H200 H 0.43251 0.13015 0.89377 0.0
H201 H 0.55282 0.88594 0.62272 0.0
H202 H 0.44919 0.15675 0.77164 0.0
N203 N 0.48378 0.06165 0.8096 0.0
C204 C 0.47711 0.04738 0.88219 0.0
C205 C 0.44887 0.08175 0.93346 0.0
C206 C 0.456 0.09651 0.8603 0.0
C207 C 0.45941 0.05705 0.94438 0.0
C208 C 0.47407 0.08597 0.79973 0.0
H209 H 0.48104 0.16212 0.64709 0.0
N210 N 0.50316 0.09106 0.68217 0.0
C211 C 0.50775 0.13207 0.60848 0.0
C212 C 0.48393 0.10114 0.73306 0.0
C213 C 0.5159 0.10653 0.62278 0.0
C214 C 0.48715 0.14224 0.65767 0.0
C215 C 0.47536 0.12697 0.72238 0.0
O216 O 0.54619 0.0745 0.74057 0.0
O217 O 0.53216 0.01912 0.62654 0.0
O218 O 0.52714 0.98169 0.68981 0.0
O219 O 0.51793 0.01344 0.79447 0.0
O220 O 0.54838 0.05449 0.61843 0.0
O221 O 0.53242 0.04749 0.83845 0.0
O222 O 0.48162 0.96276 0.51959 0.0
O223 O 0.48542 0.02267 0.66676 0.0
O224 O 0.4916 0.06088 0.59831 0.0
O225 O 0.50441 0.02949 0.49662 0.0
O226 O 0.47497 0.98526 0.68744 0.0
O227 O 0.4679 1.002 0.50864 0.0
C228 C 0.54977 0.03141 0.5864 0.0
C229 C 0.5777 0.05516 0.82942 0.0
C230 C 0.60948 0.02171 0.86155 0.0
C231 C 0.58361 0.02973 0.8564 0.0
C232 C 0.62949 0.0391 0.84045 0.0
C233 C 0.59793 0.07238 0.80892 0.0
C234 C 0.6237 0.06431 0.81409 0.0
C235 C 0.52608 0.98971 0.77315 0.0
C236 C 0.55076 0.06367 0.81658 0.0
C237 C 0.45612 0.13701 0.77895 0.0
C238 C 0.4466 0.12186 0.84835 0.0
C239 C 0.47041 1.00873 0.71297 0.0
C240 C 0.43664 0.96986 0.5372 0.0
C241 C 0.41462 0.9841 0.51388 0.0
C242 C 0.39064 0.97895 0.55346 0.0
C243 C 0.38853 0.95938 0.61687 0.0
C244 C 0.43432 0.94993 0.60017 0.0
C245 C 0.4104 0.94489 0.64004 0.0
C246 C 0.49561 0.05323 0.51544 0.0
C247 C 0.46199 0.97752 0.50061 0.0
H248 H 0.56837 0.01623 0.87372 0.0
H249 H 0.64963 0.0332 0.84534 0.0
H250 H 0.59375 0.09201 0.78775 0.0
H251 H 0.63921 0.07762 0.79791 0.0
H252 H 0.41615 0.99944 0.46529 0.0
H253 H 0.36995 0.95495 0.64661 0.0
H254 H 0.45099 0.93853 0.61977 0.0
H255 H 0.40879 0.92967 0.68874 0.0
Tb256 Tb 0.53541 0.51712 0.59114 0.0
C257 C 0.43625 0.54435 0.72202 0.0
C258 C 0.42777 0.58968 0.75702 0.0
C259 C 0.39339 0.56276 0.6952 0.0
C260 C 0.44492 0.56834 0.75202 0.0
C261 C 0.41012 0.5412 0.69557 0.0
C262 C 0.40221 0.58696 0.7258 0.0
C263 C 0.41838 0.49539 0.67676 0.0
N264 N 0.45299 0.52386 0.72327 0.0
C265 C 0.44415 0.49941 0.70283 0.0
C266 C 0.40135 0.51637 0.67249 0.0
Tb267 Tb 0.49471 0.53384 0.76709 0.0
N268 N 0.46961 0.57022 0.7828 0.0
C269 C 0.47745 0.59196 0.82854 0.0
C270 C 0.43649 0.61276 0.79686 0.0
C271 C 0.46127 0.61371 0.83447 0.0
H272 H 0.45667 0.48275 0.7037 0.0
H273 H 0.46793 0.63116 0.86799 0.0
H274 H 0.38885 0.60323 0.7279 0.0
H275 H 0.4117 0.47606 0.65948 0.0
H276 H 0.49653 0.59275 0.85758 0.0
H277 H 0.60169 0.4613 0.79257 0.0
H278 H 0.42392 0.62959 0.80191 0.0
H279 H 0.54803 0.5581 0.42745 0.0
H280 H 0.55955 0.47286 0.72879 0.0
H281 H 0.58547 0.58268 0.37075 0.0
H282 H 0.3734 0.56075 0.67368 0.0
H283 H 0.64064 0.48716 0.75722 0.0
H284 H 0.66053 0.52429 0.67438 0.0
H285 H 0.38135 0.51309 0.65336 0.0
H286 H 0.65596 0.55798 0.5607 0.0
N287 N 0.57382 0.50554 0.65795 0.0
C288 C 0.57612 0.48449 0.71216 0.0
C289 C 0.62202 0.49262 0.72972 0.0
C290 C 0.61979 0.51367 0.67235 0.0
C291 C 0.60013 0.47781 0.749 0.0
C292 C 0.59518 0.51947 0.63634 0.0
H293 H 0.62815 0.57949 0.44545 0.0
N294 N 0.56898 0.54163 0.53548 0.0
C295 C 0.58775 0.57047 0.42827 0.0
C296 C 0.59263 0.53833 0.57302 0.0
C297 C 0.56661 0.55637 0.46046 0.0
C298 C 0.61175 0.56871 0.47083 0.0
C299 C 0.6146 0.552 0.54281 0.0
O300 O 0.53291 0.512 0.45352 0.0
O301 O 0.49479 0.51857 0.63273 0.0
O302 O 0.49676 0.49123 0.77036 0.0
O303 O 0.52051 0.47985 0.64456 0.0
O304 O 0.50456 0.53518 0.51416 0.0
O305 O 0.54697 0.4813 0.53555 0.0
O306 O 0.51036 0.51905 0.88585 0.0
O307 O 0.53443 0.52437 0.73222 0.0
O308 O 0.53602 0.56013 0.59941 0.0
O309 O 0.50062 0.57003 0.68993 0.0
O310 O 0.52806 0.5584 0.79972 0.0
O311 O 0.47247 0.53539 0.88471 0.0
C312 C 0.48542 0.53026 0.56548 0.0
C313 C 0.52081 0.46985 0.41151 0.0
C314 C 0.50128 0.42679 0.39519 0.0
C315 C 0.51699 0.4445 0.44242 0.0
C316 C 0.4884 0.43569 0.3182 0.0
C317 C 0.5076 0.47813 0.33533 0.0
C318 C 0.49121 0.4612 0.28985 0.0
C319 C 0.50742 0.47366 0.71717 0.0
C320 C 0.53895 0.48764 0.4569 0.0
C321 C 0.6389 0.54749 0.58223 0.0
C322 C 0.64151 0.52829 0.64687 0.0
C323 C 0.54607 0.54327 0.77035 0.0
C324 C 0.49741 0.54236 0.01352 0.0
C325 C 0.51583 0.56248 0.01029 0.0
C326 C 0.5182 0.58084 0.07965 0.0
C327 C 0.5035 0.57659 0.15727 0.0
C328 C 0.48355 0.53838 0.09175 0.0
C329 C 0.48708 0.55511 0.16398 0.0
C330 C 0.51899 0.57696 0.63288 0.0
C331 C 0.49107 0.52668 0.93406 0.0
H332 H 0.5267 0.43865 0.50253 0.0
H333 H 0.47688 0.42289 0.27678 0.0
H334 H 0.51011 0.49763 0.31033 0.0
H335 H 0.48126 0.46764 0.23068 0.0
H336 H 0.52795 0.56407 0.95313 0.0
H337 H 0.50377 0.59006 0.21255 0.0
H338 H 0.46972 0.52261 0.09638 0.0
H339 H 0.47632 0.55205 0.22447 0.0
Tb340 Tb 0.02221 0.54109 0.58744 0.0
C341 C 0.03102 0.44105 0.79974 0.0
C342 C 1.00794 0.40844 0.71479 0.0
C343 C 0.04338 0.39561 0.81148 0.0
C344 C 0.01224 0.43467 0.73848 0.0
C345 C 0.04649 0.42158 0.83866 0.0
C346 C 0.02406 0.38903 0.74974 0.0
C347 C 0.06484 0.45449 0.93498 0.0
N348 N 0.03301 0.46623 0.82529 0.0
C349 C 0.04893 0.47302 0.89479 0.0
C350 C 0.0639 0.4287 0.90591 0.0
Tb351 Tb 1.00668 0.49556 0.75405 0.0
N352 N 0.99701 0.454 0.70676 0.0
C353 C 0.97585 0.44796 0.65539 0.0
C354 C 0.98694 0.40242 0.65965 0.0
C355 C 0.97074 0.42225 0.63023 0.0
H356 H 0.05006 0.49295 0.91737 0.0
H357 H 0.9542 0.41775 0.58844 0.0
H358 H 0.02127 0.36882 0.73139 0.0
H359 H 0.07789 0.46015 0.98808 0.0
H360 H 0.96292 0.46274 0.63151 0.0
H361 H 0.0684 0.62152 0.76063 0.0
H362 H 0.98257 0.38247 0.64193 0.0
H363 H 0.98195 0.54143 0.414 0.0
H364 H 0.06209 0.57612 0.71813 0.0
H365 H 0.95558 0.57298 0.33245 0.0
H366 H 0.05522 0.38039 0.83989 0.0
H367 H 0.0403 0.65561 0.69744 0.0
H368 H 1.00389 0.66761 0.59503 0.0
H369 H 0.07615 0.41434 0.93739 0.0
H370 H 0.97315 0.6544 0.47781 0.0
N371 N 0.02965 0.58332 0.63328 0.0
C372 C 0.04938 0.59034 0.68963 0.0
C373 C 0.03704 0.63546 0.67957 0.0
C374 C 0.0177 0.62848 0.61888 0.0
C375 C 0.05308 0.61631 0.71458 0.0
C376 C 0.01472 0.602 0.59606 0.0
H377 H 0.95552 0.61925 0.37781 0.0
N378 N 0.99689 0.56927 0.50681 0.0
C379 C 0.96728 0.57937 0.38819 0.0
C380 C 0.99772 0.5947 0.5302 0.0
C381 C 0.9824 0.56151 0.43487 0.0
C382 C 0.96722 0.60544 0.41418 0.0
C383 C 0.9828 0.61348 0.48529 0.0
O384 O 0.03355 0.53722 0.45432 0.0
O385 O 0.01965 0.49984 0.61971 0.0
O386 O 0.04886 0.49205 0.7298 0.0
O387 O 0.05655 0.53303 0.67342 0.0
O388 O 1.00589 0.51069 0.50004 0.0
O389 O 0.06127 0.54825 0.55466 0.0
O390 O 0.99825 0.4975 0.88991 0.0
O391 O 1.00874 0.53659 0.72177 0.0
O392 O 0.98029 0.54568 0.60927 0.0
O393 O 0.97166 0.50558 0.67262 0.0
O394 O 0.02255 0.52595 0.84209 0.0
O395 O 0.96814 0.48925 0.79444 0.0
C396 C 0.00975 0.49079 0.54862 0.0
C397 C 0.07363 0.51515 0.45453 0.0
C398 C 0.11232 0.48901 0.48043 0.0
C399 C 0.09871 0.5125 0.49 0.0
C400 C 0.10049 0.46793 0.43675 0.0
C401 C 0.06266 0.49418 0.40707 0.0
C402 C 0.07592 0.47069 0.39945 0.0
C403 C 0.06492 0.51149 0.71234 0.0
C404 C 0.05802 0.53847 0.47544 0.0
C405 C 0.9846 0.63971 0.5109 0.0
C406 C 1.00207 0.64722 0.57763 0.0
C407 C 0.01812 0.54575 0.79349 0.0
C408 C 0.95887 0.51955 0.90971 0.0
C409 C 0.93868 0.53093 0.86035 0.0
C410 C 0.92547 0.55308 0.89214 0.0
C411 C 0.93388 0.56424 0.97331 0.0
C412 C 0.96644 0.53095 0.99049 0.0
C413 C 0.95419 0.5533 0.02139 0.0
C414 C 0.9638 0.52705 0.63139 0.0
C415 C 0.97339 0.49691 0.87515 0.0
H416 H 0.10781 0.52876 0.52409 0.0
H417 H 0.11089 0.44984 0.42663 0.0
H418 H 0.04353 0.49558 0.37758 0.0
H419 H 0.06718 0.45465 0.36389 0.0
H420 H 0.93306 0.52224 0.7979 0.0
H421 H 0.92404 0.58067 1.00315 0.0
H422 H 0.98204 0.52268 0.02947 0.0
H423 H 0.96003 0.56182 0.08416 0.0
C424 C 0.16182 0.06525 0.15922 0.0
C425 C 0.17645 0.04258 0.14445 0.0
C426 C 0.1405 0.06565 0.21875 0.0
C427 C 0.13341 0.04279 0.26518 0.0
C428 C 0.14824 0.01987 0.25006 0.0
C429 C 0.16945 0.02005 0.19029 0.0
C430 C 0.12551 0.09059 0.2319 0.0
C431 C 0.14168 0.99501 0.29719 0.0
C432 C 0.09355 0.04691 0.48135 0.0
C433 C 0.06858 0.03904 0.45414 0.0
C434 C 0.11453 0.04855 0.42106 0.0
C435 C 0.11071 0.04274 0.3297 0.0
C436 C 0.08525 0.03607 0.30094 0.0
C437 C 0.06467 0.0343 0.36298 0.0
C438 C 0.14102 0.05597 0.45584 0.0
C439 C 0.07979 0.03022 0.2045 0.0
H440 H 0.16704 0.08275 0.12406 0.0
H441 H 0.1806 1.00245 0.17932 0.0
H442 H 0.10489 0.08763 0.21294 0.0
H443 H 0.12579 0.0964 0.30291 0.0
H444 H 0.13352 0.10678 0.19217 0.0
H445 H 0.15492 0.97882 0.27855 0.0
H446 H 0.14281 0.99811 0.36998 0.0
H447 H 0.12145 0.98915 0.28133 0.0
H448 H 0.0968 0.05175 0.55036 0.0
H449 H 0.04556 0.02869 0.33982 0.0
H450 H 0.14877 0.0727 0.41839 0.0
H451 H 0.15468 0.03952 0.44598 0.0
H452 H 0.14067 0.06116 0.52747 0.0
H453 H 0.08611 0.0467 0.16289 0.0
H454 H 0.05887 0.02648 0.19164 0.0
H455 H 0.09107 0.01291 0.18307 0.0
C456 C 0.50758 0.17787 0.19938 0.0
C457 C 0.4899 0.17829 0.12862 0.0
C458 C 0.50809 0.15704 0.25995 0.0
C459 C 0.49039 0.136 0.25019 0.0
C460 C 0.47245 0.13648 0.17849 0.0
C461 C 0.47253 0.15748 0.11857 0.0
C462 C 0.5275 0.15764 0.33497 0.0
C463 C 0.45322 0.11473 0.16452 0.0
C464 C 0.50716 0.07154 0.36497 0.0
C465 C 0.49248 0.07299 0.44331 0.0
C466 C 0.50631 0.09152 0.30113 0.0
C467 C 0.4905 0.11379 0.31546 0.0
C468 C 0.47521 0.11504 0.39359 0.0
C469 C 0.4763 0.09472 0.45586 0.0
C470 C 0.52292 0.08908 0.21922 0.0
C471 C 0.458 0.13816 0.41246 0.0
H472 H 0.52109 0.19387 0.20741 0.0
H473 H 0.45891 0.15762 0.06365 0.0
H474 H 0.51709 0.15869 0.39918 0.0
H475 H 0.53916 0.13951 0.33489 0.0
H476 H 0.54089 0.1745 0.33086 0.0
H477 H 0.43836 0.11961 0.11386 0.0
H478 H 0.46366 0.09696 0.14248 0.0
H479 H 0.44319 0.1101 0.22744 0.0
H480 H 0.52011 0.05523 0.35477 0.0
H481 H 0.46477 0.09613 0.51575 0.0
H482 H 0.53718 0.10522 0.21763 0.0
H483 H 0.51065 0.09067 0.15898 0.0
H484 H 0.53364 0.07035 0.21636 0.0
H485 H 0.47003 0.15595 0.41889 0.0
H486 H 0.4466 0.13585 0.47434 0.0
H487 H 0.44436 0.14116 0.35644 0.0
C488 C 0.37515 0.52524 0.19412 0.0
C489 C 0.34973 0.51992 0.22163 0.0
C490 C 0.39609 0.526 0.25505 0.0
C491 C 0.39177 0.52136 0.3466 0.0
C492 C 0.36601 0.51578 0.37437 0.0
C493 C 0.34538 0.51518 0.31186 0.0
C494 C 0.42286 0.53225 0.22137 0.0
C495 C 0.36011 0.51084 0.47051 0.0
C496 C 0.45175 0.50295 0.48686 0.0
C497 C 0.45909 0.5269 0.52454 0.0
C498 C 0.42957 0.50066 0.43158 0.0
C499 C 0.41414 0.52288 0.41259 0.0
C500 C 0.42124 0.54697 0.45256 0.0
C501 C 0.4438 0.54876 0.50607 0.0
C502 C 0.42335 0.47461 0.39027 0.0
C503 C 0.40554 0.5712 0.43628 0.0
H504 H 0.37867 0.52901 0.12458 0.0
H505 H 0.32577 0.51116 0.33383 0.0
H506 H 0.4295 0.55086 0.25129 0.0
H507 H 0.43683 0.51697 0.24155 0.0
H508 H 0.42337 0.53405 0.14808 0.0
H509 H 0.33964 0.50483 0.48092 0.0
H510 H 0.37313 0.49549 0.4965 0.0
H511 H 0.3638 0.52881 0.50971 0.0
H512 H 0.46401 0.48614 0.49785 0.0
H513 H 0.44979 0.56749 0.53248 0.0
H514 H 0.42637 0.47551 0.31755 0.0
H515 H 0.40267 0.46963 0.40152 0.0
H516 H 0.43573 0.45884 0.41718 0.0
H517 H 0.40729 0.57683 0.36574 0.0
H518 H 0.41204 0.58776 0.47853 0.0
H519 H 0.38469 0.56751 0.44945 0.0
C520 C 0.03314 0.36916 0.21174 0.0
C521 C 0.01956 0.3464 0.23284 0.0
C522 C 0.03268 0.39148 0.26796 0.0
C523 C 0.01839 0.39138 0.34886 0.0
C524 C 1.00493 0.36812 0.37057 0.0
C525 C 1.00574 0.34611 0.31296 0.0
C526 C 0.04777 0.41511 0.24009 0.0
C527 C 0.98951 0.36638 0.45497 0.0
C528 C 0.03046 0.4455 0.5274 0.0
C529 C 0.01108 0.46382 0.50738 0.0
C530 C 0.03295 0.42183 0.47797 0.0
C531 C 0.01571 0.41602 0.40625 0.0
C532 C 0.99581 0.43431 0.38784 0.0
C533 C 0.99394 0.45773 0.43742 0.0
C534 C 0.05471 0.40348 0.50043 0.0
C535 C 0.97662 0.42941 0.31383 0.0
H536 H 0.04393 0.36969 0.15014 0.0
H537 H 0.99514 0.32869 0.3302 0.0
H538 H 0.03686 0.43326 0.25409 0.0
H539 H 0.06622 0.41578 0.2781 0.0
H540 H 0.05265 0.41448 0.16839 0.0
H541 H 0.97716 0.3487 0.45671 0.0
H542 H 1.00317 0.36574 0.51177 0.0
H543 H 0.97692 0.38371 0.4636 0.0
H544 H 0.0443 0.45007 0.57947 0.0
H545 H 0.97898 0.47167 0.42043 0.0
H546 H 0.0683 0.40211 0.44357 0.0
H547 H 0.04691 0.38373 0.51206 0.0
H548 H 0.0657 0.40991 0.56017 0.0
H549 H 0.98703 0.42834 0.24955 0.0
H550 H 0.9616 0.44485 0.30977 0.0
H551 H 0.96681 0.41046 0.32356 0.0
C552 C 0.83491 0.0202 0.02126 0.0
C553 C 0.83204 1.00142 0.0874 0.0
C554 C 0.8573 0.021 0.9668 0.0
C555 C 0.8776 1.00257 0.97819 0.0
C556 C 0.87458 0.98341 0.04476 0.0
C557 C 0.85199 0.98313 0.09841 0.0
C558 C 0.85942 0.04191 0.89775 0.0
C559 C 0.89541 0.96332 0.06007 0.0
C560 C 0.92562 0.99211 0.78482 0.0
C561 C 0.94729 1.00703 0.8108 0.0
C562 C 0.90317 0.99023 0.83854 0.0
C563 C 0.90195 1.00357 0.9213 0.0
C564 C 0.92391 0.01838 0.94846 0.0
C565 C 0.94612 0.0199 0.89336 0.0
C566 C 0.88055 0.97416 0.80588 0.0
C567 C 0.92375 0.03319 0.03523 0.0
H568 H 0.81973 0.03457 0.01281 0.0
H569 H 0.85007 0.96869 0.14987 0.0
H570 H 0.87668 0.05418 0.91159 0.0
H571 H 0.86219 0.033 0.83119 0.0
H572 H 0.84195 0.05456 0.8959 0.0
H573 H 0.88992 0.94922 0.11209 0.0
H574 H 0.89939 0.95251 0.99759 0.0
H575 H 0.91374 0.97302 0.08037 0.0
H576 H 0.92607 0.98198 0.72154 0.0
H577 H 0.96225 0.0319 0.91415 0.0
H578 H 0.86323 0.98673 0.79745 0.0
H579 H 0.87554 0.95923 0.8556 0.0
H580 H 0.8847 0.96431 0.74161 0.0
H581 H 0.90785 0.04775 0.03496 0.0
H582 H 0.9424 0.0434 0.0481 0.0
H583 H 0.91994 0.01975 0.09077 0.0
C584 C 0.51951 0.86181 0.06348 0.0
C585 C 0.53746 0.85925 0.13276 0.0
C586 C 0.51943 0.88392 0.00853 0.0
C587 C 0.53776 0.90419 0.02275 0.0
C588 C 0.55609 0.90153 0.09264 0.0
C589 C 0.55568 0.87917 0.14671 0.0
C590 C 0.49952 0.88566 0.93531 0.0
C591 C 0.57609 0.92237 0.11067 0.0
C592 C 0.54899 0.94935 0.82523 0.0
C593 C 0.53212 0.9702 0.84359 0.0
C594 C 0.55178 0.92835 0.88409 0.0
C595 C 0.5375 0.928 0.96442 0.0
C596 C 0.52166 0.9498 0.98581 0.0
C597 C 0.51919 0.97056 0.92542 0.0
C598 C 0.56929 0.90603 0.85834 0.0
C599 C 0.50644 0.95072 0.07111 0.0
H600 H 0.50523 0.84661 0.05295 0.0
H601 H 0.56945 0.87744 0.20081 0.0
H602 H 0.48783 0.90364 0.94332 0.0
H603 H 0.5095 0.88678 0.87044 0.0
H604 H 0.48619 0.8687 0.93396 0.0
H605 H 0.58764 0.91846 0.17141 0.0
H606 H 0.58958 0.9237 0.05364 0.0
H607 H 0.56653 0.94158 0.1181 0.0
H608 H 0.5595 0.94906 0.76303 0.0
H609 H 0.50614 0.9865 0.94064 0.0
H610 H 0.55759 0.88809 0.84977 0.0
H611 H 0.58364 0.90239 0.91172 0.0
H612 H 0.57992 0.90971 0.79569 0.0
H613 H 0.4917 0.935 0.07074 0.0
H614 H 0.49638 0.96962 0.08103 0.0
H615 H 0.51951 0.94733 0.12842 0.0
C616 C 0.68099 0.53252 0.05215 0.0
C617 C 0.67708 0.54241 0.13793 0.0
C618 C 0.66091 0.53273 0.98794 0.0
C619 C 0.63601 0.54288 0.00972 0.0
C620 C 0.63216 0.55323 0.09644 0.0
C621 C 0.65265 0.55283 0.15922 0.0
C622 C 0.66627 0.52116 0.89775 0.0
C623 C 0.60623 0.5645 0.12335 0.0
C624 C 0.58794 0.56267 0.82584 0.0
C625 C 0.57075 0.54153 0.82275 0.0
C626 C 0.60941 0.56317 0.88461 0.0
C627 C 0.61385 0.54215 0.94319 0.0
C628 C 0.59652 0.5207 0.9398 0.0
C629 C 0.57508 0.52087 0.88105 0.0
C630 C 0.62714 0.58647 0.88512 0.0
C631 C 0.60036 0.49767 0.99946 0.0
H632 H 0.69976 0.52429 0.03537 0.0
H633 H 0.64946 0.56047 0.22553 0.0
H634 H 0.65862 0.50104 0.89587 0.0
H635 H 0.65653 0.53233 0.84471 0.0
H636 H 0.68741 0.52033 0.88347 0.0
H637 H 0.60641 0.57227 0.19231 0.0
H638 H 0.6007 0.58039 0.0778 0.0
H639 H 0.59096 0.54937 0.11802 0.0
H640 H 0.58429 0.57909 0.78309 0.0
H641 H 0.56137 0.50492 0.88191 0.0
H642 H 0.64744 0.58019 0.87278 0.0
H643 H 0.62668 0.59606 0.95128 0.0
H644 H 0.62156 0.60093 0.83427 0.0
H645 H 0.62004 0.4894 0.98935 0.0
H646 H 0.58578 0.48216 0.98698 0.0
H647 H 0.59899 0.50395 0.06985 0.0
C648 C 0.98851 0.66491 0.13258 0.0
C649 C 1.00041 0.68851 0.11032 0.0
C650 C 0.98995 0.64274 0.07601 0.0
C651 C 1.00365 0.64385 0.99423 0.0
C652 C 0.01536 0.6679 0.97128 0.0
C653 C 0.01358 0.68977 0.02906 0.0
C654 C 0.97693 0.61796 0.10431 0.0
C655 C 0.0299 0.67059 0.88535 0.0
C656 C 0.0322 0.5796 0.90391 0.0
C657 C 0.01499 0.57231 0.8356 0.0
C658 C 0.029 0.6028 0.95359 0.0
C659 C 1.00759 0.61946 0.93707 0.0
C660 C 0.99011 0.61231 0.86748 0.0
C661 C 0.994 0.58895 0.81769 0.0
C662 C 0.04851 0.60927 0.02526 0.0
C663 C 0.96678 0.6289 0.84726 0.0
H664 H 0.9782 0.66368 0.19498 0.0
H665 H 0.02278 0.70788 0.01083 0.0
H666 H 0.96203 0.61235 0.05455 0.0
H667 H 0.99134 0.60196 0.10722 0.0
H668 H 0.96744 0.61988 0.17012 0.0
H669 H 0.03955 0.68979 0.87952 0.0
H670 H 0.04481 0.65512 0.87905 0.0
H671 H 0.01609 0.66823 0.82937 0.0
H672 H 0.04834 0.56685 0.91911 0.0
H673 H 0.98019 0.58335 0.76672 0.0
H674 H 0.03871 0.60996 0.09067 0.0
H675 H 0.05696 0.62876 0.01359 0.0
H676 H 0.06456 0.59487 0.02832 0.0
H677 H 0.95304 0.62821 0.90374 0.0
H678 H 0.95646 0.62226 0.78639 0.0
H679 H 0.97267 0.64945 0.83892 0.0
C680 C 0.06608 0.23914 0.31366 0.0
C681 C 0.07935 0.24262 0.23398 0.0
C682 C 0.07049 0.21683 0.36382 0.0
C683 C 0.08907 0.19837 0.33375 0.0
C684 C 0.10709 0.2057 0.26813 0.0
C685 C 0.10195 0.22798 0.21798 0.0
C686 C 0.05177 0.21087 0.43776 0.0
C687 C 0.12919 0.18816 0.2413 0.0
C688 C 0.07101 0.1399 0.46178 0.0
C689 C 0.04974 0.13215 0.40993 0.0
C690 C 0.08812 0.15898 0.43092 0.0
C691 C 0.08317 0.17044 0.34776 0.0
C692 C 0.06522 0.1583 0.28879 0.0
C693 C 0.04863 0.13915 0.32109 0.0
C694 C 0.1091 0.16896 0.49203 0.0
C695 C 0.05998 0.16845 0.19703 0.0
H696 H 0.04921 0.25105 0.32819 0.0
H697 H 0.11303 0.23137 0.15816 0.0
H698 H 0.0372 0.19659 0.41357 0.0
H699 H 0.06205 0.20236 0.49512 0.0
H700 H 0.04126 0.22852 0.46086 0.0
H701 H 0.14659 0.19991 0.22487 0.0
H702 H 0.13427 0.17426 0.29445 0.0
H703 H 0.12376 0.17699 0.18082 0.0
H704 H 0.07289 0.13291 0.52889 0.0
H705 H 0.03252 0.13243 0.28049 0.0
H706 H 0.10022 0.18058 0.54639 0.0
H707 H 0.12347 0.18117 0.4569 0.0
H708 H 0.11934 0.15238 0.52319 0.0
H709 H 0.04842 0.18658 0.20263 0.0
H710 H 0.04877 0.15436 0.15589 0.0
H711 H 0.07834 0.17275 0.16215 0.0
C712 C 0.30688 0.07058 0.28391 0.0
C713 C 0.28471 0.05705 0.25573 0.0
C714 C 0.31967 0.06341 0.36188 0.0
C715 C 0.30971 0.04247 0.41145 0.0
C716 C 0.28438 0.03325 0.39417 0.0
C717 C 0.27217 0.04041 0.3152 0.0
C718 C 0.34604 0.07483 0.38154 0.0
C719 C 0.27236 0.01222 0.44956 0.0
C720 C 0.35986 0.98979 0.43507 0.0
C721 C 0.36775 0.99315 0.52279 0.0
C722 C 0.34041 1.00535 0.39928 0.0
C723 C 0.32843 0.02462 0.45343 0.0
C724 C 0.33556 0.02726 0.54365 0.0
C725 C 0.35557 0.01163 0.57699 0.0
C726 C 0.33345 1.00164 0.30245 0.0
C727 C 0.32308 0.04714 0.60406 0.0
H728 H 0.31592 0.08446 0.24003 0.0
H729 H 0.25457 0.03034 0.29552 0.0
H730 H 0.34927 0.07667 0.454 0.0
H731 H 0.36125 0.06175 0.35418 0.0
H732 H 0.34835 0.09422 0.35085 0.0
H733 H 0.25084 0.01256 0.44439 0.0
H734 H 0.27924 0.99299 0.42534 0.0
H735 H 0.27807 0.0143 0.52025 0.0
H736 H 0.36958 0.97545 0.3937 0.0
H737 H 0.36239 0.01456 0.64405 0.0
H738 H 0.33733 0.01975 0.26551 0.0
H739 H 0.3125 0.99709 0.29547 0.0
H740 H 0.34467 0.98566 0.27058 0.0
H741 H 0.33377 0.06575 0.59905 0.0
H742 H 0.32391 0.04089 0.67431 0.0
H743 H 0.30253 0.05079 0.58576 0.0
C744 C 0.50725 0.28157 0.28414 0.0
C745 C 0.52044 0.28937 0.20753 0.0
C746 C 0.50735 0.29751 0.36023 0.0
C747 C 0.51925 0.32225 0.35585 0.0
C748 C 0.53642 0.32764 0.28469 0.0
C749 C 0.53769 0.31029 0.21333 0.0
C750 C 0.49252 0.28889 0.44079 0.0
C751 C 0.55035 0.35339 0.27594 0.0
C752 C 0.48091 0.38258 0.38505 0.0
C753 C 0.50073 0.39857 0.4186 0.0
C754 C 0.48489 0.35589 0.37418 0.0
C755 C 0.50828 0.34469 0.40575 0.0
C756 C 0.5246 0.35953 0.46161 0.0
C757 C 0.52147 0.38662 0.4641 0.0
C758 C 0.46551 0.34065 0.31914 0.0
C759 C 0.54646 0.34694 0.51239 0.0
H760 H 0.49492 0.26452 0.28245 0.0
H761 H 0.54944 0.31513 0.15622 0.0
H762 H 0.4934 0.30324 0.49611 0.0
H763 H 0.47195 0.28505 0.42295 0.0
H764 H 0.50073 0.27022 0.46419 0.0
H765 H 0.56232 0.35437 0.21489 0.0
H766 H 0.53603 0.36951 0.2739 0.0
H767 H 0.56339 0.35677 0.33336 0.0
H768 H 0.46325 0.39109 0.35931 0.0
H769 H 0.53634 0.39803 0.49665 0.0
H770 H 0.45774 0.32434 0.35834 0.0
H771 H 0.47503 0.33248 0.25909 0.0
H772 H 0.44884 0.35274 0.29733 0.0
H773 H 0.53803 0.33339 0.5614 0.0
H774 H 0.55866 0.36143 0.54817 0.0
H775 H 0.55902 0.33513 0.46807 0.0
C776 C 0.2546 0.48024 0.35052 0.0
C777 C 0.24617 0.46956 0.26917 0.0
C778 C 0.2397 0.47691 0.42738 0.0
C779 C 0.2154 0.46445 0.41977 0.0
C780 C 0.2103 0.44867 0.34426 0.0
C781 C 0.2263 0.45098 0.26998 0.0
C782 C 0.2477 0.49032 0.51232 0.0
C783 C 0.18567 0.43295 0.33575 0.0
C784 C 0.15192 0.46715 0.54084 0.0
C785 C 0.14047 0.48808 0.49667 0.0
C786 C 0.17831 0.46131 0.52812 0.0
C787 C 0.19273 0.47595 0.46632 0.0
C788 C 0.18186 0.49911 0.43109 0.0
C789 C 0.15598 0.50512 0.44879 0.0
C790 C 0.18971 0.43824 0.57509 0.0
C791 C 0.19601 0.51571 0.36437 0.0
H792 H 0.27082 0.49361 0.35288 0.0
H793 H 0.22106 0.44097 0.20899 0.0
H794 H 0.24034 0.51057 0.51314 0.0
H795 H 0.23955 0.48017 0.57065 0.0
H796 H 0.26919 0.49108 0.51818 0.0
H797 H 0.18537 0.42083 0.27444 0.0
H798 H 0.18361 0.41997 0.39344 0.0
H799 H 0.16857 0.44611 0.3345 0.0
H800 H 0.13993 0.45436 0.58016 0.0
H801 H 0.14702 0.52143 0.41546 0.0
H802 H 0.21109 0.43687 0.56725 0.0
H803 H 0.18057 0.42013 0.54964 0.0
H804 H 0.18509 0.43949 0.64687 0.0
H805 H 0.21465 0.52274 0.3922 0.0
H806 H 0.18454 0.53298 0.3443 0.0
H807 H 0.20025 0.50413 0.30372 0.0
C808 C 0.02848 0.81232 0.97789 0.0
C809 C 1.00669 0.79696 0.99316 0.0
C810 C 0.03341 0.82228 0.8942 0.0
C811 C 0.01586 0.81666 0.82368 0.0
C812 C 0.99598 0.79804 0.83611 0.0
C813 C 0.99143 0.78845 0.92166 0.0
C814 C 0.05575 0.84116 0.88526 0.0
C815 C 0.97838 0.7894 0.76155 0.0
C816 C 0.01032 0.88246 0.74787 0.0
C817 C 0.03467 0.88401 0.70606 0.0
C818 C 0.99967 0.85841 0.76919 0.0
C819 C 0.01425 0.83575 0.751 0.0
C820 C 0.03455 0.83691 0.68853 0.0
C821 C 0.04486 0.86128 0.66689 0.0
C822 C 0.97564 0.85777 0.82628 0.0
C823 C 0.04782 0.81261 0.65584 0.0
H824 H 0.04092 0.81776 0.03317 0.0
H825 H 0.97517 0.77556 0.93327 0.0
H826 H 0.06798 0.83596 0.82747 0.0
H827 H 0.04814 0.86109 0.8758 0.0
H828 H 0.06847 0.84149 0.94487 0.0
H829 H 0.95826 0.79611 0.7749 0.0
H830 H 0.98469 0.7967 0.69604 0.0
H831 H 0.97779 0.76785 0.75878 0.0
H832 H 1.00098 0.89955 0.77506 0.0
H833 H 0.06244 0.86213 0.62776 0.0
H834 H 0.98119 0.85393 0.89612 0.0
H835 H 0.96248 0.84203 0.80365 0.0
H836 H 0.96482 0.87644 0.82439 0.0
H837 H 0.06527 0.8088 0.69694 0.0
H838 H 0.05433 0.81503 0.58624 0.0
H839 H 0.03471 0.79553 0.65978 0.0
C840 C 0.72148 0.96446 0.98607 0.0
C841 C 0.72298 0.94935 0.06249 0.0
C842 C 0.69906 0.96373 0.93333 0.0
C843 C 0.67825 0.94728 0.95816 0.0
C844 C 0.68299 0.92727 0.01954 0.0
C845 C 0.70563 0.92844 0.07153 0.0
C846 C 0.69581 0.98416 0.863 0.0
C847 C 0.66249 0.90742 0.04099 0.0
C848 C 0.62509 0.99523 0.98416 0.0
C849 C 0.61651 0.9962 0.89672 0.0
C850 C 0.64242 0.97593 0.01062 0.0
C851 C 0.65145 0.95754 0.94683 0.0
C852 C 0.63865 0.95556 0.86394 0.0
C853 C 0.62121 0.97522 0.83934 0.0
C854 C 0.65395 0.97807 0.10243 0.0
C855 C 0.64537 0.93464 0.7974 0.0
H856 H 0.73541 0.97995 0.97628 0.0
H857 H 0.70741 0.91578 0.1283 0.0
H858 H 0.68621 0.97589 0.80335 0.0
H859 H 0.68342 1.00012 0.8891 0.0
H860 H 0.71475 0.99258 0.84297 0.0
H861 H 0.65187 0.91356 0.10159 0.0
H862 H 0.64828 0.90506 0.9861 0.0
H863 H 0.67166 0.88835 0.05491 0.0
H864 H 0.62068 0.01127 0.02883 0.0
H865 H 0.61322 0.9754 0.77291 0.0
H866 H 0.67395 0.98591 0.0978 0.0
H867 H 0.65479 0.95876 0.13401 0.0
H868 H 0.64254 0.99125 0.14624 0.0
H869 H 0.65861 0.94265 0.74663 0.0
H870 H 0.62756 0.92793 0.76238 0.0
H871 H 0.65493 0.91774 0.82895 0.0
C872 C 0.53447 0.72765 0.05984 0.0
C873 C 0.55751 0.73752 0.09637 0.0
C874 C 0.53289 0.70154 0.03279 0.0
C875 C 0.55533 0.68567 0.03753 0.0
C876 C 0.57971 0.69739 0.05451 0.0
C877 C 0.58051 0.72323 0.08562 0.0
C878 C 0.50653 0.69016 0.01226 0.0
C879 C 0.60446 0.68177 0.05106 0.0
C880 C 0.5409 0.6206 0.1416 0.0
C881 C 0.53361 0.60547 0.06777 0.0
C882 C 0.54924 0.64633 0.13227 0.0
C883 C 0.55211 0.657 0.04645 0.0
C884 C 0.54851 0.64077 0.97142 0.0
C885 C 0.53893 0.61546 0.98278 0.0
C886 C 0.55255 0.66269 0.21504 0.0
C887 C 0.55315 0.65023 0.87835 0.0
H888 H 0.51671 0.7388 0.0674 0.0
H889 H 0.59848 0.7309 0.11277 0.0
H890 H 0.50727 0.67842 0.95037 0.0
H891 H 0.50062 0.67707 0.06674 0.0
H892 H 0.49142 0.70539 0.00467 0.0
H893 H 0.62159 0.69452 0.04111 0.0
H894 H 0.60715 0.67137 0.11449 0.0
H895 H 0.60367 0.66705 0.99683 0.0
H896 H 0.539 0.61291 0.20773 0.0
H897 H 0.53469 0.60431 0.92371 0.0
H898 H 0.53706 0.67766 0.21682 0.0
H899 H 0.57155 0.67275 0.21513 0.0
H900 H 0.5512 0.65104 0.27637 0.0
H901 H 0.53425 0.65489 0.84676 0.0
H902 H 0.56231 0.63465 0.83764 0.0
H903 H 0.56572 0.66772 0.87664 0.0
C904 C 0.81729 0.5388 0.07686 0.0
C905 C 0.79446 0.55324 0.08591 0.0
C906 C 0.83442 0.54322 0.00782 0.0
C907 C 0.82711 0.56037 0.93871 0.0
C908 C 0.80216 0.57215 0.94063 0.0
C909 C 0.78631 0.56904 0.01596 0.0
C910 C 0.86106 0.53087 0.01455 0.0
C911 C 0.7922 0.58863 0.86585 0.0
C912 C 0.88997 0.58611 0.8748 0.0
C913 C 0.90043 0.56181 0.85103 0.0
C914 C 0.86317 0.58869 0.88845 0.0
C915 C 0.84698 0.56703 0.87125 0.0
C916 C 0.85663 0.54664 0.81765 0.0
C917 C 0.88363 0.54364 0.81023 0.0
C918 C 0.85305 0.61265 0.93511 0.0
C919 C 0.83903 0.52524 0.78472 0.0
H920 H 0.82282 0.5253 0.12841 0.0
H921 H 0.76816 0.5796 0.02119 0.0
H922 H 0.86358 0.51595 0.96194 0.0
H923 H 0.87638 0.54579 0.00764 0.0
H924 H 0.86428 0.52113 0.0791 0.0
H925 H 0.79078 0.60914 0.88866 0.0
H926 H 0.80461 0.58758 0.8059 0.0
H927 H 0.77225 0.58236 0.84752 0.0
H928 H 0.90278 0.60169 0.89582 0.0
H929 H 0.89085 0.52539 0.78431 0.0
H930 H 0.84601 0.60759 1.00229 0.0
H931 H 0.83648 0.62075 0.89741 0.0
H932 H 0.86815 0.62794 0.942 0.0
H933 H 0.81821 0.53065 0.79006 0.0
H934 H 0.84258 0.50724 0.8228 0.0
H935 H 0.84344 0.52082 0.71441 0.0
C936 C 0.05143 0.19465 0.94835 0.0
C937 C 0.03213 0.21362 0.9655 0.0
C938 C 0.046 0.17036 0.90836 0.0
C939 C 0.0211 0.1651 0.87137 0.0
C940 C 1.00213 0.1854 0.87873 0.0
C941 C 1.0075 0.20867 0.92804 0.0
C942 C 0.06767 0.15063 0.90857 0.0
C943 C 0.97587 0.18314 0.83495 0.0
C944 C 0.02464 0.10564 0.70882 0.0
C945 C 1.00582 0.0886 0.7424 0.0
C946 C 0.02902 0.13065 0.7474 0.0
C947 C 0.01536 0.13882 0.82538 0.0
C948 C 0.99697 0.12101 0.86082 0.0
C949 C 0.99161 0.0971 0.81669 0.0
C950 C 0.04847 0.14807 0.70295 0.0
C951 C 0.98286 0.1265 0.94651 0.0
H952 H 0.07131 0.19817 0.96834 0.0
H953 H 0.99216 0.22282 0.93743 0.0
H954 H 0.06129 0.13097 0.88889 0.0
H955 H 0.08325 0.15701 0.86294 0.0
H956 H 0.07643 0.14953 0.97582 0.0
H957 H 0.97058 0.20185 0.80356 0.0
H958 H 0.97507 0.16761 0.78356 0.0
H959 H 0.96099 0.17927 0.88622 0.0
H960 H 0.03521 0.09995 0.64967 0.0
H961 H 0.97662 0.08449 0.84257 0.0
H962 H 0.04792 0.16849 0.72666 0.0
H963 H 0.04479 0.14829 0.63109 0.0
H964 H 0.06829 0.14008 0.71253 0.0
H965 H 0.99349 0.14033 0.99014 0.0
H966 H 0.9797 0.10825 0.98374 0.0
H967 H 0.96341 0.1346 0.93135 0.0
C968 C 0.3203 0.0203 0.89331 0.0
C969 C 0.3168 0.04226 0.94807 0.0
C970 C 0.34448 0.01499 0.85091 0.0
C971 C 0.36615 0.03216 0.8621 0.0
C972 C 0.36229 0.05451 0.91648 0.0
C973 C 0.33794 0.05948 0.95635 0.0
C974 C 0.34638 0.99011 0.79796 0.0
C975 C 0.38463 0.07211 0.94006 0.0
C976 C 0.43419 1.00162 0.82302 0.0
C977 C 0.44448 0.01617 0.75297 0.0
C978 C 0.4094 1.00701 0.85987 0.0
C979 C 0.3931 0.02645 0.82259 0.0
C980 C 0.40343 0.04102 0.75039 0.0
C981 C 0.42888 0.03599 0.71787 0.0
C982 C 0.40092 0.99177 0.93969 0.0
C983 C 0.38804 0.06205 0.70521 0.0
H984 H 0.30455 1.00645 0.8869 0.0
H985 H 0.3358 0.07655 0.99833 0.0
H986 H 0.36574 0.9869 0.76821 0.0
H987 H 0.34184 0.97343 0.84139 0.0
H988 H 0.33152 0.99014 0.74453 0.0
H989 H 0.39996 0.06033 0.97226 0.0
H990 H 0.39293 0.08086 0.87964 0.0
H991 H 0.37897 0.08806 0.98619 0.0
H992 H 0.4459 0.98615 0.85062 0.0
H993 H 0.43626 0.04719 0.66287 0.0
H994 H 0.38756 0.97604 0.91818 0.0
H995 H 0.39046 1.00437 0.98794 0.0
H996 H 0.41768 0.98268 0.97397 0.0
H997 H 0.38829 0.05878 0.63233 0.0
H998 H 0.39757 0.08109 0.71767 0.0
H999 H 0.36759 0.06321 0.72748 0.0
C1000 C 0.47485 0.33045 0.90895 0.0
C1001 C 0.49625 0.31358 0.90233 0.0
C1002 C 0.47514 0.35549 0.87076 0.0
C1003 C 0.49756 0.36438 0.82541 0.0
C1004 C 0.51869 0.34686 0.81455 0.0
C1005 C 0.51785 0.32191 0.85344 0.0
C1006 C 0.45198 0.37304 0.88401 0.0
C1007 C 0.54308 0.3551 0.76738 0.0
C1008 C 0.49568 0.42655 0.68328 0.0
C1009 C 0.50494 0.44561 0.7427 0.0
C1010 C 0.49254 0.40032 0.70966 0.0
C1011 C 0.49983 0.39251 0.79641 0.0
C1012 C 0.50946 0.41177 0.85601 0.0
C1013 C 0.51146 0.43794 0.82904 0.0
C1014 C 0.48106 0.38094 0.64518 0.0
C1015 C 0.51779 0.40471 0.94871 0.0
H1016 H 0.45842 0.32465 0.94899 0.0
H1017 H 0.53485 0.30951 0.85046 0.0
H1018 H 0.45691 0.38847 0.93303 0.0
H1019 H 0.44671 0.38275 0.82114 0.0
H1020 H 0.4348 0.36226 0.90862 0.0
H1021 H 0.5556 0.33824 0.74999 0.0
H1022 H 0.53833 0.36581 0.70599 0.0
H1023 H 0.5543 0.36844 0.81113 0.0
H1024 H 0.49014 0.43229 0.61695 0.0
H1025 H 0.51864 0.45247 0.87544 0.0
H1026 H 0.46452 0.37064 0.67609 0.0
H1027 H 0.4958 0.36604 0.62793 0.0
H1028 H 0.47404 0.3903 0.58364 0.0
H1029 H 0.50115 0.39638 0.98535 0.0
H1030 H 0.52531 0.42172 0.98664 0.0
H1031 H 0.53316 0.38961 0.94585 0.0
C1032 C 0.21621 0.5033 0.89287 0.0
C1033 C 0.21532 0.50774 0.98504 0.0
C1034 C 0.19333 0.50415 0.83963 0.0
C1035 C 0.16875 0.5097 0.8788 0.0
C1036 C 0.16804 0.51516 0.97111 0.0
C1037 C 0.19105 0.51426 0.02225 0.0
C1038 C 0.19538 0.49862 0.74154 0.0
C1039 C 0.14268 0.52123 0.01696 0.0
C1040 C 0.10843 0.53266 0.74859 0.0
C1041 C 0.09274 0.51026 0.74517 0.0
C1042 C 0.13348 0.5325 0.78783 0.0
C1043 C 0.1436 0.50936 0.82518 0.0
C1044 C 0.12842 0.48637 0.81772 0.0
C1045 C 0.10349 0.48706 0.77758 0.0
C1046 C 0.14874 0.55748 0.79225 0.0
C1047 C 0.13814 0.46107 0.85498 0.0
H1048 H 0.23462 0.49812 0.86284 0.0
H1049 H 0.18991 0.51805 0.09294 0.0
H1050 H 0.18106 0.48361 0.7213 0.0
H1051 H 0.19068 0.51646 0.70407 0.0
H1052 H 0.21511 0.49197 0.72218 0.0
H1053 H 0.14531 0.52552 0.08872 0.0
H1054 H 0.13323 0.5382 0.98551 0.0
H1055 H 0.12923 0.5045 0.00969 0.0
H1056 H 0.10089 0.55069 0.72268 0.0
H1057 H 0.09221 0.46936 0.77296 0.0
H1058 H 0.16869 0.55432 0.76675 0.0
H1059 H 0.15051 0.56402 0.86228 0.0
H1060 H 0.13943 0.57323 0.7536 0.0
H1061 H 0.12492 0.44459 0.83943 0.0
H1062 H 0.14002 0.46285 0.92807 0.0
H1063 H 0.15769 0.45654 0.82821 0.0
C1064 C 0.01206 0.85479 0.26852 0.0
C1065 C 1.0015 0.83133 0.30096 0.0
C1066 C 0.01194 0.87833 0.31742 0.0
C1067 C 1.00358 0.87897 0.4071 0.0
C1068 C 0.99393 0.85514 0.44265 0.0
C1069 C 0.99257 0.83205 0.38924 0.0
C1070 C 0.0208 0.90252 0.27018 0.0
C1071 C 0.98465 0.85333 0.53684 0.0
C1072 C 0.0363 0.93882 0.516 0.0
C1073 C 0.0155 0.95529 0.53931 0.0
C1074 C 0.03255 0.91343 0.48149 0.0
C1075 C 1.00713 0.90406 0.46227 0.0
C1076 C 0.98586 0.92032 0.48792 0.0
C1077 C 0.99031 0.94502 0.52933 0.0
C1078 C 0.05638 0.89696 0.46557 0.0
C1079 C 0.95825 0.91197 0.47101 0.0
H1080 H 0.02069 0.85525 0.20328 0.0
H1081 H 0.98434 0.8146 0.41721 0.0
H1082 H 0.01366 0.92064 0.30198 0.0
H1083 H 0.04231 0.90294 0.26827 0.0
H1084 H 0.01395 0.90225 0.20029 0.0
H1085 H 0.99192 0.83516 0.56724 0.0
H1086 H 0.99069 0.87014 0.57813 0.0
H1087 H 0.96314 0.8521 0.53704 0.0
H1088 H 0.05601 0.9456 0.52629 0.0
H1089 H 0.97398 0.95645 0.55227 0.0
H1090 H 0.06572 0.90289 0.40281 0.0
H1091 H 0.0519 0.8759 0.46206 0.0
H1092 H 0.07085 0.90023 0.51925 0.0
H1093 H 0.95622 0.90284 0.4044 0.0
H1094 H 0.94449 0.92851 0.47639 0.0
H1095 H 0.95249 0.89755 0.52129 0.0
C1096 C 0.69368 0.01791 0.37028 0.0
C1097 C 0.6993 0.99229 0.34299 0.0
C1098 C 0.6702 0.02417 0.41539 0.0
C1099 C 0.65111 1.00469 0.43049 0.0
C1100 C 0.65728 0.97876 0.40668 0.0
C1101 C 0.68131 0.97285 0.36661 0.0
C1102 C 0.66573 0.05174 0.44623 0.0
C1103 C 0.63775 0.95728 0.41833 0.0
C1104 C 0.59444 0.01137 0.59719 0.0
C1105 C 0.57423 0.02123 0.54453 0.0
C1106 C 0.61964 1.00689 0.56216 0.0
C1107 C 0.62474 0.01111 0.47075 0.0
C1108 C 0.60411 0.02053 0.41711 0.0
C1109 C 0.5797 0.02653 0.45538 0.0
C1110 C 0.64075 0.99789 0.6242 0.0
C1111 C 0.60768 0.02398 0.31867 0.0
H1112 H 0.70718 0.03327 0.35394 0.0
H1113 H 0.68548 0.95277 0.34999 0.0
H1114 H 0.65037 0.06085 0.40535 0.0
H1115 H 0.65892 0.052 0.51604 0.0
H1116 H 0.6836 0.06372 0.44143 0.0
H1117 H 0.64536 0.93801 0.3972 0.0
H1118 H 0.63155 0.95611 0.48849 0.0
H1119 H 0.62034 0.96179 0.37797 0.0
H1120 H 0.59092 1.00831 0.66712 0.0
H1121 H 0.56476 0.03545 0.41516 0.0
H1122 H 0.6385 1.00716 0.69028 0.0
H1123 H 0.66052 1.00238 0.59975 0.0
H1124 H 0.63915 0.97658 0.63273 0.0
H1125 H 0.62318 0.03837 0.30586 0.0
H1126 H 0.58959 0.03055 0.28546 0.0
H1127 H 0.61388 1.0053 0.28805 0.0
C1128 C 0.54071 0.7276 0.48166 0.0
C1129 C 0.52977 0.7295 0.39667 0.0
C1130 C 0.53726 0.70493 0.53321 0.0
C1131 C 0.52328 0.68333 0.49795 0.0
C1132 C 0.51121 0.68582 0.41394 0.0
C1133 C 0.5141 0.70893 0.36583 0.0
C1134 C 0.54987 0.70355 0.62327 0.0
C1135 C 0.49691 0.66332 0.37125 0.0
C1136 C 0.54309 0.6142 0.56236 0.0
C1137 C 0.52093 0.60497 0.60607 0.0
C1138 C 0.54441 0.63965 0.52891 0.0
C1139 C 0.52348 0.6572 0.54292 0.0
C1140 C 0.50184 0.64863 0.59304 0.0
C1141 C 0.50057 0.62261 0.6221 0.0
C1142 C 0.5685 0.64736 0.47858 0.0
C1143 C 0.47974 0.66679 0.61516 0.0
H1144 H 0.55312 0.74313 0.50577 0.0
H1145 H 0.50572 0.71016 0.29996 0.0
H1146 H 0.53683 0.6939 0.67138 0.0
H1147 H 0.56791 0.69184 0.61843 0.0
H1148 H 0.55505 0.72314 0.64917 0.0
H1149 H 0.49011 0.66781 0.30314 0.0
H1150 H 0.50973 0.646 0.36779 0.0
H1151 H 0.47983 0.65806 0.41182 0.0
H1152 H 0.55956 0.60144 0.55336 0.0
H1153 H 0.48333 0.61603 0.65602 0.0
H1154 H 0.58315 0.65486 0.52638 0.0
H1155 H 0.56471 0.66268 0.42906 0.0
H1156 H 0.5772 0.63034 0.44389 0.0
H1157 H 0.48713 0.68646 0.63238 0.0
H1158 H 0.46798 0.6595 0.67137 0.0
H1159 H 0.46678 0.66865 0.55681 0.0
C1160 C 0.81255 0.55238 0.47504 0.0
C1161 C 0.8083 0.53744 0.39814 0.0
C1162 C 0.83614 0.55053 0.52379 0.0
C1163 C 0.85647 0.53361 0.49429 0.0
C1164 C 0.85178 0.51812 0.41744 0.0
C1165 C 0.82779 0.51974 0.37253 0.0
C1166 C 0.83908 0.56791 0.60414 0.0
C1167 C 0.87258 0.50075 0.37845 0.0
C1168 C 0.92662 0.55193 0.56032 0.0
C1169 C 0.93566 0.52959 0.60369 0.0
C1170 C 0.90112 0.55357 0.52556 0.0
C1171 C 0.88312 0.53298 0.53846 0.0
C1172 C 0.89178 0.51091 0.5867 0.0
C1173 C 0.91777 0.50939 0.61723 0.0
C1174 C 0.89391 0.57728 0.47268 0.0
C1175 C 0.87423 0.48819 0.60597 0.0
H1176 H 0.79805 0.56657 0.49467 0.0
H1177 H 0.82495 0.50837 0.3124 0.0
H1178 H 0.8575 0.56488 0.64054 0.0
H1179 H 0.83802 0.58852 0.58342 0.0
H1180 H 0.82257 0.5647 0.64996 0.0
H1181 H 0.89204 0.50992 0.38312 0.0
H1182 H 0.87315 0.48224 0.41536 0.0
H1183 H 0.86867 0.49597 0.30769 0.0
H1184 H 0.9397 0.56813 0.55157 0.0
H1185 H 0.92401 0.49209 0.65169 0.0
H1186 H 0.88233 0.59067 0.51482 0.0
H1187 H 0.88207 0.57196 0.41371 0.0
H1188 H 0.91133 0.58803 0.44999 0.0
H1189 H 0.87526 0.48353 0.67764 0.0
H1190 H 0.88136 0.47078 0.56953 0.0
H1191 H 0.85365 0.49162 0.58793 0.0
loop_
_geom_bond_atom_site_label_1
_geom_bond_atom_site_label_2
_geom_bond_distance
_geom_bond_site_symmetry_2
_ccdc_geom_bond_type
H0 C3 0.929 . S
H1 C6 0.929 . S
H2 C8 0.930 . S
C3 H0 0.929 . S
C3 C4 1.398 . S
C3 C5 1.396 . S
C4 C3 1.398 . S
C4 C8 1.407 . S
C5 C3 1.396 . S
C5 C6 1.394 . S
C6 H1 0.929 . S
C6 C5 1.394 . S
C6 C7 1.382 . S
C7 C6 1.382 . S
C7 C8 1.392 . S
C7 N9 1.420 . S
C8 H2 0.930 . S
C8 C4 1.407 . S
C8 C7 1.392 . S
N9 C7 1.420 . S
N9 C10 1.244 . S
C10 N9 1.244 . S
H11 C14 0.929 . S
H12 C17 0.929 . S
H13 C19 0.930 . S
C14 H11 0.929 . S
C14 C15 1.398 . S
C14 C16 1.396 . S
C15 C14 1.398 . S
C15 C19 1.407 . S
C16 C14 1.396 . S
C16 C17 1.394 . S
C17 H12 0.929 . S
C17 C16 1.394 . S
C17 C18 1.382 . S
C18 C17 1.382 . S
C18 C19 1.392 . S
C18 N20 1.420 . S
C19 H13 0.930 . S
C19 C15 1.407 . S
C19 C18 1.392 . S
N20 C18 1.420 . S
N20 C21 1.244 . S
C21 N20 1.244 . S
H22 C25 0.929 . S
H23 C28 0.929 . S
H24 C30 0.930 . S
C25 H22 0.929 . S
C25 C26 1.398 . S
C25 C27 1.396 . S
C26 C25 1.398 . S
C26 C30 1.407 . S
C27 C25 1.396 . S
C27 C28 1.394 . S
C28 H23 0.929 . S
C28 C27 1.394 . S
C28 C29 1.382 . S
C29 C28 1.382 . S
C29 C30 1.392 . S
C29 N31 1.420 . S
C30 H24 0.930 . S
C30 C26 1.407 . S
C30 C29 1.392 . S
N31 C29 1.420 . S
N31 C32 1.244 . S
C32 N31 1.244 . S
H33 C36 0.929 . S
H34 C39 0.929 . S
H35 C41 0.930 . S
C36 H33 0.929 . S
C36 C37 1.398 . S
C36 C38 1.396 . S
C37 C36 1.398 . S
C37 C41 1.407 . S
C38 C36 1.396 . S
C38 C39 1.394 . S
C39 H34 0.929 . S
C39 C38 1.394 . S
C39 C40 1.382 . S
C40 C39 1.382 . S
C40 C41 1.392 . S
C40 N42 1.420 . S
C41 H35 0.930 . S
C41 C37 1.407 . S
C41 C40 1.392 . S
N42 C40 1.420 . S
N42 C43 1.244 . S
C43 N42 1.244 . S
H44 C47 0.929 . S
H45 C50 0.929 . S
H46 C52 0.930 . S
C47 H44 0.929 . S
C47 C48 1.398 . S
C47 C49 1.396 1_556 S
C48 C47 1.398 . S
C48 C52 1.407 . S
C49 C47 1.396 1_554 S
C49 C50 1.394 . S
C50 H45 0.929 . S
C50 C49 1.394 . S
C50 C51 1.382 . S
C51 C50 1.382 . S
C51 C52 1.392 1_554 S
C51 N53 1.420 . S
C52 H46 0.930 . S
C52 C48 1.407 . S
C52 C51 1.392 1_556 S
N53 C51 1.420 . S
N53 C54 1.244 . S
C54 N53 1.244 . S
H55 C58 0.929 . S
H56 C61 0.929 . S
H57 C63 0.930 . S
C58 H55 0.929 . S
C58 C59 1.398 . S
C58 C60 1.396 1_556 S
C59 C58 1.398 . S
C59 C63 1.407 . S
C60 C58 1.396 1_554 S
C60 C61 1.394 . S
C61 H56 0.929 . S
C61 C60 1.394 . S
C61 C62 1.382 . S
C62 C61 1.382 . S
C62 C63 1.392 1_554 S
C62 N64 1.420 . S
C63 H57 0.930 . S
C63 C59 1.407 . S
C63 C62 1.392 1_556 S
N64 C62 1.420 . S
N64 C65 1.244 . S
C65 N64 1.244 . S
H66 C69 0.929 . S
H67 C72 0.929 . S
H68 C74 0.930 . S
C69 H66 0.929 . S
C69 C70 1.398 . S
C69 C71 1.396 1_556 S
C70 C69 1.398 . S
C70 C74 1.407 . S
C71 C69 1.396 1_554 S
C71 C72 1.394 . S
C72 H67 0.929 . S
C72 C71 1.394 . S
C72 C73 1.376 1_554 S
C73 C72 1.376 1_556 S
C73 C74 1.398 . S
C73 N75 1.420 1_556 S
C74 H68 0.930 . S
C74 C70 1.407 . S
C74 C73 1.398 . S
N75 C73 1.420 1_554 S
N75 C76 1.244 . S
C76 N75 1.244 . S
H77 C80 0.929 . S
H78 C83 0.929 . S
H79 C85 0.930 . S
C80 H77 0.929 . S
C80 C81 1.398 . S
C80 C82 1.396 1_556 S
C81 C80 1.398 . S
C81 C85 1.407 . S
C82 C80 1.396 1_554 S
C82 C83 1.394 . S
C83 H78 0.929 . S
C83 C82 1.394 . S
C83 C84 1.382 . S
C84 C83 1.382 . S
C84 C85 1.392 1_554 S
C84 N86 1.420 . S
C85 H79 0.930 . S
C85 C81 1.407 . S
C85 C84 1.392 1_556 S
N86 C84 1.420 . S
N86 C87 1.244 . S
C87 N86 1.244 . S
Tb88 N119 2.660 1_565 S
Tb88 N126 2.591 1_565 S
Tb88 O132 2.546 . S
Tb88 O133 2.610 1_455 S
Tb88 O135 2.320 1_455 S
Tb88 O136 2.552 . S
Tb88 O137 2.413 . S
Tb88 O139 2.362 1_565 S
Tb88 O140 2.421 . S
Tb88 C152 2.833 . S
C89 C92 1.432 1_545 S
C89 C93 1.409 1_545 S
C89 N96 1.359 . S
C90 C92 1.417 . S
C90 C94 1.432 . S
C90 C102 1.410 . S
C91 C93 1.460 . S
C91 C94 1.317 . S
C91 H114 0.929 . S
C92 C89 1.432 1_565 S
C92 C90 1.417 . S
C92 N100 1.367 . S
C93 C89 1.409 1_565 S
C93 C91 1.460 . S
C93 C98 1.373 1_565 S
C94 C90 1.432 . S
C94 C91 1.317 . S
C94 H106 0.930 . S
C95 C97 1.392 . S
C95 C98 1.370 . S
C95 H107 0.931 . S
N96 C89 1.359 . S
N96 C97 1.327 . S
N96 Tb99 2.600 . S
C97 C95 1.392 . S
C97 N96 1.327 . S
C97 H104 0.930 . S
C98 C93 1.373 1_545 S
C98 C95 1.370 . S
C98 H117 0.930 . S
Tb99 N96 2.600 . S
Tb99 N100 2.642 1_545 S
Tb99 O133 2.362 1_545 S
Tb99 O134 2.421 . S
Tb99 O138 2.546 . S
Tb99 O139 2.610 1_655 S
Tb99 O141 2.320 1_655 S
Tb99 O142 2.552 1_655 S
Tb99 O143 2.413 . S
Tb99 C163 2.833 . S
N100 C92 1.367 . S
N100 Tb99 2.642 1_565 S
N100 C101 1.318 1_655 S
C101 N100 1.318 1_455 S
C101 C103 1.407 . S
C101 H108 0.930 . S
C102 C90 1.410 . S
C102 C103 1.345 1_655 S
C102 H110 0.930 . S
C103 C101 1.407 . S
C103 C102 1.345 1_455 S
C103 H105 0.930 . S
H104 C97 0.930 . S
H105 C103 0.930 . S
H106 C94 0.930 . S
H107 C95 0.931 . S
H108 C101 0.930 . S
H109 C123 0.930 1_654 S
H110 C102 0.930 . S
H111 C129 0.930 . S
H112 C120 0.930 1_655 S
H113 C127 0.931 . S
H114 C91 0.929 . S
H115 C121 0.930 . S
H116 C154 0.930 . S
H117 C98 0.930 . S
H118 C153 0.929 . S
N119 Tb88 2.660 1_545 S
N119 C120 1.305 . S
N119 C124 1.360 . S
C120 H112 0.930 1_455 S
C120 N119 1.305 . S
C120 C123 1.407 . S
C121 H115 0.930 . S
C121 C122 1.410 . S
C121 C123 1.345 1_554 S
C122 C121 1.410 . S
C122 C124 1.417 1_554 S
C122 C154 1.432 . S
C123 H109 0.930 1_456 S
C123 C120 1.407 . S
C123 C121 1.345 1_556 S
C124 N119 1.360 . S
C124 C122 1.417 1_556 S
C124 C128 1.432 . S
H125 C130 0.930 . S
N126 Tb88 2.591 1_545 S
N126 C128 1.380 . S
N126 C129 1.312 1_545 S
C127 H113 0.931 . S
C127 C129 1.392 . S
C127 C130 1.370 1_565 S
C128 C124 1.432 . S
C128 N126 1.380 . S
C128 C131 1.414 . S
C129 H111 0.930 . S
C129 N126 1.312 1_565 S
C129 C127 1.392 . S
C130 H125 0.930 . S
C130 C127 1.370 1_545 S
C130 C131 1.385 . S
C131 C128 1.414 . S
C131 C130 1.385 . S
C131 C153 1.444 1_556 S
O132 Tb88 2.546 . S
O132 C152 1.251 . S
O133 Tb88 2.610 1_655 S
O133 Tb99 2.362 1_565 S
O133 C144 1.283 . S
O134 Tb99 2.421 . S
O134 C151 1.262 . S
O135 Tb88 2.320 1_655 S
O135 C151 1.260 1_565 S
O136 Tb88 2.552 . S
O136 C144 1.243 1_455 S
O137 Tb88 2.413 . S
O137 C152 1.256 . S
O138 Tb99 2.546 . S
O138 C163 1.251 . S
O139 Tb88 2.362 1_545 S
O139 Tb99 2.610 1_455 S
O139 C155 1.283 . S
O140 Tb88 2.421 . S
O140 C162 1.262 1_565 S
O141 Tb99 2.320 1_455 S
O141 C162 1.260 . S
O142 Tb99 2.552 1_455 S
O142 C155 1.243 . S
O143 Tb99 2.413 . S
O143 C163 1.256 . S
C144 O133 1.283 . S
C144 O136 1.243 1_655 S
C145 C147 1.382 . S
C145 C149 1.393 . S
C145 C152 1.500 . S
C146 C147 1.400 . S
C146 C148 1.384 . S
C147 C145 1.382 . S
C147 C146 1.400 . S
C147 H164 0.952 . S
C148 C146 1.384 . S
C148 C150 1.392 . S
C148 H165 0.931 1_556 S
C149 C145 1.393 . S
C149 C150 1.401 . S
C149 H166 0.930 . S
C150 C148 1.392 . S
C150 C149 1.401 . S
C150 H167 0.930 . S
C151 O134 1.262 . S
C151 O135 1.260 1_545 S
C152 Tb88 2.833 . S
C152 O132 1.251 . S
C152 O137 1.256 . S
C152 C145 1.500 . S
C153 H118 0.929 . S
C153 C131 1.444 1_554 S
C153 C154 1.317 . S
C154 H116 0.930 . S
C154 C122 1.432 . S
C154 C153 1.317 . S
C155 O139 1.283 . S
C155 O142 1.243 . S
C156 C157 1.382 . S
C156 C160 1.393 . S
C156 C163 1.500 . S
C157 C156 1.382 . S
C157 C158 1.400 . S
C157 H168 0.930 1_655 S
C158 C157 1.400 . S
C158 C159 1.384 . S
C159 C158 1.384 . S
C159 C161 1.392 . S
C159 H169 0.931 . S
C160 C156 1.393 . S
C160 C161 1.401 . S
C160 H170 0.930 . S
C161 C159 1.392 . S
C161 C160 1.401 . S
C161 H171 0.930 . S
C162 O140 1.262 1_545 S
C162 O141 1.260 . S
C163 Tb99 2.833 . S
C163 O138 1.251 . S
C163 O143 1.256 . S
C163 C156 1.500 . S
H164 C147 0.952 . S
H165 C148 0.931 1_554 S
H166 C149 0.930 . S
H167 C150 0.930 . S
H168 C157 0.930 1_455 S
H169 C159 0.931 . S
H170 C160 0.930 . S
H171 C161 0.930 . S
Tb172 N203 2.660 . S
Tb172 N210 2.600 . S
Tb172 O216 2.546 . S
Tb172 O217 2.610 1_545 S
Tb172 O219 2.320 1_545 S
Tb172 O220 2.552 . S
Tb172 O221 2.413 . S
Tb172 O223 2.362 . S
Tb172 O224 2.421 . S
Tb172 C236 2.833 . S
C173 C176 1.432 . S
C173 C177 1.414 . S
C173 N180 1.359 . S
C174 C176 1.417 . S
C174 C178 1.432 . S
C174 C186 1.410 . S
C175 C177 1.444 . S
C175 C178 1.317 . S
C175 H198 0.929 . S
C176 C173 1.432 . S
C176 C174 1.417 . S
C176 N184 1.360 . S
C177 C173 1.414 . S
C177 C175 1.444 . S
C177 C182 1.385 . S
C178 C174 1.432 . S
C178 C175 1.317 . S
C178 H190 0.930 . S
C179 C181 1.392 . S
C179 C182 1.370 . S
C179 H191 0.931 . S
N180 C173 1.359 . S
N180 C181 1.327 . S
N180 Tb183 2.600 . S
C181 C179 1.392 . S
C181 N180 1.327 . S
C181 H188 0.930 . S
C182 C177 1.385 . S
C182 C179 1.370 . S
C182 H201 0.930 . S
Tb183 N180 2.600 . S
Tb183 N184 2.660 . S
Tb183 O217 2.362 . S
Tb183 O218 2.421 . S
Tb183 O222 2.546 . S
Tb183 O223 2.610 1_565 S
Tb183 O225 2.320 1_565 S
Tb183 O226 2.552 1_565 S
Tb183 O227 2.413 . S
Tb183 C247 2.833 . S
N184 C176 1.360 . S
N184 Tb183 2.660 . S
N184 C185 1.305 1_565 S
C185 N184 1.305 1_545 S
C185 C187 1.407 . S
C185 H192 0.930 . S
C186 C174 1.410 . S
C186 C187 1.345 1_565 S
C186 H194 0.930 . S
C187 C185 1.407 . S
C187 C186 1.345 1_545 S
C187 H189 0.930 . S
H188 C181 0.930 . S
H189 C187 0.930 . S
H190 C178 0.930 . S
H191 C179 0.931 . S
H192 C185 0.930 . S
H193 C207 0.930 1_564 S
H194 C186 0.930 . S
H195 C213 0.930 . S
H196 C204 0.930 1_565 S
H197 C211 0.931 . S
H198 C175 0.929 . S
H199 C205 0.930 . S
H200 C238 0.930 . S
H201 C182 0.930 . S
H202 C237 0.929 . S
N203 Tb172 2.660 . S
N203 C204 1.305 . S
N203 C208 1.360 . S
C204 H196 0.930 1_545 S
C204 N203 1.305 . S
C204 C207 1.407 . S
C205 H199 0.930 . S
C205 C206 1.410 . S
C205 C207 1.345 1_554 S
C206 C205 1.410 . S
C206 C208 1.417 1_554 S
C206 C238 1.432 . S
C207 H193 0.930 1_546 S
C207 C204 1.407 . S
C207 C205 1.345 1_556 S
C208 N203 1.360 . S
C208 C206 1.417 1_556 S
C208 C212 1.432 . S
H209 C214 0.930 . S
N210 Tb172 2.600 . S
N210 C212 1.359 . S
N210 C213 1.327 . S
C211 H197 0.931 . S
C211 C213 1.392 . S
C211 C214 1.370 . S
C212 C208 1.432 . S
C212 N210 1.359 . S
C212 C215 1.414 . S
C213 H195 0.930 . S
C213 N210 1.327 . S
C213 C211 1.392 . S
C214 H209 0.930 . S
C214 C211 1.370 . S
C214 C215 1.385 . S
C215 C212 1.414 . S
C215 C214 1.385 . S
C215 C237 1.444 1_556 S
O216 Tb172 2.546 . S
O216 C236 1.251 . S
O217 Tb172 2.610 1_565 S
O217 Tb183 2.362 . S
O217 C228 1.283 . S
O218 Tb183 2.421 . S
O218 C235 1.262 . S
O219 Tb172 2.320 1_565 S
O219 C235 1.260 . S
O220 Tb172 2.552 . S
O220 C228 1.243 1_545 S
O221 Tb172 2.413 . S
O221 C236 1.256 . S
O222 Tb183 2.546 . S
O222 C247 1.251 . S
O223 Tb172 2.362 . S
O223 Tb183 2.610 1_545 S
O223 C239 1.283 . S
O224 Tb172 2.421 . S
O224 C246 1.262 . S
O225 Tb183 2.320 1_545 S
O225 C246 1.260 . S
O226 Tb183 2.552 1_545 S
O226 C239 1.243 . S
O227 Tb183 2.413 . S
O227 C247 1.256 . S
C228 O217 1.283 . S
C228 O220 1.243 1_565 S
C229 C231 1.382 . S
C229 C233 1.393 . S
C229 C236 1.500 . S
C230 C231 1.400 . S
C230 C232 1.384 . S
C231 C229 1.382 . S
C231 C230 1.400 . S
C231 H248 0.930 . S
C232 C230 1.384 . S
C232 C234 1.392 . S
C232 H249 0.931 1_556 S
C233 C229 1.393 . S
C233 C234 1.401 . S
C233 H250 0.930 . S
C234 C232 1.392 . S
C234 C233 1.401 . S
C234 H251 0.930 . S
C235 O218 1.262 . S
C235 O219 1.260 . S
C236 Tb172 2.833 . S
C236 O216 1.251 . S
C236 O221 1.256 . S
C236 C229 1.500 . S
C237 H202 0.929 . S
C237 C215 1.444 1_554 S
C237 C238 1.317 . S
C238 H200 0.930 . S
C238 C206 1.432 . S
C238 C237 1.317 . S
C239 O223 1.283 . S
C239 O226 1.243 . S
C240 C241 1.382 . S
C240 C244 1.393 . S
C240 C247 1.500 . S
C241 C240 1.382 . S
C241 C242 1.400 . S
C241 H252 0.930 1_565 S
C242 C241 1.400 . S
C242 C243 1.384 . S
C243 C242 1.384 . S
C243 C245 1.392 . S
C243 H253 0.931 . S
C244 C240 1.393 . S
C244 C245 1.401 . S
C244 H254 0.930 . S
C245 C243 1.392 . S
C245 C244 1.401 . S
C245 H255 0.930 . S
C246 O224 1.262 . S
C246 O225 1.260 . S
C247 Tb183 2.833 . S
C247 O222 1.251 . S
C247 O227 1.256 . S
C247 C240 1.500 . S
H248 C231 0.930 . S
H249 C232 0.931 1_554 S
H250 C233 0.930 . S
H251 C234 0.930 . S
H252 C241 0.930 1_545 S
H253 C243 0.931 . S
H254 C244 0.930 . S
H255 C245 0.930 . S
Tb256 N287 2.660 . S
Tb256 N294 2.600 . S
Tb256 O300 2.546 . S
Tb256 O301 2.610 . S
Tb256 O303 2.320 . S
Tb256 O304 2.552 . S
Tb256 O305 2.413 . S
Tb256 O307 2.362 . S
Tb256 O308 2.421 . S
Tb256 C320 2.833 . S
C257 C260 1.432 . S
C257 C261 1.414 . S
C257 N264 1.359 . S
C258 C260 1.417 . S
C258 C262 1.432 . S
C258 C270 1.410 . S
C259 C261 1.444 . S
C259 C262 1.317 . S
C259 H282 0.929 . S
C260 C257 1.432 . S
C260 C258 1.417 . S
C260 N268 1.360 . S
C261 C257 1.414 . S
C261 C259 1.444 . S
C261 C266 1.385 . S
C262 C258 1.432 . S
C262 C259 1.317 . S
C262 H274 0.930 . S
C263 C265 1.392 . S
C263 C266 1.370 . S
C263 H275 0.931 . S
N264 C257 1.359 . S
N264 C265 1.327 . S
N264 Tb267 2.600 . S
C265 C263 1.392 . S
C265 N264 1.327 . S
C265 H272 0.930 . S
C266 C261 1.385 . S
C266 C263 1.370 . S
C266 H285 0.930 . S
Tb267 N264 2.600 . S
Tb267 N268 2.660 . S
Tb267 O301 2.362 . S
Tb267 O302 2.421 . S
Tb267 O306 2.546 . S
Tb267 O307 2.610 . S
Tb267 O309 2.320 . S
Tb267 O310 2.552 . S
Tb267 O311 2.413 . S
Tb267 C331 2.833 . S
N268 C260 1.360 . S
N268 Tb267 2.660 . S
N268 C269 1.305 . S
C269 N268 1.305 . S
C269 C271 1.407 . S
C269 H276 0.930 . S
C270 C258 1.410 . S
C270 C271 1.345 . S
C270 H278 0.930 . S
C271 C269 1.407 . S
C271 C270 1.345 . S
C271 H273 0.930 . S
H272 C265 0.930 . S
H273 C271 0.930 . S
H274 C262 0.930 . S
H275 C263 0.931 . S
H276 C269 0.930 . S
H277 C291 0.930 . S
H278 C270 0.930 . S
H279 C297 0.930 . S
H280 C288 0.930 . S
H281 C295 0.931 . S
H282 C259 0.929 . S
H283 C289 0.930 . S
H284 C322 0.930 . S
H285 C266 0.930 . S
H286 C321 0.929 . S
N287 Tb256 2.660 . S
N287 C288 1.305 . S
N287 C292 1.360 . S
C288 H280 0.930 . S
C288 N287 1.305 . S
C288 C291 1.407 . S
C289 H283 0.930 . S
C289 C290 1.410 . S
C289 C291 1.345 . S
C290 C289 1.410 . S
C290 C292 1.417 . S
C290 C322 1.432 . S
C291 H277 0.930 . S
C291 C288 1.407 . S
C291 C289 1.345 . S
C292 N287 1.360 . S
C292 C290 1.417 . S
C292 C296 1.432 . S
H293 C298 0.930 . S
N294 Tb256 2.600 . S
N294 C296 1.359 . S
N294 C297 1.327 . S
C295 H281 0.931 . S
C295 C297 1.392 . S
C295 C298 1.370 . S
C296 C292 1.432 . S
C296 N294 1.359 . S
C296 C299 1.414 . S
C297 H279 0.930 . S
C297 N294 1.327 . S
C297 C295 1.392 . S
C298 H293 0.930 . S
C298 C295 1.370 . S
C298 C299 1.385 . S
C299 C296 1.414 . S
C299 C298 1.385 . S
C299 C321 1.444 . S
O300 Tb256 2.546 . S
O300 C320 1.251 . S
O301 Tb256 2.610 . S
O301 Tb267 2.362 . S
O301 C312 1.283 . S
O302 Tb267 2.421 . S
O302 C319 1.262 . S
O303 Tb256 2.320 . S
O303 C319 1.260 . S
O304 Tb256 2.552 . S
O304 C312 1.243 . S
O305 Tb256 2.413 . S
O305 C320 1.256 . S
O306 Tb267 2.546 . S
O306 C331 1.251 . S
O307 Tb256 2.362 . S
O307 Tb267 2.610 . S
O307 C323 1.283 . S
O308 Tb256 2.421 . S
O308 C330 1.262 . S
O309 Tb267 2.320 . S
O309 C330 1.260 . S
O310 Tb267 2.552 . S
O310 C323 1.243 . S
O311 Tb267 2.413 . S
O311 C331 1.256 . S
C312 O301 1.283 . S
C312 O304 1.243 . S
C313 C315 1.382 . S
C313 C317 1.393 . S
C313 C320 1.500 . S
C314 C315 1.400 . S
C314 C316 1.384 . S
C315 C313 1.382 . S
C315 C314 1.400 . S
C315 H332 0.930 . S
C316 C314 1.384 . S
C316 C318 1.392 . S
C316 H333 0.931 . S
C317 C313 1.393 . S
C317 C318 1.401 . S
C317 H334 0.930 . S
C318 C316 1.392 . S
C318 C317 1.401 . S
C318 H335 0.930 . S
C319 O302 1.262 . S
C319 O303 1.260 . S
C320 Tb256 2.833 . S
C320 O300 1.251 . S
C320 O305 1.256 . S
C320 C313 1.500 . S
C321 H286 0.929 . S
C321 C299 1.444 . S
C321 C322 1.317 . S
C322 H284 0.930 . S
C322 C290 1.432 . S
C322 C321 1.317 . S
C323 O307 1.283 . S
C323 O310 1.243 . S
C324 C325 1.382 . S
C324 C328 1.393 1_556 S
C324 C331 1.500 . S
C325 C324 1.382 . S
C325 C326 1.400 1_556 S
C325 H336 0.930 . S
C326 C325 1.400 1_554 S
C326 C327 1.384 . S
C327 C326 1.384 . S
C327 C329 1.392 . S
C327 H337 0.931 . S
C328 C324 1.393 1_554 S
C328 C329 1.401 . S
C328 H338 0.930 . S
C329 C327 1.392 . S
C329 C328 1.401 . S
C329 H339 0.930 . S
C330 O308 1.262 . S
C330 O309 1.260 . S
C331 Tb267 2.833 . S
C331 O306 1.251 . S
C331 O311 1.256 . S
C331 C324 1.500 . S
H332 C315 0.930 . S
H333 C316 0.931 . S
H334 C317 0.930 . S
H335 C318 0.930 . S
H336 C325 0.930 . S
H337 C327 0.931 . S
H338 C328 0.930 . S
H339 C329 0.930 . S
Tb340 N371 2.660 . S
Tb340 N378 2.600 . S
Tb340 O384 2.546 . S
Tb340 O385 2.610 . S
Tb340 O387 2.320 . S
Tb340 O388 2.552 . S
Tb340 O389 2.413 . S
Tb340 O391 2.362 . S
Tb340 O392 2.421 1_455 S
Tb340 C404 2.833 . S
C341 C344 1.432 . S
C341 C345 1.414 . S
C341 N348 1.359 . S
C342 C344 1.417 . S
C342 C346 1.432 . S
C342 C354 1.410 . S
C343 C345 1.444 . S
C343 C346 1.317 . S
C343 H366 0.929 . S
C344 C341 1.432 . S
C344 C342 1.417 . S
C344 N352 1.360 . S
C345 C341 1.414 . S
C345 C343 1.444 . S
C345 C350 1.385 1_655 S
C346 C342 1.432 . S
C346 C343 1.317 . S
C346 H358 0.930 . S
C347 C349 1.392 . S
C347 C350 1.370 . S
C347 H359 0.931 . S
N348 C341 1.359 . S
N348 C349 1.327 1_655 S
N348 Tb351 2.600 . S
C349 C347 1.392 . S
C349 N348 1.327 1_455 S
C349 H356 0.930 . S
C350 C345 1.385 1_455 S
C350 C347 1.370 . S
C350 H369 0.930 . S
Tb351 N348 2.600 . S
Tb351 N352 2.660 . S
Tb351 O385 2.362 1_655 S
Tb351 O386 2.421 1_655 S
Tb351 O390 2.546 . S
Tb351 O391 2.610 1_655 S
Tb351 O393 2.320 . S
Tb351 O394 2.552 . S
Tb351 O395 2.413 . S
Tb351 C415 2.833 . S
N352 C344 1.360 . S
N352 Tb351 2.660 . S
N352 C353 1.305 . S
C353 N352 1.305 . S
C353 C355 1.407 . S
C353 H360 0.930 . S
C354 C342 1.410 . S
C354 C355 1.345 . S
C354 H362 0.930 . S
C355 C353 1.407 . S
C355 C354 1.345 . S
C355 H357 0.930 . S
H356 C349 0.930 . S
H357 C355 0.930 . S
H358 C346 0.930 . S
H359 C347 0.931 . S
H360 C353 0.930 . S
H361 C375 0.930 . S
H362 C354 0.930 . S
H363 C381 0.924 1_655 S
H364 C372 0.930 . S
H365 C379 0.931 . S
H366 C343 0.929 . S
H367 C373 0.930 . S
H368 C406 0.930 . S
H369 C350 0.930 . S
H370 C405 0.929 . S
N371 Tb340 2.660 . S
N371 C372 1.305 . S
N371 C376 1.360 . S
C372 H364 0.930 . S
C372 N371 1.305 . S
C372 C375 1.407 . S
C373 H367 0.930 . S
C373 C374 1.410 . S
C373 C375 1.345 . S
C374 C373 1.410 . S
C374 C376 1.417 . S
C374 C406 1.432 . S
C375 H361 0.930 . S
C375 C372 1.407 . S
C375 C373 1.345 . S
C376 N371 1.360 . S
C376 C374 1.417 . S
C376 C380 1.432 . S
H377 C382 0.930 . S
N378 Tb340 2.600 . S
N378 C380 1.359 . S
N378 C381 1.334 . S
C379 H365 0.931 . S
C379 C381 1.391 1_655 S
C379 C382 1.370 1_655 S
C380 C376 1.432 . S
C380 N378 1.359 . S
C380 C383 1.414 . S
C381 H363 0.924 1_455 S
C381 N378 1.334 . S
C381 C379 1.391 1_455 S
C382 H377 0.930 . S
C382 C379 1.370 1_455 S
C382 C383 1.385 . S
C383 C380 1.414 . S
C383 C382 1.385 . S
C383 C405 1.444 . S
O384 Tb340 2.546 . S
O384 C404 1.251 . S
O385 Tb340 2.610 . S
O385 Tb351 2.362 1_455 S
O385 C396 1.283 . S
O386 Tb351 2.421 1_455 S
O386 C403 1.262 . S
O387 Tb340 2.320 . S
O387 C403 1.260 . S
O388 Tb340 2.552 . S
O388 C396 1.243 . S
O389 Tb340 2.413 . S
O389 C404 1.256 . S
O390 Tb351 2.546 . S
O390 C415 1.251 . S
O391 Tb340 2.362 . S
O391 Tb351 2.610 1_455 S
O391 C407 1.283 1_455 S
O392 Tb340 2.421 1_655 S
O392 C414 1.262 . S
O393 Tb351 2.320 . S
O393 C414 1.260 . S
O394 Tb351 2.552 . S
O394 C407 1.243 . S
O395 Tb351 2.413 . S
O395 C415 1.256 . S
C396 O385 1.283 . S
C396 O388 1.243 . S
C397 C399 1.382 . S
C397 C401 1.393 . S
C397 C404 1.500 . S
C398 C399 1.400 . S
C398 C400 1.384 . S
C399 C397 1.382 . S
C399 C398 1.400 . S
C399 H416 0.930 . S
C400 C398 1.384 . S
C400 C402 1.392 . S
C400 H417 0.931 . S
C401 C397 1.393 . S
C401 C402 1.401 . S
C401 H418 0.930 . S
C402 C400 1.392 . S
C402 C401 1.401 . S
C402 H419 0.930 . S
C403 O386 1.262 . S
C403 O387 1.260 . S
C404 Tb340 2.833 . S
C404 O384 1.251 . S
C404 O389 1.256 . S
C404 C397 1.500 . S
C405 H370 0.929 . S
C405 C383 1.444 . S
C405 C406 1.317 . S
C406 H368 0.930 . S
C406 C374 1.432 . S
C406 C405 1.317 . S
C407 O391 1.283 1_655 S
C407 O394 1.243 . S
C408 C409 1.382 . S
C408 C412 1.393 1_556 S
C408 C415 1.500 . S
C409 C408 1.382 . S
C409 C410 1.400 1_556 S
C409 H420 0.930 . S
C410 C409 1.400 1_554 S
C410 C411 1.384 . S
C411 C410 1.384 . S
C411 C413 1.392 . S
C411 H421 0.931 . S
C412 C408 1.393 1_554 S
C412 C413 1.401 . S
C412 H422 0.930 . S
C413 C411 1.392 . S
C413 C412 1.401 . S
C413 H423 0.930 . S
C414 O392 1.262 . S
C414 O393 1.260 . S
C415 Tb351 2.833 . S
C415 O390 1.251 . S
C415 O395 1.256 . S
C415 C408 1.500 . S
H416 C399 0.930 . S
H417 C400 0.931 . S
H418 C401 0.930 . S
H419 C402 0.930 . S
H420 C409 0.930 . S
H421 C411 0.931 . S
H422 C412 0.930 . S
H423 C413 0.930 . S
C424 C425 1.391 . S
C424 C426 1.394 . S
C424 H440 0.931 . S
C425 C424 1.391 . S
C425 C429 1.376 . S
C426 C424 1.394 . S
C426 C427 1.369 . S
C426 C430 1.531 . S
C427 C426 1.369 . S
C427 C428 1.410 . S
C427 C435 1.503 . S
C428 C427 1.410 . S
C428 C429 1.392 . S
C428 C431 1.511 . S
C429 C425 1.376 . S
C429 C428 1.392 . S
C429 H441 0.929 . S
C430 C426 1.531 . S
C430 H442 0.960 . S
C430 H443 0.962 . S
C430 H444 0.960 . S
C431 C428 1.511 . S
C431 H445 0.961 . S
C431 H446 0.961 . S
C431 H447 0.961 . S
C432 C433 1.370 . S
C432 C434 1.363 . S
C432 H448 0.931 1_545 S
C433 C432 1.370 . S
C433 C437 1.408 . S
C434 C432 1.363 . S
C434 C435 1.370 . S
C434 C438 1.524 . S
C435 C427 1.503 . S
C435 C434 1.370 . S
C435 C436 1.403 . S
C436 C435 1.403 . S
C436 C437 1.404 . S
C436 C439 1.539 . S
C437 C433 1.408 . S
C437 C436 1.404 . S
C437 H449 0.930 . S
C438 C434 1.524 . S
C438 H450 0.956 . S
C438 H451 0.961 1_545 S
C438 H452 0.961 1_545 S
C439 C436 1.539 . S
C439 H453 0.958 . S
C439 H454 0.961 . S
C439 H455 0.960 . S
H440 C424 0.931 . S
H441 C429 0.929 . S
H442 C430 0.960 . S
H443 C430 0.962 . S
H444 C430 0.960 . S
H445 C431 0.961 . S
H446 C431 0.961 . S
H447 C431 0.961 . S
H448 C432 0.931 1_565 S
H449 C437 0.930 . S
H450 C438 0.956 . S
H451 C438 0.961 1_565 S
H452 C438 0.961 1_565 S
H453 C439 0.958 . S
H454 C439 0.961 . S
H455 C439 0.960 . S
C456 C457 1.391 . S
C456 C458 1.394 . S
C456 H472 0.931 . S
C457 C456 1.391 . S
C457 C461 1.376 . S
C458 C456 1.394 . S
C458 C459 1.369 . S
C458 C462 1.531 . S
C459 C458 1.369 . S
C459 C460 1.410 . S
C459 C467 1.503 . S
C460 C459 1.410 . S
C460 C461 1.392 . S
C460 C463 1.511 . S
C461 C457 1.376 . S
C461 C460 1.392 . S
C461 H473 0.929 . S
C462 C458 1.531 . S
C462 H474 0.960 . S
C462 H475 0.962 . S
C462 H476 0.960 . S
C463 C460 1.511 . S
C463 H477 0.961 . S
C463 H478 0.961 . S
C463 H479 0.961 . S
C464 C465 1.370 . S
C464 C466 1.363 . S
C464 H480 0.931 . S
C465 C464 1.370 . S
C465 C469 1.408 . S
C466 C464 1.363 . S
C466 C467 1.370 . S
C466 C470 1.524 . S
C467 C459 1.503 . S
C467 C466 1.370 . S
C467 C468 1.403 . S
C468 C467 1.403 . S
C468 C469 1.404 . S
C468 C471 1.539 . S
C469 C465 1.408 . S
C469 C468 1.404 . S
C469 H481 0.930 . S
C470 C466 1.524 . S
C470 H482 0.956 . S
C470 H483 0.961 . S
C470 H484 0.961 . S
C471 C468 1.539 . S
C471 H485 0.958 . S
C471 H486 0.961 . S
C471 H487 0.960 . S
H472 C456 0.931 . S
H473 C461 0.929 . S
H474 C462 0.960 . S
H475 C462 0.962 . S
H476 C462 0.960 . S
H477 C463 0.961 . S
H478 C463 0.961 . S
H479 C463 0.961 . S
H480 C464 0.931 . S
H481 C469 0.930 . S
H482 C470 0.956 . S
H483 C470 0.961 . S
H484 C470 0.961 . S
H485 C471 0.958 . S
H486 C471 0.961 . S
H487 C471 0.960 . S
C488 C489 1.391 . S
C488 C490 1.394 . S
C488 H504 0.931 . S
C489 C488 1.391 . S
C489 C493 1.376 . S
C490 C488 1.394 . S
C490 C491 1.369 . S
C490 C494 1.531 . S
C491 C490 1.369 . S
C491 C492 1.410 . S
C491 C499 1.503 . S
C492 C491 1.410 . S
C492 C493 1.392 . S
C492 C495 1.511 . S
C493 C489 1.376 . S
C493 C492 1.392 . S
C493 H505 0.929 . S
C494 C490 1.531 . S
C494 H506 0.960 . S
C494 H507 0.962 . S
C494 H508 0.960 . S
C495 C492 1.511 . S
C495 H509 0.961 . S
C495 H510 0.961 . S
C495 H511 0.961 . S
C496 C497 1.370 . S
C496 C498 1.363 . S
C496 H512 0.931 . S
C497 C496 1.370 . S
C497 C501 1.408 . S
C498 C496 1.363 . S
C498 C499 1.370 . S
C498 C502 1.524 . S
C499 C491 1.503 . S
C499 C498 1.370 . S
C499 C500 1.403 . S
C500 C499 1.403 . S
C500 C501 1.404 . S
C500 C503 1.539 . S
C501 C497 1.408 . S
C501 C500 1.404 . S
C501 H513 0.930 . S
C502 C498 1.524 . S
C502 H514 0.956 . S
C502 H515 0.961 . S
C502 H516 0.961 . S
C503 C500 1.539 . S
C503 H517 0.958 . S
C503 H518 0.961 . S
C503 H519 0.960 . S
H504 C488 0.931 . S
H505 C493 0.929 . S
H506 C494 0.960 . S
H507 C494 0.962 . S
H508 C494 0.960 . S
H509 C495 0.961 . S
H510 C495 0.961 . S
H511 C495 0.961 . S
H512 C496 0.931 . S
H513 C501 0.930 . S
H514 C502 0.956 . S
H515 C502 0.961 . S
H516 C502 0.961 . S
H517 C503 0.958 . S
H518 C503 0.961 . S
H519 C503 0.960 . S
C520 C521 1.391 . S
C520 C522 1.394 . S
C520 H536 0.931 . S
C521 C520 1.391 . S
C521 C525 1.376 . S
C522 C520 1.394 . S
C522 C523 1.369 . S
C522 C526 1.531 . S
C523 C522 1.369 . S
C523 C524 1.410 . S
C523 C531 1.503 . S
C524 C523 1.410 . S
C524 C525 1.392 . S
C524 C527 1.511 1_455 S
C525 C521 1.376 . S
C525 C524 1.392 . S
C525 H537 0.929 . S
C526 C522 1.531 . S
C526 H538 0.960 . S
C526 H539 0.962 . S
C526 H540 0.960 . S
C527 C524 1.511 1_655 S
C527 H541 0.961 . S
C527 H542 0.961 . S
C527 H543 0.961 . S
C528 C529 1.370 . S
C528 C530 1.363 . S
C528 H544 0.931 . S
C529 C528 1.370 . S
C529 C533 1.408 . S
C530 C528 1.363 . S
C530 C531 1.370 . S
C530 C534 1.524 . S
C531 C523 1.503 . S
C531 C530 1.370 . S
C531 C532 1.403 . S
C532 C531 1.403 . S
C532 C533 1.404 . S
C532 C535 1.539 . S
C533 C529 1.408 . S
C533 C532 1.404 . S
C533 H545 0.930 . S
C534 C530 1.524 . S
C534 H546 0.956 . S
C534 H547 0.961 . S
C534 H548 0.961 . S
C535 C532 1.539 . S
C535 H549 0.958 . S
C535 H550 0.961 . S
C535 H551 0.960 . S
H536 C520 0.931 . S
H537 C525 0.929 . S
H538 C526 0.960 . S
H539 C526 0.962 . S
H540 C526 0.960 . S
H541 C527 0.961 . S
H542 C527 0.961 . S
H543 C527 0.961 . S
H544 C528 0.931 . S
H545 C533 0.930 . S
H546 C534 0.956 . S
H547 C534 0.961 . S
H548 C534 0.961 . S
H549 C535 0.958 . S
H550 C535 0.961 . S
H551 C535 0.960 . S
C552 C553 1.391 . S
C552 C554 1.394 . S
C552 H568 0.931 . S
C553 C552 1.391 . S
C553 C557 1.376 . S
C554 C552 1.394 . S
C554 C555 1.369 . S
C554 C558 1.531 1_564 S
C555 C554 1.369 . S
C555 C556 1.410 . S
C555 C563 1.503 1_554 S
C556 C555 1.410 . S
C556 C557 1.392 . S
C556 C559 1.511 . S
C557 C553 1.376 . S
C557 C556 1.392 . S
C557 H569 0.929 . S
C558 C554 1.531 1_546 S
C558 H570 0.960 . S
C558 H571 0.974 . S
C558 H572 0.957 1_556 S
C559 C556 1.511 . S
C559 H573 0.961 . S
C559 H574 0.961 . S
C559 H575 0.961 . S
C560 C561 1.370 . S
C560 C562 1.363 . S
C560 H576 0.931 . S
C561 C560 1.370 . S
C561 C565 1.408 1_565 S
C562 C560 1.363 . S
C562 C563 1.370 . S
C562 C566 1.524 . S
C563 C555 1.503 1_556 S
C563 C562 1.370 . S
C563 C564 1.403 1_565 S
C564 C563 1.403 1_545 S
C564 C565 1.404 . S
C564 C567 1.539 1_556 S
C565 C561 1.408 1_545 S
C565 C564 1.404 . S
C565 H577 0.930 . S
C566 C562 1.524 . S
C566 H578 0.956 . S
C566 H579 0.961 . S
C566 H580 0.961 . S
C567 C564 1.539 1_554 S
C567 H581 0.958 . S
C567 H582 0.961 . S
C567 H583 0.960 . S
H568 C552 0.931 . S
H569 C557 0.929 . S
H570 C558 0.960 . S
H571 C558 0.974 . S
H572 C558 0.957 1_554 S
H573 C559 0.961 . S
H574 C559 0.961 . S
H575 C559 0.961 . S
H576 C560 0.931 . S
H577 C565 0.930 . S
H578 C566 0.956 . S
H579 C566 0.961 . S
H580 C566 0.961 . S
H581 C567 0.958 . S
H582 C567 0.961 . S
H583 C567 0.960 . S
C584 C585 1.391 . S
C584 C586 1.394 . S
C584 H600 0.931 . S
C585 C584 1.391 . S
C585 C589 1.376 . S
C586 C584 1.394 . S
C586 C587 1.369 . S
C586 C590 1.531 . S
C587 C586 1.369 . S
C587 C588 1.410 . S
C587 C595 1.503 1_554 S
C588 C587 1.410 . S
C588 C589 1.392 . S
C588 C591 1.511 . S
C589 C585 1.376 . S
C589 C588 1.392 . S
C589 H601 0.929 . S
C590 C586 1.531 . S
C590 H602 0.960 . S
C590 H603 0.962 . S
C590 H604 0.960 . S
C591 C588 1.511 . S
C591 H605 0.961 . S
C591 H606 0.961 1_554 S
C591 H607 0.961 . S
C592 C593 1.370 . S
C592 C594 1.363 . S
C592 H608 0.931 . S
C593 C592 1.370 . S
C593 C597 1.408 . S
C594 C592 1.363 . S
C594 C595 1.370 . S
C594 C598 1.524 . S
C595 C587 1.503 1_556 S
C595 C594 1.370 . S
C595 C596 1.403 . S
C596 C595 1.403 . S
C596 C597 1.404 . S
C596 C599 1.539 1_556 S
C597 C593 1.408 . S
C597 C596 1.404 . S
C597 H609 0.930 . S
C598 C594 1.524 . S
C598 H610 0.956 . S
C598 H611 0.961 . S
C598 H612 0.961 . S
C599 C596 1.539 1_554 S
C599 H613 0.958 . S
C599 H614 0.961 . S
C599 H615 0.960 . S
H600 C584 0.931 . S
H601 C589 0.929 . S
H602 C590 0.960 . S
H603 C590 0.962 . S
H604 C590 0.960 . S
H605 C591 0.961 . S
H606 C591 0.961 1_556 S
H607 C591 0.961 . S
H608 C592 0.931 . S
H609 C597 0.930 . S
H610 C598 0.956 . S
H611 C598 0.961 . S
H612 C598 0.961 . S
H613 C599 0.958 . S
H614 C599 0.961 . S
H615 C599 0.960 . S
C616 C617 1.391 . S
C616 C618 1.394 . S
C616 H632 0.931 . S
C617 C616 1.391 . S
C617 C621 1.376 . S
C618 C616 1.394 . S
C618 C619 1.369 . S
C618 C622 1.531 . S
C619 C618 1.369 . S
C619 C620 1.410 . S
C619 C627 1.503 1_554 S
C620 C619 1.410 . S
C620 C621 1.392 . S
C620 C623 1.511 . S
C621 C617 1.376 . S
C621 C620 1.392 . S
C621 H633 0.929 . S
C622 C618 1.531 . S
C622 H634 0.960 . S
C622 H635 0.962 1_554 S
C622 H636 0.960 . S
C623 C620 1.511 . S
C623 H637 0.961 . S
C623 H638 0.961 1_554 S
C623 H639 0.961 . S
C624 C625 1.370 . S
C624 C626 1.363 . S
C624 H640 0.931 . S
C625 C624 1.370 . S
C625 C629 1.408 . S
C626 C624 1.363 . S
C626 C627 1.370 . S
C626 C630 1.524 . S
C627 C619 1.503 1_556 S
C627 C626 1.370 . S
C627 C628 1.403 . S
C628 C627 1.403 . S
C628 C629 1.404 . S
C628 C631 1.539 1_556 S
C629 C625 1.408 . S
C629 C628 1.404 . S
C629 H641 0.930 . S
C630 C626 1.524 . S
C630 H642 0.956 . S
C630 H643 0.961 . S
C630 H644 0.961 . S
C631 C628 1.539 1_554 S
C631 H645 0.958 . S
C631 H646 0.961 . S
C631 H647 0.960 . S
H632 C616 0.931 . S
H633 C621 0.929 . S
H634 C622 0.960 . S
H635 C622 0.962 1_556 S
H636 C622 0.960 . S
H637 C623 0.961 . S
H638 C623 0.961 1_556 S
H639 C623 0.961 . S
H640 C624 0.931 . S
H641 C629 0.930 . S
H642 C630 0.956 . S
H643 C630 0.961 . S
H644 C630 0.961 . S
H645 C631 0.958 . S
H646 C631 0.961 . S
H647 C631 0.960 . S
C648 C649 1.391 . S
C648 C650 1.394 . S
C648 H664 0.931 . S
C649 C648 1.391 . S
C649 C653 1.376 . S
C650 C648 1.394 . S
C650 C651 1.369 . S
C650 C654 1.531 1_554 S
C651 C650 1.369 . S
C651 C652 1.410 . S
C651 C659 1.503 1_554 S
C652 C651 1.410 . S
C652 C653 1.392 . S
C652 C655 1.511 1_655 S
C653 C649 1.376 . S
C653 C652 1.392 . S
C653 H665 0.929 . S
C654 C650 1.531 1_556 S
C654 H666 0.960 . S
C654 H667 0.962 . S
C654 H668 0.960 . S
C655 C652 1.511 1_455 S
C655 H669 0.961 . S
C655 H670 0.961 . S
C655 H671 0.961 . S
C656 C657 1.370 . S
C656 C658 1.363 . S
C656 H672 0.931 . S
C657 C656 1.370 . S
C657 C661 1.408 1_655 S
C658 C656 1.363 . S
C658 C659 1.370 . S
C658 C662 1.524 1_556 S
C659 C651 1.503 1_556 S
C659 C658 1.370 . S
C659 C660 1.403 . S
C660 C659 1.403 . S
C660 C661 1.404 1_655 S
C660 C663 1.539 1_655 S
C661 C657 1.408 1_455 S
C661 C660 1.404 1_455 S
C661 H673 0.930 . S
C662 C658 1.524 1_554 S
C662 H674 0.956 . S
C662 H675 0.961 . S
C662 H676 0.961 . S
C663 C660 1.539 1_455 S
C663 H677 0.958 . S
C663 H678 0.961 . S
C663 H679 0.960 . S
H664 C648 0.931 . S
H665 C653 0.929 . S
H666 C654 0.960 . S
H667 C654 0.962 . S
H668 C654 0.960 . S
H669 C655 0.961 . S
H670 C655 0.961 . S
H671 C655 0.961 . S
H672 C656 0.931 . S
H673 C661 0.930 . S
H674 C662 0.956 . S
H675 C662 0.961 . S
H676 C662 0.961 . S
H677 C663 0.958 . S
H678 C663 0.961 . S
H679 C663 0.960 . S
C680 C681 1.391 . S
C680 C682 1.394 . S
C680 H696 0.931 . S
C681 C680 1.391 . S
C681 C685 1.376 . S
C682 C680 1.394 . S
C682 C683 1.369 . S
C682 C686 1.531 . S
C683 C682 1.369 . S
C683 C684 1.410 . S
C683 C691 1.503 . S
C684 C683 1.410 . S
C684 C685 1.392 . S
C684 C687 1.511 . S
C685 C681 1.376 . S
C685 C684 1.392 . S
C685 H697 0.938 . S
C686 C682 1.531 . S
C686 H698 0.960 . S
C686 H699 0.962 . S
C686 H700 0.960 . S
C687 C684 1.511 . S
C687 H701 0.961 . S
C687 H702 0.961 . S
C687 H703 0.961 . S
C688 C689 1.370 . S
C688 C690 1.363 . S
C688 H704 0.931 . S
C689 C688 1.370 . S
C689 C693 1.408 1_455 S
C690 C688 1.363 . S
C690 C691 1.370 . S
C690 C694 1.524 . S
C691 C683 1.503 . S
C691 C690 1.370 . S
C691 C692 1.403 1_455 S
C692 C691 1.403 1_655 S
C692 C693 1.404 . S
C692 C695 1.539 . S
C693 C689 1.408 1_655 S
C693 C692 1.404 . S
C693 H705 0.930 . S
C694 C690 1.524 . S
C694 H706 0.956 . S
C694 H707 0.961 . S
C694 H708 0.961 . S
C695 C692 1.539 . S
C695 H709 0.958 . S
C695 H710 0.961 . S
C695 H711 0.960 . S
H696 C680 0.931 . S
H697 C685 0.938 . S
H698 C686 0.960 . S
H699 C686 0.962 . S
H700 C686 0.960 . S
H701 C687 0.961 . S
H702 C687 0.961 . S
H703 C687 0.961 . S
H704 C688 0.931 . S
H705 C693 0.930 . S
H706 C694 0.956 . S
H707 C694 0.961 . S
H708 C694 0.961 . S
H709 C695 0.958 . S
H710 C695 0.961 . S
H711 C695 0.960 . S
C712 C713 1.391 . S
C712 C714 1.394 . S
C712 H728 0.931 . S
C713 C712 1.391 . S
C713 C717 1.376 . S
C714 C712 1.394 . S
C714 C715 1.369 . S
C714 C718 1.531 . S
C715 C714 1.369 . S
C715 C716 1.410 . S
C715 C723 1.503 . S
C716 C715 1.410 . S
C716 C717 1.392 . S
C716 C719 1.511 . S
C717 C713 1.376 . S
C717 C716 1.392 . S
C717 H729 0.929 . S
C718 C714 1.531 . S
C718 H730 0.960 . S
C718 H731 0.962 . S
C718 H732 0.960 . S
C719 C716 1.511 . S
C719 H733 0.961 . S
C719 H734 0.961 . S
C719 H735 0.961 . S
C720 C721 1.370 1_565 S
C720 C722 1.363 1_565 S
C720 H736 0.931 . S
C721 C720 1.370 1_545 S
C721 C725 1.408 . S
C722 C720 1.363 1_545 S
C722 C723 1.370 . S
C722 C726 1.524 1_545 S
C723 C715 1.503 . S
C723 C722 1.370 . S
C723 C724 1.403 . S
C724 C723 1.403 . S
C724 C725 1.404 . S
C724 C727 1.539 . S
C725 C721 1.408 . S
C725 C724 1.404 . S
C725 H737 0.930 . S
C726 C722 1.524 1_565 S
C726 H738 0.956 1_565 S
C726 H739 0.961 . S
C726 H740 0.961 . S
C727 C724 1.539 . S
C727 H741 0.958 . S
C727 H742 0.961 . S
C727 H743 0.960 . S
H728 C712 0.931 . S
H729 C717 0.929 . S
H730 C718 0.960 . S
H731 C718 0.962 . S
H732 C718 0.960 . S
H733 C719 0.961 . S
H734 C719 0.961 . S
H735 C719 0.961 . S
H736 C720 0.931 . S
H737 C725 0.930 . S
H738 C726 0.956 1_545 S
H739 C726 0.961 . S
H740 C726 0.961 . S
H741 C727 0.958 . S
H742 C727 0.961 . S
H743 C727 0.960 . S
C744 C745 1.391 . S
C744 C746 1.394 . S
C744 H760 0.931 . S
C745 C744 1.391 . S
C745 C749 1.376 . S
C746 C744 1.394 . S
C746 C747 1.369 . S
C746 C750 1.531 . S
C747 C746 1.369 . S
C747 C748 1.410 . S
C747 C755 1.503 . S
C748 C747 1.410 . S
C748 C749 1.392 . S
C748 C751 1.511 . S
C749 C745 1.376 . S
C749 C748 1.392 . S
C749 H761 0.929 . S
C750 C746 1.531 . S
C750 H762 0.960 . S
C750 H763 0.962 . S
C750 H764 0.960 . S
C751 C748 1.511 . S
C751 H765 0.961 . S
C751 H766 0.961 . S
C751 H767 0.961 . S
C752 C753 1.370 . S
C752 C754 1.363 . S
C752 H768 0.931 . S
C753 C752 1.370 . S
C753 C757 1.408 . S
C754 C752 1.363 . S
C754 C755 1.370 . S
C754 C758 1.524 . S
C755 C747 1.503 . S
C755 C754 1.370 . S
C755 C756 1.403 . S
C756 C755 1.403 . S
C756 C757 1.404 . S
C756 C759 1.539 . S
C757 C753 1.408 . S
C757 C756 1.404 . S
C757 H769 0.930 . S
C758 C754 1.524 . S
C758 H770 0.956 . S
C758 H771 0.961 . S
C758 H772 0.961 . S
C759 C756 1.539 . S
C759 H773 0.958 . S
C759 H774 0.961 . S
C759 H775 0.960 . S
H760 C744 0.931 . S
H761 C749 0.929 . S
H762 C750 0.960 . S
H763 C750 0.962 . S
H764 C750 0.960 . S
H765 C751 0.961 . S
H766 C751 0.961 . S
H767 C751 0.961 . S
H768 C752 0.931 . S
H769 C757 0.930 . S
H770 C758 0.956 . S
H771 C758 0.961 . S
H772 C758 0.961 . S
H773 C759 0.958 . S
H774 C759 0.961 . S
H775 C759 0.960 . S
C776 C777 1.391 . S
C776 C778 1.394 . S
C776 H792 0.931 . S
C777 C776 1.391 . S
C777 C781 1.376 . S
C778 C776 1.394 . S
C778 C779 1.369 . S
C778 C782 1.531 . S
C779 C778 1.369 . S
C779 C780 1.410 . S
C779 C787 1.503 . S
C780 C779 1.410 . S
C780 C781 1.392 . S
C780 C783 1.511 . S
C781 C777 1.376 . S
C781 C780 1.392 . S
C781 H793 0.929 1_554 S
C782 C778 1.531 . S
C782 H794 0.960 . S
C782 H795 0.962 . S
C782 H796 0.960 . S
C783 C780 1.511 . S
C783 H797 0.961 1_554 S
C783 H798 0.961 . S
C783 H799 0.961 . S
C784 C785 1.370 . S
C784 C786 1.363 . S
C784 H800 0.931 . S
C785 C784 1.370 . S
C785 C789 1.408 . S
C786 C784 1.363 . S
C786 C787 1.370 . S
C786 C790 1.524 . S
C787 C779 1.503 . S
C787 C786 1.370 . S
C787 C788 1.403 . S
C788 C787 1.403 . S
C788 C789 1.404 . S
C788 C791 1.539 . S
C789 C785 1.408 . S
C789 C788 1.404 . S
C789 H801 0.930 . S
C790 C786 1.524 . S
C790 H802 0.956 . S
C790 H803 0.961 . S
C790 H804 0.961 . S
C791 C788 1.539 . S
C791 H805 0.958 . S
C791 H806 0.961 . S
C791 H807 0.960 . S
H792 C776 0.931 . S
H793 C781 0.929 1_556 S
H794 C782 0.960 . S
H795 C782 0.962 . S
H796 C782 0.960 . S
H797 C783 0.961 1_556 S
H798 C783 0.961 . S
H799 C783 0.961 . S
H800 C784 0.931 . S
H801 C789 0.930 . S
H802 C790 0.956 . S
H803 C790 0.961 . S
H804 C790 0.961 . S
H805 C791 0.958 . S
H806 C791 0.961 . S
H807 C791 0.960 . S
C808 C809 1.391 . S
C808 C810 1.394 . S
C808 H824 0.931 . S
C809 C808 1.391 . S
C809 C813 1.376 . S
C810 C808 1.394 . S
C810 C811 1.369 . S
C810 C814 1.531 . S
C811 C810 1.369 . S
C811 C812 1.410 . S
C811 C819 1.503 . S
C812 C811 1.410 . S
C812 C813 1.392 . S
C812 C815 1.511 1_554 S
C813 C809 1.376 . S
C813 C812 1.392 . S
C813 H825 0.929 . S
C814 C810 1.531 . S
C814 H826 0.989 . S
C814 H827 0.962 . S
C814 H828 0.960 . S
C815 C812 1.511 1_556 S
C815 H829 0.961 . S
C815 H830 0.961 . S
C815 H831 0.961 . S
C816 C817 1.370 1_654 S
C816 C818 1.363 . S
C816 H832 0.931 1_554 S
C817 C816 1.370 1_456 S
C817 C821 1.408 1_556 S
C818 C816 1.363 . S
C818 C819 1.370 . S
C818 C822 1.524 . S
C819 C811 1.503 . S
C819 C818 1.370 . S
C819 C820 1.403 1_655 S
C820 C819 1.403 1_455 S
C820 C821 1.404 . S
C820 C823 1.539 . S
C821 C817 1.408 1_554 S
C821 C820 1.404 . S
C821 H833 0.930 . S
C822 C818 1.524 . S
C822 H834 0.956 . S
C822 H835 0.961 . S
C822 H836 0.961 . S
C823 C820 1.539 . S
C823 H837 0.958 . S
C823 H838 0.961 . S
C823 H839 0.960 . S
H824 C808 0.931 . S
H825 C813 0.929 . S
H826 C814 0.989 . S
H827 C814 0.962 . S
H828 C814 0.960 . S
H829 C815 0.961 . S
H830 C815 0.961 . S
H831 C815 0.961 . S
H832 C816 0.931 1_556 S
H833 C821 0.930 . S
H834 C822 0.956 . S
H835 C822 0.961 . S
H836 C822 0.961 . S
H837 C823 0.958 . S
H838 C823 0.961 . S
H839 C823 0.960 . S
C840 C841 1.391 . S
C840 C842 1.394 . S
C840 H856 0.931 . S
C841 C840 1.391 . S
C841 C845 1.376 . S
C842 C840 1.394 . S
C842 C843 1.369 . S
C842 C846 1.531 1_554 S
C843 C842 1.369 . S
C843 C844 1.410 . S
C843 C851 1.503 . S
C844 C843 1.410 . S
C844 C845 1.392 . S
C844 C847 1.511 . S
C845 C841 1.376 . S
C845 C844 1.392 . S
C845 H857 0.929 . S
C846 C842 1.531 1_556 S
C846 H858 0.960 . S
C846 H859 0.962 1_565 S
C846 H860 0.960 . S
C847 C844 1.511 . S
C847 H861 0.961 . S
C847 H862 0.961 . S
C847 H863 0.961 . S
C848 C849 1.370 1_554 S
C848 C850 1.363 . S
C848 H864 0.931 . S
C849 C848 1.370 1_556 S
C849 C853 1.408 1_545 S
C850 C848 1.363 . S
C850 C851 1.370 1_545 S
C850 C854 1.524 . S
C851 C843 1.503 . S
C851 C850 1.370 1_565 S
C851 C852 1.403 . S
C852 C851 1.403 . S
C852 C853 1.404 1_554 S
C852 C855 1.538 1_554 S
C853 C849 1.408 1_565 S
C853 C852 1.404 1_556 S
C853 H865 0.930 . S
C854 C850 1.524 . S
C854 H866 0.956 . S
C854 H867 0.961 . S
C854 H868 0.961 . S
C855 C852 1.538 1_556 S
C855 H869 0.968 . S
C855 H870 0.963 . S
C855 H871 0.950 1_556 S
H856 C840 0.931 . S
H857 C845 0.929 . S
H858 C846 0.960 . S
H859 C846 0.962 1_545 S
H860 C846 0.960 . S
H861 C847 0.961 . S
H862 C847 0.961 . S
H863 C847 0.961 . S
H864 C848 0.931 . S
H865 C853 0.930 . S
H866 C854 0.956 . S
H867 C854 0.961 . S
H868 C854 0.961 . S
H869 C855 0.968 . S
H870 C855 0.963 . S
H871 C855 0.950 1_554 S
C872 C873 1.391 . S
C872 C874 1.394 . S
C872 H888 0.931 . S
C873 C872 1.391 . S
C873 C877 1.376 . S
C874 C872 1.394 . S
C874 C875 1.369 . S
C874 C878 1.531 . S
C875 C874 1.369 . S
C875 C876 1.410 . S
C875 C883 1.503 . S
C876 C875 1.410 . S
C876 C877 1.392 . S
C876 C879 1.511 . S
C877 C873 1.376 . S
C877 C876 1.392 . S
C877 H889 0.929 . S
C878 C874 1.531 . S
C878 H890 0.960 . S
C878 H891 0.962 . S
C878 H892 0.960 . S
C879 C876 1.511 . S
C879 H893 0.961 . S
C879 H894 0.961 . S
C879 H895 0.961 1_554 S
C880 C881 1.370 . S
C880 C882 1.363 . S
C880 H896 0.931 . S
C881 C880 1.370 . S
C881 C885 1.408 1_554 S
C882 C880 1.363 . S
C882 C883 1.370 . S
C882 C886 1.524 . S
C883 C875 1.503 . S
C883 C882 1.370 . S
C883 C884 1.402 1_554 S
C884 C883 1.402 1_556 S
C884 C885 1.404 . S
C884 C887 1.539 . S
C885 C881 1.408 1_556 S
C885 C884 1.404 . S
C885 H897 0.930 . S
C886 C882 1.524 . S
C886 H898 0.956 . S
C886 H899 0.961 . S
C886 H900 0.961 . S
C887 C884 1.539 . S
C887 H901 0.958 . S
C887 H902 0.961 . S
C887 H903 0.960 . S
H888 C872 0.931 . S
H889 C877 0.929 . S
H890 C878 0.960 . S
H891 C878 0.962 . S
H892 C878 0.960 . S
H893 C879 0.961 . S
H894 C879 0.961 . S
H895 C879 0.961 1_556 S
H896 C880 0.931 . S
H897 C885 0.930 . S
H898 C886 0.956 . S
H899 C886 0.961 . S
H900 C886 0.961 . S
H901 C887 0.958 . S
H902 C887 0.961 . S
H903 C887 0.960 . S
C904 C905 1.391 . S
C904 C906 1.394 . S
C904 H920 0.931 . S
C905 C904 1.391 . S
C905 C909 1.376 . S
C906 C904 1.394 . S
C906 C907 1.369 . S
C906 C910 1.531 . S
C907 C906 1.369 . S
C907 C908 1.410 . S
C907 C915 1.503 . S
C908 C907 1.410 . S
C908 C909 1.392 . S
C908 C911 1.511 1_554 S
C909 C905 1.376 . S
C909 C908 1.392 . S
C909 H921 0.929 . S
C910 C906 1.531 . S
C910 H922 0.960 . S
C910 H923 0.962 . S
C910 H924 0.960 . S
C911 C908 1.511 1_556 S
C911 H925 0.961 . S
C911 H926 0.961 . S
C911 H927 0.961 . S
C912 C913 1.370 . S
C912 C914 1.363 . S
C912 H928 0.931 . S
C913 C912 1.370 . S
C913 C917 1.408 . S
C914 C912 1.363 . S
C914 C915 1.370 . S
C914 C918 1.524 . S
C915 C907 1.503 . S
C915 C914 1.370 . S
C915 C916 1.403 . S
C916 C915 1.403 . S
C916 C917 1.404 . S
C916 C919 1.539 . S
C917 C913 1.408 . S
C917 C916 1.404 . S
C917 H929 0.930 . S
C918 C914 1.524 . S
C918 H930 0.956 . S
C918 H931 0.961 . S
C918 H932 0.961 . S
C919 C916 1.539 . S
C919 H933 0.958 . S
C919 H934 0.961 . S
C919 H935 0.960 . S
H920 C904 0.931 . S
H921 C909 0.929 . S
H922 C910 0.960 . S
H923 C910 0.962 . S
H924 C910 0.960 . S
H925 C911 0.961 . S
H926 C911 0.961 . S
H927 C911 0.961 . S
H928 C912 0.931 . S
H929 C917 0.930 . S
H930 C918 0.956 . S
H931 C918 0.961 . S
H932 C918 0.961 . S
H933 C919 0.958 . S
H934 C919 0.961 . S
H935 C919 0.960 . S
C936 C937 1.391 . S
C936 C938 1.394 . S
C936 H952 0.931 . S
C937 C936 1.391 . S
C937 C941 1.376 . S
C938 C936 1.394 . S
C938 C939 1.369 . S
C938 C942 1.531 . S
C939 C938 1.369 . S
C939 C940 1.410 . S
C939 C947 1.503 . S
C940 C939 1.410 . S
C940 C941 1.392 . S
C940 C943 1.511 1_455 S
C941 C937 1.376 . S
C941 C940 1.392 . S
C941 H953 0.929 . S
C942 C938 1.531 . S
C942 H954 0.960 . S
C942 H955 0.962 . S
C942 H956 0.960 . S
C943 C940 1.511 1_655 S
C943 H957 0.961 . S
C943 H958 0.961 . S
C943 H959 0.961 . S
C944 C945 1.370 . S
C944 C946 1.363 . S
C944 H960 0.931 . S
C945 C944 1.370 . S
C945 C949 1.408 . S
C946 C944 1.363 . S
C946 C947 1.370 . S
C946 C950 1.524 . S
C947 C939 1.503 . S
C947 C946 1.370 . S
C947 C948 1.403 . S
C948 C947 1.403 . S
C948 C949 1.404 . S
C948 C951 1.539 . S
C949 C945 1.408 . S
C949 C948 1.404 . S
C949 H961 0.930 . S
C950 C946 1.524 . S
C950 H962 0.956 . S
C950 H963 0.961 . S
C950 H964 0.961 . S
C951 C948 1.539 . S
C951 H965 0.958 . S
C951 H966 0.961 . S
C951 H967 0.960 . S
H952 C936 0.931 . S
H953 C941 0.929 . S
H954 C942 0.960 . S
H955 C942 0.962 . S
H956 C942 0.960 . S
H957 C943 0.961 . S
H958 C943 0.961 . S
H959 C943 0.961 . S
H960 C944 0.931 . S
H961 C949 0.930 . S
H962 C950 0.956 . S
H963 C950 0.961 . S
H964 C950 0.961 . S
H965 C951 0.958 . S
H966 C951 0.961 . S
H967 C951 0.960 . S
C968 C969 1.391 . S
C968 C970 1.394 . S
C968 H984 0.931 . S
C969 C968 1.391 . S
C969 C973 1.376 . S
C970 C968 1.394 . S
C970 C971 1.369 . S
C970 C974 1.531 . S
C971 C970 1.369 . S
C971 C972 1.410 . S
C971 C979 1.503 . S
C972 C971 1.410 . S
C972 C973 1.392 . S
C972 C975 1.511 . S
C973 C969 1.376 . S
C973 C972 1.392 . S
C973 H985 0.929 . S
C974 C970 1.531 . S
C974 H986 0.960 . S
C974 H987 0.962 . S
C974 H988 0.960 . S
C975 C972 1.511 . S
C975 H989 0.961 1_556 S
C975 H990 0.961 . S
C975 H991 0.961 . S
C976 C977 1.370 . S
C976 C978 1.363 . S
C976 H992 0.931 1_545 S
C977 C976 1.370 . S
C977 C981 1.408 . S
C978 C976 1.363 . S
C978 C979 1.370 . S
C978 C982 1.522 . S
C979 C971 1.503 . S
C979 C978 1.370 . S
C979 C980 1.403 . S
C980 C979 1.403 . S
C980 C981 1.404 . S
C980 C983 1.539 . S
C981 C977 1.408 . S
C981 C980 1.404 . S
C981 H993 0.930 . S
C982 C978 1.522 . S
C982 H994 0.957 1_545 S
C982 H995 0.960 . S
C982 H996 0.963 1_545 S
C983 C980 1.539 . S
C983 H997 0.958 . S
C983 H998 0.961 . S
C983 H999 0.960 . S
H984 C968 0.931 . S
H985 C973 0.929 . S
H986 C974 0.960 . S
H987 C974 0.962 . S
H988 C974 0.960 . S
H989 C975 0.961 1_554 S
H990 C975 0.961 . S
H991 C975 0.961 . S
H992 C976 0.931 1_565 S
H993 C981 0.930 . S
H994 C982 0.957 1_565 S
H995 C982 0.960 . S
H996 C982 0.963 1_565 S
H997 C983 0.958 . S
H998 C983 0.961 . S
H999 C983 0.960 . S
C1000 C1001 1.391 . S
C1000 C1002 1.394 . S
C1000 H1016 0.931 . S
C1001 C1000 1.391 . S
C1001 C1005 1.376 . S
C1002 C1000 1.394 . S
C1002 C1003 1.369 . S
C1002 C1006 1.531 . S
C1003 C1002 1.369 . S
C1003 C1004 1.410 . S
C1003 C1011 1.503 . S
C1004 C1003 1.410 . S
C1004 C1005 1.392 . S
C1004 C1007 1.511 . S
C1005 C1001 1.376 . S
C1005 C1004 1.392 . S
C1005 H1017 0.929 . S
C1006 C1002 1.531 . S
C1006 H1018 0.960 . S
C1006 H1019 0.962 . S
C1006 H1020 0.960 . S
C1007 C1004 1.511 . S
C1007 H1021 0.961 . S
C1007 H1022 0.961 . S
C1007 H1023 0.961 . S
C1008 C1009 1.370 . S
C1008 C1010 1.363 . S
C1008 H1024 0.931 . S
C1009 C1008 1.370 . S
C1009 C1013 1.408 . S
C1010 C1008 1.363 . S
C1010 C1011 1.370 . S
C1010 C1014 1.524 . S
C1011 C1003 1.503 . S
C1011 C1010 1.370 . S
C1011 C1012 1.403 . S
C1012 C1011 1.403 . S
C1012 C1013 1.404 . S
C1012 C1015 1.539 . S
C1013 C1009 1.408 . S
C1013 C1012 1.404 . S
C1013 H1025 0.930 . S
C1014 C1010 1.524 . S
C1014 H1026 0.956 . S
C1014 H1027 0.961 . S
C1014 H1028 0.961 . S
C1015 C1012 1.539 . S
C1015 H1029 0.958 1_556 S
C1015 H1030 0.961 . S
C1015 H1031 0.960 . S
H1016 C1000 0.931 . S
H1017 C1005 0.929 . S
H1018 C1006 0.960 . S
H1019 C1006 0.962 . S
H1020 C1006 0.960 . S
H1021 C1007 0.961 . S
H1022 C1007 0.961 . S
H1023 C1007 0.961 . S
H1024 C1008 0.931 . S
H1025 C1013 0.930 . S
H1026 C1014 0.956 . S
H1027 C1014 0.961 . S
H1028 C1014 0.961 . S
H1029 C1015 0.958 1_554 S
H1030 C1015 0.961 . S
H1031 C1015 0.960 . S
C1032 C1033 1.391 . S
C1032 C1034 1.394 . S
C1032 H1048 0.931 . S
C1033 C1032 1.391 . S
C1033 C1037 1.376 . S
C1034 C1032 1.394 . S
C1034 C1035 1.369 . S
C1034 C1038 1.531 . S
C1035 C1034 1.369 . S
C1035 C1036 1.410 . S
C1035 C1043 1.503 . S
C1036 C1035 1.410 . S
C1036 C1037 1.392 . S
C1036 C1039 1.511 . S
C1037 C1033 1.376 . S
C1037 C1036 1.392 . S
C1037 H1049 0.929 . S
C1038 C1034 1.531 . S
C1038 H1050 0.960 . S
C1038 H1051 0.962 . S
C1038 H1052 0.960 . S
C1039 C1036 1.511 . S
C1039 H1053 0.961 1_556 S
C1039 H1054 0.961 . S
C1039 H1055 0.961 . S
C1040 C1041 1.370 . S
C1040 C1042 1.363 . S
C1040 H1056 0.931 . S
C1041 C1040 1.370 . S
C1041 C1045 1.408 . S
C1042 C1040 1.363 . S
C1042 C1043 1.370 . S
C1042 C1046 1.524 . S
C1043 C1035 1.503 . S
C1043 C1042 1.370 . S
C1043 C1044 1.403 . S
C1044 C1043 1.403 . S
C1044 C1045 1.404 . S
C1044 C1047 1.539 . S
C1045 C1041 1.408 . S
C1045 C1044 1.404 . S
C1045 H1057 0.930 . S
C1046 C1042 1.524 . S
C1046 H1058 0.956 . S
C1046 H1059 0.961 . S
C1046 H1060 0.961 . S
C1047 C1044 1.539 . S
C1047 H1061 0.958 . S
C1047 H1062 0.961 . S
C1047 H1063 0.960 . S
H1048 C1032 0.931 . S
H1049 C1037 0.929 . S
H1050 C1038 0.960 . S
H1051 C1038 0.962 . S
H1052 C1038 0.960 . S
H1053 C1039 0.961 1_554 S
H1054 C1039 0.961 . S
H1055 C1039 0.961 . S
H1056 C1040 0.931 . S
H1057 C1045 0.930 . S
H1058 C1046 0.956 . S
H1059 C1046 0.961 . S
H1060 C1046 0.961 . S
H1061 C1047 0.958 . S
H1062 C1047 0.961 . S
H1063 C1047 0.960 . S
C1064 C1065 1.391 . S
C1064 C1066 1.394 . S
C1064 H1080 0.931 . S
C1065 C1064 1.391 . S
C1065 C1069 1.376 . S
C1066 C1064 1.394 . S
C1066 C1067 1.369 . S
C1066 C1070 1.531 1_655 S
C1067 C1066 1.369 . S
C1067 C1068 1.410 . S
C1067 C1075 1.503 . S
C1068 C1067 1.410 . S
C1068 C1069 1.392 . S
C1068 C1071 1.511 . S
C1069 C1065 1.376 . S
C1069 C1068 1.392 . S
C1069 H1081 0.929 . S
C1070 C1066 1.531 1_455 S
C1070 H1082 0.960 . S
C1070 H1083 0.962 . S
C1070 H1084 0.960 . S
C1071 C1068 1.511 . S
C1071 H1085 0.961 . S
C1071 H1086 0.961 . S
C1071 H1087 0.961 . S
C1072 C1073 1.370 . S
C1072 C1074 1.363 . S
C1072 H1088 0.931 . S
C1073 C1072 1.370 . S
C1073 C1077 1.408 . S
C1074 C1072 1.363 . S
C1074 C1075 1.370 . S
C1074 C1078 1.524 . S
C1075 C1067 1.503 . S
C1075 C1074 1.370 . S
C1075 C1076 1.403 . S
C1076 C1075 1.403 . S
C1076 C1077 1.404 . S
C1076 C1079 1.539 . S
C1077 C1073 1.408 . S
C1077 C1076 1.404 . S
C1077 H1089 0.930 . S
C1078 C1074 1.524 . S
C1078 H1090 0.956 . S
C1078 H1091 0.961 . S
C1078 H1092 0.961 . S
C1079 C1076 1.539 . S
C1079 H1093 0.958 . S
C1079 H1094 0.961 . S
C1079 H1095 0.960 . S
H1080 C1064 0.931 . S
H1081 C1069 0.929 . S
H1082 C1070 0.960 . S
H1083 C1070 0.962 . S
H1084 C1070 0.960 . S
H1085 C1071 0.961 . S
H1086 C1071 0.961 . S
H1087 C1071 0.961 . S
H1088 C1072 0.931 . S
H1089 C1077 0.930 . S
H1090 C1078 0.956 . S
H1091 C1078 0.961 . S
H1092 C1078 0.961 . S
H1093 C1079 0.958 . S
H1094 C1079 0.961 . S
H1095 C1079 0.960 . S
C1096 C1097 1.391 . S
C1096 C1098 1.394 . S
C1096 H1112 0.931 . S
C1097 C1096 1.391 . S
C1097 C1101 1.376 . S
C1098 C1096 1.394 . S
C1098 C1099 1.369 . S
C1098 C1102 1.531 1_565 S
C1099 C1098 1.369 . S
C1099 C1100 1.410 . S
C1099 C1107 1.503 . S
C1100 C1099 1.410 . S
C1100 C1101 1.392 . S
C1100 C1103 1.511 . S
C1101 C1097 1.376 . S
C1101 C1100 1.392 . S
C1101 H1113 0.929 . S
C1102 C1098 1.531 1_545 S
C1102 H1114 0.960 . S
C1102 H1115 0.962 . S
C1102 H1116 0.960 . S
C1103 C1100 1.511 . S
C1103 H1117 0.961 . S
C1103 H1118 0.961 . S
C1103 H1119 0.961 . S
C1104 C1105 1.370 . S
C1104 C1106 1.363 . S
C1104 H1120 0.931 . S
C1105 C1104 1.370 . S
C1105 C1109 1.408 . S
C1106 C1104 1.363 . S
C1106 C1107 1.370 . S
C1106 C1110 1.524 . S
C1107 C1099 1.503 . S
C1107 C1106 1.370 . S
C1107 C1108 1.403 . S
C1108 C1107 1.403 . S
C1108 C1109 1.404 . S
C1108 C1111 1.539 1_565 S
C1109 C1105 1.408 . S
C1109 C1108 1.404 . S
C1109 H1121 0.930 1_565 S
C1110 C1106 1.524 . S
C1110 H1122 0.956 . S
C1110 H1123 0.961 . S
C1110 H1124 0.961 . S
C1111 C1108 1.539 1_545 S
C1111 H1125 0.958 . S
C1111 H1126 0.961 . S
C1111 H1127 0.960 1_545 S
H1112 C1096 0.931 . S
H1113 C1101 0.929 . S
H1114 C1102 0.960 . S
H1115 C1102 0.962 . S
H1116 C1102 0.960 . S
H1117 C1103 0.961 . S
H1118 C1103 0.961 . S
H1119 C1103 0.961 . S
H1120 C1104 0.931 . S
H1121 C1109 0.930 1_545 S
H1122 C1110 0.956 . S
H1123 C1110 0.961 . S
H1124 C1110 0.961 . S
H1125 C1111 0.958 . S
H1126 C1111 0.961 . S
H1127 C1111 0.960 1_565 S
C1128 C1129 1.391 . S
C1128 C1130 1.394 . S
C1128 H1144 0.931 . S
C1129 C1128 1.391 . S
C1129 C1133 1.376 . S
C1130 C1128 1.394 . S
C1130 C1131 1.369 . S
C1130 C1134 1.531 . S
C1131 C1130 1.369 . S
C1131 C1132 1.410 . S
C1131 C1139 1.503 . S
C1132 C1131 1.410 . S
C1132 C1133 1.392 . S
C1132 C1135 1.511 . S
C1133 C1129 1.376 . S
C1133 C1132 1.392 . S
C1133 H1145 0.929 . S
C1134 C1130 1.531 . S
C1134 H1146 0.960 . S
C1134 H1147 0.962 . S
C1134 H1148 0.960 . S
C1135 C1132 1.511 . S
C1135 H1149 0.961 . S
C1135 H1150 0.961 . S
C1135 H1151 0.961 . S
C1136 C1137 1.370 . S
C1136 C1138 1.363 . S
C1136 H1152 0.931 . S
C1137 C1136 1.370 . S
C1137 C1141 1.408 . S
C1138 C1136 1.363 . S
C1138 C1139 1.370 . S
C1138 C1142 1.524 . S
C1139 C1131 1.503 . S
C1139 C1138 1.370 . S
C1139 C1140 1.403 . S
C1140 C1139 1.403 . S
C1140 C1141 1.404 . S
C1140 C1143 1.539 . S
C1141 C1137 1.408 . S
C1141 C1140 1.404 . S
C1141 H1153 0.930 . S
C1142 C1138 1.524 . S
C1142 H1154 0.956 . S
C1142 H1155 0.961 . S
C1142 H1156 0.961 . S
C1143 C1140 1.539 . S
C1143 H1157 0.958 . S
C1143 H1158 0.961 . S
C1143 H1159 0.960 . S
H1144 C1128 0.931 . S
H1145 C1133 0.929 . S
H1146 C1134 0.960 . S
H1147 C1134 0.962 . S
H1148 C1134 0.960 . S
H1149 C1135 0.961 . S
H1150 C1135 0.961 . S
H1151 C1135 0.961 . S
H1152 C1136 0.931 . S
H1153 C1141 0.930 . S
H1154 C1142 0.956 . S
H1155 C1142 0.961 . S
H1156 C1142 0.961 . S
H1157 C1143 0.958 . S
H1158 C1143 0.961 . S
H1159 C1143 0.960 . S
C1160 C1161 1.391 . S
C1160 C1162 1.394 . S
C1160 H1176 0.931 . S
C1161 C1160 1.391 . S
C1161 C1165 1.376 . S
C1162 C1160 1.394 . S
C1162 C1163 1.369 . S
C1162 C1166 1.531 . S
C1163 C1162 1.369 . S
C1163 C1164 1.410 . S
C1163 C1171 1.503 . S
C1164 C1163 1.410 . S
C1164 C1165 1.392 . S
C1164 C1167 1.511 . S
C1165 C1161 1.376 . S
C1165 C1164 1.392 . S
C1165 H1177 0.929 . S
C1166 C1162 1.531 . S
C1166 H1178 0.960 . S
C1166 H1179 0.962 . S
C1166 H1180 0.960 . S
C1167 C1164 1.511 . S
C1167 H1181 0.961 . S
C1167 H1182 0.961 . S
C1167 H1183 0.961 . S
C1168 C1169 1.370 . S
C1168 C1170 1.363 . S
C1168 H1184 0.931 . S
C1169 C1168 1.370 . S
C1169 C1173 1.408 . S
C1170 C1168 1.363 . S
C1170 C1171 1.370 . S
C1170 C1174 1.524 . S
C1171 C1163 1.503 . S
C1171 C1170 1.370 . S
C1171 C1172 1.403 . S
C1172 C1171 1.403 . S
C1172 C1173 1.404 . S
C1172 C1175 1.539 . S
C1173 C1169 1.408 . S
C1173 C1172 1.404 . S
C1173 H1185 0.930 . S
C1174 C1170 1.524 . S
C1174 H1186 0.956 . S
C1174 H1187 0.961 . S
C1174 H1188 0.961 . S
C1175 C1172 1.539 . S
C1175 H1189 0.958 . S
C1175 H1190 0.961 . S
C1175 H1191 0.960 . S
H1176 C1160 0.931 . S
H1177 C1165 0.929 . S
H1178 C1166 0.960 . S
H1179 C1166 0.962 . S
H1180 C1166 0.960 . S
H1181 C1167 0.961 . S
H1182 C1167 0.961 . S
H1183 C1167 0.961 . S
H1184 C1168 0.931 . S
H1185 C1173 0.930 . S
H1186 C1174 0.956 . S
H1187 C1174 0.961 . S
H1188 C1174 0.961 . S
H1189 C1175 0.958 . S
H1190 C1175 0.961 . S
H1191 C1175 0.960 . S
C425 C76 1.881 . S
C433 C162 1.931 . S
C465 C246 1.962 . S
C457 C87 1.845 . S
C497 C312 1.940 . S
C489 C54 1.942 . S
C529 C396 1.896 . S
C521 C65 1.984 . S
C561 C151 1.921 1_565 S
C553 C32 1.879 . S
C585 C43 1.914 . S
C593 C235 1.946 . S
C617 C10 2.005 . S
C625 C323 1.913 . S
C649 C21 1.934 . S
C657 C407 1.921 . S
C689 C158 0.616 1_455 S
C681 C60 0.586 . S
C721 C242 0.641 1_545 S
C713 C71 0.687 . S
C753 C314 0.605 . S
C745 C82 0.631 . S
C777 C49 0.569 . S
C785 C398 0.594 . S
C809 C16 0.600 . S
C817 C146 0.616 . S
C849 C230 0.648 . S
C841 C27 0.690 . S
C881 C326 0.613 . S
C873 C38 0.632 . S
C905 C5 0.588 . S
C913 C410 0.613 . S
C937 C59 1.969 . S
C945 C155 2.077 . S
C969 C70 1.986 . S
C977 C239 2.051 . S
C1009 C319 2.061 . S
C1001 C81 1.844 . S
C1041 C403 2.102 . S
C1033 C48 1.925 . S
C1065 C15 1.959 . S
C1073 C144 2.085 . S
C1105 C228 2.047 . S
C1097 C26 1.930 . S
C1137 C330 2.060 . S
C1129 C37 1.883 . S
C1161 C4 1.905 . S
C1169 C414 2.088 . S
