# Generated by pormake.
# Topology pyr, (3,6)-cn, num edge types: 1
# Building blocks:
#     Node 0, Type 0, BuildingBlock: QEWDON_clean_linker_0, # of connection points: 3
#     Node 1, Type 0, BuildingBlock: QEWDON_clean_linker_0, # of connection points: 3
#     Node 2, Type 0, BuildingBlock: QEWDON_clean_linker_0, # of connection points: 3
#     Node 3, Type 0, BuildingBlock: QEWDON_clean_linker_0, # of connection points: 3
#     Node 4, Type 0, BuildingBlock: QEWDON_clean_linker_0, # of connection points: 3
#     Node 5, Type 0, BuildingBlock: QEWDON_clean_linker_0, # of connection points: 3
#     Node 6, Type 0, BuildingBlock: QEWDON_clean_linker_0, # of connection points: 3
#     Node 7, Type 0, BuildingBlock: QEWDON_clean_linker_0, # of connection points: 3
#     Node 8, Type 1, BuildingBlock: BETFEN_clean_sbu_0, # of connection points: 6
#     Node 9, Type 1, BuildingBlock: BETFEN_clean_sbu_0, # of connection points: 6
#     Node 10, Type 1, BuildingBlock: BETFEN_clean_sbu_0, # of connection points: 6
#     Node 11, Type 1, BuildingBlock: BETFEN_clean_sbu_0, # of connection points: 6
#     Edge 12, Type (0, 1), BuildingBlock: ZUJKAS_clean_linker_0, # of connection points: 2
#     Edge 13, Type (0, 1), BuildingBlock: ZUJKAS_clean_linker_0, # of connection points: 2
#     Edge 14, Type (0, 1), BuildingBlock: ZUJKAS_clean_linker_0, # of connection points: 2
#     Edge 15, Type (0, 1), BuildingBlock: ZUJKAS_clean_linker_0, # of connection points: 2
#     Edge 16, Type (0, 1), BuildingBlock: ZUJKAS_clean_linker_0, # of connection points: 2
#     Edge 17, Type (0, 1), BuildingBlock: ZUJKAS_clean_linker_0, # of connection points: 2
#     Edge 18, Type (0, 1), BuildingBlock: ZUJKAS_clean_linker_0, # of connection points: 2
#     Edge 19, Type (0, 1), BuildingBlock: ZUJKAS_clean_linker_0, # of connection points: 2
#     Edge 20, Type (0, 1), BuildingBlock: ZUJKAS_clean_linker_0, # of connection points: 2
#     Edge 21, Type (0, 1), BuildingBlock: ZUJKAS_clean_linker_0, # of connection points: 2
#     Edge 22, Type (0, 1), BuildingBlock: ZUJKAS_clean_linker_0, # of connection points: 2
#     Edge 23, Type (0, 1), BuildingBlock: ZUJKAS_clean_linker_0, # of connection points: 2
#     Edge 24, Type (0, 1), BuildingBlock: ZUJKAS_clean_linker_0, # of connection points: 2
#     Edge 25, Type (0, 1), BuildingBlock: ZUJKAS_clean_linker_0, # of connection points: 2
#     Edge 26, Type (0, 1), BuildingBlock: ZUJKAS_clean_linker_0, # of connection points: 2
#     Edge 27, Type (0, 1), BuildingBlock: ZUJKAS_clean_linker_0, # of connection points: 2
#     Edge 28, Type (0, 1), BuildingBlock: ZUJKAS_clean_linker_0, # of connection points: 2
#     Edge 29, Type (0, 1), BuildingBlock: ZUJKAS_clean_linker_0, # of connection points: 2
#     Edge 30, Type (0, 1), BuildingBlock: ZUJKAS_clean_linker_0, # of connection points: 2
#     Edge 31, Type (0, 1), BuildingBlock: ZUJKAS_clean_linker_0, # of connection points: 2
#     Edge 32, Type (0, 1), BuildingBlock: ZUJKAS_clean_linker_0, # of connection points: 2
#     Edge 33, Type (0, 1), BuildingBlock: ZUJKAS_clean_linker_0, # of connection points: 2
#     Edge 34, Type (0, 1), BuildingBlock: ZUJKAS_clean_linker_0, # of connection points: 2
#     Edge 35, Type (0, 1), BuildingBlock: ZUJKAS_clean_linker_0, # of connection points: 2
# Relax obj value: 0.148
# Max RMSD: 0.291
# Mean RMSD: 0.179
data_MOF--net-pyr--node1-BETFEN_clean_sbu_0--node2-QEWDON_clean_linker_0--edge1-ZUJKAS_clean_linker_0
_symmetry_space_group_name_H-M    P1
_symmetry_Int_Tables_number       1
_symmetry_cell_setting            triclinic
loop_
_symmetry_equiv_pos_as_xyz
'x, y, z'
_cell_length_a     46.886607
_cell_length_b     51.197197
_cell_length_c     52.131545
_cell_angle_alpha  90.455144
_cell_angle_beta   99.973092
_cell_angle_gamma 117.32424
loop_
_atom_site_label
_atom_site_type_symbol
_atom_site_fract_x
_atom_site_fract_y
_atom_site_fract_z
_atom_type_partial_charge
H0 H 0.41411 0.37644 0.25104 0.0
C1 C 0.39836 0.36824 0.26519 0.0
C2 C 0.38795 0.33918 0.27185 0.0
C3 C 0.38782 0.3866 0.27611 0.0
H4 H 0.35863 0.30637 0.29495 0.0
C5 C 0.3676 0.32903 0.29028 0.0
C6 C 0.35745 0.34737 0.30188 0.0
C7 C 0.36732 0.37607 0.29439 0.0
C8 C 0.39698 0.41628 0.26731 0.0
H9 H 0.35953 0.39044 0.30303 0.0
C10 C 0.37245 0.42386 0.25673 0.0
C11 C 0.38057 0.45114 0.24644 0.0
C12 C 0.42993 0.43642 0.26801 0.0
H13 H 0.4492 0.43094 0.27603 0.0
C14 C 0.43822 0.46382 0.25835 0.0
H15 H 0.34696 0.40789 0.25545 0.0
C16 C 0.41374 0.47114 0.2475 0.0
H17 H 0.42073 0.49243 0.23996 0.0
H18 H 0.46369 0.47931 0.25904 0.0
H19 H 0.28527 0.87852 0.75239 0.0
C20 C 0.29941 0.87018 0.74394 0.0
C21 C 0.32855 0.87242 0.75909 0.0
C22 C 0.28729 0.85545 0.71852 0.0
H23 H 0.36883 0.86276 0.75943 0.0
C24 C 0.34594 0.86043 0.74816 0.0
C25 C 0.33425 0.84559 0.72281 0.0
C26 C 0.305 0.84342 0.70811 0.0
C27 C 0.25472 0.85015 0.70357 0.0
H28 H 0.29542 0.83159 0.68872 0.0
C29 C 0.24577 0.87301 0.70107 0.0
C30 C 0.21475 0.86735 0.68657 0.0
C31 C 0.2322 0.82161 0.69169 0.0
H32 H 0.23814 0.80352 0.69362 0.0
C33 C 0.20164 0.81593 0.6774 0.0
H34 H 0.2629 0.89504 0.71027 0.0
C35 C 0.19298 0.83855 0.67473 0.0
H36 H 0.16931 0.8335 0.66298 0.0
H37 H 0.18459 0.79389 0.66823 0.0
H38 H 0.66921 0.38967 0.8319 0.0
C39 C 0.66429 0.36894 0.84 0.0
C40 C 0.68868 0.36776 0.85897 0.0
C41 C 0.63337 0.344 0.83234 0.0
H42 H 0.70052 0.34099 0.88599 0.0
C43 C 0.682 0.34157 0.87067 0.0
C44 C 0.65095 0.31686 0.86421 0.0
C45 C 0.62709 0.31793 0.84444 0.0
C46 C 0.60704 0.34611 0.81333 0.0
H47 H 0.60314 0.29884 0.83932 0.0
C48 C 0.61476 0.36386 0.79253 0.0
C49 C 0.59073 0.36853 0.77607 0.0
C50 C 0.57434 0.33186 0.81669 0.0
H51 H 0.56748 0.31858 0.83279 0.0
C52 C 0.55013 0.33548 0.79984 0.0
H53 H 0.63962 0.37426 0.78922 0.0
C54 C 0.55822 0.35387 0.77982 0.0
H55 H 0.53915 0.35729 0.76784 0.0
H56 H 0.52513 0.32463 0.80277 0.0
H57 H 0.88673 0.75956 0.33441 0.0
C58 C 0.87114 0.74583 0.34716 0.0
C59 C 0.87533 0.75702 0.37309 0.0
C60 C 0.84571 0.71744 0.33735 0.0
H61 H 0.85628 0.74876 0.40852 0.0
C62 C 0.85403 0.73948 0.38906 0.0
C63 C 0.82829 0.71123 0.3796 0.0
C64 C 0.82456 0.70032 0.35372 0.0
C65 C 0.83789 0.70695 0.30912 0.0
H66 H 0.80467 0.67866 0.34599 0.0
C67 C 0.8599 0.70208 0.29681 0.0
C68 C 0.85014 0.68978 0.27041 0.0
C69 C 0.80689 0.70055 0.29455 0.0
H70 H 0.78971 0.70429 0.30353 0.0
C71 C 0.79765 0.68925 0.26837 0.0
H72 H 0.88374 0.70661 0.30793 0.0
C73 C 0.81895 0.68371 0.25642 0.0
H74 H 0.81101 0.67461 0.2361 0.0
H75 H 0.77371 0.68446 0.25735 0.0
H76 H 0.66628 0.71205 0.84982 0.0
C77 C 0.67615 0.72379 0.83363 0.0
C78 C 0.70671 0.72796 0.8295 0.0
C79 C 0.65856 0.73529 0.81725 0.0
H80 H 0.74313 0.74733 0.80566 0.0
C81 C 0.7191 0.74324 0.80844 0.0
C82 C 0.70171 0.75485 0.79188 0.0
C83 C 0.67146 0.75098 0.79657 0.0
C84 C 0.62734 0.73209 0.82256 0.0
H85 H 0.65781 0.75996 0.78407 0.0
C86 C 0.62591 0.75659 0.83322 0.0
C87 C 0.59656 0.75371 0.83931 0.0
C88 C 0.59927 0.70451 0.81775 0.0
H89 H 0.60009 0.68538 0.80963 0.0
C90 C 0.5699 0.70155 0.8233 0.0
H91 H 0.64801 0.77763 0.83754 0.0
C92 C 0.56848 0.72593 0.83404 0.0
H93 H 0.5454 0.72304 0.83814 0.0
H94 H 0.54819 0.68026 0.81938 0.0
H95 H 0.77956 0.2272 0.44976 0.0
C96 C 0.76777 0.22265 0.42926 0.0
C97 C 0.77906 0.21073 0.41147 0.0
C98 C 0.74107 0.22826 0.42111 0.0
H99 H 0.77244 0.19608 0.37105 0.0
C100 C 0.76401 0.20546 0.38488 0.0
C101 C 0.73737 0.21111 0.37612 0.0
C102 C 0.72628 0.22284 0.39442 0.0
C103 C 0.72708 0.23699 0.44114 0.0
H104 H 0.70499 0.22614 0.38817 0.0
C105 C 0.71814 0.25982 0.4381 0.0
C106 C 0.70659 0.26846 0.4582 0.0
C107 C 0.72306 0.22229 0.46398 0.0
H108 H 0.72896 0.20424 0.46665 0.0
C109 C 0.71117 0.23047 0.4836 0.0
H110 H 0.72116 0.27143 0.42067 0.0
C111 C 0.70317 0.25346 0.48085 0.0
H112 H 0.69389 0.25932 0.49639 0.0
H113 H 0.70819 0.21895 0.50105 0.0
H114 H 0.44504 0.84325 0.31324 0.0
C115 C 0.42187 0.82443 0.30459 0.0
C116 C 0.40097 0.82801 0.28384 0.0
C117 C 0.41389 0.79653 0.31347 0.0
H118 H 0.35542 0.80582 0.25605 0.0
C119 C 0.37091 0.80359 0.27297 0.0
C120 C 0.36191 0.77567 0.28205 0.0
C121 C 0.38359 0.77225 0.30233 0.0
C122 C 0.4387 0.79238 0.33239 0.0
H123 H 0.37744 0.75054 0.3087 0.0
C124 C 0.42975 0.77413 0.3527 0.0
C125 C 0.4533 0.7694 0.36987 0.0
C126 C 0.47158 0.80607 0.32953 0.0
H127 H 0.47914 0.81974 0.31376 0.0
C128 C 0.495 0.80165 0.34652 0.0
H129 H 0.40457 0.76389 0.35526 0.0
C130 C 0.486 0.78336 0.36645 0.0
H131 H 0.50462 0.77963 0.37878 0.0
H132 H 0.52016 0.81204 0.34396 0.0
H133 H 0.24068 0.45481 0.7815 0.0
C134 C 0.22112 0.43428 0.77106 0.0
C135 C 0.22283 0.42519 0.74607 0.0
C136 C 0.19579 0.41565 0.78358 0.0
H137 H 0.19991 0.39063 0.71434 0.0
C138 C 0.19824 0.39778 0.7334 0.0
C139 C 0.17282 0.37874 0.74551 0.0
C140 C 0.1718 0.38793 0.77074 0.0
C141 C 0.19869 0.42197 0.81198 0.0
H142 H 0.15313 0.37316 0.78084 0.0
C143 C 0.18595 0.43931 0.82193 0.0
C144 C 0.19014 0.44509 0.84933 0.0
C145 C 0.21507 0.41026 0.82943 0.0
H146 H 0.22492 0.39687 0.82214 0.0
C147 C 0.21898 0.41569 0.85634 0.0
H148 H 0.17333 0.44847 0.80854 0.0
C149 C 0.20671 0.43294 0.86624 0.0
H150 H 0.20983 0.43648 0.88727 0.0
H151 H 0.23159 0.40646 0.86962 0.0
Pr152 Pr 0.99887 0.04647 0.55861 0.0
Pr153 Pr 0.06365 0.09499 0.55051 0.0
C154 C 0.94527 0.99554 0.56169 0.0
C155 C 0.92877 0.97635 0.58093 0.0
C156 C 0.93181 0.98801 0.60629 0.0
C157 C 0.91375 0.96979 0.6236 0.0
C158 C 0.89251 0.93962 0.61586 0.0
C159 C 0.89035 0.92791 0.59068 0.0
C160 C 0.90829 0.94618 0.57335 0.0
C161 C 0.02442 0.09635 0.59478 0.0
C162 C 0.06783 0.04622 0.58784 0.0
C163 C 0.11662 0.14582 0.54599 0.0
C164 C 0.13002 0.16515 0.52581 0.0
C165 C 0.12079 0.15412 0.49934 0.0
C166 C 0.1355 0.17228 0.48059 0.0
C167 C 0.1596 0.20181 0.48801 0.0
C168 C 0.16789 0.21294 0.5145 0.0
C169 C 0.15325 0.19473 0.53323 0.0
C170 C 0.0372 0.0447 0.51453 0.0
C171 C 0.99491 0.09508 0.52097 0.0
O172 O 0.97264 0.99648 0.55811 0.0
O173 O 0.94579 0.02128 0.56161 0.0
O174 O 0.04102 0.08536 0.5871 0.0
O175 O 0.99339 0.08012 0.58559 0.0
O176 O 0.08327 0.07451 0.58451 0.0
O177 O 0.03649 0.02993 0.57726 0.0
O178 O 0.09062 0.14505 0.55262 0.0
O179 O 0.11551 0.11988 0.54417 0.0
O180 O 0.02136 0.05655 0.52204 0.0
O181 O 0.06823 0.05995 0.52427 0.0
O182 O 0.97991 0.06671 0.52407 0.0
O183 O 0.02606 0.11161 0.5319 0.0
H184 H 0.94769 0.01126 0.61255 0.0
H185 H 0.91628 0.97934 0.643 0.0
H186 H 0.874 0.90483 0.58407 0.0
H187 H 0.90562 0.93686 0.55381 0.0
H188 H 0.10276 0.13131 0.49326 0.0
H189 H 0.12878 0.16288 0.46044 0.0
H190 H 0.18593 0.23568 0.52082 0.0
H191 H 0.16047 0.20362 0.55358 0.0
Pr192 Pr 0.49154 0.05543 0.07147 0.0
Pr193 Pr 0.55522 0.05886 0.05965 0.0
C194 C 0.44291 0.05282 0.09389 0.0
C195 C 0.43783 0.07493 0.10788 0.0
C196 C 0.4467 0.10293 0.09901 0.0
C197 C 0.44335 0.12432 0.11305 0.0
C198 C 0.43148 0.11835 0.13646 0.0
C199 C 0.42253 0.09022 0.14526 0.0
C200 C 0.42565 0.0687 0.13105 0.0
C201 C 0.52054 0.0974 0.03794 0.0
C202 C 0.56375 0.09845 0.11189 0.0
C203 C 0.60422 0.06148 0.03764 0.0
C204 C 0.60718 0.04199 0.0185 0.0
C205 C 0.63307 0.035 0.02404 0.0
C206 C 0.63422 0.01394 1.00759 0.0
C207 C 0.60938 0.99941 0.98532 0.0
C208 C 0.584 0.00718 0.97939 0.0
C209 C 0.58293 0.02827 0.99581 0.0
C210 C 0.52568 0.01747 0.09361 0.0
C211 C 0.48305 0.01517 0.01987 0.0
O212 O 0.46602 0.04714 0.10597 0.0
O213 O 0.44269 0.05482 0.06885 0.0
O214 O 0.53597 0.09267 0.05811 0.0
O215 O 0.48911 0.082 0.03576 0.0
O216 O 0.57936 0.09677 0.09367 0.0
O217 O 0.53153 0.08307 0.10876 0.0
O218 O 0.58658 0.07451 0.02894 0.0
O219 O 0.59924 0.05131 0.06025 0.0
O220 O 0.51086 0.02195 0.07298 0.0
O221 O 0.55719 0.03329 0.09644 0.0
O222 O 0.46792 0.01628 0.03864 0.0
O223 O 0.5151 0.03138 0.02232 0.0
H224 H 0.45648 0.10842 0.0813 0.0
H225 H 0.44996 0.14553 0.10545 0.0
H226 H 0.41372 0.085 0.16338 0.0
H227 H 0.41904 0.04733 0.13836 0.0
H228 H 0.65201 0.04532 0.04145 0.0
H229 H 0.65438 0.00882 0.01249 0.0
H230 H 0.5643 0.99623 0.96257 0.0
H231 H 0.56269 0.03329 0.99112 0.0
Pr232 Pr 0.54616 0.60498 0.58391 0.0
Pr233 Pr 0.51819 0.54094 0.5563 0.0
C234 C 0.55505 0.65754 0.60392 0.0
C235 C 0.53561 0.67087 0.61216 0.0
C236 C 0.54807 0.68987 0.63536 0.0
C237 C 0.53034 0.703 0.64353 0.0
C238 C 0.49976 0.69749 0.62859 0.0
C239 C 0.48729 0.67838 0.6053 0.0
C240 C 0.50497 0.66509 0.59721 0.0
C241 C 0.57443 0.57136 0.60699 0.0
C242 C 0.47707 0.54998 0.59682 0.0
C243 C 0.50857 0.48813 0.53613 0.0
C244 C 0.52701 0.47541 0.5253 0.0
C245 C 0.50995 0.44825 0.50984 0.0
C246 C 0.52695 0.43535 0.49996 0.0
C247 C 0.56143 0.44939 0.5054 0.0
C248 C 0.57847 0.47687 0.52071 0.0
C249 C 0.5614 0.48981 0.53052 0.0
C250 C 0.48849 0.57378 0.53427 0.0
C251 C 0.58743 0.59619 0.54327 0.0
O252 O 0.55044 0.65035 0.57885 0.0
O253 O 0.5588 0.63822 0.61849 0.0
O254 O 0.54445 0.56216 0.59781 0.0
O255 O 0.59123 0.59969 0.60604 0.0
O256 O 0.48393 0.53042 0.58643 0.0
O257 O 0.49399 0.57862 0.59473 0.0
O258 O 0.51761 0.49689 0.56118 0.0
O259 O 0.50143 0.50617 0.52208 0.0
O260 O 0.51879 0.58348 0.54255 0.0
O261 O 0.47228 0.54544 0.5355 0.0
O262 O 0.58163 0.61584 0.55479 0.0
O263 O 0.56955 0.56744 0.5442 0.0
H264 H 0.57167 0.69467 0.64714 0.0
H265 H 0.54086 0.71788 0.66137 0.0
H266 H 0.46367 0.67342 0.59349 0.0
H267 H 0.49467 0.65033 0.5793 0.0
H268 H 0.4834 0.4368 0.50564 0.0
H269 H 0.51304 0.41401 0.48857 0.0
H270 H 0.60499 0.48844 0.52503 0.0
H271 H 0.57503 0.51091 0.54233 0.0
Pr272 Pr 0.04222 0.61782 0.04124 0.0
Pr273 Pr 0.03074 0.56406 0.07011 0.0
C274 C 0.03683 0.66106 0.01511 0.0
C275 C 1.00955 0.66715 1.00493 0.0
C276 C 1.01572 0.69456 0.99592 0.0
C277 C 0.98969 0.69997 0.98523 0.0
C278 C 0.95705 0.67797 0.98334 0.0
C279 C 0.95108 0.65067 0.99289 0.0
C280 C 0.97712 0.64534 1.00364 0.0
C281 C 0.09758 0.62437 0.0768 0.0
C282 C 1.00675 0.60779 0.09304 0.0
C283 C 0.03454 0.51985 0.09559 0.0
C284 C 0.06058 0.51161 0.10368 0.0
C285 C 0.054 0.4857 0.11578 0.0
C286 C 0.07928 0.47874 0.12491 0.0
C287 C 0.11157 0.49772 0.12217 0.0
C288 C 0.11782 0.52343 0.1095 0.0
C289 C 0.0925 0.53026 0.10028 0.0
C290 C 0.97511 0.55811 0.03538 0.0
C291 C 0.06588 0.57371 0.0183 0.0
O292 O 0.03573 0.63776 1.00361 0.0
O293 O 0.04541 0.66335 0.04057 0.0
O294 O 0.06876 0.6123 0.08061 0.0
O295 O 0.09925 0.63612 0.05478 0.0
O296 O 1.01866 0.58952 0.10006 0.0
O297 O 1.00761 0.61741 0.06957 0.0
O298 O 0.03922 0.54445 0.10749 0.0
O299 O 0.02345 0.51715 0.0704 0.0
O300 O 1.0036 0.56931 0.03073 0.0
O301 O 0.97431 0.54799 0.05812 0.0
O302 O 0.05398 0.59198 1.01129 0.0
O303 O 0.06537 0.56443 0.0419 0.0
H304 H 0.04065 0.71166 0.99692 0.0
H305 H 0.99513 0.72137 0.97842 0.0
H306 H 0.9263 0.63312 0.99144 0.0
H307 H 0.97197 0.624 1.01056 0.0
H308 H 0.02941 0.47106 0.11845 0.0
H309 H 0.07356 0.45857 0.13421 0.0
H310 H 0.14242 0.53872 0.10736 0.0
H311 H 0.09794 0.55038 0.09093 0.0
H312 H 0.30376 0.35437 0.30635 0.0
H313 H 0.26719 0.33308 0.33739 0.0
H314 H 0.32605 0.29316 0.3722 0.0
H315 H 0.3629 0.31463 0.34166 0.0
H316 H 0.2565 0.25391 0.35678 0.0
H317 H 0.28581 0.35584 0.41823 0.0
H318 H 0.27646 0.3561 0.38329 0.0
H319 H 0.31299 0.35446 0.39819 0.0
C320 C 0.30921 0.34147 0.32091 0.0
C321 C 0.33615 0.33607 0.32148 0.0
C322 C 0.28827 0.3293 0.33857 0.0
C323 C 0.29406 0.31167 0.3571 0.0
C324 C 0.32117 0.30666 0.35798 0.0
H325 H 0.22496 0.24037 0.49446 0.0
H326 H 0.2547 0.26835 0.46161 0.0
C327 C 0.34209 0.31882 0.34044 0.0
C328 C 0.27124 0.29724 0.37495 0.0
H329 H 0.24555 0.3107 0.42864 0.0
C330 C 0.25384 0.26628 0.37236 0.0
C331 C 0.26809 0.31356 0.39529 0.0
C332 C 0.28692 0.34684 0.39918 0.0
C333 C 0.23371 0.2511 0.38989 0.0
C334 C 0.23071 0.26737 0.41036 0.0
C335 C 0.24776 0.29837 0.41276 0.0
C336 C 0.21184 0.25242 0.43053 0.0
C337 C 0.21674 0.21774 0.38696 0.0
C338 C 0.17777 0.2347 0.42402 0.0
C339 C 0.16059 0.21878 0.44281 0.0
C340 C 0.17723 0.22037 0.46846 0.0
C341 C 0.21128 0.23891 0.47503 0.0
C342 C 0.22837 0.25484 0.45626 0.0
H343 H 0.22619 0.20866 0.37304 0.0
H344 H 0.21985 0.20917 0.40618 0.0
H345 H 0.19012 0.20943 0.37952 0.0
H346 H 0.16455 0.23288 0.40431 0.0
H347 H 0.13433 0.20511 0.43722 0.0
H348 H 0.35422 0.85309 0.80134 0.0
H349 H 0.3758 0.87635 0.84621 0.0
H350 H 0.34998 0.9451 0.82495 0.0
H351 H 0.32943 0.92253 0.77955 0.0
H352 H 0.41186 0.9673 0.85318 0.0
H353 H 0.32776 0.87743 0.90318 0.0
H354 H 0.34757 0.86486 0.88334 0.0
H355 H 0.31995 0.87824 0.86813 0.0
C356 C 0.35325 0.87325 0.80611 0.0
C357 C 0.34027 0.88604 0.78674 0.0
C358 C 0.36515 0.88628 0.83192 0.0
C359 C 0.36399 0.91219 0.8391 0.0
C360 C 0.35085 0.92495 0.8199 0.0
H361 H 0.41674 0.99069 1.00144 0.0
H362 H 0.38638 0.9656 0.95777 0.0
C363 C 0.33898 0.91195 0.79399 0.0
C364 C 0.37833 0.9268 0.86627 0.0
H365 H 0.37697 0.91461 0.93053 0.0
C366 C 0.40399 0.95586 0.87007 0.0
C367 C 0.3678 0.91206 0.88835 0.0
C368 C 0.33903 0.88154 0.88558 0.0
C369 C 0.42015 0.9702 0.8953 0.0
C370 C 0.41088 0.95484 0.91737 0.0
C371 C 0.38441 0.92619 0.91361 0.0
C372 C 0.42871 0.96813 0.94443 0.0
C373 C 0.44695 1.00174 0.89805 0.0
C374 C 0.46231 0.9769 0.95174 0.0
C375 C 0.47968 0.99126 0.97659 0.0
C376 C 0.46377 0.99689 0.99478 0.0
C377 C 0.42976 0.98672 0.9879 0.0
C378 C 0.41238 0.97246 0.96292 0.0
H379 H 0.44457 0.01286 0.88019 0.0
H380 H 0.4467 0.01472 0.9151 0.0
H381 H 0.47107 1.00193 0.90107 0.0
H382 H 0.47524 0.97303 0.93807 0.0
H383 H 0.50569 0.99827 0.98138 0.0
H384 H 0.64653 0.42153 0.78027 0.0
H385 H 0.65917 0.45893 0.74938 0.0
H386 H 0.56768 0.40306 0.69697 0.0
H387 H 0.55576 0.36468 0.72693 0.0
H388 H 0.61733 0.43245 0.67058 0.0
H389 H 0.6142 0.5101 0.74419 0.0
H390 H 0.64424 0.49772 0.75396 0.0
H391 H 0.60138 0.47177 0.74888 0.0
C392 C 0.62943 0.4168 0.76189 0.0
C393 C 0.59988 0.39014 0.75624 0.0
C394 C 0.63655 0.43843 0.7444 0.0
C395 C 0.61402 0.43407 0.7212 0.0
C396 C 0.58531 0.40697 0.7149 0.0
H397 H 0.54073 0.51279 0.61105 0.0
H398 H 0.5595 0.48206 0.63657 0.0
C399 C 0.57835 0.38518 0.73219 0.0
C400 C 0.61891 0.4582 0.7042 0.0
H401 H 0.61987 0.52525 0.70236 0.0
C402 C 0.61843 0.45296 0.67761 0.0
C403 C 0.62049 0.48503 0.71346 0.0
C404 C 0.61986 0.49153 0.74161 0.0
C405 C 0.61778 0.47315 0.65979 0.0
C406 C 0.61755 0.4991 0.66884 0.0
C407 C 0.62028 0.50533 0.69563 0.0
C408 C 0.60867 0.51728 0.65059 0.0
C409 C 0.61593 0.46604 0.63123 0.0
C410 C 0.63017 0.54734 0.65007 0.0
C411 C 0.61956 0.56498 0.63508 0.0
C412 C 0.58716 0.55281 0.62096 0.0
C413 C 0.56598 0.52265 0.62133 0.0
C414 C 0.57668 0.50504 0.63588 0.0
H415 H 0.62585 0.45045 0.62854 0.0
H416 H 0.58993 0.45547 0.6209 0.0
H417 H 0.62961 0.48642 0.62198 0.0
H418 H 0.65482 0.5572 0.66167 0.0
H419 H 0.6363 0.58823 0.63521 0.0
H420 H 0.83404 0.6366 0.24574 0.0
H421 H 0.86435 0.62489 0.21792 0.0
H422 H 0.94323 0.71405 0.23532 0.0
H423 H 0.91301 0.72562 0.26386 0.0
H424 H 0.88049 0.64886 0.17404 0.0
H425 H 0.99371 0.66745 0.24325 0.0
H426 H 0.9581 0.66489 0.25416 0.0
H427 H 0.98573 0.69857 0.2428 0.0
C428 C 0.85814 0.65355 0.24404 0.0
C429 C 0.8712 0.68201 0.257 0.0
C430 C 0.87542 0.64687 0.22804 0.0
C431 C 0.9062 0.66849 0.22447 0.0
C432 C 0.91984 0.69677 0.23808 0.0
H433 H 0.98479 0.64926 0.08794 0.0
H434 H 0.96179 0.6657 0.11946 0.0
C435 C 0.90258 0.70341 0.25438 0.0
C436 C 0.92254 0.66161 0.20516 0.0
H437 H 0.99206 0.65829 0.1982 0.0
C438 C 0.90492 0.65095 0.17937 0.0
C439 C 0.95432 0.6641 0.21204 0.0
C440 C 0.97401 0.67411 0.23961 0.0
C441 C 0.91793 0.6425 0.16043 0.0
C442 C 0.94992 0.64544 0.16716 0.0
C443 C 0.96766 0.65624 0.19292 0.0
C444 C 0.96482 0.63622 0.14811 0.0
C445 C 0.89676 0.62956 0.13361 0.0
C446 C 0.9751 0.61475 0.15389 0.0
C447 C 0.98856 0.60551 0.13601 0.0
C448 C 0.99212 0.61754 0.11186 0.0
C449 C 0.98212 0.63927 0.10619 0.0
C450 C 0.96881 0.64863 0.12419 0.0
H451 H 0.87038 0.62148 0.13379 0.0
H452 H 0.9039 0.64687 0.11988 0.0
H453 H 0.89992 0.61093 0.12601 0.0
H454 H 0.97237 0.60485 0.17219 0.0
H455 H 0.99606 0.58881 0.14114 0.0
H456 H 0.40444 0.29813 0.29356 0.0
H457 H 0.41414 0.26187 0.27101 0.0
H458 H 0.40235 0.29847 0.19809 0.0
H459 H 0.39083 0.33375 0.22018 0.0
H460 H 0.3672 0.23958 0.19271 0.0
H461 H 0.49378 0.27131 0.24452 0.0
H462 H 0.4659 0.26359 0.26642 0.0
H463 H 0.4745 0.29441 0.24717 0.0
C464 C 0.40388 0.29847 0.27272 0.0
C465 C 0.39683 0.31887 0.25869 0.0
C466 C 0.40989 0.27797 0.25992 0.0
C467 C 0.40949 0.27776 0.23295 0.0
C468 C 0.40301 0.29839 0.21897 0.0
H469 H 0.47404 0.17762 0.14494 0.0
H470 H 0.46809 0.21604 0.16786 0.0
C471 C 0.39673 0.31873 0.23169 0.0
C472 C 0.41382 0.25491 0.21898 0.0
H473 H 0.46543 0.22495 0.21821 0.0
C474 C 0.38878 0.23649 0.19818 0.0
C475 C 0.44214 0.25114 0.22596 0.0
C476 C 0.47076 0.27136 0.24706 0.0
C477 C 0.39105 0.21414 0.18435 0.0
C478 C 0.41874 0.20955 0.19204 0.0
C479 C 0.44402 0.22825 0.21259 0.0
C480 C 0.42232 0.18597 0.17856 0.0
C481 C 0.36407 0.19608 0.16133 0.0
C482 C 0.39883 0.15623 0.17733 0.0
C483 C 0.40184 0.13422 0.16383 0.0
C484 C 0.42867 0.14152 0.15159 0.0
C485 C 0.45268 0.17127 0.1536 0.0
C486 C 0.4495 0.19325 0.16691 0.0
H487 H 0.34986 0.20769 0.15354 0.0
H488 H 0.37406 0.19103 0.14525 0.0
H489 H 0.34686 0.1749 0.16766 0.0
H490 H 0.37804 0.15003 0.1867 0.0
H491 H 0.38283 0.11158 0.16258 0.0
H492 H 0.15489 0.86365 0.68765 0.0
H493 H 0.13597 0.8997 0.67514 0.0
H494 H 0.23316 0.96165 0.66573 0.0
H495 H 0.25198 0.92496 0.677 0.0
H496 H 0.15175 0.95457 0.69408 0.0
H497 H 0.18012 0.9572 0.59464 0.0
H498 H 0.18183 0.93048 0.61633 0.0
H499 H 0.21476 0.96769 0.62092 0.0
C500 C 0.17229 0.8849 0.68282 0.0
C501 C 0.20483 0.89113 0.68281 0.0
C502 C 0.16146 0.90561 0.67586 0.0
C503 C 0.18288 0.93317 0.66883 0.0
C504 C 0.21592 0.94024 0.67037 0.0
H505 H 0.13429 0.06913 0.60412 0.0
H506 H 0.16437 0.04434 0.62598 0.0
C507 C 0.22678 0.91937 0.67718 0.0
C508 C 0.16995 0.95371 0.65903 0.0
H509 H 0.15752 0.98761 0.60507 0.0
C510 C 0.15321 0.96192 0.67467 0.0
C511 C 0.17169 0.96327 0.63363 0.0
C512 C 0.18779 0.95404 0.61527 0.0
C513 C 0.13787 0.97902 0.66551 0.0
C514 C 0.13917 0.98808 0.64002 0.0
C515 C 0.15668 0.98068 0.62465 0.0
C516 C 0.12098 1.00381 0.62833 0.0
C517 C 0.12015 0.98713 0.68307 0.0
C518 C 0.0866 0.98921 0.62238 0.0
C519 C 0.06933 1.0032 0.60971 0.0
C520 C 0.0861 0.03215 0.60283 0.0
C521 C 0.12057 0.04691 0.60927 0.0
C522 C 0.13783 0.03277 0.62171 0.0
H523 H 0.12759 0.98438 0.70388 0.0
H524 H 0.12485 0.01033 0.68154 0.0
H525 H 0.09339 0.97256 0.67686 0.0
H526 H 0.07312 0.96671 0.62699 0.0
H527 H 0.04282 0.99114 0.60502 0.0
H528 H 0.75055 0.37415 0.86559 0.0
H529 H 0.80058 0.41507 0.89086 0.0
H530 H 0.7467 0.46221 0.90177 0.0
H531 H 0.6967 0.42156 0.87612 0.0
H532 H 0.81322 0.49956 0.89618 0.0
H533 H 0.80232 0.41986 0.97024 0.0
H534 H 0.80468 0.40758 0.93869 0.0
H535 H 0.77 0.41256 0.94239 0.0
C536 C 0.74963 0.39359 0.87285 0.0
C537 C 0.71983 0.39466 0.8692 0.0
C538 C 0.77812 0.41687 0.88726 0.0
C539 C 0.77707 0.4413 0.89856 0.0
C540 C 0.74792 0.44348 0.89322 0.0
H541 H 0.91239 0.53601 0.0421 0.0
H542 H 0.86267 0.51321 1.00809 0.0
C543 C 0.71944 0.4203 0.87856 0.0
C544 C 0.80501 0.46246 0.91856 0.0
H545 H 0.85022 0.46593 0.97836 0.0
C546 C 0.82134 0.49236 0.91423 0.0
C547 C 0.8149 0.45303 0.94233 0.0
C548 C 0.7969 0.42158 0.94889 0.0
C549 C 0.84812 0.513 0.93285 0.0
C550 C 0.85892 0.50322 0.95607 0.0
C551 C 0.84198 0.47343 0.96054 0.0
C552 C 0.88837 0.5228 0.97584 0.0
C553 C 0.86431 0.54502 0.92761 0.0
C554 C 0.91926 0.53674 0.96895 0.0
C555 C 0.94767 0.55009 0.98838 0.0
C556 C 0.94554 0.54908 0.01494 0.0
C557 C 0.91464 0.53676 0.02175 0.0
C558 C 0.88627 0.52382 1.00235 0.0
H559 H 0.84723 0.55039 0.91389 0.0
H560 H 0.87326 0.55993 0.94601 0.0
H561 H 0.88557 0.54949 0.91846 0.0
H562 H 0.92156 0.53574 0.9487 0.0
H563 H 0.97127 0.55955 0.98264 0.0
H564 H 0.76138 0.67856 0.36437 0.0
H565 H 0.72122 0.65593 0.39222 0.0
H566 H 0.79914 0.68515 0.46029 0.0
H567 H 0.83959 0.70652 0.43246 0.0
H568 H 0.75146 0.63026 0.46351 0.0
H569 H 0.69603 0.70386 0.43657 0.0
H570 H 0.69502 0.68214 0.40892 0.0
H571 H 0.73377 0.70941 0.42767 0.0
C572 C 0.77011 0.67965 0.38518 0.0
C573 C 0.80385 0.69467 0.39613 0.0
C574 C 0.74701 0.66706 0.40116 0.0
C575 C 0.75706 0.66951 0.42846 0.0
C576 C 0.79072 0.68325 0.43933 0.0
H577 H 0.63388 0.65307 0.54074 0.0
H578 H 0.67601 0.67006 0.51412 0.0
C579 C 0.81384 0.69565 0.42336 0.0
C580 C 0.73263 0.65852 0.44581 0.0
H581 H 0.66885 0.66551 0.46232 0.0
C582 C 0.73341 0.63799 0.46328 0.0
C583 C 0.70945 0.66901 0.4459 0.0
C584 C 0.70864 0.69254 0.42897 0.0
C585 C 0.71145 0.6274 0.48055 0.0
C586 C 0.68749 0.63709 0.47995 0.0
C587 C 0.68698 0.65786 0.46267 0.0
C588 C 0.66292 0.62633 0.4972 0.0
C589 C 0.71471 0.60652 0.4997 0.0
C590 C 0.64143 0.59606 0.49665 0.0
C591 C 0.61748 0.58623 0.51208 0.0
C592 C 0.61411 0.60651 0.52811 0.0
C593 C 0.63571 0.63681 0.52866 0.0
C594 C 0.65982 0.64658 0.51339 0.0
H595 H 0.73966 0.60838 0.50311 0.0
H596 H 0.70944 0.61081 0.5188 0.0
H597 H 0.697 0.58347 0.49162 0.0
H598 H 0.64268 0.58001 0.48386 0.0
H599 H 0.60113 0.56275 0.51095 0.0
H600 H 0.37661 0.47544 0.2003 0.0
H601 H 0.33168 0.48392 0.1779 0.0
H602 H 0.28004 0.45028 0.24083 0.0
H603 H 0.32487 0.44171 0.26335 0.0
H604 H 0.24157 0.42548 0.19145 0.0
H605 H 0.30726 0.54796 0.19562 0.0
H606 H 0.32657 0.5296 0.18172 0.0
H607 H 0.32345 0.52731 0.2156 0.0
C608 C 0.35595 0.47035 0.20959 0.0
C609 C 0.35431 0.458 0.23364 0.0
C610 C 0.33031 0.47519 0.19676 0.0
C611 C 0.30274 0.46806 0.20787 0.0
C612 C 0.30115 0.45597 0.23196 0.0
H613 H 0.12116 0.47645 0.16906 0.0
H614 H 0.16704 0.46778 0.18826 0.0
C615 C 0.32672 0.45103 0.24476 0.0
C616 C 0.27489 0.472 0.19391 0.0
H617 H 0.2534 0.52379 0.17013 0.0
C618 C 0.24412 0.44698 0.18684 0.0
C619 C 0.27839 0.50006 0.1878 0.0
C620 C 0.31061 0.52783 0.19575 0.0
C621 C 0.2167 0.44924 0.17373 0.0
C622 C 0.22013 0.47732 0.1679 0.0
C623 C 0.25096 0.5023 0.17463 0.0
C624 C 0.19176 0.4814 0.15564 0.0
C625 C 0.18435 0.42157 0.166 0.0
C626 C 0.19069 0.49222 0.13106 0.0
C627 C 0.16438 0.49704 0.11993 0.0
C628 C 0.13883 0.49136 0.13333 0.0
C629 C 0.14005 0.48047 0.15797 0.0
C630 C 0.16629 0.47558 0.16902 0.0
H631 H 0.18757 0.40138 0.16591 0.0
H632 H 0.1687 0.41989 0.18027 0.0
H633 H 0.17125 0.42221 0.1463 0.0
H634 H 0.21021 0.4969 0.1205 0.0
H635 H 0.16402 0.50515 0.10082 0.0
H636 H 0.61429 0.25739 0.84819 0.0
H637 H 0.59431 0.21698 0.87623 0.0
H638 H 0.64767 0.27913 0.94481 0.0
H639 H 0.66691 0.3195 0.91728 0.0
H640 H 0.63076 0.199 0.92084 0.0
H641 H 0.54736 0.23915 0.94872 0.0
H642 H 0.56542 0.24966 0.92012 0.0
H643 H 0.58944 0.26665 0.95206 0.0
C644 C 0.62195 0.26236 0.86924 0.0
C645 C 0.64213 0.29166 0.88048 0.0
C646 C 0.61072 0.23928 0.88517 0.0
C647 C 0.61941 0.24526 0.9125 0.0
C648 C 0.64068 0.2742 0.92373 0.0
H649 H 0.58585 0.13324 0.03981 0.0
H650 H 0.61053 0.16762 1.00799 0.0
C651 C 0.65185 0.29719 0.90791 0.0
C652 C 0.60433 0.22189 0.9295 0.0
H653 H 0.55193 0.2014 0.97206 0.0
C654 C 0.6134 0.19932 0.93198 0.0
C655 C 0.58149 0.22239 0.94372 0.0
C656 C 0.57006 0.24559 0.94095 0.0
C657 C 0.60059 0.17743 0.94889 0.0
C658 C 0.57852 0.17851 0.96372 0.0
C659 C 0.56906 0.2008 0.96079 0.0
C660 C 0.56426 0.15651 0.98213 0.0
C661 C 0.61042 0.15318 0.95053 0.0
C662 C 0.53017 0.1393 0.97827 0.0
C663 C 0.51611 0.12003 0.99645 0.0
C664 C 0.53591 0.1177 0.01888 0.0
C665 C 0.57009 0.13468 0.02266 0.0
C666 C 0.58419 0.15407 1.00442 0.0
H667 H 0.62108 0.15146 0.93354 0.0
H668 H 0.62916 0.15798 0.96861 0.0
H669 H 0.58907 0.13151 0.95148 0.0
H670 H 0.5144 0.141 0.96125 0.0
H671 H 0.48969 0.10707 0.99299 0.0
H672 H 0.91972 0.77646 0.4192 0.0
H673 H 0.95077 0.8272 0.44015 0.0
H674 H 0.91479 0.85835 0.37171 0.0
H675 H 0.88405 0.80753 0.35046 0.0
H676 H 0.98011 0.89711 0.39471 0.0
H677 H 0.90104 0.86495 0.46863 0.0
H678 H 0.9219 0.84326 0.46698 0.0
H679 H 0.8919 0.84131 0.43929 0.0
C680 C 0.919 0.79423 0.40842 0.0
C681 C 0.89933 0.78805 0.38327 0.0
C682 C 0.93653 0.82316 0.42048 0.0
C683 C 0.93439 0.84647 0.40778 0.0
C684 C 0.9166 0.84067 0.38195 0.0
H685 H 0.97274 0.01092 0.49174 0.0
H686 H 0.94804 0.9641 0.4639 0.0
C687 C 0.89921 0.81167 0.36976 0.0
C688 C 0.94891 0.87637 0.42212 0.0
H689 H 0.94674 0.91283 0.47635 0.0
C690 C 0.97278 0.9006 0.41252 0.0
C691 C 0.93884 0.88104 0.44508 0.0
C692 C 0.91179 0.85634 0.4555 0.0
C693 C 0.98744 0.92922 0.42563 0.0
C694 C 0.97837 0.93361 0.44922 0.0
C695 C 0.95395 0.90947 0.45844 0.0
C696 C 0.9938 0.96296 0.46479 0.0
C697 C 1.01211 0.95452 0.41386 0.0
C698 C 0.02772 0.9779 0.47471 0.0
C699 C 0.04188 1.00472 0.49051 0.0
C700 C 0.02235 0.01699 0.49692 0.0
C701 C 0.98842 1.00206 0.48701 0.0
C702 C 0.97429 0.9753 0.47113 0.0
H703 H 1.00913 0.94926 0.39254 0.0
H704 H 1.0099 0.97496 0.41689 0.0
H705 H 0.03717 0.95895 0.4234 0.0
H706 H 0.0432 0.9685 0.47071 0.0
H707 H 0.06805 0.01559 0.49806 0.0
H708 H 0.36308 0.81478 0.74885 0.0
H709 H 0.39107 0.79054 0.73154 0.0
H710 H 0.37137 0.81764 0.65524 0.0
H711 H 0.3445 0.84306 0.67265 0.0
H712 H 0.36643 0.74513 0.69283 0.0
H713 H 0.46873 0.84376 0.66541 0.0
H714 H 0.44285 0.84654 0.68604 0.0
H715 H 0.42884 0.83922 0.65112 0.0
C716 C 0.36523 0.81612 0.72849 0.0
C717 C 0.35174 0.83116 0.71222 0.0
C718 C 0.38101 0.802 0.71857 0.0
C719 C 0.38377 0.80259 0.69217 0.0
C720 C 0.37015 0.81737 0.6758 0.0
H721 H 0.46667 0.72271 0.59877 0.0
H722 H 0.43712 0.74712 0.61349 0.0
C723 C 0.35443 0.8316 0.68573 0.0
C724 C 0.40001 0.78695 0.68174 0.0
H725 H 0.46332 0.79707 0.65193 0.0
C726 C 0.38767 0.75652 0.68395 0.0
C727 C 0.4277 0.80179 0.67009 0.0
C728 C 0.44305 0.83467 0.6682 0.0
C729 C 0.40207 0.74051 0.6747 0.0
C730 C 0.4298 0.75537 0.66318 0.0
C731 C 0.44199 0.78572 0.66071 0.0
C732 C 0.44703 0.73995 0.65418 0.0
C733 C 0.38723 0.70772 0.67702 0.0
C734 C 0.46256 0.72799 0.6722 0.0
C735 C 0.47941 0.71402 0.66386 0.0
C736 C 0.48114 0.71176 0.63731 0.0
C737 C 0.46547 0.72374 0.61929 0.0
C738 C 0.44876 0.73785 0.62768 0.0
H739 H 0.36168 0.69846 0.68018 0.0
H740 H 0.38729 0.69573 0.6592 0.0
H741 H 0.40199 0.7036 0.694 0.0
H742 H 0.46194 0.72972 0.69279 0.0
H743 H 0.49096 0.70484 0.67822 0.0
H744 H 0.70471 0.80754 0.7786 0.0
H745 H 0.73313 0.83813 0.74612 0.0
H746 H 0.76102 0.77255 0.72552 0.0
H747 H 0.73207 0.74157 0.75746 0.0
H748 H 0.80062 0.86028 0.74748 0.0
H749 H 0.72665 0.79163 0.65403 0.0
H750 H 0.71148 0.78597 0.68416 0.0
H751 H 0.73912 0.77227 0.67833 0.0
C752 C 0.71625 0.79934 0.76671 0.0
C753 C 0.71619 0.77217 0.77058 0.0
C754 C 0.73262 0.8169 0.7483 0.0
C755 C 0.74889 0.80746 0.73326 0.0
C756 C 0.74816 0.78002 0.73661 0.0
H757 H 0.88012 0.88328 0.62558 0.0
H758 H 0.845 0.85175 0.65424 0.0
C759 C 0.7319 0.7625 0.75505 0.0
C760 C 0.76878 0.82723 0.71557 0.0
H761 H 0.77849 0.83206 0.6521 0.0
C762 C 0.79564 0.85428 0.72658 0.0
C763 C 0.76231 0.81916 0.68838 0.0
C764 C 0.73316 0.79079 0.67543 0.0
C765 C 0.81674 0.87322 0.71121 0.0
C766 C 0.81037 0.86513 0.68401 0.0
C767 C 0.78334 0.83817 0.67296 0.0
C768 C 0.83157 0.8843 0.6667 0.0
C769 C 0.84622 0.90129 0.72437 0.0
C770 C 0.83538 0.91291 0.66404 0.0
C771 C 0.85547 0.93096 0.64778 0.0
C772 C 0.87186 0.92062 0.63364 0.0
C773 C 0.86768 0.89181 0.63611 0.0
C774 C 0.84769 0.87381 0.65249 0.0
H775 H 0.85236 0.90035 0.7458 0.0
H776 H 0.86797 0.90567 0.71591 0.0
H777 H 0.84087 0.92015 0.72138 0.0
H778 H 0.82254 0.92118 0.67436 0.0
H779 H 0.85766 0.95283 0.64587 0.0
H780 H 0.71244 0.24141 0.34419 0.0
H781 H 0.68208 0.22624 0.29877 0.0
H782 H 0.69294 0.14706 0.29951 0.0
H783 H 0.722 0.16135 0.34493 0.0
H784 H 0.70034 0.21435 0.25368 0.0
H785 H 0.5946 0.11481 0.27536 0.0
H786 H 0.62448 0.14306 0.3006 0.0
H787 H 0.63304 0.11528 0.28768 0.0
C788 C 0.7081 0.22064 0.33473 0.0
C789 C 0.71971 0.20263 0.34827 0.0
C790 C 0.69094 0.21211 0.30873 0.0
C791 C 0.68483 0.18531 0.29586 0.0
C792 C 0.69685 0.16757 0.30917 0.0
H793 H 0.62987 0.12283 0.13119 0.0
H794 H 0.65927 0.14687 0.17521 0.0
C795 C 0.71388 0.17601 0.33509 0.0
C796 C 0.66598 0.17571 0.26851 0.0
H797 H 0.59927 0.11838 0.23053 0.0
C798 C 0.67807 0.1935 0.2486 0.0
C799 C 0.63664 0.14873 0.26194 0.0
C800 C 0.62121 0.1295 0.28254 0.0
C801 C 0.66219 0.18454 0.2222 0.0
C802 C 0.6338 0.1568 0.21551 0.0
C803 C 0.6212 0.13951 0.23555 0.0
C804 C 0.6168 0.1449 0.18793 0.0
C805 C 0.67582 0.20499 0.2018 0.0
C806 C 0.58307 0.13555 0.18038 0.0
C807 C 0.56613 0.12145 0.15535 0.0
C808 C 0.58255 0.1164 0.13725 0.0
C809 C 0.61653 0.12662 0.14453 0.0
C810 C 0.63343 0.14053 0.1697 0.0
H811 H 0.69068 0.22831 0.21049 0.0
H812 H 0.69202 0.19865 0.19309 0.0
H813 H 0.65595 0.2036 0.18587 0.0
H814 H 0.56967 0.1386 0.19408 0.0
H815 H 0.53998 0.11395 0.15041 0.0
H816 H 0.48825 0.77559 0.41937 0.0
H817 H 0.47782 0.73831 0.45014 0.0
H818 H 0.3855 0.68064 0.39948 0.0
H819 H 0.39695 0.71697 0.3675 0.0
H820 H 0.43247 0.70841 0.47831 0.0
H821 H 0.43111 0.63089 0.40184 0.0
H822 H 0.44209 0.66884 0.39694 0.0
H823 H 0.3998 0.6421 0.39436 0.0
C824 C 0.46577 0.75493 0.41464 0.0
C825 C 0.44394 0.74897 0.39056 0.0
C826 C 0.45961 0.73377 0.43246 0.0
C827 C 0.43129 0.70635 0.42679 0.0
C828 C 0.40797 0.70132 0.4039 0.0
H829 H 0.4248 0.55556 0.51056 0.0
H830 H 0.40222 0.58546 0.48701 0.0
C831 C 0.41439 0.72232 0.38578 0.0
C832 C 0.42831 0.68248 0.44374 0.0
H833 H 0.43105 0.61699 0.44426 0.0
C834 C 0.43154 0.68815 0.4708 0.0
C835 C 0.42708 0.656 0.43392 0.0
C836 C 0.42509 0.64908 0.40524 0.0
C837 C 0.43555 0.66894 0.4884 0.0
C838 C 0.43612 0.64344 0.47862 0.0
C839 C 0.43043 0.63659 0.45155 0.0
C840 C 0.44779 0.62618 0.49588 0.0
C841 C 0.4406 0.67665 0.51738 0.0
C842 C 0.48081 0.63927 0.50847 0.0
C843 C 0.49382 0.62225 0.52137 0.0
C844 C 0.47396 0.59189 0.52211 0.0
C845 C 0.4406 0.57895 0.51027 0.0
C846 C 0.42766 0.59597 0.49698 0.0
H847 H 0.43046 0.69173 0.52137 0.0
H848 H 0.429 0.65644 0.52747 0.0
H849 H 0.46725 0.688 0.52585 0.0
H850 H 0.4969 0.66242 0.50727 0.0
H851 H 0.51968 0.63269 0.53002 0.0
H852 H 0.12877 0.44134 0.83663 0.0
H853 H 0.106 0.46627 0.86086 0.0
H854 H 0.19943 0.51345 0.9136 0.0
H855 H 0.22228 0.48928 0.88928 0.0
H856 H 0.10031 0.46183 0.91229 0.0
H857 H 0.17583 0.57919 0.89863 0.0
H858 H 0.17401 0.54934 0.87856 0.0
H859 H 0.20047 0.56175 0.91039 0.0
C860 C 0.14463 0.45763 0.85295 0.0
C861 C 0.17732 0.46327 0.86104 0.0
C862 C 0.13155 0.47171 0.86693 0.0
C863 C 0.15103 0.492 0.889 0.0
C864 C 0.18398 0.49838 0.89643 0.0
H865 H 0.09263 0.53583 0.02545 0.0
H866 H 0.11208 0.51628 0.99327 0.0
C867 C 0.19697 0.48432 0.88259 0.0
C868 C 0.13662 0.50478 0.9056 0.0
H869 H 0.14793 0.56988 0.93473 0.0
C870 C 0.1105 0.48548 0.91694 0.0
C871 C 0.14959 0.53565 0.91157 0.0
C872 C 0.1763 0.55768 0.89893 0.0
C873 C 0.09785 0.49609 0.93471 0.0
C874 C 0.11205 0.52689 0.9418 0.0
C875 C 0.13733 0.54625 0.9297 0.0
C876 C 0.101 0.53943 0.96167 0.0
C877 C 0.06921 0.47415 0.9456 0.0
C878 C 0.08932 0.55981 0.95504 0.0
C879 C 0.07841 0.57125 0.97349 0.0
C880 C 0.07909 0.56271 0.99913 0.0
C881 C 0.09152 0.5428 1.0059 0.0
C882 C 0.10244 0.5314 0.98742 0.0
H883 H 0.05541 0.45294 0.93285 0.0
H884 H 0.07841 0.46939 0.96514 0.0
H885 H 0.0521 0.48306 0.94787 0.0
H886 H 0.08814 0.56654 0.9354 0.0
H887 H 0.06908 0.58654 0.96753 0.0
H888 H 0.56546 0.75418 0.87907 0.0
H889 H 0.56648 0.79684 0.90142 0.0
H890 H 0.62753 0.85411 0.85142 0.0
H891 H 0.62618 0.8115 0.82857 0.0
H892 H 0.65101 0.87253 0.90612 0.0
H893 H 0.52076 0.84688 0.87428 0.0
H894 H 0.527 0.81719 0.88757 0.0
H895 H 0.5397 0.83 0.85748 0.0
C896 C 0.57857 0.77574 0.87245 0.0
C897 C 0.5957 0.77939 0.85198 0.0
C898 C 0.57917 0.8001 0.8853 0.0
C899 C 0.59683 0.82854 0.87789 0.0
C900 C 0.61373 0.83229 0.85738 0.0
H901 H 0.59347 0.98837 0.93179 0.0
H902 H 0.5912 0.94755 0.90521 0.0
C903 C 0.61306 0.80794 0.84445 0.0
C904 C 0.59897 0.85454 0.8924 0.0
H905 H 0.55311 0.88597 0.90814 0.0
C906 C 0.62966 0.87559 0.90647 0.0
C907 C 0.5711 0.85852 0.8926 0.0
C908 C 0.53778 0.83712 0.87701 0.0
C909 C 0.63313 0.90027 0.92124 0.0
C910 C 0.6051 0.90379 0.92209 0.0
C911 C 0.57451 0.88308 0.90756 0.0
C912 C 0.60696 0.92868 0.93819 0.0
C913 C 0.66679 0.92249 0.93566 0.0
C914 C 0.61631 0.93137 0.96552 0.0
C915 C 0.61748 0.95454 0.98076 0.0
C916 C 0.60919 0.9754 0.96895 0.0
C917 C 0.59975 0.97256 0.94152 0.0
C918 C 0.59855 0.94933 0.92629 0.0
H919 H 0.68643 0.92061 0.92784 0.0
H920 H 0.6703 0.94539 0.93441 0.0
H921 H 0.66954 0.91853 0.95663 0.0
H922 H 0.62223 0.91529 0.9751 0.0
H923 H 0.62417 0.95569 1.00184 0.0
H924 H 0.78529 0.18321 0.45522 0.0
H925 H 0.82675 0.16775 0.47089 0.0
H926 H 0.87228 0.20138 0.40499 0.0
H927 H 0.83086 0.21729 0.38918 0.0
H928 H 0.86381 0.14474 0.41389 0.0
H929 H 0.92267 0.21978 0.50564 0.0
H930 H 0.87907 0.19864 0.50222 0.0
H931 H 0.89576 0.22507 0.47938 0.0
C932 C 0.80444 0.18786 0.44425 0.0
C933 C 0.80493 0.20186 0.42108 0.0
C934 C 0.82813 0.17894 0.45325 0.0
C935 C 0.85299 0.18389 0.4394 0.0
C936 C 0.85343 0.19752 0.41609 0.0
H937 H 1.01719 0.15289 0.51057 0.0
H938 H 0.98521 0.17565 0.4881 0.0
C939 C 0.82968 0.2065 0.40704 0.0
C940 C 0.8777 0.17382 0.44896 0.0
H941 H 0.93386 0.1788 0.50271 0.0
C942 C 0.87942 0.15243 0.43318 0.0
C943 C 0.89845 0.18418 0.47396 0.0
C944 C 0.8992 0.20841 0.49119 0.0
C945 C 0.90027 0.14019 0.44222 0.0
C946 C 0.91951 0.14925 0.46786 0.0
C947 C 0.91886 0.17159 0.48316 0.0
C948 C 0.93944 0.13505 0.47968 0.0
C949 C 0.90141 0.11763 0.42421 0.0
C950 C 0.9244 0.10465 0.48244 0.0
C951 C 0.94261 0.09156 0.49521 0.0
C952 C 0.97625 0.10864 0.50573 0.0
C953 C 0.99137 0.13905 0.50267 0.0
C954 C 0.97311 0.15211 0.48985 0.0
H955 H 0.89381 0.12003 0.40333 0.0
H956 H 0.92637 0.11957 0.42725 0.0
H957 H 0.88422 0.09514 0.42826 0.0
H958 H 0.89833 0.09113 0.47535 0.0
H959 H 0.93007 0.06814 0.49734 0.0
H960 H 0.30201 0.77269 0.26545 0.0
H961 H 0.25589 0.73506 0.23446 0.0
H962 H 0.30616 0.68235 0.23593 0.0
H963 H 0.35343 0.72096 0.26596 0.0
H964 H 0.28589 0.68825 0.18774 0.0
H965 H 0.18184 0.65627 0.23718 0.0
H966 H 0.20247 0.69566 0.23773 0.0
H967 H 0.22368 0.67701 0.25463 0.0
C968 C 0.30306 0.75287 0.25952 0.0
C969 C 0.33148 0.74993 0.268 0.0
C970 C 0.27644 0.73113 0.24203 0.0
C971 C 0.27727 0.70561 0.23308 0.0
C972 C 0.30488 0.70178 0.24268 0.0
H973 H 0.09855 0.59422 0.11913 0.0
H974 H 0.14367 0.60722 0.15649 0.0
C975 C 0.33176 0.72374 0.26004 0.0
C976 C 0.25114 0.68512 0.21136 0.0
H977 H 0.16851 0.65261 0.18934 0.0
C978 C 0.26016 0.67983 0.18829 0.0
C979 C 0.21752 0.67345 0.21212 0.0
C980 C 0.2059 0.67564 0.2369 0.0
C981 C 0.23661 0.66514 0.16546 0.0
C982 C 0.20328 0.65646 0.16545 0.0
C983 C 0.1941 0.65978 0.18905 0.0
C984 C 0.17779 0.6459 0.14105 0.0
C985 C 0.24788 0.65946 0.14158 0.0
C986 C 0.18206 0.66286 0.11958 0.0
C987 C 0.1565 0.65499 0.09791 0.0
C988 C 0.12596 0.63057 0.09773 0.0
C989 C 0.1219 0.6132 0.11885 0.0
C990 C 0.14764 0.62065 0.14021 0.0
H991 H 0.26998 0.65632 0.14726 0.0
H992 H 0.22845 0.63963 0.12882 0.0
H993 H 0.25467 0.67891 0.13017 0.0
H994 H 0.20465 0.68295 0.12001 0.0
H995 H 0.16013 0.66888 0.08196 0.0
H996 H 0.25804 0.40451 0.7241 0.0
H997 H 0.30135 0.43085 0.69984 0.0
H998 H 0.29656 0.51134 0.71585 0.0
H999 H 0.2526 0.48481 0.74022 0.0
H1000 H 0.29368 0.46046 0.65472 0.0
H1001 H 0.39638 0.53556 0.73432 0.0
H1002 H 0.36159 0.50296 0.74084 0.0
H1003 H 0.35746 0.53512 0.73242 0.0
C1004 C 0.26617 0.42785 0.72253 0.0
C1005 C 0.25153 0.44249 0.73376 0.0
C1006 C 0.29104 0.44289 0.70873 0.0
C1007 C 0.3022 0.47304 0.706 0.0
C1008 C 0.28853 0.48812 0.71793 0.0
H1009 H 0.45516 0.58333 0.62073 0.0
H1010 H 0.41178 0.56642 0.64624 0.0
C1011 C 0.26345 0.47297 0.73183 0.0
C1012 C 0.32686 0.48778 0.68941 0.0
H1013 H 0.40694 0.53772 0.6916 0.0
C1014 C 0.31839 0.47751 0.66275 0.0
C1015 C 0.35898 0.51015 0.69987 0.0
C1016 C 0.36943 0.52161 0.72845 0.0
C1017 C 0.34131 0.48856 0.64636 0.0
C1018 C 0.37385 0.51005 0.65701 0.0
C1019 C 0.38205 0.52111 0.68349 0.0
C1020 C 0.39995 0.52035 0.64124 0.0
C1021 C 0.33038 0.47711 0.61774 0.0
C1022 C 0.40798 0.50013 0.63011 0.0
C1023 C 0.43268 0.50968 0.61543 0.0
C1024 C 0.45013 0.53974 0.61172 0.0
C1025 C 0.44217 0.55999 0.62305 0.0
C1026 C 0.41742 0.55039 0.63773 0.0
H1027 H 0.30347 0.46807 0.61121 0.0
H1028 H 0.34286 0.49477 0.60533 0.0
H1029 H 0.33653 0.45899 0.61457 0.0
H1030 H 0.39536 0.47693 0.63302 0.0
H1031 H 0.43827 0.49347 0.60724 0.0
H1032 H 0.71888 0.73485 0.883 0.0
H1033 H 0.75732 0.7239 0.91327 0.0
H1034 H 0.77934 0.68918 0.84804 0.0
H1035 H 0.7406 0.6996 0.8177 0.0
H1036 H 0.77099 0.655 0.89313 0.0
H1037 H 0.85819 0.77479 0.91788 0.0
H1038 H 0.81677 0.76298 0.92172 0.0
H1039 H 0.82512 0.76112 0.88963 0.0
C1040 C 0.73142 0.72433 0.87516 0.0
C1041 C 0.72692 0.71823 0.84798 0.0
C1042 C 0.75355 0.71834 0.89245 0.0
C1043 C 0.77142 0.70613 0.88281 0.0
C1044 C 0.76585 0.69875 0.85581 0.0
H1045 H 0.95306 0.70579 0.93933 0.0
H1046 H 0.90686 0.71258 0.91735 0.0
C1047 C 0.74387 0.70483 0.83852 0.0
C1048 C 0.79723 0.70239 0.90057 0.0
H1049 H 0.87406 0.7412 0.93792 0.0
C1050 C 0.79341 0.67377 0.90317 0.0
C1051 C 0.82652 0.72703 0.91334 0.0
C1052 C 0.83221 0.75827 0.91047 0.0
C1053 C 0.8184 0.66914 0.918 0.0
C1054 C 0.84777 0.6938 0.93063 0.0
C1055 C 0.85138 0.72238 0.92832 0.0
C1056 C 0.87591 0.6905 0.94484 0.0
C1057 C 0.81373 0.63802 0.91929 0.0
C1058 C 0.87394 0.67626 0.96783 0.0
C1059 C 0.90043 0.67253 0.98059 0.0
C1060 C 0.92937 0.68305 0.97058 0.0
C1061 C 0.93136 0.69778 0.94778 0.0
C1062 C 0.90492 0.70154 0.9351 0.0
H1063 H 0.79218 0.62199 0.90472 0.0
H1064 H 0.83585 0.63684 0.91586 0.0
H1065 H 0.80993 0.63122 0.93909 0.0
H1066 H 0.85191 0.66803 0.97587 0.0
H1067 H 0.89829 0.6615 0.99833 0.0
H1068 H 0.36536 0.85586 0.26328 0.0
H1069 H 0.38145 0.89503 0.2338 0.0
H1070 H 0.47802 0.90193 0.2455 0.0
H1071 H 0.46209 0.86238 0.27411 0.0
H1072 H 0.46969 0.95948 0.24272 0.0
H1073 H 0.39893 0.86951 0.16094 0.0
H1074 H 0.38002 0.8709 0.18786 0.0
H1075 H 0.41321 0.86198 0.19306 0.0
C1076 C 0.39017 0.86604 0.25988 0.0
C1077 C 0.41232 0.85575 0.27084 0.0
C1078 C 0.39932 0.88848 0.2432 0.0
C1079 C 0.43078 0.90107 0.23748 0.0
C1080 C 0.45366 0.89247 0.24987 0.0
H1081 H 0.55475 0.00823 0.13985 0.0
H1082 H 0.52841 0.9824 0.17503 0.0
C1083 C 0.44452 0.86994 0.26635 0.0
C1084 C 0.4389 0.9203 0.21617 0.0
H1085 H 0.43244 0.91663 0.14996 0.0
C1086 C 0.46118 0.95034 0.22238 0.0
C1087 C 0.42752 0.90817 0.18974 0.0
C1088 C 0.40366 0.87586 0.18228 0.0
C1089 C 0.47329 0.9685 0.20273 0.0
C1090 C 0.46356 0.95592 0.1764 0.0
C1091 C 0.43998 0.92618 0.17016 0.0
C1092 C 0.47938 0.97238 0.15534 0.0
C1093 C 0.49664 1.00087 0.21041 0.0
C1094 C 0.46041 0.97421 0.13211 0.0
C1095 C 0.47538 0.98838 0.11171 0.0
C1096 C 0.50952 1.00099 0.11432 0.0
C1097 C 0.52839 0.99883 0.13742 0.0
C1098 C 0.51342 0.98444 0.15766 0.0
H1099 H 0.49237 0.00885 0.22854 0.0
H1100 H 0.52215 1.00414 0.21442 0.0
H1101 H 0.49421 0.01456 0.1946 0.0
H1102 H 0.43406 0.96469 0.12978 0.0
H1103 H 0.46028 0.98971 0.09404 0.0
H1104 H 0.14473 0.36214 0.69346 0.0
H1105 H 0.11606 0.31242 0.67107 0.0
H1106 H 0.11892 0.27615 0.74531 0.0
H1107 H 0.1498 0.32616 0.76782 0.0
H1108 H 0.13722 0.25071 0.71315 0.0
H1109 H 0.02433 0.24955 0.65972 0.0
H1110 H 0.05951 0.28011 0.65195 0.0
H1111 H 0.0526 0.27848 0.68502 0.0
C1112 C 0.13913 0.34363 0.70512 0.0
C1113 C 0.14987 0.34831 0.7325 0.0
C1114 C 0.12224 0.31506 0.69225 0.0
C1115 C 0.11478 0.2903 0.70642 0.0
C1116 C 0.12423 0.29482 0.73388 0.0
H1117 H 0.99135 0.11421 0.62259 0.0
H1118 H 1.01314 0.15949 0.65188 0.0
C1119 C 0.14158 0.32349 0.74678 0.0
C1120 C 0.09952 0.26004 0.69241 0.0
H1121 H 0.038 0.21368 0.64283 0.0
C1122 C 0.11525 0.24247 0.69803 0.0
C1123 C 0.07054 0.24886 0.67289 0.0
C1124 C 0.05061 0.26515 0.66727 0.0
C1125 C 0.10347 0.21462 0.68421 0.0
C1126 C 0.07581 0.20439 0.66344 0.0
C1127 C 0.0595 0.22155 0.65839 0.0
C1128 C 0.06319 0.176 0.64673 0.0
C1129 C 0.1206 0.19636 0.69239 0.0
C1130 C 0.08392 0.16993 0.63398 0.0
C1131 C 0.07158 0.14364 0.61766 0.0
C1132 C 0.03808 0.12331 0.61319 0.0
C1133 C 1.01732 0.12947 0.62571 0.0
C1134 C 0.02975 0.15542 0.64241 0.0
H1135 H 0.13314 0.20225 0.7133 0.0
H1136 H 0.10318 0.17237 0.68947 0.0
H1137 H 0.13957 0.2008 0.68055 0.0
H1138 H 0.10955 0.18574 0.63619 0.0
H1139 H 0.08805 0.13961 0.60802 0.0
H1140 H 0.66598 0.27644 0.41804 0.0
H1141 H 0.64465 0.31224 0.41866 0.0
H1142 H 0.70507 0.35027 0.49511 0.0
H1143 H 0.72655 0.315 0.49441 0.0
H1144 H 0.61 0.31487 0.45595 0.0
H1145 H 0.71817 0.42362 0.45828 0.0
H1146 H 0.71715 0.38937 0.44799 0.0
H1147 H 0.72574 0.40143 0.48226 0.0
C1148 C 0.67534 0.29302 0.43459 0.0
C1149 C 0.69782 0.29291 0.45621 0.0
C1150 C 0.66306 0.31334 0.435 0.0
C1151 C 0.67349 0.33415 0.45683 0.0
C1152 C 0.6971 0.33487 0.47784 0.0
H1153 H 0.61543 0.4461 0.53177 0.0
H1154 H 0.64249 0.41942 0.51693 0.0
C1155 C 0.70917 0.31453 0.47751 0.0
C1156 C 0.65727 0.35286 0.45924 0.0
H1157 H 0.67292 0.42396 0.47391 0.0
C1158 C 0.6236 0.33877 0.45937 0.0
C1159 C 0.6751 0.38403 0.46391 0.0
C1160 C 0.71098 0.40053 0.46286 0.0
C1161 C 0.60762 0.35482 0.46531 0.0
C1162 C 0.62567 0.38592 0.47077 0.0
C1163 C 0.65912 0.40012 0.46982 0.0
C1164 C 0.61055 0.40384 0.47879 0.0
C1165 C 0.5719 0.33816 0.46696 0.0
C1166 C 0.58409 0.40457 0.46204 0.0
C1167 C 0.56856 0.41982 0.47047 0.0
C1168 C 0.57934 0.43487 0.49575 0.0
C1169 C 0.60663 0.43497 0.51211 0.0
C1170 C 0.62208 0.41964 0.50369 0.0
H1171 H 0.56367 0.31417 0.4681 0.0
H1172 H 0.56714 0.34706 0.48431 0.0
H1173 H 0.55684 0.34068 0.44921 0.0
H1174 H 0.57523 0.3931 0.44253 0.0
H1175 H 0.54803 0.41976 0.45718 0.0
loop_
_geom_bond_atom_site_label_1
_geom_bond_atom_site_label_2
_geom_bond_distance
_geom_bond_site_symmetry_2
_ccdc_geom_bond_type
H0 C1 0.949 . S
C1 H0 0.949 . S
C1 C2 1.395 . S
C1 C3 1.391 . S
C2 C1 1.395 . S
C2 C5 1.390 . S
C3 C1 1.391 . S
C3 C7 1.387 . S
C3 C8 1.491 . S
H4 C5 0.950 . S
C5 C2 1.390 . S
C5 H4 0.950 . S
C5 C6 1.378 . S
C6 C5 1.378 . S
C6 C7 1.409 . S
C7 C3 1.387 . S
C7 C6 1.409 . S
C7 H9 0.951 . S
C8 C3 1.491 . S
C8 C10 1.382 . S
C8 C12 1.404 . S
H9 C7 0.951 . S
C10 C8 1.382 . S
C10 C11 1.390 . S
C10 H15 0.949 . S
C11 C10 1.390 . S
C11 C16 1.399 . S
C12 C8 1.404 . S
C12 H13 0.950 . S
C12 C14 1.375 . S
H13 C12 0.950 . S
C14 C12 1.375 . S
C14 C16 1.382 . S
C14 H18 0.950 . S
H15 C10 0.949 . S
C16 C11 1.399 . S
C16 C14 1.382 . S
C16 H17 0.952 . S
H17 C16 0.952 . S
H18 C14 0.950 . S
H19 C20 0.949 . S
C20 H19 0.949 . S
C20 C21 1.395 . S
C20 C22 1.391 . S
C21 C20 1.395 . S
C21 C24 1.390 . S
C22 C20 1.391 . S
C22 C26 1.387 . S
C22 C27 1.491 . S
H23 C24 0.950 . S
C24 C21 1.390 . S
C24 H23 0.950 . S
C24 C25 1.378 . S
C25 C24 1.378 . S
C25 C26 1.409 . S
C26 C22 1.387 . S
C26 C25 1.409 . S
C26 H28 0.951 . S
C27 C22 1.491 . S
C27 C29 1.382 . S
C27 C31 1.404 . S
H28 C26 0.951 . S
C29 C27 1.382 . S
C29 C30 1.390 . S
C29 H34 0.949 . S
C30 C29 1.390 . S
C30 C35 1.399 . S
C31 C27 1.404 . S
C31 H32 0.950 . S
C31 C33 1.375 . S
H32 C31 0.950 . S
C33 C31 1.375 . S
C33 C35 1.382 . S
C33 H37 0.950 . S
H34 C29 0.949 . S
C35 C30 1.399 . S
C35 C33 1.382 . S
C35 H36 0.952 . S
H36 C35 0.952 . S
H37 C33 0.950 . S
H38 C39 0.949 . S
C39 H38 0.949 . S
C39 C40 1.395 . S
C39 C41 1.391 . S
C40 C39 1.395 . S
C40 C43 1.390 . S
C41 C39 1.391 . S
C41 C45 1.387 . S
C41 C46 1.491 . S
H42 C43 0.950 . S
C43 C40 1.390 . S
C43 H42 0.950 . S
C43 C44 1.378 . S
C44 C43 1.378 . S
C44 C45 1.409 . S
C45 C41 1.387 . S
C45 C44 1.409 . S
C45 H47 0.951 . S
C46 C41 1.491 . S
C46 C48 1.382 . S
C46 C50 1.404 . S
H47 C45 0.951 . S
C48 C46 1.382 . S
C48 C49 1.390 . S
C48 H53 0.949 . S
C49 C48 1.390 . S
C49 C54 1.399 . S
C50 C46 1.404 . S
C50 H51 0.950 . S
C50 C52 1.375 . S
H51 C50 0.950 . S
C52 C50 1.375 . S
C52 C54 1.382 . S
C52 H56 0.950 . S
H53 C48 0.949 . S
C54 C49 1.399 . S
C54 C52 1.382 . S
C54 H55 0.952 . S
H55 C54 0.952 . S
H56 C52 0.950 . S
H57 C58 0.949 . S
C58 H57 0.949 . S
C58 C59 1.395 . S
C58 C60 1.391 . S
C59 C58 1.395 . S
C59 C62 1.390 . S
C60 C58 1.391 . S
C60 C64 1.387 . S
C60 C65 1.491 . S
H61 C62 0.950 . S
C62 C59 1.390 . S
C62 H61 0.950 . S
C62 C63 1.378 . S
C63 C62 1.378 . S
C63 C64 1.409 . S
C64 C60 1.387 . S
C64 C63 1.409 . S
C64 H66 0.951 . S
C65 C60 1.491 . S
C65 C67 1.382 . S
C65 C69 1.404 . S
H66 C64 0.951 . S
C67 C65 1.382 . S
C67 C68 1.390 . S
C67 H72 0.949 . S
C68 C67 1.390 . S
C68 C73 1.399 . S
C69 C65 1.404 . S
C69 H70 0.950 . S
C69 C71 1.375 . S
H70 C69 0.950 . S
C71 C69 1.375 . S
C71 C73 1.382 . S
C71 H75 0.950 . S
H72 C67 0.949 . S
C73 C68 1.399 . S
C73 C71 1.382 . S
C73 H74 0.952 . S
H74 C73 0.952 . S
H75 C71 0.950 . S
H76 C77 0.949 . S
C77 H76 0.949 . S
C77 C78 1.395 . S
C77 C79 1.391 . S
C78 C77 1.395 . S
C78 C81 1.390 . S
C79 C77 1.391 . S
C79 C83 1.387 . S
C79 C84 1.491 . S
H80 C81 0.950 . S
C81 C78 1.390 . S
C81 H80 0.950 . S
C81 C82 1.378 . S
C82 C81 1.378 . S
C82 C83 1.409 . S
C83 C79 1.387 . S
C83 C82 1.409 . S
C83 H85 0.951 . S
C84 C79 1.491 . S
C84 C86 1.382 . S
C84 C88 1.404 . S
H85 C83 0.951 . S
C86 C84 1.382 . S
C86 C87 1.390 . S
C86 H91 0.949 . S
C87 C86 1.390 . S
C87 C92 1.399 . S
C88 C84 1.404 . S
C88 H89 0.950 . S
C88 C90 1.375 . S
H89 C88 0.950 . S
C90 C88 1.375 . S
C90 C92 1.382 . S
C90 H94 0.950 . S
H91 C86 0.949 . S
C92 C87 1.399 . S
C92 C90 1.382 . S
C92 H93 0.952 . S
H93 C92 0.952 . S
H94 C90 0.950 . S
H95 C96 0.949 . S
C96 H95 0.949 . S
C96 C97 1.395 . S
C96 C98 1.391 . S
C97 C96 1.395 . S
C97 C100 1.390 . S
C98 C96 1.391 . S
C98 C102 1.387 . S
C98 C103 1.491 . S
H99 C100 0.950 . S
C100 C97 1.390 . S
C100 H99 0.950 . S
C100 C101 1.378 . S
C101 C100 1.378 . S
C101 C102 1.409 . S
C102 C98 1.387 . S
C102 C101 1.409 . S
C102 H104 0.951 . S
C103 C98 1.491 . S
C103 C105 1.382 . S
C103 C107 1.404 . S
H104 C102 0.951 . S
C105 C103 1.382 . S
C105 C106 1.390 . S
C105 H110 0.949 . S
C106 C105 1.390 . S
C106 C111 1.399 . S
C107 C103 1.404 . S
C107 H108 0.950 . S
C107 C109 1.375 . S
H108 C107 0.950 . S
C109 C107 1.375 . S
C109 C111 1.382 . S
C109 H113 0.950 . S
H110 C105 0.949 . S
C111 C106 1.399 . S
C111 C109 1.382 . S
C111 H112 0.952 . S
H112 C111 0.952 . S
H113 C109 0.950 . S
H114 C115 0.949 . S
C115 H114 0.949 . S
C115 C116 1.395 . S
C115 C117 1.391 . S
C116 C115 1.395 . S
C116 C119 1.390 . S
C117 C115 1.391 . S
C117 C121 1.387 . S
C117 C122 1.491 . S
H118 C119 0.950 . S
C119 C116 1.390 . S
C119 H118 0.950 . S
C119 C120 1.378 . S
C120 C119 1.378 . S
C120 C121 1.409 . S
C121 C117 1.387 . S
C121 C120 1.409 . S
C121 H123 0.951 . S
C122 C117 1.491 . S
C122 C124 1.382 . S
C122 C126 1.404 . S
H123 C121 0.951 . S
C124 C122 1.382 . S
C124 C125 1.390 . S
C124 H129 0.949 . S
C125 C124 1.390 . S
C125 C130 1.399 . S
C126 C122 1.404 . S
C126 H127 0.950 . S
C126 C128 1.375 . S
H127 C126 0.950 . S
C128 C126 1.375 . S
C128 C130 1.382 . S
C128 H132 0.950 . S
H129 C124 0.949 . S
C130 C125 1.399 . S
C130 C128 1.382 . S
C130 H131 0.952 . S
H131 C130 0.952 . S
H132 C128 0.950 . S
H133 C134 0.949 . S
C134 H133 0.949 . S
C134 C135 1.395 . S
C134 C136 1.391 . S
C135 C134 1.395 . S
C135 C138 1.390 . S
C136 C134 1.391 . S
C136 C140 1.387 . S
C136 C141 1.491 . S
H137 C138 0.950 . S
C138 C135 1.390 . S
C138 H137 0.950 . S
C138 C139 1.378 . S
C139 C138 1.378 . S
C139 C140 1.409 . S
C140 C136 1.387 . S
C140 C139 1.409 . S
C140 H142 0.951 . S
C141 C136 1.491 . S
C141 C143 1.382 . S
C141 C145 1.404 . S
H142 C140 0.951 . S
C143 C141 1.382 . S
C143 C144 1.390 . S
C143 H148 0.949 . S
C144 C143 1.390 . S
C144 C149 1.399 . S
C145 C141 1.404 . S
C145 H146 0.950 . S
C145 C147 1.375 . S
H146 C145 0.950 . S
C147 C145 1.375 . S
C147 C149 1.382 . S
C147 H151 0.950 . S
H148 C143 0.949 . S
C149 C144 1.399 . S
C149 C147 1.382 . S
C149 H150 0.952 . S
H150 C149 0.952 . S
H151 C147 0.950 . S
Pr152 C154 2.880 1_545 S
Pr152 O172 2.562 1_545 S
Pr152 O173 2.490 . S
Pr152 O174 2.695 1_655 S
Pr152 O175 2.512 1_655 S
Pr152 O177 2.437 1_655 S
Pr152 O180 2.436 . S
Pr152 O182 2.438 . S
Pr153 C163 2.880 . S
Pr153 O174 2.436 . S
Pr153 O176 2.438 . S
Pr153 O178 2.562 . S
Pr153 O179 2.490 . S
Pr153 O180 2.695 1_455 S
Pr153 O181 2.512 . S
Pr153 O183 2.436 1_455 S
C154 Pr152 2.880 1_565 S
C154 C155 1.491 . S
C154 O172 1.254 . S
C154 O173 1.225 1_565 S
C155 C154 1.491 . S
C155 C156 1.392 . S
C155 C160 1.356 . S
C156 C155 1.392 . S
C156 C157 1.368 . S
C156 H184 0.929 . S
C157 C156 1.368 . S
C157 C158 1.386 . S
C157 H185 0.929 . S
C158 C157 1.386 . S
C158 C159 1.373 . S
C159 C158 1.373 . S
C159 C160 1.409 . S
C159 H186 0.931 . S
C160 C155 1.356 . S
C160 C159 1.409 . S
C160 H187 0.930 . S
C161 O174 1.270 . S
C161 O175 1.248 . S
C162 O176 1.267 . S
C162 O177 1.278 . S
C163 Pr153 2.880 . S
C163 C164 1.491 . S
C163 O178 1.254 . S
C163 O179 1.225 . S
C164 C163 1.491 . S
C164 C165 1.392 . S
C164 C169 1.356 . S
C165 C164 1.392 . S
C165 C166 1.368 . S
C165 H188 0.929 . S
C166 C165 1.368 . S
C166 C167 1.386 . S
C166 H189 0.929 . S
C167 C166 1.386 . S
C167 C168 1.373 . S
C168 C167 1.373 . S
C168 C169 1.409 . S
C168 H190 0.931 . S
C169 C164 1.356 . S
C169 C168 1.409 . S
C169 H191 0.930 . S
C170 O180 1.270 1_565 S
C170 O181 1.248 1_665 S
C171 O182 1.267 . S
C171 O183 1.278 . S
O172 Pr152 2.562 1_565 S
O172 C154 1.254 . S
O173 Pr152 2.490 . S
O173 C154 1.225 1_545 S
O174 Pr152 2.695 1_455 S
O174 Pr153 2.436 . S
O174 C161 1.270 . S
O175 Pr152 2.512 1_455 S
O175 C161 1.248 . S
O176 Pr153 2.438 . S
O176 C162 1.267 . S
O177 Pr152 2.437 1_455 S
O177 C162 1.278 . S
O178 Pr153 2.562 . S
O178 C163 1.254 . S
O179 Pr153 2.490 . S
O179 C163 1.225 . S
O180 Pr152 2.436 . S
O180 Pr153 2.695 1_655 S
O180 C170 1.270 1_545 S
O181 Pr153 2.512 . S
O181 C170 1.248 1_445 S
O182 Pr152 2.438 . S
O182 C171 1.267 . S
O183 Pr153 2.436 1_655 S
O183 C171 1.278 . S
H184 C156 0.929 . S
H185 C157 0.929 . S
H186 C159 0.931 . S
H187 C160 0.930 . S
H188 C165 0.929 . S
H189 C166 0.929 . S
H190 C168 0.931 . S
H191 C169 0.930 . S
Pr192 C194 2.880 . S
Pr192 O212 2.562 . S
Pr192 O213 2.490 . S
Pr192 O214 2.695 . S
Pr192 O215 2.512 . S
Pr192 O217 2.437 . S
Pr192 O220 2.436 . S
Pr192 O222 2.438 . S
Pr193 C203 2.880 1_545 S
Pr193 O214 2.436 . S
Pr193 O216 2.438 . S
Pr193 O218 2.562 . S
Pr193 O219 2.490 1_545 S
Pr193 O220 2.695 . S
Pr193 O221 2.512 1_545 S
Pr193 O223 2.437 1_545 S
C194 Pr192 2.880 . S
C194 C195 1.491 . S
C194 O212 1.254 . S
C194 O213 1.225 . S
C195 C194 1.491 . S
C195 C196 1.392 . S
C195 C200 1.356 . S
C196 C195 1.392 . S
C196 C197 1.368 . S
C196 H224 0.929 . S
C197 C196 1.368 . S
C197 C198 1.386 . S
C197 H225 0.929 . S
C198 C197 1.386 . S
C198 C199 1.373 . S
C199 C198 1.373 . S
C199 C200 1.409 . S
C199 H226 0.931 . S
C200 C195 1.356 . S
C200 C199 1.409 . S
C200 H227 0.930 . S
C201 O214 1.270 . S
C201 O215 1.248 . S
C202 O216 1.267 . S
C202 O217 1.278 . S
C203 Pr193 2.880 1_565 S
C203 C204 1.491 . S
C203 O218 1.254 1_565 S
C203 O219 1.225 . S
C204 C203 1.491 . S
C204 C205 1.392 . S
C204 C209 1.356 . S
C205 C204 1.392 . S
C205 C206 1.368 . S
C205 H228 0.929 . S
C206 C205 1.368 . S
C206 C207 1.386 1_554 S
C206 H229 0.929 . S
C207 C206 1.386 1_556 S
C207 C208 1.373 . S
C208 C207 1.373 . S
C208 C209 1.409 1_556 S
C208 H230 0.931 . S
C209 C204 1.356 . S
C209 C208 1.409 1_554 S
C209 H231 0.930 1_554 S
C210 O220 1.270 1_565 S
C210 O221 1.248 . S
C211 O222 1.267 1_565 S
C211 O223 1.278 . S
O212 Pr192 2.562 . S
O212 C194 1.254 . S
O213 Pr192 2.490 . S
O213 C194 1.225 . S
O214 Pr192 2.695 . S
O214 Pr193 2.436 . S
O214 C201 1.270 . S
O215 Pr192 2.512 . S
O215 C201 1.248 . S
O216 Pr193 2.438 . S
O216 C202 1.267 . S
O217 Pr192 2.437 . S
O217 C202 1.278 . S
O218 Pr193 2.562 . S
O218 C203 1.254 1_545 S
O219 Pr193 2.490 1_565 S
O219 C203 1.225 . S
O220 Pr192 2.436 . S
O220 Pr193 2.695 . S
O220 C210 1.270 1_545 S
O221 Pr193 2.512 1_565 S
O221 C210 1.248 . S
O222 Pr192 2.438 . S
O222 C211 1.267 1_545 S
O223 Pr193 2.437 1_565 S
O223 C211 1.278 . S
H224 C196 0.929 . S
H225 C197 0.929 . S
H226 C199 0.931 . S
H227 C200 0.930 . S
H228 C205 0.929 . S
H229 C206 0.929 . S
H230 C208 0.931 . S
H231 C209 0.930 1_556 S
Pr232 C234 2.880 . S
Pr232 O252 2.562 . S
Pr232 O253 2.490 . S
Pr232 O254 2.695 . S
Pr232 O255 2.512 . S
Pr232 O257 2.437 . S
Pr232 O260 2.436 . S
Pr232 O262 2.438 . S
Pr233 C243 2.880 . S
Pr233 O254 2.436 . S
Pr233 O256 2.438 . S
Pr233 O258 2.562 . S
Pr233 O259 2.490 . S
Pr233 O260 2.695 . S
Pr233 O261 2.512 . S
Pr233 O263 2.437 . S
C234 Pr232 2.880 . S
C234 C235 1.491 . S
C234 O252 1.254 . S
C234 O253 1.225 . S
C235 C234 1.491 . S
C235 C236 1.392 . S
C235 C240 1.356 . S
C236 C235 1.392 . S
C236 C237 1.368 . S
C236 H264 0.929 . S
C237 C236 1.368 . S
C237 C238 1.386 . S
C237 H265 0.929 . S
C238 C237 1.386 . S
C238 C239 1.373 . S
C239 C238 1.373 . S
C239 C240 1.409 . S
C239 H266 0.931 . S
C240 C235 1.356 . S
C240 C239 1.409 . S
C240 H267 0.930 . S
C241 O254 1.270 . S
C241 O255 1.248 . S
C242 O256 1.267 . S
C242 O257 1.278 . S
C243 Pr233 2.880 . S
C243 C244 1.491 . S
C243 O258 1.254 . S
C243 O259 1.225 . S
C244 C243 1.491 . S
C244 C245 1.392 . S
C244 C249 1.356 . S
C245 C244 1.392 . S
C245 C246 1.368 . S
C245 H268 0.929 . S
C246 C245 1.368 . S
C246 C247 1.386 . S
C246 H269 0.929 . S
C247 C246 1.386 . S
C247 C248 1.373 . S
C248 C247 1.373 . S
C248 C249 1.409 . S
C248 H270 0.931 . S
C249 C244 1.356 . S
C249 C248 1.409 . S
C249 H271 0.930 . S
C250 O260 1.270 . S
C250 O261 1.248 . S
C251 O262 1.267 . S
C251 O263 1.278 . S
O252 Pr232 2.562 . S
O252 C234 1.254 . S
O253 Pr232 2.490 . S
O253 C234 1.225 . S
O254 Pr232 2.695 . S
O254 Pr233 2.436 . S
O254 C241 1.270 . S
O255 Pr232 2.512 . S
O255 C241 1.248 . S
O256 Pr233 2.438 . S
O256 C242 1.267 . S
O257 Pr232 2.437 . S
O257 C242 1.278 . S
O258 Pr233 2.562 . S
O258 C243 1.254 . S
O259 Pr233 2.490 . S
O259 C243 1.225 . S
O260 Pr232 2.436 . S
O260 Pr233 2.695 . S
O260 C250 1.270 . S
O261 Pr233 2.512 . S
O261 C250 1.248 . S
O262 Pr232 2.438 . S
O262 C251 1.267 . S
O263 Pr233 2.437 . S
O263 C251 1.278 . S
H264 C236 0.929 . S
H265 C237 0.929 . S
H266 C239 0.931 . S
H267 C240 0.930 . S
H268 C245 0.929 . S
H269 C246 0.929 . S
H270 C248 0.931 . S
H271 C249 0.930 . S
Pr272 C274 2.880 . S
Pr272 O292 2.562 1_455 S
Pr272 O293 2.490 . S
Pr272 O294 2.695 1_556 S
Pr272 O295 2.512 1_556 S
Pr272 O297 2.437 1_556 S
Pr272 O300 2.436 . S
Pr272 O302 2.438 . S
Pr273 C283 2.880 . S
Pr273 O294 2.436 . S
Pr273 O296 2.438 . S
Pr273 O298 2.562 . S
Pr273 O299 2.490 . S
Pr273 O300 2.695 1_554 S
Pr273 O301 2.512 1_455 S
Pr273 O303 2.437 1_554 S
C274 Pr272 2.880 . S
C274 C275 1.491 1_455 S
C274 O292 1.254 1_455 S
C274 O293 1.225 . S
C275 C274 1.491 1_655 S
C275 C276 1.392 1_655 S
C275 C280 1.356 . S
C276 C275 1.392 1_455 S
C276 C277 1.368 1_455 S
C276 H304 0.929 . S
C277 C276 1.368 1_655 S
C277 C278 1.386 . S
C277 H305 0.929 1_655 S
C278 C277 1.386 . S
C278 C279 1.373 . S
C279 C278 1.373 . S
C279 C280 1.409 . S
C279 H306 0.931 . S
C280 C275 1.356 . S
C280 C279 1.409 . S
C280 H307 0.930 . S
C281 O294 1.270 . S
C281 O295 1.248 . S
C282 O296 1.268 1_655 S
C282 O297 1.278 1_655 S
C283 Pr273 2.880 . S
C283 C284 1.491 . S
C283 O298 1.254 . S
C283 O299 1.225 . S
C284 C283 1.491 . S
C284 C285 1.392 . S
C284 C289 1.356 . S
C285 C284 1.392 . S
C285 C286 1.368 . S
C285 H308 0.929 . S
C286 C285 1.368 . S
C286 C287 1.386 . S
C286 H309 0.929 . S
C287 C286 1.386 . S
C287 C288 1.373 . S
C288 C287 1.373 . S
C288 C289 1.409 . S
C288 H310 0.931 . S
C289 C284 1.356 . S
C289 C288 1.409 . S
C289 H311 0.930 . S
C290 O300 1.270 1_655 S
C290 O301 1.248 1_556 S
C291 O302 1.267 . S
C291 O303 1.278 . S
O292 Pr272 2.562 1_655 S
O292 C274 1.254 1_655 S
O293 Pr272 2.490 . S
O293 C274 1.225 . S
O294 Pr272 2.695 1_554 S
O294 Pr273 2.436 . S
O294 C281 1.270 . S
O295 Pr272 2.512 1_554 S
O295 C281 1.248 . S
O296 Pr273 2.438 . S
O296 C282 1.268 1_455 S
O297 Pr272 2.437 1_554 S
O297 C282 1.278 1_455 S
O298 Pr273 2.562 . S
O298 C283 1.254 . S
O299 Pr273 2.490 . S
O299 C283 1.225 . S
O300 Pr272 2.436 . S
O300 Pr273 2.695 1_556 S
O300 C290 1.270 1_455 S
O301 Pr273 2.512 1_655 S
O301 C290 1.248 1_554 S
O302 Pr272 2.438 . S
O302 C291 1.267 . S
O303 Pr273 2.437 1_556 S
O303 C291 1.278 . S
H304 C276 0.929 . S
H305 C277 0.929 1_455 S
H306 C279 0.931 . S
H307 C280 0.930 . S
H308 C285 0.929 . S
H309 C286 0.929 . S
H310 C288 0.931 . S
H311 C289 0.930 . S
H312 C320 0.929 . S
H313 C322 0.930 . S
H314 C324 0.930 . S
H315 C327 0.929 . S
H316 C330 0.930 . S
H317 C332 0.960 . S
H318 C332 0.960 . S
H319 C332 0.960 . S
C320 H312 0.929 . S
C320 C321 1.377 . S
C320 C322 1.384 . S
C321 C320 1.377 . S
C321 C327 1.390 . S
C322 H313 0.930 . S
C322 C320 1.384 . S
C322 C323 1.372 . S
C323 C322 1.372 . S
C323 C324 1.400 . S
C323 C328 1.490 . S
C324 H314 0.930 . S
C324 C323 1.400 . S
C324 C327 1.386 . S
H325 C341 0.930 . S
H326 C342 0.931 . S
C327 H315 0.929 . S
C327 C321 1.390 . S
C327 C324 1.386 . S
C328 C323 1.490 . S
C328 C330 1.395 . S
C328 C331 1.403 . S
H329 C335 0.930 . S
C330 H316 0.930 . S
C330 C328 1.395 . S
C330 C333 1.403 . S
C331 C328 1.403 . S
C331 C332 1.524 . S
C331 C335 1.400 . S
C332 H317 0.960 . S
C332 H318 0.960 . S
C332 H319 0.960 . S
C332 C331 1.524 . S
C333 C330 1.403 . S
C333 C334 1.392 . S
C333 C337 1.495 . S
C334 C333 1.392 . S
C334 C335 1.385 . S
C334 C336 1.478 . S
C335 H329 0.930 . S
C335 C331 1.400 . S
C335 C334 1.385 . S
C336 C334 1.478 . S
C336 C338 1.381 . S
C336 C342 1.383 . S
C337 C333 1.495 . S
C337 H343 0.959 . S
C337 H344 0.961 . S
C337 H345 0.960 . S
C338 C336 1.381 . S
C338 C339 1.394 . S
C338 H346 0.930 . S
C339 C338 1.394 . S
C339 C340 1.383 . S
C339 H347 0.929 . S
C340 C339 1.383 . S
C340 C341 1.377 . S
C341 H325 0.930 . S
C341 C340 1.377 . S
C341 C342 1.379 . S
C342 H326 0.931 . S
C342 C336 1.383 . S
C342 C341 1.379 . S
H343 C337 0.959 . S
H344 C337 0.961 . S
H345 C337 0.960 . S
H346 C338 0.930 . S
H347 C339 0.929 . S
H348 C356 0.929 . S
H349 C358 0.930 . S
H350 C360 0.930 . S
H351 C363 0.929 . S
H352 C366 0.930 . S
H353 C368 0.960 . S
H354 C368 0.960 . S
H355 C368 0.960 . S
C356 H348 0.929 . S
C356 C357 1.377 . S
C356 C358 1.384 . S
C357 C356 1.377 . S
C357 C363 1.390 . S
C358 H349 0.930 . S
C358 C356 1.384 . S
C358 C359 1.372 . S
C359 C358 1.372 . S
C359 C360 1.400 . S
C359 C364 1.490 . S
C360 H350 0.930 . S
C360 C359 1.400 . S
C360 C363 1.386 . S
H361 C377 0.930 . S
H362 C378 0.931 . S
C363 H351 0.929 . S
C363 C357 1.390 . S
C363 C360 1.386 . S
C364 C359 1.490 . S
C364 C366 1.395 . S
C364 C367 1.403 . S
H365 C371 0.930 . S
C366 H352 0.930 . S
C366 C364 1.395 . S
C366 C369 1.403 . S
C367 C364 1.403 . S
C367 C368 1.524 . S
C367 C371 1.400 . S
C368 H353 0.960 . S
C368 H354 0.960 . S
C368 H355 0.960 . S
C368 C367 1.524 . S
C369 C366 1.403 . S
C369 C370 1.392 . S
C369 C373 1.495 . S
C370 C369 1.392 . S
C370 C371 1.385 . S
C370 C372 1.478 . S
C371 H365 0.930 . S
C371 C367 1.400 . S
C371 C370 1.385 . S
C372 C370 1.478 . S
C372 C374 1.381 . S
C372 C378 1.383 . S
C373 C369 1.495 . S
C373 H379 0.959 . S
C373 H380 0.961 . S
C373 H381 0.960 . S
C374 C372 1.381 . S
C374 C375 1.394 . S
C374 H382 0.930 . S
C375 C374 1.394 . S
C375 C376 1.383 1_556 S
C375 H383 0.929 1_556 S
C376 C375 1.383 1_554 S
C376 C377 1.377 1_554 S
C377 H361 0.930 . S
C377 C376 1.377 1_556 S
C377 C378 1.379 . S
C378 H362 0.931 . S
C378 C372 1.383 . S
C378 C377 1.379 . S
H379 C373 0.959 . S
H380 C373 0.961 . S
H381 C373 0.960 . S
H382 C374 0.930 . S
H383 C375 0.929 1_554 S
H384 C392 0.929 . S
H385 C394 0.930 . S
H386 C396 0.930 . S
H387 C399 0.929 . S
H388 C402 0.930 . S
H389 C404 0.960 . S
H390 C404 0.960 . S
H391 C404 0.960 . S
C392 H384 0.929 . S
C392 C393 1.377 . S
C392 C394 1.384 . S
C393 C392 1.377 . S
C393 C399 1.390 . S
C394 H385 0.930 . S
C394 C392 1.384 . S
C394 C395 1.372 . S
C395 C394 1.372 . S
C395 C396 1.400 . S
C395 C400 1.490 . S
C396 H386 0.930 . S
C396 C395 1.400 . S
C396 C399 1.386 . S
H397 C413 0.930 . S
H398 C414 0.931 . S
C399 H387 0.929 . S
C399 C393 1.390 . S
C399 C396 1.386 . S
C400 C395 1.490 . S
C400 C402 1.395 . S
C400 C403 1.403 . S
H401 C407 0.930 . S
C402 H388 0.930 . S
C402 C400 1.395 . S
C402 C405 1.403 . S
C403 C400 1.403 . S
C403 C404 1.524 . S
C403 C407 1.400 . S
C404 H389 0.960 . S
C404 H390 0.960 . S
C404 H391 0.960 . S
C404 C403 1.524 . S
C405 C402 1.403 . S
C405 C406 1.392 . S
C405 C409 1.495 . S
C406 C405 1.392 . S
C406 C407 1.385 . S
C406 C408 1.478 . S
C407 H401 0.930 . S
C407 C403 1.400 . S
C407 C406 1.385 . S
C408 C406 1.478 . S
C408 C410 1.381 . S
C408 C414 1.383 . S
C409 C405 1.495 . S
C409 H415 0.959 . S
C409 H416 0.961 . S
C409 H417 0.960 . S
C410 C408 1.381 . S
C410 C411 1.394 . S
C410 H418 0.930 . S
C411 C410 1.394 . S
C411 C412 1.383 . S
C411 H419 0.929 . S
C412 C411 1.383 . S
C412 C413 1.377 . S
C413 H397 0.930 . S
C413 C412 1.377 . S
C413 C414 1.379 . S
C414 H398 0.931 . S
C414 C408 1.383 . S
C414 C413 1.379 . S
H415 C409 0.959 . S
H416 C409 0.961 . S
H417 C409 0.960 . S
H418 C410 0.930 . S
H419 C411 0.929 . S
H420 C428 0.929 . S
H421 C430 0.930 . S
H422 C432 0.930 . S
H423 C435 0.929 . S
H424 C438 0.930 . S
H425 C440 0.960 . S
H426 C440 0.960 . S
H427 C440 0.960 . S
C428 H420 0.929 . S
C428 C429 1.377 . S
C428 C430 1.384 . S
C429 C428 1.377 . S
C429 C435 1.390 . S
C430 H421 0.930 . S
C430 C428 1.384 . S
C430 C431 1.372 . S
C431 C430 1.372 . S
C431 C432 1.400 . S
C431 C436 1.490 . S
C432 H422 0.930 . S
C432 C431 1.400 . S
C432 C435 1.386 . S
H433 C449 0.930 . S
H434 C450 0.931 . S
C435 H423 0.929 . S
C435 C429 1.390 . S
C435 C432 1.386 . S
C436 C431 1.490 . S
C436 C438 1.395 . S
C436 C439 1.403 . S
H437 C443 0.930 . S
C438 H424 0.930 . S
C438 C436 1.395 . S
C438 C441 1.403 . S
C439 C436 1.403 . S
C439 C440 1.524 . S
C439 C443 1.400 . S
C440 H425 0.960 . S
C440 H426 0.960 . S
C440 H427 0.960 . S
C440 C439 1.524 . S
C441 C438 1.403 . S
C441 C442 1.392 . S
C441 C445 1.495 . S
C442 C441 1.392 . S
C442 C443 1.385 . S
C442 C444 1.478 . S
C443 H437 0.930 . S
C443 C439 1.400 . S
C443 C442 1.385 . S
C444 C442 1.478 . S
C444 C446 1.381 . S
C444 C450 1.383 . S
C445 C441 1.495 . S
C445 H451 0.959 . S
C445 H452 0.961 . S
C445 H453 0.960 . S
C446 C444 1.381 . S
C446 C447 1.394 . S
C446 H454 0.930 . S
C447 C446 1.394 . S
C447 C448 1.383 . S
C447 H455 0.929 . S
C448 C447 1.383 . S
C448 C449 1.377 . S
C449 H433 0.930 . S
C449 C448 1.377 . S
C449 C450 1.379 . S
C450 H434 0.931 . S
C450 C444 1.383 . S
C450 C449 1.379 . S
H451 C445 0.959 . S
H452 C445 0.961 . S
H453 C445 0.960 . S
H454 C446 0.930 . S
H455 C447 0.929 . S
H456 C464 0.929 . S
H457 C466 0.930 . S
H458 C468 0.930 . S
H459 C471 0.929 . S
H460 C474 0.930 . S
H461 C476 0.960 . S
H462 C476 0.960 . S
H463 C476 0.960 . S
C464 H456 0.929 . S
C464 C465 1.377 . S
C464 C466 1.384 . S
C465 C464 1.377 . S
C465 C471 1.390 . S
C466 H457 0.930 . S
C466 C464 1.384 . S
C466 C467 1.372 . S
C467 C466 1.372 . S
C467 C468 1.400 . S
C467 C472 1.490 . S
C468 H458 0.930 . S
C468 C467 1.400 . S
C468 C471 1.386 . S
H469 C485 0.930 . S
H470 C486 0.931 . S
C471 H459 0.929 . S
C471 C465 1.390 . S
C471 C468 1.386 . S
C472 C467 1.490 . S
C472 C474 1.395 . S
C472 C475 1.403 . S
H473 C479 0.930 . S
C474 H460 0.930 . S
C474 C472 1.395 . S
C474 C477 1.403 . S
C475 C472 1.403 . S
C475 C476 1.524 . S
C475 C479 1.400 . S
C476 H461 0.960 . S
C476 H462 0.960 . S
C476 H463 0.960 . S
C476 C475 1.524 . S
C477 C474 1.403 . S
C477 C478 1.392 . S
C477 C481 1.495 . S
C478 C477 1.392 . S
C478 C479 1.385 . S
C478 C480 1.478 . S
C479 H473 0.930 . S
C479 C475 1.400 . S
C479 C478 1.385 . S
C480 C478 1.478 . S
C480 C482 1.381 . S
C480 C486 1.383 . S
C481 C477 1.495 . S
C481 H487 0.959 . S
C481 H488 0.961 . S
C481 H489 0.960 . S
C482 C480 1.381 . S
C482 C483 1.394 . S
C482 H490 0.930 . S
C483 C482 1.394 . S
C483 C484 1.383 . S
C483 H491 0.929 . S
C484 C483 1.383 . S
C484 C485 1.377 . S
C485 H469 0.930 . S
C485 C484 1.377 . S
C485 C486 1.379 . S
C486 H470 0.931 . S
C486 C480 1.383 . S
C486 C485 1.379 . S
H487 C481 0.959 . S
H488 C481 0.961 . S
H489 C481 0.960 . S
H490 C482 0.930 . S
H491 C483 0.929 . S
H492 C500 0.929 . S
H493 C502 0.930 . S
H494 C504 0.930 . S
H495 C507 0.929 . S
H496 C510 0.930 . S
H497 C512 0.960 . S
H498 C512 0.960 . S
H499 C512 0.960 . S
C500 H492 0.929 . S
C500 C501 1.377 . S
C500 C502 1.384 . S
C501 C500 1.377 . S
C501 C507 1.390 . S
C502 H493 0.930 . S
C502 C500 1.384 . S
C502 C503 1.372 . S
C503 C502 1.372 . S
C503 C504 1.400 . S
C503 C508 1.490 . S
C504 H494 0.930 . S
C504 C503 1.400 . S
C504 C507 1.386 . S
H505 C521 0.930 1_545 S
H506 C522 0.931 . S
C507 H495 0.929 . S
C507 C501 1.390 . S
C507 C504 1.386 . S
C508 C503 1.490 . S
C508 C510 1.395 . S
C508 C511 1.403 . S
H509 C515 0.930 . S
C510 H496 0.930 . S
C510 C508 1.395 . S
C510 C513 1.403 . S
C511 C508 1.403 . S
C511 C512 1.524 . S
C511 C515 1.400 . S
C512 H497 0.960 . S
C512 H498 0.960 . S
C512 H499 0.960 . S
C512 C511 1.524 . S
C513 C510 1.403 . S
C513 C514 1.392 . S
C513 C517 1.495 . S
C514 C513 1.392 . S
C514 C515 1.385 . S
C514 C516 1.478 . S
C515 H509 0.930 . S
C515 C511 1.400 . S
C515 C514 1.385 . S
C516 C514 1.478 . S
C516 C518 1.381 . S
C516 C522 1.383 . S
C517 C513 1.495 . S
C517 H523 0.959 . S
C517 H524 0.961 . S
C517 H525 0.960 . S
C518 C516 1.381 . S
C518 C519 1.394 . S
C518 H526 0.930 . S
C519 C518 1.394 . S
C519 C520 1.383 . S
C519 H527 0.929 1_455 S
C520 C519 1.383 . S
C520 C521 1.377 . S
C521 H505 0.930 1_565 S
C521 C520 1.377 . S
C521 C522 1.379 . S
C522 H506 0.931 . S
C522 C516 1.383 . S
C522 C521 1.379 . S
H523 C517 0.959 . S
H524 C517 0.961 . S
H525 C517 0.960 . S
H526 C518 0.930 . S
H527 C519 0.929 1_655 S
H528 C536 0.929 . S
H529 C538 0.930 . S
H530 C540 0.930 . S
H531 C543 0.929 . S
H532 C546 0.930 . S
H533 C548 0.960 . S
H534 C548 0.960 . S
H535 C548 0.960 . S
C536 H528 0.929 . S
C536 C537 1.377 . S
C536 C538 1.384 . S
C537 C536 1.377 . S
C537 C543 1.390 . S
C538 H529 0.930 . S
C538 C536 1.384 . S
C538 C539 1.372 . S
C539 C538 1.372 . S
C539 C540 1.400 . S
C539 C544 1.490 . S
C540 H530 0.930 . S
C540 C539 1.400 . S
C540 C543 1.386 . S
H541 C557 0.930 . S
H542 C558 0.931 . S
C543 H531 0.929 . S
C543 C537 1.390 . S
C543 C540 1.386 . S
C544 C539 1.490 . S
C544 C546 1.395 . S
C544 C547 1.403 . S
H545 C551 0.930 . S
C546 H532 0.930 . S
C546 C544 1.395 . S
C546 C549 1.403 . S
C547 C544 1.403 . S
C547 C548 1.524 . S
C547 C551 1.400 . S
C548 H533 0.960 . S
C548 H534 0.960 . S
C548 H535 0.960 . S
C548 C547 1.524 . S
C549 C546 1.403 . S
C549 C550 1.392 . S
C549 C553 1.495 . S
C550 C549 1.392 . S
C550 C551 1.385 . S
C550 C552 1.478 . S
C551 H545 0.930 . S
C551 C547 1.400 . S
C551 C550 1.385 . S
C552 C550 1.478 . S
C552 C554 1.381 . S
C552 C558 1.383 . S
C553 C549 1.495 . S
C553 H559 0.959 . S
C553 H560 0.961 . S
C553 H561 0.960 . S
C554 C552 1.381 . S
C554 C555 1.394 . S
C554 H562 0.930 . S
C555 C554 1.394 . S
C555 C556 1.383 . S
C555 H563 0.929 . S
C556 C555 1.383 . S
C556 C557 1.377 . S
C557 H541 0.930 . S
C557 C556 1.377 . S
C557 C558 1.379 . S
C558 H542 0.931 . S
C558 C552 1.383 . S
C558 C557 1.379 . S
H559 C553 0.959 . S
H560 C553 0.961 . S
H561 C553 0.960 . S
H562 C554 0.930 . S
H563 C555 0.929 . S
H564 C572 0.929 . S
H565 C574 0.930 . S
H566 C576 0.930 . S
H567 C579 0.929 . S
H568 C582 0.930 . S
H569 C584 0.960 . S
H570 C584 0.960 . S
H571 C584 0.960 . S
C572 H564 0.929 . S
C572 C573 1.377 . S
C572 C574 1.384 . S
C573 C572 1.377 . S
C573 C579 1.390 . S
C574 H565 0.930 . S
C574 C572 1.384 . S
C574 C575 1.372 . S
C575 C574 1.372 . S
C575 C576 1.400 . S
C575 C580 1.490 . S
C576 H566 0.930 . S
C576 C575 1.400 . S
C576 C579 1.386 . S
H577 C593 0.930 . S
H578 C594 0.931 . S
C579 H567 0.929 . S
C579 C573 1.390 . S
C579 C576 1.386 . S
C580 C575 1.490 . S
C580 C582 1.395 . S
C580 C583 1.403 . S
H581 C587 0.930 . S
C582 H568 0.930 . S
C582 C580 1.395 . S
C582 C585 1.403 . S
C583 C580 1.403 . S
C583 C584 1.524 . S
C583 C587 1.400 . S
C584 H569 0.960 . S
C584 H570 0.960 . S
C584 H571 0.960 . S
C584 C583 1.524 . S
C585 C582 1.403 . S
C585 C586 1.392 . S
C585 C589 1.495 . S
C586 C585 1.392 . S
C586 C587 1.385 . S
C586 C588 1.478 . S
C587 H581 0.930 . S
C587 C583 1.400 . S
C587 C586 1.385 . S
C588 C586 1.478 . S
C588 C590 1.381 . S
C588 C594 1.383 . S
C589 C585 1.495 . S
C589 H595 0.959 . S
C589 H596 0.961 . S
C589 H597 0.960 . S
C590 C588 1.381 . S
C590 C591 1.394 . S
C590 H598 0.930 . S
C591 C590 1.394 . S
C591 C592 1.383 . S
C591 H599 0.929 . S
C592 C591 1.383 . S
C592 C593 1.377 . S
C593 H577 0.930 . S
C593 C592 1.377 . S
C593 C594 1.379 . S
C594 H578 0.931 . S
C594 C588 1.383 . S
C594 C593 1.379 . S
H595 C589 0.959 . S
H596 C589 0.961 . S
H597 C589 0.960 . S
H598 C590 0.930 . S
H599 C591 0.929 . S
H600 C608 0.929 . S
H601 C610 0.930 . S
H602 C612 0.930 . S
H603 C615 0.929 . S
H604 C618 0.930 . S
H605 C620 0.960 . S
H606 C620 0.960 . S
H607 C620 0.960 . S
C608 H600 0.929 . S
C608 C609 1.377 . S
C608 C610 1.384 . S
C609 C608 1.377 . S
C609 C615 1.390 . S
C610 H601 0.930 . S
C610 C608 1.384 . S
C610 C611 1.372 . S
C611 C610 1.372 . S
C611 C612 1.400 . S
C611 C616 1.490 . S
C612 H602 0.930 . S
C612 C611 1.400 . S
C612 C615 1.386 . S
H613 C629 0.930 . S
H614 C630 0.931 . S
C615 H603 0.929 . S
C615 C609 1.390 . S
C615 C612 1.386 . S
C616 C611 1.490 . S
C616 C618 1.395 . S
C616 C619 1.403 . S
H617 C623 0.930 . S
C618 H604 0.930 . S
C618 C616 1.395 . S
C618 C621 1.403 . S
C619 C616 1.403 . S
C619 C620 1.524 . S
C619 C623 1.400 . S
C620 H605 0.960 . S
C620 H606 0.960 . S
C620 H607 0.960 . S
C620 C619 1.524 . S
C621 C618 1.403 . S
C621 C622 1.392 . S
C621 C625 1.495 . S
C622 C621 1.392 . S
C622 C623 1.385 . S
C622 C624 1.478 . S
C623 H617 0.930 . S
C623 C619 1.400 . S
C623 C622 1.385 . S
C624 C622 1.478 . S
C624 C626 1.381 . S
C624 C630 1.383 . S
C625 C621 1.495 . S
C625 H631 0.959 . S
C625 H632 0.961 . S
C625 H633 0.960 . S
C626 C624 1.381 . S
C626 C627 1.394 . S
C626 H634 0.930 . S
C627 C626 1.394 . S
C627 C628 1.383 . S
C627 H635 0.929 . S
C628 C627 1.383 . S
C628 C629 1.377 . S
C629 H613 0.930 . S
C629 C628 1.377 . S
C629 C630 1.379 . S
C630 H614 0.931 . S
C630 C624 1.383 . S
C630 C629 1.379 . S
H631 C625 0.959 . S
H632 C625 0.961 . S
H633 C625 0.960 . S
H634 C626 0.930 . S
H635 C627 0.929 . S
H636 C644 0.929 . S
H637 C646 0.930 . S
H638 C648 0.930 . S
H639 C651 0.929 . S
H640 C654 0.930 . S
H641 C656 0.960 . S
H642 C656 0.960 . S
H643 C656 0.960 . S
C644 H636 0.929 . S
C644 C645 1.377 . S
C644 C646 1.384 . S
C645 C644 1.377 . S
C645 C651 1.390 . S
C646 H637 0.930 . S
C646 C644 1.384 . S
C646 C647 1.372 . S
C647 C646 1.372 . S
C647 C648 1.400 . S
C647 C652 1.490 . S
C648 H638 0.930 . S
C648 C647 1.400 . S
C648 C651 1.386 . S
H649 C665 0.930 . S
H650 C666 0.931 . S
C651 H639 0.929 . S
C651 C645 1.390 . S
C651 C648 1.386 . S
C652 C647 1.490 . S
C652 C654 1.395 . S
C652 C655 1.403 . S
H653 C659 0.930 . S
C654 H640 0.930 . S
C654 C652 1.395 . S
C654 C657 1.403 . S
C655 C652 1.403 . S
C655 C656 1.524 . S
C655 C659 1.400 . S
C656 H641 0.960 . S
C656 H642 0.960 . S
C656 H643 0.960 . S
C656 C655 1.524 . S
C657 C654 1.403 . S
C657 C658 1.392 . S
C657 C661 1.495 . S
C658 C657 1.392 . S
C658 C659 1.385 . S
C658 C660 1.478 . S
C659 H653 0.930 . S
C659 C655 1.400 . S
C659 C658 1.385 . S
C660 C658 1.478 . S
C660 C662 1.381 . S
C660 C666 1.383 1_556 S
C661 C657 1.495 . S
C661 H667 0.959 . S
C661 H668 0.961 . S
C661 H669 0.960 . S
C662 C660 1.381 . S
C662 C663 1.394 . S
C662 H670 0.930 . S
C663 C662 1.394 . S
C663 C664 1.383 1_556 S
C663 H671 0.929 . S
C664 C663 1.383 1_554 S
C664 C665 1.377 . S
C665 H649 0.930 . S
C665 C664 1.377 . S
C665 C666 1.379 . S
C666 H650 0.931 . S
C666 C660 1.383 1_554 S
C666 C665 1.379 . S
H667 C661 0.959 . S
H668 C661 0.961 . S
H669 C661 0.960 . S
H670 C662 0.930 . S
H671 C663 0.929 . S
H672 C680 0.929 . S
H673 C682 0.930 . S
H674 C684 0.930 . S
H675 C687 0.929 . S
H676 C690 0.930 . S
H677 C692 0.960 . S
H678 C692 0.960 . S
H679 C692 0.960 . S
C680 H672 0.929 . S
C680 C681 1.377 . S
C680 C682 1.384 . S
C681 C680 1.377 . S
C681 C687 1.390 . S
C682 H673 0.930 . S
C682 C680 1.384 . S
C682 C683 1.372 . S
C683 C682 1.372 . S
C683 C684 1.400 . S
C683 C688 1.490 . S
C684 H674 0.930 . S
C684 C683 1.400 . S
C684 C687 1.386 . S
H685 C701 0.930 . S
H686 C702 0.931 . S
C687 H675 0.929 . S
C687 C681 1.390 . S
C687 C684 1.386 . S
C688 C683 1.490 . S
C688 C690 1.395 . S
C688 C691 1.403 . S
H689 C695 0.930 . S
C690 H676 0.930 . S
C690 C688 1.395 . S
C690 C693 1.403 . S
C691 C688 1.403 . S
C691 C692 1.524 . S
C691 C695 1.400 . S
C692 H677 0.960 . S
C692 H678 0.960 . S
C692 H679 0.960 . S
C692 C691 1.524 . S
C693 C690 1.403 . S
C693 C694 1.392 . S
C693 C697 1.495 . S
C694 C693 1.392 . S
C694 C695 1.385 . S
C694 C696 1.478 . S
C695 H689 0.930 . S
C695 C691 1.400 . S
C695 C694 1.385 . S
C696 C694 1.478 . S
C696 C698 1.381 . S
C696 C702 1.383 . S
C697 C693 1.495 . S
C697 H703 0.959 . S
C697 H704 0.961 . S
C697 H705 0.960 . S
C698 C696 1.381 . S
C698 C699 1.394 . S
C698 H706 0.930 . S
C699 C698 1.394 . S
C699 C700 1.383 . S
C699 H707 0.929 . S
C700 C699 1.383 . S
C700 C701 1.377 . S
C701 H685 0.930 . S
C701 C700 1.377 . S
C701 C702 1.379 . S
C702 H686 0.931 . S
C702 C696 1.383 . S
C702 C701 1.379 . S
H703 C697 0.959 . S
H704 C697 0.961 . S
H705 C697 0.960 . S
H706 C698 0.930 . S
H707 C699 0.929 . S
H708 C716 0.929 . S
H709 C718 0.930 . S
H710 C720 0.930 . S
H711 C723 0.929 . S
H712 C726 0.930 . S
H713 C728 0.960 . S
H714 C728 0.960 . S
H715 C728 0.960 . S
C716 H708 0.929 . S
C716 C717 1.377 . S
C716 C718 1.384 . S
C717 C716 1.377 . S
C717 C723 1.390 . S
C718 H709 0.930 . S
C718 C716 1.384 . S
C718 C719 1.372 . S
C719 C718 1.372 . S
C719 C720 1.400 . S
C719 C724 1.490 . S
C720 H710 0.930 . S
C720 C719 1.400 . S
C720 C723 1.386 . S
H721 C737 0.930 . S
H722 C738 0.931 . S
C723 H711 0.929 . S
C723 C717 1.390 . S
C723 C720 1.386 . S
C724 C719 1.490 . S
C724 C726 1.395 . S
C724 C727 1.403 . S
H725 C731 0.930 . S
C726 H712 0.930 . S
C726 C724 1.395 . S
C726 C729 1.403 . S
C727 C724 1.403 . S
C727 C728 1.524 . S
C727 C731 1.400 . S
C728 H713 0.960 . S
C728 H714 0.960 . S
C728 H715 0.960 . S
C728 C727 1.524 . S
C729 C726 1.403 . S
C729 C730 1.392 . S
C729 C733 1.495 . S
C730 C729 1.392 . S
C730 C731 1.385 . S
C730 C732 1.478 . S
C731 H725 0.930 . S
C731 C727 1.400 . S
C731 C730 1.385 . S
C732 C730 1.478 . S
C732 C734 1.381 . S
C732 C738 1.383 . S
C733 C729 1.495 . S
C733 H739 0.959 . S
C733 H740 0.961 . S
C733 H741 0.960 . S
C734 C732 1.381 . S
C734 C735 1.394 . S
C734 H742 0.930 . S
C735 C734 1.394 . S
C735 C736 1.383 . S
C735 H743 0.929 . S
C736 C735 1.383 . S
C736 C737 1.377 . S
C737 H721 0.930 . S
C737 C736 1.377 . S
C737 C738 1.379 . S
C738 H722 0.931 . S
C738 C732 1.383 . S
C738 C737 1.379 . S
H739 C733 0.959 . S
H740 C733 0.961 . S
H741 C733 0.960 . S
H742 C734 0.930 . S
H743 C735 0.929 . S
H744 C752 0.929 . S
H745 C754 0.930 . S
H746 C756 0.930 . S
H747 C759 0.929 . S
H748 C762 0.930 . S
H749 C764 0.960 . S
H750 C764 0.960 . S
H751 C764 0.960 . S
C752 H744 0.929 . S
C752 C753 1.377 . S
C752 C754 1.384 . S
C753 C752 1.377 . S
C753 C759 1.390 . S
C754 H745 0.930 . S
C754 C752 1.384 . S
C754 C755 1.372 . S
C755 C754 1.372 . S
C755 C756 1.400 . S
C755 C760 1.490 . S
C756 H746 0.930 . S
C756 C755 1.400 . S
C756 C759 1.386 . S
H757 C773 0.930 . S
H758 C774 0.931 . S
C759 H747 0.929 . S
C759 C753 1.390 . S
C759 C756 1.386 . S
C760 C755 1.490 . S
C760 C762 1.395 . S
C760 C763 1.403 . S
H761 C767 0.930 . S
C762 H748 0.930 . S
C762 C760 1.395 . S
C762 C765 1.403 . S
C763 C760 1.403 . S
C763 C764 1.524 . S
C763 C767 1.400 . S
C764 H749 0.960 . S
C764 H750 0.960 . S
C764 H751 0.960 . S
C764 C763 1.524 . S
C765 C762 1.403 . S
C765 C766 1.392 . S
C765 C769 1.495 . S
C766 C765 1.392 . S
C766 C767 1.385 . S
C766 C768 1.478 . S
C767 H761 0.930 . S
C767 C763 1.400 . S
C767 C766 1.385 . S
C768 C766 1.478 . S
C768 C770 1.381 . S
C768 C774 1.383 . S
C769 C765 1.495 . S
C769 H775 0.959 . S
C769 H776 0.961 . S
C769 H777 0.960 . S
C770 C768 1.381 . S
C770 C771 1.394 . S
C770 H778 0.930 . S
C771 C770 1.394 . S
C771 C772 1.383 . S
C771 H779 0.929 . S
C772 C771 1.383 . S
C772 C773 1.377 . S
C773 H757 0.930 . S
C773 C772 1.377 . S
C773 C774 1.379 . S
C774 H758 0.931 . S
C774 C768 1.383 . S
C774 C773 1.379 . S
H775 C769 0.959 . S
H776 C769 0.961 . S
H777 C769 0.960 . S
H778 C770 0.930 . S
H779 C771 0.929 . S
H780 C788 0.929 . S
H781 C790 0.930 . S
H782 C792 0.930 . S
H783 C795 0.929 . S
H784 C798 0.930 . S
H785 C800 0.960 . S
H786 C800 0.960 . S
H787 C800 0.960 . S
C788 H780 0.929 . S
C788 C789 1.377 . S
C788 C790 1.384 . S
C789 C788 1.377 . S
C789 C795 1.390 . S
C790 H781 0.930 . S
C790 C788 1.384 . S
C790 C791 1.372 . S
C791 C790 1.372 . S
C791 C792 1.400 . S
C791 C796 1.490 . S
C792 H782 0.930 . S
C792 C791 1.400 . S
C792 C795 1.386 . S
H793 C809 0.930 . S
H794 C810 0.931 . S
C795 H783 0.929 . S
C795 C789 1.390 . S
C795 C792 1.386 . S
C796 C791 1.490 . S
C796 C798 1.395 . S
C796 C799 1.403 . S
H797 C803 0.930 . S
C798 H784 0.930 . S
C798 C796 1.395 . S
C798 C801 1.403 . S
C799 C796 1.403 . S
C799 C800 1.524 . S
C799 C803 1.400 . S
C800 H785 0.960 . S
C800 H786 0.960 . S
C800 H787 0.960 . S
C800 C799 1.524 . S
C801 C798 1.403 . S
C801 C802 1.392 . S
C801 C805 1.495 . S
C802 C801 1.392 . S
C802 C803 1.385 . S
C802 C804 1.478 . S
C803 H797 0.930 . S
C803 C799 1.400 . S
C803 C802 1.385 . S
C804 C802 1.478 . S
C804 C806 1.381 . S
C804 C810 1.383 . S
C805 C801 1.495 . S
C805 H811 0.959 . S
C805 H812 0.961 . S
C805 H813 0.960 . S
C806 C804 1.381 . S
C806 C807 1.394 . S
C806 H814 0.930 . S
C807 C806 1.394 . S
C807 C808 1.383 . S
C807 H815 0.929 . S
C808 C807 1.383 . S
C808 C809 1.377 . S
C809 H793 0.930 . S
C809 C808 1.377 . S
C809 C810 1.379 . S
C810 H794 0.931 . S
C810 C804 1.383 . S
C810 C809 1.379 . S
H811 C805 0.959 . S
H812 C805 0.961 . S
H813 C805 0.960 . S
H814 C806 0.930 . S
H815 C807 0.929 . S
H816 C824 0.929 . S
H817 C826 0.930 . S
H818 C828 0.930 . S
H819 C831 0.929 . S
H820 C834 0.930 . S
H821 C836 0.960 . S
H822 C836 0.960 . S
H823 C836 0.960 . S
C824 H816 0.929 . S
C824 C825 1.377 . S
C824 C826 1.384 . S
C825 C824 1.377 . S
C825 C831 1.390 . S
C826 H817 0.930 . S
C826 C824 1.384 . S
C826 C827 1.372 . S
C827 C826 1.372 . S
C827 C828 1.400 . S
C827 C832 1.490 . S
C828 H818 0.930 . S
C828 C827 1.400 . S
C828 C831 1.386 . S
H829 C845 0.930 . S
H830 C846 0.931 . S
C831 H819 0.929 . S
C831 C825 1.390 . S
C831 C828 1.386 . S
C832 C827 1.490 . S
C832 C834 1.395 . S
C832 C835 1.403 . S
H833 C839 0.930 . S
C834 H820 0.930 . S
C834 C832 1.395 . S
C834 C837 1.403 . S
C835 C832 1.403 . S
C835 C836 1.524 . S
C835 C839 1.400 . S
C836 H821 0.960 . S
C836 H822 0.960 . S
C836 H823 0.960 . S
C836 C835 1.524 . S
C837 C834 1.403 . S
C837 C838 1.392 . S
C837 C841 1.495 . S
C838 C837 1.392 . S
C838 C839 1.385 . S
C838 C840 1.478 . S
C839 H833 0.930 . S
C839 C835 1.400 . S
C839 C838 1.385 . S
C840 C838 1.478 . S
C840 C842 1.381 . S
C840 C846 1.383 . S
C841 C837 1.495 . S
C841 H847 0.959 . S
C841 H848 0.961 . S
C841 H849 0.960 . S
C842 C840 1.381 . S
C842 C843 1.394 . S
C842 H850 0.930 . S
C843 C842 1.394 . S
C843 C844 1.383 . S
C843 H851 0.929 . S
C844 C843 1.383 . S
C844 C845 1.377 . S
C845 H829 0.930 . S
C845 C844 1.377 . S
C845 C846 1.379 . S
C846 H830 0.931 . S
C846 C840 1.383 . S
C846 C845 1.379 . S
H847 C841 0.959 . S
H848 C841 0.961 . S
H849 C841 0.960 . S
H850 C842 0.930 . S
H851 C843 0.929 . S
H852 C860 0.929 . S
H853 C862 0.930 . S
H854 C864 0.930 . S
H855 C867 0.929 . S
H856 C870 0.930 . S
H857 C872 0.960 . S
H858 C872 0.960 . S
H859 C872 0.960 . S
C860 H852 0.929 . S
C860 C861 1.377 . S
C860 C862 1.384 . S
C861 C860 1.377 . S
C861 C867 1.390 . S
C862 H853 0.930 . S
C862 C860 1.384 . S
C862 C863 1.372 . S
C863 C862 1.372 . S
C863 C864 1.400 . S
C863 C868 1.490 . S
C864 H854 0.930 . S
C864 C863 1.400 . S
C864 C867 1.386 . S
H865 C881 0.930 . S
H866 C882 0.931 . S
C867 H855 0.929 . S
C867 C861 1.390 . S
C867 C864 1.386 . S
C868 C863 1.490 . S
C868 C870 1.395 . S
C868 C871 1.403 . S
H869 C875 0.930 . S
C870 H856 0.930 . S
C870 C868 1.395 . S
C870 C873 1.403 . S
C871 C868 1.403 . S
C871 C872 1.524 . S
C871 C875 1.400 . S
C872 H857 0.960 . S
C872 H858 0.960 . S
C872 H859 0.960 . S
C872 C871 1.524 . S
C873 C870 1.403 . S
C873 C874 1.392 . S
C873 C877 1.495 . S
C874 C873 1.392 . S
C874 C875 1.385 . S
C874 C876 1.478 . S
C875 H869 0.930 . S
C875 C871 1.400 . S
C875 C874 1.385 . S
C876 C874 1.478 . S
C876 C878 1.381 . S
C876 C882 1.383 . S
C877 C873 1.495 . S
C877 H883 0.959 . S
C877 H884 0.961 . S
C877 H885 0.960 . S
C878 C876 1.381 . S
C878 C879 1.394 . S
C878 H886 0.930 . S
C879 C878 1.394 . S
C879 C880 1.383 . S
C879 H887 0.929 . S
C880 C879 1.383 . S
C880 C881 1.377 . S
C881 H865 0.930 . S
C881 C880 1.377 . S
C881 C882 1.379 . S
C882 H866 0.931 . S
C882 C876 1.383 . S
C882 C881 1.379 . S
H883 C877 0.959 . S
H884 C877 0.961 . S
H885 C877 0.960 . S
H886 C878 0.930 . S
H887 C879 0.929 . S
H888 C896 0.929 . S
H889 C898 0.930 . S
H890 C900 0.930 . S
H891 C903 0.929 . S
H892 C906 0.930 . S
H893 C908 0.960 . S
H894 C908 0.960 . S
H895 C908 0.960 . S
C896 H888 0.929 . S
C896 C897 1.377 . S
C896 C898 1.384 . S
C897 C896 1.377 . S
C897 C903 1.390 . S
C898 H889 0.930 . S
C898 C896 1.384 . S
C898 C899 1.372 . S
C899 C898 1.372 . S
C899 C900 1.400 . S
C899 C904 1.490 . S
C900 H890 0.930 . S
C900 C899 1.400 . S
C900 C903 1.386 . S
H901 C917 0.930 . S
H902 C918 0.931 . S
C903 H891 0.929 . S
C903 C897 1.390 . S
C903 C900 1.386 . S
C904 C899 1.490 . S
C904 C906 1.395 . S
C904 C907 1.403 . S
H905 C911 0.930 . S
C906 H892 0.930 . S
C906 C904 1.395 . S
C906 C909 1.403 . S
C907 C904 1.403 . S
C907 C908 1.524 . S
C907 C911 1.400 . S
C908 H893 0.960 . S
C908 H894 0.960 . S
C908 H895 0.960 . S
C908 C907 1.524 . S
C909 C906 1.403 . S
C909 C910 1.392 . S
C909 C913 1.495 . S
C910 C909 1.392 . S
C910 C911 1.385 . S
C910 C912 1.478 . S
C911 H905 0.930 . S
C911 C907 1.400 . S
C911 C910 1.385 . S
C912 C910 1.478 . S
C912 C914 1.381 . S
C912 C918 1.383 . S
C913 C909 1.495 . S
C913 H919 0.959 . S
C913 H920 0.961 . S
C913 H921 0.960 . S
C914 C912 1.381 . S
C914 C915 1.394 1_556 S
C914 H922 0.930 . S
C915 C914 1.394 1_554 S
C915 C916 1.383 1_554 S
C915 H923 0.930 . S
C916 C915 1.383 1_556 S
C916 C917 1.377 . S
C917 H901 0.930 . S
C917 C916 1.377 . S
C917 C918 1.379 . S
C918 H902 0.931 . S
C918 C912 1.383 . S
C918 C917 1.379 . S
H919 C913 0.959 . S
H920 C913 0.961 . S
H921 C913 0.960 . S
H922 C914 0.930 . S
H923 C915 0.930 . S
H924 C932 0.929 . S
H925 C934 0.930 . S
H926 C936 0.930 . S
H927 C939 0.929 . S
H928 C942 0.930 . S
H929 C944 0.960 . S
H930 C944 0.960 . S
H931 C944 0.960 . S
C932 H924 0.929 . S
C932 C933 1.377 . S
C932 C934 1.384 . S
C933 C932 1.377 . S
C933 C939 1.390 . S
C934 H925 0.930 . S
C934 C932 1.384 . S
C934 C935 1.372 . S
C935 C934 1.372 . S
C935 C936 1.400 . S
C935 C940 1.490 . S
C936 H926 0.930 . S
C936 C935 1.400 . S
C936 C939 1.386 . S
H937 C953 0.930 . S
H938 C954 0.931 . S
C939 H927 0.929 . S
C939 C933 1.390 . S
C939 C936 1.386 . S
C940 C935 1.490 . S
C940 C942 1.395 . S
C940 C943 1.403 . S
H941 C947 0.930 . S
C942 H928 0.930 . S
C942 C940 1.395 . S
C942 C945 1.403 . S
C943 C940 1.403 . S
C943 C944 1.524 . S
C943 C947 1.400 . S
C944 H929 0.960 . S
C944 H930 0.960 . S
C944 H931 0.960 . S
C944 C943 1.524 . S
C945 C942 1.403 . S
C945 C946 1.392 . S
C945 C949 1.495 . S
C946 C945 1.392 . S
C946 C947 1.385 . S
C946 C948 1.478 . S
C947 H941 0.930 . S
C947 C943 1.400 . S
C947 C946 1.385 . S
C948 C946 1.478 . S
C948 C950 1.381 . S
C948 C954 1.383 . S
C949 C945 1.495 . S
C949 H955 0.959 . S
C949 H956 0.961 . S
C949 H957 0.960 . S
C950 C948 1.381 . S
C950 C951 1.394 . S
C950 H958 0.930 . S
C951 C950 1.394 . S
C951 C952 1.383 . S
C951 H959 0.929 . S
C952 C951 1.383 . S
C952 C953 1.377 . S
C953 H937 0.930 . S
C953 C952 1.377 . S
C953 C954 1.379 . S
C954 H938 0.931 . S
C954 C948 1.383 . S
C954 C953 1.379 . S
H955 C949 0.959 . S
H956 C949 0.961 . S
H957 C949 0.960 . S
H958 C950 0.930 . S
H959 C951 0.929 . S
H960 C968 0.929 . S
H961 C970 0.930 . S
H962 C972 0.930 . S
H963 C975 0.929 . S
H964 C978 0.930 . S
H965 C980 0.960 . S
H966 C980 0.960 . S
H967 C980 0.960 . S
C968 H960 0.929 . S
C968 C969 1.377 . S
C968 C970 1.384 . S
C969 C968 1.377 . S
C969 C975 1.390 . S
C970 H961 0.930 . S
C970 C968 1.384 . S
C970 C971 1.372 . S
C971 C970 1.372 . S
C971 C972 1.400 . S
C971 C976 1.490 . S
C972 H962 0.930 . S
C972 C971 1.400 . S
C972 C975 1.386 . S
H973 C989 0.930 . S
H974 C990 0.931 . S
C975 H963 0.929 . S
C975 C969 1.390 . S
C975 C972 1.386 . S
C976 C971 1.490 . S
C976 C978 1.395 . S
C976 C979 1.403 . S
H977 C983 0.930 . S
C978 H964 0.930 . S
C978 C976 1.395 . S
C978 C981 1.403 . S
C979 C976 1.403 . S
C979 C980 1.524 . S
C979 C983 1.400 . S
C980 H965 0.960 . S
C980 H966 0.960 . S
C980 H967 0.960 . S
C980 C979 1.524 . S
C981 C978 1.403 . S
C981 C982 1.392 . S
C981 C985 1.495 . S
C982 C981 1.392 . S
C982 C983 1.385 . S
C982 C984 1.478 . S
C983 H977 0.930 . S
C983 C979 1.400 . S
C983 C982 1.385 . S
C984 C982 1.478 . S
C984 C986 1.381 . S
C984 C990 1.383 . S
C985 C981 1.495 . S
C985 H991 0.959 . S
C985 H992 0.961 . S
C985 H993 0.960 . S
C986 C984 1.381 . S
C986 C987 1.394 . S
C986 H994 0.930 . S
C987 C986 1.394 . S
C987 C988 1.383 . S
C987 H995 0.929 . S
C988 C987 1.383 . S
C988 C989 1.377 . S
C989 H973 0.930 . S
C989 C988 1.377 . S
C989 C990 1.379 . S
C990 H974 0.931 . S
C990 C984 1.383 . S
C990 C989 1.379 . S
H991 C985 0.959 . S
H992 C985 0.961 . S
H993 C985 0.960 . S
H994 C986 0.930 . S
H995 C987 0.929 . S
H996 C1004 0.929 . S
H997 C1006 0.930 . S
H998 C1008 0.930 . S
H999 C1011 0.929 . S
H1000 C1014 0.930 . S
H1001 C1016 0.960 . S
H1002 C1016 0.960 . S
H1003 C1016 0.960 . S
C1004 H996 0.929 . S
C1004 C1005 1.377 . S
C1004 C1006 1.384 . S
C1005 C1004 1.377 . S
C1005 C1011 1.390 . S
C1006 H997 0.930 . S
C1006 C1004 1.384 . S
C1006 C1007 1.372 . S
C1007 C1006 1.372 . S
C1007 C1008 1.400 . S
C1007 C1012 1.490 . S
C1008 H998 0.930 . S
C1008 C1007 1.400 . S
C1008 C1011 1.386 . S
H1009 C1025 0.930 . S
H1010 C1026 0.931 . S
C1011 H999 0.929 . S
C1011 C1005 1.390 . S
C1011 C1008 1.386 . S
C1012 C1007 1.490 . S
C1012 C1014 1.395 . S
C1012 C1015 1.403 . S
H1013 C1019 0.930 . S
C1014 H1000 0.930 . S
C1014 C1012 1.395 . S
C1014 C1017 1.403 . S
C1015 C1012 1.403 . S
C1015 C1016 1.524 . S
C1015 C1019 1.400 . S
C1016 H1001 0.960 . S
C1016 H1002 0.960 . S
C1016 H1003 0.960 . S
C1016 C1015 1.524 . S
C1017 C1014 1.403 . S
C1017 C1018 1.392 . S
C1017 C1021 1.495 . S
C1018 C1017 1.392 . S
C1018 C1019 1.385 . S
C1018 C1020 1.478 . S
C1019 H1013 0.930 . S
C1019 C1015 1.400 . S
C1019 C1018 1.385 . S
C1020 C1018 1.478 . S
C1020 C1022 1.381 . S
C1020 C1026 1.383 . S
C1021 C1017 1.495 . S
C1021 H1027 0.959 . S
C1021 H1028 0.961 . S
C1021 H1029 0.960 . S
C1022 C1020 1.381 . S
C1022 C1023 1.394 . S
C1022 H1030 0.930 . S
C1023 C1022 1.394 . S
C1023 C1024 1.383 . S
C1023 H1031 0.929 . S
C1024 C1023 1.383 . S
C1024 C1025 1.377 . S
C1025 H1009 0.930 . S
C1025 C1024 1.377 . S
C1025 C1026 1.379 . S
C1026 H1010 0.931 . S
C1026 C1020 1.383 . S
C1026 C1025 1.379 . S
H1027 C1021 0.959 . S
H1028 C1021 0.961 . S
H1029 C1021 0.960 . S
H1030 C1022 0.930 . S
H1031 C1023 0.929 . S
H1032 C1040 0.929 . S
H1033 C1042 0.930 . S
H1034 C1044 0.930 . S
H1035 C1047 0.929 . S
H1036 C1050 0.930 . S
H1037 C1052 0.960 . S
H1038 C1052 0.960 . S
H1039 C1052 0.960 . S
C1040 H1032 0.929 . S
C1040 C1041 1.377 . S
C1040 C1042 1.384 . S
C1041 C1040 1.377 . S
C1041 C1047 1.390 . S
C1042 H1033 0.930 . S
C1042 C1040 1.384 . S
C1042 C1043 1.372 . S
C1043 C1042 1.372 . S
C1043 C1044 1.400 . S
C1043 C1048 1.490 . S
C1044 H1034 0.930 . S
C1044 C1043 1.400 . S
C1044 C1047 1.386 . S
H1045 C1061 0.930 . S
H1046 C1062 0.931 . S
C1047 H1035 0.929 . S
C1047 C1041 1.390 . S
C1047 C1044 1.386 . S
C1048 C1043 1.490 . S
C1048 C1050 1.395 . S
C1048 C1051 1.403 . S
H1049 C1055 0.930 . S
C1050 H1036 0.930 . S
C1050 C1048 1.395 . S
C1050 C1053 1.403 . S
C1051 C1048 1.403 . S
C1051 C1052 1.524 . S
C1051 C1055 1.400 . S
C1052 H1037 0.960 . S
C1052 H1038 0.960 . S
C1052 H1039 0.960 . S
C1052 C1051 1.524 . S
C1053 C1050 1.403 . S
C1053 C1054 1.392 . S
C1053 C1057 1.495 . S
C1054 C1053 1.392 . S
C1054 C1055 1.385 . S
C1054 C1056 1.478 . S
C1055 H1049 0.930 . S
C1055 C1051 1.400 . S
C1055 C1054 1.385 . S
C1056 C1054 1.478 . S
C1056 C1058 1.381 . S
C1056 C1062 1.383 . S
C1057 C1053 1.495 . S
C1057 H1063 0.959 . S
C1057 H1064 0.961 . S
C1057 H1065 0.960 . S
C1058 C1056 1.381 . S
C1058 C1059 1.394 . S
C1058 H1066 0.930 . S
C1059 C1058 1.394 . S
C1059 C1060 1.383 . S
C1059 H1067 0.929 . S
C1060 C1059 1.383 . S
C1060 C1061 1.377 . S
C1061 H1045 0.930 . S
C1061 C1060 1.377 . S
C1061 C1062 1.379 . S
C1062 H1046 0.931 . S
C1062 C1056 1.383 . S
C1062 C1061 1.379 . S
H1063 C1057 0.959 . S
H1064 C1057 0.961 . S
H1065 C1057 0.960 . S
H1066 C1058 0.930 . S
H1067 C1059 0.929 . S
H1068 C1076 0.929 . S
H1069 C1078 0.930 . S
H1070 C1080 0.930 . S
H1071 C1083 0.929 . S
H1072 C1086 0.930 . S
H1073 C1088 0.960 . S
H1074 C1088 0.960 . S
H1075 C1088 0.960 . S
C1076 H1068 0.929 . S
C1076 C1077 1.377 . S
C1076 C1078 1.384 . S
C1077 C1076 1.377 . S
C1077 C1083 1.390 . S
C1078 H1069 0.930 . S
C1078 C1076 1.384 . S
C1078 C1079 1.372 . S
C1079 C1078 1.372 . S
C1079 C1080 1.400 . S
C1079 C1084 1.490 . S
C1080 H1070 0.930 . S
C1080 C1079 1.400 . S
C1080 C1083 1.386 . S
H1081 C1097 0.930 . S
H1082 C1098 0.931 . S
C1083 H1071 0.929 . S
C1083 C1077 1.390 . S
C1083 C1080 1.386 . S
C1084 C1079 1.490 . S
C1084 C1086 1.395 . S
C1084 C1087 1.403 . S
H1085 C1091 0.930 . S
C1086 H1072 0.930 . S
C1086 C1084 1.395 . S
C1086 C1089 1.403 . S
C1087 C1084 1.403 . S
C1087 C1088 1.524 . S
C1087 C1091 1.400 . S
C1088 H1073 0.960 . S
C1088 H1074 0.960 . S
C1088 H1075 0.960 . S
C1088 C1087 1.524 . S
C1089 C1086 1.403 . S
C1089 C1090 1.392 . S
C1089 C1093 1.495 . S
C1090 C1089 1.392 . S
C1090 C1091 1.385 . S
C1090 C1092 1.478 . S
C1091 H1085 0.930 . S
C1091 C1087 1.400 . S
C1091 C1090 1.385 . S
C1092 C1090 1.478 . S
C1092 C1094 1.381 . S
C1092 C1098 1.383 . S
C1093 C1089 1.495 . S
C1093 H1099 0.959 . S
C1093 H1100 0.961 . S
C1093 H1101 0.960 . S
C1094 C1092 1.381 . S
C1094 C1095 1.394 . S
C1094 H1102 0.930 . S
C1095 C1094 1.394 . S
C1095 C1096 1.383 . S
C1095 H1103 0.929 . S
C1096 C1095 1.383 . S
C1096 C1097 1.377 . S
C1097 H1081 0.930 . S
C1097 C1096 1.377 . S
C1097 C1098 1.379 . S
C1098 H1082 0.931 . S
C1098 C1092 1.383 . S
C1098 C1097 1.379 . S
H1099 C1093 0.959 . S
H1100 C1093 0.961 . S
H1101 C1093 0.960 . S
H1102 C1094 0.930 . S
H1103 C1095 0.929 . S
H1104 C1112 0.929 . S
H1105 C1114 0.930 . S
H1106 C1116 0.930 . S
H1107 C1119 0.929 . S
H1108 C1122 0.930 . S
H1109 C1124 0.960 . S
H1110 C1124 0.960 . S
H1111 C1124 0.960 . S
C1112 H1104 0.929 . S
C1112 C1113 1.377 . S
C1112 C1114 1.384 . S
C1113 C1112 1.377 . S
C1113 C1119 1.390 . S
C1114 H1105 0.930 . S
C1114 C1112 1.384 . S
C1114 C1115 1.372 . S
C1115 C1114 1.372 . S
C1115 C1116 1.400 . S
C1115 C1120 1.490 . S
C1116 H1106 0.930 . S
C1116 C1115 1.400 . S
C1116 C1119 1.386 . S
H1117 C1133 0.930 . S
H1118 C1134 0.931 . S
C1119 H1107 0.929 . S
C1119 C1113 1.390 . S
C1119 C1116 1.386 . S
C1120 C1115 1.490 . S
C1120 C1122 1.395 . S
C1120 C1123 1.403 . S
H1121 C1127 0.930 . S
C1122 H1108 0.930 . S
C1122 C1120 1.395 . S
C1122 C1125 1.403 . S
C1123 C1120 1.403 . S
C1123 C1124 1.524 . S
C1123 C1127 1.400 . S
C1124 H1109 0.960 . S
C1124 H1110 0.960 . S
C1124 H1111 0.960 . S
C1124 C1123 1.524 . S
C1125 C1122 1.403 . S
C1125 C1126 1.392 . S
C1125 C1129 1.495 . S
C1126 C1125 1.392 . S
C1126 C1127 1.385 . S
C1126 C1128 1.478 . S
C1127 H1121 0.930 . S
C1127 C1123 1.400 . S
C1127 C1126 1.385 . S
C1128 C1126 1.478 . S
C1128 C1130 1.381 . S
C1128 C1134 1.383 . S
C1129 C1125 1.495 . S
C1129 H1135 0.959 . S
C1129 H1136 0.961 . S
C1129 H1137 0.960 . S
C1130 C1128 1.381 . S
C1130 C1131 1.394 . S
C1130 H1138 0.930 . S
C1131 C1130 1.394 . S
C1131 C1132 1.383 . S
C1131 H1139 0.929 . S
C1132 C1131 1.383 . S
C1132 C1133 1.377 . S
C1133 H1117 0.930 . S
C1133 C1132 1.377 . S
C1133 C1134 1.379 . S
C1134 H1118 0.931 . S
C1134 C1128 1.383 . S
C1134 C1133 1.379 . S
H1135 C1129 0.959 . S
H1136 C1129 0.961 . S
H1137 C1129 0.960 . S
H1138 C1130 0.930 . S
H1139 C1131 0.929 . S
H1140 C1148 0.929 . S
H1141 C1150 0.930 . S
H1142 C1152 0.930 . S
H1143 C1155 0.929 . S
H1144 C1158 0.930 . S
H1145 C1160 0.960 . S
H1146 C1160 0.960 . S
H1147 C1160 0.960 . S
C1148 H1140 0.929 . S
C1148 C1149 1.377 . S
C1148 C1150 1.384 . S
C1149 C1148 1.377 . S
C1149 C1155 1.390 . S
C1150 H1141 0.930 . S
C1150 C1148 1.384 . S
C1150 C1151 1.372 . S
C1151 C1150 1.372 . S
C1151 C1152 1.400 . S
C1151 C1156 1.490 . S
C1152 H1142 0.930 . S
C1152 C1151 1.400 . S
C1152 C1155 1.386 . S
H1153 C1169 0.930 . S
H1154 C1170 0.931 . S
C1155 H1143 0.929 . S
C1155 C1149 1.390 . S
C1155 C1152 1.386 . S
C1156 C1151 1.490 . S
C1156 C1158 1.395 . S
C1156 C1159 1.403 . S
H1157 C1163 0.930 . S
C1158 H1144 0.930 . S
C1158 C1156 1.395 . S
C1158 C1161 1.403 . S
C1159 C1156 1.403 . S
C1159 C1160 1.524 . S
C1159 C1163 1.400 . S
C1160 H1145 0.960 . S
C1160 H1146 0.960 . S
C1160 H1147 0.960 . S
C1160 C1159 1.524 . S
C1161 C1158 1.403 . S
C1161 C1162 1.392 . S
C1161 C1165 1.495 . S
C1162 C1161 1.392 . S
C1162 C1163 1.385 . S
C1162 C1164 1.478 . S
C1163 H1157 0.930 . S
C1163 C1159 1.400 . S
C1163 C1162 1.385 . S
C1164 C1162 1.478 . S
C1164 C1166 1.381 . S
C1164 C1170 1.383 . S
C1165 C1161 1.495 . S
C1165 H1171 0.959 . S
C1165 H1172 0.961 . S
C1165 H1173 0.960 . S
C1166 C1164 1.381 . S
C1166 C1167 1.394 . S
C1166 H1174 0.930 . S
C1167 C1166 1.394 . S
C1167 C1168 1.383 . S
C1167 H1175 0.929 . S
C1168 C1167 1.383 . S
C1168 C1169 1.377 . S
C1169 H1153 0.930 . S
C1169 C1168 1.377 . S
C1169 C1170 1.379 . S
C1170 H1154 0.931 . S
C1170 C1164 1.383 . S
C1170 C1169 1.379 . S
H1171 C1165 0.959 . S
H1172 C1165 0.961 . S
H1173 C1165 0.960 . S
H1174 C1166 0.930 . S
H1175 C1167 0.929 . S
C321 C6 1.159 . S
C340 C167 1.161 . S
C357 C21 2.039 . S
C376 C211 2.070 . S
C412 C241 1.514 . S
C393 C49 1.397 . S
C429 C68 2.528 . S
C448 C282 2.562 . S
C484 C198 1.633 . S
C465 C2 1.596 . S
C520 C162 2.160 1_565 S
C501 C30 2.101 . S
C556 C290 1.030 . S
C537 C40 1.040 . S
C592 C251 2.060 . S
C573 C63 2.126 . S
C609 C11 0.791 . S
C628 C287 0.834 . S
C664 C201 2.283 . S
C645 C44 2.330 . S
C681 C59 1.642 . S
C700 C170 1.614 . S
C717 C25 2.532 . S
C736 C238 2.476 . S
C772 C158 1.509 . S
C753 C82 1.524 . S
C789 C101 1.474 . S
C808 C202 1.462 . S
C825 C125 1.515 . S
C844 C250 1.711 . S
C861 C144 2.078 . S
C880 C291 2.102 . S
C897 C87 0.631 . S
C916 C207 0.572 . S
C952 C171 3.398 . S
C933 C97 3.366 . S
C988 C281 0.933 . S
C969 C120 0.913 . S
C1024 C242 1.659 . S
C1005 C135 1.666 . S
C1041 C78 1.384 . S
C1060 C278 1.395 . S
C1096 C210 1.218 . S
C1077 C116 1.201 . S
C1132 C161 2.300 . S
C1113 C139 2.361 . S
C1149 C106 1.636 . S
C1168 C247 1.926 . S
