# Generated by pormake.
# Topology pth, (4,4)-cn, num edge types: 1
# Building blocks:
#     Node 0, Type 0, BuildingBlock: UXUYUI_clean_sbu_0, # of connection points: 4
#     Node 1, Type 0, BuildingBlock: UXUYUI_clean_sbu_0, # of connection points: 4
#     Node 2, Type 0, BuildingBlock: UXUYUI_clean_sbu_0, # of connection points: 4
#     Node 3, Type 1, BuildingBlock: MUDLON_clean_linker_0, # of connection points: 4
#     Node 4, Type 1, BuildingBlock: MUDLON_clean_linker_0, # of connection points: 4
#     Node 5, Type 1, BuildingBlock: MUDLON_clean_linker_0, # of connection points: 4
#     Edge 6, Type (0, 1), BuildingBlock: FUNLAD_clean_linker_0, # of connection points: 2
#     Edge 7, Type (0, 1), BuildingBlock: FUNLAD_clean_linker_0, # of connection points: 2
#     Edge 8, Type (0, 1), BuildingBlock: FUNLAD_clean_linker_0, # of connection points: 2
#     Edge 9, Type (0, 1), BuildingBlock: FUNLAD_clean_linker_0, # of connection points: 2
#     Edge 10, Type (0, 1), BuildingBlock: FUNLAD_clean_linker_0, # of connection points: 2
#     Edge 11, Type (0, 1), BuildingBlock: FUNLAD_clean_linker_0, # of connection points: 2
#     Edge 12, Type (0, 1), BuildingBlock: FUNLAD_clean_linker_0, # of connection points: 2
#     Edge 13, Type (0, 1), BuildingBlock: FUNLAD_clean_linker_0, # of connection points: 2
#     Edge 14, Type (0, 1), BuildingBlock: FUNLAD_clean_linker_0, # of connection points: 2
#     Edge 15, Type (0, 1), BuildingBlock: FUNLAD_clean_linker_0, # of connection points: 2
#     Edge 16, Type (0, 1), BuildingBlock: FUNLAD_clean_linker_0, # of connection points: 2
#     Edge 17, Type (0, 1), BuildingBlock: FUNLAD_clean_linker_0, # of connection points: 2
# Relax obj value: 0.087
# Max RMSD: 0.213
# Mean RMSD: 0.143
data_MOF--net-pth--node1-UXUYUI_clean_sbu_0--node2-MUDLON_clean_linker_0--edge1-FUNLAD_clean_linker_0
_symmetry_space_group_name_H-M    P1
_symmetry_Int_Tables_number       1
_symmetry_cell_setting            triclinic
loop_
_symmetry_equiv_pos_as_xyz
'x, y, z'
_cell_length_a     43.429921
_cell_length_b     43.479081
_cell_length_c     87.627223
_cell_angle_alpha  89.959128
_cell_angle_beta   90.071148
_cell_angle_gamma 120.01752
loop_
_atom_site_label
_atom_site_type_symbol
_atom_site_fract_x
_atom_site_fract_y
_atom_site_fract_z
_atom_type_partial_charge
Li0 Li 0.03059 0.01786 0.02678 0.0
Li1 Li 0.98671 0.0148 0.04505 0.0
Li2 Li 0.00665 0.96979 0.04597 0.0
Li3 Li 0.96633 0.96862 0.02612 0.0
C4 C 0.0691 0.03972 0.05459 0.0
N5 N 0.13835 0.07523 0.06521 0.0
C6 C 0.08233 0.07235 0.06205 0.0
C7 C 0.09095 0.02491 0.05278 0.0
C8 C 0.11746 0.08998 0.06726 0.0
C9 C 0.1259 0.0433 0.05816 0.0
C10 C 0.97831 0.04655 0.02102 0.0
C11 C 0.93513 0.06596 0.02179 0.0
N12 N 0.96136 0.09977 0.01884 0.0
C13 C 0.00479 0.08141 0.01786 0.0
C14 C 0.94314 0.03866 0.02287 0.0
C15 C 0.9957 0.10797 0.01685 0.0
C16 C 0.07525 0.03802 0.00097 0.0
N17 N 0.07091 0.04897 0.01492 0.0
C18 C 0.12312 0.10558 0.01145 0.0
C19 C 0.09398 0.08206 0.02023 0.0
C20 C 0.12833 0.09506 0.99698 0.0
C21 C 0.104 0.06071 0.99179 0.0
H22 H 0.05618 0.01174 0.99694 0.0
H23 H 0.08927 0.09059 0.0311 0.0
C24 C 0.94486 0.0282 0.06583 0.0
N25 N 0.97466 0.04353 0.05708 0.0
C26 C 0.93647 0.04913 0.07506 0.0
C27 C 0.98951 0.10122 0.06602 0.0
C28 C 0.99683 0.07928 0.05697 0.0
C29 C 0.9591 0.08616 0.07533 0.0
H30 H 0.92786 -0.00031 0.06582 0.0
H31 H 0.02049 0.09071 0.04997 0.0
C32 C 0.02533 0.94633 0.01876 0.0
N33 N 0.05538 0.90683 0.0089 0.0
C34 C 0.00373 0.91158 0.01354 0.0
C35 C 0.06228 0.96122 0.01863 0.0
C36 C 0.0194 0.89196 0.0087 0.0
C37 C 0.07694 0.94078 0.01369 0.0
C38 C 0.92441 0.93489 0.05025 0.0
C39 C 0.91896 0.90244 0.05585 0.0
C40 C 0.89515 0.93846 0.04631 0.0
C41 C 0.88428 0.87388 0.05719 0.0
C42 C 0.8609 0.90927 0.04779 0.0
N43 N 0.85622 0.87785 0.05315 0.0
C44 C 0.03144 0.95534 0.07311 0.0
C45 C 0.01041 0.90872 0.05499 0.0
C46 C 0.0393 0.93574 0.0834 0.0
N47 N 0.01759 0.94176 0.05917 0.0
C48 C 0.01768 0.88809 0.06496 0.0
C49 C 0.03229 0.90153 0.0794 0.0
H50 H 0.03622 0.9814 0.07628 0.0
H51 H 0.99816 0.89793 0.04411 0.0
C52 C 0.91742 0.95289 0.00204 0.0
N53 N 0.92772 0.93817 0.01318 0.0
C54 C 0.88876 0.93136 0.99255 0.0
C55 C 0.88187 0.87991 0.00616 0.0
C56 C 0.91086 0.9024 0.01528 0.0
C57 C 0.8705 0.89436 0.99462 0.0
H58 H 0.93145 0.98139 0.00053 0.0
H59 H 0.91986 0.8913 0.02407 0.0
O60 O 0.03478 0.02222 0.04935 0.0
O61 O 0.9868 0.0203 0.02233 0.0
O62 O 0.01035 0.96596 0.02344 0.0
O63 O 0.95821 0.96305 0.04873 0.0
H64 H 0.06573 0.08406 0.06374 0.0
H65 H 0.08088 -0.00078 0.0475 0.0
H66 H 0.12809 0.11536 0.07295 0.0
H67 H 0.14307 0.03211 0.05681 0.0
H68 H 0.90806 0.06026 0.02329 0.0
H69 H 0.03209 0.08797 0.01631 0.0
H70 H 0.92229 0.01179 0.02517 0.0
H71 H 0.01596 0.13511 0.0145 0.0
H72 H 0.14075 0.13208 0.01575 0.0
H73 H 0.10712 0.05148 0.98073 0.0
H74 H 0.9126 0.03642 0.08195 0.0
H75 H 0.00801 0.12955 0.06604 0.0
H76 H 0.97516 0.89974 0.01332 0.0
H77 H 0.07955 0.98843 0.02209 0.0
H78 H 0.00294 0.86493 0.00477 0.0
H79 H 0.10549 0.95197 0.01359 0.0
H80 H 0.94122 0.89926 0.05909 0.0
H81 H 0.89884 0.96339 0.04204 0.0
H82 H 0.87969 0.84856 0.06144 0.0
H83 H 0.83804 0.9116 0.04467 0.0
H84 H 0.05078 0.9473 0.09436 0.0
H85 H 0.01106 0.86155 0.06152 0.0
H86 H 0.88071 0.94353 0.9838 0.0
H87 H 0.86885 0.85149 0.00798 0.0
Li88 Li 0.99363 0.9718 0.35664 0.0
Li89 Li 0.02891 0.01189 0.37621 0.0
Li90 Li 0.96679 0.99473 0.37451 0.0
Li91 Li 0.01186 0.03758 0.35568 0.0
C92 C 0.96986 0.92807 0.38099 0.0
N93 N 0.93495 0.85509 0.38442 0.0
C94 C 0.98839 0.91133 0.386 0.0
C95 C 0.93353 0.90767 0.37784 0.0
C96 C 0.97029 0.87441 0.38763 0.0
C97 C 0.91636 0.87084 0.37962 0.0
C98 C 0.07672 0.02543 0.35362 0.0
C99 C 0.13721 0.06966 0.34772 0.0
N100 N 0.1483 0.0471 0.35263 0.0
C101 C 0.08867 0.00259 0.35851 0.0
C102 C 0.10111 0.05918 0.34811 0.0
C103 C 0.12499 0.01409 0.35797 0.0
C104 C 0.96535 0.92442 0.33151 0.0
N105 N 0.98595 0.93268 0.34423 0.0
C106 C 0.99887 0.88644 0.33894 0.0
C107 C 0.00271 0.91444 0.34801 0.0
C108 C 0.97802 0.8774 0.32565 0.0
C109 C 0.96088 0.89663 0.32202 0.0
H110 H 0.95299 0.93987 0.32853 0.0
H111 H 0.01946 0.92187 0.358 0.0
C112 C 0.05796 -4e-05 0.40263 0.0
N113 N 0.06618 0.02257 0.39064 0.0
C114 C 0.0838 0.00517 0.4134 0.0
C115 C 0.12593 0.05773 0.39965 0.0
C116 C 0.09918 0.05155 0.38917 0.0
C117 C 0.11844 0.03416 0.4119 0.0
H118 H 0.03126 0.97782 0.40384 0.0
H119 H 0.10481 0.06992 0.37987 0.0
C120 C 0.93203 0.98714 0.34651 0.0
N121 N 0.86618 0.97333 0.33614 0.0
C122 C 0.92717 0.0149 0.34142 0.0
C123 C 0.90352 0.95228 0.34607 0.0
C124 C 0.89365 0.0074 0.33629 0.0
C125 C 0.87041 0.94587 0.34087 0.0
C126 C 0.02487 0.06293 0.39019 0.0
C127 C 0.01275 0.0494 0.4048 0.0
C128 C 0.05544 0.09614 0.38848 0.0
C129 C 0.03167 0.06931 0.41751 0.0
C130 C 0.07359 0.11524 0.40147 0.0
N131 N 0.06145 0.10153 0.4156 0.0
C132 C 0.91412 0.96437 0.3977 0.0
C133 C 0.90901 0.00458 0.38108 0.0
C134 C 0.88452 0.95938 0.40599 0.0
N135 N 0.92543 0.98633 0.38539 0.0
C136 C 0.87915 0.00014 0.38892 0.0
C137 C 0.86655 0.97739 0.40162 0.0
H138 H 0.92847 0.95123 0.40126 0.0
H139 H 0.91945 0.02308 0.37169 0.0
C140 C 0.02834 0.0765 0.32808 0.0
N141 N 0.02194 0.07691 0.34323 0.0
C142 C 0.03101 0.10359 0.3186 0.0
C143 C 0.0214 0.13126 0.34062 0.0
C144 C 0.01891 0.1037 0.34964 0.0
C145 C 0.02678 0.13106 0.32482 0.0
H146 H 0.03007 0.05448 0.3233 0.0
H147 H 0.01322 0.10294 0.36169 0.0
O148 O 0.98722 0.96419 0.37917 0.0
O149 O 0.04131 0.01474 0.35402 0.0
O150 O 0.96473 0.99403 0.35157 0.0
O151 O 0.00728 0.04338 0.37763 0.0
H152 H 0.01661 0.92658 0.38835 0.0
H153 H 0.91869 0.92016 0.37412 0.0
H154 H 0.98437 0.86111 0.39139 0.0
H155 H 0.88824 0.85477 0.37719 0.0
H156 H 0.15641 0.09574 0.34353 0.0
H157 H 0.07021 0.97657 0.36296 0.0
H158 H 0.09225 0.07713 0.34426 0.0
H159 H 0.13466 0.99682 0.36184 0.0
H160 H 0.01228 0.87214 0.34228 0.0
H161 H 0.94506 0.89098 0.31175 0.0
H162 H 0.07684 0.98629 0.42264 0.0
H163 H 0.15207 0.08084 0.39826 0.0
H164 H 0.94892 0.04202 0.34157 0.0
H165 H 0.90694 0.93034 0.34957 0.0
H166 H 0.88946 0.02868 0.33244 0.0
H167 H 0.8481 0.91902 0.34052 0.0
H168 H 0.98924 0.02362 0.40629 0.0
H169 H 0.06535 0.10679 0.37723 0.0
H170 H 0.02275 0.0591 0.42889 0.0
H171 H 0.09743 0.14089 0.40033 0.0
H172 H 0.87639 0.94231 0.41593 0.0
H173 H 0.86618 0.0145 0.38507 0.0
H174 H 0.03473 0.10218 0.30646 0.0
H175 H 0.01836 0.15209 0.34591 0.0
Li176 Li 0.02507 0.99212 0.69163 0.0
Li177 Li 0.01838 0.02646 0.71184 0.0
Li178 Li 0.97451 0.96357 0.70819 0.0
Li179 Li 0.97873 0.00843 0.69036 0.0
C180 C 0.05275 0.97918 0.71569 0.0
N181 N 0.11081 0.96948 0.7177 0.0
C182 C 0.08593 0.00738 0.71999 0.0
C183 C 0.04904 0.946 0.7125 0.0
C184 C 0.11498 0.00194 0.72093 0.0
C185 C 0.07874 0.94165 0.71355 0.0
C186 C 0.03487 0.06299 0.67889 0.0
C187 C 0.02884 0.1115 0.66902 0.0
N188 N 0.03997 0.10706 0.65512 0.0
C189 C 0.04632 0.05893 0.66452 0.0
C190 C 0.02616 0.08953 0.6812 0.0
C191 C 0.04872 0.08149 0.65265 0.0
C192 C 0.0527 0.95995 0.67142 0.0
N193 N 0.06037 0.98827 0.68047 0.0
C194 C 0.12179 0.01622 0.67378 0.0
C195 C 0.09404 0.01608 0.68179 0.0
C196 C 0.11478 0.9876 0.66417 0.0
C197 C 0.07971 0.95902 0.66313 0.0
H198 H 0.0256 0.93839 0.67045 0.0
H199 H 0.09924 0.03833 0.68902 0.0
C200 C 0.04406 0.05071 0.74122 0.0
N201 N 0.04443 0.06178 0.72669 0.0
C202 C 0.06653 0.07458 0.7522 0.0
C203 C 0.08865 0.12109 0.73317 0.0
C204 C 0.06568 0.09625 0.72253 0.0
C205 C 0.08986 0.11012 0.74814 0.0
H206 H 0.02729 0.02297 0.7441 0.0
H207 H 0.06591 0.10414 0.71082 0.0
C208 C 0.94831 0.92858 0.68268 0.0
N209 N 0.89283 0.86015 0.67824 0.0
C210 C 0.91518 0.92274 0.67775 0.0
C211 C 0.95328 0.89963 0.68525 0.0
C212 C 0.88746 0.88795 0.67558 0.0
C213 C 0.92488 0.86524 0.68298 0.0
C214 C 0.96096 0.01844 0.72473 0.0
C215 C 0.95194 -8e-05 0.73855 0.0
C216 C 0.96618 0.05286 0.72416 0.0
C217 C 0.94845 0.01627 0.75163 0.0
C218 C 0.9625 0.0683 0.7375 0.0
N219 N 0.95379 0.04984 0.75085 0.0
C220 C 0.94823 0.90136 0.72719 0.0
C221 C 0.90609 0.91476 0.71654 0.0
C222 C 0.92136 0.87272 0.73526 0.0
N223 N 0.94008 0.92175 0.71818 0.0
C224 C 0.87851 0.88645 0.72428 0.0
C225 C 0.88601 0.8654 0.73404 0.0
H226 H 0.97562 0.90793 0.72848 0.0
H227 H 0.90056 0.9318 0.70945 0.0
C228 C 0.9521 0.01667 0.66203 0.0
N229 N 0.94983 0.01857 0.67744 0.0
C230 C 0.92686 0.01801 0.65259 0.0
C231 C 0.89776 0.0236 0.67506 0.0
C232 C 0.92372 0.02252 0.68405 0.0
C233 C 0.89873 0.02057 0.65915 0.0
H234 H 0.97242 0.01231 0.65713 0.0
H235 H 0.92203 0.02309 0.69633 0.0
O236 O 0.02415 0.98416 0.71438 0.0
O237 O 0.03195 0.04093 0.69063 0.0
O238 O 0.9756 0.96242 0.68515 0.0
O239 O 0.96517 0.00319 0.71185 0.0
H240 H 0.08939 0.03332 0.72238 0.0
H241 H 0.02358 0.92394 0.70911 0.0
H242 H 0.14086 0.02357 0.72417 0.0
H243 H 0.0763 0.91617 0.71103 0.0
H244 H 0.02201 0.13203 0.67062 0.0
H245 H 0.05296 0.03839 0.6625 0.0
H246 H 0.01708 0.09289 0.69223 0.0
H247 H 0.05742 0.07859 0.64145 0.0
H248 H 0.14846 0.03858 0.67509 0.0
H249 H 0.07304 0.93666 0.6557 0.0
H250 H 0.06633 0.06511 0.76366 0.0
H251 H 0.1065 0.14812 0.72952 0.0
H252 H 0.91075 0.94478 0.67577 0.0
H253 H 0.97867 0.90364 0.68914 0.0
H254 H 0.86164 0.88303 0.67184 0.0
H255 H 0.9283 0.84258 0.68502 0.0
H256 H 0.94805 0.97337 0.73923 0.0
H257 H 0.97332 0.06759 0.71356 0.0
H258 H 0.94163 0.00232 0.76243 0.0
H259 H 0.96663 0.09498 0.73725 0.0
H260 H 0.92834 0.85741 0.7428 0.0
H261 H 0.85164 0.88148 0.72282 0.0
H262 H 0.92819 0.01503 0.64038 0.0
H263 H 0.87652 0.02569 0.68053 0.0
H264 H 0.97519 0.61648 0.20969 0.0
N265 N 0.04083 0.6239 0.20451 0.0
H266 H 0.95958 0.64444 0.23013 0.0
H267 H 0.08178 0.66272 0.22746 0.0
H268 H 0.06645 0.69086 0.24799 0.0
H269 H 0.10002 0.67972 0.19425 0.0
H270 H 0.10633 0.71774 0.17243 0.0
H271 H 0.98864 0.61295 0.18398 0.0
H272 H 0.99444 0.65113 0.16243 0.0
H273 H -0.00018 0.57274 0.22585 0.0
H274 H 0.04325 0.5863 0.18027 0.0
H275 H 0.97356 0.50925 0.22341 0.0
H276 H 0.016 0.52232 0.17785 0.0
H277 H 0.89567 0.306 0.21798 0.0
H278 H 0.91117 0.28168 0.23999 0.0
H279 H 0.02069 0.36538 0.23605 0.0
H280 H 0.00519 0.38909 0.21405 0.0
H281 H 0.99659 0.35568 0.19015 0.0
H282 H 0.99735 0.32119 0.16853 0.0
H283 H 0.8878 0.28911 0.15872 0.0
H284 H 0.88754 0.32479 0.18034 0.0
H285 H 0.90574 0.39336 0.21023 0.0
H286 H 0.92736 0.45732 0.21021 0.0
H287 H 0.0244 0.47584 0.18842 0.0
N288 N 0.93931 0.36029 0.20047 0.0
H289 H 0.00246 0.41242 0.18817 0.0
C290 C 0.02985 0.63777 0.21704 0.0
C291 C 0.99524 0.63269 0.21798 0.0
C292 C 0.98635 0.64865 0.22968 0.0
C293 C 0.01179 0.66988 0.24066 0.0
C294 C 0.04611 0.67426 0.23984 0.0
C295 C 0.05499 0.65839 0.22811 0.0
C296 C 0.04402 0.64366 0.19076 0.0
C297 C 0.07705 0.67316 0.18719 0.0
C298 C 0.0805 0.69492 0.17482 0.0
C299 C 0.05084 0.68752 0.16576 0.0
C300 C 0.01787 0.65734 0.1691 0.0
C301 C 0.01443 0.63566 0.1815 0.0
C302 C 0.02209 0.58534 0.20285 0.0
C303 C 0.00282 0.5625 0.21505 0.0
C304 C 0.9877 0.52575 0.21372 0.0
C305 C 0.9921 0.51063 0.20034 0.0
C306 C 0.01193 0.53311 0.1883 0.0
C307 C 0.02714 0.56988 0.18962 0.0
C308 C 0.94902 0.34928 0.21434 0.0
C309 C 0.92288 0.31932 0.22204 0.0
C310 C 0.9318 0.30558 0.23462 0.0
C311 C 0.96721 0.32155 0.23971 0.0
C312 C 0.99326 0.35223 0.23228 0.0
C313 C 0.98431 0.36599 0.21972 0.0
C314 C 0.9418 0.34281 0.18692 0.0
C315 C 0.97282 0.34177 0.18329 0.0
C316 C 0.97317 0.32172 0.17094 0.0
C317 C 0.94251 0.30206 0.16202 0.0
C318 C 0.91193 0.30415 0.16531 0.0
C319 C 0.91166 0.32437 0.17767 0.0
C320 C 0.95219 0.39788 0.1992 0.0
C321 C 0.93147 0.41129 0.20529 0.0
C322 C 0.94397 0.44779 0.20536 0.0
C323 C 0.97766 0.47169 0.19935 0.0
C324 C 0.99813 0.45816 0.19294 0.0
C325 C 0.98557 0.42167 0.19285 0.0
H326 H 0.65088 0.02753 0.53743 0.0
N327 N 0.58955 0.96393 0.53292 0.0
H328 H 0.69538 0.0408 0.55704 0.0
H329 H 0.58505 0.92311 0.55646 0.0
H330 H 0.62887 0.93684 0.57678 0.0
H331 H 0.59815 0.91357 0.51986 0.0
H332 H 0.63314 0.919 0.49708 0.0
H333 H 0.61962 0.02083 0.51343 0.0
H334 H 0.65422 0.02637 0.49058 0.0
H335 H 0.5898 0.01541 0.55203 0.0
H336 H 0.53331 0.94387 0.51478 0.0
H337 H 0.54769 0.03604 0.55192 0.0
H338 H 0.49193 0.96627 0.51411 0.0
H339 H 0.41216 0.10219 0.55189 0.0
H340 H 0.37622 0.09295 0.57476 0.0
H341 H 0.34393 0.98145 0.57422 0.0
H342 H 0.37919 0.99072 0.55136 0.0
H343 H 0.35315 0.99541 0.52711 0.0
H344 H 0.3152 0.99225 0.50601 0.0
H345 H 0.39262 0.09953 0.49301 0.0
H346 H 0.43097 0.10226 0.51414 0.0
H347 H 0.4862 0.09107 0.53995 0.0
H348 H 0.52941 0.07078 0.53859 0.0
H349 H 0.4446 0.96516 0.52722 0.0
N350 N 0.41665 0.05345 0.53543 0.0
H351 H 0.40237 0.98629 0.52766 0.0
C352 C 0.61472 0.97396 0.54535 0.0
C353 C 0.64586 0.00748 0.5459 0.0
C354 C 0.67117 0.01524 0.5573 0.0
C355 C 0.66586 0.98985 0.56849 0.0
C356 C 0.63413 0.9568 0.5682 0.0
C357 C 0.60892 0.94897 0.5567 0.0
C358 C 0.60635 0.96666 0.51837 0.0
C359 C 0.60984 0.938 0.51333 0.0
C360 C 0.62972 0.94115 0.50031 0.0
C361 C 0.64662 0.97321 0.4921 0.0
C362 C 0.64192 0.00151 0.4968 0.0
C363 C 0.62198 0.9983 0.50981 0.0
C364 C 0.56553 0.97813 0.53313 0.0
C365 C 0.56892 0.00437 0.54357 0.0
C366 C 0.54464 0.01653 0.54348 0.0
C367 C 0.51647 0.00318 0.53292 0.0
C368 C 0.51299 0.97696 0.52255 0.0
C369 C 0.5369 0.96434 0.5228 0.0
C370 C 0.39853 0.04739 0.54986 0.0
C371 C 0.39775 0.07591 0.55688 0.0
C372 C 0.37732 0.07057 0.56997 0.0
C373 C 0.35712 0.0364 0.57627 0.0
C374 C 0.35886 0.008 0.56952 0.0
C375 C 0.37932 0.01338 0.55645 0.0
C376 C 0.39504 0.04928 0.52224 0.0
C377 C 0.36234 0.01811 0.51964 0.0
C378 C 0.34045 0.01642 0.50761 0.0
C379 C 0.35074 0.04577 0.49792 0.0
C380 C 0.38405 0.07638 0.50019 0.0
C381 C 0.40592 0.07806 0.51226 0.0
C382 C 0.44111 0.04033 0.53406 0.0
C383 C 0.47715 0.06363 0.53705 0.0
C384 C 0.50169 0.05184 0.5364 0.0
C385 C 0.49056 0.01616 0.53293 0.0
C386 C 0.45435 0.9929 0.52974 0.0
C387 C 0.42994 0.00491 0.53015 0.0
H388 H 0.59082 0.6935 0.87442 0.0
N389 N 0.58384 0.634 0.86283 0.0
H390 H 0.63039 0.72958 0.89514 0.0
H391 H 0.62235 0.61501 0.88176 0.0
H392 H 0.66153 0.65063 0.90235 0.0
H393 H 0.64785 0.6386 0.85622 0.0
H394 H 0.68319 0.66406 0.83336 0.0
H395 H 0.5653 0.65546 0.83788 0.0
H396 H 0.6 0.67974 0.8145 0.0
H397 H 0.51449 0.60404 0.86752 0.0
H398 H 0.59771 0.57914 0.86019 0.0
H399 H 0.47064 0.5407 0.86859 0.0
H400 H 0.55478 0.51611 0.86222 0.0
H401 H 0.34876 0.37557 0.87836 0.0
H402 H 0.31021 0.341 0.8993 0.0
H403 H 0.37991 0.29931 0.90917 0.0
H404 H 0.4191 0.33502 0.8883 0.0
H405 H 0.39203 0.31355 0.8537 0.0
H406 H 0.34724 0.28294 0.83382 0.0
H407 H 0.32677 0.3704 0.83236 0.0
H408 H 0.37161 0.40087 0.8523 0.0
H409 H 0.40578 0.42716 0.88448 0.0
H410 H 0.44946 0.48961 0.88355 0.0
H411 H 0.50819 0.46866 0.84928 0.0
N412 N 0.40698 0.37319 0.86794 0.0
H413 H 0.46508 0.40532 0.85094 0.0
C414 C 0.6035 0.65163 0.87644 0.0
C415 C 0.60568 0.68372 0.8807 0.0
C416 C 0.62821 0.70422 0.89253 0.0
C417 C 0.64924 0.69301 0.90027 0.0
C418 C 0.64596 0.66012 0.89645 0.0
C419 C 0.62327 0.63957 0.88468 0.0
C420 C 0.60401 0.64567 0.84887 0.0
C421 C 0.63703 0.64733 0.8472 0.0
C422 C 0.65718 0.66165 0.83399 0.0
C423 C 0.64462 0.67426 0.8221 0.0
C424 C 0.61083 0.67098 0.82354 0.0
C425 C 0.59085 0.65692 0.83682 0.0
C426 C 0.5593 0.5964 0.86395 0.0
C427 C 0.5233 0.58483 0.86638 0.0
C428 C 0.49837 0.54861 0.86709 0.0
C429 C 0.50907 0.52309 0.86557 0.0
C430 C 0.54536 0.53485 0.86322 0.0
C431 C 0.57016 0.57108 0.86226 0.0
C432 C 0.38703 0.35795 0.88178 0.0
C433 C 0.35626 0.35966 0.88521 0.0
C434 C 0.33402 0.33959 0.89713 0.0
C435 C 0.3417 0.31699 0.90577 0.0
C436 C 0.37336 0.31665 0.90282 0.0
C437 C 0.39577 0.33698 0.89091 0.0
C438 C 0.38518 0.35934 0.85447 0.0
C439 C 0.37844 0.32642 0.84883 0.0
C440 C 0.35272 0.30893 0.8376 0.0
C441 C 0.33333 0.32419 0.83171 0.0
C442 C 0.34147 0.35815 0.83668 0.0
C443 C 0.36707 0.37556 0.84806 0.0
C444 C 0.43207 0.41096 0.86779 0.0
C445 C 0.42793 0.4355 0.87679 0.0
C446 C 0.45303 0.47169 0.87616 0.0
C447 C 0.4825 0.48443 0.86634 0.0
C448 C 0.48631 0.45991 0.85723 0.0
C449 C 0.46153 0.42367 0.85805 0.0
C450 C 0.95863 0.14252 0.08119 0.0
C451 C 0.95207 0.10879 0.0858 0.0
C452 C 0.9543 0.16473 0.09142 0.0
C453 C 0.94307 0.15352 0.1065 0.0
C454 C 0.93594 0.11957 0.11098 0.0
C455 C 0.94031 0.09744 0.10077 0.0
C456 C 0.94096 0.17708 0.11823 0.0
C457 C 0.93981 0.20684 0.1151 0.0
C458 C 0.94042 0.23094 0.12727 0.0
C459 C 0.92495 0.25208 0.12451 0.0
C460 C 0.9255 0.27521 0.13575 0.0
C461 C 0.94201 0.27798 0.1499 0.0
H462 H 0.97067 0.21925 0.14375 0.0
C463 C 0.95793 0.25718 0.15254 0.0
C464 C 0.95734 0.23411 0.14135 0.0
H465 H 0.97063 0.25844 0.16335 0.0
H466 H 0.96749 0.15195 0.06969 0.0
H467 H 0.96087 0.19092 0.08754 0.0
H468 H 0.92758 0.11033 0.12254 0.0
H469 H 0.93556 0.07186 0.10478 0.0
H470 H 0.93993 0.16909 0.13005 0.0
H471 H 0.93736 0.21349 0.10339 0.0
H472 H 0.91219 0.25052 0.11368 0.0
H473 H 0.91337 0.29121 0.13331 0.0
C474 C 0.831 0.00284 0.41299 0.0
C475 C 0.83568 0.97347 0.41056 0.0
C476 C 0.80259 -0.00049 0.4217 0.0
C477 C 0.77842 0.96677 0.42844 0.0
C478 C 0.78259 0.93724 0.4257 0.0
C479 C 0.81087 0.94051 0.41688 0.0
C480 C 0.74876 0.96227 0.43845 0.0
C481 C 0.74821 0.98952 0.44554 0.0
C482 C 0.72049 0.98502 0.45671 0.0
C483 C 0.72859 0.01268 0.46706 0.0
C484 C 0.70426 0.00916 0.47828 0.0
C485 C 0.67109 0.97789 0.47937 0.0
H486 H 0.6788 0.93275 0.44933 0.0
C487 C 0.66239 0.95063 0.46869 0.0
C488 C 0.68672 0.95419 0.45742 0.0
H489 H 0.63675 0.92649 0.46908 0.0
H490 H 0.84966 0.0287 0.40839 0.0
H491 H 0.79986 0.02274 0.42301 0.0
H492 H 0.76416 0.91157 0.43056 0.0
H493 H 0.81321 0.91715 0.41499 0.0
H494 H 0.72809 0.93524 0.44087 0.0
H495 H 0.77037 0.01628 0.44411 0.0
H496 H 0.75424 0.03684 0.46673 0.0
H497 H 0.71194 0.03053 0.48642 0.0
C498 C 0.83204 0.84421 0.75042 0.0
C499 C 0.85729 0.8375 0.74352 0.0
C500 C 0.8049 0.81845 0.75938 0.0
C501 C 0.80212 0.78511 0.76162 0.0
C502 C 0.82774 0.77858 0.755 0.0
C503 C 0.85501 0.80446 0.74597 0.0
C504 C 0.7741 0.75772 0.77156 0.0
C505 C 0.74237 0.75562 0.77372 0.0
C506 C 0.71597 0.73242 0.78528 0.0
C507 C 0.69235 0.74267 0.79108 0.0
C508 C 0.6687 0.72334 0.80276 0.0
C509 C 0.66771 0.69289 0.80878 0.0
H510 H 0.73112 0.69177 0.78635 0.0
C511 C 0.6903 0.68169 0.80251 0.0
C512 C 0.71421 0.70124 0.79088 0.0
H513 H 0.68966 0.6579 0.80665 0.0
H514 H 0.83367 0.86977 0.74917 0.0
H515 H 0.78679 0.82526 0.76485 0.0
H516 H 0.82653 0.75332 0.75673 0.0
H517 H 0.87407 0.7985 0.74081 0.0
H518 H 0.78047 0.73972 0.77752 0.0
H519 H 0.73619 0.77343 0.76746 0.0
H520 H 0.69301 0.76648 0.78693 0.0
H521 H 0.65209 0.73308 0.80741 0.0
C522 C 0.05265 0.85794 0.08538 0.0
C523 C 0.03914 0.8796 0.0904 0.0
C524 C 0.05816 0.83661 0.0957 0.0
C525 C 0.05013 0.83643 0.11127 0.0
C526 C 0.03741 0.85865 0.11631 0.0
C527 C 0.03176 0.87982 0.106 0.0
C528 C 0.05494 0.81383 0.12262 0.0
C529 C 0.05341 0.78295 0.11907 0.0
C530 C 0.05504 0.75917 0.13082 0.0
C531 C 0.03714 0.72241 0.12817 0.0
C532 C 0.03629 0.6991 0.13937 0.0
C533 C 0.05374 0.71218 0.1534 0.0
H534 H 0.08872 0.80059 0.14688 0.0
C535 C 0.07289 0.74909 0.1558 0.0
C536 C 0.07364 0.77235 0.14462 0.0
H537 H 0.08654 0.76001 0.1665 0.0
H538 H 0.05933 0.85773 0.0735 0.0
H539 H 0.06913 0.82075 0.09146 0.0
H540 H 0.03118 0.85915 0.12824 0.0
H541 H 0.02094 0.89584 0.11024 0.0
H542 H 0.05703 0.82169 0.13452 0.0
H543 H 0.04776 0.7732 0.10742 0.0
H544 H 0.02301 0.71161 0.11755 0.0
H545 H 0.02179 0.67083 0.1371 0.0
C546 C 0.181 0.0492 0.41792 0.0
C547 C 0.14657 0.03936 0.42296 0.0
C548 C 0.20699 0.05238 0.42827 0.0
C549 C 0.19899 0.04564 0.44391 0.0
C550 C 0.16486 0.03684 0.44895 0.0
C551 C 0.13892 0.03361 0.43861 0.0
C552 C 0.22505 0.04739 0.45542 0.0
C553 C 0.25465 0.04605 0.45204 0.0
C554 C 0.27886 0.04568 0.46394 0.0
C555 C 0.31493 0.05927 0.46047 0.0
C556 C 0.33836 0.05924 0.47144 0.0
C557 C 0.326 0.04509 0.48605 0.0
H558 H 0.23859 0.01911 0.48147 0.0
C559 C 0.28974 0.03082 0.48941 0.0
C560 C 0.26641 0.03099 0.47849 0.0
H561 H 0.27941 0.01991 0.50059 0.0
H562 H 0.1877 0.05373 0.40591 0.0
H563 H 0.23314 0.06022 0.42388 0.0
H564 H 0.158 0.0319 0.46094 0.0
H565 H 0.11284 0.02663 0.4429 0.0
H566 H 0.21882 0.04887 0.4673 0.0
H567 H 0.26181 0.04531 0.44025 0.0
H568 H 0.32511 0.07027 0.44928 0.0
H569 H 0.36607 0.07003 0.46845 0.0
C570 C 0.12562 0.17034 0.76035 0.0
C571 C 0.11718 0.13473 0.7591 0.0
C572 C 0.15227 0.19352 0.77039 0.0
C573 C 0.17127 0.18152 0.77927 0.0
C574 C 0.16247 0.14584 0.77806 0.0
C575 C 0.13588 0.12277 0.7681 0.0
C576 C 0.19993 0.20457 0.79016 0.0
C577 C 0.21605 0.24033 0.79068 0.0
C578 C 0.24534 0.26195 0.80159 0.0
C579 C 0.26991 0.29753 0.79805 0.0
C580 C 0.29844 0.31809 0.80785 0.0
C581 C 0.30291 0.30332 0.82134 0.0
H582 H 0.22994 0.22119 0.81907 0.0
C583 C 0.27774 0.26817 0.82513 0.0
C584 C 0.24912 0.24782 0.81547 0.0
H585 H 0.27997 0.25649 0.8357 0.0
H586 H 0.11137 0.1802 0.75367 0.0
H587 H 0.15744 0.22049 0.77121 0.0
H588 H 0.1765 0.13574 0.78476 0.0
H589 H 0.13047 0.09566 0.76723 0.0
H590 H 0.20922 0.19109 0.7977 0.0
H591 H 0.20924 0.25453 0.78241 0.0
H592 H 0.26738 0.30928 0.78755 0.0
H593 H 0.31737 0.34525 0.80474 0.0
C594 C 0.87525 0.03538 0.63576 0.0
C595 C 0.86889 0.01682 0.64959 0.0
C596 C 0.84687 0.03013 0.62642 0.0
C597 C 0.8116 0.00594 0.63072 0.0
C598 C 0.80536 0.98743 0.64452 0.0
C599 C 0.83366 0.99302 0.65393 0.0
C600 C 0.78093 0.99773 0.62067 0.0
C601 C 0.78042 0.02139 0.61092 0.0
C602 C 0.7499 0.01237 0.60063 0.0
C603 C 0.74251 0.03907 0.59629 0.0
C604 C 0.71468 0.03161 0.5862 0.0
C605 C 0.69401 0.99736 0.58 0.0
H606 H 0.73477 0.95707 0.59726 0.0
C607 C 0.70153 0.97066 0.58435 0.0
C608 C 0.72911 0.97804 0.59455 0.0
H609 H 0.6868 0.94423 0.57952 0.0
H610 H 0.90219 0.05378 0.63212 0.0
H611 H 0.8527 0.04418 0.61566 0.0
H612 H 0.77849 0.96839 0.64801 0.0
H613 H 0.82799 0.97787 0.6644 0.0
H614 H 0.75744 0.97161 0.6218 0.0
H615 H 0.80235 0.04862 0.61086 0.0
H616 H 0.75824 0.06576 0.60077 0.0
H617 H 0.70941 0.05274 0.58326 0.0
C618 C 0.84242 0.87606 0.96877 0.0
C619 C 0.84015 0.87085 0.98464 0.0
C620 C 0.81436 0.85314 0.9593 0.0
C621 C 0.7834 0.82453 0.96552 0.0
C622 C 0.7807 0.82 0.98141 0.0
C623 C 0.80892 0.84273 0.99088 0.0
C624 C 0.75348 0.79927 0.95572 0.0
C625 C 0.75865 0.79024 0.94166 0.0
C626 C 0.72946 0.76427 0.93176 0.0
C627 C 0.73734 0.74586 0.92073 0.0
C628 C 0.71105 0.72214 0.91079 0.0
C629 C 0.67634 0.71666 0.91151 0.0
H630 H 0.68781 0.77305 0.94069 0.0
C631 C 0.66838 0.73514 0.92251 0.0
C632 C 0.69465 0.75867 0.93258 0.0
H633 H 0.64185 0.73147 0.9233 0.0
H634 H 0.86617 0.8975 0.96364 0.0
H635 H 0.81693 0.85804 0.94712 0.0
H636 H 0.75696 0.79843 0.9865 0.0
H637 H 0.80626 0.83841 0.0031 0.0
H638 H 0.72697 0.7861 0.96063 0.0
H639 H 0.78565 0.80084 0.93748 0.0
H640 H 0.764 0.74993 0.91976 0.0
H641 H 0.71816 0.70877 0.90225 0.0
C642 C 0.00581 0.84615 0.31253 0.0
C643 C 0.97555 0.8491 0.31536 0.0
C644 C 0.00394 0.81985 0.30284 0.0
C645 C 0.97165 0.79564 0.29578 0.0
C646 C 0.94152 0.79889 0.29839 0.0
C647 C 0.94336 0.82524 0.30814 0.0
C648 C 0.96933 0.76818 0.28501 0.0
C649 C 0.99097 0.75436 0.28598 0.0
C650 C 0.99237 0.7299 0.27452 0.0
C651 C 0.01002 0.71135 0.27843 0.0
C652 C 0.01536 0.69097 0.26758 0.0
C653 C 0.00325 0.68876 0.25253 0.0
H654 H 0.96651 0.74146 0.25587 0.0
C655 C 0.98468 0.70646 0.2487 0.0
C656 C 0.97941 0.72694 0.25953 0.0
H657 H 0.97552 0.70572 0.23713 0.0
H658 H 0.03126 0.86471 0.31754 0.0
H659 H 0.02814 0.81924 0.30063 0.0
H660 H 0.91643 0.78087 0.29294 0.0
H661 H 0.91953 0.82672 0.31013 0.0
H662 H 0.9489 0.75895 0.27627 0.0
H663 H 0.00887 0.76135 0.29567 0.0
H664 H 0.02037 0.71319 0.28985 0.0
H665 H 0.0294 0.6773 0.27093 0.0
C666 C 0.16905 0.0201 0.64784 0.0
C667 C 0.14374 0.98837 0.65488 0.0
C668 C 0.19607 0.02109 0.63889 0.0
C669 C 0.19859 0.99033 0.63682 0.0
C670 C 0.17313 0.95853 0.64374 0.0
C671 C 0.14606 0.95756 0.65273 0.0
C672 C 0.22595 0.99013 0.62672 0.0
C673 C 0.25736 0.01951 0.62374 0.0
C674 C 0.28335 0.02106 0.6123 0.0
C675 C 0.3183 0.0499 0.61271 0.0
C676 C 0.34265 0.05437 0.6013 0.0
C677 C 0.33251 0.03009 0.58917 0.0
H678 H 0.24658 0.97431 0.59924 0.0
C679 C 0.29781 0.00076 0.58893 0.0
C680 C 0.27344 0.99632 0.60031 0.0
H681 H 0.28895 0.98196 0.57957 0.0
H682 H 0.16749 0.04411 0.64892 0.0
H683 H 0.21421 0.04579 0.63327 0.0
H684 H 0.17421 0.93436 0.64219 0.0
H685 H 0.12709 0.93273 0.65807 0.0
H686 H 0.21991 0.96485 0.62176 0.0
H687 H 0.26457 0.04384 0.62992 0.0
H688 H 0.32664 0.06946 0.62175 0.0
H689 H 0.36929 0.07707 0.60188 0.0
C690 C 0.15234 0.12306 0.97153 0.0
C691 C 0.15804 0.1204 0.98714 0.0
C692 C 0.1797 0.1481 0.96237 0.0
C693 C 0.21339 0.17124 0.96865 0.0
C694 C 0.21945 0.16778 0.98413 0.0
C695 C 0.19199 0.1428 0.99332 0.0
C696 C 0.24272 0.19881 0.95929 0.0
C697 C 0.23664 0.21474 0.9474 0.0
C698 C 0.26468 0.24169 0.93731 0.0
C699 C 0.25402 0.24932 0.92337 0.0
C700 C 0.27897 0.27394 0.91328 0.0
C701 C 0.31537 0.29189 0.91692 0.0
H702 H 0.31059 0.25571 0.95185 0.0
C703 C 0.32619 0.28472 0.93095 0.0
C704 C 0.30113 0.25997 0.94109 0.0
H705 H 0.35401 0.29845 0.93416 0.0
H706 H 0.12648 0.10627 0.96643 0.0
H707 H 0.17436 0.14906 0.95037 0.0
H708 H 0.24529 0.18491 0.98919 0.0
H709 H 0.19735 0.14099 0.00526 0.0
H710 H 0.26966 0.20635 0.96259 0.0
H711 H 0.20938 0.20731 0.94466 0.0
H712 H 0.2262 0.23576 0.92012 0.0
H713 H 0.26972 0.27832 0.90245 0.0
C714 C -0.00041 0.16779 0.31726 0.0
C715 C 0.02549 0.15796 0.31481 0.0
C716 C 0.99692 0.19173 0.3075 0.0
C717 C 0.02033 0.20668 0.29507 0.0
C718 C 0.04629 0.19692 0.29267 0.0
C719 C 0.04891 0.17287 0.30244 0.0
C720 C 0.01703 0.23055 0.28384 0.0
C721 C -4e-05 0.24868 0.28672 0.0
C722 C 0.99354 0.2694 0.27492 0.0
C723 C 0.96383 0.27386 0.27647 0.0
C724 C 0.95558 0.29133 0.2652 0.0
C725 C 0.97716 0.30513 0.25221 0.0
H726 H 0.03968 0.28253 0.2608 0.0
C727 C 0.0077 0.30191 0.25094 0.0
C728 C 0.01588 0.28432 0.26218 0.0
H729 H 0.02483 0.31218 0.24105 0.0
H730 H 0.98054 0.15609 0.32646 0.0
H731 H 0.97564 0.19729 0.30951 0.0
H732 H 0.06449 0.20776 0.28313 0.0
H733 H 0.06924 0.16594 0.30029 0.0
H734 H 0.02842 0.23231 0.27264 0.0
H735 H 0.98849 0.24701 0.29789 0.0
H736 H 0.94642 0.26302 0.28626 0.0
H737 H 0.93218 0.29389 0.26662 0.0
loop_
_geom_bond_atom_site_label_1
_geom_bond_atom_site_label_2
_geom_bond_distance
_geom_bond_site_symmetry_2
_ccdc_geom_bond_type
Li0 N17 1.990 . S
Li0 O60 1.956 . S
Li0 O61 1.970 1_455 S
Li0 O62 1.961 1_545 S
Li1 N25 1.990 . S
Li1 O60 1.970 1_655 S
Li1 O61 1.956 . S
Li1 O63 1.961 1_545 S
Li2 N47 1.990 . S
Li2 O60 1.961 1_565 S
Li2 O62 1.956 . S
Li2 O63 1.970 1_455 S
Li3 N53 1.990 . S
Li3 O61 1.961 1_565 S
Li3 O62 1.970 1_655 S
Li3 O63 1.956 . S
C4 C6 1.348 . S
C4 C7 1.356 . S
C4 O60 1.325 . S
N5 C8 1.314 . S
N5 C9 1.279 . S
C6 C4 1.348 . S
C6 C8 1.353 . S
C6 H64 0.929 . S
C7 C4 1.356 . S
C7 C9 1.358 . S
C7 H65 0.930 . S
C8 N5 1.314 . S
C8 C6 1.353 . S
C8 H66 0.930 . S
C9 N5 1.279 . S
C9 C7 1.358 . S
C9 H67 0.930 . S
C10 C13 1.348 1_655 S
C10 C14 1.356 . S
C10 O61 1.325 . S
C11 N12 1.279 1_554 S
C11 C14 1.358 . S
C11 H68 0.930 . S
N12 C11 1.279 1_556 S
N12 C15 1.309 1_556 S
C13 C10 1.348 1_455 S
C13 C15 1.377 1_455 S
C13 H69 0.929 . S
C14 C10 1.356 . S
C14 C11 1.358 . S
C14 H70 0.930 . S
C15 N12 1.309 1_554 S
C15 C13 1.377 1_655 S
C15 H71 0.911 1_654 S
C16 N17 1.314 1_556 S
C16 C21 1.353 . S
C16 H22 0.930 . S
N17 Li0 1.990 . S
N17 C16 1.314 1_554 S
N17 C19 1.279 . S
C18 C19 1.358 . S
C18 C20 1.356 1_554 S
C18 H72 0.930 . S
C19 N17 1.279 . S
C19 C18 1.358 . S
C19 H23 0.930 . S
C20 C18 1.356 1_556 S
C20 C21 1.348 . S
C21 C16 1.353 . S
C21 C20 1.348 . S
C21 H73 0.929 . S
H22 C16 0.930 . S
H23 C19 0.930 . S
C24 N25 1.314 . S
C24 C26 1.353 . S
C24 H30 0.930 . S
N25 Li1 1.990 . S
N25 C24 1.314 . S
N25 C28 1.279 . S
C26 C24 1.353 . S
C26 C29 1.348 . S
C26 H74 0.929 . S
C27 C28 1.358 . S
C27 C29 1.356 . S
C27 H75 0.930 . S
C28 N25 1.279 . S
C28 C27 1.358 . S
C28 H31 0.930 . S
C29 C26 1.348 . S
C29 C27 1.356 . S
H30 C24 0.930 . S
H31 C28 0.930 . S
C32 C34 1.348 1_455 S
C32 C35 1.356 . S
C32 O62 1.325 . S
N33 C36 1.309 1_556 S
N33 C37 1.279 1_556 S
C34 C32 1.348 1_655 S
C34 C36 1.377 1_655 S
C34 H76 0.929 . S
C35 C32 1.356 . S
C35 C37 1.358 . S
C35 H77 0.930 . S
C36 N33 1.309 1_554 S
C36 C34 1.377 1_455 S
C36 H78 0.911 1_454 S
C37 N33 1.279 1_554 S
C37 C35 1.358 . S
C37 H79 0.930 . S
C38 C39 1.348 . S
C38 C40 1.356 . S
C38 O63 1.325 . S
C39 C38 1.348 . S
C39 C41 1.353 . S
C39 H80 0.929 . S
C40 C38 1.356 . S
C40 C42 1.358 . S
C40 H81 0.930 . S
C41 C39 1.353 . S
C41 N43 1.314 . S
C41 H82 0.930 . S
C42 C40 1.358 . S
C42 N43 1.279 . S
C42 H83 0.930 . S
N43 C41 1.314 . S
N43 C42 1.279 . S
C44 C46 1.353 . S
C44 N47 1.314 . S
C44 H50 0.930 . S
C45 N47 1.279 . S
C45 C48 1.358 . S
C45 H51 0.930 . S
C46 C44 1.353 . S
C46 C49 1.348 . S
C46 H84 0.929 . S
N47 Li2 1.990 . S
N47 C44 1.314 . S
N47 C45 1.279 . S
C48 C45 1.358 . S
C48 C49 1.356 . S
C48 H85 0.930 . S
C49 C46 1.348 . S
C49 C48 1.356 . S
H50 C44 0.930 . S
H51 C45 0.930 . S
C52 N53 1.314 1_556 S
C52 C54 1.353 . S
C52 H58 0.930 . S
N53 Li3 1.990 . S
N53 C52 1.314 1_554 S
N53 C56 1.279 . S
C54 C52 1.353 . S
C54 C57 1.348 . S
C54 H86 0.929 . S
C55 C56 1.358 . S
C55 C57 1.356 1_554 S
C55 H87 0.930 . S
C56 N53 1.279 . S
C56 C55 1.358 . S
C56 H59 0.930 . S
C57 C54 1.348 . S
C57 C55 1.356 1_556 S
H58 C52 0.930 . S
H59 C56 0.930 . S
O60 Li0 1.956 . S
O60 Li1 1.970 1_455 S
O60 Li2 1.961 1_545 S
O60 C4 1.325 . S
O61 Li0 1.970 1_655 S
O61 Li1 1.956 . S
O61 Li3 1.961 1_545 S
O61 C10 1.325 . S
O62 Li0 1.961 1_565 S
O62 Li2 1.956 . S
O62 Li3 1.970 1_455 S
O62 C32 1.325 . S
O63 Li1 1.961 1_565 S
O63 Li2 1.970 1_655 S
O63 Li3 1.956 . S
O63 C38 1.325 . S
H64 C6 0.929 . S
H65 C7 0.930 . S
H66 C8 0.930 . S
H67 C9 0.930 . S
H68 C11 0.930 . S
H69 C13 0.929 . S
H70 C14 0.930 . S
H71 C15 0.911 1_456 S
H72 C18 0.930 . S
H73 C21 0.929 . S
H74 C26 0.929 . S
H75 C27 0.930 . S
H76 C34 0.929 . S
H77 C35 0.930 . S
H78 C36 0.911 1_656 S
H79 C37 0.930 . S
H80 C39 0.929 . S
H81 C40 0.930 . S
H82 C41 0.930 . S
H83 C42 0.930 . S
H84 C46 0.929 . S
H85 C48 0.930 . S
H86 C54 0.929 . S
H87 C55 0.930 . S
Li88 N105 1.990 . S
Li88 O148 1.956 . S
Li88 O149 1.970 1_665 S
Li88 O150 1.961 . S
Li89 N113 1.990 . S
Li89 O148 1.970 1_445 S
Li89 O149 1.956 . S
Li89 O151 1.961 . S
Li90 N135 1.990 . S
Li90 O148 1.961 . S
Li90 O150 1.956 . S
Li90 O151 1.970 1_665 S
Li91 N141 1.990 . S
Li91 O149 1.961 . S
Li91 O150 1.970 1_445 S
Li91 O151 1.956 . S
C92 C94 1.348 1_655 S
C92 C95 1.356 . S
C92 O148 1.325 . S
N93 C96 1.314 . S
N93 C97 1.279 . S
C94 C92 1.348 1_455 S
C94 C96 1.353 1_455 S
C94 H152 0.929 . S
C95 C92 1.356 . S
C95 C97 1.358 . S
C95 H153 0.930 . S
C96 N93 1.314 . S
C96 C94 1.353 1_655 S
C96 H154 0.930 1_655 S
C97 N93 1.279 . S
C97 C95 1.358 . S
C97 H155 0.930 . S
C98 C101 1.348 1_545 S
C98 C102 1.356 . S
C98 O149 1.325 . S
C99 N100 1.279 . S
C99 C102 1.358 . S
C99 H156 0.930 . S
N100 C99 1.279 . S
N100 C103 1.314 . S
C101 C98 1.348 1_565 S
C101 C103 1.353 1_565 S
C101 H157 0.929 . S
C102 C98 1.356 . S
C102 C99 1.358 . S
C102 H158 0.930 . S
C103 N100 1.314 . S
C103 C101 1.353 1_545 S
C103 H159 0.930 1_545 S
C104 N105 1.314 . S
C104 C109 1.353 . S
C104 H110 0.930 . S
N105 Li88 1.990 . S
N105 C104 1.314 . S
N105 C107 1.279 . S
C106 C107 1.358 . S
C106 C108 1.356 . S
C106 H160 0.930 . S
C107 N105 1.279 . S
C107 C106 1.358 . S
C107 H111 0.930 . S
C108 C106 1.356 . S
C108 C109 1.348 . S
C109 C104 1.353 . S
C109 C108 1.348 . S
C109 H161 0.929 . S
H110 C104 0.930 . S
H111 C107 0.930 . S
C112 N113 1.314 . S
C112 C114 1.353 . S
C112 H118 0.930 . S
N113 Li89 1.990 . S
N113 C112 1.314 . S
N113 C116 1.279 . S
C114 C112 1.353 . S
C114 C117 1.348 . S
C114 H162 0.929 . S
C115 C116 1.358 . S
C115 C117 1.356 . S
C115 H163 0.930 . S
C116 N113 1.279 . S
C116 C115 1.358 . S
C116 H119 0.930 . S
C117 C114 1.348 . S
C117 C115 1.356 . S
H118 C112 0.930 . S
H119 C116 0.930 . S
C120 C122 1.348 1_565 S
C120 C123 1.356 . S
C120 O150 1.325 . S
N121 C124 1.314 . S
N121 C125 1.279 . S
C122 C120 1.348 1_545 S
C122 C124 1.353 1_545 S
C122 H164 0.929 . S
C123 C120 1.356 . S
C123 C125 1.358 . S
C123 H165 0.930 . S
C124 N121 1.314 . S
C124 C122 1.353 1_565 S
C124 H166 0.930 1_565 S
C125 N121 1.279 . S
C125 C123 1.358 . S
C125 H167 0.930 . S
C126 C127 1.348 1_455 S
C126 C128 1.356 . S
C126 O151 1.325 . S
C127 C126 1.348 1_655 S
C127 C129 1.353 1_655 S
C127 H168 0.929 . S
C128 C126 1.356 . S
C128 C130 1.358 . S
C128 H169 0.930 . S
C129 C127 1.353 1_455 S
C129 N131 1.314 . S
C129 H170 0.930 1_455 S
C130 C128 1.358 . S
C130 N131 1.279 . S
C130 H171 0.930 . S
N131 C129 1.314 . S
N131 C130 1.279 . S
C132 C134 1.353 . S
C132 N135 1.314 . S
C132 H138 0.930 . S
C133 N135 1.279 . S
C133 C136 1.358 . S
C133 H139 0.930 . S
C134 C132 1.353 . S
C134 C137 1.348 . S
C134 H172 0.929 . S
N135 Li90 1.990 . S
N135 C132 1.314 . S
N135 C133 1.279 . S
C136 C133 1.358 . S
C136 C137 1.356 . S
C136 H173 0.930 . S
C137 C134 1.348 . S
C137 C136 1.356 . S
H138 C132 0.930 . S
H139 C133 0.930 . S
C140 N141 1.314 . S
C140 C142 1.353 . S
C140 H146 0.930 . S
N141 Li91 1.990 . S
N141 C140 1.314 . S
N141 C144 1.279 . S
C142 C140 1.353 . S
C142 C145 1.348 . S
C142 H174 0.929 . S
C143 C144 1.358 . S
C143 C145 1.356 . S
C143 H175 0.930 . S
C144 N141 1.279 . S
C144 C143 1.358 . S
C144 H147 0.930 . S
C145 C142 1.348 . S
C145 C143 1.356 . S
H146 C140 0.930 . S
H147 C144 0.930 . S
O148 Li88 1.956 . S
O148 Li89 1.970 1_665 S
O148 Li90 1.961 . S
O148 C92 1.325 . S
O149 Li88 1.970 1_445 S
O149 Li89 1.956 . S
O149 Li91 1.961 . S
O149 C98 1.325 . S
O150 Li88 1.961 . S
O150 Li90 1.956 . S
O150 Li91 1.970 1_665 S
O150 C120 1.325 . S
O151 Li89 1.961 . S
O151 Li90 1.970 1_445 S
O151 Li91 1.956 . S
O151 C126 1.325 . S
H152 C94 0.929 . S
H153 C95 0.930 . S
H154 C96 0.930 1_455 S
H155 C97 0.930 . S
H156 C99 0.930 . S
H157 C101 0.929 . S
H158 C102 0.930 . S
H159 C103 0.930 1_565 S
H160 C106 0.930 . S
H161 C109 0.929 . S
H162 C114 0.929 . S
H163 C115 0.930 . S
H164 C122 0.929 . S
H165 C123 0.930 . S
H166 C124 0.930 1_545 S
H167 C125 0.930 . S
H168 C127 0.929 . S
H169 C128 0.930 . S
H170 C129 0.930 1_655 S
H171 C130 0.930 . S
H172 C134 0.929 . S
H173 C136 0.930 . S
H174 C142 0.929 . S
H175 C143 0.930 . S
Li176 N193 1.990 . S
Li176 O236 1.956 . S
Li176 O237 1.970 1_565 S
Li176 O238 1.961 1_455 S
Li177 N201 1.990 . S
Li177 O236 1.970 1_545 S
Li177 O237 1.956 . S
Li177 O239 1.961 1_455 S
Li178 N223 1.990 . S
Li178 O236 1.961 1_655 S
Li178 O238 1.956 . S
Li178 O239 1.970 1_565 S
Li179 N229 1.990 . S
Li179 O237 1.961 1_655 S
Li179 O238 1.970 1_545 S
Li179 O239 1.956 . S
C180 C182 1.348 1_565 S
C180 C183 1.356 . S
C180 O236 1.325 . S
N181 C184 1.314 . S
N181 C185 1.279 . S
C182 C180 1.348 1_545 S
C182 C184 1.353 1_545 S
C182 H240 0.929 . S
C183 C180 1.356 . S
C183 C185 1.358 . S
C183 H241 0.930 . S
C184 N181 1.314 . S
C184 C182 1.353 1_565 S
C184 H242 0.930 1_565 S
C185 N181 1.279 . S
C185 C183 1.358 . S
C185 H243 0.930 . S
C186 C189 1.348 . S
C186 C190 1.356 . S
C186 O237 1.325 . S
C187 N188 1.279 . S
C187 C190 1.358 . S
C187 H244 0.930 . S
N188 C187 1.279 . S
N188 C191 1.314 . S
C189 C186 1.348 . S
C189 C191 1.353 . S
C189 H245 0.929 . S
C190 C186 1.356 . S
C190 C187 1.358 . S
C190 H246 0.930 . S
C191 N188 1.314 . S
C191 C189 1.353 . S
C191 H247 0.930 . S
C192 N193 1.314 . S
C192 C197 1.353 . S
C192 H198 0.930 . S
N193 Li176 1.990 . S
N193 C192 1.314 . S
N193 C195 1.279 . S
C194 C195 1.358 . S
C194 C196 1.356 . S
C194 H248 0.930 . S
C195 N193 1.279 . S
C195 C194 1.358 . S
C195 H199 0.930 . S
C196 C194 1.356 . S
C196 C197 1.348 . S
C197 C192 1.353 . S
C197 C196 1.348 . S
C197 H249 0.929 . S
H198 C192 0.930 . S
H199 C195 0.930 . S
C200 N201 1.314 . S
C200 C202 1.353 . S
C200 H206 0.930 . S
N201 Li177 1.990 . S
N201 C200 1.314 . S
N201 C204 1.279 . S
C202 C200 1.353 . S
C202 C205 1.348 . S
C202 H250 0.929 . S
C203 C204 1.358 . S
C203 C205 1.356 . S
C203 H251 0.930 . S
C204 N201 1.279 . S
C204 C203 1.358 . S
C204 H207 0.930 . S
C205 C202 1.348 . S
C205 C203 1.356 . S
H206 C200 0.930 . S
H207 C204 0.930 . S
C208 C210 1.348 . S
C208 C211 1.356 . S
C208 O238 1.325 . S
N209 C212 1.314 . S
N209 C213 1.279 . S
C210 C208 1.348 . S
C210 C212 1.353 . S
C210 H252 0.929 . S
C211 C208 1.356 . S
C211 C213 1.358 . S
C211 H253 0.930 . S
C212 N209 1.314 . S
C212 C210 1.353 . S
C212 H254 0.930 . S
C213 N209 1.279 . S
C213 C211 1.358 . S
C213 H255 0.930 . S
C214 C215 1.348 1_545 S
C214 C216 1.356 . S
C214 O239 1.325 . S
C215 C214 1.348 1_565 S
C215 C217 1.353 1_565 S
C215 H256 0.929 . S
C216 C214 1.356 . S
C216 C218 1.358 . S
C216 H257 0.930 . S
C217 C215 1.353 1_545 S
C217 N219 1.314 . S
C217 H258 0.930 1_545 S
C218 C216 1.358 . S
C218 N219 1.279 . S
C218 H259 0.930 . S
N219 C217 1.314 . S
N219 C218 1.279 . S
C220 C222 1.353 . S
C220 N223 1.314 . S
C220 H226 0.930 . S
C221 N223 1.279 . S
C221 C224 1.358 . S
C221 H227 0.930 . S
C222 C220 1.353 . S
C222 C225 1.348 . S
C222 H260 0.929 . S
N223 Li178 1.990 . S
N223 C220 1.314 . S
N223 C221 1.279 . S
C224 C221 1.358 . S
C224 C225 1.356 . S
C224 H261 0.930 . S
C225 C222 1.348 . S
C225 C224 1.356 . S
H226 C220 0.930 . S
H227 C221 0.930 . S
C228 N229 1.314 . S
C228 C230 1.353 . S
C228 H234 0.930 . S
N229 Li179 1.990 . S
N229 C228 1.314 . S
N229 C232 1.279 . S
C230 C228 1.353 . S
C230 C233 1.348 . S
C230 H262 0.929 . S
C231 C232 1.358 . S
C231 C233 1.356 . S
C231 H263 0.930 . S
C232 N229 1.279 . S
C232 C231 1.358 . S
C232 H235 0.930 . S
C233 C230 1.348 . S
C233 C231 1.356 . S
H234 C228 0.930 . S
H235 C232 0.930 . S
O236 Li176 1.956 . S
O236 Li177 1.970 1_565 S
O236 Li178 1.961 1_455 S
O236 C180 1.325 . S
O237 Li176 1.970 1_545 S
O237 Li177 1.956 . S
O237 Li179 1.961 1_455 S
O237 C186 1.325 . S
O238 Li176 1.961 1_655 S
O238 Li178 1.956 . S
O238 Li179 1.970 1_565 S
O238 C208 1.325 . S
O239 Li177 1.961 1_655 S
O239 Li178 1.970 1_545 S
O239 Li179 1.956 . S
O239 C214 1.325 . S
H240 C182 0.929 . S
H241 C183 0.930 . S
H242 C184 0.930 1_545 S
H243 C185 0.930 . S
H244 C187 0.930 . S
H245 C189 0.929 . S
H246 C190 0.930 . S
H247 C191 0.930 . S
H248 C194 0.930 . S
H249 C197 0.929 . S
H250 C202 0.929 . S
H251 C203 0.930 . S
H252 C210 0.929 . S
H253 C211 0.930 . S
H254 C212 0.930 . S
H255 C213 0.930 . S
H256 C215 0.929 . S
H257 C216 0.930 . S
H258 C217 0.930 1_565 S
H259 C218 0.930 . S
H260 C222 0.929 . S
H261 C224 0.930 . S
H262 C230 0.929 . S
H263 C231 0.930 . S
H264 C291 0.929 . S
N265 C290 1.433 . S
N265 C296 1.435 . S
N265 C302 1.423 . S
H266 C292 0.930 . S
H267 C295 0.931 . S
H268 C294 0.929 . S
H269 C297 0.930 . S
H270 C298 0.932 . S
H271 C301 0.929 . S
H272 C300 0.931 . S
H273 C303 0.929 . S
H274 C307 0.932 1_455 S
H275 C304 0.931 . S
H276 C306 0.929 1_455 S
H277 C309 0.929 . S
H278 C310 0.930 . S
H279 C312 0.929 . S
H280 C313 0.931 . S
H281 C315 0.930 . S
H282 C316 0.932 . S
H283 C318 0.931 . S
H284 C319 0.929 . S
H285 C321 0.929 . S
H286 C322 0.931 . S
H287 C324 0.929 1_455 S
N288 C308 1.433 . S
N288 C314 1.435 . S
N288 C320 1.423 . S
H289 C325 0.932 1_455 S
C290 N265 1.433 . S
C290 C291 1.363 . S
C290 C295 1.370 1_655 S
C291 H264 0.929 . S
C291 C290 1.363 . S
C291 C292 1.385 . S
C292 H266 0.930 . S
C292 C291 1.385 . S
C292 C293 1.357 . S
C293 C292 1.357 . S
C293 C294 1.406 1_655 S
C294 H268 0.929 . S
C294 C293 1.406 1_455 S
C294 C295 1.391 . S
C295 H267 0.931 . S
C295 C290 1.370 1_455 S
C295 C294 1.391 . S
C296 N265 1.435 . S
C296 C297 1.358 1_655 S
C296 C301 1.371 . S
C297 H269 0.930 . S
C297 C296 1.358 1_455 S
C297 C298 1.405 . S
C298 H270 0.932 . S
C298 C297 1.405 . S
C298 C299 1.383 1_455 S
C299 C298 1.383 1_655 S
C299 C300 1.393 . S
C300 H272 0.931 . S
C300 C299 1.393 . S
C300 C301 1.382 . S
C301 H271 0.929 . S
C301 C296 1.371 . S
C301 C300 1.382 . S
C302 N265 1.423 . S
C302 C303 1.362 . S
C302 C307 1.388 . S
C303 H273 0.929 . S
C303 C302 1.362 . S
C303 C304 1.376 . S
C304 H275 0.931 . S
C304 C303 1.376 . S
C304 C305 1.396 . S
C305 C304 1.396 . S
C305 C306 1.348 . S
C305 C323 1.472 . S
C306 H276 0.929 1_655 S
C306 C305 1.348 . S
C306 C307 1.443 . S
C307 H274 0.932 1_655 S
C307 C302 1.388 . S
C307 C306 1.443 . S
C308 N288 1.433 . S
C308 C309 1.363 . S
C308 C313 1.370 1_655 S
C309 H277 0.929 . S
C309 C308 1.363 . S
C309 C310 1.385 . S
C310 H278 0.930 . S
C310 C309 1.385 . S
C310 C311 1.357 . S
C311 C310 1.357 . S
C311 C312 1.406 1_655 S
C312 H279 0.929 . S
C312 C311 1.406 1_455 S
C312 C313 1.391 . S
C313 H280 0.931 . S
C313 C308 1.370 1_455 S
C313 C312 1.391 . S
C314 N288 1.435 . S
C314 C315 1.358 1_655 S
C314 C319 1.371 . S
C315 H281 0.930 . S
C315 C314 1.358 1_455 S
C315 C316 1.405 . S
C316 H282 0.932 . S
C316 C315 1.405 . S
C316 C317 1.383 1_455 S
C317 C316 1.383 1_655 S
C317 C318 1.393 . S
C318 H283 0.931 . S
C318 C317 1.393 . S
C318 C319 1.382 . S
C319 H284 0.929 . S
C319 C314 1.371 . S
C319 C318 1.382 . S
C320 N288 1.423 . S
C320 C321 1.362 . S
C320 C325 1.388 . S
C321 H285 0.929 . S
C321 C320 1.362 . S
C321 C322 1.376 . S
C322 H286 0.931 . S
C322 C321 1.376 . S
C322 C323 1.396 . S
C323 C305 1.472 . S
C323 C322 1.396 . S
C323 C324 1.348 . S
C324 H287 0.929 1_655 S
C324 C323 1.348 . S
C324 C325 1.443 . S
C325 H289 0.932 1_655 S
C325 C320 1.388 . S
C325 C324 1.443 . S
H326 C353 0.929 . S
N327 C352 1.433 . S
N327 C358 1.435 . S
N327 C364 1.423 . S
H328 C354 0.930 . S
H329 C357 0.931 . S
H330 C356 0.929 . S
H331 C359 0.930 . S
H332 C360 0.932 . S
H333 C363 0.929 . S
H334 C362 0.931 . S
H335 C365 0.929 . S
H336 C369 0.932 1_565 S
H337 C366 0.931 . S
H338 C368 0.929 1_565 S
H339 C371 0.929 . S
H340 C372 0.930 . S
H341 C374 0.929 . S
H342 C375 0.931 . S
H343 C377 0.930 . S
H344 C378 0.932 . S
H345 C380 0.931 . S
H346 C381 0.929 . S
H347 C383 0.929 . S
H348 C384 0.931 . S
H349 C386 0.929 1_565 S
N350 C370 1.433 . S
N350 C376 1.435 . S
N350 C382 1.423 . S
H351 C387 0.932 1_565 S
C352 N327 1.433 . S
C352 C353 1.363 . S
C352 C357 1.370 1_545 S
C353 H326 0.929 . S
C353 C352 1.363 . S
C353 C354 1.385 . S
C354 H328 0.930 . S
C354 C353 1.385 . S
C354 C355 1.357 . S
C355 C354 1.357 . S
C355 C356 1.406 1_545 S
C356 H330 0.929 . S
C356 C355 1.406 1_565 S
C356 C357 1.391 . S
C357 H329 0.931 . S
C357 C352 1.370 1_565 S
C357 C356 1.391 . S
C358 N327 1.435 . S
C358 C359 1.358 1_545 S
C358 C363 1.371 . S
C359 H331 0.930 . S
C359 C358 1.358 1_565 S
C359 C360 1.405 . S
C360 H332 0.932 . S
C360 C359 1.405 . S
C360 C361 1.383 1_565 S
C361 C360 1.383 1_545 S
C361 C362 1.393 . S
C362 H334 0.931 . S
C362 C361 1.393 . S
C362 C363 1.382 . S
C363 H333 0.929 . S
C363 C358 1.371 . S
C363 C362 1.382 . S
C364 N327 1.423 . S
C364 C365 1.362 . S
C364 C369 1.388 . S
C365 H335 0.929 . S
C365 C364 1.362 . S
C365 C366 1.376 . S
C366 H337 0.931 . S
C366 C365 1.376 . S
C366 C367 1.396 . S
C367 C366 1.396 . S
C367 C368 1.348 . S
C367 C385 1.472 . S
C368 H338 0.929 1_545 S
C368 C367 1.348 . S
C368 C369 1.443 . S
C369 H336 0.932 1_545 S
C369 C364 1.388 . S
C369 C368 1.443 . S
C370 N350 1.433 . S
C370 C371 1.363 . S
C370 C375 1.370 1_545 S
C371 H339 0.929 . S
C371 C370 1.363 . S
C371 C372 1.385 . S
C372 H340 0.930 . S
C372 C371 1.385 . S
C372 C373 1.357 . S
C373 C372 1.357 . S
C373 C374 1.406 1_545 S
C374 H341 0.929 . S
C374 C373 1.406 1_565 S
C374 C375 1.391 . S
C375 H342 0.931 . S
C375 C370 1.370 1_565 S
C375 C374 1.391 . S
C376 N350 1.435 . S
C376 C377 1.358 1_545 S
C376 C381 1.371 . S
C377 H343 0.930 . S
C377 C376 1.358 1_565 S
C377 C378 1.405 . S
C378 H344 0.932 . S
C378 C377 1.405 . S
C378 C379 1.383 1_565 S
C379 C378 1.383 1_545 S
C379 C380 1.393 . S
C380 H345 0.931 . S
C380 C379 1.393 . S
C380 C381 1.382 . S
C381 H346 0.929 . S
C381 C376 1.371 . S
C381 C380 1.382 . S
C382 N350 1.423 . S
C382 C383 1.362 . S
C382 C387 1.388 . S
C383 H347 0.929 . S
C383 C382 1.362 . S
C383 C384 1.376 . S
C384 H348 0.931 . S
C384 C383 1.376 . S
C384 C385 1.396 . S
C385 C367 1.472 . S
C385 C384 1.396 . S
C385 C386 1.348 . S
C386 H349 0.929 1_545 S
C386 C385 1.348 . S
C386 C387 1.443 . S
C387 H351 0.932 1_545 S
C387 C382 1.388 . S
C387 C386 1.443 . S
H388 C415 0.929 . S
N389 C414 1.433 . S
N389 C420 1.435 . S
N389 C426 1.423 . S
H390 C416 0.930 . S
H391 C419 0.931 . S
H392 C418 0.929 . S
H393 C421 0.930 . S
H394 C422 0.932 . S
H395 C425 0.929 . S
H396 C424 0.931 . S
H397 C427 0.929 . S
H398 C431 0.932 . S
H399 C428 0.931 . S
H400 C430 0.929 . S
H401 C433 0.929 . S
H402 C434 0.930 . S
H403 C436 0.929 . S
H404 C437 0.931 . S
H405 C439 0.930 . S
H406 C440 0.932 . S
H407 C442 0.931 . S
H408 C443 0.929 . S
H409 C445 0.929 . S
H410 C446 0.931 . S
H411 C448 0.929 . S
N412 C432 1.433 . S
N412 C438 1.435 . S
N412 C444 1.423 . S
H413 C449 0.932 . S
C414 N389 1.433 . S
C414 C415 1.363 . S
C414 C419 1.370 . S
C415 H388 0.929 . S
C415 C414 1.363 . S
C415 C416 1.385 . S
C416 H390 0.930 . S
C416 C415 1.385 . S
C416 C417 1.357 . S
C417 C416 1.357 . S
C417 C418 1.406 . S
C418 H392 0.929 . S
C418 C417 1.406 . S
C418 C419 1.391 . S
C419 H391 0.931 . S
C419 C414 1.370 . S
C419 C418 1.391 . S
C420 N389 1.435 . S
C420 C421 1.358 . S
C420 C425 1.371 . S
C421 H393 0.930 . S
C421 C420 1.358 . S
C421 C422 1.405 . S
C422 H394 0.932 . S
C422 C421 1.405 . S
C422 C423 1.383 . S
C423 C422 1.383 . S
C423 C424 1.393 . S
C424 H396 0.931 . S
C424 C423 1.393 . S
C424 C425 1.382 . S
C425 H395 0.929 . S
C425 C420 1.371 . S
C425 C424 1.382 . S
C426 N389 1.423 . S
C426 C427 1.362 . S
C426 C431 1.388 . S
C427 H397 0.929 . S
C427 C426 1.362 . S
C427 C428 1.376 . S
C428 H399 0.931 . S
C428 C427 1.376 . S
C428 C429 1.396 . S
C429 C428 1.396 . S
C429 C430 1.348 . S
C429 C447 1.472 . S
C430 H400 0.929 . S
C430 C429 1.348 . S
C430 C431 1.443 . S
C431 H398 0.932 . S
C431 C426 1.388 . S
C431 C430 1.443 . S
C432 N412 1.433 . S
C432 C433 1.363 . S
C432 C437 1.370 . S
C433 H401 0.929 . S
C433 C432 1.363 . S
C433 C434 1.385 . S
C434 H402 0.930 . S
C434 C433 1.385 . S
C434 C435 1.357 . S
C435 C434 1.357 . S
C435 C436 1.406 . S
C436 H403 0.929 . S
C436 C435 1.406 . S
C436 C437 1.391 . S
C437 H404 0.931 . S
C437 C432 1.370 . S
C437 C436 1.391 . S
C438 N412 1.435 . S
C438 C439 1.358 . S
C438 C443 1.371 . S
C439 H405 0.930 . S
C439 C438 1.358 . S
C439 C440 1.405 . S
C440 H406 0.932 . S
C440 C439 1.405 . S
C440 C441 1.383 . S
C441 C440 1.383 . S
C441 C442 1.393 . S
C442 H407 0.931 . S
C442 C441 1.393 . S
C442 C443 1.382 . S
C443 H408 0.929 . S
C443 C438 1.371 . S
C443 C442 1.382 . S
C444 N412 1.423 . S
C444 C445 1.362 . S
C444 C449 1.388 . S
C445 H409 0.929 . S
C445 C444 1.362 . S
C445 C446 1.376 . S
C446 H410 0.931 . S
C446 C445 1.376 . S
C446 C447 1.396 . S
C447 C429 1.472 . S
C447 C446 1.396 . S
C447 C448 1.348 . S
C448 H411 0.929 . S
C448 C447 1.348 . S
C448 C449 1.443 . S
C449 H413 0.932 . S
C449 C444 1.388 . S
C449 C448 1.443 . S
C450 C451 1.386 . S
C450 C452 1.383 . S
C450 H466 0.951 . S
C451 C450 1.386 . S
C451 C455 1.383 . S
C452 C450 1.383 . S
C452 C453 1.402 . S
C452 H467 0.951 . S
C453 C452 1.402 . S
C453 C454 1.375 . S
C453 C456 1.481 . S
C454 C453 1.375 . S
C454 C455 1.367 . S
C454 H468 0.951 . S
C455 C451 1.383 . S
C455 C454 1.367 . S
C455 H469 0.950 . S
C456 C453 1.481 . S
C456 C457 1.297 . S
C456 H470 0.950 . S
C457 C456 1.297 . S
C457 C458 1.479 . S
C457 H471 0.950 . S
C458 C457 1.479 . S
C458 C459 1.375 . S
C458 C464 1.404 . S
C459 C458 1.375 . S
C459 C460 1.369 . S
C459 H472 0.950 . S
C460 C459 1.369 . S
C460 C461 1.392 . S
C460 H473 0.951 . S
C461 C460 1.392 . S
C461 C463 1.384 . S
H462 C464 0.949 . S
C463 C461 1.384 . S
C463 C464 1.385 . S
C463 H465 0.950 . S
C464 C458 1.404 . S
C464 H462 0.949 . S
C464 C463 1.385 . S
H465 C463 0.950 . S
H466 C450 0.951 . S
H467 C452 0.951 . S
H468 C454 0.951 . S
H469 C455 0.950 . S
H470 C456 0.950 . S
H471 C457 0.950 . S
H472 C459 0.950 . S
H473 C460 0.951 . S
C474 C475 1.386 . S
C474 C476 1.383 . S
C474 H490 0.951 1_565 S
C475 C474 1.386 . S
C475 C479 1.383 . S
C476 C474 1.383 . S
C476 C477 1.402 . S
C476 H491 0.951 1_565 S
C477 C476 1.402 . S
C477 C478 1.375 . S
C477 C480 1.481 . S
C478 C477 1.375 . S
C478 C479 1.367 . S
C478 H492 0.951 . S
C479 C475 1.383 . S
C479 C478 1.367 . S
C479 H493 0.950 . S
C480 C477 1.481 . S
C480 C481 1.297 . S
C480 H494 0.950 . S
C481 C480 1.297 . S
C481 C482 1.479 . S
C481 H495 0.950 1_565 S
C482 C481 1.479 . S
C482 C483 1.375 1_565 S
C482 C488 1.404 . S
C483 C482 1.375 1_545 S
C483 C484 1.369 . S
C483 H496 0.950 . S
C484 C483 1.369 . S
C484 C485 1.392 1_545 S
C484 H497 0.951 . S
C485 C484 1.392 1_565 S
C485 C487 1.384 . S
H486 C488 0.949 . S
C487 C485 1.384 . S
C487 C488 1.385 . S
C487 H489 0.950 . S
C488 C482 1.404 . S
C488 H486 0.949 . S
C488 C487 1.385 . S
H489 C487 0.950 . S
H490 C474 0.951 1_545 S
H491 C476 0.951 1_545 S
H492 C478 0.951 . S
H493 C479 0.950 . S
H494 C480 0.950 . S
H495 C481 0.950 1_545 S
H496 C483 0.950 . S
H497 C484 0.951 . S
C498 C499 1.386 . S
C498 C500 1.383 . S
C498 H514 0.951 . S
C499 C498 1.386 . S
C499 C503 1.383 . S
C500 C498 1.383 . S
C500 C501 1.402 . S
C500 H515 0.951 . S
C501 C500 1.402 . S
C501 C502 1.375 . S
C501 C504 1.481 . S
C502 C501 1.375 . S
C502 C503 1.367 . S
C502 H516 0.951 . S
C503 C499 1.383 . S
C503 C502 1.367 . S
C503 H517 0.950 . S
C504 C501 1.481 . S
C504 C505 1.297 . S
C504 H518 0.950 . S
C505 C504 1.297 . S
C505 C506 1.479 . S
C505 H519 0.950 . S
C506 C505 1.479 . S
C506 C507 1.375 . S
C506 C512 1.404 . S
C507 C506 1.375 . S
C507 C508 1.369 . S
C507 H520 0.950 . S
C508 C507 1.369 . S
C508 C509 1.392 . S
C508 H521 0.951 . S
C509 C508 1.392 . S
C509 C511 1.384 . S
H510 C512 0.949 . S
C511 C509 1.384 . S
C511 C512 1.385 . S
C511 H513 0.950 . S
C512 C506 1.404 . S
C512 H510 0.949 . S
C512 C511 1.385 . S
H513 C511 0.950 . S
H514 C498 0.951 . S
H515 C500 0.951 . S
H516 C502 0.951 . S
H517 C503 0.950 . S
H518 C504 0.950 . S
H519 C505 0.950 . S
H520 C507 0.950 . S
H521 C508 0.951 . S
C522 C523 1.386 . S
C522 C524 1.383 . S
C522 H538 0.951 . S
C523 C522 1.386 . S
C523 C527 1.383 . S
C524 C522 1.383 . S
C524 C525 1.402 . S
C524 H539 0.951 . S
C525 C524 1.402 . S
C525 C526 1.375 . S
C525 C528 1.481 . S
C526 C525 1.375 . S
C526 C527 1.367 . S
C526 H540 0.951 . S
C527 C523 1.383 . S
C527 C526 1.367 . S
C527 H541 0.950 . S
C528 C525 1.481 . S
C528 C529 1.297 . S
C528 H542 0.950 . S
C529 C528 1.297 . S
C529 C530 1.479 . S
C529 H543 0.950 . S
C530 C529 1.479 . S
C530 C531 1.375 . S
C530 C536 1.404 . S
C531 C530 1.375 . S
C531 C532 1.369 . S
C531 H544 0.950 . S
C532 C531 1.369 . S
C532 C533 1.392 . S
C532 H545 0.951 . S
C533 C532 1.392 . S
C533 C535 1.364 1_455 S
H534 C536 0.949 . S
C535 C533 1.364 1_655 S
C535 C536 1.390 1_655 S
C535 H537 0.966 . S
C536 C530 1.404 . S
C536 H534 0.949 . S
C536 C535 1.390 1_455 S
H537 C535 0.966 . S
H538 C522 0.951 . S
H539 C524 0.951 . S
H540 C526 0.951 . S
H541 C527 0.950 . S
H542 C528 0.950 . S
H543 C529 0.950 . S
H544 C531 0.950 . S
H545 C532 0.951 . S
C546 C547 1.386 . S
C546 C548 1.383 . S
C546 H562 0.951 . S
C547 C546 1.386 . S
C547 C551 1.383 . S
C548 C546 1.383 . S
C548 C549 1.402 . S
C548 H563 0.951 . S
C549 C548 1.402 . S
C549 C550 1.375 . S
C549 C552 1.481 . S
C550 C549 1.375 . S
C550 C551 1.367 . S
C550 H564 0.951 . S
C551 C547 1.383 . S
C551 C550 1.367 . S
C551 H565 0.950 . S
C552 C549 1.481 . S
C552 C553 1.297 . S
C552 H566 0.950 . S
C553 C552 1.297 . S
C553 C554 1.479 . S
C553 H567 0.950 . S
C554 C553 1.479 . S
C554 C555 1.375 . S
C554 C560 1.404 . S
C555 C554 1.375 . S
C555 C556 1.351 1_545 S
C555 H568 0.950 . S
C556 C555 1.351 1_565 S
C556 C557 1.386 1_565 S
C556 H569 0.976 . S
C557 C556 1.386 1_545 S
C557 C559 1.384 . S
H558 C560 0.949 . S
C559 C557 1.384 . S
C559 C560 1.385 . S
C559 H561 0.950 . S
C560 C554 1.404 . S
C560 H558 0.949 . S
C560 C559 1.385 . S
H561 C559 0.950 . S
H562 C546 0.951 . S
H563 C548 0.951 . S
H564 C550 0.951 . S
H565 C551 0.950 . S
H566 C552 0.950 . S
H567 C553 0.950 . S
H568 C555 0.950 . S
H569 C556 0.976 . S
C570 C571 1.386 . S
C570 C572 1.383 . S
C570 H586 0.951 . S
C571 C570 1.386 . S
C571 C575 1.383 . S
C572 C570 1.383 . S
C572 C573 1.402 . S
C572 H587 0.951 . S
C573 C572 1.402 . S
C573 C574 1.375 . S
C573 C576 1.481 . S
C574 C573 1.375 . S
C574 C575 1.367 . S
C574 H588 0.951 . S
C575 C571 1.383 . S
C575 C574 1.367 . S
C575 H589 0.950 . S
C576 C573 1.481 . S
C576 C577 1.297 . S
C576 H590 0.950 . S
C577 C576 1.297 . S
C577 C578 1.479 . S
C577 H591 0.950 . S
C578 C577 1.479 . S
C578 C579 1.375 . S
C578 C584 1.404 . S
C579 C578 1.375 . S
C579 C580 1.369 . S
C579 H592 0.950 . S
C580 C579 1.369 . S
C580 C581 1.392 . S
C580 H593 0.951 . S
C581 C580 1.392 . S
C581 C583 1.384 . S
H582 C584 0.949 . S
C583 C581 1.384 . S
C583 C584 1.385 . S
C583 H585 0.950 . S
C584 C578 1.404 . S
C584 H582 0.949 . S
C584 C583 1.385 . S
H585 C583 0.950 . S
H586 C570 0.951 . S
H587 C572 0.951 . S
H588 C574 0.951 . S
H589 C575 0.950 . S
H590 C576 0.950 . S
H591 C577 0.950 . S
H592 C579 0.950 . S
H593 C580 0.951 . S
C594 C595 1.386 . S
C594 C596 1.383 . S
C594 H610 0.951 . S
C595 C594 1.386 . S
C595 C599 1.383 . S
C596 C594 1.383 . S
C596 C597 1.402 . S
C596 H611 0.951 . S
C597 C596 1.402 . S
C597 C598 1.365 1_545 S
C597 C600 1.481 . S
C598 C597 1.365 1_565 S
C598 C599 1.371 1_565 S
C598 H612 0.957 . S
C599 C595 1.383 . S
C599 C598 1.371 1_545 S
C599 H613 0.950 1_545 S
C600 C597 1.481 . S
C600 C601 1.297 . S
C600 H614 0.950 1_545 S
C601 C600 1.297 . S
C601 C602 1.479 . S
C601 H615 0.950 . S
C602 C601 1.479 . S
C602 C603 1.375 . S
C602 C608 1.404 1_545 S
C603 C602 1.375 . S
C603 C604 1.369 . S
C603 H616 0.950 . S
C604 C603 1.369 . S
C604 C605 1.392 1_545 S
C604 H617 0.951 . S
C605 C604 1.392 1_565 S
C605 C607 1.385 . S
H606 C608 0.949 . S
C607 C605 1.385 . S
C607 C608 1.385 . S
C607 H609 0.950 . S
C608 C602 1.404 1_565 S
C608 H606 0.949 . S
C608 C607 1.385 . S
H609 C607 0.950 . S
H610 C594 0.951 . S
H611 C596 0.951 . S
H612 C598 0.957 . S
H613 C599 0.950 1_565 S
H614 C600 0.950 1_565 S
H615 C601 0.950 . S
H616 C603 0.950 . S
H617 C604 0.951 . S
C618 C619 1.386 . S
C618 C620 1.383 . S
C618 H634 0.951 . S
C619 C618 1.386 . S
C619 C623 1.383 . S
C620 C618 1.383 . S
C620 C621 1.402 . S
C620 H635 0.951 . S
C621 C620 1.402 . S
C621 C622 1.375 . S
C621 C624 1.481 . S
C622 C621 1.375 . S
C622 C623 1.367 . S
C622 H636 0.951 . S
C623 C619 1.383 . S
C623 C622 1.367 . S
C623 H637 0.950 1_556 S
C624 C621 1.481 . S
C624 C625 1.297 . S
C624 H638 0.950 . S
C625 C624 1.297 . S
C625 C626 1.479 . S
C625 H639 0.950 . S
C626 C625 1.479 . S
C626 C627 1.375 . S
C626 C632 1.404 . S
C627 C626 1.375 . S
C627 C628 1.369 . S
C627 H640 0.950 . S
C628 C627 1.369 . S
C628 C629 1.392 . S
C628 H641 0.951 . S
C629 C628 1.392 . S
C629 C631 1.384 . S
H630 C632 0.949 . S
C631 C629 1.384 . S
C631 C632 1.385 . S
C631 H633 0.950 . S
C632 C626 1.404 . S
C632 H630 0.949 . S
C632 C631 1.385 . S
H633 C631 0.950 . S
H634 C618 0.951 . S
H635 C620 0.951 . S
H636 C622 0.951 . S
H637 C623 0.950 1_554 S
H638 C624 0.950 . S
H639 C625 0.950 . S
H640 C627 0.950 . S
H641 C628 0.951 . S
C642 C643 1.386 . S
C642 C644 1.383 . S
C642 H658 0.951 . S
C643 C642 1.386 . S
C643 C647 1.383 . S
C644 C642 1.383 . S
C644 C645 1.402 . S
C644 H659 0.951 . S
C645 C644 1.402 . S
C645 C646 1.375 . S
C645 C648 1.481 . S
C646 C645 1.375 . S
C646 C647 1.367 . S
C646 H660 0.951 . S
C647 C643 1.383 . S
C647 C646 1.367 . S
C647 H661 0.950 . S
C648 C645 1.481 . S
C648 C649 1.297 . S
C648 H662 0.950 . S
C649 C648 1.297 . S
C649 C650 1.479 . S
C649 H663 0.950 . S
C650 C649 1.479 . S
C650 C651 1.375 . S
C650 C656 1.404 . S
C651 C650 1.375 . S
C651 C652 1.367 . S
C651 H664 0.950 . S
C652 C651 1.367 . S
C652 C653 1.392 . S
C652 H665 0.953 1_655 S
C653 C652 1.392 . S
C653 C655 1.384 . S
H654 C656 0.949 . S
C655 C653 1.384 . S
C655 C656 1.385 . S
C655 H657 0.950 . S
C656 C650 1.404 . S
C656 H654 0.949 . S
C656 C655 1.385 . S
H657 C655 0.950 . S
H658 C642 0.951 . S
H659 C644 0.951 . S
H660 C646 0.951 . S
H661 C647 0.950 . S
H662 C648 0.950 . S
H663 C649 0.950 . S
H664 C651 0.950 . S
H665 C652 0.953 1_455 S
C666 C667 1.386 . S
C666 C668 1.383 . S
C666 H682 0.951 1_565 S
C667 C666 1.386 . S
C667 C671 1.383 . S
C668 C666 1.383 . S
C668 C669 1.402 . S
C668 H683 0.951 1_565 S
C669 C668 1.402 . S
C669 C670 1.375 . S
C669 C672 1.481 . S
C670 C669 1.375 . S
C670 C671 1.367 . S
C670 H684 0.951 . S
C671 C667 1.383 . S
C671 C670 1.367 . S
C671 H685 0.950 . S
C672 C669 1.481 . S
C672 C673 1.297 . S
C672 H686 0.950 . S
C673 C672 1.297 . S
C673 C674 1.479 . S
C673 H687 0.950 . S
C674 C673 1.479 . S
C674 C675 1.375 1_565 S
C674 C680 1.404 . S
C675 C674 1.375 1_545 S
C675 C676 1.369 . S
C675 H688 0.950 . S
C676 C675 1.369 . S
C676 C677 1.392 1_545 S
C676 H689 0.951 . S
C677 C676 1.392 1_565 S
C677 C679 1.384 . S
H678 C680 0.949 . S
C679 C677 1.384 . S
C679 C680 1.385 . S
C679 H681 0.950 . S
C680 C674 1.404 . S
C680 H678 0.949 . S
C680 C679 1.385 . S
H681 C679 0.950 . S
H682 C666 0.951 1_545 S
H683 C668 0.951 1_545 S
H684 C670 0.951 . S
H685 C671 0.950 . S
H686 C672 0.950 . S
H687 C673 0.950 . S
H688 C675 0.950 . S
H689 C676 0.951 . S
C690 C691 1.386 . S
C690 C692 1.383 . S
C690 H706 0.951 . S
C691 C690 1.386 . S
C691 C695 1.383 . S
C692 C690 1.383 . S
C692 C693 1.402 . S
C692 H707 0.951 . S
C693 C692 1.402 . S
C693 C694 1.375 . S
C693 C696 1.481 . S
C694 C693 1.375 . S
C694 C695 1.367 . S
C694 H708 0.951 . S
C695 C691 1.383 . S
C695 C694 1.367 . S
C695 H709 0.950 1_556 S
C696 C693 1.481 . S
C696 C697 1.297 . S
C696 H710 0.950 . S
C697 C696 1.297 . S
C697 C698 1.479 . S
C697 H711 0.950 . S
C698 C697 1.479 . S
C698 C699 1.375 . S
C698 C704 1.404 . S
C699 C698 1.375 . S
C699 C700 1.369 . S
C699 H712 0.950 . S
C700 C699 1.369 . S
C700 C701 1.392 . S
C700 H713 0.951 . S
C701 C700 1.392 . S
C701 C703 1.384 . S
H702 C704 0.949 . S
C703 C701 1.384 . S
C703 C704 1.385 . S
C703 H705 0.950 . S
C704 C698 1.404 . S
C704 H702 0.949 . S
C704 C703 1.385 . S
H705 C703 0.950 . S
H706 C690 0.951 . S
H707 C692 0.951 . S
H708 C694 0.951 . S
H709 C695 0.950 1_554 S
H710 C696 0.950 . S
H711 C697 0.950 . S
H712 C699 0.950 . S
H713 C700 0.951 . S
C714 C715 1.386 . S
C714 C716 1.383 . S
C714 H730 0.951 1_455 S
C715 C714 1.386 . S
C715 C719 1.383 . S
C716 C714 1.383 . S
C716 C717 1.402 . S
C716 H731 0.951 1_455 S
C717 C716 1.402 . S
C717 C718 1.375 . S
C717 C720 1.481 . S
C718 C717 1.375 . S
C718 C719 1.367 . S
C718 H732 0.951 . S
C719 C715 1.383 . S
C719 C718 1.367 . S
C719 H733 0.950 . S
C720 C717 1.481 . S
C720 C721 1.297 . S
C720 H734 0.950 . S
C721 C720 1.297 . S
C721 C722 1.479 . S
C721 H735 0.950 1_455 S
C722 C721 1.479 . S
C722 C723 1.375 1_455 S
C722 C728 1.404 . S
C723 C722 1.375 1_655 S
C723 C724 1.369 . S
C723 H736 0.950 . S
C724 C723 1.369 . S
C724 C725 1.392 1_655 S
C724 H737 0.951 . S
C725 C724 1.392 1_455 S
C725 C727 1.384 . S
H726 C728 0.949 . S
C727 C725 1.384 . S
C727 C728 1.385 . S
C727 H729 0.950 . S
C728 C722 1.404 . S
C728 H726 0.949 . S
C728 C727 1.385 . S
H729 C727 0.950 . S
H730 C714 0.951 1_655 S
H731 C716 0.951 1_655 S
H732 C718 0.951 . S
H733 C719 0.950 . S
H734 C720 0.950 . S
H735 C721 0.950 1_655 S
H736 C723 0.950 . S
H737 C724 0.951 . S
C461 C317 1.239 . S
C451 C29 1.281 . S
C475 C137 1.291 . S
C485 C361 1.303 1_565 S
C499 C225 1.294 . S
C509 C423 1.297 . S
C523 C49 1.276 . S
C533 C299 1.257 1_455 S
C557 C379 1.254 . S
C547 C117 1.287 . S
C571 C205 1.278 . S
C581 C441 1.227 . S
C605 C355 1.507 1_565 S
C595 C233 1.625 . S
C619 C57 1.624 . S
C629 C417 1.556 . S
C653 C293 1.536 . S
C643 C108 1.657 . S
C677 C373 1.606 1_565 S
C667 C196 1.649 . S
C701 C435 1.559 . S
C691 C20 1.624 . S
C715 C145 1.645 . S
C725 C311 1.604 1_455 S
