# Generated by pormake.
# Topology ctn, (3,4)-cn, num edge types: 1
# Building blocks:
#     Node 0, Type 0, BuildingBlock: ESEHIV_clean_linker_0, # of connection points: 3
#     Node 1, Type 0, BuildingBlock: ESEHIV_clean_linker_0, # of connection points: 3
#     Node 2, Type 0, BuildingBlock: ESEHIV_clean_linker_0, # of connection points: 3
#     Node 3, Type 0, BuildingBlock: ESEHIV_clean_linker_0, # of connection points: 3
#     Node 4, Type 0, BuildingBlock: ESEHIV_clean_linker_0, # of connection points: 3
#     Node 5, Type 0, BuildingBlock: ESEHIV_clean_linker_0, # of connection points: 3
#     Node 6, Type 0, BuildingBlock: ESEHIV_clean_linker_0, # of connection points: 3
#     Node 7, Type 0, BuildingBlock: ESEHIV_clean_linker_0, # of connection points: 3
#     Node 8, Type 0, BuildingBlock: ESEHIV_clean_linker_0, # of connection points: 3
#     Node 9, Type 0, BuildingBlock: ESEHIV_clean_linker_0, # of connection points: 3
#     Node 10, Type 0, BuildingBlock: ESEHIV_clean_linker_0, # of connection points: 3
#     Node 11, Type 0, BuildingBlock: ESEHIV_clean_linker_0, # of connection points: 3
#     Node 12, Type 0, BuildingBlock: ESEHIV_clean_linker_0, # of connection points: 3
#     Node 13, Type 0, BuildingBlock: ESEHIV_clean_linker_0, # of connection points: 3
#     Node 14, Type 0, BuildingBlock: ESEHIV_clean_linker_0, # of connection points: 3
#     Node 15, Type 0, BuildingBlock: ESEHIV_clean_linker_0, # of connection points: 3
#     Node 16, Type 1, BuildingBlock: QUQFOY_clean_sbu_1, # of connection points: 4
#     Node 17, Type 1, BuildingBlock: QUQFOY_clean_sbu_1, # of connection points: 4
#     Node 18, Type 1, BuildingBlock: QUQFOY_clean_sbu_1, # of connection points: 4
#     Node 19, Type 1, BuildingBlock: QUQFOY_clean_sbu_1, # of connection points: 4
#     Node 20, Type 1, BuildingBlock: QUQFOY_clean_sbu_1, # of connection points: 4
#     Node 21, Type 1, BuildingBlock: QUQFOY_clean_sbu_1, # of connection points: 4
#     Node 22, Type 1, BuildingBlock: QUQFOY_clean_sbu_1, # of connection points: 4
#     Node 23, Type 1, BuildingBlock: QUQFOY_clean_sbu_1, # of connection points: 4
#     Node 24, Type 1, BuildingBlock: QUQFOY_clean_sbu_1, # of connection points: 4
#     Node 25, Type 1, BuildingBlock: QUQFOY_clean_sbu_1, # of connection points: 4
#     Node 26, Type 1, BuildingBlock: QUQFOY_clean_sbu_1, # of connection points: 4
#     Node 27, Type 1, BuildingBlock: QUQFOY_clean_sbu_1, # of connection points: 4
#     Edge 28, Type (0, 1), BuildingBlock: AJUNOK_clean_linker_0, # of connection points: 2
#     Edge 29, Type (0, 1), BuildingBlock: AJUNOK_clean_linker_0, # of connection points: 2
#     Edge 30, Type (0, 1), BuildingBlock: AJUNOK_clean_linker_0, # of connection points: 2
#     Edge 31, Type (0, 1), BuildingBlock: AJUNOK_clean_linker_0, # of connection points: 2
#     Edge 32, Type (0, 1), BuildingBlock: AJUNOK_clean_linker_0, # of connection points: 2
#     Edge 33, Type (0, 1), BuildingBlock: AJUNOK_clean_linker_0, # of connection points: 2
#     Edge 34, Type (0, 1), BuildingBlock: AJUNOK_clean_linker_0, # of connection points: 2
#     Edge 35, Type (0, 1), BuildingBlock: AJUNOK_clean_linker_0, # of connection points: 2
#     Edge 36, Type (0, 1), BuildingBlock: AJUNOK_clean_linker_0, # of connection points: 2
#     Edge 37, Type (0, 1), BuildingBlock: AJUNOK_clean_linker_0, # of connection points: 2
#     Edge 38, Type (0, 1), BuildingBlock: AJUNOK_clean_linker_0, # of connection points: 2
#     Edge 39, Type (0, 1), BuildingBlock: AJUNOK_clean_linker_0, # of connection points: 2
#     Edge 40, Type (0, 1), BuildingBlock: AJUNOK_clean_linker_0, # of connection points: 2
#     Edge 41, Type (0, 1), BuildingBlock: AJUNOK_clean_linker_0, # of connection points: 2
#     Edge 42, Type (0, 1), BuildingBlock: AJUNOK_clean_linker_0, # of connection points: 2
#     Edge 43, Type (0, 1), BuildingBlock: AJUNOK_clean_linker_0, # of connection points: 2
#     Edge 44, Type (0, 1), BuildingBlock: AJUNOK_clean_linker_0, # of connection points: 2
#     Edge 45, Type (0, 1), BuildingBlock: AJUNOK_clean_linker_0, # of connection points: 2
#     Edge 46, Type (0, 1), BuildingBlock: AJUNOK_clean_linker_0, # of connection points: 2
#     Edge 47, Type (0, 1), BuildingBlock: AJUNOK_clean_linker_0, # of connection points: 2
#     Edge 48, Type (0, 1), BuildingBlock: AJUNOK_clean_linker_0, # of connection points: 2
#     Edge 49, Type (0, 1), BuildingBlock: AJUNOK_clean_linker_0, # of connection points: 2
#     Edge 50, Type (0, 1), BuildingBlock: AJUNOK_clean_linker_0, # of connection points: 2
#     Edge 51, Type (0, 1), BuildingBlock: AJUNOK_clean_linker_0, # of connection points: 2
#     Edge 52, Type (0, 1), BuildingBlock: AJUNOK_clean_linker_0, # of connection points: 2
#     Edge 53, Type (0, 1), BuildingBlock: AJUNOK_clean_linker_0, # of connection points: 2
#     Edge 54, Type (0, 1), BuildingBlock: AJUNOK_clean_linker_0, # of connection points: 2
#     Edge 55, Type (0, 1), BuildingBlock: AJUNOK_clean_linker_0, # of connection points: 2
#     Edge 56, Type (0, 1), BuildingBlock: AJUNOK_clean_linker_0, # of connection points: 2
#     Edge 57, Type (0, 1), BuildingBlock: AJUNOK_clean_linker_0, # of connection points: 2
#     Edge 58, Type (0, 1), BuildingBlock: AJUNOK_clean_linker_0, # of connection points: 2
#     Edge 59, Type (0, 1), BuildingBlock: AJUNOK_clean_linker_0, # of connection points: 2
#     Edge 60, Type (0, 1), BuildingBlock: AJUNOK_clean_linker_0, # of connection points: 2
#     Edge 61, Type (0, 1), BuildingBlock: AJUNOK_clean_linker_0, # of connection points: 2
#     Edge 62, Type (0, 1), BuildingBlock: AJUNOK_clean_linker_0, # of connection points: 2
#     Edge 63, Type (0, 1), BuildingBlock: AJUNOK_clean_linker_0, # of connection points: 2
#     Edge 64, Type (0, 1), BuildingBlock: AJUNOK_clean_linker_0, # of connection points: 2
#     Edge 65, Type (0, 1), BuildingBlock: AJUNOK_clean_linker_0, # of connection points: 2
#     Edge 66, Type (0, 1), BuildingBlock: AJUNOK_clean_linker_0, # of connection points: 2
#     Edge 67, Type (0, 1), BuildingBlock: AJUNOK_clean_linker_0, # of connection points: 2
#     Edge 68, Type (0, 1), BuildingBlock: AJUNOK_clean_linker_0, # of connection points: 2
#     Edge 69, Type (0, 1), BuildingBlock: AJUNOK_clean_linker_0, # of connection points: 2
#     Edge 70, Type (0, 1), BuildingBlock: AJUNOK_clean_linker_0, # of connection points: 2
#     Edge 71, Type (0, 1), BuildingBlock: AJUNOK_clean_linker_0, # of connection points: 2
#     Edge 72, Type (0, 1), BuildingBlock: AJUNOK_clean_linker_0, # of connection points: 2
#     Edge 73, Type (0, 1), BuildingBlock: AJUNOK_clean_linker_0, # of connection points: 2
#     Edge 74, Type (0, 1), BuildingBlock: AJUNOK_clean_linker_0, # of connection points: 2
#     Edge 75, Type (0, 1), BuildingBlock: AJUNOK_clean_linker_0, # of connection points: 2
# Relax obj value: 0.038
# Max RMSD: 0.147
# Mean RMSD: 0.068
data_MOF--net-ctn--node1-QUQFOY_clean_sbu_1--node2-ESEHIV_clean_linker_0--edge1-AJUNOK_clean_linker_0
_symmetry_space_group_name_H-M    P1
_symmetry_Int_Tables_number       1
_symmetry_cell_setting            triclinic
loop_
_symmetry_equiv_pos_as_xyz
'x, y, z'
_cell_length_a     37.625839
_cell_length_b     37.654166
_cell_length_c     37.633886
_cell_angle_alpha  92.996048
_cell_angle_beta   89.98333
_cell_angle_gamma 94.944339
loop_
_atom_site_label
_atom_site_type_symbol
_atom_site_fract_x
_atom_site_fract_y
_atom_site_fract_z
_atom_type_partial_charge
H0 H 0.97422 0.09825 0.05911 0.0
H1 H 0.04301 0.01638 0.07973 0.0
H2 H 0.0641 0.08265 0.99112 0.0
C3 C -0.0028 0.08393 0.05202 0.0
C4 C 0.01766 0.09326 0.02212 0.0
C5 C 0.00595 0.05597 0.07266 0.0
C6 C 0.03602 0.03784 0.0637 0.0
C7 C 0.05698 0.04687 0.03411 0.0
C8 C 0.04788 0.07504 0.01372 0.0
H9 H 0.29538 0.6988 0.27351 0.0
H10 H 0.32229 0.79416 0.21757 0.0
H11 H 0.2359 0.71888 0.18045 0.0
C12 C 0.29074 0.71565 0.25177 0.0
C13 C 0.26327 0.70514 0.22748 0.0
C14 C 0.31231 0.74751 0.24847 0.0
C15 C 0.30585 0.7694 0.22047 0.0
C16 C 0.2784 0.75898 0.1958 0.0
C17 C 0.25706 0.72695 0.19951 0.0
H18 H 0.95135 0.54381 0.10571 0.0
H19 H 0.99513 0.44305 0.0831 0.0
H20 H 0.91466 0.47626 0.01486 0.0
C21 C 0.95195 0.51915 0.08963 0.0
C22 C 0.92935 0.51278 0.0598 0.0
C23 C 0.97601 0.49423 0.09824 0.0
C24 C 0.97748 0.46302 0.07645 0.0
C25 C 0.95594 0.45696 0.04618 0.0
C26 C 0.93161 0.48149 0.03818 0.0
H27 H 0.66946 0.7435 0.24551 0.0
H28 H 0.7626 0.80607 0.21048 0.0
H29 H 0.71001 0.83789 0.30682 0.0
C30 C 0.68975 0.76548 0.25021 0.0
C31 C 0.68672 0.78983 0.27939 0.0
C32 C 0.71753 0.77097 0.22558 0.0
C33 C 0.7424 0.80074 0.23052 0.0
C34 C 0.73943 0.82536 0.25933 0.0
C35 C 0.71228 0.81907 0.28429 0.0
H36 H 0.98675 0.94007 0.46165 0.0
H37 H 0.06037 0.02613 0.42976 0.0
H38 H 0.08376 0.96873 0.52121 0.0
C39 C 0.01154 0.95667 0.46586 0.0
C40 C 0.03452 0.95025 0.49389 0.0
C41 C 0.02064 0.98419 0.44286 0.0
C42 C 0.05331 0.00469 0.4473 0.0
C43 C 0.07618 -0.00117 0.47528 0.0
C44 C 0.06645 0.97216 0.49886 0.0
H45 H 0.18538 0.78833 0.80086 0.0
H46 H 0.272 0.73443 0.84049 0.0
H47 H 0.21756 0.69441 0.74408 0.0
C48 C 0.20381 0.76779 0.79753 0.0
C49 C 0.19986 0.74313 0.76832 0.0
C50 C 0.22915 0.76438 0.82404 0.0
C51 C 0.25184 0.73682 0.82038 0.0
C52 C 0.24768 0.71126 0.79184 0.0
C53 C 0.22174 0.71463 0.7656 0.0
H54 H 0.93953 0.55568 0.55144 0.0
H55 H 0.03492 0.59471 0.498 0.0
H56 H 0.97962 0.4943 0.46316 0.0
C57 C 0.96042 0.55149 0.53217 0.0
C58 C 0.95729 0.52132 0.50876 0.0
C59 C 0.98819 0.57815 0.5282 0.0
C60 C 0.01389 0.57368 0.50176 0.0
C61 C 0.01126 0.54314 0.4787 0.0
C62 C 0.98302 0.51685 0.48237 0.0
H63 H 0.7524 0.82994 0.86545 0.0
H64 H 0.81153 0.86705 0.77489 0.0
H65 H 0.84135 0.77488 0.82671 0.0
C66 C 0.77406 0.82733 0.84675 0.0
C67 C 0.79613 0.79933 0.84925 0.0
C68 C 0.77924 0.85158 0.81976 0.0
C69 C 0.80688 0.8478 0.79517 0.0
C70 C 0.82915 0.81991 0.79729 0.0
C71 C 0.82387 0.79611 0.82467 0.0
H72 H 0.26022 0.33108 0.37405 0.0
H73 H 0.31672 0.36187 0.27975 0.0
H74 H 0.34173 0.26786 0.33127 0.0
C75 C 0.28042 0.32625 0.35425 0.0
C76 C 0.30105 0.29711 0.35682 0.0
C77 C 0.28551 0.34922 0.32615 0.0
C78 C 0.31209 0.34351 0.30086 0.0
C79 C 0.33342 0.31494 0.30343 0.0
C80 C 0.32689 0.29124 0.33073 0.0
H81 H 0.44492 0.02795 0.60882 0.0
H82 H 0.4978 0.93271 0.58469 0.0
H83 H 0.40896 0.95607 0.52103 0.0
C84 C 0.44709 0.00346 0.59286 0.0
C85 C 0.42373 0.99484 0.56401 0.0
C86 C 0.47395 0.98119 0.60052 0.0
C87 C 0.47682 0.94978 0.57944 0.0
C88 C 0.45321 0.94051 0.55111 0.0
C89 C 0.42671 0.96298 0.5435 0.0
H90 H 0.16988 0.25226 0.73852 0.0
H91 H 0.2644 0.31211 0.70271 0.0
H92 H 0.20831 0.35065 0.79433 0.0
C93 C 0.1899 0.27463 0.74228 0.0
C94 C 0.18578 0.30101 0.76941 0.0
C95 C 0.2189 0.27803 0.71878 0.0
C96 C 0.24332 0.30835 0.72215 0.0
C97 C 0.23927 0.33501 0.74886 0.0
C98 C 0.21115 0.33054 0.77307 0.0
H99 H 0.79553 0.20729 0.77702 0.0
H100 H 0.81838 0.29859 0.71441 0.0
H101 H 0.727 0.2246 0.68945 0.0
C102 C 0.78826 0.22367 0.75575 0.0
C103 C 0.7576 0.21332 0.73551 0.0
C104 C 0.80989 0.25468 0.74901 0.0
C105 C 0.80171 0.27466 0.72014 0.0
C106 C 0.77222 0.26337 0.69821 0.0
C107 C 0.75009 0.23284 0.70605 0.0
H108 H 0.49235 0.59383 0.561 0.0
H109 H 0.56659 0.52055 0.59148 0.0
H110 H 0.57626 0.5671 0.48946 0.0
C111 C 0.5157 0.57963 0.55522 0.0
C112 C 0.53396 0.5846 0.52303 0.0
C113 C 0.52694 0.5561 0.57971 0.0
C114 C 0.55707 0.53766 0.57193 0.0
C115 C 0.57476 0.54086 0.53923 0.0
C116 C 0.56317 0.5647 0.51497 0.0
H117 H 0.48117 0.44648 0.97088 0.0
H118 H 0.54786 0.53893 0.94254 0.0
H119 H 0.57499 0.48181 0.03316 0.0
C120 C 0.50436 0.46516 0.97622 0.0
C121 C 0.52724 0.46039 0.00482 0.0
C122 C 0.51148 0.49376 0.95412 0.0
C123 C 0.54179 0.51745 0.96029 0.0
C124 C 0.56525 0.5125 0.98809 0.0
C125 C 0.5575 0.48452 0.01076 0.0
H126 H 0.6981 0.29406 0.28788 0.0
H127 H 0.77412 0.23223 0.3359 0.0
H128 H 0.7211 0.19292 0.23879 0.0
C129 C 0.71328 0.27086 0.28726 0.0
C130 C 0.70709 0.24437 0.25986 0.0
C131 C 0.73661 0.26631 0.31535 0.0
C132 C 0.75612 0.23616 0.31425 0.0
C133 C 0.75117 0.20988 0.28644 0.0
C134 C 0.7265 0.21403 0.25927 0.0
H135 H 0.42443 0.06738 0.04219 0.0
H136 H 0.51941 0.1004 0.98483 0.0
H137 H 0.45387 0.00576 0.94926 0.0
C138 C 0.44318 0.06266 0.02089 0.0
C139 C 0.43615 0.03364 -0.00347 0.0
C140 C 0.47309 0.08679 0.01673 0.0
C141 C 0.49644 0.08146 0.9883 0.0
C142 C 0.4897 0.05218 0.96389 0.0
C143 C 0.4594 0.02837 0.96807 0.0
O144 O 0.24527 0.85051 0.97864 0.0
Cd145 Cd 0.2594 0.87958 0.02507 0.0
Cd146 Cd 0.22549 0.93117 0.98644 0.0
O147 O 0.21952 0.89011 0.94856 0.0
O148 O 0.28384 0.84256 0.04892 0.0
O149 O 0.23777 0.86731 0.07272 0.0
C150 C 0.26157 0.84477 0.07462 0.0
C151 C 0.17678 0.96339 -0.00012 0.0
C152 C 0.23004 0.85918 0.95068 0.0
C153 C 0.30199 0.94821 0.00692 0.0
O154 O 0.27519 0.95761 0.99045 0.0
O155 O 0.30031 0.91921 0.02282 0.0
O156 O 0.19349 0.96646 0.97017 0.0
O157 O 0.18782 0.94187 0.02229 0.0
O158 O 0.18602 0.5584 0.28531 0.0
Cd159 Cd 0.16154 0.51486 0.30968 0.0
Cd160 Cd 0.10212 0.53993 0.27168 0.0
O161 O 0.13988 0.57964 0.26007 0.0
O162 O 0.20203 0.49566 0.33418 0.0
O163 O 0.17095 0.46525 0.29121 0.0
C164 C 0.19651 0.46687 0.3143 0.0
C165 C 0.06456 0.52121 0.2244 0.0
C166 C 0.17297 0.58155 0.26694 0.0
C167 C 0.09525 0.53228 0.3506 0.0
O168 O 0.0812 0.53984 0.32165 0.0
O169 O 0.12644 0.52183 0.35128 0.0
O170 O 0.06064 0.55039 0.24276 0.0
O171 O 0.08939 0.5018 0.23351 0.0
O172 O 0.75169 0.70989 0.98813 0.0
Cd173 Cd 0.73202 0.67787 0.02751 0.0
Cd174 Cd 0.77224 0.62919 0.99501 0.0
O175 O 0.7804 0.66876 0.95923 0.0
O176 O 0.70713 0.70994 0.0605 0.0
O177 O 0.75282 0.68133 0.07696 0.0
C178 C 0.72816 0.70208 0.08533 0.0
C179 C 0.82113 0.60261 0.01601 0.0
C180 C 0.77008 0.70004 0.96168 0.0
C181 C 0.69472 0.60743 0.00195 0.0
O182 O 0.72491 0.59754 0.99271 0.0
O183 O 0.69203 0.63884 0.01492 0.0
O184 O 0.80962 0.59629 0.98385 0.0
O185 O 0.80521 0.62492 0.03635 0.0
O186 O 0.93368 0.00119 0.29734 0.0
Cd187 Cd 0.90205 -0.00167 0.25278 0.0
Cd188 Cd 0.85585 0.02954 0.29686 0.0
O189 O 0.89602 0.02621 0.33368 0.0
O190 O 0.93376 0.98572 0.21285 0.0
O191 O 0.90763 0.03622 0.21686 0.0
C192 C 0.92805 0.01555 0.19958 0.0
C193 C 0.82742 0.08224 0.29434 0.0
C194 C 0.92561 0.01293 0.32828 0.0
C195 C 0.83233 0.95676 0.26546 0.0
O196 O 0.82422 0.98327 0.28507 0.0
O197 O 0.86222 0.95745 0.24981 0.0
O198 O 0.82249 0.06145 0.32032 0.0
O199 O 0.84952 0.07349 0.26977 0.0
O200 O 0.24808 0.19884 0.48834 0.0
Cd201 Cd 0.23422 0.16675 0.52983 0.0
Cd202 Cd 0.27845 0.12361 0.49467 0.0
O203 O 0.29171 0.16855 0.46692 0.0
O204 O 0.20721 0.19726 0.56264 0.0
O205 O 0.25763 0.17594 0.5779 0.0
C206 C 0.23123 0.19441 0.58644 0.0
C207 C 0.32296 0.09178 0.51715 0.0
C208 C 0.27382 0.19565 0.4669 0.0
C209 C 0.20194 0.09687 0.49857 0.0
O210 O 0.23128 0.09337 0.48268 0.0
O211 O 0.19869 0.12315 0.52041 0.0
O212 O 0.31599 0.09091 0.48356 0.0
O213 O 0.30529 0.11202 0.53813 0.0
O214 O 0.43433 0.50021 0.80002 0.0
Cd215 Cd 0.40818 0.50188 0.75264 0.0
Cd216 Cd 0.36014 0.53527 0.79438 0.0
O217 O 0.39859 0.53155 0.83311 0.0
O218 O 0.44365 0.48932 0.71617 0.0
O219 O 0.42037 0.54135 0.71949 0.0
C220 C 0.44172 0.52042 0.70395 0.0
C221 C 0.33012 0.58731 0.79418 0.0
C222 C 0.42609 0.51425 0.82994 0.0
C223 C 0.33644 0.46339 0.75873 0.0
O224 O 0.3289 0.48915 0.77971 0.0
O225 O 0.36671 0.46363 0.7439 0.0
O226 O 0.32513 0.56477 0.81861 0.0
O227 O 0.35315 0.58075 0.76977 0.0
O228 O 0.76361 0.3469 0.47002 0.0
Cd229 Cd 0.77507 0.37192 0.51899 0.0
Cd230 Cd 0.74287 0.42583 0.48727 0.0
O231 O 0.73457 0.3883 0.44585 0.0
O232 O 0.78996 0.33236 0.54678 0.0
O233 O 0.74566 0.36452 0.56321 0.0
C234 C 0.76557 0.33925 0.56946 0.0
C235 C 0.69511 0.45815 0.50438 0.0
C236 C 0.74673 0.35785 0.44413 0.0
C237 C 0.82077 0.43863 0.50806 0.0
O238 O 0.7938 0.45015 0.49361 0.0
O239 O 0.81863 0.40824 0.52127 0.0
O240 O 0.71354 0.46555 0.47645 0.0
O241 O 0.704 0.43238 0.52297 0.0
O242 O 0.68365 0.06838 0.80124 0.0
Cd243 Cd 0.65918 0.02115 0.81737 0.0
Cd244 Cd 0.60665 0.03586 0.76819 0.0
O245 O 0.64645 0.0744 0.75702 0.0
O246 O 0.69639 -0.00373 0.84095 0.0
O247 O 0.6685 0.97489 0.79157 0.0
C248 C 0.69193 0.97146 0.816 0.0
C249 C 0.57081 0.01841 0.71892 0.0
C250 C 0.67446 0.08481 0.77459 0.0
C251 C 0.58761 0.03294 0.84671 0.0
O252 O 0.57887 0.03938 0.81527 0.0
O253 O 0.61859 0.02404 0.85335 0.0
O254 O 0.57046 0.04952 0.73451 0.0
O255 O 0.59132 -0.00363 0.73164 0.0
O256 O 0.9568 0.30657 0.951 0.0
Cd257 Cd 0.9598 0.26255 0.91726 0.0
Cd258 Cd -0.00109 0.30752 0.87727 0.0
O259 O 0.99425 0.34205 0.92116 0.0
O260 O 0.94479 0.22089 0.9456 0.0
O261 O -0.0009 0.23043 0.92348 0.0
C262 C 0.9766 0.21105 0.94179 0.0
C263 C 0.05448 0.30401 0.85067 0.0
C264 C 0.97399 0.33669 0.94773 0.0
C265 C 0.92887 0.27728 0.84707 0.0
O266 O 0.956 0.29909 0.843 0.0
O267 O 0.92594 0.25882 0.87437 0.0
O268 O 0.03659 0.33143 0.84801 0.0
O269 O 0.04105 0.2785 0.86951 0.0
O270 O 0.45376 0.78892 0.45665 0.0
Cd271 Cd 0.45706 0.74603 0.42129 0.0
Cd272 Cd 0.49761 0.79091 0.38371 0.0
O273 O 0.4924 0.82437 0.4282 0.0
O274 O 0.44758 0.70181 0.4476 0.0
O275 O 0.49975 0.71785 0.4233 0.0
C276 C 0.48039 0.69568 0.44183 0.0
C277 C 0.5539 0.78881 0.35822 0.0
C278 C 0.47164 0.81886 0.45435 0.0
C279 C 0.42748 0.76273 0.35149 0.0
O280 O 0.45534 0.78387 0.34855 0.0
O281 O 0.4233 0.74362 0.37826 0.0
O282 O 0.53579 0.81611 0.35596 0.0
O283 O 0.54017 0.76248 0.37576 0.0
O284 O 0.96782 0.77674 0.70694 0.0
Cd285 Cd 0.00749 0.75624 0.67634 0.0
Cd286 Cd 0.97389 0.78936 0.62247 0.0
O287 O 0.93861 0.79809 0.66314 0.0
O288 O 0.03841 0.73472 0.71043 0.0
O289 O 0.0582 0.77847 0.67671 0.0
C290 C 0.06472 0.75554 0.6997 0.0
C291 C 0.99294 0.83705 0.58868 0.0
C292 C 0.9413 0.79182 0.69581 0.0
C293 C 0.98315 0.71188 0.61039 0.0
O294 O 0.97359 0.73981 0.59704 0.0
O295 O 0.99517 0.71304 0.64192 0.0
O296 O 0.96105 0.82174 0.58546 0.0
O297 O 0.01409 0.82559 0.61173 0.0
O298 O 0.47275 0.27523 0.20907 0.0
Cd299 Cd 0.51113 0.25693 0.1753 0.0
Cd300 Cd 0.4743 0.29152 0.12581 0.0
O301 O 0.44044 0.29764 0.16829 0.0
O302 O 0.54387 0.23446 0.2068 0.0
O303 O 0.56166 0.27972 0.1742 0.0
C304 C 0.56947 0.25603 0.19587 0.0
C305 C 0.49164 0.34139 0.09435 0.0
C306 C 0.44524 0.29017 0.20037 0.0
C307 C 0.48348 0.21479 0.10929 0.0
O308 O 0.47316 0.24325 0.09772 0.0
O309 O 0.49744 0.21484 0.13992 0.0
O310 O 0.45985 0.32578 0.09144 0.0
O311 O 0.51375 0.32885 0.11574 0.0
C312 C 0.22831 0.82495 0.85434 0.0
C313 C 0.2296 0.78796 0.85681 0.0
C314 C 0.2273 0.84763 0.8849 0.0
C315 C 0.22783 0.83419 0.91907 0.0
H316 H 0.22839 0.8365 0.82856 0.0
H317 H 0.22702 0.87603 0.88166 0.0
S318 S 0.22796 0.73898 0.93996 0.0
N319 N 0.22869 0.73856 0.89609 0.0
N320 N 0.2279 0.78137 0.95361 0.0
C321 C 0.22854 0.79718 0.92193 0.0
C322 C 0.22921 0.77404 0.89079 0.0
C323 C 0.05833 0.51548 0.44255 0.0
C324 C 0.03407 0.54165 0.44704 0.0
C325 C 0.07888 0.5131 0.41153 0.0
C326 C 0.07497 0.53624 0.38387 0.0
H327 H 0.06131 0.49678 0.46304 0.0
H328 H 0.09721 0.49246 0.4088 0.0
S329 S 0.01502 0.60953 0.38357 0.0
N330 N 0.00755 0.59138 0.42215 0.0
N331 N 0.04553 0.58666 0.36358 0.0
C332 C 0.05083 0.56262 0.38836 0.0
C333 C 0.0305 0.56537 0.42006 0.0
C334 C 0.78453 0.78573 0.91289 0.0
C335 C 0.79015 0.77345 0.87755 0.0
C336 C 0.77846 0.76183 0.93999 0.0
C337 C 0.77813 0.72475 0.93286 0.0
H338 H 0.785 0.81408 0.9197 0.0
H339 H 0.77413 0.77254 0.96678 0.0
S340 S 0.78926 0.67879 0.84437 0.0
N341 N 0.79316 0.72168 0.83656 0.0
N342 N 0.7828 0.6768 0.88763 0.0
C343 C 0.78377 0.71209 0.89765 0.0
C344 C 0.78951 0.73641 0.86998 0.0
C345 C 0.00809 0.99338 0.37906 0.0
C346 C 0.996 0.99214 0.41432 0.0
C347 C 0.98535 0.00103 0.35158 0.0
C348 C 0.94979 0.00822 0.35841 0.0
H349 H 0.0352 0.98785 0.37261 0.0
H350 H 0.99571 0.00102 0.32472 0.0
S351 S 0.906 0.01007 0.44691 0.0
N352 N 0.94693 -5e-05 0.45509 0.0
N353 N 0.90399 0.01453 0.40355 0.0
C354 C 0.93767 0.0079 0.39383 0.0
C355 C 0.9608 -0.00029 0.42174 0.0
C356 C 0.19254 0.246 0.66417 0.0
C357 C 0.22152 0.2526 0.68776 0.0
C358 C 0.19585 0.22639 0.63192 0.0
C359 C 0.22821 0.21242 0.6221 0.0
H360 H 0.16756 0.25738 0.66996 0.0
H361 H 0.17296 0.22283 0.61424 0.0
S362 S 0.31112 0.21971 0.67637 0.0
N363 N 0.28286 0.24188 0.70054 0.0
N364 N 0.28918 0.20474 0.63984 0.0
C365 C 0.25695 0.21748 0.64625 0.0
C366 C 0.2536 0.2377 0.67906 0.0
C367 C 0.49749 0.51277 0.6207 0.0
C368 C 0.50575 0.54844 0.61217 0.0
C369 C 0.47683 0.50421 0.65041 0.0
C370 C 0.46321 0.53093 0.67268 0.0
H371 H 0.50663 0.49113 0.60396 0.0
H372 H 0.47115 0.47628 0.65565 0.0
S373 S 0.47858 0.62863 0.6632 0.0
N374 N 0.50007 0.61089 0.62934 0.0
N375 N 0.46028 0.59469 0.68486 0.0
C376 C 0.47127 0.56678 0.66462 0.0
C377 C 0.49273 0.57556 0.63445 0.0
C378 C 0.77211 0.26523 0.63242 0.0
C379 C 0.76608 0.28217 0.6657 0.0
C380 C 0.77057 0.28367 0.6012 0.0
C381 C 0.76218 0.3194 0.6022 0.0
H382 H 0.77946 0.23799 0.63068 0.0
H383 H 0.7767 0.27006 0.57616 0.0
S384 S 0.74204 0.37479 0.68284 0.0
N385 N 0.75024 0.33594 0.69808 0.0
N386 N 0.74625 0.37051 0.63915 0.0
C387 C 0.75449 0.3361 0.63524 0.0
C388 C 0.75681 0.3175 0.66712 0.0
C389 C 0.50796 0.96515 0.65373 0.0
C390 C 0.49966 0.99096 0.62996 0.0
C391 C 0.53195 0.97385 0.68196 0.0
C392 C 0.54798 0.00875 0.6876 0.0
H393 H 0.49536 0.93818 0.65087 0.0
H394 H 0.53714 0.95344 0.70007 0.0
S395 S 0.53844 0.085 0.63081 0.0
N396 N 0.51212 0.05193 0.61208 0.0
N397 N 0.55606 0.0686 0.66595 0.0
C398 C 0.54061 0.03456 0.66362 0.0
C399 C 0.51669 0.0256 0.6346 0.0
C400 C 0.83543 0.26385 0.81 0.0
C401 C 0.84054 0.26533 0.77305 0.0
C402 C 0.86425 0.26806 0.83357 0.0
C403 C 0.89927 0.27469 0.82124 0.0
H404 H 0.80892 0.25836 0.82075 0.0
H405 H 0.85901 0.26593 0.86174 0.0
S406 S 0.92707 0.28306 0.72731 0.0
N407 N 0.88325 0.27483 0.72523 0.0
N408 N 0.93762 0.28428 0.77 0.0
C409 C 0.90478 0.27804 0.78457 0.0
C410 C 0.87534 0.27309 0.76035 0.0
C411 C 0.48994 0.90537 0.50968 0.0
C412 C 0.45777 0.90838 0.52805 0.0
C413 C 0.49441 0.87595 0.48632 0.0
C414 C 0.46706 0.84825 0.48105 0.0
H415 H 0.5115 0.92632 0.51279 0.0
H416 H 0.51941 0.87503 0.47216 0.0
S417 S 0.37815 0.84324 0.52426 0.0
N418 N 0.39848 0.88131 0.54036 0.0
N419 N 0.40686 0.82549 0.49686 0.0
C420 C 0.43503 0.85061 0.50006 0.0
C421 C 0.43035 0.88087 0.52341 0.0
C422 C 0.134 0.33112 0.79358 0.0
C423 C 0.15297 0.30053 0.79123 0.0
C424 C 0.10263 0.33191 0.8133 0.0
C425 C 0.08878 0.30214 0.83157 0.0
H426 H 0.14319 0.35458 0.77956 0.0
H427 H 0.08903 0.35614 0.81387 0.0
S428 S 0.12906 0.21571 0.8347 0.0
N429 N 0.15638 0.23994 0.80934 0.0
N430 N 0.09698 0.24119 0.84649 0.0
C431 C 0.10767 0.27137 0.82975 0.0
C432 C 0.13977 0.27058 0.80947 0.0
C433 C 0.4851 0.611 0.491 0.0
C434 C 0.52177 0.61044 0.49806 0.0
C435 C 0.47221 0.63788 0.47154 0.0
C436 C 0.49545 0.66516 0.45803 0.0
H437 H 0.46605 0.59094 0.50136 0.0
H438 H 0.44364 0.63767 0.46781 0.0
S439 S 0.59411 0.67465 0.46708 0.0
N440 N 0.58137 0.63873 0.48874 0.0
N441 N 0.55721 0.68883 0.45132 0.0
C442 C 0.53237 0.66393 0.46325 0.0
C443 C 0.54551 0.63666 0.48343 0.0
C444 C 0.8922 0.80886 0.78233 0.0
C445 C 0.85782 0.81511 0.77086 0.0
C446 C 0.91913 0.80192 0.75789 0.0
C447 C 0.9128 0.80114 0.72098 0.0
H448 H 0.89831 0.80912 0.81048 0.0
H449 H 0.94507 0.79696 0.76808 0.0
S450 S 0.82694 0.81526 0.67728 0.0
N451 N 0.81862 0.81956 0.72028 0.0
N452 N 0.8693 0.80724 0.6742 0.0
C453 C 0.87861 0.80794 0.70915 0.0
C454 C 0.85114 0.81477 0.7341 0.0
C455 C 0.98971 0.91626 0.53129 0.0
C456 C 0.02481 0.92131 0.51843 0.0
C457 C 0.97979 0.88912 0.5543 0.0
C458 C 0.00471 0.86643 0.56584 0.0
H459 H 0.96973 0.93354 0.52371 0.0
H460 H 0.9524 0.88606 0.56333 0.0
S461 S 0.09936 0.86682 0.53849 0.0
N462 N 0.08405 0.89978 0.51746 0.0
N463 N 0.0656 0.84982 0.56202 0.0
C464 C 0.03989 0.87117 0.55344 0.0
C465 C 0.04989 0.89835 0.52942 0.0
C466 C 0.14193 0.71634 0.74352 0.0
C467 C 0.16881 0.7446 0.74457 0.0
C468 C 0.10866 0.72004 0.72821 0.0
C469 C 0.10116 0.75202 0.71305 0.0
H470 H 0.14591 0.69192 0.75643 0.0
H471 H 0.08838 0.69785 0.729 0.0
S472 S 0.16408 0.83276 0.70617 0.0
N473 N 0.18693 0.80471 0.72726 0.0
N474 N 0.12444 0.81156 0.6978 0.0
C475 C 0.12856 0.77979 0.71214 0.0
C476 C 0.16237 0.77612 0.72811 0.0
C477 C 0.98705 0.61351 0.58587 0.0
C478 C 0.98734 0.61249 0.54858 0.0
C479 C 0.98506 0.64577 0.60562 0.0
C480 C 0.98271 0.67801 0.58871 0.0
H481 H 0.98866 0.58923 0.59982 0.0
H482 H 0.98542 0.6454 0.63438 0.0
S483 S 0.98068 0.6887 0.4912 0.0
N484 N 0.98385 0.64565 0.49522 0.0
N485 N 0.98 0.7065 0.53221 0.0
C486 C 0.98226 0.67709 0.55128 0.0
C487 C 0.98467 0.64426 0.53124 0.0
C488 C 0.79955 0.85886 0.25609 0.0
C489 C 0.7626 0.85925 0.26127 0.0
C490 C 0.8218 0.89064 0.25671 0.0
C491 C 0.80791 0.92393 0.26283 0.0
H492 H 0.81141 0.83377 0.2518 0.0
H493 H 0.8502 0.88903 0.25311 0.0
S494 S 0.71258 0.93968 0.27465 0.0
N495 N 0.71272 0.89586 0.26997 0.0
N496 N 0.75476 0.95556 0.2723 0.0
C497 C 0.77096 0.92476 0.26755 0.0
C498 C 0.74824 0.89243 0.2665 0.0
C499 C 0.79139 0.16571 0.26008 0.0
C500 C 0.76941 0.17665 0.28804 0.0
C501 C 0.81033 0.13531 0.26238 0.0
C502 C 0.80764 0.11463 0.2926 0.0
H503 H 0.79446 0.18112 0.23659 0.0
H504 H 0.82715 0.12801 0.24029 0.0
S505 S 0.75157 0.13131 0.37212 0.0
N506 N 0.74464 0.16392 0.34602 0.0
N507 N 0.78003 0.10708 0.35065 0.0
C508 C 0.78511 0.12514 0.32045 0.0
C509 C 0.76603 0.15605 0.31808 0.0
C510 C 0.37726 0.00952 0.97219 0.0
C511 C 0.40286 0.01061 -0.00061 0.0
C512 C 0.34433 0.98978 0.97527 0.0
C513 C 0.33625 0.97004 0.00539 0.0
H514 H 0.38253 0.02454 0.94868 0.0
H515 H 0.32529 0.98958 0.95365 0.0
S516 S 0.39482 0.96435 0.08381 0.0
N517 N 0.4184 0.99087 0.05732 0.0
N518 N 0.3566 0.95287 0.06294 0.0
C519 C 0.36188 0.97072 0.03265 0.0
C520 C 0.39519 0.99131 0.02972 0.0
C521 C 0.2429 0.38266 0.29266 0.0
C522 C 0.26322 0.37948 0.3235 0.0
C523 C 0.22094 0.41072 0.29003 0.0
C524 C 0.21907 0.43688 0.31793 0.0
H525 H 0.24367 0.36306 0.2706 0.0
H526 H 0.20569 0.41213 0.26582 0.0
S527 S 0.26778 0.44053 0.40412 0.0
N528 N 0.28046 0.40464 0.38227 0.0
N529 N 0.23961 0.45757 0.37747 0.0
C530 C 0.23954 0.43399 0.34884 0.0
C531 C 0.2615 0.40523 0.3516 0.0
C532 C 0.11454 0.0424 0.51321 0.0
C533 C 0.10938 0.02207 0.48106 0.0
C534 C 0.14479 0.06631 0.51862 0.0
C535 C 0.17115 0.07031 0.49223 0.0
H536 H 0.09465 0.0404 0.534 0.0
H537 H 0.14746 0.08182 0.54369 0.0
S538 S 0.17043 0.02178 0.40383 0.0
N539 N 0.133 0.00646 0.4228 0.0
N540 N 0.19041 0.05117 0.43304 0.0
C541 C 0.16665 0.0494 0.46023 0.0
C542 C 0.13555 0.02538 0.45458 0.0
C543 C 0.72207 0.15526 0.71947 0.0
C544 C 0.7342 0.18173 0.74546 0.0
C545 C 0.70254 0.12384 0.72907 0.0
C546 C 0.69523 0.11766 0.76496 0.0
H547 H 0.72842 0.15844 0.69168 0.0
H548 H 0.69376 0.10392 0.70838 0.0
S549 S 0.71684 0.18028 0.84259 0.0
N550 N 0.73381 0.20126 0.80822 0.0
N551 N 0.69882 0.14135 0.82619 0.0
C552 C 0.70633 0.14417 0.79105 0.0
C553 C 0.72535 0.17646 0.7813 0.0
C554 C 0.39644 0.02912 0.51768 0.0
C555 C 0.3981 0.02027 0.55343 0.0
C556 C 0.37262 0.05284 0.50654 0.0
C557 C 0.34953 0.0689 0.53071 0.0
H558 H 0.41387 0.01771 0.49807 0.0
H559 H 0.37226 0.05848 0.47861 0.0
S560 S 0.343 0.05428 0.62737 0.0
N561 N 0.37434 0.02901 0.61303 0.0
N562 N 0.3298 0.0742 0.59221 0.0
C563 C 0.3512 0.06071 0.56671 0.0
C564 C 0.37541 0.03627 0.57804 0.0
C565 C 0.63603 0.53466 0.51444 0.0
C566 C 0.60511 0.51905 0.53046 0.0
C567 C 0.66504 0.51475 0.50621 0.0
C568 C 0.66451 0.47864 0.51425 0.0
H569 H 0.63802 0.5626 0.50849 0.0
H570 H 0.68825 0.52787 0.49382 0.0
S571 S 0.58917 0.4242 0.5535 0.0
N572 N 0.5749 0.46431 0.55158 0.0
N573 N 0.63018 0.42756 0.53766 0.0
C574 C 0.63387 0.4626 0.53014 0.0
C575 C 0.604 0.48262 0.53785 0.0
C576 C 0.7717 0.30176 0.36361 0.0
C577 C 0.73851 0.29125 0.34734 0.0
C578 C 0.77402 0.32328 0.39511 0.0
C579 C 0.74336 0.33572 0.41094 0.0
H580 H 0.79609 0.29317 0.35202 0.0
H581 H 0.80004 0.33053 0.407 0.0
S582 S 0.65006 0.315 0.3806 0.0
N583 N 0.67397 0.29355 0.35108 0.0
N584 N 0.67903 0.33602 0.40908 0.0
C585 C 0.71013 0.32605 0.39497 0.0
C586 C 0.70753 0.30332 0.36343 0.0
C587 C 0.55057 0.04524 0.93983 0.0
C588 C 0.51397 0.04688 0.93365 0.0
C589 C 0.57408 0.04012 0.91156 0.0
C590 C 0.56186 0.03694 0.87607 0.0
H591 H 0.56104 0.04768 0.96675 0.0
H592 H 0.60211 0.03917 0.91762 0.0
S593 S 0.46812 0.03986 0.8461 0.0
N594 N 0.46638 0.04522 0.88987 0.0
N595 N 0.51042 0.03562 0.83652 0.0
C596 C 0.52517 0.03856 0.86963 0.0
C597 C 0.50125 0.0435 0.89848 0.0
C598 C 0.25995 0.26131 0.39656 0.0
C599 C 0.29499 0.27235 0.38622 0.0
C600 C 0.25342 0.2372 0.42338 0.0
C601 C 0.28164 0.22264 0.44036 0.0
H602 H 0.23728 0.27076 0.38333 0.0
H603 H 0.22603 0.22906 0.43011 0.0
S604 S 0.3782 0.24506 0.42594 0.0
N605 N 0.35834 0.26911 0.3977 0.0
N606 N 0.34579 0.22221 0.44671 0.0
C607 C 0.31675 0.23371 0.43084 0.0
C608 C 0.32349 0.25893 0.40411 0.0
C609 C 0.47096 0.52912 0.92041 0.0
C610 C 0.48858 0.49794 0.92311 0.0
C611 C 0.4504 0.53416 0.89029 0.0
C612 C 0.44765 0.50858 0.8616 0.0
H613 H 0.47308 0.54966 0.94174 0.0
H614 H 0.43711 0.55849 0.8892 0.0
S615 S 0.48888 0.42231 0.85622 0.0
N616 N 0.50185 0.44108 0.89523 0.0
N617 N 0.46385 0.4506 0.83827 0.0
C618 C 0.46526 0.47727 0.86414 0.0
C619 C 0.48557 0.47193 0.89503 0.0
C620 C 0.74965 0.7344 0.18071 0.0
C621 C 0.71812 0.74911 0.19184 0.0
C622 C 0.75239 0.71812 0.14656 0.0
C623 C 0.72389 0.71665 0.1222 0.0
H624 H 0.77263 0.73629 0.19827 0.0
H625 H 0.7774 0.70778 0.13882 0.0
S626 S 0.63502 0.75003 0.13915 0.0
N627 N 0.65751 0.76017 0.17647 0.0
N628 N 0.66242 0.72961 0.11238 0.0
C629 C 0.69183 0.73032 0.13348 0.0
C630 C 0.68898 0.74653 0.1683 0.0
C631 C 0.97374 0.07149 0.12906 0.0
C632 C 0.98366 0.04546 0.10359 0.0
C633 C 0.95464 0.06177 0.15962 0.0
C634 C 0.94519 0.02569 0.16586 0.0
H635 H 0.98166 0.09948 0.12587 0.0
H636 H 0.94835 0.08254 0.17902 0.0
S637 S 0.96043 0.94776 0.10503 0.0
N638 N 0.97905 0.98245 0.08478 0.0
N639 N 0.94424 0.96414 0.14262 0.0
C640 C 0.95374 -0.00044 0.13996 0.0
C641 C 0.97271 0.00945 0.10873 0.0
C642 C 0.26132 0.81472 0.1693 0.0
C643 C 0.27321 0.7804 0.16483 0.0
C644 C 0.25633 0.83515 0.13981 0.0
C645 C 0.26391 0.8221 0.10517 0.0
H646 H 0.25579 0.82572 0.19571 0.0
H647 H 0.24747 0.86164 0.14422 0.0
S648 S 0.29488 0.73336 0.07975 0.0
N649 N 0.29146 0.73384 0.12351 0.0
N650 N 0.28297 0.77235 0.06815 0.0
C651 C 0.27558 0.78767 0.10053 0.0
C652 C 0.28001 0.76677 0.13038 0.0
C653 C 0.98501 0.51327 0.16253 0.0
C654 C -0.00077 0.50044 0.13023 0.0
C655 C 0.00623 0.51919 0.19315 0.0
C656 C 0.04218 0.51175 0.19277 0.0
H657 H 0.95723 0.51868 0.16425 0.0
H658 H 0.9944 0.52963 0.21735 0.0
S659 S 0.09306 0.48005 0.11485 0.0
N660 N 0.05236 0.48266 0.09939 0.0
N661 N 0.0916 0.4921 0.1576 0.0
C662 C 0.05676 0.49869 0.16091 0.0
C663 C 0.03544 0.49346 0.12947 0.0
C664 C 0.33527 0.75232 0.31076 0.0
C665 C 0.34182 0.75647 0.27433 0.0
C666 C 0.3632 0.75454 0.33541 0.0
C667 C 0.39875 0.76167 0.32472 0.0
H668 H 0.30831 0.7463 0.32018 0.0
H669 H 0.35686 0.7505 0.36307 0.0
S670 S 0.43023 0.77618 0.23279 0.0
N671 N 0.38647 0.76869 0.22884 0.0
N672 N 0.4391 0.7743 0.2756 0.0
C673 C 0.40568 0.76749 0.28867 0.0
C674 C 0.37716 0.76464 0.26337 0.0
C675 C 0.99262 0.42226 0.00443 0.0
C676 C 0.96008 0.42555 0.02208 0.0
C677 C -0.003 0.39326 0.9805 0.0
C678 C 0.9692 0.36625 0.97409 0.0
H679 H 0.0146 0.4426 0.00873 0.0
H680 H 0.02233 0.39194 0.96703 0.0
S681 S 0.87901 0.36256 0.01452 0.0
N682 N 0.89981 0.39981 0.03204 0.0
N683 N 0.90804 0.34466 0.9876 0.0
C684 C 0.9367 0.36903 0.99215 0.0
C685 C 0.93211 0.39891 0.016 0.0
C686 C 0.63522 0.81912 0.30515 0.0
C687 C 0.65402 0.78849 0.30135 0.0
C688 C 0.60336 0.8189 0.32413 0.0
C689 C 0.58884 0.78802 0.34019 0.0
H690 H 0.64481 0.84338 0.29263 0.0
H691 H 0.58983 0.84319 0.32577 0.0
S692 S 0.62863 0.70108 0.33929 0.0
N693 N 0.6567 0.72671 0.31596 0.0
N694 N 0.59641 0.72608 0.35186 0.0
C695 C 0.60768 0.75725 0.33716 0.0
C696 C 0.64028 0.7575 0.31758 0.0
C697 C 0.03267 0.14902 0.98939 0.0
C698 C 0.00718 0.12185 -0.00049 0.0
C699 C 0.02284 0.17721 0.96958 0.0
C700 C 0.98713 0.17936 0.95946 0.0
H701 H 0.06025 0.14903 -0.00234 0.0
H702 H 0.04314 0.19807 0.96321 0.0
S703 S 0.91114 0.11252 0.97517 0.0
N704 N 0.94546 0.09694 0.99463 0.0
N705 N 0.92682 0.15032 0.95833 0.0
C706 C 0.96167 0.15168 0.96826 0.0
C707 C 0.97173 0.12285 0.98805 0.0
C708 C 0.35647 0.31096 0.24103 0.0
C709 C 0.36269 0.30979 0.27774 0.0
C710 C 0.38348 0.30512 0.21632 0.0
C711 C 0.41777 0.29777 0.22735 0.0
H712 H 0.33032 0.31576 0.23126 0.0
H713 H 0.37715 0.30573 0.18829 0.0
S714 S 0.44849 0.29497 0.32087 0.0
N715 N 0.40622 0.30325 0.32418 0.0
N716 N 0.45686 0.29165 0.27781 0.0
C717 C 0.42452 0.29729 0.2641 0.0
C718 C 0.39704 0.30343 0.28925 0.0
C719 C 0.48428 0.42248 0.04049 0.0
C720 C 0.51933 0.43035 0.02846 0.0
C721 C 0.47578 0.39393 0.06218 0.0
C722 C 0.50208 0.37244 0.07312 0.0
H723 H 0.46319 0.43857 0.03316 0.0
H724 H 0.44835 0.38873 0.07053 0.0
S725 S 0.59758 0.38068 0.0479 0.0
N726 N 0.5803 0.41326 0.02795 0.0
N727 N 0.56444 0.36037 0.06992 0.0
C728 C 0.5373 0.38013 0.06169 0.0
C729 C 0.5459 0.40889 0.03907 0.0
C730 C 0.64814 0.21766 0.2378 0.0
C731 C 0.67533 0.24556 0.23688 0.0
C732 C 0.61437 0.22117 0.22363 0.0
C733 C 0.60648 0.25263 0.20774 0.0
H734 H 0.65228 0.19372 0.25148 0.0
H735 H 0.59401 0.19927 0.22603 0.0
S736 S 0.66993 0.33196 0.19511 0.0
N737 N 0.69335 0.30451 0.21636 0.0
N738 N 0.62973 0.3111 0.18927 0.0
C739 C 0.6341 0.27994 0.20471 0.0
C740 C 0.66854 0.27642 0.21944 0.0
C741 C 0.47812 0.1528 0.02667 0.0
C742 C 0.47801 0.11897 0.04069 0.0
C743 C 0.47934 0.18367 0.04913 0.0
C744 C 0.48096 0.1817 0.08633 0.0
H745 H 0.47639 0.15532 -0.00182 0.0
H746 H 0.4793 0.20924 0.03722 0.0
S747 S 0.48202 0.09901 0.13584 0.0
N748 N 0.47997 0.08492 0.09354 0.0
N749 N 0.4827 0.14293 0.13606 0.0
C750 C 0.48136 0.1479 0.10058 0.0
C751 C 0.47974 0.11651 0.07767 0.0
C752 C 0.30044 0.36661 0.74695 0.0
C753 C 0.2634 0.36833 0.75027 0.0
C754 C 0.32379 0.39765 0.74857 0.0
C755 C 0.31096 0.43151 0.75398 0.0
H756 H 0.31155 0.34103 0.74372 0.0
H757 H 0.35219 0.39501 0.74666 0.0
S758 S 0.21617 0.45087 0.76035 0.0
N759 N 0.21477 0.40692 0.75585 0.0
N760 N 0.25889 0.46522 0.76029 0.0
C761 C 0.27399 0.43373 0.75651 0.0
C762 C 0.25015 0.40215 0.75432 0.0
C763 C 0.28965 0.66993 0.76321 0.0
C764 C 0.26796 0.67922 0.79204 0.0
C765 C 0.31012 0.64044 0.76422 0.0
C766 C 0.30924 0.61906 0.79393 0.0
H767 H 0.29122 0.68586 0.74003 0.0
H768 H 0.32655 0.63428 0.74146 0.0
S769 S 0.25505 0.63172 0.87555 0.0
N770 N 0.24568 0.66431 0.85042 0.0
N771 N 0.28397 0.60929 0.85264 0.0
C772 C 0.28716 0.62803 0.82271 0.0
C773 C 0.26655 0.65798 0.82167 0.0
C774 C 0.91418 0.47594 0.53484 0.0
C775 C 0.9235 0.49876 0.50743 0.0
C776 C 0.88078 0.45638 0.53484 0.0
C777 C 0.8555 0.45988 0.50792 0.0
H778 H 0.93276 0.47335 0.55636 0.0
H779 H 0.8745 0.43884 0.55631 0.0
S780 S 0.86769 0.51679 0.43051 0.0
N781 N 0.90558 0.52398 0.45288 0.0
N782 N 0.84248 0.48779 0.45301 0.0
C783 C 0.86468 0.48287 0.48049 0.0
C784 C 0.89882 0.50219 0.48022 0.0
C785 C 0.75264 0.90439 0.84812 0.0
C786 C 0.75629 0.88146 0.81796 0.0
C787 C 0.73173 0.9333 0.84709 0.0
C788 C 0.71327 0.94017 0.81597 0.0
H789 H 0.7665 0.90024 0.8726 0.0
H790 H 0.72999 0.95034 0.87102 0.0
S791 S 0.71331 0.88704 0.73004 0.0
N792 N 0.73937 0.8668 0.7563 0.0
N793 N 0.6997 0.92108 0.75429 0.0
C794 C 0.71633 0.91707 0.78569 0.0
C795 C 0.73799 0.88778 0.78668 0.0
C796 C 0.59723 0.57314 0.99546 0.0
C797 C 0.59855 0.53599 0.99249 0.0
C798 C 0.62853 0.59597 -0.00148 0.0
C799 C 0.66229 0.58244 -0.00181 0.0
H800 H 0.57179 0.58462 0.99558 0.0
H801 H 0.62619 0.62447 0.00085 0.0
S802 S 0.67976 0.48678 0.99039 0.0
N803 N 0.63587 0.4864 0.98903 0.0
N804 N 0.69497 0.52926 0.99465 0.0
C805 C 0.6639 0.5452 0.99505 0.0
C806 C 0.63194 0.52198 0.9923 0.0
C807 C 0.2033 0.67296 0.23509 0.0
C808 C 0.24043 0.67196 0.23276 0.0
C809 C 0.18158 0.64323 0.24537 0.0
C810 C 0.19632 0.61159 0.25389 0.0
H811 H 0.1911 0.69734 0.2304 0.0
H812 H 0.15317 0.64554 0.24783 0.0
S813 S 0.29169 0.59402 0.24689 0.0
N814 N 0.29072 0.6358 0.23588 0.0
N815 N 0.25001 0.57998 0.25581 0.0
C816 C 0.23329 0.60975 0.24997 0.0
C817 C 0.25531 0.63991 0.23921 0.0
C818 C 0.90075 0.54778 0.01475 0.0
C819 C 0.90379 0.5388 0.05037 0.0
C820 C 0.87467 0.56943 0.00423 0.0
C821 C 0.85083 0.58339 0.02896 0.0
H822 H 0.91833 0.5375 0.99463 0.0
H823 H 0.87287 0.57483 0.97632 0.0
S824 S 0.84802 0.56877 0.12567 0.0
N825 N 0.88095 0.54596 0.11057 0.0
N826 N 0.83248 0.58761 0.09088 0.0
C827 C 0.85438 0.57585 0.06493 0.0
C828 C 0.88075 0.55336 0.07562 0.0
C829 C 0.11108 0.01691 0.05126 0.0
C830 C 0.08788 0.02618 0.0245 0.0
C831 C 0.13946 -0.00389 0.04318 0.0
C832 C 0.14612 0.98437 0.00797 0.0
H833 H 0.10739 0.02592 0.07871 0.0
H834 H 0.15667 0.98973 0.0646 0.0
S835 S 0.09229 -0.0008 0.92839 0.0
N836 N 0.07243 0.01995 0.96155 0.0
N837 N 0.12675 0.98231 0.94625 0.0
C838 C 0.12328 0.99339 0.98094 0.0
C839 C 0.09397 0.01398 0.98921 0.0
loop_
_geom_bond_atom_site_label_1
_geom_bond_atom_site_label_2
_geom_bond_distance
_geom_bond_site_symmetry_2
_ccdc_geom_bond_type
H0 C3 0.931 . S
H1 C6 0.928 . S
H2 C8 0.930 . S
C3 H0 0.931 . S
C3 C4 1.413 . S
C3 C5 1.360 . S
C4 C3 1.413 . S
C4 C8 1.429 . S
C5 C3 1.360 . S
C5 C6 1.372 . S
C6 H1 0.928 . S
C6 C5 1.372 . S
C6 C7 1.404 . S
C7 C6 1.404 . S
C7 C8 1.391 . S
C8 H2 0.930 . S
C8 C4 1.429 . S
C8 C7 1.391 . S
H9 C12 0.931 . S
H10 C15 0.928 . S
H11 C17 0.930 . S
C12 H9 0.931 . S
C12 C13 1.413 . S
C12 C14 1.360 . S
C13 C12 1.413 . S
C13 C17 1.429 . S
C14 C12 1.360 . S
C14 C15 1.372 . S
C15 H10 0.928 . S
C15 C14 1.372 . S
C15 C16 1.404 . S
C16 C15 1.404 . S
C16 C17 1.391 . S
C17 H11 0.930 . S
C17 C13 1.429 . S
C17 C16 1.391 . S
H18 C21 0.931 . S
H19 C24 0.928 . S
H20 C26 0.930 . S
C21 H18 0.931 . S
C21 C22 1.413 . S
C21 C23 1.360 . S
C22 C21 1.413 . S
C22 C26 1.429 . S
C23 C21 1.360 . S
C23 C24 1.372 . S
C24 H19 0.928 . S
C24 C23 1.372 . S
C24 C25 1.404 . S
C25 C24 1.404 . S
C25 C26 1.391 . S
C26 H20 0.930 . S
C26 C22 1.429 . S
C26 C25 1.391 . S
H27 C30 0.931 . S
H28 C33 0.928 . S
H29 C35 0.930 . S
C30 H27 0.931 . S
C30 C31 1.413 . S
C30 C32 1.360 . S
C31 C30 1.413 . S
C31 C35 1.429 . S
C32 C30 1.360 . S
C32 C33 1.372 . S
C33 H28 0.928 . S
C33 C32 1.372 . S
C33 C34 1.404 . S
C34 C33 1.404 . S
C34 C35 1.391 . S
C35 H29 0.930 . S
C35 C31 1.429 . S
C35 C34 1.391 . S
H36 C39 0.931 . S
H37 C42 0.928 1_545 S
H38 C44 0.930 . S
C39 H36 0.931 . S
C39 C40 1.413 . S
C39 C41 1.360 . S
C40 C39 1.413 . S
C40 C44 1.429 . S
C41 C39 1.360 . S
C41 C42 1.372 . S
C42 H37 0.928 1_565 S
C42 C41 1.372 . S
C42 C43 1.404 . S
C43 C42 1.404 . S
C43 C44 1.391 . S
C44 H38 0.930 . S
C44 C40 1.429 . S
C44 C43 1.391 . S
H45 C48 0.931 . S
H46 C51 0.928 . S
H47 C53 0.930 . S
C48 H45 0.931 . S
C48 C49 1.413 . S
C48 C50 1.360 . S
C49 C48 1.413 . S
C49 C53 1.429 . S
C50 C48 1.360 . S
C50 C51 1.372 . S
C51 H46 0.928 . S
C51 C50 1.372 . S
C51 C52 1.404 . S
C52 C51 1.404 . S
C52 C53 1.391 . S
C53 H47 0.930 . S
C53 C49 1.429 . S
C53 C52 1.391 . S
H54 C57 0.931 . S
H55 C60 0.928 . S
H56 C62 0.930 . S
C57 H54 0.931 . S
C57 C58 1.413 . S
C57 C59 1.360 . S
C58 C57 1.413 . S
C58 C62 1.429 . S
C59 C57 1.360 . S
C59 C60 1.372 . S
C60 H55 0.928 . S
C60 C59 1.372 . S
C60 C61 1.404 . S
C61 C60 1.404 . S
C61 C62 1.391 . S
C62 H56 0.930 . S
C62 C58 1.429 . S
C62 C61 1.391 . S
H63 C66 0.931 . S
H64 C69 0.928 . S
H65 C71 0.930 . S
C66 H63 0.931 . S
C66 C67 1.413 . S
C66 C68 1.360 . S
C67 C66 1.413 . S
C67 C71 1.429 . S
C68 C66 1.360 . S
C68 C69 1.372 . S
C69 H64 0.928 . S
C69 C68 1.372 . S
C69 C70 1.404 . S
C70 C69 1.404 . S
C70 C71 1.391 . S
C71 H65 0.930 . S
C71 C67 1.429 . S
C71 C70 1.391 . S
H72 C75 0.931 . S
H73 C78 0.928 . S
H74 C80 0.930 . S
C75 H72 0.931 . S
C75 C76 1.413 . S
C75 C77 1.360 . S
C76 C75 1.413 . S
C76 C80 1.429 . S
C77 C75 1.360 . S
C77 C78 1.372 . S
C78 H73 0.928 . S
C78 C77 1.372 . S
C78 C79 1.404 . S
C79 C78 1.404 . S
C79 C80 1.391 . S
C80 H74 0.930 . S
C80 C76 1.429 . S
C80 C79 1.391 . S
H81 C84 0.931 . S
H82 C87 0.928 . S
H83 C89 0.930 . S
C84 H81 0.931 . S
C84 C85 1.413 . S
C84 C86 1.360 . S
C85 C84 1.413 . S
C85 C89 1.429 . S
C86 C84 1.360 . S
C86 C87 1.372 . S
C87 H82 0.928 . S
C87 C86 1.372 . S
C87 C88 1.404 . S
C88 C87 1.404 . S
C88 C89 1.391 . S
C89 H83 0.930 . S
C89 C85 1.429 . S
C89 C88 1.391 . S
H90 C93 0.931 . S
H91 C96 0.928 . S
H92 C98 0.930 . S
C93 H90 0.931 . S
C93 C94 1.413 . S
C93 C95 1.360 . S
C94 C93 1.413 . S
C94 C98 1.429 . S
C95 C93 1.360 . S
C95 C96 1.372 . S
C96 H91 0.928 . S
C96 C95 1.372 . S
C96 C97 1.404 . S
C97 C96 1.404 . S
C97 C98 1.391 . S
C98 H92 0.930 . S
C98 C94 1.429 . S
C98 C97 1.391 . S
H99 C102 0.931 . S
H100 C105 0.928 . S
H101 C107 0.930 . S
C102 H99 0.931 . S
C102 C103 1.413 . S
C102 C104 1.360 . S
C103 C102 1.413 . S
C103 C107 1.429 . S
C104 C102 1.360 . S
C104 C105 1.372 . S
C105 H100 0.928 . S
C105 C104 1.372 . S
C105 C106 1.404 . S
C106 C105 1.404 . S
C106 C107 1.391 . S
C107 H101 0.930 . S
C107 C103 1.429 . S
C107 C106 1.391 . S
H108 C111 0.931 . S
H109 C114 0.928 . S
H110 C116 0.930 . S
C111 H108 0.931 . S
C111 C112 1.413 . S
C111 C113 1.360 . S
C112 C111 1.413 . S
C112 C116 1.429 . S
C113 C111 1.360 . S
C113 C114 1.372 . S
C114 H109 0.928 . S
C114 C113 1.372 . S
C114 C115 1.404 . S
C115 C114 1.404 . S
C115 C116 1.391 . S
C116 H110 0.930 . S
C116 C112 1.429 . S
C116 C115 1.391 . S
H117 C120 0.931 . S
H118 C123 0.928 . S
H119 C125 0.930 . S
C120 H117 0.931 . S
C120 C121 1.413 . S
C120 C122 1.360 . S
C121 C120 1.413 . S
C121 C125 1.429 . S
C122 C120 1.360 . S
C122 C123 1.372 . S
C123 H118 0.928 . S
C123 C122 1.372 . S
C123 C124 1.404 . S
C124 C123 1.404 . S
C124 C125 1.391 . S
C125 H119 0.930 . S
C125 C121 1.429 . S
C125 C124 1.391 . S
H126 C129 0.931 . S
H127 C132 0.928 . S
H128 C134 0.930 . S
C129 H126 0.931 . S
C129 C130 1.413 . S
C129 C131 1.360 . S
C130 C129 1.413 . S
C130 C134 1.429 . S
C131 C129 1.360 . S
C131 C132 1.372 . S
C132 H127 0.928 . S
C132 C131 1.372 . S
C132 C133 1.404 . S
C133 C132 1.404 . S
C133 C134 1.391 . S
C134 H128 0.930 . S
C134 C130 1.429 . S
C134 C133 1.391 . S
H135 C138 0.931 . S
H136 C141 0.928 . S
H137 C143 0.930 . S
C138 H135 0.931 . S
C138 C139 1.413 . S
C138 C140 1.360 . S
C139 C138 1.413 . S
C139 C143 1.429 . S
C140 C138 1.360 . S
C140 C141 1.372 . S
C141 H136 0.928 . S
C141 C140 1.372 . S
C141 C142 1.404 . S
C142 C141 1.404 . S
C142 C143 1.391 . S
C143 H137 0.930 . S
C143 C139 1.429 . S
C143 C142 1.391 . S
O144 Cd145 2.223 . S
O144 C152 1.313 1_554 S
Cd145 O144 2.223 . S
Cd145 O148 2.297 . S
Cd145 O149 2.439 . S
Cd145 O155 2.240 . S
Cd146 O147 2.240 . S
Cd146 O154 2.223 1_554 S
Cd146 O156 2.297 . S
Cd146 O157 2.439 . S
O147 Cd146 2.240 . S
O147 C152 1.274 1_554 S
O148 Cd145 2.297 . S
O148 C150 1.247 . S
O149 Cd145 2.439 . S
O149 C150 1.208 . S
C150 O148 1.247 . S
C150 O149 1.208 . S
C151 O156 1.247 . S
C151 O157 1.208 . S
C152 O144 1.313 1_556 S
C152 O147 1.274 1_556 S
C153 O154 1.315 1_554 S
C153 O155 1.279 . S
O154 Cd146 2.223 1_556 S
O154 C153 1.315 1_556 S
O155 Cd145 2.240 . S
O155 C153 1.279 . S
O156 Cd146 2.297 . S
O156 C151 1.247 . S
O157 Cd146 2.439 . S
O157 C151 1.208 . S
O158 Cd159 2.223 . S
O158 C166 1.315 . S
Cd159 O158 2.223 . S
Cd159 O162 2.297 . S
Cd159 O163 2.439 . S
Cd159 O169 2.240 . S
Cd160 O161 2.240 . S
Cd160 O168 2.223 . S
Cd160 O170 2.297 . S
Cd160 O171 2.439 . S
O161 Cd160 2.240 . S
O161 C166 1.279 . S
O162 Cd159 2.297 . S
O162 C164 1.247 . S
O163 Cd159 2.439 . S
O163 C164 1.208 . S
C164 O162 1.247 . S
C164 O163 1.208 . S
C165 O170 1.247 . S
C165 O171 1.208 . S
C166 O158 1.315 . S
C166 O161 1.279 . S
C167 O168 1.315 . S
C167 O169 1.279 . S
O168 Cd160 2.223 . S
O168 C167 1.315 . S
O169 Cd159 2.240 . S
O169 C167 1.279 . S
O170 Cd160 2.297 . S
O170 C165 1.247 . S
O171 Cd160 2.439 . S
O171 C165 1.208 . S
O172 Cd173 2.223 1_556 S
O172 C180 1.315 . S
Cd173 O172 2.223 1_554 S
Cd173 O176 2.297 . S
Cd173 O177 2.439 . S
Cd173 O183 2.240 . S
Cd174 O175 2.240 . S
Cd174 O182 2.223 . S
Cd174 O184 2.304 . S
Cd174 O185 2.439 1_556 S
O175 Cd174 2.240 . S
O175 C180 1.279 . S
O176 Cd173 2.297 . S
O176 C178 1.247 . S
O177 Cd173 2.439 . S
O177 C178 1.208 . S
C178 O176 1.247 . S
C178 O177 1.208 . S
C179 O184 1.230 1_554 S
C179 O185 1.208 . S
C180 O172 1.315 . S
C180 O175 1.279 . S
C181 O182 1.315 . S
C181 O183 1.279 1_556 S
O182 Cd174 2.223 . S
O182 C181 1.315 . S
O183 Cd173 2.240 . S
O183 C181 1.279 1_554 S
O184 Cd174 2.304 . S
O184 C179 1.230 1_556 S
O185 Cd174 2.439 1_554 S
O185 C179 1.208 . S
O186 Cd187 2.223 1_565 S
O186 C194 1.315 1_565 S
Cd187 O186 2.223 1_545 S
Cd187 O190 2.297 . S
Cd187 O191 2.439 . S
Cd187 O197 2.240 . S
Cd188 O189 2.240 . S
Cd188 O196 2.223 . S
Cd188 O198 2.297 . S
Cd188 O199 2.439 . S
O189 Cd188 2.240 . S
O189 C194 1.279 . S
O190 Cd187 2.297 . S
O190 C192 1.247 . S
O191 Cd187 2.439 . S
O191 C192 1.208 . S
C192 O190 1.247 . S
C192 O191 1.208 . S
C193 O198 1.247 . S
C193 O199 1.208 . S
C194 O186 1.315 1_545 S
C194 O189 1.279 . S
C195 O196 1.318 . S
C195 O197 1.290 . S
O196 Cd188 2.223 . S
O196 C195 1.318 . S
O197 Cd187 2.240 . S
O197 C195 1.290 . S
O198 Cd188 2.297 . S
O198 C193 1.247 . S
O199 Cd188 2.439 . S
O199 C193 1.208 . S
O200 Cd201 2.223 . S
O200 C208 1.315 . S
Cd201 O200 2.223 . S
Cd201 O204 2.297 . S
Cd201 O205 2.439 . S
Cd201 O211 2.240 . S
Cd202 O203 2.240 . S
Cd202 O210 2.223 . S
Cd202 O212 2.297 . S
Cd202 O213 2.439 . S
O203 Cd202 2.240 . S
O203 C208 1.279 . S
O204 Cd201 2.297 . S
O204 C206 1.247 . S
O205 Cd201 2.439 . S
O205 C206 1.208 . S
C206 O204 1.247 . S
C206 O205 1.208 . S
C207 O212 1.247 . S
C207 O213 1.208 . S
C208 O200 1.315 . S
C208 O203 1.279 . S
C209 O210 1.315 . S
C209 O211 1.279 . S
O210 Cd202 2.223 . S
O210 C209 1.315 . S
O211 Cd201 2.240 . S
O211 C209 1.279 . S
O212 Cd202 2.297 . S
O212 C207 1.247 . S
O213 Cd202 2.439 . S
O213 C207 1.208 . S
O214 Cd215 2.223 . S
O214 C222 1.315 . S
Cd215 O214 2.223 . S
Cd215 O218 2.297 . S
Cd215 O219 2.439 . S
Cd215 O225 2.240 . S
Cd216 O217 2.240 . S
Cd216 O224 2.223 . S
Cd216 O226 2.297 . S
Cd216 O227 2.439 . S
O217 Cd216 2.240 . S
O217 C222 1.279 . S
O218 Cd215 2.297 . S
O218 C220 1.247 . S
O219 Cd215 2.439 . S
O219 C220 1.208 . S
C220 O218 1.247 . S
C220 O219 1.208 . S
C221 O226 1.247 . S
C221 O227 1.208 . S
C222 O214 1.315 . S
C222 O217 1.279 . S
C223 O224 1.315 . S
C223 O225 1.279 . S
O224 Cd216 2.223 . S
O224 C223 1.315 . S
O225 Cd215 2.240 . S
O225 C223 1.279 . S
O226 Cd216 2.297 . S
O226 C221 1.247 . S
O227 Cd216 2.439 . S
O227 C221 1.208 . S
O228 Cd229 2.223 . S
O228 C236 1.315 . S
Cd229 O228 2.223 . S
Cd229 O232 2.297 . S
Cd229 O233 2.439 . S
Cd229 O239 2.240 . S
Cd230 O231 2.240 . S
Cd230 O238 2.223 . S
Cd230 O240 2.297 . S
Cd230 O241 2.439 . S
O231 Cd230 2.240 . S
O231 C236 1.279 . S
O232 Cd229 2.297 . S
O232 C234 1.247 . S
O233 Cd229 2.439 . S
O233 C234 1.208 . S
C234 O232 1.247 . S
C234 O233 1.208 . S
C235 O240 1.247 . S
C235 O241 1.208 . S
C236 O228 1.315 . S
C236 O231 1.279 . S
C237 O238 1.315 . S
C237 O239 1.279 . S
O238 Cd230 2.223 . S
O238 C237 1.315 . S
O239 Cd229 2.240 . S
O239 C237 1.279 . S
O240 Cd230 2.297 . S
O240 C235 1.247 . S
O241 Cd230 2.439 . S
O241 C235 1.208 . S
O242 Cd243 2.223 1_545 S
O242 C250 1.315 . S
Cd243 O242 2.223 1_565 S
Cd243 O246 2.297 . S
Cd243 O247 2.439 . S
Cd243 O253 2.240 1_565 S
Cd244 O245 2.240 . S
Cd244 O252 2.223 . S
Cd244 O254 2.297 . S
Cd244 O255 2.439 1_545 S
O245 Cd244 2.240 . S
O245 C250 1.279 . S
O246 Cd243 2.297 . S
O246 C248 1.247 . S
O247 Cd243 2.439 . S
O247 C248 1.208 . S
C248 O246 1.247 . S
C248 O247 1.208 . S
C249 O254 1.247 1_565 S
C249 O255 1.208 . S
C250 O242 1.315 . S
C250 O245 1.279 . S
C251 O252 1.315 . S
C251 O253 1.279 . S
O252 Cd244 2.223 . S
O252 C251 1.315 . S
O253 Cd243 2.240 1_545 S
O253 C251 1.279 . S
O254 Cd244 2.297 . S
O254 C249 1.247 1_545 S
O255 Cd244 2.439 1_565 S
O255 C249 1.208 . S
O256 Cd257 2.223 . S
O256 C264 1.315 . S
Cd257 O256 2.223 . S
Cd257 O260 2.297 1_655 S
Cd257 O261 2.439 1_655 S
Cd257 O267 2.240 . S
Cd258 O259 2.240 . S
Cd258 O266 2.223 1_455 S
Cd258 O268 2.297 . S
Cd258 O269 2.439 . S
O259 Cd258 2.240 . S
O259 C264 1.279 1_455 S
O260 Cd257 2.297 1_455 S
O260 C262 1.247 . S
O261 Cd257 2.439 1_455 S
O261 C262 1.208 . S
C262 O260 1.247 . S
C262 O261 1.208 . S
C263 O268 1.247 . S
C263 O269 1.208 . S
C264 O256 1.315 . S
C264 O259 1.279 1_655 S
C265 O266 1.315 . S
C265 O267 1.279 . S
O266 Cd258 2.223 1_655 S
O266 C265 1.315 . S
O267 Cd257 2.240 . S
O267 C265 1.279 . S
O268 Cd258 2.297 . S
O268 C263 1.247 . S
O269 Cd258 2.439 . S
O269 C263 1.208 . S
O270 Cd271 2.223 . S
O270 C278 1.315 . S
Cd271 O270 2.223 . S
Cd271 O274 2.297 . S
Cd271 O275 2.439 . S
Cd271 O281 2.240 . S
Cd272 O273 2.240 . S
Cd272 O280 2.223 . S
Cd272 O282 2.297 . S
Cd272 O283 2.439 . S
O273 Cd272 2.240 . S
O273 C278 1.279 . S
O274 Cd271 2.297 . S
O274 C276 1.247 . S
O275 Cd271 2.439 . S
O275 C276 1.208 . S
C276 O274 1.247 . S
C276 O275 1.208 . S
C277 O282 1.247 . S
C277 O283 1.208 . S
C278 O270 1.315 . S
C278 O273 1.279 . S
C279 O280 1.315 . S
C279 O281 1.279 . S
O280 Cd272 2.223 . S
O280 C279 1.315 . S
O281 Cd271 2.240 . S
O281 C279 1.279 . S
O282 Cd272 2.297 . S
O282 C277 1.247 . S
O283 Cd272 2.439 . S
O283 C277 1.208 . S
O284 Cd285 2.223 1_655 S
O284 C292 1.315 . S
Cd285 O284 2.223 1_455 S
Cd285 O288 2.297 . S
Cd285 O289 2.439 . S
Cd285 O295 2.240 . S
Cd286 O287 2.240 . S
Cd286 O294 2.223 . S
Cd286 O296 2.297 . S
Cd286 O297 2.439 1_655 S
O287 Cd286 2.240 . S
O287 C292 1.279 . S
O288 Cd285 2.297 . S
O288 C290 1.247 . S
O289 Cd285 2.439 . S
O289 C290 1.208 . S
C290 O288 1.247 . S
C290 O289 1.208 . S
C291 O296 1.247 1_455 S
C291 O297 1.208 . S
C292 O284 1.315 . S
C292 O287 1.279 . S
C293 O294 1.315 . S
C293 O295 1.279 1_655 S
O294 Cd286 2.223 . S
O294 C293 1.315 . S
O295 Cd285 2.240 . S
O295 C293 1.279 1_455 S
O296 Cd286 2.297 . S
O296 C291 1.247 1_655 S
O297 Cd286 2.439 1_455 S
O297 C291 1.208 . S
O298 Cd299 2.223 . S
O298 C306 1.315 . S
Cd299 O298 2.223 . S
Cd299 O302 2.297 . S
Cd299 O303 2.439 . S
Cd299 O309 2.240 . S
Cd300 O301 2.240 . S
Cd300 O308 2.223 . S
Cd300 O310 2.297 . S
Cd300 O311 2.439 . S
O301 Cd300 2.240 . S
O301 C306 1.279 . S
O302 Cd299 2.297 . S
O302 C304 1.247 . S
O303 Cd299 2.439 . S
O303 C304 1.208 . S
C304 O302 1.247 . S
C304 O303 1.208 . S
C305 O310 1.247 . S
C305 O311 1.208 . S
C306 O298 1.315 . S
C306 O301 1.279 . S
C307 O308 1.315 . S
C307 O309 1.279 . S
O308 Cd300 2.223 . S
O308 C307 1.315 . S
O309 Cd299 2.240 . S
O309 C307 1.279 . S
O310 Cd300 2.297 . S
O310 C305 1.247 . S
O311 Cd300 2.439 . S
O311 C305 1.208 . S
C312 C313 1.369 . S
C312 C314 1.419 . S
C312 H316 0.930 . S
C313 C312 1.369 . S
C313 C322 1.429 . S
C314 C312 1.419 . S
C314 C315 1.363 . S
C314 H317 0.929 . S
C315 C314 1.363 . S
C315 C321 1.428 . S
H316 C312 0.930 . S
H317 C314 0.929 . S
S318 N319 1.613 . S
S318 N320 1.610 . S
N319 S318 1.613 . S
N319 C322 1.350 . S
N320 S318 1.610 . S
N320 C321 1.351 . S
C321 C315 1.428 . S
C321 N320 1.351 . S
C321 C322 1.434 . S
C322 C313 1.429 . S
C322 N319 1.350 . S
C322 C321 1.434 . S
C323 C324 1.369 . S
C323 C325 1.419 1_655 S
C323 H327 0.930 . S
C324 C323 1.369 . S
C324 C333 1.429 1_655 S
C325 C323 1.419 1_455 S
C325 C326 1.363 . S
C325 H328 0.929 . S
C326 C325 1.363 . S
C326 C332 1.428 . S
H327 C323 0.930 . S
H328 C325 0.929 . S
S329 N330 1.613 . S
S329 N331 1.610 . S
N330 S329 1.613 . S
N330 C333 1.350 . S
N331 S329 1.610 . S
N331 C332 1.351 . S
C332 C326 1.428 . S
C332 N331 1.351 . S
C332 C333 1.434 . S
C333 C324 1.429 1_455 S
C333 N330 1.350 . S
C333 C332 1.434 . S
C334 C335 1.369 . S
C334 C336 1.419 . S
C334 H338 0.930 . S
C335 C334 1.369 . S
C335 C344 1.429 . S
C336 C334 1.419 . S
C336 C337 1.363 . S
C336 H339 0.929 . S
C337 C336 1.363 . S
C337 C343 1.428 . S
H338 C334 0.930 . S
H339 C336 0.929 . S
S340 N341 1.613 . S
S340 N342 1.610 . S
N341 S340 1.613 . S
N341 C344 1.350 . S
N342 S340 1.610 . S
N342 C343 1.351 . S
C343 C337 1.428 . S
C343 N342 1.351 . S
C343 C344 1.434 . S
C344 C335 1.429 . S
C344 N341 1.350 . S
C344 C343 1.434 . S
C345 C346 1.369 . S
C345 C347 1.419 1_465 S
C345 H349 0.930 . S
C346 C345 1.369 . S
C346 C355 1.429 1_455 S
C347 C345 1.419 1_645 S
C347 C348 1.363 . S
C347 H350 0.929 . S
C348 C347 1.363 . S
C348 C354 1.425 1_545 S
H349 C345 0.930 . S
H350 C347 0.929 . S
S351 N352 1.613 . S
S351 N353 1.610 . S
N352 S351 1.613 . S
N352 C355 1.350 . S
N353 S351 1.610 . S
N353 C354 1.351 . S
C354 C348 1.425 1_565 S
C354 N353 1.351 . S
C354 C355 1.434 . S
C355 C346 1.429 1_655 S
C355 N352 1.350 . S
C355 C354 1.434 . S
C356 C357 1.369 . S
C356 C358 1.419 . S
C356 H360 0.930 . S
C357 C356 1.369 . S
C357 C366 1.429 . S
C358 C356 1.419 . S
C358 C359 1.363 . S
C358 H361 0.929 . S
C359 C358 1.363 . S
C359 C365 1.428 . S
H360 C356 0.930 . S
H361 C358 0.929 . S
S362 N363 1.613 . S
S362 N364 1.610 . S
N363 S362 1.613 . S
N363 C366 1.350 . S
N364 S362 1.610 . S
N364 C365 1.351 . S
C365 C359 1.428 . S
C365 N364 1.351 . S
C365 C366 1.434 . S
C366 C357 1.429 . S
C366 N363 1.350 . S
C366 C365 1.434 . S
C367 C368 1.369 . S
C367 C369 1.419 . S
C367 H371 0.930 . S
C368 C367 1.369 . S
C368 C377 1.429 . S
C369 C367 1.419 . S
C369 C370 1.363 . S
C369 H372 0.929 . S
C370 C369 1.363 . S
C370 C376 1.428 . S
H371 C367 0.930 . S
H372 C369 0.929 . S
S373 N374 1.613 . S
S373 N375 1.610 . S
N374 S373 1.613 . S
N374 C377 1.350 . S
N375 S373 1.610 . S
N375 C376 1.351 . S
C376 C370 1.428 . S
C376 N375 1.351 . S
C376 C377 1.434 . S
C377 C368 1.429 . S
C377 N374 1.350 . S
C377 C376 1.434 . S
C378 C379 1.369 . S
C378 C380 1.419 . S
C378 H382 0.930 . S
C379 C378 1.369 . S
C379 C388 1.429 . S
C380 C378 1.419 . S
C380 C381 1.363 . S
C380 H383 0.929 . S
C381 C380 1.363 . S
C381 C387 1.428 . S
H382 C378 0.930 . S
H383 C380 0.929 . S
S384 N385 1.613 . S
S384 N386 1.610 . S
N385 S384 1.613 . S
N385 C388 1.350 . S
N386 S384 1.610 . S
N386 C387 1.351 . S
C387 C381 1.428 . S
C387 N386 1.351 . S
C387 C388 1.434 . S
C388 C379 1.429 . S
C388 N385 1.350 . S
C388 C387 1.434 . S
C389 C390 1.369 . S
C389 C391 1.419 . S
C389 H393 0.930 . S
C390 C389 1.369 . S
C390 C399 1.429 . S
C391 C389 1.419 . S
C391 C392 1.363 . S
C391 H394 0.929 . S
C392 C391 1.363 . S
C392 C398 1.428 . S
H393 C389 0.930 . S
H394 C391 0.929 . S
S395 N396 1.613 . S
S395 N397 1.610 . S
N396 S395 1.613 . S
N396 C399 1.350 1_545 S
N397 S395 1.610 . S
N397 C398 1.351 1_545 S
C398 C392 1.428 . S
C398 N397 1.351 1_565 S
C398 C399 1.434 . S
C399 C390 1.429 . S
C399 N396 1.350 1_565 S
C399 C398 1.434 . S
C400 C401 1.369 . S
C400 C402 1.419 . S
C400 H404 0.930 . S
C401 C400 1.369 . S
C401 C410 1.429 . S
C402 C400 1.419 . S
C402 C403 1.363 . S
C402 H405 0.929 . S
C403 C402 1.363 . S
C403 C409 1.428 . S
H404 C400 0.930 . S
H405 C402 0.929 . S
S406 N407 1.613 . S
S406 N408 1.610 . S
N407 S406 1.613 . S
N407 C410 1.350 . S
N408 S406 1.610 . S
N408 C409 1.351 . S
C409 C403 1.428 . S
C409 N408 1.351 . S
C409 C410 1.434 . S
C410 C401 1.429 . S
C410 N407 1.350 . S
C410 C409 1.434 . S
C411 C412 1.369 . S
C411 C413 1.419 . S
C411 H415 0.930 . S
C412 C411 1.369 . S
C412 C421 1.429 . S
C413 C411 1.419 . S
C413 C414 1.363 . S
C413 H416 0.929 . S
C414 C413 1.363 . S
C414 C420 1.428 . S
H415 C411 0.930 . S
H416 C413 0.929 . S
S417 N418 1.613 . S
S417 N419 1.610 . S
N418 S417 1.613 . S
N418 C421 1.350 . S
N419 S417 1.610 . S
N419 C420 1.351 . S
C420 C414 1.428 . S
C420 N419 1.351 . S
C420 C421 1.434 . S
C421 C412 1.429 . S
C421 N418 1.350 . S
C421 C420 1.434 . S
C422 C423 1.369 . S
C422 C424 1.419 . S
C422 H426 0.930 . S
C423 C422 1.369 . S
C423 C432 1.429 . S
C424 C422 1.419 . S
C424 C425 1.363 . S
C424 H427 0.929 . S
C425 C424 1.363 . S
C425 C431 1.428 . S
H426 C422 0.930 . S
H427 C424 0.929 . S
S428 N429 1.613 . S
S428 N430 1.610 . S
N429 S428 1.613 . S
N429 C432 1.350 . S
N430 S428 1.610 . S
N430 C431 1.351 . S
C431 C425 1.428 . S
C431 N430 1.351 . S
C431 C432 1.434 . S
C432 C423 1.429 . S
C432 N429 1.350 . S
C432 C431 1.434 . S
C433 C434 1.369 . S
C433 C435 1.419 . S
C433 H437 0.930 . S
C434 C433 1.369 . S
C434 C443 1.429 . S
C435 C433 1.419 . S
C435 C436 1.363 . S
C435 H438 0.929 . S
C436 C435 1.363 . S
C436 C442 1.428 . S
H437 C433 0.930 . S
H438 C435 0.929 . S
S439 N440 1.613 . S
S439 N441 1.610 . S
N440 S439 1.613 . S
N440 C443 1.350 . S
N441 S439 1.610 . S
N441 C442 1.351 . S
C442 C436 1.428 . S
C442 N441 1.351 . S
C442 C443 1.434 . S
C443 C434 1.429 . S
C443 N440 1.350 . S
C443 C442 1.434 . S
C444 C445 1.369 . S
C444 C446 1.419 . S
C444 H448 0.930 . S
C445 C444 1.369 . S
C445 C454 1.429 . S
C446 C444 1.419 . S
C446 C447 1.363 . S
C446 H449 0.929 . S
C447 C446 1.363 . S
C447 C453 1.428 . S
H448 C444 0.930 . S
H449 C446 0.929 . S
S450 N451 1.613 . S
S450 N452 1.610 . S
N451 S450 1.613 . S
N451 C454 1.350 . S
N452 S450 1.610 . S
N452 C453 1.351 . S
C453 C447 1.428 . S
C453 N452 1.351 . S
C453 C454 1.434 . S
C454 C445 1.429 . S
C454 N451 1.350 . S
C454 C453 1.434 . S
C455 C456 1.369 . S
C455 C457 1.419 . S
C455 H459 0.930 . S
C456 C455 1.369 . S
C456 C465 1.429 . S
C457 C455 1.419 . S
C457 C458 1.363 . S
C457 H460 0.929 1_455 S
C458 C457 1.363 . S
C458 C464 1.428 . S
H459 C455 0.930 . S
H460 C457 0.929 1_655 S
S461 N462 1.613 . S
S461 N463 1.610 . S
N462 S461 1.613 . S
N462 C465 1.350 . S
N463 S461 1.610 . S
N463 C464 1.351 . S
C464 C458 1.428 . S
C464 N463 1.351 . S
C464 C465 1.434 . S
C465 C456 1.429 . S
C465 N462 1.350 . S
C465 C464 1.434 . S
C466 C467 1.369 . S
C466 C468 1.419 . S
C466 H470 0.930 . S
C467 C466 1.369 . S
C467 C476 1.429 . S
C468 C466 1.419 . S
C468 C469 1.363 . S
C468 H471 0.929 . S
C469 C468 1.363 . S
C469 C475 1.428 . S
H470 C466 0.930 . S
H471 C468 0.929 . S
S472 N473 1.613 . S
S472 N474 1.610 . S
N473 S472 1.613 . S
N473 C476 1.350 . S
N474 S472 1.610 . S
N474 C475 1.351 . S
C475 C469 1.428 . S
C475 N474 1.351 . S
C475 C476 1.434 . S
C476 C467 1.429 . S
C476 N473 1.350 . S
C476 C475 1.434 . S
C477 C478 1.369 . S
C477 C479 1.419 . S
C477 H481 0.930 . S
C478 C477 1.369 . S
C478 C487 1.429 . S
C479 C477 1.419 . S
C479 C480 1.363 . S
C479 H482 0.929 . S
C480 C479 1.363 . S
C480 C486 1.428 . S
H481 C477 0.930 . S
H482 C479 0.929 . S
S483 N484 1.613 . S
S483 N485 1.610 . S
N484 S483 1.613 . S
N484 C487 1.350 . S
N485 S483 1.610 . S
N485 C486 1.351 . S
C486 C480 1.428 . S
C486 N485 1.351 . S
C486 C487 1.434 . S
C487 C478 1.429 . S
C487 N484 1.350 . S
C487 C486 1.434 . S
C488 C489 1.369 . S
C488 C490 1.419 . S
C488 H492 0.930 . S
C489 C488 1.369 . S
C489 C498 1.429 . S
C490 C488 1.419 . S
C490 C491 1.363 . S
C490 H493 0.929 . S
C491 C490 1.363 . S
C491 C497 1.428 . S
H492 C488 0.930 . S
H493 C490 0.929 . S
S494 N495 1.613 . S
S494 N496 1.610 1_565 S
N495 S494 1.613 . S
N495 C498 1.350 . S
N496 S494 1.610 1_545 S
N496 C497 1.351 1_545 S
C497 C491 1.428 . S
C497 N496 1.351 1_565 S
C497 C498 1.434 . S
C498 C489 1.429 . S
C498 N495 1.350 . S
C498 C497 1.434 . S
C499 C500 1.369 . S
C499 C501 1.419 . S
C499 H503 0.930 . S
C500 C499 1.369 . S
C500 C509 1.429 . S
C501 C499 1.419 . S
C501 C502 1.363 . S
C501 H504 0.929 . S
C502 C501 1.363 . S
C502 C508 1.428 . S
H503 C499 0.930 . S
H504 C501 0.929 . S
S505 N506 1.613 . S
S505 N507 1.610 . S
N506 S505 1.613 . S
N506 C509 1.350 . S
N507 S505 1.610 . S
N507 C508 1.351 . S
C508 C502 1.428 . S
C508 N507 1.351 . S
C508 C509 1.434 . S
C509 C500 1.429 . S
C509 N506 1.350 . S
C509 C508 1.434 . S
C510 C511 1.369 . S
C510 C512 1.419 1_545 S
C510 H514 0.930 . S
C511 C510 1.369 . S
C511 C520 1.429 1_556 S
C512 C510 1.419 1_565 S
C512 C513 1.363 . S
C512 H515 0.929 . S
C513 C512 1.363 . S
C513 C519 1.428 1_566 S
H514 C510 0.930 . S
H515 C512 0.929 . S
S516 N517 1.613 . S
S516 N518 1.610 1_545 S
N517 S516 1.613 . S
N517 C520 1.350 . S
N518 S516 1.610 1_565 S
N518 C519 1.351 1_565 S
C519 C513 1.428 1_544 S
C519 N518 1.351 1_545 S
C519 C520 1.434 . S
C520 C511 1.429 1_554 S
C520 N517 1.350 . S
C520 C519 1.434 . S
C521 C522 1.369 . S
C521 C523 1.419 . S
C521 H525 0.930 . S
C522 C521 1.369 . S
C522 C531 1.429 . S
C523 C521 1.419 . S
C523 C524 1.363 . S
C523 H526 0.929 . S
C524 C523 1.363 . S
C524 C530 1.428 . S
H525 C521 0.930 . S
H526 C523 0.929 . S
S527 N528 1.613 . S
S527 N529 1.610 . S
N528 S527 1.613 . S
N528 C531 1.350 . S
N529 S527 1.610 . S
N529 C530 1.351 . S
C530 C524 1.428 . S
C530 N529 1.351 . S
C530 C531 1.434 . S
C531 C522 1.429 . S
C531 N528 1.350 . S
C531 C530 1.434 . S
C532 C533 1.369 . S
C532 C534 1.419 . S
C532 H536 0.930 . S
C533 C532 1.369 . S
C533 C542 1.429 . S
C534 C532 1.419 . S
C534 C535 1.363 . S
C534 H537 0.929 . S
C535 C534 1.363 . S
C535 C541 1.428 . S
H536 C532 0.930 . S
H537 C534 0.929 . S
S538 N539 1.613 1_545 S
S538 N540 1.610 . S
N539 S538 1.613 1_565 S
N539 C542 1.350 1_565 S
N540 S538 1.610 . S
N540 C541 1.351 . S
C541 C535 1.428 . S
C541 N540 1.351 . S
C541 C542 1.434 . S
C542 C533 1.429 . S
C542 N539 1.350 1_545 S
C542 C541 1.434 . S
C543 C544 1.369 . S
C543 C545 1.419 . S
C543 H547 0.930 . S
C544 C543 1.369 . S
C544 C553 1.429 . S
C545 C543 1.419 . S
C545 C546 1.363 . S
C545 H548 0.929 . S
C546 C545 1.363 . S
C546 C552 1.428 . S
H547 C543 0.930 . S
H548 C545 0.929 . S
S549 N550 1.613 . S
S549 N551 1.610 . S
N550 S549 1.613 . S
N550 C553 1.350 . S
N551 S549 1.610 . S
N551 C552 1.351 . S
C552 C546 1.428 . S
C552 N551 1.351 . S
C552 C553 1.434 . S
C553 C544 1.429 . S
C553 N550 1.350 . S
C553 C552 1.434 . S
C554 C555 1.369 . S
C554 C556 1.419 1_565 S
C554 H558 0.930 . S
C555 C554 1.369 . S
C555 C564 1.429 1_565 S
C556 C554 1.419 1_545 S
C556 C557 1.363 . S
C556 H559 0.929 . S
C557 C556 1.363 . S
C557 C563 1.428 . S
H558 C554 0.930 . S
H559 C556 0.929 . S
S560 N561 1.625 . S
S560 N562 1.610 . S
N561 S560 1.625 . S
N561 C564 1.352 . S
N562 S560 1.610 . S
N562 C563 1.351 . S
C563 C557 1.428 . S
C563 N562 1.351 . S
C563 C564 1.434 . S
C564 C555 1.429 1_545 S
C564 N561 1.352 . S
C564 C563 1.434 . S
C565 C566 1.369 . S
C565 C567 1.419 . S
C565 H569 0.930 . S
C566 C565 1.369 . S
C566 C575 1.429 . S
C567 C565 1.419 . S
C567 C568 1.363 . S
C567 H570 0.929 . S
C568 C567 1.363 . S
C568 C574 1.428 . S
H569 C565 0.930 . S
H570 C567 0.929 . S
S571 N572 1.613 . S
S571 N573 1.610 . S
N572 S571 1.613 . S
N572 C575 1.350 . S
N573 S571 1.610 . S
N573 C574 1.351 . S
C574 C568 1.428 . S
C574 N573 1.351 . S
C574 C575 1.434 . S
C575 C566 1.429 . S
C575 N572 1.350 . S
C575 C574 1.434 . S
C576 C577 1.369 . S
C576 C578 1.419 . S
C576 H580 0.930 . S
C577 C576 1.369 . S
C577 C586 1.429 . S
C578 C576 1.419 . S
C578 C579 1.363 . S
C578 H581 0.929 . S
C579 C578 1.363 . S
C579 C585 1.428 . S
H580 C576 0.930 . S
H581 C578 0.929 . S
S582 N583 1.613 . S
S582 N584 1.610 . S
N583 S582 1.613 . S
N583 C586 1.350 . S
N584 S582 1.610 . S
N584 C585 1.351 . S
C585 C579 1.428 . S
C585 N584 1.351 . S
C585 C586 1.434 . S
C586 C577 1.429 . S
C586 N583 1.350 . S
C586 C585 1.434 . S
C587 C588 1.369 . S
C587 C589 1.419 . S
C587 H591 0.930 . S
C588 C587 1.369 . S
C588 C597 1.429 . S
C589 C587 1.419 . S
C589 C590 1.363 . S
C589 H592 0.929 . S
C590 C589 1.363 . S
C590 C596 1.428 . S
H591 C587 0.930 . S
H592 C589 0.929 . S
S593 N594 1.613 . S
S593 N595 1.610 . S
N594 S593 1.613 . S
N594 C597 1.350 . S
N595 S593 1.610 . S
N595 C596 1.351 . S
C596 C590 1.428 . S
C596 N595 1.351 . S
C596 C597 1.434 . S
C597 C588 1.429 . S
C597 N594 1.350 . S
C597 C596 1.434 . S
C598 C599 1.369 . S
C598 C600 1.419 . S
C598 H602 0.930 . S
C599 C598 1.369 . S
C599 C608 1.429 . S
C600 C598 1.419 . S
C600 C601 1.363 . S
C600 H603 0.929 . S
C601 C600 1.363 . S
C601 C607 1.428 . S
H602 C598 0.930 . S
H603 C600 0.929 . S
S604 N605 1.613 . S
S604 N606 1.610 . S
N605 S604 1.613 . S
N605 C608 1.350 . S
N606 S604 1.610 . S
N606 C607 1.351 . S
C607 C601 1.428 . S
C607 N606 1.351 . S
C607 C608 1.434 . S
C608 C599 1.429 . S
C608 N605 1.350 . S
C608 C607 1.434 . S
C609 C610 1.369 . S
C609 C611 1.419 . S
C609 H613 0.930 . S
C610 C609 1.369 . S
C610 C619 1.429 . S
C611 C609 1.419 . S
C611 C612 1.363 . S
C611 H614 0.929 . S
C612 C611 1.363 . S
C612 C618 1.428 . S
H613 C609 0.930 . S
H614 C611 0.929 . S
S615 N616 1.613 . S
S615 N617 1.610 . S
N616 S615 1.613 . S
N616 C619 1.350 . S
N617 S615 1.610 . S
N617 C618 1.351 . S
C618 C612 1.428 . S
C618 N617 1.351 . S
C618 C619 1.434 . S
C619 C610 1.429 . S
C619 N616 1.350 . S
C619 C618 1.434 . S
C620 C621 1.369 . S
C620 C622 1.419 . S
C620 H624 0.930 . S
C621 C620 1.369 . S
C621 C630 1.429 . S
C622 C620 1.419 . S
C622 C623 1.363 . S
C622 H625 0.929 . S
C623 C622 1.363 . S
C623 C629 1.428 . S
H624 C620 0.930 . S
H625 C622 0.929 . S
S626 N627 1.613 . S
S626 N628 1.610 . S
N627 S626 1.613 . S
N627 C630 1.350 . S
N628 S626 1.610 . S
N628 C629 1.351 . S
C629 C623 1.428 . S
C629 N628 1.351 . S
C629 C630 1.434 . S
C630 C621 1.429 . S
C630 N627 1.350 . S
C630 C629 1.434 . S
C631 C632 1.369 . S
C631 C633 1.419 . S
C631 H635 0.930 . S
C632 C631 1.369 . S
C632 C641 1.429 . S
C633 C631 1.419 . S
C633 C634 1.363 1_455 S
C633 H636 0.919 1_455 S
C634 C633 1.363 1_655 S
C634 C640 1.428 1_655 S
H635 C631 0.930 . S
H636 C633 0.919 1_655 S
S637 N638 1.613 . S
S637 N639 1.610 1_455 S
N638 S637 1.613 . S
N638 C641 1.350 . S
N639 S637 1.610 1_655 S
N639 C640 1.351 1_655 S
C640 C634 1.428 1_455 S
C640 N639 1.351 1_455 S
C640 C641 1.434 . S
C641 C632 1.429 . S
C641 N638 1.350 . S
C641 C640 1.434 . S
C642 C643 1.369 . S
C642 C644 1.419 . S
C642 H646 0.930 . S
C643 C642 1.369 . S
C643 C652 1.429 . S
C644 C642 1.419 . S
C644 C645 1.363 . S
C644 H647 0.929 . S
C645 C644 1.363 . S
C645 C651 1.428 . S
H646 C642 0.930 . S
H647 C644 0.929 . S
S648 N649 1.613 . S
S648 N650 1.610 . S
N649 S648 1.613 . S
N649 C652 1.350 . S
N650 S648 1.610 . S
N650 C651 1.351 . S
C651 C645 1.428 . S
C651 N650 1.351 . S
C651 C652 1.434 . S
C652 C643 1.429 . S
C652 N649 1.350 . S
C652 C651 1.434 . S
C653 C654 1.369 . S
C653 C655 1.419 . S
C653 H657 0.930 . S
C654 C653 1.369 . S
C654 C663 1.429 . S
C655 C653 1.419 . S
C655 C656 1.363 1_655 S
C655 H658 0.929 . S
C656 C655 1.363 1_455 S
C656 C662 1.428 . S
H657 C653 0.930 . S
H658 C655 0.929 . S
S659 N660 1.613 1_455 S
S659 N661 1.610 . S
N660 S659 1.613 1_655 S
N660 C663 1.350 . S
N661 S659 1.610 . S
N661 C662 1.351 . S
C662 C656 1.428 . S
C662 N661 1.351 . S
C662 C663 1.434 1_455 S
C663 C654 1.429 . S
C663 N660 1.350 . S
C663 C662 1.434 1_655 S
C664 C665 1.369 . S
C664 C666 1.419 . S
C664 H668 0.930 . S
C665 C664 1.369 . S
C665 C674 1.429 . S
C666 C664 1.419 . S
C666 C667 1.363 . S
C666 H669 0.929 . S
C667 C666 1.363 . S
C667 C673 1.428 . S
H668 C664 0.930 . S
H669 C666 0.929 . S
S670 N671 1.613 . S
S670 N672 1.610 . S
N671 S670 1.613 . S
N671 C674 1.350 . S
N672 S670 1.610 . S
N672 C673 1.351 . S
C673 C667 1.428 . S
C673 N672 1.351 . S
C673 C674 1.434 . S
C674 C665 1.429 . S
C674 N671 1.350 . S
C674 C673 1.434 . S
C675 C676 1.369 . S
C675 C677 1.419 . S
C675 H679 0.930 . S
C676 C675 1.369 . S
C676 C685 1.429 . S
C677 C675 1.419 . S
C677 C678 1.363 1_554 S
C677 H680 0.929 1_554 S
C678 C677 1.363 1_556 S
C678 C684 1.428 . S
H679 C675 0.930 . S
H680 C677 0.929 1_556 S
S681 N682 1.613 1_556 S
S681 N683 1.610 . S
N682 S681 1.613 1_554 S
N682 C685 1.350 . S
N683 S681 1.610 . S
N683 C684 1.351 . S
C684 C678 1.428 . S
C684 N683 1.351 . S
C684 C685 1.434 1_556 S
C685 C676 1.429 . S
C685 N682 1.350 . S
C685 C684 1.434 1_554 S
C686 C687 1.369 . S
C686 C688 1.419 . S
C686 H690 0.930 . S
C687 C686 1.369 . S
C687 C696 1.429 . S
C688 C686 1.419 . S
C688 C689 1.363 . S
C688 H691 0.929 . S
C689 C688 1.363 . S
C689 C695 1.428 . S
H690 C686 0.930 . S
H691 C688 0.929 . S
S692 N693 1.613 . S
S692 N694 1.610 . S
N693 S692 1.613 . S
N693 C696 1.350 . S
N694 S692 1.610 . S
N694 C695 1.351 . S
C695 C689 1.428 . S
C695 N694 1.351 . S
C695 C696 1.434 . S
C696 C687 1.429 . S
C696 N693 1.350 . S
C696 C695 1.434 . S
C697 C698 1.369 . S
C697 C699 1.419 . S
C697 H701 0.930 . S
C698 C697 1.369 . S
C698 C707 1.429 . S
C699 C697 1.419 . S
C699 C700 1.363 . S
C699 H702 0.929 . S
C700 C699 1.363 . S
C700 C706 1.428 . S
H701 C697 0.930 . S
H702 C699 0.929 . S
S703 N704 1.613 . S
S703 N705 1.610 1_554 S
N704 S703 1.613 . S
N704 C707 1.350 . S
N705 S703 1.610 1_556 S
N705 C706 1.351 1_556 S
C706 C700 1.428 . S
C706 N705 1.351 1_554 S
C706 C707 1.434 . S
C707 C698 1.429 . S
C707 N704 1.350 . S
C707 C706 1.434 . S
C708 C709 1.369 . S
C708 C710 1.419 . S
C708 H712 0.930 . S
C709 C708 1.369 . S
C709 C718 1.429 . S
C710 C708 1.419 . S
C710 C711 1.363 . S
C710 H713 0.929 . S
C711 C710 1.363 . S
C711 C717 1.428 . S
H712 C708 0.930 . S
H713 C710 0.929 . S
S714 N715 1.613 . S
S714 N716 1.610 . S
N715 S714 1.613 . S
N715 C718 1.350 . S
N716 S714 1.610 . S
N716 C717 1.351 . S
C717 C711 1.428 . S
C717 N716 1.351 . S
C717 C718 1.434 . S
C718 C709 1.429 . S
C718 N715 1.350 . S
C718 C717 1.434 . S
C719 C720 1.369 . S
C719 C721 1.419 1_556 S
C719 H723 0.930 . S
C720 C719 1.369 . S
C720 C729 1.429 . S
C721 C719 1.419 1_554 S
C721 C722 1.363 . S
C721 H724 0.929 . S
C722 C721 1.363 . S
C722 C728 1.428 . S
H723 C719 0.930 . S
H724 C721 0.929 . S
S725 N726 1.613 . S
S725 N727 1.610 1_556 S
N726 S725 1.613 . S
N726 C729 1.350 . S
N727 S725 1.610 1_554 S
N727 C728 1.351 . S
C728 C722 1.428 . S
C728 N727 1.351 . S
C728 C729 1.434 1_554 S
C729 C720 1.429 . S
C729 N726 1.350 . S
C729 C728 1.434 1_556 S
C730 C731 1.369 . S
C730 C732 1.419 . S
C730 H734 0.930 . S
C731 C730 1.369 . S
C731 C740 1.429 . S
C732 C730 1.419 . S
C732 C733 1.363 . S
C732 H735 0.929 . S
C733 C732 1.363 . S
C733 C739 1.428 . S
H734 C730 0.930 . S
H735 C732 0.929 . S
S736 N737 1.613 . S
S736 N738 1.610 . S
N737 S736 1.613 . S
N737 C740 1.350 . S
N738 S736 1.610 . S
N738 C739 1.351 . S
C739 C733 1.428 . S
C739 N738 1.351 . S
C739 C740 1.434 . S
C740 C731 1.429 . S
C740 N737 1.350 . S
C740 C739 1.434 . S
C741 C742 1.371 . S
C741 C743 1.419 1_556 S
C741 H745 0.930 . S
C742 C741 1.371 . S
C742 C751 1.411 1_556 S
C743 C741 1.419 1_554 S
C743 C744 1.363 . S
C743 H746 0.929 . S
C744 C743 1.363 . S
C744 C750 1.428 . S
H745 C741 0.930 . S
H746 C743 0.929 . S
S747 N748 1.613 . S
S747 N749 1.610 . S
N748 S747 1.613 . S
N748 C751 1.350 . S
N749 S747 1.610 . S
N749 C750 1.351 . S
C750 C744 1.428 . S
C750 N749 1.351 . S
C750 C751 1.434 . S
C751 C742 1.411 1_554 S
C751 N748 1.350 . S
C751 C750 1.434 . S
C752 C753 1.369 . S
C752 C754 1.419 . S
C752 H756 0.930 . S
C753 C752 1.369 . S
C753 C762 1.429 . S
C754 C752 1.419 . S
C754 C755 1.363 . S
C754 H757 0.929 . S
C755 C754 1.363 . S
C755 C761 1.428 . S
H756 C752 0.930 . S
H757 C754 0.929 . S
S758 N759 1.613 . S
S758 N760 1.610 . S
N759 S758 1.613 . S
N759 C762 1.350 . S
N760 S758 1.610 . S
N760 C761 1.351 . S
C761 C755 1.428 . S
C761 N760 1.351 . S
C761 C762 1.434 . S
C762 C753 1.429 . S
C762 N759 1.350 . S
C762 C761 1.434 . S
C763 C764 1.369 . S
C763 C765 1.419 . S
C763 H767 0.930 . S
C764 C763 1.369 . S
C764 C773 1.429 . S
C765 C763 1.419 . S
C765 C766 1.363 . S
C765 H768 0.929 . S
C766 C765 1.363 . S
C766 C772 1.428 . S
H767 C763 0.930 . S
H768 C765 0.929 . S
S769 N770 1.613 . S
S769 N771 1.610 . S
N770 S769 1.613 . S
N770 C773 1.350 . S
N771 S769 1.610 . S
N771 C772 1.351 . S
C772 C766 1.428 . S
C772 N771 1.351 . S
C772 C773 1.434 . S
C773 C764 1.429 . S
C773 N770 1.350 . S
C773 C772 1.434 . S
C774 C775 1.369 . S
C774 C776 1.419 . S
C774 H778 0.930 . S
C775 C774 1.369 . S
C775 C784 1.429 . S
C776 C774 1.419 . S
C776 C777 1.363 . S
C776 H779 0.929 . S
C777 C776 1.363 . S
C777 C783 1.428 . S
H778 C774 0.930 . S
H779 C776 0.929 . S
S780 N781 1.613 . S
S780 N782 1.610 . S
N781 S780 1.613 . S
N781 C784 1.350 . S
N782 S780 1.610 . S
N782 C783 1.351 . S
C783 C777 1.428 . S
C783 N782 1.351 . S
C783 C784 1.434 . S
C784 C775 1.429 . S
C784 N781 1.350 . S
C784 C783 1.434 . S
C785 C786 1.369 . S
C785 C787 1.419 . S
C785 H789 0.930 . S
C786 C785 1.369 . S
C786 C795 1.429 . S
C787 C785 1.419 . S
C787 C788 1.363 . S
C787 H790 0.929 . S
C788 C787 1.363 . S
C788 C794 1.428 . S
H789 C785 0.930 . S
H790 C787 0.929 . S
S791 N792 1.613 . S
S791 N793 1.610 . S
N792 S791 1.613 . S
N792 C795 1.350 . S
N793 S791 1.610 . S
N793 C794 1.351 . S
C794 C788 1.428 . S
C794 N793 1.351 . S
C794 C795 1.434 . S
C795 C786 1.429 . S
C795 N792 1.350 . S
C795 C794 1.434 . S
C796 C797 1.369 . S
C796 C798 1.419 . S
C796 H800 0.930 . S
C797 C796 1.369 . S
C797 C806 1.429 . S
C798 C796 1.419 . S
C798 C799 1.363 . S
C798 H801 0.929 . S
C799 C798 1.363 . S
C799 C805 1.428 . S
H800 C796 0.930 . S
H801 C798 0.929 . S
S802 N803 1.613 . S
S802 N804 1.610 . S
N803 S802 1.613 . S
N803 C806 1.350 . S
N804 S802 1.610 . S
N804 C805 1.351 . S
C805 C799 1.428 . S
C805 N804 1.351 . S
C805 C806 1.434 . S
C806 C797 1.429 . S
C806 N803 1.350 . S
C806 C805 1.434 . S
C807 C808 1.369 . S
C807 C809 1.419 . S
C807 H811 0.930 . S
C808 C807 1.369 . S
C808 C817 1.429 . S
C809 C807 1.419 . S
C809 C810 1.363 . S
C809 H812 0.929 . S
C810 C809 1.363 . S
C810 C816 1.428 . S
H811 C807 0.930 . S
H812 C809 0.929 . S
S813 N814 1.613 . S
S813 N815 1.610 . S
N814 S813 1.613 . S
N814 C817 1.350 . S
N815 S813 1.610 . S
N815 C816 1.351 . S
C816 C810 1.428 . S
C816 N815 1.351 . S
C816 C817 1.434 . S
C817 C808 1.429 . S
C817 N814 1.350 . S
C817 C816 1.434 . S
C818 C819 1.369 . S
C818 C820 1.419 . S
C818 H822 0.930 . S
C819 C818 1.369 . S
C819 C828 1.429 . S
C820 C818 1.419 . S
C820 C821 1.363 . S
C820 H823 0.929 . S
C821 C820 1.363 . S
C821 C827 1.428 . S
H822 C818 0.930 . S
H823 C820 0.929 . S
S824 N825 1.613 . S
S824 N826 1.610 . S
N825 S824 1.613 . S
N825 C828 1.350 . S
N826 S824 1.610 . S
N826 C827 1.351 . S
C827 C821 1.428 . S
C827 N826 1.351 . S
C827 C828 1.434 . S
C828 C819 1.429 . S
C828 N825 1.350 . S
C828 C827 1.434 . S
C829 C830 1.369 . S
C829 C831 1.419 . S
C829 H833 0.930 . S
C830 C829 1.369 . S
C830 C839 1.429 . S
C831 C829 1.419 . S
C831 C832 1.363 . S
C831 H834 0.929 . S
C832 C831 1.363 . S
C832 C838 1.428 . S
H833 C829 0.930 . S
H834 C831 0.929 . S
S835 N836 1.613 . S
S835 N837 1.610 . S
N836 S835 1.613 . S
N836 C839 1.350 . S
N837 S835 1.610 . S
N837 C838 1.351 . S
C838 C832 1.428 . S
C838 N837 1.351 . S
C838 C839 1.434 . S
C839 C830 1.429 . S
C839 N836 1.350 . S
C839 C838 1.434 . S
C315 C152 1.574 . S
C313 C50 1.566 . S
C326 C167 1.629 . S
C324 C61 1.667 . S
C335 C67 1.632 . S
C337 C180 1.623 . S
C348 C194 1.492 . S
C346 C41 1.533 . S
C359 C206 1.558 . S
C357 C95 1.630 . S
C370 C220 1.338 . S
C368 C113 1.346 . S
C379 C106 1.658 . S
C381 C234 1.615 . S
C392 C249 1.450 . S
C390 C86 1.462 . S
C401 C104 1.590 . S
C403 C265 1.584 . S
C414 C278 1.484 . S
C412 C88 1.501 . S
C423 C94 1.565 . S
C425 C263 1.515 . S
C436 C276 1.470 . S
C434 C112 1.456 . S
C445 C70 1.725 . S
C447 C292 1.715 . S
C456 C40 1.522 . S
C458 C291 1.502 . S
C467 C49 1.655 . S
C469 C290 1.590 . S
C478 C59 1.608 . S
C480 C293 1.577 . S
C489 C34 1.624 . S
C491 C195 1.607 1_565 S
C500 C133 1.491 . S
C502 C193 1.467 . S
C513 C153 1.504 1_556 S
C511 C139 1.530 . S
C524 C164 1.652 . S
C522 C77 1.676 . S
C533 C43 1.571 1_545 S
C535 C209 1.546 . S
C546 C250 1.759 . S
C544 C103 1.763 . S
C557 C207 1.483 . S
C555 C85 1.480 . S
C568 C235 1.445 . S
C566 C115 1.450 . S
C579 C236 1.568 . S
C577 C131 1.568 . S
C588 C142 1.668 . S
C590 C251 1.627 . S
C599 C76 1.631 . S
C601 C208 1.623 . S
C612 C222 1.487 . S
C610 C122 1.536 . S
C621 C32 1.631 . S
C623 C178 1.555 . S
C634 C192 1.332 . S
C632 C5 1.340 . S
C645 C150 1.617 . S
C643 C16 1.657 . S
C656 C165 1.453 . S
C654 C23 1.462 . S
C665 C14 1.589 . S
C667 C279 1.583 . S
C676 C25 1.501 . S
C678 C264 1.484 . S
C687 C31 1.564 . S
C689 C277 1.517 . S
C698 C4 1.450 . S
C700 C262 1.472 1_554 S
C711 C306 1.714 . S
C709 C79 1.724 . S
C722 C305 1.501 . S
C720 C121 1.523 . S
C733 C304 1.590 . S
C731 C130 1.655 . S
C742 C140 1.617 . S
C744 C307 1.582 . S
C753 C97 1.624 . S
C755 C223 1.620 . S
C766 C221 1.465 . S
C764 C52 1.492 . S
C777 C237 1.501 . S
C775 C58 1.534 . S
C788 C248 1.653 . S
C786 C68 1.678 . S
C797 C124 1.569 . S
C799 C181 1.545 . S
C810 C166 1.759 . S
C808 C13 1.764 . S
C819 C22 1.479 . S
C821 C179 1.483 . S
C832 C151 1.440 1_545 S
C830 C7 1.452 . S
