# Generated by pormake.
# Topology ctn, (3,4)-cn, num edge types: 1
# Building blocks:
#     Node 0, Type 0, BuildingBlock: MIDCAF_clean_linker_0, # of connection points: 3
#     Node 1, Type 0, BuildingBlock: MIDCAF_clean_linker_0, # of connection points: 3
#     Node 2, Type 0, BuildingBlock: MIDCAF_clean_linker_0, # of connection points: 3
#     Node 3, Type 0, BuildingBlock: MIDCAF_clean_linker_0, # of connection points: 3
#     Node 4, Type 0, BuildingBlock: MIDCAF_clean_linker_0, # of connection points: 3
#     Node 5, Type 0, BuildingBlock: MIDCAF_clean_linker_0, # of connection points: 3
#     Node 6, Type 0, BuildingBlock: MIDCAF_clean_linker_0, # of connection points: 3
#     Node 7, Type 0, BuildingBlock: MIDCAF_clean_linker_0, # of connection points: 3
#     Node 8, Type 0, BuildingBlock: MIDCAF_clean_linker_0, # of connection points: 3
#     Node 9, Type 0, BuildingBlock: MIDCAF_clean_linker_0, # of connection points: 3
#     Node 10, Type 0, BuildingBlock: MIDCAF_clean_linker_0, # of connection points: 3
#     Node 11, Type 0, BuildingBlock: MIDCAF_clean_linker_0, # of connection points: 3
#     Node 12, Type 0, BuildingBlock: MIDCAF_clean_linker_0, # of connection points: 3
#     Node 13, Type 0, BuildingBlock: MIDCAF_clean_linker_0, # of connection points: 3
#     Node 14, Type 0, BuildingBlock: MIDCAF_clean_linker_0, # of connection points: 3
#     Node 15, Type 0, BuildingBlock: MIDCAF_clean_linker_0, # of connection points: 3
#     Node 16, Type 1, BuildingBlock: QUQFOY_clean_sbu_1, # of connection points: 4
#     Node 17, Type 1, BuildingBlock: QUQFOY_clean_sbu_1, # of connection points: 4
#     Node 18, Type 1, BuildingBlock: QUQFOY_clean_sbu_1, # of connection points: 4
#     Node 19, Type 1, BuildingBlock: QUQFOY_clean_sbu_1, # of connection points: 4
#     Node 20, Type 1, BuildingBlock: QUQFOY_clean_sbu_1, # of connection points: 4
#     Node 21, Type 1, BuildingBlock: QUQFOY_clean_sbu_1, # of connection points: 4
#     Node 22, Type 1, BuildingBlock: QUQFOY_clean_sbu_1, # of connection points: 4
#     Node 23, Type 1, BuildingBlock: QUQFOY_clean_sbu_1, # of connection points: 4
#     Node 24, Type 1, BuildingBlock: QUQFOY_clean_sbu_1, # of connection points: 4
#     Node 25, Type 1, BuildingBlock: QUQFOY_clean_sbu_1, # of connection points: 4
#     Node 26, Type 1, BuildingBlock: QUQFOY_clean_sbu_1, # of connection points: 4
#     Node 27, Type 1, BuildingBlock: QUQFOY_clean_sbu_1, # of connection points: 4
#     Edge 28, Type (0, 1), BuildingBlock: CIFDUS_clean_linker_0, # of connection points: 2
#     Edge 29, Type (0, 1), BuildingBlock: CIFDUS_clean_linker_0, # of connection points: 2
#     Edge 30, Type (0, 1), BuildingBlock: CIFDUS_clean_linker_0, # of connection points: 2
#     Edge 31, Type (0, 1), BuildingBlock: CIFDUS_clean_linker_0, # of connection points: 2
#     Edge 32, Type (0, 1), BuildingBlock: CIFDUS_clean_linker_0, # of connection points: 2
#     Edge 33, Type (0, 1), BuildingBlock: CIFDUS_clean_linker_0, # of connection points: 2
#     Edge 34, Type (0, 1), BuildingBlock: CIFDUS_clean_linker_0, # of connection points: 2
#     Edge 35, Type (0, 1), BuildingBlock: CIFDUS_clean_linker_0, # of connection points: 2
#     Edge 36, Type (0, 1), BuildingBlock: CIFDUS_clean_linker_0, # of connection points: 2
#     Edge 37, Type (0, 1), BuildingBlock: CIFDUS_clean_linker_0, # of connection points: 2
#     Edge 38, Type (0, 1), BuildingBlock: CIFDUS_clean_linker_0, # of connection points: 2
#     Edge 39, Type (0, 1), BuildingBlock: CIFDUS_clean_linker_0, # of connection points: 2
#     Edge 40, Type (0, 1), BuildingBlock: CIFDUS_clean_linker_0, # of connection points: 2
#     Edge 41, Type (0, 1), BuildingBlock: CIFDUS_clean_linker_0, # of connection points: 2
#     Edge 42, Type (0, 1), BuildingBlock: CIFDUS_clean_linker_0, # of connection points: 2
#     Edge 43, Type (0, 1), BuildingBlock: CIFDUS_clean_linker_0, # of connection points: 2
#     Edge 44, Type (0, 1), BuildingBlock: CIFDUS_clean_linker_0, # of connection points: 2
#     Edge 45, Type (0, 1), BuildingBlock: CIFDUS_clean_linker_0, # of connection points: 2
#     Edge 46, Type (0, 1), BuildingBlock: CIFDUS_clean_linker_0, # of connection points: 2
#     Edge 47, Type (0, 1), BuildingBlock: CIFDUS_clean_linker_0, # of connection points: 2
#     Edge 48, Type (0, 1), BuildingBlock: CIFDUS_clean_linker_0, # of connection points: 2
#     Edge 49, Type (0, 1), BuildingBlock: CIFDUS_clean_linker_0, # of connection points: 2
#     Edge 50, Type (0, 1), BuildingBlock: CIFDUS_clean_linker_0, # of connection points: 2
#     Edge 51, Type (0, 1), BuildingBlock: CIFDUS_clean_linker_0, # of connection points: 2
#     Edge 52, Type (0, 1), BuildingBlock: CIFDUS_clean_linker_0, # of connection points: 2
#     Edge 53, Type (0, 1), BuildingBlock: CIFDUS_clean_linker_0, # of connection points: 2
#     Edge 54, Type (0, 1), BuildingBlock: CIFDUS_clean_linker_0, # of connection points: 2
#     Edge 55, Type (0, 1), BuildingBlock: CIFDUS_clean_linker_0, # of connection points: 2
#     Edge 56, Type (0, 1), BuildingBlock: CIFDUS_clean_linker_0, # of connection points: 2
#     Edge 57, Type (0, 1), BuildingBlock: CIFDUS_clean_linker_0, # of connection points: 2
#     Edge 58, Type (0, 1), BuildingBlock: CIFDUS_clean_linker_0, # of connection points: 2
#     Edge 59, Type (0, 1), BuildingBlock: CIFDUS_clean_linker_0, # of connection points: 2
#     Edge 60, Type (0, 1), BuildingBlock: CIFDUS_clean_linker_0, # of connection points: 2
#     Edge 61, Type (0, 1), BuildingBlock: CIFDUS_clean_linker_0, # of connection points: 2
#     Edge 62, Type (0, 1), BuildingBlock: CIFDUS_clean_linker_0, # of connection points: 2
#     Edge 63, Type (0, 1), BuildingBlock: CIFDUS_clean_linker_0, # of connection points: 2
#     Edge 64, Type (0, 1), BuildingBlock: CIFDUS_clean_linker_0, # of connection points: 2
#     Edge 65, Type (0, 1), BuildingBlock: CIFDUS_clean_linker_0, # of connection points: 2
#     Edge 66, Type (0, 1), BuildingBlock: CIFDUS_clean_linker_0, # of connection points: 2
#     Edge 67, Type (0, 1), BuildingBlock: CIFDUS_clean_linker_0, # of connection points: 2
#     Edge 68, Type (0, 1), BuildingBlock: CIFDUS_clean_linker_0, # of connection points: 2
#     Edge 69, Type (0, 1), BuildingBlock: CIFDUS_clean_linker_0, # of connection points: 2
#     Edge 70, Type (0, 1), BuildingBlock: CIFDUS_clean_linker_0, # of connection points: 2
#     Edge 71, Type (0, 1), BuildingBlock: CIFDUS_clean_linker_0, # of connection points: 2
#     Edge 72, Type (0, 1), BuildingBlock: CIFDUS_clean_linker_0, # of connection points: 2
#     Edge 73, Type (0, 1), BuildingBlock: CIFDUS_clean_linker_0, # of connection points: 2
#     Edge 74, Type (0, 1), BuildingBlock: CIFDUS_clean_linker_0, # of connection points: 2
#     Edge 75, Type (0, 1), BuildingBlock: CIFDUS_clean_linker_0, # of connection points: 2
# Relax obj value: 0.036
# Max RMSD: 0.143
# Mean RMSD: 0.065
data_MOF--net-ctn--node1-QUQFOY_clean_sbu_1--node2-MIDCAF_clean_linker_0--edge1-CIFDUS_clean_linker_0
_symmetry_space_group_name_H-M    P1
_symmetry_Int_Tables_number       1
_symmetry_cell_setting            triclinic
loop_
_symmetry_equiv_pos_as_xyz
'x, y, z'
_cell_length_a     60.384766
_cell_length_b     60.348332
_cell_length_c     60.574174
_cell_angle_alpha  92.925471
_cell_angle_beta   90.002999
_cell_angle_gamma 94.662995
loop_
_atom_site_label
_atom_site_type_symbol
_atom_site_fract_x
_atom_site_fract_y
_atom_site_fract_z
_atom_type_partial_charge
C0 C 0.00243 0.07786 0.12451 0.0
C1 C 0.0014 0.05599 0.13169 0.0
C2 C 0.01479 0.04068 0.12106 0.0
C3 C 0.02866 0.047 0.10365 0.0
H4 H 0.09512 0.04162 0.07655 0.0
H5 H 0.12596 0.02022 0.06491 0.0
H6 H 0.1198 0.04211 -0.00152 0.0
H7 H 0.08968 0.0642 0.01035 0.0
H8 H 0.06229 0.10649 0.00368 0.0
H9 H 0.04775 0.13302 0.9795 0.0
H10 H 0.00183 0.15177 0.03047 0.0
H11 H 0.01593 0.12508 0.05447 0.0
H12 H 0.01619 0.10095 0.1015 0.0
H13 H 0.99276 0.09027 0.13255 0.0
H14 H 0.01419 0.02358 0.12577 0.0
H15 H 0.03843 0.03466 0.09561 0.0
N16 N 0.05984 0.06301 0.07016 0.0
N17 N 0.06497 0.08425 0.03892 0.0
N18 N 0.03653 0.09131 0.064 0.0
C19 C 0.07126 0.06776 0.05143 0.0
C20 C 0.04766 0.09617 0.04515 0.0
C21 C 0.04247 0.07475 0.07654 0.0
C22 C 0.08997 0.05468 0.0444 0.0
C23 C 0.10039 0.04189 0.05947 0.0
C24 C 0.118 0.02949 0.05275 0.0
C25 C 0.12543 0.02939 0.03074 0.0
C26 C 0.11486 0.04211 0.01567 0.0
C27 C 0.09747 0.05471 0.02245 0.0
C28 C 0.04015 0.11345 0.03098 0.0
C29 C 0.04918 0.11636 0.00981 0.0
C30 C 0.04092 0.13163 0.99595 0.0
C31 C 0.02348 0.14432 0.00299 0.0
C32 C 0.01495 0.1419 0.02439 0.0
C33 C 0.02315 0.12665 0.0382 0.0
C34 C 0.02917 0.06865 0.09613 0.0
C35 C 0.01601 0.08406 0.10681 0.0
C36 C 0.25637 0.66274 0.2268 0.0
C37 C 0.23348 0.66052 0.22219 0.0
C38 C 0.2236 0.67846 0.21335 0.0
C39 C 0.23624 0.69844 0.20986 0.0
H40 H 0.23774 0.75849 0.1771 0.0
H41 H 0.22866 0.78364 0.14863 0.0
H42 H 0.29217 0.8209 0.15897 0.0
H43 H 0.30138 0.79604 0.18738 0.0
H44 H 0.32776 0.78583 0.23425 0.0
H45 H 0.36035 0.79213 0.2583 0.0
H46 H 0.3604 0.72124 0.26531 0.0
H47 H 0.32763 0.71498 0.24193 0.0
H48 H 0.28646 0.68388 0.22759 0.0
H49 H 0.2646 0.64908 0.23313 0.0
H50 H 0.20596 0.67735 0.20979 0.0
H51 H 0.22806 0.71215 0.20356 0.0
N52 N 0.26504 0.73845 0.20086 0.0
N53 N 0.2968 0.76191 0.21087 0.0
N54 N 0.29163 0.72634 0.22464 0.0
C55 C 0.27735 0.75823 0.1994 0.0
C56 C 0.30401 0.74601 0.22354 0.0
C57 C 0.27216 0.72242 0.21346 0.0
C58 C 0.27045 0.77501 0.18431 0.0
C59 C 0.24966 0.77223 0.17356 0.0
C60 C 0.24435 0.78669 0.15738 0.0
C61 C 0.25981 0.80402 0.15155 0.0
C62 C 0.28006 0.80751 0.16308 0.0
C63 C 0.28529 0.79325 0.17936 0.0
C64 C 0.3249 0.74994 0.23641 0.0
C65 C 0.33484 0.7716 0.2408 0.0
C66 C 0.35358 0.7752 0.2545 0.0
C67 C 0.36281 0.7572 0.26394 0.0
C68 C 0.35339 0.73551 0.25874 0.0
C69 C 0.33462 0.73193 0.24525 0.0
C70 C 0.25894 0.70089 0.21534 0.0
C71 C 0.26892 0.6827 0.22353 0.0
C72 C 0.95524 0.39559 0.04598 0.0
C73 C 0.93812 0.38929 0.03072 0.0
C74 C 0.91815 0.39964 0.03234 0.0
C75 C 0.91571 0.41672 0.04843 0.0
H76 H 0.88804 0.47735 0.05424 0.0
H77 H 0.86577 0.50736 0.04481 0.0
H78 H 0.88552 0.5437 0.10581 0.0
H79 H 0.90789 0.51362 0.11546 0.0
H80 H 0.94975 0.49908 0.14146 0.0
H81 H 0.981 0.51003 0.16605 0.0
H82 H 0.01602 0.45549 0.13846 0.0
H83 H 0.98456 0.44412 0.11423 0.0
H84 H 0.96646 0.41712 0.07343 0.0
H85 H 0.97071 0.38768 0.04516 0.0
H86 H 0.90475 0.39507 0.02068 0.0
H87 H 0.90035 0.42484 0.04894 0.0
N88 N 0.91591 0.45741 0.07647 0.0
N89 N 0.93097 0.47997 0.10633 0.0
N90 N 0.94686 0.447 0.09555 0.0
C91 C 0.9155 0.47606 0.09001 0.0
C92 C 0.94666 0.46548 0.10925 0.0
C93 C 0.93148 0.44275 0.07924 0.0
C94 C 0.89997 0.49312 0.08553 0.0
C95 C 0.88751 0.49157 0.06582 0.0
C96 C 0.87485 0.50884 0.06032 0.0
C97 C 0.87419 0.52796 0.07445 0.0
C98 C 0.88576 0.52913 0.09463 0.0
C99 C 0.89862 0.51192 0.10008 0.0
C100 C 0.96469 0.47085 0.1257 0.0
C101 C 0.964 0.48928 0.14074 0.0
C102 C 0.98199 0.49565 0.15475 0.0
C103 C 0.00112 0.48382 0.15397 0.0
C104 C 0.00148 0.46488 0.13955 0.0
C105 C 0.98344 0.45843 0.1256 0.0
C106 C 0.9331 0.42348 0.06337 0.0
C107 C 0.95271 0.41239 0.06222 0.0
C108 C 0.73959 0.74477 0.17419 0.0
C109 C 0.72211 0.72846 0.16932 0.0
C110 C 0.70367 0.72699 0.1835 0.0
C111 C 0.70227 0.7422 0.20155 0.0
H112 H 0.66298 0.75937 0.25612 0.0
H113 H 0.62954 0.76011 0.27892 0.0
H114 H 0.65085 0.82686 0.3034 0.0
H115 H 0.68396 0.82635 0.28083 0.0
H116 H 0.71763 0.85508 0.2517 0.0
H117 H 0.74108 0.8896 0.25052 0.0
H118 H 0.79427 0.85341 0.22259 0.0
H119 H 0.77025 0.81893 0.22274 0.0
H120 H 0.75167 0.77281 0.19493 0.0
H121 H 0.75393 0.74649 0.16349 0.0
H122 H 0.69006 0.7144 0.18031 0.0
H123 H 0.6875 0.74104 0.21171 0.0
N124 N 0.69896 0.77614 0.23697 0.0
N125 N 0.70993 0.81203 0.25166 0.0
N126 N 0.73075 0.79598 0.22344 0.0
C127 C 0.69567 0.79345 0.25156 0.0
C128 C 0.7275 0.81343 0.23775 0.0
C129 C 0.71656 0.77728 0.22289 0.0
C130 C 0.67611 0.79288 0.26641 0.0
C131 C 0.66062 0.77414 0.26648 0.0
C132 C 0.64153 0.7745 0.2796 0.0
C133 C 0.63754 0.79363 0.29274 0.0
C134 C 0.65334 0.81202 0.29318 0.0
C135 C 0.67239 0.81165 0.28024 0.0
C136 C 0.74213 0.83426 0.23741 0.0
C137 C 0.73435 0.85447 0.24535 0.0
C138 C 0.74788 0.87429 0.24476 0.0
C139 C 0.76969 0.87437 0.23661 0.0
C140 C 0.77747 0.85409 0.22867 0.0
C141 C 0.76376 0.83428 0.2289 0.0
C142 C 0.71924 0.75929 0.20572 0.0
C143 C 0.73818 0.76001 0.19216 0.0
C144 C 0.03303 0.93239 0.52565 0.0
C145 C 0.01698 0.91534 0.51857 0.0
C146 C 0.00808 0.91551 0.49714 0.0
C147 C 0.01438 0.93279 0.48344 0.0
H148 H -0.00124 0.9587 0.42409 0.0
H149 H 0.9758 0.9635 0.39182 0.0
H150 H -0.00049 0.03296 0.39232 0.0
H151 H 0.02258 0.0283 0.42459 0.0
H152 H 0.06232 0.04594 0.45747 0.0
H153 H 0.09372 0.07306 0.46618 0.0
H154 H 0.12363 0.02517 0.50481 0.0
H155 H 0.09221 -0.00201 0.49629 0.0
H156 H 0.05143 0.96283 0.51807 0.0
H157 H 0.04009 0.93282 0.54212 0.0
H158 H 0.99603 0.90236 0.491 0.0
H159 H 0.00686 0.93254 0.46718 0.0
N160 N 0.0225 0.97216 0.45877 0.0
N161 N 0.04328 0.00569 0.45237 0.0
N162 N 0.05202 0.98498 0.48245 0.0
C163 C 0.02646 0.99023 0.44647 0.0
C164 C 0.0562 0.00311 0.47025 0.0
C165 C 0.03513 0.96945 0.47685 0.0
C166 C 0.01252 0.99312 0.42691 0.0
C167 C -0.00091 0.97502 0.41737 0.0
C168 C 0.98604 0.97771 0.39882 0.0
C169 C 0.98594 -0.00141 0.38962 0.0
C170 C -0.00079 0.01672 0.39921 0.0
C171 C 0.01249 0.01399 0.4176 0.0
C172 C 0.07481 0.01979 0.47615 0.0
C173 C 0.07555 0.04119 0.46787 0.0
C174 C 0.09343 0.05676 0.47294 0.0
C175 C 0.11104 0.05112 0.48609 0.0
C176 C 0.11028 0.02982 0.49449 0.0
C177 C 0.09225 0.01434 0.48971 0.0
C178 C 0.02986 0.95026 0.49077 0.0
C179 C 0.03945 0.94965 0.51188 0.0
C180 C 0.24463 0.80112 0.839 0.0
C181 C 0.22881 0.81679 0.84226 0.0
C182 C 0.2125 0.81821 0.82598 0.0
C183 C 0.21171 0.80389 0.80708 0.0
H184 H 0.17768 0.78897 0.74902 0.0
H185 H 0.14312 0.78679 0.72815 0.0
H186 H 0.15536 0.72089 0.70236 0.0
H187 H 0.18996 0.72286 0.72347 0.0
H188 H 0.23845 0.70577 0.73367 0.0
H189 H 0.26141 0.67427 0.73315 0.0
H190 H 0.29391 0.70106 0.79333 0.0
H191 H 0.27101 0.73239 0.79408 0.0
H192 H 0.25619 0.77478 0.81831 0.0
H193 H 0.25765 0.79989 0.85108 0.0
H194 H 0.19998 0.83002 0.8281 0.0
H195 H 0.19865 0.8052 0.79507 0.0
N196 N 0.20867 0.77192 0.76997 0.0
N197 N 0.22051 0.74021 0.75093 0.0
N198 N 0.23986 0.75553 0.78241 0.0
C199 C 0.20604 0.75633 0.75299 0.0
C200 C 0.23757 0.7398 0.76552 0.0
C201 C 0.22551 0.77167 0.78473 0.0
C202 C 0.18652 0.75598 0.73814 0.0
C203 C 0.17319 0.77407 0.73874 0.0
C204 C 0.15343 0.77292 0.72663 0.0
C205 C 0.14648 0.75362 0.71372 0.0
C206 C 0.16021 0.73588 0.71238 0.0
C207 C 0.18008 0.73708 0.72439 0.0
C208 C 0.25268 0.72157 0.76403 0.0
C209 C 0.2506 0.70507 0.74671 0.0
C210 C 0.26384 0.68707 0.74632 0.0
C211 C 0.27932 0.68513 0.76329 0.0
C212 C 0.28189 0.70196 0.78019 0.0
C213 C 0.26878 0.71998 0.78054 0.0
C214 C 0.22725 0.78785 0.80403 0.0
C215 C 0.24388 0.78682 0.82011 0.0
C216 C 0.95984 0.65228 0.48646 0.0
C217 C 0.9477 0.65289 0.50622 0.0
C218 C 0.93179 0.63531 0.51029 0.0
C219 C 0.92814 0.61737 0.49491 0.0
H220 H 0.89118 0.558 0.48388 0.0
H221 H 0.86065 0.52979 0.48911 0.0
H222 H 0.8671 0.50497 0.42152 0.0
H223 H 0.89791 0.5331 0.41618 0.0
H224 H 0.94599 0.54589 0.39298 0.0
H225 H 0.97512 0.53737 0.36671 0.0
H226 H 0.02025 0.58742 0.39992 0.0
H227 H 0.99128 0.59602 0.42624 0.0
H228 H 0.96613 0.63415 0.45617 0.0
H229 H 0.97232 0.66557 0.48303 0.0
H230 H 0.92208 0.63551 0.52532 0.0
H231 H 0.91581 0.60404 0.49862 0.0
N232 N 0.91921 0.58227 0.46119 0.0
N233 N 0.93108 0.56119 0.43051 0.0
N234 N 0.95203 0.59384 0.443 0.0
C235 C 0.91604 0.5643 0.44681 0.0
C236 C 0.94918 0.57587 0.42856 0.0
C237 C 0.93705 0.59721 0.45929 0.0
C238 C 0.89699 0.54775 0.44961 0.0
C239 C 0.88606 0.54663 0.47006 0.0
C240 C 0.86869 0.53042 0.47313 0.0
C241 C 0.86168 0.51524 0.45574 0.0
C242 C 0.87222 0.51658 0.43515 0.0
C243 C 0.88987 0.53259 0.43215 0.0
C244 C 0.96631 0.57159 0.41177 0.0
C245 C 0.96208 0.55517 0.39465 0.0
C246 C 0.9787 0.55034 0.37954 0.0
C247 C -8e-05 0.56166 0.38141 0.0
C248 C 0.00408 0.57828 0.39829 0.0
C249 C 0.98742 0.58329 0.41325 0.0
C250 C 0.9405 0.61655 0.47525 0.0
C251 C 0.95637 0.63422 0.47117 0.0
C252 C 0.85431 0.79089 0.77506 0.0
C253 C 0.86309 0.80715 0.76096 0.0
C254 C 0.8533 0.82751 0.76073 0.0
C255 C 0.83508 0.83144 0.77418 0.0
H256 H 0.78919 0.87717 0.78954 0.0
H257 H 0.76801 0.90932 0.78469 0.0
H258 H 0.71464 0.87974 0.8236 0.0
H259 H 0.73583 0.84751 0.82869 0.0
H260 H 0.75985 0.8177 0.87023 0.0
H261 H 0.75444 0.79459 0.90201 0.0
H262 H 0.79306 0.74514 0.86982 0.0
H263 H 0.79907 0.76843 0.83856 0.0
H264 H 0.82987 0.7819 0.7992 0.0
H265 H 0.86116 0.77487 0.77538 0.0
H266 H 0.85984 0.84054 0.75031 0.0
H267 H 0.82801 0.84734 0.77364 0.0
N268 N 0.79497 0.83681 0.79975 0.0
N269 N 0.77249 0.82699 0.82993 0.0
N270 N 0.80198 0.80579 0.81953 0.0
C271 C 0.77747 0.84066 0.81313 0.0
C272 C 0.78474 0.80951 0.83322 0.0
C273 C 0.80725 0.81933 0.80281 0.0
C274 C 0.76426 0.85981 0.80962 0.0
C275 C 0.77289 0.8774 0.79698 0.0
C276 C 0.76082 0.89585 0.79423 0.0
C277 C 0.73973 0.89696 0.80378 0.0
C278 C 0.73081 0.87918 0.81594 0.0
C279 C 0.74303 0.86084 0.81898 0.0
C280 C 0.78003 0.795 0.85191 0.0
C281 C 0.7671 0.80185 0.86992 0.0
C282 C 0.76396 0.78857 0.88812 0.0
C283 C 0.77353 0.76811 0.88861 0.0
C284 C 0.78594 0.76106 0.8703 0.0
C285 C 0.78924 0.77437 0.85226 0.0
C286 C 0.82637 0.81518 0.78831 0.0
C287 C 0.83623 0.79488 0.78863 0.0
C288 C 0.38172 0.3159 0.28225 0.0
C289 C 0.37815 0.31819 0.25955 0.0
C290 C 0.35691 0.32298 0.25248 0.0
C291 C 0.33962 0.32491 0.26765 0.0
H292 H 0.28446 0.3635 0.28511 0.0
H293 H 0.25754 0.39153 0.28437 0.0
H294 H 0.22998 0.36947 0.34601 0.0
H295 H 0.25678 0.34158 0.34696 0.0
H296 H 0.27346 0.29946 0.36723 0.0
H297 H 0.27169 0.27323 0.3964 0.0
H298 H 0.33773 0.25534 0.3798 0.0
H299 H 0.33936 0.28122 0.35016 0.0
H300 H 0.36754 0.31498 0.31459 0.0
H301 H 0.39794 0.31285 0.28849 0.0
H302 H 0.35334 0.32453 0.23514 0.0
H303 H 0.32334 0.32812 0.26167 0.0
N304 N 0.30769 0.33491 0.30332 0.0
N305 N 0.29052 0.32117 0.33514 0.0
N306 N 0.32419 0.30815 0.3232 0.0
C307 C 0.29066 0.33488 0.31803 0.0
C308 C 0.30715 0.30769 0.33781 0.0
C309 C 0.32453 0.32163 0.30592 0.0
C310 C 0.27302 0.35042 0.31623 0.0
C311 C 0.27253 0.36445 0.29841 0.0
C312 C 0.25702 0.38042 0.29789 0.0
C313 C 0.24181 0.38277 0.31523 0.0
C314 C 0.24171 0.3682 0.33257 0.0
C315 C 0.25707 0.35217 0.33304 0.0
C316 C 0.30652 0.29243 0.35624 0.0
C317 C 0.28768 0.29005 0.36981 0.0
C318 C 0.28671 0.27508 0.38667 0.0
C319 C 0.30459 0.26221 0.39047 0.0
C320 C 0.32357 0.26481 0.37713 0.0
C321 C 0.32452 0.27973 0.36019 0.0
C322 C 0.34309 0.32158 0.2901 0.0
C323 C 0.36433 0.31728 0.29729 0.0
C324 C 0.4629 0.90107 0.53638 0.0
C325 C 0.44529 0.89449 0.52175 0.0
C326 C 0.42529 0.9047 0.52398 0.0
C327 C 0.42308 0.92156 0.54031 0.0
H328 H 0.39196 0.97944 0.54994 0.0
H329 H 0.36793 0.00846 0.54207 0.0
H330 H 0.39284 0.04717 0.60006 0.0
H331 H 0.41678 0.01795 0.60827 0.0
H332 H 0.45916 0.00357 0.63199 0.0
H333 H 0.4851 0.00915 0.66266 0.0
H334 H 0.50392 0.94191 0.65144 0.0
H335 H 0.47837 0.93653 0.62006 0.0
H336 H 0.47452 0.9225 0.5639 0.0
H337 H 0.47843 0.89328 0.53506 0.0
H338 H 0.4115 0.89993 0.51282 0.0
H339 H 0.40754 0.92933 0.54146 0.0
N340 N 0.42357 0.96174 0.56886 0.0
N341 N 0.43613 0.98164 0.60127 0.0
N342 N 0.4525 0.94918 0.58948 0.0
C343 C 0.42219 0.97932 0.58357 0.0
C344 C 0.45124 0.96659 0.60441 0.0
C345 C 0.43868 0.94664 0.57168 0.0
C346 C 0.4065 0.99638 0.57965 0.0
C347 C 0.39231 0.99404 0.56113 0.0
C348 C 0.37859 0.01075 0.55653 0.0
C349 C 0.37871 0.03022 0.5703 0.0
C350 C 0.39234 0.03231 0.5892 0.0
C351 C 0.40612 0.01558 0.59382 0.0
C352 C 0.46664 0.96959 0.62354 0.0
C353 C 0.46871 0.98989 0.63606 0.0
C354 C 0.48353 0.99305 0.6538 0.0
C355 C 0.49648 0.9759 0.65967 0.0
C356 C 0.49435 0.95553 0.64723 0.0
C357 C 0.47963 0.95242 0.62931 0.0
C358 C 0.44072 0.92824 0.55494 0.0
C359 C 0.46059 0.91767 0.55295 0.0
C360 C 0.23673 0.26808 0.68042 0.0
C361 C 0.22874 0.24564 0.67796 0.0
C362 C 0.2194 0.23492 0.69618 0.0
C363 C 0.21733 0.24682 0.71645 0.0
H364 H 0.16816 0.25565 0.76692 0.0
H365 H 0.13458 0.25036 0.78932 0.0
H366 H 0.15993 0.30377 0.83484 0.0
H367 H 0.19326 0.30919 0.81271 0.0
H368 H 0.21783 0.35085 0.78836 0.0
H369 H 0.23588 0.38834 0.79196 0.0
H370 H 0.28604 0.36953 0.74527 0.0
H371 H 0.26744 0.33224 0.74098 0.0
H372 H 0.24107 0.29726 0.70184 0.0
H373 H 0.24403 0.27662 0.66653 0.0
H374 H 0.21307 0.2176 0.69453 0.0
H375 H 0.20957 0.23835 0.73015 0.0
N376 N 0.20577 0.276 0.75433 0.0
N377 N 0.21362 0.30915 0.77583 0.0
N378 N 0.23335 0.30281 0.74324 0.0
C379 C 0.20177 0.28914 0.77259 0.0
C380 C 0.22946 0.31608 0.76132 0.0
C381 C 0.22166 0.28275 0.73962 0.0
C382 C 0.18323 0.28313 0.78776 0.0
C383 C 0.16677 0.26597 0.78193 0.0
C384 C 0.14757 0.26288 0.79477 0.0
C385 C 0.14455 0.27692 0.81357 0.0
C386 C 0.16167 0.293 0.82018 0.0
C387 C 0.18078 0.29606 0.80746 0.0
C388 C 0.24118 0.33853 0.76436 0.0
C389 C 0.23276 0.35466 0.77891 0.0
C390 C 0.24317 0.37618 0.78104 0.0
C391 C 0.2624 0.38203 0.76887 0.0
C392 C 0.271 0.36577 0.75456 0.0
C393 C 0.26044 0.34431 0.75223 0.0
C394 C 0.22497 0.26948 0.71882 0.0
C395 C 0.23506 0.27983 0.70067 0.0
C396 C 0.74123 0.17934 0.75949 0.0
C397 C 0.72428 0.17063 0.74488 0.0
C398 C 0.71876 0.18314 0.72701 0.0
C399 C 0.73 0.20392 0.72383 0.0
H400 H 0.74162 0.25366 0.67825 0.0
H401 H 0.73437 0.27566 0.64669 0.0
H402 H 0.76758 0.33393 0.68012 0.0
H403 H 0.77524 0.31193 0.71169 0.0
H404 H 0.82423 0.29061 0.73647 0.0
H405 H 0.85865 0.29785 0.75779 0.0
H406 H 0.83205 0.25382 0.80712 0.0
H407 H 0.79818 0.24607 0.7856 0.0
H408 H 0.76537 0.20616 0.76802 0.0
H409 H 0.7456 0.17033 0.77366 0.0
H410 H 0.70588 0.17679 0.71537 0.0
H411 H 0.72542 0.21309 0.70985 0.0
N412 N 0.75352 0.24742 0.71876 0.0
N413 N 0.78281 0.27402 0.72897 0.0
N414 N 0.77684 0.24148 0.74837 0.0
C415 C 0.76512 0.2673 0.71568 0.0
C416 C 0.78872 0.26114 0.74539 0.0
C417 C 0.75926 0.23446 0.73518 0.0
C418 C 0.75917 0.28102 0.69739 0.0
C419 C 0.74718 0.27121 0.67903 0.0
C420 C 0.74304 0.28375 0.66096 0.0
C421 C 0.75044 0.3064 0.66109 0.0
C422 C 0.7616 0.31649 0.67976 0.0
C423 C 0.76611 0.30386 0.6977 0.0
C424 C 0.80859 0.26758 0.75922 0.0
C425 C 0.8257 0.28265 0.75197 0.0
C426 C 0.8454 0.28682 0.76419 0.0
C427 C 0.84825 0.27611 0.78397 0.0
C428 C 0.83069 0.26184 0.79164 0.0
C429 C 0.81117 0.25752 0.77936 0.0
C430 C 0.747 0.2126 0.73846 0.0
C431 C 0.75246 0.20002 0.75631 0.0
C432 C 0.49317 0.57905 0.62519 0.0
C433 C 0.49016 0.55725 0.63251 0.0
C434 C 0.50199 0.5406 0.62194 0.0
C435 C 0.5167 0.54564 0.60482 0.0
H436 H 0.57128 0.523 0.57347 0.0
H437 H 0.5975 0.4965 0.56105 0.0
H438 H 0.62589 0.54353 0.51534 0.0
H439 H 0.5993 0.56982 0.52727 0.0
H440 H 0.57476 0.61919 0.52409 0.0
H441 H 0.56629 0.64745 0.49859 0.0
H442 H 0.49631 0.63485 0.51296 0.0
H443 H 0.50504 0.608 0.53934 0.0
H444 H 0.50961 0.60095 0.60251 0.0
H445 H 0.48465 0.5924 0.63312 0.0
H446 H 0.49975 0.52351 0.62668 0.0
H447 H 0.52548 0.53238 0.59705 0.0
N448 N 0.55172 0.5594 0.5743 0.0
N449 N 0.56232 0.58109 0.54445 0.0
N450 N 0.53173 0.5897 0.5662 0.0
C451 C 0.56559 0.56367 0.5571 0.0
C452 C 0.54537 0.5941 0.54887 0.0
C453 C 0.53491 0.57248 0.57908 0.0
C454 C 0.58298 0.54848 0.55119 0.0
C455 C 0.58323 0.52781 0.5609 0.0
C456 C 0.59835 0.51262 0.55386 0.0
C457 C 0.61364 0.51779 0.53703 0.0
C458 C 0.614 0.53882 0.52799 0.0
C459 C 0.59881 0.55396 0.53493 0.0
C460 C 0.54059 0.61161 0.53384 0.0
C461 C 0.55762 0.62273 0.52188 0.0
C462 C 0.55271 0.63878 0.50713 0.0
C463 C 0.53059 0.64365 0.50368 0.0
C464 C 0.51361 0.63218 0.51556 0.0
C465 C 0.51858 0.61662 0.53065 0.0
C466 C 0.51961 0.56737 0.5975 0.0
C467 C 0.5076 0.584 0.60774 0.0
C468 C 0.54802 0.41614 0.99728 0.0
C469 C 0.53068 0.39994 0.99136 0.0
C470 C 0.5224 0.39875 0.9696 0.0
C471 C 0.53044 0.41407 0.95446 0.0
H472 H 0.50131 0.45466 0.91074 0.0
H473 H 0.47449 0.46625 0.88442 0.0
H474 H 0.52627 0.50805 0.85439 0.0
H475 H 0.5532 0.49661 0.88072 0.0
H476 H 0.58585 0.5212 0.92087 0.0
H477 H 0.61547 0.54924 0.93216 0.0
H478 H 0.64271 0.50302 0.97474 0.0
H479 H 0.61287 0.47475 0.96367 0.0
H480 H 0.56909 0.44408 0.98736 0.0
H481 H 0.55467 0.41766 0.01394 0.0
H482 H 0.50942 0.38615 0.96433 0.0
H483 H 0.52328 0.41299 0.93801 0.0
N484 N 0.54019 0.45231 0.92834 0.0
N485 N 0.5639 0.48307 0.91919 0.0
N486 N 0.57248 0.46231 0.94927 0.0
C487 C 0.54518 0.4695 0.91514 0.0
C488 C 0.57767 0.47957 0.93615 0.0
C489 C 0.55381 0.44851 0.94536 0.0
C490 C 0.52939 0.47479 0.8979 0.0
C491 C 0.50707 0.46614 0.8984 0.0
C492 C 0.49167 0.47288 0.88347 0.0
C493 C 0.49833 0.48816 0.86756 0.0
C494 C 0.52075 0.49621 0.8665 0.0
C495 C 0.53612 0.4897 0.88161 0.0
C496 C 0.59689 0.49574 0.94149 0.0
C497 C 0.59823 0.51683 0.93247 0.0
C498 C 0.61511 0.53296 0.93899 0.0
C499 C 0.63118 0.52826 0.9544 0.0
C500 C 0.63047 0.50696 0.96278 0.0
C501 C 0.61336 0.49086 0.9565 0.0
C502 C 0.54714 0.43082 0.96063 0.0
C503 C 0.55625 0.43135 0.98204 0.0
C504 C 0.70683 0.26799 0.35471 0.0
C505 C 0.70158 0.29029 0.35576 0.0
C506 C 0.69809 0.30067 0.33592 0.0
C507 C 0.70036 0.28918 0.31553 0.0
H508 H 0.68205 0.28841 0.24947 0.0
H509 H 0.6533 0.29343 0.2226 0.0
H510 H 0.66605 0.231 0.18886 0.0
H511 H 0.69466 0.22566 0.21608 0.0
H512 H 0.75442 0.21317 0.24023 0.0
H513 H 0.77938 0.18328 0.24208 0.0
H514 H 0.7503 0.16551 0.30468 0.0
H515 H 0.72665 0.19601 0.30333 0.0
H516 H 0.71375 0.23955 0.33416 0.0
H517 H 0.70915 0.2593 0.36965 0.0
H518 H 0.69435 0.31792 0.33605 0.0
H519 H 0.69798 0.29778 0.30055 0.0
N520 N 0.70062 0.26189 0.27438 0.0
N521 N 0.71599 0.23302 0.2536 0.0
N522 N 0.72226 0.23753 0.29188 0.0
C523 C 0.70339 0.25078 0.25462 0.0
C524 C 0.72554 0.22644 0.27226 0.0
C525 C 0.70999 0.25536 0.29305 0.0
C526 C 0.69027 0.25633 0.23528 0.0
C527 C 0.67912 0.27594 0.23606 0.0
C528 C 0.66274 0.27896 0.2205 0.0
C529 C 0.65714 0.26242 0.20384 0.0
C530 C 0.66977 0.24385 0.20177 0.0
C531 C 0.68624 0.24084 0.21732 0.0
C532 C 0.73886 0.20701 0.27177 0.0
C533 C 0.75339 0.20271 0.25426 0.0
C534 C 0.76762 0.18555 0.25533 0.0
C535 C 0.76723 0.17216 0.27375 0.0
C536 C 0.75174 0.17591 0.29062 0.0
C537 C 0.73798 0.19327 0.28978 0.0
C538 C 0.70645 0.26719 0.31456 0.0
C539 C 0.70942 0.25663 0.33435 0.0
C540 C 0.51416 0.11372 0.06391 0.0
C541 C 0.49405 0.12116 0.07178 0.0
C542 C 0.47448 0.10702 0.06932 0.0
C543 C 0.47498 0.08589 0.0589 0.0
H544 H 0.44743 0.01557 0.05878 0.0
H545 H 0.41204 0.9927 0.05698 0.0
H546 H 0.42504 0.97274 0.98911 0.0
H547 H 0.46065 0.9952 0.99091 0.0
H548 H 0.51978 0.99702 0.98528 0.0
H549 H 0.54496 0.99432 0.95381 0.0
H550 H 0.56725 0.06376 0.96471 0.0
H551 H 0.54242 0.0666 0.99623 0.0
H552 H 0.53033 0.08765 0.04695 0.0
H553 H 0.52946 0.12439 0.06551 0.0
H554 H 0.4588 0.11235 0.07542 0.0
H555 H 0.45954 0.0755 0.05694 0.0
N556 N 0.47765 0.04172 0.03844 0.0
N557 N 0.49377 0.01946 0.01099 0.0
N558 N 0.51204 0.05359 0.02337 0.0
C559 C 0.47687 0.02279 0.02527 0.0
C560 C 0.51153 0.03473 0.01009 0.0
C561 C 0.4952 0.05718 0.03761 0.0
C562 C 0.45675 0.00719 0.02497 0.0
C563 C 0.44287 0.00605 0.04357 0.0
C564 C 0.42271 0.99296 0.0426 0.0
C565 C 0.41593 0.98115 0.02288 0.0
C566 C 0.42998 0.98183 0.00445 0.0
C567 C 0.45036 0.99455 0.00555 0.0
C568 C 0.52887 0.03209 0.99311 0.0
C569 C 0.53033 0.01162 0.98122 0.0
C570 C 0.54482 0.01 0.96332 0.0
C571 C 0.55786 0.02887 0.95687 0.0
C572 C 0.55724 0.04902 0.96937 0.0
C573 C 0.54302 0.05059 0.98743 0.0
C574 C 0.49501 0.07865 0.05044 0.0
C575 C 0.51463 0.09273 0.05323 0.0
O576 O 0.25055 0.87203 0.97837 0.0
Cd577 Cd 0.26125 0.88831 0.00777 0.0
Cd578 Cd 0.24462 0.92343 0.98614 0.0
O579 O 0.23836 0.89983 0.96081 0.0
O580 O 0.27475 0.86398 0.02238 0.0
O581 O 0.24682 0.88087 0.03705 0.0
C582 C 0.26122 0.86633 0.03853 0.0
C583 C 0.21598 0.94343 -2e-05 0.0
C584 C 0.24213 0.87946 0.96128 0.0
C585 C 0.29204 0.92966 -0.00053 0.0
O586 O 0.27646 0.93793 0.98948 0.0
O587 O 0.28882 0.91082 0.00784 0.0
O588 O 0.22566 0.94816 0.98163 0.0
O589 O 0.22243 0.92694 0.01047 0.0
O590 O 0.1712 0.54495 0.28949 0.0
Cd591 Cd 0.15196 0.51812 0.30059 0.0
Cd592 Cd 0.12434 0.52599 0.26705 0.0
O593 O 0.15091 0.54791 0.25972 0.0
O594 O 0.17163 0.49912 0.31593 0.0
O595 O 0.15389 0.48845 0.28461 0.0
C596 C 0.16736 0.48418 0.30015 0.0
C597 C 0.10276 0.51062 0.23725 0.0
C598 C 0.16791 0.55411 0.27149 0.0
C599 C 0.10775 0.53092 0.31429 0.0
O600 O 0.10476 0.53323 0.29382 0.0
O601 O 0.12577 0.52418 0.32111 0.0
O602 O 0.10364 0.53147 0.24299 0.0
O603 O 0.11498 0.49825 0.248 0.0
O604 O 0.75693 0.67885 0.9935 0.0
Cd605 Cd 0.74789 0.65553 0.01614 0.0
Cd606 Cd 0.78065 0.63391 -0.00233 0.0
O607 O 0.78665 0.66311 0.98147 0.0
O608 O 0.73043 0.67053 0.03938 0.0
O609 O 0.7628 0.65725 0.04588 0.0
C610 C 0.74598 0.66733 0.05318 0.0
C611 C 0.80951 0.61695 0.0136 0.0
C612 C 0.77403 0.67897 0.98129 0.0
C613 C 0.73449 0.61198 0.99259 0.0
O614 O 0.75471 0.61164 0.98692 0.0
O615 O 0.72828 0.62785 0.00505 0.0
O616 O 0.80728 0.6172 0.99246 0.0
O617 O 0.79585 0.62742 0.02588 0.0
O618 O 0.90341 0.01459 0.27862 0.0
Cd619 Cd 0.88561 0.01466 0.2497 0.0
Cd620 Cd 0.85826 0.03609 0.27582 0.0
O621 O 0.88395 0.03757 0.2984 0.0
O622 O 0.90797 0.0074 0.22707 0.0
O623 O 0.89202 0.03923 0.22881 0.0
C624 C 0.90628 0.02683 0.21967 0.0
C625 C 0.84132 0.06846 0.26955 0.0
C626 C 0.90052 0.02597 0.29642 0.0
C627 C 0.84177 0.99061 0.25732 0.0
O628 O 0.83883 0.00638 0.27149 0.0
O629 O 0.85903 0.99133 0.2453 0.0
O630 O 0.8383 0.05833 0.28767 0.0
O631 O 0.85424 0.06028 0.2548 0.0
O632 O 0.26194 0.18648 0.50527 0.0
Cd633 Cd 0.24908 0.16418 0.52749 0.0
Cd634 Cd 0.27577 0.13657 0.50453 0.0
O635 O 0.28342 0.16435 0.48673 0.0
O636 O 0.23374 0.18329 0.54915 0.0
O637 O 0.26171 0.16409 0.55832 0.0
C638 C 0.24703 0.17767 0.56412 0.0
C639 C 0.30438 0.11657 0.51656 0.0
C640 C 0.27569 0.18321 0.48981 0.0
C641 C 0.22703 0.1225 0.50521 0.0
O642 O 0.24612 0.11803 0.49839 0.0
O643 O 0.22466 0.14016 0.51699 0.0
O644 O 0.29871 0.11608 0.49602 0.0
O645 O 0.29408 0.12904 0.53042 0.0
O646 O 0.39765 0.52284 0.78164 0.0
Cd647 Cd 0.37674 0.52572 0.75523 0.0
Cd648 Cd 0.35148 0.54001 0.78915 0.0
O649 O 0.37844 0.53688 0.80908 0.0
O650 O 0.39715 0.51717 0.73122 0.0
O651 O 0.38372 0.55016 0.73396 0.0
C652 C 0.39655 0.53679 0.72403 0.0
C653 C 0.33636 0.57399 0.78746 0.0
C654 C 0.39583 0.52847 0.802 0.0
C655 C 0.33403 0.49853 0.76394 0.0
O656 O 0.33188 0.51129 0.78101 0.0
O657 O 0.35008 0.50226 0.75071 0.0
O658 O 0.33274 0.56167 0.8041 0.0
O659 O 0.34886 0.56699 0.77167 0.0
O660 O 0.74238 0.35716 0.48328 0.0
Cd661 Cd 0.75255 0.37754 0.51034 0.0
Cd662 Cd 0.7246 0.40396 0.49145 0.0
O663 O 0.71599 0.37647 0.47095 0.0
O664 O 0.76801 0.35693 0.52828 0.0
O665 O 0.73841 0.37331 0.54013 0.0
C666 C 0.75345 0.35979 0.54348 0.0
C667 C 0.69708 0.42484 0.5066 0.0
C668 C 0.72672 0.35922 0.46973 0.0
C669 C 0.77299 0.41986 0.49355 0.0
O670 O 0.75406 0.42208 0.48521 0.0
O671 O 0.7758 0.40374 0.50565 0.0
O672 O 0.70196 0.42502 0.4859 0.0
O673 O 0.70744 0.41205 0.5188 0.0
O674 O 0.65139 0.05338 0.78531 0.0
Cd675 Cd 0.63872 0.02547 0.80109 0.0
Cd676 Cd 0.59971 0.03961 0.78515 0.0
O677 O 0.62013 0.06492 0.77311 0.0
O678 O 0.6658 0.01074 0.80844 0.0
O679 O 0.63908 0.99457 0.78677 0.0
C680 C 0.65801 0.99363 0.79647 0.0
C681 C 0.57247 0.02269 0.76137 0.0
C682 C 0.64112 0.06731 0.77504 0.0
C683 C 0.60383 0.03635 0.83427 0.0
O684 O 0.5922 0.04146 0.81814 0.0
O685 O 0.62287 0.02929 0.83111 0.0
O686 O 0.57051 0.04198 0.77094 0.0
O687 O 0.59014 0.01278 0.76527 0.0
O688 O 0.96625 0.29257 0.92925 0.0
Cd689 Cd 0.97277 0.26641 0.90766 0.0
Cd690 Cd 0.99277 0.29834 0.88498 0.0
O691 O 0.98876 0.31759 0.91351 0.0
O692 O 0.96773 0.2395 0.92512 0.0
O693 O 0.00065 0.25114 0.9121 0.0
C694 C 0.9887 0.23712 0.92345 0.0
C695 C 0.02801 0.29718 0.86985 0.0
C696 C 0.9758 0.31211 0.92917 0.0
C697 C 0.95229 0.27434 0.86442 0.0
O698 O 0.96578 0.29161 0.86412 0.0
O699 O 0.95341 0.26079 0.87968 0.0
O700 O 0.01668 0.31422 0.86798 0.0
O701 O 0.01927 0.28065 0.88048 0.0
O702 O 0.46586 0.79092 0.42584 0.0
Cd703 Cd 0.4696 0.76162 0.40804 0.0
Cd704 Cd 0.49251 0.78932 0.38162 0.0
O705 O 0.48964 0.81255 0.4075 0.0
O706 O 0.46043 0.73929 0.42983 0.0
O707 O 0.49438 0.74303 0.41597 0.0
C708 C 0.4805 0.7335 0.42945 0.0
C709 C 0.52711 0.78607 0.36541 0.0
C710 C 0.47647 0.80969 0.42363 0.0
C711 C 0.45029 0.76522 0.36349 0.0
O712 O 0.46543 0.78082 0.36117 0.0
O713 O 0.44966 0.75415 0.38079 0.0
O714 O 0.51561 0.80266 0.36196 0.0
O715 O 0.51908 0.77131 0.37861 0.0
O716 O 0.96566 0.77331 0.6715 0.0
Cd717 Cd 0.98957 0.76107 0.6511 0.0
Cd718 Cd 0.97521 0.78887 0.6218 0.0
O719 O 0.95346 0.79536 0.6471 0.0
O720 O 0.01236 0.74887 0.66951 0.0
O721 O 0.01938 0.77797 0.64894 0.0
C722 C 0.02642 0.76408 0.66237 0.0
C723 C 0.98987 0.81916 0.60256 0.0
C724 C 0.95232 0.78736 0.6661 0.0
C725 C 0.97273 0.74002 0.60826 0.0
O726 O 0.97002 0.75966 0.60286 0.0
O727 O 0.98002 0.73659 0.62734 0.0
O728 O 0.9694 0.81154 0.60046 0.0
O729 O 0.00223 0.80972 0.61608 0.0
O730 O 0.47919 0.29564 0.16399 0.0
Cd731 Cd 0.5029 0.28307 0.14341 0.0
Cd732 Cd 0.47551 0.29553 0.11204 0.0
O733 O 0.45733 0.30701 0.13838 0.0
O734 O 0.5251 0.2732 0.16406 0.0
O735 O 0.53356 0.29883 0.13998 0.0
C736 C 0.53989 0.28633 0.15505 0.0
C737 C 0.49251 0.32007 0.08795 0.0
C738 C 0.46188 0.3048 0.15859 0.0
C739 C 0.48197 0.24778 0.11034 0.0
O740 O 0.4711 0.26235 0.1018 0.0
O741 O 0.4952 0.25325 0.12631 0.0
O742 O 0.47157 0.31386 0.08635 0.0
O743 O 0.5038 0.31249 0.10365 0.0
H744 H 0.23523 0.80495 0.88425 0.0
H745 H 0.22295 0.8613 0.84627 0.0
H746 H 0.22441 0.88539 0.88001 0.0
H747 H 0.23097 0.89074 0.92 0.0
H748 H 0.24436 0.83442 0.95769 0.0
H749 H 0.24074 0.81006 0.9243 0.0
C750 C 0.23303 0.82253 0.88334 0.0
C751 C 0.22917 0.83135 0.86277 0.0
C752 C 0.23409 0.8363 0.90273 0.0
C753 C 0.22583 0.85408 0.86192 0.0
C754 C 0.22676 0.86788 0.88118 0.0
C755 C 0.2329 0.87311 0.92097 0.0
C756 C 0.23803 0.86447 0.94133 0.0
C757 C 0.23108 0.8592 0.90165 0.0
C758 C 0.24051 0.84156 0.94224 0.0
C759 C 0.23848 0.8276 0.92314 0.0
H760 H 0.04214 0.55379 0.39179 0.0
H761 H 0.99756 0.55655 0.33653 0.0
H762 H 0.02707 0.54714 0.31093 0.0
H763 H 0.06541 0.5385 0.30433 0.0
H764 H 0.11007 0.535 0.3595 0.0
H765 H 0.08058 0.54442 0.38515 0.0
C766 C 0.03898 0.55246 0.37412 0.0
C767 C 0.0178 0.55594 0.36599 0.0
C768 C 0.05596 0.54692 0.35956 0.0
C769 C 0.01373 0.55381 0.34313 0.0
C770 C 0.03059 0.54852 0.32851 0.0
C771 C 0.06875 0.53982 0.32197 0.0
C772 C 0.08995 0.53616 0.32998 0.0
C773 C 0.05175 0.54508 0.33656 0.0
C774 C 0.0939 0.53773 0.3529 0.0
C775 C 0.07707 0.54315 0.36756 0.0
H776 H 0.80438 0.74427 0.90719 0.0
H777 H 0.73623 0.76033 0.91377 0.0
H778 H 0.7311 0.73574 0.94446 0.0
H779 H 0.74517 0.70778 0.96768 0.0
H780 H 0.81254 0.68983 0.95928 0.0
H781 H 0.81867 0.71692 0.93085 0.0
C782 C 0.78833 0.74229 0.9152 0.0
C783 C 0.77068 0.75403 0.90802 0.0
C784 C 0.78533 0.72772 0.93246 0.0
C785 C 0.75018 0.75167 0.91903 0.0
C786 C 0.74718 0.73749 0.9365 0.0
C787 C 0.76129 0.70997 0.95982 0.0
C788 C 0.77837 0.69677 0.96557 0.0
C789 C 0.76455 0.7252 0.94314 0.0
C790 C 0.79909 0.69971 0.9551 0.0
C791 C 0.8026 0.71518 0.93882 0.0
H792 H 0.95767 0.0306 0.3841 0.0
H793 H 0.98293 0.97271 0.35148 0.0
H794 H 0.95933 0.97667 0.31937 0.0
H795 H 0.93104 0.99603 0.30103 0.0
H796 H 0.90453 0.05316 0.33404 0.0
H797 H 0.92927 0.05018 0.36553 0.0
C798 C 0.9581 0.019 0.36986 0.0
C799 C 0.97197 0.0014 0.37007 0.0
C800 C 0.9443 0.02123 0.35159 0.0
C801 C 0.97222 0.98627 0.3517 0.0
C802 C 0.95881 0.98858 0.33334 0.0
C803 C 0.93076 0.00795 0.31503 0.0
C804 C 0.916 0.02482 0.31516 0.0
C805 C 0.94471 0.00591 0.33317 0.0
C806 C 0.91571 0.03999 0.33354 0.0
C807 C 0.92984 0.0383 0.35155 0.0
H808 H 0.25001 0.20897 0.66555 0.0
H809 H 0.2082 0.25699 0.64119 0.0
H810 H 0.20962 0.23964 0.60393 0.0
H811 H 0.22357 0.21178 0.57823 0.0
H812 H 0.26709 0.1646 0.60145 0.0
H813 H 0.2643 0.18066 0.63925 0.0
C814 C 0.24112 0.21541 0.65203 0.0
C815 C 0.22897 0.2341 0.65592 0.0
C816 C 0.24244 0.20563 0.63054 0.0
C817 C 0.21766 0.2426 0.6384 0.0
C818 C 0.21848 0.23272 0.61716 0.0
C819 C 0.2324 0.2049 0.59154 0.0
C820 C 0.24548 0.187 0.58706 0.0
C821 C 0.23097 0.21438 0.61302 0.0
C822 C 0.25694 0.17843 0.60449 0.0
C823 C 0.25532 0.18757 0.62609 0.0
H824 H 0.45042 0.57432 0.6428 0.0
H825 H 0.49582 0.52805 0.6647 0.0
H826 H 0.47038 0.51725 0.69402 0.0
H827 H 0.43544 0.52064 0.71345 0.0
H828 H 0.39116 0.56895 0.69444 0.0
H829 H 0.41627 0.57964 0.66418 0.0
C830 C 0.45495 0.56212 0.65415 0.0
C831 C 0.47495 0.55178 0.65117 0.0
C832 C 0.44047 0.55635 0.67149 0.0
C833 C 0.48032 0.53585 0.66605 0.0
C834 C 0.46586 0.52977 0.68301 0.0
C835 C 0.43121 0.53345 0.70262 0.0
C836 C 0.41138 0.54379 0.70589 0.0
C837 C 0.44586 0.53977 0.68575 0.0
C838 C 0.40633 0.5607 0.6921 0.0
C839 C 0.42065 0.56677 0.67484 0.0
H840 H 0.76483 0.29537 0.62041 0.0
H841 H 0.7315 0.34568 0.65725 0.0
H842 H 0.72859 0.36655 0.62375 0.0
H843 H 0.73619 0.37051 0.5839 0.0
H844 H 0.77187 0.32094 0.5483 0.0
H845 H 0.77316 0.29969 0.58132 0.0
C846 C 0.75677 0.31082 0.62099 0.0
C847 C 0.74816 0.31895 0.64103 0.0
C848 C 0.75566 0.32284 0.60192 0.0
C849 C 0.73816 0.33917 0.64186 0.0
C850 C 0.7365 0.35104 0.62276 0.0
C851 C 0.74415 0.35502 0.58343 0.0
C852 C 0.75388 0.34727 0.56373 0.0
C853 C 0.74527 0.34306 0.60268 0.0
C854 C 0.76437 0.3273 0.56332 0.0
C855 C 0.76507 0.3151 0.58217 0.0
H856 H 0.49025 -0.00192 0.699 0.0
H857 H 0.53858 0.96214 0.66258 0.0
H858 H 0.56577 0.97135 0.69219 0.0
H859 H 0.57688 0.99263 0.7269 0.0
H860 H 0.52913 0.03109 0.76122 0.0
H861 H 0.50077 0.01811 0.73385 0.0
C862 C 0.50677 0.99233 0.69744 0.0
C863 C 0.51241 0.97967 0.67845 0.0
C864 C 0.5225 -0.00171 0.71412 0.0
C865 C 0.5337 0.97181 0.67706 0.0
C866 C 0.54934 0.97722 0.69391 0.0
C867 C 0.56017 0.99788 0.72849 0.0
C868 C 0.55509 0.01285 0.74594 0.0
C869 C 0.54407 0.99085 0.71231 0.0
C870 C 0.53346 0.0197 0.74779 0.0
C871 C 0.51723 0.0123 0.73217 0.0
H872 H 0.86947 0.2446 0.80396 0.0
H873 H 0.87501 0.3147 0.79186 0.0
H874 H 0.90904 0.31991 0.81404 0.0
H875 H 0.93568 0.30497 0.83898 0.0
H876 H 0.92828 0.23532 0.85294 0.0
H877 H 0.89633 0.22957 0.82806 0.0
C878 C 0.87799 0.26108 0.80631 0.0
C879 C 0.86953 0.27927 0.79647 0.0
C880 C 0.89717 0.26404 0.81947 0.0
C881 C 0.88119 0.30038 0.79915 0.0
C882 C 0.90058 0.30339 0.81194 0.0
C883 C 0.92723 0.28848 0.83636 0.0
C884 C 0.93429 0.2706 0.84782 0.0
C885 C 0.90853 0.28539 0.82244 0.0
C886 C 0.92308 0.24937 0.84441 0.0
C887 C 0.90481 0.24607 0.8302 0.0
H888 H 0.47842 0.89265 0.49172 0.0
H889 H 0.41756 0.85744 0.51239 0.0
H890 H 0.42177 0.82817 0.4836 0.0
H891 H 0.443 0.81244 0.45308 0.0
H892 H 0.50329 0.84809 0.43135 0.0
H893 H 0.49904 0.87747 0.46003 0.0
C894 C 0.46617 0.87849 0.4899 0.0
C895 C 0.44779 0.87703 0.50414 0.0
C896 C 0.46857 0.86192 0.47317 0.0
C897 C 0.43179 0.85887 0.50151 0.0
C898 C 0.43422 0.84215 0.48513 0.0
C899 C 0.45523 0.82664 0.4546 0.0
C900 C 0.47352 0.82802 0.44021 0.0
C901 C 0.45258 0.84348 0.47093 0.0
C902 C 0.48905 0.84666 0.44222 0.0
C903 C 0.48667 0.86341 0.45864 0.0
H904 H 0.12126 0.31204 0.82425 0.0
H905 H 0.11913 0.24078 0.82809 0.0
H906 H 0.08298 0.24071 0.84663 0.0
H907 H 0.05183 0.26118 0.86134 0.0
H908 H 0.05412 0.33239 0.85584 0.0
H909 H 0.09053 0.33225 0.83856 0.0
C910 C 0.113 0.29652 0.82938 0.0
C911 C 0.12289 0.27648 0.82508 0.0
C912 C 0.09228 0.29662 0.83971 0.0
C913 C 0.11178 0.2564 0.83128 0.0
C914 C 0.09118 0.25639 0.8419 0.0
C915 C 0.06038 0.27665 0.85645 0.0
C916 C 0.05031 0.29677 0.8599 0.0
C917 C 0.08125 0.27642 0.84616 0.0
C918 C 0.06147 0.31667 0.85331 0.0
C919 C 0.08231 0.31663 0.84344 0.0
H920 H 0.49762 0.67186 0.50707 0.0
H921 H 0.55102 0.65344 0.46421 0.0
H922 H 0.54098 0.68027 0.43789 0.0
H923 H 0.51601 0.70818 0.42636 0.0
H924 H 0.46054 0.7231 0.46795 0.0
H925 H 0.47199 0.69782 0.49502 0.0
C926 C 0.5069 0.6733 0.49182 0.0
C927 C 0.52501 0.66042 0.48773 0.0
C928 C 0.50051 0.68804 0.47635 0.0
C929 C 0.53719 0.66327 0.4681 0.0
C930 C 0.53132 0.67849 0.45287 0.0
C931 C 0.50646 0.70582 0.44134 0.0
C932 C 0.48745 0.71745 0.44513 0.0
C933 C 0.51288 0.69085 0.45674 0.0
C934 C 0.47513 0.7142 0.46455 0.0
C935 C 0.48172 0.69982 0.48011 0.0
H936 H 0.86921 0.81864 0.71839 0.0
H937 H 0.89982 0.78554 0.77057 0.0
H938 H 0.93016 0.77661 0.74592 0.0
H939 H 0.94766 0.77763 0.70936 0.0
H940 H 0.91755 0.8119 0.65768 0.0
H941 H 0.88763 0.82134 0.68255 0.0
C942 C 0.88267 0.80978 0.72452 0.0
C943 C 0.88212 0.80268 0.74629 0.0
C944 C 0.9002 0.80492 0.71036 0.0
C945 C 0.89958 0.79088 0.75378 0.0
C946 C 0.91703 0.78588 0.73974 0.0
C947 C 0.9346 0.78723 0.70355 0.0
C948 C 0.93483 0.79394 0.68165 0.0
C949 C 0.91742 0.79267 0.71795 0.0
C950 C 0.91782 0.80649 0.67445 0.0
C951 C 0.90065 0.81188 0.68864 0.0
H952 H 0.04101 0.89311 0.54729 0.0
H953 H 0.97418 0.8988 0.52411 0.0
H954 H 0.96011 0.86992 0.54827 0.0
H955 H 0.96661 0.84288 0.57549 0.0
H956 H 0.03301 0.837 0.59962 0.0
H957 H 0.04738 0.8665 0.57586 0.0
C958 C 0.02336 0.88815 0.54769 0.0
C959 C 0.00872 0.89795 0.53371 0.0
C960 C 0.01529 0.8716 0.56182 0.0
C961 C 0.98589 0.89122 0.53431 0.0
C962 C 0.97778 0.87482 0.54826 0.0
C963 C 0.98424 0.84805 0.57566 0.0
C964 C -0.00127 0.83771 0.58925 0.0
C965 C 0.99233 0.86484 0.56197 0.0
C966 C 0.0215 0.84471 0.5893 0.0
C967 C 0.02972 0.86153 0.57569 0.0
H968 H 0.1271 0.78432 0.6903 0.0
H969 H 0.11572 0.7181 0.71392 0.0
H970 H 0.07778 0.71537 0.69961 0.0
H971 H 0.04734 0.73239 0.68212 0.0
H972 H 0.05833 0.79848 0.65812 0.0
H973 H 0.0969 0.80075 0.67101 0.0
C974 C 0.1163 0.76929 0.69224 0.0
C975 C 0.12419 0.75145 0.70317 0.0
C976 C 0.09442 0.76788 0.6841 0.0
C977 C 0.11014 0.73196 0.70534 0.0
C978 C 0.08838 0.73045 0.69733 0.0
C979 C 0.05816 0.74731 0.67969 0.0
C980 C 0.04994 0.76533 0.66939 0.0
C981 C 0.08027 0.74841 0.68696 0.0
C982 C 0.06425 0.7844 0.66608 0.0
C983 C 0.08629 0.78571 0.67346 0.0
H984 H 0.9541 0.65059 0.55026 0.0
H985 H 0.95069 0.6972 0.49895 0.0
H986 H 0.95777 0.72833 0.52616 0.0
H987 H 0.96509 0.74215 0.56436 0.0
H988 H 0.96945 0.69555 0.61566 0.0
H989 H 0.96166 0.66448 0.58859 0.0
C990 C 0.95474 0.66759 0.54512 0.0
C991 C 0.95183 0.67168 0.52272 0.0
C992 C 0.95897 0.68533 0.56079 0.0
C993 C 0.95304 0.69371 0.51612 0.0
C994 C 0.957 0.71147 0.53166 0.0
C995 C 0.96424 0.7252 0.56967 0.0
C996 C 0.96777 0.72117 0.59201 0.0
C997 C 0.96002 0.70746 0.55402 0.0
C998 C 0.96683 0.69911 0.59856 0.0
C999 C 0.96236 0.68133 0.5831 0.0
H1000 H 0.77183 0.90869 0.26779 0.0
H1001 H 0.80051 0.88768 0.20561 0.0
H1002 H 0.82516 0.92181 0.20646 0.0
H1003 H 0.83886 0.95742 0.22505 0.0
H1004 H 0.80859 0.97914 0.28614 0.0
H1005 H 0.78375 0.94516 0.28506 0.0
C1006 C 0.78316 0.91166 0.25418 0.0
C1007 C 0.7843 0.89548 0.23672 0.0
C1008 C 0.79694 0.93152 0.25449 0.0
C1009 C 0.7995 0.89957 0.21951 0.0
C1010 C 0.8135 0.91919 0.21986 0.0
C1011 C 0.82676 0.95478 0.23808 0.0
C1012 C 0.82568 0.97076 0.2557 0.0
C1013 C 0.81244 0.93523 0.23733 0.0
C1014 C 0.80977 0.96714 0.27236 0.0
C1015 C 0.79561 0.94767 0.27181 0.0
H1016 H 0.78368 0.1448 0.24105 0.0
H1017 H 0.78721 0.16051 0.31147 0.0
H1018 H 0.81048 0.13013 0.31612 0.0
H1019 H 0.82859 0.09812 0.30071 0.0
H1020 H 0.82808 0.0837 0.23028 0.0
H1021 H 0.8054 0.11498 0.22506 0.0
C1022 C 0.78981 0.14186 0.25738 0.0
C1023 C 0.78309 0.15469 0.27592 0.0
C1024 C 0.80379 0.12461 0.25996 0.0
C1025 C 0.79131 0.15048 0.29694 0.0
C1026 C 0.80486 0.13321 0.29965 0.0
C1027 C 0.82362 0.10192 0.2842 0.0
C1028 C 0.82973 0.08856 0.26593 0.0
C1029 C 0.8109 0.11997 0.28135 0.0
C1030 C 0.82353 0.09382 0.24459 0.0
C1031 C 0.8105 0.11161 0.24163 0.0
H1032 H 0.38369 0.98719 0.99351 0.0
H1033 H 0.39849 0.94876 0.04891 0.0
H1034 H 0.3613 0.92924 0.04646 0.0
H1035 H 0.32474 0.92327 0.02853 0.0
H1036 H 0.30921 0.96315 0.9743 0.0
H1037 H 0.34656 0.98211 0.97636 0.0
C1038 C 0.37873 0.97442 0.00491 0.0
C1039 C 0.39369 0.96914 0.02121 0.0
C1040 C 0.35725 0.96368 0.00367 0.0
C1041 C 0.38713 0.95294 0.03622 0.0
C1042 C 0.36594 0.94183 0.03481 0.0
C1043 C 0.32953 0.9361 0.01714 0.0
C1044 C 0.31429 0.94172 0.00121 0.0
C1045 C 0.35088 0.94709 0.01861 0.0
C1046 C 0.32064 0.95856 0.98675 0.0
C1047 C 0.34199 0.96935 0.98786 0.0
H1048 H 0.2161 0.3963 0.28221 0.0
H1049 H 0.23509 0.4111 0.35037 0.0
H1050 H 0.21286 0.4431 0.35196 0.0
H1051 H 0.18953 0.46784 0.33364 0.0
H1052 H 0.16993 0.45341 0.26559 0.0
H1053 H 0.19081 0.42025 0.2643 0.0
C1054 C 0.21529 0.40655 0.29738 0.0
C1055 C 0.22722 0.40138 0.31613 0.0
C1056 C 0.20244 0.42498 0.29819 0.0
C1057 C 0.22588 0.41462 0.33579 0.0
C1058 C 0.21327 0.43298 0.33668 0.0
C1059 C 0.18973 0.4574 0.31854 0.0
C1060 C 0.17836 0.46317 0.2997 0.0
C1061 C 0.20169 0.43844 0.31793 0.0
C1062 C 0.17857 0.44933 0.28033 0.0
C1063 C 0.19057 0.43042 0.27956 0.0
H1064 H 0.15436 0.04402 0.48073 0.0
H1065 H 0.11091 0.09437 0.50133 0.0
H1066 H 0.14305 0.12108 0.50896 0.0
H1067 H 0.18345 0.12985 0.51009 0.0
H1068 H 0.22684 0.07966 0.4884 0.0
H1069 H 0.19474 0.05312 0.48084 0.0
C1070 C 0.15201 0.06082 0.48701 0.0
C1071 C 0.13042 0.06726 0.49064 0.0
C1072 C 0.17049 0.07607 0.4911 0.0
C1073 C 0.12744 0.08914 0.49839 0.0
C1074 C 0.14578 0.10435 0.50279 0.0
C1075 C 0.18589 0.11311 0.5037 0.0
C1076 C 0.20751 0.10673 0.49991 0.0
C1077 C 0.16737 0.09798 0.49923 0.0
C1078 C 0.21038 0.08503 0.49143 0.0
C1079 C 0.19204 0.06981 0.48716 0.0
H1080 H 0.67977 0.15968 0.74138 0.0
H1081 H 0.74148 0.13266 0.75736 0.0
H1082 H 0.72123 0.09795 0.76728 0.0
H1083 H 0.68596 0.07608 0.77326 0.0
H1084 H 0.62423 0.10294 0.75687 0.0
H1085 H 0.64462 0.13673 0.74485 0.0
C1086 C 0.68882 0.14606 0.74665 0.0
C1087 C 0.71208 0.14885 0.74883 0.0
C1088 C 0.67709 0.12614 0.75232 0.0
C1089 C 0.72353 0.13109 0.75593 0.0
C1090 C 0.71198 0.11121 0.76152 0.0
C1091 C 0.67695 0.08925 0.76694 0.0
C1092 C 0.65359 0.08702 0.76617 0.0
C1093 C 0.68874 0.1087 0.76014 0.0
C1094 C 0.64221 0.10421 0.75774 0.0
C1095 C 0.65385 0.12359 0.75089 0.0
H1096 H 0.37406 0.04646 0.52992 0.0
H1097 H 0.35306 0.05509 0.59765 0.0
H1098 H 0.32947 0.08408 0.58736 0.0
H1099 H 0.31311 0.10533 0.55855 0.0
H1100 H 0.33353 0.09526 0.49071 0.0
H1101 H 0.359 0.06846 0.50162 0.0
C1102 C 0.36422 0.05459 0.54242 0.0
C1103 C 0.36509 0.04846 0.56445 0.0
C1104 C 0.35058 0.07099 0.53636 0.0
C1105 C 0.3527 0.05955 0.58057 0.0
C1106 C 0.33915 0.07606 0.57468 0.0
C1107 C 0.32334 0.09746 0.54623 0.0
C1108 C 0.32135 0.1022 0.52385 0.0
C1109 C 0.33775 0.08172 0.55256 0.0
C1110 C 0.33464 0.0918 0.50803 0.0
C1111 C 0.3492 0.07645 0.51424 0.0
H1112 H 0.63611 0.48873 0.56001 0.0
H1113 H 0.62407 0.50878 0.49392 0.0
H1114 H 0.64826 0.48145 0.47887 0.0
H1115 H 0.67299 0.45226 0.48429 0.0
H1116 H 0.68507 0.43136 0.55 0.0
H1117 H 0.66022 0.45829 0.56533 0.0
C1118 C 0.63863 0.48698 0.5423 0.0
C1119 C 0.62844 0.50098 0.52816 0.0
C1120 C 0.65242 0.471 0.53367 0.0
C1121 C 0.63206 0.49861 0.50526 0.0
C1122 C 0.64574 0.48283 0.49659 0.0
C1123 C 0.67014 0.45346 0.50197 0.0
C1124 C 0.6809 0.43984 0.51598 0.0
C1125 C 0.65605 0.46903 0.51063 0.0
C1126 C 0.67695 0.44163 0.53884 0.0
C1127 C 0.66282 0.45708 0.54762 0.0
H1128 H 0.72899 0.28779 0.39095 0.0
H1129 H 0.67338 0.32185 0.36913 0.0
H1130 H 0.67538 0.3454 0.4032 0.0
H1131 H 0.69447 0.35779 0.43806 0.0
H1132 H 0.74947 0.32278 0.4599 0.0
H1133 H 0.74559 0.29763 0.42717 0.0
C1134 C 0.71692 0.29997 0.39379 0.0
C1135 C 0.70118 0.30311 0.37736 0.0
C1136 C 0.71804 0.31331 0.41343 0.0
C1137 C 0.68597 0.31933 0.38128 0.0
C1138 C 0.68701 0.33273 0.40082 0.0
C1139 C 0.70545 0.34451 0.4358 0.0
C1140 C 0.72239 0.34237 0.45132 0.0
C1141 C 0.70325 0.33013 0.41682 0.0
C1142 C 0.73635 0.32493 0.44819 0.0
C1143 C 0.73421 0.31055 0.42942 0.0
H1144 H 0.55373 0.05558 0.92332 0.0
H1145 H 0.58862 0.00031 0.94315 0.0
H1146 H 0.60726 -0.00142 0.90714 0.0
H1147 H 0.61238 0.01212 0.8695 0.0
H1148 H 0.57494 0.06565 0.84934 0.0
H1149 H 0.55862 0.06891 0.88608 0.0
C1150 C 0.56565 0.04336 0.91981 0.0
C1151 C 0.57007 0.02826 0.93578 0.0
C1152 C 0.57573 0.04214 0.89903 0.0
C1153 C 0.5851 0.01213 0.931 0.0
C1154 C 0.59571 0.01116 0.91048 0.0
C1155 C 0.60079 0.0246 0.87328 0.0
C1156 C 0.59488 0.03866 0.85683 0.0
C1157 C 0.59099 0.02598 0.89429 0.0
C1158 C 0.57964 0.05458 0.86175 0.0
C1159 C 0.57033 0.05647 0.88274 0.0
H1160 H 0.2874 0.2671 0.43179 0.0
H1161 H 0.31827 0.22004 0.38811 0.0
H1162 H 0.31365 0.19201 0.41576 0.0
H1163 H 0.29864 0.18009 0.45126 0.0
H1164 H 0.26616 0.22668 0.49416 0.0
H1165 H 0.27346 0.25557 0.46777 0.0
C1166 C 0.29304 0.25068 0.42827 0.0
C1167 C 0.30305 0.24567 0.40785 0.0
C1168 C 0.28994 0.2345 0.44405 0.0
C1169 C 0.3107 0.22445 0.40377 0.0
C1170 C 0.30792 0.20834 0.41951 0.0
C1171 C 0.29333 0.19662 0.45495 0.0
C1172 C 0.28176 0.20115 0.47462 0.0
C1173 C 0.29728 0.21309 0.43957 0.0
C1174 C 0.27498 0.22267 0.4791 0.0
C1175 C 0.27913 0.23922 0.46401 0.0
H1176 H 0.45887 0.50393 0.87852 0.0
H1177 H 0.50106 0.49033 0.82284 0.0
H1178 H 0.47342 0.50276 0.7977 0.0
H1179 H 0.43686 0.51613 0.79155 0.0
H1180 H 0.39464 0.53015 0.84723 0.0
H1181 H 0.42285 0.51906 0.87246 0.0
C1182 C 0.46191 0.50363 0.86086 0.0
C1183 C 0.4818 0.49607 0.85244 0.0
C1184 C 0.44604 0.51092 0.84658 0.0
C1185 C 0.48584 0.49613 0.82962 0.0
C1186 C 0.47005 0.50318 0.81528 0.0
C1187 C 0.43384 0.51689 0.80922 0.0
C1188 C 0.4136 0.52381 0.81748 0.0
C1189 C 0.45005 0.51044 0.82358 0.0
C1190 C 0.41007 0.52489 0.84043 0.0
C1191 C 0.42614 0.51846 0.85486 0.0
H1192 H 0.7567 0.70744 0.15123 0.0
H1193 H 0.68794 0.71857 0.14022 0.0
H1194 H 0.68898 0.6994 0.10389 0.0
H1195 H 0.71004 0.68209 0.07417 0.0
H1196 H 0.77893 0.67115 0.08452 0.0
H1197 H 0.77724 0.68774 0.12215 0.0
C1198 C 0.74193 0.70556 0.1409 0.0
C1199 C 0.7223 0.7145 0.14842 0.0
C1200 C 0.74271 0.69475 0.11984 0.0
C1201 C 0.70319 0.71164 0.13498 0.0
C1202 C 0.70382 0.70085 0.11409 0.0
C1203 C 0.72468 0.68321 0.08468 0.0
C1204 C 0.74465 0.67563 0.07649 0.0
C1205 C 0.72359 0.69274 0.10621 0.0
C1206 C 0.76337 0.67695 0.09041 0.0
C1207 C 0.76243 0.68647 0.11191 0.0
H1208 H 0.95989 0.06926 0.14079 0.0
H1209 H 0.00857 0.0269 0.16373 0.0
H1210 H 0.98296 0.01355 0.19202 0.0
H1211 H 0.94691 0.01375 0.2103 0.0
H1212 H 0.89934 0.05833 0.19001 0.0
H1213 H 0.92462 0.07133 0.16083 0.0
C1214 C 0.96512 0.0574 0.15217 0.0
C1215 C 0.98615 0.04895 0.14983 0.0
C1216 C 0.95051 0.05017 0.16886 0.0
C1217 C 0.99235 0.03333 0.16466 0.0
C1218 C 0.97777 0.02577 0.181 0.0
C1219 C 0.94203 0.02624 0.19941 0.0
C1220 C 0.92123 0.03489 0.20205 0.0
C1221 C 0.95679 0.03396 0.18314 0.0
C1222 C 0.91527 0.05139 0.18818 0.0
C1223 C 0.9297 0.0588 0.17153 0.0
H1224 H 0.28725 0.80934 0.11717 0.0
H1225 H 0.22375 0.82679 0.1419 0.0
H1226 H 0.21826 0.84787 0.10893 0.0
H1227 H 0.23209 0.86154 0.07306 0.0
H1228 H 0.29523 0.84207 0.04859 0.0
H1229 H 0.3003 0.82163 0.08146 0.0
C1230 C 0.27229 0.81793 0.1154 0.0
C1231 C 0.25608 0.81687 0.13195 0.0
C1232 C 0.26918 0.82959 0.09642 0.0
C1233 C 0.23649 0.82754 0.12931 0.0
C1234 C 0.23339 0.83957 0.11052 0.0
C1235 C 0.2469 0.85277 0.07496 0.0
C1236 C 0.26325 0.85338 0.05839 0.0
C1237 C 0.24968 0.84074 0.09395 0.0
C1238 C 0.28232 0.84184 0.06101 0.0
C1239 C 0.28531 0.83017 0.07985 0.0
H1240 H 0.02862 0.45915 0.17671 0.0
H1241 H 0.01838 0.52663 0.16115 0.0
H1242 H 0.04997 0.54052 0.18427 0.0
H1243 H 0.07925 0.53383 0.21005 0.0
H1244 H 0.09014 0.46672 0.22613 0.0
H1245 H 0.05993 0.45227 0.20102 0.0
C1246 C 0.03347 0.47686 0.17819 0.0
C1247 C 0.02092 0.49185 0.16748 0.0
C1248 C 0.05181 0.48478 0.19145 0.0
C1249 C 0.02738 0.51477 0.16965 0.0
C1250 C 0.04557 0.52273 0.18271 0.0
C1251 C 0.07519 0.51601 0.20795 0.0
C1252 C 0.08679 0.50138 0.22005 0.0
C1253 C 0.05769 0.50792 0.19388 0.0
C1254 C 0.08145 0.47833 0.21698 0.0
C1255 C 0.06409 0.47008 0.20275 0.0
H1256 H 0.36769 0.73641 0.30206 0.0
H1257 H 0.39973 0.78668 0.26202 0.0
H1258 H 0.42981 0.79341 0.28918 0.0
H1259 H 0.4467 0.78522 0.32446 0.0
H1260 H 0.41466 0.73436 0.36395 0.0
H1261 H 0.3851 0.72734 0.33649 0.0
C1262 C 0.38142 0.7486 0.29906 0.0
C1263 C 0.38148 0.76097 0.27999 0.0
C1264 C 0.39867 0.75225 0.31461 0.0
C1265 C 0.39916 0.77708 0.27667 0.0
C1266 C 0.41641 0.78085 0.29212 0.0
C1267 C 0.4333 0.77254 0.32704 0.0
C1268 C 0.4329 0.7604 0.3463 0.0
C1269 C 0.41628 0.76859 0.3112 0.0
C1270 C 0.41541 0.74399 0.34932 0.0
C1271 C 0.39846 0.73997 0.33364 0.0
H1272 H 0.97257 0.38979 0.00242 0.0
H1273 H 0.91144 0.35207 0.01821 0.0
H1274 H 0.91788 0.32448 0.98826 0.0
H1275 H 0.94113 0.31115 0.95779 0.0
H1276 H 0.00146 0.35002 0.94116 0.0
H1277 H 0.99516 0.37713 0.97135 0.0
C1278 C 0.96075 0.37544 -0.00067 0.0
C1279 C 0.94169 0.37275 0.01251 0.0
C1280 C 0.96443 0.35992 0.982 0.0
C1281 C 0.92622 0.3544 0.00818 0.0
C1282 C 0.92994 0.33864 0.99115 0.0
C1283 C 0.95292 0.32552 0.96083 0.0
C1284 C 0.97179 0.32852 0.94735 0.0
C1285 C 0.94902 0.34122 0.97799 0.0
C1286 C 0.98679 0.34736 0.95129 0.0
C1287 C 0.98322 0.36284 0.96855 0.0
H1288 H 0.61726 0.76315 0.31959 0.0
H1289 H 0.61065 0.82749 0.29346 0.0
H1290 H 0.57631 0.83093 0.31403 0.0
H1291 H 0.54816 0.8158 0.33911 0.0
H1292 H 0.55408 0.75159 0.3658 0.0
H1293 H 0.58873 0.74796 0.34538 0.0
C1294 C 0.60819 0.77783 0.31836 0.0
C1295 C 0.6165 0.79508 0.30512 0.0
C1296 C 0.58842 0.77976 0.33036 0.0
C1297 C 0.60472 0.81412 0.30377 0.0
C1298 C 0.58506 0.81607 0.31546 0.0
C1299 C 0.55701 0.801 0.34054 0.0
C1300 C 0.54853 0.78398 0.35394 0.0
C1301 C 0.57679 0.79904 0.32881 0.0
C1302 C 0.56028 0.76496 0.35562 0.0
C1303 C 0.58005 0.76285 0.34391 0.0
H1304 H 0.04522 0.17293 0.9752 0.0
H1305 H 0.97963 0.14984 0.99687 0.0
H1306 H 0.96318 0.17583 0.97348 0.0
H1307 H 0.96735 0.2058 0.9479 0.0
H1308 H 0.03267 0.2292 0.92582 0.0
H1309 H 0.04926 0.20204 0.948 0.0
C1310 C 0.02732 0.17342 0.9746 0.0
C1311 C 0.0137 0.15962 0.98796 0.0
C1312 C 0.01791 0.18839 0.96101 0.0
C1313 C 0.99053 0.16059 0.98711 0.0
C1314 C 0.98108 0.17534 0.97362 0.0
C1315 C 0.98521 0.2049 0.94778 0.0
C1316 C -0.00125 0.21957 0.93529 0.0
C1317 C 0.99461 0.18945 0.96069 0.0
C1318 C 0.02186 0.2181 0.93531 0.0
C1319 C 0.03137 0.20262 0.94804 0.0
H1320 H 0.3868 0.33902 0.22088 0.0
H1321 H 0.41016 0.28864 0.26133 0.0
H1322 H 0.43922 0.28184 0.23474 0.0
H1323 H 0.45685 0.28848 0.19914 0.0
H1324 H 0.43142 0.33581 0.15664 0.0
H1325 H 0.40407 0.34518 0.18472 0.0
C1326 C 0.39807 0.32639 0.22384 0.0
C1327 C 0.39622 0.31454 0.2433 0.0
C1328 C 0.41435 0.3219 0.20803 0.0
C1329 C 0.41136 0.2985 0.24687 0.0
C1330 C 0.42792 0.29438 0.23153 0.0
C1331 C 0.44548 0.30102 0.19611 0.0
C1332 C 0.44621 0.31152 0.17592 0.0
C1333 C 0.42945 0.30583 0.21199 0.0
C1334 C 0.43115 0.32748 0.17208 0.0
C1335 C 0.41552 0.33283 0.18811 0.0
H1336 H 0.55141 0.37966 0.02407 0.0
H1337 H 0.48667 0.38724 0.99646 0.0
H1338 H 0.46937 0.36322 0.02374 0.0
H1339 H 0.47241 0.34033 0.05548 0.0
H1340 H 0.53674 0.33344 0.08424 0.0
H1341 H 0.55434 0.35734 0.05672 0.0
C1342 C 0.53351 0.37621 0.02413 0.0
C1343 C 0.52042 0.38512 0.00806 0.0
C1344 C 0.52356 0.36263 0.04014 0.0
C1345 C 0.49724 0.38025 0.00828 0.0
C1346 C 0.48728 0.36666 0.02401 0.0
C1347 C 0.49029 0.34406 0.05579 0.0
C1348 C 0.50323 0.33509 0.07187 0.0
C1349 C 0.50026 0.35777 0.03999 0.0
C1350 C 0.52637 0.34017 0.07205 0.0
C1351 C 0.53646 0.35379 0.05629 0.0
H1352 H 0.64074 0.29771 0.18425 0.0
H1353 H 0.62584 0.22812 0.19608 0.0
H1354 H 0.58861 0.22944 0.18121 0.0
H1355 H 0.55929 0.25084 0.16797 0.0
H1356 H 0.57324 0.32014 0.15506 0.0
H1357 H 0.61184 0.31857 0.16742 0.0
C1358 C 0.62939 0.28281 0.1833 0.0
C1359 C 0.63609 0.26285 0.19129 0.0
C1360 C 0.60778 0.28372 0.17491 0.0
C1361 C 0.62129 0.24361 0.18977 0.0
C1362 C 0.59987 0.24439 0.18151 0.0
C1363 C 0.5708 0.26561 0.16785 0.0
C1364 C 0.56345 0.28568 0.16108 0.0
C1365 C 0.59281 0.26445 0.17457 0.0
C1366 C 0.57858 0.30456 0.16041 0.0
C1367 C 0.60058 0.30365 0.16747 0.0
H1368 H 0.46602 0.15235 0.06223 0.0
H1369 H 0.52111 0.14064 0.10425 0.0
H1370 H 0.5216 0.17864 0.12032 0.0
H1371 H 0.50719 0.21515 0.12166 0.0
H1372 H 0.45286 0.22791 0.07899 0.0
H1373 H 0.45114 0.18934 0.06396 0.0
C1374 C 0.47794 0.15812 0.07508 0.0
C1375 C 0.49351 0.14382 0.08211 0.0
C1376 C 0.4783 0.18007 0.08402 0.0
C1377 C 0.5091 0.15147 0.09852 0.0
C1378 C 0.50934 0.17313 0.10771 0.0
C1379 C 0.49484 0.20955 0.10915 0.0
C1380 C 0.48015 0.22441 0.10147 0.0
C1381 C 0.49415 0.18759 0.10045 0.0
C1382 C 0.46438 0.21682 0.08516 0.0
C1383 C 0.46339 0.19479 0.07658 0.0
H1384 H 0.28177 0.40671 0.73652 0.0
H1385 H 0.26809 0.40896 0.80656 0.0
H1386 H 0.28695 0.44619 0.81061 0.0
H1387 H 0.30932 0.47712 0.79482 0.0
H1388 H 0.32571 0.4737 0.72546 0.0
H1389 H 0.30393 0.43781 0.72064 0.0
C1390 C 0.28306 0.41523 0.75272 0.0
C1391 C 0.27353 0.40494 0.77119 0.0
C1392 C 0.29444 0.43643 0.75507 0.0
C1393 C 0.27498 0.41652 0.79197 0.0
C1394 C 0.28591 0.43779 0.79435 0.0
C1395 C 0.30787 0.46867 0.77858 0.0
C1396 C 0.31906 0.47805 0.76051 0.0
C1397 C 0.29589 0.4478 0.77607 0.0
C1398 C 0.31727 0.46678 0.73963 0.0
C1399 C 0.30487 0.44625 0.73688 0.0
H1400 H 0.28536 0.66084 0.79877 0.0
H1401 H 0.30112 0.66425 0.72953 0.0
H1402 H 0.32093 0.6305 0.73098 0.0
H1403 H 0.33311 0.5996 0.75194 0.0
H1404 H 0.31621 0.59617 0.82101 0.0
H1405 H 0.29778 0.63052 0.81967 0.0
C1406 C 0.29337 0.65435 0.78406 0.0
C1407 C 0.29189 0.66506 0.76411 0.0
C1408 C 0.30453 0.63494 0.78499 0.0
C1409 C 0.30194 0.6562 0.74506 0.0
C1410 C 0.31333 0.63697 0.7459 0.0
C1411 C 0.32552 0.60646 0.76671 0.0
C1412 C 0.32604 0.59533 0.78653 0.0
C1413 C 0.31463 0.62613 0.76577 0.0
C1414 C 0.31599 0.60434 0.80551 0.0
C1415 C 0.30544 0.62401 0.80478 0.0
H1416 H 0.85869 0.48642 0.48848 0.0
H1417 H 0.82438 0.50523 0.43078 0.0
H1418 H 0.79374 0.47724 0.43743 0.0
H1419 H 0.77657 0.44802 0.46008 0.0
H1420 H 0.81159 0.42823 0.51705 0.0
H1421 H 0.84219 0.45608 0.51028 0.0
C1422 C 0.84444 0.48436 0.47743 0.0
C1423 C 0.84359 0.49786 0.45929 0.0
C1424 C 0.8271 0.46815 0.48124 0.0
C1425 C 0.82532 0.49491 0.44482 0.0
C1426 C 0.80782 0.479 0.44866 0.0
C1427 C 0.79089 0.44982 0.47104 0.0
C1428 C 0.79176 0.43622 0.48913 0.0
C1429 C 0.8085 0.46563 0.46689 0.0
C1430 C 0.81054 0.43851 0.503 0.0
C1431 C 0.82801 0.45445 0.49918 0.0
H1432 H 0.69672 0.89932 0.79118 0.0
H1433 H 0.75576 0.93978 0.8125 0.0
H1434 H 0.73582 0.97332 0.81131 0.0
H1435 H 0.70141 0.99095 0.80562 0.0
H1436 H 0.64232 0.95114 0.78329 0.0
H1437 H 0.66248 0.91749 0.7833 0.0
C1438 C 0.70514 0.91552 0.79552 0.0
C1439 C 0.72761 0.91715 0.802 0.0
C1440 C 0.6936 0.93477 0.79462 0.0
C1441 C 0.7385 0.93819 0.80734 0.0
C1442 C 0.7271 0.95733 0.80675 0.0
C1443 C 0.69294 0.97492 0.80066 0.0
C1444 C 0.67037 0.97348 0.79465 0.0
C1445 C 0.70462 0.95579 0.8006 0.0
C1446 C 0.6597 0.95265 0.78799 0.0
C1447 C 0.67119 0.93342 0.78808 0.0
H1448 H 0.67593 0.52652 0.9559 0.0
H1449 H 0.62376 0.5696 0.97081 0.0
H1450 H 0.65115 0.59924 0.98427 0.0
H1451 H 0.68978 0.61287 0.99169 0.0
H1452 H 0.74238 0.5706 0.97544 0.0
H1453 H 0.71499 0.54064 0.96259 0.0
C1454 C 0.67066 0.5424 0.96219 0.0
C1455 C 0.64797 0.54597 0.96243 0.0
C1456 C 0.68652 0.55945 0.96961 0.0
C1457 C 0.64121 0.56662 0.97036 0.0
C1458 C 0.65682 0.58351 0.9781 0.0
C1459 C 0.69526 0.59708 0.9854 0.0
C1460 C 0.71804 0.59392 0.98461 0.0
C1461 C 0.6795 0.58011 0.97778 0.0
C1462 C 0.72491 0.57346 0.97618 0.0
C1463 C 0.70927 0.55631 0.96887 0.0
H1464 H 0.23679 0.63647 0.25855 0.0
H1465 H 0.19948 0.63834 0.19796 0.0
H1466 H 0.17631 0.60519 0.20765 0.0
H1467 H 0.16624 0.57627 0.23365 0.0
H1468 H 0.20406 0.57413 0.29394 0.0
H1469 H 0.22787 0.60657 0.28367 0.0
C1470 C 0.22384 0.62944 0.24725 0.0
C1471 C 0.21989 0.6399 0.22755 0.0
C1472 C 0.21073 0.61032 0.25283 0.0
C1473 C 0.2027 0.6308 0.21336 0.0
C1474 C 0.18954 0.61178 0.21882 0.0
C1475 C 0.17976 0.58279 0.24452 0.0
C1476 C 0.18327 0.57281 0.26459 0.0
C1477 C 0.19332 0.6015 0.23859 0.0
C1478 C 0.20094 0.58147 0.27841 0.0
C1479 C 0.21454 0.60007 0.27258 0.0
H1480 H 0.87674 0.54686 0.03501 0.0
H1481 H 0.84503 0.55173 0.09863 0.0
H1482 H 0.82367 0.58164 0.08616 0.0
H1483 H 0.81201 0.60428 0.05606 0.0
H1484 H 0.84359 0.5984 0.99231 0.0
H1485 H 0.86714 0.57115 0.006 0.0
C1486 C 0.86512 0.55447 0.04612 0.0
C1487 C 0.86218 0.54693 0.06756 0.0
C1488 C 0.85292 0.57148 0.03882 0.0
C1489 C 0.84751 0.55726 0.08201 0.0
C1490 C 0.83527 0.57429 0.07487 0.0
C1491 C 0.82431 0.59731 0.0453 0.0
C1492 C 0.82592 0.60324 0.02315 0.0
C1493 C 0.83759 0.58129 0.05317 0.0
C1494 C 0.8419 0.59402 0.00938 0.0
C1495 C 0.85534 0.57837 0.01716 0.0
H1496 H 0.13462 0.98825 0.04355 0.0
H1497 H 0.15849 0.04074 0.00152 0.0
H1498 H 0.18809 0.01855 0.98812 0.0
H1499 H 0.20712 0.98433 0.98805 0.0
H1500 H 0.18505 0.93263 0.03154 0.0
H1501 H 0.15507 0.9547 0.04502 0.0
C1502 C 0.14646 0.99502 0.0317 0.0
C1503 C 0.14408 0.01611 0.02342 0.0
C1504 C 0.16379 0.98234 0.02434 0.0
C1505 C 0.15951 0.02439 0.00784 0.0
C1506 C 0.17659 0.01178 0.00027 0.0
C1507 C 0.19573 0.97785 0.00047 0.0
C1508 C 0.19817 0.95681 0.00866 0.0
C1509 C 0.17879 0.9907 0.00829 0.0
C1510 C 0.18349 0.94879 0.02496 0.0
C1511 C 0.16634 0.96138 0.03263 0.0
loop_
_geom_bond_atom_site_label_1
_geom_bond_atom_site_label_2
_geom_bond_distance
_geom_bond_site_symmetry_2
_ccdc_geom_bond_type
C0 C1 1.384 . S
C0 H13 0.947 . S
C0 C35 1.382 . S
C1 C0 1.384 . S
C1 C2 1.378 . S
C2 C1 1.378 . S
C2 C3 1.378 . S
C2 H14 0.952 . S
C3 C2 1.378 . S
C3 H15 0.950 . S
C3 C34 1.383 . S
H4 C23 0.947 . S
H5 C24 0.946 . S
H6 C26 0.953 . S
H7 C27 0.945 . S
H8 C29 0.952 . S
H9 C30 0.949 . S
H10 C32 0.950 . S
H11 C33 0.948 . S
H12 C35 0.951 . S
H13 C0 0.947 . S
H14 C2 0.952 . S
H15 C3 0.950 . S
N16 C19 1.382 . S
N16 C21 1.363 . S
N17 C19 1.371 . S
N17 C20 1.372 . S
N18 C20 1.361 . S
N18 C21 1.377 . S
C19 N16 1.382 . S
C19 N17 1.371 . S
C19 C22 1.480 . S
C20 N17 1.372 . S
C20 N18 1.361 . S
C20 C28 1.457 . S
C21 N16 1.363 . S
C21 N18 1.377 . S
C21 C34 1.479 . S
C22 C19 1.480 . S
C22 C23 1.383 . S
C22 C27 1.385 . S
C23 H4 0.947 . S
C23 C22 1.383 . S
C23 C24 1.388 . S
C24 H5 0.946 . S
C24 C23 1.388 . S
C24 C25 1.384 . S
C25 C24 1.384 . S
C25 C26 1.377 . S
C26 H6 0.953 . S
C26 C25 1.377 . S
C26 C27 1.369 . S
C27 H7 0.945 . S
C27 C22 1.385 . S
C27 C26 1.369 . S
C28 C20 1.457 . S
C28 C29 1.372 . S
C28 C33 1.364 . S
C29 H8 0.952 . S
C29 C28 1.372 . S
C29 C30 1.389 . S
C30 H9 0.949 . S
C30 C29 1.389 . S
C30 C31 1.387 . S
C31 C30 1.387 . S
C31 C32 1.372 . S
C32 H10 0.950 . S
C32 C31 1.372 . S
C32 C33 1.379 . S
C33 H11 0.948 . S
C33 C28 1.364 . S
C33 C32 1.379 . S
C34 C3 1.383 . S
C34 C21 1.479 . S
C34 C35 1.398 . S
C35 C0 1.382 . S
C35 H12 0.951 . S
C35 C34 1.398 . S
C36 C37 1.384 . S
C36 H49 0.947 . S
C36 C71 1.382 . S
C37 C36 1.384 . S
C37 C38 1.378 . S
C38 C37 1.378 . S
C38 C39 1.378 . S
C38 H50 0.952 . S
C39 C38 1.378 . S
C39 H51 0.950 . S
C39 C70 1.383 . S
H40 C59 0.947 . S
H41 C60 0.946 . S
H42 C62 0.953 . S
H43 C63 0.945 . S
H44 C65 0.952 . S
H45 C66 0.949 . S
H46 C68 0.950 . S
H47 C69 0.948 . S
H48 C71 0.951 . S
H49 C36 0.947 . S
H50 C38 0.952 . S
H51 C39 0.950 . S
N52 C55 1.382 . S
N52 C57 1.363 . S
N53 C55 1.371 . S
N53 C56 1.372 . S
N54 C56 1.361 . S
N54 C57 1.377 . S
C55 N52 1.382 . S
C55 N53 1.371 . S
C55 C58 1.480 . S
C56 N53 1.372 . S
C56 N54 1.361 . S
C56 C64 1.457 . S
C57 N52 1.363 . S
C57 N54 1.377 . S
C57 C70 1.479 . S
C58 C55 1.480 . S
C58 C59 1.383 . S
C58 C63 1.385 . S
C59 H40 0.947 . S
C59 C58 1.383 . S
C59 C60 1.388 . S
C60 H41 0.946 . S
C60 C59 1.388 . S
C60 C61 1.384 . S
C61 C60 1.384 . S
C61 C62 1.377 . S
C62 H42 0.953 . S
C62 C61 1.377 . S
C62 C63 1.369 . S
C63 H43 0.945 . S
C63 C58 1.385 . S
C63 C62 1.369 . S
C64 C56 1.457 . S
C64 C65 1.372 . S
C64 C69 1.364 . S
C65 H44 0.952 . S
C65 C64 1.372 . S
C65 C66 1.389 . S
C66 H45 0.949 . S
C66 C65 1.389 . S
C66 C67 1.387 . S
C67 C66 1.387 . S
C67 C68 1.372 . S
C68 H46 0.950 . S
C68 C67 1.372 . S
C68 C69 1.379 . S
C69 H47 0.948 . S
C69 C64 1.364 . S
C69 C68 1.379 . S
C70 C39 1.383 . S
C70 C57 1.479 . S
C70 C71 1.398 . S
C71 C36 1.382 . S
C71 H48 0.951 . S
C71 C70 1.398 . S
C72 C73 1.384 . S
C72 H85 0.947 . S
C72 C107 1.382 . S
C73 C72 1.384 . S
C73 C74 1.378 . S
C74 C73 1.378 . S
C74 C75 1.378 . S
C74 H86 0.952 . S
C75 C74 1.378 . S
C75 H87 0.950 . S
C75 C106 1.383 . S
H76 C95 0.947 . S
H77 C96 0.946 . S
H78 C98 0.953 . S
H79 C99 0.945 . S
H80 C101 0.952 . S
H81 C102 0.949 . S
H82 C104 0.950 . S
H83 C105 0.948 . S
H84 C107 0.951 . S
H85 C72 0.947 . S
H86 C74 0.952 . S
H87 C75 0.950 . S
N88 C91 1.382 . S
N88 C93 1.363 . S
N89 C91 1.371 . S
N89 C92 1.372 . S
N90 C92 1.361 . S
N90 C93 1.377 . S
C91 N88 1.382 . S
C91 N89 1.371 . S
C91 C94 1.480 . S
C92 N89 1.372 . S
C92 N90 1.361 . S
C92 C100 1.457 . S
C93 N88 1.363 . S
C93 N90 1.377 . S
C93 C106 1.479 . S
C94 C91 1.480 . S
C94 C95 1.383 . S
C94 C99 1.385 . S
C95 H76 0.947 . S
C95 C94 1.383 . S
C95 C96 1.388 . S
C96 H77 0.946 . S
C96 C95 1.388 . S
C96 C97 1.384 . S
C97 C96 1.384 . S
C97 C98 1.377 . S
C98 H78 0.953 . S
C98 C97 1.377 . S
C98 C99 1.369 . S
C99 H79 0.945 . S
C99 C94 1.385 . S
C99 C98 1.369 . S
C100 C92 1.457 . S
C100 C101 1.372 . S
C100 C105 1.364 . S
C101 H80 0.952 . S
C101 C100 1.372 . S
C101 C102 1.389 . S
C102 H81 0.949 . S
C102 C101 1.389 . S
C102 C103 1.387 . S
C103 C102 1.387 . S
C103 C104 1.372 . S
C104 H82 0.950 . S
C104 C103 1.372 . S
C104 C105 1.379 . S
C105 H83 0.948 . S
C105 C100 1.364 . S
C105 C104 1.379 . S
C106 C75 1.383 . S
C106 C93 1.479 . S
C106 C107 1.398 . S
C107 C72 1.382 . S
C107 H84 0.951 . S
C107 C106 1.398 . S
C108 C109 1.384 . S
C108 H121 0.947 . S
C108 C143 1.382 . S
C109 C108 1.384 . S
C109 C110 1.378 . S
C110 C109 1.378 . S
C110 C111 1.378 . S
C110 H122 0.952 . S
C111 C110 1.378 . S
C111 H123 0.950 . S
C111 C142 1.383 . S
H112 C131 0.947 . S
H113 C132 0.946 . S
H114 C134 0.953 . S
H115 C135 0.945 . S
H116 C137 0.952 . S
H117 C138 0.949 . S
H118 C140 0.950 . S
H119 C141 0.948 . S
H120 C143 0.951 . S
H121 C108 0.947 . S
H122 C110 0.952 . S
H123 C111 0.950 . S
N124 C127 1.382 . S
N124 C129 1.363 . S
N125 C127 1.371 . S
N125 C128 1.372 . S
N126 C128 1.361 . S
N126 C129 1.377 . S
C127 N124 1.382 . S
C127 N125 1.371 . S
C127 C130 1.480 . S
C128 N125 1.372 . S
C128 N126 1.361 . S
C128 C136 1.457 . S
C129 N124 1.363 . S
C129 N126 1.377 . S
C129 C142 1.479 . S
C130 C127 1.480 . S
C130 C131 1.383 . S
C130 C135 1.385 . S
C131 H112 0.947 . S
C131 C130 1.383 . S
C131 C132 1.388 . S
C132 H113 0.946 . S
C132 C131 1.388 . S
C132 C133 1.384 . S
C133 C132 1.384 . S
C133 C134 1.377 . S
C134 H114 0.953 . S
C134 C133 1.377 . S
C134 C135 1.369 . S
C135 H115 0.945 . S
C135 C130 1.385 . S
C135 C134 1.369 . S
C136 C128 1.457 . S
C136 C137 1.372 . S
C136 C141 1.364 . S
C137 H116 0.952 . S
C137 C136 1.372 . S
C137 C138 1.389 . S
C138 H117 0.949 . S
C138 C137 1.389 . S
C138 C139 1.387 . S
C139 C138 1.387 . S
C139 C140 1.372 . S
C140 H118 0.950 . S
C140 C139 1.372 . S
C140 C141 1.379 . S
C141 H119 0.948 . S
C141 C136 1.364 . S
C141 C140 1.379 . S
C142 C111 1.383 . S
C142 C129 1.479 . S
C142 C143 1.398 . S
C143 C108 1.382 . S
C143 H120 0.951 . S
C143 C142 1.398 . S
C144 C145 1.384 . S
C144 H157 0.947 . S
C144 C179 1.382 . S
C145 C144 1.384 . S
C145 C146 1.378 . S
C146 C145 1.378 . S
C146 C147 1.378 . S
C146 H158 0.952 . S
C147 C146 1.378 . S
C147 H159 0.950 . S
C147 C178 1.383 . S
H148 C167 0.947 . S
H149 C168 0.916 1_655 S
H150 C170 0.953 . S
H151 C171 0.945 . S
H152 C173 0.952 1_545 S
H153 C174 0.949 . S
H154 C176 0.950 . S
H155 C177 0.948 . S
H156 C179 0.951 . S
H157 C144 0.947 . S
H158 C146 0.952 . S
H159 C147 0.950 . S
N160 C163 1.382 . S
N160 C165 1.363 . S
N161 C163 1.371 . S
N161 C164 1.372 . S
N162 C164 1.361 . S
N162 C165 1.377 . S
C163 N160 1.382 . S
C163 N161 1.371 . S
C163 C166 1.480 . S
C164 N161 1.372 . S
C164 N162 1.361 . S
C164 C172 1.457 . S
C165 N160 1.363 . S
C165 N162 1.377 . S
C165 C178 1.479 . S
C166 C163 1.480 . S
C166 C167 1.383 . S
C166 C171 1.385 . S
C167 H148 0.947 . S
C167 C166 1.383 . S
C167 C168 1.388 . S
C168 H149 0.916 1_455 S
C168 C167 1.388 . S
C168 C169 1.384 . S
C169 C168 1.384 . S
C169 C170 1.377 . S
C170 H150 0.953 . S
C170 C169 1.377 . S
C170 C171 1.369 . S
C171 H151 0.945 . S
C171 C166 1.385 . S
C171 C170 1.369 . S
C172 C164 1.457 . S
C172 C173 1.372 . S
C172 C177 1.364 . S
C173 H152 0.952 1_565 S
C173 C172 1.372 . S
C173 C174 1.389 1_565 S
C174 H153 0.949 . S
C174 C173 1.389 1_545 S
C174 C175 1.387 . S
C175 C174 1.387 . S
C175 C176 1.372 1_545 S
C176 H154 0.950 . S
C176 C175 1.372 1_565 S
C176 C177 1.379 . S
C177 H155 0.948 . S
C177 C172 1.364 . S
C177 C176 1.379 . S
C178 C147 1.383 . S
C178 C165 1.479 . S
C178 C179 1.398 . S
C179 C144 1.382 . S
C179 H156 0.951 . S
C179 C178 1.398 . S
C180 C181 1.384 . S
C180 H193 0.947 . S
C180 C215 1.382 . S
C181 C180 1.384 . S
C181 C182 1.378 . S
C182 C181 1.378 . S
C182 C183 1.378 . S
C182 H194 0.952 . S
C183 C182 1.378 . S
C183 H195 0.950 . S
C183 C214 1.383 . S
H184 C203 0.947 . S
H185 C204 0.946 . S
H186 C206 0.953 . S
H187 C207 0.945 . S
H188 C209 0.952 . S
H189 C210 0.949 . S
H190 C212 0.950 . S
H191 C213 0.948 . S
H192 C215 0.951 . S
H193 C180 0.947 . S
H194 C182 0.952 . S
H195 C183 0.950 . S
N196 C199 1.382 . S
N196 C201 1.363 . S
N197 C199 1.371 . S
N197 C200 1.372 . S
N198 C200 1.361 . S
N198 C201 1.377 . S
C199 N196 1.382 . S
C199 N197 1.371 . S
C199 C202 1.480 . S
C200 N197 1.372 . S
C200 N198 1.361 . S
C200 C208 1.457 . S
C201 N196 1.363 . S
C201 N198 1.377 . S
C201 C214 1.479 . S
C202 C199 1.480 . S
C202 C203 1.383 . S
C202 C207 1.385 . S
C203 H184 0.947 . S
C203 C202 1.383 . S
C203 C204 1.388 . S
C204 H185 0.946 . S
C204 C203 1.388 . S
C204 C205 1.384 . S
C205 C204 1.384 . S
C205 C206 1.377 . S
C206 H186 0.953 . S
C206 C205 1.377 . S
C206 C207 1.369 . S
C207 H187 0.945 . S
C207 C202 1.385 . S
C207 C206 1.369 . S
C208 C200 1.457 . S
C208 C209 1.372 . S
C208 C213 1.364 . S
C209 H188 0.952 . S
C209 C208 1.372 . S
C209 C210 1.389 . S
C210 H189 0.949 . S
C210 C209 1.389 . S
C210 C211 1.387 . S
C211 C210 1.387 . S
C211 C212 1.372 . S
C212 H190 0.950 . S
C212 C211 1.372 . S
C212 C213 1.379 . S
C213 H191 0.948 . S
C213 C208 1.364 . S
C213 C212 1.379 . S
C214 C183 1.383 . S
C214 C201 1.479 . S
C214 C215 1.398 . S
C215 C180 1.382 . S
C215 H192 0.951 . S
C215 C214 1.398 . S
C216 C217 1.384 . S
C216 H229 0.947 . S
C216 C251 1.382 . S
C217 C216 1.384 . S
C217 C218 1.378 . S
C218 C217 1.378 . S
C218 C219 1.378 . S
C218 H230 0.952 . S
C219 C218 1.378 . S
C219 H231 0.950 . S
C219 C250 1.383 . S
H220 C239 0.947 . S
H221 C240 0.946 . S
H222 C242 0.953 . S
H223 C243 0.945 . S
H224 C245 0.952 . S
H225 C246 0.949 . S
H226 C248 0.950 . S
H227 C249 0.948 . S
H228 C251 0.951 . S
H229 C216 0.947 . S
H230 C218 0.952 . S
H231 C219 0.950 . S
N232 C235 1.382 . S
N232 C237 1.363 . S
N233 C235 1.371 . S
N233 C236 1.372 . S
N234 C236 1.361 . S
N234 C237 1.377 . S
C235 N232 1.382 . S
C235 N233 1.371 . S
C235 C238 1.480 . S
C236 N233 1.372 . S
C236 N234 1.361 . S
C236 C244 1.457 . S
C237 N232 1.363 . S
C237 N234 1.377 . S
C237 C250 1.479 . S
C238 C235 1.480 . S
C238 C239 1.383 . S
C238 C243 1.385 . S
C239 H220 0.947 . S
C239 C238 1.383 . S
C239 C240 1.388 . S
C240 H221 0.946 . S
C240 C239 1.388 . S
C240 C241 1.384 . S
C241 C240 1.384 . S
C241 C242 1.377 . S
C242 H222 0.953 . S
C242 C241 1.377 . S
C242 C243 1.369 . S
C243 H223 0.945 . S
C243 C238 1.385 . S
C243 C242 1.369 . S
C244 C236 1.457 . S
C244 C245 1.372 . S
C244 C249 1.364 . S
C245 H224 0.952 . S
C245 C244 1.372 . S
C245 C246 1.389 . S
C246 H225 0.949 . S
C246 C245 1.389 . S
C246 C247 1.387 . S
C247 C246 1.387 . S
C247 C248 1.372 . S
C248 H226 0.950 . S
C248 C247 1.372 . S
C248 C249 1.379 . S
C249 H227 0.948 . S
C249 C244 1.364 . S
C249 C248 1.379 . S
C250 C219 1.383 . S
C250 C237 1.479 . S
C250 C251 1.398 . S
C251 C216 1.382 . S
C251 H228 0.951 . S
C251 C250 1.398 . S
C252 C253 1.384 . S
C252 H265 0.947 . S
C252 C287 1.382 . S
C253 C252 1.384 . S
C253 C254 1.378 . S
C254 C253 1.378 . S
C254 C255 1.378 . S
C254 H266 0.952 . S
C255 C254 1.378 . S
C255 H267 0.950 . S
C255 C286 1.383 . S
H256 C275 0.947 . S
H257 C276 0.946 . S
H258 C278 0.953 . S
H259 C279 0.945 . S
H260 C281 0.952 . S
H261 C282 0.949 . S
H262 C284 0.950 . S
H263 C285 0.948 . S
H264 C287 0.951 . S
H265 C252 0.947 . S
H266 C254 0.952 . S
H267 C255 0.950 . S
N268 C271 1.382 . S
N268 C273 1.363 . S
N269 C271 1.371 . S
N269 C272 1.372 . S
N270 C272 1.361 . S
N270 C273 1.377 . S
C271 N268 1.382 . S
C271 N269 1.371 . S
C271 C274 1.480 . S
C272 N269 1.372 . S
C272 N270 1.361 . S
C272 C280 1.457 . S
C273 N268 1.363 . S
C273 N270 1.377 . S
C273 C286 1.479 . S
C274 C271 1.480 . S
C274 C275 1.383 . S
C274 C279 1.385 . S
C275 H256 0.947 . S
C275 C274 1.383 . S
C275 C276 1.388 . S
C276 H257 0.946 . S
C276 C275 1.388 . S
C276 C277 1.384 . S
C277 C276 1.384 . S
C277 C278 1.377 . S
C278 H258 0.953 . S
C278 C277 1.377 . S
C278 C279 1.369 . S
C279 H259 0.945 . S
C279 C274 1.385 . S
C279 C278 1.369 . S
C280 C272 1.457 . S
C280 C281 1.372 . S
C280 C285 1.364 . S
C281 H260 0.952 . S
C281 C280 1.372 . S
C281 C282 1.389 . S
C282 H261 0.949 . S
C282 C281 1.389 . S
C282 C283 1.387 . S
C283 C282 1.387 . S
C283 C284 1.372 . S
C284 H262 0.950 . S
C284 C283 1.372 . S
C284 C285 1.379 . S
C285 H263 0.948 . S
C285 C280 1.364 . S
C285 C284 1.379 . S
C286 C255 1.383 . S
C286 C273 1.479 . S
C286 C287 1.398 . S
C287 C252 1.382 . S
C287 H264 0.951 . S
C287 C286 1.398 . S
C288 C289 1.384 . S
C288 H301 0.947 . S
C288 C323 1.382 . S
C289 C288 1.384 . S
C289 C290 1.378 . S
C290 C289 1.378 . S
C290 C291 1.378 . S
C290 H302 0.952 . S
C291 C290 1.378 . S
C291 H303 0.950 . S
C291 C322 1.383 . S
H292 C311 0.947 . S
H293 C312 0.946 . S
H294 C314 0.953 . S
H295 C315 0.945 . S
H296 C317 0.952 . S
H297 C318 0.949 . S
H298 C320 0.950 . S
H299 C321 0.948 . S
H300 C323 0.951 . S
H301 C288 0.947 . S
H302 C290 0.952 . S
H303 C291 0.950 . S
N304 C307 1.382 . S
N304 C309 1.363 . S
N305 C307 1.371 . S
N305 C308 1.372 . S
N306 C308 1.361 . S
N306 C309 1.377 . S
C307 N304 1.382 . S
C307 N305 1.371 . S
C307 C310 1.480 . S
C308 N305 1.372 . S
C308 N306 1.361 . S
C308 C316 1.457 . S
C309 N304 1.363 . S
C309 N306 1.377 . S
C309 C322 1.479 . S
C310 C307 1.480 . S
C310 C311 1.383 . S
C310 C315 1.385 . S
C311 H292 0.947 . S
C311 C310 1.383 . S
C311 C312 1.388 . S
C312 H293 0.946 . S
C312 C311 1.388 . S
C312 C313 1.384 . S
C313 C312 1.384 . S
C313 C314 1.377 . S
C314 H294 0.953 . S
C314 C313 1.377 . S
C314 C315 1.369 . S
C315 H295 0.945 . S
C315 C310 1.385 . S
C315 C314 1.369 . S
C316 C308 1.457 . S
C316 C317 1.372 . S
C316 C321 1.364 . S
C317 H296 0.952 . S
C317 C316 1.372 . S
C317 C318 1.389 . S
C318 H297 0.949 . S
C318 C317 1.389 . S
C318 C319 1.387 . S
C319 C318 1.387 . S
C319 C320 1.372 . S
C320 H298 0.950 . S
C320 C319 1.372 . S
C320 C321 1.379 . S
C321 H299 0.948 . S
C321 C316 1.364 . S
C321 C320 1.379 . S
C322 C291 1.383 . S
C322 C309 1.479 . S
C322 C323 1.398 . S
C323 C288 1.382 . S
C323 H300 0.951 . S
C323 C322 1.398 . S
C324 C325 1.384 . S
C324 H337 0.947 . S
C324 C359 1.382 . S
C325 C324 1.384 . S
C325 C326 1.378 . S
C326 C325 1.378 . S
C326 C327 1.378 . S
C326 H338 0.952 . S
C327 C326 1.378 . S
C327 H339 0.950 . S
C327 C358 1.383 . S
H328 C347 0.947 . S
H329 C348 0.946 . S
H330 C350 0.953 1_545 S
H331 C351 0.945 . S
H332 C353 0.952 . S
H333 C354 0.949 . S
H334 C356 0.950 . S
H335 C357 0.948 . S
H336 C359 0.951 . S
H337 C324 0.947 . S
H338 C326 0.952 . S
H339 C327 0.950 . S
N340 C343 1.382 . S
N340 C345 1.363 . S
N341 C343 1.371 . S
N341 C344 1.372 . S
N342 C344 1.361 . S
N342 C345 1.377 . S
C343 N340 1.382 . S
C343 N341 1.371 . S
C343 C346 1.480 . S
C344 N341 1.372 . S
C344 N342 1.361 . S
C344 C352 1.457 . S
C345 N340 1.363 . S
C345 N342 1.377 . S
C345 C358 1.479 . S
C346 C343 1.480 . S
C346 C347 1.383 . S
C346 C351 1.385 . S
C347 H328 0.947 . S
C347 C346 1.383 . S
C347 C348 1.388 . S
C348 H329 0.946 . S
C348 C347 1.388 . S
C348 C349 1.384 . S
C349 C348 1.384 . S
C349 C350 1.377 . S
C350 H330 0.953 1_565 S
C350 C349 1.377 . S
C350 C351 1.369 . S
C351 H331 0.945 . S
C351 C346 1.385 . S
C351 C350 1.369 . S
C352 C344 1.457 . S
C352 C353 1.372 . S
C352 C357 1.364 . S
C353 H332 0.952 . S
C353 C352 1.372 . S
C353 C354 1.389 . S
C354 H333 0.949 . S
C354 C353 1.389 . S
C354 C355 1.387 . S
C355 C354 1.387 . S
C355 C356 1.372 . S
C356 H334 0.950 . S
C356 C355 1.372 . S
C356 C357 1.379 . S
C357 H335 0.948 . S
C357 C352 1.364 . S
C357 C356 1.379 . S
C358 C327 1.383 . S
C358 C345 1.479 . S
C358 C359 1.398 . S
C359 C324 1.382 . S
C359 H336 0.951 . S
C359 C358 1.398 . S
C360 C361 1.384 . S
C360 H373 0.947 . S
C360 C395 1.382 . S
C361 C360 1.384 . S
C361 C362 1.378 . S
C362 C361 1.378 . S
C362 C363 1.378 . S
C362 H374 0.952 . S
C363 C362 1.378 . S
C363 H375 0.950 . S
C363 C394 1.383 . S
H364 C383 0.947 . S
H365 C384 0.946 . S
H366 C386 0.953 . S
H367 C387 0.945 . S
H368 C389 0.952 . S
H369 C390 0.949 . S
H370 C392 0.950 . S
H371 C393 0.948 . S
H372 C395 0.951 . S
H373 C360 0.947 . S
H374 C362 0.952 . S
H375 C363 0.950 . S
N376 C379 1.382 . S
N376 C381 1.363 . S
N377 C379 1.371 . S
N377 C380 1.372 . S
N378 C380 1.361 . S
N378 C381 1.377 . S
C379 N376 1.382 . S
C379 N377 1.371 . S
C379 C382 1.480 . S
C380 N377 1.372 . S
C380 N378 1.361 . S
C380 C388 1.457 . S
C381 N376 1.363 . S
C381 N378 1.377 . S
C381 C394 1.479 . S
C382 C379 1.480 . S
C382 C383 1.383 . S
C382 C387 1.385 . S
C383 H364 0.947 . S
C383 C382 1.383 . S
C383 C384 1.388 . S
C384 H365 0.946 . S
C384 C383 1.388 . S
C384 C385 1.384 . S
C385 C384 1.384 . S
C385 C386 1.377 . S
C386 H366 0.953 . S
C386 C385 1.377 . S
C386 C387 1.369 . S
C387 H367 0.945 . S
C387 C382 1.385 . S
C387 C386 1.369 . S
C388 C380 1.457 . S
C388 C389 1.372 . S
C388 C393 1.364 . S
C389 H368 0.952 . S
C389 C388 1.372 . S
C389 C390 1.389 . S
C390 H369 0.949 . S
C390 C389 1.389 . S
C390 C391 1.387 . S
C391 C390 1.387 . S
C391 C392 1.372 . S
C392 H370 0.950 . S
C392 C391 1.372 . S
C392 C393 1.379 . S
C393 H371 0.948 . S
C393 C388 1.364 . S
C393 C392 1.379 . S
C394 C363 1.383 . S
C394 C381 1.479 . S
C394 C395 1.398 . S
C395 C360 1.382 . S
C395 H372 0.951 . S
C395 C394 1.398 . S
C396 C397 1.384 . S
C396 H409 0.947 . S
C396 C431 1.382 . S
C397 C396 1.384 . S
C397 C398 1.378 . S
C398 C397 1.378 . S
C398 C399 1.378 . S
C398 H410 0.952 . S
C399 C398 1.378 . S
C399 H411 0.950 . S
C399 C430 1.383 . S
H400 C419 0.947 . S
H401 C420 0.946 . S
H402 C422 0.953 . S
H403 C423 0.945 . S
H404 C425 0.952 . S
H405 C426 0.949 . S
H406 C428 0.950 . S
H407 C429 0.948 . S
H408 C431 0.951 . S
H409 C396 0.947 . S
H410 C398 0.952 . S
H411 C399 0.950 . S
N412 C415 1.382 . S
N412 C417 1.363 . S
N413 C415 1.371 . S
N413 C416 1.372 . S
N414 C416 1.361 . S
N414 C417 1.377 . S
C415 N412 1.382 . S
C415 N413 1.371 . S
C415 C418 1.480 . S
C416 N413 1.372 . S
C416 N414 1.361 . S
C416 C424 1.457 . S
C417 N412 1.363 . S
C417 N414 1.377 . S
C417 C430 1.479 . S
C418 C415 1.480 . S
C418 C419 1.383 . S
C418 C423 1.385 . S
C419 H400 0.947 . S
C419 C418 1.383 . S
C419 C420 1.388 . S
C420 H401 0.946 . S
C420 C419 1.388 . S
C420 C421 1.384 . S
C421 C420 1.384 . S
C421 C422 1.377 . S
C422 H402 0.953 . S
C422 C421 1.377 . S
C422 C423 1.369 . S
C423 H403 0.945 . S
C423 C418 1.385 . S
C423 C422 1.369 . S
C424 C416 1.457 . S
C424 C425 1.372 . S
C424 C429 1.364 . S
C425 H404 0.952 . S
C425 C424 1.372 . S
C425 C426 1.389 . S
C426 H405 0.949 . S
C426 C425 1.389 . S
C426 C427 1.387 . S
C427 C426 1.387 . S
C427 C428 1.372 . S
C428 H406 0.950 . S
C428 C427 1.372 . S
C428 C429 1.379 . S
C429 H407 0.948 . S
C429 C424 1.364 . S
C429 C428 1.379 . S
C430 C399 1.383 . S
C430 C417 1.479 . S
C430 C431 1.398 . S
C431 C396 1.382 . S
C431 H408 0.951 . S
C431 C430 1.398 . S
C432 C433 1.384 . S
C432 H445 0.947 . S
C432 C467 1.382 . S
C433 C432 1.384 . S
C433 C434 1.378 . S
C434 C433 1.378 . S
C434 C435 1.378 . S
C434 H446 0.952 . S
C435 C434 1.378 . S
C435 H447 0.950 . S
C435 C466 1.383 . S
H436 C455 0.947 . S
H437 C456 0.946 . S
H438 C458 0.953 . S
H439 C459 0.945 . S
H440 C461 0.952 . S
H441 C462 0.949 . S
H442 C464 0.950 . S
H443 C465 0.948 . S
H444 C467 0.951 . S
H445 C432 0.947 . S
H446 C434 0.952 . S
H447 C435 0.950 . S
N448 C451 1.382 . S
N448 C453 1.363 . S
N449 C451 1.371 . S
N449 C452 1.372 . S
N450 C452 1.361 . S
N450 C453 1.377 . S
C451 N448 1.382 . S
C451 N449 1.371 . S
C451 C454 1.480 . S
C452 N449 1.372 . S
C452 N450 1.361 . S
C452 C460 1.457 . S
C453 N448 1.363 . S
C453 N450 1.377 . S
C453 C466 1.479 . S
C454 C451 1.480 . S
C454 C455 1.383 . S
C454 C459 1.385 . S
C455 H436 0.947 . S
C455 C454 1.383 . S
C455 C456 1.388 . S
C456 H437 0.946 . S
C456 C455 1.388 . S
C456 C457 1.384 . S
C457 C456 1.384 . S
C457 C458 1.377 . S
C458 H438 0.953 . S
C458 C457 1.377 . S
C458 C459 1.369 . S
C459 H439 0.945 . S
C459 C454 1.385 . S
C459 C458 1.369 . S
C460 C452 1.457 . S
C460 C461 1.372 . S
C460 C465 1.364 . S
C461 H440 0.952 . S
C461 C460 1.372 . S
C461 C462 1.389 . S
C462 H441 0.949 . S
C462 C461 1.389 . S
C462 C463 1.387 . S
C463 C462 1.387 . S
C463 C464 1.372 . S
C464 H442 0.950 . S
C464 C463 1.372 . S
C464 C465 1.379 . S
C465 H443 0.948 . S
C465 C460 1.364 . S
C465 C464 1.379 . S
C466 C435 1.383 . S
C466 C453 1.479 . S
C466 C467 1.398 . S
C467 C432 1.382 . S
C467 H444 0.951 . S
C467 C466 1.398 . S
C468 C469 1.384 . S
C468 H481 0.947 . S
C468 C503 1.382 . S
C469 C468 1.384 . S
C469 C470 1.378 . S
C470 C469 1.378 . S
C470 C471 1.378 . S
C470 H482 0.952 . S
C471 C470 1.378 . S
C471 H483 0.950 . S
C471 C502 1.383 . S
H472 C491 0.947 . S
H473 C492 0.946 . S
H474 C494 0.953 . S
H475 C495 0.945 . S
H476 C497 0.952 . S
H477 C498 0.949 . S
H478 C500 0.950 . S
H479 C501 0.948 . S
H480 C503 0.951 . S
H481 C468 0.947 . S
H482 C470 0.952 . S
H483 C471 0.950 . S
N484 C487 1.382 . S
N484 C489 1.363 . S
N485 C487 1.371 . S
N485 C488 1.372 . S
N486 C488 1.361 . S
N486 C489 1.377 . S
C487 N484 1.382 . S
C487 N485 1.371 . S
C487 C490 1.480 . S
C488 N485 1.372 . S
C488 N486 1.361 . S
C488 C496 1.457 . S
C489 N484 1.363 . S
C489 N486 1.377 . S
C489 C502 1.479 . S
C490 C487 1.480 . S
C490 C491 1.383 . S
C490 C495 1.385 . S
C491 H472 0.947 . S
C491 C490 1.383 . S
C491 C492 1.388 . S
C492 H473 0.946 . S
C492 C491 1.388 . S
C492 C493 1.384 . S
C493 C492 1.384 . S
C493 C494 1.377 . S
C494 H474 0.953 . S
C494 C493 1.377 . S
C494 C495 1.369 . S
C495 H475 0.945 . S
C495 C490 1.385 . S
C495 C494 1.369 . S
C496 C488 1.457 . S
C496 C497 1.372 . S
C496 C501 1.364 . S
C497 H476 0.952 . S
C497 C496 1.372 . S
C497 C498 1.389 . S
C498 H477 0.949 . S
C498 C497 1.389 . S
C498 C499 1.387 . S
C499 C498 1.387 . S
C499 C500 1.372 . S
C500 H478 0.950 . S
C500 C499 1.372 . S
C500 C501 1.379 . S
C501 H479 0.948 . S
C501 C496 1.364 . S
C501 C500 1.379 . S
C502 C471 1.383 . S
C502 C489 1.479 . S
C502 C503 1.398 . S
C503 C468 1.382 . S
C503 H480 0.951 . S
C503 C502 1.398 . S
C504 C505 1.384 . S
C504 H517 0.947 . S
C504 C539 1.382 . S
C505 C504 1.384 . S
C505 C506 1.378 . S
C506 C505 1.378 . S
C506 C507 1.378 . S
C506 H518 0.952 . S
C507 C506 1.378 . S
C507 H519 0.950 . S
C507 C538 1.383 . S
H508 C527 0.947 . S
H509 C528 0.946 . S
H510 C530 0.953 . S
H511 C531 0.945 . S
H512 C533 0.952 . S
H513 C534 0.949 . S
H514 C536 0.950 . S
H515 C537 0.948 . S
H516 C539 0.951 . S
H517 C504 0.947 . S
H518 C506 0.952 . S
H519 C507 0.950 . S
N520 C523 1.382 . S
N520 C525 1.363 . S
N521 C523 1.371 . S
N521 C524 1.372 . S
N522 C524 1.361 . S
N522 C525 1.377 . S
C523 N520 1.382 . S
C523 N521 1.371 . S
C523 C526 1.480 . S
C524 N521 1.372 . S
C524 N522 1.361 . S
C524 C532 1.457 . S
C525 N520 1.363 . S
C525 N522 1.377 . S
C525 C538 1.479 . S
C526 C523 1.480 . S
C526 C527 1.383 . S
C526 C531 1.385 . S
C527 H508 0.947 . S
C527 C526 1.383 . S
C527 C528 1.388 . S
C528 H509 0.946 . S
C528 C527 1.388 . S
C528 C529 1.384 . S
C529 C528 1.384 . S
C529 C530 1.377 . S
C530 H510 0.953 . S
C530 C529 1.377 . S
C530 C531 1.369 . S
C531 H511 0.945 . S
C531 C526 1.385 . S
C531 C530 1.369 . S
C532 C524 1.457 . S
C532 C533 1.372 . S
C532 C537 1.364 . S
C533 H512 0.952 . S
C533 C532 1.372 . S
C533 C534 1.389 . S
C534 H513 0.949 . S
C534 C533 1.389 . S
C534 C535 1.387 . S
C535 C534 1.387 . S
C535 C536 1.372 . S
C536 H514 0.950 . S
C536 C535 1.372 . S
C536 C537 1.379 . S
C537 H515 0.948 . S
C537 C532 1.364 . S
C537 C536 1.379 . S
C538 C507 1.383 . S
C538 C525 1.479 . S
C538 C539 1.398 . S
C539 C504 1.382 . S
C539 H516 0.951 . S
C539 C538 1.398 . S
C540 C541 1.384 . S
C540 H553 0.947 . S
C540 C575 1.382 . S
C541 C540 1.384 . S
C541 C542 1.378 . S
C542 C541 1.378 . S
C542 C543 1.377 . S
C542 H554 0.953 1_556 S
C543 C542 1.377 . S
C543 H555 0.950 . S
C543 C574 1.383 . S
H544 C563 0.947 . S
H545 C564 0.946 . S
H546 C566 0.953 . S
H547 C567 0.945 . S
H548 C569 0.952 . S
H549 C570 0.949 . S
H550 C572 0.950 . S
H551 C573 0.948 . S
H552 C575 0.951 . S
H553 C540 0.947 . S
H554 C542 0.953 1_554 S
H555 C543 0.950 . S
N556 C559 1.382 . S
N556 C561 1.363 . S
N557 C559 1.371 . S
N557 C560 1.372 . S
N558 C560 1.361 . S
N558 C561 1.377 . S
C559 N556 1.382 . S
C559 N557 1.371 . S
C559 C562 1.480 . S
C560 N557 1.372 . S
C560 N558 1.361 . S
C560 C568 1.457 . S
C561 N556 1.363 . S
C561 N558 1.377 . S
C561 C574 1.479 . S
C562 C559 1.480 . S
C562 C563 1.383 . S
C562 C567 1.385 . S
C563 H544 0.947 . S
C563 C562 1.383 . S
C563 C564 1.388 . S
C564 H545 0.946 . S
C564 C563 1.388 . S
C564 C565 1.384 . S
C565 C564 1.384 . S
C565 C566 1.377 . S
C566 H546 0.953 . S
C566 C565 1.377 . S
C566 C567 1.369 . S
C567 H547 0.945 . S
C567 C562 1.385 . S
C567 C566 1.369 . S
C568 C560 1.457 . S
C568 C569 1.372 . S
C568 C573 1.364 . S
C569 H548 0.952 . S
C569 C568 1.372 . S
C569 C570 1.389 . S
C570 H549 0.949 . S
C570 C569 1.389 . S
C570 C571 1.387 . S
C571 C570 1.387 . S
C571 C572 1.372 . S
C572 H550 0.950 . S
C572 C571 1.372 . S
C572 C573 1.379 . S
C573 H551 0.948 . S
C573 C568 1.364 . S
C573 C572 1.379 . S
C574 C543 1.383 . S
C574 C561 1.479 . S
C574 C575 1.398 . S
C575 C540 1.382 . S
C575 H552 0.951 . S
C575 C574 1.398 . S
O576 Cd577 2.223 . S
O576 C584 1.315 . S
Cd577 O576 2.223 . S
Cd577 O580 2.297 . S
Cd577 O581 2.439 . S
Cd577 O587 2.240 . S
Cd578 O579 2.240 . S
Cd578 O586 2.223 . S
Cd578 O588 2.297 . S
Cd578 O589 2.439 . S
O579 Cd578 2.240 . S
O579 C584 1.279 . S
O580 Cd577 2.297 . S
O580 C582 1.247 . S
O581 Cd577 2.439 . S
O581 C582 1.208 . S
C582 O580 1.247 . S
C582 O581 1.208 . S
C583 O588 1.247 . S
C583 O589 1.208 . S
C584 O576 1.315 . S
C584 O579 1.279 . S
C585 O586 1.315 . S
C585 O587 1.279 . S
O586 Cd578 2.223 . S
O586 C585 1.315 . S
O587 Cd577 2.240 . S
O587 C585 1.279 . S
O588 Cd578 2.297 . S
O588 C583 1.247 . S
O589 Cd578 2.439 . S
O589 C583 1.208 . S
O590 Cd591 2.223 . S
O590 C598 1.315 . S
Cd591 O590 2.223 . S
Cd591 O594 2.297 . S
Cd591 O595 2.439 . S
Cd591 O601 2.240 . S
Cd592 O593 2.240 . S
Cd592 O600 2.223 . S
Cd592 O602 2.297 . S
Cd592 O603 2.439 . S
O593 Cd592 2.240 . S
O593 C598 1.279 . S
O594 Cd591 2.297 . S
O594 C596 1.247 . S
O595 Cd591 2.439 . S
O595 C596 1.208 . S
C596 O594 1.247 . S
C596 O595 1.208 . S
C597 O602 1.247 . S
C597 O603 1.208 . S
C598 O590 1.315 . S
C598 O593 1.279 . S
C599 O600 1.315 . S
C599 O601 1.279 . S
O600 Cd592 2.223 . S
O600 C599 1.315 . S
O601 Cd591 2.240 . S
O601 C599 1.279 . S
O602 Cd592 2.297 . S
O602 C597 1.247 . S
O603 Cd592 2.439 . S
O603 C597 1.208 . S
O604 Cd605 2.223 1_556 S
O604 C612 1.315 . S
Cd605 O604 2.223 1_554 S
Cd605 O608 2.297 . S
Cd605 O609 2.439 . S
Cd605 O615 2.240 . S
Cd606 O607 2.240 . S
Cd606 O614 2.223 . S
Cd606 O616 2.297 1_556 S
Cd606 O617 2.439 1_556 S
O607 Cd606 2.240 . S
O607 C612 1.279 . S
O608 Cd605 2.297 . S
O608 C610 1.247 . S
O609 Cd605 2.439 . S
O609 C610 1.208 . S
C610 O608 1.247 . S
C610 O609 1.208 . S
C611 O616 1.247 . S
C611 O617 1.208 . S
C612 O604 1.315 . S
C612 O607 1.279 . S
C613 O614 1.315 . S
C613 O615 1.279 1_556 S
O614 Cd606 2.223 . S
O614 C613 1.315 . S
O615 Cd605 2.240 . S
O615 C613 1.279 1_554 S
O616 Cd606 2.297 1_554 S
O616 C611 1.247 . S
O617 Cd606 2.439 1_554 S
O617 C611 1.208 . S
O618 Cd619 2.223 . S
O618 C626 1.315 . S
Cd619 O618 2.223 . S
Cd619 O622 2.297 . S
Cd619 O623 2.439 . S
Cd619 O629 2.240 . S
Cd620 O621 2.240 . S
Cd620 O628 2.223 . S
Cd620 O630 2.297 . S
Cd620 O631 2.439 . S
O621 Cd620 2.240 . S
O621 C626 1.279 . S
O622 Cd619 2.297 . S
O622 C624 1.247 . S
O623 Cd619 2.439 . S
O623 C624 1.208 . S
C624 O622 1.247 . S
C624 O623 1.208 . S
C625 O630 1.247 . S
C625 O631 1.208 . S
C626 O618 1.315 . S
C626 O621 1.279 . S
C627 O628 1.315 . S
C627 O629 1.279 . S
O628 Cd620 2.223 . S
O628 C627 1.315 . S
O629 Cd619 2.240 . S
O629 C627 1.279 . S
O630 Cd620 2.297 . S
O630 C625 1.247 . S
O631 Cd620 2.439 . S
O631 C625 1.208 . S
O632 Cd633 2.223 . S
O632 C640 1.315 . S
Cd633 O632 2.223 . S
Cd633 O636 2.297 . S
Cd633 O637 2.439 . S
Cd633 O643 2.240 . S
Cd634 O635 2.240 . S
Cd634 O642 2.223 . S
Cd634 O644 2.297 . S
Cd634 O645 2.439 . S
O635 Cd634 2.240 . S
O635 C640 1.279 . S
O636 Cd633 2.297 . S
O636 C638 1.247 . S
O637 Cd633 2.439 . S
O637 C638 1.208 . S
C638 O636 1.247 . S
C638 O637 1.208 . S
C639 O644 1.247 . S
C639 O645 1.208 . S
C640 O632 1.315 . S
C640 O635 1.279 . S
C641 O642 1.315 . S
C641 O643 1.279 . S
O642 Cd634 2.223 . S
O642 C641 1.315 . S
O643 Cd633 2.240 . S
O643 C641 1.279 . S
O644 Cd634 2.297 . S
O644 C639 1.247 . S
O645 Cd634 2.439 . S
O645 C639 1.208 . S
O646 Cd647 2.223 . S
O646 C654 1.315 . S
Cd647 O646 2.223 . S
Cd647 O650 2.297 . S
Cd647 O651 2.439 . S
Cd647 O657 2.240 . S
Cd648 O649 2.240 . S
Cd648 O656 2.223 . S
Cd648 O658 2.297 . S
Cd648 O659 2.439 . S
O649 Cd648 2.240 . S
O649 C654 1.279 . S
O650 Cd647 2.297 . S
O650 C652 1.247 . S
O651 Cd647 2.439 . S
O651 C652 1.208 . S
C652 O650 1.247 . S
C652 O651 1.208 . S
C653 O658 1.247 . S
C653 O659 1.208 . S
C654 O646 1.315 . S
C654 O649 1.279 . S
C655 O656 1.315 . S
C655 O657 1.279 . S
O656 Cd648 2.223 . S
O656 C655 1.315 . S
O657 Cd647 2.240 . S
O657 C655 1.279 . S
O658 Cd648 2.297 . S
O658 C653 1.247 . S
O659 Cd648 2.439 . S
O659 C653 1.208 . S
O660 Cd661 2.223 . S
O660 C668 1.315 . S
Cd661 O660 2.223 . S
Cd661 O664 2.297 . S
Cd661 O665 2.439 . S
Cd661 O671 2.240 . S
Cd662 O663 2.240 . S
Cd662 O670 2.223 . S
Cd662 O672 2.297 . S
Cd662 O673 2.439 . S
O663 Cd662 2.240 . S
O663 C668 1.279 . S
O664 Cd661 2.297 . S
O664 C666 1.247 . S
O665 Cd661 2.439 . S
O665 C666 1.208 . S
C666 O664 1.247 . S
C666 O665 1.208 . S
C667 O672 1.247 . S
C667 O673 1.208 . S
C668 O660 1.315 . S
C668 O663 1.279 . S
C669 O670 1.315 . S
C669 O671 1.279 . S
O670 Cd662 2.223 . S
O670 C669 1.315 . S
O671 Cd661 2.240 . S
O671 C669 1.279 . S
O672 Cd662 2.297 . S
O672 C667 1.247 . S
O673 Cd662 2.439 . S
O673 C667 1.208 . S
O674 Cd675 2.223 1_545 S
O674 C682 1.315 . S
Cd675 O674 2.223 1_565 S
Cd675 O678 2.297 . S
Cd675 O679 2.439 . S
Cd675 O685 2.240 1_565 S
Cd676 O677 2.240 . S
Cd676 O684 2.223 . S
Cd676 O686 2.297 . S
Cd676 O687 2.439 1_545 S
O677 Cd676 2.240 . S
O677 C682 1.279 . S
O678 Cd675 2.297 . S
O678 C680 1.247 . S
O679 Cd675 2.439 . S
O679 C680 1.208 . S
C680 O678 1.247 . S
C680 O679 1.208 . S
C681 O686 1.247 1_565 S
C681 O687 1.208 . S
C682 O674 1.315 . S
C682 O677 1.279 . S
C683 O684 1.315 . S
C683 O685 1.279 . S
O684 Cd676 2.223 . S
O684 C683 1.315 . S
O685 Cd675 2.240 1_545 S
O685 C683 1.279 . S
O686 Cd676 2.297 . S
O686 C681 1.247 1_545 S
O687 Cd676 2.439 1_565 S
O687 C681 1.208 . S
O688 Cd689 2.223 . S
O688 C696 1.315 . S
Cd689 O688 2.223 . S
Cd689 O692 2.297 1_655 S
Cd689 O693 2.439 1_655 S
Cd689 O699 2.240 . S
Cd690 O691 2.240 . S
Cd690 O698 2.223 1_455 S
Cd690 O700 2.297 . S
Cd690 O701 2.439 . S
O691 Cd690 2.240 . S
O691 C696 1.279 1_455 S
O692 Cd689 2.297 1_455 S
O692 C694 1.247 . S
O693 Cd689 2.439 1_455 S
O693 C694 1.208 . S
C694 O692 1.247 . S
C694 O693 1.208 . S
C695 O700 1.247 . S
C695 O701 1.208 . S
C696 O688 1.315 . S
C696 O691 1.279 1_655 S
C697 O698 1.315 . S
C697 O699 1.279 . S
O698 Cd690 2.223 1_655 S
O698 C697 1.315 . S
O699 Cd689 2.240 . S
O699 C697 1.279 . S
O700 Cd690 2.297 . S
O700 C695 1.247 . S
O701 Cd690 2.439 . S
O701 C695 1.208 . S
O702 Cd703 2.223 . S
O702 C710 1.315 . S
Cd703 O702 2.223 . S
Cd703 O706 2.297 . S
Cd703 O707 2.439 . S
Cd703 O713 2.240 . S
Cd704 O705 2.240 . S
Cd704 O712 2.223 . S
Cd704 O714 2.297 . S
Cd704 O715 2.439 . S
O705 Cd704 2.240 . S
O705 C710 1.279 . S
O706 Cd703 2.297 . S
O706 C708 1.247 . S
O707 Cd703 2.439 . S
O707 C708 1.208 . S
C708 O706 1.247 . S
C708 O707 1.208 . S
C709 O714 1.247 . S
C709 O715 1.208 . S
C710 O702 1.315 . S
C710 O705 1.279 . S
C711 O712 1.315 . S
C711 O713 1.279 . S
O712 Cd704 2.223 . S
O712 C711 1.315 . S
O713 Cd703 2.240 . S
O713 C711 1.279 . S
O714 Cd704 2.297 . S
O714 C709 1.247 . S
O715 Cd704 2.439 . S
O715 C709 1.208 . S
O716 Cd717 2.223 1_655 S
O716 C724 1.315 . S
Cd717 O716 2.223 1_455 S
Cd717 O720 2.297 . S
Cd717 O721 2.439 . S
Cd717 O727 2.240 . S
Cd718 O719 2.240 . S
Cd718 O726 2.223 . S
Cd718 O728 2.297 1_655 S
Cd718 O729 2.439 1_655 S
O719 Cd718 2.240 . S
O719 C724 1.279 . S
O720 Cd717 2.297 . S
O720 C722 1.247 . S
O721 Cd717 2.439 . S
O721 C722 1.208 . S
C722 O720 1.247 . S
C722 O721 1.208 . S
C723 O728 1.247 . S
C723 O729 1.208 . S
C724 O716 1.315 . S
C724 O719 1.279 . S
C725 O726 1.315 . S
C725 O727 1.279 1_655 S
O726 Cd718 2.223 . S
O726 C725 1.315 . S
O727 Cd717 2.240 . S
O727 C725 1.279 1_455 S
O728 Cd718 2.297 1_455 S
O728 C723 1.247 . S
O729 Cd718 2.439 1_455 S
O729 C723 1.208 . S
O730 Cd731 2.223 . S
O730 C738 1.315 . S
Cd731 O730 2.223 . S
Cd731 O734 2.297 . S
Cd731 O735 2.439 . S
Cd731 O741 2.240 . S
Cd732 O733 2.240 . S
Cd732 O740 2.223 . S
Cd732 O742 2.297 . S
Cd732 O743 2.439 . S
O733 Cd732 2.240 . S
O733 C738 1.279 . S
O734 Cd731 2.297 . S
O734 C736 1.247 . S
O735 Cd731 2.439 . S
O735 C736 1.208 . S
C736 O734 1.247 . S
C736 O735 1.208 . S
C737 O742 1.247 . S
C737 O743 1.208 . S
C738 O730 1.315 . S
C738 O733 1.279 . S
C739 O740 1.315 . S
C739 O741 1.279 . S
O740 Cd732 2.223 . S
O740 C739 1.315 . S
O741 Cd731 2.240 . S
O741 C739 1.279 . S
O742 Cd732 2.297 . S
O742 C737 1.247 . S
O743 Cd732 2.439 . S
O743 C737 1.208 . S
H744 C750 0.930 . S
H745 C753 0.930 . S
H746 C754 0.930 . S
H747 C755 0.930 . S
H748 C758 0.930 1_554 S
H749 C759 0.930 . S
C750 H744 0.930 . S
C750 C751 1.355 . S
C750 C752 1.415 . S
C751 C750 1.355 . S
C751 C753 1.419 . S
C752 C750 1.415 . S
C752 C757 1.425 . S
C752 C759 1.409 . S
C753 H745 0.930 . S
C753 C751 1.419 . S
C753 C754 1.362 . S
C754 H746 0.930 . S
C754 C753 1.362 . S
C754 C757 1.409 . S
C755 H747 0.930 . S
C755 C756 1.355 . S
C755 C757 1.415 . S
C756 C755 1.355 . S
C756 C758 1.419 . S
C757 C752 1.425 . S
C757 C754 1.409 . S
C757 C755 1.415 . S
C758 H748 0.930 1_556 S
C758 C756 1.419 . S
C758 C759 1.362 . S
C759 H749 0.930 . S
C759 C752 1.409 . S
C759 C758 1.362 . S
H760 C766 0.930 . S
H761 C769 0.930 . S
H762 C770 0.930 1_655 S
H763 C771 0.930 . S
H764 C774 0.930 . S
H765 C775 0.930 . S
C766 H760 0.930 . S
C766 C767 1.355 1_455 S
C766 C768 1.415 . S
C767 C766 1.355 1_655 S
C767 C769 1.419 . S
C768 C766 1.415 . S
C768 C773 1.425 . S
C768 C775 1.409 . S
C769 H761 0.930 . S
C769 C767 1.419 . S
C769 C770 1.362 1_655 S
C770 H762 0.930 1_455 S
C770 C769 1.362 1_455 S
C770 C773 1.409 . S
C771 H763 0.930 . S
C771 C772 1.355 . S
C771 C773 1.415 . S
C772 C771 1.355 . S
C772 C774 1.419 . S
C773 C768 1.425 . S
C773 C770 1.409 . S
C773 C771 1.415 . S
C774 H764 0.930 . S
C774 C772 1.419 . S
C774 C775 1.362 . S
C775 H765 0.930 . S
C775 C768 1.409 . S
C775 C774 1.362 . S
H776 C782 0.930 . S
H777 C785 0.930 . S
H778 C786 0.930 . S
H779 C787 0.930 . S
H780 C790 0.930 . S
H781 C791 0.930 . S
C782 H776 0.930 . S
C782 C783 1.355 . S
C782 C784 1.415 . S
C783 C782 1.355 . S
C783 C785 1.419 . S
C784 C782 1.415 . S
C784 C789 1.425 . S
C784 C791 1.409 . S
C785 H777 0.930 . S
C785 C783 1.419 . S
C785 C786 1.362 . S
C786 H778 0.930 . S
C786 C785 1.362 . S
C786 C789 1.409 . S
C787 H779 0.930 . S
C787 C788 1.355 . S
C787 C789 1.415 . S
C788 C787 1.355 . S
C788 C790 1.419 . S
C789 C784 1.425 . S
C789 C786 1.409 . S
C789 C787 1.415 . S
C790 H780 0.930 . S
C790 C788 1.419 . S
C790 C791 1.362 . S
C791 H781 0.930 . S
C791 C784 1.409 . S
C791 C790 1.362 . S
H792 C798 0.930 1_455 S
H793 C801 0.930 . S
H794 C802 0.930 . S
H795 C803 0.930 . S
H796 C806 0.930 . S
H797 C807 0.930 . S
C798 H792 0.930 1_655 S
C798 C799 1.355 1_545 S
C798 C800 1.415 . S
C799 C798 1.355 1_565 S
C799 C801 1.419 . S
C800 C798 1.415 . S
C800 C805 1.425 1_545 S
C800 C807 1.409 . S
C801 H793 0.930 . S
C801 C799 1.419 . S
C801 C802 1.362 . S
C802 H794 0.930 . S
C802 C801 1.362 . S
C802 C805 1.409 . S
C803 H795 0.930 . S
C803 C804 1.355 1_565 S
C803 C805 1.415 . S
C804 C803 1.355 1_545 S
C804 C806 1.419 . S
C805 C800 1.425 1_565 S
C805 C802 1.409 . S
C805 C803 1.415 . S
C806 H796 0.930 . S
C806 C804 1.419 . S
C806 C807 1.362 . S
C807 H797 0.930 . S
C807 C800 1.409 . S
C807 C806 1.362 . S
H808 C814 0.930 . S
H809 C817 0.930 . S
H810 C818 0.930 . S
H811 C819 0.930 . S
H812 C822 0.930 . S
H813 C823 0.930 . S
C814 H808 0.930 . S
C814 C815 1.355 . S
C814 C816 1.415 . S
C815 C814 1.355 . S
C815 C817 1.419 . S
C816 C814 1.415 . S
C816 C821 1.425 . S
C816 C823 1.409 . S
C817 H809 0.930 . S
C817 C815 1.419 . S
C817 C818 1.362 . S
C818 H810 0.930 . S
C818 C817 1.362 . S
C818 C821 1.409 . S
C819 H811 0.930 . S
C819 C820 1.355 . S
C819 C821 1.415 . S
C820 C819 1.355 . S
C820 C822 1.419 . S
C821 C816 1.425 . S
C821 C818 1.409 . S
C821 C819 1.415 . S
C822 H812 0.930 . S
C822 C820 1.419 . S
C822 C823 1.362 . S
C823 H813 0.930 . S
C823 C816 1.409 . S
C823 C822 1.362 . S
H824 C830 0.930 . S
H825 C833 0.930 . S
H826 C834 0.930 . S
H827 C835 0.930 . S
H828 C838 0.930 . S
H829 C839 0.930 . S
C830 H824 0.930 . S
C830 C831 1.355 . S
C830 C832 1.415 . S
C831 C830 1.355 . S
C831 C833 1.419 . S
C832 C830 1.415 . S
C832 C837 1.425 . S
C832 C839 1.409 . S
C833 H825 0.930 . S
C833 C831 1.419 . S
C833 C834 1.362 . S
C834 H826 0.930 . S
C834 C833 1.362 . S
C834 C837 1.409 . S
C835 H827 0.930 . S
C835 C836 1.355 . S
C835 C837 1.415 . S
C836 C835 1.355 . S
C836 C838 1.419 . S
C837 C832 1.425 . S
C837 C834 1.409 . S
C837 C835 1.415 . S
C838 H828 0.930 . S
C838 C836 1.419 . S
C838 C839 1.362 . S
C839 H829 0.930 . S
C839 C832 1.409 . S
C839 C838 1.362 . S
H840 C846 0.930 . S
H841 C849 0.930 . S
H842 C850 0.930 . S
H843 C851 0.930 . S
H844 C854 0.930 . S
H845 C855 0.930 . S
C846 H840 0.930 . S
C846 C847 1.355 . S
C846 C848 1.415 . S
C847 C846 1.355 . S
C847 C849 1.419 . S
C848 C846 1.415 . S
C848 C853 1.425 . S
C848 C855 1.409 . S
C849 H841 0.930 . S
C849 C847 1.419 . S
C849 C850 1.362 . S
C850 H842 0.930 . S
C850 C849 1.362 . S
C850 C853 1.409 . S
C851 H843 0.930 . S
C851 C852 1.355 . S
C851 C853 1.415 . S
C852 C851 1.355 . S
C852 C854 1.419 . S
C853 C848 1.425 . S
C853 C850 1.409 . S
C853 C851 1.415 . S
C854 H844 0.930 . S
C854 C852 1.419 . S
C854 C855 1.362 . S
C855 H845 0.930 . S
C855 C848 1.409 . S
C855 C854 1.362 . S
H856 C862 0.930 . S
H857 C865 0.930 . S
H858 C866 0.930 . S
H859 C867 0.930 . S
H860 C870 0.930 . S
H861 C871 0.930 . S
C862 H856 0.930 . S
C862 C863 1.355 . S
C862 C864 1.415 . S
C863 C862 1.355 . S
C863 C865 1.419 . S
C864 C862 1.415 . S
C864 C869 1.425 . S
C864 C871 1.409 . S
C865 H857 0.930 . S
C865 C863 1.419 . S
C865 C866 1.362 . S
C866 H858 0.930 . S
C866 C865 1.362 . S
C866 C869 1.409 . S
C867 H859 0.930 . S
C867 C868 1.355 . S
C867 C869 1.415 . S
C868 C867 1.355 . S
C868 C870 1.419 . S
C869 C864 1.425 . S
C869 C866 1.409 . S
C869 C867 1.415 . S
C870 H860 0.930 . S
C870 C868 1.419 . S
C870 C871 1.362 . S
C871 H861 0.930 . S
C871 C864 1.409 . S
C871 C870 1.362 . S
H872 C878 0.930 . S
H873 C881 0.930 . S
H874 C882 0.930 . S
H875 C883 0.930 . S
H876 C886 0.930 . S
H877 C887 0.930 . S
C878 H872 0.930 . S
C878 C879 1.355 . S
C878 C880 1.415 . S
C879 C878 1.355 . S
C879 C881 1.419 . S
C880 C878 1.415 . S
C880 C885 1.425 . S
C880 C887 1.409 . S
C881 H873 0.930 . S
C881 C879 1.419 . S
C881 C882 1.362 . S
C882 H874 0.930 . S
C882 C881 1.362 . S
C882 C885 1.409 . S
C883 H875 0.930 . S
C883 C884 1.355 . S
C883 C885 1.415 . S
C884 C883 1.355 . S
C884 C886 1.419 . S
C885 C880 1.425 . S
C885 C882 1.409 . S
C885 C883 1.415 . S
C886 H876 0.930 . S
C886 C884 1.419 . S
C886 C887 1.362 . S
C887 H877 0.930 . S
C887 C880 1.409 . S
C887 C886 1.362 . S
H888 C894 0.930 . S
H889 C897 0.930 . S
H890 C898 0.930 . S
H891 C899 0.930 . S
H892 C902 0.930 . S
H893 C903 0.930 . S
C894 H888 0.930 . S
C894 C895 1.355 . S
C894 C896 1.415 . S
C895 C894 1.355 . S
C895 C897 1.419 . S
C896 C894 1.415 . S
C896 C901 1.425 . S
C896 C903 1.409 . S
C897 H889 0.930 . S
C897 C895 1.419 . S
C897 C898 1.362 . S
C898 H890 0.930 . S
C898 C897 1.362 . S
C898 C901 1.409 . S
C899 H891 0.930 . S
C899 C900 1.355 . S
C899 C901 1.415 . S
C900 C899 1.355 . S
C900 C902 1.419 . S
C901 C896 1.425 . S
C901 C898 1.409 . S
C901 C899 1.415 . S
C902 H892 0.930 . S
C902 C900 1.419 . S
C902 C903 1.362 . S
C903 H893 0.930 . S
C903 C896 1.409 . S
C903 C902 1.362 . S
H904 C910 0.930 . S
H905 C913 0.930 . S
H906 C914 0.930 . S
H907 C915 0.930 . S
H908 C918 0.930 . S
H909 C919 0.930 . S
C910 H904 0.930 . S
C910 C911 1.355 . S
C910 C912 1.415 . S
C911 C910 1.355 . S
C911 C913 1.419 . S
C912 C910 1.415 . S
C912 C917 1.425 . S
C912 C919 1.409 . S
C913 H905 0.930 . S
C913 C911 1.419 . S
C913 C914 1.362 . S
C914 H906 0.930 . S
C914 C913 1.362 . S
C914 C917 1.409 . S
C915 H907 0.930 . S
C915 C916 1.355 . S
C915 C917 1.415 . S
C916 C915 1.355 . S
C916 C918 1.419 . S
C917 C912 1.425 . S
C917 C914 1.409 . S
C917 C915 1.415 . S
C918 H908 0.930 . S
C918 C916 1.419 . S
C918 C919 1.362 . S
C919 H909 0.930 . S
C919 C912 1.409 . S
C919 C918 1.362 . S
H920 C926 0.930 . S
H921 C929 0.930 . S
H922 C930 0.930 . S
H923 C931 0.930 . S
H924 C934 0.930 . S
H925 C935 0.930 . S
C926 H920 0.930 . S
C926 C927 1.355 . S
C926 C928 1.415 . S
C927 C926 1.355 . S
C927 C929 1.419 . S
C928 C926 1.415 . S
C928 C933 1.425 . S
C928 C935 1.409 . S
C929 H921 0.930 . S
C929 C927 1.419 . S
C929 C930 1.362 . S
C930 H922 0.930 . S
C930 C929 1.362 . S
C930 C933 1.409 . S
C931 H923 0.930 . S
C931 C932 1.355 . S
C931 C933 1.415 . S
C932 C931 1.355 . S
C932 C934 1.419 . S
C933 C928 1.425 . S
C933 C930 1.409 . S
C933 C931 1.415 . S
C934 H924 0.930 . S
C934 C932 1.419 . S
C934 C935 1.362 . S
C935 H925 0.930 . S
C935 C928 1.409 . S
C935 C934 1.362 . S
H936 C942 0.930 . S
H937 C945 0.930 . S
H938 C946 0.930 . S
H939 C947 0.930 . S
H940 C950 0.930 . S
H941 C951 0.930 . S
C942 H936 0.930 . S
C942 C943 1.355 . S
C942 C944 1.415 . S
C943 C942 1.355 . S
C943 C945 1.419 . S
C944 C942 1.415 . S
C944 C949 1.425 . S
C944 C951 1.409 . S
C945 H937 0.930 . S
C945 C943 1.419 . S
C945 C946 1.362 . S
C946 H938 0.930 . S
C946 C945 1.362 . S
C946 C949 1.409 . S
C947 H939 0.930 . S
C947 C948 1.355 . S
C947 C949 1.415 . S
C948 C947 1.355 . S
C948 C950 1.419 . S
C949 C944 1.425 . S
C949 C946 1.409 . S
C949 C947 1.415 . S
C950 H940 0.930 . S
C950 C948 1.419 . S
C950 C951 1.362 . S
C951 H941 0.930 . S
C951 C944 1.409 . S
C951 C950 1.362 . S
H952 C958 0.930 . S
H953 C961 0.930 . S
H954 C962 0.930 . S
H955 C963 0.930 . S
H956 C966 0.930 . S
H957 C967 0.930 . S
C958 H952 0.930 . S
C958 C959 1.355 . S
C958 C960 1.415 . S
C959 C958 1.355 . S
C959 C961 1.419 . S
C960 C958 1.415 . S
C960 C965 1.425 . S
C960 C967 1.409 . S
C961 H953 0.930 . S
C961 C959 1.419 . S
C961 C962 1.362 . S
C962 H954 0.930 . S
C962 C961 1.362 . S
C962 C965 1.409 . S
C963 H955 0.930 . S
C963 C964 1.355 . S
C963 C965 1.415 . S
C964 C963 1.355 . S
C964 C966 1.419 . S
C965 C960 1.425 . S
C965 C962 1.409 . S
C965 C963 1.415 . S
C966 H956 0.930 . S
C966 C964 1.419 . S
C966 C967 1.362 . S
C967 H957 0.930 . S
C967 C960 1.409 . S
C967 C966 1.362 . S
H968 C974 0.930 . S
H969 C977 0.930 . S
H970 C978 0.930 . S
H971 C979 0.930 . S
H972 C982 0.930 . S
H973 C983 0.930 . S
C974 H968 0.930 . S
C974 C975 1.355 . S
C974 C976 1.415 . S
C975 C974 1.355 . S
C975 C977 1.419 . S
C976 C974 1.415 . S
C976 C981 1.425 . S
C976 C983 1.409 . S
C977 H969 0.930 . S
C977 C975 1.419 . S
C977 C978 1.362 . S
C978 H970 0.930 . S
C978 C977 1.362 . S
C978 C981 1.409 . S
C979 H971 0.930 . S
C979 C980 1.355 . S
C979 C981 1.415 . S
C980 C979 1.355 . S
C980 C982 1.419 . S
C981 C976 1.425 . S
C981 C978 1.409 . S
C981 C979 1.415 . S
C982 H972 0.930 . S
C982 C980 1.419 . S
C982 C983 1.362 . S
C983 H973 0.930 . S
C983 C976 1.409 . S
C983 C982 1.362 . S
H984 C990 0.930 . S
H985 C993 0.930 . S
H986 C994 0.930 . S
H987 C995 0.930 . S
H988 C998 0.930 . S
H989 C999 0.930 . S
C990 H984 0.930 . S
C990 C991 1.355 . S
C990 C992 1.415 . S
C991 C990 1.355 . S
C991 C993 1.419 . S
C992 C990 1.415 . S
C992 C997 1.425 . S
C992 C999 1.409 . S
C993 H985 0.930 . S
C993 C991 1.419 . S
C993 C994 1.362 . S
C994 H986 0.930 . S
C994 C993 1.362 . S
C994 C997 1.409 . S
C995 H987 0.930 . S
C995 C996 1.355 . S
C995 C997 1.415 . S
C996 C995 1.355 . S
C996 C998 1.419 . S
C997 C992 1.425 . S
C997 C994 1.409 . S
C997 C995 1.415 . S
C998 H988 0.930 . S
C998 C996 1.419 . S
C998 C999 1.362 . S
C999 H989 0.930 . S
C999 C992 1.409 . S
C999 C998 1.362 . S
H1000 C1006 0.930 . S
H1001 C1009 0.930 . S
H1002 C1010 0.930 . S
H1003 C1011 0.930 1_545 S
H1004 C1014 0.930 . S
H1005 C1015 0.930 . S
C1006 H1000 0.930 . S
C1006 C1007 1.355 . S
C1006 C1008 1.415 . S
C1007 C1006 1.355 . S
C1007 C1009 1.419 . S
C1008 C1006 1.415 . S
C1008 C1013 1.425 . S
C1008 C1015 1.409 . S
C1009 H1001 0.930 . S
C1009 C1007 1.419 . S
C1009 C1010 1.362 . S
C1010 H1002 0.930 . S
C1010 C1009 1.362 . S
C1010 C1013 1.409 . S
C1011 H1003 0.930 1_565 S
C1011 C1012 1.355 . S
C1011 C1013 1.415 . S
C1012 C1011 1.355 . S
C1012 C1014 1.419 . S
C1013 C1008 1.425 . S
C1013 C1010 1.409 . S
C1013 C1011 1.415 . S
C1014 H1004 0.930 . S
C1014 C1012 1.419 . S
C1014 C1015 1.362 . S
C1015 H1005 0.930 . S
C1015 C1008 1.409 . S
C1015 C1014 1.362 . S
H1016 C1022 0.930 . S
H1017 C1025 0.930 . S
H1018 C1026 0.930 . S
H1019 C1027 0.930 . S
H1020 C1030 0.930 . S
H1021 C1031 0.930 . S
C1022 H1016 0.930 . S
C1022 C1023 1.355 . S
C1022 C1024 1.415 . S
C1023 C1022 1.355 . S
C1023 C1025 1.419 . S
C1024 C1022 1.415 . S
C1024 C1029 1.425 . S
C1024 C1031 1.409 . S
C1025 H1017 0.930 . S
C1025 C1023 1.419 . S
C1025 C1026 1.362 . S
C1026 H1018 0.930 . S
C1026 C1025 1.362 . S
C1026 C1029 1.409 . S
C1027 H1019 0.930 . S
C1027 C1028 1.355 . S
C1027 C1029 1.415 . S
C1028 C1027 1.355 . S
C1028 C1030 1.419 . S
C1029 C1024 1.425 . S
C1029 C1026 1.409 . S
C1029 C1027 1.415 . S
C1030 H1020 0.930 . S
C1030 C1028 1.419 . S
C1030 C1031 1.362 . S
C1031 H1021 0.930 . S
C1031 C1024 1.409 . S
C1031 C1030 1.362 . S
H1032 C1038 0.930 . S
H1033 C1041 0.930 . S
H1034 C1042 0.938 . S
H1035 C1043 0.930 . S
H1036 C1046 0.930 . S
H1037 C1047 0.930 . S
C1038 H1032 0.930 . S
C1038 C1039 1.355 . S
C1038 C1040 1.415 1_545 S
C1039 C1038 1.355 . S
C1039 C1041 1.419 . S
C1040 C1038 1.415 1_565 S
C1040 C1045 1.425 1_556 S
C1040 C1047 1.409 . S
C1041 H1033 0.930 . S
C1041 C1039 1.419 . S
C1041 C1042 1.344 1_546 S
C1042 H1034 0.938 . S
C1042 C1041 1.344 1_564 S
C1042 C1045 1.420 . S
C1043 H1035 0.930 . S
C1043 C1044 1.355 . S
C1043 C1045 1.415 . S
C1044 C1043 1.355 . S
C1044 C1046 1.419 1_554 S
C1045 C1040 1.425 1_554 S
C1045 C1042 1.420 . S
C1045 C1043 1.415 . S
C1046 H1036 0.930 . S
C1046 C1044 1.419 1_556 S
C1046 C1047 1.362 . S
C1047 H1037 0.930 . S
C1047 C1040 1.409 . S
C1047 C1046 1.362 . S
H1048 C1054 0.930 . S
H1049 C1057 0.930 . S
H1050 C1058 0.930 . S
H1051 C1059 0.930 . S
H1052 C1062 0.930 . S
H1053 C1063 0.930 . S
C1054 H1048 0.930 . S
C1054 C1055 1.355 . S
C1054 C1056 1.415 . S
C1055 C1054 1.355 . S
C1055 C1057 1.419 . S
C1056 C1054 1.415 . S
C1056 C1061 1.425 . S
C1056 C1063 1.409 . S
C1057 H1049 0.930 . S
C1057 C1055 1.419 . S
C1057 C1058 1.362 . S
C1058 H1050 0.930 . S
C1058 C1057 1.362 . S
C1058 C1061 1.409 . S
C1059 H1051 0.930 . S
C1059 C1060 1.355 . S
C1059 C1061 1.415 . S
C1060 C1059 1.355 . S
C1060 C1062 1.419 . S
C1061 C1056 1.425 . S
C1061 C1058 1.409 . S
C1061 C1059 1.415 . S
C1062 H1052 0.930 . S
C1062 C1060 1.419 . S
C1062 C1063 1.362 . S
C1063 H1053 0.930 . S
C1063 C1056 1.409 . S
C1063 C1062 1.362 . S
H1064 C1070 0.930 . S
H1065 C1073 0.930 . S
H1066 C1074 0.930 . S
H1067 C1075 0.930 . S
H1068 C1078 0.930 . S
H1069 C1079 0.930 . S
C1070 H1064 0.930 . S
C1070 C1071 1.355 . S
C1070 C1072 1.415 . S
C1071 C1070 1.355 . S
C1071 C1073 1.419 . S
C1072 C1070 1.415 . S
C1072 C1077 1.425 . S
C1072 C1079 1.409 . S
C1073 H1065 0.930 . S
C1073 C1071 1.419 . S
C1073 C1074 1.362 . S
C1074 H1066 0.930 . S
C1074 C1073 1.362 . S
C1074 C1077 1.409 . S
C1075 H1067 0.930 . S
C1075 C1076 1.355 . S
C1075 C1077 1.415 . S
C1076 C1075 1.355 . S
C1076 C1078 1.419 . S
C1077 C1072 1.425 . S
C1077 C1074 1.409 . S
C1077 C1075 1.415 . S
C1078 H1068 0.930 . S
C1078 C1076 1.419 . S
C1078 C1079 1.362 . S
C1079 H1069 0.930 . S
C1079 C1072 1.409 . S
C1079 C1078 1.362 . S
H1080 C1086 0.930 . S
H1081 C1089 0.930 . S
H1082 C1090 0.930 . S
H1083 C1091 0.930 . S
H1084 C1094 0.930 . S
H1085 C1095 0.930 . S
C1086 H1080 0.930 . S
C1086 C1087 1.355 . S
C1086 C1088 1.415 . S
C1087 C1086 1.355 . S
C1087 C1089 1.419 . S
C1088 C1086 1.415 . S
C1088 C1093 1.425 . S
C1088 C1095 1.409 . S
C1089 H1081 0.930 . S
C1089 C1087 1.419 . S
C1089 C1090 1.362 . S
C1090 H1082 0.930 . S
C1090 C1089 1.362 . S
C1090 C1093 1.409 . S
C1091 H1083 0.930 . S
C1091 C1092 1.355 . S
C1091 C1093 1.415 . S
C1092 C1091 1.355 . S
C1092 C1094 1.419 . S
C1093 C1088 1.425 . S
C1093 C1090 1.409 . S
C1093 C1091 1.415 . S
C1094 H1084 0.930 . S
C1094 C1092 1.419 . S
C1094 C1095 1.362 . S
C1095 H1085 0.930 . S
C1095 C1088 1.409 . S
C1095 C1094 1.362 . S
H1096 C1102 0.930 . S
H1097 C1105 0.930 . S
H1098 C1106 0.930 . S
H1099 C1107 0.930 . S
H1100 C1110 0.930 . S
H1101 C1111 0.930 . S
C1102 H1096 0.930 . S
C1102 C1103 1.355 . S
C1102 C1104 1.415 . S
C1103 C1102 1.355 . S
C1103 C1105 1.419 . S
C1104 C1102 1.415 . S
C1104 C1109 1.425 . S
C1104 C1111 1.409 . S
C1105 H1097 0.930 . S
C1105 C1103 1.419 . S
C1105 C1106 1.362 . S
C1106 H1098 0.930 . S
C1106 C1105 1.362 . S
C1106 C1109 1.409 . S
C1107 H1099 0.930 . S
C1107 C1108 1.355 . S
C1107 C1109 1.415 . S
C1108 C1107 1.355 . S
C1108 C1110 1.419 . S
C1109 C1104 1.425 . S
C1109 C1106 1.409 . S
C1109 C1107 1.415 . S
C1110 H1100 0.930 . S
C1110 C1108 1.419 . S
C1110 C1111 1.362 . S
C1111 H1101 0.930 . S
C1111 C1104 1.409 . S
C1111 C1110 1.362 . S
H1112 C1118 0.930 . S
H1113 C1121 0.930 . S
H1114 C1122 0.930 . S
H1115 C1123 0.930 . S
H1116 C1126 0.930 . S
H1117 C1127 0.930 . S
C1118 H1112 0.930 . S
C1118 C1119 1.355 . S
C1118 C1120 1.415 . S
C1119 C1118 1.355 . S
C1119 C1121 1.419 . S
C1120 C1118 1.415 . S
C1120 C1125 1.425 . S
C1120 C1127 1.409 . S
C1121 H1113 0.930 . S
C1121 C1119 1.419 . S
C1121 C1122 1.362 . S
C1122 H1114 0.930 . S
C1122 C1121 1.362 . S
C1122 C1125 1.409 . S
C1123 H1115 0.930 . S
C1123 C1124 1.355 . S
C1123 C1125 1.415 . S
C1124 C1123 1.355 . S
C1124 C1126 1.419 . S
C1125 C1120 1.425 . S
C1125 C1122 1.409 . S
C1125 C1123 1.415 . S
C1126 H1116 0.930 . S
C1126 C1124 1.419 . S
C1126 C1127 1.362 . S
C1127 H1117 0.930 . S
C1127 C1120 1.409 . S
C1127 C1126 1.362 . S
H1128 C1134 0.930 . S
H1129 C1137 0.930 . S
H1130 C1138 0.930 . S
H1131 C1139 0.930 . S
H1132 C1142 0.930 . S
H1133 C1143 0.930 . S
C1134 H1128 0.930 . S
C1134 C1135 1.355 . S
C1134 C1136 1.415 . S
C1135 C1134 1.355 . S
C1135 C1137 1.419 . S
C1136 C1134 1.415 . S
C1136 C1141 1.425 . S
C1136 C1143 1.409 . S
C1137 H1129 0.930 . S
C1137 C1135 1.419 . S
C1137 C1138 1.362 . S
C1138 H1130 0.930 . S
C1138 C1137 1.362 . S
C1138 C1141 1.409 . S
C1139 H1131 0.930 . S
C1139 C1140 1.355 . S
C1139 C1141 1.415 . S
C1140 C1139 1.355 . S
C1140 C1142 1.419 . S
C1141 C1136 1.425 . S
C1141 C1138 1.409 . S
C1141 C1139 1.415 . S
C1142 H1132 0.930 . S
C1142 C1140 1.419 . S
C1142 C1143 1.362 . S
C1143 H1133 0.930 . S
C1143 C1136 1.409 . S
C1143 C1142 1.362 . S
H1144 C1150 0.930 . S
H1145 C1153 0.930 . S
H1146 C1154 0.930 . S
H1147 C1155 0.930 . S
H1148 C1158 0.930 . S
H1149 C1159 0.930 . S
C1150 H1144 0.930 . S
C1150 C1151 1.355 . S
C1150 C1152 1.415 . S
C1151 C1150 1.355 . S
C1151 C1153 1.419 . S
C1152 C1150 1.415 . S
C1152 C1157 1.425 . S
C1152 C1159 1.409 . S
C1153 H1145 0.930 . S
C1153 C1151 1.419 . S
C1153 C1154 1.362 . S
C1154 H1146 0.930 . S
C1154 C1153 1.362 . S
C1154 C1157 1.409 . S
C1155 H1147 0.930 . S
C1155 C1156 1.355 . S
C1155 C1157 1.415 . S
C1156 C1155 1.355 . S
C1156 C1158 1.419 . S
C1157 C1152 1.425 . S
C1157 C1154 1.409 . S
C1157 C1155 1.415 . S
C1158 H1148 0.930 . S
C1158 C1156 1.419 . S
C1158 C1159 1.362 . S
C1159 H1149 0.930 . S
C1159 C1152 1.409 . S
C1159 C1158 1.362 . S
H1160 C1166 0.930 . S
H1161 C1169 0.930 . S
H1162 C1170 0.930 . S
H1163 C1171 0.930 . S
H1164 C1174 0.930 . S
H1165 C1175 0.930 . S
C1166 H1160 0.930 . S
C1166 C1167 1.355 . S
C1166 C1168 1.415 . S
C1167 C1166 1.355 . S
C1167 C1169 1.419 . S
C1168 C1166 1.415 . S
C1168 C1173 1.425 . S
C1168 C1175 1.409 . S
C1169 H1161 0.930 . S
C1169 C1167 1.419 . S
C1169 C1170 1.362 . S
C1170 H1162 0.930 . S
C1170 C1169 1.362 . S
C1170 C1173 1.409 . S
C1171 H1163 0.930 . S
C1171 C1172 1.355 . S
C1171 C1173 1.415 . S
C1172 C1171 1.355 . S
C1172 C1174 1.419 . S
C1173 C1168 1.425 . S
C1173 C1170 1.409 . S
C1173 C1171 1.415 . S
C1174 H1164 0.930 . S
C1174 C1172 1.419 . S
C1174 C1175 1.362 . S
C1175 H1165 0.930 . S
C1175 C1168 1.409 . S
C1175 C1174 1.362 . S
H1176 C1182 0.930 . S
H1177 C1185 0.930 . S
H1178 C1186 0.930 . S
H1179 C1187 0.930 . S
H1180 C1190 0.930 . S
H1181 C1191 0.930 . S
C1182 H1176 0.930 . S
C1182 C1183 1.355 . S
C1182 C1184 1.415 . S
C1183 C1182 1.355 . S
C1183 C1185 1.419 . S
C1184 C1182 1.415 . S
C1184 C1189 1.425 . S
C1184 C1191 1.409 . S
C1185 H1177 0.930 . S
C1185 C1183 1.419 . S
C1185 C1186 1.362 . S
C1186 H1178 0.930 . S
C1186 C1185 1.362 . S
C1186 C1189 1.409 . S
C1187 H1179 0.930 . S
C1187 C1188 1.355 . S
C1187 C1189 1.415 . S
C1188 C1187 1.355 . S
C1188 C1190 1.419 . S
C1189 C1184 1.425 . S
C1189 C1186 1.409 . S
C1189 C1187 1.415 . S
C1190 H1180 0.930 . S
C1190 C1188 1.419 . S
C1190 C1191 1.362 . S
C1191 H1181 0.930 . S
C1191 C1184 1.409 . S
C1191 C1190 1.362 . S
H1192 C1198 0.930 . S
H1193 C1201 0.930 . S
H1194 C1202 0.930 . S
H1195 C1203 0.930 . S
H1196 C1206 0.930 . S
H1197 C1207 0.930 . S
C1198 H1192 0.930 . S
C1198 C1199 1.355 . S
C1198 C1200 1.415 . S
C1199 C1198 1.355 . S
C1199 C1201 1.419 . S
C1200 C1198 1.415 . S
C1200 C1205 1.425 . S
C1200 C1207 1.409 . S
C1201 H1193 0.930 . S
C1201 C1199 1.419 . S
C1201 C1202 1.362 . S
C1202 H1194 0.930 . S
C1202 C1201 1.362 . S
C1202 C1205 1.409 . S
C1203 H1195 0.930 . S
C1203 C1204 1.355 . S
C1203 C1205 1.415 . S
C1204 C1203 1.355 . S
C1204 C1206 1.419 . S
C1205 C1200 1.425 . S
C1205 C1202 1.409 . S
C1205 C1203 1.415 . S
C1206 H1196 0.930 . S
C1206 C1204 1.419 . S
C1206 C1207 1.362 . S
C1207 H1197 0.930 . S
C1207 C1200 1.409 . S
C1207 C1206 1.362 . S
H1208 C1214 0.932 . S
H1209 C1217 0.930 . S
H1210 C1218 0.930 . S
H1211 C1219 0.930 . S
H1212 C1222 0.930 . S
H1213 C1223 0.930 . S
C1214 H1208 0.932 . S
C1214 C1215 1.355 . S
C1214 C1216 1.415 1_455 S
C1215 C1214 1.355 . S
C1215 C1217 1.419 . S
C1216 C1214 1.415 1_655 S
C1216 C1221 1.425 . S
C1216 C1223 1.409 . S
C1217 H1209 0.930 . S
C1217 C1215 1.419 . S
C1217 C1218 1.362 . S
C1218 H1210 0.930 . S
C1218 C1217 1.362 . S
C1218 C1221 1.409 1_455 S
C1219 H1211 0.930 . S
C1219 C1220 1.355 . S
C1219 C1221 1.415 . S
C1220 C1219 1.355 . S
C1220 C1222 1.419 . S
C1221 C1216 1.425 . S
C1221 C1218 1.409 1_655 S
C1221 C1219 1.415 . S
C1222 H1212 0.930 . S
C1222 C1220 1.419 . S
C1222 C1223 1.362 . S
C1223 H1213 0.930 . S
C1223 C1216 1.409 . S
C1223 C1222 1.362 . S
H1224 C1230 0.930 . S
H1225 C1233 0.930 . S
H1226 C1234 0.930 . S
H1227 C1235 0.930 . S
H1228 C1238 0.930 . S
H1229 C1239 0.930 . S
C1230 H1224 0.930 . S
C1230 C1231 1.355 . S
C1230 C1232 1.415 . S
C1231 C1230 1.355 . S
C1231 C1233 1.419 . S
C1232 C1230 1.415 . S
C1232 C1237 1.425 . S
C1232 C1239 1.409 . S
C1233 H1225 0.930 . S
C1233 C1231 1.419 . S
C1233 C1234 1.362 . S
C1234 H1226 0.930 . S
C1234 C1233 1.362 . S
C1234 C1237 1.409 . S
C1235 H1227 0.930 . S
C1235 C1236 1.355 . S
C1235 C1237 1.415 . S
C1236 C1235 1.355 . S
C1236 C1238 1.419 . S
C1237 C1232 1.425 . S
C1237 C1234 1.409 . S
C1237 C1235 1.415 . S
C1238 H1228 0.930 . S
C1238 C1236 1.419 . S
C1238 C1239 1.362 . S
C1239 H1229 0.930 . S
C1239 C1232 1.409 . S
C1239 C1238 1.362 . S
H1240 C1246 0.930 . S
H1241 C1249 0.930 . S
H1242 C1250 0.930 . S
H1243 C1251 0.930 . S
H1244 C1254 0.930 . S
H1245 C1255 0.930 1_655 S
C1246 H1240 0.930 . S
C1246 C1247 1.355 . S
C1246 C1248 1.415 . S
C1247 C1246 1.355 . S
C1247 C1249 1.419 . S
C1248 C1246 1.415 . S
C1248 C1253 1.425 1_655 S
C1248 C1255 1.409 1_655 S
C1249 H1241 0.930 . S
C1249 C1247 1.419 . S
C1249 C1250 1.362 1_655 S
C1250 H1242 0.930 . S
C1250 C1249 1.362 1_455 S
C1250 C1253 1.409 . S
C1251 H1243 0.930 . S
C1251 C1252 1.355 . S
C1251 C1253 1.415 . S
C1252 C1251 1.355 . S
C1252 C1254 1.419 . S
C1253 C1248 1.425 1_455 S
C1253 C1250 1.409 . S
C1253 C1251 1.415 . S
C1254 H1244 0.930 . S
C1254 C1252 1.419 . S
C1254 C1255 1.362 . S
C1255 H1245 0.930 1_455 S
C1255 C1248 1.409 1_455 S
C1255 C1254 1.362 . S
H1256 C1262 0.930 . S
H1257 C1265 0.930 . S
H1258 C1266 0.930 . S
H1259 C1267 0.930 . S
H1260 C1270 0.930 . S
H1261 C1271 0.930 . S
C1262 H1256 0.930 . S
C1262 C1263 1.355 . S
C1262 C1264 1.415 . S
C1263 C1262 1.355 . S
C1263 C1265 1.419 . S
C1264 C1262 1.415 . S
C1264 C1269 1.425 . S
C1264 C1271 1.409 . S
C1265 H1257 0.930 . S
C1265 C1263 1.419 . S
C1265 C1266 1.362 . S
C1266 H1258 0.930 . S
C1266 C1265 1.362 . S
C1266 C1269 1.409 . S
C1267 H1259 0.930 . S
C1267 C1268 1.355 . S
C1267 C1269 1.415 . S
C1268 C1267 1.355 . S
C1268 C1270 1.419 . S
C1269 C1264 1.425 . S
C1269 C1266 1.409 . S
C1269 C1267 1.415 . S
C1270 H1260 0.930 . S
C1270 C1268 1.419 . S
C1270 C1271 1.362 . S
C1271 H1261 0.930 . S
C1271 C1264 1.409 . S
C1271 C1270 1.362 . S
H1272 C1278 0.930 1_554 S
H1273 C1281 0.935 . S
H1274 C1282 0.930 . S
H1275 C1283 0.930 . S
H1276 C1286 0.930 . S
H1277 C1287 0.930 . S
C1278 H1272 0.930 1_556 S
C1278 C1279 1.355 1_556 S
C1278 C1280 1.415 . S
C1279 C1278 1.355 1_554 S
C1279 C1281 1.422 . S
C1280 C1278 1.415 . S
C1280 C1285 1.425 . S
C1280 C1287 1.409 . S
C1281 H1273 0.935 . S
C1281 C1279 1.422 . S
C1281 C1282 1.354 1_554 S
C1282 H1274 0.930 . S
C1282 C1281 1.354 1_556 S
C1282 C1285 1.409 . S
C1283 H1275 0.930 . S
C1283 C1284 1.355 . S
C1283 C1285 1.415 . S
C1284 C1283 1.355 . S
C1284 C1286 1.419 . S
C1285 C1280 1.425 . S
C1285 C1282 1.409 . S
C1285 C1283 1.415 . S
C1286 H1276 0.930 . S
C1286 C1284 1.419 . S
C1286 C1287 1.362 . S
C1287 H1277 0.930 . S
C1287 C1280 1.409 . S
C1287 C1286 1.362 . S
H1288 C1294 0.930 . S
H1289 C1297 0.930 . S
H1290 C1298 0.930 . S
H1291 C1299 0.930 . S
H1292 C1302 0.930 . S
H1293 C1303 0.930 . S
C1294 H1288 0.930 . S
C1294 C1295 1.355 . S
C1294 C1296 1.415 . S
C1295 C1294 1.355 . S
C1295 C1297 1.419 . S
C1296 C1294 1.415 . S
C1296 C1301 1.425 . S
C1296 C1303 1.409 . S
C1297 H1289 0.930 . S
C1297 C1295 1.419 . S
C1297 C1298 1.362 . S
C1298 H1290 0.930 . S
C1298 C1297 1.362 . S
C1298 C1301 1.409 . S
C1299 H1291 0.930 . S
C1299 C1300 1.355 . S
C1299 C1301 1.415 . S
C1300 C1299 1.355 . S
C1300 C1302 1.419 . S
C1301 C1296 1.425 . S
C1301 C1298 1.409 . S
C1301 C1299 1.415 . S
C1302 H1292 0.930 . S
C1302 C1300 1.419 . S
C1302 C1303 1.362 . S
C1303 H1293 0.930 . S
C1303 C1296 1.409 . S
C1303 C1302 1.362 . S
H1304 C1310 0.930 . S
H1305 C1313 0.930 . S
H1306 C1314 0.930 . S
H1307 C1315 0.930 . S
H1308 C1318 0.930 . S
H1309 C1319 0.930 . S
C1310 H1304 0.930 . S
C1310 C1311 1.355 . S
C1310 C1312 1.415 1_554 S
C1311 C1310 1.355 . S
C1311 C1313 1.419 . S
C1312 C1310 1.415 1_556 S
C1312 C1317 1.425 1_556 S
C1312 C1319 1.409 . S
C1313 H1305 0.930 . S
C1313 C1311 1.419 . S
C1313 C1314 1.362 . S
C1314 H1306 0.930 . S
C1314 C1313 1.362 . S
C1314 C1317 1.409 . S
C1315 H1307 0.930 . S
C1315 C1316 1.355 . S
C1315 C1317 1.415 1_556 S
C1316 C1315 1.355 . S
C1316 C1318 1.419 . S
C1317 C1312 1.425 1_554 S
C1317 C1314 1.409 . S
C1317 C1315 1.415 1_554 S
C1318 H1308 0.930 . S
C1318 C1316 1.419 . S
C1318 C1319 1.362 . S
C1319 H1309 0.930 . S
C1319 C1312 1.409 . S
C1319 C1318 1.362 . S
H1320 C1326 0.930 . S
H1321 C1329 0.930 . S
H1322 C1330 0.930 . S
H1323 C1331 0.930 . S
H1324 C1334 0.930 . S
H1325 C1335 0.930 . S
C1326 H1320 0.930 . S
C1326 C1327 1.355 . S
C1326 C1328 1.415 . S
C1327 C1326 1.355 . S
C1327 C1329 1.419 . S
C1328 C1326 1.415 . S
C1328 C1333 1.425 . S
C1328 C1335 1.409 . S
C1329 H1321 0.930 . S
C1329 C1327 1.419 . S
C1329 C1330 1.362 . S
C1330 H1322 0.930 . S
C1330 C1329 1.362 . S
C1330 C1333 1.409 . S
C1331 H1323 0.930 . S
C1331 C1332 1.355 . S
C1331 C1333 1.415 . S
C1332 C1331 1.355 . S
C1332 C1334 1.419 . S
C1333 C1328 1.425 . S
C1333 C1330 1.409 . S
C1333 C1331 1.415 . S
C1334 H1324 0.930 . S
C1334 C1332 1.419 . S
C1334 C1335 1.362 . S
C1335 H1325 0.930 . S
C1335 C1328 1.409 . S
C1335 C1334 1.362 . S
H1336 C1342 0.929 1_556 S
H1337 C1345 0.930 . S
H1338 C1346 0.930 . S
H1339 C1347 0.930 . S
H1340 C1350 0.930 . S
H1341 C1351 0.930 . S
C1342 H1336 0.929 1_554 S
C1342 C1343 1.354 1_554 S
C1342 C1344 1.416 . S
C1343 C1342 1.354 1_556 S
C1343 C1345 1.419 . S
C1344 C1342 1.416 . S
C1344 C1349 1.425 . S
C1344 C1351 1.409 . S
C1345 H1337 0.930 . S
C1345 C1343 1.419 . S
C1345 C1346 1.362 1_556 S
C1346 H1338 0.930 . S
C1346 C1345 1.362 1_554 S
C1346 C1349 1.409 . S
C1347 H1339 0.930 . S
C1347 C1348 1.355 . S
C1347 C1349 1.415 . S
C1348 C1347 1.355 . S
C1348 C1350 1.419 . S
C1349 C1344 1.425 . S
C1349 C1346 1.409 . S
C1349 C1347 1.415 . S
C1350 H1340 0.930 . S
C1350 C1348 1.419 . S
C1350 C1351 1.362 . S
C1351 H1341 0.930 . S
C1351 C1344 1.409 . S
C1351 C1350 1.362 . S
H1352 C1358 0.930 . S
H1353 C1361 0.930 . S
H1354 C1362 0.930 . S
H1355 C1363 0.930 . S
H1356 C1366 0.930 . S
H1357 C1367 0.930 . S
C1358 H1352 0.930 . S
C1358 C1359 1.355 . S
C1358 C1360 1.415 . S
C1359 C1358 1.355 . S
C1359 C1361 1.419 . S
C1360 C1358 1.415 . S
C1360 C1365 1.425 . S
C1360 C1367 1.409 . S
C1361 H1353 0.930 . S
C1361 C1359 1.419 . S
C1361 C1362 1.362 . S
C1362 H1354 0.930 . S
C1362 C1361 1.362 . S
C1362 C1365 1.409 . S
C1363 H1355 0.930 . S
C1363 C1364 1.355 . S
C1363 C1365 1.415 . S
C1364 C1363 1.355 . S
C1364 C1366 1.419 . S
C1365 C1360 1.425 . S
C1365 C1362 1.409 . S
C1365 C1363 1.415 . S
C1366 H1356 0.930 . S
C1366 C1364 1.419 . S
C1366 C1367 1.362 . S
C1367 H1357 0.930 . S
C1367 C1360 1.409 . S
C1367 C1366 1.362 . S
H1368 C1374 0.930 . S
H1369 C1377 0.930 . S
H1370 C1378 0.930 . S
H1371 C1379 0.930 . S
H1372 C1382 0.930 . S
H1373 C1383 0.930 . S
C1374 H1368 0.930 . S
C1374 C1375 1.355 . S
C1374 C1376 1.415 . S
C1375 C1374 1.355 . S
C1375 C1377 1.419 . S
C1376 C1374 1.415 . S
C1376 C1381 1.425 . S
C1376 C1383 1.409 . S
C1377 H1369 0.930 . S
C1377 C1375 1.419 . S
C1377 C1378 1.362 . S
C1378 H1370 0.930 . S
C1378 C1377 1.362 . S
C1378 C1381 1.409 . S
C1379 H1371 0.930 . S
C1379 C1380 1.355 . S
C1379 C1381 1.415 . S
C1380 C1379 1.355 . S
C1380 C1382 1.419 . S
C1381 C1376 1.425 . S
C1381 C1378 1.409 . S
C1381 C1379 1.415 . S
C1382 H1372 0.930 . S
C1382 C1380 1.419 . S
C1382 C1383 1.362 . S
C1383 H1373 0.930 . S
C1383 C1376 1.409 . S
C1383 C1382 1.362 . S
H1384 C1390 0.930 . S
H1385 C1393 0.930 . S
H1386 C1394 0.930 . S
H1387 C1395 0.930 . S
H1388 C1398 0.930 . S
H1389 C1399 0.930 . S
C1390 H1384 0.930 . S
C1390 C1391 1.355 . S
C1390 C1392 1.415 . S
C1391 C1390 1.355 . S
C1391 C1393 1.419 . S
C1392 C1390 1.415 . S
C1392 C1397 1.425 . S
C1392 C1399 1.409 . S
C1393 H1385 0.930 . S
C1393 C1391 1.419 . S
C1393 C1394 1.362 . S
C1394 H1386 0.930 . S
C1394 C1393 1.362 . S
C1394 C1397 1.409 . S
C1395 H1387 0.930 . S
C1395 C1396 1.355 . S
C1395 C1397 1.415 . S
C1396 C1395 1.355 . S
C1396 C1398 1.419 . S
C1397 C1392 1.425 . S
C1397 C1394 1.409 . S
C1397 C1395 1.415 . S
C1398 H1388 0.930 . S
C1398 C1396 1.419 . S
C1398 C1399 1.362 . S
C1399 H1389 0.930 . S
C1399 C1392 1.409 . S
C1399 C1398 1.362 . S
H1400 C1406 0.930 . S
H1401 C1409 0.930 . S
H1402 C1410 0.930 . S
H1403 C1411 0.930 . S
H1404 C1414 0.930 . S
H1405 C1415 0.930 . S
C1406 H1400 0.930 . S
C1406 C1407 1.355 . S
C1406 C1408 1.415 . S
C1407 C1406 1.355 . S
C1407 C1409 1.419 . S
C1408 C1406 1.415 . S
C1408 C1413 1.425 . S
C1408 C1415 1.409 . S
C1409 H1401 0.930 . S
C1409 C1407 1.419 . S
C1409 C1410 1.362 . S
C1410 H1402 0.930 . S
C1410 C1409 1.362 . S
C1410 C1413 1.409 . S
C1411 H1403 0.930 . S
C1411 C1412 1.355 . S
C1411 C1413 1.415 . S
C1412 C1411 1.355 . S
C1412 C1414 1.419 . S
C1413 C1408 1.425 . S
C1413 C1410 1.409 . S
C1413 C1411 1.415 . S
C1414 H1404 0.930 . S
C1414 C1412 1.419 . S
C1414 C1415 1.362 . S
C1415 H1405 0.930 . S
C1415 C1408 1.409 . S
C1415 C1414 1.362 . S
H1416 C1422 0.930 . S
H1417 C1425 0.930 . S
H1418 C1426 0.930 . S
H1419 C1427 0.930 . S
H1420 C1430 0.930 . S
H1421 C1431 0.930 . S
C1422 H1416 0.930 . S
C1422 C1423 1.355 . S
C1422 C1424 1.415 . S
C1423 C1422 1.355 . S
C1423 C1425 1.419 . S
C1424 C1422 1.415 . S
C1424 C1429 1.425 . S
C1424 C1431 1.409 . S
C1425 H1417 0.930 . S
C1425 C1423 1.419 . S
C1425 C1426 1.362 . S
C1426 H1418 0.930 . S
C1426 C1425 1.362 . S
C1426 C1429 1.409 . S
C1427 H1419 0.930 . S
C1427 C1428 1.355 . S
C1427 C1429 1.415 . S
C1428 C1427 1.355 . S
C1428 C1430 1.419 . S
C1429 C1424 1.425 . S
C1429 C1426 1.409 . S
C1429 C1427 1.415 . S
C1430 H1420 0.930 . S
C1430 C1428 1.419 . S
C1430 C1431 1.362 . S
C1431 H1421 0.930 . S
C1431 C1424 1.409 . S
C1431 C1430 1.362 . S
H1432 C1438 0.930 . S
H1433 C1441 0.930 . S
H1434 C1442 0.930 . S
H1435 C1443 0.930 . S
H1436 C1446 0.930 . S
H1437 C1447 0.930 . S
C1438 H1432 0.930 . S
C1438 C1439 1.355 . S
C1438 C1440 1.415 . S
C1439 C1438 1.355 . S
C1439 C1441 1.419 . S
C1440 C1438 1.415 . S
C1440 C1445 1.425 . S
C1440 C1447 1.409 . S
C1441 H1433 0.930 . S
C1441 C1439 1.419 . S
C1441 C1442 1.362 . S
C1442 H1434 0.930 . S
C1442 C1441 1.362 . S
C1442 C1445 1.409 . S
C1443 H1435 0.930 . S
C1443 C1444 1.355 . S
C1443 C1445 1.415 . S
C1444 C1443 1.355 . S
C1444 C1446 1.419 . S
C1445 C1440 1.425 . S
C1445 C1442 1.409 . S
C1445 C1443 1.415 . S
C1446 H1436 0.930 . S
C1446 C1444 1.419 . S
C1446 C1447 1.362 . S
C1447 H1437 0.930 . S
C1447 C1440 1.409 . S
C1447 C1446 1.362 . S
H1448 C1454 0.930 . S
H1449 C1457 0.930 . S
H1450 C1458 0.930 . S
H1451 C1459 0.930 . S
H1452 C1462 0.930 . S
H1453 C1463 0.930 . S
C1454 H1448 0.930 . S
C1454 C1455 1.355 . S
C1454 C1456 1.415 . S
C1455 C1454 1.355 . S
C1455 C1457 1.419 . S
C1456 C1454 1.415 . S
C1456 C1461 1.425 . S
C1456 C1463 1.409 . S
C1457 H1449 0.930 . S
C1457 C1455 1.419 . S
C1457 C1458 1.362 . S
C1458 H1450 0.930 . S
C1458 C1457 1.362 . S
C1458 C1461 1.409 . S
C1459 H1451 0.930 . S
C1459 C1460 1.355 . S
C1459 C1461 1.415 . S
C1460 C1459 1.355 . S
C1460 C1462 1.419 . S
C1461 C1456 1.425 . S
C1461 C1458 1.409 . S
C1461 C1459 1.415 . S
C1462 H1452 0.930 . S
C1462 C1460 1.419 . S
C1462 C1463 1.362 . S
C1463 H1453 0.930 . S
C1463 C1456 1.409 . S
C1463 C1462 1.362 . S
H1464 C1470 0.930 . S
H1465 C1473 0.930 . S
H1466 C1474 0.930 . S
H1467 C1475 0.930 . S
H1468 C1478 0.930 . S
H1469 C1479 0.930 . S
C1470 H1464 0.930 . S
C1470 C1471 1.355 . S
C1470 C1472 1.415 . S
C1471 C1470 1.355 . S
C1471 C1473 1.419 . S
C1472 C1470 1.415 . S
C1472 C1477 1.425 . S
C1472 C1479 1.409 . S
C1473 H1465 0.930 . S
C1473 C1471 1.419 . S
C1473 C1474 1.362 . S
C1474 H1466 0.930 . S
C1474 C1473 1.362 . S
C1474 C1477 1.409 . S
C1475 H1467 0.930 . S
C1475 C1476 1.355 . S
C1475 C1477 1.415 . S
C1476 C1475 1.355 . S
C1476 C1478 1.419 . S
C1477 C1472 1.425 . S
C1477 C1474 1.409 . S
C1477 C1475 1.415 . S
C1478 H1468 0.930 . S
C1478 C1476 1.419 . S
C1478 C1479 1.362 . S
C1479 H1469 0.930 . S
C1479 C1472 1.409 . S
C1479 C1478 1.362 . S
H1480 C1486 0.930 . S
H1481 C1489 0.930 . S
H1482 C1490 0.930 . S
H1483 C1491 0.930 . S
H1484 C1494 0.893 1_556 S
H1485 C1495 0.930 . S
C1486 H1480 0.930 . S
C1486 C1487 1.355 . S
C1486 C1488 1.415 . S
C1487 C1486 1.355 . S
C1487 C1489 1.419 . S
C1488 C1486 1.415 . S
C1488 C1493 1.425 . S
C1488 C1495 1.409 . S
C1489 H1481 0.930 . S
C1489 C1487 1.419 . S
C1489 C1490 1.362 . S
C1490 H1482 0.930 . S
C1490 C1489 1.362 . S
C1490 C1493 1.409 . S
C1491 H1483 0.930 . S
C1491 C1492 1.355 . S
C1491 C1493 1.415 . S
C1492 C1491 1.355 . S
C1492 C1494 1.419 . S
C1493 C1488 1.425 . S
C1493 C1490 1.409 . S
C1493 C1491 1.415 . S
C1494 H1484 0.893 1_554 S
C1494 C1492 1.419 . S
C1494 C1495 1.362 . S
C1495 H1485 0.930 . S
C1495 C1488 1.409 . S
C1495 C1494 1.362 . S
H1496 C1502 0.930 . S
H1497 C1505 0.930 . S
H1498 C1506 0.930 . S
H1499 C1507 0.930 . S
H1500 C1510 0.930 . S
H1501 C1511 0.930 . S
C1502 H1496 0.930 . S
C1502 C1503 1.355 . S
C1502 C1504 1.415 . S
C1503 C1502 1.355 . S
C1503 C1505 1.419 . S
C1504 C1502 1.415 . S
C1504 C1509 1.425 . S
C1504 C1511 1.409 1_545 S
C1505 H1497 0.930 . S
C1505 C1503 1.419 . S
C1505 C1506 1.362 . S
C1506 H1498 0.930 . S
C1506 C1505 1.362 . S
C1506 C1509 1.409 . S
C1507 H1499 0.930 . S
C1507 C1508 1.355 1_545 S
C1507 C1509 1.415 . S
C1508 C1507 1.355 1_565 S
C1508 C1510 1.419 . S
C1509 C1504 1.425 . S
C1509 C1506 1.409 . S
C1509 C1507 1.415 . S
C1510 H1500 0.930 . S
C1510 C1508 1.419 . S
C1510 C1511 1.362 . S
C1511 H1501 0.930 . S
C1511 C1504 1.409 1_565 S
C1511 C1510 1.362 . S
C756 C584 1.587 1_556 S
C751 C181 1.604 . S
C772 C599 1.751 . S
C767 C247 1.753 . S
C783 C283 1.694 . S
C788 C612 1.699 . S
C804 C626 1.565 . S
C799 C169 1.654 1_655 S
C820 C638 1.620 . S
C815 C361 1.690 . S
C836 C652 1.434 . S
C831 C433 1.441 . S
C847 C421 1.737 . S
C852 C666 1.710 . S
C868 C681 1.555 . S
C863 C355 1.474 . S
C879 C427 1.670 . S
C884 C697 1.658 . S
C900 C710 1.586 . S
C895 C325 1.588 . S
C911 C385 1.593 . S
C916 C695 1.549 . S
C932 C708 1.603 . S
C927 C463 1.587 . S
C943 C253 1.812 . S
C948 C724 1.829 . S
C959 C145 1.661 . S
C964 C723 1.650 . S
C975 C205 1.695 . S
C980 C722 1.670 . S
C991 C217 1.661 . S
C996 C725 1.662 . S
C1007 C139 1.698 . S
C1012 C627 1.695 1_565 S
C1023 C535 1.494 . S
C1028 C625 1.496 . S
C1044 C585 1.534 . S
C1039 C565 1.524 . S
C1060 C596 1.729 . S
C1055 C313 1.711 . S
C1071 C175 1.663 . S
C1076 C641 1.616 . S
C1092 C682 1.854 . S
C1087 C397 1.847 . S
C1108 C639 1.581 . S
C1103 C349 1.557 1_545 S
C1124 C667 1.616 . S
C1119 C457 1.585 . S
C1140 C668 1.605 . S
C1135 C505 1.599 . S
C1151 C571 1.734 . S
C1156 C683 1.733 . S
C1167 C319 1.689 . S
C1172 C640 1.674 . S
C1188 C654 1.617 . S
C1183 C493 1.655 . S
C1199 C109 1.690 . S
C1204 C610 1.642 . S
C1220 C624 1.443 . S
C1215 C1 1.432 . S
C1236 C582 1.710 . S
C1231 C61 1.737 . S
C1252 C597 1.565 . S
C1247 C103 1.473 . S
C1263 C67 1.641 . S
C1268 C711 1.663 . S
C1279 C73 1.594 . S
C1284 C696 1.593 . S
C1295 C133 1.585 . S
C1300 C709 1.552 . S
C1311 C31 1.608 . S
C1316 C694 1.637 . S
C1332 C738 1.823 . S
C1327 C289 1.827 . S
C1348 C737 1.648 . S
C1343 C469 1.638 . S
C1364 C736 1.622 . S
C1359 C529 1.701 . S
C1375 C541 1.615 1_554 S
C1380 C739 1.622 . S
C1391 C391 1.692 . S
C1396 C655 1.681 . S
C1412 C653 1.475 . S
C1407 C211 1.503 . S
C1428 C669 1.552 . S
C1423 C241 1.564 . S
C1444 C680 1.708 . S
C1439 C277 1.736 . S
C1455 C499 1.662 . S
C1460 C613 1.616 . S
C1476 C598 1.841 . S
C1471 C37 1.841 . S
C1487 C97 1.532 . S
C1492 C611 1.572 . S
C1508 C583 1.604 . S
C1503 C25 1.624 . S
