# Generated by pormake.
# Topology anh, (6,3)-cn, num edge types: 1
# Building blocks:
#     Node 0, Type 0, BuildingBlock: BETGAK_clean_sbu_0, # of connection points: 6
#     Node 1, Type 0, BuildingBlock: BETGAK_clean_sbu_0, # of connection points: 6
#     Node 2, Type 0, BuildingBlock: BETGAK_clean_sbu_0, # of connection points: 6
#     Node 3, Type 1, BuildingBlock: MIDCAF_clean_linker_0, # of connection points: 3
#     Node 4, Type 1, BuildingBlock: MIDCAF_clean_linker_0, # of connection points: 3
#     Node 5, Type 1, BuildingBlock: MIDCAF_clean_linker_0, # of connection points: 3
#     Node 6, Type 1, BuildingBlock: MIDCAF_clean_linker_0, # of connection points: 3
#     Node 7, Type 1, BuildingBlock: MIDCAF_clean_linker_0, # of connection points: 3
#     Node 8, Type 1, BuildingBlock: MIDCAF_clean_linker_0, # of connection points: 3
#     Edge 9, Type (0, 1), BuildingBlock: EZIPEK_clean_linker_0, # of connection points: 2
#     Edge 10, Type (0, 1), BuildingBlock: EZIPEK_clean_linker_0, # of connection points: 2
#     Edge 11, Type (0, 1), BuildingBlock: EZIPEK_clean_linker_0, # of connection points: 2
#     Edge 12, Type (0, 1), BuildingBlock: EZIPEK_clean_linker_0, # of connection points: 2
#     Edge 13, Type (0, 1), BuildingBlock: EZIPEK_clean_linker_0, # of connection points: 2
#     Edge 14, Type (0, 1), BuildingBlock: EZIPEK_clean_linker_0, # of connection points: 2
#     Edge 15, Type (0, 1), BuildingBlock: EZIPEK_clean_linker_0, # of connection points: 2
#     Edge 16, Type (0, 1), BuildingBlock: EZIPEK_clean_linker_0, # of connection points: 2
#     Edge 17, Type (0, 1), BuildingBlock: EZIPEK_clean_linker_0, # of connection points: 2
#     Edge 18, Type (0, 1), BuildingBlock: EZIPEK_clean_linker_0, # of connection points: 2
#     Edge 19, Type (0, 1), BuildingBlock: EZIPEK_clean_linker_0, # of connection points: 2
#     Edge 20, Type (0, 1), BuildingBlock: EZIPEK_clean_linker_0, # of connection points: 2
#     Edge 21, Type (0, 1), BuildingBlock: EZIPEK_clean_linker_0, # of connection points: 2
#     Edge 22, Type (0, 1), BuildingBlock: EZIPEK_clean_linker_0, # of connection points: 2
#     Edge 23, Type (0, 1), BuildingBlock: EZIPEK_clean_linker_0, # of connection points: 2
#     Edge 24, Type (0, 1), BuildingBlock: EZIPEK_clean_linker_0, # of connection points: 2
#     Edge 25, Type (0, 1), BuildingBlock: EZIPEK_clean_linker_0, # of connection points: 2
#     Edge 26, Type (0, 1), BuildingBlock: EZIPEK_clean_linker_0, # of connection points: 2
# Relax obj value: 0.217
# Max RMSD: 0.224
# Mean RMSD: 0.165
data_MOF--net-anh--node1-BETGAK_clean_sbu_0--node2-MIDCAF_clean_linker_0--edge1-EZIPEK_clean_linker_0
_symmetry_space_group_name_H-M    P1
_symmetry_Int_Tables_number       1
_symmetry_cell_setting            triclinic
loop_
_symmetry_equiv_pos_as_xyz
'x, y, z'
_cell_length_a     28.685799
_cell_length_b     35.183316
_cell_length_c     52.608148
_cell_angle_alpha  91.767238
_cell_angle_beta   89.349807
_cell_angle_gamma 130.19547
loop_
_atom_site_label
_atom_site_type_symbol
_atom_site_fract_x
_atom_site_fract_y
_atom_site_fract_z
_atom_type_partial_charge
La0 La 0.18251 0.55612 0.14395 0.0
La1 La 0.09837 0.57711 0.15314 0.0
C2 C 0.25318 0.5425 0.12757 0.0
C3 C 0.25136 0.50008 0.12944 0.0
C4 C 0.22084 0.46708 0.14958 0.0
C5 C 0.21584 0.42492 0.15034 0.0
C6 C 0.24101 0.41531 0.13087 0.0
C7 C 0.27176 0.44841 0.11086 0.0
C8 C 0.27677 0.49052 0.11012 0.0
C9 C 0.14503 0.54514 0.19153 0.0
C10 C 0.2405 0.66926 0.15115 0.0
C11 C 1.02996 0.59272 0.16986 0.0
C12 C 0.96344 0.56046 0.16646 0.0
C13 C 0.93649 0.53396 0.14329 0.0
C14 C 0.8736 0.49628 0.14123 0.0
C15 C 0.83648 0.4844 0.16224 0.0
C16 C 0.86264 0.5117 0.18524 0.0
C17 C 0.92606 0.5495 0.18737 0.0
C18 C 0.10484 0.55591 0.10499 0.0
C19 C 1.04213 0.46506 0.14788 0.0
O20 O 0.20913 0.53371 0.1138 0.0
O21 O 0.26264 0.5668 0.14896 0.0
O22 O 0.15771 0.51956 0.18049 0.0
O23 O 0.15881 0.57821 0.17664 0.0
O24 O 0.24992 0.63777 0.1453 0.0
O25 O 0.18511 0.65385 0.15555 0.0
O26 O 1.06277 0.61332 0.14929 0.0
O27 O 1.04735 0.57308 0.18341 0.0
O28 O 1.05628 0.54389 0.11557 0.0
O29 O 0.14809 0.58172 0.12084 0.0
O30 O 1.03659 0.49654 0.15846 0.0
O31 O 0.09383 0.48155 0.13699 0.0
H32 H 0.20064 0.47374 0.16462 0.0
H33 H 0.19243 0.39986 0.16598 0.0
H34 H 0.29176 0.4415 0.0958 0.0
H35 H 0.29995 0.51534 0.09437 0.0
H36 H 0.96408 0.54102 0.12695 0.0
H37 H 0.85386 0.47562 0.12332 0.0
H38 H 0.83424 0.50293 0.20157 0.0
H39 H 0.94608 0.56888 0.20553 0.0
La40 La 0.69722 0.064 0.47356 0.0
La41 La 0.61396 0.08722 0.46624 0.0
C42 C 0.74567 0.03119 0.49157 0.0
C43 C 0.72769 0.98207 0.49607 0.0
C44 C 0.76017 0.9693 0.48416 0.0
C45 C 0.74659 0.92439 0.48928 0.0
C46 C 0.70067 0.89175 0.50659 0.0
C47 C 0.66703 0.90372 0.51805 0.0
C48 C 0.6803 0.94851 0.5128 0.0
C49 C 0.68458 0.07828 0.4262 0.0
C50 C 0.55303 0.97412 0.46536 0.0
C51 C 0.56739 0.12359 0.45136 0.0
C52 C 0.57979 0.16972 0.45953 0.0
C53 C 0.60695 0.19195 0.48342 0.0
C54 C 0.61767 0.23509 0.49164 0.0
C55 C 0.602 0.25694 0.476 0.0
C56 C 0.57645 0.23565 0.45179 0.0
C57 C 0.56518 0.19206 0.44363 0.0
C58 C 0.62895 0.0758 0.51393 0.0
C59 C 0.76001 0.17675 0.47136 0.0
O60 O 0.75079 0.04322 0.46779 0.0
O61 O 0.71941 0.04412 0.50548 0.0
O62 O 0.73315 0.08804 0.43538 0.0
O63 O 0.64303 0.05607 0.44259 0.0
O64 O 0.60657 0.98894 0.47305 0.0
O65 O 0.54696 1.00678 0.45854 0.0
O66 O 0.54295 0.08965 0.46861 0.0
O67 O 0.612 0.12951 0.43956 0.0
O68 O 0.58128 0.06798 0.50534 0.0
O69 O 0.66831 0.09548 0.49671 0.0
O70 O 0.70542 0.16177 0.46543 0.0
O71 O 0.76721 0.14484 0.47817 0.0
H72 H 0.7969 0.99456 0.47124 0.0
H73 H 0.77303 0.91568 0.48032 0.0
H74 H 0.6315 0.87891 0.53149 0.0
H75 H 0.65429 0.95719 0.52224 0.0
H76 H 0.61925 0.17557 0.49584 0.0
H77 H 0.63775 0.25127 0.5103 0.0
H78 H 0.5643 0.25226 0.43949 0.0
H79 H 0.54473 0.17564 0.42505 0.0
La80 La 0.65814 0.58004 0.84698 0.0
La81 La 0.57153 0.47055 0.83959 0.0
C82 C 0.71631 0.67188 0.84216 0.0
C83 C 0.70267 0.70312 0.83304 0.0
C84 C 0.74395 0.74202 0.81673 0.0
C85 C 0.73269 0.77251 0.80786 0.0
C86 C 0.68003 0.76478 0.81525 0.0
C87 C 0.63828 0.72559 0.8314 0.0
C88 C 0.64932 0.69477 0.84012 0.0
C89 C 0.6266 0.52928 0.88856 0.0
C90 C 0.51131 0.52053 0.84425 0.0
C91 C 0.51652 0.37912 0.84324 0.0
C92 C 0.53297 0.34748 0.83845 0.0
C93 C 0.49479 0.30455 0.82278 0.0
C94 C 0.51091 0.27551 0.81651 0.0
C95 C 0.56538 0.28871 0.82593 0.0
C96 C 0.60316 0.33108 0.84206 0.0
C97 C 0.58729 0.36046 0.84817 0.0
C98 C 0.60136 0.51936 0.7972 0.0
C99 C 0.71906 0.53052 0.84323 0.0
O100 O 0.69098 0.64866 0.86338 0.0
O101 O 0.71492 0.64362 0.8249 0.0
O102 O 0.68071 0.57151 0.88508 0.0
O103 O 0.59249 0.5193 0.87016 0.0
O104 O 0.56849 0.5631 0.84145 0.0
O105 O 0.50174 0.47836 0.84654 0.0
O106 O 0.5137 0.39842 0.8231 0.0
O107 O 0.54336 0.4112 0.86249 0.0
O108 O 0.54817 0.47739 0.80186 0.0
O109 O 0.63673 0.53092 0.81557 0.0
O110 O 0.66157 0.48742 0.8431 0.0
O111 O 0.72921 0.57309 0.84282 0.0
H112 H 0.78513 0.74892 0.81091 0.0
H113 H 0.76535 0.80248 0.79539 0.0
H114 H 0.59731 0.71899 0.83725 0.0
H115 H 0.61635 0.66468 0.85247 0.0
H116 H 0.45287 0.29393 0.81502 0.0
H117 H 0.48119 0.24296 0.80406 0.0
H118 H 0.6454 0.34184 0.8495 0.0
H119 H 0.61785 0.39355 0.86018 0.0
C120 C 0.49827 0.88621 0.18469 0.0
C121 C 0.4575 0.87843 0.16641 0.0
C122 C 0.47041 0.92022 0.15524 0.0
C123 C 0.52182 0.96893 0.1632 0.0
H124 H 0.72579 0.13444 0.14633 0.0
H125 H 0.80936 0.21682 0.1291 0.0
H126 H 0.83887 0.28571 0.20296 0.0
H127 H 0.75661 0.20525 0.22013 0.0
H128 H 0.74631 0.13655 0.26687 0.0
H129 H 0.74992 0.13564 0.31329 0.0
H130 H 0.56088 1.00218 0.31361 0.0
H131 H 0.55733 1.00185 0.26705 0.0
H132 H 0.57772 0.93881 0.20773 0.0
H133 H 0.48951 0.85477 0.19355 0.0
H134 H 0.43947 0.91513 0.14113 0.0
H135 H 0.52906 1.00042 0.1553 0.0
N136 N 0.64632 0.06957 0.18324 0.0
N137 N 0.6891 0.11223 0.22268 0.0
N138 N 0.60876 0.02647 0.22161 0.0
C139 C 0.68816 0.1133 0.19687 0.0
C140 C 0.64963 0.06932 0.23517 0.0
C141 C 0.60652 0.02581 0.1958 0.0
C142 C 0.73432 0.16263 0.18473 0.0
C143 C 0.74956 0.1672 0.1588 0.0
C144 C 0.79743 0.21425 0.14894 0.0
C145 C 0.83071 0.25747 0.16483 0.0
C146 C 0.81423 0.25304 0.19037 0.0
C147 C 0.7669 0.20656 0.20015 0.0
C148 C 0.65157 0.0692 0.26328 0.0
C149 C 0.70548 0.10697 0.27679 0.0
C150 C 0.70768 0.10647 0.3033 0.0
C151 C 0.65572 0.06878 0.31685 0.0
C152 C 0.60152 0.03142 0.30347 0.0
C153 C 0.59965 0.03129 0.2769 0.0
C154 C 0.56057 0.97645 0.18264 0.0
C155 C 0.54885 0.93442 0.19274 0.0
C156 C 0.66102 0.43538 0.549 0.0
C157 C 0.64284 0.42665 0.52341 0.0
C158 C 0.63263 0.45635 0.51215 0.0
C159 C 0.6393 0.49377 0.52654 0.0
H160 H 0.66746 0.62723 0.52179 0.0
H161 H 0.67522 0.69453 0.50369 0.0
H162 H 0.64516 0.73079 0.57769 0.0
H163 H 0.63737 0.66411 0.59604 0.0
H164 H 0.59334 0.57973 0.64214 0.0
H165 H 0.58752 0.57137 0.68835 0.0
H166 H 0.71709 0.54725 0.68528 0.0
H167 H 0.72051 0.55292 0.63876 0.0
H168 H 0.68025 0.4776 0.58329 0.0
H169 H 0.66893 0.41262 0.55794 0.0
H170 H 0.61836 0.44989 0.49241 0.0
H171 H 0.6299 0.51546 0.51747 0.0
N172 N 0.65457 0.57125 0.5575 0.0
N173 N 0.65391 0.60109 0.59786 0.0
N174 N 0.65961 0.53764 0.5942 0.0
C175 C 0.65307 0.60299 0.57214 0.0
C176 C 0.65753 0.56881 0.60899 0.0
C177 C 0.6576 0.53829 0.56841 0.0
C178 C 0.65235 0.64045 0.56044 0.0
C179 C 0.66173 0.64907 0.53419 0.0
C180 C 0.66609 0.6874 0.52378 0.0
C181 C 0.66075 0.7174 0.53942 0.0
C182 C 0.64927 0.70785 0.56538 0.0
C183 C 0.64509 0.66978 0.5758 0.0
C184 C 0.657 0.56656 0.63695 0.0
C185 C 0.6207 0.57279 0.65135 0.0
C186 C 0.61741 0.56811 0.67771 0.0
C187 C 0.65172 0.55855 0.69022 0.0
C188 C 0.69003 0.55437 0.67595 0.0
C189 C 0.69178 0.55743 0.64946 0.0
C190 C 0.65567 0.50169 0.55249 0.0
C191 C 0.66725 0.47245 0.56344 0.0
C192 C 0.91671 0.49209 0.86866 0.0
C193 C 0.92363 0.52435 0.8508 0.0
C194 C 0.97986 0.5543 0.83761 0.0
C195 C 1.02798 0.55347 0.84302 0.0
H196 H 0.16582 0.48276 0.83331 0.0
H197 H 0.24652 0.47773 0.82333 0.0
H198 H 0.36003 0.58635 0.88298 0.0
H199 H 0.2814 0.59203 0.8927 0.0
H200 H 0.19303 0.53751 0.9469 0.0
H201 H 0.19244 0.54273 0.99347 0.0
H202 H 1.05704 0.55996 0.98992 0.0
H203 H 1.05655 0.55432 0.94347 0.0
H204 H 0.95696 0.46721 0.8888 0.0
H205 H 0.87476 0.46843 0.87927 0.0
H206 H 0.98751 0.57988 0.82375 0.0
H207 H 1.07132 0.57926 0.8336 0.0
N208 N 0.11882 0.53022 0.86098 0.0
N209 N 0.16509 0.54111 0.90055 0.0
N210 N 1.07882 0.53451 0.8995 0.0
C211 C 0.16456 0.53616 0.87477 0.0
C212 C 0.123 0.54037 0.91304 0.0
C213 C 1.07533 0.52953 0.87372 0.0
C214 C 0.21601 0.53812 0.86383 0.0
C215 C 0.20852 0.50665 0.84384 0.0
C216 C 0.2549 0.50342 0.83827 0.0
C217 C 0.31045 0.53149 0.85244 0.0
C218 C 0.31848 0.56402 0.87163 0.0
C219 C 0.27274 0.56726 0.87713 0.0
C220 C 0.12464 0.54528 0.94131 0.0
C221 C 0.16328 0.54266 0.95595 0.0
C222 C 0.16311 0.54565 0.98257 0.0
C223 C 0.12483 0.55185 -0.00496 0.0
C224 C 1.08702 0.55533 0.98059 0.0
C225 C 1.08673 0.55191 0.95401 0.0
C226 C 1.02156 0.52236 0.86172 0.0
C227 C 0.96426 0.49119 0.87397 0.0
C228 C 0.35322 0.73838 0.4294 0.0
C229 C 0.3465 0.76129 0.44962 0.0
C230 C 0.29104 0.73305 0.46295 0.0
C231 C 0.24215 0.68333 0.45528 0.0
H232 H 0.09882 0.4988 0.47087 0.0
H233 H 1.01822 0.4157 0.48815 0.0
H234 H 0.91103 0.37223 0.41986 0.0
H235 H 0.98955 0.45394 0.40274 0.0
H236 H 0.09589 0.48728 0.35191 0.0
H237 H 0.09718 0.48412 0.30536 0.0
H238 H 0.19351 0.64163 0.30431 0.0
H239 H 0.1945 0.64548 0.35095 0.0
H240 H 0.31099 0.67361 0.40531 0.0
H241 H 0.39549 0.75921 0.41892 0.0
H242 H 0.28487 0.75004 0.47864 0.0
H243 H 0.19896 0.66313 0.465 0.0
N244 N 0.14913 0.57276 0.43514 0.0
N245 N 0.10172 0.52863 0.39641 0.0
N246 N 0.19229 0.611 0.39594 0.0
C247 C 0.10209 0.52983 0.42227 0.0
C248 C 0.14622 0.56888 0.38315 0.0
C249 C 0.19467 0.61361 0.42176 0.0
C250 C 1.05132 0.48318 0.43526 0.0
C251 C 1.05753 0.47188 0.4598 0.0
C252 C 1.01158 0.42438 0.46967 0.0
C253 C 0.95871 0.38762 0.45518 0.0
C254 C 0.95136 0.39979 0.43133 0.0
C255 C 0.99675 0.44675 0.42155 0.0
C256 C 0.14524 0.56665 0.35504 0.0
C257 C 0.1173 0.52123 0.34177 0.0
C258 C 0.1181 0.51937 0.31521 0.0
C259 C 0.14556 0.56266 0.30143 0.0
C260 C 0.17239 0.6079 0.31462 0.0
C261 C 0.17295 0.61001 0.34122 0.0
C262 C 0.24801 0.66146 0.43402 0.0
C263 C 0.30472 0.6893 0.42168 0.0
C264 C 0.60226 0.15459 0.75863 0.0
C265 C 0.61246 0.16209 0.78497 0.0
C266 C 0.62982 0.13826 0.79763 0.0
C267 C 0.63655 0.10712 0.78404 0.0
H268 H 0.62395 0.9791 0.78955 0.0
H269 H 0.62831 0.91915 0.80919 0.0
H270 H 0.67856 0.89319 0.73735 0.0
H271 H 0.67386 0.95243 0.71742 0.0
H272 H 0.64778 0.98532 0.66632 0.0
H273 H 0.64809 0.9907 0.61988 0.0
H274 H 0.65565 0.11678 0.62836 0.0
H275 H 0.65527 0.11197 0.67449 0.0
H276 H 0.60138 0.11938 0.72471 0.0
H277 H 0.58884 0.17264 0.74853 0.0
H278 H 0.63811 0.14379 0.81798 0.0
H279 H 0.65014 0.0893 0.79422 0.0
N280 N 0.63864 0.03587 0.75386 0.0
N281 N 0.65021 1.01117 0.71387 0.0
N282 N 0.64002 0.07197 0.71683 0.0
C283 C 0.6459 1.00697 0.73962 0.0
C284 C 0.64744 0.04371 0.70234 0.0
C285 C 0.63558 0.06849 0.7425 0.0
C286 C 0.64863 0.97082 0.75185 0.0
C287 C 0.63595 0.96071 0.77787 0.0
C288 C 0.63826 0.92638 0.78916 0.0
C289 C 0.65381 0.90183 0.77471 0.0
C290 C 0.66642 0.91173 0.7488 0.0
C291 C 0.66371 0.9457 0.73746 0.0
C292 C 0.65107 0.04798 0.67424 0.0
C293 C 0.65 1.01445 0.65834 0.0
C294 C 0.65024 0.01744 0.63182 0.0
C295 C 0.65184 0.05411 0.62083 0.0
C296 C 0.65447 0.08829 0.63656 0.0
C297 C 0.65401 0.08527 0.66296 0.0
C298 C 0.6269 0.09997 0.75752 0.0
C299 C 0.60958 0.12409 0.74506 0.0
C300 C 0.61598 0.32685 0.09478 0.0
C301 C 0.6046 0.3257 0.12082 0.0
C302 C 0.54435 0.29446 0.12943 0.0
C303 C 0.49595 0.26904 0.11188 0.0
H304 H 0.32488 0.2182 0.11145 0.0
H305 H 0.27335 0.24165 0.13589 0.0
H306 H 0.24414 0.28784 0.06725 0.0
H307 H 0.29317 0.26315 0.04257 0.0
H308 H 0.45851 0.37043 0.02846 0.0
H309 H 0.50755 0.43171 -0.00496 0.0
H310 H 0.52555 0.33759 0.94963 0.0
H311 H 0.47951 0.27727 0.98405 0.0
H312 H 0.57845 0.30617 0.05719 0.0
H313 H 0.66243 0.35055 0.08792 0.0
H314 H 0.535 0.29307 0.14954 0.0
H315 H 0.45009 0.24849 0.11904 0.0
N316 N 0.40504 0.24593 0.07667 0.0
N317 N 0.38513 0.26803 0.0394 0.0
N318 N 0.4773 0.28383 0.04416 0.0
C319 C 0.3668 0.24735 0.06261 0.0
C320 C 0.4396 0.28541 0.02987 0.0
C321 C 0.46027 0.26383 0.0676 0.0
C322 C 0.31583 0.24109 0.07521 0.0
C323 C 0.30513 0.23126 0.10135 0.0
C324 C 0.27558 0.24453 0.11539 0.0
C325 C 0.25753 0.26835 0.10341 0.0
C326 C 0.25926 0.2706 0.07685 0.0
C327 C 0.28761 0.25654 0.06278 0.0
C328 C 0.46487 0.31918 0.00851 0.0
C329 C 0.47271 0.3628 0.01125 0.0
C330 C 0.50082 0.3978 0.99227 0.0
C331 C 0.51984 0.38908 0.96981 0.0
C332 C 0.51108 0.34493 0.96684 0.0
C333 C 0.48471 0.31054 0.98632 0.0
C334 C 0.50748 0.27499 0.08555 0.0
C335 C 0.56779 0.30142 0.07725 0.0
C336 C 0.29193 0.38033 0.13785 0.0
C337 C 0.23815 0.37186 0.13148 0.0
C338 C 0.19011 0.28686 0.11698 0.0
C339 C 0.24796 0.29942 0.11809 0.0
N340 N 0.35622 0.36021 0.12808 0.0
N341 N 0.13438 0.3171 0.11583 0.0
C342 C 0.29933 0.34627 0.12871 0.0
C343 C 0.18615 0.3247 0.12176 0.0
N344 N 0.33633 0.42156 0.15223 0.0
N345 N 0.13953 0.23896 0.11102 0.0
H346 H 0.12963 0.34369 0.11974 0.0
H347 H 0.09734 0.28556 0.10599 0.0
H348 H 0.14189 0.21086 0.10753 0.0
H349 H 0.09521 0.22622 0.11179 0.0
H350 H 0.37419 0.42743 0.15954 0.0
H351 H 0.33195 0.44731 0.15901 0.0
H352 H 0.39595 0.39623 0.13262 0.0
H353 H 0.36494 0.33734 0.12117 0.0
C354 C 0.86711 0.24768 0.45613 0.0
C355 C 0.8145 0.23133 0.47015 0.0
C356 C 0.85896 0.31893 0.47632 0.0
C357 C 0.91246 0.33493 0.46346 0.0
N358 N 0.97314 0.31542 0.44622 0.0
N359 N 0.76714 0.25275 0.49843 0.0
C360 C 0.91838 0.2995 0.4552 0.0
C361 C 0.81244 0.26743 0.48167 0.0
N362 N 0.86678 0.21427 0.44199 0.0
N363 N 0.85188 0.35282 0.48286 0.0
H364 H 0.73352 0.21585 0.50348 0.0
H365 H 0.76614 0.27753 0.50922 0.0
H366 H 0.88601 0.39092 0.48023 0.0
H367 H 0.81104 0.34292 0.48941 0.0
H368 H 0.90074 0.22469 0.42907 0.0
H369 H 0.82987 0.17634 0.44105 0.0
H370 H 0.98242 0.29162 0.44256 0.0
H371 H 1.01125 0.35299 0.44468 0.0
C372 C 0.62312 0.78152 0.78823 0.0
C373 C 0.6698 0.79876 0.80637 0.0
C374 C 0.70668 0.88377 0.80352 0.0
C375 C 0.65769 0.86602 0.78662 0.0
N376 N 0.56203 0.79668 0.76703 0.0
N377 N 0.74716 0.86363 0.83556 0.0
C378 C 0.61365 0.81441 0.78024 0.0
C379 C 0.70891 0.84914 0.81532 0.0
N380 N 0.58951 0.73442 0.77782 0.0
N381 N 0.75255 0.93384 0.80747 0.0
H382 H 0.74954 0.83917 0.84489 0.0
H383 H 0.77214 0.89853 0.84462 0.0
H384 H 0.75293 0.96052 0.7991 0.0
H385 H 0.7928 0.94904 0.81728 0.0
H386 H 0.55955 0.72162 0.7625 0.0
H387 H 0.59511 0.70923 0.78308 0.0
H388 H 0.52531 0.75889 0.76408 0.0
H389 H 0.55343 0.81964 0.76102 0.0
C390 C 0.73353 0.45262 0.14871 0.0
C391 C 0.77005 0.44304 0.15932 0.0
C392 C 0.69036 0.35361 0.15038 0.0
C393 C 0.65582 0.36367 0.13809 0.0
N394 N 0.63514 0.41908 0.13138 0.0
N395 N 0.7786 0.38538 0.17677 0.0
C396 C 0.67426 0.41207 0.13936 0.0
C397 C 0.74658 0.39361 0.16246 0.0
N398 N 0.75706 0.50071 0.14634 0.0
N399 N 0.67058 0.30635 0.14943 0.0
H400 H 0.82029 0.41432 0.18549 0.0
H401 H 0.76202 0.3502 0.18171 0.0
H402 H 0.62857 0.27623 0.1414 0.0
H403 H 0.69627 0.29705 0.1557 0.0
H404 H 0.7363 0.5109 0.13586 0.0
H405 H 0.79925 0.53104 0.15414 0.0
H406 H 0.64339 0.45243 0.13392 0.0
H407 H 0.59172 0.39024 0.12399 0.0
C408 C 0.48566 0.88466 0.4807 0.0
C409 C 0.5 0.91919 0.46187 0.0
C410 C 0.40764 0.85076 0.43782 0.0
C411 C 0.39674 0.81584 0.45522 0.0
N412 N 0.43121 0.79836 0.49096 0.0
N413 N 0.48308 0.93038 0.41877 0.0
C414 C 0.43737 0.83248 0.47606 0.0
C415 C 0.46314 0.90099 0.43944 0.0
N416 N 0.51654 0.90134 0.50341 0.0
N417 N 0.36463 0.83605 0.41973 0.0
H418 H 0.5257 0.96583 0.41808 0.0
H419 H 0.46081 0.91726 0.40116 0.0
H420 H 0.32337 0.79964 0.41794 0.0
H421 H 0.36733 0.861 0.40823 0.0
H422 H 0.50311 0.87856 0.51884 0.0
H423 H 0.55275 0.93857 0.50781 0.0
H424 H 0.46378 0.80768 0.50439 0.0
H425 H 0.39579 0.76009 0.48851 0.0
C426 C 0.63209 0.27751 0.80144 0.0
C427 C 0.58278 0.25823 0.81829 0.0
C428 C 0.55469 0.17594 0.81478 0.0
C429 C 0.60556 0.19578 0.79881 0.0
N430 N 0.70113 0.26771 0.78224 0.0
N431 N 0.50661 0.19292 0.84584 0.0
C432 C 0.64705 0.2474 0.79389 0.0
C433 C 0.5471 0.20859 0.82652 0.0
N434 N 0.66257 0.32349 0.79153 0.0
N435 N 0.51193 0.12568 0.81773 0.0
H436 H 0.50042 0.21608 0.85501 0.0
H437 H 0.48364 0.15876 0.85438 0.0
H438 H 0.51567 0.10044 0.80947 0.0
H439 H 0.47041 0.10864 0.82672 0.0
H440 H 0.69435 0.33713 0.77703 0.0
H441 H 0.65256 0.34653 0.7962 0.0
H442 H 0.73588 0.30589 0.78038 0.0
H443 H 0.7137 0.24671 0.77667 0.0
C444 C 0.63724 0.79868 0.50591 0.0
C445 C 0.69076 0.84667 0.51405 0.0
C446 C 0.72816 0.80951 0.53498 0.0
C447 C 0.67186 0.76148 0.52928 0.0
N448 N 0.56971 0.70953 0.51188 0.0
N449 N 0.78248 0.89777 0.53992 0.0
C450 C 0.62551 0.75576 0.51535 0.0
C451 C 0.73509 0.85213 0.52951 0.0
N452 N 0.59854 0.79423 0.48867 0.0
N453 N 0.77551 0.81437 0.54513 0.0
H454 H 0.78896 0.92998 0.53669 0.0
H455 H 0.81228 0.90302 0.5536 0.0
H456 H 0.7722 0.78395 0.54941 0.0
H457 H 0.81965 0.84834 0.54713 0.0
H458 H 0.56213 0.76054 0.47999 0.0
H459 H 0.60571 0.82489 0.48142 0.0
H460 H 0.53186 0.70347 0.50442 0.0
H461 H 0.55993 0.67724 0.51817 0.0
C462 C 0.82586 0.5653 0.86026 0.0
C463 C 0.77338 0.5307 0.84418 0.0
C464 C 0.81898 0.49113 0.83284 0.0
C465 C 0.87309 0.52793 0.84731 0.0
N466 N 0.93097 0.60507 0.87166 0.0
N467 N 0.72968 0.46797 0.81047 0.0
C468 C 0.87731 0.56657 0.85988 0.0
C469 C 0.77263 0.49548 0.82931 0.0
N470 N 0.8257 0.59529 0.87732 0.0
N471 N 0.81133 0.45138 0.82242 0.0
H472 H 0.69788 0.47205 0.806 0.0
H473 H 0.72995 0.44539 0.79731 0.0
H474 H 0.84498 0.44818 0.82327 0.0
H475 H 0.77015 0.42003 0.81454 0.0
H476 H 0.85843 0.61637 0.89166 0.0
H477 H 0.78995 0.59574 0.87906 0.0
H478 H 0.94043 0.63766 0.87825 0.0
H479 H 0.96816 0.60631 0.87305 0.0
C480 C 0.30467 0.74944 0.17761 0.0
C481 C 0.29453 0.7237 0.15419 0.0
C482 C 0.39158 0.79995 0.13821 0.0
C483 C 0.39916 0.82639 0.16093 0.0
N484 N 0.35608 0.82891 0.19989 0.0
N485 N 0.32305 0.72697 0.1105 0.0
C486 C 0.35345 0.80186 0.17986 0.0
C487 C 0.33656 0.74971 0.13399 0.0
N488 N 0.27005 0.72347 0.1983 0.0
N489 N 0.43789 0.82222 0.12104 0.0
H490 H 0.28345 0.69048 0.10665 0.0
H491 H 0.34829 0.74549 0.09432 0.0
H492 H 0.47814 0.85904 0.12326 0.0
H493 H 0.43833 0.80326 0.10558 0.0
H494 H 0.27979 0.73941 0.21655 0.0
H495 H 0.23528 0.68494 0.19789 0.0
H496 H 0.32087 0.81414 0.21286 0.0
H497 H 0.39083 0.86734 0.20212 0.0
C498 C 0.56154 0.29504 0.49726 0.0
C499 C 0.61096 0.30142 0.48559 0.0
C500 C 0.67869 0.39138 0.49513 0.0
C501 C 0.6309 0.38416 0.50896 0.0
N502 N 0.52805 0.32985 0.52476 0.0
N503 N 0.71703 0.35404 0.4741 0.0
C504 C 0.57245 0.33621 0.51028 0.0
C505 C 0.66966 0.34926 0.48457 0.0
N506 N 0.50411 0.24958 0.49577 0.0
N507 N 0.73236 0.43862 0.49188 0.0
H508 H 0.71142 0.32444 0.46513 0.0
H509 H 0.76242 0.38652 0.47535 0.0
H510 H 0.74082 0.4701 0.49986 0.0
H511 H 0.76694 0.4472 0.47992 0.0
H512 H 0.4649 0.24353 0.50129 0.0
H513 H 0.49472 0.21804 0.48734 0.0
H514 H 0.48706 0.29526 0.5292 0.0
H515 H 0.53343 0.35935 0.53372 0.0
C516 C 0.45533 0.55175 0.82899 0.0
C517 C 0.45717 0.52072 0.84522 0.0
C518 C 0.35657 0.49026 0.86238 0.0
C519 C 0.35923 0.52582 0.84857 0.0
N520 N 0.41733 0.59552 0.82103 0.0
N521 N 0.41026 0.46543 0.88072 0.0
C522 C 0.4106 0.55808 0.83264 0.0
C523 C 0.4076 0.49103 0.86265 0.0
N524 N 0.49386 0.57289 0.80879 0.0
N525 N 0.30459 0.455 0.87532 0.0
H526 H 0.44571 0.46473 0.88228 0.0
H527 H 0.38012 0.4486 0.89586 0.0
H528 H 0.2675 0.45404 0.87628 0.0
H529 H 0.29604 0.42423 0.88316 0.0
H530 H 0.49164 0.59229 0.79499 0.0
H531 H 0.5229 0.56574 0.80398 0.0
H532 H 0.45709 0.62413 0.8118 0.0
H533 H 0.38481 0.60002 0.8223 0.0
C534 C 0.92918 0.39104 0.14119 0.0
C535 C 0.9886 0.40984 0.1486 0.0
C536 C 0.94413 0.32441 0.15929 0.0
C537 C 0.88456 0.30775 0.15566 0.0
N538 N 0.81912 0.32459 0.14347 0.0
N539 N 1.05094 0.39378 0.16736 0.0
C540 C 0.8768 0.3409 0.14654 0.0
C541 C 0.99577 0.37619 0.15798 0.0
N542 N 0.92291 0.42061 0.12822 0.0
N543 N 0.9514 0.29048 0.16398 0.0
H544 H 1.09 0.43093 0.16716 0.0
H545 H 1.05712 0.37221 0.17735 0.0
H546 H 0.91463 0.25254 0.16552 0.0
H547 H 0.99359 0.29905 0.1639 0.0
H548 H 0.88207 0.40814 0.12014 0.0
H549 H 0.95986 0.45672 0.12329 0.0
H550 H 0.80964 0.34774 0.13937 0.0
H551 H 0.78007 0.28776 0.14619 0.0
C552 C 1.07549 0.50858 0.0631 0.0
C553 C 0.11164 0.55494 0.0769 0.0
C554 C 0.16162 0.59853 0.03725 0.0
C555 C 0.12215 0.55266 0.02332 0.0
N556 N 1.03675 0.46455 0.02219 0.0
N557 N 0.17873 0.64471 0.07617 0.0
C558 C 1.07777 0.50781 0.03605 0.0
C559 C 0.15231 0.60017 0.06377 0.0
N560 N 1.04013 0.4651 0.07589 0.0
N561 N 0.2082 0.64058 0.02513 0.0
H562 H 0.17061 0.6477 0.09518 0.0
H563 H 0.20375 0.67845 0.06701 0.0
H564 H 0.21522 0.64111 0.00559 0.0
H565 H 0.24272 0.6739 0.0347 0.0
H566 H 1.01865 0.43025 0.06732 0.0
H567 H 1.03553 0.46395 0.09553 0.0
H568 H 0.99848 0.43189 0.02996 0.0
H569 H 1.03859 0.46197 0.00245 0.0
C570 C 0.68424 0.11435 0.38592 0.0
C571 C 0.67299 0.07414 0.3985 0.0
C572 C 0.65262 0.03074 0.35744 0.0
C573 C 0.65846 0.06899 0.34512 0.0
N574 N 0.66561 0.14118 0.34843 0.0
N575 N 0.6369 0.99031 0.39695 0.0
C576 C 0.66995 0.109 0.35962 0.0
C577 C 0.65385 0.031 0.38448 0.0
N578 N 0.71082 0.15842 0.39878 0.0
N579 N 0.64934 0.99573 0.34337 0.0
H580 H 0.63903 0.9896 0.41669 0.0
H581 H 0.616 0.95592 0.3879 0.0
H582 H 0.64986 0.99488 0.32355 0.0
H583 H 0.65169 0.97025 0.35131 0.0
H584 H 0.72589 0.19066 0.38992 0.0
H585 H 0.72311 0.16407 0.41792 0.0
H586 H 0.66758 0.16803 0.35865 0.0
H587 H 0.65384 0.13778 0.32931 0.0
C588 C 0.64133 0.57804 0.76102 0.0
C589 C 0.62232 0.53284 0.77065 0.0
C590 C 0.62142 0.50395 0.72761 0.0
C591 C 0.64509 0.55072 0.71814 0.0
N592 N 0.69167 0.6365 0.72693 0.0
N593 N 0.61065 0.45884 0.76412 0.0
C594 C 0.65952 0.58918 0.73522 0.0
C595 C 0.61779 0.49779 0.75426 0.0
N596 N 0.63934 0.60925 0.7761 0.0
N597 N 0.59883 0.46438 0.7113 0.0
H598 H 0.60883 0.45349 0.78361 0.0
H599 H 0.61305 0.43502 0.75311 0.0
H600 H 0.59761 0.46624 0.69161 0.0
H601 H 0.57541 0.42831 0.71744 0.0
H602 H 0.64666 0.64023 0.76933 0.0
H603 H 0.62518 0.60167 0.79492 0.0
H604 H 0.70818 0.66684 0.7391 0.0
H605 H 0.70709 0.64625 0.7083 0.0
C606 C 0.58606 0.02621 0.55376 0.0
C607 C 0.63698 0.06813 0.54078 0.0
C608 C 0.70027 0.09318 0.57911 0.0
C609 C 0.64761 0.05575 0.59282 0.0
N610 N 0.53844 0.99042 0.59425 0.0
N611 N 0.73996 0.14757 0.54356 0.0
C612 C 0.58997 0.02317 0.58042 0.0
C613 C 0.69373 0.10305 0.55397 0.0
N614 N 0.53431 0.98831 0.54064 0.0
N615 N 0.75665 0.11947 0.59017 0.0
H616 H 0.73616 0.1588 0.52625 0.0
H617 H 0.77972 0.17611 0.55349 0.0
H618 H 0.76287 0.11346 0.60867 0.0
H619 H 0.79714 0.1436 0.5802 0.0
H620 H 0.49884 0.95463 0.54871 0.0
H621 H 0.52905 0.98782 0.52107 0.0
H622 H 0.49449 0.97028 0.58682 0.0
H623 H 0.5393 0.98616 0.61373 0.0
C624 C 0.63501 0.48222 0.92109 0.0
C625 C 0.60483 0.49877 0.91156 0.0
C626 C 0.51755 0.44068 0.93864 0.0
C627 C 0.54932 0.42672 0.94963 0.0
N628 N 0.64521 0.44468 0.95597 0.0
N629 N 0.5277 0.50615 0.91823 0.0
C630 C 0.61021 0.4506 0.94226 0.0
C631 C 0.54917 0.48174 0.92244 0.0
N632 N 0.68581 0.49479 0.90944 0.0
N633 N 0.45658 0.41364 0.94272 0.0
H634 H 0.55104 0.5378 0.90726 0.0
H635 H 0.49038 0.4981 0.92785 0.0
H636 H 0.43076 0.38172 0.9535 0.0
H637 H 0.43062 0.41997 0.93315 0.0
H638 H 0.70513 0.47883 0.91371 0.0
H639 H 0.70581 0.51825 0.89416 0.0
H640 H 0.69169 0.46516 0.95287 0.0
H641 H 0.62949 0.42321 0.97212 0.0
C642 C 0.20175 0.58497 0.23294 0.0
C643 C 0.14549 0.55058 0.21957 0.0
C644 C 1.08996 0.53039 0.25939 0.0
C645 C 0.14604 0.56027 0.27314 0.0
N646 N 0.25531 0.60861 0.27325 0.0
N647 N 1.0371 0.48187 0.22089 0.0
C648 C 0.2021 0.58583 0.25999 0.0
C649 C 1.08983 0.52075 0.23301 0.0
N650 N 0.25492 0.61667 0.21989 0.0
N651 N 1.03696 0.51231 0.27137 0.0
H652 H 1.03588 0.47201 0.20193 0.0
H653 H 0.99624 0.45612 0.23034 0.0
H654 H 1.03539 0.51968 0.29058 0.0
H655 H 0.99577 0.49443 0.26168 0.0
H656 H 0.29602 0.64642 0.22859 0.0
H657 H 0.25729 0.61564 0.20012 0.0
H658 H 0.29647 0.62319 0.2646 0.0
H659 H 0.25742 0.60883 0.29303 0.0
loop_
_geom_bond_atom_site_label_1
_geom_bond_atom_site_label_2
_geom_bond_distance
_geom_bond_site_symmetry_2
_ccdc_geom_bond_type
La0 C2 2.928 . S
La0 O20 2.521 . S
La0 O21 2.628 . S
La0 O22 2.554 . S
La0 O23 2.757 . S
La0 O24 2.470 . S
La0 O29 2.482 . S
La0 O31 2.503 1_455 S
La1 C11 2.928 . S
La1 O23 2.482 1_655 S
La1 O25 2.503 1_655 S
La1 O26 2.521 . S
La1 O27 2.628 . S
La1 O28 2.554 . S
La1 O29 2.757 1_655 S
La1 O30 2.470 . S
C2 La0 2.928 . S
C2 C3 1.503 . S
C2 O20 1.261 . S
C2 O21 1.243 . S
C3 C2 1.503 . S
C3 C4 1.394 . S
C3 C8 1.373 . S
C4 C3 1.394 . S
C4 C5 1.380 . S
C4 H32 0.930 . S
C5 C4 1.380 . S
C5 C6 1.376 . S
C5 H33 0.930 . S
C6 C5 1.376 . S
C6 C7 1.370 . S
C7 C6 1.370 . S
C7 C8 1.396 . S
C7 H34 0.929 . S
C8 C3 1.373 . S
C8 C7 1.396 . S
C8 H35 0.929 . S
C9 O22 1.240 . S
C9 O23 1.289 . S
C10 O24 1.258 . S
C10 O25 1.256 . S
C11 La1 2.928 . S
C11 C12 1.503 . S
C11 O26 1.261 . S
C11 O27 1.243 . S
C12 C11 1.503 . S
C12 C13 1.394 . S
C12 C17 1.373 . S
C13 C12 1.394 . S
C13 C14 1.380 . S
C13 H36 0.930 . S
C14 C13 1.380 . S
C14 C15 1.376 . S
C14 H37 0.930 . S
C15 C14 1.376 . S
C15 C16 1.370 . S
C16 C15 1.370 . S
C16 C17 1.396 . S
C16 H38 0.929 . S
C17 C12 1.373 . S
C17 C16 1.396 . S
C17 H39 0.929 . S
C18 O28 1.240 1_455 S
C18 O29 1.289 . S
C19 O30 1.258 . S
C19 O31 1.256 . S
O20 La0 2.521 . S
O20 C2 1.261 . S
O21 La0 2.628 . S
O21 C2 1.243 . S
O22 La0 2.554 . S
O22 C9 1.240 . S
O23 La0 2.757 . S
O23 La1 2.482 1_455 S
O23 C9 1.289 . S
O24 La0 2.470 . S
O24 C10 1.258 . S
O25 La1 2.503 1_455 S
O25 C10 1.256 . S
O26 La1 2.521 . S
O26 C11 1.261 . S
O27 La1 2.628 . S
O27 C11 1.243 . S
O28 La1 2.554 . S
O28 C18 1.240 1_655 S
O29 La0 2.482 . S
O29 La1 2.757 1_455 S
O29 C18 1.289 . S
O30 La1 2.470 . S
O30 C19 1.258 . S
O31 La0 2.503 1_655 S
O31 C19 1.256 . S
H32 C4 0.930 . S
H33 C5 0.930 . S
H34 C7 0.929 . S
H35 C8 0.929 . S
H36 C13 0.930 . S
H37 C14 0.930 . S
H38 C16 0.929 . S
H39 C17 0.929 . S
La40 C42 2.928 . S
La40 O60 2.521 . S
La40 O61 2.628 . S
La40 O62 2.554 . S
La40 O63 2.757 1_565 S
La40 O64 2.470 . S
La40 O69 2.482 . S
La40 O71 2.503 1_565 S
La41 C51 2.928 . S
La41 O63 2.482 . S
La41 O65 2.503 1_545 S
La41 O66 2.521 . S
La41 O67 2.628 . S
La41 O68 2.554 . S
La41 O69 2.757 1_545 S
La41 O70 2.470 . S
C42 La40 2.928 . S
C42 C43 1.503 . S
C42 O60 1.261 . S
C42 O61 1.243 . S
C43 C42 1.503 . S
C43 C44 1.394 . S
C43 C48 1.373 . S
C44 C43 1.394 . S
C44 C45 1.380 . S
C44 H72 0.930 . S
C45 C44 1.380 . S
C45 C46 1.376 . S
C45 H73 0.930 . S
C46 C45 1.376 . S
C46 C47 1.370 . S
C47 C46 1.370 . S
C47 C48 1.396 . S
C47 H74 0.929 . S
C48 C43 1.373 . S
C48 C47 1.396 . S
C48 H75 0.929 . S
C49 O62 1.240 1_545 S
C49 O63 1.289 . S
C50 O64 1.258 . S
C50 O65 1.256 . S
C51 La41 2.928 . S
C51 C52 1.503 . S
C51 O66 1.261 . S
C51 O67 1.243 . S
C52 C51 1.503 . S
C52 C53 1.394 . S
C52 C57 1.373 . S
C53 C52 1.394 . S
C53 C54 1.380 . S
C53 H76 0.930 . S
C54 C53 1.380 . S
C54 C55 1.376 . S
C54 H77 0.930 . S
C55 C54 1.376 . S
C55 C56 1.370 . S
C56 C55 1.370 . S
C56 C57 1.396 . S
C56 H78 0.929 . S
C57 C52 1.373 . S
C57 C56 1.396 . S
C57 H79 0.929 . S
C58 O68 1.240 . S
C58 O69 1.289 1_545 S
C59 O70 1.258 . S
C59 O71 1.256 . S
O60 La40 2.521 . S
O60 C42 1.261 . S
O61 La40 2.628 . S
O61 C42 1.243 . S
O62 La40 2.554 . S
O62 C49 1.240 1_565 S
O63 La40 2.757 1_545 S
O63 La41 2.482 . S
O63 C49 1.289 . S
O64 La40 2.470 . S
O64 C50 1.258 . S
O65 La41 2.503 1_565 S
O65 C50 1.256 . S
O66 La41 2.521 . S
O66 C51 1.261 . S
O67 La41 2.628 . S
O67 C51 1.243 . S
O68 La41 2.554 . S
O68 C58 1.240 . S
O69 La40 2.482 . S
O69 La41 2.757 1_565 S
O69 C58 1.289 1_565 S
O70 La41 2.470 . S
O70 C59 1.258 . S
O71 La40 2.503 1_545 S
O71 C59 1.256 . S
H72 C44 0.930 . S
H73 C45 0.930 . S
H74 C47 0.929 . S
H75 C48 0.929 . S
H76 C53 0.930 . S
H77 C54 0.930 . S
H78 C56 0.929 . S
H79 C57 0.929 . S
La80 C82 2.928 . S
La80 O100 2.521 . S
La80 O101 2.628 . S
La80 O102 2.554 . S
La80 O103 2.757 . S
La80 O104 2.470 . S
La80 O109 2.482 . S
La80 O111 2.503 . S
La81 C91 2.928 . S
La81 O103 2.482 . S
La81 O105 2.503 . S
La81 O106 2.521 . S
La81 O107 2.628 . S
La81 O108 2.554 . S
La81 O109 2.757 . S
La81 O110 2.470 . S
C82 La80 2.928 . S
C82 C83 1.503 . S
C82 O100 1.261 . S
C82 O101 1.243 . S
C83 C82 1.503 . S
C83 C84 1.394 . S
C83 C88 1.373 . S
C84 C83 1.394 . S
C84 C85 1.380 . S
C84 H112 0.930 . S
C85 C84 1.380 . S
C85 C86 1.376 . S
C85 H113 0.930 . S
C86 C85 1.376 . S
C86 C87 1.370 . S
C87 C86 1.370 . S
C87 C88 1.396 . S
C87 H114 0.929 . S
C88 C83 1.373 . S
C88 C87 1.396 . S
C88 H115 0.929 . S
C89 O102 1.240 . S
C89 O103 1.289 . S
C90 O104 1.258 . S
C90 O105 1.256 . S
C91 La81 2.928 . S
C91 C92 1.503 . S
C91 O106 1.261 . S
C91 O107 1.243 . S
C92 C91 1.503 . S
C92 C93 1.394 . S
C92 C97 1.373 . S
C93 C92 1.394 . S
C93 C94 1.380 . S
C93 H116 0.930 . S
C94 C93 1.380 . S
C94 C95 1.376 . S
C94 H117 0.930 . S
C95 C94 1.376 . S
C95 C96 1.370 . S
C96 C95 1.370 . S
C96 C97 1.396 . S
C96 H118 0.929 . S
C97 C92 1.373 . S
C97 C96 1.396 . S
C97 H119 0.929 . S
C98 O108 1.240 . S
C98 O109 1.289 . S
C99 O110 1.258 . S
C99 O111 1.256 . S
O100 La80 2.521 . S
O100 C82 1.261 . S
O101 La80 2.628 . S
O101 C82 1.243 . S
O102 La80 2.554 . S
O102 C89 1.240 . S
O103 La80 2.757 . S
O103 La81 2.482 . S
O103 C89 1.289 . S
O104 La80 2.470 . S
O104 C90 1.258 . S
O105 La81 2.503 . S
O105 C90 1.256 . S
O106 La81 2.521 . S
O106 C91 1.261 . S
O107 La81 2.628 . S
O107 C91 1.243 . S
O108 La81 2.554 . S
O108 C98 1.240 . S
O109 La80 2.482 . S
O109 La81 2.757 . S
O109 C98 1.289 . S
O110 La81 2.470 . S
O110 C99 1.258 . S
O111 La80 2.503 . S
O111 C99 1.256 . S
H112 C84 0.930 . S
H113 C85 0.930 . S
H114 C87 0.929 . S
H115 C88 0.929 . S
H116 C93 0.930 . S
H117 C94 0.930 . S
H118 C96 0.929 . S
H119 C97 0.929 . S
C120 C121 1.384 . S
C120 H133 0.947 . S
C120 C155 1.382 . S
C121 C120 1.384 . S
C121 C122 1.378 . S
C122 C121 1.378 . S
C122 C123 1.378 . S
C122 H134 0.952 . S
C123 C122 1.378 . S
C123 H135 0.950 . S
C123 C154 1.383 . S
H124 C143 0.947 . S
H125 C144 0.946 . S
H126 C146 0.953 . S
H127 C147 0.945 . S
H128 C149 0.952 . S
H129 C150 0.949 . S
H130 C152 0.950 . S
H131 C153 0.948 . S
H132 C155 0.951 . S
H133 C120 0.947 . S
H134 C122 0.952 . S
H135 C123 0.950 . S
N136 C139 1.382 . S
N136 C141 1.363 1_545 S
N137 C139 1.371 . S
N137 C140 1.372 . S
N138 C140 1.361 1_565 S
N138 C141 1.377 . S
C139 N136 1.382 . S
C139 N137 1.371 . S
C139 C142 1.480 . S
C140 N137 1.372 . S
C140 N138 1.361 1_545 S
C140 C148 1.457 . S
C141 N136 1.363 1_565 S
C141 N138 1.377 . S
C141 C154 1.479 . S
C142 C139 1.480 . S
C142 C143 1.383 . S
C142 C147 1.385 . S
C143 H124 0.947 . S
C143 C142 1.383 . S
C143 C144 1.388 . S
C144 H125 0.946 . S
C144 C143 1.388 . S
C144 C145 1.384 . S
C145 C144 1.384 . S
C145 C146 1.377 . S
C146 H126 0.953 . S
C146 C145 1.377 . S
C146 C147 1.369 . S
C147 H127 0.945 . S
C147 C142 1.385 . S
C147 C146 1.369 . S
C148 C140 1.457 . S
C148 C149 1.372 . S
C148 C153 1.364 1_545 S
C149 H128 0.952 . S
C149 C148 1.372 . S
C149 C150 1.389 . S
C150 H129 0.949 . S
C150 C149 1.389 . S
C150 C151 1.387 . S
C151 C150 1.387 . S
C151 C152 1.372 1_545 S
C152 H130 0.950 . S
C152 C151 1.372 1_565 S
C152 C153 1.379 . S
C153 H131 0.948 . S
C153 C148 1.364 1_565 S
C153 C152 1.379 . S
C154 C123 1.383 . S
C154 C141 1.479 . S
C154 C155 1.398 . S
C155 C120 1.382 . S
C155 H132 0.951 . S
C155 C154 1.398 . S
C156 C157 1.384 . S
C156 H169 0.947 . S
C156 C191 1.382 . S
C157 C156 1.384 . S
C157 C158 1.378 . S
C158 C157 1.378 . S
C158 C159 1.378 . S
C158 H170 0.952 . S
C159 C158 1.378 . S
C159 H171 0.950 . S
C159 C190 1.383 . S
H160 C179 0.947 . S
H161 C180 0.946 . S
H162 C182 0.953 . S
H163 C183 0.945 . S
H164 C185 0.952 . S
H165 C186 0.949 . S
H166 C188 0.950 . S
H167 C189 0.948 . S
H168 C191 0.951 . S
H169 C156 0.947 . S
H170 C158 0.952 . S
H171 C159 0.950 . S
N172 C175 1.382 . S
N172 C177 1.363 . S
N173 C175 1.371 . S
N173 C176 1.372 . S
N174 C176 1.361 . S
N174 C177 1.377 . S
C175 N172 1.382 . S
C175 N173 1.371 . S
C175 C178 1.480 . S
C176 N173 1.372 . S
C176 N174 1.361 . S
C176 C184 1.457 . S
C177 N172 1.363 . S
C177 N174 1.377 . S
C177 C190 1.479 . S
C178 C175 1.480 . S
C178 C179 1.383 . S
C178 C183 1.385 . S
C179 H160 0.947 . S
C179 C178 1.383 . S
C179 C180 1.388 . S
C180 H161 0.946 . S
C180 C179 1.388 . S
C180 C181 1.384 . S
C181 C180 1.384 . S
C181 C182 1.377 . S
C182 H162 0.953 . S
C182 C181 1.377 . S
C182 C183 1.369 . S
C183 H163 0.945 . S
C183 C178 1.385 . S
C183 C182 1.369 . S
C184 C176 1.457 . S
C184 C185 1.372 . S
C184 C189 1.364 . S
C185 H164 0.952 . S
C185 C184 1.372 . S
C185 C186 1.389 . S
C186 H165 0.949 . S
C186 C185 1.389 . S
C186 C187 1.387 . S
C187 C186 1.387 . S
C187 C188 1.372 . S
C188 H166 0.950 . S
C188 C187 1.372 . S
C188 C189 1.379 . S
C189 H167 0.948 . S
C189 C184 1.364 . S
C189 C188 1.379 . S
C190 C159 1.383 . S
C190 C177 1.479 . S
C190 C191 1.398 . S
C191 C156 1.382 . S
C191 H168 0.951 . S
C191 C190 1.398 . S
C192 C193 1.384 . S
C192 H205 0.947 . S
C192 C227 1.382 . S
C193 C192 1.384 . S
C193 C194 1.378 . S
C194 C193 1.378 . S
C194 C195 1.378 . S
C194 H206 0.952 . S
C195 C194 1.378 . S
C195 H207 0.950 . S
C195 C226 1.383 . S
H196 C215 0.947 . S
H197 C216 0.946 . S
H198 C218 0.953 . S
H199 C219 0.945 . S
H200 C221 0.952 . S
H201 C222 0.949 . S
H202 C224 0.976 . S
H203 C225 0.948 . S
H204 C227 0.951 . S
H205 C192 0.947 . S
H206 C194 0.952 . S
H207 C195 0.950 . S
N208 C211 1.382 . S
N208 C213 1.363 . S
N209 C211 1.371 . S
N209 C212 1.372 . S
N210 C212 1.361 . S
N210 C213 1.377 . S
C211 N208 1.382 . S
C211 N209 1.371 . S
C211 C214 1.480 . S
C212 N209 1.372 . S
C212 N210 1.361 . S
C212 C220 1.457 . S
C213 N208 1.363 . S
C213 N210 1.377 . S
C213 C226 1.479 1_455 S
C214 C211 1.480 . S
C214 C215 1.383 . S
C214 C219 1.385 . S
C215 H196 0.947 . S
C215 C214 1.383 . S
C215 C216 1.388 . S
C216 H197 0.946 . S
C216 C215 1.388 . S
C216 C217 1.384 . S
C217 C216 1.384 . S
C217 C218 1.377 . S
C218 H198 0.953 . S
C218 C217 1.377 . S
C218 C219 1.369 . S
C219 H199 0.945 . S
C219 C214 1.385 . S
C219 C218 1.369 . S
C220 C212 1.457 . S
C220 C221 1.372 . S
C220 C225 1.364 1_455 S
C221 H200 0.952 . S
C221 C220 1.372 . S
C221 C222 1.389 . S
C222 H201 0.949 . S
C222 C221 1.389 . S
C222 C223 1.387 . S
C223 C222 1.387 . S
C223 C224 1.347 1_455 S
C224 H202 0.976 . S
C224 C223 1.347 1_655 S
C224 C225 1.379 . S
C225 H203 0.948 . S
C225 C220 1.364 1_655 S
C225 C224 1.379 . S
C226 C195 1.383 . S
C226 C213 1.479 1_655 S
C226 C227 1.398 . S
C227 C192 1.382 . S
C227 H204 0.951 . S
C227 C226 1.398 . S
C228 C229 1.384 . S
C228 H241 0.947 . S
C228 C263 1.382 . S
C229 C228 1.384 . S
C229 C230 1.378 . S
C230 C229 1.378 . S
C230 C231 1.378 . S
C230 H242 0.952 . S
C231 C230 1.378 . S
C231 H243 0.950 . S
C231 C262 1.383 . S
H232 C251 0.947 . S
H233 C252 0.946 . S
H234 C254 0.953 . S
H235 C255 0.945 . S
H236 C257 0.952 . S
H237 C258 0.949 . S
H238 C260 0.950 . S
H239 C261 0.948 . S
H240 C263 0.951 . S
H241 C228 0.947 . S
H242 C230 0.952 . S
H243 C231 0.950 . S
N244 C247 1.382 1_455 S
N244 C249 1.363 . S
N245 C247 1.371 . S
N245 C248 1.372 1_655 S
N246 C248 1.361 . S
N246 C249 1.377 . S
C247 N244 1.382 1_655 S
C247 N245 1.371 . S
C247 C250 1.480 . S
C248 N245 1.372 1_455 S
C248 N246 1.361 . S
C248 C256 1.457 . S
C249 N244 1.363 . S
C249 N246 1.377 . S
C249 C262 1.479 . S
C250 C247 1.480 . S
C250 C251 1.383 . S
C250 C255 1.385 . S
C251 H232 0.947 . S
C251 C250 1.383 . S
C251 C252 1.388 . S
C252 H233 0.946 . S
C252 C251 1.388 . S
C252 C253 1.384 . S
C253 C252 1.384 . S
C253 C254 1.377 . S
C254 H234 0.953 . S
C254 C253 1.377 . S
C254 C255 1.369 . S
C255 H235 0.945 . S
C255 C250 1.385 . S
C255 C254 1.369 . S
C256 C248 1.457 . S
C256 C257 1.372 1_455 S
C256 C261 1.364 . S
C257 H236 0.952 . S
C257 C256 1.372 1_655 S
C257 C258 1.389 . S
C258 H237 0.949 . S
C258 C257 1.389 . S
C258 C259 1.387 1_655 S
C259 C258 1.387 1_455 S
C259 C260 1.372 . S
C260 H238 0.950 . S
C260 C259 1.372 . S
C260 C261 1.379 . S
C261 H239 0.948 . S
C261 C256 1.364 . S
C261 C260 1.379 . S
C262 C231 1.383 . S
C262 C249 1.479 . S
C262 C263 1.398 . S
C263 C228 1.382 . S
C263 H240 0.951 . S
C263 C262 1.398 . S
C264 C265 1.384 . S
C264 H277 0.947 . S
C264 C299 1.382 . S
C265 C264 1.384 . S
C265 C266 1.378 . S
C266 C265 1.378 . S
C266 C267 1.378 . S
C266 H278 0.952 . S
C267 C266 1.378 . S
C267 H279 0.950 . S
C267 C298 1.383 . S
H268 C287 0.947 . S
H269 C288 0.946 . S
H270 C290 0.953 . S
H271 C291 0.945 . S
H272 C293 0.952 . S
H273 C294 0.949 . S
H274 C296 0.950 . S
H275 C297 0.948 . S
H276 C299 0.951 . S
H277 C264 0.947 . S
H278 C266 0.952 . S
H279 C267 0.950 . S
N280 C283 1.382 1_545 S
N280 C285 1.363 . S
N281 C283 1.371 . S
N281 C284 1.372 1_565 S
N282 C284 1.361 . S
N282 C285 1.377 . S
C283 N280 1.382 1_565 S
C283 N281 1.371 . S
C283 C286 1.480 . S
C284 N281 1.372 1_545 S
C284 N282 1.361 . S
C284 C292 1.457 . S
C285 N280 1.363 . S
C285 N282 1.377 . S
C285 C298 1.479 . S
C286 C283 1.480 . S
C286 C287 1.383 . S
C286 C291 1.385 . S
C287 H268 0.947 . S
C287 C286 1.383 . S
C287 C288 1.388 . S
C288 H269 0.946 . S
C288 C287 1.388 . S
C288 C289 1.384 . S
C289 C288 1.384 . S
C289 C290 1.377 . S
C290 H270 0.953 . S
C290 C289 1.377 . S
C290 C291 1.369 . S
C291 H271 0.945 . S
C291 C286 1.385 . S
C291 C290 1.369 . S
C292 C284 1.457 . S
C292 C293 1.372 1_545 S
C292 C297 1.364 . S
C293 H272 0.952 . S
C293 C292 1.372 1_565 S
C293 C294 1.389 . S
C294 H273 0.949 . S
C294 C293 1.389 . S
C294 C295 1.387 . S
C295 C294 1.387 . S
C295 C296 1.372 1_565 S
C296 H274 0.950 . S
C296 C295 1.372 1_545 S
C296 C297 1.379 . S
C297 H275 0.948 . S
C297 C292 1.364 . S
C297 C296 1.379 . S
C298 C267 1.383 . S
C298 C285 1.479 . S
C298 C299 1.398 . S
C299 C264 1.382 . S
C299 H276 0.951 . S
C299 C298 1.398 . S
C300 C301 1.384 . S
C300 H313 0.947 . S
C300 C335 1.382 . S
C301 C300 1.384 . S
C301 C302 1.378 . S
C302 C301 1.378 . S
C302 C303 1.378 . S
C302 H314 0.952 . S
C303 C302 1.378 . S
C303 H315 0.950 . S
C303 C334 1.383 . S
H304 C323 0.947 . S
H305 C324 0.946 . S
H306 C326 0.953 . S
H307 C327 0.945 . S
H308 C329 0.952 . S
H309 C330 0.949 . S
H310 C332 0.950 . S
H311 C333 0.948 . S
H312 C335 0.951 . S
H313 C300 0.947 . S
H314 C302 0.952 . S
H315 C303 0.950 . S
N316 C319 1.382 . S
N316 C321 1.363 . S
N317 C319 1.371 . S
N317 C320 1.372 . S
N318 C320 1.361 . S
N318 C321 1.377 . S
C319 N316 1.382 . S
C319 N317 1.371 . S
C319 C322 1.480 . S
C320 N317 1.372 . S
C320 N318 1.361 . S
C320 C328 1.457 . S
C321 N316 1.363 . S
C321 N318 1.377 . S
C321 C334 1.479 . S
C322 C319 1.480 . S
C322 C323 1.383 . S
C322 C327 1.385 . S
C323 H304 0.947 . S
C323 C322 1.383 . S
C323 C324 1.388 . S
C324 H305 0.946 . S
C324 C323 1.388 . S
C324 C325 1.384 . S
C325 C324 1.384 . S
C325 C326 1.377 . S
C326 H306 0.953 . S
C326 C325 1.377 . S
C326 C327 1.369 . S
C327 H307 0.945 . S
C327 C322 1.385 . S
C327 C326 1.369 . S
C328 C320 1.457 . S
C328 C329 1.372 . S
C328 C333 1.364 . S
C329 H308 0.952 . S
C329 C328 1.372 . S
C329 C330 1.389 1_554 S
C330 H309 0.949 . S
C330 C329 1.389 1_556 S
C330 C331 1.387 . S
C331 C330 1.387 . S
C331 C332 1.372 . S
C332 H310 0.950 . S
C332 C331 1.372 . S
C332 C333 1.379 1_556 S
C333 H311 0.948 . S
C333 C328 1.364 . S
C333 C332 1.379 1_554 S
C334 C303 1.383 . S
C334 C321 1.479 . S
C334 C335 1.398 . S
C335 C300 1.382 . S
C335 H312 0.951 . S
C335 C334 1.398 . S
C336 C337 1.363 . S
C336 C342 1.379 . S
C336 N344 1.356 . S
C337 C336 1.363 . S
C337 C343 1.363 . S
C338 C339 1.363 . S
C338 C343 1.379 . S
C338 N345 1.356 . S
C339 C338 1.363 . S
C339 C342 1.363 . S
N340 C342 1.356 . S
N340 H352 0.984 . S
N340 H353 0.985 . S
N341 C343 1.356 . S
N341 H346 0.984 . S
N341 H347 0.985 . S
C342 C336 1.379 . S
C342 C339 1.363 . S
C342 N340 1.356 . S
C343 C337 1.363 . S
C343 C338 1.379 . S
C343 N341 1.356 . S
N344 C336 1.356 . S
N344 H350 0.984 . S
N344 H351 0.984 . S
N345 C338 1.356 . S
N345 H348 0.984 . S
N345 H349 0.985 . S
H346 N341 0.984 . S
H347 N341 0.985 . S
H348 N345 0.984 . S
H349 N345 0.985 . S
H350 N344 0.984 . S
H351 N344 0.984 . S
H352 N340 0.984 . S
H353 N340 0.985 . S
C354 C355 1.363 . S
C354 C360 1.379 . S
C354 N362 1.356 . S
C355 C354 1.363 . S
C355 C361 1.363 . S
C356 C357 1.363 . S
C356 C361 1.379 . S
C356 N363 1.356 . S
C357 C356 1.363 . S
C357 C360 1.363 . S
N358 C360 1.356 . S
N358 H370 0.984 . S
N358 H371 0.985 . S
N359 C361 1.356 . S
N359 H364 0.984 . S
N359 H365 0.985 . S
C360 C354 1.379 . S
C360 C357 1.363 . S
C360 N358 1.356 . S
C361 C355 1.363 . S
C361 C356 1.379 . S
C361 N359 1.356 . S
N362 C354 1.356 . S
N362 H368 0.984 . S
N362 H369 0.984 . S
N363 C356 1.356 . S
N363 H366 0.984 . S
N363 H367 0.985 . S
H364 N359 0.984 . S
H365 N359 0.985 . S
H366 N363 0.984 . S
H367 N363 0.985 . S
H368 N362 0.984 . S
H369 N362 0.984 . S
H370 N358 0.984 . S
H371 N358 0.985 . S
C372 C373 1.363 . S
C372 C378 1.379 . S
C372 N380 1.356 . S
C373 C372 1.363 . S
C373 C379 1.363 . S
C374 C375 1.363 . S
C374 C379 1.379 . S
C374 N381 1.356 . S
C375 C374 1.363 . S
C375 C378 1.363 . S
N376 C378 1.356 . S
N376 H388 0.984 . S
N376 H389 0.985 . S
N377 C379 1.356 . S
N377 H382 0.984 . S
N377 H383 0.985 . S
C378 C372 1.379 . S
C378 C375 1.363 . S
C378 N376 1.356 . S
C379 C373 1.363 . S
C379 C374 1.379 . S
C379 N377 1.356 . S
N380 C372 1.356 . S
N380 H386 0.984 . S
N380 H387 0.984 . S
N381 C374 1.356 . S
N381 H384 0.984 . S
N381 H385 0.985 . S
H382 N377 0.984 . S
H383 N377 0.985 . S
H384 N381 0.984 . S
H385 N381 0.985 . S
H386 N380 0.984 . S
H387 N380 0.984 . S
H388 N376 0.984 . S
H389 N376 0.985 . S
C390 C391 1.363 . S
C390 C396 1.379 . S
C390 N398 1.356 . S
C391 C390 1.363 . S
C391 C397 1.363 . S
C392 C393 1.363 . S
C392 C397 1.379 . S
C392 N399 1.356 . S
C393 C392 1.363 . S
C393 C396 1.363 . S
N394 C396 1.356 . S
N394 H406 0.984 . S
N394 H407 0.985 . S
N395 C397 1.356 . S
N395 H400 0.984 . S
N395 H401 0.985 . S
C396 C390 1.379 . S
C396 C393 1.363 . S
C396 N394 1.356 . S
C397 C391 1.363 . S
C397 C392 1.379 . S
C397 N395 1.356 . S
N398 C390 1.356 . S
N398 H404 0.984 . S
N398 H405 0.984 . S
N399 C392 1.356 . S
N399 H402 0.984 . S
N399 H403 0.985 . S
H400 N395 0.984 . S
H401 N395 0.985 . S
H402 N399 0.984 . S
H403 N399 0.985 . S
H404 N398 0.984 . S
H405 N398 0.984 . S
H406 N394 0.984 . S
H407 N394 0.985 . S
C408 C409 1.363 . S
C408 C414 1.379 . S
C408 N416 1.356 . S
C409 C408 1.363 . S
C409 C415 1.363 . S
C410 C411 1.363 . S
C410 C415 1.379 . S
C410 N417 1.356 . S
C411 C410 1.363 . S
C411 C414 1.363 . S
N412 C414 1.356 . S
N412 H424 0.984 . S
N412 H425 0.985 . S
N413 C415 1.356 . S
N413 H418 0.984 . S
N413 H419 0.985 . S
C414 C408 1.379 . S
C414 C411 1.363 . S
C414 N412 1.356 . S
C415 C409 1.363 . S
C415 C410 1.379 . S
C415 N413 1.356 . S
N416 C408 1.356 . S
N416 H422 0.984 . S
N416 H423 0.984 . S
N417 C410 1.356 . S
N417 H420 0.984 . S
N417 H421 0.985 . S
H418 N413 0.984 . S
H419 N413 0.985 . S
H420 N417 0.984 . S
H421 N417 0.985 . S
H422 N416 0.984 . S
H423 N416 0.984 . S
H424 N412 0.984 . S
H425 N412 0.985 . S
C426 C427 1.363 . S
C426 C432 1.379 . S
C426 N434 1.356 . S
C427 C426 1.363 . S
C427 C433 1.363 . S
C428 C429 1.363 . S
C428 C433 1.379 . S
C428 N435 1.356 . S
C429 C428 1.363 . S
C429 C432 1.363 . S
N430 C432 1.356 . S
N430 H442 0.984 . S
N430 H443 0.985 . S
N431 C433 1.356 . S
N431 H436 0.984 . S
N431 H437 0.985 . S
C432 C426 1.379 . S
C432 C429 1.363 . S
C432 N430 1.356 . S
C433 C427 1.363 . S
C433 C428 1.379 . S
C433 N431 1.356 . S
N434 C426 1.356 . S
N434 H440 0.984 . S
N434 H441 0.984 . S
N435 C428 1.356 . S
N435 H438 0.984 . S
N435 H439 0.985 . S
H436 N431 0.984 . S
H437 N431 0.985 . S
H438 N435 0.984 . S
H439 N435 0.985 . S
H440 N434 0.984 . S
H441 N434 0.984 . S
H442 N430 0.984 . S
H443 N430 0.985 . S
C444 C445 1.363 . S
C444 C450 1.379 . S
C444 N452 1.356 . S
C445 C444 1.363 . S
C445 C451 1.363 . S
C446 C447 1.363 . S
C446 C451 1.379 . S
C446 N453 1.356 . S
C447 C446 1.363 . S
C447 C450 1.363 . S
N448 C450 1.356 . S
N448 H460 0.984 . S
N448 H461 0.985 . S
N449 C451 1.356 . S
N449 H454 0.984 . S
N449 H455 0.985 . S
C450 C444 1.379 . S
C450 C447 1.363 . S
C450 N448 1.356 . S
C451 C445 1.363 . S
C451 C446 1.379 . S
C451 N449 1.356 . S
N452 C444 1.356 . S
N452 H458 0.984 . S
N452 H459 0.984 . S
N453 C446 1.356 . S
N453 H456 0.984 . S
N453 H457 0.985 . S
H454 N449 0.984 . S
H455 N449 0.985 . S
H456 N453 0.984 . S
H457 N453 0.985 . S
H458 N452 0.984 . S
H459 N452 0.984 . S
H460 N448 0.984 . S
H461 N448 0.985 . S
C462 C463 1.363 . S
C462 C468 1.379 . S
C462 N470 1.356 . S
C463 C462 1.363 . S
C463 C469 1.363 . S
C464 C465 1.363 . S
C464 C469 1.379 . S
C464 N471 1.356 . S
C465 C464 1.363 . S
C465 C468 1.363 . S
N466 C468 1.356 . S
N466 H478 0.984 . S
N466 H479 0.985 . S
N467 C469 1.356 . S
N467 H472 0.984 . S
N467 H473 0.985 . S
C468 C462 1.379 . S
C468 C465 1.363 . S
C468 N466 1.356 . S
C469 C463 1.363 . S
C469 C464 1.379 . S
C469 N467 1.356 . S
N470 C462 1.356 . S
N470 H476 0.984 . S
N470 H477 0.984 . S
N471 C464 1.356 . S
N471 H474 0.984 . S
N471 H475 0.985 . S
H472 N467 0.984 . S
H473 N467 0.985 . S
H474 N471 0.984 . S
H475 N471 0.985 . S
H476 N470 0.984 . S
H477 N470 0.984 . S
H478 N466 0.984 . S
H479 N466 0.985 . S
C480 C481 1.363 . S
C480 C486 1.379 . S
C480 N488 1.356 . S
C481 C480 1.363 . S
C481 C487 1.363 . S
C482 C483 1.363 . S
C482 C487 1.379 . S
C482 N489 1.356 . S
C483 C482 1.363 . S
C483 C486 1.363 . S
N484 C486 1.356 . S
N484 H496 0.984 . S
N484 H497 0.985 . S
N485 C487 1.356 . S
N485 H490 0.984 . S
N485 H491 0.985 . S
C486 C480 1.379 . S
C486 C483 1.363 . S
C486 N484 1.356 . S
C487 C481 1.363 . S
C487 C482 1.379 . S
C487 N485 1.356 . S
N488 C480 1.356 . S
N488 H494 0.984 . S
N488 H495 0.984 . S
N489 C482 1.356 . S
N489 H492 0.984 . S
N489 H493 0.985 . S
H490 N485 0.984 . S
H491 N485 0.985 . S
H492 N489 0.984 . S
H493 N489 0.985 . S
H494 N488 0.984 . S
H495 N488 0.984 . S
H496 N484 0.984 . S
H497 N484 0.985 . S
C498 C499 1.363 . S
C498 C504 1.379 . S
C498 N506 1.356 . S
C499 C498 1.363 . S
C499 C505 1.363 . S
C500 C501 1.363 . S
C500 C505 1.379 . S
C500 N507 1.356 . S
C501 C500 1.363 . S
C501 C504 1.363 . S
N502 C504 1.356 . S
N502 H514 0.984 . S
N502 H515 0.985 . S
N503 C505 1.356 . S
N503 H508 0.984 . S
N503 H509 0.985 . S
C504 C498 1.379 . S
C504 C501 1.363 . S
C504 N502 1.356 . S
C505 C499 1.363 . S
C505 C500 1.379 . S
C505 N503 1.356 . S
N506 C498 1.356 . S
N506 H512 0.984 . S
N506 H513 0.984 . S
N507 C500 1.356 . S
N507 H510 0.984 . S
N507 H511 0.985 . S
H508 N503 0.984 . S
H509 N503 0.985 . S
H510 N507 0.984 . S
H511 N507 0.985 . S
H512 N506 0.984 . S
H513 N506 0.984 . S
H514 N502 0.984 . S
H515 N502 0.985 . S
C516 C517 1.363 . S
C516 C522 1.379 . S
C516 N524 1.356 . S
C517 C516 1.363 . S
C517 C523 1.363 . S
C518 C519 1.363 . S
C518 C523 1.379 . S
C518 N525 1.356 . S
C519 C518 1.363 . S
C519 C522 1.363 . S
N520 C522 1.356 . S
N520 H532 0.984 . S
N520 H533 0.985 . S
N521 C523 1.356 . S
N521 H526 0.984 . S
N521 H527 0.985 . S
C522 C516 1.379 . S
C522 C519 1.363 . S
C522 N520 1.356 . S
C523 C517 1.363 . S
C523 C518 1.379 . S
C523 N521 1.356 . S
N524 C516 1.356 . S
N524 H530 0.984 . S
N524 H531 0.984 . S
N525 C518 1.356 . S
N525 H528 0.984 . S
N525 H529 0.985 . S
H526 N521 0.984 . S
H527 N521 0.985 . S
H528 N525 0.984 . S
H529 N525 0.985 . S
H530 N524 0.984 . S
H531 N524 0.984 . S
H532 N520 0.984 . S
H533 N520 0.985 . S
C534 C535 1.363 . S
C534 C540 1.379 . S
C534 N542 1.356 . S
C535 C534 1.363 . S
C535 C541 1.363 . S
C536 C537 1.363 . S
C536 C541 1.379 . S
C536 N543 1.356 . S
C537 C536 1.363 . S
C537 C540 1.363 . S
N538 C540 1.356 . S
N538 H550 0.984 . S
N538 H551 0.985 . S
N539 C541 1.356 . S
N539 H544 0.984 . S
N539 H545 0.985 . S
C540 C534 1.379 . S
C540 C537 1.363 . S
C540 N538 1.356 . S
C541 C535 1.363 . S
C541 C536 1.379 . S
C541 N539 1.356 . S
N542 C534 1.356 . S
N542 H548 0.984 . S
N542 H549 0.984 . S
N543 C536 1.356 . S
N543 H546 0.984 . S
N543 H547 0.985 . S
H544 N539 0.984 . S
H545 N539 0.985 . S
H546 N543 0.984 . S
H547 N543 0.985 . S
H548 N542 0.984 . S
H549 N542 0.984 . S
H550 N538 0.984 . S
H551 N538 0.985 . S
C552 C553 1.363 . S
C552 C558 1.379 . S
C552 N560 1.356 . S
C553 C552 1.363 . S
C553 C559 1.363 . S
C554 C555 1.363 . S
C554 C559 1.379 . S
C554 N561 1.356 . S
C555 C554 1.363 . S
C555 C558 1.363 . S
N556 C558 1.356 . S
N556 H568 0.984 . S
N556 H569 0.985 . S
N557 C559 1.356 . S
N557 H562 0.984 . S
N557 H563 0.985 . S
C558 C552 1.379 . S
C558 C555 1.363 . S
C558 N556 1.356 . S
C559 C553 1.363 . S
C559 C554 1.379 . S
C559 N557 1.356 . S
N560 C552 1.356 . S
N560 H566 0.984 . S
N560 H567 0.984 . S
N561 C554 1.356 . S
N561 H564 0.984 . S
N561 H565 0.985 . S
H562 N557 0.984 . S
H563 N557 0.985 . S
H564 N561 0.984 . S
H565 N561 0.985 . S
H566 N560 0.984 . S
H567 N560 0.984 . S
H568 N556 0.984 . S
H569 N556 0.985 . S
C570 C571 1.363 . S
C570 C576 1.379 . S
C570 N578 1.356 . S
C571 C570 1.363 . S
C571 C577 1.363 1_545 S
C572 C573 1.363 1_565 S
C572 C577 1.379 . S
C572 N579 1.356 . S
C573 C572 1.363 1_545 S
C573 C576 1.363 . S
N574 C576 1.356 . S
N574 H586 0.984 . S
N574 H587 0.985 . S
N575 C577 1.356 . S
N575 H580 0.984 . S
N575 H581 0.985 . S
C576 C570 1.379 . S
C576 C573 1.363 . S
C576 N574 1.356 . S
C577 C571 1.363 1_565 S
C577 C572 1.379 . S
C577 N575 1.356 . S
N578 C570 1.356 . S
N578 H584 0.984 . S
N578 H585 0.984 . S
N579 C572 1.356 . S
N579 H582 0.984 . S
N579 H583 0.985 . S
H580 N575 0.984 . S
H581 N575 0.985 . S
H582 N579 0.984 . S
H583 N579 0.985 . S
H584 N578 0.984 . S
H585 N578 0.984 . S
H586 N574 0.984 . S
H587 N574 0.985 . S
C588 C589 1.363 . S
C588 C594 1.379 . S
C588 N596 1.356 . S
C589 C588 1.363 . S
C589 C595 1.363 . S
C590 C591 1.363 . S
C590 C595 1.379 . S
C590 N597 1.356 . S
C591 C590 1.363 . S
C591 C594 1.363 . S
N592 C594 1.356 . S
N592 H604 0.984 . S
N592 H605 0.985 . S
N593 C595 1.356 . S
N593 H598 0.984 . S
N593 H599 0.985 . S
C594 C588 1.379 . S
C594 C591 1.363 . S
C594 N592 1.356 . S
C595 C589 1.363 . S
C595 C590 1.379 . S
C595 N593 1.356 . S
N596 C588 1.356 . S
N596 H602 0.984 . S
N596 H603 0.984 . S
N597 C590 1.356 . S
N597 H600 0.984 . S
N597 H601 0.985 . S
H598 N593 0.984 . S
H599 N593 0.985 . S
H600 N597 0.984 . S
H601 N597 0.985 . S
H602 N596 0.984 . S
H603 N596 0.984 . S
H604 N592 0.984 . S
H605 N592 0.985 . S
C606 C607 1.363 1_565 S
C606 C612 1.379 . S
C606 N614 1.356 . S
C607 C606 1.363 1_545 S
C607 C613 1.363 . S
C608 C609 1.363 1_545 S
C608 C613 1.379 . S
C608 N615 1.356 . S
C609 C608 1.363 1_565 S
C609 C612 1.363 . S
N610 C612 1.356 . S
N610 H622 0.984 . S
N610 H623 0.985 . S
N611 C613 1.356 . S
N611 H616 0.984 . S
N611 H617 0.985 . S
C612 C606 1.379 . S
C612 C609 1.363 . S
C612 N610 1.356 . S
C613 C607 1.363 . S
C613 C608 1.379 . S
C613 N611 1.356 . S
N614 C606 1.356 . S
N614 H620 0.984 . S
N614 H621 0.984 . S
N615 C608 1.356 . S
N615 H618 0.984 . S
N615 H619 0.985 . S
H616 N611 0.984 . S
H617 N611 0.985 . S
H618 N615 0.984 . S
H619 N615 0.985 . S
H620 N614 0.984 . S
H621 N614 0.984 . S
H622 N610 0.984 . S
H623 N610 0.985 . S
C624 C625 1.363 . S
C624 C630 1.379 . S
C624 N632 1.356 . S
C625 C624 1.363 . S
C625 C631 1.363 . S
C626 C627 1.363 . S
C626 C631 1.379 . S
C626 N633 1.356 . S
C627 C626 1.363 . S
C627 C630 1.363 . S
N628 C630 1.356 . S
N628 H640 0.984 . S
N628 H641 0.985 . S
N629 C631 1.356 . S
N629 H634 0.984 . S
N629 H635 0.985 . S
C630 C624 1.379 . S
C630 C627 1.363 . S
C630 N628 1.356 . S
C631 C625 1.363 . S
C631 C626 1.379 . S
C631 N629 1.356 . S
N632 C624 1.356 . S
N632 H638 0.984 . S
N632 H639 0.984 . S
N633 C626 1.356 . S
N633 H636 0.984 . S
N633 H637 0.985 . S
H634 N629 0.984 . S
H635 N629 0.985 . S
H636 N633 0.984 . S
H637 N633 0.985 . S
H638 N632 0.984 . S
H639 N632 0.984 . S
H640 N628 0.984 . S
H641 N628 0.985 . S
C642 C643 1.363 . S
C642 C648 1.379 . S
C642 N650 1.356 . S
C643 C642 1.363 . S
C643 C649 1.363 1_455 S
C644 C645 1.363 1_655 S
C644 C649 1.379 . S
C644 N651 1.356 . S
C645 C644 1.363 1_455 S
C645 C648 1.363 . S
N646 C648 1.356 . S
N646 H658 0.984 . S
N646 H659 0.985 . S
N647 C649 1.356 . S
N647 H652 0.984 . S
N647 H653 0.985 . S
C648 C642 1.379 . S
C648 C645 1.363 . S
C648 N646 1.356 . S
C649 C643 1.363 1_655 S
C649 C644 1.379 . S
C649 N647 1.356 . S
N650 C642 1.356 . S
N650 H656 0.984 . S
N650 H657 0.984 . S
N651 C644 1.356 . S
N651 H654 0.984 . S
N651 H655 0.985 . S
H652 N647 0.984 . S
H653 N647 0.985 . S
H654 N651 0.984 . S
H655 N651 0.985 . S
H656 N650 0.984 . S
H657 N650 0.984 . S
H658 N646 0.984 . S
H659 N646 0.985 . S
C337 C6 0.899 . S
C339 C325 0.974 . S
C355 C59 2.009 . S
C357 C253 1.927 . S
C373 C86 1.367 . S
C375 C289 1.391 . S
C391 C15 0.662 . S
C393 C301 0.593 . S
C411 C229 2.061 . S
C409 C50 2.147 . S
C429 C265 1.389 . S
C427 C95 1.359 . S
C445 C46 1.284 . S
C447 C181 1.315 . S
C463 C99 3.188 . S
C465 C193 3.148 . S
C481 C10 2.175 . S
C483 C121 2.108 . S
C501 C157 1.392 . S
C499 C55 1.350 . S
C519 C217 3.042 . S
C517 C90 3.130 . S
C535 C19 2.004 . S
C537 C145 1.947 . S
C555 C223 1.791 1_554 S
C553 C18 1.722 . S
C571 C49 1.319 . S
C573 C151 1.359 . S
C589 C98 1.448 . S
C591 C187 1.502 . S
C609 C295 1.475 . S
C607 C58 1.438 . S
C627 C331 1.076 . S
C625 C89 1.071 . S
C643 C9 1.311 . S
C645 C259 1.343 . S
