# Generated by pormake.
# Topology zzz, (3,6)-cn, num edge types: 1
# Building blocks:
#     Node 0, Type 0, BuildingBlock: ESEHIV_clean_linker_0, # of connection points: 3
#     Node 1, Type 0, BuildingBlock: ESEHIV_clean_linker_0, # of connection points: 3
#     Node 2, Type 0, BuildingBlock: ESEHIV_clean_linker_0, # of connection points: 3
#     Node 3, Type 0, BuildingBlock: ESEHIV_clean_linker_0, # of connection points: 3
#     Node 4, Type 0, BuildingBlock: ESEHIV_clean_linker_0, # of connection points: 3
#     Node 5, Type 0, BuildingBlock: ESEHIV_clean_linker_0, # of connection points: 3
#     Node 6, Type 0, BuildingBlock: ESEHIV_clean_linker_0, # of connection points: 3
#     Node 7, Type 0, BuildingBlock: ESEHIV_clean_linker_0, # of connection points: 3
#     Node 8, Type 1, BuildingBlock: VOLQOD_clean_sbu_1, # of connection points: 6
#     Node 9, Type 1, BuildingBlock: VOLQOD_clean_sbu_1, # of connection points: 6
#     Node 10, Type 1, BuildingBlock: VOLQOD_clean_sbu_1, # of connection points: 6
#     Node 11, Type 1, BuildingBlock: VOLQOD_clean_sbu_1, # of connection points: 6
#     Edge 12, Type (0, 1), BuildingBlock: XIVTED_clean_linker_0, # of connection points: 2
#     Edge 13, Type (0, 1), BuildingBlock: XIVTED_clean_linker_0, # of connection points: 2
#     Edge 14, Type (0, 1), BuildingBlock: XIVTED_clean_linker_0, # of connection points: 2
#     Edge 15, Type (0, 1), BuildingBlock: XIVTED_clean_linker_0, # of connection points: 2
#     Edge 16, Type (0, 1), BuildingBlock: XIVTED_clean_linker_0, # of connection points: 2
#     Edge 17, Type (0, 1), BuildingBlock: XIVTED_clean_linker_0, # of connection points: 2
#     Edge 18, Type (0, 1), BuildingBlock: XIVTED_clean_linker_0, # of connection points: 2
#     Edge 19, Type (0, 1), BuildingBlock: XIVTED_clean_linker_0, # of connection points: 2
#     Edge 20, Type (0, 1), BuildingBlock: XIVTED_clean_linker_0, # of connection points: 2
#     Edge 21, Type (0, 1), BuildingBlock: XIVTED_clean_linker_0, # of connection points: 2
#     Edge 22, Type (0, 1), BuildingBlock: XIVTED_clean_linker_0, # of connection points: 2
#     Edge 23, Type (0, 1), BuildingBlock: XIVTED_clean_linker_0, # of connection points: 2
#     Edge 24, Type (0, 1), BuildingBlock: XIVTED_clean_linker_0, # of connection points: 2
#     Edge 25, Type (0, 1), BuildingBlock: XIVTED_clean_linker_0, # of connection points: 2
#     Edge 26, Type (0, 1), BuildingBlock: XIVTED_clean_linker_0, # of connection points: 2
#     Edge 27, Type (0, 1), BuildingBlock: XIVTED_clean_linker_0, # of connection points: 2
#     Edge 28, Type (0, 1), BuildingBlock: XIVTED_clean_linker_0, # of connection points: 2
#     Edge 29, Type (0, 1), BuildingBlock: XIVTED_clean_linker_0, # of connection points: 2
#     Edge 30, Type (0, 1), BuildingBlock: XIVTED_clean_linker_0, # of connection points: 2
#     Edge 31, Type (0, 1), BuildingBlock: XIVTED_clean_linker_0, # of connection points: 2
#     Edge 32, Type (0, 1), BuildingBlock: XIVTED_clean_linker_0, # of connection points: 2
#     Edge 33, Type (0, 1), BuildingBlock: XIVTED_clean_linker_0, # of connection points: 2
#     Edge 34, Type (0, 1), BuildingBlock: XIVTED_clean_linker_0, # of connection points: 2
#     Edge 35, Type (0, 1), BuildingBlock: XIVTED_clean_linker_0, # of connection points: 2
# Relax obj value: 0.360
# Max RMSD: 0.258
# Mean RMSD: 0.208
data_MOF--net-zzz--node1-VOLQOD_clean_sbu_1--node2-ESEHIV_clean_linker_0--edge1-XIVTED_clean_linker_0
_symmetry_space_group_name_H-M    P1
_symmetry_Int_Tables_number       1
_symmetry_cell_setting            triclinic
loop_
_symmetry_equiv_pos_as_xyz
'x, y, z'
_cell_length_a     45.075649
_cell_length_b     44.331399
_cell_length_c     17.740561
_cell_angle_alpha  90.139104
_cell_angle_beta   90.174081
_cell_angle_gamma 92.271686
loop_
_atom_site_label
_atom_site_type_symbol
_atom_site_fract_x
_atom_site_fract_y
_atom_site_fract_z
_atom_type_partial_charge
H0 H 0.83597 0.45489 0.25846 0.0
H1 H 0.78509 0.44355 0.05416 0.0
H2 H 0.75037 0.49303 0.24129 0.0
C3 C 0.81604 0.45824 0.2257 0.0
C4 C 0.79381 0.47546 0.25702 0.0
C5 C 0.81377 0.4473 0.15165 0.0
C6 C 0.78716 0.45119 0.11202 0.0
C7 C 0.76373 0.46682 0.14452 0.0
C8 C 0.76757 0.47977 0.21667 0.0
H9 H 0.05843 0.81252 0.27934 0.0
H10 H 0.06034 0.76856 0.06336 0.0
H11 H 0.013 0.72655 0.24825 0.0
C12 C 0.05304 0.79324 0.24346 0.0
C13 C 0.03521 0.76943 0.27249 0.0
C14 C 0.06114 0.79398 0.1672 0.0
C15 C 0.05408 0.76853 0.12221 0.0
C16 C 0.0375 0.74359 0.15135 0.0
C17 C 0.02755 0.74451 0.2265 0.0
H18 H 0.69853 0.04661 0.22725 0.0
H19 H 0.75221 0.05597 0.02783 0.0
H20 H 0.78149 0.00295 0.21436 0.0
C21 C 0.71858 0.04238 0.19613 0.0
C22 C 0.73925 0.02336 0.22808 0.0
C23 C 0.72221 0.05353 0.12262 0.0
C24 C 0.749 0.04826 0.08516 0.0
C25 C 0.7711 0.03109 0.11874 0.0
C26 C 0.76555 0.01768 0.18944 0.0
H27 H 0.51668 0.68112 0.2265 0.0
H28 H 0.54546 0.77382 0.25623 0.0
H29 H 0.48306 0.74903 0.08015 0.0
C30 C 0.51507 0.70455 0.21024 0.0
C31 C 0.49728 0.7122 0.14872 0.0
C32 C 0.53201 0.72663 0.24975 0.0
C33 C 0.53171 0.75689 0.22706 0.0
C34 C 0.51409 0.76501 0.16532 0.0
C35 C 0.49646 0.74269 0.1279 0.0
H36 H 0.19999 0.55105 0.16273 0.0
H37 H 0.26888 0.57946 0.3194 0.0
H38 H 0.2864 0.51501 0.14494 0.0
C39 C 0.22292 0.55143 0.18142 0.0
C40 C 0.24262 0.53284 0.14429 0.0
C41 C 0.23181 0.56821 0.24545 0.0
C42 C 0.26149 0.56695 0.2698 0.0
C43 C 0.28115 0.54755 0.23455 0.0
C44 C 0.27164 0.53059 0.17132 0.0
H45 H 0.03331 0.18306 0.09089 0.0
H46 H 0.01106 0.23928 0.27823 0.0
H47 H 0.0631 0.27625 0.09432 0.0
C48 C 0.0346 0.20464 0.11988 0.0
C49 C 0.05045 0.22882 0.0863 0.0
C50 C 0.02048 0.20787 0.18934 0.0
C51 C 0.02134 0.23643 0.22368 0.0
C52 C 0.03628 0.26133 0.18962 0.0
C53 C 0.05131 0.25736 0.12092 0.0
H54 H 0.33703 0.96875 0.13768 0.0
H55 H 0.2659 0.93819 0.28351 0.0
H56 H 0.25173 0.00777 0.11988 0.0
C57 C 0.31405 0.96906 0.15539 0.0
C58 C 0.29532 0.98926 0.12024 0.0
C59 C 0.30388 0.95046 0.21459 0.0
C60 C 0.27418 0.95211 0.23743 0.0
C61 C 0.25544 0.97304 0.20461 0.0
C62 C 0.266 0.99148 0.14527 0.0
H63 H 0.51085 0.31208 0.07585 0.0
H64 H 0.48564 0.21774 0.073 0.0
H65 H 0.52919 0.25773 0.26847 0.0
C66 C 0.50983 0.29045 0.1044 0.0
C67 C 0.52196 0.28791 0.17649 0.0
C68 C 0.49602 0.2656 0.06804 0.0
C69 C 0.49569 0.23705 0.10228 0.0
C70 C 0.50869 0.23375 0.17426 0.0
C71 C 0.52105 0.25954 0.21124 0.0
O72 O 0.08595 0.00177 0.6105 0.0
Zn73 Zn 0.05908 0.00706 0.70065 0.0
O74 O 0.01717 0.99783 0.67245 0.0
Zn75 Zn 0.99417 0.0337 0.68422 0.0
Zn76 Zn 0.01443 0.98456 0.56766 0.0
Zn77 Zn 0.99983 0.96598 0.73622 0.0
O78 O 0.96027 0.02687 0.75605 0.0
O79 O 0.96269 0.97888 0.78989 0.0
O80 O 0.06499 0.05061 0.73705 0.0
O81 O 0.01985 0.06815 0.72278 0.0
O82 O 0.9783 0.04788 0.5857 0.0
O83 O 0.99227 0.01353 0.5036 0.0
O84 O 0.99611 0.9427 0.5583 0.0
O85 O 0.07212 0.97916 0.78469 0.0
O86 O 0.99099 0.92743 0.67693 0.0
O87 O 0.02918 0.95573 0.8152 0.0
C88 C 0.08115 0.9916 0.54408 0.0
C89 C 0.95024 0.00417 0.79322 0.0
C90 C 0.97949 0.03792 0.51856 0.0
C91 C 0.04706 0.07211 0.74084 0.0
C92 C 0.98943 0.92227 0.60632 0.0
C93 C 0.05675 0.9612 0.82646 0.0
O94 O 0.05514 0.98346 0.52205 0.0
O95 O 0.50521 0.06274 0.59263 0.0
Zn96 Zn 0.50517 0.03725 0.68696 0.0
O97 O 0.51416 0.99533 0.6595 0.0
Zn98 Zn 0.48162 0.96854 0.69141 0.0
Zn99 Zn 0.51886 0.99075 0.55039 0.0
Zn100 Zn 0.55049 0.98354 0.71013 0.0
O101 O 0.49409 0.94153 0.77468 0.0
O102 O 0.54272 0.95007 0.78663 0.0
O103 O 0.46471 0.0397 0.7375 0.0
O104 O 0.44813 0.99193 0.73091 0.0
O105 O 0.46453 0.94349 0.60686 0.0
O106 O 0.48914 0.96028 0.50648 0.0
O107 O 0.56028 0.97816 0.52488 0.0
O108 O 0.53634 0.05583 0.75777 0.0
O109 O 0.58198 0.97228 0.63623 0.0
O110 O 0.56825 0.01892 0.76595 0.0
C111 C 0.50779 0.05701 0.5225 0.0
C112 C 0.51865 0.93633 0.80671 0.0
C113 C 0.46911 0.94311 0.53619 0.0
C114 C 0.44434 0.01937 0.74792 0.0
C115 C 0.58279 0.97172 0.56453 0.0
C116 C 0.56066 0.04554 0.78122 0.0
O117 O 0.51243 0.03049 0.4986 0.0
O118 O 0.45608 0.49809 0.61536 0.0
Zn119 Zn 0.48416 0.49132 0.70281 0.0
O120 O 0.52561 0.50082 0.67166 0.0
Zn121 Zn 0.54923 0.46539 0.68312 0.0
Zn122 Zn 0.52673 0.51261 0.56643 0.0
Zn123 Zn 0.54349 0.5339 0.73134 0.0
O124 O 0.58219 0.47248 0.75819 0.0
O125 O 0.5777 0.52001 0.79477 0.0
O126 O 0.47844 0.44747 0.7371 0.0
O127 O 0.52369 0.4307 0.7195 0.0
O128 O 0.56538 0.45077 0.5849 0.0
O129 O 0.54465 0.48098 0.50246 0.0
O130 O 0.54978 0.5515 0.55116 0.0
O131 O 0.47201 0.51993 0.78632 0.0
O132 O 0.55792 0.56926 0.66681 0.0
O133 O 0.51289 0.54945 0.80034 0.0
C134 C 0.45985 0.51011 0.55067 0.0
C135 C 0.59058 0.49498 0.7988 0.0
C136 C 0.56005 0.45829 0.51721 0.0
C137 C 0.49667 0.42617 0.7382 0.0
C138 C 0.55978 0.57207 0.59555 0.0
C139 C 0.4862 0.5421 0.81742 0.0
O140 O 0.48558 0.51802 0.5268 0.0
O141 O 0.96822 0.53466 0.60583 0.0
Zn142 Zn 0.0097 0.53742 0.65273 0.0
O143 O 0.02275 0.49741 0.68602 0.0
Zn144 Zn 0.02883 0.49715 0.79465 0.0
Zn145 Zn 0.99255 0.4665 0.66103 0.0
Zn146 Zn 0.05983 0.48739 0.63679 0.0
O147 O 0.06982 0.48504 0.82128 0.0
O148 O 0.09226 0.47835 0.71164 0.0
O149 O 0.00815 0.56566 0.74246 0.0
O150 O 0.02335 0.5384 0.83905 0.0
O151 O 0.00017 0.4682 0.84534 0.0
O152 O 0.97749 0.44341 0.75155 0.0
O153 O 0.00692 0.43806 0.58203 0.0
O154 O 0.03961 0.55715 0.5802 0.0
O155 O 0.05404 0.45248 0.56313 0.0
O156 O 0.07498 0.5234 0.57996 0.0
C157 C 0.94984 0.51213 0.60017 0.0
C158 C 0.0926 0.47848 0.7834 0.0
C159 C 0.98178 0.44778 0.82171 0.0
C160 C 0.01468 0.56317 0.8121 0.0
C161 C 0.0315 0.43523 0.54794 0.0
C162 C 0.06516 0.54872 0.56042 0.0
O163 O 0.95686 0.48579 0.61983 0.0
H164 H 0.20923 0.93191 0.22084 0.0
H165 H 0.13437 0.02365 0.54639 0.0
H166 H 0.23664 0.02394 0.27179 0.0
H167 H 0.08447 0.95574 0.41894 0.0
H168 H 0.17473 0.02109 0.45461 0.0
H169 H 0.16497 0.9375 0.29933 0.0
C170 C 0.20552 0.95345 0.24742 0.0
C171 C 0.22627 0.97762 0.23954 0.0
C172 C 0.15486 0.00687 0.44671 0.0
C173 C 0.17662 0.98382 0.33109 0.0
C174 C 0.13196 0.00812 0.49933 0.0
C175 C 0.10606 0.98984 0.49034 0.0
C176 C 0.1521 0.98675 0.38561 0.0
C177 C 0.10403 0.97029 0.42791 0.0
C178 C 0.18042 0.95661 0.29228 0.0
C179 C 0.22085 0.00496 0.27586 0.0
N180 N 0.12687 0.96904 0.37829 0.0
N181 N 0.19674 0.00721 0.32109 0.0
H182 H 0.46559 0.18739 0.17578 0.0
H183 H 0.5257 0.11566 0.54468 0.0
H184 H 0.55293 0.21208 0.26234 0.0
H185 H 0.48775 0.05513 0.37625 0.0
H186 H 0.52628 0.15656 0.45211 0.0
H187 H 0.46498 0.14211 0.25595 0.0
C188 C 0.48474 0.1832 0.21061 0.0
C189 C 0.50907 0.20406 0.21344 0.0
C190 C 0.51776 0.1343 0.43567 0.0
C191 C 0.50796 0.15311 0.30624 0.0
C192 C 0.51724 0.11107 0.48842 0.0
C193 C 0.50676 0.08202 0.46787 0.0
C194 C 0.507 0.12866 0.36251 0.0
C195 C 0.49619 0.07724 0.39398 0.0
C196 C 0.48426 0.15749 0.2565 0.0
C197 C 0.53322 0.19735 0.26009 0.0
N198 N 0.49631 0.10046 0.34383 0.0
N199 N 0.53179 0.17284 0.30563 0.0
H200 H 0.32617 0.58844 0.2696 0.0
H201 H 0.40591 0.47943 0.55061 0.0
H202 H 0.30033 0.49402 0.28564 0.0
H203 H 0.45482 0.55217 0.4396 0.0
H204 H 0.36352 0.4879 0.46731 0.0
H205 H 0.37097 0.57895 0.34407 0.0
C206 C 0.33021 0.56569 0.28807 0.0
C207 C 0.30987 0.54189 0.27111 0.0
C208 C 0.38361 0.5019 0.46121 0.0
C209 C 0.36014 0.5311 0.35763 0.0
C210 C 0.40768 0.49723 0.50893 0.0
C211 C 0.4339 0.5151 0.50184 0.0
C212 C 0.38557 0.52504 0.40734 0.0
C213 C 0.43506 0.53778 0.44662 0.0
C214 C 0.35562 0.5603 0.33043 0.0
C215 C 0.31578 0.51284 0.29683 0.0
N216 N 0.41113 0.5423 0.40188 0.0
N217 N 0.34022 0.5083 0.3397 0.0
H218 H 0.98797 0.28971 0.24006 0.0
H219 H 0.08069 0.41796 0.46881 0.0
H220 H 0.08331 0.30002 0.22732 0.0
H221 H 0.98636 0.39919 0.49048 0.0
H222 H 0.08239 0.37868 0.37129 0.0
H223 H 0.98711 0.33434 0.32026 0.0
C224 C 0.00873 0.30167 0.25367 0.0
C225 C 0.03576 0.29107 0.22775 0.0
C226 C 0.06136 0.3833 0.39735 0.0
C227 C 0.03509 0.34208 0.32066 0.0
C228 C 0.06036 0.40567 0.45309 0.0
C229 C 0.03337 0.41179 0.48846 0.0
C230 C 0.03516 0.36709 0.37662 0.0
C231 C 0.00773 0.3952 0.46548 0.0
C232 C 0.00828 0.32711 0.29966 0.0
C233 C 0.06202 0.30755 0.24623 0.0
N234 N 0.0093 0.37368 0.41132 0.0
N235 N 0.06109 0.33211 0.29244 0.0
H236 H 0.80127 0.97858 0.10118 0.0
H237 H 0.9197 0.0553 0.81773 0.0
H238 H 0.80472 0.07293 0.04126 0.0
H239 H 0.92129 0.96149 0.88219 0.0
H240 H 0.87757 0.0616 0.90064 0.0
H241 H 0.84568 0.97147 0.02449 0.0
C242 C 0.81153 0.99785 0.0726 0.0
C243 C 0.79914 0.02637 0.07724 0.0
C244 C 0.88708 0.0396 0.89684 0.0
C245 C 0.84963 0.01833 0.98881 0.0
C246 C 0.91118 0.03594 0.84919 0.0
C247 C 0.92412 0.00777 0.84266 0.0
C248 C 0.8756 0.01493 0.93853 0.0
C249 C 0.91202 0.98361 0.88527 0.0
C250 C 0.83675 0.99374 0.02845 0.0
C251 C 0.8132 0.05045 0.03836 0.0
N252 N 0.8884 0.98773 0.93134 0.0
N253 N 0.83755 0.04586 0.99571 0.0
H254 H 0.56395 0.79917 0.12959 0.0
H255 H 0.47057 0.91037 0.87769 0.0
H256 H 0.46835 0.80036 0.12599 0.0
H257 H 0.56645 0.91266 0.88037 0.0
H258 H 0.47007 0.87365 0.97898 0.0
H259 H 0.56609 0.84485 0.05171 0.0
C260 C 0.54345 0.80953 0.11405 0.0
C261 C 0.51591 0.79589 0.13356 0.0
C262 C 0.49128 0.88221 0.95784 0.0
C263 C 0.51814 0.84758 0.04346 0.0
C264 C 0.4916 0.90314 0.89951 0.0
C265 C 0.51862 0.91441 0.86964 0.0
C266 C 0.51816 0.8721 0.98659 0.0
C267 C 0.5451 0.90442 0.90125 0.0
C268 C 0.54466 0.8354 0.06901 0.0
C269 C 0.49002 0.80998 0.11131 0.0
N270 N 0.54421 0.8836 0.95764 0.0
N271 N 0.49176 0.83483 0.0668 0.0
H272 H 0.73285 0.42396 0.06262 0.0
H273 H 0.61592 0.53763 0.89471 0.0
H274 H 0.7318 0.51795 0.12586 0.0
H275 H 0.6216 0.4444 0.82676 0.0
H276 H 0.65654 0.53078 0.98422 0.0
H277 H 0.68994 0.43081 0.9815 0.0
C278 C 0.7235 0.44606 0.0595 0.0
C279 C 0.73606 0.47048 0.10057 0.0
C280 C 0.64884 0.51186 0.94971 0.0
C281 C 0.68678 0.47854 0.00767 0.0
C282 C 0.62568 0.51574 0.89848 0.0
C283 C 0.61534 0.49158 0.85282 0.0
C284 C 0.66171 0.48361 0.95541 0.0
C285 C 0.62882 0.46373 0.86045 0.0
C286 C 0.69895 0.44996 0.01325 0.0
C287 C 0.72272 0.49849 0.09544 0.0
N288 N 0.65126 0.46055 0.91061 0.0
N289 N 0.69889 0.50182 0.04934 0.0
H290 H 0.01812 0.74484 0.00488 0.0
H291 H 0.99114 0.61792 0.78129 0.0
H292 H 0.03808 0.68307 0.18383 0.0
H293 H 0.03489 0.5694 0.9576 0.0
H294 H 0.99132 0.66227 0.86191 0.0
H295 H 0.00928 0.70248 0.92027 0.0
C296 C 0.02045 0.72223 0.02652 0.0
C297 C 0.02924 0.71757 0.10144 0.0
C298 C 0.00137 0.64224 0.88305 0.0
C299 C 0.01793 0.66823 0.00489 0.0
C300 C 0.00099 0.61666 0.8369 0.0
C301 C 0.01335 0.58993 0.86215 0.0
C302 C 0.01466 0.64131 0.95489 0.0
C303 C 0.02529 0.58954 0.93538 0.0
C304 C 0.01491 0.6978 0.97818 0.0
C305 C 0.03128 0.68773 0.1266 0.0
N306 N 0.02581 0.61486 0.97884 0.0
N307 N 0.02594 0.66424 0.07826 0.0
H308 H 0.97036 0.20486 0.27924 0.0
H309 H 0.98983 0.03054 0.36775 0.0
H310 H 0.03797 0.14932 0.18583 0.0
H311 H 0.95189 0.09191 0.52694 0.0
H312 H 0.99134 0.07066 0.27394 0.0
H313 H 0.95004 0.1606 0.34709 0.0
C314 C 0.98085 0.18349 0.27243 0.0
C315 C 0.00613 0.18106 0.22683 0.0
C316 C 0.98208 0.07509 0.32895 0.0
C317 C 0.98223 0.13031 0.30195 0.0
C318 C 0.98101 0.05214 0.38247 0.0
C319 C 0.97159 0.05815 0.45614 0.0
C320 C 0.97357 0.10411 0.3492 0.0
C321 C 0.96003 0.08651 0.47137 0.0
C322 C 0.969 0.15822 0.31049 0.0
C323 C 0.01823 0.15247 0.21897 0.0
N324 N 0.96191 0.10871 0.41875 0.0
N325 N 0.00624 0.12835 0.25629 0.0
H326 H 0.35265 0.92079 0.16267 0.0
H327 H 0.41784 0.91256 0.5781 0.0
H328 H 0.30485 0.93975 0.36718 0.0
H329 H 0.47026 0.93646 0.38215 0.0
H330 H 0.37591 0.89925 0.49573 0.0
H331 H 0.39424 0.90444 0.23932 0.0
C332 C 0.35056 0.92104 0.22345 0.0
C333 C 0.32546 0.93275 0.25827 0.0
C334 C 0.39687 0.90663 0.47081 0.0
C335 C 0.37254 0.913 0.3457 0.0
C336 C 0.42088 0.91421 0.51769 0.0
C337 C 0.44734 0.92666 0.48709 0.0
C338 C 0.39941 0.91134 0.39296 0.0
C339 C 0.45004 0.92772 0.40829 0.0
C340 C 0.37424 0.91143 0.26695 0.0
C341 C 0.32363 0.9312 0.33726 0.0
N342 N 0.42611 0.92078 0.36386 0.0
N343 N 0.34706 0.92202 0.37824 0.0
H344 H 0.50181 0.34541 0.17115 0.0
H345 H 0.58787 0.40438 0.52663 0.0
H346 H 0.56988 0.29292 0.27366 0.0
H347 H 0.54702 0.46363 0.36731 0.0
H348 H 0.58568 0.36425 0.43196 0.0
H349 H 0.52065 0.38948 0.2396 0.0
C350 C 0.52108 0.34315 0.20699 0.0
C351 C 0.53423 0.31521 0.21637 0.0
C352 C 0.57786 0.38627 0.41724 0.0
C353 C 0.55543 0.36583 0.2972 0.0
C354 C 0.57914 0.40924 0.4712 0.0
C355 C 0.56684 0.43719 0.4556 0.0
C356 C 0.56388 0.39127 0.34786 0.0
C357 C 0.55618 0.44226 0.3825 0.0
C358 C 0.53179 0.36845 0.24637 0.0
C359 C 0.55864 0.3138 0.26564 0.0
N360 N 0.55432 0.41929 0.33191 0.0
N361 N 0.56821 0.33869 0.30506 0.0
H362 H 0.18049 0.59582 0.20111 0.0
H363 H 0.1155 0.57522 0.61406 0.0
H364 H 0.23003 0.57226 0.40007 0.0
H365 H 0.06212 0.56636 0.4129 0.0
H366 H 0.15698 0.59531 0.53862 0.0
H367 H 0.1375 0.60475 0.28099 0.0
C368 C 0.18265 0.59305 0.26147 0.0
C369 C 0.20885 0.58224 0.29323 0.0
C370 C 0.13597 0.58982 0.51107 0.0
C371 C 0.15998 0.59339 0.38476 0.0
C372 C 0.1123 0.57856 0.55412 0.0
C373 C 0.08562 0.56914 0.51919 0.0
C374 C 0.13309 0.59097 0.43235 0.0
C375 C 0.08245 0.57355 0.44152 0.0
C376 C 0.15811 0.59837 0.30692 0.0
C377 C 0.21053 0.58036 0.3722 0.0
N378 N 0.10623 0.58361 0.40014 0.0
N379 N 0.18632 0.58539 0.41491 0.0
H380 H 0.04677 0.85158 0.20586 0.0
H381 H 0.10197 0.92202 0.81876 0.0
H382 H 0.09993 0.80314 0.04712 0.0
H383 H 0.04114 0.96209 0.97281 0.0
H384 H 0.11335 0.88439 0.91541 0.0
H385 H 0.05742 0.89753 0.13721 0.0
C386 C 0.06138 0.8505 0.15774 0.0
C387 C 0.07215 0.82293 0.13226 0.0
C388 C 0.09819 0.90197 0.92876 0.0
C389 C 0.0832 0.87611 0.05024 0.0
C390 C 0.09194 0.92354 0.87399 0.0
C391 C 0.07058 0.94493 0.88836 0.0
C392 C 0.08294 0.90212 0.99781 0.0
C393 C 0.0577 0.94582 0.95988 0.0
C394 C 0.06715 0.87698 0.11773 0.0
C395 C 0.09039 0.82355 0.06796 0.0
N396 N 0.06384 0.92451 0.01164 0.0
N397 N 0.09486 0.84959 0.02828 0.0
H398 H 0.72278 0.09503 0.00511 0.0
H399 H 0.55011 0.06488 0.92366 0.0
H400 H 0.66226 0.04152 0.14465 0.0
H401 H 0.6168 0.06536 0.75025 0.0
H402 H 0.58861 0.08039 0.01592 0.0
H403 H 0.68093 0.10642 0.92308 0.0
C404 C 0.70089 0.08601 0.01964 0.0
C405 C 0.6966 0.06653 0.08163 0.0
C406 C 0.59454 0.07819 0.95708 0.0
C407 C 0.64853 0.08098 0.98986 0.0
C408 C 0.57263 0.06957 0.90462 0.0
C409 C 0.58057 0.06383 0.82992 0.0
C410 C 0.6243 0.08124 0.93397 0.0
C411 C 0.61005 0.06959 0.80773 0.0
C412 C 0.677 0.09291 0.97315 0.0
C413 C 0.66724 0.05675 0.09856 0.0
N414 N 0.63103 0.07766 0.85983 0.0
N415 N 0.6445 0.06384 0.05261 0.0
H416 H 0.48906 0.71124 0.99498 0.0
H417 H 0.48146 0.53742 0.96993 0.0
H418 H 0.472 0.65732 0.19409 0.0
H419 H 0.46008 0.59362 0.7814 0.0
H420 H 0.4722 0.57959 0.05556 0.0
H421 H 0.47278 0.66867 0.91752 0.0
C422 C 0.48122 0.69078 0.02292 0.0
C423 C 0.48249 0.68797 0.10174 0.0
C424 C 0.46848 0.5824 0.99569 0.0
C425 C 0.46477 0.63837 0.01208 0.0
C426 C 0.47356 0.55829 0.94708 0.0
C427 C 0.47124 0.56224 0.86908 0.0
C428 C 0.46195 0.61067 0.96536 0.0
C429 C 0.4618 0.58982 0.84152 0.0
C430 C 0.47204 0.66626 0.97823 0.0
C431 C 0.47243 0.66037 0.13361 0.0
N432 N 0.45806 0.61323 0.88951 0.0
N433 N 0.46465 0.63643 0.08866 0.0
H434 H 0.81666 0.40435 0.03773 0.0
H435 H 0.98833 0.4454 0.97462 0.0
H436 H 0.87235 0.46399 0.17614 0.0
H437 H 0.92922 0.41608 0.79456 0.0
H438 H 0.94911 0.43343 0.06526 0.0
H439 H 0.86057 0.39245 0.96371 0.0
C440 C 0.83796 0.41465 0.05349 0.0
C441 C 0.84042 0.43556 0.11327 0.0
C442 C 0.94493 0.42903 0.00601 0.0
C443 C 0.89073 0.4211 0.03036 0.0
C444 C 0.96733 0.43579 0.95422 0.0
C445 C 0.96173 0.43262 0.87675 0.0
C446 C 0.91667 0.41933 0.98011 0.0
C447 C 0.93429 0.41943 0.85374 0.0
C448 C 0.86302 0.40756 0.01158 0.0
C449 C 0.86894 0.44741 0.13187 0.0
N450 N 0.91245 0.41392 0.90517 0.0
N451 N 0.89277 0.44018 0.09034 0.0
H452 H 0.10216 0.20099 0.06433 0.0
H453 H 0.02194 0.12593 0.71421 0.0
H454 H 0.02906 0.23895 0.946 0.0
H455 H 0.09531 0.08713 0.83097 0.0
H456 H 0.0337 0.17411 0.77562 0.0
H457 H 0.11059 0.16797 0.9566 0.0
C458 C 0.08897 0.20354 0.01374 0.0
C459 C 0.06482 0.22255 0.0138 0.0
C460 C 0.04758 0.15526 0.78712 0.0
C461 C 0.07325 0.18389 0.89216 0.0
C462 C 0.04077 0.12764 0.7523 0.0
C463 C 0.05722 0.10225 0.76899 0.0
C464 C 0.07069 0.15751 0.8403 0.0
C465 C 0.08179 0.10601 0.81734 0.0
C466 C 0.09342 0.1843 0.95272 0.0
C467 C 0.04795 0.22462 0.94781 0.0
N468 N 0.0874 0.13297 0.85259 0.0
N469 N 0.05195 0.20489 0.89033 0.0
H470 H 0.33753 0.03462 0.12832 0.0
H471 H 0.3897 0.99313 0.72368 0.0
H472 H 0.28255 0.98363 0.9709 0.0
H473 H 0.43551 0.06116 0.85926 0.0
H474 H 0.34616 0.99674 0.80382 0.0
H475 H 0.36884 0.05264 0.02398 0.0
C476 C 0.33147 0.02819 0.07117 0.0
C477 C 0.30757 0.00768 0.05771 0.0
C478 C 0.36543 0.0114 0.81538 0.0
C479 C 0.34379 0.02711 0.93861 0.0
C480 C 0.39033 0.00929 0.76964 0.0
C481 C 0.41634 0.02655 0.78569 0.0
C482 C 0.36677 0.03033 0.87897 0.0
C483 C 0.41591 0.04735 0.84529 0.0
C484 C 0.34942 0.03829 0.01166 0.0
C485 C 0.30076 0.99957 0.98319 0.0
N486 N 0.39173 0.04816 0.89099 0.0
N487 N 0.31919 0.00878 0.92649 0.0
H488 H 0.44259 0.2893 0.04172 0.0
H489 H 0.52249 0.37343 0.70413 0.0
H490 H 0.52056 0.25896 0.9298 0.0
H491 H 0.44915 0.40865 0.82782 0.0
H492 H 0.51201 0.32401 0.75964 0.0
H493 H 0.43382 0.32345 0.93664 0.0
C494 C 0.45687 0.28858 0.99278 0.0
C495 C 0.4824 0.27148 0.99425 0.0
C496 C 0.49787 0.34236 0.77395 0.0
C497 C 0.47342 0.3114 0.87585 0.0
C498 C 0.50394 0.37069 0.74253 0.0
C499 C 0.48714 0.39542 0.76296 0.0
C500 C 0.47512 0.33869 0.82733 0.0
C501 C 0.46293 0.3903 0.81141 0.0
C502 C 0.4522 0.3085 0.93343 0.0
C503 C 0.50059 0.27176 0.93047 0.0
N504 N 0.45802 0.36262 0.84324 0.0
N505 N 0.49622 0.29207 0.87466 0.0
H506 H 0.21003 0.48069 0.15733 0.0
H507 H 0.14924 0.49294 0.73662 0.0
H508 H 0.24705 0.54268 0.99303 0.0
H509 H 0.09957 0.45583 0.9245 0.0
H510 H 0.19366 0.49689 0.81701 0.0
H511 H 0.17892 0.45685 0.0588 0.0
C512 C 0.21226 0.48852 0.09973 0.0
C513 C 0.23095 0.51351 0.08265 0.0
C514 C 0.17318 0.48723 0.83994 0.0
C515 C 0.19505 0.48715 0.97056 0.0
C516 C 0.1479 0.48481 0.79409 0.0
C517 C 0.12066 0.47447 0.8245 0.0
C518 C 0.17112 0.47888 0.91612 0.0
C519 C 0.12007 0.46436 0.89929 0.0
C520 C 0.19441 0.47513 0.04374 0.0
C521 C 0.2329 0.52329 0.00779 0.0
N522 N 0.14485 0.4671 0.94276 0.0
N523 N 0.21475 0.51036 0.9544 0.0
H524 H 0.06009 0.77533 0.41253 0.0
H525 H 0.95852 0.904 0.48116 0.0
H526 H 0.9769 0.77884 0.29356 0.0
H527 H 0.00977 0.87028 0.66605 0.0
H528 H 0.96087 0.85495 0.41879 0.0
H529 H 0.03924 0.80459 0.51548 0.0
C530 C 0.03696 0.78105 0.40993 0.0
C531 C 0.02014 0.77479 0.34477 0.0
C532 C 0.97087 0.8579 0.47404 0.0
C533 C 0.99666 0.8094 0.45994 0.0
C534 C 0.96957 0.88593 0.50949 0.0
C535 C 0.98415 0.89116 0.57841 0.0
C536 C 0.98781 0.83535 0.50647 0.0
C537 C 0.99823 0.86707 0.61284 0.0
C538 C 0.0251 0.79794 0.46833 0.0
C539 C 0.99048 0.78316 0.34318 0.0
N540 N 0.00048 0.84041 0.57545 0.0
N541 N 0.97993 0.8009 0.39883 0.0
H542 H 0.72371 0.96385 0.2346 0.0
H543 H 0.59224 0.94928 0.42329 0.0
H544 H 0.73083 0.0444 0.37072 0.0
H545 H 0.63836 0.98618 0.61818 0.0
H546 H 0.63888 0.95214 0.35312 0.0
H547 H 0.69009 0.94068 0.32848 0.0
C548 C 0.71924 0.97609 0.28601 0.0
C549 C 0.72987 0.00602 0.29529 0.0
C550 C 0.63903 0.95865 0.412 0.0
C551 C 0.69096 0.98026 0.40087 0.0
C552 C 0.61235 0.95726 0.45181 0.0
C553 C 0.61145 0.96761 0.52644 0.0
C554 C 0.66478 0.9712 0.44657 0.0
C555 C 0.63813 0.97787 0.56073 0.0
C556 C 0.69972 0.96309 0.33877 0.0
C557 C 0.72305 0.02123 0.36197 0.0
N558 N 0.66358 0.98023 0.51983 0.0
N559 N 0.70364 0.00832 0.41195 0.0
H560 H 0.52276 0.73541 0.39976 0.0
H561 H 0.59222 0.58011 0.46803 0.0
H562 H 0.58105 0.69339 0.24283 0.0
H563 H 0.55019 0.6293 0.64536 0.0
H564 H 0.59821 0.62662 0.39586 0.0
H565 H 0.54183 0.70372 0.50067 0.0
C566 C 0.54052 0.7204 0.38747 0.0
C567 C 0.5503 0.71669 0.31331 0.0
C568 C 0.58829 0.62757 0.45128 0.0
C569 C 0.57144 0.67979 0.42694 0.0
C570 C 0.58491 0.60096 0.49246 0.0
C571 C 0.57033 0.6009 0.56205 0.0
C572 C 0.57608 0.65413 0.47877 0.0
C573 C 0.56143 0.62847 0.5916 0.0
C574 C 0.55125 0.70212 0.44479 0.0
C575 C 0.57295 0.6967 0.29955 0.0
N576 N 0.56371 0.65391 0.54884 0.0
N577 N 0.58233 0.67853 0.35549 0.0
H578 H 0.78946 0.45302 0.39899 0.0
H579 H 0.92995 0.55658 0.50616 0.0
H580 H 0.81746 0.53206 0.27365 0.0
H581 H 0.90091 0.47576 0.62427 0.0
H582 H 0.88175 0.55639 0.44117 0.0
H583 H 0.82106 0.47023 0.504 0.0
C584 C 0.80122 0.47476 0.39527 0.0
C585 C 0.80093 0.49125 0.32819 0.0
C586 C 0.88577 0.53904 0.4824 0.0
C587 C 0.83848 0.51024 0.44557 0.0
C588 C 0.91327 0.53915 0.5194 0.0
C589 C 0.9197 0.51571 0.56909 0.0
C590 C 0.86468 0.51537 0.49559 0.0
C591 C 0.8972 0.49384 0.58481 0.0
C592 C 0.81965 0.48442 0.45463 0.0
C593 C 0.81705 0.51892 0.32504 0.0
N594 N 0.87092 0.49399 0.54751 0.0
N595 N 0.83583 0.52721 0.38216 0.0
loop_
_geom_bond_atom_site_label_1
_geom_bond_atom_site_label_2
_geom_bond_distance
_geom_bond_site_symmetry_2
_ccdc_geom_bond_type
H0 C3 0.931 . S
H1 C6 0.928 . S
H2 C8 0.930 . S
C3 H0 0.931 . S
C3 C4 1.413 . S
C3 C5 1.360 1_554 S
C4 C3 1.413 . S
C4 C8 1.429 . S
C5 C3 1.360 1_556 S
C5 C6 1.372 . S
C6 H1 0.928 . S
C6 C5 1.372 . S
C6 C7 1.404 1_556 S
C7 C6 1.404 1_554 S
C7 C8 1.391 . S
C8 H2 0.930 . S
C8 C4 1.429 . S
C8 C7 1.391 . S
H9 C12 0.931 . S
H10 C15 0.928 1_556 S
H11 C17 0.930 . S
C12 H9 0.931 . S
C12 C13 1.413 . S
C12 C14 1.360 . S
C13 C12 1.413 . S
C13 C17 1.429 . S
C14 C12 1.360 . S
C14 C15 1.372 . S
C15 H10 0.928 1_554 S
C15 C14 1.372 . S
C15 C16 1.404 . S
C16 C15 1.404 . S
C16 C17 1.391 . S
C17 H11 0.930 . S
C17 C13 1.429 . S
C17 C16 1.391 . S
H18 C21 0.931 . S
H19 C24 0.928 . S
H20 C26 0.931 . S
C21 H18 0.931 . S
C21 C22 1.413 . S
C21 C23 1.360 . S
C22 C21 1.413 . S
C22 C26 1.429 1_565 S
C23 C21 1.360 . S
C23 C24 1.373 1_554 S
C24 H19 0.928 . S
C24 C23 1.373 1_556 S
C24 C25 1.404 1_556 S
C25 C24 1.404 1_554 S
C25 C26 1.390 1_565 S
C26 H20 0.931 . S
C26 C22 1.429 1_545 S
C26 C25 1.390 1_545 S
H27 C30 0.931 . S
H28 C33 0.928 . S
H29 C35 0.930 . S
C30 H27 0.931 . S
C30 C31 1.413 1_554 S
C30 C32 1.360 . S
C31 C30 1.413 1_556 S
C31 C35 1.429 . S
C32 C30 1.360 . S
C32 C33 1.372 . S
C33 H28 0.928 . S
C33 C32 1.372 . S
C33 C34 1.404 . S
C34 C33 1.404 . S
C34 C35 1.391 1_554 S
C35 H29 0.930 . S
C35 C31 1.429 . S
C35 C34 1.391 1_556 S
H36 C39 0.931 . S
H37 C42 0.928 . S
H38 C44 0.930 . S
C39 H36 0.931 . S
C39 C40 1.413 . S
C39 C41 1.360 . S
C40 C39 1.413 . S
C40 C44 1.429 . S
C41 C39 1.360 . S
C41 C42 1.372 . S
C42 H37 0.928 . S
C42 C41 1.372 . S
C42 C43 1.404 . S
C43 C42 1.404 . S
C43 C44 1.391 . S
C44 H38 0.930 . S
C44 C40 1.429 . S
C44 C43 1.391 . S
H45 C48 0.931 . S
H46 C51 0.928 . S
H47 C53 0.930 . S
C48 H45 0.931 . S
C48 C49 1.413 . S
C48 C50 1.360 . S
C49 C48 1.413 . S
C49 C53 1.429 . S
C50 C48 1.360 . S
C50 C51 1.372 . S
C51 H46 0.928 . S
C51 C50 1.372 . S
C51 C52 1.404 . S
C52 C51 1.404 . S
C52 C53 1.391 . S
C53 H47 0.930 . S
C53 C49 1.429 . S
C53 C52 1.391 . S
H54 C57 0.930 . S
H55 C60 0.928 . S
H56 C62 0.929 . S
C57 H54 0.930 . S
C57 C58 1.413 . S
C57 C59 1.360 . S
C58 C57 1.413 . S
C58 C62 1.429 1_565 S
C59 C57 1.360 . S
C59 C60 1.372 . S
C60 H55 0.928 . S
C60 C59 1.372 . S
C60 C61 1.404 . S
C61 C60 1.404 . S
C61 C62 1.391 1_565 S
C62 H56 0.929 . S
C62 C58 1.429 1_545 S
C62 C61 1.391 1_545 S
H63 C66 0.931 . S
H64 C69 0.928 . S
H65 C71 0.930 . S
C66 H63 0.931 . S
C66 C67 1.413 . S
C66 C68 1.360 . S
C67 C66 1.413 . S
C67 C71 1.429 . S
C68 C66 1.360 . S
C68 C69 1.372 . S
C69 H64 0.928 . S
C69 C68 1.372 . S
C69 C70 1.404 . S
C70 C69 1.404 . S
C70 C71 1.391 . S
C71 H65 0.930 . S
C71 C67 1.429 . S
C71 C70 1.391 . S
O72 Zn73 1.953 . S
O72 C88 1.233 . S
Zn73 O72 1.953 . S
Zn73 O74 1.950 . S
Zn73 O80 1.919 1_565 S
Zn73 O85 1.924 . S
O74 Zn73 1.950 . S
O74 Zn75 1.900 1_565 S
O74 Zn76 1.953 . S
O74 Zn77 1.964 . S
Zn75 O74 1.900 1_545 S
Zn75 O78 1.933 1_455 S
Zn75 O81 1.941 . S
Zn75 O82 1.965 . S
Zn76 O74 1.953 . S
Zn76 O83 1.938 1_565 S
Zn76 O84 1.906 . S
Zn76 O94 1.953 . S
Zn77 O74 1.964 . S
Zn77 O79 1.932 1_455 S
Zn77 O86 1.977 1_455 S
Zn77 O87 1.910 . S
O78 Zn75 1.933 1_655 S
O78 C89 1.226 . S
O79 Zn77 1.932 1_655 S
O79 C89 1.307 1_565 S
O80 Zn73 1.919 1_545 S
O80 C91 1.253 . S
O81 Zn75 1.941 . S
O81 C91 1.283 . S
O82 Zn75 1.965 . S
O82 C90 1.303 . S
O83 Zn76 1.938 1_545 S
O83 C90 1.247 . S
O84 Zn76 1.906 . S
O84 C92 1.290 1_455 S
O85 Zn73 1.924 . S
O85 C93 1.311 . S
O86 Zn77 1.977 1_655 S
O86 C92 1.274 . S
O87 Zn77 1.910 . S
O87 C93 1.231 . S
C88 O72 1.233 . S
C88 O94 1.298 . S
C89 O78 1.226 . S
C89 O79 1.307 1_545 S
C90 O82 1.303 . S
C90 O83 1.247 . S
C91 O80 1.253 . S
C91 O81 1.283 . S
C92 O84 1.290 1_655 S
C92 O86 1.274 . S
C93 O85 1.311 . S
C93 O87 1.231 . S
O94 Zn76 1.953 . S
O94 C88 1.298 . S
O95 Zn96 1.953 . S
O95 C111 1.225 . S
Zn96 O95 1.953 . S
Zn96 O97 1.949 . S
Zn96 O103 1.919 . S
Zn96 O108 1.924 . S
O97 Zn96 1.949 . S
O97 Zn98 1.923 1_545 S
O97 Zn99 1.950 . S
O97 Zn100 1.945 1_545 S
Zn98 O97 1.923 1_565 S
Zn98 O101 1.933 . S
Zn98 O104 1.941 . S
Zn98 O105 1.965 . S
Zn99 O97 1.950 . S
Zn99 O106 1.938 . S
Zn99 O107 1.906 1_545 S
Zn99 O117 1.953 . S
Zn100 O97 1.945 1_565 S
Zn100 O102 1.932 . S
Zn100 O109 1.977 . S
Zn100 O110 1.910 1_565 S
O101 Zn98 1.933 . S
O101 C112 1.226 . S
O102 Zn100 1.932 . S
O102 C112 1.307 . S
O103 Zn96 1.919 . S
O103 C114 1.253 . S
O104 Zn98 1.941 . S
O104 C114 1.283 1_565 S
O105 Zn98 1.965 . S
O105 C113 1.303 . S
O106 Zn99 1.938 . S
O106 C113 1.247 1_545 S
O107 Zn99 1.906 1_565 S
O107 C115 1.304 . S
O108 Zn96 1.924 . S
O108 C116 1.311 . S
O109 Zn100 1.977 . S
O109 C115 1.272 . S
O110 Zn100 1.910 1_545 S
O110 C116 1.231 . S
C111 O95 1.225 . S
C111 O117 1.298 . S
C112 O101 1.226 . S
C112 O102 1.307 . S
C113 O105 1.303 . S
C113 O106 1.247 1_565 S
C114 O103 1.253 . S
C114 O104 1.283 1_545 S
C115 O107 1.304 . S
C115 O109 1.272 . S
C116 O108 1.311 . S
C116 O110 1.231 . S
O117 Zn99 1.953 . S
O117 C111 1.298 . S
O118 Zn119 1.953 . S
O118 C134 1.225 . S
Zn119 O118 1.953 . S
Zn119 O120 1.949 . S
Zn119 O126 1.919 . S
Zn119 O131 1.924 . S
O120 Zn119 1.949 . S
O120 Zn121 1.923 . S
O120 Zn122 1.950 . S
O120 Zn123 1.945 . S
Zn121 O120 1.923 . S
Zn121 O124 1.933 . S
Zn121 O127 1.941 . S
Zn121 O128 1.965 . S
Zn122 O120 1.950 . S
Zn122 O129 1.938 . S
Zn122 O130 1.906 . S
Zn122 O140 1.953 . S
Zn123 O120 1.945 . S
Zn123 O125 1.932 . S
Zn123 O132 1.977 . S
Zn123 O133 1.910 . S
O124 Zn121 1.933 . S
O124 C135 1.226 . S
O125 Zn123 1.932 . S
O125 C135 1.307 . S
O126 Zn119 1.919 . S
O126 C137 1.253 . S
O127 Zn121 1.941 . S
O127 C137 1.283 . S
O128 Zn121 1.965 . S
O128 C136 1.303 . S
O129 Zn122 1.938 . S
O129 C136 1.247 . S
O130 Zn122 1.906 . S
O130 C138 1.304 . S
O131 Zn119 1.924 . S
O131 C139 1.311 . S
O132 Zn123 1.977 . S
O132 C138 1.272 . S
O133 Zn123 1.910 . S
O133 C139 1.231 . S
C134 O118 1.225 . S
C134 O140 1.298 . S
C135 O124 1.226 . S
C135 O125 1.307 . S
C136 O128 1.303 . S
C136 O129 1.247 . S
C137 O126 1.253 . S
C137 O127 1.283 . S
C138 O130 1.304 . S
C138 O132 1.272 . S
C139 O131 1.311 . S
C139 O133 1.231 . S
O140 Zn122 1.953 . S
O140 C134 1.298 . S
O141 Zn142 1.953 1_655 S
O141 C157 1.225 . S
Zn142 O141 1.953 1_455 S
Zn142 O143 1.949 . S
Zn142 O149 1.919 . S
Zn142 O154 1.924 . S
O143 Zn142 1.949 . S
O143 Zn144 1.923 . S
O143 Zn145 1.950 1_455 S
O143 Zn146 1.945 . S
Zn144 O143 1.923 . S
Zn144 O147 1.933 . S
Zn144 O150 1.941 1_455 S
Zn144 O151 1.965 1_455 S
Zn145 O143 1.950 1_655 S
Zn145 O152 1.938 . S
Zn145 O153 1.906 1_655 S
Zn145 O163 1.953 . S
Zn146 O143 1.945 . S
Zn146 O148 1.932 . S
Zn146 O155 1.977 . S
Zn146 O156 1.910 . S
O147 Zn144 1.933 . S
O147 C158 1.226 . S
O148 Zn146 1.932 . S
O148 C158 1.307 . S
O149 Zn142 1.919 . S
O149 C160 1.253 . S
O150 Zn144 1.941 1_655 S
O150 C160 1.283 1_655 S
O151 Zn144 1.965 1_655 S
O151 C159 1.303 . S
O152 Zn145 1.938 . S
O152 C159 1.247 . S
O153 Zn145 1.906 1_455 S
O153 C161 1.304 . S
O154 Zn142 1.924 . S
O154 C162 1.311 . S
O155 Zn146 1.977 . S
O155 C161 1.272 . S
O156 Zn146 1.910 . S
O156 C162 1.231 . S
C157 O141 1.225 . S
C157 O163 1.298 . S
C158 O147 1.226 . S
C158 O148 1.307 . S
C159 O151 1.303 . S
C159 O152 1.247 . S
C160 O149 1.253 . S
C160 O150 1.283 1_455 S
C161 O153 1.304 . S
C161 O155 1.272 . S
C162 O154 1.311 . S
C162 O156 1.231 . S
O163 Zn145 1.953 . S
O163 C157 1.298 . S
H164 C170 0.930 . S
H165 C174 0.930 . S
H166 C179 0.929 . S
H167 C177 0.929 . S
H168 C172 0.929 . S
H169 C178 0.929 . S
C170 H164 0.930 . S
C170 C171 1.367 . S
C170 C178 1.378 . S
C171 C170 1.367 . S
C171 C179 1.433 1_565 S
C172 H168 0.929 . S
C172 C174 1.378 . S
C172 C176 1.350 1_545 S
C173 C176 1.463 . S
C173 C178 1.350 . S
C173 N181 1.427 1_565 S
C174 H165 0.930 . S
C174 C172 1.378 . S
C174 C175 1.367 1_545 S
C175 C174 1.367 1_565 S
C175 C177 1.433 . S
C176 C172 1.350 1_565 S
C176 C173 1.463 . S
C176 N180 1.427 . S
C177 H167 0.929 . S
C177 C175 1.433 . S
C177 N180 1.384 . S
C178 H169 0.929 . S
C178 C170 1.378 . S
C178 C173 1.350 . S
C179 H166 0.929 . S
C179 C171 1.433 1_545 S
C179 N181 1.384 . S
N180 C176 1.427 . S
N180 C177 1.384 . S
N181 C173 1.427 1_545 S
N181 C179 1.384 . S
H182 C188 0.930 . S
H183 C192 0.930 . S
H184 C197 0.929 . S
H185 C195 0.929 . S
H186 C190 0.929 . S
H187 C196 0.929 . S
C188 H182 0.930 . S
C188 C189 1.367 . S
C188 C196 1.378 . S
C189 C188 1.367 . S
C189 C197 1.433 . S
C190 H186 0.929 . S
C190 C192 1.378 . S
C190 C194 1.350 . S
C191 C194 1.463 . S
C191 C196 1.350 . S
C191 N199 1.427 . S
C192 H183 0.930 . S
C192 C190 1.378 . S
C192 C193 1.367 . S
C193 C192 1.367 . S
C193 C195 1.433 . S
C194 C190 1.350 . S
C194 C191 1.463 . S
C194 N198 1.427 . S
C195 H185 0.929 . S
C195 C193 1.433 . S
C195 N198 1.384 . S
C196 H187 0.929 . S
C196 C188 1.378 . S
C196 C191 1.350 . S
C197 H184 0.929 . S
C197 C189 1.433 . S
C197 N199 1.384 . S
N198 C194 1.427 . S
N198 C195 1.384 . S
N199 C191 1.427 . S
N199 C197 1.384 . S
H200 C206 0.930 . S
H201 C210 0.930 . S
H202 C215 0.929 . S
H203 C213 0.929 . S
H204 C208 0.929 . S
H205 C214 0.929 . S
C206 H200 0.930 . S
C206 C207 1.367 . S
C206 C214 1.378 . S
C207 C206 1.367 . S
C207 C215 1.433 . S
C208 H204 0.929 . S
C208 C210 1.378 . S
C208 C212 1.350 . S
C209 C212 1.463 . S
C209 C214 1.350 . S
C209 N217 1.427 . S
C210 H201 0.930 . S
C210 C208 1.378 . S
C210 C211 1.367 . S
C211 C210 1.367 . S
C211 C213 1.433 . S
C212 C208 1.350 . S
C212 C209 1.463 . S
C212 N216 1.427 . S
C213 H203 0.929 . S
C213 C211 1.433 . S
C213 N216 1.384 . S
C214 H205 0.929 . S
C214 C206 1.378 . S
C214 C209 1.350 . S
C215 H202 0.929 . S
C215 C207 1.433 . S
C215 N217 1.384 . S
N216 C212 1.427 . S
N216 C213 1.384 . S
N217 C209 1.427 . S
N217 C215 1.384 . S
H218 C224 0.930 . S
H219 C228 0.930 . S
H220 C233 0.929 . S
H221 C231 0.929 . S
H222 C226 0.929 . S
H223 C232 0.929 . S
C224 H218 0.930 . S
C224 C225 1.367 . S
C224 C232 1.378 . S
C225 C224 1.367 . S
C225 C233 1.433 . S
C226 H222 0.929 . S
C226 C228 1.378 . S
C226 C230 1.350 . S
C227 C230 1.463 . S
C227 C232 1.350 . S
C227 N235 1.427 . S
C228 H219 0.930 . S
C228 C226 1.378 . S
C228 C229 1.367 . S
C229 C228 1.367 . S
C229 C231 1.433 . S
C230 C226 1.350 . S
C230 C227 1.463 . S
C230 N234 1.427 . S
C231 H221 0.929 . S
C231 C229 1.433 . S
C231 N234 1.384 . S
C232 H223 0.929 . S
C232 C224 1.378 . S
C232 C227 1.350 . S
C233 H220 0.929 . S
C233 C225 1.433 . S
C233 N235 1.384 . S
N234 C230 1.427 . S
N234 C231 1.384 . S
N235 C227 1.427 . S
N235 C233 1.384 . S
H236 C242 0.930 . S
H237 C246 0.930 . S
H238 C251 0.929 . S
H239 C249 0.929 . S
H240 C244 0.929 . S
H241 C250 0.929 . S
C242 H236 0.930 . S
C242 C243 1.361 1_566 S
C242 C250 1.378 . S
C243 C242 1.361 1_544 S
C243 C251 1.440 . S
C244 H240 0.929 . S
C244 C246 1.378 . S
C244 C248 1.350 . S
C245 C248 1.463 . S
C245 C250 1.350 1_545 S
C245 N253 1.427 1_556 S
C246 H237 0.930 . S
C246 C244 1.378 . S
C246 C247 1.367 . S
C247 C246 1.367 . S
C247 C249 1.433 1_545 S
C248 C244 1.350 . S
C248 C245 1.463 . S
C248 N252 1.427 1_545 S
C249 H239 0.929 . S
C249 C247 1.433 1_565 S
C249 N252 1.384 . S
C250 H241 0.929 . S
C250 C242 1.378 . S
C250 C245 1.350 1_565 S
C251 H238 0.929 . S
C251 C243 1.440 . S
C251 N253 1.384 . S
N252 C248 1.427 1_565 S
N252 C249 1.384 . S
N253 C245 1.427 1_554 S
N253 C251 1.384 . S
H254 C260 0.930 . S
H255 C264 0.930 . S
H256 C269 0.929 . S
H257 C267 0.929 . S
H258 C262 0.929 . S
H259 C268 0.929 . S
C260 H254 0.930 . S
C260 C261 1.367 . S
C260 C268 1.378 1_554 S
C261 C260 1.367 . S
C261 C269 1.433 1_554 S
C262 H258 0.929 . S
C262 C264 1.378 . S
C262 C266 1.350 . S
C263 C266 1.463 . S
C263 C268 1.350 . S
C263 N271 1.427 . S
C264 H255 0.930 . S
C264 C262 1.378 . S
C264 C265 1.367 . S
C265 C264 1.367 . S
C265 C267 1.433 . S
C266 C262 1.350 . S
C266 C263 1.463 . S
C266 N270 1.427 . S
C267 H257 0.929 . S
C267 C265 1.433 . S
C267 N270 1.384 . S
C268 H259 0.929 . S
C268 C260 1.378 1_556 S
C268 C263 1.350 . S
C269 H256 0.929 . S
C269 C261 1.433 1_556 S
C269 N271 1.384 . S
N270 C266 1.427 . S
N270 C267 1.384 . S
N271 C263 1.427 . S
N271 C269 1.384 . S
H272 C278 0.930 1_554 S
H273 C282 0.930 . S
H274 C287 0.929 . S
H275 C285 0.929 . S
H276 C280 0.929 . S
H277 C286 0.929 . S
C278 H272 0.930 1_556 S
C278 C279 1.367 . S
C278 C286 1.378 . S
C279 C278 1.367 . S
C279 C287 1.433 . S
C280 H276 0.929 . S
C280 C282 1.378 . S
C280 C284 1.350 . S
C281 C284 1.463 . S
C281 C286 1.350 . S
C281 N289 1.427 . S
C282 H273 0.930 . S
C282 C280 1.378 . S
C282 C283 1.367 . S
C283 C282 1.367 . S
C283 C285 1.433 . S
C284 C280 1.350 . S
C284 C281 1.463 . S
C284 N288 1.427 . S
C285 H275 0.929 . S
C285 C283 1.433 . S
C285 N288 1.384 . S
C286 H277 0.929 . S
C286 C278 1.378 . S
C286 C281 1.350 . S
C287 H274 0.929 . S
C287 C279 1.433 . S
C287 N289 1.384 . S
N288 C284 1.427 . S
N288 C285 1.384 . S
N289 C281 1.427 . S
N289 C287 1.384 . S
H290 C296 0.930 . S
H291 C300 0.930 . S
H292 C305 0.928 1_554 S
H293 C303 0.929 . S
H294 C298 0.929 . S
H295 C304 0.929 . S
C296 H290 0.930 . S
C296 C297 1.367 . S
C296 C304 1.378 1_554 S
C297 C296 1.367 . S
C297 C305 1.429 1_654 S
C298 H294 0.929 . S
C298 C300 1.378 . S
C298 C302 1.350 . S
C299 C302 1.463 1_655 S
C299 C304 1.350 . S
C299 N307 1.427 1_655 S
C300 H291 0.930 . S
C300 C298 1.378 . S
C300 C301 1.367 . S
C301 C300 1.367 . S
C301 C303 1.433 1_455 S
C302 C298 1.350 . S
C302 C299 1.463 1_455 S
C302 N306 1.427 1_455 S
C303 H293 0.929 . S
C303 C301 1.433 1_655 S
C303 N306 1.384 . S
C304 H295 0.929 . S
C304 C296 1.378 1_556 S
C304 C299 1.350 . S
C305 H292 0.928 1_556 S
C305 C297 1.429 1_456 S
C305 N307 1.389 . S
N306 C302 1.427 1_655 S
N306 C303 1.384 . S
N307 C299 1.427 1_455 S
N307 C305 1.389 . S
H308 C314 0.930 . S
H309 C318 0.930 . S
H310 C323 0.929 . S
H311 C321 0.929 . S
H312 C316 0.929 . S
H313 C322 0.929 . S
C314 H308 0.930 . S
C314 C315 1.367 . S
C314 C322 1.378 . S
C315 C314 1.367 . S
C315 C323 1.433 . S
C316 H312 0.929 . S
C316 C318 1.378 . S
C316 C320 1.350 . S
C317 C320 1.463 . S
C317 C322 1.350 . S
C317 N325 1.427 . S
C318 H309 0.930 . S
C318 C316 1.378 . S
C318 C319 1.367 . S
C319 C318 1.367 . S
C319 C321 1.433 . S
C320 C316 1.350 . S
C320 C317 1.463 . S
C320 N324 1.427 . S
C321 H311 0.929 . S
C321 C319 1.433 . S
C321 N324 1.384 . S
C322 H313 0.929 . S
C322 C314 1.378 . S
C322 C317 1.350 . S
C323 H310 0.929 . S
C323 C315 1.433 . S
C323 N325 1.384 . S
N324 C320 1.427 . S
N324 C321 1.384 . S
N325 C317 1.427 . S
N325 C323 1.384 . S
H326 C332 0.930 . S
H327 C336 0.930 . S
H328 C341 0.929 . S
H329 C339 0.929 . S
H330 C334 0.929 . S
H331 C340 0.929 . S
C332 H326 0.930 . S
C332 C333 1.365 1_565 S
C332 C340 1.378 . S
C333 C332 1.365 1_545 S
C333 C341 1.435 . S
C334 H330 0.929 . S
C334 C336 1.378 . S
C334 C338 1.350 1_545 S
C335 C338 1.463 . S
C335 C340 1.350 . S
C335 N343 1.427 1_565 S
C336 H327 0.930 . S
C336 C334 1.378 . S
C336 C337 1.367 1_545 S
C337 C336 1.367 1_565 S
C337 C339 1.433 . S
C338 C334 1.350 1_565 S
C338 C335 1.463 . S
C338 N342 1.427 . S
C339 H329 0.929 . S
C339 C337 1.433 . S
C339 N342 1.384 . S
C340 H331 0.929 . S
C340 C332 1.378 . S
C340 C335 1.350 . S
C341 H328 0.929 . S
C341 C333 1.435 . S
C341 N343 1.384 . S
N342 C338 1.427 . S
N342 C339 1.384 . S
N343 C335 1.427 1_545 S
N343 C341 1.384 . S
H344 C350 0.930 . S
H345 C354 0.930 . S
H346 C359 0.929 . S
H347 C357 0.929 . S
H348 C352 0.929 . S
H349 C358 0.929 . S
C350 H344 0.930 . S
C350 C351 1.367 . S
C350 C358 1.378 . S
C351 C350 1.367 . S
C351 C359 1.433 . S
C352 H348 0.929 . S
C352 C354 1.378 . S
C352 C356 1.350 . S
C353 C356 1.463 . S
C353 C358 1.350 . S
C353 N361 1.427 . S
C354 H345 0.930 . S
C354 C352 1.378 . S
C354 C355 1.367 . S
C355 C354 1.367 . S
C355 C357 1.433 . S
C356 C352 1.350 . S
C356 C353 1.463 . S
C356 N360 1.427 . S
C357 H347 0.929 . S
C357 C355 1.433 . S
C357 N360 1.384 . S
C358 H349 0.929 . S
C358 C350 1.378 . S
C358 C353 1.350 . S
C359 H346 0.929 . S
C359 C351 1.433 . S
C359 N361 1.384 . S
N360 C356 1.427 . S
N360 C357 1.384 . S
N361 C353 1.427 . S
N361 C359 1.384 . S
H362 C368 0.930 . S
H363 C372 0.930 . S
H364 C377 0.929 . S
H365 C375 0.929 . S
H366 C370 0.929 . S
H367 C376 0.929 . S
C368 H362 0.930 . S
C368 C369 1.367 . S
C368 C376 1.378 . S
C369 C368 1.367 . S
C369 C377 1.433 . S
C370 H366 0.929 . S
C370 C372 1.378 . S
C370 C374 1.350 . S
C371 C374 1.463 . S
C371 C376 1.350 . S
C371 N379 1.427 . S
C372 H363 0.930 . S
C372 C370 1.378 . S
C372 C373 1.367 . S
C373 C372 1.367 . S
C373 C375 1.433 . S
C374 C370 1.350 . S
C374 C371 1.463 . S
C374 N378 1.427 . S
C375 H365 0.929 . S
C375 C373 1.433 . S
C375 N378 1.384 . S
C376 H367 0.929 . S
C376 C368 1.378 . S
C376 C371 1.350 . S
C377 H364 0.929 . S
C377 C369 1.433 . S
C377 N379 1.384 . S
N378 C374 1.427 . S
N378 C375 1.384 . S
N379 C371 1.427 . S
N379 C377 1.384 . S
H380 C386 0.930 . S
H381 C390 0.930 . S
H382 C395 0.930 . S
H383 C393 0.929 . S
H384 C388 0.929 . S
H385 C394 0.929 . S
C386 H380 0.930 . S
C386 C387 1.367 . S
C386 C394 1.378 1_655 S
C387 C386 1.367 . S
C387 C395 1.433 1_654 S
C388 H384 0.929 . S
C388 C390 1.378 . S
C388 C392 1.350 . S
C389 C392 1.463 . S
C389 C394 1.350 1_556 S
C389 N397 1.427 . S
C390 H381 0.930 . S
C390 C388 1.378 . S
C390 C391 1.367 . S
C391 C390 1.367 . S
C391 C393 1.433 . S
C392 C388 1.350 . S
C392 C389 1.463 . S
C392 N396 1.427 . S
C393 H383 0.929 . S
C393 C391 1.433 . S
C393 N396 1.384 . S
C394 H385 0.929 . S
C394 C386 1.378 1_455 S
C394 C389 1.350 1_554 S
C395 H382 0.930 . S
C395 C387 1.433 1_456 S
C395 N397 1.384 . S
N396 C392 1.427 . S
N396 C393 1.384 . S
N397 C389 1.427 . S
N397 C395 1.384 . S
H398 C404 0.930 . S
H399 C408 0.930 . S
H400 C413 0.929 . S
H401 C411 0.929 . S
H402 C406 0.929 . S
H403 C412 0.929 . S
C404 H398 0.930 . S
C404 C405 1.367 1_545 S
C404 C412 1.378 . S
C405 C404 1.367 1_565 S
C405 C413 1.433 1_556 S
C406 H402 0.929 . S
C406 C408 1.378 . S
C406 C410 1.350 . S
C407 C410 1.463 . S
C407 C412 1.350 . S
C407 N415 1.427 1_545 S
C408 H399 0.930 . S
C408 C406 1.378 . S
C408 C409 1.367 . S
C409 C408 1.367 . S
C409 C411 1.433 . S
C410 C406 1.350 . S
C410 C407 1.463 . S
C410 N414 1.427 . S
C411 H401 0.929 . S
C411 C409 1.433 . S
C411 N414 1.384 . S
C412 H403 0.929 . S
C412 C404 1.378 . S
C412 C407 1.350 . S
C413 H400 0.929 . S
C413 C405 1.433 1_554 S
C413 N415 1.384 1_554 S
N414 C410 1.427 . S
N414 C411 1.384 . S
N415 C407 1.427 1_565 S
N415 C413 1.384 1_556 S
H416 C422 0.930 . S
H417 C426 0.930 . S
H418 C431 0.929 1_554 S
H419 C429 0.929 . S
H420 C424 0.929 . S
H421 C430 0.929 . S
C422 H416 0.930 . S
C422 C423 1.367 . S
C422 C430 1.378 . S
C423 C422 1.367 . S
C423 C431 1.433 . S
C424 H420 0.929 . S
C424 C426 1.378 . S
C424 C428 1.350 . S
C425 C428 1.463 . S
C425 C430 1.350 . S
C425 N433 1.427 . S
C426 H417 0.930 . S
C426 C424 1.378 . S
C426 C427 1.367 . S
C427 C426 1.367 . S
C427 C429 1.433 . S
C428 C424 1.350 . S
C428 C425 1.463 . S
C428 N432 1.427 . S
C429 H419 0.929 . S
C429 C427 1.433 . S
C429 N432 1.384 . S
C430 H421 0.929 . S
C430 C422 1.378 . S
C430 C425 1.350 . S
C431 H418 0.929 1_556 S
C431 C423 1.433 . S
C431 N433 1.384 . S
N432 C428 1.427 . S
N432 C429 1.384 . S
N433 C425 1.427 . S
N433 C431 1.384 . S
H434 C440 0.930 . S
H435 C444 0.930 . S
H436 C449 0.929 . S
H437 C447 0.929 . S
H438 C442 0.929 . S
H439 C448 0.929 . S
C440 H434 0.930 . S
C440 C441 1.367 . S
C440 C448 1.378 . S
C441 C440 1.367 . S
C441 C449 1.433 . S
C442 H438 0.929 . S
C442 C444 1.378 . S
C442 C446 1.350 . S
C443 C446 1.463 . S
C443 C448 1.350 . S
C443 N451 1.427 . S
C444 H435 0.930 . S
C444 C442 1.378 . S
C444 C445 1.367 . S
C445 C444 1.367 . S
C445 C447 1.433 . S
C446 C442 1.350 . S
C446 C443 1.463 . S
C446 N450 1.427 . S
C447 H437 0.929 . S
C447 C445 1.433 . S
C447 N450 1.384 . S
C448 H439 0.929 . S
C448 C440 1.378 . S
C448 C443 1.350 . S
C449 H436 0.929 . S
C449 C441 1.433 . S
C449 N451 1.384 . S
N450 C446 1.427 . S
N450 C447 1.384 . S
N451 C443 1.427 . S
N451 C449 1.384 . S
H452 C458 0.930 . S
H453 C462 0.930 . S
H454 C467 0.929 . S
H455 C465 0.929 . S
H456 C460 0.927 1_554 S
H457 C466 0.929 . S
C458 H452 0.930 . S
C458 C459 1.367 . S
C458 C466 1.378 . S
C459 C458 1.367 . S
C459 C467 1.433 . S
C460 H456 0.927 1_556 S
C460 C462 1.380 . S
C460 C464 1.349 1_556 S
C461 C464 1.463 . S
C461 C466 1.350 . S
C461 N469 1.427 . S
C462 H453 0.930 . S
C462 C460 1.380 . S
C462 C463 1.367 . S
C463 C462 1.367 . S
C463 C465 1.433 . S
C464 C460 1.349 1_554 S
C464 C461 1.463 . S
C464 N468 1.427 . S
C465 H455 0.929 . S
C465 C463 1.433 . S
C465 N468 1.384 1_556 S
C466 H457 0.929 . S
C466 C458 1.378 . S
C466 C461 1.350 . S
C467 H454 0.929 . S
C467 C459 1.433 . S
C467 N469 1.384 . S
N468 C464 1.427 . S
N468 C465 1.384 1_554 S
N469 C461 1.427 . S
N469 C467 1.384 . S
H470 C476 0.930 . S
H471 C480 0.930 . S
H472 C485 0.929 . S
H473 C483 0.929 . S
H474 C478 0.929 . S
H475 C484 0.929 . S
C476 H470 0.930 . S
C476 C477 1.388 . S
C476 C484 1.378 . S
C477 C476 1.388 . S
C477 C485 1.411 1_545 S
C478 H474 0.929 . S
C478 C480 1.378 . S
C478 C482 1.350 . S
C479 C482 1.461 1_544 S
C479 C484 1.372 . S
C479 N487 1.406 1_545 S
C480 H471 0.930 . S
C480 C478 1.378 . S
C480 C481 1.367 . S
C481 C480 1.367 . S
C481 C483 1.433 1_565 S
C482 C478 1.350 . S
C482 C479 1.461 1_566 S
C482 N486 1.427 1_565 S
C483 H473 0.929 . S
C483 C481 1.433 1_545 S
C483 N486 1.384 . S
C484 H475 0.929 . S
C484 C476 1.378 . S
C484 C479 1.372 . S
C485 H472 0.929 . S
C485 C477 1.411 1_565 S
C485 N487 1.384 . S
N486 C482 1.427 1_545 S
N486 C483 1.384 . S
N487 C479 1.406 1_565 S
N487 C485 1.384 . S
H488 C494 0.930 . S
H489 C498 0.930 . S
H490 C503 0.929 . S
H491 C501 0.929 . S
H492 C496 0.929 . S
H493 C502 0.929 . S
C494 H488 0.930 . S
C494 C495 1.367 . S
C494 C502 1.378 . S
C495 C494 1.367 . S
C495 C503 1.433 . S
C496 H492 0.929 . S
C496 C498 1.378 . S
C496 C500 1.350 . S
C497 C500 1.463 1_554 S
C497 C502 1.350 . S
C497 N505 1.427 1_554 S
C498 H489 0.930 . S
C498 C496 1.378 . S
C498 C499 1.367 . S
C499 C498 1.367 . S
C499 C501 1.433 . S
C500 C496 1.350 . S
C500 C497 1.463 1_556 S
C500 N504 1.427 . S
C501 H491 0.929 . S
C501 C499 1.433 . S
C501 N504 1.384 . S
C502 H493 0.929 . S
C502 C494 1.378 . S
C502 C497 1.350 . S
C503 H490 0.929 . S
C503 C495 1.433 . S
C503 N505 1.384 1_554 S
N504 C500 1.427 . S
N504 C501 1.384 . S
N505 C497 1.427 1_556 S
N505 C503 1.384 1_556 S
H506 C512 0.930 . S
H507 C516 0.930 . S
H508 C521 0.929 . S
H509 C519 0.929 . S
H510 C514 0.929 . S
H511 C520 0.929 . S
C512 H506 0.930 . S
C512 C513 1.367 . S
C512 C520 1.378 . S
C513 C512 1.367 . S
C513 C521 1.433 . S
C514 H510 0.929 . S
C514 C516 1.378 . S
C514 C518 1.350 . S
C515 C518 1.463 1_554 S
C515 C520 1.350 . S
C515 N523 1.427 . S
C516 H507 0.930 . S
C516 C514 1.378 . S
C516 C517 1.367 . S
C517 C516 1.367 . S
C517 C519 1.433 . S
C518 C514 1.350 . S
C518 C515 1.463 1_556 S
C518 N522 1.427 . S
C519 H509 0.929 . S
C519 C517 1.433 . S
C519 N522 1.384 . S
C520 H511 0.929 . S
C520 C512 1.378 . S
C520 C515 1.350 . S
C521 H508 0.929 . S
C521 C513 1.433 . S
C521 N523 1.384 . S
N522 C518 1.427 . S
N522 C519 1.384 . S
N523 C515 1.427 . S
N523 C521 1.384 . S
H524 C530 0.930 . S
H525 C534 0.930 . S
H526 C539 0.929 . S
H527 C537 0.929 . S
H528 C532 0.929 . S
H529 C538 0.929 . S
C530 H524 0.930 . S
C530 C531 1.367 1_455 S
C530 C538 1.378 . S
C531 C530 1.367 1_655 S
C531 C539 1.433 . S
C532 H528 0.929 . S
C532 C534 1.378 . S
C532 C536 1.350 . S
C533 C536 1.463 . S
C533 C538 1.350 1_655 S
C533 N541 1.427 . S
C534 H525 0.930 . S
C534 C532 1.378 . S
C534 C535 1.367 . S
C535 C534 1.367 . S
C535 C537 1.433 1_655 S
C536 C532 1.350 . S
C536 C533 1.463 . S
C536 N540 1.427 1_655 S
C537 H527 0.929 . S
C537 C535 1.433 1_455 S
C537 N540 1.384 . S
C538 H529 0.929 . S
C538 C530 1.378 . S
C538 C533 1.350 1_455 S
C539 H526 0.929 . S
C539 C531 1.433 . S
C539 N541 1.384 . S
N540 C536 1.427 1_455 S
N540 C537 1.384 . S
N541 C533 1.427 . S
N541 C539 1.384 . S
H542 C548 0.930 . S
H543 C552 0.930 . S
H544 C557 0.929 . S
H545 C555 0.929 . S
H546 C550 0.929 . S
H547 C556 0.929 . S
C548 H542 0.930 . S
C548 C549 1.367 . S
C548 C556 1.378 . S
C549 C548 1.367 . S
C549 C557 1.433 1_565 S
C550 H546 0.929 . S
C550 C552 1.378 . S
C550 C554 1.350 1_545 S
C551 C554 1.463 . S
C551 C556 1.350 . S
C551 N559 1.427 1_565 S
C552 H543 0.930 . S
C552 C550 1.378 . S
C552 C553 1.367 1_545 S
C553 C552 1.367 1_565 S
C553 C555 1.433 . S
C554 C550 1.350 1_565 S
C554 C551 1.463 . S
C554 N558 1.427 . S
C555 H545 0.929 . S
C555 C553 1.433 . S
C555 N558 1.384 . S
C556 H547 0.929 . S
C556 C548 1.378 . S
C556 C551 1.350 . S
C557 H544 0.929 . S
C557 C549 1.433 1_545 S
C557 N559 1.384 . S
N558 C554 1.427 . S
N558 C555 1.384 . S
N559 C551 1.427 1_545 S
N559 C557 1.384 . S
H560 C566 0.930 . S
H561 C570 0.930 . S
H562 C575 0.929 . S
H563 C573 0.929 . S
H564 C568 0.929 . S
H565 C574 0.929 . S
C566 H560 0.930 . S
C566 C567 1.367 . S
C566 C574 1.378 . S
C567 C566 1.367 . S
C567 C575 1.433 . S
C568 H564 0.929 . S
C568 C570 1.378 . S
C568 C572 1.350 . S
C569 C572 1.463 . S
C569 C574 1.350 . S
C569 N577 1.427 . S
C570 H561 0.930 . S
C570 C568 1.378 . S
C570 C571 1.367 . S
C571 C570 1.367 . S
C571 C573 1.433 . S
C572 C568 1.350 . S
C572 C569 1.463 . S
C572 N576 1.427 . S
C573 H563 0.929 . S
C573 C571 1.433 . S
C573 N576 1.384 . S
C574 H565 0.929 . S
C574 C566 1.378 . S
C574 C569 1.350 . S
C575 H562 0.929 . S
C575 C567 1.433 . S
C575 N577 1.384 . S
N576 C572 1.427 . S
N576 C573 1.384 . S
N577 C569 1.427 . S
N577 C575 1.384 . S
H578 C584 0.930 . S
H579 C588 0.930 . S
H580 C593 0.929 . S
H581 C591 0.929 . S
H582 C586 0.929 . S
H583 C592 0.929 . S
C584 H578 0.930 . S
C584 C585 1.367 . S
C584 C592 1.378 . S
C585 C584 1.367 . S
C585 C593 1.433 . S
C586 H582 0.929 . S
C586 C588 1.378 . S
C586 C590 1.350 . S
C587 C590 1.463 . S
C587 C592 1.350 . S
C587 N595 1.427 . S
C588 H579 0.930 . S
C588 C586 1.378 . S
C588 C589 1.367 . S
C589 C588 1.367 . S
C589 C591 1.433 . S
C590 C586 1.350 . S
C590 C587 1.463 . S
C590 N594 1.427 . S
C591 H581 0.929 . S
C591 C589 1.433 . S
C591 N594 1.384 . S
C592 H583 0.929 . S
C592 C584 1.378 . S
C592 C587 1.350 . S
C593 H580 0.929 . S
C593 C585 1.433 . S
C593 N595 1.384 . S
N594 C590 1.427 . S
N594 C591 1.384 . S
N595 C587 1.427 . S
N595 C593 1.384 . S
C171 C61 1.515 . S
C175 C88 1.523 . S
C193 C111 1.640 . S
C189 C70 1.633 . S
C211 C134 1.581 . S
C207 C43 1.566 . S
C229 C161 1.499 . S
C225 C52 1.556 . S
C247 C89 1.501 . S
C243 C25 1.486 1_545 S
C261 C34 1.474 . S
C265 C112 1.492 . S
C279 C7 1.389 1_556 S
C283 C135 1.402 . S
C297 C16 1.517 . S
C301 C160 1.529 . S
C319 C90 0.184 . S
C315 C50 0.401 . S
C337 C113 0.195 . S
C333 C59 0.187 1_545 S
C355 C136 0.279 . S
C351 C67 0.312 . S
C369 C41 0.361 . S
C373 C162 0.476 . S
C387 C14 0.515 . S
C391 C93 0.629 . S
C409 C116 0.598 . S
C405 C23 0.478 1_556 S
C427 C139 0.641 . S
C423 C31 0.550 . S
C441 C5 0.259 . S
C445 C159 0.279 . S
C459 C49 1.611 . S
C463 C91 1.619 . S
C477 C58 1.523 1_545 S
C481 C114 1.543 1_565 S
C499 C137 1.546 . S
C495 C68 1.518 . S
C517 C158 1.347 . S
C513 C40 1.299 . S
C531 C13 1.622 . S
C535 C92 1.578 . S
C553 C115 1.502 . S
C549 C22 1.557 . S
C571 C138 1.502 . S
C567 C32 1.552 . S
C585 C4 1.617 . S
C589 C157 1.675 . S
