# Generated by pormake.
# Topology dag, (6,3)-cn, num edge types: 1
# Building blocks:
#     Node 0, Type 0, BuildingBlock: MIDCAF_clean_sbu_0, # of connection points: 6
#     Node 1, Type 0, BuildingBlock: MIDCAF_clean_sbu_0, # of connection points: 6
#     Node 2, Type 0, BuildingBlock: MIDCAF_clean_sbu_0, # of connection points: 6
#     Node 3, Type 0, BuildingBlock: MIDCAF_clean_sbu_0, # of connection points: 6
#     Node 4, Type 1, BuildingBlock: BETDIP_clean_linker_0, # of connection points: 3
#     Node 5, Type 1, BuildingBlock: BETDIP_clean_linker_0, # of connection points: 3
#     Node 6, Type 1, BuildingBlock: BETDIP_clean_linker_0, # of connection points: 3
#     Node 7, Type 1, BuildingBlock: BETDIP_clean_linker_0, # of connection points: 3
#     Node 8, Type 1, BuildingBlock: BETDIP_clean_linker_0, # of connection points: 3
#     Node 9, Type 1, BuildingBlock: BETDIP_clean_linker_0, # of connection points: 3
#     Node 10, Type 1, BuildingBlock: BETDIP_clean_linker_0, # of connection points: 3
#     Node 11, Type 1, BuildingBlock: BETDIP_clean_linker_0, # of connection points: 3
#     Edge 12, Type (0, 1), BuildingBlock: EZIPEK_clean_linker_0, # of connection points: 2
#     Edge 13, Type (0, 1), BuildingBlock: EZIPEK_clean_linker_0, # of connection points: 2
#     Edge 14, Type (0, 1), BuildingBlock: EZIPEK_clean_linker_0, # of connection points: 2
#     Edge 15, Type (0, 1), BuildingBlock: EZIPEK_clean_linker_0, # of connection points: 2
#     Edge 16, Type (0, 1), BuildingBlock: EZIPEK_clean_linker_0, # of connection points: 2
#     Edge 17, Type (0, 1), BuildingBlock: EZIPEK_clean_linker_0, # of connection points: 2
#     Edge 18, Type (0, 1), BuildingBlock: EZIPEK_clean_linker_0, # of connection points: 2
#     Edge 19, Type (0, 1), BuildingBlock: EZIPEK_clean_linker_0, # of connection points: 2
#     Edge 20, Type (0, 1), BuildingBlock: EZIPEK_clean_linker_0, # of connection points: 2
#     Edge 21, Type (0, 1), BuildingBlock: EZIPEK_clean_linker_0, # of connection points: 2
#     Edge 22, Type (0, 1), BuildingBlock: EZIPEK_clean_linker_0, # of connection points: 2
#     Edge 23, Type (0, 1), BuildingBlock: EZIPEK_clean_linker_0, # of connection points: 2
#     Edge 24, Type (0, 1), BuildingBlock: EZIPEK_clean_linker_0, # of connection points: 2
#     Edge 25, Type (0, 1), BuildingBlock: EZIPEK_clean_linker_0, # of connection points: 2
#     Edge 26, Type (0, 1), BuildingBlock: EZIPEK_clean_linker_0, # of connection points: 2
#     Edge 27, Type (0, 1), BuildingBlock: EZIPEK_clean_linker_0, # of connection points: 2
#     Edge 28, Type (0, 1), BuildingBlock: EZIPEK_clean_linker_0, # of connection points: 2
#     Edge 29, Type (0, 1), BuildingBlock: EZIPEK_clean_linker_0, # of connection points: 2
#     Edge 30, Type (0, 1), BuildingBlock: EZIPEK_clean_linker_0, # of connection points: 2
#     Edge 31, Type (0, 1), BuildingBlock: EZIPEK_clean_linker_0, # of connection points: 2
#     Edge 32, Type (0, 1), BuildingBlock: EZIPEK_clean_linker_0, # of connection points: 2
#     Edge 33, Type (0, 1), BuildingBlock: EZIPEK_clean_linker_0, # of connection points: 2
#     Edge 34, Type (0, 1), BuildingBlock: EZIPEK_clean_linker_0, # of connection points: 2
#     Edge 35, Type (0, 1), BuildingBlock: EZIPEK_clean_linker_0, # of connection points: 2
# Relax obj value: 0.125
# Max RMSD: 0.136
# Mean RMSD: 0.112
data_MOF--net-dag--node1-MIDCAF_clean_sbu_0--node2-BETDIP_clean_linker_0--edge1-EZIPEK_clean_linker_0
_symmetry_space_group_name_H-M    P1
_symmetry_Int_Tables_number       1
_symmetry_cell_setting            triclinic
loop_
_symmetry_equiv_pos_as_xyz
'x, y, z'
_cell_length_a     30.280854
_cell_length_b     29.44733
_cell_length_c     23.288538
_cell_angle_alpha  87.480786
_cell_angle_beta   89.791597
_cell_angle_gamma 89.60119
loop_
_atom_site_label
_atom_site_type_symbol
_atom_site_fract_x
_atom_site_fract_y
_atom_site_fract_z
_atom_type_partial_charge
Zn0 Zn 0.204 0.84727 0.10934 0.0
Zn1 Zn 0.15908 0.8578 0.8976 0.0
Zn2 Zn 0.18293 0.86208 1.00423 0.0
C3 C 0.17249 0.94995 0.9241 0.0
C4 C 0.088 0.82792 0.95836 0.0
O5 O 0.23803 0.81175 0.01388 0.0
O6 O 0.24484 0.79543 0.1072 0.0
C7 C 0.22403 0.93935 0.0772 0.0
O8 O 0.18721 0.93304 0.97229 0.0
O9 O 0.15846 0.92436 0.8862 0.0
O10 O 0.10111 0.82876 0.90693 0.0
O11 O 0.11366 0.84017 0.99882 0.0
O12 O 0.23045 0.90816 0.11524 0.0
O13 O 0.2046 0.92965 0.03016 0.0
O14 O 0.12255 0.84684 0.0563 0.0
O15 O 0.14529 0.84081 0.14636 0.0
C16 C 0.11414 0.84227 0.11054 0.0
O17 O 0.22772 0.81663 0.9558 0.0
O18 O 0.20721 0.82296 0.86458 0.0
C19 C 0.2565 0.7892 0.05615 0.0
C20 C 0.2331 0.80703 0.90267 0.0
Zn21 Zn 0.70594 0.65804 0.42159 0.0
Zn22 Zn 0.66798 0.64392 0.63297 0.0
Zn23 Zn 0.68697 0.64009 0.52845 0.0
C24 C 0.6755 0.5516 0.60644 0.0
C25 C 0.59593 0.67934 0.58052 0.0
O26 O 0.74331 0.68788 0.51913 0.0
O27 O 0.75311 0.70314 0.42593 0.0
C28 C 0.71945 0.5622 0.44791 0.0
O29 O 0.69075 0.56808 0.55823 0.0
O30 O 0.66194 0.57782 0.64422 0.0
O31 O 0.61288 0.67939 0.62981 0.0
O32 O 0.61787 0.66359 0.53819 0.0
O33 O 0.72312 0.59395 0.41002 0.0
O34 O 0.70557 0.57182 0.49846 0.0
O35 O 0.62661 0.66022 0.47926 0.0
O36 O 0.64753 0.67561 0.38944 0.0
C37 C 0.61721 0.67132 0.42648 0.0
O38 O 0.73305 0.68443 0.57727 0.0
O39 O 0.71746 0.67251 0.66956 0.0
C40 C 0.76398 0.70867 0.4773 0.0
C41 C 0.74086 0.69125 0.63073 0.0
Zn42 Zn 0.76636 0.05922 0.95372 0.0
Zn43 Zn 0.81531 0.13345 0.13088 0.0
Zn44 Zn 0.7911 0.09114 0.04823 0.0
C45 C 0.89142 0.12623 0.07545 0.0
C46 C 0.7916 0.04503 0.17302 0.0
O47 O 0.73497 0.13227 0.01044 0.0
O48 O 0.70982 0.09083 0.94091 0.0
C49 C 0.84887 0.09567 0.93256 0.0
O50 O 0.8634 0.1084 0.04148 0.0
O51 O 0.87838 0.14295 0.12134 0.0
O52 O 0.80146 0.0842 0.18838 0.0
O53 O 0.78638 0.03877 0.11901 0.0
O54 O 0.81674 0.08056 0.90504 0.0
O55 O 0.84601 0.10017 0.98723 0.0
O56 O 0.77913 0.01721 0.06536 0.0
O57 O 0.76709 -0.00522 0.97741 0.0
C58 C 0.77318 0.98523 0.03006 0.0
O59 O 0.74298 0.14724 0.06807 0.0
O60 O 0.77796 0.18688 0.13202 0.0
C61 C 0.70731 0.12616 0.96948 0.0
C62 C 0.74458 0.18121 0.10125 0.0
Zn63 Zn 0.27843 0.40554 0.59209 0.0
Zn64 Zn 0.33118 0.33947 0.39584 0.0
Zn65 Zn 0.3074 0.3725 0.49401 0.0
C66 C 0.40508 0.33568 0.46736 0.0
C67 C 0.31659 0.43151 0.37501 0.0
O68 O 0.24937 0.3331 0.52401 0.0
O69 O 0.22596 0.36707 0.60169 0.0
C70 C 0.36386 0.36867 0.61124 0.0
O71 O 0.37648 0.35032 0.50322 0.0
O72 O 0.39346 0.3261 0.41735 0.0
O73 O 0.3221 0.39613 0.34702 0.0
O74 O 0.30982 0.42836 0.42958 0.0
O75 O 0.33205 0.38647 0.63766 0.0
O76 O 0.36031 0.36075 0.55748 0.0
O77 O 0.29851 0.44673 0.48239 0.0
O78 O 0.274 0.47043 0.56542 0.0
C79 C 0.28695 0.47921 0.51458 0.0
O80 O 0.2585 0.32089 0.46665 0.0
O81 O 0.28801 0.29106 0.38955 0.0
C82 C 0.22264 0.3356 0.56697 0.0
C83 C 0.25705 0.29278 0.4257 0.0
H84 H 0.04994 0.17209 0.19831 0.0
H85 H 0.18633 0.12954 0.20905 0.0
H86 H 0.09977 0.06908 0.08996 0.0
H87 H 0.1757 0.14269 0.30249 0.0
C88 C 0.15789 0.17486 0.29998 0.0
C89 C 0.07713 0.1514 0.18365 0.0
C90 C 0.07068 0.12206 0.13838 0.0
C91 C 0.11818 0.15313 0.21122 0.0
C92 C 0.15377 0.1274 0.19041 0.0
C93 C 0.14701 0.09642 0.14733 0.0
C94 C 0.10546 0.09398 0.12167 0.0
N95 N 0.12274 0.18046 0.25983 0.0
H96 H 0.29197 0.65199 0.63032 0.0
H97 H 0.40252 0.73732 0.66489 0.0
H98 H 0.40267 0.6592 0.51411 0.0
H99 H 0.38299 0.7115 0.75657 0.0
C100 C 0.34749 0.71674 0.75548 0.0
C101 C 0.32273 0.66757 0.6163 0.0
C102 C 0.34407 0.65295 0.56652 0.0
C103 C 0.34311 0.6987 0.65147 0.0
C104 C 0.38502 0.71574 0.6363 0.0
C105 C 0.40714 0.69971 0.58825 0.0
C106 C 0.38492 0.67206 0.55063 0.0
N107 N 0.32313 0.70826 0.70492 0.0
H108 H 0.97951 0.81079 0.29749 0.0
H109 H 0.85864 0.87505 0.35003 0.0
H110 H 0.91881 0.91492 0.18858 0.0
H111 H 0.90656 0.86478 0.44391 0.0
C112 C 0.90303 0.82925 0.4347 0.0
C113 C 0.95267 0.8346 0.2887 0.0
C114 C 0.95245 0.86141 0.23733 0.0
C115 C 0.91968 0.84017 0.33021 0.0
C116 C 0.88475 0.87092 0.31873 0.0
C117 C 0.8837 0.89703 0.26703 0.0
C118 C 0.91805 0.89283 0.22697 0.0
N119 N 0.92166 0.81404 0.38281 0.0
H120 H 0.53196 0.2962 0.77785 0.0
H121 H 0.66144 0.35391 0.75281 0.0
H122 H 0.55022 0.41091 0.6603 0.0
H123 H 0.56148 0.26488 0.86125 0.0
C124 C 0.59664 0.26179 0.85318 0.0
C125 C 0.55357 0.3214 0.75788 0.0
C126 C 0.53645 0.35245 0.71585 0.0
C127 C 0.59875 0.32289 0.77246 0.0
C128 C 0.62641 0.35421 0.74334 0.0
C129 C 0.6091 0.38703 0.70408 0.0
C130 C 0.56398 0.38595 0.69102 0.0
N131 N 0.61848 0.29287 0.81445 0.0
H132 H 0.56234 0.30912 0.33678 0.0
H133 H 0.68939 0.3718 0.31004 0.0
H134 H 0.60496 0.41348 0.44625 0.0
H135 H 0.68508 0.34365 0.22247 0.0
C136 C 0.66549 0.31299 0.22717 0.0
C137 C 0.58726 0.33298 0.34935 0.0
C138 C 0.58007 0.35912 0.39743 0.0
C139 C 0.626 0.33757 0.31677 0.0
C140 C 0.65874 0.36814 0.3337 0.0
C141 C 0.65097 0.39613 0.3803 0.0
C142 C 0.6118 0.39098 0.41197 0.0
N143 N 0.63063 0.31029 0.26812 0.0
H144 H 0.00255 0.18578 0.75964 0.0
H145 H 0.13975 0.14889 0.78279 0.0
H146 H 0.03908 0.07509 0.87619 0.0
H147 H 0.14732 0.22268 0.75413 0.0
C148 C 0.12485 0.22585 0.7179 0.0
C149 C 0.02785 0.16437 0.7798 0.0
C150 C 0.01619 0.13097 0.82179 0.0
C151 C 0.07236 0.17114 0.76522 0.0
C152 C 0.10519 0.14395 0.79291 0.0
C153 C 0.09336 0.10822 0.83159 0.0
C154 C 0.04869 0.10207 0.84551 0.0
N155 N 0.08322 0.20414 0.72121 0.0
H156 H 0.46791 0.69833 0.24354 0.0
H157 H 0.35345 0.61678 0.21318 0.0
H158 H 0.42479 0.59816 0.37132 0.0
H159 H 0.38146 0.62831 0.1201 0.0
C160 C 0.38505 0.66488 0.11945 0.0
C161 C 0.44418 0.67309 0.25862 0.0
C162 C 0.45 0.65038 0.31247 0.0
C163 C 0.40942 0.66143 0.22254 0.0
C164 C 0.37978 0.62716 0.24098 0.0
C165 C 0.3855 0.60427 0.29445 0.0
C166 C 0.4195 0.61711 0.33087 0.0
N167 N 0.40536 0.68414 0.16768 0.0
H168 H 0.77746 0.82053 0.91885 0.0
H169 H 0.90715 0.78322 0.86311 0.0
H170 H 0.88919 0.81941 0.03489 0.0
H171 H 0.88027 0.79894 0.77654 0.0
C172 C 0.84576 0.78945 0.77855 0.0
C173 C 0.81133 0.81294 0.93016 0.0
C174 C 0.82768 0.82055 0.98604 0.0
C175 C 0.83927 0.79881 0.88577 0.0
C176 C 0.88452 0.79275 0.8966 0.0
C177 C 0.90147 0.80106 0.95066 0.0
C178 C 0.8732 0.81246 0.9952 0.0
N179 N 0.82097 0.79243 0.83043 0.0
C180 C 0.22582 -0.0044 0.15396 0.0
C181 C 0.22804 0.98742 0.09474 0.0
C182 C 0.19823 0.06365 0.07385 0.0
C183 C 0.18209 0.06363 0.13146 0.0
N184 N 0.18053 0.02728 0.2272 0.0
N185 N 0.23789 0.02168 1.00097 0.0
C186 C 0.19678 0.02967 0.17234 0.0
C187 C 0.22103 0.02427 0.05507 0.0
N188 N 0.25161 0.9712 0.19217 0.0
N189 N 0.19064 0.10061 0.03768 0.0
H190 H 0.25663 0.99358 0.98933 0.0
H191 H 0.23575 0.04752 0.96921 0.0
H192 H 0.17554 0.13014 0.05167 0.0
H193 H 0.19982 0.10271 0.9946 0.0
H194 H 0.25288 0.97799 0.23571 0.0
H195 H 0.27596 0.9488 0.17848 0.0
H196 H 0.18747 4e-05 0.25595 0.0
H197 H 0.1571 0.04979 0.24256 0.0
C198 C 0.52793 0.72457 0.55138 0.0
C199 C 0.54774 0.68496 0.57695 0.0
C200 C 0.47733 0.6617 0.61881 0.0
C201 C 0.45605 0.69817 0.5877 0.0
N202 N 0.45992 0.76191 0.51945 0.0
N203 N 0.53948 0.61014 0.6221 0.0
C204 C 0.481 0.72893 0.55223 0.0
C205 C 0.52183 0.6518 0.60667 0.0
N206 N 0.55391 0.75845 0.52839 0.0
N207 N 0.45562 0.63697 0.66108 0.0
H208 H 0.57197 0.60097 0.61268 0.0
H209 H 0.52052 0.58314 0.63856 0.0
H210 H 0.42256 0.64191 0.67162 0.0
H211 H 0.47161 0.6137 0.68904 0.0
H212 H 0.54168 0.79012 0.51428 0.0
H213 H 0.58827 0.75562 0.52664 0.0
H214 H 0.47598 0.78267 0.48876 0.0
H215 H 0.42576 0.7667 0.52089 0.0
C216 C 0.82618 0.01163 0.26298 0.0
C217 C 0.79771 0.00594 0.21575 0.0
C218 C 0.81047 0.92383 0.22588 0.0
C219 C 0.84937 0.93271 0.25744 0.0
N220 N 0.89252 0.98499 0.31101 0.0
N221 N 0.74763 0.95583 0.17161 0.0
C222 C 0.85638 0.97647 0.27833 0.0
C223 C 0.78482 0.96144 0.20327 0.0
N224 N 0.82282 0.04941 0.29463 0.0
N225 N 0.79881 0.87992 0.21752 0.0
H226 H 0.72758 0.98348 0.159 0.0
H227 H 0.7357 0.92459 0.15979 0.0
H228 H 0.81684 0.8524 0.23514 0.0
H229 H 0.77115 0.87047 0.19473 0.0
H230 H 0.84117 0.05373 0.33175 0.0
H231 H 0.79706 0.07284 0.28855 0.0
H232 H 0.90142 0.01771 0.32161 0.0
H233 H 0.91503 0.9598 0.32455 0.0
C234 C 0.43067 0.32043 0.63838 0.0
C235 C 0.40692 0.36204 0.6411 0.0
C236 C 0.46263 0.39008 0.70654 0.0
C237 C 0.48957 0.35168 0.69684 0.0
N238 N 0.50217 0.28325 0.64543 0.0
N239 N 0.40726 0.44107 0.66603 0.0
C240 C 0.47437 0.31742 0.66073 0.0
C241 C 0.42459 0.39813 0.6723 0.0
N242 N 0.41121 0.28342 0.61609 0.0
N243 N 0.47368 0.41917 0.7482 0.0
H244 H 0.38174 0.44979 0.63762 0.0
H245 H 0.4218 0.46921 0.6837 0.0
H246 H 0.50124 0.41389 0.77451 0.0
H247 H 0.45306 0.44558 0.76039 0.0
H248 H 0.42564 0.25116 0.61793 0.0
H249 H 0.37887 0.2839 0.60084 0.0
H250 H 0.49443 0.26063 0.61385 0.0
H251 H 0.53434 0.27969 0.66087 0.0
C252 C 0.72026 0.47615 0.46779 0.0
C253 C 0.72161 0.51412 0.42849 0.0
C254 C 0.68895 0.4701 0.35365 0.0
C255 C 0.68168 0.43356 0.39425 0.0
N256 N 0.70084 0.39628 0.48507 0.0
N257 N 0.73679 0.53286 0.32834 0.0
C258 C 0.70113 0.43466 0.44993 0.0
C259 C 0.71565 0.50655 0.36938 0.0
N260 N 0.73912 0.4796 0.52049 0.0
N261 N 0.66819 0.47213 0.30161 0.0
H262 H 0.76117 0.55595 0.33878 0.0
H263 H 0.73514 0.52656 0.28468 0.0
H264 H 0.64599 0.44777 0.28871 0.0
H265 H 0.6698 0.50071 0.27359 0.0
H266 H 0.7393 0.45398 0.55263 0.0
H267 H 0.75676 0.50844 0.53087 0.0
H268 H 0.7135 0.39419 0.52652 0.0
H269 H 0.68879 0.3654 0.47157 0.0
C270 C 0.90864 0.15043 0.90275 0.0
C271 C 0.89044 0.10627 0.90158 0.0
C272 C 0.94832 0.08407 0.83469 0.0
C273 C 0.97021 0.12561 0.84303 0.0
N274 N 0.97464 0.19586 0.8927 0.0
N275 N 0.89747 0.02817 0.87465 0.0
C276 C 0.95125 0.15835 0.87892 0.0
C277 C 0.91132 0.07227 0.8695 0.0
N278 N 0.88473 0.18514 0.92482 0.0
N279 N 0.96286 0.05603 0.79329 0.0
H280 H 0.87162 0.01755 0.90162 0.0
H281 H 0.91452 0.00134 0.85679 0.0
H282 H 0.98964 0.06414 0.7665 0.0
H283 H 0.94575 0.02725 0.78178 0.0
H284 H 0.89465 0.21896 0.9212 0.0
H285 H 0.85312 0.18079 0.94206 0.0
H286 H 0.96413 0.21809 0.92362 0.0
H287 H 0.00621 0.20287 0.87685 0.0
C288 C 0.30361 0.51508 0.35192 0.0
C289 C 0.3306 0.47568 0.3485 0.0
C290 C 0.38654 0.52012 0.29595 0.0
C291 C 0.36307 0.56044 0.30722 0.0
N292 N 0.3009 0.59766 0.35012 0.0
N293 N 0.40386 0.44454 0.33218 0.0
C294 C 0.32185 0.55841 0.33623 0.0
C295 C 0.37365 0.47902 0.32419 0.0
N296 N 0.26066 0.51097 0.36925 0.0
N297 N 0.42147 0.52102 0.25862 0.0
H298 H 0.39789 0.41499 0.35717 0.0
H299 H 0.43689 0.44777 0.31999 0.0
H300 H 0.43165 0.55056 0.23619 0.0
H301 H 0.43714 0.49159 0.24541 0.0
H302 H 0.23828 0.538 0.36806 0.0
H303 H 0.24653 0.47959 0.38055 0.0
H304 H 0.27321 0.59841 0.37672 0.0
H305 H 0.31301 0.62972 0.33771 0.0
C306 C 0.01215 0.85638 0.97505 0.0
C307 C 0.04103 0.81881 0.96964 0.0
C308 C 0.97787 0.76789 0.96241 0.0
C309 C 0.94963 0.80646 0.95854 0.0
N310 N 0.94017 0.88824 0.95319 0.0
N311 N 0.05302 0.73886 0.95797 0.0
C312 C 0.96674 0.85096 0.96339 0.0
C313 C 0.02433 0.77443 0.96363 0.0
N314 N 0.02816 0.89747 0.99027 0.0
N315 N 0.96019 0.72528 0.96588 0.0
H316 H 0.08712 0.7423 0.9623 0.0
H317 H 0.04332 0.7066 0.94676 0.0
H318 H 0.92624 0.71959 0.96467 0.0
H319 H 0.97874 0.69586 0.97428 0.0
H320 H 0.00789 0.92447 1.0013 0.0
H321 H 0.06154 0.90348 0.99716 0.0
H322 H 0.95199 0.92138 0.94983 0.0
H323 H 0.90686 0.88618 0.94251 0.0
C324 C 0.74447 0.90599 0.02646 0.0
C325 C 0.77674 0.93625 0.04721 0.0
C326 C 0.82304 0.87058 0.07119 0.0
C327 C 0.80074 0.84613 0.02965 0.0
N328 N 0.72714 0.82798 1.00264 0.0
N329 N 0.84863 0.94493 0.09171 0.0
C330 C 0.75674 0.85978 0.01823 0.0
C331 C 0.81616 0.91792 0.07197 0.0
N332 N 0.70346 0.92228 0.01224 0.0
N333 N 0.84826 0.84821 0.1116 0.0
H334 H 0.84612 0.98011 0.09246 0.0
H335 H 0.87951 0.93184 0.1036 0.0
H336 H 0.8491 0.8127 0.11499 0.0
H337 H 0.86461 0.86487 0.14361 0.0
H338 H 0.67949 0.90348 0.9922 0.0
H339 H 0.69365 0.95535 0.021 0.0
H340 H 0.69372 0.83444 0.99578 0.0
H341 H 0.73653 0.79386 1.00058 0.0
C342 C 0.48146 0.30344 0.47262 0.0
C343 C 0.4529 0.34125 0.47708 0.0
C344 C 0.50941 0.39185 0.43689 0.0
C345 C 0.53823 0.35408 0.43094 0.0
N346 N 0.55691 0.2769 0.46156 0.0
N347 N 0.44735 0.42199 0.48848 0.0
C348 C 0.52602 0.31071 0.45512 0.0
C349 C 0.46979 0.38565 0.46845 0.0
N350 N 0.46537 0.2607 0.48296 0.0
N351 N 0.51748 0.4326 0.40849 0.0
H352 H 0.41847 0.41851 0.5126 0.0
H353 H 0.46077 0.45451 0.48749 0.0
H354 H 0.54409 0.43808 0.38065 0.0
H355 H 0.49491 0.45953 0.40761 0.0
H356 H 0.48306 0.2313 0.4743 0.0
H357 H 0.43332 0.25518 0.49834 0.0
H358 H 0.55057 0.24577 0.48286 0.0
H359 H 0.59005 0.28179 0.45062 0.0
C360 C 0.18158 0.01597 0.85648 0.0
C361 C 0.1676 -0.00062 0.91145 0.0
C362 C 0.12318 0.06816 0.91987 0.0
C363 C 0.12665 0.07699 0.8597 0.0
N364 N 0.15736 0.05444 0.76863 0.0
N365 N 0.1205 0.00883 0.99433 0.0
C366 C 0.15631 0.05046 0.82728 0.0
C367 C 0.13795 0.0257 0.94375 0.0
N368 N 0.2174 -0.00326 0.83115 0.0
N369 N 0.10431 0.09976 0.95358 0.0
H370 H 0.13049 0.97821 0.01436 0.0
H371 H 0.09332 0.02385 0.01367 0.0
H372 H 0.09465 0.13188 0.93724 0.0
H373 H 0.10248 0.09566 0.99804 0.0
H374 H 0.23095 0.00954 0.79257 0.0
H375 H 0.23596 0.97107 0.85223 0.0
H376 H 0.17553 0.03246 0.74365 0.0
H377 H 0.13687 0.07625 0.74439 0.0
C378 C 0.54521 0.70546 0.39092 0.0
C379 C 0.57151 0.66674 0.40565 0.0
C380 C 0.5203 0.61854 0.35569 0.0
C381 C 0.49141 0.65633 0.34583 0.0
N382 N 0.47239 0.73403 0.36449 0.0
N383 N 0.57938 0.58491 0.41291 0.0
C384 C 0.50263 0.69938 0.36669 0.0
C385 C 0.55717 0.62276 0.39218 0.0
N386 N 0.56138 0.74794 0.39841 0.0
N387 N 0.51466 0.5796 0.32674 0.0
H388 H 0.60765 0.58624 0.43817 0.0
H389 H 0.56737 0.55207 0.4093 0.0
H390 H 0.49039 0.57619 0.29574 0.0
H391 H 0.53727 0.55274 0.32824 0.0
H392 H 0.54558 0.77755 0.38306 0.0
H393 H 0.59219 0.75332 0.41676 0.0
H394 H 0.47745 0.76496 0.38339 0.0
H395 H 0.44062 0.73035 0.34824 0.0
C396 C 0.26935 0.56247 0.50604 0.0
C397 C 0.30023 0.52662 0.50004 0.0
C398 C 0.35885 0.57381 0.53365 0.0
C399 C 0.32899 0.61092 0.53879 0.0
N400 N 0.25804 0.64381 0.51352 0.0
N401 N 0.37667 0.50764 0.48179 0.0
C402 C 0.28481 0.60646 0.51936 0.0
C403 C 0.3457 0.53598 0.50351 0.0
N404 N 0.22539 0.5539 0.50081 0.0
N405 N 0.3979 0.57175 0.56278 0.0
H406 H 0.36879 0.47899 0.45971 0.0
H407 H 0.40998 0.51638 0.47966 0.0
H408 H 0.40629 0.59498 0.59301 0.0
H409 H 0.41867 0.54331 0.5633 0.0
H410 H 0.20076 0.57719 0.51074 0.0
H411 H 0.214 0.52243 0.48831 0.0
H412 H 0.22662 0.64295 0.49555 0.0
H413 H 0.26904 0.6764 0.52171 0.0
C414 C 0.03693 0.81463 0.13305 0.0
C415 C 0.06878 0.84961 0.13238 0.0
C416 C 0.02242 0.89441 0.19542 0.0
C417 C 0.99051 0.85928 0.19686 0.0
N418 N 0.96159 0.79199 0.1558 0.0
N419 N 0.08603 0.92804 0.14702 0.0
C420 C -0.00409 0.82123 0.16192 0.0
C421 C 0.0595 0.89128 0.15837 0.0
N422 N 0.0466 0.77461 0.10814 0.0
N423 N 0.01861 0.9296 0.2316 0.0
H424 H 0.11326 0.92702 0.11946 0.0
H425 H 0.07861 0.96059 0.16012 0.0
H426 H 0.9921 0.93331 0.25973 0.0
H427 H 0.04344 0.95331 0.23705 0.0
H428 H 0.02673 0.74593 0.11213 0.0
H429 H 0.07593 0.76946 0.08559 0.0
H430 H 0.96177 0.76619 0.12662 0.0
H431 H 0.93125 0.79614 0.17639 0.0
C432 C 0.64558 0.47331 0.58965 0.0
C433 C 0.67259 0.50226 0.62132 0.0
C434 C 0.66364 0.45232 0.70705 0.0
C435 C 0.63739 0.42262 0.67514 0.0
N436 N 0.61908 0.39646 0.58173 0.0
N437 N 0.72068 0.50959 0.70234 0.0
C438 C 0.63396 0.43022 0.61475 0.0
C439 C 0.68671 0.48778 0.67711 0.0
N440 N 0.62812 0.4878 0.53807 0.0
N441 N 0.66344 0.44999 0.76576 0.0
H442 H 0.73801 0.53574 0.68072 0.0
H443 H 0.73427 0.4984 0.74158 0.0
H444 H 0.64383 0.4276 0.79025 0.0
H445 H 0.67907 0.47395 0.79017 0.0
H446 H 0.60392 0.4697 0.51731 0.0
H447 H 0.63537 0.51921 0.51813 0.0
H448 H 0.61846 0.39949 0.53722 0.0
H449 H 0.6122 0.36385 0.59866 0.0
C450 C 0.95925 0.07971 0.08666 0.0
C451 C 0.93968 0.12151 0.06778 0.0
C452 C 0.011 0.15903 0.07749 0.0
C453 C 0.0271 0.1201 0.10912 0.0
N454 N 0.01494 0.0435 0.14755 0.0
N455 N 0.94631 0.20155 0.04482 0.0
C456 C 0.00119 0.08002 0.11379 0.0
C457 C 0.96566 0.16124 0.06204 0.0
N458 N 0.93697 0.04004 0.08068 0.0
N459 N 0.03905 0.19361 0.06202 0.0
H460 H 0.91338 0.20373 0.03187 0.0
H461 H 0.96216 0.23276 0.04617 0.0
H462 H 0.07261 0.19262 0.07207 0.0
H463 H 0.02999 0.22097 0.0346 0.0
H464 H 0.95096 0.00808 0.08956 0.0
H465 H 0.90619 0.03901 0.0609 0.0
H466 H -0.00478 0.01532 0.15719 0.0
H467 H 0.04446 0.04292 0.17043 0.0
C468 C 0.2852 0.71112 0.04108 0.0
C469 C 0.29369 0.75791 0.04667 0.0
C470 C 0.37075 0.74105 0.07028 0.0
C471 C 0.35928 0.69471 0.07821 0.0
N472 N 0.31455 0.63393 0.04492 0.0
N473 N 0.34497 0.81906 0.05631 0.0
C474 C 0.31936 0.67901 0.05467 0.0
C475 C 0.33705 0.77342 0.05656 0.0
N476 N 0.24383 0.6977 0.02627 0.0
N477 N 0.41396 0.75334 0.07461 0.0
H478 H 0.32103 0.8432 0.04399 0.0
H479 H 0.37451 0.83308 0.06945 0.0
H480 H 0.43905 0.72917 0.08113 0.0
H481 H 0.42547 0.78617 0.06618 0.0
H482 H 0.23357 0.66404 0.02723 0.0
H483 H 0.21911 0.72102 0.01409 0.0
H484 H 0.28707 0.62039 0.02538 0.0
H485 H 0.34038 0.6106 0.0505 0.0
C486 C 0.7577 0.76636 0.66927 0.0
C487 C 0.77354 0.72473 0.64859 0.0
C488 C 0.84248 0.73207 0.70158 0.0
C489 C 0.82465 0.77126 0.72699 0.0
N490 N 0.77335 0.83404 0.72141 0.0
N491 N 0.8343 0.67493 0.62984 0.0
C492 C 0.78476 0.79118 0.70626 0.0
C493 C 0.81739 0.71022 0.65928 0.0
N494 N 0.71587 0.78075 0.65562 0.0
N495 N 0.88174 0.71402 0.72074 0.0
H496 H 0.81583 0.65848 0.59931 0.0
H497 H 0.86722 0.66462 0.63171 0.0
H498 H 0.90126 0.72932 0.75109 0.0
H499 H 0.89421 0.68282 0.70873 0.0
H500 H 0.69996 0.80772 0.67465 0.0
H501 H 0.69638 0.76437 0.62607 0.0
H502 H 0.7465 0.85216 0.70425 0.0
H503 H 0.79333 0.85324 0.74739 0.0
C504 C 0.70391 0.2546 0.0935 0.0
C505 C 0.70552 0.20899 0.11444 0.0
C506 C 0.67283 0.22946 0.20543 0.0
C507 C 0.67315 0.2761 0.18627 0.0
N508 N 0.67534 0.33077 0.10586 0.0
N509 N 0.67558 0.15092 0.17796 0.0
C510 C 0.68406 0.28795 0.128 0.0
C511 C 0.68327 0.1959 0.16565 0.0
N512 N 0.72349 0.266 0.04207 0.0
N513 N 0.66776 0.21707 0.26232 0.0
H514 H 0.68455 0.12603 0.14943 0.0
H515 H 0.65656 0.13925 0.21289 0.0
H516 H 0.66527 0.24009 0.29477 0.0
H517 H 0.67139 0.18368 0.2784 0.0
H518 H 0.72821 0.29937 0.02677 0.0
H519 H 0.73624 0.24122 0.0157 0.0
H520 H 0.67962 0.34038 0.06264 0.0
H521 H 0.65976 0.35549 0.12968 0.0
C522 C 0.21162 0.25753 0.60984 0.0
C523 C 0.19305 0.29775 0.58388 0.0
C524 C 0.12314 0.28352 0.63424 0.0
C525 C 0.14285 0.24504 0.66291 0.0
N526 N 0.19819 0.18609 0.66232 0.0
N527 N 0.12864 0.34097 0.55619 0.0
C528 C 0.18449 0.2288 0.64497 0.0
C529 C 0.1476 0.3076 0.59058 0.0
N530 N 0.25591 0.24891 0.60566 0.0
N531 N 0.08285 0.29907 0.65153 0.0
H532 H 0.14663 0.35868 0.52417 0.0
H533 H 0.09487 0.3479 0.55566 0.0
H534 H 0.064 0.28236 0.68331 0.0
H535 H 0.06914 0.32988 0.63663 0.0
H536 H 0.27198 0.22339 0.63012 0.0
H537 H 0.27726 0.26871 0.58009 0.0
H538 H 0.22665 0.17083 0.64658 0.0
H539 H 0.17846 0.16422 0.68769 0.0
C540 C 0.84495 0.72178 0.48151 0.0
C541 C 0.80146 0.73861 0.48815 0.0
C542 C 0.82745 0.81691 0.47872 0.0
C543 C 0.87035 0.79996 0.46599 0.0
N544 N 0.9232 0.73888 0.47684 0.0
N545 N 0.75298 0.79973 0.51227 0.0
C546 C 0.88017 0.75307 0.47469 0.0
C547 C 0.79341 0.78551 0.49369 0.0
N548 N 0.85209 0.67603 0.47904 0.0
N549 N 0.8183 0.86238 0.47246 0.0
H550 H 0.72753 0.77704 0.52253 0.0
H551 H 0.74594 0.83306 0.52258 0.0
H552 H 0.84225 0.887 0.46425 0.0
H553 H 0.78645 0.87587 0.47327 0.0
H554 H 0.88217 0.66172 0.46739 0.0
H555 H 0.82706 0.65231 0.48671 0.0
H556 H 0.93285 0.70557 0.48742 0.0
H557 H 0.94943 0.76169 0.47366 0.0
C558 C 0.64385 0.18272 0.97364 0.0
C559 C 0.68051 0.16431 0.94446 0.0
C560 C 0.65736 0.2038 0.85518 0.0
C561 C 0.62362 0.22661 0.8851 0.0
N562 N 0.58922 0.24333 0.97569 0.0
N563 N 0.72932 0.16869 0.86209 0.0
C564 C 0.61798 0.21766 0.94529 0.0
C565 C 0.68955 0.17859 0.88673 0.0
N566 N 0.63286 0.16586 0.02728 0.0
N567 N 0.65734 0.20377 0.79648 0.0
H568 H 0.75474 0.15181 0.88459 0.0
H569 H 0.73871 0.18188 0.82162 0.0
H570 H 0.63198 0.21826 0.77148 0.0
H571 H 0.67939 0.18429 0.77323 0.0
H572 H 0.60399 0.17485 0.04855 0.0
H573 H 0.65122 0.14031 0.04873 0.0
H574 H 0.58727 0.24141 0.0204 0.0
H575 H 0.56994 0.26927 0.95665 0.0
C576 C 0.21409 0.22065 0.42867 0.0
C577 C 0.21674 0.26733 0.41286 0.0
C578 C 0.17108 0.2567 0.32841 0.0
C579 C 0.16957 0.20913 0.34278 0.0
N580 N 0.17517 0.15 0.4177 0.0
N581 N 0.18446 0.33208 0.36271 0.0
C582 C 0.18607 0.19257 0.39695 0.0
C583 C 0.18979 0.28604 0.36842 0.0
N584 N 0.24032 0.20277 0.47159 0.0
N585 N 0.15936 0.27378 0.27509 0.0
H586 H 0.19874 0.35389 0.39144 0.0
H587 H 0.16236 0.34778 0.33379 0.0
H588 H 0.14847 0.25422 0.24206 0.0
H589 H 0.16471 0.30747 0.26145 0.0
H590 H 0.24359 0.168 0.48098 0.0
H591 H 0.26066 0.2231 0.4956 0.0
H592 H 0.1837 0.13749 0.45874 0.0
H593 H 0.15346 0.12926 0.39624 0.0
C594 C 0.25646 0.73341 0.86386 0.0
C595 C 0.26846 0.77612 0.88442 0.0
C596 C 0.33836 0.77404 0.83177 0.0
C597 C 0.32435 0.73343 0.80676 0.0
N598 N 0.27903 0.66656 0.81358 0.0
N599 N 0.32496 0.83015 0.9036 0.0
C600 C 0.28617 0.71047 0.82763 0.0
C601 C 0.31116 0.79382 0.87405 0.0
N602 N 0.21581 0.71594 0.8772 0.0
N603 N 0.37581 0.79539 0.8122 0.0
H604 H 0.30505 0.84546 0.93396 0.0
H605 H 0.35709 0.84246 0.90204 0.0
H606 H 0.39687 0.78182 0.78179 0.0
H607 H 0.385 0.82772 0.82371 0.0
H608 H 0.20256 0.6878 0.85813 0.0
H609 H 0.19456 0.73094 0.90639 0.0
H610 H 0.25367 0.64656 0.83095 0.0
H611 H 0.30125 0.6486 0.78863 0.0
loop_
_geom_bond_atom_site_label_1
_geom_bond_atom_site_label_2
_geom_bond_distance
_geom_bond_site_symmetry_2
_ccdc_geom_bond_type
Zn0 O6 1.920 . S
Zn0 O12 1.898 . S
Zn0 O15 1.905 . S
Zn1 O9 1.905 . S
Zn1 O10 1.898 . S
Zn1 O18 1.920 . S
Zn2 O5 2.081 . S
Zn2 O8 2.113 1_554 S
Zn2 O11 2.119 1_554 S
Zn2 O13 2.120 . S
Zn2 O14 2.114 . S
Zn2 O17 2.080 1_554 S
C3 O8 1.166 . S
C3 O9 1.182 . S
C4 O10 1.167 . S
C4 O11 1.299 . S
O5 Zn2 2.081 . S
O5 C19 1.305 . S
O6 Zn0 1.920 . S
O6 C19 1.234 . S
C7 O12 1.167 . S
C7 O13 1.299 . S
O8 Zn2 2.113 1_556 S
O8 C3 1.166 . S
O9 Zn1 1.905 . S
O9 C3 1.182 . S
O10 Zn1 1.898 . S
O10 C4 1.167 . S
O11 Zn2 2.119 1_556 S
O11 C4 1.299 . S
O12 Zn0 1.898 . S
O12 C7 1.167 . S
O13 Zn2 2.120 . S
O13 C7 1.299 . S
O14 Zn2 2.114 . S
O14 C16 1.166 . S
O15 Zn0 1.905 . S
O15 C16 1.182 . S
C16 O14 1.166 . S
C16 O15 1.182 . S
O17 Zn2 2.080 1_556 S
O17 C20 1.305 . S
O18 Zn1 1.920 . S
O18 C20 1.234 . S
C19 O5 1.305 . S
C19 O6 1.234 . S
C20 O17 1.305 . S
C20 O18 1.234 . S
Zn21 O27 1.920 . S
Zn21 O33 1.898 . S
Zn21 O36 1.905 . S
Zn22 O30 1.905 . S
Zn22 O31 1.898 . S
Zn22 O39 1.920 . S
Zn23 O26 2.080 . S
Zn23 O29 2.114 . S
Zn23 O32 2.120 . S
Zn23 O34 2.120 . S
Zn23 O35 2.114 . S
Zn23 O38 2.080 . S
C24 O29 1.166 . S
C24 O30 1.182 . S
C25 O31 1.167 . S
C25 O32 1.299 . S
O26 Zn23 2.080 . S
O26 C40 1.305 . S
O27 Zn21 1.920 . S
O27 C40 1.234 . S
C28 O33 1.167 . S
C28 O34 1.299 . S
O29 Zn23 2.114 . S
O29 C24 1.166 . S
O30 Zn22 1.905 . S
O30 C24 1.182 . S
O31 Zn22 1.898 . S
O31 C25 1.167 . S
O32 Zn23 2.120 . S
O32 C25 1.299 . S
O33 Zn21 1.898 . S
O33 C28 1.167 . S
O34 Zn23 2.120 . S
O34 C28 1.299 . S
O35 Zn23 2.114 . S
O35 C37 1.166 . S
O36 Zn21 1.905 . S
O36 C37 1.182 . S
C37 O35 1.166 . S
C37 O36 1.182 . S
O38 Zn23 2.080 . S
O38 C41 1.305 . S
O39 Zn22 1.920 . S
O39 C41 1.234 . S
C40 O26 1.305 . S
C40 O27 1.234 . S
C41 O38 1.305 . S
C41 O39 1.234 . S
Zn42 O48 1.920 . S
Zn42 O54 1.898 . S
Zn42 O57 1.905 . S
Zn43 O51 1.905 . S
Zn43 O52 1.898 . S
Zn43 O60 1.920 . S
Zn44 O47 2.080 1_554 S
Zn44 O50 2.114 . S
Zn44 O53 2.120 . S
Zn44 O55 2.120 1_554 S
Zn44 O56 2.114 1_554 S
Zn44 O59 2.080 . S
C45 O50 1.166 . S
C45 O51 1.182 . S
C46 O52 1.167 . S
C46 O53 1.299 . S
O47 Zn44 2.080 1_556 S
O47 C61 1.305 . S
O48 Zn42 1.920 . S
O48 C61 1.234 . S
C49 O54 1.167 . S
C49 O55 1.299 . S
O50 Zn44 2.114 . S
O50 C45 1.166 . S
O51 Zn43 1.905 . S
O51 C45 1.182 . S
O52 Zn43 1.898 . S
O52 C46 1.167 . S
O53 Zn44 2.120 . S
O53 C46 1.299 . S
O54 Zn42 1.898 . S
O54 C49 1.167 . S
O55 Zn44 2.120 1_556 S
O55 C49 1.299 . S
O56 Zn44 2.114 1_556 S
O56 C58 1.166 . S
O57 Zn42 1.905 . S
O57 C58 1.182 . S
C58 O56 1.166 . S
C58 O57 1.182 . S
O59 Zn44 2.080 . S
O59 C62 1.305 . S
O60 Zn43 1.920 . S
O60 C62 1.234 . S
C61 O47 1.305 . S
C61 O48 1.234 . S
C62 O59 1.305 . S
C62 O60 1.234 . S
Zn63 O69 1.920 . S
Zn63 O75 1.898 . S
Zn63 O78 1.905 . S
Zn64 O72 1.905 . S
Zn64 O73 1.898 . S
Zn64 O81 1.920 . S
Zn65 O68 2.080 . S
Zn65 O71 2.114 . S
Zn65 O74 2.120 . S
Zn65 O76 2.120 . S
Zn65 O77 2.114 . S
Zn65 O80 2.080 . S
C66 O71 1.166 . S
C66 O72 1.182 . S
C67 O73 1.167 . S
C67 O74 1.299 . S
O68 Zn65 2.080 . S
O68 C82 1.305 . S
O69 Zn63 1.920 . S
O69 C82 1.234 . S
C70 O75 1.167 . S
C70 O76 1.299 . S
O71 Zn65 2.114 . S
O71 C66 1.166 . S
O72 Zn64 1.905 . S
O72 C66 1.182 . S
O73 Zn64 1.898 . S
O73 C67 1.167 . S
O74 Zn65 2.120 . S
O74 C67 1.299 . S
O75 Zn63 1.898 . S
O75 C70 1.167 . S
O76 Zn65 2.120 . S
O76 C70 1.299 . S
O77 Zn65 2.114 . S
O77 C79 1.166 . S
O78 Zn63 1.905 . S
O78 C79 1.182 . S
C79 O77 1.166 . S
C79 O78 1.182 . S
O80 Zn65 2.080 . S
O80 C83 1.305 . S
O81 Zn64 1.920 . S
O81 C83 1.234 . S
C82 O68 1.305 . S
C82 O69 1.234 . S
C83 O80 1.305 . S
C83 O81 1.234 . S
H84 C89 0.930 . S
H85 C92 0.930 . S
H86 C94 0.930 . S
H87 C88 1.016 . S
C88 H87 1.016 . S
C88 N95 1.286 . S
C89 H84 0.930 . S
C89 C90 1.397 . S
C89 C91 1.361 . S
C90 C89 1.397 . S
C90 C94 1.390 . S
C91 C89 1.361 . S
C91 C92 1.393 . S
C91 N95 1.413 . S
C92 H85 0.930 . S
C92 C91 1.393 . S
C92 C93 1.399 . S
C93 C92 1.399 . S
C93 C94 1.381 . S
C94 H86 0.930 . S
C94 C90 1.390 . S
C94 C93 1.381 . S
N95 C88 1.286 . S
N95 C91 1.413 . S
H96 C101 0.930 . S
H97 C104 0.930 . S
H98 C106 0.930 . S
H99 C100 1.016 . S
C100 H99 1.016 . S
C100 N107 1.286 . S
C101 H96 0.930 . S
C101 C102 1.397 . S
C101 C103 1.361 . S
C102 C101 1.397 . S
C102 C106 1.390 . S
C103 C101 1.361 . S
C103 C104 1.393 . S
C103 N107 1.413 . S
C104 H97 0.930 . S
C104 C103 1.393 . S
C104 C105 1.399 . S
C105 C104 1.399 . S
C105 C106 1.381 . S
C106 H98 0.930 . S
C106 C102 1.390 . S
C106 C105 1.381 . S
N107 C100 1.286 . S
N107 C103 1.413 . S
H108 C113 0.930 . S
H109 C116 0.930 . S
H110 C118 0.930 . S
H111 C112 1.016 . S
C112 H111 1.016 . S
C112 N119 1.286 . S
C113 H108 0.930 . S
C113 C114 1.397 . S
C113 C115 1.361 . S
C114 C113 1.397 . S
C114 C118 1.390 . S
C115 C113 1.361 . S
C115 C116 1.393 . S
C115 N119 1.413 . S
C116 H109 0.930 . S
C116 C115 1.393 . S
C116 C117 1.399 . S
C117 C116 1.399 . S
C117 C118 1.381 . S
C118 H110 0.930 . S
C118 C114 1.390 . S
C118 C117 1.381 . S
N119 C112 1.286 . S
N119 C115 1.413 . S
H120 C125 0.930 . S
H121 C128 0.930 . S
H122 C130 0.930 . S
H123 C124 1.016 . S
C124 H123 1.016 . S
C124 N131 1.286 . S
C125 H120 0.930 . S
C125 C126 1.397 . S
C125 C127 1.361 . S
C126 C125 1.397 . S
C126 C130 1.390 . S
C127 C125 1.361 . S
C127 C128 1.393 . S
C127 N131 1.413 . S
C128 H121 0.930 . S
C128 C127 1.393 . S
C128 C129 1.399 . S
C129 C128 1.399 . S
C129 C130 1.381 . S
C130 H122 0.930 . S
C130 C126 1.390 . S
C130 C129 1.381 . S
N131 C124 1.286 . S
N131 C127 1.413 . S
H132 C137 0.930 . S
H133 C140 0.930 . S
H134 C142 0.930 . S
H135 C136 1.016 . S
C136 H135 1.016 . S
C136 N143 1.286 . S
C137 H132 0.930 . S
C137 C138 1.397 . S
C137 C139 1.361 . S
C138 C137 1.397 . S
C138 C142 1.390 . S
C139 C137 1.361 . S
C139 C140 1.393 . S
C139 N143 1.413 . S
C140 H133 0.930 . S
C140 C139 1.393 . S
C140 C141 1.399 . S
C141 C140 1.399 . S
C141 C142 1.381 . S
C142 H134 0.930 . S
C142 C138 1.390 . S
C142 C141 1.381 . S
N143 C136 1.286 . S
N143 C139 1.413 . S
H144 C149 0.930 . S
H145 C152 0.930 . S
H146 C154 0.930 . S
H147 C148 1.016 . S
C148 H147 1.016 . S
C148 N155 1.286 . S
C149 H144 0.930 . S
C149 C150 1.397 . S
C149 C151 1.361 . S
C150 C149 1.397 . S
C150 C154 1.390 . S
C151 C149 1.361 . S
C151 C152 1.393 . S
C151 N155 1.413 . S
C152 H145 0.930 . S
C152 C151 1.393 . S
C152 C153 1.399 . S
C153 C152 1.399 . S
C153 C154 1.381 . S
C154 H146 0.930 . S
C154 C150 1.390 . S
C154 C153 1.381 . S
N155 C148 1.286 . S
N155 C151 1.413 . S
H156 C161 0.930 . S
H157 C164 0.930 . S
H158 C166 0.930 . S
H159 C160 1.016 . S
C160 H159 1.016 . S
C160 N167 1.286 . S
C161 H156 0.930 . S
C161 C162 1.397 . S
C161 C163 1.361 . S
C162 C161 1.397 . S
C162 C166 1.390 . S
C163 C161 1.361 . S
C163 C164 1.393 . S
C163 N167 1.413 . S
C164 H157 0.930 . S
C164 C163 1.393 . S
C164 C165 1.399 . S
C165 C164 1.399 . S
C165 C166 1.381 . S
C166 H158 0.930 . S
C166 C162 1.390 . S
C166 C165 1.381 . S
N167 C160 1.286 . S
N167 C163 1.413 . S
H168 C173 0.930 . S
H169 C176 0.930 . S
H170 C178 0.930 . S
H171 C172 1.016 . S
C172 H171 1.016 . S
C172 N179 1.286 . S
C173 H168 0.930 . S
C173 C174 1.397 . S
C173 C175 1.361 . S
C174 C173 1.397 . S
C174 C178 1.390 . S
C175 C173 1.361 . S
C175 C176 1.393 . S
C175 N179 1.413 . S
C176 H169 0.930 . S
C176 C175 1.393 . S
C176 C177 1.399 . S
C177 C176 1.399 . S
C177 C178 1.381 . S
C178 H170 0.930 . S
C178 C174 1.390 . S
C178 C177 1.381 . S
N179 C172 1.286 . S
N179 C175 1.413 . S
C180 C181 1.363 . S
C180 C186 1.379 1_565 S
C180 N188 1.356 . S
C181 C180 1.363 . S
C181 C187 1.363 1_565 S
C182 C183 1.363 . S
C182 C187 1.379 . S
C182 N189 1.356 . S
C183 C182 1.363 . S
C183 C186 1.363 . S
N184 C186 1.356 . S
N184 H196 0.984 . S
N184 H197 0.985 . S
N185 C187 1.356 . S
N185 H190 0.984 1_545 S
N185 H191 0.985 . S
C186 C180 1.379 1_545 S
C186 C183 1.363 . S
C186 N184 1.356 . S
C187 C181 1.363 1_545 S
C187 C182 1.379 . S
C187 N185 1.356 . S
N188 C180 1.356 . S
N188 H194 0.984 . S
N188 H195 0.984 . S
N189 C182 1.356 . S
N189 H192 0.984 . S
N189 H193 0.985 . S
H190 N185 0.984 1_565 S
H191 N185 0.985 . S
H192 N189 0.984 . S
H193 N189 0.985 . S
H194 N188 0.984 . S
H195 N188 0.984 . S
H196 N184 0.984 . S
H197 N184 0.985 . S
C198 C199 1.363 . S
C198 C204 1.379 . S
C198 N206 1.356 . S
C199 C198 1.363 . S
C199 C205 1.363 . S
C200 C201 1.363 . S
C200 C205 1.379 . S
C200 N207 1.356 . S
C201 C200 1.363 . S
C201 C204 1.363 . S
N202 C204 1.356 . S
N202 H214 0.984 . S
N202 H215 0.985 . S
N203 C205 1.356 . S
N203 H208 0.984 . S
N203 H209 0.985 . S
C204 C198 1.379 . S
C204 C201 1.363 . S
C204 N202 1.356 . S
C205 C199 1.363 . S
C205 C200 1.379 . S
C205 N203 1.356 . S
N206 C198 1.356 . S
N206 H212 0.984 . S
N206 H213 0.984 . S
N207 C200 1.356 . S
N207 H210 0.984 . S
N207 H211 0.985 . S
H208 N203 0.984 . S
H209 N203 0.985 . S
H210 N207 0.984 . S
H211 N207 0.985 . S
H212 N206 0.984 . S
H213 N206 0.984 . S
H214 N202 0.984 . S
H215 N202 0.985 . S
C216 C217 1.363 . S
C216 C222 1.379 1_545 S
C216 N224 1.356 . S
C217 C216 1.363 . S
C217 C223 1.363 1_545 S
C218 C219 1.363 . S
C218 C223 1.379 . S
C218 N225 1.356 . S
C219 C218 1.363 . S
C219 C222 1.363 . S
N220 C222 1.356 . S
N220 H232 0.984 1_565 S
N220 H233 0.985 . S
N221 C223 1.356 . S
N221 H226 0.984 1_565 S
N221 H227 0.985 . S
C222 C216 1.379 1_565 S
C222 C219 1.363 . S
C222 N220 1.356 . S
C223 C217 1.363 1_565 S
C223 C218 1.379 . S
C223 N221 1.356 . S
N224 C216 1.356 . S
N224 H230 0.984 . S
N224 H231 0.984 . S
N225 C218 1.356 . S
N225 H228 0.984 . S
N225 H229 0.985 . S
H226 N221 0.984 1_545 S
H227 N221 0.985 . S
H228 N225 0.984 . S
H229 N225 0.985 . S
H230 N224 0.984 . S
H231 N224 0.984 . S
H232 N220 0.984 1_545 S
H233 N220 0.985 . S
C234 C235 1.363 . S
C234 C240 1.379 . S
C234 N242 1.356 . S
C235 C234 1.363 . S
C235 C241 1.363 . S
C236 C237 1.363 . S
C236 C241 1.379 . S
C236 N243 1.356 . S
C237 C236 1.363 . S
C237 C240 1.363 . S
N238 C240 1.356 . S
N238 H250 0.984 . S
N238 H251 0.985 . S
N239 C241 1.356 . S
N239 H244 0.984 . S
N239 H245 0.985 . S
C240 C234 1.379 . S
C240 C237 1.363 . S
C240 N238 1.356 . S
C241 C235 1.363 . S
C241 C236 1.379 . S
C241 N239 1.356 . S
N242 C234 1.356 . S
N242 H248 0.984 . S
N242 H249 0.984 . S
N243 C236 1.356 . S
N243 H246 0.984 . S
N243 H247 0.985 . S
H244 N239 0.984 . S
H245 N239 0.985 . S
H246 N243 0.984 . S
H247 N243 0.985 . S
H248 N242 0.984 . S
H249 N242 0.984 . S
H250 N238 0.984 . S
H251 N238 0.985 . S
C252 C253 1.363 . S
C252 C258 1.379 . S
C252 N260 1.356 . S
C253 C252 1.363 . S
C253 C259 1.363 . S
C254 C255 1.363 . S
C254 C259 1.379 . S
C254 N261 1.356 . S
C255 C254 1.363 . S
C255 C258 1.363 . S
N256 C258 1.356 . S
N256 H268 0.984 . S
N256 H269 0.985 . S
N257 C259 1.356 . S
N257 H262 0.984 . S
N257 H263 0.985 . S
C258 C252 1.379 . S
C258 C255 1.363 . S
C258 N256 1.356 . S
C259 C253 1.363 . S
C259 C254 1.379 . S
C259 N257 1.356 . S
N260 C252 1.356 . S
N260 H266 0.984 . S
N260 H267 0.984 . S
N261 C254 1.356 . S
N261 H264 0.984 . S
N261 H265 0.985 . S
H262 N257 0.984 . S
H263 N257 0.985 . S
H264 N261 0.984 . S
H265 N261 0.985 . S
H266 N260 0.984 . S
H267 N260 0.984 . S
H268 N256 0.984 . S
H269 N256 0.985 . S
C270 C271 1.363 . S
C270 C276 1.379 1_655 S
C270 N278 1.356 . S
C271 C270 1.363 . S
C271 C277 1.363 . S
C272 C273 1.363 1_655 S
C272 C277 1.379 . S
C272 N279 1.356 . S
C273 C272 1.363 1_455 S
C273 C276 1.363 . S
N274 C276 1.356 . S
N274 H286 0.984 . S
N274 H287 0.985 . S
N275 C277 1.356 . S
N275 H280 0.984 . S
N275 H281 0.985 . S
C276 C270 1.379 1_455 S
C276 C273 1.363 . S
C276 N274 1.356 . S
C277 C271 1.363 . S
C277 C272 1.379 . S
C277 N275 1.356 . S
N278 C270 1.356 . S
N278 H284 0.984 1_656 S
N278 H285 0.984 1_556 S
N279 C272 1.356 . S
N279 H282 0.969 1_655 S
N279 H283 0.985 . S
H280 N275 0.984 . S
H281 N275 0.985 . S
H282 N279 0.969 1_455 S
H283 N279 0.985 . S
H284 N278 0.984 1_454 S
H285 N278 0.984 1_554 S
H286 N274 0.984 . S
H287 N274 0.985 . S
C288 C289 1.363 . S
C288 C294 1.379 . S
C288 N296 1.356 . S
C289 C288 1.363 . S
C289 C295 1.363 . S
C290 C291 1.363 . S
C290 C295 1.379 . S
C290 N297 1.356 . S
C291 C290 1.363 . S
C291 C294 1.363 . S
N292 C294 1.356 . S
N292 H304 0.984 . S
N292 H305 0.985 . S
N293 C295 1.356 . S
N293 H298 0.984 . S
N293 H299 0.985 . S
C294 C288 1.379 . S
C294 C291 1.363 . S
C294 N292 1.356 . S
C295 C289 1.363 . S
C295 C290 1.379 . S
C295 N293 1.356 . S
N296 C288 1.356 . S
N296 H302 0.984 . S
N296 H303 0.984 . S
N297 C290 1.356 . S
N297 H300 0.984 . S
N297 H301 0.985 . S
H298 N293 0.984 . S
H299 N293 0.985 . S
H300 N297 0.984 . S
H301 N297 0.985 . S
H302 N296 0.984 . S
H303 N296 0.984 . S
H304 N292 0.984 . S
H305 N292 0.985 . S
C306 C307 1.363 . S
C306 C312 1.379 1_455 S
C306 N314 1.356 . S
C307 C306 1.363 . S
C307 C313 1.363 . S
C308 C309 1.363 . S
C308 C313 1.379 1_655 S
C308 N315 1.356 . S
C309 C308 1.363 . S
C309 C312 1.363 . S
N310 C312 1.356 . S
N310 H322 0.984 . S
N310 H323 0.985 . S
N311 C313 1.356 . S
N311 H316 0.984 . S
N311 H317 0.985 . S
C312 C306 1.379 1_655 S
C312 C309 1.363 . S
C312 N310 1.356 . S
C313 C307 1.363 . S
C313 C308 1.379 1_455 S
C313 N311 1.356 . S
N314 C306 1.356 . S
N314 H320 0.984 . S
N314 H321 0.984 . S
N315 C308 1.356 . S
N315 H318 0.984 . S
N315 H319 0.985 . S
H316 N311 0.984 . S
H317 N311 0.985 . S
H318 N315 0.984 . S
H319 N315 0.985 . S
H320 N314 0.984 . S
H321 N314 0.984 . S
H322 N310 0.984 . S
H323 N310 0.985 . S
C324 C325 1.363 . S
C324 C330 1.379 . S
C324 N332 1.356 1_565 S
C325 C324 1.363 . S
C325 C331 1.363 . S
C326 C327 1.363 . S
C326 C331 1.379 . S
C326 N333 1.356 . S
C327 C326 1.363 . S
C327 C330 1.363 . S
N328 C330 1.356 . S
N328 H340 0.984 . S
N328 H341 0.985 . S
N329 C331 1.356 1_554 S
N329 H334 0.984 1_565 S
N329 H335 0.985 . S
C330 C324 1.379 . S
C330 C327 1.363 . S
C330 N328 1.356 . S
C331 C325 1.363 . S
C331 C326 1.379 . S
C331 N329 1.356 1_556 S
N332 C324 1.356 1_545 S
N332 H338 0.984 . S
N332 H339 0.984 . S
N333 C326 1.356 . S
N333 H336 0.984 . S
N333 H337 0.985 1_556 S
H334 N329 0.984 1_545 S
H335 N329 0.985 . S
H336 N333 0.984 . S
H337 N333 0.985 1_554 S
H338 N332 0.984 . S
H339 N332 0.984 . S
H340 N328 0.984 . S
H341 N328 0.985 . S
C342 C343 1.363 . S
C342 C348 1.379 . S
C342 N350 1.356 . S
C343 C342 1.363 . S
C343 C349 1.363 . S
C344 C345 1.363 . S
C344 C349 1.379 . S
C344 N351 1.356 . S
C345 C344 1.363 . S
C345 C348 1.363 . S
N346 C348 1.356 . S
N346 H358 0.984 . S
N346 H359 0.985 . S
N347 C349 1.356 . S
N347 H352 0.984 . S
N347 H353 0.985 . S
C348 C342 1.379 . S
C348 C345 1.363 . S
C348 N346 1.356 . S
C349 C343 1.363 . S
C349 C344 1.379 . S
C349 N347 1.356 . S
N350 C342 1.356 . S
N350 H356 0.984 . S
N350 H357 0.984 . S
N351 C344 1.356 . S
N351 H354 0.984 . S
N351 H355 0.985 . S
H352 N347 0.984 . S
H353 N347 0.985 . S
H354 N351 0.984 . S
H355 N351 0.985 . S
H356 N350 0.984 . S
H357 N350 0.984 . S
H358 N346 0.984 . S
H359 N346 0.985 . S
C360 C361 1.363 . S
C360 C366 1.379 . S
C360 N368 1.356 1_545 S
C361 C360 1.363 . S
C361 C367 1.363 . S
C362 C363 1.363 . S
C362 C367 1.379 . S
C362 N369 1.356 . S
C363 C362 1.363 . S
C363 C366 1.363 . S
N364 C366 1.356 . S
N364 H376 0.984 . S
N364 H377 0.985 . S
N365 C367 1.356 . S
N365 H370 0.984 1_545 S
N365 H371 0.985 . S
C366 C360 1.379 . S
C366 C363 1.363 . S
C366 N364 1.356 . S
C367 C361 1.363 . S
C367 C362 1.379 . S
C367 N365 1.356 . S
N368 C360 1.356 1_565 S
N368 H374 0.984 . S
N368 H375 0.984 . S
N369 C362 1.356 . S
N369 H372 0.984 . S
N369 H373 0.985 . S
H370 N365 0.984 1_565 S
H371 N365 0.985 . S
H372 N369 0.984 . S
H373 N369 0.985 . S
H374 N368 0.984 . S
H375 N368 0.984 . S
H376 N364 0.984 . S
H377 N364 0.985 . S
C378 C379 1.363 . S
C378 C384 1.379 . S
C378 N386 1.356 . S
C379 C378 1.363 . S
C379 C385 1.363 . S
C380 C381 1.363 . S
C380 C385 1.379 . S
C380 N387 1.356 . S
C381 C380 1.363 . S
C381 C384 1.363 . S
N382 C384 1.356 . S
N382 H394 0.984 . S
N382 H395 0.985 . S
N383 C385 1.356 . S
N383 H388 0.984 . S
N383 H389 0.985 . S
C384 C378 1.379 . S
C384 C381 1.363 . S
C384 N382 1.356 . S
C385 C379 1.363 . S
C385 C380 1.379 . S
C385 N383 1.356 . S
N386 C378 1.356 . S
N386 H392 0.984 . S
N386 H393 0.984 . S
N387 C380 1.356 . S
N387 H390 0.984 . S
N387 H391 0.985 . S
H388 N383 0.984 . S
H389 N383 0.985 . S
H390 N387 0.984 . S
H391 N387 0.985 . S
H392 N386 0.984 . S
H393 N386 0.984 . S
H394 N382 0.984 . S
H395 N382 0.985 . S
C396 C397 1.363 . S
C396 C402 1.379 . S
C396 N404 1.356 . S
C397 C396 1.363 . S
C397 C403 1.363 . S
C398 C399 1.363 . S
C398 C403 1.379 . S
C398 N405 1.356 . S
C399 C398 1.363 . S
C399 C402 1.363 . S
N400 C402 1.356 . S
N400 H412 0.984 . S
N400 H413 0.985 . S
N401 C403 1.356 . S
N401 H406 0.984 . S
N401 H407 0.985 . S
C402 C396 1.379 . S
C402 C399 1.363 . S
C402 N400 1.356 . S
C403 C397 1.363 . S
C403 C398 1.379 . S
C403 N401 1.356 . S
N404 C396 1.356 . S
N404 H410 0.984 . S
N404 H411 0.984 . S
N405 C398 1.356 . S
N405 H408 0.984 . S
N405 H409 0.985 . S
H406 N401 0.984 . S
H407 N401 0.985 . S
H408 N405 0.984 . S
H409 N405 0.985 . S
H410 N404 0.984 . S
H411 N404 0.984 . S
H412 N400 0.984 . S
H413 N400 0.985 . S
C414 C415 1.363 1_655 S
C414 C420 1.379 . S
C414 N422 1.361 . S
C415 C414 1.363 1_455 S
C415 C421 1.363 . S
C416 C417 1.363 . S
C416 C421 1.379 1_655 S
C416 N423 1.356 . S
C417 C416 1.363 . S
C417 C420 1.363 . S
N418 C420 1.356 . S
N418 H430 0.984 . S
N418 H431 0.985 . S
N419 C421 1.356 . S
N419 H424 0.984 . S
N419 H425 0.985 . S
C420 C414 1.379 . S
C420 C417 1.363 . S
C420 N418 1.356 . S
C421 C415 1.363 . S
C421 C416 1.379 1_455 S
C421 N419 1.356 . S
N422 C414 1.361 . S
N422 H428 0.990 . S
N422 H429 0.974 1_655 S
N423 C416 1.356 . S
N423 H426 0.984 . S
N423 H427 0.985 . S
H424 N419 0.984 . S
H425 N419 0.985 . S
H426 N423 0.984 . S
H427 N423 0.985 . S
H428 N422 0.990 . S
H429 N422 0.974 1_455 S
H430 N418 0.984 . S
H431 N418 0.985 . S
C432 C433 1.363 . S
C432 C438 1.379 . S
C432 N440 1.356 . S
C433 C432 1.363 . S
C433 C439 1.363 . S
C434 C435 1.363 . S
C434 C439 1.379 . S
C434 N441 1.356 . S
C435 C434 1.363 . S
C435 C438 1.363 . S
N436 C438 1.356 . S
N436 H448 0.984 . S
N436 H449 0.985 . S
N437 C439 1.356 . S
N437 H442 0.984 . S
N437 H443 0.985 . S
C438 C432 1.379 . S
C438 C435 1.363 . S
C438 N436 1.356 . S
C439 C433 1.363 . S
C439 C434 1.379 . S
C439 N437 1.356 . S
N440 C432 1.356 . S
N440 H446 0.984 . S
N440 H447 0.984 . S
N441 C434 1.356 . S
N441 H444 0.984 . S
N441 H445 0.985 . S
H442 N437 0.984 . S
H443 N437 0.985 . S
H444 N441 0.984 . S
H445 N441 0.985 . S
H446 N440 0.984 . S
H447 N440 0.984 . S
H448 N436 0.984 . S
H449 N436 0.985 . S
C450 C451 1.363 . S
C450 C456 1.379 . S
C450 N458 1.356 1_455 S
C451 C450 1.363 . S
C451 C457 1.363 . S
C452 C453 1.363 . S
C452 C457 1.379 . S
C452 N459 1.356 . S
C453 C452 1.363 . S
C453 C456 1.363 . S
N454 C456 1.356 . S
N454 H466 0.984 . S
N454 H467 0.985 . S
N455 C457 1.356 . S
N455 H460 0.984 1_455 S
N455 H461 0.985 1_554 S
C456 C450 1.379 . S
C456 C453 1.363 . S
C456 N454 1.356 . S
C457 C451 1.363 . S
C457 C452 1.379 . S
C457 N455 1.356 . S
N458 C450 1.356 1_655 S
N458 H464 0.984 . S
N458 H465 0.984 . S
N459 C452 1.356 . S
N459 H462 0.984 . S
N459 H463 0.985 . S
H460 N455 0.984 1_655 S
H461 N455 0.985 1_556 S
H462 N459 0.984 . S
H463 N459 0.985 . S
H464 N458 0.984 . S
H465 N458 0.984 . S
H466 N454 0.984 . S
H467 N454 0.985 . S
C468 C469 1.363 . S
C468 C474 1.379 . S
C468 N476 1.356 . S
C469 C468 1.363 . S
C469 C475 1.363 . S
C470 C471 1.363 . S
C470 C475 1.379 . S
C470 N477 1.356 . S
C471 C470 1.363 . S
C471 C474 1.363 . S
N472 C474 1.356 . S
N472 H484 0.984 . S
N472 H485 0.985 . S
N473 C475 1.356 . S
N473 H478 0.984 . S
N473 H479 0.985 . S
C474 C468 1.379 . S
C474 C471 1.363 . S
C474 N472 1.356 . S
C475 C469 1.363 . S
C475 C470 1.379 . S
C475 N473 1.356 . S
N476 C468 1.356 . S
N476 H482 0.984 . S
N476 H483 0.984 . S
N477 C470 1.356 . S
N477 H480 0.984 . S
N477 H481 0.985 . S
H478 N473 0.984 . S
H479 N473 0.985 . S
H480 N477 0.984 . S
H481 N477 0.985 . S
H482 N476 0.984 . S
H483 N476 0.984 . S
H484 N472 0.984 . S
H485 N472 0.985 . S
C486 C487 1.363 . S
C486 C492 1.379 . S
C486 N494 1.356 . S
C487 C486 1.363 . S
C487 C493 1.363 . S
C488 C489 1.363 . S
C488 C493 1.379 . S
C488 N495 1.356 . S
C489 C488 1.363 . S
C489 C492 1.363 . S
N490 C492 1.356 . S
N490 H502 0.984 . S
N490 H503 0.985 . S
N491 C493 1.356 . S
N491 H496 0.984 . S
N491 H497 0.985 . S
C492 C486 1.379 . S
C492 C489 1.363 . S
C492 N490 1.356 . S
C493 C487 1.363 . S
C493 C488 1.379 . S
C493 N491 1.356 . S
N494 C486 1.356 . S
N494 H500 0.984 . S
N494 H501 0.984 . S
N495 C488 1.356 . S
N495 H498 0.984 . S
N495 H499 0.985 . S
H496 N491 0.984 . S
H497 N491 0.985 . S
H498 N495 0.984 . S
H499 N495 0.985 . S
H500 N494 0.984 . S
H501 N494 0.984 . S
H502 N490 0.984 . S
H503 N490 0.985 . S
C504 C505 1.363 . S
C504 C510 1.379 . S
C504 N512 1.356 . S
C505 C504 1.363 . S
C505 C511 1.363 . S
C506 C507 1.363 . S
C506 C511 1.379 . S
C506 N513 1.356 . S
C507 C506 1.363 . S
C507 C510 1.363 . S
N508 C510 1.356 . S
N508 H520 0.984 . S
N508 H521 0.985 . S
N509 C511 1.356 . S
N509 H514 0.984 . S
N509 H515 0.985 . S
C510 C504 1.379 . S
C510 C507 1.363 . S
C510 N508 1.356 . S
C511 C505 1.363 . S
C511 C506 1.379 . S
C511 N509 1.356 . S
N512 C504 1.356 . S
N512 H518 0.984 . S
N512 H519 0.984 . S
N513 C506 1.356 . S
N513 H516 0.984 . S
N513 H517 0.985 . S
H514 N509 0.984 . S
H515 N509 0.985 . S
H516 N513 0.984 . S
H517 N513 0.985 . S
H518 N512 0.984 . S
H519 N512 0.984 . S
H520 N508 0.984 . S
H521 N508 0.985 . S
C522 C523 1.363 . S
C522 C528 1.379 . S
C522 N530 1.356 . S
C523 C522 1.363 . S
C523 C529 1.363 . S
C524 C525 1.363 . S
C524 C529 1.379 . S
C524 N531 1.356 . S
C525 C524 1.363 . S
C525 C528 1.363 . S
N526 C528 1.356 . S
N526 H538 0.984 . S
N526 H539 0.985 . S
N527 C529 1.356 . S
N527 H532 0.984 . S
N527 H533 0.985 . S
C528 C522 1.379 . S
C528 C525 1.363 . S
C528 N526 1.356 . S
C529 C523 1.363 . S
C529 C524 1.379 . S
C529 N527 1.356 . S
N530 C522 1.356 . S
N530 H536 0.984 . S
N530 H537 0.984 . S
N531 C524 1.356 . S
N531 H534 0.984 . S
N531 H535 0.985 . S
H532 N527 0.984 . S
H533 N527 0.985 . S
H534 N531 0.984 . S
H535 N531 0.985 . S
H536 N530 0.984 . S
H537 N530 0.984 . S
H538 N526 0.984 . S
H539 N526 0.985 . S
C540 C541 1.363 . S
C540 C546 1.379 . S
C540 N548 1.356 . S
C541 C540 1.363 . S
C541 C547 1.363 . S
C542 C543 1.363 . S
C542 C547 1.379 . S
C542 N549 1.356 . S
C543 C542 1.363 . S
C543 C546 1.363 . S
N544 C546 1.356 . S
N544 H556 0.984 . S
N544 H557 0.985 . S
N545 C547 1.356 . S
N545 H550 0.984 . S
N545 H551 0.985 . S
C546 C540 1.379 . S
C546 C543 1.363 . S
C546 N544 1.356 . S
C547 C541 1.363 . S
C547 C542 1.379 . S
C547 N545 1.356 . S
N548 C540 1.356 . S
N548 H554 0.984 . S
N548 H555 0.984 . S
N549 C542 1.356 . S
N549 H552 0.984 . S
N549 H553 0.985 . S
H550 N545 0.984 . S
H551 N545 0.985 . S
H552 N549 0.984 . S
H553 N549 0.985 . S
H554 N548 0.984 . S
H555 N548 0.984 . S
H556 N544 0.984 . S
H557 N544 0.985 . S
C558 C559 1.363 . S
C558 C564 1.379 . S
C558 N566 1.356 . S
C559 C558 1.363 . S
C559 C565 1.363 . S
C560 C561 1.363 . S
C560 C565 1.379 . S
C560 N567 1.356 . S
C561 C560 1.363 . S
C561 C564 1.363 . S
N562 C564 1.356 . S
N562 H574 0.984 . S
N562 H575 0.985 . S
N563 C565 1.356 . S
N563 H568 0.984 . S
N563 H569 0.985 . S
C564 C558 1.379 . S
C564 C561 1.363 . S
C564 N562 1.356 . S
C565 C559 1.363 . S
C565 C560 1.379 . S
C565 N563 1.356 . S
N566 C558 1.356 . S
N566 H572 0.984 . S
N566 H573 0.984 . S
N567 C560 1.356 . S
N567 H570 0.984 . S
N567 H571 0.985 . S
H568 N563 0.984 . S
H569 N563 0.985 . S
H570 N567 0.984 . S
H571 N567 0.985 . S
H572 N566 0.984 . S
H573 N566 0.984 . S
H574 N562 0.984 . S
H575 N562 0.985 . S
C576 C577 1.363 . S
C576 C582 1.379 . S
C576 N584 1.356 . S
C577 C576 1.363 . S
C577 C583 1.363 . S
C578 C579 1.363 . S
C578 C583 1.379 . S
C578 N585 1.356 . S
C579 C578 1.363 . S
C579 C582 1.363 . S
N580 C582 1.356 . S
N580 H592 0.984 . S
N580 H593 0.985 . S
N581 C583 1.356 . S
N581 H586 0.984 . S
N581 H587 0.985 . S
C582 C576 1.379 . S
C582 C579 1.363 . S
C582 N580 1.356 . S
C583 C577 1.363 . S
C583 C578 1.379 . S
C583 N581 1.356 . S
N584 C576 1.356 . S
N584 H590 0.984 . S
N584 H591 0.984 . S
N585 C578 1.356 . S
N585 H588 0.984 . S
N585 H589 0.985 . S
H586 N581 0.984 . S
H587 N581 0.985 . S
H588 N585 0.984 . S
H589 N585 0.985 . S
H590 N584 0.984 . S
H591 N584 0.984 . S
H592 N580 0.984 . S
H593 N580 0.985 . S
C594 C595 1.363 . S
C594 C600 1.379 . S
C594 N602 1.356 . S
C595 C594 1.363 . S
C595 C601 1.363 . S
C596 C597 1.363 . S
C596 C601 1.379 . S
C596 N603 1.356 . S
C597 C596 1.363 . S
C597 C600 1.363 . S
N598 C600 1.356 . S
N598 H610 0.984 . S
N598 H611 0.985 . S
N599 C601 1.356 . S
N599 H604 0.984 . S
N599 H605 0.985 . S
C600 C594 1.379 . S
C600 C597 1.363 . S
C600 N598 1.356 . S
C601 C595 1.363 . S
C601 C596 1.379 . S
C601 N599 1.356 . S
N602 C594 1.356 . S
N602 H608 0.984 . S
N602 H609 0.984 . S
N603 C596 1.356 . S
N603 H606 0.984 . S
N603 H607 0.985 . S
H604 N599 0.984 . S
H605 N599 0.985 . S
H606 N603 0.984 . S
H607 N603 0.985 . S
H608 N602 0.984 . S
H609 N602 0.984 . S
H610 N598 0.984 . S
H611 N598 0.985 . S
C181 C7 0.991 . S
C183 C93 1.009 . S
C199 C25 1.045 . S
C201 C105 1.044 . S
C217 C46 0.904 . S
C219 C117 0.935 . S
C237 C126 1.021 . S
C235 C70 0.970 . S
C255 C141 1.009 . S
C253 C28 0.991 . S
C271 C49 0.970 . S
C273 C150 1.021 . S
C289 C67 0.904 . S
C291 C165 0.935 . S
C307 C4 1.045 . S
C309 C177 1.045 . S
C325 C58 1.545 1_565 S
C327 C174 1.607 . S
C345 C138 1.626 . S
C343 C66 1.545 . S
C363 C153 1.673 . S
C361 C3 1.590 1_545 S
C379 C37 1.515 . S
C381 C162 1.598 . S
C399 C102 1.607 . S
C397 C79 1.545 . S
C415 C16 1.515 . S
C417 C114 1.598 . S
C435 C129 1.673 . S
C433 C24 1.590 . S
C453 C90 1.626 . S
C451 C45 1.546 1_455 S
C471 C160 1.397 . S
C469 C19 1.277 . S
C489 C172 1.445 . S
C487 C41 1.294 . S
C505 C62 1.282 . S
C507 C136 1.458 . S
C525 C148 1.426 . S
C523 C82 1.314 . S
C543 C112 1.397 . S
C541 C40 1.278 . S
C559 C61 1.314 . S
C561 C124 1.426 . S
C579 C88 1.458 . S
C577 C83 1.282 . S
C597 C100 1.444 . S
C595 C20 1.294 . S
