# Generated by pormake.
# Topology ctn, (3,4)-cn, num edge types: 1
# Building blocks:
#     Node 0, Type 0, BuildingBlock: BETDAH_clean_linker_0, # of connection points: 3
#     Node 1, Type 0, BuildingBlock: BETDAH_clean_linker_0, # of connection points: 3
#     Node 2, Type 0, BuildingBlock: BETDAH_clean_linker_0, # of connection points: 3
#     Node 3, Type 0, BuildingBlock: BETDAH_clean_linker_0, # of connection points: 3
#     Node 4, Type 0, BuildingBlock: BETDAH_clean_linker_0, # of connection points: 3
#     Node 5, Type 0, BuildingBlock: BETDAH_clean_linker_0, # of connection points: 3
#     Node 6, Type 0, BuildingBlock: BETDAH_clean_linker_0, # of connection points: 3
#     Node 7, Type 0, BuildingBlock: BETDAH_clean_linker_0, # of connection points: 3
#     Node 8, Type 0, BuildingBlock: BETDAH_clean_linker_0, # of connection points: 3
#     Node 9, Type 0, BuildingBlock: BETDAH_clean_linker_0, # of connection points: 3
#     Node 10, Type 0, BuildingBlock: BETDAH_clean_linker_0, # of connection points: 3
#     Node 11, Type 0, BuildingBlock: BETDAH_clean_linker_0, # of connection points: 3
#     Node 12, Type 0, BuildingBlock: BETDAH_clean_linker_0, # of connection points: 3
#     Node 13, Type 0, BuildingBlock: BETDAH_clean_linker_0, # of connection points: 3
#     Node 14, Type 0, BuildingBlock: BETDAH_clean_linker_0, # of connection points: 3
#     Node 15, Type 0, BuildingBlock: BETDAH_clean_linker_0, # of connection points: 3
#     Node 16, Type 1, BuildingBlock: UXUYUI_clean_sbu_0, # of connection points: 4
#     Node 17, Type 1, BuildingBlock: UXUYUI_clean_sbu_0, # of connection points: 4
#     Node 18, Type 1, BuildingBlock: UXUYUI_clean_sbu_0, # of connection points: 4
#     Node 19, Type 1, BuildingBlock: UXUYUI_clean_sbu_0, # of connection points: 4
#     Node 20, Type 1, BuildingBlock: UXUYUI_clean_sbu_0, # of connection points: 4
#     Node 21, Type 1, BuildingBlock: UXUYUI_clean_sbu_0, # of connection points: 4
#     Node 22, Type 1, BuildingBlock: UXUYUI_clean_sbu_0, # of connection points: 4
#     Node 23, Type 1, BuildingBlock: UXUYUI_clean_sbu_0, # of connection points: 4
#     Node 24, Type 1, BuildingBlock: UXUYUI_clean_sbu_0, # of connection points: 4
#     Node 25, Type 1, BuildingBlock: UXUYUI_clean_sbu_0, # of connection points: 4
#     Node 26, Type 1, BuildingBlock: UXUYUI_clean_sbu_0, # of connection points: 4
#     Node 27, Type 1, BuildingBlock: UXUYUI_clean_sbu_0, # of connection points: 4
#     Edge 28, Type (0, 1), None
#     Edge 29, Type (0, 1), None
#     Edge 30, Type (0, 1), None
#     Edge 31, Type (0, 1), None
#     Edge 32, Type (0, 1), None
#     Edge 33, Type (0, 1), None
#     Edge 34, Type (0, 1), None
#     Edge 35, Type (0, 1), None
#     Edge 36, Type (0, 1), None
#     Edge 37, Type (0, 1), None
#     Edge 38, Type (0, 1), None
#     Edge 39, Type (0, 1), None
#     Edge 40, Type (0, 1), None
#     Edge 41, Type (0, 1), None
#     Edge 42, Type (0, 1), None
#     Edge 43, Type (0, 1), None
#     Edge 44, Type (0, 1), None
#     Edge 45, Type (0, 1), None
#     Edge 46, Type (0, 1), None
#     Edge 47, Type (0, 1), None
#     Edge 48, Type (0, 1), None
#     Edge 49, Type (0, 1), None
#     Edge 50, Type (0, 1), None
#     Edge 51, Type (0, 1), None
#     Edge 52, Type (0, 1), None
#     Edge 53, Type (0, 1), None
#     Edge 54, Type (0, 1), None
#     Edge 55, Type (0, 1), None
#     Edge 56, Type (0, 1), None
#     Edge 57, Type (0, 1), None
#     Edge 58, Type (0, 1), None
#     Edge 59, Type (0, 1), None
#     Edge 60, Type (0, 1), None
#     Edge 61, Type (0, 1), None
#     Edge 62, Type (0, 1), None
#     Edge 63, Type (0, 1), None
#     Edge 64, Type (0, 1), None
#     Edge 65, Type (0, 1), None
#     Edge 66, Type (0, 1), None
#     Edge 67, Type (0, 1), None
#     Edge 68, Type (0, 1), None
#     Edge 69, Type (0, 1), None
#     Edge 70, Type (0, 1), None
#     Edge 71, Type (0, 1), None
#     Edge 72, Type (0, 1), None
#     Edge 73, Type (0, 1), None
#     Edge 74, Type (0, 1), None
#     Edge 75, Type (0, 1), None
# Relax obj value: 0.055
# Max RMSD: 0.162
# Mean RMSD: 0.103
data_MOF--net-ctn--node1-UXUYUI_clean_sbu_0--node2-BETDAH_clean_linker_0--edge1-none
_symmetry_space_group_name_H-M    P1
_symmetry_Int_Tables_number       1
_symmetry_cell_setting            triclinic
loop_
_symmetry_equiv_pos_as_xyz
'x, y, z'
_cell_length_a     36.23943
_cell_length_b     35.987317
_cell_length_c     36.482526
_cell_angle_alpha  99.342504
_cell_angle_beta   89.471144
_cell_angle_gamma 95.180794
loop_
_atom_site_label
_atom_site_type_symbol
_atom_site_fract_x
_atom_site_fract_y
_atom_site_fract_z
_atom_type_partial_charge
H0 H 0.09547 1.00138 0.12835 0.0
H1 H 0.10616 0.02307 0.016 0.0
H2 H 0.01569 0.06351 0.08238 0.0
C3 C 0.08604 1.01474 0.106 0.0
C4 C 0.05363 0.03392 0.11031 0.0
C5 C 0.1055 1.01129 0.07221 0.0
C6 C 0.09246 0.0272 0.04272 0.0
C7 C 0.0602 0.04596 0.0465 0.0
C8 C 0.04109 0.04958 0.08022 0.0
N9 N 0.04318 0.0543 0.01449 0.0
C10 C 0.04821 0.08934 1.00308 0.0
H11 H 0.3443 0.69592 0.30393 0.0
H12 H 0.4072 0.77249 0.24357 0.0
H13 H 0.30345 0.71697 0.1991 0.0
C14 C 0.34718 0.71014 0.2799 0.0
C15 C 0.32025 0.70252 0.25153 0.0
C16 C 0.37856 0.73506 0.27704 0.0
C17 C 0.38277 0.75332 0.24604 0.0
C18 C 0.35524 0.74801 0.21865 0.0
C19 C 0.32384 0.72252 0.22128 0.0
N20 N 0.36128 0.76734 0.18797 0.0
C21 C 0.33354 0.7784 0.16722 0.0
H22 H 0.0619 0.43606 0.08134 0.0
H23 H 0.04139 0.55346 0.09574 0.0
H24 H 0.99754 0.47765 1.00034 0.0
C25 C 0.04831 0.45872 0.07242 0.0
C26 C 0.02865 0.452 0.03857 0.0
C27 C 0.05309 0.49521 0.09334 0.0
C28 C 0.03747 0.52497 0.08035 0.0
C29 C 0.01697 0.51851 0.04735 0.0
C30 C 0.01238 0.48208 0.02656 0.0
N31 N 1.00578 0.54985 0.03285 0.0
C32 C 0.96893 0.55628 0.02908 0.0
H33 H 0.81145 0.82885 0.17878 0.0
H34 H 0.74081 0.74616 0.22687 0.0
H35 H 0.78656 0.84668 0.29542 0.0
C36 C 0.79664 0.81969 0.20208 0.0
C37 C 0.79981 0.84317 0.23705 0.0
C38 C 0.77572 0.7841 0.19754 0.0
C39 C 0.7573 0.77302 0.22889 0.0
C40 C 0.76139 0.79553 0.2639 0.0
C41 C 0.7824 0.83039 0.26783 0.0
N42 N 0.75069 0.78008 0.29605 0.0
C43 C 0.71542 0.78116 0.31109 0.0
H44 H 0.09604 0.03208 0.42931 0.0
H45 H 0.10937 1.01156 0.5414 0.0
H46 H 1.00636 0.97666 0.48387 0.0
C47 C 0.08546 0.01995 0.45306 0.0
C48 C 0.04886 1.00323 0.45219 0.0
C49 C 0.10768 0.02347 0.4851 0.0
C50 C 0.0934 1.00778 0.51589 0.0
C51 C 0.05714 0.99016 0.51517 0.0
C52 C 0.03493 0.98845 0.48352 0.0
N53 N 0.0403 0.98207 0.54859 0.0
C54 C 0.04276 0.94865 0.56271 0.0
H55 H 0.31872 0.72245 0.86553 0.0
H56 H 0.22537 0.76375 0.81642 0.0
H57 H 0.28003 0.67165 0.75664 0.0
C58 C 0.29926 0.7212 0.8429 0.0
C59 C 0.30207 0.69381 0.81115 0.0
C60 C 0.27136 0.74659 0.84554 0.0
C61 C 0.247 0.7447 0.81504 0.0
C62 C 0.2505 0.71779 0.78285 0.0
C63 C 0.2777 0.69249 0.78143 0.0
N64 N 0.22785 0.71495 0.7508 0.0
C65 C 0.19686 0.73412 0.74694 0.0
H66 H 0.93116 0.57006 0.56101 0.0
H67 H 1.00779 0.60797 0.48036 0.0
H68 H 0.93824 0.50493 0.4519 0.0
C69 C 0.9437 0.56602 0.53376 0.0
C70 C 0.93251 0.53331 0.50827 0.0
C71 C 0.97067 0.59362 0.52402 0.0
C72 C 0.98672 0.58754 0.48835 0.0
C73 C 0.97481 0.5554 0.46259 0.0
C74 C 0.94764 0.52905 0.47255 0.0
N75 N 0.98794 0.54904 0.42564 0.0
C76 C 0.02212 0.56271 0.41351 0.0
H77 H 0.87633 0.75025 0.83536 0.0
H78 H 0.81966 0.81606 0.76815 0.0
H79 H 0.76246 0.77168 0.85678 0.0
C80 C 0.85193 0.76342 0.82906 0.0
C81 C 0.81986 0.75988 0.85096 0.0
C82 C 0.85218 0.78334 0.7986 0.0
C83 C 0.82013 0.80039 0.79109 0.0
C84 C 0.78797 0.79597 0.8121 0.0
C85 C 0.7879 0.7755 0.84141 0.0
N86 N 0.75436 0.80935 0.80266 0.0
C87 C 0.75164 0.84586 0.79594 0.0
H88 H 0.3774 0.26335 0.33874 0.0
H89 H 0.32281 0.33398 0.27497 0.0
H90 H 0.26357 0.28482 0.35978 0.0
C91 C 0.35332 0.27727 0.33294 0.0
C92 C 0.32087 0.27275 0.35403 0.0
C93 C 0.35438 0.29907 0.30389 0.0
C94 C 0.32267 0.31698 0.29692 0.0
C95 C 0.29008 0.31163 0.31716 0.0
C96 C 0.2893 0.28934 0.34506 0.0
N97 N 0.25663 0.32579 0.30831 0.0
C98 C 0.25415 0.36184 0.30019 0.0
H99 H 0.55798 0.94178 0.58963 0.0
H100 H 0.53963 0.05949 0.61353 0.0
H101 H 0.49057 0.9904 0.51621 0.0
C102 C 0.54449 0.96555 0.58298 0.0
C103 C 0.52327 0.96148 0.55024 0.0
C104 C 0.55052 1.00072 0.60601 0.0
C105 C 0.53503 0.03203 0.59614 0.0
C106 C 0.51297 0.02835 0.56437 0.0
C107 C 0.5069 0.99301 0.54138 0.0
N108 N 0.49947 0.06143 0.55525 0.0
C109 C 0.46537 0.06257 0.53869 0.0
H110 H 0.31498 0.33756 0.67106 0.0
H111 H 0.24468 0.25916 0.72533 0.0
H112 H 0.29445 0.36151 0.78807 0.0
C113 C 0.30073 0.32977 0.69525 0.0
C114 C 0.30522 0.35473 0.72916 0.0
C115 C 0.27907 0.29469 0.69295 0.0
C116 C 0.26161 0.28555 0.72564 0.0
C117 C 0.26765 0.30952 0.75979 0.0
C118 C 0.28922 0.34379 0.76129 0.0
N119 N 0.25759 0.29714 0.79369 0.0
C120 C 0.22138 0.28826 0.80419 0.0
H121 H 0.84314 0.19636 0.80894 0.0
H122 H 0.90749 0.24919 0.72887 0.0
H123 H 0.80114 0.19113 0.69777 0.0
C124 C 0.84573 0.20416 0.78148 0.0
C125 C 0.81792 0.19115 0.75466 0.0
C126 C 0.87805 0.22507 0.77237 0.0
C127 C 0.88214 0.23397 0.73651 0.0
C128 C 0.85388 0.22295 0.71017 0.0
C129 C 0.82174 0.20164 0.71918 0.0
N130 N 0.8604 0.22899 0.67331 0.0
C131 C 0.84145 0.25395 0.65709 0.0
H132 H 0.59664 0.4976 0.62837 0.0
H133 H 0.63709 0.52924 0.52595 0.0
H134 H 0.54819 0.5856 0.58229 0.0
C135 C 0.5954 0.51524 0.60707 0.0
C136 C 0.56935 0.54246 0.60949 0.0
C137 C 0.62008 0.51076 0.57722 0.0
C138 C 0.61825 0.53286 0.54929 0.0
C139 C 0.59249 0.55954 0.55069 0.0
C140 C 0.56798 0.56461 0.58092 0.0
N141 N 0.59238 0.57998 0.5206 0.0
C142 C 0.57284 0.61091 0.51813 0.0
H143 H 0.59691 0.538 0.92579 0.0
H144 H 0.60425 0.49238 0.02786 0.0
H145 H 0.50606 0.46717 0.96012 0.0
C146 C 0.58514 0.52078 0.94549 0.0
C147 C 0.5492 0.50316 0.93914 0.0
C148 C 0.60528 0.518 0.97773 0.0
C149 C 0.58962 0.49457 1.00267 0.0
C150 C 0.5537 0.47601 0.99594 0.0
C151 C 0.5339 0.48092 0.96458 0.0
N152 N 0.53448 0.45483 0.02106 0.0
C153 C 0.54895 0.43704 0.04819 0.0
H154 H 0.81858 0.21358 0.36935 0.0
H155 H 0.72531 0.25666 0.32207 0.0
H156 H 0.7773 0.16313 0.26132 0.0
C157 C 0.79872 0.21265 0.34714 0.0
C158 C 0.80049 0.18498 0.31547 0.0
C159 C 0.77137 0.23864 0.35032 0.0
C160 C 0.74656 0.23716 0.32029 0.0
C161 C 0.7491 0.21016 0.28798 0.0
C162 C 0.77574 0.18413 0.2861 0.0
N163 N 0.72593 0.20815 0.2564 0.0
C164 C 0.69468 0.22747 0.25418 0.0
H165 H 0.41924 0.0831 0.05504 0.0
H166 H 0.53213 0.10158 0.01904 0.0
H167 H 0.47169 0.99418 0.98583 0.0
C168 C 0.44262 0.07319 0.03878 0.0
C169 C 0.44073 0.03559 0.01995 0.0
C170 C 0.47538 0.09757 0.03823 0.0
C171 C 0.50609 0.08407 0.01813 0.0
C172 C 0.50453 0.04675 0.9997 0.0
C173 C 0.472 0.023 1.00027 0.0
N174 N 0.5372 0.03071 0.98637 0.0
C175 C 0.55509 0.0386 0.95443 0.0
Li176 Li 0.30452 0.91892 0.02685 0.0
Li177 Li 0.2757 0.8693 0.05806 0.0
Li178 Li 0.26731 0.86308 0.99044 0.0
Li179 Li 0.23634 0.91352 0.03702 0.0
C180 C 0.34588 0.84908 0.01717 0.0
N181 N 0.41269 0.81722 0.01379 0.0
C182 C 0.36567 0.84829 0.04975 0.0
C183 C 0.36022 0.83381 0.98288 0.0
C184 C 0.39934 0.83201 0.04745 0.0
C185 C 0.39401 0.81781 0.98175 0.0
C186 C 0.29117 0.94064 0.10737 0.0
C187 C 0.28402 0.97413 0.16947 0.0
N188 N 0.32063 0.97227 0.1761 0.0
C189 C 0.32873 0.93919 0.1147 0.0
C190 C 0.2686 0.95837 0.13485 0.0
C191 C 0.3431 0.9553 0.14965 0.0
C192 C 0.34104 0.99257 0.02463 0.0
N193 N 0.34649 0.95574 0.02535 0.0
C194 C 0.41211 0.97032 0.02467 0.0
C195 C 0.38124 0.94449 0.02557 0.0
C196 C 0.40757 1.00835 0.02271 0.0
C197 C 0.37131 0.01944 0.02304 0.0
H198 H 0.31313 1.00104 0.02498 0.0
H199 H 0.38531 0.91551 0.02672 0.0
C200 C 0.29414 0.80313 0.08168 0.0
N201 N 0.2843 0.83842 0.09491 0.0
C202 C 0.308 0.78124 0.10577 0.0
C203 C 0.29809 0.83088 0.15707 0.0
C204 C 0.28445 0.85188 0.13199 0.0
C205 C 0.31112 0.7958 0.14366 0.0
H206 H 0.29351 0.79303 0.05209 0.0
H207 H 0.27566 0.87953 0.14205 0.0
C208 C 0.28067 0.93746 0.96302 0.0
N209 N 0.31633 0.97665 0.91183 0.0
C210 C 0.26833 0.97151 0.95654 0.0
C211 C 0.31103 0.92325 0.94338 0.0
C212 C 0.28676 0.99092 0.93055 0.0
C213 C 0.32872 0.9435 0.91765 0.0
C214 C 0.21193 0.83021 0.04865 0.0
C215 C 0.20815 0.79199 0.03285 0.0
C216 C 0.20036 0.84122 0.08516 0.0
C217 C 0.19304 0.76533 0.05398 0.0
C218 C 0.18541 0.8137 0.10537 0.0
N219 N 0.18211 0.77664 0.0895 0.0
C220 C 0.27309 0.79207 0.94723 0.0
C221 C 0.25693 0.83768 0.9116 0.0
C222 C 0.27466 0.76505 0.91523 0.0
N223 N 0.26464 0.82765 0.9449 0.0
C224 C 0.25843 0.81154 0.87875 0.0
C225 C 0.26782 0.77467 0.88018 0.0
H226 H 0.27935 0.7849 0.97402 0.0
H227 H 0.25039 0.86619 0.91041 0.0
C228 C 0.20031 0.98025 0.04554 0.0
N229 N 0.19523 0.94289 0.04822 0.0
C230 C 0.17141 1.00341 0.05387 0.0
C231 C 0.13312 0.94964 0.06933 0.0
C232 C 0.1625 0.92731 0.0599 0.0
C233 C 0.13737 0.98809 0.066 0.0
H234 H 0.22686 0.99202 0.03687 0.0
H235 H 0.15907 0.89754 0.0617 0.0
O236 O 0.31275 0.86479 0.01869 0.0
O237 O 0.27637 0.92494 0.07348 0.0
O238 O 0.26379 0.91854 0.98913 0.0
O239 O 0.22748 0.85666 0.02875 0.0
H240 H 0.35532 0.86027 0.07654 0.0
H241 H 0.34553 0.83447 0.95735 0.0
H242 H 0.41488 0.83119 0.07244 0.0
H243 H 0.40541 0.80588 0.95539 0.0
H244 H 0.26687 0.98783 0.19108 0.0
H245 H 0.34657 0.92573 0.09369 0.0
H246 H 0.23945 0.95974 0.12951 0.0
H247 H 0.37212 0.95431 0.15576 0.0
H248 H 0.43934 0.9604 0.02576 0.0
H249 H 0.36632 0.04836 0.02151 0.0
H250 H 0.31825 0.75436 0.09461 0.0
H251 H 0.30042 0.84289 0.18627 0.0
H252 H 0.24484 0.98288 0.97146 0.0
H253 H 0.32107 0.89706 0.9483 0.0
H254 H 0.27758 0.01736 0.9253 0.0
H255 H 0.35236 0.93294 0.90239 0.0
H256 H 0.21682 0.78301 1.00461 0.0
H257 H 0.20362 0.87065 0.09799 0.0
H258 H 0.19004 0.73563 0.04215 0.0
H259 H 0.17662 0.82178 0.13374 0.0
H260 H 0.2813 0.73691 0.91802 0.0
H261 H 0.25328 0.8205 0.85248 0.0
H262 H 0.17556 0.03296 0.0509 0.0
H263 H 0.10701 0.9368 0.07807 0.0
Li264 Li 0.14734 0.55196 0.30342 0.0
Li265 Li 0.19109 0.5074 0.27587 0.0
Li266 Li 0.19827 0.575 0.26514 0.0
Li267 Li 0.14943 0.52952 0.23495 0.0
C268 C 0.21308 0.57382 0.34686 0.0
N269 N 0.23769 0.61269 0.41523 0.0
C270 C 0.22015 0.55417 0.37574 0.0
C271 C 0.21932 0.61326 0.35264 0.0
C272 C 0.23232 0.57431 0.41014 0.0
C273 C 0.23155 0.63239 0.38741 0.0
C274 C 0.12867 0.46423 0.2824 0.0
C275 C 0.12903 0.39678 0.26393 0.0
N276 N 0.11595 0.39152 0.29794 0.0
C277 C 0.11495 0.45814 0.31707 0.0
C278 C 0.13549 0.4333 0.25549 0.0
C279 C 0.10878 0.42118 0.32442 0.0
C280 C 0.08078 0.57501 0.33221 0.0
N281 N 0.11332 0.56379 0.34281 0.0
C282 C 0.08915 0.55896 0.40327 0.0
C283 C 0.11834 0.55655 0.37783 0.0
C284 C 0.05502 0.56911 0.39229 0.0
C285 C 0.05118 0.57819 0.35679 0.0
H286 H 0.0771 0.57939 0.3039 0.0
H287 H 0.14394 0.54639 0.38521 0.0
C288 C 0.23706 0.44645 0.25737 0.0
N289 N 0.21606 0.46492 0.28435 0.0
C290 C 0.25149 0.4128 0.26241 0.0
C291 C 0.22367 0.41884 0.32333 0.0
C292 C 0.20974 0.45215 0.31712 0.0
C293 C 0.24425 0.39866 0.29555 0.0
H294 H 0.24164 0.45718 0.23154 0.0
H295 H 0.19243 0.46692 0.33779 0.0
C296 C 0.13547 0.61795 0.2677 0.0
N297 N 0.11609 0.6915 0.2798 0.0
C298 C 0.11982 0.63291 0.23902 0.0
C299 C 0.14065 0.64025 0.30269 0.0
C300 C 0.11038 0.6702 0.24564 0.0
C301 C 0.13084 0.67739 0.30822 0.0
C302 C 0.2073 0.52041 0.19167 0.0
C303 C 0.21881 0.54965 0.17204 0.0
C304 C 0.19842 0.48389 0.17237 0.0
C305 C 0.22075 0.54193 0.13332 0.0
C306 C 0.20066 0.47733 0.13365 0.0
N307 N 0.21166 0.50625 0.11508 0.0
C308 C 0.26876 0.61078 0.26841 0.0
C309 C 0.22557 0.64735 0.24571 0.0
C310 C 0.29742 0.63862 0.26559 0.0
N311 N 0.23364 0.61576 0.25897 0.0
C312 C 0.25348 0.67617 0.24263 0.0
C313 C 0.28992 0.67215 0.25308 0.0
H314 H 0.27439 0.58508 0.27829 0.0
H315 H 0.19763 0.65033 0.2375 0.0
C316 C 0.09525 0.48614 0.18574 0.0
N317 N 0.11983 0.51739 0.19125 0.0
C318 C 0.0732 0.47812 0.15373 0.0
C319 C 0.102 0.5348 0.13399 0.0
C320 C 0.12348 0.54163 0.16626 0.0
C321 C 0.07632 0.50276 0.12746 0.0
H322 H 0.09245 0.46766 0.20634 0.0
H323 H 0.14316 0.56633 0.17145 0.0
O324 O 0.20179 0.5544 0.31275 0.0
O325 O 0.1356 0.50028 0.27495 0.0
O326 O 0.1447 0.58139 0.26167 0.0
O327 O 0.20443 0.52759 0.22953 0.0
H328 H 0.21615 0.5237 0.37179 0.0
H329 H 0.21513 0.62907 0.33052 0.0
H330 H 0.2376 0.55941 0.43276 0.0
H331 H 0.23632 0.6629 0.39222 0.0
H332 H 0.13452 0.37262 0.24347 0.0
H333 H 0.10935 0.48167 0.33817 0.0
H334 H 0.14609 0.43746 0.22853 0.0
H335 H 0.09836 0.41607 0.35121 0.0
H336 H 0.09248 0.55072 0.43025 0.0
H337 H 0.0248 0.58513 0.34727 0.0
H338 H 0.26705 0.39749 0.24033 0.0
H339 H 0.21723 0.40823 0.34902 0.0
H340 H 0.11505 0.61598 0.21191 0.0
H341 H 0.15146 0.62883 0.32554 0.0
H342 H 0.09845 0.68218 0.22362 0.0
H343 H 0.13476 0.69492 0.33517 0.0
H344 H 0.22578 0.57808 0.18648 0.0
H345 H 0.18955 0.46091 0.18709 0.0
H346 H 0.22937 0.56434 0.11775 0.0
H347 H 0.1936 0.44926 0.11835 0.0
H348 H 0.32526 0.63379 0.27301 0.0
H349 H 0.24649 0.70149 0.2328 0.0
H350 H 0.05349 0.4533 0.14988 0.0
H351 H 0.10572 0.55422 0.11421 0.0
Li352 Li 0.75411 0.6194 1.0051 0.0
Li353 Li 0.78501 0.67156 0.04926 0.0
Li354 Li 0.79608 0.66785 0.97978 0.0
Li355 Li 0.82179 0.62272 0.01446 0.0
C356 C 0.71644 0.68781 0.02034 0.0
N357 N 0.64913 0.71322 0.04365 0.0
C358 C 0.69925 0.67638 0.05161 0.0
C359 C 0.69945 0.71207 1.00087 0.0
C360 C 0.66522 0.68961 0.06299 0.0
C361 C 0.66539 0.7246 1.01309 0.0
C362 C 0.79241 0.60557 0.08342 0.0
C363 C 0.83722 0.60983 0.13272 0.0
N364 N 0.81442 0.58539 0.14921 0.0
C365 C 0.76944 0.58044 0.10079 0.0
C366 C 0.82658 0.62038 0.09945 0.0
C367 C 0.78106 0.57061 0.13407 0.0
C368 C 0.70528 0.5518 1.00707 0.0
N369 N 0.70857 0.58675 0.9969 0.0
C370 C 0.64556 0.57845 0.97616 0.0
C371 C 0.67952 0.60012 0.98153 0.0
C372 C 0.64123 0.5419 0.98568 0.0
C373 C 0.6717 0.52877 1.00166 0.0
H374 H 0.72879 0.54172 0.01925 0.0
H375 H 0.68257 0.62776 0.97341 0.0
C376 C 0.78338 0.74431 0.09411 0.0
N377 N 0.77969 0.70648 0.09484 0.0
C378 C 0.78103 0.77028 0.127 0.0
C379 C 0.7714 0.71791 0.16072 0.0
C380 C 0.77272 0.69315 0.12722 0.0
C381 C 0.77561 0.7573 0.16131 0.0
H382 H 0.78832 0.75434 0.06795 0.0
H383 H 0.76847 0.66322 0.12744 0.0
C384 C 0.77731 0.59963 0.93234 0.0
N385 N 0.74379 0.57608 0.86377 0.0
C386 C 0.78792 0.56752 0.90923 0.0
C387 C 0.74967 0.6198 0.92057 0.0
C388 C 0.77065 0.55606 0.87465 0.0
C389 C 0.73305 0.60742 0.88582 0.0
C390 C 0.8643 0.69953 0.02981 0.0
C391 C 0.88693 0.70988 1.00122 0.0
C392 C 0.87515 0.7119 0.06678 0.0
C393 C 0.92048 0.73171 1.01008 0.0
C394 C 0.90888 0.73373 0.0745 0.0
N395 N 0.93068 0.74306 0.04623 0.0
C396 C 0.79496 0.73211 0.94456 0.0
C397 C 0.82524 0.68243 0.90964 0.0
C398 C 0.8005 0.75374 0.91613 0.0
N399 N 0.80665 0.69689 0.94056 0.0
C400 C 0.83144 0.70317 0.88044 0.0
C401 C 0.81829 0.73905 0.88317 0.0
H402 H 0.78084 0.74319 0.96967 0.0
H403 H 0.83469 0.65449 0.90734 0.0
C404 C 0.86698 0.56629 0.03418 0.0
N405 N 0.86524 0.59632 0.01601 0.0
C406 C 0.9009 0.55133 0.03784 0.0
C407 C 0.92977 0.59668 1.00188 0.0
C408 C 0.89547 0.61065 0.99888 0.0
C409 C 0.93272 0.56732 0.02221 0.0
H410 H 0.84239 0.55463 0.04676 0.0
H411 H 0.89308 0.63353 0.9835 0.0
O412 O 0.74958 0.67506 1.00846 0.0
O413 O 0.78122 0.61566 0.05101 0.0
O414 O 0.79406 0.6111 0.96625 0.0
O415 O 0.83104 0.67869 0.02163 0.0
H416 H 0.71198 0.65738 0.06679 0.0
H417 H 0.71233 0.72091 0.97642 0.0
H418 H 0.65155 0.68104 0.08715 0.0
H419 H 0.65186 0.74332 0.99825 0.0
H420 H 0.86363 0.62103 0.14539 0.0
H421 H 0.74283 0.56883 0.0888 0.0
H422 H 0.8448 0.6395 0.08615 0.0
H423 H 0.76353 0.55126 0.14788 0.0
H424 H 0.62282 0.5905 0.96468 0.0
H425 H 0.66987 0.50081 1.00929 0.0
H426 H 0.78354 0.80013 0.12532 0.0
H427 H 0.76797 0.70577 0.1859 0.0
H428 H 0.80931 0.55163 0.91795 0.0
H429 H 0.74118 0.64481 0.93795 0.0
H430 H 0.77859 0.53126 0.85647 0.0
H431 H 0.71163 0.62276 0.87637 0.0
H432 H 0.87882 0.70092 0.97246 0.0
H433 H 0.85766 0.70503 0.08934 0.0
H434 H 0.93837 0.73968 0.98821 0.0
H435 H 0.91765 0.7434 0.10298 0.0
H436 H 0.79036 0.7815 0.91964 0.0
H437 H 0.84507 0.69069 0.8555 0.0
H438 H 0.90243 0.52847 0.05361 0.0
H439 H 0.95391 0.60941 0.9893 0.0
Li440 Li 0.90897 0.05978 0.29229 0.0
Li441 Li 0.95131 0.02175 0.3184 0.0
Li442 Li 0.95675 0.03202 0.2504 0.0
Li443 Li 0.90312 0.99044 0.27266 0.0
C444 C 0.97623 0.10441 0.31432 0.0
N445 N 1.00035 0.17624 0.34934 0.0
C446 C 0.97004 0.11502 0.35228 0.0
C447 C 0.9948 0.13017 0.29416 0.0
C448 C 0.98245 0.15153 0.36948 0.0
C449 C 1.00673 0.16641 0.31238 0.0
C450 C 0.88082 0.01655 0.35575 0.0
C451 C 0.85678 0.97832 0.40057 0.0
N452 N 0.8491 1.01018 0.42384 0.0
C453 C 0.87254 0.04893 0.38002 0.0
C454 C 0.87275 0.98094 0.36598 0.0
C455 C 0.85655 0.04511 0.41435 0.0
C456 C 0.84113 0.09079 0.3045 0.0
N457 N 0.878 0.10148 0.30269 0.0
C458 C 0.86586 0.16678 0.31194 0.0
C459 C 0.89068 0.13872 0.30631 0.0
C460 C 0.82768 0.15628 0.31285 0.0
C461 C 0.81536 0.11779 0.30913 0.0
H462 H 0.83167 0.06106 0.30144 0.0
H463 H 0.91984 0.14687 0.304 0.0
C464 C 0.0142 1.0019 0.35396 0.0
N465 N 0.98026 1.01489 0.36068 0.0
C466 C 0.03681 0.99692 0.38339 0.0
C467 C 0.98902 0.01816 0.4262 0.0
C468 C 0.96754 0.0231 0.39602 0.0
C469 C 0.0243 1.00517 0.42015 0.0
H470 H 0.0239 0.99576 0.32568 0.0
H471 H 0.94107 0.03424 0.40111 0.0
C472 C 0.88077 0.05166 0.22444 0.0
N473 N 0.83563 0.09722 0.19483 0.0
C474 C 0.84306 0.04038 0.21884 0.0
C475 C 0.89564 0.08591 0.21474 0.0
C476 C 0.82068 0.06386 0.20386 0.0
C477 C 0.87232 0.10861 0.19989 0.0
C478 C 0.96665 0.94864 0.27227 0.0
C479 C 0.9869 0.93078 0.24282 0.0
C480 C 0.95557 0.92948 0.30145 0.0
C481 C 0.99558 0.89377 0.24298 0.0
C482 C 0.96482 0.8925 0.3006 0.0
N483 N 0.98444 0.87555 0.27161 0.0
C484 C 0.02585 0.04162 0.21202 0.0
C485 C 0.97146 0.02877 0.1749 0.0
C486 C 0.04793 0.04154 0.18023 0.0
N487 N 0.98836 0.03526 0.20871 0.0
C488 C 0.99233 0.02858 0.14257 0.0
C489 C 0.03115 0.03497 0.14485 0.0
H490 H 0.0386 0.04634 0.23928 0.0
H491 H 0.94167 0.0231 0.173 0.0
C492 C 0.83645 0.9441 0.27462 0.0
N493 N 0.87039 0.94596 0.25856 0.0
C494 C 0.81246 0.91115 0.267 0.0
C495 C 0.8582 0.88307 0.2253 0.0
C496 C 0.88125 0.91667 0.23363 0.0
C497 C 0.82348 0.87974 0.24256 0.0
H498 H 0.82825 0.96807 0.29385 0.0
H499 H 0.90812 0.9191 0.22071 0.0
O500 O 0.96439 0.06892 0.29688 0.0
O501 O 0.89625 0.0197 0.32194 0.0
O502 O 0.9029 0.02971 0.24017 0.0
O503 O 0.95768 0.98472 0.27236 0.0
H504 H 0.9556 0.09539 0.36818 0.0
H505 H 0.99976 0.12225 0.26473 0.0
H506 H 0.97779 0.16023 0.39882 0.0
H507 H 0.02102 0.18672 0.29713 0.0
H508 H 0.85046 0.95095 0.4089 0.0
H509 H 0.87876 0.07672 0.37261 0.0
H510 H 0.87868 0.95558 0.34741 0.0
H511 H 0.85015 0.06991 0.43349 0.0
H512 H 0.87624 0.19625 0.31428 0.0
H513 H 0.78606 0.1087 0.30958 0.0
H514 H 0.06387 0.98691 0.37747 0.0
H515 H 0.97861 0.02573 0.45409 0.0
H516 H 0.83118 1.01398 0.22637 0.0
H517 H 0.92478 0.09507 0.21916 0.0
H518 H 0.79139 0.05564 0.19956 0.0
H519 H 0.88335 0.13534 0.19252 0.0
H520 H 0.99565 0.94535 0.22004 0.0
H521 H 0.94007 0.94305 0.32451 0.0
H522 H 1.01115 0.87952 0.22033 0.0
H523 H 0.95641 0.87727 0.32298 0.0
H524 H 0.07773 0.0467 0.18331 0.0
H525 H 0.97817 0.02256 0.11597 0.0
H526 H 0.7857 0.91012 0.28045 0.0
H527 H 0.86805 0.85959 0.20655 0.0
Li528 Li 0.28499 0.17837 0.5469 0.0
Li529 Li 0.25515 0.12648 0.50253 0.0
Li530 Li 0.3221 0.12951 0.51219 0.0
Li531 Li 0.29637 0.17486 0.47815 0.0
C532 C 0.29395 0.11515 0.58206 0.0
N533 N 0.31828 0.10044 0.64937 0.0
C534 C 0.27194 0.09138 0.60181 0.0
C535 C 0.32834 0.13139 0.59651 0.0
C536 C 0.28472 0.08432 0.63582 0.0
C537 C 0.34016 0.12359 0.63056 0.0
C538 C 0.21562 0.19073 0.5208 0.0
C539 C 0.16068 0.22364 0.51974 0.0
N540 N 0.14746 0.20839 0.54955 0.0
C541 C 0.20152 0.17535 0.55141 0.0
C542 C 0.19511 0.21506 0.5048 0.0
C543 C 0.167 0.18465 0.56555 0.0
C544 C 0.28381 0.25127 0.59028 0.0
N545 N 0.27984 0.21373 0.59228 0.0
C546 C 0.2723 0.22749 0.65822 0.0
C547 C 0.27294 0.20165 0.62531 0.0
C548 C 0.27725 0.26664 0.65747 0.0
C549 C 0.28217 0.27825 0.62248 0.0
H550 H 0.28858 0.2603 0.56362 0.0
H551 H 0.26836 0.17192 0.62653 0.0
C552 C 0.20791 0.06025 0.50855 0.0
N553 N 0.21046 0.09316 0.49447 0.0
C554 C 0.17476 0.03666 0.50547 0.0
C555 C 0.14774 0.081 0.47293 0.0
C556 C 0.1813 0.10365 0.47663 0.0
C557 C 0.14398 0.04699 0.48757 0.0
H558 H 0.23152 0.05255 0.52261 0.0
H559 H 0.18378 0.13003 0.4659 0.0
C560 C 0.36515 0.20569 0.52636 0.0
N561 N 0.43283 0.24766 0.53935 0.0
C562 C 0.38782 0.21283 0.49662 0.0
C563 C 0.37663 0.22051 0.56269 0.0
C564 C 0.42202 0.23391 0.50377 0.0
C565 C 0.41101 0.2415 0.56869 0.0
C566 C 0.27842 0.10721 0.42978 0.0
C567 C 0.28873 0.07494 0.4067 0.0
C568 C 0.25124 0.12783 0.41785 0.0
C569 C 0.27163 0.06379 0.372 0.0
C570 C 0.23479 0.11576 0.38297 0.0
N571 N 0.24523 0.08426 0.36096 0.0
C572 C 0.36417 0.07234 0.5334 0.0
C573 C 0.39634 0.11495 0.49848 0.0
C574 C 0.39711 0.05695 0.53993 0.0
N575 N 0.36472 0.10205 0.51446 0.0
C576 C 0.4298 0.10031 0.50416 0.0
C577 C 0.43038 0.07184 0.52602 0.0
H578 H 0.33851 0.06173 0.54493 0.0
H579 H 0.39583 0.13755 0.48242 0.0
C580 C 0.29454 0.23998 0.44512 0.0
N581 N 0.30676 0.20495 0.43983 0.0
C582 C 0.3002 0.26306 0.41792 0.0
C583 C 0.33202 0.21415 0.38063 0.0
C584 C 0.32569 0.19191 0.40865 0.0
C585 C 0.31861 0.25002 0.38482 0.0
H586 H 0.27996 0.24979 0.47036 0.0
H587 H 0.33546 0.16404 0.4053 0.0
O588 O 0.28155 0.12261 0.54894 0.0
O589 O 0.24917 0.18183 0.50621 0.0
O590 O 0.33133 0.18549 0.51989 0.0
O591 O 0.29496 0.11834 0.46383 0.0
H592 H 0.24514 0.07875 0.59111 0.0
H593 H 0.34581 0.14952 0.58145 0.0
H594 H 0.26793 0.06608 0.65146 0.0
H595 H 0.36675 0.13592 0.64202 0.0
H596 H 0.14445 0.2424 0.50761 0.0
H597 H 0.21696 0.1563 0.564 0.0
H598 H 0.20565 0.22706 0.481 0.0
H599 H 0.15571 0.17295 0.58921 0.0
H600 H 0.26896 0.21638 0.68398 0.0
H601 H 0.28497 0.30784 0.61971 0.0
H602 H 0.17325 1.01066 0.51697 0.0
H603 H 0.12466 0.09067 0.4596 0.0
H604 H 0.3793 0.20188 0.46832 0.0
H605 H 0.35917 0.21606 0.58607 0.0
H606 H 0.43997 0.23935 0.48101 0.0
H607 H 0.42029 0.25299 0.59667 0.0
H608 H 0.30974 0.05869 0.41554 0.0
H609 H 0.24291 0.15292 0.43523 0.0
H610 H 0.27933 0.03887 0.35384 0.0
H611 H 0.21372 0.13145 0.37341 0.0
H612 H 0.39683 0.03499 0.55707 0.0
H613 H 0.45518 0.11238 0.49312 0.0
H614 H 0.28982 0.29072 0.42255 0.0
H615 H 0.34608 0.20288 0.3555 0.0
Li616 Li 0.45508 0.53305 0.80736 0.0
Li617 Li 0.41253 0.57113 0.78261 0.0
Li618 Li 0.40709 0.50241 0.76083 0.0
Li619 Li 0.46086 0.54555 0.74087 0.0
C620 C 0.38241 0.52856 0.84387 0.0
N621 N 0.34639 0.52589 0.91064 0.0
C622 C 0.37789 0.56195 0.86844 0.0
C623 C 0.36852 0.49384 0.85327 0.0
C624 C 0.35962 0.55999 0.90204 0.0
C625 C 0.35043 0.49308 0.88716 0.0
C626 C 0.47862 0.61535 0.80928 0.0
C627 C 0.50839 0.67871 0.81499 0.0
N628 N 0.50051 0.68433 0.8519 0.0
C629 C 0.47102 0.62161 0.84727 0.0
C630 C 0.49763 0.64397 0.79296 0.0
C631 C 0.48224 0.65674 0.86835 0.0
C632 C 0.51979 0.51712 0.84284 0.0
N633 N 0.48389 0.52457 0.849 0.0
C634 C 0.48957 0.51812 0.91294 0.0
C635 C 0.46872 0.52534 0.88333 0.0
C636 C 0.52661 0.51012 0.90744 0.0
C637 C 0.54179 0.50987 0.8718 0.0
H638 H 0.53128 0.51662 0.81531 0.0
H639 H 0.44051 0.53175 0.88811 0.0
C640 C 0.34441 0.60066 0.79747 0.0
N641 N 0.38105 0.61207 0.79496 0.0
C642 C 0.31825 0.62713 0.80386 0.0
C643 C 0.36789 0.67705 0.80687 0.0
C644 C 0.39315 0.64951 0.79964 0.0
C645 C 0.32991 0.66582 0.80845 0.0
H646 H 0.33544 0.57078 0.79358 0.0
H647 H 0.42215 0.65819 0.79687 0.0
C648 C 0.47154 0.46228 0.76585 0.0
N649 N 0.49154 0.39246 0.7762 0.0
C650 C 0.49849 0.44489 0.7433 0.0
C651 C 0.45481 0.44429 0.79371 0.0
C652 C 0.5082 0.40954 0.74894 0.0
C653 C 0.4653 0.40898 0.79851 0.0
C654 C 0.38328 0.56481 0.71591 0.0
C655 C 0.34576 0.55223 0.71111 0.0
C656 C 0.39624 0.60029 0.70772 0.0
C657 C 0.32163 0.57567 0.69853 0.0
C658 C 0.37122 0.6229 0.69526 0.0
N659 N 0.33474 0.61024 0.691 0.0
C660 C 0.34001 0.45714 0.76022 0.0
C661 C 0.38678 0.42729 0.72375 0.0
C662 C 0.31628 0.42398 0.75373 0.0
N663 N 0.37481 0.45789 0.74606 0.0
C664 C 0.36386 0.39348 0.7164 0.0
C665 C 0.32841 0.39133 0.73225 0.0
H666 H 0.3311 0.48205 0.77748 0.0
H667 H 0.4145 0.42877 0.71256 0.0
C668 C 0.53099 0.547 0.70713 0.0
N669 N 0.49452 0.54996 0.70104 0.0
C670 C 0.55611 0.5456 0.67774 0.0
C671 C 0.50586 0.5513 0.63649 0.0
C672 C 0.48166 0.55246 0.6667 0.0
C673 C 0.54357 0.54713 0.64166 0.0
H674 H 0.54035 0.54467 0.73467 0.0
H675 H 0.45239 0.55415 0.66251 0.0
O676 O 0.40019 0.5298 0.81077 0.0
O677 O 0.46775 0.58135 0.78802 0.0
O678 O 0.46163 0.4968 0.76059 0.0
O679 O 0.40709 0.54289 0.72943 0.0
H680 H 0.3886 0.58908 0.86184 0.0
H681 H 0.37175 0.4677 0.83469 0.0
H682 H 0.35602 0.58559 0.92133 0.0
H683 H 0.33962 0.4664 0.8948 0.0
H684 H 0.52296 0.7012 0.80273 0.0
H685 H 0.45656 0.59965 0.86031 0.0
H686 H 0.50377 0.63942 0.76355 0.0
H687 H 0.47643 0.66207 0.89778 0.0
H688 H 0.47691 0.51941 0.94007 0.0
H689 H 0.5702 0.50372 0.86628 0.0
H690 H 0.2891 0.61748 0.80464 0.0
H691 H 0.37772 0.70671 0.80968 0.0
H692 H 0.51169 0.45855 0.72162 0.0
H693 H 0.43403 0.45751 0.81146 0.0
H694 H 0.52897 0.39567 0.73165 0.0
H695 H 0.45259 0.3947 0.81997 0.0
H696 H 0.33534 0.52487 0.71746 0.0
H697 H 0.42521 0.61047 0.71156 0.0
H698 H 0.29246 0.56645 0.69493 0.0
H699 H 0.38076 0.65057 0.68913 0.0
H700 H 0.28897 0.42362 0.76607 0.0
H701 H 0.37435 0.36891 0.6999 0.0
H702 H 0.58499 0.54286 0.68314 0.0
H703 H 0.49488 0.55214 0.60916 0.0
Li704 Li 0.80917 0.41003 0.53137 0.0
Li705 Li 0.78345 0.35993 0.56189 0.0
Li706 Li 0.77157 0.35467 0.49562 0.0
Li707 Li 0.74249 0.40389 0.5452 0.0
C708 C 0.85347 0.34666 0.52804 0.0
N709 N 0.92275 0.32646 0.54326 0.0
C710 C 0.87123 0.36202 0.56161 0.0
C711 C 0.87086 0.32096 0.50221 0.0
C712 C 0.90625 0.35144 0.56882 0.0
C713 C 0.90593 0.31114 0.5104 0.0
C714 C 0.78952 0.43002 0.61578 0.0
C715 C 0.76457 0.44889 0.67682 0.0
N716 N 0.7993 0.46156 0.6897 0.0
C717 C 0.82488 0.44379 0.6295 0.0
C718 C 0.75903 0.43306 0.63949 0.0
C719 C 0.82928 0.4594 0.66701 0.0
C720 C 0.84495 0.4841 0.54255 0.0
N721 N 0.84936 0.44744 0.52821 0.0
C722 C 0.90889 0.46515 0.50475 0.0
C723 C 0.88069 0.43755 0.50993 0.0
C724 C 0.90461 0.50349 0.51786 0.0
C725 C 0.87238 0.51279 0.53764 0.0
H726 H 0.81954 0.49114 0.55672 0.0
H727 H 0.88336 0.40836 0.49828 0.0
C728 C 0.80319 0.29263 0.57865 0.0
N729 N 0.79492 0.32728 0.59589 0.0
C730 C 0.81694 0.26724 0.5989 0.0
C731 C 0.81182 0.31274 0.65485 0.0
C732 C 0.79813 0.33744 0.63342 0.0
C733 C 0.82208 0.27767 0.6372 0.0
H734 H 0.80047 0.28535 0.54879 0.0
H735 H 0.79139 0.36501 0.64663 0.0
C736 C 0.78288 0.43362 0.47354 0.0
N737 N 0.81849 0.48226 0.43057 0.0
C738 C 0.77399 0.47102 0.47716 0.0
C739 C 0.8097 0.42087 0.44791 0.0
C740 C 0.79233 0.49518 0.4552 0.0
C741 C 0.82744 0.44592 0.42649 0.0
C742 C 0.7187 0.3213 0.55632 0.0
C743 C 0.71714 0.28267 0.54231 0.0
C744 C 0.70516 0.33333 0.59183 0.0
C745 C 0.70263 0.25664 0.56441 0.0
C746 C 0.69085 0.30645 0.61308 0.0
N747 N 0.68995 0.26897 0.59906 0.0
C748 C 0.77655 0.28448 0.45185 0.0
C749 C 0.75821 0.32979 0.41697 0.0
C750 C 0.77709 0.25739 0.41984 0.0
N751 N 0.76732 0.31986 0.44993 0.0
C752 C 0.75889 0.30364 0.38403 0.0
C753 C 0.7688 0.26684 0.38506 0.0
H754 H 0.78412 0.27746 0.47834 0.0
H755 H 0.75129 0.35825 0.4161 0.0
C756 C 0.71284 0.47164 0.56553 0.0
N757 N 0.70271 0.43389 0.55868 0.0
C758 C 0.68612 0.49723 0.57331 0.0
C759 C 0.63901 0.4446 0.56923 0.0
C760 C 0.66676 0.41986 0.56097 0.0
C761 C 0.6487 0.48376 0.57467 0.0
H762 H 0.74174 0.48182 0.56403 0.0
H763 H 0.65959 0.38963 0.55555 0.0
O764 O 0.81912 0.3565 0.52041 0.0
O765 O 0.78461 0.41508 0.57903 0.0
O766 O 0.76631 0.40984 0.49573 0.0
O767 O 0.7338 0.34723 0.5356 0.0
H768 H 0.85795 0.38158 0.58198 0.0
H769 H 0.85744 0.30884 0.47606 0.0
H770 H 0.92028 0.36305 0.59475 0.0
H771 H 0.91978 0.29135 0.49064 0.0
H772 H 0.74125 0.45124 0.69551 0.0
H773 H 0.84867 0.44274 0.61137 0.0
H774 H 0.73136 0.42349 0.62921 0.0
H775 H 0.85651 0.46998 0.67803 0.0
H776 H 0.93348 0.45657 0.48981 0.0
H777 H 0.86772 0.54195 0.54786 0.0
H778 H 0.82487 0.24037 0.58456 0.0
H779 H 0.81576 0.32151 0.6845 0.0
H780 H 0.75329 0.48134 0.49682 0.0
H781 H 0.81726 0.39213 0.44514 0.0
H782 H 0.78585 0.52425 0.45781 0.0
H783 H 0.84849 0.43653 0.40678 0.0
H784 H 0.72722 0.27286 0.51477 0.0
H785 H 0.70593 0.36309 0.60295 0.0
H786 H 0.70149 0.22664 0.55403 0.0
H787 H 0.68052 0.31538 0.64072 0.0
H788 H 0.78411 0.22933 0.42245 0.0
H789 H 0.75271 0.31257 0.35799 0.0
H790 H 0.69445 0.5273 0.57731 0.0
H791 H 0.61028 0.4334 0.56974 0.0
Li792 Li 0.69177 0.99531 0.78122 0.0
Li793 Li 0.64964 0.03762 0.81578 0.0
Li794 Li 0.64818 0.02218 0.74599 0.0
Li795 Li 0.69801 0.06481 0.77714 0.0
C796 C 0.62919 0.95102 0.78594 0.0
N797 N 0.61623 0.87547 0.79244 0.0
C798 C 0.61649 0.94058 0.81944 0.0
C799 C 0.63471 0.92298 0.75559 0.0
C800 C 0.61021 0.90226 0.82221 0.0
C801 C 0.62821 0.88497 0.75947 0.0
C802 C 0.71913 0.05705 0.8544 0.0
C803 C 0.73535 0.11401 0.89808 0.0
N804 N 0.74918 0.09305 0.92168 0.0
C805 C 0.73414 0.03618 0.87884 0.0
C806 C 0.72025 0.09636 0.8639 0.0
C807 C 0.74892 0.05484 0.91282 0.0
C808 C 0.73517 0.93287 0.75685 0.0
N809 N 0.71628 0.95155 0.78548 0.0
C810 C 0.72417 0.90374 0.82236 0.0
C811 C 0.71119 0.93805 0.81803 0.0
C812 C 0.74254 0.88335 0.79292 0.0
C813 C 0.74862 0.89823 0.76 0.0
H814 H 0.73878 0.94422 0.73126 0.0
H815 H 0.69561 0.95323 0.84008 0.0
C816 C 0.58811 0.05918 0.86177 0.0
N817 N 0.62128 0.04397 0.86013 0.0
C818 C 0.5661 0.05942 0.89355 0.0
C819 C 0.61293 0.02867 0.9211 0.0
C820 C 0.63399 0.02911 0.88904 0.0
C821 C 0.57849 0.04347 0.92322 0.0
H822 H 0.57826 0.06998 0.83802 0.0
H823 H 0.65959 1.01577 0.88644 0.0
C824 C 0.70531 1.01541 0.69945 0.0
N825 N 0.70946 1.00576 0.62283 0.0
C826 C 0.71732 0.04591 0.68167 0.0
C827 C 0.69597 0.97988 0.67824 0.0
C828 C 0.7191 0.04049 0.64292 0.0
C829 C 0.69808 0.97561 0.63955 0.0
C830 C 0.63499 0.1083 0.78642 0.0
C831 C 0.62112 0.12563 0.75844 0.0
C832 C 0.63828 0.12818 0.82265 0.0
C833 C 0.61185 0.16289 0.76696 0.0
C834 C 0.62869 0.16538 0.83008 0.0
N835 N 0.61585 0.18186 0.8023 0.0
C836 C 0.59203 0.98395 0.69605 0.0
C837 C 0.6222 0.04021 0.67987 0.0
C838 C 0.56991 0.97868 0.66415 0.0
N839 N 0.61758 1.01429 0.70313 0.0
C840 C 0.60066 0.03618 0.64782 0.0
C841 C 0.57403 1.00515 0.6397 0.0
H842 H 0.58862 0.964 0.71524 0.0
H843 H 0.64281 0.064 0.68617 0.0
C844 C 0.76748 0.10475 0.78478 0.0
N845 N 0.73256 0.10677 0.77258 0.0
C846 C 0.79546 0.13275 0.78012 0.0
C847 C 0.75116 0.16445 0.75012 0.0
C848 C 0.7239 0.13583 0.75557 0.0
C849 C 0.78755 0.16299 0.76234 0.0
H850 H 0.77376 0.08085 0.79741 0.0
H851 H 0.69623 0.13621 0.74506 0.0
O852 O 0.63626 0.98844 0.78293 0.0
O853 O 0.7045 0.0391 0.82097 0.0
O854 O 0.70283 0.02034 0.73738 0.0
O855 O 0.64394 0.07167 0.77852 0.0
H856 H 0.61158 0.96178 0.84309 0.0
H857 H 0.64421 0.93047 0.72939 0.0
H858 H 0.60058 0.89381 0.84804 0.0
H859 H 0.63272 0.86302 0.73628 0.0
H860 H 0.73627 0.14441 0.90575 0.0
H861 H 0.73424 1.00584 0.87179 0.0
H862 H 0.71017 0.11323 0.84489 0.0
H863 H 0.76028 0.03894 0.9321 0.0
H864 H 0.71874 0.89264 0.84796 0.0
H865 H 0.76252 0.88279 0.73671 0.0
H866 H 0.53926 0.07057 0.89435 0.0
H867 H 0.62284 1.01558 0.94343 0.0
H868 H 0.72491 0.07354 0.69754 0.0
H869 H 0.68699 0.95587 0.69143 0.0
H870 H 0.72808 0.06393 0.62881 0.0
H871 H 0.69066 0.94832 0.62281 0.0
H872 H 0.61765 0.11059 0.73039 0.0
H873 H 0.64755 0.11492 0.84498 0.0
H874 H 0.60138 0.17669 0.74549 0.0
H875 H 0.63124 0.18107 0.858 0.0
H876 H 0.54941 0.95457 0.65899 0.0
H877 H 0.60505 0.05693 0.62942 0.0
H878 H 0.82331 0.12996 0.78916 0.0
H879 H 0.74398 0.18716 0.73612 0.0
Li880 Li 0.07462 0.26584 0.88429 0.0
Li881 Li 0.03663 0.29958 0.93553 0.0
Li882 Li 0.04275 0.22834 0.92654 0.0
Li883 Li 1.00752 0.25555 0.88416 0.0
C884 C 0.11849 0.28115 0.94501 0.0
N885 N 0.19357 0.3015 0.95422 0.0
C886 C 0.13132 0.31866 0.95839 0.0
C887 C 0.14378 0.25393 0.93668 0.0
C888 C 0.16941 0.3284 0.96279 0.0
C889 C 0.18164 0.2648 0.9414 0.0
C890 C 0.02028 0.31801 0.85633 0.0
C891 C 0.97018 0.35143 0.83888 0.0
N892 N 0.98041 0.34342 0.80269 0.0
C893 C 0.03044 0.31025 0.81903 0.0
C894 C 0.99002 0.33888 0.86644 0.0
C895 C 1.00987 0.32331 0.7923 0.0
C896 C 0.12881 0.24481 0.8289 0.0
N897 N 0.11798 0.27307 0.85514 0.0
C898 C 0.17169 0.3133 0.84422 0.0
C899 C 0.13801 0.30729 0.86214 0.0
C900 C 0.18429 0.28405 0.81844 0.0
C901 C 0.16227 0.24974 0.81005 0.0
H902 H 0.11192 0.21821 0.82312 0.0
H903 H 0.12829 0.32956 0.88245 0.0
C904 C 0.02633 0.34627 1.00535 0.0
N905 N 0.03338 0.34557 0.96859 0.0
C906 C 0.02382 0.38078 0.0288 0.0
C907 C 0.03597 0.41291 0.97607 0.0
C908 C 0.03838 0.37791 0.95376 0.0
C909 C 0.02865 0.41471 0.01415 0.0
H910 H 0.02258 0.32003 0.01636 0.0
H911 H 0.04461 0.37655 0.92457 0.0
C912 C 0.04595 0.17975 0.86332 0.0
N913 N 0.05042 0.10251 0.84797 0.0
C914 C 0.01453 0.15547 0.85136 0.0
C915 C 0.07964 0.16472 0.86737 0.0
C916 C 0.01736 0.11652 0.84377 0.0
C917 C 0.08132 0.12561 0.85952 0.0
C918 C 0.96106 0.2528 0.94452 0.0
C919 C 0.94044 0.21855 0.93146 0.0
C920 C 0.94333 0.28271 0.96427 0.0
C921 C 0.90245 0.21473 0.93854 0.0
C922 C 0.9053 0.27777 0.97081 0.0
N923 N 0.88582 0.24415 0.95793 0.0
C924 C 0.07296 0.18521 0.97715 0.0
C925 C 0.01842 0.15704 0.94486 0.0
C926 C 0.07454 0.15365 0.99497 0.0
N927 N 0.04529 0.18615 0.95237 0.0
C928 C 0.01902 0.1251 0.96179 0.0
C929 C 0.04732 0.12324 0.98696 0.0
H930 H 0.09386 0.20881 0.98296 0.0
H931 H 0.99674 0.15824 0.92526 0.0
C932 C 0.97222 0.2295 0.81628 0.0
N933 N 0.96594 0.24795 0.85101 0.0
C934 C 0.94394 0.22249 0.78978 0.0
C935 C 0.90326 0.25425 0.83497 0.0
C936 C 0.93259 0.26136 0.86036 0.0
C937 C 0.90887 0.23445 0.79931 0.0
H938 H 0.99932 0.22023 0.80917 0.0
H939 H 0.92869 0.27783 0.88733 0.0
O940 O 0.08134 0.27117 0.94014 0.0
O941 O 0.03925 0.30433 0.88271 0.0
O942 O 0.04375 0.218 0.87089 0.0
O943 O 0.99841 0.25708 0.93841 0.0
H944 H 0.1121 0.34006 0.96505 0.0
H945 H 0.13428 0.22475 0.92658 0.0
H946 H 0.17977 0.35734 0.97294 0.0
H947 H 0.20155 0.24406 0.93487 0.0
H948 H 0.94651 0.36734 0.84624 0.0
H949 H 0.05369 0.29393 0.81079 0.0
H950 H 0.98153 0.34468 0.89517 0.0
H951 H 0.01725 0.31732 0.76327 0.0
H952 H 0.18824 0.34012 0.85128 0.0
H953 H 0.17143 0.22663 0.79025 0.0
H954 H 0.01816 0.38094 0.05803 0.0
H955 H 0.04082 0.43835 0.96377 0.0
H956 H 0.9881 0.16648 0.84851 0.0
H957 H 0.1042 0.18303 0.87659 0.0
H958 H 0.99324 0.09741 0.83466 0.0
H959 H 0.10721 0.11361 0.86262 0.0
H960 H 0.95332 0.19554 0.91512 0.0
H961 H 0.9587 0.30952 0.97434 0.0
H962 H 0.88614 0.18844 0.92839 0.0
H963 H 0.89125 0.30068 0.98606 0.0
H964 H 0.0968 0.15287 0.01436 0.0
H965 H 0.99768 0.10193 0.955 0.0
H966 H 0.94918 0.20718 0.76241 0.0
H967 H 0.87661 0.26438 0.84293 0.0
Li968 Li 0.56922 0.7759 0.39496 0.0
Li969 Li 0.53026 0.81114 0.44451 0.0
Li970 Li 0.53777 0.74049 0.44037 0.0
Li971 Li 0.50221 0.76423 0.39498 0.0
C972 C 0.61312 0.78828 0.45637 0.0
N973 N 0.68891 0.79595 0.46727 0.0
C974 C 0.63097 0.8232 0.47207 0.0
C975 C 0.63373 0.75723 0.44638 0.0
C976 C 0.66935 0.8265 0.47734 0.0
C977 C 0.67204 0.76169 0.45203 0.0
C978 C 0.51326 0.82601 0.36475 0.0
C979 C 0.46026 0.85515 0.34708 0.0
N980 N 0.47169 0.84943 0.31114 0.0
C981 C 0.52466 0.82064 0.32772 0.0
C982 C 0.48097 0.84361 0.37463 0.0
C983 C 0.5032 0.83263 0.301 0.0
C984 C 0.61893 0.75146 0.33769 0.0
N985 N 0.61275 0.78034 0.36544 0.0
C986 C 0.67123 0.81295 0.35435 0.0
C987 C 0.63755 0.8113 0.37328 0.0
C988 C 0.6789 0.78268 0.32694 0.0
C989 C 0.65217 0.75203 0.31797 0.0
H990 H 0.59845 0.72754 0.33149 0.0
H991 H 0.63165 0.83418 0.39502 0.0
C992 C 0.51945 0.85667 0.51327 0.0
N993 N 0.52578 0.8572 0.47661 0.0
C994 C 0.51696 0.89046 0.53772 0.0
C995 C 0.52688 0.92454 0.48601 0.0
C996 C 0.5292 0.89008 0.46257 0.0
C997 C 0.52121 0.92505 0.52423 0.0
H998 H 0.51668 0.82998 0.52351 0.0
H999 H 0.53441 0.88957 0.43327 0.0
C1000 C 0.53733 0.68863 0.37618 0.0
N1001 N 0.53375 0.61083 0.35736 0.0
C1002 C 0.50324 0.66773 0.36743 0.0
C1003 C 0.5696 0.66995 0.37521 0.0
C1004 C 0.50201 0.62842 0.35801 0.0
C1005 C 0.5672 0.63061 0.3657 0.0
C1006 C 0.45648 0.76311 0.45816 0.0
C1007 C 0.43846 0.72665 0.45347 0.0
C1008 C 0.43704 0.79407 0.47245 0.0
C1009 C 0.40113 0.72174 0.46309 0.0
C1010 C 0.39975 0.78797 0.48174 0.0
N1011 N 0.38272 0.75224 0.47691 0.0
C1012 C 0.56887 0.70811 0.49724 0.0
C1013 C 0.52239 0.6675 0.46199 0.0
C1014 C 0.57737 0.67898 0.51593 0.0
N1015 N 0.54277 0.70151 0.4698 0.0
C1016 C 0.53 0.63758 0.47996 0.0
C1017 C 0.55841 0.64311 0.50649 0.0
H1018 H 0.5842 0.73556 0.5036 0.0
H1019 H 0.50128 0.66294 0.44073 0.0
C1020 C 0.47066 0.74032 0.32531 0.0
N1021 N 0.46144 0.75377 0.36092 0.0
C1022 C 0.44392 0.73419 0.29725 0.0
C1023 C 0.39834 0.75488 0.34308 0.0
C1024 C 0.42614 0.76146 0.37012 0.0
C1025 C 0.40731 0.74141 0.30618 0.0
H1026 H 0.49907 0.73505 0.31867 0.0
H1027 H 0.41952 0.77361 0.39805 0.0
O1028 O 0.57564 0.78454 0.45072 0.0
O1029 O 0.53317 0.81329 0.39107 0.0
O1030 O 0.53922 0.7272 0.38496 0.0
O1031 O 0.4931 0.76856 0.44944 0.0
H1032 H 0.61533 0.84748 0.47996 0.0
H1033 H 0.62025 0.73002 0.43431 0.0
H1034 H 0.68359 0.85336 0.4894 0.0
H1035 H 0.68836 0.73793 0.44432 0.0
H1036 H 0.435 0.86847 0.35423 0.0
H1037 H 0.54956 0.80693 0.31968 0.0
H1038 H 0.47167 0.84768 0.40318 0.0
H1039 H 0.51151 0.82843 0.27217 0.0
H1040 H 0.69151 0.83694 0.36193 0.0
H1041 H 0.65745 0.72821 0.29692 0.0
H1042 H 0.51229 0.88958 0.56694 0.0
H1043 H 0.53093 0.95054 0.47455 0.0
H1044 H 0.47791 0.68157 0.3684 0.0
H1045 H 0.59624 0.68564 0.38167 0.0
H1046 H 0.47581 0.61189 0.35135 0.0
H1047 H 0.59195 0.6158 0.36488 0.0
H1048 H 0.453 0.70247 0.4422 0.0
H1049 H 0.45051 0.8225 0.47607 0.0
H1050 H 0.38679 0.69369 0.45952 0.0
H1051 H 0.38433 0.81165 0.49272 0.0
H1052 H 0.59983 0.68391 0.53603 0.0
H1053 H 0.51524 0.60996 0.47174 0.0
H1054 H 0.45167 0.72375 0.26895 0.0
H1055 H 0.37034 0.76116 0.35068 0.0
Li1056 Li 0.02443 0.8107 0.64432 0.0
Li1057 Li 0.9857 0.78124 0.69048 0.0
Li1058 Li 0.05253 0.77325 0.68413 0.0
Li1059 Li 1.00813 0.74124 0.63589 0.0
C1060 C 0.03187 0.8588 0.70707 0.0
N1061 N 0.03737 0.93685 0.71815 0.0
C1062 C 1.00112 0.87817 0.71908 0.0
C1063 C 0.06548 0.87905 0.70091 0.0
C1064 C 1.00446 0.91767 0.7245 0.0
C1065 C 0.06767 0.91853 0.70658 0.0
C1066 C 0.9518 0.76923 0.60783 0.0
C1067 C 0.90325 0.7248 0.57767 0.0
N1068 N 0.90804 0.74056 0.5463 0.0
C1069 C 0.95622 0.78502 0.57532 0.0
C1070 C 0.92504 0.73894 0.60908 0.0
C1071 C 0.93381 0.77012 0.54452 0.0
C1072 C 0.06101 0.85807 0.5956 0.0
N1073 N 0.03142 0.85377 0.61837 0.0
C1074 C 1.00877 0.91042 0.60438 0.0
C1075 C 1.00534 0.87904 0.62272 0.0
C1076 C 0.03908 0.91564 0.58105 0.0
C1077 C 0.06544 0.8891 0.57656 0.0
H1078 H 0.0811 0.83736 0.59203 0.0
H1079 H 0.98176 0.87473 0.64041 0.0
C1080 C 0.95116 0.79067 0.7624 0.0
N1081 N 0.94502 0.78571 0.72508 0.0
C1082 C 0.92132 0.79007 0.78713 0.0
C1083 C 0.87948 0.78062 0.73466 0.0
C1084 C 0.91002 0.78126 0.71104 0.0
C1085 C 0.88479 0.7848 0.77332 0.0
H1086 H 0.97927 0.79435 0.77296 0.0
H1087 H 0.90574 0.77757 0.68139 0.0
C1088 C 0.09186 0.76019 0.62323 0.0
N1089 N 0.16368 0.74027 0.61503 0.0
C1090 C 0.09853 0.7227 0.61017 0.0
C1091 C 0.12169 0.7876 0.63188 0.0
C1092 C 0.13506 0.7132 0.60624 0.0
C1093 C 0.1578 0.77694 0.62764 0.0
C1094 C 0.99478 0.71799 0.71586 0.0
C1095 C 0.01237 0.72223 0.75042 0.0
C1096 C 0.95966 0.69833 0.71065 0.0
C1097 C 0.99442 0.70678 0.77928 0.0
C1098 C 0.94259 0.68342 0.74023 0.0
N1099 N 0.96018 0.68791 0.77364 0.0
C1100 C 0.11974 0.79189 0.72905 0.0
C1101 C 0.10341 0.72745 0.70422 0.0
C1102 C 0.15278 0.78262 0.74368 0.0
N1103 N 0.09626 0.76435 0.70921 0.0
C1104 C 0.13599 0.71707 0.71803 0.0
C1105 C 0.1612 0.74486 0.73749 0.0
H1106 H 0.11338 0.82103 0.73262 0.0
H1107 H 0.08421 0.7062 0.6884 0.0
C1108 C 0.99702 0.69698 0.56366 0.0
N1109 N 0.99766 0.69569 0.60069 0.0
C1110 C 0.98845 0.66397 0.5381 0.0
C1111 C 0.98331 0.62858 0.58905 0.0
C1112 C 0.99159 0.66232 0.61362 0.0
C1113 C 0.98118 0.62906 0.55066 0.0
H1114 H 1.00275 0.72374 0.55398 0.0
H1115 H 0.99332 0.66181 0.64307 0.0
O1116 O 0.02899 0.82017 0.70099 0.0
O1117 O 0.97377 0.78312 0.63815 0.0
O1118 O 0.05632 0.76987 0.62818 0.0
O1119 O 1.01153 0.7336 0.68749 0.0
H1120 H 0.97489 0.86287 0.72387 0.0
H1121 H 0.08947 0.86443 0.69144 0.0
H1122 H 0.98086 0.93307 0.73365 0.0
H1123 H 0.09342 0.93459 0.7017 0.0
H1124 H 0.88262 0.7012 0.57817 0.0
H1125 H 0.97689 0.80832 0.57375 0.0
H1126 H 0.92154 0.72607 0.63385 0.0
H1127 H 0.937 0.78198 0.51914 0.0
H1128 H 0.98789 0.93041 0.60839 0.0
H1129 H 0.08915 0.89232 0.55868 0.0
H1130 H 0.9268 0.79382 0.81669 0.0
H1131 H 0.85195 0.776 0.72257 0.0
H1132 H 0.07576 0.70111 0.6035 0.0
H1133 H 0.11699 0.81667 0.64232 0.0
H1134 H 0.14065 0.68427 0.59633 0.0
H1135 H 0.18115 0.79779 0.63451 0.0
H1136 H 0.03939 0.73765 0.75507 0.0
H1137 H 0.94553 0.69507 0.68417 0.0
H1138 H 1.00763 0.70997 0.80621 0.0
H1139 H 0.91531 0.66838 0.73667 0.0
H1140 H 0.17203 0.80472 0.75832 0.0
H1141 H 0.14193 0.6877 0.71255 0.0
H1142 H 0.98685 0.66599 0.50889 0.0
H1143 H 0.97888 0.60238 0.6001 0.0
Li1144 Li 0.53065 0.31735 0.15068 0.0
Li1145 Li 0.48918 0.29186 0.19786 0.0
Li1146 Li 0.55475 0.27766 0.19169 0.0
Li1147 Li 0.50832 0.24894 0.14442 0.0
C1148 C 0.53973 0.36584 0.21603 0.0
N1149 N 0.54852 0.44371 0.23402 0.0
C1150 C 0.50957 0.38587 0.22873 0.0
C1151 C 0.5744 0.38536 0.21267 0.0
C1152 C 0.51458 0.42525 0.23766 0.0
C1153 C 0.57826 0.42475 0.22183 0.0
C1154 C 0.45704 0.27912 0.11434 0.0
C1155 C 0.40736 0.23592 0.08454 0.0
N1156 N 0.41596 0.24775 0.05169 0.0
C1157 C 0.46535 0.29088 0.0803 0.0
C1158 C 0.42775 0.25148 0.11654 0.0
C1159 C 0.44424 0.27469 0.04894 0.0
C1160 C 0.56487 0.35298 0.0925 0.0
N1161 N 0.54212 0.35843 0.1225 0.0
C1162 C 0.52905 0.41848 0.10778 0.0
C1163 C 0.52452 0.3906 0.13054 0.0
C1164 C 0.55146 0.413 0.07619 0.0
C1165 C 0.56991 0.38005 0.06879 0.0
H1166 H 0.57769 0.32677 0.08582 0.0
H1167 H 0.50553 0.39389 0.15358 0.0
C1168 C 0.45404 0.3041 0.26945 0.0
N1169 N 0.44857 0.30028 0.2321 0.0
C1170 C 0.42374 0.30442 0.29365 0.0
C1171 C 0.38296 0.29891 0.24072 0.0
C1172 C 0.41394 0.29856 0.21762 0.0
C1173 C 0.38748 0.30125 0.27931 0.0
H1174 H 0.48187 0.30555 0.28036 0.0
H1175 H 0.41023 0.29578 0.18794 0.0
C1176 C 0.59475 0.26684 0.13058 0.0
N1177 N 0.6685 0.25413 0.12106 0.0
C1178 C 0.60468 0.23038 0.11784 0.0
C1179 C 0.62226 0.29686 0.13837 0.0
C1180 C 0.64215 0.22453 0.11321 0.0
C1181 C 0.65941 0.28985 0.13342 0.0
C1182 C 0.49409 0.22931 0.22659 0.0
C1183 C 0.51405 0.23181 0.25964 0.0
C1184 C 0.45701 0.21439 0.22478 0.0
C1185 C 0.49666 0.21915 0.29026 0.0
C1186 C 0.44058 0.20216 0.25604 0.0
N1187 N 0.46059 0.20474 0.28785 0.0
C1188 C 0.62348 0.29141 0.23457 0.0
C1189 C 0.60215 0.22782 0.21104 0.0
C1190 C 0.6555 0.27967 0.24892 0.0
N1191 N 0.59786 0.26544 0.21571 0.0
C1192 C 0.63347 0.21495 0.22495 0.0
C1193 C 0.6606 0.24101 0.24379 0.0
H1194 H 0.61949 0.32117 0.23775 0.0
H1195 H 0.58145 0.20786 0.19573 0.0
C1196 C 0.50508 0.20088 0.07378 0.0
N1197 N 0.4949 0.20345 0.11002 0.0
C1198 C 0.49768 0.16687 0.04926 0.0
C1199 C 0.46853 0.13921 0.09952 0.0
C1200 C 0.4768 0.17355 0.12307 0.0
C1201 C 0.47951 0.13532 0.0622 0.0
H1202 H 0.51968 0.22501 0.06414 0.0
H1203 H 0.46966 0.17594 0.15204 0.0
O1204 O 0.53545 0.32729 0.20733 0.0
O1205 O 0.47805 0.29385 0.14512 0.0
O1206 O 0.55829 0.27307 0.13595 0.0
O1207 O 0.51056 0.24185 0.19636 0.0
H1208 H 0.48253 0.37125 0.23144 0.0
H1209 H 0.59804 0.37028 0.20297 0.0
H1210 H 0.49146 0.44114 0.2474 0.0
H1211 H 0.6049 0.44025 0.21925 0.0
H1212 H 0.38484 0.21429 0.08579 0.0
H1213 H 0.488 0.31209 0.07802 0.0
H1214 H 0.42132 0.24155 0.14251 0.0
H1215 H 0.45043 0.28344 0.02239 0.0
H1216 H 0.51345 0.44306 0.11365 0.0
H1217 H 0.58645 0.37436 0.04396 0.0
H1218 H 0.42866 0.30676 0.3232 0.0
H1219 H 0.35566 0.296 0.22821 0.0
H1220 H 0.58367 0.20683 0.11184 0.0
H1221 H 0.61499 0.32522 0.14838 0.0
H1222 H 0.65029 0.19645 0.10347 0.0
H1223 H 0.68101 0.31279 0.13948 0.0
H1224 H 0.54255 0.24372 0.26186 0.0
H1225 H 0.44076 0.21312 0.19982 0.0
H1226 H 0.51179 0.22097 0.316 0.0
H1227 H 0.41185 0.19087 0.2551 0.0
H1228 H 0.67631 0.30047 0.263 0.0
H1229 H 0.63691 0.18494 0.22013 0.0
H1230 H 0.50666 0.16503 0.02068 0.0
H1231 H 0.4552 0.11544 0.11087 0.0
loop_
_geom_bond_atom_site_label_1
_geom_bond_atom_site_label_2
_geom_bond_distance
_geom_bond_site_symmetry_2
_ccdc_geom_bond_type
H0 C3 0.929 1_565 S
H1 C6 0.929 . S
H2 C8 0.930 . S
C3 H0 0.929 1_545 S
C3 C4 1.398 . S
C3 C5 1.396 . S
C4 C3 1.398 . S
C4 C8 1.407 . S
C5 C3 1.396 . S
C5 C6 1.394 . S
C6 H1 0.929 . S
C6 C5 1.394 . S
C6 C7 1.382 . S
C7 C6 1.382 . S
C7 C8 1.392 . S
C7 N9 1.420 . S
C8 H2 0.930 . S
C8 C4 1.407 . S
C8 C7 1.392 . S
N9 C7 1.420 . S
N9 C10 1.244 . S
C10 N9 1.244 . S
H11 C14 0.929 . S
H12 C17 0.929 . S
H13 C19 0.930 . S
C14 H11 0.929 . S
C14 C15 1.398 . S
C14 C16 1.396 . S
C15 C14 1.398 . S
C15 C19 1.407 . S
C16 C14 1.396 . S
C16 C17 1.394 . S
C17 H12 0.929 . S
C17 C16 1.394 . S
C17 C18 1.382 . S
C18 C17 1.382 . S
C18 C19 1.392 . S
C18 N20 1.420 . S
C19 H13 0.930 . S
C19 C15 1.407 . S
C19 C18 1.392 . S
N20 C18 1.420 . S
N20 C21 1.244 . S
C21 N20 1.244 . S
H22 C25 0.929 . S
H23 C28 0.929 . S
H24 C30 0.930 . S
C25 H22 0.929 . S
C25 C26 1.398 . S
C25 C27 1.396 . S
C26 C25 1.398 . S
C26 C30 1.407 1_454 S
C27 C25 1.396 . S
C27 C28 1.394 . S
C28 H23 0.929 . S
C28 C27 1.394 . S
C28 C29 1.382 1_455 S
C29 C28 1.382 1_655 S
C29 C30 1.392 1_554 S
C29 N31 1.420 . S
C30 H24 0.930 . S
C30 C26 1.407 1_656 S
C30 C29 1.392 1_556 S
N31 C29 1.420 . S
N31 C32 1.244 . S
C32 N31 1.244 . S
H33 C36 0.929 . S
H34 C39 0.929 . S
H35 C41 0.930 . S
C36 H33 0.929 . S
C36 C37 1.398 . S
C36 C38 1.396 . S
C37 C36 1.398 . S
C37 C41 1.407 . S
C38 C36 1.396 . S
C38 C39 1.394 . S
C39 H34 0.929 . S
C39 C38 1.394 . S
C39 C40 1.382 . S
C40 C39 1.382 . S
C40 C41 1.392 . S
C40 N42 1.420 . S
C41 H35 0.930 . S
C41 C37 1.407 . S
C41 C40 1.392 . S
N42 C40 1.420 . S
N42 C43 1.244 . S
C43 N42 1.244 . S
H44 C47 0.929 . S
H45 C50 0.929 . S
H46 C52 0.930 . S
C47 H44 0.929 . S
C47 C48 1.398 1_545 S
C47 C49 1.396 . S
C48 C47 1.398 1_565 S
C48 C52 1.407 . S
C49 C47 1.396 . S
C49 C50 1.394 1_545 S
C50 H45 0.929 . S
C50 C49 1.394 1_565 S
C50 C51 1.382 . S
C51 C50 1.382 . S
C51 C52 1.392 . S
C51 N53 1.420 . S
C52 H46 0.930 . S
C52 C48 1.407 . S
C52 C51 1.392 . S
N53 C51 1.420 . S
N53 C54 1.244 . S
C54 N53 1.244 . S
H55 C58 0.929 . S
H56 C61 0.929 . S
H57 C63 0.930 . S
C58 H55 0.929 . S
C58 C59 1.398 . S
C58 C60 1.396 . S
C59 C58 1.398 . S
C59 C63 1.407 . S
C60 C58 1.396 . S
C60 C61 1.394 . S
C61 H56 0.929 . S
C61 C60 1.394 . S
C61 C62 1.382 . S
C62 C61 1.382 . S
C62 C63 1.392 . S
C62 N64 1.420 . S
C63 H57 0.930 . S
C63 C59 1.407 . S
C63 C62 1.392 . S
N64 C62 1.420 . S
N64 C65 1.244 . S
C65 N64 1.244 . S
H66 C69 0.929 . S
H67 C72 0.929 . S
H68 C74 0.930 . S
C69 H66 0.929 . S
C69 C70 1.398 . S
C69 C71 1.396 . S
C70 C69 1.398 . S
C70 C74 1.407 . S
C71 C69 1.396 . S
C71 C72 1.394 1_655 S
C72 H67 0.929 . S
C72 C71 1.394 1_455 S
C72 C73 1.381 1_455 S
C73 C72 1.381 1_655 S
C73 C74 1.394 . S
C73 N75 1.418 1_655 S
C74 H68 0.930 . S
C74 C70 1.407 . S
C74 C73 1.394 . S
N75 C73 1.418 1_455 S
N75 C76 1.244 . S
C76 N75 1.244 . S
H77 C80 0.929 . S
H78 C83 0.929 . S
H79 C85 0.930 . S
C80 H77 0.929 . S
C80 C81 1.398 . S
C80 C82 1.396 . S
C81 C80 1.398 . S
C81 C85 1.407 . S
C82 C80 1.396 . S
C82 C83 1.394 . S
C83 H78 0.929 . S
C83 C82 1.394 . S
C83 C84 1.382 . S
C84 C83 1.382 . S
C84 C85 1.392 . S
C84 N86 1.420 . S
C85 H79 0.930 . S
C85 C81 1.407 . S
C85 C84 1.392 . S
N86 C84 1.420 . S
N86 C87 1.244 . S
C87 N86 1.244 . S
H88 C91 0.929 . S
H89 C94 0.929 . S
H90 C96 0.930 . S
C91 H88 0.929 . S
C91 C92 1.398 . S
C91 C93 1.396 . S
C92 C91 1.398 . S
C92 C96 1.407 . S
C93 C91 1.396 . S
C93 C94 1.394 . S
C94 H89 0.929 . S
C94 C93 1.394 . S
C94 C95 1.382 . S
C95 C94 1.382 . S
C95 C96 1.392 . S
C95 N97 1.420 . S
C96 H90 0.930 . S
C96 C92 1.407 . S
C96 C95 1.392 . S
N97 C95 1.420 . S
N97 C98 1.244 . S
C98 N97 1.244 . S
H99 C102 0.929 . S
H100 C105 0.929 . S
H101 C107 0.930 . S
C102 H99 0.929 . S
C102 C103 1.398 . S
C102 C104 1.396 . S
C103 C102 1.398 . S
C103 C107 1.407 . S
C104 C102 1.396 . S
C104 C105 1.394 1_565 S
C105 H100 0.929 . S
C105 C104 1.394 1_545 S
C105 C106 1.382 1_545 S
C106 C105 1.382 1_565 S
C106 C107 1.392 . S
C106 N108 1.420 1_565 S
C107 H101 0.930 . S
C107 C103 1.407 . S
C107 C106 1.392 . S
N108 C106 1.420 1_545 S
N108 C109 1.244 . S
C109 N108 1.244 . S
H110 C113 0.929 . S
H111 C116 0.929 . S
H112 C118 0.930 . S
C113 H110 0.929 . S
C113 C114 1.398 . S
C113 C115 1.396 . S
C114 C113 1.398 . S
C114 C118 1.407 . S
C115 C113 1.396 . S
C115 C116 1.394 . S
C116 H111 0.929 . S
C116 C115 1.394 . S
C116 C117 1.382 . S
C117 C116 1.382 . S
C117 C118 1.392 . S
C117 N119 1.420 . S
C118 H112 0.930 . S
C118 C114 1.407 . S
C118 C117 1.392 . S
N119 C117 1.420 . S
N119 C120 1.244 . S
C120 N119 1.244 . S
H121 C124 0.929 . S
H122 C127 0.929 . S
H123 C129 0.930 . S
C124 H121 0.929 . S
C124 C125 1.398 . S
C124 C126 1.396 . S
C125 C124 1.398 . S
C125 C129 1.407 . S
C126 C124 1.396 . S
C126 C127 1.394 . S
C127 H122 0.929 . S
C127 C126 1.394 . S
C127 C128 1.382 . S
C128 C127 1.382 . S
C128 C129 1.392 . S
C128 N130 1.420 . S
C129 H123 0.930 . S
C129 C125 1.407 . S
C129 C128 1.392 . S
N130 C128 1.420 . S
N130 C131 1.244 . S
C131 N130 1.244 . S
H132 C135 0.929 . S
H133 C138 0.929 . S
H134 C140 0.930 . S
C135 H132 0.929 . S
C135 C136 1.398 . S
C135 C137 1.396 . S
C136 C135 1.398 . S
C136 C140 1.407 . S
C137 C135 1.396 . S
C137 C138 1.394 . S
C138 H133 0.929 . S
C138 C137 1.394 . S
C138 C139 1.382 . S
C139 C138 1.382 . S
C139 C140 1.392 . S
C139 N141 1.420 . S
C140 H134 0.930 . S
C140 C136 1.407 . S
C140 C139 1.392 . S
N141 C139 1.420 . S
N141 C142 1.244 . S
C142 N141 1.244 . S
H143 C146 0.929 . S
H144 C149 0.929 . S
H145 C151 0.930 . S
C146 H143 0.929 . S
C146 C147 1.398 . S
C146 C148 1.396 . S
C147 C146 1.398 . S
C147 C151 1.407 . S
C148 C146 1.396 . S
C148 C149 1.394 1_556 S
C149 H144 0.929 . S
C149 C148 1.394 1_554 S
C149 C150 1.382 . S
C150 C149 1.382 . S
C150 C151 1.392 1_554 S
C150 N152 1.420 . S
C151 H145 0.930 . S
C151 C147 1.407 . S
C151 C150 1.392 1_556 S
N152 C150 1.420 . S
N152 C153 1.244 . S
C153 N152 1.244 . S
H154 C157 0.929 . S
H155 C160 0.929 . S
H156 C162 0.930 . S
C157 H154 0.929 . S
C157 C158 1.398 . S
C157 C159 1.396 . S
C158 C157 1.398 . S
C158 C162 1.407 . S
C159 C157 1.396 . S
C159 C160 1.394 . S
C160 H155 0.929 . S
C160 C159 1.394 . S
C160 C161 1.382 . S
C161 C160 1.382 . S
C161 C162 1.392 . S
C161 N163 1.420 . S
C162 H156 0.930 . S
C162 C158 1.407 . S
C162 C161 1.392 . S
N163 C161 1.420 . S
N163 C164 1.244 . S
C164 N163 1.244 . S
H165 C168 0.929 . S
H166 C171 0.929 . S
H167 C173 0.930 . S
C168 H165 0.929 . S
C168 C169 1.398 1_554 S
C168 C170 1.396 . S
C169 C168 1.398 1_556 S
C169 C173 1.407 1_545 S
C170 C168 1.396 . S
C170 C171 1.394 1_554 S
C171 H166 0.929 . S
C171 C170 1.394 1_556 S
C171 C172 1.382 . S
C172 C171 1.382 . S
C172 C173 1.392 1_545 S
C172 N174 1.420 . S
C173 H167 0.930 . S
C173 C169 1.407 1_565 S
C173 C172 1.392 1_565 S
N174 C172 1.420 . S
N174 C175 1.244 . S
C175 N174 1.244 . S
Li176 N193 1.990 . S
Li176 O236 1.956 . S
Li176 O237 1.970 . S
Li176 O238 1.961 . S
Li177 N201 1.990 . S
Li177 O236 1.970 . S
Li177 O237 1.956 . S
Li177 O239 1.961 . S
Li178 N223 1.988 1_554 S
Li178 O236 1.962 . S
Li178 O238 1.956 . S
Li178 O239 1.972 . S
Li179 N229 1.990 . S
Li179 O237 1.961 . S
Li179 O238 1.970 . S
Li179 O239 1.956 . S
C180 C182 1.348 . S
C180 C183 1.356 1_554 S
C180 O236 1.325 . S
N181 C184 1.314 . S
N181 C185 1.279 1_554 S
C182 C180 1.348 . S
C182 C184 1.353 . S
C182 H240 0.929 . S
C183 C180 1.356 1_556 S
C183 C185 1.358 . S
C183 H241 0.930 . S
C184 N181 1.314 . S
C184 C182 1.353 . S
C184 H242 0.930 . S
C185 N181 1.279 1_556 S
C185 C183 1.358 . S
C185 H243 0.930 . S
C186 C189 1.348 . S
C186 C190 1.356 . S
C186 O237 1.325 . S
C187 N188 1.282 . S
C187 C190 1.358 . S
C187 H244 0.930 . S
N188 C187 1.282 . S
N188 C191 1.315 . S
C189 C186 1.348 . S
C189 C191 1.353 . S
C189 H245 0.929 . S
C190 C186 1.356 . S
C190 C187 1.358 . S
C190 H246 0.930 . S
C191 N188 1.315 . S
C191 C189 1.353 . S
C191 H247 0.930 1_565 S
C192 N193 1.314 . S
C192 C197 1.353 1_565 S
C192 H198 0.930 . S
N193 Li176 1.990 . S
N193 C192 1.314 . S
N193 C195 1.279 . S
C194 C195 1.358 . S
C194 C196 1.356 . S
C194 H248 0.930 . S
C195 N193 1.279 . S
C195 C194 1.358 . S
C195 H199 0.930 . S
C196 C194 1.356 . S
C196 C197 1.348 1_565 S
C197 C192 1.353 1_545 S
C197 C196 1.348 1_545 S
C197 H249 0.929 . S
H198 C192 0.930 . S
H199 C195 0.930 . S
C200 N201 1.314 . S
C200 C202 1.353 . S
C200 H206 0.930 . S
N201 Li177 1.990 . S
N201 C200 1.314 . S
N201 C204 1.279 . S
C202 C200 1.353 . S
C202 C205 1.348 . S
C202 H250 0.929 . S
C203 C204 1.358 . S
C203 C205 1.356 . S
C203 H251 0.930 . S
C204 N201 1.279 . S
C204 C203 1.358 . S
C204 H207 0.930 . S
C205 C202 1.348 . S
C205 C203 1.356 . S
H206 C200 0.930 . S
H207 C204 0.930 . S
C208 C210 1.348 . S
C208 C211 1.356 . S
C208 O238 1.325 1_556 S
N209 C212 1.314 . S
N209 C213 1.279 . S
C210 C208 1.348 . S
C210 C212 1.353 . S
C210 H252 0.929 . S
C211 C208 1.356 . S
C211 C213 1.358 . S
C211 H253 0.930 . S
C212 N209 1.314 . S
C212 C210 1.353 . S
C212 H254 0.930 . S
C213 N209 1.279 . S
C213 C211 1.358 . S
C213 H255 0.930 . S
C214 C215 1.348 . S
C214 C216 1.356 . S
C214 O239 1.325 . S
C215 C214 1.348 . S
C215 C217 1.353 . S
C215 H256 0.929 1_554 S
C216 C214 1.356 . S
C216 C218 1.358 . S
C216 H257 0.930 . S
C217 C215 1.353 . S
C217 N219 1.314 . S
C217 H258 0.930 . S
C218 C216 1.358 . S
C218 N219 1.279 . S
C218 H259 0.930 . S
N219 C217 1.314 . S
N219 C218 1.279 . S
C220 C222 1.353 . S
C220 N223 1.314 . S
C220 H226 0.930 . S
C221 N223 1.279 . S
C221 C224 1.358 . S
C221 H227 0.930 . S
C222 C220 1.353 . S
C222 C225 1.348 . S
C222 H260 0.929 . S
N223 Li178 1.988 1_556 S
N223 C220 1.314 . S
N223 C221 1.279 . S
C224 C221 1.358 . S
C224 C225 1.356 . S
C224 H261 0.930 . S
C225 C222 1.348 . S
C225 C224 1.356 . S
H226 C220 0.930 . S
H227 C221 0.930 . S
C228 N229 1.314 . S
C228 C230 1.353 1_565 S
C228 H234 0.930 . S
N229 Li179 1.990 . S
N229 C228 1.314 . S
N229 C232 1.279 . S
C230 C228 1.353 1_545 S
C230 C233 1.348 1_545 S
C230 H262 0.929 . S
C231 C232 1.358 . S
C231 C233 1.356 . S
C231 H263 0.930 . S
C232 N229 1.279 . S
C232 C231 1.358 . S
C232 H235 0.930 . S
C233 C230 1.348 1_565 S
C233 C231 1.356 . S
H234 C228 0.930 . S
H235 C232 0.930 . S
O236 Li176 1.956 . S
O236 Li177 1.970 . S
O236 Li178 1.962 . S
O236 C180 1.325 . S
O237 Li176 1.970 . S
O237 Li177 1.956 . S
O237 Li179 1.961 . S
O237 C186 1.325 . S
O238 Li176 1.961 . S
O238 Li178 1.956 . S
O238 Li179 1.970 . S
O238 C208 1.325 1_554 S
O239 Li177 1.961 . S
O239 Li178 1.972 . S
O239 Li179 1.956 . S
O239 C214 1.325 . S
H240 C182 0.929 . S
H241 C183 0.930 . S
H242 C184 0.930 . S
H243 C185 0.930 . S
H244 C187 0.930 . S
H245 C189 0.929 . S
H246 C190 0.930 . S
H247 C191 0.930 1_545 S
H248 C194 0.930 . S
H249 C197 0.929 . S
H250 C202 0.929 . S
H251 C203 0.930 . S
H252 C210 0.929 . S
H253 C211 0.930 . S
H254 C212 0.930 . S
H255 C213 0.930 . S
H256 C215 0.929 1_556 S
H257 C216 0.930 . S
H258 C217 0.930 . S
H259 C218 0.930 . S
H260 C222 0.929 . S
H261 C224 0.930 . S
H262 C230 0.929 . S
H263 C231 0.930 . S
Li264 N281 1.990 . S
Li264 O324 1.956 . S
Li264 O325 1.970 . S
Li264 O326 1.961 . S
Li265 N289 1.990 . S
Li265 O324 1.970 . S
Li265 O325 1.956 . S
Li265 O327 1.961 . S
Li266 N311 1.990 . S
Li266 O324 1.961 . S
Li266 O326 1.956 . S
Li266 O327 1.970 . S
Li267 N317 1.990 . S
Li267 O325 1.961 . S
Li267 O326 1.970 . S
Li267 O327 1.956 . S
C268 C270 1.348 . S
C268 C271 1.356 . S
C268 O324 1.325 . S
N269 C272 1.314 . S
N269 C273 1.279 . S
C270 C268 1.348 . S
C270 C272 1.353 . S
C270 H328 0.929 . S
C271 C268 1.356 . S
C271 C273 1.358 . S
C271 H329 0.930 . S
C272 N269 1.314 . S
C272 C270 1.353 . S
C272 H330 0.930 . S
C273 N269 1.279 . S
C273 C271 1.358 . S
C273 H331 0.930 . S
C274 C277 1.348 . S
C274 C278 1.356 . S
C274 O325 1.325 . S
C275 N276 1.279 . S
C275 C278 1.358 . S
C275 H332 0.930 . S
N276 C275 1.279 . S
N276 C279 1.314 . S
C277 C274 1.348 . S
C277 C279 1.353 . S
C277 H333 0.929 . S
C278 C274 1.356 . S
C278 C275 1.358 . S
C278 H334 0.930 . S
C279 N276 1.314 . S
C279 C277 1.353 . S
C279 H335 0.930 . S
C280 N281 1.314 . S
C280 C285 1.353 . S
C280 H286 0.930 . S
N281 Li264 1.990 . S
N281 C280 1.314 . S
N281 C283 1.279 . S
C282 C283 1.358 . S
C282 C284 1.356 . S
C282 H336 0.930 . S
C283 N281 1.279 . S
C283 C282 1.358 . S
C283 H287 0.930 . S
C284 C282 1.356 . S
C284 C285 1.348 . S
C285 C280 1.353 . S
C285 C284 1.348 . S
C285 H337 0.929 . S
H286 C280 0.930 . S
H287 C283 0.930 . S
C288 N289 1.314 . S
C288 C290 1.353 . S
C288 H294 0.930 . S
N289 Li265 1.990 . S
N289 C288 1.314 . S
N289 C292 1.279 . S
C290 C288 1.353 . S
C290 C293 1.348 . S
C290 H338 0.929 . S
C291 C292 1.358 . S
C291 C293 1.356 . S
C291 H339 0.930 . S
C292 N289 1.279 . S
C292 C291 1.358 . S
C292 H295 0.930 . S
C293 C290 1.348 . S
C293 C291 1.356 . S
H294 C288 0.930 . S
H295 C292 0.930 . S
C296 C298 1.348 . S
C296 C299 1.356 . S
C296 O326 1.325 . S
N297 C300 1.314 . S
N297 C301 1.279 . S
C298 C296 1.348 . S
C298 C300 1.353 . S
C298 H340 0.929 . S
C299 C296 1.356 . S
C299 C301 1.358 . S
C299 H341 0.930 . S
C300 N297 1.314 . S
C300 C298 1.353 . S
C300 H342 0.930 . S
C301 N297 1.279 . S
C301 C299 1.358 . S
C301 H343 0.930 . S
C302 C303 1.348 . S
C302 C304 1.356 . S
C302 O327 1.325 . S
C303 C302 1.348 . S
C303 C305 1.353 . S
C303 H344 0.929 . S
C304 C302 1.356 . S
C304 C306 1.358 . S
C304 H345 0.930 . S
C305 C303 1.353 . S
C305 N307 1.314 . S
C305 H346 0.930 . S
C306 C304 1.358 . S
C306 N307 1.279 . S
C306 H347 0.930 . S
N307 C305 1.314 . S
N307 C306 1.279 . S
C308 C310 1.353 . S
C308 N311 1.314 . S
C308 H314 0.930 . S
C309 N311 1.279 . S
C309 C312 1.358 . S
C309 H315 0.930 . S
C310 C308 1.353 . S
C310 C313 1.348 . S
C310 H348 0.929 . S
N311 Li266 1.990 . S
N311 C308 1.314 . S
N311 C309 1.279 . S
C312 C309 1.358 . S
C312 C313 1.356 . S
C312 H349 0.930 . S
C313 C310 1.348 . S
C313 C312 1.356 . S
H314 C308 0.930 . S
H315 C309 0.930 . S
C316 N317 1.314 . S
C316 C318 1.353 . S
C316 H322 0.930 . S
N317 Li267 1.990 . S
N317 C316 1.314 . S
N317 C320 1.279 . S
C318 C316 1.353 . S
C318 C321 1.348 . S
C318 H350 0.929 . S
C319 C320 1.358 . S
C319 C321 1.356 . S
C319 H351 0.930 . S
C320 N317 1.279 . S
C320 C319 1.358 . S
C320 H323 0.930 . S
C321 C318 1.348 . S
C321 C319 1.356 . S
H322 C316 0.930 . S
H323 C320 0.930 . S
O324 Li264 1.956 . S
O324 Li265 1.970 . S
O324 Li266 1.961 . S
O324 C268 1.325 . S
O325 Li264 1.970 . S
O325 Li265 1.956 . S
O325 Li267 1.961 . S
O325 C274 1.325 . S
O326 Li264 1.961 . S
O326 Li266 1.956 . S
O326 Li267 1.970 . S
O326 C296 1.325 . S
O327 Li265 1.961 . S
O327 Li266 1.970 . S
O327 Li267 1.956 . S
O327 C302 1.325 . S
H328 C270 0.929 . S
H329 C271 0.930 . S
H330 C272 0.930 . S
H331 C273 0.930 . S
H332 C275 0.930 . S
H333 C277 0.929 . S
H334 C278 0.930 . S
H335 C279 0.930 . S
H336 C282 0.930 . S
H337 C285 0.929 . S
H338 C290 0.929 . S
H339 C291 0.930 . S
H340 C298 0.929 . S
H341 C299 0.930 . S
H342 C300 0.930 . S
H343 C301 0.930 . S
H344 C303 0.929 . S
H345 C304 0.930 . S
H346 C305 0.930 . S
H347 C306 0.930 . S
H348 C310 0.929 . S
H349 C312 0.930 . S
H350 C318 0.929 . S
H351 C319 0.930 . S
Li352 N369 1.990 . S
Li352 O412 1.956 1_556 S
Li352 O413 1.970 1_556 S
Li352 O414 1.961 . S
Li353 N377 1.990 . S
Li353 O412 1.969 . S
Li353 O413 1.956 . S
Li353 O415 1.961 . S
Li354 N399 1.990 . S
Li354 O412 1.962 1_556 S
Li354 O414 1.956 . S
Li354 O415 1.970 1_556 S
Li355 N405 1.990 . S
Li355 O413 1.961 . S
Li355 O414 1.970 1_554 S
Li355 O415 1.956 . S
C356 C358 1.348 1_556 S
C356 C359 1.356 . S
C356 O412 1.325 1_556 S
N357 C360 1.314 1_556 S
N357 C361 1.279 . S
C358 C356 1.348 1_554 S
C358 C360 1.353 . S
C358 H416 0.929 . S
C359 C356 1.356 . S
C359 C361 1.358 . S
C359 H417 0.930 . S
C360 N357 1.314 1_554 S
C360 C358 1.353 . S
C360 H418 0.930 . S
C361 N357 1.279 . S
C361 C359 1.358 . S
C361 H419 0.930 . S
C362 C365 1.348 . S
C362 C366 1.356 . S
C362 O413 1.325 . S
C363 N364 1.279 . S
C363 C366 1.358 . S
C363 H420 0.930 . S
N364 C363 1.279 . S
N364 C367 1.314 . S
C365 C362 1.348 . S
C365 C367 1.353 . S
C365 H421 0.929 . S
C366 C362 1.356 . S
C366 C363 1.358 . S
C366 H422 0.930 . S
C367 N364 1.314 . S
C367 C365 1.353 . S
C367 H423 0.930 . S
C368 N369 1.314 . S
C368 C373 1.353 . S
C368 H374 0.930 . S
N369 Li352 1.990 . S
N369 C368 1.314 . S
N369 C371 1.279 . S
C370 C371 1.358 . S
C370 C372 1.356 . S
C370 H424 0.930 . S
C371 N369 1.279 . S
C371 C370 1.358 . S
C371 H375 0.928 1_556 S
C372 C370 1.356 . S
C372 C373 1.348 . S
C373 C368 1.353 . S
C373 C372 1.348 . S
C373 H425 0.929 . S
H374 C368 0.930 . S
H375 C371 0.928 1_554 S
C376 N377 1.314 . S
C376 C378 1.353 . S
C376 H382 0.930 . S
N377 Li353 1.990 . S
N377 C376 1.314 . S
N377 C380 1.279 . S
C378 C376 1.353 . S
C378 C381 1.348 . S
C378 H426 0.929 . S
C379 C380 1.358 . S
C379 C381 1.356 . S
C379 H427 0.930 . S
C380 N377 1.279 . S
C380 C379 1.358 . S
C380 H383 0.930 . S
C381 C378 1.348 . S
C381 C379 1.356 . S
H382 C376 0.930 . S
H383 C380 0.930 . S
C384 C386 1.348 . S
C384 C387 1.356 . S
C384 O414 1.325 . S
N385 C388 1.314 . S
N385 C389 1.279 . S
C386 C384 1.348 . S
C386 C388 1.353 . S
C386 H428 0.929 . S
C387 C384 1.356 . S
C387 C389 1.358 . S
C387 H429 0.930 . S
C388 N385 1.314 . S
C388 C386 1.353 . S
C388 H430 0.930 . S
C389 N385 1.279 . S
C389 C387 1.358 . S
C389 H431 0.930 . S
C390 C391 1.348 1_554 S
C390 C392 1.356 . S
C390 O415 1.325 . S
C391 C390 1.348 1_556 S
C391 C393 1.353 . S
C391 H432 0.929 . S
C392 C390 1.356 . S
C392 C394 1.358 . S
C392 H433 0.930 . S
C393 C391 1.353 . S
C393 N395 1.314 1_556 S
C393 H434 0.930 . S
C394 C392 1.358 . S
C394 N395 1.279 . S
C394 H435 0.930 . S
N395 C393 1.314 1_554 S
N395 C394 1.279 . S
C396 C398 1.353 . S
C396 N399 1.314 . S
C396 H402 0.930 . S
C397 N399 1.279 . S
C397 C400 1.358 . S
C397 H403 0.930 . S
C398 C396 1.353 . S
C398 C401 1.348 . S
C398 H436 0.929 . S
N399 Li354 1.990 . S
N399 C396 1.314 . S
N399 C397 1.279 . S
C400 C397 1.358 . S
C400 C401 1.356 . S
C400 H437 0.930 . S
C401 C398 1.348 . S
C401 C400 1.356 . S
H402 C396 0.930 . S
H403 C397 0.930 . S
C404 N405 1.314 . S
C404 C406 1.353 . S
C404 H410 0.930 . S
N405 Li355 1.990 . S
N405 C404 1.314 . S
N405 C408 1.279 . S
C406 C404 1.353 . S
C406 C409 1.348 . S
C406 H438 0.929 . S
C407 C408 1.358 . S
C407 C409 1.356 . S
C407 H439 0.930 . S
C408 N405 1.279 . S
C408 C407 1.358 . S
C408 H411 0.930 . S
C409 C406 1.348 . S
C409 C407 1.356 . S
H410 C404 0.930 . S
H411 C408 0.930 . S
O412 Li352 1.956 1_554 S
O412 Li353 1.969 . S
O412 Li354 1.962 1_554 S
O412 C356 1.325 1_554 S
O413 Li352 1.970 1_554 S
O413 Li353 1.956 . S
O413 Li355 1.961 . S
O413 C362 1.325 . S
O414 Li352 1.961 . S
O414 Li354 1.956 . S
O414 Li355 1.970 1_556 S
O414 C384 1.325 . S
O415 Li353 1.961 . S
O415 Li354 1.970 1_554 S
O415 Li355 1.956 . S
O415 C390 1.325 . S
H416 C358 0.929 . S
H417 C359 0.930 . S
H418 C360 0.930 . S
H419 C361 0.930 . S
H420 C363 0.930 . S
H421 C365 0.929 . S
H422 C366 0.930 . S
H423 C367 0.930 . S
H424 C370 0.930 . S
H425 C373 0.929 . S
H426 C378 0.929 . S
H427 C379 0.930 . S
H428 C386 0.929 . S
H429 C387 0.930 . S
H430 C388 0.930 . S
H431 C389 0.930 . S
H432 C391 0.929 . S
H433 C392 0.930 . S
H434 C393 0.930 . S
H435 C394 0.930 . S
H436 C398 0.929 . S
H437 C400 0.930 . S
H438 C406 0.929 . S
H439 C407 0.930 . S
Li440 N457 1.990 . S
Li440 O500 1.956 . S
Li440 O501 1.970 . S
Li440 O502 1.961 . S
Li441 N465 1.990 . S
Li441 O500 1.970 . S
Li441 O501 1.956 . S
Li441 O503 1.961 1_545 S
Li442 N487 1.990 . S
Li442 O500 1.961 . S
Li442 O502 1.956 . S
Li442 O503 1.970 1_545 S
Li443 N493 1.990 . S
Li443 O501 1.961 1_565 S
Li443 O502 1.970 1_565 S
Li443 O503 1.956 . S
C444 C446 1.348 . S
C444 C447 1.356 . S
C444 O500 1.325 . S
N445 C448 1.314 . S
N445 C449 1.279 . S
C446 C444 1.348 . S
C446 C448 1.353 1_655 S
C446 H504 0.929 . S
C447 C444 1.356 . S
C447 C449 1.358 1_655 S
C447 H505 0.930 . S
C448 N445 1.314 . S
C448 C446 1.353 1_455 S
C448 H506 0.930 . S
C449 N445 1.279 . S
C449 C447 1.358 1_455 S
C449 H507 0.930 . S
C450 C453 1.348 . S
C450 C454 1.356 1_545 S
C450 O501 1.325 . S
C451 N452 1.261 1_565 S
C451 C454 1.358 . S
C451 H508 0.930 . S
N452 C451 1.261 1_545 S
N452 C455 1.339 . S
C453 C450 1.348 . S
C453 C455 1.353 . S
C453 H509 0.929 . S
C454 C450 1.356 1_565 S
C454 C451 1.358 . S
C454 H510 0.930 . S
C455 N452 1.339 . S
C455 C453 1.353 . S
C455 H511 0.930 . S
C456 N457 1.314 . S
C456 C461 1.353 . S
C456 H462 0.930 . S
N457 Li440 1.990 . S
N457 C456 1.314 . S
N457 C459 1.279 . S
C458 C459 1.358 . S
C458 C460 1.356 . S
C458 H512 0.930 . S
C459 N457 1.279 . S
C459 C458 1.358 . S
C459 H463 0.930 . S
C460 C458 1.356 . S
C460 C461 1.348 . S
C461 C456 1.353 . S
C461 C460 1.348 . S
C461 H513 0.929 . S
H462 C456 0.930 . S
H463 C459 0.930 . S
C464 N465 1.314 1_455 S
C464 C466 1.353 . S
C464 H470 0.930 . S
N465 Li441 1.990 . S
N465 C464 1.314 1_655 S
N465 C468 1.279 . S
C466 C464 1.353 . S
C466 C469 1.348 . S
C466 H514 0.929 . S
C467 C468 1.358 . S
C467 C469 1.356 1_655 S
C467 H515 0.930 . S
C468 N465 1.279 . S
C468 C467 1.358 . S
C468 H471 0.930 . S
C469 C466 1.348 . S
C469 C467 1.356 1_455 S
H470 C464 0.930 . S
H471 C468 0.930 . S
C472 C474 1.348 1_545 S
C472 C475 1.356 . S
C472 O502 1.325 . S
N473 C476 1.314 1_545 S
N473 C477 1.279 . S
C474 C472 1.348 1_565 S
C474 C476 1.353 . S
C474 H516 0.929 . S
C475 C472 1.356 . S
C475 C477 1.358 . S
C475 H517 0.930 . S
C476 N473 1.314 1_565 S
C476 C474 1.353 . S
C476 H518 0.930 . S
C477 N473 1.279 . S
C477 C475 1.358 . S
C477 H519 0.930 . S
C478 C479 1.348 . S
C478 C480 1.356 . S
C478 O503 1.325 . S
C479 C478 1.348 . S
C479 C481 1.353 1_655 S
C479 H520 0.929 . S
C480 C478 1.356 . S
C480 C482 1.358 . S
C480 H521 0.930 . S
C481 C479 1.353 1_455 S
C481 N483 1.314 . S
C481 H522 0.930 . S
C482 C480 1.358 . S
C482 N483 1.279 1_655 S
C482 H523 0.930 . S
N483 C481 1.314 . S
N483 C482 1.279 1_455 S
C484 C486 1.353 . S
C484 N487 1.314 1_455 S
C484 H490 0.930 . S
C485 N487 1.279 . S
C485 C488 1.358 . S
C485 H491 0.930 . S
C486 C484 1.353 . S
C486 C489 1.348 . S
C486 H524 0.929 . S
N487 Li442 1.990 . S
N487 C484 1.314 1_655 S
N487 C485 1.279 . S
C488 C485 1.358 . S
C488 C489 1.356 1_655 S
C488 H525 0.930 . S
C489 C486 1.348 . S
C489 C488 1.356 1_455 S
H490 C484 0.930 . S
H491 C485 0.930 . S
C492 N493 1.314 . S
C492 C494 1.353 . S
C492 H498 0.930 . S
N493 Li443 1.990 . S
N493 C492 1.314 . S
N493 C496 1.279 . S
C494 C492 1.353 . S
C494 C497 1.348 . S
C494 H526 0.929 . S
C495 C496 1.358 . S
C495 C497 1.356 . S
C495 H527 0.930 . S
C496 N493 1.279 . S
C496 C495 1.358 . S
C496 H499 0.930 . S
C497 C494 1.348 . S
C497 C495 1.356 . S
H498 C492 0.930 . S
H499 C496 0.930 . S
O500 Li440 1.956 . S
O500 Li441 1.970 . S
O500 Li442 1.961 . S
O500 C444 1.325 . S
O501 Li440 1.970 . S
O501 Li441 1.956 . S
O501 Li443 1.961 1_545 S
O501 C450 1.325 . S
O502 Li440 1.961 . S
O502 Li442 1.956 . S
O502 Li443 1.970 1_545 S
O502 C472 1.325 . S
O503 Li441 1.961 1_565 S
O503 Li442 1.970 1_565 S
O503 Li443 1.956 . S
O503 C478 1.325 . S
H504 C446 0.929 . S
H505 C447 0.930 . S
H506 C448 0.930 . S
H507 C449 0.930 . S
H508 C451 0.930 . S
H509 C453 0.929 . S
H510 C454 0.930 . S
H511 C455 0.930 . S
H512 C458 0.930 . S
H513 C461 0.929 . S
H514 C466 0.929 . S
H515 C467 0.930 . S
H516 C474 0.929 . S
H517 C475 0.930 . S
H518 C476 0.930 . S
H519 C477 0.930 . S
H520 C479 0.929 . S
H521 C480 0.930 . S
H522 C481 0.930 . S
H523 C482 0.930 . S
H524 C486 0.929 . S
H525 C488 0.930 . S
H526 C494 0.929 . S
H527 C495 0.930 . S
Li528 N545 1.990 . S
Li528 O588 1.956 . S
Li528 O589 1.970 . S
Li528 O590 1.961 . S
Li529 N553 1.990 . S
Li529 O588 1.970 . S
Li529 O589 1.956 . S
Li529 O591 1.961 . S
Li530 N575 1.990 . S
Li530 O588 1.961 . S
Li530 O590 1.956 . S
Li530 O591 1.970 . S
Li531 N581 1.990 . S
Li531 O589 1.961 . S
Li531 O590 1.970 . S
Li531 O591 1.956 . S
C532 C534 1.348 . S
C532 C535 1.356 . S
C532 O588 1.325 . S
N533 C536 1.314 . S
N533 C537 1.279 . S
C534 C532 1.348 . S
C534 C536 1.353 . S
C534 H592 0.929 . S
C535 C532 1.356 . S
C535 C537 1.358 . S
C535 H593 0.930 . S
C536 N533 1.314 . S
C536 C534 1.353 . S
C536 H594 0.930 . S
C537 N533 1.279 . S
C537 C535 1.358 . S
C537 H595 0.930 . S
C538 C541 1.348 . S
C538 C542 1.356 . S
C538 O589 1.325 . S
C539 N540 1.279 . S
C539 C542 1.358 . S
C539 H596 0.930 . S
N540 C539 1.279 . S
N540 C543 1.314 . S
C541 C538 1.348 . S
C541 C543 1.353 . S
C541 H597 0.929 . S
C542 C538 1.356 . S
C542 C539 1.358 . S
C542 H598 0.930 . S
C543 N540 1.314 . S
C543 C541 1.353 . S
C543 H599 0.930 . S
C544 N545 1.314 . S
C544 C549 1.353 . S
C544 H550 0.930 . S
N545 Li528 1.990 . S
N545 C544 1.314 . S
N545 C547 1.279 . S
C546 C547 1.358 . S
C546 C548 1.356 . S
C546 H600 0.930 . S
C547 N545 1.279 . S
C547 C546 1.358 . S
C547 H551 0.930 . S
C548 C546 1.356 . S
C548 C549 1.348 . S
C549 C544 1.353 . S
C549 C548 1.348 . S
C549 H601 0.929 . S
H550 C544 0.930 . S
H551 C547 0.930 . S
C552 N553 1.314 . S
C552 C554 1.353 . S
C552 H558 0.930 . S
N553 Li529 1.990 . S
N553 C552 1.314 . S
N553 C556 1.279 . S
C554 C552 1.353 . S
C554 C557 1.348 . S
C554 H602 0.929 . S
C555 C556 1.358 . S
C555 C557 1.356 . S
C555 H603 0.930 . S
C556 N553 1.279 . S
C556 C555 1.358 . S
C556 H559 0.930 . S
C557 C554 1.348 . S
C557 C555 1.356 . S
H558 C552 0.930 . S
H559 C556 0.930 . S
C560 C562 1.348 . S
C560 C563 1.356 . S
C560 O590 1.325 . S
N561 C564 1.314 . S
N561 C565 1.279 . S
C562 C560 1.348 . S
C562 C564 1.353 . S
C562 H604 0.929 . S
C563 C560 1.356 . S
C563 C565 1.358 . S
C563 H605 0.930 . S
C564 N561 1.314 . S
C564 C562 1.353 . S
C564 H606 0.930 . S
C565 N561 1.279 . S
C565 C563 1.358 . S
C565 H607 0.930 . S
C566 C567 1.348 . S
C566 C568 1.356 . S
C566 O591 1.325 . S
C567 C566 1.348 . S
C567 C569 1.353 . S
C567 H608 0.929 . S
C568 C566 1.356 . S
C568 C570 1.358 . S
C568 H609 0.930 . S
C569 C567 1.353 . S
C569 N571 1.314 . S
C569 H610 0.930 . S
C570 C568 1.358 . S
C570 N571 1.279 . S
C570 H611 0.930 . S
N571 C569 1.314 . S
N571 C570 1.279 . S
C572 C574 1.353 . S
C572 N575 1.314 . S
C572 H578 0.930 . S
C573 N575 1.279 . S
C573 C576 1.358 . S
C573 H579 0.930 . S
C574 C572 1.353 . S
C574 C577 1.348 . S
C574 H612 0.929 . S
N575 Li530 1.990 . S
N575 C572 1.314 . S
N575 C573 1.279 . S
C576 C573 1.358 . S
C576 C577 1.356 . S
C576 H613 0.930 . S
C577 C574 1.348 . S
C577 C576 1.356 . S
H578 C572 0.930 . S
H579 C573 0.930 . S
C580 N581 1.314 . S
C580 C582 1.353 . S
C580 H586 0.930 . S
N581 Li531 1.990 . S
N581 C580 1.314 . S
N581 C584 1.279 . S
C582 C580 1.353 . S
C582 C585 1.348 . S
C582 H614 0.929 . S
C583 C584 1.358 . S
C583 C585 1.356 . S
C583 H615 0.930 . S
C584 N581 1.279 . S
C584 C583 1.358 . S
C584 H587 0.930 . S
C585 C582 1.348 . S
C585 C583 1.356 . S
H586 C580 0.930 . S
H587 C584 0.930 . S
O588 Li528 1.956 . S
O588 Li529 1.970 . S
O588 Li530 1.961 . S
O588 C532 1.325 . S
O589 Li528 1.970 . S
O589 Li529 1.956 . S
O589 Li531 1.961 . S
O589 C538 1.325 . S
O590 Li528 1.961 . S
O590 Li530 1.956 . S
O590 Li531 1.970 . S
O590 C560 1.325 . S
O591 Li529 1.961 . S
O591 Li530 1.970 . S
O591 Li531 1.956 . S
O591 C566 1.325 . S
H592 C534 0.929 . S
H593 C535 0.930 . S
H594 C536 0.930 . S
H595 C537 0.930 . S
H596 C539 0.930 . S
H597 C541 0.929 . S
H598 C542 0.930 . S
H599 C543 0.930 . S
H600 C546 0.930 . S
H601 C549 0.929 . S
H602 C554 0.929 . S
H603 C555 0.930 . S
H604 C562 0.929 . S
H605 C563 0.930 . S
H606 C564 0.930 . S
H607 C565 0.930 . S
H608 C567 0.929 . S
H609 C568 0.930 . S
H610 C569 0.930 . S
H611 C570 0.930 . S
H612 C574 0.929 . S
H613 C576 0.930 . S
H614 C582 0.929 . S
H615 C583 0.930 . S
Li616 N633 1.990 . S
Li616 O676 1.956 . S
Li616 O677 1.970 . S
Li616 O678 1.961 . S
Li617 N641 1.990 . S
Li617 O676 1.970 . S
Li617 O677 1.956 . S
Li617 O679 1.961 . S
Li618 N663 1.990 . S
Li618 O676 1.961 . S
Li618 O678 1.956 . S
Li618 O679 1.970 . S
Li619 N669 1.990 . S
Li619 O677 1.961 . S
Li619 O678 1.970 . S
Li619 O679 1.956 . S
C620 C622 1.348 . S
C620 C623 1.356 . S
C620 O676 1.325 . S
N621 C624 1.314 . S
N621 C625 1.279 . S
C622 C620 1.348 . S
C622 C624 1.353 . S
C622 H680 0.929 . S
C623 C620 1.356 . S
C623 C625 1.358 . S
C623 H681 0.930 . S
C624 N621 1.314 . S
C624 C622 1.353 . S
C624 H682 0.930 . S
C625 N621 1.279 . S
C625 C623 1.358 . S
C625 H683 0.930 . S
C626 C629 1.348 . S
C626 C630 1.356 . S
C626 O677 1.325 . S
C627 N628 1.279 . S
C627 C630 1.358 . S
C627 H684 0.930 . S
N628 C627 1.279 . S
N628 C631 1.314 . S
C629 C626 1.348 . S
C629 C631 1.353 . S
C629 H685 0.929 . S
C630 C626 1.356 . S
C630 C627 1.358 . S
C630 H686 0.930 . S
C631 N628 1.314 . S
C631 C629 1.353 . S
C631 H687 0.930 . S
C632 N633 1.314 . S
C632 C637 1.353 . S
C632 H638 0.930 . S
N633 Li616 1.990 . S
N633 C632 1.314 . S
N633 C635 1.279 . S
C634 C635 1.358 . S
C634 C636 1.356 . S
C634 H688 0.930 . S
C635 N633 1.279 . S
C635 C634 1.358 . S
C635 H639 0.930 . S
C636 C634 1.356 . S
C636 C637 1.348 . S
C637 C632 1.353 . S
C637 C636 1.348 . S
C637 H689 0.929 . S
H638 C632 0.930 . S
H639 C635 0.930 . S
C640 N641 1.314 . S
C640 C642 1.353 . S
C640 H646 0.930 . S
N641 Li617 1.990 . S
N641 C640 1.314 . S
N641 C644 1.279 . S
C642 C640 1.353 . S
C642 C645 1.348 . S
C642 H690 0.929 . S
C643 C644 1.358 . S
C643 C645 1.356 . S
C643 H691 0.930 . S
C644 N641 1.279 . S
C644 C643 1.358 . S
C644 H647 0.930 . S
C645 C642 1.348 . S
C645 C643 1.356 . S
H646 C640 0.930 . S
H647 C644 0.930 . S
C648 C650 1.348 . S
C648 C651 1.356 . S
C648 O678 1.325 . S
N649 C652 1.314 . S
N649 C653 1.279 . S
C650 C648 1.348 . S
C650 C652 1.353 . S
C650 H692 0.929 . S
C651 C648 1.356 . S
C651 C653 1.358 . S
C651 H693 0.930 . S
C652 N649 1.314 . S
C652 C650 1.353 . S
C652 H694 0.930 . S
C653 N649 1.279 . S
C653 C651 1.358 . S
C653 H695 0.930 . S
C654 C655 1.348 . S
C654 C656 1.356 . S
C654 O679 1.325 . S
C655 C654 1.348 . S
C655 C657 1.353 . S
C655 H696 0.929 . S
C656 C654 1.356 . S
C656 C658 1.358 . S
C656 H697 0.930 . S
C657 C655 1.353 . S
C657 N659 1.314 . S
C657 H698 0.930 . S
C658 C656 1.358 . S
C658 N659 1.279 . S
C658 H699 0.930 . S
N659 C657 1.314 . S
N659 C658 1.279 . S
C660 C662 1.353 . S
C660 N663 1.314 . S
C660 H666 0.930 . S
C661 N663 1.279 . S
C661 C664 1.358 . S
C661 H667 0.930 . S
C662 C660 1.353 . S
C662 C665 1.348 . S
C662 H700 0.929 . S
N663 Li618 1.990 . S
N663 C660 1.314 . S
N663 C661 1.279 . S
C664 C661 1.358 . S
C664 C665 1.356 . S
C664 H701 0.930 . S
C665 C662 1.348 . S
C665 C664 1.356 . S
H666 C660 0.930 . S
H667 C661 0.930 . S
C668 N669 1.314 . S
C668 C670 1.353 . S
C668 H674 0.930 . S
N669 Li619 1.990 . S
N669 C668 1.314 . S
N669 C672 1.279 . S
C670 C668 1.353 . S
C670 C673 1.348 . S
C670 H702 0.929 . S
C671 C672 1.358 . S
C671 C673 1.356 . S
C671 H703 0.930 . S
C672 N669 1.279 . S
C672 C671 1.358 . S
C672 H675 0.930 . S
C673 C670 1.348 . S
C673 C671 1.356 . S
H674 C668 0.930 . S
H675 C672 0.930 . S
O676 Li616 1.956 . S
O676 Li617 1.970 . S
O676 Li618 1.961 . S
O676 C620 1.325 . S
O677 Li616 1.970 . S
O677 Li617 1.956 . S
O677 Li619 1.961 . S
O677 C626 1.325 . S
O678 Li616 1.961 . S
O678 Li618 1.956 . S
O678 Li619 1.970 . S
O678 C648 1.325 . S
O679 Li617 1.961 . S
O679 Li618 1.970 . S
O679 Li619 1.956 . S
O679 C654 1.325 . S
H680 C622 0.929 . S
H681 C623 0.930 . S
H682 C624 0.930 . S
H683 C625 0.930 . S
H684 C627 0.930 . S
H685 C629 0.929 . S
H686 C630 0.930 . S
H687 C631 0.930 . S
H688 C634 0.930 . S
H689 C637 0.929 . S
H690 C642 0.929 . S
H691 C643 0.930 . S
H692 C650 0.929 . S
H693 C651 0.930 . S
H694 C652 0.930 . S
H695 C653 0.930 . S
H696 C655 0.929 . S
H697 C656 0.930 . S
H698 C657 0.930 . S
H699 C658 0.930 . S
H700 C662 0.929 . S
H701 C664 0.930 . S
H702 C670 0.929 . S
H703 C671 0.930 . S
Li704 N721 1.990 . S
Li704 O764 1.956 . S
Li704 O765 1.970 . S
Li704 O766 1.961 . S
Li705 N729 1.990 . S
Li705 O764 1.970 . S
Li705 O765 1.956 . S
Li705 O767 1.961 . S
Li706 N751 1.990 . S
Li706 O764 1.961 . S
Li706 O766 1.956 . S
Li706 O767 1.970 . S
Li707 N757 1.990 . S
Li707 O765 1.961 . S
Li707 O766 1.970 . S
Li707 O767 1.956 . S
C708 C710 1.348 . S
C708 C711 1.356 . S
C708 O764 1.325 . S
N709 C712 1.314 . S
N709 C713 1.279 . S
C710 C708 1.348 . S
C710 C712 1.353 . S
C710 H768 0.929 . S
C711 C708 1.356 . S
C711 C713 1.358 . S
C711 H769 0.930 . S
C712 N709 1.314 . S
C712 C710 1.353 . S
C712 H770 0.930 . S
C713 N709 1.279 . S
C713 C711 1.358 . S
C713 H771 0.930 . S
C714 C717 1.348 . S
C714 C718 1.356 . S
C714 O765 1.325 . S
C715 N716 1.279 . S
C715 C718 1.358 . S
C715 H772 0.930 . S
N716 C715 1.279 . S
N716 C719 1.314 . S
C717 C714 1.348 . S
C717 C719 1.353 . S
C717 H773 0.929 . S
C718 C714 1.356 . S
C718 C715 1.358 . S
C718 H774 0.930 . S
C719 N716 1.314 . S
C719 C717 1.353 . S
C719 H775 0.930 . S
C720 N721 1.314 . S
C720 C725 1.353 . S
C720 H726 0.930 . S
N721 Li704 1.990 . S
N721 C720 1.314 . S
N721 C723 1.279 . S
C722 C723 1.358 . S
C722 C724 1.356 . S
C722 H776 0.930 . S
C723 N721 1.279 . S
C723 C722 1.358 . S
C723 H727 0.930 . S
C724 C722 1.356 . S
C724 C725 1.348 . S
C725 C720 1.353 . S
C725 C724 1.348 . S
C725 H777 0.929 . S
H726 C720 0.930 . S
H727 C723 0.930 . S
C728 N729 1.314 . S
C728 C730 1.353 . S
C728 H734 0.930 . S
N729 Li705 1.990 . S
N729 C728 1.314 . S
N729 C732 1.279 . S
C730 C728 1.353 . S
C730 C733 1.348 . S
C730 H778 0.929 . S
C731 C732 1.358 . S
C731 C733 1.356 . S
C731 H779 0.930 . S
C732 N729 1.279 . S
C732 C731 1.358 . S
C732 H735 0.930 . S
C733 C730 1.348 . S
C733 C731 1.356 . S
H734 C728 0.930 . S
H735 C732 0.930 . S
C736 C738 1.348 . S
C736 C739 1.356 . S
C736 O766 1.325 . S
N737 C740 1.314 . S
N737 C741 1.279 . S
C738 C736 1.348 . S
C738 C740 1.353 . S
C738 H780 0.929 . S
C739 C736 1.356 . S
C739 C741 1.358 . S
C739 H781 0.930 . S
C740 N737 1.314 . S
C740 C738 1.353 . S
C740 H782 0.930 . S
C741 N737 1.279 . S
C741 C739 1.358 . S
C741 H783 0.930 . S
C742 C743 1.348 . S
C742 C744 1.356 . S
C742 O767 1.325 . S
C743 C742 1.348 . S
C743 C745 1.353 . S
C743 H784 0.929 . S
C744 C742 1.356 . S
C744 C746 1.358 . S
C744 H785 0.930 . S
C745 C743 1.353 . S
C745 N747 1.314 . S
C745 H786 0.930 . S
C746 C744 1.358 . S
C746 N747 1.279 . S
C746 H787 0.930 . S
N747 C745 1.314 . S
N747 C746 1.279 . S
C748 C750 1.353 . S
C748 N751 1.314 . S
C748 H754 0.930 . S
C749 N751 1.279 . S
C749 C752 1.358 . S
C749 H755 0.930 . S
C750 C748 1.353 . S
C750 C753 1.348 . S
C750 H788 0.929 . S
N751 Li706 1.990 . S
N751 C748 1.314 . S
N751 C749 1.279 . S
C752 C749 1.358 . S
C752 C753 1.356 . S
C752 H789 0.930 . S
C753 C750 1.348 . S
C753 C752 1.356 . S
H754 C748 0.930 . S
H755 C749 0.930 . S
C756 N757 1.314 . S
C756 C758 1.353 . S
C756 H762 0.930 . S
N757 Li707 1.990 . S
N757 C756 1.314 . S
N757 C760 1.279 . S
C758 C756 1.353 . S
C758 C761 1.348 . S
C758 H790 0.929 . S
C759 C760 1.358 . S
C759 C761 1.356 . S
C759 H791 0.930 . S
C760 N757 1.279 . S
C760 C759 1.358 . S
C760 H763 0.930 . S
C761 C758 1.348 . S
C761 C759 1.356 . S
H762 C756 0.930 . S
H763 C760 0.930 . S
O764 Li704 1.956 . S
O764 Li705 1.970 . S
O764 Li706 1.961 . S
O764 C708 1.325 . S
O765 Li704 1.970 . S
O765 Li705 1.956 . S
O765 Li707 1.961 . S
O765 C714 1.325 . S
O766 Li704 1.961 . S
O766 Li706 1.956 . S
O766 Li707 1.970 . S
O766 C736 1.325 . S
O767 Li705 1.961 . S
O767 Li706 1.970 . S
O767 Li707 1.956 . S
O767 C742 1.325 . S
H768 C710 0.929 . S
H769 C711 0.930 . S
H770 C712 0.930 . S
H771 C713 0.930 . S
H772 C715 0.930 . S
H773 C717 0.929 . S
H774 C718 0.930 . S
H775 C719 0.930 . S
H776 C722 0.930 . S
H777 C725 0.929 . S
H778 C730 0.929 . S
H779 C731 0.930 . S
H780 C738 0.929 . S
H781 C739 0.930 . S
H782 C740 0.930 . S
H783 C741 0.930 . S
H784 C743 0.929 . S
H785 C744 0.930 . S
H786 C745 0.930 . S
H787 C746 0.930 . S
H788 C750 0.929 . S
H789 C752 0.930 . S
H790 C758 0.929 . S
H791 C759 0.930 . S
Li792 N809 1.990 . S
Li792 O852 1.956 . S
Li792 O853 1.970 1_565 S
Li792 O854 1.961 . S
Li793 N817 1.990 . S
Li793 O852 1.970 1_545 S
Li793 O853 1.956 . S
Li793 O855 1.961 . S
Li794 N839 1.990 . S
Li794 O852 1.961 . S
Li794 O854 1.956 . S
Li794 O855 1.970 1_565 S
Li795 N845 1.990 . S
Li795 O853 1.961 . S
Li795 O854 1.970 1_545 S
Li795 O855 1.956 . S
C796 C798 1.348 . S
C796 C799 1.356 . S
C796 O852 1.325 . S
N797 C800 1.314 . S
N797 C801 1.279 . S
C798 C796 1.348 . S
C798 C800 1.353 . S
C798 H856 0.929 . S
C799 C796 1.356 . S
C799 C801 1.358 . S
C799 H857 0.930 . S
C800 N797 1.314 . S
C800 C798 1.353 . S
C800 H858 0.930 . S
C801 N797 1.279 . S
C801 C799 1.358 . S
C801 H859 0.930 . S
C802 C805 1.348 1_545 S
C802 C806 1.356 . S
C802 O853 1.325 . S
C803 N804 1.279 . S
C803 C806 1.358 . S
C803 H860 0.930 . S
N804 C803 1.279 . S
N804 C807 1.314 1_545 S
C805 C802 1.348 1_565 S
C805 C807 1.353 . S
C805 H861 0.929 . S
C806 C802 1.356 . S
C806 C803 1.358 . S
C806 H862 0.930 . S
C807 N804 1.314 1_565 S
C807 C805 1.353 . S
C807 H863 0.930 . S
C808 N809 1.314 . S
C808 C813 1.353 . S
C808 H814 0.930 . S
N809 Li792 1.990 . S
N809 C808 1.314 . S
N809 C811 1.279 . S
C810 C811 1.358 . S
C810 C812 1.356 . S
C810 H864 0.930 . S
C811 N809 1.279 . S
C811 C810 1.358 . S
C811 H815 0.930 . S
C812 C810 1.356 . S
C812 C813 1.348 . S
C813 C808 1.353 . S
C813 C812 1.348 . S
C813 H865 0.929 . S
H814 C808 0.930 . S
H815 C811 0.930 . S
C816 N817 1.314 . S
C816 C818 1.353 . S
C816 H822 0.930 . S
N817 Li793 1.990 . S
N817 C816 1.314 . S
N817 C820 1.279 . S
C818 C816 1.353 . S
C818 C821 1.348 . S
C818 H866 0.929 . S
C819 C820 1.358 . S
C819 C821 1.356 . S
C819 H867 0.930 . S
C820 N817 1.279 . S
C820 C819 1.358 . S
C820 H823 0.930 . S
C821 C818 1.348 . S
C821 C819 1.356 . S
H822 C816 0.930 . S
H823 C820 0.930 . S
C824 C826 1.348 1_565 S
C824 C827 1.356 . S
C824 O854 1.325 . S
N825 C828 1.314 1_565 S
N825 C829 1.279 . S
C826 C824 1.348 1_545 S
C826 C828 1.353 . S
C826 H868 0.929 . S
C827 C824 1.356 . S
C827 C829 1.358 . S
C827 H869 0.930 . S
C828 N825 1.314 1_545 S
C828 C826 1.353 . S
C828 H870 0.930 . S
C829 N825 1.279 . S
C829 C827 1.358 . S
C829 H871 0.930 . S
C830 C831 1.348 . S
C830 C832 1.356 . S
C830 O855 1.325 . S
C831 C830 1.348 . S
C831 C833 1.353 . S
C831 H872 0.929 . S
C832 C830 1.356 . S
C832 C834 1.358 . S
C832 H873 0.930 . S
C833 C831 1.353 . S
C833 N835 1.314 . S
C833 H874 0.930 . S
C834 C832 1.358 . S
C834 N835 1.279 . S
C834 H875 0.930 . S
N835 C833 1.314 . S
N835 C834 1.279 . S
C836 C838 1.353 . S
C836 N839 1.314 . S
C836 H842 0.930 . S
C837 N839 1.279 . S
C837 C840 1.358 . S
C837 H843 0.930 . S
C838 C836 1.353 . S
C838 C841 1.348 . S
C838 H876 0.929 . S
N839 Li794 1.990 . S
N839 C836 1.314 . S
N839 C837 1.279 . S
C840 C837 1.358 . S
C840 C841 1.356 . S
C840 H877 0.930 . S
C841 C838 1.348 . S
C841 C840 1.356 . S
H842 C836 0.930 . S
H843 C837 0.930 . S
C844 N845 1.314 . S
C844 C846 1.353 . S
C844 H850 0.930 . S
N845 Li795 1.990 . S
N845 C844 1.314 . S
N845 C848 1.279 . S
C846 C844 1.353 . S
C846 C849 1.348 . S
C846 H878 0.929 . S
C847 C848 1.358 . S
C847 C849 1.356 . S
C847 H879 0.930 . S
C848 N845 1.279 . S
C848 C847 1.358 . S
C848 H851 0.930 . S
C849 C846 1.348 . S
C849 C847 1.356 . S
H850 C844 0.930 . S
H851 C848 0.930 . S
O852 Li792 1.956 . S
O852 Li793 1.970 1_565 S
O852 Li794 1.961 . S
O852 C796 1.325 . S
O853 Li792 1.970 1_545 S
O853 Li793 1.956 . S
O853 Li795 1.961 . S
O853 C802 1.325 . S
O854 Li792 1.961 . S
O854 Li794 1.956 . S
O854 Li795 1.970 1_565 S
O854 C824 1.325 . S
O855 Li793 1.961 . S
O855 Li794 1.970 1_545 S
O855 Li795 1.956 . S
O855 C830 1.325 . S
H856 C798 0.929 . S
H857 C799 0.930 . S
H858 C800 0.930 . S
H859 C801 0.930 . S
H860 C803 0.930 . S
H861 C805 0.929 . S
H862 C806 0.930 . S
H863 C807 0.930 . S
H864 C810 0.930 . S
H865 C813 0.929 . S
H866 C818 0.929 . S
H867 C819 0.930 . S
H868 C826 0.929 . S
H869 C827 0.930 . S
H870 C828 0.930 . S
H871 C829 0.930 . S
H872 C831 0.929 . S
H873 C832 0.930 . S
H874 C833 0.930 . S
H875 C834 0.930 . S
H876 C838 0.929 . S
H877 C840 0.930 . S
H878 C846 0.929 . S
H879 C847 0.930 . S
Li880 N897 1.990 . S
Li880 O940 1.956 . S
Li880 O941 1.970 . S
Li880 O942 1.961 . S
Li881 N905 1.990 . S
Li881 O940 1.970 . S
Li881 O941 1.956 . S
Li881 O943 1.961 1_455 S
Li882 N927 1.990 . S
Li882 O940 1.961 . S
Li882 O942 1.956 . S
Li882 O943 1.970 1_455 S
Li883 N933 1.990 . S
Li883 O941 1.961 1_655 S
Li883 O942 1.970 1_655 S
Li883 O943 1.956 . S
C884 C886 1.348 . S
C884 C887 1.356 . S
C884 O940 1.325 . S
N885 C888 1.314 . S
N885 C889 1.279 . S
C886 C884 1.348 . S
C886 C888 1.353 . S
C886 H944 0.929 . S
C887 C884 1.356 . S
C887 C889 1.358 . S
C887 H945 0.930 . S
C888 N885 1.314 . S
C888 C886 1.353 . S
C888 H946 0.930 . S
C889 N885 1.279 . S
C889 C887 1.358 . S
C889 H947 0.930 . S
C890 C893 1.348 . S
C890 C894 1.356 1_455 S
C890 O941 1.325 . S
C891 N892 1.279 1_655 S
C891 C894 1.358 . S
C891 H948 0.930 . S
N892 C891 1.279 1_455 S
N892 C895 1.314 . S
C893 C890 1.348 . S
C893 C895 1.353 . S
C893 H949 0.929 . S
C894 C890 1.356 1_655 S
C894 C891 1.358 . S
C894 H950 0.930 . S
C895 N892 1.314 . S
C895 C893 1.353 . S
C895 H951 0.930 . S
C896 N897 1.314 . S
C896 C901 1.353 . S
C896 H902 0.930 . S
N897 Li880 1.990 . S
N897 C896 1.314 . S
N897 C899 1.279 . S
C898 C899 1.358 . S
C898 C900 1.356 . S
C898 H952 0.930 . S
C899 N897 1.279 . S
C899 C898 1.358 . S
C899 H903 0.930 . S
C900 C898 1.356 . S
C900 C901 1.348 . S
C901 C896 1.353 . S
C901 C900 1.348 . S
C901 H953 0.929 . S
H902 C896 0.930 . S
H903 C899 0.930 . S
C904 N905 1.314 . S
C904 C906 1.353 1_456 S
C904 H910 0.930 1_455 S
N905 Li881 1.990 . S
N905 C904 1.314 . S
N905 C908 1.279 . S
C906 C904 1.353 1_654 S
C906 C909 1.348 1_654 S
C906 H954 0.929 . S
C907 C908 1.358 . S
C907 C909 1.356 . S
C907 H955 0.930 . S
C908 N905 1.279 . S
C908 C907 1.358 . S
C908 H911 0.930 . S
C909 C906 1.348 1_456 S
C909 C907 1.356 . S
H910 C904 0.930 1_655 S
H911 C908 0.930 . S
C912 C914 1.348 1_455 S
C912 C915 1.356 . S
C912 O942 1.325 . S
N913 C916 1.314 . S
N913 C917 1.279 . S
C914 C912 1.348 1_655 S
C914 C916 1.353 1_655 S
C914 H956 0.929 . S
C915 C912 1.356 . S
C915 C917 1.358 . S
C915 H957 0.930 . S
C916 N913 1.314 . S
C916 C914 1.353 1_455 S
C916 H958 0.930 1_455 S
C917 N913 1.279 . S
C917 C915 1.358 . S
C917 H959 0.930 . S
C918 C919 1.348 . S
C918 C920 1.356 . S
C918 O943 1.325 . S
C919 C918 1.348 . S
C919 C921 1.353 . S
C919 H960 0.929 . S
C920 C918 1.356 . S
C920 C922 1.358 . S
C920 H961 0.930 . S
C921 C919 1.353 . S
C921 N923 1.314 . S
C921 H962 0.930 . S
C922 C920 1.358 . S
C922 N923 1.279 . S
C922 H963 0.930 . S
N923 C921 1.314 . S
N923 C922 1.279 . S
C924 C926 1.353 . S
C924 N927 1.314 . S
C924 H930 0.930 . S
C925 N927 1.279 . S
C925 C928 1.358 . S
C925 H931 0.930 . S
C926 C924 1.353 . S
C926 C929 1.348 . S
C926 H964 0.929 1_556 S
N927 Li882 1.990 . S
N927 C924 1.314 . S
N927 C925 1.279 . S
C928 C925 1.358 . S
C928 C929 1.356 . S
C928 H965 0.930 . S
C929 C926 1.348 . S
C929 C928 1.356 . S
H930 C924 0.930 . S
H931 C925 0.930 . S
C932 N933 1.314 . S
C932 C934 1.353 . S
C932 H938 0.930 . S
N933 Li883 1.990 . S
N933 C932 1.314 . S
N933 C936 1.279 . S
C934 C932 1.353 . S
C934 C937 1.348 . S
C934 H966 0.929 . S
C935 C936 1.358 . S
C935 C937 1.356 . S
C935 H967 0.930 . S
C936 N933 1.279 . S
C936 C935 1.358 . S
C936 H939 0.930 . S
C937 C934 1.348 . S
C937 C935 1.356 . S
H938 C932 0.930 . S
H939 C936 0.930 . S
O940 Li880 1.956 . S
O940 Li881 1.970 . S
O940 Li882 1.961 . S
O940 C884 1.325 . S
O941 Li880 1.970 . S
O941 Li881 1.956 . S
O941 Li883 1.961 1_455 S
O941 C890 1.325 . S
O942 Li880 1.961 . S
O942 Li882 1.956 . S
O942 Li883 1.970 1_455 S
O942 C912 1.325 . S
O943 Li881 1.961 1_655 S
O943 Li882 1.970 1_655 S
O943 Li883 1.956 . S
O943 C918 1.325 . S
H944 C886 0.929 . S
H945 C887 0.930 . S
H946 C888 0.930 . S
H947 C889 0.930 . S
H948 C891 0.930 . S
H949 C893 0.929 . S
H950 C894 0.930 . S
H951 C895 0.930 . S
H952 C898 0.930 . S
H953 C901 0.929 . S
H954 C906 0.929 . S
H955 C907 0.930 . S
H956 C914 0.929 . S
H957 C915 0.930 . S
H958 C916 0.930 1_655 S
H959 C917 0.930 . S
H960 C919 0.929 . S
H961 C920 0.930 . S
H962 C921 0.930 . S
H963 C922 0.930 . S
H964 C926 0.929 1_554 S
H965 C928 0.930 . S
H966 C934 0.929 . S
H967 C935 0.930 . S
Li968 N985 1.990 . S
Li968 O1028 1.956 . S
Li968 O1029 1.970 . S
Li968 O1030 1.961 . S
Li969 N993 1.990 . S
Li969 O1028 1.970 . S
Li969 O1029 1.956 . S
Li969 O1031 1.961 . S
Li970 N1015 1.990 . S
Li970 O1028 1.961 . S
Li970 O1030 1.956 . S
Li970 O1031 1.970 . S
Li971 N1021 1.990 . S
Li971 O1029 1.961 . S
Li971 O1030 1.970 . S
Li971 O1031 1.956 . S
C972 C974 1.348 . S
C972 C975 1.356 . S
C972 O1028 1.325 . S
N973 C976 1.314 . S
N973 C977 1.279 . S
C974 C972 1.348 . S
C974 C976 1.353 . S
C974 H1032 0.929 . S
C975 C972 1.356 . S
C975 C977 1.358 . S
C975 H1033 0.930 . S
C976 N973 1.314 . S
C976 C974 1.353 . S
C976 H1034 0.930 . S
C977 N973 1.279 . S
C977 C975 1.358 . S
C977 H1035 0.930 . S
C978 C981 1.348 . S
C978 C982 1.356 . S
C978 O1029 1.325 . S
C979 N980 1.279 . S
C979 C982 1.358 . S
C979 H1036 0.930 . S
N980 C979 1.279 . S
N980 C983 1.314 . S
C981 C978 1.348 . S
C981 C983 1.353 . S
C981 H1037 0.929 . S
C982 C978 1.356 . S
C982 C979 1.358 . S
C982 H1038 0.930 . S
C983 N980 1.314 . S
C983 C981 1.353 . S
C983 H1039 0.930 . S
C984 N985 1.314 . S
C984 C989 1.353 . S
C984 H990 0.930 . S
N985 Li968 1.990 . S
N985 C984 1.314 . S
N985 C987 1.279 . S
C986 C987 1.358 . S
C986 C988 1.356 . S
C986 H1040 0.930 . S
C987 N985 1.279 . S
C987 C986 1.358 . S
C987 H991 0.930 . S
C988 C986 1.356 . S
C988 C989 1.348 . S
C989 C984 1.353 . S
C989 C988 1.348 . S
C989 H1041 0.929 . S
H990 C984 0.930 . S
H991 C987 0.930 . S
C992 N993 1.314 . S
C992 C994 1.353 . S
C992 H998 0.930 . S
N993 Li969 1.990 . S
N993 C992 1.314 . S
N993 C996 1.279 . S
C994 C992 1.353 . S
C994 C997 1.348 . S
C994 H1042 0.929 . S
C995 C996 1.358 . S
C995 C997 1.356 . S
C995 H1043 0.930 . S
C996 N993 1.279 . S
C996 C995 1.358 . S
C996 H999 0.930 . S
C997 C994 1.348 . S
C997 C995 1.356 . S
H998 C992 0.930 . S
H999 C996 0.930 . S
C1000 C1002 1.348 . S
C1000 C1003 1.356 . S
C1000 O1030 1.325 . S
N1001 C1004 1.314 . S
N1001 C1005 1.279 . S
C1002 C1000 1.348 . S
C1002 C1004 1.353 . S
C1002 H1044 0.929 . S
C1003 C1000 1.356 . S
C1003 C1005 1.358 . S
C1003 H1045 0.930 . S
C1004 N1001 1.314 . S
C1004 C1002 1.353 . S
C1004 H1046 0.930 . S
C1005 N1001 1.279 . S
C1005 C1003 1.358 . S
C1005 H1047 0.930 . S
C1006 C1007 1.348 . S
C1006 C1008 1.356 . S
C1006 O1031 1.325 . S
C1007 C1006 1.348 . S
C1007 C1009 1.353 . S
C1007 H1048 0.929 . S
C1008 C1006 1.356 . S
C1008 C1010 1.358 . S
C1008 H1049 0.930 . S
C1009 C1007 1.353 . S
C1009 N1011 1.314 . S
C1009 H1050 0.930 . S
C1010 C1008 1.358 . S
C1010 N1011 1.279 . S
C1010 H1051 0.930 . S
N1011 C1009 1.314 . S
N1011 C1010 1.279 . S
C1012 C1014 1.353 . S
C1012 N1015 1.314 . S
C1012 H1018 0.930 . S
C1013 N1015 1.279 . S
C1013 C1016 1.358 . S
C1013 H1019 0.930 . S
C1014 C1012 1.353 . S
C1014 C1017 1.348 . S
C1014 H1052 0.929 . S
N1015 Li970 1.990 . S
N1015 C1012 1.314 . S
N1015 C1013 1.279 . S
C1016 C1013 1.358 . S
C1016 C1017 1.356 . S
C1016 H1053 0.930 . S
C1017 C1014 1.348 . S
C1017 C1016 1.356 . S
H1018 C1012 0.930 . S
H1019 C1013 0.930 . S
C1020 N1021 1.314 . S
C1020 C1022 1.353 . S
C1020 H1026 0.930 . S
N1021 Li971 1.990 . S
N1021 C1020 1.314 . S
N1021 C1024 1.279 . S
C1022 C1020 1.353 . S
C1022 C1025 1.348 . S
C1022 H1054 0.929 . S
C1023 C1024 1.358 . S
C1023 C1025 1.356 . S
C1023 H1055 0.930 . S
C1024 N1021 1.279 . S
C1024 C1023 1.358 . S
C1024 H1027 0.930 . S
C1025 C1022 1.348 . S
C1025 C1023 1.356 . S
H1026 C1020 0.930 . S
H1027 C1024 0.930 . S
O1028 Li968 1.956 . S
O1028 Li969 1.970 . S
O1028 Li970 1.961 . S
O1028 C972 1.325 . S
O1029 Li968 1.970 . S
O1029 Li969 1.956 . S
O1029 Li971 1.961 . S
O1029 C978 1.325 . S
O1030 Li968 1.961 . S
O1030 Li970 1.956 . S
O1030 Li971 1.970 . S
O1030 C1000 1.325 . S
O1031 Li969 1.961 . S
O1031 Li970 1.970 . S
O1031 Li971 1.956 . S
O1031 C1006 1.325 . S
H1032 C974 0.929 . S
H1033 C975 0.930 . S
H1034 C976 0.930 . S
H1035 C977 0.930 . S
H1036 C979 0.930 . S
H1037 C981 0.929 . S
H1038 C982 0.930 . S
H1039 C983 0.930 . S
H1040 C986 0.930 . S
H1041 C989 0.929 . S
H1042 C994 0.929 . S
H1043 C995 0.930 . S
H1044 C1002 0.929 . S
H1045 C1003 0.930 . S
H1046 C1004 0.930 . S
H1047 C1005 0.930 . S
H1048 C1007 0.929 . S
H1049 C1008 0.930 . S
H1050 C1009 0.930 . S
H1051 C1010 0.930 . S
H1052 C1014 0.929 . S
H1053 C1016 0.930 . S
H1054 C1022 0.929 . S
H1055 C1023 0.930 . S
Li1056 N1073 1.990 . S
Li1056 O1116 1.956 . S
Li1056 O1117 1.970 1_455 S
Li1056 O1118 1.961 . S
Li1057 N1081 1.990 . S
Li1057 O1116 1.970 1_655 S
Li1057 O1117 1.956 . S
Li1057 O1119 1.982 . S
Li1058 N1103 1.990 . S
Li1058 O1116 1.961 . S
Li1058 O1118 1.956 . S
Li1058 O1119 1.945 1_455 S
Li1059 N1109 1.990 1_455 S
Li1059 O1117 1.961 1_455 S
Li1059 O1118 1.970 . S
Li1059 O1119 1.955 1_455 S
C1060 C1062 1.348 1_455 S
C1060 C1063 1.356 . S
C1060 O1116 1.325 . S
N1061 C1064 1.314 1_455 S
N1061 C1065 1.279 . S
C1062 C1060 1.348 1_655 S
C1062 C1064 1.353 . S
C1062 H1120 0.929 . S
C1063 C1060 1.356 . S
C1063 C1065 1.358 . S
C1063 H1121 0.930 . S
C1064 N1061 1.314 1_655 S
C1064 C1062 1.353 . S
C1064 H1122 0.930 . S
C1065 N1061 1.279 . S
C1065 C1063 1.358 . S
C1065 H1123 0.930 . S
C1066 C1069 1.348 . S
C1066 C1070 1.356 . S
C1066 O1117 1.325 . S
C1067 N1068 1.279 . S
C1067 C1070 1.358 . S
C1067 H1124 0.930 . S
N1068 C1067 1.279 . S
N1068 C1071 1.314 . S
C1069 C1066 1.348 . S
C1069 C1071 1.353 . S
C1069 H1125 0.929 . S
C1070 C1066 1.356 . S
C1070 C1067 1.358 . S
C1070 H1126 0.930 . S
C1071 N1068 1.314 . S
C1071 C1069 1.353 . S
C1071 H1127 0.930 . S
C1072 N1073 1.314 . S
C1072 C1077 1.353 . S
C1072 H1078 0.930 . S
N1073 Li1056 1.990 . S
N1073 C1072 1.314 . S
N1073 C1075 1.279 . S
C1074 C1075 1.358 . S
C1074 C1076 1.356 . S
C1074 H1128 0.930 . S
C1075 N1073 1.279 . S
C1075 C1074 1.358 . S
C1075 H1079 0.930 . S
C1076 C1074 1.356 . S
C1076 C1077 1.348 . S
C1077 C1072 1.353 . S
C1077 C1076 1.348 . S
C1077 H1129 0.929 . S
H1078 C1072 0.930 . S
H1079 C1075 0.930 . S
C1080 N1081 1.314 . S
C1080 C1082 1.353 . S
C1080 H1086 0.930 . S
N1081 Li1057 1.990 . S
N1081 C1080 1.314 . S
N1081 C1084 1.279 . S
C1082 C1080 1.353 . S
C1082 C1085 1.348 . S
C1082 H1130 0.929 . S
C1083 C1084 1.358 . S
C1083 C1085 1.356 . S
C1083 H1131 0.930 . S
C1084 N1081 1.279 . S
C1084 C1083 1.358 . S
C1084 H1087 0.930 . S
C1085 C1082 1.348 . S
C1085 C1083 1.356 . S
H1086 C1080 0.930 . S
H1087 C1084 0.930 . S
C1088 C1090 1.348 . S
C1088 C1091 1.356 . S
C1088 O1118 1.325 . S
N1089 C1092 1.314 . S
N1089 C1093 1.279 . S
C1090 C1088 1.348 . S
C1090 C1092 1.353 . S
C1090 H1132 0.929 . S
C1091 C1088 1.356 . S
C1091 C1093 1.358 . S
C1091 H1133 0.930 . S
C1092 N1089 1.314 . S
C1092 C1090 1.353 . S
C1092 H1134 0.930 . S
C1093 N1089 1.279 . S
C1093 C1091 1.358 . S
C1093 H1135 0.930 . S
C1094 C1095 1.348 1_655 S
C1094 C1096 1.356 . S
C1094 O1119 1.330 . S
C1095 C1094 1.348 1_455 S
C1095 C1097 1.353 . S
C1095 H1136 0.929 . S
C1096 C1094 1.356 . S
C1096 C1098 1.358 . S
C1096 H1137 0.930 . S
C1097 C1095 1.353 . S
C1097 N1099 1.314 1_455 S
C1097 H1138 0.930 . S
C1098 C1096 1.358 . S
C1098 N1099 1.279 . S
C1098 H1139 0.930 . S
N1099 C1097 1.314 1_655 S
N1099 C1098 1.279 . S
C1100 C1102 1.353 . S
C1100 N1103 1.314 . S
C1100 H1106 0.930 . S
C1101 N1103 1.279 . S
C1101 C1104 1.358 . S
C1101 H1107 0.930 . S
C1102 C1100 1.353 . S
C1102 C1105 1.348 . S
C1102 H1140 0.929 . S
N1103 Li1058 1.990 . S
N1103 C1100 1.314 . S
N1103 C1101 1.279 . S
C1104 C1101 1.358 . S
C1104 C1105 1.356 . S
C1104 H1141 0.930 . S
C1105 C1102 1.348 . S
C1105 C1104 1.356 . S
H1106 C1100 0.930 . S
H1107 C1101 0.930 . S
C1108 N1109 1.314 . S
C1108 C1110 1.353 . S
C1108 H1114 0.930 . S
N1109 Li1059 1.990 1_655 S
N1109 C1108 1.314 . S
N1109 C1112 1.279 . S
C1110 C1108 1.353 . S
C1110 C1113 1.348 . S
C1110 H1142 0.929 . S
C1111 C1112 1.358 . S
C1111 C1113 1.356 . S
C1111 H1143 0.930 . S
C1112 N1109 1.279 . S
C1112 C1111 1.358 . S
C1112 H1115 0.930 . S
C1113 C1110 1.348 . S
C1113 C1111 1.356 . S
H1114 C1108 0.930 . S
H1115 C1112 0.930 . S
O1116 Li1056 1.956 . S
O1116 Li1057 1.970 1_455 S
O1116 Li1058 1.961 . S
O1116 C1060 1.325 . S
O1117 Li1056 1.970 1_655 S
O1117 Li1057 1.956 . S
O1117 Li1059 1.961 1_655 S
O1117 C1066 1.325 . S
O1118 Li1056 1.961 . S
O1118 Li1058 1.956 . S
O1118 Li1059 1.970 . S
O1118 C1088 1.325 . S
O1119 Li1057 1.982 . S
O1119 Li1058 1.945 1_655 S
O1119 Li1059 1.955 1_655 S
O1119 C1094 1.330 . S
H1120 C1062 0.929 . S
H1121 C1063 0.930 . S
H1122 C1064 0.930 . S
H1123 C1065 0.930 . S
H1124 C1067 0.930 . S
H1125 C1069 0.929 . S
H1126 C1070 0.930 . S
H1127 C1071 0.930 . S
H1128 C1074 0.930 . S
H1129 C1077 0.929 . S
H1130 C1082 0.929 . S
H1131 C1083 0.930 . S
H1132 C1090 0.929 . S
H1133 C1091 0.930 . S
H1134 C1092 0.930 . S
H1135 C1093 0.930 . S
H1136 C1095 0.929 . S
H1137 C1096 0.930 . S
H1138 C1097 0.930 . S
H1139 C1098 0.930 . S
H1140 C1102 0.929 . S
H1141 C1104 0.930 . S
H1142 C1110 0.929 . S
H1143 C1111 0.930 . S
Li1144 N1161 1.990 . S
Li1144 O1204 1.956 . S
Li1144 O1205 1.970 . S
Li1144 O1206 1.961 . S
Li1145 N1169 1.990 . S
Li1145 O1204 1.970 . S
Li1145 O1205 1.956 . S
Li1145 O1207 1.961 . S
Li1146 N1191 1.990 . S
Li1146 O1204 1.961 . S
Li1146 O1206 1.956 . S
Li1146 O1207 1.970 . S
Li1147 N1197 1.990 . S
Li1147 O1205 1.961 . S
Li1147 O1206 1.970 . S
Li1147 O1207 1.956 . S
C1148 C1150 1.348 . S
C1148 C1151 1.356 . S
C1148 O1204 1.325 . S
N1149 C1152 1.314 . S
N1149 C1153 1.279 . S
C1150 C1148 1.348 . S
C1150 C1152 1.353 . S
C1150 H1208 0.929 . S
C1151 C1148 1.356 . S
C1151 C1153 1.358 . S
C1151 H1209 0.930 . S
C1152 N1149 1.314 . S
C1152 C1150 1.353 . S
C1152 H1210 0.930 . S
C1153 N1149 1.279 . S
C1153 C1151 1.358 . S
C1153 H1211 0.930 . S
C1154 C1157 1.348 . S
C1154 C1158 1.356 . S
C1154 O1205 1.325 . S
C1155 N1156 1.279 . S
C1155 C1158 1.358 . S
C1155 H1212 0.930 . S
N1156 C1155 1.279 . S
N1156 C1159 1.314 . S
C1157 C1154 1.348 . S
C1157 C1159 1.353 . S
C1157 H1213 0.929 . S
C1158 C1154 1.356 . S
C1158 C1155 1.358 . S
C1158 H1214 0.930 . S
C1159 N1156 1.314 . S
C1159 C1157 1.353 . S
C1159 H1215 0.930 . S
C1160 N1161 1.314 . S
C1160 C1165 1.353 . S
C1160 H1166 0.930 . S
N1161 Li1144 1.990 . S
N1161 C1160 1.314 . S
N1161 C1163 1.279 . S
C1162 C1163 1.358 . S
C1162 C1164 1.356 . S
C1162 H1216 0.930 . S
C1163 N1161 1.279 . S
C1163 C1162 1.358 . S
C1163 H1167 0.930 . S
C1164 C1162 1.356 . S
C1164 C1165 1.348 . S
C1165 C1160 1.353 . S
C1165 C1164 1.348 . S
C1165 H1217 0.929 . S
H1166 C1160 0.930 . S
H1167 C1163 0.930 . S
C1168 N1169 1.314 . S
C1168 C1170 1.353 . S
C1168 H1174 0.930 . S
N1169 Li1145 1.990 . S
N1169 C1168 1.314 . S
N1169 C1172 1.279 . S
C1170 C1168 1.353 . S
C1170 C1173 1.348 . S
C1170 H1218 0.929 . S
C1171 C1172 1.358 . S
C1171 C1173 1.356 . S
C1171 H1219 0.930 . S
C1172 N1169 1.279 . S
C1172 C1171 1.358 . S
C1172 H1175 0.930 . S
C1173 C1170 1.348 . S
C1173 C1171 1.356 . S
H1174 C1168 0.930 . S
H1175 C1172 0.930 . S
C1176 C1178 1.348 . S
C1176 C1179 1.356 . S
C1176 O1206 1.325 . S
N1177 C1180 1.314 . S
N1177 C1181 1.279 . S
C1178 C1176 1.348 . S
C1178 C1180 1.353 . S
C1178 H1220 0.929 . S
C1179 C1176 1.356 . S
C1179 C1181 1.358 . S
C1179 H1221 0.930 . S
C1180 N1177 1.314 . S
C1180 C1178 1.353 . S
C1180 H1222 0.930 . S
C1181 N1177 1.279 . S
C1181 C1179 1.358 . S
C1181 H1223 0.930 . S
C1182 C1183 1.348 . S
C1182 C1184 1.356 . S
C1182 O1207 1.325 . S
C1183 C1182 1.348 . S
C1183 C1185 1.353 . S
C1183 H1224 0.929 . S
C1184 C1182 1.356 . S
C1184 C1186 1.358 . S
C1184 H1225 0.930 . S
C1185 C1183 1.353 . S
C1185 N1187 1.314 . S
C1185 H1226 0.930 . S
C1186 C1184 1.358 . S
C1186 N1187 1.279 . S
C1186 H1227 0.930 . S
N1187 C1185 1.314 . S
N1187 C1186 1.279 . S
C1188 C1190 1.353 . S
C1188 N1191 1.314 . S
C1188 H1194 0.930 . S
C1189 N1191 1.279 . S
C1189 C1192 1.358 . S
C1189 H1195 0.930 . S
C1190 C1188 1.353 . S
C1190 C1193 1.348 . S
C1190 H1228 0.929 . S
N1191 Li1146 1.990 . S
N1191 C1188 1.314 . S
N1191 C1189 1.279 . S
C1192 C1189 1.358 . S
C1192 C1193 1.356 . S
C1192 H1229 0.930 . S
C1193 C1190 1.348 . S
C1193 C1192 1.356 . S
H1194 C1188 0.930 . S
H1195 C1189 0.930 . S
C1196 N1197 1.314 . S
C1196 C1198 1.353 . S
C1196 H1202 0.930 . S
N1197 Li1147 1.990 . S
N1197 C1196 1.314 . S
N1197 C1200 1.279 . S
C1198 C1196 1.353 . S
C1198 C1201 1.348 . S
C1198 H1230 0.929 . S
C1199 C1200 1.358 . S
C1199 C1201 1.356 . S
C1199 H1231 0.930 . S
C1200 N1197 1.279 . S
C1200 C1199 1.358 . S
C1200 H1203 0.930 . S
C1201 C1198 1.348 . S
C1201 C1199 1.356 . S
H1202 C1196 0.930 . S
H1203 C1200 0.930 . S
O1204 Li1144 1.956 . S
O1204 Li1145 1.970 . S
O1204 Li1146 1.961 . S
O1204 C1148 1.325 . S
O1205 Li1144 1.970 . S
O1205 Li1145 1.956 . S
O1205 Li1147 1.961 . S
O1205 C1154 1.325 . S
O1206 Li1144 1.961 . S
O1206 Li1146 1.956 . S
O1206 Li1147 1.970 . S
O1206 C1176 1.325 . S
O1207 Li1145 1.961 . S
O1207 Li1146 1.970 . S
O1207 Li1147 1.956 . S
O1207 C1182 1.325 . S
H1208 C1150 0.929 . S
H1209 C1151 0.930 . S
H1210 C1152 0.930 . S
H1211 C1153 0.930 . S
H1212 C1155 0.930 . S
H1213 C1157 0.929 . S
H1214 C1158 0.930 . S
H1215 C1159 0.930 . S
H1216 C1162 0.930 . S
H1217 C1165 0.929 . S
H1218 C1170 0.929 . S
H1219 C1171 0.930 . S
H1220 C1178 0.929 . S
H1221 C1179 0.930 . S
H1222 C1180 0.930 . S
H1223 C1181 0.930 . S
H1224 C1183 0.929 . S
H1225 C1184 0.930 . S
H1226 C1185 0.930 . S
H1227 C1186 0.930 . S
H1228 C1190 0.929 . S
H1229 C1192 0.930 . S
H1230 C1198 0.929 . S
H1231 C1199 0.930 . S
C225 C60 1.831 . S
C284 C76 1.270 . S
C81 C401 1.923 . S
C469 C48 1.763 1_545 S
C548 C115 1.658 . S
C673 C136 1.791 . S
C131 C733 1.411 . S
C841 C104 1.673 . S
C126 C937 1.800 . S
C997 C103 1.535 . S
C120 C900 1.423 . S
C1017 C142 1.514 . S
C82 C1085 1.564 . S
C54 C1076 1.934 . S
C65 C1105 1.406 . S
C71 C1113 1.207 . S
C37 C497 1.654 . S
C158 C460 2.265 . S
C196 C169 1.457 1_564 S
C293 C98 1.290 . S
C49 C557 1.938 . S
C849 C125 1.460 . S
C577 C109 1.509 . S
C761 C137 1.995 . S
C753 C159 1.831 . S
C175 C821 1.269 . S
C92 C585 1.923 . S
C636 C147 1.763 . S
C38 C381 1.658 . S
C489 C4 1.791 . S
C205 C21 1.411 . S
C321 C27 1.673 . S
C16 C1025 1.800 . S
C26 C909 1.534 1_554 S
C43 C988 1.423 . S
C10 C929 1.513 1_554 S
C1173 C93 1.564 . S
C1164 C153 1.933 . S
C1193 C164 1.407 . S
C170 C1201 1.207 . S
C114 C665 1.654 . S
C645 C59 2.265 . S
C724 C70 1.457 . S
C812 C87 1.290 . S
C148 C372 1.938 . S
C313 C15 1.460 . S
C32 C409 1.509 . S
C233 C5 1.995 1_565 S
