# Generated by pormake.
# Topology cml, (3,6)-cn, num edge types: 1
# Building blocks:
#     Node 0, Type 0, BuildingBlock: KAKCAD_clean_linker_0, # of connection points: 3
#     Node 1, Type 0, BuildingBlock: KAKCAD_clean_linker_0, # of connection points: 3
#     Node 2, Type 0, BuildingBlock: KAKCAD_clean_linker_0, # of connection points: 3
#     Node 3, Type 0, BuildingBlock: KAKCAD_clean_linker_0, # of connection points: 3
#     Node 4, Type 0, BuildingBlock: KAKCAD_clean_linker_0, # of connection points: 3
#     Node 5, Type 0, BuildingBlock: KAKCAD_clean_linker_0, # of connection points: 3
#     Node 6, Type 0, BuildingBlock: KAKCAD_clean_linker_0, # of connection points: 3
#     Node 7, Type 0, BuildingBlock: KAKCAD_clean_linker_0, # of connection points: 3
#     Node 8, Type 1, BuildingBlock: OJICUG_clean_sbu_0, # of connection points: 6
#     Node 9, Type 1, BuildingBlock: OJICUG_clean_sbu_0, # of connection points: 6
#     Node 10, Type 1, BuildingBlock: OJICUG_clean_sbu_0, # of connection points: 6
#     Node 11, Type 1, BuildingBlock: OJICUG_clean_sbu_0, # of connection points: 6
#     Edge 12, Type (0, 1), BuildingBlock: TEMPAE_clean_linker_10, # of connection points: 2
#     Edge 13, Type (0, 1), BuildingBlock: TEMPAE_clean_linker_10, # of connection points: 2
#     Edge 14, Type (0, 1), BuildingBlock: TEMPAE_clean_linker_10, # of connection points: 2
#     Edge 15, Type (0, 1), BuildingBlock: TEMPAE_clean_linker_10, # of connection points: 2
#     Edge 16, Type (0, 1), BuildingBlock: TEMPAE_clean_linker_10, # of connection points: 2
#     Edge 17, Type (0, 1), BuildingBlock: TEMPAE_clean_linker_10, # of connection points: 2
#     Edge 18, Type (0, 1), BuildingBlock: TEMPAE_clean_linker_10, # of connection points: 2
#     Edge 19, Type (0, 1), BuildingBlock: TEMPAE_clean_linker_10, # of connection points: 2
#     Edge 20, Type (0, 1), BuildingBlock: TEMPAE_clean_linker_10, # of connection points: 2
#     Edge 21, Type (0, 1), BuildingBlock: TEMPAE_clean_linker_10, # of connection points: 2
#     Edge 22, Type (0, 1), BuildingBlock: TEMPAE_clean_linker_10, # of connection points: 2
#     Edge 23, Type (0, 1), BuildingBlock: TEMPAE_clean_linker_10, # of connection points: 2
#     Edge 24, Type (0, 1), BuildingBlock: TEMPAE_clean_linker_10, # of connection points: 2
#     Edge 25, Type (0, 1), BuildingBlock: TEMPAE_clean_linker_10, # of connection points: 2
#     Edge 26, Type (0, 1), BuildingBlock: TEMPAE_clean_linker_10, # of connection points: 2
#     Edge 27, Type (0, 1), BuildingBlock: TEMPAE_clean_linker_10, # of connection points: 2
#     Edge 28, Type (0, 1), BuildingBlock: TEMPAE_clean_linker_10, # of connection points: 2
#     Edge 29, Type (0, 1), BuildingBlock: TEMPAE_clean_linker_10, # of connection points: 2
#     Edge 30, Type (0, 1), BuildingBlock: TEMPAE_clean_linker_10, # of connection points: 2
#     Edge 31, Type (0, 1), BuildingBlock: TEMPAE_clean_linker_10, # of connection points: 2
#     Edge 32, Type (0, 1), BuildingBlock: TEMPAE_clean_linker_10, # of connection points: 2
#     Edge 33, Type (0, 1), BuildingBlock: TEMPAE_clean_linker_10, # of connection points: 2
#     Edge 34, Type (0, 1), BuildingBlock: TEMPAE_clean_linker_10, # of connection points: 2
#     Edge 35, Type (0, 1), BuildingBlock: TEMPAE_clean_linker_10, # of connection points: 2
# Relax obj value: 0.072
# Max RMSD: 0.084
# Mean RMSD: 0.080
data_MOF--net-cml--node1-OJICUG_clean_sbu_0--node2-KAKCAD_clean_linker_0--edge1-TEMPAE_clean_linker_10
_symmetry_space_group_name_H-M    P1
_symmetry_Int_Tables_number       1
_symmetry_cell_setting            triclinic
loop_
_symmetry_equiv_pos_as_xyz
'x, y, z'
_cell_length_a     48.045137
_cell_length_b     48.476372
_cell_length_c     45.702199
_cell_angle_alpha  89.926081
_cell_angle_beta   89.993537
_cell_angle_gamma 90.138301
loop_
_atom_site_label
_atom_site_type_symbol
_atom_site_fract_x
_atom_site_fract_y
_atom_site_fract_z
_atom_type_partial_charge
C0 C 0.2971 0.49409 0.95571 0.0
C1 C 0.32628 0.49601 0.95727 0.0
C2 C 0.28288 0.4733 0.97088 0.0
C3 C 0.29756 0.45386 0.98774 0.0
C4 C 0.32669 0.45611 0.98954 0.0
C5 C 0.34079 0.47705 0.9748 0.0
C6 C 0.28302 0.43044 0.0023 0.0
C7 C 0.26094 0.41676 0.98828 0.0
C8 C 0.24934 0.39267 0.00035 0.0
C9 C 0.2601 0.38215 0.02667 0.0
C10 C 0.28229 0.39541 0.04082 0.0
C11 C 0.29293 0.42 0.02901 0.0
C12 C 0.29636 0.38221 0.0661 0.0
C13 C 0.28112 0.36953 0.08871 0.0
C14 C 0.32556 0.38146 0.06706 0.0
C15 C 0.33927 0.36856 0.09012 0.0
C16 C 0.32417 0.35585 0.11275 0.0
C17 C 0.22746 0.37738 0.98422 0.0
C18 C 0.20528 0.39148 0.97092 0.0
C19 C 0.22904 0.34857 0.98141 0.0
C20 C 0.20885 0.33415 0.96571 0.0
C21 C 0.18666 0.34821 0.9524 0.0
C22 C 0.18504 0.37702 0.9552 0.0
C23 C 0.29492 0.35654 0.11192 0.0
H24 H 0.28527 0.50828 0.9423 0.0
H25 H 0.26041 0.47236 0.96923 0.0
H26 H 0.33885 0.4413 0.0018 0.0
H27 H 0.3632 0.47822 0.97706 0.0
H28 H 0.25379 0.42391 0.96711 0.0
H29 H 0.30957 0.43064 0.04037 0.0
H30 H 0.25185 0.36309 0.0356 0.0
H31 H 0.25858 0.36984 0.08857 0.0
H32 H 0.33794 0.39058 0.04974 0.0
H33 H 0.36182 0.36886 0.09036 0.0
H34 H 0.20348 0.41368 0.97284 0.0
H35 H 0.24612 0.33716 0.99102 0.0
H36 H 0.28274 0.34689 0.12907 0.0
H37 H 0.16826 0.38842 0.94502 0.0
H38 H 0.21046 0.3119 0.96427 0.0
C39 C 0.70111 0.49893 0.45514 0.0
C40 C 0.67195 0.49685 0.45681 0.0
C41 C 0.71521 0.52012 0.46975 0.0
C42 C 0.70043 0.53985 0.48607 0.0
C43 C 0.67132 0.53741 0.48803 0.0
C44 C 0.65735 0.51605 0.47392 0.0
C45 C 0.71483 0.56379 0.49978 0.0
C46 C 0.737 0.57698 0.48541 0.0
C47 C 0.74862 0.6014 0.49661 0.0
C48 C 0.73757 0.61292 0.52232 0.0
C49 C 0.71523 0.60016 0.5368 0.0
C50 C 0.70475 0.57512 0.52597 0.0
C51 C 0.70096 0.61404 0.56153 0.0
C52 C 0.71597 0.62748 0.58377 0.0
C53 C 0.67174 0.61426 0.56256 0.0
C54 C 0.65781 0.6271 0.58547 0.0
C55 C 0.67268 0.64039 0.60788 0.0
C56 C 0.77095 0.61578 0.48016 0.0
C57 C 0.79293 0.60079 0.46763 0.0
C58 C 0.7699 0.64447 0.476 0.0
C59 C 0.79031 0.65788 0.45953 0.0
C60 C 0.81218 0.64288 0.44682 0.0
C61 C 0.81335 0.61421 0.45113 0.0
C62 C 0.70195 0.64048 0.60681 0.0
H63 H 0.71303 0.48458 0.44206 0.0
H64 H 0.73766 0.52113 0.46803 0.0
H65 H 0.65905 0.55241 0.49987 0.0
H66 H 0.63495 0.51476 0.47631 0.0
H67 H 0.74431 0.56912 0.46461 0.0
H68 H 0.68812 0.56479 0.53768 0.0
H69 H 0.74578 0.63226 0.53052 0.0
H70 H 0.73851 0.62762 0.58357 0.0
H71 H 0.6595 0.60458 0.5455 0.0
H72 H 0.63529 0.62614 0.58585 0.0
H73 H 0.79436 0.57867 0.47062 0.0
H74 H 0.75302 0.65654 0.48502 0.0
H75 H 0.71398 0.65063 0.62371 0.0
H76 H 0.82988 0.60209 0.44147 0.0
H77 H 0.78906 0.68005 0.45694 0.0
C78 C 0.6836 0.48556 0.94311 0.0
C79 C 0.67151 0.5061 0.96054 0.0
C80 C 0.69801 0.46377 0.95599 0.0
C81 C 0.7009 0.46221 0.98659 0.0
C82 C 0.68947 0.48327 0.00395 0.0
C83 C 0.67478 0.50494 0.99104 0.0
C84 C 0.71471 0.43803 0.00023 0.0
C85 C 0.73789 0.42591 0.98684 0.0
C86 C 0.74945 0.40151 0.99791 0.0
C87 C 0.73846 0.38985 0.02361 0.0
C88 C 0.71546 0.40188 0.03762 0.0
C89 C 0.70365 0.42589 0.02561 0.0
C90 C 0.70253 0.38872 0.06373 0.0
C91 C 0.69962 0.35985 0.06559 0.0
C92 C 0.69156 0.40512 0.0863 0.0
C93 C 0.67688 0.3931 0.10936 0.0
C94 C 0.67319 0.36441 0.11063 0.0
C95 C 0.77166 0.38728 0.98135 0.0
C96 C 0.76946 0.38455 0.95082 0.0
C97 C 0.79464 0.3757 0.99579 0.0
C98 C 0.81489 0.36143 0.97998 0.0
C99 C 0.81242 0.35837 0.9495 0.0
C100 C 0.78963 0.37025 0.93506 0.0
C101 C 0.68522 0.3478 0.08895 0.0
H102 H 0.68101 0.48578 0.91956 0.0
H103 H 0.70605 0.44766 0.94197 0.0
H104 H 0.69169 0.48291 0.02753 0.0
H105 H 0.6658 0.52069 0.0049 0.0
H106 H 0.74684 0.4353 0.96746 0.0
H107 H 0.68497 0.43442 0.03527 0.0
H108 H 0.74739 0.37102 0.03224 0.0
H109 H 0.7075 0.3466 0.04845 0.0
H110 H 0.69395 0.42734 0.08593 0.0
H111 H 0.6681 0.40628 0.12611 0.0
H112 H 0.75179 0.39295 0.93912 0.0
H113 H 0.79693 0.37764 0.01927 0.0
H114 H 0.6825 0.32561 0.08945 0.0
H115 H 0.78732 0.36838 0.91157 0.0
H116 H 0.83212 0.35222 0.9917 0.0
C117 C 0.28949 0.63447 0.60739 0.0
C118 C 0.3187 0.63591 0.60881 0.0
C119 C 0.27642 0.62028 0.58448 0.0
C120 C 0.29237 0.60713 0.56281 0.0
C121 C 0.32152 0.60872 0.56432 0.0
C122 C 0.3345 0.6228 0.58706 0.0
C123 C 0.2791 0.59255 0.53792 0.0
C124 C 0.25702 0.60471 0.52258 0.0
C125 C 0.24732 0.59304 0.49638 0.0
C126 C 0.25981 0.56893 0.48565 0.0
C127 C 0.2818 0.55637 0.50083 0.0
C128 C 0.29064 0.56789 0.52744 0.0
C129 C 0.29751 0.53325 0.48734 0.0
C130 C 0.284 0.51313 0.47026 0.0
C131 C 0.32666 0.53228 0.48988 0.0
C132 C 0.34192 0.51212 0.47537 0.0
C133 C 0.32857 0.49269 0.45737 0.0
C134 C 0.22585 0.6074 0.4789 0.0
C135 C 0.20209 0.61831 0.49246 0.0
C136 C 0.22951 0.61111 0.44864 0.0
C137 C 0.20997 0.62576 0.43231 0.0
C138 C 0.18638 0.63697 0.44592 0.0
C139 C 0.18249 0.63291 0.47611 0.0
C140 C 0.29938 0.49314 0.45531 0.0
H141 H 0.27679 0.6444 0.62386 0.0
H142 H 0.2539 0.6194 0.58386 0.0
H143 H 0.33443 0.59929 0.54769 0.0
H144 H 0.35703 0.62304 0.58779 0.0
H145 H 0.24857 0.6242 0.53 0.0
H146 H 0.30727 0.55814 0.53965 0.0
H147 H 0.25303 0.5606 0.46485 0.0
H148 H 0.26155 0.51301 0.46811 0.0
H149 H 0.33795 0.54763 0.50235 0.0
H150 H 0.36431 0.512 0.47806 0.0
H151 H 0.19872 0.61564 0.51573 0.0
H152 H 0.24783 0.60325 0.43766 0.0
H153 H 0.28842 0.47853 0.44158 0.0
H154 H 0.16463 0.64159 0.48722 0.0
H155 H 0.21338 0.62843 0.40905 0.0
C156 C 0.79245 -0.0014 0.97446 0.0
C157 C 0.82163 -0.00138 0.97186 0.0
C158 C 0.77853 0.97557 0.98585 0.0
C159 C 0.79359 0.95228 0.99497 0.0
C160 C 0.82269 0.95236 0.99234 0.0
C161 C 0.83653 0.97518 0.98086 0.0
C162 C 0.77929 0.9274 0.00634 0.0
C163 C 0.75664 0.91597 0.99124 0.0
C164 C 0.74535 0.89045 -0.00014 0.0
C165 C 0.75661 0.87669 0.02424 0.0
C166 C 0.77931 0.88788 0.03946 0.0
C167 C 0.79013 0.91348 0.03069 0.0
C168 C 0.79336 0.87195 0.06288 0.0
C169 C 0.77809 0.85801 0.0846 0.0
C170 C 0.82255 0.87063 0.06343 0.0
C171 C 0.83623 0.85638 0.08559 0.0
C172 C 0.82111 0.84285 0.1077 0.0
C173 C 0.7236 0.87704 0.98179 0.0
C174 C 0.7013 0.89238 0.97036 0.0
C175 C 0.72563 0.84888 0.97496 0.0
C176 C 0.70579 0.83627 0.95719 0.0
C177 C 0.68352 0.85155 0.94569 0.0
C178 C 0.68141 0.87973 0.95251 0.0
C179 C 0.79186 0.84365 0.1069 0.0
H180 H 0.78042 0.01642 0.96787 0.0
H181 H 0.75606 0.97602 0.9877 0.0
H182 H 0.83479 0.93445 -0.00145 0.0
H183 H 0.85893 0.97418 0.97844 0.0
H184 H 0.74896 0.92609 0.97169 0.0
H185 H 0.80753 0.92239 0.0425 0.0
H186 H 0.74837 0.85676 0.03071 0.0
H187 H 0.75555 0.85869 0.08469 0.0
H188 H 0.83491 0.88071 0.0467 0.0
H189 H 0.85877 0.85664 0.08579 0.0
H190 H 0.69916 0.91411 0.97534 0.0
H191 H 0.74281 0.83659 0.983 0.0
H192 H 0.77965 0.83334 0.12359 0.0
H193 H 0.66452 0.89205 0.94385 0.0
H194 H 0.70775 0.81442 0.95271 0.0
C195 C 0.19424 0.00499 0.44965 0.0
C196 C 0.16508 0.00258 0.45095 0.0
C197 C 0.20804 0.0255 0.46556 0.0
C198 C 0.19298 0.04428 0.48284 0.0
C199 C 0.16387 0.04159 0.48434 0.0
C200 C 0.15017 0.02087 0.46889 0.0
C201 C 0.20719 0.06742 0.49819 0.0
C202 C 0.22951 0.08134 0.48491 0.0
C203 C 0.24137 0.10478 0.49797 0.0
C204 C 0.23039 0.11465 0.52446 0.0
C205 C 0.20793 0.10113 0.53797 0.0
C206 C 0.1971 0.07708 0.52513 0.0
C207 C 0.19426 0.11306 0.56421 0.0
C208 C 0.20988 0.12466 0.58715 0.0
C209 C 0.16507 0.1132 0.56613 0.0
C210 C 0.15179 0.12424 0.59051 0.0
C211 C 0.16728 0.13577 0.61355 0.0
C212 C 0.26411 0.11977 0.48281 0.0
C213 C 0.28601 0.10516 0.46964 0.0
C214 C 0.26348 0.14865 0.48039 0.0
C215 C 0.28418 0.16261 0.46483 0.0
C216 C 0.30592 0.14798 0.45139 0.0
C217 C 0.30672 0.11913 0.4541 0.0
C218 C 0.19651 0.13588 0.61163 0.0
H219 H 0.2064 0.99138 0.43595 0.0
H220 H 0.23051 0.0267 0.46416 0.0
H221 H 0.15144 0.05588 0.49695 0.0
H222 H 0.12778 0.01929 0.471 0.0
H223 H 0.23686 0.07478 0.46362 0.0
H224 H 0.18037 0.06608 0.53599 0.0
H225 H 0.23888 0.13324 0.53415 0.0
H226 H 0.2324 0.12478 0.58636 0.0
H227 H 0.15236 0.10491 0.54864 0.0
H228 H 0.12928 0.12333 0.59145 0.0
H229 H 0.28711 0.0829 0.47132 0.0
H230 H 0.24669 0.16043 0.49001 0.0
H231 H 0.20903 0.14473 0.62896 0.0
H232 H 0.32313 0.1073 0.44384 0.0
H233 H 0.28323 0.1849 0.46343 0.0
C234 C 0.17711 0.97648 0.95498 0.0
C235 C 0.17032 0.00027 0.97085 0.0
C236 C 0.19438 0.95651 0.96719 0.0
C237 C 0.20491 0.95981 0.99564 0.0
C238 C 0.19825 0.98367 0.01153 0.0
C239 C 0.18127 0.00394 -0.00092 0.0
C240 C 0.22192 0.93767 0.00873 0.0
C241 C 0.24391 0.92624 0.99273 0.0
C242 C 0.2578 0.9027 0.00286 0.0
C243 C 0.2498 0.89087 0.02965 0.0
C244 C 0.22787 0.90217 0.04601 0.0
C245 C 0.2143 0.92589 0.03561 0.0
C246 C 0.21694 0.88751 0.07207 0.0
C247 C 0.21193 0.85895 0.07094 0.0
C248 C 0.20929 0.90221 0.09727 0.0
C249 C 0.19586 0.8888 0.12039 0.0
C250 C 0.18962 0.8605 0.11861 0.0
C251 C 0.27897 0.88914 0.98429 0.0
C252 C 0.27421 0.88584 0.95414 0.0
C253 C 0.30343 0.87844 0.99663 0.0
C254 C 0.32253 0.86429 0.97924 0.0
C255 C 0.31748 0.86054 0.9492 0.0
C256 C 0.29329 0.87172 0.93678 0.0
C257 C 0.19832 0.84559 0.09395 0.0
H258 H 0.16896 0.97332 0.93313 0.0
H259 H 0.19899 0.93814 0.95463 0.0
H260 H 0.20617 0.98659 0.03351 0.0
H261 H 0.17615 0.02213 0.0117 0.0
H262 H 0.2498 0.93543 0.97198 0.0
H263 H 0.19654 0.93404 0.04737 0.0
H264 H 0.25989 0.87221 0.03724 0.0
H265 H 0.21734 0.84713 0.05167 0.0
H266 H 0.21305 0.9242 0.09876 0.0
H267 H 0.18914 0.90086 0.13903 0.0
H268 H 0.25536 0.89354 0.94406 0.0
H269 H 0.30771 0.88084 0.01976 0.0
H270 H 0.19388 0.82374 0.09211 0.0
H271 H 0.28898 0.86932 0.91365 0.0
H272 H 0.34088 0.85563 0.98948 0.0
C273 C 0.80104 0.1224 0.61234 0.0
C274 C 0.82855 0.13211 0.60928 0.0
C275 C 0.78671 0.11166 0.58821 0.0
C276 C 0.79983 0.11022 0.56086 0.0
C277 C 0.82679 0.12084 0.5575 0.0
C278 C 0.8409 0.13192 0.58138 0.0
C279 C 0.78645 0.09628 0.53596 0.0
C280 C 0.76324 0.10789 0.52216 0.0
C281 C 0.75298 0.09642 0.49607 0.0
C282 C 0.76575 0.07282 0.48442 0.0
C283 C 0.78884 0.06081 0.49825 0.0
C284 C 0.79885 0.07262 0.52425 0.0
C285 C 0.80375 0.03741 0.48433 0.0
C286 C 0.78915 0.0169 0.46884 0.0
C287 C 0.83296 0.03613 0.48532 0.0
C288 C 0.8472 0.01513 0.47098 0.0
C289 C 0.83271 0.99515 0.45468 0.0
C290 C 0.73039 0.11024 0.47967 0.0
C291 C 0.70671 0.12018 0.49421 0.0
C292 C 0.73273 0.11404 0.44927 0.0
C293 C 0.71192 0.12766 0.43373 0.0
C294 C 0.68833 0.13779 0.44826 0.0
C295 C 0.68582 0.13377 0.47862 0.0
C296 C 0.80347 0.99612 0.45401 0.0
H297 H 0.79098 0.12205 0.63354 0.0
H298 H 0.76589 0.10349 0.59112 0.0
H299 H 0.83709 0.12015 0.53642 0.0
H300 H 0.86175 0.13988 0.57806 0.0
H301 H 0.75426 0.12668 0.53082 0.0
H302 H 0.81667 0.06375 0.53532 0.0
H303 H 0.75817 0.06437 0.46398 0.0
H304 H 0.76663 0.01697 0.46796 0.0
H305 H 0.84502 0.05174 0.49657 0.0
H306 H 0.86969 0.0147 0.47258 0.0
H307 H 0.70434 0.11742 0.5176 0.0
H308 H 0.75094 0.10695 0.43753 0.0
H309 H 0.79162 0.98118 0.44155 0.0
H310 H 0.66798 0.14166 0.49042 0.0
H311 H 0.71431 0.13031 0.41033 0.0
Sc312 Sc 0.00221 0.77527 0.3018 0.0
Sc313 Sc -0.00049 0.84799 0.30542 0.0
Sc314 Sc 0.00231 0.80908 0.3702 0.0
O315 O 0.00135 0.81075 0.32579 0.0
C316 C 0.96177 0.75899 0.35446 0.0
C317 C 0.95868 0.8118 0.26602 0.0
C318 C 0.95877 0.85744 0.35946 0.0
C319 C 0.04201 0.81505 0.26487 0.0
C320 C 0.0449 0.76141 0.35313 0.0
C321 C 0.04176 0.86054 0.35765 0.0
O322 O 0.9708 0.75564 0.32854 0.0
O323 O 0.96753 0.83465 0.27593 0.0
O324 O 0.96956 0.83871 0.3752 0.0
O325 O 0.03395 0.79109 0.27261 0.0
O326 O 0.03524 0.77939 0.37055 0.0
O327 O 0.03168 0.86562 0.33251 0.0
O328 O 0.03509 0.75746 0.32765 0.0
O329 O 0.0313 0.83706 0.27479 0.0
O330 O 0.03327 0.84085 0.37371 0.0
O331 O 0.96911 0.78869 0.27324 0.0
O332 O 0.97129 0.77731 0.37163 0.0
O333 O 0.96715 0.86303 0.33376 0.0
Sc334 Sc 0.99641 0.21144 0.81374 0.0
Sc335 Sc 0.99486 0.13906 0.82198 0.0
Sc336 Sc 0.9933 0.18141 0.884 0.0
O337 O 0.99488 0.17735 0.83987 0.0
C338 C 0.03689 0.22803 0.86645 0.0
C339 C 0.03761 0.17118 0.78028 0.0
C340 C 0.03451 0.1302 0.87648 0.0
C341 C 0.95433 0.17166 0.77932 0.0
C342 C 0.95394 0.23058 0.86293 0.0
C343 C 0.95146 0.13178 0.87459 0.0
O344 O 0.02728 0.23143 0.84076 0.0
O345 O 0.02607 0.14945 0.79009 0.0
O346 O 0.02289 0.14893 0.89156 0.0
O347 O 0.96561 0.19508 0.78385 0.0
O348 O 0.96351 0.21407 0.88197 0.0
O349 O 0.96348 0.1235 0.85145 0.0
O350 O 0.96309 0.23171 0.83685 0.0
O351 O 0.96201 0.14975 0.79229 0.0
O352 O 0.95893 0.15335 0.88823 0.0
O353 O 0.03004 0.19527 0.78772 0.0
O354 O 0.02731 0.21011 0.88414 0.0
O355 O 0.02778 0.12499 0.85016 0.0
Sc356 Sc 0.50011 0.27533 0.30749 0.0
Sc357 Sc 0.50322 0.34796 0.31178 0.0
Sc358 Sc 0.5018 0.30874 0.37621 0.0
O359 O 0.50172 0.31062 0.33181 0.0
C360 C 0.45843 0.26138 0.36002 0.0
C361 C 0.46021 0.31491 0.27134 0.0
C362 C 0.46155 0.35975 0.36431 0.0
C363 C 0.54367 0.31248 0.27186 0.0
C364 C 0.5416 0.25865 0.35889 0.0
C365 C 0.54484 0.35741 0.36532 0.0
O366 O 0.46808 0.25704 0.33452 0.0
O367 O 0.47193 0.33681 0.2804 0.0
O368 O 0.47144 0.34091 0.38059 0.0
O369 O 0.53198 0.28943 0.27731 0.0
O370 O 0.53215 0.27648 0.37664 0.0
O371 O 0.53502 0.36375 0.34042 0.0
O372 O 0.53246 0.25588 0.33292 0.0
O373 O 0.53602 0.33505 0.28334 0.0
O374 O 0.5353 0.33776 0.38073 0.0
O375 O 0.46741 0.29097 0.27976 0.0
O376 O 0.46829 0.27964 0.37702 0.0
O377 O 0.47036 0.36447 0.33855 0.0
Sc378 Sc 0.49511 0.71597 0.80274 0.0
Sc379 Sc 0.49479 0.64331 0.80895 0.0
Sc380 Sc 0.49546 0.68422 0.87222 0.0
O381 O 0.49513 0.68121 0.82793 0.0
C382 C 0.53668 0.73305 0.85376 0.0
C383 C 0.53684 0.67641 0.76799 0.0
C384 C 0.53673 0.63415 0.8624 0.0
C385 C 0.45346 0.67705 0.76756 0.0
C386 C 0.45368 0.73226 0.85455 0.0
C387 C 0.45344 0.63392 0.86225 0.0
O388 O 0.52784 0.73528 0.82766 0.0
O389 O 0.52765 0.65423 0.77933 0.0
O390 O 0.52848 0.65493 0.87682 0.0
O391 O 0.46208 0.70083 0.77502 0.0
O392 O 0.46267 0.71404 0.87215 0.0
O393 O 0.46157 0.62864 0.83641 0.0
O394 O 0.46366 0.73576 0.82902 0.0
O395 O 0.46381 0.65487 0.77755 0.0
O396 O 0.46434 0.65265 0.87797 0.0
O397 O 0.5269 0.70008 0.77388 0.0
O398 O 0.5266 0.71593 0.87196 0.0
O399 O 0.52593 0.62695 0.83817 0.0
C400 C 0.17257 0.31096 0.91756 0.0
C401 C 0.16503 0.33263 0.93623 0.0
C402 C 0.15228 0.29464 0.9039 0.0
C403 C 0.12381 0.30022 0.90901 0.0
C404 C 0.11604 0.32271 0.92695 0.0
C405 C 0.13678 0.33864 0.94039 0.0
C406 C 0.1613 0.27087 0.88482 0.0
C407 C 0.08585 0.32926 0.93287 0.0
C408 C 0.0689 0.26849 0.85965 0.0
C409 C 0.05986 0.24604 0.87663 0.0
C410 C 0.08991 0.28624 0.86976 0.0
C411 C 0.10217 0.28132 0.89742 0.0
C412 C 0.09349 0.25848 0.91443 0.0
C413 C 0.07245 0.24114 0.90386 0.0
C414 C 0.09871 0.31045 0.85108 0.0
C415 C 0.10623 0.2525 0.94399 0.0
H416 H 0.1944 0.30655 0.91389 0.0
H417 H 0.13085 0.35522 0.955 0.0
H418 H 0.15492 0.2511 0.8951 0.0
H419 H 0.15093 0.27204 0.86317 0.0
H420 H 0.1842 0.27052 0.88141 0.0
H421 H 0.08331 0.34869 0.94544 0.0
H422 H 0.07422 0.33112 0.91199 0.0
H423 H 0.07621 0.31217 0.9455 0.0
H424 H 0.05932 0.27247 0.8386 0.0
H425 H 0.06577 0.22378 0.9171 0.0
H426 H 0.12144 0.30967 0.84693 0.0
H427 H 0.09445 0.33 0.86284 0.0
H428 H 0.08768 0.31094 0.82972 0.0
H429 H 0.12908 0.25 0.94183 0.0
H430 H 0.0975 0.23355 0.95421 0.0
H431 H 0.10258 0.27013 0.95896 0.0
C432 C 0.86208 0.65087 0.43353 0.0
C433 C 0.8339 0.6573 0.42953 0.0
C434 C 0.88294 0.66576 0.41895 0.0
C435 C 0.87538 0.68764 0.40004 0.0
C436 C 0.84695 0.69353 0.39502 0.0
C437 C 0.82653 0.67825 0.40982 0.0
C438 C 0.91307 0.6589 0.42481 0.0
C439 C 0.83812 0.71669 0.37496 0.0
C440 C 0.92692 0.74631 0.39272 0.0
C441 C 0.93926 0.74082 0.3655 0.0
C442 C 0.906 0.72923 0.40401 0.0
C443 C 0.89718 0.706 0.38776 0.0
C444 C 0.90929 0.70037 0.36019 0.0
C445 C 0.93019 0.7179 0.34932 0.0
C446 C 0.89344 0.73601 0.43345 0.0
C447 C 0.90035 0.6757 0.34234 0.0
H448 H 0.8679 0.63485 0.44891 0.0
H449 H 0.80474 0.68293 0.40625 0.0
H450 H 0.92456 0.65648 0.40392 0.0
H451 H 0.92302 0.6761 0.43697 0.0
H452 H 0.9154 0.63969 0.43786 0.0
H453 H 0.81524 0.71708 0.37151 0.0
H454 H 0.84461 0.73675 0.38446 0.0
H455 H 0.84852 0.71475 0.3534 0.0
H456 H 0.9336 0.76403 0.40536 0.0
H457 H 0.93959 0.71348 0.3283 0.0
H458 H 0.8969 0.71867 0.4489 0.0
H459 H 0.87061 0.73876 0.43129 0.0
H460 H 0.90242 0.75506 0.44313 0.0
H461 H 0.90431 0.65647 0.35483 0.0
H462 H 0.91149 0.67447 0.32108 0.0
H463 H 0.87765 0.67662 0.33803 0.0
C464 C 0.8239 0.32234 0.91242 0.0
C465 C 0.83296 0.34186 0.93297 0.0
C466 C 0.84291 0.3052 0.89803 0.0
C467 C 0.87161 0.30768 0.90441 0.0
C468 C 0.88098 0.32804 0.92431 0.0
C469 C 0.86149 0.34487 0.93843 0.0
C470 C 0.83217 0.28361 0.87706 0.0
C471 C 0.91148 0.33134 0.93152 0.0
C472 C 0.91712 0.24451 0.89826 0.0
C473 C 0.9316 0.2496 0.87213 0.0
C474 C 0.89714 0.26302 0.9086 0.0
C475 C 0.89156 0.28731 0.89251 0.0
C476 C 0.90553 0.29233 0.86575 0.0
C477 C 0.92538 0.27331 0.85578 0.0
C478 C 0.88243 0.25681 0.93711 0.0
C479 C 0.90001 0.31807 0.84808 0.0
H480 H 0.80181 0.31978 0.90836 0.0
H481 H 0.86855 0.36023 0.95399 0.0
H482 H 0.84381 0.28453 0.85612 0.0
H483 H 0.83549 0.26278 0.8865 0.0
H484 H 0.80963 0.28612 0.87238 0.0
H485 H 0.91553 0.34962 0.94555 0.0
H486 H 0.919 0.31268 0.94314 0.0
H487 H 0.92388 0.33339 0.91115 0.0
H488 H 0.92155 0.22608 0.91087 0.0
H489 H 0.93652 0.27739 0.8356 0.0
H490 H 0.85956 0.25701 0.93382 0.0
H491 H 0.88743 0.27301 0.95342 0.0
H492 H 0.88843 0.23647 0.94635 0.0
H493 H 0.87745 0.31993 0.84335 0.0
H494 H 0.91162 0.31825 0.82705 0.0
H495 H 0.90616 0.33652 0.86091 0.0
C496 C 0.176 0.674 0.40949 0.0
C497 C 0.16637 0.65371 0.42893 0.0
C498 C 0.15733 0.69121 0.39464 0.0
C499 C 0.12842 0.68798 0.3994 0.0
C500 C 0.11855 0.66698 0.41831 0.0
C501 C 0.13768 0.6501 0.4329 0.0
C502 C 0.16858 0.71347 0.37471 0.0
C503 C 0.08781 0.66288 0.4238 0.0
C504 C 0.08078 0.74936 0.3905 0.0
C505 C 0.06781 0.74363 0.36366 0.0
C506 C 0.10104 0.73172 0.40198 0.0
C507 C 0.10852 0.70774 0.38628 0.0
C508 C 0.0962 0.7022 0.3588 0.0
C509 C 0.07599 0.72027 0.34775 0.0
C510 C 0.11392 0.73839 0.43131 0.0
C511 C 0.1038 0.67681 0.34147 0.0
H512 H 0.1982 0.67702 0.40661 0.0
H513 H 0.1302 0.63415 0.44761 0.0
H514 H 0.15835 0.71239 0.35298 0.0
H515 H 0.16384 0.73404 0.38406 0.0
H516 H 0.19145 0.71186 0.37161 0.0
H517 H 0.08352 0.64456 0.43774 0.0
H518 H 0.07916 0.68138 0.43477 0.0
H519 H 0.07659 0.66039 0.40275 0.0
H520 H 0.07482 0.76748 0.40286 0.0
H521 H 0.06612 0.71568 0.32699 0.0
H522 H 0.13693 0.73891 0.42947 0.0
H523 H 0.10852 0.72203 0.44735 0.0
H524 H 0.10674 0.75853 0.44006 0.0
H525 H 0.12666 0.67583 0.33825 0.0
H526 H 0.09351 0.67632 0.31971 0.0
H527 H 0.09759 0.65805 0.35382 0.0
C528 C 0.67019 0.81826 0.90631 0.0
C529 C 0.66221 0.83771 0.92739 0.0
C530 C 0.65026 0.80267 0.89122 0.0
C531 C 0.6217 0.80676 0.89729 0.0
C532 C 0.61346 0.82742 0.91734 0.0
C533 C 0.63385 0.84263 0.93223 0.0
C534 C 0.65982 0.78086 0.86993 0.0
C535 C 0.58315 0.83241 0.92428 0.0
C536 C 0.56679 0.77504 0.84786 0.0
C537 C 0.55933 0.75143 0.86386 0.0
C538 C 0.58728 0.79323 0.85828 0.0
C539 C 0.60067 0.78749 0.88518 0.0
C540 C 0.59369 0.76339 0.90106 0.0
C541 C 0.57307 0.74571 0.89026 0.0
C542 C 0.59423 0.81882 0.84086 0.0
C543 C 0.60774 0.75642 0.92971 0.0
H544 H 0.69211 0.81479 0.90209 0.0
H545 H 0.62757 0.85751 0.94862 0.0
H546 H 0.65521 0.7601 0.87902 0.0
H547 H 0.64839 0.7827 0.84894 0.0
H548 H 0.68251 0.78221 0.86543 0.0
H549 H 0.58011 0.85116 0.93785 0.0
H550 H 0.57093 0.83463 0.90382 0.0
H551 H 0.57459 0.81441 0.93634 0.0
H552 H 0.55623 0.77963 0.82747 0.0
H553 H 0.56766 0.72738 0.90265 0.0
H554 H 0.61687 0.81959 0.83616 0.0
H555 H 0.58911 0.83744 0.85386 0.0
H556 H 0.58268 0.81975 0.81983 0.0
H557 H 0.63061 0.75529 0.9266 0.0
H558 H 0.60039 0.73647 0.93894 0.0
H559 H 0.60366 0.77291 0.94596 0.0
C560 C 0.32065 0.18445 0.41578 0.0
C561 C 0.32779 0.16287 0.4348 0.0
C562 C 0.34122 0.19968 0.40114 0.0
C563 C 0.36958 0.19314 0.40569 0.0
C564 C 0.37689 0.17082 0.42412 0.0
C565 C 0.35589 0.15595 0.43849 0.0
C566 C 0.33266 0.2233 0.38157 0.0
C567 C 0.40695 0.16332 0.42955 0.0
C568 C 0.42491 0.22186 0.3546 0.0
C569 C 0.43498 0.24431 0.37088 0.0
C570 C 0.40336 0.20512 0.36547 0.0
C571 C 0.39165 0.21104 0.39317 0.0
C572 C 0.40139 0.23388 0.40946 0.0
C573 C 0.4229 0.25021 0.39813 0.0
C574 C 0.39338 0.1809 0.34755 0.0
C575 C 0.38933 0.24091 0.43906 0.0
H576 H 0.29891 0.18954 0.41248 0.0
H577 H 0.36152 0.13944 0.45335 0.0
H578 H 0.33994 0.24308 0.39112 0.0
H579 H 0.34256 0.22127 0.35975 0.0
H580 H 0.30973 0.22438 0.37864 0.0
H581 H 0.40905 0.14412 0.44267 0.0
H582 H 0.41804 0.16052 0.40848 0.0
H583 H 0.41748 0.18035 0.44142 0.0
H584 H 0.43406 0.21714 0.33354 0.0
H585 H 0.43035 0.26758 0.41086 0.0
H586 H 0.37062 0.18239 0.34384 0.0
H587 H 0.39718 0.16143 0.35968 0.0
H588 H 0.40399 0.17965 0.32599 0.0
H589 H 0.36655 0.24418 0.43721 0.0
H590 H 0.39887 0.25974 0.44864 0.0
H591 H 0.39257 0.22348 0.45443 0.0
C592 C 0.3656 0.84698 0.93431 0.0
C593 C 0.33675 0.84386 0.93124 0.0
C594 C 0.38402 0.82976 0.91918 0.0
C595 C 0.37325 0.80899 0.90059 0.0
C596 C 0.34418 0.80643 0.89652 0.0
C597 C 0.32625 0.8239 0.91196 0.0
C598 C 0.41495 0.83312 0.92396 0.0
C599 C 0.33199 0.78447 0.8769 0.0
C600 C 0.42396 0.77437 0.84879 0.0
C601 C 0.43148 0.75091 0.86498 0.0
C602 C 0.40451 0.79325 0.85978 0.0
C603 C 0.39233 0.78846 0.88751 0.0
C604 C 0.39913 0.76441 0.9035 0.0
C605 C 0.4186 0.74594 0.89204 0.0
C606 C 0.39757 0.81867 0.84214 0.0
C607 C 0.3864 0.75853 0.93311 0.0
H608 H 0.37377 0.86267 0.94886 0.0
H609 H 0.30394 0.82123 0.90975 0.0
H610 H 0.42326 0.81458 0.93519 0.0
H611 H 0.42587 0.83493 0.90266 0.0
H612 H 0.41998 0.85155 0.93741 0.0
H613 H 0.30919 0.78697 0.87387 0.0
H614 H 0.34217 0.78493 0.85512 0.0
H615 H 0.3359 0.76381 0.88652 0.0
H616 H 0.43376 0.77838 0.82784 0.0
H617 H 0.42404 0.72777 0.90462 0.0
H618 H 0.40463 0.83735 0.85404 0.0
H619 H 0.37471 0.82043 0.83929 0.0
H620 H 0.40753 0.8185 0.8202 0.0
H621 H 0.39245 0.77494 0.94878 0.0
H622 H 0.39307 0.73831 0.94215 0.0
H623 H 0.36336 0.75865 0.93155 0.0
C624 C 0.63856 0.1484 0.43703 0.0
C625 C 0.66689 0.15337 0.43195 0.0
C626 C 0.61812 0.16414 0.42293 0.0
C627 C 0.6263 0.18537 0.40343 0.0
C628 C 0.65485 0.18991 0.39753 0.0
C629 C 0.67483 0.17383 0.41188 0.0
C630 C 0.58783 0.15866 0.42964 0.0
C631 C 0.66433 0.2125 0.377 0.0
C632 C 0.57179 0.2168 0.35342 0.0
C633 C 0.56397 0.24021 0.36943 0.0
C634 C 0.59223 0.19874 0.36409 0.0
C635 C 0.60514 0.20439 0.39127 0.0
C636 C 0.59768 0.2282 0.40725 0.0
C637 C 0.57718 0.24577 0.39617 0.0
C638 C 0.59974 0.17347 0.34654 0.0
C639 C 0.61118 0.23501 0.43624 0.0
H640 H 0.63239 0.13232 0.45222 0.0
H641 H 0.69674 0.17791 0.40812 0.0
H642 H 0.57883 0.17666 0.44122 0.0
H643 H 0.5759 0.15592 0.40906 0.0
H644 H 0.58489 0.14005 0.44351 0.0
H645 H 0.68711 0.21181 0.37289 0.0
H646 H 0.65329 0.21087 0.35575 0.0
H647 H 0.65912 0.23291 0.38648 0.0
H648 H 0.56167 0.21232 0.33277 0.0
H649 H 0.57148 0.26392 0.40863 0.0
H650 H 0.5951 0.15461 0.35943 0.0
H651 H 0.62239 0.17339 0.3418 0.0
H652 H 0.5882 0.17236 0.32551 0.0
H653 H 0.60713 0.21819 0.45218 0.0
H654 H 0.60338 0.25466 0.44563 0.0
H655 H 0.63407 0.23665 0.43354 0.0
C656 C 0.33164 0.54437 0.93798 0.0
C657 C 0.34185 0.51737 0.94054 0.0
C658 C 0.34717 0.56491 0.92364 0.0
C659 C 0.37368 0.55836 0.91211 0.0
C660 C 0.38375 0.53102 0.91395 0.0
C661 C 0.36757 0.51082 0.92779 0.0
C662 C 0.33556 0.59375 0.92151 0.0
C663 C 0.41203 0.52324 0.90211 0.0
C664 C 0.41219 0.60275 0.85701 0.0
C665 C 0.43119 0.61665 0.87508 0.0
C666 C 0.39223 0.5848 0.86892 0.0
C667 C 0.39176 0.5802 0.8995 0.0
C668 C 0.41037 0.59478 0.9179 0.0
C669 C 0.42967 0.61306 0.90547 0.0
C670 C 0.37226 0.57011 0.84872 0.0
C671 C 0.41083 0.59005 0.95057 0.0
H672 H 0.31187 0.54967 0.94787 0.0
H673 H 0.37528 0.48986 0.9289 0.0
H674 H 0.34816 0.60795 0.93519 0.0
H675 H 0.33682 0.60134 0.89863 0.0
H676 H 0.31356 0.59482 0.92889 0.0
H677 H 0.41661 0.50095 0.90497 0.0
H678 H 0.41337 0.52833 0.87849 0.0
H679 H 0.42843 0.53534 0.91346 0.0
H680 H 0.41308 0.60574 0.83352 0.0
H681 H 0.44437 0.62368 0.91952 0.0
H682 H 0.35062 0.57202 0.85694 0.0
H683 H 0.3773 0.5478 0.8481 0.0
H684 H 0.37317 0.57833 0.82604 0.0
H685 H 0.38976 0.59301 0.95993 0.0
H686 H 0.42555 0.60412 0.96195 0.0
H687 H 0.41706 0.56845 0.95521 0.0
C688 C 0.66704 0.44824 0.4382 0.0
C689 C 0.65649 0.47513 0.44055 0.0
C690 C 0.65168 0.42739 0.42421 0.0
C691 C 0.62496 0.43349 0.41294 0.0
C692 C 0.61452 0.46069 0.41459 0.0
C693 C 0.63057 0.48122 0.42797 0.0
C694 C 0.66371 0.39871 0.42219 0.0
C695 C 0.58598 0.46798 0.40306 0.0
C696 C 0.58591 0.38853 0.35897 0.0
C697 C 0.56737 0.37459 0.37754 0.0
C698 C 0.60603 0.40658 0.37035 0.0
C699 C 0.60702 0.4113 0.40089 0.0
C700 C 0.5889 0.39663 0.41977 0.0
C701 C 0.56951 0.37817 0.40787 0.0
C702 C 0.62554 0.4213 0.34963 0.0
C703 C 0.58894 0.40152 0.45241 0.0
H704 H 0.68696 0.44326 0.44794 0.0
H705 H 0.62259 0.50209 0.42886 0.0
H706 H 0.6516 0.38444 0.4363 0.0
H707 H 0.66216 0.39092 0.39943 0.0
H708 H 0.68585 0.39806 0.42914 0.0
H709 H 0.58106 0.4902 0.40585 0.0
H710 H 0.58447 0.46281 0.37949 0.0
H711 H 0.56991 0.45565 0.41469 0.0
H712 H 0.58452 0.38551 0.33551 0.0
H713 H 0.55512 0.36749 0.42226 0.0
H714 H 0.6473 0.41991 0.35764 0.0
H715 H 0.62006 0.4435 0.34859 0.0
H716 H 0.62455 0.41269 0.32714 0.0
H717 H 0.61021 0.3989 0.46139 0.0
H718 H 0.57462 0.38732 0.46419 0.0
H719 H 0.58249 0.42306 0.45697 0.0
C720 C 0.62724 0.53257 0.9577 0.0
C721 C 0.65404 0.5276 0.9469 0.0
C722 C 0.60938 0.55107 0.94355 0.0
C723 C 0.61873 0.56513 0.91821 0.0
C724 C 0.6461 0.56086 0.90773 0.0
C725 C 0.6634 0.54194 0.92212 0.0
C726 C 0.58021 0.5549 0.95518 0.0
C727 C 0.65688 0.57584 0.88104 0.0
C728 C 0.56255 0.58961 0.86623 0.0
C729 C 0.5592 0.6171 0.875 0.0
C730 C 0.58232 0.5726 0.87971 0.0
C731 C 0.59939 0.58351 0.90215 0.0
C732 C 0.59688 0.61152 0.9103 0.0
C733 C 0.57666 0.62795 0.89676 0.0
C734 C 0.58425 0.54271 0.87065 0.0
C735 C 0.61507 0.62395 0.93381 0.0
H736 H 0.61989 0.52121 0.97665 0.0
H737 H 0.68423 0.5382 0.91392 0.0
H738 H 0.57631 0.57703 0.95975 0.0
H739 H 0.56487 0.54826 0.93845 0.0
H740 H 0.57645 0.54293 0.97555 0.0
H741 H 0.67921 0.57147 0.87682 0.0
H742 H 0.64468 0.56962 0.86152 0.0
H743 H 0.65423 0.59843 0.88373 0.0
H744 H 0.54907 0.58108 0.84948 0.0
H745 H 0.57439 0.64929 0.90341 0.0
H746 H 0.57864 0.52925 0.88942 0.0
H747 H 0.60592 0.5376 0.86432 0.0
H748 H 0.57026 0.53774 0.85203 0.0
H749 H 0.61033 0.61413 0.95518 0.0
H750 H 0.612 0.64657 0.93595 0.0
H751 H 0.63733 0.61995 0.92899 0.0
C752 C 0.37087 0.48061 0.42823 0.0
C753 C 0.34535 0.4725 0.44052 0.0
C754 C 0.38815 0.46154 0.41424 0.0
C755 C 0.3794 0.43377 0.41178 0.0
C756 C 0.35307 0.42566 0.42274 0.0
C757 C 0.33644 0.44508 0.43726 0.0
C758 C 0.41622 0.47094 0.40306 0.0
C759 C 0.34287 0.3963 0.41995 0.0
C760 C 0.42064 0.39094 0.35769 0.0
C761 C 0.43937 0.37743 0.37632 0.0
C762 C 0.40009 0.40846 0.36901 0.0
C763 C 0.39879 0.41301 0.39956 0.0
C764 C 0.41738 0.39909 0.41848 0.0
C765 C 0.43726 0.38124 0.40664 0.0
C766 C 0.38014 0.42249 0.34829 0.0
C767 C 0.41699 0.40384 0.45115 0.0
H768 H 0.37758 0.50191 0.42986 0.0
H769 H 0.31682 0.43858 0.44676 0.0
H770 H 0.43297 0.45977 0.41485 0.0
H771 H 0.41837 0.46598 0.37949 0.0
H772 H 0.41954 0.49345 0.40601 0.0
H773 H 0.32077 0.39404 0.4267 0.0
H774 H 0.34506 0.38909 0.39704 0.0
H775 H 0.35576 0.38257 0.43385 0.0
H776 H 0.42201 0.38777 0.33425 0.0
H777 H 0.45179 0.37093 0.42111 0.0
H778 H 0.38402 0.44505 0.34829 0.0
H779 H 0.35837 0.41921 0.35563 0.0
H780 H 0.38225 0.41479 0.32551 0.0
H781 H 0.42179 0.4258 0.45586 0.0
H782 H 0.4323 0.39073 0.46288 0.0
H783 H 0.39596 0.3995 0.46007 0.0
C784 C 0.86251 0.03058 0.97071 0.0
C785 C 0.83679 0.02243 0.959 0.0
C786 C 0.87895 0.0505 0.95675 0.0
C787 C 0.86921 0.06299 0.93071 0.0
C788 C 0.84253 0.05615 0.91972 0.0
C789 C 0.82667 0.03577 0.93391 0.0
C790 C 0.90734 0.05718 0.96912 0.0
C791 C 0.83129 0.06942 0.89228 0.0
C792 C 0.90994 0.12629 0.90718 0.0
C793 C 0.92861 0.11491 0.88691 0.0
C794 C 0.88946 0.10992 0.92058 0.0
C795 C 0.88802 0.08146 0.91393 0.0
C796 C 0.90621 0.07006 0.89282 0.0
C797 C 0.92614 0.08699 0.87938 0.0
C798 C 0.86999 0.12287 0.94253 0.0
C799 C 0.90551 0.03971 0.8854 0.0
H800 H 0.87014 0.02082 0.99049 0.0
H801 H 0.80688 0.02951 0.92465 0.0
H802 H 0.92367 0.0508 0.95336 0.0
H803 H 0.90955 0.07973 0.97243 0.0
H804 H 0.91123 0.04661 0.99031 0.0
H805 H 0.80894 0.06452 0.88875 0.0
H806 H 0.83382 0.09216 0.89328 0.0
H807 H 0.84324 0.06206 0.87306 0.0
H808 H 0.91152 0.14795 0.91281 0.0
H809 H 0.94052 0.07805 0.86378 0.0
H810 H 0.87477 0.11498 0.96475 0.0
H811 H 0.84812 0.11715 0.93758 0.0
H812 H 0.87176 0.14572 0.94281 0.0
H813 H 0.91115 0.02742 0.90502 0.0
H814 H 0.92011 0.03439 0.86743 0.0
H815 H 0.8842 0.03343 0.87884 0.0
C816 C 0.16104 0.95466 0.4303 0.0
C817 C 0.15002 0.98126 0.4337 0.0
C818 C 0.14603 0.93402 0.4156 0.0
C819 C 0.11916 0.93999 0.40465 0.0
C820 C 0.10829 0.96696 0.40722 0.0
C821 C 0.124 0.98733 0.42133 0.0
C822 C 0.15852 0.90561 0.41265 0.0
C823 C 0.07956 0.97408 0.39611 0.0
C824 C 0.08082 0.89416 0.35076 0.0
C825 C 0.06325 0.87924 0.36951 0.0
C826 C 0.1002 0.91311 0.36197 0.0
C827 C 0.10139 0.9177 0.39253 0.0
C828 C 0.08406 0.90229 0.41156 0.0
C829 C 0.06543 0.883 0.39983 0.0
C830 C 0.1189 0.92866 0.34111 0.0
C831 C 0.08432 0.907 0.44423 0.0
H832 H 0.18104 0.94967 0.43987 0.0
H833 H 0.11565 0.00801 0.42304 0.0
H834 H 0.14696 0.89087 0.42674 0.0
H835 H 0.15665 0.89821 0.38977 0.0
H836 H 0.18081 0.90522 0.4191 0.0
H837 H 0.0745 0.99625 0.3991 0.0
H838 H 0.07776 0.96899 0.37254 0.0
H839 H 0.06375 0.96157 0.40792 0.0
H840 H 0.07937 0.89106 0.32732 0.0
H841 H 0.05176 0.87162 0.41439 0.0
H842 H 0.14087 0.92737 0.34846 0.0
H843 H 0.11312 0.9508 0.34092 0.0
H844 H 0.11744 0.92063 0.31841 0.0
H845 H 0.10568 0.90439 0.45298 0.0
H846 H 0.07017 0.89266 0.45606 0.0
H847 H 0.07782 0.92848 0.44903 0.0
C848 C 0.15889 0.04845 0.95574 0.0
C849 C 0.15112 0.02069 0.95808 0.0
C850 C 0.14112 0.06767 0.9424 0.0
C851 C 0.11488 0.05885 0.93179 0.0
C852 C 0.1068 0.03088 0.93465 0.0
C853 C 0.12516 0.01207 0.94755 0.0
C854 C 0.15056 0.09725 0.93927 0.0
C855 C 0.07876 0.02081 0.92412 0.0
C856 C 0.05686 0.11065 0.92118 0.0
C857 C 0.05617 0.1132 0.89061 0.0
C858 C 0.07623 0.0934 0.93493 0.0
C859 C 0.09568 0.07876 0.91771 0.0
C860 C 0.09571 0.08195 0.88692 0.0
C861 C 0.07575 0.09894 0.87368 0.0
C862 C 0.07525 0.09012 0.96779 0.0
C863 C 0.1165 0.067 0.86792 0.0
H864 H 0.1791 0.05496 0.96374 0.0
H865 H 0.11916 0.99058 0.94964 0.0
H866 H 0.15078 0.10318 0.91581 0.0
H867 H 0.13572 0.11118 0.95049 0.0
H868 H 0.17166 0.10071 0.94852 0.0
H869 H 0.07542 -0.00146 0.92873 0.0
H870 H 0.06192 0.03274 0.93483 0.0
H871 H 0.07685 0.0242 0.90019 0.0
H872 H 0.04168 0.12151 0.93437 0.0
H873 H 0.07547 0.10106 0.85007 0.0
H874 H 0.09592 0.09478 0.97743 0.0
H875 H 0.07016 0.06842 0.97343 0.0
H876 H 0.05953 0.10378 0.97809 0.0
H877 H 0.13797 0.07102 0.8758 0.0
H878 H 0.11508 0.07331 0.84459 0.0
H879 H 0.11289 0.04443 0.86936 0.0
C880 C 0.83829 0.94654 0.43648 0.0
C881 C 0.84826 0.97374 0.4382 0.0
C882 C 0.85357 0.92605 0.42198 0.0
C883 C 0.87967 0.93282 0.40954 0.0
C884 C 0.88957 0.9603 0.41065 0.0
C885 C 0.87357 0.98047 0.42458 0.0
C886 C 0.84214 0.89704 0.42063 0.0
C887 C 0.91748 0.96828 0.3979 0.0
C888 C 0.93569 0.87858 0.40268 0.0
C889 C 0.93662 0.87458 0.37233 0.0
C890 C 0.91662 0.8969 0.41518 0.0
C891 C 0.89761 0.91104 0.39692 0.0
C892 C 0.89746 0.906 0.36642 0.0
C893 C 0.91726 0.88806 0.3544 0.0
C894 C 0.91779 0.90216 0.44774 0.0
C895 C 0.87698 0.92019 0.34641 0.0
H896 H 0.81887 0.94105 0.44708 0.0
H897 H 0.88108 0.00156 0.42501 0.0
H898 H 0.84294 0.88918 0.39786 0.0
H899 H 0.85514 0.88316 0.43424 0.0
H900 H 0.82032 0.8958 0.42859 0.0
H901 H 0.92197 0.99065 0.40031 0.0
H902 H 0.93424 0.9565 0.40897 0.0
H903 H 0.91826 0.96295 0.37433 0.0
H904 H 0.95073 0.8683 0.4166 0.0
H905 H 0.91774 0.88475 0.33095 0.0
H906 H 0.89697 0.89905 0.45769 0.0
H907 H 0.92392 0.92392 0.45177 0.0
H908 H 0.9329 0.88849 0.45903 0.0
H909 H 0.85553 0.91818 0.3552 0.0
H910 H 0.87745 0.91162 0.32388 0.0
H911 H 0.88188 0.94253 0.34522 0.0
C912 C 0.36355 0.32764 0.1321 0.0
C913 C 0.33935 0.34294 0.13748 0.0
C914 C 0.381 0.3195 0.15505 0.0
C915 C 0.37386 0.3265 0.18413 0.0
C916 C 0.34826 0.33985 0.18992 0.0
C917 C 0.33132 0.34805 0.16646 0.0
C918 C 0.40813 0.30532 0.14791 0.0
C919 C 0.33973 0.34726 0.22071 0.0
C920 C 0.41864 0.29607 0.24462 0.0
C921 C 0.43749 0.31771 0.24969 0.0
C922 C 0.39721 0.29881 0.2239 0.0
C923 C 0.39496 0.32356 0.20763 0.0
C924 C 0.41381 0.34549 0.21281 0.0
C925 C 0.43469 0.34236 0.23387 0.0
C926 C 0.37715 0.27521 0.21924 0.0
C927 C 0.41233 0.37213 0.19565 0.0
H928 H 0.36948 0.32304 0.10974 0.0
H929 H 0.31264 0.35986 0.17079 0.0
H930 H 0.42567 0.31977 0.15192 0.0
H931 H 0.41126 0.28714 0.16228 0.0
H932 H 0.40905 0.29848 0.12474 0.0
H933 H 0.31745 0.35321 0.22198 0.0
H934 H 0.34344 0.32973 0.23583 0.0
H935 H 0.35251 0.36488 0.22847 0.0
H936 H 0.42053 0.27706 0.25696 0.0
H937 H 0.44921 0.35916 0.23754 0.0
H938 H 0.3793 0.26716 0.19665 0.0
H939 H 0.35541 0.28252 0.2217 0.0
H940 H 0.38071 0.258 0.23487 0.0
H941 H 0.41517 0.36786 0.17199 0.0
H942 H 0.4284 0.38727 0.2026 0.0
H943 H 0.39154 0.38169 0.19836 0.0
C944 C 0.63213 0.66669 0.62767 0.0
C945 C 0.65727 0.65282 0.63275 0.0
C946 C 0.6146 0.67401 0.65086 0.0
C947 C 0.62267 0.66779 0.67989 0.0
C948 C 0.64912 0.65604 0.68534 0.0
C949 C 0.66608 0.64849 0.66165 0.0
C950 C 0.58652 0.68641 0.64407 0.0
C951 C 0.65869 0.64964 0.71606 0.0
C952 C 0.57703 0.69687 0.74034 0.0
C953 C 0.55962 0.67428 0.74636 0.0
C954 C 0.59838 0.69488 0.71943 0.0
C955 C 0.60189 0.66993 0.70382 0.0
C956 C 0.58451 0.64704 0.71 0.0
C957 C 0.56378 0.64942 0.73136 0.0
C958 C 0.61695 0.71949 0.71383 0.0
C959 C 0.5873 0.62018 0.69351 0.0
H960 H 0.62556 0.67077 0.60539 0.0
H961 H 0.68546 0.63778 0.66579 0.0
H962 H 0.56996 0.67107 0.64896 0.0
H963 H 0.58263 0.7047 0.65801 0.0
H964 H 0.58464 0.69264 0.62076 0.0
H965 H 0.68134 0.64511 0.71694 0.0
H966 H 0.65416 0.66713 0.73094 0.0
H967 H 0.64722 0.63138 0.72443 0.0
H968 H 0.57407 0.71605 0.7521 0.0
H969 H 0.55032 0.63193 0.73578 0.0
H970 H 0.61375 0.72714 0.69121 0.0
H971 H 0.63913 0.71342 0.71574 0.0
H972 H 0.61282 0.73665 0.72931 0.0
H973 H 0.58381 0.62377 0.66981 0.0
H974 H 0.57226 0.60429 0.70118 0.0
H975 H 0.60866 0.6119 0.69605 0.0
C976 C 0.66534 0.33079 0.15151 0.0
C977 C 0.65548 0.35219 0.13371 0.0
C978 C 0.64899 0.32035 0.17452 0.0
C979 C 0.62209 0.33135 0.17934 0.0
C980 C 0.61172 0.35223 0.16061 0.0
C981 C 0.62864 0.36253 0.13818 0.0
C982 C 0.66083 0.29835 0.19428 0.0
C983 C 0.583 0.36425 0.16474 0.0
C984 C 0.56644 0.29677 0.22557 0.0
C985 C 0.56651 0.3138 0.25032 0.0
C986 C 0.58553 0.30119 0.20273 0.0
C987 C 0.60532 0.32279 0.20511 0.0
C988 C 0.60675 0.3386 0.23107 0.0
C989 C 0.58714 0.33409 0.25324 0.0
C990 C 0.58322 0.28407 0.17528 0.0
C991 C 0.62787 0.36148 0.23474 0.0
H992 H 0.68616 0.32286 0.148 0.0
H993 H 0.62091 0.37881 0.12408 0.0
H994 H 0.66399 0.30696 0.21653 0.0
H995 H 0.64603 0.28086 0.19637 0.0
H996 H 0.68107 0.29038 0.18616 0.0
H997 H 0.57734 0.37886 0.14697 0.0
H998 H 0.56721 0.34753 0.1655 0.0
H999 H 0.58202 0.37539 0.18591 0.0
H1000 H 0.55044 0.2811 0.22327 0.0
H1001 H 0.58747 0.34702 0.27258 0.0
H1002 H 0.60403 0.27688 0.16812 0.0
H1003 H 0.57457 0.29694 0.15738 0.0
H1004 H 0.56945 0.26585 0.17836 0.0
H1005 H 0.64895 0.35418 0.22865 0.0
H1006 H 0.62852 0.3694 0.25753 0.0
H1007 H 0.62257 0.37884 0.21993 0.0
C1008 C 0.32471 0.6452 0.66237 0.0
C1009 C 0.33316 0.64981 0.63341 0.0
C1010 C 0.34137 0.65384 0.68589 0.0
C1011 C 0.36712 0.66705 0.68016 0.0
C1012 C 0.37456 0.67378 0.65106 0.0
C1013 C 0.35736 0.66526 0.62805 0.0
C1014 C 0.33248 0.64681 0.71669 0.0
C1015 C 0.40186 0.68779 0.64398 0.0
C1016 C 0.41251 0.69675 0.74063 0.0
C1017 C 0.43077 0.67473 0.74585 0.0
C1018 C 0.39103 0.69439 0.71989 0.0
C1019 C 0.38822 0.66967 0.70371 0.0
C1020 C 0.40654 0.64739 0.70901 0.0
C1021 C 0.4274 0.65012 0.73014 0.0
C1022 C 0.37151 0.71833 0.71515 0.0
C1023 C 0.40449 0.62078 0.69192 0.0
H1024 H 0.30602 0.63332 0.66669 0.0
H1025 H 0.36359 0.6695 0.60569 0.0
H1026 H 0.3447 0.62892 0.72466 0.0
H1027 H 0.3366 0.66432 0.7317 0.0
H1028 H 0.31003 0.64137 0.71785 0.0
H1029 H 0.40286 0.69474 0.62083 0.0
H1030 H 0.40528 0.70585 0.6584 0.0
H1031 H 0.4192 0.67315 0.6479 0.0
H1032 H 0.41485 0.71572 0.75292 0.0
H1033 H 0.44151 0.63307 0.73392 0.0
H1034 H 0.34961 0.71138 0.71757 0.0
H1035 H 0.37388 0.72637 0.69255 0.0
H1036 H 0.37543 0.73546 0.73076 0.0
H1037 H 0.38353 0.61151 0.69473 0.0
H1038 H 0.42029 0.60541 0.69886 0.0
H1039 H 0.40736 0.625 0.66824 0.0
C1040 C 0.82785 0.83432 0.16131 0.0
C1041 C 0.83629 0.82976 0.13234 0.0
C1042 C 0.84507 0.82692 0.18482 0.0
C1043 C 0.87142 0.81507 0.1791 0.0
C1044 C 0.87894 0.80828 0.15007 0.0
C1045 C 0.86115 0.81549 0.12705 0.0
C1046 C 0.83607 0.83392 0.21557 0.0
C1047 C 0.90687 0.7957 0.143 0.0
C1048 C 0.9309 0.83651 0.2283 0.0
C1049 C 0.93571 0.81243 0.24452 0.0
C1050 C 0.90986 0.83757 0.20719 0.0
C1051 C 0.89283 0.81412 0.20249 0.0
C1052 C 0.89708 0.78992 0.21923 0.0
C1053 C 0.91873 0.78925 0.2399 0.0
C1054 C 0.90626 0.86368 0.18948 0.0
C1055 C 0.87891 0.76477 0.21519 0.0
H1056 H 0.80866 0.84531 0.16561 0.0
H1057 H 0.86741 0.81126 0.10472 0.0
H1058 H 0.8413 0.81695 0.23091 0.0
H1059 H 0.8473 0.85265 0.22302 0.0
H1060 H 0.81335 0.83801 0.21685 0.0
H1061 H 0.90799 0.78833 0.12003 0.0
H1062 H 0.92344 0.81139 0.14631 0.0
H1063 H 0.91141 0.77817 0.15784 0.0
H1064 H 0.94404 0.85444 0.23163 0.0
H1065 H 0.92222 0.77067 0.2526 0.0
H1066 H 0.88487 0.87181 0.19231 0.0
H1067 H 0.90912 0.85917 0.16587 0.0
H1068 H 0.92129 0.88005 0.19587 0.0
H1069 H 0.85667 0.77045 0.21764 0.0
H1070 H 0.88387 0.74819 0.23115 0.0
H1071 H 0.88157 0.75648 0.19276 0.0
C1072 C 0.12753 0.16106 0.63645 0.0
C1073 C 0.15262 0.14663 0.63973 0.0
C1074 C 0.11108 0.16769 0.66073 0.0
C1075 C 0.12019 0.16018 0.68907 0.0
C1076 C 0.14648 0.14752 0.69276 0.0
C1077 C 0.16234 0.14071 0.66799 0.0
C1078 C 0.08312 0.18112 0.65582 0.0
C1079 C 0.15711 0.13968 0.72271 0.0
C1080 C 0.07846 0.18989 0.75223 0.0
C1081 C 0.06005 0.16809 0.75832 0.0
C1082 C 0.09898 0.1873 0.7305 0.0
C1083 C 0.1007 0.16257 0.71417 0.0
C1084 C 0.0825 0.14037 0.7206 0.0
C1085 C 0.06259 0.14333 0.74273 0.0
C1086 C 0.11844 0.21117 0.72462 0.0
C1087 C 0.08342 0.11376 0.70343 0.0
H1088 H 0.12024 0.16635 0.61472 0.0
H1089 H 0.18167 0.12952 0.67075 0.0
H1090 H 0.06631 0.16632 0.66156 0.0
H1091 H 0.0807 0.19935 0.67021 0.0
H1092 H 0.08016 0.18773 0.63275 0.0
H1093 H 0.17951 0.13406 0.72228 0.0
H1094 H 0.15413 0.15689 0.73837 0.0
H1095 H 0.14513 0.12174 0.73107 0.0
H1096 H 0.0768 0.20899 0.76439 0.0
H1097 H 0.04841 0.12641 0.7472 0.0
H1098 H 0.1143 0.21977 0.70255 0.0
H1099 H 0.14036 0.20401 0.72484 0.0
H1100 H 0.11606 0.22795 0.74096 0.0
H1101 H 0.07875 0.11797 0.68006 0.0
H1102 H 0.06827 0.09825 0.71168 0.0
H1103 H 0.10458 0.10471 0.70444 0.0
C1104 C 0.17616 0.85224 0.17084 0.0
C1105 C 0.17163 0.84739 0.141 0.0
C1106 C 0.15692 0.84318 0.19187 0.0
C1107 C 0.13245 0.82934 0.18271 0.0
C1108 C 0.12857 0.82303 0.15276 0.0
C1109 C 0.14829 0.83206 0.13226 0.0
C1110 C 0.16196 0.84994 0.22367 0.0
C1111 C 0.10262 0.80858 0.14208 0.0
C1112 C 0.08406 0.79657 0.23886 0.0
C1113 C 0.06485 0.81789 0.24336 0.0
C1114 C 0.10641 0.79994 0.2193 0.0
C1115 C 0.10923 0.82504 0.20367 0.0
C1116 C 0.08962 0.84641 0.20783 0.0
C1117 C 0.06782 0.84263 0.22772 0.0
C1118 C 0.12715 0.77688 0.2156 0.0
C1119 C 0.09165 0.87335 0.19127 0.0
H1120 H 0.19438 0.86381 0.17764 0.0
H1121 H 0.14457 0.82851 0.10917 0.0
H1122 H 0.14743 0.86642 0.23065 0.0
H1123 H 0.15785 0.83163 0.23763 0.0
H1124 H 0.18359 0.85717 0.22764 0.0
H1125 H 0.10439 0.80216 0.11883 0.0
H1126 H 0.09814 0.79009 0.15561 0.0
H1127 H 0.08457 0.82268 0.14417 0.0
H1128 H 0.08197 0.77747 0.25104 0.0
H1129 H 0.05292 0.85913 0.23088 0.0
H1130 H 0.14827 0.78425 0.22162 0.0
H1131 H 0.128 0.7704 0.19235 0.0
H1132 H 0.12195 0.75862 0.22928 0.0
H1133 H 0.11164 0.88377 0.19643 0.0
H1134 H 0.07436 0.88765 0.19664 0.0
H1135 H 0.09138 0.8694 0.16736 0.0
C1136 C 0.87316 0.13311 0.63736 0.0
C1137 C 0.84508 0.14076 0.6352 0.0
C1138 C 0.88921 0.14045 0.66169 0.0
C1139 C 0.87681 0.15544 0.68478 0.0
C1140 C 0.84851 0.16331 0.68286 0.0
C1141 C 0.83297 0.15594 0.658 0.0
C1142 C 0.91936 0.13169 0.66288 0.0
C1143 C 0.83461 0.17914 0.70721 0.0
C1144 C 0.91483 0.14594 0.75649 0.0
C1145 C 0.93203 0.16936 0.7571 0.0
C1146 C 0.89549 0.14198 0.73393 0.0
C1147 C 0.8935 0.16179 0.71127 0.0
C1148 C 0.9098 0.18612 0.71249 0.0
C1149 C 0.9288 0.1897 0.73551 0.0
C1150 C 0.87821 0.11591 0.7336 0.0
C1151 C 0.90835 0.20762 0.68861 0.0
H1152 H 0.88256 0.12083 0.62022 0.0
H1153 H 0.81137 0.16214 0.65639 0.0
H1154 H 0.93293 0.1499 0.66658 0.0
H1155 H 0.92258 0.11734 0.6815 0.0
H1156 H 0.92616 0.12126 0.64247 0.0
H1157 H 0.81264 0.18432 0.70201 0.0
H1158 H 0.83501 0.16678 0.72765 0.0
H1159 H 0.84617 0.19853 0.71159 0.0
H1160 H 0.91688 0.13031 0.77334 0.0
H1161 H 0.94197 0.20789 0.73586 0.0
H1162 H 0.8852 0.10243 0.71543 0.0
H1163 H 0.85598 0.12082 0.72969 0.0
H1164 H 0.87993 0.10415 0.7544 0.0
H1165 H 0.9173 0.19908 0.66816 0.0
H1166 H 0.91999 0.22667 0.69439 0.0
H1167 H 0.8864 0.21315 0.68394 0.0
loop_
_geom_bond_atom_site_label_1
_geom_bond_atom_site_label_2
_geom_bond_distance
_geom_bond_site_symmetry_2
_ccdc_geom_bond_type
C0 C1 1.386 . S
C0 C2 1.397 . S
C0 H24 0.931 . S
C1 C0 1.386 . S
C1 C5 1.397 . S
C2 C0 1.397 . S
C2 C3 1.384 . S
C2 H25 0.930 . S
C3 C2 1.384 . S
C3 C4 1.377 . S
C3 C6 1.481 . S
C4 C3 1.377 . S
C4 C5 1.389 . S
C4 H26 0.929 . S
C5 C1 1.397 . S
C5 C4 1.389 . S
C5 H27 0.931 . S
C6 C3 1.481 . S
C6 C7 1.387 . S
C6 C11 1.390 1_556 S
C7 C6 1.387 . S
C7 C8 1.400 . S
C7 H28 0.930 . S
C8 C7 1.400 . S
C8 C9 1.377 1_556 S
C8 C17 1.511 . S
C9 C8 1.377 1_554 S
C9 C10 1.392 . S
C9 H30 0.931 . S
C10 C9 1.392 . S
C10 C11 1.361 . S
C10 C12 1.500 . S
C11 C6 1.390 1_554 S
C11 C10 1.361 . S
C11 H29 0.931 . S
C12 C10 1.500 . S
C12 C13 1.371 . S
C12 C14 1.365 . S
C13 C12 1.371 . S
C13 C23 1.386 . S
C13 H31 0.931 . S
C14 C12 1.365 . S
C14 C15 1.409 . S
C14 H32 0.929 . S
C15 C14 1.409 . S
C15 C16 1.380 . S
C15 H33 0.930 . S
C16 C15 1.380 . S
C16 C23 1.357 . S
C17 C8 1.511 . S
C17 C18 1.341 . S
C17 C19 1.371 . S
C18 C17 1.341 . S
C18 C22 1.394 . S
C18 H34 0.930 . S
C19 C17 1.371 . S
C19 C20 1.392 . S
C19 H35 0.931 1_556 S
C20 C19 1.392 . S
C20 C21 1.331 . S
C20 H38 0.932 . S
C21 C20 1.331 . S
C21 C22 1.336 . S
C22 C18 1.394 . S
C22 C21 1.336 . S
C22 H37 0.929 . S
C23 C13 1.386 . S
C23 C16 1.357 . S
C23 H36 0.928 . S
H24 C0 0.931 . S
H25 C2 0.930 . S
H26 C4 0.929 . S
H27 C5 0.931 . S
H28 C7 0.930 . S
H29 C11 0.931 . S
H30 C9 0.931 . S
H31 C13 0.931 . S
H32 C14 0.929 . S
H33 C15 0.930 . S
H34 C18 0.930 . S
H35 C19 0.931 1_554 S
H36 C23 0.928 . S
H37 C22 0.929 . S
H38 C20 0.932 . S
C39 C40 1.386 . S
C39 C41 1.397 . S
C39 H63 0.931 . S
C40 C39 1.386 . S
C40 C44 1.397 . S
C41 C39 1.397 . S
C41 C42 1.384 . S
C41 H64 0.930 . S
C42 C41 1.384 . S
C42 C43 1.377 . S
C42 C45 1.481 . S
C43 C42 1.377 . S
C43 C44 1.389 . S
C43 H65 0.929 . S
C44 C40 1.397 . S
C44 C43 1.389 . S
C44 H66 0.931 . S
C45 C42 1.481 . S
C45 C46 1.387 . S
C45 C50 1.390 . S
C46 C45 1.387 . S
C46 C47 1.401 . S
C46 H67 0.930 . S
C47 C46 1.401 . S
C47 C48 1.376 . S
C47 C56 1.511 . S
C48 C47 1.376 . S
C48 C49 1.392 . S
C48 H69 0.931 . S
C49 C48 1.392 . S
C49 C50 1.361 . S
C49 C51 1.500 . S
C50 C45 1.390 . S
C50 C49 1.361 . S
C50 H68 0.931 . S
C51 C49 1.500 . S
C51 C52 1.371 . S
C51 C53 1.365 . S
C52 C51 1.371 . S
C52 C62 1.386 . S
C52 H70 0.931 . S
C53 C51 1.365 . S
C53 C54 1.409 . S
C53 H71 0.929 . S
C54 C53 1.409 . S
C54 C55 1.380 . S
C54 H72 0.930 . S
C55 C54 1.380 . S
C55 C62 1.357 . S
C56 C47 1.511 . S
C56 C57 1.341 . S
C56 C58 1.371 . S
C57 C56 1.341 . S
C57 C61 1.394 . S
C57 H73 0.930 . S
C58 C56 1.371 . S
C58 C59 1.392 . S
C58 H74 0.931 . S
C59 C58 1.392 . S
C59 C60 1.331 . S
C59 H77 0.932 . S
C60 C59 1.331 . S
C60 C61 1.336 . S
C61 C57 1.394 . S
C61 C60 1.336 . S
C61 H76 0.929 . S
C62 C52 1.386 . S
C62 C55 1.357 . S
C62 H75 0.928 . S
H63 C39 0.931 . S
H64 C41 0.930 . S
H65 C43 0.929 . S
H66 C44 0.931 . S
H67 C46 0.930 . S
H68 C50 0.931 . S
H69 C48 0.931 . S
H70 C52 0.931 . S
H71 C53 0.929 . S
H72 C54 0.930 . S
H73 C57 0.930 . S
H74 C58 0.931 . S
H75 C62 0.928 . S
H76 C61 0.929 . S
H77 C59 0.932 . S
C78 C79 1.386 . S
C78 C80 1.397 . S
C78 H102 0.931 . S
C79 C78 1.386 . S
C79 C83 1.397 . S
C80 C78 1.397 . S
C80 C81 1.384 . S
C80 H103 0.930 . S
C81 C80 1.384 . S
C81 C82 1.377 . S
C81 C84 1.481 . S
C82 C81 1.377 . S
C82 C83 1.389 . S
C82 H104 0.929 1_556 S
C83 C79 1.397 . S
C83 C82 1.389 . S
C83 H105 0.931 . S
C84 C81 1.481 . S
C84 C85 1.387 . S
C84 C89 1.390 1_556 S
C85 C84 1.387 . S
C85 C86 1.418 . S
C85 H106 0.930 . S
C86 C85 1.418 . S
C86 C87 1.349 1_556 S
C86 C95 1.523 . S
C87 C86 1.349 1_554 S
C87 C88 1.392 . S
C87 H108 0.931 . S
C88 C87 1.392 . S
C88 C89 1.361 . S
C88 C90 1.500 . S
C89 C84 1.390 1_554 S
C89 C88 1.361 . S
C89 H107 0.931 . S
C90 C88 1.500 . S
C90 C91 1.371 . S
C90 C92 1.365 . S
C91 C90 1.371 . S
C91 C101 1.386 . S
C91 H109 0.931 . S
C92 C90 1.365 . S
C92 C93 1.409 . S
C92 H110 0.929 . S
C93 C92 1.409 . S
C93 C94 1.380 . S
C93 H111 0.930 . S
C94 C93 1.380 . S
C94 C101 1.357 . S
C95 C86 1.523 . S
C95 C96 1.341 . S
C95 C97 1.371 1_556 S
C96 C95 1.341 . S
C96 C100 1.394 . S
C96 H112 0.930 . S
C97 C95 1.371 1_554 S
C97 C98 1.392 1_554 S
C97 H113 0.931 . S
C98 C97 1.392 1_556 S
C98 C99 1.331 . S
C98 H116 0.932 1_556 S
C99 C98 1.331 . S
C99 C100 1.336 . S
C100 C96 1.394 . S
C100 C99 1.336 . S
C100 H115 0.929 . S
C101 C91 1.386 . S
C101 C94 1.357 . S
C101 H114 0.928 . S
H102 C78 0.931 . S
H103 C80 0.930 . S
H104 C82 0.929 1_554 S
H105 C83 0.931 . S
H106 C85 0.930 . S
H107 C89 0.931 . S
H108 C87 0.931 . S
H109 C91 0.931 . S
H110 C92 0.929 . S
H111 C93 0.930 . S
H112 C96 0.930 . S
H113 C97 0.931 . S
H114 C101 0.928 . S
H115 C100 0.929 . S
H116 C98 0.932 1_554 S
C117 C118 1.386 . S
C117 C119 1.397 . S
C117 H141 0.931 . S
C118 C117 1.386 . S
C118 C122 1.397 . S
C119 C117 1.397 . S
C119 C120 1.384 . S
C119 H142 0.930 . S
C120 C119 1.384 . S
C120 C121 1.377 . S
C120 C123 1.481 . S
C121 C120 1.377 . S
C121 C122 1.389 . S
C121 H143 0.929 . S
C122 C118 1.397 . S
C122 C121 1.389 . S
C122 H144 0.931 . S
C123 C120 1.481 . S
C123 C124 1.387 . S
C123 C128 1.390 . S
C124 C123 1.387 . S
C124 C125 1.401 . S
C124 H145 0.930 . S
C125 C124 1.401 . S
C125 C126 1.376 . S
C125 C134 1.511 . S
C126 C125 1.376 . S
C126 C127 1.392 . S
C126 H147 0.931 . S
C127 C126 1.392 . S
C127 C128 1.361 . S
C127 C129 1.500 . S
C128 C123 1.390 . S
C128 C127 1.361 . S
C128 H146 0.931 . S
C129 C127 1.500 . S
C129 C130 1.371 . S
C129 C131 1.365 . S
C130 C129 1.371 . S
C130 C140 1.386 . S
C130 H148 0.931 . S
C131 C129 1.365 . S
C131 C132 1.409 . S
C131 H149 0.929 . S
C132 C131 1.409 . S
C132 C133 1.380 . S
C132 H150 0.930 . S
C133 C132 1.380 . S
C133 C140 1.357 . S
C134 C125 1.511 . S
C134 C135 1.341 . S
C134 C136 1.371 . S
C135 C134 1.341 . S
C135 C139 1.394 . S
C135 H151 0.930 . S
C136 C134 1.371 . S
C136 C137 1.392 . S
C136 H152 0.931 . S
C137 C136 1.392 . S
C137 C138 1.331 . S
C137 H155 0.932 . S
C138 C137 1.331 . S
C138 C139 1.336 . S
C139 C135 1.394 . S
C139 C138 1.336 . S
C139 H154 0.929 . S
C140 C130 1.386 . S
C140 C133 1.357 . S
C140 H153 0.928 . S
H141 C117 0.931 . S
H142 C119 0.930 . S
H143 C121 0.929 . S
H144 C122 0.931 . S
H145 C124 0.930 . S
H146 C128 0.931 . S
H147 C126 0.931 . S
H148 C130 0.931 . S
H149 C131 0.929 . S
H150 C132 0.930 . S
H151 C135 0.930 . S
H152 C136 0.931 . S
H153 C140 0.928 . S
H154 C139 0.929 . S
H155 C137 0.932 . S
C156 C157 1.386 . S
C156 C158 1.397 . S
C156 H180 0.931 1_565 S
C157 C156 1.386 . S
C157 C161 1.397 . S
C158 C156 1.397 . S
C158 C159 1.384 . S
C158 H181 0.930 . S
C159 C158 1.384 . S
C159 C160 1.377 . S
C159 C162 1.481 . S
C160 C159 1.377 . S
C160 C161 1.389 . S
C160 H182 0.929 . S
C161 C157 1.397 . S
C161 C160 1.389 . S
C161 H183 0.931 . S
C162 C159 1.481 . S
C162 C163 1.387 . S
C162 C167 1.390 1_556 S
C163 C162 1.387 . S
C163 C164 1.400 . S
C163 H184 0.930 . S
C164 C163 1.400 . S
C164 C165 1.377 1_556 S
C164 C173 1.511 . S
C165 C164 1.377 1_554 S
C165 C166 1.392 . S
C165 H186 0.931 . S
C166 C165 1.392 . S
C166 C167 1.361 . S
C166 C168 1.500 . S
C167 C162 1.390 1_554 S
C167 C166 1.361 . S
C167 H185 0.931 . S
C168 C166 1.500 . S
C168 C169 1.371 . S
C168 C170 1.365 . S
C169 C168 1.371 . S
C169 C179 1.386 . S
C169 H187 0.931 . S
C170 C168 1.365 . S
C170 C171 1.409 . S
C170 H188 0.929 . S
C171 C170 1.409 . S
C171 C172 1.380 . S
C171 H189 0.930 . S
C172 C171 1.380 . S
C172 C179 1.357 . S
C173 C164 1.511 . S
C173 C174 1.341 . S
C173 C175 1.371 . S
C174 C173 1.341 . S
C174 C178 1.394 . S
C174 H190 0.930 . S
C175 C173 1.371 . S
C175 C176 1.392 . S
C175 H191 0.931 1_556 S
C176 C175 1.392 . S
C176 C177 1.331 . S
C176 H194 0.932 . S
C177 C176 1.331 . S
C177 C178 1.336 . S
C178 C174 1.394 . S
C178 C177 1.336 . S
C178 H193 0.929 . S
C179 C169 1.386 . S
C179 C172 1.357 . S
C179 H192 0.928 . S
H180 C156 0.931 1_545 S
H181 C158 0.930 . S
H182 C160 0.929 . S
H183 C161 0.931 . S
H184 C163 0.930 . S
H185 C167 0.931 . S
H186 C165 0.931 . S
H187 C169 0.931 . S
H188 C170 0.929 . S
H189 C171 0.930 . S
H190 C174 0.930 . S
H191 C175 0.931 1_554 S
H192 C179 0.928 . S
H193 C178 0.929 . S
H194 C176 0.932 . S
C195 C196 1.386 . S
C195 C197 1.397 . S
C195 H219 0.931 1_545 S
C196 C195 1.386 . S
C196 C200 1.397 . S
C197 C195 1.397 . S
C197 C198 1.384 . S
C197 H220 0.930 . S
C198 C197 1.384 . S
C198 C199 1.377 . S
C198 C201 1.481 . S
C199 C198 1.377 . S
C199 C200 1.389 . S
C199 H221 0.929 . S
C200 C196 1.397 . S
C200 C199 1.389 . S
C200 H222 0.931 . S
C201 C198 1.481 . S
C201 C202 1.387 . S
C201 C206 1.390 . S
C202 C201 1.387 . S
C202 C203 1.401 . S
C202 H223 0.930 . S
C203 C202 1.401 . S
C203 C204 1.376 . S
C203 C212 1.511 . S
C204 C203 1.376 . S
C204 C205 1.392 . S
C204 H225 0.931 . S
C205 C204 1.392 . S
C205 C206 1.361 . S
C205 C207 1.500 . S
C206 C201 1.390 . S
C206 C205 1.361 . S
C206 H224 0.931 . S
C207 C205 1.500 . S
C207 C208 1.371 . S
C207 C209 1.365 . S
C208 C207 1.371 . S
C208 C218 1.386 . S
C208 H226 0.931 . S
C209 C207 1.365 . S
C209 C210 1.409 . S
C209 H227 0.929 . S
C210 C209 1.409 . S
C210 C211 1.380 . S
C210 H228 0.930 . S
C211 C210 1.380 . S
C211 C218 1.357 . S
C212 C203 1.511 . S
C212 C213 1.341 . S
C212 C214 1.371 . S
C213 C212 1.341 . S
C213 C217 1.394 . S
C213 H229 0.930 . S
C214 C212 1.371 . S
C214 C215 1.392 . S
C214 H230 0.931 . S
C215 C214 1.392 . S
C215 C216 1.331 . S
C215 H233 0.932 . S
C216 C215 1.331 . S
C216 C217 1.336 . S
C217 C213 1.394 . S
C217 C216 1.336 . S
C217 H232 0.929 . S
C218 C208 1.386 . S
C218 C211 1.357 . S
C218 H231 0.928 . S
H219 C195 0.931 1_565 S
H220 C197 0.930 . S
H221 C199 0.929 . S
H222 C200 0.931 . S
H223 C202 0.930 . S
H224 C206 0.931 . S
H225 C204 0.931 . S
H226 C208 0.931 . S
H227 C209 0.929 . S
H228 C210 0.930 . S
H229 C213 0.930 . S
H230 C214 0.931 . S
H231 C218 0.928 . S
H232 C217 0.929 . S
H233 C215 0.932 . S
C234 C235 1.386 . S
C234 C236 1.397 . S
C234 H258 0.931 . S
C235 C234 1.386 . S
C235 C239 1.397 . S
C236 C234 1.397 . S
C236 C237 1.384 . S
C236 H259 0.930 . S
C237 C236 1.384 . S
C237 C238 1.377 . S
C237 C240 1.481 . S
C238 C237 1.377 . S
C238 C239 1.389 . S
C238 H260 0.929 1_556 S
C239 C235 1.397 . S
C239 C238 1.389 . S
C239 H261 0.931 1_565 S
C240 C237 1.481 . S
C240 C241 1.387 . S
C240 C245 1.390 1_556 S
C241 C240 1.387 . S
C241 C242 1.418 . S
C241 H262 0.930 . S
C242 C241 1.418 . S
C242 C243 1.349 1_556 S
C242 C251 1.523 . S
C243 C242 1.349 1_554 S
C243 C244 1.392 . S
C243 H264 0.931 . S
C244 C243 1.392 . S
C244 C245 1.361 . S
C244 C246 1.500 . S
C245 C240 1.390 1_554 S
C245 C244 1.361 . S
C245 H263 0.931 . S
C246 C244 1.500 . S
C246 C247 1.371 . S
C246 C248 1.365 . S
C247 C246 1.371 . S
C247 C257 1.386 . S
C247 H265 0.931 . S
C248 C246 1.365 . S
C248 C249 1.409 . S
C248 H266 0.929 . S
C249 C248 1.409 . S
C249 C250 1.380 . S
C249 H267 0.930 . S
C250 C249 1.380 . S
C250 C257 1.357 . S
C251 C242 1.523 . S
C251 C252 1.341 . S
C251 C253 1.371 1_556 S
C252 C251 1.341 . S
C252 C256 1.394 . S
C252 H268 0.930 . S
C253 C251 1.371 1_554 S
C253 C254 1.392 1_554 S
C253 H269 0.931 . S
C254 C253 1.392 1_556 S
C254 C255 1.331 . S
C254 H272 0.932 1_556 S
C255 C254 1.331 . S
C255 C256 1.336 . S
C256 C252 1.394 . S
C256 C255 1.336 . S
C256 H271 0.929 . S
C257 C247 1.386 . S
C257 C250 1.357 . S
C257 H270 0.928 . S
H258 C234 0.931 . S
H259 C236 0.930 . S
H260 C238 0.929 1_554 S
H261 C239 0.931 1_545 S
H262 C241 0.930 . S
H263 C245 0.931 . S
H264 C243 0.931 . S
H265 C247 0.931 . S
H266 C248 0.929 . S
H267 C249 0.930 . S
H268 C252 0.930 . S
H269 C253 0.931 . S
H270 C257 0.928 . S
H271 C256 0.929 . S
H272 C254 0.932 1_554 S
C273 C274 1.386 . S
C273 C275 1.397 . S
C273 H297 0.931 . S
C274 C273 1.386 . S
C274 C278 1.397 . S
C275 C273 1.397 . S
C275 C276 1.384 . S
C275 H298 0.930 . S
C276 C275 1.384 . S
C276 C277 1.377 . S
C276 C279 1.481 . S
C277 C276 1.377 . S
C277 C278 1.389 . S
C277 H299 0.929 . S
C278 C274 1.397 . S
C278 C277 1.389 . S
C278 H300 0.931 . S
C279 C276 1.481 . S
C279 C280 1.387 . S
C279 C284 1.390 . S
C280 C279 1.387 . S
C280 C281 1.401 . S
C280 H301 0.930 . S
C281 C280 1.401 . S
C281 C282 1.376 . S
C281 C290 1.511 . S
C282 C281 1.376 . S
C282 C283 1.392 . S
C282 H303 0.931 . S
C283 C282 1.392 . S
C283 C284 1.361 . S
C283 C285 1.500 . S
C284 C279 1.390 . S
C284 C283 1.361 . S
C284 H302 0.931 . S
C285 C283 1.500 . S
C285 C286 1.371 . S
C285 C287 1.365 . S
C286 C285 1.371 . S
C286 C296 1.386 . S
C286 H304 0.931 . S
C287 C285 1.365 . S
C287 C288 1.409 . S
C287 H305 0.929 . S
C288 C287 1.409 . S
C288 C289 1.380 . S
C288 H306 0.930 . S
C289 C288 1.380 . S
C289 C296 1.357 . S
C290 C281 1.511 . S
C290 C291 1.341 . S
C290 C292 1.371 . S
C291 C290 1.341 . S
C291 C295 1.394 . S
C291 H307 0.930 . S
C292 C290 1.371 . S
C292 C293 1.392 . S
C292 H308 0.931 . S
C293 C292 1.392 . S
C293 C294 1.331 . S
C293 H311 0.932 . S
C294 C293 1.331 . S
C294 C295 1.336 . S
C295 C291 1.394 . S
C295 C294 1.336 . S
C295 H310 0.929 . S
C296 C286 1.386 . S
C296 C289 1.357 . S
C296 H309 0.928 1_545 S
H297 C273 0.931 . S
H298 C275 0.930 . S
H299 C277 0.929 . S
H300 C278 0.931 . S
H301 C280 0.930 . S
H302 C284 0.931 . S
H303 C282 0.931 . S
H304 C286 0.931 . S
H305 C287 0.929 . S
H306 C288 0.930 . S
H307 C291 0.930 . S
H308 C292 0.931 . S
H309 C296 0.928 1_565 S
H310 C295 0.929 . S
H311 C293 0.932 . S
Sc312 O315 2.025 . S
Sc312 O322 2.105 1_455 S
Sc312 O325 2.105 . S
Sc312 O328 2.105 . S
Sc312 O331 2.105 1_455 S
Sc313 O315 2.025 . S
Sc313 O323 2.105 1_455 S
Sc313 O327 2.105 . S
Sc313 O329 2.105 . S
Sc313 O333 2.105 1_455 S
Sc314 O315 2.025 . S
Sc314 O324 2.105 1_455 S
Sc314 O326 2.105 . S
Sc314 O330 2.105 . S
Sc314 O332 2.105 1_455 S
O315 Sc312 2.025 . S
O315 Sc313 2.025 . S
O315 Sc314 2.025 . S
C316 O322 1.268 . S
C316 O332 1.268 . S
C317 O323 1.268 . S
C317 O331 1.268 . S
C318 O324 1.268 . S
C318 O333 1.268 . S
C319 O325 1.268 . S
C319 O329 1.268 . S
C320 O326 1.268 . S
C320 O328 1.268 . S
C321 O327 1.268 . S
C321 O330 1.268 . S
O322 Sc312 2.105 1_655 S
O322 C316 1.268 . S
O323 Sc313 2.105 1_655 S
O323 C317 1.268 . S
O324 Sc314 2.105 1_655 S
O324 C318 1.268 . S
O325 Sc312 2.105 . S
O325 C319 1.268 . S
O326 Sc314 2.105 . S
O326 C320 1.268 . S
O327 Sc313 2.105 . S
O327 C321 1.268 . S
O328 Sc312 2.105 . S
O328 C320 1.268 . S
O329 Sc313 2.105 . S
O329 C319 1.268 . S
O330 Sc314 2.105 . S
O330 C321 1.268 . S
O331 Sc312 2.105 1_655 S
O331 C317 1.268 . S
O332 Sc314 2.105 1_655 S
O332 C316 1.268 . S
O333 Sc313 2.105 1_655 S
O333 C318 1.268 . S
Sc334 O337 2.025 . S
Sc334 O344 2.105 . S
Sc334 O347 2.105 1_455 S
Sc334 O350 2.105 1_455 S
Sc334 O353 2.105 . S
Sc335 O337 2.025 . S
Sc335 O345 2.105 . S
Sc335 O349 2.105 1_455 S
Sc335 O351 2.105 1_455 S
Sc335 O355 2.105 . S
Sc336 O337 2.025 . S
Sc336 O346 2.105 . S
Sc336 O348 2.105 1_455 S
Sc336 O352 2.105 1_455 S
Sc336 O354 2.105 . S
O337 Sc334 2.025 . S
O337 Sc335 2.025 . S
O337 Sc336 2.025 . S
C338 O344 1.268 . S
C338 O354 1.268 . S
C339 O345 1.268 . S
C339 O353 1.268 . S
C340 O346 1.268 . S
C340 O355 1.268 . S
C341 O347 1.268 . S
C341 O351 1.268 . S
C342 O348 1.268 . S
C342 O350 1.268 . S
C343 O349 1.268 . S
C343 O352 1.268 . S
O344 Sc334 2.105 . S
O344 C338 1.268 . S
O345 Sc335 2.105 . S
O345 C339 1.268 . S
O346 Sc336 2.105 . S
O346 C340 1.268 . S
O347 Sc334 2.105 1_655 S
O347 C341 1.268 . S
O348 Sc336 2.105 1_655 S
O348 C342 1.268 . S
O349 Sc335 2.105 1_655 S
O349 C343 1.268 . S
O350 Sc334 2.105 1_655 S
O350 C342 1.268 . S
O351 Sc335 2.105 1_655 S
O351 C341 1.268 . S
O352 Sc336 2.105 1_655 S
O352 C343 1.268 . S
O353 Sc334 2.105 . S
O353 C339 1.268 . S
O354 Sc336 2.105 . S
O354 C338 1.268 . S
O355 Sc335 2.105 . S
O355 C340 1.268 . S
Sc356 O359 2.025 . S
Sc356 O366 2.105 . S
Sc356 O369 2.105 . S
Sc356 O372 2.105 . S
Sc356 O375 2.105 . S
Sc357 O359 2.025 . S
Sc357 O367 2.105 . S
Sc357 O371 2.105 . S
Sc357 O373 2.105 . S
Sc357 O377 2.105 . S
Sc358 O359 2.025 . S
Sc358 O368 2.105 . S
Sc358 O370 2.105 . S
Sc358 O374 2.105 . S
Sc358 O376 2.105 . S
O359 Sc356 2.025 . S
O359 Sc357 2.025 . S
O359 Sc358 2.025 . S
C360 O366 1.268 . S
C360 O376 1.268 . S
C361 O367 1.268 . S
C361 O375 1.268 . S
C362 O368 1.268 . S
C362 O377 1.268 . S
C363 O369 1.268 . S
C363 O373 1.268 . S
C364 O370 1.268 . S
C364 O372 1.268 . S
C365 O371 1.268 . S
C365 O374 1.268 . S
O366 Sc356 2.105 . S
O366 C360 1.268 . S
O367 Sc357 2.105 . S
O367 C361 1.268 . S
O368 Sc358 2.105 . S
O368 C362 1.268 . S
O369 Sc356 2.105 . S
O369 C363 1.268 . S
O370 Sc358 2.105 . S
O370 C364 1.268 . S
O371 Sc357 2.105 . S
O371 C365 1.268 . S
O372 Sc356 2.105 . S
O372 C364 1.268 . S
O373 Sc357 2.105 . S
O373 C363 1.268 . S
O374 Sc358 2.105 . S
O374 C365 1.268 . S
O375 Sc356 2.105 . S
O375 C361 1.268 . S
O376 Sc358 2.105 . S
O376 C360 1.268 . S
O377 Sc357 2.105 . S
O377 C362 1.268 . S
Sc378 O381 2.025 . S
Sc378 O388 2.105 . S
Sc378 O391 2.105 . S
Sc378 O394 2.105 . S
Sc378 O397 2.105 . S
Sc379 O381 2.025 . S
Sc379 O389 2.105 . S
Sc379 O393 2.105 . S
Sc379 O395 2.105 . S
Sc379 O399 2.105 . S
Sc380 O381 2.025 . S
Sc380 O390 2.105 . S
Sc380 O392 2.105 . S
Sc380 O396 2.105 . S
Sc380 O398 2.105 . S
O381 Sc378 2.025 . S
O381 Sc379 2.025 . S
O381 Sc380 2.025 . S
C382 O388 1.268 . S
C382 O398 1.268 . S
C383 O389 1.268 . S
C383 O397 1.268 . S
C384 O390 1.268 . S
C384 O399 1.268 . S
C385 O391 1.268 . S
C385 O395 1.268 . S
C386 O392 1.268 . S
C386 O394 1.268 . S
C387 O393 1.268 . S
C387 O396 1.268 . S
O388 Sc378 2.105 . S
O388 C382 1.268 . S
O389 Sc379 2.105 . S
O389 C383 1.268 . S
O390 Sc380 2.105 . S
O390 C384 1.268 . S
O391 Sc378 2.105 . S
O391 C385 1.268 . S
O392 Sc380 2.105 . S
O392 C386 1.268 . S
O393 Sc379 2.105 . S
O393 C387 1.268 . S
O394 Sc378 2.105 . S
O394 C386 1.268 . S
O395 Sc379 2.105 . S
O395 C385 1.268 . S
O396 Sc380 2.105 . S
O396 C387 1.268 . S
O397 Sc378 2.105 . S
O397 C383 1.268 . S
O398 Sc380 2.105 . S
O398 C382 1.268 . S
O399 Sc379 2.105 . S
O399 C384 1.268 . S
C400 C401 1.391 . S
C400 C402 1.394 . S
C400 H416 0.931 . S
C401 C400 1.391 . S
C401 C405 1.376 . S
C402 C400 1.394 . S
C402 C403 1.369 . S
C402 C406 1.531 . S
C403 C402 1.369 . S
C403 C404 1.410 . S
C403 C411 1.503 . S
C404 C403 1.410 . S
C404 C405 1.392 . S
C404 C407 1.511 . S
C405 C401 1.376 . S
C405 C404 1.392 . S
C405 H417 0.929 . S
C406 C402 1.531 . S
C406 H418 0.960 . S
C406 H419 0.962 . S
C406 H420 0.960 . S
C407 C404 1.511 . S
C407 H421 0.961 . S
C407 H422 0.961 . S
C407 H423 0.961 . S
C408 C409 1.370 . S
C408 C410 1.363 . S
C408 H424 0.931 . S
C409 C408 1.370 . S
C409 C413 1.408 . S
C410 C408 1.363 . S
C410 C411 1.370 . S
C410 C414 1.524 . S
C411 C403 1.503 . S
C411 C410 1.370 . S
C411 C412 1.403 . S
C412 C411 1.403 . S
C412 C413 1.404 . S
C412 C415 1.539 . S
C413 C409 1.408 . S
C413 C412 1.404 . S
C413 H425 0.930 . S
C414 C410 1.524 . S
C414 H426 0.956 . S
C414 H427 0.961 . S
C414 H428 0.961 . S
C415 C412 1.539 . S
C415 H429 0.958 . S
C415 H430 0.961 . S
C415 H431 0.960 . S
H416 C400 0.931 . S
H417 C405 0.929 . S
H418 C406 0.960 . S
H419 C406 0.962 . S
H420 C406 0.960 . S
H421 C407 0.961 . S
H422 C407 0.961 . S
H423 C407 0.961 . S
H424 C408 0.931 . S
H425 C413 0.930 . S
H426 C414 0.956 . S
H427 C414 0.961 . S
H428 C414 0.961 . S
H429 C415 0.958 . S
H430 C415 0.961 . S
H431 C415 0.960 . S
C432 C433 1.391 . S
C432 C434 1.394 . S
C432 H448 0.931 . S
C433 C432 1.391 . S
C433 C437 1.376 . S
C434 C432 1.394 . S
C434 C435 1.369 . S
C434 C438 1.531 . S
C435 C434 1.369 . S
C435 C436 1.410 . S
C435 C443 1.503 . S
C436 C435 1.410 . S
C436 C437 1.392 . S
C436 C439 1.511 . S
C437 C433 1.376 . S
C437 C436 1.392 . S
C437 H449 0.929 . S
C438 C434 1.531 . S
C438 H450 0.960 . S
C438 H451 0.962 . S
C438 H452 0.960 . S
C439 C436 1.511 . S
C439 H453 0.961 . S
C439 H454 0.961 . S
C439 H455 0.961 . S
C440 C441 1.370 . S
C440 C442 1.363 . S
C440 H456 0.931 . S
C441 C440 1.370 . S
C441 C445 1.408 . S
C442 C440 1.363 . S
C442 C443 1.370 . S
C442 C446 1.524 . S
C443 C435 1.503 . S
C443 C442 1.370 . S
C443 C444 1.403 . S
C444 C443 1.403 . S
C444 C445 1.404 . S
C444 C447 1.539 . S
C445 C441 1.408 . S
C445 C444 1.404 . S
C445 H457 0.930 . S
C446 C442 1.524 . S
C446 H458 0.956 . S
C446 H459 0.961 . S
C446 H460 0.961 . S
C447 C444 1.539 . S
C447 H461 0.958 . S
C447 H462 0.961 . S
C447 H463 0.960 . S
H448 C432 0.931 . S
H449 C437 0.929 . S
H450 C438 0.960 . S
H451 C438 0.962 . S
H452 C438 0.960 . S
H453 C439 0.961 . S
H454 C439 0.961 . S
H455 C439 0.961 . S
H456 C440 0.931 . S
H457 C445 0.930 . S
H458 C446 0.956 . S
H459 C446 0.961 . S
H460 C446 0.961 . S
H461 C447 0.958 . S
H462 C447 0.961 . S
H463 C447 0.960 . S
C464 C465 1.391 . S
C464 C466 1.394 . S
C464 H480 0.931 . S
C465 C464 1.391 . S
C465 C469 1.376 . S
C466 C464 1.394 . S
C466 C467 1.369 . S
C466 C470 1.531 . S
C467 C466 1.369 . S
C467 C468 1.410 . S
C467 C475 1.503 . S
C468 C467 1.410 . S
C468 C469 1.392 . S
C468 C471 1.511 . S
C469 C465 1.376 . S
C469 C468 1.392 . S
C469 H481 0.929 . S
C470 C466 1.531 . S
C470 H482 0.960 . S
C470 H483 0.962 . S
C470 H484 0.960 . S
C471 C468 1.511 . S
C471 H485 0.961 . S
C471 H486 0.961 . S
C471 H487 0.961 . S
C472 C473 1.370 . S
C472 C474 1.363 . S
C472 H488 0.931 . S
C473 C472 1.370 . S
C473 C477 1.408 . S
C474 C472 1.363 . S
C474 C475 1.370 . S
C474 C478 1.524 . S
C475 C467 1.503 . S
C475 C474 1.370 . S
C475 C476 1.403 . S
C476 C475 1.403 . S
C476 C477 1.404 . S
C476 C479 1.539 . S
C477 C473 1.408 . S
C477 C476 1.404 . S
C477 H489 0.930 . S
C478 C474 1.524 . S
C478 H490 0.956 . S
C478 H491 0.961 . S
C478 H492 0.961 . S
C479 C476 1.539 . S
C479 H493 0.958 . S
C479 H494 0.961 . S
C479 H495 0.960 . S
H480 C464 0.931 . S
H481 C469 0.929 . S
H482 C470 0.960 . S
H483 C470 0.962 . S
H484 C470 0.960 . S
H485 C471 0.961 . S
H486 C471 0.961 . S
H487 C471 0.961 . S
H488 C472 0.931 . S
H489 C477 0.930 . S
H490 C478 0.956 . S
H491 C478 0.961 . S
H492 C478 0.961 . S
H493 C479 0.958 . S
H494 C479 0.961 . S
H495 C479 0.960 . S
C496 C497 1.391 . S
C496 C498 1.394 . S
C496 H512 0.931 . S
C497 C496 1.391 . S
C497 C501 1.376 . S
C498 C496 1.394 . S
C498 C499 1.369 . S
C498 C502 1.531 . S
C499 C498 1.369 . S
C499 C500 1.410 . S
C499 C507 1.503 . S
C500 C499 1.410 . S
C500 C501 1.392 . S
C500 C503 1.511 . S
C501 C497 1.376 . S
C501 C500 1.392 . S
C501 H513 0.929 . S
C502 C498 1.531 . S
C502 H514 0.960 . S
C502 H515 0.962 . S
C502 H516 0.960 . S
C503 C500 1.511 . S
C503 H517 0.961 . S
C503 H518 0.961 . S
C503 H519 0.961 . S
C504 C505 1.370 . S
C504 C506 1.363 . S
C504 H520 0.931 . S
C505 C504 1.370 . S
C505 C509 1.408 . S
C506 C504 1.363 . S
C506 C507 1.370 . S
C506 C510 1.524 . S
C507 C499 1.503 . S
C507 C506 1.370 . S
C507 C508 1.403 . S
C508 C507 1.403 . S
C508 C509 1.404 . S
C508 C511 1.539 . S
C509 C505 1.408 . S
C509 C508 1.404 . S
C509 H521 0.930 . S
C510 C506 1.524 . S
C510 H522 0.956 . S
C510 H523 0.961 . S
C510 H524 0.961 . S
C511 C508 1.539 . S
C511 H525 0.958 . S
C511 H526 0.961 . S
C511 H527 0.960 . S
H512 C496 0.931 . S
H513 C501 0.929 . S
H514 C502 0.960 . S
H515 C502 0.962 . S
H516 C502 0.960 . S
H517 C503 0.961 . S
H518 C503 0.961 . S
H519 C503 0.961 . S
H520 C504 0.931 . S
H521 C509 0.930 . S
H522 C510 0.956 . S
H523 C510 0.961 . S
H524 C510 0.961 . S
H525 C511 0.958 . S
H526 C511 0.961 . S
H527 C511 0.960 . S
C528 C529 1.391 . S
C528 C530 1.394 . S
C528 H544 0.931 . S
C529 C528 1.391 . S
C529 C533 1.376 . S
C530 C528 1.394 . S
C530 C531 1.369 . S
C530 C534 1.531 . S
C531 C530 1.369 . S
C531 C532 1.410 . S
C531 C539 1.503 . S
C532 C531 1.410 . S
C532 C533 1.392 . S
C532 C535 1.511 . S
C533 C529 1.376 . S
C533 C532 1.392 . S
C533 H545 0.929 . S
C534 C530 1.531 . S
C534 H546 0.960 . S
C534 H547 0.962 . S
C534 H548 0.960 . S
C535 C532 1.511 . S
C535 H549 0.961 . S
C535 H550 0.961 . S
C535 H551 0.961 . S
C536 C537 1.370 . S
C536 C538 1.363 . S
C536 H552 0.931 . S
C537 C536 1.370 . S
C537 C541 1.408 . S
C538 C536 1.363 . S
C538 C539 1.370 . S
C538 C542 1.524 . S
C539 C531 1.503 . S
C539 C538 1.370 . S
C539 C540 1.403 . S
C540 C539 1.403 . S
C540 C541 1.404 . S
C540 C543 1.539 . S
C541 C537 1.408 . S
C541 C540 1.404 . S
C541 H553 0.930 . S
C542 C538 1.524 . S
C542 H554 0.956 . S
C542 H555 0.961 . S
C542 H556 0.961 . S
C543 C540 1.539 . S
C543 H557 0.958 . S
C543 H558 0.961 . S
C543 H559 0.960 . S
H544 C528 0.931 . S
H545 C533 0.929 . S
H546 C534 0.960 . S
H547 C534 0.962 . S
H548 C534 0.960 . S
H549 C535 0.961 . S
H550 C535 0.961 . S
H551 C535 0.961 . S
H552 C536 0.931 . S
H553 C541 0.930 . S
H554 C542 0.956 . S
H555 C542 0.961 . S
H556 C542 0.961 . S
H557 C543 0.958 . S
H558 C543 0.961 . S
H559 C543 0.960 . S
C560 C561 1.391 . S
C560 C562 1.394 . S
C560 H576 0.931 . S
C561 C560 1.391 . S
C561 C565 1.376 . S
C562 C560 1.394 . S
C562 C563 1.369 . S
C562 C566 1.531 . S
C563 C562 1.369 . S
C563 C564 1.410 . S
C563 C571 1.503 . S
C564 C563 1.410 . S
C564 C565 1.392 . S
C564 C567 1.511 . S
C565 C561 1.376 . S
C565 C564 1.392 . S
C565 H577 0.929 . S
C566 C562 1.531 . S
C566 H578 0.960 . S
C566 H579 0.962 . S
C566 H580 0.960 . S
C567 C564 1.511 . S
C567 H581 0.961 . S
C567 H582 0.961 . S
C567 H583 0.961 . S
C568 C569 1.370 . S
C568 C570 1.363 . S
C568 H584 0.931 . S
C569 C568 1.370 . S
C569 C573 1.408 . S
C570 C568 1.363 . S
C570 C571 1.370 . S
C570 C574 1.524 . S
C571 C563 1.503 . S
C571 C570 1.370 . S
C571 C572 1.403 . S
C572 C571 1.403 . S
C572 C573 1.404 . S
C572 C575 1.539 . S
C573 C569 1.408 . S
C573 C572 1.404 . S
C573 H585 0.930 . S
C574 C570 1.524 . S
C574 H586 0.956 . S
C574 H587 0.961 . S
C574 H588 0.961 . S
C575 C572 1.539 . S
C575 H589 0.958 . S
C575 H590 0.961 . S
C575 H591 0.960 . S
H576 C560 0.931 . S
H577 C565 0.929 . S
H578 C566 0.960 . S
H579 C566 0.962 . S
H580 C566 0.960 . S
H581 C567 0.961 . S
H582 C567 0.961 . S
H583 C567 0.961 . S
H584 C568 0.931 . S
H585 C573 0.930 . S
H586 C574 0.956 . S
H587 C574 0.961 . S
H588 C574 0.961 . S
H589 C575 0.958 . S
H590 C575 0.961 . S
H591 C575 0.960 . S
C592 C593 1.391 . S
C592 C594 1.394 . S
C592 H608 0.931 . S
C593 C592 1.391 . S
C593 C597 1.376 . S
C594 C592 1.394 . S
C594 C595 1.369 . S
C594 C598 1.531 . S
C595 C594 1.369 . S
C595 C596 1.410 . S
C595 C603 1.503 . S
C596 C595 1.410 . S
C596 C597 1.392 . S
C596 C599 1.511 . S
C597 C593 1.376 . S
C597 C596 1.392 . S
C597 H609 0.929 . S
C598 C594 1.531 . S
C598 H610 0.960 . S
C598 H611 0.962 . S
C598 H612 0.960 . S
C599 C596 1.511 . S
C599 H613 0.961 . S
C599 H614 0.961 . S
C599 H615 0.961 . S
C600 C601 1.370 . S
C600 C602 1.363 . S
C600 H616 0.931 . S
C601 C600 1.370 . S
C601 C605 1.408 . S
C602 C600 1.363 . S
C602 C603 1.370 . S
C602 C606 1.524 . S
C603 C595 1.503 . S
C603 C602 1.370 . S
C603 C604 1.403 . S
C604 C603 1.403 . S
C604 C605 1.404 . S
C604 C607 1.539 . S
C605 C601 1.408 . S
C605 C604 1.404 . S
C605 H617 0.930 . S
C606 C602 1.524 . S
C606 H618 0.956 . S
C606 H619 0.961 . S
C606 H620 0.961 . S
C607 C604 1.539 . S
C607 H621 0.958 . S
C607 H622 0.961 . S
C607 H623 0.960 . S
H608 C592 0.931 . S
H609 C597 0.929 . S
H610 C598 0.960 . S
H611 C598 0.962 . S
H612 C598 0.960 . S
H613 C599 0.961 . S
H614 C599 0.961 . S
H615 C599 0.961 . S
H616 C600 0.931 . S
H617 C605 0.930 . S
H618 C606 0.956 . S
H619 C606 0.961 . S
H620 C606 0.961 . S
H621 C607 0.958 . S
H622 C607 0.961 . S
H623 C607 0.960 . S
C624 C625 1.391 . S
C624 C626 1.394 . S
C624 H640 0.931 . S
C625 C624 1.391 . S
C625 C629 1.376 . S
C626 C624 1.394 . S
C626 C627 1.369 . S
C626 C630 1.531 . S
C627 C626 1.369 . S
C627 C628 1.410 . S
C627 C635 1.503 . S
C628 C627 1.410 . S
C628 C629 1.392 . S
C628 C631 1.511 . S
C629 C625 1.376 . S
C629 C628 1.392 . S
C629 H641 0.929 . S
C630 C626 1.531 . S
C630 H642 0.960 . S
C630 H643 0.962 . S
C630 H644 0.960 . S
C631 C628 1.511 . S
C631 H645 0.961 . S
C631 H646 0.961 . S
C631 H647 0.961 . S
C632 C633 1.370 . S
C632 C634 1.363 . S
C632 H648 0.931 . S
C633 C632 1.370 . S
C633 C637 1.408 . S
C634 C632 1.363 . S
C634 C635 1.370 . S
C634 C638 1.524 . S
C635 C627 1.503 . S
C635 C634 1.370 . S
C635 C636 1.403 . S
C636 C635 1.403 . S
C636 C637 1.404 . S
C636 C639 1.539 . S
C637 C633 1.408 . S
C637 C636 1.404 . S
C637 H649 0.930 . S
C638 C634 1.524 . S
C638 H650 0.956 . S
C638 H651 0.961 . S
C638 H652 0.961 . S
C639 C636 1.539 . S
C639 H653 0.958 . S
C639 H654 0.961 . S
C639 H655 0.960 . S
H640 C624 0.931 . S
H641 C629 0.929 . S
H642 C630 0.960 . S
H643 C630 0.962 . S
H644 C630 0.960 . S
H645 C631 0.961 . S
H646 C631 0.961 . S
H647 C631 0.961 . S
H648 C632 0.931 . S
H649 C637 0.930 . S
H650 C638 0.956 . S
H651 C638 0.961 . S
H652 C638 0.961 . S
H653 C639 0.958 . S
H654 C639 0.961 . S
H655 C639 0.960 . S
C656 C657 1.391 . S
C656 C658 1.394 . S
C656 H672 0.931 . S
C657 C656 1.391 . S
C657 C661 1.376 . S
C658 C656 1.394 . S
C658 C659 1.369 . S
C658 C662 1.531 . S
C659 C658 1.369 . S
C659 C660 1.410 . S
C659 C667 1.503 . S
C660 C659 1.410 . S
C660 C661 1.392 . S
C660 C663 1.511 . S
C661 C657 1.376 . S
C661 C660 1.392 . S
C661 H673 0.929 . S
C662 C658 1.531 . S
C662 H674 0.960 . S
C662 H675 0.962 . S
C662 H676 0.960 . S
C663 C660 1.511 . S
C663 H677 0.961 . S
C663 H678 0.961 . S
C663 H679 0.961 . S
C664 C665 1.370 . S
C664 C666 1.363 . S
C664 H680 0.931 . S
C665 C664 1.370 . S
C665 C669 1.408 . S
C666 C664 1.363 . S
C666 C667 1.370 . S
C666 C670 1.524 . S
C667 C659 1.503 . S
C667 C666 1.370 . S
C667 C668 1.403 . S
C668 C667 1.403 . S
C668 C669 1.404 . S
C668 C671 1.539 . S
C669 C665 1.408 . S
C669 C668 1.404 . S
C669 H681 0.930 . S
C670 C666 1.524 . S
C670 H682 0.956 . S
C670 H683 0.961 . S
C670 H684 0.961 . S
C671 C668 1.539 . S
C671 H685 0.958 . S
C671 H686 0.961 . S
C671 H687 0.960 . S
H672 C656 0.931 . S
H673 C661 0.929 . S
H674 C662 0.960 . S
H675 C662 0.962 . S
H676 C662 0.960 . S
H677 C663 0.961 . S
H678 C663 0.961 . S
H679 C663 0.961 . S
H680 C664 0.931 . S
H681 C669 0.930 . S
H682 C670 0.956 . S
H683 C670 0.961 . S
H684 C670 0.961 . S
H685 C671 0.958 . S
H686 C671 0.961 . S
H687 C671 0.960 . S
C688 C689 1.391 . S
C688 C690 1.394 . S
C688 H704 0.931 . S
C689 C688 1.391 . S
C689 C693 1.376 . S
C690 C688 1.394 . S
C690 C691 1.369 . S
C690 C694 1.531 . S
C691 C690 1.369 . S
C691 C692 1.410 . S
C691 C699 1.503 . S
C692 C691 1.410 . S
C692 C693 1.392 . S
C692 C695 1.511 . S
C693 C689 1.376 . S
C693 C692 1.392 . S
C693 H705 0.929 . S
C694 C690 1.531 . S
C694 H706 0.960 . S
C694 H707 0.962 . S
C694 H708 0.960 . S
C695 C692 1.511 . S
C695 H709 0.961 . S
C695 H710 0.961 . S
C695 H711 0.961 . S
C696 C697 1.370 . S
C696 C698 1.363 . S
C696 H712 0.931 . S
C697 C696 1.370 . S
C697 C701 1.408 . S
C698 C696 1.363 . S
C698 C699 1.370 . S
C698 C702 1.524 . S
C699 C691 1.503 . S
C699 C698 1.370 . S
C699 C700 1.403 . S
C700 C699 1.403 . S
C700 C701 1.404 . S
C700 C703 1.539 . S
C701 C697 1.408 . S
C701 C700 1.404 . S
C701 H713 0.930 . S
C702 C698 1.524 . S
C702 H714 0.956 . S
C702 H715 0.961 . S
C702 H716 0.961 . S
C703 C700 1.539 . S
C703 H717 0.958 . S
C703 H718 0.961 . S
C703 H719 0.960 . S
H704 C688 0.931 . S
H705 C693 0.929 . S
H706 C694 0.960 . S
H707 C694 0.962 . S
H708 C694 0.960 . S
H709 C695 0.961 . S
H710 C695 0.961 . S
H711 C695 0.961 . S
H712 C696 0.931 . S
H713 C701 0.930 . S
H714 C702 0.956 . S
H715 C702 0.961 . S
H716 C702 0.961 . S
H717 C703 0.958 . S
H718 C703 0.961 . S
H719 C703 0.960 . S
C720 C721 1.391 . S
C720 C722 1.394 . S
C720 H736 0.931 . S
C721 C720 1.391 . S
C721 C725 1.376 . S
C722 C720 1.394 . S
C722 C723 1.369 . S
C722 C726 1.531 . S
C723 C722 1.369 . S
C723 C724 1.410 . S
C723 C731 1.503 . S
C724 C723 1.410 . S
C724 C725 1.392 . S
C724 C727 1.511 . S
C725 C721 1.376 . S
C725 C724 1.392 . S
C725 H737 0.929 . S
C726 C722 1.531 . S
C726 H738 0.960 . S
C726 H739 0.962 . S
C726 H740 0.960 . S
C727 C724 1.511 . S
C727 H741 0.961 . S
C727 H742 0.961 . S
C727 H743 0.961 . S
C728 C729 1.370 . S
C728 C730 1.363 . S
C728 H744 0.931 . S
C729 C728 1.370 . S
C729 C733 1.408 . S
C730 C728 1.363 . S
C730 C731 1.370 . S
C730 C734 1.524 . S
C731 C723 1.503 . S
C731 C730 1.370 . S
C731 C732 1.403 . S
C732 C731 1.403 . S
C732 C733 1.404 . S
C732 C735 1.539 . S
C733 C729 1.408 . S
C733 C732 1.404 . S
C733 H745 0.930 . S
C734 C730 1.524 . S
C734 H746 0.956 . S
C734 H747 0.961 . S
C734 H748 0.961 . S
C735 C732 1.539 . S
C735 H749 0.958 . S
C735 H750 0.961 . S
C735 H751 0.960 . S
H736 C720 0.931 . S
H737 C725 0.929 . S
H738 C726 0.960 . S
H739 C726 0.962 . S
H740 C726 0.960 . S
H741 C727 0.961 . S
H742 C727 0.961 . S
H743 C727 0.961 . S
H744 C728 0.931 . S
H745 C733 0.930 . S
H746 C734 0.956 . S
H747 C734 0.961 . S
H748 C734 0.961 . S
H749 C735 0.958 . S
H750 C735 0.961 . S
H751 C735 0.960 . S
C752 C753 1.391 . S
C752 C754 1.394 . S
C752 H768 0.931 . S
C753 C752 1.391 . S
C753 C757 1.376 . S
C754 C752 1.394 . S
C754 C755 1.369 . S
C754 C758 1.531 . S
C755 C754 1.369 . S
C755 C756 1.410 . S
C755 C763 1.503 . S
C756 C755 1.410 . S
C756 C757 1.392 . S
C756 C759 1.511 . S
C757 C753 1.376 . S
C757 C756 1.392 . S
C757 H769 0.929 . S
C758 C754 1.531 . S
C758 H770 0.960 . S
C758 H771 0.962 . S
C758 H772 0.960 . S
C759 C756 1.511 . S
C759 H773 0.961 . S
C759 H774 0.961 . S
C759 H775 0.961 . S
C760 C761 1.370 . S
C760 C762 1.363 . S
C760 H776 0.931 . S
C761 C760 1.370 . S
C761 C765 1.408 . S
C762 C760 1.363 . S
C762 C763 1.370 . S
C762 C766 1.524 . S
C763 C755 1.503 . S
C763 C762 1.370 . S
C763 C764 1.403 . S
C764 C763 1.403 . S
C764 C765 1.404 . S
C764 C767 1.539 . S
C765 C761 1.408 . S
C765 C764 1.404 . S
C765 H777 0.930 . S
C766 C762 1.524 . S
C766 H778 0.956 . S
C766 H779 0.961 . S
C766 H780 0.961 . S
C767 C764 1.539 . S
C767 H781 0.958 . S
C767 H782 0.961 . S
C767 H783 0.960 . S
H768 C752 0.931 . S
H769 C757 0.929 . S
H770 C758 0.960 . S
H771 C758 0.962 . S
H772 C758 0.960 . S
H773 C759 0.961 . S
H774 C759 0.961 . S
H775 C759 0.961 . S
H776 C760 0.931 . S
H777 C765 0.930 . S
H778 C766 0.956 . S
H779 C766 0.961 . S
H780 C766 0.961 . S
H781 C767 0.958 . S
H782 C767 0.961 . S
H783 C767 0.960 . S
C784 C785 1.391 . S
C784 C786 1.394 . S
C784 H800 0.931 . S
C785 C784 1.391 . S
C785 C789 1.376 . S
C786 C784 1.394 . S
C786 C787 1.369 . S
C786 C790 1.531 . S
C787 C786 1.369 . S
C787 C788 1.410 . S
C787 C795 1.503 . S
C788 C787 1.410 . S
C788 C789 1.392 . S
C788 C791 1.511 . S
C789 C785 1.376 . S
C789 C788 1.392 . S
C789 H801 0.929 . S
C790 C786 1.531 . S
C790 H802 0.960 . S
C790 H803 0.962 . S
C790 H804 0.960 . S
C791 C788 1.511 . S
C791 H805 0.961 . S
C791 H806 0.961 . S
C791 H807 0.961 . S
C792 C793 1.370 . S
C792 C794 1.363 . S
C792 H808 0.931 . S
C793 C792 1.370 . S
C793 C797 1.408 . S
C794 C792 1.363 . S
C794 C795 1.370 . S
C794 C798 1.524 . S
C795 C787 1.503 . S
C795 C794 1.370 . S
C795 C796 1.403 . S
C796 C795 1.403 . S
C796 C797 1.404 . S
C796 C799 1.539 . S
C797 C793 1.408 . S
C797 C796 1.404 . S
C797 H809 0.930 . S
C798 C794 1.524 . S
C798 H810 0.956 . S
C798 H811 0.961 . S
C798 H812 0.961 . S
C799 C796 1.539 . S
C799 H813 0.958 . S
C799 H814 0.961 . S
C799 H815 0.960 . S
H800 C784 0.931 . S
H801 C789 0.929 . S
H802 C790 0.960 . S
H803 C790 0.962 . S
H804 C790 0.960 . S
H805 C791 0.961 . S
H806 C791 0.961 . S
H807 C791 0.961 . S
H808 C792 0.931 . S
H809 C797 0.930 . S
H810 C798 0.956 . S
H811 C798 0.961 . S
H812 C798 0.961 . S
H813 C799 0.958 . S
H814 C799 0.961 . S
H815 C799 0.960 . S
C816 C817 1.391 . S
C816 C818 1.394 . S
C816 H832 0.931 . S
C817 C816 1.391 . S
C817 C821 1.376 . S
C818 C816 1.394 . S
C818 C819 1.369 . S
C818 C822 1.531 . S
C819 C818 1.369 . S
C819 C820 1.410 . S
C819 C827 1.503 . S
C820 C819 1.410 . S
C820 C821 1.392 . S
C820 C823 1.511 . S
C821 C817 1.376 . S
C821 C820 1.392 . S
C821 H833 0.929 1_565 S
C822 C818 1.531 . S
C822 H834 0.960 . S
C822 H835 0.962 . S
C822 H836 0.960 . S
C823 C820 1.511 . S
C823 H837 0.961 . S
C823 H838 0.961 . S
C823 H839 0.961 . S
C824 C825 1.370 . S
C824 C826 1.363 . S
C824 H840 0.931 . S
C825 C824 1.370 . S
C825 C829 1.408 . S
C826 C824 1.363 . S
C826 C827 1.370 . S
C826 C830 1.524 . S
C827 C819 1.503 . S
C827 C826 1.370 . S
C827 C828 1.403 . S
C828 C827 1.403 . S
C828 C829 1.404 . S
C828 C831 1.539 . S
C829 C825 1.408 . S
C829 C828 1.404 . S
C829 H841 0.930 . S
C830 C826 1.524 . S
C830 H842 0.956 . S
C830 H843 0.961 . S
C830 H844 0.961 . S
C831 C828 1.539 . S
C831 H845 0.958 . S
C831 H846 0.961 . S
C831 H847 0.960 . S
H832 C816 0.931 . S
H833 C821 0.929 1_545 S
H834 C822 0.960 . S
H835 C822 0.962 . S
H836 C822 0.960 . S
H837 C823 0.961 . S
H838 C823 0.961 . S
H839 C823 0.961 . S
H840 C824 0.931 . S
H841 C829 0.930 . S
H842 C830 0.956 . S
H843 C830 0.961 . S
H844 C830 0.961 . S
H845 C831 0.958 . S
H846 C831 0.961 . S
H847 C831 0.960 . S
C848 C849 1.391 . S
C848 C850 1.394 . S
C848 H864 0.931 . S
C849 C848 1.391 . S
C849 C853 1.376 . S
C850 C848 1.394 . S
C850 C851 1.369 . S
C850 C854 1.531 . S
C851 C850 1.369 . S
C851 C852 1.410 . S
C851 C859 1.503 . S
C852 C851 1.410 . S
C852 C853 1.392 . S
C852 C855 1.511 . S
C853 C849 1.376 . S
C853 C852 1.392 . S
C853 H865 0.929 1_545 S
C854 C850 1.531 . S
C854 H866 0.960 . S
C854 H867 0.962 . S
C854 H868 0.960 . S
C855 C852 1.511 . S
C855 H869 0.961 1_545 S
C855 H870 0.961 . S
C855 H871 0.961 . S
C856 C857 1.370 . S
C856 C858 1.363 . S
C856 H872 0.931 . S
C857 C856 1.370 . S
C857 C861 1.408 . S
C858 C856 1.363 . S
C858 C859 1.370 . S
C858 C862 1.524 . S
C859 C851 1.503 . S
C859 C858 1.370 . S
C859 C860 1.403 . S
C860 C859 1.403 . S
C860 C861 1.404 . S
C860 C863 1.539 . S
C861 C857 1.408 . S
C861 C860 1.404 . S
C861 H873 0.930 . S
C862 C858 1.524 . S
C862 H874 0.956 . S
C862 H875 0.961 . S
C862 H876 0.961 . S
C863 C860 1.539 . S
C863 H877 0.958 . S
C863 H878 0.961 . S
C863 H879 0.960 . S
H864 C848 0.931 . S
H865 C853 0.929 1_565 S
H866 C854 0.960 . S
H867 C854 0.962 . S
H868 C854 0.960 . S
H869 C855 0.961 1_565 S
H870 C855 0.961 . S
H871 C855 0.961 . S
H872 C856 0.931 . S
H873 C861 0.930 . S
H874 C862 0.956 . S
H875 C862 0.961 . S
H876 C862 0.961 . S
H877 C863 0.958 . S
H878 C863 0.961 . S
H879 C863 0.960 . S
C880 C881 1.391 . S
C880 C882 1.394 . S
C880 H896 0.931 . S
C881 C880 1.391 . S
C881 C885 1.376 . S
C882 C880 1.394 . S
C882 C883 1.369 . S
C882 C886 1.531 . S
C883 C882 1.369 . S
C883 C884 1.410 . S
C883 C891 1.503 . S
C884 C883 1.410 . S
C884 C885 1.392 . S
C884 C887 1.511 . S
C885 C881 1.376 . S
C885 C884 1.392 . S
C885 H897 0.929 1_565 S
C886 C882 1.531 . S
C886 H898 0.960 . S
C886 H899 0.962 . S
C886 H900 0.960 . S
C887 C884 1.511 . S
C887 H901 0.961 . S
C887 H902 0.961 . S
C887 H903 0.961 . S
C888 C889 1.370 . S
C888 C890 1.363 . S
C888 H904 0.931 . S
C889 C888 1.370 . S
C889 C893 1.408 . S
C890 C888 1.363 . S
C890 C891 1.370 . S
C890 C894 1.524 . S
C891 C883 1.503 . S
C891 C890 1.370 . S
C891 C892 1.403 . S
C892 C891 1.403 . S
C892 C893 1.404 . S
C892 C895 1.539 . S
C893 C889 1.408 . S
C893 C892 1.404 . S
C893 H905 0.930 . S
C894 C890 1.524 . S
C894 H906 0.956 . S
C894 H907 0.961 . S
C894 H908 0.961 . S
C895 C892 1.539 . S
C895 H909 0.958 . S
C895 H910 0.961 . S
C895 H911 0.960 . S
H896 C880 0.931 . S
H897 C885 0.929 1_545 S
H898 C886 0.960 . S
H899 C886 0.962 . S
H900 C886 0.960 . S
H901 C887 0.961 . S
H902 C887 0.961 . S
H903 C887 0.961 . S
H904 C888 0.931 . S
H905 C893 0.930 . S
H906 C894 0.956 . S
H907 C894 0.961 . S
H908 C894 0.961 . S
H909 C895 0.958 . S
H910 C895 0.961 . S
H911 C895 0.960 . S
C912 C913 1.391 . S
C912 C914 1.394 . S
C912 H928 0.931 . S
C913 C912 1.391 . S
C913 C917 1.376 . S
C914 C912 1.394 . S
C914 C915 1.369 . S
C914 C918 1.531 . S
C915 C914 1.369 . S
C915 C916 1.410 . S
C915 C923 1.503 . S
C916 C915 1.410 . S
C916 C917 1.392 . S
C916 C919 1.511 . S
C917 C913 1.376 . S
C917 C916 1.392 . S
C917 H929 0.929 . S
C918 C914 1.531 . S
C918 H930 0.960 . S
C918 H931 0.962 . S
C918 H932 0.960 . S
C919 C916 1.511 . S
C919 H933 0.961 . S
C919 H934 0.961 . S
C919 H935 0.961 . S
C920 C921 1.370 . S
C920 C922 1.363 . S
C920 H936 0.931 . S
C921 C920 1.370 . S
C921 C925 1.408 . S
C922 C920 1.363 . S
C922 C923 1.370 . S
C922 C926 1.524 . S
C923 C915 1.503 . S
C923 C922 1.370 . S
C923 C924 1.403 . S
C924 C923 1.403 . S
C924 C925 1.404 . S
C924 C927 1.539 . S
C925 C921 1.408 . S
C925 C924 1.404 . S
C925 H937 0.930 . S
C926 C922 1.524 . S
C926 H938 0.956 . S
C926 H939 0.961 . S
C926 H940 0.961 . S
C927 C924 1.539 . S
C927 H941 0.958 . S
C927 H942 0.961 . S
C927 H943 0.960 . S
H928 C912 0.931 . S
H929 C917 0.929 . S
H930 C918 0.960 . S
H931 C918 0.962 . S
H932 C918 0.960 . S
H933 C919 0.961 . S
H934 C919 0.961 . S
H935 C919 0.961 . S
H936 C920 0.931 . S
H937 C925 0.930 . S
H938 C926 0.956 . S
H939 C926 0.961 . S
H940 C926 0.961 . S
H941 C927 0.958 . S
H942 C927 0.961 . S
H943 C927 0.960 . S
C944 C945 1.391 . S
C944 C946 1.394 . S
C944 H960 0.931 . S
C945 C944 1.391 . S
C945 C949 1.376 . S
C946 C944 1.394 . S
C946 C947 1.369 . S
C946 C950 1.531 . S
C947 C946 1.369 . S
C947 C948 1.410 . S
C947 C955 1.503 . S
C948 C947 1.410 . S
C948 C949 1.392 . S
C948 C951 1.511 . S
C949 C945 1.376 . S
C949 C948 1.392 . S
C949 H961 0.929 . S
C950 C946 1.531 . S
C950 H962 0.960 . S
C950 H963 0.962 . S
C950 H964 0.960 . S
C951 C948 1.511 . S
C951 H965 0.961 . S
C951 H966 0.961 . S
C951 H967 0.961 . S
C952 C953 1.370 . S
C952 C954 1.363 . S
C952 H968 0.931 . S
C953 C952 1.370 . S
C953 C957 1.408 . S
C954 C952 1.363 . S
C954 C955 1.370 . S
C954 C958 1.524 . S
C955 C947 1.503 . S
C955 C954 1.370 . S
C955 C956 1.403 . S
C956 C955 1.403 . S
C956 C957 1.404 . S
C956 C959 1.539 . S
C957 C953 1.408 . S
C957 C956 1.404 . S
C957 H969 0.930 . S
C958 C954 1.524 . S
C958 H970 0.956 . S
C958 H971 0.961 . S
C958 H972 0.961 . S
C959 C956 1.539 . S
C959 H973 0.958 . S
C959 H974 0.961 . S
C959 H975 0.960 . S
H960 C944 0.931 . S
H961 C949 0.929 . S
H962 C950 0.960 . S
H963 C950 0.962 . S
H964 C950 0.960 . S
H965 C951 0.961 . S
H966 C951 0.961 . S
H967 C951 0.961 . S
H968 C952 0.931 . S
H969 C957 0.930 . S
H970 C958 0.956 . S
H971 C958 0.961 . S
H972 C958 0.961 . S
H973 C959 0.958 . S
H974 C959 0.961 . S
H975 C959 0.960 . S
C976 C977 1.391 . S
C976 C978 1.394 . S
C976 H992 0.931 . S
C977 C976 1.391 . S
C977 C981 1.376 . S
C978 C976 1.394 . S
C978 C979 1.369 . S
C978 C982 1.531 . S
C979 C978 1.369 . S
C979 C980 1.410 . S
C979 C987 1.503 . S
C980 C979 1.410 . S
C980 C981 1.392 . S
C980 C983 1.511 . S
C981 C977 1.376 . S
C981 C980 1.392 . S
C981 H993 0.929 . S
C982 C978 1.531 . S
C982 H994 0.960 . S
C982 H995 0.962 . S
C982 H996 0.960 . S
C983 C980 1.511 . S
C983 H997 0.961 . S
C983 H998 0.961 . S
C983 H999 0.961 . S
C984 C985 1.370 . S
C984 C986 1.363 . S
C984 H1000 0.931 . S
C985 C984 1.370 . S
C985 C989 1.408 . S
C986 C984 1.363 . S
C986 C987 1.370 . S
C986 C990 1.524 . S
C987 C979 1.503 . S
C987 C986 1.370 . S
C987 C988 1.403 . S
C988 C987 1.403 . S
C988 C989 1.404 . S
C988 C991 1.539 . S
C989 C985 1.408 . S
C989 C988 1.404 . S
C989 H1001 0.930 . S
C990 C986 1.524 . S
C990 H1002 0.956 . S
C990 H1003 0.961 . S
C990 H1004 0.961 . S
C991 C988 1.539 . S
C991 H1005 0.958 . S
C991 H1006 0.961 . S
C991 H1007 0.960 . S
H992 C976 0.931 . S
H993 C981 0.929 . S
H994 C982 0.960 . S
H995 C982 0.962 . S
H996 C982 0.960 . S
H997 C983 0.961 . S
H998 C983 0.961 . S
H999 C983 0.961 . S
H1000 C984 0.931 . S
H1001 C989 0.930 . S
H1002 C990 0.956 . S
H1003 C990 0.961 . S
H1004 C990 0.961 . S
H1005 C991 0.958 . S
H1006 C991 0.961 . S
H1007 C991 0.960 . S
C1008 C1009 1.391 . S
C1008 C1010 1.394 . S
C1008 H1024 0.931 . S
C1009 C1008 1.391 . S
C1009 C1013 1.376 . S
C1010 C1008 1.394 . S
C1010 C1011 1.369 . S
C1010 C1014 1.531 . S
C1011 C1010 1.369 . S
C1011 C1012 1.410 . S
C1011 C1019 1.503 . S
C1012 C1011 1.410 . S
C1012 C1013 1.392 . S
C1012 C1015 1.511 . S
C1013 C1009 1.376 . S
C1013 C1012 1.392 . S
C1013 H1025 0.929 . S
C1014 C1010 1.531 . S
C1014 H1026 0.960 . S
C1014 H1027 0.962 . S
C1014 H1028 0.960 . S
C1015 C1012 1.511 . S
C1015 H1029 0.961 . S
C1015 H1030 0.961 . S
C1015 H1031 0.961 . S
C1016 C1017 1.370 . S
C1016 C1018 1.363 . S
C1016 H1032 0.931 . S
C1017 C1016 1.370 . S
C1017 C1021 1.408 . S
C1018 C1016 1.363 . S
C1018 C1019 1.370 . S
C1018 C1022 1.524 . S
C1019 C1011 1.503 . S
C1019 C1018 1.370 . S
C1019 C1020 1.403 . S
C1020 C1019 1.403 . S
C1020 C1021 1.404 . S
C1020 C1023 1.539 . S
C1021 C1017 1.408 . S
C1021 C1020 1.404 . S
C1021 H1033 0.930 . S
C1022 C1018 1.524 . S
C1022 H1034 0.956 . S
C1022 H1035 0.961 . S
C1022 H1036 0.961 . S
C1023 C1020 1.539 . S
C1023 H1037 0.958 . S
C1023 H1038 0.961 . S
C1023 H1039 0.960 . S
H1024 C1008 0.931 . S
H1025 C1013 0.929 . S
H1026 C1014 0.960 . S
H1027 C1014 0.962 . S
H1028 C1014 0.960 . S
H1029 C1015 0.961 . S
H1030 C1015 0.961 . S
H1031 C1015 0.961 . S
H1032 C1016 0.931 . S
H1033 C1021 0.930 . S
H1034 C1022 0.956 . S
H1035 C1022 0.961 . S
H1036 C1022 0.961 . S
H1037 C1023 0.958 . S
H1038 C1023 0.961 . S
H1039 C1023 0.960 . S
C1040 C1041 1.391 . S
C1040 C1042 1.394 . S
C1040 H1056 0.931 . S
C1041 C1040 1.391 . S
C1041 C1045 1.376 . S
C1042 C1040 1.394 . S
C1042 C1043 1.369 . S
C1042 C1046 1.531 . S
C1043 C1042 1.369 . S
C1043 C1044 1.410 . S
C1043 C1051 1.503 . S
C1044 C1043 1.410 . S
C1044 C1045 1.392 . S
C1044 C1047 1.511 . S
C1045 C1041 1.376 . S
C1045 C1044 1.392 . S
C1045 H1057 0.929 . S
C1046 C1042 1.531 . S
C1046 H1058 0.960 . S
C1046 H1059 0.962 . S
C1046 H1060 0.960 . S
C1047 C1044 1.511 . S
C1047 H1061 0.961 . S
C1047 H1062 0.961 . S
C1047 H1063 0.961 . S
C1048 C1049 1.370 . S
C1048 C1050 1.363 . S
C1048 H1064 0.931 . S
C1049 C1048 1.370 . S
C1049 C1053 1.408 . S
C1050 C1048 1.363 . S
C1050 C1051 1.370 . S
C1050 C1054 1.524 . S
C1051 C1043 1.503 . S
C1051 C1050 1.370 . S
C1051 C1052 1.403 . S
C1052 C1051 1.403 . S
C1052 C1053 1.404 . S
C1052 C1055 1.539 . S
C1053 C1049 1.408 . S
C1053 C1052 1.404 . S
C1053 H1065 0.930 . S
C1054 C1050 1.524 . S
C1054 H1066 0.956 . S
C1054 H1067 0.961 . S
C1054 H1068 0.961 . S
C1055 C1052 1.539 . S
C1055 H1069 0.958 . S
C1055 H1070 0.961 . S
C1055 H1071 0.960 . S
H1056 C1040 0.931 . S
H1057 C1045 0.929 . S
H1058 C1046 0.960 . S
H1059 C1046 0.962 . S
H1060 C1046 0.960 . S
H1061 C1047 0.961 . S
H1062 C1047 0.961 . S
H1063 C1047 0.961 . S
H1064 C1048 0.931 . S
H1065 C1053 0.930 . S
H1066 C1054 0.956 . S
H1067 C1054 0.961 . S
H1068 C1054 0.961 . S
H1069 C1055 0.958 . S
H1070 C1055 0.961 . S
H1071 C1055 0.960 . S
C1072 C1073 1.391 . S
C1072 C1074 1.394 . S
C1072 H1088 0.931 . S
C1073 C1072 1.391 . S
C1073 C1077 1.376 . S
C1074 C1072 1.394 . S
C1074 C1075 1.369 . S
C1074 C1078 1.531 . S
C1075 C1074 1.369 . S
C1075 C1076 1.410 . S
C1075 C1083 1.503 . S
C1076 C1075 1.410 . S
C1076 C1077 1.392 . S
C1076 C1079 1.511 . S
C1077 C1073 1.376 . S
C1077 C1076 1.392 . S
C1077 H1089 0.929 . S
C1078 C1074 1.531 . S
C1078 H1090 0.960 . S
C1078 H1091 0.962 . S
C1078 H1092 0.960 . S
C1079 C1076 1.511 . S
C1079 H1093 0.961 . S
C1079 H1094 0.961 . S
C1079 H1095 0.961 . S
C1080 C1081 1.370 . S
C1080 C1082 1.363 . S
C1080 H1096 0.931 . S
C1081 C1080 1.370 . S
C1081 C1085 1.408 . S
C1082 C1080 1.363 . S
C1082 C1083 1.370 . S
C1082 C1086 1.524 . S
C1083 C1075 1.503 . S
C1083 C1082 1.370 . S
C1083 C1084 1.403 . S
C1084 C1083 1.403 . S
C1084 C1085 1.404 . S
C1084 C1087 1.539 . S
C1085 C1081 1.408 . S
C1085 C1084 1.404 . S
C1085 H1097 0.930 . S
C1086 C1082 1.524 . S
C1086 H1098 0.956 . S
C1086 H1099 0.961 . S
C1086 H1100 0.961 . S
C1087 C1084 1.539 . S
C1087 H1101 0.958 . S
C1087 H1102 0.961 . S
C1087 H1103 0.960 . S
H1088 C1072 0.931 . S
H1089 C1077 0.929 . S
H1090 C1078 0.960 . S
H1091 C1078 0.962 . S
H1092 C1078 0.960 . S
H1093 C1079 0.961 . S
H1094 C1079 0.961 . S
H1095 C1079 0.961 . S
H1096 C1080 0.931 . S
H1097 C1085 0.930 . S
H1098 C1086 0.956 . S
H1099 C1086 0.961 . S
H1100 C1086 0.961 . S
H1101 C1087 0.958 . S
H1102 C1087 0.961 . S
H1103 C1087 0.960 . S
C1104 C1105 1.391 . S
C1104 C1106 1.394 . S
C1104 H1120 0.931 . S
C1105 C1104 1.391 . S
C1105 C1109 1.376 . S
C1106 C1104 1.394 . S
C1106 C1107 1.369 . S
C1106 C1110 1.531 . S
C1107 C1106 1.369 . S
C1107 C1108 1.410 . S
C1107 C1115 1.503 . S
C1108 C1107 1.410 . S
C1108 C1109 1.392 . S
C1108 C1111 1.511 . S
C1109 C1105 1.376 . S
C1109 C1108 1.392 . S
C1109 H1121 0.929 . S
C1110 C1106 1.531 . S
C1110 H1122 0.960 . S
C1110 H1123 0.962 . S
C1110 H1124 0.960 . S
C1111 C1108 1.511 . S
C1111 H1125 0.961 . S
C1111 H1126 0.961 . S
C1111 H1127 0.961 . S
C1112 C1113 1.370 . S
C1112 C1114 1.363 . S
C1112 H1128 0.931 . S
C1113 C1112 1.370 . S
C1113 C1117 1.408 . S
C1114 C1112 1.363 . S
C1114 C1115 1.370 . S
C1114 C1118 1.524 . S
C1115 C1107 1.503 . S
C1115 C1114 1.370 . S
C1115 C1116 1.403 . S
C1116 C1115 1.403 . S
C1116 C1117 1.404 . S
C1116 C1119 1.539 . S
C1117 C1113 1.408 . S
C1117 C1116 1.404 . S
C1117 H1129 0.930 . S
C1118 C1114 1.524 . S
C1118 H1130 0.956 . S
C1118 H1131 0.961 . S
C1118 H1132 0.961 . S
C1119 C1116 1.539 . S
C1119 H1133 0.958 . S
C1119 H1134 0.961 . S
C1119 H1135 0.960 . S
H1120 C1104 0.931 . S
H1121 C1109 0.929 . S
H1122 C1110 0.960 . S
H1123 C1110 0.962 . S
H1124 C1110 0.960 . S
H1125 C1111 0.961 . S
H1126 C1111 0.961 . S
H1127 C1111 0.961 . S
H1128 C1112 0.931 . S
H1129 C1117 0.930 . S
H1130 C1118 0.956 . S
H1131 C1118 0.961 . S
H1132 C1118 0.961 . S
H1133 C1119 0.958 . S
H1134 C1119 0.961 . S
H1135 C1119 0.960 . S
C1136 C1137 1.391 . S
C1136 C1138 1.394 . S
C1136 H1152 0.931 . S
C1137 C1136 1.391 . S
C1137 C1141 1.376 . S
C1138 C1136 1.394 . S
C1138 C1139 1.369 . S
C1138 C1142 1.531 . S
C1139 C1138 1.369 . S
C1139 C1140 1.410 . S
C1139 C1147 1.503 . S
C1140 C1139 1.410 . S
C1140 C1141 1.392 . S
C1140 C1143 1.511 . S
C1141 C1137 1.376 . S
C1141 C1140 1.392 . S
C1141 H1153 0.929 . S
C1142 C1138 1.531 . S
C1142 H1154 0.960 . S
C1142 H1155 0.962 . S
C1142 H1156 0.960 . S
C1143 C1140 1.511 . S
C1143 H1157 0.961 . S
C1143 H1158 0.961 . S
C1143 H1159 0.961 . S
C1144 C1145 1.370 . S
C1144 C1146 1.363 . S
C1144 H1160 0.931 . S
C1145 C1144 1.370 . S
C1145 C1149 1.408 . S
C1146 C1144 1.363 . S
C1146 C1147 1.370 . S
C1146 C1150 1.524 . S
C1147 C1139 1.503 . S
C1147 C1146 1.370 . S
C1147 C1148 1.403 . S
C1148 C1147 1.403 . S
C1148 C1149 1.404 . S
C1148 C1151 1.539 . S
C1149 C1145 1.408 . S
C1149 C1148 1.404 . S
C1149 H1161 0.930 . S
C1150 C1146 1.524 . S
C1150 H1162 0.956 . S
C1150 H1163 0.961 . S
C1150 H1164 0.961 . S
C1151 C1148 1.539 . S
C1151 H1165 0.958 . S
C1151 H1166 0.961 . S
C1151 H1167 0.960 . S
H1152 C1136 0.931 . S
H1153 C1141 0.929 . S
H1154 C1142 0.960 . S
H1155 C1142 0.962 . S
H1156 C1142 0.960 . S
H1157 C1143 0.961 . S
H1158 C1143 0.961 . S
H1159 C1143 0.961 . S
H1160 C1144 0.931 . S
H1161 C1149 0.930 . S
H1162 C1150 0.956 . S
H1163 C1150 0.961 . S
H1164 C1150 0.961 . S
H1165 C1151 0.958 . S
H1166 C1151 0.961 . S
H1167 C1151 0.960 . S
C401 C21 1.558 . S
C409 C338 1.509 . S
C441 C316 1.520 . S
C433 C60 1.551 . S
C473 C342 1.524 . S
C465 C99 1.545 . S
C505 C320 1.527 . S
C497 C138 1.529 . S
C537 C382 1.510 . S
C529 C177 1.555 . S
C569 C360 1.508 . S
C561 C216 1.560 . S
C593 C255 1.530 . S
C601 C386 1.532 . S
C633 C364 1.526 . S
C625 C294 1.533 . S
C657 C1 1.542 . S
C665 C387 1.562 . S
C697 C365 1.559 . S
C689 C40 1.536 . S
C721 C79 1.552 . S
C729 C384 1.571 . S
C753 C133 1.540 . S
C761 C362 1.560 . S
C793 C343 1.561 . S
C785 C157 1.538 1_545 S
C817 C196 1.546 1_565 S
C825 C321 1.563 . S
C857 C340 1.571 . S
C849 C235 1.563 1_545 S
C889 C318 1.557 . S
C881 C289 1.543 1_565 S
C921 C361 1.528 . S
C913 C16 1.506 . S
C953 C383 1.527 . S
C945 C55 1.501 . S
C977 C94 1.535 . S
C985 C363 1.534 . S
C1017 C385 1.530 . S
C1009 C118 1.521 . S
C1049 C317 1.540 . S
C1041 C172 1.530 . S
C1073 C211 1.503 . S
C1081 C339 1.527 . S
C1105 C250 1.500 . S
C1113 C319 1.529 . S
C1137 C274 1.506 . S
C1145 C341 1.533 . S
