# Generated by pormake.
# Topology rtl, (3,6)-cn, num edge types: 1
# Building blocks:
#     Node 0, Type 0, BuildingBlock: BELTOD_clean_linker_0, # of connection points: 3
#     Node 1, Type 0, BuildingBlock: BELTOD_clean_linker_0, # of connection points: 3
#     Node 2, Type 0, BuildingBlock: BELTOD_clean_linker_0, # of connection points: 3
#     Node 3, Type 0, BuildingBlock: BELTOD_clean_linker_0, # of connection points: 3
#     Node 4, Type 1, BuildingBlock: CIFDUS_clean_sbu_1, # of connection points: 6
#     Node 5, Type 1, BuildingBlock: CIFDUS_clean_sbu_1, # of connection points: 6
#     Edge 6, Type (0, 1), BuildingBlock: XUDNAN_clean_linker_2, # of connection points: 2
#     Edge 7, Type (0, 1), BuildingBlock: XUDNAN_clean_linker_2, # of connection points: 2
#     Edge 8, Type (0, 1), BuildingBlock: XUDNAN_clean_linker_2, # of connection points: 2
#     Edge 9, Type (0, 1), BuildingBlock: XUDNAN_clean_linker_2, # of connection points: 2
#     Edge 10, Type (0, 1), BuildingBlock: XUDNAN_clean_linker_2, # of connection points: 2
#     Edge 11, Type (0, 1), BuildingBlock: XUDNAN_clean_linker_2, # of connection points: 2
#     Edge 12, Type (0, 1), BuildingBlock: XUDNAN_clean_linker_2, # of connection points: 2
#     Edge 13, Type (0, 1), BuildingBlock: XUDNAN_clean_linker_2, # of connection points: 2
#     Edge 14, Type (0, 1), BuildingBlock: XUDNAN_clean_linker_2, # of connection points: 2
#     Edge 15, Type (0, 1), BuildingBlock: XUDNAN_clean_linker_2, # of connection points: 2
#     Edge 16, Type (0, 1), BuildingBlock: XUDNAN_clean_linker_2, # of connection points: 2
#     Edge 17, Type (0, 1), BuildingBlock: XUDNAN_clean_linker_2, # of connection points: 2
# Relax obj value: 0.026
# Max RMSD: 0.063
# Mean RMSD: 0.044
data_MOF--net-rtl--node1-CIFDUS_clean_sbu_1--node2-BELTOD_clean_linker_0--edge1-XUDNAN_clean_linker_2
_symmetry_space_group_name_H-M    P1
_symmetry_Int_Tables_number       1
_symmetry_cell_setting            triclinic
loop_
_symmetry_equiv_pos_as_xyz
'x, y, z'
_cell_length_a     35.110864
_cell_length_b     39.326273
_cell_length_c     27.131021
_cell_angle_alpha  89.4368
_cell_angle_beta   98.059658
_cell_angle_gamma 89.71729
loop_
_atom_site_label
_atom_site_type_symbol
_atom_site_fract_x
_atom_site_fract_y
_atom_site_fract_z
_atom_type_partial_charge
P0 P 0.29949 0.90565 0.10254 0.0
H1 H 0.33019 0.92483 0.2042 0.0
H2 H 0.29967 0.94291 0.2755 0.0
H3 H 0.18798 0.93307 0.18673 0.0
H4 H 0.21858 0.91339 0.11714 0.0
H5 H 0.36467 0.86815 0.07434 0.0
H6 H 0.38378 0.80847 0.08123 0.0
H7 H 0.28268 0.78558 0.14961 0.0
H8 H 0.26325 0.84553 0.14121 0.0
H9 H 0.26073 0.96776 0.06509 0.0
H10 H 0.27015 0.86497 0.01377 0.0
O11 O 0.33924 0.92874 0.10264 0.0
H12 H 0.21498 0.98139 0.9909 0.0
H13 H 0.22468 0.87882 0.93878 0.0
C14 C 0.27672 0.91838 0.15512 0.0
C15 C 0.29912 0.92654 0.20031 0.0
C16 C 0.28161 0.93713 0.24094 0.0
C17 C 0.24129 0.93967 0.23706 0.0
C18 C 0.21905 0.93103 0.1916 0.0
C19 C 0.23656 0.9201 0.15135 0.0
C20 C 0.31299 0.86137 0.10817 0.0
C21 C 0.34673 0.85034 0.09111 0.0
C22 C 0.35777 0.81615 0.09545 0.0
C23 C 0.33515 0.79216 0.11685 0.0
C24 C 0.30081 0.80329 0.13301 0.0
C25 C 0.28977 0.8376 0.12851 0.0
C26 C 0.26832 0.91526 0.04539 0.0
C27 C 0.25318 0.9482 0.03766 0.0
C28 C 0.22711 0.95597 0.99532 0.0
C29 C 0.21623 0.93106 0.95941 0.0
C30 C 0.23276 0.89844 0.96594 0.0
C31 C 0.25854 0.89051 0.00888 0.0
P32 P 0.77532 0.64091 0.59139 0.0
H33 H 0.78395 0.62171 0.48949 0.0
H34 H 0.7375 0.61249 0.41488 0.0
H35 H 0.6457 0.64535 0.49435 0.0
H36 H 0.69204 0.65409 0.56861 0.0
H37 H 0.81065 0.67586 0.6808 0.0
H38 H 0.84364 0.73062 0.69269 0.0
H39 H 0.81178 0.75402 0.53656 0.0
H40 H 0.77881 0.69954 0.52482 0.0
H41 H 0.78547 0.57669 0.64719 0.0
H42 H 0.7197 0.66917 0.65128 0.0
O43 O 0.81396 0.61739 0.58486 0.0
H44 H 0.75811 0.55443 0.71838 0.0
H45 H 0.6894 0.64609 0.71962 0.0
C46 C 0.74137 0.63751 0.53523 0.0
C47 C 0.75382 0.62698 0.49083 0.0
C48 C 0.72728 0.62204 0.448 0.0
C49 C 0.6878 0.62769 0.44889 0.0
C50 C 0.6758 0.64004 0.49275 0.0
C51 C 0.70235 0.64504 0.5354 0.0
C52 C 0.79174 0.68383 0.60208 0.0
C53 C 0.80972 0.69324 0.64946 0.0
C54 C 0.82855 0.7245 0.65628 0.0
C55 C 0.83026 0.74643 0.61555 0.0
C56 C 0.81093 0.73748 0.56856 0.0
C57 C 0.79194 0.7064 0.56186 0.0
C58 C 0.75468 0.62462 0.644 0.0
C59 C 0.76484 0.59213 0.66321 0.0
C60 C 0.74871 0.57924 0.70375 0.0
C61 C 0.72129 0.59826 0.72523 0.0
C62 C 0.71097 0.6308 0.70522 0.0
C63 C 0.72786 0.64396 0.66547 0.0
P64 P 0.81248 0.20861 0.99964 0.0
H65 H 0.85358 0.21497 0.91396 0.0
H66 H 0.86255 0.17727 0.84636 0.0
H67 H 0.7897 0.10252 0.9037 0.0
H68 H 0.78192 0.14055 0.97309 0.0
H69 H 0.77125 0.24467 0.06961 0.0
H70 H 0.71336 0.28017 0.05814 0.0
H71 H 0.69515 0.25611 0.90174 0.0
H72 H 0.75282 0.21995 0.91359 0.0
H73 H 0.88671 0.18741 0.05064 0.0
H74 H 0.7683 0.17856 0.0749 0.0
O75 O 0.84396 0.24015 0.99835 0.0
H76 H 0.90724 0.15581 0.12819 0.0
H77 H 0.78909 0.14725 0.15314 0.0
C78 C 0.81735 0.18047 0.94879 0.0
C79 C 0.83948 0.19052 0.91219 0.0
C80 C 0.84423 0.16894 0.87302 0.0
C81 C 0.82651 0.13685 0.86904 0.0
C82 C 0.80395 0.12692 0.90571 0.0
C83 C 0.79935 0.14864 0.94525 0.0
C84 C 0.76572 0.22865 0.9929 0.0
C85 C 0.75409 0.24596 0.03322 0.0
C86 C 0.72109 0.26643 0.02653 0.0
C87 C 0.69965 0.27075 0.97904 0.0
C88 C 0.71112 0.25318 0.93871 0.0
C89 C 0.74389 0.23227 0.94562 0.0
C90 C 0.8261 0.18611 0.05766 0.0
C91 C 0.8652 0.17932 0.07319 0.0
C92 C 0.87697 0.16157 0.11755 0.0
C93 C 0.84977 0.15029 0.14707 0.0
C94 C 0.81053 0.15671 0.13145 0.0
C95 C 0.79871 0.17441 0.08678 0.0
P96 P 0.27717 0.36096 0.49424 0.0
H97 H 0.2999 0.32793 0.58962 0.0
H98 H 0.31693 0.34967 0.67332 0.0
H99 H 0.27856 0.45009 0.62115 0.0
H100 H 0.2628 0.42807 0.5367 0.0
H101 H 0.25581 0.32045 0.40631 0.0
H102 H 0.20994 0.27425 0.38738 0.0
H103 H 0.16718 0.29094 0.52702 0.0
H104 H 0.21271 0.33754 0.54523 0.0
H105 H 0.33686 0.40935 0.48262 0.0
H106 H 0.22318 0.387 0.40792 0.0
O107 O 0.31675 0.33761 0.49239 0.0
H108 H 0.34786 0.44663 0.41335 0.0
H109 H 0.23442 0.42427 0.33819 0.0
C110 C 0.28069 0.37645 0.55692 0.0
C111 C 0.29456 0.35452 0.59637 0.0
C112 C 0.30406 0.36703 0.64444 0.0
C113 C 0.29949 0.40179 0.65418 0.0
C114 C 0.2832 0.42333 0.61489 0.0
C115 C 0.27388 0.41073 0.5666 0.0
C116 C 0.23763 0.33244 0.47708 0.0
C117 C 0.2359 0.31468 0.43228 0.0
C118 C 0.20988 0.28811 0.42168 0.0
C119 C 0.18512 0.27869 0.45583 0.0
C120 C 0.18559 0.29774 0.49965 0.0
C121 C 0.21175 0.32435 0.51025 0.0
C122 C 0.27954 0.39499 0.44996 0.0
C123 C 0.31384 0.41329 0.45204 0.0
C124 C 0.32004 0.43468 0.4127 0.0
C125 C 0.29186 0.43828 0.3709 0.0
C126 C 0.25628 0.4221 0.37048 0.0
C127 C 0.25006 0.40061 0.41005 0.0
O128 O 0.98159 0.03655 0.48181 0.0
Mn129 Mn 0.01294 0.01703 0.54998 0.0
O130 O 0.94419 0.9942 0.45747 0.0
Mn131 Mn 0.98642 0.96889 0.48004 0.0
O132 O 0.0445 1.00005 0.61764 0.0
O133 O 0.03344 0.06552 0.55836 0.0
Mn134 Mn 0.03094 0.07559 0.62122 0.0
O135 O 0.96561 0.02797 0.58753 0.0
O136 O 0.06204 0.04637 0.66259 0.0
O137 O 0.06021 0.00564 0.51302 0.0
O138 O 0.03027 0.97522 0.45104 0.0
O139 O 0.05058 0.11353 0.5966 0.0
O140 O 0.98007 0.07587 0.63027 0.0
C141 C 0.98137 0.93514 0.53433 0.0
C142 C 0.95256 0.02485 0.45314 0.0
C143 C 0.06218 0.01438 0.65661 0.0
C144 C 0.04683 0.09629 0.55573 0.0
C145 C 0.9569 0.05218 0.6156 0.0
C146 C 0.06035 0.98957 0.47213 0.0
O147 O 0.99309 0.96639 0.54609 0.0
O148 O 0.97582 0.92603 0.48802 0.0
O149 O 0.52827 0.54748 0.10573 0.0
Mn150 Mn 0.49826 0.52364 0.04253 0.0
O151 O 0.56228 0.50761 0.1499 0.0
Mn152 Mn 0.5261 0.47687 0.12427 0.0
O153 O 0.46602 0.50293 0.9794 0.0
O154 O 0.47511 0.56987 0.02456 0.0
Mn155 Mn 0.47948 0.57965 0.96211 0.0
O156 O 0.54463 0.53277 1.00231 0.0
O157 O 0.45157 0.54642 0.92505 0.0
O158 O 0.45217 0.51419 0.08247 0.0
O159 O 0.47848 0.47995 0.14468 0.0
O160 O 0.45482 0.6164 0.98506 0.0
O161 O 0.53136 0.58083 0.95772 0.0
C162 C 0.536 0.44459 0.06837 0.0
C163 C 0.55405 0.53854 0.14173 0.0
C164 C 0.4493 0.5152 0.93767 0.0
C165 C 0.45762 0.59877 0.02593 0.0
C166 C 0.55414 0.55668 0.97367 0.0
C167 C 0.44997 0.4964 0.12195 0.0
O168 O 0.52137 0.47522 0.05829 0.0
O169 O 0.54324 0.43526 0.11477 0.0
H170 H 0.1106 0.26913 0.47283 0.0
H171 H 0.20736 0.21684 0.42389 0.0
H172 H 0.1722 0.16269 0.4228 0.0
H173 H 0.09274 0.21101 0.55744 0.0
H174 H 0.04102 0.21477 0.54731 0.0
H175 H 0.06987 0.24981 0.53232 0.0
H176 H 0.03372 0.2504 0.44205 0.0
H177 H 0.00515 0.21471 0.45686 0.0
H178 H 0.03234 0.21233 0.40537 0.0
H179 H 0.13333 0.11297 0.44539 0.0
H180 H 0.09632 0.07424 0.49316 0.0
H181 H 0.02353 0.15809 0.5232 0.0
C182 C 0.12389 0.24643 0.46051 0.0
C183 C 0.16159 0.24731 0.4481 0.0
C184 C 0.1782 0.21698 0.43263 0.0
C185 C 0.15839 0.18603 0.43184 0.0
C186 C 0.12164 0.1858 0.44572 0.0
C187 C 0.10437 0.21538 0.45919 0.0
C188 C 0.06708 0.20787 0.47895 0.0
C189 C 0.06777 0.22164 0.53213 0.0
C190 C 0.03253 0.22218 0.44368 0.0
C191 C 0.06757 0.16936 0.4782 0.0
C192 C 0.09864 0.15695 0.45758 0.0
C193 C 0.10815 0.1223 0.45999 0.0
C194 C 0.0868 0.10026 0.48667 0.0
C195 C 0.05678 0.11315 0.51071 0.0
C196 C 0.04568 0.14757 0.50366 0.0
H197 H 0.40817 0.76595 0.13997 0.0
H198 H 0.28928 0.73573 0.1003 0.0
H199 H 0.31008 0.67595 0.09647 0.0
H200 H 0.44421 0.71865 0.05537 0.0
H201 H 0.48906 0.70757 0.09317 0.0
H202 H 0.46405 0.74561 0.10584 0.0
H203 H 0.46389 0.72477 0.19686 0.0
H204 H 0.48836 0.68613 0.18381 0.0
H205 H 0.44341 0.68404 0.20859 0.0
H206 H 0.34382 0.62207 0.08071 0.0
H207 H 0.38664 0.58219 0.04472 0.0
H208 H 0.48363 0.64704 0.09148 0.0
C209 C 0.3864 0.74668 0.13149 0.0
C210 C 0.34704 0.75565 0.12067 0.0
C211 C 0.31953 0.72957 0.10975 0.0
C212 C 0.33111 0.69543 0.10758 0.0
C213 C 0.37029 0.6876 0.117 0.0
C214 C 0.39752 0.71258 0.12884 0.0
C215 C 0.43791 0.69865 0.12965 0.0
C216 C 0.46005 0.71878 0.09384 0.0
C217 C 0.45968 0.69838 0.1829 0.0
C218 C 0.42911 0.66274 0.11197 0.0
C219 C 0.39002 0.65632 0.10717 0.0
C220 C 0.37452 0.6264 0.08576 0.0
C221 C 0.39911 0.60362 0.06589 0.0
C222 C 0.43852 0.61112 0.06702 0.0
C223 C 0.45392 0.6401 0.09246 0.0
H224 H 0.88553 0.76112 0.55898 0.0
H225 H 0.83278 0.79895 0.68281 0.0
H226 H 0.87456 0.85008 0.68621 0.0
H227 H 0.9829 0.79026 0.59987 0.0
H228 H 0.99071 0.80093 0.53729 0.0
H229 H 0.95858 0.76691 0.54794 0.0
H230 H 0.90349 0.796 0.48818 0.0
H231 H 0.93564 0.82963 0.47674 0.0
H232 H 0.89083 0.83952 0.49878 0.0
H233 H 0.91639 0.90156 0.66541 0.0
H234 H 0.95292 0.94492 0.62398 0.0
H235 H 0.98301 0.86781 0.52294 0.0
C236 C 0.88296 0.78005 0.58711 0.0
C237 C 0.85579 0.77645 0.62026 0.0
C238 C 0.85349 0.80146 0.65696 0.0
C239 C 0.87713 0.83045 0.65918 0.0
C240 C 0.90344 0.83345 0.62523 0.0
C241 C 0.9066 0.80851 0.59034 0.0
C242 C 0.93512 0.81793 0.55602 0.0
C243 C 0.96883 0.79249 0.56061 0.0
C244 C 0.91508 0.82096 0.50178 0.0
C245 C 0.94771 0.85218 0.5767 0.0
C246 C 0.92897 0.8613 0.61615 0.0
C247 C 0.93203 0.89426 0.63549 0.0
C248 C 0.95316 0.9187 0.61221 0.0
C249 C 0.97102 0.90966 0.57055 0.0
C250 C 0.97008 0.87547 0.55513 0.0
H251 H 0.64053 0.27561 0.03375 0.0
H252 H 0.68639 0.32201 0.90936 0.0
H253 H 0.63805 0.36837 0.90653 0.0
H254 H 0.53699 0.30146 0.99494 0.0
H255 H 0.53051 0.30869 0.05876 0.0
H256 H 0.56349 0.27623 0.04418 0.0
H257 H 0.61846 0.30383 0.10423 0.0
H258 H 0.5857 0.336 0.11919 0.0
H259 H 0.62939 0.34809 0.09597 0.0
H260 H 0.59267 0.41546 0.92889 0.0
H261 H 0.55659 0.45642 0.97479 0.0
H262 H 0.539 0.37684 0.08014 0.0
C263 C 0.63961 0.29502 1.00499 0.0
C264 C 0.66698 0.29523 0.9717 0.0
C265 C 0.66525 0.32118 0.93483 0.0
C266 C 0.63789 0.34761 0.93296 0.0
C267 C 0.61196 0.34728 0.96754 0.0
C268 C 0.61232 0.32122 1.00235 0.0
C269 C 0.58465 0.32821 0.0389 0.0
C270 C 0.55197 0.30209 0.03386 0.0
C271 C 0.60582 0.32911 0.09269 0.0
C272 C 0.57004 0.36303 0.02098 0.0
C273 C 0.58552 0.3737 0.9794 0.0
C274 C 0.57974 0.40699 0.96077 0.0
C275 C 0.55926 0.43017 0.98681 0.0
C276 C 0.54558 0.41992 0.03109 0.0
C277 C 0.54912 0.38546 0.04623 0.0
H278 H 0.17393 0.91607 0.26441 0.0
H279 H 0.2651 0.98853 0.30737 0.0
H280 H 0.23155 0.00757 0.37676 0.0
H281 H 0.09752 0.9711 0.28397 0.0
H282 H 0.0691 0.93751 0.30565 0.0
H283 H 0.10226 0.92821 0.26265 0.0
H284 H 0.13556 0.88248 0.32389 0.0
H285 H 0.10257 0.89178 0.36721 0.0
H286 H 0.15368 0.8942 0.38687 0.0
H287 H 0.18515 0.0193 0.44186 0.0
H288 H 0.13041 0.02385 0.49059 0.0
H289 H 0.07023 0.94608 0.39819 0.0
C290 C 0.18694 0.9361 0.28803 0.0
C291 C 0.22222 0.95076 0.28011 0.0
C292 C 0.23835 0.97648 0.31291 0.0
C293 C 0.2194 0.9876 0.35235 0.0
C294 C 0.1843 0.97282 0.3585 0.0
C295 C 0.16834 0.94769 0.3269 0.0
C296 C 0.12967 0.93673 0.33925 0.0
C297 C 0.09777 0.94383 0.29528 0.0
C298 C 0.13044 0.89907 0.35527 0.0
C299 C 0.12598 0.95978 0.38246 0.0
C300 C 0.15773 0.98027 0.3938 0.0
C301 C 0.16005 1.00349 0.43288 0.0
C302 C 0.12877 0.00607 0.46024 0.0
C303 C 0.09545 0.98607 0.44756 0.0
C304 C 0.0948 0.96232 0.40866 0.0
H305 H 0.69579 0.63323 0.80235 0.0
H306 H 0.70444 0.53124 0.7444 0.0
H307 H 0.673 0.50847 0.8131 0.0
H308 H 0.70511 0.61122 0.9353 0.0
H309 H 0.66904 0.64182 0.94671 0.0
H310 H 0.69828 0.64964 0.89824 0.0
H311 H 0.63697 0.65688 0.83344 0.0
H312 H 0.60769 0.64967 0.88175 0.0
H313 H 0.60157 0.62358 0.82698 0.0
H314 H 0.63555 0.49711 0.88421 0.0
H315 H 0.58789 0.49941 0.94285 0.0
H316 H 0.59894 0.6089 0.94956 0.0
C317 C 0.69129 0.60606 0.80384 0.0
C318 C 0.70329 0.58416 0.76781 0.0
C319 C 0.69676 0.5487 0.77202 0.0
C320 C 0.67873 0.53542 0.81099 0.0
C321 C 0.66706 0.55785 0.84546 0.0
C322 C 0.67267 0.59247 0.84181 0.0
C323 C 0.65333 0.61162 0.8797 0.0
C324 C 0.68323 0.62964 0.91721 0.0
C325 C 0.6231 0.6369 0.85392 0.0
C326 C 0.63482 0.58245 0.90416 0.0
C327 C 0.64402 0.55153 0.88498 0.0
C328 C 0.62856 0.52115 0.89995 0.0
C329 C 0.60174 0.5226 0.93373 0.0
C330 C 0.59005 0.55421 0.95121 0.0
C331 C 0.60782 0.58432 0.93737 0.0
H332 H 0.8739 0.16706 0.24517 0.0
H333 H 0.85458 0.08243 0.14365 0.0
H334 H 0.87977 0.04268 0.21147 0.0
H335 H 0.96227 0.13603 0.31465 0.0
H336 H 0.95199 0.14997 0.37452 0.0
H337 H 0.93154 0.17246 0.31879 0.0
H338 H 0.86311 0.16368 0.34189 0.0
H339 H 0.88343 0.14143 0.39792 0.0
H340 H 0.84728 0.1213 0.35425 0.0
H341 H 0.90793 0.01289 0.28578 0.0
H342 H 0.93526 0.99135 0.36743 0.0
H343 H 0.93744 0.09376 0.42707 0.0
C344 C 0.87472 0.14007 0.23781 0.0
C345 C 0.86217 0.12742 0.18961 0.0
C346 C 0.86381 0.09223 0.18056 0.0
C347 C 0.87817 0.06962 0.21872 0.0
C348 C 0.89065 0.08269 0.26569 0.0
C349 C 0.8889 0.11693 0.27589 0.0
C350 C 0.90434 0.12356 0.33033 0.0
C351 C 0.93964 0.14689 0.33482 0.0
C352 C 0.87265 0.13837 0.35772 0.0
C353 C 0.91539 0.08767 0.34866 0.0
C354 C 0.90703 0.06486 0.31022 0.0
C355 C 0.91422 0.03036 0.31638 0.0
C356 C 0.92967 0.01843 0.36332 0.0
C357 C 0.93786 0.04074 0.4043 0.0
C358 C 0.93128 0.07609 0.39668 0.0
H359 H 0.33596 0.46282 0.67502 0.0
H360 H 0.29857 0.37191 0.74631 0.0
H361 H 0.33239 0.39107 0.827 0.0
H362 H 0.42756 0.46791 0.7411 0.0
H363 H 0.42806 0.51354 0.74678 0.0
H364 H 0.39877 0.49409 0.69505 0.0
H365 H 0.33819 0.5246 0.71812 0.0
H366 H 0.36746 0.54463 0.76948 0.0
H367 H 0.32616 0.52008 0.78029 0.0
H368 H 0.37565 0.41764 0.89859 0.0
H369 H 0.41905 0.45282 0.95697 0.0
H370 H 0.4247 0.52727 0.83898 0.0
C371 C 0.33384 0.4473 0.70768 0.0
C372 C 0.31476 0.41563 0.70396 0.0
C373 C 0.31355 0.39595 0.74783 0.0
C374 C 0.33252 0.40669 0.79397 0.0
C375 C 0.35207 0.43746 0.7959 0.0
C376 C 0.35218 0.45782 0.75409 0.0
C377 C 0.37583 0.48952 0.76596 0.0
C378 C 0.40955 0.49134 0.73541 0.0
C379 C 0.35039 0.5216 0.758 0.0
C380 C 0.38988 0.4833 0.82061 0.0
C381 C 0.37592 0.45318 0.8373 0.0
C382 C 0.38636 0.44152 0.8861 0.0
C383 C 0.41123 0.46152 0.91888 0.0
C384 C 0.42515 0.49286 0.90267 0.0
C385 C 0.41432 0.50361 0.85277 0.0
H386 H 0.69068 0.63808 0.34835 0.0
H387 H 0.62044 0.59437 0.45212 0.0
H388 H 0.57346 0.57567 0.38203 0.0
H389 H 0.60721 0.66382 0.25187 0.0
H390 H 0.63303 0.65365 0.20098 0.0
H391 H 0.65871 0.66857 0.25894 0.0
H392 H 0.70229 0.61486 0.26533 0.0
H393 H 0.67701 0.60006 0.20738 0.0
H394 H 0.68046 0.57337 0.26228 0.0
H395 H 0.53675 0.558 0.30321 0.0
H396 H 0.51601 0.53577 0.21935 0.0
H397 H 0.6109 0.58694 0.16432 0.0
C398 C 0.66513 0.62498 0.35621 0.0
C399 C 0.6589 0.61829 0.40585 0.0
C400 C 0.6253 0.60075 0.41459 0.0
C401 C 0.59842 0.58997 0.37498 0.0
C402 C 0.6053 0.59706 0.32667 0.0
C403 C 0.63783 0.61399 0.3169 0.0
C404 C 0.6395 0.61574 0.26125 0.0
C405 C 0.63432 0.65264 0.24213 0.0
C406 C 0.67703 0.60004 0.24833 0.0
C407 C 0.60461 0.59464 0.24182 0.0
C408 C 0.58447 0.58557 0.28025 0.0
C409 C 0.55188 0.56532 0.27269 0.0
C410 C 0.54023 0.55298 0.22495 0.0
C411 C 0.56154 0.56022 0.18561 0.0
C412 C 0.59369 0.58188 0.19367 0.0
H413 H 0.8311 0.15475 0.77225 0.0
H414 H 0.83788 0.06731 0.87183 0.0
H415 H 0.85795 0.03145 0.80559 0.0
H416 H 0.80363 0.10894 0.65185 0.0
H417 H 0.83421 0.13592 0.62056 0.0
H418 H 0.81128 0.15246 0.67085 0.0
H419 H 0.8777 0.17037 0.7174 0.0
H420 H 0.90052 0.15439 0.66714 0.0
H421 H 0.91552 0.13898 0.72968 0.0
H422 H 0.88842 0.00763 0.73382 0.0
H423 H 0.93096 1.00032 0.66915 0.0
H424 H 0.90683 0.10391 0.61897 0.0
C425 C 0.83608 0.12791 0.77998 0.0
C426 C 0.83285 0.11394 0.82738 0.0
C427 C 0.83948 0.07861 0.83563 0.0
C428 C 0.85094 0.058 0.79814 0.0
C429 C 0.85533 0.073 0.75241 0.0
C430 C 0.84799 0.10724 0.74336 0.0
C431 C 0.86024 0.11862 0.69458 0.0
C432 C 0.82524 0.12963 0.65725 0.0
C433 C 0.89028 0.14724 0.70273 0.0
C434 C 0.87759 0.08592 0.67867 0.0
C435 C 0.87345 0.05951 0.71155 0.0
C436 C 0.89091 0.02787 0.70716 0.0
C437 C 0.91471 0.02375 0.66996 0.0
C438 C 0.92129 0.05135 0.63849 0.0
C439 C 0.90114 0.08216 0.6416 0.0
H440 H 0.33497 0.40685 0.31147 0.0
H441 H 0.27566 0.50173 0.32854 0.0
H442 H 0.30259 0.52606 0.25566 0.0
H443 H 0.41964 0.44255 0.28671 0.0
H444 H 0.42987 0.41041 0.24344 0.0
H445 H 0.4013 0.40008 0.2914 0.0
H446 H 0.34639 0.3794 0.2245 0.0
H447 H 0.37484 0.38988 0.17618 0.0
H448 H 0.32723 0.40766 0.17427 0.0
H449 H 0.34406 0.54143 0.18683 0.0
H450 H 0.39574 0.5461 0.13307 0.0
H451 H 0.42454 0.43995 0.16212 0.0
C452 C 0.32688 0.43246 0.29888 0.0
C453 C 0.3031 0.45245 0.32467 0.0
C454 C 0.29358 0.48607 0.30841 0.0
C455 C 0.3087 0.49995 0.26718 0.0
C456 C 0.33286 0.47962 0.24282 0.0
C457 C 0.34156 0.44645 0.25818 0.0
C458 C 0.37084 0.43056 0.2297 0.0
C459 C 0.40756 0.42033 0.2649 0.0
C460 C 0.35378 0.40008 0.19935 0.0
C461 C 0.37803 0.46003 0.19635 0.0
C462 C 0.35588 0.48818 0.20379 0.0
C463 C 0.36088 0.51927 0.18 0.0
C464 C 0.39003 0.52172 0.14923 0.0
C465 C 0.4137 0.4933 0.14317 0.0
C466 C 0.40651 0.46199 0.16568 0.0
H467 H 0.21877 0.92507 0.8586 0.0
H468 H 0.14509 0.9555 0.9662 0.0
H469 H 0.09433 0.97221 0.89794 0.0
H470 H 0.19591 0.99335 0.77639 0.0
H471 H 0.19638 0.96971 0.71987 0.0
H472 H 0.22494 0.95538 0.77658 0.0
H473 H 0.19167 0.8967 0.76774 0.0
H474 H 0.1628 0.91096 0.71097 0.0
H475 H 0.13996 0.89447 0.76163 0.0
H476 H 0.05409 0.98968 0.82083 0.0
H477 H 0.02794 0.0123 0.73799 0.0
H478 H 0.12714 0.97331 0.6774 0.0
C479 C 0.19156 0.93456 0.86746 0.0
C480 C 0.18555 0.9388 0.91752 0.0
C481 C 0.15008 0.95205 0.92805 0.0
C482 C 0.12104 0.96135 0.88956 0.0
C483 C 0.12787 0.95728 0.84063 0.0
C484 C 0.16224 0.94442 0.82922 0.0
C485 C 0.16317 0.94588 0.77335 0.0
C486 C 0.1971 0.96738 0.76084 0.0
C487 C 0.16448 0.90985 0.75217 0.0
C488 C 0.12475 0.96306 0.75561 0.0
C489 C 0.10456 0.96839 0.79518 0.0
C490 C 0.06929 0.98524 0.78942 0.0
C491 C 0.05464 0.99792 0.74229 0.0
C492 C 0.0753 0.99401 0.70155 0.0
C493 C 0.11045 0.97577 0.70785 0.0
loop_
_geom_bond_atom_site_label_1
_geom_bond_atom_site_label_2
_geom_bond_distance
_geom_bond_site_symmetry_2
_ccdc_geom_bond_type
P0 O11 1.490 . S
P0 C14 1.812 . S
P0 C20 1.803 . S
P0 C26 1.819 . S
H1 C15 0.941 . S
H2 C16 0.939 . S
H3 C18 0.940 . S
H4 C19 0.940 . S
H5 C21 0.939 . S
H6 C22 0.942 . S
H7 C24 0.940 . S
H8 C25 0.939 . S
H9 C27 0.941 . S
H10 C31 0.939 . S
O11 P0 1.490 . S
H12 C28 0.939 . S
H13 C30 0.940 . S
C14 P0 1.812 . S
C14 C15 1.389 . S
C14 C19 1.391 . S
C15 H1 0.941 . S
C15 C14 1.389 . S
C15 C16 1.397 . S
C16 H2 0.939 . S
C16 C15 1.397 . S
C16 C17 1.378 . S
C17 C16 1.378 . S
C17 C18 1.378 . S
C18 H3 0.940 . S
C18 C17 1.378 . S
C18 C19 1.396 . S
C19 H4 0.940 . S
C19 C14 1.391 . S
C19 C18 1.396 . S
C20 P0 1.803 . S
C20 C21 1.378 . S
C20 C25 1.400 . S
C21 H5 0.939 . S
C21 C20 1.378 . S
C21 C22 1.361 . S
C22 H6 0.942 . S
C22 C21 1.361 . S
C22 C23 1.369 . S
C23 C22 1.369 . S
C23 C24 1.404 . S
C24 H7 0.940 . S
C24 C23 1.404 . S
C24 C25 1.389 . S
C25 H8 0.939 . S
C25 C20 1.400 . S
C25 C24 1.389 . S
C26 P0 1.819 . S
C26 C27 1.391 . S
C26 C31 1.391 . S
C27 H9 0.941 . S
C27 C26 1.391 . S
C27 C28 1.396 1_554 S
C28 H12 0.939 . S
C28 C27 1.396 1_556 S
C28 C29 1.397 . S
C29 C28 1.397 . S
C29 C30 1.385 . S
C30 H13 0.940 . S
C30 C29 1.385 . S
C30 C31 1.388 1_556 S
C31 H10 0.939 . S
C31 C26 1.391 . S
C31 C30 1.388 1_554 S
P32 O43 1.490 . S
P32 C46 1.812 . S
P32 C52 1.803 . S
P32 C58 1.819 . S
H33 C47 0.941 . S
H34 C48 0.939 . S
H35 C50 0.940 . S
H36 C51 0.940 . S
H37 C53 0.939 . S
H38 C54 0.942 . S
H39 C56 0.940 . S
H40 C57 0.939 . S
H41 C59 0.941 . S
H42 C63 0.939 . S
O43 P32 1.490 . S
H44 C60 0.939 . S
H45 C62 0.940 . S
C46 P32 1.812 . S
C46 C47 1.389 . S
C46 C51 1.391 . S
C47 H33 0.941 . S
C47 C46 1.389 . S
C47 C48 1.397 . S
C48 H34 0.939 . S
C48 C47 1.397 . S
C48 C49 1.378 . S
C49 C48 1.378 . S
C49 C50 1.378 . S
C50 H35 0.940 . S
C50 C49 1.378 . S
C50 C51 1.396 . S
C51 H36 0.940 . S
C51 C46 1.391 . S
C51 C50 1.396 . S
C52 P32 1.803 . S
C52 C53 1.378 . S
C52 C57 1.400 . S
C53 H37 0.939 . S
C53 C52 1.378 . S
C53 C54 1.361 . S
C54 H38 0.942 . S
C54 C53 1.361 . S
C54 C55 1.369 . S
C55 C54 1.369 . S
C55 C56 1.404 . S
C56 H39 0.940 . S
C56 C55 1.404 . S
C56 C57 1.389 . S
C57 H40 0.939 . S
C57 C52 1.400 . S
C57 C56 1.389 . S
C58 P32 1.819 . S
C58 C59 1.391 . S
C58 C63 1.391 . S
C59 H41 0.941 . S
C59 C58 1.391 . S
C59 C60 1.396 . S
C60 H44 0.939 . S
C60 C59 1.396 . S
C60 C61 1.397 . S
C61 C60 1.397 . S
C61 C62 1.385 . S
C62 H45 0.940 . S
C62 C61 1.385 . S
C62 C63 1.388 . S
C63 H42 0.939 . S
C63 C58 1.391 . S
C63 C62 1.388 . S
P64 O75 1.490 . S
P64 C78 1.812 1_554 S
P64 C84 1.803 1_554 S
P64 C90 1.819 . S
H65 C79 0.941 . S
H66 C80 0.939 . S
H67 C82 0.940 . S
H68 C83 0.940 . S
H69 C85 0.939 . S
H70 C86 0.942 . S
H71 C88 0.940 . S
H72 C89 0.939 . S
H73 C91 0.941 . S
H74 C95 0.939 . S
O75 P64 1.490 . S
H76 C92 0.939 . S
H77 C94 0.940 . S
C78 P64 1.812 1_556 S
C78 C79 1.389 . S
C78 C83 1.391 . S
C79 H65 0.941 . S
C79 C78 1.389 . S
C79 C80 1.397 . S
C80 H66 0.939 . S
C80 C79 1.397 . S
C80 C81 1.378 . S
C81 C80 1.378 . S
C81 C82 1.378 . S
C82 H67 0.940 . S
C82 C81 1.378 . S
C82 C83 1.396 . S
C83 H68 0.940 . S
C83 C78 1.391 . S
C83 C82 1.396 . S
C84 P64 1.803 1_556 S
C84 C85 1.378 1_556 S
C84 C89 1.400 . S
C85 H69 0.939 . S
C85 C84 1.378 1_554 S
C85 C86 1.361 . S
C86 H70 0.942 . S
C86 C85 1.361 . S
C86 C87 1.369 1_554 S
C87 C86 1.369 1_556 S
C87 C88 1.404 . S
C88 H71 0.940 . S
C88 C87 1.404 . S
C88 C89 1.389 . S
C89 H72 0.939 . S
C89 C84 1.400 . S
C89 C88 1.389 . S
C90 P64 1.819 . S
C90 C91 1.391 . S
C90 C95 1.391 . S
C91 H73 0.941 . S
C91 C90 1.391 . S
C91 C92 1.396 . S
C92 H76 0.939 . S
C92 C91 1.396 . S
C92 C93 1.397 . S
C93 C92 1.397 . S
C93 C94 1.385 . S
C94 H77 0.940 . S
C94 C93 1.385 . S
C94 C95 1.388 . S
C95 H74 0.939 . S
C95 C90 1.391 . S
C95 C94 1.388 . S
P96 O107 1.490 . S
P96 C110 1.812 . S
P96 C116 1.803 . S
P96 C122 1.819 . S
H97 C111 0.941 . S
H98 C112 0.939 . S
H99 C114 0.940 . S
H100 C115 0.940 . S
H101 C117 0.939 . S
H102 C118 0.942 . S
H103 C120 0.940 . S
H104 C121 0.939 . S
H105 C123 0.941 . S
H106 C127 0.939 . S
O107 P96 1.490 . S
H108 C124 0.939 . S
H109 C126 0.940 . S
C110 P96 1.812 . S
C110 C111 1.389 . S
C110 C115 1.391 . S
C111 H97 0.941 . S
C111 C110 1.389 . S
C111 C112 1.397 . S
C112 H98 0.939 . S
C112 C111 1.397 . S
C112 C113 1.378 . S
C113 C112 1.378 . S
C113 C114 1.378 . S
C114 H99 0.940 . S
C114 C113 1.378 . S
C114 C115 1.396 . S
C115 H100 0.940 . S
C115 C110 1.391 . S
C115 C114 1.396 . S
C116 P96 1.803 . S
C116 C117 1.378 . S
C116 C121 1.400 . S
C117 H101 0.939 . S
C117 C116 1.378 . S
C117 C118 1.361 . S
C118 H102 0.942 . S
C118 C117 1.361 . S
C118 C119 1.369 . S
C119 C118 1.369 . S
C119 C120 1.404 . S
C120 H103 0.940 . S
C120 C119 1.404 . S
C120 C121 1.389 . S
C121 H104 0.939 . S
C121 C116 1.400 . S
C121 C120 1.389 . S
C122 P96 1.819 . S
C122 C123 1.391 . S
C122 C127 1.391 . S
C123 H105 0.941 . S
C123 C122 1.391 . S
C123 C124 1.396 . S
C124 H108 0.939 . S
C124 C123 1.396 . S
C124 C125 1.397 . S
C125 C124 1.397 . S
C125 C126 1.385 . S
C126 H109 0.940 . S
C126 C125 1.385 . S
C126 C127 1.388 . S
C127 H106 0.939 . S
C127 C122 1.391 . S
C127 C126 1.388 . S
O128 Mn129 2.163 1_655 S
O128 C142 1.244 . S
Mn129 O128 2.163 1_455 S
Mn129 O132 2.160 1_545 S
Mn129 O133 2.221 . S
Mn129 O135 2.163 1_455 S
Mn129 O137 2.160 1_545 S
Mn129 O147 2.221 1_445 S
O130 Mn131 2.087 1_545 S
O130 C142 1.256 . S
Mn131 O130 2.087 1_565 S
Mn131 O138 2.089 1_655 S
Mn131 O147 2.290 . S
Mn131 O148 2.251 . S
O132 Mn129 2.160 1_565 S
O132 C143 1.239 . S
O133 Mn129 2.221 . S
O133 Mn134 2.290 . S
O133 C144 1.278 . S
Mn134 O133 2.290 . S
Mn134 O136 2.089 . S
Mn134 O139 2.251 . S
Mn134 O140 2.087 1_455 S
O135 Mn129 2.163 1_655 S
O135 C145 1.244 . S
O136 Mn134 2.089 . S
O136 C143 1.256 1_545 S
O137 Mn129 2.160 1_565 S
O137 C146 1.239 . S
O138 Mn131 2.089 1_455 S
O138 C146 1.256 . S
O139 Mn134 2.251 . S
O139 C144 1.241 . S
O140 Mn134 2.087 1_655 S
O140 C145 1.256 . S
C141 O147 1.278 . S
C141 O148 1.241 . S
C142 O128 1.244 . S
C142 O130 1.256 . S
C143 O132 1.239 . S
C143 O136 1.256 1_565 S
C144 O133 1.278 . S
C144 O139 1.241 . S
C145 O135 1.244 . S
C145 O140 1.256 . S
C146 O137 1.239 . S
C146 O138 1.256 . S
O147 Mn129 2.221 1_665 S
O147 Mn131 2.290 . S
O147 C141 1.278 . S
O148 Mn131 2.251 . S
O148 C141 1.241 . S
O149 Mn150 2.163 . S
O149 C163 1.244 . S
Mn150 O149 2.163 . S
Mn150 O153 2.160 1_554 S
Mn150 O154 2.221 . S
Mn150 O156 2.163 1_554 S
Mn150 O158 2.160 . S
Mn150 O168 2.221 . S
O151 Mn152 2.087 . S
O151 C163 1.256 . S
Mn152 O151 2.087 . S
Mn152 O159 2.089 . S
Mn152 O168 2.290 . S
Mn152 O169 2.251 . S
O153 Mn150 2.160 1_556 S
O153 C164 1.239 . S
O154 Mn150 2.221 . S
O154 Mn155 2.290 1_554 S
O154 C165 1.278 . S
Mn155 O154 2.290 1_556 S
Mn155 O157 2.089 . S
Mn155 O160 2.251 . S
Mn155 O161 2.087 . S
O156 Mn150 2.163 1_556 S
O156 C166 1.244 . S
O157 Mn155 2.089 . S
O157 C164 1.256 . S
O158 Mn150 2.160 . S
O158 C167 1.239 . S
O159 Mn152 2.089 . S
O159 C167 1.256 . S
O160 Mn155 2.251 . S
O160 C165 1.241 1_556 S
O161 Mn155 2.087 . S
O161 C166 1.256 . S
C162 O168 1.278 . S
C162 O169 1.241 . S
C163 O149 1.244 . S
C163 O151 1.256 . S
C164 O153 1.239 . S
C164 O157 1.256 . S
C165 O154 1.278 . S
C165 O160 1.241 1_554 S
C166 O156 1.244 . S
C166 O161 1.256 . S
C167 O158 1.239 . S
C167 O159 1.256 . S
O168 Mn150 2.221 . S
O168 Mn152 2.290 . S
O168 C162 1.278 . S
O169 Mn152 2.251 . S
O169 C162 1.241 . S
H170 C182 0.930 . S
H171 C184 0.930 . S
H172 C185 0.930 . S
H173 C189 0.959 . S
H174 C189 0.959 . S
H175 C189 0.961 . S
H176 C190 0.960 . S
H177 C190 0.961 . S
H178 C190 0.959 . S
H179 C193 0.929 . S
H180 C194 0.931 . S
H181 C196 0.930 . S
C182 H170 0.930 . S
C182 C183 1.399 . S
C182 C187 1.399 . S
C183 C182 1.399 . S
C183 C184 1.376 . S
C184 H171 0.930 . S
C184 C183 1.376 . S
C184 C185 1.388 . S
C185 H172 0.930 . S
C185 C184 1.388 . S
C185 C186 1.390 . S
C186 C185 1.390 . S
C186 C187 1.394 . S
C186 C192 1.465 . S
C187 C182 1.399 . S
C187 C186 1.394 . S
C187 C188 1.516 . S
C188 C187 1.516 . S
C188 C189 1.502 . S
C188 C190 1.561 . S
C188 C191 1.526 . S
C189 H173 0.959 . S
C189 H174 0.959 . S
C189 H175 0.961 . S
C189 C188 1.502 . S
C190 H176 0.960 . S
C190 H177 0.961 . S
C190 H178 0.959 . S
C190 C188 1.561 . S
C191 C188 1.526 . S
C191 C192 1.396 . S
C191 C196 1.390 . S
C192 C186 1.465 . S
C192 C191 1.396 . S
C192 C193 1.399 . S
C193 H179 0.929 . S
C193 C192 1.399 . S
C193 C194 1.385 . S
C194 H180 0.931 . S
C194 C193 1.385 . S
C194 C195 1.389 . S
C195 C194 1.389 . S
C195 C196 1.387 . S
C196 H181 0.930 . S
C196 C191 1.390 . S
C196 C195 1.387 . S
H197 C209 0.930 . S
H198 C211 0.930 . S
H199 C212 0.930 1_556 S
H200 C216 0.959 . S
H201 C216 0.959 . S
H202 C216 0.961 . S
H203 C217 0.960 . S
H204 C217 0.961 . S
H205 C217 0.959 . S
H206 C220 0.929 1_556 S
H207 C221 0.931 1_556 S
H208 C223 0.930 . S
C209 H197 0.930 . S
C209 C210 1.399 . S
C209 C214 1.399 . S
C210 C209 1.399 . S
C210 C211 1.376 . S
C211 H198 0.930 . S
C211 C210 1.376 . S
C211 C212 1.388 . S
C212 H199 0.930 1_554 S
C212 C211 1.388 . S
C212 C213 1.390 . S
C213 C212 1.390 . S
C213 C214 1.394 . S
C213 C219 1.465 . S
C214 C209 1.399 . S
C214 C213 1.394 . S
C214 C215 1.516 . S
C215 C214 1.516 . S
C215 C216 1.502 . S
C215 C217 1.561 . S
C215 C218 1.526 . S
C216 H200 0.959 . S
C216 H201 0.959 . S
C216 H202 0.961 . S
C216 C215 1.502 . S
C217 H203 0.960 . S
C217 H204 0.961 . S
C217 H205 0.959 . S
C217 C215 1.561 . S
C218 C215 1.526 . S
C218 C219 1.396 . S
C218 C223 1.390 . S
C219 C213 1.465 . S
C219 C218 1.396 . S
C219 C220 1.399 . S
C220 H206 0.929 1_554 S
C220 C219 1.399 . S
C220 C221 1.385 . S
C221 H207 0.931 1_554 S
C221 C220 1.385 . S
C221 C222 1.389 . S
C222 C221 1.389 . S
C222 C223 1.387 . S
C223 H208 0.930 . S
C223 C218 1.390 . S
C223 C222 1.387 . S
H224 C236 0.930 . S
H225 C238 0.930 . S
H226 C239 0.930 . S
H227 C243 0.959 . S
H228 C243 0.959 . S
H229 C243 0.961 . S
H230 C244 0.960 . S
H231 C244 0.961 . S
H232 C244 0.959 . S
H233 C247 0.929 . S
H234 C248 0.931 . S
H235 C250 0.930 . S
C236 H224 0.930 . S
C236 C237 1.399 . S
C236 C241 1.399 . S
C237 C236 1.399 . S
C237 C238 1.376 . S
C238 H225 0.930 . S
C238 C237 1.376 . S
C238 C239 1.388 . S
C239 H226 0.930 . S
C239 C238 1.388 . S
C239 C240 1.390 . S
C240 C239 1.390 . S
C240 C241 1.394 . S
C240 C246 1.465 . S
C241 C236 1.399 . S
C241 C240 1.394 . S
C241 C242 1.516 . S
C242 C241 1.516 . S
C242 C243 1.502 . S
C242 C244 1.561 . S
C242 C245 1.526 . S
C243 H227 0.959 . S
C243 H228 0.959 . S
C243 H229 0.961 . S
C243 C242 1.502 . S
C244 H230 0.960 . S
C244 H231 0.961 . S
C244 H232 0.959 . S
C244 C242 1.561 . S
C245 C242 1.526 . S
C245 C246 1.396 . S
C245 C250 1.390 . S
C246 C240 1.465 . S
C246 C245 1.396 . S
C246 C247 1.399 . S
C247 H233 0.929 . S
C247 C246 1.399 . S
C247 C248 1.385 . S
C248 H234 0.931 . S
C248 C247 1.385 . S
C248 C249 1.389 . S
C249 C248 1.389 . S
C249 C250 1.387 . S
C250 H235 0.930 . S
C250 C245 1.390 . S
C250 C249 1.387 . S
H251 C263 0.930 . S
H252 C265 0.930 . S
H253 C266 0.930 . S
H254 C270 0.959 . S
H255 C270 0.959 . S
H256 C270 0.961 . S
H257 C271 0.960 . S
H258 C271 0.961 . S
H259 C271 0.959 . S
H260 C274 0.929 . S
H261 C275 0.931 . S
H262 C277 0.930 . S
C263 H251 0.930 . S
C263 C264 1.399 1_554 S
C263 C268 1.399 . S
C264 C263 1.399 1_556 S
C264 C265 1.376 . S
C265 H252 0.930 . S
C265 C264 1.376 . S
C265 C266 1.388 . S
C266 H253 0.930 . S
C266 C265 1.388 . S
C266 C267 1.390 . S
C267 C266 1.390 . S
C267 C268 1.394 1_556 S
C267 C273 1.465 . S
C268 C263 1.399 . S
C268 C267 1.394 1_554 S
C268 C269 1.516 . S
C269 C268 1.516 . S
C269 C270 1.502 . S
C269 C271 1.561 . S
C269 C272 1.526 . S
C270 H254 0.959 . S
C270 H255 0.959 . S
C270 H256 0.961 . S
C270 C269 1.502 . S
C271 H257 0.960 . S
C271 H258 0.961 . S
C271 H259 0.959 . S
C271 C269 1.561 . S
C272 C269 1.526 . S
C272 C273 1.396 1_554 S
C272 C277 1.390 . S
C273 C267 1.465 . S
C273 C272 1.396 1_556 S
C273 C274 1.399 . S
C274 H260 0.929 . S
C274 C273 1.399 . S
C274 C275 1.385 . S
C275 H261 0.931 . S
C275 C274 1.385 . S
C275 C276 1.389 1_556 S
C276 C275 1.389 1_554 S
C276 C277 1.387 . S
C277 H262 0.930 . S
C277 C272 1.390 . S
C277 C276 1.387 . S
H278 C290 0.930 . S
H279 C292 0.930 . S
H280 C293 0.930 1_545 S
H281 C297 0.959 . S
H282 C297 0.959 . S
H283 C297 0.961 . S
H284 C298 0.960 . S
H285 C298 0.961 . S
H286 C298 0.959 . S
H287 C301 0.929 . S
H288 C302 0.931 . S
H289 C304 0.930 . S
C290 H278 0.930 . S
C290 C291 1.399 . S
C290 C295 1.399 . S
C291 C290 1.399 . S
C291 C292 1.376 . S
C292 H279 0.930 . S
C292 C291 1.376 . S
C292 C293 1.388 . S
C293 H280 0.930 1_565 S
C293 C292 1.388 . S
C293 C294 1.390 . S
C294 C293 1.390 . S
C294 C295 1.394 . S
C294 C300 1.465 . S
C295 C290 1.399 . S
C295 C294 1.394 . S
C295 C296 1.516 . S
C296 C295 1.516 . S
C296 C297 1.502 . S
C296 C298 1.561 . S
C296 C299 1.526 . S
C297 H281 0.959 . S
C297 H282 0.959 . S
C297 H283 0.961 . S
C297 C296 1.502 . S
C298 H284 0.960 . S
C298 H285 0.961 . S
C298 H286 0.959 . S
C298 C296 1.561 . S
C299 C296 1.526 . S
C299 C300 1.396 . S
C299 C304 1.390 . S
C300 C294 1.465 . S
C300 C299 1.396 . S
C300 C301 1.399 1_565 S
C301 H287 0.929 . S
C301 C300 1.399 1_545 S
C301 C302 1.385 . S
C302 H288 0.931 . S
C302 C301 1.385 . S
C302 C303 1.389 1_545 S
C303 C302 1.389 1_565 S
C303 C304 1.387 . S
C304 H289 0.930 . S
C304 C299 1.390 . S
C304 C303 1.387 . S
H305 C317 0.930 . S
H306 C319 0.930 . S
H307 C320 0.930 . S
H308 C324 0.959 . S
H309 C324 0.959 . S
H310 C324 0.961 . S
H311 C325 0.960 . S
H312 C325 0.961 . S
H313 C325 0.959 . S
H314 C328 0.929 . S
H315 C329 0.931 . S
H316 C331 0.930 . S
C317 H305 0.930 . S
C317 C318 1.399 . S
C317 C322 1.399 . S
C318 C317 1.399 . S
C318 C319 1.376 . S
C319 H306 0.930 . S
C319 C318 1.376 . S
C319 C320 1.388 . S
C320 H307 0.930 . S
C320 C319 1.388 . S
C320 C321 1.390 . S
C321 C320 1.390 . S
C321 C322 1.394 . S
C321 C327 1.465 . S
C322 C317 1.399 . S
C322 C321 1.394 . S
C322 C323 1.516 . S
C323 C322 1.516 . S
C323 C324 1.502 . S
C323 C325 1.561 . S
C323 C326 1.526 . S
C324 H308 0.959 . S
C324 H309 0.959 . S
C324 H310 0.961 . S
C324 C323 1.502 . S
C325 H311 0.960 . S
C325 H312 0.961 . S
C325 H313 0.959 . S
C325 C323 1.561 . S
C326 C323 1.526 . S
C326 C327 1.396 . S
C326 C331 1.390 . S
C327 C321 1.465 . S
C327 C326 1.396 . S
C327 C328 1.399 . S
C328 H314 0.929 . S
C328 C327 1.399 . S
C328 C329 1.385 . S
C329 H315 0.931 . S
C329 C328 1.385 . S
C329 C330 1.389 . S
C330 C329 1.389 . S
C330 C331 1.387 . S
C331 H316 0.930 . S
C331 C326 1.390 . S
C331 C330 1.387 . S
H332 C344 0.930 . S
H333 C346 0.930 . S
H334 C347 0.930 . S
H335 C351 0.959 . S
H336 C351 0.959 . S
H337 C351 0.961 . S
H338 C352 0.960 . S
H339 C352 0.961 . S
H340 C352 0.959 . S
H341 C355 0.929 . S
H342 C356 0.930 . S
H343 C358 0.930 . S
C344 H332 0.930 . S
C344 C345 1.399 . S
C344 C349 1.399 . S
C345 C344 1.399 . S
C345 C346 1.376 . S
C346 H333 0.930 . S
C346 C345 1.376 . S
C346 C347 1.388 . S
C347 H334 0.930 . S
C347 C346 1.388 . S
C347 C348 1.390 . S
C348 C347 1.390 . S
C348 C349 1.394 . S
C348 C354 1.465 . S
C349 C344 1.399 . S
C349 C348 1.394 . S
C349 C350 1.516 . S
C350 C349 1.516 . S
C350 C351 1.502 . S
C350 C352 1.561 . S
C350 C353 1.526 . S
C351 H335 0.959 . S
C351 H336 0.959 . S
C351 H337 0.961 . S
C351 C350 1.502 . S
C352 H338 0.960 . S
C352 H339 0.961 . S
C352 H340 0.959 . S
C352 C350 1.561 . S
C353 C350 1.526 . S
C353 C354 1.396 . S
C353 C358 1.390 . S
C354 C348 1.465 . S
C354 C353 1.396 . S
C354 C355 1.399 . S
C355 H341 0.929 . S
C355 C354 1.399 . S
C355 C356 1.385 . S
C356 H342 0.930 . S
C356 C355 1.385 . S
C356 C357 1.389 . S
C357 C356 1.389 . S
C357 C358 1.387 . S
C358 H343 0.930 . S
C358 C353 1.390 . S
C358 C357 1.387 . S
H359 C371 0.930 . S
H360 C373 0.930 . S
H361 C374 0.930 . S
H362 C378 0.959 . S
H363 C378 0.959 . S
H364 C378 0.961 . S
H365 C379 0.960 . S
H366 C379 0.961 . S
H367 C379 0.959 . S
H368 C382 0.929 . S
H369 C383 0.931 . S
H370 C385 0.930 . S
C371 H359 0.930 . S
C371 C372 1.399 . S
C371 C376 1.399 . S
C372 C371 1.399 . S
C372 C373 1.376 . S
C373 H360 0.930 . S
C373 C372 1.376 . S
C373 C374 1.388 . S
C374 H361 0.930 . S
C374 C373 1.388 . S
C374 C375 1.390 . S
C375 C374 1.390 . S
C375 C376 1.394 . S
C375 C381 1.465 . S
C376 C371 1.399 . S
C376 C375 1.394 . S
C376 C377 1.516 . S
C377 C376 1.516 . S
C377 C378 1.502 . S
C377 C379 1.561 . S
C377 C380 1.526 . S
C378 H362 0.959 . S
C378 H363 0.959 . S
C378 H364 0.961 . S
C378 C377 1.502 . S
C379 H365 0.960 . S
C379 H366 0.961 . S
C379 H367 0.959 . S
C379 C377 1.561 . S
C380 C377 1.526 . S
C380 C381 1.396 . S
C380 C385 1.390 . S
C381 C375 1.465 . S
C381 C380 1.396 . S
C381 C382 1.399 . S
C382 H368 0.929 . S
C382 C381 1.399 . S
C382 C383 1.385 . S
C383 H369 0.931 . S
C383 C382 1.385 . S
C383 C384 1.389 . S
C384 C383 1.389 . S
C384 C385 1.387 . S
C385 H370 0.930 . S
C385 C380 1.390 . S
C385 C384 1.387 . S
H386 C398 0.930 . S
H387 C400 0.930 . S
H388 C401 0.930 . S
H389 C405 0.959 . S
H390 C405 0.959 . S
H391 C405 0.961 . S
H392 C406 0.960 . S
H393 C406 0.961 . S
H394 C406 0.959 . S
H395 C409 0.929 . S
H396 C410 0.931 . S
H397 C412 0.930 . S
C398 H386 0.930 . S
C398 C399 1.399 . S
C398 C403 1.399 . S
C399 C398 1.399 . S
C399 C400 1.376 . S
C400 H387 0.930 . S
C400 C399 1.376 . S
C400 C401 1.388 . S
C401 H388 0.930 . S
C401 C400 1.388 . S
C401 C402 1.390 . S
C402 C401 1.390 . S
C402 C403 1.394 . S
C402 C408 1.465 . S
C403 C398 1.399 . S
C403 C402 1.394 . S
C403 C404 1.516 . S
C404 C403 1.516 . S
C404 C405 1.502 . S
C404 C406 1.561 . S
C404 C407 1.526 . S
C405 H389 0.959 . S
C405 H390 0.959 . S
C405 H391 0.961 . S
C405 C404 1.502 . S
C406 H392 0.960 . S
C406 H393 0.961 . S
C406 H394 0.959 . S
C406 C404 1.561 . S
C407 C404 1.526 . S
C407 C408 1.396 . S
C407 C412 1.390 . S
C408 C402 1.465 . S
C408 C407 1.396 . S
C408 C409 1.399 . S
C409 H395 0.929 . S
C409 C408 1.399 . S
C409 C410 1.385 . S
C410 H396 0.931 . S
C410 C409 1.385 . S
C410 C411 1.389 . S
C411 C410 1.389 . S
C411 C412 1.387 . S
C412 H397 0.930 . S
C412 C407 1.390 . S
C412 C411 1.387 . S
H413 C425 0.930 . S
H414 C427 0.930 . S
H415 C428 0.930 . S
H416 C432 0.959 . S
H417 C432 0.959 . S
H418 C432 0.961 . S
H419 C433 0.960 . S
H420 C433 0.961 . S
H421 C433 0.959 . S
H422 C436 0.929 . S
H423 C437 0.931 . S
H424 C439 0.930 . S
C425 H413 0.930 . S
C425 C426 1.399 . S
C425 C430 1.399 . S
C426 C425 1.399 . S
C426 C427 1.376 . S
C427 H414 0.930 . S
C427 C426 1.376 . S
C427 C428 1.388 . S
C428 H415 0.930 . S
C428 C427 1.388 . S
C428 C429 1.390 . S
C429 C428 1.390 . S
C429 C430 1.394 . S
C429 C435 1.465 . S
C430 C425 1.399 . S
C430 C429 1.394 . S
C430 C431 1.516 . S
C431 C430 1.516 . S
C431 C432 1.502 . S
C431 C433 1.561 . S
C431 C434 1.526 . S
C432 H416 0.959 . S
C432 H417 0.959 . S
C432 H418 0.961 . S
C432 C431 1.502 . S
C433 H419 0.960 . S
C433 H420 0.961 . S
C433 H421 0.959 . S
C433 C431 1.561 . S
C434 C431 1.526 . S
C434 C435 1.396 . S
C434 C439 1.390 . S
C435 C429 1.465 . S
C435 C434 1.396 . S
C435 C436 1.399 . S
C436 H422 0.929 . S
C436 C435 1.399 . S
C436 C437 1.385 . S
C437 H423 0.931 . S
C437 C436 1.385 . S
C437 C438 1.389 . S
C438 C437 1.389 . S
C438 C439 1.387 . S
C439 H424 0.930 . S
C439 C434 1.390 . S
C439 C438 1.387 . S
H440 C452 0.930 . S
H441 C454 0.930 . S
H442 C455 0.930 . S
H443 C459 0.959 . S
H444 C459 0.959 . S
H445 C459 0.961 . S
H446 C460 0.960 . S
H447 C460 0.961 . S
H448 C460 0.959 . S
H449 C463 0.929 . S
H450 C464 0.931 . S
H451 C466 0.930 . S
C452 H440 0.930 . S
C452 C453 1.399 . S
C452 C457 1.399 . S
C453 C452 1.399 . S
C453 C454 1.376 . S
C454 H441 0.930 . S
C454 C453 1.376 . S
C454 C455 1.388 . S
C455 H442 0.930 . S
C455 C454 1.388 . S
C455 C456 1.390 . S
C456 C455 1.390 . S
C456 C457 1.394 . S
C456 C462 1.465 . S
C457 C452 1.399 . S
C457 C456 1.394 . S
C457 C458 1.516 . S
C458 C457 1.516 . S
C458 C459 1.502 . S
C458 C460 1.561 . S
C458 C461 1.526 . S
C459 H443 0.959 . S
C459 H444 0.959 . S
C459 H445 0.961 . S
C459 C458 1.502 . S
C460 H446 0.960 . S
C460 H447 0.961 . S
C460 H448 0.959 . S
C460 C458 1.561 . S
C461 C458 1.526 . S
C461 C462 1.396 . S
C461 C466 1.390 . S
C462 C456 1.465 . S
C462 C461 1.396 . S
C462 C463 1.399 . S
C463 H449 0.929 . S
C463 C462 1.399 . S
C463 C464 1.385 . S
C464 H450 0.931 . S
C464 C463 1.385 . S
C464 C465 1.389 . S
C465 C464 1.389 . S
C465 C466 1.387 . S
C466 H451 0.930 . S
C466 C461 1.390 . S
C466 C465 1.387 . S
H467 C479 0.930 . S
H468 C481 0.930 . S
H469 C482 0.930 1_545 S
H470 C486 0.959 . S
H471 C486 0.959 . S
H472 C486 0.961 . S
H473 C487 0.960 . S
H474 C487 0.961 . S
H475 C487 0.959 . S
H476 C490 0.929 . S
H477 C491 0.931 . S
H478 C493 0.930 . S
C479 H467 0.930 . S
C479 C480 1.399 . S
C479 C484 1.399 . S
C480 C479 1.399 . S
C480 C481 1.376 . S
C481 H468 0.930 . S
C481 C480 1.376 . S
C481 C482 1.388 . S
C482 H469 0.930 1_565 S
C482 C481 1.388 . S
C482 C483 1.390 . S
C483 C482 1.390 . S
C483 C484 1.394 . S
C483 C489 1.465 . S
C484 C479 1.399 . S
C484 C483 1.394 . S
C484 C485 1.516 . S
C485 C484 1.516 . S
C485 C486 1.502 . S
C485 C487 1.561 . S
C485 C488 1.526 . S
C486 H470 0.959 . S
C486 H471 0.959 . S
C486 H472 0.961 . S
C486 C485 1.502 . S
C487 H473 0.960 . S
C487 H474 0.961 . S
C487 H475 0.959 . S
C487 C485 1.561 . S
C488 C485 1.526 . S
C488 C489 1.396 . S
C488 C493 1.390 . S
C489 C483 1.465 . S
C489 C488 1.396 . S
C489 C490 1.399 1_565 S
C490 H476 0.929 . S
C490 C489 1.399 1_545 S
C490 C491 1.385 . S
C491 H477 0.931 . S
C491 C490 1.385 . S
C491 C492 1.389 1_545 S
C492 C491 1.389 1_565 S
C492 C493 1.387 . S
C493 H478 0.930 . S
C493 C488 1.390 . S
C493 C492 1.387 . S
C195 C144 1.329 . S
C183 C119 1.364 . S
C210 C23 1.493 . S
C222 C165 1.243 . S
C237 C55 1.659 . S
C249 C141 1.496 . S
C264 C87 1.533 . S
C276 C162 1.488 . S
C303 C146 1.585 . S
C291 C17 1.591 . S
C330 C166 1.548 . S
C318 C61 1.564 . S
C345 C93 1.519 . S
C357 C142 1.445 . S
C372 C113 1.483 . S
C384 C164 1.540 . S
C411 C163 1.447 . S
C399 C49 1.551 . S
C438 C145 1.539 . S
C426 C81 1.506 . S
C465 C167 1.586 . S
C453 C125 1.536 . S
C480 C29 1.591 . S
C492 C143 1.465 . S
