# Generated by pormake.
# Topology wbl, (4,4)-cn, num edge types: 1
# Building blocks:
#     Node 0, Type 0, BuildingBlock: NAWXER_clean_linker_0, # of connection points: 4
#     Node 1, Type 0, BuildingBlock: NAWXER_clean_linker_0, # of connection points: 4
#     Node 2, Type 0, BuildingBlock: NAWXER_clean_linker_0, # of connection points: 4
#     Node 3, Type 0, BuildingBlock: NAWXER_clean_linker_0, # of connection points: 4
#     Node 4, Type 0, BuildingBlock: NAWXER_clean_linker_0, # of connection points: 4
#     Node 5, Type 0, BuildingBlock: NAWXER_clean_linker_0, # of connection points: 4
#     Node 6, Type 0, BuildingBlock: NAWXER_clean_linker_0, # of connection points: 4
#     Node 7, Type 0, BuildingBlock: NAWXER_clean_linker_0, # of connection points: 4
#     Node 8, Type 1, BuildingBlock: KUFVIS_clean_sbu_0, # of connection points: 4
#     Node 9, Type 1, BuildingBlock: KUFVIS_clean_sbu_0, # of connection points: 4
#     Node 10, Type 1, BuildingBlock: KUFVIS_clean_sbu_0, # of connection points: 4
#     Node 11, Type 1, BuildingBlock: KUFVIS_clean_sbu_0, # of connection points: 4
#     Node 12, Type 1, BuildingBlock: KUFVIS_clean_sbu_0, # of connection points: 4
#     Node 13, Type 1, BuildingBlock: KUFVIS_clean_sbu_0, # of connection points: 4
#     Node 14, Type 1, BuildingBlock: KUFVIS_clean_sbu_0, # of connection points: 4
#     Node 15, Type 1, BuildingBlock: KUFVIS_clean_sbu_0, # of connection points: 4
#     Edge 16, Type (0, 1), BuildingBlock: ZUJKAS_clean_linker_0, # of connection points: 2
#     Edge 17, Type (0, 1), BuildingBlock: ZUJKAS_clean_linker_0, # of connection points: 2
#     Edge 18, Type (0, 1), BuildingBlock: ZUJKAS_clean_linker_0, # of connection points: 2
#     Edge 19, Type (0, 1), BuildingBlock: ZUJKAS_clean_linker_0, # of connection points: 2
#     Edge 20, Type (0, 1), BuildingBlock: ZUJKAS_clean_linker_0, # of connection points: 2
#     Edge 21, Type (0, 1), BuildingBlock: ZUJKAS_clean_linker_0, # of connection points: 2
#     Edge 22, Type (0, 1), BuildingBlock: ZUJKAS_clean_linker_0, # of connection points: 2
#     Edge 23, Type (0, 1), BuildingBlock: ZUJKAS_clean_linker_0, # of connection points: 2
#     Edge 24, Type (0, 1), BuildingBlock: ZUJKAS_clean_linker_0, # of connection points: 2
#     Edge 25, Type (0, 1), BuildingBlock: ZUJKAS_clean_linker_0, # of connection points: 2
#     Edge 26, Type (0, 1), BuildingBlock: ZUJKAS_clean_linker_0, # of connection points: 2
#     Edge 27, Type (0, 1), BuildingBlock: ZUJKAS_clean_linker_0, # of connection points: 2
#     Edge 28, Type (0, 1), BuildingBlock: ZUJKAS_clean_linker_0, # of connection points: 2
#     Edge 29, Type (0, 1), BuildingBlock: ZUJKAS_clean_linker_0, # of connection points: 2
#     Edge 30, Type (0, 1), BuildingBlock: ZUJKAS_clean_linker_0, # of connection points: 2
#     Edge 31, Type (0, 1), BuildingBlock: ZUJKAS_clean_linker_0, # of connection points: 2
#     Edge 32, Type (0, 1), BuildingBlock: ZUJKAS_clean_linker_0, # of connection points: 2
#     Edge 33, Type (0, 1), BuildingBlock: ZUJKAS_clean_linker_0, # of connection points: 2
#     Edge 34, Type (0, 1), BuildingBlock: ZUJKAS_clean_linker_0, # of connection points: 2
#     Edge 35, Type (0, 1), BuildingBlock: ZUJKAS_clean_linker_0, # of connection points: 2
#     Edge 36, Type (0, 1), BuildingBlock: ZUJKAS_clean_linker_0, # of connection points: 2
#     Edge 37, Type (0, 1), BuildingBlock: ZUJKAS_clean_linker_0, # of connection points: 2
#     Edge 38, Type (0, 1), BuildingBlock: ZUJKAS_clean_linker_0, # of connection points: 2
#     Edge 39, Type (0, 1), BuildingBlock: ZUJKAS_clean_linker_0, # of connection points: 2
#     Edge 40, Type (0, 1), BuildingBlock: ZUJKAS_clean_linker_0, # of connection points: 2
#     Edge 41, Type (0, 1), BuildingBlock: ZUJKAS_clean_linker_0, # of connection points: 2
#     Edge 42, Type (0, 1), BuildingBlock: ZUJKAS_clean_linker_0, # of connection points: 2
#     Edge 43, Type (0, 1), BuildingBlock: ZUJKAS_clean_linker_0, # of connection points: 2
#     Edge 44, Type (0, 1), BuildingBlock: ZUJKAS_clean_linker_0, # of connection points: 2
#     Edge 45, Type (0, 1), BuildingBlock: ZUJKAS_clean_linker_0, # of connection points: 2
#     Edge 46, Type (0, 1), BuildingBlock: ZUJKAS_clean_linker_0, # of connection points: 2
#     Edge 47, Type (0, 1), BuildingBlock: ZUJKAS_clean_linker_0, # of connection points: 2
# Relax obj value: 0.160
# Max RMSD: 0.158
# Mean RMSD: 0.139
data_MOF--net-wbl--node1-KUFVIS_clean_sbu_0--node2-NAWXER_clean_linker_0--edge1-ZUJKAS_clean_linker_0
_symmetry_space_group_name_H-M    P1
_symmetry_Int_Tables_number       1
_symmetry_cell_setting            triclinic
loop_
_symmetry_equiv_pos_as_xyz
'x, y, z'
_cell_length_a     56.235963
_cell_length_b     56.230255
_cell_length_c     96.967903
_cell_angle_alpha  89.991322
_cell_angle_beta   90.644973
_cell_angle_gamma 90.014112
loop_
_atom_site_label
_atom_site_type_symbol
_atom_site_fract_x
_atom_site_fract_y
_atom_site_fract_z
_atom_type_partial_charge
C0 C 0.05665 0.94266 0.34666 0.0
C1 C 0.06709 0.95133 0.35889 0.0
C2 C 0.04428 0.95801 0.33779 0.0
C3 C 0.04261 0.98241 0.34084 0.0
C4 C 0.06566 0.97574 0.36184 0.0
C5 C 0.05354 0.9911 0.35291 0.0
C6 C 0.02748 0.99852 0.33239 0.0
C7 C 0.08484 0.97512 0.30414 0.0
C8 C 0.07729 0.96085 0.29302 0.0
C9 C 0.06835 0.98715 0.31218 0.0
C10 C 0.0439 0.98497 0.30939 0.0
C11 C 0.05281 0.95888 0.29012 0.0
C12 C 0.03626 0.97102 0.29818 0.0
C13 C 0.02649 0.99808 0.31781 0.0
C14 C 0.95736 0.07757 0.30487 0.0
C15 C 0.94046 0.06547 0.29672 0.0
C16 C 0.97568 0.06504 0.31148 0.0
C17 C 0.97731 0.04024 0.31004 0.0
C18 C 0.9429 0.04082 0.29475 0.0
C19 C 0.96128 0.02835 0.30129 0.0
C20 C 0.99491 0.02637 0.31807 0.0
C21 C 0.94249 0.05566 0.34893 0.0
C22 C 0.95313 0.07059 0.35888 0.0
C23 C 0.95653 0.04193 0.34017 0.0
C24 C 0.98145 0.04305 0.34113 0.0
C25 C 0.97808 0.07171 0.35973 0.0
C26 C 0.99207 0.05799 0.351 0.0
C27 C 0.99669 0.02767 0.33258 0.0
H28 H 0.05719 0.92386 0.34426 0.0
H29 H 0.0353 0.95059 0.32884 0.0
H30 H 0.07371 0.98291 0.37115 0.0
H31 H 0.05238 0.00979 0.35556 0.0
H32 H 0.10355 0.97681 0.30673 0.0
H33 H 0.07474 0.99828 0.32055 0.0
H34 H 0.04649 0.94819 0.28155 0.0
H35 H 0.01749 0.96935 0.29575 0.0
H36 H 0.95588 0.09655 0.30658 0.0
H37 H 0.98818 0.0746 0.318 0.0
H38 H 0.93032 0.03113 0.28835 0.0
H39 H 0.9624 0.00926 0.29994 0.0
H40 H 0.92332 0.05443 0.34801 0.0
H41 H 0.94791 0.03011 0.33285 0.0
H42 H 0.98685 0.08265 0.36745 0.0
H43 H 0.01126 0.05889 0.35202 0.0
N44 N 0.0128 0.01361 0.33916 0.0
N45 N 0.00993 0.0117 0.31121 0.0
C46 C 0.93575 0.45449 0.60022 0.0
C47 C 0.94535 0.4434 0.61202 0.0
C48 C 0.95058 0.4666 0.59107 0.0
C49 C 0.97527 0.46743 0.59347 0.0
C50 C 0.97008 0.44403 0.61426 0.0
C51 C 0.98484 0.456 0.60513 0.0
C52 C 0.9912 0.48161 0.58461 0.0
C53 C 0.96172 0.42328 0.55871 0.0
C54 C 0.94895 0.43053 0.54694 0.0
C55 C 0.97571 0.43949 0.56603 0.0
C56 C 0.97651 0.46349 0.56202 0.0
C57 C 0.95061 0.45419 0.54246 0.0
C58 C 0.96425 0.4706 0.55 0.0
C59 C 0.99081 0.48092 0.57003 0.0
C60 C 0.07379 0.54583 0.55654 0.0
C61 C 0.06337 0.55918 0.54584 0.0
C62 C 0.06024 0.52944 0.56389 0.0
C63 C 0.03583 0.52676 0.56099 0.0
C64 C 0.0394 0.55534 0.54232 0.0
C65 C 0.02572 0.53928 0.54985 0.0
C66 C 0.02061 0.51123 0.56952 0.0
C67 C 0.04987 0.56617 0.5999 0.0
C68 C 0.06472 0.55591 0.61007 0.0
C69 C 0.03611 0.55177 0.59115 0.0
C70 C 0.03707 0.52691 0.59239 0.0
C71 C 0.06596 0.53097 0.611 0.0
C72 C 0.0521 0.51667 0.60236 0.0
C73 C 0.0214 0.51133 0.58409 0.0
H74 H 0.91674 0.4545 0.59831 0.0
H75 H 0.94268 0.4758 0.58234 0.0
H76 H 0.97804 0.43536 0.62316 0.0
H77 H 0.0038 0.45644 0.60722 0.0
H78 H 0.96111 0.40495 0.56214 0.0
H79 H 0.98591 0.43318 0.57483 0.0
H80 H 0.94103 0.46005 0.53332 0.0
H81 H 0.96497 0.48891 0.54654 0.0
H82 H 0.09236 0.54826 0.55929 0.0
H83 H 0.06879 0.51918 0.57198 0.0
H84 H 0.03098 0.56548 0.53411 0.0
H85 H 0.00703 0.53725 0.54727 0.0
H86 H 0.04828 0.58529 0.599 0.0
H87 H 0.0243 0.56002 0.58366 0.0
H88 H 0.07754 0.52244 0.61851 0.0
H89 H 0.05307 0.49751 0.60348 0.0
N90 N 0.0067 0.49655 0.59101 0.0
N91 N 0.00529 0.49603 0.56305 0.0
C92 C 0.56162 0.45138 0.8456 0.0
C93 C 0.57291 0.45974 0.85766 0.0
C94 C 0.54954 0.46708 0.83683 0.0
C95 C 0.54874 0.49151 0.83985 0.0
C96 C 0.57251 0.48426 0.86051 0.0
C97 C 0.56043 0.49996 0.85173 0.0
C98 C 0.53368 0.50782 0.83153 0.0
C99 C 0.59194 0.48501 0.80389 0.0
C100 C 0.58471 0.47003 0.79301 0.0
C101 C 0.57518 0.49735 0.81159 0.0
C102 C 0.55082 0.49485 0.80865 0.0
C103 C 0.56032 0.46785 0.78992 0.0
C104 C 0.54352 0.48035 0.79761 0.0
C105 C 0.53309 0.50771 0.81696 0.0
C106 C 0.45829 0.58286 0.80437 0.0
C107 C 0.44452 0.57024 0.79463 0.0
C108 C 0.47708 0.57171 0.81136 0.0
C109 C 0.48213 0.54761 0.80895 0.0
C110 C 0.45066 0.54656 0.79162 0.0
C111 C 0.46926 0.53539 0.79871 0.0
C112 C 0.50038 0.53471 0.81712 0.0
C113 C 0.44514 0.55794 0.84812 0.0
C114 C 0.4542 0.57441 0.85775 0.0
C115 C 0.46048 0.54556 0.83943 0.0
C116 C 0.48512 0.54949 0.84021 0.0
C117 C 0.47886 0.57841 0.85841 0.0
C118 C 0.49418 0.5659 0.8498 0.0
C119 C 0.5017 0.53562 0.83168 0.0
H120 H 0.56168 0.43261 0.84309 0.0
H121 H 0.54009 0.45994 0.82796 0.0
H122 H 0.58069 0.49124 0.86983 0.0
H123 H 0.55979 0.51867 0.85437 0.0
H124 H 0.61057 0.48689 0.80662 0.0
H125 H 0.58128 0.50884 0.81986 0.0
H126 H 0.55427 0.4566 0.78152 0.0
H127 H 0.5248 0.47838 0.79509 0.0
H128 H 0.45409 0.6011 0.80695 0.0
H129 H 0.48731 0.5818 0.81886 0.0
H130 H 0.44084 0.53651 0.78392 0.0
H131 H 0.47311 0.51691 0.79648 0.0
H132 H 0.42621 0.55452 0.84738 0.0
H133 H 0.45316 0.53266 0.83225 0.0
H134 H 0.48639 0.5907 0.86587 0.0
H135 H 0.51316 0.56897 0.85066 0.0
N136 N 0.51822 0.52208 0.8383 0.0
N137 N 0.51621 0.52084 0.81031 0.0
C138 C 0.47486 0.91112 0.05554 0.0
C139 C 0.46061 0.91857 0.04434 0.0
C140 C 0.48719 0.92766 0.06359 0.0
C141 C 0.48524 0.95208 0.0608 0.0
C142 C 0.45904 0.94302 0.04138 0.0
C143 C 0.47137 0.95961 0.04949 0.0
C144 C 0.49842 0.96963 0.06932 0.0
C145 C 0.44424 0.93896 0.09841 0.0
C146 C 0.4537 0.92754 0.11016 0.0
C147 C 0.45903 0.95172 0.08957 0.0
C148 C 0.48361 0.9531 0.09222 0.0
C149 C 0.47838 0.92864 0.11263 0.0
C150 C 0.49312 0.94136 0.10379 0.0
C151 C 0.49915 0.96866 0.08389 0.0
C152 C 0.55322 0.05546 0.10112 0.0
C153 C 0.56914 0.04547 0.11081 0.0
C154 C 0.53989 0.04085 0.09228 0.0
C155 C 0.54236 0.01603 0.09293 0.0
C156 C 0.57173 0.02059 0.11126 0.0
C157 C 0.55832 0.00604 0.1025 0.0
C158 C 0.52747 0.0002 0.08428 0.0
C159 C 0.57667 0.04036 0.0572 0.0
C160 C 0.56457 0.05627 0.0484 0.0
C161 C 0.56438 0.02209 0.0638 0.0
C162 C 0.53973 0.01955 0.06185 0.0
C163 C 0.5401 0.05289 0.04594 0.0
C164 C 0.52783 0.03462 0.05255 0.0
C165 C 0.52605 0.00184 0.06977 0.0
H166 H 0.4763 0.89247 0.05821 0.0
H167 H 0.49834 0.9213 0.07199 0.0
H168 H 0.44847 0.94931 0.03271 0.0
H169 H 0.46989 0.97835 0.04702 0.0
H170 H 0.42534 0.93838 0.09618 0.0
H171 H 0.45109 0.96114 0.08093 0.0
H172 H 0.48623 0.92046 0.12171 0.0
H173 H 0.51197 0.9424 0.10616 0.0
H174 H 0.55051 0.0745 0.10064 0.0
H175 H 0.52728 0.04891 0.08517 0.0
H176 H 0.5841 0.01231 0.11843 0.0
H177 H 0.56043 0.98692 0.10317 0.0
H178 H 0.5956 0.0422 0.0591 0.0
H179 H 0.57406 0.01021 0.07064 0.0
H180 H 0.53019 0.06493 0.03933 0.0
H181 H 0.50884 0.03287 0.05083 0.0
N182 N 0.5116 0.98645 0.06282 0.0
N183 N 0.51393 0.98375 0.09076 0.0
C184 C 0.03604 0.56941 0.90133 0.0
C185 C 0.0475 0.55763 0.89049 0.0
C186 C 0.02295 0.55655 0.91098 0.0
C187 C 0.0215 0.53162 0.91015 0.0
C188 C 0.04608 0.53271 0.88969 0.0
C189 C 0.03319 0.51986 0.8994 0.0
C190 C 0.0064 0.51781 0.91972 0.0
C191 C 0.06427 0.54848 0.9454 0.0
C192 C 0.05708 0.56719 0.95402 0.0
C193 C 0.0475 0.53372 0.93909 0.0
C194 C 0.02314 0.53735 0.94121 0.0
C195 C 0.03267 0.57035 0.95649 0.0
C196 C 0.01582 0.55542 0.95019 0.0
C197 C 0.00557 0.52205 0.93407 0.0
C198 C 0.93917 0.44428 0.95325 0.0
C199 C 0.92312 0.45756 0.96117 0.0
C200 C 0.95653 0.45571 0.94546 0.0
C201 C 0.95795 0.48065 0.94528 0.0
C202 C 0.92551 0.48246 0.96157 0.0
C203 C 0.94282 0.49387 0.95374 0.0
C204 C 0.97477 0.49313 0.93616 0.0
C205 C 0.92368 0.4549 0.90676 0.0
C206 C 0.93515 0.43749 0.89881 0.0
C207 C 0.93698 0.47103 0.91468 0.0
C208 C 0.96193 0.47 0.91473 0.0
C209 C 0.96011 0.43625 0.89916 0.0
C210 C 0.97334 0.45247 0.90695 0.0
C211 C 0.97647 0.4881 0.92192 0.0
H212 H 0.03651 0.58863 0.90206 0.0
H213 H 0.01343 0.56621 0.91884 0.0
H214 H 0.0549 0.52315 0.88151 0.0
H215 H 0.03222 0.50068 0.89847 0.0
H216 H 0.08293 0.54505 0.9436 0.0
H217 H 0.05358 0.51942 0.93253 0.0
H218 H 0.02657 0.58458 0.96309 0.0
H219 H 0.99709 0.55834 0.95205 0.0
H220 H 0.93781 0.4251 0.95265 0.0
H221 H 0.96851 0.44506 0.93935 0.0
H222 H 0.91375 0.49318 0.96779 0.0
H223 H 0.94386 0.51311 0.95393 0.0
H224 H 0.90446 0.45625 0.90667 0.0
H225 H 0.92783 0.48468 0.92045 0.0
H226 H 0.96947 0.42333 0.89297 0.0
H227 H 0.99259 0.45154 0.90676 0.0
N228 N 0.99209 0.50073 0.91427 0.0
N229 N 0.98949 0.50988 0.94173 0.0
C230 C 0.44874 0.55234 0.15 0.0
C231 C 0.46008 0.56592 0.13982 0.0
C232 C 0.46207 0.5392 0.15955 0.0
C233 C 0.48703 0.53951 0.15919 0.0
C234 C 0.48509 0.56623 0.13953 0.0
C235 C 0.49842 0.55302 0.14906 0.0
C236 C 0.50125 0.52474 0.16884 0.0
C237 C 0.46805 0.58196 0.19341 0.0
C238 C 0.45151 0.57432 0.20321 0.0
C239 C 0.48315 0.56573 0.18711 0.0
C240 C 0.48167 0.54139 0.19022 0.0
C241 C 0.45061 0.55009 0.20673 0.0
C242 C 0.46559 0.53374 0.20027 0.0
C243 C 0.49732 0.52413 0.18321 0.0
C244 C 0.57389 0.4565 0.20312 0.0
C245 C 0.5603 0.44017 0.2107 0.0
C246 C 0.56278 0.47417 0.19523 0.0
C247 C 0.53788 0.47578 0.19475 0.0
C248 C 0.53539 0.44264 0.21071 0.0
C249 C 0.52432 0.46039 0.20288 0.0
C250 C 0.52575 0.49288 0.18551 0.0
C251 C 0.55984 0.43886 0.15706 0.0
C252 C 0.57601 0.4488 0.14771 0.0
C253 C 0.54547 0.45352 0.16511 0.0
C254 C 0.54718 0.47838 0.16404 0.0
C255 C 0.57804 0.47369 0.14693 0.0
C256 C 0.56368 0.4883 0.15496 0.0
C257 C 0.53036 0.4942 0.17124 0.0
H258 H 0.42952 0.55128 0.15035 0.0
H259 H 0.45286 0.52839 0.16704 0.0
H260 H 0.49441 0.57669 0.13192 0.0
H261 H 0.51765 0.5534 0.14855 0.0
H262 H 0.46962 0.60062 0.19079 0.0
H263 H 0.49607 0.57227 0.17983 0.0
H264 H 0.43811 0.54379 0.21433 0.0
H265 H 0.46439 0.51508 0.20297 0.0
H266 H 0.59312 0.45543 0.20311 0.0
H267 H 0.5736 0.48629 0.18929 0.0
H268 H 0.52434 0.43025 0.21629 0.0
H269 H 0.50508 0.46144 0.2027 0.0
H270 H 0.55791 0.41976 0.15793 0.0
H271 H 0.53247 0.44542 0.17179 0.0
H272 H 0.58996 0.48195 0.13966 0.0
H273 H 0.56509 0.50742 0.15386 0.0
N274 N 0.51786 0.51002 0.16346 0.0
N275 N 0.50944 0.50795 0.19098 0.0
C276 C 0.43563 0.95151 0.40536 0.0
C277 C 0.42125 0.96188 0.39504 0.0
C278 C 0.44966 0.9657 0.41403 0.0
C279 C 0.4495 0.99055 0.4126 0.0
C280 C 0.42076 0.98683 0.39386 0.0
C281 C 0.43492 0.00099 0.40247 0.0
C282 C 0.46606 0.00549 0.42078 0.0
C283 C 0.41242 0.97766 0.4501 0.0
C284 C 0.4215 0.96171 0.46001 0.0
C285 C 0.42773 0.99136 0.44214 0.0
C286 C 0.45246 0.98923 0.44379 0.0
C287 C 0.44628 0.95993 0.46185 0.0
C288 C 0.46162 0.97371 0.45387 0.0
C289 C 0.46873 0.00352 0.43523 0.0
C290 C 0.54467 0.07772 0.44735 0.0
C291 C 0.55887 0.06459 0.45665 0.0
C292 C 0.52554 0.06696 0.44047 0.0
C293 C 0.52057 0.04273 0.4425 0.0
C294 C 0.55293 0.0407 0.45925 0.0
C295 C 0.53401 0.02991 0.45224 0.0
C296 C 0.5015 0.03046 0.43461 0.0
C297 C 0.55367 0.05467 0.40215 0.0
C298 C 0.54404 0.07158 0.39297 0.0
C299 C 0.53898 0.04242 0.41127 0.0
C300 C 0.51442 0.04691 0.41138 0.0
C301 C 0.51949 0.07622 0.39325 0.0
C302 C 0.5048 0.06384 0.40229 0.0
C303 C 0.49841 0.03284 0.42019 0.0
H304 H 0.43681 0.93237 0.40641 0.0
H305 H 0.46126 0.95719 0.42154 0.0
H306 H 0.40962 0.99544 0.38616 0.0
H307 H 0.43463 0.02013 0.40115 0.0
H308 H 0.39344 0.97931 0.44833 0.0
H309 H 0.42019 0.00365 0.43468 0.0
H310 H 0.4538 0.94801 0.46951 0.0
H311 H 0.48065 0.97199 0.45542 0.0
H312 H 0.5487 0.09613 0.44508 0.0
H313 H 0.51488 0.07753 0.4334 0.0
H314 H 0.56307 0.03022 0.46661 0.0
H315 H 0.53024 0.01132 0.45419 0.0
H316 H 0.57253 0.05076 0.40217 0.0
H317 H 0.54672 0.02909 0.41802 0.0
H318 H 0.51151 0.08887 0.38616 0.0
H319 H 0.48585 0.06734 0.4021 0.0
N320 N 0.48081 0.02028 0.41385 0.0
N321 N 0.48652 0.01587 0.44158 0.0
C322 C 0.07286 0.95784 0.65051 0.0
C323 C 0.06352 0.94707 0.63854 0.0
C324 C 0.05782 0.96953 0.6597 0.0
C325 C 0.03313 0.97017 0.65724 0.0
C326 C 0.03884 0.94765 0.63615 0.0
C327 C 0.02383 0.95911 0.64538 0.0
C328 C 0.01698 0.98386 0.66625 0.0
C329 C 0.04702 0.92593 0.69233 0.0
C330 C 0.05941 0.93309 0.70425 0.0
C331 C 0.03344 0.94224 0.68482 0.0
C332 C 0.03268 0.96626 0.6888 0.0
C333 C 0.05793 0.95683 0.70862 0.0
C334 C 0.04472 0.97333 0.70091 0.0
C335 C 0.01818 0.98362 0.68085 0.0
C336 C 0.93557 0.04698 0.69602 0.0
C337 C 0.94705 0.06407 0.70431 0.0
C338 C 0.94882 0.02993 0.68896 0.0
C339 C 0.97374 0.02977 0.69007 0.0
C340 C 0.97191 0.06306 0.70593 0.0
C341 C 0.98512 0.04595 0.69893 0.0
C342 C 0.98817 0.01359 0.68157 0.0
C343 C 0.95418 0.06596 0.65157 0.0
C344 C 0.93848 0.05481 0.64218 0.0
C345 C 0.96939 0.05239 0.65994 0.0
C346 C 0.96908 0.02747 0.65909 0.0
C347 C 0.93796 0.02981 0.64162 0.0
C348 C 0.95327 0.01632 0.64989 0.0
C349 C 0.98607 0.0128 0.66708 0.0
H350 H 0.09185 0.95789 0.65251 0.0
H351 H 0.06558 0.97854 0.66854 0.0
H352 H 0.03111 0.93927 0.62709 0.0
H353 H 0.0049 0.95945 0.64319 0.0
H354 H 0.04747 0.90756 0.68897 0.0
H355 H 0.02337 0.93593 0.67597 0.0
H356 H 0.06721 0.96262 0.71788 0.0
H357 H 0.04402 0.99164 0.70435 0.0
H358 H 0.91645 0.04735 0.69456 0.0
H359 H 0.93966 0.01727 0.68237 0.0
H360 H 0.98119 0.07578 0.71243 0.0
H361 H 0.00432 0.04595 0.70002 0.0
H362 H 0.95529 0.08516 0.65213 0.0
H363 H 0.9818 0.06135 0.6668 0.0
H364 H 0.92582 0.02062 0.6347 0.0
H365 H 0.95279 0.9971 0.64909 0.0
N366 N 0.00064 0.99812 0.66 0.0
N367 N 0.00406 0.9989 0.68794 0.0
Mn368 Mn 0.32351 0.67444 0.00292 0.0
Mn369 Mn 0.32683 0.61462 0.00411 0.0
C370 C 0.3296 0.65538 0.02382 0.0
C371 C 0.34151 0.7114 0.00024 0.0
C372 C 0.28056 0.64165 0.00014 0.0
O373 O 0.32968 0.66534 0.98292 0.0
O374 O 0.33471 0.62572 0.98525 0.0
C375 C 0.37852 0.60825 3e-05 0.0
N376 N 0.35876 0.60465 0.00774 0.0
C377 C 0.38104 0.5822 0.0246 0.0
C378 C 0.40163 0.58557 0.01681 0.0
C379 C 0.40037 0.5987 0.00449 0.0
C380 C 0.35978 0.59211 0.01963 0.0
H381 H 0.37761 0.61835 0.99056 0.0
C382 C 0.33464 0.64484 0.97805 0.0
O383 O 0.31892 0.70847 0.99793 0.0
O384 O 0.35371 0.69272 0.00375 0.0
N385 N 0.31976 0.60168 0.02183 0.0
C386 C 0.29857 0.60123 0.0285 0.0
C387 C 0.29678 0.58893 0.04104 0.0
C388 C 0.31675 0.57718 0.04656 0.0
C389 C 0.33847 0.57816 0.0396 0.0
C390 C 0.33909 0.59042 0.02705 0.0
H391 H 0.2831 0.61004 0.02424 0.0
O392 O 0.32092 0.67676 0.02344 0.0
O393 O 0.33433 0.64586 0.01196 0.0
O394 O 0.28926 0.66248 0.00133 0.0
O395 O 0.29319 0.62281 0.00061 0.0
C396 C 0.35955 0.56763 0.04468 0.0
C397 C 0.38085 0.56975 0.03722 0.0
H398 H 0.41853 0.57831 0.02024 0.0
H399 H 0.4162 0.60146 0.99845 0.0
H400 H 0.28001 0.58837 0.0464 0.0
H401 H 0.31522 0.56755 0.05618 0.0
H402 H 0.35965 0.5581 0.05439 0.0
H403 H 0.39702 0.56188 0.04132 0.0
Mn404 Mn 0.32228 0.82868 0.25689 0.0
Mn405 Mn 0.38055 0.83587 0.26433 0.0
C406 C 0.33478 0.83458 0.27944 0.0
C407 C 0.28561 0.84521 0.25103 0.0
C408 C 0.35823 0.78807 0.25747 0.0
O409 O 0.33637 0.83642 0.23817 0.0
O410 O 0.37443 0.84341 0.24456 0.0
C411 C 0.38406 0.888 0.26062 0.0
N412 N 0.38685 0.86841 0.26873 0.0
C413 C 0.40183 0.8921 0.28759 0.0
C414 C 0.39925 0.91252 0.2794 0.0
C415 C 0.39027 0.91046 0.26587 0.0
C416 C 0.39541 0.8702 0.28178 0.0
H417 H 0.37712 0.8865 0.25022 0.0
C418 C 0.35768 0.84264 0.23547 0.0
O419 O 0.29002 0.82288 0.24872 0.0
O420 O 0.30273 0.85789 0.25624 0.0
N421 N 0.38875 0.82943 0.28318 0.0
C422 C 0.38887 0.80821 0.28997 0.0
C423 C 0.39687 0.80725 0.30372 0.0
C424 C 0.40478 0.82807 0.31034 0.0
C425 C 0.40453 0.8497 0.30314 0.0
C426 C 0.39654 0.84953 0.28941 0.0
H427 H 0.38283 0.79214 0.28494 0.0
O428 O 0.3144 0.82465 0.27686 0.0
O429 O 0.34713 0.84062 0.26877 0.0
O430 O 0.33683 0.79534 0.25614 0.0
O431 O 0.37573 0.80181 0.26029 0.0
C432 C 0.41157 0.87148 0.3091 0.0
C433 C 0.41013 0.89268 0.30135 0.0
H434 H 0.40392 0.92989 0.28344 0.0
H435 H 0.38813 0.92615 0.25952 0.0
H436 H 0.39694 0.79051 0.30923 0.0
H437 H 0.41087 0.82726 0.32096 0.0
H438 H 0.41782 0.87218 0.3197 0.0
H439 H 0.41524 0.90936 0.30612 0.0
Mn440 Mn 0.17915 0.82292 0.49564 0.0
Mn441 Mn 0.11995 0.83129 0.49256 0.0
C442 C 0.16195 0.82806 0.47409 0.0
C443 C 0.21706 0.83867 0.49894 0.0
C444 C 0.14251 0.78326 0.49843 0.0
O445 O 0.16941 0.83162 0.51518 0.0
O446 O 0.13056 0.83968 0.51156 0.0
C447 C 0.11871 0.88368 0.49537 0.0
N448 N 0.11357 0.86372 0.48796 0.0
C449 C 0.09507 0.88674 0.46988 0.0
C450 C 0.10004 0.90754 0.47735 0.0
C451 C 0.11197 0.906 0.49013 0.0
C452 C 0.10222 0.865 0.47562 0.0
H453 H 0.12791 0.88256 0.50518 0.0
C454 C 0.1491 0.83859 0.51935 0.0
O455 O 0.21257 0.81652 0.5017 0.0
O456 O 0.19945 0.85163 0.49459 0.0
N457 N 0.10737 0.82398 0.47464 0.0
C458 C 0.10487 0.80234 0.46847 0.0
C459 C 0.09361 0.80079 0.4555 0.0
C460 C 0.08489 0.82145 0.44907 0.0
C461 C 0.08756 0.84351 0.45565 0.0
C462 C 0.09877 0.84393 0.46861 0.0
H463 H 0.11144 0.78639 0.4734 0.0
O464 O 0.18263 0.81802 0.47531 0.0
O465 O 0.15217 0.83492 0.48549 0.0
O466 O 0.16414 0.78996 0.4977 0.0
O467 O 0.12483 0.79736 0.49701 0.0
C468 C 0.07975 0.86513 0.4498 0.0
C469 C 0.08362 0.88674 0.45688 0.0
H470 H 0.09493 0.92479 0.47333 0.0
H471 H 0.11596 0.92198 0.49593 0.0
H472 H 0.09164 0.78371 0.45048 0.0
H473 H 0.07624 0.82017 0.43906 0.0
H474 H 0.07097 0.86538 0.4398 0.0
H475 H 0.07785 0.90327 0.45218 0.0
Mn476 Mn 0.17358 0.68022 0.74857 0.0
Mn477 Mn 0.16742 0.6212 0.7434 0.0
C478 C 0.16945 0.66547 0.72643 0.0
C479 C 0.1571 0.71741 0.75269 0.0
C480 C 0.21451 0.64472 0.7506 0.0
O481 O 0.16468 0.66794 0.76759 0.0
O482 O 0.15837 0.62926 0.76259 0.0
C483 C 0.11506 0.61771 0.74546 0.0
N484 N 0.13532 0.61412 0.73819 0.0
C485 C 0.11335 0.59659 0.71933 0.0
C486 C 0.09225 0.59998 0.72664 0.0
C487 C 0.09311 0.61065 0.73975 0.0
C488 C 0.13469 0.60401 0.72555 0.0
H489 H 0.11566 0.62593 0.75553 0.0
C490 C 0.15848 0.6469 0.77098 0.0
O491 O 0.1792 0.71295 0.75572 0.0
O492 O 0.14443 0.70004 0.74774 0.0
N493 N 0.17546 0.61094 0.72522 0.0
C494 C 0.1973 0.60985 0.7193 0.0
C495 C 0.19955 0.59975 0.70614 0.0
C496 C 0.17938 0.59075 0.69925 0.0
C497 C 0.15709 0.59211 0.70553 0.0
C498 C 0.15598 0.60212 0.71873 0.0
H499 H 0.2129 0.61656 0.7246 0.0
O500 O 0.1789 0.68622 0.7285 0.0
O501 O 0.16261 0.65409 0.73735 0.0
O502 O 0.20688 0.66607 0.75068 0.0
O503 O 0.20112 0.62675 0.74834 0.0
C504 C 0.13589 0.58411 0.69918 0.0
C505 C 0.11402 0.58646 0.70604 0.0
H506 H 0.07528 0.59461 0.72226 0.0
H507 H 0.07689 0.61342 0.74543 0.0
H508 H 0.21681 0.59881 0.70135 0.0
H509 H 0.18125 0.58283 0.68914 0.0
H510 H 0.13617 0.57637 0.68895 0.0
H511 H 0.09781 0.58056 0.70097 0.0
Mn512 Mn 0.82775 0.17911 0.50479 0.0
Mn513 Mn 0.83518 0.12021 0.50961 0.0
C514 C 0.83133 0.16403 0.52689 0.0
C515 C 0.84406 0.21648 0.50096 0.0
C516 C 0.78791 0.14284 0.50165 0.0
O517 O 0.83737 0.16727 0.48579 0.0
O518 O 0.84582 0.12902 0.49082 0.0
C519 C 0.88774 0.11776 0.50905 0.0
N520 N 0.86694 0.11363 0.51569 0.0
C521 C 0.88759 0.09591 0.53498 0.0
C522 C 0.90924 0.09987 0.52832 0.0
C523 C 0.90931 0.1109 0.51531 0.0
C524 C 0.86667 0.10315 0.52824 0.0
H525 H 0.88785 0.12625 0.49906 0.0
C526 C 0.84517 0.14673 0.48248 0.0
O527 O 0.82204 0.21194 0.49774 0.0
O528 O 0.85666 0.19916 0.506 0.0
N529 N 0.82578 0.10938 0.52745 0.0
C530 C 0.8035 0.10789 0.53276 0.0
C531 C 0.80033 0.09755 0.5458 0.0
C532 C 0.82006 0.0887 0.55317 0.0
C533 C 0.84282 0.09043 0.5475 0.0
C534 C 0.84485 0.10073 0.53442 0.0
H535 H 0.78824 0.11449 0.5271 0.0
O536 O 0.82171 0.18471 0.52484 0.0
O537 O 0.83874 0.15302 0.51598 0.0
O538 O 0.79477 0.16442 0.50226 0.0
O539 O 0.8018 0.12517 0.5037 0.0
C540 C 0.86359 0.08255 0.55436 0.0
C541 C 0.88597 0.08541 0.54814 0.0
H542 H 0.92592 0.09466 0.53313 0.0
H543 H 0.92595 0.1141 0.51013 0.0
H544 H 0.78272 0.09632 0.55012 0.0
H545 H 0.8175 0.08065 0.56319 0.0
H546 H 0.86259 0.07453 0.56449 0.0
H547 H 0.90184 0.07961 0.5536 0.0
Mn548 Mn 0.82697 0.32505 0.75591 0.0
Mn549 Mn 0.88674 0.32792 0.75878 0.0
C550 C 0.84484 0.32867 0.77739 0.0
C551 C 0.79049 0.344 0.75295 0.0
C552 C 0.85992 0.28189 0.75389 0.0
O553 O 0.83682 0.33284 0.73633 0.0
O554 O 0.87646 0.3351 0.73953 0.0
C555 C 0.89234 0.37955 0.75381 0.0
N556 N 0.89607 0.36014 0.76196 0.0
C557 C 0.91823 0.38332 0.77852 0.0
C558 C 0.91476 0.40354 0.77027 0.0
C559 C 0.90167 0.40166 0.7579 0.0
C560 C 0.90845 0.36179 0.77394 0.0
H561 H 0.88235 0.37818 0.74427 0.0
C562 C 0.85776 0.33648 0.73188 0.0
O563 O 0.79296 0.32155 0.75012 0.0
O564 O 0.80927 0.35536 0.75715 0.0
N565 N 0.89938 0.32172 0.77683 0.0
C566 C 0.89999 0.30083 0.78394 0.0
C567 C 0.91178 0.29985 0.79677 0.0
C568 C 0.92312 0.32024 0.80205 0.0
C569 C 0.92247 0.34146 0.79446 0.0
C570 C 0.91036 0.34139 0.78177 0.0
H571 H 0.89143 0.28508 0.77989 0.0
O572 O 0.82343 0.32029 0.77619 0.0
O573 O 0.85512 0.33488 0.76599 0.0
O574 O 0.83908 0.29089 0.75362 0.0
O575 O 0.87881 0.29414 0.7558 0.0
C576 C 0.93314 0.36276 0.79905 0.0
C577 C 0.93086 0.38371 0.79115 0.0
H578 H 0.92194 0.42062 0.77339 0.0
H579 H 0.89884 0.4172 0.7515 0.0
H580 H 0.91219 0.28341 0.80257 0.0
H581 H 0.93216 0.31942 0.81196 0.0
H582 H 0.94296 0.36331 0.80872 0.0
H583 H 0.9388 0.40006 0.79491 0.0
Mn584 Mn 0.67065 0.32707 0.99824 0.0
Mn585 Mn 0.61107 0.33279 0.99628 0.0
C586 C 0.65192 0.33232 0.97706 0.0
C587 C 0.70806 0.34447 0.00069 0.0
C588 C 0.63607 0.28568 0.00143 0.0
O589 O 0.66171 0.335 0.01802 0.0
O590 O 0.62236 0.34131 0.01514 0.0
C591 C 0.60692 0.38493 -0.00029 0.0
N592 N 0.60265 0.36494 0.99215 0.0
C593 C 0.58118 0.38724 0.97488 0.0
C594 C 0.58525 0.40806 0.98251 0.0
C595 C 0.59826 0.4069 0.99495 0.0
C596 C 0.59032 0.36587 0.98012 0.0
H597 H 0.61684 0.38409 0.0093 0.0
C598 C 0.64136 0.34108 0.02258 0.0
O599 O 0.70474 0.32211 0.00349 0.0
O600 O 0.68956 0.35667 0.9969 0.0
N601 N 0.5981 0.32534 0.97848 0.0
C602 C 0.59708 0.30391 0.97194 0.0
C603 C 0.58544 0.30216 0.95909 0.0
C604 C 0.57476 0.32238 0.95318 0.0
C605 C 0.57591 0.34419 0.96016 0.0
C606 C 0.58784 0.34488 0.9729 0.0
H607 H 0.60516 0.28829 0.97646 0.0
O608 O 0.67293 0.32283 0.97776 0.0
O609 O 0.64262 0.33825 0.98874 0.0
O610 O 0.65733 0.29339 0.00052 0.0
O611 O 0.6178 0.29904 0.00027 0.0
C612 C 0.56588 0.36533 0.95491 0.0
C613 C 0.56864 0.38687 0.96223 0.0
H614 H 0.5786 0.42505 0.97887 0.0
H615 H 0.60155 0.42291 0.00087 0.0
H616 H 0.58467 0.28527 0.95376 0.0
H617 H 0.56583 0.32097 0.94326 0.0
H618 H 0.55637 0.3653 0.94514 0.0
H619 H 0.56125 0.4031 0.95794 0.0
Mn620 Mn 0.67292 0.17982 0.2479 0.0
Mn621 Mn 0.66898 0.12032 0.24394 0.0
C622 C 0.66955 0.16356 0.22608 0.0
C623 C 0.65509 0.21662 0.25129 0.0
C624 C 0.71511 0.14592 0.25071 0.0
O625 O 0.66418 0.16844 0.26711 0.0
O626 O 0.65972 0.1292 0.263 0.0
C627 C 0.61678 0.11513 0.24621 0.0
N628 N 0.63712 0.11179 0.23898 0.0
C629 C 0.61571 0.09225 0.22057 0.0
C630 C 0.59453 0.09537 0.22786 0.0
C631 C 0.59507 0.10692 0.24071 0.0
C632 C 0.63679 0.10083 0.22657 0.0
H633 H 0.61713 0.12402 0.25608 0.0
C634 C 0.65895 0.14738 0.27097 0.0
O635 O 0.67731 0.21308 0.25446 0.0
O636 O 0.64313 0.19861 0.24654 0.0
N637 N 0.67728 0.10922 0.22598 0.0
C638 C 0.6991 0.10856 0.22002 0.0
C639 C 0.70165 0.09767 0.20709 0.0
C640 C 0.6818 0.08746 0.20047 0.0
C641 C 0.6595 0.08843 0.20677 0.0
C642 C 0.6581 0.09926 0.21974 0.0
H643 H 0.71446 0.11623 0.2251 0.0
O644 O 0.6783 0.18473 0.22774 0.0
O645 O 0.663 0.15264 0.23722 0.0
O646 O 0.70667 0.16695 0.2505 0.0
O647 O 0.70247 0.12735 0.24867 0.0
C648 C 0.63858 0.07926 0.20066 0.0
C649 C 0.61668 0.08128 0.20752 0.0
H650 H 0.57775 0.08911 0.22365 0.0
H651 H 0.57879 0.10947 0.24637 0.0
H652 H 0.7189 0.09705 0.20227 0.0
H653 H 0.6839 0.07893 0.19055 0.0
H654 H 0.63909 0.07088 0.19061 0.0
H655 H 0.60066 0.07447 0.20263 0.0
H656 H 0.11944 0.97782 0.28345 0.0
H657 H 0.15101 0.95542 0.27223 0.0
H658 H 0.10722 0.89249 0.27237 0.0
H659 H 0.0755 0.91475 0.28381 0.0
H660 H 0.16988 0.9124 0.28614 0.0
H661 H 0.13771 0.89641 0.23235 0.0
H662 H 0.12731 0.92121 0.2425 0.0
H663 H 0.11743 0.89168 0.24636 0.0
C664 C 0.11642 0.95926 0.281 0.0
C665 C 0.09509 0.94797 0.28466 0.0
C666 C 0.13439 0.94656 0.2745 0.0
C667 C 0.13134 0.92239 0.27142 0.0
C668 C 0.10972 0.91124 0.27449 0.0
H669 H 0.24309 0.82155 0.24902 0.0
H670 H 0.20343 0.83892 0.25214 0.0
C671 C 0.09166 0.92397 0.28102 0.0
C672 C 0.15189 0.90848 0.26657 0.0
H673 H 0.17554 0.881 0.23844 0.0
C674 C 0.17107 0.90542 0.27574 0.0
C675 C 0.15317 0.89923 0.25305 0.0
C676 C 0.13291 0.90228 0.2429 0.0
C677 C 0.19181 0.89377 0.27166 0.0
C678 C 0.19356 0.88534 0.25798 0.0
C679 C 0.1741 0.88766 0.24889 0.0
C680 C 0.21612 0.8752 0.25301 0.0
C681 C 0.21188 0.8908 0.282 0.0
C682 C 0.23605 0.89 0.25186 0.0
C683 C 0.2586 0.88019 0.25019 0.0
C684 C 0.26155 0.85541 0.24954 0.0
C685 C 0.24131 0.84071 0.24948 0.0
C686 C 0.21868 0.85058 0.25126 0.0
H687 H 0.20578 0.89335 0.29276 0.0
H688 H 0.22002 0.87288 0.28113 0.0
H689 H 0.22586 0.90421 0.27991 0.0
H690 H 0.23434 0.90907 0.2531 0.0
H691 H 0.27384 0.89198 0.25015 0.0
H692 H 0.06945 0.56624 0.51823 0.0
H693 H 0.08928 0.59993 0.50711 0.0
H694 H 0.10571 0.62963 0.54716 0.0
H695 H 0.08704 0.5955 0.55819 0.0
H696 H 0.07705 0.64337 0.50716 0.0
H697 H 0.16743 0.64101 0.52944 0.0
H698 H 0.14707 0.61643 0.53124 0.0
H699 H 0.14636 0.64112 0.54313 0.0
C700 C 0.07778 0.57978 0.5246 0.0
C701 C 0.07695 0.57828 0.53903 0.0
C702 C 0.08909 0.59899 0.51827 0.0
C703 C 0.09945 0.61717 0.52628 0.0
C704 C 0.0987 0.61549 0.54072 0.0
H705 H 0.10191 0.76454 0.50892 0.0
H706 H 0.09331 0.72305 0.51392 0.0
C707 C 0.08785 0.59608 0.54704 0.0
C708 C 0.10875 0.63906 0.51965 0.0
H709 H 0.15345 0.68001 0.52186 0.0
C710 C 0.094 0.6511 0.51018 0.0
C711 C 0.1311 0.64903 0.52326 0.0
C712 C 0.14897 0.63602 0.5322 0.0
C713 C 0.10028 0.67343 0.50493 0.0
C714 C 0.12143 0.6845 0.5097 0.0
C715 C 0.13694 0.67181 0.51844 0.0
C716 C 0.12694 0.7097 0.50649 0.0
C717 C 0.08402 0.68493 0.49438 0.0
C718 C 0.14916 0.71624 0.5012 0.0
C719 C 0.15438 0.74016 0.49863 0.0
C720 C 0.13739 0.75792 0.50121 0.0
C721 C 0.11526 0.75129 0.5066 0.0
C722 C 0.11022 0.7275 0.50937 0.0
H723 H 0.07448 0.6713 0.48813 0.0
H724 H 0.0704 0.69564 0.49977 0.0
H725 H 0.09396 0.69674 0.48731 0.0
H726 H 0.16243 0.70283 0.49903 0.0
H727 H 0.1716 0.74472 0.49448 0.0
H728 H 0.43865 0.61625 0.7855 0.0
H729 H 0.40232 0.63433 0.77595 0.0
H730 H 0.36592 0.56717 0.77943 0.0
H731 H 0.40165 0.54914 0.78932 0.0
H732 H 0.36229 0.59493 0.75217 0.0
H733 H 0.33927 0.64475 0.79994 0.0
H734 H 0.36925 0.64611 0.7936 0.0
H735 H 0.35814 0.61877 0.80049 0.0
C736 C 0.42287 0.60536 0.7843 0.0
C737 C 0.4231 0.58122 0.78816 0.0
C738 C 0.40222 0.6157 0.77879 0.0
C739 C 0.38156 0.60203 0.77704 0.0
C740 C 0.3818 0.57792 0.78066 0.0
H741 H 0.23746 0.60191 0.75183 0.0
H742 H 0.27931 0.59456 0.75687 0.0
C743 C 0.40231 0.56763 0.78623 0.0
C744 C 0.35932 0.61269 0.77173 0.0
H745 H 0.31119 0.64488 0.78185 0.0
C746 C 0.35121 0.60614 0.75855 0.0
C747 C 0.34513 0.62742 0.78008 0.0
C748 C 0.35319 0.63473 0.79435 0.0
C749 C 0.32879 0.61333 0.75364 0.0
C750 C 0.31395 0.62689 0.76232 0.0
C751 C 0.32257 0.6344 0.77525 0.0
C752 C 0.28878 0.63174 0.75869 0.0
C753 C 0.32113 0.60611 0.73928 0.0
C754 C 0.28004 0.65511 0.75839 0.0
C755 C 0.25595 0.65942 0.75566 0.0
C756 C 0.24015 0.64039 0.75326 0.0
C757 C 0.24906 0.61702 0.75357 0.0
C758 C 0.27307 0.61276 0.75633 0.0
H759 H 0.33673 0.60321 0.73255 0.0
H760 H 0.31115 0.58911 0.73981 0.0
H761 H 0.30943 0.61974 0.73446 0.0
H762 H 0.29185 0.66999 0.76032 0.0
H763 H 0.24972 0.67764 0.75552 0.0
H764 H 0.41505 0.92185 0.03407 0.0
H765 H 0.39225 0.89106 0.02192 0.0
H766 H 0.45278 0.84407 0.02405 0.0
H767 H 0.47599 0.87502 0.03562 0.0
H768 H 0.42893 0.84193 0.99882 0.0
H769 H 0.36633 0.83377 0.04265 0.0
H770 H 0.36844 0.86282 0.03507 0.0
H771 H 0.39371 0.85036 0.04398 0.0
C772 C 0.42365 0.90512 0.03172 0.0
C773 C 0.44725 0.90077 0.03599 0.0
C774 C 0.41051 0.88747 0.0249 0.0
C775 C 0.42068 0.86513 0.02234 0.0
C776 C 0.44453 0.86113 0.02602 0.0
H777 H 0.38854 0.72219 0.00326 0.0
H778 H 0.40623 0.76159 0.00596 0.0
C779 C 0.4577 0.87876 0.03276 0.0
C780 C 0.40636 0.84536 0.01651 0.0
H781 H 0.36074 0.80766 0.02405 0.0
C782 C 0.41385 0.83457 0.00425 0.0
C783 C 0.38668 0.83583 0.02362 0.0
C784 C 0.37835 0.84611 0.03711 0.0
C785 C 0.40256 0.81411 0.99908 0.0
C786 C 0.38349 0.8041 0.00647 0.0
C787 C 0.37534 0.81546 0.01839 0.0
C788 C 0.37318 0.78066 0.00286 0.0
C789 C 0.41134 0.80318 0.98588 0.0
C790 C 0.34871 0.77831 0.00019 0.0
C791 C 0.33852 0.75577 0.99867 0.0
C792 C 0.3526 0.73521 -2e-05 0.0
C793 C 0.37722 0.73768 0.00218 0.0
C794 C 0.3874 0.7602 0.00363 0.0
H795 H 0.42066 0.81648 0.97942 0.0
H796 H 0.42415 0.78877 0.98841 0.0
H797 H 0.39644 0.79536 0.97978 0.0
H798 H 0.33742 0.79391 -0.00032 0.0
H799 H 0.31948 0.75444 0.99701 0.0
H800 H 0.05845 0.58489 0.98043 0.0
H801 H 0.09077 0.60741 0.99145 0.0
H802 H 0.12962 0.60619 0.95333 0.0
H803 H 0.09703 0.58506 0.94213 0.0
H804 H 0.13358 0.59182 0.99597 0.0
H805 H 0.14228 0.67281 0.9647 0.0
H806 H 0.11629 0.65402 0.96356 0.0
H807 H 0.14227 0.64758 0.95345 0.0
C808 C 0.07357 0.59008 0.9743 0.0
C809 C 0.07526 0.583 0.96044 0.0
C810 C 0.09208 0.60285 0.98063 0.0
C811 C 0.11253 0.60882 0.97318 0.0
C812 C 0.11383 0.60242 0.95922 0.0
H813 H 0.25626 0.60113 0.99358 0.0
H814 H 0.21382 0.59654 0.98945 0.0
C815 C 0.09532 0.5899 0.95289 0.0
C816 C 0.13379 0.61894 0.98023 0.0
H817 H 0.17934 0.65799 0.97529 0.0
C818 C 0.14327 0.60669 0.99165 0.0
C819 C 0.14627 0.63871 0.97489 0.0
C820 C 0.13604 0.65416 0.96358 0.0
C821 C 0.16579 0.61235 0.99707 0.0
C822 C 0.17946 0.63022 0.99062 0.0
C823 C 0.16912 0.64388 0.98003 0.0
C824 C 0.20515 0.6333 0.99374 0.0
C825 C 0.17492 0.59865 0.00942 0.0
C826 C 0.2146 0.65572 0.99706 0.0
C827 C 0.2391 0.65853 0.99922 0.0
C828 C 0.25455 0.63895 0.99805 0.0
C829 C 0.24494 0.61657 0.9947 0.0
C830 C 0.22057 0.61385 0.99246 0.0
H831 H 0.16003 0.59291 0.01608 0.0
H832 H 0.18415 0.58237 0.00584 0.0
H833 H 0.18758 0.60938 0.0157 0.0
H834 H 0.20303 0.67103 0.99796 0.0
H835 H 0.24589 0.67602 0.00178 0.0
H836 H 0.42541 0.60911 0.19074 0.0
H837 H 0.40458 0.642 0.20186 0.0
H838 H 0.42177 0.61259 0.24182 0.0
H839 H 0.4426 0.57946 0.23073 0.0
H840 H 0.37397 0.63384 0.23897 0.0
H841 H 0.44748 0.69228 0.22156 0.0
H842 H 0.43315 0.67554 0.20805 0.0
H843 H 0.44958 0.66026 0.22136 0.0
C844 C 0.42448 0.60951 0.2019 0.0
C845 C 0.4359 0.59198 0.2099 0.0
C846 C 0.41255 0.62823 0.20822 0.0
C847 C 0.41201 0.62986 0.22264 0.0
C848 C 0.42205 0.6116 0.23067 0.0
H849 H 0.39813 0.76364 0.26513 0.0
H850 H 0.4093 0.7234 0.2585 0.0
C851 C 0.43391 0.59273 0.22433 0.0
C852 C 0.40315 0.65177 0.22923 0.0
H853 H 0.41459 0.71114 0.23181 0.0
C854 C 0.38283 0.65077 0.23748 0.0
C855 C 0.41503 0.67369 0.22742 0.0
C856 C 0.43764 0.67559 0.21922 0.0
C857 C 0.37375 0.67137 0.24374 0.0
C858 C 0.38523 0.69342 0.24153 0.0
C859 C 0.40577 0.69423 0.23346 0.0
C860 C 0.37653 0.71609 0.24738 0.0
C861 C 0.3522 0.66934 0.25278 0.0
C862 C 0.35413 0.72516 0.2436 0.0
C863 C 0.34759 0.74821 0.24746 0.0
C864 C 0.36352 0.76266 0.25498 0.0
C865 C 0.38552 0.75309 0.25923 0.0
C866 C 0.39192 0.73005 0.25548 0.0
H867 H 0.34951 0.6508 0.25642 0.0
H868 H 0.35378 0.68124 0.26188 0.0
H869 H 0.33617 0.67468 0.24677 0.0
H870 H 0.34217 0.71488 0.23711 0.0
H871 H 0.33057 0.75508 0.24397 0.0
H872 H 0.37976 0.97518 0.47183 0.0
H873 H 0.35061 0.94985 0.48309 0.0
H874 H 0.39681 0.88927 0.47823 0.0
H875 H 0.42582 0.91444 0.46647 0.0
H876 H 0.35221 0.88066 0.46883 0.0
H877 H 0.34704 0.92001 0.52086 0.0
H878 H 0.3436 0.94229 0.50777 0.0
H879 H 0.37126 0.92628 0.50933 0.0
C880 C 0.38381 0.95649 0.47323 0.0
C881 C 0.40504 0.94679 0.46818 0.0
C882 C 0.36727 0.9421 0.47986 0.0
C883 C 0.37171 0.91774 0.48173 0.0
C884 C 0.39316 0.90808 0.47703 0.0
H885 H 0.25905 0.81461 0.50276 0.0
H886 H 0.29941 0.83091 0.50091 0.0
C887 C 0.40975 0.9225 0.47037 0.0
C888 C 0.35277 0.90216 0.48721 0.0
H889 H 0.31218 0.8981 0.51303 0.0
C890 C 0.34382 0.88404 0.47866 0.0
C891 C 0.3419 0.90656 0.50005 0.0
C892 C 0.35163 0.92469 0.51008 0.0
C893 C 0.32324 0.87138 0.48213 0.0
C894 C 0.31151 0.87686 0.49456 0.0
C895 C 0.32121 0.89402 0.50348 0.0
C896 C 0.28769 0.86712 0.49753 0.0
C897 C 0.31331 0.85333 0.47209 0.0
C898 C 0.26791 0.88223 0.49672 0.0
C899 C 0.24498 0.87303 0.49774 0.0
C900 C 0.24139 0.84853 0.49968 0.0
C901 C 0.26127 0.83356 0.50123 0.0
C902 C 0.2843 0.8428 0.50013 0.0
H903 H 0.32296 0.85331 0.46215 0.0
H904 H 0.3147 0.83529 0.47667 0.0
H905 H 0.2942 0.85693 0.46995 0.0
H906 H 0.2702 0.90105 0.49473 0.0
H907 H 0.23003 0.88505 0.49659 0.0
H908 H 0.05451 0.9206 0.73124 0.0
H909 H 0.0733 0.88675 0.74304 0.0
H910 H 0.11449 0.87221 0.7067 0.0
H911 H 0.09504 0.90537 0.69478 0.0
H912 H 0.09131 0.83425 0.71464 0.0
H913 H 0.13723 0.87283 0.76029 0.0
H914 H 0.10634 0.88068 0.75917 0.0
H915 H 0.12646 0.89084 0.74613 0.0
C916 C 0.06799 0.91044 0.72595 0.0
C917 C 0.07335 0.91539 0.71213 0.0
C918 C 0.07881 0.89121 0.7327 0.0
C919 C 0.09548 0.87705 0.72581 0.0
C920 C 0.10169 0.88288 0.71223 0.0
H921 H 0.18185 0.75914 0.75346 0.0
H922 H 0.16593 0.79892 0.74887 0.0
C923 C 0.09062 0.90178 0.70542 0.0
C924 C 0.10434 0.85455 0.73198 0.0
H925 H 0.13321 0.8305 0.75987 0.0
C926 C 0.10057 0.8335 0.7245 0.0
C927 C 0.11649 0.85358 0.74483 0.0
C928 C 0.1221 0.87572 0.75302 0.0
C929 C 0.10868 0.81153 0.72942 0.0
C930 C 0.12014 0.81038 0.74248 0.0
C931 C 0.12405 0.83141 0.74998 0.0
C932 C 0.12919 0.78752 0.74801 0.0
C933 C 0.10548 0.78989 0.72036 0.0
C934 C 0.1137 0.76821 0.74977 0.0
C935 C 0.12275 0.74544 0.75215 0.0
C936 C 0.14741 0.74176 0.75313 0.0
C937 C 0.16276 0.76147 0.75271 0.0
C938 C 0.1537 0.78421 0.7501 0.0
H939 H 0.10222 0.79484 0.7094 0.0
H940 H 0.12137 0.77819 0.72087 0.0
H941 H 0.08988 0.77956 0.72391 0.0
H942 H 0.09467 0.77052 0.74854 0.0
H943 H 0.11051 0.7306 0.75261 0.0
H944 H 0.5831 0.42317 0.78532 0.0
H945 H 0.61523 0.39971 0.77511 0.0
H946 H 0.65906 0.46251 0.77321 0.0
H947 H 0.6271 0.48607 0.78326 0.0
H948 H 0.64535 0.40732 0.7493 0.0
H949 H 0.69358 0.41271 0.79957 0.0
H950 H 0.66206 0.41828 0.79788 0.0
H951 H 0.68305 0.44061 0.7928 0.0
C952 C 0.5994 0.43206 0.78244 0.0
C953 C 0.60273 0.45639 0.78526 0.0
C954 C 0.6177 0.41864 0.77663 0.0
C955 C 0.6395 0.4294 0.77357 0.0
C956 C 0.64239 0.4539 0.77565 0.0
H957 H 0.78188 0.39136 0.75507 0.0
H958 H 0.74357 0.41079 0.75822 0.0
C959 C 0.62418 0.46728 0.78145 0.0
C960 C 0.66008 0.41487 0.76941 0.0
H961 H 0.71491 0.39725 0.7807 0.0
C962 C 0.66053 0.40489 0.75615 0.0
C963 C 0.67966 0.41165 0.77847 0.0
C964 C 0.67961 0.42118 0.79303 0.0
C965 C 0.68067 0.39253 0.75151 0.0
C966 C 0.70055 0.39002 0.76045 0.0
C967 C 0.6997 0.39941 0.77383 0.0
C968 C 0.72292 0.3785 0.75617 0.0
C969 C 0.68093 0.38297 0.73699 0.0
C970 C 0.72392 0.35395 0.75362 0.0
C971 C 0.74589 0.34274 0.75177 0.0
C972 C 0.76711 0.35594 0.7526 0.0
C973 C 0.76587 0.38068 0.75447 0.0
C974 C 0.74399 0.39183 0.75625 0.0
H975 H 0.66598 0.39005 0.73063 0.0
H976 H 0.69796 0.38745 0.73192 0.0
H977 H 0.67941 0.3633 0.7373 0.0
H978 H 0.70787 0.34331 0.75373 0.0
H979 H 0.74633 0.32363 0.75039 0.0
H980 H 0.59705 0.0853 0.06116 0.0
H981 H 0.61435 0.12203 0.05226 0.0
H982 H 0.57687 0.11195 0.01367 0.0
H983 H 0.56003 0.07474 0.02233 0.0
H984 H 0.62507 0.12924 0.01113 0.0
H985 H 0.57112 0.18125 0.04823 0.0
H986 H 0.58977 0.15865 0.05574 0.0
H987 H 0.56543 0.15028 0.04461 0.0
C988 C 0.5929 0.09057 0.05067 0.0
C989 C 0.57699 0.07718 0.04248 0.0
C990 C 0.60265 0.11168 0.04565 0.0
C991 C 0.59659 0.11983 0.0324 0.0
C992 C 0.58166 0.10598 0.02396 0.0
H993 H 0.59385 0.26171 0.00086 0.0
H994 H 0.58641 0.22072 0.00765 0.0
C995 C 0.57191 0.08484 0.02896 0.0
C996 C 0.60437 0.1436 0.0277 0.0
H997 H 0.59712 0.20282 0.03405 0.0
C998 C 0.6191 0.14536 0.01615 0.0
C999 C 0.59627 0.16455 0.03422 0.0
C1000 C 0.57962 0.16374 0.04632 0.0
C1001 C 0.62593 0.16763 0.01092 0.0
C1002 C 0.6179 0.18853 0.0175 0.0
C1003 C 0.60332 0.18672 0.02909 0.0
C1004 C 0.62326 0.21261 0.01218 0.0
C1005 C 0.64106 0.16869 0.99819 0.0
C1006 C 0.64656 0.22156 0.01233 0.0
C1007 C 0.65095 0.24513 0.00843 0.0
C1008 C 0.63205 0.26014 0.00443 0.0
C1009 C 0.60884 0.25079 0.00397 0.0
C1010 C 0.60451 0.22732 0.00783 0.0
H1011 H 0.64192 0.15123 0.99286 0.0
H1012 H 0.63406 0.1822 0.99085 0.0
H1013 H 0.65943 0.17397 0.00118 0.0
H1014 H 0.66122 0.21057 0.01586 0.0
H1015 H 0.66902 0.25175 0.00895 0.0
H1016 H 0.93928 0.10818 0.28306 0.0
H1017 H 0.90394 0.12919 0.27414 0.0
H1018 H 0.8593 0.07238 0.28877 0.0
H1019 H 0.89429 0.05143 0.29769 0.0
H1020 H 0.86677 0.1081 0.25449 0.0
H1021 H 0.83252 0.13718 0.30527 0.0
H1022 H 0.86342 0.12991 0.30251 0.0
H1023 H 0.84185 0.10662 0.30447 0.0
C1024 C 0.92189 0.10027 0.28438 0.0
C1025 C 0.91949 0.07815 0.291 0.0
C1026 C 0.90181 0.11222 0.27927 0.0
C1027 C 0.87912 0.10236 0.28094 0.0
C1028 C 0.87671 0.08031 0.28751 0.0
H1029 H 0.74145 0.10555 0.2474 0.0
H1030 H 0.78316 0.09936 0.25346 0.0
C1031 C 0.8967 0.06829 0.29248 0.0
C1032 C 0.8577 0.11464 0.27567 0.0
H1033 H 0.80499 0.13781 0.28632 0.0
C1034 C 0.85341 0.11503 0.2614 0.0
C1035 C 0.84052 0.12387 0.28473 0.0
C1036 C 0.8448 0.12462 0.30011 0.0
C1037 C 0.8316 0.1231 0.256 0.0
C1038 C 0.81375 0.13074 0.26515 0.0
C1039 C 0.81868 0.13179 0.27935 0.0
C1040 C 0.78915 0.13546 0.26039 0.0
C1041 C 0.82758 0.12277 0.2406 0.0
C1042 C 0.77865 0.15779 0.26241 0.0
C1043 C 0.75471 0.16143 0.25896 0.0
C1044 C 0.74081 0.14266 0.25364 0.0
C1045 C 0.75156 0.12039 0.2515 0.0
C1046 C 0.77548 0.11685 0.25484 0.0
H1047 H 0.84466 0.12327 0.23496 0.0
H1048 H 0.81818 0.10612 0.23769 0.0
H1049 H 0.81643 0.13805 0.23723 0.0
H1050 H 0.78891 0.17228 0.26681 0.0
H1051 H 0.74697 0.17877 0.26078 0.0
H1052 H 0.95215 0.41715 0.51999 0.0
H1053 H 0.93154 0.38374 0.50877 0.0
H1054 H 0.89165 0.37161 0.5459 0.0
H1055 H 0.91291 0.40429 0.55723 0.0
H1056 H 0.91288 0.33266 0.53795 0.0
H1057 H 0.86639 0.37175 0.49265 0.0
H1058 H 0.89757 0.3785 0.49319 0.0
H1059 H 0.8785 0.38972 0.50647 0.0
C1060 C 0.93859 0.4076 0.52559 0.0
C1061 C 0.9341 0.41307 0.53944 0.0
C1062 C 0.92672 0.38865 0.51917 0.0
C1063 C 0.90987 0.37529 0.52645 0.0
C1064 C 0.90457 0.38166 0.54008 0.0
H1065 H 0.81958 0.25843 0.50056 0.0
H1066 H 0.83606 0.29812 0.50491 0.0
C1067 C 0.91668 0.40027 0.54654 0.0
C1068 C 0.89987 0.353 0.52061 0.0
H1069 H 0.86917 0.32928 0.49327 0.0
C1070 C 0.90321 0.332 0.52821 0.0
C1071 C 0.88716 0.35214 0.50794 0.0
C1072 C 0.88197 0.37427 0.49965 0.0
C1073 C 0.89422 0.31021 0.52356 0.0
C1074 C 0.88228 0.30914 0.51065 0.0
C1075 C 0.8787 0.33012 0.50305 0.0
C1076 C 0.87271 0.28637 0.5053 0.0
C1077 C 0.89713 0.28864 0.53272 0.0
C1078 C 0.88793 0.26691 0.50337 0.0
C1079 C 0.87857 0.24424 0.50113 0.0
C1080 C 0.85386 0.24077 0.50046 0.0
C1081 C 0.83871 0.26061 0.50107 0.0
C1082 C 0.84809 0.28328 0.50354 0.0
H1083 H 0.90081 0.2937 0.54361 0.0
H1084 H 0.88096 0.27731 0.53241 0.0
H1085 H 0.91238 0.27789 0.52909 0.0
H1086 H 0.90702 0.26905 0.50435 0.0
H1087 H 0.89066 0.22929 0.5005 0.0
H1088 H 0.60194 0.04347 0.46143 0.0
H1089 H 0.63762 0.06114 0.47158 0.0
H1090 H 0.60106 0.12798 0.47615 0.0
H1091 H 0.56476 0.11023 0.4664 0.0
H1092 H 0.64831 0.12822 0.46215 0.0
H1093 H 0.6487 0.08256 0.51292 0.0
H1094 H 0.64314 0.06361 0.4983 0.0
H1095 H 0.62202 0.08633 0.50258 0.0
C1096 C 0.60121 0.06178 0.46486 0.0
C1097 C 0.58036 0.07536 0.46319 0.0
C1098 C 0.62169 0.07186 0.4706 0.0
C1099 C 0.62181 0.09573 0.47473 0.0
C1100 C 0.60118 0.10947 0.47306 0.0
H1101 H 0.75115 0.17473 0.49878 0.0
H1102 H 0.70949 0.16599 0.49325 0.0
C1103 C 0.58055 0.09932 0.46741 0.0
C1104 C 0.64401 0.10637 0.48016 0.0
H1105 H 0.68504 0.10071 0.5061 0.0
C1106 C 0.65625 0.1226 0.47187 0.0
C1107 C 0.65416 0.09887 0.49281 0.0
C1108 C 0.64128 0.08203 0.50226 0.0
C1109 C 0.67913 0.13053 0.47554 0.0
C1110 C 0.68969 0.12233 0.48798 0.0
C1111 C 0.67693 0.1069 0.49655 0.0
C1112 C 0.71463 0.12794 0.49177 0.0
C1113 C 0.69228 0.14654 0.46573 0.0
C1114 C 0.73116 0.1094 0.49313 0.0
C1115 C 0.75487 0.11426 0.49642 0.0
C1116 C 0.76259 0.13783 0.49839 0.0
C1117 C 0.74589 0.15639 0.4972 0.0
C1118 C 0.72208 0.15146 0.49399 0.0
H1119 H 0.68368 0.14707 0.45536 0.0
H1120 H 0.69255 0.1649 0.4699 0.0
H1121 H 0.71098 0.14057 0.46456 0.0
H1122 H 0.72575 0.09111 0.49149 0.0
H1123 H 0.76716 0.0995 0.49728 0.0
H1124 H 0.90487 0.06157 0.71821 0.0
H1125 H 0.88204 0.09481 0.72787 0.0
H1126 H 0.93557 0.14398 0.71405 0.0
H1127 H 0.95828 0.1111 0.70433 0.0
H1128 H 0.89969 0.13071 0.74819 0.0
H1129 H 0.87029 0.16922 0.69817 0.0
H1130 H 0.87987 0.13868 0.69998 0.0
H1131 H 0.90145 0.1622 0.69908 0.0
C1132 C 0.91167 0.0795 0.71721 0.0
C1133 C 0.93337 0.08377 0.71056 0.0
C1134 C 0.89868 0.09839 0.72275 0.0
C1135 C 0.90705 0.12178 0.72151 0.0
C1136 C 0.92873 0.12604 0.71496 0.0
H1137 H 0.89919 0.25465 0.75895 0.0
H1138 H 0.90558 0.21332 0.75253 0.0
C1139 C 0.94178 0.10723 0.70954 0.0
C1140 C 0.8936 0.142 0.72723 0.0
H1141 H 0.86872 0.19494 0.71784 0.0
C1142 C 0.89247 0.14457 0.74159 0.0
C1143 C 0.8839 0.15982 0.71857 0.0
C1144 C 0.88369 0.15732 0.70308 0.0
C1145 C 0.88334 0.16538 0.74752 0.0
C1146 C 0.87539 0.18403 0.73883 0.0
C1147 C 0.87497 0.18069 0.72449 0.0
C1148 C 0.8701 0.20805 0.74422 0.0
C1149 C 0.88292 0.16754 0.76302 0.0
C1150 C 0.84801 0.21886 0.74163 0.0
C1151 C 0.84427 0.24265 0.74527 0.0
C1152 C 0.86273 0.25607 0.75135 0.0
C1153 C 0.8846 0.2449 0.75425 0.0
C1154 C 0.88824 0.22117 0.7507 0.0
H1155 H 0.88209 0.14977 0.76801 0.0
H1156 H 0.89948 0.17641 0.76663 0.0
H1157 H 0.86753 0.17832 0.76643 0.0
H1158 H 0.83388 0.20907 0.7365 0.0
H1159 H 0.82724 0.25073 0.74286 0.0
H1160 H 0.8771 0.47262 0.9626 0.0
H1161 H 0.84331 0.45179 0.9725 0.0
H1162 H 0.88925 0.39404 0.98487 0.0
H1163 H 0.92347 0.41519 0.97536 0.0
H1164 H 0.82829 0.40688 0.96342 0.0
H1165 H 0.84929 0.40647 0.01965 0.0
H1166 H 0.86343 0.42664 0.00778 0.0
H1167 H 0.87235 0.39602 0.00847 0.0
C1168 C 0.8802 0.45579 0.96774 0.0
C1169 C 0.90304 0.44562 0.96822 0.0
C1170 C 0.86081 0.44383 0.97331 0.0
C1171 C 0.86381 0.42149 0.97952 0.0
C1172 C 0.88662 0.41144 0.98031 0.0
H1173 H 0.75127 0.32241 0.00415 0.0
H1174 H 0.79068 0.33991 0.00027 0.0
C1175 C 0.90609 0.42343 0.97473 0.0
C1176 C 0.84265 0.40809 0.98409 0.0
H1177 H 0.81457 0.38591 0.01242 0.0
C1178 C 0.82535 0.40224 0.97413 0.0
C1179 C 0.83898 0.40188 0.99805 0.0
C1180 C 0.85687 0.40818 0.00916 0.0
C1181 C 0.80425 0.39072 0.97777 0.0
C1182 C 0.80024 0.38515 0.99176 0.0
C1183 C 0.81778 0.39031 0.00171 0.0
C1184 C 0.7772 0.37523 0.99613 0.0
C1185 C 0.78622 0.3848 0.96664 0.0
C1186 C 0.75683 0.38954 0.9955 0.0
C1187 C 0.73443 0.37968 0.99767 0.0
C1188 C 0.732 0.3553 0.00054 0.0
C1189 C 0.75259 0.34124 0.00194 0.0
C1190 C 0.77508 0.35118 -0.00025 0.0
H1191 H 0.79402 0.38571 0.95618 0.0
H1192 H 0.77878 0.36672 0.96824 0.0
H1193 H 0.77132 0.39771 0.96709 0.0
H1194 H 0.7582 0.40819 0.9928 0.0
H1195 H 0.71896 0.39103 0.99661 0.0
H1196 H 0.59734 0.41321 0.20153 0.0
H1197 H 0.61357 0.37706 0.21185 0.0
H1198 H 0.56489 0.38347 0.24568 0.0
H1199 H 0.54916 0.42037 0.23574 0.0
H1200 H 0.61094 0.36814 0.25377 0.0
H1201 H 0.57461 0.31551 0.20998 0.0
H1202 H 0.5938 0.33928 0.20473 0.0
H1203 H 0.56616 0.34599 0.21305 0.0
C1204 C 0.59043 0.40732 0.21134 0.0
C1205 C 0.57178 0.41962 0.21775 0.0
C1206 C 0.59956 0.38648 0.21714 0.0
C1207 C 0.59007 0.37737 0.22936 0.0
C1208 C 0.5723 0.39014 0.23616 0.0
H1209 H 0.60813 0.22802 0.24907 0.0
H1210 H 0.59097 0.26767 0.24632 0.0
C1211 C 0.56321 0.4111 0.23041 0.0
C1212 C 0.59779 0.35383 0.23455 0.0
H1213 H 0.60117 0.2955 0.22523 0.0
C1214 C 0.6087 0.35218 0.24761 0.0
C1215 C 0.59436 0.33302 0.22659 0.0
C1216 C 0.58138 0.33341 0.21287 0.0
C1217 C 0.617 0.33028 0.25273 0.0
C1218 C 0.61463 0.30967 0.24444 0.0
C1219 C 0.6031 0.31131 0.23156 0.0
C1220 C 0.62451 0.28625 0.24856 0.0
C1221 C 0.62802 0.3294 0.26697 0.0
C1222 C 0.64899 0.28354 0.2511 0.0
C1223 C 0.65881 0.26088 0.25283 0.0
C1224 C 0.64435 0.24055 0.2518 0.0
C1225 C 0.61973 0.24336 0.24986 0.0
C1226 C 0.6099 0.266 0.24829 0.0
H1227 H 0.62167 0.34431 0.27348 0.0
H1228 H 0.62397 0.31235 0.27222 0.0
H1229 H 0.64761 0.33106 0.26612 0.0
H1230 H 0.66072 0.29882 0.25104 0.0
H1231 H 0.67788 0.25925 0.25423 0.0
H1232 H 0.09938 0.91594 0.35393 0.0
H1233 H 0.11794 0.88904 0.37093 0.0
H1234 H 0.07826 0.92257 0.40336 0.0
H1235 H 0.05979 0.94946 0.38654 0.0
H1236 H 0.14402 0.90723 0.39739 0.0
H1237 H 0.06742 0.84654 0.40568 0.0
H1238 H 0.07126 0.86318 0.38989 0.0
H1239 H 0.06073 0.87783 0.40509 0.0
C1240 C 0.09456 0.91743 0.36468 0.0
C1241 C 0.07827 0.93484 0.36895 0.0
C1242 C 0.10517 0.90213 0.37434 0.0
C1243 C 0.09926 0.90379 0.38832 0.0
C1244 C 0.08286 0.92097 0.39257 0.0
H1245 H 0.15293 0.87359 0.4673 0.0
H1246 H 0.1402 0.88922 0.44486 0.0
C1247 C 0.0725 0.9364 0.38299 0.0
C1248 C 0.11082 0.88836 0.39872 0.0
H1249 H 0.09881 0.84515 0.4223 0.0
C1250 C 0.13431 0.89341 0.40273 0.0
C1251 C 0.09812 0.87024 0.40552 0.0
C1252 C 0.07302 0.8639 0.40131 0.0
C1253 C 0.14495 0.8817 0.41398 0.0
C1254 C 0.13168 0.86466 0.42136 0.0
C1255 C 0.10879 0.85847 0.41674 0.0
C1256 C 0.14026 0.85495 0.43468 0.0
C1257 C 0.17009 0.8881 0.41812 0.0
C1258 C 0.14417 0.83046 0.43642 0.0
C1259 C 0.15138 0.82152 0.44928 0.0
C1260 C 0.15396 0.8369 0.46059 0.0
C1261 C 0.15042 0.86138 0.45876 0.0
C1262 C 0.14347 0.87032 0.44594 0.0
H1263 H 0.18 0.89583 0.40934 0.0
H1264 H 0.16964 0.90157 0.42647 0.0
H1265 H 0.17988 0.87229 0.42203 0.0
H1266 H 0.14166 0.81834 0.42784 0.0
H1267 H 0.15448 0.80261 0.45048 0.0
H1268 H 0.08804 0.59816 0.60532 0.0
H1269 H 0.11013 0.62249 0.62215 0.0
H1270 H 0.09399 0.57189 0.6541 0.0
H1271 H 0.0714 0.54795 0.63761 0.0
H1272 H 0.09181 0.64156 0.6488 0.0
H1273 H 0.1686 0.58036 0.65472 0.0
H1274 H 0.14892 0.57979 0.63985 0.0
H1275 H 0.14009 0.56607 0.65574 0.0
C1276 C 0.08905 0.59231 0.61595 0.0
C1277 C 0.07815 0.57095 0.62007 0.0
C1278 C 0.10177 0.60616 0.62551 0.0
C1279 C 0.10395 0.59871 0.63927 0.0
C1280 C 0.09287 0.57764 0.64344 0.0
H1281 H 0.12476 0.65452 0.71841 0.0
H1282 H 0.11097 0.64252 0.69546 0.0
C1283 C 0.08006 0.56393 0.63397 0.0
C1284 C 0.11727 0.61299 0.64954 0.0
H1285 H 0.16329 0.60909 0.67255 0.0
C1286 C 0.10765 0.63469 0.65389 0.0
C1287 C 0.13815 0.60417 0.65595 0.0
C1288 C 0.14973 0.58142 0.65126 0.0
C1289 C 0.11746 0.64697 0.66521 0.0
C1290 C 0.13718 0.63708 0.67237 0.0
C1291 C 0.14789 0.61639 0.66727 0.0
C1292 C 0.14541 0.64632 0.68591 0.0
C1293 C 0.10631 0.67015 0.66954 0.0
C1294 C 0.16946 0.65201 0.68826 0.0
C1295 C 0.1774 0.6585 0.70147 0.0
C1296 C 0.16152 0.65871 0.71251 0.0
C1297 C 0.13741 0.65379 0.71007 0.0
C1298 C 0.12946 0.64738 0.69692 0.0
H1299 H 0.09792 0.67936 0.66059 0.0
H1300 H 0.09214 0.66649 0.67713 0.0
H1301 H 0.11961 0.68224 0.67437 0.0
H1302 H 0.18209 0.65115 0.67992 0.0
H1303 H 0.19601 0.66273 0.70314 0.0
H1304 H 0.45381 0.62142 0.86509 0.0
H1305 H 0.42974 0.6403 0.88294 0.0
H1306 H 0.39507 0.57328 0.89077 0.0
H1307 H 0.41873 0.55445 0.87281 0.0
H1308 H 0.36378 0.61078 0.89109 0.0
H1309 H 0.44352 0.6305 0.92362 0.0
H1310 H 0.44383 0.64326 0.90666 0.0
H1311 H 0.44479 0.61149 0.90868 0.0
C1312 C 0.44096 0.61077 0.87059 0.0
C1313 C 0.43826 0.58643 0.86764 0.0
C1314 C 0.42728 0.62155 0.88079 0.0
C1315 C 0.41096 0.60808 0.88837 0.0
C1316 C 0.4076 0.584 0.88506 0.0
H1317 H 0.33387 0.60511 0.962 0.0
H1318 H 0.34986 0.60034 0.93891 0.0
C1319 C 0.42109 0.57327 0.87479 0.0
C1320 C 0.39806 0.61857 0.90016 0.0
H1321 H 0.40641 0.64137 0.9325 0.0
C1322 C 0.37309 0.6177 0.90009 0.0
C1323 C 0.41025 0.62764 0.91189 0.0
C1324 C 0.43706 0.62815 0.91284 0.0
C1325 C 0.36003 0.625 0.91159 0.0
C1326 C 0.37227 0.63324 0.92346 0.0
C1327 C 0.39712 0.63515 0.92332 0.0
C1328 C 0.36 0.63724 0.93667 0.0
C1329 C 0.33327 0.62338 0.91108 0.0
C1330 C 0.36038 0.65963 0.94307 0.0
C1331 C 0.35113 0.66247 0.95632 0.0
C1332 C 0.34182 0.64283 0.96345 0.0
C1333 C 0.34098 0.62059 0.95682 0.0
C1334 C 0.34994 0.61785 0.94357 0.0
H1335 H 0.3264 0.62326 0.90029 0.0
H1336 H 0.32761 0.6066 0.9161 0.0
H1337 H 0.32506 0.63845 0.9167 0.0
H1338 H 0.36831 0.67474 0.93794 0.0
H1339 H 0.35216 0.67979 0.96118 0.0
H1340 H 0.46123 0.88593 0.12428 0.0
H1341 H 0.43802 0.87011 0.14333 0.0
H1342 H 0.38703 0.92678 0.13812 0.0
H1343 H 0.41066 0.94329 0.11941 0.0
H1344 H 0.40275 0.92362 0.16425 0.0
H1345 H 0.37609 0.83405 0.14636 0.0
H1346 H 0.40748 0.83879 0.14473 0.0
H1347 H 0.38697 0.8566 0.13475 0.0
C1348 C 0.44496 0.89492 0.1271 0.0
C1349 C 0.43789 0.91596 0.12036 0.0
C1350 C 0.43151 0.88565 0.13787 0.0
C1351 C 0.41059 0.89707 0.14204 0.0
C1352 C 0.40301 0.91756 0.135 0.0
H1353 H 0.32848 0.84289 0.21245 0.0
H1354 H 0.33842 0.8565 0.18917 0.0
C1355 C 0.41648 0.92689 0.12424 0.0
C1356 C 0.39832 0.88925 0.15472 0.0
H1357 H 0.37583 0.84044 0.17103 0.0
C1358 C 0.39649 0.90553 0.16563 0.0
C1359 C 0.38988 0.86574 0.1565 0.0
C1360 C 0.38996 0.84787 0.1449 0.0
C1361 C 0.38765 0.89862 0.17848 0.0
C1362 C 0.38083 0.8747 0.18054 0.0
C1363 C 0.38138 0.85871 0.16945 0.0
C1364 C 0.37474 0.86575 0.19441 0.0
C1365 C 0.38612 0.9169 0.18983 0.0
C1366 C 0.39202 0.86603 0.20494 0.0
C1367 C 0.38648 0.8583 0.21818 0.0
C1368 C 0.3635 0.84999 0.2212 0.0
C1369 C 0.34631 0.84925 0.21052 0.0
C1370 C 0.35194 0.85698 0.19722 0.0
H1371 H 0.3854 0.93527 0.18562 0.0
H1372 H 0.3702 0.91389 0.19628 0.0
H1373 H 0.40214 0.91551 0.19656 0.0
H1374 H 0.40984 0.87235 0.20291 0.0
H1375 H 0.40024 0.85906 0.22607 0.0
H1376 H 0.0788 0.59461 0.89394 0.0
H1377 H 0.09951 0.61687 0.87586 0.0
H1378 H 0.06523 0.57364 0.84476 0.0
H1379 H 0.04443 0.55152 0.86267 0.0
H1380 H 0.1305 0.59639 0.85497 0.0
H1381 H 0.05283 0.64381 0.83244 0.0
H1382 H 0.0528 0.63135 0.84963 0.0
H1383 H 0.0481 0.61249 0.83488 0.0
C1384 C 0.07556 0.59003 0.88323 0.0
C1385 C 0.06005 0.5713 0.8797 0.0
C1386 C 0.08742 0.60269 0.87295 0.0
C1387 C 0.08362 0.59706 0.859 0.0
C1388 C 0.06812 0.57845 0.85547 0.0
H1389 H 0.15427 0.604 0.7838 0.0
H1390 H 0.13857 0.59587 0.80662 0.0
C1391 C 0.05645 0.56568 0.86571 0.0
C1392 C 0.09654 0.60976 0.84803 0.0
H1393 H 0.08747 0.64114 0.81831 0.0
C1394 C 0.1212 0.60656 0.84708 0.0
C1395 C 0.0844 0.62328 0.83787 0.0
C1396 C 0.05809 0.62817 0.83878 0.0
C1397 C 0.1338 0.61523 0.83572 0.0
C1398 C 0.12133 0.62723 0.82506 0.0
C1399 C 0.09695 0.63179 0.82647 0.0
C1400 C 0.13262 0.63281 0.81174 0.0
C1401 C 0.16022 0.61088 0.835 0.0
C1402 C 0.1343 0.65633 0.807 0.0
C1403 C 0.14336 0.66111 0.79389 0.0
C1404 C 0.15046 0.64236 0.78524 0.0
C1405 C 0.14893 0.61887 0.79015 0.0
C1406 C 0.14012 0.61417 0.80325 0.0
H1407 H 0.16811 0.60791 0.84542 0.0
H1408 H 0.16349 0.59473 0.82873 0.0
H1409 H 0.16942 0.62608 0.83006 0.0
H1410 H 0.12836 0.67093 0.81339 0.0
H1411 H 0.14419 0.67938 0.7904 0.0
H1412 H 0.46906 0.5697 0.11225 0.0
H1413 H 0.44486 0.58929 0.09458 0.0
H1414 H 0.39425 0.6102 0.12537 0.0
H1415 H 0.41864 0.59098 0.14325 0.0
H1416 H 0.37413 0.58756 0.1019 0.0
H1417 H 0.43456 0.66074 0.08704 0.0
H1418 H 0.44873 0.63213 0.08731 0.0
H1419 H 0.43778 0.64466 0.10308 0.0
C1420 C 0.45307 0.5789 0.11535 0.0
C1421 C 0.44586 0.57884 0.1292 0.0
C1422 C 0.43924 0.59007 0.10522 0.0
C1423 C 0.41797 0.60147 0.10871 0.0
C1424 C 0.4107 0.60159 0.1225 0.0
H1425 H 0.30943 0.65402 0.0493 0.0
H1426 H 0.32895 0.64269 0.07115 0.0
C1427 C 0.42459 0.59048 0.13267 0.0
C1428 C 0.4027 0.61187 0.09775 0.0
H1429 H 0.40328 0.65132 0.07106 0.0
C1430 C 0.38029 0.60172 0.09524 0.0
C1431 C 0.41078 0.63043 0.08918 0.0
C1432 C 0.43418 0.64281 0.09185 0.0
C1433 C 0.36632 0.60862 0.08383 0.0
C1434 C 0.37488 0.62646 0.07483 0.0
C1435 C 0.39681 0.63742 0.07781 0.0
C1436 C 0.36239 0.633 0.06178 0.0
C1437 C 0.34313 0.59587 0.08122 0.0
C1438 C 0.37483 0.63207 0.04932 0.0
C1439 C 0.3639 0.63904 0.037 0.0
C1440 C 0.34007 0.64634 0.03677 0.0
C1441 C 0.32761 0.64765 0.04921 0.0
C1442 C 0.3387 0.64105 0.06164 0.0
H1443 H 0.34246 0.57846 0.08662 0.0
H1444 H 0.32829 0.60696 0.08505 0.0
H1445 H 0.3403 0.59281 0.07007 0.0
H1446 H 0.39316 0.62616 0.04913 0.0
H1447 H 0.37424 0.63906 0.02764 0.0
H1448 H 0.39729 0.92013 0.4 0.0
H1449 H 0.37742 0.89429 0.38305 0.0
H1450 H 0.39494 0.94355 0.35066 0.0
H1451 H 0.41537 0.96908 0.36733 0.0
H1452 H 0.34395 0.92522 0.35237 0.0
H1453 H 0.41496 0.85598 0.35184 0.0
H1454 H 0.40418 0.86649 0.36819 0.0
H1455 H 0.42096 0.88605 0.35742 0.0
C1456 C 0.39703 0.92541 0.38926 0.0
C1457 C 0.40793 0.94672 0.38503 0.0
C1458 C 0.3856 0.91067 0.37962 0.0
C1459 C 0.38486 0.91705 0.36565 0.0
C1460 C 0.3953 0.93843 0.36144 0.0
H1461 H 0.34367 0.88048 0.2852 0.0
H1462 H 0.35228 0.89826 0.30766 0.0
C1463 C 0.40682 0.95307 0.37101 0.0
C1464 C 0.37359 0.90145 0.35523 0.0
H1465 H 0.38392 0.85225 0.33565 0.0
C1466 C 0.35249 0.90909 0.3488 0.0
C1467 C 0.38467 0.88031 0.35076 0.0
C1468 C 0.4075 0.8716 0.35732 0.0
C1469 C 0.34268 0.89663 0.33758 0.0
C1470 C 0.35464 0.87637 0.33249 0.0
C1471 C 0.37493 0.86791 0.33948 0.0
C1472 C 0.34808 0.86544 0.31909 0.0
C1473 C 0.31981 0.90554 0.33116 0.0
C1474 C 0.34338 0.84096 0.31799 0.0
C1475 C 0.33879 0.83071 0.30506 0.0
C1476 C 0.33957 0.84475 0.29312 0.0
C1477 C 0.34364 0.86925 0.29428 0.0
C1478 C 0.34815 0.87946 0.30712 0.0
H1479 H 0.30875 0.9149 0.33888 0.0
H1480 H 0.324 0.91847 0.32289 0.0
H1481 H 0.30923 0.89078 0.32659 0.0
H1482 H 0.34338 0.82981 0.3271 0.0
H1483 H 0.33523 0.81182 0.30435 0.0
H1484 H 0.10035 0.91601 0.64319 0.0
H1485 H 0.12486 0.89607 0.62581 0.0
H1486 H 0.08652 0.93292 0.59351 0.0
H1487 H 0.06229 0.95293 0.61071 0.0
H1488 H 0.10689 0.86632 0.60454 0.0
H1489 H 0.1566 0.94233 0.58296 0.0
H1490 H 0.14251 0.94346 0.59962 0.0
H1491 H 0.12532 0.94828 0.5841 0.0
C1492 C 0.09746 0.92008 0.63238 0.0
C1493 C 0.07936 0.93591 0.62828 0.0
C1494 C 0.11141 0.90868 0.62249 0.0
C1495 C 0.10772 0.91331 0.6084 0.0
C1496 C 0.08996 0.92944 0.60434 0.0
H1497 H 0.10802 0.84341 0.53366 0.0
H1498 H 0.10304 0.85869 0.55692 0.0
C1499 C 0.07595 0.94065 0.61417 0.0
C1500 C 0.12081 0.89998 0.59774 0.0
H1501 H 0.15146 0.90825 0.56795 0.0
C1502 C 0.11715 0.87536 0.59671 0.0
C1503 C 0.13449 0.91173 0.58765 0.0
C1504 C 0.14019 0.93788 0.5887 0.0
C1505 C 0.12512 0.86255 0.58524 0.0
C1506 C 0.13684 0.87476 0.57453 0.0
C1507 C 0.14225 0.89896 0.57611 0.0
C1508 C 0.14065 0.86361 0.56091 0.0
C1509 C 0.1201 0.83624 0.5844 0.0
C1510 C 0.1635 0.86152 0.55536 0.0
C1511 C 0.16647 0.8527 0.54197 0.0
C1512 C 0.14655 0.84629 0.53386 0.0
C1513 C 0.12375 0.84823 0.53957 0.0
C1514 C 0.12086 0.85677 0.55294 0.0
H1515 H 0.11814 0.82834 0.59483 0.0
H1516 H 0.10316 0.83339 0.57865 0.0
H1517 H 0.13447 0.82673 0.5789 0.0
H1518 H 0.17897 0.86696 0.56133 0.0
H1519 H 0.18425 0.85155 0.53785 0.0
H1520 H 0.5547 0.41715 0.86609 0.0
H1521 H 0.56961 0.39146 0.8846 0.0
H1522 H 0.62909 0.43866 0.89111 0.0
H1523 H 0.61463 0.46425 0.87235 0.0
H1524 H 0.63966 0.38709 0.89262 0.0
H1525 H 0.56426 0.41659 0.92512 0.0
H1526 H 0.55643 0.40501 0.9084 0.0
H1527 H 0.5729 0.43228 0.90972 0.0
C1528 C 0.57127 0.4218 0.87122 0.0
C1529 C 0.58341 0.44284 0.86781 0.0
C1530 C 0.57965 0.40718 0.88185 0.0
C1531 C 0.60027 0.41335 0.88928 0.0
C1532 C 0.6131 0.43367 0.88549 0.0
H1533 H 0.6406 0.37808 0.97228 0.0
H1534 H 0.6285 0.39633 0.95044 0.0
C1535 C 0.60472 0.44834 0.87486 0.0
C1536 C 0.60733 0.39977 0.90172 0.0
H1537 H 0.59045 0.38854 0.93467 0.0
C1538 C 0.62884 0.38713 0.90181 0.0
C1539 C 0.59332 0.40027 0.91371 0.0
C1540 C 0.57052 0.41439 0.91437 0.0
C1541 C 0.6367 0.37487 0.91365 0.0
C1542 C 0.62247 0.37511 0.92561 0.0
C1543 C 0.60105 0.38788 0.92545 0.0
C1544 C 0.63001 0.3636 0.93872 0.0
C1545 C 0.66053 0.36256 0.91341 0.0
C1546 C 0.63469 0.33906 0.93944 0.0
C1547 C 0.64171 0.32863 0.95196 0.0
C1548 C 0.64337 0.34248 0.96396 0.0
C1549 C 0.63874 0.36695 0.96321 0.0
C1550 C 0.63199 0.37739 0.95074 0.0
H1551 H 0.67172 0.36908 0.90483 0.0
H1552 H 0.67037 0.36523 0.92328 0.0
H1553 H 0.65775 0.34319 0.91193 0.0
H1554 H 0.63281 0.32798 0.93036 0.0
H1555 H 0.64553 0.30975 0.95233 0.0
H1556 H 0.58989 0.08904 0.10622 0.0
H1557 H 0.61108 0.11415 0.12301 0.0
H1558 H 0.59956 0.06157 0.1546 0.0
H1559 H 0.57793 0.03673 0.13811 0.0
H1560 H 0.59304 0.13201 0.14899 0.0
H1561 H 0.67251 0.07472 0.15579 0.0
H1562 H 0.65262 0.07223 0.14109 0.0
H1563 H 0.64489 0.05896 0.15731 0.0
C1564 C 0.59177 0.08288 0.11676 0.0
C1565 C 0.58237 0.06076 0.12079 0.0
C1566 C 0.60399 0.09718 0.1263 0.0
C1567 C 0.60719 0.08948 0.13995 0.0
C1568 C 0.59771 0.06756 0.14402 0.0
H1569 H 0.62532 0.15045 0.21833 0.0
H1570 H 0.61201 0.13639 0.19569 0.0
C1571 C 0.58541 0.05335 0.13456 0.0
C1572 C 0.61965 0.10453 0.15022 0.0
H1573 H 0.66565 0.10366 0.17337 0.0
C1574 C 0.6091 0.126 0.15423 0.0
C1575 C 0.64084 0.09689 0.15682 0.0
C1576 C 0.65355 0.07455 0.15246 0.0
C1577 C 0.61831 0.13921 0.16535 0.0
C1578 C 0.6384 0.13051 0.17269 0.0
C1579 C 0.64996 0.11003 0.16796 0.0
C1580 C 0.64628 0.14089 0.18602 0.0
C1581 C 0.60621 0.16214 0.16925 0.0
C1582 C 0.67008 0.14768 0.18822 0.0
C1583 C 0.67776 0.15536 0.20126 0.0
C1584 C 0.66188 0.15569 0.21231 0.0
C1585 C 0.63799 0.14966 0.21 0.0
C1586 C 0.6303 0.14207 0.19702 0.0
H1587 H 0.59747 0.17052 0.16014 0.0
H1588 H 0.59219 0.15832 0.1769 0.0
H1589 H 0.61898 0.17502 0.17386 0.0
H1590 H 0.68273 0.14678 0.1799 0.0
H1591 H 0.69619 0.16041 0.20282 0.0
H1592 H 0.91407 0.0547 0.37265 0.0
H1593 H 0.89299 0.07465 0.39123 0.0
H1594 H 0.93824 0.13605 0.38683 0.0
H1595 H 0.9594 0.11623 0.36814 0.0
H1596 H 0.93737 0.11923 0.41317 0.0
H1597 H 0.84527 0.12895 0.39327 0.0
H1598 H 0.85631 0.09919 0.39143 0.0
H1599 H 0.87016 0.12309 0.38214 0.0
C1600 C 0.91912 0.07271 0.37536 0.0
C1601 C 0.93846 0.08385 0.36895 0.0
C1602 C 0.907 0.08412 0.38598 0.0
C1603 C 0.91385 0.10696 0.39031 0.0
C1604 C 0.93261 0.11847 0.38361 0.0
H1605 H 0.84354 0.17735 0.46031 0.0
H1606 H 0.86018 0.17086 0.43731 0.0
C1607 C 0.94475 0.10706 0.37299 0.0
C1608 C 0.90329 0.11752 0.40283 0.0
H1609 H 0.85036 0.13062 0.41801 0.0
C1610 C 0.91839 0.12213 0.41414 0.0
C1611 C 0.87856 0.12151 0.40405 0.0
C1612 C 0.86166 0.11816 0.39202 0.0
C1613 C 0.90928 0.12935 0.42686 0.0
C1614 C 0.88444 0.13178 0.42834 0.0
C1615 C 0.86941 0.12849 0.41685 0.0
C1616 C 0.87378 0.13578 0.44201 0.0
C1617 C 0.92626 0.13377 0.43875 0.0
C1618 C 0.87565 0.11804 0.4521 0.0
C1619 C 0.86617 0.12159 0.46516 0.0
C1620 C 0.85457 0.14302 0.46842 0.0
C1621 C 0.85244 0.16069 0.45818 0.0
C1622 C 0.86187 0.15702 0.44504 0.0
H1623 H 0.94461 0.13723 0.43512 0.0
H1624 H 0.92035 0.14911 0.44505 0.0
H1625 H 0.92678 0.1178 0.44548 0.0
H1626 H 0.88454 0.10141 0.44988 0.0
H1627 H 0.86818 0.10755 0.47273 0.0
H1628 H 0.94793 0.44774 0.63993 0.0
H1629 H 0.92428 0.42713 0.65714 0.0
H1630 H 0.88341 0.39306 0.62485 0.0
H1631 H 0.90749 0.4134 0.60742 0.0
H1632 H 0.87381 0.42694 0.66122 0.0
H1633 H 0.91053 0.33749 0.64872 0.0
H1634 H 0.92451 0.36455 0.64292 0.0
H1635 H 0.89739 0.35457 0.63491 0.0
C1636 C 0.93398 0.43579 0.63646 0.0
C1637 C 0.92978 0.43191 0.62233 0.0
C1638 C 0.92035 0.42419 0.64631 0.0
C1639 C 0.90227 0.40842 0.64226 0.0
C1640 C 0.89747 0.40499 0.62816 0.0
H1641 H 0.82324 0.34822 0.71269 0.0
H1642 H 0.8293 0.36338 0.68926 0.0
C1643 C 0.91111 0.41671 0.61825 0.0
C1644 C 0.8894 0.39508 0.65301 0.0
H1645 H 0.88742 0.34069 0.66859 0.0
C1646 C 0.87628 0.40797 0.6627 0.0
C1647 C 0.89284 0.37038 0.65489 0.0
C1648 C 0.90716 0.35582 0.64489 0.0
C1649 C 0.86763 0.39707 0.67466 0.0
C1650 C 0.87205 0.3726 0.67687 0.0
C1651 C 0.884 0.35943 0.66679 0.0
C1652 C 0.86768 0.36132 0.6904 0.0
C1653 C 0.85527 0.41213 0.68529 0.0
C1654 C 0.88721 0.35452 0.69858 0.0
C1655 C 0.88387 0.34587 0.71189 0.0
C1656 C 0.86086 0.34373 0.71731 0.0
C1657 C 0.84121 0.34971 0.70887 0.0
C1658 C 0.84461 0.35846 0.69551 0.0
H1659 H 0.85592 0.43139 0.68275 0.0
H1660 H 0.83634 0.40671 0.6859 0.0
H1661 H 0.86353 0.40941 0.69563 0.0
H1662 H 0.90516 0.35659 0.69482 0.0
H1663 H 0.89944 0.34131 0.71801 0.0
H1664 H 0.54494 0.11867 0.38582 0.0
H1665 H 0.5677 0.13721 0.36727 0.0
H1666 H 0.59953 0.06939 0.3579 0.0
H1667 H 0.57718 0.0509 0.37653 0.0
H1668 H 0.63184 0.10571 0.35691 0.0
H1669 H 0.55023 0.12914 0.32695 0.0
H1670 H 0.55171 0.14146 0.34401 0.0
H1671 H 0.54958 0.10979 0.34177 0.0
C1672 C 0.55687 0.10777 0.37981 0.0
C1673 C 0.55918 0.08332 0.38255 0.0
C1674 C 0.5698 0.11835 0.36921 0.0
C1675 C 0.58494 0.10458 0.36102 0.0
C1676 C 0.5879 0.08035 0.36407 0.0
H1677 H 0.65695 0.10539 0.28499 0.0
H1678 H 0.64112 0.09832 0.30794 0.0
C1679 C 0.57517 0.06981 0.37474 0.0
C1680 C 0.59714 0.11501 0.34896 0.0
H1681 H 0.58689 0.13983 0.31728 0.0
C1682 C 0.62202 0.11335 0.3483 0.0
C1683 C 0.58429 0.12498 0.33772 0.0
C1684 C 0.55747 0.12631 0.33753 0.0
C1685 C 0.63434 0.1209 0.33657 0.0
C1686 C 0.62143 0.13024 0.32523 0.0
C1687 C 0.59669 0.13277 0.32607 0.0
C1688 C 0.63288 0.13524 0.31189 0.0
C1689 C 0.66104 0.1185 0.33629 0.0
C1690 C 0.63339 0.15839 0.30649 0.0
C1691 C 0.64255 0.16256 0.29334 0.0
C1692 C 0.65092 0.14354 0.2853 0.0
C1693 C 0.6506 0.12044 0.29087 0.0
C1694 C 0.64171 0.11636 0.30403 0.0
H1695 H 0.66877 0.11681 0.34684 0.0
H1696 H 0.66578 0.1023 0.33039 0.0
H1697 H 0.66923 0.13404 0.3311 0.0
H1698 H 0.62643 0.17314 0.31239 0.0
H1699 H 0.64243 0.18054 0.28933 0.0
H1700 H 0.91462 0.09658 0.6473 0.0
H1701 H 0.89086 0.1202 0.63093 0.0
H1702 H 0.90473 0.06887 0.59899 0.0
H1703 H 0.92887 0.04559 0.61504 0.0
H1704 H 0.90665 0.13962 0.60506 0.0
H1705 H 0.83132 0.07713 0.5982 0.0
H1706 H 0.85164 0.07559 0.61276 0.0
H1707 H 0.8598 0.06313 0.59639 0.0
C1708 C 0.91266 0.09037 0.63678 0.0
C1709 C 0.9235 0.06906 0.63253 0.0
C1710 C 0.89897 0.1038 0.62749 0.0
C1711 C 0.89572 0.096 0.61386 0.0
C1712 C 0.90656 0.07486 0.60957 0.0
H1713 H 0.8759 0.15402 0.53545 0.0
H1714 H 0.88901 0.14163 0.55845 0.0
C1715 C 0.92031 0.06155 0.61879 0.0
C1716 C 0.88206 0.11032 0.60374 0.0
H1717 H 0.83668 0.10606 0.58031 0.0
C1718 C 0.89111 0.1325 0.59977 0.0
C1719 C 0.86152 0.10122 0.59707 0.0
C1720 C 0.85033 0.07806 0.60141 0.0
C1721 C 0.88122 0.14496 0.58855 0.0
C1722 C 0.862 0.13476 0.58108 0.0
C1723 C 0.85173 0.1136 0.58583 0.0
C1724 C 0.85407 0.14419 0.56753 0.0
C1725 C 0.89179 0.16863 0.58464 0.0
C1726 C 0.82998 0.1493 0.56488 0.0
C1727 C 0.82244 0.15603 0.55164 0.0
C1728 C 0.8388 0.15705 0.54085 0.0
C1729 C 0.86292 0.15268 0.54358 0.0
C1730 C 0.87046 0.14604 0.55677 0.0
H1731 H 0.89953 0.17777 0.59381 0.0
H1732 H 0.90637 0.16571 0.57721 0.0
H1733 H 0.87831 0.18047 0.57977 0.0
H1734 H 0.81702 0.14782 0.57302 0.0
H1735 H 0.8038 0.15982 0.54973 0.0
H1736 H 0.94056 0.38965 0.89478 0.0
H1737 H 0.92245 0.36543 0.87647 0.0
H1738 H 0.88152 0.426 0.86275 0.0
H1739 H 0.89934 0.45021 0.88109 0.0
H1740 H 0.85605 0.38318 0.86131 0.0
H1741 H 0.94487 0.37553 0.83697 0.0
H1742 H 0.94332 0.36447 0.85432 0.0
H1743 H 0.93926 0.39568 0.85103 0.0
C1744 C 0.92746 0.39769 0.88796 0.0
C1745 C 0.92154 0.42188 0.88926 0.0
C1746 C 0.91718 0.38386 0.87751 0.0
C1747 C 0.90104 0.39408 0.86809 0.0
C1748 C 0.894 0.4178 0.86989 0.0
H1749 H 0.86181 0.3719 0.78463 0.0
H1750 H 0.87517 0.385 0.80755 0.0
C1751 C 0.90414 0.4316 0.8804 0.0
C1752 C 0.89293 0.3808 0.85571 0.0
H1753 H 0.91276 0.35688 0.82563 0.0
C1754 C 0.86845 0.37726 0.85354 0.0
C1755 C 0.90918 0.37328 0.84555 0.0
C1756 C 0.9356 0.37757 0.84697 0.0
C1757 C 0.85979 0.36678 0.84132 0.0
C1758 C 0.87605 0.35964 0.83114 0.0
C1759 C 0.90047 0.3625 0.83348 0.0
C1760 C 0.86802 0.3513 0.81744 0.0
C1761 C 0.83335 0.36414 0.83908 0.0
C1762 C 0.85974 0.328 0.81548 0.0
C1763 C 0.85246 0.32041 0.80235 0.0
C1764 C 0.8538 0.33594 0.79104 0.0
C1765 C 0.86158 0.35937 0.79311 0.0
C1766 C 0.86893 0.36691 0.80618 0.0
H1767 H 0.82298 0.37149 0.84779 0.0
H1768 H 0.82787 0.37338 0.82944 0.0
H1769 H 0.82884 0.34503 0.83785 0.0
H1770 H 0.85894 0.31575 0.82409 0.0
H1771 H 0.84597 0.30241 0.80099 0.0
H1772 H 0.62232 0.45305 0.13939 0.0
H1773 H 0.64145 0.43179 0.12044 0.0
H1774 H 0.57839 0.38914 0.11469 0.0
H1775 H 0.55911 0.41033 0.13346 0.0
H1776 H 0.62272 0.36359 0.11167 0.0
H1777 H 0.61765 0.44706 0.08076 0.0
H1778 H 0.63302 0.44879 0.09709 0.0
H1779 H 0.60157 0.44331 0.09661 0.0
C1780 C 0.61264 0.43896 0.13417 0.0
C1781 C 0.58909 0.43356 0.13783 0.0
C1782 C 0.62361 0.42682 0.12339 0.0
C1783 C 0.61119 0.40915 0.11607 0.0
C1784 C 0.58828 0.40271 0.12024 0.0
H1785 H 0.60179 0.35785 0.03539 0.0
H1786 H 0.59855 0.37312 0.05876 0.0
C1787 C 0.57731 0.41481 0.13101 0.0
C1788 C 0.62086 0.39896 0.10322 0.0
H1789 H 0.63106 0.4128 0.06953 0.0
C1790 C 0.62499 0.37437 0.1025 0.0
C1791 C 0.62353 0.41311 0.09127 0.0
C1792 C 0.61859 0.43951 0.09134 0.0
C1793 C 0.63107 0.36344 0.08999 0.0
C1794 C 0.63299 0.37752 0.078 0.0
C1795 C 0.6297 0.40218 0.07882 0.0
C1796 C 0.63539 0.36681 0.06418 0.0
C1797 C 0.63422 0.33684 0.08945 0.0
C1798 C 0.65725 0.35809 0.05955 0.0
C1799 C 0.65927 0.34932 0.04609 0.0
C1800 C 0.63941 0.34917 0.03709 0.0
C1801 C 0.61749 0.35762 0.04197 0.0
C1802 C 0.61556 0.36639 0.05534 0.0
H1803 H 0.63137 0.3283 0.09963 0.0
H1804 H 0.62153 0.32907 0.08183 0.0
H1805 H 0.65245 0.33258 0.08595 0.0
H1806 H 0.67279 0.35845 0.06626 0.0
H1807 H 0.67642 0.34297 0.04268 0.0
loop_
_geom_bond_atom_site_label_1
_geom_bond_atom_site_label_2
_geom_bond_distance
_geom_bond_site_symmetry_2
_ccdc_geom_bond_type
C0 C1 1.384 . S
C0 C2 1.384 . S
C0 H28 0.931 . S
C1 C0 1.384 . S
C1 C4 1.382 . S
C2 C0 1.384 . S
C2 C3 1.381 . S
C2 H29 0.930 . S
C3 C2 1.381 . S
C3 C5 1.381 . S
C3 C6 1.487 . S
C4 C1 1.382 . S
C4 C5 1.387 . S
C4 H30 0.930 . S
C5 C3 1.381 . S
C5 C4 1.387 . S
C5 H31 0.931 1_565 S
C6 C3 1.487 . S
C6 C13 1.399 . S
C6 N44 1.343 1_565 S
C7 C8 1.384 . S
C7 C9 1.384 . S
C7 H32 0.931 . S
C8 C7 1.384 . S
C8 C11 1.382 . S
C9 C7 1.384 . S
C9 C10 1.381 . S
C9 H33 0.930 . S
C10 C9 1.381 . S
C10 C12 1.381 . S
C10 C13 1.487 . S
C11 C8 1.382 . S
C11 C12 1.387 . S
C11 H34 0.930 . S
C12 C10 1.381 . S
C12 C11 1.387 . S
C12 H35 0.931 . S
C13 C6 1.399 . S
C13 C10 1.487 . S
C13 N45 1.332 1_465 S
C14 C15 1.384 . S
C14 C16 1.384 . S
C14 H36 0.931 . S
C15 C14 1.384 . S
C15 C18 1.382 . S
C16 C14 1.384 . S
C16 C17 1.381 . S
C16 H37 0.930 . S
C17 C16 1.381 . S
C17 C19 1.381 . S
C17 C20 1.487 . S
C18 C15 1.382 . S
C18 C19 1.387 . S
C18 H38 0.930 . S
C19 C17 1.381 . S
C19 C18 1.387 . S
C19 H39 0.907 1_545 S
C20 C17 1.487 . S
C20 C27 1.399 . S
C20 N45 1.354 . S
C21 C22 1.384 . S
C21 C23 1.384 . S
C21 H40 0.931 . S
C22 C21 1.384 . S
C22 C25 1.382 . S
C23 C21 1.384 . S
C23 C24 1.381 . S
C23 H41 0.930 . S
C24 C23 1.381 . S
C24 C26 1.381 . S
C24 C27 1.487 . S
C25 C22 1.382 . S
C25 C26 1.387 . S
C25 H42 0.930 . S
C26 C24 1.381 . S
C26 C25 1.387 . S
C26 H43 0.931 . S
C27 C20 1.399 . S
C27 C24 1.487 . S
C27 N44 1.343 1_655 S
H28 C0 0.931 . S
H29 C2 0.930 . S
H30 C4 0.930 . S
H31 C5 0.931 1_545 S
H32 C7 0.931 . S
H33 C9 0.930 . S
H34 C11 0.930 . S
H35 C12 0.931 . S
H36 C14 0.931 . S
H37 C16 0.930 . S
H38 C18 0.930 . S
H39 C19 0.907 1_565 S
H40 C21 0.931 . S
H41 C23 0.930 . S
H42 C25 0.930 . S
H43 C26 0.931 . S
N44 C6 1.343 1_545 S
N44 C27 1.343 1_455 S
N45 C13 1.332 1_645 S
N45 C20 1.354 . S
C46 C47 1.384 . S
C46 C48 1.384 . S
C46 H74 0.931 . S
C47 C46 1.384 . S
C47 C50 1.382 . S
C48 C46 1.384 . S
C48 C49 1.381 . S
C48 H75 0.930 . S
C49 C48 1.381 . S
C49 C51 1.381 . S
C49 C52 1.487 . S
C50 C47 1.382 . S
C50 C51 1.387 . S
C50 H76 0.930 . S
C51 C49 1.381 . S
C51 C50 1.387 . S
C51 H77 0.931 1_655 S
C52 C49 1.487 . S
C52 C59 1.399 . S
C52 N90 1.343 1_655 S
C53 C54 1.384 . S
C53 C55 1.384 . S
C53 H78 0.931 . S
C54 C53 1.384 . S
C54 C57 1.382 . S
C55 C53 1.384 . S
C55 C56 1.381 . S
C55 H79 0.930 . S
C56 C55 1.381 . S
C56 C58 1.381 . S
C56 C59 1.487 . S
C57 C54 1.382 . S
C57 C58 1.387 . S
C57 H80 0.930 . S
C58 C56 1.381 . S
C58 C57 1.387 . S
C58 H81 0.931 . S
C59 C52 1.399 . S
C59 C56 1.487 . S
C59 N91 1.343 . S
C60 C61 1.384 . S
C60 C62 1.384 . S
C60 H82 0.931 . S
C61 C60 1.384 . S
C61 C64 1.382 . S
C62 C60 1.384 . S
C62 C63 1.381 . S
C62 H83 0.930 . S
C63 C62 1.381 . S
C63 C65 1.381 . S
C63 C66 1.487 . S
C64 C61 1.382 . S
C64 C65 1.387 . S
C64 H84 0.930 . S
C65 C63 1.381 . S
C65 C64 1.387 . S
C65 H85 0.931 1_455 S
C66 C63 1.487 . S
C66 C73 1.399 . S
C66 N91 1.343 1_455 S
C67 C68 1.384 . S
C67 C69 1.384 . S
C67 H86 0.931 . S
C68 C67 1.384 . S
C68 C71 1.382 . S
C69 C67 1.384 . S
C69 C70 1.381 . S
C69 H87 0.930 . S
C70 C69 1.381 . S
C70 C72 1.381 . S
C70 C73 1.487 . S
C71 C68 1.382 . S
C71 C72 1.387 . S
C71 H88 0.930 . S
C72 C70 1.381 . S
C72 C71 1.387 . S
C72 H89 0.931 . S
C73 C66 1.399 . S
C73 C70 1.487 . S
C73 N90 1.343 . S
H74 C46 0.931 . S
H75 C48 0.930 . S
H76 C50 0.930 . S
H77 C51 0.931 1_455 S
H78 C53 0.931 . S
H79 C55 0.930 . S
H80 C57 0.930 . S
H81 C58 0.931 . S
H82 C60 0.931 . S
H83 C62 0.930 . S
H84 C64 0.930 . S
H85 C65 0.931 1_655 S
H86 C67 0.931 . S
H87 C69 0.930 . S
H88 C71 0.930 . S
H89 C72 0.931 . S
N90 C52 1.343 1_455 S
N90 C73 1.343 . S
N91 C59 1.343 . S
N91 C66 1.343 1_655 S
C92 C93 1.384 . S
C92 C94 1.384 . S
C92 H120 0.931 . S
C93 C92 1.384 . S
C93 C96 1.382 . S
C94 C92 1.384 . S
C94 C95 1.381 . S
C94 H121 0.930 . S
C95 C94 1.381 . S
C95 C97 1.381 . S
C95 C98 1.487 . S
C96 C93 1.382 . S
C96 C97 1.387 . S
C96 H122 0.930 . S
C97 C95 1.381 . S
C97 C96 1.387 . S
C97 H123 0.931 . S
C98 C95 1.487 . S
C98 C105 1.399 . S
C98 N136 1.343 . S
C99 C100 1.384 . S
C99 C101 1.384 . S
C99 H124 0.931 . S
C100 C99 1.384 . S
C100 C103 1.382 . S
C101 C99 1.384 . S
C101 C102 1.381 . S
C101 H125 0.930 . S
C102 C101 1.381 . S
C102 C104 1.381 . S
C102 C105 1.487 . S
C103 C100 1.382 . S
C103 C104 1.387 . S
C103 H126 0.930 . S
C104 C102 1.381 . S
C104 C103 1.387 . S
C104 H127 0.931 . S
C105 C98 1.399 . S
C105 C102 1.487 . S
C105 N137 1.343 . S
C106 C107 1.384 . S
C106 C108 1.384 . S
C106 H128 0.931 . S
C107 C106 1.384 . S
C107 C110 1.382 . S
C108 C106 1.384 . S
C108 C109 1.381 . S
C108 H129 0.930 . S
C109 C108 1.381 . S
C109 C111 1.381 . S
C109 C112 1.487 . S
C110 C107 1.382 . S
C110 C111 1.387 . S
C110 H130 0.930 . S
C111 C109 1.381 . S
C111 C110 1.387 . S
C111 H131 0.931 . S
C112 C109 1.487 . S
C112 C119 1.399 . S
C112 N137 1.343 . S
C113 C114 1.384 . S
C113 C115 1.384 . S
C113 H132 0.931 . S
C114 C113 1.384 . S
C114 C117 1.382 . S
C115 C113 1.384 . S
C115 C116 1.381 . S
C115 H133 0.930 . S
C116 C115 1.381 . S
C116 C118 1.381 . S
C116 C119 1.487 . S
C117 C114 1.382 . S
C117 C118 1.387 . S
C117 H134 0.930 . S
C118 C116 1.381 . S
C118 C117 1.387 . S
C118 H135 0.931 . S
C119 C112 1.399 . S
C119 C116 1.487 . S
C119 N136 1.343 . S
H120 C92 0.931 . S
H121 C94 0.930 . S
H122 C96 0.930 . S
H123 C97 0.931 . S
H124 C99 0.931 . S
H125 C101 0.930 . S
H126 C103 0.930 . S
H127 C104 0.931 . S
H128 C106 0.931 . S
H129 C108 0.930 . S
H130 C110 0.930 . S
H131 C111 0.931 . S
H132 C113 0.931 . S
H133 C115 0.930 . S
H134 C117 0.930 . S
H135 C118 0.931 . S
N136 C98 1.343 . S
N136 C119 1.343 . S
N137 C105 1.343 . S
N137 C112 1.343 . S
C138 C139 1.384 . S
C138 C140 1.384 . S
C138 H166 0.931 . S
C139 C138 1.384 . S
C139 C142 1.382 . S
C140 C138 1.384 . S
C140 C141 1.381 . S
C140 H167 0.930 . S
C141 C140 1.381 . S
C141 C143 1.381 . S
C141 C144 1.487 . S
C142 C139 1.382 . S
C142 C143 1.387 . S
C142 H168 0.930 . S
C143 C141 1.381 . S
C143 C142 1.387 . S
C143 H169 0.935 1_565 S
C144 C141 1.487 . S
C144 C151 1.399 . S
C144 N182 1.343 1_565 S
C145 C146 1.384 . S
C145 C147 1.384 . S
C145 H170 0.931 . S
C146 C145 1.384 . S
C146 C149 1.382 . S
C147 C145 1.384 . S
C147 C148 1.381 . S
C147 H171 0.930 . S
C148 C147 1.381 . S
C148 C150 1.381 . S
C148 C151 1.487 . S
C149 C146 1.382 . S
C149 C150 1.387 . S
C149 H172 0.930 . S
C150 C148 1.381 . S
C150 C149 1.387 . S
C150 H173 0.931 . S
C151 C144 1.399 . S
C151 C148 1.487 . S
C151 N183 1.343 1_565 S
C152 C153 1.384 . S
C152 C154 1.384 . S
C152 H174 0.931 . S
C153 C152 1.384 . S
C153 C156 1.382 . S
C154 C152 1.384 . S
C154 C155 1.381 . S
C154 H175 0.930 . S
C155 C154 1.381 . S
C155 C157 1.381 . S
C155 C158 1.487 . S
C156 C153 1.382 . S
C156 C157 1.387 . S
C156 H176 0.930 . S
C157 C155 1.381 . S
C157 C156 1.387 . S
C157 H177 0.931 . S
C158 C155 1.487 . S
C158 C165 1.399 . S
C158 N183 1.343 . S
C159 C160 1.384 . S
C159 C161 1.384 . S
C159 H178 0.931 . S
C160 C159 1.384 . S
C160 C163 1.382 . S
C161 C159 1.384 . S
C161 C162 1.381 . S
C161 H179 0.930 . S
C162 C161 1.381 . S
C162 C164 1.381 . S
C162 C165 1.487 . S
C163 C160 1.382 . S
C163 C164 1.387 . S
C163 H180 0.930 . S
C164 C162 1.381 . S
C164 C163 1.387 . S
C164 H181 0.931 . S
C165 C158 1.399 . S
C165 C162 1.487 . S
C165 N182 1.343 . S
H166 C138 0.931 . S
H167 C140 0.930 . S
H168 C142 0.930 . S
H169 C143 0.935 1_545 S
H170 C145 0.931 . S
H171 C147 0.930 . S
H172 C149 0.930 . S
H173 C150 0.931 . S
H174 C152 0.931 . S
H175 C154 0.930 . S
H176 C156 0.930 . S
H177 C157 0.931 . S
H178 C159 0.931 . S
H179 C161 0.930 . S
H180 C163 0.930 . S
H181 C164 0.931 . S
N182 C144 1.343 1_545 S
N182 C165 1.343 . S
N183 C151 1.343 1_545 S
N183 C158 1.343 . S
C184 C185 1.384 . S
C184 C186 1.384 . S
C184 H212 0.931 . S
C185 C184 1.384 . S
C185 C188 1.382 . S
C186 C184 1.384 . S
C186 C187 1.381 . S
C186 H213 0.930 . S
C187 C186 1.381 . S
C187 C189 1.381 . S
C187 C190 1.487 . S
C188 C185 1.382 . S
C188 C189 1.387 . S
C188 H214 0.930 . S
C189 C187 1.381 . S
C189 C188 1.387 . S
C189 H215 0.931 . S
C190 C187 1.487 . S
C190 C197 1.399 . S
C190 N228 1.343 . S
C191 C192 1.384 . S
C191 C193 1.384 . S
C191 H216 0.931 . S
C192 C191 1.384 . S
C192 C195 1.382 . S
C193 C191 1.384 . S
C193 C194 1.381 . S
C193 H217 0.930 . S
C194 C193 1.381 . S
C194 C196 1.381 . S
C194 C197 1.487 . S
C195 C192 1.382 . S
C195 C196 1.387 . S
C195 H218 0.930 . S
C196 C194 1.381 . S
C196 C195 1.387 . S
C196 H219 0.931 . S
C197 C190 1.399 . S
C197 C194 1.487 . S
C197 N229 1.343 . S
C198 C199 1.384 . S
C198 C200 1.384 . S
C198 H220 0.931 . S
C199 C198 1.384 . S
C199 C202 1.382 . S
C200 C198 1.384 . S
C200 C201 1.381 . S
C200 H221 0.930 . S
C201 C200 1.381 . S
C201 C203 1.381 . S
C201 C204 1.487 . S
C202 C199 1.382 . S
C202 C203 1.387 . S
C202 H222 0.930 . S
C203 C201 1.381 . S
C203 C202 1.387 . S
C203 H223 0.931 . S
C204 C201 1.487 . S
C204 C211 1.399 . S
C204 N229 1.343 1_655 S
C205 C206 1.384 . S
C205 C207 1.384 . S
C205 H224 0.931 . S
C206 C205 1.384 . S
C206 C209 1.382 . S
C207 C205 1.384 . S
C207 C208 1.381 . S
C207 H225 0.930 . S
C208 C207 1.381 . S
C208 C210 1.381 . S
C208 C211 1.487 . S
C209 C206 1.382 . S
C209 C210 1.387 . S
C209 H226 0.930 . S
C210 C208 1.381 . S
C210 C209 1.387 . S
C210 H227 0.931 . S
C211 C204 1.399 . S
C211 C208 1.487 . S
C211 N228 1.343 1_655 S
H212 C184 0.931 . S
H213 C186 0.930 . S
H214 C188 0.930 . S
H215 C189 0.931 . S
H216 C191 0.931 . S
H217 C193 0.930 . S
H218 C195 0.930 . S
H219 C196 0.931 . S
H220 C198 0.931 . S
H221 C200 0.930 . S
H222 C202 0.930 . S
H223 C203 0.931 . S
H224 C205 0.931 . S
H225 C207 0.930 . S
H226 C209 0.930 . S
H227 C210 0.931 . S
N228 C190 1.343 . S
N228 C211 1.343 1_455 S
N229 C197 1.343 . S
N229 C204 1.343 1_455 S
C230 C231 1.384 . S
C230 C232 1.384 . S
C230 H258 0.931 . S
C231 C230 1.384 . S
C231 C234 1.382 . S
C232 C230 1.384 . S
C232 C233 1.381 . S
C232 H259 0.930 . S
C233 C232 1.381 . S
C233 C235 1.381 . S
C233 C236 1.487 . S
C234 C231 1.382 . S
C234 C235 1.387 . S
C234 H260 0.930 . S
C235 C233 1.381 . S
C235 C234 1.387 . S
C235 H261 0.931 . S
C236 C233 1.487 . S
C236 C243 1.399 . S
C236 N274 1.343 . S
C237 C238 1.384 . S
C237 C239 1.384 . S
C237 H262 0.931 . S
C238 C237 1.384 . S
C238 C241 1.382 . S
C239 C237 1.384 . S
C239 C240 1.381 . S
C239 H263 0.930 . S
C240 C239 1.381 . S
C240 C242 1.381 . S
C240 C243 1.487 . S
C241 C238 1.382 . S
C241 C242 1.387 . S
C241 H264 0.930 . S
C242 C240 1.381 . S
C242 C241 1.387 . S
C242 H265 0.931 . S
C243 C236 1.399 . S
C243 C240 1.487 . S
C243 N275 1.343 . S
C244 C245 1.384 . S
C244 C246 1.384 . S
C244 H266 0.931 . S
C245 C244 1.384 . S
C245 C248 1.382 . S
C246 C244 1.384 . S
C246 C247 1.381 . S
C246 H267 0.930 . S
C247 C246 1.381 . S
C247 C249 1.381 . S
C247 C250 1.487 . S
C248 C245 1.382 . S
C248 C249 1.387 . S
C248 H268 0.930 . S
C249 C247 1.381 . S
C249 C248 1.387 . S
C249 H269 0.931 . S
C250 C247 1.487 . S
C250 C257 1.399 . S
C250 N275 1.343 . S
C251 C252 1.384 . S
C251 C253 1.384 . S
C251 H270 0.931 . S
C252 C251 1.384 . S
C252 C255 1.382 . S
C253 C251 1.384 . S
C253 C254 1.381 . S
C253 H271 0.930 . S
C254 C253 1.381 . S
C254 C256 1.381 . S
C254 C257 1.487 . S
C255 C252 1.382 . S
C255 C256 1.387 . S
C255 H272 0.930 . S
C256 C254 1.381 . S
C256 C255 1.387 . S
C256 H273 0.931 . S
C257 C250 1.399 . S
C257 C254 1.487 . S
C257 N274 1.343 . S
H258 C230 0.931 . S
H259 C232 0.930 . S
H260 C234 0.930 . S
H261 C235 0.931 . S
H262 C237 0.931 . S
H263 C239 0.930 . S
H264 C241 0.930 . S
H265 C242 0.931 . S
H266 C244 0.931 . S
H267 C246 0.930 . S
H268 C248 0.930 . S
H269 C249 0.931 . S
H270 C251 0.931 . S
H271 C253 0.930 . S
H272 C255 0.930 . S
H273 C256 0.931 . S
N274 C236 1.343 . S
N274 C257 1.343 . S
N275 C243 1.343 . S
N275 C250 1.343 . S
C276 C277 1.384 . S
C276 C278 1.384 . S
C276 H304 0.931 . S
C277 C276 1.384 . S
C277 C280 1.382 . S
C278 C276 1.384 . S
C278 C279 1.381 . S
C278 H305 0.930 . S
C279 C278 1.381 . S
C279 C281 1.381 . S
C279 C282 1.487 . S
C280 C277 1.382 . S
C280 C281 1.387 . S
C280 H306 0.930 . S
C281 C279 1.381 . S
C281 C280 1.387 . S
C281 H307 0.931 1_565 S
C282 C279 1.487 . S
C282 C289 1.399 . S
C282 N320 1.343 1_565 S
C283 C284 1.384 . S
C283 C285 1.384 . S
C283 H308 0.931 . S
C284 C283 1.384 . S
C284 C287 1.382 . S
C285 C283 1.384 . S
C285 C286 1.381 . S
C285 H309 0.930 . S
C286 C285 1.381 . S
C286 C288 1.381 . S
C286 C289 1.487 . S
C287 C284 1.382 . S
C287 C288 1.387 . S
C287 H310 0.930 . S
C288 C286 1.381 . S
C288 C287 1.387 . S
C288 H311 0.931 . S
C289 C282 1.399 . S
C289 C286 1.487 . S
C289 N321 1.343 1_565 S
C290 C291 1.384 . S
C290 C292 1.384 . S
C290 H312 0.931 . S
C291 C290 1.384 . S
C291 C294 1.382 . S
C292 C290 1.384 . S
C292 C293 1.381 . S
C292 H313 0.930 . S
C293 C292 1.381 . S
C293 C295 1.381 . S
C293 C296 1.487 . S
C294 C291 1.382 . S
C294 C295 1.387 . S
C294 H314 0.930 . S
C295 C293 1.381 . S
C295 C294 1.387 . S
C295 H315 0.978 . S
C296 C293 1.487 . S
C296 C303 1.399 . S
C296 N321 1.343 . S
C297 C298 1.384 . S
C297 C299 1.384 . S
C297 H316 0.931 . S
C298 C297 1.384 . S
C298 C301 1.382 . S
C299 C297 1.384 . S
C299 C300 1.381 . S
C299 H317 0.930 . S
C300 C299 1.381 . S
C300 C302 1.381 . S
C300 C303 1.487 . S
C301 C298 1.382 . S
C301 C302 1.387 . S
C301 H318 0.930 . S
C302 C300 1.381 . S
C302 C301 1.387 . S
C302 H319 0.931 . S
C303 C296 1.399 . S
C303 C300 1.487 . S
C303 N320 1.343 . S
H304 C276 0.931 . S
H305 C278 0.930 . S
H306 C280 0.930 . S
H307 C281 0.931 1_545 S
H308 C283 0.931 . S
H309 C285 0.930 . S
H310 C287 0.930 . S
H311 C288 0.931 . S
H312 C290 0.931 . S
H313 C292 0.930 . S
H314 C294 0.930 . S
H315 C295 0.978 . S
H316 C297 0.931 . S
H317 C299 0.930 . S
H318 C301 0.930 . S
H319 C302 0.931 . S
N320 C282 1.343 1_545 S
N320 C303 1.343 . S
N321 C289 1.343 1_545 S
N321 C296 1.343 . S
C322 C323 1.384 . S
C322 C324 1.384 . S
C322 H350 0.931 . S
C323 C322 1.384 . S
C323 C326 1.382 . S
C324 C322 1.384 . S
C324 C325 1.381 . S
C324 H351 0.930 . S
C325 C324 1.381 . S
C325 C327 1.381 . S
C325 C328 1.487 . S
C326 C323 1.382 . S
C326 C327 1.387 . S
C326 H352 0.930 . S
C327 C325 1.381 . S
C327 C326 1.387 . S
C327 H353 0.944 . S
C328 C325 1.487 . S
C328 C335 1.399 . S
C328 N366 1.343 1_565 S
C329 C330 1.384 . S
C329 C331 1.384 . S
C329 H354 0.931 . S
C330 C329 1.384 . S
C330 C333 1.382 . S
C331 C329 1.384 . S
C331 C332 1.381 . S
C331 H355 0.930 . S
C332 C331 1.381 . S
C332 C334 1.381 . S
C332 C335 1.487 . S
C333 C330 1.382 . S
C333 C334 1.387 . S
C333 H356 0.930 . S
C334 C332 1.381 . S
C334 C333 1.387 . S
C334 H357 0.931 . S
C335 C328 1.399 . S
C335 C332 1.487 . S
C335 N367 1.343 1_565 S
C336 C337 1.384 . S
C336 C338 1.384 . S
C336 H358 0.931 . S
C337 C336 1.384 . S
C337 C340 1.382 . S
C338 C336 1.384 . S
C338 C339 1.381 . S
C338 H359 0.930 . S
C339 C338 1.381 . S
C339 C341 1.381 . S
C339 C342 1.487 . S
C340 C337 1.382 . S
C340 C341 1.387 . S
C340 H360 0.930 . S
C341 C339 1.381 . S
C341 C340 1.387 . S
C341 H361 0.931 1_655 S
C342 C339 1.487 . S
C342 C349 1.399 . S
C342 N367 1.343 1_655 S
C343 C344 1.384 . S
C343 C345 1.384 . S
C343 H362 0.931 . S
C344 C343 1.384 . S
C344 C347 1.382 . S
C345 C343 1.384 . S
C345 C346 1.381 . S
C345 H363 0.930 . S
C346 C345 1.381 . S
C346 C348 1.381 . S
C346 C349 1.487 . S
C347 C344 1.382 . S
C347 C348 1.387 . S
C347 H364 0.930 . S
C348 C346 1.381 . S
C348 C347 1.387 . S
C348 H365 0.931 . S
C349 C342 1.399 . S
C349 C346 1.487 . S
C349 N366 1.343 1_655 S
H350 C322 0.931 . S
H351 C324 0.930 . S
H352 C326 0.930 . S
H353 C327 0.944 . S
H354 C329 0.931 . S
H355 C331 0.930 . S
H356 C333 0.930 . S
H357 C334 0.931 . S
H358 C336 0.931 . S
H359 C338 0.930 . S
H360 C340 0.930 . S
H361 C341 0.931 1_455 S
H362 C343 0.931 . S
H363 C345 0.930 . S
H364 C347 0.930 . S
H365 C348 0.931 . S
N366 C328 1.343 1_545 S
N366 C349 1.343 1_455 S
N367 C335 1.343 1_545 S
N367 C342 1.343 1_455 S
Mn368 O373 2.095 1_554 S
Mn368 O383 2.162 . S
Mn368 O384 2.297 . S
Mn368 O392 2.385 . S
Mn368 O393 2.209 . S
Mn368 O394 2.094 1_554 S
Mn369 O374 2.121 . S
Mn369 N376 2.257 1_556 S
Mn369 N385 2.282 1_556 S
Mn369 O393 2.215 1_556 S
Mn369 O395 2.117 . S
C370 O392 1.234 . S
C370 O393 1.283 . S
C371 O383 1.281 . S
C371 O384 1.236 . S
C372 O394 1.240 . S
C372 O395 1.264 . S
O373 Mn368 2.095 1_556 S
O373 C382 1.250 . S
O374 Mn369 2.121 . S
O374 C382 1.258 . S
C375 N376 1.326 1_556 S
C375 C379 1.460 1_556 S
C375 H381 0.929 . S
N376 Mn369 2.257 1_554 S
N376 C375 1.326 1_554 S
N376 C380 1.362 . S
C377 C378 1.258 . S
C377 C380 1.431 . S
C377 C397 1.449 . S
C378 C377 1.258 . S
C378 C379 1.477 . S
C378 H398 0.931 . S
C379 C375 1.460 1_554 S
C379 C378 1.477 . S
C379 H399 0.930 1_554 S
C380 N376 1.362 . S
C380 C377 1.431 . S
C380 C390 1.476 . S
H381 C375 0.929 . S
C382 O373 1.250 . S
C382 O374 1.258 . S
O383 Mn368 2.162 . S
O383 C371 1.281 . S
O384 Mn368 2.297 . S
O384 C371 1.236 . S
N385 Mn369 2.282 1_554 S
N385 C386 1.328 . S
N385 C390 1.318 . S
C386 N385 1.328 . S
C386 C387 1.457 . S
C386 H391 0.929 . S
C387 C386 1.457 . S
C387 C388 1.291 . S
C387 H400 0.931 . S
C388 C387 1.291 . S
C388 C389 1.373 . S
C388 H401 0.929 . S
C389 C388 1.373 . S
C389 C390 1.396 . S
C389 C396 1.403 . S
C390 C380 1.476 . S
C390 N385 1.318 . S
C390 C389 1.396 . S
H391 C386 0.929 . S
O392 Mn368 2.385 . S
O392 C370 1.234 . S
O393 Mn368 2.209 . S
O393 Mn369 2.215 1_554 S
O393 C370 1.283 . S
O394 Mn368 2.094 1_556 S
O394 C372 1.240 . S
O395 Mn369 2.117 . S
O395 C372 1.264 . S
C396 C389 1.403 . S
C396 C397 1.399 . S
C396 H402 0.929 . S
C397 C377 1.449 . S
C397 C396 1.399 . S
C397 H403 0.930 . S
H398 C378 0.931 . S
H399 C379 0.930 1_556 S
H400 C387 0.931 . S
H401 C388 0.929 . S
H402 C396 0.929 . S
H403 C397 0.930 . S
Mn404 O409 2.095 . S
Mn404 O419 2.162 . S
Mn404 O420 2.297 . S
Mn404 O428 2.385 . S
Mn404 O429 2.209 . S
Mn404 O430 2.094 . S
Mn405 O410 2.121 . S
Mn405 N412 2.257 . S
Mn405 N421 2.282 . S
Mn405 O429 2.215 . S
Mn405 O431 2.117 . S
C406 O428 1.234 . S
C406 O429 1.283 . S
C407 O419 1.281 . S
C407 O420 1.236 . S
C408 O430 1.240 . S
C408 O431 1.264 . S
O409 Mn404 2.095 . S
O409 C418 1.250 . S
O410 Mn405 2.121 . S
O410 C418 1.258 . S
C411 N412 1.326 . S
C411 C415 1.460 . S
C411 H417 0.929 . S
N412 Mn405 2.257 . S
N412 C411 1.326 . S
N412 C416 1.362 . S
C413 C414 1.258 . S
C413 C416 1.431 . S
C413 C433 1.449 . S
C414 C413 1.258 . S
C414 C415 1.477 . S
C414 H434 0.931 . S
C415 C411 1.460 . S
C415 C414 1.477 . S
C415 H435 0.930 . S
C416 N412 1.362 . S
C416 C413 1.431 . S
C416 C426 1.476 . S
H417 C411 0.929 . S
C418 O409 1.250 . S
C418 O410 1.258 . S
O419 Mn404 2.162 . S
O419 C407 1.281 . S
O420 Mn404 2.297 . S
O420 C407 1.236 . S
N421 Mn405 2.282 . S
N421 C422 1.328 . S
N421 C426 1.318 . S
C422 N421 1.328 . S
C422 C423 1.457 . S
C422 H427 0.929 . S
C423 C422 1.457 . S
C423 C424 1.291 . S
C423 H436 0.931 . S
C424 C423 1.291 . S
C424 C425 1.373 . S
C424 H437 0.929 . S
C425 C424 1.373 . S
C425 C426 1.396 . S
C425 C432 1.403 . S
C426 C416 1.476 . S
C426 N421 1.318 . S
C426 C425 1.396 . S
H427 C422 0.929 . S
O428 Mn404 2.385 . S
O428 C406 1.234 . S
O429 Mn404 2.209 . S
O429 Mn405 2.215 . S
O429 C406 1.283 . S
O430 Mn404 2.094 . S
O430 C408 1.240 . S
O431 Mn405 2.117 . S
O431 C408 1.264 . S
C432 C425 1.403 . S
C432 C433 1.399 . S
C432 H438 0.929 . S
C433 C413 1.449 . S
C433 C432 1.399 . S
C433 H439 0.930 . S
H434 C414 0.931 . S
H435 C415 0.930 . S
H436 C423 0.931 . S
H437 C424 0.929 . S
H438 C432 0.929 . S
H439 C433 0.930 . S
Mn440 O445 2.095 . S
Mn440 O455 2.162 . S
Mn440 O456 2.297 . S
Mn440 O464 2.385 . S
Mn440 O465 2.209 . S
Mn440 O466 2.094 . S
Mn441 O446 2.121 . S
Mn441 N448 2.257 . S
Mn441 N457 2.282 . S
Mn441 O465 2.215 . S
Mn441 O467 2.117 . S
C442 O464 1.234 . S
C442 O465 1.283 . S
C443 O455 1.281 . S
C443 O456 1.236 . S
C444 O466 1.240 . S
C444 O467 1.264 . S
O445 Mn440 2.095 . S
O445 C454 1.250 . S
O446 Mn441 2.121 . S
O446 C454 1.258 . S
C447 N448 1.326 . S
C447 C451 1.460 . S
C447 H453 0.929 . S
N448 Mn441 2.257 . S
N448 C447 1.326 . S
N448 C452 1.362 . S
C449 C450 1.258 . S
C449 C452 1.431 . S
C449 C469 1.449 . S
C450 C449 1.258 . S
C450 C451 1.477 . S
C450 H470 0.931 . S
C451 C447 1.460 . S
C451 C450 1.477 . S
C451 H471 0.930 . S
C452 N448 1.362 . S
C452 C449 1.431 . S
C452 C462 1.476 . S
H453 C447 0.929 . S
C454 O445 1.250 . S
C454 O446 1.258 . S
O455 Mn440 2.162 . S
O455 C443 1.281 . S
O456 Mn440 2.297 . S
O456 C443 1.236 . S
N457 Mn441 2.282 . S
N457 C458 1.328 . S
N457 C462 1.318 . S
C458 N457 1.328 . S
C458 C459 1.457 . S
C458 H463 0.929 . S
C459 C458 1.457 . S
C459 C460 1.291 . S
C459 H472 0.931 . S
C460 C459 1.291 . S
C460 C461 1.373 . S
C460 H473 0.929 . S
C461 C460 1.373 . S
C461 C462 1.396 . S
C461 C468 1.403 . S
C462 C452 1.476 . S
C462 N457 1.318 . S
C462 C461 1.396 . S
H463 C458 0.929 . S
O464 Mn440 2.385 . S
O464 C442 1.234 . S
O465 Mn440 2.209 . S
O465 Mn441 2.215 . S
O465 C442 1.283 . S
O466 Mn440 2.094 . S
O466 C444 1.240 . S
O467 Mn441 2.117 . S
O467 C444 1.264 . S
C468 C461 1.403 . S
C468 C469 1.399 . S
C468 H474 0.929 . S
C469 C449 1.449 . S
C469 C468 1.399 . S
C469 H475 0.930 . S
H470 C450 0.931 . S
H471 C451 0.930 . S
H472 C459 0.931 . S
H473 C460 0.929 . S
H474 C468 0.929 . S
H475 C469 0.930 . S
Mn476 O481 2.095 . S
Mn476 O491 2.162 . S
Mn476 O492 2.297 . S
Mn476 O500 2.385 . S
Mn476 O501 2.209 . S
Mn476 O502 2.094 . S
Mn477 O482 2.121 . S
Mn477 N484 2.257 . S
Mn477 N493 2.282 . S
Mn477 O501 2.215 . S
Mn477 O503 2.117 . S
C478 O500 1.234 . S
C478 O501 1.283 . S
C479 O491 1.281 . S
C479 O492 1.236 . S
C480 O502 1.240 . S
C480 O503 1.264 . S
O481 Mn476 2.095 . S
O481 C490 1.250 . S
O482 Mn477 2.121 . S
O482 C490 1.258 . S
C483 N484 1.326 . S
C483 C487 1.460 . S
C483 H489 0.929 . S
N484 Mn477 2.257 . S
N484 C483 1.326 . S
N484 C488 1.362 . S
C485 C486 1.258 . S
C485 C488 1.431 . S
C485 C505 1.449 . S
C486 C485 1.258 . S
C486 C487 1.477 . S
C486 H506 0.931 . S
C487 C483 1.460 . S
C487 C486 1.477 . S
C487 H507 0.930 . S
C488 N484 1.362 . S
C488 C485 1.431 . S
C488 C498 1.476 . S
H489 C483 0.929 . S
C490 O481 1.250 . S
C490 O482 1.258 . S
O491 Mn476 2.162 . S
O491 C479 1.281 . S
O492 Mn476 2.297 . S
O492 C479 1.236 . S
N493 Mn477 2.282 . S
N493 C494 1.328 . S
N493 C498 1.318 . S
C494 N493 1.328 . S
C494 C495 1.457 . S
C494 H499 0.929 . S
C495 C494 1.457 . S
C495 C496 1.291 . S
C495 H508 0.931 . S
C496 C495 1.291 . S
C496 C497 1.373 . S
C496 H509 0.929 . S
C497 C496 1.373 . S
C497 C498 1.396 . S
C497 C504 1.403 . S
C498 C488 1.476 . S
C498 N493 1.318 . S
C498 C497 1.396 . S
H499 C494 0.929 . S
O500 Mn476 2.385 . S
O500 C478 1.234 . S
O501 Mn476 2.209 . S
O501 Mn477 2.215 . S
O501 C478 1.283 . S
O502 Mn476 2.094 . S
O502 C480 1.240 . S
O503 Mn477 2.117 . S
O503 C480 1.264 . S
C504 C497 1.403 . S
C504 C505 1.399 . S
C504 H510 0.929 . S
C505 C485 1.449 . S
C505 C504 1.399 . S
C505 H511 0.930 . S
H506 C486 0.931 . S
H507 C487 0.930 . S
H508 C495 0.931 . S
H509 C496 0.929 . S
H510 C504 0.929 . S
H511 C505 0.930 . S
Mn512 O517 2.095 . S
Mn512 O527 2.162 . S
Mn512 O528 2.297 . S
Mn512 O536 2.385 . S
Mn512 O537 2.209 . S
Mn512 O538 2.094 . S
Mn513 O518 2.121 . S
Mn513 N520 2.257 . S
Mn513 N529 2.282 . S
Mn513 O537 2.215 . S
Mn513 O539 2.117 . S
C514 O536 1.234 . S
C514 O537 1.283 . S
C515 O527 1.281 . S
C515 O528 1.236 . S
C516 O538 1.240 . S
C516 O539 1.264 . S
O517 Mn512 2.095 . S
O517 C526 1.250 . S
O518 Mn513 2.121 . S
O518 C526 1.258 . S
C519 N520 1.326 . S
C519 C523 1.460 . S
C519 H525 0.929 . S
N520 Mn513 2.257 . S
N520 C519 1.326 . S
N520 C524 1.362 . S
C521 C522 1.258 . S
C521 C524 1.431 . S
C521 C541 1.449 . S
C522 C521 1.258 . S
C522 C523 1.477 . S
C522 H542 0.931 . S
C523 C519 1.460 . S
C523 C522 1.477 . S
C523 H543 0.930 . S
C524 N520 1.362 . S
C524 C521 1.431 . S
C524 C534 1.476 . S
H525 C519 0.929 . S
C526 O517 1.250 . S
C526 O518 1.258 . S
O527 Mn512 2.162 . S
O527 C515 1.281 . S
O528 Mn512 2.297 . S
O528 C515 1.236 . S
N529 Mn513 2.282 . S
N529 C530 1.328 . S
N529 C534 1.318 . S
C530 N529 1.328 . S
C530 C531 1.457 . S
C530 H535 0.929 . S
C531 C530 1.457 . S
C531 C532 1.291 . S
C531 H544 0.931 . S
C532 C531 1.291 . S
C532 C533 1.373 . S
C532 H545 0.929 . S
C533 C532 1.373 . S
C533 C534 1.396 . S
C533 C540 1.403 . S
C534 C524 1.476 . S
C534 N529 1.318 . S
C534 C533 1.396 . S
H535 C530 0.929 . S
O536 Mn512 2.385 . S
O536 C514 1.234 . S
O537 Mn512 2.209 . S
O537 Mn513 2.215 . S
O537 C514 1.283 . S
O538 Mn512 2.094 . S
O538 C516 1.240 . S
O539 Mn513 2.117 . S
O539 C516 1.264 . S
C540 C533 1.403 . S
C540 C541 1.399 . S
C540 H546 0.929 . S
C541 C521 1.449 . S
C541 C540 1.399 . S
C541 H547 0.930 . S
H542 C522 0.931 . S
H543 C523 0.930 . S
H544 C531 0.931 . S
H545 C532 0.929 . S
H546 C540 0.929 . S
H547 C541 0.930 . S
Mn548 O553 2.095 . S
Mn548 O563 2.162 . S
Mn548 O564 2.297 . S
Mn548 O572 2.385 . S
Mn548 O573 2.209 . S
Mn548 O574 2.094 . S
Mn549 O554 2.121 . S
Mn549 N556 2.257 . S
Mn549 N565 2.282 . S
Mn549 O573 2.215 . S
Mn549 O575 2.117 . S
C550 O572 1.234 . S
C550 O573 1.283 . S
C551 O563 1.281 . S
C551 O564 1.236 . S
C552 O574 1.240 . S
C552 O575 1.264 . S
O553 Mn548 2.095 . S
O553 C562 1.250 . S
O554 Mn549 2.121 . S
O554 C562 1.258 . S
C555 N556 1.326 . S
C555 C559 1.460 . S
C555 H561 0.929 . S
N556 Mn549 2.257 . S
N556 C555 1.326 . S
N556 C560 1.362 . S
C557 C558 1.258 . S
C557 C560 1.431 . S
C557 C577 1.449 . S
C558 C557 1.258 . S
C558 C559 1.477 . S
C558 H578 0.931 . S
C559 C555 1.460 . S
C559 C558 1.477 . S
C559 H579 0.930 . S
C560 N556 1.362 . S
C560 C557 1.431 . S
C560 C570 1.476 . S
H561 C555 0.929 . S
C562 O553 1.250 . S
C562 O554 1.258 . S
O563 Mn548 2.162 . S
O563 C551 1.281 . S
O564 Mn548 2.297 . S
O564 C551 1.236 . S
N565 Mn549 2.282 . S
N565 C566 1.328 . S
N565 C570 1.318 . S
C566 N565 1.328 . S
C566 C567 1.457 . S
C566 H571 0.929 . S
C567 C566 1.457 . S
C567 C568 1.291 . S
C567 H580 0.931 . S
C568 C567 1.291 . S
C568 C569 1.373 . S
C568 H581 0.929 . S
C569 C568 1.373 . S
C569 C570 1.396 . S
C569 C576 1.403 . S
C570 C560 1.476 . S
C570 N565 1.318 . S
C570 C569 1.396 . S
H571 C566 0.929 . S
O572 Mn548 2.385 . S
O572 C550 1.234 . S
O573 Mn548 2.209 . S
O573 Mn549 2.215 . S
O573 C550 1.283 . S
O574 Mn548 2.094 . S
O574 C552 1.240 . S
O575 Mn549 2.117 . S
O575 C552 1.264 . S
C576 C569 1.403 . S
C576 C577 1.399 . S
C576 H582 0.929 . S
C577 C557 1.449 . S
C577 C576 1.399 . S
C577 H583 0.930 . S
H578 C558 0.931 . S
H579 C559 0.930 . S
H580 C567 0.931 . S
H581 C568 0.929 . S
H582 C576 0.929 . S
H583 C577 0.930 . S
Mn584 O589 2.095 . S
Mn584 O599 2.167 . S
Mn584 O600 2.297 1_554 S
Mn584 O608 2.385 1_554 S
Mn584 O609 2.209 1_554 S
Mn584 O610 2.094 . S
Mn585 O590 2.121 . S
Mn585 N592 2.245 1_554 S
Mn585 N601 2.282 1_554 S
Mn585 O609 2.215 1_554 S
Mn585 O611 2.117 . S
C586 O608 1.234 . S
C586 O609 1.283 . S
C587 O599 1.270 1_556 S
C587 O600 1.236 . S
C588 O610 1.240 . S
C588 O611 1.264 . S
O589 Mn584 2.095 . S
O589 C598 1.250 . S
O590 Mn585 2.121 . S
O590 C598 1.258 . S
C591 N592 1.305 1_554 S
C591 C595 1.460 . S
C591 H597 0.929 . S
N592 Mn585 2.245 1_556 S
N592 C591 1.305 1_556 S
N592 C596 1.397 . S
C593 C594 1.258 . S
C593 C596 1.431 . S
C593 C613 1.449 . S
C594 C593 1.258 . S
C594 C595 1.477 1_556 S
C594 H614 0.931 . S
C595 C591 1.460 . S
C595 C594 1.477 1_554 S
C595 H615 0.930 . S
C596 N592 1.397 . S
C596 C593 1.431 . S
C596 C606 1.476 . S
H597 C591 0.929 . S
C598 O589 1.250 . S
C598 O590 1.258 . S
O599 Mn584 2.167 . S
O599 C587 1.270 1_554 S
O600 Mn584 2.297 1_556 S
O600 C587 1.236 . S
N601 Mn585 2.282 1_556 S
N601 C602 1.328 . S
N601 C606 1.318 . S
C602 N601 1.328 . S
C602 C603 1.457 . S
C602 H607 0.929 . S
C603 C602 1.457 . S
C603 C604 1.291 . S
C603 H616 0.931 . S
C604 C603 1.291 . S
C604 C605 1.373 . S
C604 H617 0.929 . S
C605 C604 1.373 . S
C605 C606 1.396 . S
C605 C612 1.403 . S
C606 C596 1.476 . S
C606 N601 1.318 . S
C606 C605 1.396 . S
H607 C602 0.929 . S
O608 Mn584 2.385 1_556 S
O608 C586 1.234 . S
O609 Mn584 2.209 1_556 S
O609 Mn585 2.215 1_556 S
O609 C586 1.283 . S
O610 Mn584 2.094 . S
O610 C588 1.240 . S
O611 Mn585 2.117 . S
O611 C588 1.264 . S
C612 C605 1.403 . S
C612 C613 1.399 . S
C612 H618 0.929 . S
C613 C593 1.449 . S
C613 C612 1.399 . S
C613 H619 0.930 . S
H614 C594 0.931 . S
H615 C595 0.930 . S
H616 C603 0.931 . S
H617 C604 0.929 . S
H618 C612 0.929 . S
H619 C613 0.930 . S
Mn620 O625 2.095 . S
Mn620 O635 2.162 . S
Mn620 O636 2.297 . S
Mn620 O644 2.385 . S
Mn620 O645 2.209 . S
Mn620 O646 2.094 . S
Mn621 O626 2.121 . S
Mn621 N628 2.257 . S
Mn621 N637 2.282 . S
Mn621 O645 2.215 . S
Mn621 O647 2.117 . S
C622 O644 1.234 . S
C622 O645 1.283 . S
C623 O635 1.281 . S
C623 O636 1.236 . S
C624 O646 1.240 . S
C624 O647 1.264 . S
O625 Mn620 2.095 . S
O625 C634 1.250 . S
O626 Mn621 2.121 . S
O626 C634 1.258 . S
C627 N628 1.326 . S
C627 C631 1.460 . S
C627 H633 0.929 . S
N628 Mn621 2.257 . S
N628 C627 1.326 . S
N628 C632 1.362 . S
C629 C630 1.258 . S
C629 C632 1.431 . S
C629 C649 1.449 . S
C630 C629 1.258 . S
C630 C631 1.477 . S
C630 H650 0.931 . S
C631 C627 1.460 . S
C631 C630 1.477 . S
C631 H651 0.930 . S
C632 N628 1.362 . S
C632 C629 1.431 . S
C632 C642 1.476 . S
H633 C627 0.929 . S
C634 O625 1.250 . S
C634 O626 1.258 . S
O635 Mn620 2.162 . S
O635 C623 1.281 . S
O636 Mn620 2.297 . S
O636 C623 1.236 . S
N637 Mn621 2.282 . S
N637 C638 1.328 . S
N637 C642 1.318 . S
C638 N637 1.328 . S
C638 C639 1.457 . S
C638 H643 0.929 . S
C639 C638 1.457 . S
C639 C640 1.291 . S
C639 H652 0.931 . S
C640 C639 1.291 . S
C640 C641 1.373 . S
C640 H653 0.929 . S
C641 C640 1.373 . S
C641 C642 1.396 . S
C641 C648 1.403 . S
C642 C632 1.476 . S
C642 N637 1.318 . S
C642 C641 1.396 . S
H643 C638 0.929 . S
O644 Mn620 2.385 . S
O644 C622 1.234 . S
O645 Mn620 2.209 . S
O645 Mn621 2.215 . S
O645 C622 1.283 . S
O646 Mn620 2.094 . S
O646 C624 1.240 . S
O647 Mn621 2.117 . S
O647 C624 1.264 . S
C648 C641 1.403 . S
C648 C649 1.399 . S
C648 H654 0.929 . S
C649 C629 1.449 . S
C649 C648 1.399 . S
C649 H655 0.930 . S
H650 C630 0.931 . S
H651 C631 0.930 . S
H652 C639 0.931 . S
H653 C640 0.929 . S
H654 C648 0.929 . S
H655 C649 0.930 . S
H656 C664 0.929 . S
H657 C666 0.930 . S
H658 C668 0.930 . S
H659 C671 0.929 . S
H660 C674 0.930 . S
H661 C676 0.960 . S
H662 C676 0.960 . S
H663 C676 0.960 . S
C664 H656 0.929 . S
C664 C665 1.377 . S
C664 C666 1.384 . S
C665 C664 1.377 . S
C665 C671 1.390 . S
C666 H657 0.930 . S
C666 C664 1.384 . S
C666 C667 1.372 . S
C667 C666 1.372 . S
C667 C668 1.400 . S
C667 C672 1.490 . S
C668 H658 0.930 . S
C668 C667 1.400 . S
C668 C671 1.386 . S
H669 C685 0.930 . S
H670 C686 0.931 . S
C671 H659 0.929 . S
C671 C665 1.390 . S
C671 C668 1.386 . S
C672 C667 1.490 . S
C672 C674 1.395 . S
C672 C675 1.403 . S
H673 C679 0.930 . S
C674 H660 0.930 . S
C674 C672 1.395 . S
C674 C677 1.403 . S
C675 C672 1.403 . S
C675 C676 1.524 . S
C675 C679 1.400 . S
C676 H661 0.960 . S
C676 H662 0.960 . S
C676 H663 0.960 . S
C676 C675 1.524 . S
C677 C674 1.403 . S
C677 C678 1.392 . S
C677 C681 1.495 . S
C678 C677 1.392 . S
C678 C679 1.385 . S
C678 C680 1.478 . S
C679 H673 0.930 . S
C679 C675 1.400 . S
C679 C678 1.385 . S
C680 C678 1.478 . S
C680 C682 1.381 . S
C680 C686 1.383 . S
C681 C677 1.495 . S
C681 H687 0.959 . S
C681 H688 0.961 . S
C681 H689 0.960 . S
C682 C680 1.381 . S
C682 C683 1.394 . S
C682 H690 0.930 . S
C683 C682 1.394 . S
C683 C684 1.383 . S
C683 H691 0.929 . S
C684 C683 1.383 . S
C684 C685 1.377 . S
C685 H669 0.930 . S
C685 C684 1.377 . S
C685 C686 1.379 . S
C686 H670 0.931 . S
C686 C680 1.383 . S
C686 C685 1.379 . S
H687 C681 0.959 . S
H688 C681 0.961 . S
H689 C681 0.960 . S
H690 C682 0.930 . S
H691 C683 0.929 . S
H692 C700 0.929 . S
H693 C702 0.930 . S
H694 C704 0.930 . S
H695 C707 0.929 . S
H696 C710 0.930 . S
H697 C712 0.960 . S
H698 C712 0.960 . S
H699 C712 0.960 . S
C700 H692 0.929 . S
C700 C701 1.377 . S
C700 C702 1.384 . S
C701 C700 1.377 . S
C701 C707 1.390 . S
C702 H693 0.930 . S
C702 C700 1.384 . S
C702 C703 1.372 . S
C703 C702 1.372 . S
C703 C704 1.400 . S
C703 C708 1.490 . S
C704 H694 0.930 . S
C704 C703 1.400 . S
C704 C707 1.386 . S
H705 C721 0.930 . S
H706 C722 0.931 . S
C707 H695 0.929 . S
C707 C701 1.390 . S
C707 C704 1.386 . S
C708 C703 1.490 . S
C708 C710 1.395 . S
C708 C711 1.403 . S
H709 C715 0.930 . S
C710 H696 0.930 . S
C710 C708 1.395 . S
C710 C713 1.403 . S
C711 C708 1.403 . S
C711 C712 1.524 . S
C711 C715 1.400 . S
C712 H697 0.960 . S
C712 H698 0.960 . S
C712 H699 0.960 . S
C712 C711 1.524 . S
C713 C710 1.403 . S
C713 C714 1.392 . S
C713 C717 1.495 . S
C714 C713 1.392 . S
C714 C715 1.385 . S
C714 C716 1.478 . S
C715 H709 0.930 . S
C715 C711 1.400 . S
C715 C714 1.385 . S
C716 C714 1.478 . S
C716 C718 1.381 . S
C716 C722 1.383 . S
C717 C713 1.495 . S
C717 H723 0.959 . S
C717 H724 0.961 . S
C717 H725 0.960 . S
C718 C716 1.381 . S
C718 C719 1.394 . S
C718 H726 0.930 . S
C719 C718 1.394 . S
C719 C720 1.383 . S
C719 H727 0.929 . S
C720 C719 1.383 . S
C720 C721 1.377 . S
C721 H705 0.930 . S
C721 C720 1.377 . S
C721 C722 1.379 . S
C722 H706 0.931 . S
C722 C716 1.383 . S
C722 C721 1.379 . S
H723 C717 0.959 . S
H724 C717 0.961 . S
H725 C717 0.960 . S
H726 C718 0.930 . S
H727 C719 0.929 . S
H728 C736 0.929 . S
H729 C738 0.930 . S
H730 C740 0.930 . S
H731 C743 0.929 . S
H732 C746 0.930 . S
H733 C748 0.960 . S
H734 C748 0.960 . S
H735 C748 0.960 . S
C736 H728 0.929 . S
C736 C737 1.377 . S
C736 C738 1.384 . S
C737 C736 1.377 . S
C737 C743 1.390 . S
C738 H729 0.930 . S
C738 C736 1.384 . S
C738 C739 1.372 . S
C739 C738 1.372 . S
C739 C740 1.400 . S
C739 C744 1.490 . S
C740 H730 0.930 . S
C740 C739 1.400 . S
C740 C743 1.386 . S
H741 C757 0.930 . S
H742 C758 0.931 . S
C743 H731 0.929 . S
C743 C737 1.390 . S
C743 C740 1.386 . S
C744 C739 1.490 . S
C744 C746 1.395 . S
C744 C747 1.403 . S
H745 C751 0.930 . S
C746 H732 0.930 . S
C746 C744 1.395 . S
C746 C749 1.403 . S
C747 C744 1.403 . S
C747 C748 1.524 . S
C747 C751 1.400 . S
C748 H733 0.960 . S
C748 H734 0.960 . S
C748 H735 0.960 . S
C748 C747 1.524 . S
C749 C746 1.403 . S
C749 C750 1.392 . S
C749 C753 1.495 . S
C750 C749 1.392 . S
C750 C751 1.385 . S
C750 C752 1.478 . S
C751 H745 0.930 . S
C751 C747 1.400 . S
C751 C750 1.385 . S
C752 C750 1.478 . S
C752 C754 1.381 . S
C752 C758 1.383 . S
C753 C749 1.495 . S
C753 H759 0.959 . S
C753 H760 0.961 . S
C753 H761 0.960 . S
C754 C752 1.381 . S
C754 C755 1.394 . S
C754 H762 0.930 . S
C755 C754 1.394 . S
C755 C756 1.383 . S
C755 H763 0.929 . S
C756 C755 1.383 . S
C756 C757 1.377 . S
C757 H741 0.930 . S
C757 C756 1.377 . S
C757 C758 1.379 . S
C758 H742 0.931 . S
C758 C752 1.383 . S
C758 C757 1.379 . S
H759 C753 0.959 . S
H760 C753 0.961 . S
H761 C753 0.960 . S
H762 C754 0.930 . S
H763 C755 0.929 . S
H764 C772 0.929 . S
H765 C774 0.930 . S
H766 C776 0.930 . S
H767 C779 0.929 . S
H768 C782 0.930 . S
H769 C784 0.960 . S
H770 C784 0.960 . S
H771 C784 0.960 . S
C772 H764 0.929 . S
C772 C773 1.377 . S
C772 C774 1.384 . S
C773 C772 1.377 . S
C773 C779 1.390 . S
C774 H765 0.930 . S
C774 C772 1.384 . S
C774 C775 1.372 . S
C775 C774 1.372 . S
C775 C776 1.400 . S
C775 C780 1.490 . S
C776 H766 0.930 . S
C776 C775 1.400 . S
C776 C779 1.386 . S
H777 C793 0.930 . S
H778 C794 0.931 . S
C779 H767 0.929 . S
C779 C773 1.390 . S
C779 C776 1.386 . S
C780 C775 1.490 . S
C780 C782 1.395 . S
C780 C783 1.403 . S
H781 C787 0.930 . S
C782 H768 0.930 . S
C782 C780 1.395 . S
C782 C785 1.403 . S
C783 C780 1.403 . S
C783 C784 1.524 . S
C783 C787 1.400 . S
C784 H769 0.960 . S
C784 H770 0.960 . S
C784 H771 0.960 . S
C784 C783 1.524 . S
C785 C782 1.403 . S
C785 C786 1.392 . S
C785 C789 1.495 1_554 S
C786 C785 1.392 . S
C786 C787 1.385 . S
C786 C788 1.478 . S
C787 H781 0.930 . S
C787 C783 1.400 . S
C787 C786 1.385 . S
C788 C786 1.478 . S
C788 C790 1.381 . S
C788 C794 1.383 . S
C789 C785 1.495 1_556 S
C789 H795 0.959 . S
C789 H796 0.961 . S
C789 H797 0.960 . S
C790 C788 1.381 . S
C790 C791 1.394 . S
C790 H798 0.930 . S
C791 C790 1.394 . S
C791 C792 1.383 . S
C791 H799 0.929 1_554 S
C792 C791 1.383 . S
C792 C793 1.377 . S
C793 H777 0.930 . S
C793 C792 1.377 . S
C793 C794 1.379 . S
C794 H778 0.931 . S
C794 C788 1.383 . S
C794 C793 1.379 . S
H795 C789 0.959 . S
H796 C789 0.961 . S
H797 C789 0.960 . S
H798 C790 0.930 . S
H799 C791 0.929 1_556 S
H800 C808 0.929 . S
H801 C810 0.930 . S
H802 C812 0.930 . S
H803 C815 0.929 . S
H804 C818 0.930 . S
H805 C820 0.960 . S
H806 C820 0.960 . S
H807 C820 0.960 . S
C808 H800 0.929 . S
C808 C809 1.377 . S
C808 C810 1.384 . S
C809 C808 1.377 . S
C809 C815 1.390 . S
C810 H801 0.930 . S
C810 C808 1.384 . S
C810 C811 1.372 . S
C811 C810 1.372 . S
C811 C812 1.400 . S
C811 C816 1.490 . S
C812 H802 0.930 . S
C812 C811 1.400 . S
C812 C815 1.386 . S
H813 C829 0.930 . S
H814 C830 0.931 . S
C815 H803 0.929 . S
C815 C809 1.390 . S
C815 C812 1.386 . S
C816 C811 1.490 . S
C816 C818 1.395 . S
C816 C819 1.403 . S
H817 C823 0.930 . S
C818 H804 0.930 . S
C818 C816 1.395 . S
C818 C821 1.403 . S
C819 C816 1.403 . S
C819 C820 1.524 . S
C819 C823 1.400 . S
C820 H805 0.960 . S
C820 H806 0.960 . S
C820 H807 0.960 . S
C820 C819 1.524 . S
C821 C818 1.403 . S
C821 C822 1.392 . S
C821 C825 1.495 . S
C822 C821 1.392 . S
C822 C823 1.385 . S
C822 C824 1.478 . S
C823 H817 0.930 . S
C823 C819 1.400 . S
C823 C822 1.385 . S
C824 C822 1.478 . S
C824 C826 1.392 . S
C824 C830 1.383 . S
C825 C821 1.495 . S
C825 H831 0.959 . S
C825 H832 0.961 . S
C825 H833 0.960 1_556 S
C826 C824 1.392 . S
C826 C827 1.392 1_556 S
C826 H834 0.922 1_556 S
C827 C826 1.392 1_554 S
C827 C828 1.383 1_554 S
C827 H835 0.929 . S
C828 C827 1.383 1_556 S
C828 C829 1.377 . S
C829 H813 0.930 . S
C829 C828 1.377 . S
C829 C830 1.379 . S
C830 H814 0.931 . S
C830 C824 1.383 . S
C830 C829 1.379 . S
H831 C825 0.959 . S
H832 C825 0.961 . S
H833 C825 0.960 1_554 S
H834 C826 0.922 1_554 S
H835 C827 0.929 . S
H836 C844 0.929 . S
H837 C846 0.930 . S
H838 C848 0.930 . S
H839 C851 0.929 . S
H840 C854 0.930 . S
H841 C856 0.960 . S
H842 C856 0.960 . S
H843 C856 0.960 . S
C844 H836 0.929 . S
C844 C845 1.377 . S
C844 C846 1.384 . S
C845 C844 1.377 . S
C845 C851 1.390 . S
C846 H837 0.930 . S
C846 C844 1.384 . S
C846 C847 1.372 . S
C847 C846 1.372 . S
C847 C848 1.400 . S
C847 C852 1.490 . S
C848 H838 0.930 . S
C848 C847 1.400 . S
C848 C851 1.386 . S
H849 C865 0.930 . S
H850 C866 0.931 . S
C851 H839 0.929 . S
C851 C845 1.390 . S
C851 C848 1.386 . S
C852 C847 1.490 . S
C852 C854 1.395 . S
C852 C855 1.403 . S
H853 C859 0.930 . S
C854 H840 0.930 . S
C854 C852 1.395 . S
C854 C857 1.403 . S
C855 C852 1.403 . S
C855 C856 1.524 . S
C855 C859 1.400 . S
C856 H841 0.960 . S
C856 H842 0.960 . S
C856 H843 0.960 . S
C856 C855 1.524 . S
C857 C854 1.403 . S
C857 C858 1.392 . S
C857 C861 1.495 . S
C858 C857 1.392 . S
C858 C859 1.385 . S
C858 C860 1.478 . S
C859 H853 0.930 . S
C859 C855 1.400 . S
C859 C858 1.385 . S
C860 C858 1.478 . S
C860 C862 1.381 . S
C860 C866 1.383 . S
C861 C857 1.495 . S
C861 H867 0.959 . S
C861 H868 0.961 . S
C861 H869 0.960 . S
C862 C860 1.381 . S
C862 C863 1.394 . S
C862 H870 0.930 . S
C863 C862 1.394 . S
C863 C864 1.383 . S
C863 H871 0.929 . S
C864 C863 1.383 . S
C864 C865 1.377 . S
C865 H849 0.930 . S
C865 C864 1.377 . S
C865 C866 1.379 . S
C866 H850 0.931 . S
C866 C860 1.383 . S
C866 C865 1.379 . S
H867 C861 0.959 . S
H868 C861 0.961 . S
H869 C861 0.960 . S
H870 C862 0.930 . S
H871 C863 0.929 . S
H872 C880 0.929 . S
H873 C882 0.930 . S
H874 C884 0.930 . S
H875 C887 0.929 . S
H876 C890 0.930 . S
H877 C892 0.960 . S
H878 C892 0.960 . S
H879 C892 0.960 . S
C880 H872 0.929 . S
C880 C881 1.377 . S
C880 C882 1.384 . S
C881 C880 1.377 . S
C881 C887 1.390 . S
C882 H873 0.930 . S
C882 C880 1.384 . S
C882 C883 1.372 . S
C883 C882 1.372 . S
C883 C884 1.400 . S
C883 C888 1.490 . S
C884 H874 0.930 . S
C884 C883 1.400 . S
C884 C887 1.386 . S
H885 C901 0.930 . S
H886 C902 0.931 . S
C887 H875 0.929 . S
C887 C881 1.390 . S
C887 C884 1.386 . S
C888 C883 1.490 . S
C888 C890 1.395 . S
C888 C891 1.403 . S
H889 C895 0.930 . S
C890 H876 0.930 . S
C890 C888 1.395 . S
C890 C893 1.403 . S
C891 C888 1.403 . S
C891 C892 1.524 . S
C891 C895 1.400 . S
C892 H877 0.960 . S
C892 H878 0.960 . S
C892 H879 0.960 . S
C892 C891 1.524 . S
C893 C890 1.403 . S
C893 C894 1.392 . S
C893 C897 1.495 . S
C894 C893 1.392 . S
C894 C895 1.385 . S
C894 C896 1.478 . S
C895 H889 0.930 . S
C895 C891 1.400 . S
C895 C894 1.385 . S
C896 C894 1.478 . S
C896 C898 1.381 . S
C896 C902 1.383 . S
C897 C893 1.495 . S
C897 H903 0.959 . S
C897 H904 0.961 . S
C897 H905 0.960 . S
C898 C896 1.381 . S
C898 C899 1.394 . S
C898 H906 0.930 . S
C899 C898 1.394 . S
C899 C900 1.383 . S
C899 H907 0.929 . S
C900 C899 1.383 . S
C900 C901 1.377 . S
C901 H885 0.930 . S
C901 C900 1.377 . S
C901 C902 1.379 . S
C902 H886 0.931 . S
C902 C896 1.383 . S
C902 C901 1.379 . S
H903 C897 0.959 . S
H904 C897 0.961 . S
H905 C897 0.960 . S
H906 C898 0.930 . S
H907 C899 0.929 . S
H908 C916 0.929 . S
H909 C918 0.930 . S
H910 C920 0.930 . S
H911 C923 0.929 . S
H912 C926 0.930 . S
H913 C928 0.960 . S
H914 C928 0.960 . S
H915 C928 0.960 . S
C916 H908 0.929 . S
C916 C917 1.377 . S
C916 C918 1.384 . S
C917 C916 1.377 . S
C917 C923 1.390 . S
C918 H909 0.930 . S
C918 C916 1.384 . S
C918 C919 1.372 . S
C919 C918 1.372 . S
C919 C920 1.400 . S
C919 C924 1.490 . S
C920 H910 0.930 . S
C920 C919 1.400 . S
C920 C923 1.386 . S
H921 C937 0.930 . S
H922 C938 0.931 . S
C923 H911 0.929 . S
C923 C917 1.390 . S
C923 C920 1.386 . S
C924 C919 1.490 . S
C924 C926 1.395 . S
C924 C927 1.403 . S
H925 C931 0.930 . S
C926 H912 0.930 . S
C926 C924 1.395 . S
C926 C929 1.403 . S
C927 C924 1.403 . S
C927 C928 1.524 . S
C927 C931 1.400 . S
C928 H913 0.960 . S
C928 H914 0.960 . S
C928 H915 0.960 . S
C928 C927 1.524 . S
C929 C926 1.403 . S
C929 C930 1.392 . S
C929 C933 1.495 . S
C930 C929 1.392 . S
C930 C931 1.385 . S
C930 C932 1.478 . S
C931 H925 0.930 . S
C931 C927 1.400 . S
C931 C930 1.385 . S
C932 C930 1.478 . S
C932 C934 1.381 . S
C932 C938 1.383 . S
C933 C929 1.495 . S
C933 H939 0.959 . S
C933 H940 0.961 . S
C933 H941 0.960 . S
C934 C932 1.381 . S
C934 C935 1.394 . S
C934 H942 0.930 . S
C935 C934 1.394 . S
C935 C936 1.383 . S
C935 H943 0.929 . S
C936 C935 1.383 . S
C936 C937 1.377 . S
C937 H921 0.930 . S
C937 C936 1.377 . S
C937 C938 1.379 . S
C938 H922 0.931 . S
C938 C932 1.383 . S
C938 C937 1.379 . S
H939 C933 0.959 . S
H940 C933 0.961 . S
H941 C933 0.960 . S
H942 C934 0.930 . S
H943 C935 0.929 . S
H944 C952 0.929 . S
H945 C954 0.930 . S
H946 C956 0.930 . S
H947 C959 0.929 . S
H948 C962 0.930 . S
H949 C964 0.960 . S
H950 C964 0.960 . S
H951 C964 0.960 . S
C952 H944 0.929 . S
C952 C953 1.377 . S
C952 C954 1.384 . S
C953 C952 1.377 . S
C953 C959 1.390 . S
C954 H945 0.930 . S
C954 C952 1.384 . S
C954 C955 1.372 . S
C955 C954 1.372 . S
C955 C956 1.400 . S
C955 C960 1.490 . S
C956 H946 0.930 . S
C956 C955 1.400 . S
C956 C959 1.386 . S
H957 C973 0.930 . S
H958 C974 0.931 . S
C959 H947 0.929 . S
C959 C953 1.390 . S
C959 C956 1.386 . S
C960 C955 1.490 . S
C960 C962 1.395 . S
C960 C963 1.403 . S
H961 C967 0.930 . S
C962 H948 0.930 . S
C962 C960 1.395 . S
C962 C965 1.403 . S
C963 C960 1.403 . S
C963 C964 1.524 . S
C963 C967 1.400 . S
C964 H949 0.960 . S
C964 H950 0.960 . S
C964 H951 0.960 . S
C964 C963 1.524 . S
C965 C962 1.403 . S
C965 C966 1.392 . S
C965 C969 1.495 . S
C966 C965 1.392 . S
C966 C967 1.385 . S
C966 C968 1.478 . S
C967 H961 0.930 . S
C967 C963 1.400 . S
C967 C966 1.385 . S
C968 C966 1.478 . S
C968 C970 1.381 . S
C968 C974 1.383 . S
C969 C965 1.495 . S
C969 H975 0.959 . S
C969 H976 0.961 . S
C969 H977 0.960 . S
C970 C968 1.381 . S
C970 C971 1.394 . S
C970 H978 0.930 . S
C971 C970 1.394 . S
C971 C972 1.383 . S
C971 H979 0.929 . S
C972 C971 1.383 . S
C972 C973 1.377 . S
C973 H957 0.930 . S
C973 C972 1.377 . S
C973 C974 1.379 . S
C974 H958 0.931 . S
C974 C968 1.383 . S
C974 C973 1.379 . S
H975 C969 0.959 . S
H976 C969 0.961 . S
H977 C969 0.960 . S
H978 C970 0.930 . S
H979 C971 0.929 . S
H980 C988 0.929 . S
H981 C990 0.930 . S
H982 C992 0.930 . S
H983 C995 0.929 . S
H984 C998 0.930 . S
H985 C1000 0.960 . S
H986 C1000 0.960 . S
H987 C1000 0.960 . S
C988 H980 0.929 . S
C988 C989 1.377 . S
C988 C990 1.384 . S
C989 C988 1.377 . S
C989 C995 1.390 . S
C990 H981 0.930 . S
C990 C988 1.384 . S
C990 C991 1.372 . S
C991 C990 1.372 . S
C991 C992 1.400 . S
C991 C996 1.490 . S
C992 H982 0.930 . S
C992 C991 1.400 . S
C992 C995 1.386 . S
H993 C1009 0.930 1_556 S
H994 C1010 0.946 . S
C995 H983 0.929 . S
C995 C989 1.390 . S
C995 C992 1.386 . S
C996 C991 1.490 . S
C996 C998 1.395 . S
C996 C999 1.403 . S
H997 C1003 0.930 . S
C998 H984 0.930 . S
C998 C996 1.395 . S
C998 C1001 1.403 . S
C999 C996 1.403 . S
C999 C1000 1.524 . S
C999 C1003 1.400 . S
C1000 H985 0.960 . S
C1000 H986 0.960 . S
C1000 H987 0.960 . S
C1000 C999 1.524 . S
C1001 C998 1.403 . S
C1001 C1002 1.392 . S
C1001 C1005 1.495 . S
C1002 C1001 1.392 . S
C1002 C1003 1.385 . S
C1002 C1004 1.478 . S
C1003 H997 0.930 . S
C1003 C999 1.400 . S
C1003 C1002 1.385 . S
C1004 C1002 1.478 . S
C1004 C1006 1.381 . S
C1004 C1010 1.383 . S
C1005 C1001 1.495 . S
C1005 H1011 0.959 . S
C1005 H1012 0.961 . S
C1005 H1013 0.960 . S
C1006 C1004 1.381 . S
C1006 C1007 1.394 . S
C1006 H1014 0.930 . S
C1007 C1006 1.394 . S
C1007 C1008 1.383 . S
C1007 H1015 0.929 . S
C1008 C1007 1.383 . S
C1008 C1009 1.377 . S
C1009 H993 0.930 1_554 S
C1009 C1008 1.377 . S
C1009 C1010 1.379 . S
C1010 H994 0.946 . S
C1010 C1004 1.383 . S
C1010 C1009 1.379 . S
H1011 C1005 0.959 . S
H1012 C1005 0.961 . S
H1013 C1005 0.960 . S
H1014 C1006 0.930 . S
H1015 C1007 0.929 . S
H1016 C1024 0.929 . S
H1017 C1026 0.930 . S
H1018 C1028 0.930 . S
H1019 C1031 0.929 . S
H1020 C1034 0.930 . S
H1021 C1036 0.960 . S
H1022 C1036 0.960 . S
H1023 C1036 0.960 . S
C1024 H1016 0.929 . S
C1024 C1025 1.377 . S
C1024 C1026 1.384 . S
C1025 C1024 1.377 . S
C1025 C1031 1.390 . S
C1026 H1017 0.930 . S
C1026 C1024 1.384 . S
C1026 C1027 1.372 . S
C1027 C1026 1.372 . S
C1027 C1028 1.400 . S
C1027 C1032 1.490 . S
C1028 H1018 0.930 . S
C1028 C1027 1.400 . S
C1028 C1031 1.386 . S
H1029 C1045 0.930 . S
H1030 C1046 0.931 . S
C1031 H1019 0.929 . S
C1031 C1025 1.390 . S
C1031 C1028 1.386 . S
C1032 C1027 1.490 . S
C1032 C1034 1.395 . S
C1032 C1035 1.403 . S
H1033 C1039 0.930 . S
C1034 H1020 0.930 . S
C1034 C1032 1.395 . S
C1034 C1037 1.403 . S
C1035 C1032 1.403 . S
C1035 C1036 1.524 . S
C1035 C1039 1.400 . S
C1036 H1021 0.960 . S
C1036 H1022 0.960 . S
C1036 H1023 0.960 . S
C1036 C1035 1.524 . S
C1037 C1034 1.403 . S
C1037 C1038 1.392 . S
C1037 C1041 1.495 . S
C1038 C1037 1.392 . S
C1038 C1039 1.385 . S
C1038 C1040 1.478 . S
C1039 H1033 0.930 . S
C1039 C1035 1.400 . S
C1039 C1038 1.385 . S
C1040 C1038 1.478 . S
C1040 C1042 1.381 . S
C1040 C1046 1.383 . S
C1041 C1037 1.495 . S
C1041 H1047 0.959 . S
C1041 H1048 0.961 . S
C1041 H1049 0.960 . S
C1042 C1040 1.381 . S
C1042 C1043 1.394 . S
C1042 H1050 0.930 . S
C1043 C1042 1.394 . S
C1043 C1044 1.383 . S
C1043 H1051 0.929 . S
C1044 C1043 1.383 . S
C1044 C1045 1.377 . S
C1045 H1029 0.930 . S
C1045 C1044 1.377 . S
C1045 C1046 1.379 . S
C1046 H1030 0.931 . S
C1046 C1040 1.383 . S
C1046 C1045 1.379 . S
H1047 C1041 0.959 . S
H1048 C1041 0.961 . S
H1049 C1041 0.960 . S
H1050 C1042 0.930 . S
H1051 C1043 0.929 . S
H1052 C1060 0.929 . S
H1053 C1062 0.930 . S
H1054 C1064 0.930 . S
H1055 C1067 0.929 . S
H1056 C1070 0.930 . S
H1057 C1072 0.960 . S
H1058 C1072 0.960 . S
H1059 C1072 0.960 . S
C1060 H1052 0.929 . S
C1060 C1061 1.377 . S
C1060 C1062 1.384 . S
C1061 C1060 1.377 . S
C1061 C1067 1.390 . S
C1062 H1053 0.930 . S
C1062 C1060 1.384 . S
C1062 C1063 1.372 . S
C1063 C1062 1.372 . S
C1063 C1064 1.400 . S
C1063 C1068 1.490 . S
C1064 H1054 0.930 . S
C1064 C1063 1.400 . S
C1064 C1067 1.386 . S
H1065 C1081 0.930 . S
H1066 C1082 0.931 . S
C1067 H1055 0.929 . S
C1067 C1061 1.390 . S
C1067 C1064 1.386 . S
C1068 C1063 1.490 . S
C1068 C1070 1.395 . S
C1068 C1071 1.403 . S
H1069 C1075 0.930 . S
C1070 H1056 0.930 . S
C1070 C1068 1.395 . S
C1070 C1073 1.403 . S
C1071 C1068 1.403 . S
C1071 C1072 1.524 . S
C1071 C1075 1.400 . S
C1072 H1057 0.960 . S
C1072 H1058 0.960 . S
C1072 H1059 0.960 . S
C1072 C1071 1.524 . S
C1073 C1070 1.403 . S
C1073 C1074 1.392 . S
C1073 C1077 1.495 . S
C1074 C1073 1.392 . S
C1074 C1075 1.385 . S
C1074 C1076 1.478 . S
C1075 H1069 0.930 . S
C1075 C1071 1.400 . S
C1075 C1074 1.385 . S
C1076 C1074 1.478 . S
C1076 C1078 1.381 . S
C1076 C1082 1.383 . S
C1077 C1073 1.495 . S
C1077 H1083 0.959 . S
C1077 H1084 0.961 . S
C1077 H1085 0.960 . S
C1078 C1076 1.381 . S
C1078 C1079 1.394 . S
C1078 H1086 0.930 . S
C1079 C1078 1.394 . S
C1079 C1080 1.383 . S
C1079 H1087 0.929 . S
C1080 C1079 1.383 . S
C1080 C1081 1.377 . S
C1081 H1065 0.930 . S
C1081 C1080 1.377 . S
C1081 C1082 1.379 . S
C1082 H1066 0.931 . S
C1082 C1076 1.383 . S
C1082 C1081 1.379 . S
H1083 C1077 0.959 . S
H1084 C1077 0.961 . S
H1085 C1077 0.960 . S
H1086 C1078 0.930 . S
H1087 C1079 0.929 . S
H1088 C1096 0.929 . S
H1089 C1098 0.930 . S
H1090 C1100 0.930 . S
H1091 C1103 0.929 . S
H1092 C1106 0.930 . S
H1093 C1108 0.960 . S
H1094 C1108 0.960 . S
H1095 C1108 0.960 . S
C1096 H1088 0.929 . S
C1096 C1097 1.377 . S
C1096 C1098 1.384 . S
C1097 C1096 1.377 . S
C1097 C1103 1.390 . S
C1098 H1089 0.930 . S
C1098 C1096 1.384 . S
C1098 C1099 1.372 . S
C1099 C1098 1.372 . S
C1099 C1100 1.400 . S
C1099 C1104 1.490 . S
C1100 H1090 0.930 . S
C1100 C1099 1.400 . S
C1100 C1103 1.386 . S
H1101 C1117 0.930 . S
H1102 C1118 0.931 . S
C1103 H1091 0.929 . S
C1103 C1097 1.390 . S
C1103 C1100 1.386 . S
C1104 C1099 1.490 . S
C1104 C1106 1.395 . S
C1104 C1107 1.403 . S
H1105 C1111 0.930 . S
C1106 H1092 0.930 . S
C1106 C1104 1.395 . S
C1106 C1109 1.403 . S
C1107 C1104 1.403 . S
C1107 C1108 1.524 . S
C1107 C1111 1.400 . S
C1108 H1093 0.960 . S
C1108 H1094 0.960 . S
C1108 H1095 0.960 . S
C1108 C1107 1.524 . S
C1109 C1106 1.403 . S
C1109 C1110 1.392 . S
C1109 C1113 1.495 . S
C1110 C1109 1.392 . S
C1110 C1111 1.385 . S
C1110 C1112 1.478 . S
C1111 H1105 0.930 . S
C1111 C1107 1.400 . S
C1111 C1110 1.385 . S
C1112 C1110 1.478 . S
C1112 C1114 1.381 . S
C1112 C1118 1.383 . S
C1113 C1109 1.495 . S
C1113 H1119 0.959 . S
C1113 H1120 0.961 . S
C1113 H1121 0.960 . S
C1114 C1112 1.381 . S
C1114 C1115 1.394 . S
C1114 H1122 0.930 . S
C1115 C1114 1.394 . S
C1115 C1116 1.383 . S
C1115 H1123 0.929 . S
C1116 C1115 1.383 . S
C1116 C1117 1.377 . S
C1117 H1101 0.930 . S
C1117 C1116 1.377 . S
C1117 C1118 1.379 . S
C1118 H1102 0.931 . S
C1118 C1112 1.383 . S
C1118 C1117 1.379 . S
H1119 C1113 0.959 . S
H1120 C1113 0.961 . S
H1121 C1113 0.960 . S
H1122 C1114 0.930 . S
H1123 C1115 0.929 . S
H1124 C1132 0.929 . S
H1125 C1134 0.930 . S
H1126 C1136 0.930 . S
H1127 C1139 0.929 . S
H1128 C1142 0.930 . S
H1129 C1144 0.960 . S
H1130 C1144 0.960 . S
H1131 C1144 0.960 . S
C1132 H1124 0.929 . S
C1132 C1133 1.377 . S
C1132 C1134 1.384 . S
C1133 C1132 1.377 . S
C1133 C1139 1.390 . S
C1134 H1125 0.930 . S
C1134 C1132 1.384 . S
C1134 C1135 1.372 . S
C1135 C1134 1.372 . S
C1135 C1136 1.400 . S
C1135 C1140 1.490 . S
C1136 H1126 0.930 . S
C1136 C1135 1.400 . S
C1136 C1139 1.386 . S
H1137 C1153 0.930 . S
H1138 C1154 0.931 . S
C1139 H1127 0.929 . S
C1139 C1133 1.390 . S
C1139 C1136 1.386 . S
C1140 C1135 1.490 . S
C1140 C1142 1.395 . S
C1140 C1143 1.403 . S
H1141 C1147 0.930 . S
C1142 H1128 0.930 . S
C1142 C1140 1.395 . S
C1142 C1145 1.403 . S
C1143 C1140 1.403 . S
C1143 C1144 1.524 . S
C1143 C1147 1.400 . S
C1144 H1129 0.960 . S
C1144 H1130 0.960 . S
C1144 H1131 0.960 . S
C1144 C1143 1.524 . S
C1145 C1142 1.403 . S
C1145 C1146 1.392 . S
C1145 C1149 1.495 . S
C1146 C1145 1.392 . S
C1146 C1147 1.385 . S
C1146 C1148 1.478 . S
C1147 H1141 0.930 . S
C1147 C1143 1.400 . S
C1147 C1146 1.385 . S
C1148 C1146 1.478 . S
C1148 C1150 1.381 . S
C1148 C1154 1.383 . S
C1149 C1145 1.495 . S
C1149 H1155 0.959 . S
C1149 H1156 0.961 . S
C1149 H1157 0.960 . S
C1150 C1148 1.381 . S
C1150 C1151 1.394 . S
C1150 H1158 0.930 . S
C1151 C1150 1.394 . S
C1151 C1152 1.383 . S
C1151 H1159 0.929 . S
C1152 C1151 1.383 . S
C1152 C1153 1.377 . S
C1153 H1137 0.930 . S
C1153 C1152 1.377 . S
C1153 C1154 1.379 . S
C1154 H1138 0.931 . S
C1154 C1148 1.383 . S
C1154 C1153 1.379 . S
H1155 C1149 0.959 . S
H1156 C1149 0.961 . S
H1157 C1149 0.960 . S
H1158 C1150 0.930 . S
H1159 C1151 0.929 . S
H1160 C1168 0.929 . S
H1161 C1170 0.930 . S
H1162 C1172 0.930 . S
H1163 C1175 0.929 . S
H1164 C1178 0.930 . S
H1165 C1180 0.891 1_554 S
H1166 C1180 0.957 . S
H1167 C1180 0.978 . S
C1168 H1160 0.929 . S
C1168 C1169 1.377 . S
C1168 C1170 1.384 . S
C1169 C1168 1.377 . S
C1169 C1175 1.390 . S
C1170 H1161 0.930 . S
C1170 C1168 1.384 . S
C1170 C1171 1.372 . S
C1171 C1170 1.372 . S
C1171 C1172 1.400 . S
C1171 C1176 1.490 . S
C1172 H1162 0.930 . S
C1172 C1171 1.400 . S
C1172 C1175 1.386 . S
H1173 C1189 0.930 . S
H1174 C1190 0.931 . S
C1175 H1163 0.929 . S
C1175 C1169 1.390 . S
C1175 C1172 1.386 . S
C1176 C1171 1.490 . S
C1176 C1178 1.395 . S
C1176 C1179 1.403 . S
H1177 C1183 0.930 . S
C1178 H1164 0.930 . S
C1178 C1176 1.395 . S
C1178 C1181 1.403 . S
C1179 C1176 1.403 . S
C1179 C1180 1.587 . S
C1179 C1183 1.400 . S
C1180 H1165 0.891 1_556 S
C1180 H1166 0.957 . S
C1180 H1167 0.978 . S
C1180 C1179 1.587 . S
C1181 C1178 1.403 . S
C1181 C1182 1.392 . S
C1181 C1185 1.495 . S
C1182 C1181 1.392 . S
C1182 C1183 1.385 . S
C1182 C1184 1.478 . S
C1183 H1177 0.930 . S
C1183 C1179 1.400 . S
C1183 C1182 1.385 . S
C1184 C1182 1.478 . S
C1184 C1186 1.381 . S
C1184 C1190 1.383 . S
C1185 C1181 1.495 . S
C1185 H1191 0.959 . S
C1185 H1192 0.961 . S
C1185 H1193 0.960 . S
C1186 C1184 1.381 . S
C1186 C1187 1.394 . S
C1186 H1194 0.930 . S
C1187 C1186 1.394 . S
C1187 C1188 1.383 . S
C1187 H1195 0.929 . S
C1188 C1187 1.383 . S
C1188 C1189 1.377 . S
C1189 H1173 0.930 . S
C1189 C1188 1.377 . S
C1189 C1190 1.379 . S
C1190 H1174 0.931 . S
C1190 C1184 1.383 . S
C1190 C1189 1.379 . S
H1191 C1185 0.959 . S
H1192 C1185 0.961 . S
H1193 C1185 0.960 . S
H1194 C1186 0.930 . S
H1195 C1187 0.929 . S
H1196 C1204 0.929 . S
H1197 C1206 0.930 . S
H1198 C1208 0.930 . S
H1199 C1211 0.929 . S
H1200 C1214 0.930 . S
H1201 C1216 0.960 . S
H1202 C1216 0.960 . S
H1203 C1216 0.960 . S
C1204 H1196 0.929 . S
C1204 C1205 1.377 . S
C1204 C1206 1.384 . S
C1205 C1204 1.377 . S
C1205 C1211 1.390 . S
C1206 H1197 0.930 . S
C1206 C1204 1.384 . S
C1206 C1207 1.372 . S
C1207 C1206 1.372 . S
C1207 C1208 1.400 . S
C1207 C1212 1.490 . S
C1208 H1198 0.930 . S
C1208 C1207 1.400 . S
C1208 C1211 1.386 . S
H1209 C1225 0.930 . S
H1210 C1226 0.931 . S
C1211 H1199 0.929 . S
C1211 C1205 1.390 . S
C1211 C1208 1.386 . S
C1212 C1207 1.490 . S
C1212 C1214 1.395 . S
C1212 C1215 1.403 . S
H1213 C1219 0.930 . S
C1214 H1200 0.930 . S
C1214 C1212 1.395 . S
C1214 C1217 1.403 . S
C1215 C1212 1.403 . S
C1215 C1216 1.524 . S
C1215 C1219 1.400 . S
C1216 H1201 0.960 . S
C1216 H1202 0.960 . S
C1216 H1203 0.960 . S
C1216 C1215 1.524 . S
C1217 C1214 1.403 . S
C1217 C1218 1.392 . S
C1217 C1221 1.495 . S
C1218 C1217 1.392 . S
C1218 C1219 1.385 . S
C1218 C1220 1.478 . S
C1219 H1213 0.930 . S
C1219 C1215 1.400 . S
C1219 C1218 1.385 . S
C1220 C1218 1.478 . S
C1220 C1222 1.381 . S
C1220 C1226 1.383 . S
C1221 C1217 1.495 . S
C1221 H1227 0.959 . S
C1221 H1228 0.961 . S
C1221 H1229 0.960 . S
C1222 C1220 1.381 . S
C1222 C1223 1.394 . S
C1222 H1230 0.930 . S
C1223 C1222 1.394 . S
C1223 C1224 1.383 . S
C1223 H1231 0.929 . S
C1224 C1223 1.383 . S
C1224 C1225 1.377 . S
C1225 H1209 0.930 . S
C1225 C1224 1.377 . S
C1225 C1226 1.379 . S
C1226 H1210 0.931 . S
C1226 C1220 1.383 . S
C1226 C1225 1.379 . S
H1227 C1221 0.959 . S
H1228 C1221 0.961 . S
H1229 C1221 0.960 . S
H1230 C1222 0.930 . S
H1231 C1223 0.929 . S
H1232 C1240 0.929 . S
H1233 C1242 0.930 . S
H1234 C1244 0.930 . S
H1235 C1247 0.929 . S
H1236 C1250 0.930 . S
H1237 C1252 0.960 . S
H1238 C1252 0.960 . S
H1239 C1252 0.960 . S
C1240 H1232 0.929 . S
C1240 C1241 1.377 . S
C1240 C1242 1.384 . S
C1241 C1240 1.377 . S
C1241 C1247 1.390 . S
C1242 H1233 0.930 . S
C1242 C1240 1.384 . S
C1242 C1243 1.372 . S
C1243 C1242 1.372 . S
C1243 C1244 1.400 . S
C1243 C1248 1.490 . S
C1244 H1234 0.930 . S
C1244 C1243 1.400 . S
C1244 C1247 1.386 . S
H1245 C1261 0.930 . S
H1246 C1262 0.931 . S
C1247 H1235 0.929 . S
C1247 C1241 1.390 . S
C1247 C1244 1.386 . S
C1248 C1243 1.490 . S
C1248 C1250 1.395 . S
C1248 C1251 1.403 . S
H1249 C1255 0.930 . S
C1250 H1236 0.930 . S
C1250 C1248 1.395 . S
C1250 C1253 1.403 . S
C1251 C1248 1.403 . S
C1251 C1252 1.524 . S
C1251 C1255 1.400 . S
C1252 H1237 0.960 . S
C1252 H1238 0.960 . S
C1252 H1239 0.960 . S
C1252 C1251 1.524 . S
C1253 C1250 1.403 . S
C1253 C1254 1.392 . S
C1253 C1257 1.495 . S
C1254 C1253 1.392 . S
C1254 C1255 1.385 . S
C1254 C1256 1.478 . S
C1255 H1249 0.930 . S
C1255 C1251 1.400 . S
C1255 C1254 1.385 . S
C1256 C1254 1.478 . S
C1256 C1258 1.381 . S
C1256 C1262 1.383 . S
C1257 C1253 1.495 . S
C1257 H1263 0.959 . S
C1257 H1264 0.961 . S
C1257 H1265 0.960 . S
C1258 C1256 1.381 . S
C1258 C1259 1.394 . S
C1258 H1266 0.930 . S
C1259 C1258 1.394 . S
C1259 C1260 1.383 . S
C1259 H1267 0.929 . S
C1260 C1259 1.383 . S
C1260 C1261 1.377 . S
C1261 H1245 0.930 . S
C1261 C1260 1.377 . S
C1261 C1262 1.379 . S
C1262 H1246 0.931 . S
C1262 C1256 1.383 . S
C1262 C1261 1.379 . S
H1263 C1257 0.959 . S
H1264 C1257 0.961 . S
H1265 C1257 0.960 . S
H1266 C1258 0.930 . S
H1267 C1259 0.929 . S
H1268 C1276 0.929 . S
H1269 C1278 0.930 . S
H1270 C1280 0.930 . S
H1271 C1283 0.929 . S
H1272 C1286 0.930 . S
H1273 C1288 0.960 . S
H1274 C1288 0.960 . S
H1275 C1288 0.960 . S
C1276 H1268 0.929 . S
C1276 C1277 1.377 . S
C1276 C1278 1.384 . S
C1277 C1276 1.377 . S
C1277 C1283 1.390 . S
C1278 H1269 0.930 . S
C1278 C1276 1.384 . S
C1278 C1279 1.372 . S
C1279 C1278 1.372 . S
C1279 C1280 1.400 . S
C1279 C1284 1.490 . S
C1280 H1270 0.930 . S
C1280 C1279 1.400 . S
C1280 C1283 1.386 . S
H1281 C1297 0.930 . S
H1282 C1298 0.931 . S
C1283 H1271 0.929 . S
C1283 C1277 1.390 . S
C1283 C1280 1.386 . S
C1284 C1279 1.490 . S
C1284 C1286 1.395 . S
C1284 C1287 1.403 . S
H1285 C1291 0.930 . S
C1286 H1272 0.930 . S
C1286 C1284 1.395 . S
C1286 C1289 1.403 . S
C1287 C1284 1.403 . S
C1287 C1288 1.524 . S
C1287 C1291 1.400 . S
C1288 H1273 0.960 . S
C1288 H1274 0.960 . S
C1288 H1275 0.960 . S
C1288 C1287 1.524 . S
C1289 C1286 1.403 . S
C1289 C1290 1.392 . S
C1289 C1293 1.495 . S
C1290 C1289 1.392 . S
C1290 C1291 1.385 . S
C1290 C1292 1.478 . S
C1291 H1285 0.930 . S
C1291 C1287 1.400 . S
C1291 C1290 1.385 . S
C1292 C1290 1.478 . S
C1292 C1294 1.381 . S
C1292 C1298 1.383 . S
C1293 C1289 1.495 . S
C1293 H1299 0.959 . S
C1293 H1300 0.961 . S
C1293 H1301 0.960 . S
C1294 C1292 1.381 . S
C1294 C1295 1.394 . S
C1294 H1302 0.930 . S
C1295 C1294 1.394 . S
C1295 C1296 1.383 . S
C1295 H1303 0.929 . S
C1296 C1295 1.383 . S
C1296 C1297 1.377 . S
C1297 H1281 0.930 . S
C1297 C1296 1.377 . S
C1297 C1298 1.379 . S
C1298 H1282 0.931 . S
C1298 C1292 1.383 . S
C1298 C1297 1.379 . S
H1299 C1293 0.959 . S
H1300 C1293 0.961 . S
H1301 C1293 0.960 . S
H1302 C1294 0.930 . S
H1303 C1295 0.929 . S
H1304 C1312 0.929 . S
H1305 C1314 0.930 . S
H1306 C1316 0.930 . S
H1307 C1319 0.929 . S
H1308 C1322 0.930 . S
H1309 C1324 0.960 . S
H1310 C1324 0.960 . S
H1311 C1324 0.960 . S
C1312 H1304 0.929 . S
C1312 C1313 1.377 . S
C1312 C1314 1.384 . S
C1313 C1312 1.377 . S
C1313 C1319 1.390 . S
C1314 H1305 0.930 . S
C1314 C1312 1.384 . S
C1314 C1315 1.372 . S
C1315 C1314 1.372 . S
C1315 C1316 1.400 . S
C1315 C1320 1.490 . S
C1316 H1306 0.930 . S
C1316 C1315 1.400 . S
C1316 C1319 1.386 . S
H1317 C1333 0.930 . S
H1318 C1334 0.931 . S
C1319 H1307 0.929 . S
C1319 C1313 1.390 . S
C1319 C1316 1.386 . S
C1320 C1315 1.490 . S
C1320 C1322 1.395 . S
C1320 C1323 1.403 . S
H1321 C1327 0.930 . S
C1322 H1308 0.930 . S
C1322 C1320 1.395 . S
C1322 C1325 1.403 . S
C1323 C1320 1.403 . S
C1323 C1324 1.524 . S
C1323 C1327 1.400 . S
C1324 H1309 0.960 . S
C1324 H1310 0.960 . S
C1324 H1311 0.960 . S
C1324 C1323 1.524 . S
C1325 C1322 1.403 . S
C1325 C1326 1.392 . S
C1325 C1329 1.495 . S
C1326 C1325 1.392 . S
C1326 C1327 1.385 . S
C1326 C1328 1.478 . S
C1327 H1321 0.930 . S
C1327 C1323 1.400 . S
C1327 C1326 1.385 . S
C1328 C1326 1.478 . S
C1328 C1330 1.381 . S
C1328 C1334 1.383 . S
C1329 C1325 1.495 . S
C1329 H1335 0.959 . S
C1329 H1336 0.961 . S
C1329 H1337 0.960 . S
C1330 C1328 1.381 . S
C1330 C1331 1.394 . S
C1330 H1338 0.930 . S
C1331 C1330 1.394 . S
C1331 C1332 1.383 . S
C1331 H1339 0.929 . S
C1332 C1331 1.383 . S
C1332 C1333 1.377 . S
C1333 H1317 0.930 . S
C1333 C1332 1.377 . S
C1333 C1334 1.379 . S
C1334 H1318 0.931 . S
C1334 C1328 1.383 . S
C1334 C1333 1.379 . S
H1335 C1329 0.959 . S
H1336 C1329 0.961 . S
H1337 C1329 0.960 . S
H1338 C1330 0.930 . S
H1339 C1331 0.929 . S
H1340 C1348 0.929 . S
H1341 C1350 0.930 . S
H1342 C1352 0.930 . S
H1343 C1355 0.929 . S
H1344 C1358 0.930 . S
H1345 C1360 0.960 . S
H1346 C1360 0.960 . S
H1347 C1360 0.960 . S
C1348 H1340 0.929 . S
C1348 C1349 1.377 . S
C1348 C1350 1.384 . S
C1349 C1348 1.377 . S
C1349 C1355 1.390 . S
C1350 H1341 0.930 . S
C1350 C1348 1.384 . S
C1350 C1351 1.372 . S
C1351 C1350 1.372 . S
C1351 C1352 1.400 . S
C1351 C1356 1.490 . S
C1352 H1342 0.930 . S
C1352 C1351 1.400 . S
C1352 C1355 1.386 . S
H1353 C1369 0.930 . S
H1354 C1370 0.931 . S
C1355 H1343 0.929 . S
C1355 C1349 1.390 . S
C1355 C1352 1.386 . S
C1356 C1351 1.490 . S
C1356 C1358 1.395 . S
C1356 C1359 1.403 . S
H1357 C1363 0.930 . S
C1358 H1344 0.930 . S
C1358 C1356 1.395 . S
C1358 C1361 1.403 . S
C1359 C1356 1.403 . S
C1359 C1360 1.524 . S
C1359 C1363 1.400 . S
C1360 H1345 0.960 . S
C1360 H1346 0.960 . S
C1360 H1347 0.960 . S
C1360 C1359 1.524 . S
C1361 C1358 1.403 . S
C1361 C1362 1.392 . S
C1361 C1365 1.495 . S
C1362 C1361 1.392 . S
C1362 C1363 1.385 . S
C1362 C1364 1.478 . S
C1363 H1357 0.930 . S
C1363 C1359 1.400 . S
C1363 C1362 1.385 . S
C1364 C1362 1.478 . S
C1364 C1366 1.381 . S
C1364 C1370 1.383 . S
C1365 C1361 1.495 . S
C1365 H1371 0.959 . S
C1365 H1372 0.961 . S
C1365 H1373 0.960 . S
C1366 C1364 1.381 . S
C1366 C1367 1.394 . S
C1366 H1374 0.930 . S
C1367 C1366 1.394 . S
C1367 C1368 1.383 . S
C1367 H1375 0.929 . S
C1368 C1367 1.383 . S
C1368 C1369 1.377 . S
C1369 H1353 0.930 . S
C1369 C1368 1.377 . S
C1369 C1370 1.379 . S
C1370 H1354 0.931 . S
C1370 C1364 1.383 . S
C1370 C1369 1.379 . S
H1371 C1365 0.959 . S
H1372 C1365 0.961 . S
H1373 C1365 0.960 . S
H1374 C1366 0.930 . S
H1375 C1367 0.929 . S
H1376 C1384 0.929 . S
H1377 C1386 0.930 . S
H1378 C1388 0.930 . S
H1379 C1391 0.929 . S
H1380 C1394 0.930 . S
H1381 C1396 0.960 . S
H1382 C1396 0.960 . S
H1383 C1396 0.960 . S
C1384 H1376 0.929 . S
C1384 C1385 1.377 . S
C1384 C1386 1.384 . S
C1385 C1384 1.377 . S
C1385 C1391 1.390 . S
C1386 H1377 0.930 . S
C1386 C1384 1.384 . S
C1386 C1387 1.372 . S
C1387 C1386 1.372 . S
C1387 C1388 1.400 . S
C1387 C1392 1.490 . S
C1388 H1378 0.930 . S
C1388 C1387 1.400 . S
C1388 C1391 1.386 . S
H1389 C1405 0.930 . S
H1390 C1406 0.931 . S
C1391 H1379 0.929 . S
C1391 C1385 1.390 . S
C1391 C1388 1.386 . S
C1392 C1387 1.490 . S
C1392 C1394 1.395 . S
C1392 C1395 1.403 . S
H1393 C1399 0.930 . S
C1394 H1380 0.930 . S
C1394 C1392 1.395 . S
C1394 C1397 1.403 . S
C1395 C1392 1.403 . S
C1395 C1396 1.524 . S
C1395 C1399 1.400 . S
C1396 H1381 0.960 . S
C1396 H1382 0.960 . S
C1396 H1383 0.960 . S
C1396 C1395 1.524 . S
C1397 C1394 1.403 . S
C1397 C1398 1.392 . S
C1397 C1401 1.495 . S
C1398 C1397 1.392 . S
C1398 C1399 1.385 . S
C1398 C1400 1.478 . S
C1399 H1393 0.930 . S
C1399 C1395 1.400 . S
C1399 C1398 1.385 . S
C1400 C1398 1.478 . S
C1400 C1402 1.381 . S
C1400 C1406 1.383 . S
C1401 C1397 1.495 . S
C1401 H1407 0.959 . S
C1401 H1408 0.961 . S
C1401 H1409 0.960 . S
C1402 C1400 1.381 . S
C1402 C1403 1.394 . S
C1402 H1410 0.930 . S
C1403 C1402 1.394 . S
C1403 C1404 1.383 . S
C1403 H1411 0.929 . S
C1404 C1403 1.383 . S
C1404 C1405 1.377 . S
C1405 H1389 0.930 . S
C1405 C1404 1.377 . S
C1405 C1406 1.379 . S
C1406 H1390 0.931 . S
C1406 C1400 1.383 . S
C1406 C1405 1.379 . S
H1407 C1401 0.959 . S
H1408 C1401 0.961 . S
H1409 C1401 0.960 . S
H1410 C1402 0.930 . S
H1411 C1403 0.929 . S
H1412 C1420 0.929 . S
H1413 C1422 0.930 . S
H1414 C1424 0.930 . S
H1415 C1427 0.929 . S
H1416 C1430 0.930 . S
H1417 C1432 0.960 . S
H1418 C1432 0.960 . S
H1419 C1432 0.960 . S
C1420 H1412 0.929 . S
C1420 C1421 1.377 . S
C1420 C1422 1.384 . S
C1421 C1420 1.377 . S
C1421 C1427 1.390 . S
C1422 H1413 0.930 . S
C1422 C1420 1.384 . S
C1422 C1423 1.372 . S
C1423 C1422 1.372 . S
C1423 C1424 1.400 . S
C1423 C1428 1.490 . S
C1424 H1414 0.930 . S
C1424 C1423 1.400 . S
C1424 C1427 1.386 . S
H1425 C1441 0.930 . S
H1426 C1442 0.931 . S
C1427 H1415 0.929 . S
C1427 C1421 1.390 . S
C1427 C1424 1.386 . S
C1428 C1423 1.490 . S
C1428 C1430 1.395 . S
C1428 C1431 1.403 . S
H1429 C1435 0.930 . S
C1430 H1416 0.930 . S
C1430 C1428 1.395 . S
C1430 C1433 1.403 . S
C1431 C1428 1.403 . S
C1431 C1432 1.524 . S
C1431 C1435 1.400 . S
C1432 H1417 0.960 . S
C1432 H1418 0.960 . S
C1432 H1419 0.960 . S
C1432 C1431 1.524 . S
C1433 C1430 1.403 . S
C1433 C1434 1.392 . S
C1433 C1437 1.495 . S
C1434 C1433 1.392 . S
C1434 C1435 1.385 . S
C1434 C1436 1.478 . S
C1435 H1429 0.930 . S
C1435 C1431 1.400 . S
C1435 C1434 1.385 . S
C1436 C1434 1.478 . S
C1436 C1438 1.381 . S
C1436 C1442 1.383 . S
C1437 C1433 1.495 . S
C1437 H1443 0.959 . S
C1437 H1444 0.961 . S
C1437 H1445 0.960 . S
C1438 C1436 1.381 . S
C1438 C1439 1.394 . S
C1438 H1446 0.930 . S
C1439 C1438 1.394 . S
C1439 C1440 1.383 . S
C1439 H1447 0.929 . S
C1440 C1439 1.383 . S
C1440 C1441 1.377 . S
C1441 H1425 0.930 . S
C1441 C1440 1.377 . S
C1441 C1442 1.379 . S
C1442 H1426 0.931 . S
C1442 C1436 1.383 . S
C1442 C1441 1.379 . S
H1443 C1437 0.959 . S
H1444 C1437 0.961 . S
H1445 C1437 0.960 . S
H1446 C1438 0.930 . S
H1447 C1439 0.929 . S
H1448 C1456 0.929 . S
H1449 C1458 0.930 . S
H1450 C1460 0.930 . S
H1451 C1463 0.929 . S
H1452 C1466 0.930 . S
H1453 C1468 0.960 . S
H1454 C1468 0.960 . S
H1455 C1468 0.960 . S
C1456 H1448 0.929 . S
C1456 C1457 1.377 . S
C1456 C1458 1.384 . S
C1457 C1456 1.377 . S
C1457 C1463 1.390 . S
C1458 H1449 0.930 . S
C1458 C1456 1.384 . S
C1458 C1459 1.372 . S
C1459 C1458 1.372 . S
C1459 C1460 1.400 . S
C1459 C1464 1.490 . S
C1460 H1450 0.930 . S
C1460 C1459 1.400 . S
C1460 C1463 1.386 . S
H1461 C1477 0.930 . S
H1462 C1478 0.931 . S
C1463 H1451 0.929 . S
C1463 C1457 1.390 . S
C1463 C1460 1.386 . S
C1464 C1459 1.490 . S
C1464 C1466 1.395 . S
C1464 C1467 1.403 . S
H1465 C1471 0.930 . S
C1466 H1452 0.930 . S
C1466 C1464 1.395 . S
C1466 C1469 1.403 . S
C1467 C1464 1.403 . S
C1467 C1468 1.524 . S
C1467 C1471 1.400 . S
C1468 H1453 0.960 . S
C1468 H1454 0.960 . S
C1468 H1455 0.960 . S
C1468 C1467 1.524 . S
C1469 C1466 1.403 . S
C1469 C1470 1.392 . S
C1469 C1473 1.495 . S
C1470 C1469 1.392 . S
C1470 C1471 1.385 . S
C1470 C1472 1.478 . S
C1471 H1465 0.930 . S
C1471 C1467 1.400 . S
C1471 C1470 1.385 . S
C1472 C1470 1.478 . S
C1472 C1474 1.381 . S
C1472 C1478 1.383 . S
C1473 C1469 1.495 . S
C1473 H1479 0.959 . S
C1473 H1480 0.961 . S
C1473 H1481 0.960 . S
C1474 C1472 1.381 . S
C1474 C1475 1.394 . S
C1474 H1482 0.930 . S
C1475 C1474 1.394 . S
C1475 C1476 1.383 . S
C1475 H1483 0.929 . S
C1476 C1475 1.383 . S
C1476 C1477 1.377 . S
C1477 H1461 0.930 . S
C1477 C1476 1.377 . S
C1477 C1478 1.379 . S
C1478 H1462 0.931 . S
C1478 C1472 1.383 . S
C1478 C1477 1.379 . S
H1479 C1473 0.959 . S
H1480 C1473 0.961 . S
H1481 C1473 0.960 . S
H1482 C1474 0.930 . S
H1483 C1475 0.929 . S
H1484 C1492 0.929 . S
H1485 C1494 0.930 . S
H1486 C1496 0.930 . S
H1487 C1499 0.929 . S
H1488 C1502 0.930 . S
H1489 C1504 0.960 . S
H1490 C1504 0.960 . S
H1491 C1504 0.960 . S
C1492 H1484 0.929 . S
C1492 C1493 1.377 . S
C1492 C1494 1.384 . S
C1493 C1492 1.377 . S
C1493 C1499 1.390 . S
C1494 H1485 0.930 . S
C1494 C1492 1.384 . S
C1494 C1495 1.372 . S
C1495 C1494 1.372 . S
C1495 C1496 1.400 . S
C1495 C1500 1.490 . S
C1496 H1486 0.930 . S
C1496 C1495 1.400 . S
C1496 C1499 1.386 . S
H1497 C1513 0.930 . S
H1498 C1514 0.931 . S
C1499 H1487 0.929 . S
C1499 C1493 1.390 . S
C1499 C1496 1.386 . S
C1500 C1495 1.490 . S
C1500 C1502 1.395 . S
C1500 C1503 1.403 . S
H1501 C1507 0.930 . S
C1502 H1488 0.930 . S
C1502 C1500 1.395 . S
C1502 C1505 1.403 . S
C1503 C1500 1.403 . S
C1503 C1504 1.524 . S
C1503 C1507 1.400 . S
C1504 H1489 0.960 . S
C1504 H1490 0.960 . S
C1504 H1491 0.960 . S
C1504 C1503 1.524 . S
C1505 C1502 1.403 . S
C1505 C1506 1.392 . S
C1505 C1509 1.495 . S
C1506 C1505 1.392 . S
C1506 C1507 1.385 . S
C1506 C1508 1.478 . S
C1507 H1501 0.930 . S
C1507 C1503 1.400 . S
C1507 C1506 1.385 . S
C1508 C1506 1.478 . S
C1508 C1510 1.381 . S
C1508 C1514 1.383 . S
C1509 C1505 1.495 . S
C1509 H1515 0.959 . S
C1509 H1516 0.961 . S
C1509 H1517 0.960 . S
C1510 C1508 1.381 . S
C1510 C1511 1.394 . S
C1510 H1518 0.930 . S
C1511 C1510 1.394 . S
C1511 C1512 1.383 . S
C1511 H1519 0.929 . S
C1512 C1511 1.383 . S
C1512 C1513 1.377 . S
C1513 H1497 0.930 . S
C1513 C1512 1.377 . S
C1513 C1514 1.379 . S
C1514 H1498 0.931 . S
C1514 C1508 1.383 . S
C1514 C1513 1.379 . S
H1515 C1509 0.959 . S
H1516 C1509 0.961 . S
H1517 C1509 0.960 . S
H1518 C1510 0.930 . S
H1519 C1511 0.929 . S
H1520 C1528 0.929 . S
H1521 C1530 0.930 . S
H1522 C1532 0.930 . S
H1523 C1535 0.929 . S
H1524 C1538 0.930 . S
H1525 C1540 0.960 . S
H1526 C1540 0.960 . S
H1527 C1540 0.960 . S
C1528 H1520 0.929 . S
C1528 C1529 1.377 . S
C1528 C1530 1.384 . S
C1529 C1528 1.377 . S
C1529 C1535 1.390 . S
C1530 H1521 0.930 . S
C1530 C1528 1.384 . S
C1530 C1531 1.372 . S
C1531 C1530 1.372 . S
C1531 C1532 1.400 . S
C1531 C1536 1.490 . S
C1532 H1522 0.930 . S
C1532 C1531 1.400 . S
C1532 C1535 1.386 . S
H1533 C1549 0.930 . S
H1534 C1550 0.931 . S
C1535 H1523 0.929 . S
C1535 C1529 1.390 . S
C1535 C1532 1.386 . S
C1536 C1531 1.490 . S
C1536 C1538 1.395 . S
C1536 C1539 1.403 . S
H1537 C1543 0.930 . S
C1538 H1524 0.930 . S
C1538 C1536 1.395 . S
C1538 C1541 1.403 . S
C1539 C1536 1.403 . S
C1539 C1540 1.524 . S
C1539 C1543 1.400 . S
C1540 H1525 0.960 . S
C1540 H1526 0.960 . S
C1540 H1527 0.960 . S
C1540 C1539 1.524 . S
C1541 C1538 1.403 . S
C1541 C1542 1.392 . S
C1541 C1545 1.495 . S
C1542 C1541 1.392 . S
C1542 C1543 1.385 . S
C1542 C1544 1.478 . S
C1543 H1537 0.930 . S
C1543 C1539 1.400 . S
C1543 C1542 1.385 . S
C1544 C1542 1.478 . S
C1544 C1546 1.381 . S
C1544 C1550 1.383 . S
C1545 C1541 1.495 . S
C1545 H1551 0.959 . S
C1545 H1552 0.961 . S
C1545 H1553 0.960 . S
C1546 C1544 1.381 . S
C1546 C1547 1.394 . S
C1546 H1554 0.930 . S
C1547 C1546 1.394 . S
C1547 C1548 1.383 . S
C1547 H1555 0.929 . S
C1548 C1547 1.383 . S
C1548 C1549 1.377 . S
C1549 H1533 0.930 . S
C1549 C1548 1.377 . S
C1549 C1550 1.379 . S
C1550 H1534 0.931 . S
C1550 C1544 1.383 . S
C1550 C1549 1.379 . S
H1551 C1545 0.959 . S
H1552 C1545 0.961 . S
H1553 C1545 0.960 . S
H1554 C1546 0.930 . S
H1555 C1547 0.929 . S
H1556 C1564 0.929 . S
H1557 C1566 0.930 . S
H1558 C1568 0.930 . S
H1559 C1571 0.929 . S
H1560 C1574 0.930 . S
H1561 C1576 0.960 . S
H1562 C1576 0.960 . S
H1563 C1576 0.960 . S
C1564 H1556 0.929 . S
C1564 C1565 1.377 . S
C1564 C1566 1.384 . S
C1565 C1564 1.377 . S
C1565 C1571 1.390 . S
C1566 H1557 0.930 . S
C1566 C1564 1.384 . S
C1566 C1567 1.372 . S
C1567 C1566 1.372 . S
C1567 C1568 1.400 . S
C1567 C1572 1.490 . S
C1568 H1558 0.930 . S
C1568 C1567 1.400 . S
C1568 C1571 1.386 . S
H1569 C1585 0.930 . S
H1570 C1586 0.931 . S
C1571 H1559 0.929 . S
C1571 C1565 1.390 . S
C1571 C1568 1.386 . S
C1572 C1567 1.490 . S
C1572 C1574 1.395 . S
C1572 C1575 1.403 . S
H1573 C1579 0.930 . S
C1574 H1560 0.930 . S
C1574 C1572 1.395 . S
C1574 C1577 1.403 . S
C1575 C1572 1.403 . S
C1575 C1576 1.524 . S
C1575 C1579 1.400 . S
C1576 H1561 0.960 . S
C1576 H1562 0.960 . S
C1576 H1563 0.960 . S
C1576 C1575 1.524 . S
C1577 C1574 1.403 . S
C1577 C1578 1.392 . S
C1577 C1581 1.495 . S
C1578 C1577 1.392 . S
C1578 C1579 1.385 . S
C1578 C1580 1.478 . S
C1579 H1573 0.930 . S
C1579 C1575 1.400 . S
C1579 C1578 1.385 . S
C1580 C1578 1.478 . S
C1580 C1582 1.381 . S
C1580 C1586 1.383 . S
C1581 C1577 1.495 . S
C1581 H1587 0.959 . S
C1581 H1588 0.961 . S
C1581 H1589 0.960 . S
C1582 C1580 1.381 . S
C1582 C1583 1.394 . S
C1582 H1590 0.930 . S
C1583 C1582 1.394 . S
C1583 C1584 1.383 . S
C1583 H1591 0.929 . S
C1584 C1583 1.383 . S
C1584 C1585 1.377 . S
C1585 H1569 0.930 . S
C1585 C1584 1.377 . S
C1585 C1586 1.379 . S
C1586 H1570 0.931 . S
C1586 C1580 1.383 . S
C1586 C1585 1.379 . S
H1587 C1581 0.959 . S
H1588 C1581 0.961 . S
H1589 C1581 0.960 . S
H1590 C1582 0.930 . S
H1591 C1583 0.929 . S
H1592 C1600 0.929 . S
H1593 C1602 0.930 . S
H1594 C1604 0.930 . S
H1595 C1607 0.929 . S
H1596 C1610 0.930 . S
H1597 C1612 0.960 . S
H1598 C1612 0.960 . S
H1599 C1612 0.960 . S
C1600 H1592 0.929 . S
C1600 C1601 1.377 . S
C1600 C1602 1.384 . S
C1601 C1600 1.377 . S
C1601 C1607 1.390 . S
C1602 H1593 0.930 . S
C1602 C1600 1.384 . S
C1602 C1603 1.372 . S
C1603 C1602 1.372 . S
C1603 C1604 1.400 . S
C1603 C1608 1.490 . S
C1604 H1594 0.930 . S
C1604 C1603 1.400 . S
C1604 C1607 1.386 . S
H1605 C1621 0.930 . S
H1606 C1622 0.931 . S
C1607 H1595 0.929 . S
C1607 C1601 1.390 . S
C1607 C1604 1.386 . S
C1608 C1603 1.490 . S
C1608 C1610 1.395 . S
C1608 C1611 1.403 . S
H1609 C1615 0.930 . S
C1610 H1596 0.930 . S
C1610 C1608 1.395 . S
C1610 C1613 1.403 . S
C1611 C1608 1.403 . S
C1611 C1612 1.524 . S
C1611 C1615 1.400 . S
C1612 H1597 0.960 . S
C1612 H1598 0.960 . S
C1612 H1599 0.960 . S
C1612 C1611 1.524 . S
C1613 C1610 1.403 . S
C1613 C1614 1.392 . S
C1613 C1617 1.495 . S
C1614 C1613 1.392 . S
C1614 C1615 1.385 . S
C1614 C1616 1.478 . S
C1615 H1609 0.930 . S
C1615 C1611 1.400 . S
C1615 C1614 1.385 . S
C1616 C1614 1.478 . S
C1616 C1618 1.381 . S
C1616 C1622 1.383 . S
C1617 C1613 1.495 . S
C1617 H1623 0.959 . S
C1617 H1624 0.961 . S
C1617 H1625 0.960 . S
C1618 C1616 1.381 . S
C1618 C1619 1.394 . S
C1618 H1626 0.930 . S
C1619 C1618 1.394 . S
C1619 C1620 1.383 . S
C1619 H1627 0.929 . S
C1620 C1619 1.383 . S
C1620 C1621 1.377 . S
C1621 H1605 0.930 . S
C1621 C1620 1.377 . S
C1621 C1622 1.379 . S
C1622 H1606 0.931 . S
C1622 C1616 1.383 . S
C1622 C1621 1.379 . S
H1623 C1617 0.959 . S
H1624 C1617 0.961 . S
H1625 C1617 0.960 . S
H1626 C1618 0.930 . S
H1627 C1619 0.929 . S
H1628 C1636 0.929 . S
H1629 C1638 0.930 . S
H1630 C1640 0.930 . S
H1631 C1643 0.929 . S
H1632 C1646 0.930 . S
H1633 C1648 0.960 . S
H1634 C1648 0.960 . S
H1635 C1648 0.960 . S
C1636 H1628 0.929 . S
C1636 C1637 1.377 . S
C1636 C1638 1.384 . S
C1637 C1636 1.377 . S
C1637 C1643 1.390 . S
C1638 H1629 0.930 . S
C1638 C1636 1.384 . S
C1638 C1639 1.372 . S
C1639 C1638 1.372 . S
C1639 C1640 1.400 . S
C1639 C1644 1.490 . S
C1640 H1630 0.930 . S
C1640 C1639 1.400 . S
C1640 C1643 1.386 . S
H1641 C1657 0.930 . S
H1642 C1658 0.931 . S
C1643 H1631 0.929 . S
C1643 C1637 1.390 . S
C1643 C1640 1.386 . S
C1644 C1639 1.490 . S
C1644 C1646 1.395 . S
C1644 C1647 1.403 . S
H1645 C1651 0.930 . S
C1646 H1632 0.930 . S
C1646 C1644 1.395 . S
C1646 C1649 1.403 . S
C1647 C1644 1.403 . S
C1647 C1648 1.524 . S
C1647 C1651 1.400 . S
C1648 H1633 0.960 . S
C1648 H1634 0.960 . S
C1648 H1635 0.960 . S
C1648 C1647 1.524 . S
C1649 C1646 1.403 . S
C1649 C1650 1.392 . S
C1649 C1653 1.495 . S
C1650 C1649 1.392 . S
C1650 C1651 1.385 . S
C1650 C1652 1.478 . S
C1651 H1645 0.930 . S
C1651 C1647 1.400 . S
C1651 C1650 1.385 . S
C1652 C1650 1.478 . S
C1652 C1654 1.381 . S
C1652 C1658 1.383 . S
C1653 C1649 1.495 . S
C1653 H1659 0.959 . S
C1653 H1660 0.961 . S
C1653 H1661 0.960 . S
C1654 C1652 1.381 . S
C1654 C1655 1.394 . S
C1654 H1662 0.930 . S
C1655 C1654 1.394 . S
C1655 C1656 1.383 . S
C1655 H1663 0.929 . S
C1656 C1655 1.383 . S
C1656 C1657 1.377 . S
C1657 H1641 0.930 . S
C1657 C1656 1.377 . S
C1657 C1658 1.379 . S
C1658 H1642 0.931 . S
C1658 C1652 1.383 . S
C1658 C1657 1.379 . S
H1659 C1653 0.959 . S
H1660 C1653 0.961 . S
H1661 C1653 0.960 . S
H1662 C1654 0.930 . S
H1663 C1655 0.929 . S
H1664 C1672 0.929 . S
H1665 C1674 0.930 . S
H1666 C1676 0.930 . S
H1667 C1679 0.929 . S
H1668 C1682 0.930 . S
H1669 C1684 0.960 . S
H1670 C1684 0.960 . S
H1671 C1684 0.960 . S
C1672 H1664 0.929 . S
C1672 C1673 1.377 . S
C1672 C1674 1.384 . S
C1673 C1672 1.377 . S
C1673 C1679 1.390 . S
C1674 H1665 0.930 . S
C1674 C1672 1.384 . S
C1674 C1675 1.372 . S
C1675 C1674 1.372 . S
C1675 C1676 1.400 . S
C1675 C1680 1.490 . S
C1676 H1666 0.930 . S
C1676 C1675 1.400 . S
C1676 C1679 1.386 . S
H1677 C1693 0.930 . S
H1678 C1694 0.931 . S
C1679 H1667 0.929 . S
C1679 C1673 1.390 . S
C1679 C1676 1.386 . S
C1680 C1675 1.490 . S
C1680 C1682 1.395 . S
C1680 C1683 1.403 . S
H1681 C1687 0.930 . S
C1682 H1668 0.930 . S
C1682 C1680 1.395 . S
C1682 C1685 1.403 . S
C1683 C1680 1.403 . S
C1683 C1684 1.524 . S
C1683 C1687 1.400 . S
C1684 H1669 0.960 . S
C1684 H1670 0.960 . S
C1684 H1671 0.960 . S
C1684 C1683 1.524 . S
C1685 C1682 1.403 . S
C1685 C1686 1.392 . S
C1685 C1689 1.495 . S
C1686 C1685 1.392 . S
C1686 C1687 1.385 . S
C1686 C1688 1.478 . S
C1687 H1681 0.930 . S
C1687 C1683 1.400 . S
C1687 C1686 1.385 . S
C1688 C1686 1.478 . S
C1688 C1690 1.381 . S
C1688 C1694 1.383 . S
C1689 C1685 1.495 . S
C1689 H1695 0.959 . S
C1689 H1696 0.961 . S
C1689 H1697 0.960 . S
C1690 C1688 1.381 . S
C1690 C1691 1.394 . S
C1690 H1698 0.930 . S
C1691 C1690 1.394 . S
C1691 C1692 1.383 . S
C1691 H1699 0.929 . S
C1692 C1691 1.383 . S
C1692 C1693 1.377 . S
C1693 H1677 0.930 . S
C1693 C1692 1.377 . S
C1693 C1694 1.379 . S
C1694 H1678 0.931 . S
C1694 C1688 1.383 . S
C1694 C1693 1.379 . S
H1695 C1689 0.959 . S
H1696 C1689 0.961 . S
H1697 C1689 0.960 . S
H1698 C1690 0.930 . S
H1699 C1691 0.929 . S
H1700 C1708 0.929 . S
H1701 C1710 0.930 . S
H1702 C1712 0.930 . S
H1703 C1715 0.929 . S
H1704 C1718 0.930 . S
H1705 C1720 0.960 . S
H1706 C1720 0.960 . S
H1707 C1720 0.960 . S
C1708 H1700 0.929 . S
C1708 C1709 1.377 . S
C1708 C1710 1.384 . S
C1709 C1708 1.377 . S
C1709 C1715 1.390 . S
C1710 H1701 0.930 . S
C1710 C1708 1.384 . S
C1710 C1711 1.372 . S
C1711 C1710 1.372 . S
C1711 C1712 1.400 . S
C1711 C1716 1.490 . S
C1712 H1702 0.930 . S
C1712 C1711 1.400 . S
C1712 C1715 1.386 . S
H1713 C1729 0.930 . S
H1714 C1730 0.931 . S
C1715 H1703 0.929 . S
C1715 C1709 1.390 . S
C1715 C1712 1.386 . S
C1716 C1711 1.490 . S
C1716 C1718 1.395 . S
C1716 C1719 1.403 . S
H1717 C1723 0.930 . S
C1718 H1704 0.930 . S
C1718 C1716 1.395 . S
C1718 C1721 1.403 . S
C1719 C1716 1.403 . S
C1719 C1720 1.524 . S
C1719 C1723 1.400 . S
C1720 H1705 0.960 . S
C1720 H1706 0.960 . S
C1720 H1707 0.960 . S
C1720 C1719 1.524 . S
C1721 C1718 1.403 . S
C1721 C1722 1.392 . S
C1721 C1725 1.495 . S
C1722 C1721 1.392 . S
C1722 C1723 1.385 . S
C1722 C1724 1.478 . S
C1723 H1717 0.930 . S
C1723 C1719 1.400 . S
C1723 C1722 1.385 . S
C1724 C1722 1.478 . S
C1724 C1726 1.381 . S
C1724 C1730 1.383 . S
C1725 C1721 1.495 . S
C1725 H1731 0.959 . S
C1725 H1732 0.961 . S
C1725 H1733 0.960 . S
C1726 C1724 1.381 . S
C1726 C1727 1.394 . S
C1726 H1734 0.930 . S
C1727 C1726 1.394 . S
C1727 C1728 1.383 . S
C1727 H1735 0.929 . S
C1728 C1727 1.383 . S
C1728 C1729 1.377 . S
C1729 H1713 0.930 . S
C1729 C1728 1.377 . S
C1729 C1730 1.379 . S
C1730 H1714 0.931 . S
C1730 C1724 1.383 . S
C1730 C1729 1.379 . S
H1731 C1725 0.959 . S
H1732 C1725 0.961 . S
H1733 C1725 0.960 . S
H1734 C1726 0.930 . S
H1735 C1727 0.929 . S
H1736 C1744 0.929 . S
H1737 C1746 0.930 . S
H1738 C1748 0.930 . S
H1739 C1751 0.929 . S
H1740 C1754 0.930 . S
H1741 C1756 0.960 . S
H1742 C1756 0.960 . S
H1743 C1756 0.960 . S
C1744 H1736 0.929 . S
C1744 C1745 1.377 . S
C1744 C1746 1.384 . S
C1745 C1744 1.377 . S
C1745 C1751 1.390 . S
C1746 H1737 0.930 . S
C1746 C1744 1.384 . S
C1746 C1747 1.372 . S
C1747 C1746 1.372 . S
C1747 C1748 1.400 . S
C1747 C1752 1.490 . S
C1748 H1738 0.930 . S
C1748 C1747 1.400 . S
C1748 C1751 1.386 . S
H1749 C1765 0.930 . S
H1750 C1766 0.931 . S
C1751 H1739 0.929 . S
C1751 C1745 1.390 . S
C1751 C1748 1.386 . S
C1752 C1747 1.490 . S
C1752 C1754 1.395 . S
C1752 C1755 1.403 . S
H1753 C1759 0.930 . S
C1754 H1740 0.930 . S
C1754 C1752 1.395 . S
C1754 C1757 1.403 . S
C1755 C1752 1.403 . S
C1755 C1756 1.524 . S
C1755 C1759 1.400 . S
C1756 H1741 0.960 . S
C1756 H1742 0.960 . S
C1756 H1743 0.960 . S
C1756 C1755 1.524 . S
C1757 C1754 1.403 . S
C1757 C1758 1.392 . S
C1757 C1761 1.495 . S
C1758 C1757 1.392 . S
C1758 C1759 1.385 . S
C1758 C1760 1.478 . S
C1759 H1753 0.930 . S
C1759 C1755 1.400 . S
C1759 C1758 1.385 . S
C1760 C1758 1.478 . S
C1760 C1762 1.381 . S
C1760 C1766 1.383 . S
C1761 C1757 1.495 . S
C1761 H1767 0.959 . S
C1761 H1768 0.961 . S
C1761 H1769 0.960 . S
C1762 C1760 1.381 . S
C1762 C1763 1.394 . S
C1762 H1770 0.930 . S
C1763 C1762 1.394 . S
C1763 C1764 1.383 . S
C1763 H1771 0.929 . S
C1764 C1763 1.383 . S
C1764 C1765 1.377 . S
C1765 H1749 0.930 . S
C1765 C1764 1.377 . S
C1765 C1766 1.379 . S
C1766 H1750 0.931 . S
C1766 C1760 1.383 . S
C1766 C1765 1.379 . S
H1767 C1761 0.959 . S
H1768 C1761 0.961 . S
H1769 C1761 0.960 . S
H1770 C1762 0.930 . S
H1771 C1763 0.929 . S
H1772 C1780 0.929 . S
H1773 C1782 0.930 . S
H1774 C1784 0.930 . S
H1775 C1787 0.929 . S
H1776 C1790 0.930 . S
H1777 C1792 0.960 . S
H1778 C1792 0.960 . S
H1779 C1792 0.960 . S
C1780 H1772 0.929 . S
C1780 C1781 1.377 . S
C1780 C1782 1.384 . S
C1781 C1780 1.377 . S
C1781 C1787 1.390 . S
C1782 H1773 0.930 . S
C1782 C1780 1.384 . S
C1782 C1783 1.372 . S
C1783 C1782 1.372 . S
C1783 C1784 1.400 . S
C1783 C1788 1.490 . S
C1784 H1774 0.930 . S
C1784 C1783 1.400 . S
C1784 C1787 1.386 . S
H1785 C1801 0.930 . S
H1786 C1802 0.931 . S
C1787 H1775 0.929 . S
C1787 C1781 1.390 . S
C1787 C1784 1.386 . S
C1788 C1783 1.490 . S
C1788 C1790 1.395 . S
C1788 C1791 1.403 . S
H1789 C1795 0.930 . S
C1790 H1776 0.930 . S
C1790 C1788 1.395 . S
C1790 C1793 1.403 . S
C1791 C1788 1.403 . S
C1791 C1792 1.524 . S
C1791 C1795 1.400 . S
C1792 H1777 0.960 . S
C1792 H1778 0.960 . S
C1792 H1779 0.960 . S
C1792 C1791 1.524 . S
C1793 C1790 1.403 . S
C1793 C1794 1.392 . S
C1793 C1797 1.495 . S
C1794 C1793 1.392 . S
C1794 C1795 1.385 . S
C1794 C1796 1.478 . S
C1795 H1789 0.930 . S
C1795 C1791 1.400 . S
C1795 C1794 1.385 . S
C1796 C1794 1.478 . S
C1796 C1798 1.381 . S
C1796 C1802 1.383 . S
C1797 C1793 1.495 . S
C1797 H1803 0.959 . S
C1797 H1804 0.961 . S
C1797 H1805 0.960 . S
C1798 C1796 1.381 . S
C1798 C1799 1.394 . S
C1798 H1806 0.930 . S
C1799 C1798 1.394 . S
C1799 C1800 1.383 . S
C1799 H1807 0.929 . S
C1800 C1799 1.383 . S
C1800 C1801 1.377 . S
C1801 H1785 0.930 . S
C1801 C1800 1.377 . S
C1801 C1802 1.379 . S
C1802 H1786 0.931 . S
C1802 C1796 1.383 . S
C1802 C1801 1.379 . S
H1803 C1797 0.959 . S
H1804 C1797 0.961 . S
H1805 C1797 0.960 . S
H1806 C1798 0.930 . S
H1807 C1799 0.929 . S
C684 C407 1.190 . S
C665 C8 1.190 . S
C720 C444 1.161 . S
C701 C61 1.193 . S
C756 C480 1.188 . S
C737 C107 1.201 . S
C773 C139 1.196 . S
C792 C371 1.215 . S
C809 C192 1.208 . S
C828 C372 1.183 . S
C845 C238 1.190 . S
C864 C408 1.214 . S
C900 C443 1.197 . S
C881 C284 1.191 . S
C936 C479 1.209 . S
C917 C330 1.205 . S
C953 C100 1.184 . S
C972 C551 1.208 . S
C1008 C588 1.216 . S
C989 C160 1.186 . S
C1025 C15 1.199 . S
C1044 C624 1.219 . S
C1080 C515 1.209 . S
C1061 C54 1.205 . S
C1097 C291 1.199 . S
C1116 C516 1.205 . S
C1133 C337 1.186 . S
C1152 C552 1.187 . S
C1188 C587 1.199 . S
C1169 C199 1.183 . S
C1205 C245 1.188 . S
C1224 C623 1.227 . S
C1260 C442 1.619 . S
C1241 C1 1.631 . S
C1296 C478 1.601 . S
C1277 C68 1.604 . S
C1313 C114 1.557 . S
C1332 C382 1.447 . S
C1349 C146 1.587 . S
C1368 C418 1.421 . S
C1385 C185 1.572 . S
C1404 C490 1.410 . S
C1440 C370 1.625 . S
C1421 C231 1.617 . S
C1476 C406 1.626 . S
C1457 C277 1.638 . S
C1512 C454 1.428 . S
C1493 C323 1.592 . S
C1548 C586 1.639 . S
C1529 C93 1.635 . S
C1584 C622 1.607 . S
C1565 C153 1.613 . S
C1601 C22 1.566 . S
C1620 C526 1.408 . S
C1656 C562 1.491 . S
C1637 C47 1.590 . S
C1692 C634 1.436 . S
C1673 C298 1.557 . S
C1709 C344 1.606 . S
C1728 C514 1.600 . S
C1764 C550 1.626 . S
C1745 C206 1.622 . S
C1800 C598 1.491 . S
C1781 C252 1.576 . S
