# Generated by pormake.
# Topology pyr, (3,6)-cn, num edge types: 1
# Building blocks:
#     Node 0, Type 0, BuildingBlock: PAMTOO_clean_linker_0, # of connection points: 3
#     Node 1, Type 0, BuildingBlock: PAMTOO_clean_linker_0, # of connection points: 3
#     Node 2, Type 0, BuildingBlock: PAMTOO_clean_linker_0, # of connection points: 3
#     Node 3, Type 0, BuildingBlock: PAMTOO_clean_linker_0, # of connection points: 3
#     Node 4, Type 0, BuildingBlock: PAMTOO_clean_linker_0, # of connection points: 3
#     Node 5, Type 0, BuildingBlock: PAMTOO_clean_linker_0, # of connection points: 3
#     Node 6, Type 0, BuildingBlock: PAMTOO_clean_linker_0, # of connection points: 3
#     Node 7, Type 0, BuildingBlock: PAMTOO_clean_linker_0, # of connection points: 3
#     Node 8, Type 1, BuildingBlock: PAMTOO_clean_sbu_0, # of connection points: 6
#     Node 9, Type 1, BuildingBlock: PAMTOO_clean_sbu_0, # of connection points: 6
#     Node 10, Type 1, BuildingBlock: PAMTOO_clean_sbu_0, # of connection points: 6
#     Node 11, Type 1, BuildingBlock: PAMTOO_clean_sbu_0, # of connection points: 6
#     Edge 12, Type (0, 1), BuildingBlock: OJICUG_clean_linker_0, # of connection points: 2
#     Edge 13, Type (0, 1), BuildingBlock: OJICUG_clean_linker_0, # of connection points: 2
#     Edge 14, Type (0, 1), BuildingBlock: OJICUG_clean_linker_0, # of connection points: 2
#     Edge 15, Type (0, 1), BuildingBlock: OJICUG_clean_linker_0, # of connection points: 2
#     Edge 16, Type (0, 1), BuildingBlock: OJICUG_clean_linker_0, # of connection points: 2
#     Edge 17, Type (0, 1), BuildingBlock: OJICUG_clean_linker_0, # of connection points: 2
#     Edge 18, Type (0, 1), BuildingBlock: OJICUG_clean_linker_0, # of connection points: 2
#     Edge 19, Type (0, 1), BuildingBlock: OJICUG_clean_linker_0, # of connection points: 2
#     Edge 20, Type (0, 1), BuildingBlock: OJICUG_clean_linker_0, # of connection points: 2
#     Edge 21, Type (0, 1), BuildingBlock: OJICUG_clean_linker_0, # of connection points: 2
#     Edge 22, Type (0, 1), BuildingBlock: OJICUG_clean_linker_0, # of connection points: 2
#     Edge 23, Type (0, 1), BuildingBlock: OJICUG_clean_linker_0, # of connection points: 2
#     Edge 24, Type (0, 1), BuildingBlock: OJICUG_clean_linker_0, # of connection points: 2
#     Edge 25, Type (0, 1), BuildingBlock: OJICUG_clean_linker_0, # of connection points: 2
#     Edge 26, Type (0, 1), BuildingBlock: OJICUG_clean_linker_0, # of connection points: 2
#     Edge 27, Type (0, 1), BuildingBlock: OJICUG_clean_linker_0, # of connection points: 2
#     Edge 28, Type (0, 1), BuildingBlock: OJICUG_clean_linker_0, # of connection points: 2
#     Edge 29, Type (0, 1), BuildingBlock: OJICUG_clean_linker_0, # of connection points: 2
#     Edge 30, Type (0, 1), BuildingBlock: OJICUG_clean_linker_0, # of connection points: 2
#     Edge 31, Type (0, 1), BuildingBlock: OJICUG_clean_linker_0, # of connection points: 2
#     Edge 32, Type (0, 1), BuildingBlock: OJICUG_clean_linker_0, # of connection points: 2
#     Edge 33, Type (0, 1), BuildingBlock: OJICUG_clean_linker_0, # of connection points: 2
#     Edge 34, Type (0, 1), BuildingBlock: OJICUG_clean_linker_0, # of connection points: 2
#     Edge 35, Type (0, 1), BuildingBlock: OJICUG_clean_linker_0, # of connection points: 2
# Relax obj value: 0.244
# Max RMSD: 0.284
# Mean RMSD: 0.148
data_MOF--net-pyr--node1-PAMTOO_clean_sbu_0--node2-PAMTOO_clean_linker_0--edge1-OJICUG_clean_linker_0
_symmetry_space_group_name_H-M    P1
_symmetry_Int_Tables_number       1
_symmetry_cell_setting            triclinic
loop_
_symmetry_equiv_pos_as_xyz
'x, y, z'
_cell_length_a     26.503965
_cell_length_b     29.093614
_cell_length_c     27.974722
_cell_angle_alpha  91.677475
_cell_angle_beta   90.152988
_cell_angle_gamma 110.13324
loop_
_atom_site_label
_atom_site_type_symbol
_atom_site_fract_x
_atom_site_fract_y
_atom_site_fract_z
_atom_type_partial_charge
H0 H 0.29991 0.24363 0.29362 0.0
H1 H 0.46567 0.25496 0.28487 0.0
H2 H 0.4092 0.35291 0.20672 0.0
H3 H 0.54516 0.34642 0.17111 0.0
C4 C 0.50766 0.31648 0.18049 0.0
O5 O 0.49237 0.32693 0.22546 0.0
H6 H 0.47702 0.31667 0.15325 0.0
C7 C 0.33953 0.26062 0.27881 0.0
C8 C 0.3489 0.30009 0.24832 0.0
C9 C 0.38137 0.2444 0.29248 0.0
C10 C 0.43282 0.26666 0.27402 0.0
C11 C 0.44235 0.30497 0.24229 0.0
C12 C 0.40069 0.32201 0.22986 0.0
H13 H 0.15577 0.86756 0.80699 0.0
H14 H 0.1405 0.8324 0.65618 0.0
H15 H 0.23181 0.77122 0.7451 0.0
H16 H 0.25247 0.84255 0.63402 0.0
C17 C 0.24297 0.8022 0.62988 0.0
O18 O 0.1998 0.77694 0.65762 0.0
H19 H 0.23165 0.79266 0.59165 0.0
C20 C 0.16251 0.84657 0.77652 0.0
C21 C 0.19423 0.81707 0.78207 0.0
C22 C 0.14346 0.85295 0.73136 0.0
C23 C 0.15373 0.82707 0.69162 0.0
C24 C 0.18555 0.79767 0.69673 0.0
C25 C 0.20573 0.79265 0.74183 0.0
H26 H 0.74385 0.34946 1.00168 0.0
H27 H 0.63557 0.33176 0.88224 0.0
H28 H 0.76754 0.46765 0.90549 0.0
H29 H 0.65851 0.47349 0.88091 0.0
C30 C 0.64898 0.44726 0.84961 0.0
O31 O 0.68449 0.42142 0.84952 0.0
H32 H 0.60748 0.42112 0.85414 0.0
C33 C 0.73191 0.36401 0.97003 0.0
C34 C 0.76202 0.41175 0.95674 0.0
C35 C 0.68708 0.33415 0.94341 0.0
C36 C 0.6699 0.35417 0.9035 0.0
C37 C 0.69855 0.40286 0.88995 0.0
C38 C 0.74458 0.43116 0.91679 0.0
H39 H 0.89537 0.79678 0.51771 0.0
H40 H 0.88022 0.67335 0.42247 0.0
H41 H 1.00907 0.81035 0.40521 0.0
H42 H 0.95033 0.7436 0.31154 0.0
C43 C 0.94572 0.7079 0.32768 0.0
O44 O 0.96711 0.71664 0.37403 0.0
H45 H 0.90182 0.68721 0.32918 0.0
C46 C 0.90831 0.78085 0.48672 0.0
C47 C 0.95379 0.81025 0.46244 0.0
C48 C 0.88009 0.73178 0.47262 0.0
C49 C 0.90066 0.71098 0.43429 0.0
C50 C 0.94721 0.73872 0.4098 0.0
C51 C 0.97359 0.78865 0.424 0.0
H52 H 0.62749 0.86418 0.85506 0.0
H53 H 0.6602 0.82508 0.99617 0.0
H54 H 0.7172 0.76732 0.87469 0.0
H55 H 0.67952 0.70174 0.95152 0.0
C56 C 0.70459 0.7271 0.9799 0.0
O57 O 0.71854 0.77512 0.96703 0.0
H58 H 0.6808 0.72162 1.01325 0.0
C59 C 0.64315 0.84288 0.87805 0.0
C60 C 0.673 0.81538 0.85807 0.0
C61 C 0.63753 0.84669 0.92793 0.0
C62 C 0.66036 0.82056 0.95762 0.0
C63 C 0.68866 0.79216 0.93812 0.0
C64 C 0.69375 0.78856 0.88867 0.0
H65 H 0.02864 0.25344 0.38335 0.0
H66 H 0.92676 0.34051 0.37098 0.0
H67 H 1.0008 0.33519 0.50493 0.0
H68 H 0.89598 0.32652 0.52073 0.0
C69 C 0.88482 0.33325 0.4839 0.0
O70 O 0.93033 0.36285 0.46135 0.0
H71 H 0.86796 0.29674 0.46506 0.0
C72 C 1.01242 0.28004 0.39837 0.0
C73 C 0.01834 0.29141 0.44774 0.0
C74 C 0.98005 0.29812 0.3696 0.0
C75 C 0.95575 0.32961 0.39078 0.0
C76 C 0.96335 0.34263 0.43934 0.0
C77 C 0.99711 0.326 0.46695 0.0
H78 H 0.38156 0.77375 0.18392 0.0
H79 H 0.36169 0.66701 0.29198 0.0
H80 H 0.4993 0.79991 0.2971 0.0
H81 H 0.52241 0.70762 0.32699 0.0
C82 C 0.48158 0.68624 0.33971 0.0
O83 O 0.45004 0.71587 0.33985 0.0
H84 H 0.46408 0.65492 0.3138 0.0
C85 C 0.39576 0.76199 0.21597 0.0
C86 C 0.44407 0.79286 0.23758 0.0
C87 C 0.36517 0.71661 0.23462 0.0
C88 C 0.38452 0.70144 0.27628 0.0
C89 C 0.43305 0.73101 0.29881 0.0
C90 C 0.46235 0.777 0.27957 0.0
H91 H 0.10515 0.33602 0.86821 0.0
H92 H 0.21769 0.48186 0.84531 0.0
H93 H 0.2144 0.36457 0.74911 0.0
H94 H 0.31951 0.4322 0.79372 0.0
C95 C 0.31408 0.46563 0.77953 0.0
O96 O 0.26045 0.45678 0.76904 0.0
H97 H 0.3276 0.49469 0.80818 0.0
C98 C 0.1371 0.36107 0.84792 0.0
C99 C 0.15747 0.34311 0.8069 0.0
C100 C 0.15833 0.41176 0.86233 0.0
C101 C 0.20008 0.44337 0.83507 0.0
C102 C 0.22024 0.426 0.79488 0.0
C103 C 0.19868 0.37664 0.78096 0.0
Dy104 Dy 0.12565 0.09295 0.61571 0.0
Dy105 Dy 0.99835 0.06561 0.64259 0.0
C106 C 0.08967 0.15582 0.69998 0.0
O107 O 0.11094 0.05453 0.6846 0.0
O108 O 0.02521 1.00558 0.6677 0.0
O109 O 0.20361 0.1455 0.60114 0.0
O110 O 0.19292 0.06844 0.60285 0.0
O111 O 0.99754 1.02122 0.5749 0.0
O112 O 0.08401 1.02109 0.5758 0.0
O113 O 0.02427 0.1364 0.60631 0.0
O114 O 0.08966 0.12571 0.55916 0.0
O115 O 0.91708 0.05357 0.61862 0.0
O116 O 0.93463 1.04765 0.6937 0.0
C117 C 0.07179 1.01258 0.68823 0.0
O118 O 0.12658 0.1518 0.6702 0.0
O119 O 0.04003 0.12418 0.69868 0.0
C120 C 0.25182 0.11576 0.54617 0.0
C121 C 0.30499 0.13577 0.4582 0.0
C122 C 0.33371 0.13503 0.50044 0.0
C123 C 0.30726 0.12529 0.54419 0.0
C124 C 0.22251 0.11351 0.50391 0.0
C125 C 0.24882 0.12358 0.46037 0.0
C126 C 0.22499 0.112 0.59229 0.0
C127 C 0.03388 1.0025 0.56034 0.0
C128 C 0.055 0.14771 0.56883 0.0
C129 C 0.85169 0.99567 0.66373 0.0
C130 C 0.77259 0.90937 0.69295 0.0
C131 C 0.81924 0.90742 0.67036 0.0
C132 C 0.85875 0.95044 0.65604 0.0
C133 C 0.80283 0.99711 0.6811 0.0
C134 C 0.76335 0.95421 0.69545 0.0
C135 C 0.89736 1.04142 0.661 0.0
H136 H 0.37683 0.14363 0.49996 0.0
H137 H 0.33032 0.12687 0.57661 0.0
H138 H 0.17957 0.10618 0.50494 0.0
H139 H 0.22533 0.12463 0.42896 0.0
H140 H 0.82718 0.87333 0.66755 0.0
H141 H 0.89635 0.94882 0.64235 0.0
H142 H 0.79685 1.03184 0.6871 0.0
H143 H 0.72819 0.95718 0.71302 0.0
Dy144 Dy 0.5021 1.04966 1.06615 0.0
Dy145 Dy 0.62156 0.07594 0.11301 0.0
C146 C 0.52592 0.98149 0.14494 0.0
O147 O 0.50454 0.09557 0.13217 0.0
O148 O 0.59493 0.13731 0.13775 0.0
O149 O 0.4166 1.01835 0.07719 0.0
O150 O 0.44732 1.04777 1.00855 0.0
O151 O 0.632 0.1247 1.0494 0.0
O152 O 0.54603 0.12493 1.03988 0.0
O153 O 0.60549 1.00735 0.06896 0.0
O154 O 0.54699 1.01857 1.01421 0.0
O155 O 0.70535 0.08562 0.10201 0.0
O156 O 0.67507 0.08956 0.17373 0.0
C157 C 0.54526 0.13426 0.1463 0.0
O158 O 0.5025 0.98266 0.10377 0.0
O159 O 0.5658 1.02005 0.16106 0.0
C160 C 0.37081 0.97727 1.00812 0.0
C161 C 0.30855 0.89654 0.95109 0.0
C162 C 0.287 0.93203 0.96755 0.0
C163 C 0.31801 0.97216 0.99579 0.0
C164 C 0.39153 0.94057 0.99438 0.0
C165 C 0.36062 0.90046 0.96592 0.0
C166 C 0.40527 1.02231 1.03246 0.0
C167 C 0.59779 0.14394 1.03152 0.0
C168 C 0.5808 0.99726 1.0274 0.0
C169 C 0.76667 0.13429 0.16067 0.0
C170 C 0.85936 0.20154 0.20424 0.0
C171 C 0.86162 0.15918 0.18027 0.0
C172 C 0.8155 0.12573 0.15877 0.0
C173 C 0.76537 0.17875 0.18039 0.0
C174 C 0.81149 0.21221 0.20205 0.0
C175 C 0.7171 0.09399 0.14748 0.0
H176 H 0.24738 0.93056 0.9561 0.0
H177 H 0.30155 1.00022 1.00626 0.0
H178 H 0.43232 0.94398 1.00406 0.0
H179 H 0.37813 0.87361 0.95394 0.0
H180 H 0.89813 0.15036 0.18092 0.0
H181 H 0.81722 0.09173 0.14327 0.0
H182 H 0.72802 0.18615 0.18179 0.0
H183 H 0.80836 0.24437 0.22048 0.0
Dy184 Dy 0.57084 0.52908 0.56827 0.0
Dy185 Dy 0.57895 0.6297 0.62869 0.0
C186 C 0.61777 0.54565 0.67635 0.0
O187 O 0.50155 0.50818 0.61868 0.0
O188 O 0.49212 0.58292 0.62363 0.0
O189 O 0.55767 0.45145 0.56412 0.0
O190 O 0.57491 0.49356 0.5002 0.0
O191 O 0.56219 0.64302 0.55243 0.0
O192 O 0.52166 0.56383 0.5253 0.0
O193 O 0.66396 0.64517 0.60602 0.0
O194 O 0.64943 0.58441 0.54753 0.0
O195 O 0.60075 0.70837 0.63675 0.0
O196 O 0.55513 0.66173 0.69161 0.0
C197 C 0.4741 0.53606 0.63227 0.0
O198 O 0.62028 0.52701 0.6333 0.0
O199 O 0.59905 0.58196 0.68267 0.0
C200 C 0.61856 0.43708 0.5105 0.0
C201 C 0.7085 0.40788 0.49642 0.0
C202 C 0.71407 0.45254 0.52034 0.0
C203 C 0.66954 0.46685 0.52746 0.0
C204 C 0.61264 0.39291 0.48585 0.0
C205 C 0.65736 0.37836 0.47881 0.0
C206 C 0.5723 0.45268 0.51962 0.0
C207 C 0.53289 0.61126 0.52011 0.0
C208 C 0.68023 0.62521 0.56902 0.0
C209 C 0.5268 0.7255 0.66849 0.0
C210 C 0.43457 0.75253 0.66091 0.0
C211 C 0.44962 0.72761 0.62283 0.0
C212 C 0.49497 0.71406 0.62668 0.0
C213 C 0.51304 0.75153 0.70623 0.0
C214 C 0.46733 0.76518 0.70241 0.0
C215 C 0.57019 0.70521 0.67386 0.0
H216 H 0.7529 0.47647 0.53371 0.0
H217 H 0.67484 0.50112 0.54661 0.0
H218 H 0.57351 0.36949 0.47262 0.0
H219 H 0.65165 0.3435 0.46069 0.0
H220 H 0.42603 0.71815 0.59001 0.0
H221 H 0.50441 0.69349 0.59727 0.0
H222 H 0.5367 0.76005 0.73903 0.0
H223 H 0.45669 0.78417 0.73245 0.0
Dy224 Dy 0.06424 0.60178 0.07144 0.0
Dy225 Dy 0.05389 0.50778 0.13697 0.0
C226 C 0.02307 0.59886 0.18049 0.0
O227 O 0.14905 0.61918 0.09723 0.0
O228 O 0.13481 0.56237 0.15613 0.0
O229 O 0.08121 0.67918 1.06186 0.0
O230 O 0.04872 0.62754 1.00313 0.0
O231 O 0.09982 0.49525 0.07281 0.0
O232 O 0.0818 0.54736 1.02083 0.0
O233 O 0.98349 0.48373 0.08632 0.0
O234 O 0.97639 0.55833 0.07501 0.0
O235 O 0.03216 0.42962 0.14471 0.0
O236 O 0.0624 0.47878 0.2056 0.0
C237 C 0.16543 0.60172 0.13489 0.0
O238 O 0.05138 0.62533 0.1462 0.0
O239 O 1.00966 0.55063 0.17849 0.0
C240 C 1.00984 0.68725 1.01685 0.0
C241 C 0.91132 0.70301 1.00576 0.0
C242 C 0.92303 0.68342 1.04796 0.0
C243 C 0.97169 0.67556 1.05339 0.0
C244 C 0.99906 0.70781 0.97508 0.0
C245 C 0.95018 0.71578 0.96959 0.0
C246 C 0.0568 0.67158 1.02034 0.0
C247 C 0.09795 0.51016 1.02899 0.0
C248 C 0.95675 0.51054 0.06996 0.0
C249 C 0.09365 0.41309 0.19562 0.0
C250 C 0.17602 0.3742 0.21067 0.0
C251 C 0.18454 0.4145 0.1813 0.0
C252 C 0.14375 0.43376 0.17389 0.0
C253 C 0.08463 0.37269 0.22457 0.0
C254 C 0.12549 0.35335 0.2321 0.0
C255 C 0.05159 0.43442 0.18809 0.0
H256 H 0.8938 0.67244 0.07617 0.0
H257 H 0.97871 0.6587 0.08558 0.0
H258 H 0.02771 0.71641 0.94626 0.0
H259 H 0.94259 0.73145 0.93687 0.0
H260 H 0.22311 0.43186 0.16484 0.0
H261 H 0.15145 0.46516 0.15149 0.0
H262 H 0.04619 0.35628 0.24144 0.0
H263 H 0.11744 0.32194 0.2545 0.0
C264 C 0.39968 0.22336 0.37456 0.0
C265 C 0.3717 0.20893 0.33095 0.0
H266 H 0.40012 0.21174 0.44946 0.0
C267 C 0.32785 0.16491 0.32771 0.0
H268 H 0.43338 0.25745 0.37789 0.0
C269 C 0.30919 0.13808 0.36854 0.0
C270 C 0.33337 0.15546 0.41346 0.0
H271 H 0.30597 0.15301 0.29421 0.0
H272 H 0.27368 0.10549 0.3654 0.0
C273 C 0.38054 0.19699 0.41558 0.0
C274 C 0.27906 0.83584 0.82905 0.0
C275 C 0.2227 0.82017 0.82818 0.0
H276 H 0.35083 0.87258 0.86943 0.0
C277 C 0.19525 0.81888 0.8713 0.0
H278 H 0.30122 0.83741 0.79628 0.0
C279 C 0.22368 0.8391 0.91333 0.0
C280 C 0.27991 0.86087 0.91274 0.0
H281 H 0.15173 0.80629 0.87156 0.0
H282 H 0.2015 0.84134 0.94526 0.0
C283 C 0.3075 0.8561 0.87107 0.0
C284 C 0.64355 0.52148 0.80664 0.0
C285 C 0.64987 0.47529 0.80365 0.0
H286 H 0.62937 0.57975 0.76997 0.0
C287 C 0.64847 0.45358 0.75773 0.0
H288 H 0.64315 0.53901 0.84127 0.0
C289 C 0.64061 0.47724 0.71632 0.0
C290 C 0.63285 0.52294 0.71959 0.0
H291 H 0.65179 0.41759 0.75392 0.0
H292 H 0.63851 0.45871 0.68184 0.0
C293 C 0.6353 0.54487 0.76551 0.0
C294 C 1.01034 0.70324 0.26149 0.0
C295 C 0.97148 0.67885 0.29491 0.0
H296 H 0.05629 0.69791 0.20003 0.0
C297 C 0.95202 0.6271 0.29243 0.0
H298 H 0.02616 0.7429 0.26195 0.0
C299 C 0.96928 0.60077 0.2564 0.0
C300 C 1.00637 0.62543 0.22155 0.0
H301 H 0.92178 0.60697 0.31729 0.0
H302 H 0.95233 0.56116 0.25505 0.0
C303 C 0.02727 0.67714 0.2255 0.0
C304 C 0.4733 0.22447 0.16913 0.0
C305 C 0.51659 0.26799 0.17857 0.0
H306 H 0.44815 0.14764 0.15259 0.0
C307 C 0.5684 0.26595 0.18419 0.0
H308 H 0.43287 0.22515 0.16534 0.0
C309 C 0.5774 0.22165 0.17677 0.0
C310 C 0.53458 0.1785 0.1641 0.0
H311 H 0.60227 0.29901 0.19225 0.0
H312 H 0.61824 0.22172 0.17888 0.0
C313 C 0.48214 0.18011 0.16211 0.0
C314 C 0.1474 0.93929 0.74473 0.0
C315 C 0.12042 0.89213 0.72496 0.0
H316 H 0.15274 1.01437 0.74898 0.0
C317 C 0.074 0.88397 0.6969 0.0
H318 H 0.18371 0.94679 0.76603 0.0
C319 C 0.05584 0.9227 0.68765 0.0
C320 C 0.08447 0.97035 0.70556 0.0
H321 H 0.0525 0.84795 0.68135 0.0
H322 H 0.02109 0.91579 0.66438 0.0
C323 C 0.12977 0.97804 0.73493 0.0
C324 C 0.84598 0.41336 0.99987 0.0
C325 C 0.81291 0.43896 0.98405 0.0
H326 H 0.91545 0.41508 1.03962 0.0
C327 C 0.82797 0.48919 0.99652 0.0
H328 H 0.83684 0.37504 0.99004 0.0
C329 C 0.87421 0.51267 1.02495 0.0
C330 C 0.90621 0.48635 1.0417 0.0
H331 H 0.80353 0.5101 0.98511 0.0
H332 H 0.88477 0.55135 1.0339 0.0
C333 C 0.89142 0.43647 1.02847 0.0
C334 C 0.79691 0.72823 0.51953 0.0
C335 C 0.82905 0.70352 0.49805 0.0
H336 H 0.72671 0.72336 0.5599 0.0
C337 C 0.81167 0.65213 0.50159 0.0
H338 H 0.8067 0.76729 0.5164 0.0
C339 C 0.76385 0.62663 0.52524 0.0
C340 C 0.73297 0.65189 0.5473 0.0
H341 H 0.83494 0.63135 0.48637 0.0
H342 H 0.75116 0.58709 0.5265 0.0
C343 C 0.75038 0.70297 0.54448 0.0
C344 C 0.29646 0.33322 0.19202 0.0
C345 C 0.3051 0.31961 0.23826 0.0
H346 H 0.24823 0.36017 0.14676 0.0
C347 C 0.27115 0.32432 0.27523 0.0
H348 H 0.32161 0.32961 0.16273 0.0
C349 C 0.22919 0.34164 0.26614 0.0
C350 C 0.2202 0.35493 0.21989 0.0
H351 H 0.2774 0.31518 0.31151 0.0
H352 H 0.20436 0.34546 0.29562 0.0
C353 C 0.2544 0.35065 0.18291 0.0
C354 C 0.60611 0.26156 0.96768 0.0
C355 C 0.66134 0.28196 0.95819 0.0
H356 H 0.54266 0.20238 0.99835 0.0
C357 C 0.69415 0.25436 0.96929 0.0
H358 H 0.57973 0.28184 0.96006 0.0
C359 C 0.67326 0.20925 0.99159 0.0
C360 C 0.61862 0.18981 1.00341 0.0
H361 H 0.73683 0.26863 0.96218 0.0
H362 H 0.70048 0.19024 1.00068 0.0
C363 C 0.58502 0.21607 0.99003 0.0
C364 C 0.9445 0.89102 0.48707 0.0
C365 C 0.97823 0.86325 0.47896 0.0
H366 H 0.93503 0.95566 0.51825 0.0
C367 C 0.03239 0.88419 0.49374 0.0
H368 H 0.90258 0.87628 0.47615 0.0
C369 C 0.05126 0.93028 0.51832 0.0
C370 C 0.01649 0.95672 0.5287 0.0
H371 H 0.05941 0.8638 0.4887 0.0
H372 H 0.09259 0.94419 0.53091 0.0
C373 C 0.96318 0.93675 0.51146 0.0
C374 C 0.33641 0.82194 0.66529 0.0
C375 C 0.29124 0.78841 0.64169 0.0
H376 H 0.41757 0.83717 0.6895 0.0
C377 C 0.292 0.74199 0.62784 0.0
H378 H 0.33643 0.85782 0.67679 0.0
C379 C 0.338 0.72998 0.63541 0.0
C380 C 0.38433 0.76422 0.65698 0.0
H381 H 0.25729 0.71537 0.61023 0.0
H382 H 0.33745 0.69394 0.62388 0.0
C383 C 0.38263 0.81 0.6728 0.0
C384 C 0.7459 0.82869 0.79784 0.0
C385 C 0.69226 0.82362 0.80791 0.0
H386 H 0.81289 0.85886 0.75278 0.0
C387 C 0.6616 0.83566 0.77236 0.0
H388 H 0.77142 0.82036 0.82395 0.0
C389 C 0.68622 0.85889 0.73112 0.0
C390 C 0.74162 0.86965 0.7245 0.0
H391 H 0.61969 0.83072 0.77803 0.0
H392 H 0.66299 0.87195 0.70646 0.0
C393 C 0.7701 0.85108 0.7565 0.0
C394 C 0.94741 0.30343 0.28595 0.0
C395 C 0.96173 0.27625 0.32107 0.0
H396 H 0.90416 0.30118 0.22049 0.0
C397 C 0.95012 0.22578 0.31227 0.0
H398 H 0.95668 0.34253 0.29104 0.0
C399 C 0.92098 0.20246 0.27166 0.0
C400 C 0.90214 0.22882 0.23905 0.0
H401 H 0.95928 0.20312 0.33852 0.0
H402 H 0.90918 0.16297 0.26818 0.0
C403 C 0.91758 0.27988 0.24544 0.0
C404 C 0.514 0.69892 0.42708 0.0
C405 C 0.48734 0.66687 0.38916 0.0
H406 H 0.54876 0.70696 0.49764 0.0
C407 C 0.47285 0.6161 0.39596 0.0
H408 H 0.52645 0.73814 0.42296 0.0
C409 C 0.486 0.59799 0.43868 0.0
C410 C 0.51432 0.63005 0.47608 0.0
H411 H 0.45285 0.5902 0.36744 0.0
H412 H 0.47526 0.55877 0.44177 0.0
C413 C 0.52713 0.68084 0.46987 0.0
C414 C 0.12884 0.47823 0.90072 0.0
C415 C 0.13831 0.43366 0.90498 0.0
H416 H 0.10937 0.53668 0.93511 0.0
C417 C 0.13361 0.41385 0.95088 0.0
H418 H 0.13174 0.49476 0.86618 0.0
C419 C 0.12127 0.43858 0.99119 0.0
C420 C 0.11266 0.48366 0.98679 0.0
H421 H 0.14109 0.37998 0.95591 0.0
H422 H 0.11851 0.42233 1.02585 0.0
C423 C 0.11609 0.50254 0.94061 0.0
C424 C 0.62237 0.92804 0.9282 0.0
C425 C 0.61475 0.88277 0.94961 0.0
H426 H 0.61614 0.99967 0.93584 0.0
C427 C 0.58993 0.8744 0.99448 0.0
H428 H 0.64223 0.93666 0.8942 0.0
C429 C 0.57735 0.91143 1.01889 0.0
C430 C 0.58699 0.95689 0.99821 0.0
H431 H 0.58196 0.83982 1.01172 0.0
H432 H 0.56137 0.90496 1.05459 0.0
C433 C 0.60788 0.96452 0.95209 0.0
C434 C 0.07364 0.2387 0.46925 0.0
C435 C 0.0334 0.2586 0.48046 0.0
H436 H 0.11246 0.18775 0.4884 0.0
C437 C 1.00213 0.24233 0.52117 0.0
H438 H 0.09829 0.25025 0.43801 0.0
C439 C 1.01021 0.20718 0.54962 0.0
C440 C 0.04948 0.18644 0.53822 0.0
H441 H 0.96942 0.25513 0.53029 0.0
H442 H 0.98439 0.19551 0.58015 0.0
C443 C 0.08168 0.20289 0.49798 0.0
C444 C 0.29521 0.63454 0.20855 0.0
C445 C 0.31329 0.68618 0.20976 0.0
H446 H 0.23457 0.56732 0.18389 0.0
C447 C 0.28205 0.70897 0.1852 0.0
H448 H 0.31788 0.61529 0.22643 0.0
C449 C 0.23589 0.6815 0.15907 0.0
C450 C 0.218 0.63019 0.158 0.0
H451 H 0.2926 0.74837 0.1865 0.0
H452 H 0.21297 0.70056 0.14117 0.0
C453 C 0.24779 0.60694 0.18352 0.0
C454 C 0.36973 0.44961 0.71153 0.0
C455 C 0.34875 0.48185 0.73588 0.0
H456 H 0.42539 0.44118 0.6595 0.0
C457 C 0.36416 0.53055 0.72143 0.0
H458 H 0.35815 0.41174 0.7216 0.0
C459 C 0.40255 0.54751 0.68564 0.0
C460 C 0.42639 0.51608 0.66345 0.0
H461 H 0.3483 0.55605 0.73939 0.0
H462 H 0.41534 0.58586 0.67706 0.0
C463 C 0.40823 0.46654 0.67587 0.0
C464 C 0.77994 0.70064 0.94924 0.0
C465 C 0.75569 0.71676 0.98766 0.0
H466 H 0.84779 0.68294 0.92496 0.0
C467 C 0.78312 0.72921 1.03173 0.0
H468 H 0.76002 0.69202 0.91458 0.0
C469 C 0.83366 0.72492 1.03755 0.0
C470 C 0.858 0.70846 0.99924 0.0
H471 H 0.76582 0.74313 1.0614 0.0
H472 H 0.85411 0.73539 0.07183 0.0
C473 C 0.83047 0.69623 0.95503 0.0
C474 C 0.49612 0.88534 0.24239 0.0
C475 C 0.47303 0.84138 0.2151 0.0
H476 H 0.53148 0.96428 0.24198 0.0
C477 C 0.47228 0.84466 0.16491 0.0
H478 H 0.49753 0.88463 0.28103 0.0
C479 C 0.48919 0.88993 0.14303 0.0
C480 C 0.51023 0.93392 0.17007 0.0
H481 H 0.45693 0.81199 0.14212 0.0
H482 H 0.48534 0.89031 0.10452 0.0
C483 C 0.5151 0.93109 0.22004 0.0
C484 C 0.17519 0.26876 0.77315 0.0
C485 C 0.13762 0.2903 0.78883 0.0
H486 H 0.18998 0.21073 0.73335 0.0
C487 C 0.08276 0.26379 0.77973 0.0
H488 H 0.21775 0.28745 0.77989 0.0
C489 C 0.06656 0.21878 0.75307 0.0
C490 C 0.10485 0.19936 0.73448 0.0
H491 H 0.05261 0.27915 0.79077 0.0
H492 H 0.02427 0.20058 0.74488 0.0
C493 C 0.15923 0.22453 0.7462 0.0
C494 C 0.83472 0.38095 0.5272 0.0
C495 C 0.84216 0.35635 0.48544 0.0
H496 H 0.78596 0.41542 0.56378 0.0
C497 C 0.80737 0.3511 0.44614 0.0
H498 H 0.86122 0.38551 0.55789 0.0
C499 C 0.76425 0.36832 0.44932 0.0
C500 C 0.75556 0.39148 0.49176 0.0
H501 H 0.81279 0.33254 0.41344 0.0
H502 H 0.73763 0.36335 0.41867 0.0
C503 C 0.79174 0.39817 0.53042 0.0
loop_
_geom_bond_atom_site_label_1
_geom_bond_atom_site_label_2
_geom_bond_distance
_geom_bond_site_symmetry_2
_ccdc_geom_bond_type
H0 C7 0.929 . S
H1 C10 0.930 . S
H2 C12 0.929 . S
H3 C4 0.969 . S
C4 H3 0.969 . S
C4 O5 1.550 . S
C4 H6 0.973 . S
O5 C4 1.550 . S
O5 C11 1.412 . S
H6 C4 0.973 . S
C7 H0 0.929 . S
C7 C8 1.400 . S
C7 C9 1.364 . S
C8 C7 1.400 . S
C8 C12 1.377 . S
C9 C7 1.364 . S
C9 C10 1.374 . S
C10 H1 0.930 . S
C10 C9 1.374 . S
C10 C11 1.383 . S
C11 O5 1.412 . S
C11 C10 1.383 . S
C11 C12 1.394 . S
C12 H2 0.929 . S
C12 C8 1.377 . S
C12 C11 1.394 . S
H13 C20 0.929 . S
H14 C23 0.930 . S
H15 C25 0.929 . S
H16 C17 0.969 . S
C17 H16 0.969 . S
C17 O18 1.550 . S
C17 H19 0.973 . S
O18 C17 1.550 . S
O18 C24 1.412 . S
H19 C17 0.973 . S
C20 H13 0.929 . S
C20 C21 1.400 . S
C20 C22 1.364 . S
C21 C20 1.400 . S
C21 C25 1.377 . S
C22 C20 1.364 . S
C22 C23 1.374 . S
C23 H14 0.930 . S
C23 C22 1.374 . S
C23 C24 1.383 . S
C24 O18 1.412 . S
C24 C23 1.383 . S
C24 C25 1.394 . S
C25 H15 0.929 . S
C25 C21 1.377 . S
C25 C24 1.394 . S
H26 C33 0.929 . S
H27 C36 0.930 . S
H28 C38 0.929 . S
H29 C30 0.969 . S
C30 H29 0.969 . S
C30 O31 1.550 . S
C30 H32 0.973 . S
O31 C30 1.550 . S
O31 C37 1.412 . S
H32 C30 0.973 . S
C33 H26 0.929 . S
C33 C34 1.400 . S
C33 C35 1.364 . S
C34 C33 1.400 . S
C34 C38 1.377 . S
C35 C33 1.364 . S
C35 C36 1.374 . S
C36 H27 0.930 . S
C36 C35 1.374 . S
C36 C37 1.383 . S
C37 O31 1.412 . S
C37 C36 1.383 . S
C37 C38 1.394 . S
C38 H28 0.929 . S
C38 C34 1.377 . S
C38 C37 1.394 . S
H39 C46 0.929 . S
H40 C49 0.930 . S
H41 C51 0.929 . S
H42 C43 0.969 . S
C43 H42 0.969 . S
C43 O44 1.550 . S
C43 H45 0.973 . S
O44 C43 1.550 . S
O44 C50 1.412 . S
H45 C43 0.973 . S
C46 H39 0.929 . S
C46 C47 1.400 . S
C46 C48 1.364 . S
C47 C46 1.400 . S
C47 C51 1.377 . S
C48 C46 1.364 . S
C48 C49 1.374 . S
C49 H40 0.930 . S
C49 C48 1.374 . S
C49 C50 1.383 . S
C50 O44 1.412 . S
C50 C49 1.383 . S
C50 C51 1.394 . S
C51 H41 0.929 . S
C51 C47 1.377 . S
C51 C50 1.394 . S
H52 C59 0.929 . S
H53 C62 0.930 . S
H54 C64 0.929 . S
H55 C56 0.969 . S
C56 H55 0.969 . S
C56 O57 1.550 . S
C56 H58 0.973 . S
O57 C56 1.550 . S
O57 C63 1.412 . S
H58 C56 0.973 . S
C59 H52 0.929 . S
C59 C60 1.400 . S
C59 C61 1.364 . S
C60 C59 1.400 . S
C60 C64 1.377 . S
C61 C59 1.364 . S
C61 C62 1.374 . S
C62 H53 0.930 . S
C62 C61 1.374 . S
C62 C63 1.383 . S
C63 O57 1.412 . S
C63 C62 1.383 . S
C63 C64 1.394 . S
C64 H54 0.929 . S
C64 C60 1.377 . S
C64 C63 1.394 . S
H65 C72 0.929 . S
H66 C75 0.930 . S
H67 C77 0.926 1_455 S
H68 C69 0.969 . S
C69 H68 0.969 . S
C69 O70 1.550 . S
C69 H71 0.973 . S
O70 C69 1.550 . S
O70 C76 1.412 . S
H71 C69 0.973 . S
C72 H65 0.929 . S
C72 C73 1.400 . S
C72 C74 1.364 . S
C73 C72 1.400 . S
C73 C77 1.377 . S
C74 C72 1.364 . S
C74 C75 1.374 . S
C75 H66 0.930 . S
C75 C74 1.374 . S
C75 C76 1.383 . S
C76 O70 1.412 . S
C76 C75 1.383 . S
C76 C77 1.394 . S
C77 H67 0.926 1_655 S
C77 C73 1.377 . S
C77 C76 1.394 . S
H78 C85 0.929 . S
H79 C88 0.930 . S
H80 C90 0.929 . S
H81 C82 0.969 . S
C82 H81 0.969 . S
C82 O83 1.550 . S
C82 H84 0.973 . S
O83 C82 1.550 . S
O83 C89 1.412 . S
H84 C82 0.973 . S
C85 H78 0.929 . S
C85 C86 1.400 . S
C85 C87 1.364 . S
C86 C85 1.400 . S
C86 C90 1.377 . S
C87 C85 1.364 . S
C87 C88 1.374 . S
C88 H79 0.930 . S
C88 C87 1.374 . S
C88 C89 1.383 . S
C89 O83 1.412 . S
C89 C88 1.383 . S
C89 C90 1.394 . S
C90 H80 0.929 . S
C90 C86 1.377 . S
C90 C89 1.394 . S
H91 C98 0.929 . S
H92 C101 0.930 . S
H93 C103 0.929 . S
H94 C95 0.969 . S
C95 H94 0.969 . S
C95 O96 1.550 . S
C95 H97 0.973 . S
O96 C95 1.550 . S
O96 C102 1.412 . S
H97 C95 0.973 . S
C98 H91 0.929 . S
C98 C99 1.400 . S
C98 C100 1.364 . S
C99 C98 1.400 . S
C99 C103 1.377 . S
C100 C98 1.364 . S
C100 C101 1.374 . S
C101 H92 0.930 . S
C101 C100 1.374 . S
C101 C102 1.383 . S
C102 O96 1.412 . S
C102 C101 1.383 . S
C102 C103 1.394 . S
C103 H93 0.929 . S
C103 C99 1.377 . S
C103 C102 1.394 . S
Dy104 O107 2.307 1_545 S
Dy104 O109 2.395 . S
Dy104 O110 2.379 . S
Dy104 O112 2.339 1_545 S
Dy104 O114 2.298 . S
Dy104 O118 2.275 . S
Dy104 C126 2.738 . S
Dy105 O108 2.298 1_645 S
Dy105 O111 2.275 1_545 S
Dy105 O113 2.307 . S
Dy105 O115 2.395 1_545 S
Dy105 O116 2.379 1_545 S
Dy105 O119 2.339 1_655 S
Dy105 C135 2.738 1_545 S
C106 O118 1.254 . S
C106 O119 1.257 . S
O107 Dy104 2.307 1_565 S
O107 C117 1.266 . S
O108 Dy105 2.298 1_465 S
O108 C117 1.236 . S
O109 Dy104 2.395 . S
O109 C126 1.255 . S
O110 Dy104 2.379 . S
O110 C126 1.249 . S
O111 Dy105 2.275 1_565 S
O111 C127 1.254 . S
O112 Dy104 2.339 1_565 S
O112 C127 1.257 1_455 S
O113 Dy105 2.307 . S
O113 C128 1.266 . S
O114 Dy104 2.298 . S
O114 C128 1.236 1_455 S
O115 Dy105 2.395 1_565 S
O115 C135 1.255 . S
O116 Dy105 2.379 1_565 S
O116 C135 1.249 . S
C117 O107 1.266 . S
C117 O108 1.236 . S
O118 Dy104 2.275 . S
O118 C106 1.254 . S
O119 Dy105 2.339 1_455 S
O119 C106 1.257 . S
C120 C123 1.344 . S
C120 C124 1.328 . S
C120 C126 1.516 . S
C121 C122 1.304 . S
C121 C125 1.323 . S
C122 C121 1.304 . S
C122 C123 1.371 . S
C122 H136 0.930 . S
C123 C120 1.344 . S
C123 C122 1.371 . S
C123 H137 0.931 . S
C124 C120 1.328 . S
C124 C125 1.433 . S
C124 H138 0.931 . S
C125 C121 1.323 . S
C125 C124 1.433 . S
C125 H139 0.933 . S
C126 Dy104 2.738 . S
C126 O109 1.255 . S
C126 O110 1.249 . S
C126 C120 1.516 . S
C127 O111 1.254 . S
C127 O112 1.257 1_655 S
C128 O113 1.266 . S
C128 O114 1.236 1_655 S
C129 C132 1.344 . S
C129 C133 1.328 . S
C129 C135 1.516 . S
C130 C131 1.304 . S
C130 C134 1.323 . S
C131 C130 1.304 . S
C131 C132 1.371 . S
C131 H140 0.930 . S
C132 C129 1.344 . S
C132 C131 1.371 . S
C132 H141 0.931 . S
C133 C129 1.328 . S
C133 C134 1.433 . S
C133 H142 0.931 . S
C134 C130 1.323 . S
C134 C133 1.433 . S
C134 H143 0.933 . S
C135 Dy105 2.738 1_565 S
C135 O115 1.255 . S
C135 O116 1.249 . S
C135 C129 1.516 . S
H136 C122 0.930 . S
H137 C123 0.931 . S
H138 C124 0.931 . S
H139 C125 0.933 . S
H140 C131 0.930 . S
H141 C132 0.931 . S
H142 C133 0.931 . S
H143 C134 0.933 . S
Dy144 O147 2.307 1_556 S
Dy144 O149 2.395 1_545 S
Dy144 O150 2.379 1_545 S
Dy144 O152 2.339 . S
Dy144 O154 2.298 1_545 S
Dy144 O158 2.275 1_546 S
Dy144 C166 2.738 1_545 S
Dy145 O148 2.298 . S
Dy145 O151 2.275 1_554 S
Dy145 O153 2.307 1_544 S
Dy145 O155 2.395 . S
Dy145 O156 2.379 . S
Dy145 O159 2.339 1_545 S
Dy145 C175 2.738 . S
C146 O158 1.254 . S
C146 O159 1.257 . S
O147 Dy144 2.307 1_554 S
O147 C157 1.266 . S
O148 Dy145 2.298 . S
O148 C157 1.236 . S
O149 Dy144 2.395 1_565 S
O149 C166 1.255 . S
O150 Dy144 2.379 1_565 S
O150 C166 1.249 . S
O151 Dy145 2.275 1_556 S
O151 C167 1.254 . S
O152 Dy144 2.339 . S
O152 C167 1.257 . S
O153 Dy145 2.307 1_566 S
O153 C168 1.266 . S
O154 Dy144 2.298 1_565 S
O154 C168 1.236 . S
O155 Dy145 2.395 . S
O155 C175 1.255 . S
O156 Dy145 2.379 . S
O156 C175 1.249 . S
C157 O147 1.266 . S
C157 O148 1.236 . S
O158 Dy144 2.275 1_564 S
O158 C146 1.254 . S
O159 Dy145 2.339 1_565 S
O159 C146 1.257 . S
C160 C163 1.344 . S
C160 C164 1.328 . S
C160 C166 1.516 . S
C161 C162 1.304 . S
C161 C165 1.323 . S
C162 C161 1.304 . S
C162 C163 1.371 . S
C162 H176 0.930 . S
C163 C160 1.344 . S
C163 C162 1.371 . S
C163 H177 0.931 . S
C164 C160 1.328 . S
C164 C165 1.433 . S
C164 H178 0.931 . S
C165 C161 1.323 . S
C165 C164 1.433 . S
C165 H179 0.933 . S
C166 Dy144 2.738 1_565 S
C166 O149 1.255 . S
C166 O150 1.249 . S
C166 C160 1.516 . S
C167 O151 1.254 . S
C167 O152 1.257 . S
C168 O153 1.266 . S
C168 O154 1.236 . S
C169 C172 1.344 . S
C169 C173 1.328 . S
C169 C175 1.516 . S
C170 C171 1.304 . S
C170 C174 1.323 . S
C171 C170 1.304 . S
C171 C172 1.371 . S
C171 H180 0.930 . S
C172 C169 1.344 . S
C172 C171 1.371 . S
C172 H181 0.931 . S
C173 C169 1.328 . S
C173 C174 1.433 . S
C173 H182 0.931 . S
C174 C170 1.323 . S
C174 C173 1.433 . S
C174 H183 0.933 . S
C175 Dy145 2.738 . S
C175 O155 1.255 . S
C175 O156 1.249 . S
C175 C169 1.516 . S
H176 C162 0.930 . S
H177 C163 0.931 . S
H178 C164 0.931 . S
H179 C165 0.933 . S
H180 C171 0.930 . S
H181 C172 0.931 . S
H182 C173 0.931 . S
H183 C174 0.933 . S
Dy184 O187 2.307 . S
Dy184 O189 2.395 . S
Dy184 O190 2.379 . S
Dy184 O192 2.339 . S
Dy184 O194 2.298 . S
Dy184 O198 2.275 . S
Dy184 C206 2.738 . S
Dy185 O188 2.298 . S
Dy185 O191 2.275 . S
Dy185 O193 2.307 . S
Dy185 O195 2.395 . S
Dy185 O196 2.379 . S
Dy185 O199 2.339 . S
Dy185 C215 2.738 . S
C186 O198 1.254 . S
C186 O199 1.257 . S
O187 Dy184 2.307 . S
O187 C197 1.266 . S
O188 Dy185 2.298 . S
O188 C197 1.236 . S
O189 Dy184 2.395 . S
O189 C206 1.255 . S
O190 Dy184 2.379 . S
O190 C206 1.249 . S
O191 Dy185 2.275 . S
O191 C207 1.254 . S
O192 Dy184 2.339 . S
O192 C207 1.257 . S
O193 Dy185 2.307 . S
O193 C208 1.266 . S
O194 Dy184 2.298 . S
O194 C208 1.236 . S
O195 Dy185 2.395 . S
O195 C215 1.255 . S
O196 Dy185 2.379 . S
O196 C215 1.249 . S
C197 O187 1.266 . S
C197 O188 1.236 . S
O198 Dy184 2.275 . S
O198 C186 1.254 . S
O199 Dy185 2.339 . S
O199 C186 1.257 . S
C200 C203 1.344 . S
C200 C204 1.328 . S
C200 C206 1.516 . S
C201 C202 1.304 . S
C201 C205 1.323 . S
C202 C201 1.304 . S
C202 C203 1.371 . S
C202 H216 0.930 . S
C203 C200 1.344 . S
C203 C202 1.371 . S
C203 H217 0.931 . S
C204 C200 1.328 . S
C204 C205 1.433 . S
C204 H218 0.931 . S
C205 C201 1.323 . S
C205 C204 1.433 . S
C205 H219 0.933 . S
C206 Dy184 2.738 . S
C206 O189 1.255 . S
C206 O190 1.249 . S
C206 C200 1.516 . S
C207 O191 1.254 . S
C207 O192 1.257 . S
C208 O193 1.266 . S
C208 O194 1.236 . S
C209 C212 1.344 . S
C209 C213 1.328 . S
C209 C215 1.516 . S
C210 C211 1.304 . S
C210 C214 1.323 . S
C211 C210 1.304 . S
C211 C212 1.371 . S
C211 H220 0.930 . S
C212 C209 1.344 . S
C212 C211 1.371 . S
C212 H221 0.931 . S
C213 C209 1.328 . S
C213 C214 1.433 . S
C213 H222 0.931 . S
C214 C210 1.323 . S
C214 C213 1.433 . S
C214 H223 0.933 . S
C215 Dy185 2.738 . S
C215 O195 1.255 . S
C215 O196 1.249 . S
C215 C209 1.516 . S
H216 C202 0.930 . S
H217 C203 0.931 . S
H218 C204 0.931 . S
H219 C205 0.933 . S
H220 C211 0.930 . S
H221 C212 0.931 . S
H222 C213 0.931 . S
H223 C214 0.933 . S
Dy224 O227 2.307 . S
Dy224 O229 2.395 1_455 S
Dy224 O230 2.379 1_454 S
Dy224 O232 2.339 1_554 S
Dy224 O234 2.298 1_455 S
Dy224 O238 2.275 . S
Dy224 C246 2.738 1_454 S
Dy225 O228 2.298 . S
Dy225 O231 2.275 . S
Dy225 O233 2.307 1_455 S
Dy225 O235 2.395 . S
Dy225 O236 2.379 . S
Dy225 O239 2.339 1_455 S
Dy225 C255 2.738 . S
C226 O238 1.254 1_655 S
C226 O239 1.257 . S
O227 Dy224 2.307 . S
O227 C237 1.266 . S
O228 Dy225 2.298 . S
O228 C237 1.236 . S
O229 Dy224 2.395 1_655 S
O229 C246 1.255 1_554 S
O230 Dy224 2.379 1_656 S
O230 C246 1.249 . S
O231 Dy225 2.275 . S
O231 C247 1.254 1_554 S
O232 Dy224 2.339 1_556 S
O232 C247 1.257 . S
O233 Dy225 2.307 1_655 S
O233 C248 1.266 . S
O234 Dy224 2.298 1_655 S
O234 C248 1.236 . S
O235 Dy225 2.395 . S
O235 C255 1.255 . S
O236 Dy225 2.379 . S
O236 C255 1.249 . S
C237 O227 1.266 . S
C237 O228 1.236 . S
O238 Dy224 2.275 . S
O238 C226 1.254 1_455 S
O239 Dy225 2.339 1_655 S
O239 C226 1.257 . S
C240 C243 1.344 . S
C240 C244 1.328 . S
C240 C246 1.516 . S
C241 C242 1.304 . S
C241 C245 1.323 . S
C242 C241 1.304 . S
C242 C243 1.371 . S
C242 H256 0.930 . S
C243 C240 1.344 . S
C243 C242 1.371 . S
C243 H257 0.931 1_556 S
C244 C240 1.328 . S
C244 C245 1.433 . S
C244 H258 0.931 . S
C245 C241 1.323 . S
C245 C244 1.433 . S
C245 H259 0.933 . S
C246 Dy224 2.738 1_656 S
C246 O229 1.255 1_556 S
C246 O230 1.249 . S
C246 C240 1.516 . S
C247 O231 1.254 1_556 S
C247 O232 1.257 . S
C248 O233 1.266 . S
C248 O234 1.236 . S
C249 C252 1.344 . S
C249 C253 1.328 . S
C249 C255 1.516 . S
C250 C251 1.304 . S
C250 C254 1.323 . S
C251 C250 1.304 . S
C251 C252 1.371 . S
C251 H260 0.930 . S
C252 C249 1.344 . S
C252 C251 1.371 . S
C252 H261 0.931 . S
C253 C249 1.328 . S
C253 C254 1.433 . S
C253 H262 0.931 . S
C254 C250 1.323 . S
C254 C253 1.433 . S
C254 H263 0.933 . S
C255 Dy225 2.738 . S
C255 O235 1.255 . S
C255 O236 1.249 . S
C255 C249 1.516 . S
H256 C242 0.930 . S
H257 C243 0.931 1_554 S
H258 C244 0.931 . S
H259 C245 0.933 . S
H260 C251 0.930 . S
H261 C252 0.931 . S
H262 C253 0.931 . S
H263 C254 0.933 . S
C264 C265 1.387 . S
C264 H268 0.950 . S
C264 C273 1.390 . S
C265 C264 1.387 . S
C265 C267 1.387 . S
H266 C273 0.950 . S
C267 C265 1.387 . S
C267 C269 1.390 . S
C267 H271 0.950 . S
H268 C264 0.950 . S
C269 C267 1.390 . S
C269 C270 1.387 . S
C269 H272 0.950 . S
C270 C269 1.387 . S
C270 C273 1.387 . S
H271 C267 0.950 . S
H272 C269 0.950 . S
C273 C264 1.390 . S
C273 H266 0.950 . S
C273 C270 1.387 . S
C274 C275 1.387 . S
C274 H278 0.950 . S
C274 C283 1.390 . S
C275 C274 1.387 . S
C275 C277 1.387 . S
H276 C283 0.950 . S
C277 C275 1.387 . S
C277 C279 1.390 . S
C277 H281 0.950 . S
H278 C274 0.950 . S
C279 C277 1.390 . S
C279 C280 1.387 . S
C279 H282 0.950 . S
C280 C279 1.387 . S
C280 C283 1.387 . S
H281 C277 0.950 . S
H282 C279 0.950 . S
C283 C274 1.390 . S
C283 H276 0.950 . S
C283 C280 1.387 . S
C284 C285 1.387 . S
C284 H288 0.950 . S
C284 C293 1.390 . S
C285 C284 1.387 . S
C285 C287 1.387 . S
H286 C293 0.950 . S
C287 C285 1.387 . S
C287 C289 1.390 . S
C287 H291 0.950 . S
H288 C284 0.950 . S
C289 C287 1.390 . S
C289 C290 1.387 . S
C289 H292 0.950 . S
C290 C289 1.387 . S
C290 C293 1.387 . S
H291 C287 0.950 . S
H292 C289 0.950 . S
C293 C284 1.390 . S
C293 H286 0.950 . S
C293 C290 1.387 . S
C294 C295 1.387 . S
C294 H298 0.950 . S
C294 C303 1.390 . S
C295 C294 1.387 . S
C295 C297 1.387 . S
H296 C303 0.950 . S
C297 C295 1.387 . S
C297 C299 1.390 . S
C297 H301 0.950 . S
H298 C294 0.950 . S
C299 C297 1.390 . S
C299 C300 1.387 . S
C299 H302 0.950 . S
C300 C299 1.387 . S
C300 C303 1.387 . S
H301 C297 0.950 . S
H302 C299 0.950 . S
C303 C294 1.390 . S
C303 H296 0.950 . S
C303 C300 1.387 . S
C304 C305 1.387 . S
C304 H308 0.950 . S
C304 C313 1.390 . S
C305 C304 1.387 . S
C305 C307 1.387 . S
H306 C313 0.950 . S
C307 C305 1.387 . S
C307 C309 1.390 . S
C307 H311 0.950 . S
H308 C304 0.950 . S
C309 C307 1.390 . S
C309 C310 1.387 . S
C309 H312 0.950 . S
C310 C309 1.387 . S
C310 C313 1.387 . S
H311 C307 0.950 . S
H312 C309 0.950 . S
C313 C304 1.390 . S
C313 H306 0.950 . S
C313 C310 1.387 . S
C314 C315 1.387 . S
C314 H318 0.950 . S
C314 C323 1.390 . S
C315 C314 1.387 . S
C315 C317 1.387 . S
H316 C323 0.950 . S
C317 C315 1.387 . S
C317 C319 1.390 . S
C317 H321 0.950 . S
H318 C314 0.950 . S
C319 C317 1.390 . S
C319 C320 1.387 . S
C319 H322 0.950 1_455 S
C320 C319 1.387 . S
C320 C323 1.387 . S
H321 C317 0.950 . S
H322 C319 0.950 1_655 S
C323 C314 1.390 . S
C323 H316 0.950 . S
C323 C320 1.387 . S
C324 C325 1.387 . S
C324 H328 0.950 . S
C324 C333 1.390 . S
C325 C324 1.387 . S
C325 C327 1.387 . S
H326 C333 0.950 1_554 S
C327 C325 1.387 . S
C327 C329 1.390 . S
C327 H331 0.950 . S
H328 C324 0.950 . S
C329 C327 1.390 . S
C329 C330 1.387 . S
C329 H332 0.950 . S
C330 C329 1.387 . S
C330 C333 1.387 . S
H331 C327 0.950 . S
H332 C329 0.950 . S
C333 C324 1.390 . S
C333 H326 0.950 1_556 S
C333 C330 1.387 . S
C334 C335 1.387 . S
C334 H338 0.950 . S
C334 C343 1.390 . S
C335 C334 1.387 . S
C335 C337 1.387 . S
H336 C343 0.950 . S
C337 C335 1.387 . S
C337 C339 1.390 . S
C337 H341 0.950 . S
H338 C334 0.950 . S
C339 C337 1.390 . S
C339 C340 1.387 . S
C339 H342 0.950 . S
C340 C339 1.387 . S
C340 C343 1.387 . S
H341 C337 0.950 . S
H342 C339 0.950 . S
C343 C334 1.390 . S
C343 H336 0.950 . S
C343 C340 1.387 . S
C344 C345 1.387 . S
C344 H348 0.950 . S
C344 C353 1.390 . S
C345 C344 1.387 . S
C345 C347 1.387 . S
H346 C353 0.950 . S
C347 C345 1.387 . S
C347 C349 1.390 . S
C347 H351 0.950 . S
H348 C344 0.950 . S
C349 C347 1.390 . S
C349 C350 1.387 . S
C349 H352 0.950 . S
C350 C349 1.387 . S
C350 C353 1.387 . S
H351 C347 0.950 . S
H352 C349 0.950 . S
C353 C344 1.390 . S
C353 H346 0.950 . S
C353 C350 1.387 . S
C354 C355 1.387 . S
C354 H358 0.950 . S
C354 C363 1.390 . S
C355 C354 1.387 . S
C355 C357 1.387 . S
H356 C363 0.950 . S
C357 C355 1.387 . S
C357 C359 1.390 . S
C357 H361 0.950 . S
H358 C354 0.950 . S
C359 C357 1.390 . S
C359 C360 1.387 . S
C359 H362 0.950 . S
C360 C359 1.387 . S
C360 C363 1.387 . S
H361 C357 0.950 . S
H362 C359 0.950 . S
C363 C354 1.390 . S
C363 H356 0.950 . S
C363 C360 1.387 . S
C364 C365 1.387 . S
C364 H368 0.950 . S
C364 C373 1.390 . S
C365 C364 1.387 . S
C365 C367 1.387 . S
H366 C373 0.950 . S
C367 C365 1.387 . S
C367 C369 1.390 1_655 S
C367 H371 0.950 1_655 S
H368 C364 0.950 . S
C369 C367 1.390 1_455 S
C369 C370 1.387 1_455 S
C369 H372 0.950 . S
C370 C369 1.387 1_655 S
C370 C373 1.387 . S
H371 C367 0.950 1_455 S
H372 C369 0.950 . S
C373 C364 1.390 . S
C373 H366 0.950 . S
C373 C370 1.387 . S
C374 C375 1.387 . S
C374 H378 0.950 . S
C374 C383 1.390 . S
C375 C374 1.387 . S
C375 C377 1.387 . S
H376 C383 0.950 . S
C377 C375 1.387 . S
C377 C379 1.390 . S
C377 H381 0.950 . S
H378 C374 0.950 . S
C379 C377 1.390 . S
C379 C380 1.387 . S
C379 H382 0.950 . S
C380 C379 1.387 . S
C380 C383 1.387 . S
H381 C377 0.950 . S
H382 C379 0.950 . S
C383 C374 1.390 . S
C383 H376 0.950 . S
C383 C380 1.387 . S
C384 C385 1.387 . S
C384 H388 0.950 . S
C384 C393 1.390 . S
C385 C384 1.387 . S
C385 C387 1.387 . S
H386 C393 0.950 . S
C387 C385 1.387 . S
C387 C389 1.390 . S
C387 H391 0.950 . S
H388 C384 0.950 . S
C389 C387 1.390 . S
C389 C390 1.387 . S
C389 H392 0.950 . S
C390 C389 1.387 . S
C390 C393 1.387 . S
H391 C387 0.950 . S
H392 C389 0.950 . S
C393 C384 1.390 . S
C393 H386 0.950 . S
C393 C390 1.387 . S
C394 C395 1.387 . S
C394 H398 0.950 . S
C394 C403 1.390 . S
C395 C394 1.387 . S
C395 C397 1.387 . S
H396 C403 0.950 . S
C397 C395 1.387 . S
C397 C399 1.390 . S
C397 H401 0.950 . S
H398 C394 0.950 . S
C399 C397 1.390 . S
C399 C400 1.387 . S
C399 H402 0.950 . S
C400 C399 1.387 . S
C400 C403 1.387 . S
H401 C397 0.950 . S
H402 C399 0.950 . S
C403 C394 1.390 . S
C403 H396 0.950 . S
C403 C400 1.387 . S
C404 C405 1.387 . S
C404 H408 0.950 . S
C404 C413 1.390 . S
C405 C404 1.387 . S
C405 C407 1.387 . S
H406 C413 0.950 . S
C407 C405 1.387 . S
C407 C409 1.390 . S
C407 H411 0.950 . S
H408 C404 0.950 . S
C409 C407 1.390 . S
C409 C410 1.387 . S
C409 H412 0.950 . S
C410 C409 1.387 . S
C410 C413 1.387 . S
H411 C407 0.950 . S
H412 C409 0.950 . S
C413 C404 1.390 . S
C413 H406 0.950 . S
C413 C410 1.387 . S
C414 C415 1.387 . S
C414 H418 0.950 . S
C414 C423 1.390 . S
C415 C414 1.387 . S
C415 C417 1.387 . S
H416 C423 0.950 . S
C417 C415 1.387 . S
C417 C419 1.390 . S
C417 H421 0.950 . S
H418 C414 0.950 . S
C419 C417 1.390 . S
C419 C420 1.387 . S
C419 H422 0.950 . S
C420 C419 1.387 . S
C420 C423 1.387 . S
H421 C417 0.950 . S
H422 C419 0.950 . S
C423 C414 1.390 . S
C423 H416 0.950 . S
C423 C420 1.387 . S
C424 C425 1.387 . S
C424 H428 0.950 . S
C424 C433 1.390 . S
C425 C424 1.387 . S
C425 C427 1.387 . S
H426 C433 0.950 . S
C427 C425 1.387 . S
C427 C429 1.390 . S
C427 H431 0.950 . S
H428 C424 0.950 . S
C429 C427 1.390 . S
C429 C430 1.387 . S
C429 H432 0.950 . S
C430 C429 1.387 . S
C430 C433 1.387 . S
H431 C427 0.950 . S
H432 C429 0.950 . S
C433 C424 1.390 . S
C433 H426 0.950 . S
C433 C430 1.387 . S
C434 C435 1.387 . S
C434 H438 0.950 . S
C434 C443 1.390 . S
C435 C434 1.387 . S
C435 C437 1.387 1_455 S
H436 C443 0.950 . S
C437 C435 1.387 1_655 S
C437 C439 1.390 . S
C437 H441 0.950 . S
H438 C434 0.950 . S
C439 C437 1.390 . S
C439 C440 1.387 . S
C439 H442 0.950 . S
C440 C439 1.387 . S
C440 C443 1.387 1_655 S
H441 C437 0.950 . S
H442 C439 0.950 . S
C443 C434 1.390 . S
C443 H436 0.950 . S
C443 C440 1.387 1_455 S
C444 C445 1.387 . S
C444 H448 0.950 . S
C444 C453 1.390 . S
C445 C444 1.387 . S
C445 C447 1.387 . S
H446 C453 0.950 . S
C447 C445 1.387 . S
C447 C449 1.390 . S
C447 H451 0.950 . S
H448 C444 0.950 . S
C449 C447 1.390 . S
C449 C450 1.387 . S
C449 H452 0.950 . S
C450 C449 1.387 . S
C450 C453 1.387 . S
H451 C447 0.950 . S
H452 C449 0.950 . S
C453 C444 1.390 . S
C453 H446 0.950 . S
C453 C450 1.387 . S
C454 C455 1.387 . S
C454 H458 0.950 . S
C454 C463 1.390 . S
C455 C454 1.387 . S
C455 C457 1.387 . S
H456 C463 0.950 . S
C457 C455 1.387 . S
C457 C459 1.390 . S
C457 H461 0.950 . S
H458 C454 0.950 . S
C459 C457 1.390 . S
C459 C460 1.387 . S
C459 H462 0.950 . S
C460 C459 1.387 . S
C460 C463 1.387 . S
H461 C457 0.950 . S
H462 C459 0.950 . S
C463 C454 1.390 . S
C463 H456 0.950 . S
C463 C460 1.387 . S
C464 C465 1.387 . S
C464 H468 0.950 . S
C464 C473 1.390 . S
C465 C464 1.387 . S
C465 C467 1.387 . S
H466 C473 0.950 . S
C467 C465 1.387 . S
C467 C469 1.390 . S
C467 H471 0.950 . S
H468 C464 0.950 . S
C469 C467 1.390 . S
C469 C470 1.387 . S
C469 H472 0.950 . S
C470 C469 1.387 . S
C470 C473 1.387 . S
H471 C467 0.950 . S
H472 C469 0.950 . S
C473 C464 1.390 . S
C473 H466 0.950 . S
C473 C470 1.387 . S
C474 C475 1.387 . S
C474 H478 0.950 . S
C474 C483 1.390 . S
C475 C474 1.387 . S
C475 C477 1.387 . S
H476 C483 0.950 . S
C477 C475 1.387 . S
C477 C479 1.390 . S
C477 H481 0.950 . S
H478 C474 0.950 . S
C479 C477 1.390 . S
C479 C480 1.387 . S
C479 H482 0.950 . S
C480 C479 1.387 . S
C480 C483 1.387 . S
H481 C477 0.950 . S
H482 C479 0.950 . S
C483 C474 1.390 . S
C483 H476 0.950 . S
C483 C480 1.387 . S
C484 C485 1.387 . S
C484 H488 0.950 . S
C484 C493 1.390 . S
C485 C484 1.387 . S
C485 C487 1.387 . S
H486 C493 0.950 . S
C487 C485 1.387 . S
C487 C489 1.390 . S
C487 H491 0.950 . S
H488 C484 0.950 . S
C489 C487 1.390 . S
C489 C490 1.387 . S
C489 H492 0.950 . S
C490 C489 1.387 . S
C490 C493 1.387 . S
H491 C487 0.950 . S
H492 C489 0.950 . S
C493 C484 1.390 . S
C493 H486 0.950 . S
C493 C490 1.387 . S
C494 C495 1.387 . S
C494 H498 0.950 . S
C494 C503 1.390 . S
C495 C494 1.387 . S
C495 C497 1.387 . S
H496 C503 0.950 . S
C497 C495 1.387 . S
C497 C499 1.390 . S
C497 H501 0.950 . S
H498 C494 0.950 . S
C499 C497 1.390 . S
C499 C500 1.387 . S
C499 H502 0.950 . S
C500 C499 1.387 . S
C500 C503 1.387 . S
H501 C497 0.950 . S
H502 C499 0.950 . S
C503 C494 1.390 . S
C503 H496 0.950 . S
C503 C500 1.387 . S
C265 C9 1.324 . S
C270 C121 1.419 . S
C275 C21 1.123 . S
C280 C161 1.203 . S
C290 C186 2.262 . S
C285 C30 2.308 . S
C295 C43 2.296 . S
C300 C226 2.402 . S
C310 C157 1.709 . S
C305 C4 1.415 . S
C320 C117 2.126 . S
C315 C22 2.016 . S
C330 C248 1.551 1_556 S
C325 C34 1.622 . S
C340 C208 1.713 . S
C335 C48 1.738 . S
C345 C8 1.542 . S
C350 C250 1.584 . S
C360 C167 2.178 . S
C355 C35 2.206 . S
C365 C47 2.444 . S
C370 C127 2.382 . S
C375 C17 1.494 . S
C380 C210 1.515 . S
C390 C130 1.010 . S
C385 C60 0.988 . S
C395 C74 1.095 . S
C400 C170 1.117 . S
C405 C82 2.002 . S
C410 C207 2.031 . S
C415 C100 2.911 . S
C420 C247 2.829 . S
C425 C61 1.835 . S
C430 C168 1.963 . S
C440 C128 1.626 . S
C435 C73 1.496 1_455 S
C450 C237 1.949 . S
C445 C87 1.982 . S
C460 C197 1.646 . S
C455 C95 1.716 . S
C465 C56 1.415 . S
C470 C241 1.356 . S
C480 C146 2.361 . S
C475 C86 2.394 . S
C490 C106 2.378 . S
C485 C99 2.416 . S
C495 C69 1.092 . S
C500 C201 1.329 . S
