# Generated by pormake.
# Topology wbl, (4,4)-cn, num edge types: 1
# Building blocks:
#     Node 0, Type 0, BuildingBlock: MIFKUJ_clean_linker_1, # of connection points: 4
#     Node 1, Type 0, BuildingBlock: MIFKUJ_clean_linker_1, # of connection points: 4
#     Node 2, Type 0, BuildingBlock: MIFKUJ_clean_linker_1, # of connection points: 4
#     Node 3, Type 0, BuildingBlock: MIFKUJ_clean_linker_1, # of connection points: 4
#     Node 4, Type 0, BuildingBlock: MIFKUJ_clean_linker_1, # of connection points: 4
#     Node 5, Type 0, BuildingBlock: MIFKUJ_clean_linker_1, # of connection points: 4
#     Node 6, Type 0, BuildingBlock: MIFKUJ_clean_linker_1, # of connection points: 4
#     Node 7, Type 0, BuildingBlock: MIFKUJ_clean_linker_1, # of connection points: 4
#     Node 8, Type 1, BuildingBlock: TATPOV_clean_sbu_0, # of connection points: 4
#     Node 9, Type 1, BuildingBlock: TATPOV_clean_sbu_0, # of connection points: 4
#     Node 10, Type 1, BuildingBlock: TATPOV_clean_sbu_0, # of connection points: 4
#     Node 11, Type 1, BuildingBlock: TATPOV_clean_sbu_0, # of connection points: 4
#     Node 12, Type 1, BuildingBlock: TATPOV_clean_sbu_0, # of connection points: 4
#     Node 13, Type 1, BuildingBlock: TATPOV_clean_sbu_0, # of connection points: 4
#     Node 14, Type 1, BuildingBlock: TATPOV_clean_sbu_0, # of connection points: 4
#     Node 15, Type 1, BuildingBlock: TATPOV_clean_sbu_0, # of connection points: 4
#     Edge 16, Type (0, 1), BuildingBlock: EZIPEK_clean_linker_0, # of connection points: 2
#     Edge 17, Type (0, 1), BuildingBlock: EZIPEK_clean_linker_0, # of connection points: 2
#     Edge 18, Type (0, 1), BuildingBlock: EZIPEK_clean_linker_0, # of connection points: 2
#     Edge 19, Type (0, 1), BuildingBlock: EZIPEK_clean_linker_0, # of connection points: 2
#     Edge 20, Type (0, 1), BuildingBlock: EZIPEK_clean_linker_0, # of connection points: 2
#     Edge 21, Type (0, 1), BuildingBlock: EZIPEK_clean_linker_0, # of connection points: 2
#     Edge 22, Type (0, 1), BuildingBlock: EZIPEK_clean_linker_0, # of connection points: 2
#     Edge 23, Type (0, 1), BuildingBlock: EZIPEK_clean_linker_0, # of connection points: 2
#     Edge 24, Type (0, 1), BuildingBlock: EZIPEK_clean_linker_0, # of connection points: 2
#     Edge 25, Type (0, 1), BuildingBlock: EZIPEK_clean_linker_0, # of connection points: 2
#     Edge 26, Type (0, 1), BuildingBlock: EZIPEK_clean_linker_0, # of connection points: 2
#     Edge 27, Type (0, 1), BuildingBlock: EZIPEK_clean_linker_0, # of connection points: 2
#     Edge 28, Type (0, 1), BuildingBlock: EZIPEK_clean_linker_0, # of connection points: 2
#     Edge 29, Type (0, 1), BuildingBlock: EZIPEK_clean_linker_0, # of connection points: 2
#     Edge 30, Type (0, 1), BuildingBlock: EZIPEK_clean_linker_0, # of connection points: 2
#     Edge 31, Type (0, 1), BuildingBlock: EZIPEK_clean_linker_0, # of connection points: 2
#     Edge 32, Type (0, 1), BuildingBlock: EZIPEK_clean_linker_0, # of connection points: 2
#     Edge 33, Type (0, 1), BuildingBlock: EZIPEK_clean_linker_0, # of connection points: 2
#     Edge 34, Type (0, 1), BuildingBlock: EZIPEK_clean_linker_0, # of connection points: 2
#     Edge 35, Type (0, 1), BuildingBlock: EZIPEK_clean_linker_0, # of connection points: 2
#     Edge 36, Type (0, 1), BuildingBlock: EZIPEK_clean_linker_0, # of connection points: 2
#     Edge 37, Type (0, 1), BuildingBlock: EZIPEK_clean_linker_0, # of connection points: 2
#     Edge 38, Type (0, 1), BuildingBlock: EZIPEK_clean_linker_0, # of connection points: 2
#     Edge 39, Type (0, 1), BuildingBlock: EZIPEK_clean_linker_0, # of connection points: 2
#     Edge 40, Type (0, 1), BuildingBlock: EZIPEK_clean_linker_0, # of connection points: 2
#     Edge 41, Type (0, 1), BuildingBlock: EZIPEK_clean_linker_0, # of connection points: 2
#     Edge 42, Type (0, 1), BuildingBlock: EZIPEK_clean_linker_0, # of connection points: 2
#     Edge 43, Type (0, 1), BuildingBlock: EZIPEK_clean_linker_0, # of connection points: 2
#     Edge 44, Type (0, 1), BuildingBlock: EZIPEK_clean_linker_0, # of connection points: 2
#     Edge 45, Type (0, 1), BuildingBlock: EZIPEK_clean_linker_0, # of connection points: 2
#     Edge 46, Type (0, 1), BuildingBlock: EZIPEK_clean_linker_0, # of connection points: 2
#     Edge 47, Type (0, 1), BuildingBlock: EZIPEK_clean_linker_0, # of connection points: 2
# Relax obj value: 0.161
# Max RMSD: 0.154
# Mean RMSD: 0.128
data_MOF--net-wbl--node1-TATPOV_clean_sbu_0--node2-MIFKUJ_clean_linker_1--edge1-EZIPEK_clean_linker_0
_symmetry_space_group_name_H-M    P1
_symmetry_Int_Tables_number       1
_symmetry_cell_setting            triclinic
loop_
_symmetry_equiv_pos_as_xyz
'x, y, z'
_cell_length_a     35.627907
_cell_length_b     35.636342
_cell_length_c     56.939549
_cell_angle_alpha  91.68254
_cell_angle_beta   91.6154
_cell_angle_gamma 89.995592
loop_
_atom_site_label
_atom_site_type_symbol
_atom_site_fract_x
_atom_site_fract_y
_atom_site_fract_z
_atom_type_partial_charge
H0 H 0.04783 0.09334 0.40337 0.0
H1 H 0.00806 0.127 0.43131 0.0
H2 H 0.91101 0.10432 0.38612 0.0
H3 H 0.95026 0.06813 0.35896 0.0
H4 H 0.0468 0.02309 0.39245 0.0
H5 H 0.02148 0.13494 0.34904 0.0
H6 H 0.9737 0.17817 0.33366 0.0
H7 H 0.93534 0.09226 0.2837 0.0
H8 H 0.98045 0.04819 0.30026 0.0
H9 H 0.04321 0.95268 0.30303 0.0
H10 H 0.07995 0.90201 0.2843 0.0
H11 H 0.1813 0.94831 0.31664 0.0
H12 H 0.14474 0.99841 0.3355 0.0
H13 H 0.04893 0.03654 0.30602 0.0
H14 H 0.05817 0.92585 0.35402 0.0
H15 H 0.09097 0.87568 0.37514 0.0
H16 H 0.15643 0.95881 0.41467 0.0
H17 H 0.12394 0.00894 0.39352 0.0
C18 C 0.0022 0.0784 0.37891 0.0
C19 C 0.018 0.09553 0.39943 0.0
C20 C 0.99539 0.11492 0.4153 0.0
C21 C 0.95664 0.11813 0.41077 0.0
C22 C 0.94089 0.10216 0.3899 0.0
C23 C 0.96335 0.08176 0.37434 0.0
C24 C 0.02619 0.05511 0.36325 0.0
C25 C 0.04763 0.02669 0.37361 0.0
C26 C 0.02677 0.05907 0.3385 0.0
C27 C 0.00383 0.08785 0.32633 0.0
C28 C 0.00284 0.1254 0.33474 0.0
C29 C 0.97593 0.15022 0.32584 0.0
C30 C 0.95093 0.13828 0.30766 0.0
C31 C 0.95436 0.10193 0.29779 0.0
C32 C 0.98028 0.07683 0.30718 0.0
C33 C 0.09135 0.97909 0.32067 0.0
C34 C 0.07347 0.95246 0.3055 0.0
C35 C 0.09432 0.92365 0.29485 0.0
C36 C 0.13327 0.92165 0.29905 0.0
C37 C 0.1513 0.94964 0.31307 0.0
C38 C 0.1305 0.97812 0.32383 0.0
C39 C 0.06897 0.00504 0.33542 0.0
C40 C 0.04819 0.03377 0.32492 0.0
C41 C 0.06862 0.00151 0.36003 0.0
C42 C 0.08894 0.97104 0.3721 0.0
C43 C 0.07985 0.93323 0.36705 0.0
C44 C 0.09832 0.90471 0.37912 0.0
C45 C 0.12594 0.91376 0.39639 0.0
C46 C 0.13513 0.95147 0.40137 0.0
C47 C 0.11664 0.97994 0.38936 0.0
H48 H 0.9967 0.47625 0.55787 0.0
H49 H 0.95565 0.42763 0.53993 0.0
H50 H 0.85952 0.48142 0.57058 0.0
H51 H 0.90038 0.53099 0.58788 0.0
H52 H 0.00689 0.55154 0.56046 0.0
H53 H 0.97838 0.45414 0.61849 0.0
H54 H 0.93494 0.41423 0.63942 0.0
H55 H 0.86897 0.51165 0.65791 0.0
H56 H 0.91318 0.55175 0.63755 0.0
H57 H 0.02707 0.62075 0.65362 0.0
H58 H 0.07868 0.64686 0.67862 0.0
H59 H 0.15748 0.57565 0.64239 0.0
H60 H 0.10599 0.54947 0.61736 0.0
H61 H 0.00229 0.5474 0.64744 0.0
H62 H 0.05074 0.64403 0.60107 0.0
H63 H 0.09961 0.68029 0.58239 0.0
H64 H 0.12978 0.58244 0.54077 0.0
H65 H 0.08121 0.54579 0.5597 0.0
C66 C 0.95167 0.50671 0.57466 0.0
C67 C 0.96665 0.4785 0.55998 0.0
C68 C 0.94328 0.45082 0.54971 0.0
C69 C 0.90473 0.45101 0.55408 0.0
C70 C 0.88921 0.48103 0.56697 0.0
C71 C 0.91256 0.50898 0.57703 0.0
C72 C 0.97737 0.53022 0.58979 0.0
C73 C 0.00585 0.55079 0.57946 0.0
C74 C 0.97575 0.5297 0.61458 0.0
C75 C 0.94881 0.50574 0.62652 0.0
C76 C 0.95456 0.46685 0.62706 0.0
C77 C 0.92984 0.44417 0.63892 0.0
C78 C 0.89882 0.46005 0.65017 0.0
C79 C 0.89277 0.49895 0.64933 0.0
C80 C 0.91791 0.52173 0.6378 0.0
C81 C 0.06286 0.58357 0.63352 0.0
C82 C 0.05541 0.61065 0.65115 0.0
C83 C 0.08469 0.62546 0.66534 0.0
C84 C 0.1216 0.61301 0.66222 0.0
C85 C 0.12905 0.58541 0.64496 0.0
C86 C 0.09981 0.57074 0.63068 0.0
C87 C 0.03206 0.56836 0.61814 0.0
C88 C 0.00278 0.54914 0.62845 0.0
C89 C 0.03315 0.5701 0.59338 0.0
C90 C 0.0624 0.59214 0.58184 0.0
C91 C 0.06808 0.63021 0.58812 0.0
C92 C 0.09592 0.65088 0.57753 0.0
C93 C 0.11832 0.63386 0.5604 0.0
C94 C 0.11283 0.59585 0.5541 0.0
C95 C 0.08498 0.57513 0.56472 0.0
H96 H 0.52608 0.5598 0.89506 0.0
H97 H 0.48771 0.60186 0.91955 0.0
H98 H 0.38829 0.56627 0.88005 0.0
H99 H 0.42631 0.52356 0.85596 0.0
H100 H 0.5277 0.48601 0.88653 0.0
H101 H 0.51347 0.59352 0.84203 0.0
H102 H 0.47295 0.64606 0.83094 0.0
H103 H 0.40147 0.56995 0.78993 0.0
H104 H 0.44167 0.51691 0.80148 0.0
H105 H 0.51579 0.42197 0.79269 0.0
H106 H 0.55016 0.37811 0.767 0.0
H107 H 0.65399 0.40962 0.803 0.0
H108 H 0.62006 0.45432 0.82814 0.0
H109 H 0.51913 0.49693 0.79983 0.0
H110 H 0.54678 0.3874 0.85214 0.0
H111 H 0.58413 0.346 0.87777 0.0
H112 H 0.64266 0.44252 0.90801 0.0
H113 H 0.60577 0.48363 0.88257 0.0
C114 C 0.47908 0.5389 0.87354 0.0
C115 C 0.49598 0.5607 0.89187 0.0
C116 C 0.47423 0.58476 0.90571 0.0
C117 C 0.43536 0.58727 0.90136 0.0
C118 C 0.41831 0.5648 0.88348 0.0
C119 C 0.43998 0.54059 0.86976 0.0
C120 C 0.50237 0.51537 0.85777 0.0
C121 C 0.52613 0.48851 0.86757 0.0
C122 C 0.50087 0.51936 0.83314 0.0
C123 C 0.48036 0.5513 0.8227 0.0
C124 C 0.48941 0.58816 0.83035 0.0
C125 C 0.46634 0.61807 0.82411 0.0
C126 C 0.43423 0.61168 0.8098 0.0
C127 C 0.42619 0.57522 0.80104 0.0
C128 C 0.4492 0.54513 0.80745 0.0
C129 C 0.56523 0.4409 0.81268 0.0
C130 C 0.54599 0.41968 0.79495 0.0
C131 C 0.56548 0.39468 0.78034 0.0
C132 C 0.60444 0.39048 0.78335 0.0
C133 C 0.62384 0.41233 0.80061 0.0
C134 C 0.60444 0.43755 0.81506 0.0
C135 C 0.54417 0.46648 0.82859 0.0
C136 C 0.52073 0.4941 0.81874 0.0
C137 C 0.54763 0.46453 0.85339 0.0
C138 C 0.57353 0.43853 0.86555 0.0
C139 C 0.56827 0.39946 0.8639 0.0
C140 C 0.58941 0.37594 0.87849 0.0
C141 C 0.61583 0.39143 0.89481 0.0
C142 C 0.62233 0.4302 0.89553 0.0
C143 C 0.60131 0.45356 0.88106 0.0
H144 H 0.50927 0.9272 0.04903 0.0
H145 H 0.46211 0.88685 0.02923 0.0
H146 H 0.37592 0.93732 0.07145 0.0
H147 H 0.42266 0.98011 0.09002 0.0
H148 H 0.52508 0.99676 0.05354 0.0
H149 H 0.48603 0.90281 0.112 0.0
H150 H 0.44109 0.87294 0.13774 0.0
H151 H 0.40954 0.98189 0.16567 0.0
H152 H 0.45474 0.01164 0.14031 0.0
H153 H 0.56029 0.08954 0.11921 0.0
H154 H 0.60712 0.12468 0.14345 0.0
H155 H 0.67071 0.02291 0.1531 0.0
H156 H 0.62278 0.98746 0.12966 0.0
H157 H 0.53346 0.99689 0.1407 0.0
H158 H 0.542 0.07287 0.05546 0.0
H159 H 0.58758 0.11552 0.03876 0.0
H160 H 0.67853 0.04942 0.06715 0.0
H161 H 0.63298 0.00598 0.08322 0.0
C162 C 0.46978 0.9561 0.07148 0.0
C163 C 0.48013 0.93044 0.05364 0.0
C164 C 0.45327 0.90733 0.04239 0.0
C165 C 0.41568 0.90897 0.04904 0.0
C166 C 0.40483 0.93567 0.06612 0.0
C167 C 0.43162 0.95965 0.07692 0.0
C168 C 0.49944 0.97741 0.08496 0.0
C169 C 0.52694 0.99645 0.07258 0.0
C170 C 0.5018 0.97778 0.10986 0.0
C171 C 0.47364 0.95938 0.12431 0.0
C172 C 0.46927 0.9202 0.12357 0.0
C173 C 0.44369 0.90324 0.13817 0.0
C174 C 0.42211 0.9253 0.15356 0.0
C175 C 0.42596 0.96448 0.1539 0.0
C176 C 0.45176 0.98137 0.13954 0.0
C177 C 0.58827 0.03609 0.12281 0.0
C178 C 0.58428 0.07486 0.12661 0.0
C179 C 0.61091 0.09479 0.14037 0.0
C180 C 0.64212 0.07625 0.1502 0.0
C181 C 0.64661 0.03756 0.14583 0.0
C182 C 0.61944 0.01745 0.13252 0.0
C183 C 0.55909 0.01494 0.10924 0.0
C184 C 0.53168 0.99645 0.12163 0.0
C185 C 0.55677 0.01523 0.08446 0.0
C186 C 0.58411 0.03671 0.07098 0.0
C187 C 0.5717 0.06686 0.05749 0.0
C188 C 0.59764 0.09114 0.04796 0.0
C189 C 0.6363 0.08556 0.05182 0.0
C190 C 0.64879 0.05402 0.06394 0.0
C191 C 0.62283 0.02955 0.07329 0.0
H192 H 0.98345 0.61134 0.87257 0.0
H193 H 0.02326 0.64874 0.84742 0.0
H194 H 0.12143 0.59143 0.87404 0.0
H195 H 0.08184 0.55437 0.89935 0.0
H196 H 0.97939 0.53088 0.87087 0.0
H197 H 0.00833 0.63157 0.92782 0.0
H198 H 0.05777 0.6737 0.94409 0.0
H199 H 0.11767 0.57853 0.97137 0.0
H200 H 0.06841 0.53636 0.95514 0.0
H201 H 0.99509 0.45091 0.95664 0.0
H202 H 0.9616 0.40076 0.97625 0.0
H203 H 0.85679 0.43896 0.94575 0.0
H204 H 0.88996 0.48943 0.92648 0.0
H205 H 0.99211 0.5272 0.95784 0.0
H206 H 0.97159 0.42752 0.90158 0.0
H207 H 0.93617 0.38002 0.87808 0.0
H208 H 0.86948 0.46727 0.84667 0.0
H209 H 0.90426 0.51491 0.8706 0.0
C210 C 0.02974 0.58033 0.88794 0.0
C211 C 0.01357 0.60714 0.87317 0.0
C212 C 0.03619 0.62846 0.85891 0.0
C213 C 0.07518 0.6228 0.859 0.0
C214 C 0.0914 0.59623 0.87386 0.0
C215 C 0.06885 0.57523 0.8883 0.0
C216 C 0.0057 0.55598 0.90196 0.0
C217 C 0.9814 0.53072 0.88992 0.0
C218 C 0.00931 0.55495 0.92674 0.0
C219 C 0.03504 0.58086 0.94006 0.0
C220 C 0.03166 0.61989 0.93779 0.0
C221 C 0.05959 0.64389 0.94718 0.0
C222 C 0.09111 0.62904 0.9589 0.0
C223 C 0.09329 0.59034 0.96252 0.0
C224 C 0.06528 0.56637 0.95325 0.0
C225 C 0.94504 0.47382 0.94003 0.0
C226 C 0.96486 0.44877 0.95439 0.0
C227 C 0.94591 0.42001 0.96535 0.0
C228 C 0.90691 0.41607 0.96214 0.0
C229 C 0.88697 0.44145 0.94818 0.0
C230 C 0.90586 0.47023 0.9373 0.0
C231 C 0.96553 0.50216 0.9267 0.0
C232 C 0.98926 0.52801 0.93884 0.0
C233 C 0.96188 0.5034 0.90192 0.0
C234 C 0.94025 0.47469 0.88797 0.0
C235 C 0.94898 0.43643 0.88992 0.0
C236 C 0.92892 0.40939 0.87654 0.0
C237 C 0.90031 0.42035 0.86081 0.0
C238 C 0.89143 0.45849 0.85886 0.0
C239 C 0.91135 0.48554 0.87235 0.0
H240 H 0.4978 0.56377 0.21295 0.0
H241 H 0.4548 0.60826 0.23132 0.0
H242 H 0.36441 0.5674 0.18549 0.0
H243 H 0.40672 0.52031 0.16837 0.0
H244 H 0.50811 0.49432 0.20841 0.0
H245 H 0.47558 0.59081 0.1494 0.0
H246 H 0.43521 0.62446 0.12117 0.0
H247 H 0.3972 0.51872 0.09033 0.0
H248 H 0.4375 0.48512 0.11837 0.0
H249 H 0.54471 0.39935 0.14577 0.0
H250 H 0.59136 0.36476 0.12263 0.0
H251 H 0.64996 0.46837 0.11126 0.0
H252 H 0.6024 0.50307 0.13363 0.0
H253 H 0.5164 0.49429 0.12155 0.0
H254 H 0.5241 0.4159 0.20638 0.0
H255 H 0.57013 0.37389 0.22493 0.0
H256 H 0.66038 0.44218 0.20084 0.0
H257 H 0.61444 0.48461 0.18267 0.0
C258 C 0.45585 0.53915 0.18883 0.0
C259 C 0.46853 0.56344 0.20723 0.0
C260 C 0.44405 0.58899 0.21767 0.0
C261 C 0.40657 0.59131 0.2096 0.0
C262 C 0.39328 0.56605 0.19191 0.0
C263 C 0.41758 0.53958 0.18195 0.0
C264 C 0.48348 0.51532 0.17621 0.0
C265 C 0.50976 0.49449 0.18942 0.0
C266 C 0.48576 0.51483 0.15137 0.0
C267 C 0.45937 0.53552 0.13596 0.0
C268 C 0.45814 0.57493 0.13678 0.0
C269 C 0.4352 0.59405 0.12077 0.0
C270 C 0.41328 0.57391 0.10384 0.0
C271 C 0.4138 0.53458 0.10341 0.0
C272 C 0.43682 0.51552 0.11929 0.0
C273 C 0.57022 0.45361 0.1412 0.0
C274 C 0.56763 0.41451 0.13828 0.0
C275 C 0.59415 0.3949 0.12516 0.0
C276 C 0.62385 0.41413 0.11511 0.0
C277 C 0.62707 0.45315 0.11873 0.0
C278 C 0.60007 0.47285 0.13142 0.0
C279 C 0.54097 0.47466 0.1538 0.0
C280 C 0.51447 0.49449 0.14055 0.0
C281 C 0.53862 0.47441 0.17848 0.0
C282 C 0.56593 0.45297 0.19287 0.0
C283 C 0.55373 0.42241 0.20565 0.0
C284 C 0.5799 0.39854 0.21622 0.0
C285 C 0.6185 0.40507 0.21418 0.0
C286 C 0.63068 0.4369 0.20266 0.0
C287 C 0.60452 0.46084 0.19217 0.0
H288 H 0.53841 0.92721 0.38172 0.0
H289 H 0.49979 0.88281 0.35762 0.0
H290 H 0.4 0.92677 0.38954 0.0
H291 H 0.43846 0.97132 0.41352 0.0
H292 H 0.53226 0.00484 0.38064 0.0
H293 H 0.52371 0.9074 0.43767 0.0
H294 H 0.4815 0.86207 0.45502 0.0
H295 H 0.41902 0.95311 0.48653 0.0
H296 H 0.46097 0.99857 0.469 0.0
H297 H 0.55675 0.1157 0.42931 0.0
H298 H 0.60146 0.16118 0.44721 0.0
H299 H 0.64727 0.07497 0.49124 0.0
H300 H 0.60534 0.02877 0.4719 0.0
H301 H 0.53657 0.01511 0.46775 0.0
H302 H 0.52242 0.08052 0.378 0.0
H303 H 0.55386 0.12264 0.35148 0.0
H304 H 0.66117 0.09338 0.3827 0.0
H305 H 0.62972 0.0509 0.40929 0.0
C306 C 0.49124 0.95227 0.39948 0.0
C307 C 0.50825 0.92698 0.38369 0.0
C308 C 0.48636 0.90166 0.37006 0.0
C309 C 0.44723 0.90151 0.37202 0.0
C310 C 0.43024 0.92638 0.38803 0.0
C311 C 0.45212 0.95167 0.40167 0.0
C312 C 0.51416 0.98085 0.41262 0.0
C313 C 0.53355 0.00703 0.3997 0.0
C314 C 0.5154 0.98359 0.43745 0.0
C315 C 0.49505 0.95637 0.45171 0.0
C316 C 0.50151 0.91762 0.44878 0.0
C317 C 0.47771 0.89177 0.45883 0.0
C318 C 0.4473 0.90433 0.47208 0.0
C319 C 0.4426 0.94296 0.47657 0.0
C320 C 0.46643 0.96884 0.4665 0.0
C321 C 0.57841 0.06842 0.44869 0.0
C322 C 0.5767 0.1064 0.4426 0.0
C323 C 0.6018 0.1325 0.45301 0.0
C324 C 0.62769 0.12134 0.47047 0.0
C325 C 0.62753 0.08406 0.47775 0.0
C326 C 0.60345 0.05776 0.46678 0.0
C327 C 0.55558 0.03923 0.43575 0.0
C328 C 0.53587 0.0129 0.44871 0.0
C329 C 0.55424 0.03618 0.41084 0.0
C330 C 0.57372 0.06271 0.39567 0.0
C331 C 0.5527 0.08324 0.37922 0.0
C332 C 0.57054 0.1073 0.36417 0.0
C333 C 0.60972 0.11108 0.36522 0.0
C334 C 0.63087 0.09086 0.38176 0.0
C335 C 0.61297 0.06674 0.39688 0.0
H336 H 0.02744 0.13514 0.68051 0.0
H337 H 0.97489 0.17345 0.69441 0.0
H338 H 0.9273 0.07644 0.72594 0.0
H339 H 0.97966 0.03767 0.71164 0.0
H340 H 0.05722 0.03813 0.71659 0.0
H341 H 0.05079 0.11414 0.62803 0.0
H342 H 0.0023 0.14715 0.6049 0.0
H343 H 0.91701 0.07641 0.63267 0.0
H344 H 0.96528 0.04326 0.65562 0.0
H345 H 0.09117 0.94084 0.65569 0.0
H346 H 0.13134 0.90288 0.62983 0.0
H347 H 0.19717 0.00115 0.61635 0.0
H348 H 0.15618 0.0393 0.64153 0.0
H349 H 0.07156 0.03755 0.63007 0.0
H350 H 0.06299 0.96551 0.71817 0.0
H351 H 0.09916 0.9177 0.739 0.0
H352 H 0.20143 0.96032 0.71106 0.0
H353 H 0.16558 0.00939 0.69102 0.0
C354 C 0.00733 0.08353 0.69498 0.0
C355 C 0.00585 0.1221 0.69054 0.0
C356 C 0.97589 0.14389 0.69832 0.0
C357 C 0.94721 0.12752 0.71089 0.0
C358 C 0.94918 0.0893 0.71607 0.0
C359 C 0.97914 0.0674 0.70817 0.0
C360 C 0.03631 0.0597 0.6838 0.0
C361 C 0.06047 0.0379 0.6977 0.0
C362 C 0.03985 0.05872 0.65915 0.0
C363 C 0.01149 0.07655 0.64363 0.0
C364 C 0.02173 0.10545 0.62887 0.0
C365 C 0.9942 0.12428 0.61582 0.0
C366 C 0.95631 0.11411 0.61725 0.0
C367 C 0.94619 0.0845 0.63143 0.0
C368 C 0.97363 0.06575 0.64448 0.0
C369 C 0.12083 0.99276 0.65044 0.0
C370 C 0.11461 0.95403 0.64745 0.0
C371 C 0.13744 0.93246 0.63273 0.0
C372 C 0.167 0.94933 0.62107 0.0
C373 C 0.17441 0.98771 0.62513 0.0
C374 C 0.15114 0.00939 0.63946 0.0
C375 C 0.09335 0.0166 0.66285 0.0
C376 C 0.06902 0.03826 0.64903 0.0
C377 C 0.08873 0.01578 0.68747 0.0
C378 C 0.11144 0.9905 0.70252 0.0
C379 C 0.09329 0.96534 0.71701 0.0
C380 C 0.11385 0.93812 0.72893 0.0
C381 C 0.15281 0.93549 0.72639 0.0
C382 C 0.17135 0.96201 0.71317 0.0
C383 C 0.15082 0.98961 0.7015 0.0
Zn384 Zn 0.29313 0.75198 0.9634 0.0
Zn385 Zn 0.30583 0.70813 0.00188 0.0
O386 O 0.25071 0.69753 0.99427 0.0
O387 O 0.2383 0.73677 0.9657 0.0
O388 O 0.32016 0.6787 0.03047 0.0
O389 O 0.31709 0.79594 0.98179 0.0
O390 O 0.32023 0.76096 0.01301 0.0
C391 C 0.22782 0.71159 0.97939 0.0
C392 C 0.34375 0.69064 0.95494 0.0
O393 O 0.33927 0.68539 0.97669 0.0
O394 O 0.32657 0.71688 0.94463 0.0
C395 C 0.32964 0.6444 0.02877 0.0
O396 O 0.32727 0.62661 0.00826 0.0
C397 C 0.32563 0.79211 0.00332 0.0
Zn398 Zn 0.29779 0.75591 0.29284 0.0
Zn399 Zn 0.32168 0.8011 0.25905 0.0
O400 O 0.26923 0.82109 0.26534 0.0
O401 O 0.24516 0.77686 0.28664 0.0
O402 O 0.34339 0.8319 0.23368 0.0
O403 O 0.31912 0.71091 0.27502 0.0
O404 O 0.328 0.74795 0.24546 0.0
C405 C 0.24192 0.80796 0.27648 0.0
C406 C 0.35512 0.80855 0.30866 0.0
O407 O 0.35608 0.81516 0.28686 0.0
O408 O 0.33168 0.7854 0.31623 0.0
C409 C 0.3264 0.85279 0.21915 0.0
O410 O 0.28979 0.85675 0.2198 0.0
C411 C 0.32916 0.71548 0.25414 0.0
Zn412 Zn 0.26143 0.75969 0.47581 0.0
Zn413 Zn 0.23927 0.8137 0.50697 0.0
O414 O 0.29492 0.82502 0.5018 0.0
O415 O 0.31565 0.7767 0.48087 0.0
O416 O 0.22287 0.8499 0.53246 0.0
O417 O 0.23847 0.71865 0.49471 0.0
O418 O 0.22061 0.76373 0.51922 0.0
C419 C 0.3214 0.80825 0.49119 0.0
C420 C 0.20901 0.81604 0.45713 0.0
O421 O 0.20943 0.82909 0.47817 0.0
O422 O 0.22828 0.7873 0.45158 0.0
C423 C 0.24283 0.85936 0.55052 0.0
O424 O 0.27744 0.84695 0.5527 0.0
C425 C 0.22134 0.7292 0.51292 0.0
Zn426 Zn 0.28408 0.74372 0.7393 0.0
Zn427 Zn 0.23661 0.72477 0.77344 0.0
O428 O 0.22266 0.78004 0.7694 0.0
O429 O 0.26031 0.7954 0.74106 0.0
O430 O 0.20301 0.70578 0.79862 0.0
O431 O 0.32878 0.72935 0.75946 0.0
O432 O 0.28986 0.71208 0.78611 0.0
C433 C 0.23442 0.80387 0.75507 0.0
C434 C 0.22972 0.68955 0.72343 0.0
O435 O 0.21841 0.69469 0.74428 0.0
O436 O 0.25942 0.70526 0.71695 0.0
C437 C 0.16802 0.70139 0.79442 0.0
O438 O 0.15343 0.71103 0.77403 0.0
C439 C 0.32346 0.71602 0.77944 0.0
Zn440 Zn 0.78396 0.24792 0.55459 0.0
Zn441 Zn 0.82928 0.23304 0.51644 0.0
O442 O 0.83711 0.28912 0.52124 0.0
O443 O 0.80063 0.30227 0.55114 0.0
O444 O 0.8592 0.21747 0.48804 0.0
O445 O 0.73999 0.22411 0.53631 0.0
O446 O 0.77689 0.21534 0.50626 0.0
C447 C 0.82379 0.31256 0.53607 0.0
C448 C 0.8465 0.19982 0.56514 0.0
O449 O 0.8537 0.2049 0.54369 0.0
O450 O 0.81762 0.21429 0.57421 0.0
C451 C 0.87271 0.18444 0.48697 0.0
O452 O 0.86787 0.16202 0.50452 0.0
C453 C 0.74499 0.21212 0.51548 0.0
Zn454 Zn 0.77817 0.25842 0.77489 0.0
Zn455 Zn 0.80247 0.30869 0.74321 0.0
O456 O 0.74486 0.31368 0.74056 0.0
O457 O 0.72502 0.27291 0.76553 0.0
O458 O 0.82424 0.34482 0.72051 0.0
O459 O 0.80692 0.21693 0.75822 0.0
O460 O 0.82854 0.25917 0.73447 0.0
C461 C 0.71779 0.2978 0.75061 0.0
C462 C 0.82195 0.31954 0.79556 0.0
O463 O 0.82262 0.32993 0.7744 0.0
O464 O 0.80538 0.28956 0.80074 0.0
C465 C 0.8082 0.35868 0.70253 0.0
O466 O 0.7733 0.34968 0.69693 0.0
C467 C 0.82809 0.22574 0.74175 0.0
Zn468 Zn 0.78053 0.27195 0.04373 0.0
Zn469 Zn 0.73034 0.28588 0.00873 0.0
O470 O 0.72178 0.23024 0.01439 0.0
O471 O 0.76036 0.21852 0.04421 0.0
O472 O 0.69749 0.29639 0.98033 0.0
O473 O 0.82465 0.28837 0.02465 0.0
O474 O 0.78112 0.30733 0.99952 0.0
C475 C 0.7345 0.208 0.02976 0.0
C476 C 0.721 0.32489 0.05591 0.0
O477 O 0.70791 0.31637 0.03541 0.0
O478 O 0.75246 0.31201 0.06291 0.0
C479 C 0.69841 0.32918 0.9722 0.0
O480 O 0.7202 0.35484 0.98247 0.0
C481 C 0.81528 0.3064 0.00658 0.0
Zn482 Zn 0.78235 0.23454 0.22481 0.0
Zn483 Zn 0.73556 0.21309 0.25967 0.0
O484 O 0.71536 0.26555 0.25456 0.0
O485 O 0.75169 0.28323 0.22603 0.0
O486 O 0.70576 0.18965 0.28508 0.0
O487 O 0.82786 0.22336 0.2454 0.0
O488 O 0.78916 0.20776 0.27291 0.0
C489 C 0.72461 0.28951 0.23963 0.0
C490 C 0.73409 0.17368 0.2106 0.0
O491 O 0.72152 0.17965 0.23109 0.0
O492 O 0.76212 0.19191 0.20386 0.0
C493 C 0.68099 0.20478 0.29788 0.0
O494 O 0.67188 0.24016 0.29525 0.0
C495 C 0.82242 0.21104 0.26565 0.0
C496 C 0.16655 0.88242 0.26829 0.0
C497 C 0.15496 0.88791 0.29175 0.0
C498 C 0.19876 0.83987 0.305 0.0
C499 C 0.20925 0.83258 0.28134 0.0
N500 N 0.19678 0.84097 0.23998 0.0
N501 N 0.15082 0.86368 0.33064 0.0
C502 C 0.19106 0.85199 0.26278 0.0
C503 C 0.16785 0.86364 0.30944 0.0
N504 N 0.1554 0.90703 0.25153 0.0
N505 N 0.22012 0.82718 0.32347 0.0
H506 H 0.12779 0.8807 0.33435 0.0
H507 H 0.15695 0.84405 0.34342 0.0
H508 H 0.24528 0.81269 0.32161 0.0
H509 H 0.21527 0.83505 0.34089 0.0
H510 H 0.1663 0.90697 0.23475 0.0
H511 H 0.13695 0.92913 0.25493 0.0
H512 H 0.18187 0.85191 0.22576 0.0
H513 H 0.21387 0.81825 0.23546 0.0
C514 C 0.13604 0.66987 0.52529 0.0
C515 C 0.14584 0.65669 0.54791 0.0
C516 C 0.20544 0.6913 0.54785 0.0
C517 C 0.19661 0.70261 0.52465 0.0
N518 N 0.15554 0.70011 0.4901 0.0
N519 N 0.191 0.65042 0.57984 0.0
C520 C 0.16262 0.69088 0.51297 0.0
C521 C 0.18091 0.66618 0.55897 0.0
N522 N 0.10054 0.66392 0.51611 0.0
N523 N 0.23698 0.70507 0.55932 0.0
H524 H 0.1735 0.63226 0.58854 0.0
H525 H 0.21755 0.65309 0.58779 0.0
H526 H 0.25645 0.72199 0.55128 0.0
H527 H 0.24295 0.70155 0.57711 0.0
H528 H 0.08997 0.67661 0.50109 0.0
H529 H 0.08026 0.64845 0.52448 0.0
H530 H 0.1339 0.68832 0.47966 0.0
H531 H 0.17252 0.71799 0.48087 0.0
C532 C 0.41731 0.66962 0.78786 0.0
C533 C 0.4082 0.64318 0.80493 0.0
C534 C 0.34978 0.67724 0.81285 0.0
C535 C 0.35589 0.69915 0.7929 0.0
N536 N 0.4039 0.7306 0.77198 0.0
N537 N 0.36738 0.62257 0.83512 0.0
C538 C 0.39232 0.69979 0.78351 0.0
C539 C 0.37505 0.64746 0.81807 0.0
N540 N 0.44895 0.66501 0.77505 0.0
N541 N 0.32188 0.68705 0.8278 0.0
H542 H 0.38611 0.60163 0.8402 0.0
H543 H 0.34176 0.62129 0.8434 0.0
H544 H 0.30674 0.71192 0.82613 0.0
H545 H 0.31723 0.67387 0.84353 0.0
H546 H 0.45465 0.68091 0.76051 0.0
H547 H 0.46817 0.64341 0.77783 0.0
H548 H 0.43116 0.73406 0.76625 0.0
H549 H 0.38776 0.755 0.77124 0.0
C550 C 0.35819 0.8894 0.02462 0.0
C551 C 0.38902 0.87994 0.03961 0.0
C552 C 0.37922 0.81351 0.03 0.0
C553 C 0.34626 0.8224 0.01663 0.0
N554 N 0.29945 0.86851 0.00616 0.0
N555 N 0.42094 0.83278 0.06226 0.0
C556 C 0.33418 0.86032 0.01542 0.0
C557 C 0.3968 0.84188 0.04423 0.0
N558 N 0.35266 0.92575 0.01839 0.0
N559 N 0.39564 0.77892 0.02789 0.0
H560 H 0.4337 0.85295 0.0735 0.0
H561 H 0.4249 0.80526 0.06755 0.0
H562 H 0.38621 0.75798 0.016 0.0
H563 H 0.42154 0.77267 0.03581 0.0
H564 H 0.33297 0.93349 0.00555 0.0
H565 H 0.36983 0.94777 0.02461 0.0
H566 H 0.288 0.89542 0.00681 0.0
H567 H 0.28053 0.84785 1.00009 0.0
C568 C 0.1525 0.65427 0.94678 0.0
C569 C 0.1246 0.65277 0.96398 0.0
C570 C 0.16248 0.69393 0.99056 0.0
C571 C 0.19173 0.69238 0.97418 0.0
N572 N 0.21778 0.66503 0.93883 0.0
N573 N 0.1033 0.66799 0.00287 0.0
C574 C 0.18756 0.67109 0.95279 0.0
C575 C 0.12959 0.67181 0.98608 0.0
N576 N 0.14538 0.63982 0.92457 0.0
N577 N 0.1659 0.71716 0.01003 0.0
H578 H 0.07843 0.65294 0.99981 0.0
H579 H 0.10697 0.67778 0.02019 0.0
H580 H 0.18982 0.7334 0.01378 0.0
H581 H 0.14424 0.72245 0.02156 0.0
H582 H 0.16285 0.64415 0.91054 0.0
H583 H 0.12042 0.62617 0.91957 0.0
H584 H 0.21745 0.64614 0.92452 0.0
H585 H 0.24445 0.676 0.9427 0.0
C586 C 0.39492 0.65996 0.21474 0.0
C587 C 0.38292 0.62276 0.21834 0.0
C588 C 0.32998 0.64743 0.24055 0.0
C589 C 0.34633 0.68383 0.2407 0.0
N590 N 0.40065 0.7219 0.23231 0.0
N591 N 0.34117 0.58046 0.23727 0.0
C592 C 0.38037 0.68954 0.22882 0.0
C593 C 0.35085 0.61621 0.23186 0.0
N594 N 0.42026 0.66709 0.19784 0.0
N595 N 0.29424 0.64277 0.24805 0.0
H596 H 0.35599 0.55689 0.23147 0.0
H597 H 0.32039 0.5745 0.24913 0.0
H598 H 0.27751 0.66519 0.25355 0.0
H599 H 0.27988 0.61732 0.24635 0.0
H600 H 0.42736 0.69423 0.19324 0.0
H601 H 0.43087 0.64608 0.18673 0.0
H602 H 0.42725 0.72547 0.22553 0.0
H603 H 0.39355 0.74321 0.24428 0.0
C604 C 0.41301 0.86357 0.50003 0.0
C605 C 0.41655 0.87788 0.47722 0.0
C606 C 0.36167 0.84147 0.46305 0.0
C607 C 0.35599 0.82962 0.48636 0.0
N608 N 0.37408 0.83123 0.52746 0.0
N609 N 0.39113 0.88574 0.43796 0.0
C610 C 0.38108 0.84124 0.50501 0.0
C611 C 0.39019 0.86803 0.45895 0.0
N612 N 0.4406 0.87076 0.51673 0.0
N613 N 0.3396 0.82776 0.44469 0.0
H614 H 0.41146 0.90548 0.43416 0.0
H615 H 0.36999 0.88354 0.42499 0.0
H616 H 0.31608 0.81099 0.44661 0.0
H617 H 0.346 0.83102 0.42713 0.0
H618 H 0.44184 0.85832 0.53303 0.0
H619 H 0.46393 0.88741 0.51361 0.0
H620 H 0.38862 0.84211 0.54224 0.0
H621 H 0.35226 0.81319 0.53146 0.0
C622 C 0.16868 0.86738 0.72193 0.0
C623 C 0.1732 0.90193 0.73474 0.0
C624 C 0.21708 0.87174 0.76247 0.0
C625 C 0.21133 0.83719 0.74991 0.0
N626 N 0.17857 0.80085 0.71916 0.0
N627 N 0.19729 0.93654 0.76889 0.0
C628 C 0.18597 0.8347 0.7303 0.0
C629 C 0.19622 0.90402 0.75554 0.0
N630 N 0.14834 0.86463 0.70129 0.0
N631 N 0.24325 0.8738 0.78047 0.0
H632 H 0.18269 0.96064 0.7641 0.0
H633 H 0.21053 0.93907 0.78538 0.0
H634 H 0.25791 0.8503 0.78627 0.0
H635 H 0.25189 0.89879 0.78884 0.0
H636 H 0.1354 0.88718 0.69304 0.0
H637 H 0.1354 0.88718 0.69304 0.0
H638 H 0.16034 0.79806 0.70453 0.0
H639 H 0.1894 0.7755 0.72506 0.0
C640 C 0.64725 0.37504 0.75011 0.0
C641 C 0.62531 0.36268 0.76884 0.0
C642 C 0.651 0.29937 0.76368 0.0
C643 C 0.67899 0.31418 0.74945 0.0
N644 N 0.68966 0.35748 0.71891 0.0
N645 N 0.60396 0.31239 0.7927 0.0
C646 C 0.67278 0.34954 0.73937 0.0
C647 C 0.62573 0.32434 0.775 0.0
N648 N 0.64471 0.41143 0.74332 0.0
N649 N 0.64808 0.26141 0.7656 0.0
H650 H 0.58479 0.32973 0.80127 0.0
H651 H 0.60645 0.2859 0.79984 0.0
H652 H 0.66478 0.24297 0.75585 0.0
H653 H 0.62657 0.24839 0.77432 0.0
H654 H 0.66299 0.42344 0.73173 0.0
H655 H 0.62498 0.43017 0.75009 0.0
H656 H 0.68497 0.38194 0.70972 0.0
H657 H 0.70454 0.33697 0.70961 0.0
C658 C 0.66438 0.14861 0.06102 0.0
C659 C 0.66313 0.11575 0.04635 0.0
C660 C 0.7125 0.14138 0.02211 0.0
C661 C 0.71114 0.17543 0.03556 0.0
N662 N 0.6812 0.21422 0.06514 0.0
N663 N 0.68284 0.08144 0.01177 0.0
C664 C 0.68589 0.17977 0.05433 0.0
C665 C 0.68647 0.11218 0.02659 0.0
N666 N 0.64561 0.14974 0.08168 0.0
N667 N 0.73904 0.1369 0.0054 0.0
H668 H 0.66438 0.05947 0.01476 0.0
H669 H 0.69616 0.07872 0.99577 0.0
H670 H 0.75795 0.15811 0.00161 0.0
H671 H 0.7441 0.1116 0.99646 0.0
H672 H 0.64874 0.1713 0.09432 0.0
H673 H 0.62946 0.12751 0.08733 0.0
H674 H 0.66003 0.22016 0.07692 0.0
H675 H 0.69628 0.23804 0.06089 0.0
C676 C 0.88178 0.14679 0.30395 0.0
C677 C 0.91807 0.16142 0.3006 0.0
C678 C 0.88966 0.21474 0.28062 0.0
C679 C 0.85456 0.19567 0.27954 0.0
N680 N 0.82071 0.13765 0.28583 0.0
N681 N 0.9573 0.20817 0.28368 0.0
C682 C 0.85126 0.16027 0.29027 0.0
C683 C 0.92234 0.19533 0.28853 0.0
N684 N 0.87651 0.11966 0.32 0.0
N685 N 0.89169 0.2515 0.27462 0.0
H686 H 0.98187 0.19457 0.28901 0.0
H687 H 0.96176 0.23061 0.27276 0.0
H688 H 0.86803 0.26704 0.2698 0.0
H689 H 0.91603 0.26753 0.27697 0.0
H690 H 0.84992 0.11036 0.32438 0.0
H691 H 0.89831 0.10966 0.33074 0.0
H692 H 0.8192 0.11033 0.29183 0.0
H693 H 0.7992 0.14366 0.27378 0.0
C694 C 0.85705 0.41334 0.52977 0.0
C695 C 0.88253 0.41636 0.54935 0.0
C696 C 0.871 0.35095 0.55874 0.0
C697 C 0.84345 0.34862 0.54028 0.0
N698 N 0.80693 0.37761 0.50961 0.0
N699 N 0.90866 0.39081 0.58509 0.0
C700 C 0.83548 0.37986 0.52613 0.0
C701 C 0.88796 0.38596 0.56462 0.0
N702 N 0.85432 0.44205 0.51442 0.0
N703 N 0.88215 0.31929 0.57005 0.0
H704 H 0.92203 0.41593 0.59003 0.0
H705 H 0.90978 0.37112 0.59825 0.0
H706 H 0.8707 0.29282 0.56623 0.0
H707 H 0.90514 0.31848 0.58173 0.0
H708 H 0.83914 0.44032 0.49854 0.0
H709 H 0.86933 0.46706 0.5169 0.0
H710 H 0.79714 0.4004 0.50021 0.0
H711 H 0.79127 0.35316 0.50638 0.0
C712 C 0.69535 0.13775 0.47688 0.0
C713 C 0.65723 0.14742 0.48 0.0
C714 C 0.67723 0.20418 0.5022 0.0
C715 C 0.71479 0.19075 0.50258 0.0
N716 N 0.75712 0.13867 0.49503 0.0
N717 N 0.61143 0.18736 0.49878 0.0
C718 C 0.72334 0.15595 0.49111 0.0
C719 C 0.64792 0.18009 0.49346 0.0
N720 N 0.70496 0.11143 0.46018 0.0
N721 N 0.66962 0.24019 0.50946 0.0
H722 H 0.58921 0.17 0.49314 0.0
H723 H 0.6037 0.20875 0.51054 0.0
H724 H 0.69052 0.25919 0.51503 0.0
H725 H 0.64314 0.25231 0.50752 0.0
H726 H 0.73275 0.1059 0.45596 0.0
H727 H 0.68522 0.09829 0.44881 0.0
H728 H 0.76285 0.11164 0.4886 0.0
H729 H 0.7776 0.14895 0.50696 0.0
C730 C 0.88471 0.15812 0.70351 0.0
C731 C 0.91555 0.15099 0.71908 0.0
C732 C 0.88736 0.19029 0.74991 0.0
C733 C 0.85738 0.19905 0.73394 0.0
N734 N 0.82871 0.19493 0.69513 0.0
N735 N 0.9492 0.16293 0.75583 0.0
C736 C 0.85641 0.184 0.71058 0.0
C737 C 0.91754 0.16758 0.74201 0.0
N738 N 0.88225 0.13946 0.68217 0.0
N739 N 0.88716 0.20403 0.77262 0.0
H740 H 0.97151 0.14576 0.7509 0.0
H741 H 0.95475 0.1778 0.77153 0.0
H742 H 0.86786 0.22376 0.7787 0.0
H743 H 0.90513 0.19472 0.78594 0.0
H744 H 0.85898 0.14047 0.67076 0.0
H745 H 0.90277 0.12076 0.67635 0.0
H746 H 0.82854 0.18856 0.67718 0.0
H747 H 0.80654 0.2123 0.70007 0.0
C748 C 0.87621 0.35259 0.96153 0.0
C749 C 0.88645 0.38617 0.97413 0.0
C750 C 0.85536 0.36423 0.00909 0.0
C751 C 0.84249 0.33192 0.99592 0.0
N752 N 0.8379 0.2961 0.9594 0.0
N753 N 0.88327 0.42636 0.00876 0.0
C754 C 0.85222 0.32628 0.97206 0.0
C755 C 0.87571 0.39246 0.9977 0.0
N756 N 0.89008 0.34567 0.93967 0.0
N757 N 0.84762 0.36835 0.03244 0.0
H758 H 0.89877 0.44747 0.00122 0.0
H759 H 0.8722 0.43487 0.02477 0.0
H760 H 0.82975 0.35067 0.04114 0.0
H761 H 0.86044 0.3883 0.04371 0.0
H762 H 0.88689 0.32026 0.93035 0.0
H763 H 0.90727 0.3646 0.93136 0.0
H764 H 0.83992 0.29263 0.94127 0.0
H765 H 0.82222 0.27509 0.96693 0.0
C766 C 0.65024 0.34379 0.20611 0.0
C767 C 0.64597 0.37587 0.22113 0.0
C768 C 0.69545 0.35273 0.24791 0.0
C769 C 0.69773 0.31956 0.23368 0.0
N770 N 0.67264 0.27993 0.20182 0.0
N771 N 0.66069 0.40963 0.25749 0.0
C772 C 0.67383 0.31409 0.21348 0.0
C773 C 0.66757 0.38006 0.24239 0.0
N774 N 0.63253 0.34215 0.18445 0.0
N775 N 0.72049 0.35837 0.2663 0.0
H776 H 0.64082 0.43028 0.25376 0.0
H777 H 0.67268 0.41246 0.27433 0.0
H778 H 0.74069 0.33849 0.27092 0.0
H779 H 0.72299 0.3835 0.276 0.0
H780 H 0.63787 0.3215 0.17167 0.0
H781 H 0.61473 0.36318 0.17834 0.0
H782 H 0.65273 0.27286 0.1887 0.0
H783 H 0.68941 0.25723 0.20655 0.0
C784 C 0.1832 0.87521 0.40447 0.0
C785 C 0.14546 0.88395 0.40959 0.0
C786 C 0.14744 0.83992 0.44182 0.0
C787 C 0.18665 0.83579 0.43903 0.0
N788 N 0.24307 0.85234 0.41912 0.0
N789 N 0.09185 0.87724 0.4341 0.0
C790 C 0.20486 0.85374 0.42051 0.0
C791 C 0.12744 0.86672 0.42839 0.0
N792 N 0.19824 0.88742 0.38422 0.0
N793 N 0.12929 0.81765 0.45703 0.0
H794 H 0.07607 0.89648 0.42453 0.0
H795 H 0.07893 0.86899 0.4493 0.0
H796 H 0.14315 0.79735 0.46688 0.0
H797 H 0.10019 0.81672 0.45822 0.0
H798 H 0.22436 0.87884 0.3783 0.0
H799 H 0.18317 0.90354 0.3722 0.0
H800 H 0.25826 0.86849 0.40776 0.0
H801 H 0.26008 0.83725 0.43061 0.0
C802 C 0.16889 0.66392 0.66926 0.0
C803 C 0.15262 0.63014 0.67658 0.0
C804 C 0.19351 0.63137 0.71187 0.0
C805 C 0.20588 0.6678 0.70622 0.0
N806 N 0.20044 0.72156 0.68119 0.0
N807 N 0.14654 0.58261 0.70549 0.0
C808 C 0.19266 0.68475 0.68522 0.0
C809 C 0.16422 0.61398 0.69804 0.0
N810 N 0.16163 0.67612 0.64704 0.0
N811 N 0.21056 0.61302 0.73002 0.0
H812 H 0.1258 0.56843 0.69543 0.0
H813 H 0.1506 0.57211 0.72224 0.0
H814 H 0.23283 0.62457 0.7401 0.0
H815 H 0.20519 0.5851 0.73367 0.0
H816 H 0.17603 0.69827 0.63983 0.0
H817 H 0.14363 0.66202 0.63499 0.0
H818 H 0.18769 0.73638 0.66764 0.0
H819 H 0.21685 0.73864 0.69251 0.0
C820 C 0.38603 0.59991 0.9311 0.0
C821 C 0.41238 0.61387 0.91534 0.0
C822 C 0.39666 0.67831 0.92748 0.0
C823 C 0.36748 0.66437 0.94128 0.0
N824 N 0.32856 0.61204 0.95152 0.0
N825 N 0.43743 0.66621 0.8948 0.0
C826 C 0.36054 0.62517 0.94186 0.0
C827 C 0.4162 0.65308 0.91243 0.0
N828 N 0.38585 0.56268 0.9362 0.0
N829 N 0.40679 0.71529 0.92941 0.0
H830 H 0.45177 0.64859 0.88318 0.0
H831 H 0.43793 0.69435 0.89035 0.0
H832 H 0.39392 0.73451 0.94076 0.0
H833 H 0.43034 0.72605 0.9215 0.0
H834 H 0.36981 0.55178 0.94943 0.0
H835 H 0.40434 0.54327 0.9288 0.0
H836 H 0.32044 0.58395 0.9503 0.0
H837 H 0.30802 0.62961 0.95851 0.0
C838 C 0.40567 0.90924 0.19464 0.0
C839 C 0.39667 0.90741 0.1702 0.0
C840 C 0.34146 0.86883 0.17758 0.0
C841 C 0.34873 0.87352 0.20216 0.0
N842 N 0.3826 0.90574 0.23407 0.0
N843 N 0.3523 0.89173 0.13866 0.0
C844 C 0.37936 0.89597 0.21069 0.0
C845 C 0.36341 0.88907 0.16172 0.0
N846 N 0.43998 0.92235 0.20252 0.0
N847 N 0.31497 0.84366 0.16929 0.0
H848 H 0.36762 0.90636 0.12654 0.0
H849 H 0.32632 0.88229 0.13203 0.0
H850 H 0.29872 0.82774 0.18024 0.0
H851 H 0.31141 0.83608 0.15156 0.0
H852 H 0.44951 0.92054 0.21991 0.0
H853 H 0.46044 0.93171 0.19132 0.0
H854 H 0.40225 0.9251 0.24088 0.0
H855 H 0.36315 0.89765 0.24631 0.0
C856 C 0.10359 0.62831 0.81944 0.0
C857 C 0.09894 0.64325 0.84255 0.0
C858 C 0.13808 0.69753 0.83381 0.0
C859 C 0.14468 0.68134 0.81121 0.0
N860 N 0.13983 0.62818 0.78404 0.0
N861 N 0.11508 0.68915 0.87308 0.0
C862 C 0.12899 0.64591 0.80439 0.0
C863 C 0.11725 0.67701 0.85015 0.0
N864 N 0.08334 0.5975 0.81176 0.0
N865 N 0.15042 0.73315 0.83926 0.0
H866 H 0.09882 0.6757 0.88526 0.0
H867 H 0.13127 0.711 0.88049 0.0
H868 H 0.16573 0.74898 0.82774 0.0
H869 H 0.14314 0.74819 0.8544 0.0
H870 H 0.08196 0.588 0.79429 0.0
H871 H 0.06563 0.58282 0.82252 0.0
H872 H 0.13266 0.6006 0.77934 0.0
H873 H 0.15894 0.63972 0.77272 0.0
C874 C 0.35355 0.60252 0.08816 0.0
C875 C 0.39201 0.59376 0.08522 0.0
C876 C 0.39017 0.62205 0.04651 0.0
C877 C 0.35089 0.62741 0.04843 0.0
N878 N 0.29404 0.62025 0.06976 0.0
N879 N 0.44637 0.59095 0.06089 0.0
C880 C 0.33224 0.61716 0.06897 0.0
C881 C 0.41019 0.60239 0.0642 0.0
N882 N 0.33769 0.59732 0.10941 0.0
N883 N 0.40862 0.63712 0.02825 0.0
H884 H 0.46253 0.57764 0.07374 0.0
H885 H 0.45958 0.59222 0.04486 0.0
H886 H 0.39507 0.65198 0.01497 0.0
H887 H 0.43774 0.63786 0.02728 0.0
H888 H 0.31093 0.60663 0.11357 0.0
H889 H 0.35239 0.58599 0.12364 0.0
H890 H 0.27816 0.60962 0.08312 0.0
H891 H 0.27773 0.63127 0.05611 0.0
C892 C 0.40205 0.89384 0.33785 0.0
C893 C 0.42367 0.87722 0.35603 0.0
C894 C 0.40273 0.81474 0.34213 0.0
C895 C 0.37837 0.83175 0.32541 0.0
N896 N 0.34773 0.88796 0.31171 0.0
N897 N 0.43973 0.82274 0.37835 0.0
C898 C 0.37601 0.87146 0.32446 0.0
C899 C 0.42262 0.83787 0.35904 0.0
N900 N 0.4071 0.93077 0.33287 0.0
N901 N 0.40807 0.77676 0.34128 0.0
H902 H 0.45447 0.83891 0.39111 0.0
H903 H 0.43659 0.79478 0.38276 0.0
H904 H 0.39449 0.75899 0.32888 0.0
H905 H 0.42839 0.76327 0.35148 0.0
H906 H 0.39494 0.94312 0.31814 0.0
H907 H 0.42624 0.9482 0.34211 0.0
H908 H 0.34265 0.91676 0.31237 0.0
H909 H 0.32674 0.87276 0.30253 0.0
C910 C 0.21113 0.89673 0.61034 0.0
C911 C 0.18845 0.92737 0.60333 0.0
C912 C 0.20815 0.91753 0.56274 0.0
C913 C 0.2264 0.88381 0.56912 0.0
N914 N 0.23927 0.83759 0.59858 0.0
N915 N 0.15936 0.96226 0.5719 0.0
C916 C 0.22653 0.87242 0.59286 0.0
C917 C 0.18534 0.93659 0.57926 0.0
N918 N 0.21853 0.89122 0.63367 0.0
N919 N 0.21348 0.93207 0.54114 0.0
H920 H 0.14107 0.97604 0.58323 0.0
H921 H 0.15336 0.96703 0.55422 0.0
H922 H 0.2311 0.91965 0.52882 0.0
H923 H 0.20373 0.95847 0.53647 0.0
H924 H 0.23791 0.87158 0.6397 0.0
H925 H 0.20802 0.90869 0.64696 0.0
H926 H 0.23624 0.82649 0.61515 0.0
H927 H 0.24946 0.8182 0.58628 0.0
C928 C 0.61631 0.3606 0.93383 0.0
C929 C 0.63489 0.36815 0.91273 0.0
C930 C 0.69438 0.34559 0.92973 0.0
C931 C 0.67591 0.33857 0.95095 0.0
N932 N 0.61855 0.33182 0.97194 0.0
N933 N 0.6887 0.36102 0.88844 0.0
C934 C 0.63653 0.34334 0.9525 0.0
C935 C 0.67309 0.35836 0.91 0.0
N936 N 0.57997 0.37199 0.93651 0.0
N937 N 0.7324 0.34077 0.92868 0.0
H938 H 0.67356 0.37023 0.87375 0.0
H939 H 0.71546 0.35142 0.88454 0.0
H940 H 0.74849 0.32924 0.94226 0.0
H941 H 0.7484 0.34953 0.91484 0.0
H942 H 0.56628 0.3718 0.95241 0.0
H943 H 0.56387 0.38389 0.92309 0.0
H944 H 0.58947 0.33061 0.97306 0.0
H945 H 0.6326 0.32076 0.98648 0.0
C946 C 0.67507 0.09036 0.18929 0.0
C947 C 0.66985 0.09789 0.16508 0.0
C948 C 0.70633 0.15559 0.17055 0.0
C949 C 0.71451 0.14641 0.19431 0.0
N950 N 0.71561 0.09887 0.22377 0.0
N951 N 0.69061 0.13104 0.1315 0.0
C952 C 0.70169 0.11181 0.20293 0.0
C953 C 0.68892 0.12831 0.15531 0.0
N954 N 0.65347 0.06417 0.19962 0.0
N955 N 0.71241 0.19096 0.16279 0.0
H956 H 0.67916 0.11067 0.11985 0.0
H957 H 0.70691 0.15112 0.12355 0.0
H958 H 0.72206 0.21315 0.17362 0.0
H959 H 0.70351 0.19937 0.14616 0.0
H960 H 0.65376 0.06059 0.21773 0.0
H961 H 0.63271 0.04858 0.19051 0.0
H962 H 0.70936 0.07229 0.22977 0.0
H963 H 0.73675 0.11273 0.23366 0.0
C964 C 0.90494 0.11553 0.43994 0.0
C965 C 0.93254 0.13664 0.42862 0.0
C966 C 0.92124 0.19009 0.45562 0.0
C967 C 0.89156 0.16989 0.46562 0.0
N968 N 0.84793 0.11801 0.46187 0.0
N969 N 0.9601 0.19704 0.42176 0.0
C970 C 0.88115 0.13401 0.4561 0.0
C971 C 0.93849 0.17496 0.43521 0.0
N972 N 0.90252 0.07751 0.4363 0.0
N973 N 0.93454 0.2225 0.46623 0.0
H974 H 0.97251 0.18704 0.40642 0.0
H975 H 0.96248 0.22599 0.42451 0.0
H976 H 0.92378 0.23399 0.48167 0.0
H977 H 0.95867 0.23605 0.46095 0.0
H978 H 0.88532 0.06058 0.44604 0.0
H979 H 0.92036 0.06234 0.42537 0.0
H980 H 0.83757 0.0934 0.45374 0.0
H981 H 0.82869 0.1316 0.47265 0.0
C982 C 0.87239 0.43936 0.6882 0.0
C983 C 0.87331 0.43583 0.66334 0.0
C984 C 0.83215 0.38076 0.66397 0.0
C985 C 0.82876 0.38624 0.68864 0.0
N986 N 0.83777 0.42689 0.72305 0.0
N987 N 0.84722 0.40883 0.62713 0.0
C988 C 0.84654 0.41739 0.70042 0.0
C989 C 0.85102 0.40825 0.65107 0.0
N990 N 0.89722 0.46249 0.7003 0.0
N991 N 0.81921 0.34849 0.65299 0.0
H992 H 0.85994 0.42916 0.61719 0.0
H993 H 0.82862 0.39153 0.6174 0.0
H994 H 0.80622 0.32706 0.66183 0.0
H995 H 0.82459 0.34137 0.63553 0.0
H996 H 0.90037 0.46297 0.71855 0.0
H997 H 0.91717 0.47862 0.69211 0.0
H998 H 0.8472 0.45147 0.73165 0.0
H999 H 0.81781 0.41245 0.73235 0.0
C1000 C 0.63061 0.12277 0.32439 0.0
C1001 C 0.6285 0.13517 0.34821 0.0
C1002 C 0.6629 0.1925 0.33945 0.0
C1003 C 0.66178 0.18171 0.31521 0.0
N1004 N 0.6378 0.14022 0.284 0.0
N1005 N 0.63713 0.18421 0.37795 0.0
C1006 C 0.64379 0.1478 0.3075 0.0
C1007 C 0.64306 0.17077 0.35562 0.0
N1008 N 0.62098 0.08668 0.31799 0.0
N1009 N 0.68435 0.22241 0.34721 0.0
H1010 H 0.62313 0.16891 0.39037 0.0
H1011 H 0.64338 0.21163 0.38357 0.0
H1012 H 0.69986 0.23866 0.33604 0.0
H1013 H 0.6895 0.2291 0.36494 0.0
H1014 H 0.62586 0.07481 0.30143 0.0
H1015 H 0.61125 0.06743 0.32987 0.0
H1016 H 0.62147 0.11784 0.27743 0.0
H1017 H 0.6459 0.15837 0.27103 0.0
C1018 C 0.91132 0.12054 0.58299 0.0
C1019 C 0.92692 0.13533 0.60448 0.0
C1020 C 0.88989 0.19271 0.60035 0.0
C1021 C 0.87251 0.17697 0.57955 0.0
N1022 N 0.86001 0.12264 0.55424 0.0
N1023 N 0.92572 0.18149 0.63628 0.0
C1024 C 0.88134 0.13991 0.57174 0.0
C1025 C 0.91451 0.1702 0.614 0.0
N1026 N 0.92575 0.08846 0.57305 0.0
N1027 N 0.88453 0.22968 0.60647 0.0
H1028 H 0.94421 0.16598 0.6467 0.0
H1029 H 0.91417 0.20448 0.64518 0.0
H1030 H 0.867 0.24743 0.59697 0.0
H1031 H 0.89991 0.24365 0.61988 0.0
H1032 H 0.91837 0.07867 0.55613 0.0
H1033 H 0.94735 0.07316 0.58098 0.0
H1034 H 0.86282 0.09442 0.54934 0.0
H1035 H 0.83687 0.13546 0.54621 0.0
C1036 C 0.89961 0.37664 0.82562 0.0
C1037 C 0.8809 0.39204 0.84532 0.0
C1038 C 0.82309 0.35905 0.8329 0.0
C1039 C 0.84247 0.3421 0.81389 0.0
N1040 N 0.90113 0.32719 0.79562 0.0
N1041 N 0.82781 0.39232 0.87065 0.0
C1042 C 0.88137 0.34862 0.8113 0.0
C1043 C 0.84351 0.38145 0.84991 0.0
N1044 N 0.93421 0.38978 0.82004 0.0
N1045 N 0.78499 0.3554 0.83405 0.0
H1046 H 0.84203 0.40889 0.88344 0.0
H1047 H 0.80209 0.38229 0.87607 0.0
H1048 H 0.76892 0.33953 0.82182 0.0
H1049 H 0.76887 0.37048 0.84603 0.0
H1050 H 0.94721 0.38264 0.80438 0.0
H1051 H 0.94868 0.41031 0.8301 0.0
H1052 H 0.93027 0.32813 0.79464 0.0
H1053 H 0.88889 0.30566 0.78521 0.0
C1054 C 0.65359 0.40078 0.07614 0.0
C1055 C 0.65108 0.39329 0.10038 0.0
C1056 C 0.69318 0.33963 0.09544 0.0
C1057 C 0.69876 0.34948 0.07175 0.0
N1058 N 0.69216 0.39618 0.04195 0.0
N1059 N 0.6766 0.36206 0.13429 0.0
C1060 C 0.68135 0.38213 0.06279 0.0
C1061 C 0.6735 0.36475 0.11043 0.0
N1062 N 0.62855 0.42439 0.06553 0.0
N1063 N 0.70445 0.30549 0.10339 0.0
H1064 H 0.66351 0.38086 0.14582 0.0
H1065 H 0.69528 0.34381 0.14253 0.0
H1066 H 0.71699 0.28501 0.09282 0.0
H1067 H 0.69753 0.29589 0.11984 0.0
H1068 H 0.62702 0.42768 0.0474 0.0
H1069 H 0.60688 0.43773 0.07443 0.0
H1070 H 0.68253 0.42178 0.03575 0.0
H1071 H 0.71393 0.38461 0.03225 0.0
loop_
_geom_bond_atom_site_label_1
_geom_bond_atom_site_label_2
_geom_bond_distance
_geom_bond_site_symmetry_2
_ccdc_geom_bond_type
H0 C19 0.949 . S
H1 C20 0.950 . S
H2 C22 0.950 . S
H3 C23 0.950 . S
H4 C25 0.950 . S
H5 C28 0.950 1_455 S
H6 C29 0.950 . S
H7 C31 0.951 . S
H8 C32 0.918 1_565 S
H9 C34 0.949 . S
H10 C35 0.950 . S
H11 C37 0.950 . S
H12 C38 0.950 . S
H13 C40 0.946 1_565 S
H14 C43 0.950 . S
H15 C44 0.950 . S
H16 C46 0.951 . S
H17 C47 0.949 1_545 S
C18 C19 1.376 1_655 S
C18 C23 1.386 . S
C18 C24 1.483 1_655 S
C19 H0 0.949 . S
C19 C18 1.376 1_455 S
C19 C20 1.397 1_455 S
C20 H1 0.950 . S
C20 C19 1.397 1_655 S
C20 C21 1.391 . S
C21 C20 1.391 . S
C21 C22 1.405 . S
C22 H2 0.950 . S
C22 C21 1.405 . S
C22 C23 1.367 . S
C23 H3 0.950 . S
C23 C18 1.386 . S
C23 C22 1.367 . S
C24 C18 1.483 1_455 S
C24 C25 1.382 . S
C24 C26 1.403 . S
C25 H4 0.950 . S
C25 C24 1.382 . S
C25 C41 1.411 1_545 S
C26 C24 1.403 . S
C26 C27 1.489 1_455 S
C26 C40 1.430 . S
C27 C26 1.489 1_655 S
C27 C28 1.383 . S
C27 C32 1.382 . S
C28 H5 0.950 1_655 S
C28 C27 1.383 . S
C28 C29 1.395 . S
C29 H6 0.950 . S
C29 C28 1.395 . S
C29 C30 1.288 . S
C30 C29 1.288 . S
C30 C31 1.392 . S
C31 H7 0.951 . S
C31 C30 1.392 . S
C31 C32 1.392 . S
C32 H8 0.918 1_545 S
C32 C27 1.382 . S
C32 C31 1.392 . S
C33 C34 1.376 . S
C33 C38 1.386 . S
C33 C39 1.483 . S
C34 H9 0.949 . S
C34 C33 1.376 . S
C34 C35 1.397 . S
C35 H10 0.950 . S
C35 C34 1.397 . S
C35 C36 1.391 . S
C36 C35 1.391 . S
C36 C37 1.405 . S
C37 H11 0.950 . S
C37 C36 1.405 . S
C37 C38 1.367 . S
C38 H12 0.950 . S
C38 C33 1.386 . S
C38 C37 1.367 . S
C39 C33 1.483 . S
C39 C40 1.367 1_565 S
C39 C41 1.403 . S
C40 H13 0.946 1_545 S
C40 C26 1.430 . S
C40 C39 1.367 1_545 S
C41 C25 1.411 1_565 S
C41 C39 1.403 . S
C41 C42 1.489 . S
C42 C41 1.489 . S
C42 C43 1.383 . S
C42 C47 1.382 . S
C43 H14 0.950 . S
C43 C42 1.383 . S
C43 C44 1.395 . S
C44 H15 0.950 . S
C44 C43 1.395 . S
C44 C45 1.288 . S
C45 C44 1.288 . S
C45 C46 1.392 . S
C46 H16 0.951 . S
C46 C45 1.392 . S
C46 C47 1.392 . S
C47 H17 0.949 1_565 S
C47 C42 1.382 . S
C47 C46 1.392 . S
H48 C67 0.949 1_455 S
H49 C68 0.950 . S
H50 C70 0.950 . S
H51 C71 0.950 . S
H52 C73 0.950 . S
H53 C76 0.950 . S
H54 C77 0.950 . S
H55 C79 0.951 . S
H56 C80 0.949 . S
H57 C82 0.949 . S
H58 C83 0.950 . S
H59 C85 0.950 . S
H60 C86 0.950 . S
H61 C88 0.950 1_655 S
H62 C91 0.950 . S
H63 C92 0.950 . S
H64 C94 0.951 . S
H65 C95 0.949 . S
C66 C67 1.376 . S
C66 C71 1.386 . S
C66 C72 1.483 . S
C67 H48 0.949 1_655 S
C67 C66 1.376 . S
C67 C68 1.397 . S
C68 H49 0.950 . S
C68 C67 1.397 . S
C68 C69 1.391 . S
C69 C68 1.391 . S
C69 C70 1.405 . S
C70 H50 0.950 . S
C70 C69 1.405 . S
C70 C71 1.367 . S
C71 H51 0.950 . S
C71 C66 1.386 . S
C71 C70 1.367 . S
C72 C66 1.483 . S
C72 C73 1.382 1_655 S
C72 C74 1.403 . S
C73 H52 0.950 . S
C73 C72 1.382 1_455 S
C73 C89 1.411 . S
C74 C72 1.403 . S
C74 C75 1.489 . S
C74 C88 1.411 1_655 S
C75 C74 1.489 . S
C75 C76 1.383 . S
C75 C80 1.382 . S
C76 H53 0.950 . S
C76 C75 1.383 . S
C76 C77 1.395 . S
C77 H54 0.950 . S
C77 C76 1.395 . S
C77 C78 1.288 . S
C78 C77 1.288 . S
C78 C79 1.392 . S
C79 H55 0.951 . S
C79 C78 1.392 . S
C79 C80 1.392 . S
C80 H56 0.949 . S
C80 C75 1.382 . S
C80 C79 1.392 . S
C81 C82 1.376 . S
C81 C86 1.386 . S
C81 C87 1.483 . S
C82 H57 0.949 . S
C82 C81 1.376 . S
C82 C83 1.397 . S
C83 H58 0.950 . S
C83 C82 1.397 . S
C83 C84 1.391 . S
C84 C83 1.391 . S
C84 C85 1.405 . S
C85 H59 0.950 . S
C85 C84 1.405 . S
C85 C86 1.367 . S
C86 H60 0.950 . S
C86 C81 1.386 . S
C86 C85 1.367 . S
C87 C81 1.483 . S
C87 C88 1.382 . S
C87 C89 1.403 . S
C88 H61 0.950 1_455 S
C88 C74 1.411 1_455 S
C88 C87 1.382 . S
C89 C73 1.411 . S
C89 C87 1.403 . S
C89 C90 1.489 . S
C90 C89 1.489 . S
C90 C91 1.383 . S
C90 C95 1.382 . S
C91 H62 0.950 . S
C91 C90 1.383 . S
C91 C92 1.395 . S
C92 H63 0.950 . S
C92 C91 1.395 . S
C92 C93 1.288 . S
C93 C92 1.288 . S
C93 C94 1.392 . S
C94 H64 0.951 . S
C94 C93 1.392 . S
C94 C95 1.392 . S
C95 H65 0.949 . S
C95 C90 1.382 . S
C95 C94 1.392 . S
H96 C115 0.949 . S
H97 C116 0.950 . S
H98 C118 0.950 . S
H99 C119 0.950 . S
H100 C121 0.950 . S
H101 C124 0.950 . S
H102 C125 0.950 . S
H103 C127 0.951 . S
H104 C128 0.949 . S
H105 C130 0.949 . S
H106 C131 0.950 . S
H107 C133 0.950 . S
H108 C134 0.950 . S
H109 C136 0.950 . S
H110 C139 0.950 . S
H111 C140 0.950 . S
H112 C142 0.951 . S
H113 C143 0.949 . S
C114 C115 1.376 . S
C114 C119 1.386 . S
C114 C120 1.483 . S
C115 H96 0.949 . S
C115 C114 1.376 . S
C115 C116 1.397 . S
C116 H97 0.950 . S
C116 C115 1.397 . S
C116 C117 1.391 . S
C117 C116 1.391 . S
C117 C118 1.405 . S
C118 H98 0.950 . S
C118 C117 1.405 . S
C118 C119 1.367 . S
C119 H99 0.950 . S
C119 C114 1.386 . S
C119 C118 1.367 . S
C120 C114 1.483 . S
C120 C121 1.382 . S
C120 C122 1.403 . S
C121 H100 0.950 . S
C121 C120 1.382 . S
C121 C137 1.411 . S
C122 C120 1.403 . S
C122 C123 1.489 . S
C122 C136 1.411 . S
C123 C122 1.489 . S
C123 C124 1.383 . S
C123 C128 1.382 . S
C124 H101 0.950 . S
C124 C123 1.383 . S
C124 C125 1.395 . S
C125 H102 0.950 . S
C125 C124 1.395 . S
C125 C126 1.288 . S
C126 C125 1.288 . S
C126 C127 1.392 . S
C127 H103 0.951 . S
C127 C126 1.392 . S
C127 C128 1.392 . S
C128 H104 0.949 . S
C128 C123 1.382 . S
C128 C127 1.392 . S
C129 C130 1.376 . S
C129 C134 1.386 . S
C129 C135 1.483 . S
C130 H105 0.949 . S
C130 C129 1.376 . S
C130 C131 1.397 . S
C131 H106 0.950 . S
C131 C130 1.397 . S
C131 C132 1.391 . S
C132 C131 1.391 . S
C132 C133 1.405 . S
C133 H107 0.950 . S
C133 C132 1.405 . S
C133 C134 1.367 . S
C134 H108 0.950 . S
C134 C129 1.386 . S
C134 C133 1.367 . S
C135 C129 1.483 . S
C135 C136 1.382 . S
C135 C137 1.403 . S
C136 H109 0.950 . S
C136 C122 1.411 . S
C136 C135 1.382 . S
C137 C121 1.411 . S
C137 C135 1.403 . S
C137 C138 1.489 . S
C138 C137 1.489 . S
C138 C139 1.383 . S
C138 C143 1.382 . S
C139 H110 0.950 . S
C139 C138 1.383 . S
C139 C140 1.395 . S
C140 H111 0.950 . S
C140 C139 1.395 . S
C140 C141 1.288 . S
C141 C140 1.288 . S
C141 C142 1.392 . S
C142 H112 0.951 . S
C142 C141 1.392 . S
C142 C143 1.392 . S
C143 H113 0.949 . S
C143 C138 1.382 . S
C143 C142 1.392 . S
H144 C163 0.949 . S
H145 C164 0.950 . S
H146 C166 0.950 . S
H147 C167 0.950 . S
H148 C169 0.954 . S
H149 C172 0.950 . S
H150 C173 0.950 . S
H151 C175 0.951 . S
H152 C176 0.949 . S
H153 C178 0.949 . S
H154 C179 0.950 . S
H155 C181 0.950 . S
H156 C182 0.950 . S
H157 C184 0.950 . S
H158 C187 0.950 . S
H159 C188 0.950 . S
H160 C190 0.951 . S
H161 C191 0.949 . S
C162 C163 1.376 . S
C162 C167 1.386 . S
C162 C168 1.483 . S
C163 H144 0.949 . S
C163 C162 1.376 . S
C163 C164 1.397 . S
C164 H145 0.950 . S
C164 C163 1.397 . S
C164 C165 1.391 . S
C165 C164 1.391 . S
C165 C166 1.405 . S
C166 H146 0.950 . S
C166 C165 1.405 . S
C166 C167 1.367 . S
C167 H147 0.950 . S
C167 C162 1.386 . S
C167 C166 1.367 . S
C168 C162 1.483 . S
C168 C169 1.400 . S
C168 C170 1.403 . S
C169 H148 0.954 . S
C169 C168 1.400 . S
C169 C185 1.390 1_565 S
C170 C168 1.403 . S
C170 C171 1.489 . S
C170 C184 1.411 1_565 S
C171 C170 1.489 . S
C171 C172 1.383 . S
C171 C176 1.382 . S
C172 H149 0.950 . S
C172 C171 1.383 . S
C172 C173 1.395 . S
C173 H150 0.950 . S
C173 C172 1.395 . S
C173 C174 1.288 . S
C174 C173 1.288 . S
C174 C175 1.392 . S
C175 H151 0.951 . S
C175 C174 1.392 . S
C175 C176 1.392 . S
C176 H152 0.949 . S
C176 C171 1.382 . S
C176 C175 1.392 . S
C177 C178 1.376 . S
C177 C182 1.386 . S
C177 C183 1.483 . S
C178 H153 0.949 . S
C178 C177 1.376 . S
C178 C179 1.397 . S
C179 H154 0.950 . S
C179 C178 1.397 . S
C179 C180 1.391 . S
C180 C179 1.391 . S
C180 C181 1.405 . S
C181 H155 0.950 . S
C181 C180 1.405 . S
C181 C182 1.367 . S
C182 H156 0.950 . S
C182 C177 1.386 . S
C182 C181 1.367 . S
C183 C177 1.483 . S
C183 C184 1.382 . S
C183 C185 1.403 . S
C184 H157 0.950 . S
C184 C170 1.411 1_545 S
C184 C183 1.382 . S
C185 C169 1.390 1_545 S
C185 C183 1.403 . S
C185 C186 1.489 . S
C186 C185 1.489 . S
C186 C187 1.383 . S
C186 C191 1.382 . S
C187 H158 0.950 . S
C187 C186 1.383 . S
C187 C188 1.395 . S
C188 H159 0.950 . S
C188 C187 1.395 . S
C188 C189 1.288 . S
C189 C188 1.288 . S
C189 C190 1.392 . S
C190 H160 0.951 . S
C190 C189 1.392 . S
C190 C191 1.392 . S
C191 H161 0.949 . S
C191 C186 1.382 . S
C191 C190 1.392 . S
H192 C211 0.949 . S
H193 C212 0.950 . S
H194 C214 0.950 . S
H195 C215 0.950 . S
H196 C217 0.950 . S
H197 C220 0.950 . S
H198 C221 0.950 . S
H199 C223 0.951 1_554 S
H200 C224 0.949 . S
H201 C226 0.949 . S
H202 C227 0.950 . S
H203 C229 0.950 . S
H204 C230 0.950 . S
H205 C232 0.950 . S
H206 C235 0.950 . S
H207 C236 0.950 . S
H208 C238 0.951 . S
H209 C239 0.949 . S
C210 C211 1.376 . S
C210 C215 1.386 . S
C210 C216 1.483 . S
C211 H192 0.949 . S
C211 C210 1.376 . S
C211 C212 1.397 . S
C212 H193 0.950 . S
C212 C211 1.397 . S
C212 C213 1.391 . S
C213 C212 1.391 . S
C213 C214 1.405 . S
C214 H194 0.950 . S
C214 C213 1.405 . S
C214 C215 1.367 . S
C215 H195 0.950 . S
C215 C210 1.386 . S
C215 C214 1.367 . S
C216 C210 1.483 . S
C216 C217 1.382 1_455 S
C216 C218 1.403 . S
C217 H196 0.950 . S
C217 C216 1.382 1_655 S
C217 C233 1.411 . S
C218 C216 1.403 . S
C218 C219 1.489 . S
C218 C232 1.411 . S
C219 C218 1.489 . S
C219 C220 1.383 . S
C219 C224 1.382 . S
C220 H197 0.950 . S
C220 C219 1.383 . S
C220 C221 1.395 . S
C221 H198 0.950 . S
C221 C220 1.395 . S
C221 C222 1.288 . S
C222 C221 1.288 . S
C222 C223 1.392 . S
C223 H199 0.951 1_556 S
C223 C222 1.392 . S
C223 C224 1.392 . S
C224 H200 0.949 . S
C224 C219 1.382 . S
C224 C223 1.392 . S
C225 C226 1.376 . S
C225 C230 1.386 . S
C225 C231 1.483 . S
C226 H201 0.949 . S
C226 C225 1.376 . S
C226 C227 1.397 . S
C227 H202 0.950 . S
C227 C226 1.397 . S
C227 C228 1.391 . S
C228 C227 1.391 . S
C228 C229 1.405 . S
C229 H203 0.950 . S
C229 C228 1.405 . S
C229 C230 1.367 . S
C230 H204 0.950 . S
C230 C225 1.386 . S
C230 C229 1.367 . S
C231 C225 1.483 . S
C231 C232 1.382 1_655 S
C231 C233 1.403 . S
C232 H205 0.950 . S
C232 C218 1.411 . S
C232 C231 1.382 1_455 S
C233 C217 1.411 . S
C233 C231 1.403 . S
C233 C234 1.489 . S
C234 C233 1.489 . S
C234 C235 1.383 . S
C234 C239 1.382 . S
C235 H206 0.950 . S
C235 C234 1.383 . S
C235 C236 1.395 . S
C236 H207 0.950 . S
C236 C235 1.395 . S
C236 C237 1.288 . S
C237 C236 1.288 . S
C237 C238 1.392 . S
C238 H208 0.951 . S
C238 C237 1.392 . S
C238 C239 1.392 . S
C239 H209 0.949 . S
C239 C234 1.382 . S
C239 C238 1.392 . S
H240 C259 0.949 . S
H241 C260 0.950 . S
H242 C262 0.950 . S
H243 C263 0.950 . S
H244 C265 0.950 . S
H245 C268 0.950 . S
H246 C269 0.950 . S
H247 C271 0.951 . S
H248 C272 0.949 . S
H249 C274 0.949 . S
H250 C275 0.950 . S
H251 C277 0.950 . S
H252 C278 0.950 . S
H253 C280 0.950 . S
H254 C283 0.950 . S
H255 C284 0.950 . S
H256 C286 0.951 . S
H257 C287 0.949 . S
C258 C259 1.376 . S
C258 C263 1.386 . S
C258 C264 1.483 . S
C259 H240 0.949 . S
C259 C258 1.376 . S
C259 C260 1.397 . S
C260 H241 0.950 . S
C260 C259 1.397 . S
C260 C261 1.391 . S
C261 C260 1.391 . S
C261 C262 1.405 . S
C262 H242 0.950 . S
C262 C261 1.405 . S
C262 C263 1.367 . S
C263 H243 0.950 . S
C263 C258 1.386 . S
C263 C262 1.367 . S
C264 C258 1.483 . S
C264 C265 1.382 . S
C264 C266 1.403 . S
C265 H244 0.950 . S
C265 C264 1.382 . S
C265 C281 1.411 . S
C266 C264 1.403 . S
C266 C267 1.489 . S
C266 C280 1.411 . S
C267 C266 1.489 . S
C267 C268 1.383 . S
C267 C272 1.382 . S
C268 H245 0.950 . S
C268 C267 1.383 . S
C268 C269 1.395 . S
C269 H246 0.950 . S
C269 C268 1.395 . S
C269 C270 1.288 . S
C270 C269 1.288 . S
C270 C271 1.392 . S
C271 H247 0.951 . S
C271 C270 1.392 . S
C271 C272 1.392 . S
C272 H248 0.949 . S
C272 C267 1.382 . S
C272 C271 1.392 . S
C273 C274 1.376 . S
C273 C278 1.386 . S
C273 C279 1.483 . S
C274 H249 0.949 . S
C274 C273 1.376 . S
C274 C275 1.397 . S
C275 H250 0.950 . S
C275 C274 1.397 . S
C275 C276 1.391 . S
C276 C275 1.391 . S
C276 C277 1.405 . S
C277 H251 0.950 . S
C277 C276 1.405 . S
C277 C278 1.367 . S
C278 H252 0.950 . S
C278 C273 1.386 . S
C278 C277 1.367 . S
C279 C273 1.483 . S
C279 C280 1.382 . S
C279 C281 1.403 . S
C280 H253 0.950 . S
C280 C266 1.411 . S
C280 C279 1.382 . S
C281 C265 1.411 . S
C281 C279 1.403 . S
C281 C282 1.489 . S
C282 C281 1.489 . S
C282 C283 1.383 . S
C282 C287 1.382 . S
C283 H254 0.950 . S
C283 C282 1.383 . S
C283 C284 1.395 . S
C284 H255 0.950 . S
C284 C283 1.395 . S
C284 C285 1.288 . S
C285 C284 1.288 . S
C285 C286 1.392 . S
C286 H256 0.951 . S
C286 C285 1.392 . S
C286 C287 1.392 . S
C287 H257 0.949 . S
C287 C282 1.382 . S
C287 C286 1.392 . S
H288 C307 0.949 . S
H289 C308 0.950 . S
H290 C310 0.950 . S
H291 C311 0.950 . S
H292 C313 0.950 . S
H293 C316 0.950 . S
H294 C317 0.950 . S
H295 C319 0.951 . S
H296 C320 0.949 1_545 S
H297 C322 0.949 . S
H298 C323 0.950 . S
H299 C325 0.950 . S
H300 C326 0.950 . S
H301 C328 0.950 . S
H302 C331 0.950 . S
H303 C332 0.950 . S
H304 C334 0.951 . S
H305 C335 0.949 1_565 S
C306 C307 1.376 . S
C306 C311 1.386 . S
C306 C312 1.483 . S
C307 H288 0.949 . S
C307 C306 1.376 . S
C307 C308 1.397 . S
C308 H289 0.950 . S
C308 C307 1.397 . S
C308 C309 1.391 . S
C309 C308 1.391 . S
C309 C310 1.405 . S
C310 H290 0.950 . S
C310 C309 1.405 . S
C310 C311 1.367 . S
C311 H291 0.950 . S
C311 C306 1.386 . S
C311 C310 1.367 . S
C312 C306 1.483 . S
C312 C313 1.382 . S
C312 C314 1.403 . S
C313 H292 0.950 . S
C313 C312 1.382 . S
C313 C329 1.411 1_565 S
C314 C312 1.403 . S
C314 C315 1.489 . S
C314 C328 1.411 1_565 S
C315 C314 1.489 . S
C315 C316 1.383 . S
C315 C320 1.382 . S
C316 H293 0.950 . S
C316 C315 1.383 . S
C316 C317 1.395 . S
C317 H294 0.950 . S
C317 C316 1.395 . S
C317 C318 1.288 . S
C318 C317 1.288 . S
C318 C319 1.392 . S
C319 H295 0.951 . S
C319 C318 1.392 . S
C319 C320 1.392 . S
C320 H296 0.949 1_565 S
C320 C315 1.382 . S
C320 C319 1.392 . S
C321 C322 1.376 . S
C321 C326 1.386 . S
C321 C327 1.483 . S
C322 H297 0.949 . S
C322 C321 1.376 . S
C322 C323 1.397 . S
C323 H298 0.950 . S
C323 C322 1.397 . S
C323 C324 1.391 . S
C324 C323 1.391 . S
C324 C325 1.405 . S
C325 H299 0.950 . S
C325 C324 1.405 . S
C325 C326 1.367 . S
C326 H300 0.950 . S
C326 C321 1.386 . S
C326 C325 1.367 . S
C327 C321 1.483 . S
C327 C328 1.382 . S
C327 C329 1.403 . S
C328 H301 0.950 . S
C328 C314 1.411 1_545 S
C328 C327 1.382 . S
C329 C313 1.411 1_545 S
C329 C327 1.403 . S
C329 C330 1.489 . S
C330 C329 1.489 . S
C330 C331 1.383 . S
C330 C335 1.382 . S
C331 H302 0.950 . S
C331 C330 1.383 . S
C331 C332 1.395 . S
C332 H303 0.950 . S
C332 C331 1.395 . S
C332 C333 1.288 . S
C333 C332 1.288 . S
C333 C334 1.392 . S
C334 H304 0.951 . S
C334 C333 1.392 . S
C334 C335 1.392 . S
C335 H305 0.949 1_545 S
C335 C330 1.382 . S
C335 C334 1.392 . S
H336 C355 0.949 . S
H337 C356 0.950 1_455 S
H338 C358 0.950 . S
H339 C359 0.950 . S
H340 C361 0.950 . S
H341 C364 0.950 1_455 S
H342 C365 0.950 . S
H343 C367 0.951 . S
H344 C368 0.949 . S
H345 C370 0.949 . S
H346 C371 0.950 . S
H347 C373 0.950 . S
H348 C374 0.965 . S
H349 C376 0.950 . S
H350 C379 0.950 . S
H351 C380 0.950 . S
H352 C382 0.951 . S
H353 C383 0.949 . S
C354 C355 1.376 1_655 S
C354 C359 1.386 . S
C354 C360 1.483 1_655 S
C355 H336 0.949 . S
C355 C354 1.376 1_455 S
C355 C356 1.397 1_455 S
C356 H337 0.950 1_655 S
C356 C355 1.397 1_655 S
C356 C357 1.391 . S
C357 C356 1.391 . S
C357 C358 1.405 . S
C358 H338 0.950 . S
C358 C357 1.405 . S
C358 C359 1.367 . S
C359 H339 0.950 . S
C359 C354 1.386 . S
C359 C358 1.367 . S
C360 C354 1.483 1_455 S
C360 C361 1.382 . S
C360 C362 1.403 . S
C361 H340 0.950 . S
C361 C360 1.382 . S
C361 C377 1.411 . S
C362 C360 1.403 . S
C362 C363 1.489 1_455 S
C362 C376 1.411 . S
C363 C362 1.489 1_655 S
C363 C364 1.383 . S
C363 C368 1.382 . S
C364 H341 0.950 1_655 S
C364 C363 1.383 . S
C364 C365 1.395 . S
C365 H342 0.950 . S
C365 C364 1.395 . S
C365 C366 1.288 . S
C366 C365 1.288 . S
C366 C367 1.392 . S
C367 H343 0.951 . S
C367 C366 1.392 . S
C367 C368 1.392 . S
C368 H344 0.949 . S
C368 C363 1.382 . S
C368 C367 1.392 . S
C369 C370 1.376 . S
C369 C374 1.386 . S
C369 C375 1.483 1_565 S
C370 H345 0.949 . S
C370 C369 1.376 . S
C370 C371 1.397 . S
C371 H346 0.950 . S
C371 C370 1.397 . S
C371 C372 1.391 . S
C372 C371 1.391 . S
C372 C373 1.405 . S
C373 H347 0.950 . S
C373 C372 1.405 . S
C373 C374 1.367 . S
C374 H348 0.965 . S
C374 C369 1.386 . S
C374 C373 1.367 . S
C375 C369 1.483 1_545 S
C375 C376 1.382 . S
C375 C377 1.403 . S
C376 H349 0.950 . S
C376 C362 1.411 . S
C376 C375 1.382 . S
C377 C361 1.411 . S
C377 C375 1.403 . S
C377 C378 1.489 1_545 S
C378 C377 1.489 1_565 S
C378 C379 1.383 . S
C378 C383 1.382 1_565 S
C379 H350 0.950 . S
C379 C378 1.383 . S
C379 C380 1.395 . S
C380 H351 0.950 . S
C380 C379 1.395 . S
C380 C381 1.288 . S
C381 C380 1.288 . S
C381 C382 1.392 . S
C382 H352 0.951 . S
C382 C381 1.392 . S
C382 C383 1.392 1_565 S
C383 H353 0.949 . S
C383 C378 1.382 1_545 S
C383 C382 1.392 1_545 S
Zn384 O387 2.031 . S
Zn384 O389 2.049 . S
Zn384 O394 2.067 . S
Zn385 O386 1.962 . S
Zn385 O388 1.986 . S
Zn385 O390 1.996 . S
Zn385 O393 1.943 1_554 S
O386 Zn385 1.962 . S
O386 C391 1.254 . S
O387 Zn384 2.031 . S
O387 C391 1.269 1_556 S
O388 Zn385 1.986 . S
O388 C395 1.262 . S
O389 Zn384 2.049 . S
O389 C397 1.260 1_556 S
O390 Zn385 1.996 . S
O390 C397 1.257 . S
C391 O386 1.254 . S
C391 O387 1.269 1_554 S
C392 O393 1.249 . S
C392 O394 1.270 . S
O393 Zn385 1.943 1_556 S
O393 C392 1.249 . S
O394 Zn384 2.067 . S
O394 C392 1.270 . S
C395 O388 1.262 . S
C395 O396 1.232 . S
O396 C395 1.232 . S
C397 O389 1.260 1_554 S
C397 O390 1.257 . S
Zn398 O401 2.031 . S
Zn398 O403 2.049 . S
Zn398 O408 2.067 . S
Zn399 O400 1.962 . S
Zn399 O402 1.986 . S
Zn399 O404 1.996 . S
Zn399 O407 1.943 . S
O400 Zn399 1.962 . S
O400 C405 1.254 . S
O401 Zn398 2.031 . S
O401 C405 1.269 . S
O402 Zn399 1.986 . S
O402 C409 1.262 . S
O403 Zn398 2.049 . S
O403 C411 1.260 . S
O404 Zn399 1.996 . S
O404 C411 1.257 . S
C405 O400 1.254 . S
C405 O401 1.269 . S
C406 O407 1.249 . S
C406 O408 1.270 . S
O407 Zn399 1.943 . S
O407 C406 1.249 . S
O408 Zn398 2.067 . S
O408 C406 1.270 . S
C409 O402 1.262 . S
C409 O410 1.232 . S
O410 C409 1.232 . S
C411 O403 1.260 . S
C411 O404 1.257 . S
Zn412 O415 2.031 . S
Zn412 O417 2.049 . S
Zn412 O422 2.067 . S
Zn413 O414 1.962 . S
Zn413 O416 1.986 . S
Zn413 O418 1.996 . S
Zn413 O421 1.943 . S
O414 Zn413 1.962 . S
O414 C419 1.254 . S
O415 Zn412 2.031 . S
O415 C419 1.269 . S
O416 Zn413 1.986 . S
O416 C423 1.262 . S
O417 Zn412 2.049 . S
O417 C425 1.260 . S
O418 Zn413 1.996 . S
O418 C425 1.257 . S
C419 O414 1.254 . S
C419 O415 1.269 . S
C420 O421 1.249 . S
C420 O422 1.270 . S
O421 Zn413 1.943 . S
O421 C420 1.249 . S
O422 Zn412 2.067 . S
O422 C420 1.270 . S
C423 O416 1.262 . S
C423 O424 1.232 . S
O424 C423 1.232 . S
C425 O417 1.260 . S
C425 O418 1.257 . S
Zn426 O429 2.031 . S
Zn426 O431 2.049 . S
Zn426 O436 2.067 . S
Zn427 O428 1.962 . S
Zn427 O430 1.986 . S
Zn427 O432 1.996 . S
Zn427 O435 1.943 . S
O428 Zn427 1.962 . S
O428 C433 1.254 . S
O429 Zn426 2.031 . S
O429 C433 1.269 . S
O430 Zn427 1.986 . S
O430 C437 1.262 . S
O431 Zn426 2.049 . S
O431 C439 1.260 . S
O432 Zn427 1.996 . S
O432 C439 1.257 . S
C433 O428 1.254 . S
C433 O429 1.269 . S
C434 O435 1.249 . S
C434 O436 1.270 . S
O435 Zn427 1.943 . S
O435 C434 1.249 . S
O436 Zn426 2.067 . S
O436 C434 1.270 . S
C437 O430 1.262 . S
C437 O438 1.232 . S
O438 C437 1.232 . S
C439 O431 1.260 . S
C439 O432 1.257 . S
Zn440 O443 2.031 . S
Zn440 O445 2.049 . S
Zn440 O450 2.067 . S
Zn441 O442 1.962 . S
Zn441 O444 1.986 . S
Zn441 O446 1.996 . S
Zn441 O449 1.943 . S
O442 Zn441 1.962 . S
O442 C447 1.254 . S
O443 Zn440 2.031 . S
O443 C447 1.269 . S
O444 Zn441 1.986 . S
O444 C451 1.262 . S
O445 Zn440 2.049 . S
O445 C453 1.260 . S
O446 Zn441 1.996 . S
O446 C453 1.257 . S
C447 O442 1.254 . S
C447 O443 1.269 . S
C448 O449 1.249 . S
C448 O450 1.270 . S
O449 Zn441 1.943 . S
O449 C448 1.249 . S
O450 Zn440 2.067 . S
O450 C448 1.270 . S
C451 O444 1.262 . S
C451 O452 1.232 . S
O452 C451 1.232 . S
C453 O445 1.260 . S
C453 O446 1.257 . S
Zn454 O457 2.031 . S
Zn454 O459 2.049 . S
Zn454 O464 2.067 . S
Zn455 O456 1.962 . S
Zn455 O458 1.986 . S
Zn455 O460 1.996 . S
Zn455 O463 1.943 . S
O456 Zn455 1.962 . S
O456 C461 1.254 . S
O457 Zn454 2.031 . S
O457 C461 1.269 . S
O458 Zn455 1.986 . S
O458 C465 1.262 . S
O459 Zn454 2.049 . S
O459 C467 1.260 . S
O460 Zn455 1.996 . S
O460 C467 1.257 . S
C461 O456 1.254 . S
C461 O457 1.269 . S
C462 O463 1.249 . S
C462 O464 1.270 . S
O463 Zn455 1.943 . S
O463 C462 1.249 . S
O464 Zn454 2.067 . S
O464 C462 1.270 . S
C465 O458 1.262 . S
C465 O466 1.232 . S
O466 C465 1.232 . S
C467 O459 1.260 . S
C467 O460 1.257 . S
Zn468 O471 2.031 . S
Zn468 O473 2.049 . S
Zn468 O478 2.067 . S
Zn469 O470 1.962 . S
Zn469 O472 1.986 . S
Zn469 O474 1.996 . S
Zn469 O477 1.943 1_556 S
O470 Zn469 1.962 . S
O470 C475 1.254 1_556 S
O471 Zn468 2.031 . S
O471 C475 1.269 . S
O472 Zn469 1.986 . S
O472 C479 1.262 . S
O473 Zn468 2.049 . S
O473 C481 1.260 . S
O474 Zn469 1.996 . S
O474 C481 1.257 1_556 S
C475 O470 1.254 1_554 S
C475 O471 1.269 . S
C476 O477 1.249 . S
C476 O478 1.270 . S
O477 Zn469 1.943 1_554 S
O477 C476 1.249 . S
O478 Zn468 2.067 . S
O478 C476 1.270 . S
C479 O472 1.262 . S
C479 O480 1.232 . S
O480 C479 1.232 . S
C481 O473 1.260 . S
C481 O474 1.257 1_554 S
Zn482 O485 2.031 . S
Zn482 O487 2.049 . S
Zn482 O492 2.067 . S
Zn483 O484 1.962 . S
Zn483 O486 1.986 . S
Zn483 O488 1.996 . S
Zn483 O491 1.943 . S
O484 Zn483 1.962 . S
O484 C489 1.254 . S
O485 Zn482 2.031 . S
O485 C489 1.269 . S
O486 Zn483 1.986 . S
O486 C493 1.262 . S
O487 Zn482 2.049 . S
O487 C495 1.260 . S
O488 Zn483 1.996 . S
O488 C495 1.257 . S
C489 O484 1.254 . S
C489 O485 1.269 . S
C490 O491 1.249 . S
C490 O492 1.270 . S
O491 Zn483 1.943 . S
O491 C490 1.249 . S
O492 Zn482 2.067 . S
O492 C490 1.270 . S
C493 O486 1.262 . S
C493 O494 1.232 . S
O494 C493 1.232 . S
C495 O487 1.260 . S
C495 O488 1.257 . S
C496 C497 1.363 . S
C496 C502 1.379 . S
C496 N504 1.356 . S
C497 C496 1.363 . S
C497 C503 1.363 . S
C498 C499 1.363 . S
C498 C503 1.379 . S
C498 N505 1.356 . S
C499 C498 1.363 . S
C499 C502 1.363 . S
N500 C502 1.356 . S
N500 H512 0.984 . S
N500 H513 0.985 . S
N501 C503 1.356 . S
N501 H506 0.984 . S
N501 H507 0.985 . S
C502 C496 1.379 . S
C502 C499 1.363 . S
C502 N500 1.356 . S
C503 C497 1.363 . S
C503 C498 1.379 . S
C503 N501 1.356 . S
N504 C496 1.356 . S
N504 H510 0.984 . S
N504 H511 0.984 . S
N505 C498 1.356 . S
N505 H508 0.984 . S
N505 H509 0.985 . S
H506 N501 0.984 . S
H507 N501 0.985 . S
H508 N505 0.984 . S
H509 N505 0.985 . S
H510 N504 0.984 . S
H511 N504 0.984 . S
H512 N500 0.984 . S
H513 N500 0.985 . S
C514 C515 1.363 . S
C514 C520 1.379 . S
C514 N522 1.356 . S
C515 C514 1.363 . S
C515 C521 1.363 . S
C516 C517 1.363 . S
C516 C521 1.379 . S
C516 N523 1.356 . S
C517 C516 1.363 . S
C517 C520 1.363 . S
N518 C520 1.356 . S
N518 H530 0.984 . S
N518 H531 0.985 . S
N519 C521 1.356 . S
N519 H524 0.984 . S
N519 H525 0.985 . S
C520 C514 1.379 . S
C520 C517 1.363 . S
C520 N518 1.356 . S
C521 C515 1.363 . S
C521 C516 1.379 . S
C521 N519 1.356 . S
N522 C514 1.356 . S
N522 H528 0.984 . S
N522 H529 0.984 . S
N523 C516 1.356 . S
N523 H526 0.984 . S
N523 H527 0.985 . S
H524 N519 0.984 . S
H525 N519 0.985 . S
H526 N523 0.984 . S
H527 N523 0.985 . S
H528 N522 0.984 . S
H529 N522 0.984 . S
H530 N518 0.984 . S
H531 N518 0.985 . S
C532 C533 1.363 . S
C532 C538 1.379 . S
C532 N540 1.356 . S
C533 C532 1.363 . S
C533 C539 1.363 . S
C534 C535 1.363 . S
C534 C539 1.379 . S
C534 N541 1.356 . S
C535 C534 1.363 . S
C535 C538 1.363 . S
N536 C538 1.356 . S
N536 H548 0.984 . S
N536 H549 0.985 . S
N537 C539 1.356 . S
N537 H542 0.984 . S
N537 H543 0.985 . S
C538 C532 1.379 . S
C538 C535 1.363 . S
C538 N536 1.356 . S
C539 C533 1.363 . S
C539 C534 1.379 . S
C539 N537 1.356 . S
N540 C532 1.356 . S
N540 H546 0.984 . S
N540 H547 0.984 . S
N541 C534 1.356 . S
N541 H544 0.984 . S
N541 H545 0.985 . S
H542 N537 0.984 . S
H543 N537 0.985 . S
H544 N541 0.984 . S
H545 N541 0.985 . S
H546 N540 0.984 . S
H547 N540 0.984 . S
H548 N536 0.984 . S
H549 N536 0.985 . S
C550 C551 1.363 . S
C550 C556 1.379 . S
C550 N558 1.356 1_554 S
C551 C550 1.363 . S
C551 C557 1.363 . S
C552 C553 1.363 . S
C552 C557 1.379 . S
C552 N559 1.356 . S
C553 C552 1.363 . S
C553 C556 1.363 . S
N554 C556 1.356 1_556 S
N554 H566 0.984 . S
N554 H567 0.985 . S
N555 C557 1.356 . S
N555 H560 0.984 . S
N555 H561 0.985 . S
C556 C550 1.379 . S
C556 C553 1.363 . S
C556 N554 1.356 1_554 S
C557 C551 1.363 . S
C557 C552 1.379 . S
C557 N555 1.356 . S
N558 C550 1.356 1_556 S
N558 H564 0.984 . S
N558 H565 0.984 . S
N559 C552 1.356 . S
N559 H562 0.984 . S
N559 H563 0.985 . S
H560 N555 0.984 . S
H561 N555 0.985 . S
H562 N559 0.984 . S
H563 N559 0.985 . S
H564 N558 0.984 . S
H565 N558 0.984 . S
H566 N554 0.984 . S
H567 N554 0.985 . S
C568 C569 1.363 1_556 S
C568 C574 1.379 . S
C568 N576 1.356 . S
C569 C568 1.363 1_554 S
C569 C575 1.363 . S
C570 C571 1.364 1_554 S
C570 C575 1.379 . S
C570 N577 1.356 . S
C571 C570 1.364 1_556 S
C571 C574 1.362 . S
N572 C574 1.356 . S
N572 H584 0.984 . S
N572 H585 0.985 . S
N573 C575 1.356 . S
N573 H578 0.984 . S
N573 H579 0.985 . S
C574 C568 1.379 . S
C574 C571 1.362 . S
C574 N572 1.356 . S
C575 C569 1.363 . S
C575 C570 1.379 . S
C575 N573 1.356 . S
N576 C568 1.356 . S
N576 H582 0.984 . S
N576 H583 0.984 . S
N577 C570 1.356 . S
N577 H580 0.984 . S
N577 H581 0.985 . S
H578 N573 0.984 . S
H579 N573 0.985 . S
H580 N577 0.984 . S
H581 N577 0.985 . S
H582 N576 0.984 . S
H583 N576 0.984 . S
H584 N572 0.984 . S
H585 N572 0.985 . S
C586 C587 1.363 . S
C586 C592 1.379 . S
C586 N594 1.356 . S
C587 C586 1.363 . S
C587 C593 1.363 . S
C588 C589 1.363 . S
C588 C593 1.379 . S
C588 N595 1.356 . S
C589 C588 1.363 . S
C589 C592 1.363 . S
N590 C592 1.356 . S
N590 H602 0.984 . S
N590 H603 0.985 . S
N591 C593 1.356 . S
N591 H596 0.984 . S
N591 H597 0.985 . S
C592 C586 1.379 . S
C592 C589 1.363 . S
C592 N590 1.356 . S
C593 C587 1.363 . S
C593 C588 1.379 . S
C593 N591 1.356 . S
N594 C586 1.356 . S
N594 H600 0.984 . S
N594 H601 0.984 . S
N595 C588 1.356 . S
N595 H598 0.984 . S
N595 H599 0.985 . S
H596 N591 0.984 . S
H597 N591 0.985 . S
H598 N595 0.984 . S
H599 N595 0.985 . S
H600 N594 0.984 . S
H601 N594 0.984 . S
H602 N590 0.984 . S
H603 N590 0.985 . S
C604 C605 1.363 . S
C604 C610 1.379 . S
C604 N612 1.356 . S
C605 C604 1.363 . S
C605 C611 1.363 . S
C606 C607 1.363 . S
C606 C611 1.379 . S
C606 N613 1.356 . S
C607 C606 1.363 . S
C607 C610 1.363 . S
N608 C610 1.356 . S
N608 H620 0.984 . S
N608 H621 0.985 . S
N609 C611 1.356 . S
N609 H614 0.984 . S
N609 H615 0.985 . S
C610 C604 1.379 . S
C610 C607 1.363 . S
C610 N608 1.356 . S
C611 C605 1.363 . S
C611 C606 1.379 . S
C611 N609 1.356 . S
N612 C604 1.356 . S
N612 H618 0.984 . S
N612 H619 0.984 . S
N613 C606 1.356 . S
N613 H616 0.984 . S
N613 H617 0.985 . S
H614 N609 0.984 . S
H615 N609 0.985 . S
H616 N613 0.984 . S
H617 N613 0.985 . S
H618 N612 0.984 . S
H619 N612 0.984 . S
H620 N608 0.984 . S
H621 N608 0.985 . S
C622 C623 1.363 . S
C622 C628 1.379 . S
C622 N630 1.356 . S
C623 C622 1.363 . S
C623 C629 1.363 . S
C624 C625 1.363 . S
C624 C629 1.379 . S
C624 N631 1.356 . S
C625 C624 1.363 . S
C625 C628 1.363 . S
N626 C628 1.356 . S
N626 H638 0.984 . S
N626 H639 0.985 . S
N627 C629 1.356 . S
N627 H632 0.984 . S
N627 H633 0.985 . S
C628 C622 1.379 . S
C628 C625 1.363 . S
C628 N626 1.356 . S
C629 C623 1.363 . S
C629 C624 1.379 . S
C629 N627 1.356 . S
N630 C622 1.356 . S
N630 H636 0.984 . S
N630 H637 0.984 . S
N631 C624 1.356 . S
N631 H634 0.984 . S
N631 H635 0.985 . S
H632 N627 0.984 . S
H633 N627 0.985 . S
H634 N631 0.984 . S
H635 N631 0.985 . S
H636 N630 0.984 . S
H637 N630 0.984 . S
H638 N626 0.984 . S
H639 N626 0.985 . S
C640 C641 1.363 . S
C640 C646 1.379 . S
C640 N648 1.356 . S
C641 C640 1.363 . S
C641 C647 1.363 . S
C642 C643 1.363 . S
C642 C647 1.379 . S
C642 N649 1.356 . S
C643 C642 1.363 . S
C643 C646 1.363 . S
N644 C646 1.356 . S
N644 H656 0.984 . S
N644 H657 0.985 . S
N645 C647 1.356 . S
N645 H650 0.984 . S
N645 H651 0.985 . S
C646 C640 1.379 . S
C646 C643 1.363 . S
C646 N644 1.356 . S
C647 C641 1.363 . S
C647 C642 1.379 . S
C647 N645 1.356 . S
N648 C640 1.356 . S
N648 H654 0.984 . S
N648 H655 0.984 . S
N649 C642 1.356 . S
N649 H652 0.984 . S
N649 H653 0.985 . S
H650 N645 0.984 . S
H651 N645 0.985 . S
H652 N649 0.984 . S
H653 N649 0.985 . S
H654 N648 0.984 . S
H655 N648 0.984 . S
H656 N644 0.984 . S
H657 N644 0.985 . S
C658 C659 1.363 . S
C658 C664 1.379 . S
C658 N666 1.356 . S
C659 C658 1.363 . S
C659 C665 1.359 . S
C660 C661 1.363 1_556 S
C660 C665 1.379 1_556 S
C660 N667 1.356 . S
C661 C660 1.363 1_554 S
C661 C664 1.363 . S
N662 C664 1.356 . S
N662 H674 0.984 . S
N662 H675 0.985 . S
N663 C665 1.359 1_556 S
N663 H668 0.984 . S
N663 H669 0.985 . S
C664 C658 1.379 . S
C664 C661 1.363 . S
C664 N662 1.356 . S
C665 C659 1.359 . S
C665 C660 1.379 1_554 S
C665 N663 1.359 1_554 S
N666 C658 1.356 . S
N666 H672 0.984 . S
N666 H673 0.984 . S
N667 C660 1.356 . S
N667 H670 0.984 . S
N667 H671 0.985 . S
H668 N663 0.984 . S
H669 N663 0.985 . S
H670 N667 0.984 . S
H671 N667 0.985 . S
H672 N666 0.984 . S
H673 N666 0.984 . S
H674 N662 0.984 . S
H675 N662 0.985 . S
C676 C677 1.363 . S
C676 C682 1.379 . S
C676 N684 1.356 . S
C677 C676 1.363 . S
C677 C683 1.363 . S
C678 C679 1.363 . S
C678 C683 1.379 . S
C678 N685 1.356 . S
C679 C678 1.363 . S
C679 C682 1.363 . S
N680 C682 1.356 . S
N680 H692 0.984 . S
N680 H693 0.985 . S
N681 C683 1.356 . S
N681 H686 0.984 . S
N681 H687 0.985 . S
C682 C676 1.379 . S
C682 C679 1.363 . S
C682 N680 1.356 . S
C683 C677 1.363 . S
C683 C678 1.379 . S
C683 N681 1.356 . S
N684 C676 1.356 . S
N684 H690 0.984 . S
N684 H691 0.984 . S
N685 C678 1.356 . S
N685 H688 0.984 . S
N685 H689 0.985 . S
H686 N681 0.984 . S
H687 N681 0.985 . S
H688 N685 0.984 . S
H689 N685 0.985 . S
H690 N684 0.984 . S
H691 N684 0.984 . S
H692 N680 0.984 . S
H693 N680 0.985 . S
C694 C695 1.363 . S
C694 C700 1.379 . S
C694 N702 1.356 . S
C695 C694 1.363 . S
C695 C701 1.363 . S
C696 C697 1.363 . S
C696 C701 1.379 . S
C696 N703 1.356 . S
C697 C696 1.363 . S
C697 C700 1.363 . S
N698 C700 1.356 . S
N698 H710 0.984 . S
N698 H711 0.985 . S
N699 C701 1.356 . S
N699 H704 0.984 . S
N699 H705 0.985 . S
C700 C694 1.379 . S
C700 C697 1.363 . S
C700 N698 1.356 . S
C701 C695 1.363 . S
C701 C696 1.379 . S
C701 N699 1.356 . S
N702 C694 1.356 . S
N702 H708 0.984 . S
N702 H709 0.984 . S
N703 C696 1.356 . S
N703 H706 0.984 . S
N703 H707 0.985 . S
H704 N699 0.984 . S
H705 N699 0.985 . S
H706 N703 0.984 . S
H707 N703 0.985 . S
H708 N702 0.984 . S
H709 N702 0.984 . S
H710 N698 0.984 . S
H711 N698 0.985 . S
C712 C713 1.363 . S
C712 C718 1.379 . S
C712 N720 1.356 . S
C713 C712 1.363 . S
C713 C719 1.363 . S
C714 C715 1.363 . S
C714 C719 1.379 . S
C714 N721 1.356 . S
C715 C714 1.363 . S
C715 C718 1.363 . S
N716 C718 1.356 . S
N716 H728 0.984 . S
N716 H729 0.985 . S
N717 C719 1.356 . S
N717 H722 0.984 . S
N717 H723 0.985 . S
C718 C712 1.379 . S
C718 C715 1.363 . S
C718 N716 1.356 . S
C719 C713 1.363 . S
C719 C714 1.379 . S
C719 N717 1.356 . S
N720 C712 1.356 . S
N720 H726 0.984 . S
N720 H727 0.984 . S
N721 C714 1.356 . S
N721 H724 0.984 . S
N721 H725 0.985 . S
H722 N717 0.984 . S
H723 N717 0.985 . S
H724 N721 0.984 . S
H725 N721 0.985 . S
H726 N720 0.984 . S
H727 N720 0.984 . S
H728 N716 0.984 . S
H729 N716 0.985 . S
C730 C731 1.363 . S
C730 C736 1.379 . S
C730 N738 1.356 . S
C731 C730 1.363 . S
C731 C737 1.363 . S
C732 C733 1.363 . S
C732 C737 1.379 . S
C732 N739 1.356 . S
C733 C732 1.363 . S
C733 C736 1.363 . S
N734 C736 1.356 . S
N734 H746 0.984 . S
N734 H747 0.985 . S
N735 C737 1.356 . S
N735 H740 0.984 . S
N735 H741 0.985 . S
C736 C730 1.379 . S
C736 C733 1.363 . S
C736 N734 1.356 . S
C737 C731 1.363 . S
C737 C732 1.379 . S
C737 N735 1.356 . S
N738 C730 1.356 . S
N738 H744 0.984 . S
N738 H745 0.984 . S
N739 C732 1.356 . S
N739 H742 0.984 . S
N739 H743 0.985 . S
H740 N735 0.984 . S
H741 N735 0.985 . S
H742 N739 0.984 . S
H743 N739 0.985 . S
H744 N738 0.984 . S
H745 N738 0.984 . S
H746 N734 0.984 . S
H747 N734 0.985 . S
C748 C749 1.363 . S
C748 C754 1.379 . S
C748 N756 1.356 . S
C749 C748 1.363 . S
C749 C755 1.363 1_556 S
C750 C751 1.363 1_554 S
C750 C755 1.379 . S
C750 N757 1.356 . S
C751 C750 1.363 1_556 S
C751 C754 1.363 . S
N752 C754 1.356 . S
N752 H764 0.984 . S
N752 H765 0.985 . S
N753 C755 1.356 . S
N753 H758 0.984 . S
N753 H759 0.985 . S
C754 C748 1.379 . S
C754 C751 1.363 . S
C754 N752 1.356 . S
C755 C749 1.363 1_554 S
C755 C750 1.379 . S
C755 N753 1.356 . S
N756 C748 1.356 . S
N756 H762 0.984 . S
N756 H763 0.984 . S
N757 C750 1.356 . S
N757 H760 0.984 . S
N757 H761 0.985 . S
H758 N753 0.984 . S
H759 N753 0.985 . S
H760 N757 0.984 . S
H761 N757 0.985 . S
H762 N756 0.984 . S
H763 N756 0.984 . S
H764 N752 0.984 . S
H765 N752 0.985 . S
C766 C767 1.363 . S
C766 C772 1.379 . S
C766 N774 1.356 . S
C767 C766 1.363 . S
C767 C773 1.363 . S
C768 C769 1.363 . S
C768 C773 1.379 . S
C768 N775 1.356 . S
C769 C768 1.363 . S
C769 C772 1.363 . S
N770 C772 1.356 . S
N770 H782 0.984 . S
N770 H783 0.985 . S
N771 C773 1.356 . S
N771 H776 0.984 . S
N771 H777 0.985 . S
C772 C766 1.379 . S
C772 C769 1.363 . S
C772 N770 1.356 . S
C773 C767 1.363 . S
C773 C768 1.379 . S
C773 N771 1.356 . S
N774 C766 1.356 . S
N774 H780 0.984 . S
N774 H781 0.984 . S
N775 C768 1.356 . S
N775 H778 0.984 . S
N775 H779 0.985 . S
H776 N771 0.984 . S
H777 N771 0.985 . S
H778 N775 0.984 . S
H779 N775 0.985 . S
H780 N774 0.984 . S
H781 N774 0.984 . S
H782 N770 0.984 . S
H783 N770 0.985 . S
C784 C785 1.363 . S
C784 C790 1.379 . S
C784 N792 1.356 . S
C785 C784 1.363 . S
C785 C791 1.363 . S
C786 C787 1.363 . S
C786 C791 1.379 . S
C786 N793 1.356 . S
C787 C786 1.363 . S
C787 C790 1.363 . S
N788 C790 1.356 . S
N788 H800 0.984 . S
N788 H801 0.985 . S
N789 C791 1.356 . S
N789 H794 0.984 . S
N789 H795 0.985 . S
C790 C784 1.379 . S
C790 C787 1.363 . S
C790 N788 1.356 . S
C791 C785 1.363 . S
C791 C786 1.379 . S
C791 N789 1.356 . S
N792 C784 1.356 . S
N792 H798 0.984 . S
N792 H799 0.984 . S
N793 C786 1.356 . S
N793 H796 0.984 . S
N793 H797 0.985 . S
H794 N789 0.984 . S
H795 N789 0.985 . S
H796 N793 0.984 . S
H797 N793 0.985 . S
H798 N792 0.984 . S
H799 N792 0.984 . S
H800 N788 0.984 . S
H801 N788 0.985 . S
C802 C803 1.363 . S
C802 C808 1.379 . S
C802 N810 1.356 . S
C803 C802 1.363 . S
C803 C809 1.363 . S
C804 C805 1.363 . S
C804 C809 1.379 . S
C804 N811 1.356 . S
C805 C804 1.363 . S
C805 C808 1.363 . S
N806 C808 1.356 . S
N806 H818 0.984 . S
N806 H819 0.985 . S
N807 C809 1.356 . S
N807 H812 0.984 . S
N807 H813 0.985 . S
C808 C802 1.379 . S
C808 C805 1.363 . S
C808 N806 1.356 . S
C809 C803 1.363 . S
C809 C804 1.379 . S
C809 N807 1.356 . S
N810 C802 1.356 . S
N810 H816 0.984 . S
N810 H817 0.984 . S
N811 C804 1.356 . S
N811 H814 0.984 . S
N811 H815 0.985 . S
H812 N807 0.984 . S
H813 N807 0.985 . S
H814 N811 0.984 . S
H815 N811 0.985 . S
H816 N810 0.984 . S
H817 N810 0.984 . S
H818 N806 0.984 . S
H819 N806 0.985 . S
C820 C821 1.363 . S
C820 C826 1.379 . S
C820 N828 1.356 . S
C821 C820 1.363 . S
C821 C827 1.363 . S
C822 C823 1.363 . S
C822 C827 1.379 . S
C822 N829 1.356 . S
C823 C822 1.363 . S
C823 C826 1.363 . S
N824 C826 1.356 . S
N824 H836 0.984 . S
N824 H837 0.985 . S
N825 C827 1.356 . S
N825 H830 0.984 . S
N825 H831 0.985 . S
C826 C820 1.379 . S
C826 C823 1.363 . S
C826 N824 1.356 . S
C827 C821 1.363 . S
C827 C822 1.379 . S
C827 N825 1.356 . S
N828 C820 1.356 . S
N828 H834 0.984 . S
N828 H835 0.984 . S
N829 C822 1.356 . S
N829 H832 0.984 . S
N829 H833 0.985 . S
H830 N825 0.984 . S
H831 N825 0.985 . S
H832 N829 0.984 . S
H833 N829 0.985 . S
H834 N828 0.984 . S
H835 N828 0.984 . S
H836 N824 0.984 . S
H837 N824 0.985 . S
C838 C839 1.363 . S
C838 C844 1.379 . S
C838 N846 1.356 . S
C839 C838 1.363 . S
C839 C845 1.363 . S
C840 C841 1.363 . S
C840 C845 1.379 . S
C840 N847 1.356 . S
C841 C840 1.363 . S
C841 C844 1.363 . S
N842 C844 1.356 . S
N842 H854 0.984 . S
N842 H855 0.985 . S
N843 C845 1.356 . S
N843 H848 0.984 . S
N843 H849 0.985 . S
C844 C838 1.379 . S
C844 C841 1.363 . S
C844 N842 1.356 . S
C845 C839 1.363 . S
C845 C840 1.379 . S
C845 N843 1.356 . S
N846 C838 1.356 . S
N846 H852 0.984 . S
N846 H853 0.984 . S
N847 C840 1.356 . S
N847 H850 0.984 . S
N847 H851 0.985 . S
H848 N843 0.984 . S
H849 N843 0.985 . S
H850 N847 0.984 . S
H851 N847 0.985 . S
H852 N846 0.984 . S
H853 N846 0.984 . S
H854 N842 0.984 . S
H855 N842 0.985 . S
C856 C857 1.363 . S
C856 C862 1.379 . S
C856 N864 1.356 . S
C857 C856 1.363 . S
C857 C863 1.363 . S
C858 C859 1.363 . S
C858 C863 1.379 . S
C858 N865 1.356 . S
C859 C858 1.363 . S
C859 C862 1.363 . S
N860 C862 1.356 . S
N860 H872 0.984 . S
N860 H873 0.985 . S
N861 C863 1.356 . S
N861 H866 0.984 . S
N861 H867 0.985 . S
C862 C856 1.379 . S
C862 C859 1.363 . S
C862 N860 1.356 . S
C863 C857 1.363 . S
C863 C858 1.379 . S
C863 N861 1.356 . S
N864 C856 1.356 . S
N864 H870 0.984 . S
N864 H871 0.984 . S
N865 C858 1.356 . S
N865 H868 0.984 . S
N865 H869 0.985 . S
H866 N861 0.984 . S
H867 N861 0.985 . S
H868 N865 0.984 . S
H869 N865 0.985 . S
H870 N864 0.984 . S
H871 N864 0.984 . S
H872 N860 0.984 . S
H873 N860 0.985 . S
C874 C875 1.363 . S
C874 C880 1.379 . S
C874 N882 1.356 . S
C875 C874 1.363 . S
C875 C881 1.363 . S
C876 C877 1.363 . S
C876 C881 1.379 . S
C876 N883 1.356 . S
C877 C876 1.363 . S
C877 C880 1.363 . S
N878 C880 1.356 . S
N878 H890 0.984 . S
N878 H891 0.985 . S
N879 C881 1.356 . S
N879 H884 0.984 . S
N879 H885 0.985 . S
C880 C874 1.379 . S
C880 C877 1.363 . S
C880 N878 1.356 . S
C881 C875 1.363 . S
C881 C876 1.379 . S
C881 N879 1.356 . S
N882 C874 1.356 . S
N882 H888 0.984 . S
N882 H889 0.984 . S
N883 C876 1.356 . S
N883 H886 0.984 . S
N883 H887 0.985 . S
H884 N879 0.984 . S
H885 N879 0.985 . S
H886 N883 0.984 . S
H887 N883 0.985 . S
H888 N882 0.984 . S
H889 N882 0.984 . S
H890 N878 0.984 . S
H891 N878 0.985 . S
C892 C893 1.363 . S
C892 C898 1.379 . S
C892 N900 1.356 . S
C893 C892 1.363 . S
C893 C899 1.363 . S
C894 C895 1.363 . S
C894 C899 1.379 . S
C894 N901 1.356 . S
C895 C894 1.363 . S
C895 C898 1.363 . S
N896 C898 1.356 . S
N896 H908 0.984 . S
N896 H909 0.985 . S
N897 C899 1.356 . S
N897 H902 0.984 . S
N897 H903 0.985 . S
C898 C892 1.379 . S
C898 C895 1.363 . S
C898 N896 1.356 . S
C899 C893 1.363 . S
C899 C894 1.379 . S
C899 N897 1.356 . S
N900 C892 1.356 . S
N900 H906 0.984 . S
N900 H907 0.984 . S
N901 C894 1.356 . S
N901 H904 0.984 . S
N901 H905 0.985 . S
H902 N897 0.984 . S
H903 N897 0.985 . S
H904 N901 0.984 . S
H905 N901 0.985 . S
H906 N900 0.984 . S
H907 N900 0.984 . S
H908 N896 0.984 . S
H909 N896 0.985 . S
C910 C911 1.363 . S
C910 C916 1.379 . S
C910 N918 1.356 . S
C911 C910 1.363 . S
C911 C917 1.363 . S
C912 C913 1.363 . S
C912 C917 1.379 . S
C912 N919 1.356 . S
C913 C912 1.363 . S
C913 C916 1.363 . S
N914 C916 1.356 . S
N914 H926 0.984 . S
N914 H927 0.985 . S
N915 C917 1.356 . S
N915 H920 0.984 . S
N915 H921 0.985 . S
C916 C910 1.379 . S
C916 C913 1.363 . S
C916 N914 1.356 . S
C917 C911 1.363 . S
C917 C912 1.379 . S
C917 N915 1.356 . S
N918 C910 1.356 . S
N918 H924 0.984 . S
N918 H925 0.984 . S
N919 C912 1.356 . S
N919 H922 0.984 . S
N919 H923 0.985 . S
H920 N915 0.984 . S
H921 N915 0.985 . S
H922 N919 0.984 . S
H923 N919 0.985 . S
H924 N918 0.984 . S
H925 N918 0.984 . S
H926 N914 0.984 . S
H927 N914 0.985 . S
C928 C929 1.363 . S
C928 C934 1.379 . S
C928 N936 1.356 . S
C929 C928 1.363 . S
C929 C935 1.363 . S
C930 C931 1.363 . S
C930 C935 1.379 . S
C930 N937 1.356 . S
C931 C930 1.363 . S
C931 C934 1.363 . S
N932 C934 1.356 . S
N932 H944 0.984 . S
N932 H945 0.985 . S
N933 C935 1.356 . S
N933 H938 0.984 . S
N933 H939 0.985 . S
C934 C928 1.379 . S
C934 C931 1.363 . S
C934 N932 1.356 . S
C935 C929 1.363 . S
C935 C930 1.379 . S
C935 N933 1.356 . S
N936 C928 1.356 . S
N936 H942 0.984 . S
N936 H943 0.984 . S
N937 C930 1.356 . S
N937 H940 0.984 . S
N937 H941 0.985 . S
H938 N933 0.984 . S
H939 N933 0.985 . S
H940 N937 0.984 . S
H941 N937 0.985 . S
H942 N936 0.984 . S
H943 N936 0.984 . S
H944 N932 0.984 . S
H945 N932 0.985 . S
C946 C947 1.363 . S
C946 C952 1.379 . S
C946 N954 1.356 . S
C947 C946 1.363 . S
C947 C953 1.363 . S
C948 C949 1.363 . S
C948 C953 1.379 . S
C948 N955 1.356 . S
C949 C948 1.363 . S
C949 C952 1.363 . S
N950 C952 1.356 . S
N950 H962 0.984 . S
N950 H963 0.985 . S
N951 C953 1.356 . S
N951 H956 0.984 . S
N951 H957 0.985 . S
C952 C946 1.379 . S
C952 C949 1.363 . S
C952 N950 1.356 . S
C953 C947 1.363 . S
C953 C948 1.379 . S
C953 N951 1.356 . S
N954 C946 1.356 . S
N954 H960 0.984 . S
N954 H961 0.984 . S
N955 C948 1.356 . S
N955 H958 0.984 . S
N955 H959 0.985 . S
H956 N951 0.984 . S
H957 N951 0.985 . S
H958 N955 0.984 . S
H959 N955 0.985 . S
H960 N954 0.984 . S
H961 N954 0.984 . S
H962 N950 0.984 . S
H963 N950 0.985 . S
C964 C965 1.363 . S
C964 C970 1.379 . S
C964 N972 1.356 . S
C965 C964 1.363 . S
C965 C971 1.363 . S
C966 C967 1.363 . S
C966 C971 1.379 . S
C966 N973 1.356 . S
C967 C966 1.363 . S
C967 C970 1.363 . S
N968 C970 1.356 . S
N968 H980 0.984 . S
N968 H981 0.985 . S
N969 C971 1.356 . S
N969 H974 0.984 . S
N969 H975 0.985 . S
C970 C964 1.379 . S
C970 C967 1.363 . S
C970 N968 1.356 . S
C971 C965 1.363 . S
C971 C966 1.379 . S
C971 N969 1.356 . S
N972 C964 1.356 . S
N972 H978 0.984 . S
N972 H979 0.984 . S
N973 C966 1.356 . S
N973 H976 0.984 . S
N973 H977 0.985 . S
H974 N969 0.984 . S
H975 N969 0.985 . S
H976 N973 0.984 . S
H977 N973 0.985 . S
H978 N972 0.984 . S
H979 N972 0.984 . S
H980 N968 0.984 . S
H981 N968 0.985 . S
C982 C983 1.363 . S
C982 C988 1.379 . S
C982 N990 1.356 . S
C983 C982 1.363 . S
C983 C989 1.363 . S
C984 C985 1.363 . S
C984 C989 1.379 . S
C984 N991 1.356 . S
C985 C984 1.363 . S
C985 C988 1.363 . S
N986 C988 1.356 . S
N986 H998 0.984 . S
N986 H999 0.985 . S
N987 C989 1.356 . S
N987 H992 0.984 . S
N987 H993 0.985 . S
C988 C982 1.379 . S
C988 C985 1.363 . S
C988 N986 1.356 . S
C989 C983 1.363 . S
C989 C984 1.379 . S
C989 N987 1.356 . S
N990 C982 1.356 . S
N990 H996 0.984 . S
N990 H997 0.984 . S
N991 C984 1.356 . S
N991 H994 0.984 . S
N991 H995 0.985 . S
H992 N987 0.984 . S
H993 N987 0.985 . S
H994 N991 0.984 . S
H995 N991 0.985 . S
H996 N990 0.984 . S
H997 N990 0.984 . S
H998 N986 0.984 . S
H999 N986 0.985 . S
C1000 C1001 1.363 . S
C1000 C1006 1.379 . S
C1000 N1008 1.356 . S
C1001 C1000 1.363 . S
C1001 C1007 1.363 . S
C1002 C1003 1.363 . S
C1002 C1007 1.379 . S
C1002 N1009 1.356 . S
C1003 C1002 1.363 . S
C1003 C1006 1.363 . S
N1004 C1006 1.356 . S
N1004 H1016 0.984 . S
N1004 H1017 0.985 . S
N1005 C1007 1.356 . S
N1005 H1010 0.984 . S
N1005 H1011 0.985 . S
C1006 C1000 1.379 . S
C1006 C1003 1.363 . S
C1006 N1004 1.356 . S
C1007 C1001 1.363 . S
C1007 C1002 1.379 . S
C1007 N1005 1.356 . S
N1008 C1000 1.356 . S
N1008 H1014 0.984 . S
N1008 H1015 0.984 . S
N1009 C1002 1.356 . S
N1009 H1012 0.984 . S
N1009 H1013 0.985 . S
H1010 N1005 0.984 . S
H1011 N1005 0.985 . S
H1012 N1009 0.984 . S
H1013 N1009 0.985 . S
H1014 N1008 0.984 . S
H1015 N1008 0.984 . S
H1016 N1004 0.984 . S
H1017 N1004 0.985 . S
C1018 C1019 1.363 . S
C1018 C1024 1.379 . S
C1018 N1026 1.356 . S
C1019 C1018 1.363 . S
C1019 C1025 1.363 . S
C1020 C1021 1.363 . S
C1020 C1025 1.379 . S
C1020 N1027 1.356 . S
C1021 C1020 1.363 . S
C1021 C1024 1.363 . S
N1022 C1024 1.356 . S
N1022 H1034 0.984 . S
N1022 H1035 0.985 . S
N1023 C1025 1.356 . S
N1023 H1028 0.984 . S
N1023 H1029 0.985 . S
C1024 C1018 1.379 . S
C1024 C1021 1.363 . S
C1024 N1022 1.356 . S
C1025 C1019 1.363 . S
C1025 C1020 1.379 . S
C1025 N1023 1.356 . S
N1026 C1018 1.356 . S
N1026 H1032 0.984 . S
N1026 H1033 0.984 . S
N1027 C1020 1.356 . S
N1027 H1030 0.984 . S
N1027 H1031 0.985 . S
H1028 N1023 0.984 . S
H1029 N1023 0.985 . S
H1030 N1027 0.984 . S
H1031 N1027 0.985 . S
H1032 N1026 0.984 . S
H1033 N1026 0.984 . S
H1034 N1022 0.984 . S
H1035 N1022 0.985 . S
C1036 C1037 1.363 . S
C1036 C1042 1.379 . S
C1036 N1044 1.356 . S
C1037 C1036 1.363 . S
C1037 C1043 1.363 . S
C1038 C1039 1.363 . S
C1038 C1043 1.379 . S
C1038 N1045 1.356 . S
C1039 C1038 1.363 . S
C1039 C1042 1.363 . S
N1040 C1042 1.356 . S
N1040 H1052 0.984 . S
N1040 H1053 0.985 . S
N1041 C1043 1.356 . S
N1041 H1046 0.984 . S
N1041 H1047 0.985 . S
C1042 C1036 1.379 . S
C1042 C1039 1.363 . S
C1042 N1040 1.356 . S
C1043 C1037 1.363 . S
C1043 C1038 1.379 . S
C1043 N1041 1.356 . S
N1044 C1036 1.356 . S
N1044 H1050 0.984 . S
N1044 H1051 0.984 . S
N1045 C1038 1.356 . S
N1045 H1048 0.984 . S
N1045 H1049 0.985 . S
H1046 N1041 0.984 . S
H1047 N1041 0.985 . S
H1048 N1045 0.984 . S
H1049 N1045 0.985 . S
H1050 N1044 0.984 . S
H1051 N1044 0.984 . S
H1052 N1040 0.984 . S
H1053 N1040 0.985 . S
C1054 C1055 1.363 . S
C1054 C1060 1.379 . S
C1054 N1062 1.356 . S
C1055 C1054 1.363 . S
C1055 C1061 1.363 . S
C1056 C1057 1.363 . S
C1056 C1061 1.379 . S
C1056 N1063 1.356 . S
C1057 C1056 1.363 . S
C1057 C1060 1.363 . S
N1058 C1060 1.356 . S
N1058 H1070 0.984 . S
N1058 H1071 0.985 . S
N1059 C1061 1.356 . S
N1059 H1064 0.984 . S
N1059 H1065 0.985 . S
C1060 C1054 1.379 . S
C1060 C1057 1.363 . S
C1060 N1058 1.356 . S
C1061 C1055 1.363 . S
C1061 C1056 1.379 . S
C1061 N1059 1.356 . S
N1062 C1054 1.356 . S
N1062 H1068 0.984 . S
N1062 H1069 0.984 . S
N1063 C1056 1.356 . S
N1063 H1066 0.984 . S
N1063 H1067 0.985 . S
H1064 N1059 0.984 . S
H1065 N1059 0.985 . S
H1066 N1063 0.984 . S
H1067 N1063 0.985 . S
H1068 N1062 0.984 . S
H1069 N1062 0.984 . S
H1070 N1058 0.984 . S
H1071 N1058 0.985 . S
C499 C405 1.492 . S
C497 C36 1.435 . S
C517 C425 1.496 . S
C515 C93 1.499 . S
C535 C439 1.497 . S
C533 C126 1.532 . S
C551 C165 1.513 . S
C553 C397 1.511 . S
C569 C222 1.545 1_554 S
C571 C391 1.637 1_556 S
C587 C261 1.522 . S
C589 C411 1.530 . S
C607 C419 1.505 . S
C605 C318 1.471 . S
C625 C433 1.587 . S
C623 C381 1.530 . S
C641 C132 1.502 . S
C643 C461 1.586 . S
C661 C475 1.507 . S
C659 C189 1.472 . S
C677 C30 1.542 . S
C679 C495 1.530 . S
C697 C447 1.638 . S
C695 C69 1.529 . S
C713 C324 1.512 . S
C715 C453 1.512 . S
C731 C357 1.506 . S
C733 C467 1.497 . S
C751 C481 1.496 1_556 S
C749 C228 1.493 . S
C767 C285 1.450 . S
C769 C489 1.491 . S
C787 C420 1.779 . S
C785 C45 1.743 . S
C805 C434 1.799 . S
C803 C84 1.764 . S
C821 C117 1.686 . S
C823 C392 1.734 . S
C839 C174 1.512 . S
C841 C409 1.574 . S
C857 C213 1.486 . S
C859 C437 1.506 . S
C877 C395 1.497 . S
C875 C270 1.446 . S
C895 C406 1.696 . S
C893 C309 1.661 . S
C913 C423 1.561 . S
C911 C372 1.544 . S
C931 C479 1.561 . S
C929 C141 1.533 . S
C949 C490 1.695 . S
C947 C180 1.673 . S
C965 C21 1.473 . S
C967 C451 1.498 . S
C985 C465 1.507 . S
C983 C78 1.462 . S
C1003 C493 1.573 . S
C1001 C333 1.552 . S
C1019 C366 1.649 . S
C1021 C448 1.735 . S
C1039 C462 1.799 . S
C1037 C237 1.763 . S
C1057 C476 1.780 . S
C1055 C276 1.752 . S
