# Generated by pormake.
# Topology rtl, (3,6)-cn, num edge types: 1
# Building blocks:
#     Node 0, Type 0, BuildingBlock: KAKCAD_clean_linker_0, # of connection points: 3
#     Node 1, Type 0, BuildingBlock: KAKCAD_clean_linker_0, # of connection points: 3
#     Node 2, Type 0, BuildingBlock: KAKCAD_clean_linker_0, # of connection points: 3
#     Node 3, Type 0, BuildingBlock: KAKCAD_clean_linker_0, # of connection points: 3
#     Node 4, Type 1, BuildingBlock: KUMBOL_clean_sbu_1, # of connection points: 6
#     Node 5, Type 1, BuildingBlock: KUMBOL_clean_sbu_1, # of connection points: 6
#     Edge 6, Type (0, 1), BuildingBlock: KIFKEQ_clean_linker_1, # of connection points: 2
#     Edge 7, Type (0, 1), BuildingBlock: KIFKEQ_clean_linker_1, # of connection points: 2
#     Edge 8, Type (0, 1), BuildingBlock: KIFKEQ_clean_linker_1, # of connection points: 2
#     Edge 9, Type (0, 1), BuildingBlock: KIFKEQ_clean_linker_1, # of connection points: 2
#     Edge 10, Type (0, 1), BuildingBlock: KIFKEQ_clean_linker_1, # of connection points: 2
#     Edge 11, Type (0, 1), BuildingBlock: KIFKEQ_clean_linker_1, # of connection points: 2
#     Edge 12, Type (0, 1), BuildingBlock: KIFKEQ_clean_linker_1, # of connection points: 2
#     Edge 13, Type (0, 1), BuildingBlock: KIFKEQ_clean_linker_1, # of connection points: 2
#     Edge 14, Type (0, 1), BuildingBlock: KIFKEQ_clean_linker_1, # of connection points: 2
#     Edge 15, Type (0, 1), BuildingBlock: KIFKEQ_clean_linker_1, # of connection points: 2
#     Edge 16, Type (0, 1), BuildingBlock: KIFKEQ_clean_linker_1, # of connection points: 2
#     Edge 17, Type (0, 1), BuildingBlock: KIFKEQ_clean_linker_1, # of connection points: 2
# Relax obj value: 0.018
# Max RMSD: 0.096
# Mean RMSD: 0.058
data_MOF--net-rtl--node1-KUMBOL_clean_sbu_1--node2-KAKCAD_clean_linker_0--edge1-KIFKEQ_clean_linker_1
_symmetry_space_group_name_H-M    P1
_symmetry_Int_Tables_number       1
_symmetry_cell_setting            triclinic
loop_
_symmetry_equiv_pos_as_xyz
'x, y, z'
_cell_length_a     40.421589
_cell_length_b     41.10557
_cell_length_c     35.615147
_cell_angle_alpha  79.846227
_cell_angle_beta   99.457775
_cell_angle_gamma 90.893314
loop_
_atom_site_label
_atom_site_type_symbol
_atom_site_fract_x
_atom_site_fract_y
_atom_site_fract_z
_atom_type_partial_charge
C0 C 0.16407 0.85845 0.8827 0.0
C1 C 0.1551 0.89212 0.87213 0.0
C2 C 0.18034 0.84576 0.92002 0.0
C3 C 0.18809 0.86642 0.94771 0.0
C4 C 0.1792 0.90011 0.93715 0.0
C5 C 0.16292 0.91283 0.89977 0.0
C6 C 0.2051 0.85267 0.98752 0.0
C7 C 0.23131 0.82942 0.99335 0.0
C8 C 0.24643 0.81472 0.03082 0.0
C9 C 0.23577 0.82469 0.06278 0.0
C10 C 0.20993 0.84846 0.05759 0.0
C11 C 0.19459 0.86202 0.01978 0.0
C12 C 0.19815 0.85857 0.09145 0.0
C13 C 0.19604 0.83539 0.12508 0.0
C14 C 0.18804 0.89142 0.08996 0.0
C15 C 0.17523 0.90064 0.12072 0.0
C16 C 0.17263 0.87737 0.15415 0.0
C17 C 0.27266 0.78841 0.03617 0.0
C18 C 0.27036 0.76578 0.01045 0.0
C19 C 0.30014 0.78559 0.06662 0.0
C20 C 0.32479 0.76103 0.07084 0.0
C21 C 0.32271 0.73925 0.04434 0.0
C22 C 0.29524 0.74177 0.01426 0.0
C23 C 0.18366 0.84472 0.15611 0.0
H24 H 0.15876 0.84189 0.86201 0.0
H25 H 0.18649 0.81961 0.92733 0.0
H26 H 0.18504 0.91673 0.95772 0.0
H27 H 0.15607 0.93882 0.89269 0.0
H28 H 0.24013 0.82298 0.96845 0.0
H29 H 0.17362 0.87913 0.01537 0.0
H30 H 0.24736 0.81371 0.09175 0.0
H31 H 0.20323 0.80978 0.12723 0.0
H32 H 0.18981 0.91013 0.06485 0.0
H33 H 0.16664 0.92591 0.11778 0.0
H34 H 0.24917 0.76642 0.98735 0.0
H35 H 0.30303 0.80272 0.08675 0.0
H36 H 0.18262 0.82619 0.18157 0.0
H37 H 0.29288 0.72489 0.99381 0.0
H38 H 0.34588 0.75955 0.09421 0.0
C39 C 0.64046 0.67358 0.73962 0.0
C40 C 0.63144 0.6401 0.74645 0.0
C41 C 0.65112 0.68761 0.70492 0.0
C42 C 0.65295 0.66853 0.67618 0.0
C43 C 0.64434 0.63498 0.68325 0.0
C44 C 0.63369 0.62097 0.71786 0.0
C45 C 0.66323 0.68357 0.63867 0.0
C46 C 0.68999 0.70591 0.63748 0.0
C47 C 0.70003 0.71978 0.6021 0.0
C48 C 0.68264 0.71113 0.56775 0.0
C49 C 0.65629 0.68848 0.56834 0.0
C50 C 0.64658 0.67508 0.60389 0.0
C51 C 0.64047 0.67743 0.532 0.0
C52 C 0.63376 0.7 0.49697 0.0
C53 C 0.63427 0.64373 0.53158 0.0
C54 C 0.62309 0.6327 0.49678 0.0
C55 C 0.61787 0.65507 0.46154 0.0
C56 C 0.72908 0.74265 0.6007 0.0
C57 C 0.73515 0.76588 0.62563 0.0
C58 C 0.7507 0.74183 0.57367 0.0
C59 C 0.77683 0.76425 0.57068 0.0
C60 C 0.78275 0.78779 0.59523 0.0
C61 C 0.76174 0.788 0.62309 0.0
C62 C 0.62264 0.68894 0.46214 0.0
H63 H 0.6394 0.68895 0.76116 0.0
H64 H 0.65735 0.71358 0.70034 0.0
H65 H 0.6459 0.61941 0.66201 0.0
H66 H 0.62662 0.59523 0.72188 0.0
H67 H 0.7037 0.71159 0.66428 0.0
H68 H 0.62572 0.65822 0.60439 0.0
H69 H 0.69003 0.7216 0.54032 0.0
H70 H 0.63768 0.7262 0.49637 0.0
H71 H 0.63957 0.62562 0.55792 0.0
H72 H 0.62012 0.60639 0.49734 0.0
H73 H 0.71899 0.76745 0.64668 0.0
H74 H 0.74748 0.72386 0.55455 0.0
H75 H 0.61835 0.70687 0.43556 0.0
H76 H 0.76574 0.80528 0.64303 0.0
H77 H 0.79196 0.76342 0.54845 0.0
C78 C 0.82878 0.11038 0.18722 0.0
C79 C 0.8632 0.10228 0.19548 0.0
C80 C 0.81374 0.12441 0.14977 0.0
C81 C 0.83276 0.13109 0.11963 0.0
C82 C 0.86706 0.12247 0.12774 0.0
C83 C 0.88202 0.1081 0.16509 0.0
C84 C 0.81714 0.14792 0.08025 0.0
C85 C 0.79305 0.1732 0.07588 0.0
C86 C 0.77831 0.18965 0.03905 0.0
C87 C 0.78871 0.18108 0.00626 0.0
C88 C 0.81321 0.15629 0.00985 0.0
C89 C 0.82684 0.13949 0.04698 0.0
C90 C 0.82537 0.14892 0.97487 0.0
C91 C 0.80327 0.15003 0.93974 0.0
C92 C 0.85956 0.14219 0.97586 0.0
C93 C 0.87141 0.13744 0.94248 0.0
C94 C 0.8495 0.13968 0.90704 0.0
C95 C 0.75234 0.21598 0.03497 0.0
C96 C 0.72859 0.21299 0.06011 0.0
C97 C 0.75103 0.2443 0.00605 0.0
C98 C 0.72658 0.26887 1.00231 0.0
C99 C 0.70305 0.26603 0.02773 0.0
C100 C 0.70447 0.23776 0.05673 0.0
C101 C 0.81519 0.1457 0.90625 0.0
H102 H 0.81349 0.10663 0.20984 0.0
H103 H 0.78715 0.13018 0.14455 0.0
H104 H 0.88264 0.1275 0.10545 0.0
H105 H 0.90845 0.10168 0.17011 0.0
H106 H 0.78644 0.18079 0.10134 0.0
H107 H 0.84481 0.11956 0.04996 0.0
H108 H 0.7779 0.194 0.97782 0.0
H109 H 0.77669 0.15455 0.93794 0.0
H110 H 0.87744 0.14145 1.00222 0.0
H111 H 0.89788 0.13222 0.94448 0.0
H112 H 0.72844 0.19136 0.08239 0.0
H113 H 0.76914 0.24778 0.98648 0.0
H114 H 0.79753 0.14794 0.87953 0.0
H115 H 0.68722 0.23483 0.0773 0.0
H116 H 0.72609 0.29002 0.9793 0.0
C117 C 0.35416 0.35574 0.32922 0.0
C118 C 0.38881 0.35813 0.3286 0.0
C119 C 0.34229 0.34189 0.36321 0.0
C120 C 0.36483 0.33073 0.3974 0.0
C121 C 0.39946 0.33296 0.39672 0.0
C122 C 0.41133 0.34626 0.36258 0.0
C123 C 0.35232 0.31802 0.43408 0.0
C124 C 0.32736 0.29378 0.43553 0.0
C125 C 0.3154 0.28204 0.47029 0.0
C126 C 0.32788 0.29556 0.50329 0.0
C127 C 0.35217 0.32032 0.50212 0.0
C128 C 0.36478 0.33095 0.4676 0.0
C129 C 0.36258 0.33644 0.53629 0.0
C130 C 0.33815 0.34658 0.55582 0.0
C131 C 0.39655 0.34234 0.54926 0.0
C132 C 0.40583 0.35814 0.58114 0.0
C133 C 0.38124 0.36876 0.60017 0.0
C134 C 0.28936 0.25618 0.47256 0.0
C135 C 0.26002 0.25867 0.44486 0.0
C136 C 0.29291 0.22974 0.50393 0.0
C137 C 0.26733 0.20682 0.50817 0.0
C138 C 0.23739 0.20988 0.48129 0.0
C139 C 0.23425 0.23583 0.44925 0.0
C140 C 0.34736 0.36262 0.58729 0.0
H141 H 0.33627 0.36455 0.30337 0.0
H142 H 0.31547 0.34065 0.36304 0.0
H143 H 0.41736 0.32443 0.42265 0.0
H144 H 0.43815 0.34799 0.36297 0.0
H145 H 0.31779 0.28358 0.40986 0.0
H146 H 0.38318 0.35042 0.4663 0.0
H147 H 0.31817 0.28717 0.52993 0.0
H148 H 0.31176 0.34269 0.54629 0.0
H149 H 0.4159 0.33463 0.53483 0.0
H150 H 0.43211 0.36271 0.59039 0.0
H151 H 0.25649 0.27897 0.42057 0.0
H152 H 0.31548 0.2269 0.52541 0.0
H153 H 0.32789 0.37025 0.60161 0.0
H154 H 0.21145 0.23915 0.42815 0.0
H155 H 0.27104 0.18672 0.53266 0.0
C156 C 0.93137 0.08271 0.48965 0.0
C157 C 0.87643 0.05802 0.48226 0.0
C158 C 0.91018 0.05728 0.5006 0.0
C159 C 0.86487 0.08395 0.45176 0.0
C160 C 0.91966 0.10937 0.45996 0.0
C161 C 0.88643 0.1096 0.44067 0.0
N162 N 0.96361 0.08134 0.50817 0.0
C163 C 0.98497 0.10675 0.50014 0.0
C164 C 0.9417 0.13506 0.4507 0.0
C165 C 0.9744 0.13389 0.47116 0.0
Gd166 Gd 0.03262 0.96875 0.51637 0.0
Gd167 Gd 0.97952 0.03498 0.55631 0.0
N168 N 0.92212 0.03266 0.53035 0.0
C169 C 0.85506 0.03321 0.49588 0.0
C170 C 0.90066 0.01011 0.54572 0.0
C171 C 0.86711 0.00949 0.52821 0.0
H172 H 0.90899 0.99305 0.5721 0.0
H173 H 0.85042 0.99108 0.5401 0.0
H174 H 0.11059 0.99622 0.5307 0.0
H175 H 0.01013 0.10599 0.51614 0.0
H176 H 0.16448 0.9803 0.5742 0.0
H177 H 0.82897 0.03288 0.48259 0.0
H178 H 0.83911 0.08476 0.43711 0.0
H179 H 0.98649 0.89915 0.52189 0.0
H180 H 0.93364 0.15601 0.4281 0.0
H181 H 0.99148 0.15383 0.46458 0.0
H182 H 0.14043 0.87781 0.65272 0.0
H183 H 0.87703 0.12969 0.4175 0.0
H184 H 0.03341 0.82943 0.61891 0.0
H185 H 0.98586 0.84567 0.56573 0.0
N186 N 0.03139 0.91516 0.55306 0.0
C187 C 0.05897 0.90555 0.57999 0.0
C188 C 0.0063 0.89327 0.54635 0.0
C189 C 0.03323 0.85343 0.60049 0.0
C190 C 0.00631 0.86253 0.57058 0.0
C191 C 0.06052 0.87459 0.60474 0.0
H192 H 0.09121 0.84172 0.65131 0.0
N193 N 0.08462 0.95485 0.55572 0.0
C194 C 0.0867 0.92572 0.58082 0.0
C195 C 0.14481 0.93592 0.60422 0.0
C196 C 0.11669 0.91572 0.60632 0.0
C197 C 0.11231 0.97383 0.55204 0.0
C198 C 0.14273 0.96486 0.57655 0.0
O199 O 0.98497 0.04045 0.49325 0.0
O200 O 0.98243 0.98749 0.48235 0.0
O201 O 0.05546 0.98311 0.46495 0.0
O202 O 0.04398 0.93198 0.48311 0.0
O203 O 0.96711 0.98058 0.57128 0.0
O204 O 0.97774 0.95757 0.51966 0.0
O205 O 0.05152 0.98516 0.57348 0.0
O206 O 1.0034 0.9905 0.59758 0.0
O207 O 0.94952 0.04865 0.59637 0.0
O208 O 0.99905 0.06876 0.59519 0.0
O209 O 0.04803 0.02238 0.50433 0.0
O210 O 0.03389 0.048 0.5531 0.0
C211 C 0.97498 0.01894 0.47084 0.0
C212 C 0.96147 0.95815 0.54876 0.0
C213 C 0.0399 0.95148 0.41631 0.0
C214 C 0.04731 0.94337 0.35202 0.0
C215 C 0.99234 0.95758 0.36415 0.0
C216 C 0.00565 0.95781 0.40282 0.0
C217 C 0.01306 0.9506 0.33875 0.0
C218 C 0.06062 0.94391 0.39097 0.0
C219 C 0.0543 0.95359 0.45641 0.0
C220 C 0.11778 0.88573 0.63247 0.0
C221 C 0.08971 0.86523 0.63174 0.0
H222 H 0.16834 0.92909 0.62329 0.0
C223 C 0.03517 0.9822 0.6027 0.0
C224 C 0.05212 0.04563 0.526 0.0
C225 C 0.95858 0.10012 0.61575 0.0
C226 C 0.93318 0.13076 0.65676 0.0
C227 C 0.93922 0.15665 0.59144 0.0
C228 C 0.95401 0.12772 0.58594 0.0
C229 C 0.92864 0.15816 0.62653 0.0
C230 C 0.94839 0.10186 0.65116 0.0
C231 C 0.9717 0.06849 0.61013 0.0
H232 H 0.96591 0.96271 0.35387 0.0
H233 H 0.9893 0.96292 0.42221 0.0
H234 H 1.0022 0.95019 0.30893 0.0
H235 H 0.08711 0.9389 0.4014 0.0
H236 H 0.93568 0.17786 0.56829 0.0
H237 H 0.96145 0.12688 0.55843 0.0
H238 H 0.9171 0.18077 0.63016 0.0
H239 H 0.95138 0.08031 0.67398 0.0
C240 C 0.61658 0.53648 0.04772 0.0
C241 C 0.61156 0.59625 0.0314 0.0
C242 C 0.59801 0.56534 0.04479 0.0
C243 C 0.64344 0.59768 0.02041 0.0
C244 C 0.64858 0.53784 0.03668 0.0
C245 C 0.66189 0.56858 0.02302 0.0
N246 N 0.60264 0.50694 0.05975 0.0
C247 C 0.61967 0.47799 0.06266 0.0
C248 C 0.66602 0.50818 0.03905 0.0
C249 C 0.65153 0.47814 0.0522 0.0
Gd250 Gd 0.47024 0.48824 0.99808 0.0
Gd251 Gd 0.54929 0.50909 0.07678 0.0
N252 N 0.56679 0.56317 0.05481 0.0
C253 C 0.59279 0.6249 0.02976 0.0
C254 C 0.54945 0.59123 0.05555 0.0
C255 C 0.56182 0.62237 0.04238 0.0
H256 H 0.52662 0.59015 0.06733 0.0
H257 H 0.54767 0.64446 0.04258 0.0
H258 H 0.49802 0.41324 0.9853 0.0
H259 H 0.60889 0.45481 0.0737 0.0
H260 H 0.48665 0.35475 0.00599 0.0
H261 H 0.60232 0.6491 0.0197 0.0
H262 H 0.65412 0.62122 0.00993 0.0
H263 H 0.40547 0.53009 0.01412 0.0
H264 H 0.69066 0.50821 0.03079 0.0
H265 H 0.66492 0.4551 0.05441 0.0
H266 H 0.38803 0.3557 0.06396 0.0
H267 H 0.68639 0.57011 0.0143 0.0
H268 H 0.33635 0.46042 0.0607 0.0
H269 H 0.35201 0.5183 0.03897 0.0
N270 N 0.41962 0.47953 0.02201 0.0
C271 C 0.41106 0.44749 0.0326 0.0
C272 C 0.39866 0.50483 0.02353 0.0
C273 C 0.35967 0.46548 0.04964 0.0
C274 C 0.36844 0.4982 0.03747 0.0
C275 C 0.38102 0.43964 0.04728 0.0
H276 H 0.35043 0.39992 0.07084 0.0
N277 N 0.46097 0.43086 0.01353 0.0
C278 C 0.43268 0.42255 0.02909 0.0
C279 C 0.44471 0.36452 0.03274 0.0
C280 C 0.42413 0.38911 0.03964 0.0
C281 C 0.47883 0.40695 1.00294 0.0
C282 C 0.47174 0.37353 0.01353 0.0
O283 O 0.55623 0.51658 0.01386 0.0
O284 O 0.50347 0.53112 0.98053 0.0
O285 O 0.46212 0.47472 0.93999 0.0
O286 O 0.42979 0.511 0.95473 0.0
O287 O 0.5005 0.53732 0.07316 0.0
O288 O 0.47548 0.54031 0.00944 0.0
O289 O 0.46324 0.48322 0.06102 0.0
O290 O 0.5156 0.46644 0.09256 0.0
O291 O 0.55373 0.52806 0.13153 0.0
O292 O 0.58634 0.48802 0.12533 0.0
O293 O 0.52057 0.46347 1.00042 0.0
O294 O 0.5424 0.45702 0.06527 0.0
C295 C 0.5362 0.53083 0.98265 0.0
C296 C 0.47817 0.55018 0.04296 0.0
C297 C 0.41615 0.50023 0.88952 0.0
C298 C 0.40388 0.48948 0.82329 0.0
C299 C 0.37064 0.52988 0.84375 0.0
C300 C 0.38973 0.52362 0.88059 0.0
C301 C 0.37764 0.51305 0.81526 0.0
C302 C 0.42299 0.48293 0.86075 0.0
C303 C 0.43652 0.49497 0.9286 0.0
C304 C 0.39475 0.38124 0.0554 0.0
C305 C 0.37324 0.40642 0.05916 0.0
H306 H 0.439 0.33859 0.04043 0.0
C307 C 0.48329 0.46887 0.09217 0.0
C308 C 0.54109 0.44866 0.03111 0.0
C309 C 0.59557 0.50463 0.18793 0.0
C310 C 0.6099 0.52659 0.24788 0.0
C311 C 0.63527 0.47512 0.24137 0.0
C312 C 0.61748 0.47768 0.20398 0.0
C313 C 0.6317 0.49946 0.26314 0.0
C314 C 0.59147 0.52891 0.21029 0.0
C315 C 0.5782 0.50731 0.14761 0.0
H316 H 0.35033 0.54789 0.83724 0.0
H317 H 0.38381 0.53729 0.90206 0.0
H318 H 0.36218 0.51816 0.78695 0.0
H319 H 0.44335 0.46492 0.8672 0.0
H320 H 0.65207 0.45428 0.25343 0.0
H321 H 0.62102 0.45854 0.18758 0.0
H322 H 0.64585 0.49699 0.29213 0.0
H323 H 0.57485 0.54992 0.19821 0.0
H324 H 0.19465 0.18306 0.4268 0.0
H325 H 0.21637 0.18387 0.54956 0.0
H326 H 0.1488 0.14506 0.43706 0.0
H327 H 0.17185 0.14454 0.56002 0.0
H328 H 0.06895 0.09861 0.56241 0.0
H329 H 0.11227 0.13923 0.55061 0.0
H330 H 0.13946 0.0887 0.46326 0.0
H331 H 0.09552 0.04887 0.47401 0.0
C332 C 0.18967 0.17518 0.45597 0.0
C333 C 0.20938 0.1865 0.48733 0.0
C334 C 0.16361 0.15304 0.46193 0.0
C335 C 0.15663 0.14156 0.49941 0.0
C336 C 0.1762 0.15307 0.53071 0.0
C337 C 0.20213 0.1753 0.52474 0.0
C338 C 0.08407 0.0962 0.54059 0.0
C339 C 0.07862 0.07039 0.51919 0.0
C340 C 0.1091 0.11942 0.53397 0.0
C341 C 0.12945 0.1173 0.50596 0.0
C342 C 0.12397 0.09148 0.48461 0.0
C343 C 0.09885 0.06841 0.49104 0.0
H344 H 0.34589 0.69103 0.10595 0.0
H345 H 0.35884 0.73097 0.98901 0.0
H346 H 0.38511 0.64582 0.10748 0.0
H347 H 0.39916 0.68711 0.99085 0.0
H348 H 0.4327 0.58478 0.98539 0.0
H349 H 0.39737 0.6308 0.98825 0.0
H350 H 0.44107 0.62801 0.10804 0.0
H351 H 0.47548 0.58026 0.10574 0.0
C352 C 0.35771 0.6904 0.0809 0.0
C353 C 0.34919 0.71411 0.04722 0.0
C354 C 0.38026 0.66464 0.08175 0.0
C355 C 0.395 0.66243 0.04907 0.0
C356 C 0.3876 0.68734 0.01616 0.0
C357 C 0.36471 0.71265 0.01512 0.0
C358 C 0.43487 0.5938 0.01248 0.0
C359 C 0.45709 0.57875 0.04533 0.0
C360 C 0.41474 0.62057 0.014 0.0
C361 C 0.41659 0.63359 0.04823 0.0
C362 C 0.43877 0.61854 0.08124 0.0
C363 C 0.45869 0.59129 0.07986 0.0
H364 H 0.84436 0.77903 0.5746 0.0
H365 H 0.78374 0.85257 0.60612 0.0
H366 H 0.88725 0.82025 0.56315 0.0
H367 H 0.82781 0.893 0.59678 0.0
H368 H 0.93603 0.93927 0.61573 0.0
H369 H 0.89293 0.89817 0.62819 0.0
H370 H 0.88656 0.87771 0.51254 0.0
H371 H 0.92848 0.91989 0.49926 0.0
C372 C 0.84 0.80388 0.57905 0.0
C373 C 0.81018 0.81233 0.591 0.0
C374 C 0.86475 0.82739 0.5727 0.0
C375 C 0.86071 0.85972 0.57899 0.0
C376 C 0.83156 0.86811 0.59199 0.0
C377 C 0.80644 0.84479 0.59759 0.0
C378 C 0.92527 0.92621 0.59283 0.0
C379 C 0.93579 0.93278 0.55652 0.0
C380 C 0.90066 0.9027 0.60003 0.0
C381 C 0.88662 0.88478 0.57137 0.0
C382 C 0.89729 0.89103 0.53522 0.0
C383 C 0.92133 0.91508 0.52771 0.0
H384 H 0.63787 0.25928 0.04061 0.0
H385 H 0.71003 0.33323 0.00755 0.0
H386 H 0.59737 0.30293 0.03945 0.0
H387 H 0.66872 0.3766 1.00467 0.0
H388 H 0.57035 0.44091 0.96946 0.0
H389 H 0.60862 0.39618 0.96574 0.0
H390 H 0.59773 0.34948 0.08143 0.0
H391 H 0.5601 0.39431 0.08539 0.0
C392 C 0.6452 0.28474 0.03311 0.0
C393 C 0.67748 0.29259 0.02452 0.0
C394 C 0.62185 0.30969 0.03219 0.0
C395 C 0.62999 0.34303 0.02196 0.0
C396 C 0.66175 0.35101 0.01223 0.0
C397 C 0.68533 0.3261 0.01376 0.0
C398 C 0.57599 0.42089 0.99388 0.0
C399 C 0.56241 0.42094 0.0277 0.0
C400 C 0.59794 0.39551 0.99185 0.0
C401 C 0.60599 0.36946 0.02329 0.0
C402 C 0.59171 0.36917 0.05671 0.0
C403 C 0.57036 0.39484 0.05903 0.0
H404 H 0.17784 0.93641 0.18094 0.0
H405 H 0.13249 0.84013 0.19992 0.0
H406 H 0.14953 0.95307 0.23014 0.0
H407 H 0.10561 0.85652 0.2502 0.0
H408 H 0.08939 0.89012 0.36318 0.0
H409 H 0.12244 0.87417 0.3173 0.0
H410 H 0.08671 0.96143 0.23478 0.0
H411 H 0.05347 0.9772 0.2805 0.0
C412 C 0.16193 0.91876 0.1955 0.0
C413 C 0.1574 0.88692 0.18613 0.0
C414 C 0.14589 0.9283 0.22384 0.0
C415 C 0.12544 0.90606 0.24391 0.0
C416 C 0.12159 0.87401 0.23544 0.0
C417 C 0.13717 0.86461 0.20671 0.0
C418 C 0.08892 0.906 0.33537 0.0
C419 C 0.06887 0.93482 0.32526 0.0
C420 C 0.10762 0.8968 0.30911 0.0
C421 C 0.10706 0.91658 0.27256 0.0
C422 C 0.08774 0.94588 0.26288 0.0
C423 C 0.0686 0.95477 0.28887 0.0
H424 H 0.58929 0.66792 0.78539 0.0
H425 H 0.64564 0.57845 0.78998 0.0
H426 H 0.56788 0.64289 0.84379 0.0
H427 H 0.62304 0.55293 0.84727 0.0
H428 H 0.60062 0.526 0.96945 0.0
H429 H 0.62508 0.55426 0.91474 0.0
H430 H 0.52915 0.60074 0.86378 0.0
H431 H 0.50514 0.57371 0.91949 0.0
C432 C 0.59728 0.64298 0.79895 0.0
C433 C 0.61917 0.62521 0.78285 0.0
C434 C 0.58466 0.62847 0.8322 0.0
C435 C 0.59357 0.5958 0.85022 0.0
C436 C 0.61586 0.57823 0.83445 0.0
C437 C 0.62851 0.59274 0.80125 0.0
C438 C 0.5849 0.54275 0.94699 0.0
C439 C 0.55104 0.54792 0.9492 0.0
C440 C 0.59882 0.55862 0.91527 0.0
C441 C 0.57912 0.57983 0.88474 0.0
C442 C 0.54523 0.585 0.887 0.0
C443 C 0.53136 0.56924 0.91882 0.0
H444 H 0.83757 0.05878 0.25119 0.0
H445 H 0.92606 0.11537 0.23148 0.0
H446 H 0.86347 0.03923 0.3179 0.0
H447 H 0.95279 0.09396 0.29712 0.0
H448 H 0.97931 0.07953 0.42678 0.0
H449 H 0.95095 0.09951 0.3613 0.0
H450 H 0.90582 0.00376 0.35779 0.0
H451 H 0.93236 0.98475 0.42464 0.0
C452 C 0.86257 0.067 0.26096 0.0
C453 C 0.8796 0.08881 0.23578 0.0
C454 C 0.87764 0.05538 0.29916 0.0
C455 C 0.91025 0.06504 0.31309 0.0
C456 C 0.92744 0.0864 0.28772 0.0
C457 C 0.91227 0.09827 0.24971 0.0
C458 C 0.96286 0.06297 0.41225 0.0
C459 C 0.95794 0.03066 0.43086 0.0
C460 C 0.94699 0.07422 0.37441 0.0
C461 C 0.92625 0.0532 0.35393 0.0
C462 C 0.92128 0.02081 0.37271 0.0
C463 C 0.93681 0.00974 0.41085 0.0
H464 H 0.35271 0.4255 0.60959 0.0
H465 H 0.43022 0.35335 0.66401 0.0
H466 H 0.36473 0.45438 0.66421 0.0
H467 H 0.44268 0.3827 0.71901 0.0
H468 H 0.41276 0.42286 0.82731 0.0
H469 H 0.41298 0.39366 0.77299 0.0
H470 H 0.40935 0.48724 0.69501 0.0
H471 H 0.40899 0.51623 0.74901 0.0
C472 C 0.37246 0.41591 0.63324 0.0
C473 C 0.39039 0.38709 0.63266 0.0
C474 C 0.37959 0.43264 0.66438 0.0
C475 C 0.40478 0.42091 0.69587 0.0
C476 C 0.42307 0.39224 0.6952 0.0
C477 C 0.41611 0.37561 0.66368 0.0
C478 C 0.41284 0.43711 0.79868 0.0
C479 C 0.41027 0.47178 0.79224 0.0
C480 C 0.41296 0.42042 0.7676 0.0
C481 C 0.41056 0.43817 0.72964 0.0
C482 C 0.41046 0.47288 0.72378 0.0
C483 C 0.4103 0.48947 0.7547 0.0
H484 H 0.6449 0.67545 0.39601 0.0
H485 H 0.57431 0.60627 0.44297 0.0
H486 H 0.63849 0.65041 0.33814 0.0
H487 H 0.56862 0.58063 0.3854 0.0
H488 H 0.55315 0.55071 0.26669 0.0
H489 H 0.55027 0.58746 0.31354 0.0
H490 H 0.65814 0.59602 0.32983 0.0
H491 H 0.66084 0.55971 0.28324 0.0
C492 C 0.62748 0.65534 0.39367 0.0
C493 C 0.61032 0.64268 0.42428 0.0
C494 C 0.62405 0.64081 0.36063 0.0
C495 C 0.60331 0.61335 0.35735 0.0
C496 C 0.58465 0.60187 0.38694 0.0
C497 C 0.58819 0.61633 0.42011 0.0
C498 C 0.57607 0.56109 0.27979 0.0
C499 C 0.60723 0.5523 0.27164 0.0
C500 C 0.57447 0.58187 0.30674 0.0
C501 C 0.60399 0.59456 0.32545 0.0
C502 C 0.63492 0.58698 0.31567 0.0
C503 C 0.63652 0.566 0.2892 0.0
H504 H 0.81919 0.11124 0.84598 0.0
H505 H 0.90927 0.16196 0.88566 0.0
H506 H 0.83944 0.10925 0.78555 0.0
H507 H 0.92987 0.15862 0.82588 0.0
H508 H 0.9676 0.11246 0.72998 0.0
H509 H 0.94766 0.11356 0.79107 0.0
H510 H 0.85196 0.15238 0.72789 0.0
H511 H 0.87194 0.15138 0.66683 0.0
C512 C 0.84322 0.12203 0.84191 0.0
C513 C 0.86248 0.13685 0.87086 0.0
C514 C 0.85484 0.12075 0.80732 0.0
C515 C 0.88619 0.1338 0.80109 0.0
C516 C 0.90576 0.14805 0.83014 0.0
C517 C 0.89396 0.14977 0.8645 0.0
C518 C 0.94231 0.12118 0.72923 0.0
C519 C 0.92132 0.13191 0.69374 0.0
C520 C 0.93098 0.12196 0.7641 0.0
C521 C 0.89826 0.133 0.76414 0.0
C522 C 0.87721 0.14353 0.72866 0.0
C523 C 0.88871 0.14323 0.69379 0.0
H524 H 0.36979 0.41738 0.28262 0.0
H525 H 0.43664 0.33411 0.29441 0.0
H526 H 0.39248 0.44436 0.2259 0.0
H527 H 0.4584 0.36014 0.23661 0.0
H528 H 0.51565 0.42889 0.157 0.0
H529 H 0.49256 0.40258 0.21343 0.0
H530 H 0.39506 0.44504 0.16102 0.0
H531 H 0.41905 0.47351 0.10621 0.0
C532 C 0.38902 0.40465 0.27263 0.0
C533 C 0.40152 0.37371 0.29294 0.0
C534 C 0.40198 0.42002 0.23996 0.0
C535 C 0.42743 0.40458 0.22641 0.0
C536 C 0.4394 0.37324 0.24649 0.0
C537 C 0.4268 0.35815 0.27952 0.0
C538 C 0.4893 0.43272 0.15756 0.0
C539 C 0.46901 0.45281 0.12655 0.0
C540 C 0.4759 0.41729 0.18986 0.0
C541 C 0.44173 0.42122 0.19191 0.0
C542 C 0.42152 0.44153 0.16089 0.0
C543 C 0.43512 0.45743 0.12893 0.0
H544 H 0.10446 0.86372 0.82845 0.0
H545 H 0.16595 0.95075 0.82602 0.0
H546 H 0.07616 0.88518 0.76308 0.0
H547 H 0.13671 0.97282 0.76119 0.0
H548 H 0.10186 0.98555 0.63051 0.0
H549 H 0.13121 0.96282 0.69512 0.0
H550 H 0.03694 0.92902 0.72916 0.0
H551 H 0.00792 0.95054 0.66398 0.0
C552 C 0.11199 0.88741 0.81394 0.0
C553 C 0.13753 0.90549 0.83246 0.0
C554 C 0.09549 0.89989 0.77663 0.0
C555 C 0.10413 0.93074 0.75693 0.0
C556 C 0.12968 0.94882 0.77541 0.0
C557 C 0.14617 0.93635 0.81275 0.0
C558 C 0.08755 0.97286 0.65169 0.0
C559 C 0.05274 0.9694 0.64213 0.0
C560 C 0.10426 0.96022 0.68884 0.0
C561 C 0.08642 0.94407 0.71733 0.0
C562 C 0.05149 0.94091 0.70776 0.0
C563 C 0.03481 0.95352 0.67057 0.0
loop_
_geom_bond_atom_site_label_1
_geom_bond_atom_site_label_2
_geom_bond_distance
_geom_bond_site_symmetry_2
_ccdc_geom_bond_type
C0 C1 1.386 . S
C0 C2 1.397 . S
C0 H24 0.931 . S
C1 C0 1.386 . S
C1 C5 1.397 . S
C2 C0 1.397 . S
C2 C3 1.384 . S
C2 H25 0.930 . S
C3 C2 1.384 . S
C3 C4 1.377 . S
C3 C6 1.481 . S
C4 C3 1.377 . S
C4 C5 1.389 . S
C4 H26 0.929 . S
C5 C1 1.397 . S
C5 C4 1.389 . S
C5 H27 0.931 . S
C6 C3 1.481 . S
C6 C7 1.387 . S
C6 C11 1.390 1_556 S
C7 C6 1.387 . S
C7 C8 1.401 1_556 S
C7 H28 0.930 . S
C8 C7 1.401 1_554 S
C8 C9 1.376 . S
C8 C17 1.511 . S
C9 C8 1.376 . S
C9 C10 1.392 . S
C9 H30 0.931 . S
C10 C9 1.392 . S
C10 C11 1.361 . S
C10 C12 1.500 . S
C11 C6 1.390 1_554 S
C11 C10 1.361 . S
C11 H29 0.931 . S
C12 C10 1.500 . S
C12 C13 1.371 . S
C12 C14 1.365 . S
C13 C12 1.371 . S
C13 C23 1.386 . S
C13 H31 0.931 . S
C14 C12 1.365 . S
C14 C15 1.409 . S
C14 H32 0.929 . S
C15 C14 1.409 . S
C15 C16 1.380 . S
C15 H33 0.930 . S
C16 C15 1.380 . S
C16 C23 1.357 . S
C17 C8 1.511 . S
C17 C18 1.342 1_554 S
C17 C19 1.371 . S
C18 C17 1.342 1_556 S
C18 C22 1.394 1_556 S
C18 H34 0.929 . S
C19 C17 1.371 . S
C19 C20 1.392 . S
C19 H35 0.931 . S
C20 C19 1.392 . S
C20 C21 1.331 . S
C20 H38 0.932 . S
C21 C20 1.331 . S
C21 C22 1.336 . S
C22 C18 1.394 1_554 S
C22 C21 1.336 . S
C22 H37 0.929 1_554 S
C23 C13 1.386 . S
C23 C16 1.357 . S
C23 H36 0.928 . S
H24 C0 0.931 . S
H25 C2 0.930 . S
H26 C4 0.929 . S
H27 C5 0.931 . S
H28 C7 0.930 . S
H29 C11 0.931 . S
H30 C9 0.931 . S
H31 C13 0.931 . S
H32 C14 0.929 . S
H33 C15 0.930 . S
H34 C18 0.929 . S
H35 C19 0.931 . S
H36 C23 0.928 . S
H37 C22 0.929 1_556 S
H38 C20 0.932 . S
C39 C40 1.386 . S
C39 C41 1.397 . S
C39 H63 0.931 . S
C40 C39 1.386 . S
C40 C44 1.397 . S
C41 C39 1.397 . S
C41 C42 1.384 . S
C41 H64 0.930 . S
C42 C41 1.384 . S
C42 C43 1.377 . S
C42 C45 1.481 . S
C43 C42 1.377 . S
C43 C44 1.389 . S
C43 H65 0.929 . S
C44 C40 1.397 . S
C44 C43 1.389 . S
C44 H66 0.931 . S
C45 C42 1.481 . S
C45 C46 1.387 . S
C45 C50 1.390 . S
C46 C45 1.387 . S
C46 C47 1.401 . S
C46 H67 0.930 . S
C47 C46 1.401 . S
C47 C48 1.376 . S
C47 C56 1.511 . S
C48 C47 1.376 . S
C48 C49 1.392 . S
C48 H69 0.931 . S
C49 C48 1.392 . S
C49 C50 1.361 . S
C49 C51 1.500 . S
C50 C45 1.390 . S
C50 C49 1.361 . S
C50 H68 0.931 . S
C51 C49 1.500 . S
C51 C52 1.371 . S
C51 C53 1.365 . S
C52 C51 1.371 . S
C52 C62 1.386 . S
C52 H70 0.931 . S
C53 C51 1.365 . S
C53 C54 1.409 . S
C53 H71 0.929 . S
C54 C53 1.409 . S
C54 C55 1.380 . S
C54 H72 0.930 . S
C55 C54 1.380 . S
C55 C62 1.357 . S
C56 C47 1.511 . S
C56 C57 1.341 . S
C56 C58 1.371 . S
C57 C56 1.341 . S
C57 C61 1.394 . S
C57 H73 0.930 . S
C58 C56 1.371 . S
C58 C59 1.392 . S
C58 H74 0.931 . S
C59 C58 1.392 . S
C59 C60 1.331 . S
C59 H77 0.932 . S
C60 C59 1.331 . S
C60 C61 1.336 . S
C61 C57 1.394 . S
C61 C60 1.336 . S
C61 H76 0.929 . S
C62 C52 1.386 . S
C62 C55 1.357 . S
C62 H75 0.928 . S
H63 C39 0.931 . S
H64 C41 0.930 . S
H65 C43 0.929 . S
H66 C44 0.931 . S
H67 C46 0.930 . S
H68 C50 0.931 . S
H69 C48 0.931 . S
H70 C52 0.931 . S
H71 C53 0.929 . S
H72 C54 0.930 . S
H73 C57 0.930 . S
H74 C58 0.931 . S
H75 C62 0.928 . S
H76 C61 0.929 . S
H77 C59 0.932 . S
C78 C79 1.386 . S
C78 C80 1.397 . S
C78 H102 0.931 . S
C79 C78 1.386 . S
C79 C83 1.397 . S
C80 C78 1.397 . S
C80 C81 1.384 . S
C80 H103 0.930 . S
C81 C80 1.384 . S
C81 C82 1.377 . S
C81 C84 1.481 . S
C82 C81 1.377 . S
C82 C83 1.389 . S
C82 H104 0.929 . S
C83 C79 1.397 . S
C83 C82 1.389 . S
C83 H105 0.931 . S
C84 C81 1.481 . S
C84 C85 1.387 . S
C84 C89 1.390 . S
C85 C84 1.387 . S
C85 C86 1.401 . S
C85 H106 0.930 . S
C86 C85 1.401 . S
C86 C87 1.376 . S
C86 C95 1.511 . S
C87 C86 1.376 . S
C87 C88 1.392 . S
C87 H108 0.931 1_554 S
C88 C87 1.392 . S
C88 C89 1.361 . S
C88 C90 1.500 1_554 S
C89 C84 1.390 . S
C89 C88 1.361 . S
C89 H107 0.931 . S
C90 C88 1.500 1_556 S
C90 C91 1.371 . S
C90 C92 1.365 . S
C91 C90 1.371 . S
C91 C101 1.386 . S
C91 H109 0.931 . S
C92 C90 1.365 . S
C92 C93 1.409 . S
C92 H110 0.929 . S
C93 C92 1.409 . S
C93 C94 1.380 . S
C93 H111 0.930 . S
C94 C93 1.380 . S
C94 C101 1.357 . S
C95 C86 1.511 . S
C95 C96 1.341 . S
C95 C97 1.371 1_554 S
C96 C95 1.341 . S
C96 C100 1.394 . S
C96 H112 0.930 . S
C97 C95 1.371 1_556 S
C97 C98 1.392 . S
C97 H113 0.931 . S
C98 C97 1.392 . S
C98 C99 1.331 1_556 S
C98 H116 0.932 . S
C99 C98 1.331 1_554 S
C99 C100 1.336 . S
C100 C96 1.394 . S
C100 C99 1.336 . S
C100 H115 0.929 . S
C101 C91 1.386 . S
C101 C94 1.357 . S
C101 H114 0.928 . S
H102 C78 0.931 . S
H103 C80 0.930 . S
H104 C82 0.929 . S
H105 C83 0.931 . S
H106 C85 0.930 . S
H107 C89 0.931 . S
H108 C87 0.931 1_556 S
H109 C91 0.931 . S
H110 C92 0.929 . S
H111 C93 0.930 . S
H112 C96 0.930 . S
H113 C97 0.931 . S
H114 C101 0.928 . S
H115 C100 0.929 . S
H116 C98 0.932 . S
C117 C118 1.386 . S
C117 C119 1.397 . S
C117 H141 0.931 . S
C118 C117 1.386 . S
C118 C122 1.397 . S
C119 C117 1.397 . S
C119 C120 1.384 . S
C119 H142 0.930 . S
C120 C119 1.384 . S
C120 C121 1.377 . S
C120 C123 1.481 . S
C121 C120 1.377 . S
C121 C122 1.389 . S
C121 H143 0.929 . S
C122 C118 1.397 . S
C122 C121 1.389 . S
C122 H144 0.931 . S
C123 C120 1.481 . S
C123 C124 1.387 . S
C123 C128 1.390 . S
C124 C123 1.387 . S
C124 C125 1.401 . S
C124 H145 0.930 . S
C125 C124 1.401 . S
C125 C126 1.376 . S
C125 C134 1.511 . S
C126 C125 1.376 . S
C126 C127 1.392 . S
C126 H147 0.931 . S
C127 C126 1.392 . S
C127 C128 1.361 . S
C127 C129 1.500 . S
C128 C123 1.390 . S
C128 C127 1.361 . S
C128 H146 0.931 . S
C129 C127 1.500 . S
C129 C130 1.371 . S
C129 C131 1.365 . S
C130 C129 1.371 . S
C130 C140 1.386 . S
C130 H148 0.931 . S
C131 C129 1.365 . S
C131 C132 1.409 . S
C131 H149 0.929 . S
C132 C131 1.409 . S
C132 C133 1.380 . S
C132 H150 0.930 . S
C133 C132 1.380 . S
C133 C140 1.357 . S
C134 C125 1.511 . S
C134 C135 1.341 . S
C134 C136 1.371 . S
C135 C134 1.341 . S
C135 C139 1.394 . S
C135 H151 0.930 . S
C136 C134 1.371 . S
C136 C137 1.392 . S
C136 H152 0.931 . S
C137 C136 1.392 . S
C137 C138 1.331 . S
C137 H155 0.932 . S
C138 C137 1.331 . S
C138 C139 1.336 . S
C139 C135 1.394 . S
C139 C138 1.336 . S
C139 H154 0.929 . S
C140 C130 1.386 . S
C140 C133 1.357 . S
C140 H153 0.928 . S
H141 C117 0.931 . S
H142 C119 0.930 . S
H143 C121 0.929 . S
H144 C122 0.931 . S
H145 C124 0.930 . S
H146 C128 0.931 . S
H147 C126 0.931 . S
H148 C130 0.931 . S
H149 C131 0.929 . S
H150 C132 0.930 . S
H151 C135 0.930 . S
H152 C136 0.931 . S
H153 C140 0.928 . S
H154 C139 0.929 . S
H155 C137 0.932 . S
C156 C158 1.422 . S
C156 C160 1.415 . S
C156 N162 1.369 . S
C157 C158 1.421 . S
C157 C159 1.417 . S
C157 C169 1.422 . S
C158 C156 1.422 . S
C158 C157 1.421 . S
C158 N168 1.359 . S
C159 C157 1.417 . S
C159 C161 1.329 . S
C159 H178 0.930 . S
C160 C156 1.415 . S
C160 C161 1.437 . S
C160 C164 1.413 . S
C161 C159 1.329 . S
C161 C160 1.437 . S
C161 H183 0.929 . S
N162 C156 1.369 . S
N162 C163 1.329 1_655 S
N162 Gd167 2.622 . S
C163 N162 1.329 1_455 S
C163 C165 1.378 1_455 S
C163 H175 0.938 . S
C164 C160 1.413 . S
C164 C165 1.348 . S
C164 H180 0.931 . S
C165 C163 1.378 1_655 S
C165 C164 1.348 . S
C165 H181 0.930 1_655 S
Gd166 N186 2.622 . S
Gd166 N193 2.570 . S
Gd166 O200 2.367 1_455 S
Gd166 O201 2.468 . S
Gd166 O202 2.427 . S
Gd166 O204 2.388 1_455 S
Gd166 O205 2.386 . S
Gd166 O209 2.307 1_565 S
Gd166 C219 2.805 . S
Gd167 N162 2.622 . S
Gd167 N168 2.570 . S
Gd167 O199 2.386 . S
Gd167 O203 2.307 1_545 S
Gd167 O206 2.353 1_655 S
Gd167 O207 2.468 . S
Gd167 O208 2.427 . S
Gd167 O210 2.388 1_655 S
Gd167 C231 2.805 . S
N168 C158 1.359 . S
N168 Gd167 2.570 . S
N168 C170 1.343 . S
C169 C157 1.422 . S
C169 C171 1.321 . S
C169 H177 0.931 . S
C170 N168 1.343 . S
C170 C171 1.390 . S
C170 H172 0.931 . S
C171 C169 1.321 . S
C171 C170 1.390 . S
C171 H173 0.930 . S
H172 C170 0.931 . S
H173 C171 0.930 . S
H174 C197 0.931 . S
H175 C163 0.938 . S
H176 C198 0.930 . S
H177 C169 0.931 . S
H178 C159 0.930 . S
H179 C188 0.929 1_655 S
H180 C164 0.931 . S
H181 C165 0.930 1_455 S
H182 C220 0.930 . S
H183 C161 0.929 . S
H184 C189 0.931 . S
H185 C190 0.930 1_655 S
N186 Gd166 2.622 . S
N186 C187 1.369 . S
N186 C188 1.338 . S
C187 N186 1.369 . S
C187 C191 1.415 . S
C187 C194 1.422 . S
C188 H179 0.929 1_455 S
C188 N186 1.338 . S
C188 C190 1.378 . S
C189 H184 0.931 . S
C189 C190 1.348 . S
C189 C191 1.413 . S
C190 H185 0.930 1_455 S
C190 C188 1.378 . S
C190 C189 1.348 . S
C191 C187 1.415 . S
C191 C189 1.413 . S
C191 C221 1.437 . S
H192 C221 0.929 . S
N193 Gd166 2.570 . S
N193 C194 1.359 . S
N193 C197 1.343 . S
C194 C187 1.422 . S
C194 N193 1.359 . S
C194 C196 1.421 . S
C195 C196 1.422 . S
C195 C198 1.321 . S
C195 H222 0.931 . S
C196 C194 1.421 . S
C196 C195 1.422 . S
C196 C220 1.417 . S
C197 H174 0.931 . S
C197 N193 1.343 . S
C197 C198 1.390 . S
C198 H176 0.930 . S
C198 C195 1.321 . S
C198 C197 1.390 . S
O199 Gd167 2.386 . S
O199 C211 1.265 . S
O200 Gd166 2.367 1_655 S
O200 C211 1.220 1_565 S
O201 Gd166 2.468 . S
O201 C219 1.263 . S
O202 Gd166 2.427 . S
O202 C219 1.252 . S
O203 Gd167 2.307 1_565 S
O203 C212 1.261 . S
O204 Gd166 2.388 1_655 S
O204 C212 1.252 . S
O205 Gd166 2.386 . S
O205 C223 1.265 . S
O206 Gd167 2.353 1_455 S
O206 C223 1.242 1_545 S
O207 Gd167 2.468 . S
O207 C231 1.263 . S
O208 Gd167 2.427 . S
O208 C231 1.252 . S
O209 Gd166 2.307 1_545 S
O209 C224 1.261 . S
O210 Gd167 2.388 1_455 S
O210 C224 1.252 . S
C211 O199 1.265 . S
C211 O200 1.220 1_545 S
C212 O203 1.261 . S
C212 O204 1.252 . S
C213 C216 1.394 . S
C213 C218 1.370 . S
C213 C219 1.500 . S
C214 C217 1.383 . S
C214 C218 1.395 . S
C215 C216 1.396 . S
C215 C217 1.365 . S
C215 H232 0.929 . S
C216 C213 1.394 . S
C216 C215 1.396 . S
C216 H233 0.930 . S
C217 C214 1.383 . S
C217 C215 1.365 . S
C217 H234 0.931 . S
C218 C213 1.370 . S
C218 C214 1.395 . S
C218 H235 0.930 . S
C219 Gd166 2.805 . S
C219 O201 1.263 . S
C219 O202 1.252 . S
C219 C213 1.500 . S
C220 H182 0.930 . S
C220 C196 1.417 . S
C220 C221 1.329 . S
C221 C191 1.437 . S
C221 H192 0.929 . S
C221 C220 1.329 . S
H222 C195 0.931 . S
C223 O205 1.265 . S
C223 O206 1.242 1_565 S
C224 O209 1.261 . S
C224 O210 1.252 . S
C225 C228 1.394 . S
C225 C230 1.370 . S
C225 C231 1.500 . S
C226 C229 1.383 . S
C226 C230 1.395 . S
C227 C228 1.396 . S
C227 C229 1.365 . S
C227 H236 0.929 . S
C228 C225 1.394 . S
C228 C227 1.396 . S
C228 H237 0.930 . S
C229 C226 1.383 . S
C229 C227 1.365 . S
C229 H238 0.931 . S
C230 C225 1.370 . S
C230 C226 1.395 . S
C230 H239 0.930 . S
C231 Gd167 2.805 . S
C231 O207 1.263 . S
C231 O208 1.252 . S
C231 C225 1.500 . S
H232 C215 0.929 . S
H233 C216 0.930 . S
H234 C217 0.931 . S
H235 C218 0.930 . S
H236 C227 0.929 . S
H237 C228 0.930 . S
H238 C229 0.931 . S
H239 C230 0.930 . S
C240 C242 1.422 . S
C240 C244 1.415 . S
C240 N246 1.369 . S
C241 C242 1.421 . S
C241 C243 1.417 . S
C241 C253 1.422 . S
C242 C240 1.422 . S
C242 C241 1.421 . S
C242 N252 1.359 . S
C243 C241 1.417 . S
C243 C245 1.329 . S
C243 H262 0.930 . S
C244 C240 1.415 . S
C244 C245 1.437 . S
C244 C248 1.413 . S
C245 C243 1.329 . S
C245 C244 1.437 . S
C245 H267 0.929 . S
N246 C240 1.369 . S
N246 C247 1.338 . S
N246 Gd251 2.622 . S
C247 N246 1.338 . S
C247 C249 1.378 . S
C247 H259 0.929 . S
C248 C244 1.413 . S
C248 C249 1.348 . S
C248 H264 0.931 . S
C249 C247 1.378 . S
C249 C248 1.348 . S
C249 H265 0.930 . S
Gd250 N270 2.622 . S
Gd250 N277 2.570 1_556 S
Gd250 O284 2.353 . S
Gd250 O285 2.468 . S
Gd250 O286 2.427 . S
Gd250 O288 2.388 . S
Gd250 O289 2.386 1_556 S
Gd250 O293 2.307 1_556 S
Gd250 C303 2.805 . S
Gd251 N246 2.622 . S
Gd251 N252 2.570 . S
Gd251 O283 2.386 1_554 S
Gd251 O287 2.307 . S
Gd251 O290 2.353 . S
Gd251 O291 2.468 . S
Gd251 O292 2.427 . S
Gd251 O294 2.388 . S
Gd251 C315 2.805 . S
N252 C242 1.359 . S
N252 Gd251 2.570 . S
N252 C254 1.343 . S
C253 C241 1.422 . S
C253 C255 1.321 . S
C253 H261 0.931 . S
C254 N252 1.343 . S
C254 C255 1.390 . S
C254 H256 0.931 . S
C255 C253 1.321 . S
C255 C254 1.390 . S
C255 H257 0.930 . S
H256 C254 0.931 . S
H257 C255 0.930 . S
H258 C281 0.931 . S
H259 C247 0.929 . S
H260 C282 0.930 . S
H261 C253 0.931 . S
H262 C243 0.930 . S
H263 C272 0.929 . S
H264 C248 0.931 . S
H265 C249 0.930 . S
H266 C304 0.930 . S
H267 C245 0.929 . S
H268 C273 0.931 . S
H269 C274 0.930 . S
N270 Gd250 2.622 . S
N270 C271 1.369 1_556 S
N270 C272 1.338 . S
C271 N270 1.369 1_554 S
C271 C275 1.415 . S
C271 C278 1.422 . S
C272 H263 0.929 . S
C272 N270 1.338 . S
C272 C274 1.378 . S
C273 H268 0.931 . S
C273 C274 1.348 1_554 S
C273 C275 1.413 . S
C274 H269 0.930 . S
C274 C272 1.378 . S
C274 C273 1.348 1_556 S
C275 C271 1.415 . S
C275 C273 1.413 . S
C275 C305 1.437 . S
H276 C305 0.929 . S
N277 Gd250 2.570 1_554 S
N277 C278 1.359 . S
N277 C281 1.343 . S
C278 C271 1.422 . S
C278 N277 1.359 . S
C278 C280 1.421 . S
C279 C280 1.422 . S
C279 C282 1.321 . S
C279 H306 0.931 . S
C280 C278 1.421 . S
C280 C279 1.422 . S
C280 C304 1.417 . S
C281 H258 0.931 . S
C281 N277 1.343 . S
C281 C282 1.390 . S
C282 H260 0.930 . S
C282 C279 1.321 . S
C282 C281 1.390 . S
O283 Gd251 2.386 1_556 S
O283 C295 1.265 . S
O284 Gd250 2.353 . S
O284 C295 1.242 . S
O285 Gd250 2.468 . S
O285 C303 1.263 . S
O286 Gd250 2.427 . S
O286 C303 1.252 . S
O287 Gd251 2.307 . S
O287 C296 1.261 . S
O288 Gd250 2.388 . S
O288 C296 1.252 1_556 S
O289 Gd250 2.386 1_554 S
O289 C307 1.265 . S
O290 Gd251 2.353 . S
O290 C307 1.242 . S
O291 Gd251 2.468 . S
O291 C315 1.263 . S
O292 Gd251 2.427 . S
O292 C315 1.252 . S
O293 Gd250 2.307 1_554 S
O293 C308 1.261 . S
O294 Gd251 2.388 . S
O294 C308 1.252 . S
C295 O283 1.265 . S
C295 O284 1.242 . S
C296 O287 1.261 . S
C296 O288 1.252 1_554 S
C297 C300 1.394 . S
C297 C302 1.370 . S
C297 C303 1.500 . S
C298 C301 1.383 . S
C298 C302 1.395 . S
C299 C300 1.396 . S
C299 C301 1.365 . S
C299 H316 0.929 . S
C300 C297 1.394 . S
C300 C299 1.396 . S
C300 H317 0.930 . S
C301 C298 1.383 . S
C301 C299 1.365 . S
C301 H318 0.931 . S
C302 C297 1.370 . S
C302 C298 1.395 . S
C302 H319 0.930 . S
C303 Gd250 2.805 . S
C303 O285 1.263 . S
C303 O286 1.252 . S
C303 C297 1.500 . S
C304 H266 0.930 . S
C304 C280 1.417 . S
C304 C305 1.329 . S
C305 C275 1.437 . S
C305 H276 0.929 . S
C305 C304 1.329 . S
H306 C279 0.931 . S
C307 O289 1.265 . S
C307 O290 1.242 . S
C308 O293 1.261 . S
C308 O294 1.252 . S
C309 C312 1.394 . S
C309 C314 1.370 . S
C309 C315 1.500 . S
C310 C313 1.383 . S
C310 C314 1.395 . S
C311 C312 1.396 . S
C311 C313 1.365 . S
C311 H320 0.929 . S
C312 C309 1.394 . S
C312 C311 1.396 . S
C312 H321 0.930 . S
C313 C310 1.383 . S
C313 C311 1.365 . S
C313 H322 0.931 . S
C314 C309 1.370 . S
C314 C310 1.395 . S
C314 H323 0.930 . S
C315 Gd251 2.805 . S
C315 O291 1.263 . S
C315 O292 1.252 . S
C315 C309 1.500 . S
H316 C299 0.929 . S
H317 C300 0.930 . S
H318 C301 0.931 . S
H319 C302 0.930 . S
H320 C311 0.929 . S
H321 C312 0.930 . S
H322 C313 0.931 . S
H323 C314 0.930 . S
H324 C332 0.950 . S
H325 C337 0.950 . S
H326 C334 0.950 . S
H327 C336 0.950 . S
H328 C338 0.950 . S
H329 C340 0.950 . S
H330 C342 0.950 . S
H331 C343 0.950 . S
C332 H324 0.950 . S
C332 C333 1.386 . S
C332 C334 1.391 . S
C333 C332 1.386 . S
C333 C337 1.393 . S
C334 H326 0.950 . S
C334 C332 1.391 . S
C334 C335 1.400 . S
C335 C334 1.400 . S
C335 C336 1.398 . S
C335 C341 1.491 . S
C336 H327 0.950 . S
C336 C335 1.398 . S
C336 C337 1.391 . S
C337 H325 0.950 . S
C337 C333 1.393 . S
C337 C336 1.391 . S
C338 H328 0.950 . S
C338 C339 1.386 . S
C338 C340 1.391 . S
C339 C338 1.386 . S
C339 C343 1.393 . S
C340 H329 0.950 . S
C340 C338 1.391 . S
C340 C341 1.400 . S
C341 C335 1.491 . S
C341 C340 1.400 . S
C341 C342 1.398 . S
C342 H330 0.950 . S
C342 C341 1.398 . S
C342 C343 1.391 . S
C343 H331 0.950 . S
C343 C339 1.393 . S
C343 C342 1.391 . S
H344 C352 0.950 . S
H345 C357 0.950 1_556 S
H346 C354 0.950 . S
H347 C356 0.950 1_556 S
H348 C358 0.950 . S
H349 C360 0.969 . S
H350 C362 0.950 . S
H351 C363 0.950 . S
C352 H344 0.950 . S
C352 C353 1.386 . S
C352 C354 1.391 . S
C353 C352 1.386 . S
C353 C357 1.393 . S
C354 H346 0.950 . S
C354 C352 1.391 . S
C354 C355 1.400 . S
C355 C354 1.400 . S
C355 C356 1.398 . S
C355 C361 1.491 . S
C356 H347 0.950 1_554 S
C356 C355 1.398 . S
C356 C357 1.391 . S
C357 H345 0.950 1_554 S
C357 C353 1.393 . S
C357 C356 1.391 . S
C358 H348 0.950 . S
C358 C359 1.386 1_556 S
C358 C360 1.399 . S
C359 C358 1.386 1_554 S
C359 C363 1.393 . S
C360 H349 0.969 . S
C360 C358 1.399 . S
C360 C361 1.375 1_556 S
C361 C355 1.491 . S
C361 C360 1.375 1_554 S
C361 C362 1.398 . S
C362 H350 0.950 . S
C362 C361 1.398 . S
C362 C363 1.391 . S
C363 H351 0.950 . S
C363 C359 1.393 . S
C363 C362 1.391 . S
H364 C372 0.950 . S
H365 C377 0.950 . S
H366 C374 0.950 . S
H367 C376 0.950 . S
H368 C378 0.950 . S
H369 C380 0.950 . S
H370 C382 0.950 . S
H371 C383 0.950 . S
C372 H364 0.950 . S
C372 C373 1.386 . S
C372 C374 1.391 . S
C373 C372 1.386 . S
C373 C377 1.393 . S
C374 H366 0.950 . S
C374 C372 1.391 . S
C374 C375 1.400 . S
C375 C374 1.400 . S
C375 C376 1.398 . S
C375 C381 1.491 . S
C376 H367 0.950 . S
C376 C375 1.398 . S
C376 C377 1.391 . S
C377 H365 0.950 . S
C377 C373 1.393 . S
C377 C376 1.391 . S
C378 H368 0.950 . S
C378 C379 1.386 . S
C378 C380 1.391 . S
C379 C378 1.386 . S
C379 C383 1.393 . S
C380 H369 0.950 . S
C380 C378 1.391 . S
C380 C381 1.400 . S
C381 C375 1.491 . S
C381 C380 1.400 . S
C381 C382 1.398 . S
C382 H370 0.950 . S
C382 C381 1.398 . S
C382 C383 1.391 . S
C383 H371 0.950 . S
C383 C379 1.393 . S
C383 C382 1.391 . S
H384 C392 0.950 . S
H385 C397 0.950 . S
H386 C394 0.950 . S
H387 C396 0.944 1_556 S
H388 C398 0.950 1_556 S
H389 C400 0.950 1_556 S
H390 C402 0.950 . S
H391 C403 0.950 . S
C392 H384 0.950 . S
C392 C393 1.386 . S
C392 C394 1.391 . S
C393 C392 1.386 . S
C393 C397 1.393 1_554 S
C394 H386 0.950 . S
C394 C392 1.391 . S
C394 C395 1.400 . S
C395 C394 1.400 . S
C395 C396 1.408 . S
C395 C401 1.491 . S
C396 H387 0.944 1_554 S
C396 C395 1.408 . S
C396 C397 1.387 1_554 S
C397 H385 0.950 . S
C397 C393 1.393 1_556 S
C397 C396 1.387 1_556 S
C398 H388 0.950 1_554 S
C398 C399 1.386 . S
C398 C400 1.391 . S
C399 C398 1.386 . S
C399 C403 1.393 . S
C400 H389 0.950 1_554 S
C400 C398 1.391 . S
C400 C401 1.400 . S
C401 C395 1.491 . S
C401 C400 1.400 . S
C401 C402 1.398 . S
C402 H390 0.950 . S
C402 C401 1.398 . S
C402 C403 1.391 . S
C403 H391 0.950 . S
C403 C399 1.393 . S
C403 C402 1.391 . S
H404 C412 0.950 . S
H405 C417 0.950 . S
H406 C414 0.950 . S
H407 C416 0.950 . S
H408 C418 0.950 . S
H409 C420 0.950 . S
H410 C422 0.950 . S
H411 C423 0.950 . S
C412 H404 0.950 . S
C412 C413 1.386 . S
C412 C414 1.391 . S
C413 C412 1.386 . S
C413 C417 1.393 . S
C414 H406 0.950 . S
C414 C412 1.391 . S
C414 C415 1.400 . S
C415 C414 1.400 . S
C415 C416 1.398 . S
C415 C421 1.491 . S
C416 H407 0.950 . S
C416 C415 1.398 . S
C416 C417 1.391 . S
C417 H405 0.950 . S
C417 C413 1.393 . S
C417 C416 1.391 . S
C418 H408 0.950 . S
C418 C419 1.386 . S
C418 C420 1.391 . S
C419 C418 1.386 . S
C419 C423 1.393 . S
C420 H409 0.950 . S
C420 C418 1.391 . S
C420 C421 1.400 . S
C421 C415 1.491 . S
C421 C420 1.400 . S
C421 C422 1.398 . S
C422 H410 0.950 . S
C422 C421 1.398 . S
C422 C423 1.391 . S
C423 H411 0.950 . S
C423 C419 1.393 . S
C423 C422 1.391 . S
H424 C432 0.950 . S
H425 C437 0.950 . S
H426 C434 0.950 . S
H427 C436 0.950 . S
H428 C438 0.950 . S
H429 C440 0.950 . S
H430 C442 0.950 . S
H431 C443 0.950 . S
C432 H424 0.950 . S
C432 C433 1.386 . S
C432 C434 1.391 . S
C433 C432 1.386 . S
C433 C437 1.393 . S
C434 H426 0.950 . S
C434 C432 1.391 . S
C434 C435 1.400 . S
C435 C434 1.400 . S
C435 C436 1.398 . S
C435 C441 1.491 . S
C436 H427 0.950 . S
C436 C435 1.398 . S
C436 C437 1.391 . S
C437 H425 0.950 . S
C437 C433 1.393 . S
C437 C436 1.391 . S
C438 H428 0.950 . S
C438 C439 1.386 . S
C438 C440 1.391 . S
C439 C438 1.386 . S
C439 C443 1.393 . S
C440 H429 0.950 . S
C440 C438 1.391 . S
C440 C441 1.400 . S
C441 C435 1.491 . S
C441 C440 1.400 . S
C441 C442 1.398 . S
C442 H430 0.950 . S
C442 C441 1.398 . S
C442 C443 1.391 . S
C443 H431 0.950 . S
C443 C439 1.393 . S
C443 C442 1.391 . S
H444 C452 0.950 . S
H445 C457 0.950 . S
H446 C454 0.950 . S
H447 C456 0.950 . S
H448 C458 0.950 . S
H449 C460 0.950 . S
H450 C462 0.950 . S
H451 C463 0.950 . S
C452 H444 0.950 . S
C452 C453 1.386 . S
C452 C454 1.391 . S
C453 C452 1.386 . S
C453 C457 1.393 . S
C454 H446 0.950 . S
C454 C452 1.391 . S
C454 C455 1.400 . S
C455 C454 1.400 . S
C455 C456 1.398 . S
C455 C461 1.491 . S
C456 H447 0.950 . S
C456 C455 1.398 . S
C456 C457 1.391 . S
C457 H445 0.950 . S
C457 C453 1.393 . S
C457 C456 1.391 . S
C458 H448 0.950 . S
C458 C459 1.386 . S
C458 C460 1.391 . S
C459 C458 1.386 . S
C459 C463 1.393 . S
C460 H449 0.950 . S
C460 C458 1.391 . S
C460 C461 1.400 . S
C461 C455 1.491 . S
C461 C460 1.400 . S
C461 C462 1.398 . S
C462 H450 0.950 . S
C462 C461 1.398 . S
C462 C463 1.391 . S
C463 H451 0.950 . S
C463 C459 1.393 . S
C463 C462 1.391 . S
H464 C472 0.950 . S
H465 C477 0.950 . S
H466 C474 0.950 . S
H467 C476 0.950 . S
H468 C478 0.950 . S
H469 C480 0.950 . S
H470 C482 0.950 . S
H471 C483 0.950 . S
C472 H464 0.950 . S
C472 C473 1.386 . S
C472 C474 1.391 . S
C473 C472 1.386 . S
C473 C477 1.393 . S
C474 H466 0.950 . S
C474 C472 1.391 . S
C474 C475 1.400 . S
C475 C474 1.400 . S
C475 C476 1.398 . S
C475 C481 1.491 . S
C476 H467 0.950 . S
C476 C475 1.398 . S
C476 C477 1.391 . S
C477 H465 0.950 . S
C477 C473 1.393 . S
C477 C476 1.391 . S
C478 H468 0.950 . S
C478 C479 1.386 . S
C478 C480 1.391 . S
C479 C478 1.386 . S
C479 C483 1.393 . S
C480 H469 0.950 . S
C480 C478 1.391 . S
C480 C481 1.400 . S
C481 C475 1.491 . S
C481 C480 1.400 . S
C481 C482 1.398 . S
C482 H470 0.950 . S
C482 C481 1.398 . S
C482 C483 1.391 . S
C483 H471 0.950 . S
C483 C479 1.393 . S
C483 C482 1.391 . S
H484 C492 0.950 . S
H485 C497 0.950 . S
H486 C494 0.950 . S
H487 C496 0.950 . S
H488 C498 0.950 . S
H489 C500 0.950 . S
H490 C502 0.950 . S
H491 C503 0.950 . S
C492 H484 0.950 . S
C492 C493 1.386 . S
C492 C494 1.391 . S
C493 C492 1.386 . S
C493 C497 1.393 . S
C494 H486 0.950 . S
C494 C492 1.391 . S
C494 C495 1.400 . S
C495 C494 1.400 . S
C495 C496 1.398 . S
C495 C501 1.491 . S
C496 H487 0.950 . S
C496 C495 1.398 . S
C496 C497 1.391 . S
C497 H485 0.950 . S
C497 C493 1.393 . S
C497 C496 1.391 . S
C498 H488 0.950 . S
C498 C499 1.386 . S
C498 C500 1.391 . S
C499 C498 1.386 . S
C499 C503 1.393 . S
C500 H489 0.950 . S
C500 C498 1.391 . S
C500 C501 1.400 . S
C501 C495 1.491 . S
C501 C500 1.400 . S
C501 C502 1.398 . S
C502 H490 0.950 . S
C502 C501 1.398 . S
C502 C503 1.391 . S
C503 H491 0.950 . S
C503 C499 1.393 . S
C503 C502 1.391 . S
H504 C512 0.950 . S
H505 C517 0.950 . S
H506 C514 0.950 . S
H507 C516 0.950 . S
H508 C518 0.950 . S
H509 C520 0.950 . S
H510 C522 0.950 . S
H511 C523 0.950 . S
C512 H504 0.950 . S
C512 C513 1.386 . S
C512 C514 1.391 . S
C513 C512 1.386 . S
C513 C517 1.393 . S
C514 H506 0.950 . S
C514 C512 1.391 . S
C514 C515 1.400 . S
C515 C514 1.400 . S
C515 C516 1.398 . S
C515 C521 1.491 . S
C516 H507 0.950 . S
C516 C515 1.398 . S
C516 C517 1.391 . S
C517 H505 0.950 . S
C517 C513 1.393 . S
C517 C516 1.391 . S
C518 H508 0.950 . S
C518 C519 1.386 . S
C518 C520 1.391 . S
C519 C518 1.386 . S
C519 C523 1.393 . S
C520 H509 0.950 . S
C520 C518 1.391 . S
C520 C521 1.400 . S
C521 C515 1.491 . S
C521 C520 1.400 . S
C521 C522 1.398 . S
C522 H510 0.950 . S
C522 C521 1.398 . S
C522 C523 1.391 . S
C523 H511 0.950 . S
C523 C519 1.393 . S
C523 C522 1.391 . S
H524 C532 0.950 . S
H525 C537 0.950 . S
H526 C534 0.950 . S
H527 C536 0.950 . S
H528 C538 0.950 . S
H529 C540 0.950 . S
H530 C542 0.950 . S
H531 C543 0.950 . S
C532 H524 0.950 . S
C532 C533 1.386 . S
C532 C534 1.391 . S
C533 C532 1.386 . S
C533 C537 1.393 . S
C534 H526 0.950 . S
C534 C532 1.391 . S
C534 C535 1.400 . S
C535 C534 1.400 . S
C535 C536 1.398 . S
C535 C541 1.491 . S
C536 H527 0.950 . S
C536 C535 1.398 . S
C536 C537 1.391 . S
C537 H525 0.950 . S
C537 C533 1.393 . S
C537 C536 1.391 . S
C538 H528 0.950 . S
C538 C539 1.386 . S
C538 C540 1.391 . S
C539 C538 1.386 . S
C539 C543 1.393 . S
C540 H529 0.950 . S
C540 C538 1.391 . S
C540 C541 1.400 . S
C541 C535 1.491 . S
C541 C540 1.400 . S
C541 C542 1.398 . S
C542 H530 0.950 . S
C542 C541 1.398 . S
C542 C543 1.391 . S
C543 H531 0.950 . S
C543 C539 1.393 . S
C543 C542 1.391 . S
H544 C552 0.950 . S
H545 C557 0.950 . S
H546 C554 0.950 . S
H547 C556 0.950 . S
H548 C558 0.950 . S
H549 C560 0.950 . S
H550 C562 0.950 . S
H551 C563 0.950 . S
C552 H544 0.950 . S
C552 C553 1.386 . S
C552 C554 1.391 . S
C553 C552 1.386 . S
C553 C557 1.393 . S
C554 H546 0.950 . S
C554 C552 1.391 . S
C554 C555 1.400 . S
C555 C554 1.400 . S
C555 C556 1.398 . S
C555 C561 1.491 . S
C556 H547 0.950 . S
C556 C555 1.398 . S
C556 C557 1.391 . S
C557 H545 0.950 . S
C557 C553 1.393 . S
C557 C556 1.391 . S
C558 H548 0.950 . S
C558 C559 1.386 . S
C558 C560 1.391 . S
C559 C558 1.386 . S
C559 C563 1.393 . S
C560 H549 0.950 . S
C560 C558 1.391 . S
C560 C561 1.400 . S
C561 C555 1.491 . S
C561 C560 1.400 . S
C561 C562 1.398 . S
C562 H550 0.950 . S
C562 C561 1.398 . S
C562 C563 1.391 . S
C563 H551 0.950 . S
C563 C559 1.393 . S
C563 C562 1.391 . S
C339 C224 1.636 . S
C333 C138 1.630 . S
C353 C21 1.607 . S
C359 C296 1.619 . S
C373 C60 1.633 . S
C379 C212 1.637 . S
C393 C99 1.618 . S
C399 C308 1.624 . S
C419 C214 1.415 . S
C413 C16 1.551 . S
C439 C295 1.613 . S
C433 C40 1.598 . S
C453 C79 1.604 . S
C459 C211 1.620 . S
C473 C133 1.536 . S
C479 C298 1.409 . S
C499 C310 1.420 . S
C493 C55 1.534 . S
C519 C226 1.424 . S
C513 C94 1.552 . S
C539 C307 1.613 . S
C533 C118 1.597 . S
C553 C1 1.603 . S
C559 C223 1.619 . S
