# Generated by pormake.
# Topology pth, (4,4)-cn, num edge types: 1
# Building blocks:
#     Node 0, Type 0, BuildingBlock: QUQFOY_clean_sbu_1, # of connection points: 4
#     Node 1, Type 0, BuildingBlock: QUQFOY_clean_sbu_1, # of connection points: 4
#     Node 2, Type 0, BuildingBlock: QUQFOY_clean_sbu_1, # of connection points: 4
#     Node 3, Type 1, BuildingBlock: MUDLON_clean_linker_0, # of connection points: 4
#     Node 4, Type 1, BuildingBlock: MUDLON_clean_linker_0, # of connection points: 4
#     Node 5, Type 1, BuildingBlock: MUDLON_clean_linker_0, # of connection points: 4
#     Edge 6, Type (0, 1), BuildingBlock: CIFDUS_clean_linker_0, # of connection points: 2
#     Edge 7, Type (0, 1), BuildingBlock: CIFDUS_clean_linker_0, # of connection points: 2
#     Edge 8, Type (0, 1), BuildingBlock: CIFDUS_clean_linker_0, # of connection points: 2
#     Edge 9, Type (0, 1), BuildingBlock: CIFDUS_clean_linker_0, # of connection points: 2
#     Edge 10, Type (0, 1), BuildingBlock: CIFDUS_clean_linker_0, # of connection points: 2
#     Edge 11, Type (0, 1), BuildingBlock: CIFDUS_clean_linker_0, # of connection points: 2
#     Edge 12, Type (0, 1), BuildingBlock: CIFDUS_clean_linker_0, # of connection points: 2
#     Edge 13, Type (0, 1), BuildingBlock: CIFDUS_clean_linker_0, # of connection points: 2
#     Edge 14, Type (0, 1), BuildingBlock: CIFDUS_clean_linker_0, # of connection points: 2
#     Edge 15, Type (0, 1), BuildingBlock: CIFDUS_clean_linker_0, # of connection points: 2
#     Edge 16, Type (0, 1), BuildingBlock: CIFDUS_clean_linker_0, # of connection points: 2
#     Edge 17, Type (0, 1), BuildingBlock: CIFDUS_clean_linker_0, # of connection points: 2
# Relax obj value: 0.051
# Max RMSD: 0.152
# Mean RMSD: 0.116
data_MOF--net-pth--node1-QUQFOY_clean_sbu_1--node2-MUDLON_clean_linker_0--edge1-CIFDUS_clean_linker_0
_symmetry_space_group_name_H-M    P1
_symmetry_Int_Tables_number       1
_symmetry_cell_setting            triclinic
loop_
_symmetry_equiv_pos_as_xyz
'x, y, z'
_cell_length_a     29.53254
_cell_length_b     31.456061
_cell_length_c     64.373629
_cell_angle_alpha  89.976663
_cell_angle_beta   89.987429
_cell_angle_gamma 120.15026
loop_
_atom_site_label
_atom_site_type_symbol
_atom_site_fract_x
_atom_site_fract_y
_atom_site_fract_z
_atom_type_partial_charge
O0 O 0.04093 0.09266 0.00208 0.0
Cd1 Cd 0.98594 0.04049 0.02158 0.0
Cd2 Cd 0.05237 1.00508 0.01876 0.0
O3 O 0.10273 0.0731 0.0057 0.0
O4 O 0.95352 0.07337 0.03747 0.0
O5 O 1.0075 0.05144 0.05127 0.0
C6 C 0.98119 0.0739 0.05313 0.0
C7 C 0.07115 0.96743 0.04599 0.0
C8 C 0.08743 0.10175 -0.00121 0.0
C9 C 0.94533 0.94579 -0.00059 0.0
O10 O 0.99252 0.95535 0.00037 0.0
O11 O 0.93149 0.97321 0.00871 0.0
O12 O 0.09069 0.9706 0.02772 0.0
O13 O 0.04457 0.98923 0.04909 0.0
O14 O 0.96156 0.04655 0.37134 0.0
Cd15 Cd 0.02664 0.06937 0.35297 0.0
Cd16 Cd 0.9895 0.97053 0.35029 0.0
O17 O 0.92582 0.96703 0.36546 0.0
O18 O 0.04598 0.1362 0.34277 0.0
O19 O 0.01901 0.07168 0.32209 0.0
C20 C 0.03359 0.11766 0.32436 0.0
C21 C 0.97513 0.91265 0.32442 0.0
C22 C 0.92412 1.00281 0.37385 0.0
C23 C 0.09299 0.03476 0.37257 0.0
O24 O 0.05631 0.99204 0.36767 0.0
O25 O 0.09086 0.07263 0.36723 0.0
O26 O 0.96568 0.90038 0.34369 0.0
O27 O 0.99148 0.95796 0.31961 0.0
O28 O 0.93431 0.97133 0.67004 0.0
Cd29 Cd 0.98916 0.97265 0.6903 0.0
Cd30 Cd 0.03112 0.06826 0.6835 0.0
O31 O 0.96005 0.05029 0.6703 0.0
O32 O 0.95501 0.90455 0.70175 0.0
O33 O 0.97364 0.9696 0.72095 0.0
C34 C 0.95308 0.92251 0.71949 0.0
C35 C 0.06927 0.12445 0.71046 0.0
C36 C 0.92749 1.00663 0.66467 0.0
C37 C 0.08821 0.02063 0.66603 0.0
O38 O 0.08144 0.05741 0.6651 0.0
O39 O 0.05853 0.98392 0.67737 0.0
O40 O 0.06869 0.13879 0.69172 0.0
O41 O 0.04602 0.0777 0.71404 0.0
H42 H 0.90039 0.64447 0.20706 0.0
N43 N 0.97597 0.65982 0.18046 0.0
H44 H 0.9053 0.6988 0.23535 0.0
H45 H 0.0661 0.73669 0.19637 0.0
H46 H 0.07143 0.79055 0.22458 0.0
H47 H 0.06982 0.71553 0.16045 0.0
H48 H 0.0885 0.77985 0.13478 0.0
H49 H 0.90657 0.67288 0.15974 0.0
H50 H 0.92445 0.73599 0.1337 0.0
H51 H 0.91221 0.56746 0.1692 0.0
H52 H 0.06901 0.66514 0.19091 0.0
H53 H 0.9298 0.49929 0.16885 0.0
H54 H 0.0865 0.59722 0.19136 0.0
H55 H 0.966 0.30504 0.20111 0.0
H56 H 0.96218 0.26115 0.23312 0.0
H57 H 0.12217 0.37106 0.24679 0.0
H58 H 0.12584 0.41446 0.2146 0.0
H59 H 0.08593 0.31865 0.18069 0.0
H60 H 0.05825 0.25308 0.15584 0.0
H61 H 0.96533 0.30462 0.12427 0.0
H62 H 0.98815 0.36653 0.15089 0.0
H63 H 0.95992 0.37847 0.193 0.0
H64 H 0.9422 0.4464 0.19159 0.0
H65 H 0.10015 0.54304 0.1699 0.0
N66 N 0.05359 0.38355 0.18484 0.0
H67 H 0.11787 0.47505 0.1722 0.0
C68 C 0.98264 0.68613 0.19962 0.0
C69 C 0.93806 0.67552 0.21125 0.0
C70 C 0.94095 0.70669 0.22734 0.0
C71 C 0.98866 0.74936 0.23201 0.0
C72 C 0.03394 0.75841 0.22113 0.0
C73 C 0.03103 0.72713 0.20512 0.0
C74 C 0.98665 0.6896 0.1621 0.0
C75 C 0.03777 0.7191 0.15437 0.0
C76 C 0.0484 0.75589 0.13967 0.0
C77 C 1.00812 0.76371 0.13253 0.0
C78 C 0.95656 0.73172 0.13925 0.0
C79 C 0.94609 0.69521 0.15389 0.0
C80 C 0.98892 0.62129 0.18017 0.0
C81 C 0.9504 0.57409 0.17396 0.0
C82 C 0.96046 0.53512 0.17393 0.0
C83 C 0.00952 0.54246 0.1802 0.0
C84 C 0.04844 0.59014 0.18619 0.0
C85 C 0.03836 0.62919 0.1861 0.0
C86 C 0.04648 0.36299 0.20547 0.0
C87 C 0.99975 0.32038 0.21129 0.0
C88 C 0.9978 0.29508 0.22943 0.0
C89 C 0.0421 0.3124 0.24227 0.0
C90 C 0.08741 0.35694 0.23721 0.0
C91 C 0.08956 0.38184 0.21891 0.0
C92 C 0.03864 0.34743 0.16829 0.0
C93 C 0.05902 0.31557 0.16857 0.0
C94 C 0.04362 0.27819 0.15394 0.0
C95 C 0.0095 0.27294 0.1376 0.0
C96 C 0.99053 0.30614 0.13678 0.0
C97 C 1.00428 0.34245 0.15204 0.0
C98 C 0.04054 0.42191 0.18287 0.0
C99 C 0.99071 0.41428 0.188 0.0
C100 C 0.98055 0.45321 0.187 0.0
C101 C 0.01982 0.50053 0.18073 0.0
C102 C 0.06923 0.50752 0.17518 0.0
C103 C 0.07936 0.46864 0.17629 0.0
H104 H 0.73118 0.04903 0.52997 0.0
N105 N 0.64403 0.96052 0.52074 0.0
H106 H 0.78401 0.0684 0.5614 0.0
H107 H 0.62155 0.9065 0.55487 0.0
H108 H 0.67205 0.92663 0.58702 0.0
H109 H 0.6758 0.90293 0.50399 0.0
H110 H 0.73132 0.91931 0.47338 0.0
H111 H 0.68164 0.04148 0.49524 0.0
H112 H 0.73493 0.05717 0.46429 0.0
H113 H 0.6377 0.04384 0.52529 0.0
H114 H 0.54716 0.88764 0.51505 0.0
H115 H 0.55839 0.04953 0.52281 0.0
H116 H 0.467 0.89183 0.51422 0.0
H117 H 0.33696 0.06309 0.52947 0.0
H118 H 0.30478 0.08617 0.55996 0.0
H119 H 0.21157 0.93261 0.57688 0.0
H120 H 0.24643 0.91065 0.54697 0.0
H121 H 0.2218 0.90651 0.49933 0.0
H122 H 0.18685 0.91669 0.4665 0.0
H123 H 0.32181 0.06219 0.45982 0.0
H124 H 0.35619 0.05152 0.49304 0.0
H125 H 0.40049 0.03434 0.53909 0.0
H126 H 0.48179 0.03307 0.53958 0.0
H127 H 0.41829 0.91518 0.49449 0.0
N128 N 0.31023 0.96997 0.5178 0.0
H129 H 0.33537 0.91405 0.49538 0.0
C130 C 0.67312 0.97559 0.53989 0.0
C131 C 0.7181 0.02209 0.54232 0.0
C132 C 0.74801 0.03336 0.56048 0.0
C133 C 0.7329 0.99878 0.57671 0.0
C134 C 0.68588 0.95362 0.57465 0.0
C135 C 0.65667 0.94211 0.55638 0.0
C136 C 0.67418 0.97055 0.5019 0.0
C137 C 0.68839 0.93648 0.49526 0.0
C138 C 0.71978 0.9458 0.47768 0.0
C139 C 0.73753 0.98954 0.4663 0.0
C140 C 0.72249 0.02337 0.47281 0.0
C141 C 0.69143 0.01416 0.49048 0.0
C142 C 0.59815 0.96531 0.51987 0.0
C143 C 0.60061 1.01076 0.52246 0.0
C144 C 0.55499 0.01377 0.52133 0.0
C145 C 0.50593 0.97119 0.51813 0.0
C146 C 0.50393 0.92569 0.51606 0.0
C147 C 0.5496 0.92299 0.51674 0.0
C148 C 0.29423 0.9851 0.53615 0.0
C149 C 0.31016 0.03463 0.53995 0.0
C150 C 0.29138 0.04765 0.55733 0.0
C151 C 0.25543 1.01131 0.57099 0.0
C152 C 0.24003 0.96181 0.56708 0.0
C153 C 0.2595 0.94901 0.5499 0.0
C154 C 0.29126 0.97809 0.4985 0.0
C155 C 0.24372 0.94051 0.49073 0.0
C156 C 0.22416 0.94633 0.47192 0.0
C157 C 0.2519 0.99005 0.46042 0.0
C158 C 0.29951 0.02816 0.46835 0.0
C159 C 0.31918 0.02217 0.48727 0.0
C160 C 0.361 0.97369 0.5173 0.0
C161 C 0.40359 1.00802 0.52932 0.0
C162 C 0.45073 1.00761 0.52944 0.0
C163 C 0.45685 0.97368 0.51724 0.0
C164 C 0.41486 0.94092 0.50458 0.0
C165 C 0.36747 0.94057 0.50486 0.0
H166 H 0.67673 0.7522 0.87405 0.0
N167 N 0.68181 0.6701 0.86374 0.0
H168 H 0.71305 0.80217 0.90509 0.0
H169 H 0.71767 0.64749 0.89738 0.0
H170 H 0.75155 0.69587 0.92922 0.0
H171 H 0.77313 0.68538 0.84949 0.0
H172 H 0.82668 0.74163 0.82176 0.0
H173 H 0.65341 0.72271 0.8385 0.0
H174 H 0.70693 0.77953 0.8108 0.0
H175 H 0.59308 0.66189 0.88222 0.0
H176 H 0.64688 0.59409 0.83788 0.0
H177 H 0.50486 0.59331 0.87914 0.0
H178 H 0.55733 0.52692 0.83329 0.0
H179 H 0.22763 0.35753 0.87836 0.0
H180 H 0.19393 0.30264 0.90824 0.0
H181 H 0.33659 0.29591 0.91024 0.0
H182 H 0.36841 0.34835 0.87976 0.0
H183 H 0.3286 0.30918 0.8439 0.0
H184 H 0.28131 0.25276 0.81545 0.0
H185 H 0.20225 0.33403 0.80242 0.0
H186 H 0.25093 0.39103 0.8306 0.0
H187 H 0.34137 0.47785 0.86225 0.0
H188 H 0.42869 0.55049 0.86089 0.0
H189 H 0.49422 0.45684 0.84887 0.0
N190 N 0.31519 0.38457 0.8575 0.0
H191 H 0.40665 0.38565 0.84843 0.0
C192 C 0.69576 0.6966 0.88318 0.0
C193 C 0.69294 0.73959 0.88599 0.0
C194 C 0.71314 0.76787 0.90395 0.0
C195 C 0.736 0.75351 0.9196 0.0
C196 C 0.73544 0.70872 0.91729 0.0
C197 C 0.71578 0.68079 0.89921 0.0
C198 C 0.70958 0.69998 0.84604 0.0
C199 C 0.75826 0.70537 0.84088 0.0
C200 C 0.78868 0.73745 0.82506 0.0
C201 C 0.7711 0.76517 0.81419 0.0
C202 C 0.72173 0.75907 0.8191 0.0
C203 C 0.69104 0.72651 0.83481 0.0
C204 C 0.62746 0.63319 0.86043 0.0
C205 C 0.58609 0.63281 0.87148 0.0
C206 C 0.53491 0.59335 0.86951 0.0
C207 C 0.52333 0.55379 0.85607 0.0
C208 C 0.56446 0.55568 0.84426 0.0
C209 C 0.61579 0.59451 0.84663 0.0
C210 C 0.30059 0.35765 0.87683 0.0
C211 C 0.25186 0.34475 0.88549 0.0
C212 C 0.23285 0.31351 0.90267 0.0
C213 C 0.26253 0.29472 0.91179 0.0
C214 C 0.31227 0.30902 0.90349 0.0
C215 C 0.33092 0.33975 0.88609 0.0
C216 C 0.29347 0.35463 0.83924 0.0
C217 C 0.30209 0.31558 0.83461 0.0
C218 C 0.27444 0.28292 0.8185 0.0
C219 C 0.23762 0.28859 0.80674 0.0
C220 C 0.23066 0.32881 0.81097 0.0
C221 C 0.25835 0.36142 0.82706 0.0
C222 C 0.3674 0.42631 0.85585 0.0
C223 C 0.37475 0.47335 0.85913 0.0
C224 C 0.4249 0.51478 0.85854 0.0
C225 C 0.46926 0.51001 0.85506 0.0
C226 C 0.46144 0.46259 0.85133 0.0
C227 C 0.41108 0.42135 0.85141 0.0
H228 H 0.91943 0.11059 0.06639 0.0
H229 H 0.0613 0.10884 0.08069 0.0
H230 H 0.08307 0.17092 0.10738 0.0
H231 H 0.06581 0.2299 0.12456 0.0
H232 H 0.91877 0.22539 0.11402 0.0
H233 H 0.89646 0.16317 0.08734 0.0
C234 C 0.95467 0.12329 0.07559 0.0
C235 C 0.98877 0.1052 0.07146 0.0
C236 C 0.9668 0.15876 0.09122 0.0
C237 C 0.03417 0.12185 0.08358 0.0
C238 C 0.04694 0.15773 0.09876 0.0
C239 C 0.02803 0.21471 0.11706 0.0
C240 C 0.99447 0.23334 0.12157 0.0
C241 C 0.014 0.17702 0.10246 0.0
C242 C 0.94653 0.2134 0.11075 0.0
C243 C 0.93322 0.17708 0.09558 0.0
H244 H 0.91754 0.06832 0.39926 0.0
H245 H 0.83328 0.91576 0.38081 0.0
H246 H 0.76629 0.89883 0.40697 0.0
H247 H 0.7344 0.92649 0.43638 0.0
H248 H 0.82228 0.07818 0.45592 0.0
H249 H 0.88447 0.09635 0.42777 0.0
C250 C 0.88425 0.03142 0.40075 0.0
C251 C 0.88063 0.99335 0.38811 0.0
C252 C 0.8465 0.02174 0.41608 0.0
C253 C 0.83721 0.94576 0.39036 0.0
C254 C 0.79892 0.93601 0.40536 0.0
C255 C 0.76726 0.96349 0.43454 0.0
C256 C 0.77354 1.00082 0.44834 0.0
C257 C 0.8037 0.97355 0.41856 0.0
C258 C 0.81589 0.04879 0.44542 0.0
C259 C 0.8518 0.05919 0.4294 0.0
H260 H 0.90697 0.94023 0.75233 0.0
H261 H 0.93497 0.82976 0.72561 0.0
H262 H 0.88207 0.77168 0.75278 0.0
H263 H 0.82481 0.75106 0.78327 0.0
H264 H 0.79317 0.85991 0.80916 0.0
H265 H 0.84979 0.91958 0.78305 0.0
C266 C 0.90201 0.90365 0.75265 0.0
C267 C 0.92509 0.88938 0.73708 0.0
C268 C 0.87026 0.86993 0.76799 0.0
C269 C 0.91763 0.84161 0.73745 0.0
C270 C 0.88728 0.80834 0.75294 0.0
C271 C 0.83062 0.78796 0.78326 0.0
C272 C 0.80481 0.80104 0.7981 0.0
C273 C 0.86289 0.82189 0.76814 0.0
C274 C 0.81213 0.84878 0.79774 0.0
C275 C 0.84477 0.883 0.78291 0.0
H276 H 0.02144 0.94299 0.08322 0.0
H277 H 0.12428 0.91687 0.0445 0.0
H278 H 0.11612 0.85295 0.06842 0.0
H279 H 0.07355 0.79956 0.09885 0.0
H280 H 0.96935 0.82548 0.13681 0.0
H281 H 0.98383 0.89384 0.11457 0.0
C282 C 0.0428 0.92392 0.08015 0.0
C283 C 0.0733 0.93468 0.06205 0.0
C284 C 0.03692 0.88644 0.09367 0.0
C285 C 0.10051 0.90937 0.05832 0.0
C286 C 0.09562 0.87258 0.07193 0.0
C287 C 0.05449 0.82053 0.10235 0.0
C288 C 0.0197 0.80679 0.11928 0.0
C289 C 0.06293 0.85998 0.08941 0.0
C290 C 0.99528 0.83439 0.12359 0.0
C291 C 1.00385 0.8738 0.11097 0.0
H292 H 0.12042 0.96603 0.38015 0.0
H293 H 0.15946 0.11354 0.39664 0.0
H294 H 0.217 0.11479 0.42425 0.0
H295 H 0.24713 0.06975 0.44643 0.0
H296 H 0.20732 0.92219 0.42956 0.0
H297 H 0.1591 0.92521 0.39942 0.0
C298 C 0.14209 0.99876 0.38958 0.0
C299 C 0.13505 0.03933 0.38653 0.0
C300 C 0.17442 0.99897 0.40556 0.0
C301 C 0.16403 0.08172 0.39869 0.0
C302 C 0.19669 0.08234 0.41458 0.0
C303 C 0.22887 0.0387 0.4359 0.0
C304 C 0.22992 0.99544 0.44048 0.0
C305 C 0.20089 0.04057 0.41858 0.0
C306 C 0.20599 0.95548 0.42668 0.0
C307 C 0.17857 0.95722 0.40939 0.0
H308 H 0.0936 0.10701 0.74917 0.0
H309 H 0.1116 0.2239 0.70865 0.0
H310 H 0.16528 0.2848 0.73472 0.0
H311 H 0.20946 0.3052 0.76856 0.0
H312 H 0.19154 0.1885 0.80917 0.0
H313 H 0.13645 0.12742 0.78338 0.0
C314 C 0.10887 0.14578 0.74612 0.0
C315 C 0.09846 0.1608 0.72699 0.0
C316 C 0.14037 0.18076 0.76109 0.0
C317 C 0.11895 0.21125 0.72324 0.0
C318 C 0.1498 0.24617 0.73812 0.0
C319 C 0.19318 0.26639 0.77185 0.0
C320 C 0.20491 0.25159 0.79077 0.0
C321 C 0.16114 0.23138 0.75702 0.0
C322 C 0.18398 0.20109 0.79461 0.0
C323 C 0.15205 0.16605 0.77994 0.0
H324 H 0.90207 0.07252 0.64854 0.0
H325 H 0.85502 0.91838 0.64844 0.0
H326 H 0.78961 0.90248 0.622 0.0
H327 H 0.7507 0.93281 0.59704 0.0
H328 H 0.79432 0.08601 0.59741 0.0
H329 H 0.8568 0.10176 0.62537 0.0
C330 C 0.87712 0.03536 0.64291 0.0
C331 C 0.88393 0.99685 0.65039 0.0
C332 C 0.83944 0.02632 0.62755 0.0
C333 C 0.851 0.94887 0.64294 0.0
C334 C 0.81357 0.93967 0.62775 0.0
C335 C 0.77278 0.96951 0.6035 0.0
C336 C 0.76769 1.00812 0.59498 0.0
C337 C 0.80811 0.97821 0.61969 0.0
C338 C 0.7979 0.05563 0.60336 0.0
C339 C 0.83347 0.06466 0.61946 0.0
H340 H 0.84544 0.92047 0.98758 0.0
H341 H 0.9614 0.8757 0.9822 0.0
H342 H 0.90547 0.8108 0.95827 0.0
H343 H 0.82766 0.77101 0.93669 0.0
H344 H 0.70969 0.81307 0.94173 0.0
H345 H 0.76264 0.87492 0.96776 0.0
C346 C 0.85815 0.89615 0.98135 0.0
C347 C 0.90791 0.9035 0.98656 0.0
C348 C 0.82574 0.85867 0.96734 0.0
C349 C 0.92364 0.87146 0.97835 0.0
C350 C 0.89165 0.83417 0.96462 0.0
C351 C 0.81266 0.79271 0.94381 0.0
C352 C 0.7647 0.78728 0.93715 0.0
C353 C 0.84314 0.82803 0.95872 0.0
C354 C 0.7468 0.81682 0.9463 0.0
C355 C 0.77699 0.85212 0.96127 0.0
H356 H 0.01682 0.92988 0.28548 0.0
H357 H 0.92184 0.81299 0.32831 0.0
H358 H 0.91715 0.75215 0.30356 0.0
H359 H 0.94221 0.73209 0.27012 0.0
H360 H 0.03894 0.84905 0.22763 0.0
H361 H 0.04134 0.90973 0.25191 0.0
C362 C 0.99469 0.89106 0.2893 0.0
C363 C 0.96959 0.87603 0.30868 0.0
C364 C 0.99299 0.85623 0.27514 0.0
C365 C 0.94157 0.8256 0.3135 0.0
C366 C 0.93892 0.79073 0.29936 0.0
C367 C 0.96358 0.77084 0.26615 0.0
C368 C 0.9906 0.78597 0.24714 0.0
C369 C 0.96486 0.80563 0.28021 0.0
C370 C 0.01852 0.83642 0.24231 0.0
C371 C 0.01959 0.87116 0.25612 0.0
H372 H 0.13478 0.07682 0.63208 0.0
H373 H 0.12767 0.95851 0.66859 0.0
H374 H 0.18336 0.94847 0.64328 0.0
H375 H 0.22852 0.96934 0.6096 0.0
H376 H 0.22789 0.08253 0.57175 0.0
H377 H 0.18213 0.09937 0.59906 0.0
C378 C 0.14602 0.0493 0.6347 0.0
C379 C 0.12697 0.01838 0.65219 0.0
C380 C 0.17667 0.04276 0.6198 0.0
C381 C 0.14162 0.98266 0.65522 0.0
C382 C 0.17338 0.97685 0.64073 0.0
C383 C 0.21822 0.99757 0.60724 0.0
C384 C 0.2316 0.02435 0.58849 0.0
C385 C 0.19009 1.00593 0.62272 0.0
C386 C 0.21894 0.06166 0.58604 0.0
C387 C 0.19222 0.07106 0.6016 0.0
H388 H 0.16619 0.11302 0.97323 0.0
H389 H 0.08655 0.18731 0.99571 0.0
H390 H 0.13772 0.25601 0.97222 0.0
H391 H 0.20044 0.2923 0.94373 0.0
H392 H 0.27383 0.21433 0.91868 0.0
H393 H 0.23108 0.15075 0.94506 0.0
C394 C 0.16069 0.14462 0.97317 0.0
C395 C 0.12264 0.14511 0.98612 0.0
C396 C 0.18911 0.18338 0.95913 0.0
C397 C 0.11542 0.18599 0.98576 0.0
C398 C 0.14464 0.22527 0.97234 0.0
C399 C 0.20697 0.26133 0.94392 0.0
C400 C 0.24018 0.25825 0.92906 0.0
C401 C 0.18072 0.22385 0.95863 0.0
C402 C 0.24909 0.21829 0.93001 0.0
C403 C 0.22421 0.18151 0.945 0.0
H404 H 0.06509 0.21511 0.32448 0.0
H405 H 1.00171 0.08791 0.28445 0.0
H406 H 0.99724 0.13663 0.2558 0.0
H407 H 0.01089 0.2153 0.24213 0.0
H408 H 0.0757 0.34271 0.28192 0.0
H409 H 0.07994 0.29392 0.3107 0.0
C410 C 0.05048 0.19802 0.30947 0.0
C411 C 0.03374 0.14787 0.30665 0.0
C412 C 0.04798 0.22624 0.29306 0.0
C413 C 0.01499 0.12643 0.28707 0.0
C414 C 0.01223 0.15423 0.27068 0.0
C415 C 0.02538 0.23218 0.25719 0.0
C416 C 0.04252 0.2824 0.25999 0.0
C417 C 0.02832 0.20407 0.27354 0.0
C418 C 0.0623 0.30413 0.27942 0.0
C419 C 0.06472 0.27626 0.29585 0.0
loop_
_geom_bond_atom_site_label_1
_geom_bond_atom_site_label_2
_geom_bond_distance
_geom_bond_site_symmetry_2
_ccdc_geom_bond_type
O0 Cd1 2.223 1_456 S
O0 C8 1.315 . S
Cd1 O0 2.223 1_654 S
Cd1 O4 2.297 . S
Cd1 O5 2.439 . S
Cd1 O11 2.240 1_545 S
Cd2 O3 2.240 1_565 S
Cd2 O10 2.223 1_454 S
Cd2 O12 2.297 . S
Cd2 O13 2.439 . S
O3 Cd2 2.240 1_545 S
O3 C8 1.279 1_554 S
O4 Cd1 2.297 . S
O4 C6 1.247 . S
O5 Cd1 2.439 . S
O5 C6 1.208 . S
C6 O4 1.247 . S
C6 O5 1.208 . S
C7 O12 1.247 . S
C7 O13 1.208 . S
C8 O0 1.315 . S
C8 O3 1.279 1_556 S
C9 O10 1.315 . S
C9 O11 1.279 1_556 S
O10 Cd2 2.223 1_656 S
O10 C9 1.315 . S
O11 Cd1 2.240 1_565 S
O11 C9 1.279 1_554 S
O12 Cd2 2.297 . S
O12 C7 1.247 . S
O13 Cd2 2.439 . S
O13 C7 1.208 . S
O14 Cd15 2.223 1_655 S
O14 C22 1.315 . S
Cd15 O14 2.223 1_455 S
Cd15 O18 2.297 . S
Cd15 O19 2.439 . S
Cd15 O25 2.240 . S
Cd16 O17 2.240 . S
Cd16 O24 2.223 1_655 S
Cd16 O26 2.297 . S
Cd16 O27 2.439 . S
O17 Cd16 2.240 . S
O17 C22 1.279 1_565 S
O18 Cd15 2.297 . S
O18 C20 1.247 . S
O19 Cd15 2.439 . S
O19 C20 1.208 . S
C20 O18 1.247 . S
C20 O19 1.208 . S
C21 O26 1.247 . S
C21 O27 1.208 . S
C22 O14 1.315 . S
C22 O17 1.279 1_545 S
C23 O24 1.315 . S
C23 O25 1.279 1_565 S
O24 Cd16 2.223 1_455 S
O24 C23 1.315 . S
O25 Cd15 2.240 . S
O25 C23 1.279 1_545 S
O26 Cd16 2.297 . S
O26 C21 1.247 . S
O27 Cd16 2.439 . S
O27 C21 1.208 . S
O28 Cd29 2.223 . S
O28 C36 1.315 . S
Cd29 O28 2.223 . S
Cd29 O32 2.297 . S
Cd29 O33 2.439 . S
Cd29 O39 2.240 1_655 S
Cd30 O31 2.240 1_455 S
Cd30 O38 2.223 . S
Cd30 O40 2.297 . S
Cd30 O41 2.439 . S
O31 Cd30 2.240 1_655 S
O31 C36 1.279 1_545 S
O32 Cd29 2.297 . S
O32 C34 1.247 . S
O33 Cd29 2.439 . S
O33 C34 1.208 . S
C34 O32 1.247 . S
C34 O33 1.208 . S
C35 O40 1.247 . S
C35 O41 1.208 . S
C36 O28 1.315 . S
C36 O31 1.279 1_565 S
C37 O38 1.315 . S
C37 O39 1.279 1_545 S
O38 Cd30 2.223 . S
O38 C37 1.315 . S
O39 Cd29 2.240 1_455 S
O39 C37 1.279 1_565 S
O40 Cd30 2.297 . S
O40 C35 1.247 . S
O41 Cd30 2.439 . S
O41 C35 1.208 . S
H42 C69 0.929 . S
N43 C68 1.433 . S
N43 C74 1.435 . S
N43 C80 1.423 . S
H44 C70 0.930 . S
H45 C73 0.931 . S
H46 C72 0.929 . S
H47 C75 0.930 . S
H48 C76 0.932 . S
H49 C79 0.929 . S
H50 C78 0.931 . S
H51 C81 0.929 . S
H52 C85 0.932 1_455 S
H53 C82 0.931 . S
H54 C84 0.929 1_455 S
H55 C87 0.929 . S
H56 C88 0.930 . S
H57 C90 0.929 . S
H58 C91 0.931 . S
H59 C93 0.930 . S
H60 C94 0.932 . S
H61 C96 0.931 . S
H62 C97 0.929 . S
H63 C99 0.929 . S
H64 C100 0.931 . S
H65 C102 0.929 1_455 S
N66 C86 1.433 . S
N66 C92 1.435 . S
N66 C98 1.423 . S
H67 C103 0.932 1_455 S
C68 N43 1.433 . S
C68 C69 1.363 . S
C68 C73 1.370 1_655 S
C69 H42 0.929 . S
C69 C68 1.363 . S
C69 C70 1.385 . S
C70 H44 0.930 . S
C70 C69 1.385 . S
C70 C71 1.357 . S
C71 C70 1.357 . S
C71 C72 1.406 1_655 S
C72 H46 0.929 . S
C72 C71 1.406 1_455 S
C72 C73 1.391 . S
C73 H45 0.931 . S
C73 C68 1.370 1_455 S
C73 C72 1.391 . S
C74 N43 1.435 . S
C74 C75 1.358 1_655 S
C74 C79 1.371 . S
C75 H47 0.930 . S
C75 C74 1.358 1_455 S
C75 C76 1.405 . S
C76 H48 0.932 . S
C76 C75 1.405 . S
C76 C77 1.383 1_455 S
C77 C76 1.383 1_655 S
C77 C78 1.393 . S
C78 H50 0.931 . S
C78 C77 1.393 . S
C78 C79 1.382 . S
C79 H49 0.929 . S
C79 C74 1.371 . S
C79 C78 1.382 . S
C80 N43 1.423 . S
C80 C81 1.362 . S
C80 C85 1.388 . S
C81 H51 0.929 . S
C81 C80 1.362 . S
C81 C82 1.376 . S
C82 H53 0.931 . S
C82 C81 1.376 . S
C82 C83 1.396 . S
C83 C82 1.396 . S
C83 C84 1.348 . S
C83 C101 1.472 . S
C84 H54 0.929 1_655 S
C84 C83 1.348 . S
C84 C85 1.443 . S
C85 H52 0.932 1_655 S
C85 C80 1.388 . S
C85 C84 1.443 . S
C86 N66 1.433 . S
C86 C87 1.363 . S
C86 C91 1.370 1_655 S
C87 H55 0.929 . S
C87 C86 1.363 . S
C87 C88 1.385 . S
C88 H56 0.930 . S
C88 C87 1.385 . S
C88 C89 1.357 . S
C89 C88 1.357 . S
C89 C90 1.406 1_655 S
C90 H57 0.929 . S
C90 C89 1.406 1_455 S
C90 C91 1.391 . S
C91 H58 0.931 . S
C91 C86 1.370 1_455 S
C91 C90 1.391 . S
C92 N66 1.435 . S
C92 C93 1.358 1_655 S
C92 C97 1.371 . S
C93 H59 0.930 . S
C93 C92 1.358 1_455 S
C93 C94 1.405 . S
C94 H60 0.932 . S
C94 C93 1.405 . S
C94 C95 1.383 1_455 S
C95 C94 1.383 1_655 S
C95 C96 1.393 . S
C96 H61 0.931 . S
C96 C95 1.393 . S
C96 C97 1.382 . S
C97 H62 0.929 . S
C97 C92 1.371 . S
C97 C96 1.382 . S
C98 N66 1.423 . S
C98 C99 1.362 . S
C98 C103 1.388 . S
C99 H63 0.929 . S
C99 C98 1.362 . S
C99 C100 1.376 . S
C100 H64 0.931 . S
C100 C99 1.376 . S
C100 C101 1.396 . S
C101 C83 1.472 . S
C101 C100 1.396 . S
C101 C102 1.348 . S
C102 H65 0.929 1_655 S
C102 C101 1.348 . S
C102 C103 1.443 . S
C103 H67 0.932 1_655 S
C103 C98 1.388 . S
C103 C102 1.443 . S
H104 C131 0.929 . S
N105 C130 1.433 . S
N105 C136 1.435 . S
N105 C142 1.423 . S
H106 C132 0.930 . S
H107 C135 0.931 . S
H108 C134 0.929 . S
H109 C137 0.930 . S
H110 C138 0.932 . S
H111 C141 0.929 . S
H112 C140 0.931 . S
H113 C143 0.929 . S
H114 C147 0.932 1_565 S
H115 C144 0.931 . S
H116 C146 0.929 1_565 S
H117 C149 0.929 . S
H118 C150 0.930 . S
H119 C152 0.929 . S
H120 C153 0.931 . S
H121 C155 0.930 . S
H122 C156 0.932 . S
H123 C158 0.931 . S
H124 C159 0.929 . S
H125 C161 0.929 . S
H126 C162 0.931 . S
H127 C164 0.929 1_565 S
N128 C148 1.433 . S
N128 C154 1.435 . S
N128 C160 1.423 . S
H129 C165 0.932 1_565 S
C130 N105 1.433 . S
C130 C131 1.363 . S
C130 C135 1.370 1_545 S
C131 H104 0.929 . S
C131 C130 1.363 . S
C131 C132 1.385 . S
C132 H106 0.930 . S
C132 C131 1.385 . S
C132 C133 1.357 . S
C133 C132 1.357 . S
C133 C134 1.406 1_545 S
C134 H108 0.929 . S
C134 C133 1.406 1_565 S
C134 C135 1.391 . S
C135 H107 0.931 . S
C135 C130 1.370 1_565 S
C135 C134 1.391 . S
C136 N105 1.435 . S
C136 C137 1.358 1_545 S
C136 C141 1.371 . S
C137 H109 0.930 . S
C137 C136 1.358 1_565 S
C137 C138 1.405 . S
C138 H110 0.932 . S
C138 C137 1.405 . S
C138 C139 1.383 1_565 S
C139 C138 1.383 1_545 S
C139 C140 1.393 . S
C140 H112 0.931 . S
C140 C139 1.393 . S
C140 C141 1.382 . S
C141 H111 0.929 . S
C141 C136 1.371 . S
C141 C140 1.382 . S
C142 N105 1.423 . S
C142 C143 1.362 . S
C142 C147 1.388 . S
C143 H113 0.929 . S
C143 C142 1.362 . S
C143 C144 1.376 . S
C144 H115 0.931 . S
C144 C143 1.376 . S
C144 C145 1.396 . S
C145 C144 1.396 . S
C145 C146 1.348 . S
C145 C163 1.472 . S
C146 H116 0.929 1_545 S
C146 C145 1.348 . S
C146 C147 1.443 . S
C147 H114 0.932 1_545 S
C147 C142 1.388 . S
C147 C146 1.443 . S
C148 N128 1.433 . S
C148 C149 1.363 . S
C148 C153 1.370 1_545 S
C149 H117 0.929 . S
C149 C148 1.363 . S
C149 C150 1.385 . S
C150 H118 0.930 . S
C150 C149 1.385 . S
C150 C151 1.357 . S
C151 C150 1.357 . S
C151 C152 1.406 1_545 S
C152 H119 0.929 . S
C152 C151 1.406 1_565 S
C152 C153 1.391 . S
C153 H120 0.931 . S
C153 C148 1.370 1_565 S
C153 C152 1.391 . S
C154 N128 1.435 . S
C154 C155 1.358 1_545 S
C154 C159 1.371 . S
C155 H121 0.930 . S
C155 C154 1.358 1_565 S
C155 C156 1.405 . S
C156 H122 0.932 . S
C156 C155 1.405 . S
C156 C157 1.383 1_565 S
C157 C156 1.383 1_545 S
C157 C158 1.393 . S
C158 H123 0.931 . S
C158 C157 1.393 . S
C158 C159 1.382 . S
C159 H124 0.929 . S
C159 C154 1.371 . S
C159 C158 1.382 . S
C160 N128 1.423 . S
C160 C161 1.362 . S
C160 C165 1.388 . S
C161 H125 0.929 . S
C161 C160 1.362 . S
C161 C162 1.376 . S
C162 H126 0.931 . S
C162 C161 1.376 . S
C162 C163 1.396 . S
C163 C145 1.472 . S
C163 C162 1.396 . S
C163 C164 1.348 . S
C164 H127 0.929 1_545 S
C164 C163 1.348 . S
C164 C165 1.443 . S
C165 H129 0.932 1_545 S
C165 C160 1.388 . S
C165 C164 1.443 . S
H166 C193 0.929 . S
N167 C192 1.433 . S
N167 C198 1.435 . S
N167 C204 1.423 . S
H168 C194 0.930 . S
H169 C197 0.931 . S
H170 C196 0.929 . S
H171 C199 0.930 . S
H172 C200 0.932 . S
H173 C203 0.929 . S
H174 C202 0.931 . S
H175 C205 0.929 . S
H176 C209 0.932 . S
H177 C206 0.931 . S
H178 C208 0.929 . S
H179 C211 0.929 . S
H180 C212 0.930 . S
H181 C214 0.929 . S
H182 C215 0.931 . S
H183 C217 0.930 . S
H184 C218 0.932 . S
H185 C220 0.931 . S
H186 C221 0.929 . S
H187 C223 0.929 . S
H188 C224 0.931 . S
H189 C226 0.929 . S
N190 C210 1.433 . S
N190 C216 1.435 . S
N190 C222 1.423 . S
H191 C227 0.932 . S
C192 N167 1.433 . S
C192 C193 1.363 . S
C192 C197 1.370 . S
C193 H166 0.929 . S
C193 C192 1.363 . S
C193 C194 1.385 . S
C194 H168 0.930 . S
C194 C193 1.385 . S
C194 C195 1.357 . S
C195 C194 1.357 . S
C195 C196 1.406 . S
C196 H170 0.929 . S
C196 C195 1.406 . S
C196 C197 1.391 . S
C197 H169 0.931 . S
C197 C192 1.370 . S
C197 C196 1.391 . S
C198 N167 1.435 . S
C198 C199 1.358 . S
C198 C203 1.371 . S
C199 H171 0.930 . S
C199 C198 1.358 . S
C199 C200 1.405 . S
C200 H172 0.932 . S
C200 C199 1.405 . S
C200 C201 1.383 . S
C201 C200 1.383 . S
C201 C202 1.393 . S
C202 H174 0.931 . S
C202 C201 1.393 . S
C202 C203 1.382 . S
C203 H173 0.929 . S
C203 C198 1.371 . S
C203 C202 1.382 . S
C204 N167 1.423 . S
C204 C205 1.362 . S
C204 C209 1.388 . S
C205 H175 0.929 . S
C205 C204 1.362 . S
C205 C206 1.376 . S
C206 H177 0.931 . S
C206 C205 1.376 . S
C206 C207 1.396 . S
C207 C206 1.396 . S
C207 C208 1.348 . S
C207 C225 1.472 . S
C208 H178 0.929 . S
C208 C207 1.348 . S
C208 C209 1.443 . S
C209 H176 0.932 . S
C209 C204 1.388 . S
C209 C208 1.443 . S
C210 N190 1.433 . S
C210 C211 1.363 . S
C210 C215 1.370 . S
C211 H179 0.929 . S
C211 C210 1.363 . S
C211 C212 1.385 . S
C212 H180 0.930 . S
C212 C211 1.385 . S
C212 C213 1.357 . S
C213 C212 1.357 . S
C213 C214 1.406 . S
C214 H181 0.929 . S
C214 C213 1.406 . S
C214 C215 1.391 . S
C215 H182 0.931 . S
C215 C210 1.370 . S
C215 C214 1.391 . S
C216 N190 1.435 . S
C216 C217 1.358 . S
C216 C221 1.371 . S
C217 H183 0.930 . S
C217 C216 1.358 . S
C217 C218 1.405 . S
C218 H184 0.932 . S
C218 C217 1.405 . S
C218 C219 1.383 . S
C219 C218 1.383 . S
C219 C220 1.393 . S
C220 H185 0.931 . S
C220 C219 1.393 . S
C220 C221 1.382 . S
C221 H186 0.929 . S
C221 C216 1.371 . S
C221 C220 1.382 . S
C222 N190 1.423 . S
C222 C223 1.362 . S
C222 C227 1.388 . S
C223 H187 0.929 . S
C223 C222 1.362 . S
C223 C224 1.376 . S
C224 H188 0.931 . S
C224 C223 1.376 . S
C224 C225 1.396 . S
C225 C207 1.472 . S
C225 C224 1.396 . S
C225 C226 1.348 . S
C226 H189 0.929 . S
C226 C225 1.348 . S
C226 C227 1.443 . S
C227 H191 0.932 . S
C227 C222 1.388 . S
C227 C226 1.443 . S
H228 C234 0.930 . S
H229 C237 0.930 . S
H230 C238 0.930 . S
H231 C239 0.930 . S
H232 C242 0.930 . S
H233 C243 0.930 . S
C234 H228 0.930 . S
C234 C235 1.355 1_655 S
C234 C236 1.415 . S
C235 C234 1.355 1_455 S
C235 C237 1.419 . S
C236 C234 1.415 . S
C236 C241 1.425 1_655 S
C236 C243 1.409 . S
C237 H229 0.930 . S
C237 C235 1.419 . S
C237 C238 1.362 . S
C238 H230 0.930 . S
C238 C237 1.362 . S
C238 C241 1.409 . S
C239 H231 0.930 . S
C239 C240 1.355 1_455 S
C239 C241 1.415 . S
C240 C239 1.355 1_655 S
C240 C242 1.419 . S
C241 C236 1.425 1_455 S
C241 C238 1.409 . S
C241 C239 1.415 . S
C242 H232 0.930 . S
C242 C240 1.419 . S
C242 C243 1.362 . S
C243 H233 0.930 . S
C243 C236 1.409 . S
C243 C242 1.362 . S
H244 C250 0.930 . S
H245 C253 0.930 . S
H246 C254 0.930 . S
H247 C255 0.930 . S
H248 C258 0.930 . S
H249 C259 0.930 . S
C250 H244 0.930 . S
C250 C251 1.355 1_545 S
C250 C252 1.415 . S
C251 C250 1.355 1_565 S
C251 C253 1.419 . S
C252 C250 1.415 . S
C252 C257 1.425 1_545 S
C252 C259 1.409 . S
C253 H245 0.930 . S
C253 C251 1.419 . S
C253 C254 1.362 . S
C254 H246 0.930 . S
C254 C253 1.362 . S
C254 C257 1.409 . S
C255 H247 0.930 . S
C255 C256 1.355 1_565 S
C255 C257 1.415 . S
C256 C255 1.355 1_545 S
C256 C258 1.419 . S
C257 C252 1.425 1_565 S
C257 C254 1.409 . S
C257 C255 1.415 . S
C258 H248 0.930 . S
C258 C256 1.419 . S
C258 C259 1.362 . S
C259 H249 0.930 . S
C259 C252 1.409 . S
C259 C258 1.362 . S
H260 C266 0.930 . S
H261 C269 0.930 . S
H262 C270 0.930 . S
H263 C271 0.930 . S
H264 C274 0.930 . S
H265 C275 0.930 . S
C266 H260 0.930 . S
C266 C267 1.355 . S
C266 C268 1.415 . S
C267 C266 1.355 . S
C267 C269 1.419 . S
C268 C266 1.415 . S
C268 C273 1.425 . S
C268 C275 1.409 . S
C269 H261 0.930 . S
C269 C267 1.419 . S
C269 C270 1.362 . S
C270 H262 0.930 . S
C270 C269 1.362 . S
C270 C273 1.409 . S
C271 H263 0.930 . S
C271 C272 1.355 . S
C271 C273 1.415 . S
C272 C271 1.355 . S
C272 C274 1.419 . S
C273 C268 1.425 . S
C273 C270 1.409 . S
C273 C271 1.415 . S
C274 H264 0.930 . S
C274 C272 1.419 . S
C274 C275 1.362 . S
C275 H265 0.930 . S
C275 C268 1.409 . S
C275 C274 1.362 . S
H276 C282 0.930 . S
H277 C285 0.930 . S
H278 C286 0.930 . S
H279 C287 0.930 . S
H280 C290 0.930 . S
H281 C291 0.930 . S
C282 H276 0.930 . S
C282 C283 1.355 1_655 S
C282 C284 1.415 . S
C283 C282 1.355 1_455 S
C283 C285 1.419 . S
C284 C282 1.415 . S
C284 C289 1.425 1_655 S
C284 C291 1.409 . S
C285 H277 0.930 . S
C285 C283 1.419 . S
C285 C286 1.362 . S
C286 H278 0.930 . S
C286 C285 1.362 . S
C286 C289 1.409 . S
C287 H279 0.930 . S
C287 C288 1.355 1_455 S
C287 C289 1.415 . S
C288 C287 1.355 1_655 S
C288 C290 1.419 . S
C289 C284 1.425 1_455 S
C289 C286 1.409 . S
C289 C287 1.415 . S
C290 H280 0.930 . S
C290 C288 1.419 . S
C290 C291 1.362 . S
C291 H281 0.930 . S
C291 C284 1.409 . S
C291 C290 1.362 . S
H292 C298 0.930 . S
H293 C301 0.930 . S
H294 C302 0.930 . S
H295 C303 0.930 . S
H296 C306 0.930 . S
H297 C307 0.930 . S
C298 H292 0.930 . S
C298 C299 1.355 . S
C298 C300 1.415 . S
C299 C298 1.355 . S
C299 C301 1.419 1_565 S
C300 C298 1.415 . S
C300 C305 1.425 1_565 S
C300 C307 1.409 . S
C301 H293 0.930 . S
C301 C299 1.419 1_545 S
C301 C302 1.362 . S
C302 H294 0.930 . S
C302 C301 1.362 . S
C302 C305 1.409 . S
C303 H295 0.930 . S
C303 C304 1.360 . S
C303 C305 1.415 . S
C304 C303 1.360 . S
C304 C306 1.416 1_545 S
C305 C300 1.425 1_545 S
C305 C302 1.409 . S
C305 C303 1.415 . S
C306 H296 0.930 . S
C306 C304 1.416 1_565 S
C306 C307 1.362 . S
C307 H297 0.930 . S
C307 C300 1.409 . S
C307 C306 1.362 . S
H308 C314 0.930 . S
H309 C317 0.930 . S
H310 C318 0.930 . S
H311 C319 0.930 . S
H312 C322 0.930 . S
H313 C323 0.930 . S
C314 H308 0.930 . S
C314 C315 1.355 . S
C314 C316 1.415 . S
C315 C314 1.355 . S
C315 C317 1.419 . S
C316 C314 1.415 . S
C316 C321 1.425 . S
C316 C323 1.409 . S
C317 H309 0.930 . S
C317 C315 1.419 . S
C317 C318 1.362 . S
C318 H310 0.930 . S
C318 C317 1.362 . S
C318 C321 1.409 . S
C319 H311 0.930 . S
C319 C320 1.355 . S
C319 C321 1.415 . S
C320 C319 1.355 . S
C320 C322 1.419 . S
C321 C316 1.425 . S
C321 C318 1.409 . S
C321 C319 1.415 . S
C322 H312 0.930 . S
C322 C320 1.419 . S
C322 C323 1.362 . S
C323 H313 0.930 . S
C323 C316 1.409 . S
C323 C322 1.362 . S
H324 C330 0.930 . S
H325 C333 0.930 . S
H326 C334 0.930 . S
H327 C335 0.930 . S
H328 C338 0.930 . S
H329 C339 0.930 . S
C330 H324 0.930 . S
C330 C331 1.355 1_545 S
C330 C332 1.415 . S
C331 C330 1.355 1_565 S
C331 C333 1.419 . S
C332 C330 1.415 . S
C332 C337 1.425 1_545 S
C332 C339 1.409 . S
C333 H325 0.930 . S
C333 C331 1.419 . S
C333 C334 1.362 . S
C334 H326 0.930 . S
C334 C333 1.362 . S
C334 C337 1.409 . S
C335 H327 0.930 . S
C335 C336 1.355 1_565 S
C335 C337 1.415 . S
C336 C335 1.355 1_545 S
C336 C338 1.419 . S
C337 C332 1.425 1_565 S
C337 C334 1.409 . S
C337 C335 1.415 . S
C338 H328 0.930 . S
C338 C336 1.419 . S
C338 C339 1.362 . S
C339 H329 0.930 . S
C339 C332 1.409 . S
C339 C338 1.362 . S
H340 C346 0.930 . S
H341 C349 0.930 . S
H342 C350 0.930 . S
H343 C351 0.930 . S
H344 C354 0.930 . S
H345 C355 0.930 . S
C346 H340 0.930 . S
C346 C347 1.355 . S
C346 C348 1.415 . S
C347 C346 1.355 . S
C347 C349 1.419 . S
C348 C346 1.415 . S
C348 C353 1.425 . S
C348 C355 1.409 . S
C349 H341 0.930 . S
C349 C347 1.419 . S
C349 C350 1.362 . S
C350 H342 0.930 . S
C350 C349 1.362 . S
C350 C353 1.409 . S
C351 H343 0.930 . S
C351 C352 1.355 . S
C351 C353 1.415 . S
C352 C351 1.355 . S
C352 C354 1.419 . S
C353 C348 1.425 . S
C353 C350 1.409 . S
C353 C351 1.415 . S
C354 H344 0.930 . S
C354 C352 1.419 . S
C354 C355 1.362 . S
C355 H345 0.930 . S
C355 C348 1.409 . S
C355 C354 1.362 . S
H356 C362 0.930 . S
H357 C365 0.930 . S
H358 C366 0.930 . S
H359 C367 0.930 . S
H360 C370 0.930 . S
H361 C371 0.930 . S
C362 H356 0.930 . S
C362 C363 1.346 1_455 S
C362 C364 1.415 . S
C363 C362 1.346 1_655 S
C363 C365 1.426 . S
C364 C362 1.415 . S
C364 C369 1.425 1_455 S
C364 C371 1.409 . S
C365 H357 0.930 . S
C365 C363 1.426 . S
C365 C366 1.362 . S
C366 H358 0.930 . S
C366 C365 1.362 . S
C366 C369 1.409 . S
C367 H359 0.930 . S
C367 C368 1.355 1_655 S
C367 C369 1.415 . S
C368 C367 1.355 1_455 S
C368 C370 1.419 . S
C369 C364 1.425 1_655 S
C369 C366 1.409 . S
C369 C367 1.415 . S
C370 H360 0.930 . S
C370 C368 1.419 . S
C370 C371 1.362 . S
C371 H361 0.930 . S
C371 C364 1.409 . S
C371 C370 1.362 . S
H372 C378 0.930 . S
H373 C381 0.930 . S
H374 C382 0.930 . S
H375 C383 0.930 . S
H376 C386 0.930 . S
H377 C387 0.930 . S
C378 H372 0.930 . S
C378 C379 1.355 . S
C378 C380 1.415 . S
C379 C378 1.355 . S
C379 C381 1.419 1_545 S
C380 C378 1.415 . S
C380 C385 1.424 1_545 S
C380 C387 1.409 . S
C381 H373 0.930 . S
C381 C379 1.419 1_565 S
C381 C382 1.362 . S
C382 H374 0.930 . S
C382 C381 1.362 . S
C382 C385 1.409 . S
C383 H375 0.930 . S
C383 C384 1.355 1_565 S
C383 C385 1.416 . S
C384 C383 1.355 1_545 S
C384 C386 1.419 . S
C385 C380 1.424 1_565 S
C385 C382 1.409 . S
C385 C383 1.416 . S
C386 H376 0.930 . S
C386 C384 1.419 . S
C386 C387 1.362 . S
C387 H377 0.930 . S
C387 C380 1.409 . S
C387 C386 1.362 . S
H388 C394 0.930 . S
H389 C397 0.930 . S
H390 C398 0.930 . S
H391 C399 0.930 . S
H392 C402 0.930 . S
H393 C403 0.930 . S
C394 H388 0.930 . S
C394 C395 1.355 . S
C394 C396 1.415 . S
C395 C394 1.355 . S
C395 C397 1.419 . S
C396 C394 1.415 . S
C396 C401 1.425 . S
C396 C403 1.409 . S
C397 H389 0.930 . S
C397 C395 1.419 . S
C397 C398 1.362 . S
C398 H390 0.930 . S
C398 C397 1.362 . S
C398 C401 1.409 . S
C399 H391 0.930 . S
C399 C400 1.355 . S
C399 C401 1.415 . S
C400 C399 1.355 . S
C400 C402 1.419 . S
C401 C396 1.425 . S
C401 C398 1.409 . S
C401 C399 1.415 . S
C402 H392 0.930 . S
C402 C400 1.419 . S
C402 C403 1.362 . S
C403 H393 0.930 . S
C403 C396 1.409 . S
C403 C402 1.362 . S
H404 C410 0.930 . S
H405 C413 0.930 . S
H406 C414 0.930 . S
H407 C415 0.930 . S
H408 C418 0.930 . S
H409 C419 0.930 . S
C410 H404 0.930 . S
C410 C411 1.335 1_655 S
C410 C412 1.415 . S
C411 C410 1.335 1_455 S
C411 C413 1.433 . S
C412 C410 1.415 . S
C412 C417 1.425 1_655 S
C412 C419 1.409 . S
C413 H405 0.930 . S
C413 C411 1.433 . S
C413 C414 1.362 . S
C414 H406 0.930 . S
C414 C413 1.362 . S
C414 C417 1.409 . S
C415 H407 0.930 . S
C415 C416 1.355 1_455 S
C415 C417 1.415 . S
C416 C415 1.355 1_655 S
C416 C418 1.419 . S
C417 C412 1.425 1_455 S
C417 C414 1.409 . S
C417 C415 1.415 . S
C418 H408 0.930 . S
C418 C416 1.419 . S
C418 C419 1.362 . S
C419 H409 0.930 . S
C419 C412 1.409 . S
C419 C418 1.362 . S
C240 C95 1.357 . S
C235 C6 1.374 1_455 S
C251 C22 1.567 1_565 S
C256 C139 1.556 . S
C267 C34 1.164 . S
C272 C201 1.184 . S
C283 C7 1.341 . S
C288 C77 1.358 . S
C304 C157 1.567 . S
C299 C23 1.542 . S
C315 C35 1.173 . S
C320 C219 1.188 . S
C336 C133 1.703 . S
C331 C36 1.774 . S
C347 C9 2.001 . S
C352 C195 1.919 . S
C368 C71 1.611 1_455 S
C363 C21 1.656 . S
C384 C151 1.668 . S
C379 C37 1.781 . S
C400 C213 1.962 . S
C395 C8 2.010 . S
C411 C20 1.655 . S
C416 C89 1.578 . S
