# Generated by pormake.
# Topology the, (3,8)-cn, num edge types: 1
# Building blocks:
#     Node 0, Type 0, BuildingBlock: KAKCAD_clean_linker_0, # of connection points: 3
#     Node 1, Type 0, BuildingBlock: KAKCAD_clean_linker_0, # of connection points: 3
#     Node 2, Type 0, BuildingBlock: KAKCAD_clean_linker_0, # of connection points: 3
#     Node 3, Type 0, BuildingBlock: KAKCAD_clean_linker_0, # of connection points: 3
#     Node 4, Type 0, BuildingBlock: KAKCAD_clean_linker_0, # of connection points: 3
#     Node 5, Type 0, BuildingBlock: KAKCAD_clean_linker_0, # of connection points: 3
#     Node 6, Type 0, BuildingBlock: KAKCAD_clean_linker_0, # of connection points: 3
#     Node 7, Type 0, BuildingBlock: KAKCAD_clean_linker_0, # of connection points: 3
#     Node 8, Type 1, BuildingBlock: GIZVER_clean_sbu_0, # of connection points: 8
#     Node 9, Type 1, BuildingBlock: GIZVER_clean_sbu_0, # of connection points: 8
#     Node 10, Type 1, BuildingBlock: GIZVER_clean_sbu_0, # of connection points: 8
#     Edge 11, Type (0, 1), BuildingBlock: ZUJKAS_clean_linker_0, # of connection points: 2
#     Edge 12, Type (0, 1), BuildingBlock: ZUJKAS_clean_linker_0, # of connection points: 2
#     Edge 13, Type (0, 1), BuildingBlock: ZUJKAS_clean_linker_0, # of connection points: 2
#     Edge 14, Type (0, 1), BuildingBlock: ZUJKAS_clean_linker_0, # of connection points: 2
#     Edge 15, Type (0, 1), BuildingBlock: ZUJKAS_clean_linker_0, # of connection points: 2
#     Edge 16, Type (0, 1), BuildingBlock: ZUJKAS_clean_linker_0, # of connection points: 2
#     Edge 17, Type (0, 1), BuildingBlock: ZUJKAS_clean_linker_0, # of connection points: 2
#     Edge 18, Type (0, 1), BuildingBlock: ZUJKAS_clean_linker_0, # of connection points: 2
#     Edge 19, Type (0, 1), BuildingBlock: ZUJKAS_clean_linker_0, # of connection points: 2
#     Edge 20, Type (0, 1), BuildingBlock: ZUJKAS_clean_linker_0, # of connection points: 2
#     Edge 21, Type (0, 1), BuildingBlock: ZUJKAS_clean_linker_0, # of connection points: 2
#     Edge 22, Type (0, 1), BuildingBlock: ZUJKAS_clean_linker_0, # of connection points: 2
#     Edge 23, Type (0, 1), BuildingBlock: ZUJKAS_clean_linker_0, # of connection points: 2
#     Edge 24, Type (0, 1), BuildingBlock: ZUJKAS_clean_linker_0, # of connection points: 2
#     Edge 25, Type (0, 1), BuildingBlock: ZUJKAS_clean_linker_0, # of connection points: 2
#     Edge 26, Type (0, 1), BuildingBlock: ZUJKAS_clean_linker_0, # of connection points: 2
#     Edge 27, Type (0, 1), BuildingBlock: ZUJKAS_clean_linker_0, # of connection points: 2
#     Edge 28, Type (0, 1), BuildingBlock: ZUJKAS_clean_linker_0, # of connection points: 2
#     Edge 29, Type (0, 1), BuildingBlock: ZUJKAS_clean_linker_0, # of connection points: 2
#     Edge 30, Type (0, 1), BuildingBlock: ZUJKAS_clean_linker_0, # of connection points: 2
#     Edge 31, Type (0, 1), BuildingBlock: ZUJKAS_clean_linker_0, # of connection points: 2
#     Edge 32, Type (0, 1), BuildingBlock: ZUJKAS_clean_linker_0, # of connection points: 2
#     Edge 33, Type (0, 1), BuildingBlock: ZUJKAS_clean_linker_0, # of connection points: 2
#     Edge 34, Type (0, 1), BuildingBlock: ZUJKAS_clean_linker_0, # of connection points: 2
# Relax obj value: 0.043
# Max RMSD: 0.140
# Mean RMSD: 0.063
data_MOF--net-the--node1-GIZVER_clean_sbu_0--node2-KAKCAD_clean_linker_0--edge1-ZUJKAS_clean_linker_0
_symmetry_space_group_name_H-M    P1
_symmetry_Int_Tables_number       1
_symmetry_cell_setting            triclinic
loop_
_symmetry_equiv_pos_as_xyz
'x, y, z'
_cell_length_a     61.793216
_cell_length_b     58.255833
_cell_length_c     54.135655
_cell_angle_alpha  87.151123
_cell_angle_beta   93.280674
_cell_angle_gamma 99.958508
loop_
_atom_site_label
_atom_site_type_symbol
_atom_site_fract_x
_atom_site_fract_y
_atom_site_fract_z
_atom_type_partial_charge
C0 C 0.34774 0.36183 0.29868 0.0
C1 C 0.34845 0.38607 0.29605 0.0
C2 C 0.33986 0.3495 0.32004 0.0
C3 C 0.33237 0.36114 0.33912 0.0
C4 C 0.33304 0.38538 0.33646 0.0
C5 C 0.34107 0.39773 0.31518 0.0
C6 C 0.32365 0.34807 0.36164 0.0
C7 C 0.33469 0.33124 0.3737 0.0
C8 C 0.32647 0.3189 0.39511 0.0
C9 C 0.30712 0.32379 0.40452 0.0
C10 C 0.29578 0.34046 0.39262 0.0
C11 C 0.30414 0.3524 0.37108 0.0
C12 C 0.27519 0.34536 0.40258 0.0
C13 C 0.26004 0.32735 0.41348 0.0
C14 C 0.27048 0.36819 0.4012 0.0
C15 C 0.251 0.3728 0.41004 0.0
C16 C 0.23606 0.35481 0.42091 0.0
C17 C 0.33764 0.30041 0.40728 0.0
C18 C 0.34603 0.28486 0.3929 0.0
C19 C 0.33923 0.29755 0.43326 0.0
C20 C 0.34858 0.27924 0.44456 0.0
C21 C 0.35674 0.26362 0.43011 0.0
C22 C 0.35552 0.26671 0.40419 0.0
C23 C 0.24074 0.3321 0.42281 0.0
H24 H 0.35354 0.35242 0.28434 0.0
H25 H 0.33936 0.3308 0.32151 0.0
H26 H 0.32753 0.39483 0.35096 0.0
H27 H 0.34129 0.41637 0.31359 0.0
H28 H 0.34993 0.32806 0.36665 0.0
H29 H 0.2952 0.36476 0.36122 0.0
H30 H 0.30079 0.31442 0.42108 0.0
H31 H 0.26288 0.30949 0.41446 0.0
H32 H 0.28192 0.38259 0.39347 0.0
H33 H 0.24767 0.39049 0.40864 0.0
H34 H 0.34471 0.28629 0.37287 0.0
H35 H 0.33324 0.30945 0.44488 0.0
H36 H 0.22926 0.318 0.43102 0.0
H37 H 0.36138 0.2547 0.39258 0.0
H38 H 0.34952 0.27737 0.46458 0.0
C39 C 0.75974 0.38313 0.34908 0.0
C40 C 0.77655 0.36987 0.3547 0.0
C41 C 0.73961 0.37304 0.33777 0.0
C42 C 0.73568 0.34937 0.3321 0.0
C43 C 0.75246 0.33613 0.33747 0.0
C44 C 0.77267 0.34628 0.34846 0.0
C45 C 0.71396 0.33828 0.32121 0.0
C46 C 0.70384 0.34896 0.30083 0.0
C47 C 0.68345 0.33826 0.29032 0.0
C48 C 0.67303 0.31692 0.30085 0.0
C49 C 0.68268 0.30613 0.32143 0.0
C50 C 0.70326 0.31689 0.33134 0.0
C51 C 0.67111 0.28376 0.33263 0.0
C52 C 0.6482 0.28004 0.335 0.0
C53 C 0.68278 0.26589 0.34089 0.0
C54 C 0.67179 0.24482 0.3511 0.0
C55 C 0.64885 0.24106 0.35331 0.0
C56 C 0.67284 0.34913 0.26836 0.0
C57 C 0.67234 0.37322 0.26676 0.0
C58 C 0.66238 0.33524 0.24916 0.0
C59 C 0.65113 0.34499 0.22929 0.0
C60 C 0.65005 0.36893 0.22802 0.0
C61 C 0.66107 0.383 0.24681 0.0
C62 C 0.63722 0.25898 0.34513 0.0
H63 H 0.76186 0.40121 0.35393 0.0
H64 H 0.7269 0.3836 0.33407 0.0
H65 H 0.74999 0.31791 0.33301 0.0
H66 H 0.78529 0.33557 0.35193 0.0
H67 H 0.71217 0.36527 0.29273 0.0
H68 H 0.71072 0.30896 0.34745 0.0
H69 H 0.65725 0.30867 0.29297 0.0
H70 H 0.6387 0.2935 0.32917 0.0
H71 H 0.70039 0.26805 0.33916 0.0
H72 H 0.68134 0.23155 0.35747 0.0
H73 H 0.68006 0.38439 0.28131 0.0
H74 H 0.66284 0.31672 0.2495 0.0
H75 H 0.61953 0.25665 0.34624 0.0
H76 H 0.66042 0.40148 0.24652 0.0
H77 H 0.64324 0.33372 0.21489 0.0
C78 C 0.66409 0.6566 0.26022 0.0
C79 C 0.65488 0.66941 0.24088 0.0
C80 C 0.6757 0.66787 0.28037 0.0
C81 C 0.67841 0.69225 0.28175 0.0
C82 C 0.66926 0.7051 0.26239 0.0
C83 C 0.65769 0.69382 0.24215 0.0
C84 C 0.6907 0.7041 0.30339 0.0
C85 C 0.71013 0.697 0.31329 0.0
C86 C 0.72153 0.70734 0.33427 0.0
C87 C 0.71333 0.72532 0.34516 0.0
C88 C 0.694 0.73287 0.33549 0.0
C89 C 0.68282 0.72213 0.31456 0.0
C90 C 0.68533 0.75169 0.34751 0.0
C91 C 0.68592 0.75261 0.37347 0.0
C92 C 0.67639 0.76889 0.33315 0.0
C93 C 0.66826 0.78653 0.34445 0.0
C94 C 0.66887 0.78747 0.37041 0.0
C95 C 0.74174 0.69907 0.345 0.0
C96 C 0.7431 0.67518 0.34593 0.0
C97 C 0.75976 0.71488 0.35459 0.0
C98 C 0.77857 0.70697 0.36489 0.0
C99 C 0.7799 0.6831 0.36565 0.0
C100 C 0.76196 0.66732 0.35602 0.0
C101 C 0.67785 0.77028 0.38476 0.0
H102 H 0.66245 0.63782 0.25973 0.0
H103 H 0.68232 0.6574 0.29507 0.0
H104 H 0.6712 0.72392 0.26277 0.0
H105 H 0.65065 0.70419 0.22769 0.0
H106 H 0.7166 0.68358 0.30434 0.0
H107 H 0.66755 0.72728 0.30744 0.0
H108 H 0.72196 0.73337 0.36134 0.0
H109 H 0.69241 0.7395 0.38515 0.0
H110 H 0.67585 0.76887 0.31312 0.0
H111 H 0.66121 0.79927 0.33278 0.0
H112 H 0.72943 0.66243 0.33922 0.0
H113 H 0.75946 0.73343 0.35387 0.0
H114 H 0.67881 0.77055 0.40478 0.0
H115 H 0.76233 0.64877 0.35672 0.0
H116 H 0.79221 0.71958 0.37195 0.0
C117 C 0.321 0.65298 0.24579 0.0
C118 C 0.34342 0.65111 0.2475 0.0
C119 C 0.31199 0.66457 0.26365 0.0
C120 C 0.32516 0.67457 0.28372 0.0
C121 C 0.34764 0.6729 0.2853 0.0
C122 C 0.35665 0.66132 0.26742 0.0
C123 C 0.31538 0.68626 0.30317 0.0
C124 C 0.29458 0.67658 0.31181 0.0
C125 C 0.2853 0.68714 0.33043 0.0
C126 C 0.29693 0.7078 0.34032 0.0
C127 C 0.31766 0.7179 0.33186 0.0
C128 C 0.32682 0.70694 0.31339 0.0
C129 C 0.3297 0.7399 0.34238 0.0
C130 C 0.31874 0.7587 0.34552 0.0
C131 C 0.35213 0.74215 0.34966 0.0
C132 C 0.36328 0.76262 0.36017 0.0
C133 C 0.35234 0.78148 0.36343 0.0
C134 C 0.26364 0.67627 0.33988 0.0
C135 C 0.24572 0.66871 0.32337 0.0
C136 C 0.26086 0.673 0.36547 0.0
C137 C 0.24068 0.66205 0.37437 0.0
C138 C 0.22277 0.65445 0.35787 0.0
C139 C 0.22544 0.65807 0.33228 0.0
C140 C 0.32993 0.77926 0.35579 0.0
H141 H 0.3104 0.64566 0.23049 0.0
H142 H 0.2947 0.66586 0.26161 0.0
H143 H 0.3582 0.68008 0.30069 0.0
H144 H 0.37392 0.65993 0.26951 0.0
H145 H 0.28585 0.66034 0.3046 0.0
H146 H 0.34265 0.71485 0.30656 0.0
H147 H 0.28984 0.71601 0.3547 0.0
H148 H 0.30153 0.7576 0.33977 0.0
H149 H 0.36096 0.72786 0.34774 0.0
H150 H 0.3804 0.76344 0.36621 0.0
H151 H 0.24738 0.67113 0.30356 0.0
H152 H 0.27444 0.6785 0.37861 0.0
H153 H 0.32101 0.7935 0.35752 0.0
H154 H 0.21197 0.65224 0.31913 0.0
H155 H 0.23905 0.65962 0.39419 0.0
C156 C 0.24368 0.65194 0.6892 0.0
C157 C 0.24028 0.6519 0.66325 0.0
C158 C 0.26391 0.66219 0.70016 0.0
C159 C 0.2812 0.67279 0.68545 0.0
C160 C 0.27784 0.67275 0.65955 0.0
C161 C 0.2577 0.66239 0.64861 0.0
C162 C 0.30268 0.68394 0.69698 0.0
C163 C 0.31276 0.67277 0.71702 0.0
C164 C 0.33334 0.68296 0.7275 0.0
C165 C 0.34366 0.70471 0.71782 0.0
C166 C 0.33381 0.71629 0.69795 0.0
C167 C 0.31331 0.70571 0.68766 0.0
C168 C 0.34508 0.73932 0.68789 0.0
C169 C 0.35672 0.75602 0.70384 0.0
C170 C 0.34469 0.74464 0.66225 0.0
C171 C 0.35585 0.76595 0.65281 0.0
C172 C 0.36781 0.78248 0.66875 0.0
C173 C 0.34429 0.67094 0.7484 0.0
C174 C 0.3322 0.65965 0.76809 0.0
C175 C 0.36712 0.67114 0.74907 0.0
C176 C 0.37764 0.66072 0.76907 0.0
C177 C 0.36562 0.6497 0.78895 0.0
C178 C 0.34273 0.64918 0.78813 0.0
C179 C 0.36799 0.77725 0.6944 0.0
H180 H 0.2306 0.64434 0.70111 0.0
H181 H 0.26589 0.66216 0.72017 0.0
H182 H 0.29093 0.68043 0.64769 0.0
H183 H 0.25593 0.66228 0.6286 0.0
H184 H 0.3049 0.65577 0.72395 0.0
H185 H 0.30534 0.71466 0.67267 0.0
H186 H 0.35951 0.71263 0.72578 0.0
H187 H 0.35713 0.75273 0.72371 0.0
H188 H 0.33609 0.73215 0.64936 0.0
H189 H 0.35506 0.76945 0.63298 0.0
H190 H 0.31462 0.65929 0.76827 0.0
H191 H 0.37693 0.67936 0.73408 0.0
H192 H 0.3772 0.78937 0.70727 0.0
H193 H 0.33291 0.64061 0.80295 0.0
H194 H 0.3953 0.66171 0.76914 0.0
C195 C 0.33312 0.34394 0.7798 0.0
C196 C 0.35601 0.35186 0.78104 0.0
C197 C 0.32266 0.33305 0.75878 0.0
C198 C 0.33483 0.32952 0.73858 0.0
C199 C 0.35771 0.33704 0.7399 0.0
C200 C 0.36814 0.34818 0.76077 0.0
C201 C 0.32371 0.31861 0.71587 0.0
C202 C 0.30475 0.32608 0.70512 0.0
C203 C 0.29463 0.31669 0.68306 0.0
C204 C 0.30374 0.29954 0.67182 0.0
C205 C 0.32254 0.29146 0.68243 0.0
C206 C 0.33234 0.30119 0.70455 0.0
C207 C 0.33194 0.27305 0.67032 0.0
C208 C 0.31819 0.25537 0.65715 0.0
C209 C 0.35479 0.27303 0.67164 0.0
C210 C 0.36355 0.25582 0.66036 0.0
C211 C 0.34977 0.23851 0.64701 0.0
C212 C 0.27467 0.32497 0.6716 0.0
C213 C 0.25793 0.32926 0.6864 0.0
C214 C 0.27218 0.32861 0.64578 0.0
C215 C 0.25345 0.33633 0.63505 0.0
C216 C 0.23676 0.3407 0.64985 0.0
C217 C 0.23923 0.33707 0.67567 0.0
C218 C 0.32705 0.2385 0.64538 0.0
H219 H 0.32322 0.34602 0.79514 0.0
H220 H 0.30502 0.32721 0.7584 0.0
H221 H 0.36751 0.33486 0.72449 0.0
H222 H 0.38569 0.3544 0.76069 0.0
H223 H 0.2983 0.33983 0.71352 0.0
H224 H 0.34653 0.29495 0.71336 0.0
H225 H 0.29612 0.29252 0.65468 0.0
H226 H 0.30051 0.25432 0.6561 0.0
H227 H 0.36605 0.28652 0.68105 0.0
H228 H 0.38118 0.25627 0.66168 0.0
H229 H 0.25913 0.32631 0.70631 0.0
H230 H 0.2849 0.32588 0.63383 0.0
H231 H 0.3161 0.22517 0.63535 0.0
H232 H 0.22656 0.33998 0.68759 0.0
H233 H 0.25224 0.33932 0.61515 0.0
C234 C 0.68602 0.24412 0.66653 0.0
C235 C 0.66362 0.24151 0.65877 0.0
C236 C 0.69687 0.26485 0.67679 0.0
C237 C 0.68556 0.28341 0.67979 0.0
C238 C 0.66313 0.28073 0.67238 0.0
C239 C 0.65232 0.26011 0.6619 0.0
C240 C 0.6972 0.30572 0.69002 0.0
C241 C 0.71784 0.31615 0.68152 0.0
C242 C 0.72848 0.33776 0.69015 0.0
C243 C 0.71847 0.34876 0.70781 0.0
C244 C 0.69807 0.33844 0.71702 0.0
C245 C 0.68749 0.31695 0.70783 0.0
C246 C 0.68792 0.35022 0.73613 0.0
C247 C 0.70104 0.36194 0.75528 0.0
C248 C 0.66512 0.35019 0.73521 0.0
C249 C 0.65574 0.36173 0.75283 0.0
C250 C 0.66892 0.37372 0.77179 0.0
C251 C 0.74988 0.34916 0.68045 0.0
C252 C 0.76722 0.33658 0.67907 0.0
C253 C 0.75319 0.37286 0.6728 0.0
C254 C 0.77341 0.38379 0.66404 0.0
C255 C 0.79086 0.37133 0.66298 0.0
C256 C 0.78757 0.34761 0.67059 0.0
C257 C 0.69169 0.37358 0.7728 0.0
H258 H 0.6952 0.23009 0.66486 0.0
H259 H 0.71411 0.26629 0.68259 0.0
H260 H 0.65403 0.29484 0.67412 0.0
H261 H 0.63521 0.25901 0.65575 0.0
H262 H 0.72528 0.30785 0.66749 0.0
H263 H 0.67188 0.30865 0.71491 0.0
H264 H 0.72663 0.36551 0.71434 0.0
H265 H 0.71861 0.36207 0.75683 0.0
H266 H 0.6545 0.34155 0.72063 0.0
H267 H 0.63811 0.36114 0.75164 0.0
H268 H 0.76516 0.31832 0.68496 0.0
H269 H 0.74007 0.38294 0.67346 0.0
H270 H 0.70243 0.38279 0.78693 0.0
H271 H 0.80068 0.33753 0.66981 0.0
H272 H 0.7755 0.40213 0.65848 0.0
C273 C 0.65369 0.63416 0.70777 0.0
C274 C 0.66833 0.62732 0.72645 0.0
C275 C 0.66162 0.64679 0.68658 0.0
C276 C 0.68436 0.65297 0.68362 0.0
C277 C 0.69897 0.64591 0.70219 0.0
C278 C 0.69106 0.63316 0.72327 0.0
C279 C 0.69294 0.66702 0.66149 0.0
C280 C 0.68291 0.68562 0.65168 0.0
C281 C 0.69168 0.69958 0.6315 0.0
C282 C 0.7106 0.69477 0.62109 0.0
C283 C 0.72081 0.6763 0.63062 0.0
C284 C 0.71174 0.66236 0.65061 0.0
C285 C 0.74135 0.67202 0.62022 0.0
C286 C 0.74374 0.67324 0.5945 0.0
C287 C 0.75887 0.66704 0.63609 0.0
C288 C 0.7783 0.66315 0.62647 0.0
C289 C 0.78065 0.66419 0.60076 0.0
C290 C 0.6815 0.7196 0.62162 0.0
C291 C 0.65859 0.71726 0.61753 0.0
C292 C 0.69473 0.74116 0.61596 0.0
C293 C 0.68527 0.75997 0.60632 0.0
C294 C 0.66236 0.75765 0.60209 0.0
C295 C 0.64911 0.73609 0.60781 0.0
C296 C 0.76323 0.66939 0.58485 0.0
H297 H 0.63608 0.63022 0.70974 0.0
H298 H 0.64991 0.65172 0.67251 0.0
H299 H 0.7166 0.65061 0.70072 0.0
H300 H 0.7028 0.62795 0.73713 0.0
H301 H 0.66876 0.68983 0.66029 0.0
H302 H 0.71929 0.64771 0.65758 0.0
H303 H 0.71757 0.70564 0.6057 0.0
H304 H 0.73042 0.67682 0.5818 0.0
H305 H 0.75769 0.66646 0.65601 0.0
H306 H 0.7916 0.65954 0.63918 0.0
H307 H 0.64803 0.70077 0.62147 0.0
H308 H 0.71241 0.74358 0.61932 0.0
H309 H 0.76451 0.67003 0.56495 0.0
H310 H 0.63143 0.73368 0.60451 0.0
H311 H 0.69589 0.77647 0.60259 0.0
Co312 Co 0.04966 0.48329 0.52645 0.0
Co313 Co 0.02783 0.47388 0.48395 0.0
Co314 Co 0.00708 0.51155 0.51039 0.0
O315 O 0.01962 0.48213 0.51451 0.0
H316 H 0.00968 0.46943 0.52206 0.0
O317 O 0.99474 0.54105 0.50626 0.0
Co318 Co 0.96483 0.54049 0.49434 0.0
Co319 Co 0.98675 0.54908 0.53694 0.0
H320 H 1.00482 0.55373 0.49888 0.0
O321 O 0.03315 0.44403 0.47848 0.0
O322 O 0.0571 0.47405 0.49382 0.0
O323 O 0.02858 0.49681 0.45703 0.0
O324 O 0.02627 0.52515 0.48225 0.0
O325 O 0.98383 0.49546 0.48663 0.0
O326 O 0.938 0.54214 0.48233 0.0
O327 O 0.96782 0.5705 0.48207 0.0
O328 O 0.95773 0.50889 0.50447 0.0
O329 O 0.98786 0.49789 0.53841 0.0
O330 O 0.98532 0.52594 0.56387 0.0
O331 O 0.95782 0.55046 0.52694 0.0
O332 O 0.98326 0.57936 0.5423 0.0
C333 C 0.06787 0.46053 0.5442 0.0
C334 C 0.05051 0.52925 0.5304 0.0
C335 C 0.03172 0.51827 0.46177 0.0
C336 C 0.05302 0.45296 0.48593 0.0
C337 C 0.94701 0.56331 0.47612 0.0
C338 C 0.96345 0.49457 0.4902 0.0
C339 C 0.98232 0.50454 0.55893 0.0
C340 C 0.96318 0.57165 0.53451 0.0
O341 O 0.07655 0.48195 0.53852 0.0
O342 O 0.04706 0.45323 0.5384 0.0
O343 O 0.03015 0.52767 0.53433 0.0
O344 O 0.05652 0.51499 0.51635 0.0
Co345 Co 0.53405 0.96616 0.49725 0.0
Co346 Co 0.54432 0.98594 0.5401 0.0
Co347 Co 0.509 0.01141 0.51027 0.0
O348 O 0.53596 0.99713 0.5086 0.0
H349 H 0.54804 0.00789 0.50176 0.0
O350 O 0.48208 0.02578 0.5121 0.0
Co351 Co 0.48428 0.05722 0.52257 0.0
Co352 Co 0.47364 0.03618 0.48019 0.0
H353 H 0.47006 0.01522 0.5193 0.0
O354 O 0.57242 0.97874 0.54758 0.0
O355 O 0.54304 0.95553 0.5308 0.0
O356 O 0.52332 0.9838 0.56554 0.0
O357 O 0.49635 0.98972 0.53826 0.0
O358 O 0.52584 0.03406 0.53411 0.0
O359 O 0.48397 0.08554 0.5327 0.0
O360 O 0.4563 0.05482 0.53268 0.0
O361 O 0.514 0.06391 0.51457 0.0
O362 O 0.52165 0.03298 0.48219 0.0
O363 O 0.49463 0.03831 0.45477 0.0
O364 O 0.47481 0.0667 0.48875 0.0
O365 O 0.4454 0.04289 0.47278 0.0
C366 C 0.55485 0.94778 0.48148 0.0
C367 C 0.49038 0.96686 0.49033 0.0
C368 C 0.503 0.98203 0.55939 0.0
C369 C 0.56319 0.95846 0.53986 0.0
C370 C 0.46378 0.07666 0.53738 0.0
C371 C 0.52767 0.05603 0.52973 0.0
C372 C 0.51496 0.04036 0.46095 0.0
C373 C 0.45447 0.0633 0.48026 0.0
O374 O 0.53472 0.93834 0.4859 0.0
O375 O 0.56211 0.96929 0.48754 0.0
O376 O 0.49209 0.98886 0.48634 0.0
O377 O 0.5043 0.95884 0.505 0.0
Co378 Co 0.47921 0.52125 0.06105 0.0
Co379 Co 0.46989 0.47938 0.04369 0.0
Co380 Co 0.50592 0.51089 0.01081 0.0
O381 O 0.47826 0.50886 0.0288 0.0
H382 H 0.4663 0.513 0.01819 0.0
O383 O 0.53362 0.51286 0.99293 0.0
Co384 Co 0.53299 0.50108 0.96043 0.0
Co385 Co 0.542 0.54265 0.97874 0.0
H386 H 0.54552 0.5086 1.00354 0.0
O387 O 0.44133 0.46877 0.05378 0.0
O388 O 0.46935 0.48965 0.07552 0.0
O389 O 0.49133 0.45891 0.04557 0.0
O390 O 0.51836 0.4868 0.03321 0.0
O391 O 0.48995 0.48615 0.98856 0.0
O392 O 0.5347 0.48973 0.93103 0.0
O393 O 0.56096 0.49508 0.96178 0.0
O394 O 0.50347 0.50481 0.95498 0.0
O395 O 0.49348 0.535 0.98848 0.0
O396 O 0.52056 0.56311 0.97681 0.0
O397 O 0.54297 0.533 0.94681 0.0
O398 O 0.57068 0.55337 0.96949 0.0
C399 C 0.45797 0.53505 0.08152 0.0
C400 C 0.52298 0.53255 0.05635 0.0
C401 C 0.51165 0.46687 0.04374 0.0
C402 C 0.44938 0.47811 0.07434 0.0
C403 C 0.55448 0.48807 0.93957 0.0
C404 C 0.4892 0.48939 0.96504 0.0
C405 C 0.50022 0.55508 0.9783 0.0
C406 C 0.56301 0.54435 0.94865 0.0
O407 O 0.47775 0.5334 0.09012 0.0
O408 O 0.45132 0.52733 0.05962 0.0
O409 O 0.52189 0.53577 0.03286 0.0
O410 O 0.5087 0.51733 0.0666 0.0
H411 H 0.22303 0.35103 0.4683 0.0
H412 H 0.19077 0.36424 0.48358 0.0
H413 H 0.17063 0.38275 0.40856 0.0
H414 H 0.20335 0.37062 0.39357 0.0
H415 H 0.17158 0.41753 0.43742 0.0
H416 H 0.12642 0.33772 0.48344 0.0
H417 H 0.15438 0.34537 0.49511 0.0
H418 H 0.14872 0.33697 0.46354 0.0
C419 C 0.21143 0.35759 0.45518 0.0
C420 C 0.21547 0.35994 0.42986 0.0
C421 C 0.19298 0.36496 0.46384 0.0
C422 C 0.17815 0.37422 0.44718 0.0
C423 C 0.18185 0.37565 0.42174 0.0
H424 H 0.05117 0.41004 0.46677 0.0
H425 H 0.08206 0.39019 0.46041 0.0
C426 C 0.20046 0.36874 0.41318 0.0
C427 C 0.15995 0.38457 0.45614 0.0
H428 H 0.11389 0.37335 0.48971 0.0
C429 C 0.15892 0.40781 0.44878 0.0
C430 C 0.14346 0.37186 0.47095 0.0
C431 C 0.14313 0.34654 0.47854 0.0
C432 C 0.14168 0.4186 0.45535 0.0
C433 C 0.12544 0.4061 0.4706 0.0
C434 C 0.12653 0.38293 0.47825 0.0
C435 C 0.10659 0.41653 0.47749 0.0
C436 C 0.14068 0.44302 0.4451 0.0
C437 C 0.1101 0.43752 0.48988 0.0
C438 C 0.09264 0.44923 0.49284 0.0
C439 C 0.0712 0.43972 0.48433 0.0
C440 C 0.06751 0.41791 0.47341 0.0
C441 C 0.0851 0.40645 0.46991 0.0
H442 H 0.15081 0.44753 0.42868 0.0
H443 H 0.12351 0.44513 0.43969 0.0
H444 H 0.14718 0.4557 0.45948 0.0
H445 H 0.1265 0.44529 0.49642 0.0
H446 H 0.09611 0.46598 0.50134 0.0
H447 H 0.61438 0.23433 0.38415 0.0
H448 H 0.59428 0.19747 0.40052 0.0
H449 H 0.63673 0.1599 0.36397 0.0
H450 H 0.65635 0.19671 0.34654 0.0
H451 H 0.59376 0.14003 0.35762 0.0
H452 H 0.61371 0.1564 0.45686 0.0
H453 H 0.60128 0.17908 0.44125 0.0
H454 H 0.62775 0.17424 0.43249 0.0
C455 C 0.61939 0.21826 0.37941 0.0
C456 C 0.63705 0.21857 0.36401 0.0
C457 C 0.60805 0.19717 0.38909 0.0
C458 C 0.61424 0.17591 0.38387 0.0
C459 C 0.63177 0.1761 0.36843 0.0
H460 H 0.55988 0.04905 0.46761 0.0
H461 H 0.58555 0.07952 0.4468 0.0
C462 C 0.64309 0.1972 0.35865 0.0
C463 C 0.60197 0.1535 0.39394 0.0
H464 H 0.58436 0.12502 0.44767 0.0
C465 C 0.59188 0.13663 0.37733 0.0
C466 C 0.59982 0.14886 0.41968 0.0
C467 C 0.61141 0.1655 0.43861 0.0
C468 C 0.57906 0.11566 0.3857 0.0
C469 C 0.57589 0.11163 0.41134 0.0
C470 C 0.58661 0.12814 0.42799 0.0
C471 C 0.56087 0.09096 0.4214 0.0
C472 C 0.56915 0.098 0.36697 0.0
C473 C 0.5385 0.08683 0.41368 0.0
C474 C 0.52378 0.06925 0.42539 0.0
C475 C 0.53106 0.05563 0.44536 0.0
C476 C 0.55366 0.05915 0.45232 0.0
C477 C 0.56838 0.07665 0.44049 0.0
H478 H 0.57875 0.09996 0.35003 0.0
H479 H 0.56832 0.0799 0.37478 0.0
H480 H 0.5522 0.10076 0.36139 0.0
H481 H 0.53217 0.09793 0.3994 0.0
H482 H 0.5065 0.06722 0.41965 0.0
H483 H 0.80168 0.65117 0.34721 0.0
H484 H 0.83305 0.63529 0.36656 0.0
H485 H 0.83448 0.67965 0.42822 0.0
H486 H 0.80299 0.6956 0.40903 0.0
H487 H 0.87821 0.66294 0.387 0.0
H488 H 0.82533 0.60723 0.4545 0.0
H489 H 0.81409 0.61776 0.42541 0.0
H490 H 0.82259 0.63746 0.44989 0.0
C491 C 0.8087 0.65759 0.36486 0.0
C492 C 0.79978 0.67454 0.37667 0.0
C493 C 0.82671 0.64864 0.37578 0.0
C494 C 0.83601 0.65631 0.39878 0.0
C495 C 0.8275 0.67357 0.41041 0.0
H496 H 0.95333 0.61138 0.47397 0.0
H497 H 0.92766 0.63612 0.45551 0.0
C498 C 0.80958 0.68269 0.3994 0.0
C499 C 0.85372 0.64514 0.41117 0.0
H500 H 0.86243 0.60337 0.45516 0.0
C501 C 0.87496 0.65018 0.40219 0.0
C502 C 0.84924 0.62835 0.43073 0.0
C503 C 0.82659 0.62217 0.44077 0.0
C504 C 0.89186 0.63859 0.41218 0.0
C505 C 0.88731 0.6216 0.43165 0.0
C506 C 0.86603 0.6167 0.44058 0.0
C507 C 0.90371 0.60731 0.44185 0.0
C508 C 0.91412 0.64389 0.40114 0.0
C509 C 0.89869 0.58298 0.44058 0.0
C510 C 0.9131 0.56895 0.45125 0.0
C511 C 0.93298 0.57888 0.4634 0.0
C512 C 0.93829 0.60329 0.46438 0.0
C513 C 0.92366 0.61741 0.4538 0.0
H514 H 0.91355 0.65356 0.38296 0.0
H515 H 0.92582 0.6548 0.41389 0.0
H516 H 0.9206 0.62757 0.39863 0.0
H517 H 0.88343 0.57478 0.43149 0.0
H518 H 0.90852 0.55021 0.45012 0.0
H519 H 0.33637 0.80917 0.39525 0.0
H520 H 0.35583 0.84431 0.41464 0.0
H521 H 0.41487 0.83731 0.37901 0.0
H522 H 0.39522 0.80302 0.35834 0.0
H523 H 0.38935 0.84895 0.44691 0.0
H524 H 0.41409 0.90515 0.36462 0.0
H525 H 0.39426 0.87857 0.36255 0.0
H526 H 0.42331 0.87768 0.36378 0.0
C527 C 0.35335 0.81537 0.39101 0.0
C528 C 0.36413 0.80319 0.37505 0.0
C529 C 0.36452 0.83542 0.40231 0.0
C530 C 0.38674 0.84378 0.39799 0.0
C531 C 0.39758 0.83164 0.38217 0.0
H532 H 0.4851 0.91946 0.49308 0.0
H533 H 0.45797 0.89164 0.47096 0.0
C534 C 0.38638 0.81172 0.37067 0.0
C535 C 0.39896 0.86424 0.41128 0.0
H536 H 0.4342 0.91583 0.40302 0.0
C537 C 0.3989 0.86371 0.43724 0.0
C538 C 0.4111 0.88382 0.39876 0.0
C539 C 0.41051 0.88648 0.37088 0.0
C540 C 0.41143 0.88157 0.45103 0.0
C541 C 0.42491 0.90021 0.43859 0.0
C542 C 0.42413 0.90138 0.4126 0.0
C543 C 0.44105 0.91762 0.45227 0.0
C544 C 0.41016 0.88018 0.47884 0.0
C545 C 0.44107 0.9417 0.44863 0.0
C546 C 0.45688 0.95788 0.46116 0.0
C547 C 0.47299 0.95021 0.47743 0.0
C548 C 0.47286 0.92608 0.4809 0.0
C549 C 0.45722 0.91004 0.46836 0.0
H550 H 0.39412 0.87015 0.48451 0.0
H551 H 0.42329 0.87099 0.48714 0.0
H552 H 0.41241 0.8978 0.48653 0.0
H553 H 0.42886 0.94796 0.43612 0.0
H554 H 0.45657 0.97633 0.45799 0.0
H555 H 0.2131 0.61173 0.6783 0.0
H556 H 0.17867 0.59299 0.65803 0.0
H557 H 0.18475 0.64742 0.60064 0.0
H558 H 0.2186 0.66692 0.62142 0.0
H559 H 0.14237 0.63543 0.61486 0.0
H560 H 0.17623 0.55608 0.59629 0.0
H561 H 0.17744 0.56247 0.62848 0.0
H562 H 0.19334 0.58228 0.60714 0.0
C563 C 0.20699 0.61995 0.66158 0.0
C564 C 0.21884 0.64078 0.65142 0.0
C565 C 0.1874 0.60903 0.64983 0.0
C566 C 0.17934 0.61852 0.62752 0.0
C567 C 0.19073 0.63965 0.61773 0.0
H568 H 0.09252 0.54432 0.51737 0.0
H569 H 0.12238 0.56754 0.54122 0.0
C570 C 0.21024 0.65066 0.62953 0.0
C571 C 0.15938 0.6062 0.61398 0.0
H572 H 0.13846 0.55529 0.58598 0.0
C573 C 0.14148 0.61789 0.60855 0.0
C574 C 0.15833 0.58343 0.60548 0.0
C575 C 0.17742 0.57038 0.60941 0.0
C576 C 0.1226 0.60744 0.59485 0.0
C577 C 0.12143 0.58451 0.58674 0.0
C578 C 0.13929 0.57282 0.59231 0.0
C579 C 0.10242 0.57252 0.57143 0.0
C580 C 0.1044 0.6213 0.58856 0.0
C581 C 0.08102 0.56794 0.58018 0.0
C582 C 0.06373 0.55481 0.56634 0.0
C583 C 0.06767 0.54571 0.54376 0.0
C584 C 0.08896 0.55092 0.53478 0.0
C585 C 0.10608 0.56418 0.54842 0.0
H586 H 0.11017 0.6403 0.59055 0.0
H587 H 0.09759 0.61835 0.56933 0.0
H588 H 0.09091 0.61565 0.60135 0.0
H589 H 0.07784 0.5738 0.59807 0.0
H590 H 0.04756 0.55093 0.57382 0.0
H591 H 0.37424 0.20778 0.66868 0.0
H592 H 0.39076 0.17875 0.64858 0.0
H593 H 0.36388 0.2005 0.57762 0.0
H594 H 0.34626 0.22865 0.59804 0.0
H595 H 0.36124 0.15527 0.57929 0.0
H596 H 0.44549 0.19328 0.61219 0.0
H597 H 0.4284 0.18434 0.63775 0.0
H598 H 0.42225 0.20732 0.61631 0.0
C599 C 0.37185 0.20626 0.64881 0.0
C600 C 0.3592 0.22053 0.63484 0.0
C601 C 0.38141 0.1898 0.63728 0.0
C602 C 0.37916 0.18785 0.61144 0.0
C603 C 0.36601 0.20174 0.59754 0.0
H604 H 0.47113 0.12395 0.53524 0.0
H605 H 0.44878 0.15014 0.5504 0.0
C606 C 0.356 0.21784 0.60917 0.0
C607 C 0.39078 0.1716 0.59895 0.0
H608 H 0.44107 0.15566 0.59537 0.0
C609 C 0.37874 0.15546 0.58267 0.0
C610 C 0.41373 0.17212 0.60281 0.0
C611 C 0.42823 0.19038 0.61798 0.0
C612 C 0.38891 0.13957 0.57064 0.0
C613 C 0.41159 0.13922 0.57572 0.0
C614 C 0.42363 0.15561 0.59168 0.0
C615 C 0.42362 0.12273 0.56425 0.0
C616 C 0.37531 0.12373 0.55225 0.0
C617 C 0.4168 0.0984 0.56646 0.0
C618 C 0.42947 0.0832 0.55725 0.0
C619 C 0.44943 0.09211 0.54629 0.0
C620 C 0.45601 0.11643 0.5439 0.0
C621 C 0.44319 0.1315 0.55254 0.0
H622 H 0.36097 0.13131 0.54439 0.0
H623 H 0.3852 0.12029 0.53679 0.0
H624 H 0.36891 0.10683 0.56181 0.0
H625 H 0.40202 0.09112 0.57588 0.0
H626 H 0.42399 0.06456 0.55937 0.0
H627 H 0.83186 0.36921 0.68403 0.0
H628 H 0.86728 0.39048 0.67056 0.0
H629 H 0.83404 0.42096 0.60829 0.0
H630 H 0.79864 0.4002 0.62198 0.0
H631 H 0.88925 0.39031 0.62937 0.0
H632 H 0.8691 0.4783 0.63822 0.0
H633 H 0.85211 0.45231 0.65029 0.0
H634 H 0.84948 0.46104 0.61801 0.0
C635 C 0.83215 0.3804 0.66742 0.0
C636 C 0.81246 0.38324 0.65419 0.0
C637 C 0.85238 0.39258 0.65977 0.0
C638 C 0.8533 0.40777 0.63873 0.0
C639 C 0.83371 0.40995 0.62502 0.0
H640 H 0.96086 0.46115 0.54717 0.0
H641 H 0.93177 0.43665 0.56947 0.0
C642 C 0.81349 0.398 0.6328 0.0
C643 C 0.8747 0.42121 0.63095 0.0
H644 H 0.90038 0.47617 0.61488 0.0
C645 C 0.89179 0.40912 0.62645 0.0
C646 C 0.87825 0.44582 0.62768 0.0
C647 C 0.86134 0.46014 0.63407 0.0
C648 C 0.91195 0.42084 0.61784 0.0
C649 C 0.91492 0.44527 0.61296 0.0
C650 C 0.89813 0.45743 0.61838 0.0
C651 C 0.93469 0.45855 0.60109 0.0
C652 C 0.92987 0.40689 0.61423 0.0
C653 C 0.94616 0.47917 0.61128 0.0
C654 C 0.96263 0.49354 0.59829 0.0
C655 C 0.96805 0.48751 0.57485 0.0
C656 C 0.95735 0.46624 0.5653 0.0
C657 C 0.9407 0.45207 0.57813 0.0
H658 H 0.9283 0.39111 0.62684 0.0
H659 H 0.92842 0.40095 0.59496 0.0
H660 H 0.94647 0.41742 0.61754 0.0
H661 H 0.94182 0.48459 0.62894 0.0
H662 H 0.97051 0.50979 0.60618 0.0
H663 H 0.62519 0.7714 0.61682 0.0
H664 H 0.60951 0.80554 0.60188 0.0
H665 H 0.66167 0.82438 0.55122 0.0
H666 H 0.67706 0.78976 0.56543 0.0
H667 H 0.63075 0.85135 0.60475 0.0
H668 H 0.60623 0.82939 0.50717 0.0
H669 H 0.6126 0.80787 0.53039 0.0
H670 H 0.63435 0.828 0.51652 0.0
C671 C 0.63308 0.78252 0.60214 0.0
C672 C 0.65235 0.77785 0.59228 0.0
C673 C 0.62419 0.80209 0.59375 0.0
C674 C 0.63432 0.81731 0.57529 0.0
C675 C 0.65341 0.81263 0.5652 0.0
H676 H 0.6068 0.95911 0.55246 0.0
H677 H 0.62578 0.92556 0.55867 0.0
C678 C 0.66232 0.79301 0.57356 0.0
C679 C 0.62551 0.83878 0.5678 0.0
H680 H 0.60187 0.86667 0.51926 0.0
C681 C 0.62457 0.85482 0.58602 0.0
C682 C 0.61737 0.84309 0.54337 0.0
C683 C 0.61747 0.82612 0.52323 0.0
C684 C 0.61551 0.87503 0.58057 0.0
C685 C 0.60755 0.87949 0.55609 0.0
C686 C 0.60846 0.86344 0.53785 0.0
C687 C 0.59697 0.90002 0.54955 0.0
C688 C 0.61382 0.89095 0.6013 0.0
C689 C 0.5748 0.89681 0.54121 0.0
C690 C 0.56397 0.9159 0.53748 0.0
C691 C 0.57516 0.93855 0.54202 0.0
C692 C 0.59766 0.94183 0.54923 0.0
C693 C 0.60851 0.92271 0.55282 0.0
H694 H 0.6157 0.88217 0.6198 0.0
H695 H 0.62707 0.9064 0.60005 0.0
H696 H 0.59775 0.89713 0.59993 0.0
H697 H 0.56565 0.87943 0.53842 0.0
H698 H 0.54668 0.9128 0.5317 0.0
H699 H 0.33974 0.23309 0.46699 0.0
H700 H 0.35312 0.19753 0.48262 0.0
H701 H 0.40776 0.21374 0.43496 0.0
H702 H 0.39453 0.24912 0.41928 0.0
H703 H 0.38076 0.16924 0.4292 0.0
H704 H 0.40745 0.18542 0.52788 0.0
H705 H 0.38068 0.19101 0.51715 0.0
H706 H 0.40478 0.20901 0.50552 0.0
C707 C 0.35487 0.22929 0.46029 0.0
C708 C 0.36603 0.24372 0.44178 0.0
C709 C 0.36249 0.20904 0.46926 0.0
C710 C 0.38145 0.20314 0.45999 0.0
C711 C 0.39308 0.21805 0.44231 0.0
H712 H 0.47032 0.10961 0.48429 0.0
H713 H 0.44932 0.14156 0.48293 0.0
C714 C 0.38546 0.23815 0.43329 0.0
C715 C 0.38816 0.1804 0.4665 0.0
H716 H 0.41279 0.14995 0.51217 0.0
C717 C 0.3875 0.16484 0.44742 0.0
C718 C 0.39676 0.17477 0.49037 0.0
C719 C 0.39763 0.1909 0.51148 0.0
C720 C 0.39619 0.14424 0.45118 0.0
C721 C 0.40555 0.13899 0.47476 0.0
C722 C 0.40546 0.15407 0.49418 0.0
C723 C 0.41761 0.11928 0.47859 0.0
C724 C 0.39634 0.12885 0.42957 0.0
C725 C 0.40662 0.0962 0.4769 0.0
C726 C 0.41858 0.0779 0.47744 0.0
C727 C 0.44168 0.08247 0.47987 0.0
C728 C 0.45255 0.10557 0.48227 0.0
C729 C 0.44059 0.12381 0.48169 0.0
H730 H 0.39138 0.13723 0.41174 0.0
H731 H 0.41298 0.12443 0.428 0.0
H732 H 0.38469 0.11232 0.43259 0.0
H733 H 0.38884 0.09244 0.47464 0.0
H734 H 0.40977 0.06023 0.47587 0.0
H735 H 0.79939 0.41472 0.34924 0.0
H736 H 0.83307 0.43225 0.37163 0.0
H737 H 0.83653 0.36645 0.41048 0.0
H738 H 0.80205 0.34917 0.38948 0.0
H739 H 0.84423 0.39963 0.44166 0.0
H740 H 0.89569 0.42812 0.36199 0.0
H741 H 0.87078 0.44009 0.35926 0.0
H742 H 0.86951 0.40896 0.35878 0.0
C743 C 0.80717 0.40394 0.36266 0.0
C744 C 0.79784 0.38042 0.36742 0.0
C745 C 0.82673 0.41394 0.37516 0.0
C746 C 0.83772 0.40059 0.39239 0.0
C747 C 0.82854 0.3771 0.3971 0.0
H748 H 0.9682 0.46063 0.4581 0.0
H749 H 0.9388 0.43523 0.43501 0.0
C750 C 0.80885 0.36716 0.38484 0.0
C751 C 0.85797 0.41145 0.40662 0.0
H752 H 0.90825 0.44599 0.4006 0.0
C753 C 0.85832 0.40951 0.43261 0.0
C754 C 0.87666 0.42397 0.39497 0.0
C755 C 0.87826 0.42519 0.36722 0.0
C756 C 0.8763 0.42051 0.44719 0.0
C757 C 0.89424 0.43448 0.43555 0.0
C758 C 0.89439 0.43558 0.40958 0.0
C759 C 0.91224 0.44919 0.44996 0.0
C760 C 0.87585 0.41698 0.47498 0.0
C761 C 0.90715 0.46561 0.4658 0.0
C762 C 0.92379 0.47989 0.4791 0.0
C763 C 0.94606 0.47844 0.4766 0.0
C764 C 0.95124 0.46212 0.46054 0.0
C765 C 0.93446 0.44765 0.4473 0.0
H766 H 0.86555 0.40007 0.48034 0.0
H767 H 0.89265 0.41742 0.48362 0.0
H768 H 0.86854 0.43105 0.48263 0.0
H769 H 0.89024 0.46767 0.46766 0.0
H770 H 0.91911 0.49235 0.49109 0.0
H771 H 0.64517 0.78341 0.41225 0.0
H772 H 0.62964 0.81371 0.43129 0.0
H773 H 0.65625 0.86385 0.37494 0.0
H774 H 0.67228 0.8338 0.35598 0.0
H775 H 0.65106 0.85942 0.4489 0.0
H776 H 0.58863 0.86449 0.37139 0.0
H777 H 0.60328 0.84024 0.37602 0.0
H778 H 0.61677 0.86757 0.36303 0.0
C779 C 0.64803 0.80094 0.40406 0.0
C780 C 0.65991 0.80608 0.38246 0.0
C781 C 0.63907 0.81822 0.41495 0.0
C782 C 0.64164 0.84095 0.40441 0.0
C783 C 0.65384 0.84633 0.38318 0.0
H784 H 0.59903 0.9594 0.47274 0.0
H785 H 0.62208 0.93503 0.45422 0.0
C786 C 0.66288 0.82908 0.37231 0.0
C787 C 0.63082 0.85872 0.41514 0.0
H788 H 0.58897 0.88978 0.404 0.0
C789 C 0.63756 0.86619 0.43907 0.0
C790 C 0.61318 0.86743 0.40228 0.0
C791 C 0.60484 0.85947 0.37682 0.0
C792 C 0.62694 0.88198 0.4506 0.0
C793 C 0.60918 0.89055 0.43777 0.0
C794 C 0.60267 0.88329 0.41372 0.0
C795 C 0.59586 0.90547 0.44956 0.0
C796 C 0.63453 0.88896 0.47657 0.0
C797 C 0.57355 0.89698 0.45296 0.0
C798 C 0.56043 0.91077 0.46339 0.0
C799 C 0.56927 0.9335 0.47056 0.0
C800 C 0.5917 0.94202 0.4673 0.0
C801 C 0.6049 0.92809 0.45685 0.0
H802 H 0.64355 0.87598 0.48635 0.0
H803 H 0.64581 0.90598 0.47563 0.0
H804 H 0.6205 0.89107 0.48764 0.0
H805 H 0.56624 0.87958 0.44753 0.0
H806 H 0.54327 0.90355 0.4657 0.0
H807 H 0.21617 0.61892 0.39286 0.0
H808 H 0.18115 0.59827 0.40777 0.0
H809 H 0.14637 0.64249 0.35976 0.0
H810 H 0.18139 0.66272 0.34425 0.0
H811 H 0.15023 0.61245 0.43177 0.0
H812 H 0.11378 0.5796 0.34161 0.0
H813 H 0.14227 0.59291 0.34578 0.0
H814 H 0.12121 0.61076 0.3414 0.0
C815 C 0.20104 0.62423 0.38551 0.0
C816 C 0.20149 0.64233 0.36729 0.0
C817 C 0.18103 0.6124 0.394 0.0
C818 C 0.16103 0.61851 0.38458 0.0
C819 C 0.16148 0.63697 0.36679 0.0
H820 H 0.04121 0.56594 0.46399 0.0
H821 H 0.07064 0.59224 0.44348 0.0
C822 C 0.1815 0.6486 0.35803 0.0
C823 C 0.13986 0.60571 0.39379 0.0
H824 H 0.09044 0.57351 0.37543 0.0
C825 C 0.13714 0.60396 0.41943 0.0
C826 C 0.12286 0.59438 0.37772 0.0
C827 C 0.12521 0.59427 0.35013 0.0
C828 C 0.1181 0.59106 0.42949 0.0
C829 C 0.10087 0.58022 0.41339 0.0
C830 C 0.10349 0.58211 0.38773 0.0
C831 C 0.08082 0.56531 0.42295 0.0
C832 C 0.11709 0.5884 0.45732 0.0
C833 C 0.0757 0.54178 0.41688 0.0
C834 C 0.05858 0.5268 0.42814 0.0
C835 C 0.04629 0.53502 0.44587 0.0
C836 C 0.05047 0.55896 0.45061 0.0
C837 C 0.06745 0.57399 0.43909 0.0
H838 H 0.13367 0.59254 0.46674 0.0
H839 H 0.10689 0.60061 0.46379 0.0
H840 H 0.10958 0.57038 0.46317 0.0
H841 H 0.08565 0.53469 0.40432 0.0
H842 H 0.05587 0.5085 0.42397 0.0
H843 H 0.39103 0.7898 0.62646 0.0
H844 H 0.41237 0.82617 0.61056 0.0
H845 H 0.39572 0.86206 0.67271 0.0
H846 H 0.3733 0.82601 0.68809 0.0
H847 H 0.39321 0.8879 0.63023 0.0
H848 H 0.47244 0.85531 0.63741 0.0
H849 H 0.45195 0.83753 0.6186 0.0
H850 H 0.44799 0.83954 0.65107 0.0
C851 C 0.3916 0.80545 0.63662 0.0
C852 C 0.38048 0.80483 0.6587 0.0
C853 C 0.40412 0.82621 0.62767 0.0
C854 C 0.4061 0.84675 0.64074 0.0
C855 C 0.39464 0.84637 0.66244 0.0
H856 H 0.50948 0.96455 0.60676 0.0
H857 H 0.48491 0.93404 0.62903 0.0
C858 C 0.38197 0.82566 0.67133 0.0
C859 C 0.42006 0.86863 0.6317 0.0
H860 H 0.47193 0.89114 0.61424 0.0
C861 C 0.41047 0.88868 0.62692 0.0
C862 C 0.4427 0.86981 0.62784 0.0
C863 C 0.45444 0.84947 0.63424 0.0
C864 C 0.42273 0.90964 0.61765 0.0
C865 C 0.44506 0.91042 0.61251 0.0
C866 C 0.45478 0.89056 0.61799 0.0
C867 C 0.45857 0.93125 0.60063 0.0
C868 C 0.41164 0.93074 0.61372 0.0
C869 C 0.4518 0.94028 0.57749 0.0
C870 C 0.46569 0.95796 0.56487 0.0
C871 C 0.48687 0.96671 0.57489 0.0
C872 C 0.4933 0.95826 0.59849 0.0
C873 C 0.47928 0.94073 0.61122 0.0
H874 H 0.39769 0.92972 0.62603 0.0
H875 H 0.42337 0.94711 0.61717 0.0
H876 H 0.40492 0.93156 0.59431 0.0
H877 H 0.43617 0.93292 0.56859 0.0
H878 H 0.46024 0.9638 0.54662 0.0
H879 H 0.21242 0.32619 0.60776 0.0
H880 H 0.1807 0.34144 0.58846 0.0
H881 H 0.18481 0.39009 0.64673 0.0
H882 H 0.21643 0.3749 0.66615 0.0
H883 H 0.14203 0.36861 0.63535 0.0
H884 H 0.18425 0.40371 0.54999 0.0
H885 H 0.18348 0.3731 0.5567 0.0
H886 H 0.19891 0.39396 0.57719 0.0
C887 C 0.20664 0.34022 0.61639 0.0
C888 C 0.21705 0.34941 0.63844 0.0
C889 C 0.1885 0.34892 0.60533 0.0
C890 C 0.18056 0.36714 0.61595 0.0
C891 C 0.19064 0.37602 0.6382 0.0
H892 H 0.11054 0.47228 0.56052 0.0
H893 H 0.13559 0.4467 0.57679 0.0
C894 C 0.20869 0.36727 0.64932 0.0
C895 C 0.16202 0.37736 0.60382 0.0
H896 H 0.14745 0.40867 0.55236 0.0
C897 C 0.1431 0.37719 0.61711 0.0
C898 C 0.1635 0.3886 0.58003 0.0
C899 C 0.18367 0.39009 0.56517 0.0
C900 C 0.1259 0.38849 0.60753 0.0
C901 C 0.12758 0.40005 0.58397 0.0
C902 C 0.14617 0.39963 0.57037 0.0
C903 C 0.11162 0.41503 0.57433 0.0
C904 C 0.10652 0.38893 0.62312 0.0
C905 C 0.08967 0.4057 0.56756 0.0
C906 C 0.07511 0.42041 0.5582 0.0
C907 C 0.08234 0.44462 0.55546 0.0
C908 C 0.10432 0.45375 0.56241 0.0
C909 C 0.11875 0.43914 0.57167 0.0
H910 H 0.10912 0.38182 0.64229 0.0
H911 H 0.1033 0.40703 0.62403 0.0
H912 H 0.09162 0.37829 0.6145 0.0
H913 H 0.08392 0.38707 0.5692 0.0
H914 H 0.05837 0.41282 0.55274 0.0
H915 H 0.62091 0.21935 0.66365 0.0
H916 H 0.60166 0.18513 0.64257 0.0
H917 H 0.66108 0.1791 0.60715 0.0
H918 H 0.68014 0.2142 0.62698 0.0
H919 H 0.62767 0.17448 0.57463 0.0
H920 H 0.6029 0.11732 0.65623 0.0
H921 H 0.59343 0.14462 0.65736 0.0
H922 H 0.62254 0.144 0.65867 0.0
C923 C 0.62992 0.21088 0.65129 0.0
C924 C 0.65215 0.21969 0.64707 0.0
C925 C 0.61895 0.19099 0.63955 0.0
C926 C 0.63 0.17915 0.62365 0.0
C927 C 0.65222 0.18776 0.61953 0.0
H928 H 0.56121 0.04679 0.56254 0.0
H929 H 0.58858 0.07526 0.58469 0.0
C930 C 0.66317 0.20778 0.63108 0.0
C931 C 0.61798 0.15877 0.61008 0.0
H932 H 0.58294 0.10695 0.61766 0.0
C933 C 0.61815 0.15958 0.58411 0.0
C934 C 0.60587 0.13901 0.62234 0.0
C935 C 0.60636 0.13605 0.65019 0.0
C936 C 0.60576 0.14181 0.57008 0.0
C937 C 0.59231 0.12297 0.58226 0.0
C938 C 0.59298 0.12154 0.60826 0.0
C939 C 0.57638 0.10552 0.56836 0.0
C940 C 0.60718 0.14349 0.54229 0.0
C941 C 0.5603 0.11301 0.55206 0.0
C942 C 0.54485 0.09691 0.53933 0.0
C943 C 0.54483 0.0728 0.54284 0.0
C944 C 0.56082 0.06522 0.55934 0.0
C945 C 0.57644 0.08146 0.57203 0.0
H946 H 0.62323 0.15364 0.5368 0.0
H947 H 0.60504 0.12596 0.53439 0.0
H948 H 0.59406 0.1527 0.534 0.0
H949 H 0.55946 0.13139 0.54944 0.0
H950 H 0.53269 0.10344 0.52698 0.0
H951 H 0.80316 0.62922 0.61527 0.0
H952 H 0.83714 0.62138 0.59926 0.0
H953 H 0.83829 0.68011 0.54729 0.0
H954 H 0.80408 0.68811 0.56329 0.0
H955 H 0.84664 0.64048 0.52604 0.0
H956 H 0.89886 0.65807 0.61159 0.0
H957 H 0.87419 0.63781 0.61753 0.0
H958 H 0.87241 0.66721 0.60675 0.0
C959 C 0.81078 0.64065 0.60064 0.0
C960 C 0.80112 0.65942 0.59069 0.0
C961 C 0.83019 0.63618 0.59155 0.0
C962 C 0.84045 0.6505 0.57251 0.0
C963 C 0.83069 0.66901 0.56217 0.0
H964 H 0.9694 0.61794 0.54434 0.0
H965 H 0.94112 0.6419 0.54859 0.0
C966 C 0.81115 0.67348 0.57123 0.0
C967 C 0.86096 0.64537 0.56304 0.0
H968 H 0.91127 0.63333 0.58281 0.0
C969 C 0.86097 0.63934 0.53828 0.0
C970 C 0.87983 0.64448 0.57886 0.0
C971 C 0.88144 0.6525 0.60509 0.0
C972 C 0.87879 0.63074 0.52944 0.0
C973 C 0.89671 0.62766 0.54598 0.0
C974 C 0.89737 0.63536 0.5702 0.0
C975 C 0.91386 0.61448 0.53951 0.0
C976 C 0.87804 0.62458 0.50267 0.0
C977 C 0.9079 0.59122 0.5327 0.0
C978 C 0.92399 0.57749 0.53029 0.0
C979 C 0.94632 0.58672 0.53493 0.0
C980 C 0.9523 0.61026 0.54088 0.0
C981 C 0.9362 0.62401 0.54319 0.0
H982 H 0.86797 0.63538 0.49098 0.0
H983 H 0.89478 0.62702 0.49547 0.0
H984 H 0.8703 0.60604 0.50095 0.0
H985 H 0.89075 0.58332 0.53036 0.0
H986 H 0.91884 0.55942 0.52566 0.0
H987 H 0.33948 0.37425 0.24786 0.0
H988 H 0.35519 0.39506 0.21081 0.0
H989 H 0.39238 0.44829 0.25621 0.0
H990 H 0.37694 0.4275 0.29339 0.0
H991 H 0.3561 0.44688 0.19467 0.0
H992 H 0.43738 0.41903 0.21507 0.0
H993 H 0.41244 0.40346 0.22796 0.0
H994 H 0.4251 0.43107 0.23973 0.0
C995 C 0.35102 0.39038 0.24994 0.0
C996 C 0.3571 0.39918 0.27352 0.0
C997 C 0.35981 0.40231 0.22879 0.0
C998 C 0.37493 0.4231 0.2309 0.0
C999 C 0.38072 0.43222 0.25431 0.0
H1000 H 0.46137 0.49515 0.12019 0.0
H1001 H 0.44188 0.48559 0.15828 0.0
C1002 C 0.37184 0.42038 0.27546 0.0
C1003 C 0.38551 0.43457 0.2087 0.0
H1004 H 0.4335 0.44218 0.17893 0.0
C1005 C 0.37305 0.44602 0.1912 0.0
C1006 C 0.40763 0.43345 0.20446 0.0
C1007 C 0.4215 0.42101 0.22266 0.0
C1008 C 0.38221 0.45636 0.16932 0.0
C1009 C 0.40415 0.4546 0.1647 0.0
C1010 C 0.41669 0.44354 0.18252 0.0
C1011 C 0.41427 0.46296 0.14104 0.0
C1012 C 0.36838 0.46921 0.15151 0.0
C1013 C 0.40504 0.4537 0.11861 0.0
C1014 C 0.41605 0.45931 0.0967 0.0
C1015 C 0.43664 0.47403 0.09693 0.0
C1016 C 0.44553 0.48379 0.11932 0.0
C1017 C 0.43443 0.47833 0.14114 0.0
H1018 H 0.3551 0.47533 0.16103 0.0
H1019 H 0.37856 0.48447 0.1423 0.0
H1020 H 0.3605 0.45724 0.13702 0.0
H1021 H 0.38976 0.44137 0.11818 0.0
H1022 H 0.40877 0.45145 0.0798 0.0
H1023 H 0.39958 0.62496 0.78861 0.0
H1024 H 0.41951 0.60944 0.82405 0.0
H1025 H 0.37733 0.63427 0.87366 0.0
H1026 H 0.35784 0.65075 0.83831 0.0
H1027 H 0.42051 0.64488 0.88897 0.0
H1028 H 0.40031 0.55156 0.8671 0.0
H1029 H 0.41249 0.56941 0.84189 0.0
H1030 H 0.38613 0.57337 0.85187 0.0
C1031 C 0.39456 0.62724 0.80704 0.0
C1032 C 0.37705 0.63914 0.81053 0.0
C1033 C 0.40581 0.61806 0.8273 0.0
C1034 C 0.3997 0.62032 0.85153 0.0
C1035 C 0.38223 0.63214 0.85513 0.0
H1036 H 0.45529 0.54261 0.9748 0.0
H1037 H 0.42937 0.55971 0.94681 0.0
C1038 C 0.37099 0.6414 0.83486 0.0
C1039 C 0.4121 0.61112 0.87308 0.0
H1040 H 0.42993 0.56196 0.89708 0.0
C1041 C 0.42239 0.62669 0.89089 0.0
C1042 C 0.41428 0.58733 0.87585 0.0
C1043 C 0.40253 0.5694 0.8583 0.0
C1044 C 0.43543 0.61929 0.91085 0.0
C1045 C 0.43862 0.59578 0.91281 0.0
C1046 C 0.42768 0.58004 0.8955 0.0
C1047 C 0.45389 0.58722 0.93197 0.0
C1048 C 0.44559 0.63675 0.92968 0.0
C1049 C 0.47628 0.5972 0.93329 0.0
C1050 C 0.49114 0.58758 0.94941 0.0
C1051 C 0.484 0.56754 0.96437 0.0
C1052 C 0.46141 0.55806 0.96363 0.0
C1053 C 0.44655 0.56777 0.94755 0.0
H1054 H 0.4361 0.65125 0.93025 0.0
H1055 H 0.44654 0.62839 0.94851 0.0
H1056 H 0.46252 0.6444 0.9245 0.0
H1057 H 0.48247 0.61188 0.9211 0.0
H1058 H 0.5084 0.59528 0.9493 0.0
H1059 H 0.34015 0.38223 0.80996 0.0
H1060 H 0.35893 0.40357 0.84489 0.0
H1061 H 0.41634 0.37246 0.83623 0.0
H1062 H 0.3972 0.34984 0.80236 0.0
H1063 H 0.40902 0.37464 0.88419 0.0
H1064 H 0.40481 0.46076 0.83733 0.0
H1065 H 0.37835 0.44312 0.8414 0.0
H1066 H 0.39727 0.43382 0.82153 0.0
C1067 C 0.35662 0.37954 0.81569 0.0
C1068 C 0.36716 0.36437 0.80302 0.0
C1069 C 0.36748 0.39208 0.83551 0.0
C1070 C 0.38928 0.39011 0.84286 0.0
C1071 C 0.39961 0.37448 0.83078 0.0
H1072 H 0.48831 0.48811 0.91482 0.0
H1073 H 0.46272 0.46338 0.88767 0.0
C1074 C 0.38869 0.36173 0.81117 0.0
C1075 C 0.40158 0.40464 0.86269 0.0
H1076 H 0.41991 0.46104 0.87833 0.0
C1077 C 0.41136 0.39354 0.88297 0.0
C1078 C 0.40481 0.42933 0.861 0.0
C1079 C 0.39595 0.4425 0.83905 0.0
C1080 C 0.42455 0.4064 0.9013 0.0
C1081 C 0.42761 0.43107 0.89969 0.0
C1082 C 0.41743 0.44213 0.8797 0.0
C1083 C 0.44295 0.4459 0.91702 0.0
C1084 C 0.43585 0.39343 0.9216 0.0
C1085 C 0.4404 0.44453 0.94275 0.0
C1086 C 0.45533 0.45861 0.95856 0.0
C1087 C 0.47286 0.47454 0.94885 0.0
C1088 C 0.47504 0.47609 0.92305 0.0
C1089 C 0.46035 0.46193 0.90741 0.0
H1090 H 0.43598 0.3751 0.91693 0.0
H1091 H 0.45309 0.4022 0.92527 0.0
H1092 H 0.42696 0.39309 0.93888 0.0
H1093 H 0.42682 0.43269 0.9506 0.0
H1094 H 0.45309 0.4571 0.97831 0.0
H1095 H 0.63543 0.39909 0.76398 0.0
H1096 H 0.61879 0.41938 0.7944 0.0
H1097 H 0.66346 0.3983 0.85172 0.0
H1098 H 0.67985 0.37733 0.82161 0.0
H1099 H 0.59942 0.39739 0.84026 0.0
H1100 H 0.66824 0.47119 0.85693 0.0
H1101 H 0.66548 0.4546 0.82925 0.0
H1102 H 0.6749 0.44225 0.85804 0.0
C1103 C 0.64164 0.39854 0.78307 0.0
C1104 C 0.659 0.38647 0.79027 0.0
C1105 C 0.63222 0.41034 0.80039 0.0
C1106 C 0.64008 0.41056 0.82522 0.0
C1107 C 0.65742 0.39867 0.83254 0.0
H1108 H 0.59344 0.47263 0.95267 0.0
H1109 H 0.61563 0.45405 0.92584 0.0
C1110 C 0.66679 0.38672 0.81526 0.0
C1111 C 0.62936 0.42235 0.84358 0.0
H1112 H 0.63684 0.46944 0.88032 0.0
C1113 C 0.60761 0.4131 0.84907 0.0
C1114 C 0.64019 0.44272 0.85519 0.0
C1115 C 0.66346 0.45347 0.84955 0.0
C1116 C 0.5963 0.42374 0.86578 0.0
C1117 C 0.60686 0.44452 0.87685 0.0
C1118 C 0.62879 0.45354 0.87178 0.0
C1119 C 0.59486 0.45755 0.89278 0.0
C1120 C 0.57314 0.41254 0.87152 0.0
C1121 C 0.57635 0.46636 0.88289 0.0
C1122 C 0.56365 0.47671 0.89809 0.0
C1123 C 0.56931 0.47877 0.92353 0.0
C1124 C 0.58857 0.47112 0.9332 0.0
C1125 C 0.60125 0.46054 0.91791 0.0
H1126 H 0.5698 0.39375 0.86727 0.0
H1127 H 0.57003 0.4142 0.8913 0.0
H1128 H 0.56132 0.42137 0.86001 0.0
H1129 H 0.57145 0.46479 0.86343 0.0
H1130 H 0.54917 0.48284 0.8899 0.0
H1131 H 0.63218 0.59296 0.73163 0.0
H1132 H 0.61692 0.57525 0.77023 0.0
H1133 H 0.67072 0.61523 0.81206 0.0
H1134 H 0.68553 0.6338 0.77381 0.0
H1135 H 0.63419 0.54948 0.81023 0.0
H1136 H 0.61621 0.63416 0.83905 0.0
H1137 H 0.62344 0.6298 0.80803 0.0
H1138 H 0.64445 0.63477 0.83249 0.0
C1139 C 0.6407 0.59808 0.74905 0.0
C1140 C 0.65995 0.61501 0.74961 0.0
C1141 C 0.63208 0.58776 0.77105 0.0
C1142 C 0.64254 0.5942 0.79395 0.0
C1143 C 0.66224 0.61029 0.79455 0.0
H1144 H 0.60538 0.56721 0.94586 0.0
H1145 H 0.62642 0.57644 0.90869 0.0
C1146 C 0.67079 0.62072 0.77262 0.0
C1147 C 0.63224 0.58513 0.81727 0.0
H1148 H 0.61036 0.60249 0.86821 0.0
C1149 C 0.62896 0.56101 0.82294 0.0
C1150 C 0.62534 0.60026 0.8337 0.0
C1151 C 0.62732 0.62616 0.82797 0.0
C1152 C 0.6192 0.55168 0.84489 0.0
C1153 C 0.61246 0.56689 0.86131 0.0
C1154 C 0.61579 0.59094 0.85564 0.0
C1155 C 0.60101 0.55839 0.88405 0.0
C1156 C 0.61636 0.52572 0.85052 0.0
C1157 C 0.57984 0.54503 0.88245 0.0
C1158 C 0.56769 0.53993 0.90359 0.0
C1159 C 0.57653 0.54809 0.92669 0.0
C1160 C 0.59806 0.56075 0.92834 0.0
C1161 C 0.61014 0.56595 0.90717 0.0
H1162 H 0.62704 0.51726 0.83932 0.0
H1163 H 0.62015 0.52194 0.87046 0.0
H1164 H 0.599 0.51774 0.84617 0.0
H1165 H 0.57236 0.53941 0.86469 0.0
H1166 H 0.55114 0.5302 0.90164 0.0
H1167 H 0.65592 0.68229 0.19136 0.0
H1168 H 0.63465 0.66206 0.15677 0.0
H1169 H 0.60431 0.60858 0.20784 0.0
H1170 H 0.62501 0.62886 0.24244 0.0
H1171 H 0.6336 0.61549 0.14174 0.0
H1172 H 0.55175 0.62954 0.16835 0.0
H1173 H 0.57712 0.64605 0.18083 0.0
H1174 H 0.5672 0.61711 0.19307 0.0
C1175 C 0.64454 0.66634 0.19524 0.0
C1176 C 0.64213 0.65724 0.2197 0.0
C1177 C 0.63252 0.65474 0.17544 0.0
C1178 C 0.6177 0.63398 0.17976 0.0
C1179 C 0.61541 0.62476 0.2041 0.0
H1180 H 0.53062 0.52725 0.10612 0.0
H1181 H 0.55489 0.5533 0.13344 0.0
C1182 C 0.62743 0.63627 0.22385 0.0
C1183 C 0.6047 0.62166 0.15896 0.0
H1184 H 0.55201 0.60063 0.13867 0.0
C1185 C 0.61577 0.61248 0.14081 0.0
C1186 C 0.58144 0.6179 0.15773 0.0
C1187 C 0.56865 0.62836 0.17589 0.0
C1188 C 0.60413 0.59858 0.12222 0.0
C1189 C 0.58087 0.59406 0.12163 0.0
C1190 C 0.56986 0.604 0.13923 0.0
C1191 C 0.56752 0.57773 0.10419 0.0
C1192 C 0.61676 0.58799 0.10402 0.0
C1193 C 0.56673 0.58265 0.0785 0.0
C1194 C 0.55278 0.56765 0.06264 0.0
C1195 C 0.53932 0.54761 0.0723 0.0
C1196 C 0.54064 0.54256 0.09799 0.0
C1197 C 0.55452 0.55746 0.1137 0.0
H1198 H 0.63455 0.58988 0.10958 0.0
H1199 H 0.60998 0.56918 0.1022 0.0
H1200 H 0.6151 0.59682 0.08555 0.0
H1201 H 0.57642 0.59837 0.07079 0.0
H1202 H 0.55209 0.57208 0.04298 0.0
H1203 H 0.32512 0.61001 0.2262 0.0
H1204 H 0.34103 0.58883 0.19587 0.0
H1205 H 0.39926 0.64166 0.19643 0.0
H1206 H 0.38323 0.6633 0.22622 0.0
H1207 H 0.38329 0.62795 0.1485 0.0
H1208 H 0.39122 0.55155 0.21201 0.0
H1209 H 0.36414 0.55897 0.20843 0.0
H1210 H 0.38616 0.57883 0.2229 0.0
C1211 C 0.34122 0.61726 0.2197 0.0
C1212 C 0.35293 0.63833 0.22876 0.0
C1213 C 0.35038 0.605 0.20254 0.0
C1214 C 0.37145 0.6135 0.19414 0.0
C1215 C 0.38301 0.63472 0.20277 0.0
H1216 H 0.46661 0.549 0.12883 0.0
H1217 H 0.44352 0.56682 0.15448 0.0
C1218 C 0.3739 0.64697 0.21995 0.0
C1219 C 0.38161 0.60027 0.17653 0.0
H1220 H 0.40155 0.5497 0.17099 0.0
C1221 C 0.38717 0.61078 0.15331 0.0
C1222 C 0.38677 0.57793 0.18296 0.0
C1223 C 0.38196 0.56616 0.20799 0.0
C1224 C 0.39802 0.59968 0.13647 0.0
C1225 C 0.40321 0.57735 0.14293 0.0
C1226 C 0.39736 0.56671 0.16599 0.0
C1227 C 0.41653 0.56571 0.12707 0.0
C1228 C 0.4046 0.6123 0.11233 0.0
C1229 C 0.4089 0.5588 0.10316 0.0
C1230 C 0.42217 0.54856 0.08828 0.0
C1231 C 0.44326 0.54509 0.09712 0.0
C1232 C 0.45055 0.55158 0.12128 0.0
C1233 C 0.43733 0.56172 0.13607 0.0
H1234 H 0.40306 0.63103 0.1122 0.0
H1235 H 0.42184 0.61102 0.10864 0.0
H1236 H 0.3938 0.60409 0.09697 0.0
H1237 H 0.39273 0.56136 0.09601 0.0
H1238 H 0.416 0.54358 0.06984 0.0
H1239 H 0.66056 0.41055 0.20157 0.0
H1240 H 0.63829 0.42691 0.16841 0.0
H1241 H 0.58781 0.36609 0.17474 0.0
H1242 H 0.60962 0.3499 0.20813 0.0
H1243 H 0.62115 0.40708 0.1219 0.0
H1244 H 0.55496 0.42131 0.18161 0.0
H1245 H 0.5816 0.41643 0.19404 0.0
H1246 H 0.5613 0.3923 0.18405 0.0
C1247 C 0.64464 0.40075 0.19603 0.0
C1248 C 0.63688 0.37892 0.20756 0.0
C1249 C 0.63201 0.41005 0.17698 0.0
C1250 C 0.6113 0.39782 0.16929 0.0
C1251 C 0.60362 0.37596 0.18058 0.0
H1252 H 0.50434 0.42361 0.06723 0.0
H1253 H 0.5297 0.40626 0.09569 0.0
C1254 C 0.61623 0.36662 0.19952 0.0
C1255 C 0.59761 0.40783 0.14952 0.0
H1256 H 0.54818 0.426 0.1383 0.0
C1257 C 0.60524 0.41135 0.12546 0.0
C1258 C 0.57687 0.41337 0.15423 0.0
C1259 C 0.56822 0.41088 0.17991 0.0
C1260 C 0.5924 0.41969 0.10581 0.0
C1261 C 0.57156 0.42503 0.1105 0.0
C1262 C 0.56408 0.42173 0.13465 0.0
C1263 C 0.5572 0.43434 0.09084 0.0
C1264 C 0.60103 0.42211 0.08014 0.0
C1265 C 0.56432 0.45572 0.07822 0.0
C1266 C 0.54989 0.46565 0.06175 0.0
C1267 C 0.52792 0.45453 0.05778 0.0
C1268 C 0.52111 0.43269 0.06978 0.0
C1269 C 0.53558 0.42276 0.08615 0.0
H1270 H 0.61399 0.41132 0.07837 0.0
H1271 H 0.58759 0.41697 0.06595 0.0
H1272 H 0.60838 0.4406 0.07617 0.0
H1273 H 0.58076 0.46525 0.08188 0.0
H1274 H 0.55569 0.48257 0.05305 0.0
loop_
_geom_bond_atom_site_label_1
_geom_bond_atom_site_label_2
_geom_bond_distance
_geom_bond_site_symmetry_2
_ccdc_geom_bond_type
C0 C1 1.386 . S
C0 C2 1.397 . S
C0 H24 0.931 . S
C1 C0 1.386 . S
C1 C5 1.397 . S
C2 C0 1.397 . S
C2 C3 1.384 . S
C2 H25 0.930 . S
C3 C2 1.384 . S
C3 C4 1.377 . S
C3 C6 1.481 . S
C4 C3 1.377 . S
C4 C5 1.389 . S
C4 H26 0.929 . S
C5 C1 1.397 . S
C5 C4 1.389 . S
C5 H27 0.931 . S
C6 C3 1.481 . S
C6 C7 1.387 . S
C6 C11 1.390 . S
C7 C6 1.387 . S
C7 C8 1.401 . S
C7 H28 0.930 . S
C8 C7 1.401 . S
C8 C9 1.376 . S
C8 C17 1.511 . S
C9 C8 1.376 . S
C9 C10 1.392 . S
C9 H30 0.931 . S
C10 C9 1.392 . S
C10 C11 1.361 . S
C10 C12 1.500 . S
C11 C6 1.390 . S
C11 C10 1.361 . S
C11 H29 0.931 . S
C12 C10 1.500 . S
C12 C13 1.371 . S
C12 C14 1.365 . S
C13 C12 1.371 . S
C13 C23 1.386 . S
C13 H31 0.931 . S
C14 C12 1.365 . S
C14 C15 1.409 . S
C14 H32 0.929 . S
C15 C14 1.409 . S
C15 C16 1.380 . S
C15 H33 0.930 . S
C16 C15 1.380 . S
C16 C23 1.357 . S
C17 C8 1.511 . S
C17 C18 1.341 . S
C17 C19 1.371 . S
C18 C17 1.341 . S
C18 C22 1.394 . S
C18 H34 0.930 . S
C19 C17 1.371 . S
C19 C20 1.392 . S
C19 H35 0.931 . S
C20 C19 1.392 . S
C20 C21 1.331 . S
C20 H38 0.932 . S
C21 C20 1.331 . S
C21 C22 1.336 . S
C22 C18 1.394 . S
C22 C21 1.336 . S
C22 H37 0.929 . S
C23 C13 1.386 . S
C23 C16 1.357 . S
C23 H36 0.928 . S
H24 C0 0.931 . S
H25 C2 0.930 . S
H26 C4 0.929 . S
H27 C5 0.931 . S
H28 C7 0.930 . S
H29 C11 0.931 . S
H30 C9 0.931 . S
H31 C13 0.931 . S
H32 C14 0.929 . S
H33 C15 0.930 . S
H34 C18 0.930 . S
H35 C19 0.931 . S
H36 C23 0.928 . S
H37 C22 0.929 . S
H38 C20 0.932 . S
C39 C40 1.386 . S
C39 C41 1.397 . S
C39 H63 0.931 . S
C40 C39 1.386 . S
C40 C44 1.397 . S
C41 C39 1.397 . S
C41 C42 1.384 . S
C41 H64 0.930 . S
C42 C41 1.384 . S
C42 C43 1.377 . S
C42 C45 1.481 . S
C43 C42 1.377 . S
C43 C44 1.389 . S
C43 H65 0.929 . S
C44 C40 1.397 . S
C44 C43 1.389 . S
C44 H66 0.931 . S
C45 C42 1.481 . S
C45 C46 1.387 . S
C45 C50 1.390 . S
C46 C45 1.387 . S
C46 C47 1.401 . S
C46 H67 0.930 . S
C47 C46 1.401 . S
C47 C48 1.376 . S
C47 C56 1.511 . S
C48 C47 1.376 . S
C48 C49 1.392 . S
C48 H69 0.931 . S
C49 C48 1.392 . S
C49 C50 1.361 . S
C49 C51 1.500 . S
C50 C45 1.390 . S
C50 C49 1.361 . S
C50 H68 0.931 . S
C51 C49 1.500 . S
C51 C52 1.371 . S
C51 C53 1.365 . S
C52 C51 1.371 . S
C52 C62 1.386 . S
C52 H70 0.931 . S
C53 C51 1.365 . S
C53 C54 1.409 . S
C53 H71 0.929 . S
C54 C53 1.409 . S
C54 C55 1.380 . S
C54 H72 0.930 . S
C55 C54 1.380 . S
C55 C62 1.357 . S
C56 C47 1.511 . S
C56 C57 1.341 . S
C56 C58 1.371 . S
C57 C56 1.341 . S
C57 C61 1.394 . S
C57 H73 0.930 . S
C58 C56 1.371 . S
C58 C59 1.392 . S
C58 H74 0.931 . S
C59 C58 1.392 . S
C59 C60 1.331 . S
C59 H77 0.932 . S
C60 C59 1.331 . S
C60 C61 1.336 . S
C61 C57 1.394 . S
C61 C60 1.336 . S
C61 H76 0.929 . S
C62 C52 1.386 . S
C62 C55 1.357 . S
C62 H75 0.928 . S
H63 C39 0.931 . S
H64 C41 0.930 . S
H65 C43 0.929 . S
H66 C44 0.931 . S
H67 C46 0.930 . S
H68 C50 0.931 . S
H69 C48 0.931 . S
H70 C52 0.931 . S
H71 C53 0.929 . S
H72 C54 0.930 . S
H73 C57 0.930 . S
H74 C58 0.931 . S
H75 C62 0.928 . S
H76 C61 0.929 . S
H77 C59 0.932 . S
C78 C79 1.386 . S
C78 C80 1.397 . S
C78 H102 0.931 . S
C79 C78 1.386 . S
C79 C83 1.397 . S
C80 C78 1.397 . S
C80 C81 1.384 . S
C80 H103 0.930 . S
C81 C80 1.384 . S
C81 C82 1.377 . S
C81 C84 1.481 . S
C82 C81 1.377 . S
C82 C83 1.389 . S
C82 H104 0.929 . S
C83 C79 1.397 . S
C83 C82 1.389 . S
C83 H105 0.931 . S
C84 C81 1.481 . S
C84 C85 1.387 . S
C84 C89 1.390 . S
C85 C84 1.387 . S
C85 C86 1.401 . S
C85 H106 0.930 . S
C86 C85 1.401 . S
C86 C87 1.376 . S
C86 C95 1.511 . S
C87 C86 1.376 . S
C87 C88 1.392 . S
C87 H108 0.931 . S
C88 C87 1.392 . S
C88 C89 1.361 . S
C88 C90 1.500 . S
C89 C84 1.390 . S
C89 C88 1.361 . S
C89 H107 0.931 . S
C90 C88 1.500 . S
C90 C91 1.371 . S
C90 C92 1.365 . S
C91 C90 1.371 . S
C91 C101 1.386 . S
C91 H109 0.931 . S
C92 C90 1.365 . S
C92 C93 1.409 . S
C92 H110 0.929 . S
C93 C92 1.409 . S
C93 C94 1.380 . S
C93 H111 0.930 . S
C94 C93 1.380 . S
C94 C101 1.357 . S
C95 C86 1.511 . S
C95 C96 1.341 . S
C95 C97 1.371 . S
C96 C95 1.341 . S
C96 C100 1.394 . S
C96 H112 0.930 . S
C97 C95 1.371 . S
C97 C98 1.392 . S
C97 H113 0.931 . S
C98 C97 1.392 . S
C98 C99 1.331 . S
C98 H116 0.932 . S
C99 C98 1.331 . S
C99 C100 1.336 . S
C100 C96 1.394 . S
C100 C99 1.336 . S
C100 H115 0.929 . S
C101 C91 1.386 . S
C101 C94 1.357 . S
C101 H114 0.928 . S
H102 C78 0.931 . S
H103 C80 0.930 . S
H104 C82 0.929 . S
H105 C83 0.931 . S
H106 C85 0.930 . S
H107 C89 0.931 . S
H108 C87 0.931 . S
H109 C91 0.931 . S
H110 C92 0.929 . S
H111 C93 0.930 . S
H112 C96 0.930 . S
H113 C97 0.931 . S
H114 C101 0.928 . S
H115 C100 0.929 . S
H116 C98 0.932 . S
C117 C118 1.386 . S
C117 C119 1.397 . S
C117 H141 0.931 . S
C118 C117 1.386 . S
C118 C122 1.397 . S
C119 C117 1.397 . S
C119 C120 1.384 . S
C119 H142 0.930 . S
C120 C119 1.384 . S
C120 C121 1.377 . S
C120 C123 1.481 . S
C121 C120 1.377 . S
C121 C122 1.389 . S
C121 H143 0.929 . S
C122 C118 1.397 . S
C122 C121 1.389 . S
C122 H144 0.931 . S
C123 C120 1.481 . S
C123 C124 1.387 . S
C123 C128 1.390 . S
C124 C123 1.387 . S
C124 C125 1.401 . S
C124 H145 0.930 . S
C125 C124 1.401 . S
C125 C126 1.376 . S
C125 C134 1.511 . S
C126 C125 1.376 . S
C126 C127 1.392 . S
C126 H147 0.931 . S
C127 C126 1.392 . S
C127 C128 1.361 . S
C127 C129 1.500 . S
C128 C123 1.390 . S
C128 C127 1.361 . S
C128 H146 0.931 . S
C129 C127 1.500 . S
C129 C130 1.371 . S
C129 C131 1.365 . S
C130 C129 1.371 . S
C130 C140 1.386 . S
C130 H148 0.931 . S
C131 C129 1.365 . S
C131 C132 1.409 . S
C131 H149 0.929 . S
C132 C131 1.409 . S
C132 C133 1.380 . S
C132 H150 0.930 . S
C133 C132 1.380 . S
C133 C140 1.357 . S
C134 C125 1.511 . S
C134 C135 1.341 . S
C134 C136 1.371 . S
C135 C134 1.341 . S
C135 C139 1.394 . S
C135 H151 0.930 . S
C136 C134 1.371 . S
C136 C137 1.392 . S
C136 H152 0.931 . S
C137 C136 1.392 . S
C137 C138 1.331 . S
C137 H155 0.932 . S
C138 C137 1.331 . S
C138 C139 1.336 . S
C139 C135 1.394 . S
C139 C138 1.336 . S
C139 H154 0.929 . S
C140 C130 1.386 . S
C140 C133 1.357 . S
C140 H153 0.928 . S
H141 C117 0.931 . S
H142 C119 0.930 . S
H143 C121 0.929 . S
H144 C122 0.931 . S
H145 C124 0.930 . S
H146 C128 0.931 . S
H147 C126 0.931 . S
H148 C130 0.931 . S
H149 C131 0.929 . S
H150 C132 0.930 . S
H151 C135 0.930 . S
H152 C136 0.931 . S
H153 C140 0.928 . S
H154 C139 0.929 . S
H155 C137 0.932 . S
C156 C157 1.386 . S
C156 C158 1.397 . S
C156 H180 0.931 . S
C157 C156 1.386 . S
C157 C161 1.397 . S
C158 C156 1.397 . S
C158 C159 1.384 . S
C158 H181 0.930 . S
C159 C158 1.384 . S
C159 C160 1.377 . S
C159 C162 1.481 . S
C160 C159 1.377 . S
C160 C161 1.389 . S
C160 H182 0.929 . S
C161 C157 1.397 . S
C161 C160 1.389 . S
C161 H183 0.931 . S
C162 C159 1.481 . S
C162 C163 1.387 . S
C162 C167 1.390 . S
C163 C162 1.387 . S
C163 C164 1.401 . S
C163 H184 0.930 . S
C164 C163 1.401 . S
C164 C165 1.376 . S
C164 C173 1.511 . S
C165 C164 1.376 . S
C165 C166 1.392 . S
C165 H186 0.931 . S
C166 C165 1.392 . S
C166 C167 1.361 . S
C166 C168 1.500 . S
C167 C162 1.390 . S
C167 C166 1.361 . S
C167 H185 0.931 . S
C168 C166 1.500 . S
C168 C169 1.371 . S
C168 C170 1.365 . S
C169 C168 1.371 . S
C169 C179 1.386 . S
C169 H187 0.931 . S
C170 C168 1.365 . S
C170 C171 1.409 . S
C170 H188 0.929 . S
C171 C170 1.409 . S
C171 C172 1.380 . S
C171 H189 0.930 . S
C172 C171 1.380 . S
C172 C179 1.357 . S
C173 C164 1.511 . S
C173 C174 1.341 . S
C173 C175 1.371 . S
C174 C173 1.341 . S
C174 C178 1.394 . S
C174 H190 0.930 . S
C175 C173 1.371 . S
C175 C176 1.392 . S
C175 H191 0.931 . S
C176 C175 1.392 . S
C176 C177 1.331 . S
C176 H194 0.932 . S
C177 C176 1.331 . S
C177 C178 1.336 . S
C178 C174 1.394 . S
C178 C177 1.336 . S
C178 H193 0.929 . S
C179 C169 1.386 . S
C179 C172 1.357 . S
C179 H192 0.928 . S
H180 C156 0.931 . S
H181 C158 0.930 . S
H182 C160 0.929 . S
H183 C161 0.931 . S
H184 C163 0.930 . S
H185 C167 0.931 . S
H186 C165 0.931 . S
H187 C169 0.931 . S
H188 C170 0.929 . S
H189 C171 0.930 . S
H190 C174 0.930 . S
H191 C175 0.931 . S
H192 C179 0.928 . S
H193 C178 0.929 . S
H194 C176 0.932 . S
C195 C196 1.386 . S
C195 C197 1.397 . S
C195 H219 0.931 . S
C196 C195 1.386 . S
C196 C200 1.397 . S
C197 C195 1.397 . S
C197 C198 1.384 . S
C197 H220 0.930 . S
C198 C197 1.384 . S
C198 C199 1.377 . S
C198 C201 1.481 . S
C199 C198 1.377 . S
C199 C200 1.389 . S
C199 H221 0.929 . S
C200 C196 1.397 . S
C200 C199 1.389 . S
C200 H222 0.931 . S
C201 C198 1.481 . S
C201 C202 1.387 . S
C201 C206 1.390 . S
C202 C201 1.387 . S
C202 C203 1.401 . S
C202 H223 0.930 . S
C203 C202 1.401 . S
C203 C204 1.376 . S
C203 C212 1.511 . S
C204 C203 1.376 . S
C204 C205 1.392 . S
C204 H225 0.931 . S
C205 C204 1.392 . S
C205 C206 1.361 . S
C205 C207 1.500 . S
C206 C201 1.390 . S
C206 C205 1.361 . S
C206 H224 0.931 . S
C207 C205 1.500 . S
C207 C208 1.371 . S
C207 C209 1.365 . S
C208 C207 1.371 . S
C208 C218 1.386 . S
C208 H226 0.931 . S
C209 C207 1.365 . S
C209 C210 1.409 . S
C209 H227 0.929 . S
C210 C209 1.409 . S
C210 C211 1.380 . S
C210 H228 0.930 . S
C211 C210 1.380 . S
C211 C218 1.357 . S
C212 C203 1.511 . S
C212 C213 1.341 . S
C212 C214 1.371 . S
C213 C212 1.341 . S
C213 C217 1.394 . S
C213 H229 0.930 . S
C214 C212 1.371 . S
C214 C215 1.392 . S
C214 H230 0.931 . S
C215 C214 1.392 . S
C215 C216 1.331 . S
C215 H233 0.932 . S
C216 C215 1.331 . S
C216 C217 1.336 . S
C217 C213 1.394 . S
C217 C216 1.336 . S
C217 H232 0.929 . S
C218 C208 1.386 . S
C218 C211 1.357 . S
C218 H231 0.928 . S
H219 C195 0.931 . S
H220 C197 0.930 . S
H221 C199 0.929 . S
H222 C200 0.931 . S
H223 C202 0.930 . S
H224 C206 0.931 . S
H225 C204 0.931 . S
H226 C208 0.931 . S
H227 C209 0.929 . S
H228 C210 0.930 . S
H229 C213 0.930 . S
H230 C214 0.931 . S
H231 C218 0.928 . S
H232 C217 0.929 . S
H233 C215 0.932 . S
C234 C235 1.386 . S
C234 C236 1.397 . S
C234 H258 0.931 . S
C235 C234 1.386 . S
C235 C239 1.397 . S
C236 C234 1.397 . S
C236 C237 1.384 . S
C236 H259 0.930 . S
C237 C236 1.384 . S
C237 C238 1.377 . S
C237 C240 1.481 . S
C238 C237 1.377 . S
C238 C239 1.389 . S
C238 H260 0.929 . S
C239 C235 1.397 . S
C239 C238 1.389 . S
C239 H261 0.931 . S
C240 C237 1.481 . S
C240 C241 1.387 . S
C240 C245 1.390 . S
C241 C240 1.387 . S
C241 C242 1.401 . S
C241 H262 0.930 . S
C242 C241 1.401 . S
C242 C243 1.376 . S
C242 C251 1.511 . S
C243 C242 1.376 . S
C243 C244 1.392 . S
C243 H264 0.931 . S
C244 C243 1.392 . S
C244 C245 1.361 . S
C244 C246 1.500 . S
C245 C240 1.390 . S
C245 C244 1.361 . S
C245 H263 0.931 . S
C246 C244 1.500 . S
C246 C247 1.371 . S
C246 C248 1.365 . S
C247 C246 1.371 . S
C247 C257 1.386 . S
C247 H265 0.931 . S
C248 C246 1.365 . S
C248 C249 1.409 . S
C248 H266 0.929 . S
C249 C248 1.409 . S
C249 C250 1.380 . S
C249 H267 0.930 . S
C250 C249 1.380 . S
C250 C257 1.357 . S
C251 C242 1.511 . S
C251 C252 1.341 . S
C251 C253 1.371 . S
C252 C251 1.341 . S
C252 C256 1.394 . S
C252 H268 0.930 . S
C253 C251 1.371 . S
C253 C254 1.392 . S
C253 H269 0.931 . S
C254 C253 1.392 . S
C254 C255 1.331 . S
C254 H272 0.932 . S
C255 C254 1.331 . S
C255 C256 1.336 . S
C256 C252 1.394 . S
C256 C255 1.336 . S
C256 H271 0.929 . S
C257 C247 1.386 . S
C257 C250 1.357 . S
C257 H270 0.928 . S
H258 C234 0.931 . S
H259 C236 0.930 . S
H260 C238 0.929 . S
H261 C239 0.931 . S
H262 C241 0.930 . S
H263 C245 0.931 . S
H264 C243 0.931 . S
H265 C247 0.931 . S
H266 C248 0.929 . S
H267 C249 0.930 . S
H268 C252 0.930 . S
H269 C253 0.931 . S
H270 C257 0.928 . S
H271 C256 0.929 . S
H272 C254 0.932 . S
C273 C274 1.386 . S
C273 C275 1.397 . S
C273 H297 0.931 . S
C274 C273 1.386 . S
C274 C278 1.397 . S
C275 C273 1.397 . S
C275 C276 1.384 . S
C275 H298 0.930 . S
C276 C275 1.384 . S
C276 C277 1.377 . S
C276 C279 1.481 . S
C277 C276 1.377 . S
C277 C278 1.389 . S
C277 H299 0.929 . S
C278 C274 1.397 . S
C278 C277 1.389 . S
C278 H300 0.931 . S
C279 C276 1.481 . S
C279 C280 1.387 . S
C279 C284 1.390 . S
C280 C279 1.387 . S
C280 C281 1.401 . S
C280 H301 0.930 . S
C281 C280 1.401 . S
C281 C282 1.376 . S
C281 C290 1.511 . S
C282 C281 1.376 . S
C282 C283 1.392 . S
C282 H303 0.931 . S
C283 C282 1.392 . S
C283 C284 1.361 . S
C283 C285 1.500 . S
C284 C279 1.390 . S
C284 C283 1.361 . S
C284 H302 0.931 . S
C285 C283 1.500 . S
C285 C286 1.371 . S
C285 C287 1.365 . S
C286 C285 1.371 . S
C286 C296 1.386 . S
C286 H304 0.931 . S
C287 C285 1.365 . S
C287 C288 1.409 . S
C287 H305 0.929 . S
C288 C287 1.409 . S
C288 C289 1.380 . S
C288 H306 0.930 . S
C289 C288 1.380 . S
C289 C296 1.357 . S
C290 C281 1.511 . S
C290 C291 1.341 . S
C290 C292 1.371 . S
C291 C290 1.341 . S
C291 C295 1.394 . S
C291 H307 0.930 . S
C292 C290 1.371 . S
C292 C293 1.392 . S
C292 H308 0.931 . S
C293 C292 1.392 . S
C293 C294 1.331 . S
C293 H311 0.932 . S
C294 C293 1.331 . S
C294 C295 1.336 . S
C295 C291 1.394 . S
C295 C294 1.336 . S
C295 H310 0.929 . S
C296 C286 1.386 . S
C296 C289 1.357 . S
C296 H309 0.928 . S
H297 C273 0.931 . S
H298 C275 0.930 . S
H299 C277 0.929 . S
H300 C278 0.931 . S
H301 C280 0.930 . S
H302 C284 0.931 . S
H303 C282 0.931 . S
H304 C286 0.931 . S
H305 C287 0.929 . S
H306 C288 0.930 . S
H307 C291 0.930 . S
H308 C292 0.931 . S
H309 C296 0.928 . S
H310 C295 0.929 . S
H311 C293 0.932 . S
Co312 O315 2.042 . S
Co312 O322 2.264 . S
Co312 O341 2.286 . S
Co312 O342 2.069 . S
Co312 O344 2.015 . S
Co313 O315 2.122 . S
Co313 O321 2.073 . S
Co313 O322 2.327 . S
Co313 O323 1.976 . S
Co314 O315 2.087 . S
Co314 O317 2.087 1_455 S
Co314 O324 2.111 . S
Co314 O325 2.143 1_455 S
Co314 O329 2.111 1_455 S
Co314 O343 2.143 . S
O315 Co312 2.042 . S
O315 Co313 2.122 . S
O315 Co314 2.087 . S
O315 H316 0.980 . S
H316 O315 0.980 . S
O317 Co314 2.087 1_655 S
O317 Co318 2.042 . S
O317 Co319 2.122 . S
O317 H320 0.980 . S
Co318 O317 2.042 . S
Co318 O326 2.286 . S
Co318 O327 2.069 . S
Co318 O328 2.015 . S
Co318 O331 2.264 . S
Co319 O317 2.122 . S
Co319 O330 1.976 . S
Co319 O331 2.327 . S
Co319 O332 2.073 . S
H320 O317 0.980 . S
O321 Co313 2.073 . S
O321 C336 1.245 . S
O322 Co312 2.264 . S
O322 Co313 2.327 . S
O322 C336 1.257 . S
O323 Co313 1.976 . S
O323 C335 1.251 . S
O324 Co314 2.111 . S
O324 C335 1.274 . S
O325 Co314 2.143 1_655 S
O325 C338 1.246 . S
O326 Co318 2.286 . S
O326 C337 1.259 . S
O327 Co318 2.069 . S
O327 C337 1.289 . S
O328 Co318 2.015 . S
O328 C338 1.257 . S
O329 Co314 2.111 1_655 S
O329 C339 1.274 . S
O330 Co319 1.976 . S
O330 C339 1.251 . S
O331 Co318 2.264 . S
O331 Co319 2.327 . S
O331 C340 1.257 . S
O332 Co319 2.073 . S
O332 C340 1.245 . S
C333 O341 1.259 . S
C333 O342 1.289 . S
C334 O343 1.246 . S
C334 O344 1.257 . S
C335 O323 1.251 . S
C335 O324 1.274 . S
C336 O321 1.245 . S
C336 O322 1.257 . S
C337 O326 1.259 . S
C337 O327 1.289 . S
C338 O325 1.246 . S
C338 O328 1.257 . S
C339 O329 1.274 . S
C339 O330 1.251 . S
C340 O331 1.257 . S
C340 O332 1.245 . S
O341 Co312 2.286 . S
O341 C333 1.259 . S
O342 Co312 2.069 . S
O342 C333 1.289 . S
O343 Co314 2.143 . S
O343 C334 1.246 . S
O344 Co312 2.015 . S
O344 C334 1.257 . S
Co345 O348 2.042 . S
Co345 O355 2.264 . S
Co345 O374 2.286 . S
Co345 O375 2.069 . S
Co345 O377 2.015 . S
Co346 O348 2.122 . S
Co346 O354 2.073 . S
Co346 O355 2.327 . S
Co346 O356 1.976 . S
Co347 O348 2.087 1_545 S
Co347 O350 2.087 . S
Co347 O357 2.111 1_545 S
Co347 O358 2.143 . S
Co347 O362 2.111 . S
Co347 O376 2.143 1_545 S
O348 Co345 2.042 . S
O348 Co346 2.122 . S
O348 Co347 2.087 1_565 S
O348 H349 0.980 . S
H349 O348 0.980 . S
O350 Co347 2.087 . S
O350 Co351 2.042 . S
O350 Co352 2.122 . S
O350 H353 0.980 . S
Co351 O350 2.042 . S
Co351 O359 2.286 . S
Co351 O360 2.069 . S
Co351 O361 2.015 . S
Co351 O364 2.264 . S
Co352 O350 2.122 . S
Co352 O363 1.976 . S
Co352 O364 2.327 . S
Co352 O365 2.073 . S
H353 O350 0.980 . S
O354 Co346 2.073 . S
O354 C369 1.245 . S
O355 Co345 2.264 . S
O355 Co346 2.327 . S
O355 C369 1.257 . S
O356 Co346 1.976 . S
O356 C368 1.251 . S
O357 Co347 2.111 1_565 S
O357 C368 1.274 . S
O358 Co347 2.143 . S
O358 C371 1.246 . S
O359 Co351 2.286 . S
O359 C370 1.259 . S
O360 Co351 2.069 . S
O360 C370 1.289 . S
O361 Co351 2.015 . S
O361 C371 1.257 . S
O362 Co347 2.111 . S
O362 C372 1.274 . S
O363 Co352 1.976 . S
O363 C372 1.251 . S
O364 Co351 2.264 . S
O364 Co352 2.327 . S
O364 C373 1.257 . S
O365 Co352 2.073 . S
O365 C373 1.245 . S
C366 O374 1.259 . S
C366 O375 1.289 . S
C367 O376 1.246 . S
C367 O377 1.257 . S
C368 O356 1.251 . S
C368 O357 1.274 . S
C369 O354 1.245 . S
C369 O355 1.257 . S
C370 O359 1.259 . S
C370 O360 1.289 . S
C371 O358 1.246 . S
C371 O361 1.257 . S
C372 O362 1.274 . S
C372 O363 1.251 . S
C373 O364 1.257 . S
C373 O365 1.245 . S
O374 Co345 2.286 . S
O374 C366 1.259 . S
O375 Co345 2.069 . S
O375 C366 1.289 . S
O376 Co347 2.143 1_565 S
O376 C367 1.246 . S
O377 Co345 2.015 . S
O377 C367 1.257 . S
Co378 O381 2.042 . S
Co378 O388 2.264 . S
Co378 O407 2.286 . S
Co378 O408 2.069 . S
Co378 O410 2.015 . S
Co379 O381 2.122 . S
Co379 O387 2.073 . S
Co379 O388 2.327 . S
Co379 O389 1.976 . S
Co380 O381 2.087 . S
Co380 O383 2.087 1_554 S
Co380 O390 2.111 . S
Co380 O391 2.143 1_554 S
Co380 O395 2.111 1_554 S
Co380 O409 2.143 . S
O381 Co378 2.042 . S
O381 Co379 2.122 . S
O381 Co380 2.087 . S
O381 H382 0.980 . S
H382 O381 0.980 . S
O383 Co380 2.087 1_556 S
O383 Co384 2.042 . S
O383 Co385 2.122 . S
O383 H386 0.980 . S
Co384 O383 2.042 . S
Co384 O392 2.286 . S
Co384 O393 2.069 . S
Co384 O394 2.015 . S
Co384 O397 2.264 . S
Co385 O383 2.122 . S
Co385 O396 1.976 . S
Co385 O397 2.327 . S
Co385 O398 2.073 . S
H386 O383 0.980 . S
O387 Co379 2.073 . S
O387 C402 1.245 . S
O388 Co378 2.264 . S
O388 Co379 2.327 . S
O388 C402 1.257 . S
O389 Co379 1.976 . S
O389 C401 1.251 . S
O390 Co380 2.111 . S
O390 C401 1.274 . S
O391 Co380 2.143 1_556 S
O391 C404 1.246 . S
O392 Co384 2.286 . S
O392 C403 1.259 . S
O393 Co384 2.069 . S
O393 C403 1.289 . S
O394 Co384 2.015 . S
O394 C404 1.257 . S
O395 Co380 2.111 1_556 S
O395 C405 1.274 . S
O396 Co385 1.976 . S
O396 C405 1.251 . S
O397 Co384 2.264 . S
O397 Co385 2.327 . S
O397 C406 1.257 . S
O398 Co385 2.073 . S
O398 C406 1.245 . S
C399 O407 1.259 . S
C399 O408 1.289 . S
C400 O409 1.246 . S
C400 O410 1.257 . S
C401 O389 1.251 . S
C401 O390 1.274 . S
C402 O387 1.245 . S
C402 O388 1.257 . S
C403 O392 1.259 . S
C403 O393 1.289 . S
C404 O391 1.246 . S
C404 O394 1.257 . S
C405 O395 1.274 . S
C405 O396 1.251 . S
C406 O397 1.257 . S
C406 O398 1.245 . S
O407 Co378 2.286 . S
O407 C399 1.259 . S
O408 Co378 2.069 . S
O408 C399 1.289 . S
O409 Co380 2.143 . S
O409 C400 1.246 . S
O410 Co378 2.015 . S
O410 C400 1.257 . S
H411 C419 0.929 . S
H412 C421 0.930 . S
H413 C423 0.930 . S
H414 C426 0.929 . S
H415 C429 0.930 . S
H416 C431 0.960 . S
H417 C431 0.960 . S
H418 C431 0.960 . S
C419 H411 0.929 . S
C419 C420 1.377 . S
C419 C421 1.384 . S
C420 C419 1.377 . S
C420 C426 1.390 . S
C421 H412 0.930 . S
C421 C419 1.384 . S
C421 C422 1.372 . S
C422 C421 1.372 . S
C422 C423 1.400 . S
C422 C427 1.490 . S
C423 H413 0.930 . S
C423 C422 1.400 . S
C423 C426 1.386 . S
H424 C440 0.930 . S
H425 C441 0.931 . S
C426 H414 0.929 . S
C426 C420 1.390 . S
C426 C423 1.386 . S
C427 C422 1.490 . S
C427 C429 1.395 . S
C427 C430 1.403 . S
H428 C434 0.930 . S
C429 H415 0.930 . S
C429 C427 1.395 . S
C429 C432 1.403 . S
C430 C427 1.403 . S
C430 C431 1.524 . S
C430 C434 1.400 . S
C431 H416 0.960 . S
C431 H417 0.960 . S
C431 H418 0.960 . S
C431 C430 1.524 . S
C432 C429 1.403 . S
C432 C433 1.392 . S
C432 C436 1.495 . S
C433 C432 1.392 . S
C433 C434 1.385 . S
C433 C435 1.478 . S
C434 H428 0.930 . S
C434 C430 1.400 . S
C434 C433 1.385 . S
C435 C433 1.478 . S
C435 C437 1.381 . S
C435 C441 1.383 . S
C436 C432 1.495 . S
C436 H442 0.959 . S
C436 H443 0.961 . S
C436 H444 0.960 . S
C437 C435 1.381 . S
C437 C438 1.394 . S
C437 H445 0.930 . S
C438 C437 1.394 . S
C438 C439 1.383 . S
C438 H446 0.929 . S
C439 C438 1.383 . S
C439 C440 1.377 . S
C440 H424 0.930 . S
C440 C439 1.377 . S
C440 C441 1.379 . S
C441 H425 0.931 . S
C441 C435 1.383 . S
C441 C440 1.379 . S
H442 C436 0.959 . S
H443 C436 0.961 . S
H444 C436 0.960 . S
H445 C437 0.930 . S
H446 C438 0.929 . S
H447 C455 0.929 . S
H448 C457 0.930 . S
H449 C459 0.930 . S
H450 C462 0.929 . S
H451 C465 0.930 . S
H452 C467 0.960 . S
H453 C467 0.960 . S
H454 C467 0.960 . S
C455 H447 0.929 . S
C455 C456 1.377 . S
C455 C457 1.384 . S
C456 C455 1.377 . S
C456 C462 1.390 . S
C457 H448 0.930 . S
C457 C455 1.384 . S
C457 C458 1.372 . S
C458 C457 1.372 . S
C458 C459 1.400 . S
C458 C463 1.490 . S
C459 H449 0.930 . S
C459 C458 1.400 . S
C459 C462 1.386 . S
H460 C476 0.930 . S
H461 C477 0.931 . S
C462 H450 0.929 . S
C462 C456 1.390 . S
C462 C459 1.386 . S
C463 C458 1.490 . S
C463 C465 1.395 . S
C463 C466 1.403 . S
H464 C470 0.930 . S
C465 H451 0.930 . S
C465 C463 1.395 . S
C465 C468 1.403 . S
C466 C463 1.403 . S
C466 C467 1.524 . S
C466 C470 1.400 . S
C467 H452 0.960 . S
C467 H453 0.960 . S
C467 H454 0.960 . S
C467 C466 1.524 . S
C468 C465 1.403 . S
C468 C469 1.392 . S
C468 C472 1.495 . S
C469 C468 1.392 . S
C469 C470 1.385 . S
C469 C471 1.478 . S
C470 H464 0.930 . S
C470 C466 1.400 . S
C470 C469 1.385 . S
C471 C469 1.478 . S
C471 C473 1.381 . S
C471 C477 1.383 . S
C472 C468 1.495 . S
C472 H478 0.959 . S
C472 H479 0.961 . S
C472 H480 0.960 . S
C473 C471 1.381 . S
C473 C474 1.394 . S
C473 H481 0.930 . S
C474 C473 1.394 . S
C474 C475 1.383 . S
C474 H482 0.929 . S
C475 C474 1.383 . S
C475 C476 1.377 . S
C476 H460 0.930 . S
C476 C475 1.377 . S
C476 C477 1.379 . S
C477 H461 0.931 . S
C477 C471 1.383 . S
C477 C476 1.379 . S
H478 C472 0.959 . S
H479 C472 0.961 . S
H480 C472 0.960 . S
H481 C473 0.930 . S
H482 C474 0.929 . S
H483 C491 0.929 . S
H484 C493 0.930 . S
H485 C495 0.930 . S
H486 C498 0.929 . S
H487 C501 0.930 . S
H488 C503 0.960 . S
H489 C503 0.960 . S
H490 C503 0.960 . S
C491 H483 0.929 . S
C491 C492 1.377 . S
C491 C493 1.384 . S
C492 C491 1.377 . S
C492 C498 1.390 . S
C493 H484 0.930 . S
C493 C491 1.384 . S
C493 C494 1.372 . S
C494 C493 1.372 . S
C494 C495 1.400 . S
C494 C499 1.490 . S
C495 H485 0.930 . S
C495 C494 1.400 . S
C495 C498 1.386 . S
H496 C512 0.930 . S
H497 C513 0.931 . S
C498 H486 0.929 . S
C498 C492 1.390 . S
C498 C495 1.386 . S
C499 C494 1.490 . S
C499 C501 1.395 . S
C499 C502 1.403 . S
H500 C506 0.930 . S
C501 H487 0.930 . S
C501 C499 1.395 . S
C501 C504 1.403 . S
C502 C499 1.403 . S
C502 C503 1.524 . S
C502 C506 1.400 . S
C503 H488 0.960 . S
C503 H489 0.960 . S
C503 H490 0.960 . S
C503 C502 1.524 . S
C504 C501 1.403 . S
C504 C505 1.392 . S
C504 C508 1.495 . S
C505 C504 1.392 . S
C505 C506 1.385 . S
C505 C507 1.478 . S
C506 H500 0.930 . S
C506 C502 1.400 . S
C506 C505 1.385 . S
C507 C505 1.478 . S
C507 C509 1.381 . S
C507 C513 1.383 . S
C508 C504 1.495 . S
C508 H514 0.959 . S
C508 H515 0.961 . S
C508 H516 0.960 . S
C509 C507 1.381 . S
C509 C510 1.394 . S
C509 H517 0.930 . S
C510 C509 1.394 . S
C510 C511 1.383 . S
C510 H518 0.929 . S
C511 C510 1.383 . S
C511 C512 1.377 . S
C512 H496 0.930 . S
C512 C511 1.377 . S
C512 C513 1.379 . S
C513 H497 0.931 . S
C513 C507 1.383 . S
C513 C512 1.379 . S
H514 C508 0.959 . S
H515 C508 0.961 . S
H516 C508 0.960 . S
H517 C509 0.930 . S
H518 C510 0.929 . S
H519 C527 0.929 . S
H520 C529 0.930 . S
H521 C531 0.930 . S
H522 C534 0.929 . S
H523 C537 0.930 . S
H524 C539 0.960 . S
H525 C539 0.960 . S
H526 C539 0.960 . S
C527 H519 0.929 . S
C527 C528 1.377 . S
C527 C529 1.384 . S
C528 C527 1.377 . S
C528 C534 1.390 . S
C529 H520 0.930 . S
C529 C527 1.384 . S
C529 C530 1.372 . S
C530 C529 1.372 . S
C530 C531 1.400 . S
C530 C535 1.490 . S
C531 H521 0.930 . S
C531 C530 1.400 . S
C531 C534 1.386 . S
H532 C548 0.930 . S
H533 C549 0.931 . S
C534 H522 0.929 . S
C534 C528 1.390 . S
C534 C531 1.386 . S
C535 C530 1.490 . S
C535 C537 1.395 . S
C535 C538 1.403 . S
H536 C542 0.930 . S
C537 H523 0.930 . S
C537 C535 1.395 . S
C537 C540 1.403 . S
C538 C535 1.403 . S
C538 C539 1.524 . S
C538 C542 1.400 . S
C539 H524 0.960 . S
C539 H525 0.960 . S
C539 H526 0.960 . S
C539 C538 1.524 . S
C540 C537 1.403 . S
C540 C541 1.392 . S
C540 C544 1.495 . S
C541 C540 1.392 . S
C541 C542 1.385 . S
C541 C543 1.478 . S
C542 H536 0.930 . S
C542 C538 1.400 . S
C542 C541 1.385 . S
C543 C541 1.478 . S
C543 C545 1.381 . S
C543 C549 1.383 . S
C544 C540 1.495 . S
C544 H550 0.959 . S
C544 H551 0.961 . S
C544 H552 0.960 . S
C545 C543 1.381 . S
C545 C546 1.394 . S
C545 H553 0.930 . S
C546 C545 1.394 . S
C546 C547 1.383 . S
C546 H554 0.929 . S
C547 C546 1.383 . S
C547 C548 1.377 . S
C548 H532 0.930 . S
C548 C547 1.377 . S
C548 C549 1.379 . S
C549 H533 0.931 . S
C549 C543 1.383 . S
C549 C548 1.379 . S
H550 C544 0.959 . S
H551 C544 0.961 . S
H552 C544 0.960 . S
H553 C545 0.930 . S
H554 C546 0.929 . S
H555 C563 0.929 . S
H556 C565 0.930 . S
H557 C567 0.930 . S
H558 C570 0.929 . S
H559 C573 0.930 . S
H560 C575 0.960 . S
H561 C575 0.960 . S
H562 C575 0.960 . S
C563 H555 0.929 . S
C563 C564 1.377 . S
C563 C565 1.384 . S
C564 C563 1.377 . S
C564 C570 1.390 . S
C565 H556 0.930 . S
C565 C563 1.384 . S
C565 C566 1.372 . S
C566 C565 1.372 . S
C566 C567 1.400 . S
C566 C571 1.490 . S
C567 H557 0.930 . S
C567 C566 1.400 . S
C567 C570 1.386 . S
H568 C584 0.930 . S
H569 C585 0.931 . S
C570 H558 0.929 . S
C570 C564 1.390 . S
C570 C567 1.386 . S
C571 C566 1.490 . S
C571 C573 1.395 . S
C571 C574 1.403 . S
H572 C578 0.930 . S
C573 H559 0.930 . S
C573 C571 1.395 . S
C573 C576 1.403 . S
C574 C571 1.403 . S
C574 C575 1.524 . S
C574 C578 1.400 . S
C575 H560 0.960 . S
C575 H561 0.960 . S
C575 H562 0.960 . S
C575 C574 1.524 . S
C576 C573 1.403 . S
C576 C577 1.392 . S
C576 C580 1.495 . S
C577 C576 1.392 . S
C577 C578 1.385 . S
C577 C579 1.478 . S
C578 H572 0.930 . S
C578 C574 1.400 . S
C578 C577 1.385 . S
C579 C577 1.478 . S
C579 C581 1.381 . S
C579 C585 1.383 . S
C580 C576 1.495 . S
C580 H586 0.959 . S
C580 H587 0.961 . S
C580 H588 0.960 . S
C581 C579 1.381 . S
C581 C582 1.394 . S
C581 H589 0.930 . S
C582 C581 1.394 . S
C582 C583 1.383 . S
C582 H590 0.929 . S
C583 C582 1.383 . S
C583 C584 1.377 . S
C584 H568 0.930 . S
C584 C583 1.377 . S
C584 C585 1.379 . S
C585 H569 0.931 . S
C585 C579 1.383 . S
C585 C584 1.379 . S
H586 C580 0.959 . S
H587 C580 0.961 . S
H588 C580 0.960 . S
H589 C581 0.930 . S
H590 C582 0.929 . S
H591 C599 0.929 . S
H592 C601 0.930 . S
H593 C603 0.930 . S
H594 C606 0.929 . S
H595 C609 0.930 . S
H596 C611 0.960 . S
H597 C611 0.960 . S
H598 C611 0.960 . S
C599 H591 0.929 . S
C599 C600 1.377 . S
C599 C601 1.384 . S
C600 C599 1.377 . S
C600 C606 1.390 . S
C601 H592 0.930 . S
C601 C599 1.384 . S
C601 C602 1.372 . S
C602 C601 1.372 . S
C602 C603 1.400 . S
C602 C607 1.490 . S
C603 H593 0.930 . S
C603 C602 1.400 . S
C603 C606 1.386 . S
H604 C620 0.930 . S
H605 C621 0.931 . S
C606 H594 0.929 . S
C606 C600 1.390 . S
C606 C603 1.386 . S
C607 C602 1.490 . S
C607 C609 1.395 . S
C607 C610 1.403 . S
H608 C614 0.930 . S
C609 H595 0.930 . S
C609 C607 1.395 . S
C609 C612 1.403 . S
C610 C607 1.403 . S
C610 C611 1.524 . S
C610 C614 1.400 . S
C611 H596 0.960 . S
C611 H597 0.960 . S
C611 H598 0.960 . S
C611 C610 1.524 . S
C612 C609 1.403 . S
C612 C613 1.392 . S
C612 C616 1.495 . S
C613 C612 1.392 . S
C613 C614 1.385 . S
C613 C615 1.478 . S
C614 H608 0.930 . S
C614 C610 1.400 . S
C614 C613 1.385 . S
C615 C613 1.478 . S
C615 C617 1.381 . S
C615 C621 1.383 . S
C616 C612 1.495 . S
C616 H622 0.959 . S
C616 H623 0.961 . S
C616 H624 0.960 . S
C617 C615 1.381 . S
C617 C618 1.394 . S
C617 H625 0.930 . S
C618 C617 1.394 . S
C618 C619 1.383 . S
C618 H626 0.929 . S
C619 C618 1.383 . S
C619 C620 1.377 . S
C620 H604 0.930 . S
C620 C619 1.377 . S
C620 C621 1.379 . S
C621 H605 0.931 . S
C621 C615 1.383 . S
C621 C620 1.379 . S
H622 C616 0.959 . S
H623 C616 0.961 . S
H624 C616 0.960 . S
H625 C617 0.930 . S
H626 C618 0.929 . S
H627 C635 0.929 . S
H628 C637 0.930 . S
H629 C639 0.930 . S
H630 C642 0.929 . S
H631 C645 0.930 . S
H632 C647 0.960 . S
H633 C647 0.960 . S
H634 C647 0.960 . S
C635 H627 0.929 . S
C635 C636 1.377 . S
C635 C637 1.384 . S
C636 C635 1.377 . S
C636 C642 1.390 . S
C637 H628 0.930 . S
C637 C635 1.384 . S
C637 C638 1.372 . S
C638 C637 1.372 . S
C638 C639 1.400 . S
C638 C643 1.490 . S
C639 H629 0.930 . S
C639 C638 1.400 . S
C639 C642 1.386 . S
H640 C656 0.930 . S
H641 C657 0.931 . S
C642 H630 0.929 . S
C642 C636 1.390 . S
C642 C639 1.386 . S
C643 C638 1.490 . S
C643 C645 1.395 . S
C643 C646 1.403 . S
H644 C650 0.930 . S
C645 H631 0.930 . S
C645 C643 1.395 . S
C645 C648 1.403 . S
C646 C643 1.403 . S
C646 C647 1.524 . S
C646 C650 1.400 . S
C647 H632 0.960 . S
C647 H633 0.960 . S
C647 H634 0.960 . S
C647 C646 1.524 . S
C648 C645 1.403 . S
C648 C649 1.392 . S
C648 C652 1.495 . S
C649 C648 1.392 . S
C649 C650 1.385 . S
C649 C651 1.478 . S
C650 H644 0.930 . S
C650 C646 1.400 . S
C650 C649 1.385 . S
C651 C649 1.478 . S
C651 C653 1.381 . S
C651 C657 1.383 . S
C652 C648 1.495 . S
C652 H658 0.959 . S
C652 H659 0.961 . S
C652 H660 0.960 . S
C653 C651 1.381 . S
C653 C654 1.394 . S
C653 H661 0.930 . S
C654 C653 1.394 . S
C654 C655 1.383 . S
C654 H662 0.929 . S
C655 C654 1.383 . S
C655 C656 1.377 . S
C656 H640 0.930 . S
C656 C655 1.377 . S
C656 C657 1.379 . S
C657 H641 0.931 . S
C657 C651 1.383 . S
C657 C656 1.379 . S
H658 C652 0.959 . S
H659 C652 0.961 . S
H660 C652 0.960 . S
H661 C653 0.930 . S
H662 C654 0.929 . S
H663 C671 0.929 . S
H664 C673 0.930 . S
H665 C675 0.930 . S
H666 C678 0.929 . S
H667 C681 0.930 . S
H668 C683 0.960 . S
H669 C683 0.960 . S
H670 C683 0.960 . S
C671 H663 0.929 . S
C671 C672 1.377 . S
C671 C673 1.384 . S
C672 C671 1.377 . S
C672 C678 1.390 . S
C673 H664 0.930 . S
C673 C671 1.384 . S
C673 C674 1.372 . S
C674 C673 1.372 . S
C674 C675 1.400 . S
C674 C679 1.490 . S
C675 H665 0.930 . S
C675 C674 1.400 . S
C675 C678 1.386 . S
H676 C692 0.930 . S
H677 C693 0.931 . S
C678 H666 0.929 . S
C678 C672 1.390 . S
C678 C675 1.386 . S
C679 C674 1.490 . S
C679 C681 1.395 . S
C679 C682 1.403 . S
H680 C686 0.930 . S
C681 H667 0.930 . S
C681 C679 1.395 . S
C681 C684 1.403 . S
C682 C679 1.403 . S
C682 C683 1.524 . S
C682 C686 1.400 . S
C683 H668 0.960 . S
C683 H669 0.960 . S
C683 H670 0.960 . S
C683 C682 1.524 . S
C684 C681 1.403 . S
C684 C685 1.392 . S
C684 C688 1.495 . S
C685 C684 1.392 . S
C685 C686 1.385 . S
C685 C687 1.478 . S
C686 H680 0.930 . S
C686 C682 1.400 . S
C686 C685 1.385 . S
C687 C685 1.478 . S
C687 C689 1.381 . S
C687 C693 1.383 . S
C688 C684 1.495 . S
C688 H694 0.959 . S
C688 H695 0.961 . S
C688 H696 0.960 . S
C689 C687 1.381 . S
C689 C690 1.394 . S
C689 H697 0.930 . S
C690 C689 1.394 . S
C690 C691 1.383 . S
C690 H698 0.929 . S
C691 C690 1.383 . S
C691 C692 1.377 . S
C692 H676 0.930 . S
C692 C691 1.377 . S
C692 C693 1.379 . S
C693 H677 0.931 . S
C693 C687 1.383 . S
C693 C692 1.379 . S
H694 C688 0.959 . S
H695 C688 0.961 . S
H696 C688 0.960 . S
H697 C689 0.930 . S
H698 C690 0.929 . S
H699 C707 0.929 . S
H700 C709 0.930 . S
H701 C711 0.930 . S
H702 C714 0.929 . S
H703 C717 0.930 . S
H704 C719 0.960 . S
H705 C719 0.960 . S
H706 C719 0.960 . S
C707 H699 0.929 . S
C707 C708 1.377 . S
C707 C709 1.384 . S
C708 C707 1.377 . S
C708 C714 1.390 . S
C709 H700 0.930 . S
C709 C707 1.384 . S
C709 C710 1.372 . S
C710 C709 1.372 . S
C710 C711 1.400 . S
C710 C715 1.490 . S
C711 H701 0.930 . S
C711 C710 1.400 . S
C711 C714 1.386 . S
H712 C728 0.930 . S
H713 C729 0.931 . S
C714 H702 0.929 . S
C714 C708 1.390 . S
C714 C711 1.386 . S
C715 C710 1.490 . S
C715 C717 1.395 . S
C715 C718 1.403 . S
H716 C722 0.930 . S
C717 H703 0.930 . S
C717 C715 1.395 . S
C717 C720 1.403 . S
C718 C715 1.403 . S
C718 C719 1.524 . S
C718 C722 1.400 . S
C719 H704 0.960 . S
C719 H705 0.960 . S
C719 H706 0.960 . S
C719 C718 1.524 . S
C720 C717 1.403 . S
C720 C721 1.392 . S
C720 C724 1.495 . S
C721 C720 1.392 . S
C721 C722 1.385 . S
C721 C723 1.478 . S
C722 H716 0.930 . S
C722 C718 1.400 . S
C722 C721 1.385 . S
C723 C721 1.478 . S
C723 C725 1.381 . S
C723 C729 1.383 . S
C724 C720 1.495 . S
C724 H730 0.959 . S
C724 H731 0.961 . S
C724 H732 0.960 . S
C725 C723 1.381 . S
C725 C726 1.394 . S
C725 H733 0.930 . S
C726 C725 1.394 . S
C726 C727 1.383 . S
C726 H734 0.929 . S
C727 C726 1.383 . S
C727 C728 1.377 . S
C728 H712 0.930 . S
C728 C727 1.377 . S
C728 C729 1.379 . S
C729 H713 0.931 . S
C729 C723 1.383 . S
C729 C728 1.379 . S
H730 C724 0.959 . S
H731 C724 0.961 . S
H732 C724 0.960 . S
H733 C725 0.930 . S
H734 C726 0.929 . S
H735 C743 0.929 . S
H736 C745 0.930 . S
H737 C747 0.930 . S
H738 C750 0.929 . S
H739 C753 0.930 . S
H740 C755 0.960 . S
H741 C755 0.960 . S
H742 C755 0.960 . S
C743 H735 0.929 . S
C743 C744 1.377 . S
C743 C745 1.384 . S
C744 C743 1.377 . S
C744 C750 1.390 . S
C745 H736 0.930 . S
C745 C743 1.384 . S
C745 C746 1.372 . S
C746 C745 1.372 . S
C746 C747 1.400 . S
C746 C751 1.490 . S
C747 H737 0.930 . S
C747 C746 1.400 . S
C747 C750 1.386 . S
H748 C764 0.930 . S
H749 C765 0.931 . S
C750 H738 0.929 . S
C750 C744 1.390 . S
C750 C747 1.386 . S
C751 C746 1.490 . S
C751 C753 1.395 . S
C751 C754 1.403 . S
H752 C758 0.930 . S
C753 H739 0.930 . S
C753 C751 1.395 . S
C753 C756 1.403 . S
C754 C751 1.403 . S
C754 C755 1.524 . S
C754 C758 1.400 . S
C755 H740 0.960 . S
C755 H741 0.960 . S
C755 H742 0.960 . S
C755 C754 1.524 . S
C756 C753 1.403 . S
C756 C757 1.392 . S
C756 C760 1.495 . S
C757 C756 1.392 . S
C757 C758 1.385 . S
C757 C759 1.478 . S
C758 H752 0.930 . S
C758 C754 1.400 . S
C758 C757 1.385 . S
C759 C757 1.478 . S
C759 C761 1.381 . S
C759 C765 1.383 . S
C760 C756 1.495 . S
C760 H766 0.959 . S
C760 H767 0.961 . S
C760 H768 0.960 . S
C761 C759 1.381 . S
C761 C762 1.394 . S
C761 H769 0.930 . S
C762 C761 1.394 . S
C762 C763 1.383 . S
C762 H770 0.929 . S
C763 C762 1.383 . S
C763 C764 1.377 . S
C764 H748 0.930 . S
C764 C763 1.377 . S
C764 C765 1.379 . S
C765 H749 0.931 . S
C765 C759 1.383 . S
C765 C764 1.379 . S
H766 C760 0.959 . S
H767 C760 0.961 . S
H768 C760 0.960 . S
H769 C761 0.930 . S
H770 C762 0.929 . S
H771 C779 0.929 . S
H772 C781 0.930 . S
H773 C783 0.930 . S
H774 C786 0.929 . S
H775 C789 0.930 . S
H776 C791 0.960 . S
H777 C791 0.960 . S
H778 C791 0.960 . S
C779 H771 0.929 . S
C779 C780 1.377 . S
C779 C781 1.384 . S
C780 C779 1.377 . S
C780 C786 1.390 . S
C781 H772 0.930 . S
C781 C779 1.384 . S
C781 C782 1.372 . S
C782 C781 1.372 . S
C782 C783 1.400 . S
C782 C787 1.490 . S
C783 H773 0.930 . S
C783 C782 1.400 . S
C783 C786 1.386 . S
H784 C800 0.930 . S
H785 C801 0.931 . S
C786 H774 0.929 . S
C786 C780 1.390 . S
C786 C783 1.386 . S
C787 C782 1.490 . S
C787 C789 1.395 . S
C787 C790 1.403 . S
H788 C794 0.930 . S
C789 H775 0.930 . S
C789 C787 1.395 . S
C789 C792 1.403 . S
C790 C787 1.403 . S
C790 C791 1.524 . S
C790 C794 1.400 . S
C791 H776 0.960 . S
C791 H777 0.960 . S
C791 H778 0.960 . S
C791 C790 1.524 . S
C792 C789 1.403 . S
C792 C793 1.392 . S
C792 C796 1.495 . S
C793 C792 1.392 . S
C793 C794 1.385 . S
C793 C795 1.478 . S
C794 H788 0.930 . S
C794 C790 1.400 . S
C794 C793 1.385 . S
C795 C793 1.478 . S
C795 C797 1.381 . S
C795 C801 1.383 . S
C796 C792 1.495 . S
C796 H802 0.959 . S
C796 H803 0.961 . S
C796 H804 0.960 . S
C797 C795 1.381 . S
C797 C798 1.394 . S
C797 H805 0.930 . S
C798 C797 1.394 . S
C798 C799 1.383 . S
C798 H806 0.929 . S
C799 C798 1.383 . S
C799 C800 1.377 . S
C800 H784 0.930 . S
C800 C799 1.377 . S
C800 C801 1.379 . S
C801 H785 0.931 . S
C801 C795 1.383 . S
C801 C800 1.379 . S
H802 C796 0.959 . S
H803 C796 0.961 . S
H804 C796 0.960 . S
H805 C797 0.930 . S
H806 C798 0.929 . S
H807 C815 0.929 . S
H808 C817 0.930 . S
H809 C819 0.930 . S
H810 C822 0.929 . S
H811 C825 0.930 . S
H812 C827 0.960 . S
H813 C827 0.960 . S
H814 C827 0.960 . S
C815 H807 0.929 . S
C815 C816 1.377 . S
C815 C817 1.384 . S
C816 C815 1.377 . S
C816 C822 1.390 . S
C817 H808 0.930 . S
C817 C815 1.384 . S
C817 C818 1.372 . S
C818 C817 1.372 . S
C818 C819 1.400 . S
C818 C823 1.490 . S
C819 H809 0.930 . S
C819 C818 1.400 . S
C819 C822 1.386 . S
H820 C836 0.930 . S
H821 C837 0.931 . S
C822 H810 0.929 . S
C822 C816 1.390 . S
C822 C819 1.386 . S
C823 C818 1.490 . S
C823 C825 1.395 . S
C823 C826 1.403 . S
H824 C830 0.930 . S
C825 H811 0.930 . S
C825 C823 1.395 . S
C825 C828 1.403 . S
C826 C823 1.403 . S
C826 C827 1.524 . S
C826 C830 1.400 . S
C827 H812 0.960 . S
C827 H813 0.960 . S
C827 H814 0.960 . S
C827 C826 1.524 . S
C828 C825 1.403 . S
C828 C829 1.392 . S
C828 C832 1.495 . S
C829 C828 1.392 . S
C829 C830 1.385 . S
C829 C831 1.478 . S
C830 H824 0.930 . S
C830 C826 1.400 . S
C830 C829 1.385 . S
C831 C829 1.478 . S
C831 C833 1.381 . S
C831 C837 1.383 . S
C832 C828 1.495 . S
C832 H838 0.959 . S
C832 H839 0.961 . S
C832 H840 0.960 . S
C833 C831 1.381 . S
C833 C834 1.394 . S
C833 H841 0.930 . S
C834 C833 1.394 . S
C834 C835 1.383 . S
C834 H842 0.929 . S
C835 C834 1.383 . S
C835 C836 1.377 . S
C836 H820 0.930 . S
C836 C835 1.377 . S
C836 C837 1.379 . S
C837 H821 0.931 . S
C837 C831 1.383 . S
C837 C836 1.379 . S
H838 C832 0.959 . S
H839 C832 0.961 . S
H840 C832 0.960 . S
H841 C833 0.930 . S
H842 C834 0.929 . S
H843 C851 0.929 . S
H844 C853 0.930 . S
H845 C855 0.930 . S
H846 C858 0.929 . S
H847 C861 0.930 . S
H848 C863 0.960 . S
H849 C863 0.960 . S
H850 C863 0.960 . S
C851 H843 0.929 . S
C851 C852 1.377 . S
C851 C853 1.384 . S
C852 C851 1.377 . S
C852 C858 1.390 . S
C853 H844 0.930 . S
C853 C851 1.384 . S
C853 C854 1.372 . S
C854 C853 1.372 . S
C854 C855 1.400 . S
C854 C859 1.490 . S
C855 H845 0.930 . S
C855 C854 1.400 . S
C855 C858 1.386 . S
H856 C872 0.930 . S
H857 C873 0.931 . S
C858 H846 0.929 . S
C858 C852 1.390 . S
C858 C855 1.386 . S
C859 C854 1.490 . S
C859 C861 1.395 . S
C859 C862 1.403 . S
H860 C866 0.930 . S
C861 H847 0.930 . S
C861 C859 1.395 . S
C861 C864 1.403 . S
C862 C859 1.403 . S
C862 C863 1.524 . S
C862 C866 1.400 . S
C863 H848 0.960 . S
C863 H849 0.960 . S
C863 H850 0.960 . S
C863 C862 1.524 . S
C864 C861 1.403 . S
C864 C865 1.392 . S
C864 C868 1.495 . S
C865 C864 1.392 . S
C865 C866 1.385 . S
C865 C867 1.478 . S
C866 H860 0.930 . S
C866 C862 1.400 . S
C866 C865 1.385 . S
C867 C865 1.478 . S
C867 C869 1.381 . S
C867 C873 1.383 . S
C868 C864 1.495 . S
C868 H874 0.959 . S
C868 H875 0.961 . S
C868 H876 0.960 . S
C869 C867 1.381 . S
C869 C870 1.394 . S
C869 H877 0.930 . S
C870 C869 1.394 . S
C870 C871 1.383 . S
C870 H878 0.929 . S
C871 C870 1.383 . S
C871 C872 1.377 . S
C872 H856 0.930 . S
C872 C871 1.377 . S
C872 C873 1.379 . S
C873 H857 0.931 . S
C873 C867 1.383 . S
C873 C872 1.379 . S
H874 C868 0.959 . S
H875 C868 0.961 . S
H876 C868 0.960 . S
H877 C869 0.930 . S
H878 C870 0.929 . S
H879 C887 0.929 . S
H880 C889 0.930 . S
H881 C891 0.930 . S
H882 C894 0.929 . S
H883 C897 0.930 . S
H884 C899 0.960 . S
H885 C899 0.960 . S
H886 C899 0.960 . S
C887 H879 0.929 . S
C887 C888 1.377 . S
C887 C889 1.384 . S
C888 C887 1.377 . S
C888 C894 1.390 . S
C889 H880 0.930 . S
C889 C887 1.384 . S
C889 C890 1.372 . S
C890 C889 1.372 . S
C890 C891 1.400 . S
C890 C895 1.490 . S
C891 H881 0.930 . S
C891 C890 1.400 . S
C891 C894 1.386 . S
H892 C908 0.930 . S
H893 C909 0.931 . S
C894 H882 0.929 . S
C894 C888 1.390 . S
C894 C891 1.386 . S
C895 C890 1.490 . S
C895 C897 1.395 . S
C895 C898 1.403 . S
H896 C902 0.930 . S
C897 H883 0.930 . S
C897 C895 1.395 . S
C897 C900 1.403 . S
C898 C895 1.403 . S
C898 C899 1.524 . S
C898 C902 1.400 . S
C899 H884 0.960 . S
C899 H885 0.960 . S
C899 H886 0.960 . S
C899 C898 1.524 . S
C900 C897 1.403 . S
C900 C901 1.392 . S
C900 C904 1.495 . S
C901 C900 1.392 . S
C901 C902 1.385 . S
C901 C903 1.478 . S
C902 H896 0.930 . S
C902 C898 1.400 . S
C902 C901 1.385 . S
C903 C901 1.478 . S
C903 C905 1.381 . S
C903 C909 1.383 . S
C904 C900 1.495 . S
C904 H910 0.959 . S
C904 H911 0.961 . S
C904 H912 0.960 . S
C905 C903 1.381 . S
C905 C906 1.394 . S
C905 H913 0.930 . S
C906 C905 1.394 . S
C906 C907 1.383 . S
C906 H914 0.929 . S
C907 C906 1.383 . S
C907 C908 1.377 . S
C908 H892 0.930 . S
C908 C907 1.377 . S
C908 C909 1.379 . S
C909 H893 0.931 . S
C909 C903 1.383 . S
C909 C908 1.379 . S
H910 C904 0.959 . S
H911 C904 0.961 . S
H912 C904 0.960 . S
H913 C905 0.930 . S
H914 C906 0.929 . S
H915 C923 0.929 . S
H916 C925 0.930 . S
H917 C927 0.930 . S
H918 C930 0.929 . S
H919 C933 0.930 . S
H920 C935 0.960 . S
H921 C935 0.960 . S
H922 C935 0.960 . S
C923 H915 0.929 . S
C923 C924 1.377 . S
C923 C925 1.384 . S
C924 C923 1.377 . S
C924 C930 1.390 . S
C925 H916 0.930 . S
C925 C923 1.384 . S
C925 C926 1.372 . S
C926 C925 1.372 . S
C926 C927 1.400 . S
C926 C931 1.490 . S
C927 H917 0.930 . S
C927 C926 1.400 . S
C927 C930 1.386 . S
H928 C944 0.930 . S
H929 C945 0.931 . S
C930 H918 0.929 . S
C930 C924 1.390 . S
C930 C927 1.386 . S
C931 C926 1.490 . S
C931 C933 1.395 . S
C931 C934 1.403 . S
H932 C938 0.930 . S
C933 H919 0.930 . S
C933 C931 1.395 . S
C933 C936 1.403 . S
C934 C931 1.403 . S
C934 C935 1.524 . S
C934 C938 1.400 . S
C935 H920 0.960 . S
C935 H921 0.960 . S
C935 H922 0.960 . S
C935 C934 1.524 . S
C936 C933 1.403 . S
C936 C937 1.392 . S
C936 C940 1.495 . S
C937 C936 1.392 . S
C937 C938 1.385 . S
C937 C939 1.478 . S
C938 H932 0.930 . S
C938 C934 1.400 . S
C938 C937 1.385 . S
C939 C937 1.478 . S
C939 C941 1.381 . S
C939 C945 1.383 . S
C940 C936 1.495 . S
C940 H946 0.959 . S
C940 H947 0.961 . S
C940 H948 0.960 . S
C941 C939 1.381 . S
C941 C942 1.394 . S
C941 H949 0.930 . S
C942 C941 1.394 . S
C942 C943 1.383 . S
C942 H950 0.929 . S
C943 C942 1.383 . S
C943 C944 1.377 . S
C944 H928 0.930 . S
C944 C943 1.377 . S
C944 C945 1.379 . S
C945 H929 0.931 . S
C945 C939 1.383 . S
C945 C944 1.379 . S
H946 C940 0.959 . S
H947 C940 0.961 . S
H948 C940 0.960 . S
H949 C941 0.930 . S
H950 C942 0.929 . S
H951 C959 0.929 . S
H952 C961 0.930 . S
H953 C963 0.930 . S
H954 C966 0.929 . S
H955 C969 0.930 . S
H956 C971 0.960 . S
H957 C971 0.960 . S
H958 C971 0.960 . S
C959 H951 0.929 . S
C959 C960 1.377 . S
C959 C961 1.384 . S
C960 C959 1.377 . S
C960 C966 1.390 . S
C961 H952 0.930 . S
C961 C959 1.384 . S
C961 C962 1.372 . S
C962 C961 1.372 . S
C962 C963 1.400 . S
C962 C967 1.490 . S
C963 H953 0.930 . S
C963 C962 1.400 . S
C963 C966 1.386 . S
H964 C980 0.930 . S
H965 C981 0.931 . S
C966 H954 0.929 . S
C966 C960 1.390 . S
C966 C963 1.386 . S
C967 C962 1.490 . S
C967 C969 1.395 . S
C967 C970 1.403 . S
H968 C974 0.930 . S
C969 H955 0.930 . S
C969 C967 1.395 . S
C969 C972 1.403 . S
C970 C967 1.403 . S
C970 C971 1.524 . S
C970 C974 1.400 . S
C971 H956 0.960 . S
C971 H957 0.960 . S
C971 H958 0.960 . S
C971 C970 1.524 . S
C972 C969 1.403 . S
C972 C973 1.392 . S
C972 C976 1.495 . S
C973 C972 1.392 . S
C973 C974 1.385 . S
C973 C975 1.478 . S
C974 H968 0.930 . S
C974 C970 1.400 . S
C974 C973 1.385 . S
C975 C973 1.478 . S
C975 C977 1.381 . S
C975 C981 1.383 . S
C976 C972 1.495 . S
C976 H982 0.959 . S
C976 H983 0.961 . S
C976 H984 0.960 . S
C977 C975 1.381 . S
C977 C978 1.394 . S
C977 H985 0.930 . S
C978 C977 1.394 . S
C978 C979 1.383 . S
C978 H986 0.929 . S
C979 C978 1.383 . S
C979 C980 1.377 . S
C980 H964 0.930 . S
C980 C979 1.377 . S
C980 C981 1.379 . S
C981 H965 0.931 . S
C981 C975 1.383 . S
C981 C980 1.379 . S
H982 C976 0.959 . S
H983 C976 0.961 . S
H984 C976 0.960 . S
H985 C977 0.930 . S
H986 C978 0.929 . S
H987 C995 0.929 . S
H988 C997 0.930 . S
H989 C999 0.930 . S
H990 C1002 0.929 . S
H991 C1005 0.930 . S
H992 C1007 0.960 . S
H993 C1007 0.960 . S
H994 C1007 0.960 . S
C995 H987 0.929 . S
C995 C996 1.377 . S
C995 C997 1.384 . S
C996 C995 1.377 . S
C996 C1002 1.390 . S
C997 H988 0.930 . S
C997 C995 1.384 . S
C997 C998 1.372 . S
C998 C997 1.372 . S
C998 C999 1.400 . S
C998 C1003 1.490 . S
C999 H989 0.930 . S
C999 C998 1.400 . S
C999 C1002 1.386 . S
H1000 C1016 0.930 . S
H1001 C1017 0.931 . S
C1002 H990 0.929 . S
C1002 C996 1.390 . S
C1002 C999 1.386 . S
C1003 C998 1.490 . S
C1003 C1005 1.395 . S
C1003 C1006 1.403 . S
H1004 C1010 0.930 . S
C1005 H991 0.930 . S
C1005 C1003 1.395 . S
C1005 C1008 1.403 . S
C1006 C1003 1.403 . S
C1006 C1007 1.524 . S
C1006 C1010 1.400 . S
C1007 H992 0.960 . S
C1007 H993 0.960 . S
C1007 H994 0.960 . S
C1007 C1006 1.524 . S
C1008 C1005 1.403 . S
C1008 C1009 1.392 . S
C1008 C1012 1.495 . S
C1009 C1008 1.392 . S
C1009 C1010 1.385 . S
C1009 C1011 1.478 . S
C1010 H1004 0.930 . S
C1010 C1006 1.400 . S
C1010 C1009 1.385 . S
C1011 C1009 1.478 . S
C1011 C1013 1.381 . S
C1011 C1017 1.383 . S
C1012 C1008 1.495 . S
C1012 H1018 0.959 . S
C1012 H1019 0.961 . S
C1012 H1020 0.960 . S
C1013 C1011 1.381 . S
C1013 C1014 1.394 . S
C1013 H1021 0.930 . S
C1014 C1013 1.394 . S
C1014 C1015 1.383 . S
C1014 H1022 0.929 . S
C1015 C1014 1.383 . S
C1015 C1016 1.377 . S
C1016 H1000 0.930 . S
C1016 C1015 1.377 . S
C1016 C1017 1.379 . S
C1017 H1001 0.931 . S
C1017 C1011 1.383 . S
C1017 C1016 1.379 . S
H1018 C1012 0.959 . S
H1019 C1012 0.961 . S
H1020 C1012 0.960 . S
H1021 C1013 0.930 . S
H1022 C1014 0.929 . S
H1023 C1031 0.929 . S
H1024 C1033 0.930 . S
H1025 C1035 0.930 . S
H1026 C1038 0.929 . S
H1027 C1041 0.930 . S
H1028 C1043 0.960 . S
H1029 C1043 0.960 . S
H1030 C1043 0.960 . S
C1031 H1023 0.929 . S
C1031 C1032 1.377 . S
C1031 C1033 1.384 . S
C1032 C1031 1.377 . S
C1032 C1038 1.390 . S
C1033 H1024 0.930 . S
C1033 C1031 1.384 . S
C1033 C1034 1.372 . S
C1034 C1033 1.372 . S
C1034 C1035 1.400 . S
C1034 C1039 1.490 . S
C1035 H1025 0.930 . S
C1035 C1034 1.400 . S
C1035 C1038 1.386 . S
H1036 C1052 0.930 . S
H1037 C1053 0.931 . S
C1038 H1026 0.929 . S
C1038 C1032 1.390 . S
C1038 C1035 1.386 . S
C1039 C1034 1.490 . S
C1039 C1041 1.395 . S
C1039 C1042 1.403 . S
H1040 C1046 0.930 . S
C1041 H1027 0.930 . S
C1041 C1039 1.395 . S
C1041 C1044 1.403 . S
C1042 C1039 1.403 . S
C1042 C1043 1.524 . S
C1042 C1046 1.400 . S
C1043 H1028 0.960 . S
C1043 H1029 0.960 . S
C1043 H1030 0.960 . S
C1043 C1042 1.524 . S
C1044 C1041 1.403 . S
C1044 C1045 1.392 . S
C1044 C1048 1.495 . S
C1045 C1044 1.392 . S
C1045 C1046 1.385 . S
C1045 C1047 1.478 . S
C1046 H1040 0.930 . S
C1046 C1042 1.400 . S
C1046 C1045 1.385 . S
C1047 C1045 1.478 . S
C1047 C1049 1.381 . S
C1047 C1053 1.383 . S
C1048 C1044 1.495 . S
C1048 H1054 0.959 . S
C1048 H1055 0.961 . S
C1048 H1056 0.960 . S
C1049 C1047 1.381 . S
C1049 C1050 1.394 . S
C1049 H1057 0.930 . S
C1050 C1049 1.394 . S
C1050 C1051 1.383 . S
C1050 H1058 0.929 . S
C1051 C1050 1.383 . S
C1051 C1052 1.377 . S
C1052 H1036 0.930 . S
C1052 C1051 1.377 . S
C1052 C1053 1.379 . S
C1053 H1037 0.931 . S
C1053 C1047 1.383 . S
C1053 C1052 1.379 . S
H1054 C1048 0.959 . S
H1055 C1048 0.961 . S
H1056 C1048 0.960 . S
H1057 C1049 0.930 . S
H1058 C1050 0.929 . S
H1059 C1067 0.929 . S
H1060 C1069 0.930 . S
H1061 C1071 0.930 . S
H1062 C1074 0.929 . S
H1063 C1077 0.930 . S
H1064 C1079 0.960 . S
H1065 C1079 0.960 . S
H1066 C1079 0.960 . S
C1067 H1059 0.929 . S
C1067 C1068 1.377 . S
C1067 C1069 1.384 . S
C1068 C1067 1.377 . S
C1068 C1074 1.390 . S
C1069 H1060 0.930 . S
C1069 C1067 1.384 . S
C1069 C1070 1.372 . S
C1070 C1069 1.372 . S
C1070 C1071 1.400 . S
C1070 C1075 1.490 . S
C1071 H1061 0.930 . S
C1071 C1070 1.400 . S
C1071 C1074 1.386 . S
H1072 C1088 0.930 . S
H1073 C1089 0.931 . S
C1074 H1062 0.929 . S
C1074 C1068 1.390 . S
C1074 C1071 1.386 . S
C1075 C1070 1.490 . S
C1075 C1077 1.395 . S
C1075 C1078 1.403 . S
H1076 C1082 0.930 . S
C1077 H1063 0.930 . S
C1077 C1075 1.395 . S
C1077 C1080 1.403 . S
C1078 C1075 1.403 . S
C1078 C1079 1.524 . S
C1078 C1082 1.400 . S
C1079 H1064 0.960 . S
C1079 H1065 0.960 . S
C1079 H1066 0.960 . S
C1079 C1078 1.524 . S
C1080 C1077 1.403 . S
C1080 C1081 1.392 . S
C1080 C1084 1.495 . S
C1081 C1080 1.392 . S
C1081 C1082 1.385 . S
C1081 C1083 1.478 . S
C1082 H1076 0.930 . S
C1082 C1078 1.400 . S
C1082 C1081 1.385 . S
C1083 C1081 1.478 . S
C1083 C1085 1.381 . S
C1083 C1089 1.383 . S
C1084 C1080 1.495 . S
C1084 H1090 0.959 . S
C1084 H1091 0.961 . S
C1084 H1092 0.960 . S
C1085 C1083 1.381 . S
C1085 C1086 1.394 . S
C1085 H1093 0.930 . S
C1086 C1085 1.394 . S
C1086 C1087 1.383 . S
C1086 H1094 0.929 . S
C1087 C1086 1.383 . S
C1087 C1088 1.377 . S
C1088 H1072 0.930 . S
C1088 C1087 1.377 . S
C1088 C1089 1.379 . S
C1089 H1073 0.931 . S
C1089 C1083 1.383 . S
C1089 C1088 1.379 . S
H1090 C1084 0.959 . S
H1091 C1084 0.961 . S
H1092 C1084 0.960 . S
H1093 C1085 0.930 . S
H1094 C1086 0.929 . S
H1095 C1103 0.929 . S
H1096 C1105 0.930 . S
H1097 C1107 0.930 . S
H1098 C1110 0.929 . S
H1099 C1113 0.930 . S
H1100 C1115 0.960 . S
H1101 C1115 0.960 . S
H1102 C1115 0.960 . S
C1103 H1095 0.929 . S
C1103 C1104 1.377 . S
C1103 C1105 1.384 . S
C1104 C1103 1.377 . S
C1104 C1110 1.390 . S
C1105 H1096 0.930 . S
C1105 C1103 1.384 . S
C1105 C1106 1.372 . S
C1106 C1105 1.372 . S
C1106 C1107 1.400 . S
C1106 C1111 1.490 . S
C1107 H1097 0.930 . S
C1107 C1106 1.400 . S
C1107 C1110 1.386 . S
H1108 C1124 0.930 . S
H1109 C1125 0.931 . S
C1110 H1098 0.929 . S
C1110 C1104 1.390 . S
C1110 C1107 1.386 . S
C1111 C1106 1.490 . S
C1111 C1113 1.395 . S
C1111 C1114 1.403 . S
H1112 C1118 0.930 . S
C1113 H1099 0.930 . S
C1113 C1111 1.395 . S
C1113 C1116 1.403 . S
C1114 C1111 1.403 . S
C1114 C1115 1.524 . S
C1114 C1118 1.400 . S
C1115 H1100 0.960 . S
C1115 H1101 0.960 . S
C1115 H1102 0.960 . S
C1115 C1114 1.524 . S
C1116 C1113 1.403 . S
C1116 C1117 1.392 . S
C1116 C1120 1.495 . S
C1117 C1116 1.392 . S
C1117 C1118 1.385 . S
C1117 C1119 1.478 . S
C1118 H1112 0.930 . S
C1118 C1114 1.400 . S
C1118 C1117 1.385 . S
C1119 C1117 1.478 . S
C1119 C1121 1.381 . S
C1119 C1125 1.383 . S
C1120 C1116 1.495 . S
C1120 H1126 0.959 . S
C1120 H1127 0.961 . S
C1120 H1128 0.960 . S
C1121 C1119 1.381 . S
C1121 C1122 1.394 . S
C1121 H1129 0.930 . S
C1122 C1121 1.394 . S
C1122 C1123 1.383 . S
C1122 H1130 0.929 . S
C1123 C1122 1.383 . S
C1123 C1124 1.377 . S
C1124 H1108 0.930 . S
C1124 C1123 1.377 . S
C1124 C1125 1.379 . S
C1125 H1109 0.931 . S
C1125 C1119 1.383 . S
C1125 C1124 1.379 . S
H1126 C1120 0.959 . S
H1127 C1120 0.961 . S
H1128 C1120 0.960 . S
H1129 C1121 0.930 . S
H1130 C1122 0.929 . S
H1131 C1139 0.929 . S
H1132 C1141 0.930 . S
H1133 C1143 0.930 . S
H1134 C1146 0.929 . S
H1135 C1149 0.930 . S
H1136 C1151 0.960 . S
H1137 C1151 0.960 . S
H1138 C1151 0.960 . S
C1139 H1131 0.929 . S
C1139 C1140 1.377 . S
C1139 C1141 1.384 . S
C1140 C1139 1.377 . S
C1140 C1146 1.390 . S
C1141 H1132 0.930 . S
C1141 C1139 1.384 . S
C1141 C1142 1.372 . S
C1142 C1141 1.372 . S
C1142 C1143 1.400 . S
C1142 C1147 1.490 . S
C1143 H1133 0.930 . S
C1143 C1142 1.400 . S
C1143 C1146 1.386 . S
H1144 C1160 0.930 . S
H1145 C1161 0.931 . S
C1146 H1134 0.929 . S
C1146 C1140 1.390 . S
C1146 C1143 1.386 . S
C1147 C1142 1.490 . S
C1147 C1149 1.395 . S
C1147 C1150 1.403 . S
H1148 C1154 0.930 . S
C1149 H1135 0.930 . S
C1149 C1147 1.395 . S
C1149 C1152 1.403 . S
C1150 C1147 1.403 . S
C1150 C1151 1.524 . S
C1150 C1154 1.400 . S
C1151 H1136 0.960 . S
C1151 H1137 0.960 . S
C1151 H1138 0.960 . S
C1151 C1150 1.524 . S
C1152 C1149 1.403 . S
C1152 C1153 1.392 . S
C1152 C1156 1.495 . S
C1153 C1152 1.392 . S
C1153 C1154 1.385 . S
C1153 C1155 1.478 . S
C1154 H1148 0.930 . S
C1154 C1150 1.400 . S
C1154 C1153 1.385 . S
C1155 C1153 1.478 . S
C1155 C1157 1.381 . S
C1155 C1161 1.383 . S
C1156 C1152 1.495 . S
C1156 H1162 0.959 . S
C1156 H1163 0.961 . S
C1156 H1164 0.960 . S
C1157 C1155 1.381 . S
C1157 C1158 1.394 . S
C1157 H1165 0.930 . S
C1158 C1157 1.394 . S
C1158 C1159 1.383 . S
C1158 H1166 0.929 . S
C1159 C1158 1.383 . S
C1159 C1160 1.377 . S
C1160 H1144 0.930 . S
C1160 C1159 1.377 . S
C1160 C1161 1.379 . S
C1161 H1145 0.931 . S
C1161 C1155 1.383 . S
C1161 C1160 1.379 . S
H1162 C1156 0.959 . S
H1163 C1156 0.961 . S
H1164 C1156 0.960 . S
H1165 C1157 0.930 . S
H1166 C1158 0.929 . S
H1167 C1175 0.929 . S
H1168 C1177 0.930 . S
H1169 C1179 0.930 . S
H1170 C1182 0.929 . S
H1171 C1185 0.930 . S
H1172 C1187 0.960 . S
H1173 C1187 0.960 . S
H1174 C1187 0.960 . S
C1175 H1167 0.929 . S
C1175 C1176 1.377 . S
C1175 C1177 1.384 . S
C1176 C1175 1.377 . S
C1176 C1182 1.390 . S
C1177 H1168 0.930 . S
C1177 C1175 1.384 . S
C1177 C1178 1.372 . S
C1178 C1177 1.372 . S
C1178 C1179 1.400 . S
C1178 C1183 1.490 . S
C1179 H1169 0.930 . S
C1179 C1178 1.400 . S
C1179 C1182 1.386 . S
H1180 C1196 0.930 . S
H1181 C1197 0.931 . S
C1182 H1170 0.929 . S
C1182 C1176 1.390 . S
C1182 C1179 1.386 . S
C1183 C1178 1.490 . S
C1183 C1185 1.395 . S
C1183 C1186 1.403 . S
H1184 C1190 0.930 . S
C1185 H1171 0.930 . S
C1185 C1183 1.395 . S
C1185 C1188 1.403 . S
C1186 C1183 1.403 . S
C1186 C1187 1.524 . S
C1186 C1190 1.400 . S
C1187 H1172 0.960 . S
C1187 H1173 0.960 . S
C1187 H1174 0.960 . S
C1187 C1186 1.524 . S
C1188 C1185 1.403 . S
C1188 C1189 1.392 . S
C1188 C1192 1.495 . S
C1189 C1188 1.392 . S
C1189 C1190 1.385 . S
C1189 C1191 1.478 . S
C1190 H1184 0.930 . S
C1190 C1186 1.400 . S
C1190 C1189 1.385 . S
C1191 C1189 1.478 . S
C1191 C1193 1.381 . S
C1191 C1197 1.383 . S
C1192 C1188 1.495 . S
C1192 H1198 0.959 . S
C1192 H1199 0.961 . S
C1192 H1200 0.960 . S
C1193 C1191 1.381 . S
C1193 C1194 1.394 . S
C1193 H1201 0.930 . S
C1194 C1193 1.394 . S
C1194 C1195 1.383 . S
C1194 H1202 0.929 . S
C1195 C1194 1.383 . S
C1195 C1196 1.377 . S
C1196 H1180 0.930 . S
C1196 C1195 1.377 . S
C1196 C1197 1.379 . S
C1197 H1181 0.931 . S
C1197 C1191 1.383 . S
C1197 C1196 1.379 . S
H1198 C1192 0.959 . S
H1199 C1192 0.961 . S
H1200 C1192 0.960 . S
H1201 C1193 0.930 . S
H1202 C1194 0.929 . S
H1203 C1211 0.929 . S
H1204 C1213 0.930 . S
H1205 C1215 0.930 . S
H1206 C1218 0.929 . S
H1207 C1221 0.930 . S
H1208 C1223 0.960 . S
H1209 C1223 0.960 . S
H1210 C1223 0.960 . S
C1211 H1203 0.929 . S
C1211 C1212 1.377 . S
C1211 C1213 1.384 . S
C1212 C1211 1.377 . S
C1212 C1218 1.390 . S
C1213 H1204 0.930 . S
C1213 C1211 1.384 . S
C1213 C1214 1.372 . S
C1214 C1213 1.372 . S
C1214 C1215 1.400 . S
C1214 C1219 1.490 . S
C1215 H1205 0.930 . S
C1215 C1214 1.400 . S
C1215 C1218 1.386 . S
H1216 C1232 0.930 . S
H1217 C1233 0.931 . S
C1218 H1206 0.929 . S
C1218 C1212 1.390 . S
C1218 C1215 1.386 . S
C1219 C1214 1.490 . S
C1219 C1221 1.395 . S
C1219 C1222 1.403 . S
H1220 C1226 0.930 . S
C1221 H1207 0.930 . S
C1221 C1219 1.395 . S
C1221 C1224 1.403 . S
C1222 C1219 1.403 . S
C1222 C1223 1.524 . S
C1222 C1226 1.400 . S
C1223 H1208 0.960 . S
C1223 H1209 0.960 . S
C1223 H1210 0.960 . S
C1223 C1222 1.524 . S
C1224 C1221 1.403 . S
C1224 C1225 1.392 . S
C1224 C1228 1.495 . S
C1225 C1224 1.392 . S
C1225 C1226 1.385 . S
C1225 C1227 1.478 . S
C1226 H1220 0.930 . S
C1226 C1222 1.400 . S
C1226 C1225 1.385 . S
C1227 C1225 1.478 . S
C1227 C1229 1.381 . S
C1227 C1233 1.383 . S
C1228 C1224 1.495 . S
C1228 H1234 0.959 . S
C1228 H1235 0.961 . S
C1228 H1236 0.960 . S
C1229 C1227 1.381 . S
C1229 C1230 1.394 . S
C1229 H1237 0.930 . S
C1230 C1229 1.394 . S
C1230 C1231 1.383 . S
C1230 H1238 0.929 . S
C1231 C1230 1.383 . S
C1231 C1232 1.377 . S
C1232 H1216 0.930 . S
C1232 C1231 1.377 . S
C1232 C1233 1.379 . S
C1233 H1217 0.931 . S
C1233 C1227 1.383 . S
C1233 C1232 1.379 . S
H1234 C1228 0.959 . S
H1235 C1228 0.961 . S
H1236 C1228 0.960 . S
H1237 C1229 0.930 . S
H1238 C1230 0.929 . S
H1239 C1247 0.929 . S
H1240 C1249 0.930 . S
H1241 C1251 0.930 . S
H1242 C1254 0.929 . S
H1243 C1257 0.930 . S
H1244 C1259 0.960 . S
H1245 C1259 0.960 . S
H1246 C1259 0.960 . S
C1247 H1239 0.929 . S
C1247 C1248 1.377 . S
C1247 C1249 1.384 . S
C1248 C1247 1.377 . S
C1248 C1254 1.390 . S
C1249 H1240 0.930 . S
C1249 C1247 1.384 . S
C1249 C1250 1.372 . S
C1250 C1249 1.372 . S
C1250 C1251 1.400 . S
C1250 C1255 1.490 . S
C1251 H1241 0.930 . S
C1251 C1250 1.400 . S
C1251 C1254 1.386 . S
H1252 C1268 0.930 . S
H1253 C1269 0.931 . S
C1254 H1242 0.929 . S
C1254 C1248 1.390 . S
C1254 C1251 1.386 . S
C1255 C1250 1.490 . S
C1255 C1257 1.395 . S
C1255 C1258 1.403 . S
H1256 C1262 0.930 . S
C1257 H1243 0.930 . S
C1257 C1255 1.395 . S
C1257 C1260 1.403 . S
C1258 C1255 1.403 . S
C1258 C1259 1.524 . S
C1258 C1262 1.400 . S
C1259 H1244 0.960 . S
C1259 H1245 0.960 . S
C1259 H1246 0.960 . S
C1259 C1258 1.524 . S
C1260 C1257 1.403 . S
C1260 C1261 1.392 . S
C1260 C1264 1.495 . S
C1261 C1260 1.392 . S
C1261 C1262 1.385 . S
C1261 C1263 1.478 . S
C1262 H1256 0.930 . S
C1262 C1258 1.400 . S
C1262 C1261 1.385 . S
C1263 C1261 1.478 . S
C1263 C1265 1.381 . S
C1263 C1269 1.383 . S
C1264 C1260 1.495 . S
C1264 H1270 0.959 . S
C1264 H1271 0.961 . S
C1264 H1272 0.960 . S
C1265 C1263 1.381 . S
C1265 C1266 1.394 . S
C1265 H1273 0.930 . S
C1266 C1265 1.394 . S
C1266 C1267 1.383 . S
C1266 H1274 0.929 . S
C1267 C1266 1.383 . S
C1267 C1268 1.377 . S
C1268 H1252 0.930 . S
C1268 C1267 1.377 . S
C1268 C1269 1.379 . S
C1269 H1253 0.931 . S
C1269 C1263 1.383 . S
C1269 C1268 1.379 . S
H1270 C1264 0.959 . S
H1271 C1264 0.961 . S
H1272 C1264 0.960 . S
H1273 C1265 0.930 . S
H1274 C1266 0.929 . S
C439 C336 0.964 . S
C420 C16 1.010 . S
C475 C372 1.637 . S
C456 C55 1.769 . S
C511 C337 1.393 . S
C492 C99 1.384 . S
C547 C367 1.494 . S
C528 C133 1.550 . S
C583 C334 1.484 . S
C564 C157 1.528 . S
C600 C211 1.706 . S
C619 C370 1.716 . S
C636 C255 1.076 . S
C655 C339 1.047 . S
C691 C369 1.403 . S
C672 C294 1.439 . S
C727 C373 1.407 . S
C708 C21 1.447 . S
C763 C338 1.453 . S
C744 C40 1.520 . S
C799 C366 1.716 . S
C780 C94 1.707 . S
C835 C335 1.036 . S
C816 C138 1.075 . S
C871 C368 1.701 . S
C852 C172 1.770 . S
C888 C216 1.391 . S
C907 C333 1.397 . S
C924 C235 1.557 . S
C943 C371 1.491 . S
C979 C340 0.992 . S
C960 C289 1.013 . S
C1015 C402 1.763 . S
C996 C1 1.861 . S
C1032 C177 2.039 . S
C1051 C405 1.893 . S
C1087 C404 1.718 . S
C1068 C196 1.764 . S
C1104 C250 2.147 . S
C1123 C403 2.128 . S
C1159 C406 1.782 . S
C1140 C274 1.864 . S
C1176 C79 1.762 . S
C1195 C400 1.726 . S
C1231 C399 2.146 . S
C1212 C118 2.155 . S
C1248 C60 2.028 . S
C1267 C401 1.930 . S
