# Generated by pormake.
# Topology hwx, (6,3)-cn, num edge types: 1
# Building blocks:
#     Node 0, Type 0, BuildingBlock: IZENUY_clean_sbu_0, # of connection points: 6
#     Node 1, Type 0, BuildingBlock: IZENUY_clean_sbu_0, # of connection points: 6
#     Node 2, Type 0, BuildingBlock: IZENUY_clean_sbu_0, # of connection points: 6
#     Node 3, Type 0, BuildingBlock: IZENUY_clean_sbu_0, # of connection points: 6
#     Node 4, Type 1, BuildingBlock: INOVEN_clean_linker_0, # of connection points: 3
#     Node 5, Type 1, BuildingBlock: INOVEN_clean_linker_0, # of connection points: 3
#     Node 6, Type 1, BuildingBlock: INOVEN_clean_linker_0, # of connection points: 3
#     Node 7, Type 1, BuildingBlock: INOVEN_clean_linker_0, # of connection points: 3
#     Node 8, Type 1, BuildingBlock: INOVEN_clean_linker_0, # of connection points: 3
#     Node 9, Type 1, BuildingBlock: INOVEN_clean_linker_0, # of connection points: 3
#     Node 10, Type 1, BuildingBlock: INOVEN_clean_linker_0, # of connection points: 3
#     Node 11, Type 1, BuildingBlock: INOVEN_clean_linker_0, # of connection points: 3
#     Edge 12, Type (0, 1), BuildingBlock: XIVTED_clean_linker_0, # of connection points: 2
#     Edge 13, Type (0, 1), BuildingBlock: XIVTED_clean_linker_0, # of connection points: 2
#     Edge 14, Type (0, 1), BuildingBlock: XIVTED_clean_linker_0, # of connection points: 2
#     Edge 15, Type (0, 1), BuildingBlock: XIVTED_clean_linker_0, # of connection points: 2
#     Edge 16, Type (0, 1), BuildingBlock: XIVTED_clean_linker_0, # of connection points: 2
#     Edge 17, Type (0, 1), BuildingBlock: XIVTED_clean_linker_0, # of connection points: 2
#     Edge 18, Type (0, 1), BuildingBlock: XIVTED_clean_linker_0, # of connection points: 2
#     Edge 19, Type (0, 1), BuildingBlock: XIVTED_clean_linker_0, # of connection points: 2
#     Edge 20, Type (0, 1), BuildingBlock: XIVTED_clean_linker_0, # of connection points: 2
#     Edge 21, Type (0, 1), BuildingBlock: XIVTED_clean_linker_0, # of connection points: 2
#     Edge 22, Type (0, 1), BuildingBlock: XIVTED_clean_linker_0, # of connection points: 2
#     Edge 23, Type (0, 1), BuildingBlock: XIVTED_clean_linker_0, # of connection points: 2
#     Edge 24, Type (0, 1), BuildingBlock: XIVTED_clean_linker_0, # of connection points: 2
#     Edge 25, Type (0, 1), BuildingBlock: XIVTED_clean_linker_0, # of connection points: 2
#     Edge 26, Type (0, 1), BuildingBlock: XIVTED_clean_linker_0, # of connection points: 2
#     Edge 27, Type (0, 1), BuildingBlock: XIVTED_clean_linker_0, # of connection points: 2
#     Edge 28, Type (0, 1), BuildingBlock: XIVTED_clean_linker_0, # of connection points: 2
#     Edge 29, Type (0, 1), BuildingBlock: XIVTED_clean_linker_0, # of connection points: 2
#     Edge 30, Type (0, 1), BuildingBlock: XIVTED_clean_linker_0, # of connection points: 2
#     Edge 31, Type (0, 1), BuildingBlock: XIVTED_clean_linker_0, # of connection points: 2
#     Edge 32, Type (0, 1), BuildingBlock: XIVTED_clean_linker_0, # of connection points: 2
#     Edge 33, Type (0, 1), BuildingBlock: XIVTED_clean_linker_0, # of connection points: 2
#     Edge 34, Type (0, 1), BuildingBlock: XIVTED_clean_linker_0, # of connection points: 2
#     Edge 35, Type (0, 1), BuildingBlock: XIVTED_clean_linker_0, # of connection points: 2
# Relax obj value: 0.004
# Max RMSD: 0.058
# Mean RMSD: 0.048
data_MOF--net-hwx--node1-IZENUY_clean_sbu_0--node2-INOVEN_clean_linker_0--edge1-XIVTED_clean_linker_0
_symmetry_space_group_name_H-M    P1
_symmetry_Int_Tables_number       1
_symmetry_cell_setting            triclinic
loop_
_symmetry_equiv_pos_as_xyz
'x, y, z'
_cell_length_a     51.66791
_cell_length_b     51.712303
_cell_length_c     20.906529
_cell_angle_alpha  92.102005
_cell_angle_beta   92.068587
_cell_angle_gamma 90.008543
loop_
_atom_site_label
_atom_site_type_symbol
_atom_site_fract_x
_atom_site_fract_y
_atom_site_fract_z
_atom_type_partial_charge
Fe0 Fe 0.23634 0.23339 0.0593 0.0
Fe1 Fe 0.23936 0.23223 0.91331 0.0
O2 O 0.22588 0.22041 0.98324 0.0
Fe3 Fe 0.202 0.19577 0.97714 0.0
O4 O 0.18417 0.20799 0.04668 0.0
O5 O 0.20396 0.24438 0.07634 0.0
O6 O 0.24259 0.26588 0.03132 0.0
C7 C 0.23324 0.27732 0.98326 0.0
C8 C 0.2302 0.18002 0.08143 0.0
O9 O 0.22777 0.26482 0.93149 0.0
C10 C 0.23814 0.18022 0.88419 0.0
O11 O 0.26952 0.22325 0.04679 0.0
O12 O 0.27133 0.23926 0.95119 0.0
O13 O 0.22171 0.17432 0.02546 0.0
O14 O 0.23173 0.20337 0.10147 0.0
C15 C 0.18651 0.22462 0.87602 0.0
O16 O 0.25172 0.20049 0.8911 0.0
O17 O 0.21568 0.17929 0.90659 0.0
C18 C 0.28252 0.23011 0.00028 0.0
O19 O 0.21002 0.22711 0.86234 0.0
O20 O 0.18048 0.21537 0.92835 0.0
C21 C 0.18412 0.23012 0.07494 0.0
Fe22 Fe 0.26217 0.73438 0.57819 0.0
Fe23 Fe 0.29645 0.69501 0.50755 0.0
O24 O 0.27307 0.72012 0.50583 0.0
Fe25 Fe 0.26059 0.731 0.43156 0.0
O26 O 0.27265 0.76359 0.44915 0.0
O27 O 0.25759 0.76668 0.54615 0.0
O28 O 0.29462 0.74463 0.60277 0.0
C29 C 0.314 0.72994 0.60746 0.0
C30 C 0.21657 0.73147 0.50826 0.0
O31 O 0.31362 0.70751 0.58089 0.0
C32 C 0.2612 0.67879 0.40658 0.0
O33 O 0.26485 0.70467 0.6232 0.0
O34 O 0.27563 0.6746 0.55205 0.0
O35 O 0.22844 0.73927 0.46067 0.0
O36 O 0.22889 0.72516 0.55843 0.0
C37 C 0.31362 0.72226 0.40851 0.0
O38 O 0.2834 0.67793 0.43446 0.0
O39 O 0.24778 0.69916 0.40953 0.0
C40 C 0.26563 0.68115 0.60428 0.0
O41 O 0.31891 0.71373 0.4631 0.0
O42 O 0.29035 0.72459 0.38853 0.0
C43 C 0.26722 0.77705 0.49845 0.0
Fe44 Fe 0.76093 0.77843 0.95314 0.0
Fe45 Fe 0.76265 0.77658 0.09919 0.0
O46 O 0.77355 0.79013 0.02844 0.0
Fe47 Fe 0.79701 0.81526 0.0329 0.0
O48 O 0.7838 0.83173 0.96227 0.0
O49 O 0.74828 0.81002 0.93477 0.0
O50 O 0.72885 0.77087 0.98181 0.0
C51 C 0.71708 0.77985 0.02977 0.0
C52 C 0.8139 0.78593 0.93112 0.0
O53 O 0.7294 0.78622 0.08119 0.0
C54 C 0.81455 0.78087 0.12793 0.0
O55 O 0.77277 0.74602 0.96711 0.0
O56 O 0.75722 0.74401 0.06313 0.0
O57 O 0.81933 0.7962 0.98552 0.0
O58 O 0.79064 0.7839 0.91055 0.0
C59 C 0.76769 0.82999 0.13379 0.0
O60 O 0.79508 0.76615 0.1214 0.0
O61 O 0.81431 0.8031 0.1042 0.0
C62 C 0.7669 0.73304 0.0144 0.0
O63 O 0.76635 0.8065 0.14839 0.0
O64 O 0.77643 0.83615 0.08093 0.0
C65 C 0.76149 0.83052 0.93497 0.0
Fe66 Fe 0.70261 0.31469 0.5207 0.0
Fe67 Fe 0.73954 0.27818 0.59223 0.0
O68 O 0.72612 0.28969 0.51961 0.0
Fe69 Fe 0.73625 0.27611 0.44576 0.0
O70 O 0.73194 0.30595 0.40186 0.0
O71 O 0.72275 0.33563 0.47528 0.0
O72 O 0.7163 0.33131 0.59356 0.0
C73 C 0.73875 0.33029 0.61985 0.0
C74 C 0.68417 0.28003 0.42092 0.0
O75 O 0.75209 0.30993 0.61569 0.0
C76 C 0.73331 0.23263 0.52331 0.0
O77 O 0.6808 0.2956 0.56591 0.0
O78 O 0.71002 0.28327 0.63742 0.0
O79 O 0.70367 0.2654 0.42405 0.0
O80 O 0.68469 0.30238 0.44809 0.0
C81 C 0.78264 0.27944 0.51212 0.0
O82 O 0.72788 0.24559 0.57329 0.0
O83 O 0.74223 0.24366 0.47573 0.0
C84 C 0.68658 0.28553 0.6185 0.0
O85 O 0.77153 0.271 0.56024 0.0
O86 O 0.76956 0.28597 0.46316 0.0
C87 C 0.73093 0.32945 0.42075 0.0
H88 H 0.22354 0.51675 0.88006 0.0
H89 H 0.22557 0.58683 0.99755 0.0
H90 H 0.22396 0.51318 0.08558 0.0
N91 N 0.22328 0.4844 0.97368 0.0
N92 N 0.22386 0.46995 0.02015 0.0
C93 C 0.22372 0.52654 0.92681 0.0
C94 C 0.22423 0.55368 0.93194 0.0
C95 C 0.22352 0.51179 0.98168 0.0
C96 C 0.22392 0.52437 0.04277 0.0
C97 C 0.2241 0.55152 0.0485 0.0
C98 C 0.22426 0.56591 0.99296 0.0
H99 H 0.97978 0.74621 0.64576 0.0
H100 H 0.90794 0.74853 0.53544 0.0
H101 H 0.97993 0.7455 0.43953 0.0
N102 N 0.01052 0.74395 0.54787 0.0
N103 N 0.02389 0.74347 0.49935 0.0
C104 C 0.96929 0.74645 0.59994 0.0
C105 C 0.94212 0.74721 0.59751 0.0
C106 C 0.98309 0.74561 0.54334 0.0
C107 C 0.96952 0.74603 0.48363 0.0
C108 C 0.94237 0.74666 0.48073 0.0
C109 C 0.9289 0.74721 0.53771 0.0
H110 H 0.76026 0.49501 0.13493 0.0
H111 H 0.7673 0.42393 0.02331 0.0
H112 H 0.77622 0.49657 0.93412 0.0
N113 N 0.76922 0.52646 0.04167 0.0
N114 N 0.77395 0.54014 0.99555 0.0
C115 C 0.76401 0.48481 0.09003 0.0
C116 C 0.76295 0.45765 0.08575 0.0
C117 C 0.76901 0.49901 0.03581 0.0
C118 C 0.7729 0.48585 0.97664 0.0
C119 C 0.77245 0.45874 0.97226 0.0
C120 C 0.76783 0.4449 0.02702 0.0
H121 H 0.01687 0.2685 0.36289 0.0
H122 H 0.09009 0.25666 0.46072 0.0
H123 H 0.02001 0.25556 0.56559 0.0
N124 N 0.98793 0.26601 0.46375 0.0
N125 N 0.97529 0.26449 0.51321 0.0
C126 C 0.02801 0.26502 0.40666 0.0
C127 C 0.05502 0.26288 0.40541 0.0
C128 C 0.01527 0.263 0.46442 0.0
C129 C 0.02976 0.25788 0.52116 0.0
C130 C 0.05682 0.25506 0.52 0.0
C131 C 0.06919 0.25827 0.46213 0.0
H132 H 0.72225 0.99674 0.65078 0.0
H133 H 0.73201 0.92412 0.54846 0.0
H134 H 0.73725 0.99515 0.44917 0.0
N135 N 0.72775 0.02658 0.55281 0.0
N136 N 0.73084 0.03965 0.50469 0.0
C137 C 0.72558 0.9859 0.60649 0.0
C138 C 0.72652 0.95881 0.60596 0.0
C139 C 0.7289 0.99914 0.54999 0.0
C140 C 0.7339 0.98506 0.4926 0.0
C141 C 0.73548 0.95793 0.49197 0.0
C142 C 0.73112 0.94507 0.54856 0.0
H143 H 0.52115 0.24464 0.89581 0.0
H144 H 0.59183 0.24655 0.01132 0.0
H145 H 0.51879 0.24293 0.10159 0.0
N146 N 0.48926 0.24176 0.99134 0.0
N147 N 0.47555 0.23861 0.03839 0.0
C148 C 0.53114 0.24467 0.9423 0.0
C149 C 0.55835 0.2454 0.94664 0.0
C150 C 0.5167 0.24342 0.99777 0.0
C151 C 0.52966 0.24361 0.05833 0.0
C152 C 0.55678 0.24438 0.06309 0.0
C153 C 0.57089 0.24519 0.00726 0.0
H154 H 0.26231 0.01559 0.37103 0.0
H155 H 0.26572 0.08597 0.48748 0.0
H156 H 0.27651 0.01295 0.57519 0.0
N157 N 0.27138 0.98364 0.46484 0.0
N158 N 0.27444 0.9698 0.51215 0.0
C159 C 0.26536 0.02555 0.4172 0.0
C160 C 0.26318 0.05262 0.4226 0.0
C161 C 0.27032 0.01106 0.47181 0.0
C162 C 0.2732 0.02389 0.53245 0.0
C163 C 0.27177 0.05095 0.53803 0.0
C164 C 0.26712 0.06507 0.48294 0.0
H165 H 0.47843 0.75373 0.12724 0.0
H166 H 0.40887 0.7525 0.00749 0.0
H167 H 0.48202 0.76748 0.92563 0.0
N168 N 0.51048 0.76503 0.03752 0.0
N169 N 0.52468 0.76975 0.99241 0.0
C170 C 0.4687 0.75583 0.08094 0.0
C171 C 0.44183 0.75203 0.0738 0.0
C172 C 0.48333 0.76159 0.02807 0.0
C173 C 0.47093 0.76345 0.96713 0.0
C174 C 0.44401 0.76035 0.95994 0.0
C175 C 0.42968 0.75493 0.0134 0.0
H176 H 0.1378 0.2048 0.08496 0.0
H177 H 0.09515 0.29442 0.37947 0.0
H178 H 0.17913 0.27378 0.15185 0.0
H179 H 0.0473 0.23284 0.29612 0.0
H180 H 0.12383 0.28978 0.28937 0.0
H181 H 0.10257 0.21672 0.15518 0.0
C182 C 0.13942 0.22254 0.11405 0.0
C183 C 0.16168 0.2381 0.11315 0.0
C184 C 0.10684 0.27754 0.28999 0.0
C185 C 0.12137 0.25184 0.19366 0.0
C186 C 0.09045 0.28027 0.34129 0.0
C187 C 0.06898 0.26391 0.34507 0.0
C188 C 0.10197 0.25799 0.24265 0.0
C189 C 0.06366 0.24587 0.29463 0.0
C190 C 0.11923 0.22937 0.15398 0.0
C191 C 0.16252 0.261 0.15141 0.0
N192 N 0.08031 0.24308 0.2459 0.0
N193 N 0.1428 0.26701 0.19054 0.0
H194 H 0.23484 0.68771 0.70677 0.0
H195 H 0.25408 0.54476 0.82726 0.0
H196 H 0.27543 0.62888 0.59823 0.0
H197 H 0.19913 0.59894 0.90617 0.0
H198 H 0.26131 0.57428 0.74078 0.0
H199 H 0.22131 0.65495 0.77947 0.0
C200 C 0.2409 0.66787 0.69818 0.0
C201 C 0.25651 0.66107 0.64672 0.0
C202 C 0.24745 0.57955 0.77664 0.0
C203 C 0.24107 0.62337 0.72997 0.0
C204 C 0.24319 0.56263 0.82581 0.0
C205 C 0.22621 0.56954 0.87453 0.0
C206 C 0.23478 0.60358 0.77652 0.0
C207 C 0.21283 0.59308 0.87046 0.0
C208 C 0.23303 0.64912 0.73954 0.0
C209 C 0.26348 0.63498 0.63749 0.0
N210 N 0.21762 0.60936 0.82282 0.0
N211 N 0.25593 0.6171 0.67916 0.0
H212 H 0.85977 0.80748 0.15603 0.0
H213 H 0.90199 0.7159 0.43916 0.0
H214 H 0.81971 0.73699 0.19686 0.0
H215 H 0.94877 0.77966 0.38298 0.0
H216 H 0.87348 0.72155 0.34502 0.0
H217 H 0.8942 0.79623 0.23335 0.0
C218 C 0.85827 0.78956 0.18088 0.0
C219 C 0.8366 0.77334 0.1705 0.0
C220 C 0.89014 0.73414 0.35263 0.0
C221 C 0.87596 0.76038 0.25913 0.0
C222 C 0.90639 0.7309 0.40636 0.0
C223 C 0.92758 0.74748 0.41891 0.0
C224 C 0.89489 0.75435 0.31152 0.0
C225 C 0.93262 0.76647 0.3748 0.0
C226 C 0.87799 0.78312 0.22492 0.0
C227 C 0.83588 0.75024 0.20369 0.0
N228 N 0.91615 0.76965 0.32343 0.0
N229 N 0.85511 0.74461 0.24689 0.0
H230 H 0.78696 0.33652 0.67728 0.0
H231 H 0.80392 0.41783 0.94514 0.0
H232 H 0.71268 0.37419 0.65741 0.0
H233 H 0.74512 0.46614 0.86005 0.0
H234 H 0.80048 0.3884 0.85184 0.0
H235 H 0.80139 0.37099 0.75269 0.0
C236 C 0.77361 0.35199 0.68906 0.0
C237 C 0.74834 0.35211 0.66205 0.0
C238 C 0.78891 0.40581 0.85199 0.0
C239 C 0.76452 0.39141 0.75011 0.0
C240 C 0.79078 0.42256 0.9057 0.0
C241 C 0.77471 0.44433 0.91025 0.0
C242 C 0.77068 0.41081 0.80241 0.0
C243 C 0.75795 0.4496 0.85812 0.0
C244 C 0.78182 0.37163 0.73264 0.0
C245 C 0.73218 0.37305 0.67781 0.0
N246 N 0.75603 0.43268 0.8068 0.0
N247 N 0.74047 0.39171 0.72125 0.0
H248 H 0.63926 0.30694 0.39649 0.0
H249 H 0.59602 0.21299 0.10222 0.0
H250 H 0.67805 0.23529 0.34776 0.0
H251 H 0.55016 0.27807 0.16525 0.0
H252 H 0.6241 0.21892 0.19808 0.0
H253 H 0.60453 0.29522 0.31821 0.0
C254 C 0.64041 0.28867 0.36974 0.0
C255 C 0.66184 0.27227 0.3781 0.0
C256 C 0.60771 0.23172 0.19163 0.0
C257 C 0.62214 0.25876 0.28842 0.0
C258 C 0.5917 0.22831 0.13695 0.0
C259 C 0.57093 0.24519 0.12587 0.0
C260 C 0.60319 0.25244 0.23513 0.0
C261 C 0.56599 0.26464 0.17231 0.0
C262 C 0.62052 0.28196 0.32516 0.0
C263 C 0.6621 0.24872 0.3425 0.0
N264 N 0.58227 0.26801 0.22458 0.0
N265 N 0.64272 0.24282 0.29884 0.0
H266 H 0.28218 0.17753 0.81466 0.0
H267 H 0.24387 0.04128 0.64325 0.0
H268 H 0.21516 0.13285 0.86064 0.0
H269 H 0.30135 0.09298 0.57503 0.0
H270 H 0.23924 0.07011 0.73792 0.0
H271 H 0.29499 0.14255 0.74079 0.0
C272 C 0.27023 0.16031 0.80962 0.0
C273 C 0.2473 0.15835 0.8432 0.0
C274 C 0.25317 0.07493 0.70274 0.0
C275 C 0.26197 0.11815 0.75877 0.0
C276 C 0.25599 0.05836 0.6491 0.0
C277 C 0.27284 0.06494 0.60118 0.0
C278 C 0.26739 0.09813 0.70838 0.0
C279 C 0.28792 0.08741 0.61067 0.0
C280 C 0.27758 0.14033 0.76742 0.0
C281 C 0.23278 0.1354 0.83511 0.0
N282 N 0.28466 0.10334 0.66284 0.0
N283 N 0.24025 0.11629 0.79337 0.0
H284 H 0.36482 0.73417 0.43567 0.0
H285 H 0.40324 0.71605 0.07202 0.0
H286 H 0.30987 0.71812 0.27877 0.0
H287 H 0.44479 0.77039 0.19954 0.0
H288 H 0.37371 0.70753 0.15694 0.0
H289 H 0.39889 0.73957 0.35757 0.0
C290 C 0.35998 0.73173 0.38496 0.0
C291 C 0.33452 0.72583 0.36348 0.0
C292 C 0.38937 0.72124 0.1664 0.0
C293 C 0.37314 0.73137 0.27504 0.0
C294 C 0.40617 0.72621 0.11795 0.0
C295 C 0.42611 0.74449 0.12815 0.0
C296 C 0.39262 0.73435 0.22598 0.0
C297 C 0.42956 0.75628 0.18953 0.0
C298 C 0.37933 0.73486 0.3407 0.0
C299 C 0.32918 0.7229 0.2974 0.0
N300 N 0.4128 0.75115 0.23626 0.0
N301 N 0.34835 0.72552 0.25561 0.0
H302 H 0.71319 0.83667 0.8795 0.0
H303 H 0.69546 0.91759 0.62615 0.0
H304 H 0.78764 0.87436 0.90441 0.0
H305 H 0.75428 0.96636 0.71889 0.0
H306 H 0.69937 0.88815 0.71399 0.0
H307 H 0.69861 0.87104 0.81039 0.0
C308 C 0.72655 0.85212 0.87009 0.0
C309 C 0.7519 0.85228 0.89663 0.0
C310 C 0.71085 0.90566 0.7168 0.0
C311 C 0.73555 0.89147 0.81573 0.0
C312 C 0.7087 0.92241 0.6662 0.0
C313 C 0.72462 0.94433 0.66535 0.0
C314 C 0.72921 0.91081 0.76697 0.0
C315 C 0.74155 0.94971 0.71808 0.0
C316 C 0.71825 0.8717 0.83011 0.0
C317 C 0.76807 0.8732 0.88419 0.0
N318 N 0.74374 0.93279 0.76628 0.0
N319 N 0.75969 0.89181 0.84414 0.0
H320 H 0.80965 0.75259 0.82788 0.0
H321 H 0.95087 0.77847 0.70529 0.0
H322 H 0.86552 0.79963 0.93774 0.0
H323 H 0.89892 0.71981 0.62358 0.0
H324 H 0.92157 0.78536 0.79418 0.0
H325 H 0.84318 0.73976 0.75462 0.0
C326 C 0.82903 0.76025 0.83658 0.0
C327 C 0.83472 0.77746 0.88856 0.0
C328 C 0.9168 0.77075 0.7572 0.0
C329 C 0.8734 0.76279 0.80452 0.0
C330 C 0.93356 0.76672 0.70672 0.0
C331 C 0.92708 0.74882 0.65657 0.0
C332 C 0.89343 0.75683 0.75713 0.0
C333 C 0.90437 0.7342 0.66056 0.0
C334 C 0.84825 0.75277 0.79489 0.0
C335 C 0.86029 0.78642 0.89802 0.0
N336 N 0.88826 0.73873 0.70946 0.0
N337 N 0.87868 0.7792 0.85588 0.0
H338 H 0.73072 0.32362 0.2911 0.0
H339 H 0.77917 0.46348 0.213 0.0
H340 H 0.7416 0.3813 0.44437 0.0
H341 H 0.73006 0.41646 0.08409 0.0
H342 H 0.77044 0.43371 0.29913 0.0
H343 H 0.73689 0.35681 0.21371 0.0
C344 C 0.73456 0.34328 0.30858 0.0
C345 C 0.7356 0.3497 0.37437 0.0
C346 C 0.76149 0.43017 0.25198 0.0
C347 C 0.74273 0.3879 0.28553 0.0
C348 C 0.76637 0.44713 0.20299 0.0
C349 C 0.75581 0.44211 0.14087 0.0
C350 C 0.74622 0.40806 0.23819 0.0
C351 C 0.73931 0.42067 0.1306 0.0
C352 C 0.73789 0.36226 0.26426 0.0
C353 C 0.74052 0.37559 0.394 0.0
N354 N 0.73534 0.4043 0.17838 0.0
N355 N 0.74409 0.39382 0.34965 0.0
H356 H 0.19206 0.22429 0.74722 0.0
H357 H 0.05252 0.27313 0.64542 0.0
H358 H 0.13473 0.23491 0.89104 0.0
H359 H 0.09714 0.22108 0.52666 0.0
H360 H 0.08269 0.2648 0.73627 0.0
H361 H 0.15847 0.23012 0.66423 0.0
C362 C 0.1724 0.22802 0.7614 0.0
C363 C 0.16616 0.22908 0.82614 0.0
C364 C 0.08561 0.25513 0.69026 0.0
C365 C 0.12761 0.23588 0.73112 0.0
C366 C 0.06841 0.25977 0.63855 0.0
C367 C 0.07263 0.24825 0.57787 0.0
C368 C 0.10722 0.23918 0.68064 0.0
C369 C 0.09356 0.2311 0.57184 0.0
C370 C 0.15322 0.23115 0.71395 0.0
C371 C 0.14029 0.23382 0.84158 0.0
N372 N 0.11023 0.22741 0.62217 0.0
N373 N 0.12189 0.23726 0.79429 0.0
H374 H 0.21618 0.67488 0.33335 0.0
H375 H 0.25744 0.54328 0.15077 0.0
H376 H 0.28605 0.63282 0.3808 0.0
H377 H 0.19416 0.59183 0.08914 0.0
H378 H 0.26386 0.57149 0.24709 0.0
H379 H 0.20382 0.6405 0.25524 0.0
C380 C 0.22887 0.65834 0.32771 0.0
C381 C 0.2524 0.65697 0.36315 0.0
C382 C 0.24835 0.57576 0.21288 0.0
C383 C 0.23829 0.61742 0.2735 0.0
C384 C 0.24457 0.55956 0.15826 0.0
C385 C 0.22541 0.56543 0.11181 0.0
C386 C 0.23277 0.59785 0.22103 0.0
C387 C 0.20937 0.58685 0.12348 0.0
C388 C 0.22178 0.63868 0.28303 0.0
C389 C 0.26788 0.63487 0.3541 0.0
N390 N 0.21354 0.60239 0.1766 0.0
N391 N 0.26066 0.61608 0.3098 0.0
H392 H 0.31944 0.77455 0.68158 0.0
H393 H 0.45299 0.73115 0.8514 0.0
H394 H 0.35957 0.70394 0.63034 0.0
H395 H 0.40324 0.79092 0.92664 0.0
H396 H 0.42408 0.72665 0.75569 0.0
H397 H 0.35487 0.78604 0.75759 0.0
C398 C 0.33576 0.7615 0.68597 0.0
C399 C 0.33629 0.73801 0.65018 0.0
C400 C 0.41975 0.74106 0.79266 0.0
C401 C 0.37704 0.75119 0.73714 0.0
C402 C 0.43635 0.74378 0.84684 0.0
C403 C 0.43031 0.76133 0.89677 0.0
C404 C 0.39713 0.75612 0.78859 0.0
C405 C 0.40841 0.77706 0.88916 0.0
C406 C 0.35601 0.76811 0.7294 0.0
C407 C 0.35815 0.72207 0.65752 0.0
N408 N 0.39249 0.77394 0.83637 0.0
N409 N 0.37756 0.72886 0.70052 0.0
H410 H 0.7673 0.82418 0.26227 0.0
H411 H 0.71852 0.96345 0.36619 0.0
H412 H 0.75716 0.88182 0.11919 0.0
H413 H 0.76901 0.91739 0.48519 0.0
H414 H 0.72722 0.93381 0.27442 0.0
H415 H 0.76102 0.8574 0.34548 0.0
C416 C 0.76358 0.84384 0.24825 0.0
C417 C 0.7628 0.85024 0.18362 0.0
C418 C 0.73648 0.93048 0.32068 0.0
C419 C 0.75554 0.88847 0.27914 0.0
C420 C 0.73162 0.94736 0.37288 0.0
C421 C 0.74258 0.94254 0.43379 0.0
C422 C 0.75212 0.90863 0.33008 0.0
C423 C 0.75945 0.92141 0.43971 0.0
C424 C 0.76019 0.86284 0.29589 0.0
C425 C 0.75804 0.87613 0.16854 0.0
N426 N 0.76338 0.90509 0.38887 0.0
N427 N 0.75439 0.89439 0.21609 0.0
H428 H 0.63477 0.29791 0.61091 0.0
H429 H 0.60212 0.2183 0.91917 0.0
H430 H 0.69097 0.25508 0.72217 0.0
H431 H 0.55092 0.27652 0.84352 0.0
H432 H 0.63187 0.22597 0.83398 0.0
H433 H 0.60123 0.28529 0.68393 0.0
C434 C 0.64005 0.28579 0.65048 0.0
C435 C 0.66579 0.27774 0.66081 0.0
C436 C 0.61406 0.23697 0.83563 0.0
C437 C 0.62751 0.26304 0.74378 0.0
C438 C 0.59705 0.23259 0.88424 0.0
C439 C 0.5742 0.2471 0.88906 0.0
C440 C 0.60825 0.25599 0.79115 0.0
C441 C 0.56834 0.26493 0.84159 0.0
C442 C 0.6209 0.27863 0.69208 0.0
C443 C 0.67148 0.262 0.71272 0.0
N444 N 0.58541 0.26909 0.79487 0.0
N445 N 0.65252 0.25519 0.75215 0.0
H446 H 0.24205 0.12875 0.05654 0.0
H447 H 0.22825 0.09198 0.41941 0.0
H448 H 0.2287 0.18428 0.21108 0.0
H449 H 0.2802 0.0488 0.29867 0.0
H450 H 0.21955 0.12138 0.33308 0.0
H451 H 0.24873 0.09505 0.13597 0.0
C452 C 0.24051 0.13382 0.10699 0.0
C453 C 0.23488 0.15934 0.12735 0.0
C454 C 0.23281 0.10544 0.32537 0.0
C455 C 0.24191 0.12109 0.21734 0.0
C456 C 0.23787 0.08867 0.37465 0.0
C457 C 0.25556 0.0683 0.36687 0.0
C458 C 0.24519 0.10173 0.26724 0.0
C459 C 0.26661 0.0644 0.30682 0.0
C460 C 0.24437 0.11466 0.15203 0.0
C461 C 0.23316 0.16494 0.19319 0.0
N462 N 0.26139 0.08114 0.25915 0.0
N463 N 0.23645 0.14595 0.23567 0.0
H464 H 0.23829 0.30874 0.09041 0.0
H465 H 0.22044 0.44111 0.90781 0.0
H466 H 0.22222 0.31103 0.88656 0.0
H467 H 0.22724 0.43649 0.11311 0.0
H468 H 0.22158 0.39377 0.89778 0.0
H469 H 0.23493 0.35561 0.0984 0.0
C470 C 0.23409 0.3191 0.04715 0.0
C471 C 0.23071 0.30586 0.98757 0.0
C472 C 0.22274 0.40308 0.94503 0.0
C473 C 0.22676 0.35987 0.99658 0.0
C474 C 0.22213 0.43009 0.9508 0.0
C475 C 0.22384 0.44258 0.0117 0.0
C476 C 0.22521 0.38856 0.00042 0.0
C477 C 0.22592 0.42744 0.06559 0.0
C478 C 0.23209 0.34594 0.05185 0.0
C479 C 0.22504 0.32042 0.93342 0.0
N480 N 0.22664 0.40123 0.05878 0.0
N481 N 0.22336 0.34668 0.93917 0.0
H482 H 0.1839 0.74091 0.40614 0.0
H483 H 0.05493 0.73733 0.60636 0.0
H484 H 0.18388 0.72377 0.60677 0.0
H485 H 0.05509 0.74465 0.40172 0.0
H486 H 0.1022 0.73357 0.60869 0.0
H487 H 0.1368 0.74343 0.40457 0.0
C488 C 0.174 0.73766 0.44994 0.0
C489 C 0.18792 0.73224 0.50678 0.0
C490 C 0.09192 0.73597 0.56324 0.0
C491 C 0.13382 0.73514 0.50526 0.0
C492 C 0.06497 0.73818 0.56192 0.0
C493 C 0.05127 0.74138 0.50346 0.0
C494 C 0.10518 0.73707 0.50587 0.0
C495 C 0.06513 0.74226 0.44746 0.0
C496 C 0.14706 0.73907 0.44895 0.0
C497 C 0.17397 0.72805 0.5619 0.0
N498 N 0.09135 0.74018 0.44994 0.0
N499 N 0.14768 0.72969 0.55982 0.0
H500 H 0.78259 0.70169 0.91398 0.0
H501 H 0.76312 0.57072 0.10039 0.0
H502 H 0.75637 0.69919 0.1075 0.0
H503 H 0.78437 0.57199 0.9031 0.0
H504 H 0.76242 0.61801 0.10503 0.0
H505 H 0.78525 0.65441 0.91 0.0
C506 C 0.7774 0.69124 0.95563 0.0
C507 C 0.76909 0.70447 0.01103 0.0
C508 C 0.76728 0.60801 0.06066 0.0
C509 C 0.77217 0.65036 0.00683 0.0
C510 C 0.7677 0.58101 0.05806 0.0
C511 C 0.77382 0.56759 0.00099 0.0
C512 C 0.77302 0.62166 0.00596 0.0
C513 C 0.77958 0.58182 0.94772 0.0
C514 C 0.77892 0.66424 0.95331 0.0
C515 C 0.76274 0.68986 0.06361 0.0
N516 N 0.77903 0.60812 0.95134 0.0
N517 N 0.76438 0.66365 0.06016 0.0
H518 H 0.814 0.28961 0.4123 0.0
H519 H 0.94548 0.26053 0.61293 0.0
H520 H 0.81678 0.26818 0.61014 0.0
H521 H 0.94295 0.27566 0.41152 0.0
H522 H 0.89826 0.26543 0.6139 0.0
H523 H 0.86131 0.28694 0.41199 0.0
C524 C 0.82452 0.28442 0.45571 0.0
C525 C 0.81132 0.27896 0.51122 0.0
C526 C 0.908 0.2677 0.56944 0.0
C527 C 0.86548 0.27588 0.51116 0.0
C528 C 0.93486 0.2649 0.56903 0.0
C529 C 0.94797 0.26761 0.51238 0.0
C530 C 0.89414 0.27331 0.5125 0.0
C531 C 0.93354 0.27334 0.45636 0.0
C532 C 0.85154 0.28286 0.45545 0.0
C533 C 0.82604 0.2724 0.56608 0.0
N534 N 0.90737 0.27599 0.45788 0.0
N535 N 0.85226 0.27101 0.56459 0.0
H536 H 0.72005 0.20104 0.62009 0.0
H537 H 0.73802 0.07026 0.40801 0.0
H538 H 0.74235 0.19894 0.42284 0.0
H539 H 0.72152 0.07144 0.60864 0.0
H540 H 0.73751 0.11772 0.41141 0.0
H541 H 0.71829 0.1537 0.61599 0.0
C542 C 0.72455 0.19067 0.57593 0.0
C543 C 0.73153 0.20403 0.52185 0.0
C544 C 0.73397 0.10763 0.45474 0.0
C545 C 0.72947 0.14987 0.51683 0.0
C546 C 0.73425 0.08064 0.45264 0.0
C547 C 0.72991 0.06709 0.50782 0.0
C548 C 0.72925 0.12116 0.51272 0.0
C549 C 0.72504 0.0812 0.56488 0.0
C550 C 0.72355 0.16364 0.57364 0.0
C551 C 0.73704 0.18952 0.46587 0.0
N552 N 0.72487 0.10751 0.56582 0.0
N553 N 0.73593 0.16329 0.46488 0.0
H554 H 0.31613 0.24037 0.90656 0.0
H555 H 0.44393 0.23003 0.13259 0.0
H556 H 0.31444 0.21986 0.10475 0.0
H557 H 0.44479 0.24309 0.93034 0.0
H558 H 0.39646 0.2268 0.12447 0.0
H559 H 0.36323 0.24184 0.91521 0.0
C560 C 0.32565 0.23615 0.952 0.0
C561 C 0.31122 0.23011 0.00514 0.0
C562 C 0.40702 0.23032 0.08185 0.0
C563 C 0.36542 0.23181 0.01533 0.0
C564 C 0.434 0.23219 0.08657 0.0
C565 C 0.44813 0.23681 0.03234 0.0
C566 C 0.39411 0.23322 0.02222 0.0
C567 C 0.43461 0.2395 0.97346 0.0
C568 C 0.35261 0.23696 0.95684 0.0
C569 C 0.32474 0.22465 0.06256 0.0
N570 N 0.40834 0.23771 0.97008 0.0
N571 N 0.35108 0.22574 0.06621 0.0
H572 H 0.26534 0.81047 0.60194 0.0
H573 H 0.27267 0.93903 0.40262 0.0
H574 H 0.27559 0.80866 0.39778 0.0
H575 H 0.27777 0.93822 0.60868 0.0
H576 H 0.27254 0.89153 0.39822 0.0
H577 H 0.26857 0.85743 0.60398 0.0
C578 C 0.26826 0.81995 0.55741 0.0
C579 C 0.27003 0.80556 0.4995 0.0
C580 C 0.27381 0.90174 0.44438 0.0
C581 C 0.27374 0.8596 0.50155 0.0
C582 C 0.27384 0.92881 0.44691 0.0
C583 C 0.27514 0.94238 0.50644 0.0
C584 C 0.2749 0.88829 0.50165 0.0
C585 C 0.27669 0.9283 0.56217 0.0
C586 C 0.2702 0.84682 0.55868 0.0
C587 C 0.27408 0.81898 0.44348 0.0
N588 N 0.27639 0.90203 0.55854 0.0
N589 N 0.27563 0.84529 0.44582 0.0
H590 H 0.68601 0.77723 0.92207 0.0
H591 H 0.55337 0.77005 0.10501 0.0
H592 H 0.68293 0.78436 0.12806 0.0
H593 H 0.55773 0.77699 0.90091 0.0
H594 H 0.60058 0.77461 0.11572 0.0
H595 H 0.63896 0.77651 0.91445 0.0
C596 C 0.67541 0.77864 0.96584 0.0
C597 C 0.68846 0.78063 0.02588 0.0
C598 C 0.59121 0.77527 0.06863 0.0
C599 C 0.63432 0.77979 0.0174 0.0
C600 C 0.56431 0.7726 0.06248 0.0
C601 C 0.55184 0.77305 0.00163 0.0
C602 C 0.60563 0.7782 0.01365 0.0
C603 C 0.56681 0.7765 0.94834 0.0
C604 C 0.64849 0.77833 0.9614 0.0
C605 C 0.67365 0.78274 0.08083 0.0
N606 N 0.59293 0.77881 0.95544 0.0
N607 N 0.64731 0.78206 0.07531 0.0
loop_
_geom_bond_atom_site_label_1
_geom_bond_atom_site_label_2
_geom_bond_distance
_geom_bond_site_symmetry_2
_ccdc_geom_bond_type
Fe0 O2 1.918 . S
Fe0 O5 1.997 . S
Fe0 O6 2.002 . S
Fe0 O11 1.976 . S
Fe0 O14 1.996 . S
Fe1 O2 1.918 1_556 S
Fe1 O9 1.997 . S
Fe1 O12 1.996 . S
Fe1 O16 1.976 . S
Fe1 O19 2.002 . S
O2 Fe0 1.918 . S
O2 Fe1 1.918 1_554 S
O2 Fe3 1.918 . S
Fe3 O2 1.918 . S
Fe3 O4 2.008 . S
Fe3 O13 1.982 . S
Fe3 O17 1.989 1_554 S
Fe3 O20 1.990 1_554 S
O4 Fe3 2.008 . S
O4 C21 1.295 . S
O5 Fe0 1.997 . S
O5 C21 1.235 . S
O6 Fe0 2.002 . S
O6 C7 1.295 . S
C7 O6 1.295 . S
C7 O9 1.235 1_554 S
C8 O13 1.287 . S
C8 O14 1.255 . S
O9 Fe1 1.997 . S
O9 C7 1.235 1_556 S
C10 O16 1.287 . S
C10 O17 1.255 . S
O11 Fe0 1.976 . S
O11 C18 1.287 . S
O12 Fe1 1.996 . S
O12 C18 1.255 1_556 S
O13 Fe3 1.982 . S
O13 C8 1.287 . S
O14 Fe0 1.996 . S
O14 C8 1.255 . S
C15 O19 1.295 . S
C15 O20 1.235 . S
O16 Fe1 1.976 . S
O16 C10 1.287 . S
O17 Fe3 1.989 1_556 S
O17 C10 1.255 . S
C18 O11 1.287 . S
C18 O12 1.255 1_554 S
O19 Fe1 2.002 . S
O19 C15 1.295 . S
O20 Fe3 1.990 1_556 S
O20 C15 1.235 . S
C21 O4 1.295 . S
C21 O5 1.235 . S
Fe22 O24 1.918 . S
Fe22 O27 1.997 . S
Fe22 O28 2.002 . S
Fe22 O33 1.976 . S
Fe22 O36 1.996 . S
Fe23 O24 1.918 . S
Fe23 O31 1.997 . S
Fe23 O34 1.996 . S
Fe23 O38 1.976 . S
Fe23 O41 2.002 . S
O24 Fe22 1.918 . S
O24 Fe23 1.918 . S
O24 Fe25 1.918 . S
Fe25 O24 1.918 . S
Fe25 O26 2.002 . S
Fe25 O35 1.976 . S
Fe25 O39 1.996 . S
Fe25 O42 1.997 . S
O26 Fe25 2.002 . S
O26 C43 1.295 . S
O27 Fe22 1.997 . S
O27 C43 1.235 . S
O28 Fe22 2.002 . S
O28 C29 1.295 . S
C29 O28 1.295 . S
C29 O31 1.235 . S
C30 O35 1.287 . S
C30 O36 1.255 . S
O31 Fe23 1.997 . S
O31 C29 1.235 . S
C32 O38 1.287 . S
C32 O39 1.255 . S
O33 Fe22 1.976 . S
O33 C40 1.287 . S
O34 Fe23 1.996 . S
O34 C40 1.255 . S
O35 Fe25 1.976 . S
O35 C30 1.287 . S
O36 Fe22 1.996 . S
O36 C30 1.255 . S
C37 O41 1.295 . S
C37 O42 1.235 . S
O38 Fe23 1.976 . S
O38 C32 1.287 . S
O39 Fe25 1.996 . S
O39 C32 1.255 . S
C40 O33 1.287 . S
C40 O34 1.255 . S
O41 Fe23 2.002 . S
O41 C37 1.295 . S
O42 Fe25 1.997 . S
O42 C37 1.235 . S
C43 O26 1.295 . S
C43 O27 1.235 . S
Fe44 O46 1.918 1_556 S
Fe44 O49 1.997 . S
Fe44 O50 2.002 . S
Fe44 O55 1.976 . S
Fe44 O58 1.996 . S
Fe45 O46 1.918 . S
Fe45 O53 1.997 . S
Fe45 O56 1.996 . S
Fe45 O60 1.976 . S
Fe45 O63 2.002 . S
O46 Fe44 1.918 1_554 S
O46 Fe45 1.918 . S
O46 Fe47 1.918 . S
Fe47 O46 1.918 . S
Fe47 O48 2.002 1_554 S
Fe47 O57 1.976 1_554 S
Fe47 O61 1.996 . S
Fe47 O64 1.997 . S
O48 Fe47 2.002 1_556 S
O48 C65 1.295 . S
O49 Fe44 1.997 . S
O49 C65 1.235 . S
O50 Fe44 2.002 . S
O50 C51 1.295 1_556 S
C51 O50 1.295 1_554 S
C51 O53 1.235 . S
C52 O57 1.287 . S
C52 O58 1.255 . S
O53 Fe45 1.997 . S
O53 C51 1.235 . S
C54 O60 1.287 . S
C54 O61 1.255 . S
O55 Fe44 1.976 . S
O55 C62 1.287 1_556 S
O56 Fe45 1.996 . S
O56 C62 1.255 . S
O57 Fe47 1.976 1_556 S
O57 C52 1.287 . S
O58 Fe44 1.996 . S
O58 C52 1.255 . S
C59 O63 1.295 . S
C59 O64 1.235 . S
O60 Fe45 1.976 . S
O60 C54 1.287 . S
O61 Fe47 1.996 . S
O61 C54 1.255 . S
C62 O55 1.287 1_554 S
C62 O56 1.255 . S
O63 Fe45 2.002 . S
O63 C59 1.295 . S
O64 Fe47 1.997 . S
O64 C59 1.235 . S
C65 O48 1.295 . S
C65 O49 1.235 . S
Fe66 O68 1.918 . S
Fe66 O71 1.997 . S
Fe66 O72 2.002 . S
Fe66 O77 1.976 . S
Fe66 O80 1.996 . S
Fe67 O68 1.918 . S
Fe67 O75 1.997 . S
Fe67 O78 1.996 . S
Fe67 O82 1.976 . S
Fe67 O85 2.002 . S
O68 Fe66 1.918 . S
O68 Fe67 1.918 . S
O68 Fe69 1.918 . S
Fe69 O68 1.918 . S
Fe69 O70 2.002 . S
Fe69 O79 1.976 . S
Fe69 O83 1.996 . S
Fe69 O86 1.997 . S
O70 Fe69 2.002 . S
O70 C87 1.295 . S
O71 Fe66 1.997 . S
O71 C87 1.235 . S
O72 Fe66 2.002 . S
O72 C73 1.295 . S
C73 O72 1.295 . S
C73 O75 1.235 . S
C74 O79 1.287 . S
C74 O80 1.255 . S
O75 Fe67 1.997 . S
O75 C73 1.235 . S
C76 O82 1.287 . S
C76 O83 1.255 . S
O77 Fe66 1.976 . S
O77 C84 1.287 . S
O78 Fe67 1.996 . S
O78 C84 1.255 . S
O79 Fe69 1.976 . S
O79 C74 1.287 . S
O80 Fe66 1.996 . S
O80 C74 1.255 . S
C81 O85 1.295 . S
C81 O86 1.235 . S
O82 Fe67 1.976 . S
O82 C76 1.287 . S
O83 Fe69 1.996 . S
O83 C76 1.255 . S
C84 O77 1.287 . S
C84 O78 1.255 . S
O85 Fe67 2.002 . S
O85 C81 1.295 . S
O86 Fe69 1.997 . S
O86 C81 1.235 . S
C87 O70 1.295 . S
C87 O71 1.235 . S
H88 C93 0.929 . S
H89 C98 0.931 1_554 S
H90 C96 0.930 . S
N91 N92 1.234 1_556 S
N91 C95 1.453 . S
N92 N91 1.234 1_554 S
C93 H88 0.929 . S
C93 C94 1.373 . S
C93 C95 1.368 . S
C94 C93 1.373 . S
C94 C98 1.397 . S
C95 N91 1.453 . S
C95 C93 1.368 . S
C95 C96 1.373 1_556 S
C96 H90 0.930 . S
C96 C95 1.373 1_554 S
C96 C97 1.371 . S
C97 C96 1.371 . S
C97 C98 1.383 1_554 S
C98 H89 0.931 1_556 S
C98 C94 1.397 . S
C98 C97 1.383 1_556 S
H99 C104 0.929 . S
H100 C109 0.931 . S
H101 C107 0.942 . S
N102 N103 1.234 . S
N102 C106 1.457 . S
N103 N102 1.234 . S
C104 H99 0.929 . S
C104 C105 1.373 . S
C104 C106 1.365 1_655 S
C105 C104 1.373 . S
C105 C109 1.397 . S
C106 N102 1.457 . S
C106 C104 1.365 1_455 S
C106 C107 1.371 1_455 S
C107 H101 0.942 . S
C107 C106 1.371 1_655 S
C107 C108 1.371 . S
C108 C107 1.371 . S
C108 C109 1.383 . S
C109 H100 0.931 . S
C109 C105 1.397 . S
C109 C108 1.383 . S
H110 C115 0.929 . S
H111 C120 0.931 . S
H112 C118 0.930 . S
N113 N114 1.234 . S
N113 C117 1.453 . S
N114 N113 1.234 . S
C115 H110 0.929 . S
C115 C116 1.373 . S
C115 C117 1.368 . S
C116 C115 1.373 . S
C116 C120 1.397 . S
C117 N113 1.453 . S
C117 C115 1.368 . S
C117 C118 1.373 1_554 S
C118 H112 0.930 . S
C118 C117 1.373 1_556 S
C118 C119 1.371 . S
C119 C118 1.371 . S
C119 C120 1.383 1_556 S
C120 H111 0.931 . S
C120 C116 1.397 . S
C120 C119 1.383 1_554 S
H121 C126 0.929 . S
H122 C131 0.931 . S
H123 C129 0.928 1_655 S
N124 N125 1.234 . S
N124 C128 1.489 . S
N125 N124 1.234 . S
C126 H121 0.929 . S
C126 C127 1.373 . S
C126 C128 1.347 1_455 S
C127 C126 1.373 . S
C127 C131 1.397 . S
C128 N124 1.489 . S
C128 C126 1.347 1_655 S
C128 C129 1.360 1_655 S
C129 H123 0.928 1_455 S
C129 C128 1.360 1_455 S
C129 C130 1.371 . S
C130 C129 1.371 . S
C130 C131 1.383 . S
C131 H122 0.931 . S
C131 C127 1.397 . S
C131 C130 1.383 . S
H132 C137 0.929 . S
H133 C142 0.931 . S
H134 C140 0.930 1_545 S
N135 N136 1.234 . S
N135 C139 1.453 . S
N136 N135 1.234 . S
C137 H132 0.929 . S
C137 C138 1.373 . S
C137 C139 1.368 1_565 S
C138 C137 1.373 . S
C138 C142 1.397 . S
C139 N135 1.453 . S
C139 C137 1.368 1_545 S
C139 C140 1.373 1_545 S
C140 H134 0.930 1_565 S
C140 C139 1.373 1_565 S
C140 C141 1.371 . S
C141 C140 1.371 . S
C141 C142 1.383 . S
C142 H133 0.931 . S
C142 C138 1.397 . S
C142 C141 1.383 . S
H143 C148 0.929 . S
H144 C153 0.931 . S
H145 C151 0.930 . S
N146 N147 1.234 1_556 S
N146 C150 1.453 . S
N147 N146 1.234 1_554 S
C148 H143 0.929 . S
C148 C149 1.373 . S
C148 C150 1.368 . S
C149 C148 1.373 . S
C149 C153 1.397 1_556 S
C150 N146 1.453 . S
C150 C148 1.368 . S
C150 C151 1.373 1_556 S
C151 H145 0.930 . S
C151 C150 1.373 1_554 S
C151 C152 1.371 . S
C152 C151 1.371 . S
C152 C153 1.383 . S
C153 H144 0.931 . S
C153 C149 1.397 1_554 S
C153 C152 1.383 . S
H154 C159 0.929 . S
H155 C164 0.931 . S
H156 C162 0.930 1_565 S
N157 N158 1.234 . S
N157 C161 1.453 . S
N158 N157 1.234 . S
C159 H154 0.929 . S
C159 C160 1.373 . S
C159 C161 1.368 1_545 S
C160 C159 1.373 . S
C160 C164 1.397 . S
C161 N157 1.453 . S
C161 C159 1.368 1_565 S
C161 C162 1.373 1_565 S
C162 H156 0.930 1_545 S
C162 C161 1.373 1_545 S
C162 C163 1.371 . S
C163 C162 1.371 . S
C163 C164 1.383 . S
C164 H155 0.931 . S
C164 C160 1.397 . S
C164 C163 1.383 . S
H165 C170 0.929 . S
H166 C175 0.931 . S
H167 C173 0.930 . S
N168 N169 1.234 . S
N168 C172 1.453 . S
N169 N168 1.234 . S
C170 H165 0.929 . S
C170 C171 1.373 . S
C170 C172 1.368 . S
C171 C170 1.373 . S
C171 C175 1.397 . S
C172 N168 1.453 . S
C172 C170 1.368 . S
C172 C173 1.373 1_554 S
C173 H167 0.930 . S
C173 C172 1.373 1_556 S
C173 C174 1.371 . S
C174 C173 1.371 . S
C174 C175 1.383 1_556 S
C175 H166 0.931 . S
C175 C171 1.397 . S
C175 C174 1.383 1_554 S
H176 C182 0.930 . S
H177 C186 0.930 . S
H178 C191 0.929 . S
H179 C189 0.929 . S
H180 C184 0.929 . S
H181 C190 0.929 . S
C182 H176 0.930 . S
C182 C183 1.367 . S
C182 C190 1.378 . S
C183 C182 1.367 . S
C183 C191 1.433 . S
C184 H180 0.929 . S
C184 C186 1.378 . S
C184 C188 1.350 . S
C185 C188 1.463 . S
C185 C190 1.350 . S
C185 N193 1.427 . S
C186 H177 0.930 . S
C186 C184 1.378 . S
C186 C187 1.367 . S
C187 C186 1.367 . S
C187 C189 1.433 . S
C188 C184 1.350 . S
C188 C185 1.463 . S
C188 N192 1.427 . S
C189 H179 0.929 . S
C189 C187 1.433 . S
C189 N192 1.384 . S
C190 H181 0.929 . S
C190 C182 1.378 . S
C190 C185 1.350 . S
C191 H178 0.929 . S
C191 C183 1.433 . S
C191 N193 1.384 . S
N192 C188 1.427 . S
N192 C189 1.384 . S
N193 C185 1.427 . S
N193 C191 1.384 . S
H194 C200 0.930 . S
H195 C204 0.930 . S
H196 C209 0.929 . S
H197 C207 0.929 . S
H198 C202 0.929 . S
H199 C208 0.929 . S
C200 H194 0.930 . S
C200 C201 1.367 . S
C200 C208 1.378 . S
C201 C200 1.367 . S
C201 C209 1.433 . S
C202 H198 0.929 . S
C202 C204 1.378 . S
C202 C206 1.350 . S
C203 C206 1.463 . S
C203 C208 1.350 . S
C203 N211 1.427 . S
C204 H195 0.930 . S
C204 C202 1.378 . S
C204 C205 1.367 . S
C205 C204 1.367 . S
C205 C207 1.433 . S
C206 C202 1.350 . S
C206 C203 1.463 . S
C206 N210 1.427 . S
C207 H197 0.929 . S
C207 C205 1.433 . S
C207 N210 1.384 . S
C208 H199 0.929 . S
C208 C200 1.378 . S
C208 C203 1.350 . S
C209 H196 0.929 . S
C209 C201 1.433 . S
C209 N211 1.384 . S
N210 C206 1.427 . S
N210 C207 1.384 . S
N211 C203 1.427 . S
N211 C209 1.384 . S
H212 C218 0.930 . S
H213 C222 0.930 . S
H214 C227 0.929 . S
H215 C225 0.929 . S
H216 C220 0.929 . S
H217 C226 0.929 . S
C218 H212 0.930 . S
C218 C219 1.367 . S
C218 C226 1.378 . S
C219 C218 1.367 . S
C219 C227 1.433 . S
C220 H216 0.929 . S
C220 C222 1.378 . S
C220 C224 1.350 . S
C221 C224 1.463 . S
C221 C226 1.350 . S
C221 N229 1.427 . S
C222 H213 0.930 . S
C222 C220 1.378 . S
C222 C223 1.367 . S
C223 C222 1.367 . S
C223 C225 1.433 . S
C224 C220 1.350 . S
C224 C221 1.463 . S
C224 N228 1.427 . S
C225 H215 0.929 . S
C225 C223 1.433 . S
C225 N228 1.384 . S
C226 H217 0.929 . S
C226 C218 1.378 . S
C226 C221 1.350 . S
C227 H214 0.929 . S
C227 C219 1.433 . S
C227 N229 1.384 . S
N228 C224 1.427 . S
N228 C225 1.384 . S
N229 C221 1.427 . S
N229 C227 1.384 . S
H230 C236 0.930 . S
H231 C240 0.930 . S
H232 C245 0.929 . S
H233 C243 0.929 . S
H234 C238 0.929 . S
H235 C244 0.929 . S
C236 H230 0.930 . S
C236 C237 1.367 . S
C236 C244 1.378 . S
C237 C236 1.367 . S
C237 C245 1.433 . S
C238 H234 0.929 . S
C238 C240 1.378 . S
C238 C242 1.350 . S
C239 C242 1.463 . S
C239 C244 1.350 . S
C239 N247 1.427 . S
C240 H231 0.930 . S
C240 C238 1.378 . S
C240 C241 1.367 . S
C241 C240 1.367 . S
C241 C243 1.433 . S
C242 C238 1.350 . S
C242 C239 1.463 . S
C242 N246 1.427 . S
C243 H233 0.929 . S
C243 C241 1.433 . S
C243 N246 1.384 . S
C244 H235 0.929 . S
C244 C236 1.378 . S
C244 C239 1.350 . S
C245 H232 0.929 . S
C245 C237 1.433 . S
C245 N247 1.384 . S
N246 C242 1.427 . S
N246 C243 1.384 . S
N247 C239 1.427 . S
N247 C245 1.384 . S
H248 C254 0.930 . S
H249 C258 0.930 . S
H250 C263 0.929 . S
H251 C261 0.929 . S
H252 C256 0.929 . S
H253 C262 0.929 . S
C254 H248 0.930 . S
C254 C255 1.367 . S
C254 C262 1.378 . S
C255 C254 1.367 . S
C255 C263 1.433 . S
C256 H252 0.929 . S
C256 C258 1.378 . S
C256 C260 1.350 . S
C257 C260 1.463 . S
C257 C262 1.350 . S
C257 N265 1.427 . S
C258 H249 0.930 . S
C258 C256 1.378 . S
C258 C259 1.367 . S
C259 C258 1.367 . S
C259 C261 1.433 . S
C260 C256 1.350 . S
C260 C257 1.463 . S
C260 N264 1.427 . S
C261 H251 0.929 . S
C261 C259 1.433 . S
C261 N264 1.384 . S
C262 H253 0.929 . S
C262 C254 1.378 . S
C262 C257 1.350 . S
C263 H250 0.929 . S
C263 C255 1.433 . S
C263 N265 1.384 . S
N264 C260 1.427 . S
N264 C261 1.384 . S
N265 C257 1.427 . S
N265 C263 1.384 . S
H266 C272 0.930 . S
H267 C276 0.930 . S
H268 C281 0.929 . S
H269 C279 0.929 . S
H270 C274 0.929 . S
H271 C280 0.929 . S
C272 H266 0.930 . S
C272 C273 1.367 . S
C272 C280 1.378 . S
C273 C272 1.367 . S
C273 C281 1.433 . S
C274 H270 0.929 . S
C274 C276 1.378 . S
C274 C278 1.350 . S
C275 C278 1.463 . S
C275 C280 1.350 . S
C275 N283 1.427 . S
C276 H267 0.930 . S
C276 C274 1.378 . S
C276 C277 1.367 . S
C277 C276 1.367 . S
C277 C279 1.433 . S
C278 C274 1.350 . S
C278 C275 1.463 . S
C278 N282 1.427 . S
C279 H269 0.929 . S
C279 C277 1.433 . S
C279 N282 1.384 . S
C280 H271 0.929 . S
C280 C272 1.378 . S
C280 C275 1.350 . S
C281 H268 0.929 . S
C281 C273 1.433 . S
C281 N283 1.384 . S
N282 C278 1.427 . S
N282 C279 1.384 . S
N283 C275 1.427 . S
N283 C281 1.384 . S
H284 C290 0.930 . S
H285 C294 0.930 . S
H286 C299 0.929 . S
H287 C297 0.929 . S
H288 C292 0.929 . S
H289 C298 0.929 . S
C290 H284 0.930 . S
C290 C291 1.367 . S
C290 C298 1.378 . S
C291 C290 1.367 . S
C291 C299 1.433 . S
C292 H288 0.929 . S
C292 C294 1.378 . S
C292 C296 1.350 . S
C293 C296 1.463 . S
C293 C298 1.350 . S
C293 N301 1.427 . S
C294 H285 0.930 . S
C294 C292 1.378 . S
C294 C295 1.367 . S
C295 C294 1.367 . S
C295 C297 1.433 . S
C296 C292 1.350 . S
C296 C293 1.463 . S
C296 N300 1.427 . S
C297 H287 0.929 . S
C297 C295 1.433 . S
C297 N300 1.384 . S
C298 H289 0.929 . S
C298 C290 1.378 . S
C298 C293 1.350 . S
C299 H286 0.929 . S
C299 C291 1.433 . S
C299 N301 1.384 . S
N300 C296 1.427 . S
N300 C297 1.384 . S
N301 C293 1.427 . S
N301 C299 1.384 . S
H302 C308 0.930 . S
H303 C312 0.930 . S
H304 C317 0.929 . S
H305 C315 0.929 . S
H306 C310 0.929 . S
H307 C316 0.929 . S
C308 H302 0.930 . S
C308 C309 1.367 . S
C308 C316 1.378 . S
C309 C308 1.367 . S
C309 C317 1.433 . S
C310 H306 0.929 . S
C310 C312 1.378 . S
C310 C314 1.350 . S
C311 C314 1.463 . S
C311 C316 1.350 . S
C311 N319 1.427 . S
C312 H303 0.930 . S
C312 C310 1.378 . S
C312 C313 1.367 . S
C313 C312 1.367 . S
C313 C315 1.433 . S
C314 C310 1.350 . S
C314 C311 1.463 . S
C314 N318 1.427 . S
C315 H305 0.929 . S
C315 C313 1.433 . S
C315 N318 1.384 . S
C316 H307 0.929 . S
C316 C308 1.378 . S
C316 C311 1.350 . S
C317 H304 0.929 . S
C317 C309 1.433 . S
C317 N319 1.384 . S
N318 C314 1.427 . S
N318 C315 1.384 . S
N319 C311 1.427 . S
N319 C317 1.384 . S
H320 C326 0.930 . S
H321 C330 0.930 . S
H322 C335 0.929 . S
H323 C333 0.929 . S
H324 C328 0.929 . S
H325 C334 0.929 . S
C326 H320 0.930 . S
C326 C327 1.367 . S
C326 C334 1.378 . S
C327 C326 1.367 . S
C327 C335 1.433 . S
C328 H324 0.929 . S
C328 C330 1.378 . S
C328 C332 1.350 . S
C329 C332 1.463 . S
C329 C334 1.350 . S
C329 N337 1.427 . S
C330 H321 0.930 . S
C330 C328 1.378 . S
C330 C331 1.367 . S
C331 C330 1.367 . S
C331 C333 1.433 . S
C332 C328 1.350 . S
C332 C329 1.463 . S
C332 N336 1.427 . S
C333 H323 0.929 . S
C333 C331 1.433 . S
C333 N336 1.384 . S
C334 H325 0.929 . S
C334 C326 1.378 . S
C334 C329 1.350 . S
C335 H322 0.929 . S
C335 C327 1.433 . S
C335 N337 1.384 . S
N336 C332 1.427 . S
N336 C333 1.384 . S
N337 C329 1.427 . S
N337 C335 1.384 . S
H338 C344 0.930 . S
H339 C348 0.930 . S
H340 C353 0.929 . S
H341 C351 0.929 . S
H342 C346 0.929 . S
H343 C352 0.929 . S
C344 H338 0.930 . S
C344 C345 1.367 . S
C344 C352 1.378 . S
C345 C344 1.367 . S
C345 C353 1.433 . S
C346 H342 0.929 . S
C346 C348 1.378 . S
C346 C350 1.350 . S
C347 C350 1.463 . S
C347 C352 1.350 . S
C347 N355 1.427 . S
C348 H339 0.930 . S
C348 C346 1.378 . S
C348 C349 1.367 . S
C349 C348 1.367 . S
C349 C351 1.433 . S
C350 C346 1.350 . S
C350 C347 1.463 . S
C350 N354 1.427 . S
C351 H341 0.929 . S
C351 C349 1.433 . S
C351 N354 1.384 . S
C352 H343 0.929 . S
C352 C344 1.378 . S
C352 C347 1.350 . S
C353 H340 0.929 . S
C353 C345 1.433 . S
C353 N355 1.384 . S
N354 C350 1.427 . S
N354 C351 1.384 . S
N355 C347 1.427 . S
N355 C353 1.384 . S
H356 C362 0.930 . S
H357 C366 0.930 . S
H358 C371 0.929 . S
H359 C369 0.929 . S
H360 C364 0.929 . S
H361 C370 0.929 . S
C362 H356 0.930 . S
C362 C363 1.367 . S
C362 C370 1.378 . S
C363 C362 1.367 . S
C363 C371 1.433 . S
C364 H360 0.929 . S
C364 C366 1.378 . S
C364 C368 1.350 . S
C365 C368 1.463 . S
C365 C370 1.350 . S
C365 N373 1.427 . S
C366 H357 0.930 . S
C366 C364 1.378 . S
C366 C367 1.367 . S
C367 C366 1.367 . S
C367 C369 1.433 . S
C368 C364 1.350 . S
C368 C365 1.463 . S
C368 N372 1.427 . S
C369 H359 0.929 . S
C369 C367 1.433 . S
C369 N372 1.384 . S
C370 H361 0.929 . S
C370 C362 1.378 . S
C370 C365 1.350 . S
C371 H358 0.929 . S
C371 C363 1.433 . S
C371 N373 1.384 . S
N372 C368 1.427 . S
N372 C369 1.384 . S
N373 C365 1.427 . S
N373 C371 1.384 . S
H374 C380 0.930 . S
H375 C384 0.930 . S
H376 C389 0.929 . S
H377 C387 0.929 . S
H378 C382 0.929 . S
H379 C388 0.929 . S
C380 H374 0.930 . S
C380 C381 1.367 . S
C380 C388 1.378 . S
C381 C380 1.367 . S
C381 C389 1.433 . S
C382 H378 0.929 . S
C382 C384 1.378 . S
C382 C386 1.350 . S
C383 C386 1.463 . S
C383 C388 1.350 . S
C383 N391 1.427 . S
C384 H375 0.930 . S
C384 C382 1.378 . S
C384 C385 1.367 . S
C385 C384 1.367 . S
C385 C387 1.433 . S
C386 C382 1.350 . S
C386 C383 1.463 . S
C386 N390 1.427 . S
C387 H377 0.929 . S
C387 C385 1.433 . S
C387 N390 1.384 . S
C388 H379 0.929 . S
C388 C380 1.378 . S
C388 C383 1.350 . S
C389 H376 0.929 . S
C389 C381 1.433 . S
C389 N391 1.384 . S
N390 C386 1.427 . S
N390 C387 1.384 . S
N391 C383 1.427 . S
N391 C389 1.384 . S
H392 C398 0.930 . S
H393 C402 0.930 . S
H394 C407 0.929 . S
H395 C405 0.929 . S
H396 C400 0.929 . S
H397 C406 0.929 . S
C398 H392 0.930 . S
C398 C399 1.367 . S
C398 C406 1.378 . S
C399 C398 1.367 . S
C399 C407 1.433 . S
C400 H396 0.929 . S
C400 C402 1.378 . S
C400 C404 1.350 . S
C401 C404 1.463 . S
C401 C406 1.350 . S
C401 N409 1.427 . S
C402 H393 0.930 . S
C402 C400 1.378 . S
C402 C403 1.367 . S
C403 C402 1.367 . S
C403 C405 1.433 . S
C404 C400 1.350 . S
C404 C401 1.463 . S
C404 N408 1.427 . S
C405 H395 0.929 . S
C405 C403 1.433 . S
C405 N408 1.384 . S
C406 H397 0.929 . S
C406 C398 1.378 . S
C406 C401 1.350 . S
C407 H394 0.929 . S
C407 C399 1.433 . S
C407 N409 1.384 . S
N408 C404 1.427 . S
N408 C405 1.384 . S
N409 C401 1.427 . S
N409 C407 1.384 . S
H410 C416 0.930 . S
H411 C420 0.930 . S
H412 C425 0.929 . S
H413 C423 0.929 . S
H414 C418 0.929 . S
H415 C424 0.929 . S
C416 H410 0.930 . S
C416 C417 1.367 . S
C416 C424 1.378 . S
C417 C416 1.367 . S
C417 C425 1.433 . S
C418 H414 0.929 . S
C418 C420 1.378 . S
C418 C422 1.350 . S
C419 C422 1.463 . S
C419 C424 1.350 . S
C419 N427 1.427 . S
C420 H411 0.930 . S
C420 C418 1.378 . S
C420 C421 1.367 . S
C421 C420 1.367 . S
C421 C423 1.433 . S
C422 C418 1.350 . S
C422 C419 1.463 . S
C422 N426 1.427 . S
C423 H413 0.929 . S
C423 C421 1.433 . S
C423 N426 1.384 . S
C424 H415 0.929 . S
C424 C416 1.378 . S
C424 C419 1.350 . S
C425 H412 0.929 . S
C425 C417 1.433 . S
C425 N427 1.384 . S
N426 C422 1.427 . S
N426 C423 1.384 . S
N427 C419 1.427 . S
N427 C425 1.384 . S
H428 C434 0.930 . S
H429 C438 0.930 . S
H430 C443 0.929 . S
H431 C441 0.929 . S
H432 C436 0.929 . S
H433 C442 0.929 . S
C434 H428 0.930 . S
C434 C435 1.367 . S
C434 C442 1.378 . S
C435 C434 1.367 . S
C435 C443 1.433 . S
C436 H432 0.929 . S
C436 C438 1.378 . S
C436 C440 1.350 . S
C437 C440 1.463 . S
C437 C442 1.350 . S
C437 N445 1.427 . S
C438 H429 0.930 . S
C438 C436 1.378 . S
C438 C439 1.367 . S
C439 C438 1.367 . S
C439 C441 1.433 . S
C440 C436 1.350 . S
C440 C437 1.463 . S
C440 N444 1.427 . S
C441 H431 0.929 . S
C441 C439 1.433 . S
C441 N444 1.384 . S
C442 H433 0.929 . S
C442 C434 1.378 . S
C442 C437 1.350 . S
C443 H430 0.929 . S
C443 C435 1.433 . S
C443 N445 1.384 . S
N444 C440 1.427 . S
N444 C441 1.384 . S
N445 C437 1.427 . S
N445 C443 1.384 . S
H446 C452 0.930 . S
H447 C456 0.930 . S
H448 C461 0.929 . S
H449 C459 0.929 . S
H450 C454 0.929 . S
H451 C460 0.929 . S
C452 H446 0.930 . S
C452 C453 1.367 . S
C452 C460 1.378 . S
C453 C452 1.367 . S
C453 C461 1.433 . S
C454 H450 0.929 . S
C454 C456 1.378 . S
C454 C458 1.350 . S
C455 C458 1.463 . S
C455 C460 1.350 . S
C455 N463 1.427 . S
C456 H447 0.930 . S
C456 C454 1.378 . S
C456 C457 1.367 . S
C457 C456 1.367 . S
C457 C459 1.433 . S
C458 C454 1.350 . S
C458 C455 1.463 . S
C458 N462 1.427 . S
C459 H449 0.929 . S
C459 C457 1.433 . S
C459 N462 1.384 . S
C460 H451 0.929 . S
C460 C452 1.378 . S
C460 C455 1.350 . S
C461 H448 0.929 . S
C461 C453 1.433 . S
C461 N463 1.384 . S
N462 C458 1.427 . S
N462 C459 1.384 . S
N463 C455 1.427 . S
N463 C461 1.384 . S
H464 C470 0.930 . S
H465 C474 0.930 . S
H466 C479 0.929 . S
H467 C477 0.929 . S
H468 C472 0.929 . S
H469 C478 0.929 . S
C470 H464 0.930 . S
C470 C471 1.367 . S
C470 C478 1.378 . S
C471 C470 1.367 . S
C471 C479 1.433 1_554 S
C472 H468 0.929 . S
C472 C474 1.378 . S
C472 C476 1.350 1_556 S
C473 C476 1.463 . S
C473 C478 1.350 . S
C473 N481 1.427 1_554 S
C474 H465 0.930 . S
C474 C472 1.378 . S
C474 C475 1.367 1_556 S
C475 C474 1.367 1_554 S
C475 C477 1.433 . S
C476 C472 1.350 1_554 S
C476 C473 1.463 . S
C476 N480 1.427 . S
C477 H467 0.929 . S
C477 C475 1.433 . S
C477 N480 1.384 . S
C478 H469 0.929 . S
C478 C470 1.378 . S
C478 C473 1.350 . S
C479 H466 0.929 . S
C479 C471 1.433 1_556 S
C479 N481 1.384 . S
N480 C476 1.427 . S
N480 C477 1.384 . S
N481 C473 1.427 1_556 S
N481 C479 1.384 . S
H482 C488 0.930 . S
H483 C492 0.930 . S
H484 C497 0.929 . S
H485 C495 0.929 . S
H486 C490 0.929 . S
H487 C496 0.929 . S
C488 H482 0.930 . S
C488 C489 1.367 . S
C488 C496 1.378 . S
C489 C488 1.367 . S
C489 C497 1.433 . S
C490 H486 0.929 . S
C490 C492 1.378 . S
C490 C494 1.350 . S
C491 C494 1.463 . S
C491 C496 1.350 . S
C491 N499 1.427 . S
C492 H483 0.930 . S
C492 C490 1.378 . S
C492 C493 1.367 . S
C493 C492 1.367 . S
C493 C495 1.433 . S
C494 C490 1.350 . S
C494 C491 1.463 . S
C494 N498 1.427 . S
C495 H485 0.929 . S
C495 C493 1.433 . S
C495 N498 1.384 . S
C496 H487 0.929 . S
C496 C488 1.378 . S
C496 C491 1.350 . S
C497 H484 0.929 . S
C497 C489 1.433 . S
C497 N499 1.384 . S
N498 C494 1.427 . S
N498 C495 1.384 . S
N499 C491 1.427 . S
N499 C497 1.384 . S
H500 C506 0.930 . S
H501 C510 0.930 . S
H502 C515 0.929 . S
H503 C513 0.929 . S
H504 C508 0.929 . S
H505 C514 0.929 . S
C506 H500 0.930 . S
C506 C507 1.367 1_556 S
C506 C514 1.378 . S
C507 C506 1.367 1_554 S
C507 C515 1.433 . S
C508 H504 0.929 . S
C508 C510 1.378 . S
C508 C512 1.350 . S
C509 C512 1.463 . S
C509 C514 1.350 1_554 S
C509 N517 1.427 . S
C510 H501 0.930 . S
C510 C508 1.378 . S
C510 C511 1.367 . S
C511 C510 1.367 . S
C511 C513 1.433 1_554 S
C512 C508 1.350 . S
C512 C509 1.463 . S
C512 N516 1.427 1_554 S
C513 H503 0.929 . S
C513 C511 1.433 1_556 S
C513 N516 1.384 . S
C514 H505 0.929 . S
C514 C506 1.378 . S
C514 C509 1.350 1_556 S
C515 H502 0.929 . S
C515 C507 1.433 . S
C515 N517 1.384 . S
N516 C512 1.427 1_556 S
N516 C513 1.384 . S
N517 C509 1.427 . S
N517 C515 1.384 . S
H518 C524 0.930 . S
H519 C528 0.930 . S
H520 C533 0.929 . S
H521 C531 0.929 . S
H522 C526 0.929 . S
H523 C532 0.929 . S
C524 H518 0.930 . S
C524 C525 1.367 . S
C524 C532 1.378 . S
C525 C524 1.367 . S
C525 C533 1.433 . S
C526 H522 0.929 . S
C526 C528 1.378 . S
C526 C530 1.350 . S
C527 C530 1.463 . S
C527 C532 1.350 . S
C527 N535 1.427 . S
C528 H519 0.930 . S
C528 C526 1.378 . S
C528 C529 1.367 . S
C529 C528 1.367 . S
C529 C531 1.433 . S
C530 C526 1.350 . S
C530 C527 1.463 . S
C530 N534 1.427 . S
C531 H521 0.929 . S
C531 C529 1.433 . S
C531 N534 1.384 . S
C532 H523 0.929 . S
C532 C524 1.378 . S
C532 C527 1.350 . S
C533 H520 0.929 . S
C533 C525 1.433 . S
C533 N535 1.384 . S
N534 C530 1.427 . S
N534 C531 1.384 . S
N535 C527 1.427 . S
N535 C533 1.384 . S
H536 C542 0.930 . S
H537 C546 0.930 . S
H538 C551 0.929 . S
H539 C549 0.929 . S
H540 C544 0.929 . S
H541 C550 0.929 . S
C542 H536 0.930 . S
C542 C543 1.367 . S
C542 C550 1.378 . S
C543 C542 1.367 . S
C543 C551 1.433 . S
C544 H540 0.929 . S
C544 C546 1.378 . S
C544 C548 1.350 . S
C545 C548 1.463 . S
C545 C550 1.350 . S
C545 N553 1.427 . S
C546 H537 0.930 . S
C546 C544 1.378 . S
C546 C547 1.367 . S
C547 C546 1.367 . S
C547 C549 1.433 . S
C548 C544 1.350 . S
C548 C545 1.463 . S
C548 N552 1.427 . S
C549 H539 0.929 . S
C549 C547 1.433 . S
C549 N552 1.384 . S
C550 H541 0.929 . S
C550 C542 1.378 . S
C550 C545 1.350 . S
C551 H538 0.929 . S
C551 C543 1.433 . S
C551 N553 1.384 . S
N552 C548 1.427 . S
N552 C549 1.384 . S
N553 C545 1.427 . S
N553 C551 1.384 . S
H554 C560 0.930 . S
H555 C564 0.930 . S
H556 C569 0.929 . S
H557 C567 0.929 . S
H558 C562 0.929 . S
H559 C568 0.929 . S
C560 H554 0.930 . S
C560 C561 1.367 1_556 S
C560 C568 1.378 . S
C561 C560 1.367 1_554 S
C561 C569 1.433 . S
C562 H558 0.929 . S
C562 C564 1.378 . S
C562 C566 1.350 . S
C563 C566 1.463 . S
C563 C568 1.350 1_554 S
C563 N571 1.427 . S
C564 H555 0.930 . S
C564 C562 1.378 . S
C564 C565 1.367 . S
C565 C564 1.367 . S
C565 C567 1.433 1_554 S
C566 C562 1.350 . S
C566 C563 1.463 . S
C566 N570 1.427 1_554 S
C567 H557 0.929 . S
C567 C565 1.433 1_556 S
C567 N570 1.384 . S
C568 H559 0.929 . S
C568 C560 1.378 . S
C568 C563 1.350 1_556 S
C569 H556 0.929 . S
C569 C561 1.433 . S
C569 N571 1.384 . S
N570 C566 1.427 1_556 S
N570 C567 1.384 . S
N571 C563 1.427 . S
N571 C569 1.384 . S
H572 C578 0.930 . S
H573 C582 0.930 . S
H574 C587 0.929 . S
H575 C585 0.929 . S
H576 C580 0.929 . S
H577 C586 0.929 . S
C578 H572 0.930 . S
C578 C579 1.367 . S
C578 C586 1.378 . S
C579 C578 1.367 . S
C579 C587 1.433 . S
C580 H576 0.929 . S
C580 C582 1.378 . S
C580 C584 1.350 . S
C581 C584 1.463 . S
C581 C586 1.350 . S
C581 N589 1.427 . S
C582 H573 0.930 . S
C582 C580 1.378 . S
C582 C583 1.367 . S
C583 C582 1.367 . S
C583 C585 1.433 . S
C584 C580 1.350 . S
C584 C581 1.463 . S
C584 N588 1.427 . S
C585 H575 0.929 . S
C585 C583 1.433 . S
C585 N588 1.384 . S
C586 H577 0.929 . S
C586 C578 1.378 . S
C586 C581 1.350 . S
C587 H574 0.929 . S
C587 C579 1.433 . S
C587 N589 1.384 . S
N588 C584 1.427 . S
N588 C585 1.384 . S
N589 C581 1.427 . S
N589 C587 1.384 . S
H590 C596 0.930 . S
H591 C600 0.930 . S
H592 C605 0.929 . S
H593 C603 0.929 . S
H594 C598 0.929 . S
H595 C604 0.929 . S
C596 H590 0.930 . S
C596 C597 1.367 1_556 S
C596 C604 1.378 . S
C597 C596 1.367 1_554 S
C597 C605 1.433 . S
C598 H594 0.929 . S
C598 C600 1.378 . S
C598 C602 1.350 . S
C599 C602 1.463 . S
C599 C604 1.350 1_554 S
C599 N607 1.427 . S
C600 H591 0.930 . S
C600 C598 1.378 . S
C600 C601 1.367 . S
C601 C600 1.367 . S
C601 C603 1.433 1_554 S
C602 C598 1.350 . S
C602 C599 1.463 . S
C602 N606 1.427 1_554 S
C603 H593 0.929 . S
C603 C601 1.433 1_556 S
C603 N606 1.384 . S
C604 H595 0.929 . S
C604 C596 1.378 . S
C604 C599 1.350 1_556 S
C605 H592 0.929 . S
C605 C597 1.433 . S
C605 N607 1.384 . S
N606 C602 1.427 1_556 S
N606 C603 1.384 . S
N607 C599 1.427 . S
N607 C605 1.384 . S
C183 C21 1.478 . S
C187 C127 1.487 . S
C201 C40 1.495 . S
C205 C94 1.492 . S
C223 C108 1.452 . S
C219 C54 1.472 . S
C237 C73 1.527 . S
C241 C119 1.511 . S
C259 C152 1.444 . S
C255 C74 1.461 . S
C277 C163 1.485 . S
C273 C10 1.517 . S
C295 C171 1.499 . S
C291 C37 1.497 . S
C313 C138 1.516 . S
C309 C65 1.505 . S
C327 C52 1.442 . S
C331 C105 1.439 . S
C345 C87 1.515 . S
C349 C116 1.513 . S
C363 C15 1.513 . S
C367 C130 1.505 . S
C385 C97 1.475 . S
C381 C32 1.503 . S
C399 C29 1.502 . S
C403 C174 1.496 . S
C421 C141 1.525 . S
C417 C59 1.536 . S
C439 C149 1.446 . S
C435 C84 1.449 . S
C453 C8 1.482 . S
C457 C160 1.464 . S
C475 N92 1.538 . S
C471 C7 1.540 . S
C493 N103 1.487 . S
C489 C30 1.491 . S
C507 C62 1.547 . S
C511 N114 1.539 . S
C525 C81 1.509 . S
C529 N125 1.512 . S
C547 N136 1.526 . S
C543 C76 1.547 . S
C561 C18 1.490 . S
C565 N147 1.483 . S
C579 C43 1.542 . S
C583 N158 1.541 . S
C597 C51 1.504 . S
C601 N169 1.515 . S
