# Generated by pormake.
# Topology anh, (6,3)-cn, num edge types: 1
# Building blocks:
#     Node 0, Type 0, BuildingBlock: MIFKUJ_clean_sbu_0, # of connection points: 6
#     Node 1, Type 0, BuildingBlock: MIFKUJ_clean_sbu_0, # of connection points: 6
#     Node 2, Type 0, BuildingBlock: MIFKUJ_clean_sbu_0, # of connection points: 6
#     Node 3, Type 1, BuildingBlock: BETDIP_clean_linker_0, # of connection points: 3
#     Node 4, Type 1, BuildingBlock: BETDIP_clean_linker_0, # of connection points: 3
#     Node 5, Type 1, BuildingBlock: BETDIP_clean_linker_0, # of connection points: 3
#     Node 6, Type 1, BuildingBlock: BETDIP_clean_linker_0, # of connection points: 3
#     Node 7, Type 1, BuildingBlock: BETDIP_clean_linker_0, # of connection points: 3
#     Node 8, Type 1, BuildingBlock: BETDIP_clean_linker_0, # of connection points: 3
#     Edge 9, Type (0, 1), BuildingBlock: FUNLAD_clean_linker_0, # of connection points: 2
#     Edge 10, Type (0, 1), BuildingBlock: FUNLAD_clean_linker_0, # of connection points: 2
#     Edge 11, Type (0, 1), BuildingBlock: FUNLAD_clean_linker_0, # of connection points: 2
#     Edge 12, Type (0, 1), BuildingBlock: FUNLAD_clean_linker_0, # of connection points: 2
#     Edge 13, Type (0, 1), BuildingBlock: FUNLAD_clean_linker_0, # of connection points: 2
#     Edge 14, Type (0, 1), BuildingBlock: FUNLAD_clean_linker_0, # of connection points: 2
#     Edge 15, Type (0, 1), BuildingBlock: FUNLAD_clean_linker_0, # of connection points: 2
#     Edge 16, Type (0, 1), BuildingBlock: FUNLAD_clean_linker_0, # of connection points: 2
#     Edge 17, Type (0, 1), BuildingBlock: FUNLAD_clean_linker_0, # of connection points: 2
#     Edge 18, Type (0, 1), BuildingBlock: FUNLAD_clean_linker_0, # of connection points: 2
#     Edge 19, Type (0, 1), BuildingBlock: FUNLAD_clean_linker_0, # of connection points: 2
#     Edge 20, Type (0, 1), BuildingBlock: FUNLAD_clean_linker_0, # of connection points: 2
#     Edge 21, Type (0, 1), BuildingBlock: FUNLAD_clean_linker_0, # of connection points: 2
#     Edge 22, Type (0, 1), BuildingBlock: FUNLAD_clean_linker_0, # of connection points: 2
#     Edge 23, Type (0, 1), BuildingBlock: FUNLAD_clean_linker_0, # of connection points: 2
#     Edge 24, Type (0, 1), BuildingBlock: FUNLAD_clean_linker_0, # of connection points: 2
#     Edge 25, Type (0, 1), BuildingBlock: FUNLAD_clean_linker_0, # of connection points: 2
#     Edge 26, Type (0, 1), BuildingBlock: FUNLAD_clean_linker_0, # of connection points: 2
# Relax obj value: 0.084
# Max RMSD: 0.183
# Mean RMSD: 0.116
data_MOF--net-anh--node1-MIFKUJ_clean_sbu_0--node2-BETDIP_clean_linker_0--edge1-FUNLAD_clean_linker_0
_symmetry_space_group_name_H-M    P1
_symmetry_Int_Tables_number       1
_symmetry_cell_setting            triclinic
loop_
_symmetry_equiv_pos_as_xyz
'x, y, z'
_cell_length_a     36.499636
_cell_length_b     36.493985
_cell_length_c     55.330641
_cell_angle_alpha  97.479823
_cell_angle_beta   90.781433
_cell_angle_gamma 119.99372
loop_
_atom_site_label
_atom_site_type_symbol
_atom_site_fract_x
_atom_site_fract_y
_atom_site_fract_z
_atom_type_partial_charge
Zn0 Zn 0.07037 0.61928 0.16067 0.0
Zn1 Zn 0.95776 0.52281 0.15221 0.0
C2 C 0.13543 0.60137 0.17251 0.0
O3 O 0.13038 0.61634 0.19433 0.0
C4 C 0.89138 0.53045 0.12968 0.0
O5 O 0.89455 0.50466 0.11201 0.0
O6 O 0.10649 0.68326 0.16525 0.0
O7 O 0.02898 0.60256 0.13116 0.0
O8 O 0.99407 0.53219 0.12398 0.0
C9 C 0.12743 0.70012 0.14766 0.0
O10 O 0.12375 0.67517 0.12727 0.0
O11 O 0.11182 0.59795 0.15417 0.0
C12 C 0.8932 0.44671 0.16577 0.0
O13 O 0.894 0.47538 0.18315 0.0
O14 O 0.91922 0.45926 0.14955 0.0
O15 O 0.98512 0.54278 0.18667 0.0
O16 O 0.04742 0.60329 0.19287 0.0
O17 O 0.91753 0.54533 0.14868 0.0
C18 C 0.01723 0.56783 0.11678 0.0
C19 C 0.01628 0.57259 0.20089 0.0
Zn20 Zn 0.50929 0.05638 0.50392 0.0
Zn21 Zn 0.49633 0.94757 0.50097 0.0
C22 C 0.59516 0.12146 0.50871 0.0
O23 O 0.58258 0.12941 0.52989 0.0
C24 C 0.41623 0.8669 0.48969 0.0
O25 O 0.44088 0.85307 0.48046 0.0
O26 O 0.49022 0.09937 0.50421 0.0
O27 O 0.47119 0.00496 0.47901 0.0
O28 O 0.51193 0.97756 0.47149 0.0
C29 C 0.49166 0.11416 0.48444 0.0
O30 O 0.50136 0.09778 0.46474 0.0
O31 O 0.56909 0.08842 0.49369 0.0
C32 C 0.52511 0.89369 0.51722 0.0
O33 O 0.50749 0.89842 0.53702 0.0
O34 O 0.52483 0.91244 0.49948 0.0
O35 O 0.51224 0.9832 0.53466 0.0
O36 O 0.51253 0.04477 0.53816 0.0
O37 O 0.43257 0.90636 0.49861 0.0
C38 C 0.49219 0.99505 0.46425 0.0
C39 C 0.51611 0.01663 0.54764 0.0
Zn40 Zn 0.56779 0.50761 0.83529 0.0
Zn41 Zn 0.47579 0.52903 0.82045 0.0
C42 C 0.55937 0.43981 0.86014 0.0
O43 O 0.59046 0.47249 0.87463 0.0
C44 C 0.48331 0.60233 0.80619 0.0
O45 O 0.46758 0.57364 0.78622 0.0
O46 O 0.63088 0.53473 0.84079 0.0
O47 O 0.55685 0.50636 0.79965 0.0
O48 O 0.50417 0.51811 0.79175 0.0
C49 C 0.64811 0.51876 0.82659 0.0
O50 O 0.62398 0.48579 0.80964 0.0
O51 O 0.54266 0.44694 0.84233 0.0
C52 C 0.38301 0.47512 0.8205 0.0
O53 O 0.39093 0.46246 0.84007 0.0
O54 O 0.41373 0.50015 0.80936 0.0
O55 O 0.48094 0.51097 0.85265 0.0
O56 O 0.55038 0.54202 0.85826 0.0
O57 O 0.49313 0.59191 0.82529 0.0
C58 C 0.53293 0.51037 0.78468 0.0
C59 C 0.51425 0.52237 0.86631 0.0
H60 H 0.49778 0.03933 0.17748 0.0
H61 H 0.55734 0.07421 0.25088 0.0
H62 H 0.4211 0.99996 0.23742 0.0
H63 H 0.56035 0.08566 0.16754 0.0
C64 C 0.58456 0.09771 0.18273 0.0
C65 C 0.49568 0.03948 0.19695 0.0
C66 C 0.45545 0.01741 0.2056 0.0
C67 C 0.53247 0.06091 0.21348 0.0
C68 C 0.52867 0.05884 0.23848 0.0
C69 C 0.48868 0.03694 0.24744 0.0
C70 C 0.45222 0.01697 0.23082 0.0
N71 N 0.57397 0.08517 0.20607 0.0
H72 H 0.60518 0.51702 0.49755 0.0
H73 H 0.61907 0.60022 0.56419 0.0
H74 H 0.58742 0.47061 0.5665 0.0
H75 H 0.67929 0.6467 0.53888 0.0
C76 C 0.65355 0.63988 0.52561 0.0
C77 C 0.60467 0.52235 0.51724 0.0
C78 C 0.59615 0.48942 0.53079 0.0
C79 C 0.61431 0.56283 0.52933 0.0
C80 C 0.61293 0.56942 0.55487 0.0
C81 C 0.60319 0.53626 0.56839 0.0
C82 C 0.59541 0.49661 0.55623 0.0
N83 N 0.62423 0.59649 0.51569 0.0
H84 H 0.03716 0.5898 0.82689 0.0
H85 H 0.10844 0.59742 0.89167 0.0
H86 H 0.99496 0.60469 0.89783 0.0
H87 H 0.16445 0.63468 0.86366 0.0
C88 C 0.14855 0.60642 0.84966 0.0
C89 C 0.04148 0.59363 0.84666 0.0
C90 C 0.01225 0.59816 0.86108 0.0
C91 C 0.07679 0.59465 0.85761 0.0
C92 C 0.0823 0.59882 0.88323 0.0
C93 C 0.05249 0.60181 0.89784 0.0
C94 C 0.01805 0.6023 0.88663 0.0
N95 N 0.10475 0.5883 0.84246 0.0
H96 H 0.02211 0.53925 0.49067 0.0
H97 H 0.94708 0.4781 0.4213 0.0
H98 H 0.06617 0.59516 0.42553 0.0
H99 H 0.89336 0.46031 0.44632 0.0
C100 C 0.90467 0.44909 0.46032 0.0
C101 C 0.01753 0.53865 0.4712 0.0
C102 C 0.04852 0.57152 0.45972 0.0
C103 C 0.97993 0.50561 0.45765 0.0
C104 C 0.97467 0.50456 0.43223 0.0
C105 C 0.00575 0.53662 0.42055 0.0
C106 C 0.04219 0.57013 0.43448 0.0
N107 N 0.94825 0.47319 0.46962 0.0
H108 H 0.50126 0.05018 0.84251 0.0
H109 H 0.52207 0.99628 0.7738 0.0
H110 H 0.51829 0.11276 0.77932 0.0
H111 H 0.46083 0.9361 0.78896 0.0
C112 C 0.48054 0.9406 0.80526 0.0
C113 C 0.50761 0.05192 0.82349 0.0
C114 C 0.50993 0.08568 0.81257 0.0
C115 C 0.51056 0.01879 0.80929 0.0
C116 C 0.51845 0.0211 0.78456 0.0
C117 C 0.5216 0.05499 0.77361 0.0
C118 C 0.51713 0.08703 0.78776 0.0
N119 N 0.50371 0.98221 0.81946 0.0
H120 H 0.47836 0.57214 0.15878 0.0
H121 H 0.53225 0.54348 0.09552 0.0
H122 H 0.4273 0.5642 0.08645 0.0
H123 H 0.52487 0.49099 0.12636 0.0
C124 C 0.54838 0.5209 0.13754 0.0
C125 C 0.47865 0.56678 0.13908 0.0
C126 C 0.44965 0.5701 0.12374 0.0
C127 C 0.50789 0.5562 0.12885 0.0
C128 C 0.50856 0.54989 0.10329 0.0
C129 C 0.48007 0.55335 0.08782 0.0
C130 C 0.45049 0.56298 0.09825 0.0
N131 N 0.53751 0.55305 0.14415 0.0
C132 C 0.1844 0.58745 0.14637 0.0
C133 C 0.17026 0.59179 0.16949 0.0
C134 C 0.21962 0.58196 0.14408 0.0
C135 C 0.24131 0.5805 0.16488 0.0
C136 C 0.22602 0.58304 0.18779 0.0
C137 C 0.19119 0.58903 0.19012 0.0
C138 C 0.27965 0.57604 0.16327 0.0
C139 C 0.30772 0.59287 0.14665 0.0
C140 C 0.34673 0.58966 0.14418 0.0
C141 C 0.37727 0.61621 0.1297 0.0
C142 C 0.41216 0.6116 0.12444 0.0
C143 C 0.41746 0.58017 0.1335 0.0
H144 H 0.33018 0.53789 0.16527 0.0
C145 C 0.3883 0.55495 0.14905 0.0
C146 C 0.35309 0.55946 0.15429 0.0
H147 H 0.39139 0.53012 0.15601 0.0
H148 H 0.16885 0.58921 0.13011 0.0
H149 H 0.22967 0.57873 0.126 0.0
H150 H 0.24173 0.58148 0.20405 0.0
H151 H 0.18092 0.5919 0.20819 0.0
H152 H 0.28596 0.56092 0.17712 0.0
H153 H 0.30251 0.61111 0.13438 0.0
H154 H 0.37349 0.63987 0.12174 0.0
H155 H 0.43426 0.63159 0.11247 0.0
C156 C 0.6652 0.18949 0.51865 0.0
C157 C 0.63667 0.15378 0.50149 0.0
C158 C 0.70192 0.22303 0.51145 0.0
C159 C 0.71114 0.2216 0.48684 0.0
C160 C 0.68334 0.1852 0.46986 0.0
C161 C 0.64662 0.15154 0.4771 0.0
C162 C 0.74678 0.25897 0.4778 0.0
C163 C 0.78067 0.29115 0.49225 0.0
C164 C 0.81289 0.33082 0.48335 0.0
C165 C 0.85422 0.35471 0.49528 0.0
C166 C 0.88455 0.39314 0.4879 0.0
C167 C 0.87377 0.40866 0.4687 0.0
H168 H 0.77047 0.33014 0.45509 0.0
C169 C 0.83241 0.38508 0.45698 0.0
C170 C 0.80229 0.34667 0.46419 0.0
H171 H 0.82321 0.3965 0.44222 0.0
H172 H 0.65846 0.19232 0.53758 0.0
H173 H 0.72174 0.25073 0.52507 0.0
H174 H 0.68943 0.18328 0.45076 0.0
H175 H 0.62526 0.12459 0.46339 0.0
H176 H 0.74459 0.26002 0.45833 0.0
H177 H 0.78542 0.28857 0.51122 0.0
H178 H 0.86308 0.34358 0.51031 0.0
H179 H 0.91618 0.41074 0.49733 0.0
C180 C 0.50194 0.6761 0.8273 0.0
C181 C 0.48448 0.64364 0.80669 0.0
C182 C 0.4998 0.71359 0.82775 0.0
C183 C 0.47972 0.71886 0.80766 0.0
C184 C 0.46284 0.6866 0.78711 0.0
C185 C 0.46549 0.64975 0.78652 0.0
C186 C 0.47343 0.75602 0.8074 0.0
C187 C 0.49959 0.79596 0.81949 0.0
C188 C 0.49416 0.83302 0.81611 0.0
C189 C 0.51237 0.86999 0.83404 0.0
C190 C 0.50814 0.90536 0.83094 0.0
C191 C 0.48558 0.90422 0.80981 0.0
H192 H 0.45969 0.80622 0.77982 0.0
C193 C 0.46789 0.86763 0.79185 0.0
C194 C 0.47248 0.83276 0.79476 0.0
H195 H 0.45098 0.86624 0.77517 0.0
H196 H 0.51662 0.67224 0.84317 0.0
H197 H 0.51257 0.73755 0.84405 0.0
H198 H 0.4472 0.68978 0.77139 0.0
H199 H 0.45158 0.62551 0.77035 0.0
H200 H 0.44638 0.74992 0.7956 0.0
H201 H 0.52613 0.80203 0.8318 0.0
H202 H 0.5298 0.87146 0.85049 0.0
H203 H 0.52239 0.93338 0.84502 0.0
C204 C 0.84426 0.55512 0.1498 0.0
C205 C 0.85426 0.53677 0.12883 0.0
C206 C 0.80618 0.55584 0.14971 0.0
C207 C 0.77741 0.53847 0.12852 0.0
C208 C 0.78841 0.52176 0.10736 0.0
C209 C 0.82625 0.52091 0.10749 0.0
C210 C 0.73436 0.53382 0.12791 0.0
C211 C 0.72092 0.55293 0.14522 0.0
C212 C 0.67634 0.54422 0.14407 0.0
C213 C 0.66769 0.57616 0.15429 0.0
C214 C 0.62605 0.56881 0.15278 0.0
C215 C 0.59229 0.5291 0.14129 0.0
H216 H 0.64716 0.47804 0.12615 0.0
C217 C 0.60076 0.49674 0.13193 0.0
C218 C 0.64216 0.50407 0.13336 0.0
H219 H 0.57526 0.46571 0.12317 0.0
H220 H 0.86504 0.56742 0.16661 0.0
H221 H 0.79894 0.56851 0.16654 0.0
H222 H 0.76704 0.50816 0.09075 0.0
H223 H 0.83293 0.50666 0.09098 0.0
H224 H 0.71245 0.51331 0.11205 0.0
H225 H 0.743 0.57645 0.16017 0.0
H226 H 0.6933 0.60715 0.16298 0.0
H227 H 0.62046 0.59434 0.16023 0.0
C228 C 0.35371 0.79216 0.48327 0.0
C229 C 0.37038 0.83631 0.49072 0.0
C230 C 0.31067 0.76297 0.48443 0.0
C231 C 0.28317 0.77723 0.49316 0.0
C232 C 0.29977 0.82139 0.50043 0.0
C233 C 0.34294 0.85062 0.49939 0.0
C234 C 0.23662 0.74734 0.49296 0.0
C235 C 0.21923 0.70506 0.49374 0.0
C236 C 0.17279 0.67328 0.48919 0.0
C237 C 0.1577 0.63147 0.49421 0.0
C238 C 0.11595 0.59871 0.48638 0.0
C239 C 0.08861 0.60712 0.47319 0.0
H240 H 0.1542 0.71338 0.47275 0.0
C241 C 0.10269 0.64941 0.46961 0.0
C242 C 0.14425 0.68209 0.47741 0.0
H243 H 0.08213 0.65675 0.45952 0.0
H244 H 0.37387 0.78 0.4764 0.0
H245 H 0.299 0.72944 0.47782 0.0
H246 H 0.27925 0.83337 0.50689 0.0
H247 H 0.35471 0.88442 0.50524 0.0
H248 H 0.21633 0.76102 0.49197 0.0
H249 H 0.24 0.69257 0.49705 0.0
H250 H 0.17886 0.62363 0.5032 0.0
H251 H 0.10602 0.56633 0.48921 0.0
C252 C 0.51601 0.36024 0.8466 0.0
C253 C 0.54816 0.39546 0.86253 0.0
C254 C 0.50902 0.31895 0.8469 0.0
C255 C 0.53401 0.31192 0.86323 0.0
C256 C 0.56515 0.34694 0.87967 0.0
C257 C 0.57197 0.38817 0.87947 0.0
C258 C 0.53181 0.26979 0.8617 0.0
C259 C 0.49716 0.23218 0.85223 0.0
C260 C 0.49762 0.19157 0.84539 0.0
C261 C 0.46793 0.16095 0.82651 0.0
C262 C 0.47062 0.12522 0.81683 0.0
C263 C 0.50266 0.11887 0.82609 0.0
H264 H 0.55063 0.20576 0.87093 0.0
C265 C 0.53046 0.14753 0.84622 0.0
C266 C 0.52805 0.18372 0.85581 0.0
H267 H 0.55534 0.14313 0.85368 0.0
H268 H 0.49721 0.36474 0.83325 0.0
H269 H 0.48549 0.2932 0.83342 0.0
H270 H 0.58508 0.34258 0.89232 0.0
H271 H 0.59704 0.41454 0.892 0.0
H272 H 0.56083 0.27058 0.8673 0.0
H273 H 0.46815 0.23174 0.84698 0.0
H274 H 0.44387 0.1658 0.81829 0.0
H275 H 0.44865 0.10332 0.80138 0.0
C276 C 0.54796 0.84823 0.53542 0.0
C277 C 0.54272 0.86482 0.51496 0.0
C278 C 0.56321 0.81977 0.53313 0.0
C279 C 0.57348 0.80724 0.51028 0.0
C280 C 0.568 0.82361 0.48983 0.0
C281 C 0.55315 0.85242 0.49216 0.0
C282 C 0.58785 0.77553 0.50707 0.0
C283 C 0.61045 0.77172 0.52498 0.0
C284 C 0.62303 0.73863 0.52275 0.0
C285 C 0.65814 0.74614 0.53776 0.0
C286 C 0.66888 0.71442 0.5378 0.0
C287 C 0.64433 0.67431 0.52309 0.0
H288 H 0.57117 0.69137 0.49607 0.0
C289 C 0.60968 0.66688 0.50764 0.0
C290 C 0.59908 0.69876 0.50746 0.0
H291 H 0.59006 0.63612 0.49619 0.0
H292 H 0.53995 0.85695 0.55319 0.0
H293 H 0.56583 0.80681 0.54916 0.0
H294 H 0.57528 0.81412 0.472 0.0
H295 H 0.54915 0.86438 0.476 0.0
H296 H 0.58073 0.7559 0.48921 0.0
H297 H 0.6211 0.79438 0.54192 0.0
H298 H 0.67695 0.77643 0.54981 0.0
H299 H 0.69565 0.72082 0.54995 0.0
C300 C 0.71318 0.51799 0.81386 0.0
C301 C 0.69445 0.53628 0.82937 0.0
C302 C 0.75675 0.53342 0.817 0.0
C303 C 0.78262 0.56777 0.83566 0.0
C304 C 0.76386 0.58626 0.85097 0.0
C305 C 0.72028 0.57082 0.84784 0.0
C306 C 0.82837 0.58297 0.84107 0.0
C307 C 0.85236 0.5755 0.82513 0.0
C308 C 0.89601 0.58557 0.83249 0.0
C309 C 0.91056 0.55901 0.82133 0.0
C310 C 0.94928 0.56416 0.82993 0.0
C311 C 0.97425 0.59625 0.84972 0.0
H312 H 0.9131 0.64181 0.85948 0.0
C313 C 0.96106 0.62466 0.85975 0.0
C314 C 0.92241 0.61953 0.85117 0.0
H315 H 0.98028 0.65038 0.87461 0.0
H316 H 0.69408 0.49118 0.79953 0.0
H317 H 0.76945 0.51725 0.80524 0.0
H318 H 0.78292 0.61249 0.86563 0.0
H319 H 0.7068 0.58562 0.86011 0.0
H320 H 0.84219 0.5996 0.85948 0.0
H321 H 0.8389 0.55854 0.80676 0.0
H322 H 0.891 0.53291 0.80672 0.0
H323 H 0.95864 0.54176 0.82185 0.0
C324 C 0.18233 0.76507 0.13161 0.0
C325 C 0.15842 0.74658 0.15086 0.0
C326 C 0.21473 0.80803 0.13538 0.0
C327 C 0.22408 0.83323 0.15862 0.0
C328 C 0.19842 0.81535 0.17738 0.0
C329 C 0.16602 0.77249 0.17359 0.0
C330 C 0.26167 0.8771 0.16471 0.0
C331 C 0.29671 0.89149 0.1524 0.0
C332 C 0.33804 0.92962 0.16273 0.0
C333 C 0.37564 0.93048 0.15658 0.0
C334 C 0.41461 0.96115 0.16938 0.0
C335 C 0.41658 0.99157 0.18851 0.0
H336 H 0.31281 0.96445 0.18466 0.0
C337 C 0.37966 0.99324 0.19311 0.0
C338 C 0.34076 0.96277 0.18021 0.0
H339 H 0.38061 0.01706 0.20743 0.0
H340 H 0.17672 0.74612 0.11373 0.0
H341 H 0.23262 0.82094 0.12016 0.0
H342 H 0.20454 0.83409 0.19539 0.0
H343 H 0.14788 0.75936 0.18875 0.0
H344 H 0.26255 0.89564 0.18194 0.0
H345 H 0.29724 0.87155 0.13621 0.0
H346 H 0.37457 0.90569 0.14296 0.0
H347 H 0.44263 0.95918 0.16546 0.0
C348 C 0.49307 0.17889 0.50695 0.0
C349 C 0.49051 0.15411 0.48463 0.0
C350 C 0.49971 0.22011 0.50746 0.0
C351 C 0.5037 0.23726 0.48566 0.0
C352 C 0.49768 0.21132 0.46323 0.0
C353 C 0.49151 0.17017 0.46271 0.0
C354 C 0.51665 0.2829 0.48629 0.0
C355 C 0.54751 0.31338 0.50299 0.0
C356 C 0.56257 0.35989 0.50587 0.0
C357 C 0.60021 0.38795 0.52092 0.0
C358 C 0.61271 0.43098 0.52751 0.0
C359 C 0.5879 0.44698 0.51912 0.0
H360 H 0.50952 0.3559 0.48481 0.0
C361 C 0.55171 0.41989 0.50278 0.0
C362 C 0.53895 0.37649 0.49623 0.0
H363 H 0.53187 0.4316 0.49639 0.0
H364 H 0.49205 0.16735 0.52414 0.0
H365 H 0.50297 0.23905 0.525 0.0
H366 H 0.50006 0.22372 0.4462 0.0
H367 H 0.48919 0.15163 0.4452 0.0
H368 H 0.50289 0.29135 0.47203 0.0
H369 H 0.56316 0.30364 0.51545 0.0
H370 H 0.61912 0.37617 0.52853 0.0
H371 H 0.64072 0.45139 0.54018 0.0
C372 C 0.33418 0.48804 0.79567 0.0
C373 C 0.34058 0.46938 0.81481 0.0
C374 C 0.29856 0.49259 0.79394 0.0
C375 C 0.26863 0.47842 0.81126 0.0
C376 C 0.27244 0.45541 0.8286 0.0
C377 C 0.30831 0.45109 0.83047 0.0
C378 C 0.23665 0.492 0.81354 0.0
C379 C 0.24731 0.53251 0.81164 0.0
C380 C 0.22081 0.5511 0.81974 0.0
C381 C 0.24113 0.59392 0.83129 0.0
C382 C 0.21741 0.61189 0.84077 0.0
C383 C 0.17295 0.58771 0.83824 0.0
H384 H 0.15973 0.49415 0.80753 0.0
C385 C 0.15243 0.54533 0.82582 0.0
C386 C 0.1762 0.52702 0.81677 0.0
H387 H 0.11809 0.52596 0.82366 0.0
H388 H 0.35801 0.50172 0.78297 0.0
H389 H 0.29564 0.50926 0.77987 0.0
H390 H 0.24938 0.44371 0.84193 0.0
H391 H 0.31202 0.43603 0.84521 0.0
H392 H 0.20685 0.47111 0.82068 0.0
H393 H 0.27911 0.55462 0.80718 0.0
H394 H 0.2755 0.61312 0.83369 0.0
H395 H 0.23383 0.64464 0.85025 0.0
C396 C 0.83519 0.38725 0.18384 0.0
C397 C 0.86107 0.40092 0.16459 0.0
C398 C 0.80334 0.34451 0.18243 0.0
C399 C 0.79671 0.31433 0.16173 0.0
C400 C 0.82259 0.32795 0.14248 0.0
C401 C 0.85474 0.37079 0.14396 0.0
C402 C 0.76112 0.26937 0.15916 0.0
C403 C 0.74584 0.2496 0.17865 0.0
C404 C 0.70644 0.20734 0.17751 0.0
C405 C 0.69882 0.1865 0.19805 0.0
C406 C 0.65988 0.14978 0.19937 0.0
C407 C 0.62756 0.1332 0.18016 0.0
H408 H 0.67872 0.20505 0.14183 0.0
C409 C 0.63563 0.15275 0.15912 0.0
C410 C 0.67464 0.18963 0.1578 0.0
H411 H 0.61111 0.14057 0.14411 0.0
H412 H 0.83907 0.4097 0.19992 0.0
H413 H 0.78313 0.33563 0.19728 0.0
H414 H 0.81779 0.30545 0.12622 0.0
H415 H 0.87402 0.38042 0.12875 0.0
H416 H 0.74745 0.25252 0.14078 0.0
H417 H 0.7626 0.26552 0.19665 0.0
H418 H 0.72264 0.19941 0.21351 0.0
H419 H 0.65478 0.13525 0.21579 0.0
C420 C 0.0442 0.60755 0.0813 0.0
C421 C 0.02459 0.5686 0.09055 0.0
C422 C 0.04925 0.60808 0.05634 0.0
C423 C 0.03489 0.56958 0.04007 0.0
C424 C 0.01579 0.53077 0.04938 0.0
C425 C 0.01085 0.53024 0.07433 0.0
C426 C 0.03602 0.5682 0.01316 0.0
C427 C 0.06248 0.60182 0.00238 0.0
C428 C 0.05986 0.60053 0.97545 0.0
C429 C 0.09629 0.62708 0.96435 0.0
C430 C 0.09422 0.62733 0.93909 0.0
C431 C 0.05545 0.60154 0.92457 0.0
H432 H 0.99203 0.55491 0.96879 0.0
C433 C 0.01901 0.57519 0.93573 0.0
C434 C 0.0211 0.57478 0.96085 0.0
H435 H 0.98873 0.55467 0.92499 0.0
H436 H 0.05471 0.63765 0.09323 0.0
H437 H 0.063 0.63858 0.04985 0.0
H438 H 0.00414 0.50061 0.03725 0.0
H439 H 0.99566 0.49966 0.08082 0.0
H440 H 0.01417 0.53784 0.0018 0.0
H441 H 0.08732 0.63098 0.01341 0.0
H442 H 0.12642 0.6476 0.97523 0.0
H443 H 0.12274 0.6482 0.93099 0.0
C444 C 0.46565 0.01274 0.42825 0.0
C445 C 0.497 0.00758 0.4397 0.0
C446 C 0.4694 0.02322 0.40467 0.0
C447 C 0.50472 0.02894 0.39217 0.0
C448 C 0.53671 0.02519 0.40393 0.0
C449 C 0.53267 0.0141 0.42738 0.0
C450 C 0.50873 0.03829 0.36677 0.0
C451 C 0.47487 0.0208 0.35014 0.0
C452 C 0.47877 0.02618 0.32407 0.0
C453 C 0.45041 0.99209 0.30618 0.0
C454 C 0.45375 0.99553 0.28139 0.0
C455 C 0.48497 0.03364 0.27393 0.0
H456 H 0.53148 0.09173 0.33022 0.0
C457 C 0.51278 0.0682 0.29196 0.0
C458 C 0.50984 0.06446 0.31678 0.0
H459 H 0.53659 0.09833 0.28694 0.0
H460 H 0.43793 0.00811 0.4374 0.0
H461 H 0.44472 0.02698 0.39631 0.0
H462 H 0.56438 0.02981 0.39472 0.0
H463 H 0.55752 0.01076 0.4359 0.0
H464 H 0.54051 0.05667 0.36109 0.0
H465 H 0.44359 0.99867 0.35524 0.0
H466 H 0.42617 0.96229 0.31138 0.0
H467 H 0.43227 0.96793 0.2681 0.0
C468 C 0.52153 0.52231 0.74231 0.0
C469 C 0.54073 0.50884 0.7585 0.0
C470 C 0.53133 0.52384 0.71802 0.0
C471 C 0.5605 0.51182 0.70942 0.0
C472 C 0.57843 0.49687 0.72533 0.0
C473 C 0.56895 0.49571 0.74967 0.0
C474 C 0.57223 0.5135 0.68389 0.0
C475 C 0.57271 0.54209 0.67055 0.0
C476 C 0.58393 0.54336 0.64486 0.0
C477 C 0.56809 0.56088 0.62941 0.0
C478 C 0.57565 0.5601 0.60471 0.0
C479 C 0.5994 0.54194 0.59505 0.0
H480 H 0.62421 0.5154 0.64693 0.0
C481 C 0.61712 0.52646 0.61076 0.0
C482 C 0.6097 0.52735 0.63544 0.0
H483 H 0.63639 0.51318 0.60388 0.0
H484 H 0.49943 0.53239 0.74847 0.0
H485 H 0.51572 0.53409 0.70603 0.0
H486 H 0.60054 0.48688 0.71904 0.0
H487 H 0.58407 0.48485 0.76159 0.0
H488 H 0.5815 0.49076 0.6762 0.0
H489 H 0.56339 0.56475 0.67839 0.0
H490 H 0.54865 0.57395 0.63628 0.0
H491 H 0.56151 0.57216 0.59298 0.0
C492 C 0.52128 0.05468 0.58989 0.0
C493 C 0.52256 0.02146 0.57463 0.0
C494 C 0.5245 0.05736 0.61536 0.0
C495 C 0.52949 0.027 0.62611 0.0
C496 C 0.5316 0.99439 0.61084 0.0
C497 C 0.52833 0.99169 0.58544 0.0
C498 C 0.52961 0.02627 0.65291 0.0
C499 C 0.53805 0.06013 0.6699 0.0
C500 C 0.53493 0.05763 0.69646 0.0
C501 C 0.55799 0.09526 0.71352 0.0
C502 C 0.55435 0.09437 0.73858 0.0
C503 C 0.52722 0.05579 0.74711 0.0
H504 H 0.48817 0.98958 0.69249 0.0
C505 C 0.50411 0.01813 0.73004 0.0
C506 C 0.50775 0.01901 0.70502 0.0
H507 H 0.48216 0.9881 0.73597 0.0
H508 H 0.51667 0.07806 0.5822 0.0
H509 H 0.5216 0.08238 0.62635 0.0
H510 H 0.53524 0.97047 0.61857 0.0
H511 H 0.52969 0.9658 0.5743 0.0
H512 H 0.52304 0.99648 0.65879 0.0
H513 H 0.54861 0.09115 0.66444 0.0
H514 H 0.57888 0.12549 0.70743 0.0
H515 H 0.57277 0.1239 0.75129 0.0
C516 C 0.4723 0.50493 0.90276 0.0
C517 C 0.51115 0.51804 0.89251 0.0
C518 C 0.46993 0.50357 0.9278 0.0
C519 C 0.50634 0.51513 0.94309 0.0
C520 C 0.54465 0.52615 0.93271 0.0
C521 C 0.54717 0.528 0.90768 0.0
C522 C 0.50533 0.51691 0.96995 0.0
C523 C 0.4816 0.53019 0.98242 0.0
C524 C 0.48233 0.53579 0.00944 0.0
C525 C 0.47441 0.5671 0.02137 0.0
C526 C 0.47432 0.57317 0.04676 0.0
C527 C 0.48128 0.54739 0.06081 0.0
H528 H 0.49463 0.48482 0.01465 0.0
C529 C 0.48892 0.51574 0.04881 0.0
C530 C 0.48953 0.51002 0.02337 0.0
H531 H 0.49361 0.49479 0.05901 0.0
H532 H 0.44382 0.49653 0.89155 0.0
H533 H 0.4396 0.49364 0.93516 0.0
H534 H 0.573 0.53472 0.94411 0.0
H535 H 0.57747 0.5378 0.90029 0.0
H536 H 0.52731 0.51094 0.97978 0.0
H537 H 0.46318 0.54047 0.97262 0.0
H538 H 0.46875 0.58732 0.01102 0.0
H539 H 0.46907 0.59835 0.05539 0.0
C540 C 0.98385 0.53588 0.23666 0.0
C541 C 0.01665 0.57086 0.22748 0.0
C542 C 0.98485 0.53332 0.26161 0.0
C543 C 0.01859 0.56596 0.27801 0.0
C544 C 0.0513 0.60089 0.26883 0.0
C545 C 0.05034 0.60342 0.24388 0.0
C546 C 0.02201 0.56385 0.30452 0.0
C547 C 0.9889 0.53927 0.31673 0.0
C548 C 0.99346 0.53744 0.34319 0.0
C549 C 0.95843 0.5269 0.35694 0.0
C550 C 0.96206 0.52592 0.38201 0.0
C551 C 0.0008 0.53521 0.39375 0.0
H552 H 0.05891 0.55154 0.34467 0.0
C553 C 0.03538 0.54424 0.37981 0.0
C554 C 0.03175 0.54517 0.3548 0.0
H555 H 0.06529 0.55041 0.38824 0.0
H556 H 0.95762 0.50997 0.22454 0.0
H557 H 0.95966 0.50518 0.26771 0.0
H558 H 0.07786 0.62632 0.281 0.0
H559 H 0.07623 0.63075 0.23745 0.0
H560 H 0.05306 0.58471 0.3145 0.0
H561 H 0.95701 0.52148 0.30753 0.0
H562 H 0.92842 0.52025 0.34836 0.0
H563 H 0.93489 0.5189 0.39231 0.0
loop_
_geom_bond_atom_site_label_1
_geom_bond_atom_site_label_2
_geom_bond_distance
_geom_bond_site_symmetry_2
_ccdc_geom_bond_type
Zn0 O6 1.969 . S
Zn0 O7 1.965 . S
Zn0 O11 2.024 . S
Zn0 O16 1.969 . S
Zn1 O8 1.969 . S
Zn1 O14 1.969 . S
Zn1 O15 1.965 1_655 S
Zn1 O17 2.024 . S
C2 O3 1.229 . S
C2 O11 1.058 . S
O3 C2 1.229 . S
C4 O5 1.229 . S
C4 O17 1.058 . S
O5 C4 1.229 . S
O6 Zn0 1.969 . S
O6 C9 1.267 . S
O7 Zn0 1.965 . S
O7 C18 1.260 . S
O8 Zn1 1.969 . S
O8 C18 1.258 1_655 S
C9 O6 1.267 . S
C9 O10 1.228 . S
O10 C9 1.228 . S
O11 Zn0 2.024 . S
O11 C2 1.058 . S
C12 O13 1.228 . S
C12 O14 1.267 . S
O13 C12 1.228 . S
O14 Zn1 1.969 . S
O14 C12 1.267 . S
O15 Zn1 1.965 1_455 S
O15 C19 1.260 . S
O16 Zn0 1.969 . S
O16 C19 1.258 . S
O17 Zn1 2.024 . S
O17 C4 1.058 . S
C18 O7 1.260 . S
C18 O8 1.258 1_455 S
C19 O15 1.260 . S
C19 O16 1.258 . S
Zn20 O26 1.969 . S
Zn20 O27 1.965 . S
Zn20 O31 2.024 . S
Zn20 O36 1.969 . S
Zn21 O28 1.969 . S
Zn21 O34 1.969 . S
Zn21 O35 1.965 1_565 S
Zn21 O37 2.024 . S
C22 O23 1.229 . S
C22 O31 1.058 . S
O23 C22 1.229 . S
C24 O25 1.229 . S
C24 O37 1.058 . S
O25 C24 1.229 . S
O26 Zn20 1.969 . S
O26 C29 1.267 . S
O27 Zn20 1.965 . S
O27 C38 1.260 . S
O28 Zn21 1.969 . S
O28 C38 1.258 1_565 S
C29 O26 1.267 . S
C29 O30 1.228 . S
O30 C29 1.228 . S
O31 Zn20 2.024 . S
O31 C22 1.058 . S
C32 O33 1.228 . S
C32 O34 1.267 . S
O33 C32 1.228 . S
O34 Zn21 1.969 . S
O34 C32 1.267 . S
O35 Zn21 1.965 1_545 S
O35 C39 1.260 . S
O36 Zn20 1.969 . S
O36 C39 1.258 . S
O37 Zn21 2.024 . S
O37 C24 1.058 . S
C38 O27 1.260 . S
C38 O28 1.258 1_545 S
C39 O35 1.260 . S
C39 O36 1.258 . S
Zn40 O46 1.969 . S
Zn40 O47 1.965 . S
Zn40 O51 2.024 . S
Zn40 O56 1.969 . S
Zn41 O48 1.969 . S
Zn41 O54 1.969 . S
Zn41 O55 1.965 . S
Zn41 O57 2.024 . S
C42 O43 1.229 . S
C42 O51 1.058 . S
O43 C42 1.229 . S
C44 O45 1.229 . S
C44 O57 1.058 . S
O45 C44 1.229 . S
O46 Zn40 1.969 . S
O46 C49 1.267 . S
O47 Zn40 1.965 . S
O47 C58 1.260 . S
O48 Zn41 1.969 . S
O48 C58 1.258 . S
C49 O46 1.267 . S
C49 O50 1.228 . S
O50 C49 1.228 . S
O51 Zn40 2.024 . S
O51 C42 1.058 . S
C52 O53 1.228 . S
C52 O54 1.267 . S
O53 C52 1.228 . S
O54 Zn41 1.969 . S
O54 C52 1.267 . S
O55 Zn41 1.965 . S
O55 C59 1.260 . S
O56 Zn40 1.969 . S
O56 C59 1.258 . S
O57 Zn41 2.024 . S
O57 C44 1.058 . S
C58 O47 1.260 . S
C58 O48 1.258 . S
C59 O55 1.260 . S
C59 O56 1.258 . S
H60 C65 0.930 . S
H61 C68 0.930 . S
H62 C70 0.923 1_565 S
H63 C64 1.016 . S
C64 H63 1.016 . S
C64 N71 1.286 . S
C65 H60 0.930 . S
C65 C66 1.397 . S
C65 C67 1.361 . S
C66 C65 1.397 . S
C66 C70 1.390 . S
C67 C65 1.361 . S
C67 C68 1.393 . S
C67 N71 1.413 . S
C68 H61 0.930 . S
C68 C67 1.393 . S
C68 C69 1.399 . S
C69 C68 1.399 . S
C69 C70 1.381 . S
C70 H62 0.923 1_545 S
C70 C66 1.390 . S
C70 C69 1.381 . S
N71 C64 1.286 . S
N71 C67 1.413 . S
H72 C77 0.930 . S
H73 C80 0.930 . S
H74 C82 0.930 . S
H75 C76 1.016 . S
C76 H75 1.016 . S
C76 N83 1.286 . S
C77 H72 0.930 . S
C77 C78 1.397 . S
C77 C79 1.361 . S
C78 C77 1.397 . S
C78 C82 1.390 . S
C79 C77 1.361 . S
C79 C80 1.393 . S
C79 N83 1.413 . S
C80 H73 0.930 . S
C80 C79 1.393 . S
C80 C81 1.399 . S
C81 C80 1.399 . S
C81 C82 1.381 . S
C82 H74 0.930 . S
C82 C78 1.390 . S
C82 C81 1.381 . S
N83 C76 1.286 . S
N83 C79 1.413 . S
H84 C89 0.933 . S
H85 C92 0.930 . S
H86 C94 0.930 . S
H87 C88 1.016 . S
C88 H87 1.016 . S
C88 N95 1.286 . S
C89 H84 0.933 . S
C89 C90 1.397 1_455 S
C89 C91 1.361 . S
C90 C89 1.397 1_655 S
C90 C94 1.390 . S
C91 C89 1.361 . S
C91 C92 1.393 . S
C91 N95 1.413 . S
C92 H85 0.930 . S
C92 C91 1.393 . S
C92 C93 1.399 . S
C93 C92 1.399 . S
C93 C94 1.381 1_455 S
C94 H86 0.930 . S
C94 C90 1.390 . S
C94 C93 1.381 1_655 S
N95 C88 1.286 . S
N95 C91 1.413 . S
H96 C101 0.930 . S
H97 C104 0.930 . S
H98 C106 0.930 . S
H99 C100 1.016 . S
C100 H99 1.016 . S
C100 N107 1.286 . S
C101 H96 0.930 . S
C101 C102 1.397 . S
C101 C103 1.361 . S
C102 C101 1.397 . S
C102 C106 1.390 . S
C103 C101 1.361 . S
C103 C104 1.393 1_455 S
C103 N107 1.413 1_455 S
C104 H97 0.930 . S
C104 C103 1.393 1_655 S
C104 C105 1.399 1_655 S
C105 C104 1.399 1_455 S
C105 C106 1.381 . S
C106 H98 0.930 . S
C106 C102 1.390 . S
C106 C105 1.381 . S
N107 C100 1.286 . S
N107 C103 1.413 1_655 S
H108 C113 0.930 . S
H109 C116 0.930 1_565 S
H110 C118 0.930 . S
H111 C112 1.016 . S
C112 H111 1.016 . S
C112 N119 1.286 . S
C113 H108 0.930 . S
C113 C114 1.397 . S
C113 C115 1.361 . S
C114 C113 1.397 . S
C114 C118 1.390 . S
C115 C113 1.361 . S
C115 C116 1.393 . S
C115 N119 1.413 1_545 S
C116 H109 0.930 1_545 S
C116 C115 1.393 . S
C116 C117 1.399 . S
C117 C116 1.399 . S
C117 C118 1.381 . S
C118 H110 0.930 . S
C118 C114 1.390 . S
C118 C117 1.381 . S
N119 C112 1.286 . S
N119 C115 1.413 1_565 S
H120 C125 0.930 . S
H121 C128 0.930 . S
H122 C130 0.930 . S
H123 C124 1.016 . S
C124 H123 1.016 . S
C124 N131 1.286 . S
C125 H120 0.930 . S
C125 C126 1.397 . S
C125 C127 1.361 . S
C126 C125 1.397 . S
C126 C130 1.390 . S
C127 C125 1.361 . S
C127 C128 1.393 . S
C127 N131 1.413 . S
C128 H121 0.930 . S
C128 C127 1.393 . S
C128 C129 1.399 . S
C129 C128 1.399 . S
C129 C130 1.381 . S
C130 H122 0.930 . S
C130 C126 1.390 . S
C130 C129 1.381 . S
N131 C124 1.286 . S
N131 C127 1.413 . S
C132 C133 1.386 . S
C132 C134 1.383 . S
C132 H148 0.951 . S
C133 C132 1.386 . S
C133 C137 1.383 . S
C134 C132 1.383 . S
C134 C135 1.402 . S
C134 H149 0.951 . S
C135 C134 1.402 . S
C135 C136 1.375 . S
C135 C138 1.481 . S
C136 C135 1.375 . S
C136 C137 1.367 . S
C136 H150 0.951 . S
C137 C133 1.383 . S
C137 C136 1.367 . S
C137 H151 0.950 . S
C138 C135 1.481 . S
C138 C139 1.297 . S
C138 H152 0.950 . S
C139 C138 1.297 . S
C139 C140 1.479 . S
C139 H153 0.950 . S
C140 C139 1.479 . S
C140 C141 1.375 . S
C140 C146 1.404 . S
C141 C140 1.375 . S
C141 C142 1.369 . S
C141 H154 0.950 . S
C142 C141 1.369 . S
C142 C143 1.392 . S
C142 H155 0.951 . S
C143 C142 1.392 . S
C143 C145 1.384 . S
H144 C146 0.949 . S
C145 C143 1.384 . S
C145 C146 1.385 . S
C145 H147 0.950 . S
C146 C140 1.404 . S
C146 H144 0.949 . S
C146 C145 1.385 . S
H147 C145 0.950 . S
H148 C132 0.951 . S
H149 C134 0.951 . S
H150 C136 0.951 . S
H151 C137 0.950 . S
H152 C138 0.950 . S
H153 C139 0.950 . S
H154 C141 0.950 . S
H155 C142 0.951 . S
C156 C157 1.386 . S
C156 C158 1.383 . S
C156 H172 0.951 . S
C157 C156 1.386 . S
C157 C161 1.383 . S
C158 C156 1.383 . S
C158 C159 1.402 . S
C158 H173 0.951 . S
C159 C158 1.402 . S
C159 C160 1.375 . S
C159 C162 1.481 . S
C160 C159 1.375 . S
C160 C161 1.367 . S
C160 H174 0.951 . S
C161 C157 1.383 . S
C161 C160 1.367 . S
C161 H175 0.950 . S
C162 C159 1.481 . S
C162 C163 1.297 . S
C162 H176 0.950 . S
C163 C162 1.297 . S
C163 C164 1.479 . S
C163 H177 0.950 . S
C164 C163 1.479 . S
C164 C165 1.375 . S
C164 C170 1.404 . S
C165 C164 1.375 . S
C165 C166 1.369 . S
C165 H178 0.950 . S
C166 C165 1.369 . S
C166 C167 1.392 . S
C166 H179 0.951 . S
C167 C166 1.392 . S
C167 C169 1.384 . S
H168 C170 0.949 . S
C169 C167 1.384 . S
C169 C170 1.385 . S
C169 H171 0.950 . S
C170 C164 1.404 . S
C170 H168 0.949 . S
C170 C169 1.385 . S
H171 C169 0.950 . S
H172 C156 0.951 . S
H173 C158 0.951 . S
H174 C160 0.951 . S
H175 C161 0.950 . S
H176 C162 0.950 . S
H177 C163 0.950 . S
H178 C165 0.950 . S
H179 C166 0.951 . S
C180 C181 1.386 . S
C180 C182 1.383 . S
C180 H196 0.951 . S
C181 C180 1.386 . S
C181 C185 1.383 . S
C182 C180 1.383 . S
C182 C183 1.402 . S
C182 H197 0.951 . S
C183 C182 1.402 . S
C183 C184 1.375 . S
C183 C186 1.481 . S
C184 C183 1.375 . S
C184 C185 1.367 . S
C184 H198 0.951 . S
C185 C181 1.383 . S
C185 C184 1.367 . S
C185 H199 0.950 . S
C186 C183 1.481 . S
C186 C187 1.297 . S
C186 H200 0.950 . S
C187 C186 1.297 . S
C187 C188 1.479 . S
C187 H201 0.950 . S
C188 C187 1.479 . S
C188 C189 1.375 . S
C188 C194 1.404 . S
C189 C188 1.375 . S
C189 C190 1.369 . S
C189 H202 0.950 . S
C190 C189 1.369 . S
C190 C191 1.392 . S
C190 H203 0.951 . S
C191 C190 1.392 . S
C191 C193 1.384 . S
H192 C194 0.949 . S
C193 C191 1.384 . S
C193 C194 1.385 . S
C193 H195 0.950 . S
C194 C188 1.404 . S
C194 H192 0.949 . S
C194 C193 1.385 . S
H195 C193 0.950 . S
H196 C180 0.951 . S
H197 C182 0.951 . S
H198 C184 0.951 . S
H199 C185 0.950 . S
H200 C186 0.950 . S
H201 C187 0.950 . S
H202 C189 0.950 . S
H203 C190 0.951 . S
C204 C205 1.386 . S
C204 C206 1.383 . S
C204 H220 0.951 . S
C205 C204 1.386 . S
C205 C209 1.383 . S
C206 C204 1.383 . S
C206 C207 1.402 . S
C206 H221 0.951 . S
C207 C206 1.402 . S
C207 C208 1.375 . S
C207 C210 1.481 . S
C208 C207 1.375 . S
C208 C209 1.367 . S
C208 H222 0.951 . S
C209 C205 1.383 . S
C209 C208 1.367 . S
C209 H223 0.950 . S
C210 C207 1.481 . S
C210 C211 1.297 . S
C210 H224 0.950 . S
C211 C210 1.297 . S
C211 C212 1.479 . S
C211 H225 0.950 . S
C212 C211 1.479 . S
C212 C213 1.375 . S
C212 C218 1.404 . S
C213 C212 1.375 . S
C213 C214 1.369 . S
C213 H226 0.950 . S
C214 C213 1.369 . S
C214 C215 1.392 . S
C214 H227 0.951 . S
C215 C214 1.392 . S
C215 C217 1.384 . S
H216 C218 0.949 . S
C217 C215 1.384 . S
C217 C218 1.385 . S
C217 H219 0.950 . S
C218 C212 1.404 . S
C218 H216 0.949 . S
C218 C217 1.385 . S
H219 C217 0.950 . S
H220 C204 0.951 . S
H221 C206 0.951 . S
H222 C208 0.951 . S
H223 C209 0.950 . S
H224 C210 0.950 . S
H225 C211 0.950 . S
H226 C213 0.950 . S
H227 C214 0.951 . S
C228 C229 1.386 . S
C228 C230 1.383 . S
C228 H244 0.951 . S
C229 C228 1.386 . S
C229 C233 1.383 . S
C230 C228 1.383 . S
C230 C231 1.402 . S
C230 H245 0.951 . S
C231 C230 1.402 . S
C231 C232 1.375 . S
C231 C234 1.481 . S
C232 C231 1.375 . S
C232 C233 1.367 . S
C232 H246 0.951 . S
C233 C229 1.383 . S
C233 C232 1.367 . S
C233 H247 0.950 . S
C234 C231 1.481 . S
C234 C235 1.297 . S
C234 H248 0.950 . S
C235 C234 1.297 . S
C235 C236 1.479 . S
C235 H249 0.950 . S
C236 C235 1.479 . S
C236 C237 1.375 . S
C236 C242 1.404 . S
C237 C236 1.375 . S
C237 C238 1.369 . S
C237 H250 0.950 . S
C238 C237 1.369 . S
C238 C239 1.392 . S
C238 H251 0.951 . S
C239 C238 1.392 . S
C239 C241 1.384 . S
H240 C242 0.949 . S
C241 C239 1.384 . S
C241 C242 1.385 . S
C241 H243 0.950 . S
C242 C236 1.404 . S
C242 H240 0.949 . S
C242 C241 1.385 . S
H243 C241 0.950 . S
H244 C228 0.951 . S
H245 C230 0.951 . S
H246 C232 0.951 . S
H247 C233 0.950 . S
H248 C234 0.950 . S
H249 C235 0.950 . S
H250 C237 0.950 . S
H251 C238 0.951 . S
C252 C253 1.386 . S
C252 C254 1.383 . S
C252 H268 0.951 . S
C253 C252 1.386 . S
C253 C257 1.383 . S
C254 C252 1.383 . S
C254 C255 1.402 . S
C254 H269 0.951 . S
C255 C254 1.402 . S
C255 C256 1.375 . S
C255 C258 1.481 . S
C256 C255 1.375 . S
C256 C257 1.367 . S
C256 H270 0.951 . S
C257 C253 1.383 . S
C257 C256 1.367 . S
C257 H271 0.950 . S
C258 C255 1.481 . S
C258 C259 1.297 . S
C258 H272 0.950 . S
C259 C258 1.297 . S
C259 C260 1.479 . S
C259 H273 0.950 . S
C260 C259 1.479 . S
C260 C261 1.375 . S
C260 C266 1.404 . S
C261 C260 1.375 . S
C261 C262 1.369 . S
C261 H274 0.950 . S
C262 C261 1.369 . S
C262 C263 1.392 . S
C262 H275 0.951 . S
C263 C262 1.392 . S
C263 C265 1.384 . S
H264 C266 0.949 . S
C265 C263 1.384 . S
C265 C266 1.385 . S
C265 H267 0.950 . S
C266 C260 1.404 . S
C266 H264 0.949 . S
C266 C265 1.385 . S
H267 C265 0.950 . S
H268 C252 0.951 . S
H269 C254 0.951 . S
H270 C256 0.951 . S
H271 C257 0.950 . S
H272 C258 0.950 . S
H273 C259 0.950 . S
H274 C261 0.950 . S
H275 C262 0.951 . S
C276 C277 1.386 . S
C276 C278 1.383 . S
C276 H292 0.951 . S
C277 C276 1.386 . S
C277 C281 1.383 . S
C278 C276 1.383 . S
C278 C279 1.402 . S
C278 H293 0.951 . S
C279 C278 1.402 . S
C279 C280 1.375 . S
C279 C282 1.481 . S
C280 C279 1.375 . S
C280 C281 1.367 . S
C280 H294 0.951 . S
C281 C277 1.383 . S
C281 C280 1.367 . S
C281 H295 0.950 . S
C282 C279 1.481 . S
C282 C283 1.297 . S
C282 H296 0.950 . S
C283 C282 1.297 . S
C283 C284 1.479 . S
C283 H297 0.950 . S
C284 C283 1.479 . S
C284 C285 1.375 . S
C284 C290 1.404 . S
C285 C284 1.375 . S
C285 C286 1.369 . S
C285 H298 0.950 . S
C286 C285 1.369 . S
C286 C287 1.392 . S
C286 H299 0.951 . S
C287 C286 1.392 . S
C287 C289 1.384 . S
H288 C290 0.949 . S
C289 C287 1.384 . S
C289 C290 1.385 . S
C289 H291 0.950 . S
C290 C284 1.404 . S
C290 H288 0.949 . S
C290 C289 1.385 . S
H291 C289 0.950 . S
H292 C276 0.951 . S
H293 C278 0.951 . S
H294 C280 0.951 . S
H295 C281 0.950 . S
H296 C282 0.950 . S
H297 C283 0.950 . S
H298 C285 0.950 . S
H299 C286 0.951 . S
C300 C301 1.386 . S
C300 C302 1.383 . S
C300 H316 0.951 . S
C301 C300 1.386 . S
C301 C305 1.383 . S
C302 C300 1.383 . S
C302 C303 1.402 . S
C302 H317 0.951 . S
C303 C302 1.402 . S
C303 C304 1.375 . S
C303 C306 1.481 . S
C304 C303 1.375 . S
C304 C305 1.367 . S
C304 H318 0.951 . S
C305 C301 1.383 . S
C305 C304 1.367 . S
C305 H319 0.950 . S
C306 C303 1.481 . S
C306 C307 1.297 . S
C306 H320 0.950 . S
C307 C306 1.297 . S
C307 C308 1.479 . S
C307 H321 0.950 . S
C308 C307 1.479 . S
C308 C309 1.375 . S
C308 C314 1.404 . S
C309 C308 1.375 . S
C309 C310 1.369 . S
C309 H322 0.950 . S
C310 C309 1.369 . S
C310 C311 1.392 . S
C310 H323 0.951 . S
C311 C310 1.392 . S
C311 C313 1.384 . S
H312 C314 0.949 . S
C313 C311 1.384 . S
C313 C314 1.385 . S
C313 H315 0.950 . S
C314 C308 1.404 . S
C314 H312 0.949 . S
C314 C313 1.385 . S
H315 C313 0.950 . S
H316 C300 0.951 . S
H317 C302 0.951 . S
H318 C304 0.951 . S
H319 C305 0.950 . S
H320 C306 0.950 . S
H321 C307 0.950 . S
H322 C309 0.950 . S
H323 C310 0.951 . S
C324 C325 1.386 . S
C324 C326 1.383 . S
C324 H340 0.951 . S
C325 C324 1.386 . S
C325 C329 1.383 . S
C326 C324 1.383 . S
C326 C327 1.402 . S
C326 H341 0.951 . S
C327 C326 1.402 . S
C327 C328 1.375 . S
C327 C330 1.481 . S
C328 C327 1.375 . S
C328 C329 1.367 . S
C328 H342 0.951 . S
C329 C325 1.383 . S
C329 C328 1.367 . S
C329 H343 0.950 . S
C330 C327 1.481 . S
C330 C331 1.297 . S
C330 H344 0.950 . S
C331 C330 1.297 . S
C331 C332 1.479 . S
C331 H345 0.950 . S
C332 C331 1.479 . S
C332 C333 1.375 . S
C332 C338 1.404 . S
C333 C332 1.375 . S
C333 C334 1.369 . S
C333 H346 0.950 . S
C334 C333 1.369 . S
C334 C335 1.392 . S
C334 H347 0.951 . S
C335 C334 1.392 . S
C335 C337 1.384 . S
H336 C338 0.949 . S
C337 C335 1.384 . S
C337 C338 1.385 . S
C337 H339 0.950 1_565 S
C338 C332 1.404 . S
C338 H336 0.949 . S
C338 C337 1.385 . S
H339 C337 0.950 1_545 S
H340 C324 0.951 . S
H341 C326 0.951 . S
H342 C328 0.951 . S
H343 C329 0.950 . S
H344 C330 0.950 . S
H345 C331 0.950 . S
H346 C333 0.950 . S
H347 C334 0.951 . S
C348 C349 1.386 . S
C348 C350 1.383 . S
C348 H364 0.951 . S
C349 C348 1.386 . S
C349 C353 1.383 . S
C350 C348 1.383 . S
C350 C351 1.402 . S
C350 H365 0.951 . S
C351 C350 1.402 . S
C351 C352 1.375 . S
C351 C354 1.481 . S
C352 C351 1.375 . S
C352 C353 1.367 . S
C352 H366 0.951 . S
C353 C349 1.383 . S
C353 C352 1.367 . S
C353 H367 0.950 . S
C354 C351 1.481 . S
C354 C355 1.297 . S
C354 H368 0.950 . S
C355 C354 1.297 . S
C355 C356 1.479 . S
C355 H369 0.950 . S
C356 C355 1.479 . S
C356 C357 1.375 . S
C356 C362 1.404 . S
C357 C356 1.375 . S
C357 C358 1.369 . S
C357 H370 0.950 . S
C358 C357 1.369 . S
C358 C359 1.392 . S
C358 H371 0.951 . S
C359 C358 1.392 . S
C359 C361 1.384 . S
H360 C362 0.949 . S
C361 C359 1.384 . S
C361 C362 1.385 . S
C361 H363 0.950 . S
C362 C356 1.404 . S
C362 H360 0.949 . S
C362 C361 1.385 . S
H363 C361 0.950 . S
H364 C348 0.951 . S
H365 C350 0.951 . S
H366 C352 0.951 . S
H367 C353 0.950 . S
H368 C354 0.950 . S
H369 C355 0.950 . S
H370 C357 0.950 . S
H371 C358 0.951 . S
C372 C373 1.386 . S
C372 C374 1.383 . S
C372 H388 0.951 . S
C373 C372 1.386 . S
C373 C377 1.383 . S
C374 C372 1.383 . S
C374 C375 1.402 . S
C374 H389 0.951 . S
C375 C374 1.402 . S
C375 C376 1.375 . S
C375 C378 1.481 . S
C376 C375 1.375 . S
C376 C377 1.367 . S
C376 H390 0.951 . S
C377 C373 1.383 . S
C377 C376 1.367 . S
C377 H391 0.950 . S
C378 C375 1.481 . S
C378 C379 1.297 . S
C378 H392 0.950 . S
C379 C378 1.297 . S
C379 C380 1.479 . S
C379 H393 0.950 . S
C380 C379 1.479 . S
C380 C381 1.375 . S
C380 C386 1.404 . S
C381 C380 1.375 . S
C381 C382 1.369 . S
C381 H394 0.950 . S
C382 C381 1.369 . S
C382 C383 1.392 . S
C382 H395 0.951 . S
C383 C382 1.392 . S
C383 C385 1.384 . S
H384 C386 0.949 . S
C385 C383 1.384 . S
C385 C386 1.385 . S
C385 H387 0.950 . S
C386 C380 1.404 . S
C386 H384 0.949 . S
C386 C385 1.385 . S
H387 C385 0.950 . S
H388 C372 0.951 . S
H389 C374 0.951 . S
H390 C376 0.951 . S
H391 C377 0.950 . S
H392 C378 0.950 . S
H393 C379 0.950 . S
H394 C381 0.950 . S
H395 C382 0.951 . S
C396 C397 1.386 . S
C396 C398 1.383 . S
C396 H412 0.951 . S
C397 C396 1.386 . S
C397 C401 1.383 . S
C398 C396 1.383 . S
C398 C399 1.402 . S
C398 H413 0.951 . S
C399 C398 1.402 . S
C399 C400 1.375 . S
C399 C402 1.481 . S
C400 C399 1.375 . S
C400 C401 1.367 . S
C400 H414 0.951 . S
C401 C397 1.383 . S
C401 C400 1.367 . S
C401 H415 0.950 . S
C402 C399 1.481 . S
C402 C403 1.297 . S
C402 H416 0.950 . S
C403 C402 1.297 . S
C403 C404 1.479 . S
C403 H417 0.950 . S
C404 C403 1.479 . S
C404 C405 1.375 . S
C404 C410 1.404 . S
C405 C404 1.375 . S
C405 C406 1.369 . S
C405 H418 0.950 . S
C406 C405 1.369 . S
C406 C407 1.392 . S
C406 H419 0.951 . S
C407 C406 1.392 . S
C407 C409 1.384 . S
H408 C410 0.949 . S
C409 C407 1.384 . S
C409 C410 1.385 . S
C409 H411 0.950 . S
C410 C404 1.404 . S
C410 H408 0.949 . S
C410 C409 1.385 . S
H411 C409 0.950 . S
H412 C396 0.951 . S
H413 C398 0.951 . S
H414 C400 0.951 . S
H415 C401 0.950 . S
H416 C402 0.950 . S
H417 C403 0.950 . S
H418 C405 0.950 . S
H419 C406 0.951 . S
C420 C421 1.386 . S
C420 C422 1.383 . S
C420 H436 0.951 . S
C421 C420 1.386 . S
C421 C425 1.383 1_455 S
C422 C420 1.383 . S
C422 C423 1.402 . S
C422 H437 0.951 . S
C423 C422 1.402 . S
C423 C424 1.375 1_455 S
C423 C426 1.481 . S
C424 C423 1.375 1_655 S
C424 C425 1.367 . S
C424 H438 0.951 . S
C425 C421 1.383 1_655 S
C425 C424 1.367 . S
C425 H439 0.950 . S
C426 C423 1.481 . S
C426 C427 1.297 . S
C426 H440 0.950 1_455 S
C427 C426 1.297 . S
C427 C428 1.479 1_554 S
C427 H441 0.950 . S
C428 C427 1.479 1_556 S
C428 C429 1.375 . S
C428 C434 1.404 . S
C429 C428 1.375 . S
C429 C430 1.369 . S
C429 H442 0.950 . S
C430 C429 1.369 . S
C430 C431 1.392 . S
C430 H443 0.951 . S
C431 C430 1.392 . S
C431 C433 1.384 1_455 S
H432 C434 0.949 1_655 S
C433 C431 1.384 1_655 S
C433 C434 1.385 1_655 S
C433 H435 0.950 . S
C434 C428 1.404 . S
C434 H432 0.949 1_455 S
C434 C433 1.385 1_455 S
H435 C433 0.950 . S
H436 C420 0.951 . S
H437 C422 0.951 . S
H438 C424 0.951 . S
H439 C425 0.950 . S
H440 C426 0.950 1_655 S
H441 C427 0.950 . S
H442 C429 0.950 . S
H443 C430 0.951 . S
C444 C445 1.386 . S
C444 C446 1.383 . S
C444 H460 0.951 1_545 S
C445 C444 1.386 . S
C445 C449 1.383 . S
C446 C444 1.383 . S
C446 C447 1.402 . S
C446 H461 0.951 1_545 S
C447 C446 1.402 . S
C447 C448 1.375 . S
C447 C450 1.481 . S
C448 C447 1.375 . S
C448 C449 1.367 . S
C448 H462 0.951 . S
C449 C445 1.383 . S
C449 C448 1.367 . S
C449 H463 0.950 . S
C450 C447 1.481 . S
C450 C451 1.297 . S
C450 H464 0.950 . S
C451 C450 1.297 . S
C451 C452 1.479 . S
C451 H465 0.950 . S
C452 C451 1.479 . S
C452 C453 1.375 . S
C452 C458 1.404 . S
C453 C452 1.375 . S
C453 C454 1.369 . S
C453 H466 0.950 1_545 S
C454 C453 1.369 . S
C454 C455 1.392 . S
C454 H467 0.951 1_545 S
C455 C454 1.392 . S
C455 C457 1.384 . S
H456 C458 0.949 . S
C457 C455 1.384 . S
C457 C458 1.385 . S
C457 H459 0.950 . S
C458 C452 1.404 . S
C458 H456 0.949 . S
C458 C457 1.385 . S
H459 C457 0.950 . S
H460 C444 0.951 1_565 S
H461 C446 0.951 1_565 S
H462 C448 0.951 . S
H463 C449 0.950 . S
H464 C450 0.950 . S
H465 C451 0.950 . S
H466 C453 0.950 1_565 S
H467 C454 0.951 1_565 S
C468 C469 1.386 . S
C468 C470 1.383 . S
C468 H484 0.951 . S
C469 C468 1.386 . S
C469 C473 1.383 . S
C470 C468 1.383 . S
C470 C471 1.402 . S
C470 H485 0.951 . S
C471 C470 1.402 . S
C471 C472 1.375 . S
C471 C474 1.481 . S
C472 C471 1.375 . S
C472 C473 1.367 . S
C472 H486 0.951 . S
C473 C469 1.383 . S
C473 C472 1.367 . S
C473 H487 0.950 . S
C474 C471 1.481 . S
C474 C475 1.297 . S
C474 H488 0.950 . S
C475 C474 1.297 . S
C475 C476 1.479 . S
C475 H489 0.950 . S
C476 C475 1.479 . S
C476 C477 1.375 . S
C476 C482 1.404 . S
C477 C476 1.375 . S
C477 C478 1.369 . S
C477 H490 0.950 . S
C478 C477 1.369 . S
C478 C479 1.392 . S
C478 H491 0.951 . S
C479 C478 1.392 . S
C479 C481 1.384 . S
H480 C482 0.949 . S
C481 C479 1.384 . S
C481 C482 1.385 . S
C481 H483 0.950 . S
C482 C476 1.404 . S
C482 H480 0.949 . S
C482 C481 1.385 . S
H483 C481 0.950 . S
H484 C468 0.951 . S
H485 C470 0.951 . S
H486 C472 0.951 . S
H487 C473 0.950 . S
H488 C474 0.950 . S
H489 C475 0.950 . S
H490 C477 0.950 . S
H491 C478 0.951 . S
C492 C493 1.386 . S
C492 C494 1.383 . S
C492 H508 0.951 . S
C493 C492 1.386 . S
C493 C497 1.383 1_545 S
C494 C492 1.383 . S
C494 C495 1.402 . S
C494 H509 0.951 . S
C495 C494 1.402 . S
C495 C496 1.375 1_545 S
C495 C498 1.481 . S
C496 C495 1.375 1_565 S
C496 C497 1.367 . S
C496 H510 0.951 . S
C497 C493 1.383 1_565 S
C497 C496 1.367 . S
C497 H511 0.950 . S
C498 C495 1.481 . S
C498 C499 1.297 . S
C498 H512 0.950 1_545 S
C499 C498 1.297 . S
C499 C500 1.479 . S
C499 H513 0.950 . S
C500 C499 1.479 . S
C500 C501 1.375 . S
C500 C506 1.404 1_545 S
C501 C500 1.375 . S
C501 C502 1.369 . S
C501 H514 0.950 . S
C502 C501 1.369 . S
C502 C503 1.392 . S
C502 H515 0.951 . S
C503 C502 1.392 . S
C503 C505 1.384 1_545 S
H504 C506 0.949 . S
C505 C503 1.384 1_565 S
C505 C506 1.385 . S
C505 H507 0.950 . S
C506 C500 1.404 1_565 S
C506 H504 0.949 . S
C506 C505 1.385 . S
H507 C505 0.950 . S
H508 C492 0.951 . S
H509 C494 0.951 . S
H510 C496 0.951 . S
H511 C497 0.950 . S
H512 C498 0.950 1_565 S
H513 C499 0.950 . S
H514 C501 0.950 . S
H515 C502 0.951 . S
C516 C517 1.386 . S
C516 C518 1.383 . S
C516 H532 0.951 . S
C517 C516 1.386 . S
C517 C521 1.383 . S
C518 C516 1.383 . S
C518 C519 1.402 . S
C518 H533 0.951 . S
C519 C518 1.402 . S
C519 C520 1.375 . S
C519 C522 1.481 . S
C520 C519 1.375 . S
C520 C521 1.367 . S
C520 H534 0.951 . S
C521 C517 1.383 . S
C521 C520 1.367 . S
C521 H535 0.950 . S
C522 C519 1.481 . S
C522 C523 1.297 . S
C522 H536 0.950 . S
C523 C522 1.297 . S
C523 C524 1.479 1_556 S
C523 H537 0.950 . S
C524 C523 1.479 1_554 S
C524 C525 1.375 . S
C524 C530 1.404 . S
C525 C524 1.375 . S
C525 C526 1.369 . S
C525 H538 0.950 . S
C526 C525 1.369 . S
C526 C527 1.392 . S
C526 H539 0.951 . S
C527 C526 1.392 . S
C527 C529 1.384 . S
H528 C530 0.949 . S
C529 C527 1.384 . S
C529 C530 1.385 . S
C529 H531 0.950 . S
C530 C524 1.404 . S
C530 H528 0.949 . S
C530 C529 1.385 . S
H531 C529 0.950 . S
H532 C516 0.951 . S
H533 C518 0.951 . S
H534 C520 0.951 . S
H535 C521 0.950 . S
H536 C522 0.950 . S
H537 C523 0.950 . S
H538 C525 0.950 . S
H539 C526 0.951 . S
C540 C541 1.386 1_655 S
C540 C542 1.383 . S
C540 H556 0.951 . S
C541 C540 1.386 1_455 S
C541 C545 1.383 . S
C542 C540 1.383 . S
C542 C543 1.402 1_655 S
C542 H557 0.951 . S
C543 C542 1.402 1_455 S
C543 C544 1.375 . S
C543 C546 1.481 . S
C544 C543 1.375 . S
C544 C545 1.367 . S
C544 H558 0.951 . S
C545 C541 1.383 . S
C545 C544 1.367 . S
C545 H559 0.950 . S
C546 C543 1.481 . S
C546 C547 1.297 . S
C546 H560 0.950 . S
C547 C546 1.297 . S
C547 C548 1.479 . S
C547 H561 0.950 1_455 S
C548 C547 1.479 . S
C548 C549 1.375 1_455 S
C548 C554 1.404 . S
C549 C548 1.375 1_655 S
C549 C550 1.369 . S
C549 H562 0.950 . S
C550 C549 1.369 . S
C550 C551 1.392 1_655 S
C550 H563 0.951 . S
C551 C550 1.392 1_455 S
C551 C553 1.384 . S
H552 C554 0.949 . S
C553 C551 1.384 . S
C553 C554 1.385 . S
C553 H555 0.950 . S
C554 C548 1.404 . S
C554 H552 0.949 . S
C554 C553 1.385 . S
H555 C553 0.950 . S
H556 C540 0.951 . S
H557 C542 0.951 . S
H558 C544 0.951 . S
H559 C545 0.950 . S
H560 C546 0.950 . S
H561 C547 0.950 1_655 S
H562 C549 0.950 . S
H563 C550 0.951 . S
C133 C2 1.590 . S
C143 C126 1.677 . S
C157 C22 1.410 . S
C167 C100 1.437 . S
C181 C44 1.444 . S
C191 C112 1.477 . S
C205 C4 1.281 . S
C215 C124 1.299 . S
C239 C102 1.519 . S
C229 C24 1.450 . S
C263 C114 1.412 . S
C253 C42 1.329 . S
C277 C32 1.412 . S
C287 C76 1.391 . S
C301 C49 1.516 . S
C311 C90 1.529 . S
C325 C9 1.127 . S
C335 C66 1.156 1_565 S
C359 C78 1.175 . S
C349 C29 1.116 . S
C383 C88 1.093 . S
C373 C52 1.078 . S
C397 C12 1.279 . S
C407 C64 1.275 . S
C431 C93 1.488 . S
C421 C18 1.477 . S
C445 C38 1.480 . S
C455 C69 1.464 . S
C469 C58 1.465 . S
C479 C81 1.500 . S
C503 C117 1.506 . S
C493 C39 1.516 . S
C527 C129 1.566 . S
C517 C59 1.537 . S
C541 C19 1.479 . S
C551 C105 1.525 . S
