# Generated by pormake.
# Topology rtl, (3,6)-cn, num edge types: 1
# Building blocks:
#     Node 0, Type 0, BuildingBlock: QEWDON_clean_linker_0, # of connection points: 3
#     Node 1, Type 0, BuildingBlock: QEWDON_clean_linker_0, # of connection points: 3
#     Node 2, Type 0, BuildingBlock: QEWDON_clean_linker_0, # of connection points: 3
#     Node 3, Type 0, BuildingBlock: QEWDON_clean_linker_0, # of connection points: 3
#     Node 4, Type 1, BuildingBlock: LEVNOQ01_clean_sbu_1, # of connection points: 6
#     Node 5, Type 1, BuildingBlock: LEVNOQ01_clean_sbu_1, # of connection points: 6
#     Edge 6, Type (0, 1), BuildingBlock: XIVTED_clean_linker_0, # of connection points: 2
#     Edge 7, Type (0, 1), BuildingBlock: XIVTED_clean_linker_0, # of connection points: 2
#     Edge 8, Type (0, 1), BuildingBlock: XIVTED_clean_linker_0, # of connection points: 2
#     Edge 9, Type (0, 1), BuildingBlock: XIVTED_clean_linker_0, # of connection points: 2
#     Edge 10, Type (0, 1), BuildingBlock: XIVTED_clean_linker_0, # of connection points: 2
#     Edge 11, Type (0, 1), BuildingBlock: XIVTED_clean_linker_0, # of connection points: 2
#     Edge 12, Type (0, 1), BuildingBlock: XIVTED_clean_linker_0, # of connection points: 2
#     Edge 13, Type (0, 1), BuildingBlock: XIVTED_clean_linker_0, # of connection points: 2
#     Edge 14, Type (0, 1), BuildingBlock: XIVTED_clean_linker_0, # of connection points: 2
#     Edge 15, Type (0, 1), BuildingBlock: XIVTED_clean_linker_0, # of connection points: 2
#     Edge 16, Type (0, 1), BuildingBlock: XIVTED_clean_linker_0, # of connection points: 2
#     Edge 17, Type (0, 1), BuildingBlock: XIVTED_clean_linker_0, # of connection points: 2
# Relax obj value: 0.038
# Max RMSD: 0.175
# Mean RMSD: 0.137
data_MOF--net-rtl--node1-LEVNOQ01_clean_sbu_1--node2-QEWDON_clean_linker_0--edge1-XIVTED_clean_linker_0
_symmetry_space_group_name_H-M    P1
_symmetry_Int_Tables_number       1
_symmetry_cell_setting            triclinic
loop_
_symmetry_equiv_pos_as_xyz
'x, y, z'
_cell_length_a     38.229487
_cell_length_b     37.956179
_cell_length_c     21.982954
_cell_angle_alpha  91.75641
_cell_angle_beta   100.1366
_cell_angle_gamma 89.827252
loop_
_atom_site_label
_atom_site_type_symbol
_atom_site_fract_x
_atom_site_fract_y
_atom_site_fract_z
_atom_type_partial_charge
H0 H 0.2254 0.83978 0.17014 0.0
C1 C 0.20843 0.84538 0.12658 0.0
C2 C 0.17655 0.86376 0.12649 0.0
C3 C 0.21994 0.83715 0.07058 0.0
H4 H 0.13059 0.88626 0.07075 0.0
C5 C 0.15536 0.87239 0.07012 0.0
C6 C 0.16609 0.86384 0.01351 0.0
C7 C 0.19853 0.84613 0.01436 0.0
C8 C 0.25661 0.82445 0.07093 0.0
H9 H 0.20812 0.84075 0.97146 0.0
C10 C 0.26932 0.79329 0.10046 0.0
C11 C 0.30485 0.78283 0.1018 0.0
C12 C 0.27954 0.84472 0.04261 0.0
H13 H 0.27037 0.86887 0.02001 0.0
C14 C 0.31466 0.83448 0.04415 0.0
H15 H 0.2517 0.7773 0.12186 0.0
C16 C 0.32731 0.80384 0.07359 0.0
H17 H 0.35454 0.79607 0.07298 0.0
H18 H 0.33214 0.8503 0.02224 0.0
H19 H 0.71812 0.71234 0.52269 0.0
C20 C 0.70439 0.70286 0.55812 0.0
C21 C 0.67067 0.68683 0.54136 0.0
C22 C 0.72082 0.70526 0.62082 0.0
H23 H 0.63017 0.65725 0.57397 0.0
C24 C 0.65448 0.67227 0.58757 0.0
C25 C 0.6702 0.67488 0.65017 0.0
C26 C 0.70265 0.69272 0.66623 0.0
C27 C 0.75831 0.71702 0.64053 0.0
H28 H 0.71464 0.69592 0.71453 0.0
C29 C 0.77158 0.7484 0.62012 0.0
C30 C 0.8066 0.75992 0.64466 0.0
C31 C 0.78081 0.69671 0.6835 0.0
H32 H 0.77175 0.67202 0.69884 0.0
C33 C 0.81493 0.70813 0.70829 0.0
H34 H 0.75467 0.76376 0.58605 0.0
C35 C 0.82755 0.73964 0.68995 0.0
H36 H 0.85388 0.74815 0.71191 0.0
H37 H 0.83158 0.69262 0.74244 0.0
H38 H 0.79278 0.21621 0.05408 0.0
C39 C 0.80843 0.20855 0.01925 0.0
C40 C 0.84125 0.19165 0.03685 0.0
C41 C 0.79448 0.21259 0.95611 0.0
H42 H 0.88499 0.16552 0.00542 0.0
C43 C 0.8602 0.17946 0.99138 0.0
C44 C 0.84605 0.182 0.92837 0.0
C45 C 0.8137 0.19958 0.91117 0.0
C46 C 0.75779 0.22562 0.93585 0.0
H47 H 0.80222 0.20118 0.8626 0.0
C48 C 0.74637 0.25823 0.95759 0.0
C49 C 0.71194 0.27081 0.93448 0.0
C50 C 0.73412 0.20525 0.89257 0.0
H51 H 0.74204 0.17982 0.87589 0.0
C52 C 0.69997 0.21732 0.87049 0.0
H53 H 0.76451 0.27415 0.99074 0.0
C54 C 0.68895 0.24989 0.89098 0.0
H55 H 0.66212 0.25845 0.87345 0.0
H56 H 0.68195 0.20136 0.83733 0.0
H57 H 0.3233 0.30557 0.57528 0.0
C58 C 0.3263 0.32247 0.53764 0.0
C59 C 0.341 0.35635 0.55027 0.0
C60 C 0.31612 0.3102 0.47629 0.0
H61 H 0.35877 0.40304 0.51125 0.0
C62 C 0.3459 0.37762 0.50106 0.0
C63 C 0.3364 0.36526 0.43936 0.0
C64 C 0.32059 0.3318 0.42778 0.0
C65 C 0.30395 0.27365 0.46153 0.0
H66 H 0.31237 0.32187 0.38068 0.0
C67 C 0.26975 0.26296 0.46838 0.0
C68 C 0.25737 0.22883 0.44854 0.0
C69 C 0.32597 0.25007 0.43562 0.0
H70 H 0.3523 0.25808 0.42955 0.0
C71 C 0.31412 0.21613 0.41687 0.0
H72 H 0.25257 0.28153 0.4872 0.0
C73 C 0.28008 0.20553 0.42312 0.0
H74 H 0.27174 0.17885 0.40882 0.0
H75 H 0.33131 0.198 0.39719 0.0
O76 O 0.00506 0.04563 0.65621 0.0
Mg77 Mg 0.04481 0.03721 0.60033 0.0
O78 O 0.9655 0.05043 0.57179 0.0
Mg79 Mg -0.00032 0.01791 0.5133 0.0
O80 O 0.04433 0.06374 0.52113 0.0
O81 O 0.07562 0.0802 0.61414 0.0
O82 O 0.03818 0.98571 0.45691 0.0
O83 O 0.97479 0.05309 0.42982 0.0
Mg84 Mg 0.96514 0.97292 0.41624 0.0
O85 O 0.95189 0.97713 0.50247 0.0
O86 O 0.00815 0.94019 0.41056 0.0
O87 O 0.95509 0.01441 0.35525 0.0
O88 O 0.92033 0.94659 0.42168 0.0
C89 C 0.05242 0.97163 0.62154 0.0
C90 C 0.97411 0.05404 0.63019 0.0
C91 C 0.06688 0.08495 0.55568 0.0
C92 C 0.03731 0.95613 0.42709 0.0
C93 C 0.96045 0.04605 0.37389 0.0
C94 C 0.9259 0.95571 0.47958 0.0
O95 O 0.07688 0.9919 0.6128 0.0
O96 O 0.02056 0.97965 0.59812 0.0
O97 O 0.53305 0.52816 0.20301 0.0
Mg98 Mg 0.5243 0.48496 0.13755 0.0
O99 O 0.53436 0.56154 0.12415 0.0
Mg100 Mg 0.50166 0.52378 0.05036 0.0
O101 O 0.54785 0.47949 0.06085 0.0
O102 O 0.56841 0.4557 0.15273 0.0
O103 O 0.46814 0.48633 0.97266 0.0
O104 O 0.53658 0.54531 0.98093 0.0
Mg105 Mg 0.4568 0.56874 0.94647 0.0
O106 O 0.45975 0.56815 0.03914 0.0
O107 O 0.43339 0.52161 0.90929 0.0
O108 O 0.50429 0.58296 0.91927 0.0
O109 O 0.42518 0.6055 0.97902 0.0
C110 C 0.45665 0.47394 0.13472 0.0
C111 C 0.53996 0.55749 0.18215 0.0
C112 C 0.5705 0.45941 0.09546 0.0
C113 C 0.44322 0.49101 0.92631 0.0
C114 C 0.53342 0.56755 0.93782 0.0
C115 C 0.4362 0.59309 0.033 0.0
O116 O 0.48102 0.45161 0.13569 0.0
O117 O 0.46185 0.50492 0.11719 0.0
H118 H 0.22261 0.24192 0.54591 0.0
H119 H 0.07886 0.09114 0.43645 0.0
H120 H 0.20994 0.18836 0.36728 0.0
H121 H 0.09496 0.14471 0.61517 0.0
H122 H 0.1181 0.13442 0.40147 0.0
H123 H 0.16745 0.21503 0.56293 0.0
C124 C 0.20794 0.22498 0.50978 0.0
C125 C 0.22139 0.21678 0.45568 0.0
C126 C 0.11254 0.13698 0.44802 0.0
C127 C 0.15844 0.18524 0.47537 0.0
C128 C 0.09005 0.11238 0.46783 0.0
C129 C 0.08439 0.11392 0.52915 0.0
C130 C 0.12921 0.16316 0.48992 0.0
C131 C 0.09933 0.14207 0.5679 0.0
C132 C 0.17648 0.20942 0.51965 0.0
C133 C 0.20114 0.19455 0.41055 0.0
N134 N 0.12137 0.16526 0.54791 0.0
N135 N 0.17097 0.17913 0.42177 0.0
H136 H 0.36576 0.77191 0.18442 0.0
H137 H 0.36996 0.57813 0.05 0.0
H138 H 0.27625 0.71682 0.07679 0.0
H139 H 0.46228 0.64018 0.12573 0.0
H140 H 0.33301 0.61899 0.09891 0.0
H141 H 0.39709 0.71584 0.20135 0.0
C142 C 0.35234 0.74779 0.16585 0.0
C143 C 0.31876 0.74899 0.12794 0.0
C144 C 0.36151 0.62302 0.10696 0.0
C145 C 0.35464 0.68491 0.14612 0.0
C146 C 0.38265 0.59946 0.0797 0.0
C147 C 0.41904 0.60609 0.08383 0.0
C148 C 0.37695 0.6537 0.13747 0.0
C149 C 0.43426 0.63426 0.12172 0.0
C150 C 0.37023 0.71582 0.17544 0.0
C151 C 0.30228 0.71704 0.10577 0.0
N152 N 0.41298 0.65762 0.14593 0.0
N153 N 0.32074 0.68633 0.11389 0.0
H154 H 0.87565 0.77191 0.63243 0.0
H155 H 0.85453 0.94488 0.45659 0.0
H156 H 0.77317 0.82306 0.60915 0.0
H157 H 0.94902 0.92487 0.58953 0.0
H158 H 0.82239 0.90109 0.50562 0.0
H159 H 0.90215 0.8264 0.60765 0.0
C160 C 0.85863 0.79465 0.62296 0.0
C161 C 0.82203 0.79277 0.62439 0.0
C162 C 0.84985 0.90703 0.52509 0.0
C163 C 0.85254 0.85532 0.59355 0.0
C164 C 0.86813 0.93202 0.49738 0.0
C165 C 0.90439 0.93834 0.51925 0.0
C166 C 0.8684 0.88748 0.57342 0.0
C167 C 0.92101 0.92087 0.57169 0.0
C168 C 0.87393 0.8258 0.6087 0.0
C169 C 0.8014 0.82301 0.6085 0.0
N170 N 0.90311 0.89547 0.59607 0.0
N171 N 0.81691 0.85302 0.59315 0.0
H172 H 0.67453 0.32154 0.86477 0.0
H173 H 0.6276 0.42593 0.16012 0.0
H174 H 0.71964 0.29815 0.05312 0.0
H175 H 0.57612 0.44587 0.97337 0.0
H176 H 0.66828 0.38578 0.12009 0.0
H177 H 0.64549 0.37331 0.90208 0.0
C178 C 0.67856 0.32749 0.91402 0.0
C179 C 0.69904 0.30514 0.95602 0.0
C180 C 0.64837 0.39913 0.08768 0.0
C181 C 0.6659 0.36443 0.999 0.0
C182 C 0.62501 0.42212 0.11048 0.0
C183 C 0.59796 0.43895 0.07002 0.0
C184 C 0.6447 0.39256 0.02377 0.0
C185 C 0.59638 0.43329 0.00623 0.0
C186 C 0.66203 0.3571 0.93523 0.0
C187 C 0.70404 0.31457 0.01913 0.0
N188 N 0.61917 0.4102 0.98505 0.0
N189 N 0.68721 0.34325 0.03873 0.0
H190 H 0.17183 0.93198 0.16406 0.0
H191 H 0.05337 0.88727 0.40954 0.0
H192 H 0.15806 0.82592 0.22013 0.0
H193 H 0.09186 0.99233 0.39083 0.0
H194 H 0.09667 0.86388 0.34957 0.0
H195 H 0.14778 0.95458 0.2537 0.0
C196 C 0.1641 0.91353 0.19597 0.0
C197 C 0.1665 0.87714 0.18479 0.0
C198 C 0.09625 0.89198 0.35955 0.0
C199 C 0.13849 0.9026 0.28671 0.0
C200 C 0.07154 0.90535 0.39385 0.0
C201 C 0.06879 0.94182 0.40447 0.0
C202 C 0.11786 0.91531 0.33434 0.0
C203 C 0.09308 0.96405 0.38351 0.0
C204 C 0.15051 0.92638 0.24717 0.0
C205 C 0.15643 0.85418 0.22732 0.0
N206 N 0.11611 0.95051 0.3482 0.0
N207 N 0.14225 0.86729 0.27595 0.0
H208 H 0.70373 0.64376 0.75728 0.0
H209 H 0.52904 0.55164 0.81753 0.0
H210 H 0.59922 0.66423 0.65256 0.0
H211 H 0.60018 0.59656 0.97448 0.0
H212 H 0.56685 0.57457 0.74902 0.0
H213 H 0.6759 0.61219 0.83193 0.0
C214 C 0.67504 0.64206 0.74996 0.0
C215 C 0.6539 0.65689 0.6979 0.0
C216 C 0.57457 0.57878 0.79855 0.0
C217 C 0.62247 0.6192 0.78172 0.0
C218 C 0.55328 0.56552 0.83756 0.0
C219 C 0.56159 0.57248 0.90136 0.0
C220 C 0.60435 0.59922 0.82352 0.0
C221 C 0.59316 0.59061 0.92537 0.0
C222 C 0.65936 0.62367 0.7924 0.0
C223 C 0.61688 0.65272 0.69067 0.0
N224 N 0.6134 0.6039 0.88611 0.0
N225 N 0.60245 0.63398 0.73166 0.0
H226 H 0.88439 0.22365 0.137 0.0
H227 H 0.94986 0.04015 0.24926 0.0
H228 H 0.82623 0.1283 0.07574 0.0
H229 H 0.94167 0.11523 0.39764 0.0
H230 H 0.9187 0.08101 0.1756 0.0
H231 H 0.91576 0.19258 0.22824 0.0
C232 C 0.87738 0.19664 0.14407 0.0
C233 C 0.8525 0.17844 0.09965 0.0
C234 C 0.92394 0.08863 0.22427 0.0
C235 C 0.88898 0.14288 0.20064 0.0
C236 C 0.94182 0.06543 0.26638 0.0
C237 C 0.94773 0.07399 0.32988 0.0
C238 C 0.91196 0.12087 0.24531 0.0
C239 C 0.93739 0.10757 0.34905 0.0
C240 C 0.89536 0.17898 0.19557 0.0
C241 C 0.84489 0.14326 0.10956 0.0
N242 N 0.91957 0.1299 0.30676 0.0
N243 N 0.86359 0.12643 0.15824 0.0
H244 H 0.38942 0.32681 0.64148 0.0
H245 H 0.37353 0.48701 0.87893 0.0
H246 H 0.31941 0.41577 0.60452 0.0
H247 H 0.4712 0.4289 0.88642 0.0
H248 H 0.34526 0.44799 0.79485 0.0
H249 H 0.41223 0.35266 0.74523 0.0
C250 C 0.37853 0.35148 0.6557 0.0
C251 C 0.35267 0.3694 0.6147 0.0
C252 C 0.37269 0.44328 0.81548 0.0
C253 C 0.37806 0.39855 0.73243 0.0
C254 C 0.38879 0.46538 0.86375 0.0
C255 C 0.42486 0.46139 0.88902 0.0
C256 C 0.39275 0.41695 0.79179 0.0
C257 C 0.44333 0.4328 0.86803 0.0
C258 C 0.3916 0.36619 0.71452 0.0
C259 C 0.33949 0.40131 0.63477 0.0
N260 N 0.42718 0.41187 0.81961 0.0
N261 N 0.35231 0.41484 0.69218 0.0
H262 H 0.69915 0.66284 0.44087 0.0
H263 H 0.52017 0.57886 0.28979 0.0
H264 H 0.60089 0.69773 0.49348 0.0
H265 H 0.59705 0.59911 0.17327 0.0
H266 H 0.5513 0.62071 0.36755 0.0
H267 H 0.66523 0.63937 0.34249 0.0
C268 C 0.67064 0.66655 0.43099 0.0
C269 C 0.65273 0.6816 0.47593 0.0
C270 C 0.56107 0.61646 0.32456 0.0
C271 C 0.61398 0.65406 0.36495 0.0
C272 C 0.54341 0.59253 0.28043 0.0
C273 C 0.55612 0.58574 0.22532 0.0
C274 C 0.59238 0.63279 0.31444 0.0
C275 C 0.5864 0.60397 0.21524 0.0
C276 C 0.6513 0.65298 0.37507 0.0
C277 C 0.61568 0.68554 0.46073 0.0
N278 N 0.60406 0.6262 0.26008 0.0
N279 N 0.59747 0.67107 0.40731 0.0
H280 H 0.87399 0.11575 0.93735 0.0
H281 H 0.92143 0.10286 0.5976 0.0
H282 H 0.85403 0.2016 0.8115 0.0
H283 H 0.97168 0.04085 0.74974 0.0
H284 H 0.88678 0.13344 0.6676 0.0
H285 H 0.90071 0.08248 0.8612 0.0
C286 C 0.87565 0.12787 0.89398 0.0
C287 C 0.86249 0.16197 0.88151 0.0
C288 C 0.9052 0.11291 0.68528 0.0
C289 C 0.89226 0.1233 0.79304 0.0
C290 C 0.92469 0.09532 0.6454 0.0
C291 C 0.94955 0.06954 0.66824 0.0
C292 C 0.9103 0.10406 0.74782 0.0
C293 C 0.95303 0.06083 0.7305 0.0
C294 C 0.89061 0.10865 0.85024 0.0
C295 C 0.86403 0.17552 0.82322 0.0
N296 N 0.93367 0.07806 0.76807 0.0
N297 N 0.87881 0.15618 0.78111 0.0
H298 H 0.33703 0.43767 0.42442 0.0
H299 H 0.41813 0.41413 0.11464 0.0
H300 H 0.35859 0.33882 0.33547 0.0
H301 H 0.4271 0.51189 0.22121 0.0
H302 H 0.37963 0.39096 0.18129 0.0
H303 H 0.35685 0.46892 0.34012 0.0
C304 C 0.34559 0.42249 0.38723 0.0
C305 C 0.34587 0.38539 0.38727 0.0
C306 C 0.38945 0.41771 0.18973 0.0
C307 C 0.36767 0.421 0.29032 0.0
C308 C 0.41115 0.43101 0.15132 0.0
C309 C 0.42591 0.46474 0.16298 0.0
C310 C 0.38312 0.43798 0.24121 0.0
C311 C 0.41609 0.48569 0.21091 0.0
C312 C 0.35661 0.44038 0.33897 0.0
C313 C 0.35689 0.36727 0.33727 0.0
N314 N 0.39582 0.47167 0.24938 0.0
N315 N 0.36731 0.38521 0.29123 0.0
H316 H 0.15441 0.82944 0.89923 0.0
H317 H 0.03396 0.98365 0.73287 0.0
H318 H 0.12959 0.92597 0.99174 0.0
H319 H 0.09052 0.91028 0.63265 0.0
H320 H 0.05819 0.9545 0.829 0.0
H321 H 0.12164 0.8514 0.80176 0.0
C322 C 0.14209 0.85517 0.89926 0.0
C323 C 0.14484 0.87579 0.95416 0.0
C324 C 0.06468 0.94421 0.78586 0.0
C325 C 0.10673 0.90065 0.84291 0.0
C326 C 0.05051 0.96054 0.73101 0.0
C327 C 0.05988 0.94883 0.67503 0.0
C328 C 0.08814 0.91575 0.78455 0.0
C329 C 0.0824 0.91965 0.67505 0.0
C330 C 0.12325 0.86755 0.84363 0.0
C331 C 0.12774 0.90871 0.95121 0.0
N332 N 0.09583 0.90401 0.72913 0.0
N333 N 0.1095 0.92005 0.89667 0.0
loop_
_geom_bond_atom_site_label_1
_geom_bond_atom_site_label_2
_geom_bond_distance
_geom_bond_site_symmetry_2
_ccdc_geom_bond_type
H0 C1 0.949 . S
C1 H0 0.949 . S
C1 C2 1.395 . S
C1 C3 1.391 . S
C2 C1 1.395 . S
C2 C5 1.390 . S
C3 C1 1.391 . S
C3 C7 1.387 . S
C3 C8 1.491 . S
H4 C5 0.950 . S
C5 C2 1.390 . S
C5 H4 0.950 . S
C5 C6 1.378 . S
C6 C5 1.378 . S
C6 C7 1.409 . S
C7 C3 1.387 . S
C7 C6 1.409 . S
C7 H9 0.951 1_554 S
C8 C3 1.491 . S
C8 C10 1.382 . S
C8 C12 1.404 . S
H9 C7 0.951 1_556 S
C10 C8 1.382 . S
C10 C11 1.390 . S
C10 H15 0.949 . S
C11 C10 1.390 . S
C11 C16 1.399 . S
C12 C8 1.404 . S
C12 H13 0.950 1_554 S
C12 C14 1.375 . S
H13 C12 0.950 1_556 S
C14 C12 1.375 . S
C14 C16 1.382 . S
C14 H18 0.950 1_554 S
H15 C10 0.949 . S
C16 C11 1.399 . S
C16 C14 1.382 . S
C16 H17 0.952 . S
H17 C16 0.952 . S
H18 C14 0.950 1_556 S
H19 C20 0.949 . S
C20 H19 0.949 . S
C20 C21 1.395 . S
C20 C22 1.391 . S
C21 C20 1.395 . S
C21 C24 1.390 . S
C22 C20 1.391 . S
C22 C26 1.387 . S
C22 C27 1.491 . S
H23 C24 0.950 . S
C24 C21 1.390 . S
C24 H23 0.950 . S
C24 C25 1.378 . S
C25 C24 1.378 . S
C25 C26 1.409 . S
C26 C22 1.387 . S
C26 C25 1.409 . S
C26 H28 0.951 . S
C27 C22 1.491 . S
C27 C29 1.382 . S
C27 C31 1.404 . S
H28 C26 0.951 . S
C29 C27 1.382 . S
C29 C30 1.390 . S
C29 H34 0.949 . S
C30 C29 1.390 . S
C30 C35 1.399 . S
C31 C27 1.404 . S
C31 H32 0.950 . S
C31 C33 1.375 . S
H32 C31 0.950 . S
C33 C31 1.375 . S
C33 C35 1.382 . S
C33 H37 0.950 . S
H34 C29 0.949 . S
C35 C30 1.399 . S
C35 C33 1.382 . S
C35 H36 0.952 . S
H36 C35 0.952 . S
H37 C33 0.950 . S
H38 C39 0.949 . S
C39 H38 0.949 . S
C39 C40 1.395 . S
C39 C41 1.391 1_554 S
C40 C39 1.395 . S
C40 C43 1.396 . S
C41 C39 1.391 1_556 S
C41 C45 1.387 . S
C41 C46 1.491 . S
H42 C43 0.951 . S
C43 C40 1.396 . S
C43 H42 0.951 . S
C43 C44 1.372 1_554 S
C44 C43 1.372 1_556 S
C44 C45 1.409 . S
C45 C41 1.387 . S
C45 C44 1.409 . S
C45 H47 0.951 . S
C46 C41 1.491 . S
C46 C48 1.389 . S
C46 C50 1.404 . S
H47 C45 0.951 . S
C48 C46 1.389 . S
C48 C49 1.390 . S
C48 H53 0.941 1_556 S
C49 C48 1.390 . S
C49 C54 1.399 . S
C50 C46 1.404 . S
C50 H51 0.950 . S
C50 C52 1.375 . S
H51 C50 0.950 . S
C52 C50 1.375 . S
C52 C54 1.382 . S
C52 H56 0.950 . S
H53 C48 0.941 1_554 S
C54 C49 1.399 . S
C54 C52 1.382 . S
C54 H55 0.952 . S
H55 C54 0.952 . S
H56 C52 0.950 . S
H57 C58 0.949 . S
C58 H57 0.949 . S
C58 C59 1.395 . S
C58 C60 1.391 . S
C59 C58 1.395 . S
C59 C62 1.390 . S
C60 C58 1.391 . S
C60 C64 1.387 . S
C60 C65 1.491 . S
H61 C62 0.950 . S
C62 C59 1.390 . S
C62 H61 0.950 . S
C62 C63 1.378 . S
C63 C62 1.378 . S
C63 C64 1.409 . S
C64 C60 1.387 . S
C64 C63 1.409 . S
C64 H66 0.951 . S
C65 C60 1.491 . S
C65 C67 1.382 . S
C65 C69 1.404 . S
H66 C64 0.951 . S
C67 C65 1.382 . S
C67 C68 1.390 . S
C67 H72 0.949 . S
C68 C67 1.390 . S
C68 C73 1.399 . S
C69 C65 1.404 . S
C69 H70 0.950 . S
C69 C71 1.375 . S
H70 C69 0.950 . S
C71 C69 1.375 . S
C71 C73 1.382 . S
C71 H75 0.950 . S
H72 C67 0.949 . S
C73 C68 1.399 . S
C73 C71 1.382 . S
C73 H74 0.952 . S
H74 C73 0.952 . S
H75 C71 0.950 . S
O76 Mg77 1.990 . S
O76 C90 1.253 1_455 S
Mg77 O76 1.990 . S
Mg77 O80 2.180 . S
Mg77 O81 2.117 . S
Mg77 O95 2.030 . S
O78 Mg79 2.072 1_655 S
O78 C90 1.260 . S
Mg79 O78 2.072 1_455 S
Mg79 O80 2.099 . S
Mg79 O82 2.079 1_545 S
Mg79 O83 2.072 1_455 S
Mg79 O85 2.099 1_445 S
Mg79 O96 2.079 1_545 S
O80 Mg77 2.180 . S
O80 Mg79 2.099 . S
O80 C91 1.279 . S
O81 Mg77 2.117 . S
O81 C91 1.250 . S
O82 Mg79 2.079 1_565 S
O82 C92 1.264 . S
O83 Mg79 2.072 1_655 S
O83 C93 1.260 . S
Mg84 O85 2.180 . S
Mg84 O86 2.030 1_655 S
Mg84 O87 1.990 1_565 S
Mg84 O88 2.117 . S
O85 Mg79 2.099 1_665 S
O85 Mg84 2.180 . S
O85 C94 1.279 . S
O86 Mg84 2.030 1_455 S
O86 C92 1.248 . S
O87 Mg84 1.990 1_545 S
O87 C93 1.253 . S
O88 Mg84 2.117 . S
O88 C94 1.250 . S
C89 O95 1.248 1_565 S
C89 O96 1.264 . S
C90 O76 1.253 1_655 S
C90 O78 1.260 . S
C91 O80 1.279 . S
C91 O81 1.250 . S
C92 O82 1.264 . S
C92 O86 1.248 . S
C93 O83 1.260 . S
C93 O87 1.253 . S
C94 O85 1.279 . S
C94 O88 1.250 . S
O95 Mg77 2.030 . S
O95 C89 1.248 1_545 S
O96 Mg79 2.079 1_565 S
O96 C89 1.264 . S
O97 Mg98 1.990 . S
O97 C111 1.253 . S
Mg98 O97 1.990 . S
Mg98 O101 2.180 . S
Mg98 O102 2.117 . S
Mg98 O116 2.030 . S
O99 Mg100 2.072 . S
O99 C111 1.260 . S
Mg100 O99 2.072 . S
Mg100 O101 2.099 . S
Mg100 O103 2.079 1_554 S
Mg100 O104 2.072 1_554 S
Mg100 O106 2.099 . S
Mg100 O117 2.079 . S
O101 Mg98 2.180 . S
O101 Mg100 2.099 . S
O101 C112 1.279 . S
O102 Mg98 2.117 . S
O102 C112 1.250 . S
O103 Mg100 2.079 1_556 S
O103 C113 1.264 . S
O104 Mg100 2.072 1_556 S
O104 C114 1.260 . S
Mg105 O106 2.180 1_556 S
Mg105 O107 2.030 . S
Mg105 O108 1.990 . S
Mg105 O109 2.117 . S
O106 Mg100 2.099 . S
O106 Mg105 2.180 1_554 S
O106 C115 1.279 . S
O107 Mg105 2.030 . S
O107 C113 1.248 . S
O108 Mg105 1.990 . S
O108 C114 1.253 . S
O109 Mg105 2.117 . S
O109 C115 1.250 1_556 S
C110 O116 1.248 . S
C110 O117 1.264 . S
C111 O97 1.253 . S
C111 O99 1.260 . S
C112 O101 1.279 . S
C112 O102 1.250 . S
C113 O103 1.264 . S
C113 O107 1.248 . S
C114 O104 1.260 . S
C114 O108 1.253 . S
C115 O106 1.279 . S
C115 O109 1.250 1_554 S
O116 Mg98 2.030 . S
O116 C110 1.248 . S
O117 Mg100 2.079 . S
O117 C110 1.264 . S
H118 C124 0.930 . S
H119 C128 0.930 . S
H120 C133 0.929 . S
H121 C131 0.929 . S
H122 C126 0.929 . S
H123 C132 0.929 . S
C124 H118 0.930 . S
C124 C125 1.367 . S
C124 C132 1.378 . S
C125 C124 1.367 . S
C125 C133 1.433 . S
C126 H122 0.929 . S
C126 C128 1.378 . S
C126 C130 1.350 . S
C127 C130 1.463 . S
C127 C132 1.350 . S
C127 N135 1.427 . S
C128 H119 0.930 . S
C128 C126 1.378 . S
C128 C129 1.367 . S
C129 C128 1.367 . S
C129 C131 1.433 . S
C130 C126 1.350 . S
C130 C127 1.463 . S
C130 N134 1.427 . S
C131 H121 0.929 . S
C131 C129 1.433 . S
C131 N134 1.384 . S
C132 H123 0.929 . S
C132 C124 1.378 . S
C132 C127 1.350 . S
C133 H120 0.929 . S
C133 C125 1.433 . S
C133 N135 1.384 . S
N134 C130 1.427 . S
N134 C131 1.384 . S
N135 C127 1.427 . S
N135 C133 1.384 . S
H136 C142 0.930 . S
H137 C146 0.930 1_556 S
H138 C151 0.929 . S
H139 C149 0.929 . S
H140 C144 0.929 1_556 S
H141 C150 0.929 . S
C142 H136 0.930 . S
C142 C143 1.367 . S
C142 C150 1.378 . S
C143 C142 1.367 . S
C143 C151 1.433 . S
C144 H140 0.929 1_554 S
C144 C146 1.378 . S
C144 C148 1.350 . S
C145 C148 1.463 . S
C145 C150 1.350 . S
C145 N153 1.427 . S
C146 H137 0.930 1_554 S
C146 C144 1.378 . S
C146 C147 1.367 . S
C147 C146 1.367 . S
C147 C149 1.433 . S
C148 C144 1.350 . S
C148 C145 1.463 . S
C148 N152 1.427 . S
C149 H139 0.929 . S
C149 C147 1.433 . S
C149 N152 1.384 . S
C150 H141 0.929 . S
C150 C142 1.378 . S
C150 C145 1.350 . S
C151 H138 0.929 . S
C151 C143 1.433 . S
C151 N153 1.384 . S
N152 C148 1.427 . S
N152 C149 1.384 . S
N153 C145 1.427 . S
N153 C151 1.384 . S
H154 C160 0.930 . S
H155 C164 0.930 . S
H156 C169 0.929 . S
H157 C167 0.929 . S
H158 C162 0.929 . S
H159 C168 0.929 . S
C160 H154 0.930 . S
C160 C161 1.367 . S
C160 C168 1.378 . S
C161 C160 1.367 . S
C161 C169 1.433 . S
C162 H158 0.929 . S
C162 C164 1.378 . S
C162 C166 1.350 . S
C163 C166 1.463 . S
C163 C168 1.350 . S
C163 N171 1.427 . S
C164 H155 0.930 . S
C164 C162 1.378 . S
C164 C165 1.367 . S
C165 C164 1.367 . S
C165 C167 1.433 . S
C166 C162 1.350 . S
C166 C163 1.463 . S
C166 N170 1.427 . S
C167 H157 0.929 . S
C167 C165 1.433 . S
C167 N170 1.384 . S
C168 H159 0.929 . S
C168 C160 1.378 . S
C168 C163 1.350 . S
C169 H156 0.929 . S
C169 C161 1.433 . S
C169 N171 1.384 . S
N170 C166 1.427 . S
N170 C167 1.384 . S
N171 C163 1.427 . S
N171 C169 1.384 . S
H172 C178 0.930 . S
H173 C182 0.930 . S
H174 C187 0.929 . S
H175 C185 0.929 . S
H176 C180 0.929 . S
H177 C186 0.929 . S
C178 H172 0.930 . S
C178 C179 1.367 1_556 S
C178 C186 1.378 . S
C179 C178 1.367 1_554 S
C179 C187 1.433 . S
C180 H176 0.929 . S
C180 C182 1.378 . S
C180 C184 1.350 . S
C181 C184 1.463 . S
C181 C186 1.350 1_554 S
C181 N189 1.427 . S
C182 H173 0.930 . S
C182 C180 1.378 . S
C182 C183 1.367 . S
C183 C182 1.367 . S
C183 C185 1.433 1_554 S
C184 C180 1.350 . S
C184 C181 1.463 . S
C184 N188 1.427 1_554 S
C185 H175 0.929 . S
C185 C183 1.433 1_556 S
C185 N188 1.384 . S
C186 H177 0.929 . S
C186 C178 1.378 . S
C186 C181 1.350 1_556 S
C187 H174 0.929 . S
C187 C179 1.433 . S
C187 N189 1.384 . S
N188 C184 1.427 1_556 S
N188 C185 1.384 . S
N189 C181 1.427 . S
N189 C187 1.384 . S
H190 C196 0.930 . S
H191 C200 0.930 . S
H192 C205 0.929 . S
H193 C203 0.929 1_545 S
H194 C198 0.929 . S
H195 C204 0.929 . S
C196 H190 0.930 . S
C196 C197 1.367 . S
C196 C204 1.378 . S
C197 C196 1.367 . S
C197 C205 1.433 . S
C198 H194 0.929 . S
C198 C200 1.378 . S
C198 C202 1.350 . S
C199 C202 1.463 . S
C199 C204 1.350 . S
C199 N207 1.427 . S
C200 H191 0.930 . S
C200 C198 1.378 . S
C200 C201 1.367 . S
C201 C200 1.367 . S
C201 C203 1.433 . S
C202 C198 1.350 . S
C202 C199 1.463 . S
C202 N206 1.427 . S
C203 H193 0.929 1_565 S
C203 C201 1.433 . S
C203 N206 1.384 . S
C204 H195 0.929 . S
C204 C196 1.378 . S
C204 C199 1.350 . S
C205 H192 0.929 . S
C205 C197 1.433 . S
C205 N207 1.384 . S
N206 C202 1.427 . S
N206 C203 1.384 . S
N207 C199 1.427 . S
N207 C205 1.384 . S
H208 C214 0.930 . S
H209 C218 0.930 . S
H210 C223 0.929 . S
H211 C221 0.929 . S
H212 C216 0.929 . S
H213 C222 0.929 . S
C214 H208 0.930 . S
C214 C215 1.367 . S
C214 C222 1.378 . S
C215 C214 1.367 . S
C215 C223 1.433 . S
C216 H212 0.929 . S
C216 C218 1.378 . S
C216 C220 1.350 . S
C217 C220 1.463 . S
C217 C222 1.350 . S
C217 N225 1.427 . S
C218 H209 0.930 . S
C218 C216 1.378 . S
C218 C219 1.367 . S
C219 C218 1.367 . S
C219 C221 1.433 . S
C220 C216 1.350 . S
C220 C217 1.463 . S
C220 N224 1.427 . S
C221 H211 0.929 . S
C221 C219 1.433 . S
C221 N224 1.384 . S
C222 H213 0.929 . S
C222 C214 1.378 . S
C222 C217 1.350 . S
C223 H210 0.929 . S
C223 C215 1.433 . S
C223 N225 1.384 . S
N224 C220 1.427 . S
N224 C221 1.384 . S
N225 C217 1.427 . S
N225 C223 1.384 . S
H226 C232 0.930 . S
H227 C236 0.930 . S
H228 C241 0.929 . S
H229 C239 0.929 . S
H230 C234 0.929 . S
H231 C240 0.929 . S
C232 H226 0.930 . S
C232 C233 1.367 . S
C232 C240 1.378 . S
C233 C232 1.367 . S
C233 C241 1.433 . S
C234 H230 0.929 . S
C234 C236 1.378 . S
C234 C238 1.350 . S
C235 C238 1.463 . S
C235 C240 1.350 . S
C235 N243 1.427 . S
C236 H227 0.930 . S
C236 C234 1.378 . S
C236 C237 1.367 . S
C237 C236 1.367 . S
C237 C239 1.433 . S
C238 C234 1.350 . S
C238 C235 1.463 . S
C238 N242 1.427 . S
C239 H229 0.929 . S
C239 C237 1.433 . S
C239 N242 1.384 . S
C240 H231 0.929 . S
C240 C232 1.378 . S
C240 C235 1.350 . S
C241 H228 0.929 . S
C241 C233 1.433 . S
C241 N243 1.384 . S
N242 C238 1.427 . S
N242 C239 1.384 . S
N243 C235 1.427 . S
N243 C241 1.384 . S
H244 C250 0.930 . S
H245 C254 0.930 . S
H246 C259 0.929 . S
H247 C257 0.929 . S
H248 C252 0.929 . S
H249 C258 0.929 . S
C250 H244 0.930 . S
C250 C251 1.367 . S
C250 C258 1.378 . S
C251 C250 1.367 . S
C251 C259 1.433 . S
C252 H248 0.929 . S
C252 C254 1.378 . S
C252 C256 1.350 . S
C253 C256 1.463 . S
C253 C258 1.350 . S
C253 N261 1.427 . S
C254 H245 0.930 . S
C254 C252 1.378 . S
C254 C255 1.367 . S
C255 C254 1.367 . S
C255 C257 1.433 . S
C256 C252 1.350 . S
C256 C253 1.463 . S
C256 N260 1.427 . S
C257 H247 0.929 . S
C257 C255 1.433 . S
C257 N260 1.384 . S
C258 H249 0.929 . S
C258 C250 1.378 . S
C258 C253 1.350 . S
C259 H246 0.929 . S
C259 C251 1.433 . S
C259 N261 1.384 . S
N260 C256 1.427 . S
N260 C257 1.384 . S
N261 C253 1.427 . S
N261 C259 1.384 . S
H262 C268 0.930 . S
H263 C272 0.930 . S
H264 C277 0.929 . S
H265 C275 0.929 . S
H266 C270 0.929 . S
H267 C276 0.929 . S
C268 H262 0.930 . S
C268 C269 1.367 . S
C268 C276 1.378 . S
C269 C268 1.367 . S
C269 C277 1.433 . S
C270 H266 0.929 . S
C270 C272 1.378 . S
C270 C274 1.350 . S
C271 C274 1.463 . S
C271 C276 1.350 . S
C271 N279 1.427 . S
C272 H263 0.930 . S
C272 C270 1.378 . S
C272 C273 1.367 . S
C273 C272 1.367 . S
C273 C275 1.433 . S
C274 C270 1.350 . S
C274 C271 1.463 . S
C274 N278 1.427 . S
C275 H265 0.929 . S
C275 C273 1.433 . S
C275 N278 1.384 . S
C276 H267 0.929 . S
C276 C268 1.378 . S
C276 C271 1.350 . S
C277 H264 0.929 . S
C277 C269 1.433 . S
C277 N279 1.384 . S
N278 C274 1.427 . S
N278 C275 1.384 . S
N279 C271 1.427 . S
N279 C277 1.384 . S
H280 C286 0.930 . S
H281 C290 0.930 . S
H282 C295 0.929 . S
H283 C293 0.929 . S
H284 C288 0.929 . S
H285 C294 0.929 . S
C286 H280 0.930 . S
C286 C287 1.367 . S
C286 C294 1.378 . S
C287 C286 1.367 . S
C287 C295 1.433 . S
C288 H284 0.929 . S
C288 C290 1.378 . S
C288 C292 1.350 . S
C289 C292 1.463 . S
C289 C294 1.350 . S
C289 N297 1.427 . S
C290 H281 0.930 . S
C290 C288 1.378 . S
C290 C291 1.367 . S
C291 C290 1.367 . S
C291 C293 1.433 . S
C292 C288 1.350 . S
C292 C289 1.463 . S
C292 N296 1.427 . S
C293 H283 0.929 . S
C293 C291 1.433 . S
C293 N296 1.384 . S
C294 H285 0.929 . S
C294 C286 1.378 . S
C294 C289 1.350 . S
C295 H282 0.929 . S
C295 C287 1.433 . S
C295 N297 1.384 . S
N296 C292 1.427 . S
N296 C293 1.384 . S
N297 C289 1.427 . S
N297 C295 1.384 . S
H298 C304 0.930 . S
H299 C308 0.930 . S
H300 C313 0.929 . S
H301 C311 0.929 . S
H302 C306 0.929 . S
H303 C312 0.929 . S
C304 H298 0.930 . S
C304 C305 1.367 . S
C304 C312 1.378 . S
C305 C304 1.367 . S
C305 C313 1.433 . S
C306 H302 0.929 . S
C306 C308 1.378 . S
C306 C310 1.350 . S
C307 C310 1.463 . S
C307 C312 1.350 . S
C307 N315 1.427 . S
C308 H299 0.930 . S
C308 C306 1.378 . S
C308 C309 1.367 . S
C309 C308 1.367 . S
C309 C311 1.433 . S
C310 C306 1.350 . S
C310 C307 1.463 . S
C310 N314 1.427 . S
C311 H301 0.929 . S
C311 C309 1.433 . S
C311 N314 1.384 . S
C312 H303 0.929 . S
C312 C304 1.378 . S
C312 C307 1.350 . S
C313 H300 0.929 . S
C313 C305 1.433 . S
C313 N315 1.384 . S
N314 C310 1.427 . S
N314 C311 1.384 . S
N315 C307 1.427 . S
N315 C313 1.384 . S
H316 C322 0.930 . S
H317 C326 0.930 1_545 S
H318 C331 0.929 . S
H319 C329 0.929 . S
H320 C324 0.929 . S
H321 C330 0.929 . S
C322 H316 0.930 . S
C322 C323 1.367 . S
C322 C330 1.378 . S
C323 C322 1.367 . S
C323 C331 1.433 . S
C324 H320 0.929 . S
C324 C326 1.378 . S
C324 C328 1.350 . S
C325 C328 1.463 . S
C325 C330 1.350 . S
C325 N333 1.427 . S
C326 H317 0.930 1_565 S
C326 C324 1.378 . S
C326 C327 1.367 . S
C327 C326 1.367 . S
C327 C329 1.433 . S
C328 C324 1.350 . S
C328 C325 1.463 . S
C328 N332 1.427 . S
C329 H319 0.929 . S
C329 C327 1.433 . S
C329 N332 1.384 . S
C330 H321 0.929 . S
C330 C322 1.378 . S
C330 C325 1.350 . S
C331 H318 0.929 . S
C331 C323 1.433 . S
C331 N333 1.384 . S
N332 C328 1.427 . S
N332 C329 1.384 . S
N333 C325 1.427 . S
N333 C331 1.384 . S
C129 C91 1.305 . S
C125 C68 1.403 . S
C143 C11 1.386 . S
C147 C115 1.329 . S
C161 C30 1.534 . S
C165 C94 1.436 . S
C179 C49 1.521 1_554 S
C183 C112 1.403 . S
C201 C92 1.556 . S
C197 C2 1.549 . S
C219 C114 1.595 . S
C215 C25 1.669 . S
C233 C40 1.638 . S
C237 C93 1.602 . S
C251 C59 1.548 . S
C255 C113 1.506 . S
C273 C111 1.502 . S
C269 C21 1.537 . S
C291 C90 1.498 . S
C287 C44 1.563 . S
C309 C110 1.452 . S
C305 C63 1.483 . S
C323 C6 1.490 1_556 S
C327 C89 1.428 . S
