# Generated by pormake.
# Topology anh, (6,3)-cn, num edge types: 1
# Building blocks:
#     Node 0, Type 0, BuildingBlock: NUHQIS_clean_sbu_0, # of connection points: 6
#     Node 1, Type 0, BuildingBlock: NUHQIS_clean_sbu_0, # of connection points: 6
#     Node 2, Type 0, BuildingBlock: NUHQIS_clean_sbu_0, # of connection points: 6
#     Node 3, Type 1, BuildingBlock: VETTIZ_charged_linker_0, # of connection points: 3
#     Node 4, Type 1, BuildingBlock: VETTIZ_charged_linker_0, # of connection points: 3
#     Node 5, Type 1, BuildingBlock: VETTIZ_charged_linker_0, # of connection points: 3
#     Node 6, Type 1, BuildingBlock: VETTIZ_charged_linker_0, # of connection points: 3
#     Node 7, Type 1, BuildingBlock: VETTIZ_charged_linker_0, # of connection points: 3
#     Node 8, Type 1, BuildingBlock: VETTIZ_charged_linker_0, # of connection points: 3
#     Edge 9, Type (0, 1), BuildingBlock: KIFKEQ_clean_linker_1, # of connection points: 2
#     Edge 10, Type (0, 1), BuildingBlock: KIFKEQ_clean_linker_1, # of connection points: 2
#     Edge 11, Type (0, 1), BuildingBlock: KIFKEQ_clean_linker_1, # of connection points: 2
#     Edge 12, Type (0, 1), BuildingBlock: KIFKEQ_clean_linker_1, # of connection points: 2
#     Edge 13, Type (0, 1), BuildingBlock: KIFKEQ_clean_linker_1, # of connection points: 2
#     Edge 14, Type (0, 1), BuildingBlock: KIFKEQ_clean_linker_1, # of connection points: 2
#     Edge 15, Type (0, 1), BuildingBlock: KIFKEQ_clean_linker_1, # of connection points: 2
#     Edge 16, Type (0, 1), BuildingBlock: KIFKEQ_clean_linker_1, # of connection points: 2
#     Edge 17, Type (0, 1), BuildingBlock: KIFKEQ_clean_linker_1, # of connection points: 2
#     Edge 18, Type (0, 1), BuildingBlock: KIFKEQ_clean_linker_1, # of connection points: 2
#     Edge 19, Type (0, 1), BuildingBlock: KIFKEQ_clean_linker_1, # of connection points: 2
#     Edge 20, Type (0, 1), BuildingBlock: KIFKEQ_clean_linker_1, # of connection points: 2
#     Edge 21, Type (0, 1), BuildingBlock: KIFKEQ_clean_linker_1, # of connection points: 2
#     Edge 22, Type (0, 1), BuildingBlock: KIFKEQ_clean_linker_1, # of connection points: 2
#     Edge 23, Type (0, 1), BuildingBlock: KIFKEQ_clean_linker_1, # of connection points: 2
#     Edge 24, Type (0, 1), BuildingBlock: KIFKEQ_clean_linker_1, # of connection points: 2
#     Edge 25, Type (0, 1), BuildingBlock: KIFKEQ_clean_linker_1, # of connection points: 2
#     Edge 26, Type (0, 1), BuildingBlock: KIFKEQ_clean_linker_1, # of connection points: 2
# Relax obj value: 0.239
# Max RMSD: 0.190
# Mean RMSD: 0.157
data_MOF--net-anh--node1-NUHQIS_clean_sbu_0--node2-VETTIZ_charged_linker_0--edge1-KIFKEQ_clean_linker_1
_symmetry_space_group_name_H-M    P1
_symmetry_Int_Tables_number       1
_symmetry_cell_setting            triclinic
loop_
_symmetry_equiv_pos_as_xyz
'x, y, z'
_cell_length_a     36.708318
_cell_length_b     36.728573
_cell_length_c     67.663752
_cell_angle_alpha  90.35009
_cell_angle_beta   92.523102
_cell_angle_gamma 120.35566
loop_
_atom_site_label
_atom_site_type_symbol
_atom_site_fract_x
_atom_site_fract_y
_atom_site_fract_z
_atom_type_partial_charge
Tb0 Tb 0.15 0.59677 0.16618 0.0
Eu1 Eu 0.10209 0.64897 0.16034 0.0
C2 C 0.12341 0.62791 0.20209 0.0
C3 C 1.049 0.54524 0.16358 0.0
C4 C 0.23316 0.56821 0.17411 0.0
C5 C 0.2832 0.5439 0.1768 0.0
C6 C 0.24167 0.53544 0.17647 0.0
C7 C 0.26648 0.60971 0.17222 0.0
C8 C 0.30815 0.6183 0.17266 0.0
C9 C 0.31692 0.58541 0.17491 0.0
C10 C 0.18957 0.55887 0.17455 0.0
O11 O 0.15899 0.61323 0.1351 0.0
O12 O 0.10473 0.62638 0.12975 0.0
O13 O 0.17053 0.69997 0.1562 0.0
O14 O 0.20152 0.66425 0.16984 0.0
C15 C 0.13341 0.61895 0.12303 0.0
O16 O 1.06284 0.66743 0.14285 0.0
O17 O 1.07904 0.68747 0.17357 0.0
O18 O 0.12862 0.65967 0.19164 0.0
O19 O 0.11883 0.59418 0.19313 0.0
O20 O 1.08391 0.54529 0.15946 0.0
O21 O 1.05058 0.58143 0.16726 0.0
C22 C 0.20455 0.69967 0.16324 0.0
O23 O 0.18352 0.58196 0.18716 0.0
O24 O 0.16963 0.55454 0.15748 0.0
C25 C 1.00719 0.65539 0.16259 0.0
C26 C 0.92603 0.58386 0.16453 0.0
C27 C 0.93646 0.6097 0.14799 0.0
C28 C 0.97677 0.64517 0.14702 0.0
C29 C 0.99483 0.63282 0.18016 0.0
C30 C 0.9546 0.59742 0.18112 0.0
C31 C 1.05249 0.68013 0.15856 0.0
H32 H 0.28873 0.51767 0.17804 0.0
H33 H 0.21618 0.50327 0.17798 0.0
H34 H 0.26024 0.63538 0.17047 0.0
H35 H 0.33342 0.65057 0.17122 0.0
H36 H 0.9145 0.60086 0.13521 0.0
H37 H 0.98537 0.66212 0.13337 0.0
H38 H 1.0174 0.63981 0.19252 0.0
H39 H 0.94761 0.57847 0.19414 0.0
Tb40 Tb 0.68115 0.12995 0.49994 0.0
Eu41 Eu 0.58057 0.07967 0.49349 0.0
C42 C 0.62553 0.0996 0.5359 0.0
C43 C 0.63312 1.02855 0.49843 0.0
C44 C 0.77847 0.22553 0.50131 0.0
C45 C 0.79507 0.29442 0.51438 0.0
C46 C 0.79122 0.25498 0.51722 0.0
C47 C 0.77389 0.23797 0.48218 0.0
C48 C 0.77792 0.27737 0.47935 0.0
C49 C 0.78659 0.30521 0.49553 0.0
C50 C 0.7587 0.18016 0.50546 0.0
O51 O 0.66956 0.13872 0.46874 0.0
O52 O 0.60403 0.08077 0.46344 0.0
O53 O 0.59743 0.14798 0.48803 0.0
O54 O 0.66239 0.17837 0.50446 0.0
C55 C 0.63872 0.11131 0.45663 0.0
O56 O 0.52196 1.03779 0.47618 0.0
O57 O 0.51935 1.05904 0.50564 0.0
O58 O 0.59761 0.10338 0.52495 0.0
O59 O 0.65698 0.09932 0.5277 0.0
O60 O 0.66841 1.06437 0.49517 0.0
O61 O 0.59768 1.02882 0.50098 0.0
C62 C 0.63071 0.18175 0.49637 0.0
O63 O 0.73253 0.16843 0.51965 0.0
O64 O 0.74266 0.15369 0.49022 0.0
C65 C 0.47261 0.9877 0.49668 0.0
C66 C 0.42781 0.90133 0.50483 0.0
C67 C 0.41501 0.91685 0.48863 0.0
C68 C 0.43723 0.95975 0.48461 0.0
C69 C 0.48528 0.97232 0.51299 0.0
C70 C 0.46279 0.92949 0.51714 0.0
C71 C 0.49863 1.03183 0.49114 0.0
H72 H 0.80212 0.31532 0.52713 0.0
H73 H 0.79465 0.24614 0.53214 0.0
H74 H 0.76411 0.21623 0.46954 0.0
H75 H 0.77269 0.28539 0.46452 0.0
H76 H 0.38774 0.89575 0.47907 0.0
H77 H 0.42732 0.97096 0.47186 0.0
H78 H 0.51307 0.99326 0.52231 0.0
H79 H 0.4733 0.91822 0.52965 0.0
Tb80 Tb 0.6585 0.64209 0.83153 0.0
Eu81 Eu 0.60609 0.54119 0.82344 0.0
C82 C 0.64433 0.58067 0.86697 0.0
C83 C 0.71294 0.59638 0.82908 0.0
C84 C 0.6585 0.73855 0.83128 0.0
C85 C 0.60179 0.74898 0.84187 0.0
C86 C 0.63787 0.74628 0.84638 0.0
C87 C 0.64539 0.73884 0.81146 0.0
C88 C 0.60942 0.74152 0.80697 0.0
C89 C 0.58593 0.7442 0.82216 0.0
C90 C 0.68465 0.71932 0.83618 0.0
O91 O 0.65964 0.63239 0.79966 0.0
O92 O 0.59836 0.56948 0.79547 0.0
O93 O 0.55137 0.55268 0.82786 0.0
O94 O 0.59061 0.62482 0.83145 0.0
C95 C 0.62843 0.6038 0.78812 0.0
O96 O 0.59826 0.48912 0.80454 0.0
O97 O 0.55995 0.47638 0.82996 0.0
O98 O 0.61546 0.54837 0.85625 0.0
O99 O 0.66703 0.61828 0.85972 0.0
O100 O 0.7128 0.63182 0.83254 0.0
O101 O 0.67699 0.56047 0.82486 0.0
C102 C 0.55345 0.58928 0.83051 0.0
O103 O 0.67116 0.69298 0.85057 0.0
O104 O 0.69459 0.70379 0.82132 0.0
C105 C 0.58525 0.43049 0.82306 0.0
C106 C 0.61419 0.37573 0.8346 0.0
C107 C 0.59385 0.37077 0.81583 0.0
C108 C 0.57944 0.39793 0.81013 0.0
C109 C 0.6056 0.43563 0.84184 0.0
C110 C 0.61962 0.40814 0.84764 0.0
C111 C 0.57262 0.46059 0.81637 0.0
H112 H 0.58458 0.7515 0.85389 0.0
H113 H 0.64731 0.74637 0.86179 0.0
H114 H 0.66074 0.73351 0.79938 0.0
H115 H 0.59877 0.73933 0.79159 0.0
H116 H 0.58872 0.34557 0.80562 0.0
H117 H 0.56413 0.39377 0.79556 0.0
H118 H 0.61102 0.46111 0.85194 0.0
H119 H 0.63528 0.4126 0.86215 0.0
C120 C 0.73678 0.23162 0.18003 0.0
C121 C 0.77223 0.26733 0.19019 0.0
C122 C 0.77492 0.26687 0.21096 0.0
C123 C 0.70921 0.19931 0.2116 0.0
C124 C 0.70526 0.19777 0.19116 0.0
C125 C 0.66419 0.15701 0.18402 0.0
H126 H 0.48559 0.97281 0.21446 0.0
C127 C 0.67243 0.16135 0.21948 0.0
C128 C 0.64496 0.13536 0.20352 0.0
H129 H 0.51101 1.0045 0.15345 0.0
H130 H 0.57652 0.07067 0.16417 0.0
H131 H 0.57639 0.996 0.22836 0.0
H132 H 0.50669 1.06062 0.22909 0.0
H133 H 0.53732 0.0765 0.25141 0.0
H134 H 0.49928 1.02127 0.24656 0.0
H135 H 0.53642 0.98461 0.24554 0.0
H136 H 0.59118 1.02372 0.25119 0.0
C137 C 0.67538 0.12955 0.17134 0.0
C138 C 0.6348 0.16881 0.17248 0.0
C139 C 0.66539 0.14976 0.29476 0.0
C140 C 0.63511 0.11989 0.30703 0.0
C141 C 0.59954 0.08408 0.29808 0.0
C142 C 0.59368 0.07837 0.27749 0.0
C143 C 0.62361 0.10878 0.26535 0.0
C144 C 0.65879 0.14361 0.27403 0.0
C145 C 0.68684 0.17273 0.25875 0.0
C146 C 0.66256 0.14971 0.23945 0.0
C147 C 0.62572 0.11232 0.24347 0.0
C148 C 0.73005 0.17466 0.26121 0.0
C149 C 0.68891 0.21576 0.26161 0.0
C150 C 0.50501 0.99308 0.2031 0.0
C151 C 0.49248 0.9819 0.18303 0.0
C152 C 0.5192 1.0114 0.16912 0.0
C153 C 0.55739 1.04981 0.17532 0.0
C154 C 0.56936 1.05964 0.19571 0.0
C155 C 0.5424 1.03083 0.20893 0.0
C156 C 0.55726 1.04429 0.22996 0.0
C157 C 0.59789 0.08563 0.22776 0.0
C158 C 0.60637 0.09605 0.20767 0.0
C159 C 0.56554 1.01049 0.23944 0.0
C160 C 0.5235 1.0508 0.23994 0.0
H161 H 0.74945 0.23671 0.23724 0.0
H162 H 0.7333 0.23055 0.16403 0.0
H163 H 0.62884 0.19029 0.18165 0.0
H164 H 0.60388 0.14053 0.16832 0.0
H165 H 0.64928 0.18513 0.15874 0.0
H166 H 0.6981 0.12303 0.17972 0.0
H167 H 0.69014 0.14585 0.15763 0.0
H168 H 0.64699 0.09886 0.16703 0.0
H169 H 0.69304 0.17774 0.30111 0.0
H170 H 0.57609 1.06012 0.30709 0.0
H171 H 0.56578 1.05033 0.2719 0.0
H172 H 0.72615 0.14444 0.26669 0.0
H173 H 0.75197 0.20013 0.27199 0.0
H174 H 0.74554 0.17896 0.24706 0.0
H175 H 0.65914 0.21148 0.26742 0.0
H176 H 0.69202 0.23213 0.24758 0.0
H177 H 0.71524 0.23704 0.27227 0.0
H178 H 0.80127 0.29283 0.21929 0.0
C179 C 0.74435 0.23374 0.2215 0.0
C180 C 0.63405 0.71452 0.51171 0.0
C181 C 0.63348 0.74877 0.52201 0.0
C182 C 0.63521 0.74863 0.54277 0.0
C183 C 0.63654 0.6829 0.54317 0.0
C184 C 0.63544 0.6815 0.52273 0.0
C185 C 0.63525 0.64115 0.51558 0.0
H186 H 0.64013 0.46028 0.54682 0.0
C187 C 0.63722 0.64534 0.55099 0.0
C188 C 0.63668 0.61971 0.53507 0.0
H189 H 0.63425 0.48942 0.48559 0.0
H190 H 0.63373 0.5541 0.49594 0.0
H191 H 0.70803 0.55084 0.56161 0.0
H192 H 0.57267 0.47959 0.55994 0.0
H193 H 0.58758 0.50797 0.58258 0.0
H194 H 0.60487 0.47085 0.57775 0.0
H195 H 0.67928 0.50966 0.57847 0.0
H196 H 0.69452 0.56383 0.58402 0.0
C197 C 0.67462 0.6537 0.50388 0.0
C198 C 0.5943 0.61279 0.50302 0.0
C199 C 0.63739 0.6311 0.62605 0.0
C200 C 0.638 0.60092 0.63861 0.0
C201 C 0.64035 0.56714 0.62998 0.0
C202 C 0.6411 0.56295 0.60941 0.0
C203 C 0.63967 0.5929 0.59701 0.0
C204 C 0.6383 0.62642 0.60545 0.0
C205 C 0.63763 0.65551 0.5901 0.0
C206 C 0.6381 0.63357 0.57095 0.0
C207 C 0.63918 0.59694 0.57511 0.0
C208 C 0.67863 0.69912 0.59375 0.0
C209 C 0.59566 0.65581 0.59162 0.0
C210 C 0.63941 0.4803 0.53531 0.0
C211 C 0.63809 0.46893 0.51531 0.0
C212 C 0.63548 0.49655 0.50123 0.0
C213 C 0.63532 0.53426 0.5072 0.0
C214 C 0.63728 0.54493 0.52755 0.0
C215 C 0.639 0.51717 0.54092 0.0
C216 C 0.63999 0.53046 0.56187 0.0
C217 C 0.6389 0.57082 0.55947 0.0
C218 C 0.63745 0.58091 0.53932 0.0
C219 C 0.68236 0.53892 0.5722 0.0
C220 C 0.5995 0.49552 0.5712 0.0
H221 H 0.63767 0.71978 0.56891 0.0
H222 H 0.63263 0.71309 0.4957 0.0
H223 H 0.56625 0.6054 0.51152 0.0
H224 H 0.59197 0.58257 0.49867 0.0
H225 H 0.593 0.62879 0.48934 0.0
H226 H 0.7038 0.67527 0.51302 0.0
H227 H 0.67398 0.67018 0.49026 0.0
H228 H 0.6765 0.62563 0.49948 0.0
H229 H 0.63539 0.65741 0.63202 0.0
H230 H 0.64188 0.54385 0.63916 0.0
H231 H 0.64263 0.53627 0.60404 0.0
H232 H 0.70461 0.6959 0.60102 0.0
H233 H 0.67326 0.72027 0.60346 0.0
H234 H 0.69181 0.7152 0.57985 0.0
H235 H 0.5698 0.62474 0.59628 0.0
H236 H 0.58346 0.66083 0.57729 0.0
H237 H 0.59925 0.68009 0.60264 0.0
H238 H 0.63519 0.77378 0.55123 0.0
C239 C 0.63676 0.7167 0.55317 0.0
C240 C 0.24415 0.59573 0.84743 0.0
C241 C 0.28023 0.59767 0.8579 0.0
C242 C 0.28066 0.59848 0.87869 0.0
C243 C 0.21356 0.59728 0.87872 0.0
C244 C 0.21105 0.59586 0.85826 0.0
C245 C 0.17006 0.59498 0.85079 0.0
H246 H 0.99199 0.60306 0.88014 0.0
C247 C 0.17634 0.59807 0.88629 0.0
C248 C 0.14973 0.59687 0.87011 0.0
H249 H 1.01588 0.59139 0.81935 0.0
H250 H 1.08121 0.59118 0.83032 0.0
H251 H 1.011 0.53583 0.89542 0.0
H252 H 1.08299 0.6706 0.89365 0.0
H253 H 0.09843 0.65902 0.91648 0.0
H254 H 1.04371 0.6435 0.91131 0.0
H255 H 1.00427 0.56944 0.91235 0.0
H256 H 1.04122 0.55166 0.91786 0.0
C257 C 0.1413 0.55355 0.83893 0.0
C258 C 0.18141 0.63372 0.83829 0.0
C259 C 0.16838 0.60705 0.9615 0.0
C260 C 0.13981 0.6108 0.97344 0.0
C261 C 0.10473 0.61082 0.96414 0.0
C262 C 0.09834 0.60776 0.94353 0.0
C263 C 0.12733 0.6047 0.93169 0.0
C264 C 0.1616 0.60436 0.94072 0.0
C265 C 0.18944 0.60187 0.92569 0.0
C266 C 0.16602 0.60045 0.90616 0.0
C267 C 0.12969 0.60198 0.90986 0.0
C268 C 0.18972 0.56019 0.92883 0.0
C269 C 0.23346 0.64275 0.92826 0.0
C270 C 1.01098 0.60098 0.86887 0.0
C271 C 0.99808 0.59805 0.8488 0.0
C272 C 1.02433 0.5939 0.83503 0.0
C273 C 1.06239 0.59391 0.84137 0.0
C274 C 1.07464 0.59746 0.86178 0.0
C275 C 1.04803 0.60049 0.87484 0.0
C276 C 1.0627 0.60277 0.8959 0.0
C277 C 0.10263 0.60094 0.89395 0.0
C278 C 0.11129 0.59808 0.87393 0.0
C279 C 1.02813 0.56321 0.90608 0.0
C280 C 1.07224 0.64593 0.90499 0.0
H281 H 0.2519 0.59889 0.9047 0.0
H282 H 0.24224 0.59502 0.83142 0.0
H283 H 0.20338 0.66325 0.84694 0.0
H284 H 0.15286 0.63514 0.83366 0.0
H285 H 0.19706 0.63273 0.82477 0.0
H286 H 0.13487 0.52599 0.848 0.0
H287 H 0.15656 0.55198 0.82537 0.0
H288 H 0.11057 0.55061 0.83442 0.0
H289 H 0.19583 0.60717 0.96814 0.0
H290 H 1.0818 0.61293 0.97289 0.0
H291 H 1.07091 0.60807 0.9377 0.0
H292 H 0.15865 0.53485 0.9337 0.0
H293 H 0.21419 0.56451 0.94036 0.0
H294 H 0.1945 0.54704 0.9151 0.0
H295 H 0.23094 0.6696 0.9343 0.0
H296 H 0.24863 0.65409 0.91406 0.0
H297 H 0.25514 0.63827 0.93859 0.0
H298 H 0.30673 0.59939 0.8873 0.0
C299 C 0.24824 0.59816 0.88892 0.0
C300 C 0.93593 0.57958 0.46155 0.0
C301 C 0.90016 0.56936 0.44906 0.0
C302 C 0.90591 0.58017 0.429 0.0
C303 C 0.98031 0.60253 0.43353 0.0
C304 C 0.97528 0.59547 0.4535 0.0
C305 C 1.01465 0.60159 0.46437 0.0
H306 H 0.21816 0.65246 0.46222 0.0
C307 C 1.02358 0.61245 0.42947 0.0
C308 C 1.04375 0.61196 0.44751 0.0
H309 H 0.14325 0.62745 0.51338 0.0
H310 H 1.08174 0.60977 0.49204 0.0
H311 H 0.14226 0.57106 0.43435 0.0
H312 H 0.18829 0.70414 0.44071 0.0
H313 H 0.17671 0.69106 0.41532 0.0
H314 H 0.21663 0.68381 0.42811 0.0
H315 H 0.19174 0.61032 0.42526 0.0
H316 H 0.14283 0.58959 0.41045 0.0
C317 C 1.00465 0.55941 0.47393 0.0
C318 C 1.03033 0.63943 0.47926 0.0
C319 C 1.06907 0.62815 0.35867 0.0
C320 C 0.10648 0.63516 0.35037 0.0
C321 C 0.14077 0.64132 0.36306 0.0
C322 C 0.13758 0.63961 0.38361 0.0
C323 C 0.09972 0.63171 0.39164 0.0
C324 C 1.06642 0.62662 0.37925 0.0
C325 C 1.02857 0.61825 0.39046 0.0
C326 C 1.04466 0.61898 0.4116 0.0
C327 C 1.0862 0.62654 0.41214 0.0
C328 C 0.9914 0.57405 0.38376 0.0
C329 C 1.01986 0.65486 0.38692 0.0
C330 C 0.18823 0.64165 0.46888 0.0
C331 C 0.18567 0.6415 0.48958 0.0
C332 C 0.14614 0.62819 0.49751 0.0
C333 C 0.11059 0.61836 0.48508 0.0
C334 C 0.11458 0.62186 0.46449 0.0
C335 C 0.15259 0.63206 0.4567 0.0
C336 C 0.1514 0.63528 0.43456 0.0
C337 C 0.10682 0.62683 0.43042 0.0
C338 C 1.08549 0.61906 0.44798 0.0
C339 C 0.15764 0.60005 0.42553 0.0
C340 C 0.1851 0.68074 0.42922 0.0
H341 H 0.94791 0.60261 0.40563 0.0
H342 H 0.93292 0.57121 0.47695 0.0
H343 H 1.02455 0.66414 0.47301 0.0
H344 H 1.06476 0.65577 0.48275 0.0
H345 H 1.01357 0.62929 0.49323 0.0
H346 H 0.98085 0.53187 0.46455 0.0
H347 H 0.9917 0.5567 0.48872 0.0
H348 H 1.03234 0.55514 0.47537 0.0
H349 H 1.04197 0.62286 0.34935 0.0
H350 H 0.17023 0.64757 0.3571 0.0
H351 H 0.16474 0.64439 0.39242 0.0
H352 H 1.00281 0.55153 0.38144 0.0
H353 H 0.97579 0.57551 0.36959 0.0
H354 H 0.96734 0.55944 0.39485 0.0
H355 H 1.04993 0.68533 0.38569 0.0
H356 H 1.00434 0.66021 0.39932 0.0
H357 H 1.00027 0.64925 0.37301 0.0
H358 H 0.87899 0.57307 0.41909 0.0
C359 C 0.94587 0.59686 0.42118 0.0
C360 C 0.42591 0.86402 0.78416 0.0
C361 C 0.40742 0.82949 0.7705 0.0
C362 C 0.40546 0.83751 0.75021 0.0
C363 C 0.45071 0.91255 0.75727 0.0
C364 C 0.44776 0.90501 0.77726 0.0
C365 C 0.47526 0.94426 0.78982 0.0
H366 H 0.6263 0.14997 0.79587 0.0
C367 C 0.48313 0.95732 0.755 0.0
C368 C 0.49731 0.97602 0.77405 0.0
H369 H 0.55738 0.07016 0.84345 0.0
H370 H 0.51946 1.01092 0.82025 0.0
H371 H 0.63929 0.07793 0.77221 0.0
H372 H 0.55074 0.12183 0.76701 0.0
H373 H 0.56003 0.11248 0.74279 0.0
H374 H 0.60329 0.15179 0.75854 0.0
H375 H 0.65282 0.12848 0.76269 0.0
H376 H 0.62988 0.08162 0.74685 0.0
C377 C 0.50679 0.93716 0.80293 0.0
C378 C 0.44607 0.9546 0.80153 0.0
C379 C 0.53689 1.0108 0.68707 0.0
C380 C 0.56925 1.04977 0.68066 0.0
C381 C 0.59239 0.08311 0.69471 0.0
C382 C 0.58383 0.07766 0.71477 0.0
C383 C 0.5518 1.03841 0.72096 0.0
C384 C 0.52871 1.00587 0.70719 0.0
C385 C 0.49614 0.96627 0.71654 0.0
C386 C 0.50338 0.98056 0.73819 0.0
C387 C 0.53631 1.02269 0.74065 0.0
C388 C 0.50727 0.93148 0.71272 0.0
C389 C 0.45174 0.95538 0.70809 0.0
C390 C 0.60408 0.11941 0.80143 0.0
C391 C 0.59511 0.11457 0.82156 0.0
C392 C 0.56484 0.07458 0.82802 0.0
C393 C 0.54262 1.0404 0.81449 0.0
C394 C 0.55066 1.04631 0.79427 0.0
C395 C 0.58136 0.08518 0.7881 0.0
C396 C 0.58445 0.08626 0.76601 0.0
C397 C 0.54983 1.04184 0.75988 0.0
C398 C 0.53042 1.01859 0.77648 0.0
C399 C 0.62891 0.09426 0.76153 0.0
C400 C 0.57446 0.11996 0.75803 0.0
H401 H 0.42669 0.88295 0.72783 0.0
H402 H 0.4281 0.85957 0.79986 0.0
H403 H 0.41541 0.94395 0.79313 0.0
H404 H 0.45953 0.9889 0.80415 0.0
H405 H 0.43889 0.9387 0.81593 0.0
H406 H 0.51763 0.91844 0.79462 0.0
H407 H 0.49188 0.91969 0.81636 0.0
H408 H 0.53601 0.9667 0.80757 0.0
H409 H 0.51874 0.98442 0.6767 0.0
H410 H 0.61689 0.11369 0.69014 0.0
H411 H 0.60255 0.10428 0.72467 0.0
H412 H 0.54199 0.9446 0.71474 0.0
H413 H 0.49728 0.91814 0.69735 0.0
H414 H 0.49318 0.90542 0.72305 0.0
H415 H 0.4508 0.98453 0.70474 0.0
H416 H 0.42692 0.93884 0.71874 0.0
H417 H 0.44284 0.93593 0.69417 0.0
H418 H 0.39026 0.81163 0.73936 0.0
C419 C 0.42707 0.87893 0.74352 0.0
C420 C 0.62877 0.36541 0.12626 0.0
C421 C 0.66427 0.36272 0.12144 0.0
C422 C 0.6759 0.3689 0.10153 0.0
C423 C 0.62993 0.39717 0.0948 0.0
C424 C 0.61451 0.38588 0.11343 0.0
C425 C 0.59145 0.40785 0.11969 0.0
H426 H 0.55012 0.56519 0.10522 0.0
C427 C 0.61837 0.42783 0.08726 0.0
C428 C 0.59653 0.4348 0.10198 0.0
H429 H 0.51493 0.4806 0.15409 0.0
H430 H 0.54445 0.44256 0.13858 0.0
H431 H 0.64153 0.57582 0.09902 0.0
H432 H 0.51648 0.49539 0.07329 0.0
H433 H 0.54978 0.50065 0.05435 0.0
H434 H 0.55031 0.54684 0.06412 0.0
H435 H 0.61376 0.59341 0.0829 0.0
H436 H 0.64581 0.57381 0.0733 0.0
C437 C 0.61458 0.43508 0.13879 0.0
C438 C 0.54462 0.37399 0.12201 0.0
C439 C 0.66349 0.49271 0.01983 0.0
C440 C 0.65869 0.52379 0.0099 0.0
C441 C 0.63989 0.54374 0.01956 0.0
C442 C 0.62572 0.53286 0.03858 0.0
C443 C 0.63016 0.50153 0.04821 0.0
C444 C 0.64894 0.48206 0.03898 0.0
C445 C 0.65151 0.45007 0.05196 0.0
C446 C 0.62873 0.45195 0.06988 0.0
C447 C 0.61704 0.48263 0.06759 0.0
C448 C 0.69886 0.46548 0.05711 0.0
C449 C 0.62717 0.40634 0.04117 0.0
C450 C 0.54899 0.53864 0.11267 0.0
C451 C 0.53072 0.52622 0.131 0.0
C452 C 0.52971 0.49136 0.14015 0.0
C453 C 0.54648 0.46908 0.13103 0.0
C454 C 0.56492 0.48217 0.11272 0.0
C455 C 0.56539 0.51605 0.10377 0.0
C456 C 0.58384 0.52409 0.08385 0.0
C457 C 0.59591 0.49035 0.08261 0.0
C458 C 0.58513 0.46614 0.09959 0.0
C459 C 0.62318 0.56918 0.0846 0.0
C460 C 0.54861 0.51671 0.06801 0.0
H461 H 0.67049 0.39235 0.07363 0.0
H462 H 0.61732 0.3589 0.14103 0.0
H463 H 0.53335 0.34877 0.11024 0.0
H464 H 0.52319 0.38681 0.12041 0.0
H465 H 0.54043 0.35879 0.13654 0.0
H466 H 0.6492 0.44737 0.13884 0.0
H467 H 0.60265 0.41637 0.15226 0.0
H468 H 0.61228 0.46374 0.14022 0.0
H469 H 0.67809 0.47702 0.01286 0.0
H470 H 0.63484 0.56702 0.01216 0.0
H471 H 0.61154 0.54916 0.04494 0.0
H472 H 0.7196 0.49965 0.05438 0.0
H473 H 0.71009 0.44803 0.04813 0.0
H474 H 0.70506 0.46241 0.07301 0.0
H475 H 0.59564 0.39993 0.03526 0.0
H476 H 0.62123 0.38028 0.05104 0.0
H477 H 0.64477 0.40493 0.02852 0.0
H478 H 0.70207 0.36596 0.09677 0.0
C479 C 0.65836 0.38555 0.08811 0.0
H480 H 0.35538 0.55065 0.19681 0.0
H481 H 0.37681 0.6377 0.14997 0.0
H482 H 0.41815 0.54868 0.18858 0.0
H483 H 0.44104 0.63774 0.14256 0.0
H484 H 0.48059 0.55063 0.11171 0.0
H485 H 0.441 0.57969 0.12579 0.0
H486 H 0.49325 0.5789 0.18421 0.0
H487 H 0.53336 0.54943 0.16991 0.0
C488 C 0.37417 0.57026 0.18511 0.0
C489 C 0.36042 0.59321 0.1736 0.0
C490 C 0.41054 0.56965 0.1806 0.0
C491 C 0.43396 0.5923 0.1646 0.0
C492 C 0.42298 0.61919 0.15467 0.0
C493 C 0.38637 0.61946 0.15905 0.0
C494 C 0.48462 0.55767 0.12749 0.0
C495 C 0.50994 0.54759 0.13972 0.0
C496 C 0.46205 0.57461 0.13559 0.0
C497 C 0.46416 0.58185 0.15613 0.0
C498 C 0.49084 0.5734 0.16833 0.0
C499 C 0.51355 0.55636 0.16019 0.0
H500 H 0.72999 0.31642 0.47257 0.0
H501 H 0.84091 0.38339 0.51223 0.0
H502 H 0.73498 0.38317 0.46396 0.0
H503 H 0.84595 0.44976 0.50365 0.0
H504 H 0.86761 0.56626 0.48536 0.0
H505 H 0.81979 0.49996 0.50067 0.0
H506 H 0.78964 0.43534 0.44356 0.0
H507 H 0.83737 0.50058 0.42849 0.0
C508 C 0.75517 0.34536 0.47961 0.0
C509 C 0.78584 0.34483 0.49265 0.0
C510 C 0.75764 0.38346 0.47487 0.0
C511 C 0.79101 0.42179 0.48296 0.0
C512 C 0.81943 0.42081 0.49732 0.0
C513 C 0.81687 0.38272 0.50211 0.0
C514 C 0.84925 0.53818 0.47597 0.0
C515 C 0.85788 0.53826 0.4559 0.0
C516 C 0.8219 0.50023 0.48475 0.0
C517 C 0.80249 0.46221 0.47346 0.0
C518 C 0.80455 0.46395 0.45277 0.0
C519 C 0.83209 0.50175 0.44404 0.0
H520 H 0.5241 0.68714 0.79612 0.0
H521 H 0.55174 0.7884 0.83789 0.0
H522 H 0.45802 0.68356 0.7854 0.0
H523 H 0.48596 0.78504 0.82713 0.0
H524 H 0.37902 0.7892 0.80576 0.0
H525 H 0.40773 0.74879 0.82155 0.0
H526 H 0.45328 0.73631 0.76561 0.0
H527 H 0.42628 0.77715 0.75014 0.0
C528 C 0.51594 0.70853 0.80306 0.0
C529 C 0.54374 0.73907 0.81738 0.0
C530 C 0.47783 0.706 0.79712 0.0
C531 C 0.46687 0.73419 0.80526 0.0
C532 C 0.49309 0.76242 0.82071 0.0
C533 C 0.53113 0.76478 0.82673 0.0
C534 C 0.39377 0.77643 0.79668 0.0
C535 C 0.40249 0.78861 0.77695 0.0
C536 C 0.41018 0.75327 0.80575 0.0
C537 C 0.43441 0.74109 0.79502 0.0
C538 C 0.43533 0.74575 0.77443 0.0
C539 C 0.41949 0.76931 0.76545 0.0
H540 H 0.87219 0.54008 0.19387 0.0
H541 H 0.89669 0.52846 0.13294 0.0
H542 H 0.81139 0.46835 0.19149 0.0
H543 H 0.83518 0.45843 0.13024 0.0
H544 H 0.72726 0.34144 0.12153 0.0
H545 H 0.79636 0.38493 0.13862 0.0
H546 H 0.74395 0.44178 0.17527 0.0
H547 H 0.67653 0.39985 0.15867 0.0
C548 C 0.86469 0.52227 0.18 0.0
C549 C 0.88856 0.54054 0.16341 0.0
C550 C 0.82993 0.48113 0.17865 0.0
C551 C 0.81825 0.45748 0.16068 0.0
C552 C 0.8434 0.47521 0.14443 0.0
C553 C 0.87809 0.51606 0.1458 0.0
C554 C 0.73013 0.36229 0.13363 0.0
C555 C 0.69664 0.36917 0.13749 0.0
C556 C 0.7698 0.38715 0.14347 0.0
C557 C 0.77615 0.41871 0.15741 0.0
C558 C 0.74064 0.41865 0.16425 0.0
C559 C 0.70126 0.39405 0.15446 0.0
H560 H 0.40501 0.83618 0.47868 0.0
H561 H 0.39742 0.86413 0.53989 0.0
H562 H 0.35439 0.76217 0.48312 0.0
H563 H 0.34683 0.78936 0.54458 0.0
H564 H 0.20378 0.6974 0.52022 0.0
H565 H 0.27371 0.75313 0.53104 0.0
H566 H 0.32862 0.69341 0.49805 0.0
H567 H 0.25785 0.63693 0.48715 0.0
C568 C 0.39319 0.82614 0.49323 0.0
C569 C 0.40413 0.85581 0.5088 0.0
C570 C 0.36468 0.78358 0.49591 0.0
C571 C 0.34627 0.76987 0.51421 0.0
C572 C 0.36027 0.79907 0.53029 0.0
C573 C 0.38914 0.84177 0.52761 0.0
C574 C 0.23051 0.69471 0.51608 0.0
C575 C 0.22533 0.66355 0.50223 0.0
C576 C 0.27091 0.72689 0.52234 0.0
C577 C 0.30672 0.72843 0.51482 0.0
C578 C 0.30149 0.69357 0.50363 0.0
C579 C 0.261 0.66129 0.49737 0.0
H580 H 0.59997 0.33275 0.8689 0.0
H581 H 0.66019 0.3518 0.8135 0.0
H582 H 0.61042 0.27302 0.8752 0.0
H583 H 0.66975 0.29203 0.8194 0.0
H584 H 0.67625 0.18156 0.8255 0.0
H585 H 0.69635 0.25261 0.83726 0.0
H586 H 0.57093 0.20471 0.85802 0.0
H587 H 0.55129 0.13429 0.84657 0.0
C588 C 0.61652 0.32489 0.85837 0.0
C589 C 0.62841 0.34606 0.8405 0.0
C590 C 0.62242 0.2907 0.86194 0.0
C591 C 0.6404 0.27738 0.84771 0.0
C592 C 0.65608 0.30147 0.8308 0.0
C593 C 0.65006 0.33539 0.82722 0.0
C594 C 0.65361 0.18612 0.83328 0.0
C595 C 0.61188 0.15271 0.83463 0.0
C596 C 0.66508 0.22673 0.84 0.0
C597 C 0.63486 0.23449 0.84802 0.0
C598 C 0.59506 0.19997 0.85191 0.0
C599 C 0.58368 0.15939 0.84528 0.0
H600 H 0.56496 0.94713 0.50067 0.0
H601 H 0.70061 1.01323 0.49904 0.0
H602 H 0.56346 0.88037 0.50286 0.0
H603 H 0.69961 0.94634 0.50208 0.0
H604 H 0.68957 0.81574 0.49911 0.0
H605 H 0.68958 0.88136 0.49206 0.0
H606 H 0.57105 0.83238 0.52015 0.0
H607 H 0.57075 0.76725 0.52628 0.0
C608 C 0.59478 0.94771 0.50091 0.0
C609 C 0.63292 0.98664 0.49969 0.0
C610 C 0.59402 0.90877 0.50235 0.0
C611 C 0.63145 0.90634 0.50291 0.0
C612 C 0.66968 0.94545 0.50151 0.0
C613 C 0.67037 0.98448 0.49988 0.0
C614 C 0.66273 0.81838 0.50309 0.0
C615 C 0.62957 0.78489 0.51285 0.0
C616 C 0.66306 0.85683 0.49943 0.0
C617 C 0.63039 0.86384 0.50549 0.0
C618 C 0.59676 0.8295 0.51471 0.0
C619 C 0.59642 0.79135 0.51826 0.0
H620 H 0.72913 0.53053 0.82289 0.0
H621 H 0.79401 0.66334 0.83847 0.0
H622 H 0.79642 0.53149 0.82601 0.0
H623 H 0.86106 0.6646 0.84128 0.0
H624 H 0.97117 0.64902 0.86515 0.0
H625 H 0.90473 0.64781 0.85998 0.0
H626 H 0.8646 0.55012 0.81461 0.0
H627 H 0.93164 0.55072 0.82027 0.0
C628 C 0.75764 0.56015 0.82689 0.0
C629 C 0.7551 0.59684 0.83044 0.0
C630 C 0.79679 0.56078 0.82859 0.0
C631 C 0.83546 0.59808 0.83406 0.0
C632 C 0.83275 0.63477 0.8374 0.0
C633 C 0.79374 0.63416 0.83564 0.0
C634 C 0.94845 0.62711 0.85399 0.0
C635 C 0.95777 0.5998 0.84329 0.0
C636 C 0.90982 0.62668 0.85084 0.0
C637 C 0.87791 0.59883 0.8368 0.0
C638 C 0.88741 0.57189 0.82576 0.0
C639 C 0.9265 0.57256 0.82884 0.0
H640 H 0.22454 0.78116 0.15348 0.0
H641 H 0.28335 0.71267 0.17601 0.0
H642 H 0.29272 0.84698 0.1567 0.0
H643 H 0.35154 0.77786 0.17867 0.0
H644 H 0.46252 0.90519 0.20097 0.0
H645 H 0.39553 0.84011 0.19578 0.0
H646 H 0.36167 0.89433 0.14702 0.0
H647 H 0.42897 0.96096 0.15292 0.0
C648 C 0.25197 0.77982 0.159 0.0
C649 C 0.24747 0.74071 0.16452 0.0
C650 C 0.29166 0.81802 0.16075 0.0
C651 C 0.32893 0.81908 0.16812 0.0
C652 C 0.32432 0.77968 0.17333 0.0
C653 C 0.28469 0.7416 0.17163 0.0
C654 C 0.44099 0.90376 0.18912 0.0
C655 C 0.45202 0.9396 0.1776 0.0
C656 C 0.40208 0.86555 0.18593 0.0
C657 C 0.37177 0.86061 0.17091 0.0
C658 C 0.38313 0.89612 0.15898 0.0
C659 C 0.4224 0.93464 0.16219 0.0
H660 H 0.69519 0.25886 0.51196 0.0
H661 H 0.57052 0.20327 0.48359 0.0
H662 H 0.69861 0.32658 0.51466 0.0
H663 H 0.57327 0.27115 0.48666 0.0
H664 H 0.5963 0.40778 0.48428 0.0
H665 H 0.59518 0.34104 0.47866 0.0
H666 H 0.68104 0.37034 0.52975 0.0
H667 H 0.68345 0.43681 0.53468 0.0
C668 C 0.66817 0.26078 0.50631 0.0
C669 C 0.63247 0.22447 0.49759 0.0
C670 C 0.66996 0.30022 0.50801 0.0
C671 C 0.63612 0.30584 0.50108 0.0
C672 C 0.60054 0.2695 0.49209 0.0
C673 C 0.59877 0.2299 0.49041 0.0
C674 C 0.61547 0.40036 0.49417 0.0
C675 C 0.63961 0.42866 0.51014 0.0
C676 C 0.61444 0.3613 0.49109 0.0
C677 C 0.63777 0.34864 0.50374 0.0
C678 C 0.66269 0.3777 0.51933 0.0
C679 C 0.66365 0.4164 0.52238 0.0
H680 H 0.544 0.65875 0.83685 0.0
H681 H 0.46894 0.52376 0.82892 0.0
H682 H 0.48026 0.66248 0.8403 0.0
H683 H 0.40468 0.5269 0.83295 0.0
H684 H 0.28639 0.5409 0.83206 0.0
H685 H 0.35024 0.53911 0.82416 0.0
H686 H 0.4268 0.65625 0.85764 0.0
H687 H 0.36364 0.65825 0.86471 0.0
C688 C 0.51389 0.62963 0.83583 0.0
C689 C 0.51271 0.59102 0.83251 0.0
C690 C 0.47659 0.63163 0.838 0.0
C691 C 0.43568 0.59503 0.83705 0.0
C692 C 0.43457 0.5563 0.83358 0.0
C693 C 0.47202 0.55437 0.83138 0.0
C694 C 0.31697 0.56696 0.83717 0.0
C695 C 0.31907 0.60012 0.84881 0.0
C696 C 0.35412 0.56563 0.83297 0.0
C697 C 0.39523 0.59733 0.84026 0.0
C698 C 0.39696 0.63113 0.85129 0.0
C699 C 0.36009 0.6324 0.85543 0.0
H700 H 1.03206 0.4619 0.16123 0.0
H701 H 0.96946 0.53282 0.16911 0.0
H702 H 0.9652 0.39612 0.16494 0.0
H703 H 0.90291 0.46784 0.17245 0.0
H704 H 0.79299 0.34934 0.19642 0.0
H705 H 0.85739 0.41362 0.18946 0.0
H706 H 0.89821 0.34094 0.15632 0.0
H707 H 0.83354 0.27585 0.16435 0.0
C708 C 1.00403 0.4637 0.16358 0.0
C709 C 1.00707 0.50362 0.16492 0.0
C710 C 0.96502 0.42545 0.16562 0.0
C711 C 0.92701 0.42516 0.16908 0.0
C712 C 0.9304 0.46532 0.17012 0.0
C713 C 0.9692 0.50333 0.1681 0.0
C714 C 0.81515 0.34695 0.18721 0.0
C715 C 0.80696 0.3067 0.18078 0.0
C716 C 0.85283 0.38444 0.18312 0.0
C717 C 0.88474 0.38407 0.17223 0.0
C718 C 0.87568 0.34371 0.16503 0.0
C719 C 0.83775 0.30591 0.16928 0.0
H720 H 0.19035 0.60757 0.10238 0.0
H721 H 1.08417 0.62712 0.09399 0.0
H722 H 0.19625 0.60734 0.06646 0.0
H723 H 1.08954 0.62605 0.05843 0.0
H724 H 0.13312 0.66653 0.99757 0.0
H725 H 0.13468 0.66922 0.03353 0.0
H726 H 0.16099 0.56716 0.03545 0.0
H727 H 0.15998 0.56495 -0.00083 0.0
C728 C 0.16819 0.61166 0.09293 0.0
C729 C 0.13695 0.61764 0.10119 0.0
C730 C 0.17146 0.61133 0.07231 0.0
C731 C 0.14368 0.61712 0.05946 0.0
C732 C 0.11214 0.62245 0.06779 0.0
C733 C 0.10888 0.62277 0.08829 0.0
C734 C 0.13939 0.64471 0.00565 0.0
C735 C 0.14583 0.61512 0.99547 0.0
C736 C 0.14012 0.64613 0.02631 0.0
C737 C 0.14713 0.61786 0.03749 0.0
C738 C 0.15558 0.58949 0.02737 0.0
C739 C 0.15502 0.5882 0.00657 0.0
H740 H 0.70298 0.17269 0.43552 0.0
H741 H 0.58101 1.05856 0.42806 0.0
H742 H 0.70499 0.17923 0.39944 0.0
H743 H 0.58338 1.06478 0.39247 0.0
H744 H 0.57413 0.10821 0.33198 0.0
H745 H 0.57787 0.10952 0.36796 0.0
H746 H 0.70951 0.1453 0.36822 0.0
H747 H 0.70575 0.14429 0.33189 0.0
C748 C 0.67675 0.14894 0.42624 0.0
C749 C 0.6417 0.11528 0.43478 0.0
C750 C 0.67797 0.15262 0.40557 0.0
C751 C 0.64409 0.12284 0.39302 0.0
C752 C 0.60961 0.08886 0.40163 0.0
C753 C 0.6084 0.08516 0.42214 0.0
C754 C 0.60394 0.11642 0.33968 0.0
C755 C 0.63945 0.12545 0.32903 0.0
C756 C 0.60609 0.1171 0.36034 0.0
C757 C 0.64378 0.12671 0.37104 0.0
C758 C 0.67998 0.13781 0.36047 0.0
C759 C 0.67785 0.13723 0.33966 0.0
H760 H 0.56341 0.558 0.76084 0.0
H761 H 0.69356 0.65921 0.76585 0.0
H762 H 0.56456 0.56029 0.72499 0.0
H763 H 0.69523 0.6606 0.72979 0.0
H764 H 0.6751 0.67206 0.66327 0.0
H765 H 0.67118 0.67602 0.69911 0.0
H766 H 0.59313 0.54015 0.69946 0.0
H767 H 0.59512 0.53643 0.66377 0.0
C768 C 0.59235 0.58082 0.75429 0.0
C769 C 0.62851 0.60817 0.76628 0.0
C770 C 0.59311 0.58194 0.73366 0.0
C771 C 0.63019 0.61016 0.72435 0.0
C772 C 0.66599 0.6386 0.73635 0.0
C773 C 0.66511 0.63772 0.75707 0.0
C774 C 0.65661 0.64308 0.67097 0.0
C775 C 0.63557 0.6039 0.66052 0.0
C776 C 0.65477 0.64532 0.69159 0.0
C777 C 0.6318 0.60843 0.70231 0.0
C778 C 0.61063 0.56936 0.6918 0.0
C779 C 0.61232 0.56715 0.67125 0.0
H780 H 0.5664 0.1039 0.55701 0.0
H781 H 0.67135 0.08186 0.56331 0.0
H782 H 0.55422 0.09158 0.5919 0.0
H783 H 0.65846 0.06858 0.59843 0.0
H784 H 0.64681 0.0916 0.66469 0.0
H785 H 0.66193 0.10431 0.62983 0.0
H786 H 0.52808 1.03283 0.6138 0.0
H787 H 0.51291 1.02172 0.64861 0.0
C788 C 0.58689 0.09634 0.56584 0.0
C789 C 0.61979 0.09372 0.55736 0.0
C790 C 0.57967 0.08897 0.58585 0.0
C791 C 0.60505 0.07864 0.5979 0.0
C792 C 0.6385 0.07673 0.58954 0.0
C793 C 0.64581 0.08421 0.56943 0.0
C794 C 0.62062 0.07889 0.65372 0.0
C795 C 0.57863 1.05589 0.65943 0.0
C796 C 0.62932 0.08574 0.63374 0.0
C797 C 0.59621 0.06977 0.61906 0.0
C798 C 0.55429 1.04609 0.62477 0.0
C799 C 0.5456 1.03929 0.64471 0.0
H800 H 0.59524 0.51212 0.88852 0.0
H801 H 0.71187 0.63243 0.89233 0.0
H802 H 0.60788 0.49915 0.92246 0.0
H803 H 0.72535 0.61872 0.92637 0.0
H804 H 0.69654 0.60121 0.99322 0.0
H805 H 0.69871 0.61539 0.95814 0.0
H806 H 0.65015 0.4832 0.94416 0.0
H807 H 0.64547 0.46866 0.97933 0.0
C808 C 0.62384 0.53571 0.89656 0.0
C809 C 0.65239 0.57349 0.88776 0.0
C810 C 0.63137 0.52801 0.91601 0.0
C811 C 0.66787 0.55768 0.92713 0.0
C812 C 0.69675 0.59534 0.91827 0.0
C813 C 0.689 0.60324 0.89879 0.0
C814 C 0.68668 0.57523 0.98264 0.0
C815 C 0.66982 0.53365 0.98903 0.0
C816 C 0.68838 0.58344 0.9625 0.0
C817 C 0.67372 0.55029 0.9483 0.0
C818 C 0.66061 0.5093 0.95473 0.0
C819 C 0.65851 0.50102 0.9749 0.0
H820 H 0.10672 0.56493 0.22773 0.0
H821 H 0.13429 0.69398 0.22546 0.0
H822 H 0.10216 0.56697 0.26346 0.0
H823 H 0.1308 0.69634 0.26131 0.0
H824 H 0.14238 0.59978 0.32864 0.0
H825 H 0.14737 0.59925 0.29291 0.0
H826 H 1.08032 0.66755 0.28692 0.0
H827 H 1.0771 0.66982 0.3228 0.0
C828 C 0.11201 0.59381 0.23487 0.0
C829 C 0.12088 0.6293 0.22377 0.0
C830 C 0.10964 0.59505 0.25537 0.0
C831 C 0.11624 0.63186 0.26524 0.0
C832 C 0.12503 0.66734 0.25412 0.0
C833 C 0.12728 0.66605 0.2336 0.0
C834 C 0.12921 0.6152 0.31973 0.0
C835 C 0.10947 0.63498 0.32857 0.0
C836 C 0.13157 0.6144 0.29923 0.0
C837 C 0.11411 0.63322 0.28706 0.0
C838 C 1.09446 0.65312 0.29589 0.0
C839 C 1.09218 0.654 0.31643 0.0
loop_
_geom_bond_atom_site_label_1
_geom_bond_atom_site_label_2
_geom_bond_distance
_geom_bond_site_symmetry_2
_ccdc_geom_bond_type
Tb0 C10 2.825 . S
Tb0 O11 2.347 . S
Tb0 O14 2.366 . S
Tb0 O19 2.418 . S
Tb0 O20 2.384 1_455 S
Tb0 O23 2.479 . S
Tb0 O24 2.471 . S
Eu1 O12 2.408 1_655 S
Eu1 O13 2.357 1_655 S
Eu1 O16 2.510 . S
Eu1 O17 2.499 . S
Eu1 O18 2.332 1_655 S
Eu1 O21 2.371 . S
Eu1 C31 2.858 . S
C2 O18 1.259 . S
C2 O19 1.265 . S
C3 O20 1.255 . S
C3 O21 1.265 . S
C4 C6 1.380 . S
C4 C7 1.374 . S
C4 C10 1.507 . S
C5 C6 1.384 . S
C5 C9 1.387 . S
C5 H32 0.930 . S
C6 C4 1.380 . S
C6 C5 1.384 . S
C6 H33 0.931 . S
C7 C4 1.374 . S
C7 C8 1.390 . S
C7 H34 0.930 . S
C8 C7 1.390 . S
C8 C9 1.391 . S
C8 H35 0.930 . S
C9 C5 1.387 . S
C9 C8 1.391 . S
C10 Tb0 2.825 . S
C10 C4 1.507 . S
C10 O23 1.238 . S
C10 O24 1.247 . S
O11 Tb0 2.347 . S
O11 C15 1.259 . S
O12 Eu1 2.408 1_455 S
O12 C15 1.277 . S
O13 Eu1 2.357 1_455 S
O13 C22 1.255 . S
O14 Tb0 2.366 . S
O14 C22 1.265 . S
C15 O11 1.259 . S
C15 O12 1.277 . S
O16 Eu1 2.510 . S
O16 C31 1.238 . S
O17 Eu1 2.499 . S
O17 C31 1.247 . S
O18 Eu1 2.332 1_455 S
O18 C2 1.259 . S
O19 Tb0 2.418 . S
O19 C2 1.265 . S
O20 Tb0 2.384 1_655 S
O20 C3 1.255 . S
O21 Eu1 2.371 . S
O21 C3 1.265 . S
C22 O13 1.255 . S
C22 O14 1.265 . S
O23 Tb0 2.479 . S
O23 C10 1.238 . S
O24 Tb0 2.471 . S
O24 C10 1.247 . S
C25 C28 1.380 . S
C25 C29 1.374 . S
C25 C31 1.507 . S
C26 C27 1.387 . S
C26 C30 1.391 . S
C27 C26 1.387 . S
C27 C28 1.384 . S
C27 H36 0.930 . S
C28 C25 1.380 . S
C28 C27 1.384 . S
C28 H37 0.931 . S
C29 C25 1.374 . S
C29 C30 1.390 . S
C29 H38 0.930 . S
C30 C26 1.391 . S
C30 C29 1.390 . S
C30 H39 0.930 . S
C31 Eu1 2.858 . S
C31 O16 1.238 . S
C31 O17 1.247 . S
C31 C25 1.507 . S
H32 C5 0.930 . S
H33 C6 0.931 . S
H34 C7 0.930 . S
H35 C8 0.930 . S
H36 C27 0.930 . S
H37 C28 0.931 . S
H38 C29 0.930 . S
H39 C30 0.930 . S
Tb40 C50 2.825 . S
Tb40 O51 2.347 . S
Tb40 O54 2.366 . S
Tb40 O59 2.418 . S
Tb40 O60 2.384 1_545 S
Tb40 O63 2.479 . S
Tb40 O64 2.471 . S
Eu41 O52 2.418 . S
Eu41 O53 2.384 . S
Eu41 O56 2.479 1_545 S
Eu41 O57 2.471 1_545 S
Eu41 O58 2.347 . S
Eu41 O61 2.366 1_545 S
Eu41 C71 2.825 1_545 S
C42 O58 1.259 . S
C42 O59 1.265 . S
C43 O60 1.255 . S
C43 O61 1.265 . S
C44 C46 1.380 . S
C44 C47 1.374 . S
C44 C50 1.507 . S
C45 C46 1.384 . S
C45 C49 1.387 . S
C45 H72 0.930 . S
C46 C44 1.380 . S
C46 C45 1.384 . S
C46 H73 0.931 . S
C47 C44 1.374 . S
C47 C48 1.390 . S
C47 H74 0.930 . S
C48 C47 1.390 . S
C48 C49 1.391 . S
C48 H75 0.930 . S
C49 C45 1.387 . S
C49 C48 1.391 . S
C50 Tb40 2.825 . S
C50 C44 1.507 . S
C50 O63 1.238 . S
C50 O64 1.247 . S
O51 Tb40 2.347 . S
O51 C55 1.259 . S
O52 Eu41 2.418 . S
O52 C55 1.265 . S
O53 Eu41 2.384 . S
O53 C62 1.255 . S
O54 Tb40 2.366 . S
O54 C62 1.265 . S
C55 O51 1.259 . S
C55 O52 1.265 . S
O56 Eu41 2.479 1_565 S
O56 C71 1.238 . S
O57 Eu41 2.471 1_565 S
O57 C71 1.247 . S
O58 Eu41 2.347 . S
O58 C42 1.259 . S
O59 Tb40 2.418 . S
O59 C42 1.265 . S
O60 Tb40 2.384 1_565 S
O60 C43 1.255 . S
O61 Eu41 2.366 1_565 S
O61 C43 1.265 . S
C62 O53 1.255 . S
C62 O54 1.265 . S
O63 Tb40 2.479 . S
O63 C50 1.238 . S
O64 Tb40 2.471 . S
O64 C50 1.247 . S
C65 C68 1.380 . S
C65 C69 1.374 . S
C65 C71 1.507 . S
C66 C67 1.387 . S
C66 C70 1.391 . S
C67 C66 1.387 . S
C67 C68 1.384 . S
C67 H76 0.930 . S
C68 C65 1.380 . S
C68 C67 1.384 . S
C68 H77 0.931 . S
C69 C65 1.374 . S
C69 C70 1.390 . S
C69 H78 0.930 . S
C70 C66 1.391 . S
C70 C69 1.390 . S
C70 H79 0.930 . S
C71 Eu41 2.825 1_565 S
C71 O56 1.238 . S
C71 O57 1.247 . S
C71 C65 1.507 . S
H72 C45 0.930 . S
H73 C46 0.931 . S
H74 C47 0.930 . S
H75 C48 0.930 . S
H76 C67 0.930 . S
H77 C68 0.931 . S
H78 C69 0.930 . S
H79 C70 0.930 . S
Tb80 C90 2.825 . S
Tb80 O91 2.347 . S
Tb80 O94 2.366 . S
Tb80 O99 2.418 . S
Tb80 O100 2.384 . S
Tb80 O103 2.479 . S
Tb80 O104 2.471 . S
Eu81 O92 2.418 . S
Eu81 O93 2.384 . S
Eu81 O96 2.479 . S
Eu81 O97 2.471 . S
Eu81 O98 2.347 . S
Eu81 O101 2.366 . S
Eu81 C111 2.825 . S
C82 O98 1.259 . S
C82 O99 1.265 . S
C83 O100 1.255 . S
C83 O101 1.265 . S
C84 C86 1.380 . S
C84 C87 1.374 . S
C84 C90 1.507 . S
C85 C86 1.384 . S
C85 C89 1.387 . S
C85 H112 0.930 . S
C86 C84 1.380 . S
C86 C85 1.384 . S
C86 H113 0.931 . S
C87 C84 1.374 . S
C87 C88 1.390 . S
C87 H114 0.930 . S
C88 C87 1.390 . S
C88 C89 1.391 . S
C88 H115 0.930 . S
C89 C85 1.387 . S
C89 C88 1.391 . S
C90 Tb80 2.825 . S
C90 C84 1.507 . S
C90 O103 1.238 . S
C90 O104 1.247 . S
O91 Tb80 2.347 . S
O91 C95 1.259 . S
O92 Eu81 2.418 . S
O92 C95 1.265 . S
O93 Eu81 2.384 . S
O93 C102 1.255 . S
O94 Tb80 2.366 . S
O94 C102 1.265 . S
C95 O91 1.259 . S
C95 O92 1.265 . S
O96 Eu81 2.479 . S
O96 C111 1.238 . S
O97 Eu81 2.471 . S
O97 C111 1.247 . S
O98 Eu81 2.347 . S
O98 C82 1.259 . S
O99 Tb80 2.418 . S
O99 C82 1.265 . S
O100 Tb80 2.384 . S
O100 C83 1.255 . S
O101 Eu81 2.366 . S
O101 C83 1.265 . S
C102 O93 1.255 . S
C102 O94 1.265 . S
O103 Tb80 2.479 . S
O103 C90 1.238 . S
O104 Tb80 2.471 . S
O104 C90 1.247 . S
C105 C108 1.380 . S
C105 C109 1.374 . S
C105 C111 1.507 . S
C106 C107 1.387 . S
C106 C110 1.391 . S
C107 C106 1.387 . S
C107 C108 1.384 . S
C107 H116 0.930 . S
C108 C105 1.380 . S
C108 C107 1.384 . S
C108 H117 0.931 . S
C109 C105 1.374 . S
C109 C110 1.390 . S
C109 H118 0.930 . S
C110 C106 1.391 . S
C110 C109 1.390 . S
C110 H119 0.930 . S
C111 Eu81 2.825 . S
C111 O96 1.238 . S
C111 O97 1.247 . S
C111 C105 1.507 . S
H112 C85 0.930 . S
H113 C86 0.931 . S
H114 C87 0.930 . S
H115 C88 0.930 . S
H116 C107 0.930 . S
H117 C108 0.931 . S
H118 C109 0.930 . S
H119 C110 0.930 . S
C120 C121 1.391 . S
C120 C124 1.391 . S
C120 H162 0.948 . S
C121 C120 1.391 . S
C121 C122 1.391 . S
C122 C121 1.391 . S
C122 H178 0.947 . S
C122 C179 1.392 . S
C123 C124 1.391 . S
C123 C127 1.397 . S
C123 C179 1.419 . S
C124 C120 1.391 . S
C124 C123 1.391 . S
C124 C125 1.399 . S
C125 C124 1.399 . S
C125 C128 1.396 . S
C125 C137 1.453 . S
C125 C138 1.684 . S
H126 C150 0.948 . S
C127 C123 1.397 . S
C127 C128 1.394 . S
C127 C146 1.723 . S
C128 C125 1.396 . S
C128 C127 1.394 . S
C128 C158 1.723 1_545 S
H129 C152 0.947 . S
H130 C153 0.948 . S
H131 C159 0.982 . S
H132 C160 0.979 . S
H133 C160 0.980 . S
H134 C160 0.983 . S
H135 C159 0.979 . S
H136 C159 0.977 . S
C137 C125 1.453 . S
C137 H166 0.982 . S
C137 H167 0.979 . S
C137 H168 0.977 1_545 S
C138 C125 1.684 . S
C138 H163 0.979 . S
C138 H164 0.980 . S
C138 H165 0.983 . S
C139 C140 1.391 . S
C139 C144 1.391 . S
C139 H169 0.948 . S
C140 C139 1.391 . S
C140 C141 1.391 1_545 S
C141 C140 1.391 1_565 S
C141 C142 1.392 . S
C141 H170 0.947 . S
C142 C141 1.392 . S
C142 C143 1.419 1_565 S
C142 H171 0.948 . S
C143 C142 1.419 1_545 S
C143 C144 1.391 . S
C143 C147 1.397 . S
C144 C139 1.391 . S
C144 C143 1.391 . S
C144 C145 1.399 . S
C145 C144 1.399 . S
C145 C146 1.396 . S
C145 C148 1.453 . S
C145 C149 1.684 . S
C146 C127 1.723 . S
C146 C145 1.396 . S
C146 C147 1.394 . S
C147 C143 1.397 . S
C147 C146 1.394 . S
C147 C157 1.723 1_545 S
C148 C145 1.453 . S
C148 H172 0.982 . S
C148 H173 0.979 . S
C148 H174 0.977 . S
C149 C145 1.684 . S
C149 H175 0.979 . S
C149 H176 0.980 . S
C149 H177 0.983 . S
C150 H126 0.948 . S
C150 C151 1.391 . S
C150 C155 1.391 . S
C151 C150 1.391 . S
C151 C152 1.391 . S
C152 H129 0.947 . S
C152 C151 1.391 . S
C152 C153 1.392 . S
C153 H130 0.948 . S
C153 C152 1.392 . S
C153 C154 1.419 . S
C154 C153 1.419 . S
C154 C155 1.391 . S
C154 C158 1.397 . S
C155 C150 1.391 . S
C155 C154 1.391 . S
C155 C156 1.399 . S
C156 C155 1.399 . S
C156 C157 1.396 . S
C156 C159 1.453 . S
C156 C160 1.684 . S
C157 C147 1.723 1_565 S
C157 C156 1.396 . S
C157 C158 1.394 . S
C158 C128 1.723 1_565 S
C158 C154 1.397 . S
C158 C157 1.394 . S
C159 H131 0.982 . S
C159 H135 0.979 . S
C159 H136 0.977 . S
C159 C156 1.453 . S
C160 H132 0.979 . S
C160 H133 0.980 . S
C160 H134 0.983 . S
C160 C156 1.684 . S
H161 C179 0.948 . S
H162 C120 0.948 . S
H163 C138 0.979 . S
H164 C138 0.980 . S
H165 C138 0.983 . S
H166 C137 0.982 . S
H167 C137 0.979 . S
H168 C137 0.977 1_565 S
H169 C139 0.948 . S
H170 C141 0.947 . S
H171 C142 0.948 . S
H172 C148 0.982 . S
H173 C148 0.979 . S
H174 C148 0.977 . S
H175 C149 0.979 . S
H176 C149 0.980 . S
H177 C149 0.983 . S
H178 C122 0.947 . S
C179 C122 1.392 . S
C179 C123 1.419 . S
C179 H161 0.948 . S
C180 C181 1.391 . S
C180 C184 1.391 . S
C180 H222 0.948 . S
C181 C180 1.391 . S
C181 C182 1.391 . S
C182 C181 1.391 . S
C182 H238 0.947 . S
C182 C239 1.392 . S
C183 C184 1.391 . S
C183 C187 1.397 . S
C183 C239 1.419 . S
C184 C180 1.391 . S
C184 C183 1.391 . S
C184 C185 1.399 . S
C185 C184 1.399 . S
C185 C188 1.396 . S
C185 C197 1.453 . S
C185 C198 1.684 . S
H186 C210 0.948 . S
C187 C183 1.397 . S
C187 C188 1.394 . S
C187 C206 1.723 . S
C188 C185 1.396 . S
C188 C187 1.394 . S
C188 C218 1.723 . S
H189 C212 0.947 . S
H190 C213 0.948 . S
H191 C219 0.982 . S
H192 C220 0.979 . S
H193 C220 0.980 . S
H194 C220 0.983 . S
H195 C219 0.979 . S
H196 C219 0.977 . S
C197 C185 1.453 . S
C197 H226 0.982 . S
C197 H227 0.979 . S
C197 H228 0.977 . S
C198 C185 1.684 . S
C198 H223 0.979 . S
C198 H224 0.980 . S
C198 H225 0.983 . S
C199 C200 1.391 . S
C199 C204 1.391 . S
C199 H229 0.948 . S
C200 C199 1.391 . S
C200 C201 1.391 . S
C201 C200 1.391 . S
C201 C202 1.392 . S
C201 H230 0.947 . S
C202 C201 1.392 . S
C202 C203 1.419 . S
C202 H231 0.948 . S
C203 C202 1.419 . S
C203 C204 1.391 . S
C203 C207 1.397 . S
C204 C199 1.391 . S
C204 C203 1.391 . S
C204 C205 1.399 . S
C205 C204 1.399 . S
C205 C206 1.396 . S
C205 C208 1.453 . S
C205 C209 1.684 . S
C206 C187 1.723 . S
C206 C205 1.396 . S
C206 C207 1.394 . S
C207 C203 1.397 . S
C207 C206 1.394 . S
C207 C217 1.723 . S
C208 C205 1.453 . S
C208 H232 0.982 . S
C208 H233 0.979 . S
C208 H234 0.977 . S
C209 C205 1.684 . S
C209 H235 0.979 . S
C209 H236 0.980 . S
C209 H237 0.983 . S
C210 H186 0.948 . S
C210 C211 1.391 . S
C210 C215 1.391 . S
C211 C210 1.391 . S
C211 C212 1.391 . S
C212 H189 0.947 . S
C212 C211 1.391 . S
C212 C213 1.392 . S
C213 H190 0.948 . S
C213 C212 1.392 . S
C213 C214 1.419 . S
C214 C213 1.419 . S
C214 C215 1.391 . S
C214 C218 1.397 . S
C215 C210 1.391 . S
C215 C214 1.391 . S
C215 C216 1.399 . S
C216 C215 1.399 . S
C216 C217 1.396 . S
C216 C219 1.453 . S
C216 C220 1.684 . S
C217 C207 1.723 . S
C217 C216 1.396 . S
C217 C218 1.394 . S
C218 C188 1.723 . S
C218 C214 1.397 . S
C218 C217 1.394 . S
C219 H191 0.982 . S
C219 H195 0.979 . S
C219 H196 0.977 . S
C219 C216 1.453 . S
C220 H192 0.979 . S
C220 H193 0.980 . S
C220 H194 0.983 . S
C220 C216 1.684 . S
H221 C239 0.948 . S
H222 C180 0.948 . S
H223 C198 0.979 . S
H224 C198 0.980 . S
H225 C198 0.983 . S
H226 C197 0.982 . S
H227 C197 0.979 . S
H228 C197 0.977 . S
H229 C199 0.948 . S
H230 C201 0.947 . S
H231 C202 0.948 . S
H232 C208 0.982 . S
H233 C208 0.979 . S
H234 C208 0.977 . S
H235 C209 0.979 . S
H236 C209 0.980 . S
H237 C209 0.983 . S
H238 C182 0.947 . S
C239 C182 1.392 . S
C239 C183 1.419 . S
C239 H221 0.948 . S
C240 C241 1.391 . S
C240 C244 1.391 . S
C240 H282 0.948 . S
C241 C240 1.391 . S
C241 C242 1.391 . S
C242 C241 1.391 . S
C242 H298 0.947 . S
C242 C299 1.392 . S
C243 C244 1.391 . S
C243 C247 1.397 . S
C243 C299 1.419 . S
C244 C240 1.391 . S
C244 C243 1.391 . S
C244 C245 1.399 . S
C245 C244 1.399 . S
C245 C248 1.396 . S
C245 C257 1.453 . S
C245 C258 1.684 . S
H246 C270 0.948 . S
C247 C243 1.397 . S
C247 C248 1.394 . S
C247 C266 1.723 . S
C248 C245 1.396 . S
C248 C247 1.394 . S
C248 C278 1.723 1_455 S
H249 C272 0.947 . S
H250 C273 0.948 . S
H251 C279 0.982 . S
H252 C280 0.979 . S
H253 C280 0.980 . S
H254 C280 0.983 . S
H255 C279 0.979 . S
H256 C279 0.977 . S
C257 C245 1.453 . S
C257 H286 0.982 . S
C257 H287 0.979 . S
C257 H288 0.950 1_455 S
C258 C245 1.684 . S
C258 H283 0.979 . S
C258 H284 0.980 . S
C258 H285 0.983 . S
C259 C260 1.391 . S
C259 C264 1.391 . S
C259 H289 0.948 . S
C260 C259 1.391 . S
C260 C261 1.391 1_455 S
C261 C260 1.391 1_655 S
C261 C262 1.392 . S
C261 H290 0.947 . S
C262 C261 1.392 . S
C262 C263 1.419 1_655 S
C262 H291 0.948 . S
C263 C262 1.419 1_455 S
C263 C264 1.391 . S
C263 C267 1.397 . S
C264 C259 1.391 . S
C264 C263 1.391 . S
C264 C265 1.399 . S
C265 C264 1.399 . S
C265 C266 1.396 . S
C265 C268 1.453 . S
C265 C269 1.684 . S
C266 C247 1.723 . S
C266 C265 1.396 . S
C266 C267 1.394 . S
C267 C263 1.397 . S
C267 C266 1.394 . S
C267 C277 1.723 1_455 S
C268 C265 1.453 . S
C268 H292 0.982 . S
C268 H293 0.979 . S
C268 H294 0.977 . S
C269 C265 1.684 . S
C269 H295 0.979 . S
C269 H296 0.980 . S
C269 H297 0.983 . S
C270 H246 0.948 . S
C270 C271 1.391 . S
C270 C275 1.391 . S
C271 C270 1.391 . S
C271 C272 1.391 . S
C272 H249 0.947 . S
C272 C271 1.391 . S
C272 C273 1.392 . S
C273 H250 0.948 . S
C273 C272 1.392 . S
C273 C274 1.419 . S
C274 C273 1.419 . S
C274 C275 1.391 . S
C274 C278 1.397 . S
C275 C270 1.391 . S
C275 C274 1.391 . S
C275 C276 1.399 . S
C276 C275 1.399 . S
C276 C277 1.396 . S
C276 C279 1.453 . S
C276 C280 1.684 . S
C277 C267 1.723 1_655 S
C277 C276 1.396 . S
C277 C278 1.394 . S
C278 C248 1.723 1_655 S
C278 C274 1.397 . S
C278 C277 1.394 . S
C279 H251 0.982 . S
C279 H255 0.979 . S
C279 H256 0.977 . S
C279 C276 1.453 . S
C280 H252 0.979 . S
C280 H253 0.980 . S
C280 H254 0.983 . S
C280 C276 1.684 . S
H281 C299 0.948 . S
H282 C240 0.948 . S
H283 C258 0.979 . S
H284 C258 0.980 . S
H285 C258 0.983 . S
H286 C257 0.982 . S
H287 C257 0.979 . S
H288 C257 0.950 1_655 S
H289 C259 0.948 . S
H290 C261 0.947 . S
H291 C262 0.948 . S
H292 C268 0.982 . S
H293 C268 0.979 . S
H294 C268 0.977 . S
H295 C269 0.979 . S
H296 C269 0.980 . S
H297 C269 0.983 . S
H298 C242 0.947 . S
C299 C242 1.392 . S
C299 C243 1.419 . S
C299 H281 0.948 . S
C300 C301 1.391 . S
C300 C304 1.391 . S
C300 H342 0.948 . S
C301 C300 1.391 . S
C301 C302 1.391 . S
C302 C301 1.391 . S
C302 H358 0.947 . S
C302 C359 1.392 . S
C303 C304 1.391 . S
C303 C307 1.397 . S
C303 C359 1.419 . S
C304 C300 1.391 . S
C304 C303 1.391 . S
C304 C305 1.399 . S
C305 C304 1.399 . S
C305 C308 1.396 . S
C305 C317 1.453 1_655 S
C305 C318 1.684 . S
H306 C330 0.948 . S
C307 C303 1.397 . S
C307 C308 1.394 . S
C307 C326 1.723 . S
C308 C305 1.396 . S
C308 C307 1.394 . S
C308 C338 1.723 1_655 S
H309 C332 0.947 . S
H310 C333 0.948 . S
H311 C339 0.982 . S
H312 C340 0.979 . S
H313 C340 0.980 . S
H314 C340 0.983 . S
H315 C339 0.979 . S
H316 C339 0.977 . S
C317 C305 1.453 1_455 S
C317 H346 0.982 . S
C317 H347 0.979 1_455 S
C317 H348 0.977 . S
C318 C305 1.684 . S
C318 H343 0.979 . S
C318 H344 0.993 . S
C318 H345 0.983 . S
C319 C320 1.391 1_655 S
C319 C324 1.391 . S
C319 H349 0.948 . S
C320 C319 1.391 1_455 S
C320 C321 1.391 . S
C321 C320 1.391 . S
C321 C322 1.392 . S
C321 H350 0.947 . S
C322 C321 1.392 . S
C322 C323 1.419 . S
C322 H351 0.948 . S
C323 C322 1.419 . S
C323 C324 1.391 1_455 S
C323 C327 1.397 . S
C324 C319 1.391 . S
C324 C323 1.391 1_655 S
C324 C325 1.399 . S
C325 C324 1.399 . S
C325 C326 1.396 . S
C325 C328 1.453 . S
C325 C329 1.684 . S
C326 C307 1.723 . S
C326 C325 1.396 . S
C326 C327 1.394 1_655 S
C327 C323 1.397 . S
C327 C326 1.394 1_455 S
C327 C337 1.723 . S
C328 C325 1.453 . S
C328 H352 0.982 . S
C328 H353 0.979 . S
C328 H354 0.977 . S
C329 C325 1.684 . S
C329 H355 0.979 . S
C329 H356 0.980 . S
C329 H357 0.983 . S
C330 H306 0.948 . S
C330 C331 1.391 . S
C330 C335 1.391 . S
C331 C330 1.391 . S
C331 C332 1.391 . S
C332 H309 0.947 . S
C332 C331 1.391 . S
C332 C333 1.392 . S
C333 H310 0.948 . S
C333 C332 1.392 . S
C333 C334 1.419 . S
C334 C333 1.419 . S
C334 C335 1.391 . S
C334 C338 1.397 . S
C335 C330 1.391 . S
C335 C334 1.391 . S
C335 C336 1.399 . S
C336 C335 1.399 . S
C336 C337 1.396 . S
C336 C339 1.453 . S
C336 C340 1.684 . S
C337 C327 1.723 . S
C337 C336 1.396 . S
C337 C338 1.394 . S
C338 C308 1.723 1_455 S
C338 C334 1.397 . S
C338 C337 1.394 . S
C339 H311 0.982 . S
C339 H315 0.979 . S
C339 H316 0.977 . S
C339 C336 1.453 . S
C340 H312 0.979 . S
C340 H313 0.980 . S
C340 H314 0.983 . S
C340 C336 1.684 . S
H341 C359 0.948 . S
H342 C300 0.948 . S
H343 C318 0.979 . S
H344 C318 0.993 . S
H345 C318 0.983 . S
H346 C317 0.982 . S
H347 C317 0.979 1_655 S
H348 C317 0.977 . S
H349 C319 0.948 . S
H350 C321 0.947 . S
H351 C322 0.948 . S
H352 C328 0.982 . S
H353 C328 0.979 . S
H354 C328 0.977 . S
H355 C329 0.979 . S
H356 C329 0.980 . S
H357 C329 0.983 . S
H358 C302 0.947 . S
C359 C302 1.392 . S
C359 C303 1.419 . S
C359 H341 0.948 . S
C360 C361 1.391 . S
C360 C364 1.391 . S
C360 H402 0.948 . S
C361 C360 1.391 . S
C361 C362 1.391 . S
C362 C361 1.391 . S
C362 H418 0.947 . S
C362 C419 1.392 . S
C363 C364 1.391 . S
C363 C367 1.397 . S
C363 C419 1.419 . S
C364 C360 1.391 . S
C364 C363 1.391 . S
C364 C365 1.399 . S
C365 C364 1.399 . S
C365 C368 1.396 . S
C365 C377 1.453 . S
C365 C378 1.684 . S
H366 C390 0.948 . S
C367 C363 1.397 . S
C367 C368 1.394 . S
C367 C386 1.723 . S
C368 C365 1.396 . S
C368 C367 1.394 . S
C368 C398 1.723 1_565 S
H369 C392 0.947 . S
H370 C393 0.948 . S
H371 C399 0.982 . S
H372 C400 0.979 . S
H373 C400 0.980 . S
H374 C400 0.983 . S
H375 C399 0.979 . S
H376 C399 0.977 . S
C377 C365 1.453 . S
C377 H406 0.982 1_565 S
C377 H407 0.979 . S
C377 H408 0.977 1_565 S
C378 C365 1.684 . S
C378 H403 0.979 . S
C378 H404 0.980 . S
C378 H405 0.983 . S
C379 C380 1.391 1_565 S
C379 C384 1.391 . S
C379 H409 0.948 . S
C380 C379 1.391 1_545 S
C380 C381 1.391 . S
C381 C380 1.391 . S
C381 C382 1.392 . S
C381 H410 0.947 . S
C382 C381 1.392 . S
C382 C383 1.419 . S
C382 H411 0.948 . S
C383 C382 1.419 . S
C383 C384 1.391 1_545 S
C383 C387 1.397 . S
C384 C379 1.391 . S
C384 C383 1.391 1_565 S
C384 C385 1.399 . S
C385 C384 1.399 . S
C385 C386 1.396 . S
C385 C388 1.453 . S
C385 C389 1.684 . S
C386 C367 1.723 . S
C386 C385 1.396 . S
C386 C387 1.394 1_565 S
C387 C383 1.397 . S
C387 C386 1.394 1_545 S
C387 C397 1.723 . S
C388 C385 1.453 . S
C388 H412 0.982 . S
C388 H413 0.979 . S
C388 H414 0.977 . S
C389 C385 1.684 . S
C389 H415 0.979 . S
C389 H416 0.980 . S
C389 H417 0.983 . S
C390 H366 0.948 . S
C390 C391 1.391 . S
C390 C395 1.391 . S
C391 C390 1.391 . S
C391 C392 1.391 . S
C392 H369 0.947 . S
C392 C391 1.391 . S
C392 C393 1.392 . S
C393 H370 0.948 . S
C393 C392 1.392 . S
C393 C394 1.419 . S
C394 C393 1.419 . S
C394 C395 1.391 . S
C394 C398 1.397 . S
C395 C390 1.391 . S
C395 C394 1.391 . S
C395 C396 1.399 . S
C396 C395 1.399 . S
C396 C397 1.396 . S
C396 C399 1.453 . S
C396 C400 1.684 . S
C397 C387 1.723 . S
C397 C396 1.396 . S
C397 C398 1.394 . S
C398 C368 1.723 1_545 S
C398 C394 1.397 . S
C398 C397 1.394 . S
C399 H371 0.982 . S
C399 H375 0.979 . S
C399 H376 0.977 . S
C399 C396 1.453 . S
C400 H372 0.979 . S
C400 H373 0.980 . S
C400 H374 0.983 . S
C400 C396 1.684 . S
H401 C419 0.948 . S
H402 C360 0.948 . S
H403 C378 0.979 . S
H404 C378 0.980 . S
H405 C378 0.983 . S
H406 C377 0.982 1_545 S
H407 C377 0.979 . S
H408 C377 0.977 1_545 S
H409 C379 0.948 . S
H410 C381 0.947 . S
H411 C382 0.948 . S
H412 C388 0.982 . S
H413 C388 0.979 . S
H414 C388 0.977 . S
H415 C389 0.979 . S
H416 C389 0.980 . S
H417 C389 0.983 . S
H418 C362 0.947 . S
C419 C362 1.392 . S
C419 C363 1.419 . S
C419 H401 0.948 . S
C420 C421 1.391 . S
C420 C424 1.391 . S
C420 H462 0.948 . S
C421 C420 1.391 . S
C421 C422 1.391 . S
C422 C421 1.391 . S
C422 H478 0.947 . S
C422 C479 1.392 . S
C423 C424 1.391 . S
C423 C427 1.397 . S
C423 C479 1.419 . S
C424 C420 1.391 . S
C424 C423 1.391 . S
C424 C425 1.399 . S
C425 C424 1.399 . S
C425 C428 1.396 . S
C425 C437 1.453 . S
C425 C438 1.684 . S
H426 C450 0.948 . S
C427 C423 1.397 . S
C427 C428 1.394 . S
C427 C446 1.723 . S
C428 C425 1.396 . S
C428 C427 1.394 . S
C428 C458 1.723 . S
H429 C452 0.947 . S
H430 C453 0.948 . S
H431 C459 0.982 . S
H432 C460 0.979 . S
H433 C460 0.980 . S
H434 C460 0.983 . S
H435 C459 0.979 . S
H436 C459 0.977 . S
C437 C425 1.453 . S
C437 H466 0.982 . S
C437 H467 0.979 . S
C437 H468 0.977 . S
C438 C425 1.684 . S
C438 H463 0.979 . S
C438 H464 0.980 . S
C438 H465 0.983 . S
C439 C440 1.391 . S
C439 C444 1.391 . S
C439 H469 0.948 . S
C440 C439 1.391 . S
C440 C441 1.391 . S
C441 C440 1.391 . S
C441 C442 1.392 . S
C441 H470 0.947 . S
C442 C441 1.392 . S
C442 C443 1.419 . S
C442 H471 0.948 . S
C443 C442 1.419 . S
C443 C444 1.391 . S
C443 C447 1.397 . S
C444 C439 1.391 . S
C444 C443 1.391 . S
C444 C445 1.399 . S
C445 C444 1.399 . S
C445 C446 1.396 . S
C445 C448 1.453 . S
C445 C449 1.684 . S
C446 C427 1.723 . S
C446 C445 1.396 . S
C446 C447 1.394 . S
C447 C443 1.397 . S
C447 C446 1.394 . S
C447 C457 1.723 . S
C448 C445 1.453 . S
C448 H472 0.982 . S
C448 H473 0.979 . S
C448 H474 0.977 . S
C449 C445 1.684 . S
C449 H475 0.979 . S
C449 H476 0.980 . S
C449 H477 0.983 . S
C450 H426 0.948 . S
C450 C451 1.391 . S
C450 C455 1.391 . S
C451 C450 1.391 . S
C451 C452 1.391 . S
C452 H429 0.947 . S
C452 C451 1.391 . S
C452 C453 1.392 . S
C453 H430 0.948 . S
C453 C452 1.392 . S
C453 C454 1.419 . S
C454 C453 1.419 . S
C454 C455 1.391 . S
C454 C458 1.397 . S
C455 C450 1.391 . S
C455 C454 1.391 . S
C455 C456 1.399 . S
C456 C455 1.399 . S
C456 C457 1.396 . S
C456 C459 1.453 . S
C456 C460 1.684 . S
C457 C447 1.723 . S
C457 C456 1.396 . S
C457 C458 1.394 . S
C458 C428 1.723 . S
C458 C454 1.397 . S
C458 C457 1.394 . S
C459 H431 0.982 . S
C459 H435 0.979 . S
C459 H436 0.977 . S
C459 C456 1.453 . S
C460 H432 0.979 . S
C460 H433 0.980 . S
C460 H434 0.983 . S
C460 C456 1.684 . S
H461 C479 0.948 . S
H462 C420 0.948 . S
H463 C438 0.979 . S
H464 C438 0.980 . S
H465 C438 0.983 . S
H466 C437 0.982 . S
H467 C437 0.979 . S
H468 C437 0.977 . S
H469 C439 0.948 . S
H470 C441 0.947 . S
H471 C442 0.948 . S
H472 C448 0.982 . S
H473 C448 0.979 . S
H474 C448 0.977 . S
H475 C449 0.979 . S
H476 C449 0.980 . S
H477 C449 0.983 . S
H478 C422 0.947 . S
C479 C422 1.392 . S
C479 C423 1.419 . S
C479 H461 0.948 . S
H480 C488 0.950 . S
H481 C493 0.950 . S
H482 C490 0.950 . S
H483 C492 0.950 . S
H484 C494 0.950 . S
H485 C496 0.950 . S
H486 C498 0.950 . S
H487 C499 0.950 . S
C488 H480 0.950 . S
C488 C489 1.386 . S
C488 C490 1.391 . S
C489 C488 1.386 . S
C489 C493 1.393 . S
C490 H482 0.950 . S
C490 C488 1.391 . S
C490 C491 1.400 . S
C491 C490 1.400 . S
C491 C492 1.398 . S
C491 C497 1.491 . S
C492 H483 0.950 . S
C492 C491 1.398 . S
C492 C493 1.391 . S
C493 H481 0.950 . S
C493 C489 1.393 . S
C493 C492 1.391 . S
C494 H484 0.950 . S
C494 C495 1.386 . S
C494 C496 1.391 . S
C495 C494 1.386 . S
C495 C499 1.393 . S
C496 H485 0.950 . S
C496 C494 1.391 . S
C496 C497 1.400 . S
C497 C491 1.491 . S
C497 C496 1.400 . S
C497 C498 1.398 . S
C498 H486 0.950 . S
C498 C497 1.398 . S
C498 C499 1.391 . S
C499 H487 0.950 . S
C499 C495 1.393 . S
C499 C498 1.391 . S
H500 C508 0.950 . S
H501 C513 0.950 . S
H502 C510 0.950 . S
H503 C512 0.950 . S
H504 C514 0.950 . S
H505 C516 0.950 . S
H506 C518 0.950 . S
H507 C519 0.950 . S
C508 H500 0.950 . S
C508 C509 1.386 . S
C508 C510 1.391 . S
C509 C508 1.386 . S
C509 C513 1.393 . S
C510 H502 0.950 . S
C510 C508 1.391 . S
C510 C511 1.400 . S
C511 C510 1.400 . S
C511 C512 1.398 . S
C511 C517 1.491 . S
C512 H503 0.950 . S
C512 C511 1.398 . S
C512 C513 1.391 . S
C513 H501 0.950 . S
C513 C509 1.393 . S
C513 C512 1.391 . S
C514 H504 0.950 . S
C514 C515 1.386 . S
C514 C516 1.391 . S
C515 C514 1.386 . S
C515 C519 1.393 . S
C516 H505 0.950 . S
C516 C514 1.391 . S
C516 C517 1.400 . S
C517 C511 1.491 . S
C517 C516 1.400 . S
C517 C518 1.398 . S
C518 H506 0.950 . S
C518 C517 1.398 . S
C518 C519 1.391 . S
C519 H507 0.950 . S
C519 C515 1.393 . S
C519 C518 1.391 . S
H520 C528 0.950 . S
H521 C533 0.950 . S
H522 C530 0.950 . S
H523 C532 0.950 . S
H524 C534 0.950 . S
H525 C536 0.950 . S
H526 C538 0.950 . S
H527 C539 0.950 . S
C528 H520 0.950 . S
C528 C529 1.386 . S
C528 C530 1.391 . S
C529 C528 1.386 . S
C529 C533 1.393 . S
C530 H522 0.950 . S
C530 C528 1.391 . S
C530 C531 1.400 . S
C531 C530 1.400 . S
C531 C532 1.398 . S
C531 C537 1.491 . S
C532 H523 0.950 . S
C532 C531 1.398 . S
C532 C533 1.391 . S
C533 H521 0.950 . S
C533 C529 1.393 . S
C533 C532 1.391 . S
C534 H524 0.950 . S
C534 C535 1.386 . S
C534 C536 1.391 . S
C535 C534 1.386 . S
C535 C539 1.393 . S
C536 H525 0.950 . S
C536 C534 1.391 . S
C536 C537 1.400 . S
C537 C531 1.491 . S
C537 C536 1.400 . S
C537 C538 1.398 . S
C538 H526 0.950 . S
C538 C537 1.398 . S
C538 C539 1.391 . S
C539 H527 0.950 . S
C539 C535 1.393 . S
C539 C538 1.391 . S
H540 C548 0.950 . S
H541 C553 0.950 . S
H542 C550 0.950 . S
H543 C552 0.950 . S
H544 C554 0.950 . S
H545 C556 0.950 . S
H546 C558 0.950 . S
H547 C559 0.950 . S
C548 H540 0.950 . S
C548 C549 1.386 . S
C548 C550 1.391 . S
C549 C548 1.386 . S
C549 C553 1.393 . S
C550 H542 0.950 . S
C550 C548 1.391 . S
C550 C551 1.400 . S
C551 C550 1.400 . S
C551 C552 1.398 . S
C551 C557 1.491 . S
C552 H543 0.950 . S
C552 C551 1.398 . S
C552 C553 1.391 . S
C553 H541 0.950 . S
C553 C549 1.393 . S
C553 C552 1.391 . S
C554 H544 0.950 . S
C554 C555 1.386 . S
C554 C556 1.391 . S
C555 C554 1.386 . S
C555 C559 1.393 . S
C556 H545 0.950 . S
C556 C554 1.391 . S
C556 C557 1.400 . S
C557 C551 1.491 . S
C557 C556 1.400 . S
C557 C558 1.398 . S
C558 H546 0.950 . S
C558 C557 1.398 . S
C558 C559 1.391 . S
C559 H547 0.950 . S
C559 C555 1.393 . S
C559 C558 1.391 . S
H560 C568 0.950 . S
H561 C573 0.950 . S
H562 C570 0.950 . S
H563 C572 0.950 . S
H564 C574 0.950 . S
H565 C576 0.950 . S
H566 C578 0.950 . S
H567 C579 0.950 . S
C568 H560 0.950 . S
C568 C569 1.386 . S
C568 C570 1.391 . S
C569 C568 1.386 . S
C569 C573 1.393 . S
C570 H562 0.950 . S
C570 C568 1.391 . S
C570 C571 1.400 . S
C571 C570 1.400 . S
C571 C572 1.398 . S
C571 C577 1.491 . S
C572 H563 0.950 . S
C572 C571 1.398 . S
C572 C573 1.391 . S
C573 H561 0.950 . S
C573 C569 1.393 . S
C573 C572 1.391 . S
C574 H564 0.950 . S
C574 C575 1.386 . S
C574 C576 1.391 . S
C575 C574 1.386 . S
C575 C579 1.393 . S
C576 H565 0.950 . S
C576 C574 1.391 . S
C576 C577 1.400 . S
C577 C571 1.491 . S
C577 C576 1.400 . S
C577 C578 1.398 . S
C578 H566 0.950 . S
C578 C577 1.398 . S
C578 C579 1.391 . S
C579 H567 0.950 . S
C579 C575 1.393 . S
C579 C578 1.391 . S
H580 C588 0.950 . S
H581 C593 0.950 . S
H582 C590 0.950 . S
H583 C592 0.950 . S
H584 C594 0.950 . S
H585 C596 0.950 . S
H586 C598 0.950 . S
H587 C599 0.950 . S
C588 H580 0.950 . S
C588 C589 1.386 . S
C588 C590 1.391 . S
C589 C588 1.386 . S
C589 C593 1.393 . S
C590 H582 0.950 . S
C590 C588 1.391 . S
C590 C591 1.400 . S
C591 C590 1.400 . S
C591 C592 1.398 . S
C591 C597 1.491 . S
C592 H583 0.950 . S
C592 C591 1.398 . S
C592 C593 1.391 . S
C593 H581 0.950 . S
C593 C589 1.393 . S
C593 C592 1.391 . S
C594 H584 0.950 . S
C594 C595 1.386 . S
C594 C596 1.391 . S
C595 C594 1.386 . S
C595 C599 1.393 . S
C596 H585 0.950 . S
C596 C594 1.391 . S
C596 C597 1.400 . S
C597 C591 1.491 . S
C597 C596 1.400 . S
C597 C598 1.398 . S
C598 H586 0.950 . S
C598 C597 1.398 . S
C598 C599 1.391 . S
C599 H587 0.950 . S
C599 C595 1.393 . S
C599 C598 1.391 . S
H600 C608 0.950 . S
H601 C613 0.950 . S
H602 C610 0.950 . S
H603 C612 0.950 . S
H604 C614 0.950 . S
H605 C616 0.950 . S
H606 C618 0.950 . S
H607 C619 0.950 . S
C608 H600 0.950 . S
C608 C609 1.386 . S
C608 C610 1.391 . S
C609 C608 1.386 . S
C609 C613 1.393 . S
C610 H602 0.950 . S
C610 C608 1.391 . S
C610 C611 1.400 . S
C611 C610 1.400 . S
C611 C612 1.398 . S
C611 C617 1.491 . S
C612 H603 0.950 . S
C612 C611 1.398 . S
C612 C613 1.391 . S
C613 H601 0.950 . S
C613 C609 1.393 . S
C613 C612 1.391 . S
C614 H604 0.950 . S
C614 C615 1.386 . S
C614 C616 1.391 . S
C615 C614 1.386 . S
C615 C619 1.393 . S
C616 H605 0.950 . S
C616 C614 1.391 . S
C616 C617 1.400 . S
C617 C611 1.491 . S
C617 C616 1.400 . S
C617 C618 1.398 . S
C618 H606 0.950 . S
C618 C617 1.398 . S
C618 C619 1.391 . S
C619 H607 0.950 . S
C619 C615 1.393 . S
C619 C618 1.391 . S
H620 C628 0.950 . S
H621 C633 0.950 . S
H622 C630 0.950 . S
H623 C632 0.950 . S
H624 C634 0.950 . S
H625 C636 0.950 . S
H626 C638 0.950 . S
H627 C639 0.950 . S
C628 H620 0.950 . S
C628 C629 1.386 . S
C628 C630 1.391 . S
C629 C628 1.386 . S
C629 C633 1.393 . S
C630 H622 0.950 . S
C630 C628 1.391 . S
C630 C631 1.400 . S
C631 C630 1.400 . S
C631 C632 1.398 . S
C631 C637 1.491 . S
C632 H623 0.950 . S
C632 C631 1.398 . S
C632 C633 1.391 . S
C633 H621 0.950 . S
C633 C629 1.393 . S
C633 C632 1.391 . S
C634 H624 0.950 . S
C634 C635 1.386 . S
C634 C636 1.391 . S
C635 C634 1.386 . S
C635 C639 1.393 . S
C636 H625 0.950 . S
C636 C634 1.391 . S
C636 C637 1.400 . S
C637 C631 1.491 . S
C637 C636 1.400 . S
C637 C638 1.398 . S
C638 H626 0.950 . S
C638 C637 1.398 . S
C638 C639 1.391 . S
C639 H627 0.950 . S
C639 C635 1.393 . S
C639 C638 1.391 . S
H640 C648 0.950 . S
H641 C653 0.950 . S
H642 C650 0.950 . S
H643 C652 0.950 . S
H644 C654 0.950 . S
H645 C656 0.950 . S
H646 C658 0.950 . S
H647 C659 0.950 . S
C648 H640 0.950 . S
C648 C649 1.386 . S
C648 C650 1.391 . S
C649 C648 1.386 . S
C649 C653 1.393 . S
C650 H642 0.950 . S
C650 C648 1.391 . S
C650 C651 1.400 . S
C651 C650 1.400 . S
C651 C652 1.398 . S
C651 C657 1.491 . S
C652 H643 0.950 . S
C652 C651 1.398 . S
C652 C653 1.391 . S
C653 H641 0.950 . S
C653 C649 1.393 . S
C653 C652 1.391 . S
C654 H644 0.950 . S
C654 C655 1.386 . S
C654 C656 1.391 . S
C655 C654 1.386 . S
C655 C659 1.393 . S
C656 H645 0.950 . S
C656 C654 1.391 . S
C656 C657 1.400 . S
C657 C651 1.491 . S
C657 C656 1.400 . S
C657 C658 1.398 . S
C658 H646 0.950 . S
C658 C657 1.398 . S
C658 C659 1.391 . S
C659 H647 0.950 . S
C659 C655 1.393 . S
C659 C658 1.391 . S
H660 C668 0.950 . S
H661 C673 0.950 . S
H662 C670 0.950 . S
H663 C672 0.950 . S
H664 C674 0.950 . S
H665 C676 0.950 . S
H666 C678 0.950 . S
H667 C679 0.950 . S
C668 H660 0.950 . S
C668 C669 1.386 . S
C668 C670 1.391 . S
C669 C668 1.386 . S
C669 C673 1.393 . S
C670 H662 0.950 . S
C670 C668 1.391 . S
C670 C671 1.400 . S
C671 C670 1.400 . S
C671 C672 1.398 . S
C671 C677 1.491 . S
C672 H663 0.950 . S
C672 C671 1.398 . S
C672 C673 1.391 . S
C673 H661 0.950 . S
C673 C669 1.393 . S
C673 C672 1.391 . S
C674 H664 0.950 . S
C674 C675 1.386 . S
C674 C676 1.391 . S
C675 C674 1.386 . S
C675 C679 1.393 . S
C676 H665 0.950 . S
C676 C674 1.391 . S
C676 C677 1.400 . S
C677 C671 1.491 . S
C677 C676 1.400 . S
C677 C678 1.398 . S
C678 H666 0.950 . S
C678 C677 1.398 . S
C678 C679 1.391 . S
C679 H667 0.950 . S
C679 C675 1.393 . S
C679 C678 1.391 . S
H680 C688 0.950 . S
H681 C693 0.950 . S
H682 C690 0.950 . S
H683 C692 0.950 . S
H684 C694 0.950 . S
H685 C696 0.950 . S
H686 C698 0.950 . S
H687 C699 0.950 . S
C688 H680 0.950 . S
C688 C689 1.386 . S
C688 C690 1.391 . S
C689 C688 1.386 . S
C689 C693 1.393 . S
C690 H682 0.950 . S
C690 C688 1.391 . S
C690 C691 1.400 . S
C691 C690 1.400 . S
C691 C692 1.398 . S
C691 C697 1.491 . S
C692 H683 0.950 . S
C692 C691 1.398 . S
C692 C693 1.391 . S
C693 H681 0.950 . S
C693 C689 1.393 . S
C693 C692 1.391 . S
C694 H684 0.950 . S
C694 C695 1.386 . S
C694 C696 1.391 . S
C695 C694 1.386 . S
C695 C699 1.393 . S
C696 H685 0.950 . S
C696 C694 1.391 . S
C696 C697 1.400 . S
C697 C691 1.491 . S
C697 C696 1.400 . S
C697 C698 1.398 . S
C698 H686 0.950 . S
C698 C697 1.398 . S
C698 C699 1.391 . S
C699 H687 0.950 . S
C699 C695 1.393 . S
C699 C698 1.391 . S
H700 C708 0.950 . S
H701 C713 0.950 . S
H702 C710 0.950 . S
H703 C712 0.950 . S
H704 C714 0.950 . S
H705 C716 0.950 . S
H706 C718 0.950 . S
H707 C719 0.950 . S
C708 H700 0.950 . S
C708 C709 1.386 . S
C708 C710 1.391 . S
C709 C708 1.386 . S
C709 C713 1.393 . S
C710 H702 0.950 . S
C710 C708 1.391 . S
C710 C711 1.400 . S
C711 C710 1.400 . S
C711 C712 1.398 . S
C711 C717 1.491 . S
C712 H703 0.950 . S
C712 C711 1.398 . S
C712 C713 1.391 . S
C713 H701 0.950 . S
C713 C709 1.393 . S
C713 C712 1.391 . S
C714 H704 0.950 . S
C714 C715 1.386 . S
C714 C716 1.391 . S
C715 C714 1.386 . S
C715 C719 1.393 . S
C716 H705 0.950 . S
C716 C714 1.391 . S
C716 C717 1.400 . S
C717 C711 1.491 . S
C717 C716 1.400 . S
C717 C718 1.398 . S
C718 H706 0.950 . S
C718 C717 1.398 . S
C718 C719 1.391 . S
C719 H707 0.950 . S
C719 C715 1.393 . S
C719 C718 1.391 . S
H720 C728 0.950 . S
H721 C733 0.950 . S
H722 C730 0.950 . S
H723 C732 0.950 . S
H724 C734 0.950 . S
H725 C736 0.950 . S
H726 C738 0.950 . S
H727 C739 0.950 . S
C728 H720 0.950 . S
C728 C729 1.386 . S
C728 C730 1.391 . S
C729 C728 1.386 . S
C729 C733 1.393 1_455 S
C730 H722 0.950 . S
C730 C728 1.391 . S
C730 C731 1.400 . S
C731 C730 1.400 . S
C731 C732 1.398 1_455 S
C731 C737 1.491 . S
C732 H723 0.950 . S
C732 C731 1.398 1_655 S
C732 C733 1.391 . S
C733 H721 0.950 . S
C733 C729 1.393 1_655 S
C733 C732 1.391 . S
C734 H724 0.950 . S
C734 C735 1.397 1_655 S
C734 C736 1.391 . S
C735 C734 1.397 1_455 S
C735 C739 1.403 . S
C736 H725 0.950 . S
C736 C734 1.391 . S
C736 C737 1.400 1_655 S
C737 C731 1.491 . S
C737 C736 1.400 1_455 S
C737 C738 1.398 . S
C738 H726 0.950 . S
C738 C737 1.398 . S
C738 C739 1.391 . S
C739 H727 0.950 . S
C739 C735 1.403 . S
C739 C738 1.391 . S
H740 C748 0.950 . S
H741 C753 0.950 . S
H742 C750 0.950 . S
H743 C752 0.950 . S
H744 C754 0.950 . S
H745 C756 0.950 . S
H746 C758 0.950 . S
H747 C759 0.950 . S
C748 H740 0.950 . S
C748 C749 1.386 . S
C748 C750 1.391 . S
C749 C748 1.386 . S
C749 C753 1.393 . S
C750 H742 0.950 . S
C750 C748 1.391 . S
C750 C751 1.400 . S
C751 C750 1.400 . S
C751 C752 1.398 . S
C751 C757 1.491 . S
C752 H743 0.950 . S
C752 C751 1.398 . S
C752 C753 1.391 . S
C753 H741 0.950 . S
C753 C749 1.393 . S
C753 C752 1.391 . S
C754 H744 0.950 . S
C754 C755 1.386 . S
C754 C756 1.391 . S
C755 C754 1.386 . S
C755 C759 1.393 . S
C756 H745 0.950 . S
C756 C754 1.391 . S
C756 C757 1.400 . S
C757 C751 1.491 . S
C757 C756 1.400 . S
C757 C758 1.398 . S
C758 H746 0.950 . S
C758 C757 1.398 . S
C758 C759 1.391 . S
C759 H747 0.950 . S
C759 C755 1.393 . S
C759 C758 1.391 . S
H760 C768 0.950 . S
H761 C773 0.950 . S
H762 C770 0.950 . S
H763 C772 0.950 . S
H764 C774 0.950 . S
H765 C776 0.950 . S
H766 C778 0.950 . S
H767 C779 0.950 . S
C768 H760 0.950 . S
C768 C769 1.386 . S
C768 C770 1.391 . S
C769 C768 1.386 . S
C769 C773 1.393 . S
C770 H762 0.950 . S
C770 C768 1.391 . S
C770 C771 1.400 . S
C771 C770 1.400 . S
C771 C772 1.398 . S
C771 C777 1.491 . S
C772 H763 0.950 . S
C772 C771 1.398 . S
C772 C773 1.391 . S
C773 H761 0.950 . S
C773 C769 1.393 . S
C773 C772 1.391 . S
C774 H764 0.950 . S
C774 C775 1.386 . S
C774 C776 1.391 . S
C775 C774 1.386 . S
C775 C779 1.393 . S
C776 H765 0.950 . S
C776 C774 1.391 . S
C776 C777 1.400 . S
C777 C771 1.491 . S
C777 C776 1.400 . S
C777 C778 1.398 . S
C778 H766 0.950 . S
C778 C777 1.398 . S
C778 C779 1.391 . S
C779 H767 0.950 . S
C779 C775 1.393 . S
C779 C778 1.391 . S
H780 C788 0.950 . S
H781 C793 0.950 . S
H782 C790 0.950 . S
H783 C792 0.950 . S
H784 C794 0.950 . S
H785 C796 0.950 . S
H786 C798 0.950 . S
H787 C799 0.950 . S
C788 H780 0.950 . S
C788 C789 1.386 . S
C788 C790 1.391 . S
C789 C788 1.386 . S
C789 C793 1.393 . S
C790 H782 0.950 . S
C790 C788 1.391 . S
C790 C791 1.400 . S
C791 C790 1.400 . S
C791 C792 1.398 . S
C791 C797 1.491 . S
C792 H783 0.950 . S
C792 C791 1.398 . S
C792 C793 1.391 . S
C793 H781 0.950 . S
C793 C789 1.393 . S
C793 C792 1.391 . S
C794 H784 0.950 . S
C794 C795 1.386 . S
C794 C796 1.391 . S
C795 C794 1.386 . S
C795 C799 1.393 . S
C796 H785 0.950 . S
C796 C794 1.391 . S
C796 C797 1.400 . S
C797 C791 1.491 . S
C797 C796 1.400 . S
C797 C798 1.398 . S
C798 H786 0.950 . S
C798 C797 1.398 . S
C798 C799 1.391 . S
C799 H787 0.950 . S
C799 C795 1.393 . S
C799 C798 1.391 . S
H800 C808 0.950 . S
H801 C813 0.950 . S
H802 C810 0.950 . S
H803 C812 0.950 . S
H804 C814 0.950 . S
H805 C816 0.950 . S
H806 C818 0.950 . S
H807 C819 0.950 . S
C808 H800 0.950 . S
C808 C809 1.386 . S
C808 C810 1.391 . S
C809 C808 1.386 . S
C809 C813 1.393 . S
C810 H802 0.950 . S
C810 C808 1.391 . S
C810 C811 1.400 . S
C811 C810 1.400 . S
C811 C812 1.398 . S
C811 C817 1.491 . S
C812 H803 0.950 . S
C812 C811 1.398 . S
C812 C813 1.391 . S
C813 H801 0.950 . S
C813 C809 1.393 . S
C813 C812 1.391 . S
C814 H804 0.950 . S
C814 C815 1.386 . S
C814 C816 1.391 . S
C815 C814 1.386 . S
C815 C819 1.393 . S
C816 H805 0.950 . S
C816 C814 1.391 . S
C816 C817 1.400 . S
C817 C811 1.491 . S
C817 C816 1.400 . S
C817 C818 1.398 . S
C818 H806 0.950 . S
C818 C817 1.398 . S
C818 C819 1.391 . S
C819 H807 0.950 . S
C819 C815 1.393 . S
C819 C818 1.391 . S
H820 C828 0.950 . S
H821 C833 0.950 . S
H822 C830 0.950 . S
H823 C832 0.950 . S
H824 C834 0.950 . S
H825 C836 0.950 . S
H826 C838 0.950 . S
H827 C839 0.950 . S
C828 H820 0.950 . S
C828 C829 1.386 1_655 S
C828 C830 1.391 . S
C829 C828 1.386 1_455 S
C829 C833 1.393 . S
C830 H822 0.950 . S
C830 C828 1.391 . S
C830 C831 1.400 1_655 S
C831 C830 1.400 1_455 S
C831 C832 1.398 . S
C831 C837 1.491 . S
C832 H823 0.950 . S
C832 C831 1.398 . S
C832 C833 1.391 . S
C833 H821 0.950 . S
C833 C829 1.393 . S
C833 C832 1.391 . S
C834 H824 0.950 . S
C834 C835 1.386 . S
C834 C836 1.391 . S
C835 C834 1.386 . S
C835 C839 1.393 1_455 S
C836 H825 0.950 . S
C836 C834 1.391 . S
C836 C837 1.400 . S
C837 C831 1.491 . S
C837 C836 1.400 . S
C837 C838 1.398 1_455 S
C838 H826 0.950 . S
C838 C837 1.398 1_655 S
C838 C839 1.391 . S
C839 H827 0.950 . S
C839 C835 1.393 1_655 S
C839 C838 1.391 . S
C489 C9 0.483 . S
C495 C451 0.430 . S
C509 C49 0.343 . S
C515 C301 0.383 . S
C529 C89 0.323 . S
C535 C361 0.372 . S
C549 C26 0.387 . S
C555 C421 0.435 . S
C575 C331 0.412 . S
C569 C66 0.531 . S
C595 C391 0.438 . S
C589 C106 0.541 . S
C609 C43 2.952 . S
C615 C181 2.788 . S
C629 C83 3.093 . S
C635 C271 3.078 . S
C649 C22 3.152 . S
C655 C151 3.140 . S
C675 C211 3.130 . S
C669 C62 3.149 . S
C695 C241 2.832 . S
C689 C102 3.003 . S
C709 C3 2.943 . S
C715 C121 2.792 . S
C735 C260 1.740 1_554 S
C729 C15 1.737 . S
C749 C55 1.741 . S
C755 C140 1.761 . S
C769 C95 1.745 . S
C775 C200 1.751 . S
C795 C380 1.053 . S
C789 C42 1.069 . S
C815 C440 1.072 1_556 S
C809 C82 1.081 . S
C829 C2 1.055 . S
C835 C320 1.047 . S
