# Generated by pormake.
# Topology pts, (4,4)-cn, num edge types: 1
# Building blocks:
#     Node 0, Type 0, BuildingBlock: NAWXER_clean_linker_0, # of connection points: 4
#     Node 1, Type 0, BuildingBlock: NAWXER_clean_linker_0, # of connection points: 4
#     Node 2, Type 1, BuildingBlock: AZAVOO_clean_sbu_0, # of connection points: 4
#     Node 3, Type 1, BuildingBlock: AZAVOO_clean_sbu_0, # of connection points: 4
#     Edge 4, Type (0, 1), BuildingBlock: MIFKUJ_clean_linker_0, # of connection points: 2
#     Edge 5, Type (0, 1), BuildingBlock: MIFKUJ_clean_linker_0, # of connection points: 2
#     Edge 6, Type (0, 1), BuildingBlock: MIFKUJ_clean_linker_0, # of connection points: 2
#     Edge 7, Type (0, 1), BuildingBlock: MIFKUJ_clean_linker_0, # of connection points: 2
#     Edge 8, Type (0, 1), BuildingBlock: MIFKUJ_clean_linker_0, # of connection points: 2
#     Edge 9, Type (0, 1), BuildingBlock: MIFKUJ_clean_linker_0, # of connection points: 2
#     Edge 10, Type (0, 1), BuildingBlock: MIFKUJ_clean_linker_0, # of connection points: 2
#     Edge 11, Type (0, 1), BuildingBlock: MIFKUJ_clean_linker_0, # of connection points: 2
# Relax obj value: 0.000
# Max RMSD: 0.036
# Mean RMSD: 0.020
data_MOF--net-pts--node1-AZAVOO_clean_sbu_0--node2-NAWXER_clean_linker_0--edge1-MIFKUJ_clean_linker_0
_symmetry_space_group_name_H-M    P1
_symmetry_Int_Tables_number       1
_symmetry_cell_setting            triclinic
loop_
_symmetry_equiv_pos_as_xyz
'x, y, z'
_cell_length_a     36.22813
_cell_length_b     37.03166
_cell_length_c     53.572864
_cell_angle_alpha  89.942434
_cell_angle_beta   95.838124
_cell_angle_gamma 89.93539
loop_
_atom_site_label
_atom_site_type_symbol
_atom_site_fract_x
_atom_site_fract_y
_atom_site_fract_z
_atom_type_partial_charge
C0 C 0.66587 0.05916 0.97002 0.0
C1 C 0.67188 0.03315 0.95178 0.0
C2 C 0.63462 0.05707 0.98326 0.0
C3 C 0.60877 0.02909 0.97835 0.0
C4 C 0.64576 0.00539 0.94674 0.0
C5 C 0.61425 0.00363 0.95972 0.0
C6 C 0.57578 0.02653 0.99239 0.0
C7 C 0.67453 0.99534 0.04493 0.0
C8 C 0.6812 0.01713 0.06641 0.0
C9 C 0.64108 -0.0021 0.02959 0.0
C10 C 0.61383 0.02295 0.03497 0.0
C11 C 0.65347 0.0416 0.07208 0.0
C12 C 0.62014 0.04441 0.05655 0.0
C13 C 0.57811 0.02576 0.01887 0.0
C14 C 0.41818 0.00202 0.03819 0.0
C15 C 0.41583 0.02615 0.05826 0.0
C16 C 0.44957 0.00144 0.02504 0.0
C17 C 0.47891 0.02567 0.03117 0.0
C18 C 0.44596 0.04937 0.06496 0.0
C19 C 0.4771 0.04911 0.05157 0.0
C20 C 0.51194 0.02636 0.01692 0.0
C21 C 0.41323 0.05341 0.96206 0.0
C22 C 0.407 0.02834 0.94238 0.0
C23 C 0.44668 0.05322 0.97759 0.0
C24 C 0.47423 0.02751 0.97402 0.0
C25 C 0.43496 0.00317 0.93856 0.0
C26 C 0.46826 0.00287 0.95417 0.0
C27 C 0.5097 0.02651 0.99038 0.0
H28 H 0.68561 0.08079 0.97427 0.0
H29 H 0.63061 0.07731 0.99732 0.0
H30 H 0.64956 0.98526 0.93256 0.0
H31 H 0.59445 0.98201 0.95554 0.0
H32 H 0.69523 0.97635 0.03983 0.0
H33 H 0.63647 0.97999 0.01362 0.0
H34 H 0.65723 0.05825 0.08875 0.0
H35 H 0.59931 0.06349 0.06136 0.0
H36 H 0.39557 0.98382 0.03236 0.0
H37 H 0.45076 0.98215 0.00996 0.0
H38 H 0.44567 0.06764 0.08071 0.0
H39 H 0.49966 0.06759 0.05698 0.0
H40 H 0.39248 0.07353 0.96518 0.0
H41 H 0.45106 0.07321 0.99234 0.0
H42 H 0.4309 0.98332 0.92371 0.0
H43 H 0.48921 0.98297 0.95096 0.0
N44 N 0.54173 0.02646 0.97918 0.0
N45 N 0.54609 0.02611 0.0301 0.0
C46 C 0.05103 0.63455 0.5509 0.0
C47 C 0.02055 0.63626 0.56516 0.0
C48 C 0.05473 0.6058 0.53445 0.0
C49 C 0.02783 0.57842 0.5318 0.0
C50 C 0.99338 0.60912 0.56213 0.0
C51 C 0.99711 0.58042 0.54572 0.0
C52 C 0.03347 0.54563 0.51693 0.0
C53 C 0.02048 0.63352 0.4582 0.0
C54 C 0.05086 0.63775 0.44407 0.0
C55 C 0.01913 0.60445 0.47475 0.0
C56 C 0.0483 0.5793 0.47764 0.0
C57 C 0.0803 0.61289 0.44738 0.0
C58 C 0.07891 0.58387 0.46389 0.0
C59 C 0.0454 0.54612 0.49266 0.0
C60 C 0.03256 0.39224 0.45916 0.0
C61 C 0.06366 0.39058 0.44546 0.0
C62 C 0.02788 0.42122 0.47523 0.0
C63 C 0.05445 0.44889 0.47813 0.0
C64 C 0.09038 0.41811 0.44863 0.0
C65 C 0.08572 0.44702 0.46471 0.0
C66 C 0.04812 0.48168 0.49285 0.0
C67 C 0.05752 0.39284 0.55112 0.0
C68 C 0.02612 0.38872 0.56431 0.0
C69 C 0.06041 0.4223 0.5351 0.0
C70 C 0.0318 0.44799 0.53182 0.0
C71 C 0.99742 0.41434 0.56079 0.0
C72 C 1.00034 0.44376 0.54482 0.0
C73 C 0.03583 0.48119 0.51703 0.0
H74 H 0.07227 0.6552 0.55268 0.0
H75 H 0.07923 0.60441 0.52448 0.0
H76 H 0.96985 0.60939 0.57309 0.0
H77 H 0.97627 0.55935 0.54423 0.0
H78 H 0.99711 0.65189 0.45579 0.0
H79 H 0.99465 0.60093 0.48453 0.0
H80 H 0.10433 0.61569 0.43705 0.0
H81 H 0.10162 0.56466 0.46569 0.0
H82 H 0.01116 0.37177 0.4568 0.0
H83 H 0.00288 0.4226 0.48467 0.0
H84 H 0.11484 0.4174 0.43858 0.0
H85 H 0.10642 0.46822 0.46648 0.0
H86 H 0.08037 0.37388 0.55373 0.0
H87 H 0.08549 0.42556 0.52593 0.0
H88 H 0.97266 0.41169 0.57039 0.0
H89 H 0.97806 0.46342 0.54272 0.0
N90 N 0.02899 0.51318 0.52804 0.0
N91 N 0.05243 0.51414 0.48169 0.0
Mg92 Mg 0.09071 0.00636 0.26711 0.0
O93 O 0.03343 0.00388 0.24421 0.0
O94 O 0.99135 -0.00312 0.27159 0.0
Mg95 Mg 0.02081 0.99277 0.31122 0.0
C96 C 0.99982 0.00065 0.24917 0.0
C97 C 0.11934 0.00458 0.21478 0.0
O98 O 0.10277 0.97313 0.21559 0.0
O99 O 0.07873 0.06373 0.28027 0.0
O100 O 0.03916 0.05161 0.30858 0.0
O101 O 0.09631 0.94602 0.2657 0.0
O102 O 0.07136 0.97548 0.29552 0.0
C103 C 0.05861 0.07389 0.29726 0.0
C104 C 0.07981 0.94511 0.286 0.0
O105 O 0.11772 0.02639 0.23296 0.0
Mg106 Mg 0.9962 0.00346 0.744 0.0
O107 O 0.053 0.00249 0.76757 0.0
O108 O 0.09558 0.99249 0.74099 0.0
Mg109 Mg 0.06703 0.98453 0.70144 0.0
C110 C 0.08674 -0.00143 0.76307 0.0
C111 C 0.96783 0.00769 0.79629 0.0
O112 O 0.98561 0.97669 0.79745 0.0
O113 O 0.00921 0.05924 0.72843 0.0
O114 O 0.04875 0.04361 0.70085 0.0
O115 O 0.98922 0.94338 0.74773 0.0
O116 O 0.01591 0.96961 0.71735 0.0
C117 C 0.02938 0.06728 0.71097 0.0
C118 C 0.00608 0.94031 0.72767 0.0
O119 O 0.9685 0.0271 0.77675 0.0
H120 H 0.38286 0.08514 0.07784 0.0
H121 H 0.32915 0.08614 0.10196 0.0
H122 H 0.3178 0.97083 0.09362 0.0
H123 H 0.37241 0.96917 0.0704 0.0
H124 H 0.24954 0.01092 0.08424 0.0
H125 H 0.3559 -0.00017 0.14632 0.0
H126 H 0.41665 0.01837 0.16731 0.0
H127 H 0.37126 0.12128 0.18503 0.0
H128 H 0.31033 0.10352 0.1638 0.0
H129 H 0.13834 0.95858 0.17848 0.0
H130 H 0.18424 0.96808 0.14898 0.0
H131 H 0.20134 0.07721 0.17588 0.0
H132 H 0.15612 0.06741 0.20619 0.0
H133 H 0.265 0.04648 0.17396 0.0
H134 H 0.15753 0.05734 0.11578 0.0
H135 H 0.09647 0.04098 0.09424 0.0
H136 H 0.14212 0.94264 0.06805 0.0
H137 H 0.20337 0.95814 0.08974 0.0
C138 C 0.3693 0.05987 0.08134 0.0
C139 C 0.38228 0.02702 0.07224 0.0
C140 C 0.33839 0.06059 0.09497 0.0
C141 C 0.31962 0.02856 0.09958 0.0
C142 C 0.33184 0.99587 0.0901 0.0
C143 C 0.36301 0.99503 0.07673 0.0
C144 C 0.28791 0.02892 0.11498 0.0
C145 C 0.25283 0.0184 0.10391 0.0
C146 C 0.29213 0.03988 0.14037 0.0
C147 C 0.3287 0.05051 0.15322 0.0
C148 C 0.35896 0.02654 0.15449 0.0
C149 C 0.39341 0.03688 0.16647 0.0
C150 C 0.39784 0.07103 0.17743 0.0
C151 C 0.36781 0.09487 0.17649 0.0
C152 C 0.33331 0.08467 0.1645 0.0
C153 C 0.15141 0.98482 0.17792 0.0
C154 C 0.14363 0.01221 0.19477 0.0
C155 C 0.17758 0.99029 0.16088 0.0
C156 C 0.19607 0.02351 0.15996 0.0
C157 C 0.18746 0.05134 0.17622 0.0
C158 C 0.16151 0.04575 0.19349 0.0
C159 C 0.22629 0.02804 0.14338 0.0
C160 C 0.26129 0.03943 0.15421 0.0
C161 C 0.22182 0.01826 0.11767 0.0
C162 C 0.18501 0.0088 0.10457 0.0
C163 C 0.1545 0.03209 0.10559 0.0
C164 C 0.11986 0.02299 0.09333 0.0
C165 C 0.1154 0.99076 0.07983 0.0
C166 C 0.14561 0.96759 0.07853 0.0
C167 C 0.18031 0.97654 0.09078 0.0
H168 H 0.08855 0.98376 0.07034 0.0
H169 H 0.42453 0.07898 0.1867 0.0
H170 H 0.04588 0.31835 0.55789 0.0
H171 H 0.04166 0.26807 0.58693 0.0
H172 H 0.99535 0.33913 0.63942 0.0
H173 H 0.00076 0.38999 0.61079 0.0
H174 H 0.04617 0.29448 0.66328 0.0
H175 H 0.93922 0.2817 0.60508 0.0
H176 H 0.90308 0.27875 0.56359 0.0
H177 H 0.9642 0.18473 0.54515 0.0
H178 H 0.00112 0.18741 0.58641 0.0
H179 H 0.99552 0.12827 0.72772 0.0
H180 H 0.99051 0.18774 0.70709 0.0
H181 H 0.05543 0.14873 0.6496 0.0
H182 H 0.06116 0.09013 0.66991 0.0
H183 H 0.98432 0.18131 0.63228 0.0
H184 H 0.09614 0.2008 0.68945 0.0
H185 H 0.13074 0.20429 0.73147 0.0
H186 H 0.05621 0.2864 0.75269 0.0
H187 H 0.02082 0.28298 0.71088 0.0
C188 C 0.03512 0.32339 0.5757 0.0
C189 C 0.02349 0.35813 0.58196 0.0
C190 C 0.03238 0.29456 0.59219 0.0
C191 C 0.01763 0.29978 0.61517 0.0
C192 C 0.00657 0.3345 0.62171 0.0
C193 C 0.00937 0.36342 0.60523 0.0
C194 C 0.01395 0.26873 0.63221 0.0
C195 C 0.032 0.26998 0.65668 0.0
C196 C 0.99538 0.2368 0.62363 0.0
C197 C 0.97311 0.2349 0.59881 0.0
C198 C 0.94514 0.26053 0.59212 0.0
C199 C 0.92449 0.25889 0.56865 0.0
C200 C 0.93138 0.23161 0.55173 0.0
C201 C 0.9589 0.20586 0.55828 0.0
C202 C 0.97967 0.20739 0.58172 0.0
C203 C 0.00907 0.13255 0.71085 0.0
C204 C 0.02858 0.10432 0.70044 0.0
C205 C 0.00616 0.16645 0.69913 0.0
C206 C 0.0224 0.17233 0.67678 0.0
C207 C 0.04254 0.14455 0.66676 0.0
C208 C 0.04585 0.11106 0.67852 0.0
C209 C 0.01764 0.20673 0.66287 0.0
C210 C 0.99783 0.2061 0.639 0.0
C211 C 0.03422 0.23921 0.67211 0.0
C212 C 0.05553 0.24127 0.69718 0.0
C213 C 0.08689 0.21932 0.70317 0.0
C214 C 0.1067 0.22135 0.72692 0.0
C215 C 0.0956 0.24546 0.74477 0.0
C216 C 0.06473 0.26767 0.73887 0.0
C217 C 0.04479 0.2657 0.71515 0.0
H218 H 0.11098 0.247 0.76315 0.0
H219 H 0.91536 0.23038 0.53356 0.0
H220 H 0.72164 0.07124 0.09122 0.0
H221 H 0.77851 0.06554 0.11949 0.0
H222 H 0.77924 0.95059 0.1065 0.0
H223 H 0.72114 0.95572 0.07944 0.0
H224 H 0.79468 0.96176 0.1534 0.0
H225 H 0.8405 0.00942 0.08034 0.0
H226 H 0.84416 0.05094 0.04467 0.0
H227 H 0.86898 0.13905 0.09563 0.0
H228 H 0.86496 0.09816 0.13163 0.0
H229 H 0.0051 0.99508 0.19851 0.0
H230 H 0.95417 0.99445 0.16471 0.0
H231 H 0.8753 0.00852 0.21909 0.0
H232 H 0.92563 0.00814 0.25285 0.0
H233 H 0.9036 0.04133 0.14765 0.0
H234 H 0.79644 0.96502 0.20232 0.0
H235 H 0.79616 0.91805 0.23499 0.0
H236 H 0.90004 0.87695 0.215 0.0
H237 H 0.90069 0.92332 0.18199 0.0
C238 C 0.73365 0.04467 0.09453 0.0
C239 C 0.71666 0.01395 0.08299 0.0
C240 C 0.76654 0.04152 0.11045 0.0
C241 C 0.78356 0.0077 0.11486 0.0
C242 C 0.76677 0.97701 0.10331 0.0
C243 C 0.73368 0.98007 0.08761 0.0
C244 C 0.818 0.00413 0.13233 0.0
C245 C 0.81852 0.97909 0.15205 0.0
C246 C 0.8496 0.02603 0.13027 0.0
C247 C 0.85214 0.05075 0.10869 0.0
C248 C 0.84647 0.0377 0.08394 0.0
C249 C 0.84865 0.06112 0.06366 0.0
C250 C 0.85672 0.09762 0.06788 0.0
C251 C 0.86271 0.11077 0.09239 0.0
C252 C 0.86053 0.08748 0.11275 0.0
C253 C 0.97689 -0.00202 0.20326 0.0
C254 C 0.96944 0.0013 0.22843 0.0
C255 C 0.94782 -0.00231 0.18391 0.0
C256 C 0.91084 0.00082 0.18938 0.0
C257 C 0.9035 0.00515 0.21443 0.0
C258 C 0.9324 0.00507 0.23374 0.0
C259 C 0.87973 -0.0003 0.16905 0.0
C260 C 0.87983 0.02385 0.14884 0.0
C261 C 0.84914 0.97618 0.17019 0.0
C262 C 0.84873 0.94787 0.18981 0.0
C263 C 0.81913 0.94585 0.20481 0.0
C264 C 0.81892 0.91935 0.22341 0.0
C265 C 0.84811 0.8946 0.22711 0.0
C266 C 0.87751 0.89621 0.21217 0.0
C267 C 0.87783 0.92263 0.19353 0.0
H268 H 0.84791 0.87413 0.24153 0.0
H269 H 0.8584 0.11571 0.05215 0.0
H270 H 0.07597 0.66385 0.59809 0.0
H271 H 0.07124 0.71157 0.62908 0.0
H272 H 0.95396 0.72127 0.60623 0.0
H273 H 0.95872 0.67435 0.57462 0.0
H274 H 0.98526 0.78553 0.61016 0.0
H275 H 0.98468 0.68076 0.66152 0.0
H276 H 0.00657 0.62202 0.679 0.0
H277 H 0.10903 0.67058 0.70925 0.0
H278 H 0.08798 0.72954 0.69163 0.0
H279 H 0.97849 0.87444 0.74003 0.0
H280 H 0.97954 0.81837 0.71572 0.0
H281 H 0.04749 0.87022 0.66467 0.0
H282 H 0.04572 0.92606 0.68814 0.0
H283 H 0.03246 0.77216 0.7 0.0
H284 H 0.015 0.85034 0.60578 0.0
H285 H 0.9888 0.90805 0.58909 0.0
H286 H 0.91309 0.90959 0.64576 0.0
H287 H 0.93846 0.85166 0.66256 0.0
C288 C 0.04924 0.67637 0.5995 0.0
C289 C 0.01773 0.66541 0.58385 0.0
C290 C 0.04648 0.70329 0.61745 0.0
C291 C 0.01215 0.71961 0.62019 0.0
C292 C 0.98068 0.70886 0.60452 0.0
C293 C 0.98341 0.68195 0.58656 0.0
C294 C 0.00944 0.74905 0.63863 0.0
C295 C 0.99544 0.78251 0.62981 0.0
C296 C 0.02208 0.74491 0.66438 0.0
C297 C 0.03485 0.70952 0.67507 0.0
C298 C 0.012 0.67887 0.67173 0.0
C299 C 0.02424 0.64554 0.68169 0.0
C300 C 0.0592 0.64255 0.69518 0.0
C301 C 0.08197 0.67293 0.69878 0.0
C302 C 0.06987 0.70632 0.68883 0.0
C303 C 0.99418 0.87367 0.72387 0.0
C304 C 0.01176 0.90488 0.71592 0.0
C305 C 0.99477 0.84163 0.71004 0.0
C306 C 0.01297 0.84045 0.68814 0.0
C307 C 0.03269 0.87079 0.68126 0.0
C308 C 0.03181 0.90275 0.69485 0.0
C309 C 0.00933 0.80872 0.67128 0.0
C310 C 0.02209 0.77496 0.68038 0.0
C311 C 0.99487 0.8123 0.64584 0.0
C312 C 0.97885 0.84679 0.63553 0.0
C313 C 0.99262 0.86289 0.61458 0.0
C314 C 0.97794 0.89566 0.60513 0.0
C315 C 0.94936 0.91252 0.6164 0.0
C316 C 0.9353 0.89657 0.63709 0.0
C317 C 0.94984 0.86378 0.6466 0.0
H318 H 0.93808 0.93792 0.60907 0.0
H319 H 0.06862 0.61673 0.70289 0.0
H320 H 0.33625 0.03546 0.95565 0.0
H321 H 0.27807 0.03422 0.92796 0.0
H322 H 0.33979 0.01964 0.86396 0.0
H323 H 0.3979 0.02168 0.89138 0.0
H324 H 0.28491 0.06927 0.85477 0.0
H325 H 0.2981 0.94877 0.88977 0.0
H326 H 0.30541 0.9042 0.92415 0.0
H327 H 0.20356 0.94046 0.95037 0.0
H328 H 0.1959 0.98561 0.91631 0.0
H329 H 0.16144 0.99585 0.75988 0.0
H330 H 0.21132 0.00466 0.79328 0.0
H331 H 0.1312 0.01911 0.84671 0.0
H332 H 0.08063 0.01008 0.81324 0.0
H333 H 0.18997 0.97529 0.86484 0.0
H334 H 0.17322 0.09138 0.82727 0.0
H335 H 0.16543 0.13563 0.79271 0.0
H336 H 0.27325 0.10852 0.77161 0.0
H337 H 0.28148 0.06369 0.80582 0.0
C338 C 0.33738 0.03236 0.93565 0.0
C339 C 0.37165 0.02849 0.9257 0.0
C340 C 0.30414 0.03138 0.91989 0.0
C341 C 0.30461 0.0265 0.89393 0.0
C342 C 0.33879 0.02335 0.88394 0.0
C343 C 0.37196 0.02422 0.89965 0.0
C344 C 0.26964 0.02426 0.87701 0.0
C345 C 0.26426 0.04859 0.85687 0.0
C346 C 0.24212 -0.00198 0.88026 0.0
C347 C 0.24667 0.97084 0.90068 0.0
C348 C 0.27743 0.94744 0.90299 0.0
C349 C 0.28161 0.92204 0.9224 0.0
C350 C 0.25503 0.91958 0.93949 0.0
C351 C 0.22416 0.94245 0.93715 0.0
C352 C 0.21988 0.96794 0.9178 0.0
C353 C 0.15421 0.00079 0.7787 0.0
C354 C 0.11691 0.00244 0.7838 0.0
C355 C 0.18285 0.00599 0.79778 0.0
C356 C 0.17495 0.01309 0.82239 0.0
C357 C 0.13785 0.01385 0.82779 0.0
C358 C 0.10902 0.00875 0.80863 0.0
C359 C 0.20578 0.01971 0.84224 0.0
C360 C 0.21035 0.99629 0.86293 0.0
C361 C 0.23255 0.04687 0.83956 0.0
C362 C 0.22784 0.07396 0.81902 0.0
C363 C 0.19516 0.09465 0.81515 0.0
C364 C 0.19068 0.11987 0.79564 0.0
C365 C 0.21879 0.12483 0.77995 0.0
C366 C 0.25149 0.10463 0.78378 0.0
C367 C 0.25609 0.07934 0.80325 0.0
H368 H 0.21527 0.14438 0.76486 0.0
H369 H 0.25831 0.89988 0.95449 0.0
H370 H 0.08608 0.39525 0.39826 0.0
H371 H 0.0914 0.34628 0.36821 0.0
H372 H 0.05439 0.27012 0.42132 0.0
H373 H 0.0501 0.31871 0.45171 0.0
H374 H 0.11203 0.24376 0.39951 0.0
H375 H 0.99568 0.30263 0.37273 0.0
H376 H 0.95552 0.35415 0.35882 0.0
H377 H 0.01616 0.36882 0.29474 0.0
H378 H 0.05702 0.31764 0.30847 0.0
H379 H 0.02011 0.10332 0.3333 0.0
H380 H 0.02779 0.16277 0.35218 0.0
H381 H 0.10666 0.19101 0.30041 0.0
H382 H 0.09982 0.13064 0.28135 0.0
H383 H 0.03799 0.24569 0.31628 0.0
H384 H 0.15224 0.18134 0.34341 0.0
H385 H 0.18735 0.12692 0.35808 0.0
H386 H 0.12587 0.12095 0.42239 0.0
H387 H 0.08998 0.17503 0.40786 0.0
C388 C 0.07953 0.36799 0.40365 0.0
C389 C 0.06762 0.36083 0.42737 0.0
C390 C 0.08227 0.34011 0.38637 0.0
C391 C 0.07299 0.30463 0.39245 0.0
C392 C 0.06166 0.29734 0.41624 0.0
C393 C 0.05892 0.32516 0.43351 0.0
C394 C 0.07459 0.27492 0.37407 0.0
C395 C 0.09599 0.24436 0.38127 0.0
C396 C 0.05421 0.2759 0.35005 0.0
C397 C 0.0297 0.30664 0.3418 0.0
C398 C 0.00066 0.31706 0.35579 0.0
C399 C 0.97773 0.34615 0.34792 0.0
C400 C 0.98337 0.36483 0.32596 0.0
C401 C 0.01189 0.35438 0.31178 0.0
C402 C 0.03493 0.32534 0.31959 0.0
C403 C 0.03883 0.12211 0.32557 0.0
C404 C 0.05971 0.11193 0.30594 0.0
C405 C 0.04306 0.15616 0.33641 0.0
C406 C 0.06791 0.18096 0.32776 0.0
C407 C 0.08734 0.172 0.30727 0.0
C408 C 0.08341 0.13755 0.29647 0.0
C409 C 0.07516 0.21478 0.34191 0.0
C410 C 0.05506 0.24584 0.33413 0.0
C411 C 0.0965 0.21429 0.36548 0.0
C412 C 0.11823 0.182 0.37442 0.0
C413 C 0.14598 0.16821 0.36055 0.0
C414 C 0.16607 0.13748 0.36887 0.0
C415 C 0.15878 0.12044 0.39113 0.0
C416 C 0.13146 0.13416 0.40514 0.0
C417 C 0.11127 0.16487 0.39689 0.0
H418 H 0.17436 0.09665 0.39754 0.0
H419 H 0.96558 0.38734 0.31988 0.0
H420 H 0.69846 0.09143 0.928 0.0
H421 H 0.75268 0.0936 0.90403 0.0
H422 H 0.77483 0.98126 0.92081 0.0
H423 H 0.72049 0.97885 0.94458 0.0
H424 H 0.83912 0.0281 0.92688 0.0
H425 H 0.7342 -0.00098 0.86679 0.0
H426 H 0.67193 0.00941 0.84481 0.0
H427 H 0.70722 0.11205 0.81847 0.0
H428 H 0.7696 0.10248 0.84063 0.0
H429 H 0.95284 0.9671 0.83655 0.0
H430 H 0.90683 0.97893 0.86561 0.0
H431 H 0.88135 0.08164 0.82977 0.0
H432 H 0.9268 0.06943 0.79999 0.0
H433 H 0.82011 0.04739 0.8348 0.0
H434 H 0.9266 0.07503 0.89053 0.0
H435 H 0.989 0.0666 0.91277 0.0
H436 H 0.95223 0.97079 0.948 0.0
H437 H 0.88971 0.97832 0.9257 0.0
C438 C 0.7151 0.06731 0.9267 0.0
C439 C 0.70527 0.03492 0.93801 0.0
C440 C 0.74592 0.06856 0.91299 0.0
C441 C 0.76763 0.03757 0.91065 0.0
C442 C 0.75842 0.00546 0.92246 0.0
C443 C 0.7273 0.00405 0.93584 0.0
C444 C 0.79916 0.03812 0.89511 0.0
C445 C 0.83509 0.03207 0.90672 0.0
C446 C 0.79384 0.04452 0.86898 0.0
C447 C 0.7564 0.05024 0.85562 0.0
C448 C 0.72857 0.02396 0.85651 0.0
C449 C 0.69328 0.02966 0.84398 0.0
C450 C 0.68558 0.06142 0.83032 0.0
C451 C 0.7132 0.08749 0.82911 0.0
C452 C 0.74853 0.08194 0.84163 0.0
C453 C 0.9379 0.99248 0.83503 0.0
C454 C 0.94342 0.01726 0.81586 0.0
C455 C 0.91166 -0.00068 0.8518 0.0
C456 C 0.89078 0.03136 0.85009 0.0
C457 C 0.89711 0.05673 0.83148 0.0
C458 C 0.92319 0.04976 0.81452 0.0
C459 C 0.86044 0.03684 0.86644 0.0
C460 C 0.82454 0.04396 0.855 0.0
C461 C 0.86592 0.0318 0.89279 0.0
C462 C 0.9035 0.02711 0.90628 0.0
C463 C 0.93188 0.052 0.90287 0.0
C464 C 0.96727 0.04741 0.91552 0.0
C465 C 0.97459 0.01814 0.93175 0.0
C466 C 0.94652 0.99344 0.93541 0.0
C467 C 0.91108 -0.00211 0.92279 0.0
H468 H 0.00201 0.01464 0.94153 0.0
H469 H 0.65825 0.06578 0.82062 0.0
H470 H 0.02979 0.70823 0.44881 0.0
H471 H 0.03032 0.75646 0.41765 0.0
H472 H 0.07352 0.68219 0.36582 0.0
H473 H 0.0728 0.63376 0.3968 0.0
H474 H 0.11094 0.74494 0.36792 0.0
H475 H 0.98397 0.70875 0.35689 0.0
H476 H 0.92252 0.69371 0.36997 0.0
H477 H 0.91177 0.8014 0.39798 0.0
H478 H 0.97342 0.81696 0.3854 0.0
H479 H 0.09193 0.87621 0.26996 0.0
H480 H 0.08257 0.81978 0.29246 0.0
H481 H 0.04004 0.88013 0.35217 0.0
H482 H 0.04922 0.93622 0.33 0.0
H483 H 0.99987 0.81944 0.34142 0.0
H484 H 0.1294 0.85286 0.35705 0.0
H485 H 0.19129 0.86808 0.34474 0.0
H486 H 0.197 0.76523 0.30837 0.0
H487 H 0.13488 0.7496 0.3202 0.0
C488 C 0.03905 0.70209 0.43069 0.0
C489 C 0.05129 0.66719 0.42529 0.0
C490 C 0.03933 0.72965 0.4129 0.0
C491 C 0.05158 0.72277 0.38932 0.0
C492 C 0.06397 0.68804 0.38391 0.0
C493 C 0.06372 0.66047 0.40168 0.0
C494 C 0.05245 0.75217 0.37061 0.0
C495 C 0.08649 0.76079 0.36174 0.0
C496 C 0.02066 0.77313 0.36285 0.0
C497 C 0.98347 0.76393 0.37037 0.0
C498 C 0.96864 0.72915 0.36601 0.0
C499 C 0.93374 0.72054 0.37331 0.0
C500 C 0.91328 0.74656 0.38485 0.0
C501 C 0.92766 0.78127 0.38906 0.0
C502 C 0.96256 0.79001 0.38182 0.0
C503 C 0.08019 0.87737 0.28774 0.0
C504 C 0.07129 0.91071 0.29817 0.0
C505 C 0.07494 0.84516 0.30058 0.0
C506 C 0.06089 0.84585 0.32407 0.0
C507 C 0.05078 0.87898 0.33403 0.0
C508 C 0.05605 0.91107 0.32128 0.0
C509 C 0.05845 0.81253 0.33912 0.0
C510 C 0.02415 0.8032 0.34732 0.0
C511 C 0.09 0.79092 0.3463 0.0
C512 C 0.12734 0.80026 0.33924 0.0
C513 C 0.14373 0.83362 0.34625 0.0
C514 C 0.17887 0.8423 0.33939 0.0
C515 C 0.19802 0.81769 0.32571 0.0
C516 C 0.1821 0.7843 0.31892 0.0
C517 C 0.14695 0.77551 0.3257 0.0
H518 H 0.22522 0.82445 0.32042 0.0
H519 H 0.88627 0.73984 0.39049 0.0
loop_
_geom_bond_atom_site_label_1
_geom_bond_atom_site_label_2
_geom_bond_distance
_geom_bond_site_symmetry_2
_ccdc_geom_bond_type
C0 C1 1.384 . S
C0 C2 1.384 . S
C0 H28 0.931 . S
C1 C0 1.384 . S
C1 C4 1.382 1_545 S
C2 C0 1.384 . S
C2 C3 1.381 . S
C2 H29 0.930 . S
C3 C2 1.381 . S
C3 C5 1.381 1_545 S
C3 C6 1.487 . S
C4 C1 1.382 1_565 S
C4 C5 1.387 . S
C4 H30 0.930 . S
C5 C3 1.381 1_565 S
C5 C4 1.387 . S
C5 H31 0.931 . S
C6 C3 1.487 . S
C6 C13 1.399 1_556 S
C6 N44 1.343 . S
C7 C8 1.384 1_565 S
C7 C9 1.384 . S
C7 H32 0.931 . S
C8 C7 1.384 1_545 S
C8 C11 1.382 . S
C9 C7 1.384 . S
C9 C10 1.381 1_565 S
C9 H33 0.930 . S
C10 C9 1.381 1_545 S
C10 C12 1.381 . S
C10 C13 1.487 . S
C11 C8 1.382 . S
C11 C12 1.387 . S
C11 H34 0.930 . S
C12 C10 1.381 . S
C12 C11 1.387 . S
C12 H35 0.931 . S
C13 C6 1.399 1_554 S
C13 C10 1.487 . S
C13 N45 1.343 . S
C14 C15 1.384 1_565 S
C14 C16 1.384 . S
C14 H36 0.931 . S
C15 C14 1.384 1_545 S
C15 C18 1.382 . S
C16 C14 1.384 . S
C16 C17 1.381 1_565 S
C16 H37 0.930 . S
C17 C16 1.381 1_545 S
C17 C19 1.381 . S
C17 C20 1.487 . S
C18 C15 1.382 . S
C18 C19 1.387 . S
C18 H38 0.930 . S
C19 C17 1.381 . S
C19 C18 1.387 . S
C19 H39 0.931 . S
C20 C17 1.487 . S
C20 C27 1.399 1_554 S
C20 N45 1.343 . S
C21 C22 1.384 . S
C21 C23 1.384 . S
C21 H40 0.931 . S
C22 C21 1.384 . S
C22 C25 1.382 1_545 S
C23 C21 1.384 . S
C23 C24 1.381 . S
C23 H41 0.930 . S
C24 C23 1.381 . S
C24 C26 1.381 1_545 S
C24 C27 1.487 . S
C25 C22 1.382 1_565 S
C25 C26 1.387 . S
C25 H42 0.930 . S
C26 C24 1.381 1_565 S
C26 C25 1.387 . S
C26 H43 0.931 . S
C27 C20 1.399 1_556 S
C27 C24 1.487 . S
C27 N44 1.343 . S
H28 C0 0.931 . S
H29 C2 0.930 . S
H30 C4 0.930 . S
H31 C5 0.931 . S
H32 C7 0.931 . S
H33 C9 0.930 . S
H34 C11 0.930 . S
H35 C12 0.931 . S
H36 C14 0.931 . S
H37 C16 0.930 . S
H38 C18 0.930 . S
H39 C19 0.931 . S
H40 C21 0.931 . S
H41 C23 0.930 . S
H42 C25 0.930 . S
H43 C26 0.931 . S
N44 C6 1.343 . S
N44 C27 1.343 . S
N45 C13 1.343 . S
N45 C20 1.343 . S
C46 C47 1.384 . S
C46 C48 1.384 . S
C46 H74 0.931 . S
C47 C46 1.384 . S
C47 C50 1.382 . S
C48 C46 1.384 . S
C48 C49 1.381 . S
C48 H75 0.930 . S
C49 C48 1.381 . S
C49 C51 1.381 . S
C49 C52 1.487 . S
C50 C47 1.382 . S
C50 C51 1.387 . S
C50 H76 0.930 1_455 S
C51 C49 1.381 . S
C51 C50 1.387 . S
C51 H77 0.931 1_455 S
C52 C49 1.487 . S
C52 C59 1.399 . S
C52 N90 1.343 . S
C53 C54 1.384 . S
C53 C55 1.384 . S
C53 H78 0.931 . S
C54 C53 1.384 . S
C54 C57 1.382 . S
C55 C53 1.384 . S
C55 C56 1.381 . S
C55 H79 0.930 . S
C56 C55 1.381 . S
C56 C58 1.381 . S
C56 C59 1.487 . S
C57 C54 1.382 . S
C57 C58 1.387 . S
C57 H80 0.930 . S
C58 C56 1.381 . S
C58 C57 1.387 . S
C58 H81 0.931 . S
C59 C52 1.399 . S
C59 C56 1.487 . S
C59 N91 1.343 . S
C60 C61 1.384 . S
C60 C62 1.384 . S
C60 H82 0.931 . S
C61 C60 1.384 . S
C61 C64 1.382 . S
C62 C60 1.384 . S
C62 C63 1.381 . S
C62 H83 0.930 . S
C63 C62 1.381 . S
C63 C65 1.381 . S
C63 C66 1.487 . S
C64 C61 1.382 . S
C64 C65 1.387 . S
C64 H84 0.930 . S
C65 C63 1.381 . S
C65 C64 1.387 . S
C65 H85 0.931 . S
C66 C63 1.487 . S
C66 C73 1.399 . S
C66 N91 1.343 . S
C67 C68 1.384 . S
C67 C69 1.384 . S
C67 H86 0.931 . S
C68 C67 1.384 . S
C68 C71 1.382 . S
C69 C67 1.384 . S
C69 C70 1.381 . S
C69 H87 0.930 . S
C70 C69 1.381 . S
C70 C72 1.381 . S
C70 C73 1.487 . S
C71 C68 1.382 . S
C71 C72 1.387 . S
C71 H88 0.930 1_455 S
C72 C70 1.381 . S
C72 C71 1.387 . S
C72 H89 0.931 1_455 S
C73 C66 1.399 . S
C73 C70 1.487 . S
C73 N90 1.343 . S
H74 C46 0.931 . S
H75 C48 0.930 . S
H76 C50 0.930 1_655 S
H77 C51 0.931 1_655 S
H78 C53 0.931 . S
H79 C55 0.930 . S
H80 C57 0.930 . S
H81 C58 0.931 . S
H82 C60 0.931 . S
H83 C62 0.930 . S
H84 C64 0.930 . S
H85 C65 0.931 . S
H86 C67 0.931 . S
H87 C69 0.930 . S
H88 C71 0.930 1_655 S
H89 C72 0.931 1_655 S
N90 C52 1.343 . S
N90 C73 1.343 . S
N91 C59 1.343 . S
N91 C66 1.343 . S
Mg92 O93 2.028 . S
Mg92 O99 1.986 . S
Mg92 O101 2.114 1_545 S
Mg92 O102 2.251 1_545 S
Mg92 O105 2.010 . S
O93 Mg92 2.028 . S
O93 C96 1.250 . S
O94 Mg95 2.028 . S
O94 C96 1.248 1_655 S
Mg95 O94 2.028 . S
Mg95 O100 2.032 1_655 S
Mg95 O102 2.079 1_645 S
C96 O93 1.250 . S
C96 O94 1.248 1_455 S
C97 O98 1.264 . S
C97 O105 1.249 . S
O98 C97 1.264 . S
O99 Mg92 1.986 . S
O99 C103 1.246 . S
O100 Mg95 2.032 1_455 S
O100 C103 1.259 . S
O101 Mg92 2.114 1_565 S
O101 C104 1.252 . S
O102 Mg92 2.251 1_565 S
O102 Mg95 2.079 1_465 S
O102 C104 1.273 . S
C103 O99 1.246 . S
C103 O100 1.259 . S
C104 O101 1.252 . S
C104 O102 1.273 . S
O105 Mg92 2.010 . S
O105 C97 1.249 . S
Mg106 O107 2.015 1_655 S
Mg106 O113 1.984 1_655 S
Mg106 O115 2.113 1_545 S
Mg106 O116 2.239 1_645 S
Mg106 O119 2.027 . S
O107 Mg106 2.015 1_455 S
O107 C110 1.250 . S
O108 Mg109 2.028 . S
O108 C110 1.248 . S
Mg109 O108 2.028 . S
Mg109 O114 2.032 . S
Mg109 O116 2.079 1_545 S
C110 O107 1.250 . S
C110 O108 1.248 . S
C111 O112 1.264 . S
C111 O119 1.249 . S
O112 C111 1.264 . S
O113 Mg106 1.984 1_455 S
O113 C117 1.246 . S
O114 Mg109 2.032 . S
O114 C117 1.259 . S
O115 Mg106 2.113 1_565 S
O115 C118 1.248 1_655 S
O116 Mg106 2.239 1_465 S
O116 Mg109 2.079 1_565 S
O116 C118 1.273 . S
C117 O113 1.246 . S
C117 O114 1.259 . S
C118 O115 1.248 1_455 S
C118 O116 1.273 . S
O119 Mg106 2.027 . S
O119 C111 1.249 . S
H120 C138 0.951 . S
H121 C140 0.951 . S
H122 C142 0.950 . S
H123 C143 0.950 . S
H124 C145 0.950 1_565 S
H125 C148 0.944 1_565 S
H126 C149 0.950 1_565 S
H127 C151 0.950 . S
H128 C152 0.950 . S
H129 C153 0.951 . S
H130 C155 0.951 . S
H131 C157 0.950 . S
H132 C158 0.950 . S
H133 C160 0.950 . S
H134 C163 0.950 . S
H135 C164 0.950 . S
H136 C166 0.950 . S
H137 C167 0.950 . S
C138 H120 0.951 . S
C138 C139 1.366 . S
C138 C140 1.388 . S
C139 C138 1.366 . S
C139 C143 1.385 1_545 S
C140 H121 0.951 . S
C140 C138 1.388 . S
C140 C141 1.366 . S
C141 C140 1.366 . S
C141 C142 1.414 1_545 S
C141 C144 1.499 . S
C142 H122 0.950 . S
C142 C141 1.414 1_565 S
C142 C143 1.374 . S
C143 H123 0.950 . S
C143 C139 1.385 1_565 S
C143 C142 1.374 . S
C144 C141 1.499 . S
C144 C145 1.373 . S
C144 C146 1.389 . S
C145 H124 0.950 1_545 S
C145 C144 1.373 . S
C145 C161 1.377 . S
C146 C144 1.389 . S
C146 C147 1.524 . S
C146 C160 1.377 . S
C147 C146 1.524 . S
C147 C148 1.402 . S
C147 C152 1.363 . S
C148 H125 0.944 1_545 S
C148 C147 1.402 . S
C148 C149 1.335 . S
C149 H126 0.950 1_545 S
C149 C148 1.335 . S
C149 C150 1.287 . S
C150 C149 1.287 . S
C150 C151 1.524 . S
C150 H169 0.913 . S
C151 H127 0.950 . S
C151 C150 1.524 . S
C151 C152 1.415 . S
C152 H128 0.950 . S
C152 C147 1.363 . S
C152 C151 1.415 . S
C153 H129 0.951 . S
C153 C154 1.366 1_565 S
C153 C155 1.388 . S
C154 C153 1.366 1_545 S
C154 C158 1.385 . S
C155 H130 0.951 . S
C155 C153 1.388 . S
C155 C156 1.366 1_565 S
C156 C155 1.366 1_545 S
C156 C157 1.414 . S
C156 C159 1.499 . S
C157 H131 0.950 . S
C157 C156 1.414 . S
C157 C158 1.374 . S
C158 H132 0.950 . S
C158 C154 1.385 . S
C158 C157 1.374 . S
C159 C156 1.499 . S
C159 C160 1.373 . S
C159 C161 1.389 . S
C160 H133 0.950 . S
C160 C146 1.377 . S
C160 C159 1.373 . S
C161 C145 1.377 . S
C161 C159 1.389 . S
C161 C162 1.524 . S
C162 C161 1.524 . S
C162 C163 1.397 . S
C162 C167 1.363 1_545 S
C163 H134 0.950 . S
C163 C162 1.397 . S
C163 C164 1.334 . S
C164 H135 0.950 . S
C164 C163 1.334 . S
C164 C165 1.269 1_545 S
C165 C164 1.269 1_565 S
C165 C166 1.542 . S
C165 H168 1.002 . S
C166 H136 0.950 . S
C166 C165 1.542 . S
C166 C167 1.415 . S
C167 H137 0.950 . S
C167 C162 1.363 1_565 S
C167 C166 1.415 . S
H168 C165 1.002 . S
H169 C150 0.913 . S
H170 C188 0.951 . S
H171 C190 0.951 . S
H172 C192 0.950 . S
H173 C193 0.950 . S
H174 C195 0.950 . S
H175 C198 0.950 . S
H176 C199 0.950 . S
H177 C201 0.950 . S
H178 C202 0.950 . S
H179 C203 0.951 . S
H180 C205 0.951 . S
H181 C207 0.950 . S
H182 C208 0.950 . S
H183 C210 0.950 1_655 S
H184 C213 0.950 . S
H185 C214 0.950 . S
H186 C216 0.950 . S
H187 C217 0.950 . S
C188 H170 0.951 . S
C188 C189 1.366 . S
C188 C190 1.388 . S
C189 C188 1.366 . S
C189 C193 1.385 . S
C190 H171 0.951 . S
C190 C188 1.388 . S
C190 C191 1.366 . S
C191 C190 1.366 . S
C191 C192 1.414 . S
C191 C194 1.499 . S
C192 H172 0.950 . S
C192 C191 1.414 . S
C192 C193 1.374 . S
C193 H173 0.950 . S
C193 C189 1.385 . S
C193 C192 1.374 . S
C194 C191 1.499 . S
C194 C195 1.373 . S
C194 C196 1.389 . S
C195 H174 0.950 . S
C195 C194 1.373 . S
C195 C211 1.377 . S
C196 C194 1.389 . S
C196 C197 1.524 1_455 S
C196 C210 1.377 . S
C197 C196 1.524 1_655 S
C197 C198 1.397 . S
C197 C202 1.363 . S
C198 H175 0.950 . S
C198 C197 1.397 . S
C198 C199 1.334 . S
C199 H176 0.950 . S
C199 C198 1.334 . S
C199 C200 1.287 . S
C200 C199 1.287 . S
C200 C201 1.524 . S
C200 H219 0.913 . S
C201 H177 0.950 . S
C201 C200 1.524 . S
C201 C202 1.415 . S
C202 H178 0.950 . S
C202 C197 1.363 . S
C202 C201 1.415 . S
C203 H179 0.951 . S
C203 C204 1.366 . S
C203 C205 1.388 . S
C204 C203 1.366 . S
C204 C208 1.385 . S
C205 H180 0.951 . S
C205 C203 1.388 . S
C205 C206 1.366 . S
C206 C205 1.366 . S
C206 C207 1.414 . S
C206 C209 1.499 . S
C207 H181 0.950 . S
C207 C206 1.414 . S
C207 C208 1.374 . S
C208 H182 0.950 . S
C208 C204 1.385 . S
C208 C207 1.374 . S
C209 C206 1.499 . S
C209 C210 1.373 . S
C209 C211 1.389 . S
C210 H183 0.950 1_455 S
C210 C196 1.377 . S
C210 C209 1.373 . S
C211 C195 1.377 . S
C211 C209 1.389 . S
C211 C212 1.524 . S
C212 C211 1.524 . S
C212 C213 1.397 . S
C212 C217 1.363 . S
C213 H184 0.950 . S
C213 C212 1.397 . S
C213 C214 1.334 . S
C214 H185 0.950 . S
C214 C213 1.334 . S
C214 C215 1.287 . S
C215 C214 1.287 . S
C215 C216 1.524 . S
C215 H218 0.999 . S
C216 H186 0.950 . S
C216 C215 1.524 . S
C216 C217 1.415 . S
C217 H187 0.950 . S
C217 C212 1.363 . S
C217 C216 1.415 . S
H218 C215 0.999 . S
H219 C200 0.913 . S
H220 C238 0.951 . S
H221 C240 0.951 . S
H222 C242 0.950 . S
H223 C243 0.950 . S
H224 C245 0.950 . S
H225 C248 0.950 . S
H226 C249 0.950 . S
H227 C251 0.950 . S
H228 C252 0.950 . S
H229 C253 0.951 . S
H230 C255 0.951 . S
H231 C257 0.950 . S
H232 C258 0.950 . S
H233 C260 0.950 . S
H234 C263 0.950 1_545 S
H235 C264 0.950 . S
H236 C266 0.950 . S
H237 C267 0.950 . S
C238 H220 0.951 . S
C238 C239 1.366 . S
C238 C240 1.388 . S
C239 C238 1.366 . S
C239 C243 1.385 1_545 S
C240 H221 0.951 . S
C240 C238 1.388 . S
C240 C241 1.366 . S
C241 C240 1.366 . S
C241 C242 1.414 1_545 S
C241 C244 1.499 . S
C242 H222 0.950 . S
C242 C241 1.414 1_565 S
C242 C243 1.374 . S
C243 H223 0.950 . S
C243 C239 1.385 1_565 S
C243 C242 1.374 . S
C244 C241 1.499 . S
C244 C245 1.373 1_545 S
C244 C246 1.389 . S
C245 H224 0.950 . S
C245 C244 1.373 1_565 S
C245 C261 1.377 . S
C246 C244 1.389 . S
C246 C247 1.524 . S
C246 C260 1.377 . S
C247 C246 1.524 . S
C247 C248 1.397 . S
C247 C252 1.363 . S
C248 H225 0.950 . S
C248 C247 1.397 . S
C248 C249 1.334 . S
C249 H226 0.950 . S
C249 C248 1.334 . S
C249 C250 1.287 . S
C250 C249 1.287 . S
C250 C251 1.524 . S
C250 H269 0.913 . S
C251 H227 0.950 . S
C251 C250 1.524 . S
C251 C252 1.415 . S
C252 H228 0.950 . S
C252 C247 1.363 . S
C252 C251 1.415 . S
C253 H229 0.951 . S
C253 C254 1.366 1_565 S
C253 C255 1.388 . S
C254 C253 1.366 1_545 S
C254 C258 1.385 . S
C255 H230 0.951 . S
C255 C253 1.388 . S
C255 C256 1.366 1_565 S
C256 C255 1.366 1_545 S
C256 C257 1.414 . S
C256 C259 1.499 . S
C257 H231 0.950 . S
C257 C256 1.414 . S
C257 C258 1.374 . S
C258 H232 0.950 . S
C258 C254 1.385 . S
C258 C257 1.374 . S
C259 C256 1.499 . S
C259 C260 1.373 . S
C259 C261 1.389 1_545 S
C260 H233 0.950 . S
C260 C246 1.377 . S
C260 C259 1.373 . S
C261 C245 1.377 . S
C261 C259 1.389 1_565 S
C261 C262 1.524 . S
C262 C261 1.524 . S
C262 C263 1.397 . S
C262 C267 1.363 . S
C263 H234 0.950 1_565 S
C263 C262 1.397 . S
C263 C264 1.334 . S
C264 H235 0.950 . S
C264 C263 1.334 . S
C264 C265 1.287 . S
C265 C264 1.287 . S
C265 C266 1.524 . S
C265 H268 0.999 . S
C266 H236 0.950 . S
C266 C265 1.524 . S
C266 C267 1.415 . S
C267 H237 0.950 . S
C267 C262 1.363 . S
C267 C266 1.415 . S
H268 C265 0.999 . S
H269 C250 0.913 . S
H270 C288 0.951 . S
H271 C290 0.951 . S
H272 C292 0.950 1_655 S
H273 C293 0.950 1_655 S
H274 C295 0.950 . S
H275 C298 0.950 1_655 S
H276 C299 0.950 1_655 S
H277 C301 0.950 . S
H278 C302 0.950 . S
H279 C303 0.951 . S
H280 C305 0.951 . S
H281 C307 0.950 . S
H282 C308 0.950 . S
H283 C310 0.950 . S
H284 C313 0.950 . S
H285 C314 0.950 . S
H286 C316 0.950 . S
H287 C317 0.950 . S
C288 H270 0.951 . S
C288 C289 1.366 . S
C288 C290 1.388 . S
C289 C288 1.366 . S
C289 C293 1.385 . S
C290 H271 0.951 . S
C290 C288 1.388 . S
C290 C291 1.366 . S
C291 C290 1.366 . S
C291 C292 1.414 . S
C291 C294 1.499 . S
C292 H272 0.950 1_455 S
C292 C291 1.414 . S
C292 C293 1.374 . S
C293 H273 0.950 1_455 S
C293 C289 1.385 . S
C293 C292 1.374 . S
C294 C291 1.499 . S
C294 C295 1.373 . S
C294 C296 1.389 . S
C295 H274 0.950 . S
C295 C294 1.373 . S
C295 C311 1.377 . S
C296 C294 1.389 . S
C296 C297 1.524 . S
C296 C310 1.377 . S
C297 C296 1.524 . S
C297 C298 1.397 . S
C297 C302 1.363 . S
C298 H275 0.950 1_455 S
C298 C297 1.397 . S
C298 C299 1.334 . S
C299 H276 0.950 1_455 S
C299 C298 1.334 . S
C299 C300 1.287 . S
C300 C299 1.287 . S
C300 C301 1.524 . S
C300 H319 0.913 . S
C301 H277 0.950 . S
C301 C300 1.524 . S
C301 C302 1.415 . S
C302 H278 0.950 . S
C302 C297 1.363 . S
C302 C301 1.415 . S
C303 H279 0.951 . S
C303 C304 1.366 1_655 S
C303 C305 1.388 . S
C304 C303 1.366 1_455 S
C304 C308 1.385 . S
C305 H280 0.951 . S
C305 C303 1.388 . S
C305 C306 1.366 1_655 S
C306 C305 1.366 1_455 S
C306 C307 1.414 . S
C306 C309 1.499 . S
C307 H281 0.950 . S
C307 C306 1.414 . S
C307 C308 1.374 . S
C308 H282 0.950 . S
C308 C304 1.385 . S
C308 C307 1.374 . S
C309 C306 1.499 . S
C309 C310 1.373 . S
C309 C311 1.389 . S
C310 H283 0.950 . S
C310 C296 1.377 . S
C310 C309 1.373 . S
C311 C295 1.377 . S
C311 C309 1.389 . S
C311 C312 1.524 . S
C312 C311 1.524 . S
C312 C313 1.397 . S
C312 C317 1.363 1_455 S
C313 H284 0.950 . S
C313 C312 1.397 . S
C313 C314 1.334 . S
C314 H285 0.950 . S
C314 C313 1.334 . S
C314 C315 1.287 . S
C315 C314 1.287 . S
C315 C316 1.524 1_455 S
C315 H318 0.999 . S
C316 H286 0.950 . S
C316 C315 1.524 1_655 S
C316 C317 1.415 . S
C317 H287 0.950 . S
C317 C312 1.363 1_655 S
C317 C316 1.415 . S
H318 C315 0.999 . S
H319 C300 0.913 . S
H320 C338 0.951 . S
H321 C340 0.951 . S
H322 C342 0.950 . S
H323 C343 0.950 . S
H324 C345 0.950 . S
H325 C348 0.950 . S
H326 C349 0.950 . S
H327 C351 0.950 . S
H328 C352 0.950 . S
H329 C353 0.951 . S
H330 C355 0.951 . S
H331 C357 0.950 . S
H332 C358 0.950 . S
H333 C360 0.950 . S
H334 C363 0.950 . S
H335 C364 0.950 . S
H336 C366 0.950 . S
H337 C367 0.950 . S
C338 H320 0.951 . S
C338 C339 1.366 . S
C338 C340 1.388 . S
C339 C338 1.366 . S
C339 C343 1.385 . S
C340 H321 0.951 . S
C340 C338 1.388 . S
C340 C341 1.366 . S
C341 C340 1.366 . S
C341 C342 1.414 . S
C341 C344 1.499 . S
C342 H322 0.950 . S
C342 C341 1.414 . S
C342 C343 1.374 . S
C343 H323 0.950 . S
C343 C339 1.385 . S
C343 C342 1.374 . S
C344 C341 1.499 . S
C344 C345 1.373 . S
C344 C346 1.389 1_545 S
C345 H324 0.950 . S
C345 C344 1.373 . S
C345 C361 1.377 . S
C346 C344 1.389 1_565 S
C346 C347 1.524 . S
C346 C360 1.377 . S
C347 C346 1.524 . S
C347 C348 1.397 . S
C347 C352 1.363 . S
C348 H325 0.950 . S
C348 C347 1.397 . S
C348 C349 1.334 . S
C349 H326 0.950 . S
C349 C348 1.334 . S
C349 C350 1.287 . S
C350 C349 1.287 . S
C350 C351 1.524 . S
C350 H369 0.913 . S
C351 H327 0.950 . S
C351 C350 1.524 . S
C351 C352 1.415 . S
C352 H328 0.950 . S
C352 C347 1.363 . S
C352 C351 1.415 . S
C353 H329 0.951 . S
C353 C354 1.366 . S
C353 C355 1.388 . S
C354 C353 1.366 . S
C354 C358 1.385 . S
C355 H330 0.951 . S
C355 C353 1.388 . S
C355 C356 1.366 . S
C356 C355 1.366 . S
C356 C357 1.414 . S
C356 C359 1.499 . S
C357 H331 0.950 . S
C357 C356 1.414 . S
C357 C358 1.374 . S
C358 H332 0.950 . S
C358 C354 1.385 . S
C358 C357 1.374 . S
C359 C356 1.499 . S
C359 C360 1.373 1_545 S
C359 C361 1.389 . S
C360 H333 0.950 . S
C360 C346 1.377 . S
C360 C359 1.373 1_565 S
C361 C345 1.377 . S
C361 C359 1.389 . S
C361 C362 1.524 . S
C362 C361 1.524 . S
C362 C363 1.397 . S
C362 C367 1.363 . S
C363 H334 0.950 . S
C363 C362 1.397 . S
C363 C364 1.334 . S
C364 H335 0.950 . S
C364 C363 1.334 . S
C364 C365 1.287 . S
C365 C364 1.287 . S
C365 C366 1.524 . S
C365 H368 0.999 . S
C366 H336 0.950 . S
C366 C365 1.524 . S
C366 C367 1.415 . S
C367 H337 0.950 . S
C367 C362 1.363 . S
C367 C366 1.415 . S
H368 C365 0.999 . S
H369 C350 0.913 . S
H370 C388 0.951 . S
H371 C390 0.951 . S
H372 C392 0.950 . S
H373 C393 0.950 . S
H374 C395 0.950 . S
H375 C398 0.950 . S
H376 C399 0.950 . S
H377 C401 0.950 . S
H378 C402 0.950 . S
H379 C403 0.951 . S
H380 C405 0.951 . S
H381 C407 0.950 . S
H382 C408 0.950 . S
H383 C410 0.950 . S
H384 C413 0.950 . S
H385 C414 0.950 . S
H386 C416 0.950 . S
H387 C417 0.950 . S
C388 H370 0.951 . S
C388 C389 1.366 . S
C388 C390 1.388 . S
C389 C388 1.366 . S
C389 C393 1.385 . S
C390 H371 0.951 . S
C390 C388 1.388 . S
C390 C391 1.366 . S
C391 C390 1.366 . S
C391 C392 1.414 . S
C391 C394 1.499 . S
C392 H372 0.950 . S
C392 C391 1.414 . S
C392 C393 1.374 . S
C393 H373 0.950 . S
C393 C389 1.385 . S
C393 C392 1.374 . S
C394 C391 1.499 . S
C394 C395 1.373 . S
C394 C396 1.389 . S
C395 H374 0.950 . S
C395 C394 1.373 . S
C395 C411 1.377 . S
C396 C394 1.389 . S
C396 C397 1.524 1_455 S
C396 C410 1.377 . S
C397 C396 1.524 1_655 S
C397 C398 1.397 . S
C397 C402 1.363 . S
C398 H375 0.950 . S
C398 C397 1.397 . S
C398 C399 1.334 . S
C399 H376 0.950 . S
C399 C398 1.334 . S
C399 C400 1.287 . S
C400 C399 1.287 . S
C400 C401 1.524 . S
C400 H419 0.913 . S
C401 H377 0.950 . S
C401 C400 1.524 . S
C401 C402 1.415 . S
C402 H378 0.950 . S
C402 C397 1.363 . S
C402 C401 1.415 . S
C403 H379 0.951 . S
C403 C404 1.366 . S
C403 C405 1.388 . S
C404 C403 1.366 . S
C404 C408 1.385 . S
C405 H380 0.951 . S
C405 C403 1.388 . S
C405 C406 1.366 . S
C406 C405 1.366 . S
C406 C407 1.414 . S
C406 C409 1.499 . S
C407 H381 0.950 . S
C407 C406 1.414 . S
C407 C408 1.374 . S
C408 H382 0.950 . S
C408 C404 1.385 . S
C408 C407 1.374 . S
C409 C406 1.499 . S
C409 C410 1.373 . S
C409 C411 1.389 . S
C410 H383 0.950 . S
C410 C396 1.377 . S
C410 C409 1.373 . S
C411 C395 1.377 . S
C411 C409 1.389 . S
C411 C412 1.524 . S
C412 C411 1.524 . S
C412 C413 1.397 . S
C412 C417 1.363 . S
C413 H384 0.950 . S
C413 C412 1.397 . S
C413 C414 1.334 . S
C414 H385 0.950 . S
C414 C413 1.334 . S
C414 C415 1.287 . S
C415 C414 1.287 . S
C415 C416 1.524 . S
C415 H418 0.999 . S
C416 H386 0.950 . S
C416 C415 1.524 . S
C416 C417 1.415 . S
C417 H387 0.950 . S
C417 C412 1.363 . S
C417 C416 1.415 . S
H418 C415 0.999 . S
H419 C400 0.913 . S
H420 C438 0.951 . S
H421 C440 0.951 . S
H422 C442 0.950 . S
H423 C443 0.950 . S
H424 C445 0.950 . S
H425 C448 0.950 . S
H426 C449 0.950 . S
H427 C451 0.950 . S
H428 C452 0.950 . S
H429 C453 0.951 . S
H430 C455 0.951 . S
H431 C457 0.950 . S
H432 C458 0.950 . S
H433 C460 0.950 . S
H434 C463 0.950 . S
H435 C464 0.950 . S
H436 C466 0.950 1_565 S
H437 C467 0.950 . S
C438 H420 0.951 . S
C438 C439 1.366 . S
C438 C440 1.388 . S
C439 C438 1.366 . S
C439 C443 1.385 1_545 S
C440 H421 0.951 . S
C440 C438 1.388 . S
C440 C441 1.366 . S
C441 C440 1.366 . S
C441 C442 1.414 1_545 S
C441 C444 1.499 . S
C442 H422 0.950 . S
C442 C441 1.414 1_565 S
C442 C443 1.374 . S
C443 H423 0.950 . S
C443 C439 1.385 1_565 S
C443 C442 1.374 . S
C444 C441 1.499 . S
C444 C445 1.373 . S
C444 C446 1.389 . S
C445 H424 0.950 . S
C445 C444 1.373 . S
C445 C461 1.377 . S
C446 C444 1.389 . S
C446 C447 1.524 . S
C446 C460 1.377 . S
C447 C446 1.524 . S
C447 C448 1.397 1_545 S
C447 C452 1.363 . S
C448 H425 0.950 . S
C448 C447 1.397 1_565 S
C448 C449 1.334 . S
C449 H426 0.950 . S
C449 C448 1.334 . S
C449 C450 1.287 . S
C450 C449 1.287 . S
C450 C451 1.524 1_565 S
C450 H469 0.913 . S
C451 H427 0.950 . S
C451 C450 1.524 1_545 S
C451 C452 1.415 . S
C452 H428 0.950 . S
C452 C447 1.363 . S
C452 C451 1.415 . S
C453 H429 0.951 . S
C453 C454 1.366 1_565 S
C453 C455 1.388 . S
C454 C453 1.366 1_545 S
C454 C458 1.385 . S
C455 H430 0.951 . S
C455 C453 1.388 . S
C455 C456 1.366 1_565 S
C456 C455 1.366 1_545 S
C456 C457 1.414 . S
C456 C459 1.499 . S
C457 H431 0.950 . S
C457 C456 1.414 . S
C457 C458 1.374 . S
C458 H432 0.950 . S
C458 C454 1.385 . S
C458 C457 1.374 . S
C459 C456 1.499 . S
C459 C460 1.373 . S
C459 C461 1.389 . S
C460 H433 0.950 . S
C460 C446 1.377 . S
C460 C459 1.373 . S
C461 C445 1.377 . S
C461 C459 1.389 . S
C461 C462 1.524 . S
C462 C461 1.524 . S
C462 C463 1.397 . S
C462 C467 1.363 1_545 S
C463 H434 0.950 . S
C463 C462 1.397 . S
C463 C464 1.334 . S
C464 H435 0.950 . S
C464 C463 1.334 . S
C464 C465 1.287 . S
C465 C464 1.287 . S
C465 C466 1.524 . S
C465 H468 0.999 . S
C466 H436 0.950 1_545 S
C466 C465 1.524 . S
C466 C467 1.415 1_545 S
C467 H437 0.950 . S
C467 C462 1.363 1_565 S
C467 C466 1.415 1_565 S
H468 C465 0.999 . S
H469 C450 0.913 . S
H470 C488 0.951 . S
H471 C490 0.951 . S
H472 C492 0.950 . S
H473 C493 0.950 . S
H474 C495 0.950 . S
H475 C498 0.950 . S
H476 C499 0.950 . S
H477 C501 0.950 . S
H478 C502 0.950 . S
H479 C503 0.951 . S
H480 C505 0.951 . S
H481 C507 0.950 . S
H482 C508 0.950 . S
H483 C510 0.957 . S
H484 C513 0.950 . S
H485 C514 0.950 . S
H486 C516 0.950 . S
H487 C517 0.950 . S
C488 H470 0.951 . S
C488 C489 1.366 . S
C488 C490 1.388 . S
C489 C488 1.366 . S
C489 C493 1.385 . S
C490 H471 0.951 . S
C490 C488 1.388 . S
C490 C491 1.366 . S
C491 C490 1.366 . S
C491 C492 1.414 . S
C491 C494 1.499 . S
C492 H472 0.950 . S
C492 C491 1.414 . S
C492 C493 1.374 . S
C493 H473 0.950 . S
C493 C489 1.385 . S
C493 C492 1.374 . S
C494 C491 1.499 . S
C494 C495 1.373 . S
C494 C496 1.389 . S
C495 H474 0.950 . S
C495 C494 1.373 . S
C495 C511 1.377 . S
C496 C494 1.389 . S
C496 C497 1.524 1_455 S
C496 C510 1.377 . S
C497 C496 1.524 1_655 S
C497 C498 1.397 . S
C497 C502 1.363 . S
C498 H475 0.950 . S
C498 C497 1.397 . S
C498 C499 1.334 . S
C499 H476 0.950 . S
C499 C498 1.334 . S
C499 C500 1.287 . S
C500 C499 1.287 . S
C500 C501 1.524 . S
C500 H519 0.913 . S
C501 H477 0.950 . S
C501 C500 1.524 . S
C501 C502 1.415 . S
C502 H478 0.950 . S
C502 C497 1.363 . S
C502 C501 1.415 . S
C503 H479 0.951 . S
C503 C504 1.366 . S
C503 C505 1.388 . S
C504 C503 1.366 . S
C504 C508 1.385 . S
C505 H480 0.951 . S
C505 C503 1.388 . S
C505 C506 1.366 . S
C506 C505 1.366 . S
C506 C507 1.414 . S
C506 C509 1.499 . S
C507 H481 0.950 . S
C507 C506 1.414 . S
C507 C508 1.374 . S
C508 H482 0.950 . S
C508 C504 1.385 . S
C508 C507 1.374 . S
C509 C506 1.499 . S
C509 C510 1.373 . S
C509 C511 1.389 . S
C510 H483 0.957 . S
C510 C496 1.377 . S
C510 C509 1.373 . S
C511 C495 1.377 . S
C511 C509 1.389 . S
C511 C512 1.524 . S
C512 C511 1.524 . S
C512 C513 1.397 . S
C512 C517 1.363 . S
C513 H484 0.950 . S
C513 C512 1.397 . S
C513 C514 1.334 . S
C514 H485 0.950 . S
C514 C513 1.334 . S
C514 C515 1.287 . S
C515 C514 1.287 . S
C515 C516 1.524 . S
C515 H518 0.999 . S
C516 H486 0.950 . S
C516 C515 1.524 . S
C516 C517 1.415 . S
C517 H487 0.950 . S
C517 C512 1.363 . S
C517 C516 1.415 . S
H518 C515 0.999 . S
H519 C500 0.913 . S
C154 C97 1.261 . S
C139 C15 1.504 . S
C204 C117 1.471 . S
C189 C68 1.496 . S
C254 C96 1.463 1_655 S
C239 C8 1.503 . S
C304 C118 1.507 . S
C289 C47 1.506 . S
C354 C110 1.463 . S
C339 C22 1.504 . S
C404 C103 1.470 . S
C389 C61 1.496 . S
C454 C111 1.261 . S
C439 C1 1.505 . S
C489 C54 1.506 . S
C504 C104 1.508 . S
