# Generated by pormake.
# Topology rtl, (3,6)-cn, num edge types: 1
# Building blocks:
#     Node 0, Type 0, BuildingBlock: MIDCAF_clean_linker_0, # of connection points: 3
#     Node 1, Type 0, BuildingBlock: MIDCAF_clean_linker_0, # of connection points: 3
#     Node 2, Type 0, BuildingBlock: MIDCAF_clean_linker_0, # of connection points: 3
#     Node 3, Type 0, BuildingBlock: MIDCAF_clean_linker_0, # of connection points: 3
#     Node 4, Type 1, BuildingBlock: VOLQOD_clean_sbu_1, # of connection points: 6
#     Node 5, Type 1, BuildingBlock: VOLQOD_clean_sbu_1, # of connection points: 6
#     Edge 6, Type (0, 1), BuildingBlock: TEMPAE_clean_linker_10, # of connection points: 2
#     Edge 7, Type (0, 1), BuildingBlock: TEMPAE_clean_linker_10, # of connection points: 2
#     Edge 8, Type (0, 1), BuildingBlock: TEMPAE_clean_linker_10, # of connection points: 2
#     Edge 9, Type (0, 1), BuildingBlock: TEMPAE_clean_linker_10, # of connection points: 2
#     Edge 10, Type (0, 1), BuildingBlock: TEMPAE_clean_linker_10, # of connection points: 2
#     Edge 11, Type (0, 1), BuildingBlock: TEMPAE_clean_linker_10, # of connection points: 2
#     Edge 12, Type (0, 1), BuildingBlock: TEMPAE_clean_linker_10, # of connection points: 2
#     Edge 13, Type (0, 1), BuildingBlock: TEMPAE_clean_linker_10, # of connection points: 2
#     Edge 14, Type (0, 1), BuildingBlock: TEMPAE_clean_linker_10, # of connection points: 2
#     Edge 15, Type (0, 1), BuildingBlock: TEMPAE_clean_linker_10, # of connection points: 2
#     Edge 16, Type (0, 1), BuildingBlock: TEMPAE_clean_linker_10, # of connection points: 2
#     Edge 17, Type (0, 1), BuildingBlock: TEMPAE_clean_linker_10, # of connection points: 2
# Relax obj value: 0.080
# Max RMSD: 0.156
# Mean RMSD: 0.090
data_MOF--net-rtl--node1-VOLQOD_clean_sbu_1--node2-MIDCAF_clean_linker_0--edge1-TEMPAE_clean_linker_10
_symmetry_space_group_name_H-M    P1
_symmetry_Int_Tables_number       1
_symmetry_cell_setting            triclinic
loop_
_symmetry_equiv_pos_as_xyz
'x, y, z'
_cell_length_a     44.88645
_cell_length_b     38.803409
_cell_length_c     29.285788
_cell_angle_alpha  89.731903
_cell_angle_beta   90.360372
_cell_angle_gamma 90.006327
loop_
_atom_site_label
_atom_site_type_symbol
_atom_site_fract_x
_atom_site_fract_y
_atom_site_fract_z
_atom_type_partial_charge
C0 C 0.04443 0.76019 0.12946 0.0
C1 C 0.06314 0.76605 0.16737 0.0
C2 C 0.09225 0.7526 0.16686 0.0
C3 C 0.10274 0.73494 0.12876 0.0
H4 H 0.17399 0.68041 0.0815 0.0
H5 H 0.22215 0.65138 0.08305 0.0
H6 H 0.20988 0.62107 0.94259 0.0
H7 H 0.16164 0.65021 0.94065 0.0
H8 H 0.12702 0.72274 0.88659 0.0
H9 H 0.10975 0.75304 0.81858 0.0
H10 H 0.02271 0.7647 0.87905 0.0
H11 H 0.0405 0.73579 0.94797 0.0
H12 H 0.04037 0.7398 0.06192 0.0
H13 H 0.02168 0.76945 0.12903 0.0
H14 H 0.10747 0.75697 0.19507 0.0
H15 H 0.1256 0.72601 0.12897 0.0
N16 N 0.12257 0.69774 0.04856 0.0
N17 N 0.12277 0.69562 0.96852 0.0
N18 N 0.0844 0.72451 0.00656 0.0
C19 C 0.13542 0.68691 0.00928 0.0
C20 C 0.09719 0.71435 0.96695 0.0
C21 C 0.09695 0.71634 0.04748 0.0
C22 C 0.16396 0.66777 0.01086 0.0
C23 C 0.18138 0.66738 0.05097 0.0
C24 C 0.20904 0.65092 0.05187 0.0
C25 C 0.21971 0.6341 0.01292 0.0
C26 C 0.20205 0.63368 0.97317 0.0
C27 C 0.17453 0.65054 0.97204 0.0
C28 C 0.08524 0.72725 0.9229 0.0
C29 C 0.10405 0.73126 0.88508 0.0
C30 C 0.09407 0.74857 0.84592 0.0
C31 C 0.0649 0.7618 0.84343 0.0
C32 C 0.04554 0.7557 0.8802 0.0
C33 C 0.05567 0.7389 0.91961 0.0
C34 C 0.08453 0.73077 0.08998 0.0
C35 C 0.05508 0.74298 0.09107 0.0
C36 C 0.5588 0.74545 0.36121 0.0
C37 C 0.57939 0.74302 0.32553 0.0
C38 C 0.60711 0.75953 0.32973 0.0
C39 C 0.6145 0.77727 0.36969 0.0
H40 H 0.67224 0.8477 0.42697 0.0
H41 H 0.71661 0.8829 0.43268 0.0
H42 H 0.69908 0.90013 0.57575 0.0
H43 H 0.65504 0.8635 0.57045 0.0
H44 H 0.59132 0.81463 0.61691 0.0
H45 H 0.57364 0.78256 0.68369 0.0
H46 H 0.5754 0.68849 0.60481 0.0
H47 H 0.59062 0.72087 0.53827 0.0
H48 H 0.55046 0.76294 0.42908 0.0
H49 H 0.53736 0.73273 0.35884 0.0
H50 H 0.62329 0.75803 0.30251 0.0
H51 H 0.63637 0.78886 0.37264 0.0
N52 N 0.62531 0.81651 0.45411 0.0
N53 N 0.62325 0.81379 0.53424 0.0
N54 N 0.59246 0.77825 0.48978 0.0
C55 C 0.63499 0.82777 0.49557 0.0
C56 C 0.60203 0.78889 0.53138 0.0
C57 C 0.60374 0.79212 0.45104 0.0
C58 C 0.66013 0.85246 0.49836 0.0
C59 C 0.67755 0.85925 0.45961 0.0
C60 C 0.70301 0.87974 0.46282 0.0
C61 C 0.71157 0.8944 0.50472 0.0
C62 C 0.69346 0.88878 0.54311 0.0
C63 C 0.66811 0.86791 0.54002 0.0
C64 C 0.5919 0.77027 0.57242 0.0
C65 C 0.58759 0.78713 0.61413 0.0
C66 C 0.57766 0.76865 0.65238 0.0
C67 C 0.57266 0.73281 0.64983 0.0
C68 C 0.57784 0.71612 0.60807 0.0
C69 C 0.58687 0.73467 0.5698 0.0
C70 C 0.5945 0.77808 0.4064 0.0
C71 C 0.56638 0.76257 0.40143 0.0
C72 C 0.9596 0.23741 0.88367 0.0
C73 C 0.94039 0.23343 0.84608 0.0
C74 C 0.91244 0.24966 0.84635 0.0
C75 C 0.90339 0.26852 0.88431 0.0
H76 H 0.83598 0.32866 0.93189 0.0
H77 H 0.78891 0.35945 0.93114 0.0
H78 H 0.80297 0.38872 0.07188 0.0
H79 H 0.84966 0.35672 0.07317 0.0
H80 H 0.88125 0.28472 0.1272 0.0
H81 H 0.89669 0.25322 0.19574 0.0
H82 H 0.98092 0.22946 0.13304 0.0
H83 H 0.96553 0.26062 0.06416 0.0
H84 H 0.96526 0.25744 0.95113 0.0
H85 H 0.98122 0.22501 0.88427 0.0
H86 H 0.89735 0.24712 0.81754 0.0
H87 H 0.88133 0.27984 0.884 0.0
N88 N 0.88618 0.30718 0.96462 0.0
N89 N 0.88644 0.30946 0.04464 0.0
N90 N 0.92287 0.27758 0.00637 0.0
C91 C 0.87414 0.31905 0.00399 0.0
C92 C 0.91088 0.2888 0.04606 0.0
C93 C 0.91068 0.28665 0.96553 0.0
C94 C 0.84656 0.34001 0.00269 0.0
C95 C 0.8292 0.34185 0.96264 0.0
C96 C 0.80221 0.35972 0.96212 0.0
C97 C 0.79204 0.37656 0.00148 0.0
C98 C 0.80983 0.37553 0.04118 0.0
C99 C 0.8367 0.35733 0.04185 0.0
C100 C 0.92206 0.2749 0.09006 0.0
C101 C 0.9033 0.2734 0.12828 0.0
C102 C 0.91202 0.25523 0.16742 0.0
C103 C 0.93985 0.23877 0.16938 0.0
C104 C 0.95938 0.24205 0.13237 0.0
C105 C 0.95049 0.25975 0.09293 0.0
C106 C 0.92194 0.27101 0.92302 0.0
C107 C 0.95038 0.25583 0.92195 0.0
C108 C 0.44558 0.28295 0.61472 0.0
C109 C 0.4319 0.27599 0.65676 0.0
C110 C 0.41021 0.24985 0.65894 0.0
C111 C 0.40175 0.23188 0.61958 0.0
H112 H 0.34578 0.15277 0.56548 0.0
H113 H 0.29918 0.12016 0.56625 0.0
H114 H 0.28534 0.14381 0.42357 0.0
H115 H 0.33189 0.17619 0.42238 0.0
H116 H 0.38661 0.20852 0.36589 0.0
H117 H 0.40397 0.23621 0.29586 0.0
H118 H 0.46817 0.29459 0.37432 0.0
H119 H 0.45175 0.26642 0.44346 0.0
H120 H 0.44801 0.27174 0.54379 0.0
H121 H 0.462 0.30325 0.61149 0.0
H122 H 0.39954 0.24352 0.69096 0.0
H123 H 0.38451 0.21246 0.62219 0.0
N124 N 0.38068 0.20146 0.53422 0.0
N125 N 0.38172 0.19982 0.454 0.0
N126 N 0.41622 0.23342 0.4941 0.0
C127 C 0.36942 0.18935 0.49411 0.0
C128 C 0.40534 0.2217 0.45381 0.0
C129 C 0.40417 0.22356 0.5344 0.0
C130 C 0.34251 0.16727 0.49394 0.0
C131 C 0.33295 0.15079 0.53415 0.0
C132 C 0.30638 0.13198 0.5346 0.0
C133 C 0.28868 0.12969 0.49503 0.0
C134 C 0.29851 0.14545 0.45461 0.0
C135 C 0.32525 0.16383 0.45395 0.0
C136 C 0.41756 0.23541 0.41047 0.0
C137 C 0.40474 0.22687 0.36806 0.0
C138 C 0.41456 0.24288 0.32795 0.0
C139 C 0.43736 0.26775 0.32947 0.0
C140 C 0.45087 0.27522 0.37167 0.0
C141 C 0.4412 0.25919 0.41156 0.0
C142 C 0.41489 0.23965 0.57729 0.0
C143 C 0.43732 0.26493 0.57563 0.0
O144 O 0.93079 0.01139 0.50826 0.0
Zn145 Zn 0.97112 0.03463 0.50712 0.0
O146 O 0.00353 0.00094 0.50638 0.0
Zn147 Zn 0.02841 0.00699 0.56092 0.0
Zn148 Zn 0.9868 0.95443 0.50586 0.0
Zn149 Zn 0.02769 0.00765 0.45164 0.0
O150 O 0.06994 0.02181 0.54401 0.0
O151 O 0.06977 0.02084 0.46819 0.0
O152 O 0.97387 0.06503 0.56212 0.0
O153 O 0.01184 0.04376 0.6022 0.0
O154 O 0.0313 0.96276 0.59697 0.0
O155 O 0.00042 0.9272 0.5609 0.0
O156 O -0.00053 0.92814 0.45014 0.0
O157 O 0.97273 0.06557 0.45206 0.0
O158 O 0.02951 0.96447 0.41403 0.0
O159 O 0.01084 0.04572 0.41192 0.0
C160 C 0.92293 0.97985 0.50718 0.0
C161 C 0.08319 0.02583 0.50602 0.0
C162 C 0.01854 0.93355 0.59345 0.0
C163 C 0.99063 0.06529 0.59732 0.0
C164 C 0.01683 0.93521 0.4172 0.0
C165 C 0.98937 0.0668 0.41705 0.0
O166 O 0.94212 0.95573 0.50584 0.0
O167 O 0.57876 0.50652 0.99679 0.0
Zn168 Zn 0.54114 0.53478 0.9947 0.0
O169 O 0.50557 0.50575 0.99635 0.0
Zn170 Zn 0.48017 0.51678 0.9437 0.0
Zn171 Zn 0.5177 0.45755 0.99382 0.0
Zn172 Zn 0.48367 0.51364 0.05304 0.0
O173 O 0.43967 0.53226 0.96388 0.0
O174 O 0.44155 0.5292 0.03958 0.0
O175 O 0.54213 0.56403 0.93785 0.0
O176 O 0.49758 0.55544 0.90624 0.0
O177 O 0.47473 0.47518 0.90289 0.0
O178 O 0.50044 0.43433 0.939 0.0
O179 O 0.50322 0.43109 0.04824 0.0
O180 O 0.54183 0.5671 0.04807 0.0
O181 O 0.48104 0.47032 0.09116 0.0
O182 O 0.50346 0.55072 0.09058 0.0
C183 C 0.58367 0.47426 0.99451 0.0
C184 C 0.42742 0.53573 0.00267 0.0
C185 C 0.48392 0.44417 0.90599 0.0
C186 C 0.5227 0.57063 0.90723 0.0
C187 C 0.48933 0.4394 0.08427 0.0
C188 C 0.52592 0.5701 0.08366 0.0
O189 O 0.56233 0.45271 0.99207 0.0
C190 C 0.23396 0.1296 0.47994 0.0
C191 C 0.25931 0.11239 0.49641 0.0
C192 C 0.20575 0.11421 0.48209 0.0
C193 C 0.20293 0.08057 0.5005 0.0
C194 C 0.22853 0.06287 0.51665 0.0
C195 C 0.25644 0.07917 0.51481 0.0
C196 C 0.17893 0.13414 0.46522 0.0
C197 C 0.22642 0.02676 0.53577 0.0
C198 C 0.12645 0.05501 0.54365 0.0
C199 C 0.11449 0.0378 0.50573 0.0
C200 C 0.15542 0.06858 0.54271 0.0
C201 C 0.17303 0.06423 0.50321 0.0
C202 C 0.16147 0.04583 0.46544 0.0
C203 C 0.13222 0.03312 0.46697 0.0
C204 C 0.16681 0.08855 0.58338 0.0
C205 C 0.17978 0.04014 0.42306 0.0
H206 H 0.23615 0.15547 0.46623 0.0
H207 H 0.27611 0.06582 0.52729 0.0
H208 H 0.16764 0.11981 0.43737 0.0
H209 H 0.16262 0.13705 0.49327 0.0
H210 H 0.18493 0.16017 0.45228 0.0
H211 H 0.24855 0.01622 0.54573 0.0
H212 H 0.21182 0.02651 0.56618 0.0
H213 H 0.21615 0.00941 0.5101 0.0
H214 H 0.11283 0.05887 0.57363 0.0
H215 H 0.12319 0.01956 0.4377 0.0
H216 H 0.17129 0.11562 0.57314 0.0
H217 H 0.18815 0.07744 0.59579 0.0
H218 H 0.1507 0.08861 0.61203 0.0
H219 H 0.18443 0.06523 0.40626 0.0
H220 H 0.16834 0.02314 0.39807 0.0
H221 H 0.20158 0.02846 0.4323 0.0
C222 C 0.25374 0.58454 0.99702 0.0
C223 C 0.24966 0.6181 0.0133 0.0
C224 C 0.28217 0.56949 0.9964 0.0
C225 C 0.30708 0.58873 0.01172 0.0
C226 C 0.30302 0.62259 0.02834 0.0
C227 C 0.2743 0.63678 0.02922 0.0
C228 C 0.28559 0.53312 0.97909 0.0
C229 C 0.32909 0.64412 0.0443 0.0
C230 C 0.37944 0.54396 0.04452 0.0
C231 C 0.39633 0.54833 0.00476 0.0
C232 C 0.35009 0.5563 0.04695 0.0
C233 C 0.33757 0.57395 0.00902 0.0
C234 C 0.35447 0.57835 0.96877 0.0
C235 C 0.38354 0.56525 0.967 0.0
C236 C 0.33255 0.55066 0.09017 0.0
C237 C 0.34203 0.59748 0.92785 0.0
H238 H 0.23462 0.57 0.98506 0.0
H239 H 0.27119 0.66288 0.04136 0.0
H240 H 0.29978 0.53306 0.94822 0.0
H241 H 0.29692 0.51693 0.00526 0.0
H242 H 0.26383 0.52112 0.97037 0.0
H243 H 0.32207 0.66984 0.05679 0.0
H244 H 0.34123 0.6306 0.07219 0.0
H245 H 0.34499 0.64782 0.01584 0.0
H246 H 0.38911 0.53069 0.07371 0.0
H247 H 0.3965 0.5689 0.93624 0.0
H248 H 0.31128 0.53734 0.0822 0.0
H249 H 0.32683 0.57585 0.10558 0.0
H250 H 0.34505 0.53511 0.11584 0.0
H251 H 0.32123 0.58495 0.91583 0.0
H252 H 0.358 0.59848 0.89905 0.0
H253 H 0.33627 0.62426 0.9376 0.0
C254 C 0.75878 0.9086 0.54708 0.0
C255 C 0.74035 0.91333 0.50865 0.0
C256 C 0.78748 0.92288 0.54888 0.0
C257 C 0.79824 0.94186 0.51104 0.0
C258 C 0.77934 0.94807 0.47304 0.0
C259 C 0.75054 0.93401 0.47249 0.0
C260 C 0.80683 0.91613 0.59034 0.0
C261 C 0.79006 0.96802 0.4319 0.0
C262 C 0.86955 0.99411 0.52349 0.0
C263 C 0.8909 0.97077 0.50744 0.0
C264 C 0.83924 0.98511 0.52504 0.0
C265 C 0.8301 0.95228 0.50939 0.0
C266 C 0.85151 0.92889 0.49243 0.0
C267 C 0.88164 0.93831 0.49204 0.0
C268 C 0.81709 0.01046 0.54406 0.0
C269 C 0.8426 0.89384 0.47473 0.0
H270 H 0.75136 0.89242 0.57503 0.0
H271 H 0.73626 0.9385 0.4431 0.0
H272 H 0.82505 0.89817 0.58123 0.0
H273 H 0.81731 0.94039 0.60227 0.0
H274 H 0.79404 0.90462 0.61896 0.0
H275 H 0.7719 0.97297 0.40677 0.0
H276 H 0.79975 0.99305 0.44248 0.0
H277 H 0.80794 0.95328 0.41472 0.0
H278 H 0.8766 0.01917 0.53568 0.0
H279 H 0.89798 0.92025 0.47924 0.0
H280 H 0.80591 0.99905 0.57424 0.0
H281 H 0.79951 0.01612 0.51831 0.0
H282 H 0.82775 0.03509 0.55438 0.0
H283 H 0.83219 0.87853 0.50245 0.0
H284 H 0.86187 0.87914 0.46132 0.0
H285 H 0.82578 0.89667 0.44703 0.0
C286 C 0.74375 0.39119 0.03957 0.0
C287 C 0.76246 0.39391 0.00148 0.0
C288 C 0.71517 0.40582 0.0392 0.0
C289 C 0.70484 0.42318 -0.00044 0.0
C290 C 0.72372 0.42655 0.96127 0.0
C291 C 0.75236 0.41209 0.96281 0.0
C292 C 0.69577 0.40198 0.08086 0.0
C293 C 0.71341 0.44474 0.9183 0.0
C294 C 0.6211 0.42756 0.98194 0.0
C295 C 0.61476 0.46148 0.99511 0.0
C296 C 0.65039 0.41496 0.98269 0.0
C297 C 0.67385 0.43663 -0.00245 0.0
C298 C 0.66764 0.47087 0.01092 0.0
C299 C 0.63818 0.48297 0.00923 0.0
C300 C 0.6562 0.37841 0.9676 0.0
C301 C 0.69206 0.49456 0.02754 0.0
H302 H 0.75111 0.37679 0.06936 0.0
H303 H 0.76682 0.41488 0.93353 0.0
H304 H 0.68753 0.42757 0.09186 0.0
H305 H 0.67599 0.38604 0.07243 0.0
H306 H 0.7078 0.3897 0.10994 0.0
H307 H 0.73106 0.44587 0.89191 0.0
H308 H 0.69377 0.4312 0.90378 0.0
H309 H 0.70632 0.47141 0.92628 0.0
H310 H 0.60317 0.41085 0.97071 0.0
H311 H 0.63345 0.50916 0.01969 0.0
H312 H 0.66608 0.36334 0.9962 0.0
H313 H 0.67253 0.3783 0.93932 0.0
H314 H 0.63559 0.36518 0.95591 0.0
H315 H 0.7031 0.48319 0.05809 0.0
H316 H 0.68354 0.52053 0.03651 0.0
H317 H 0.70934 0.49749 0.00089 0.0
C318 C 0.0358 0.81755 0.19726 0.0
C319 C 0.05314 0.78808 0.20587 0.0
C320 C 0.02816 0.84015 0.23252 0.0
C321 C 0.03857 0.83353 0.2774 0.0
C322 C 0.05546 0.80348 0.28665 0.0
C323 C 0.06232 0.78096 0.25086 0.0
C324 C 0.00977 0.87173 0.22141 0.0
C325 C 0.06714 0.79571 0.33407 0.0
C326 C 0.04762 0.91148 0.35391 0.0
C327 C 0.0225 0.90887 0.38192 0.0
C328 C 0.05335 0.88676 0.32032 0.0
C329 C 0.03319 0.8591 0.31405 0.0
C330 C 0.00774 0.85634 0.34211 0.0
C331 C 0.00283 0.88112 0.37602 0.0
C332 C 0.08099 0.89028 0.29149 0.0
C333 C 0.98548 0.82754 0.33584 0.0
H334 H 0.02897 0.8237 0.16262 0.0
H335 H 0.07525 0.75797 0.25807 0.0
H336 H 0.99055 0.87355 0.24492 0.0
H337 H 0.02348 0.89523 0.2263 0.0
H338 H 0.00125 0.87156 0.18572 0.0
H339 H 0.0789 0.77056 0.33597 0.0
H340 H 0.08282 0.81629 0.34482 0.0
H341 H 0.04858 0.79544 0.35889 0.0
H342 H 0.06304 0.9327 0.35853 0.0
H343 H 0.98327 0.87907 0.3974 0.0
H344 H 0.07464 0.89347 0.25505 0.0
H345 H 0.09464 0.86652 0.29424 0.0
H346 H 0.09494 0.91262 0.30177 0.0
H347 H 0.97595 0.82863 0.30081 0.0
H348 H 0.96696 0.82889 0.36075 0.0
H349 H 0.99671 0.80222 0.33966 0.0
C350 C 0.57221 0.72084 0.73462 0.0
C351 C 0.56265 0.71241 0.69028 0.0
C352 C 0.56449 0.70021 0.77228 0.0
C353 C 0.54772 0.66978 0.76527 0.0
C354 C 0.53747 0.66147 0.72092 0.0
C355 C 0.54445 0.68327 0.68427 0.0
C356 C 0.57489 0.71053 0.8194 0.0
C357 C 0.52003 0.62888 0.71182 0.0
C358 C 0.55687 0.59607 0.84977 0.0
C359 C 0.52943 0.59664 0.87215 0.0
C360 C 0.56316 0.61986 0.81495 0.0
C361 C 0.54195 0.64564 0.80375 0.0
C362 C 0.51465 0.64709 0.82764 0.0
C363 C 0.50844 0.62203 0.86096 0.0
C364 C 0.59206 0.61671 0.78918 0.0
C365 C 0.49201 0.67499 0.81792 0.0
H366 H 0.58642 0.74304 0.73995 0.0
H367 H 0.53595 0.67702 0.65062 0.0
H368 H 0.55607 0.7095 0.84378 0.0
H369 H 0.59208 0.69217 0.83184 0.0
H370 H 0.58454 0.7369 0.81983 0.0
H371 H 0.51404 0.62597 0.67518 0.0
H372 H 0.53333 0.60612 0.72264 0.0
H373 H 0.49925 0.62869 0.73209 0.0
H374 H 0.57298 0.57624 0.85849 0.0
H375 H 0.48736 0.6226 0.87884 0.0
H376 H 0.60503 0.64094 0.79195 0.0
H377 H 0.58731 0.61251 0.75238 0.0
H378 H 0.60607 0.59509 0.802 0.0
H379 H 0.50277 0.70071 0.81968 0.0
H380 H 0.47317 0.67432 0.84234 0.0
H381 H 0.48292 0.67205 0.78286 0.0
C382 C 0.97489 0.21865 0.2308 0.0
C383 C 0.94746 0.21572 0.20809 0.0
C384 C 0.9827 0.19569 0.26611 0.0
C385 C 0.96283 0.16881 0.27809 0.0
C386 C 0.93509 0.16582 0.25519 0.0
C387 C 0.92763 0.18952 0.22073 0.0
C388 C 0.0122 0.20007 0.29042 0.0
C389 C 0.91353 0.13716 0.26643 0.0
C390 C 0.99319 0.08861 0.33679 0.0
C391 C 0.98358 0.09338 0.38177 0.0
C392 C 0.98683 0.11314 0.30272 0.0
C393 C 0.97105 0.14346 0.3142 0.0
C394 C 0.96202 0.14885 0.35982 0.0
C395 C 0.96811 0.12357 0.39296 0.0
C396 C 0.99634 0.1062 0.25425 0.0
C397 C 0.94567 0.18116 0.37352 0.0
H398 H 0.99016 0.239 0.22102 0.0
H399 H 0.9066 0.18697 0.20265 0.0
H400 H 0.0086 0.20249 0.32772 0.0
H401 H 0.02628 0.17696 0.28513 0.0
H402 H 0.02457 0.22311 0.27822 0.0
H403 H 0.89294 0.13838 0.24523 0.0
H404 H 0.92436 0.11181 0.261 0.0
H405 H 0.90717 0.13843 0.30292 0.0
H406 H 0.00505 0.06526 0.32794 0.0
H407 H 0.96091 0.12756 0.4278 0.0
H408 H 0.01053 0.12756 0.24158 0.0
H409 H 0.97642 0.10499 0.23166 0.0
H410 H 0.00888 0.08166 0.25113 0.0
H411 H 0.95849 0.20429 0.36297 0.0
H412 H 0.94183 0.18237 0.41092 0.0
H413 H 0.92378 0.18236 0.35577 0.0
C414 C 0.4168 0.30884 0.72652 0.0
C415 C 0.43933 0.29739 0.69726 0.0
C416 C 0.42315 0.33171 0.76228 0.0
C417 C 0.45266 0.34375 0.7685 0.0
C418 C 0.47563 0.33164 0.73986 0.0
C419 C 0.46873 0.30837 0.7049 0.0
C420 C 0.39818 0.34366 0.79267 0.0
C421 C 0.50737 0.34396 0.74538 0.0
C422 C 0.465 0.42941 0.82787 0.0
C423 C 0.47508 0.41868 0.87104 0.0
C424 C 0.45744 0.40525 0.79421 0.0
C425 C 0.45952 0.36958 0.80431 0.0
C426 C 0.46902 0.35863 0.84816 0.0
C427 C 0.47693 0.3833 0.88087 0.0
C428 C 0.44778 0.41786 0.74756 0.0
C429 C 0.47103 0.32084 0.86042 0.0
H430 H 0.39397 0.30085 0.72061 0.0
H431 H 0.48638 0.29913 0.68304 0.0
H432 H 0.40415 0.33934 0.82907 0.0
H433 H 0.39463 0.37174 0.78796 0.0
H434 H 0.37689 0.33012 0.78526 0.0
H435 H 0.52267 0.33175 0.72056 0.0
H436 H 0.50833 0.37232 0.7406 0.0
H437 H 0.51556 0.33827 0.78042 0.0
H438 H 0.46361 0.4567 0.82006 0.0
H439 H 0.4844 0.37482 0.91435 0.0
H440 H 0.4254 0.40754 0.73899 0.0
H441 H 0.46342 0.40824 0.72134 0.0
H442 H 0.44698 0.44643 0.74537 0.0
H443 H 0.44926 0.30809 0.85419 0.0
H444 H 0.47754 0.31664 0.89668 0.0
H445 H 0.48764 0.30797 0.83839 0.0
C446 C 0.54588 0.7244 0.26177 0.0
C447 C 0.57275 0.7208 0.2859 0.0
C448 C 0.53826 0.70141 0.22674 0.0
C449 C 0.55771 0.67381 0.21649 0.0
C450 C 0.5851 0.67044 0.24033 0.0
C451 C 0.59241 0.69421 0.27452 0.0
C452 C 0.50917 0.70624 0.20137 0.0
C453 C 0.60617 0.64102 0.23091 0.0
C454 C 0.52432 0.59365 0.16289 0.0
C455 C 0.53365 0.59686 0.11749 0.0
C456 C 0.53204 0.61853 0.19549 0.0
C457 C 0.54894 0.64764 0.18208 0.0
C458 C 0.55794 0.65135 0.13611 0.0
C459 C 0.55046 0.62571 0.10444 0.0
C460 C 0.52251 0.61338 0.24442 0.0
C461 C 0.57547 0.6824 0.12039 0.0
H462 H 0.53076 0.74507 0.2706 0.0
H463 H 0.61301 0.6912 0.29368 0.0
H464 H 0.51311 0.70682 0.16401 0.0
H465 H 0.49417 0.68415 0.20844 0.0
H466 H 0.4976 0.73037 0.21125 0.0
H467 H 0.62692 0.6426 0.25168 0.0
H468 H 0.595 0.61614 0.23851 0.0
H469 H 0.61227 0.64076 0.19428 0.0
H470 H 0.51146 0.57131 0.17318 0.0
H471 H 0.55748 0.62847 0.06926 0.0
H472 H 0.50859 0.63539 0.2555 0.0
H473 H 0.5424 0.61259 0.2671 0.0
H474 H 0.50963 0.58921 0.2493 0.0
H475 H 0.56322 0.70637 0.12876 0.0
H476 H 0.57975 0.68204 0.08307 0.0
H477 H 0.59717 0.68342 0.13866 0.0
C478 C 0.92909 0.18395 0.79501 0.0
C479 C 0.94858 0.21034 0.80815 0.0
C480 C 0.93685 0.16069 0.76064 0.0
C481 C 0.96459 0.16432 0.73838 0.0
C482 C 0.98422 0.19125 0.75109 0.0
C483 C 0.97609 0.21378 0.78626 0.0
C484 C 0.91554 0.13196 0.74857 0.0
C485 C 0.01371 0.19629 0.72747 0.0
C486 C 0.99506 0.08555 0.67805 0.0
C487 C 0.98519 0.09122 0.63313 0.0
C488 C 0.98882 0.10936 0.71264 0.0
C489 C 0.97289 0.13983 0.70176 0.0
C490 C 0.96367 0.14617 0.6562 0.0
C491 C 0.96966 0.12162 0.62252 0.0
C492 C 0.99855 0.10146 0.76102 0.0
C493 C 0.94711 0.17868 0.64314 0.0
H494 H 0.90799 0.18104 0.81244 0.0
H495 H 0.99109 0.23431 0.79642 0.0
H496 H 0.90892 0.13398 0.7121 0.0
H497 H 0.92668 0.10665 0.75332 0.0
H498 H 0.89509 0.13241 0.76972 0.0
H499 H 0.02609 0.21897 0.74071 0.0
H500 H 0.02779 0.17303 0.73208 0.0
H501 H 0.01004 0.19978 0.69023 0.0
H502 H 0.00698 0.06204 0.68645 0.0
H503 H 0.96227 0.12631 0.58773 0.0
H504 H 0.97872 0.09941 0.7833 0.0
H505 H 0.01252 0.12273 0.77448 0.0
H506 H 0.01139 0.07704 0.7636 0.0
H507 H 0.92524 0.17928 0.66054 0.0
H508 H 0.94322 0.18073 0.60572 0.0
H509 H 0.95981 0.20165 0.65455 0.0
C510 C 0.47557 0.29725 0.28091 0.0
C511 C 0.44577 0.28783 0.28818 0.0
C512 C 0.4833 0.32022 0.24585 0.0
C513 C 0.46075 0.33369 0.21692 0.0
C514 C 0.43088 0.32285 0.22241 0.0
C515 C 0.42371 0.30019 0.25816 0.0
C516 C 0.51541 0.33122 0.24107 0.0
C517 C 0.40628 0.33632 0.19177 0.0
C518 C 0.4734 0.42135 0.16252 0.0
C519 C 0.48226 0.41236 0.11833 0.0
C520 C 0.46652 0.39594 0.19499 0.0
C521 C 0.46814 0.36072 0.18276 0.0
C522 C 0.47689 0.35146 0.13816 0.0
C523 C 0.48405 0.37739 0.10656 0.0
C524 C 0.45762 0.40678 0.24246 0.0
C525 C 0.47847 0.31419 0.12376 0.0
H526 H 0.49282 0.28728 0.30341 0.0
H527 H 0.4006 0.29339 0.26375 0.0
H528 H 0.52306 0.32722 0.20556 0.0
H529 H 0.51744 0.35916 0.2484 0.0
H530 H 0.53048 0.31688 0.26465 0.0
H531 H 0.38479 0.32287 0.19772 0.0
H532 H 0.40302 0.36425 0.19796 0.0
H533 H 0.41243 0.33331 0.15537 0.0
H534 H 0.47209 0.44829 0.17192 0.0
H535 H 0.49067 0.37023 0.07236 0.0
H536 H 0.47303 0.3952 0.26804 0.0
H537 H 0.43492 0.39716 0.25017 0.0
H538 H 0.45785 0.43522 0.24666 0.0
H539 H 0.49448 0.29998 0.14588 0.0
H540 H 0.48543 0.31132 0.08764 0.0
H541 H 0.45639 0.30178 0.12806 0.0
C542 C 0.03795 0.81343 0.81207 0.0
C543 C 0.05553 0.7841 0.80436 0.0
C544 C 0.0307 0.83625 0.77646 0.0
C545 C 0.04169 0.83001 0.73211 0.0
C546 C 0.05893 0.80018 0.72374 0.0
C547 C 0.06545 0.77745 0.75989 0.0
C548 C 0.01199 0.86761 0.78666 0.0
C549 C 0.0712 0.79282 0.6769 0.0
C550 C 0.00564 0.87818 0.63294 0.0
C551 C 0.02484 0.90648 0.62799 0.0
C552 C 0.01096 0.85287 0.66643 0.0
C553 C 0.03632 0.85569 0.69512 0.0
C554 C 0.05611 0.8838 0.68965 0.0
C555 C 0.05001 0.90899 0.6564 0.0
C556 C 0.98913 0.82354 0.67175 0.0
C557 C 0.08362 0.88744 0.71921 0.0
H558 H 0.0306 0.81928 0.84634 0.0
H559 H 0.07864 0.75463 0.75338 0.0
H560 H 0.0255 0.89128 0.7819 0.0
H561 H 0.99286 0.86921 0.76255 0.0
H562 H 0.00329 0.86734 0.82209 0.0
H563 H 0.08327 0.76785 0.67564 0.0
H564 H 0.05292 0.7924 0.65127 0.0
H565 H 0.08676 0.81368 0.66675 0.0
H566 H 0.98608 0.87613 0.61123 0.0
H567 H 0.06508 0.93062 0.65252 0.0
H568 H 0.97909 0.82434 0.70627 0.0
H569 H 0.00081 0.79848 0.66873 0.0
H570 H 0.97093 0.82456 0.64589 0.0
H571 H 0.0771 0.89047 0.75544 0.0
H572 H 0.09746 0.90994 0.70917 0.0
H573 H 0.09744 0.8638 0.71703 0.0
loop_
_geom_bond_atom_site_label_1
_geom_bond_atom_site_label_2
_geom_bond_distance
_geom_bond_site_symmetry_2
_ccdc_geom_bond_type
C0 C1 1.384 . S
C0 H13 0.947 . S
C0 C35 1.382 . S
C1 C0 1.384 . S
C1 C2 1.378 . S
C2 C1 1.378 . S
C2 C3 1.378 . S
C2 H14 0.952 . S
C3 C2 1.378 . S
C3 H15 0.950 . S
C3 C34 1.383 . S
H4 C23 0.947 . S
H5 C24 0.946 . S
H6 C26 0.953 . S
H7 C27 0.945 . S
H8 C29 0.952 . S
H9 C30 0.949 . S
H10 C32 0.950 . S
H11 C33 0.948 . S
H12 C35 0.951 . S
H13 C0 0.947 . S
H14 C2 0.952 . S
H15 C3 0.950 . S
N16 C19 1.382 . S
N16 C21 1.363 . S
N17 C19 1.371 1_556 S
N17 C20 1.372 . S
N18 C20 1.361 1_554 S
N18 C21 1.377 . S
C19 N16 1.382 . S
C19 N17 1.371 1_554 S
C19 C22 1.480 . S
C20 N17 1.372 . S
C20 N18 1.361 1_556 S
C20 C28 1.457 . S
C21 N16 1.363 . S
C21 N18 1.377 . S
C21 C34 1.479 . S
C22 C19 1.480 . S
C22 C23 1.383 . S
C22 C27 1.385 1_554 S
C23 H4 0.947 . S
C23 C22 1.383 . S
C23 C24 1.388 . S
C24 H5 0.946 . S
C24 C23 1.388 . S
C24 C25 1.384 . S
C25 C24 1.384 . S
C25 C26 1.377 1_554 S
C26 H6 0.953 . S
C26 C25 1.377 1_556 S
C26 C27 1.369 . S
C27 H7 0.945 . S
C27 C22 1.385 1_556 S
C27 C26 1.369 . S
C28 C20 1.457 . S
C28 C29 1.372 . S
C28 C33 1.364 . S
C29 H8 0.952 . S
C29 C28 1.372 . S
C29 C30 1.389 . S
C30 H9 0.949 . S
C30 C29 1.389 . S
C30 C31 1.387 . S
C31 C30 1.387 . S
C31 C32 1.372 . S
C32 H10 0.950 . S
C32 C31 1.372 . S
C32 C33 1.379 . S
C33 H11 0.948 . S
C33 C28 1.364 . S
C33 C32 1.379 . S
C34 C3 1.383 . S
C34 C21 1.479 . S
C34 C35 1.398 . S
C35 C0 1.382 . S
C35 H12 0.951 . S
C35 C34 1.398 . S
C36 C37 1.384 . S
C36 H49 0.947 . S
C36 C71 1.382 . S
C37 C36 1.384 . S
C37 C38 1.378 . S
C38 C37 1.378 . S
C38 C39 1.378 . S
C38 H50 0.952 . S
C39 C38 1.378 . S
C39 H51 0.950 . S
C39 C70 1.383 . S
H40 C59 0.947 . S
H41 C60 0.946 . S
H42 C62 0.953 . S
H43 C63 0.945 . S
H44 C65 0.952 . S
H45 C66 0.949 . S
H46 C68 0.950 . S
H47 C69 0.948 . S
H48 C71 0.951 . S
H49 C36 0.947 . S
H50 C38 0.952 . S
H51 C39 0.950 . S
N52 C55 1.382 . S
N52 C57 1.363 . S
N53 C55 1.371 . S
N53 C56 1.372 . S
N54 C56 1.361 . S
N54 C57 1.377 . S
C55 N52 1.382 . S
C55 N53 1.371 . S
C55 C58 1.480 . S
C56 N53 1.372 . S
C56 N54 1.361 . S
C56 C64 1.457 . S
C57 N52 1.363 . S
C57 N54 1.377 . S
C57 C70 1.479 . S
C58 C55 1.480 . S
C58 C59 1.383 . S
C58 C63 1.385 . S
C59 H40 0.947 . S
C59 C58 1.383 . S
C59 C60 1.388 . S
C60 H41 0.946 . S
C60 C59 1.388 . S
C60 C61 1.384 . S
C61 C60 1.384 . S
C61 C62 1.377 . S
C62 H42 0.953 . S
C62 C61 1.377 . S
C62 C63 1.369 . S
C63 H43 0.945 . S
C63 C58 1.385 . S
C63 C62 1.369 . S
C64 C56 1.457 . S
C64 C65 1.372 . S
C64 C69 1.364 . S
C65 H44 0.952 . S
C65 C64 1.372 . S
C65 C66 1.389 . S
C66 H45 0.949 . S
C66 C65 1.389 . S
C66 C67 1.387 . S
C67 C66 1.387 . S
C67 C68 1.372 . S
C68 H46 0.950 . S
C68 C67 1.372 . S
C68 C69 1.379 . S
C69 H47 0.948 . S
C69 C64 1.364 . S
C69 C68 1.379 . S
C70 C39 1.383 . S
C70 C57 1.479 . S
C70 C71 1.398 . S
C71 C36 1.382 . S
C71 H48 0.951 . S
C71 C70 1.398 . S
C72 C73 1.384 . S
C72 H85 0.947 . S
C72 C107 1.382 . S
C73 C72 1.384 . S
C73 C74 1.378 . S
C74 C73 1.378 . S
C74 C75 1.378 . S
C74 H86 0.952 . S
C75 C74 1.378 . S
C75 H87 0.950 . S
C75 C106 1.383 . S
H76 C95 0.947 . S
H77 C96 0.946 . S
H78 C98 0.953 . S
H79 C99 0.945 . S
H80 C101 0.952 . S
H81 C102 0.949 . S
H82 C104 0.950 . S
H83 C105 0.948 . S
H84 C107 0.951 . S
H85 C72 0.947 . S
H86 C74 0.952 . S
H87 C75 0.950 . S
N88 C91 1.382 1_556 S
N88 C93 1.363 . S
N89 C91 1.371 . S
N89 C92 1.372 . S
N90 C92 1.361 . S
N90 C93 1.377 1_554 S
C91 N88 1.382 1_554 S
C91 N89 1.371 . S
C91 C94 1.480 . S
C92 N89 1.372 . S
C92 N90 1.361 . S
C92 C100 1.457 . S
C93 N88 1.363 . S
C93 N90 1.377 1_556 S
C93 C106 1.479 . S
C94 C91 1.480 . S
C94 C95 1.383 1_554 S
C94 C99 1.385 . S
C95 H76 0.947 . S
C95 C94 1.383 1_556 S
C95 C96 1.388 . S
C96 H77 0.946 . S
C96 C95 1.388 . S
C96 C97 1.384 1_556 S
C97 C96 1.384 1_554 S
C97 C98 1.377 . S
C98 H78 0.953 . S
C98 C97 1.377 . S
C98 C99 1.369 . S
C99 H79 0.945 . S
C99 C94 1.385 . S
C99 C98 1.369 . S
C100 C92 1.457 . S
C100 C101 1.372 . S
C100 C105 1.364 . S
C101 H80 0.952 . S
C101 C100 1.372 . S
C101 C102 1.389 . S
C102 H81 0.949 . S
C102 C101 1.389 . S
C102 C103 1.387 . S
C103 C102 1.387 . S
C103 C104 1.372 . S
C104 H82 0.950 . S
C104 C103 1.372 . S
C104 C105 1.379 . S
C105 H83 0.948 . S
C105 C100 1.364 . S
C105 C104 1.379 . S
C106 C75 1.383 . S
C106 C93 1.479 . S
C106 C107 1.398 . S
C107 C72 1.382 . S
C107 H84 0.951 . S
C107 C106 1.398 . S
C108 C109 1.384 . S
C108 H121 0.947 . S
C108 C143 1.382 . S
C109 C108 1.384 . S
C109 C110 1.378 . S
C110 C109 1.378 . S
C110 C111 1.378 . S
C110 H122 0.952 . S
C111 C110 1.378 . S
C111 H123 0.950 . S
C111 C142 1.383 . S
H112 C131 0.947 . S
H113 C132 0.946 . S
H114 C134 0.953 . S
H115 C135 0.945 . S
H116 C137 0.952 . S
H117 C138 0.949 . S
H118 C140 0.950 . S
H119 C141 0.948 . S
H120 C143 0.951 . S
H121 C108 0.947 . S
H122 C110 0.952 . S
H123 C111 0.950 . S
N124 C127 1.382 . S
N124 C129 1.363 . S
N125 C127 1.371 . S
N125 C128 1.372 . S
N126 C128 1.361 . S
N126 C129 1.377 . S
C127 N124 1.382 . S
C127 N125 1.371 . S
C127 C130 1.480 . S
C128 N125 1.372 . S
C128 N126 1.361 . S
C128 C136 1.457 . S
C129 N124 1.363 . S
C129 N126 1.377 . S
C129 C142 1.479 . S
C130 C127 1.480 . S
C130 C131 1.383 . S
C130 C135 1.385 . S
C131 H112 0.947 . S
C131 C130 1.383 . S
C131 C132 1.388 . S
C132 H113 0.946 . S
C132 C131 1.388 . S
C132 C133 1.384 . S
C133 C132 1.384 . S
C133 C134 1.377 . S
C134 H114 0.953 . S
C134 C133 1.377 . S
C134 C135 1.369 . S
C135 H115 0.945 . S
C135 C130 1.385 . S
C135 C134 1.369 . S
C136 C128 1.457 . S
C136 C137 1.372 . S
C136 C141 1.364 . S
C137 H116 0.952 . S
C137 C136 1.372 . S
C137 C138 1.389 . S
C138 H117 0.949 . S
C138 C137 1.389 . S
C138 C139 1.387 . S
C139 C138 1.387 . S
C139 C140 1.372 . S
C140 H118 0.950 . S
C140 C139 1.372 . S
C140 C141 1.379 . S
C141 H119 0.948 . S
C141 C136 1.364 . S
C141 C140 1.379 . S
C142 C111 1.383 . S
C142 C129 1.479 . S
C142 C143 1.398 . S
C143 C108 1.382 . S
C143 H120 0.951 . S
C143 C142 1.398 . S
O144 Zn145 1.953 1_565 S
O144 C160 1.225 . S
Zn145 O144 1.953 1_545 S
Zn145 O146 1.949 1_655 S
Zn145 O152 1.919 . S
Zn145 O157 1.924 . S
O146 Zn145 1.949 1_455 S
O146 Zn147 1.923 . S
O146 Zn148 1.950 1_445 S
O146 Zn149 1.945 . S
Zn147 O146 1.923 . S
Zn147 O150 1.933 . S
Zn147 O153 1.941 . S
Zn147 O154 1.965 1_545 S
Zn148 O146 1.950 1_665 S
Zn148 O155 1.938 1_655 S
Zn148 O156 1.906 1_655 S
Zn148 O166 1.953 . S
Zn149 O146 1.945 . S
Zn149 O151 1.932 . S
Zn149 O158 1.977 1_545 S
Zn149 O159 1.910 1_455 S
O150 Zn147 1.933 . S
O150 C161 1.226 . S
O151 Zn149 1.932 . S
O151 C161 1.307 . S
O152 Zn145 1.919 . S
O152 C163 1.253 . S
O153 Zn147 1.941 . S
O153 C163 1.283 1_455 S
O154 Zn147 1.965 1_565 S
O154 C162 1.303 . S
O155 Zn148 1.938 1_455 S
O155 C162 1.247 . S
O156 Zn148 1.906 1_455 S
O156 C164 1.304 . S
O157 Zn145 1.924 . S
O157 C165 1.311 . S
O158 Zn149 1.977 1_565 S
O158 C164 1.272 . S
O159 Zn149 1.910 1_655 S
O159 C165 1.231 . S
C160 O144 1.225 . S
C160 O166 1.298 . S
C161 O150 1.226 . S
C161 O151 1.307 . S
C162 O154 1.303 . S
C162 O155 1.247 . S
C163 O152 1.253 . S
C163 O153 1.283 1_655 S
C164 O156 1.304 . S
C164 O158 1.272 . S
C165 O157 1.311 . S
C165 O159 1.231 . S
O166 Zn148 1.953 . S
O166 C160 1.298 . S
O167 Zn168 1.953 . S
O167 C183 1.225 1_556 S
Zn168 O167 1.953 . S
Zn168 O169 1.949 1_556 S
Zn168 O175 1.919 . S
Zn168 O180 1.924 1_556 S
O169 Zn168 1.949 1_554 S
O169 Zn170 1.923 1_554 S
O169 Zn171 1.950 . S
O169 Zn172 1.945 . S
Zn170 O169 1.923 1_556 S
Zn170 O173 1.933 . S
Zn170 O176 1.941 . S
Zn170 O177 1.965 . S
Zn171 O169 1.950 . S
Zn171 O178 1.938 1_554 S
Zn171 O179 1.906 . S
Zn171 O189 1.953 . S
Zn172 O169 1.945 . S
Zn172 O174 1.932 . S
Zn172 O181 1.977 . S
Zn172 O182 1.910 . S
O173 Zn170 1.933 . S
O173 C184 1.226 1_556 S
O174 Zn172 1.932 . S
O174 C184 1.307 . S
O175 Zn168 1.919 . S
O175 C186 1.253 . S
O176 Zn170 1.941 . S
O176 C186 1.283 . S
O177 Zn170 1.965 . S
O177 C185 1.303 . S
O178 Zn171 1.938 1_556 S
O178 C185 1.247 . S
O179 Zn171 1.906 . S
O179 C187 1.304 . S
O180 Zn168 1.924 1_554 S
O180 C188 1.311 . S
O181 Zn172 1.977 . S
O181 C187 1.272 . S
O182 Zn172 1.910 . S
O182 C188 1.231 . S
C183 O167 1.225 1_554 S
C183 O189 1.298 . S
C184 O173 1.226 1_554 S
C184 O174 1.307 . S
C185 O177 1.303 . S
C185 O178 1.247 . S
C186 O175 1.253 . S
C186 O176 1.283 . S
C187 O179 1.304 . S
C187 O181 1.272 . S
C188 O180 1.311 . S
C188 O182 1.231 . S
O189 Zn171 1.953 . S
O189 C183 1.298 . S
C190 C191 1.391 . S
C190 C192 1.394 . S
C190 H206 0.931 . S
C191 C190 1.391 . S
C191 C195 1.376 . S
C192 C190 1.394 . S
C192 C193 1.369 . S
C192 C196 1.531 . S
C193 C192 1.369 . S
C193 C194 1.410 . S
C193 C201 1.503 . S
C194 C193 1.410 . S
C194 C195 1.392 . S
C194 C197 1.511 . S
C195 C191 1.376 . S
C195 C194 1.392 . S
C195 H207 0.929 . S
C196 C192 1.531 . S
C196 H208 0.960 . S
C196 H209 0.962 . S
C196 H210 0.960 . S
C197 C194 1.511 . S
C197 H211 0.961 . S
C197 H212 0.961 . S
C197 H213 0.961 . S
C198 C199 1.370 . S
C198 C200 1.363 . S
C198 H214 0.931 . S
C199 C198 1.370 . S
C199 C203 1.408 . S
C200 C198 1.363 . S
C200 C201 1.370 . S
C200 C204 1.524 . S
C201 C193 1.503 . S
C201 C200 1.370 . S
C201 C202 1.403 . S
C202 C201 1.403 . S
C202 C203 1.404 . S
C202 C205 1.539 . S
C203 C199 1.408 . S
C203 C202 1.404 . S
C203 H215 0.930 . S
C204 C200 1.524 . S
C204 H216 0.956 . S
C204 H217 0.961 . S
C204 H218 0.961 . S
C205 C202 1.539 . S
C205 H219 0.958 . S
C205 H220 0.961 1_545 S
C205 H221 0.960 . S
H206 C190 0.931 . S
H207 C195 0.929 . S
H208 C196 0.960 . S
H209 C196 0.962 . S
H210 C196 0.960 . S
H211 C197 0.961 . S
H212 C197 0.961 . S
H213 C197 0.961 . S
H214 C198 0.931 . S
H215 C203 0.930 . S
H216 C204 0.956 . S
H217 C204 0.961 . S
H218 C204 0.961 . S
H219 C205 0.958 . S
H220 C205 0.961 1_565 S
H221 C205 0.960 . S
C222 C223 1.391 1_556 S
C222 C224 1.394 . S
C222 H238 0.931 . S
C223 C222 1.391 1_554 S
C223 C227 1.376 . S
C224 C222 1.394 . S
C224 C225 1.369 1_556 S
C224 C228 1.531 . S
C225 C224 1.369 1_554 S
C225 C226 1.410 . S
C225 C233 1.503 . S
C226 C225 1.410 . S
C226 C227 1.392 . S
C226 C229 1.511 . S
C227 C223 1.376 . S
C227 C226 1.392 . S
C227 H239 0.929 . S
C228 C224 1.531 . S
C228 H240 0.960 . S
C228 H241 0.962 . S
C228 H242 0.960 . S
C229 C226 1.511 . S
C229 H243 0.961 . S
C229 H244 0.961 . S
C229 H245 0.961 . S
C230 C231 1.370 . S
C230 C232 1.363 . S
C230 H246 0.931 . S
C231 C230 1.370 . S
C231 C235 1.408 1_554 S
C232 C230 1.363 . S
C232 C233 1.370 . S
C232 C236 1.524 . S
C233 C225 1.503 . S
C233 C232 1.370 . S
C233 C234 1.403 1_554 S
C234 C233 1.403 1_556 S
C234 C235 1.404 . S
C234 C237 1.539 . S
C235 C231 1.408 1_556 S
C235 C234 1.404 . S
C235 H247 0.930 . S
C236 C232 1.524 . S
C236 H248 0.956 1_554 S
C236 H249 0.961 . S
C236 H250 0.961 . S
C237 C234 1.539 . S
C237 H251 0.958 . S
C237 H252 0.961 . S
C237 H253 0.960 . S
H238 C222 0.931 . S
H239 C227 0.929 . S
H240 C228 0.960 . S
H241 C228 0.962 . S
H242 C228 0.960 . S
H243 C229 0.961 . S
H244 C229 0.961 . S
H245 C229 0.961 . S
H246 C230 0.931 . S
H247 C235 0.930 . S
H248 C236 0.956 1_556 S
H249 C236 0.961 . S
H250 C236 0.961 . S
H251 C237 0.958 . S
H252 C237 0.961 . S
H253 C237 0.960 . S
C254 C255 1.391 . S
C254 C256 1.394 . S
C254 H270 0.931 . S
C255 C254 1.391 . S
C255 C259 1.376 . S
C256 C254 1.394 . S
C256 C257 1.369 . S
C256 C260 1.531 . S
C257 C256 1.369 . S
C257 C258 1.410 . S
C257 C265 1.503 . S
C258 C257 1.410 . S
C258 C259 1.392 . S
C258 C261 1.511 . S
C259 C255 1.376 . S
C259 C258 1.392 . S
C259 H271 0.929 . S
C260 C256 1.531 . S
C260 H272 0.960 . S
C260 H273 0.962 . S
C260 H274 0.960 . S
C261 C258 1.511 . S
C261 H275 0.961 . S
C261 H276 0.961 . S
C261 H277 0.961 . S
C262 C263 1.370 . S
C262 C264 1.363 . S
C262 H278 0.931 . S
C263 C262 1.370 . S
C263 C267 1.408 . S
C264 C262 1.363 . S
C264 C265 1.370 . S
C264 C268 1.524 . S
C265 C257 1.503 . S
C265 C264 1.370 . S
C265 C266 1.403 . S
C266 C265 1.403 . S
C266 C267 1.404 . S
C266 C269 1.539 . S
C267 C263 1.408 . S
C267 C266 1.404 . S
C267 H279 0.930 . S
C268 C264 1.524 . S
C268 H280 0.956 . S
C268 H281 0.961 . S
C268 H282 0.961 . S
C269 C266 1.539 . S
C269 H283 0.958 . S
C269 H284 0.961 . S
C269 H285 0.960 . S
H270 C254 0.931 . S
H271 C259 0.929 . S
H272 C260 0.960 . S
H273 C260 0.962 . S
H274 C260 0.960 . S
H275 C261 0.961 . S
H276 C261 0.961 . S
H277 C261 0.961 . S
H278 C262 0.931 . S
H279 C267 0.930 . S
H280 C268 0.956 . S
H281 C268 0.961 . S
H282 C268 0.961 . S
H283 C269 0.958 . S
H284 C269 0.961 . S
H285 C269 0.960 . S
C286 C287 1.391 . S
C286 C288 1.394 . S
C286 H302 0.931 . S
C287 C286 1.391 . S
C287 C291 1.376 1_554 S
C288 C286 1.394 . S
C288 C289 1.369 . S
C288 C292 1.531 . S
C289 C288 1.369 . S
C289 C290 1.410 1_554 S
C289 C297 1.503 . S
C290 C289 1.410 1_556 S
C290 C291 1.392 . S
C290 C293 1.511 . S
C291 C287 1.376 1_556 S
C291 C290 1.392 . S
C291 H303 0.929 . S
C292 C288 1.531 . S
C292 H304 0.960 . S
C292 H305 0.962 . S
C292 H306 0.960 . S
C293 C290 1.511 . S
C293 H307 0.961 . S
C293 H308 0.961 . S
C293 H309 0.961 . S
C294 C295 1.370 1_556 S
C294 C296 1.363 . S
C294 H310 0.931 . S
C295 C294 1.370 1_554 S
C295 C299 1.408 . S
C296 C294 1.363 . S
C296 C297 1.370 1_556 S
C296 C300 1.524 . S
C297 C289 1.503 . S
C297 C296 1.370 1_554 S
C297 C298 1.403 . S
C298 C297 1.403 . S
C298 C299 1.404 . S
C298 C301 1.539 . S
C299 C295 1.408 . S
C299 C298 1.404 . S
C299 H311 0.930 . S
C300 C296 1.524 . S
C300 H312 0.956 . S
C300 H313 0.961 . S
C300 H314 0.961 . S
C301 C298 1.539 . S
C301 H315 0.958 . S
C301 H316 0.961 . S
C301 H317 0.960 . S
H302 C286 0.931 . S
H303 C291 0.929 . S
H304 C292 0.960 . S
H305 C292 0.962 . S
H306 C292 0.960 . S
H307 C293 0.961 . S
H308 C293 0.961 . S
H309 C293 0.961 . S
H310 C294 0.931 . S
H311 C299 0.930 . S
H312 C300 0.956 . S
H313 C300 0.961 . S
H314 C300 0.961 . S
H315 C301 0.958 . S
H316 C301 0.961 . S
H317 C301 0.960 . S
C318 C319 1.391 . S
C318 C320 1.394 . S
C318 H334 0.931 . S
C319 C318 1.391 . S
C319 C323 1.376 . S
C320 C318 1.394 . S
C320 C321 1.369 . S
C320 C324 1.531 . S
C321 C320 1.369 . S
C321 C322 1.410 . S
C321 C329 1.503 . S
C322 C321 1.410 . S
C322 C323 1.392 . S
C322 C325 1.511 . S
C323 C319 1.376 . S
C323 C322 1.392 . S
C323 H335 0.929 . S
C324 C320 1.531 . S
C324 H336 0.960 . S
C324 H337 0.962 . S
C324 H338 0.960 . S
C325 C322 1.511 . S
C325 H339 0.961 . S
C325 H340 0.961 . S
C325 H341 0.961 . S
C326 C327 1.370 . S
C326 C328 1.363 . S
C326 H342 0.931 . S
C327 C326 1.370 . S
C327 C331 1.408 . S
C328 C326 1.363 . S
C328 C329 1.370 . S
C328 C332 1.524 . S
C329 C321 1.503 . S
C329 C328 1.370 . S
C329 C330 1.403 . S
C330 C329 1.403 . S
C330 C331 1.404 . S
C330 C333 1.537 . S
C331 C327 1.408 . S
C331 C330 1.404 . S
C331 H343 0.930 . S
C332 C328 1.524 . S
C332 H344 0.956 . S
C332 H345 0.961 . S
C332 H346 0.961 . S
C333 C330 1.537 . S
C333 H347 0.958 . S
C333 H348 0.964 1_455 S
C333 H349 0.960 1_455 S
H334 C318 0.931 . S
H335 C323 0.929 . S
H336 C324 0.960 . S
H337 C324 0.962 . S
H338 C324 0.960 . S
H339 C325 0.961 . S
H340 C325 0.961 . S
H341 C325 0.961 . S
H342 C326 0.931 . S
H343 C331 0.930 . S
H344 C332 0.956 . S
H345 C332 0.961 . S
H346 C332 0.961 . S
H347 C333 0.958 . S
H348 C333 0.964 1_655 S
H349 C333 0.960 1_655 S
C350 C351 1.391 . S
C350 C352 1.394 . S
C350 H366 0.931 . S
C351 C350 1.391 . S
C351 C355 1.376 . S
C352 C350 1.394 . S
C352 C353 1.369 . S
C352 C356 1.531 . S
C353 C352 1.369 . S
C353 C354 1.410 . S
C353 C361 1.503 . S
C354 C353 1.410 . S
C354 C355 1.392 . S
C354 C357 1.511 . S
C355 C351 1.376 . S
C355 C354 1.392 . S
C355 H367 0.929 . S
C356 C352 1.531 . S
C356 H368 0.960 . S
C356 H369 0.962 . S
C356 H370 0.960 . S
C357 C354 1.511 . S
C357 H371 0.961 . S
C357 H372 0.961 . S
C357 H373 0.961 . S
C358 C359 1.370 . S
C358 C360 1.363 . S
C358 H374 0.931 . S
C359 C358 1.370 . S
C359 C363 1.408 . S
C360 C358 1.363 . S
C360 C361 1.370 . S
C360 C364 1.524 . S
C361 C353 1.503 . S
C361 C360 1.370 . S
C361 C362 1.403 . S
C362 C361 1.403 . S
C362 C363 1.404 . S
C362 C365 1.539 . S
C363 C359 1.408 . S
C363 C362 1.404 . S
C363 H375 0.930 . S
C364 C360 1.524 . S
C364 H376 0.956 . S
C364 H377 0.961 . S
C364 H378 0.961 . S
C365 C362 1.539 . S
C365 H379 0.958 . S
C365 H380 0.961 . S
C365 H381 0.960 . S
H366 C350 0.931 . S
H367 C355 0.929 . S
H368 C356 0.960 . S
H369 C356 0.962 . S
H370 C356 0.960 . S
H371 C357 0.961 . S
H372 C357 0.961 . S
H373 C357 0.961 . S
H374 C358 0.931 . S
H375 C363 0.930 . S
H376 C364 0.956 . S
H377 C364 0.961 . S
H378 C364 0.961 . S
H379 C365 0.958 . S
H380 C365 0.961 . S
H381 C365 0.960 . S
C382 C383 1.391 . S
C382 C384 1.394 . S
C382 H398 0.931 . S
C383 C382 1.391 . S
C383 C387 1.376 . S
C384 C382 1.394 . S
C384 C385 1.369 . S
C384 C388 1.548 . S
C385 C384 1.369 . S
C385 C386 1.410 . S
C385 C393 1.503 . S
C386 C385 1.410 . S
C386 C387 1.392 . S
C386 C389 1.511 . S
C387 C383 1.376 . S
C387 C386 1.392 . S
C387 H399 0.929 . S
C388 C384 1.548 . S
C388 H400 0.955 1_655 S
C388 H401 0.967 . S
C388 H402 0.944 1_655 S
C389 C386 1.511 . S
C389 H403 0.961 . S
C389 H404 0.961 . S
C389 H405 0.961 . S
C390 C391 1.370 . S
C390 C392 1.363 . S
C390 H406 0.931 . S
C391 C390 1.370 . S
C391 C395 1.408 . S
C392 C390 1.363 . S
C392 C393 1.370 . S
C392 C396 1.524 . S
C393 C385 1.503 . S
C393 C392 1.370 . S
C393 C394 1.403 . S
C394 C393 1.403 . S
C394 C395 1.404 . S
C394 C397 1.539 . S
C395 C391 1.408 . S
C395 C394 1.404 . S
C395 H407 0.930 . S
C396 C392 1.524 . S
C396 H408 0.956 . S
C396 H409 0.961 . S
C396 H410 0.961 . S
C397 C394 1.539 . S
C397 H411 0.958 1_655 S
C397 H412 0.961 . S
C397 H413 0.960 . S
H398 C382 0.931 . S
H399 C387 0.929 . S
H400 C388 0.955 1_455 S
H401 C388 0.967 . S
H402 C388 0.944 1_455 S
H403 C389 0.961 . S
H404 C389 0.961 . S
H405 C389 0.961 . S
H406 C390 0.931 . S
H407 C395 0.930 . S
H408 C396 0.956 . S
H409 C396 0.961 . S
H410 C396 0.961 . S
H411 C397 0.958 1_455 S
H412 C397 0.961 . S
H413 C397 0.960 . S
C414 C415 1.391 . S
C414 C416 1.394 . S
C414 H430 0.931 . S
C415 C414 1.391 . S
C415 C419 1.376 . S
C416 C414 1.394 . S
C416 C417 1.369 . S
C416 C420 1.531 . S
C417 C416 1.369 . S
C417 C418 1.410 . S
C417 C425 1.503 . S
C418 C417 1.410 . S
C418 C419 1.392 . S
C418 C421 1.511 . S
C419 C415 1.376 . S
C419 C418 1.392 . S
C419 H431 0.929 . S
C420 C416 1.531 . S
C420 H432 0.960 . S
C420 H433 0.962 . S
C420 H434 0.960 . S
C421 C418 1.511 . S
C421 H435 0.961 . S
C421 H436 0.961 . S
C421 H437 0.961 . S
C422 C423 1.370 . S
C422 C424 1.363 . S
C422 H438 0.931 . S
C423 C422 1.370 . S
C423 C427 1.408 . S
C424 C422 1.363 . S
C424 C425 1.370 . S
C424 C428 1.524 . S
C425 C417 1.503 . S
C425 C424 1.370 . S
C425 C426 1.403 . S
C426 C425 1.403 . S
C426 C427 1.404 . S
C426 C429 1.539 . S
C427 C423 1.408 . S
C427 C426 1.404 . S
C427 H439 0.930 . S
C428 C424 1.524 . S
C428 H440 0.956 . S
C428 H441 0.961 . S
C428 H442 0.961 . S
C429 C426 1.539 . S
C429 H443 0.958 . S
C429 H444 0.961 . S
C429 H445 0.960 . S
H430 C414 0.931 . S
H431 C419 0.929 . S
H432 C420 0.960 . S
H433 C420 0.962 . S
H434 C420 0.960 . S
H435 C421 0.961 . S
H436 C421 0.961 . S
H437 C421 0.961 . S
H438 C422 0.931 . S
H439 C427 0.930 . S
H440 C428 0.956 . S
H441 C428 0.961 . S
H442 C428 0.961 . S
H443 C429 0.958 . S
H444 C429 0.961 . S
H445 C429 0.960 . S
C446 C447 1.391 . S
C446 C448 1.394 . S
C446 H462 0.931 . S
C447 C446 1.391 . S
C447 C451 1.376 . S
C448 C446 1.394 . S
C448 C449 1.369 . S
C448 C452 1.531 . S
C449 C448 1.369 . S
C449 C450 1.410 . S
C449 C457 1.503 . S
C450 C449 1.410 . S
C450 C451 1.392 . S
C450 C453 1.511 . S
C451 C447 1.376 . S
C451 C450 1.392 . S
C451 H463 0.929 . S
C452 C448 1.531 . S
C452 H464 0.960 . S
C452 H465 0.962 . S
C452 H466 0.960 . S
C453 C450 1.511 . S
C453 H467 0.961 . S
C453 H468 0.961 . S
C453 H469 0.961 . S
C454 C455 1.370 . S
C454 C456 1.363 . S
C454 H470 0.931 . S
C455 C454 1.370 . S
C455 C459 1.408 . S
C456 C454 1.363 . S
C456 C457 1.370 . S
C456 C460 1.524 . S
C457 C449 1.503 . S
C457 C456 1.370 . S
C457 C458 1.403 . S
C458 C457 1.403 . S
C458 C459 1.404 . S
C458 C461 1.539 . S
C459 C455 1.408 . S
C459 C458 1.404 . S
C459 H471 0.930 . S
C460 C456 1.524 . S
C460 H472 0.956 . S
C460 H473 0.961 . S
C460 H474 0.961 . S
C461 C458 1.539 . S
C461 H475 0.958 . S
C461 H476 0.961 . S
C461 H477 0.960 . S
H462 C446 0.931 . S
H463 C451 0.929 . S
H464 C452 0.960 . S
H465 C452 0.962 . S
H466 C452 0.960 . S
H467 C453 0.961 . S
H468 C453 0.961 . S
H469 C453 0.961 . S
H470 C454 0.931 . S
H471 C459 0.930 . S
H472 C460 0.956 . S
H473 C460 0.961 . S
H474 C460 0.961 . S
H475 C461 0.958 . S
H476 C461 0.961 . S
H477 C461 0.960 . S
C478 C479 1.391 . S
C478 C480 1.394 . S
C478 H494 0.931 . S
C479 C478 1.391 . S
C479 C483 1.376 . S
C480 C478 1.394 . S
C480 C481 1.369 . S
C480 C484 1.531 . S
C481 C480 1.369 . S
C481 C482 1.410 . S
C481 C489 1.503 . S
C482 C481 1.410 . S
C482 C483 1.392 . S
C482 C485 1.511 1_655 S
C483 C479 1.376 . S
C483 C482 1.392 . S
C483 H495 0.929 . S
C484 C480 1.531 . S
C484 H496 0.960 . S
C484 H497 0.962 . S
C484 H498 0.960 . S
C485 C482 1.511 1_455 S
C485 H499 0.961 . S
C485 H500 0.961 . S
C485 H501 0.961 . S
C486 C487 1.370 . S
C486 C488 1.363 . S
C486 H502 0.931 . S
C487 C486 1.370 . S
C487 C491 1.408 . S
C488 C486 1.363 . S
C488 C489 1.370 . S
C488 C492 1.524 . S
C489 C481 1.503 . S
C489 C488 1.370 . S
C489 C490 1.403 . S
C490 C489 1.403 . S
C490 C491 1.404 . S
C490 C493 1.539 . S
C491 C487 1.408 . S
C491 C490 1.404 . S
C491 H503 0.930 . S
C492 C488 1.524 . S
C492 H504 0.956 . S
C492 H505 0.961 . S
C492 H506 0.961 . S
C493 C490 1.539 . S
C493 H507 0.958 . S
C493 H508 0.961 . S
C493 H509 0.960 . S
H494 C478 0.931 . S
H495 C483 0.929 . S
H496 C484 0.960 . S
H497 C484 0.962 . S
H498 C484 0.960 . S
H499 C485 0.961 . S
H500 C485 0.961 . S
H501 C485 0.961 . S
H502 C486 0.931 . S
H503 C491 0.930 . S
H504 C492 0.956 . S
H505 C492 0.961 . S
H506 C492 0.961 . S
H507 C493 0.958 . S
H508 C493 0.961 . S
H509 C493 0.960 . S
C510 C511 1.391 . S
C510 C512 1.394 . S
C510 H526 0.931 . S
C511 C510 1.391 . S
C511 C515 1.376 . S
C512 C510 1.394 . S
C512 C513 1.369 . S
C512 C516 1.531 . S
C513 C512 1.369 . S
C513 C514 1.410 . S
C513 C521 1.503 . S
C514 C513 1.410 . S
C514 C515 1.392 . S
C514 C517 1.511 . S
C515 C511 1.376 . S
C515 C514 1.392 . S
C515 H527 0.929 . S
C516 C512 1.531 . S
C516 H528 0.960 . S
C516 H529 0.962 . S
C516 H530 0.960 . S
C517 C514 1.511 . S
C517 H531 0.961 . S
C517 H532 0.961 . S
C517 H533 0.961 . S
C518 C519 1.370 . S
C518 C520 1.363 . S
C518 H534 0.931 . S
C519 C518 1.370 . S
C519 C523 1.408 . S
C520 C518 1.363 . S
C520 C521 1.370 . S
C520 C524 1.524 . S
C521 C513 1.503 . S
C521 C520 1.370 . S
C521 C522 1.403 . S
C522 C521 1.403 . S
C522 C523 1.404 . S
C522 C525 1.539 . S
C523 C519 1.408 . S
C523 C522 1.404 . S
C523 H535 0.930 . S
C524 C520 1.524 . S
C524 H536 0.956 . S
C524 H537 0.961 . S
C524 H538 0.961 . S
C525 C522 1.539 . S
C525 H539 0.958 . S
C525 H540 0.961 . S
C525 H541 0.960 . S
H526 C510 0.931 . S
H527 C515 0.929 . S
H528 C516 0.960 . S
H529 C516 0.962 . S
H530 C516 0.960 . S
H531 C517 0.961 . S
H532 C517 0.961 . S
H533 C517 0.961 . S
H534 C518 0.931 . S
H535 C523 0.930 . S
H536 C524 0.956 . S
H537 C524 0.961 . S
H538 C524 0.961 . S
H539 C525 0.958 . S
H540 C525 0.961 . S
H541 C525 0.960 . S
C542 C543 1.391 . S
C542 C544 1.394 . S
C542 H558 0.931 . S
C543 C542 1.391 . S
C543 C547 1.376 . S
C544 C542 1.394 . S
C544 C545 1.369 . S
C544 C548 1.531 . S
C545 C544 1.369 . S
C545 C546 1.410 . S
C545 C553 1.503 . S
C546 C545 1.410 . S
C546 C547 1.392 . S
C546 C549 1.511 . S
C547 C543 1.376 . S
C547 C546 1.392 . S
C547 H559 0.929 . S
C548 C544 1.531 . S
C548 H560 0.960 . S
C548 H561 0.962 . S
C548 H562 0.960 . S
C549 C546 1.511 . S
C549 H563 0.961 . S
C549 H564 0.961 . S
C549 H565 0.961 . S
C550 C551 1.370 . S
C550 C552 1.363 . S
C550 H566 0.931 1_455 S
C551 C550 1.370 . S
C551 C555 1.408 . S
C552 C550 1.363 . S
C552 C553 1.370 . S
C552 C556 1.524 1_455 S
C553 C545 1.503 . S
C553 C552 1.370 . S
C553 C554 1.403 . S
C554 C553 1.403 . S
C554 C555 1.404 . S
C554 C557 1.539 . S
C555 C551 1.408 . S
C555 C554 1.404 . S
C555 H567 0.930 . S
C556 C552 1.524 1_655 S
C556 H568 0.956 1_655 S
C556 H569 0.961 . S
C556 H570 0.961 . S
C557 C554 1.539 . S
C557 H571 0.958 . S
C557 H572 0.961 . S
C557 H573 0.960 . S
H558 C542 0.931 . S
H559 C547 0.929 . S
H560 C548 0.960 . S
H561 C548 0.962 . S
H562 C548 0.960 . S
H563 C549 0.961 . S
H564 C549 0.961 . S
H565 C549 0.961 . S
H566 C550 0.931 1_655 S
H567 C555 0.930 . S
H568 C556 0.956 1_455 S
H569 C556 0.961 . S
H570 C556 0.961 . S
H571 C557 0.958 . S
H572 C557 0.961 . S
H573 C557 0.960 . S
C199 C161 1.642 . S
C191 C133 1.654 . S
C223 C25 1.557 . S
C231 C184 1.652 . S
C255 C61 1.593 . S
C263 C160 1.665 . S
C287 C97 1.661 . S
C295 C183 1.660 . S
C327 C164 1.613 . S
C319 C1 1.636 . S
C359 C186 1.643 . S
C351 C67 1.630 . S
C383 C103 1.701 . S
C391 C165 1.614 . S
C415 C109 1.640 . S
C423 C185 1.599 . S
C455 C188 1.630 . S
C447 C37 1.642 . S
C487 C163 1.641 . S
C479 C73 1.663 . S
C519 C187 1.633 . S
C511 C139 1.682 . S
C543 C31 1.590 . S
C551 C162 1.594 . S
