# Generated by pormake.
# Topology cml, (3,6)-cn, num edge types: 1
# Building blocks:
#     Node 0, Type 0, BuildingBlock: CUQRIR_clean_linker_1, # of connection points: 3
#     Node 1, Type 0, BuildingBlock: CUQRIR_clean_linker_1, # of connection points: 3
#     Node 2, Type 0, BuildingBlock: CUQRIR_clean_linker_1, # of connection points: 3
#     Node 3, Type 0, BuildingBlock: CUQRIR_clean_linker_1, # of connection points: 3
#     Node 4, Type 0, BuildingBlock: CUQRIR_clean_linker_1, # of connection points: 3
#     Node 5, Type 0, BuildingBlock: CUQRIR_clean_linker_1, # of connection points: 3
#     Node 6, Type 0, BuildingBlock: CUQRIR_clean_linker_1, # of connection points: 3
#     Node 7, Type 0, BuildingBlock: CUQRIR_clean_linker_1, # of connection points: 3
#     Node 8, Type 1, BuildingBlock: OJICUG_clean_sbu_0, # of connection points: 6
#     Node 9, Type 1, BuildingBlock: OJICUG_clean_sbu_0, # of connection points: 6
#     Node 10, Type 1, BuildingBlock: OJICUG_clean_sbu_0, # of connection points: 6
#     Node 11, Type 1, BuildingBlock: OJICUG_clean_sbu_0, # of connection points: 6
#     Edge 12, Type (0, 1), BuildingBlock: MIFKUJ_clean_linker_0, # of connection points: 2
#     Edge 13, Type (0, 1), BuildingBlock: MIFKUJ_clean_linker_0, # of connection points: 2
#     Edge 14, Type (0, 1), BuildingBlock: MIFKUJ_clean_linker_0, # of connection points: 2
#     Edge 15, Type (0, 1), BuildingBlock: MIFKUJ_clean_linker_0, # of connection points: 2
#     Edge 16, Type (0, 1), BuildingBlock: MIFKUJ_clean_linker_0, # of connection points: 2
#     Edge 17, Type (0, 1), BuildingBlock: MIFKUJ_clean_linker_0, # of connection points: 2
#     Edge 18, Type (0, 1), BuildingBlock: MIFKUJ_clean_linker_0, # of connection points: 2
#     Edge 19, Type (0, 1), BuildingBlock: MIFKUJ_clean_linker_0, # of connection points: 2
#     Edge 20, Type (0, 1), BuildingBlock: MIFKUJ_clean_linker_0, # of connection points: 2
#     Edge 21, Type (0, 1), BuildingBlock: MIFKUJ_clean_linker_0, # of connection points: 2
#     Edge 22, Type (0, 1), BuildingBlock: MIFKUJ_clean_linker_0, # of connection points: 2
#     Edge 23, Type (0, 1), BuildingBlock: MIFKUJ_clean_linker_0, # of connection points: 2
#     Edge 24, Type (0, 1), BuildingBlock: MIFKUJ_clean_linker_0, # of connection points: 2
#     Edge 25, Type (0, 1), BuildingBlock: MIFKUJ_clean_linker_0, # of connection points: 2
#     Edge 26, Type (0, 1), BuildingBlock: MIFKUJ_clean_linker_0, # of connection points: 2
#     Edge 27, Type (0, 1), BuildingBlock: MIFKUJ_clean_linker_0, # of connection points: 2
#     Edge 28, Type (0, 1), BuildingBlock: MIFKUJ_clean_linker_0, # of connection points: 2
#     Edge 29, Type (0, 1), BuildingBlock: MIFKUJ_clean_linker_0, # of connection points: 2
#     Edge 30, Type (0, 1), BuildingBlock: MIFKUJ_clean_linker_0, # of connection points: 2
#     Edge 31, Type (0, 1), BuildingBlock: MIFKUJ_clean_linker_0, # of connection points: 2
#     Edge 32, Type (0, 1), BuildingBlock: MIFKUJ_clean_linker_0, # of connection points: 2
#     Edge 33, Type (0, 1), BuildingBlock: MIFKUJ_clean_linker_0, # of connection points: 2
#     Edge 34, Type (0, 1), BuildingBlock: MIFKUJ_clean_linker_0, # of connection points: 2
#     Edge 35, Type (0, 1), BuildingBlock: MIFKUJ_clean_linker_0, # of connection points: 2
# Relax obj value: 0.003
# Max RMSD: 0.061
# Mean RMSD: 0.046
data_MOF--net-cml--node1-OJICUG_clean_sbu_0--node2-CUQRIR_clean_linker_1--edge1-MIFKUJ_clean_linker_0
_symmetry_space_group_name_H-M    P1
_symmetry_Int_Tables_number       1
_symmetry_cell_setting            triclinic
loop_
_symmetry_equiv_pos_as_xyz
'x, y, z'
_cell_length_a     49.74388
_cell_length_b     48.850191
_cell_length_c     42.518943
_cell_angle_alpha  90.035557
_cell_angle_beta   89.997753
_cell_angle_gamma 89.99689
loop_
_atom_site_label
_atom_site_type_symbol
_atom_site_fract_x
_atom_site_fract_y
_atom_site_fract_z
_atom_type_partial_charge
C0 C 0.25474 0.34879 0.01826 0.0
N1 N 0.27313 0.36912 0.02027 0.0
N2 N 0.23908 0.35224 0.99245 0.0
C3 C 0.25246 0.32517 0.04083 0.0
C4 C 0.24869 0.37543 0.97902 0.0
N5 N 0.26921 0.38575 0.99608 0.0
C6 C 0.23855 0.38773 0.94887 0.0
H7 H 0.2484 0.30591 0.02783 0.0
H8 H 0.23532 0.32896 0.05693 0.0
H9 H 0.27079 0.32262 0.05532 0.0
H10 H 0.21722 0.38217 0.9447 0.0
H11 H 0.25088 0.37993 0.92904 0.0
H12 H 0.24056 0.41035 0.94943 0.0
C13 C 0.75571 0.64041 0.52074 0.0
N14 N 0.73467 0.62285 0.5214 0.0
N15 N 0.7662 0.64186 0.49133 0.0
C16 C 0.76475 0.65754 0.5482 0.0
C17 C 0.75064 0.62472 0.47414 0.0
N18 N 0.73151 0.61327 0.49242 0.0
C19 C 0.7534 0.62037 0.43923 0.0
H20 H 0.74985 0.67408 0.55227 0.0
H21 H 0.78479 0.66676 0.54397 0.0
H22 H 0.76577 0.645 0.56986 0.0
H23 H 0.77123 0.60731 0.4347 0.0
H24 H 0.75669 0.64026 0.42724 0.0
H25 H 0.73556 0.61014 0.42897 0.0
C26 C 0.74477 0.34672 0.02137 0.0
N27 N 0.72675 0.3673 0.0245 0.0
N28 N 0.75951 0.35007 0.99488 0.0
C29 C 0.74802 0.32323 0.04393 0.0
C30 C 0.74986 0.37351 0.98204 0.0
N31 N 0.72997 0.38408 1.00017 0.0
C32 C 0.75967 0.38605 0.95175 0.0
H33 H 0.76558 0.32733 0.05931 0.0
H34 H 0.752 0.30398 0.03087 0.0
H35 H 0.73013 0.32046 0.05911 0.0
H36 H 0.74231 0.39169 0.93669 0.0
H37 H 0.77333 0.37247 0.93845 0.0
H38 H 0.77104 0.40499 0.95716 0.0
C39 C 0.24744 0.65013 0.52355 0.0
N40 N 0.26607 0.62994 0.52439 0.0
N41 N 0.23361 0.64934 0.49606 0.0
C42 C 0.24478 0.67225 0.548 0.0
C43 C 0.2446 0.62797 0.48032 0.0
N44 N 0.2645 0.61642 0.49738 0.0
C45 C 0.23484 0.61724 0.44915 0.0
H46 H 0.2294 0.66597 0.56546 0.0
H47 H 0.23834 0.69184 0.53719 0.0
H48 H 0.26405 0.67554 0.5606 0.0
H49 H 0.24651 0.62699 0.42995 0.0
H50 H 0.21322 0.62196 0.44569 0.0
H51 H 0.23788 0.59477 0.4476 0.0
C52 C 0.73325 0.86584 0.03722 0.0
N53 N 0.75392 0.88379 0.03702 0.0
N54 N 0.72109 0.8651 0.00869 0.0
C55 C 0.72628 0.84766 0.06452 0.0
C56 C 0.73536 0.88308 0.99108 0.0
N57 N 0.75539 0.8943 0.00832 0.0
C58 C 0.73088 0.88798 0.95651 0.0
H59 H 0.74035 0.83004 0.06492 0.0
H60 H 0.70539 0.83987 0.06256 0.0
H61 H 0.72862 0.85894 0.08701 0.0
H62 H 0.70956 0.89327 0.95212 0.0
H63 H 0.73534 0.86888 0.94335 0.0
H64 H 0.74353 0.90484 0.94732 0.0
C65 C 0.25828 0.13711 0.5336 0.0
N66 N 0.23802 0.11878 0.53644 0.0
N67 N 0.26951 0.13559 0.5046 0.0
C68 C 0.26802 0.15544 0.55965 0.0
C69 C 0.25536 0.1156 0.48994 0.0
N70 N 0.23645 0.1052 0.50943 0.0
C71 C 0.25782 0.10857 0.45555 0.0
H72 H 0.25667 0.17498 0.559 0.0
H73 H 0.28972 0.16009 0.5568 0.0
H74 H 0.26464 0.14575 0.58292 0.0
H75 H 0.27288 0.09199 0.45278 0.0
H76 H 0.26457 0.12653 0.4417 0.0
H77 H 0.23839 0.10127 0.44585 0.0
C78 C 0.2631 0.86013 0.03357 0.0
N79 N 0.24302 0.87866 0.0363 0.0
N80 N 0.27416 0.86114 0.00443 0.0
C81 C 0.27237 0.84166 0.05968 0.0
C82 C 0.25996 0.88097 0.98955 0.0
N83 N 0.24126 0.89173 0.00903 0.0
C84 C 0.2629 0.88823 0.95529 0.0
H85 H 0.29397 0.83647 0.0569 0.0
H86 H 0.26052 0.82243 0.0591 0.0
H87 H 0.26913 0.85155 0.08288 0.0
H88 H 0.26677 0.86958 0.94109 0.0
H89 H 0.28034 0.90218 0.95251 0.0
H90 H 0.24484 0.89879 0.94601 0.0
C91 C 0.74331 0.14204 0.53837 0.0
N92 N 0.76228 0.12224 0.53644 0.0
N93 N 0.72936 0.14374 0.51114 0.0
C94 C 0.74011 0.16139 0.56559 0.0
C95 C 0.74061 0.12446 0.49252 0.0
N96 N 0.76055 0.11132 0.50789 0.0
C97 C 0.7329 0.11941 0.45882 0.0
H98 H 0.71887 0.16798 0.56796 0.0
H99 H 0.75257 0.17984 0.56126 0.0
H100 H 0.74688 0.15171 0.58784 0.0
H101 H 0.74512 0.13287 0.44343 0.0
H102 H 0.71136 0.1243 0.45495 0.0
H103 H 0.73685 0.09782 0.45215 0.0
Sc104 Sc -0.00095 0.84833 0.31262 0.0
Sc105 Sc 0.99885 0.92048 0.31767 0.0
Sc106 Sc 0.99397 0.88074 0.38651 0.0
O107 O 0.99729 0.88318 0.33891 0.0
C108 C 0.95555 0.83218 0.3647 0.0
C109 C 0.96008 0.88678 0.27214 0.0
C110 C 0.95618 0.9317 0.37258 0.0
C111 C 0.04044 0.88628 0.27564 0.0
C112 C 0.03534 0.83241 0.3716 0.0
C113 C 0.03616 0.92956 0.37763 0.0
O114 O 0.96686 0.82883 0.33817 0.0
O115 O 0.96803 0.90916 0.28436 0.0
O116 O 0.96304 0.91116 0.38895 0.0
O117 O 0.03147 0.86305 0.28391 0.0
O118 O 0.02444 0.8497 0.38995 0.0
O119 O 0.02964 0.93486 0.34933 0.0
O120 O 0.0287 0.8298 0.34287 0.0
O121 O 0.03048 0.90863 0.28558 0.0
O122 O 0.02471 0.91114 0.39398 0.0
O123 O 0.96976 0.8635 0.27946 0.0
O124 O 0.9628 0.85039 0.38428 0.0
O125 O 0.9676 0.93784 0.34679 0.0
Sc126 Sc 9e-05 0.15043 0.81884 0.0
Sc127 Sc -0.0004 0.07831 0.8245 0.0
Sc128 Sc -0.00027 0.11877 0.89328 0.0
O129 O -0.00023 0.11584 0.84552 0.0
C130 C 0.03992 0.1669 0.87473 0.0
C131 C 0.04044 0.11172 0.78086 0.0
C132 C 0.03952 0.06842 0.8822 0.0
C133 C 0.9602 0.11207 0.77961 0.0
C134 C 0.95996 0.16728 0.8742 0.0
C135 C 0.95918 0.06901 0.88188 0.0
O136 O 0.03105 0.1696 0.84685 0.0
O137 O 0.03104 0.08946 0.79184 0.0
O138 O 0.03068 0.08831 0.89848 0.0
O139 O 0.96951 0.13536 0.78738 0.0
O140 O 0.96919 0.14988 0.8936 0.0
O141 O 0.96833 0.06289 0.85484 0.0
O142 O 0.96871 0.16964 0.84621 0.0
O143 O 0.96883 0.08978 0.79128 0.0
O144 O 0.96844 0.08863 0.89827 0.0
O145 O 0.03135 0.13509 0.78862 0.0
O146 O 0.03069 0.14936 0.89393 0.0
O147 O 0.03021 0.06229 0.85526 0.0
Sc148 Sc 0.50064 0.34034 0.31917 0.0
Sc149 Sc 0.49564 0.41208 0.32112 0.0
Sc150 Sc 0.4938 0.37467 0.39162 0.0
O151 O 0.49666 0.37565 0.34399 0.0
C152 C 0.45804 0.32313 0.37117 0.0
C153 C 0.45961 0.37552 0.27677 0.0
C154 C 0.45307 0.42235 0.37671 0.0
C155 C 0.53903 0.37898 0.28033 0.0
C156 C 0.53756 0.32851 0.37931 0.0
C157 C 0.53274 0.42578 0.37945 0.0
O158 O 0.46799 0.32082 0.34374 0.0
O159 O 0.46419 0.39831 0.29026 0.0
O160 O 0.45989 0.40159 0.3927 0.0
O161 O 0.53402 0.35578 0.29238 0.0
O162 O 0.5274 0.34735 0.39616 0.0
O163 O 0.52728 0.42823 0.35034 0.0
O164 O 0.5294 0.32321 0.35162 0.0
O165 O 0.52569 0.40043 0.28688 0.0
O166 O 0.52111 0.40871 0.39751 0.0
O167 O 0.47229 0.3536 0.28353 0.0
O168 O 0.46587 0.34099 0.39093 0.0
O169 O 0.46513 0.4293 0.35157 0.0
Sc170 Sc 0.50135 0.65769 0.81101 0.0
Sc171 Sc 0.50214 0.58536 0.81453 0.0
Sc172 Sc 0.50026 0.62421 0.88431 0.0
O173 O 0.5012 0.62244 0.83657 0.0
C174 C 0.5403 0.67313 0.86805 0.0
C175 C 0.54188 0.62055 0.77149 0.0
C176 C 0.54185 0.57538 0.87207 0.0
C177 C 0.46186 0.61897 0.77109 0.0
C178 C 0.46038 0.67295 0.86585 0.0
C179 C 0.46152 0.57379 0.8715 0.0
O180 O 0.53102 0.67713 0.84055 0.0
O181 O 0.53191 0.59806 0.78089 0.0
O182 O 0.53076 0.59328 0.88949 0.0
O183 O 0.47128 0.64225 0.77887 0.0
O184 O 0.46962 0.65528 0.88492 0.0
O185 O 0.4723 0.56759 0.84532 0.0
O186 O 0.46942 0.67602 0.8381 0.0
O187 O 0.47043 0.59652 0.78247 0.0
O188 O 0.46871 0.59436 0.8877 0.0
O189 O 0.5337 0.64376 0.7811 0.0
O190 O 0.53172 0.65437 0.88616 0.0
O191 O 0.53436 0.57071 0.84397 0.0
H192 H 0.23825 0.32998 0.93448 0.0
H193 H 0.20452 0.29834 0.91321 0.0
H194 H 0.1625 0.29971 0.00192 0.0
H195 H 0.19561 0.33239 0.02272 0.0
H196 H 0.17328 0.24533 0.97432 0.0
H197 H 0.13609 0.33408 0.94826 0.0
H198 H 0.13793 0.38025 0.92495 0.0
H199 H 0.15328 0.34528 0.83403 0.0
H200 H 0.15197 0.29889 0.85692 0.0
H201 H 0.05194 0.1804 0.93526 0.0
H202 H 0.08665 0.21161 0.95386 0.0
H203 H 0.11189 0.22605 0.85815 0.0
H204 H 0.07626 0.19559 0.83924 0.0
H205 H 0.11161 0.272 0.88784 0.0
H206 H 0.14822 0.18418 0.91052 0.0
H207 H 0.149 0.13716 0.93156 0.0
H208 H 0.13864 0.16829 0.02524 0.0
H209 H 0.13739 0.21549 0.00472 0.0
C210 C 0.22156 0.32382 0.94918 0.0
C211 C 0.21929 0.33368 0.98009 0.0
C212 C 0.20249 0.30566 0.93715 0.0
C213 C 0.18108 0.29681 0.95603 0.0
C214 C 0.17898 0.3063 0.98709 0.0
C215 C 0.19784 0.32482 0.99894 0.0
C216 C 0.16082 0.27769 0.94328 0.0
C217 C 0.15952 0.25116 0.95568 0.0
C218 C 0.14371 0.28516 0.9182 0.0
C219 C 0.14422 0.31303 0.90437 0.0
C220 C 0.1401 0.33624 0.92335 0.0
C221 C 0.141 0.36245 0.91021 0.0
C222 C 0.14579 0.3657 0.87805 0.0
C223 C 0.14961 0.34274 0.85895 0.0
C224 C 0.14877 0.31648 0.87199 0.0
C225 C 0.06496 0.1901 0.91814 0.0
C226 C 0.06147 0.1854 0.88577 0.0
C227 C 0.0849 0.20787 0.92883 0.0
C228 C 0.10229 0.22079 0.90748 0.0
C229 C 0.09877 0.21625 0.8751 0.0
C230 C 0.07846 0.19882 0.86432 0.0
C231 C 0.12371 0.23944 0.91904 0.0
C232 C 0.12534 0.26594 0.9064 0.0
C233 C 0.14151 0.23174 0.94353 0.0
C234 C 0.14248 0.20338 0.95603 0.0
C235 C 0.14593 0.18099 0.93559 0.0
C236 C 0.14648 0.15431 0.94743 0.0
C237 C 0.14381 0.14973 0.97971 0.0
C238 C 0.14067 0.17186 1.00024 0.0
C239 C 0.14007 0.19859 0.98852 0.0
H240 H 0.14422 0.12906 0.98883 0.0
H241 H 0.14648 0.38601 0.86791 0.0
H242 H 0.76576 0.69676 0.49642 0.0
H243 H 0.79819 0.72882 0.47359 0.0
H244 H 0.8427 0.66091 0.43457 0.0
H245 H 0.81103 0.62889 0.45917 0.0
H246 H 0.87632 0.69716 0.45528 0.0
H247 H 0.79899 0.70034 0.38953 0.0
H248 H 0.75092 0.705 0.37653 0.0
H249 H 0.75118 0.7874 0.41174 0.0
H250 H 0.7992 0.7831 0.42542 0.0
H251 H 0.94728 0.77992 0.34402 0.0
H252 H 0.91421 0.74694 0.36375 0.0
H253 H 0.88202 0.80836 0.42612 0.0
H254 H 0.91531 0.84133 0.40703 0.0
H255 H 0.84256 0.77442 0.39057 0.0
H256 H 0.9214 0.76805 0.45781 0.0
H257 H 0.96992 0.7618 0.46727 0.0
H258 H 0.96674 0.68258 0.4236 0.0
H259 H 0.91824 0.68858 0.41342 0.0
C260 C 0.7828 0.68881 0.48348 0.0
C261 C 0.7861 0.66051 0.47951 0.0
C262 C 0.80109 0.70705 0.47008 0.0
C263 C 0.82258 0.6973 0.45179 0.0
C264 C 0.8262 0.66893 0.44843 0.0
C265 C 0.8081 0.65068 0.46225 0.0
C266 C 0.84112 0.71671 0.43598 0.0
C267 C 0.86889 0.71379 0.44078 0.0
C268 C 0.8315 0.73855 0.41714 0.0
C269 C 0.80265 0.74131 0.40876 0.0
C270 C 0.78876 0.7194 0.39471 0.0
C271 C 0.76152 0.72198 0.38719 0.0
C272 C 0.74799 0.74646 0.39336 0.0
C273 C 0.76169 0.76844 0.407 0.0
C274 C 0.78892 0.76595 0.41462 0.0
C275 C 0.93293 0.7865 0.36164 0.0
C276 C 0.93394 0.81315 0.37411 0.0
C277 C 0.91416 0.76764 0.37292 0.0
C278 C 0.89588 0.77529 0.39644 0.0
C279 C 0.89604 0.80217 0.40795 0.0
C280 C 0.9151 0.8209 0.39711 0.0
C281 C 0.87747 0.75488 0.41024 0.0
C282 C 0.84981 0.75765 0.40499 0.0
C283 C 0.8872 0.73262 0.42813 0.0
C284 C 0.91628 0.7289 0.43453 0.0
C285 C 0.9311 0.74941 0.44996 0.0
C286 C 0.95859 0.7459 0.4555 0.0
C287 C 0.97143 0.72185 0.44595 0.0
C288 C 0.95678 0.70122 0.43093 0.0
C289 C 0.92929 0.70466 0.42528 0.0
H290 H 0.99271 0.71916 0.45026 0.0
H291 H 0.7269 0.74842 0.38752 0.0
H292 H 0.80505 0.33316 0.02302 0.0
H293 H 0.83857 0.3015 0.00157 0.0
H294 H 0.79236 0.29504 0.91584 0.0
H295 H 0.7578 0.32473 0.9387 0.0
H296 H 0.81054 0.24861 0.92686 0.0
H297 H 0.85219 0.33616 0.92422 0.0
H298 H 0.86807 0.38066 0.94436 0.0
H299 H 0.92023 0.33956 0.00949 0.0
H300 H 0.90438 0.29479 0.99004 0.0
H301 H 0.92375 0.19629 0.83878 0.0
H302 H 0.88916 0.22806 0.85784 0.0
H303 H 0.91442 0.21349 0.95337 0.0
H304 H 0.94862 0.18146 0.93474 0.0
H305 H 0.90754 0.27146 0.93399 0.0
H306 H 0.86238 0.18268 0.93216 0.0
H307 H 0.84821 0.14074 0.90451 0.0
H308 H 0.80328 0.18893 0.8384 0.0
H309 H 0.81769 0.23123 0.86531 0.0
C310 C 0.80209 0.32468 0.99975 0.0
C311 C 0.77927 0.33165 0.98217 0.0
C312 C 0.82135 0.3069 0.98729 0.0
C313 C 0.81849 0.29643 0.95663 0.0
C314 C 0.79525 0.30296 0.9394 0.0
C315 C 0.77566 0.32012 0.95224 0.0
C316 C 0.83954 0.27853 0.94264 0.0
C317 C 0.83168 0.25392 0.92811 0.0
C318 C 0.86726 0.28523 0.9441 0.0
C319 C 0.8769 0.31212 0.95586 0.0
C320 C 0.8669 0.33661 0.94299 0.0
C321 C 0.87592 0.36188 0.95426 0.0
C322 C 0.8951 0.36293 0.97824 0.0
C323 C 0.90535 0.33871 0.99095 0.0
C324 C 0.89637 0.31338 0.97979 0.0
C325 C 0.92191 0.19985 0.86384 0.0
C326 C 0.93882 0.18627 0.88527 0.0
C327 C 0.90218 0.21796 0.87465 0.0
C328 C 0.89936 0.22304 0.90696 0.0
C329 C 0.91639 0.20982 0.92834 0.0
C330 C 0.93577 0.1914 0.91764 0.0
C331 C 0.87836 0.24181 0.91875 0.0
C332 C 0.88631 0.26647 0.93278 0.0
C333 C 0.85075 0.2356 0.91595 0.0
C334 C 0.84134 0.21011 0.90054 0.0
C335 C 0.84961 0.18434 0.91161 0.0
C336 C 0.84152 0.16049 0.89608 0.0
C337 C 0.82491 0.16217 0.86964 0.0
C338 C 0.8162 0.18767 0.85883 0.0
C339 C 0.82432 0.21158 0.87422 0.0
H340 H 0.81877 0.14373 0.8575 0.0
H341 H 0.90206 0.38252 0.98693 0.0
H342 H 0.18943 0.66753 0.52657 0.0
H343 H 0.15614 0.70026 0.50681 0.0
H344 H 0.19947 0.7054 0.41895 0.0
H345 H 0.23389 0.67486 0.43996 0.0
H346 H 0.1837 0.75249 0.43165 0.0
H347 H 0.13915 0.66587 0.43066 0.0
H348 H 0.12218 0.62228 0.4521 0.0
H349 H 0.07285 0.66619 0.51789 0.0
H350 H 0.08982 0.71007 0.49713 0.0
H351 H 0.07345 0.80316 0.33945 0.0
H352 H 0.10768 0.77264 0.36155 0.0
H353 H 0.07829 0.7894 0.455 0.0
H354 H 0.04426 0.82013 0.43329 0.0
H355 H 0.08626 0.73202 0.43958 0.0
H356 H 0.13184 0.81983 0.43367 0.0
H357 H 0.14791 0.86076 0.40539 0.0
H358 H 0.19507 0.81013 0.34405 0.0
H359 H 0.17877 0.76881 0.37138 0.0
C360 C 0.19189 0.67602 0.50324 0.0
C361 C 0.21395 0.66849 0.48459 0.0
C362 C 0.17273 0.6944 0.49176 0.0
C363 C 0.17488 0.70486 0.46104 0.0
C364 C 0.1972 0.69756 0.44263 0.0
C365 C 0.21667 0.67981 0.45443 0.0
C366 C 0.15407 0.7235 0.44798 0.0
C367 C 0.16243 0.74775 0.4331 0.0
C368 C 0.12622 0.71759 0.45 0.0
C369 C 0.11598 0.69125 0.46256 0.0
C370 C 0.12484 0.66623 0.44986 0.0
C371 C 0.1152 0.64147 0.46187 0.0
C372 C 0.09651 0.64146 0.4864 0.0
C373 C 0.08736 0.66622 0.49893 0.0
C374 C 0.09698 0.69105 0.48704 0.0
C375 C 0.07429 0.80036 0.3647 0.0
C376 C 0.05622 0.81412 0.38463 0.0
C377 C 0.09386 0.783 0.37725 0.0
C378 C 0.09546 0.77893 0.40985 0.0
C379 C 0.07731 0.79236 0.42977 0.0
C380 C 0.058 0.81 0.41731 0.0
C381 C 0.11605 0.76061 0.4233 0.0
C382 C 0.10759 0.73655 0.43825 0.0
C383 C 0.1438 0.76625 0.42047 0.0
C384 C 0.15387 0.79119 0.4044 0.0
C385 C 0.14545 0.81739 0.41398 0.0
C386 C 0.15463 0.84067 0.39816 0.0
C387 C 0.17248 0.83805 0.37297 0.0
C388 C 0.18122 0.81213 0.36356 0.0
C389 C 0.17201 0.78878 0.37918 0.0
H390 H 0.17957 0.8561 0.36078 0.0
H391 H 0.08906 0.62227 0.49566 0.0
H392 H 0.72555 0.81024 0.00991 0.0
H393 H 0.69434 0.77701 0.9869 0.0
H394 H 0.64275 0.84317 0.95699 0.0
H395 H 0.67315 0.87614 0.98211 0.0
H396 H 0.61299 0.80327 0.97476 0.0
H397 H 0.68835 0.8105 0.9063 0.0
H398 H 0.7362 0.81044 0.89122 0.0
H399 H 0.74287 0.72611 0.91856 0.0
H400 H 0.69513 0.72579 0.9343 0.0
H401 H 0.54818 0.72659 0.85199 0.0
H402 H 0.57952 0.7591 0.87621 0.0
H403 H 0.61038 0.695 0.93576 0.0
H404 H 0.57862 0.66248 0.9123 0.0
H405 H 0.65018 0.73384 0.90138 0.0
H406 H 0.5721 0.72999 0.97081 0.0
H407 H 0.52337 0.73253 0.98111 0.0
H408 H 0.52145 0.81453 0.94486 0.0
H409 H 0.57014 0.81229 0.93388 0.0
C410 C 0.70723 0.81749 0.99897 0.0
C411 C 0.70171 0.84561 0.99741 0.0
C412 C 0.68961 0.79861 0.98546 0.0
C413 C 0.66652 0.80761 0.96944 0.0
C414 C 0.66053 0.83571 0.96894 0.0
C415 C 0.67795 0.85454 0.98298 0.0
C416 C 0.64897 0.78779 0.95268 0.0
C417 C 0.62118 0.78833 0.95849 0.0
C418 C 0.65953 0.76817 0.9314 0.0
C419 C 0.68822 0.7682 0.92177 0.0
C420 C 0.70006 0.792 0.90931 0.0
C421 C 0.72716 0.79202 0.90062 0.0
C422 C 0.74258 0.7683 0.904 0.0
C423 C 0.73091 0.74448 0.916 0.0
C424 C 0.70382 0.74436 0.9248 0.0
C425 C 0.56187 0.71935 0.86997 0.0
C426 C 0.56094 0.69204 0.88035 0.0
C427 C 0.57965 0.73793 0.88381 0.0
C428 C 0.59708 0.72935 0.90776 0.0
C429 C 0.59701 0.70189 0.91728 0.0
C430 C 0.57884 0.68343 0.90395 0.0
C431 C 0.61457 0.74933 0.92386 0.0
C432 C 0.64222 0.74883 0.91776 0.0
C433 C 0.60385 0.76939 0.94424 0.0
C434 C 0.57467 0.77085 0.9512 0.0
C435 C 0.56124 0.74846 0.96476 0.0
C436 C 0.53364 0.74986 0.97078 0.0
C437 C 0.51931 0.77364 0.96355 0.0
C438 C 0.53257 0.79611 0.95039 0.0
C439 C 0.56016 0.79478 0.94429 0.0
H440 H 0.49794 0.77469 0.96822 0.0
H441 H 0.76356 0.76836 0.89725 0.0
H442 H 0.26917 0.19072 0.50528 0.0
H443 H 0.30165 0.22129 0.48029 0.0
H444 H 0.34578 0.1513 0.44582 0.0
H445 H 0.31407 0.12075 0.47276 0.0
H446 H 0.37965 0.18806 0.46377 0.0
H447 H 0.30275 0.1893 0.39789 0.0
H448 H 0.25482 0.19351 0.38398 0.0
H449 H 0.25486 0.27718 0.41499 0.0
H450 H 0.30271 0.27336 0.42957 0.0
H451 H 0.45033 0.27076 0.3505 0.0
H452 H 0.41772 0.23732 0.37042 0.0
H453 H 0.38572 0.29804 0.43381 0.0
H454 H 0.4186 0.33139 0.41462 0.0
H455 H 0.34631 0.26381 0.39648 0.0
H456 H 0.42466 0.25846 0.46538 0.0
H457 H 0.47315 0.25232 0.47521 0.0
H458 H 0.4703 0.17295 0.43186 0.0
H459 H 0.42184 0.17884 0.42133 0.0
C460 C 0.28613 0.18196 0.49293 0.0
C461 C 0.28929 0.15348 0.49096 0.0
C462 C 0.30444 0.19938 0.47821 0.0
C463 C 0.32585 0.18861 0.46055 0.0
C464 C 0.32934 0.1601 0.45913 0.0
C465 C 0.31122 0.14268 0.47431 0.0
C466 C 0.34454 0.20719 0.44367 0.0
C467 C 0.3723 0.20432 0.44868 0.0
C468 C 0.33506 0.22849 0.42393 0.0
C469 C 0.30629 0.23096 0.41507 0.0
C470 C 0.2925 0.20855 0.40196 0.0
C471 C 0.26534 0.21087 0.39393 0.0
C472 C 0.25179 0.23558 0.39866 0.0
C473 C 0.26538 0.25804 0.41137 0.0
C474 C 0.29253 0.25582 0.4195 0.0
C475 C 0.43616 0.27705 0.36844 0.0
C476 C 0.43705 0.30362 0.38113 0.0
C477 C 0.41764 0.25794 0.37981 0.0
C478 C 0.39948 0.26531 0.40357 0.0
C479 C 0.39963 0.29208 0.41542 0.0
C480 C 0.41846 0.31102 0.40456 0.0
C481 C 0.38106 0.24481 0.41717 0.0
C482 C 0.35345 0.24735 0.41142 0.0
C483 C 0.39068 0.22286 0.43562 0.0
C484 C 0.41972 0.21923 0.44224 0.0
C485 C 0.43443 0.23982 0.45768 0.0
C486 C 0.4619 0.23636 0.46343 0.0
C487 C 0.47482 0.2123 0.45407 0.0
C488 C 0.46028 0.1916 0.43904 0.0
C489 C 0.43282 0.19498 0.43319 0.0
H490 H 0.49608 0.20966 0.45854 0.0
H491 H 0.23077 0.23734 0.39242 0.0
H492 H 0.27297 0.80598 0.00602 0.0
H493 H 0.30527 0.77446 0.98179 0.0
H494 H 0.35014 0.84311 0.94567 0.0
H495 H 0.31859 0.87473 0.97145 0.0
H496 H 0.33489 0.79705 0.90054 0.0
H497 H 0.37801 0.81612 1.0003 0.0
H498 H 0.37904 0.81966 0.05814 0.0
H499 H 0.35937 0.73435 0.06597 0.0
H500 H 0.35779 0.73041 0.00813 0.0
H501 H 0.44989 0.72503 0.84609 0.0
H502 H 0.41775 0.75739 0.86857 0.0
H503 H 0.39037 0.69527 0.93328 0.0
H504 H 0.4234 0.66328 0.91185 0.0
H505 H 0.39654 0.73935 0.9639 0.0
H506 H 0.35256 0.71816 0.86706 0.0
H507 H 0.34799 0.71243 0.80969 0.0
H508 H 0.36465 0.79785 0.79612 0.0
H509 H 0.36969 0.80403 0.85342 0.0
C510 C 0.29005 0.81429 0.9935 0.0
C511 C 0.29351 0.84272 0.9908 0.0
C512 C 0.30827 0.79634 0.97942 0.0
C513 C 0.32997 0.80656 0.96198 0.0
C514 C 0.33339 0.83493 0.95896 0.0
C515 C 0.31542 0.85289 0.97357 0.0
C516 C 0.3491 0.78746 0.94701 0.0
C517 C 0.3487 0.78465 0.91421 0.0
C518 C 0.36631 0.77076 0.96513 0.0
C519 C 0.36751 0.77304 0.99989 0.0
C520 C 0.37366 0.79817 0.01435 0.0
C521 C 0.37439 0.80024 0.04713 0.0
C522 C 0.3692 0.77726 0.06572 0.0
C523 C 0.36335 0.75214 0.05154 0.0
C524 C 0.36255 0.74998 0.01876 0.0
C525 C 0.43678 0.7182 0.86485 0.0
C526 C 0.43913 0.69163 0.87722 0.0
C527 C 0.41833 0.73669 0.87764 0.0
C528 C 0.40136 0.72874 0.90244 0.0
C529 C 0.40328 0.70196 0.91426 0.0
C530 C 0.4221 0.68366 0.90193 0.0
C531 C 0.38248 0.74862 0.91707 0.0
C532 C 0.38284 0.75164 0.94995 0.0
C533 C 0.36483 0.76511 0.899 0.0
C534 C 0.36177 0.76149 0.86452 0.0
C535 C 0.35546 0.73568 0.85183 0.0
C536 C 0.35274 0.73236 0.81933 0.0
C537 C 0.35609 0.75475 0.79927 0.0
C538 C 0.3621 0.78052 0.81169 0.0
C539 C 0.36486 0.78395 0.84418 0.0
H540 H 0.35398 0.75213 0.77411 0.0
H541 H 0.36977 0.7789 0.09109 0.0
H542 H 0.67824 0.15081 0.52977 0.0
H543 H 0.64623 0.18481 0.50908 0.0
H544 H 0.70854 0.21775 0.4494 0.0
H545 H 0.74033 0.18388 0.47038 0.0
H546 H 0.67781 0.2582 0.47539 0.0
H547 H 0.66546 0.17363 0.41984 0.0
H548 H 0.6571 0.12407 0.415 0.0
H549 H 0.57996 0.13389 0.45894 0.0
H550 H 0.58809 0.18349 0.46456 0.0
H551 H 0.56629 0.28772 0.3505 0.0
H552 H 0.60056 0.2583 0.37389 0.0
H553 H 0.59151 0.30036 0.4625 0.0
H554 H 0.55759 0.33018 0.43929 0.0
H555 H 0.59675 0.22269 0.42088 0.0
H556 H 0.65167 0.30085 0.50079 0.0
H557 H 0.66228 0.35018 0.50174 0.0
H558 H 0.65815 0.353 0.40092 0.0
H559 H 0.64788 0.30363 0.39934 0.0
C560 C 0.68495 0.16568 0.51261 0.0
C561 C 0.71142 0.16502 0.50144 0.0
C562 C 0.66681 0.18492 0.50075 0.0
C563 C 0.67503 0.20361 0.47754 0.0
C564 C 0.70184 0.20355 0.46733 0.0
C565 C 0.71989 0.18427 0.47912 0.0
C566 C 0.6554 0.22219 0.46249 0.0
C567 C 0.66 0.2505 0.46361 0.0
C568 C 0.63255 0.21201 0.44651 0.0
C569 C 0.62751 0.18223 0.44292 0.0
C570 C 0.64681 0.16519 0.42871 0.0
C571 C 0.6421 0.1371 0.42579 0.0
C572 C 0.61804 0.12582 0.43672 0.0
C573 C 0.59861 0.14264 0.45053 0.0
C574 C 0.60326 0.17075 0.45358 0.0
C575 C 0.57169 0.29088 0.37491 0.0
C576 C 0.55917 0.31138 0.39298 0.0
C577 C 0.59122 0.27396 0.38826 0.0
C578 C 0.59868 0.27725 0.41986 0.0
C579 C 0.58633 0.29773 0.43794 0.0
C580 C 0.56687 0.31472 0.42461 0.0
C581 C 0.61893 0.25881 0.4341 0.0
C582 C 0.61445 0.23047 0.43283 0.0
C583 C 0.64217 0.26897 0.44936 0.0
C584 C 0.64873 0.2986 0.45 0.0
C585 C 0.65313 0.31198 0.47882 0.0
C586 C 0.65907 0.33995 0.47947 0.0
C587 C 0.6608 0.35473 0.45142 0.0
C588 C 0.6567 0.34155 0.42264 0.0
C589 C 0.65078 0.31358 0.42186 0.0
H590 H 0.66537 0.37639 0.45198 0.0
H591 H 0.61442 0.10407 0.43443 0.0
H592 H 0.31475 0.37655 0.96488 0.0
H593 H 0.34668 0.41093 0.94554 0.0
H594 H 0.29741 0.47504 0.98528 0.0
H595 H 0.26515 0.44024 0.00385 0.0
H596 H 0.31415 0.48893 0.92788 0.0
H597 H 0.35478 0.45522 0.02057 0.0
H598 H 0.37051 0.41997 0.05753 0.0
H599 H 0.42849 0.39221 0.98991 0.0
H600 H 0.41254 0.4268 0.95202 0.0
H601 H 0.422 0.58721 0.91338 0.0
H602 H 0.3881 0.55679 0.9363 0.0
H603 H 0.41975 0.48923 0.88253 0.0
H604 H 0.45339 0.51958 0.85899 0.0
H605 H 0.41158 0.48013 0.95104 0.0
H606 H 0.36635 0.51318 0.85736 0.0
H607 H 0.34937 0.5493 0.82215 0.0
H608 H 0.29996 0.5809 0.89658 0.0
H609 H 0.31704 0.54521 0.93246 0.0
C610 C 0.311 0.39803 0.9694 0.0
C611 C 0.28793 0.4061 0.98575 0.0
C612 C 0.32913 0.4176 0.95854 0.0
C613 C 0.32461 0.44555 0.96435 0.0
C614 C 0.3013 0.4536 0.98061 0.0
C615 C 0.28304 0.43391 0.99129 0.0
C616 C 0.3443 0.46617 0.95322 0.0
C617 C 0.33538 0.48726 0.9334 0.0
C618 C 0.37204 0.46391 0.9603 0.0
C619 C 0.38229 0.44352 0.98331 0.0
C620 C 0.37077 0.4415 0.01345 0.0
C621 C 0.37972 0.42161 0.0346 0.0
C622 C 0.40049 0.40385 0.02613 0.0
C623 C 0.41238 0.40597 0.99645 0.0
C624 C 0.40337 0.42572 0.97509 0.0
C625 C 0.42167 0.5659 0.90634 0.0
C626 C 0.44032 0.55577 0.88434 0.0
C627 C 0.40231 0.5486 0.91943 0.0
C628 C 0.40155 0.52084 0.91111 0.0
C629 C 0.42013 0.51063 0.88924 0.0
C630 C 0.43918 0.52801 0.87569 0.0
C631 C 0.38141 0.50236 0.92529 0.0
C632 C 0.3903 0.4818 0.94579 0.0
C633 C 0.35363 0.50539 0.9193 0.0
C634 C 0.34322 0.52673 0.8977 0.0
C635 C 0.35207 0.52799 0.86632 0.0
C636 C 0.34238 0.54835 0.84621 0.0
C637 C 0.32365 0.56743 0.85713 0.0
C638 C 0.31451 0.56614 0.88817 0.0
C639 C 0.32418 0.54584 0.9084 0.0
H640 H 0.31616 0.58317 0.84151 0.0
H641 H 0.40738 0.38846 0.04257 0.0
H642 H 0.6881 0.62652 0.45836 0.0
H643 H 0.65166 0.59569 0.44206 0.0
H644 H 0.69252 0.52821 0.48715 0.0
H645 H 0.72806 0.55965 0.5047 0.0
H646 H 0.64971 0.5555 0.40528 0.0
H647 H 0.64908 0.48058 0.5127 0.0
H648 H 0.65765 0.48285 0.5698 0.0
H649 H 0.63914 0.5687 0.5698 0.0
H650 H 0.62997 0.56687 0.51285 0.0
H651 H 0.58196 0.43828 0.35584 0.0
H652 H 0.61511 0.46983 0.37802 0.0
H653 H 0.56105 0.48779 0.45486 0.0
H654 H 0.52892 0.45447 0.43394 0.0
H655 H 0.6068 0.48883 0.47751 0.0
H656 H 0.57007 0.53146 0.38692 0.0
H657 H 0.55612 0.53607 0.33152 0.0
H658 H 0.6381 0.52691 0.30169 0.0
H659 H 0.6525 0.52189 0.35691 0.0
C660 C 0.68896 0.60508 0.46476 0.0
C661 C 0.71052 0.59512 0.48256 0.0
C662 C 0.66834 0.5875 0.45547 0.0
C663 C 0.66918 0.55963 0.4636 0.0
C664 C 0.69107 0.54971 0.48116 0.0
C665 C 0.71141 0.56746 0.49096 0.0
C666 C 0.64753 0.54085 0.453 0.0
C667 C 0.64027 0.54099 0.42112 0.0
C668 C 0.6345 0.52254 0.47383 0.0
C669 C 0.63909 0.5236 0.50838 0.0
C670 C 0.64664 0.4999 0.5249 0.0
C671 C 0.65164 0.50112 0.55725 0.0
C672 C 0.64905 0.52592 0.57338 0.0
C673 C 0.64124 0.54952 0.55725 0.0
C674 C 0.63614 0.5484 0.52494 0.0
C675 C 0.57736 0.44888 0.37758 0.0
C676 C 0.55295 0.44421 0.39315 0.0
C677 C 0.59617 0.46706 0.39015 0.0
C678 C 0.59036 0.4819 0.41771 0.0
C679 C 0.56609 0.47673 0.43358 0.0
C680 C 0.54769 0.45779 0.42158 0.0
C681 C 0.60932 0.50311 0.42958 0.0
C682 C 0.6161 0.50344 0.4617 0.0
C683 C 0.62086 0.52294 0.40931 0.0
C684 C 0.61232 0.52608 0.37604 0.0
C685 C 0.5851 0.53028 0.36853 0.0
C686 C 0.57711 0.53297 0.33717 0.0
C687 C 0.5962 0.53172 0.3131 0.0
C688 C 0.62333 0.52785 0.32036 0.0
C689 C 0.63142 0.5251 0.35169 0.0
H690 H 0.58998 0.53381 0.28883 0.0
H691 H 0.65307 0.52684 0.59837 0.0
H692 H 0.74411 0.43573 0.98382 0.0
H693 H 0.71463 0.47069 0.96145 0.0
H694 H 0.64597 0.41877 0.97925 0.0
H695 H 0.67592 0.38253 0.99699 0.0
H696 H 0.63989 0.43744 0.92626 0.0
H697 H 0.66832 0.4792 0.02262 0.0
H698 H 0.69979 0.49815 0.06176 0.0
H699 H 0.72583 0.55853 0.99506 0.0
H700 H 0.69473 0.53966 0.95544 0.0
H701 H 0.55582 0.57022 0.93396 0.0
H702 H 0.59022 0.54053 0.95648 0.0
H703 H 0.61308 0.51415 0.86338 0.0
H704 H 0.57811 0.54317 0.84065 0.0
H705 H 0.64275 0.53612 0.95337 0.0
H706 H 0.6298 0.44764 0.86461 0.0
H707 H 0.59501 0.42847 0.82954 0.0
H708 H 0.53315 0.46032 0.88976 0.0
H709 H 0.56756 0.47936 0.92536 0.0
C710 C 0.72276 0.43175 0.98247 0.0
C711 C 0.71232 0.40635 0.9919 0.0
C712 C 0.70581 0.45194 0.97025 0.0
C713 C 0.67789 0.44763 0.96883 0.0
C714 C 0.6674 0.42268 0.97983 0.0
C715 C 0.68446 0.40211 0.99067 0.0
C716 C 0.65956 0.46824 0.9545 0.0
C717 C 0.64061 0.45898 0.93239 0.0
C718 C 0.66038 0.49651 0.96219 0.0
C719 C 0.67918 0.50789 0.98603 0.0
C720 C 0.68076 0.49647 0.01632 0.0
C721 C 0.69858 0.50718 0.03857 0.0
C722 C 0.71481 0.52954 0.03091 0.0
C723 C 0.71325 0.54121 0.00097 0.0
C724 C 0.69551 0.5305 0.97861 0.0
C725 C 0.56824 0.55822 0.91821 0.0
C726 C 0.56396 0.5588 0.8855 0.0
C727 C 0.58799 0.54134 0.93115 0.0
C728 C 0.60397 0.52482 0.91168 0.0
C729 C 0.60061 0.5263 0.87891 0.0
C730 C 0.58061 0.54292 0.86595 0.0
C731 C 0.62311 0.50504 0.92581 0.0
C732 C 0.64226 0.51451 0.94749 0.0
C733 C 0.62211 0.47684 0.91846 0.0
C734 C 0.60126 0.46516 0.89743 0.0
C735 C 0.60877 0.45046 0.8704 0.0
C736 C 0.58912 0.43963 0.85043 0.0
C737 C 0.56189 0.44326 0.85736 0.0
C738 C 0.55425 0.45761 0.88436 0.0
C739 C 0.57381 0.46844 0.90442 0.0
H740 H 0.54671 0.43489 0.84186 0.0
H741 H 0.72858 0.53782 0.04816 0.0
H742 H 0.27424 0.56807 0.52574 0.0
H743 H 0.3045 0.53173 0.50685 0.0
H744 H 0.32597 0.58198 0.42719 0.0
H745 H 0.29555 0.61787 0.44599 0.0
H746 H 0.31543 0.53109 0.40892 0.0
H747 H 0.37048 0.57343 0.48998 0.0
H748 H 0.37958 0.58987 0.54379 0.0
H749 H 0.36491 0.50933 0.58026 0.0
H750 H 0.35617 0.49228 0.5265 0.0
H751 H 0.43545 0.47146 0.35335 0.0
H752 H 0.40109 0.50144 0.3755 0.0
H753 H 0.38627 0.44301 0.44953 0.0
H754 H 0.4209 0.41302 0.42788 0.0
H755 H 0.39045 0.49392 0.47283 0.0
H756 H 0.3416 0.45059 0.38973 0.0
H757 H 0.33341 0.43474 0.3355 0.0
H758 H 0.33525 0.51779 0.30255 0.0
H759 H 0.34384 0.53412 0.35653 0.0
C760 C 0.28559 0.57115 0.5043 0.0
C761 C 0.28261 0.59538 0.48702 0.0
C762 C 0.30285 0.55057 0.49357 0.0
C763 C 0.31756 0.55421 0.46564 0.0
C764 C 0.31469 0.57865 0.44864 0.0
C765 C 0.29737 0.59906 0.45928 0.0
C766 C 0.33574 0.53259 0.45364 0.0
C767 C 0.33198 0.52312 0.42278 0.0
C768 C 0.35679 0.52161 0.47208 0.0
C769 C 0.36244 0.53166 0.50431 0.0
C770 C 0.36911 0.55926 0.5095 0.0
C771 C 0.37421 0.56868 0.53997 0.0
C772 C 0.37254 0.55074 0.56548 0.0
C773 C 0.36611 0.52323 0.5605 0.0
C774 C 0.36123 0.51363 0.53001 0.0
C775 C 0.42477 0.46482 0.37419 0.0
C776 C 0.43098 0.43979 0.38879 0.0
C777 C 0.40506 0.48198 0.38679 0.0
C778 C 0.39097 0.47434 0.41403 0.0
C779 C 0.39692 0.4493 0.42851 0.0
C780 C 0.41668 0.43215 0.416 0.0
C781 C 0.37052 0.49288 0.42778 0.0
C782 C 0.37377 0.50168 0.45902 0.0
C783 C 0.34899 0.5033 0.40965 0.0
C784 C 0.34357 0.49356 0.37717 0.0
C785 C 0.34044 0.46546 0.3709 0.0
C786 C 0.3357 0.45639 0.3402 0.0
C787 C 0.33387 0.47524 0.31559 0.0
C788 C 0.33669 0.50321 0.32164 0.0
C789 C 0.34146 0.51239 0.35229 0.0
H790 H 0.33021 0.46817 0.29184 0.0
H791 H 0.37635 0.55814 0.58907 0.0
H792 H 0.79152 0.8841 0.96276 0.0
H793 H 0.82695 0.91509 0.94409 0.0
H794 H 0.8022 0.97545 0.01244 0.0
H795 H 0.76645 0.9444 0.0306 0.0
H796 H 0.80964 0.99802 0.95498 0.0
H797 H 0.85873 0.94061 0.02416 0.0
H798 H 0.87406 0.89704 0.04715 0.0
H799 H 0.90995 0.87435 0.95905 0.0
H800 H 0.89454 0.9177 0.93538 0.0
H801 H 0.92698 0.08095 0.93229 0.0
H802 H 0.89214 0.05211 0.95569 0.0
H803 H 0.90721 0.98991 0.88588 0.0
H804 H 0.94202 0.0186 0.86217 0.0
H805 H 0.90524 0.9697 0.94778 0.0
H806 H 0.85316 0.02803 0.87904 0.0
H807 H 0.83567 0.07145 0.8577 0.0
H808 H 0.80518 0.09325 0.9488 0.0
H809 H 0.82281 0.05011 0.9708 0.0
C810 C 0.7937 0.90408 0.97351 0.0
C811 C 0.77626 0.91231 0.99761 0.0
C812 C 0.81397 0.92162 0.96313 0.0
C813 C 0.81726 0.94751 0.97701 0.0
C814 C 0.79994 0.95559 0.00139 0.0
C815 C 0.77967 0.93798 0.01176 0.0
C816 C 0.83837 0.96633 0.96541 0.0
C817 C 0.83063 0.99204 0.95391 0.0
C818 C 0.86566 0.95832 0.96371 0.0
C819 C 0.87528 0.93233 0.97791 0.0
C820 C 0.86972 0.92626 0.0096 0.0
C821 C 0.87844 0.9016 0.02277 0.0
C822 C 0.89289 0.88289 0.00454 0.0
C823 C 0.89873 0.88886 0.97313 0.0
C824 C 0.89005 0.91349 0.95984 0.0
C825 C 0.92285 0.06118 0.92182 0.0
C826 C 0.93731 0.05208 0.89534 0.0
C827 C 0.90288 0.04478 0.93519 0.0
C828 C 0.89711 0.01894 0.92245 0.0
C829 C 0.91143 0.0098 0.89605 0.0
C830 C 0.93121 0.02629 0.88245 0.0
C831 C 0.87641 0.00123 0.93694 0.0
C832 C 0.88428 0.97573 0.94906 0.0
C833 C 0.84929 0.0096 0.93963 0.0
C834 C 0.83954 0.03596 0.92663 0.0
C835 C 0.84303 0.04223 0.89461 0.0
C836 C 0.83301 0.06675 0.88237 0.0
C837 C 0.8193 0.08506 0.90188 0.0
C838 C 0.81578 0.07902 0.93372 0.0
C839 C 0.82578 0.05455 0.94608 0.0
H840 H 0.81125 0.10384 0.89232 0.0
H841 H 0.89961 0.8638 0.01477 0.0
H842 H 0.24499 0.05368 0.49003 0.0
H843 H 0.21106 0.0214 0.47027 0.0
H844 H 0.14872 0.08026 0.49068 0.0
H845 H 0.18282 0.11262 0.50976 0.0
H846 H 0.16637 0.99674 0.49427 0.0
H847 H 0.10462 0.0795 0.42901 0.0
H848 H 0.11152 0.12524 0.40576 0.0
H849 H 0.19495 0.10685 0.39064 0.0
H850 H 0.18843 0.06087 0.41325 0.0
H851 H 0.04396 0.93897 0.44023 0.0
H852 H 0.07857 0.96725 0.46471 0.0
H853 H 0.11224 0.98457 0.37327 0.0
H854 H 0.07688 0.95727 0.34856 0.0
H855 H 0.11084 0.02896 0.40468 0.0
H856 H 0.14128 0.93796 0.42823 0.0
H857 H 0.13767 0.89095 0.44897 0.0
H858 H 0.12302 0.92253 0.5416 0.0
H859 H 0.12612 0.96974 0.52139 0.0
C860 C 0.22396 0.0594 0.49053 0.0
C861 C 0.21629 0.0854 0.50122 0.0
C862 C 0.20466 0.04103 0.47946 0.0
C863 C 0.17744 0.04857 0.47875 0.0
C864 C 0.16966 0.07417 0.49077 0.0
C865 C 0.189 0.09253 0.50181 0.0
C866 C 0.1575 0.03046 0.46342 0.0
C867 C 0.15413 0.00373 0.47474 0.0
C868 C 0.14207 0.03946 0.43748 0.0
C869 C 0.14607 0.06686 0.42315 0.0
C870 C 0.12439 0.08518 0.42057 0.0
C871 C 0.12825 0.11115 0.40751 0.0
C872 C 0.15368 0.11898 0.39682 0.0
C873 C 0.17528 0.1008 0.39901 0.0
C874 C 0.17152 0.07479 0.41196 0.0
C875 C 0.05883 0.94869 0.42535 0.0
C876 C 0.05773 0.94588 0.39247 0.0
C877 C 0.0787 0.96476 0.4394 0.0
C878 C 0.09832 0.97774 0.42091 0.0
C879 C 0.09733 0.97479 0.38805 0.0
C880 C 0.07714 0.95915 0.37395 0.0
C881 C 0.11935 0.9951 0.43566 0.0
C882 C 0.12295 0.02182 0.42424 0.0
C883 C 0.13544 0.9858 0.46102 0.0
C884 C 0.1337 0.9574 0.47322 0.0
C885 C 0.13711 0.93488 0.45298 0.0
C886 C 0.13518 0.9082 0.46464 0.0
C887 C 0.13008 0.90376 0.49654 0.0
C888 C 0.12695 0.926 0.51689 0.0
C889 C 0.1288 0.95272 0.50535 0.0
H890 H 0.1286 0.88308 0.5055 0.0
H891 H 0.15663 0.13911 0.38678 0.0
H892 H 0.1954 0.87806 0.98016 0.0
H893 H 0.16072 0.90968 0.9605 0.0
H894 H 0.2051 0.97792 0.9987 0.0
H895 H 0.24009 0.94615 0.01751 0.0
H896 H 0.14522 0.97743 0.00883 0.0
H897 H 0.21362 0.96978 0.92848 0.0
H898 H 0.24353 0.9436 0.89335 0.0
H899 H 0.175 0.90677 0.84883 0.0
H900 H 0.14467 0.93233 0.88418 0.0
H901 H 0.07603 0.08242 0.92748 0.0
H902 H 0.11098 0.05353 0.95045 0.0
H903 H 0.08603 0.98641 0.89115 0.0
H904 H 0.05186 0.01556 0.86716 0.0
H905 H 0.13741 0.9871 0.89298 0.0
H906 H 0.06874 0.99174 0.97195 0.0
H907 H 0.03706 0.0142 0.00837 0.0
H908 H 0.10294 0.05291 0.05615 0.0
H909 H 0.135 0.03093 0.01975 0.0
C910 C 0.19738 0.8998 0.98452 0.0
C911 C 0.22 0.90998 1.00023 0.0
C912 C 0.17775 0.91776 0.97339 0.0
C913 C 0.18048 0.94605 0.97818 0.0
C914 C 0.20266 0.95612 0.99497 0.0
C915 C 0.22252 0.93815 0.00563 0.0
C916 C 0.16101 0.96516 0.9639 0.0
C917 C 0.14366 0.97992 0.98354 0.0
C918 C 0.1587 0.96769 0.93091 0.0
C919 C 0.17689 0.95276 0.90919 0.0
C920 C 0.20493 0.95593 0.91138 0.0
C921 C 0.22196 0.94122 0.8914 0.0
C922 C 0.21117 0.92349 0.86891 0.0
C923 C 0.18333 0.92049 0.86629 0.0
C924 C 0.16621 0.93509 0.88629 0.0
C925 C 0.07804 0.06151 0.91932 0.0
C926 C 0.06111 0.05122 0.89562 0.0
C927 C 0.09793 0.04496 0.93258 0.0
C928 C 0.10083 0.01758 0.923 0.0
C929 C 0.08419 0.00743 0.89899 0.0
C930 C 0.06464 0.02412 0.88531 0.0
C931 C 0.12119 0.99948 0.93785 0.0
C932 C 0.13884 0.98482 0.9183 0.0
C933 C 0.12346 0.99672 0.97096 0.0
C934 C 0.10424 0.00991 0.99293 0.0
C935 C 0.07645 0.0052 0.99008 0.0
C936 C 0.05843 0.01781 0.01074 0.0
C937 C 0.06798 0.03503 0.03451 0.0
C938 C 0.09557 0.0396 0.03771 0.0
C939 C 0.11368 0.02705 0.01709 0.0
H940 H 0.05399 0.04478 0.05048 0.0
H941 H 0.22439 0.91211 0.85347 0.0
H942 H 0.76814 0.05815 0.52143 0.0
H943 H 0.80136 0.02731 0.49736 0.0
H944 H 0.82849 0.09313 0.4376 0.0
H945 H 0.79572 0.12404 0.46245 0.0
H946 H 0.82024 0.04268 0.40571 0.0
H947 H 0.86504 0.07854 0.49651 0.0
H948 H 0.86793 0.09 0.55275 0.0
H949 H 0.86253 0.00477 0.5766 0.0
H950 H 0.85894 0.99282 0.52032 0.0
H951 H 0.94187 0.98276 0.3518 0.0
H952 H 0.90803 0.01329 0.37425 0.0
H953 H 0.88781 0.95199 0.44332 0.0
H954 H 0.92196 0.92158 0.42154 0.0
H955 H 0.89231 0.00069 0.47042 0.0
H956 H 0.84717 0.96475 0.37937 0.0
H957 H 0.84215 0.95368 0.32308 0.0
H958 H 0.84741 0.03903 0.2998 0.0
H959 H 0.85284 0.05058 0.35594 0.0
C960 C 0.78157 0.06595 0.50354 0.0
C961 C 0.77997 0.09332 0.49399 0.0
C962 C 0.80026 0.04841 0.48963 0.0
C963 C 0.81737 0.05806 0.46582 0.0
C964 C 0.81539 0.08535 0.45588 0.0
C965 C 0.79688 0.10292 0.47004 0.0
C966 C 0.83782 0.03982 0.45185 0.0
C967 C 0.83622 0.03371 0.41969 0.0
C968 C 0.85826 0.02785 0.47038 0.0
C969 C 0.86147 0.0348 0.50419 0.0
C970 C 0.86431 0.06223 0.51374 0.0
C971 C 0.86607 0.06882 0.54565 0.0
C972 C 0.86538 0.04814 0.56831 0.0
C973 C 0.86303 0.02078 0.55903 0.0
C974 C 0.86114 0.01408 0.52711 0.0
C975 C 0.9301 0.97568 0.37162 0.0
C976 C 0.93464 0.9497 0.38483 0.0
C977 C 0.91073 0.99315 0.3844 0.0
C978 C 0.89524 0.98483 0.41031 0.0
C979 C 0.89958 0.95886 0.42339 0.0
C980 C 0.91907 0.94146 0.4108 0.0
C981 C 0.87476 0.00332 0.42411 0.0
C982 C 0.87636 0.00955 0.45633 0.0
C983 C 0.85427 0.01537 0.4056 0.0
C984 C 0.85066 0.0085 0.37185 0.0
C985 C 0.84743 0.98114 0.36223 0.0
C986 C 0.84449 0.97478 0.33035 0.0
C987 C 0.84453 0.99563 0.30787 0.0
C988 C 0.84741 0.02289 0.31723 0.0
C989 C 0.8504 0.02937 0.34909 0.0
H990 H 0.84228 0.99066 0.28319 0.0
H991 H 0.86669 0.0533 0.59302 0.0
H992 H 0.31698 0.33764 0.02763 0.0
H993 H 0.35017 0.34071 0.07035 0.0
H994 H 0.30858 0.41119 0.10763 0.0
H995 H 0.27575 0.40816 0.06443 0.0
H996 H 0.36269 0.41691 0.11258 0.0
H997 H 0.29685 0.34864 0.13753 0.0
H998 H 0.26962 0.30742 0.12731 0.0
H999 H 0.34136 0.25877 0.12168 0.0
H1000 H 0.36907 0.29983 0.13126 0.0
H1001 H 0.4196 0.41252 0.2647 0.0
H1002 H 0.38797 0.41242 0.22077 0.0
H1003 H 0.42306 0.33743 0.18616 0.0
H1004 H 0.45412 0.33688 0.23064 0.0
H1005 H 0.37123 0.33476 0.18041 0.0
H1006 H 0.43767 0.40215 0.15357 0.0
H1007 H 0.4656 0.44328 0.16155 0.0
H1008 H 0.39456 0.49286 0.16854 0.0
H1009 H 0.36619 0.45194 0.16102 0.0
C1010 C 0.31525 0.35381 0.04493 0.0
C1011 C 0.29378 0.37232 0.04355 0.0
C1012 C 0.33405 0.35559 0.06924 0.0
C1013 C 0.33145 0.3758 0.09259 0.0
C1014 C 0.31082 0.39531 0.09003 0.0
C1015 C 0.2921 0.39357 0.06559 0.0
C1016 C 0.34929 0.3756 0.12054 0.0
C1017 C 0.3645 0.399 0.12747 0.0
C1018 C 0.3517 0.35218 0.13994 0.0
C1019 C 0.33504 0.32736 0.13485 0.0
C1020 C 0.30683 0.32918 0.13393 0.0
C1021 C 0.2913 0.30584 0.12825 0.0
C1022 C 0.30375 0.2805 0.1238 0.0
C1023 C 0.33175 0.27842 0.1251 0.0
C1024 C 0.34737 0.30172 0.13066 0.0
C1025 C 0.42052 0.39594 0.2478 0.0
C1026 C 0.43948 0.37478 0.2511 0.0
C1027 C 0.40251 0.39599 0.22258 0.0
C1028 C 0.40347 0.37522 0.19974 0.0
C1029 C 0.42197 0.35373 0.2034 0.0
C1030 C 0.43972 0.35345 0.22886 0.0
C1031 C 0.38529 0.37585 0.172 0.0
C1032 C 0.36976 0.35257 0.16527 0.0
C1033 C 0.3828 0.3993 0.1526 0.0
C1034 C 0.39981 0.42394 0.15706 0.0
C1035 C 0.428 0.4218 0.15704 0.0
C1036 C 0.44392 0.44507 0.16144 0.0
C1037 C 0.43186 0.47065 0.16563 0.0
C1038 C 0.40387 0.47302 0.16534 0.0
C1039 C 0.38786 0.4498 0.16099 0.0
H1040 H 0.44421 0.48865 0.16904 0.0
H1041 H 0.2917 0.26245 0.11939 0.0
H1042 H 0.68239 0.63644 0.521 0.0
H1043 H 0.65051 0.63251 0.56458 0.0
H1044 H 0.71325 0.59892 0.62318 0.0
H1045 H 0.74458 0.60103 0.57851 0.0
H1046 H 0.66823 0.57482 0.63676 0.0
H1047 H 0.69578 0.66765 0.62616 0.0
H1048 H 0.70419 0.71111 0.59839 0.0
H1049 H 0.61999 0.71856 0.57781 0.0
H1050 H 0.61113 0.67489 0.60504 0.0
H1051 H 0.58281 0.65706 0.76247 0.0
H1052 H 0.61823 0.65508 0.72257 0.0
H1053 H 0.58354 0.58079 0.68532 0.0
H1054 H 0.54921 0.58187 0.72624 0.0
H1055 H 0.61822 0.65942 0.66422 0.0
H1056 H 0.62784 0.54138 0.6486 0.0
H1057 H 0.62485 0.4995 0.6808 0.0
H1058 H 0.64406 0.54582 0.76367 0.0
H1059 H 0.64761 0.58788 0.73189 0.0
C1060 C 0.68909 0.62766 0.543 0.0
C1061 C 0.71583 0.61924 0.54671 0.0
C1062 C 0.67103 0.62572 0.56799 0.0
C1063 C 0.67965 0.61609 0.59743 0.0
C1064 C 0.70618 0.60664 0.60078 0.0
C1065 C 0.72411 0.6081 0.5755 0.0
C1066 C 0.66131 0.61709 0.62498 0.0
C1067 C 0.65731 0.5933 0.64284 0.0
C1068 C 0.64765 0.64143 0.6335 0.0
C1069 C 0.65283 0.66789 0.61743 0.0
C1070 C 0.67908 0.67848 0.61556 0.0
C1071 C 0.68393 0.70315 0.59992 0.0
C1072 C 0.66265 0.71756 0.5863 0.0
C1073 C 0.63646 0.70736 0.58836 0.0
C1074 C 0.63151 0.68266 0.60391 0.0
C1075 C 0.58295 0.6402 0.7459 0.0
C1076 C 0.5634 0.61952 0.74758 0.0
C1077 C 0.60316 0.63908 0.72307 0.0
C1078 C 0.60391 0.61754 0.70111 0.0
C1079 C 0.58402 0.59716 0.7025 0.0
C1080 C 0.56426 0.59789 0.72579 0.0
C1081 C 0.62477 0.61701 0.67599 0.0
C1082 C 0.62921 0.64091 0.65842 0.0
C1083 C 0.63962 0.59306 0.66859 0.0
C1084 C 0.63779 0.56781 0.68787 0.0
C1085 C 0.63159 0.54259 0.67366 0.0
C1086 C 0.62976 0.51883 0.69184 0.0
C1087 C 0.63419 0.52001 0.72427 0.0
C1088 C 0.64055 0.54495 0.73857 0.0
C1089 C 0.64245 0.56876 0.72048 0.0
H1090 H 0.63273 0.5016 0.73832 0.0
H1091 H 0.66644 0.73666 0.5742 0.0
H1092 H 0.68307 0.33639 0.03466 0.0
H1093 H 0.65047 0.34113 0.07758 0.0
H1094 H 0.6955 0.40988 0.11391 0.0
H1095 H 0.72719 0.4057 0.06978 0.0
H1096 H 0.6539 0.33411 0.13499 0.0
H1097 H 0.65717 0.45208 0.15704 0.0
H1098 H 0.65822 0.49552 0.12745 0.0
H1099 H 0.62816 0.45437 0.04539 0.0
H1100 H 0.62696 0.41075 0.07444 0.0
H1101 H 0.5882 0.35423 0.27983 0.0
H1102 H 0.62154 0.35498 0.23745 0.0
H1103 H 0.56873 0.4061 0.18214 0.0
H1104 H 0.53657 0.40712 0.22549 0.0
H1105 H 0.61419 0.42192 0.17044 0.0
H1106 H 0.57658 0.33215 0.17248 0.0
H1107 H 0.56336 0.28775 0.19534 0.0
H1108 H 0.64602 0.26971 0.21579 0.0
H1109 H 0.6597 0.31418 0.19338 0.0
C1110 C 0.68567 0.35256 0.05182 0.0
C1111 C 0.70745 0.37061 0.04936 0.0
C1112 C 0.6672 0.35528 0.07634 0.0
C1113 C 0.67036 0.37592 0.09912 0.0
C1114 C 0.69221 0.3941 0.09643 0.0
C1115 C 0.71041 0.39165 0.07148 0.0
C1116 C 0.65146 0.37753 0.12627 0.0
C1117 C 0.6452 0.35336 0.14263 0.0
C1118 C 0.63958 0.40244 0.13613 0.0
C1119 C 0.64222 0.42812 0.11785 0.0
C1120 C 0.65097 0.45229 0.13261 0.0
C1121 C 0.65155 0.47694 0.11596 0.0
C1122 C 0.6432 0.47771 0.08461 0.0
C1123 C 0.63467 0.45374 0.06967 0.0
C1124 C 0.63418 0.42902 0.08617 0.0
C1125 C 0.58399 0.36587 0.25871 0.0
C1126 C 0.5599 0.38061 0.25581 0.0
C1127 C 0.6029 0.3661 0.23436 0.0
C1128 C 0.59749 0.38003 0.20609 0.0
C1129 C 0.57356 0.3952 0.2036 0.0
C1130 C 0.55511 0.39576 0.22835 0.0
C1131 C 0.61635 0.37848 0.17887 0.0
C1132 C 0.62288 0.40268 0.16275 0.0
C1133 C 0.62724 0.35336 0.16809 0.0
C1134 C 0.61912 0.3266 0.18157 0.0
C1135 C 0.59191 0.31879 0.18205 0.0
C1136 C 0.58434 0.29361 0.1949 0.0
C1137 C 0.60383 0.27596 0.2071 0.0
C1138 C 0.63095 0.28343 0.20639 0.0
C1139 C 0.63862 0.3086 0.1936 0.0
H1140 H 0.59793 0.25647 0.21703 0.0
H1141 H 0.64326 0.49691 0.07194 0.0
H1142 H 0.25633 0.61679 0.58457 0.0
H1143 H 0.28964 0.61204 0.62694 0.0
H1144 H 0.35321 0.62881 0.5606 0.0
H1145 H 0.3198 0.63341 0.51842 0.0
H1146 H 0.33218 0.57905 0.63738 0.0
H1147 H 0.40009 0.66835 0.59666 0.0
H1148 H 0.39627 0.71133 0.5665 0.0
H1149 H 0.31284 0.71746 0.5915 0.0
H1150 H 0.31629 0.6748 0.6222 0.0
H1151 H 0.45195 0.57816 0.72878 0.0
H1152 H 0.41855 0.57786 0.68664 0.0
H1153 H 0.38958 0.65679 0.71742 0.0
H1154 H 0.42396 0.65778 0.75846 0.0
H1155 H 0.39237 0.65795 0.65843 0.0
H1156 H 0.35521 0.5926 0.73076 0.0
H1157 H 0.35488 0.55143 0.76426 0.0
H1158 H 0.36955 0.50084 0.68346 0.0
H1159 H 0.37029 0.54176 0.64948 0.0
C1160 C 0.27749 0.61913 0.57924 0.0
C1161 C 0.28574 0.62543 0.54857 0.0
C1162 C 0.29645 0.6163 0.60324 0.0
C1163 C 0.32391 0.62011 0.59692 0.0
C1164 C 0.33215 0.62576 0.56599 0.0
C1165 C 0.31318 0.62836 0.54197 0.0
C1166 C 0.3437 0.61962 0.62298 0.0
C1167 C 0.34541 0.59625 0.64202 0.0
C1168 C 0.36056 0.64226 0.62934 0.0
C1169 C 0.35841 0.66824 0.61144 0.0
C1170 C 0.38098 0.67895 0.59583 0.0
C1171 C 0.37887 0.70325 0.57863 0.0
C1172 C 0.35431 0.71707 0.577 0.0
C1173 C 0.33183 0.70669 0.59269 0.0
C1174 C 0.33385 0.68245 0.60998 0.0
C1175 C 0.43831 0.59535 0.72666 0.0
C1176 C 0.44052 0.61799 0.74691 0.0
C1177 C 0.41912 0.59511 0.70263 0.0
C1178 C 0.4012 0.61713 0.699 0.0
C1179 C 0.40319 0.63958 0.71958 0.0
C1180 C 0.42278 0.64011 0.74311 0.0
C1181 C 0.38096 0.61733 0.67319 0.0
C1182 C 0.37923 0.64065 0.65396 0.0
C1183 C 0.36356 0.59491 0.66728 0.0
C1184 C 0.36307 0.57028 0.68764 0.0
C1185 C 0.35855 0.57272 0.72017 0.0
C1186 C 0.35826 0.54942 0.73924 0.0
C1187 C 0.36227 0.52354 0.72603 0.0
C1188 C 0.36649 0.5209 0.69368 0.0
C1189 C 0.36682 0.54414 0.67449 0.0
H1190 H 0.36204 0.50554 0.74085 0.0
H1191 H 0.35271 0.73585 0.56364 0.0
H1192 H 0.80335 0.86237 0.03409 0.0
H1193 H 0.83847 0.86492 0.0747 0.0
H1194 H 0.78578 0.91361 0.13283 0.0
H1195 H 0.75059 0.91069 0.09208 0.0
H1196 H 0.84096 0.93287 0.12899 0.0
H1197 H 0.79038 0.85058 0.15019 0.0
H1198 H 0.76989 0.80644 0.13549 0.0
H1199 H 0.84766 0.77453 0.11143 0.0
H1200 H 0.86857 0.81869 0.12544 0.0
H1201 H 0.91738 0.92174 0.26943 0.0
H1202 H 0.88143 0.92258 0.2302 0.0
H1203 H 0.91959 0.85591 0.18053 0.0
H1204 H 0.95452 0.85393 0.22087 0.0
H1205 H 0.87006 0.84669 0.18048 0.0
H1206 H 0.92131 0.92746 0.15594 0.0
H1207 H 0.94331 0.97169 0.16701 0.0
H1208 H 0.86731 0.00641 0.19355 0.0
H1209 H 0.84489 0.96229 0.18292 0.0
C1210 C 0.79951 0.87362 0.05558 0.0
C1211 C 0.77451 0.88613 0.06048 0.0
C1212 C 0.81942 0.87513 0.07862 0.0
C1213 C 0.8146 0.88934 0.10677 0.0
C1214 C 0.78983 0.90257 0.11124 0.0
C1215 C 0.7698 0.9008 0.08825 0.0
C1216 C 0.83506 0.88934 0.13202 0.0
C1217 C 0.84717 0.91414 0.14061 0.0
C1218 C 0.8435 0.86476 0.14646 0.0
C1219 C 0.83101 0.83802 0.13862 0.0
C1220 C 0.80309 0.83422 0.14155 0.0
C1221 C 0.7914 0.80919 0.13337 0.0
C1222 C 0.80746 0.78771 0.12248 0.0
C1223 C 0.83525 0.7912 0.11984 0.0
C1224 C 0.84703 0.81622 0.12792 0.0
C1225 C 0.91805 0.90733 0.25007 0.0
C1226 C 0.93871 0.88781 0.24809 0.0
C1227 C 0.8976 0.90792 0.22751 0.0
C1228 C 0.89798 0.88967 0.20191 0.0
C1229 C 0.91874 0.87021 0.19999 0.0
C1230 C 0.93874 0.86911 0.223 0.0
C1231 C 0.87653 0.8903 0.17748 0.0
C1232 C 0.86405 0.86555 0.169 0.0
C1233 C 0.86809 0.91492 0.16279 0.0
C1234 C 0.88148 0.94152 0.1689 0.0
C1235 C 0.90932 0.94449 0.16429 0.0
C1236 C 0.92186 0.96954 0.17046 0.0
C1237 C 0.90673 0.99182 0.18104 0.0
C1238 C 0.879 0.98913 0.18537 0.0
C1239 C 0.86637 0.96412 0.17924 0.0
H1240 H 0.91647 0.01119 0.18583 0.0
H1241 H 0.79837 0.76834 0.11615 0.0
H1242 H 0.20881 0.15881 0.56303 0.0
H1243 H 0.17735 0.15445 0.60705 0.0
H1244 H 0.19374 0.06779 0.61168 0.0
H1245 H 0.22557 0.07237 0.56763 0.0
H1246 H 0.1394 0.07977 0.61499 0.0
H1247 H 0.22052 0.10913 0.66562 0.0
H1248 H 0.2602 0.13866 0.67309 0.0
H1249 H 0.20887 0.208 0.68882 0.0
H1250 H 0.16886 0.17897 0.68093 0.0
H1251 H 0.06727 0.0663 0.75913 0.0
H1252 H 0.10296 0.06464 0.71963 0.0
H1253 H 0.09919 0.15244 0.70988 0.0
H1254 H 0.06396 0.15442 0.74961 0.0
H1255 H 0.1499 0.13596 0.71149 0.0
H1256 H 0.0699 0.10976 0.65566 0.0
H1257 H 0.02914 0.08251 0.64544 0.0
H1258 H 0.07698 0.00965 0.6375 0.0
H1259 H 0.11806 0.03649 0.64802 0.0
C1260 C 0.20595 0.13898 0.57385 0.0
C1261 C 0.2198 0.116 0.56252 0.0
C1262 C 0.18795 0.13645 0.59883 0.0
C1263 C 0.18353 0.11086 0.61293 0.0
C1264 C 0.19699 0.08773 0.60122 0.0
C1265 C 0.2151 0.09031 0.57621 0.0
C1266 C 0.16459 0.10847 0.63968 0.0
C1267 C 0.14194 0.09162 0.63638 0.0
C1268 C 0.16764 0.12446 0.66721 0.0
C1269 C 0.19168 0.14189 0.67248 0.0
C1270 C 0.21769 0.1307 0.67048 0.0
C1271 C 0.24024 0.14735 0.67481 0.0
C1272 C 0.23706 0.17519 0.68138 0.0
C1273 C 0.21131 0.18643 0.68372 0.0
C1274 C 0.18868 0.16988 0.67936 0.0
C1275 C 0.07406 0.08528 0.74866 0.0
C1276 C 0.0626 0.11049 0.75752 0.0
C1277 C 0.09442 0.08427 0.72599 0.0
C1278 C 0.10355 0.10839 0.71155 0.0
C1279 C 0.09248 0.13357 0.72072 0.0
C1280 C 0.07224 0.13463 0.74342 0.0
C1281 C 0.12445 0.10756 0.68665 0.0
C1282 C 0.14751 0.12382 0.6903 0.0
C1283 C 0.12162 0.09125 0.65929 0.0
C1284 C 0.09699 0.07506 0.65301 0.0
C1285 C 0.0717 0.08788 0.652 0.0
C1286 C 0.04854 0.07252 0.6461 0.0
C1287 C 0.05043 0.04434 0.64094 0.0
C1288 C 0.07553 0.03148 0.64157 0.0
C1289 C 0.09876 0.04675 0.64748 0.0
H1290 H 0.03247 0.03248 0.63637 0.0
H1291 H 0.25455 0.18805 0.6847 0.0
H1292 H 0.23149 0.92356 0.07064 0.0
H1293 H 0.19727 0.92752 0.11207 0.0
H1294 H 0.17788 0.84196 0.10045 0.0
H1295 H 0.21132 0.83851 0.05825 0.0
H1296 H 0.13342 0.87161 0.10403 0.0
H1297 H 0.21579 0.86535 0.16282 0.0
H1298 H 0.26176 0.87873 0.17812 0.0
H1299 H 0.23336 0.9584 0.20497 0.0
H1300 H 0.18725 0.94562 0.18939 0.0
H1301 H 0.0625 0.84344 0.24325 0.0
H1302 H 0.09766 0.84501 0.20338 0.0
H1303 H 0.1045 0.93236 0.21554 0.0
H1304 H 0.06918 0.9311 0.25569 0.0
H1305 H 0.1545 0.90542 0.21132 0.0
H1306 H 0.07147 0.91026 0.15449 0.0
H1307 H 0.0256 0.8959 0.13998 0.0
H1308 H 0.05564 0.81773 0.10996 0.0
H1309 H 0.10167 0.83148 0.12475 0.0
C1310 C 0.21973 0.90577 0.07696 0.0
C1311 C 0.22389 0.88075 0.06154 0.0
C1312 C 0.20042 0.90792 0.10074 0.0
C1313 C 0.18518 0.88495 0.1096 0.0
C1314 C 0.18941 0.85993 0.09407 0.0
C1315 C 0.20861 0.85787 0.07024 0.0
C1316 C 0.16449 0.88693 0.13465 0.0
C1317 C 0.13813 0.87872 0.12757 0.0
C1318 C 0.17044 0.89693 0.16515 0.0
C1319 C 0.19812 0.90463 0.17461 0.0
C1320 C 0.21938 0.8858 0.17174 0.0
C1321 C 0.24546 0.89326 0.18051 0.0
C1322 C 0.25049 0.91943 0.19243 0.0
C1323 C 0.22944 0.93816 0.19568 0.0
C1324 C 0.20333 0.93081 0.1869 0.0
C1325 C 0.07151 0.86303 0.23767 0.0
C1326 C 0.06282 0.88719 0.25259 0.0
C1327 C 0.09157 0.86387 0.21476 0.0
C1328 C 0.10343 0.88884 0.20628 0.0
C1329 C 0.09549 0.9129 0.22172 0.0
C1330 C 0.07525 0.91213 0.24457 0.0
C1331 C 0.12367 0.88968 0.18073 0.0
C1332 C 0.14985 0.89846 0.1877 0.0
C1333 C 0.11763 0.88009 0.15014 0.0
C1334 C 0.08999 0.87182 0.14099 0.0
C1335 C 0.06827 0.88993 0.14503 0.0
C1336 C 0.04225 0.88191 0.13671 0.0
C1337 C 0.0377 0.8559 0.12412 0.0
C1338 C 0.05919 0.83787 0.11974 0.0
C1339 C 0.08526 0.84577 0.12806 0.0
H1340 H 0.01754 0.84973 0.1177 0.0
H1341 H 0.27069 0.92517 0.19921 0.0
H1342 H 0.77 0.07788 0.57279 0.0
H1343 H 0.80559 0.07136 0.61215 0.0
H1344 H 0.83747 0.15121 0.58972 0.0
H1345 H 0.80258 0.15689 0.54936 0.0
H1346 H 0.87735 0.11634 0.59985 0.0
H1347 H 0.79512 0.14062 0.65281 0.0
H1348 H 0.7473 0.13547 0.66687 0.0
H1349 H 0.76341 0.0559 0.7054 0.0
H1350 H 0.8113 0.06042 0.69111 0.0
H1351 H 0.94511 0.15266 0.73905 0.0
H1352 H 0.9123 0.14995 0.69649 0.0
H1353 H 0.89487 0.06624 0.72125 0.0
H1354 H 0.92789 0.06862 0.76394 0.0
H1355 H 0.8486 0.09857 0.70972 0.0
H1356 H 0.93115 0.07504 0.65961 0.0
H1357 H 0.97899 0.08014 0.64587 0.0
H1358 H 0.96235 0.15763 0.60236 0.0
H1359 H 0.91437 0.15311 0.61618 0.0
C1360 C 0.78505 0.09362 0.57592 0.0
C1361 C 0.78388 0.11778 0.55825 0.0
C1362 C 0.80514 0.0901 0.59855 0.0
C1363 C 0.82393 0.11101 0.60427 0.0
C1364 C 0.82318 0.13483 0.58579 0.0
C1365 C 0.80327 0.13817 0.56296 0.0
C1366 C 0.8436 0.10877 0.6304 0.0
C1367 C 0.87101 0.11254 0.62385 0.0
C1368 C 0.83544 0.10338 0.66173 0.0
C1369 C 0.80672 0.10074 0.67059 0.0
C1370 C 0.78843 0.12195 0.66408 0.0
C1371 C 0.76132 0.11915 0.67212 0.0
C1372 C 0.75231 0.09534 0.68695 0.0
C1373 C 0.77041 0.07431 0.69386 0.0
C1374 C 0.79754 0.07698 0.68581 0.0
C1375 C 0.93424 0.13368 0.73564 0.0
C1376 C 0.93922 0.11081 0.75488 0.0
C1377 C 0.91558 0.13214 0.71118 0.0
C1378 C 0.9014 0.10781 0.70557 0.0
C1379 C 0.90572 0.08516 0.72518 0.0
C1380 C 0.92463 0.08656 0.74948 0.0
C1381 C 0.88218 0.1062 0.67904 0.0
C1382 C 0.85489 0.10187 0.68559 0.0
C1383 C 0.89042 0.11101 0.6477 0.0
C1384 C 0.91922 0.11385 0.6392 0.0
C1385 C 0.93773 0.09328 0.64734 0.0
C1386 C 0.96487 0.09605 0.63949 0.0
C1387 C 0.97375 0.11925 0.62334 0.0
C1388 C 0.95546 0.13969 0.61491 0.0
C1389 C 0.92827 0.13701 0.6227 0.0
H1390 H 0.99479 0.12136 0.6173 0.0
H1391 H 0.73131 0.09321 0.69316 0.0
loop_
_geom_bond_atom_site_label_1
_geom_bond_atom_site_label_2
_geom_bond_distance
_geom_bond_site_symmetry_2
_ccdc_geom_bond_type
C0 N1 1.317 . S
C0 N2 1.346 . S
C0 C3 1.485 . S
N1 C0 1.317 . S
N1 N5 1.370 . S
N2 C0 1.346 . S
N2 C4 1.348 1_554 S
C3 C0 1.485 . S
C3 H7 0.960 . S
C3 H8 0.961 . S
C3 H9 0.960 . S
C4 N2 1.348 1_556 S
C4 N5 1.307 1_556 S
C4 C6 1.486 . S
N5 N1 1.370 . S
N5 C4 1.307 1_554 S
C6 C4 1.486 . S
C6 H10 0.960 . S
C6 H11 0.960 . S
C6 H12 0.959 . S
H7 C3 0.960 . S
H8 C3 0.961 . S
H9 C3 0.960 . S
H10 C6 0.960 . S
H11 C6 0.960 . S
H12 C6 0.959 . S
C13 N14 1.317 . S
C13 N15 1.348 . S
C13 C16 1.485 . S
N14 C13 1.317 . S
N14 N18 1.370 . S
N15 C13 1.348 . S
N15 C17 1.346 . S
C16 C13 1.485 . S
C16 H20 0.960 . S
C16 H21 0.961 . S
C16 H22 0.960 . S
C17 N15 1.346 . S
C17 N18 1.307 . S
C17 C19 1.486 . S
N18 N14 1.370 . S
N18 C17 1.307 . S
C19 C17 1.486 . S
C19 H23 0.960 . S
C19 H24 0.960 . S
C19 H25 0.959 . S
H20 C16 0.960 . S
H21 C16 0.961 . S
H22 C16 0.960 . S
H23 C19 0.960 . S
H24 C19 0.960 . S
H25 C19 0.959 . S
C26 N27 1.317 . S
C26 N28 1.326 1_554 S
C26 C29 1.485 . S
N27 C26 1.317 . S
N27 N31 1.370 . S
N28 C26 1.326 1_556 S
N28 C30 1.358 . S
C29 C26 1.485 . S
C29 H33 0.960 . S
C29 H34 0.961 . S
C29 H35 0.960 . S
C30 N28 1.358 . S
C30 N31 1.307 1_556 S
C30 C32 1.486 . S
N31 N27 1.370 . S
N31 C30 1.307 1_554 S
C32 C30 1.486 . S
C32 H36 0.960 . S
C32 H37 0.960 . S
C32 H38 0.959 . S
H33 C29 0.960 . S
H34 C29 0.961 . S
H35 C29 0.960 . S
H36 C32 0.960 . S
H37 C32 0.960 . S
H38 C32 0.959 . S
C39 N40 1.317 . S
C39 N41 1.348 . S
C39 C42 1.485 . S
N40 C39 1.317 . S
N40 N44 1.370 . S
N41 C39 1.348 . S
N41 C43 1.346 . S
C42 C39 1.485 . S
C42 H46 0.960 . S
C42 H47 0.961 . S
C42 H48 0.960 . S
C43 N41 1.346 . S
C43 N44 1.307 . S
C43 C45 1.486 . S
N44 N40 1.370 . S
N44 C43 1.307 . S
C45 C43 1.486 . S
C45 H49 0.960 . S
C45 H50 0.960 . S
C45 H51 0.959 . S
H46 C42 0.960 . S
H47 C42 0.961 . S
H48 C42 0.960 . S
H49 C45 0.960 . S
H50 C45 0.960 . S
H51 C45 0.959 . S
C52 N53 1.317 . S
C52 N54 1.346 . S
C52 C55 1.485 . S
N53 C52 1.317 . S
N53 N57 1.370 . S
N54 C52 1.346 . S
N54 C56 1.348 1_554 S
C55 C52 1.485 . S
C55 H59 0.960 . S
C55 H60 0.961 . S
C55 H61 0.960 . S
C56 N54 1.348 1_556 S
C56 N57 1.307 1_556 S
C56 C58 1.486 . S
N57 N53 1.370 . S
N57 C56 1.307 1_554 S
C58 C56 1.486 . S
C58 H62 0.960 . S
C58 H63 0.960 . S
C58 H64 0.959 . S
H59 C55 0.960 . S
H60 C55 0.961 . S
H61 C55 0.960 . S
H62 C58 0.960 . S
H63 C58 0.960 . S
H64 C58 0.959 . S
C65 N66 1.317 . S
C65 N67 1.348 . S
C65 C68 1.485 . S
N66 C65 1.317 . S
N66 N70 1.370 . S
N67 C65 1.348 . S
N67 C69 1.346 . S
C68 C65 1.485 . S
C68 H72 0.960 . S
C68 H73 0.961 . S
C68 H74 0.960 . S
C69 N67 1.346 . S
C69 N70 1.307 . S
C69 C71 1.486 . S
N70 N66 1.370 . S
N70 C69 1.307 . S
C71 C69 1.486 . S
C71 H75 0.960 . S
C71 H76 0.960 . S
C71 H77 0.959 . S
H72 C68 0.960 . S
H73 C68 0.961 . S
H74 C68 0.960 . S
H75 C71 0.960 . S
H76 C71 0.960 . S
H77 C71 0.959 . S
C78 N79 1.317 . S
C78 N80 1.326 1_554 S
C78 C81 1.485 . S
N79 C78 1.317 . S
N79 N83 1.370 . S
N80 C78 1.326 1_556 S
N80 C82 1.358 . S
C81 C78 1.485 . S
C81 H85 0.960 . S
C81 H86 0.961 . S
C81 H87 0.960 . S
C82 N80 1.358 . S
C82 N83 1.307 1_556 S
C82 C84 1.486 . S
N83 N79 1.370 . S
N83 C82 1.307 1_554 S
C84 C82 1.486 . S
C84 H88 0.960 . S
C84 H89 0.960 . S
C84 H90 0.959 . S
H85 C81 0.960 . S
H86 C81 0.961 . S
H87 C81 0.960 . S
H88 C84 0.960 . S
H89 C84 0.960 . S
H90 C84 0.959 . S
C91 N92 1.317 . S
C91 N93 1.348 . S
C91 C94 1.485 . S
N92 C91 1.317 . S
N92 N96 1.370 . S
N93 C91 1.348 . S
N93 C95 1.346 . S
C94 C91 1.485 . S
C94 H98 0.960 . S
C94 H99 0.961 . S
C94 H100 0.960 . S
C95 N93 1.346 . S
C95 N96 1.307 . S
C95 C97 1.486 . S
N96 N92 1.370 . S
N96 C95 1.307 . S
C97 C95 1.486 . S
C97 H101 0.960 . S
C97 H102 0.960 . S
C97 H103 0.959 . S
H98 C94 0.960 . S
H99 C94 0.961 . S
H100 C94 0.960 . S
H101 C97 0.960 . S
H102 C97 0.960 . S
H103 C97 0.959 . S
Sc104 O107 2.025 . S
Sc104 O114 2.105 1_455 S
Sc104 O117 2.105 . S
Sc104 O120 2.105 . S
Sc104 O123 2.105 1_455 S
Sc105 O107 2.025 . S
Sc105 O115 2.105 1_455 S
Sc105 O119 2.105 . S
Sc105 O121 2.105 . S
Sc105 O125 2.105 1_455 S
Sc106 O107 2.025 . S
Sc106 O116 2.105 1_455 S
Sc106 O118 2.105 . S
Sc106 O122 2.105 . S
Sc106 O124 2.105 1_455 S
O107 Sc104 2.025 . S
O107 Sc105 2.025 . S
O107 Sc106 2.025 . S
C108 O114 1.268 . S
C108 O124 1.268 . S
C109 O115 1.268 . S
C109 O123 1.268 . S
C110 O116 1.268 . S
C110 O125 1.268 . S
C111 O117 1.268 . S
C111 O121 1.268 . S
C112 O118 1.268 . S
C112 O120 1.268 . S
C113 O119 1.268 . S
C113 O122 1.268 . S
O114 Sc104 2.105 1_655 S
O114 C108 1.268 . S
O115 Sc105 2.105 1_655 S
O115 C109 1.268 . S
O116 Sc106 2.105 1_655 S
O116 C110 1.268 . S
O117 Sc104 2.105 . S
O117 C111 1.268 . S
O118 Sc106 2.105 . S
O118 C112 1.268 . S
O119 Sc105 2.105 . S
O119 C113 1.268 . S
O120 Sc104 2.105 . S
O120 C112 1.268 . S
O121 Sc105 2.105 . S
O121 C111 1.268 . S
O122 Sc106 2.105 . S
O122 C113 1.268 . S
O123 Sc104 2.105 1_655 S
O123 C109 1.268 . S
O124 Sc106 2.105 1_655 S
O124 C108 1.268 . S
O125 Sc105 2.105 1_655 S
O125 C110 1.268 . S
Sc126 O129 2.025 . S
Sc126 O136 2.105 . S
Sc126 O139 2.105 1_455 S
Sc126 O142 2.105 1_455 S
Sc126 O145 2.105 . S
Sc127 O129 2.025 . S
Sc127 O137 2.105 . S
Sc127 O141 2.105 1_455 S
Sc127 O143 2.105 1_455 S
Sc127 O147 2.105 . S
Sc128 O129 2.025 . S
Sc128 O138 2.105 . S
Sc128 O140 2.105 1_455 S
Sc128 O144 2.105 1_455 S
Sc128 O146 2.105 . S
O129 Sc126 2.025 . S
O129 Sc127 2.025 . S
O129 Sc128 2.025 . S
C130 O136 1.268 . S
C130 O146 1.268 . S
C131 O137 1.268 . S
C131 O145 1.268 . S
C132 O138 1.268 . S
C132 O147 1.268 . S
C133 O139 1.268 . S
C133 O143 1.268 . S
C134 O140 1.268 . S
C134 O142 1.268 . S
C135 O141 1.268 . S
C135 O144 1.268 . S
O136 Sc126 2.105 . S
O136 C130 1.268 . S
O137 Sc127 2.105 . S
O137 C131 1.268 . S
O138 Sc128 2.105 . S
O138 C132 1.268 . S
O139 Sc126 2.105 1_655 S
O139 C133 1.268 . S
O140 Sc128 2.105 1_655 S
O140 C134 1.268 . S
O141 Sc127 2.105 1_655 S
O141 C135 1.268 . S
O142 Sc126 2.105 1_655 S
O142 C134 1.268 . S
O143 Sc127 2.105 1_655 S
O143 C133 1.268 . S
O144 Sc128 2.105 1_655 S
O144 C135 1.268 . S
O145 Sc126 2.105 . S
O145 C131 1.268 . S
O146 Sc128 2.105 . S
O146 C130 1.268 . S
O147 Sc127 2.105 . S
O147 C132 1.268 . S
Sc148 O151 2.025 . S
Sc148 O158 2.105 . S
Sc148 O161 2.105 . S
Sc148 O164 2.105 . S
Sc148 O167 2.105 . S
Sc149 O151 2.025 . S
Sc149 O159 2.105 . S
Sc149 O163 2.105 . S
Sc149 O165 2.105 . S
Sc149 O169 2.105 . S
Sc150 O151 2.025 . S
Sc150 O160 2.105 . S
Sc150 O162 2.105 . S
Sc150 O166 2.105 . S
Sc150 O168 2.105 . S
O151 Sc148 2.025 . S
O151 Sc149 2.025 . S
O151 Sc150 2.025 . S
C152 O158 1.268 . S
C152 O168 1.268 . S
C153 O159 1.268 . S
C153 O167 1.268 . S
C154 O160 1.268 . S
C154 O169 1.268 . S
C155 O161 1.268 . S
C155 O165 1.268 . S
C156 O162 1.268 . S
C156 O164 1.268 . S
C157 O163 1.268 . S
C157 O166 1.268 . S
O158 Sc148 2.105 . S
O158 C152 1.268 . S
O159 Sc149 2.105 . S
O159 C153 1.268 . S
O160 Sc150 2.105 . S
O160 C154 1.268 . S
O161 Sc148 2.105 . S
O161 C155 1.268 . S
O162 Sc150 2.105 . S
O162 C156 1.268 . S
O163 Sc149 2.105 . S
O163 C157 1.268 . S
O164 Sc148 2.105 . S
O164 C156 1.268 . S
O165 Sc149 2.105 . S
O165 C155 1.268 . S
O166 Sc150 2.105 . S
O166 C157 1.268 . S
O167 Sc148 2.105 . S
O167 C153 1.268 . S
O168 Sc150 2.105 . S
O168 C152 1.268 . S
O169 Sc149 2.105 . S
O169 C154 1.268 . S
Sc170 O173 2.025 . S
Sc170 O180 2.105 . S
Sc170 O183 2.105 . S
Sc170 O186 2.105 . S
Sc170 O189 2.105 . S
Sc171 O173 2.025 . S
Sc171 O181 2.105 . S
Sc171 O185 2.105 . S
Sc171 O187 2.105 . S
Sc171 O191 2.105 . S
Sc172 O173 2.025 . S
Sc172 O182 2.105 . S
Sc172 O184 2.105 . S
Sc172 O188 2.105 . S
Sc172 O190 2.105 . S
O173 Sc170 2.025 . S
O173 Sc171 2.025 . S
O173 Sc172 2.025 . S
C174 O180 1.268 . S
C174 O190 1.268 . S
C175 O181 1.268 . S
C175 O189 1.268 . S
C176 O182 1.268 . S
C176 O191 1.268 . S
C177 O183 1.268 . S
C177 O187 1.268 . S
C178 O184 1.268 . S
C178 O186 1.268 . S
C179 O185 1.268 . S
C179 O188 1.268 . S
O180 Sc170 2.105 . S
O180 C174 1.268 . S
O181 Sc171 2.105 . S
O181 C175 1.268 . S
O182 Sc172 2.105 . S
O182 C176 1.268 . S
O183 Sc170 2.105 . S
O183 C177 1.268 . S
O184 Sc172 2.105 . S
O184 C178 1.268 . S
O185 Sc171 2.105 . S
O185 C179 1.268 . S
O186 Sc170 2.105 . S
O186 C178 1.268 . S
O187 Sc171 2.105 . S
O187 C177 1.268 . S
O188 Sc172 2.105 . S
O188 C179 1.268 . S
O189 Sc170 2.105 . S
O189 C175 1.268 . S
O190 Sc172 2.105 . S
O190 C174 1.268 . S
O191 Sc171 2.105 . S
O191 C176 1.268 . S
H192 C210 0.951 . S
H193 C212 0.951 . S
H194 C214 0.950 1_554 S
H195 C215 0.950 . S
H196 C217 0.950 . S
H197 C220 0.950 . S
H198 C221 0.950 . S
H199 C223 0.950 . S
H200 C224 0.950 . S
H201 C225 0.951 . S
H202 C227 0.951 . S
H203 C229 0.950 . S
H204 C230 0.950 . S
H205 C232 0.950 . S
H206 C235 0.950 . S
H207 C236 0.950 . S
H208 C238 0.950 . S
H209 C239 0.950 1_554 S
C210 H192 0.951 . S
C210 C211 1.366 . S
C210 C212 1.388 . S
C211 C210 1.366 . S
C211 C215 1.385 1_556 S
C212 H193 0.951 . S
C212 C210 1.388 . S
C212 C213 1.366 . S
C213 C212 1.366 . S
C213 C214 1.414 . S
C213 C216 1.499 . S
C214 H194 0.950 1_556 S
C214 C213 1.414 . S
C214 C215 1.374 1_556 S
C215 H195 0.950 . S
C215 C211 1.385 1_554 S
C215 C214 1.374 1_554 S
C216 C213 1.499 . S
C216 C217 1.373 . S
C216 C218 1.389 . S
C217 H196 0.950 . S
C217 C216 1.373 . S
C217 C233 1.377 . S
C218 C216 1.389 . S
C218 C219 1.524 . S
C218 C232 1.377 . S
C219 C218 1.524 . S
C219 C220 1.397 . S
C219 C224 1.363 . S
C220 H197 0.950 . S
C220 C219 1.397 . S
C220 C221 1.334 . S
C221 H198 0.950 . S
C221 C220 1.334 . S
C221 C222 1.287 . S
C222 C221 1.287 . S
C222 C223 1.524 . S
C222 H241 0.913 . S
C223 H199 0.950 . S
C223 C222 1.524 . S
C223 C224 1.415 . S
C224 H200 0.950 . S
C224 C219 1.363 . S
C224 C223 1.415 . S
C225 H201 0.951 . S
C225 C226 1.366 . S
C225 C227 1.388 . S
C226 C225 1.366 . S
C226 C230 1.385 . S
C227 H202 0.951 . S
C227 C225 1.388 . S
C227 C228 1.366 . S
C228 C227 1.366 . S
C228 C229 1.414 . S
C228 C231 1.499 . S
C229 H203 0.950 . S
C229 C228 1.414 . S
C229 C230 1.374 . S
C230 H204 0.950 . S
C230 C226 1.385 . S
C230 C229 1.374 . S
C231 C228 1.499 . S
C231 C232 1.373 . S
C231 C233 1.389 . S
C232 H205 0.950 . S
C232 C218 1.377 . S
C232 C231 1.373 . S
C233 C217 1.377 . S
C233 C231 1.389 . S
C233 C234 1.524 . S
C234 C233 1.524 . S
C234 C235 1.397 . S
C234 C239 1.363 . S
C235 H206 0.950 . S
C235 C234 1.397 . S
C235 C236 1.334 . S
C236 H207 0.950 . S
C236 C235 1.334 . S
C236 C237 1.287 . S
C237 C236 1.287 . S
C237 C238 1.524 1_556 S
C237 H240 0.999 1_556 S
C238 H208 0.950 . S
C238 C237 1.524 1_554 S
C238 C239 1.415 1_554 S
C239 H209 0.950 1_556 S
C239 C234 1.363 . S
C239 C238 1.415 1_556 S
H240 C237 0.999 1_554 S
H241 C222 0.913 . S
H242 C260 0.951 . S
H243 C262 0.951 . S
H244 C264 0.950 . S
H245 C265 0.950 . S
H246 C267 0.950 . S
H247 C270 0.950 . S
H248 C271 0.950 . S
H249 C273 0.950 . S
H250 C274 0.950 . S
H251 C275 0.951 . S
H252 C277 0.951 . S
H253 C279 0.950 . S
H254 C280 0.950 . S
H255 C282 0.950 . S
H256 C285 0.950 . S
H257 C286 0.950 . S
H258 C288 0.950 . S
H259 C289 0.950 . S
C260 H242 0.951 . S
C260 C261 1.366 . S
C260 C262 1.388 . S
C261 C260 1.366 . S
C261 C265 1.385 . S
C262 H243 0.951 . S
C262 C260 1.388 . S
C262 C263 1.366 . S
C263 C262 1.366 . S
C263 C264 1.414 . S
C263 C266 1.499 . S
C264 H244 0.950 . S
C264 C263 1.414 . S
C264 C265 1.374 . S
C265 H245 0.950 . S
C265 C261 1.385 . S
C265 C264 1.374 . S
C266 C263 1.499 . S
C266 C267 1.373 . S
C266 C268 1.389 . S
C267 H246 0.950 . S
C267 C266 1.373 . S
C267 C283 1.377 . S
C268 C266 1.389 . S
C268 C269 1.524 . S
C268 C282 1.377 . S
C269 C268 1.524 . S
C269 C270 1.397 . S
C269 C274 1.363 . S
C270 H247 0.950 . S
C270 C269 1.397 . S
C270 C271 1.334 . S
C271 H248 0.950 . S
C271 C270 1.334 . S
C271 C272 1.287 . S
C272 C271 1.287 . S
C272 C273 1.524 . S
C272 H291 0.913 . S
C273 H249 0.950 . S
C273 C272 1.524 . S
C273 C274 1.415 . S
C274 H250 0.950 . S
C274 C269 1.363 . S
C274 C273 1.415 . S
C275 H251 0.951 . S
C275 C276 1.366 . S
C275 C277 1.388 . S
C276 C275 1.366 . S
C276 C280 1.385 . S
C277 H252 0.951 . S
C277 C275 1.388 . S
C277 C278 1.366 . S
C278 C277 1.366 . S
C278 C279 1.414 . S
C278 C281 1.499 . S
C279 H253 0.950 . S
C279 C278 1.414 . S
C279 C280 1.374 . S
C280 H254 0.950 . S
C280 C276 1.385 . S
C280 C279 1.374 . S
C281 C278 1.499 . S
C281 C282 1.373 . S
C281 C283 1.389 . S
C282 H255 0.950 . S
C282 C268 1.377 . S
C282 C281 1.373 . S
C283 C267 1.377 . S
C283 C281 1.389 . S
C283 C284 1.524 . S
C284 C283 1.524 . S
C284 C285 1.397 . S
C284 C289 1.363 . S
C285 H256 0.950 . S
C285 C284 1.397 . S
C285 C286 1.334 . S
C286 H257 0.950 . S
C286 C285 1.334 . S
C286 C287 1.287 . S
C287 C286 1.287 . S
C287 C288 1.524 . S
C287 H290 0.999 . S
C288 H258 0.950 . S
C288 C287 1.524 . S
C288 C289 1.415 . S
C289 H259 0.950 . S
C289 C284 1.363 . S
C289 C288 1.415 . S
H290 C287 0.999 . S
H291 C272 0.913 . S
H292 C310 0.951 . S
H293 C312 0.951 1_554 S
H294 C314 0.950 . S
H295 C315 0.950 . S
H296 C317 0.950 . S
H297 C320 0.950 . S
H298 C321 0.950 . S
H299 C323 0.950 . S
H300 C324 0.950 . S
H301 C325 0.951 . S
H302 C327 0.951 . S
H303 C329 0.950 . S
H304 C330 0.950 . S
H305 C332 0.950 . S
H306 C335 0.950 . S
H307 C336 0.950 . S
H308 C338 0.950 . S
H309 C339 0.950 . S
C310 H292 0.951 . S
C310 C311 1.366 1_554 S
C310 C312 1.388 1_554 S
C311 C310 1.366 1_556 S
C311 C315 1.385 . S
C312 H293 0.951 1_556 S
C312 C310 1.388 1_556 S
C312 C313 1.366 . S
C313 C312 1.366 . S
C313 C314 1.414 . S
C313 C316 1.499 . S
C314 H294 0.950 . S
C314 C313 1.414 . S
C314 C315 1.374 . S
C315 H295 0.950 . S
C315 C311 1.385 . S
C315 C314 1.374 . S
C316 C313 1.499 . S
C316 C317 1.373 . S
C316 C318 1.389 . S
C317 H296 0.950 . S
C317 C316 1.373 . S
C317 C333 1.377 . S
C318 C316 1.389 . S
C318 C319 1.524 . S
C318 C332 1.377 . S
C319 C318 1.524 . S
C319 C320 1.397 . S
C319 C324 1.363 1_556 S
C320 H297 0.950 . S
C320 C319 1.397 . S
C320 C321 1.334 1_556 S
C321 H298 0.950 . S
C321 C320 1.334 1_554 S
C321 C322 1.287 . S
C322 C321 1.287 . S
C322 C323 1.524 . S
C322 H341 0.913 . S
C323 H299 0.950 . S
C323 C322 1.524 . S
C323 C324 1.415 . S
C324 H300 0.950 . S
C324 C319 1.363 1_554 S
C324 C323 1.415 . S
C325 H301 0.951 . S
C325 C326 1.366 . S
C325 C327 1.388 . S
C326 C325 1.366 . S
C326 C330 1.385 . S
C327 H302 0.951 . S
C327 C325 1.388 . S
C327 C328 1.366 . S
C328 C327 1.366 . S
C328 C329 1.414 . S
C328 C331 1.499 . S
C329 H303 0.950 . S
C329 C328 1.414 . S
C329 C330 1.374 . S
C330 H304 0.950 . S
C330 C326 1.385 . S
C330 C329 1.374 . S
C331 C328 1.499 . S
C331 C332 1.373 . S
C331 C333 1.389 . S
C332 H305 0.950 . S
C332 C318 1.377 . S
C332 C331 1.373 . S
C333 C317 1.377 . S
C333 C331 1.389 . S
C333 C334 1.524 . S
C334 C333 1.524 . S
C334 C335 1.397 . S
C334 C339 1.363 . S
C335 H306 0.950 . S
C335 C334 1.397 . S
C335 C336 1.334 . S
C336 H307 0.950 . S
C336 C335 1.334 . S
C336 C337 1.287 . S
C337 C336 1.287 . S
C337 C338 1.524 . S
C337 H340 0.999 . S
C338 H308 0.950 . S
C338 C337 1.524 . S
C338 C339 1.415 . S
C339 H309 0.950 . S
C339 C334 1.363 . S
C339 C338 1.415 . S
H340 C337 0.999 . S
H341 C322 0.913 . S
H342 C360 0.951 . S
H343 C362 0.951 . S
H344 C364 0.950 . S
H345 C365 0.950 . S
H346 C367 0.950 . S
H347 C370 0.950 . S
H348 C371 0.950 . S
H349 C373 0.950 . S
H350 C374 0.950 . S
H351 C375 0.951 . S
H352 C377 0.951 . S
H353 C379 0.950 . S
H354 C380 0.950 . S
H355 C382 0.950 . S
H356 C385 0.950 . S
H357 C386 0.950 . S
H358 C388 0.950 . S
H359 C389 0.950 . S
C360 H342 0.951 . S
C360 C361 1.366 . S
C360 C362 1.388 . S
C361 C360 1.366 . S
C361 C365 1.385 . S
C362 H343 0.951 . S
C362 C360 1.388 . S
C362 C363 1.366 . S
C363 C362 1.366 . S
C363 C364 1.414 . S
C363 C366 1.499 . S
C364 H344 0.950 . S
C364 C363 1.414 . S
C364 C365 1.374 . S
C365 H345 0.950 . S
C365 C361 1.385 . S
C365 C364 1.374 . S
C366 C363 1.499 . S
C366 C367 1.373 . S
C366 C368 1.389 . S
C367 H346 0.950 . S
C367 C366 1.373 . S
C367 C383 1.377 . S
C368 C366 1.389 . S
C368 C369 1.524 . S
C368 C382 1.377 . S
C369 C368 1.524 . S
C369 C370 1.397 . S
C369 C374 1.363 . S
C370 H347 0.950 . S
C370 C369 1.397 . S
C370 C371 1.334 . S
C371 H348 0.950 . S
C371 C370 1.334 . S
C371 C372 1.287 . S
C372 C371 1.287 . S
C372 C373 1.524 . S
C372 H391 0.913 . S
C373 H349 0.950 . S
C373 C372 1.524 . S
C373 C374 1.415 . S
C374 H350 0.950 . S
C374 C369 1.363 . S
C374 C373 1.415 . S
C375 H351 0.951 . S
C375 C376 1.366 . S
C375 C377 1.388 . S
C376 C375 1.366 . S
C376 C380 1.385 . S
C377 H352 0.951 . S
C377 C375 1.388 . S
C377 C378 1.366 . S
C378 C377 1.366 . S
C378 C379 1.414 . S
C378 C381 1.499 . S
C379 H353 0.950 . S
C379 C378 1.414 . S
C379 C380 1.374 . S
C380 H354 0.950 . S
C380 C376 1.385 . S
C380 C379 1.374 . S
C381 C378 1.499 . S
C381 C382 1.373 . S
C381 C383 1.389 . S
C382 H355 0.950 . S
C382 C368 1.377 . S
C382 C381 1.373 . S
C383 C367 1.377 . S
C383 C381 1.389 . S
C383 C384 1.524 . S
C384 C383 1.524 . S
C384 C385 1.397 . S
C384 C389 1.363 . S
C385 H356 0.950 . S
C385 C384 1.397 . S
C385 C386 1.334 . S
C386 H357 0.950 . S
C386 C385 1.334 . S
C386 C387 1.287 . S
C387 C386 1.287 . S
C387 C388 1.524 . S
C387 H390 0.999 . S
C388 H358 0.950 . S
C388 C387 1.524 . S
C388 C389 1.415 . S
C389 H359 0.950 . S
C389 C384 1.363 . S
C389 C388 1.415 . S
H390 C387 0.999 . S
H391 C372 0.913 . S
H392 C410 0.951 1_554 S
H393 C412 0.951 . S
H394 C414 0.950 . S
H395 C415 0.950 . S
H396 C417 0.950 . S
H397 C420 0.950 . S
H398 C421 0.950 . S
H399 C423 0.950 . S
H400 C424 0.950 . S
H401 C425 0.951 . S
H402 C427 0.951 . S
H403 C429 0.950 . S
H404 C430 0.950 . S
H405 C432 0.950 . S
H406 C435 0.950 . S
H407 C436 0.950 . S
H408 C438 0.950 . S
H409 C439 0.950 . S
C410 H392 0.951 1_556 S
C410 C411 1.366 . S
C410 C412 1.388 . S
C411 C410 1.366 . S
C411 C415 1.385 . S
C412 H393 0.951 . S
C412 C410 1.388 . S
C412 C413 1.366 . S
C413 C412 1.366 . S
C413 C414 1.414 . S
C413 C416 1.499 . S
C414 H394 0.950 . S
C414 C413 1.414 . S
C414 C415 1.374 . S
C415 H395 0.950 . S
C415 C411 1.385 . S
C415 C414 1.374 . S
C416 C413 1.499 . S
C416 C417 1.373 . S
C416 C418 1.389 . S
C417 H396 0.950 . S
C417 C416 1.373 . S
C417 C433 1.377 . S
C418 C416 1.389 . S
C418 C419 1.524 . S
C418 C432 1.377 . S
C419 C418 1.524 . S
C419 C420 1.397 . S
C419 C424 1.363 . S
C420 H397 0.950 . S
C420 C419 1.397 . S
C420 C421 1.334 . S
C421 H398 0.950 . S
C421 C420 1.334 . S
C421 C422 1.287 . S
C422 C421 1.287 . S
C422 C423 1.524 . S
C422 H441 0.913 . S
C423 H399 0.950 . S
C423 C422 1.524 . S
C423 C424 1.415 . S
C424 H400 0.950 . S
C424 C419 1.363 . S
C424 C423 1.415 . S
C425 H401 0.951 . S
C425 C426 1.366 . S
C425 C427 1.388 . S
C426 C425 1.366 . S
C426 C430 1.385 . S
C427 H402 0.951 . S
C427 C425 1.388 . S
C427 C428 1.366 . S
C428 C427 1.366 . S
C428 C429 1.414 . S
C428 C431 1.499 . S
C429 H403 0.950 . S
C429 C428 1.414 . S
C429 C430 1.374 . S
C430 H404 0.950 . S
C430 C426 1.385 . S
C430 C429 1.374 . S
C431 C428 1.499 . S
C431 C432 1.373 . S
C431 C433 1.389 . S
C432 H405 0.950 . S
C432 C418 1.377 . S
C432 C431 1.373 . S
C433 C417 1.377 . S
C433 C431 1.389 . S
C433 C434 1.524 . S
C434 C433 1.524 . S
C434 C435 1.397 . S
C434 C439 1.363 . S
C435 H406 0.950 . S
C435 C434 1.397 . S
C435 C436 1.334 . S
C436 H407 0.950 . S
C436 C435 1.334 . S
C436 C437 1.287 . S
C437 C436 1.287 . S
C437 C438 1.524 . S
C437 H440 0.999 . S
C438 H408 0.950 . S
C438 C437 1.524 . S
C438 C439 1.415 . S
C439 H409 0.950 . S
C439 C434 1.363 . S
C439 C438 1.415 . S
H440 C437 0.999 . S
H441 C422 0.913 . S
H442 C460 0.951 . S
H443 C462 0.951 . S
H444 C464 0.950 . S
H445 C465 0.950 . S
H446 C467 0.950 . S
H447 C470 0.950 . S
H448 C471 0.950 . S
H449 C473 0.950 . S
H450 C474 0.950 . S
H451 C475 0.951 . S
H452 C477 0.951 . S
H453 C479 0.950 . S
H454 C480 0.950 . S
H455 C482 0.950 . S
H456 C485 0.950 . S
H457 C486 0.950 . S
H458 C488 0.950 . S
H459 C489 0.950 . S
C460 H442 0.951 . S
C460 C461 1.366 . S
C460 C462 1.388 . S
C461 C460 1.366 . S
C461 C465 1.385 . S
C462 H443 0.951 . S
C462 C460 1.388 . S
C462 C463 1.366 . S
C463 C462 1.366 . S
C463 C464 1.414 . S
C463 C466 1.499 . S
C464 H444 0.950 . S
C464 C463 1.414 . S
C464 C465 1.374 . S
C465 H445 0.950 . S
C465 C461 1.385 . S
C465 C464 1.374 . S
C466 C463 1.499 . S
C466 C467 1.373 . S
C466 C468 1.389 . S
C467 H446 0.950 . S
C467 C466 1.373 . S
C467 C483 1.377 . S
C468 C466 1.389 . S
C468 C469 1.524 . S
C468 C482 1.377 . S
C469 C468 1.524 . S
C469 C470 1.397 . S
C469 C474 1.363 . S
C470 H447 0.950 . S
C470 C469 1.397 . S
C470 C471 1.334 . S
C471 H448 0.950 . S
C471 C470 1.334 . S
C471 C472 1.287 . S
C472 C471 1.287 . S
C472 C473 1.524 . S
C472 H491 0.913 . S
C473 H449 0.950 . S
C473 C472 1.524 . S
C473 C474 1.415 . S
C474 H450 0.950 . S
C474 C469 1.363 . S
C474 C473 1.415 . S
C475 H451 0.951 . S
C475 C476 1.366 . S
C475 C477 1.388 . S
C476 C475 1.366 . S
C476 C480 1.385 . S
C477 H452 0.951 . S
C477 C475 1.388 . S
C477 C478 1.366 . S
C478 C477 1.366 . S
C478 C479 1.414 . S
C478 C481 1.499 . S
C479 H453 0.950 . S
C479 C478 1.414 . S
C479 C480 1.374 . S
C480 H454 0.950 . S
C480 C476 1.385 . S
C480 C479 1.374 . S
C481 C478 1.499 . S
C481 C482 1.373 . S
C481 C483 1.389 . S
C482 H455 0.950 . S
C482 C468 1.377 . S
C482 C481 1.373 . S
C483 C467 1.377 . S
C483 C481 1.389 . S
C483 C484 1.524 . S
C484 C483 1.524 . S
C484 C485 1.397 . S
C484 C489 1.363 . S
C485 H456 0.950 . S
C485 C484 1.397 . S
C485 C486 1.334 . S
C486 H457 0.950 . S
C486 C485 1.334 . S
C486 C487 1.287 . S
C487 C486 1.287 . S
C487 C488 1.524 . S
C487 H490 0.999 . S
C488 H458 0.950 . S
C488 C487 1.524 . S
C488 C489 1.415 . S
C489 H459 0.950 . S
C489 C484 1.363 . S
C489 C488 1.415 . S
H490 C487 0.999 . S
H491 C472 0.913 . S
H492 C510 0.951 1_554 S
H493 C512 0.951 . S
H494 C514 0.950 . S
H495 C515 0.950 . S
H496 C517 0.950 . S
H497 C520 0.950 1_556 S
H498 C521 0.950 . S
H499 C523 0.950 . S
H500 C524 0.950 . S
H501 C525 0.951 . S
H502 C527 0.951 . S
H503 C529 0.950 . S
H504 C530 0.950 . S
H505 C532 0.950 . S
H506 C535 0.950 . S
H507 C536 0.950 . S
H508 C538 0.950 . S
H509 C539 0.950 . S
C510 H492 0.951 1_556 S
C510 C511 1.366 . S
C510 C512 1.388 . S
C511 C510 1.366 . S
C511 C515 1.385 . S
C512 H493 0.951 . S
C512 C510 1.388 . S
C512 C513 1.366 . S
C513 C512 1.366 . S
C513 C514 1.414 . S
C513 C516 1.499 . S
C514 H494 0.950 . S
C514 C513 1.414 . S
C514 C515 1.374 . S
C515 H495 0.950 . S
C515 C511 1.385 . S
C515 C514 1.374 . S
C516 C513 1.499 . S
C516 C517 1.373 . S
C516 C518 1.389 . S
C517 H496 0.950 . S
C517 C516 1.373 . S
C517 C533 1.377 . S
C518 C516 1.389 . S
C518 C519 1.524 1_556 S
C518 C532 1.377 . S
C519 C518 1.524 1_554 S
C519 C520 1.397 . S
C519 C524 1.363 . S
C520 H497 0.950 1_554 S
C520 C519 1.397 . S
C520 C521 1.334 . S
C521 H498 0.950 . S
C521 C520 1.334 . S
C521 C522 1.287 . S
C522 C521 1.287 . S
C522 C523 1.524 . S
C522 H541 0.913 . S
C523 H499 0.950 . S
C523 C522 1.524 . S
C523 C524 1.415 . S
C524 H500 0.950 . S
C524 C519 1.363 . S
C524 C523 1.415 . S
C525 H501 0.951 . S
C525 C526 1.366 . S
C525 C527 1.388 . S
C526 C525 1.366 . S
C526 C530 1.385 . S
C527 H502 0.951 . S
C527 C525 1.388 . S
C527 C528 1.366 . S
C528 C527 1.366 . S
C528 C529 1.414 . S
C528 C531 1.499 . S
C529 H503 0.950 . S
C529 C528 1.414 . S
C529 C530 1.374 . S
C530 H504 0.950 . S
C530 C526 1.385 . S
C530 C529 1.374 . S
C531 C528 1.499 . S
C531 C532 1.373 . S
C531 C533 1.389 . S
C532 H505 0.950 . S
C532 C518 1.377 . S
C532 C531 1.373 . S
C533 C517 1.377 . S
C533 C531 1.389 . S
C533 C534 1.524 . S
C534 C533 1.524 . S
C534 C535 1.397 . S
C534 C539 1.363 . S
C535 H506 0.950 . S
C535 C534 1.397 . S
C535 C536 1.334 . S
C536 H507 0.950 . S
C536 C535 1.334 . S
C536 C537 1.287 . S
C537 C536 1.287 . S
C537 C538 1.524 . S
C537 H540 0.999 . S
C538 H508 0.950 . S
C538 C537 1.524 . S
C538 C539 1.415 . S
C539 H509 0.950 . S
C539 C534 1.363 . S
C539 C538 1.415 . S
H540 C537 0.999 . S
H541 C522 0.913 . S
H542 C560 0.951 . S
H543 C562 0.951 . S
H544 C564 0.950 . S
H545 C565 0.950 . S
H546 C567 0.950 . S
H547 C570 0.950 . S
H548 C571 0.950 . S
H549 C573 0.950 . S
H550 C574 0.950 . S
H551 C575 0.951 . S
H552 C577 0.951 . S
H553 C579 0.950 . S
H554 C580 0.950 . S
H555 C582 0.950 . S
H556 C585 0.950 . S
H557 C586 0.950 . S
H558 C588 0.950 . S
H559 C589 0.950 . S
C560 H542 0.951 . S
C560 C561 1.366 . S
C560 C562 1.388 . S
C561 C560 1.366 . S
C561 C565 1.385 . S
C562 H543 0.951 . S
C562 C560 1.388 . S
C562 C563 1.366 . S
C563 C562 1.366 . S
C563 C564 1.414 . S
C563 C566 1.499 . S
C564 H544 0.950 . S
C564 C563 1.414 . S
C564 C565 1.374 . S
C565 H545 0.950 . S
C565 C561 1.385 . S
C565 C564 1.374 . S
C566 C563 1.499 . S
C566 C567 1.373 . S
C566 C568 1.389 . S
C567 H546 0.950 . S
C567 C566 1.373 . S
C567 C583 1.377 . S
C568 C566 1.389 . S
C568 C569 1.524 . S
C568 C582 1.377 . S
C569 C568 1.524 . S
C569 C570 1.397 . S
C569 C574 1.363 . S
C570 H547 0.950 . S
C570 C569 1.397 . S
C570 C571 1.334 . S
C571 H548 0.950 . S
C571 C570 1.334 . S
C571 C572 1.287 . S
C572 C571 1.287 . S
C572 C573 1.524 . S
C572 H591 0.913 . S
C573 H549 0.950 . S
C573 C572 1.524 . S
C573 C574 1.415 . S
C574 H550 0.950 . S
C574 C569 1.363 . S
C574 C573 1.415 . S
C575 H551 0.951 . S
C575 C576 1.366 . S
C575 C577 1.388 . S
C576 C575 1.366 . S
C576 C580 1.385 . S
C577 H552 0.951 . S
C577 C575 1.388 . S
C577 C578 1.366 . S
C578 C577 1.366 . S
C578 C579 1.414 . S
C578 C581 1.499 . S
C579 H553 0.950 . S
C579 C578 1.414 . S
C579 C580 1.374 . S
C580 H554 0.950 . S
C580 C576 1.385 . S
C580 C579 1.374 . S
C581 C578 1.499 . S
C581 C582 1.373 . S
C581 C583 1.389 . S
C582 H555 0.950 . S
C582 C568 1.377 . S
C582 C581 1.373 . S
C583 C567 1.377 . S
C583 C581 1.389 . S
C583 C584 1.524 . S
C584 C583 1.524 . S
C584 C585 1.397 . S
C584 C589 1.363 . S
C585 H556 0.950 . S
C585 C584 1.397 . S
C585 C586 1.334 . S
C586 H557 0.950 . S
C586 C585 1.334 . S
C586 C587 1.287 . S
C587 C586 1.287 . S
C587 C588 1.524 . S
C587 H590 0.999 . S
C588 H558 0.950 . S
C588 C587 1.524 . S
C588 C589 1.415 . S
C589 H559 0.950 . S
C589 C584 1.363 . S
C589 C588 1.415 . S
H590 C587 0.999 . S
H591 C572 0.913 . S
H592 C610 0.960 . S
H593 C612 0.951 . S
H594 C614 0.950 . S
H595 C615 0.950 . S
H596 C617 0.950 . S
H597 C620 0.950 . S
H598 C621 0.950 . S
H599 C623 0.950 . S
H600 C624 0.950 1_556 S
H601 C625 0.951 . S
H602 C627 0.951 . S
H603 C629 0.950 . S
H604 C630 0.950 . S
H605 C632 0.950 . S
H606 C635 0.950 . S
H607 C636 0.950 . S
H608 C638 0.950 . S
H609 C639 0.950 . S
C610 H592 0.960 . S
C610 C611 1.366 . S
C610 C612 1.388 . S
C611 C610 1.366 . S
C611 C615 1.385 . S
C612 H593 0.951 . S
C612 C610 1.388 . S
C612 C613 1.366 . S
C613 C612 1.366 . S
C613 C614 1.414 . S
C613 C616 1.499 . S
C614 H594 0.950 . S
C614 C613 1.414 . S
C614 C615 1.374 . S
C615 H595 0.950 . S
C615 C611 1.385 . S
C615 C614 1.374 . S
C616 C613 1.499 . S
C616 C617 1.373 . S
C616 C618 1.389 . S
C617 H596 0.950 . S
C617 C616 1.373 . S
C617 C633 1.377 . S
C618 C616 1.389 . S
C618 C619 1.524 1_556 S
C618 C632 1.377 . S
C619 C618 1.524 1_554 S
C619 C620 1.397 . S
C619 C624 1.363 . S
C620 H597 0.950 . S
C620 C619 1.397 . S
C620 C621 1.334 . S
C621 H598 0.950 . S
C621 C620 1.334 . S
C621 C622 1.287 . S
C622 C621 1.287 . S
C622 C623 1.524 . S
C622 H641 0.913 . S
C623 H599 0.950 . S
C623 C622 1.524 . S
C623 C624 1.415 . S
C624 H600 0.950 1_554 S
C624 C619 1.363 . S
C624 C623 1.415 . S
C625 H601 0.951 . S
C625 C626 1.366 . S
C625 C627 1.388 . S
C626 C625 1.366 . S
C626 C630 1.385 . S
C627 H602 0.951 . S
C627 C625 1.388 . S
C627 C628 1.366 . S
C628 C627 1.366 . S
C628 C629 1.414 . S
C628 C631 1.499 . S
C629 H603 0.950 . S
C629 C628 1.414 . S
C629 C630 1.374 . S
C630 H604 0.950 . S
C630 C626 1.385 . S
C630 C629 1.374 . S
C631 C628 1.499 . S
C631 C632 1.373 . S
C631 C633 1.389 . S
C632 H605 0.950 . S
C632 C618 1.377 . S
C632 C631 1.373 . S
C633 C617 1.377 . S
C633 C631 1.389 . S
C633 C634 1.524 . S
C634 C633 1.524 . S
C634 C635 1.397 . S
C634 C639 1.363 . S
C635 H606 0.950 . S
C635 C634 1.397 . S
C635 C636 1.334 . S
C636 H607 0.950 . S
C636 C635 1.334 . S
C636 C637 1.287 . S
C637 C636 1.287 . S
C637 C638 1.524 . S
C637 H640 0.999 . S
C638 H608 0.950 . S
C638 C637 1.524 . S
C638 C639 1.415 . S
C639 H609 0.950 . S
C639 C634 1.363 . S
C639 C638 1.415 . S
H640 C637 0.999 . S
H641 C622 0.913 . S
H642 C660 0.951 . S
H643 C662 0.951 . S
H644 C664 0.950 . S
H645 C665 0.950 . S
H646 C667 0.950 . S
H647 C670 0.950 . S
H648 C671 0.950 . S
H649 C673 0.950 . S
H650 C674 0.950 . S
H651 C675 0.951 . S
H652 C677 0.951 . S
H653 C679 0.950 . S
H654 C680 0.950 . S
H655 C682 0.950 . S
H656 C685 0.950 . S
H657 C686 0.950 . S
H658 C688 0.950 . S
H659 C689 0.950 . S
C660 H642 0.951 . S
C660 C661 1.366 . S
C660 C662 1.388 . S
C661 C660 1.366 . S
C661 C665 1.385 . S
C662 H643 0.951 . S
C662 C660 1.388 . S
C662 C663 1.366 . S
C663 C662 1.366 . S
C663 C664 1.414 . S
C663 C666 1.499 . S
C664 H644 0.950 . S
C664 C663 1.414 . S
C664 C665 1.374 . S
C665 H645 0.950 . S
C665 C661 1.385 . S
C665 C664 1.374 . S
C666 C663 1.499 . S
C666 C667 1.373 . S
C666 C668 1.389 . S
C667 H646 0.950 . S
C667 C666 1.373 . S
C667 C683 1.377 . S
C668 C666 1.389 . S
C668 C669 1.524 . S
C668 C682 1.377 . S
C669 C668 1.524 . S
C669 C670 1.397 . S
C669 C674 1.363 . S
C670 H647 0.950 . S
C670 C669 1.397 . S
C670 C671 1.334 . S
C671 H648 0.950 . S
C671 C670 1.334 . S
C671 C672 1.287 . S
C672 C671 1.287 . S
C672 C673 1.524 . S
C672 H691 0.913 . S
C673 H649 0.950 . S
C673 C672 1.524 . S
C673 C674 1.415 . S
C674 H650 0.950 . S
C674 C669 1.363 . S
C674 C673 1.415 . S
C675 H651 0.951 . S
C675 C676 1.366 . S
C675 C677 1.388 . S
C676 C675 1.366 . S
C676 C680 1.385 . S
C677 H652 0.951 . S
C677 C675 1.388 . S
C677 C678 1.366 . S
C678 C677 1.366 . S
C678 C679 1.414 . S
C678 C681 1.499 . S
C679 H653 0.950 . S
C679 C678 1.414 . S
C679 C680 1.374 . S
C680 H654 0.950 . S
C680 C676 1.385 . S
C680 C679 1.374 . S
C681 C678 1.499 . S
C681 C682 1.373 . S
C681 C683 1.389 . S
C682 H655 0.950 . S
C682 C668 1.377 . S
C682 C681 1.373 . S
C683 C667 1.377 . S
C683 C681 1.389 . S
C683 C684 1.524 . S
C684 C683 1.524 . S
C684 C685 1.397 . S
C684 C689 1.363 . S
C685 H656 0.950 . S
C685 C684 1.397 . S
C685 C686 1.334 . S
C686 H657 0.950 . S
C686 C685 1.334 . S
C686 C687 1.287 . S
C687 C686 1.287 . S
C687 C688 1.524 . S
C687 H690 0.999 . S
C688 H658 0.950 . S
C688 C687 1.524 . S
C688 C689 1.415 . S
C689 H659 0.950 . S
C689 C684 1.363 . S
C689 C688 1.415 . S
H690 C687 0.999 . S
H691 C672 0.913 . S
H692 C710 0.951 . S
H693 C712 0.951 . S
H694 C714 0.950 1_554 S
H695 C715 0.950 . S
H696 C717 0.950 . S
H697 C720 0.950 . S
H698 C721 0.950 1_554 S
H699 C723 0.950 . S
H700 C724 0.950 . S
H701 C725 0.951 . S
H702 C727 0.951 . S
H703 C729 0.950 . S
H704 C730 0.950 . S
H705 C732 0.950 . S
H706 C735 0.950 . S
H707 C736 0.950 . S
H708 C738 0.950 . S
H709 C739 0.950 . S
C710 H692 0.951 . S
C710 C711 1.366 . S
C710 C712 1.388 . S
C711 C710 1.366 . S
C711 C715 1.385 1_556 S
C712 H693 0.951 . S
C712 C710 1.388 . S
C712 C713 1.366 . S
C713 C712 1.366 . S
C713 C714 1.414 . S
C713 C716 1.499 . S
C714 H694 0.950 1_556 S
C714 C713 1.414 . S
C714 C715 1.374 1_556 S
C715 H695 0.950 . S
C715 C711 1.385 1_554 S
C715 C714 1.374 1_554 S
C716 C713 1.499 . S
C716 C717 1.373 . S
C716 C718 1.389 . S
C717 H696 0.950 . S
C717 C716 1.373 . S
C717 C733 1.377 . S
C718 C716 1.389 . S
C718 C719 1.524 . S
C718 C732 1.377 . S
C719 C718 1.524 . S
C719 C720 1.397 . S
C719 C724 1.363 . S
C720 H697 0.950 . S
C720 C719 1.397 . S
C720 C721 1.334 . S
C721 H698 0.950 1_556 S
C721 C720 1.334 . S
C721 C722 1.287 . S
C722 C721 1.287 . S
C722 C723 1.524 . S
C722 H741 0.913 . S
C723 H699 0.950 . S
C723 C722 1.524 . S
C723 C724 1.415 . S
C724 H700 0.950 . S
C724 C719 1.363 . S
C724 C723 1.415 . S
C725 H701 0.951 . S
C725 C726 1.366 . S
C725 C727 1.388 . S
C726 C725 1.366 . S
C726 C730 1.385 . S
C727 H702 0.951 . S
C727 C725 1.388 . S
C727 C728 1.366 . S
C728 C727 1.366 . S
C728 C729 1.414 . S
C728 C731 1.499 . S
C729 H703 0.950 . S
C729 C728 1.414 . S
C729 C730 1.374 . S
C730 H704 0.950 . S
C730 C726 1.385 . S
C730 C729 1.374 . S
C731 C728 1.499 . S
C731 C732 1.373 . S
C731 C733 1.389 . S
C732 H705 0.950 . S
C732 C718 1.377 . S
C732 C731 1.373 . S
C733 C717 1.377 . S
C733 C731 1.389 . S
C733 C734 1.524 . S
C734 C733 1.524 . S
C734 C735 1.397 . S
C734 C739 1.363 . S
C735 H706 0.950 . S
C735 C734 1.397 . S
C735 C736 1.334 . S
C736 H707 0.950 . S
C736 C735 1.334 . S
C736 C737 1.287 . S
C737 C736 1.287 . S
C737 C738 1.524 . S
C737 H740 0.999 . S
C738 H708 0.950 . S
C738 C737 1.524 . S
C738 C739 1.415 . S
C739 H709 0.950 . S
C739 C734 1.363 . S
C739 C738 1.415 . S
H740 C737 0.999 . S
H741 C722 0.913 . S
H742 C760 0.951 . S
H743 C762 0.951 . S
H744 C764 0.950 . S
H745 C765 0.950 . S
H746 C767 0.950 . S
H747 C770 0.950 . S
H748 C771 0.950 . S
H749 C773 0.950 . S
H750 C774 0.950 . S
H751 C775 0.951 . S
H752 C777 0.951 . S
H753 C779 0.950 . S
H754 C780 0.950 . S
H755 C782 0.950 . S
H756 C785 0.950 . S
H757 C786 0.950 . S
H758 C788 0.950 . S
H759 C789 0.950 . S
C760 H742 0.951 . S
C760 C761 1.366 . S
C760 C762 1.388 . S
C761 C760 1.366 . S
C761 C765 1.385 . S
C762 H743 0.951 . S
C762 C760 1.388 . S
C762 C763 1.366 . S
C763 C762 1.366 . S
C763 C764 1.414 . S
C763 C766 1.499 . S
C764 H744 0.950 . S
C764 C763 1.414 . S
C764 C765 1.374 . S
C765 H745 0.950 . S
C765 C761 1.385 . S
C765 C764 1.374 . S
C766 C763 1.499 . S
C766 C767 1.373 . S
C766 C768 1.389 . S
C767 H746 0.950 . S
C767 C766 1.373 . S
C767 C783 1.377 . S
C768 C766 1.389 . S
C768 C769 1.524 . S
C768 C782 1.377 . S
C769 C768 1.524 . S
C769 C770 1.397 . S
C769 C774 1.363 . S
C770 H747 0.950 . S
C770 C769 1.397 . S
C770 C771 1.334 . S
C771 H748 0.950 . S
C771 C770 1.334 . S
C771 C772 1.287 . S
C772 C771 1.287 . S
C772 C773 1.524 . S
C772 H791 0.913 . S
C773 H749 0.950 . S
C773 C772 1.524 . S
C773 C774 1.415 . S
C774 H750 0.950 . S
C774 C769 1.363 . S
C774 C773 1.415 . S
C775 H751 0.951 . S
C775 C776 1.366 . S
C775 C777 1.388 . S
C776 C775 1.366 . S
C776 C780 1.385 . S
C777 H752 0.951 . S
C777 C775 1.388 . S
C777 C778 1.366 . S
C778 C777 1.366 . S
C778 C779 1.414 . S
C778 C781 1.499 . S
C779 H753 0.950 . S
C779 C778 1.414 . S
C779 C780 1.374 . S
C780 H754 0.950 . S
C780 C776 1.385 . S
C780 C779 1.374 . S
C781 C778 1.499 . S
C781 C782 1.373 . S
C781 C783 1.389 . S
C782 H755 0.950 . S
C782 C768 1.377 . S
C782 C781 1.373 . S
C783 C767 1.377 . S
C783 C781 1.389 . S
C783 C784 1.524 . S
C784 C783 1.524 . S
C784 C785 1.397 . S
C784 C789 1.363 . S
C785 H756 0.950 . S
C785 C784 1.397 . S
C785 C786 1.334 . S
C786 H757 0.950 . S
C786 C785 1.334 . S
C786 C787 1.287 . S
C787 C786 1.287 . S
C787 C788 1.524 . S
C787 H790 0.999 . S
C788 H758 0.950 . S
C788 C787 1.524 . S
C788 C789 1.415 . S
C789 H759 0.950 . S
C789 C784 1.363 . S
C789 C788 1.415 . S
H790 C787 0.999 . S
H791 C772 0.913 . S
H792 C810 0.951 . S
H793 C812 0.951 . S
H794 C814 0.950 1_554 S
H795 C815 0.950 . S
H796 C817 0.950 1_545 S
H797 C820 0.950 . S
H798 C821 0.950 . S
H799 C823 0.950 . S
H800 C824 0.950 . S
H801 C825 0.951 . S
H802 C827 0.951 . S
H803 C829 0.950 . S
H804 C830 0.950 . S
H805 C832 0.950 . S
H806 C835 0.950 . S
H807 C836 0.950 . S
H808 C838 0.950 . S
H809 C839 0.950 1_554 S
C810 H792 0.951 . S
C810 C811 1.366 . S
C810 C812 1.388 . S
C811 C810 1.366 . S
C811 C815 1.385 1_556 S
C812 H793 0.951 . S
C812 C810 1.388 . S
C812 C813 1.366 . S
C813 C812 1.366 . S
C813 C814 1.414 . S
C813 C816 1.499 . S
C814 H794 0.950 1_556 S
C814 C813 1.414 . S
C814 C815 1.374 1_556 S
C815 H795 0.950 . S
C815 C811 1.385 1_554 S
C815 C814 1.374 1_554 S
C816 C813 1.499 . S
C816 C817 1.373 . S
C816 C818 1.389 . S
C817 H796 0.950 1_565 S
C817 C816 1.373 . S
C817 C833 1.377 1_565 S
C818 C816 1.389 . S
C818 C819 1.524 . S
C818 C832 1.377 . S
C819 C818 1.524 . S
C819 C820 1.397 . S
C819 C824 1.363 . S
C820 H797 0.950 . S
C820 C819 1.397 . S
C820 C821 1.334 . S
C821 H798 0.950 . S
C821 C820 1.334 . S
C821 C822 1.287 . S
C822 C821 1.287 . S
C822 C823 1.524 . S
C822 H841 0.913 . S
C823 H799 0.950 . S
C823 C822 1.524 . S
C823 C824 1.415 . S
C824 H800 0.950 . S
C824 C819 1.363 . S
C824 C823 1.415 . S
C825 H801 0.951 . S
C825 C826 1.366 . S
C825 C827 1.388 . S
C826 C825 1.366 . S
C826 C830 1.385 . S
C827 H802 0.951 . S
C827 C825 1.388 . S
C827 C828 1.366 . S
C828 C827 1.366 . S
C828 C829 1.414 . S
C828 C831 1.499 . S
C829 H803 0.950 . S
C829 C828 1.414 . S
C829 C830 1.374 . S
C830 H804 0.950 . S
C830 C826 1.385 . S
C830 C829 1.374 . S
C831 C828 1.499 . S
C831 C832 1.373 1_545 S
C831 C833 1.389 . S
C832 H805 0.950 . S
C832 C818 1.377 . S
C832 C831 1.373 1_565 S
C833 C817 1.377 1_545 S
C833 C831 1.389 . S
C833 C834 1.524 . S
C834 C833 1.524 . S
C834 C835 1.397 . S
C834 C839 1.363 . S
C835 H806 0.950 . S
C835 C834 1.397 . S
C835 C836 1.334 . S
C836 H807 0.950 . S
C836 C835 1.334 . S
C836 C837 1.287 . S
C837 C836 1.287 . S
C837 C838 1.524 1_556 S
C837 H840 0.999 . S
C838 H808 0.950 . S
C838 C837 1.524 1_554 S
C838 C839 1.415 1_554 S
C839 H809 0.950 1_556 S
C839 C834 1.363 . S
C839 C838 1.415 1_556 S
H840 C837 0.999 . S
H841 C822 0.913 . S
H842 C860 0.951 . S
H843 C862 0.951 . S
H844 C864 0.950 . S
H845 C865 0.950 . S
H846 C867 0.950 . S
H847 C870 0.950 . S
H848 C871 0.950 . S
H849 C873 0.950 . S
H850 C874 0.950 . S
H851 C875 0.951 . S
H852 C877 0.951 . S
H853 C879 0.950 . S
H854 C880 0.950 . S
H855 C882 0.950 . S
H856 C885 0.950 . S
H857 C886 0.950 . S
H858 C888 0.950 . S
H859 C889 0.970 . S
C860 H842 0.951 . S
C860 C861 1.366 . S
C860 C862 1.388 . S
C861 C860 1.366 . S
C861 C865 1.385 . S
C862 H843 0.951 . S
C862 C860 1.388 . S
C862 C863 1.366 . S
C863 C862 1.366 . S
C863 C864 1.414 . S
C863 C866 1.499 . S
C864 H844 0.950 . S
C864 C863 1.414 . S
C864 C865 1.374 . S
C865 H845 0.950 . S
C865 C861 1.385 . S
C865 C864 1.374 . S
C866 C863 1.499 . S
C866 C867 1.373 . S
C866 C868 1.389 . S
C867 H846 0.950 . S
C867 C866 1.373 . S
C867 C883 1.377 1_545 S
C868 C866 1.389 . S
C868 C869 1.524 . S
C868 C882 1.377 . S
C869 C868 1.524 . S
C869 C870 1.397 . S
C869 C874 1.363 . S
C870 H847 0.950 . S
C870 C869 1.397 . S
C870 C871 1.334 . S
C871 H848 0.950 . S
C871 C870 1.334 . S
C871 C872 1.287 . S
C872 C871 1.287 . S
C872 C873 1.524 . S
C872 H891 0.913 . S
C873 H849 0.950 . S
C873 C872 1.524 . S
C873 C874 1.415 . S
C874 H850 0.950 . S
C874 C869 1.363 . S
C874 C873 1.415 . S
C875 H851 0.951 . S
C875 C876 1.366 . S
C875 C877 1.388 . S
C876 C875 1.366 . S
C876 C880 1.385 . S
C877 H852 0.951 . S
C877 C875 1.388 . S
C877 C878 1.366 . S
C878 C877 1.366 . S
C878 C879 1.414 . S
C878 C881 1.499 . S
C879 H853 0.950 . S
C879 C878 1.414 . S
C879 C880 1.374 . S
C880 H854 0.950 . S
C880 C876 1.385 . S
C880 C879 1.374 . S
C881 C878 1.499 . S
C881 C882 1.373 1_565 S
C881 C883 1.389 . S
C882 H855 0.950 . S
C882 C868 1.377 . S
C882 C881 1.373 1_545 S
C883 C867 1.377 1_565 S
C883 C881 1.389 . S
C883 C884 1.524 . S
C884 C883 1.524 . S
C884 C885 1.397 . S
C884 C889 1.363 . S
C885 H856 0.950 . S
C885 C884 1.397 . S
C885 C886 1.334 . S
C886 H857 0.950 . S
C886 C885 1.334 . S
C886 C887 1.287 . S
C887 C886 1.287 . S
C887 C888 1.524 . S
C887 H890 0.999 . S
C888 H858 0.950 . S
C888 C887 1.524 . S
C888 C889 1.415 . S
C889 H859 0.970 . S
C889 C884 1.363 . S
C889 C888 1.415 . S
H890 C887 0.999 . S
H891 C872 0.913 . S
H892 C910 0.951 . S
H893 C912 0.951 . S
H894 C914 0.950 1_554 S
H895 C915 0.950 . S
H896 C917 0.950 . S
H897 C920 0.950 . S
H898 C921 0.950 . S
H899 C923 0.950 . S
H900 C924 0.950 . S
H901 C925 0.951 . S
H902 C927 0.951 . S
H903 C929 0.950 . S
H904 C930 0.950 . S
H905 C932 0.950 1_545 S
H906 C935 0.950 1_565 S
H907 C936 0.950 . S
H908 C938 0.950 . S
H909 C939 0.950 . S
C910 H892 0.951 . S
C910 C911 1.366 . S
C910 C912 1.388 . S
C911 C910 1.366 . S
C911 C915 1.385 1_556 S
C912 H893 0.951 . S
C912 C910 1.388 . S
C912 C913 1.366 . S
C913 C912 1.366 . S
C913 C914 1.414 . S
C913 C916 1.499 . S
C914 H894 0.950 1_556 S
C914 C913 1.414 . S
C914 C915 1.374 1_556 S
C915 H895 0.950 . S
C915 C911 1.385 1_554 S
C915 C914 1.374 1_554 S
C916 C913 1.499 . S
C916 C917 1.373 . S
C916 C918 1.389 . S
C917 H896 0.950 . S
C917 C916 1.373 . S
C917 C933 1.377 1_565 S
C918 C916 1.389 . S
C918 C919 1.524 . S
C918 C932 1.377 . S
C919 C918 1.524 . S
C919 C920 1.397 . S
C919 C924 1.363 . S
C920 H897 0.950 . S
C920 C919 1.397 . S
C920 C921 1.334 . S
C921 H898 0.950 . S
C921 C920 1.334 . S
C921 C922 1.287 . S
C922 C921 1.287 . S
C922 C923 1.524 . S
C922 H941 0.913 . S
C923 H899 0.950 . S
C923 C922 1.524 . S
C923 C924 1.415 . S
C924 H900 0.950 . S
C924 C919 1.363 . S
C924 C923 1.415 . S
C925 H901 0.951 . S
C925 C926 1.366 . S
C925 C927 1.388 . S
C926 C925 1.366 . S
C926 C930 1.385 . S
C927 H902 0.951 . S
C927 C925 1.388 . S
C927 C928 1.366 . S
C928 C927 1.366 . S
C928 C929 1.414 . S
C928 C931 1.499 . S
C929 H903 0.950 . S
C929 C928 1.414 . S
C929 C930 1.374 . S
C930 H904 0.950 . S
C930 C926 1.385 . S
C930 C929 1.374 . S
C931 C928 1.499 . S
C931 C932 1.373 1_545 S
C931 C933 1.389 . S
C932 H905 0.950 1_565 S
C932 C918 1.377 . S
C932 C931 1.373 1_565 S
C933 C917 1.377 1_545 S
C933 C931 1.389 . S
C933 C934 1.524 . S
C934 C933 1.524 . S
C934 C935 1.397 . S
C934 C939 1.363 1_556 S
C935 H906 0.950 1_545 S
C935 C934 1.397 . S
C935 C936 1.334 . S
C936 H907 0.950 . S
C936 C935 1.334 . S
C936 C937 1.287 1_556 S
C937 C936 1.287 1_554 S
C937 C938 1.524 . S
C937 H940 0.999 . S
C938 H908 0.950 . S
C938 C937 1.524 . S
C938 C939 1.415 . S
C939 H909 0.950 . S
C939 C934 1.363 1_554 S
C939 C938 1.415 . S
H940 C937 0.999 . S
H941 C922 0.913 . S
H942 C960 0.951 . S
H943 C962 0.951 . S
H944 C964 0.950 . S
H945 C965 0.950 . S
H946 C967 0.950 . S
H947 C970 0.950 . S
H948 C971 0.950 . S
H949 C973 0.950 . S
H950 C974 0.950 . S
H951 C975 0.951 . S
H952 C977 0.951 . S
H953 C979 0.950 . S
H954 C980 0.950 . S
H955 C982 0.950 . S
H956 C985 0.950 1_565 S
H957 C986 0.950 1_565 S
H958 C988 0.950 . S
H959 C989 0.950 . S
C960 H942 0.951 . S
C960 C961 1.366 . S
C960 C962 1.388 . S
C961 C960 1.366 . S
C961 C965 1.385 . S
C962 H943 0.951 . S
C962 C960 1.388 . S
C962 C963 1.366 . S
C963 C962 1.366 . S
C963 C964 1.414 . S
C963 C966 1.499 . S
C964 H944 0.950 . S
C964 C963 1.414 . S
C964 C965 1.374 . S
C965 H945 0.950 . S
C965 C961 1.385 . S
C965 C964 1.374 . S
C966 C963 1.499 . S
C966 C967 1.373 . S
C966 C968 1.425 . S
C967 H946 0.950 . S
C967 C966 1.373 . S
C967 C983 1.377 . S
C968 C966 1.425 . S
C968 C969 1.514 1_545 S
C968 C982 1.351 1_545 S
C969 C968 1.514 1_565 S
C969 C970 1.397 1_565 S
C969 C974 1.363 . S
C970 H947 0.950 . S
C970 C969 1.397 1_545 S
C970 C971 1.334 . S
C971 H948 0.950 . S
C971 C970 1.334 . S
C971 C972 1.287 1_545 S
C972 C971 1.287 1_565 S
C972 C973 1.524 . S
C972 H991 0.913 . S
C973 H949 0.950 . S
C973 C972 1.524 . S
C973 C974 1.415 . S
C974 H950 0.950 . S
C974 C969 1.363 . S
C974 C973 1.415 . S
C975 H951 0.951 . S
C975 C976 1.366 . S
C975 C977 1.388 . S
C976 C975 1.366 . S
C976 C980 1.385 . S
C977 H952 0.951 . S
C977 C975 1.388 . S
C977 C978 1.366 . S
C978 C977 1.366 . S
C978 C979 1.414 . S
C978 C981 1.499 . S
C979 H953 0.950 . S
C979 C978 1.414 . S
C979 C980 1.374 . S
C980 H954 0.950 . S
C980 C976 1.385 . S
C980 C979 1.374 . S
C981 C978 1.499 . S
C981 C982 1.373 . S
C981 C983 1.389 1_565 S
C982 H955 0.950 . S
C982 C968 1.351 1_565 S
C982 C981 1.373 . S
C983 C967 1.377 . S
C983 C981 1.389 1_545 S
C983 C984 1.524 . S
C984 C983 1.524 . S
C984 C985 1.397 . S
C984 C989 1.363 . S
C985 H956 0.950 1_545 S
C985 C984 1.397 . S
C985 C986 1.334 . S
C986 H957 0.950 1_545 S
C986 C985 1.334 . S
C986 C987 1.287 . S
C987 C986 1.287 . S
C987 C988 1.524 . S
C987 H990 0.999 . S
C988 H958 0.950 . S
C988 C987 1.524 . S
C988 C989 1.415 . S
C989 H959 0.950 . S
C989 C984 1.363 . S
C989 C988 1.415 . S
H990 C987 0.999 . S
H991 C972 0.913 . S
H992 C1010 0.951 . S
H993 C1012 0.951 . S
H994 C1014 0.950 . S
H995 C1015 0.950 . S
H996 C1017 0.950 . S
H997 C1020 0.950 . S
H998 C1021 0.950 . S
H999 C1023 0.950 . S
H1000 C1024 0.950 . S
H1001 C1025 0.951 . S
H1002 C1027 0.951 . S
H1003 C1029 0.950 . S
H1004 C1030 0.950 . S
H1005 C1032 0.950 . S
H1006 C1035 0.950 . S
H1007 C1036 0.950 . S
H1008 C1038 0.950 . S
H1009 C1039 0.950 . S
C1010 H992 0.951 . S
C1010 C1011 1.366 . S
C1010 C1012 1.388 . S
C1011 C1010 1.366 . S
C1011 C1015 1.385 . S
C1012 H993 0.951 . S
C1012 C1010 1.388 . S
C1012 C1013 1.366 . S
C1013 C1012 1.366 . S
C1013 C1014 1.414 . S
C1013 C1016 1.499 . S
C1014 H994 0.950 . S
C1014 C1013 1.414 . S
C1014 C1015 1.374 . S
C1015 H995 0.950 . S
C1015 C1011 1.385 . S
C1015 C1014 1.374 . S
C1016 C1013 1.499 . S
C1016 C1017 1.373 . S
C1016 C1018 1.389 . S
C1017 H996 0.950 . S
C1017 C1016 1.373 . S
C1017 C1033 1.377 . S
C1018 C1016 1.389 . S
C1018 C1019 1.524 . S
C1018 C1032 1.377 . S
C1019 C1018 1.524 . S
C1019 C1020 1.397 . S
C1019 C1024 1.363 . S
C1020 H997 0.950 . S
C1020 C1019 1.397 . S
C1020 C1021 1.334 . S
C1021 H998 0.950 . S
C1021 C1020 1.334 . S
C1021 C1022 1.287 . S
C1022 C1021 1.287 . S
C1022 C1023 1.524 . S
C1022 H1041 0.913 . S
C1023 H999 0.950 . S
C1023 C1022 1.524 . S
C1023 C1024 1.415 . S
C1024 H1000 0.950 . S
C1024 C1019 1.363 . S
C1024 C1023 1.415 . S
C1025 H1001 0.951 . S
C1025 C1026 1.366 . S
C1025 C1027 1.388 . S
C1026 C1025 1.366 . S
C1026 C1030 1.385 . S
C1027 H1002 0.951 . S
C1027 C1025 1.388 . S
C1027 C1028 1.366 . S
C1028 C1027 1.366 . S
C1028 C1029 1.414 . S
C1028 C1031 1.499 . S
C1029 H1003 0.950 . S
C1029 C1028 1.414 . S
C1029 C1030 1.374 . S
C1030 H1004 0.950 . S
C1030 C1026 1.385 . S
C1030 C1029 1.374 . S
C1031 C1028 1.499 . S
C1031 C1032 1.373 . S
C1031 C1033 1.389 . S
C1032 H1005 0.950 . S
C1032 C1018 1.377 . S
C1032 C1031 1.373 . S
C1033 C1017 1.377 . S
C1033 C1031 1.389 . S
C1033 C1034 1.524 . S
C1034 C1033 1.524 . S
C1034 C1035 1.397 . S
C1034 C1039 1.363 . S
C1035 H1006 0.950 . S
C1035 C1034 1.397 . S
C1035 C1036 1.334 . S
C1036 H1007 0.950 . S
C1036 C1035 1.334 . S
C1036 C1037 1.287 . S
C1037 C1036 1.287 . S
C1037 C1038 1.524 . S
C1037 H1040 0.999 . S
C1038 H1008 0.950 . S
C1038 C1037 1.524 . S
C1038 C1039 1.415 . S
C1039 H1009 0.950 . S
C1039 C1034 1.363 . S
C1039 C1038 1.415 . S
H1040 C1037 0.999 . S
H1041 C1022 0.913 . S
H1042 C1060 0.951 . S
H1043 C1062 0.951 . S
H1044 C1064 0.950 . S
H1045 C1065 0.950 . S
H1046 C1067 0.950 . S
H1047 C1070 0.950 . S
H1048 C1071 0.950 . S
H1049 C1073 0.950 . S
H1050 C1074 0.950 . S
H1051 C1075 0.951 . S
H1052 C1077 0.951 . S
H1053 C1079 0.950 . S
H1054 C1080 0.950 . S
H1055 C1082 0.950 . S
H1056 C1085 0.950 . S
H1057 C1086 0.950 . S
H1058 C1088 0.950 . S
H1059 C1089 0.950 . S
C1060 H1042 0.951 . S
C1060 C1061 1.366 . S
C1060 C1062 1.388 . S
C1061 C1060 1.366 . S
C1061 C1065 1.385 . S
C1062 H1043 0.951 . S
C1062 C1060 1.388 . S
C1062 C1063 1.366 . S
C1063 C1062 1.366 . S
C1063 C1064 1.414 . S
C1063 C1066 1.499 . S
C1064 H1044 0.950 . S
C1064 C1063 1.414 . S
C1064 C1065 1.374 . S
C1065 H1045 0.950 . S
C1065 C1061 1.385 . S
C1065 C1064 1.374 . S
C1066 C1063 1.499 . S
C1066 C1067 1.373 . S
C1066 C1068 1.389 . S
C1067 H1046 0.950 . S
C1067 C1066 1.373 . S
C1067 C1083 1.377 . S
C1068 C1066 1.389 . S
C1068 C1069 1.524 . S
C1068 C1082 1.377 . S
C1069 C1068 1.524 . S
C1069 C1070 1.397 . S
C1069 C1074 1.363 . S
C1070 H1047 0.950 . S
C1070 C1069 1.397 . S
C1070 C1071 1.334 . S
C1071 H1048 0.950 . S
C1071 C1070 1.334 . S
C1071 C1072 1.287 . S
C1072 C1071 1.287 . S
C1072 C1073 1.524 . S
C1072 H1091 0.913 . S
C1073 H1049 0.950 . S
C1073 C1072 1.524 . S
C1073 C1074 1.415 . S
C1074 H1050 0.950 . S
C1074 C1069 1.363 . S
C1074 C1073 1.415 . S
C1075 H1051 0.951 . S
C1075 C1076 1.366 . S
C1075 C1077 1.388 . S
C1076 C1075 1.366 . S
C1076 C1080 1.385 . S
C1077 H1052 0.951 . S
C1077 C1075 1.388 . S
C1077 C1078 1.366 . S
C1078 C1077 1.366 . S
C1078 C1079 1.414 . S
C1078 C1081 1.499 . S
C1079 H1053 0.950 . S
C1079 C1078 1.414 . S
C1079 C1080 1.374 . S
C1080 H1054 0.950 . S
C1080 C1076 1.385 . S
C1080 C1079 1.374 . S
C1081 C1078 1.499 . S
C1081 C1082 1.373 . S
C1081 C1083 1.389 . S
C1082 H1055 0.950 . S
C1082 C1068 1.377 . S
C1082 C1081 1.373 . S
C1083 C1067 1.377 . S
C1083 C1081 1.389 . S
C1083 C1084 1.524 . S
C1084 C1083 1.524 . S
C1084 C1085 1.397 . S
C1084 C1089 1.363 . S
C1085 H1056 0.950 . S
C1085 C1084 1.397 . S
C1085 C1086 1.334 . S
C1086 H1057 0.950 . S
C1086 C1085 1.334 . S
C1086 C1087 1.287 . S
C1087 C1086 1.287 . S
C1087 C1088 1.524 . S
C1087 H1090 0.999 . S
C1088 H1058 0.950 . S
C1088 C1087 1.524 . S
C1088 C1089 1.415 . S
C1089 H1059 0.950 . S
C1089 C1084 1.363 . S
C1089 C1088 1.415 . S
H1090 C1087 0.999 . S
H1091 C1072 0.913 . S
H1092 C1110 0.951 . S
H1093 C1112 0.951 . S
H1094 C1114 0.950 . S
H1095 C1115 0.950 . S
H1096 C1117 0.950 . S
H1097 C1120 0.950 . S
H1098 C1121 0.950 . S
H1099 C1123 0.950 . S
H1100 C1124 0.950 . S
H1101 C1125 0.951 . S
H1102 C1127 0.951 . S
H1103 C1129 0.950 . S
H1104 C1130 0.950 . S
H1105 C1132 0.950 . S
H1106 C1135 0.950 . S
H1107 C1136 0.950 . S
H1108 C1138 0.950 . S
H1109 C1139 0.950 . S
C1110 H1092 0.951 . S
C1110 C1111 1.366 . S
C1110 C1112 1.388 . S
C1111 C1110 1.366 . S
C1111 C1115 1.385 . S
C1112 H1093 0.951 . S
C1112 C1110 1.388 . S
C1112 C1113 1.366 . S
C1113 C1112 1.366 . S
C1113 C1114 1.414 . S
C1113 C1116 1.499 . S
C1114 H1094 0.950 . S
C1114 C1113 1.414 . S
C1114 C1115 1.374 . S
C1115 H1095 0.950 . S
C1115 C1111 1.385 . S
C1115 C1114 1.374 . S
C1116 C1113 1.499 . S
C1116 C1117 1.373 . S
C1116 C1118 1.389 . S
C1117 H1096 0.950 . S
C1117 C1116 1.373 . S
C1117 C1133 1.377 . S
C1118 C1116 1.389 . S
C1118 C1119 1.524 . S
C1118 C1132 1.377 . S
C1119 C1118 1.524 . S
C1119 C1120 1.397 . S
C1119 C1124 1.363 . S
C1120 H1097 0.950 . S
C1120 C1119 1.397 . S
C1120 C1121 1.334 . S
C1121 H1098 0.950 . S
C1121 C1120 1.334 . S
C1121 C1122 1.287 . S
C1122 C1121 1.287 . S
C1122 C1123 1.524 . S
C1122 H1141 0.913 . S
C1123 H1099 0.950 . S
C1123 C1122 1.524 . S
C1123 C1124 1.415 . S
C1124 H1100 0.950 . S
C1124 C1119 1.363 . S
C1124 C1123 1.415 . S
C1125 H1101 0.951 . S
C1125 C1126 1.366 . S
C1125 C1127 1.388 . S
C1126 C1125 1.366 . S
C1126 C1130 1.385 . S
C1127 H1102 0.951 . S
C1127 C1125 1.388 . S
C1127 C1128 1.366 . S
C1128 C1127 1.366 . S
C1128 C1129 1.414 . S
C1128 C1131 1.499 . S
C1129 H1103 0.950 . S
C1129 C1128 1.414 . S
C1129 C1130 1.374 . S
C1130 H1104 0.950 . S
C1130 C1126 1.385 . S
C1130 C1129 1.374 . S
C1131 C1128 1.499 . S
C1131 C1132 1.373 . S
C1131 C1133 1.389 . S
C1132 H1105 0.950 . S
C1132 C1118 1.377 . S
C1132 C1131 1.373 . S
C1133 C1117 1.377 . S
C1133 C1131 1.389 . S
C1133 C1134 1.524 . S
C1134 C1133 1.524 . S
C1134 C1135 1.397 . S
C1134 C1139 1.363 . S
C1135 H1106 0.950 . S
C1135 C1134 1.397 . S
C1135 C1136 1.334 . S
C1136 H1107 0.950 . S
C1136 C1135 1.334 . S
C1136 C1137 1.287 . S
C1137 C1136 1.287 . S
C1137 C1138 1.524 . S
C1137 H1140 0.999 . S
C1138 H1108 0.950 . S
C1138 C1137 1.524 . S
C1138 C1139 1.415 . S
C1139 H1109 0.950 . S
C1139 C1134 1.363 . S
C1139 C1138 1.415 . S
H1140 C1137 0.999 . S
H1141 C1122 0.913 . S
H1142 C1160 0.951 . S
H1143 C1162 0.951 . S
H1144 C1164 0.950 . S
H1145 C1165 0.950 . S
H1146 C1167 0.950 . S
H1147 C1170 0.950 . S
H1148 C1171 0.950 . S
H1149 C1173 0.950 . S
H1150 C1174 0.950 . S
H1151 C1175 0.951 . S
H1152 C1177 0.951 . S
H1153 C1179 0.950 . S
H1154 C1180 0.950 . S
H1155 C1182 0.950 . S
H1156 C1185 0.950 . S
H1157 C1186 0.950 . S
H1158 C1188 0.950 . S
H1159 C1189 0.950 . S
C1160 H1142 0.951 . S
C1160 C1161 1.366 . S
C1160 C1162 1.388 . S
C1161 C1160 1.366 . S
C1161 C1165 1.385 . S
C1162 H1143 0.951 . S
C1162 C1160 1.388 . S
C1162 C1163 1.366 . S
C1163 C1162 1.366 . S
C1163 C1164 1.414 . S
C1163 C1166 1.499 . S
C1164 H1144 0.950 . S
C1164 C1163 1.414 . S
C1164 C1165 1.374 . S
C1165 H1145 0.950 . S
C1165 C1161 1.385 . S
C1165 C1164 1.374 . S
C1166 C1163 1.499 . S
C1166 C1167 1.373 . S
C1166 C1168 1.389 . S
C1167 H1146 0.950 . S
C1167 C1166 1.373 . S
C1167 C1183 1.377 . S
C1168 C1166 1.389 . S
C1168 C1169 1.524 . S
C1168 C1182 1.377 . S
C1169 C1168 1.524 . S
C1169 C1170 1.397 . S
C1169 C1174 1.363 . S
C1170 H1147 0.950 . S
C1170 C1169 1.397 . S
C1170 C1171 1.334 . S
C1171 H1148 0.950 . S
C1171 C1170 1.334 . S
C1171 C1172 1.287 . S
C1172 C1171 1.287 . S
C1172 C1173 1.524 . S
C1172 H1191 0.913 . S
C1173 H1149 0.950 . S
C1173 C1172 1.524 . S
C1173 C1174 1.415 . S
C1174 H1150 0.950 . S
C1174 C1169 1.363 . S
C1174 C1173 1.415 . S
C1175 H1151 0.951 . S
C1175 C1176 1.366 . S
C1175 C1177 1.388 . S
C1176 C1175 1.366 . S
C1176 C1180 1.385 . S
C1177 H1152 0.951 . S
C1177 C1175 1.388 . S
C1177 C1178 1.366 . S
C1178 C1177 1.366 . S
C1178 C1179 1.414 . S
C1178 C1181 1.499 . S
C1179 H1153 0.950 . S
C1179 C1178 1.414 . S
C1179 C1180 1.374 . S
C1180 H1154 0.950 . S
C1180 C1176 1.385 . S
C1180 C1179 1.374 . S
C1181 C1178 1.499 . S
C1181 C1182 1.373 . S
C1181 C1183 1.389 . S
C1182 H1155 0.950 . S
C1182 C1168 1.377 . S
C1182 C1181 1.373 . S
C1183 C1167 1.377 . S
C1183 C1181 1.389 . S
C1183 C1184 1.524 . S
C1184 C1183 1.524 . S
C1184 C1185 1.397 . S
C1184 C1189 1.363 . S
C1185 H1156 0.950 . S
C1185 C1184 1.397 . S
C1185 C1186 1.334 . S
C1186 H1157 0.950 . S
C1186 C1185 1.334 . S
C1186 C1187 1.287 . S
C1187 C1186 1.287 . S
C1187 C1188 1.524 . S
C1187 H1190 0.999 . S
C1188 H1158 0.950 . S
C1188 C1187 1.524 . S
C1188 C1189 1.415 . S
C1189 H1159 0.950 . S
C1189 C1184 1.363 . S
C1189 C1188 1.415 . S
H1190 C1187 0.999 . S
H1191 C1172 0.913 . S
H1192 C1210 0.951 . S
H1193 C1212 0.951 . S
H1194 C1214 0.950 . S
H1195 C1215 0.950 . S
H1196 C1217 0.950 . S
H1197 C1220 0.950 . S
H1198 C1221 0.950 . S
H1199 C1223 0.950 . S
H1200 C1224 0.950 . S
H1201 C1225 0.951 . S
H1202 C1227 0.951 . S
H1203 C1229 0.950 . S
H1204 C1230 0.950 . S
H1205 C1232 0.950 . S
H1206 C1235 0.950 . S
H1207 C1236 0.950 . S
H1208 C1238 0.950 . S
H1209 C1239 0.950 . S
C1210 H1192 0.951 . S
C1210 C1211 1.366 . S
C1210 C1212 1.388 . S
C1211 C1210 1.366 . S
C1211 C1215 1.385 . S
C1212 H1193 0.951 . S
C1212 C1210 1.388 . S
C1212 C1213 1.366 . S
C1213 C1212 1.366 . S
C1213 C1214 1.414 . S
C1213 C1216 1.499 . S
C1214 H1194 0.950 . S
C1214 C1213 1.414 . S
C1214 C1215 1.374 . S
C1215 H1195 0.950 . S
C1215 C1211 1.385 . S
C1215 C1214 1.374 . S
C1216 C1213 1.499 . S
C1216 C1217 1.373 . S
C1216 C1218 1.389 . S
C1217 H1196 0.950 . S
C1217 C1216 1.373 . S
C1217 C1233 1.377 . S
C1218 C1216 1.389 . S
C1218 C1219 1.524 . S
C1218 C1232 1.377 . S
C1219 C1218 1.524 . S
C1219 C1220 1.397 . S
C1219 C1224 1.363 . S
C1220 H1197 0.950 . S
C1220 C1219 1.397 . S
C1220 C1221 1.334 . S
C1221 H1198 0.950 . S
C1221 C1220 1.334 . S
C1221 C1222 1.287 . S
C1222 C1221 1.287 . S
C1222 C1223 1.524 . S
C1222 H1241 0.913 . S
C1223 H1199 0.950 . S
C1223 C1222 1.524 . S
C1223 C1224 1.415 . S
C1224 H1200 0.950 . S
C1224 C1219 1.363 . S
C1224 C1223 1.415 . S
C1225 H1201 0.951 . S
C1225 C1226 1.366 . S
C1225 C1227 1.388 . S
C1226 C1225 1.366 . S
C1226 C1230 1.385 . S
C1227 H1202 0.951 . S
C1227 C1225 1.388 . S
C1227 C1228 1.366 . S
C1228 C1227 1.366 . S
C1228 C1229 1.414 . S
C1228 C1231 1.499 . S
C1229 H1203 0.950 . S
C1229 C1228 1.414 . S
C1229 C1230 1.374 . S
C1230 H1204 0.950 . S
C1230 C1226 1.385 . S
C1230 C1229 1.374 . S
C1231 C1228 1.499 . S
C1231 C1232 1.373 . S
C1231 C1233 1.389 . S
C1232 H1205 0.950 . S
C1232 C1218 1.377 . S
C1232 C1231 1.373 . S
C1233 C1217 1.377 . S
C1233 C1231 1.389 . S
C1233 C1234 1.524 . S
C1234 C1233 1.524 . S
C1234 C1235 1.397 . S
C1234 C1239 1.363 . S
C1235 H1206 0.950 . S
C1235 C1234 1.397 . S
C1235 C1236 1.334 . S
C1236 H1207 0.950 . S
C1236 C1235 1.334 . S
C1236 C1237 1.287 . S
C1237 C1236 1.287 . S
C1237 C1238 1.524 . S
C1237 H1240 0.999 . S
C1238 H1208 0.950 . S
C1238 C1237 1.524 . S
C1238 C1239 1.415 . S
C1239 H1209 0.950 . S
C1239 C1234 1.363 . S
C1239 C1238 1.415 . S
H1240 C1237 0.999 . S
H1241 C1222 0.913 . S
H1242 C1260 0.951 . S
H1243 C1262 0.951 . S
H1244 C1264 0.950 . S
H1245 C1265 0.950 . S
H1246 C1267 0.950 . S
H1247 C1270 0.950 . S
H1248 C1271 0.950 . S
H1249 C1273 0.950 . S
H1250 C1274 0.950 . S
H1251 C1275 0.951 . S
H1252 C1277 0.951 . S
H1253 C1279 0.950 . S
H1254 C1280 0.950 . S
H1255 C1282 0.950 . S
H1256 C1285 0.950 . S
H1257 C1286 0.950 . S
H1258 C1288 0.950 . S
H1259 C1289 0.950 . S
C1260 H1242 0.951 . S
C1260 C1261 1.366 . S
C1260 C1262 1.388 . S
C1261 C1260 1.366 . S
C1261 C1265 1.385 . S
C1262 H1243 0.951 . S
C1262 C1260 1.388 . S
C1262 C1263 1.366 . S
C1263 C1262 1.366 . S
C1263 C1264 1.414 . S
C1263 C1266 1.499 . S
C1264 H1244 0.950 . S
C1264 C1263 1.414 . S
C1264 C1265 1.374 . S
C1265 H1245 0.950 . S
C1265 C1261 1.385 . S
C1265 C1264 1.374 . S
C1266 C1263 1.499 . S
C1266 C1267 1.373 . S
C1266 C1268 1.389 . S
C1267 H1246 0.950 . S
C1267 C1266 1.373 . S
C1267 C1283 1.377 . S
C1268 C1266 1.389 . S
C1268 C1269 1.524 . S
C1268 C1282 1.377 . S
C1269 C1268 1.524 . S
C1269 C1270 1.397 . S
C1269 C1274 1.363 . S
C1270 H1247 0.950 . S
C1270 C1269 1.397 . S
C1270 C1271 1.334 . S
C1271 H1248 0.950 . S
C1271 C1270 1.334 . S
C1271 C1272 1.287 . S
C1272 C1271 1.287 . S
C1272 C1273 1.524 . S
C1272 H1291 0.913 . S
C1273 H1249 0.950 . S
C1273 C1272 1.524 . S
C1273 C1274 1.415 . S
C1274 H1250 0.950 . S
C1274 C1269 1.363 . S
C1274 C1273 1.415 . S
C1275 H1251 0.951 . S
C1275 C1276 1.366 . S
C1275 C1277 1.388 . S
C1276 C1275 1.366 . S
C1276 C1280 1.385 . S
C1277 H1252 0.951 . S
C1277 C1275 1.388 . S
C1277 C1278 1.366 . S
C1278 C1277 1.366 . S
C1278 C1279 1.414 . S
C1278 C1281 1.499 . S
C1279 H1253 0.950 . S
C1279 C1278 1.414 . S
C1279 C1280 1.374 . S
C1280 H1254 0.950 . S
C1280 C1276 1.385 . S
C1280 C1279 1.374 . S
C1281 C1278 1.499 . S
C1281 C1282 1.373 . S
C1281 C1283 1.389 . S
C1282 H1255 0.950 . S
C1282 C1268 1.377 . S
C1282 C1281 1.373 . S
C1283 C1267 1.377 . S
C1283 C1281 1.389 . S
C1283 C1284 1.524 . S
C1284 C1283 1.524 . S
C1284 C1285 1.397 . S
C1284 C1289 1.363 . S
C1285 H1256 0.950 . S
C1285 C1284 1.397 . S
C1285 C1286 1.334 . S
C1286 H1257 0.950 . S
C1286 C1285 1.334 . S
C1286 C1287 1.287 . S
C1287 C1286 1.287 . S
C1287 C1288 1.524 . S
C1287 H1290 0.999 . S
C1288 H1258 0.950 . S
C1288 C1287 1.524 . S
C1288 C1289 1.415 . S
C1289 H1259 0.950 . S
C1289 C1284 1.363 . S
C1289 C1288 1.415 . S
H1290 C1287 0.999 . S
H1291 C1272 0.913 . S
H1292 C1310 0.951 . S
H1293 C1312 0.951 . S
H1294 C1314 0.950 . S
H1295 C1315 0.950 . S
H1296 C1317 0.950 . S
H1297 C1320 0.950 . S
H1298 C1321 0.950 . S
H1299 C1323 0.950 . S
H1300 C1324 0.950 . S
H1301 C1325 0.951 . S
H1302 C1327 0.951 . S
H1303 C1329 0.950 . S
H1304 C1330 0.950 . S
H1305 C1332 0.950 . S
H1306 C1335 0.950 . S
H1307 C1336 0.950 . S
H1308 C1338 0.950 . S
H1309 C1339 0.950 . S
C1310 H1292 0.951 . S
C1310 C1311 1.366 . S
C1310 C1312 1.388 . S
C1311 C1310 1.366 . S
C1311 C1315 1.385 . S
C1312 H1293 0.951 . S
C1312 C1310 1.388 . S
C1312 C1313 1.366 . S
C1313 C1312 1.366 . S
C1313 C1314 1.414 . S
C1313 C1316 1.499 . S
C1314 H1294 0.950 . S
C1314 C1313 1.414 . S
C1314 C1315 1.374 . S
C1315 H1295 0.950 . S
C1315 C1311 1.385 . S
C1315 C1314 1.374 . S
C1316 C1313 1.499 . S
C1316 C1317 1.373 . S
C1316 C1318 1.389 . S
C1317 H1296 0.950 . S
C1317 C1316 1.373 . S
C1317 C1333 1.377 . S
C1318 C1316 1.389 . S
C1318 C1319 1.524 . S
C1318 C1332 1.377 . S
C1319 C1318 1.524 . S
C1319 C1320 1.397 . S
C1319 C1324 1.363 . S
C1320 H1297 0.950 . S
C1320 C1319 1.397 . S
C1320 C1321 1.334 . S
C1321 H1298 0.950 . S
C1321 C1320 1.334 . S
C1321 C1322 1.287 . S
C1322 C1321 1.287 . S
C1322 C1323 1.524 . S
C1322 H1341 0.913 . S
C1323 H1299 0.950 . S
C1323 C1322 1.524 . S
C1323 C1324 1.415 . S
C1324 H1300 0.950 . S
C1324 C1319 1.363 . S
C1324 C1323 1.415 . S
C1325 H1301 0.951 . S
C1325 C1326 1.366 . S
C1325 C1327 1.388 . S
C1326 C1325 1.366 . S
C1326 C1330 1.385 . S
C1327 H1302 0.951 . S
C1327 C1325 1.388 . S
C1327 C1328 1.366 . S
C1328 C1327 1.366 . S
C1328 C1329 1.414 . S
C1328 C1331 1.499 . S
C1329 H1303 0.950 . S
C1329 C1328 1.414 . S
C1329 C1330 1.374 . S
C1330 H1304 0.950 . S
C1330 C1326 1.385 . S
C1330 C1329 1.374 . S
C1331 C1328 1.499 . S
C1331 C1332 1.373 . S
C1331 C1333 1.389 . S
C1332 H1305 0.950 . S
C1332 C1318 1.377 . S
C1332 C1331 1.373 . S
C1333 C1317 1.377 . S
C1333 C1331 1.389 . S
C1333 C1334 1.524 . S
C1334 C1333 1.524 . S
C1334 C1335 1.397 . S
C1334 C1339 1.363 . S
C1335 H1306 0.950 . S
C1335 C1334 1.397 . S
C1335 C1336 1.334 . S
C1336 H1307 0.950 . S
C1336 C1335 1.334 . S
C1336 C1337 1.287 . S
C1337 C1336 1.287 . S
C1337 C1338 1.524 . S
C1337 H1340 0.999 . S
C1338 H1308 0.950 . S
C1338 C1337 1.524 . S
C1338 C1339 1.415 . S
C1339 H1309 0.950 . S
C1339 C1334 1.363 . S
C1339 C1338 1.415 . S
H1340 C1337 0.999 . S
H1341 C1322 0.913 . S
H1342 C1360 0.951 . S
H1343 C1362 0.951 . S
H1344 C1364 0.950 . S
H1345 C1365 0.950 . S
H1346 C1367 0.950 . S
H1347 C1370 0.950 . S
H1348 C1371 0.950 . S
H1349 C1373 0.950 . S
H1350 C1374 0.950 . S
H1351 C1375 0.951 . S
H1352 C1377 0.951 . S
H1353 C1379 0.950 . S
H1354 C1380 0.950 . S
H1355 C1382 0.950 . S
H1356 C1385 0.950 . S
H1357 C1386 0.950 . S
H1358 C1388 0.950 . S
H1359 C1389 0.950 . S
C1360 H1342 0.951 . S
C1360 C1361 1.366 . S
C1360 C1362 1.388 . S
C1361 C1360 1.366 . S
C1361 C1365 1.385 . S
C1362 H1343 0.951 . S
C1362 C1360 1.388 . S
C1362 C1363 1.366 . S
C1363 C1362 1.366 . S
C1363 C1364 1.414 . S
C1363 C1366 1.499 . S
C1364 H1344 0.950 . S
C1364 C1363 1.414 . S
C1364 C1365 1.374 . S
C1365 H1345 0.950 . S
C1365 C1361 1.385 . S
C1365 C1364 1.374 . S
C1366 C1363 1.499 . S
C1366 C1367 1.373 . S
C1366 C1368 1.389 . S
C1367 H1346 0.950 . S
C1367 C1366 1.373 . S
C1367 C1383 1.377 . S
C1368 C1366 1.389 . S
C1368 C1369 1.524 . S
C1368 C1382 1.377 . S
C1369 C1368 1.524 . S
C1369 C1370 1.397 . S
C1369 C1374 1.363 . S
C1370 H1347 0.950 . S
C1370 C1369 1.397 . S
C1370 C1371 1.334 . S
C1371 H1348 0.950 . S
C1371 C1370 1.334 . S
C1371 C1372 1.287 . S
C1372 C1371 1.287 . S
C1372 C1373 1.524 . S
C1372 H1391 0.913 . S
C1373 H1349 0.950 . S
C1373 C1372 1.524 . S
C1373 C1374 1.415 . S
C1374 H1350 0.950 . S
C1374 C1369 1.363 . S
C1374 C1373 1.415 . S
C1375 H1351 0.951 . S
C1375 C1376 1.366 . S
C1375 C1377 1.388 . S
C1376 C1375 1.366 . S
C1376 C1380 1.385 . S
C1377 H1352 0.951 . S
C1377 C1375 1.388 . S
C1377 C1378 1.366 . S
C1378 C1377 1.366 . S
C1378 C1379 1.414 . S
C1378 C1381 1.499 . S
C1379 H1353 0.950 . S
C1379 C1378 1.414 . S
C1379 C1380 1.374 . S
C1380 H1354 0.950 . S
C1380 C1376 1.385 . S
C1380 C1379 1.374 . S
C1381 C1378 1.499 . S
C1381 C1382 1.373 . S
C1381 C1383 1.389 . S
C1382 H1355 0.950 . S
C1382 C1368 1.377 . S
C1382 C1381 1.373 . S
C1383 C1367 1.377 . S
C1383 C1381 1.389 . S
C1383 C1384 1.524 . S
C1384 C1383 1.524 . S
C1384 C1385 1.397 . S
C1384 C1389 1.363 . S
C1385 H1356 0.950 . S
C1385 C1384 1.397 . S
C1385 C1386 1.334 . S
C1386 H1357 0.950 . S
C1386 C1385 1.334 . S
C1386 C1387 1.287 . S
C1387 C1386 1.287 . S
C1387 C1388 1.524 . S
C1387 H1390 0.999 . S
C1388 H1358 0.950 . S
C1388 C1387 1.524 . S
C1388 C1389 1.415 . S
C1389 H1359 0.950 . S
C1389 C1384 1.363 . S
C1389 C1388 1.415 . S
H1390 C1387 0.999 . S
H1391 C1372 0.913 . S
C211 N2 1.545 1_556 S
C226 C130 1.522 . S
C276 C108 1.523 . S
C261 N15 1.545 . S
C326 C134 1.523 . S
C311 N28 1.547 . S
C376 C112 1.522 . S
C361 N41 1.536 . S
C426 C174 1.523 . S
C411 N54 1.545 1_556 S
C476 C152 1.523 . S
C461 N67 1.544 . S
C511 N80 1.546 . S
C526 C178 1.523 . S
C576 C156 1.523 . S
C561 N93 1.537 . S
C611 N5 1.503 1_556 S
C626 C179 1.488 . S
C676 C157 1.488 . S
C661 N18 1.503 . S
C711 N31 1.501 1_556 S
C726 C176 1.488 . S
C761 N44 1.501 . S
C776 C154 1.488 . S
C826 C135 1.488 . S
C811 N57 1.504 1_556 S
C861 N70 1.503 . S
C876 C113 1.487 . S
C926 C132 1.488 . S
C911 N83 1.500 1_556 S
C976 C110 1.488 . S
C961 N96 1.502 . S
C1026 C153 1.486 . S
C1011 N1 1.503 . S
C1076 C175 1.485 . S
C1061 N14 1.503 . S
C1111 N27 1.491 . S
C1126 C155 1.486 . S
C1176 C177 1.486 . S
C1161 N40 1.491 . S
C1226 C109 1.486 . S
C1211 N53 1.504 . S
C1261 N66 1.503 . S
C1276 C131 1.484 . S
C1311 N79 1.491 . S
C1326 C111 1.485 . S
C1361 N92 1.491 . S
C1376 C133 1.487 . S
