# Generated by pormake.
# Topology zzz, (3,6)-cn, num edge types: 1
# Building blocks:
#     Node 0, Type 0, BuildingBlock: MIDCAF_clean_linker_0, # of connection points: 3
#     Node 1, Type 0, BuildingBlock: MIDCAF_clean_linker_0, # of connection points: 3
#     Node 2, Type 0, BuildingBlock: MIDCAF_clean_linker_0, # of connection points: 3
#     Node 3, Type 0, BuildingBlock: MIDCAF_clean_linker_0, # of connection points: 3
#     Node 4, Type 0, BuildingBlock: MIDCAF_clean_linker_0, # of connection points: 3
#     Node 5, Type 0, BuildingBlock: MIDCAF_clean_linker_0, # of connection points: 3
#     Node 6, Type 0, BuildingBlock: MIDCAF_clean_linker_0, # of connection points: 3
#     Node 7, Type 0, BuildingBlock: MIDCAF_clean_linker_0, # of connection points: 3
#     Node 8, Type 1, BuildingBlock: NUHQIS_clean_sbu_0, # of connection points: 6
#     Node 9, Type 1, BuildingBlock: NUHQIS_clean_sbu_0, # of connection points: 6
#     Node 10, Type 1, BuildingBlock: NUHQIS_clean_sbu_0, # of connection points: 6
#     Node 11, Type 1, BuildingBlock: NUHQIS_clean_sbu_0, # of connection points: 6
#     Edge 12, Type (0, 1), BuildingBlock: XUDNAN_clean_linker_2, # of connection points: 2
#     Edge 13, Type (0, 1), BuildingBlock: XUDNAN_clean_linker_2, # of connection points: 2
#     Edge 14, Type (0, 1), BuildingBlock: XUDNAN_clean_linker_2, # of connection points: 2
#     Edge 15, Type (0, 1), BuildingBlock: XUDNAN_clean_linker_2, # of connection points: 2
#     Edge 16, Type (0, 1), BuildingBlock: XUDNAN_clean_linker_2, # of connection points: 2
#     Edge 17, Type (0, 1), BuildingBlock: XUDNAN_clean_linker_2, # of connection points: 2
#     Edge 18, Type (0, 1), BuildingBlock: XUDNAN_clean_linker_2, # of connection points: 2
#     Edge 19, Type (0, 1), BuildingBlock: XUDNAN_clean_linker_2, # of connection points: 2
#     Edge 20, Type (0, 1), BuildingBlock: XUDNAN_clean_linker_2, # of connection points: 2
#     Edge 21, Type (0, 1), BuildingBlock: XUDNAN_clean_linker_2, # of connection points: 2
#     Edge 22, Type (0, 1), BuildingBlock: XUDNAN_clean_linker_2, # of connection points: 2
#     Edge 23, Type (0, 1), BuildingBlock: XUDNAN_clean_linker_2, # of connection points: 2
#     Edge 24, Type (0, 1), BuildingBlock: XUDNAN_clean_linker_2, # of connection points: 2
#     Edge 25, Type (0, 1), BuildingBlock: XUDNAN_clean_linker_2, # of connection points: 2
#     Edge 26, Type (0, 1), BuildingBlock: XUDNAN_clean_linker_2, # of connection points: 2
#     Edge 27, Type (0, 1), BuildingBlock: XUDNAN_clean_linker_2, # of connection points: 2
#     Edge 28, Type (0, 1), BuildingBlock: XUDNAN_clean_linker_2, # of connection points: 2
#     Edge 29, Type (0, 1), BuildingBlock: XUDNAN_clean_linker_2, # of connection points: 2
#     Edge 30, Type (0, 1), BuildingBlock: XUDNAN_clean_linker_2, # of connection points: 2
#     Edge 31, Type (0, 1), BuildingBlock: XUDNAN_clean_linker_2, # of connection points: 2
#     Edge 32, Type (0, 1), BuildingBlock: XUDNAN_clean_linker_2, # of connection points: 2
#     Edge 33, Type (0, 1), BuildingBlock: XUDNAN_clean_linker_2, # of connection points: 2
#     Edge 34, Type (0, 1), BuildingBlock: XUDNAN_clean_linker_2, # of connection points: 2
#     Edge 35, Type (0, 1), BuildingBlock: XUDNAN_clean_linker_2, # of connection points: 2
# Relax obj value: 0.424
# Max RMSD: 0.256
# Mean RMSD: 0.233
data_MOF--net-zzz--node1-NUHQIS_clean_sbu_0--node2-MIDCAF_clean_linker_0--edge1-XUDNAN_clean_linker_2
_symmetry_space_group_name_H-M    P1
_symmetry_Int_Tables_number       1
_symmetry_cell_setting            triclinic
loop_
_symmetry_equiv_pos_as_xyz
'x, y, z'
_cell_length_a     59.238363
_cell_length_b     59.284844
_cell_length_c     19.034882
_cell_angle_alpha  89.793017
_cell_angle_beta   89.953816
_cell_angle_gamma 89.989167
loop_
_atom_site_label
_atom_site_type_symbol
_atom_site_fract_x
_atom_site_fract_y
_atom_site_fract_z
_atom_type_partial_charge
C0 C 0.82009 0.50479 0.33536 0.0
C1 C 0.81504 0.50605 0.40739 0.0
C2 C 0.79204 0.50613 0.42744 0.0
C3 C 0.77476 0.50388 0.37701 0.0
H4 H 0.70503 0.53228 0.20764 0.0
H5 H 0.66669 0.53977 0.16432 0.0
H6 H 0.65373 0.46812 0.15839 0.0
H7 H 0.69193 0.46084 0.19995 0.0
H8 H 0.73643 0.43955 0.07639 0.0
H9 H 0.75326 0.41706 0.98123 0.0
H10 H 0.81246 0.45951 0.98607 0.0
H11 H 0.79612 0.48136 0.08126 0.0
H12 H 0.80788 0.501 0.23087 0.0
H13 H 0.8374 0.50432 0.31712 0.0
H14 H 0.78736 0.50745 0.48226 0.0
H15 H 0.75737 0.50297 0.39437 0.0
N16 N 0.74043 0.49903 0.25784 0.0
N17 N 0.73391 0.47861 0.1535 0.0
N18 N 0.77059 0.48264 0.19588 0.0
C19 C 0.72584 0.49097 0.20795 0.0
C20 C 0.75624 0.47459 0.14688 0.0
C21 C 0.76307 0.49459 0.25189 0.0
C22 C 0.70137 0.49599 0.20758 0.0
C23 C 0.69359 0.51825 0.19996 0.0
C24 C 0.67169 0.52249 0.17452 0.0
C25 C 0.65728 0.50451 0.15622 0.0
C26 C 0.66452 0.48236 0.17023 0.0
C27 C 0.6863 0.47817 0.19512 0.0
C28 C 0.76511 0.46203 0.08628 0.0
C29 C 0.75291 0.44414 0.05625 0.0
C30 C 0.76245 0.43135 1.00204 0.0
C31 C 0.78394 0.43681 0.97597 0.0
C32 C 0.79567 0.45521 1.00445 0.0
C33 C 0.78644 0.46757 0.05939 0.0
C34 C 0.78012 0.50143 0.30548 0.0
C35 C 0.80299 0.50264 0.28548 0.0
C36 C 1.00377 0.79063 0.40276 0.0
C37 C 0.01966 0.79661 0.45463 0.0
C38 C 0.03981 0.78409 0.45881 0.0
C39 C 0.04448 0.76698 0.41053 0.0
H40 H 0.99379 0.69913 0.22818 0.0
H41 H 0.98005 0.6646 0.17128 0.0
H42 H 0.04795 0.64937 0.10349 0.0
H43 H 0.06149 0.68327 0.16042 0.0
H44 H 0.07451 0.73614 0.06689 0.0
H45 H 0.09776 0.75878 0.98751 0.0
H46 H 0.1139 0.80379 0.15803 0.0
H47 H 0.09075 0.78132 0.23735 0.0
H48 H 0.99648 0.76983 0.31289 0.0
H49 H 0.98801 0.79978 0.39818 0.0
H50 H 0.05264 0.78834 0.49702 0.0
H51 H 0.06079 0.7587 0.41254 0.0
N52 N 0.02813 0.72802 0.27738 0.0
N53 N 0.05443 0.72591 0.18468 0.0
N54 N 0.05462 0.7571 0.25904 0.0
C55 C 0.03715 0.71654 0.2216 0.0
C56 C 0.06319 0.74615 0.20278 0.0
C57 C 0.03719 0.74835 0.29646 0.0
C58 C 0.02869 0.6941 0.19837 0.0
C59 C 1.00578 0.68809 0.20249 0.0
C60 C 0.99792 0.6684 0.16932 0.0
C61 C 0.01286 0.65418 0.13221 0.0
C62 C 0.03592 0.65965 0.13191 0.0
C63 C 0.04367 0.6793 0.16423 0.0
C64 C 0.08047 0.75716 0.15819 0.0
C65 C 0.08347 0.75053 0.08792 0.0
C66 C 0.09676 0.76347 0.04238 0.0
C67 C 0.10754 0.78306 0.06654 0.0
C68 C 0.10598 0.78865 0.13804 0.0
C69 C 0.0925 0.77589 0.18334 0.0
C70 C 0.02905 0.76158 0.35728 0.0
C71 C 0.0084 0.77322 0.35466 0.0
C72 C 0.6941 0.99276 0.3648 0.0
C73 C 0.69855 0.99146 0.43721 0.0
C74 C 0.72132 0.99152 0.4593 0.0
C75 C 0.73899 0.99449 0.41064 0.0
H76 H 0.82621 0.03144 0.25933 0.0
H77 H 0.86286 0.02295 0.20712 0.0
H78 H 0.8351 0.96277 0.11384 0.0
H79 H 0.79825 0.97132 0.16744 0.0
H80 H 0.78025 0.06083 0.10475 0.0
H81 H 0.76341 0.08887 0.02639 0.0
H82 H 0.70195 0.0865 0.14927 0.0
H83 H 0.7189 0.05975 0.22798 0.0
H84 H 0.70744 0.99857 0.26175 0.0
H85 H 0.67689 0.99299 0.3456 0.0
H86 H 0.72542 0.9903 0.51462 0.0
H87 H 0.75615 0.99606 0.42965 0.0
N88 N 0.77225 0.99941 0.28027 0.0
N89 N 0.77989 0.02939 0.20171 0.0
N90 N 0.74469 0.02691 0.25617 0.0
C91 C 0.7867 0.01029 0.23518 0.0
C92 C 0.75891 0.03783 0.21203 0.0
C93 C 0.75103 0.00793 0.29073 0.0
C94 C 0.80958 1.00175 0.21884 0.0
C95 C 0.82818 0.01596 0.22981 0.0
C96 C 0.84915 0.01114 0.19949 0.0
C97 C 0.85196 0.9922 0.156 0.0
C98 C 0.83348 0.97754 0.14677 0.0
C99 C 0.8125 0.98221 0.17831 0.0
C100 C 0.75073 0.0576 0.17169 0.0
C101 C 0.76335 0.06682 0.1159 0.0
C102 C 0.75368 0.08286 0.07085 0.0
C103 C 0.7312 0.0899 0.08065 0.0
C104 C 0.71939 0.08195 0.13998 0.0
C105 C 0.72905 0.06616 0.18496 0.0
C106 C 0.73422 0.99764 0.33906 0.0
C107 C 0.71166 0.99596 0.31657 0.0
C108 C 0.42341 0.73558 0.09583 0.0
C109 C 0.41412 0.71576 0.12459 0.0
C110 C 0.41964 0.70973 0.19394 0.0
C111 C 0.43568 0.72199 0.23125 0.0
H112 H 0.46813 0.81331 0.19279 0.0
H113 H 0.47991 0.84747 0.13305 0.0
H114 H 0.54973 0.8304 0.17034 0.0
H115 H 0.5378 0.79574 0.23151 0.0
H116 H 0.50874 0.75168 0.44579 0.0
H117 H 0.51605 0.72145 0.53126 0.0
H118 H 0.51978 0.67333 0.36164 0.0
H119 H 0.51296 0.70348 0.27751 0.0
H120 H 0.44728 0.76239 0.1084 0.0
H121 H 0.41933 0.74069 0.04264 0.0
H122 H 0.413 0.69446 0.21752 0.0
H123 H 0.44054 0.71607 0.283 0.0
N124 N 0.47453 0.77092 0.21491 0.0
N125 N 0.50631 0.76621 0.28811 0.0
N126 N 0.47881 0.73771 0.27938 0.0
C127 C 0.49414 0.77914 0.2418 0.0
C128 C 0.49843 0.74535 0.30691 0.0
C129 C 0.4667 0.75035 0.23377 0.0
C130 C 0.50203 0.80155 0.21623 0.0
C131 C 0.48604 0.8168 0.18897 0.0
C132 C 0.49279 0.8364 0.1542 0.0
C133 C 0.51577 0.84144 0.14529 0.0
C134 C 0.53188 0.82695 0.17608 0.0
C135 C 0.52506 0.80715 0.2113 0.0
C136 C 0.51053 0.72993 0.3551 0.0
C137 C 0.51222 0.73482 0.42696 0.0
C138 C 0.51602 0.71738 0.47585 0.0
C139 C 0.51816 0.69477 0.45367 0.0
C140 C 0.51843 0.69042 0.3811 0.0
C141 C 0.51457 0.70775 0.3326 0.0
C142 C 0.44646 0.74062 0.20022 0.0
C143 C 0.43938 0.748 0.13352 0.0
C144 C 0.19567 0.53109 0.01709 0.0
C145 C 0.196 0.50985 0.98459 0.0
C146 C 0.2148 0.4957 0.9971 0.0
C147 C 0.23218 0.50226 0.0432 0.0
H148 H 0.32131 0.52988 0.14101 0.0
H149 H 0.35792 0.51974 0.19089 0.0
H150 H 0.3242 0.48237 0.35587 0.0
H151 H 0.28772 0.49354 0.30704 0.0
H152 H 0.26773 0.55899 0.37005 0.0
H153 H 0.24905 0.58293 0.45675 0.0
H154 H 0.20515 0.60908 0.29464 0.0
H155 H 0.22378 0.58548 0.20844 0.0
H156 H 0.21152 0.55396 0.0875 0.0
H157 H 0.18153 0.54243 0.01009 0.0
H158 H 0.21594 0.47935 0.97221 0.0
H159 H 0.24593 0.49067 0.05338 0.0
N160 N 0.26708 0.51788 0.14697 0.0
N161 N 0.27403 0.54083 0.24568 0.0
N162 N 0.24178 0.54673 0.17777 0.0
C163 C 0.28043 0.52377 0.20269 0.0
C164 C 0.25482 0.55252 0.23319 0.0
C165 C 0.2475 0.52952 0.13441 0.0
C166 C 0.30177 0.51207 0.21934 0.0
C167 C 0.32185 0.51882 0.18643 0.0
C168 C 0.34285 0.51306 0.21549 0.0
C169 C 0.34423 0.50038 0.27826 0.0
C170 C 0.32396 0.49253 0.30853 0.0
C171 C 0.30301 0.49853 0.27984 0.0
C172 C 0.2469 0.57001 0.28266 0.0
C173 C 0.25451 0.57033 0.35262 0.0
C174 C 0.24383 0.58402 0.40231 0.0
C175 C 0.22555 0.59778 0.38268 0.0
C176 C 0.21933 0.59887 0.31151 0.0
C177 C 0.22983 0.58509 0.26212 0.0
C178 C 0.23119 0.52314 0.0779 0.0
C179 C 0.21295 0.53763 0.06255 0.0
C180 C 0.01154 0.18189 0.04099 0.0
C181 C 0.0112 0.18665 0.96858 0.0
C182 C 0.00908 0.20942 0.94727 0.0
C183 C 1.0059 0.22668 0.99701 0.0
H184 H 0.9854 0.31119 0.11956 0.0
H185 H 0.98856 0.3487 0.17242 0.0
H186 H 0.0226 0.31957 0.35148 0.0
H187 H 0.01929 0.28216 0.29837 0.0
H188 H 0.95321 0.25437 0.3405 0.0
H189 H 0.92576 0.23412 0.41345 0.0
H190 H 0.91016 0.19072 0.23814 0.0
H191 H 0.93715 0.21087 0.16588 0.0
H192 H 1.00705 0.19445 0.14532 0.0
H193 H 0.01284 0.16468 0.05982 0.0
H194 H 0.009 0.21379 0.892 0.0
H195 H 1.00285 0.24376 0.97898 0.0
N196 N 1.0034 0.25836 0.13364 0.0
N197 N 0.97581 0.26343 0.22193 0.0
N198 N 0.9766 0.23006 0.1573 0.0
C199 C 0.99386 0.27133 0.18525 0.0
C200 C 0.96691 0.24294 0.20747 0.0
C201 C 0.99473 0.23739 0.12033 0.0
C202 C 1.00251 0.29388 0.20423 0.0
C203 C 0.99446 0.31301 0.16864 0.0
C204 C 0.99602 0.33442 0.19946 0.0
C205 C 1.00565 0.33714 0.26659 0.0
C206 C 0.01528 0.31817 0.29955 0.0
C207 C 0.0135 0.29674 0.269 0.0
C208 C 0.94765 0.23387 0.24799 0.0
C209 C 0.94343 0.24089 0.31721 0.0
C210 C 0.92774 0.22932 0.35894 0.0
C211 C 0.91586 0.21076 0.33173 0.0
C212 C 0.91878 0.20509 0.26069 0.0
C213 C 0.93453 0.21646 0.21942 0.0
C214 C 1.00465 0.22146 0.0689 0.0
C215 C 0.0082 0.19901 0.09024 0.0
C216 C 0.29681 0.99371 0.01031 0.0
C217 C 0.3095 0.00854 0.96761 0.0
C218 C 0.30046 0.02995 0.95287 0.0
C219 C 0.28062 0.03721 0.98608 0.0
H220 H 0.1875 0.01498 0.1055 0.0
H221 H 0.15105 1.0055 0.1604 0.0
H222 H 0.17883 0.0212 0.36418 0.0
H223 H 0.21474 0.03028 0.31002 0.0
H224 H 0.25111 0.06546 0.32266 0.0
H225 H 0.28226 0.07664 0.39669 0.0
H226 H 0.31809 0.10184 0.2148 0.0
H227 H 0.28713 0.08964 0.13991 0.0
H228 H 0.26858 0.98982 0.08043 0.0
H229 H 0.30316 0.97699 0.02217 0.0
H230 H 0.30974 0.04187 0.9207 0.0
H231 H 0.27533 0.05456 0.97891 0.0
N232 N 0.23526 0.02411 0.11375 0.0
N233 N 0.23464 0.05087 0.20502 0.0
N234 N 0.26362 0.05176 0.12223 0.0
C235 C 0.2249 0.03313 0.1717 0.0
C236 C 0.25386 0.06038 0.18046 0.0
C237 C 0.25469 0.03376 0.0885 0.0
C238 C 0.20399 0.02349 0.20324 0.0
C239 C 0.18587 0.01585 0.1621 0.0
C240 C 0.16495 0.01066 0.19359 0.0
C241 C 0.16188 0.01268 0.2669 0.0
C242 C 0.18047 0.01917 0.30789 0.0
C243 C 0.20112 0.02455 0.27658 0.0
C244 C 0.26714 0.07578 0.22516 0.0
C245 C 0.26517 0.07426 0.29858 0.0
C246 C 0.28311 0.08084 0.34135 0.0
C247 C 0.30312 0.08927 0.31126 0.0
C248 C 0.30322 0.09462 0.23921 0.0
C249 C 0.28544 0.08769 0.19629 0.0
C250 C 0.26913 0.02316 0.03401 0.0
C251 C 0.27677 1.00091 0.04291 0.0
C252 C 0.59744 0.28956 0.31552 0.0
C253 C 0.5987 0.28289 0.3863 0.0
C254 C 0.58604 0.26419 0.40904 0.0
C255 C 0.57119 0.2534 0.36299 0.0
H256 H 0.54254 0.18743 0.24932 0.0
H257 H 0.52822 0.15458 0.31176 0.0
H258 H 0.46168 0.18436 0.3157 0.0
H259 H 0.47629 0.21755 0.25269 0.0
H260 H 0.50171 0.25465 0.03575 0.0
H261 H 0.49304 0.28359 0.94666 0.0
H262 H 0.513 0.33553 0.09256 0.0
H263 H 0.52126 0.30702 0.18029 0.0
H264 H 0.58084 0.28543 0.21673 0.0
H265 H 0.60677 0.30408 0.29665 0.0
H266 H 0.58672 0.25874 0.46338 0.0
H267 H 0.56073 0.23984 0.383 0.0
N268 N 0.53974 0.23327 0.26218 0.0
N269 N 0.51161 0.24126 0.17802 0.0
N270 N 0.54031 0.26757 0.20184 0.0
C271 C 0.52096 0.22689 0.22644 0.0
C272 C 0.52152 0.26174 0.16546 0.0
C273 C 0.54954 0.25352 0.25002 0.0
C274 C 0.51053 0.20505 0.24611 0.0
C275 C 0.52468 0.18665 0.26149 0.0
C276 C 0.51643 0.16775 0.29724 0.0
C277 C 0.49382 0.16685 0.31946 0.0
C278 C 0.47925 0.18462 0.29993 0.0
C279 C 0.48751 0.20351 0.26312 0.0
C280 C 0.51226 0.27852 0.11491 0.0
C281 C 0.50366 0.27229 0.04899 0.0
C282 C 0.49894 0.28887 0.99785 0.0
C283 C 0.5024 0.31197 0.01217 0.0
C284 C 0.50984 0.31804 0.07955 0.0
C285 C 0.51475 0.3016 0.12991 0.0
C286 C 0.56849 0.26142 0.2939 0.0
C287 C 0.58239 0.27903 0.2699 0.0
Tb288 Tb 0.02673 0.98905 0.7549 0.0
Eu289 Eu 0.98277 0.99612 0.65321 0.0
C290 C 0.03297 0.99952 0.59409 0.0
C291 C 1.00587 0.03829 0.73595 0.0
C292 C 0.07756 0.96292 0.82988 0.0
C293 C 0.09132 0.92785 0.78031 0.0
C294 C 0.07794 0.94719 0.775 0.0
C295 C 0.09154 0.95977 0.88829 0.0
C296 C 0.10489 0.94043 0.89375 0.0
C297 C 0.10438 0.92391 0.84082 0.0
C298 C 0.0609 0.98117 0.82995 0.0
O299 O 0.99811 0.99581 0.82388 0.0
O300 O 0.97108 0.98015 0.75482 0.0
O301 O 0.99493 0.96105 0.62825 0.0
O302 O 0.0153 0.95486 0.72918 0.0
C303 C 0.97792 0.98701 0.81662 0.0
O304 O 0.94634 1.00085 0.64712 0.0
O305 O 0.96599 0.9991 0.55143 0.0
O306 O 0.01299 0.00916 0.59294 0.0
O307 O 0.03901 0.98664 0.64711 0.0
O308 O 0.02354 0.02579 0.7519 0.0
O309 O 0.98793 0.02993 0.70484 0.0
C310 C 1.00585 0.94744 0.67096 0.0
O311 O 0.06112 0.99454 0.77543 0.0
O312 O 0.04047 0.97493 0.84643 0.0
C313 C 0.93596 0.02531 0.55667 0.0
C314 C 0.91571 0.06749 0.53005 0.0
C315 C 0.9023 0.04831 0.54265 0.0
C316 C 0.91238 0.02738 0.55596 0.0
C317 C 0.94937 0.04432 0.54315 0.0
C318 C 0.93936 0.06513 0.52938 0.0
C319 C 0.9465 1.0041 0.57945 0.0
H320 H 0.09069 0.91553 0.73847 0.0
H321 H 0.06716 0.94937 0.72951 0.0
H322 H 0.09129 0.97172 0.93124 0.0
H323 H 0.11444 0.93777 0.94155 0.0
H324 H 0.88407 0.04958 0.54387 0.0
H325 H 0.90179 0.01293 0.5675 0.0
H326 H 0.96763 0.0432 0.5445 0.0
H327 H 0.95022 0.07939 0.51816 0.0
Tb328 Tb 0.51628 0.02315 0.79061 0.0
Eu329 Eu 0.50016 0.98767 0.6721 0.0
C330 C 0.49542 0.04015 0.65062 0.0
C331 C 0.46667 1.00519 0.7922 0.0
C332 C 0.55264 0.06411 0.87918 0.0
C333 C 0.57559 0.0977 0.89396 0.0
C334 C 0.5545 0.0871 0.89525 0.0
C335 C 0.57208 0.05179 0.86221 0.0
C336 C 0.59309 0.06236 0.86059 0.0
C337 C 0.59507 0.08547 0.87582 0.0
C338 C 0.53029 0.05377 0.87163 0.0
O339 O 0.5295 0.99101 0.82954 0.0
O340 O 0.50722 0.9663 0.76753 0.0
O341 O 0.53817 0.98535 0.66908 0.0
O342 O 0.54443 0.02035 0.71643 0.0
C343 C 0.52092 0.97074 0.82002 0.0
O344 O 0.47823 0.96005 0.63929 0.0
O345 O 0.50004 0.97615 0.56324 0.0
O346 O 0.50298 0.02183 0.62099 0.0
O347 O 0.49352 0.04097 0.71911 0.0
O348 O 0.48447 0.00985 0.83067 0.0
O349 O 0.46865 1.00174 0.72432 0.0
C350 C 0.55166 1.00242 0.68228 0.0
O351 O 0.52081 0.05757 0.81125 0.0
O352 O 0.52838 0.03267 0.89018 0.0
C353 C 0.46155 0.97265 0.53358 0.0
C354 C 0.42649 1.00173 0.49096 0.0
C355 C 0.42268 0.9855 0.54352 0.0
C356 C 0.43999 0.97098 0.56432 0.0
C357 C 0.46447 0.98711 0.4755 0.0
C358 C 0.44714 1.00161 0.45463 0.0
C359 C 0.48156 0.96452 0.57285 0.0
H360 H 0.57663 0.11551 0.90603 0.0
H361 H 0.53958 0.09693 0.90734 0.0
H362 H 0.57097 0.03406 0.84914 0.0
H363 H 0.60784 0.05233 0.84808 0.0
H364 H 0.40666 0.98475 0.57094 0.0
H365 H 0.43698 0.95981 0.60852 0.0
H366 H 0.48079 0.98872 0.4502 0.0
H367 H 0.45051 0.01383 0.41348 0.0
Tb368 Tb 0.48184 0.50482 0.75868 0.0
Eu369 Eu 0.52519 0.494 0.65706 0.0
C370 C 0.47535 0.49477 0.59843 0.0
C371 C 0.50044 0.45485 0.74681 0.0
C372 C 0.43708 0.53455 0.85765 0.0
C373 C 0.40359 0.55626 0.88637 0.0
C374 C 0.41361 0.53598 0.86576 0.0
C375 C 0.45049 0.55357 0.87034 0.0
C376 C 0.44054 0.57376 0.89145 0.0
C377 C 0.41694 0.57542 0.89921 0.0
C378 C 0.44714 0.51372 0.83068 0.0
O379 O 0.51166 0.51701 0.81508 0.0
O380 O 0.53631 0.49141 0.76964 0.0
O381 O 0.52341 0.532 0.65832 0.0
O382 O 0.48822 0.53723 0.70778 0.0
C383 C 0.53078 0.50578 0.81886 0.0
O384 O 0.56117 0.49762 0.63546 0.0
O385 O 0.54024 0.47756 0.56618 0.0
O386 O 0.49598 0.50155 0.58547 0.0
O387 O 0.46928 0.48912 0.66251 0.0
O388 O 0.4912 0.47037 0.78683 0.0
O389 O 0.5107 0.46008 0.68765 0.0
C390 C 0.50636 0.54503 0.67582 0.0
O391 O 0.44723 0.5121 0.76258 0.0
O392 O 0.4664 0.50755 0.85779 0.0
C393 C 0.57671 0.4644 0.58888 0.0
C394 C 0.60229 0.42442 0.58978 0.0
C395 C 0.58914 0.43034 0.64845 0.0
C396 C 0.57639 0.45015 0.64789 0.0
C397 C 0.59076 0.45929 0.53203 0.0
C398 C 0.60351 0.43946 0.53246 0.0
C399 C 0.56076 0.48323 0.58374 0.0
H400 H 0.38539 0.557 0.89118 0.0
H401 H 0.40301 0.52151 0.85507 0.0
H402 H 0.46864 0.55285 0.86345 0.0
H403 H 0.45141 0.58801 0.9023 0.0
H404 H 0.58797 0.41918 0.69349 0.0
H405 H 0.56554 0.45386 0.69225 0.0
H406 H 0.59107 0.47008 0.48598 0.0
H407 H 0.61315 0.43525 0.48597 0.0
Tb408 Tb 0.99787 0.47746 0.75798 0.0
Eu409 Eu 0.01322 0.51528 0.64362 0.0
C410 C 1.0059 0.46395 0.60053 0.0
C411 C 0.04858 0.49264 0.74892 0.0
C412 C 0.96535 0.43109 0.82932 0.0
C413 C 0.9342 0.41838 0.75677 0.0
C414 C 0.95466 0.42974 0.76365 0.0
C415 C 0.95602 0.41982 0.88717 0.0
C416 C 0.93546 0.40843 0.88034 0.0
C417 C 0.92397 0.40833 0.81558 0.0
C418 C 0.98461 0.44635 0.83828 0.0
O419 O 1.00508 0.50765 0.82047 0.0
O420 O 0.99661 0.53312 0.73424 0.0
O421 O 0.97744 0.50665 0.61247 0.0
O422 O 0.96624 0.49199 0.71897 0.0
C423 C 0.99937 0.52815 0.80081 0.0
O424 O 0.01033 0.54926 0.59979 0.0
O425 O 0.03517 0.52616 0.55816 0.0
O426 O 0.01934 0.48133 0.59244 0.0
O427 O 0.99248 0.46242 0.65506 0.0
O428 O 0.03462 0.47546 0.7528 0.0
O429 O 0.04214 0.51174 0.72035 0.0
C430 C 0.96147 0.4998 0.65572 0.0
O431 O 1.00087 0.44395 0.79272 0.0
O432 O 0.9792 0.4675 0.84665 0.0
C433 C 0.04572 0.56397 0.56793 0.0
C434 C 0.08384 0.59207 0.57671 0.0
C435 C 0.07021 0.59221 0.51614 0.0
C436 C 0.05132 0.57818 0.51174 0.0
C437 C 0.05844 0.56476 0.63006 0.0
C438 C 0.0774 0.57867 0.63439 0.0
C439 C 0.02801 0.54694 0.55971 0.0
H440 H 0.92574 0.41856 0.70632 0.0
H441 H 0.96153 0.43844 0.71838 0.0
H442 H 0.96399 0.42083 0.93827 0.0
H443 H 0.9278 0.40113 0.92686 0.0
H444 H 0.07494 0.60206 0.47041 0.0
H445 H 0.04168 0.57769 0.46341 0.0
H446 H 0.05425 0.55393 0.67411 0.0
H447 H 0.08756 0.57826 0.6817 0.0
H448 H 0.1518 0.9924 0.39412 0.0
H449 H 0.12061 0.02705 0.21801 0.0
H450 H 0.08395 0.0263 0.28011 0.0
H451 H 0.10332 0.95661 0.43912 0.0
H452 H 0.10839 0.95874 0.53221 0.0
H453 H 0.13166 0.96048 0.47139 0.0
H454 H 0.14315 0.99897 0.52457 0.0
H455 H 0.11985 0.99741 0.58513 0.0
H456 H 0.12275 0.02151 0.52782 0.0
H457 H 0.05112 0.02455 0.36662 0.0
H458 H 0.02469 0.01976 0.46624 0.0
H459 H 0.07741 0.98617 0.58544 0.0
C460 C 0.13724 0.99968 0.36821 0.0
C461 C 0.13921 0.00976 0.3008 0.0
C462 C 0.11959 0.01891 0.26893 0.0
C463 C 0.09868 0.01873 0.30413 0.0
C464 C 0.09751 0.00917 0.37115 0.0
C465 C 0.11624 0.99957 0.40249 0.0
C466 C 0.11067 0.99088 0.47558 0.0
C467 C 0.11369 0.96515 0.47979 0.0
C468 C 0.12495 1.00292 0.53156 0.0
C469 C 0.08598 0.99743 0.48108 0.0
C470 C 0.07866 0.00795 0.42032 0.0
C471 C 0.05665 0.01614 0.41412 0.0
C472 C 0.04175 0.0134 0.47119 0.0
C473 C 0.04883 1.0025 0.53384 0.0
C474 C 0.07131 0.99443 0.5383 0.0
H475 H 0.50399 0.12137 0.31666 0.0
H476 H 0.46821 0.17178 0.43825 0.0
H477 H 0.46151 0.14368 0.53189 0.0
H478 H 0.46864 0.0721 0.37402 0.0
H479 H 0.49271 0.05352 0.37593 0.0
H480 H 0.49182 0.07663 0.31416 0.0
H481 H 0.53007 0.09119 0.362 0.0
H482 H 0.53099 0.0683 0.42417 0.0
H483 H 0.5329 0.097 0.45449 0.0
H484 H 0.46351 0.11176 0.61963 0.0
H485 H 0.47179 0.07778 0.69066 0.0
H486 H 0.50562 0.04774 0.51164 0.0
C487 C 0.49432 0.12637 0.36231 0.0
C488 C 0.48652 0.14883 0.3697 0.0
C489 C 0.474 0.15464 0.43051 0.0
C490 C 0.47023 0.1388 0.48432 0.0
C491 C 0.4788 0.11705 0.47637 0.0
C492 C 0.49026 0.1107 0.41632 0.0
C493 C 0.49887 0.08666 0.42257 0.0
C494 C 0.48732 0.07133 0.36845 0.0
C495 C 0.52474 0.08575 0.4154 0.0
C496 C 0.49136 0.08085 0.49664 0.0
C497 C 0.47963 0.09853 0.52658 0.0
C498 C 0.47233 0.09767 0.59624 0.0
C499 C 0.47721 0.07832 0.63633 0.0
C500 C 0.48925 0.06001 0.60677 0.0
C501 C 0.49612 0.0613 0.53562 0.0
H502 H 0.35307 0.49936 0.42104 0.0
H503 H 0.38615 0.4935 0.21814 0.0
H504 H 0.42301 0.49059 0.27772 0.0
H505 H 0.39459 0.53227 0.50449 0.0
H506 H 0.39217 0.5184 0.58859 0.0
H507 H 0.36828 0.51937 0.53028 0.0
H508 H 0.36523 0.4758 0.53472 0.0
H509 H 0.38906 0.4747 0.59343 0.0
H510 H 0.38951 0.45889 0.51272 0.0
H511 H 0.45673 0.49074 0.3597 0.0
H512 H 0.48418 0.4918 0.45741 0.0
H513 H 0.42897 0.49504 0.60694 0.0
C514 C 0.36793 0.49696 0.3888 0.0
C515 C 0.36646 0.49674 0.31438 0.0
C516 C 0.38664 0.4941 0.27494 0.0
C517 C 0.40772 0.49227 0.30841 0.0
C518 C 0.40849 0.49284 0.38161 0.0
C519 C 0.38908 0.49487 0.42135 0.0
C520 C 0.39454 0.49531 0.49926 0.0
C521 C 0.38695 0.51767 0.53259 0.0
C522 C 0.38396 0.47496 0.53726 0.0
C523 C 0.42007 0.49348 0.49718 0.0
C524 C 0.4278 0.49217 0.42877 0.0
C525 C 0.45082 0.49148 0.41345 0.0
C526 C 0.46631 0.49215 0.46935 0.0
C527 C 0.45878 0.49327 0.53995 0.0
C528 C 0.43529 0.4938 0.55369 0.0
H529 H 0.03709 0.36034 0.34728 0.0
H530 H 0.96738 0.36232 0.27762 0.0
H531 H 0.9607 0.39589 0.35065 0.0
H532 H 0.02717 0.37635 0.52381 0.0
H533 H 0.0519 0.39387 0.53184 0.0
H534 H 0.05181 0.37065 0.47111 0.0
H535 H 0.06222 0.39785 0.36938 0.0
H536 H 0.06241 0.42116 0.42991 0.0
H537 H 0.04481 0.42224 0.35277 0.0
H538 H 0.96021 0.42656 0.44012 0.0
H539 H 0.967 0.45488 0.53277 0.0
H540 H 0.03755 0.43568 0.54032 0.0
C541 C 0.02051 0.36804 0.34679 0.0
C542 C 1.0028 0.35873 0.306 0.0
C543 C 0.98133 0.3693 0.30715 0.0
C544 C 0.97732 0.38833 0.34893 0.0
C545 C 0.995 0.39692 0.38891 0.0
C546 C 0.01628 0.38738 0.38752 0.0
C547 C 0.03221 0.39999 0.43629 0.0
C548 C 0.0413 0.38428 0.49419 0.0
C549 C 0.05156 0.41096 0.39459 0.0
C550 C 0.0164 0.41772 0.4664 0.0
C551 C 0.99497 0.41548 0.43847 0.0
C552 C 0.977 0.42877 0.46132 0.0
C553 C 0.98099 0.44477 0.514 0.0
C554 C 1.00283 0.44768 0.54253 0.0
C555 C 0.02082 0.43411 0.51803 0.0
H556 H 0.85853 0.98129 0.01641 0.0
H557 H 0.8948 0.99605 0.2087 0.0
H558 H 0.9309 0.99435 0.14395 0.0
H559 H 0.90083 0.94244 0.94134 0.0
H560 H 0.8965 0.95257 0.85296 0.0
H561 H 0.87361 0.95321 0.91538 0.0
H562 H 0.86868 0.99604 0.89299 0.0
H563 H 0.89161 0.99556 0.83088 0.0
H564 H 0.89249 0.01462 0.90439 0.0
H565 H 0.9629 0.99372 0.05711 0.0
H566 H 0.98858 0.99345 0.955 0.0
H567 H 0.93195 0.97869 0.81803 0.0
C568 C 0.8741 0.98364 0.04519 0.0
C569 C 0.87378 0.98872 0.11792 0.0
C570 C 0.89456 0.99223 0.15311 0.0
C571 C 0.91518 0.99123 0.11676 0.0
C572 C 0.91487 0.98665 0.04498 0.0
C573 C 0.8949 0.98278 0.00953 0.0
C574 C 0.89926 0.97927 0.93161 0.0
C575 C 0.89213 0.95545 0.909 0.0
C576 C 0.8873 0.99746 0.88738 0.0
C577 C 0.92475 0.98203 0.92871 0.0
C578 C 0.9334 0.98621 0.9948 0.0
C579 C 0.95633 0.99024 1.00523 0.0
C580 C 0.97081 0.9901 0.94673 0.0
C581 C 0.96241 0.98591 0.87829 0.0
C582 C 0.93902 0.98166 0.86961 0.0
H583 H 0.49772 0.85463 0.0194 0.0
H584 H 0.54874 0.87324 0.17182 0.0
H585 H 0.55747 0.90752 0.10177 0.0
H586 H 0.52749 0.87475 0.86383 0.0
H587 H 0.50196 0.88448 0.82209 0.0
H588 H 0.50101 0.86091 0.88204 0.0
H589 H 0.47071 0.88149 0.95638 0.0
H590 H 0.47157 0.90509 0.89674 0.0
H591 H 0.47652 0.90939 0.98915 0.0
H592 H 0.55829 0.94156 0.01795 0.0
H593 H 0.55205 0.97106 0.92767 0.0
H594 H 0.50066 0.92928 0.83099 0.0
C595 C 0.51079 0.86587 0.03815 0.0
C596 C 0.52245 0.8613 0.10149 0.0
C597 C 0.53967 0.8763 0.12334 0.0
C598 C 0.54467 0.89585 0.08397 0.0
C599 C 0.53248 0.90004 0.02247 0.0
C600 C 0.51601 0.8853 0.99953 0.0
C601 C 0.50483 0.89377 0.93296 0.0
C602 C 0.50909 0.87751 0.87161 0.0
C603 C 0.47941 0.89767 0.94454 0.0
C604 C 0.51725 0.91582 0.92236 0.0
C605 C 0.53319 0.91919 0.97428 0.0
C606 C 0.54602 0.93892 0.97672 0.0
C607 C 0.54233 0.95562 0.92518 0.0
C608 C 0.52598 0.95251 0.87168 0.0
C609 C 0.51351 0.93217 0.87037 0.0
H610 H 0.64185 0.48096 0.04255 0.0
H611 H 0.62468 0.53729 0.17721 0.0
H612 H 0.58986 0.5437 0.10751 0.0
H613 H 0.62318 0.50566 0.88231 0.0
H614 H 0.61273 0.47952 0.84688 0.0
H615 H 0.63571 0.47925 0.9087 0.0
H616 H 0.6132 0.45207 0.9895 0.0
H617 H 0.59016 0.45223 0.9278 0.0
H618 H 0.58525 0.45986 0.01811 0.0
H619 H 0.55635 0.54352 0.02068 0.0
H620 H 0.5288 0.53765 0.92439 0.0
H621 H 0.56904 0.48164 0.84826 0.0
C622 C 0.63063 0.49445 0.05834 0.0
C623 C 0.63592 0.50844 0.11615 0.0
C624 C 0.62103 0.52633 0.13328 0.0
C625 C 0.60116 0.53003 0.09409 0.0
C626 C 0.59647 0.51581 0.03755 0.0
C627 C 0.61091 0.49843 0.01975 0.0
C628 C 0.60257 0.48582 0.95579 0.0
C629 C 0.61956 0.48769 0.89483 0.0
C630 C 0.59749 0.46103 0.97391 0.0
C631 C 0.58114 0.49876 0.94005 0.0
C632 C 0.57775 0.51596 0.98776 0.0
C633 C 0.55892 0.53009 0.98315 0.0
C634 C 0.54332 0.52662 0.9283 0.0
C635 C 0.54669 0.50922 0.87846 0.0
C636 C 0.56588 0.49515 0.88512 0.0
H637 H 0.03215 0.61197 0.11348 0.0
H638 H 0.97516 0.65314 0.0489 0.0
H639 H 0.96386 0.62374 0.96469 0.0
H640 H 0.04664 0.59254 0.94563 0.0
H641 H 0.05432 0.56441 0.97284 0.0
H642 H 0.05668 0.58746 0.03368 0.0
H643 H 0.03105 0.56624 0.12222 0.0
H644 H 0.02869 0.54305 0.06168 0.0
H645 H 1.00361 0.5566 0.09462 0.0
H646 H 0.96151 0.59246 0.87694 0.0
H647 H 0.96664 0.56004 0.79744 0.0
H648 H 0.02418 0.53779 0.92005 0.0
C649 C 0.0171 0.61468 0.08237 0.0
C650 C 1.00449 0.63496 0.08843 0.0
C651 C 0.9849 0.6377 0.04655 0.0
C652 C 0.97842 0.62111 0.99806 0.0
C653 C 0.99151 0.60166 0.99228 0.0
C654 C 0.01029 0.59819 0.03391 0.0
C655 C 0.02195 0.57616 0.015 0.0
C656 C 0.04634 0.58041 0.99032 0.0
C657 C 0.02128 0.55953 0.07708 0.0
C658 C 1.00716 0.5681 0.95493 0.0
C659 C 0.9897 0.58312 0.94283 0.0
C660 C 0.97483 0.58037 0.88684 0.0
C661 C 0.97792 0.56194 0.84183 0.0
C662 C 0.99555 0.54622 0.85325 0.0
C663 C 0.01019 0.54921 0.9112 0.0
H664 H 0.93035 0.19502 0.45781 0.0
H665 H 0.87563 0.18895 0.30829 0.0
H666 H 0.8636 0.15356 0.36544 0.0
H667 H 0.94783 0.14418 0.45063 0.0
H668 H 0.95488 0.13931 0.54154 0.0
H669 H 0.95449 0.16751 0.50758 0.0
H670 H 0.92565 0.17961 0.60241 0.0
H671 H 0.92635 0.15142 0.63833 0.0
H672 H 0.8998 0.16394 0.6133 0.0
H673 H 0.86505 0.11463 0.41237 0.0
H674 H 0.87804 0.07711 0.45114 0.0
H675 H 0.93056 0.10858 0.5755 0.0
C676 C 0.91497 0.18703 0.43997 0.0
C677 C 0.90392 0.19471 0.37875 0.0
C678 C 0.88436 0.18331 0.35514 0.0
C679 C 0.87734 0.16323 0.38755 0.0
C680 C 0.88978 0.15506 0.44436 0.0
C681 C 0.90784 0.16696 0.47177 0.0
C682 C 0.92078 0.15292 0.52479 0.0
C683 C 0.94595 0.15086 0.50483 0.0
C684 C 0.91796 0.16255 0.59913 0.0
C685 C 0.9086 0.13064 0.51766 0.0
C686 C 0.89036 0.13233 0.47265 0.0
C687 C 0.87873 0.11325 0.44978 0.0
C688 C 0.88626 0.09195 0.47203 0.0
C689 C 0.90536 0.0899 0.51625 0.0
C690 C 0.91597 0.1096 0.54144 0.0
H691 H 0.34242 0.07282 0.25873 0.0
H692 H 0.31211 0.09731 0.45152 0.0
H693 H 0.34386 0.08108 0.51898 0.0
H694 H 0.35619 0.02247 0.31633 0.0
H695 H 0.38276 0.01938 0.27115 0.0
H696 H 0.36148 0.03771 0.2358 0.0
H697 H 0.3892 0.07148 0.23653 0.0
H698 H 0.41098 0.05309 0.26983 0.0
H699 H 0.40393 0.07858 0.31629 0.0
H700 H 0.37413 0.05551 0.56603 0.0
H701 H 0.40258 0.02589 0.58825 0.0
H702 H 0.41245 0.01816 0.36374 0.0
C703 C 0.343 0.07602 0.31465 0.0
C704 C 0.32477 0.0865 0.34971 0.0
C705 C 0.32587 0.08936 0.42349 0.0
C706 C 0.34387 0.08023 0.4622 0.0
C707 C 0.36076 0.06864 0.42615 0.0
C708 C 0.36074 0.067 0.35375 0.0
C709 C 0.37912 0.05134 0.32789 0.0
C710 C 0.36928 0.03157 0.28535 0.0
C711 C 0.39686 0.06441 0.28512 0.0
C712 C 0.38867 0.04339 0.39716 0.0
C713 C 0.37814 0.05379 0.45327 0.0
C714 C 0.38281 0.04765 0.52247 0.0
C715 C 0.39875 0.03058 0.53451 0.0
C716 C 0.40966 0.01971 0.47757 0.0
C717 C 0.40464 0.02642 0.40822 0.0
H718 H 0.58024 0.29934 0.50542 0.0
H719 H 0.64075 0.30217 0.37814 0.0
H720 H 0.65348 0.33567 0.44383 0.0
H721 H 0.56796 0.3522 0.49444 0.0
H722 H 0.55705 0.35663 0.58177 0.0
H723 H 0.55659 0.32896 0.5446 0.0
H724 H 0.57922 0.31336 0.65052 0.0
H725 H 0.57954 0.34116 0.68871 0.0
H726 H 0.60566 0.32626 0.67445 0.0
H727 H 0.65436 0.37351 0.49782 0.0
H728 H 0.64339 0.41184 0.53484 0.0
H729 H 0.5818 0.38499 0.6253 0.0
C730 C 0.59682 0.3062 0.49445 0.0
C731 C 0.60969 0.29805 0.43756 0.0
C732 C 0.63079 0.30807 0.42214 0.0
C733 C 0.63817 0.32704 0.45944 0.0
C734 C 0.62432 0.33567 0.51226 0.0
C735 C 0.60419 0.32531 0.53057 0.0
C736 C 0.59026 0.34009 0.57876 0.0
C737 C 0.56661 0.34475 0.54797 0.0
C738 C 0.58859 0.32959 0.6525 0.0
C739 C 0.6047 0.36112 0.57956 0.0
C740 C 0.62466 0.358 0.54308 0.0
C741 C 0.63914 0.37597 0.52828 0.0
C742 C 0.63269 0.39772 0.549 0.0
C743 C 0.6118 0.40136 0.58333 0.0
C744 C 0.59819 0.38266 0.60118 0.0
H745 H 0.2098 0.57712 0.50005 0.0
H746 H 0.20548 0.63958 0.38228 0.0
H747 H 0.17131 0.65002 0.4487 0.0
H748 H 0.15817 0.56275 0.48772 0.0
H749 H 0.15368 0.55078 0.57385 0.0
H750 H 0.18159 0.55198 0.53824 0.0
H751 H 0.19537 0.57418 0.64687 0.0
H752 H 0.1673 0.57291 0.68346 0.0
H753 H 0.18112 0.59976 0.67228 0.0
H754 H 0.13286 0.64799 0.49748 0.0
H755 H 0.09469 0.63438 0.5279 0.0
H756 H 0.1237 0.5735 0.61608 0.0
C757 C 0.20249 0.59364 0.49147 0.0
C758 C 0.2103 0.60758 0.43634 0.0
C759 C 0.19976 0.62867 0.42445 0.0
C760 C 0.18041 0.63479 0.46228 0.0
C761 C 0.17203 0.6198 0.5126 0.0
C762 C 0.18308 0.59984 0.52855 0.0
C763 C 0.16864 0.58472 0.57457 0.0
C764 C 0.16532 0.56121 0.54152 0.0
C765 C 0.17871 0.58279 0.64871 0.0
C766 C 0.14693 0.59815 0.57557 0.0
C767 C 0.14943 0.61871 0.5418 0.0
C768 C 0.13086 0.63234 0.52623 0.0
C769 C 0.10922 0.62442 0.5432 0.0
C770 C 0.10632 0.603 0.57493 0.0
C771 C 0.1255 0.59026 0.59398 0.0
H772 H 0.08786 0.79868 0.94769 0.0
H773 H 0.14764 0.80607 0.07629 0.0
H774 H 0.15833 0.84009 0.00865 0.0
H775 H 0.11203 0.82503 0.77776 0.0
H776 H 0.08526 0.83841 0.76054 0.0
H777 H 0.08616 0.81121 0.80322 0.0
H778 H 0.06251 0.82719 0.90627 0.0
H779 H 0.06171 0.85428 0.86437 0.0
H780 H 0.07255 0.85172 0.95252 0.0
H781 H 0.15768 0.87722 0.94786 0.0
H782 H 0.14547 0.91419 0.90129 0.0
H783 H 0.08553 0.88297 0.81453 0.0
C784 C 0.10385 0.80675 0.95893 0.0
C785 C 0.11713 0.79962 0.01634 0.0
C786 C 0.13738 0.81119 0.03195 0.0
C787 C 0.14362 0.83044 0.99353 0.0
C788 C 0.12948 0.83779 0.93949 0.0
C789 C 0.1101 0.8261 0.92163 0.0
C790 C 0.09566 0.83946 0.87075 0.0
C791 C 0.09474 0.82783 0.79879 0.0
C792 C 0.07173 0.8434 0.90032 0.0
C793 C 0.10906 0.86113 0.86687 0.0
C794 C 0.12887 0.85963 0.90499 0.0
C795 C 0.14253 0.87843 0.91634 0.0
C796 C 0.13538 0.89939 0.89016 0.0
C797 C 0.11461 0.90143 0.85391 0.0
C798 C 0.10182 0.88186 0.84004 0.0
H799 H 0.69711 0.12083 0.09549 0.0
H800 H 0.73563 0.08477 0.93812 0.0
H801 H 0.70615 0.09233 0.85144 0.0
H802 H 0.65212 0.0937 0.07091 0.0
H803 H 0.63132 0.11554 0.08352 0.0
H804 H 0.65862 0.11836 0.12236 0.0
H805 H 0.66448 0.15667 0.05937 0.0
H806 H 0.63679 0.15417 0.02077 0.0
H807 H 0.6611 0.15863 0.96544 0.0
H808 H 0.66915 0.0905 0.79693 0.0
H809 H 0.62924 0.08032 0.78025 0.0
H810 H 0.61212 0.11371 0.97518 0.0
C811 C 0.69972 0.11539 0.04189 0.0
C812 C 0.71855 0.10191 0.02422 0.0
C813 C 0.72157 0.09534 0.95339 0.0
C814 C 0.70473 0.09952 0.90344 0.0
C815 C 0.68498 0.11031 0.92491 0.0
C816 C 0.68256 0.11861 0.99245 0.0
C817 C 0.65811 0.12433 0.00813 0.0
C818 C 0.64957 0.11223 0.07506 0.0
C819 C 0.65494 0.14998 0.01372 0.0
C820 C 0.6469 0.11533 0.94255 0.0
C821 C 0.66276 0.10845 0.89364 0.0
C822 C 0.65659 0.09645 0.83378 0.0
C823 C 0.6339 0.09049 0.82512 0.0
C824 C 0.61768 0.09619 0.87669 0.0
C825 C 0.62413 0.10964 0.93424 0.0
H826 H 0.42673 0.70253 0.9942 0.0
H827 H 0.37679 0.69009 0.15614 0.0
H828 H 0.36599 0.65466 0.09748 0.0
H829 H 0.39485 0.67215 0.84295 0.0
H830 H 0.42139 0.66186 0.80958 0.0
H831 H 0.41992 0.68921 0.85052 0.0
H832 H 0.45167 0.67718 0.93614 0.0
H833 H 0.4529 0.64974 0.8972 0.0
H834 H 0.44783 0.65241 0.99019 0.0
H835 H 0.36833 0.61689 0.0426 0.0
H836 H 0.38176 0.58118 0.99161 0.0
H837 H 0.42919 0.61834 0.86155 0.0
C838 C 0.41256 0.69308 0.01489 0.0
C839 C 0.40251 0.69909 0.07942 0.0
C840 C 0.38467 0.68578 0.1066 0.0
C841 C 0.37837 0.66567 0.07343 0.0
C842 C 0.38982 0.65934 0.01256 0.0
C843 C 0.40619 0.67296 0.98249 0.0
C844 C 0.41858 0.66082 0.92417 0.0
C845 C 0.41336 0.67165 0.85255 0.0
C846 C 0.44423 0.65999 0.93785 0.0
C847 C 0.40799 0.6377 0.9302 0.0
C848 C 0.39103 0.6373 0.98013 0.0
C849 C 0.38099 0.61714 1.00159 0.0
C850 C 0.38876 0.5969 0.97231 0.0
C851 C 0.40654 0.59694 0.92246 0.0
C852 C 0.41563 0.61773 0.89967 0.0
H853 H 0.8033 0.44983 0.85374 0.0
H854 H 0.79278 0.392 0.98863 0.0
H855 H 0.82413 0.37217 0.93018 0.0
H856 H 0.82962 0.41632 0.69284 0.0
H857 H 0.84894 0.43939 0.67873 0.0
H858 H 0.82051 0.44492 0.70793 0.0
H859 H 0.8363 0.4672 0.81339 0.0
H860 H 0.86457 0.46157 0.78591 0.0
H861 H 0.85566 0.45353 0.87306 0.0
H862 H 0.86309 0.3652 0.89265 0.0
H863 H 0.90391 0.3705 0.87188 0.0
H864 H 0.88984 0.43237 0.75863 0.0
C865 C 0.8068 0.43244 0.86744 0.0
C866 C 0.79574 0.4223 0.92495 0.0
C867 C 0.80088 0.39982 0.94368 0.0
C868 C 0.81872 0.38847 0.91074 0.0
C869 C 0.83088 0.39974 0.85843 0.0
C870 C 0.82466 0.42105 0.83517 0.0
C871 C 0.84284 0.43147 0.78946 0.0
C872 C 0.835 0.43311 0.71268 0.0
C873 C 0.85028 0.45477 0.81723 0.0
C874 C 0.86124 0.41397 0.79759 0.0
C875 C 0.85382 0.3954 0.83536 0.0
C876 C 0.86888 0.37914 0.86052 0.0
C877 C 0.89206 0.38234 0.84903 0.0
C878 C 0.89991 0.40167 0.81281 0.0
C879 C 0.8842 0.41702 0.78419 0.0
H880 H 0.03491 0.14629 0.9716 0.0
H881 H 0.98535 0.18338 0.8493 0.0
H882 H 0.98051 0.15042 0.77205 0.0
H883 H 0.05977 0.11469 0.82379 0.0
H884 H 0.0634 0.08942 0.87549 0.0
H885 H 0.06458 0.11665 0.91708 0.0
H886 H 0.03308 0.10434 1.00352 0.0
H887 H 0.03172 0.07714 0.96203 0.0
H888 H 1.00662 0.09416 0.9693 0.0
H889 H 0.97798 0.11197 0.71547 0.0
H890 H 0.97975 0.07199 0.6799 0.0
H891 H 0.03132 0.05972 0.83731 0.0
C892 C 0.02323 0.14762 0.92808 0.0
C893 C 0.01062 0.16767 0.91665 0.0
C894 C 0.99557 0.16853 0.85874 0.0
C895 C 0.99256 0.14977 0.81473 0.0
C896 C 1.00482 0.13017 0.82862 0.0
C897 C 0.02006 0.12905 0.88342 0.0
C898 C 0.0305 0.10568 0.88866 0.0
C899 C 0.05608 0.10668 0.87545 0.0
C900 C 0.02515 0.09469 0.96011 0.0
C901 C 0.01839 0.09369 0.82923 0.0
C902 C 1.00366 0.10813 0.79522 0.0
C903 C 0.9897 0.10062 0.74115 0.0
C904 C 0.99077 0.07781 0.72145 0.0
C905 C 1.00581 0.06266 0.75528 0.0
C906 C 0.01992 0.07089 0.80951 0.0
H907 H 0.33186 0.01598 0.84061 0.0
H908 H 0.34177 0.9902 0.05209 0.0
H909 H 0.38233 0.98549 0.02809 0.0
H910 H 0.37388 0.97819 0.75611 0.0
H911 H 0.38321 0.99954 0.69499 0.0
H912 H 0.35454 0.99972 0.72671 0.0
H913 H 0.35975 0.0408 0.76941 0.0
H914 H 0.38844 0.04063 0.73806 0.0
H915 H 0.38257 0.04735 0.82856 0.0
H916 H 0.4222 0.98724 0.98689 0.0
H917 H 0.45875 0.99148 0.92619 0.0
H918 H 0.42403 0.01382 0.73771 0.0
C919 C 0.34253 0.00901 0.88141 0.0
C920 C 0.33344 1.00324 0.9482 0.0
C921 C 0.34809 0.9943 1.00018 0.0
C922 C 0.37125 0.99173 0.98723 0.0
C923 C 0.3797 0.99788 0.92156 0.0
C924 C 0.3658 1.00595 0.86891 0.0
C925 C 0.37949 0.01143 0.80318 0.0
C926 C 0.37235 0.99631 0.74161 0.0
C927 C 0.37744 0.03654 0.78369 0.0
C928 C 0.40324 1.00569 0.82795 0.0
C929 C 0.40288 0.99803 0.89662 0.0
C930 C 0.42267 0.99289 0.93278 0.0
C931 C 0.44339 0.99548 0.89795 0.0
C932 C 0.4443 1.00287 0.82715 0.0
C933 C 0.42387 0.00788 0.79158 0.0
H934 H 0.48467 0.35478 0.02521 0.0
H935 H 0.51566 0.30981 0.87385 0.0
H936 H 0.51644 0.34078 0.78656 0.0
H937 H 0.4504 0.38729 0.89934 0.0
H938 H 0.45483 0.41342 0.94542 0.0
H939 H 0.45469 0.3871 0.99309 0.0
H940 H 0.49429 0.39626 0.0432 0.0
H941 H 0.49461 0.4225 0.99541 0.0
H942 H 0.51715 0.40244 0.98358 0.0
H943 H 0.51721 0.378 0.71942 0.0
H944 H 0.51613 0.41741 0.67682 0.0
H945 H 0.48468 0.43793 0.87255 0.0
C946 C 0.49139 0.35132 0.97345 0.0
C947 C 0.50005 0.32973 0.95657 0.0
C948 C 0.50858 0.32601 0.88793 0.0
C949 C 0.50924 0.34359 0.83806 0.0
C950 C 0.50114 0.3648 0.85722 0.0
C951 C 0.49215 0.36864 0.92311 0.0
C952 C 0.48542 0.39316 0.9318 0.0
C953 C 0.45981 0.39536 0.94306 0.0
C954 C 0.49867 0.40423 0.99205 0.0
C955 C 0.49245 0.40267 0.86105 0.0
C956 C 0.50141 0.38606 0.81859 0.0
C957 C 0.50994 0.39105 0.75198 0.0
C958 C 0.50928 0.41355 0.72823 0.0
C959 C 0.50015 0.43088 0.77091 0.0
C960 C 0.49154 0.42516 0.83807 0.0
H961 H 0.16785 0.53517 0.89792 0.0
H962 H 0.17803 0.46712 0.97727 0.0
H963 H 0.14312 0.45502 0.91833 0.0
H964 H 0.10894 0.53643 0.9265 0.0
H965 H 0.10245 0.55262 0.84878 0.0
H966 H 0.12958 0.55557 0.89029 0.0
H967 H 0.14942 0.54558 0.77314 0.0
H968 H 0.1223 0.54279 0.73126 0.0
H969 H 0.14218 0.51978 0.72872 0.0
H970 H 0.10544 0.45079 0.85954 0.0
H971 H 0.06814 0.45459 0.80355 0.0
H972 H 0.08136 0.5256 0.76444 0.0
C973 C 0.1629 0.51767 0.90273 0.0
C974 C 0.17603 0.50212 0.94241 0.0
C975 C 0.16877 0.47935 0.94631 0.0
C976 C 0.14878 0.47231 0.91332 0.0
C977 C 0.13606 0.48817 0.87626 0.0
C978 C 0.14287 0.51037 0.87042 0.0
C979 C 0.12546 0.52428 0.83061 0.0
C980 C 0.11605 0.54334 0.87682 0.0
C981 C 0.13543 0.53365 0.76184 0.0
C982 C 0.1076 0.5065 0.81621 0.0
C983 C 0.11417 0.48576 0.84261 0.0
C984 C 0.10022 0.46691 0.83813 0.0
C985 C 0.07898 0.46927 0.80625 0.0
C986 C 0.0717 0.49037 0.77919 0.0
C987 C 0.0864 0.50917 0.78394 0.0
H988 H 1.00207 0.83858 0.42095 0.0
H989 H 0.02995 0.80015 0.59491 0.0
H990 H 0.0284 0.83404 0.66959 0.0
H991 H 0.03158 0.88921 0.45393 0.0
H992 H 0.00861 0.90771 0.43061 0.0
H993 H 0.01057 0.88015 0.39162 0.0
H994 H 0.97025 0.87065 0.43528 0.0
H995 H 0.9681 0.89826 0.474 0.0
H996 H 0.96358 0.87347 0.52726 0.0
H997 H 0.02633 0.87285 0.72341 0.0
H998 H 0.0221 0.91307 0.75379 0.0
H999 H 0.99443 0.92637 0.54656 0.0
C1000 C 0.00736 0.83712 0.4752 0.0
C1001 C 0.01619 0.81655 0.50175 0.0
C1002 C 0.02336 0.81566 0.57283 0.0
C1003 C 0.02246 0.83485 0.61588 0.0
C1004 C 0.01417 0.85492 0.58761 0.0
C1005 C 1.00654 0.85616 0.5191 0.0
C1006 C 0.99905 0.88002 0.50111 0.0
C1007 C 0.01331 0.88984 0.44075 0.0
C1008 C 0.97374 0.88063 0.48338 0.0
C1009 C 1.00387 0.89201 0.56989 0.0
C1010 C 0.01261 0.87722 0.61907 0.0
C1011 C 0.01923 0.88452 0.68554 0.0
C1012 C 0.01679 0.90747 0.70231 0.0
C1013 C 0.00771 0.923 0.65302 0.0
C1014 C 1.00114 0.91499 0.58595 0.0
H1015 H 0.65667 0.97033 0.43302 0.0
H1016 H 0.69677 0.01671 0.55715 0.0
H1017 H 0.66421 0.02309 0.63526 0.0
H1018 H 0.6056 1.00112 0.44004 0.0
H1019 H 0.58743 0.97684 0.44751 0.0
H1020 H 0.61431 0.97442 0.40394 0.0
H1021 H 0.62564 0.94192 0.48802 0.0
H1022 H 0.59871 0.94414 0.5316 0.0
H1023 H 0.62444 0.94627 0.58164 0.0
H1024 H 0.62637 0.02765 0.6927 0.0
H1025 H 0.58679 0.02741 0.73219 0.0
H1026 H 0.57077 0.97695 0.57541 0.0
C1027 C 0.6587 0.98161 0.47717 0.0
C1028 C 0.6795 0.99288 0.48896 0.0
C1029 C 0.6813 0.00751 0.54748 0.0
C1030 C 0.66278 0.0114 0.59195 0.0
C1031 C 0.64248 1.00041 0.57801 0.0
C1032 C 0.64037 0.98555 0.52268 0.0
C1033 C 0.61645 0.97628 0.51874 0.0
C1034 C 0.6053 0.98254 0.44838 0.0
C1035 C 0.61631 0.95063 0.53073 0.0
C1036 C 0.60535 0.98859 0.57962 0.0
C1037 C 0.62072 1.00249 0.61279 0.0
C1038 C 0.6143 0.01654 0.66783 0.0
C1039 C 0.59169 0.01632 0.68985 0.0
C1040 C 0.5756 1.00198 0.65775 0.0
C1041 C 0.58267 0.98784 0.60194 0.0
H1042 H 0.5409 0.65387 0.44952 0.0
H1043 H 0.49195 0.69149 0.57214 0.0
H1044 H 0.48573 0.65814 0.64718 0.0
H1045 H 0.51079 0.60308 0.44662 0.0
H1046 H 0.53511 0.58494 0.45387 0.0
H1047 H 0.53788 0.61247 0.41469 0.0
H1048 H 0.56928 0.62258 0.5038 0.0
H1049 H 0.56672 0.59497 0.543 0.0
H1050 H 0.5638 0.61981 0.59661 0.0
H1051 H 0.48142 0.6195 0.70058 0.0
H1052 H 0.48126 0.57915 0.73297 0.0
H1053 H 0.5331 0.56627 0.57686 0.0
C1054 C 0.52912 0.65525 0.49278 0.0
C1055 C 0.51707 0.67555 0.5049 0.0
C1056 C 0.50181 0.67645 0.56231 0.0
C1057 C 0.49799 0.65747 0.60505 0.0
C1058 C 0.50965 0.63761 0.59034 0.0
C1059 C 0.52511 0.63643 0.53613 0.0
C1060 C 0.5346 0.61273 0.52945 0.0
C1061 C 0.52927 0.60272 0.45686 0.0
C1062 C 0.56012 0.61252 0.54411 0.0
C1063 C 0.52164 0.60065 0.58722 0.0
C1064 C 0.50737 0.61535 0.6218 0.0
C1065 C 0.49276 0.60791 0.6745 0.0
C1066 C 0.49272 0.5849 0.69233 0.0
C1067 C 0.50726 0.56948 0.65787 0.0
C1068 C 0.52202 0.57763 0.60499 0.0
H1069 H 0.85771 0.52511 0.39709 0.0
H1070 H 0.81562 0.48535 0.53762 0.0
H1071 H 0.84776 0.48124 0.61894 0.0
H1072 H 0.90667 0.49134 0.41637 0.0
H1073 H 0.92617 0.51463 0.41172 0.0
H1074 H 0.89928 0.5165 0.3681 0.0
H1075 H 0.89019 0.5532 0.436 0.0
H1076 H 0.91711 0.55148 0.47966 0.0
H1077 H 0.89151 0.55319 0.53062 0.0
H1078 H 0.88552 0.47921 0.68156 0.0
H1079 H 0.92515 0.48008 0.72107 0.0
H1080 H 0.94317 0.51957 0.53682 0.0
C1081 C 0.85509 0.51555 0.44493 0.0
C1082 C 0.83384 0.50563 0.46044 0.0
C1083 C 0.8314 0.49355 0.52455 0.0
C1084 C 0.8497 0.49092 0.57101 0.0
C1085 C 0.87047 0.50042 0.55292 0.0
C1086 C 0.87322 0.51256 0.49147 0.0
C1087 C 0.89755 0.52016 0.48256 0.0
C1088 C 0.90803 0.51005 0.41573 0.0
C1089 C 0.89918 0.54605 0.48221 0.0
C1090 C 0.90815 0.51021 0.54825 0.0
C1091 C 0.89221 0.49901 0.58839 0.0
C1092 C 0.89806 0.48812 0.65081 0.0
C1093 C 0.92069 0.48874 0.67284 0.0
C1094 C 0.93741 0.50003 0.63243 0.0
C1095 C 0.93089 0.51088 0.56922 0.0
loop_
_geom_bond_atom_site_label_1
_geom_bond_atom_site_label_2
_geom_bond_distance
_geom_bond_site_symmetry_2
_ccdc_geom_bond_type
C0 C1 1.384 . S
C0 H13 0.947 . S
C0 C35 1.382 . S
C1 C0 1.384 . S
C1 C2 1.378 . S
C2 C1 1.378 . S
C2 C3 1.378 . S
C2 H14 0.952 . S
C3 C2 1.378 . S
C3 H15 0.950 . S
C3 C34 1.383 . S
H4 C23 0.947 . S
H5 C24 0.946 . S
H6 C26 0.953 . S
H7 C27 0.945 . S
H8 C29 0.952 . S
H9 C30 0.949 . S
H10 C32 0.950 . S
H11 C33 0.948 . S
H12 C35 0.951 . S
H13 C0 0.947 . S
H14 C2 0.952 . S
H15 C3 0.950 . S
N16 C19 1.382 . S
N16 C21 1.363 . S
N17 C19 1.371 . S
N17 C20 1.372 . S
N18 C20 1.361 . S
N18 C21 1.377 . S
C19 N16 1.382 . S
C19 N17 1.371 . S
C19 C22 1.480 . S
C20 N17 1.372 . S
C20 N18 1.361 . S
C20 C28 1.457 . S
C21 N16 1.363 . S
C21 N18 1.377 . S
C21 C34 1.479 . S
C22 C19 1.480 . S
C22 C23 1.383 . S
C22 C27 1.385 . S
C23 H4 0.947 . S
C23 C22 1.383 . S
C23 C24 1.388 . S
C24 H5 0.946 . S
C24 C23 1.388 . S
C24 C25 1.384 . S
C25 C24 1.384 . S
C25 C26 1.377 . S
C26 H6 0.953 . S
C26 C25 1.377 . S
C26 C27 1.369 . S
C27 H7 0.945 . S
C27 C22 1.385 . S
C27 C26 1.369 . S
C28 C20 1.457 . S
C28 C29 1.372 . S
C28 C33 1.364 . S
C29 H8 0.952 . S
C29 C28 1.372 . S
C29 C30 1.389 . S
C30 H9 0.949 . S
C30 C29 1.389 . S
C30 C31 1.387 . S
C31 C30 1.387 . S
C31 C32 1.372 . S
C32 H10 0.950 . S
C32 C31 1.372 . S
C32 C33 1.379 . S
C33 H11 0.948 . S
C33 C28 1.364 . S
C33 C32 1.379 . S
C34 C3 1.383 . S
C34 C21 1.479 . S
C34 C35 1.398 . S
C35 C0 1.382 . S
C35 H12 0.951 . S
C35 C34 1.398 . S
C36 C37 1.384 1_655 S
C36 H49 0.948 . S
C36 C71 1.382 1_655 S
C37 C36 1.384 1_455 S
C37 C38 1.378 . S
C38 C37 1.378 . S
C38 C39 1.378 . S
C38 H50 0.952 . S
C39 C38 1.378 . S
C39 H51 0.950 . S
C39 C70 1.383 . S
H40 C59 0.947 . S
H41 C60 0.952 . S
H42 C62 0.953 . S
H43 C63 0.945 . S
H44 C65 0.949 1_655 S
H45 C66 0.956 . S
H46 C68 0.950 . S
H47 C69 0.948 . S
H48 C71 0.951 1_655 S
H49 C36 0.948 . S
H50 C38 0.952 . S
H51 C39 0.950 . S
N52 C55 1.382 . S
N52 C57 1.363 . S
N53 C55 1.371 . S
N53 C56 1.372 . S
N54 C56 1.361 . S
N54 C57 1.377 . S
C55 N52 1.382 . S
C55 N53 1.371 . S
C55 C58 1.480 . S
C56 N53 1.372 . S
C56 N54 1.361 . S
C56 C64 1.457 . S
C57 N52 1.363 . S
C57 N54 1.377 . S
C57 C70 1.479 . S
C58 C55 1.480 . S
C58 C59 1.383 . S
C58 C63 1.385 . S
C59 H40 0.947 . S
C59 C58 1.383 . S
C59 C60 1.386 1_455 S
C60 H41 0.952 . S
C60 C59 1.386 1_655 S
C60 C61 1.381 1_655 S
C61 C60 1.381 1_455 S
C61 C62 1.377 . S
C62 H42 0.953 . S
C62 C61 1.377 . S
C62 C63 1.369 . S
C63 H43 0.945 . S
C63 C58 1.385 . S
C63 C62 1.369 . S
C64 C56 1.457 . S
C64 C65 1.376 . S
C64 C69 1.364 . S
C65 H44 0.949 1_455 S
C65 C64 1.376 . S
C65 C66 1.386 1_455 S
C66 H45 0.956 . S
C66 C65 1.386 1_655 S
C66 C67 1.383 1_655 S
C67 C66 1.383 1_455 S
C67 C68 1.372 . S
C68 H46 0.950 . S
C68 C67 1.372 . S
C68 C69 1.379 . S
C69 H47 0.948 . S
C69 C64 1.364 . S
C69 C68 1.379 . S
C70 C39 1.383 . S
C70 C57 1.479 . S
C70 C71 1.398 . S
C71 C36 1.382 1_455 S
C71 H48 0.951 1_455 S
C71 C70 1.398 . S
C72 C73 1.384 1_565 S
C72 H85 0.948 . S
C72 C107 1.382 1_565 S
C73 C72 1.384 1_545 S
C73 C74 1.378 . S
C74 C73 1.378 . S
C74 C75 1.378 . S
C74 H86 0.952 . S
C75 C74 1.378 . S
C75 H87 0.950 . S
C75 C106 1.383 . S
H76 C95 0.947 . S
H77 C96 0.952 . S
H78 C98 0.953 . S
H79 C99 0.945 . S
H80 C101 0.949 1_565 S
H81 C102 0.957 . S
H82 C104 0.950 . S
H83 C105 0.948 . S
H84 C107 0.951 1_565 S
H85 C72 0.948 . S
H86 C74 0.952 . S
H87 C75 0.950 . S
N88 C91 1.382 . S
N88 C93 1.363 . S
N89 C91 1.371 . S
N89 C92 1.372 . S
N90 C92 1.361 . S
N90 C93 1.377 . S
C91 N88 1.382 . S
C91 N89 1.371 . S
C91 C94 1.480 . S
C92 N89 1.372 . S
C92 N90 1.361 . S
C92 C100 1.457 . S
C93 N88 1.363 . S
C93 N90 1.377 . S
C93 C106 1.479 . S
C94 C91 1.480 . S
C94 C95 1.383 . S
C94 C99 1.385 . S
C95 H76 0.947 . S
C95 C94 1.383 . S
C95 C96 1.386 1_545 S
C96 H77 0.952 . S
C96 C95 1.386 1_565 S
C96 C97 1.382 1_565 S
C97 C96 1.382 1_545 S
C97 C98 1.377 . S
C98 H78 0.953 . S
C98 C97 1.377 . S
C98 C99 1.369 . S
C99 H79 0.945 . S
C99 C94 1.385 . S
C99 C98 1.369 . S
C100 C92 1.457 . S
C100 C101 1.376 . S
C100 C105 1.364 . S
C101 H80 0.949 1_545 S
C101 C100 1.376 . S
C101 C102 1.386 1_545 S
C102 H81 0.957 . S
C102 C101 1.386 1_565 S
C102 C103 1.383 1_565 S
C103 C102 1.383 1_545 S
C103 C104 1.372 . S
C104 H82 0.950 . S
C104 C103 1.372 . S
C104 C105 1.379 . S
C105 H83 0.948 . S
C105 C100 1.364 . S
C105 C104 1.379 . S
C106 C75 1.383 . S
C106 C93 1.479 . S
C106 C107 1.398 . S
C107 C72 1.382 1_545 S
C107 H84 0.951 1_545 S
C107 C106 1.398 . S
C108 C109 1.384 . S
C108 H121 0.947 . S
C108 C143 1.382 . S
C109 C108 1.384 . S
C109 C110 1.378 . S
C110 C109 1.378 . S
C110 C111 1.378 . S
C110 H122 0.952 . S
C111 C110 1.378 . S
C111 H123 0.950 . S
C111 C142 1.383 . S
H112 C131 0.947 . S
H113 C132 0.946 . S
H114 C134 0.953 . S
H115 C135 0.945 . S
H116 C137 0.952 . S
H117 C138 0.949 . S
H118 C140 0.950 . S
H119 C141 0.948 . S
H120 C143 0.951 . S
H121 C108 0.947 . S
H122 C110 0.952 . S
H123 C111 0.950 . S
N124 C127 1.382 . S
N124 C129 1.363 . S
N125 C127 1.371 . S
N125 C128 1.372 . S
N126 C128 1.361 . S
N126 C129 1.377 . S
C127 N124 1.382 . S
C127 N125 1.371 . S
C127 C130 1.480 . S
C128 N125 1.372 . S
C128 N126 1.361 . S
C128 C136 1.457 . S
C129 N124 1.363 . S
C129 N126 1.377 . S
C129 C142 1.479 . S
C130 C127 1.480 . S
C130 C131 1.383 . S
C130 C135 1.385 . S
C131 H112 0.947 . S
C131 C130 1.383 . S
C131 C132 1.388 . S
C132 H113 0.946 . S
C132 C131 1.388 . S
C132 C133 1.384 . S
C133 C132 1.384 . S
C133 C134 1.377 . S
C134 H114 0.953 . S
C134 C133 1.377 . S
C134 C135 1.369 . S
C135 H115 0.945 . S
C135 C130 1.385 . S
C135 C134 1.369 . S
C136 C128 1.457 . S
C136 C137 1.372 . S
C136 C141 1.364 . S
C137 H116 0.952 . S
C137 C136 1.372 . S
C137 C138 1.389 . S
C138 H117 0.949 . S
C138 C137 1.389 . S
C138 C139 1.387 . S
C139 C138 1.387 . S
C139 C140 1.372 . S
C140 H118 0.950 . S
C140 C139 1.372 . S
C140 C141 1.379 . S
C141 H119 0.948 . S
C141 C136 1.364 . S
C141 C140 1.379 . S
C142 C111 1.383 . S
C142 C129 1.479 . S
C142 C143 1.398 . S
C143 C108 1.382 . S
C143 H120 0.951 . S
C143 C142 1.398 . S
C144 C145 1.384 . S
C144 H157 0.947 . S
C144 C179 1.382 . S
C145 C144 1.384 . S
C145 C146 1.378 . S
C146 C145 1.378 . S
C146 C147 1.378 . S
C146 H158 0.952 . S
C147 C146 1.378 . S
C147 H159 0.950 . S
C147 C178 1.383 . S
H148 C167 0.947 1_556 S
H149 C168 0.946 . S
H150 C170 0.953 . S
H151 C171 0.945 . S
H152 C173 0.952 . S
H153 C174 0.949 . S
H154 C176 0.950 . S
H155 C177 0.948 . S
H156 C179 0.951 . S
H157 C144 0.947 . S
H158 C146 0.952 . S
H159 C147 0.950 . S
N160 C163 1.382 . S
N160 C165 1.363 1_554 S
N161 C163 1.371 . S
N161 C164 1.372 . S
N162 C164 1.361 . S
N162 C165 1.377 1_554 S
C163 N160 1.382 . S
C163 N161 1.371 . S
C163 C166 1.480 . S
C164 N161 1.372 . S
C164 N162 1.361 . S
C164 C172 1.457 . S
C165 N160 1.363 1_556 S
C165 N162 1.377 1_556 S
C165 C178 1.479 . S
C166 C163 1.480 . S
C166 C167 1.383 . S
C166 C171 1.385 . S
C167 H148 0.947 1_554 S
C167 C166 1.383 . S
C167 C168 1.388 . S
C168 H149 0.946 . S
C168 C167 1.388 . S
C168 C169 1.384 . S
C169 C168 1.384 . S
C169 C170 1.377 . S
C170 H150 0.953 . S
C170 C169 1.377 . S
C170 C171 1.369 . S
C171 H151 0.945 . S
C171 C166 1.385 . S
C171 C170 1.369 . S
C172 C164 1.457 . S
C172 C173 1.372 . S
C172 C177 1.364 . S
C173 H152 0.952 . S
C173 C172 1.372 . S
C173 C174 1.389 . S
C174 H153 0.949 . S
C174 C173 1.389 . S
C174 C175 1.387 . S
C175 C174 1.387 . S
C175 C176 1.372 . S
C176 H154 0.950 . S
C176 C175 1.372 . S
C176 C177 1.379 . S
C177 H155 0.948 . S
C177 C172 1.364 . S
C177 C176 1.379 . S
C178 C147 1.383 . S
C178 C165 1.479 . S
C178 C179 1.398 . S
C179 C144 1.382 . S
C179 H156 0.951 . S
C179 C178 1.398 . S
C180 C181 1.384 . S
C180 H193 0.948 1_455 S
C180 C215 1.382 . S
C181 C180 1.384 . S
C181 C182 1.378 . S
C182 C181 1.378 . S
C182 C183 1.378 . S
C182 H194 0.952 . S
C183 C182 1.378 . S
C183 H195 0.950 . S
C183 C214 1.383 . S
H184 C203 0.947 1_556 S
H185 C204 0.949 . S
H186 C206 0.953 . S
H187 C207 0.945 . S
H188 C209 0.947 1_655 S
H189 C210 0.954 . S
H190 C212 0.950 . S
H191 C213 0.948 . S
H192 C215 0.950 1_655 S
H193 C180 0.948 1_655 S
H194 C182 0.952 . S
H195 C183 0.950 . S
N196 C199 1.382 . S
N196 C201 1.363 1_554 S
N197 C199 1.371 . S
N197 C200 1.372 . S
N198 C200 1.361 . S
N198 C201 1.377 1_554 S
C199 N196 1.382 . S
C199 N197 1.371 . S
C199 C202 1.480 . S
C200 N197 1.372 . S
C200 N198 1.361 . S
C200 C208 1.457 . S
C201 N196 1.363 1_556 S
C201 N198 1.377 1_556 S
C201 C214 1.479 . S
C202 C199 1.480 . S
C202 C203 1.383 . S
C202 C207 1.385 . S
C203 H184 0.947 1_554 S
C203 C202 1.383 . S
C203 C204 1.387 1_455 S
C204 H185 0.949 . S
C204 C203 1.387 1_655 S
C204 C205 1.382 1_655 S
C205 C204 1.382 1_455 S
C205 C206 1.377 . S
C206 H186 0.953 . S
C206 C205 1.377 . S
C206 C207 1.369 . S
C207 H187 0.945 . S
C207 C202 1.385 . S
C207 C206 1.369 . S
C208 C200 1.457 . S
C208 C209 1.379 . S
C208 C213 1.364 . S
C209 H188 0.947 1_455 S
C209 C208 1.379 . S
C209 C210 1.387 1_455 S
C210 H189 0.954 . S
C210 C209 1.387 1_655 S
C210 C211 1.384 1_655 S
C211 C210 1.384 1_455 S
C211 C212 1.372 . S
C212 H190 0.950 . S
C212 C211 1.372 . S
C212 C213 1.379 . S
C213 H191 0.948 . S
C213 C208 1.364 . S
C213 C212 1.379 . S
C214 C183 1.383 . S
C214 C201 1.479 . S
C214 C215 1.399 . S
C215 C180 1.382 . S
C215 H192 0.950 1_455 S
C215 C214 1.399 . S
C216 C217 1.384 . S
C216 H229 0.948 1_545 S
C216 C251 1.382 . S
C217 C216 1.384 . S
C217 C218 1.378 . S
C218 C217 1.378 . S
C218 C219 1.378 . S
C218 H230 0.952 . S
C219 C218 1.378 . S
C219 H231 0.950 . S
C219 C250 1.383 . S
H220 C239 0.947 1_556 S
H221 C240 0.949 . S
H222 C242 0.953 . S
H223 C243 0.945 . S
H224 C245 0.947 1_565 S
H225 C246 0.954 . S
H226 C248 0.950 . S
H227 C249 0.948 . S
H228 C251 0.950 1_565 S
H229 C216 0.948 1_565 S
H230 C218 0.952 . S
H231 C219 0.950 . S
N232 C235 1.382 . S
N232 C237 1.363 1_554 S
N233 C235 1.371 . S
N233 C236 1.372 . S
N234 C236 1.361 . S
N234 C237 1.377 1_554 S
C235 N232 1.382 . S
C235 N233 1.371 . S
C235 C238 1.480 . S
C236 N233 1.372 . S
C236 N234 1.361 . S
C236 C244 1.457 . S
C237 N232 1.363 1_556 S
C237 N234 1.377 1_556 S
C237 C250 1.479 . S
C238 C235 1.480 . S
C238 C239 1.383 . S
C238 C243 1.385 . S
C239 H220 0.947 1_554 S
C239 C238 1.383 . S
C239 C240 1.387 1_545 S
C240 H221 0.949 . S
C240 C239 1.387 1_565 S
C240 C241 1.382 1_565 S
C241 C240 1.382 1_545 S
C241 C242 1.377 . S
C242 H222 0.953 . S
C242 C241 1.377 . S
C242 C243 1.369 . S
C243 H223 0.945 . S
C243 C238 1.385 . S
C243 C242 1.369 . S
C244 C236 1.457 . S
C244 C245 1.379 . S
C244 C249 1.364 . S
C245 H224 0.947 1_545 S
C245 C244 1.379 . S
C245 C246 1.387 1_545 S
C246 H225 0.954 . S
C246 C245 1.387 1_565 S
C246 C247 1.384 1_565 S
C247 C246 1.384 1_545 S
C247 C248 1.372 . S
C248 H226 0.950 . S
C248 C247 1.372 . S
C248 C249 1.379 . S
C249 H227 0.948 . S
C249 C244 1.364 . S
C249 C248 1.379 . S
C250 C219 1.383 . S
C250 C237 1.479 . S
C250 C251 1.399 . S
C251 C216 1.382 . S
C251 H228 0.950 1_545 S
C251 C250 1.399 . S
C252 C253 1.384 . S
C252 H265 0.947 . S
C252 C287 1.382 . S
C253 C252 1.384 . S
C253 C254 1.378 . S
C254 C253 1.378 . S
C254 C255 1.378 . S
C254 H266 0.952 . S
C255 C254 1.378 . S
C255 H267 0.950 . S
C255 C286 1.383 . S
H256 C275 0.947 . S
H257 C276 0.946 . S
H258 C278 0.953 . S
H259 C279 0.945 1_556 S
H260 C281 0.952 . S
H261 C282 0.949 . S
H262 C284 0.950 . S
H263 C285 0.948 . S
H264 C287 0.951 . S
H265 C252 0.947 . S
H266 C254 0.952 . S
H267 C255 0.950 . S
N268 C271 1.382 . S
N268 C273 1.363 . S
N269 C271 1.371 1_556 S
N269 C272 1.372 . S
N270 C272 1.361 1_554 S
N270 C273 1.377 . S
C271 N268 1.382 . S
C271 N269 1.371 1_554 S
C271 C274 1.480 . S
C272 N269 1.372 . S
C272 N270 1.361 1_556 S
C272 C280 1.457 . S
C273 N268 1.363 . S
C273 N270 1.377 . S
C273 C286 1.479 . S
C274 C271 1.480 . S
C274 C275 1.383 . S
C274 C279 1.385 . S
C275 H256 0.947 . S
C275 C274 1.383 . S
C275 C276 1.388 . S
C276 H257 0.946 . S
C276 C275 1.388 . S
C276 C277 1.384 . S
C277 C276 1.384 . S
C277 C278 1.377 . S
C278 H258 0.953 . S
C278 C277 1.377 . S
C278 C279 1.369 . S
C279 H259 0.945 1_554 S
C279 C274 1.385 . S
C279 C278 1.369 . S
C280 C272 1.457 . S
C280 C281 1.372 . S
C280 C285 1.364 . S
C281 H260 0.952 . S
C281 C280 1.372 . S
C281 C282 1.389 . S
C282 H261 0.949 . S
C282 C281 1.389 . S
C282 C283 1.387 . S
C283 C282 1.387 . S
C283 C284 1.372 . S
C284 H262 0.950 . S
C284 C283 1.372 . S
C284 C285 1.379 . S
C285 H263 0.948 . S
C285 C280 1.364 . S
C285 C284 1.379 . S
C286 C255 1.383 . S
C286 C273 1.479 . S
C286 C287 1.398 . S
C287 C252 1.382 . S
C287 H264 0.951 . S
C287 C286 1.398 . S
Tb288 C298 2.825 . S
Tb288 O299 2.347 1_455 S
Tb288 O302 2.366 . S
Tb288 O307 2.418 . S
Tb288 O308 2.384 1_565 S
Tb288 O311 2.479 . S
Tb288 O312 2.471 . S
Eu289 O300 2.418 . S
Eu289 O301 2.384 1_545 S
Eu289 O304 2.479 . S
Eu289 O305 2.471 . S
Eu289 O306 2.347 1_655 S
Eu289 O309 2.366 . S
Eu289 C319 2.825 . S
C290 O306 1.259 1_565 S
C290 O307 1.265 . S
C291 O308 1.255 . S
C291 O309 1.265 1_455 S
C292 C294 1.380 . S
C292 C295 1.374 . S
C292 C298 1.507 . S
C293 C294 1.384 . S
C293 C297 1.387 . S
C293 H320 0.930 . S
C294 C292 1.380 . S
C294 C293 1.384 . S
C294 H321 0.931 . S
C295 C292 1.374 . S
C295 C296 1.390 . S
C295 H322 0.930 1_455 S
C296 C295 1.390 . S
C296 C297 1.391 . S
C296 H323 0.930 1_455 S
C297 C293 1.387 . S
C297 C296 1.391 . S
C298 Tb288 2.825 . S
C298 C292 1.507 . S
C298 O311 1.238 . S
C298 O312 1.247 . S
O299 Tb288 2.347 1_655 S
O299 C303 1.259 1_565 S
O300 Eu289 2.418 . S
O300 C303 1.265 . S
O301 Eu289 2.384 1_565 S
O301 C310 1.255 . S
O302 Tb288 2.366 . S
O302 C310 1.265 1_455 S
C303 O299 1.259 1_545 S
C303 O300 1.265 . S
O304 Eu289 2.479 . S
O304 C319 1.238 . S
O305 Eu289 2.471 . S
O305 C319 1.247 . S
O306 Eu289 2.347 1_455 S
O306 C290 1.259 1_545 S
O307 Tb288 2.418 . S
O307 C290 1.265 . S
O308 Tb288 2.384 1_545 S
O308 C291 1.255 . S
O309 Eu289 2.366 . S
O309 C291 1.265 1_655 S
C310 O301 1.255 . S
C310 O302 1.265 1_655 S
O311 Tb288 2.479 . S
O311 C298 1.238 . S
O312 Tb288 2.471 . S
O312 C298 1.247 . S
C313 C316 1.380 . S
C313 C317 1.374 . S
C313 C319 1.507 . S
C314 C315 1.387 . S
C314 C318 1.391 . S
C315 C314 1.387 . S
C315 C316 1.384 . S
C315 H324 0.930 . S
C316 C313 1.380 . S
C316 C315 1.384 . S
C316 H325 0.931 . S
C317 C313 1.374 . S
C317 C318 1.390 . S
C317 H326 0.930 1_655 S
C318 C314 1.391 . S
C318 C317 1.390 . S
C318 H327 0.930 1_655 S
C319 Eu289 2.825 . S
C319 O304 1.238 . S
C319 O305 1.247 . S
C319 C313 1.507 . S
H320 C293 0.930 . S
H321 C294 0.931 . S
H322 C295 0.930 1_655 S
H323 C296 0.930 1_655 S
H324 C315 0.930 . S
H325 C316 0.931 . S
H326 C317 0.930 1_455 S
H327 C318 0.930 1_455 S
Tb328 C338 2.825 . S
Tb328 O339 2.347 1_545 S
Tb328 O342 2.366 . S
Tb328 O347 2.418 . S
Tb328 O348 2.384 . S
Tb328 O351 2.479 . S
Tb328 O352 2.471 . S
Eu329 O340 2.418 . S
Eu329 O341 2.384 . S
Eu329 O344 2.479 . S
Eu329 O345 2.471 . S
Eu329 O346 2.347 1_565 S
Eu329 O349 2.366 . S
Eu329 C359 2.825 . S
C330 O346 1.259 . S
C330 O347 1.265 . S
C331 O348 1.255 . S
C331 O349 1.265 1_545 S
C332 C334 1.380 . S
C332 C335 1.374 . S
C332 C338 1.507 . S
C333 C334 1.384 . S
C333 C337 1.387 . S
C333 H360 0.930 . S
C334 C332 1.380 . S
C334 C333 1.384 . S
C334 H361 0.931 . S
C335 C332 1.374 . S
C335 C336 1.390 . S
C335 H362 0.930 1_545 S
C336 C335 1.390 . S
C336 C337 1.391 . S
C336 H363 0.930 1_545 S
C337 C333 1.387 . S
C337 C336 1.391 . S
C338 Tb328 2.825 . S
C338 C332 1.507 . S
C338 O351 1.238 . S
C338 O352 1.247 . S
O339 Tb328 2.347 1_565 S
O339 C343 1.259 . S
O340 Eu329 2.418 . S
O340 C343 1.265 . S
O341 Eu329 2.384 . S
O341 C350 1.255 . S
O342 Tb328 2.366 . S
O342 C350 1.265 1_545 S
C343 O339 1.259 . S
C343 O340 1.265 . S
O344 Eu329 2.479 . S
O344 C359 1.238 . S
O345 Eu329 2.471 . S
O345 C359 1.247 . S
O346 Eu329 2.347 1_545 S
O346 C330 1.259 . S
O347 Tb328 2.418 . S
O347 C330 1.265 . S
O348 Tb328 2.384 . S
O348 C331 1.255 . S
O349 Eu329 2.366 . S
O349 C331 1.265 1_565 S
C350 O341 1.255 . S
C350 O342 1.265 1_565 S
O351 Tb328 2.479 . S
O351 C338 1.238 . S
O352 Tb328 2.471 . S
O352 C338 1.247 . S
C353 C356 1.380 . S
C353 C357 1.374 . S
C353 C359 1.507 . S
C354 C355 1.387 . S
C354 C358 1.391 . S
C355 C354 1.387 . S
C355 C356 1.384 . S
C355 H364 0.930 . S
C356 C353 1.380 . S
C356 C355 1.384 . S
C356 H365 0.931 . S
C357 C353 1.374 . S
C357 C358 1.390 . S
C357 H366 0.930 1_565 S
C358 C354 1.391 . S
C358 C357 1.390 . S
C358 H367 0.930 1_565 S
C359 Eu329 2.825 . S
C359 O344 1.238 . S
C359 O345 1.247 . S
C359 C353 1.507 . S
H360 C333 0.930 . S
H361 C334 0.931 . S
H362 C335 0.930 1_565 S
H363 C336 0.930 1_565 S
H364 C355 0.930 . S
H365 C356 0.931 . S
H366 C357 0.930 1_545 S
H367 C358 0.930 1_545 S
Tb368 C378 2.825 . S
Tb368 O379 2.347 . S
Tb368 O382 2.366 . S
Tb368 O387 2.418 . S
Tb368 O388 2.384 . S
Tb368 O391 2.479 . S
Tb368 O392 2.471 . S
Eu369 O380 2.418 . S
Eu369 O381 2.384 . S
Eu369 O384 2.479 . S
Eu369 O385 2.471 . S
Eu369 O386 2.347 . S
Eu369 O389 2.366 . S
Eu369 C399 2.825 . S
C370 O386 1.259 . S
C370 O387 1.265 . S
C371 O388 1.255 . S
C371 O389 1.265 . S
C372 C374 1.380 . S
C372 C375 1.374 . S
C372 C378 1.507 . S
C373 C374 1.384 . S
C373 C377 1.387 . S
C373 H400 0.930 . S
C374 C372 1.380 . S
C374 C373 1.384 . S
C374 H401 0.931 . S
C375 C372 1.374 . S
C375 C376 1.390 . S
C375 H402 0.930 . S
C376 C375 1.390 . S
C376 C377 1.391 . S
C376 H403 0.930 . S
C377 C373 1.387 . S
C377 C376 1.391 . S
C378 Tb368 2.825 . S
C378 C372 1.507 . S
C378 O391 1.238 . S
C378 O392 1.247 . S
O379 Tb368 2.347 . S
O379 C383 1.259 . S
O380 Eu369 2.418 . S
O380 C383 1.265 . S
O381 Eu369 2.384 . S
O381 C390 1.255 . S
O382 Tb368 2.366 . S
O382 C390 1.265 . S
C383 O379 1.259 . S
C383 O380 1.265 . S
O384 Eu369 2.479 . S
O384 C399 1.238 . S
O385 Eu369 2.471 . S
O385 C399 1.247 . S
O386 Eu369 2.347 . S
O386 C370 1.259 . S
O387 Tb368 2.418 . S
O387 C370 1.265 . S
O388 Tb368 2.384 . S
O388 C371 1.255 . S
O389 Eu369 2.366 . S
O389 C371 1.265 . S
C390 O381 1.255 . S
C390 O382 1.265 . S
O391 Tb368 2.479 . S
O391 C378 1.238 . S
O392 Tb368 2.471 . S
O392 C378 1.247 . S
C393 C396 1.380 . S
C393 C397 1.374 . S
C393 C399 1.507 . S
C394 C395 1.387 . S
C394 C398 1.391 . S
C395 C394 1.387 . S
C395 C396 1.384 . S
C395 H404 0.930 . S
C396 C393 1.380 . S
C396 C395 1.384 . S
C396 H405 0.931 . S
C397 C393 1.374 . S
C397 C398 1.390 . S
C397 H406 0.930 . S
C398 C394 1.391 . S
C398 C397 1.390 . S
C398 H407 0.930 . S
C399 Eu369 2.825 . S
C399 O384 1.238 . S
C399 O385 1.247 . S
C399 C393 1.507 . S
H400 C373 0.930 . S
H401 C374 0.931 . S
H402 C375 0.930 . S
H403 C376 0.930 . S
H404 C395 0.930 . S
H405 C396 0.931 . S
H406 C397 0.930 . S
H407 C398 0.930 . S
Tb408 C418 2.825 . S
Tb408 O419 2.347 . S
Tb408 O422 2.366 . S
Tb408 O427 2.418 . S
Tb408 O428 2.384 1_655 S
Tb408 O431 2.479 . S
Tb408 O432 2.471 . S
Eu409 O420 2.418 . S
Eu409 O421 2.384 1_455 S
Eu409 O424 2.479 . S
Eu409 O425 2.471 . S
Eu409 O426 2.347 . S
Eu409 O429 2.366 . S
Eu409 C439 2.825 . S
C410 O426 1.259 1_655 S
C410 O427 1.265 . S
C411 O428 1.255 . S
C411 O429 1.265 . S
C412 C414 1.380 . S
C412 C415 1.374 . S
C412 C418 1.507 . S
C413 C414 1.384 . S
C413 C417 1.387 . S
C413 H440 0.930 . S
C414 C412 1.380 . S
C414 C413 1.384 . S
C414 H441 0.931 . S
C415 C412 1.374 . S
C415 C416 1.390 . S
C415 H442 0.930 . S
C416 C415 1.390 . S
C416 C417 1.391 . S
C416 H443 0.930 . S
C417 C413 1.387 . S
C417 C416 1.391 . S
C418 Tb408 2.825 . S
C418 C412 1.507 . S
C418 O431 1.238 . S
C418 O432 1.247 . S
O419 Tb408 2.347 . S
O419 C423 1.259 1_655 S
O420 Eu409 2.418 . S
O420 C423 1.265 . S
O421 Eu409 2.384 1_655 S
O421 C430 1.255 . S
O422 Tb408 2.366 . S
O422 C430 1.265 . S
C423 O419 1.259 1_455 S
C423 O420 1.265 . S
O424 Eu409 2.479 . S
O424 C439 1.238 . S
O425 Eu409 2.471 . S
O425 C439 1.247 . S
O426 Eu409 2.347 . S
O426 C410 1.259 1_455 S
O427 Tb408 2.418 . S
O427 C410 1.265 . S
O428 Tb408 2.384 1_455 S
O428 C411 1.255 . S
O429 Eu409 2.366 . S
O429 C411 1.265 . S
C430 O421 1.255 . S
C430 O422 1.265 . S
O431 Tb408 2.479 . S
O431 C418 1.238 . S
O432 Tb408 2.471 . S
O432 C418 1.247 . S
C433 C436 1.380 . S
C433 C437 1.374 . S
C433 C439 1.507 . S
C434 C435 1.387 . S
C434 C438 1.391 . S
C435 C434 1.387 . S
C435 C436 1.384 . S
C435 H444 0.930 . S
C436 C433 1.380 . S
C436 C435 1.384 . S
C436 H445 0.931 . S
C437 C433 1.374 . S
C437 C438 1.390 . S
C437 H446 0.930 . S
C438 C434 1.391 . S
C438 C437 1.390 . S
C438 H447 0.930 . S
C439 Eu409 2.825 . S
C439 O424 1.238 . S
C439 O425 1.247 . S
C439 C433 1.507 . S
H440 C413 0.930 . S
H441 C414 0.931 . S
H442 C415 0.930 . S
H443 C416 0.930 . S
H444 C435 0.930 . S
H445 C436 0.931 . S
H446 C437 0.930 . S
H447 C438 0.930 . S
H448 C460 0.930 . S
H449 C462 0.930 . S
H450 C463 0.930 . S
H451 C467 0.959 . S
H452 C467 0.959 . S
H453 C467 0.961 . S
H454 C468 0.960 . S
H455 C468 0.961 . S
H456 C468 0.959 . S
H457 C471 0.929 . S
H458 C472 0.931 . S
H459 C474 0.930 . S
C460 H448 0.930 . S
C460 C461 1.399 1_565 S
C460 C465 1.399 . S
C461 C460 1.399 1_545 S
C461 C462 1.376 . S
C462 H449 0.930 . S
C462 C461 1.376 . S
C462 C463 1.388 . S
C463 H450 0.930 . S
C463 C462 1.388 . S
C463 C464 1.390 . S
C464 C463 1.390 . S
C464 C465 1.394 1_545 S
C464 C470 1.465 . S
C465 C460 1.399 . S
C465 C464 1.394 1_565 S
C465 C466 1.516 . S
C466 C465 1.516 . S
C466 C467 1.502 . S
C466 C468 1.561 . S
C466 C469 1.526 . S
C467 H451 0.959 . S
C467 H452 0.959 . S
C467 H453 0.961 . S
C467 C466 1.502 . S
C468 H454 0.960 . S
C468 H455 0.961 . S
C468 H456 0.959 . S
C468 C466 1.561 . S
C469 C466 1.526 . S
C469 C470 1.396 1_565 S
C469 C474 1.390 . S
C470 C464 1.465 . S
C470 C469 1.396 1_545 S
C470 C471 1.399 . S
C471 H457 0.929 . S
C471 C470 1.399 . S
C471 C472 1.385 . S
C472 H458 0.931 . S
C472 C471 1.385 . S
C472 C473 1.389 . S
C473 C472 1.389 . S
C473 C474 1.387 1_545 S
C474 H459 0.930 . S
C474 C469 1.390 . S
C474 C473 1.387 1_565 S
H475 C487 0.930 . S
H476 C489 0.930 . S
H477 C490 0.930 . S
H478 C494 0.959 . S
H479 C494 0.959 . S
H480 C494 0.961 . S
H481 C495 0.960 . S
H482 C495 0.961 . S
H483 C495 0.959 . S
H484 C498 0.929 . S
H485 C499 0.931 . S
H486 C501 0.930 . S
C487 H475 0.930 . S
C487 C488 1.399 . S
C487 C492 1.399 . S
C488 C487 1.399 . S
C488 C489 1.376 . S
C489 H476 0.930 . S
C489 C488 1.376 . S
C489 C490 1.388 . S
C490 H477 0.930 . S
C490 C489 1.388 . S
C490 C491 1.390 . S
C491 C490 1.390 . S
C491 C492 1.394 . S
C491 C497 1.465 . S
C492 C487 1.399 . S
C492 C491 1.394 . S
C492 C493 1.516 . S
C493 C492 1.516 . S
C493 C494 1.502 . S
C493 C495 1.561 . S
C493 C496 1.526 . S
C494 H478 0.959 . S
C494 H479 0.959 . S
C494 H480 0.961 . S
C494 C493 1.502 . S
C495 H481 0.960 . S
C495 H482 0.961 . S
C495 H483 0.959 . S
C495 C493 1.561 . S
C496 C493 1.526 . S
C496 C497 1.396 . S
C496 C501 1.390 . S
C497 C491 1.465 . S
C497 C496 1.396 . S
C497 C498 1.399 . S
C498 H484 0.929 . S
C498 C497 1.399 . S
C498 C499 1.385 . S
C499 H485 0.931 . S
C499 C498 1.385 . S
C499 C500 1.389 . S
C500 C499 1.389 . S
C500 C501 1.387 . S
C501 H486 0.930 . S
C501 C496 1.390 . S
C501 C500 1.387 . S
H502 C514 0.930 . S
H503 C516 0.930 . S
H504 C517 0.930 . S
H505 C521 0.959 . S
H506 C521 0.959 . S
H507 C521 0.961 . S
H508 C522 0.960 . S
H509 C522 0.961 . S
H510 C522 0.959 . S
H511 C525 0.929 . S
H512 C526 0.931 . S
H513 C528 0.930 . S
C514 H502 0.930 . S
C514 C515 1.399 . S
C514 C519 1.399 . S
C515 C514 1.399 . S
C515 C516 1.376 . S
C516 H503 0.930 . S
C516 C515 1.376 . S
C516 C517 1.388 . S
C517 H504 0.930 . S
C517 C516 1.388 . S
C517 C518 1.390 . S
C518 C517 1.390 . S
C518 C519 1.394 . S
C518 C524 1.465 . S
C519 C514 1.399 . S
C519 C518 1.394 . S
C519 C520 1.516 . S
C520 C519 1.516 . S
C520 C521 1.502 . S
C520 C522 1.561 . S
C520 C523 1.526 . S
C521 H505 0.959 . S
C521 H506 0.959 . S
C521 H507 0.961 . S
C521 C520 1.502 . S
C522 H508 0.960 . S
C522 H509 0.961 . S
C522 H510 0.959 . S
C522 C520 1.561 . S
C523 C520 1.526 . S
C523 C524 1.396 . S
C523 C528 1.390 . S
C524 C518 1.465 . S
C524 C523 1.396 . S
C524 C525 1.399 . S
C525 H511 0.929 . S
C525 C524 1.399 . S
C525 C526 1.385 . S
C526 H512 0.931 . S
C526 C525 1.385 . S
C526 C527 1.389 . S
C527 C526 1.389 . S
C527 C528 1.387 . S
C528 H513 0.930 . S
C528 C523 1.390 . S
C528 C527 1.387 . S
H529 C541 0.930 . S
H530 C543 0.930 . S
H531 C544 0.930 . S
H532 C548 0.959 . S
H533 C548 0.959 . S
H534 C548 0.961 . S
H535 C549 0.960 . S
H536 C549 0.961 . S
H537 C549 0.959 1_655 S
H538 C552 0.929 . S
H539 C553 0.931 . S
H540 C555 0.930 . S
C541 H529 0.930 . S
C541 C542 1.399 1_455 S
C541 C546 1.399 . S
C542 C541 1.399 1_655 S
C542 C543 1.376 . S
C543 H530 0.930 . S
C543 C542 1.376 . S
C543 C544 1.388 . S
C544 H531 0.930 . S
C544 C543 1.388 . S
C544 C545 1.390 . S
C545 C544 1.390 . S
C545 C546 1.394 1_655 S
C545 C551 1.465 . S
C546 C541 1.399 . S
C546 C545 1.394 1_455 S
C546 C547 1.516 . S
C547 C546 1.516 . S
C547 C548 1.502 . S
C547 C549 1.561 . S
C547 C550 1.526 . S
C548 H532 0.959 . S
C548 H533 0.959 . S
C548 H534 0.961 . S
C548 C547 1.502 . S
C549 H535 0.960 . S
C549 H536 0.961 . S
C549 H537 0.959 1_455 S
C549 C547 1.561 . S
C550 C547 1.526 . S
C550 C551 1.396 1_455 S
C550 C555 1.390 . S
C551 C545 1.465 . S
C551 C550 1.396 1_655 S
C551 C552 1.399 . S
C552 H538 0.929 . S
C552 C551 1.399 . S
C552 C553 1.385 . S
C553 H539 0.931 . S
C553 C552 1.385 . S
C553 C554 1.389 . S
C554 C553 1.389 . S
C554 C555 1.387 1_655 S
C555 H540 0.930 . S
C555 C550 1.390 . S
C555 C554 1.387 1_455 S
H556 C568 0.930 . S
H557 C570 0.930 . S
H558 C571 0.930 . S
H559 C575 0.959 . S
H560 C575 0.959 1_556 S
H561 C575 0.961 . S
H562 C576 0.960 1_554 S
H563 C576 0.961 . S
H564 C576 0.959 . S
H565 C579 0.929 . S
H566 C580 0.931 . S
H567 C582 0.930 . S
C568 H556 0.930 . S
C568 C569 1.399 1_565 S
C568 C573 1.399 . S
C569 C568 1.399 1_545 S
C569 C570 1.376 . S
C570 H557 0.930 . S
C570 C569 1.376 . S
C570 C571 1.388 . S
C571 H558 0.930 . S
C571 C570 1.388 . S
C571 C572 1.390 . S
C572 C571 1.390 . S
C572 C573 1.394 1_545 S
C572 C578 1.465 . S
C573 C568 1.399 . S
C573 C572 1.394 1_565 S
C573 C574 1.516 . S
C574 C573 1.516 . S
C574 C575 1.502 . S
C574 C576 1.561 1_554 S
C574 C577 1.526 1_554 S
C575 H559 0.959 . S
C575 H560 0.959 1_554 S
C575 H561 0.961 . S
C575 C574 1.502 . S
C576 H562 0.960 1_556 S
C576 H563 0.961 . S
C576 H564 0.959 . S
C576 C574 1.561 1_556 S
C577 C574 1.526 1_556 S
C577 C578 1.396 1_566 S
C577 C582 1.390 . S
C578 C572 1.465 . S
C578 C577 1.396 1_544 S
C578 C579 1.399 1_554 S
C579 H565 0.929 . S
C579 C578 1.399 1_556 S
C579 C580 1.385 . S
C580 H566 0.931 . S
C580 C579 1.385 . S
C580 C581 1.389 . S
C581 C580 1.389 . S
C581 C582 1.387 1_545 S
C582 H567 0.930 . S
C582 C577 1.390 . S
C582 C581 1.387 1_565 S
H583 C595 0.930 . S
H584 C597 0.930 . S
H585 C598 0.930 . S
H586 C602 0.959 . S
H587 C602 0.959 . S
H588 C602 0.961 1_554 S
H589 C603 0.960 1_554 S
H590 C603 0.961 . S
H591 C603 0.959 . S
H592 C606 0.929 1_554 S
H593 C607 0.931 . S
H594 C609 0.930 . S
C595 H583 0.930 . S
C595 C596 1.399 . S
C595 C600 1.399 . S
C596 C595 1.399 . S
C596 C597 1.376 . S
C597 H584 0.930 . S
C597 C596 1.376 . S
C597 C598 1.388 . S
C598 H585 0.930 . S
C598 C597 1.388 . S
C598 C599 1.390 . S
C599 C598 1.390 . S
C599 C600 1.394 . S
C599 C605 1.465 . S
C600 C595 1.399 . S
C600 C599 1.394 . S
C600 C601 1.516 . S
C601 C600 1.516 . S
C601 C602 1.502 1_554 S
C601 C603 1.561 1_554 S
C601 C604 1.526 1_554 S
C602 H586 0.959 . S
C602 H587 0.959 . S
C602 H588 0.961 1_556 S
C602 C601 1.502 1_556 S
C603 H589 0.960 1_556 S
C603 H590 0.961 . S
C603 H591 0.959 . S
C603 C601 1.561 1_556 S
C604 C601 1.526 1_556 S
C604 C605 1.396 1_556 S
C604 C609 1.390 . S
C605 C599 1.465 . S
C605 C604 1.396 1_554 S
C605 C606 1.399 1_554 S
C606 H592 0.929 1_556 S
C606 C605 1.399 1_556 S
C606 C607 1.385 . S
C607 H593 0.931 . S
C607 C606 1.385 . S
C607 C608 1.389 . S
C608 C607 1.389 . S
C608 C609 1.387 . S
C609 H594 0.930 . S
C609 C604 1.390 . S
C609 C608 1.387 . S
H610 C622 0.930 . S
H611 C624 0.930 . S
H612 C625 0.930 . S
H613 C629 0.959 . S
H614 C629 0.959 . S
H615 C629 0.961 1_554 S
H616 C630 0.960 . S
H617 C630 0.961 . S
H618 C630 0.959 . S
H619 C633 0.929 . S
H620 C634 0.931 . S
H621 C636 0.930 . S
C622 H610 0.930 . S
C622 C623 1.399 . S
C622 C627 1.399 . S
C623 C622 1.399 . S
C623 C624 1.376 . S
C624 H611 0.930 . S
C624 C623 1.376 . S
C624 C625 1.388 . S
C625 H612 0.930 . S
C625 C624 1.388 . S
C625 C626 1.390 . S
C626 C625 1.390 . S
C626 C627 1.394 . S
C626 C632 1.465 . S
C627 C622 1.399 . S
C627 C626 1.394 . S
C627 C628 1.516 . S
C628 C627 1.516 . S
C628 C629 1.502 1_554 S
C628 C630 1.561 . S
C628 C631 1.526 1_554 S
C629 H613 0.959 . S
C629 H614 0.959 . S
C629 H615 0.961 1_556 S
C629 C628 1.502 1_556 S
C630 H616 0.960 . S
C630 H617 0.961 . S
C630 H618 0.959 . S
C630 C628 1.561 . S
C631 C628 1.526 1_556 S
C631 C632 1.396 1_556 S
C631 C636 1.390 . S
C632 C626 1.465 . S
C632 C631 1.396 1_554 S
C632 C633 1.399 1_554 S
C633 H619 0.929 . S
C633 C632 1.399 1_556 S
C633 C634 1.385 . S
C634 H620 0.931 . S
C634 C633 1.385 . S
C634 C635 1.389 . S
C635 C634 1.389 . S
C635 C636 1.387 . S
C636 H621 0.930 . S
C636 C631 1.390 . S
C636 C635 1.387 . S
H637 C649 0.930 . S
H638 C651 0.930 . S
H639 C652 0.930 . S
H640 C656 0.959 . S
H641 C656 0.959 . S
H642 C656 0.961 . S
H643 C657 0.960 . S
H644 C657 0.961 . S
H645 C657 0.959 . S
H646 C660 0.929 . S
H647 C661 0.931 . S
H648 C663 0.930 . S
C649 H637 0.930 . S
C649 C650 1.399 1_455 S
C649 C654 1.399 . S
C650 C649 1.399 1_655 S
C650 C651 1.376 . S
C651 H638 0.930 . S
C651 C650 1.376 . S
C651 C652 1.388 . S
C652 H639 0.930 . S
C652 C651 1.388 . S
C652 C653 1.390 . S
C653 C652 1.390 . S
C653 C654 1.394 1_655 S
C653 C659 1.465 1_554 S
C654 C649 1.399 . S
C654 C653 1.394 1_455 S
C654 C655 1.516 . S
C655 C654 1.516 . S
C655 C656 1.502 . S
C655 C657 1.561 1_455 S
C655 C658 1.526 1_554 S
C656 H640 0.959 . S
C656 H641 0.959 . S
C656 H642 0.961 . S
C656 C655 1.502 . S
C657 H643 0.960 . S
C657 H644 0.961 . S
C657 H645 0.959 . S
C657 C655 1.561 1_655 S
C658 C655 1.526 1_556 S
C658 C659 1.396 1_455 S
C658 C663 1.390 . S
C659 C653 1.465 1_556 S
C659 C658 1.396 1_655 S
C659 C660 1.399 . S
C660 H646 0.929 . S
C660 C659 1.399 . S
C660 C661 1.385 . S
C661 H647 0.931 . S
C661 C660 1.385 . S
C661 C662 1.389 . S
C662 C661 1.389 . S
C662 C663 1.387 1_655 S
C663 H648 0.930 . S
C663 C658 1.390 . S
C663 C662 1.387 1_455 S
H664 C676 0.922 1_455 S
H665 C678 0.930 . S
H666 C679 0.930 . S
H667 C683 0.959 . S
H668 C683 0.959 . S
H669 C683 0.961 . S
H670 C684 0.960 . S
H671 C684 0.961 . S
H672 C684 0.959 . S
H673 C687 0.929 . S
H674 C688 0.931 . S
H675 C690 0.930 . S
C676 H664 0.922 1_655 S
C676 C677 1.398 1_655 S
C676 C681 1.409 . S
C677 C676 1.398 1_455 S
C677 C678 1.376 1_455 S
C678 H665 0.930 . S
C678 C677 1.376 1_655 S
C678 C679 1.388 . S
C679 H666 0.930 . S
C679 C678 1.388 . S
C679 C680 1.390 . S
C680 C679 1.390 . S
C680 C681 1.394 . S
C680 C686 1.465 . S
C681 C676 1.409 . S
C681 C680 1.394 . S
C681 C682 1.516 . S
C682 C681 1.516 . S
C682 C683 1.502 1_655 S
C682 C684 1.561 . S
C682 C685 1.526 . S
C683 H667 0.959 . S
C683 H668 0.959 . S
C683 H669 0.961 . S
C683 C682 1.502 1_455 S
C684 H670 0.960 . S
C684 H671 0.961 . S
C684 H672 0.959 . S
C684 C682 1.561 . S
C685 C682 1.526 . S
C685 C686 1.396 . S
C685 C690 1.390 . S
C686 C680 1.465 . S
C686 C685 1.396 . S
C686 C687 1.399 . S
C687 H673 0.929 . S
C687 C686 1.399 . S
C687 C688 1.385 . S
C688 H674 0.931 . S
C688 C687 1.385 . S
C688 C689 1.389 . S
C689 C688 1.389 . S
C689 C690 1.387 . S
C690 H675 0.930 . S
C690 C685 1.390 . S
C690 C689 1.387 . S
H691 C703 0.930 . S
H692 C705 0.930 . S
H693 C706 0.930 . S
H694 C710 0.959 . S
H695 C710 0.959 . S
H696 C710 0.961 . S
H697 C711 0.960 . S
H698 C711 0.961 . S
H699 C711 0.959 . S
H700 C714 0.929 1_545 S
H701 C715 0.931 . S
H702 C717 0.930 . S
C703 H691 0.930 . S
C703 C704 1.399 1_565 S
C703 C708 1.399 . S
C704 C703 1.399 1_545 S
C704 C705 1.376 . S
C705 H692 0.930 . S
C705 C704 1.376 . S
C705 C706 1.388 . S
C706 H693 0.930 . S
C706 C705 1.388 . S
C706 C707 1.390 1_545 S
C707 C706 1.390 1_565 S
C707 C708 1.394 . S
C707 C713 1.465 . S
C708 C703 1.399 . S
C708 C707 1.394 . S
C708 C709 1.516 . S
C709 C708 1.516 . S
C709 C710 1.502 . S
C709 C711 1.561 . S
C709 C712 1.526 . S
C710 H694 0.959 . S
C710 H695 0.959 . S
C710 H696 0.961 . S
C710 C709 1.502 . S
C711 H697 0.960 . S
C711 H698 0.961 . S
C711 H699 0.959 . S
C711 C709 1.561 . S
C712 C709 1.526 . S
C712 C713 1.396 . S
C712 C717 1.390 . S
C713 C707 1.465 . S
C713 C712 1.396 . S
C713 C714 1.399 . S
C714 H700 0.929 1_565 S
C714 C713 1.399 . S
C714 C715 1.385 . S
C715 H701 0.931 . S
C715 C714 1.385 . S
C715 C716 1.389 . S
C716 C715 1.389 . S
C716 C717 1.387 . S
C717 H702 0.930 . S
C717 C712 1.390 . S
C717 C716 1.387 . S
H718 C730 0.930 . S
H719 C732 0.930 . S
H720 C733 0.930 . S
H721 C737 0.959 . S
H722 C737 0.959 . S
H723 C737 0.961 . S
H724 C738 0.960 . S
H725 C738 0.961 . S
H726 C738 0.959 . S
H727 C741 0.929 . S
H728 C742 0.931 . S
H729 C744 0.930 . S
C730 H718 0.930 . S
C730 C731 1.399 . S
C730 C735 1.399 . S
C731 C730 1.399 . S
C731 C732 1.376 . S
C732 H719 0.930 . S
C732 C731 1.376 . S
C732 C733 1.388 . S
C733 H720 0.930 . S
C733 C732 1.388 . S
C733 C734 1.390 . S
C734 C733 1.390 . S
C734 C735 1.394 . S
C734 C740 1.465 . S
C735 C730 1.399 . S
C735 C734 1.394 . S
C735 C736 1.516 . S
C736 C735 1.516 . S
C736 C737 1.502 . S
C736 C738 1.561 . S
C736 C739 1.526 . S
C737 H721 0.959 . S
C737 H722 0.959 . S
C737 H723 0.961 . S
C737 C736 1.502 . S
C738 H724 0.960 . S
C738 H725 0.961 . S
C738 H726 0.959 . S
C738 C736 1.561 . S
C739 C736 1.526 . S
C739 C740 1.396 . S
C739 C744 1.390 . S
C740 C734 1.465 . S
C740 C739 1.396 . S
C740 C741 1.399 . S
C741 H727 0.929 . S
C741 C740 1.399 . S
C741 C742 1.385 . S
C742 H728 0.931 . S
C742 C741 1.385 . S
C742 C743 1.389 . S
C743 C742 1.389 . S
C743 C744 1.387 . S
C744 H729 0.930 . S
C744 C739 1.390 . S
C744 C743 1.387 . S
H745 C757 0.930 . S
H746 C759 0.930 . S
H747 C760 0.930 . S
H748 C764 0.959 . S
H749 C764 0.959 . S
H750 C764 0.961 . S
H751 C765 0.960 . S
H752 C765 0.961 . S
H753 C765 0.959 . S
H754 C768 0.929 . S
H755 C769 0.931 . S
H756 C771 0.930 . S
C757 H745 0.930 . S
C757 C758 1.399 . S
C757 C762 1.399 . S
C758 C757 1.399 . S
C758 C759 1.376 . S
C759 H746 0.930 . S
C759 C758 1.376 . S
C759 C760 1.388 . S
C760 H747 0.930 . S
C760 C759 1.388 . S
C760 C761 1.390 . S
C761 C760 1.390 . S
C761 C762 1.394 . S
C761 C767 1.465 . S
C762 C757 1.399 . S
C762 C761 1.394 . S
C762 C763 1.516 . S
C763 C762 1.516 . S
C763 C764 1.502 . S
C763 C765 1.561 . S
C763 C766 1.526 . S
C764 H748 0.959 . S
C764 H749 0.959 . S
C764 H750 0.961 . S
C764 C763 1.502 . S
C765 H751 0.960 . S
C765 H752 0.961 . S
C765 H753 0.959 . S
C765 C763 1.561 . S
C766 C763 1.526 . S
C766 C767 1.396 . S
C766 C771 1.390 . S
C767 C761 1.465 . S
C767 C766 1.396 . S
C767 C768 1.399 . S
C768 H754 0.929 . S
C768 C767 1.399 . S
C768 C769 1.385 . S
C769 H755 0.931 . S
C769 C768 1.385 . S
C769 C770 1.389 . S
C770 C769 1.389 . S
C770 C771 1.387 . S
C771 H756 0.930 . S
C771 C766 1.390 . S
C771 C770 1.387 . S
H772 C784 0.930 . S
H773 C786 0.930 . S
H774 C787 0.930 . S
H775 C791 0.959 . S
H776 C791 0.959 . S
H777 C791 0.961 1_554 S
H778 C792 0.960 . S
H779 C792 0.961 . S
H780 C792 0.959 . S
H781 C795 0.929 . S
H782 C796 0.931 . S
H783 C798 0.957 . S
C784 H772 0.930 . S
C784 C785 1.401 . S
C784 C789 1.399 . S
C785 C784 1.401 . S
C785 C786 1.373 1_655 S
C786 H773 0.930 . S
C786 C785 1.373 1_455 S
C786 C787 1.388 . S
C787 H774 0.930 . S
C787 C786 1.388 . S
C787 C788 1.390 . S
C788 C787 1.390 . S
C788 C789 1.394 1_455 S
C788 C794 1.465 . S
C789 C784 1.399 . S
C789 C788 1.394 1_655 S
C789 C790 1.516 . S
C790 C789 1.516 . S
C790 C791 1.502 1_554 S
C790 C792 1.561 . S
C790 C793 1.526 1_655 S
C791 H775 0.959 . S
C791 H776 0.959 . S
C791 H777 0.961 1_556 S
C791 C790 1.502 1_556 S
C792 H778 0.960 . S
C792 H779 0.961 . S
C792 H780 0.959 . S
C792 C790 1.561 . S
C793 C790 1.526 1_455 S
C793 C794 1.396 . S
C793 C798 1.390 1_554 S
C794 C788 1.465 . S
C794 C793 1.396 . S
C794 C795 1.399 . S
C795 H781 0.929 . S
C795 C794 1.399 . S
C795 C796 1.385 1_554 S
C796 H782 0.931 . S
C796 C795 1.385 1_556 S
C796 C797 1.389 . S
C797 C796 1.389 . S
C797 C798 1.387 . S
C798 H783 0.957 . S
C798 C793 1.390 1_556 S
C798 C797 1.387 . S
H799 C811 0.930 . S
H800 C813 0.930 . S
H801 C814 0.930 . S
H802 C818 0.959 . S
H803 C818 0.959 . S
H804 C818 0.961 . S
H805 C819 0.960 . S
H806 C819 0.961 . S
H807 C819 0.959 . S
H808 C822 0.929 . S
H809 C823 0.931 . S
H810 C825 0.930 . S
C811 H799 0.930 . S
C811 C812 1.399 1_545 S
C811 C816 1.399 . S
C812 C811 1.399 1_565 S
C812 C813 1.376 . S
C813 H800 0.930 . S
C813 C812 1.376 . S
C813 C814 1.388 1_554 S
C814 H801 0.930 . S
C814 C813 1.388 1_556 S
C814 C815 1.390 1_566 S
C815 C814 1.390 1_544 S
C815 C816 1.394 . S
C815 C821 1.465 1_554 S
C816 C811 1.399 . S
C816 C815 1.394 . S
C816 C817 1.516 . S
C817 C816 1.516 . S
C817 C818 1.502 . S
C817 C819 1.561 . S
C817 C820 1.526 . S
C818 H802 0.959 . S
C818 H803 0.959 . S
C818 H804 0.961 . S
C818 C817 1.502 . S
C819 H805 0.960 . S
C819 H806 0.961 . S
C819 H807 0.959 . S
C819 C817 1.561 . S
C820 C817 1.526 . S
C820 C821 1.396 1_554 S
C820 C825 1.390 . S
C821 C815 1.465 1_556 S
C821 C820 1.396 1_556 S
C821 C822 1.399 . S
C822 H808 0.929 . S
C822 C821 1.399 . S
C822 C823 1.385 . S
C823 H809 0.931 . S
C823 C822 1.385 . S
C823 C824 1.389 . S
C824 C823 1.389 . S
C824 C825 1.387 1_556 S
C825 H810 0.930 . S
C825 C820 1.390 . S
C825 C824 1.387 1_554 S
H826 C838 0.930 . S
H827 C840 0.930 . S
H828 C841 0.930 . S
H829 C845 0.959 . S
H830 C845 0.959 . S
H831 C845 0.961 . S
H832 C846 0.960 . S
H833 C846 0.961 . S
H834 C846 0.959 . S
H835 C849 0.929 . S
H836 C850 0.931 . S
H837 C852 0.930 . S
C838 H826 0.930 . S
C838 C839 1.399 . S
C838 C843 1.399 . S
C839 C838 1.399 . S
C839 C840 1.376 . S
C840 H827 0.930 . S
C840 C839 1.376 . S
C840 C841 1.388 . S
C841 H828 0.930 . S
C841 C840 1.388 . S
C841 C842 1.390 . S
C842 C841 1.390 . S
C842 C843 1.394 . S
C842 C848 1.465 . S
C843 C838 1.399 . S
C843 C842 1.394 . S
C843 C844 1.516 1_554 S
C844 C843 1.516 1_556 S
C844 C845 1.502 . S
C844 C846 1.561 . S
C844 C847 1.526 . S
C845 H829 0.959 . S
C845 H830 0.959 . S
C845 H831 0.961 . S
C845 C844 1.502 . S
C846 H832 0.960 . S
C846 H833 0.961 . S
C846 H834 0.959 . S
C846 C844 1.561 . S
C847 C844 1.526 . S
C847 C848 1.396 1_556 S
C847 C852 1.390 . S
C848 C842 1.465 . S
C848 C847 1.396 1_554 S
C848 C849 1.399 . S
C849 H835 0.929 . S
C849 C848 1.399 . S
C849 C850 1.385 . S
C850 H836 0.931 . S
C850 C849 1.385 . S
C850 C851 1.389 1_554 S
C851 C850 1.389 1_556 S
C851 C852 1.387 . S
C852 H837 0.930 . S
C852 C847 1.390 . S
C852 C851 1.387 . S
H853 C865 0.930 . S
H854 C867 0.930 . S
H855 C868 0.930 . S
H856 C872 0.959 . S
H857 C872 0.959 . S
H858 C872 0.961 . S
H859 C873 0.960 . S
H860 C873 0.961 . S
H861 C873 0.959 1_554 S
H862 C876 0.929 . S
H863 C877 0.931 . S
H864 C879 0.930 . S
C865 H853 0.930 . S
C865 C866 1.399 . S
C865 C870 1.399 . S
C866 C865 1.399 . S
C866 C867 1.376 . S
C867 H854 0.930 . S
C867 C866 1.376 . S
C867 C868 1.388 . S
C868 H855 0.930 . S
C868 C867 1.388 . S
C868 C869 1.390 . S
C869 C868 1.390 . S
C869 C870 1.394 . S
C869 C875 1.465 . S
C870 C865 1.399 . S
C870 C869 1.394 . S
C870 C871 1.516 1_554 S
C871 C870 1.516 1_556 S
C871 C872 1.502 . S
C871 C873 1.561 . S
C871 C874 1.526 . S
C872 H856 0.959 . S
C872 H857 0.959 . S
C872 H858 0.961 . S
C872 C871 1.502 . S
C873 H859 0.960 . S
C873 H860 0.961 . S
C873 H861 0.959 1_556 S
C873 C871 1.561 . S
C874 C871 1.526 . S
C874 C875 1.396 1_556 S
C874 C879 1.390 . S
C875 C869 1.465 . S
C875 C874 1.396 1_554 S
C875 C876 1.399 . S
C876 H862 0.929 . S
C876 C875 1.399 . S
C876 C877 1.385 . S
C877 H863 0.931 . S
C877 C876 1.385 . S
C877 C878 1.389 1_554 S
C878 C877 1.389 1_556 S
C878 C879 1.387 . S
C879 H864 0.930 . S
C879 C874 1.390 . S
C879 C878 1.387 . S
H880 C892 0.930 . S
H881 C894 0.930 . S
H882 C895 0.930 . S
H883 C899 0.959 1_655 S
H884 C899 0.959 . S
H885 C899 0.961 . S
H886 C900 0.960 . S
H887 C900 0.961 . S
H888 C900 0.959 . S
H889 C903 0.940 . S
H890 C904 0.921 1_655 S
H891 C906 0.930 . S
C892 H880 0.930 . S
C892 C893 1.399 . S
C892 C897 1.399 . S
C893 C892 1.399 . S
C893 C894 1.376 1_455 S
C894 H881 0.930 . S
C894 C893 1.376 1_655 S
C894 C895 1.388 . S
C895 H882 0.930 . S
C895 C894 1.388 . S
C895 C896 1.390 1_655 S
C896 C895 1.390 1_455 S
C896 C897 1.394 . S
C896 C902 1.465 . S
C897 C892 1.399 . S
C897 C896 1.394 . S
C897 C898 1.516 . S
C898 C897 1.516 . S
C898 C899 1.502 . S
C898 C900 1.561 . S
C898 C901 1.526 . S
C899 H883 0.959 1_455 S
C899 H884 0.959 . S
C899 H885 0.961 . S
C899 C898 1.502 . S
C900 H886 0.960 . S
C900 H887 0.961 . S
C900 H888 0.959 . S
C900 C898 1.561 . S
C901 C898 1.526 . S
C901 C902 1.396 . S
C901 C906 1.390 . S
C902 C896 1.465 . S
C902 C901 1.396 . S
C902 C903 1.392 1_455 S
C903 H889 0.940 . S
C903 C902 1.392 1_655 S
C903 C904 1.382 1_655 S
C904 H890 0.921 1_455 S
C904 C903 1.382 1_455 S
C904 C905 1.405 . S
C905 C904 1.405 . S
C905 C906 1.387 . S
C906 H891 0.930 . S
C906 C901 1.390 . S
C906 C905 1.387 . S
H907 C919 0.930 . S
H908 C921 0.930 . S
H909 C922 0.930 . S
H910 C926 0.959 . S
H911 C926 0.959 . S
H912 C926 0.961 . S
H913 C927 0.960 . S
H914 C927 0.961 . S
H915 C927 0.959 . S
H916 C930 0.929 . S
H917 C931 0.931 . S
H918 C933 0.930 . S
C919 H907 0.930 . S
C919 C920 1.399 . S
C919 C924 1.399 . S
C920 C919 1.399 . S
C920 C921 1.376 . S
C921 H908 0.930 . S
C921 C920 1.376 . S
C921 C922 1.388 . S
C922 H909 0.930 . S
C922 C921 1.388 . S
C922 C923 1.390 . S
C923 C922 1.390 . S
C923 C924 1.394 . S
C923 C929 1.465 . S
C924 C919 1.399 . S
C924 C923 1.394 . S
C924 C925 1.516 . S
C925 C924 1.516 . S
C925 C926 1.502 1_545 S
C925 C927 1.561 . S
C925 C928 1.526 . S
C926 H910 0.959 . S
C926 H911 0.959 . S
C926 H912 0.961 . S
C926 C925 1.502 1_565 S
C927 H913 0.960 . S
C927 H914 0.961 . S
C927 H915 0.959 . S
C927 C925 1.561 . S
C928 C925 1.526 . S
C928 C929 1.396 . S
C928 C933 1.390 . S
C929 C923 1.465 . S
C929 C928 1.396 . S
C929 C930 1.399 . S
C930 H916 0.929 . S
C930 C929 1.399 . S
C930 C931 1.385 . S
C931 H917 0.931 . S
C931 C930 1.385 . S
C931 C932 1.389 . S
C932 C931 1.389 . S
C932 C933 1.387 . S
C933 H918 0.930 . S
C933 C928 1.390 . S
C933 C932 1.387 . S
H934 C946 0.930 . S
H935 C948 0.930 . S
H936 C949 0.930 . S
H937 C953 0.959 . S
H938 C953 0.959 . S
H939 C953 0.961 . S
H940 C954 0.960 . S
H941 C954 0.961 . S
H942 C954 0.959 . S
H943 C957 0.929 . S
H944 C958 0.931 . S
H945 C960 0.930 . S
C946 H934 0.930 . S
C946 C947 1.399 . S
C946 C951 1.399 . S
C947 C946 1.399 . S
C947 C948 1.376 . S
C948 H935 0.930 . S
C948 C947 1.376 . S
C948 C949 1.388 . S
C949 H936 0.930 . S
C949 C948 1.388 . S
C949 C950 1.390 . S
C950 C949 1.390 . S
C950 C951 1.394 . S
C950 C956 1.465 . S
C951 C946 1.399 . S
C951 C950 1.394 . S
C951 C952 1.516 . S
C952 C951 1.516 . S
C952 C953 1.502 . S
C952 C954 1.561 . S
C952 C955 1.526 . S
C953 H937 0.959 . S
C953 H938 0.959 . S
C953 H939 0.961 . S
C953 C952 1.502 . S
C954 H940 0.960 . S
C954 H941 0.961 . S
C954 H942 0.959 . S
C954 C952 1.561 . S
C955 C952 1.526 . S
C955 C956 1.396 . S
C955 C960 1.390 . S
C956 C950 1.465 . S
C956 C955 1.396 . S
C956 C957 1.399 . S
C957 H943 0.929 . S
C957 C956 1.399 . S
C957 C958 1.385 . S
C958 H944 0.931 . S
C958 C957 1.385 . S
C958 C959 1.389 . S
C959 C958 1.389 . S
C959 C960 1.387 . S
C960 H945 0.930 . S
C960 C955 1.390 . S
C960 C959 1.387 . S
H961 C973 0.930 . S
H962 C975 0.930 . S
H963 C976 0.930 . S
H964 C980 0.959 . S
H965 C980 0.959 . S
H966 C980 0.961 . S
H967 C981 0.960 . S
H968 C981 0.961 . S
H969 C981 0.959 . S
H970 C984 0.929 . S
H971 C985 0.931 . S
H972 C987 0.930 . S
C973 H961 0.930 . S
C973 C974 1.399 . S
C973 C978 1.399 . S
C974 C973 1.399 . S
C974 C975 1.376 . S
C975 H962 0.930 . S
C975 C974 1.376 . S
C975 C976 1.388 . S
C976 H963 0.930 . S
C976 C975 1.388 . S
C976 C977 1.390 . S
C977 C976 1.390 . S
C977 C978 1.394 . S
C977 C983 1.465 . S
C978 C973 1.399 . S
C978 C977 1.394 . S
C978 C979 1.516 . S
C979 C978 1.516 . S
C979 C980 1.502 . S
C979 C981 1.561 . S
C979 C982 1.526 . S
C980 H964 0.959 . S
C980 H965 0.959 . S
C980 H966 0.961 . S
C980 C979 1.502 . S
C981 H967 0.960 . S
C981 H968 0.961 . S
C981 H969 0.959 . S
C981 C979 1.561 . S
C982 C979 1.526 . S
C982 C983 1.396 . S
C982 C987 1.390 . S
C983 C977 1.465 . S
C983 C982 1.396 . S
C983 C984 1.399 . S
C984 H970 0.929 . S
C984 C983 1.399 . S
C984 C985 1.385 . S
C985 H971 0.931 . S
C985 C984 1.385 . S
C985 C986 1.389 . S
C986 C985 1.389 . S
C986 C987 1.387 . S
C987 H972 0.930 . S
C987 C982 1.390 . S
C987 C986 1.387 . S
H988 C1000 0.929 1_455 S
H989 C1002 0.930 . S
H990 C1003 0.930 . S
H991 C1007 0.959 . S
H992 C1007 0.959 . S
H993 C1007 0.961 . S
H994 C1008 0.960 . S
H995 C1008 0.961 . S
H996 C1008 0.959 . S
H997 C1011 0.929 . S
H998 C1012 0.931 . S
H999 C1014 0.930 . S
C1000 H988 0.929 1_655 S
C1000 C1001 1.399 . S
C1000 C1005 1.399 . S
C1001 C1000 1.399 . S
C1001 C1002 1.376 . S
C1002 H989 0.930 . S
C1002 C1001 1.376 . S
C1002 C1003 1.388 . S
C1003 H990 0.930 . S
C1003 C1002 1.388 . S
C1003 C1004 1.390 . S
C1004 C1003 1.390 . S
C1004 C1005 1.394 . S
C1004 C1010 1.465 . S
C1005 C1000 1.399 . S
C1005 C1004 1.394 . S
C1005 C1006 1.516 . S
C1006 C1005 1.516 . S
C1006 C1007 1.502 1_655 S
C1006 C1008 1.561 . S
C1006 C1009 1.526 . S
C1007 H991 0.959 . S
C1007 H992 0.959 . S
C1007 H993 0.961 . S
C1007 C1006 1.502 1_455 S
C1008 H994 0.960 . S
C1008 H995 0.961 . S
C1008 H996 0.959 . S
C1008 C1006 1.561 . S
C1009 C1006 1.526 . S
C1009 C1010 1.396 . S
C1009 C1014 1.390 . S
C1010 C1004 1.465 . S
C1010 C1009 1.396 . S
C1010 C1011 1.399 . S
C1011 H997 0.929 . S
C1011 C1010 1.399 . S
C1011 C1012 1.385 . S
C1012 H998 0.931 . S
C1012 C1011 1.385 . S
C1012 C1013 1.389 . S
C1013 C1012 1.389 . S
C1013 C1014 1.387 . S
C1014 H999 0.930 . S
C1014 C1009 1.390 . S
C1014 C1013 1.387 . S
H1015 C1027 0.930 . S
H1016 C1029 0.930 . S
H1017 C1030 0.930 . S
H1018 C1034 0.959 . S
H1019 C1034 0.959 . S
H1020 C1034 0.961 . S
H1021 C1035 0.960 . S
H1022 C1035 0.961 . S
H1023 C1035 0.959 1_545 S
H1024 C1038 0.929 . S
H1025 C1039 0.931 . S
H1026 C1041 0.930 . S
C1027 H1015 0.930 . S
C1027 C1028 1.395 1_565 S
C1027 C1032 1.399 . S
C1028 C1027 1.395 1_545 S
C1028 C1029 1.381 . S
C1029 H1016 0.930 . S
C1029 C1028 1.381 . S
C1029 C1030 1.388 . S
C1030 H1017 0.930 . S
C1030 C1029 1.388 . S
C1030 C1031 1.390 . S
C1031 C1030 1.390 . S
C1031 C1032 1.394 1_545 S
C1031 C1037 1.465 . S
C1032 C1027 1.399 . S
C1032 C1031 1.394 1_565 S
C1032 C1033 1.516 . S
C1033 C1032 1.516 . S
C1033 C1034 1.502 . S
C1033 C1035 1.561 . S
C1033 C1036 1.526 . S
C1034 H1018 0.959 . S
C1034 H1019 0.959 . S
C1034 H1020 0.961 . S
C1034 C1033 1.502 . S
C1035 H1021 0.960 . S
C1035 H1022 0.961 . S
C1035 H1023 0.959 1_565 S
C1035 C1033 1.561 . S
C1036 C1033 1.526 . S
C1036 C1037 1.396 1_565 S
C1036 C1041 1.390 . S
C1037 C1031 1.465 . S
C1037 C1036 1.396 1_545 S
C1037 C1038 1.399 . S
C1038 H1024 0.929 . S
C1038 C1037 1.399 . S
C1038 C1039 1.385 . S
C1039 H1025 0.931 . S
C1039 C1038 1.385 . S
C1039 C1040 1.389 1_545 S
C1040 C1039 1.389 1_565 S
C1040 C1041 1.387 . S
C1041 H1026 0.930 . S
C1041 C1036 1.390 . S
C1041 C1040 1.387 . S
H1042 C1054 0.930 . S
H1043 C1056 0.930 . S
H1044 C1057 0.930 . S
H1045 C1061 0.959 . S
H1046 C1061 0.959 . S
H1047 C1061 0.961 . S
H1048 C1062 0.960 . S
H1049 C1062 0.961 . S
H1050 C1062 0.959 . S
H1051 C1065 0.929 . S
H1052 C1066 0.931 . S
H1053 C1068 0.930 . S
C1054 H1042 0.930 . S
C1054 C1055 1.399 . S
C1054 C1059 1.399 . S
C1055 C1054 1.399 . S
C1055 C1056 1.376 . S
C1056 H1043 0.930 . S
C1056 C1055 1.376 . S
C1056 C1057 1.388 . S
C1057 H1044 0.930 . S
C1057 C1056 1.388 . S
C1057 C1058 1.390 . S
C1058 C1057 1.390 . S
C1058 C1059 1.394 . S
C1058 C1064 1.465 . S
C1059 C1054 1.399 . S
C1059 C1058 1.394 . S
C1059 C1060 1.516 . S
C1060 C1059 1.516 . S
C1060 C1061 1.502 . S
C1060 C1062 1.561 . S
C1060 C1063 1.526 . S
C1061 H1045 0.959 . S
C1061 H1046 0.959 . S
C1061 H1047 0.961 . S
C1061 C1060 1.502 . S
C1062 H1048 0.960 . S
C1062 H1049 0.961 . S
C1062 H1050 0.959 . S
C1062 C1060 1.561 . S
C1063 C1060 1.526 . S
C1063 C1064 1.396 . S
C1063 C1068 1.390 . S
C1064 C1058 1.465 . S
C1064 C1063 1.396 . S
C1064 C1065 1.399 . S
C1065 H1051 0.929 . S
C1065 C1064 1.399 . S
C1065 C1066 1.385 . S
C1066 H1052 0.931 . S
C1066 C1065 1.385 . S
C1066 C1067 1.389 . S
C1067 C1066 1.389 . S
C1067 C1068 1.387 . S
C1068 H1053 0.930 . S
C1068 C1063 1.390 . S
C1068 C1067 1.387 . S
H1069 C1081 0.930 . S
H1070 C1083 0.930 . S
H1071 C1084 0.930 . S
H1072 C1088 0.959 . S
H1073 C1088 0.959 . S
H1074 C1088 0.961 . S
H1075 C1089 0.960 . S
H1076 C1089 0.961 . S
H1077 C1089 0.959 . S
H1078 C1092 0.929 . S
H1079 C1093 0.931 . S
H1080 C1095 0.930 . S
C1081 H1069 0.930 . S
C1081 C1082 1.399 . S
C1081 C1086 1.399 . S
C1082 C1081 1.399 . S
C1082 C1083 1.376 . S
C1083 H1070 0.930 . S
C1083 C1082 1.376 . S
C1083 C1084 1.388 . S
C1084 H1071 0.930 . S
C1084 C1083 1.388 . S
C1084 C1085 1.390 . S
C1085 C1084 1.390 . S
C1085 C1086 1.394 . S
C1085 C1091 1.465 . S
C1086 C1081 1.399 . S
C1086 C1085 1.394 . S
C1086 C1087 1.516 . S
C1087 C1086 1.516 . S
C1087 C1088 1.502 . S
C1087 C1089 1.561 . S
C1087 C1090 1.526 . S
C1088 H1072 0.959 . S
C1088 H1073 0.959 . S
C1088 H1074 0.961 . S
C1088 C1087 1.502 . S
C1089 H1075 0.960 . S
C1089 H1076 0.961 . S
C1089 H1077 0.959 . S
C1089 C1087 1.561 . S
C1090 C1087 1.526 . S
C1090 C1091 1.396 . S
C1090 C1095 1.390 . S
C1091 C1085 1.465 . S
C1091 C1090 1.396 . S
C1091 C1092 1.399 . S
C1092 H1078 0.929 . S
C1092 C1091 1.399 . S
C1092 C1093 1.385 . S
C1093 H1079 0.931 . S
C1093 C1092 1.385 . S
C1093 C1094 1.389 . S
C1094 C1093 1.389 . S
C1094 C1095 1.387 . S
C1095 H1080 0.930 . S
C1095 C1090 1.390 . S
C1095 C1094 1.387 . S
C461 C241 2.082 . S
C473 C290 2.365 1_545 S
C500 C330 2.395 . S
C488 C277 2.195 . S
C527 C370 2.357 . S
C515 C169 2.174 . S
C554 C410 2.366 . S
C542 C205 2.132 1_655 S
C581 C303 2.346 . S
C569 C97 2.116 . S
C596 C133 2.244 . S
C608 C343 2.376 . S
C623 C25 2.175 . S
C635 C383 2.375 . S
C650 C61 2.115 1_655 S
C662 C423 2.382 1_655 S
C689 C314 0.403 . S
C677 C211 0.279 . S
C716 C354 0.334 . S
C704 C247 0.472 . S
C743 C394 0.455 . S
C731 C253 0.308 . S
C758 C175 0.448 . S
C770 C434 0.465 . S
C785 C67 0.323 1_655 S
C797 C297 0.476 . S
C824 C337 0.388 . S
C812 C103 0.540 1_565 S
C851 C377 0.340 . S
C839 C109 0.335 . S
C866 C31 0.337 . S
C878 C417 0.421 . S
C893 C181 2.798 . S
C905 C291 3.200 . S
C920 C217 2.764 . S
C932 C331 3.174 . S
C959 C371 3.150 . S
C947 C283 2.753 . S
C986 C411 3.187 . S
C974 C145 2.768 . S
C1001 C37 2.874 1_655 S
C1013 C310 3.195 . S
C1040 C350 3.163 . S
C1028 C73 2.789 . S
C1067 C390 3.167 . S
C1055 C139 2.695 . S
C1082 C1 2.803 . S
C1094 C430 3.185 . S
