# Generated by pormake.
# Topology eea, (3,6)-cn, num edge types: 1
# Building blocks:
#     Node 0, Type 0, BuildingBlock: BELTOD_clean_linker_0, # of connection points: 3
#     Node 1, Type 0, BuildingBlock: BELTOD_clean_linker_0, # of connection points: 3
#     Node 2, Type 0, BuildingBlock: BELTOD_clean_linker_0, # of connection points: 3
#     Node 3, Type 0, BuildingBlock: BELTOD_clean_linker_0, # of connection points: 3
#     Node 4, Type 0, BuildingBlock: BELTOD_clean_linker_0, # of connection points: 3
#     Node 5, Type 0, BuildingBlock: BELTOD_clean_linker_0, # of connection points: 3
#     Node 6, Type 0, BuildingBlock: BELTOD_clean_linker_0, # of connection points: 3
#     Node 7, Type 0, BuildingBlock: BELTOD_clean_linker_0, # of connection points: 3
#     Node 8, Type 0, BuildingBlock: BELTOD_clean_linker_0, # of connection points: 3
#     Node 9, Type 0, BuildingBlock: BELTOD_clean_linker_0, # of connection points: 3
#     Node 10, Type 0, BuildingBlock: BELTOD_clean_linker_0, # of connection points: 3
#     Node 11, Type 0, BuildingBlock: BELTOD_clean_linker_0, # of connection points: 3
#     Node 12, Type 0, BuildingBlock: BELTOD_clean_linker_0, # of connection points: 3
#     Node 13, Type 0, BuildingBlock: BELTOD_clean_linker_0, # of connection points: 3
#     Node 14, Type 0, BuildingBlock: BELTOD_clean_linker_0, # of connection points: 3
#     Node 15, Type 0, BuildingBlock: BELTOD_clean_linker_0, # of connection points: 3
#     Node 16, Type 0, BuildingBlock: BELTOD_clean_linker_0, # of connection points: 3
#     Node 17, Type 0, BuildingBlock: BELTOD_clean_linker_0, # of connection points: 3
#     Node 18, Type 1, BuildingBlock: CIFDUS_clean_sbu_1, # of connection points: 6
#     Node 19, Type 1, BuildingBlock: CIFDUS_clean_sbu_1, # of connection points: 6
#     Node 20, Type 1, BuildingBlock: CIFDUS_clean_sbu_1, # of connection points: 6
#     Node 21, Type 1, BuildingBlock: CIFDUS_clean_sbu_1, # of connection points: 6
#     Node 22, Type 1, BuildingBlock: CIFDUS_clean_sbu_1, # of connection points: 6
#     Node 23, Type 1, BuildingBlock: CIFDUS_clean_sbu_1, # of connection points: 6
#     Node 24, Type 1, BuildingBlock: CIFDUS_clean_sbu_1, # of connection points: 6
#     Node 25, Type 1, BuildingBlock: CIFDUS_clean_sbu_1, # of connection points: 6
#     Node 26, Type 1, BuildingBlock: CIFDUS_clean_sbu_1, # of connection points: 6
#     Edge 27, Type (0, 1), BuildingBlock: MIFKUJ_clean_linker_0, # of connection points: 2
#     Edge 28, Type (0, 1), BuildingBlock: MIFKUJ_clean_linker_0, # of connection points: 2
#     Edge 29, Type (0, 1), BuildingBlock: MIFKUJ_clean_linker_0, # of connection points: 2
#     Edge 30, Type (0, 1), BuildingBlock: MIFKUJ_clean_linker_0, # of connection points: 2
#     Edge 31, Type (0, 1), BuildingBlock: MIFKUJ_clean_linker_0, # of connection points: 2
#     Edge 32, Type (0, 1), BuildingBlock: MIFKUJ_clean_linker_0, # of connection points: 2
#     Edge 33, Type (0, 1), BuildingBlock: MIFKUJ_clean_linker_0, # of connection points: 2
#     Edge 34, Type (0, 1), BuildingBlock: MIFKUJ_clean_linker_0, # of connection points: 2
#     Edge 35, Type (0, 1), BuildingBlock: MIFKUJ_clean_linker_0, # of connection points: 2
#     Edge 36, Type (0, 1), BuildingBlock: MIFKUJ_clean_linker_0, # of connection points: 2
#     Edge 37, Type (0, 1), BuildingBlock: MIFKUJ_clean_linker_0, # of connection points: 2
#     Edge 38, Type (0, 1), BuildingBlock: MIFKUJ_clean_linker_0, # of connection points: 2
#     Edge 39, Type (0, 1), BuildingBlock: MIFKUJ_clean_linker_0, # of connection points: 2
#     Edge 40, Type (0, 1), BuildingBlock: MIFKUJ_clean_linker_0, # of connection points: 2
#     Edge 41, Type (0, 1), BuildingBlock: MIFKUJ_clean_linker_0, # of connection points: 2
#     Edge 42, Type (0, 1), BuildingBlock: MIFKUJ_clean_linker_0, # of connection points: 2
#     Edge 43, Type (0, 1), BuildingBlock: MIFKUJ_clean_linker_0, # of connection points: 2
#     Edge 44, Type (0, 1), BuildingBlock: MIFKUJ_clean_linker_0, # of connection points: 2
#     Edge 45, Type (0, 1), BuildingBlock: MIFKUJ_clean_linker_0, # of connection points: 2
#     Edge 46, Type (0, 1), BuildingBlock: MIFKUJ_clean_linker_0, # of connection points: 2
#     Edge 47, Type (0, 1), BuildingBlock: MIFKUJ_clean_linker_0, # of connection points: 2
#     Edge 48, Type (0, 1), BuildingBlock: MIFKUJ_clean_linker_0, # of connection points: 2
#     Edge 49, Type (0, 1), BuildingBlock: MIFKUJ_clean_linker_0, # of connection points: 2
#     Edge 50, Type (0, 1), BuildingBlock: MIFKUJ_clean_linker_0, # of connection points: 2
#     Edge 51, Type (0, 1), BuildingBlock: MIFKUJ_clean_linker_0, # of connection points: 2
#     Edge 52, Type (0, 1), BuildingBlock: MIFKUJ_clean_linker_0, # of connection points: 2
#     Edge 53, Type (0, 1), BuildingBlock: MIFKUJ_clean_linker_0, # of connection points: 2
#     Edge 54, Type (0, 1), BuildingBlock: MIFKUJ_clean_linker_0, # of connection points: 2
#     Edge 55, Type (0, 1), BuildingBlock: MIFKUJ_clean_linker_0, # of connection points: 2
#     Edge 56, Type (0, 1), BuildingBlock: MIFKUJ_clean_linker_0, # of connection points: 2
#     Edge 57, Type (0, 1), BuildingBlock: MIFKUJ_clean_linker_0, # of connection points: 2
#     Edge 58, Type (0, 1), BuildingBlock: MIFKUJ_clean_linker_0, # of connection points: 2
#     Edge 59, Type (0, 1), BuildingBlock: MIFKUJ_clean_linker_0, # of connection points: 2
#     Edge 60, Type (0, 1), BuildingBlock: MIFKUJ_clean_linker_0, # of connection points: 2
#     Edge 61, Type (0, 1), BuildingBlock: MIFKUJ_clean_linker_0, # of connection points: 2
#     Edge 62, Type (0, 1), BuildingBlock: MIFKUJ_clean_linker_0, # of connection points: 2
#     Edge 63, Type (0, 1), BuildingBlock: MIFKUJ_clean_linker_0, # of connection points: 2
#     Edge 64, Type (0, 1), BuildingBlock: MIFKUJ_clean_linker_0, # of connection points: 2
#     Edge 65, Type (0, 1), BuildingBlock: MIFKUJ_clean_linker_0, # of connection points: 2
#     Edge 66, Type (0, 1), BuildingBlock: MIFKUJ_clean_linker_0, # of connection points: 2
#     Edge 67, Type (0, 1), BuildingBlock: MIFKUJ_clean_linker_0, # of connection points: 2
#     Edge 68, Type (0, 1), BuildingBlock: MIFKUJ_clean_linker_0, # of connection points: 2
#     Edge 69, Type (0, 1), BuildingBlock: MIFKUJ_clean_linker_0, # of connection points: 2
#     Edge 70, Type (0, 1), BuildingBlock: MIFKUJ_clean_linker_0, # of connection points: 2
#     Edge 71, Type (0, 1), BuildingBlock: MIFKUJ_clean_linker_0, # of connection points: 2
#     Edge 72, Type (0, 1), BuildingBlock: MIFKUJ_clean_linker_0, # of connection points: 2
#     Edge 73, Type (0, 1), BuildingBlock: MIFKUJ_clean_linker_0, # of connection points: 2
#     Edge 74, Type (0, 1), BuildingBlock: MIFKUJ_clean_linker_0, # of connection points: 2
#     Edge 75, Type (0, 1), BuildingBlock: MIFKUJ_clean_linker_0, # of connection points: 2
#     Edge 76, Type (0, 1), BuildingBlock: MIFKUJ_clean_linker_0, # of connection points: 2
#     Edge 77, Type (0, 1), BuildingBlock: MIFKUJ_clean_linker_0, # of connection points: 2
#     Edge 78, Type (0, 1), BuildingBlock: MIFKUJ_clean_linker_0, # of connection points: 2
#     Edge 79, Type (0, 1), BuildingBlock: MIFKUJ_clean_linker_0, # of connection points: 2
#     Edge 80, Type (0, 1), BuildingBlock: MIFKUJ_clean_linker_0, # of connection points: 2
# Relax obj value: 0.094
# Max RMSD: 0.176
# Mean RMSD: 0.087
data_MOF--net-eea--node1-CIFDUS_clean_sbu_1--node2-BELTOD_clean_linker_0--edge1-MIFKUJ_clean_linker_0
_symmetry_space_group_name_H-M    P1
_symmetry_Int_Tables_number       1
_symmetry_cell_setting            triclinic
loop_
_symmetry_equiv_pos_as_xyz
'x, y, z'
_cell_length_a     78.677532
_cell_length_b     78.052226
_cell_length_c     77.125468
_cell_angle_alpha  90.582453
_cell_angle_beta   90.218572
_cell_angle_gamma 119.98821
loop_
_atom_site_label
_atom_site_type_symbol
_atom_site_fract_x
_atom_site_fract_y
_atom_site_fract_z
_atom_type_partial_charge
P0 P 0.28434 0.14399 0.39056 0.0
H1 H 0.29218 0.11908 0.36691 0.0
H2 H 0.27529 0.08348 0.36158 0.0
H3 H 0.23054 0.07601 0.39816 0.0
H4 H 0.24844 0.11129 0.40437 0.0
H5 H 0.29646 0.18514 0.38444 0.0
H6 H 0.27837 0.20204 0.377 0.0
H7 H 0.22474 0.14567 0.37314 0.0
H8 H 0.24281 0.1289 0.38035 0.0
H9 H 0.31508 0.14692 0.41368 0.0
H10 H 0.2605 0.14698 0.41831 0.0
O11 O 0.30626 0.15463 0.38111 0.0
H12 H 0.31847 0.14829 0.44528 0.0
H13 H 0.26381 0.14834 0.44994 0.0
C14 C 0.27154 0.11783 0.38601 0.0
C15 C 0.27879 0.10972 0.37384 0.0
C16 C 0.26895 0.0893 0.37068 0.0
C17 C 0.25142 0.07665 0.37942 0.0
C18 C 0.24417 0.08504 0.39145 0.0
C19 C 0.25429 0.10534 0.3949 0.0
C20 C 0.27108 0.15576 0.38292 0.0
C21 C 0.28087 0.17641 0.38171 0.0
C22 C 0.27052 0.18603 0.37744 0.0
C23 C 0.25012 0.17515 0.37454 0.0
C24 C 0.24041 0.15443 0.37548 0.0
C25 C 0.25081 0.14482 0.37958 0.0
C26 C 0.28776 0.14726 0.41366 0.0
C27 C 0.30402 0.1476 0.42149 0.0
C28 C 0.30594 0.14839 0.43954 0.0
C29 C 0.29145 0.14853 0.45007 0.0
C30 C 0.27516 0.14819 0.44216 0.0
C31 C 0.27335 0.14757 0.42409 0.0
P32 P 0.88168 0.11102 0.4074 0.0
H33 H 0.87725 0.08781 0.37655 0.0
H34 H 0.84795 0.06157 0.36216 0.0
H35 H 0.81182 0.07754 0.39252 0.0
H36 H 0.8412 0.10396 0.40675 0.0
H37 H 0.92287 0.12276 0.40629 0.0
H38 H 0.95104 0.15024 0.39292 0.0
H39 H 0.91347 0.17021 0.37088 0.0
H40 H 0.88484 0.14188 0.38398 0.0
H41 H 0.85858 0.09055 0.4371 0.0
H42 H 0.88948 0.15071 0.41908 0.0
O43 O 0.88849 0.09513 0.41432 0.0
H44 H 0.85041 0.10173 0.46392 0.0
H45 H 0.88104 0.16186 0.44594 0.0
C46 C 0.86129 0.0974 0.39298 0.0
C47 C 0.86309 0.08619 0.37959 0.0
C48 C 0.84635 0.07128 0.37131 0.0
C49 C 0.82767 0.06742 0.37646 0.0
C50 C 0.8261 0.08018 0.38848 0.0
C51 C 0.84288 0.09518 0.39668 0.0
C52 C 0.90186 0.13041 0.39616 0.0
C53 C 0.92056 0.13284 0.39842 0.0
C54 C 0.93668 0.14863 0.39085 0.0
C55 C 0.93443 0.16251 0.38115 0.0
C56 C 0.91555 0.15967 0.3783 0.0
C57 C 0.89928 0.14364 0.38581 0.0
C58 C 0.8749 0.11982 0.42627 0.0
C59 C 0.86352 0.10614 0.43888 0.0
C60 C 0.8588 0.11248 0.45411 0.0
C61 C 0.86522 0.13259 0.45685 0.0
C62 C 0.87595 0.14627 0.44396 0.0
C63 C 0.88081 0.1399 0.4287 0.0
P64 P 0.85703 0.71275 0.39115 0.0
H65 H 0.84167 0.71737 0.35813 0.0
H66 H 0.82407 0.73472 0.34999 0.0
H67 H 0.82885 0.75558 0.40284 0.0
H68 H 0.84655 0.73853 0.41084 0.0
H69 H 0.88375 0.69874 0.38149 0.0
H70 H 0.91828 0.71582 0.37328 0.0
H71 H 0.9201 0.77197 0.37778 0.0
H72 H 0.88562 0.75474 0.38631 0.0
H73 H 0.8248 0.6878 0.41373 0.0
H74 H 0.8862 0.73125 0.41945 0.0
O75 O 0.84527 0.6905 0.38153 0.0
H76 H 0.82185 0.68486 0.44527 0.0
H77 H 0.88334 0.72846 0.45094 0.0
C78 C 0.84497 0.72626 0.38514 0.0
C79 C 0.83896 0.72574 0.36792 0.0
C80 C 0.82905 0.73574 0.36328 0.0
C81 C 0.82497 0.74632 0.37584 0.0
C82 C 0.83156 0.74728 0.39297 0.0
C83 C 0.84164 0.73748 0.39755 0.0
C84 C 0.88206 0.72545 0.3841 0.0
C85 C 0.89154 0.71471 0.38052 0.0
C86 C 0.91126 0.7245 0.3758 0.0
C87 C 0.92189 0.74526 0.37473 0.0
C88 C 0.91235 0.75599 0.37855 0.0
C89 C 0.89259 0.74615 0.38326 0.0
C90 C 0.85575 0.70946 0.41425 0.0
C91 C 0.83768 0.69653 0.42178 0.0
C92 C 0.83598 0.69503 0.43979 0.0
C93 C 0.85236 0.70648 0.45058 0.0
C94 C 0.87051 0.71931 0.44296 0.0
C95 C 0.87216 0.72089 0.42493 0.0
P96 P 0.14355 0.28874 0.61878 0.0
H97 H 0.12265 0.28691 0.65044 0.0
H98 H 0.08788 0.26897 0.65799 0.0
H99 H 0.0735 0.24352 0.60625 0.0
H100 H 0.10825 0.26092 0.59908 0.0
H101 H 0.18009 0.30122 0.6381 0.0
H102 H 0.19692 0.28368 0.64708 0.0
H103 H 0.14976 0.22951 0.62474 0.0
H104 H 0.13251 0.24703 0.61686 0.0
H105 H 0.13549 0.31242 0.59477 0.0
H106 H 0.15719 0.2715 0.59167 0.0
O107 O 0.15388 0.3111 0.6282 0.0
H108 H 0.13813 0.31618 0.56323 0.0
H109 H 0.15918 0.27459 0.5604 0.0
C110 C 0.11795 0.27556 0.62412 0.0
C111 C 0.11196 0.27748 0.64075 0.0
C112 C 0.09208 0.26728 0.645 0.0
C113 C 0.07785 0.25491 0.63268 0.0
C114 C 0.08404 0.25277 0.61611 0.0
C115 C 0.10392 0.2629 0.61192 0.0
C116 C 0.15503 0.2754 0.62688 0.0
C117 C 0.17323 0.2855 0.63542 0.0
C118 C 0.18296 0.27544 0.64036 0.0
C119 C 0.17489 0.25514 0.63648 0.0
C120 C 0.15637 0.24502 0.62822 0.0
C121 C 0.14649 0.25504 0.6236 0.0
C122 C 0.14632 0.29187 0.59565 0.0
C123 C 0.14084 0.30427 0.58732 0.0
C124 C 0.14216 0.30624 0.56929 0.0
C125 C 0.14892 0.29572 0.55927 0.0
C126 C 0.15423 0.28317 0.56772 0.0
C127 C 0.15298 0.2813 0.58571 0.0
P128 P 0.76194 0.8814 0.60174 0.0
H129 H 0.78327 0.90222 0.63268 0.0
H130 H 0.78459 0.93042 0.648 0.0
H131 H 0.7327 0.92079 0.62042 0.0
H132 H 0.73119 0.89241 0.60523 0.0
H133 H 0.78686 0.86459 0.5957 0.0
H134 H 0.78706 0.83581 0.60725 0.0
H135 H 0.73846 0.82427 0.64046 0.0
H136 H 0.73846 0.85356 0.62884 0.0
H137 H 0.75487 0.90265 0.57483 0.0
H138 H 0.73141 0.84173 0.58937 0.0
O139 O 0.78401 0.89652 0.59351 0.0
H140 H 0.734 0.89198 0.54893 0.0
H141 H 0.71049 0.83095 0.5634 0.0
C142 C 0.75748 0.89564 0.61753 0.0
C143 C 0.77161 0.90555 0.63055 0.0
C144 C 0.77229 0.92154 0.63937 0.0
C145 C 0.75879 0.92767 0.63524 0.0
C146 C 0.74312 0.91613 0.62387 0.0
C147 C 0.74245 0.9001 0.61502 0.0
C148 C 0.76281 0.86124 0.61161 0.0
C149 C 0.77636 0.85603 0.60558 0.0
C150 C 0.77632 0.83948 0.61205 0.0
C151 C 0.76257 0.82773 0.62452 0.0
C152 C 0.74917 0.83314 0.63083 0.0
C153 C 0.7492 0.84981 0.62427 0.0
C154 C 0.74473 0.87303 0.58397 0.0
C155 C 0.74499 0.88699 0.57257 0.0
C156 C 0.73297 0.88087 0.55785 0.0
C157 C 0.72057 0.86063 0.5542 0.0
C158 C 0.71996 0.84664 0.56589 0.0
C159 C 0.73191 0.85281 0.58074 0.0
P160 P 0.14537 0.85257 0.61768 0.0
H161 H 0.16541 0.87561 0.64883 0.0
H162 H 0.18184 0.91107 0.65565 0.0
H163 H 0.16775 0.92207 0.6042 0.0
H164 H 0.15094 0.88675 0.59775 0.0
H165 H 0.12002 0.8145 0.63408 0.0
H166 H 0.08544 0.79796 0.64274 0.0
H167 H 0.08113 0.84791 0.62502 0.0
H168 H 0.11577 0.86467 0.61682 0.0
H169 H 0.17698 0.85823 0.5949 0.0
H170 H 0.11589 0.84114 0.58958 0.0
O171 O 0.15729 0.84271 0.62759 0.0
H172 H 0.17983 0.85843 0.56334 0.0
H173 H 0.11876 0.84186 0.55818 0.0
C174 C 0.1574 0.87862 0.62267 0.0
C175 C 0.16592 0.88571 0.63905 0.0
C176 C 0.17534 0.90598 0.64289 0.0
C177 C 0.17626 0.91947 0.63042 0.0
C178 C 0.1672 0.91214 0.61417 0.0
C179 C 0.15777 0.89191 0.61038 0.0
C180 C 0.12049 0.84092 0.62508 0.0
C181 C 0.11173 0.82203 0.63231 0.0
C182 C 0.09204 0.81258 0.6372 0.0
C183 C 0.08084 0.82178 0.63451 0.0
C184 C 0.08959 0.84062 0.62718 0.0
C185 C 0.10934 0.8502 0.62261 0.0
C186 C 0.14621 0.84946 0.59462 0.0
C187 C 0.16413 0.85427 0.58695 0.0
C188 C 0.16579 0.85463 0.56892 0.0
C189 C 0.14955 0.85033 0.55826 0.0
C190 C 0.13149 0.84507 0.56602 0.0
C191 C 0.12985 0.84468 0.58405 0.0
P192 P 0.95112 0.47672 0.72368 0.0
H193 H 0.95332 0.45289 0.695 0.0
H194 H 0.93544 0.41724 0.68875 0.0
H195 H 0.89973 0.40806 0.73396 0.0
H196 H 0.91781 0.44354 0.74022 0.0
H197 H 0.96431 0.51863 0.72152 0.0
H198 H 0.94732 0.53689 0.71484 0.0
H199 H 0.8939 0.48169 0.70454 0.0
H200 H 0.91095 0.46358 0.71107 0.0
H201 H 0.97849 0.47297 0.74667 0.0
H202 H 0.93077 0.48486 0.75172 0.0
O203 O 0.97302 0.48665 0.71424 0.0
H204 H 0.98213 0.47407 0.77823 0.0
H205 H 0.93459 0.48643 0.78325 0.0
C206 C 0.93719 0.45075 0.7183 0.0
C207 C 0.94163 0.44317 0.70354 0.0
C208 C 0.93131 0.42282 0.69991 0.0
C209 C 0.91634 0.40979 0.711 0.0
C210 C 0.91147 0.41764 0.72539 0.0
C211 C 0.92177 0.43793 0.72897 0.0
C212 C 0.93896 0.48979 0.71666 0.0
C213 C 0.94901 0.5105 0.71758 0.0
C214 C 0.93926 0.52089 0.7139 0.0
C215 C 0.91926 0.5107 0.70924 0.0
C216 C 0.90936 0.48994 0.70793 0.0
C217 C 0.9191 0.47957 0.7117 0.0
C218 C 0.95469 0.47928 0.74684 0.0
C219 C 0.96904 0.47618 0.75457 0.0
C220 C 0.97112 0.47686 0.77261 0.0
C221 C 0.95875 0.48051 0.78327 0.0
C222 C 0.9443 0.48351 0.77543 0.0
C223 C 0.94224 0.48282 0.75738 0.0
P224 P 0.5497 0.44695 0.74403 0.0
H225 H 0.5475 0.4144 0.72405 0.0
H226 H 0.52114 0.38766 0.7075 0.0
H227 H 0.48572 0.41544 0.71378 0.0
H228 H 0.51233 0.44211 0.73084 0.0
H229 H 0.59089 0.47055 0.75269 0.0
H230 H 0.6189 0.49635 0.73731 0.0
H231 H 0.58043 0.49327 0.69581 0.0
H232 H 0.55218 0.46724 0.71137 0.0
H233 H 0.51699 0.42676 0.76722 0.0
H234 H 0.55992 0.48716 0.75559 0.0
O235 O 0.55851 0.43472 0.75504 0.0
H236 H 0.50585 0.43823 0.79192 0.0
H237 H 0.54881 0.4987 0.78031 0.0
C238 C 0.53154 0.42976 0.7291 0.0
C239 C 0.53417 0.41488 0.72165 0.0
C240 C 0.51911 0.3997 0.71198 0.0
C241 C 0.50116 0.39926 0.70943 0.0
C242 C 0.49921 0.41515 0.71579 0.0
C243 C 0.51437 0.43038 0.72552 0.0
C244 C 0.56967 0.46662 0.73285 0.0
C245 C 0.58845 0.47535 0.74027 0.0
C246 C 0.60439 0.49008 0.73152 0.0
C247 C 0.60173 0.49641 0.7153 0.0
C248 C 0.58275 0.48846 0.70828 0.0
C249 C 0.56672 0.47357 0.71706 0.0
C250 C 0.53923 0.45608 0.75962 0.0
C251 C 0.52364 0.44252 0.76972 0.0
C252 C 0.51723 0.44909 0.78376 0.0
C253 C 0.5265 0.46935 0.78799 0.0
C254 C 0.54151 0.483 0.77733 0.0
C255 C 0.54783 0.4764 0.7632 0.0
P256 P 0.52298 0.04684 0.725 0.0
H257 H 0.50575 0.04952 0.69227 0.0
H258 H 0.48875 0.06739 0.68384 0.0
H259 H 0.49857 0.09318 0.73525 0.0
H260 H 0.51606 0.07589 0.74345 0.0
H261 H 0.54585 0.03562 0.70253 0.0
H262 H 0.58018 0.05285 0.69398 0.0
H263 H 0.5902 0.10372 0.72482 0.0
H264 H 0.55553 0.08649 0.73282 0.0
H265 H 0.49002 0.03378 0.74845 0.0
H266 H 0.55106 0.05032 0.75224 0.0
O267 O 0.51118 0.02472 0.71514 0.0
H268 H 0.48691 0.02967 0.77979 0.0
H269 H 0.54793 0.0455 0.78349 0.0
C270 C 0.51159 0.06089 0.71863 0.0
C271 C 0.50432 0.0591 0.70169 0.0
C272 C 0.49472 0.06936 0.69686 0.0
C273 C 0.49219 0.08143 0.70899 0.0
C274 C 0.5001 0.08372 0.72576 0.0
C275 C 0.51 0.07377 0.73046 0.0
C276 C 0.54819 0.0598 0.71831 0.0
C277 C 0.55539 0.05052 0.70736 0.0
C278 C 0.57511 0.06038 0.70258 0.0
C279 C 0.58806 0.07967 0.70879 0.0
C280 C 0.58064 0.08899 0.71962 0.0
C281 C 0.56086 0.07914 0.7243 0.0
C282 C 0.52088 0.04289 0.74806 0.0
C283 C 0.50275 0.03648 0.75605 0.0
C284 C 0.50096 0.03396 0.77399 0.0
C285 C 0.51722 0.03741 0.78427 0.0
C286 C 0.53523 0.04319 0.77608 0.0
C287 C 0.53702 0.04587 0.75814 0.0
P288 P 0.80942 0.62092 0.95221 0.0
H289 H 0.78767 0.62521 0.98096 0.0
H290 H 0.75275 0.60728 0.98849 0.0
H291 H 0.74044 0.56849 0.94422 0.0
H292 H 0.77526 0.58671 0.9364 0.0
H293 H 0.84425 0.63274 0.97405 0.0
H294 H 0.86157 0.61548 0.98268 0.0
H295 H 0.81865 0.56325 0.95463 0.0
H296 H 0.80119 0.58045 0.94651 0.0
H297 H 0.78879 0.63135 0.92665 0.0
H298 H 0.83536 0.61733 0.92687 0.0
O299 O 0.81993 0.64346 0.96129 0.0
H300 H 0.7917 0.63538 0.89512 0.0
H301 H 0.83812 0.62108 0.8955 0.0
C302 C 0.78396 0.60743 0.95801 0.0
C303 C 0.77748 0.61289 0.97285 0.0
C304 C 0.75763 0.60264 0.97719 0.0
C305 C 0.74415 0.58658 0.96692 0.0
C306 C 0.75071 0.58078 0.95234 0.0
C307 C 0.77052 0.59119 0.94788 0.0
C308 C 0.82131 0.60779 0.9598 0.0
C309 C 0.83842 0.61748 0.96998 0.0
C310 C 0.84841 0.60764 0.97477 0.0
C311 C 0.84154 0.58796 0.96933 0.0
C312 C 0.8242 0.57826 0.95931 0.0
C313 C 0.81419 0.5881 0.95461 0.0
C314 C 0.81156 0.62365 0.92906 0.0
C315 C 0.79949 0.62894 0.9199 0.0
C316 C 0.8011 0.63116 0.90191 0.0
C317 C 0.81505 0.62841 0.89287 0.0
C318 C 0.8273 0.62337 0.90215 0.0
C319 C 0.82562 0.62109 0.9201 0.0
P320 P 0.42885 0.21622 0.93468 0.0
H321 H 0.45012 0.23542 0.96606 0.0
H322 H 0.45247 0.26359 0.98222 0.0
H323 H 0.40175 0.25714 0.95457 0.0
H324 H 0.39915 0.22869 0.93867 0.0
H325 H 0.46068 0.20759 0.93643 0.0
H326 H 0.46286 0.17992 0.94792 0.0
H327 H 0.4036 0.15418 0.96693 0.0
H328 H 0.40169 0.18263 0.95574 0.0
H329 H 0.41915 0.23684 0.90917 0.0
H330 H 0.40049 0.17608 0.92108 0.0
O331 O 0.45041 0.23165 0.92573 0.0
H332 H 0.39857 0.226 0.88318 0.0
H333 H 0.37958 0.16512 0.89524 0.0
C334 C 0.42485 0.23041 0.95084 0.0
C335 C 0.43896 0.23949 0.96402 0.0
C336 C 0.4403 0.25555 0.97325 0.0
C337 C 0.42754 0.26269 0.9693 0.0
C338 C 0.41178 0.2519 0.95777 0.0
C339 C 0.41045 0.23578 0.94853 0.0
C340 C 0.43086 0.19685 0.94492 0.0
C341 C 0.44817 0.19615 0.94316 0.0
C342 C 0.44938 0.18028 0.94967 0.0
C343 C 0.4332 0.16473 0.95786 0.0
C344 C 0.4162 0.16597 0.96054 0.0
C345 C 0.41508 0.18208 0.95413 0.0
C346 C 0.41115 0.20733 0.91725 0.0
C347 C 0.41022 0.22113 0.90644 0.0
C348 C 0.39837 0.21489 0.89161 0.0
C349 C 0.38733 0.19467 0.88723 0.0
C350 C 0.38795 0.18079 0.89829 0.0
C351 C 0.39982 0.18708 0.91318 0.0
P352 P 0.81125 0.18659 0.95071 0.0
H353 H 0.84326 0.21023 0.97542 0.0
H354 H 0.86172 0.24583 0.98211 0.0
H355 H 0.82556 0.25537 0.94573 0.0
H356 H 0.80741 0.21994 0.93882 0.0
H357 H 0.78129 0.14511 0.95017 0.0
H358 H 0.74657 0.12758 0.95811 0.0
H359 H 0.75148 0.183 0.97446 0.0
H360 H 0.78609 0.2003 0.96691 0.0
H361 H 0.838 0.18311 0.92675 0.0
H362 H 0.78497 0.18643 0.92359 0.0
O363 O 0.82278 0.17559 0.95932 0.0
H364 H 0.8391 0.18208 0.89503 0.0
H365 H 0.78625 0.18578 0.89183 0.0
C366 C 0.82408 0.21248 0.9565 0.0
C367 C 0.83929 0.21996 0.96889 0.0
C368 C 0.8498 0.24025 0.97272 0.0
C369 C 0.84498 0.25322 0.96443 0.0
C370 C 0.82942 0.24561 0.95238 0.0
C371 C 0.81915 0.22541 0.94835 0.0
C372 C 0.78628 0.17397 0.95799 0.0
C373 C 0.7749 0.15343 0.95563 0.0
C374 C 0.75507 0.14347 0.96003 0.0
C375 C 0.74633 0.15396 0.96685 0.0
C376 C 0.75788 0.17452 0.9694 0.0
C377 C 0.77769 0.18445 0.96499 0.0
C378 C 0.81124 0.1845 0.92748 0.0
C379 C 0.82649 0.18338 0.91924 0.0
C380 C 0.82711 0.18282 0.90116 0.0
C381 C 0.8127 0.18377 0.89108 0.0
C382 C 0.79751 0.18505 0.89936 0.0
C383 C 0.79675 0.18533 0.91746 0.0
P384 P 0.61559 0.80937 0.05761 0.0
H385 H 0.6148 0.78719 0.02643 0.0
H386 H 0.59793 0.75152 0.01954 0.0
H387 H 0.56957 0.73911 0.06924 0.0
H388 H 0.58597 0.77454 0.07598 0.0
H389 H 0.62851 0.85123 0.05685 0.0
H390 H 0.61161 0.86959 0.05012 0.0
H391 H 0.55903 0.81472 0.03701 0.0
H392 H 0.57592 0.79642 0.04386 0.0
H393 H 0.64421 0.8081 0.08087 0.0
H394 H 0.59311 0.81469 0.08537 0.0
O395 O 0.63765 0.81955 0.04844 0.0
H396 H 0.64734 0.8091 0.11261 0.0
H397 H 0.59611 0.81541 0.11709 0.0
C398 C 0.60201 0.78347 0.05188 0.0
C399 C 0.60483 0.77679 0.03577 0.0
C400 C 0.59518 0.75651 0.03182 0.0
C401 C 0.58266 0.74278 0.04397 0.0
C402 C 0.57929 0.74953 0.05978 0.0
C403 C 0.58874 0.76975 0.06363 0.0
C404 C 0.60354 0.82254 0.05065 0.0
C405 C 0.61342 0.8432 0.05232 0.0
C406 C 0.60374 0.85364 0.04861 0.0
C407 C 0.58404 0.84353 0.04309 0.0
C408 C 0.57428 0.82285 0.04109 0.0
C409 C 0.58393 0.8124 0.04499 0.0
C410 C 0.61875 0.81181 0.08079 0.0
C411 C 0.63387 0.81006 0.08866 0.0
C412 C 0.6356 0.81055 0.10671 0.0
C413 C 0.62199 0.81242 0.11709 0.0
C414 C 0.60675 0.814 0.10924 0.0
C415 C 0.60515 0.81373 0.09117 0.0
P416 P 0.21739 0.7782 0.07466 0.0
H417 H 0.21429 0.75202 0.04645 0.0
H418 H 0.18578 0.72551 0.03136 0.0
H419 H 0.1488 0.74534 0.05496 0.0
H420 H 0.17744 0.77198 0.06991 0.0
H421 H 0.25896 0.79109 0.07472 0.0
H422 H 0.28714 0.81895 0.06177 0.0
H423 H 0.24912 0.83761 0.03836 0.0
H424 H 0.22054 0.80892 0.05108 0.0
H425 H 0.18957 0.75719 0.10162 0.0
H426 H 0.22676 0.81809 0.08724 0.0
O427 O 0.22477 0.76328 0.08293 0.0
H428 H 0.17876 0.76782 0.12702 0.0
H429 H 0.21568 0.82886 0.1125 0.0
C430 C 0.19784 0.76351 0.05966 0.0
C431 C 0.20016 0.75107 0.04791 0.0
C432 C 0.18386 0.73601 0.0392 0.0
C433 C 0.16504 0.7332 0.04224 0.0
C434 C 0.16313 0.74705 0.05261 0.0
C435 C 0.17948 0.76221 0.06121 0.0
C436 C 0.23771 0.798 0.06383 0.0
C437 C 0.25657 0.801 0.06668 0.0
C438 C 0.27272 0.81707 0.05939 0.0
C439 C 0.27035 0.83066 0.04932 0.0
C440 C 0.25134 0.82735 0.04606 0.0
C441 C 0.23507 0.81105 0.05331 0.0
C442 C 0.20895 0.78679 0.09257 0.0
C443 C 0.19522 0.77285 0.10383 0.0
C444 C 0.18892 0.77896 0.11826 0.0
C445 C 0.19625 0.7992 0.12171 0.0
C446 C 0.20983 0.81317 0.11021 0.0
C447 C 0.21612 0.80701 0.09572 0.0
P448 P 0.19072 0.38 0.05892 0.0
H449 H 0.16261 0.3737 0.03114 0.0
H450 H 0.14488 0.39102 0.02347 0.0
H451 H 0.17474 0.43335 0.06489 0.0
H452 H 0.19191 0.41556 0.07302 0.0
H453 H 0.21615 0.36521 0.04694 0.0
H454 H 0.25055 0.38164 0.0384 0.0
H455 H 0.25493 0.43854 0.04687 0.0
H456 H 0.22071 0.42203 0.05571 0.0
H457 H 0.1582 0.36637 0.08267 0.0
H458 H 0.22039 0.38766 0.08614 0.0
O459 O 0.17881 0.35733 0.05008 0.0
H460 H 0.15585 0.36334 0.11425 0.0
H461 H 0.21802 0.38447 0.11773 0.0
C462 C 0.17853 0.39334 0.05266 0.0
C463 C 0.16536 0.38669 0.03859 0.0
C464 C 0.15529 0.39657 0.03419 0.0
C465 C 0.1586 0.41348 0.04358 0.0
C466 C 0.17213 0.42042 0.05741 0.0
C467 C 0.18189 0.41028 0.06203 0.0
C468 C 0.21571 0.39236 0.05159 0.0
C469 C 0.22444 0.38121 0.04676 0.0
C470 C 0.24411 0.39063 0.04185 0.0
C471 C 0.25543 0.41141 0.04182 0.0
C472 C 0.24664 0.42252 0.04683 0.0
C473 C 0.22697 0.41307 0.05175 0.0
C474 C 0.18948 0.37749 0.08209 0.0
C475 C 0.17134 0.37043 0.09023 0.0
C476 C 0.17002 0.36876 0.10823 0.0
C477 C 0.18679 0.37385 0.11836 0.0
C478 C 0.20489 0.38045 0.11016 0.0
C479 C 0.20624 0.38233 0.09212 0.0
P480 P 0.4764 0.95433 0.28549 0.0
H481 H 0.45429 0.96082 0.31273 0.0
H482 H 0.41931 0.94367 0.31982 0.0
H483 H 0.40745 0.90183 0.27806 0.0
H484 H 0.44229 0.91941 0.27057 0.0
H485 H 0.51101 0.96545 0.3074 0.0
H486 H 0.52792 0.94778 0.31594 0.0
H487 H 0.48483 0.89606 0.28745 0.0
H488 H 0.46775 0.91364 0.27944 0.0
H489 H 0.45924 0.97002 0.26146 0.0
H490 H 0.4978 0.94568 0.2586 0.0
O491 O 0.48733 0.97682 0.29471 0.0
H492 H 0.46077 0.97375 0.22992 0.0
H493 H 0.49934 0.9493 0.22723 0.0
C494 C 0.45087 0.94136 0.29114 0.0
C495 C 0.44418 0.94799 0.30507 0.0
C496 C 0.42424 0.93822 0.30911 0.0
C497 C 0.4108 0.92146 0.29947 0.0
C498 C 0.41759 0.91462 0.28575 0.0
C499 C 0.43747 0.92462 0.28152 0.0
C500 C 0.48801 0.94082 0.29291 0.0
C501 C 0.50506 0.95023 0.30318 0.0
C502 C 0.51482 0.94014 0.30793 0.0
C503 C 0.50779 0.92048 0.30234 0.0
C504 C 0.4905 0.91104 0.29224 0.0
C505 C 0.4807 0.92112 0.28761 0.0
C506 C 0.47814 0.95731 0.26236 0.0
C507 C 0.468 0.96545 0.25404 0.0
C508 C 0.46893 0.96762 0.23605 0.0
C509 C 0.48004 0.96166 0.22609 0.0
C510 C 0.49035 0.95368 0.23452 0.0
C511 C 0.48951 0.95165 0.25251 0.0
P512 P 0.09623 0.54635 0.26882 0.0
H513 H 0.12393 0.57591 0.29284 0.0
H514 H 0.1238 0.60322 0.30817 0.0
H515 H 0.06323 0.58045 0.2929 0.0
H516 H 0.0636 0.5531 0.27734 0.0
H517 H 0.10718 0.51782 0.2582 0.0
H518 H 0.10879 0.49145 0.27357 0.0
H519 H 0.0826 0.50199 0.31848 0.0
H520 H 0.08089 0.52857 0.30298 0.0
H521 H 0.09041 0.57058 0.24432 0.0
H522 H 0.06556 0.50819 0.25368 0.0
O523 O 0.11875 0.5585 0.26056 0.0
H524 H 0.07183 0.56299 0.21718 0.0
H525 H 0.04716 0.50051 0.22627 0.0
C526 C 0.09402 0.56301 0.28352 0.0
C527 C 0.11049 0.57655 0.29312 0.0
C528 C 0.11031 0.59205 0.30204 0.0
C529 C 0.09356 0.59413 0.30153 0.0
C530 C 0.07643 0.57937 0.29326 0.0
C531 C 0.07664 0.5638 0.28435 0.0
C532 C 0.09419 0.52523 0.27957 0.0
C533 C 0.10151 0.5143 0.27125 0.0
C534 C 0.10239 0.49928 0.27998 0.0
C535 C 0.0959 0.49498 0.29711 0.0
C536 C 0.08763 0.5052 0.30523 0.0
C537 C 0.08674 0.52033 0.29643 0.0
C538 C 0.0795 0.53998 0.25087 0.0
C539 C 0.08071 0.55524 0.24065 0.0
C540 C 0.07017 0.55089 0.22514 0.0
C541 C 0.05835 0.53117 0.21953 0.0
C542 C 0.05619 0.51582 0.23032 0.0
C543 C 0.06679 0.52022 0.24592 0.0
P544 P 0.4792 0.52085 0.28399 0.0
H545 H 0.50801 0.54399 0.31124 0.0
H546 H 0.52629 0.57954 0.31801 0.0
H547 H 0.49596 0.59 0.27631 0.0
H548 H 0.47793 0.55453 0.26947 0.0
H549 H 0.45025 0.47927 0.28694 0.0
H550 H 0.4154 0.46183 0.29404 0.0
H551 H 0.41816 0.51788 0.30338 0.0
H552 H 0.45278 0.53516 0.29589 0.0
H553 H 0.51171 0.53174 0.26063 0.0
H554 H 0.44892 0.50606 0.25625 0.0
O555 O 0.49067 0.51005 0.29308 0.0
H556 H 0.51396 0.53081 0.22909 0.0
H557 H 0.45093 0.50434 0.22484 0.0
C558 C 0.49183 0.54673 0.28972 0.0
C559 C 0.50529 0.55394 0.30358 0.0
C560 C 0.51572 0.57421 0.30743 0.0
C561 C 0.51256 0.58749 0.29764 0.0
C562 C 0.49858 0.58008 0.28413 0.0
C563 C 0.48838 0.55987 0.28015 0.0
C564 C 0.45417 0.50847 0.29109 0.0
C565 C 0.44338 0.48777 0.29072 0.0
C566 C 0.42348 0.47784 0.2948 0.0
C567 C 0.41402 0.48849 0.29932 0.0
C568 C 0.42495 0.50927 0.29975 0.0
C569 C 0.44485 0.51917 0.29562 0.0
C570 C 0.48019 0.51876 0.26081 0.0
C571 C 0.49839 0.52562 0.25288 0.0
C572 C 0.49961 0.52498 0.23485 0.0
C573 C 0.4826 0.51737 0.2244 0.0
C574 C 0.46434 0.51045 0.23246 0.0
C575 C 0.46316 0.51124 0.2505 0.0
O576 O 0.47623 0.97261 0.00299 0.0
Mn577 Mn 0.50332 -0.00165 0.00541 0.0
O578 O 0.46467 0.97327 0.02862 0.0
Mn579 Mn 0.47637 0.00054 0.02897 0.0
O580 O 0.53089 0.02458 0.00629 0.0
O581 O 0.5151 0.9815 -0.00066 0.0
Mn582 Mn 0.53578 0.99477 0.98642 0.0
O583 O 0.50146 0.00328 0.979 0.0
O584 O 0.55288 0.01514 0.00069 0.0
O585 O 0.50666 0.99445 0.0326 0.0
O586 O 0.49462 0.01151 0.04595 0.0
O587 O 0.5329 0.97004 0.98829 0.0
O588 O 0.52716 0.00224 0.96707 0.0
C589 C 0.47583 0.01701 0.00752 0.0
C590 C 0.46392 0.96398 0.01495 0.0
C591 C 0.54872 0.02822 0.00537 0.0
C592 C 0.51814 0.96679 0.99787 0.0
C593 C 0.51257 0.00512 0.9661 0.0
C594 C 0.50528 0.00359 0.04624 0.0
O595 O 0.491 0.01521 0.01123 0.0
O596 O 0.46124 0.00832 0.01802 0.0
O597 O 0.01765 0.48686 0.00754 0.0
Mn598 Mn 0.9963 0.49517 0.00449 0.0
O599 O 0.00469 0.46282 0.02752 0.0
Mn600 Mn 0.98014 0.46062 0.02963 0.0
O601 O 0.97458 0.50321 0.0024 0.0
O602 O 0.01807 0.52323 -0.00091 0.0
Mn603 Mn 0.00989 0.53003 0.98041 0.0
O604 O 0.99213 0.48615 0.97813 0.0
O605 O 0.98778 0.53094 0.98666 0.0
O606 O 0.0001 0.50394 0.03099 0.0
O607 O 0.97836 0.47725 0.04536 0.0
O608 O 0.0336 0.55138 0.98495 0.0
O609 O 0.00733 0.51359 0.96228 0.0
C610 C 0.96039 0.44931 0.00836 0.0
C611 C 0.01873 0.47437 0.01765 0.0
C612 C 0.97402 0.51799 0.99581 0.0
C613 C 0.03325 0.54097 0.99808 0.0
C614 C -0.00204 0.49493 0.96353 0.0
C615 C 0.99052 0.49563 0.04485 0.0
O616 O 0.97511 0.46719 0.00941 0.0
O617 O 0.95796 0.43856 0.02181 0.0
O618 O 0.53031 0.5113 0.00048 0.0
Mn619 Mn 0.5008 0.50271 0.00329 0.0
O620 O 0.53994 0.53249 0.9781 0.0
Mn621 Mn 0.51727 0.53421 0.97519 0.0
O622 O 0.4714 0.49409 0.00561 0.0
O623 O 0.49489 0.47581 0.01087 0.0
Mn624 Mn 0.483 0.47013 0.03092 0.0
O625 O 0.50571 0.51373 0.02912 0.0
O626 O 0.46016 0.47137 0.02688 0.0
O627 O 0.49582 0.49142 0.9777 0.0
O628 O 0.49833 0.5155 0.96076 0.0
O629 O 0.48383 0.44795 0.02398 0.0
O630 O 0.50091 0.48854 0.04606 0.0
C631 C 0.50935 0.54749 0.99541 0.0
C632 C 0.54319 0.52248 0.98937 0.0
C633 C 0.4578 0.48194 0.0156 0.0
C634 C 0.49115 0.45775 0.00992 0.0
C635 C 0.50677 0.50673 0.0439 0.0
C636 C 0.49339 0.49756 0.96302 0.0
O637 O 0.50672 0.52978 0.99585 0.0
O638 O 0.51682 0.5568 0.98117 0.0
O639 O 0.14211 0.31143 0.34058 0.0
Mn640 Mn 0.17039 0.3346 0.33845 0.0
O641 O 0.13076 0.32112 0.36347 0.0
Mn642 Mn 0.15057 0.34773 0.36551 0.0
O643 O 0.19936 0.3585 0.3371 0.0
O644 O 0.18076 0.31616 0.33239 0.0
Mn645 Mn 0.1955 0.32648 0.31371 0.0
O646 O 0.16402 0.33821 0.31269 0.0
O647 O 0.21704 0.3457 0.32553 0.0
O648 O 0.17505 0.3301 0.36481 0.0
O649 O 0.17216 0.35338 0.37875 0.0
O650 O 0.18322 0.29947 0.31148 0.0
O651 O 0.18676 0.33661 0.29694 0.0
C652 C 0.15461 0.36567 0.3436 0.0
C653 C 0.12898 0.3084 0.35187 0.0
C654 C 0.21583 0.35937 0.33371 0.0
C655 C 0.17633 0.29875 0.32676 0.0
C656 C 0.17235 0.33937 0.29823 0.0
C657 C 0.17638 0.33975 0.37887 0.0
O658 O 0.16046 0.353 0.34469 0.0
O659 O 0.14648 0.36751 0.35749 0.0
O660 O 0.68486 0.82148 0.34061 0.0
Mn661 Mn 0.66365 0.82991 0.33763 0.0
O662 O 0.67262 0.80007 0.36285 0.0
Mn663 Mn 0.64772 0.79738 0.36455 0.0
O664 O 0.64076 0.83668 0.33643 0.0
O665 O 0.68586 0.85794 0.33152 0.0
Mn666 Mn 0.67268 0.86453 0.31696 0.0
O667 O 0.65929 0.82084 0.31131 0.0
O668 O 0.65463 0.86803 0.32876 0.0
O669 O 0.66895 0.8396 0.36373 0.0
O670 O 0.64585 0.81524 0.37896 0.0
O671 O 0.69661 0.88545 0.31577 0.0
O672 O 0.66392 0.84817 0.29796 0.0
C673 C 0.62832 0.78415 0.34311 0.0
C674 C 0.68626 0.81024 0.35203 0.0
C675 C 0.64031 0.8528 0.33495 0.0
C676 C 0.69997 0.87577 0.32761 0.0
C677 C 0.65978 0.83026 0.29756 0.0
C678 C 0.65953 0.833 0.3779 0.0
O679 O 0.64274 0.80218 0.34352 0.0
O680 O 0.62579 0.77455 0.35734 0.0
O681 O 0.19472 0.83734 0.33732 0.0
Mn682 Mn 0.16593 0.83149 0.33661 0.0
O683 O 0.20301 0.85233 0.31184 0.0
Mn684 Mn 0.18225 0.85735 0.31105 0.0
O685 O 0.13701 0.82611 0.33553 0.0
O686 O 0.15688 0.80319 0.34253 0.0
Mn687 Mn 0.13824 0.79506 0.35802 0.0
O688 O 0.1677 0.8395 0.36306 0.0
O689 O 0.11786 0.79639 0.34751 0.0
O690 O 0.16315 0.82071 0.31076 0.0
O691 O 0.16119 0.84307 0.29655 0.0
O692 O 0.1416 0.77387 0.35394 0.0
O693 O 0.14884 0.81103 0.3772 0.0
C694 C 0.18379 0.87966 0.32541 0.0
C695 C 0.20698 0.84526 0.32502 0.0
C696 C 0.12012 0.81149 0.3394 0.0
C697 C 0.15424 0.78546 0.34275 0.0
C698 C 0.16019 0.82968 0.37701 0.0
C699 C 0.15781 0.82571 0.297 0.0
O700 O 0.17581 0.86178 0.33217 0.0
O701 O 0.19057 0.88259 0.30977 0.0
O702 O 0.80921 0.64253 0.66896 0.0
Mn703 Mn 0.83758 0.666 0.67126 0.0
O704 O 0.79582 0.64551 0.69324 0.0
Mn705 Mn 0.81279 0.6724 0.69627 0.0
O706 O 0.86638 0.68973 0.67225 0.0
O707 O 0.847 0.64706 0.66505 0.0
Mn708 Mn 0.86318 0.65622 0.64763 0.0
O709 O 0.8358 0.67253 0.64494 0.0
O710 O 0.88354 0.68058 0.65474 0.0
O711 O 0.83992 0.65992 0.69783 0.0
O712 O 0.83105 0.67847 0.7133 0.0
O713 O 0.862 0.63288 0.65314 0.0
O714 O 0.84881 0.65738 0.62948 0.0
C715 C 0.81559 0.69054 0.6749 0.0
C716 C 0.79526 0.63587 0.67978 0.0
C717 C 0.88224 0.69311 0.66458 0.0
C718 C 0.85 0.63222 0.6649 0.0
C719 C 0.83996 0.66722 0.63041 0.0
C720 C 0.83955 0.66834 0.71225 0.0
O721 O 0.82837 0.68516 0.67844 0.0
O722 O 0.80239 0.68613 0.68666 0.0
O723 O 0.35258 0.15592 0.67244 0.0
Mn724 Mn 0.331 0.1637 0.67067 0.0
O725 O 0.34528 0.1428 0.69861 0.0
Mn726 Mn 0.31878 0.13557 0.69808 0.0
O727 O 0.30939 0.17191 0.66903 0.0
O728 O 0.35224 0.19124 0.6645 0.0
Mn729 Mn 0.34457 0.19914 0.64638 0.0
O730 O 0.32597 0.1543 0.64434 0.0
O731 O 0.32254 0.19987 0.65348 0.0
O732 O 0.33641 0.17415 0.69683 0.0
O733 O 0.31254 0.15071 0.71184 0.0
O734 O 0.36889 0.21977 0.65191 0.0
O735 O 0.34123 0.18204 0.62857 0.0
C736 C 0.30439 0.11691 0.67753 0.0
C737 C 0.35689 0.14933 0.68585 0.0
C738 C 0.30883 0.18679 0.66265 0.0
C739 C 0.36782 0.20859 0.66461 0.0
C740 C 0.33181 0.16331 0.62976 0.0
C741 C 0.32608 0.16848 0.7107 0.0
O742 O 0.30913 0.13559 0.67707 0.0
O743 O 0.30479 0.10988 0.69262 0.0
O744 O 0.86185 0.17336 0.66982 0.0
Mn745 Mn 0.83291 0.16704 0.67005 0.0
O746 O 0.87404 0.19208 0.64651 0.0
Mn747 Mn 0.85534 0.1999 0.64512 0.0
O748 O 0.80343 0.15974 0.67096 0.0
O749 O 0.8256 0.13915 0.67533 0.0
Mn750 Mn 0.81024 0.13039 0.69323 0.0
O751 O 0.83653 0.17508 0.69686 0.0
O752 O 0.78827 0.13171 0.68656 0.0
O753 O 0.82896 0.15885 0.64326 0.0
O754 O 0.83651 0.18635 0.62859 0.0
O755 O 0.81308 0.10963 0.68552 0.0
O756 O 0.82471 0.14643 0.71121 0.0
C757 C 0.85197 0.21365 0.66785 0.0
C758 C 0.87532 0.18199 0.65865 0.0
C759 C 0.78796 0.14512 0.67743 0.0
C760 C 0.82269 0.1215 0.67306 0.0
C761 C 0.8337 0.16521 0.71096 0.0
C762 C 0.82854 0.16763 0.62926 0.0
O763 O 0.84033 0.19517 0.66384 0.0
O764 O 0.86396 0.22376 0.65566 0.0
H765 H 0.30401 0.85441 0.06708 0.0
H766 H 0.33493 0.87972 0.05554 0.0
H767 H 0.3076 0.87322 0.00538 0.0
H768 H 0.27649 0.84671 0.0168 0.0
H769 H 0.3397 0.87166 0.00188 0.0
H770 H 0.32624 0.91763 0.03004 0.0
H771 H 0.31488 0.93102 0.05353 0.0
H772 H 0.36057 0.93539 0.08711 0.0
H773 H 0.37208 0.92183 0.06392 0.0
H774 H 0.44096 0.95259 0.98584 0.0
H775 H 0.40524 0.93049 0.98607 0.0
H776 H 0.4094 0.91276 0.03797 0.0
H777 H 0.44491 0.93464 0.03776 0.0
H778 H 0.3869 0.93246 0.03418 0.0
H779 H 0.39425 0.87933 0.00799 0.0
H780 H 0.40536 0.86528 0.98484 0.0
H781 H 0.37089 0.87546 0.94744 0.0
H782 H 0.35975 0.88977 0.97038 0.0
C783 C 0.3045 0.85844 0.05361 0.0
C784 C 0.28796 0.84833 0.04275 0.0
C785 C 0.32214 0.87319 0.04707 0.0
C786 C 0.32358 0.87862 0.02962 0.0
C787 C 0.30679 0.86932 0.01891 0.0
C788 C 0.28904 0.85429 0.02545 0.0
C789 C 0.34321 0.89218 0.02247 0.0
C790 C 0.34986 0.8853 0.00861 0.0
C791 C 0.35654 0.90993 0.03128 0.0
C792 C 0.35004 0.91869 0.04518 0.0
C793 C 0.33386 0.92141 0.04244 0.0
C794 C 0.32738 0.92903 0.05571 0.0
C795 C 0.33699 0.93405 0.0718 0.0
C796 C 0.35316 0.93154 0.07463 0.0
C797 C 0.35971 0.92395 0.06139 0.0
C798 C 0.43434 0.94313 0.99688 0.0
C799 C 0.44555 0.94534 0.01184 0.0
C800 C 0.41394 0.93076 0.9971 0.0
C801 C 0.40477 0.92046 0.0122 0.0
C802 C 0.41626 0.92086 0.0263 0.0
C803 C 0.43653 0.93314 0.02608 0.0
C804 C 0.38335 0.91124 0.01437 0.0
C805 C 0.3765 0.91915 0.02716 0.0
C806 C 0.36985 0.89458 0.00454 0.0
C807 C 0.37637 0.88582 0.99083 0.0
C808 C 0.38917 0.87871 0.9948 0.0
C809 C 0.39544 0.87067 0.98173 0.0
C810 C 0.38889 0.86954 0.96467 0.0
C811 C 0.37598 0.87637 0.96065 0.0
C812 C 0.36967 0.88443 0.97368 0.0
H813 H 0.39377 0.86332 0.95456 0.0
H814 H 0.33192 0.93988 0.08207 0.0
H815 H 0.11935 0.39785 0.04587 0.0
H816 H 0.10007 0.41357 0.03875 0.0
H817 H 0.15297 0.46666 0.02417 0.0
H818 H 0.17241 0.45115 0.03229 0.0
H819 H 0.12981 0.47624 0.04089 0.0
H820 H 0.11975 0.43194 0.9932 0.0
H821 H 0.11167 0.39997 0.9796 0.0
H822 H 0.05398 0.37295 0.00139 0.0
H823 H 0.06178 0.40464 0.01533 0.0
H824 H 0.05411 0.49694 0.00079 0.0
H825 H 0.08338 0.4931 0.00239 0.0
H826 H 0.05339 0.44492 0.03781 0.0
H827 H 0.02462 0.44852 0.03652 0.0
H828 H 0.07033 0.43887 0.00397 0.0
H829 H 0.0826 0.47974 0.05628 0.0
H830 H 0.09042 0.51027 0.07243 0.0
H831 H 0.14319 0.54268 0.04312 0.0
H832 H 0.13548 0.51235 0.02658 0.0
C833 C 0.12679 0.41288 0.04115 0.0
C834 C 0.14724 0.42328 0.03941 0.0
C835 C 0.11581 0.42182 0.03697 0.0
C836 C 0.12498 0.44111 0.03039 0.0
C837 C 0.14554 0.45171 0.02904 0.0
C838 C 0.15661 0.44288 0.03362 0.0
C839 C 0.11294 0.45004 0.02508 0.0
C840 C 0.11707 0.46828 0.03247 0.0
C841 C 0.09626 0.43968 0.01411 0.0
C842 C 0.09139 0.4207 0.00534 0.0
C843 C 0.10536 0.41917 0.99513 0.0
C844 C 0.10082 0.40109 0.98737 0.0
C845 C 0.08233 0.38444 0.98963 0.0
C846 C 0.06829 0.38586 -0.00038 0.0
C847 C 0.07275 0.40389 0.00743 0.0
C848 C 0.05384 0.4856 0.00897 0.0
C849 C 0.03687 0.47293 0.01837 0.0
C850 C 0.07059 0.48355 0.00995 0.0
C851 C 0.07048 0.46879 0.0203 0.0
C852 C 0.05375 0.45643 0.02981 0.0
C853 C 0.03723 0.45852 0.02896 0.0
C854 C 0.08678 0.46451 0.02034 0.0
C855 C 0.08347 0.44712 0.01189 0.0
C856 C 0.10402 0.47553 0.03043 0.0
C857 C 0.10822 0.49387 0.03991 0.0
C858 C 0.09566 0.49344 0.05303 0.0
C859 C 0.10014 0.51069 0.06233 0.0
C860 C 0.11723 0.52843 0.05873 0.0
C861 C 0.1299 0.52895 0.04583 0.0
C862 C 0.12547 0.51174 0.03648 0.0
H863 H 0.12071 0.54175 0.06599 0.0
H864 H 0.07886 0.37045 0.98364 0.0
H865 H 0.5517 0.71891 0.02284 0.0
H866 H 0.53634 0.68279 0.01912 0.0
H867 H 0.57908 0.68279 0.05436 0.0
H868 H 0.59422 0.71876 0.05818 0.0
H869 H 0.57302 0.66018 0.02401 0.0
H870 H 0.53443 0.66883 0.06847 0.0
H871 H 0.51395 0.68198 0.07994 0.0
H872 H 0.47181 0.65235 0.03895 0.0
H873 H 0.4922 0.63928 0.02707 0.0
H874 H 0.53101 0.55838 0.02511 0.0
H875 H 0.54121 0.59017 0.03971 0.0
H876 H 0.4962 0.59498 0.01173 0.0
H877 H 0.48599 0.5633 0.99743 0.0
H878 H 0.5039 0.61522 0.04073 0.0
H879 H 0.54059 0.60833 0.99465 0.0
H880 H 0.56075 0.59711 0.97929 0.0
H881 H 0.6063 0.6258 0.01778 0.0
H882 H 0.58602 0.63638 0.03384 0.0
C883 C 0.55778 0.7111 0.02967 0.0
C884 C 0.57403 0.72138 0.04079 0.0
C885 C 0.549 0.69056 0.02763 0.0
C886 C 0.55647 0.68012 0.03662 0.0
C887 C 0.57305 0.69055 0.04737 0.0
C888 C 0.58166 0.71101 0.04955 0.0
C889 C 0.54705 0.6583 0.0349 0.0
C890 C 0.55803 0.65028 0.02796 0.0
C891 C 0.52728 0.64553 0.03953 0.0
C892 C 0.51492 0.65319 0.04682 0.0
C893 C 0.52086 0.66523 0.06183 0.0
C894 C 0.50926 0.67266 0.06842 0.0
C895 C 0.4916 0.66804 0.06016 0.0
C896 C 0.48549 0.65593 0.04533 0.0
C897 C 0.49706 0.64849 0.03868 0.0
C898 C 0.52248 0.56562 0.02301 0.0
C899 C 0.50775 0.55851 0.01018 0.0
C900 C 0.52855 0.58397 0.0311 0.0
C901 C 0.51993 0.59529 0.02631 0.0
C902 C 0.50324 0.58667 0.0155 0.0
C903 C 0.49724 0.56842 0.00745 0.0
C904 C 0.52993 0.61693 0.02998 0.0
C905 C 0.51903 0.62501 0.0371 0.0
C906 C 0.54965 0.62984 0.02503 0.0
C907 C 0.56156 0.62279 0.01568 0.0
C908 C 0.55472 0.6119 6e-05 0.0
C909 C 0.56618 0.60563 0.99122 0.0
C910 C 0.58472 0.61055 0.99765 0.0
C911 C 0.59182 0.62174 0.01294 0.0
C912 C 0.58031 0.62779 0.02196 0.0
H913 H 0.59363 0.6058 0.99073 0.0
H914 H 0.48264 0.6738 0.06528 0.0
H915 H 0.83213 0.27809 0.97533 0.0
H916 H 0.85155 0.31413 0.97901 0.0
H917 H 0.90348 0.31283 0.96314 0.0
H918 H 0.88424 0.27675 0.96044 0.0
H919 H 0.9127 0.33757 0.9882 0.0
H920 H 0.87461 0.32646 0.93536 0.0
H921 H 0.84384 0.31256 0.9183 0.0
H922 H 0.82337 0.34301 0.95125 0.0
H923 H 0.85392 0.35691 0.96862 0.0
H924 H 0.97315 0.43804 0.98047 0.0
H925 H 0.95235 0.40543 0.96713 0.0
H926 H 0.90124 0.40363 0.98926 0.0
H927 H 0.92205 0.4361 0.0026 0.0
H928 H 0.89181 0.38087 0.95971 0.0
H929 H 0.92746 0.39022 0.01318 0.0
H930 H 0.95631 0.4025 0.03261 0.0
H931 H 0.97982 0.37423 0.00051 0.0
H932 H 0.95123 0.36197 0.98075 0.0
C933 C 0.84773 0.28559 0.97277 0.0
C934 C 0.85676 0.27478 0.96757 0.0
C935 C 0.85879 0.30617 0.9747 0.0
C936 C 0.87893 0.31634 0.97089 0.0
C937 C 0.88797 0.3054 0.96607 0.0
C938 C 0.87701 0.28481 0.96454 0.0
C939 C 0.89072 0.33833 0.97201 0.0
C940 C 0.9083 0.347 0.98164 0.0
C941 C 0.88471 0.35073 0.96397 0.0
C942 C 0.86651 0.34264 0.95333 0.0
C943 C 0.86352 0.33014 0.93899 0.0
C944 C 0.84612 0.32226 0.92927 0.0
C945 C 0.83165 0.32688 0.9337 0.0
C946 C 0.83458 0.33944 0.94783 0.0
C947 C 0.85195 0.34735 0.9576 0.0
C948 C 0.95735 0.43132 0.98141 0.0
C949 C 0.94915 0.43944 0.99264 0.0
C950 C 0.9455 0.41248 0.97408 0.0
C951 C 0.92535 0.40183 0.97776 0.0
C952 C 0.91678 0.41147 0.98643 0.0
C953 C 0.92866 0.43021 0.99384 0.0
C954 C 0.91397 0.37999 0.97548 0.0
C955 C 0.89637 0.37138 0.96589 0.0
C956 C 0.91986 0.36759 0.98369 0.0
C957 C 0.93736 0.37547 0.9953 0.0
C958 C 0.93891 0.38685 0.01012 0.0
C959 C 0.95519 0.39376 0.02123 0.0
C960 C 0.96994 0.38926 0.01773 0.0
C961 C 0.96843 0.37779 0.00315 0.0
C962 C 0.9522 0.37087 0.99199 0.0
H963 H 0.98251 0.39458 0.02637 0.0
H964 H 0.81819 0.32075 0.92618 0.0
H965 H 0.72172 0.55013 0.98085 0.0
H966 H 0.68671 0.53417 0.98817 0.0
H967 H 0.68459 0.58471 0.96849 0.0
H968 H 0.71961 0.60082 0.9619 0.0
H969 H 0.66646 0.57479 0.99755 0.0
H970 H 0.66561 0.53938 0.94557 0.0
H971 H 0.67454 0.51906 0.92722 0.0
H972 H 0.65008 0.47258 0.96456 0.0
H973 H 0.64118 0.49273 0.98322 0.0
H974 H 0.57162 0.54039 0.96514 0.0
H975 H 0.60445 0.54484 0.96517 0.0
H976 H 0.59242 0.5123 0.01264 0.0
H977 H 0.55912 0.50776 0.0129 0.0
H978 H 0.61668 0.50842 0.97519 0.0
H979 H 0.61722 0.54734 0.02687 0.0
H980 H 0.60655 0.56888 0.04097 0.0
H981 H 0.63067 0.60998 -0.0008 0.0
H982 H 0.64131 0.58855 0.98479 0.0
C983 C 0.71363 0.5577 0.97814 0.0
C984 C 0.72311 0.57662 0.97091 0.0
C985 C 0.69369 0.54859 0.98223 0.0
C986 C 0.68296 0.55819 0.9788 0.0
C987 C 0.69256 0.57706 0.97139 0.0
C988 C 0.71249 0.58624 0.96757 0.0
C989 C 0.66182 0.54895 0.9831 0.0
C990 C 0.65568 0.56018 0.99278 0.0
C991 C 0.64763 0.52979 0.97706 0.0
C992 C 0.65295 0.51765 0.96588 0.0
C993 C 0.66228 0.52489 0.94992 0.0
C994 C 0.6673 0.51339 0.93946 0.0
C995 C 0.66294 0.49457 0.94475 0.0
C996 C 0.65348 0.48718 0.9605 0.0
C997 C 0.64843 0.49862 0.97102 0.0
C998 C 0.57576 0.53403 0.97561 0.0
C999 C 0.56274 0.52396 0.98918 0.0
C1000 C 0.59452 0.53646 0.97548 0.0
C1001 C 0.60075 0.52887 0.98886 0.0
C1002 C 0.58773 0.51814 0.00214 0.0
C1003 C 0.56879 0.51569 0.00231 0.0
C1004 C 0.62163 0.53435 0.98951 0.0
C1005 C 0.62767 0.52262 0.98055 0.0
C1006 C 0.63579 0.55318 0.99591 0.0
C1007 C 0.62998 0.56635 0.00477 0.0
C1008 C 0.62018 0.56094 0.02069 0.0
C1009 C 0.61415 0.57312 0.02873 0.0
C1010 C 0.61793 0.59077 0.02098 0.0
C1011 C 0.62778 0.59632 0.00519 0.0
C1012 C 0.63385 0.58419 0.99711 0.0
H1013 H 0.61326 0.60015 0.02727 0.0
H1014 H 0.66684 0.48569 0.93663 0.0
H1015 H 0.44549 0.14474 0.93763 0.0
H1016 H 0.45233 0.11895 0.9463 0.0
H1017 H 0.42927 0.11822 0.99718 0.0
H1018 H 0.42306 0.14489 0.98864 0.0
H1019 H 0.46545 0.12288 0.99858 0.0
H1020 H 0.40529 0.07781 0.96922 0.0
H1021 H 0.3816 0.06659 0.94484 0.0
H1022 H 0.42437 0.06539 0.9112 0.0
H1023 H 0.44836 0.07674 0.93534 0.0
H1024 H 0.47541 0.0443 0.02787 0.0
H1025 H 0.46876 0.06973 0.01919 0.0
H1026 H 0.47888 0.06061 0.96564 0.0
H1027 H 0.48245 0.03229 0.97444 0.0
H1028 H 0.4484 0.06121 0.96595 0.0
H1029 H 0.50945 0.10769 0.99553 0.0
H1030 H 0.53313 0.12011 0.01998 0.0
H1031 H 0.48938 0.11993 0.05319 0.0
H1032 H 0.46544 0.10747 0.02901 0.0
C1033 C 0.4417 0.13895 0.95062 0.0
C1034 C 0.43411 0.14698 0.9626 0.0
C1035 C 0.44537 0.12404 0.95549 0.0
C1036 C 0.44117 0.11659 0.97232 0.0
C1037 C 0.43255 0.1238 0.98409 0.0
C1038 C 0.42895 0.1389 0.97922 0.0
C1039 C 0.44795 0.10301 0.97796 0.0
C1040 C 0.46154 0.1092 0.99167 0.0
C1041 C 0.44328 0.08561 0.9685 0.0
C1042 C 0.42865 0.0782 0.95409 0.0
C1043 C 0.40966 0.0752 0.95662 0.0
C1044 C 0.39617 0.0688 0.94284 0.0
C1045 C 0.40149 0.06531 0.92648 0.0
C1046 C 0.42026 0.06808 0.92388 0.0
C1047 C 0.43379 0.07443 0.93762 0.0
C1048 C 0.47659 0.04795 0.01423 0.0
C1049 C 0.47896 0.03615 0.00174 0.0
C1050 C 0.4732 0.06294 0.00927 0.0
C1051 C 0.47369 0.06766 0.99174 0.0
C1052 C 0.4783 0.05722 0.97928 0.0
C1053 C 0.4806 0.04125 0.98424 0.0
C1054 C 0.46649 0.0812 0.98646 0.0
C1055 C 0.45262 0.07495 0.97285 0.0
C1056 C 0.47103 0.09869 0.996 0.0
C1057 C 0.48565 0.10661 0.01043 0.0
C1058 C 0.50489 0.11029 0.00805 0.0
C1059 C 0.51835 0.11734 0.02187 0.0
C1060 C 0.51276 0.12079 0.03812 0.0
C1061 C 0.49371 0.1173 0.04059 0.0
C1062 C 0.48022 0.11032 0.02681 0.0
H1063 H 0.52319 0.12619 0.0488 0.0
H1064 H 0.39105 0.06043 0.91581 0.0
H1065 H 0.72925 0.15849 0.99594 0.0
H1066 H 0.69428 0.14144 0.0029 0.0
H1067 H 0.68079 0.10899 0.95444 0.0
H1068 H 0.71576 0.12607 0.94733 0.0
H1069 H 0.65596 0.12467 0.9619 0.0
H1070 H 0.68009 0.08568 0.98806 0.0
H1071 H 0.70226 0.07945 0.00619 0.0
H1072 H 0.68604 0.10061 0.05121 0.0
H1073 H 0.66397 0.10725 0.03328 0.0
H1074 H 0.56235 0.04316 0.97464 0.0
H1075 H 0.59515 0.06928 0.96861 0.0
H1076 H 0.60436 0.08561 0.023 0.0
H1077 H 0.57174 0.05733 0.02924 0.0
H1078 H 0.63216 0.08173 0.01344 0.0
H1079 H 0.6036 0.11676 0.98492 0.0
H1080 H 0.58055 0.11939 0.96483 0.0
H1081 H 0.60412 0.10253 0.9221 0.0
H1082 H 0.62717 0.09961 0.94191 0.0
C1083 C 0.71881 0.14781 0.98672 0.0
C1084 C 0.7252 0.14356 0.97112 0.0
C1085 C 0.69889 0.13806 0.99074 0.0
C1086 C 0.68503 0.12399 0.97917 0.0
C1087 C 0.6913 0.11987 0.96348 0.0
C1088 C 0.71126 0.12948 0.95953 0.0
C1089 C 0.66401 0.11319 0.9837 0.0
C1090 C 0.65062 0.11524 0.97315 0.0
C1091 C 0.65728 0.10113 0.99847 0.0
C1092 C 0.67058 0.09721 0.00929 0.0
C1093 C 0.68141 0.08921 0.0018 0.0
C1094 C 0.69392 0.08556 0.01204 0.0
C1095 C 0.69561 0.0897 0.02983 0.0
C1096 C 0.68475 0.09746 0.03742 0.0
C1097 C 0.67223 0.10116 0.02722 0.0
C1098 C 0.57108 0.05286 0.98523 0.0
C1099 C 0.56455 0.04845 0.00236 0.0
C1100 C 0.58993 0.06802 0.98174 0.0
C1101 C 0.60238 0.07992 0.99524 0.0
C1102 C 0.59508 0.07669 0.01231 0.0
C1103 C 0.57636 0.06079 0.01591 0.0
C1104 C 0.62365 0.0933 0.99182 0.0
C1105 C 0.63728 0.0916 0.00248 0.0
C1106 C 0.63052 0.10546 0.97695 0.0
C1107 C 0.61713 0.10798 0.96494 0.0
C1108 C 0.60388 0.11363 0.97124 0.0
C1109 C 0.59079 0.11515 0.9599 0.0
C1110 C 0.59087 0.11113 0.9422 0.0
C1111 C 0.6041 0.10568 0.9358 0.0
C1112 C 0.61722 0.10416 0.94707 0.0
H1113 H 0.58069 0.11225 0.93346 0.0
H1114 H 0.70529 0.08685 0.03775 0.0
H1115 H 0.88143 0.60386 0.96996 0.0
H1116 H 0.89991 0.58723 0.97619 0.0
H1117 H 0.84587 0.53225 0.98325 0.0
H1118 H 0.82721 0.54909 0.97803 0.0
H1119 H 0.87138 0.53599 0.00709 0.0
H1120 H 0.87341 0.54195 0.94548 0.0
H1121 H 0.87879 0.55846 0.9173 0.0
H1122 H 0.93967 0.59644 0.93021 0.0
H1123 H 0.93462 0.58038 0.95857 0.0
H1124 H 0.93473 0.48989 0.99566 0.0
H1125 H 0.90727 0.49663 0.9938 0.0
H1126 H 0.9481 0.55907 3e-05 0.0
H1127 H 0.97524 0.55253 0.00187 0.0
H1128 H 0.92446 0.54476 0.96733 0.0
H1129 H 0.92072 0.54143 0.03041 0.0
H1130 H 0.91525 0.52465 0.05846 0.0
H1131 H 0.85732 0.48063 0.04181 0.0
H1132 H 0.86257 0.49702 0.01354 0.0
C1133 C 0.87342 0.5883 0.9731 0.0
C1134 C 0.8528 0.57783 0.97346 0.0
C1135 C 0.88403 0.57872 0.97641 0.0
C1136 C 0.87427 0.55837 0.97981 0.0
C1137 C 0.85371 0.54791 0.9805 0.0
C1138 C 0.84307 0.55754 0.97736 0.0
C1139 C 0.88568 0.5482 0.98282 0.0
C1140 C 0.88273 0.53759 0.99822 0.0
C1141 C 0.90052 0.55025 0.97127 0.0
C1142 C 0.90358 0.56002 0.95422 0.0
C1143 C 0.88791 0.55392 0.94237 0.0
C1144 C 0.89091 0.56319 0.92635 0.0
C1145 C 0.90955 0.57851 0.92198 0.0
C1146 C 0.92524 0.58458 0.93361 0.0
C1147 C 0.92232 0.57538 0.94965 0.0
C1148 C 0.93765 0.50494 0.99718 0.0
C1149 C 0.95704 0.52074 0.99865 0.0
C1150 C 0.92203 0.50876 0.99608 0.0
C1151 C 0.92579 0.52836 0.99663 0.0
C1152 C 0.94498 0.54388 -0.00051 0.0
C1153 C 0.96044 0.54012 0.0005 0.0
C1154 C 0.91063 0.53337 0.99183 0.0
C1155 C 0.91283 0.54288 0.976 0.0
C1156 C 0.89515 0.53025 0.00292 0.0
C1157 C 0.89215 0.52026 0.01977 0.0
C1158 C 0.90692 0.52802 0.03264 0.0
C1159 C 0.90383 0.51863 0.0486 0.0
C1160 C 0.88598 0.50154 0.05189 0.0
C1161 C 0.87116 0.49384 0.03923 0.0
C1162 C 0.87418 0.50317 0.02324 0.0
H1163 H 0.8836 0.49431 0.06426 0.0
H1164 H 0.91184 0.58566 0.90957 0.0
H1165 H 0.46224 0.29437 0.96193 0.0
H1166 H 0.47208 0.3291 0.96535 0.0
H1167 H 0.41642 0.31292 0.98884 0.0
H1168 H 0.40613 0.27763 0.9848 0.0
H1169 H 0.42715 0.34176 0.96434 0.0
H1170 H 0.45791 0.33117 0.01399 0.0
H1171 H 0.47735 0.318 0.02764 0.0
H1172 H 0.52686 0.35598 0.99642 0.0
H1173 H 0.50765 0.36923 0.98245 0.0
H1174 H 0.4564 0.4382 0.99468 0.0
H1175 H 0.44415 0.40486 0.98481 0.0
H1176 H 0.50363 0.41695 0.97739 0.0
H1177 H 0.51569 0.44952 0.99097 0.0
H1178 H 0.48937 0.38843 0.99451 0.0
H1179 H 0.45833 0.39827 0.94338 0.0
H1180 H 0.43802 0.40966 0.92844 0.0
H1181 H 0.38904 0.37247 0.96055 0.0
H1182 H 0.40905 0.36095 0.97571 0.0
C1183 C 0.45223 0.29819 0.96817 0.0
C1184 C 0.43361 0.28343 0.97349 0.0
C1185 C 0.45784 0.31803 0.97005 0.0
C1186 C 0.44514 0.32358 0.97765 0.0
C1187 C 0.42646 0.30888 0.98304 0.0
C1188 C 0.42066 0.28884 0.98087 0.0
C1189 C 0.45153 0.34484 0.97947 0.0
C1190 C 0.44065 0.35208 0.97105 0.0
C1191 C 0.46935 0.35818 0.9879 0.0
C1192 C 0.48132 0.35119 0.99716 0.0
C1193 C 0.47296 0.33676 0.01007 0.0
C1194 C 0.48392 0.32925 0.01784 0.0
C1195 C 0.50332 0.33614 0.01289 0.0
C1196 C 0.51185 0.35068 0.00026 0.0
C1197 C 0.50095 0.35824 0.99245 0.0
C1198 C 0.4669 0.43408 0.99008 0.0
C1199 C 0.48693 0.44625 0.99381 0.0
C1200 C 0.45981 0.41473 0.98424 0.0
C1201 C 0.47278 0.40782 0.98023 0.0
C1202 C 0.49313 0.42152 0.9808 0.0
C1203 C 0.50017 0.44044 0.98806 0.0
C1204 C 0.46546 0.38606 0.97865 0.0
C1205 C 0.47603 0.3785 0.98742 0.0
C1206 C 0.4474 0.37245 0.97035 0.0
C1207 C 0.43521 0.3788 0.96069 0.0
C1208 C 0.44322 0.39251 0.94721 0.0
C1209 C 0.43176 0.39899 0.93873 0.0
C1210 C 0.41226 0.3918 0.94355 0.0
C1211 C 0.40412 0.378 0.9568 0.0
C1212 C 0.41549 0.37143 0.96529 0.0
H1213 H 0.40346 0.39692 0.93702 0.0
H1214 H 0.51175 0.33023 0.01884 0.0
H1215 H 0.13536 0.7094 0.0634 0.0
H1216 H 0.11128 0.67456 0.05849 0.0
H1217 H 0.1316 0.67818 0.00609 0.0
H1218 H 0.15607 0.71323 0.011 0.0
H1219 H 0.08863 0.65306 0.01137 0.0
H1220 H 0.15085 0.66353 0.03069 0.0
H1221 H 0.18034 0.67778 0.04943 0.0
H1222 H 0.14472 0.64838 0.09343 0.0
H1223 H 0.11492 0.63431 0.07499 0.0
H1224 H 0.07206 0.55698 0.99422 0.0
H1225 H 0.0943 0.58988 0.00609 0.0
H1226 H 0.05064 0.58278 0.04334 0.0
H1227 H 0.02797 0.54998 0.03096 0.0
H1228 H 0.10437 0.60963 0.04644 0.0
H1229 H 0.04068 0.60169 0.02389 0.0
H1230 H 0.01368 0.58901 0.00237 0.0
H1231 H 0.05538 0.6149 0.96135 0.0
H1232 H 0.08264 0.62717 0.98262 0.0
C1233 C 0.13427 0.703 0.05063 0.0
C1234 C 0.14762 0.71398 0.03758 0.0
C1235 C 0.12059 0.68306 0.0479 0.0
C1236 C 0.1199 0.67383 0.03204 0.0
C1237 C 0.13201 0.68512 0.01845 0.0
C1238 C 0.14596 0.70506 0.02126 0.0
C1239 C 0.10814 0.65206 0.03042 0.0
C1240 C 0.092 0.64356 0.01907 0.0
C1241 C 0.11274 0.63975 0.04038 0.0
C1242 C 0.13062 0.64808 0.05151 0.0
C1243 C 0.14927 0.66029 0.0444 0.0
C1244 C 0.16605 0.66831 0.05496 0.0
C1245 C 0.1644 0.66404 0.07263 0.0
C1246 C 0.14596 0.65172 0.07975 0.0
C1247 C 0.12912 0.64372 0.06926 0.0
C1248 C 0.06767 0.56186 0.0057 0.0
C1249 C 0.04826 0.5511 0.01156 0.0
C1250 C 0.08028 0.58083 0.01226 0.0
C1251 C 0.07376 0.58893 0.02511 0.0
C1252 C 0.0557 0.57683 0.03313 0.0
C1253 C 0.04293 0.55789 0.02635 0.0
C1254 C 0.08441 0.6106 0.02787 0.0
C1255 C 0.10066 0.61913 0.03912 0.0
C1256 C 0.08008 0.62295 0.01762 0.0
C1257 C 0.0637 0.61487 0.00481 0.0
C1258 C 0.04411 0.60425 0.01026 0.0
C1259 C 0.02875 0.59723 0.99811 0.0
C1260 C 0.03281 0.60103 0.98049 0.0
C1261 C 0.05225 0.61184 0.97499 0.0
C1262 C 0.06765 0.61876 0.98708 0.0
H1263 H 0.02091 0.5957 0.97113 0.0
H1264 H 0.17741 0.67023 0.08078 0.0
H1265 H 0.27181 0.4018 0.01498 0.0
H1266 H 0.30656 0.417 0.00782 0.0
H1267 H 0.32123 0.4588 0.05012 0.0
H1268 H 0.28646 0.44357 0.05745 0.0
H1269 H 0.34282 0.4765 0.02128 0.0
H1270 H 0.32708 0.41997 0.05559 0.0
H1271 H 0.30859 0.38502 0.06422 0.0
H1272 H 0.32197 0.36732 0.01564 0.0
H1273 H 0.34033 0.40217 0.00661 0.0
H1274 H 0.44267 0.50025 0.03474 0.0
H1275 H 0.40826 0.49215 0.03533 0.0
H1276 H 0.39463 0.44982 0.99359 0.0
H1277 H 0.42904 0.45787 0.99317 0.0
H1278 H 0.37234 0.43328 0.02111 0.0
H1279 H 0.39032 0.49183 0.98797 0.0
H1280 H 0.40934 0.52732 0.9811 0.0
H1281 H 0.39309 0.54197 0.02976 0.0
H1282 H 0.37407 0.50657 0.03697 0.0
C1283 C 0.28243 0.4142 0.02279 0.0
C1284 C 0.27641 0.42137 0.03688 0.0
C1285 C 0.30227 0.42292 0.01864 0.0
C1286 C 0.31647 0.43888 0.02856 0.0
C1287 C 0.31049 0.44651 0.04228 0.0
C1288 C 0.29062 0.43781 0.04644 0.0
C1289 C 0.33761 0.44696 0.02507 0.0
C1290 C 0.34937 0.46713 0.02136 0.0
C1291 C 0.34604 0.43466 0.02503 0.0
C1292 C 0.33488 0.41366 0.03034 0.0
C1293 C 0.32591 0.40861 0.04667 0.0
C1294 C 0.31549 0.38882 0.05166 0.0
C1295 C 0.31405 0.37395 0.04046 0.0
C1296 C 0.32306 0.37885 0.02428 0.0
C1297 C 0.33349 0.39862 0.01922 0.0
C1298 C 0.43233 0.4896 0.02544 0.0
C1299 C 0.43823 0.47963 0.01392 0.0
C1300 C 0.41275 0.48506 0.02569 0.0
C1301 C 0.39888 0.47044 0.01444 0.0
C1302 C 0.4051 0.46119 0.00233 0.0
C1303 C 0.42468 0.46577 0.00206 0.0
C1304 C 0.37763 0.46281 0.01697 0.0
C1305 C 0.36582 0.44268 0.02073 0.0
C1306 C 0.36931 0.47524 0.0173 0.0
C1307 C 0.3809 0.49655 0.01306 0.0
C1308 C 0.39093 0.50263 0.99726 0.0
C1309 C 0.40167 0.52273 0.99329 0.0
C1310 C 0.40246 0.53689 0.005 0.0
C1311 C 0.39247 0.53099 0.0207 0.0
C1312 C 0.38168 0.51091 0.02472 0.0
H1313 H 0.41078 0.55244 0.0019 0.0
H1314 H 0.30599 0.35864 0.04435 0.0
H1315 H 0.56194 0.84083 0.01477 0.0
H1316 H 0.54446 0.85898 0.00958 0.0
H1317 H 0.56476 0.88883 0.05907 0.0
H1318 H 0.58242 0.87083 0.06427 0.0
H1319 H 0.52422 0.87433 0.05259 0.0
H1320 H 0.58617 0.91388 0.02668 0.0
H1321 H 0.61477 0.92188 0.00844 0.0
H1322 H 0.57807 0.90421 0.96287 0.0
H1323 H 0.54913 0.89572 0.98089 0.0
H1324 H 0.51787 0.9614 0.03237 0.0
H1325 H 0.52132 0.93406 0.04345 0.0
H1326 H 0.50069 0.90329 0.99438 0.0
H1327 H 0.49732 0.93062 0.98336 0.0
H1328 H 0.54081 0.91787 0.00159 0.0
H1329 H 0.47846 0.87944 0.02962 0.0
H1330 H 0.4521 0.87558 0.04918 0.0
H1331 H 0.49258 0.89605 0.09223 0.0
H1332 H 0.51924 0.90022 0.07286 0.0
C1333 C 0.56259 0.85121 0.02454 0.0
C1334 C 0.57353 0.8545 0.03988 0.0
C1335 C 0.55267 0.86157 0.02156 0.0
C1336 C 0.55334 0.87519 0.03397 0.0
C1337 C 0.56404 0.87831 0.0494 0.0
C1338 C 0.57421 0.86817 0.05227 0.0
C1339 C 0.5432 0.88646 0.03056 0.0
C1340 C 0.5279 0.88396 0.04151 0.0
C1341 C 0.54807 0.899 0.01611 0.0
C1342 C 0.56539 0.90385 0.00519 0.0
C1343 C 0.58412 0.91143 0.0128 0.0
C1344 C 0.60042 0.91611 0.00249 0.0
C1345 C 0.59822 0.91347 0.98451 0.0
C1346 C 0.57973 0.90618 0.97681 0.0
C1347 C 0.56337 0.90142 0.98707 0.0
C1348 C 0.51262 0.94812 0.02446 0.0
C1349 C 0.5076 0.9481 0.007 0.0
C1350 C 0.51487 0.9326 0.0307 0.0
C1351 C 0.51177 0.91695 0.01953 0.0
C1352 C 0.50337 0.91537 0.0031 0.0
C1353 C 0.50115 0.93085 0.99691 0.0
C1354 C 0.52137 0.90523 0.02326 0.0
C1355 C 0.53687 0.90794 0.01249 0.0
C1356 C 0.51694 0.89327 0.03803 0.0
C1357 C 0.50084 0.8902 0.04979 0.0
C1358 C 0.48174 0.88317 0.04325 0.0
C1359 C 0.46675 0.88092 0.0543 0.0
C1360 C 0.47066 0.88558 0.07194 0.0
C1361 C 0.48957 0.89242 0.07857 0.0
C1362 C 0.50461 0.89468 0.06757 0.0
H1363 H 0.45904 0.88387 0.08047 0.0
H1364 H 0.61086 0.91714 0.97655 0.0
H1365 H 0.94173 0.17954 0.34893 0.0
H1366 H 0.97316 0.20701 0.33887 0.0
H1367 H -0.00189 0.21218 0.38998 0.0
H1368 H 0.9669 0.18592 0.40011 0.0
H1369 H 0.01155 0.24661 0.37799 0.0
H1370 H 0.00081 0.18322 0.35455 0.0
H1371 H 0.98335 0.15307 0.33632 0.0
H1372 H 0.9939 0.18862 0.29115 0.0
H1373 H 0.0112 0.21899 0.30917 0.0
H1374 H 0.11034 0.28222 0.37739 0.0
H1375 H 0.07566 0.25658 0.3774 0.0
H1376 H 0.06987 0.26963 0.32415 0.0
H1377 H 0.10494 0.29442 0.32383 0.0
H1378 H 0.04493 0.23066 0.33136 0.0
H1379 H 0.06206 0.2945 0.35758 0.0
H1380 H 0.08154 0.32223 0.37793 0.0
H1381 H 0.05994 0.2825 0.42083 0.0
H1382 H 0.04052 0.25452 0.40074 0.0
C1383 C 0.95389 0.18693 0.35801 0.0
C1384 C 0.95213 0.18039 0.37517 0.0
C1385 C 0.97182 0.20246 0.35225 0.0
C1386 C 0.9881 0.21138 0.36359 0.0
C1387 C 0.98583 0.20553 0.38095 0.0
C1388 C 0.96803 0.19034 0.3867 0.0
C1389 C 0.00802 0.22588 0.35768 0.0
C1390 C 0.0188 0.24314 0.36773 0.0
C1391 C 0.01739 0.22159 0.34404 0.0
C1392 C 0.00706 0.20335 0.33323 0.0
C1393 C -0.00072 0.18459 0.34074 0.0
C1394 C 0.98943 0.16747 0.33045 0.0
C1395 C 0.98745 0.16893 0.31259 0.0
C1396 C 0.99538 0.18751 0.30499 0.0
C1397 C 0.00521 0.20468 0.31523 0.0
C1398 C 0.10176 0.27904 0.36555 0.0
C1399 C 0.11002 0.2902 0.35065 0.0
C1400 C 0.082 0.26456 0.36556 0.0
C1401 C 0.07012 0.26179 0.35095 0.0
C1402 C 0.07878 0.27172 0.33558 0.0
C1403 C 0.09874 0.28582 0.3354 0.0
C1404 C 0.04854 0.25052 0.35249 0.0
C1405 C 0.03753 0.23426 0.34139 0.0
C1406 C 0.03896 0.25536 0.36552 0.0
C1407 C 0.04982 0.27243 0.37764 0.0
C1408 C 0.06142 0.2917 0.37135 0.0
C1409 C 0.07249 0.30745 0.38284 0.0
C1410 C 0.07197 0.30413 0.40066 0.0
C1411 C 0.0603 0.28506 0.40703 0.0
C1412 C 0.04922 0.26927 0.39561 0.0
H1413 H 0.08061 0.31632 0.40952 0.0
H1414 H 0.97983 0.15566 0.30464 0.0
H1415 H 0.79331 0.74282 0.39296 0.0
H1416 H 0.77295 0.75721 0.38532 0.0
H1417 H 0.80937 0.78511 0.34106 0.0
H1418 H 0.82982 0.77053 0.34858 0.0
H1419 H 0.79906 0.8101 0.36334 0.0
H1420 H 0.76953 0.74832 0.3317 0.0
H1421 H 0.75603 0.71237 0.32823 0.0
H1422 H 0.71185 0.7015 0.36592 0.0
H1423 H 0.72529 0.73741 0.36985 0.0
H1424 H 0.71772 0.82436 0.32954 0.0
H1425 H 0.74559 0.8183 0.33093 0.0
H1426 H 0.72305 0.78622 0.37831 0.0
H1427 H 0.69571 0.79229 0.37729 0.0
H1428 H 0.72878 0.76519 0.34885 0.0
H1429 H 0.75954 0.82443 0.38412 0.0
H1430 H 0.77434 0.85972 0.39195 0.0
H1431 H 0.81626 0.87494 0.35116 0.0
H1432 H 0.80147 0.83969 0.34285 0.0
C1433 C 0.79707 0.75214 0.38167 0.0
C1434 C 0.81311 0.75558 0.37135 0.0
C1435 C 0.7854 0.76027 0.37729 0.0
C1436 C 0.78964 0.77212 0.3626 0.0
C1437 C 0.80589 0.77597 0.35244 0.0
C1438 C 0.81745 0.76758 0.35668 0.0
C1439 C 0.77668 0.78003 0.35785 0.0
C1440 C 0.7838 0.80041 0.35971 0.0
C1441 C 0.75672 0.76723 0.35356 0.0
C1442 C 0.74852 0.74559 0.35115 0.0
C1443 C 0.75704 0.73828 0.33936 0.0
C1444 C 0.74938 0.7179 0.33729 0.0
C1445 C 0.73311 0.70466 0.34687 0.0
C1446 C 0.72445 0.71177 0.35852 0.0
C1447 C 0.73208 0.73214 0.36065 0.0
C1448 C 0.71887 0.81625 0.34036 0.0
C1449 C 0.70421 0.80849 0.35309 0.0
C1450 C 0.73483 0.81289 0.34116 0.0
C1451 C 0.73626 0.80175 0.3547 0.0
C1452 C 0.72214 0.79478 0.36774 0.0
C1453 C 0.70642 0.7982 0.36703 0.0
C1454 C 0.75102 0.79527 0.35462 0.0
C1455 C 0.74418 0.77504 0.35192 0.0
C1456 C 0.77112 0.80819 0.35843 0.0
C1457 C 0.77909 0.82944 0.36259 0.0
C1458 C 0.7716 0.83531 0.37654 0.0
C1459 C 0.78008 0.85531 0.38115 0.0
C1460 C 0.79615 0.86956 0.372 0.0
C1461 C 0.80374 0.86387 0.35817 0.0
C1462 C 0.7953 0.8439 0.35349 0.0
H1463 H 0.80281 0.88498 0.3757 0.0
H1464 H 0.7272 0.68889 0.34525 0.0
H1465 H 0.24878 0.05661 0.34898 0.0
H1466 H 0.23233 0.02108 0.34407 0.0
H1467 H 0.2119 0.01141 0.39685 0.0
H1468 H 0.23009 0.04689 0.40246 0.0
H1469 H 0.22317 0.98682 0.3894 0.0
H1470 H 0.18157 0.00627 0.35813 0.0
H1471 H 0.17496 0.02549 0.33662 0.0
H1472 H 0.19679 0.00385 0.29604 0.0
H1473 H 0.20375 0.98473 0.31727 0.0
H1474 H 0.17075 0.88258 0.35839 0.0
H1475 H 0.17597 0.91337 0.37284 0.0
H1476 H 0.20908 0.94692 0.32878 0.0
H1477 H 0.20394 0.91728 0.31457 0.0
H1478 H 0.18156 0.95581 0.33724 0.0
H1479 H 0.23124 0.94536 0.3657 0.0
H1480 H 0.24265 0.92791 0.38479 0.0
H1481 H 0.21083 0.93399 0.42726 0.0
H1482 H 0.19904 0.95128 0.40832 0.0
C1483 C 0.24108 0.04702 0.35968 0.0
C1484 C 0.2408 0.05484 0.37613 0.0
C1485 C 0.23126 0.0266 0.35672 0.0
C1486 C 0.22029 0.01348 0.36993 0.0
C1487 C 0.22001 0.0212 0.38636 0.0
C1488 C 0.23027 0.04159 0.38947 0.0
C1489 C 0.20991 0.99173 0.36684 0.0
C1490 C 0.21372 0.97998 0.37817 0.0
C1491 C 0.19772 0.98274 0.3521 0.0
C1492 C 0.1932 0.99408 0.33934 0.0
C1493 C 0.185 0.00565 0.34463 0.0
C1494 C 0.1812 0.01654 0.33248 0.0
C1495 C 0.18546 0.01589 0.31498 0.0
C1496 C 0.19348 0.00432 0.30958 0.0
C1497 C 0.19731 0.99344 0.32167 0.0
C1498 C 0.17905 0.89657 0.35187 0.0
C1499 C 0.18658 0.89733 0.33519 0.0
C1500 C 0.18206 0.91409 0.36012 0.0
C1501 C 0.19266 0.93237 0.35171 0.0
C1502 C 0.20054 0.93299 0.33538 0.0
C1503 C 0.19754 0.91583 0.32725 0.0
C1504 C 0.19587 0.95136 0.35913 0.0
C1505 C 0.1905 0.96259 0.34876 0.0
C1506 C 0.20721 0.96001 0.3743 0.0
C1507 C 0.21395 0.94925 0.38552 0.0
C1508 C 0.22646 0.94273 0.37904 0.0
C1509 C 0.23306 0.93294 0.38985 0.0
C1510 C 0.22738 0.92974 0.40721 0.0
C1511 C 0.21514 0.93639 0.4138 0.0
C1512 C 0.20849 0.94617 0.40303 0.0
H1513 H 0.23253 0.92219 0.41556 0.0
H1514 H 0.18253 0.02435 0.30561 0.0
H1515 H 0.55226 0.60959 0.30106 0.0
H1516 H 0.57226 0.64549 0.30441 0.0
H1517 H 0.51979 0.65004 0.30503 0.0
H1518 H 0.49975 0.61408 0.3011 0.0
H1519 H 0.54545 0.67767 0.28558 0.0
H1520 H 0.54742 0.65574 0.34257 0.0
H1521 H 0.55207 0.6362 0.36507 0.0
H1522 H 0.61262 0.66147 0.35114 0.0
H1523 H 0.60829 0.68101 0.32839 0.0
H1524 H 0.59022 0.76998 0.33484 0.0
H1525 H 0.57036 0.73782 0.32047 0.0
H1526 H 0.62307 0.73851 0.30428 0.0
H1527 H 0.64293 0.77103 0.31817 0.0
H1528 H 0.59802 0.7089 0.33031 0.0
H1529 H 0.59452 0.7327 0.27383 0.0
H1530 H 0.58821 0.7532 0.25361 0.0
H1531 H 0.5282 0.72531 0.26992 0.0
H1532 H 0.53421 0.70477 0.29039 0.0
C1533 C 0.545 0.61825 0.30211 0.0
C1534 C 0.52448 0.60909 0.30089 0.0
C1535 C 0.55643 0.63877 0.30403 0.0
C1536 C 0.54756 0.65052 0.30516 0.0
C1537 C 0.527 0.64133 0.30412 0.0
C1538 C 0.51557 0.62081 0.30194 0.0
C1539 C 0.55977 0.67239 0.3071 0.0
C1540 C 0.5568 0.68447 0.29549 0.0
C1541 C 0.57476 0.68135 0.3199 0.0
C1542 C 0.57747 0.66969 0.33363 0.0
C1543 C 0.5617 0.65703 0.34421 0.0
C1544 C 0.56428 0.64597 0.35703 0.0
C1545 C 0.58261 0.64755 0.3595 0.0
C1546 C 0.59842 0.66024 0.34919 0.0
C1547 C 0.59592 0.67133 0.33634 0.0
C1548 C 0.5975 0.76393 0.32711 0.0
C1549 C 0.61804 0.77298 0.32745 0.0
C1550 C 0.58616 0.74542 0.31911 0.0
C1551 C 0.59528 0.73569 0.31158 0.0
C1552 C 0.61579 0.74581 0.31005 0.0
C1553 C 0.62711 0.76452 0.31775 0.0
C1554 C 0.58382 0.71401 0.30867 0.0
C1555 C 0.58681 0.702 0.32028 0.0
C1556 C 0.56859 0.70518 0.29619 0.0
C1557 C 0.56486 0.7173 0.28373 0.0
C1558 C 0.58001 0.73103 0.27319 0.0
C1559 C 0.57648 0.74264 0.26166 0.0
C1560 C 0.55783 0.74059 0.26051 0.0
C1561 C 0.54264 0.72687 0.27083 0.0
C1562 C 0.54609 0.71522 0.28237 0.0
H1563 H 0.55513 0.74961 0.25159 0.0
H1564 H 0.58458 0.63896 0.36942 0.0
H1565 H 0.3875 0.93786 0.30156 0.0
H1566 H 0.35256 0.92137 0.30839 0.0
H1567 H 0.35173 0.86596 0.31384 0.0
H1568 H 0.38659 0.88236 0.30616 0.0
H1569 H 0.31969 0.86032 0.29731 0.0
H1570 H 0.35394 0.89605 0.34995 0.0
H1571 H 0.37747 0.92611 0.36624 0.0
H1572 H 0.34537 0.95489 0.3514 0.0
H1573 H 0.32181 0.92513 0.33486 0.0
H1574 H 0.22143 0.81998 0.33088 0.0
H1575 H 0.25636 0.82899 0.33 0.0
H1576 H 0.27276 0.89003 0.32216 0.0
H1577 H 0.23845 0.88114 0.32306 0.0
H1578 H 0.29721 0.88829 0.34397 0.0
H1579 H 0.26744 0.85889 0.28878 0.0
H1580 H 0.24471 0.83257 0.26862 0.0
H1581 H 0.26833 0.7959 0.28406 0.0
H1582 H 0.29098 0.82189 0.30457 0.0
C1583 C 0.37982 0.92217 0.30425 0.0
C1584 C 0.38967 0.91137 0.30354 0.0
C1585 C 0.3599 0.91277 0.30823 0.0
C1586 C 0.34962 0.89251 0.31211 0.0
C1587 C 0.35939 0.88162 0.31104 0.0
C1588 C 0.37925 0.89097 0.30669 0.0
C1589 C 0.3287 0.88279 0.31728 0.0
C1590 C 0.31479 0.86615 0.30777 0.0
C1591 C 0.32226 0.89068 0.33067 0.0
C1592 C 0.33611 0.90834 0.34114 0.0
C1593 C 0.35191 0.90879 0.35016 0.0
C1594 C 0.36527 0.92579 0.35942 0.0
C1595 C 0.36292 0.9424 0.35985 0.0
C1596 C 0.34717 0.94202 0.35107 0.0
C1597 C 0.33378 0.92507 0.34179 0.0
C1598 C 0.23265 0.83531 0.32931 0.0
C1599 C 0.22744 0.84992 0.32698 0.0
C1600 C 0.2525 0.84043 0.32868 0.0
C1601 C 0.26717 0.86019 0.32589 0.0
C1602 C 0.26179 0.87473 0.32437 0.0
C1603 C 0.24218 0.86964 0.32482 0.0
C1604 C 0.28814 0.86616 0.3237 0.0
C1605 C 0.30212 0.88209 0.33382 0.0
C1606 C 0.29456 0.85801 0.31052 0.0
C1607 C 0.28066 0.8422 0.29846 0.0
C1608 C 0.26761 0.84511 0.28806 0.0
C1609 C 0.25477 0.83027 0.27653 0.0
C1610 C 0.25501 0.81253 0.27512 0.0
C1611 C 0.2681 0.80961 0.28523 0.0
C1612 C 0.28092 0.82438 0.29683 0.0
H1613 H 0.24511 0.80109 0.26615 0.0
H1614 H 0.3733 0.95556 0.36699 0.0
H1615 H 0.0702 0.4563 0.30375 0.0
H1616 H 0.07942 0.43138 0.3111 0.0
H1617 H 0.13977 0.47758 0.3173 0.0
H1618 H 0.13055 0.50237 0.31022 0.0
H1619 H 0.13074 0.44794 0.2898 0.0
H1620 H 0.12236 0.45527 0.35038 0.0
H1621 H 0.10451 0.45616 0.37625 0.0
H1622 H 0.06042 0.39551 0.36712 0.0
H1623 H 0.07789 0.39434 0.34101 0.0
H1624 H 0.17982 0.4019 0.33139 0.0
H1625 H 0.16753 0.42221 0.31857 0.0
H1626 H 0.11114 0.37004 0.30982 0.0
H1627 H 0.12369 0.34967 0.322 0.0
H1628 H 0.11503 0.40003 0.33722 0.0
H1629 H 0.12542 0.39263 0.27733 0.0
H1630 H 0.14325 0.39298 0.25101 0.0
H1631 H 0.18439 0.4547 0.25939 0.0
H1632 H 0.16689 0.4547 0.28586 0.0
C1633 C 0.08523 0.46107 0.30747 0.0
C1634 C 0.09973 0.48106 0.30653 0.0
C1635 C 0.09049 0.44692 0.31155 0.0
C1636 C 0.11027 0.45276 0.31453 0.0
C1637 C 0.12445 0.47289 0.31498 0.0
C1638 C 0.11919 0.48699 0.31106 0.0
C1639 C 0.11667 0.43798 0.31449 0.0
C1640 C 0.12747 0.43755 0.30023 0.0
C1641 C 0.11183 0.42419 0.32789 0.0
C1642 C 0.10129 0.42479 0.3436 0.0
C1643 C 0.10874 0.44218 0.35377 0.0
C1644 C 0.09872 0.44272 0.36851 0.0
C1645 C 0.0813 0.42592 0.37329 0.0
C1646 C 0.0739 0.40852 0.36338 0.0
C1647 C 0.08387 0.4079 0.34861 0.0
C1648 C 0.16534 0.39465 0.32546 0.0
C1649 C 0.15265 0.37434 0.32762 0.0
C1650 C 0.1582 0.40626 0.3184 0.0
C1651 C 0.13834 0.39758 0.31366 0.0
C1652 C 0.12649 0.37695 0.31351 0.0
C1653 C 0.13378 0.36532 0.32019 0.0
C1654 C 0.1293 0.41012 0.31256 0.0
C1655 C 0.11806 0.41023 0.32667 0.0
C1656 C 0.13386 0.42375 0.2991 0.0
C1657 C 0.14492 0.42363 0.28364 0.0
C1658 C 0.13842 0.40622 0.2737 0.0
C1659 C 0.14843 0.40637 0.25872 0.0
C1660 C 0.16492 0.42386 0.25354 0.0
C1661 C 0.17158 0.44118 0.26341 0.0
C1662 C 0.16161 0.44112 0.27839 0.0
H1663 H 0.17242 0.42405 0.24179 0.0
H1664 H 0.07356 0.42637 0.38471 0.0
H1665 H 0.39396 0.45505 0.31839 0.0
H1666 H 0.35893 0.43696 0.32454 0.0
H1667 H 0.35106 0.47999 0.29638 0.0
H1668 H 0.38617 0.49805 0.28977 0.0
H1669 H 0.33121 0.46943 0.32852 0.0
H1670 H 0.33624 0.43848 0.27703 0.0
H1671 H 0.34915 0.42289 0.25713 0.0
H1672 H 0.33389 0.37596 0.29319 0.0
H1673 H 0.32116 0.39142 0.31344 0.0
H1674 H 0.22553 0.39684 0.32496 0.0
H1675 H 0.25925 0.42412 0.32102 0.0
H1676 H 0.2815 0.38962 0.34535 0.0
H1677 H 0.24802 0.36236 0.34892 0.0
H1678 H 0.29241 0.39864 0.31114 0.0
H1679 H 0.28988 0.43215 0.36368 0.0
H1680 H 0.27571 0.44749 0.38243 0.0
H1681 H 0.28462 0.48923 0.34269 0.0
H1682 H 0.29866 0.47397 0.32361 0.0
C1683 C 0.38479 0.4606 0.31335 0.0
C1684 C 0.39283 0.47791 0.30349 0.0
C1685 C 0.36481 0.4503 0.31695 0.0
C1686 C 0.35247 0.4571 0.31078 0.0
C1687 C 0.36042 0.47458 0.30126 0.0
C1688 C 0.38046 0.48487 0.29756 0.0
C1689 C 0.33123 0.44556 0.31422 0.0
C1690 C 0.32258 0.45403 0.32451 0.0
C1691 C 0.32006 0.42552 0.30891 0.0
C1692 C 0.32791 0.41624 0.29684 0.0
C1693 C 0.33582 0.42495 0.28081 0.0
C1694 C 0.34307 0.4161 0.26944 0.0
C1695 C 0.34239 0.39847 0.27391 0.0
C1696 C 0.33443 0.38963 0.28975 0.0
C1697 C 0.32718 0.39842 0.30118 0.0
C1698 C 0.23765 0.39554 0.33016 0.0
C1699 C 0.2344 0.37761 0.33711 0.0
C1700 C 0.25685 0.41104 0.32784 0.0
C1701 C 0.27279 0.40869 0.33268 0.0
C1702 C 0.26936 0.3916 0.3414 0.0
C1703 C 0.25029 0.37611 0.34353 0.0
C1704 C 0.2927 0.42217 0.32623 0.0
C1705 C 0.30099 0.41407 0.3151 0.0
C1706 C 0.30336 0.4425 0.33064 0.0
C1707 C 0.29513 0.4518 0.34216 0.0
C1708 C 0.28868 0.4445 0.35889 0.0
C1709 C 0.28071 0.4532 0.36959 0.0
C1710 C 0.27921 0.46929 0.36374 0.0
C1711 C 0.28577 0.47675 0.34719 0.0
C1712 C 0.29376 0.46811 0.33644 0.0
H1713 H 0.27302 0.47599 0.37203 0.0
H1714 H 0.348 0.39164 0.26509 0.0
H1715 H 0.49293 0.88141 0.31063 0.0
H1716 H 0.51115 0.86427 0.31635 0.0
H1717 H 0.56569 0.91894 0.30991 0.0
H1718 H 0.54761 0.93589 0.3032 0.0
H1719 H 0.56795 0.89074 0.29424 0.0
H1720 H 0.54688 0.89887 0.35071 0.0
H1721 H 0.52324 0.89553 0.37319 0.0
H1722 H 0.4944 0.83225 0.36821 0.0
H1723 H 0.51775 0.83524 0.34553 0.0
H1724 H 0.63729 0.88424 0.34523 0.0
H1725 H 0.60947 0.88916 0.33996 0.0
H1726 H 0.57429 0.82821 0.32355 0.0
H1727 H 0.60245 0.8232 0.32852 0.0
H1728 H 0.55825 0.85298 0.34823 0.0
H1729 H 0.5849 0.84761 0.29282 0.0
H1730 H 0.61186 0.85453 0.27275 0.0
H1731 H 0.63342 0.91689 0.27811 0.0
H1732 H 0.60685 0.91035 0.29852 0.0
C1733 C 0.5088 0.88976 0.31026 0.0
C1734 C 0.51878 0.91008 0.30651 0.0
C1735 C 0.51921 0.87996 0.31372 0.0
C1736 C 0.53981 0.89034 0.31375 0.0
C1737 C 0.5498 0.9106 0.30998 0.0
C1738 C 0.53942 0.92035 0.30636 0.0
C1739 C 0.55111 0.88024 0.31764 0.0
C1740 C 0.56576 0.88245 0.30603 0.0
C1741 C 0.54807 0.86909 0.33287 0.0
C1742 C 0.53386 0.86728 0.34628 0.0
C1743 C 0.53537 0.88425 0.35429 0.0
C1744 C 0.52206 0.88242 0.36709 0.0
C1745 C 0.50728 0.86369 0.37208 0.0
C1746 C 0.50581 0.84675 0.3643 0.0
C1747 C 0.51908 0.8485 0.35148 0.0
C1748 C 0.62347 0.8717 0.34098 0.0
C1749 C 0.62204 0.8534 0.33709 0.0
C1750 C 0.60765 0.87457 0.33792 0.0
C1751 C 0.59009 0.85915 0.33107 0.0
C1752 C 0.58787 0.84028 0.32876 0.0
C1753 C 0.60386 0.83739 0.33174 0.0
C1754 C 0.57507 0.86376 0.32496 0.0
C1755 C 0.55992 0.86072 0.33619 0.0
C1756 C 0.57789 0.87451 0.30956 0.0
C1757 C 0.594 0.87847 0.29738 0.0
C1758 C 0.59554 0.8628 0.28992 0.0
C1759 C 0.61073 0.86666 0.27844 0.0
C1760 C 0.62438 0.88614 0.2742 0.0
C1761 C 0.62286 0.9018 0.28143 0.0
C1762 C 0.60775 0.89803 0.29296 0.0
H1763 H 0.63609 0.88909 0.26527 0.0
H1764 H 0.49701 0.86231 0.38202 0.0
H1765 H 0.08033 0.61543 0.28412 0.0
H1766 H 0.09101 0.65037 0.28861 0.0
H1767 H 0.12269 0.65146 0.33478 0.0
H1768 H 0.11149 0.61629 0.3307 0.0
H1769 H 0.10743 0.67564 0.3379 0.0
H1770 H 0.14505 0.66252 0.29596 0.0
H1771 H 0.1489 0.64691 0.26945 0.0
H1772 H 0.12559 0.67613 0.23873 0.0
H1773 H 0.12129 0.69168 0.26513 0.0
H1774 H 0.1787 0.77136 0.34818 0.0
H1775 H 0.16894 0.73836 0.337 0.0
H1776 H 0.13303 0.74438 0.29793 0.0
H1777 H 0.14279 0.77746 0.30919 0.0
H1778 H 0.14866 0.71689 0.28954 0.0
H1779 H 0.10874 0.72775 0.33169 0.0
H1780 H 0.10142 0.74015 0.35857 0.0
H1781 H 0.12855 0.71429 0.38884 0.0
H1782 H 0.13578 0.70152 0.36212 0.0
C1783 C 0.08891 0.62288 0.29561 0.0
C1784 C 0.09535 0.61322 0.30693 0.0
C1785 C 0.09521 0.64291 0.29802 0.0
C1786 C 0.10813 0.65358 0.31169 0.0
C1787 C 0.11294 0.64352 0.324 0.0
C1788 C 0.10658 0.62346 0.32164 0.0
C1789 C 0.11815 0.67542 0.31234 0.0
C1790 C 0.11655 0.68463 0.32738 0.0
C1791 C 0.12976 0.68713 0.29844 0.0
C1792 C 0.13271 0.67813 0.28253 0.0
C1793 C 0.14065 0.66554 0.28356 0.0
C1794 C 0.14291 0.6567 0.26856 0.0
C1795 C 0.13746 0.6605 0.25242 0.0
C1796 C 0.12978 0.67319 0.25125 0.0
C1797 C 0.12744 0.68203 0.26622 0.0
C1798 C 0.16997 0.76629 0.33637 0.0
C1799 C 0.16114 0.77668 0.32977 0.0
C1800 C 0.16406 0.74724 0.33021 0.0
C1801 C 0.14972 0.73876 0.3171 0.0
C1802 C 0.14394 0.75064 0.30823 0.0
C1803 C 0.14985 0.76974 0.31447 0.0
C1804 C 0.13816 0.717 0.31524 0.0
C1805 C 0.13946 0.70785 0.29999 0.0
C1806 C 0.12625 0.70525 0.32896 0.0
C1807 C 0.12306 0.71396 0.34492 0.0
C1808 C 0.11334 0.72491 0.34407 0.0
C1809 C 0.10904 0.73184 0.35928 0.0
C1810 C 0.11461 0.7281 0.3754 0.0
C1811 C 0.12434 0.71727 0.37635 0.0
C1812 C 0.12846 0.71011 0.36119 0.0
H1813 H 0.11133 0.73354 0.38715 0.0
H1814 H 0.13922 0.65364 0.24082 0.0
H1815 H 0.81498 0.04923 0.3447 0.0
H1816 H 0.79152 0.01393 0.33951 0.0
H1817 H 0.77986 0.00604 0.3943 0.0
H1818 H 0.80278 0.0412 0.3995 0.0
H1819 H 0.79598 0.98235 0.37543 0.0
H1820 H 0.74452 -0.0015 0.37616 0.0
H1821 H 0.72955 0.01828 0.36728 0.0
H1822 H 0.72706 -0.00066 0.31442 0.0
H1823 H 0.74236 0.97967 0.32294 0.0
H1824 H 0.70426 0.88136 0.36251 0.0
H1825 H 0.72794 0.91386 0.37483 0.0
H1826 H 0.75903 0.92967 0.32644 0.0
H1827 H 0.736 0.89716 0.31442 0.0
H1828 H 0.73158 0.94884 0.34484 0.0
H1829 H 0.78984 0.94022 0.3431 0.0
H1830 H 0.80807 0.92327 0.35099 0.0
H1831 H 0.79851 0.92922 0.40497 0.0
H1832 H 0.77994 0.94595 0.39732 0.0
C1833 C 0.80689 0.04004 0.3555 0.0
C1834 C 0.81053 0.04787 0.37246 0.0
C1835 C 0.79361 0.01997 0.35256 0.0
C1836 C 0.78418 0.00754 0.36658 0.0
C1837 C 0.78704 0.01551 0.38337 0.0
C1838 C 0.79997 0.03559 0.38627 0.0
C1839 C 0.77297 0.98596 0.36392 0.0
C1840 C 0.78175 0.97494 0.36899 0.0
C1841 C 0.75462 0.97654 0.3553 0.0
C1842 C 0.74475 0.98774 0.35017 0.0
C1843 C 0.7409 -0.00136 0.36262 0.0
C1844 C 0.73234 0.00982 0.35766 0.0
C1845 C 0.7274 0.0101 0.34029 0.0
C1846 C 0.73091 -0.00089 0.32787 0.0
C1847 C 0.7395 0.98791 0.33276 0.0
C1848 C 0.71701 0.89119 0.35501 0.0
C1849 C 0.71827 0.88693 0.3375 0.0
C1850 C 0.73029 0.9099 0.36192 0.0
C1851 C 0.74493 0.92416 0.35138 0.0
C1852 C 0.74785 0.91881 0.33477 0.0
C1853 C 0.73484 0.9001 0.32801 0.0
C1854 C 0.75469 0.94528 0.35628 0.0
C1855 C 0.74565 0.95621 0.35154 0.0
C1856 C 0.77289 0.95472 0.36506 0.0
C1857 C 0.7833 0.94403 0.36965 0.0
C1858 C 0.79134 0.9376 0.35662 0.0
C1859 C 0.80181 0.92813 0.36105 0.0
C1860 C 0.80446 0.9252 0.37848 0.0
C1861 C 0.79645 0.93152 0.39149 0.0
C1862 C 0.78594 0.94097 0.38712 0.0
H1863 H 0.81289 0.91824 0.38193 0.0
H1864 H 0.72081 0.01881 0.33646 0.0
H1865 H 0.95225 0.77912 0.38908 0.0
H1866 H 0.98707 0.79516 0.3816 0.0
H1867 H 0.97376 0.75066 0.34201 0.0
H1868 H 0.93902 0.73468 0.34928 0.0
H1869 H 0.0039 0.75612 0.36336 0.0
H1870 H 0.98476 0.79772 0.33167 0.0
H1871 H 0.97111 0.82003 0.32959 0.0
H1872 H 0.0147 0.86051 0.36576 0.0
H1873 H 0.02847 0.83831 0.36819 0.0
H1874 H 0.08891 0.78748 0.31921 0.0
H1875 H 0.05555 0.78141 0.32328 0.0
H1876 H 0.0774 0.8304 0.35966 0.0
H1877 H 0.11096 0.83695 0.35501 0.0
H1878 H 0.04421 0.82502 0.34284 0.0
H1879 H 0.06445 0.78641 0.37462 0.0
H1880 H 0.07886 0.76507 0.37916 0.0
H1881 H 0.03391 0.71977 0.34695 0.0
H1882 H 0.01943 0.74099 0.34195 0.0
C1883 C 0.95672 0.77293 0.37861 0.0
C1884 C 0.94289 0.75558 0.36981 0.0
C1885 C 0.97661 0.7821 0.37438 0.0
C1886 C 0.98296 0.77414 0.3612 0.0
C1887 C 0.96916 0.75699 0.35227 0.0
C1888 C 0.94933 0.74784 0.35648 0.0
C1889 C 0.00406 0.78302 0.3571 0.0
C1890 C 0.01264 0.77109 0.35865 0.0
C1891 C 0.01569 0.80288 0.35181 0.0
C1892 C 0.00753 0.81628 0.35021 0.0
C1893 C 0.99135 0.81132 0.33926 0.0
C1894 C 0.98361 0.82395 0.338 0.0
C1895 C 0.99201 0.84166 0.34757 0.0
C1896 C 0.0082 0.84679 0.35837 0.0
C1897 C 0.01599 0.8342 0.35967 0.0
C1898 C 0.08665 0.79755 0.32736 0.0
C1899 C 0.10235 0.81273 0.33671 0.0
C1900 C 0.06762 0.79397 0.32984 0.0
C1901 C 0.06398 0.80512 0.34215 0.0
C1902 C 0.07989 0.82159 0.35017 0.0
C1903 C 0.09904 0.8254 0.34742 0.0
C1904 C 0.04372 0.79777 0.34833 0.0
C1905 C 0.03543 0.81003 0.34747 0.0
C1906 C 0.03239 0.7783 0.35468 0.0
C1907 C 0.04096 0.76539 0.35777 0.0
C1908 C 0.05772 0.77196 0.36839 0.0
C1909 C 0.0659 0.75988 0.37106 0.0
C1910 C 0.05734 0.74109 0.36332 0.0
C1911 C 0.04055 0.73434 0.35292 0.0
C1912 C 0.03234 0.74639 0.35017 0.0
H1913 H 0.06368 0.73175 0.36541 0.0
H1914 H 0.98599 0.85142 0.34659 0.0
H1915 H 0.21571 0.16795 0.38939 0.0
H1916 H 0.19898 0.18712 0.38614 0.0
H1917 H 0.24272 0.22486 0.3495 0.0
H1918 H 0.25946 0.2058 0.35268 0.0
H1919 H 0.23774 0.24555 0.37564 0.0
H1920 H 0.19646 0.19126 0.33638 0.0
H1921 H 0.17401 0.1562 0.32874 0.0
H1922 H 0.13334 0.1532 0.36722 0.0
H1923 H 0.15568 0.1882 0.37523 0.0
H1924 H 0.21067 0.30019 0.32801 0.0
H1925 H 0.21853 0.27718 0.34069 0.0
H1926 H 0.16231 0.248 0.36609 0.0
H1927 H 0.15302 0.26998 0.3508 0.0
H1928 H 0.16991 0.22163 0.35424 0.0
H1929 H 0.21079 0.2802 0.38846 0.0
H1930 H 0.23377 0.31595 0.39258 0.0
H1931 H 0.27653 0.31158 0.36134 0.0
H1932 H 0.25381 0.27593 0.35686 0.0
C1933 C 0.22154 0.18013 0.3804 0.0
C1934 C 0.23897 0.1855 0.37137 0.0
C1935 C 0.21198 0.19105 0.37859 0.0
C1936 C 0.21965 0.20742 0.36763 0.0
C1937 C 0.23666 0.21236 0.35815 0.0
C1938 C 0.24623 0.20151 0.35999 0.0
C1939 C 0.21086 0.22031 0.36674 0.0
C1940 C 0.2229 0.24038 0.37098 0.0
C1941 C 0.19124 0.21331 0.36138 0.0
C1942 C 0.17786 0.19227 0.35657 0.0
C1943 C 0.18282 0.18307 0.34333 0.0
C1944 C 0.17009 0.16322 0.3389 0.0
C1945 C 0.15229 0.15246 0.34753 0.0
C1946 C 0.14716 0.16154 0.36057 0.0
C1947 C 0.15984 0.18139 0.36505 0.0
C1948 C 0.19986 0.28894 0.33634 0.0
C1949 C 0.18108 0.28669 0.33821 0.0
C1950 C 0.2046 0.27596 0.34397 0.0
C1951 C 0.19146 0.26128 0.35506 0.0
C1952 C 0.17285 0.25942 0.35775 0.0
C1953 C 0.16759 0.27202 0.34921 0.0
C1954 C 0.19714 0.24723 0.36231 0.0
C1955 C 0.18453 0.22685 0.35945 0.0
C1956 C 0.21641 0.25397 0.36884 0.0
C1957 C 0.23056 0.27528 0.37243 0.0
C1958 C 0.22512 0.28683 0.38254 0.0
C1959 C 0.2381 0.30711 0.38489 0.0
C1960 C 0.2566 0.31601 0.37725 0.0
C1961 C 0.26223 0.30465 0.36732 0.0
C1962 C 0.24933 0.28439 0.36494 0.0
H1963 H 0.26658 0.33173 0.37901 0.0
H1964 H 0.14246 0.1371 0.34408 0.0
H1965 H 0.63256 0.4921 0.70703 0.0
H1966 H 0.66391 0.51707 0.69531 0.0
H1967 H 0.6417 0.55733 0.69002 0.0
H1968 H 0.60996 0.53212 0.7019 0.0
H1969 H 0.66892 0.5552 0.66111 0.0
H1970 H 0.6651 0.56794 0.72174 0.0
H1971 H 0.65624 0.55798 0.7521 0.0
H1972 H 0.69447 0.53353 0.75289 0.0
H1973 H 0.70333 0.54308 0.72243 0.0
H1974 H 0.76733 0.63772 0.66166 0.0
H1975 H 0.73233 0.61377 0.66258 0.0
H1976 H 0.74492 0.57285 0.68917 0.0
H1977 H 0.78003 0.59755 0.68915 0.0
H1978 H 0.72056 0.5785 0.70686 0.0
H1979 H 0.7236 0.56496 0.64567 0.0
H1980 H 0.73193 0.5745 0.61515 0.0
H1981 H 0.69531 0.60082 0.61519 0.0
H1982 H 0.68691 0.5916 0.64577 0.0
C1983 C 0.63426 0.50615 0.70308 0.0
C1984 C 0.6191 0.51042 0.70555 0.0
C1985 C 0.65207 0.52031 0.69633 0.0
C1986 C 0.65502 0.53897 0.692 0.0
C1987 C 0.63951 0.54291 0.69329 0.0
C1988 C 0.62152 0.52861 0.70006 0.0
C1989 C 0.6751 0.55471 0.68823 0.0
C1990 C 0.68026 0.56067 0.67108 0.0
C1991 C 0.68971 0.56148 0.70131 0.0
C1992 C 0.68475 0.55609 0.71976 0.0
C1993 C 0.67151 0.56031 0.72835 0.0
C1994 C 0.6665 0.55476 0.74558 0.0
C1995 C 0.67475 0.54508 0.75441 0.0
C1996 C 0.68808 0.54101 0.74604 0.0
C1997 C 0.69312 0.54652 0.72879 0.0
C1998 C 0.76259 0.62325 0.66701 0.0
C1999 C 0.77615 0.61916 0.67507 0.0
C2000 C 0.7426 0.60957 0.66756 0.0
C2001 C 0.73595 0.59143 0.67585 0.0
C2002 C 0.74974 0.58677 0.68271 0.0
C2003 C 0.76975 0.60069 0.68251 0.0
C2004 C 0.7148 0.57857 0.67947 0.0
C2005 C 0.70937 0.57324 0.69676 0.0
C2006 C 0.70002 0.57254 0.66649 0.0
C2007 C 0.70475 0.57771 0.64803 0.0
C2008 C 0.7174 0.57286 0.63919 0.0
C2009 C 0.72212 0.57819 0.62187 0.0
C2010 C 0.71419 0.5883 0.61325 0.0
C2011 C 0.70144 0.593 0.62189 0.0
C2012 C 0.69667 0.58769 0.6392 0.0
H2013 H 0.71789 0.59245 0.59986 0.0
H2014 H 0.67084 0.54077 0.76774 0.0
H2015 H 0.46098 0.07879 0.72621 0.0
H2016 H 0.44108 0.09375 0.7185 0.0
H2017 H 0.47743 0.12064 0.67397 0.0
H2018 H 0.49723 0.10531 0.68148 0.0
H2019 H 0.46825 0.14655 0.6967 0.0
H2020 H 0.43753 0.08488 0.66474 0.0
H2021 H 0.42298 0.04881 0.66104 0.0
H2022 H 0.37861 0.03907 0.69816 0.0
H2023 H 0.3931 0.07509 0.70234 0.0
H2024 H 0.38462 0.15788 0.66041 0.0
H2025 H 0.41205 0.15115 0.66131 0.0
H2026 H 0.39699 0.13031 0.7136 0.0
H2027 H 0.37016 0.13727 0.71309 0.0
H2028 H 0.39783 0.10341 0.68153 0.0
H2029 H 0.43166 0.16243 0.71849 0.0
H2030 H 0.44641 0.19799 0.72534 0.0
H2031 H 0.48439 0.21208 0.6815 0.0
H2032 H 0.46957 0.17653 0.67423 0.0
C2033 C 0.46476 0.08797 0.71483 0.0
C2034 C 0.4806 0.09095 0.70443 0.0
C2035 C 0.45339 0.09644 0.71042 0.0
C2036 C 0.4578 0.10823 0.69566 0.0
C2037 C 0.47383 0.11157 0.6854 0.0
C2038 C 0.48503 0.10277 0.68964 0.0
C2039 C 0.44531 0.11674 0.69098 0.0
C2040 C 0.45296 0.13721 0.69298 0.0
C2041 C 0.4253 0.10443 0.68648 0.0
C2042 C 0.41652 0.08272 0.68396 0.0
C2043 C 0.42478 0.07506 0.67224 0.0
C2044 C 0.41653 0.05461 0.67004 0.0
C2045 C 0.39991 0.04166 0.67938 0.0
C2046 C 0.39149 0.04912 0.69094 0.0
C2047 C 0.39972 0.06956 0.69322 0.0
C2048 C 0.38742 0.15225 0.67221 0.0
C2049 C 0.375 0.14789 0.68659 0.0
C2050 C 0.4031 0.14847 0.67271 0.0
C2051 C 0.40651 0.14033 0.68756 0.0
C2052 C 0.39464 0.13673 0.70208 0.0
C2053 C 0.37922 0.14065 0.70168 0.0
C2054 C 0.42067 0.13313 0.68753 0.0
C2055 C 0.41327 0.11283 0.68473 0.0
C2056 C 0.44077 0.14552 0.69161 0.0
C2057 C 0.44918 0.16687 0.69557 0.0
C2058 C 0.44286 0.17312 0.7101 0.0
C2059 C 0.45132 0.19327 0.71413 0.0
C2060 C 0.46624 0.2073 0.7038 0.0
C2061 C 0.47275 0.2012 0.68944 0.0
C2062 C 0.46432 0.18106 0.68535 0.0
H2063 H 0.47282 0.22289 0.70697 0.0
H2064 H 0.39353 0.02583 0.67765 0.0
H2065 H 0.90306 0.38888 0.68028 0.0
H2066 H 0.88722 0.35292 0.67596 0.0
H2067 H 0.89134 0.34572 0.73091 0.0
H2068 H 0.9075 0.38149 0.73526 0.0
H2069 H 0.90417 0.32484 0.71036 0.0
H2070 H 0.84764 0.33627 0.71131 0.0
H2071 H 0.82951 0.35175 0.69925 0.0
H2072 H 0.82731 0.32586 0.6493 0.0
H2073 H 0.84556 0.31039 0.66102 0.0
H2074 H 0.86084 0.22349 0.70221 0.0
H2075 H 0.8647 0.2541 0.71507 0.0
H2076 H 0.83897 0.26287 0.66872 0.0
H2077 H 0.83194 0.23095 0.65781 0.0
H2078 H 0.83629 0.28392 0.68768 0.0
H2079 H 0.89452 0.27872 0.67863 0.0
H2080 H 0.91757 0.26636 0.68323 0.0
H2081 H 0.92344 0.28336 0.73701 0.0
H2082 H 0.90027 0.29563 0.73276 0.0
C2083 C 0.90063 0.37962 0.69142 0.0
C2084 C 0.90641 0.38803 0.70814 0.0
C2085 C 0.89144 0.35908 0.68895 0.0
C2086 C 0.88789 0.34665 0.70317 0.0
C2087 C 0.89381 0.35504 0.7198 0.0
C2088 C 0.90291 0.37548 0.72227 0.0
C2089 C 0.87851 0.32491 0.70084 0.0
C2090 C 0.88926 0.31576 0.70551 0.0
C2091 C 0.85942 0.31329 0.69382 0.0
C2092 C 0.84801 0.32224 0.68704 0.0
C2093 C 0.84332 0.33393 0.69775 0.0
C2094 C 0.83303 0.34269 0.69097 0.0
C2095 C 0.82728 0.3398 0.67352 0.0
C2096 C 0.83175 0.32808 0.66282 0.0
C2097 C 0.84203 0.31928 0.66953 0.0
C2098 C 0.85466 0.2313 0.69555 0.0
C2099 C 0.84602 0.22491 0.6791 0.0
C2100 C 0.85757 0.24925 0.70253 0.0
C2101 C 0.85348 0.26178 0.69242 0.0
C2102 C 0.84266 0.25401 0.67694 0.0
C2103 C 0.83848 0.23553 0.67064 0.0
C2104 C 0.86215 0.2834 0.69657 0.0
C2105 C 0.85125 0.2927 0.69243 0.0
C2106 C 0.88174 0.2954 0.70284 0.0
C2107 C 0.89546 0.28781 0.70544 0.0
C2108 C 0.90065 0.2797 0.69145 0.0
C2109 C 0.91373 0.27272 0.694 0.0
C2110 C 0.9219 0.274 0.71041 0.0
C2111 C 0.91705 0.28231 0.72432 0.0
C2112 C 0.90394 0.28927 0.72185 0.0
H2113 H 0.93204 0.26861 0.71235 0.0
H2114 H 0.81934 0.34663 0.6683 0.0
H2115 H 0.21126 0.94095 0.64764 0.0
H2116 H 0.22978 0.97662 0.65278 0.0
H2117 H 0.18499 0.98299 0.62618 0.0
H2118 H 0.16607 0.94712 0.62126 0.0
H2119 H 0.22348 0.01043 0.61563 0.0
H2120 H 0.18746 0.98777 0.66826 0.0
H2121 H 0.17457 0.96621 0.69367 0.0
H2122 H 0.23329 0.98711 0.71228 0.0
H2123 H 0.24657 0.00856 0.68682 0.0
H2124 H 0.27239 0.1118 0.65849 0.0
H2125 H 0.24709 0.07951 0.64645 0.0
H2126 H 0.28501 0.05553 0.65633 0.0
H2127 H 0.31023 0.08752 0.6677 0.0
H2128 H 0.24442 0.03858 0.67499 0.0
H2129 H 0.27986 0.0546 0.62061 0.0
H2130 H 0.29451 0.07586 0.59526 0.0
H2131 H 0.238 0.06701 0.58033 0.0
H2132 H 0.2231 0.046 0.60586 0.0
C2133 C 0.20515 0.94985 0.64312 0.0
C2134 C 0.18713 0.94113 0.63409 0.0
C2135 C 0.21581 0.97027 0.64599 0.0
C2136 C 0.20871 0.98244 0.63994 0.0
C2137 C 0.19076 0.97386 0.6309 0.0
C2138 C 0.18 0.95337 0.62808 0.0
C2139 C 0.22033 0.00413 0.64297 0.0
C2140 C 0.22768 0.01666 0.62863 0.0
C2141 C 0.22598 0.0122 0.65992 0.0
C2142 C 0.21802 -0.00026 0.67555 0.0
C2143 C 0.19764 0.98772 0.67772 0.0
C2144 C 0.19026 0.9755 0.69214 0.0
C2145 C 0.20311 0.97527 0.70457 0.0
C2146 C 0.22336 0.98731 0.70264 0.0
C2147 C 0.23082 -0.00047 0.68823 0.0
C2148 C 0.27566 0.09993 0.65714 0.0
C2149 C 0.29324 0.10209 0.66393 0.0
C2150 C 0.26113 0.08144 0.65055 0.0
C2151 C 0.26414 0.06513 0.65084 0.0
C2152 C 0.2824 0.06791 0.6561 0.0
C2153 C 0.29688 0.08626 0.66237 0.0
C2154 C 0.2479 0.04468 0.64767 0.0
C2155 C 0.23973 0.0324 0.66204 0.0
C2156 C 0.24166 0.03681 0.63079 0.0
C2157 C 0.25044 0.04905 0.61529 0.0
C2158 C 0.27061 0.05739 0.61204 0.0
C2159 C 0.27895 0.06935 0.59762 0.0
C2160 C 0.26721 0.07288 0.58624 0.0
C2161 C 0.24709 0.06433 0.5892 0.0
C2162 C 0.23869 0.0524 0.60365 0.0
H2163 H 0.2737 0.08218 0.5751 0.0
H2164 H 0.19737 0.96578 0.7157 0.0
H2165 H 0.05797 0.26904 0.65162 0.0
H2166 H 0.02297 0.2521 0.65817 0.0
H2167 H 0.01451 0.20057 0.62965 0.0
H2168 H 0.0496 0.21719 0.62337 0.0
H2169 H 0.98751 0.21301 0.62099 0.0
H2170 H 0.01393 0.19939 0.67253 0.0
H2171 H 0.03636 0.20901 0.69776 0.0
H2172 H 0.01354 0.24497 0.71767 0.0
H2173 H 0.99115 0.23579 0.69245 0.0
H2174 H 0.88761 0.1595 0.64175 0.0
H2175 H 0.92169 0.16669 0.63974 0.0
H2176 H 0.93955 0.21499 0.67647 0.0
H2177 H 0.90544 0.20703 0.67911 0.0
H2178 H 0.96194 0.20087 0.681 0.0
H2179 H 0.93962 0.22002 0.63077 0.0
H2180 H 0.91863 0.21536 0.60528 0.0
H2181 H 0.93511 0.17546 0.5824 0.0
H2182 H 0.95595 0.17962 0.60791 0.0
C2183 C 0.04875 0.25399 0.64696 0.0
C2184 C 0.05663 0.24447 0.63699 0.0
C2185 C 0.02874 0.24436 0.65067 0.0
C2186 C 0.01622 0.22504 0.64449 0.0
C2187 C 0.02396 0.21549 0.63451 0.0
C2188 C 0.044 0.22506 0.63088 0.0
C2189 C 0.99494 0.21501 0.6481 0.0
C2190 C 0.98182 0.20997 0.63408 0.0
C2191 C 0.9877 0.21174 0.66522 0.0
C2192 C 0.00094 0.21698 0.68054 0.0
C2193 C 0.01377 0.20943 0.68224 0.0
C2194 C 0.02647 0.2148 0.69655 0.0
C2195 C 0.0264 0.22761 0.7093 0.0
C2196 C 0.01358 0.23505 0.70779 0.0
C2197 C 0.00086 0.22974 0.6935 0.0
C2198 C 0.8988 0.17111 0.64986 0.0
C2199 C 0.8941 0.18263 0.66072 0.0
C2200 C 0.91827 0.17541 0.64855 0.0
C2201 C 0.93332 0.19174 0.6576 0.0
C2202 C 0.92829 0.20235 0.66932 0.0
C2203 C 0.90881 0.19779 0.67089 0.0
C2204 C 0.95435 0.19897 0.65387 0.0
C2205 C 0.96749 0.20357 0.66786 0.0
C2206 C 0.9617 0.20247 0.63672 0.0
C2207 C 0.94913 0.19991 0.62137 0.0
C2208 C 0.93864 0.21011 0.62037 0.0
C2209 C 0.92678 0.20758 0.60592 0.0
C2210 C 0.92548 0.19506 0.59226 0.0
C2211 C 0.93608 0.1851 0.59302 0.0
C2212 C 0.9479 0.18752 0.60748 0.0
H2213 H 0.9163 0.19313 0.58108 0.0
H2214 H 0.03625 0.23176 0.72035 0.0
H2215 H 0.76246 0.79887 0.60479 0.0
H2216 H 0.77064 0.77419 0.6142 0.0
H2217 H 0.77098 0.79166 0.66756 0.0
H2218 H 0.76336 0.81703 0.65802 0.0
H2219 H 0.8049 0.79422 0.65876 0.0
H2220 H 0.73728 0.74421 0.6528 0.0
H2221 H 0.70521 0.72698 0.63772 0.0
H2222 H 0.73096 0.71204 0.59544 0.0
H2223 H 0.76323 0.72932 0.61019 0.0
H2224 H 0.83038 0.7257 0.69002 0.0
H2225 H 0.82062 0.74907 0.68187 0.0
H2226 H 0.80416 0.72193 0.6308 0.0
H2227 H 0.81051 0.69583 0.64058 0.0
H2228 H 0.77658 0.72417 0.64021 0.0
H2229 H 0.84523 0.77666 0.64518 0.0
H2230 H 0.87745 0.79533 0.65993 0.0
H2231 H 0.85054 0.80729 0.70316 0.0
H2232 H 0.81818 0.78861 0.68875 0.0
C2233 C 0.76384 0.79712 0.61855 0.0
C2234 C 0.76264 0.80998 0.63069 0.0
C2235 C 0.76832 0.78289 0.62394 0.0
C2236 C 0.77139 0.78108 0.64157 0.0
C2237 C 0.76865 0.79287 0.65387 0.0
C2238 C 0.76421 0.80723 0.64845 0.0
C2239 C 0.78028 0.76907 0.64665 0.0
C2240 C 0.79863 0.77878 0.65498 0.0
C2241 C 0.7723 0.74918 0.64119 0.0
C2242 C 0.75271 0.73812 0.6326 0.0
C2243 C 0.73612 0.73727 0.64028 0.0
C2244 C 0.7179 0.7275 0.63179 0.0
C2245 C 0.71605 0.71844 0.61563 0.0
C2246 C 0.7324 0.71904 0.60797 0.0
C2247 C 0.75065 0.72876 0.61642 0.0
C2248 C 0.82557 0.72527 0.67675 0.0
C2249 C 0.82107 0.70896 0.66596 0.0
C2250 C 0.82004 0.73891 0.67197 0.0
C2251 C 0.81172 0.73772 0.65554 0.0
C2252 C 0.81022 0.7231 0.64368 0.0
C2253 C 0.81435 0.70845 0.64903 0.0
C2254 C 0.80189 0.74947 0.65185 0.0
C2255 C 0.78315 0.73965 0.64391 0.0
C2256 C 0.80966 0.76941 0.65752 0.0
C2257 C 0.82928 0.78117 0.66589 0.0
C2258 C 0.8462 0.78327 0.65782 0.0
C2259 C 0.86448 0.79385 0.66614 0.0
C2260 C 0.86604 0.80247 0.68247 0.0
C2261 C 0.84933 0.80063 0.6905 0.0
C2262 C 0.83103 0.79011 0.68224 0.0
H2263 H 0.88019 0.81058 0.68891 0.0
H2264 H 0.70195 0.71095 0.60904 0.0
H2265 H 0.06533 0.81069 0.66654 0.0
H2266 H 0.03056 0.79398 0.67431 0.0
H2267 H 0.01479 0.7927 0.6204 0.0
H2268 H 0.04966 0.81037 0.61284 0.0
H2269 H 0.99227 0.80041 0.63868 0.0
H2270 H 0.01124 0.7514 0.64121 0.0
H2271 H 0.03087 0.73618 0.6498 0.0
H2272 H 0.01677 0.73832 0.70322 0.0
H2273 H 0.99724 0.7538 0.69496 0.0
H2274 H 0.89845 0.71516 0.63678 0.0
H2275 H 0.93137 0.74337 0.63468 0.0
H2276 H 0.93805 0.74419 0.69034 0.0
H2277 H 0.90484 0.71519 0.69236 0.0
H2278 H 0.96525 0.73976 0.67398 0.0
H2279 H 0.94024 0.7848 0.66674 0.0
H2280 H 0.91845 0.79547 0.65361 0.0
H2281 H 0.94153 0.79533 0.60328 0.0
H2282 H 0.96331 0.78449 0.61606 0.0
C2283 C 0.05436 0.80684 0.65643 0.0
C2284 C 0.05996 0.81163 0.63914 0.0
C2285 C 0.03455 0.79727 0.66083 0.0
C2286 C 0.02002 0.79181 0.64791 0.0
C2287 C 0.02571 0.79681 0.6306 0.0
C2288 C 0.04555 0.80678 0.62627 0.0
C2289 C -0.00109 0.78049 0.65238 0.0
C2290 C 0.98633 0.78711 0.64636 0.0
C2291 C 0.99114 0.76318 0.66246 0.0
C2292 C 0.00299 0.754 0.6675 0.0
C2293 C 0.01247 0.74879 0.65481 0.0
C2294 C 0.02355 0.74008 0.65961 0.0
C2295 C 0.02513 0.73635 0.67705 0.0
C2296 C 0.01557 0.74127 0.68972 0.0
C2297 C 0.00449 0.75 0.68499 0.0
C2298 C 0.90672 0.72181 0.64863 0.0
C2299 C 0.89934 0.71308 0.66471 0.0
C2300 C 0.92549 0.73807 0.64743 0.0
C2301 C 0.93719 0.74604 0.66236 0.0
C2302 C 0.92919 0.7383 0.67868 0.0
C2303 C 0.91027 0.72187 0.67986 0.0
C2304 C 0.95855 0.7597 0.66042 0.0
C2305 C 0.97123 0.75338 0.66674 0.0
C2306 C 0.96618 0.77678 0.65001 0.0
C2307 C 0.95341 0.78381 0.64239 0.0
C2308 C 0.94064 0.78701 0.65287 0.0
C2309 C 0.92829 0.79309 0.64548 0.0
C2310 C 0.92861 0.79607 0.62762 0.0
C2311 C 0.94133 0.79305 0.61712 0.0
C2312 C 0.95372 0.787 0.62444 0.0
H2313 H 0.919 0.80073 0.62193 0.0
H2314 H 0.0337 0.72959 0.68074 0.0
H2315 H 0.21473 0.27033 0.63528 0.0
H2316 H 0.23312 0.25373 0.64147 0.0
H2317 H 0.17921 0.19947 0.65112 0.0
H2318 H 0.16065 0.21647 0.64636 0.0
H2319 H 0.2051 0.20308 0.67376 0.0
H2320 H 0.20611 0.20792 0.61211 0.0
H2321 H 0.21088 0.2239 0.58372 0.0
H2322 H 0.27192 0.26243 0.59574 0.0
H2323 H 0.26747 0.2469 0.62429 0.0
H2324 H 0.26972 0.15825 0.66262 0.0
H2325 H 0.24185 0.16431 0.66057 0.0
H2326 H 0.28179 0.227 0.6664 0.0
H2327 H 0.30937 0.22112 0.66841 0.0
H2328 H 0.25782 0.21168 0.63363 0.0
H2329 H 0.25472 0.20937 0.69692 0.0
H2330 H 0.24969 0.19285 0.72505 0.0
H2331 H 0.19201 0.14794 0.70869 0.0
H2332 H 0.19681 0.16408 0.68035 0.0
C2333 C 0.20669 0.25497 0.63904 0.0
C2334 C 0.1861 0.24482 0.64032 0.0
C2335 C 0.21727 0.24535 0.64226 0.0
C2336 C 0.20755 0.22517 0.64632 0.0
C2337 C 0.18704 0.21499 0.64783 0.0
C2338 C 0.17643 0.22472 0.64492 0.0
C2339 C 0.219 0.21498 0.64928 0.0
C2340 C 0.21636 0.20464 0.66479 0.0
C2341 C 0.2337 0.21691 0.6376 0.0
C2342 C 0.23641 0.22629 0.6204 0.0
C2343 C 0.22052 0.21988 0.60875 0.0
C2344 C 0.22318 0.22886 0.59262 0.0
C2345 C 0.24168 0.24419 0.58794 0.0
C2346 C 0.25759 0.25056 0.59938 0.0
C2347 C 0.25501 0.24165 0.61552 0.0
C2348 C 0.27238 0.17322 0.66401 0.0
C2349 C 0.29165 0.18926 0.66543 0.0
C2350 C 0.25651 0.17666 0.66281 0.0
C2351 C 0.25989 0.19612 0.66319 0.0
C2352 C 0.27895 0.21191 0.66598 0.0
C2353 C 0.29467 0.20852 0.6671 0.0
C2354 C 0.24442 0.20069 0.65834 0.0
C2355 C 0.24626 0.20984 0.64237 0.0
C2356 C 0.22898 0.19754 0.66951 0.0
C2357 C 0.22624 0.18775 0.68643 0.0
C2358 C 0.24107 0.19583 0.69923 0.0
C2359 C 0.23823 0.18658 0.71524 0.0
C2360 C 0.22057 0.16931 0.71863 0.0
C2361 C 0.2057 0.16129 0.70603 0.0
C2362 C 0.20847 0.17048 0.69 0.0
H2363 H 0.21839 0.16218 0.73104 0.0
H2364 H 0.2437 0.25112 0.57545 0.0
H2365 H 0.74324 0.94401 0.65755 0.0
H2366 H 0.75438 0.97968 0.66094 0.0
H2367 H 0.79825 0.99303 0.62187 0.0
H2368 H 0.78736 0.95791 0.61861 0.0
H2369 H 0.81152 0.01555 0.65475 0.0
H2370 H 0.757 0.99215 0.61003 0.0
H2371 H 0.7216 0.97115 0.60349 0.0
H2372 H 0.70778 0.99676 0.64688 0.0
H2373 H 0.74306 0.01784 0.65366 0.0
H2374 H 0.8508 0.11618 0.6563 0.0
H2375 H 0.84078 0.08449 0.64182 0.0
H2376 H 0.78046 0.07166 0.64346 0.0
H2377 H 0.79148 0.10475 0.65263 0.0
H2378 H 0.77445 0.04535 0.6298 0.0
H2379 H 0.82018 0.06368 0.68082 0.0
H2380 H 0.85192 0.08027 0.69664 0.0
H2381 H 0.87801 0.06245 0.65673 0.0
H2382 H 0.84649 0.04583 0.64071 0.0
C2383 C 0.75526 0.95471 0.64981 0.0
C2384 C 0.76471 0.94854 0.63801 0.0
C2385 C 0.76155 0.97491 0.65169 0.0
C2386 C 0.77717 0.98884 0.64167 0.0
C2387 C 0.78633 0.98248 0.62981 0.0
C2388 C 0.78014 0.96252 0.62798 0.0
C2389 C 0.78446 0.01022 0.64322 0.0
C2390 C 0.80347 0.02237 0.64963 0.0
C2391 C 0.77367 0.01877 0.63695 0.0
C2392 C 0.75261 0.00655 0.63231 0.0
C2393 C 0.74639 0.9933 0.61813 0.0
C2394 C 0.72635 0.98139 0.61439 0.0
C2395 C 0.71245 0.98263 0.62475 0.0
C2396 C 0.71855 0.99584 0.63884 0.0
C2397 C 0.73855 0.00781 0.64259 0.0
C2398 C 0.83569 0.10701 0.6521 0.0
C2399 C 0.82169 0.11246 0.65615 0.0
C2400 C 0.82965 0.08827 0.64479 0.0
C2401 C 0.80944 0.07411 0.64345 0.0
C2402 C 0.79614 0.08125 0.64466 0.0
C2403 C 0.80251 0.10064 0.64989 0.0
C2404 C 0.80181 0.05208 0.64277 0.0
C2405 C 0.78273 0.0394 0.63595 0.0
C2406 C 0.81201 0.04301 0.65021 0.0
C2407 C 0.83112 0.05386 0.65944 0.0
C2408 C 0.83276 0.06349 0.67538 0.0
C2409 C 0.85068 0.07284 0.68438 0.0
C2410 C 0.86699 0.0725 0.67765 0.0
C2411 C 0.86541 0.06279 0.6619 0.0
C2412 C 0.84754 0.05342 0.65285 0.0
H2413 H 0.88083 0.0797 0.68466 0.0
H2414 H 0.69696 0.97336 0.62187 0.0
H2415 H 0.46307 0.38136 0.72042 0.0
H2416 H 0.43749 0.34736 0.71428 0.0
H2417 H 0.47539 0.3411 0.67761 0.0
H2418 H 0.50041 0.3755 0.68268 0.0
H2419 H 0.43963 0.31908 0.66767 0.0
H2420 H 0.47389 0.33026 0.72282 0.0
H2421 H 0.48458 0.34644 0.75157 0.0
H2422 H 0.42447 0.32205 0.76669 0.0
H2423 H 0.41342 0.30596 0.73792 0.0
H2424 H 0.4064 0.22053 0.66488 0.0
H2425 H 0.42948 0.25347 0.67623 0.0
H2426 H 0.38342 0.25293 0.70672 0.0
H2427 H 0.36042 0.21974 0.69562 0.0
H2428 H 0.42071 0.27837 0.72076 0.0
H2429 H 0.38698 0.26756 0.66519 0.0
H2430 H 0.37677 0.25475 0.6353 0.0
H2431 H 0.4371 0.27957 0.62075 0.0
H2432 H 0.44766 0.29273 0.65049 0.0
C2433 C 0.46569 0.37304 0.71052 0.0
C2434 C 0.48403 0.38097 0.7024 0.0
C2435 C 0.45113 0.35346 0.70723 0.0
C2436 C 0.45488 0.3414 0.69611 0.0
C2437 C 0.47231 0.34997 0.68656 0.0
C2438 C 0.48668 0.36962 0.68957 0.0
C2439 C 0.44175 0.31961 0.6955 0.0
C2440 C 0.43567 0.31021 0.67928 0.0
C2441 C 0.43621 0.30799 0.71069 0.0
C2442 C 0.44283 0.31699 0.72821 0.0
C2443 C 0.46296 0.32835 0.73229 0.0
C2444 C 0.46908 0.33754 0.74857 0.0
C2445 C 0.45521 0.33529 0.76095 0.0
C2446 C 0.43519 0.32378 0.75709 0.0
C2447 C 0.42899 0.31461 0.7408 0.0
C2448 C 0.40157 0.22679 0.67502 0.0
C2449 C 0.38159 0.21781 0.67913 0.0
C2450 C 0.41468 0.24584 0.68121 0.0
C2451 C 0.40789 0.25596 0.69165 0.0
C2452 C 0.38886 0.24551 0.69839 0.0
C2453 C 0.37578 0.22634 0.69228 0.0
C2454 C 0.4192 0.27789 0.69286 0.0
C2455 C 0.42475 0.28728 0.70918 0.0
C2456 C 0.42446 0.28959 0.67774 0.0
C2457 C 0.41808 0.28089 0.6601 0.0
C2458 C 0.39805 0.27011 0.65565 0.0
C2459 C 0.39221 0.26289 0.63872 0.0
C2460 C 0.40627 0.26621 0.62617 0.0
C2461 C 0.42621 0.27691 0.6305 0.0
C2462 C 0.43213 0.28432 0.64736 0.0
H2463 H 0.4017 0.26058 0.61309 0.0
H2464 H 0.45998 0.34244 0.77353 0.0
H2465 H 0.61281 0.11897 0.70153 0.0
H2466 H 0.64784 0.13525 0.69497 0.0
H2467 H 0.64609 0.07927 0.69878 0.0
H2468 H 0.61153 0.06318 0.70626 0.0
H2469 H 0.67687 0.10623 0.715 0.0
H2470 H 0.64704 0.10172 0.65888 0.0
H2471 H 0.62698 0.10762 0.63773 0.0
H2472 H 0.66393 0.17036 0.64494 0.0
H2473 H 0.68409 0.16481 0.66628 0.0
H2474 H 0.75405 0.11165 0.6703 0.0
H2475 H 0.72095 0.10637 0.67335 0.0
H2476 H 0.74461 0.16885 0.68256 0.0
H2477 H 0.77814 0.17429 0.67937 0.0
H2478 H 0.70517 0.14508 0.66167 0.0
H2479 H 0.73727 0.14774 0.71606 0.0
H2480 H 0.75735 0.1396 0.73519 0.0
H2481 H 0.7152 0.07773 0.72968 0.0
H2482 H 0.69505 0.08548 0.71024 0.0
C2483 C 0.61993 0.11016 0.70113 0.0
C2484 C 0.60927 0.08971 0.70436 0.0
C2485 C 0.63993 0.11946 0.69718 0.0
C2486 C 0.6496 0.10847 0.69618 0.0
C2487 C 0.63898 0.0881 0.69943 0.0
C2488 C 0.61911 0.07885 0.70352 0.0
C2489 C 0.67083 0.11798 0.6921 0.0
C2490 C 0.68298 0.1147 0.70332 0.0
C2491 C 0.67904 0.12952 0.6771 0.0
C2492 C 0.66692 0.13285 0.66432 0.0
C2493 C 0.65078 0.11677 0.65605 0.0
C2494 C 0.63942 0.12005 0.64401 0.0
C2495 C 0.64414 0.13935 0.64003 0.0
C2496 C 0.66027 0.15542 0.64806 0.0
C2497 C 0.67168 0.15222 0.66011 0.0
C2498 C 0.7522 0.12435 0.67248 0.0
C2499 C 0.76858 0.14333 0.67483 0.0
C2500 C 0.73331 0.12132 0.67419 0.0
C2501 C 0.73042 0.13717 0.67844 0.0
C2502 C 0.74663 0.15646 0.67927 0.0
C2503 C 0.7657 0.15954 0.67743 0.0
C2504 C 0.71079 0.13277 0.68433 0.0
C2505 C 0.69904 0.13699 0.67352 0.0
C2506 C 0.70279 0.12188 0.69962 0.0
C2507 C 0.71471 0.1172 0.7116 0.0
C2508 C 0.73235 0.13239 0.71882 0.0
C2509 C 0.74374 0.12785 0.72973 0.0
C2510 C 0.73757 0.10816 0.73363 0.0
C2511 C 0.71997 0.09298 0.72665 0.0
C2512 C 0.70855 0.09744 0.7157 0.0
H2513 H 0.7464 0.10467 0.74208 0.0
H2514 H 0.63533 0.14186 0.6307 0.0
H2515 H 0.8933 0.50529 0.68315 0.0
H2516 H 0.87523 0.523 0.679 0.0
H2517 H 0.90297 0.55837 0.72485 0.0
H2518 H 0.92091 0.54059 0.72917 0.0
H2519 H 0.86312 0.54518 0.72358 0.0
H2520 H 0.91907 0.57798 0.68726 0.0
H2521 H 0.9426 0.58121 0.66475 0.0
H2522 H 0.89644 0.55795 0.62645 0.0
H2523 H 0.87252 0.55426 0.64881 0.0
H2524 H 0.8608 0.63398 0.69855 0.0
H2525 H 0.86507 0.60753 0.71081 0.0
H2526 H 0.82866 0.56786 0.66998 0.0
H2527 H 0.82423 0.59415 0.6579 0.0
H2528 H 0.8709 0.58159 0.66915 0.0
H2529 H 0.81532 0.5512 0.70659 0.0
H2530 H 0.79361 0.55104 0.72962 0.0
H2531 H 0.84134 0.57322 0.76633 0.0
H2532 H 0.86343 0.57375 0.74344 0.0
C2533 C 0.89546 0.51677 0.69238 0.0
C2534 C 0.90857 0.52162 0.70644 0.0
C2535 C 0.88519 0.52691 0.68998 0.0
C2536 C 0.8878 0.542 0.70162 0.0
C2537 C 0.90071 0.54673 0.71576 0.0
C2538 C 0.91109 0.53671 0.7181 0.0
C2539 C 0.87742 0.55321 0.69879 0.0
C2540 C 0.8649 0.55326 0.71173 0.0
C2541 C 0.87964 0.56358 0.68326 0.0
C2542 C 0.89393 0.56557 0.66978 0.0
C2543 C 0.91387 0.57332 0.67408 0.0
C2544 C 0.9273 0.57529 0.66134 0.0
C2545 C 0.921 0.56972 0.64419 0.0
C2546 C 0.90128 0.5622 0.63975 0.0
C2547 C 0.88778 0.56017 0.65246 0.0
C2548 C 0.8525 0.6192 0.69301 0.0
C2549 C 0.84227 0.61604 0.67727 0.0
C2550 C 0.85516 0.60415 0.69987 0.0
C2551 C 0.8475 0.58592 0.69105 0.0
C2552 C 0.83475 0.58188 0.67691 0.0
C2553 C 0.832 0.59684 0.67016 0.0
C2554 C 0.85639 0.57333 0.69382 0.0
C2555 C 0.86886 0.57324 0.68089 0.0
C2556 C 0.85433 0.56323 0.70942 0.0
C2557 C 0.84107 0.56269 0.72326 0.0
C2558 C 0.82123 0.5562 0.71954 0.0
C2559 C 0.80884 0.556 0.73257 0.0
C2560 C 0.8161 0.56216 0.74942 0.0
C2561 C 0.83575 0.56846 0.75327 0.0
C2562 C 0.8482 0.56868 0.74028 0.0
H2563 H 0.8065 0.56203 0.75949 0.0
H2564 H 0.93143 0.57128 0.63434 0.0
H2565 H 0.48519 0.99363 0.20773 0.0
H2566 H 0.48885 -0.00174 0.17641 0.0
H2567 H 0.48143 0.93992 0.16999 0.0
H2568 H 0.47778 0.93521 0.20138 0.0
H2569 H 0.51234 0.96642 0.15229 0.0
H2570 H 0.44538 0.94897 0.15728 0.0
H2571 H 0.41709 0.95032 0.16933 0.0
H2572 H 0.44211 0.01069 0.15351 0.0
H2573 H 0.47072 0.00981 0.14156 0.0
H2574 H 0.50242 0.96955 0.05873 0.0
H2575 H 0.49793 0.96022 0.0894 0.0
H2576 H 0.51176 0.01933 0.10397 0.0
H2577 H 0.5167 0.0288 0.07356 0.0
H2578 H 0.47483 0.9889 0.11649 0.0
H2579 H 0.5433 0.00674 0.11496 0.0
H2580 H 0.57086 0.00483 0.10186 0.0
H2581 H 0.54107 0.94218 0.11034 0.0
H2582 H 0.51324 0.94373 0.12336 0.0
C2583 C 0.48404 0.98167 0.19962 0.0
C2584 C 0.48124 0.96407 0.20701 0.0
C2585 C 0.48613 0.98433 0.18172 0.0
C2586 C 0.48526 0.96937 0.17085 0.0
C2587 C 0.4822 0.95167 0.17816 0.0
C2588 C 0.48018 0.94903 0.19607 0.0
C2589 C 0.48853 0.97265 0.15196 0.0
C2590 C 0.50387 0.97097 0.14442 0.0
C2591 C 0.47764 0.97881 0.14171 0.0
C2592 C 0.4603 0.97937 0.14864 0.0
C2593 C 0.44493 0.96259 0.15646 0.0
C2594 C 0.42882 0.96326 0.16326 0.0
C2595 C 0.42783 0.98059 0.16222 0.0
C2596 C 0.44291 0.99727 0.15431 0.0
C2597 C 0.45907 0.99669 0.1475 0.0
C2598 C 0.50546 0.98077 0.06854 0.0
C2599 C 0.51002 -9e-05 0.0638 0.0
C2600 C 0.50252 0.97535 0.08601 0.0
C2601 C 0.50409 0.98901 0.09885 0.0
C2602 C 0.51018 0.00852 0.09422 0.0
C2603 C 0.51333 0.01397 0.07689 0.0
C2604 C 0.4988 0.98297 0.11706 0.0
C2605 C 0.48308 0.98412 0.12441 0.0
C2606 C 0.50919 0.97619 0.12713 0.0
C2607 C 0.5262 0.97533 0.12004 0.0
C2608 C 0.54264 0.99256 0.11401 0.0
C2609 C 0.5583 0.99154 0.10659 0.0
C2610 C 0.55771 0.97339 0.10525 0.0
C2611 C 0.54151 0.95623 0.11141 0.0
C2612 C 0.52581 0.95718 0.11884 0.0
H2613 H 0.56982 0.97262 0.09945 0.0
H2614 H 0.41536 0.98109 0.16751 0.0
H2615 H 0.07742 0.54842 0.19005 0.0
H2616 H 0.06419 0.54279 0.16063 0.0
H2617 H 0.00748 0.49854 0.17914 0.0
H2618 H 0.02082 0.5041 0.20891 0.0
H2619 H 0.01866 0.48764 0.14818 0.0
H2620 H 0.01324 0.54228 0.17008 0.0
H2621 H 0.02513 0.5744 0.18505 0.0
H2622 H 0.07018 0.60281 0.14702 0.0
H2623 H 0.05867 0.5708 0.13191 0.0
H2624 H 0.96741 0.48798 0.07284 0.0
H2625 H 0.97862 0.49449 0.10295 0.0
H2626 H 0.03817 0.53158 0.08613 0.0
H2627 H 0.02711 0.52452 0.05571 0.0
H2628 H 0.02408 0.54531 0.11664 0.0
H2629 H 0.02947 0.49029 0.09493 0.0
H2630 H 0.01913 0.45779 0.08132 0.0
H2631 H 0.9745 0.42945 0.1197 0.0
H2632 H 0.98435 0.46184 0.13338 0.0
C2633 C 0.06209 0.53759 0.1879 0.0
C2634 C 0.05002 0.52697 0.20177 0.0
C2635 C 0.05458 0.53434 0.17109 0.0
C2636 C 0.0348 0.52054 0.1678 0.0
C2637 C 0.02278 0.50935 0.18149 0.0
C2638 C 0.03037 0.51254 0.19842 0.0
C2639 C 0.02687 0.51836 0.15 0.0
C2640 C 0.01945 0.5001 0.14135 0.0
C2641 C 0.02841 0.53481 0.14107 0.0
C2642 C 0.03515 0.55414 0.14992 0.0
C2643 C 0.02573 0.55537 0.16495 0.0
C2644 C 0.03239 0.57355 0.17346 0.0
C2645 C 0.04841 0.59063 0.167 0.0
C2646 C 0.05776 0.58957 0.15199 0.0
C2647 C 0.05115 0.57142 0.14344 0.0
C2648 C 0.98284 0.49801 0.07552 0.0
C2649 C 0.99642 0.50565 0.06192 0.0
C2650 C 0.98921 0.50151 0.09272 0.0
C2651 C 0.00922 0.51304 0.09664 0.0
C2652 C 0.02266 0.52242 0.08323 0.0
C2653 C 0.0163 0.51866 0.06589 0.0
C2654 C 0.01597 0.51463 0.11476 0.0
C2655 C 0.02312 0.53278 0.12349 0.0
C2656 C 0.01407 0.49801 0.12375 0.0
C2657 C 0.00744 0.47859 0.11501 0.0
C2658 C 0.01721 0.47719 0.10029 0.0
C2659 C 0.0115 0.45876 0.09261 0.0
C2660 C 0.99611 0.44157 0.0996 0.0
C2661 C 0.98637 0.44278 0.11426 0.0
C2662 C 0.99201 0.46118 0.12197 0.0
H2663 H 0.99178 0.42731 0.09369 0.0
H2664 H 0.05356 0.6047 0.17361 0.0
H2665 H 0.50632 0.50844 0.20506 0.0
H2666 H 0.51019 0.51001 0.17362 0.0
H2667 H 0.46568 0.52652 0.16864 0.0
H2668 H 0.46203 0.52551 0.20017 0.0
H2669 H 0.46242 0.49742 0.14389 0.0
H2670 H 0.51134 0.56187 0.16605 0.0
H2671 H 0.5391 0.58482 0.18481 0.0
H2672 H 0.5742 0.56147 0.16435 0.0
H2673 H 0.54657 0.53823 0.14561 0.0
H2674 H 0.48509 0.52264 0.05512 0.0
H2675 H 0.47983 0.52712 0.08581 0.0
H2676 H 0.52757 0.51766 0.10009 0.0
H2677 H 0.53266 0.51307 0.06958 0.0
H2678 H 0.5275 0.54524 0.12012 0.0
H2679 H 0.48066 0.48027 0.09955 0.0
H2680 H 0.45335 0.45397 0.08247 0.0
H2681 H 0.41476 0.47408 0.10077 0.0
H2682 H 0.44192 0.50074 0.11773 0.0
C2683 C 0.49743 0.51255 0.19732 0.0
C2684 C 0.48402 0.51706 0.20519 0.0
C2685 C 0.49959 0.51332 0.17935 0.0
C2686 C 0.48837 0.5186 0.16886 0.0
C2687 C 0.47447 0.52243 0.17654 0.0
C2688 C 0.47237 0.52177 0.19456 0.0
C2689 C 0.49172 0.52075 0.14994 0.0
C2690 C 0.4765 0.50813 0.13858 0.0
C2691 C 0.51028 0.53434 0.14318 0.0
C2692 C 0.52685 0.54824 0.15451 0.0
C2693 C 0.52493 0.56153 0.16565 0.0
C2694 C 0.54066 0.57461 0.17626 0.0
C2695 C 0.5584 0.57458 0.17579 0.0
C2696 C 0.56046 0.56148 0.1647 0.0
C2697 C 0.54478 0.54838 0.15407 0.0
C2698 C 0.4951 0.52261 0.06479 0.0
C2699 C 0.50955 0.51793 0.06004 0.0
C2700 C 0.49179 0.52468 0.08232 0.0
C2701 C 0.50304 0.52229 0.09524 0.0
C2702 C 0.51866 0.51948 0.09035 0.0
C2703 C 0.5218 0.51719 0.07291 0.0
C2704 C 0.49826 0.52181 0.11388 0.0
C2705 C 0.51326 0.53474 0.12527 0.0
C2706 C 0.47958 0.50818 0.12062 0.0
C2707 C 0.46348 0.4928 0.10965 0.0
C2708 C 0.46646 0.47934 0.09969 0.0
C2709 C 0.45097 0.46429 0.09009 0.0
C2710 C 0.43236 0.46242 0.09046 0.0
C2711 C 0.42921 0.47561 0.10042 0.0
C2712 C 0.44466 0.49071 0.11001 0.0
H2713 H 0.42037 0.45071 0.0831 0.0
H2714 H 0.57056 0.58473 0.184 0.0
H2715 H 0.99254 0.4973 0.8027 0.0
H2716 H 0.99587 0.49569 0.83406 0.0
H2717 H 0.93288 0.46284 0.83878 0.0
H2718 H 0.9294 0.46425 0.80732 0.0
H2719 H 0.95164 0.49199 0.86485 0.0
H2720 H 0.95746 0.43814 0.8394 0.0
H2721 H 0.97134 0.42386 0.81906 0.0
H2722 H 0.02893 0.46184 0.84039 0.0
H2723 H 0.01542 0.47649 0.86072 0.0
H2724 H 0.96052 0.46981 0.95263 0.0
H2725 H 0.94994 0.46288 0.92207 0.0
H2726 H 0.01051 0.49066 0.90648 0.0
H2727 H 0.02095 0.49755 0.93679 0.0
H2728 H 0.98877 0.46023 0.88599 0.0
H2729 H 0.98626 0.51628 0.90887 0.0
H2730 H 0.97584 0.535 0.9277 0.0
H2731 H 0.91619 0.49817 0.91053 0.0
H2732 H 0.92621 0.47899 0.8918 0.0
C2733 C 0.97938 0.48967 0.81039 0.0
C2734 C 0.96071 0.4807 0.80248 0.0
C2735 C 0.9813 0.48883 0.82832 0.0
C2736 C 0.96462 0.47886 0.83871 0.0
C2737 C 0.94594 0.47055 0.83098 0.0
C2738 C 0.94399 0.47141 0.81301 0.0
C2739 C 0.96682 0.47654 0.85753 0.0
C2740 C 0.95939 0.48469 0.86955 0.0
C2741 C 0.97738 0.46747 0.86357 0.0
C2742 C 0.98544 0.45845 0.85153 0.0
C2743 C 0.9731 0.44349 0.8397 0.0
C2744 C 0.98089 0.43533 0.82818 0.0
C2745 C 0.001 0.44195 0.82843 0.0
C2746 C 0.01336 0.45672 0.84022 0.0
C2747 C 0.00563 0.46492 0.85176 0.0
C2748 C 0.97145 0.47353 0.94267 0.0
C2749 C 0.99153 0.48397 0.94698 0.0
C2750 C 0.96544 0.46993 0.92523 0.0
C2751 C 0.97946 0.47663 0.91197 0.0
C2752 C -0.00058 0.48541 0.91644 0.0
C2753 C 0.00539 0.48915 0.93377 0.0
C2754 C 0.97381 0.47587 0.89345 0.0
C2755 C 0.98063 0.46717 0.88141 0.0
C2756 C 0.96309 0.48487 0.88743 0.0
C2757 C 0.95693 0.49594 0.89917 0.0
C2758 C 0.97087 0.51196 0.90931 0.0
C2759 C 0.96505 0.52271 0.91992 0.0
C2760 C 0.94535 0.51772 0.92038 0.0
C2761 C 0.93144 0.50197 0.91022 0.0
C2762 C 0.93717 0.49114 0.89962 0.0
H2763 H 0.94089 0.5261 0.92855 0.0
H2764 H 0.00702 0.43562 0.81949 0.0
H2765 H 0.49063 0.45882 0.80166 0.0
H2766 H 0.48395 0.46426 0.83165 0.0
H2767 H 0.54612 0.49877 0.84219 0.0
H2768 H 0.55291 0.49353 0.81228 0.0
H2769 H 0.52405 0.46484 0.86385 0.0
H2770 H 0.52428 0.52258 0.84368 0.0
H2771 H 0.51469 0.54131 0.82432 0.0
H2772 H 0.45465 0.50575 0.83973 0.0
H2773 H 0.46384 0.48659 0.85901 0.0
H2774 H 0.52308 0.49451 0.95033 0.0
H2775 H 0.52776 0.48962 0.91999 0.0
H2776 H 0.46738 0.47254 0.90898 0.0
H2777 H 0.46346 0.4796 0.93935 0.0
H2778 H 0.48826 0.49736 0.88677 0.0
H2779 H 0.48915 0.43964 0.90791 0.0
H2780 H 0.5002 0.422 0.92717 0.0
H2781 H 0.55932 0.45793 0.90949 0.0
H2782 H 0.5487 0.476 0.89037 0.0
C2783 C 0.50283 0.46795 0.8103 0.0
C2784 C 0.52226 0.47572 0.80473 0.0
C2785 C 0.49901 0.47106 0.82735 0.0
C2786 C 0.51457 0.48181 0.83905 0.0
C2787 C 0.53396 0.49044 0.83328 0.0
C2788 C 0.53779 0.48755 0.81619 0.0
C2789 C 0.51063 0.48223 0.85767 0.0
C2790 C 0.51639 0.47209 0.86897 0.0
C2791 C 0.50028 0.49134 0.86408 0.0
C2792 C 0.49472 0.50299 0.85266 0.0
C2793 C 0.509 0.51863 0.84283 0.0
C2794 C 0.50365 0.52935 0.8319 0.0
C2795 C 0.48406 0.52469 0.83075 0.0
C2796 C 0.46981 0.50933 0.84061 0.0
C2797 C 0.47509 0.49854 0.85156 0.0
C2798 C 0.51057 0.48884 0.94156 0.0
C2799 C 0.49275 0.48686 0.94716 0.0
C2800 C 0.51325 0.48608 0.92414 0.0
C2801 C 0.49783 0.48031 0.91208 0.0
C2802 C 0.47951 0.47695 0.91798 0.0
C2803 C 0.4771 0.48057 0.93536 0.0
C2804 C 0.50143 0.47965 0.89322 0.0
C2805 C 0.49569 0.48984 0.88177 0.0
C2806 C 0.51187 0.47056 0.88664 0.0
C2807 C 0.51812 0.45924 0.89776 0.0
C2808 C 0.50451 0.4438 0.90817 0.0
C2809 C 0.51071 0.43374 0.91907 0.0
C2810 C 0.53045 0.43885 0.91956 0.0
C2811 C 0.54403 0.45398 0.9091 0.0
C2812 C 0.53792 0.46412 0.89821 0.0
H2813 H 0.53523 0.43107 0.92804 0.0
H2814 H 0.47994 0.533 0.82227 0.0
H2815 H 0.48594 0.00957 0.80277 0.0
H2816 H 0.48302 0.006 0.83423 0.0
H2817 H 0.54154 0.05564 0.84075 0.0
H2818 H 0.54436 0.05995 0.80935 0.0
H2819 H 0.53388 0.02096 0.85916 0.0
H2820 H 0.50677 0.0634 0.85094 0.0
H2821 H 0.48466 0.07379 0.83808 0.0
H2822 H 0.43462 0.02099 0.85647 0.0
H2823 H 0.45645 0.01017 0.86927 0.0
H2824 H 0.53965 0.03561 0.94794 0.0
H2825 H 0.53792 0.04241 0.91739 0.0
H2826 H 0.47746 0.99558 0.91507 0.0
H2827 H 0.47907 0.98902 0.94607 0.0
H2828 H 0.48471 0.02765 0.89432 0.0
H2829 H 0.51192 0.98543 0.90304 0.0
H2830 H 0.53409 0.97511 0.91587 0.0
H2831 H 0.58398 0.02711 0.89617 0.0
H2832 H 0.56211 0.03789 0.88341 0.0
C2833 C 0.4981 0.01998 0.81085 0.0
C2834 C 0.5154 0.03507 0.80345 0.0
C2835 C 0.49641 0.01784 0.82884 0.0
C2836 C 0.51203 0.03061 0.83976 0.0
C2837 C 0.52934 0.04562 0.83249 0.0
C2838 C 0.53096 0.04794 0.81452 0.0
C2839 C 0.5106 0.02785 0.85876 0.0
C2840 C 0.5233 0.02266 0.86689 0.0
C2841 C 0.4964 0.02951 0.86869 0.0
C2842 C 0.48323 0.03587 0.86088 0.0
C2843 C 0.49104 0.0539 0.85208 0.0
C2844 C 0.47857 0.0599 0.84484 0.0
C2845 C 0.45824 0.04803 0.84641 0.0
C2846 C 0.45036 0.03016 0.85525 0.0
C2847 C 0.46278 0.02409 0.86251 0.0
C2848 C 0.52583 0.02712 0.94102 0.0
C2849 C 0.50951 0.01174 0.94921 0.0
C2850 C 0.52489 0.03093 0.92357 0.0
C2851 C 0.50773 0.01915 0.91388 0.0
C2852 C 0.49088 0.00474 0.92234 0.0
C2853 C 0.49176 0.00105 0.94 0.0
C2854 C 0.50814 0.02096 0.89475 0.0
C2855 C 0.49524 0.02588 0.88658 0.0
C2856 C 0.52214 0.01898 0.88472 0.0
C2857 C 0.53536 0.01255 0.89239 0.0
C2858 C 0.52762 0.99474 0.90156 0.0
C2859 C 0.54014 0.9888 0.9088 0.0
C2860 C 0.56043 0.00047 0.90687 0.0
C2861 C 0.56825 0.0181 0.89766 0.0
C2862 C 0.5558 0.02412 0.89041 0.0
H2863 H 0.5701 0.99583 0.91247 0.0
H2864 H 0.44861 0.05271 0.84081 0.0
H2865 H 0.17844 0.29816 0.53899 0.0
H2866 H 0.18164 0.30174 0.50765 0.0
H2867 H 0.12741 0.30281 0.50474 0.0
H2868 H 0.12366 0.29839 0.53618 0.0
H2869 H 0.12948 0.28128 0.47841 0.0
H2870 H 0.16989 0.345 0.50229 0.0
H2871 H 0.19478 0.37053 0.52175 0.0
H2872 H 0.23916 0.36056 0.49965 0.0
H2873 H 0.21445 0.33472 0.48021 0.0
H2874 H 0.14479 0.3288 0.39837 0.0
H2875 H 0.1396 0.31782 0.42805 0.0
H2876 H 0.19374 0.31638 0.4275 0.0
H2877 H 0.19954 0.32855 0.3974 0.0
H2878 H 0.19136 0.33631 0.45536 0.0
H2879 H 0.14586 0.27314 0.4279 0.0
H2880 H 0.11853 0.25237 0.40783 0.0
H2881 H 0.08036 0.26657 0.43638 0.0
H2882 H 0.1075 0.28766 0.45647 0.0
C2883 C 0.16702 0.29887 0.5317 0.0
C2884 C 0.15079 0.29799 0.54013 0.0
C2885 C 0.16896 0.30109 0.51377 0.0
C2886 C 0.15488 0.30274 0.50385 0.0
C2887 C 0.13847 0.30157 0.51214 0.0
C2888 C 0.13647 0.29928 0.53013 0.0
C2889 C 0.15773 0.30629 0.48493 0.0
C2890 C 0.14296 0.29334 0.47334 0.0
C2891 C 0.17527 0.32212 0.47835 0.0
C2892 C 0.19027 0.33775 0.48992 0.0
C2893 C 0.18493 0.34812 0.50167 0.0
C2894 C 0.19901 0.36267 0.51268 0.0
C2895 C 0.21853 0.36712 0.51197 0.0
C2896 C 0.22402 0.35707 0.5002 0.0
C2897 C 0.20998 0.34247 0.48917 0.0
C2898 C 0.15553 0.3259 0.40444 0.0
C2899 C 0.17268 0.32967 0.39565 0.0
C2900 C 0.1524 0.3194 0.42142 0.0
C2901 C 0.16606 0.31591 0.42999 0.0
C2902 C 0.18292 0.31886 0.42105 0.0
C2903 C 0.1862 0.32566 0.40389 0.0
C2904 C 0.16335 0.311 0.44871 0.0
C2905 C 0.17807 0.32392 0.46036 0.0
C2906 C 0.1454 0.2956 0.4553 0.0
C2907 C 0.1288 0.28205 0.4437 0.0
C2908 C 0.13165 0.27184 0.42991 0.0
C2909 C 0.11619 0.26003 0.41851 0.0
C2910 C 0.09774 0.25818 0.42081 0.0
C2911 C 0.09466 0.26801 0.43461 0.0
C2912 C 0.11008 0.27986 0.44604 0.0
H2913 H 0.08582 0.24911 0.41192 0.0
H2914 H 0.22942 0.37839 0.52051 0.0
H2915 H 0.69908 0.87509 0.53883 0.0
H2916 H 0.68681 0.86925 0.50891 0.0
H2917 H 0.70577 0.8265 0.50176 0.0
H2918 H 0.7183 0.83247 0.5316 0.0
H2919 H 0.72123 0.85631 0.47801 0.0
H2920 H 0.65811 0.81121 0.50067 0.0
H2921 H 0.62978 0.80046 0.52001 0.0
H2922 H 0.61953 0.8457 0.50005 0.0
H2923 H 0.64797 0.85691 0.48074 0.0
H2924 H 0.68633 0.82657 0.39259 0.0
H2925 H 0.6959 0.8312 0.42295 0.0
H2926 H 0.665 0.86335 0.43112 0.0
H2927 H 0.65377 0.85686 0.40068 0.0
H2928 H 0.65554 0.83885 0.45494 0.0
H2929 H 0.71958 0.88457 0.43254 0.0
H2930 H 0.74876 0.8958 0.41414 0.0
H2931 H 0.7581 0.85003 0.43423 0.0
H2932 H 0.72888 0.83839 0.45261 0.0
C2933 C 0.70029 0.86419 0.53095 0.0
C2934 C 0.70979 0.85437 0.53745 0.0
C2935 C 0.69317 0.86077 0.51393 0.0
C2936 C 0.69545 0.8475 0.50314 0.0
C2937 C 0.7039 0.83682 0.50991 0.0
C2938 C 0.71092 0.84014 0.52698 0.0
C2939 C 0.69118 0.84656 0.48435 0.0
C2940 C 0.70681 0.85222 0.47288 0.0
C2941 C 0.67251 0.84183 0.47784 0.0
C2942 C 0.6553 0.83503 0.48936 0.0
C2943 C 0.64992 0.81898 0.5005 0.0
C2944 C 0.63382 0.81278 0.51144 0.0
C2945 C 0.6229 0.82242 0.51129 0.0
C2946 C 0.62802 0.83825 0.50016 0.0
C2947 C 0.64411 0.84452 0.4892 0.0
C2948 C 0.68216 0.83522 0.40075 0.0
C2949 C 0.6697 0.84175 0.39433 0.0
C2950 C 0.6877 0.83794 0.41816 0.0
C2951 C 0.68159 0.84802 0.42943 0.0
C2952 C 0.66999 0.85558 0.42272 0.0
C2953 C 0.66381 0.85219 0.40532 0.0
C2954 C 0.68572 0.84888 0.44838 0.0
C2955 C 0.67004 0.84311 0.45995 0.0
C2956 C 0.70443 0.85361 0.45503 0.0
C2957 C 0.72196 0.86055 0.44388 0.0
C2958 C 0.72778 0.87683 0.43295 0.0
C2959 C 0.74434 0.88328 0.42254 0.0
C2960 C 0.75526 0.87364 0.42302 0.0
C2961 C 0.74964 0.8575 0.43388 0.0
C2962 C 0.7331 0.85099 0.44432 0.0
H2963 H 0.76812 0.87873 0.41501 0.0
H2964 H 0.61044 0.81761 0.51978 0.0
H2965 H 0.17984 0.87866 0.53951 0.0
H2966 H 0.18393 0.87982 0.50807 0.0
H2967 H 0.12761 0.82666 0.50229 0.0
H2968 H 0.12373 0.82502 0.53375 0.0
H2969 H 0.15408 0.82341 0.4845 0.0
H2970 H 0.13422 0.87139 0.49022 0.0
H2971 H 0.13393 0.9012 0.50061 0.0
H2972 H 0.19218 0.93785 0.4813 0.0
H2973 H 0.19293 0.90821 0.47099 0.0
H2974 H 0.13087 0.82389 0.39774 0.0
H2975 H 0.133 0.83236 0.42842 0.0
H2976 H 0.19612 0.86589 0.42534 0.0
H2977 H 0.19406 0.85699 0.39421 0.0
H2978 H 0.17024 0.88101 0.44731 0.0
H2979 H 0.186 0.82828 0.43971 0.0
H2980 H 0.18056 0.79647 0.42776 0.0
H2981 H 0.12289 0.76659 0.44963 0.0
H2982 H 0.12785 0.79826 0.46145 0.0
C2983 C 0.16837 0.86717 0.53154 0.0
C2984 C 0.15156 0.85162 0.53913 0.0
C2985 C 0.17062 0.868 0.51356 0.0
C2986 C 0.15605 0.85337 0.50283 0.0
C2987 C 0.13905 0.83809 0.51034 0.0
C2988 C 0.1368 0.83724 0.52831 0.0
C2989 C 0.15909 0.85319 0.4839 0.0
C2990 C 0.15754 0.83601 0.4764 0.0
C2991 C 0.16386 0.86972 0.47335 0.0
C2992 C 0.16375 0.88754 0.48008 0.0
C2993 C 0.14709 0.88578 0.48842 0.0
C2994 C 0.1468 0.90266 0.49423 0.0
C2995 C 0.16306 0.9214 0.49169 0.0
C2996 C 0.17962 0.92331 0.48331 0.0
C2997 C 0.17999 0.90648 0.47748 0.0
C2998 C 0.14522 0.8335 0.40348 0.0
C2999 C 0.16233 0.83973 0.39374 0.0
C3000 C 0.14639 0.83825 0.42098 0.0
C3001 C 0.16468 0.84943 0.42909 0.0
C3002 C 0.18187 0.85714 0.41918 0.0
C3003 C 0.18071 0.85222 0.40147 0.0
C3004 C 0.16531 0.85135 0.44813 0.0
C3005 C 0.1673 0.86869 0.4556 0.0
C3006 C 0.16033 0.83476 0.45863 0.0
C3007 C 0.15724 0.81572 0.4513 0.0
C3008 C 0.17207 0.81498 0.44178 0.0
C3009 C 0.16909 0.79695 0.43508 0.0
C3010 C 0.15137 0.77953 0.43789 0.0
C3011 C 0.13659 0.78009 0.44743 0.0
C3012 C 0.13949 0.79808 0.45414 0.0
H3013 H 0.14911 0.76559 0.43272 0.0
H3014 H 0.16279 0.93446 0.49615 0.0
H3015 H 0.59779 0.78364 0.1391 0.0
H3016 H 0.6025 0.78219 0.17045 0.0
H3017 H 0.65444 0.84 0.16893 0.0
H3018 H 0.6501 0.84099 0.13754 0.0
H3019 H 0.66228 0.81628 0.18539 0.0
H3020 H 0.61047 0.83124 0.18738 0.0
H3021 H 0.57788 0.82715 0.18116 0.0
H3022 H 0.5503 0.77064 0.20587 0.0
H3023 H 0.58273 0.77423 0.21201 0.0
H3024 H 0.68139 0.8491 0.27035 0.0
H3025 H 0.67287 0.84128 0.24024 0.0
H3026 H 0.62432 0.78417 0.25382 0.0
H3027 H 0.63188 0.79308 0.28489 0.0
H3028 H 0.61294 0.80156 0.23119 0.0
H3029 H 0.66946 0.79203 0.23194 0.0
H3030 H 0.70368 0.80215 0.23978 0.0
H3031 H 0.72425 0.85545 0.21072 0.0
H3032 H 0.69021 0.84577 0.20284 0.0
C3033 C 0.61005 0.79607 0.14561 0.0
C3034 C 0.62365 0.8124 0.13611 0.0
C3035 C 0.6127 0.79529 0.16347 0.0
C3036 C 0.6288 0.81101 0.17208 0.0
C3037 C 0.64199 0.82763 0.16257 0.0
C3038 C 0.63951 0.82825 0.1447 0.0
C3039 C 0.63279 0.80972 0.19073 0.0
C3040 C 0.65149 0.81314 0.1954 0.0
C3041 C 0.61859 0.80517 0.20377 0.0
C3042 C 0.59904 0.80287 0.19992 0.0
C3043 C 0.59746 0.81783 0.19131 0.0
C3044 C 0.57901 0.81562 0.18784 0.0
C3045 C 0.56203 0.79861 0.19305 0.0
C3046 C 0.56346 0.78378 0.20179 0.0
C3047 C 0.58188 0.78589 0.20527 0.0
C3048 C 0.6691 0.83463 0.26701 0.0
C3049 C 0.65725 0.82172 0.27997 0.0
C3050 C 0.66436 0.83006 0.24965 0.0
C3051 C 0.64825 0.81189 0.24456 0.0
C3052 C 0.63696 0.79824 0.25744 0.0
C3053 C 0.64142 0.80315 0.27514 0.0
C3054 C 0.64257 0.80848 0.22588 0.0
C3055 C 0.62355 0.80419 0.22113 0.0
C3056 C 0.65668 0.81283 0.21274 0.0
C3057 C 0.67724 0.8181 0.21675 0.0
C3058 C 0.68128 0.80587 0.22717 0.0
C3059 C 0.70066 0.81156 0.23166 0.0
C3060 C 0.71613 0.82942 0.22574 0.0
C3061 C 0.71227 0.84158 0.21525 0.0
C3062 C 0.69294 0.83596 0.21071 0.0
H3063 H 0.7311 0.83383 0.2293 0.0
H3064 H 0.54776 0.79694 0.19037 0.0
H3065 H 0.22015 0.82923 0.14404 0.0
H3066 H 0.21209 0.83554 0.17312 0.0
H3067 H 0.15208 0.78912 0.16548 0.0
H3068 H 0.15985 0.78318 0.13615 0.0
H3069 H 0.15567 0.82127 0.18535 0.0
H3070 H 0.18497 0.77848 0.18298 0.0
H3071 H 0.21168 0.77207 0.1751 0.0
H3072 H 0.25259 0.82266 0.20535 0.0
H3073 H 0.22616 0.8295 0.21322 0.0
H3074 H 0.12851 0.80288 0.27364 0.0
H3075 H 0.13335 0.79797 0.24288 0.0
H3076 H 0.19614 0.82983 0.25149 0.0
H3077 H 0.1911 0.83272 0.28209 0.0
H3078 H 0.19075 0.8052 0.23013 0.0
H3079 H 0.16607 0.85046 0.23292 0.0
H3080 H 0.143 0.8623 0.23961 0.0
H3081 H 0.09827 0.81497 0.20881 0.0
H3082 H 0.12103 0.80277 0.20205 0.0
C3083 C 0.2051 0.82078 0.14833 0.0
C3084 C 0.1907 0.80545 0.13793 0.0
C3085 C 0.20055 0.82432 0.16499 0.0
C3086 C 0.1816 0.81249 0.17154 0.0
C3087 C 0.16683 0.7983 0.16069 0.0
C3088 C 0.17134 0.7948 0.14402 0.0
C3089 C 0.17766 0.81319 0.1902 0.0
C3090 C 0.16321 0.81768 0.19522 0.0
C3091 C 0.18791 0.80901 0.20302 0.0
C3092 C 0.20363 0.80455 0.19859 0.0
C3093 C 0.19968 0.78826 0.1879 0.0
C3094 C 0.21476 0.78456 0.18343 0.0
C3095 C 0.23382 0.79697 0.1897 0.0
C3096 C 0.23783 0.81307 0.2005 0.0
C3097 C 0.2228 0.81685 0.20498 0.0
C3098 C 0.14322 0.80797 0.26895 0.0
C3099 C 0.15941 0.81774 0.2802 0.0
C3100 C 0.14606 0.80566 0.25132 0.0
C3101 C 0.16518 0.81402 0.24461 0.0
C3102 C 0.18123 0.82311 0.25615 0.0
C3103 C 0.17835 0.82467 0.27374 0.0
C3104 C 0.16884 0.81368 0.22568 0.0
C3105 C 0.18319 0.80904 0.22048 0.0
C3106 C 0.159 0.8185 0.21281 0.0
C3107 C 0.14517 0.82556 0.21717 0.0
C3108 C 0.15126 0.84248 0.22771 0.0
C3109 C 0.13825 0.84928 0.23148 0.0
C3110 C 0.11916 0.83935 0.22469 0.0
C3111 C 0.11304 0.82262 0.21409 0.0
C3112 C 0.12599 0.81576 0.21028 0.0
H3113 H 0.10912 0.84465 0.22761 0.0
H3114 H 0.24549 0.79409 0.18621 0.0
H3115 H 0.19927 0.35457 0.13971 0.0
H3116 H 0.1942 0.34994 0.17114 0.0
H3117 H 0.166 0.38518 0.17126 0.0
H3118 H 0.1707 0.38956 0.13986 0.0
H3119 H 0.19695 0.39225 0.20002 0.0
H3120 H 0.1368 0.34049 0.16979 0.0
H3121 H 0.12116 0.31274 0.14873 0.0
H3122 H 0.14545 0.28205 0.17593 0.0
H3123 H 0.16142 0.30973 0.197 0.0
H3124 H 0.1662 0.36937 0.28679 0.0
H3125 H 0.1642 0.37636 0.25599 0.0
H3126 H 0.16188 0.3215 0.2417 0.0
H3127 H 0.16191 0.31391 0.2719 0.0
H3128 H 0.14479 0.32624 0.21896 0.0
H3129 H 0.20607 0.37141 0.24661 0.0
H3130 H 0.22876 0.39749 0.26701 0.0
H3131 H 0.21312 0.43821 0.24523 0.0
H3132 H 0.1903 0.41231 0.22474 0.0
C3133 C 0.19221 0.36151 0.14652 0.0
C3134 C 0.18525 0.37231 0.13744 0.0
C3135 C 0.18933 0.35885 0.16439 0.0
C3136 C 0.17973 0.36723 0.17341 0.0
C3137 C 0.17348 0.37867 0.16448 0.0
C3138 C 0.17606 0.38105 0.14659 0.0
C3139 C 0.17497 0.36298 0.19192 0.0
C3140 C 0.18544 0.37792 0.20431 0.0
C3141 C 0.16051 0.34405 0.19734 0.0
C3142 C 0.15036 0.32722 0.18492 0.0
C3143 C 0.13886 0.32786 0.17123 0.0
C3144 C 0.12993 0.31214 0.15929 0.0
C3145 C 0.13232 0.29565 0.16098 0.0
C3146 C 0.14359 0.29482 0.17464 0.0
C3147 C 0.15255 0.3105 0.18659 0.0
C3148 C 0.16418 0.35845 0.27699 0.0
C3149 C 0.16425 0.34114 0.2816 0.0
C3150 C 0.16349 0.3626 0.25938 0.0
C3151 C 0.1636 0.34982 0.24632 0.0
C3152 C 0.16182 0.33174 0.25125 0.0
C3153 C 0.16183 0.32735 0.26863 0.0
C3154 C 0.16711 0.35541 0.22766 0.0
C3155 C 0.15632 0.34072 0.21502 0.0
C3156 C 0.18227 0.37421 0.22215 0.0
C3157 C 0.19607 0.38977 0.23446 0.0
C3158 C 0.20732 0.38586 0.24629 0.0
C3159 C 0.22026 0.40063 0.25783 0.0
C3160 C 0.22227 0.41945 0.25751 0.0
C3161 C 0.21147 0.42359 0.24555 0.0
C3162 C 0.19852 0.40887 0.23399 0.0
H3163 H 0.23228 0.43086 0.26645 0.0
H3164 H 0.12543 0.28352 0.15172 0.0
H3165 H 0.78612 0.61408 0.86796 0.0
H3166 H 0.79017 0.61894 0.83648 0.0
H3167 H 0.85287 0.6542 0.8437 0.0
H3168 H 0.84897 0.64938 0.87503 0.0
H3169 H 0.83415 0.67101 0.82209 0.0
H3170 H 0.83533 0.60911 0.83018 0.0
H3171 H 0.82054 0.57426 0.83892 0.0
H3172 H 0.77155 0.55833 0.80468 0.0
H3173 H 0.78594 0.59312 0.7959 0.0
H3174 H 0.86799 0.6871 0.73696 0.0
H3175 H 0.86432 0.6786 0.76775 0.0
H3176 H 0.80916 0.62568 0.75602 0.0
H3177 H 0.81397 0.63328 0.72529 0.0
H3178 H 0.82181 0.61704 0.78052 0.0
H3179 H 0.81529 0.6737 0.77175 0.0
H3180 H 0.82331 0.70734 0.76342 0.0
H3181 H 0.87287 0.73227 0.79825 0.0
H3182 H 0.86528 0.69879 0.80664 0.0
C3183 C 0.80074 0.6229 0.86279 0.0
C3184 C 0.81725 0.6313 0.87389 0.0
C3185 C 0.80303 0.62556 0.84486 0.0
C3186 C 0.82182 0.63682 0.83785 0.0
C3187 C 0.83826 0.6454 0.84891 0.0
C3188 C 0.83602 0.64256 0.86676 0.0
C3189 C 0.82455 0.6401 0.81899 0.0
C3190 C 0.83167 0.65932 0.81292 0.0
C3191 C 0.82027 0.62458 0.80707 0.0
C3192 C 0.81161 0.60374 0.81254 0.0
C3193 C 0.82131 0.59821 0.82466 0.0
C3194 C 0.81302 0.57846 0.82958 0.0
C3195 C 0.79509 0.5641 0.8224 0.0
C3196 C 0.78542 0.56946 0.81026 0.0
C3197 C 0.79364 0.58918 0.8053 0.0
C3198 C 0.85569 0.67316 0.74098 0.0
C3199 C 0.84153 0.66055 0.72883 0.0
C3200 C 0.85325 0.66855 0.75861 0.0
C3201 C 0.83607 0.65184 0.76442 0.0
C3202 C 0.82255 0.63867 0.75204 0.0
C3203 C 0.82539 0.64288 0.73441 0.0
C3204 C 0.8318 0.64824 0.78328 0.0
C3205 C 0.8243 0.62891 0.78946 0.0
C3206 C 0.83478 0.66354 0.79519 0.0
C3207 C 0.83987 0.6837 0.78964 0.0
C3208 C 0.82804 0.68635 0.77747 0.0
C3209 C 0.83247 0.7054 0.77278 0.0
C3210 C 0.84863 0.72193 0.78025 0.0
C3211 C 0.86039 0.71945 0.79243 0.0
C3212 C 0.85603 0.70044 0.79716 0.0
H3213 H 0.852 0.73666 0.77664 0.0
H3214 H 0.78872 0.54881 0.82621 0.0
H3215 H 0.38624 0.16751 0.86392 0.0
H3216 H 0.37355 0.16171 0.83416 0.0
H3217 H 0.35262 0.20273 0.84242 0.0
H3218 H 0.3647 0.20814 0.87237 0.0
H3219 H 0.32744 0.16994 0.82144 0.0
H3220 H 0.39808 0.21896 0.82615 0.0
H3221 H 0.43196 0.22848 0.83472 0.0
H3222 H 0.42879 0.18131 0.80315 0.0
H3223 H 0.39482 0.17141 0.79453 0.0
H3224 H 0.31574 0.18808 0.73435 0.0
H3225 H 0.32599 0.19396 0.76498 0.0
H3226 H 0.36479 0.17068 0.75537 0.0
H3227 H 0.35653 0.16747 0.72481 0.0
H3228 H 0.38059 0.19399 0.77805 0.0
H3229 H 0.3129 0.1426 0.77302 0.0
H3230 H 0.27779 0.12737 0.76525 0.0
H3231 H 0.27308 0.17031 0.79698 0.0
H3232 H 0.30819 0.18586 0.80484 0.0
C3233 C 0.37841 0.17484 0.85957 0.0
C3234 C 0.37669 0.1885 0.87039 0.0
C3235 C 0.37131 0.17162 0.84253 0.0
C3236 C 0.36253 0.18212 0.83604 0.0
C3237 C 0.35949 0.19461 0.84718 0.0
C3238 C 0.36653 0.1978 0.86422 0.0
C3239 C 0.35829 0.18171 0.81731 0.0
C3240 C 0.33899 0.17526 0.81187 0.0
C3241 C 0.37333 0.18808 0.80488 0.0
C3242 C 0.39391 0.19441 0.80977 0.0
C3243 C 0.40461 0.21061 0.82108 0.0
C3244 C 0.42382 0.21606 0.82594 0.0
C3245 C 0.43251 0.2055 0.8195 0.0
C3246 C 0.42204 0.18949 0.80813 0.0
C3247 C 0.40283 0.18397 0.80323 0.0
C3248 C 0.32714 0.1852 0.73878 0.0
C3249 C 0.33557 0.17761 0.72729 0.0
C3250 C 0.33263 0.18801 0.75635 0.0
C3251 C 0.34564 0.18205 0.76279 0.0
C3252 C 0.35476 0.17546 0.75096 0.0
C3253 C 0.35005 0.17366 0.73339 0.0
C3254 C 0.34944 0.1819 0.78175 0.0
C3255 C 0.36879 0.18842 0.78737 0.0
C3256 C 0.33425 0.17472 0.79423 0.0
C3257 C 0.3132 0.16552 0.78936 0.0
C3258 C 0.3044 0.14886 0.77824 0.0
C3259 C 0.2845 0.14015 0.77385 0.0
C3260 C 0.27323 0.1479 0.78058 0.0
C3261 C 0.28183 0.16434 0.79175 0.0
C3262 C 0.30172 0.17309 0.7962 0.0
H3263 H 0.25783 0.14114 0.77716 0.0
H3264 H 0.44738 0.20973 0.8233 0.0
H3265 H 0.81299 0.21092 0.8689 0.0
H3266 H 0.81869 0.21285 0.83753 0.0
H3267 H 0.82025 0.15836 0.83905 0.0
H3268 H 0.81531 0.15688 0.8704 0.0
H3269 H 0.85053 0.18476 0.82295 0.0
H3270 H 0.78136 0.1624 0.82049 0.0
H3271 H 0.75144 0.16389 0.82691 0.0
H3272 H 0.77592 0.22025 0.80217 0.0
H3273 H 0.80611 0.21922 0.79578 0.0
H3274 H 0.84186 0.15065 0.73906 0.0
H3275 H 0.83937 0.15829 0.76872 0.0
H3276 H 0.83662 0.20987 0.7532 0.0
H3277 H 0.83593 0.20014 0.72257 0.0
H3278 H 0.811 0.1922 0.77654 0.0
H3279 H 0.87978 0.2097 0.77605 0.0
H3280 H 0.90635 0.20292 0.76852 0.0
H3281 H 0.87921 0.15015 0.79885 0.0
H3282 H 0.85246 0.15651 0.80645 0.0
C3283 C 0.8143 0.19926 0.86241 0.0
C3284 C 0.81388 0.18383 0.87197 0.0
C3285 C 0.81748 0.20033 0.84452 0.0
C3286 C 0.8199 0.18575 0.8359 0.0
C3287 C 0.81861 0.16988 0.84542 0.0
C3288 C 0.81577 0.16901 0.86329 0.0
C3289 C 0.82524 0.18758 0.81728 0.0
C3290 C 0.84183 0.18632 0.81279 0.0
C3291 C 0.81428 0.19025 0.80407 0.0
C3292 C 0.7961 0.19085 0.80785 0.0
C3293 C 0.78044 0.17519 0.81655 0.0
C3294 C 0.76341 0.17594 0.82015 0.0
C3295 C 0.76181 0.19219 0.81501 0.0
C3296 C 0.7772 0.2077 0.80618 0.0
C3297 C 0.79426 0.20703 0.80255 0.0
C3298 C 0.84108 0.16388 0.7418 0.0
C3299 C 0.83909 0.17478 0.72834 0.0
C3300 C 0.84 0.16848 0.759 0.0
C3301 C 0.83858 0.18515 0.76351 0.0
C3302 C 0.83797 0.19704 0.75012 0.0
C3303 C 0.83802 0.19177 0.7326 0.0
C3304 C 0.83599 0.18871 0.78211 0.0
C3305 C 0.82 0.19112 0.78668 0.0
C3306 C 0.84727 0.18665 0.7955 0.0
C3307 C 0.86415 0.18366 0.79186 0.0
C3308 C 0.87956 0.19673 0.78119 0.0
C3309 C 0.89462 0.19292 0.77688 0.0
C3310 C 0.89447 0.17613 0.78321 0.0
C3311 C 0.87935 0.16319 0.794 0.0
C3312 C 0.8643 0.16695 0.79838 0.0
H3313 H 0.90606 0.17314 0.77975 0.0
H3314 H 0.74862 0.19274 0.81782 0.0
H3315 H 0.32364 0.17147 0.47032 0.0
H3316 H 0.3272 0.16933 0.50161 0.0
H3317 H 0.26672 0.12288 0.50437 0.0
H3318 H 0.26299 0.12517 0.47303 0.0
H3319 H 0.27796 0.14961 0.53208 0.0
H3320 H 0.30333 0.11119 0.50314 0.0
H3321 H 0.32459 0.10723 0.48194 0.0
H3322 H 0.3756 0.15526 0.50627 0.0
H3323 H 0.35463 0.1596 0.5275 0.0
H3324 H 0.29577 0.13285 0.6192 0.0
H3325 H 0.28503 0.12429 0.58874 0.0
H3326 H 0.34448 0.16328 0.57224 0.0
H3327 H 0.35514 0.17103 0.60225 0.0
H3328 H 0.32935 0.13464 0.55124 0.0
H3329 H 0.30854 0.17799 0.57618 0.0
H3330 H 0.29076 0.18847 0.59597 0.0
H3331 H 0.23585 0.13915 0.57893 0.0
H3332 H 0.25334 0.12827 0.55917 0.0
C3333 C 0.31109 0.16085 0.47761 0.0
C3334 C 0.29311 0.14834 0.46922 0.0
C3335 C 0.31313 0.15964 0.49547 0.0
C3336 C 0.29733 0.14564 0.50525 0.0
C3337 C 0.27911 0.13371 0.49705 0.0
C3338 C 0.27701 0.13504 0.47917 0.0
C3339 C 0.30017 0.14297 0.52386 0.0
C3340 C 0.28892 0.14596 0.53632 0.0
C3341 C 0.31482 0.13872 0.52937 0.0
C3342 C 0.32741 0.13572 0.51687 0.0
C3343 C 0.31907 0.1209 0.50394 0.0
C3344 C 0.33107 0.1186 0.49192 0.0
C3345 C 0.35143 0.13098 0.49276 0.0
C3346 C 0.35984 0.14566 0.50565 0.0
C3347 C 0.34791 0.14801 0.5177 0.0
C3348 C 0.3066 0.13878 0.60903 0.0
C3349 C 0.32628 0.15256 0.61302 0.0
C3350 C 0.30042 0.13423 0.59164 0.0
C3351 C 0.31385 0.14355 0.57813 0.0
C3352 C 0.33377 0.15591 0.58231 0.0
C3353 C 0.3399 0.16026 0.59952 0.0
C3354 C 0.30752 0.14181 0.55967 0.0
C3355 C 0.31807 0.1379 0.54713 0.0
C3356 C 0.29274 0.14597 0.55415 0.0
C3357 C 0.28226 0.15212 0.56642 0.0
C3358 C 0.29269 0.16925 0.57682 0.0
C3359 C 0.28267 0.17529 0.58799 0.0
C3360 C 0.2622 0.16443 0.58877 0.0
C3361 C 0.25171 0.14751 0.57836 0.0
C3362 C 0.26167 0.14139 0.56718 0.0
H3363 H 0.25446 0.16916 0.59739 0.0
H3364 H 0.36068 0.1292 0.48343 0.0
H3365 H 0.88171 0.13228 0.48735 0.0
H3366 H 0.87289 0.13834 0.51624 0.0
H3367 H 0.83143 0.15259 0.49331 0.0
H3368 H 0.84068 0.14693 0.4642 0.0
H3369 H 0.85274 0.17693 0.52249 0.0
H3370 H 0.81438 0.1071 0.50742 0.0
H3371 H 0.81126 0.07575 0.4967 0.0
H3372 H 0.84831 0.07704 0.53831 0.0
H3373 H 0.85183 0.10851 0.54917 0.0
H3374 H 0.80834 0.17122 0.60234 0.0
H3375 H 0.8111 0.16388 0.57191 0.0
H3376 H 0.8444 0.13619 0.58737 0.0
H3377 H 0.84068 0.14258 0.61782 0.0
H3378 H 0.82484 0.11827 0.56049 0.0
H3379 H 0.86615 0.1871 0.57495 0.0
H3380 H 0.87515 0.22077 0.58483 0.0
H3381 H 0.83862 0.22396 0.54496 0.0
H3382 H 0.82923 0.19021 0.53495 0.0
C3383 C 0.87099 0.13707 0.48853 0.0
C3384 C 0.86175 0.13908 0.47375 0.0
C3385 C 0.86591 0.14045 0.50496 0.0
C3386 C 0.85124 0.14551 0.50687 0.0
C3387 C 0.84273 0.1486 0.49205 0.0
C3388 C 0.84798 0.14539 0.47552 0.0
C3389 C 0.84396 0.14616 0.52438 0.0
C3390 C 0.84627 0.16407 0.53075 0.0
C3391 C 0.83612 0.12947 0.53522 0.0
C3392 C 0.83337 0.11016 0.52909 0.0
C3393 C 0.82186 0.10069 0.51427 0.0
C3394 C 0.82004 0.08292 0.50816 0.0
C3395 C 0.82958 0.07441 0.51682 0.0
C3396 C 0.8409 0.08363 0.53164 0.0
C3397 C 0.84278 0.10141 0.5378 0.0
C3398 C 0.8155 0.1628 0.59921 0.0
C3399 C 0.82423 0.15737 0.61236 0.0
C3400 C 0.81741 0.15895 0.58183 0.0
C3401 C 0.8286 0.15015 0.57728 0.0
C3402 C 0.83584 0.14317 0.59051 0.0
C3403 C 0.83354 0.14662 0.60794 0.0
C3404 C 0.83371 0.14919 0.55889 0.0
C3405 C 0.83102 0.13117 0.55228 0.0
C3406 C 0.84166 0.16597 0.54797 0.0
C3407 C 0.84676 0.186 0.55437 0.0
C3408 C 0.85984 0.19488 0.56842 0.0
C3409 C 0.86507 0.21401 0.57401 0.0
C3410 C 0.8574 0.22447 0.56557 0.0
C3411 C 0.8445 0.21582 0.55152 0.0
C3412 C 0.83922 0.19669 0.54589 0.0
H3413 H 0.86151 0.23929 0.56988 0.0
H3414 H 0.82819 0.06067 0.51204 0.0
H3415 H 0.82322 0.70571 0.47034 0.0
H3416 H 0.81912 0.70143 0.50173 0.0
H3417 H 0.87313 0.7 0.5054 0.0
H3418 H 0.87714 0.70394 0.47398 0.0
H3419 H 0.84418 0.66978 0.52209 0.0
H3420 H 0.87132 0.73942 0.52038 0.0
H3421 H 0.87506 0.77146 0.51181 0.0
H3422 H 0.81801 0.75432 0.53192 0.0
H3423 H 0.81381 0.72204 0.54041 0.0
H3424 H 0.86975 0.68749 0.60914 0.0
H3425 H 0.86819 0.69531 0.57895 0.0
H3426 H 0.80624 0.67416 0.58372 0.0
H3427 H 0.80768 0.66582 0.6144 0.0
H3428 H 0.83498 0.71393 0.56297 0.0
H3429 H 0.81145 0.64346 0.56687 0.0
H3430 H 0.81282 0.61418 0.57664 0.0
H3431 H 0.86926 0.63641 0.55314 0.0
H3432 H 0.8684 0.666 0.54351 0.0
C3433 C 0.83421 0.70447 0.47786 0.0
C3434 C 0.85044 0.70502 0.4697 0.0
C3435 C 0.83195 0.70223 0.49579 0.0
C3436 C 0.84584 0.70046 0.50589 0.0
C3437 C 0.86223 0.70134 0.49783 0.0
C3438 C 0.86456 0.70369 0.47991 0.0
C3439 C 0.84273 0.69651 0.52471 0.0
C3440 C 0.84223 0.67949 0.53101 0.0
C3441 C 0.8399 0.70903 0.53631 0.0
C3442 C 0.84212 0.72818 0.53078 0.0
C3443 C 0.85945 0.74236 0.52276 0.0
C3444 C 0.86169 0.7606 0.51798 0.0
C3445 C 0.84675 0.76489 0.52125 0.0
C3446 C 0.82954 0.75095 0.52934 0.0
C3447 C 0.82723 0.73268 0.53414 0.0
C3448 C 0.85584 0.68487 0.60389 0.0
C3449 C 0.83878 0.67591 0.61396 0.0
C3450 C 0.85499 0.6893 0.58665 0.0
C3451 C 0.83708 0.68499 0.57912 0.0
C3452 C 0.82017 0.67745 0.58942 0.0
C3453 C 0.821 0.67283 0.60687 0.0
C3454 C 0.83636 0.68722 0.5602 0.0
C3455 C 0.83639 0.70401 0.5539 0.0
C3456 C 0.83929 0.67477 0.54862 0.0
C3457 C 0.83993 0.65707 0.55462 0.0
C3458 C 0.82427 0.64224 0.56397 0.0
C3459 C 0.82493 0.62555 0.56944 0.0
C3460 C 0.84114 0.62346 0.56555 0.0
C3461 C 0.85672 0.63806 0.55617 0.0
C3462 C 0.85615 0.65479 0.5507 0.0
H3463 H 0.8416 0.61051 0.56976 0.0
H3464 H 0.84853 0.77904 0.51758 0.0
loop_
_geom_bond_atom_site_label_1
_geom_bond_atom_site_label_2
_geom_bond_distance
_geom_bond_site_symmetry_2
_ccdc_geom_bond_type
P0 O11 1.490 . S
P0 C14 1.812 . S
P0 C20 1.803 . S
P0 C26 1.819 . S
H1 C15 0.941 . S
H2 C16 0.939 . S
H3 C18 0.940 . S
H4 C19 0.940 . S
H5 C21 0.939 . S
H6 C22 0.942 . S
H7 C24 0.940 . S
H8 C25 0.939 . S
H9 C27 0.941 . S
H10 C31 0.939 . S
O11 P0 1.490 . S
H12 C28 0.939 . S
H13 C30 0.940 . S
C14 P0 1.812 . S
C14 C15 1.389 . S
C14 C19 1.391 . S
C15 H1 0.941 . S
C15 C14 1.389 . S
C15 C16 1.397 . S
C16 H2 0.939 . S
C16 C15 1.397 . S
C16 C17 1.378 . S
C17 C16 1.378 . S
C17 C18 1.378 . S
C18 H3 0.940 . S
C18 C17 1.378 . S
C18 C19 1.396 . S
C19 H4 0.940 . S
C19 C14 1.391 . S
C19 C18 1.396 . S
C20 P0 1.803 . S
C20 C21 1.378 . S
C20 C25 1.400 . S
C21 H5 0.939 . S
C21 C20 1.378 . S
C21 C22 1.361 . S
C22 H6 0.942 . S
C22 C21 1.361 . S
C22 C23 1.369 . S
C23 C22 1.369 . S
C23 C24 1.404 . S
C24 H7 0.940 . S
C24 C23 1.404 . S
C24 C25 1.389 . S
C25 H8 0.939 . S
C25 C20 1.400 . S
C25 C24 1.389 . S
C26 P0 1.819 . S
C26 C27 1.391 . S
C26 C31 1.391 . S
C27 H9 0.941 . S
C27 C26 1.391 . S
C27 C28 1.396 . S
C28 H12 0.939 . S
C28 C27 1.396 . S
C28 C29 1.397 . S
C29 C28 1.397 . S
C29 C30 1.385 . S
C30 H13 0.940 . S
C30 C29 1.385 . S
C30 C31 1.388 . S
C31 H10 0.939 . S
C31 C26 1.391 . S
C31 C30 1.388 . S
P32 O43 1.490 . S
P32 C46 1.812 . S
P32 C52 1.803 . S
P32 C58 1.819 . S
H33 C47 0.941 . S
H34 C48 0.939 . S
H35 C50 0.940 . S
H36 C51 0.940 . S
H37 C53 0.939 . S
H38 C54 0.942 . S
H39 C56 0.940 . S
H40 C57 0.939 . S
H41 C59 0.941 . S
H42 C63 0.939 . S
O43 P32 1.490 . S
H44 C60 0.939 . S
H45 C62 0.940 . S
C46 P32 1.812 . S
C46 C47 1.389 . S
C46 C51 1.391 . S
C47 H33 0.941 . S
C47 C46 1.389 . S
C47 C48 1.397 . S
C48 H34 0.939 . S
C48 C47 1.397 . S
C48 C49 1.378 . S
C49 C48 1.378 . S
C49 C50 1.378 . S
C50 H35 0.940 . S
C50 C49 1.378 . S
C50 C51 1.396 . S
C51 H36 0.940 . S
C51 C46 1.391 . S
C51 C50 1.396 . S
C52 P32 1.803 . S
C52 C53 1.378 . S
C52 C57 1.400 . S
C53 H37 0.939 . S
C53 C52 1.378 . S
C53 C54 1.361 . S
C54 H38 0.942 . S
C54 C53 1.361 . S
C54 C55 1.369 . S
C55 C54 1.369 . S
C55 C56 1.404 . S
C56 H39 0.940 . S
C56 C55 1.404 . S
C56 C57 1.389 . S
C57 H40 0.939 . S
C57 C52 1.400 . S
C57 C56 1.389 . S
C58 P32 1.819 . S
C58 C59 1.391 . S
C58 C63 1.391 . S
C59 H41 0.941 . S
C59 C58 1.391 . S
C59 C60 1.396 . S
C60 H44 0.939 . S
C60 C59 1.396 . S
C60 C61 1.397 . S
C61 C60 1.397 . S
C61 C62 1.385 . S
C62 H45 0.940 . S
C62 C61 1.385 . S
C62 C63 1.388 . S
C63 H42 0.939 . S
C63 C58 1.391 . S
C63 C62 1.388 . S
P64 O75 1.490 . S
P64 C78 1.812 . S
P64 C84 1.803 . S
P64 C90 1.819 . S
H65 C79 0.941 . S
H66 C80 0.939 . S
H67 C82 0.940 . S
H68 C83 0.940 . S
H69 C85 0.939 . S
H70 C86 0.942 . S
H71 C88 0.940 . S
H72 C89 0.939 . S
H73 C91 0.941 . S
H74 C95 0.939 . S
O75 P64 1.490 . S
H76 C92 0.939 . S
H77 C94 0.940 . S
C78 P64 1.812 . S
C78 C79 1.389 . S
C78 C83 1.391 . S
C79 H65 0.941 . S
C79 C78 1.389 . S
C79 C80 1.397 . S
C80 H66 0.939 . S
C80 C79 1.397 . S
C80 C81 1.378 . S
C81 C80 1.378 . S
C81 C82 1.378 . S
C82 H67 0.940 . S
C82 C81 1.378 . S
C82 C83 1.396 . S
C83 H68 0.940 . S
C83 C78 1.391 . S
C83 C82 1.396 . S
C84 P64 1.803 . S
C84 C85 1.378 . S
C84 C89 1.400 . S
C85 H69 0.939 . S
C85 C84 1.378 . S
C85 C86 1.361 . S
C86 H70 0.942 . S
C86 C85 1.361 . S
C86 C87 1.369 . S
C87 C86 1.369 . S
C87 C88 1.404 . S
C88 H71 0.940 . S
C88 C87 1.404 . S
C88 C89 1.389 . S
C89 H72 0.939 . S
C89 C84 1.400 . S
C89 C88 1.389 . S
C90 P64 1.819 . S
C90 C91 1.391 . S
C90 C95 1.391 . S
C91 H73 0.941 . S
C91 C90 1.391 . S
C91 C92 1.396 . S
C92 H76 0.939 . S
C92 C91 1.396 . S
C92 C93 1.397 . S
C93 C92 1.397 . S
C93 C94 1.385 . S
C94 H77 0.940 . S
C94 C93 1.385 . S
C94 C95 1.388 . S
C95 H74 0.939 . S
C95 C90 1.391 . S
C95 C94 1.388 . S
P96 O107 1.490 . S
P96 C110 1.812 . S
P96 C116 1.803 . S
P96 C122 1.819 . S
H97 C111 0.941 . S
H98 C112 0.939 . S
H99 C114 0.940 . S
H100 C115 0.940 . S
H101 C117 0.939 . S
H102 C118 0.942 . S
H103 C120 0.940 . S
H104 C121 0.939 . S
H105 C123 0.941 . S
H106 C127 0.939 . S
O107 P96 1.490 . S
H108 C124 0.939 . S
H109 C126 0.940 . S
C110 P96 1.812 . S
C110 C111 1.389 . S
C110 C115 1.391 . S
C111 H97 0.941 . S
C111 C110 1.389 . S
C111 C112 1.397 . S
C112 H98 0.939 . S
C112 C111 1.397 . S
C112 C113 1.378 . S
C113 C112 1.378 . S
C113 C114 1.378 . S
C114 H99 0.940 . S
C114 C113 1.378 . S
C114 C115 1.396 . S
C115 H100 0.940 . S
C115 C110 1.391 . S
C115 C114 1.396 . S
C116 P96 1.803 . S
C116 C117 1.378 . S
C116 C121 1.400 . S
C117 H101 0.939 . S
C117 C116 1.378 . S
C117 C118 1.361 . S
C118 H102 0.942 . S
C118 C117 1.361 . S
C118 C119 1.369 . S
C119 C118 1.369 . S
C119 C120 1.404 . S
C120 H103 0.940 . S
C120 C119 1.404 . S
C120 C121 1.389 . S
C121 H104 0.939 . S
C121 C116 1.400 . S
C121 C120 1.389 . S
C122 P96 1.819 . S
C122 C123 1.391 . S
C122 C127 1.391 . S
C123 H105 0.941 . S
C123 C122 1.391 . S
C123 C124 1.396 . S
C124 H108 0.939 . S
C124 C123 1.396 . S
C124 C125 1.397 . S
C125 C124 1.397 . S
C125 C126 1.385 . S
C126 H109 0.940 . S
C126 C125 1.385 . S
C126 C127 1.388 . S
C127 H106 0.939 . S
C127 C122 1.391 . S
C127 C126 1.388 . S
P128 O139 1.490 . S
P128 C142 1.812 . S
P128 C148 1.803 . S
P128 C154 1.819 . S
H129 C143 0.941 . S
H130 C144 0.939 . S
H131 C146 0.940 . S
H132 C147 0.940 . S
H133 C149 0.939 . S
H134 C150 0.942 . S
H135 C152 0.940 . S
H136 C153 0.939 . S
H137 C155 0.941 . S
H138 C159 0.939 . S
O139 P128 1.490 . S
H140 C156 0.939 . S
H141 C158 0.940 . S
C142 P128 1.812 . S
C142 C143 1.389 . S
C142 C147 1.391 . S
C143 H129 0.941 . S
C143 C142 1.389 . S
C143 C144 1.397 . S
C144 H130 0.939 . S
C144 C143 1.397 . S
C144 C145 1.378 . S
C145 C144 1.378 . S
C145 C146 1.378 . S
C146 H131 0.940 . S
C146 C145 1.378 . S
C146 C147 1.396 . S
C147 H132 0.940 . S
C147 C142 1.391 . S
C147 C146 1.396 . S
C148 P128 1.803 . S
C148 C149 1.378 . S
C148 C153 1.400 . S
C149 H133 0.939 . S
C149 C148 1.378 . S
C149 C150 1.361 . S
C150 H134 0.942 . S
C150 C149 1.361 . S
C150 C151 1.369 . S
C151 C150 1.369 . S
C151 C152 1.404 . S
C152 H135 0.940 . S
C152 C151 1.404 . S
C152 C153 1.389 . S
C153 H136 0.939 . S
C153 C148 1.400 . S
C153 C152 1.389 . S
C154 P128 1.819 . S
C154 C155 1.391 . S
C154 C159 1.391 . S
C155 H137 0.941 . S
C155 C154 1.391 . S
C155 C156 1.396 . S
C156 H140 0.939 . S
C156 C155 1.396 . S
C156 C157 1.397 . S
C157 C156 1.397 . S
C157 C158 1.385 . S
C158 H141 0.940 . S
C158 C157 1.385 . S
C158 C159 1.388 . S
C159 H138 0.939 . S
C159 C154 1.391 . S
C159 C158 1.388 . S
P160 O171 1.490 . S
P160 C174 1.812 . S
P160 C180 1.803 . S
P160 C186 1.819 . S
H161 C175 0.941 . S
H162 C176 0.939 . S
H163 C178 0.940 . S
H164 C179 0.940 . S
H165 C181 0.939 . S
H166 C182 0.942 . S
H167 C184 0.940 . S
H168 C185 0.939 . S
H169 C187 0.941 . S
H170 C191 0.939 . S
O171 P160 1.490 . S
H172 C188 0.939 . S
H173 C190 0.940 . S
C174 P160 1.812 . S
C174 C175 1.389 . S
C174 C179 1.391 . S
C175 H161 0.941 . S
C175 C174 1.389 . S
C175 C176 1.397 . S
C176 H162 0.939 . S
C176 C175 1.397 . S
C176 C177 1.378 . S
C177 C176 1.378 . S
C177 C178 1.378 . S
C178 H163 0.940 . S
C178 C177 1.378 . S
C178 C179 1.396 . S
C179 H164 0.940 . S
C179 C174 1.391 . S
C179 C178 1.396 . S
C180 P160 1.803 . S
C180 C181 1.378 . S
C180 C185 1.400 . S
C181 H165 0.939 . S
C181 C180 1.378 . S
C181 C182 1.361 . S
C182 H166 0.942 . S
C182 C181 1.361 . S
C182 C183 1.369 . S
C183 C182 1.369 . S
C183 C184 1.404 . S
C184 H167 0.940 . S
C184 C183 1.404 . S
C184 C185 1.389 . S
C185 H168 0.939 . S
C185 C180 1.400 . S
C185 C184 1.389 . S
C186 P160 1.819 . S
C186 C187 1.391 . S
C186 C191 1.391 . S
C187 H169 0.941 . S
C187 C186 1.391 . S
C187 C188 1.396 . S
C188 H172 0.939 . S
C188 C187 1.396 . S
C188 C189 1.397 . S
C189 C188 1.397 . S
C189 C190 1.385 . S
C190 H173 0.940 . S
C190 C189 1.385 . S
C190 C191 1.388 . S
C191 H170 0.939 . S
C191 C186 1.391 . S
C191 C190 1.388 . S
P192 O203 1.490 . S
P192 C206 1.812 . S
P192 C212 1.803 . S
P192 C218 1.819 . S
H193 C207 0.941 . S
H194 C208 0.939 . S
H195 C210 0.940 . S
H196 C211 0.940 . S
H197 C213 0.939 . S
H198 C214 0.942 . S
H199 C216 0.940 . S
H200 C217 0.939 . S
H201 C219 0.941 . S
H202 C223 0.939 . S
O203 P192 1.490 . S
H204 C220 0.939 . S
H205 C222 0.940 . S
C206 P192 1.812 . S
C206 C207 1.389 . S
C206 C211 1.391 . S
C207 H193 0.941 . S
C207 C206 1.389 . S
C207 C208 1.397 . S
C208 H194 0.939 . S
C208 C207 1.397 . S
C208 C209 1.378 . S
C209 C208 1.378 . S
C209 C210 1.378 . S
C210 H195 0.940 . S
C210 C209 1.378 . S
C210 C211 1.396 . S
C211 H196 0.940 . S
C211 C206 1.391 . S
C211 C210 1.396 . S
C212 P192 1.803 . S
C212 C213 1.378 . S
C212 C217 1.400 . S
C213 H197 0.939 . S
C213 C212 1.378 . S
C213 C214 1.361 . S
C214 H198 0.942 . S
C214 C213 1.361 . S
C214 C215 1.369 . S
C215 C214 1.369 . S
C215 C216 1.404 . S
C216 H199 0.940 . S
C216 C215 1.404 . S
C216 C217 1.389 . S
C217 H200 0.939 . S
C217 C212 1.400 . S
C217 C216 1.389 . S
C218 P192 1.819 . S
C218 C219 1.391 . S
C218 C223 1.391 . S
C219 H201 0.941 . S
C219 C218 1.391 . S
C219 C220 1.396 . S
C220 H204 0.939 . S
C220 C219 1.396 . S
C220 C221 1.397 . S
C221 C220 1.397 . S
C221 C222 1.385 . S
C222 H205 0.940 . S
C222 C221 1.385 . S
C222 C223 1.388 . S
C223 H202 0.939 . S
C223 C218 1.391 . S
C223 C222 1.388 . S
P224 O235 1.490 . S
P224 C238 1.812 . S
P224 C244 1.803 . S
P224 C250 1.819 . S
H225 C239 0.941 . S
H226 C240 0.939 . S
H227 C242 0.940 . S
H228 C243 0.940 . S
H229 C245 0.939 . S
H230 C246 0.942 . S
H231 C248 0.940 . S
H232 C249 0.939 . S
H233 C251 0.941 . S
H234 C255 0.939 . S
O235 P224 1.490 . S
H236 C252 0.939 . S
H237 C254 0.940 . S
C238 P224 1.812 . S
C238 C239 1.389 . S
C238 C243 1.391 . S
C239 H225 0.941 . S
C239 C238 1.389 . S
C239 C240 1.397 . S
C240 H226 0.939 . S
C240 C239 1.397 . S
C240 C241 1.378 . S
C241 C240 1.378 . S
C241 C242 1.378 . S
C242 H227 0.940 . S
C242 C241 1.378 . S
C242 C243 1.396 . S
C243 H228 0.940 . S
C243 C238 1.391 . S
C243 C242 1.396 . S
C244 P224 1.803 . S
C244 C245 1.378 . S
C244 C249 1.400 . S
C245 H229 0.939 . S
C245 C244 1.378 . S
C245 C246 1.361 . S
C246 H230 0.942 . S
C246 C245 1.361 . S
C246 C247 1.369 . S
C247 C246 1.369 . S
C247 C248 1.404 . S
C248 H231 0.940 . S
C248 C247 1.404 . S
C248 C249 1.389 . S
C249 H232 0.939 . S
C249 C244 1.400 . S
C249 C248 1.389 . S
C250 P224 1.819 . S
C250 C251 1.391 . S
C250 C255 1.391 . S
C251 H233 0.941 . S
C251 C250 1.391 . S
C251 C252 1.396 . S
C252 H236 0.939 . S
C252 C251 1.396 . S
C252 C253 1.397 . S
C253 C252 1.397 . S
C253 C254 1.385 . S
C254 H237 0.940 . S
C254 C253 1.385 . S
C254 C255 1.388 . S
C255 H234 0.939 . S
C255 C250 1.391 . S
C255 C254 1.388 . S
P256 O267 1.490 . S
P256 C270 1.812 . S
P256 C276 1.803 . S
P256 C282 1.819 . S
H257 C271 0.941 . S
H258 C272 0.939 . S
H259 C274 0.940 . S
H260 C275 0.940 . S
H261 C277 0.939 . S
H262 C278 0.942 . S
H263 C280 0.940 . S
H264 C281 0.939 . S
H265 C283 0.941 . S
H266 C287 0.939 . S
O267 P256 1.490 . S
H268 C284 0.939 . S
H269 C286 0.940 . S
C270 P256 1.812 . S
C270 C271 1.389 . S
C270 C275 1.391 . S
C271 H257 0.941 . S
C271 C270 1.389 . S
C271 C272 1.397 . S
C272 H258 0.939 . S
C272 C271 1.397 . S
C272 C273 1.378 . S
C273 C272 1.378 . S
C273 C274 1.378 . S
C274 H259 0.940 . S
C274 C273 1.378 . S
C274 C275 1.396 . S
C275 H260 0.940 . S
C275 C270 1.391 . S
C275 C274 1.396 . S
C276 P256 1.803 . S
C276 C277 1.378 . S
C276 C281 1.400 . S
C277 H261 0.939 . S
C277 C276 1.378 . S
C277 C278 1.361 . S
C278 H262 0.942 . S
C278 C277 1.361 . S
C278 C279 1.369 . S
C279 C278 1.369 . S
C279 C280 1.404 . S
C280 H263 0.940 . S
C280 C279 1.404 . S
C280 C281 1.389 . S
C281 H264 0.939 . S
C281 C276 1.400 . S
C281 C280 1.389 . S
C282 P256 1.819 . S
C282 C283 1.391 . S
C282 C287 1.391 . S
C283 H265 0.941 . S
C283 C282 1.391 . S
C283 C284 1.396 . S
C284 H268 0.939 . S
C284 C283 1.396 . S
C284 C285 1.397 . S
C285 C284 1.397 . S
C285 C286 1.385 . S
C286 H269 0.940 . S
C286 C285 1.385 . S
C286 C287 1.388 . S
C287 H266 0.939 . S
C287 C282 1.391 . S
C287 C286 1.388 . S
P288 O299 1.490 . S
P288 C302 1.812 . S
P288 C308 1.803 . S
P288 C314 1.819 . S
H289 C303 0.941 . S
H290 C304 0.939 . S
H291 C306 0.940 . S
H292 C307 0.940 . S
H293 C309 0.939 . S
H294 C310 0.942 . S
H295 C312 0.940 . S
H296 C313 0.939 . S
H297 C315 0.941 . S
H298 C319 0.939 . S
O299 P288 1.490 . S
H300 C316 0.939 . S
H301 C318 0.940 . S
C302 P288 1.812 . S
C302 C303 1.389 . S
C302 C307 1.391 . S
C303 H289 0.941 . S
C303 C302 1.389 . S
C303 C304 1.397 . S
C304 H290 0.939 . S
C304 C303 1.397 . S
C304 C305 1.378 . S
C305 C304 1.378 . S
C305 C306 1.378 . S
C306 H291 0.940 . S
C306 C305 1.378 . S
C306 C307 1.396 . S
C307 H292 0.940 . S
C307 C302 1.391 . S
C307 C306 1.396 . S
C308 P288 1.803 . S
C308 C309 1.378 . S
C308 C313 1.400 . S
C309 H293 0.939 . S
C309 C308 1.378 . S
C309 C310 1.361 . S
C310 H294 0.942 . S
C310 C309 1.361 . S
C310 C311 1.369 . S
C311 C310 1.369 . S
C311 C312 1.404 . S
C312 H295 0.940 . S
C312 C311 1.404 . S
C312 C313 1.389 . S
C313 H296 0.939 . S
C313 C308 1.400 . S
C313 C312 1.389 . S
C314 P288 1.819 . S
C314 C315 1.391 . S
C314 C319 1.391 . S
C315 H297 0.941 . S
C315 C314 1.391 . S
C315 C316 1.396 . S
C316 H300 0.939 . S
C316 C315 1.396 . S
C316 C317 1.397 . S
C317 C316 1.397 . S
C317 C318 1.385 . S
C318 H301 0.940 . S
C318 C317 1.385 . S
C318 C319 1.388 . S
C319 H298 0.939 . S
C319 C314 1.391 . S
C319 C318 1.388 . S
P320 O331 1.490 . S
P320 C334 1.812 . S
P320 C340 1.803 . S
P320 C346 1.819 . S
H321 C335 0.941 . S
H322 C336 0.939 . S
H323 C338 0.940 . S
H324 C339 0.940 . S
H325 C341 0.939 . S
H326 C342 0.942 . S
H327 C344 0.940 . S
H328 C345 0.939 . S
H329 C347 0.941 . S
H330 C351 0.939 . S
O331 P320 1.490 . S
H332 C348 0.939 . S
H333 C350 0.940 . S
C334 P320 1.812 . S
C334 C335 1.389 . S
C334 C339 1.391 . S
C335 H321 0.941 . S
C335 C334 1.389 . S
C335 C336 1.397 . S
C336 H322 0.939 . S
C336 C335 1.397 . S
C336 C337 1.378 . S
C337 C336 1.378 . S
C337 C338 1.378 . S
C338 H323 0.940 . S
C338 C337 1.378 . S
C338 C339 1.396 . S
C339 H324 0.940 . S
C339 C334 1.391 . S
C339 C338 1.396 . S
C340 P320 1.803 . S
C340 C341 1.378 . S
C340 C345 1.400 . S
C341 H325 0.939 . S
C341 C340 1.378 . S
C341 C342 1.361 . S
C342 H326 0.942 . S
C342 C341 1.361 . S
C342 C343 1.369 . S
C343 C342 1.369 . S
C343 C344 1.404 . S
C344 H327 0.940 . S
C344 C343 1.404 . S
C344 C345 1.389 . S
C345 H328 0.939 . S
C345 C340 1.400 . S
C345 C344 1.389 . S
C346 P320 1.819 . S
C346 C347 1.391 . S
C346 C351 1.391 . S
C347 H329 0.941 . S
C347 C346 1.391 . S
C347 C348 1.396 . S
C348 H332 0.939 . S
C348 C347 1.396 . S
C348 C349 1.397 . S
C349 C348 1.397 . S
C349 C350 1.385 . S
C350 H333 0.940 . S
C350 C349 1.385 . S
C350 C351 1.388 . S
C351 H330 0.939 . S
C351 C346 1.391 . S
C351 C350 1.388 . S
P352 O363 1.490 . S
P352 C366 1.812 . S
P352 C372 1.803 . S
P352 C378 1.819 . S
H353 C367 0.941 . S
H354 C368 0.939 . S
H355 C370 0.940 . S
H356 C371 0.940 . S
H357 C373 0.939 . S
H358 C374 0.942 . S
H359 C376 0.940 . S
H360 C377 0.939 . S
H361 C379 0.941 . S
H362 C383 0.939 . S
O363 P352 1.490 . S
H364 C380 0.939 . S
H365 C382 0.940 . S
C366 P352 1.812 . S
C366 C367 1.389 . S
C366 C371 1.391 . S
C367 H353 0.941 . S
C367 C366 1.389 . S
C367 C368 1.397 . S
C368 H354 0.939 . S
C368 C367 1.397 . S
C368 C369 1.378 . S
C369 C368 1.378 . S
C369 C370 1.378 . S
C370 H355 0.940 . S
C370 C369 1.378 . S
C370 C371 1.396 . S
C371 H356 0.940 . S
C371 C366 1.391 . S
C371 C370 1.396 . S
C372 P352 1.803 . S
C372 C373 1.378 . S
C372 C377 1.400 . S
C373 H357 0.939 . S
C373 C372 1.378 . S
C373 C374 1.361 . S
C374 H358 0.942 . S
C374 C373 1.361 . S
C374 C375 1.369 . S
C375 C374 1.369 . S
C375 C376 1.404 . S
C376 H359 0.940 . S
C376 C375 1.404 . S
C376 C377 1.389 . S
C377 H360 0.939 . S
C377 C372 1.400 . S
C377 C376 1.389 . S
C378 P352 1.819 . S
C378 C379 1.391 . S
C378 C383 1.391 . S
C379 H361 0.941 . S
C379 C378 1.391 . S
C379 C380 1.396 . S
C380 H364 0.939 . S
C380 C379 1.396 . S
C380 C381 1.397 . S
C381 C380 1.397 . S
C381 C382 1.385 . S
C382 H365 0.940 . S
C382 C381 1.385 . S
C382 C383 1.388 . S
C383 H362 0.939 . S
C383 C378 1.391 . S
C383 C382 1.388 . S
P384 O395 1.490 . S
P384 C398 1.812 . S
P384 C404 1.803 . S
P384 C410 1.819 . S
H385 C399 0.941 . S
H386 C400 0.939 . S
H387 C402 0.940 . S
H388 C403 0.940 . S
H389 C405 0.939 . S
H390 C406 0.942 . S
H391 C408 0.940 . S
H392 C409 0.939 . S
H393 C411 0.941 . S
H394 C415 0.939 . S
O395 P384 1.490 . S
H396 C412 0.939 . S
H397 C414 0.940 . S
C398 P384 1.812 . S
C398 C399 1.389 . S
C398 C403 1.391 . S
C399 H385 0.941 . S
C399 C398 1.389 . S
C399 C400 1.397 . S
C400 H386 0.939 . S
C400 C399 1.397 . S
C400 C401 1.378 . S
C401 C400 1.378 . S
C401 C402 1.378 . S
C402 H387 0.940 . S
C402 C401 1.378 . S
C402 C403 1.396 . S
C403 H388 0.940 . S
C403 C398 1.391 . S
C403 C402 1.396 . S
C404 P384 1.803 . S
C404 C405 1.378 . S
C404 C409 1.400 . S
C405 H389 0.939 . S
C405 C404 1.378 . S
C405 C406 1.361 . S
C406 H390 0.942 . S
C406 C405 1.361 . S
C406 C407 1.369 . S
C407 C406 1.369 . S
C407 C408 1.404 . S
C408 H391 0.940 . S
C408 C407 1.404 . S
C408 C409 1.389 . S
C409 H392 0.939 . S
C409 C404 1.400 . S
C409 C408 1.389 . S
C410 P384 1.819 . S
C410 C411 1.391 . S
C410 C415 1.391 . S
C411 H393 0.941 . S
C411 C410 1.391 . S
C411 C412 1.396 . S
C412 H396 0.939 . S
C412 C411 1.396 . S
C412 C413 1.397 . S
C413 C412 1.397 . S
C413 C414 1.385 . S
C414 H397 0.940 . S
C414 C413 1.385 . S
C414 C415 1.388 . S
C415 H394 0.939 . S
C415 C410 1.391 . S
C415 C414 1.388 . S
P416 O427 1.490 . S
P416 C430 1.812 . S
P416 C436 1.803 . S
P416 C442 1.819 . S
H417 C431 0.941 . S
H418 C432 0.939 . S
H419 C434 0.940 . S
H420 C435 0.940 . S
H421 C437 0.939 . S
H422 C438 0.942 . S
H423 C440 0.940 . S
H424 C441 0.939 . S
H425 C443 0.941 . S
H426 C447 0.939 . S
O427 P416 1.490 . S
H428 C444 0.939 . S
H429 C446 0.940 . S
C430 P416 1.812 . S
C430 C431 1.389 . S
C430 C435 1.391 . S
C431 H417 0.941 . S
C431 C430 1.389 . S
C431 C432 1.397 . S
C432 H418 0.939 . S
C432 C431 1.397 . S
C432 C433 1.378 . S
C433 C432 1.378 . S
C433 C434 1.378 . S
C434 H419 0.940 . S
C434 C433 1.378 . S
C434 C435 1.396 . S
C435 H420 0.940 . S
C435 C430 1.391 . S
C435 C434 1.396 . S
C436 P416 1.803 . S
C436 C437 1.378 . S
C436 C441 1.400 . S
C437 H421 0.939 . S
C437 C436 1.378 . S
C437 C438 1.361 . S
C438 H422 0.942 . S
C438 C437 1.361 . S
C438 C439 1.369 . S
C439 C438 1.369 . S
C439 C440 1.404 . S
C440 H423 0.940 . S
C440 C439 1.404 . S
C440 C441 1.389 . S
C441 H424 0.939 . S
C441 C436 1.400 . S
C441 C440 1.389 . S
C442 P416 1.819 . S
C442 C443 1.391 . S
C442 C447 1.391 . S
C443 H425 0.941 . S
C443 C442 1.391 . S
C443 C444 1.396 . S
C444 H428 0.939 . S
C444 C443 1.396 . S
C444 C445 1.397 . S
C445 C444 1.397 . S
C445 C446 1.385 . S
C446 H429 0.940 . S
C446 C445 1.385 . S
C446 C447 1.388 . S
C447 H426 0.939 . S
C447 C442 1.391 . S
C447 C446 1.388 . S
P448 O459 1.490 . S
P448 C462 1.812 . S
P448 C468 1.803 . S
P448 C474 1.819 . S
H449 C463 0.941 . S
H450 C464 0.939 . S
H451 C466 0.940 . S
H452 C467 0.940 . S
H453 C469 0.939 . S
H454 C470 0.942 . S
H455 C472 0.940 . S
H456 C473 0.939 . S
H457 C475 0.941 . S
H458 C479 0.939 . S
O459 P448 1.490 . S
H460 C476 0.939 . S
H461 C478 0.940 . S
C462 P448 1.812 . S
C462 C463 1.389 . S
C462 C467 1.391 . S
C463 H449 0.941 . S
C463 C462 1.389 . S
C463 C464 1.397 . S
C464 H450 0.939 . S
C464 C463 1.397 . S
C464 C465 1.378 . S
C465 C464 1.378 . S
C465 C466 1.378 . S
C466 H451 0.940 . S
C466 C465 1.378 . S
C466 C467 1.396 . S
C467 H452 0.940 . S
C467 C462 1.391 . S
C467 C466 1.396 . S
C468 P448 1.803 . S
C468 C469 1.378 . S
C468 C473 1.400 . S
C469 H453 0.939 . S
C469 C468 1.378 . S
C469 C470 1.361 . S
C470 H454 0.942 . S
C470 C469 1.361 . S
C470 C471 1.369 . S
C471 C470 1.369 . S
C471 C472 1.404 . S
C472 H455 0.940 . S
C472 C471 1.404 . S
C472 C473 1.389 . S
C473 H456 0.939 . S
C473 C468 1.400 . S
C473 C472 1.389 . S
C474 P448 1.819 . S
C474 C475 1.391 . S
C474 C479 1.391 . S
C475 H457 0.941 . S
C475 C474 1.391 . S
C475 C476 1.396 . S
C476 H460 0.939 . S
C476 C475 1.396 . S
C476 C477 1.397 . S
C477 C476 1.397 . S
C477 C478 1.385 . S
C478 H461 0.940 . S
C478 C477 1.385 . S
C478 C479 1.388 . S
C479 H458 0.939 . S
C479 C474 1.391 . S
C479 C478 1.388 . S
P480 O491 1.490 . S
P480 C494 1.812 . S
P480 C500 1.803 . S
P480 C506 1.819 . S
H481 C495 0.941 . S
H482 C496 0.939 . S
H483 C498 0.940 . S
H484 C499 0.940 . S
H485 C501 0.939 . S
H486 C502 0.942 . S
H487 C504 0.940 . S
H488 C505 0.939 . S
H489 C507 0.941 . S
H490 C511 0.939 . S
O491 P480 1.490 . S
H492 C508 0.939 . S
H493 C510 0.940 . S
C494 P480 1.812 . S
C494 C495 1.389 . S
C494 C499 1.391 . S
C495 H481 0.941 . S
C495 C494 1.389 . S
C495 C496 1.397 . S
C496 H482 0.939 . S
C496 C495 1.397 . S
C496 C497 1.378 . S
C497 C496 1.378 . S
C497 C498 1.378 . S
C498 H483 0.940 . S
C498 C497 1.378 . S
C498 C499 1.396 . S
C499 H484 0.940 . S
C499 C494 1.391 . S
C499 C498 1.396 . S
C500 P480 1.803 . S
C500 C501 1.378 . S
C500 C505 1.400 . S
C501 H485 0.939 . S
C501 C500 1.378 . S
C501 C502 1.361 . S
C502 H486 0.942 . S
C502 C501 1.361 . S
C502 C503 1.369 . S
C503 C502 1.369 . S
C503 C504 1.404 . S
C504 H487 0.940 . S
C504 C503 1.404 . S
C504 C505 1.389 . S
C505 H488 0.939 . S
C505 C500 1.400 . S
C505 C504 1.389 . S
C506 P480 1.819 . S
C506 C507 1.391 . S
C506 C511 1.391 . S
C507 H489 0.941 . S
C507 C506 1.391 . S
C507 C508 1.396 . S
C508 H492 0.939 . S
C508 C507 1.396 . S
C508 C509 1.397 . S
C509 C508 1.397 . S
C509 C510 1.385 . S
C510 H493 0.940 . S
C510 C509 1.385 . S
C510 C511 1.388 . S
C511 H490 0.939 . S
C511 C506 1.391 . S
C511 C510 1.388 . S
P512 O523 1.490 . S
P512 C526 1.812 . S
P512 C532 1.803 . S
P512 C538 1.819 . S
H513 C527 0.941 . S
H514 C528 0.939 . S
H515 C530 0.940 . S
H516 C531 0.940 . S
H517 C533 0.939 . S
H518 C534 0.942 . S
H519 C536 0.940 . S
H520 C537 0.939 . S
H521 C539 0.941 . S
H522 C543 0.939 . S
O523 P512 1.490 . S
H524 C540 0.939 . S
H525 C542 0.940 . S
C526 P512 1.812 . S
C526 C527 1.389 . S
C526 C531 1.391 . S
C527 H513 0.941 . S
C527 C526 1.389 . S
C527 C528 1.397 . S
C528 H514 0.939 . S
C528 C527 1.397 . S
C528 C529 1.378 . S
C529 C528 1.378 . S
C529 C530 1.378 . S
C530 H515 0.940 . S
C530 C529 1.378 . S
C530 C531 1.396 . S
C531 H516 0.940 . S
C531 C526 1.391 . S
C531 C530 1.396 . S
C532 P512 1.803 . S
C532 C533 1.378 . S
C532 C537 1.400 . S
C533 H517 0.939 . S
C533 C532 1.378 . S
C533 C534 1.361 . S
C534 H518 0.942 . S
C534 C533 1.361 . S
C534 C535 1.369 . S
C535 C534 1.369 . S
C535 C536 1.404 . S
C536 H519 0.940 . S
C536 C535 1.404 . S
C536 C537 1.389 . S
C537 H520 0.939 . S
C537 C532 1.400 . S
C537 C536 1.389 . S
C538 P512 1.819 . S
C538 C539 1.391 . S
C538 C543 1.391 . S
C539 H521 0.941 . S
C539 C538 1.391 . S
C539 C540 1.396 . S
C540 H524 0.939 . S
C540 C539 1.396 . S
C540 C541 1.397 . S
C541 C540 1.397 . S
C541 C542 1.385 . S
C542 H525 0.940 . S
C542 C541 1.385 . S
C542 C543 1.388 . S
C543 H522 0.939 . S
C543 C538 1.391 . S
C543 C542 1.388 . S
P544 O555 1.490 . S
P544 C558 1.812 . S
P544 C564 1.803 . S
P544 C570 1.819 . S
H545 C559 0.941 . S
H546 C560 0.939 . S
H547 C562 0.940 . S
H548 C563 0.940 . S
H549 C565 0.939 . S
H550 C566 0.942 . S
H551 C568 0.940 . S
H552 C569 0.939 . S
H553 C571 0.941 . S
H554 C575 0.939 . S
O555 P544 1.490 . S
H556 C572 0.939 . S
H557 C574 0.940 . S
C558 P544 1.812 . S
C558 C559 1.389 . S
C558 C563 1.391 . S
C559 H545 0.941 . S
C559 C558 1.389 . S
C559 C560 1.397 . S
C560 H546 0.939 . S
C560 C559 1.397 . S
C560 C561 1.378 . S
C561 C560 1.378 . S
C561 C562 1.378 . S
C562 H547 0.940 . S
C562 C561 1.378 . S
C562 C563 1.396 . S
C563 H548 0.940 . S
C563 C558 1.391 . S
C563 C562 1.396 . S
C564 P544 1.803 . S
C564 C565 1.378 . S
C564 C569 1.400 . S
C565 H549 0.939 . S
C565 C564 1.378 . S
C565 C566 1.361 . S
C566 H550 0.942 . S
C566 C565 1.361 . S
C566 C567 1.369 . S
C567 C566 1.369 . S
C567 C568 1.404 . S
C568 H551 0.940 . S
C568 C567 1.404 . S
C568 C569 1.389 . S
C569 H552 0.939 . S
C569 C564 1.400 . S
C569 C568 1.389 . S
C570 P544 1.819 . S
C570 C571 1.391 . S
C570 C575 1.391 . S
C571 H553 0.941 . S
C571 C570 1.391 . S
C571 C572 1.396 . S
C572 H556 0.939 . S
C572 C571 1.396 . S
C572 C573 1.397 . S
C573 C572 1.397 . S
C573 C574 1.385 . S
C574 H557 0.940 . S
C574 C573 1.385 . S
C574 C575 1.388 . S
C575 H554 0.939 . S
C575 C570 1.391 . S
C575 C574 1.388 . S
O576 Mn577 2.163 1_565 S
O576 C590 1.244 . S
Mn577 O576 2.163 1_545 S
Mn577 O580 2.160 . S
Mn577 O581 2.221 1_545 S
Mn577 O583 2.163 1_554 S
Mn577 O585 2.160 . S
Mn577 O595 2.221 . S
O578 Mn579 2.087 1_565 S
O578 C590 1.256 . S
Mn579 O578 2.087 1_545 S
Mn579 O586 2.089 . S
Mn579 O595 2.290 . S
Mn579 O596 2.251 . S
O580 Mn577 2.160 . S
O580 C591 1.239 1_554 S
O581 Mn577 2.221 1_565 S
O581 Mn582 2.290 1_554 S
O581 C592 1.278 . S
Mn582 O581 2.290 1_556 S
Mn582 O584 2.089 1_565 S
Mn582 O587 2.251 . S
Mn582 O588 2.087 . S
O583 Mn577 2.163 1_556 S
O583 C593 1.244 . S
O584 Mn582 2.089 1_545 S
O584 C591 1.256 . S
O585 Mn577 2.160 . S
O585 C594 1.239 . S
O586 Mn579 2.089 . S
O586 C594 1.256 . S
O587 Mn582 2.251 . S
O587 C592 1.241 1_556 S
O588 Mn582 2.087 . S
O588 C593 1.256 1_565 S
C589 O595 1.278 . S
C589 O596 1.241 . S
C590 O576 1.244 . S
C590 O578 1.256 . S
C591 O580 1.239 1_556 S
C591 O584 1.256 . S
C592 O581 1.278 . S
C592 O587 1.241 1_554 S
C593 O583 1.244 . S
C593 O588 1.256 1_545 S
C594 O585 1.239 . S
C594 O586 1.256 . S
O595 Mn577 2.221 . S
O595 Mn579 2.290 . S
O595 C589 1.278 . S
O596 Mn579 2.251 . S
O596 C589 1.241 . S
O597 Mn598 2.121 1_455 S
O597 C611 1.244 . S
Mn598 O597 2.121 1_655 S
Mn598 O601 2.201 . S
Mn598 O602 2.217 1_655 S
Mn598 O604 2.163 1_554 S
Mn598 O606 2.160 . S
Mn598 O616 2.228 . S
O599 Mn600 2.087 1_455 S
O599 C611 1.256 . S
Mn600 O599 2.087 1_655 S
Mn600 O607 2.089 1_655 S
Mn600 O616 2.290 . S
Mn600 O617 2.251 . S
O601 Mn598 2.201 . S
O601 C612 1.210 1_554 S
O602 Mn598 2.217 1_455 S
O602 Mn603 2.290 1_554 S
O602 C613 1.278 . S
Mn603 O602 2.290 1_556 S
Mn603 O605 2.089 1_455 S
Mn603 O608 2.251 . S
Mn603 O609 2.087 . S
O604 Mn598 2.163 1_556 S
O604 C614 1.241 . S
O605 Mn603 2.089 1_655 S
O605 C612 1.293 . S
O606 Mn598 2.160 . S
O606 C615 1.227 1_655 S
O607 Mn600 2.089 1_455 S
O607 C615 1.256 . S
O608 Mn603 2.251 . S
O608 C613 1.241 1_556 S
O609 Mn603 2.087 . S
O609 C614 1.258 1_455 S
C610 O616 1.278 . S
C610 O617 1.241 . S
C611 O597 1.244 . S
C611 O599 1.256 . S
C612 O601 1.210 1_556 S
C612 O605 1.293 . S
C613 O602 1.278 . S
C613 O608 1.241 1_554 S
C614 O604 1.241 . S
C614 O609 1.258 1_655 S
C615 O606 1.227 1_455 S
C615 O607 1.256 . S
O616 Mn598 2.228 . S
O616 Mn600 2.290 . S
O616 C610 1.278 . S
O617 Mn600 2.251 . S
O617 C610 1.241 . S
O618 Mn619 2.163 1_556 S
O618 C632 1.244 . S
Mn619 O618 2.163 1_554 S
Mn619 O622 2.160 . S
Mn619 O623 2.221 . S
Mn619 O625 2.163 . S
Mn619 O627 2.160 1_554 S
Mn619 O637 2.221 1_554 S
O620 Mn621 2.087 . S
O620 C632 1.256 . S
Mn621 O620 2.087 . S
Mn621 O628 2.089 . S
Mn621 O637 2.290 . S
Mn621 O638 2.251 1_556 S
O622 Mn619 2.160 . S
O622 C633 1.239 . S
O623 Mn619 2.221 . S
O623 Mn624 2.290 . S
O623 C634 1.278 . S
Mn624 O623 2.290 . S
Mn624 O626 2.089 . S
Mn624 O629 2.251 . S
Mn624 O630 2.087 . S
O625 Mn619 2.163 . S
O625 C635 1.244 . S
O626 Mn624 2.089 . S
O626 C633 1.256 . S
O627 Mn619 2.160 1_556 S
O627 C636 1.239 . S
O628 Mn621 2.089 . S
O628 C636 1.256 . S
O629 Mn624 2.251 . S
O629 C634 1.241 . S
O630 Mn624 2.087 . S
O630 C635 1.256 . S
C631 O637 1.278 1_554 S
C631 O638 1.241 . S
C632 O618 1.244 . S
C632 O620 1.256 . S
C633 O622 1.239 . S
C633 O626 1.256 . S
C634 O623 1.278 . S
C634 O629 1.241 . S
C635 O625 1.244 . S
C635 O630 1.256 . S
C636 O627 1.239 . S
C636 O628 1.256 . S
O637 Mn619 2.221 1_556 S
O637 Mn621 2.290 . S
O637 C631 1.278 1_556 S
O638 Mn621 2.251 1_554 S
O638 C631 1.241 . S
O639 Mn640 2.163 . S
O639 C653 1.244 . S
Mn640 O639 2.163 . S
Mn640 O643 2.160 . S
Mn640 O644 2.221 . S
Mn640 O646 2.163 . S
Mn640 O648 2.160 . S
Mn640 O658 2.221 . S
O641 Mn642 2.087 . S
O641 C653 1.256 . S
Mn642 O641 2.087 . S
Mn642 O649 2.089 . S
Mn642 O658 2.290 . S
Mn642 O659 2.251 . S
O643 Mn640 2.160 . S
O643 C654 1.239 . S
O644 Mn640 2.221 . S
O644 Mn645 2.290 . S
O644 C655 1.278 . S
Mn645 O644 2.290 . S
Mn645 O647 2.089 . S
Mn645 O650 2.251 . S
Mn645 O651 2.087 . S
O646 Mn640 2.163 . S
O646 C656 1.244 . S
O647 Mn645 2.089 . S
O647 C654 1.256 . S
O648 Mn640 2.160 . S
O648 C657 1.239 . S
O649 Mn642 2.089 . S
O649 C657 1.256 . S
O650 Mn645 2.251 . S
O650 C655 1.241 . S
O651 Mn645 2.087 . S
O651 C656 1.256 . S
C652 O658 1.278 . S
C652 O659 1.241 . S
C653 O639 1.244 . S
C653 O641 1.256 . S
C654 O643 1.239 . S
C654 O647 1.256 . S
C655 O644 1.278 . S
C655 O650 1.241 . S
C656 O646 1.244 . S
C656 O651 1.256 . S
C657 O648 1.239 . S
C657 O649 1.256 . S
O658 Mn640 2.221 . S
O658 Mn642 2.290 . S
O658 C652 1.278 . S
O659 Mn642 2.251 . S
O659 C652 1.241 . S
O660 Mn661 2.163 . S
O660 C674 1.244 . S
Mn661 O660 2.163 . S
Mn661 O664 2.160 . S
Mn661 O665 2.221 . S
Mn661 O667 2.163 . S
Mn661 O669 2.160 . S
Mn661 O679 2.221 . S
O662 Mn663 2.087 . S
O662 C674 1.256 . S
Mn663 O662 2.087 . S
Mn663 O670 2.089 . S
Mn663 O679 2.290 . S
Mn663 O680 2.251 . S
O664 Mn661 2.160 . S
O664 C675 1.239 . S
O665 Mn661 2.221 . S
O665 Mn666 2.290 . S
O665 C676 1.278 . S
Mn666 O665 2.290 . S
Mn666 O668 2.089 . S
Mn666 O671 2.251 . S
Mn666 O672 2.087 . S
O667 Mn661 2.163 . S
O667 C677 1.244 . S
O668 Mn666 2.089 . S
O668 C675 1.256 . S
O669 Mn661 2.160 . S
O669 C678 1.239 . S
O670 Mn663 2.089 . S
O670 C678 1.256 . S
O671 Mn666 2.251 . S
O671 C676 1.241 . S
O672 Mn666 2.087 . S
O672 C677 1.256 . S
C673 O679 1.278 . S
C673 O680 1.241 . S
C674 O660 1.244 . S
C674 O662 1.256 . S
C675 O664 1.239 . S
C675 O668 1.256 . S
C676 O665 1.278 . S
C676 O671 1.241 . S
C677 O667 1.244 . S
C677 O672 1.256 . S
C678 O669 1.239 . S
C678 O670 1.256 . S
O679 Mn661 2.221 . S
O679 Mn663 2.290 . S
O679 C673 1.278 . S
O680 Mn663 2.251 . S
O680 C673 1.241 . S
O681 Mn682 2.163 . S
O681 C695 1.244 . S
Mn682 O681 2.163 . S
Mn682 O685 2.160 . S
Mn682 O686 2.221 . S
Mn682 O688 2.163 . S
Mn682 O690 2.160 . S
Mn682 O700 2.221 . S
O683 Mn684 2.087 . S
O683 C695 1.256 . S
Mn684 O683 2.087 . S
Mn684 O691 2.089 . S
Mn684 O700 2.290 . S
Mn684 O701 2.251 . S
O685 Mn682 2.160 . S
O685 C696 1.239 . S
O686 Mn682 2.221 . S
O686 Mn687 2.290 . S
O686 C697 1.278 . S
Mn687 O686 2.290 . S
Mn687 O689 2.089 . S
Mn687 O692 2.251 . S
Mn687 O693 2.087 . S
O688 Mn682 2.163 . S
O688 C698 1.244 . S
O689 Mn687 2.089 . S
O689 C696 1.256 . S
O690 Mn682 2.160 . S
O690 C699 1.239 . S
O691 Mn684 2.089 . S
O691 C699 1.256 . S
O692 Mn687 2.251 . S
O692 C697 1.241 . S
O693 Mn687 2.087 . S
O693 C698 1.256 . S
C694 O700 1.278 . S
C694 O701 1.241 . S
C695 O681 1.244 . S
C695 O683 1.256 . S
C696 O685 1.239 . S
C696 O689 1.256 . S
C697 O686 1.278 . S
C697 O692 1.241 . S
C698 O688 1.244 . S
C698 O693 1.256 . S
C699 O690 1.239 . S
C699 O691 1.256 . S
O700 Mn682 2.221 . S
O700 Mn684 2.290 . S
O700 C694 1.278 . S
O701 Mn684 2.251 . S
O701 C694 1.241 . S
O702 Mn703 2.163 . S
O702 C716 1.244 . S
Mn703 O702 2.163 . S
Mn703 O706 2.160 . S
Mn703 O707 2.221 . S
Mn703 O709 2.163 . S
Mn703 O711 2.160 . S
Mn703 O721 2.221 . S
O704 Mn705 2.087 . S
O704 C716 1.256 . S
Mn705 O704 2.087 . S
Mn705 O712 2.089 . S
Mn705 O721 2.290 . S
Mn705 O722 2.251 . S
O706 Mn703 2.160 . S
O706 C717 1.239 . S
O707 Mn703 2.221 . S
O707 Mn708 2.290 . S
O707 C718 1.278 . S
Mn708 O707 2.290 . S
Mn708 O710 2.089 . S
Mn708 O713 2.251 . S
Mn708 O714 2.087 . S
O709 Mn703 2.163 . S
O709 C719 1.244 . S
O710 Mn708 2.089 . S
O710 C717 1.256 . S
O711 Mn703 2.160 . S
O711 C720 1.239 . S
O712 Mn705 2.089 . S
O712 C720 1.256 . S
O713 Mn708 2.251 . S
O713 C718 1.241 . S
O714 Mn708 2.087 . S
O714 C719 1.256 . S
C715 O721 1.278 . S
C715 O722 1.241 . S
C716 O702 1.244 . S
C716 O704 1.256 . S
C717 O706 1.239 . S
C717 O710 1.256 . S
C718 O707 1.278 . S
C718 O713 1.241 . S
C719 O709 1.244 . S
C719 O714 1.256 . S
C720 O711 1.239 . S
C720 O712 1.256 . S
O721 Mn703 2.221 . S
O721 Mn705 2.290 . S
O721 C715 1.278 . S
O722 Mn705 2.251 . S
O722 C715 1.241 . S
O723 Mn724 2.163 . S
O723 C737 1.244 . S
Mn724 O723 2.163 . S
Mn724 O727 2.160 . S
Mn724 O728 2.221 . S
Mn724 O730 2.163 . S
Mn724 O732 2.160 . S
Mn724 O742 2.221 . S
O725 Mn726 2.087 . S
O725 C737 1.256 . S
Mn726 O725 2.087 . S
Mn726 O733 2.089 . S
Mn726 O742 2.290 . S
Mn726 O743 2.251 . S
O727 Mn724 2.160 . S
O727 C738 1.239 . S
O728 Mn724 2.221 . S
O728 Mn729 2.290 . S
O728 C739 1.278 . S
Mn729 O728 2.290 . S
Mn729 O731 2.089 . S
Mn729 O734 2.251 . S
Mn729 O735 2.087 . S
O730 Mn724 2.163 . S
O730 C740 1.244 . S
O731 Mn729 2.089 . S
O731 C738 1.256 . S
O732 Mn724 2.160 . S
O732 C741 1.239 . S
O733 Mn726 2.089 . S
O733 C741 1.256 . S
O734 Mn729 2.251 . S
O734 C739 1.241 . S
O735 Mn729 2.087 . S
O735 C740 1.256 . S
C736 O742 1.278 . S
C736 O743 1.241 . S
C737 O723 1.244 . S
C737 O725 1.256 . S
C738 O727 1.239 . S
C738 O731 1.256 . S
C739 O728 1.278 . S
C739 O734 1.241 . S
C740 O730 1.244 . S
C740 O735 1.256 . S
C741 O732 1.239 . S
C741 O733 1.256 . S
O742 Mn724 2.221 . S
O742 Mn726 2.290 . S
O742 C736 1.278 . S
O743 Mn726 2.251 . S
O743 C736 1.241 . S
O744 Mn745 2.163 . S
O744 C758 1.244 . S
Mn745 O744 2.163 . S
Mn745 O748 2.160 . S
Mn745 O749 2.221 . S
Mn745 O751 2.163 . S
Mn745 O753 2.160 . S
Mn745 O763 2.221 . S
O746 Mn747 2.087 . S
O746 C758 1.256 . S
Mn747 O746 2.087 . S
Mn747 O754 2.089 . S
Mn747 O763 2.290 . S
Mn747 O764 2.251 . S
O748 Mn745 2.160 . S
O748 C759 1.239 . S
O749 Mn745 2.221 . S
O749 Mn750 2.290 . S
O749 C760 1.278 . S
Mn750 O749 2.290 . S
Mn750 O752 2.089 . S
Mn750 O755 2.251 . S
Mn750 O756 2.087 . S
O751 Mn745 2.163 . S
O751 C761 1.244 . S
O752 Mn750 2.089 . S
O752 C759 1.256 . S
O753 Mn745 2.160 . S
O753 C762 1.239 . S
O754 Mn747 2.089 . S
O754 C762 1.256 . S
O755 Mn750 2.251 . S
O755 C760 1.241 . S
O756 Mn750 2.087 . S
O756 C761 1.256 . S
C757 O763 1.278 . S
C757 O764 1.241 . S
C758 O744 1.244 . S
C758 O746 1.256 . S
C759 O748 1.239 . S
C759 O752 1.256 . S
C760 O749 1.278 . S
C760 O755 1.241 . S
C761 O751 1.244 . S
C761 O756 1.256 . S
C762 O753 1.239 . S
C762 O754 1.256 . S
O763 Mn745 2.221 . S
O763 Mn747 2.290 . S
O763 C757 1.278 . S
O764 Mn747 2.251 . S
O764 C757 1.241 . S
H765 C783 0.951 . S
H766 C785 0.951 . S
H767 C787 0.950 . S
H768 C788 0.950 . S
H769 C790 0.950 . S
H770 C793 0.950 . S
H771 C794 0.950 . S
H772 C796 0.950 . S
H773 C797 0.950 . S
H774 C798 0.951 1_556 S
H775 C800 0.951 1_556 S
H776 C802 0.950 . S
H777 C803 0.950 . S
H778 C805 0.950 . S
H779 C808 0.950 . S
H780 C809 0.950 . S
H781 C811 0.950 . S
H782 C812 0.950 . S
C783 H765 0.951 . S
C783 C784 1.366 . S
C783 C785 1.388 . S
C784 C783 1.366 . S
C784 C788 1.385 . S
C785 H766 0.951 . S
C785 C783 1.388 . S
C785 C786 1.366 . S
C786 C785 1.366 . S
C786 C787 1.414 . S
C786 C789 1.499 . S
C787 H767 0.950 . S
C787 C786 1.414 . S
C787 C788 1.374 . S
C788 H768 0.950 . S
C788 C784 1.385 . S
C788 C787 1.374 . S
C789 C786 1.499 . S
C789 C790 1.373 . S
C789 C791 1.389 . S
C790 H769 0.950 . S
C790 C789 1.373 . S
C790 C806 1.377 . S
C791 C789 1.389 . S
C791 C792 1.524 . S
C791 C805 1.377 . S
C792 C791 1.524 . S
C792 C793 1.397 . S
C792 C797 1.363 . S
C793 H770 0.950 . S
C793 C792 1.397 . S
C793 C794 1.334 . S
C794 H771 0.950 . S
C794 C793 1.334 . S
C794 C795 1.287 . S
C795 C794 1.287 . S
C795 C796 1.524 . S
C795 H814 0.913 . S
C796 H772 0.950 . S
C796 C795 1.524 . S
C796 C797 1.415 . S
C797 H773 0.950 . S
C797 C792 1.363 . S
C797 C796 1.415 . S
C798 H774 0.951 1_554 S
C798 C799 1.366 . S
C798 C800 1.388 . S
C799 C798 1.366 . S
C799 C803 1.385 . S
C800 H775 0.951 1_554 S
C800 C798 1.388 . S
C800 C801 1.366 . S
C801 C800 1.366 . S
C801 C802 1.414 . S
C801 C804 1.499 . S
C802 H776 0.950 . S
C802 C801 1.414 . S
C802 C803 1.374 . S
C803 H777 0.950 . S
C803 C799 1.385 . S
C803 C802 1.374 . S
C804 C801 1.499 . S
C804 C805 1.373 . S
C804 C806 1.389 . S
C805 H778 0.950 . S
C805 C791 1.377 . S
C805 C804 1.373 . S
C806 C790 1.377 . S
C806 C804 1.389 . S
C806 C807 1.524 1_554 S
C807 C806 1.524 1_556 S
C807 C808 1.397 1_556 S
C807 C812 1.363 . S
C808 H779 0.950 . S
C808 C807 1.397 1_554 S
C808 C809 1.334 1_554 S
C809 H780 0.950 . S
C809 C808 1.334 1_556 S
C809 C810 1.287 . S
C810 C809 1.287 . S
C810 C811 1.524 . S
C810 H813 0.999 . S
C811 H781 0.950 . S
C811 C810 1.524 . S
C811 C812 1.415 . S
C812 H782 0.950 . S
C812 C807 1.363 . S
C812 C811 1.415 . S
H813 C810 0.999 . S
H814 C795 0.913 . S
H815 C833 0.951 . S
H816 C835 0.951 . S
H817 C837 0.950 . S
H818 C838 0.950 . S
H819 C840 0.950 . S
H820 C843 0.940 1_556 S
H821 C844 0.950 . S
H822 C846 0.950 . S
H823 C847 0.950 . S
H824 C848 0.951 . S
H825 C850 0.951 . S
H826 C852 0.950 . S
H827 C853 0.950 . S
H828 C855 0.950 . S
H829 C858 0.950 . S
H830 C859 0.950 . S
H831 C861 0.950 . S
H832 C862 0.950 . S
C833 H815 0.951 . S
C833 C834 1.366 . S
C833 C835 1.388 . S
C834 C833 1.366 . S
C834 C838 1.385 . S
C835 H816 0.951 . S
C835 C833 1.388 . S
C835 C836 1.366 . S
C836 C835 1.366 . S
C836 C837 1.414 . S
C836 C839 1.499 . S
C837 H817 0.950 . S
C837 C836 1.414 . S
C837 C838 1.374 . S
C838 H818 0.950 . S
C838 C834 1.385 . S
C838 C837 1.374 . S
C839 C836 1.499 . S
C839 C840 1.373 . S
C839 C841 1.389 . S
C840 H819 0.950 . S
C840 C839 1.373 . S
C840 C856 1.377 . S
C841 C839 1.389 . S
C841 C842 1.524 . S
C841 C855 1.377 . S
C842 C841 1.524 . S
C842 C843 1.427 . S
C842 C847 1.363 . S
C843 H820 0.940 1_554 S
C843 C842 1.427 . S
C843 C844 1.311 1_554 S
C844 H821 0.950 . S
C844 C843 1.311 1_556 S
C844 C845 1.287 . S
C845 C844 1.287 . S
C845 C846 1.524 1_556 S
C845 H864 0.913 . S
C846 H822 0.950 . S
C846 C845 1.524 1_554 S
C846 C847 1.415 . S
C847 H823 0.950 . S
C847 C842 1.363 . S
C847 C846 1.415 . S
C848 H824 0.951 . S
C848 C849 1.366 . S
C848 C850 1.388 . S
C849 C848 1.366 . S
C849 C853 1.385 . S
C850 H825 0.951 . S
C850 C848 1.388 . S
C850 C851 1.366 . S
C851 C850 1.366 . S
C851 C852 1.414 . S
C851 C854 1.499 . S
C852 H826 0.950 . S
C852 C851 1.414 . S
C852 C853 1.374 . S
C853 H827 0.950 . S
C853 C849 1.385 . S
C853 C852 1.374 . S
C854 C851 1.499 . S
C854 C855 1.373 . S
C854 C856 1.389 . S
C855 H828 0.950 . S
C855 C841 1.377 . S
C855 C854 1.373 . S
C856 C840 1.377 . S
C856 C854 1.389 . S
C856 C857 1.524 . S
C857 C856 1.524 . S
C857 C858 1.397 . S
C857 C862 1.363 . S
C858 H829 0.950 . S
C858 C857 1.397 . S
C858 C859 1.334 . S
C859 H830 0.950 . S
C859 C858 1.334 . S
C859 C860 1.287 . S
C860 C859 1.287 . S
C860 C861 1.524 . S
C860 H863 0.999 . S
C861 H831 0.950 . S
C861 C860 1.524 . S
C861 C862 1.415 . S
C862 H832 0.950 . S
C862 C857 1.363 . S
C862 C861 1.415 . S
H863 C860 0.999 . S
H864 C845 0.913 . S
H865 C883 0.951 . S
H866 C885 0.951 . S
H867 C887 0.950 . S
H868 C888 0.950 . S
H869 C890 0.950 . S
H870 C893 0.950 . S
H871 C894 0.950 . S
H872 C896 0.950 . S
H873 C897 0.950 . S
H874 C898 0.951 . S
H875 C900 0.951 . S
H876 C902 0.950 . S
H877 C903 0.946 1_556 S
H878 C905 0.950 . S
H879 C908 0.950 . S
H880 C909 0.950 . S
H881 C911 0.950 . S
H882 C912 0.950 . S
C883 H865 0.951 . S
C883 C884 1.366 . S
C883 C885 1.388 . S
C884 C883 1.366 . S
C884 C888 1.385 . S
C885 H866 0.951 . S
C885 C883 1.388 . S
C885 C886 1.366 . S
C886 C885 1.366 . S
C886 C887 1.414 . S
C886 C889 1.499 . S
C887 H867 0.950 . S
C887 C886 1.414 . S
C887 C888 1.374 . S
C888 H868 0.950 . S
C888 C884 1.385 . S
C888 C887 1.374 . S
C889 C886 1.499 . S
C889 C890 1.373 . S
C889 C891 1.389 . S
C890 H869 0.950 . S
C890 C889 1.373 . S
C890 C906 1.377 . S
C891 C889 1.389 . S
C891 C892 1.524 . S
C891 C905 1.377 . S
C892 C891 1.524 . S
C892 C893 1.397 . S
C892 C897 1.363 . S
C893 H870 0.950 . S
C893 C892 1.397 . S
C893 C894 1.334 . S
C894 H871 0.950 . S
C894 C893 1.334 . S
C894 C895 1.287 . S
C895 C894 1.287 . S
C895 C896 1.524 . S
C895 H914 0.913 . S
C896 H872 0.950 . S
C896 C895 1.524 . S
C896 C897 1.415 . S
C897 H873 0.950 . S
C897 C892 1.363 . S
C897 C896 1.415 . S
C898 H874 0.951 . S
C898 C899 1.366 . S
C898 C900 1.388 . S
C899 C898 1.366 . S
C899 C903 1.385 . S
C900 H875 0.951 . S
C900 C898 1.388 . S
C900 C901 1.366 . S
C901 C900 1.366 . S
C901 C902 1.414 . S
C901 C904 1.499 . S
C902 H876 0.950 . S
C902 C901 1.414 . S
C902 C903 1.374 . S
C903 H877 0.946 1_554 S
C903 C899 1.385 . S
C903 C902 1.374 . S
C904 C901 1.499 . S
C904 C905 1.373 . S
C904 C906 1.389 . S
C905 H878 0.950 . S
C905 C891 1.377 . S
C905 C904 1.373 . S
C906 C890 1.377 . S
C906 C904 1.389 . S
C906 C907 1.524 . S
C907 C906 1.524 . S
C907 C908 1.397 1_554 S
C907 C912 1.363 . S
C908 H879 0.950 . S
C908 C907 1.397 1_556 S
C908 C909 1.334 . S
C909 H880 0.950 . S
C909 C908 1.334 . S
C909 C910 1.287 . S
C910 C909 1.287 . S
C910 C911 1.524 1_556 S
C910 H913 0.999 . S
C911 H881 0.950 . S
C911 C910 1.524 1_554 S
C911 C912 1.415 . S
C912 H882 0.950 . S
C912 C907 1.363 . S
C912 C911 1.415 . S
H913 C910 0.999 . S
H914 C895 0.913 . S
H915 C933 0.951 . S
H916 C935 0.951 . S
H917 C937 0.950 . S
H918 C938 0.950 . S
H919 C940 0.950 . S
H920 C943 0.950 . S
H921 C944 0.950 . S
H922 C946 0.950 . S
H923 C947 0.950 . S
H924 C948 0.951 . S
H925 C950 0.951 . S
H926 C952 0.953 . S
H927 C953 0.947 . S
H928 C955 0.950 . S
H929 C958 0.950 . S
H930 C959 0.950 . S
H931 C961 0.950 . S
H932 C962 1.007 . S
C933 H915 0.951 . S
C933 C934 1.366 . S
C933 C935 1.388 . S
C934 C933 1.366 . S
C934 C938 1.385 . S
C935 H916 0.951 . S
C935 C933 1.388 . S
C935 C936 1.366 . S
C936 C935 1.366 . S
C936 C937 1.414 . S
C936 C939 1.499 . S
C937 H917 0.950 . S
C937 C936 1.414 . S
C937 C938 1.374 . S
C938 H918 0.950 . S
C938 C934 1.385 . S
C938 C937 1.374 . S
C939 C936 1.499 . S
C939 C940 1.373 . S
C939 C941 1.389 . S
C940 H919 0.950 . S
C940 C939 1.373 . S
C940 C956 1.377 . S
C941 C939 1.389 . S
C941 C942 1.524 . S
C941 C955 1.377 . S
C942 C941 1.524 . S
C942 C943 1.397 . S
C942 C947 1.363 . S
C943 H920 0.950 . S
C943 C942 1.397 . S
C943 C944 1.334 . S
C944 H921 0.950 . S
C944 C943 1.334 . S
C944 C945 1.287 . S
C945 C944 1.287 . S
C945 C946 1.524 . S
C945 H964 0.913 . S
C946 H922 0.950 . S
C946 C945 1.524 . S
C946 C947 1.415 . S
C947 H923 0.950 . S
C947 C942 1.363 . S
C947 C946 1.415 . S
C948 H924 0.951 . S
C948 C949 1.366 . S
C948 C950 1.388 . S
C949 C948 1.366 . S
C949 C953 1.386 1_556 S
C950 H925 0.951 . S
C950 C948 1.388 . S
C950 C951 1.366 . S
C951 C950 1.366 . S
C951 C952 1.414 . S
C951 C954 1.499 . S
C952 H926 0.953 . S
C952 C951 1.414 . S
C952 C953 1.375 1_556 S
C953 H927 0.947 . S
C953 C949 1.386 1_554 S
C953 C952 1.375 1_554 S
C954 C951 1.499 . S
C954 C955 1.373 . S
C954 C956 1.389 . S
C955 H928 0.950 . S
C955 C941 1.377 . S
C955 C954 1.373 . S
C956 C940 1.377 . S
C956 C954 1.389 . S
C956 C957 1.524 1_556 S
C957 C956 1.524 1_554 S
C957 C958 1.397 . S
C957 C962 1.348 1_554 S
C958 H929 0.950 . S
C958 C957 1.397 . S
C958 C959 1.334 . S
C959 H930 0.950 . S
C959 C958 1.334 . S
C959 C960 1.287 . S
C960 C959 1.287 . S
C960 C961 1.524 . S
C960 H963 0.999 . S
C961 H931 0.950 . S
C961 C960 1.524 . S
C961 C962 1.377 1_554 S
C962 H932 1.007 . S
C962 C957 1.348 1_556 S
C962 C961 1.377 1_556 S
H963 C960 0.999 . S
H964 C945 0.913 . S
H965 C983 0.951 . S
H966 C985 0.951 . S
H967 C987 0.950 . S
H968 C988 0.950 . S
H969 C990 0.950 . S
H970 C993 0.950 . S
H971 C994 0.950 . S
H972 C996 0.950 . S
H973 C997 0.950 . S
H974 C998 0.951 . S
H975 C1000 0.951 . S
H976 C1002 0.936 1_554 S
H977 C1003 0.941 1_554 S
H978 C1005 0.950 . S
H979 C1008 0.950 . S
H980 C1009 0.950 . S
H981 C1011 0.949 . S
H982 C1012 0.950 . S
C983 H965 0.951 . S
C983 C984 1.366 . S
C983 C985 1.388 . S
C984 C983 1.366 . S
C984 C988 1.385 . S
C985 H966 0.951 . S
C985 C983 1.388 . S
C985 C986 1.366 . S
C986 C985 1.366 . S
C986 C987 1.414 . S
C986 C989 1.499 . S
C987 H967 0.950 . S
C987 C986 1.414 . S
C987 C988 1.374 . S
C988 H968 0.950 . S
C988 C984 1.385 . S
C988 C987 1.374 . S
C989 C986 1.499 . S
C989 C990 1.373 . S
C989 C991 1.389 . S
C990 H969 0.950 . S
C990 C989 1.373 . S
C990 C1006 1.377 . S
C991 C989 1.389 . S
C991 C992 1.524 . S
C991 C1005 1.377 . S
C992 C991 1.524 . S
C992 C993 1.397 . S
C992 C997 1.363 . S
C993 H970 0.950 . S
C993 C992 1.397 . S
C993 C994 1.334 . S
C994 H971 0.950 . S
C994 C993 1.334 . S
C994 C995 1.287 . S
C995 C994 1.287 . S
C995 C996 1.524 . S
C995 H1014 0.913 . S
C996 H972 0.950 . S
C996 C995 1.524 . S
C996 C997 1.415 . S
C997 H973 0.950 . S
C997 C992 1.363 . S
C997 C996 1.415 . S
C998 H974 0.951 . S
C998 C999 1.366 . S
C998 C1000 1.388 . S
C999 C998 1.366 . S
C999 C1003 1.391 . S
C1000 H975 0.951 . S
C1000 C998 1.388 . S
C1000 C1001 1.366 . S
C1001 C1000 1.366 . S
C1001 C1002 1.414 . S
C1001 C1004 1.499 . S
C1002 H976 0.936 1_556 S
C1002 C1001 1.414 . S
C1002 C1003 1.377 . S
C1003 H977 0.941 1_556 S
C1003 C999 1.391 . S
C1003 C1002 1.377 . S
C1004 C1001 1.499 . S
C1004 C1005 1.373 . S
C1004 C1006 1.389 . S
C1005 H978 0.950 . S
C1005 C991 1.377 . S
C1005 C1004 1.373 . S
C1006 C990 1.377 . S
C1006 C1004 1.389 . S
C1006 C1007 1.524 . S
C1007 C1006 1.524 . S
C1007 C1008 1.397 1_556 S
C1007 C1012 1.363 . S
C1008 H979 0.950 . S
C1008 C1007 1.397 1_554 S
C1008 C1009 1.334 . S
C1009 H980 0.950 . S
C1009 C1008 1.334 . S
C1009 C1010 1.287 . S
C1010 C1009 1.287 . S
C1010 C1011 1.524 . S
C1010 H1013 0.999 . S
C1011 H981 0.949 . S
C1011 C1010 1.524 . S
C1011 C1012 1.415 1_554 S
C1012 H982 0.950 . S
C1012 C1007 1.363 . S
C1012 C1011 1.415 1_556 S
H1013 C1010 0.999 . S
H1014 C995 0.913 . S
H1015 C1033 0.951 . S
H1016 C1035 0.951 . S
H1017 C1037 0.950 1_554 S
H1018 C1038 0.950 . S
H1019 C1040 0.950 1_554 S
H1020 C1043 0.950 . S
H1021 C1044 0.950 . S
H1022 C1046 0.950 . S
H1023 C1047 0.950 . S
H1024 C1048 0.951 . S
H1025 C1050 0.951 . S
H1026 C1052 0.950 . S
H1027 C1053 0.950 . S
H1028 C1055 0.950 . S
H1029 C1058 0.950 . S
H1030 C1059 0.950 . S
H1031 C1061 0.950 . S
H1032 C1062 0.950 . S
C1033 H1015 0.951 . S
C1033 C1034 1.366 . S
C1033 C1035 1.388 . S
C1034 C1033 1.366 . S
C1034 C1038 1.385 . S
C1035 H1016 0.951 . S
C1035 C1033 1.388 . S
C1035 C1036 1.366 . S
C1036 C1035 1.366 . S
C1036 C1037 1.414 . S
C1036 C1039 1.499 . S
C1037 H1017 0.950 1_556 S
C1037 C1036 1.414 . S
C1037 C1038 1.374 . S
C1038 H1018 0.950 . S
C1038 C1034 1.385 . S
C1038 C1037 1.374 . S
C1039 C1036 1.499 . S
C1039 C1040 1.373 . S
C1039 C1041 1.389 . S
C1040 H1019 0.950 1_556 S
C1040 C1039 1.373 . S
C1040 C1056 1.375 1_556 S
C1041 C1039 1.389 . S
C1041 C1042 1.524 . S
C1041 C1055 1.377 . S
C1042 C1041 1.524 . S
C1042 C1043 1.397 . S
C1042 C1047 1.363 . S
C1043 H1020 0.950 . S
C1043 C1042 1.397 . S
C1043 C1044 1.334 . S
C1044 H1021 0.950 . S
C1044 C1043 1.334 . S
C1044 C1045 1.287 . S
C1045 C1044 1.287 . S
C1045 C1046 1.524 . S
C1045 H1064 0.913 . S
C1046 H1022 0.950 . S
C1046 C1045 1.524 . S
C1046 C1047 1.415 . S
C1047 H1023 0.950 . S
C1047 C1042 1.363 . S
C1047 C1046 1.415 . S
C1048 H1024 0.951 . S
C1048 C1049 1.366 1_554 S
C1048 C1050 1.388 . S
C1049 C1048 1.366 1_556 S
C1049 C1053 1.385 . S
C1050 H1025 0.951 . S
C1050 C1048 1.388 . S
C1050 C1051 1.366 1_554 S
C1051 C1050 1.366 1_556 S
C1051 C1052 1.414 . S
C1051 C1054 1.499 . S
C1052 H1026 0.950 . S
C1052 C1051 1.414 . S
C1052 C1053 1.374 . S
C1053 H1027 0.950 . S
C1053 C1049 1.385 . S
C1053 C1052 1.374 . S
C1054 C1051 1.499 . S
C1054 C1055 1.373 . S
C1054 C1056 1.384 1_556 S
C1055 H1028 0.950 . S
C1055 C1041 1.377 . S
C1055 C1054 1.373 . S
C1056 C1040 1.375 1_554 S
C1056 C1054 1.384 1_554 S
C1056 C1057 1.531 . S
C1057 C1056 1.531 . S
C1057 C1058 1.397 . S
C1057 C1062 1.363 . S
C1058 H1029 0.950 . S
C1058 C1057 1.397 . S
C1058 C1059 1.334 . S
C1059 H1030 0.950 . S
C1059 C1058 1.334 . S
C1059 C1060 1.287 . S
C1060 C1059 1.287 . S
C1060 C1061 1.524 . S
C1060 H1063 0.999 . S
C1061 H1031 0.950 . S
C1061 C1060 1.524 . S
C1061 C1062 1.415 . S
C1062 H1032 0.950 . S
C1062 C1057 1.363 . S
C1062 C1061 1.415 . S
H1063 C1060 0.999 . S
H1064 C1045 0.913 . S
H1065 C1083 0.951 . S
H1066 C1085 0.896 1_554 S
H1067 C1087 0.950 . S
H1068 C1088 0.950 . S
H1069 C1090 0.950 . S
H1070 C1093 0.950 1_556 S
H1071 C1094 0.950 . S
H1072 C1096 0.950 . S
H1073 C1097 0.950 . S
H1074 C1098 0.951 . S
H1075 C1100 0.951 . S
H1076 C1102 0.950 . S
H1077 C1103 0.950 . S
H1078 C1105 0.925 1_554 S
H1079 C1108 0.950 . S
H1080 C1109 0.950 . S
H1081 C1111 0.950 . S
H1082 C1112 0.950 . S
C1083 H1065 0.951 . S
C1083 C1084 1.366 . S
C1083 C1085 1.388 . S
C1084 C1083 1.366 . S
C1084 C1088 1.385 . S
C1085 H1066 0.896 1_556 S
C1085 C1083 1.388 . S
C1085 C1086 1.366 . S
C1086 C1085 1.366 . S
C1086 C1087 1.414 . S
C1086 C1089 1.499 . S
C1087 H1067 0.950 . S
C1087 C1086 1.414 . S
C1087 C1088 1.374 . S
C1088 H1068 0.950 . S
C1088 C1084 1.385 . S
C1088 C1087 1.374 . S
C1089 C1086 1.499 . S
C1089 C1090 1.373 . S
C1089 C1091 1.389 . S
C1090 H1069 0.950 . S
C1090 C1089 1.373 . S
C1090 C1106 1.377 . S
C1091 C1089 1.389 . S
C1091 C1092 1.524 1_556 S
C1091 C1105 1.383 . S
C1092 C1091 1.524 1_554 S
C1092 C1093 1.397 . S
C1092 C1097 1.363 . S
C1093 H1070 0.950 1_554 S
C1093 C1092 1.397 . S
C1093 C1094 1.334 . S
C1094 H1071 0.950 . S
C1094 C1093 1.334 . S
C1094 C1095 1.287 . S
C1095 C1094 1.287 . S
C1095 C1096 1.524 . S
C1095 H1114 0.913 . S
C1096 H1072 0.950 . S
C1096 C1095 1.524 . S
C1096 C1097 1.415 . S
C1097 H1073 0.950 . S
C1097 C1092 1.363 . S
C1097 C1096 1.415 . S
C1098 H1074 0.951 . S
C1098 C1099 1.366 . S
C1098 C1100 1.388 . S
C1099 C1098 1.366 . S
C1099 C1103 1.385 1_556 S
C1100 H1075 0.951 . S
C1100 C1098 1.388 . S
C1100 C1101 1.366 . S
C1101 C1100 1.366 . S
C1101 C1102 1.414 1_556 S
C1101 C1104 1.499 . S
C1102 H1076 0.950 . S
C1102 C1101 1.414 1_554 S
C1102 C1103 1.374 . S
C1103 H1077 0.950 . S
C1103 C1099 1.385 1_554 S
C1103 C1102 1.374 . S
C1104 C1101 1.499 . S
C1104 C1105 1.392 . S
C1104 C1106 1.389 . S
C1105 H1078 0.925 1_556 S
C1105 C1091 1.383 . S
C1105 C1104 1.392 . S
C1106 C1090 1.377 . S
C1106 C1104 1.389 . S
C1106 C1107 1.524 . S
C1107 C1106 1.524 . S
C1107 C1108 1.397 . S
C1107 C1112 1.363 . S
C1108 H1079 0.950 . S
C1108 C1107 1.397 . S
C1108 C1109 1.334 . S
C1109 H1080 0.950 . S
C1109 C1108 1.334 . S
C1109 C1110 1.287 . S
C1110 C1109 1.287 . S
C1110 C1111 1.524 . S
C1110 H1113 0.999 . S
C1111 H1081 0.950 . S
C1111 C1110 1.524 . S
C1111 C1112 1.415 . S
C1112 H1082 0.950 . S
C1112 C1107 1.363 . S
C1112 C1111 1.415 . S
H1113 C1110 0.999 . S
H1114 C1095 0.913 . S
H1115 C1133 0.951 . S
H1116 C1135 0.951 . S
H1117 C1137 0.950 . S
H1118 C1138 0.950 . S
H1119 C1140 0.950 1_554 S
H1120 C1143 0.950 . S
H1121 C1144 0.950 . S
H1122 C1146 0.950 . S
H1123 C1147 0.950 . S
H1124 C1148 0.945 1_554 S
H1125 C1150 0.951 . S
H1126 C1152 0.950 . S
H1127 C1153 0.950 . S
H1128 C1155 0.950 . S
H1129 C1158 0.950 . S
H1130 C1159 0.950 . S
H1131 C1161 0.950 . S
H1132 C1162 0.950 . S
C1133 H1115 0.951 . S
C1133 C1134 1.366 . S
C1133 C1135 1.388 . S
C1134 C1133 1.366 . S
C1134 C1138 1.385 . S
C1135 H1116 0.951 . S
C1135 C1133 1.388 . S
C1135 C1136 1.366 . S
C1136 C1135 1.366 . S
C1136 C1137 1.414 . S
C1136 C1139 1.499 . S
C1137 H1117 0.950 . S
C1137 C1136 1.414 . S
C1137 C1138 1.374 . S
C1138 H1118 0.950 . S
C1138 C1134 1.385 . S
C1138 C1137 1.374 . S
C1139 C1136 1.499 . S
C1139 C1140 1.373 . S
C1139 C1141 1.389 . S
C1140 H1119 0.950 1_556 S
C1140 C1139 1.373 . S
C1140 C1156 1.369 1_556 S
C1141 C1139 1.389 . S
C1141 C1142 1.524 . S
C1141 C1155 1.377 . S
C1142 C1141 1.524 . S
C1142 C1143 1.397 . S
C1142 C1147 1.363 . S
C1143 H1120 0.950 . S
C1143 C1142 1.397 . S
C1143 C1144 1.334 . S
C1144 H1121 0.950 . S
C1144 C1143 1.334 . S
C1144 C1145 1.287 . S
C1145 C1144 1.287 . S
C1145 C1146 1.524 . S
C1145 H1164 0.913 . S
C1146 H1122 0.950 . S
C1146 C1145 1.524 . S
C1146 C1147 1.415 . S
C1147 H1123 0.950 . S
C1147 C1142 1.363 . S
C1147 C1146 1.415 . S
C1148 H1124 0.945 1_556 S
C1148 C1149 1.365 . S
C1148 C1150 1.394 . S
C1149 C1148 1.365 . S
C1149 C1153 1.396 . S
C1150 H1125 0.951 . S
C1150 C1148 1.394 . S
C1150 C1151 1.366 . S
C1151 C1150 1.366 . S
C1151 C1152 1.414 . S
C1151 C1154 1.499 . S
C1152 H1126 0.950 . S
C1152 C1151 1.414 . S
C1152 C1153 1.374 . S
C1153 H1127 0.950 . S
C1153 C1149 1.396 . S
C1153 C1152 1.374 . S
C1154 C1151 1.499 . S
C1154 C1155 1.373 . S
C1154 C1156 1.371 1_556 S
C1155 H1128 0.950 . S
C1155 C1141 1.377 . S
C1155 C1154 1.373 . S
C1156 C1140 1.369 1_554 S
C1156 C1154 1.371 1_554 S
C1156 C1157 1.553 . S
C1157 C1156 1.553 . S
C1157 C1158 1.397 . S
C1157 C1162 1.363 . S
C1158 H1129 0.950 . S
C1158 C1157 1.397 . S
C1158 C1159 1.334 . S
C1159 H1130 0.950 . S
C1159 C1158 1.334 . S
C1159 C1160 1.287 . S
C1160 C1159 1.287 . S
C1160 C1161 1.524 . S
C1160 H1163 0.999 . S
C1161 H1131 0.950 . S
C1161 C1160 1.524 . S
C1161 C1162 1.415 . S
C1162 H1132 0.950 . S
C1162 C1157 1.363 . S
C1162 C1161 1.415 . S
H1163 C1160 0.999 . S
H1164 C1145 0.913 . S
H1165 C1183 0.951 . S
H1166 C1185 0.951 . S
H1167 C1187 0.950 . S
H1168 C1188 0.950 . S
H1169 C1190 0.950 . S
H1170 C1193 0.950 . S
H1171 C1194 0.950 . S
H1172 C1196 0.950 . S
H1173 C1197 0.950 . S
H1174 C1198 0.951 . S
H1175 C1200 0.962 . S
H1176 C1202 0.950 . S
H1177 C1203 0.950 . S
H1178 C1205 0.950 . S
H1179 C1208 0.950 . S
H1180 C1209 0.950 . S
H1181 C1211 0.950 . S
H1182 C1212 0.950 . S
C1183 H1165 0.951 . S
C1183 C1184 1.366 . S
C1183 C1185 1.388 . S
C1184 C1183 1.366 . S
C1184 C1188 1.385 . S
C1185 H1166 0.951 . S
C1185 C1183 1.388 . S
C1185 C1186 1.366 . S
C1186 C1185 1.366 . S
C1186 C1187 1.414 . S
C1186 C1189 1.499 . S
C1187 H1167 0.950 . S
C1187 C1186 1.414 . S
C1187 C1188 1.374 . S
C1188 H1168 0.950 . S
C1188 C1184 1.385 . S
C1188 C1187 1.374 . S
C1189 C1186 1.499 . S
C1189 C1190 1.373 . S
C1189 C1191 1.389 . S
C1190 H1169 0.950 . S
C1190 C1189 1.373 . S
C1190 C1206 1.377 . S
C1191 C1189 1.389 . S
C1191 C1192 1.524 . S
C1191 C1205 1.377 . S
C1192 C1191 1.524 . S
C1192 C1193 1.397 1_556 S
C1192 C1197 1.363 . S
C1193 H1170 0.950 . S
C1193 C1192 1.397 1_554 S
C1193 C1194 1.334 . S
C1194 H1171 0.950 . S
C1194 C1193 1.334 . S
C1194 C1195 1.287 . S
C1195 C1194 1.287 . S
C1195 C1196 1.524 1_554 S
C1195 H1214 0.913 . S
C1196 H1172 0.950 . S
C1196 C1195 1.524 1_556 S
C1196 C1197 1.415 . S
C1197 H1173 0.950 . S
C1197 C1192 1.363 . S
C1197 C1196 1.415 . S
C1198 H1174 0.951 . S
C1198 C1199 1.366 1_554 S
C1198 C1200 1.394 . S
C1199 C1198 1.366 1_556 S
C1199 C1203 1.385 . S
C1200 H1175 0.962 . S
C1200 C1198 1.394 . S
C1200 C1201 1.350 1_554 S
C1201 C1200 1.350 1_556 S
C1201 C1202 1.414 . S
C1201 C1204 1.499 . S
C1202 H1176 0.950 . S
C1202 C1201 1.414 . S
C1202 C1203 1.374 . S
C1203 H1177 0.950 . S
C1203 C1199 1.385 . S
C1203 C1202 1.374 . S
C1204 C1201 1.499 . S
C1204 C1205 1.373 . S
C1204 C1206 1.389 . S
C1205 H1178 0.950 . S
C1205 C1191 1.377 . S
C1205 C1204 1.373 . S
C1206 C1190 1.377 . S
C1206 C1204 1.389 . S
C1206 C1207 1.524 . S
C1207 C1206 1.524 . S
C1207 C1208 1.397 . S
C1207 C1212 1.363 . S
C1208 H1179 0.950 . S
C1208 C1207 1.397 . S
C1208 C1209 1.334 . S
C1209 H1180 0.950 . S
C1209 C1208 1.334 . S
C1209 C1210 1.287 . S
C1210 C1209 1.287 . S
C1210 C1211 1.524 . S
C1210 H1213 0.999 . S
C1211 H1181 0.950 . S
C1211 C1210 1.524 . S
C1211 C1212 1.415 . S
C1212 H1182 0.950 . S
C1212 C1207 1.363 . S
C1212 C1211 1.415 . S
H1213 C1210 0.999 . S
H1214 C1195 0.913 . S
H1215 C1233 0.951 . S
H1216 C1235 0.951 . S
H1217 C1237 0.950 . S
H1218 C1238 0.950 . S
H1219 C1240 0.950 . S
H1220 C1243 0.950 . S
H1221 C1244 0.950 . S
H1222 C1246 0.950 . S
H1223 C1247 0.950 . S
H1224 C1248 0.951 . S
H1225 C1250 0.951 1_556 S
H1226 C1252 0.950 . S
H1227 C1253 0.950 . S
H1228 C1255 0.950 . S
H1229 C1258 0.950 . S
H1230 C1259 0.952 1_554 S
H1231 C1261 0.950 . S
H1232 C1262 0.950 . S
C1233 H1215 0.951 . S
C1233 C1234 1.366 . S
C1233 C1235 1.388 . S
C1234 C1233 1.366 . S
C1234 C1238 1.385 . S
C1235 H1216 0.951 . S
C1235 C1233 1.388 . S
C1235 C1236 1.366 . S
C1236 C1235 1.366 . S
C1236 C1237 1.414 . S
C1236 C1239 1.499 . S
C1237 H1217 0.950 . S
C1237 C1236 1.414 . S
C1237 C1238 1.374 . S
C1238 H1218 0.950 . S
C1238 C1234 1.385 . S
C1238 C1237 1.374 . S
C1239 C1236 1.499 . S
C1239 C1240 1.373 . S
C1239 C1241 1.389 . S
C1240 H1219 0.950 . S
C1240 C1239 1.373 . S
C1240 C1256 1.377 . S
C1241 C1239 1.389 . S
C1241 C1242 1.524 . S
C1241 C1255 1.377 . S
C1242 C1241 1.524 . S
C1242 C1243 1.397 . S
C1242 C1247 1.363 . S
C1243 H1220 0.950 . S
C1243 C1242 1.397 . S
C1243 C1244 1.334 . S
C1244 H1221 0.950 . S
C1244 C1243 1.334 . S
C1244 C1245 1.287 . S
C1245 C1244 1.287 . S
C1245 C1246 1.524 . S
C1245 H1264 0.913 . S
C1246 H1222 0.950 . S
C1246 C1245 1.524 . S
C1246 C1247 1.415 . S
C1247 H1223 0.950 . S
C1247 C1242 1.363 . S
C1247 C1246 1.415 . S
C1248 H1224 0.951 . S
C1248 C1249 1.366 1_556 S
C1248 C1250 1.388 1_556 S
C1249 C1248 1.366 1_554 S
C1249 C1253 1.385 . S
C1250 H1225 0.951 1_554 S
C1250 C1248 1.388 1_554 S
C1250 C1251 1.366 . S
C1251 C1250 1.366 . S
C1251 C1252 1.414 . S
C1251 C1254 1.499 . S
C1252 H1226 0.950 . S
C1252 C1251 1.414 . S
C1252 C1253 1.374 . S
C1253 H1227 0.950 . S
C1253 C1249 1.385 . S
C1253 C1252 1.374 . S
C1254 C1251 1.499 . S
C1254 C1255 1.373 . S
C1254 C1256 1.389 . S
C1255 H1228 0.950 . S
C1255 C1241 1.377 . S
C1255 C1254 1.373 . S
C1256 C1240 1.377 . S
C1256 C1254 1.389 . S
C1256 C1257 1.516 1_554 S
C1257 C1256 1.516 1_556 S
C1257 C1258 1.392 1_556 S
C1257 C1262 1.375 . S
C1258 H1229 0.950 . S
C1258 C1257 1.392 1_554 S
C1258 C1259 1.334 1_554 S
C1259 H1230 0.952 1_556 S
C1259 C1258 1.334 1_556 S
C1259 C1260 1.287 . S
C1260 C1259 1.287 . S
C1260 C1261 1.524 . S
C1260 H1263 0.999 . S
C1261 H1231 0.950 . S
C1261 C1260 1.524 . S
C1261 C1262 1.415 . S
C1262 H1232 0.950 . S
C1262 C1257 1.375 . S
C1262 C1261 1.415 . S
H1263 C1260 0.999 . S
H1264 C1245 0.913 . S
H1265 C1283 0.951 . S
H1266 C1285 0.951 . S
H1267 C1287 0.950 . S
H1268 C1288 0.950 . S
H1269 C1290 0.950 . S
H1270 C1293 0.950 . S
H1271 C1294 0.950 . S
H1272 C1296 0.950 . S
H1273 C1297 0.950 . S
H1274 C1298 0.951 . S
H1275 C1300 0.951 . S
H1276 C1302 0.950 1_556 S
H1277 C1303 0.919 1_556 S
H1278 C1305 0.950 . S
H1279 C1308 0.950 1_556 S
H1280 C1309 0.950 . S
H1281 C1311 0.950 . S
H1282 C1312 0.950 . S
C1283 H1265 0.951 . S
C1283 C1284 1.366 . S
C1283 C1285 1.388 . S
C1284 C1283 1.366 . S
C1284 C1288 1.385 . S
C1285 H1266 0.951 . S
C1285 C1283 1.388 . S
C1285 C1286 1.366 . S
C1286 C1285 1.366 . S
C1286 C1287 1.414 . S
C1286 C1289 1.499 . S
C1287 H1267 0.950 . S
C1287 C1286 1.414 . S
C1287 C1288 1.374 . S
C1288 H1268 0.950 . S
C1288 C1284 1.385 . S
C1288 C1287 1.374 . S
C1289 C1286 1.499 . S
C1289 C1290 1.373 . S
C1289 C1291 1.389 . S
C1290 H1269 0.950 . S
C1290 C1289 1.373 . S
C1290 C1306 1.377 . S
C1291 C1289 1.389 . S
C1291 C1292 1.524 . S
C1291 C1305 1.377 . S
C1292 C1291 1.524 . S
C1292 C1293 1.397 . S
C1292 C1297 1.363 . S
C1293 H1270 0.950 . S
C1293 C1292 1.397 . S
C1293 C1294 1.334 . S
C1294 H1271 0.950 . S
C1294 C1293 1.334 . S
C1294 C1295 1.287 . S
C1295 C1294 1.287 . S
C1295 C1296 1.524 . S
C1295 H1314 0.913 . S
C1296 H1272 0.950 . S
C1296 C1295 1.524 . S
C1296 C1297 1.415 . S
C1297 H1273 0.950 . S
C1297 C1292 1.363 . S
C1297 C1296 1.415 . S
C1298 H1274 0.951 . S
C1298 C1299 1.366 . S
C1298 C1300 1.388 . S
C1299 C1298 1.366 . S
C1299 C1303 1.408 . S
C1300 H1275 0.951 . S
C1300 C1298 1.388 . S
C1300 C1301 1.366 . S
C1301 C1300 1.366 . S
C1301 C1302 1.414 . S
C1301 C1304 1.499 . S
C1302 H1276 0.950 1_554 S
C1302 C1301 1.414 . S
C1302 C1303 1.383 . S
C1303 H1277 0.919 1_554 S
C1303 C1299 1.408 . S
C1303 C1302 1.383 . S
C1304 C1301 1.499 . S
C1304 C1305 1.373 . S
C1304 C1306 1.389 . S
C1305 H1278 0.950 . S
C1305 C1291 1.377 . S
C1305 C1304 1.373 . S
C1306 C1290 1.377 . S
C1306 C1304 1.389 . S
C1306 C1307 1.524 . S
C1307 C1306 1.524 . S
C1307 C1308 1.397 . S
C1307 C1312 1.363 . S
C1308 H1279 0.950 1_554 S
C1308 C1307 1.397 . S
C1308 C1309 1.334 1_554 S
C1309 H1280 0.950 . S
C1309 C1308 1.334 1_556 S
C1309 C1310 1.287 1_556 S
C1310 C1309 1.287 1_554 S
C1310 C1311 1.524 . S
C1310 H1313 0.999 . S
C1311 H1281 0.950 . S
C1311 C1310 1.524 . S
C1311 C1312 1.415 . S
C1312 H1282 0.950 . S
C1312 C1307 1.363 . S
C1312 C1311 1.415 . S
H1313 C1310 0.999 . S
H1314 C1295 0.913 . S
H1315 C1333 0.951 . S
H1316 C1335 0.951 . S
H1317 C1337 0.950 . S
H1318 C1338 0.950 . S
H1319 C1340 0.950 . S
H1320 C1343 0.950 . S
H1321 C1344 0.950 . S
H1322 C1346 0.950 . S
H1323 C1347 0.950 . S
H1324 C1348 0.951 . S
H1325 C1350 0.951 . S
H1326 C1352 0.936 1_556 S
H1327 C1353 0.950 . S
H1328 C1355 0.986 . S
H1329 C1358 0.950 . S
H1330 C1359 0.950 . S
H1331 C1361 0.950 . S
H1332 C1362 0.950 . S
C1333 H1315 0.951 . S
C1333 C1334 1.366 . S
C1333 C1335 1.388 . S
C1334 C1333 1.366 . S
C1334 C1338 1.385 . S
C1335 H1316 0.951 . S
C1335 C1333 1.388 . S
C1335 C1336 1.366 . S
C1336 C1335 1.366 . S
C1336 C1337 1.414 . S
C1336 C1339 1.499 . S
C1337 H1317 0.950 . S
C1337 C1336 1.414 . S
C1337 C1338 1.374 . S
C1338 H1318 0.950 . S
C1338 C1334 1.385 . S
C1338 C1337 1.374 . S
C1339 C1336 1.499 . S
C1339 C1340 1.373 . S
C1339 C1341 1.389 . S
C1340 H1319 0.950 . S
C1340 C1339 1.373 . S
C1340 C1356 1.377 . S
C1341 C1339 1.389 . S
C1341 C1342 1.524 . S
C1341 C1355 1.377 . S
C1342 C1341 1.524 . S
C1342 C1343 1.397 . S
C1342 C1347 1.363 1_554 S
C1343 H1320 0.950 . S
C1343 C1342 1.397 . S
C1343 C1344 1.334 . S
C1344 H1321 0.950 . S
C1344 C1343 1.334 . S
C1344 C1345 1.287 1_554 S
C1345 C1344 1.287 1_556 S
C1345 C1346 1.524 . S
C1345 H1364 0.913 . S
C1346 H1322 0.950 . S
C1346 C1345 1.524 . S
C1346 C1347 1.415 . S
C1347 H1323 0.950 . S
C1347 C1342 1.363 1_556 S
C1347 C1346 1.415 . S
C1348 H1324 0.951 . S
C1348 C1349 1.366 . S
C1348 C1350 1.388 . S
C1349 C1348 1.366 . S
C1349 C1353 1.385 1_554 S
C1350 H1325 0.951 . S
C1350 C1348 1.388 . S
C1350 C1351 1.366 . S
C1351 C1350 1.366 . S
C1351 C1352 1.432 . S
C1351 C1354 1.499 . S
C1352 H1326 0.936 1_554 S
C1352 C1351 1.432 . S
C1352 C1353 1.370 1_554 S
C1353 H1327 0.950 . S
C1353 C1349 1.385 1_556 S
C1353 C1352 1.370 1_556 S
C1354 C1351 1.499 . S
C1354 C1355 1.373 . S
C1354 C1356 1.389 . S
C1355 H1328 0.986 . S
C1355 C1341 1.377 . S
C1355 C1354 1.373 . S
C1356 C1340 1.377 . S
C1356 C1354 1.389 . S
C1356 C1357 1.524 . S
C1357 C1356 1.524 . S
C1357 C1358 1.397 . S
C1357 C1362 1.363 . S
C1358 H1329 0.950 . S
C1358 C1357 1.397 . S
C1358 C1359 1.334 . S
C1359 H1330 0.950 . S
C1359 C1358 1.334 . S
C1359 C1360 1.287 . S
C1360 C1359 1.287 . S
C1360 C1361 1.524 . S
C1360 H1363 0.999 . S
C1361 H1331 0.950 . S
C1361 C1360 1.524 . S
C1361 C1362 1.415 . S
C1362 H1332 0.950 . S
C1362 C1357 1.363 . S
C1362 C1361 1.415 . S
H1363 C1360 0.999 . S
H1364 C1345 0.913 . S
H1365 C1383 0.951 . S
H1366 C1385 0.951 . S
H1367 C1387 0.950 . S
H1368 C1388 0.950 . S
H1369 C1390 0.950 . S
H1370 C1393 0.955 . S
H1371 C1394 0.950 . S
H1372 C1396 0.958 . S
H1373 C1397 0.950 . S
H1374 C1398 0.951 . S
H1375 C1400 0.951 . S
H1376 C1402 0.950 . S
H1377 C1403 0.950 . S
H1378 C1405 0.950 . S
H1379 C1408 0.950 . S
H1380 C1409 0.950 . S
H1381 C1411 0.950 . S
H1382 C1412 0.950 . S
C1383 H1365 0.951 . S
C1383 C1384 1.366 . S
C1383 C1385 1.388 . S
C1384 C1383 1.366 . S
C1384 C1388 1.385 . S
C1385 H1366 0.951 . S
C1385 C1383 1.388 . S
C1385 C1386 1.366 . S
C1386 C1385 1.366 . S
C1386 C1387 1.414 . S
C1386 C1389 1.499 1_655 S
C1387 H1367 0.950 . S
C1387 C1386 1.414 . S
C1387 C1388 1.374 . S
C1388 H1368 0.950 . S
C1388 C1384 1.385 . S
C1388 C1387 1.374 . S
C1389 C1386 1.499 1_455 S
C1389 C1390 1.373 . S
C1389 C1391 1.389 . S
C1390 H1369 0.950 . S
C1390 C1389 1.373 . S
C1390 C1406 1.377 . S
C1391 C1389 1.389 . S
C1391 C1392 1.524 . S
C1391 C1405 1.377 . S
C1392 C1391 1.524 . S
C1392 C1393 1.394 . S
C1392 C1397 1.363 . S
C1393 H1370 0.955 . S
C1393 C1392 1.394 . S
C1393 C1394 1.333 1_455 S
C1394 H1371 0.950 . S
C1394 C1393 1.333 1_655 S
C1394 C1395 1.287 . S
C1395 C1394 1.287 . S
C1395 C1396 1.524 1_655 S
C1395 H1414 0.913 . S
C1396 H1372 0.958 . S
C1396 C1395 1.524 1_455 S
C1396 C1397 1.415 . S
C1397 H1373 0.950 . S
C1397 C1392 1.363 . S
C1397 C1396 1.415 . S
C1398 H1374 0.951 . S
C1398 C1399 1.366 . S
C1398 C1400 1.388 . S
C1399 C1398 1.366 . S
C1399 C1403 1.385 . S
C1400 H1375 0.951 . S
C1400 C1398 1.388 . S
C1400 C1401 1.366 . S
C1401 C1400 1.366 . S
C1401 C1402 1.414 . S
C1401 C1404 1.499 . S
C1402 H1376 0.950 . S
C1402 C1401 1.414 . S
C1402 C1403 1.374 . S
C1403 H1377 0.950 . S
C1403 C1399 1.385 . S
C1403 C1402 1.374 . S
C1404 C1401 1.499 . S
C1404 C1405 1.373 . S
C1404 C1406 1.389 . S
C1405 H1378 0.950 . S
C1405 C1391 1.377 . S
C1405 C1404 1.373 . S
C1406 C1390 1.377 . S
C1406 C1404 1.389 . S
C1406 C1407 1.524 . S
C1407 C1406 1.524 . S
C1407 C1408 1.397 . S
C1407 C1412 1.363 . S
C1408 H1379 0.950 . S
C1408 C1407 1.397 . S
C1408 C1409 1.334 . S
C1409 H1380 0.950 . S
C1409 C1408 1.334 . S
C1409 C1410 1.287 . S
C1410 C1409 1.287 . S
C1410 C1411 1.524 . S
C1410 H1413 0.999 . S
C1411 H1381 0.950 . S
C1411 C1410 1.524 . S
C1411 C1412 1.415 . S
C1412 H1382 0.950 . S
C1412 C1407 1.363 . S
C1412 C1411 1.415 . S
H1413 C1410 0.999 . S
H1414 C1395 0.913 . S
H1415 C1433 0.951 . S
H1416 C1435 0.951 . S
H1417 C1437 0.950 . S
H1418 C1438 0.950 . S
H1419 C1440 0.950 . S
H1420 C1443 0.950 . S
H1421 C1444 0.950 . S
H1422 C1446 0.950 . S
H1423 C1447 0.950 . S
H1424 C1448 0.951 . S
H1425 C1450 0.951 . S
H1426 C1452 0.950 . S
H1427 C1453 0.950 . S
H1428 C1455 0.950 . S
H1429 C1458 0.950 . S
H1430 C1459 0.950 . S
H1431 C1461 0.950 . S
H1432 C1462 0.950 . S
C1433 H1415 0.951 . S
C1433 C1434 1.366 . S
C1433 C1435 1.388 . S
C1434 C1433 1.366 . S
C1434 C1438 1.385 . S
C1435 H1416 0.951 . S
C1435 C1433 1.388 . S
C1435 C1436 1.366 . S
C1436 C1435 1.366 . S
C1436 C1437 1.414 . S
C1436 C1439 1.499 . S
C1437 H1417 0.950 . S
C1437 C1436 1.414 . S
C1437 C1438 1.374 . S
C1438 H1418 0.950 . S
C1438 C1434 1.385 . S
C1438 C1437 1.374 . S
C1439 C1436 1.499 . S
C1439 C1440 1.373 . S
C1439 C1441 1.389 . S
C1440 H1419 0.950 . S
C1440 C1439 1.373 . S
C1440 C1456 1.377 . S
C1441 C1439 1.389 . S
C1441 C1442 1.524 . S
C1441 C1455 1.377 . S
C1442 C1441 1.524 . S
C1442 C1443 1.397 . S
C1442 C1447 1.363 . S
C1443 H1420 0.950 . S
C1443 C1442 1.397 . S
C1443 C1444 1.334 . S
C1444 H1421 0.950 . S
C1444 C1443 1.334 . S
C1444 C1445 1.287 . S
C1445 C1444 1.287 . S
C1445 C1446 1.524 . S
C1445 H1464 0.913 . S
C1446 H1422 0.950 . S
C1446 C1445 1.524 . S
C1446 C1447 1.415 . S
C1447 H1423 0.950 . S
C1447 C1442 1.363 . S
C1447 C1446 1.415 . S
C1448 H1424 0.951 . S
C1448 C1449 1.366 . S
C1448 C1450 1.388 . S
C1449 C1448 1.366 . S
C1449 C1453 1.385 . S
C1450 H1425 0.951 . S
C1450 C1448 1.388 . S
C1450 C1451 1.366 . S
C1451 C1450 1.366 . S
C1451 C1452 1.414 . S
C1451 C1454 1.499 . S
C1452 H1426 0.950 . S
C1452 C1451 1.414 . S
C1452 C1453 1.374 . S
C1453 H1427 0.950 . S
C1453 C1449 1.385 . S
C1453 C1452 1.374 . S
C1454 C1451 1.499 . S
C1454 C1455 1.373 . S
C1454 C1456 1.389 . S
C1455 H1428 0.950 . S
C1455 C1441 1.377 . S
C1455 C1454 1.373 . S
C1456 C1440 1.377 . S
C1456 C1454 1.389 . S
C1456 C1457 1.524 . S
C1457 C1456 1.524 . S
C1457 C1458 1.397 . S
C1457 C1462 1.363 . S
C1458 H1429 0.950 . S
C1458 C1457 1.397 . S
C1458 C1459 1.334 . S
C1459 H1430 0.950 . S
C1459 C1458 1.334 . S
C1459 C1460 1.287 . S
C1460 C1459 1.287 . S
C1460 C1461 1.524 . S
C1460 H1463 0.999 . S
C1461 H1431 0.950 . S
C1461 C1460 1.524 . S
C1461 C1462 1.415 . S
C1462 H1432 0.950 . S
C1462 C1457 1.363 . S
C1462 C1461 1.415 . S
H1463 C1460 0.999 . S
H1464 C1445 0.913 . S
H1465 C1483 0.951 . S
H1466 C1485 0.951 . S
H1467 C1487 0.950 . S
H1468 C1488 0.950 . S
H1469 C1490 0.950 . S
H1470 C1493 0.950 . S
H1471 C1494 0.950 . S
H1472 C1496 0.950 . S
H1473 C1497 0.950 . S
H1474 C1498 0.951 . S
H1475 C1500 0.951 . S
H1476 C1502 0.950 . S
H1477 C1503 0.950 . S
H1478 C1505 0.950 . S
H1479 C1508 0.950 . S
H1480 C1509 0.950 . S
H1481 C1511 0.950 . S
H1482 C1512 0.950 . S
C1483 H1465 0.951 . S
C1483 C1484 1.366 . S
C1483 C1485 1.388 . S
C1484 C1483 1.366 . S
C1484 C1488 1.385 . S
C1485 H1466 0.951 . S
C1485 C1483 1.388 . S
C1485 C1486 1.366 . S
C1486 C1485 1.366 . S
C1486 C1487 1.414 . S
C1486 C1489 1.499 1_545 S
C1487 H1467 0.950 . S
C1487 C1486 1.414 . S
C1487 C1488 1.374 . S
C1488 H1468 0.950 . S
C1488 C1484 1.385 . S
C1488 C1487 1.374 . S
C1489 C1486 1.499 1_565 S
C1489 C1490 1.373 . S
C1489 C1491 1.389 . S
C1490 H1469 0.950 . S
C1490 C1489 1.373 . S
C1490 C1506 1.377 . S
C1491 C1489 1.389 . S
C1491 C1492 1.524 . S
C1491 C1505 1.377 . S
C1492 C1491 1.524 . S
C1492 C1493 1.397 1_565 S
C1492 C1497 1.363 . S
C1493 H1470 0.950 . S
C1493 C1492 1.397 1_545 S
C1493 C1494 1.334 . S
C1494 H1471 0.950 . S
C1494 C1493 1.334 . S
C1494 C1495 1.287 . S
C1495 C1494 1.287 . S
C1495 C1496 1.524 . S
C1495 H1514 0.913 . S
C1496 H1472 0.950 . S
C1496 C1495 1.524 . S
C1496 C1497 1.415 1_545 S
C1497 H1473 0.950 . S
C1497 C1492 1.363 . S
C1497 C1496 1.415 1_565 S
C1498 H1474 0.951 . S
C1498 C1499 1.366 . S
C1498 C1500 1.388 . S
C1499 C1498 1.366 . S
C1499 C1503 1.385 . S
C1500 H1475 0.951 . S
C1500 C1498 1.388 . S
C1500 C1501 1.366 . S
C1501 C1500 1.366 . S
C1501 C1502 1.414 . S
C1501 C1504 1.499 . S
C1502 H1476 0.950 . S
C1502 C1501 1.414 . S
C1502 C1503 1.374 . S
C1503 H1477 0.950 . S
C1503 C1499 1.385 . S
C1503 C1502 1.374 . S
C1504 C1501 1.499 . S
C1504 C1505 1.373 . S
C1504 C1506 1.389 . S
C1505 H1478 0.950 . S
C1505 C1491 1.377 . S
C1505 C1504 1.373 . S
C1506 C1490 1.377 . S
C1506 C1504 1.389 . S
C1506 C1507 1.524 . S
C1507 C1506 1.524 . S
C1507 C1508 1.397 . S
C1507 C1512 1.363 . S
C1508 H1479 0.950 . S
C1508 C1507 1.397 . S
C1508 C1509 1.334 . S
C1509 H1480 0.950 . S
C1509 C1508 1.334 . S
C1509 C1510 1.287 . S
C1510 C1509 1.287 . S
C1510 C1511 1.524 . S
C1510 H1513 0.999 . S
C1511 H1481 0.950 . S
C1511 C1510 1.524 . S
C1511 C1512 1.415 . S
C1512 H1482 0.950 . S
C1512 C1507 1.363 . S
C1512 C1511 1.415 . S
H1513 C1510 0.999 . S
H1514 C1495 0.913 . S
H1515 C1533 0.951 . S
H1516 C1535 0.951 . S
H1517 C1537 0.950 . S
H1518 C1538 0.950 . S
H1519 C1540 0.950 . S
H1520 C1543 0.950 . S
H1521 C1544 0.950 . S
H1522 C1546 0.950 . S
H1523 C1547 0.950 . S
H1524 C1548 0.951 . S
H1525 C1550 0.951 . S
H1526 C1552 0.950 . S
H1527 C1553 0.950 . S
H1528 C1555 0.950 . S
H1529 C1558 0.950 . S
H1530 C1559 0.950 . S
H1531 C1561 0.950 . S
H1532 C1562 0.950 . S
C1533 H1515 0.951 . S
C1533 C1534 1.366 . S
C1533 C1535 1.388 . S
C1534 C1533 1.366 . S
C1534 C1538 1.385 . S
C1535 H1516 0.951 . S
C1535 C1533 1.388 . S
C1535 C1536 1.366 . S
C1536 C1535 1.366 . S
C1536 C1537 1.414 . S
C1536 C1539 1.499 . S
C1537 H1517 0.950 . S
C1537 C1536 1.414 . S
C1537 C1538 1.374 . S
C1538 H1518 0.950 . S
C1538 C1534 1.385 . S
C1538 C1537 1.374 . S
C1539 C1536 1.499 . S
C1539 C1540 1.373 . S
C1539 C1541 1.389 . S
C1540 H1519 0.950 . S
C1540 C1539 1.373 . S
C1540 C1556 1.377 . S
C1541 C1539 1.389 . S
C1541 C1542 1.524 . S
C1541 C1555 1.377 . S
C1542 C1541 1.524 . S
C1542 C1543 1.397 . S
C1542 C1547 1.363 . S
C1543 H1520 0.950 . S
C1543 C1542 1.397 . S
C1543 C1544 1.334 . S
C1544 H1521 0.950 . S
C1544 C1543 1.334 . S
C1544 C1545 1.287 . S
C1545 C1544 1.287 . S
C1545 C1546 1.524 . S
C1545 H1564 0.913 . S
C1546 H1522 0.950 . S
C1546 C1545 1.524 . S
C1546 C1547 1.415 . S
C1547 H1523 0.950 . S
C1547 C1542 1.363 . S
C1547 C1546 1.415 . S
C1548 H1524 0.951 . S
C1548 C1549 1.366 . S
C1548 C1550 1.388 . S
C1549 C1548 1.366 . S
C1549 C1553 1.385 . S
C1550 H1525 0.951 . S
C1550 C1548 1.388 . S
C1550 C1551 1.366 . S
C1551 C1550 1.366 . S
C1551 C1552 1.414 . S
C1551 C1554 1.499 . S
C1552 H1526 0.950 . S
C1552 C1551 1.414 . S
C1552 C1553 1.374 . S
C1553 H1527 0.950 . S
C1553 C1549 1.385 . S
C1553 C1552 1.374 . S
C1554 C1551 1.499 . S
C1554 C1555 1.373 . S
C1554 C1556 1.389 . S
C1555 H1528 0.950 . S
C1555 C1541 1.377 . S
C1555 C1554 1.373 . S
C1556 C1540 1.377 . S
C1556 C1554 1.389 . S
C1556 C1557 1.524 . S
C1557 C1556 1.524 . S
C1557 C1558 1.397 . S
C1557 C1562 1.363 . S
C1558 H1529 0.950 . S
C1558 C1557 1.397 . S
C1558 C1559 1.334 . S
C1559 H1530 0.950 . S
C1559 C1558 1.334 . S
C1559 C1560 1.287 . S
C1560 C1559 1.287 . S
C1560 C1561 1.524 . S
C1560 H1563 0.999 . S
C1561 H1531 0.950 . S
C1561 C1560 1.524 . S
C1561 C1562 1.415 . S
C1562 H1532 0.950 . S
C1562 C1557 1.363 . S
C1562 C1561 1.415 . S
H1563 C1560 0.999 . S
H1564 C1545 0.913 . S
H1565 C1583 0.951 . S
H1566 C1585 0.951 . S
H1567 C1587 0.950 . S
H1568 C1588 0.950 . S
H1569 C1590 0.950 . S
H1570 C1593 0.950 . S
H1571 C1594 0.950 . S
H1572 C1596 0.950 . S
H1573 C1597 0.950 . S
H1574 C1598 0.951 . S
H1575 C1600 0.951 . S
H1576 C1602 0.950 . S
H1577 C1603 0.950 . S
H1578 C1605 0.950 . S
H1579 C1608 0.950 . S
H1580 C1609 0.950 . S
H1581 C1611 0.950 . S
H1582 C1612 0.950 . S
C1583 H1565 0.951 . S
C1583 C1584 1.366 . S
C1583 C1585 1.388 . S
C1584 C1583 1.366 . S
C1584 C1588 1.385 . S
C1585 H1566 0.951 . S
C1585 C1583 1.388 . S
C1585 C1586 1.366 . S
C1586 C1585 1.366 . S
C1586 C1587 1.414 . S
C1586 C1589 1.499 . S
C1587 H1567 0.950 . S
C1587 C1586 1.414 . S
C1587 C1588 1.374 . S
C1588 H1568 0.950 . S
C1588 C1584 1.385 . S
C1588 C1587 1.374 . S
C1589 C1586 1.499 . S
C1589 C1590 1.373 . S
C1589 C1591 1.389 . S
C1590 H1569 0.950 . S
C1590 C1589 1.373 . S
C1590 C1606 1.377 . S
C1591 C1589 1.389 . S
C1591 C1592 1.524 . S
C1591 C1605 1.377 . S
C1592 C1591 1.524 . S
C1592 C1593 1.397 . S
C1592 C1597 1.363 . S
C1593 H1570 0.950 . S
C1593 C1592 1.397 . S
C1593 C1594 1.334 . S
C1594 H1571 0.950 . S
C1594 C1593 1.334 . S
C1594 C1595 1.287 . S
C1595 C1594 1.287 . S
C1595 C1596 1.524 . S
C1595 H1614 0.913 . S
C1596 H1572 0.950 . S
C1596 C1595 1.524 . S
C1596 C1597 1.415 . S
C1597 H1573 0.950 . S
C1597 C1592 1.363 . S
C1597 C1596 1.415 . S
C1598 H1574 0.951 . S
C1598 C1599 1.366 . S
C1598 C1600 1.388 . S
C1599 C1598 1.366 . S
C1599 C1603 1.385 . S
C1600 H1575 0.951 . S
C1600 C1598 1.388 . S
C1600 C1601 1.366 . S
C1601 C1600 1.366 . S
C1601 C1602 1.414 . S
C1601 C1604 1.499 . S
C1602 H1576 0.950 . S
C1602 C1601 1.414 . S
C1602 C1603 1.374 . S
C1603 H1577 0.950 . S
C1603 C1599 1.385 . S
C1603 C1602 1.374 . S
C1604 C1601 1.499 . S
C1604 C1605 1.373 . S
C1604 C1606 1.389 . S
C1605 H1578 0.950 . S
C1605 C1591 1.377 . S
C1605 C1604 1.373 . S
C1606 C1590 1.377 . S
C1606 C1604 1.389 . S
C1606 C1607 1.524 . S
C1607 C1606 1.524 . S
C1607 C1608 1.397 . S
C1607 C1612 1.363 . S
C1608 H1579 0.950 . S
C1608 C1607 1.397 . S
C1608 C1609 1.334 . S
C1609 H1580 0.950 . S
C1609 C1608 1.334 . S
C1609 C1610 1.287 . S
C1610 C1609 1.287 . S
C1610 C1611 1.524 . S
C1610 H1613 0.999 . S
C1611 H1581 0.950 . S
C1611 C1610 1.524 . S
C1611 C1612 1.415 . S
C1612 H1582 0.950 . S
C1612 C1607 1.363 . S
C1612 C1611 1.415 . S
H1613 C1610 0.999 . S
H1614 C1595 0.913 . S
H1615 C1633 0.951 . S
H1616 C1635 0.951 . S
H1617 C1637 0.950 . S
H1618 C1638 0.950 . S
H1619 C1640 0.950 . S
H1620 C1643 0.950 . S
H1621 C1644 0.950 . S
H1622 C1646 0.950 . S
H1623 C1647 0.950 . S
H1624 C1648 0.951 . S
H1625 C1650 0.951 . S
H1626 C1652 0.950 . S
H1627 C1653 0.950 . S
H1628 C1655 0.950 . S
H1629 C1658 0.950 . S
H1630 C1659 0.950 . S
H1631 C1661 0.950 . S
H1632 C1662 0.950 . S
C1633 H1615 0.951 . S
C1633 C1634 1.366 . S
C1633 C1635 1.388 . S
C1634 C1633 1.366 . S
C1634 C1638 1.385 . S
C1635 H1616 0.951 . S
C1635 C1633 1.388 . S
C1635 C1636 1.366 . S
C1636 C1635 1.366 . S
C1636 C1637 1.414 . S
C1636 C1639 1.499 . S
C1637 H1617 0.950 . S
C1637 C1636 1.414 . S
C1637 C1638 1.374 . S
C1638 H1618 0.950 . S
C1638 C1634 1.385 . S
C1638 C1637 1.374 . S
C1639 C1636 1.499 . S
C1639 C1640 1.373 . S
C1639 C1641 1.389 . S
C1640 H1619 0.950 . S
C1640 C1639 1.373 . S
C1640 C1656 1.377 . S
C1641 C1639 1.389 . S
C1641 C1642 1.524 . S
C1641 C1655 1.377 . S
C1642 C1641 1.524 . S
C1642 C1643 1.397 . S
C1642 C1647 1.363 . S
C1643 H1620 0.950 . S
C1643 C1642 1.397 . S
C1643 C1644 1.334 . S
C1644 H1621 0.950 . S
C1644 C1643 1.334 . S
C1644 C1645 1.287 . S
C1645 C1644 1.287 . S
C1645 C1646 1.524 . S
C1645 H1664 0.913 . S
C1646 H1622 0.950 . S
C1646 C1645 1.524 . S
C1646 C1647 1.415 . S
C1647 H1623 0.950 . S
C1647 C1642 1.363 . S
C1647 C1646 1.415 . S
C1648 H1624 0.951 . S
C1648 C1649 1.366 . S
C1648 C1650 1.388 . S
C1649 C1648 1.366 . S
C1649 C1653 1.385 . S
C1650 H1625 0.951 . S
C1650 C1648 1.388 . S
C1650 C1651 1.366 . S
C1651 C1650 1.366 . S
C1651 C1652 1.414 . S
C1651 C1654 1.499 . S
C1652 H1626 0.950 . S
C1652 C1651 1.414 . S
C1652 C1653 1.374 . S
C1653 H1627 0.950 . S
C1653 C1649 1.385 . S
C1653 C1652 1.374 . S
C1654 C1651 1.499 . S
C1654 C1655 1.373 . S
C1654 C1656 1.389 . S
C1655 H1628 0.950 . S
C1655 C1641 1.377 . S
C1655 C1654 1.373 . S
C1656 C1640 1.377 . S
C1656 C1654 1.389 . S
C1656 C1657 1.524 . S
C1657 C1656 1.524 . S
C1657 C1658 1.397 . S
C1657 C1662 1.363 . S
C1658 H1629 0.950 . S
C1658 C1657 1.397 . S
C1658 C1659 1.334 . S
C1659 H1630 0.950 . S
C1659 C1658 1.334 . S
C1659 C1660 1.287 . S
C1660 C1659 1.287 . S
C1660 C1661 1.524 . S
C1660 H1663 0.999 . S
C1661 H1631 0.950 . S
C1661 C1660 1.524 . S
C1661 C1662 1.415 . S
C1662 H1632 0.950 . S
C1662 C1657 1.363 . S
C1662 C1661 1.415 . S
H1663 C1660 0.999 . S
H1664 C1645 0.913 . S
H1665 C1683 0.951 . S
H1666 C1685 0.951 . S
H1667 C1687 0.950 . S
H1668 C1688 0.950 . S
H1669 C1690 0.950 . S
H1670 C1693 0.950 . S
H1671 C1694 0.950 . S
H1672 C1696 0.950 . S
H1673 C1697 0.950 . S
H1674 C1698 0.951 . S
H1675 C1700 0.951 . S
H1676 C1702 0.950 . S
H1677 C1703 0.950 . S
H1678 C1705 0.950 . S
H1679 C1708 0.950 . S
H1680 C1709 0.950 . S
H1681 C1711 0.950 . S
H1682 C1712 0.950 . S
C1683 H1665 0.951 . S
C1683 C1684 1.366 . S
C1683 C1685 1.388 . S
C1684 C1683 1.366 . S
C1684 C1688 1.385 . S
C1685 H1666 0.951 . S
C1685 C1683 1.388 . S
C1685 C1686 1.366 . S
C1686 C1685 1.366 . S
C1686 C1687 1.414 . S
C1686 C1689 1.499 . S
C1687 H1667 0.950 . S
C1687 C1686 1.414 . S
C1687 C1688 1.374 . S
C1688 H1668 0.950 . S
C1688 C1684 1.385 . S
C1688 C1687 1.374 . S
C1689 C1686 1.499 . S
C1689 C1690 1.373 . S
C1689 C1691 1.389 . S
C1690 H1669 0.950 . S
C1690 C1689 1.373 . S
C1690 C1706 1.377 . S
C1691 C1689 1.389 . S
C1691 C1692 1.524 . S
C1691 C1705 1.377 . S
C1692 C1691 1.524 . S
C1692 C1693 1.397 . S
C1692 C1697 1.363 . S
C1693 H1670 0.950 . S
C1693 C1692 1.397 . S
C1693 C1694 1.334 . S
C1694 H1671 0.950 . S
C1694 C1693 1.334 . S
C1694 C1695 1.287 . S
C1695 C1694 1.287 . S
C1695 C1696 1.524 . S
C1695 H1714 0.913 . S
C1696 H1672 0.950 . S
C1696 C1695 1.524 . S
C1696 C1697 1.415 . S
C1697 H1673 0.950 . S
C1697 C1692 1.363 . S
C1697 C1696 1.415 . S
C1698 H1674 0.951 . S
C1698 C1699 1.366 . S
C1698 C1700 1.388 . S
C1699 C1698 1.366 . S
C1699 C1703 1.385 . S
C1700 H1675 0.951 . S
C1700 C1698 1.388 . S
C1700 C1701 1.366 . S
C1701 C1700 1.366 . S
C1701 C1702 1.414 . S
C1701 C1704 1.499 . S
C1702 H1676 0.950 . S
C1702 C1701 1.414 . S
C1702 C1703 1.374 . S
C1703 H1677 0.950 . S
C1703 C1699 1.385 . S
C1703 C1702 1.374 . S
C1704 C1701 1.499 . S
C1704 C1705 1.373 . S
C1704 C1706 1.389 . S
C1705 H1678 0.950 . S
C1705 C1691 1.377 . S
C1705 C1704 1.373 . S
C1706 C1690 1.377 . S
C1706 C1704 1.389 . S
C1706 C1707 1.524 . S
C1707 C1706 1.524 . S
C1707 C1708 1.397 . S
C1707 C1712 1.363 . S
C1708 H1679 0.950 . S
C1708 C1707 1.397 . S
C1708 C1709 1.334 . S
C1709 H1680 0.950 . S
C1709 C1708 1.334 . S
C1709 C1710 1.287 . S
C1710 C1709 1.287 . S
C1710 C1711 1.524 . S
C1710 H1713 0.999 . S
C1711 H1681 0.950 . S
C1711 C1710 1.524 . S
C1711 C1712 1.415 . S
C1712 H1682 0.950 . S
C1712 C1707 1.363 . S
C1712 C1711 1.415 . S
H1713 C1710 0.999 . S
H1714 C1695 0.913 . S
H1715 C1733 0.951 . S
H1716 C1735 0.951 . S
H1717 C1737 0.950 . S
H1718 C1738 0.950 . S
H1719 C1740 0.950 . S
H1720 C1743 0.950 . S
H1721 C1744 0.950 . S
H1722 C1746 0.950 . S
H1723 C1747 0.950 . S
H1724 C1748 0.951 . S
H1725 C1750 0.951 . S
H1726 C1752 0.950 . S
H1727 C1753 0.950 . S
H1728 C1755 0.950 . S
H1729 C1758 0.950 . S
H1730 C1759 0.950 . S
H1731 C1761 0.950 . S
H1732 C1762 0.950 . S
C1733 H1715 0.951 . S
C1733 C1734 1.366 . S
C1733 C1735 1.388 . S
C1734 C1733 1.366 . S
C1734 C1738 1.385 . S
C1735 H1716 0.951 . S
C1735 C1733 1.388 . S
C1735 C1736 1.366 . S
C1736 C1735 1.366 . S
C1736 C1737 1.414 . S
C1736 C1739 1.499 . S
C1737 H1717 0.950 . S
C1737 C1736 1.414 . S
C1737 C1738 1.374 . S
C1738 H1718 0.950 . S
C1738 C1734 1.385 . S
C1738 C1737 1.374 . S
C1739 C1736 1.499 . S
C1739 C1740 1.373 . S
C1739 C1741 1.389 . S
C1740 H1719 0.950 . S
C1740 C1739 1.373 . S
C1740 C1756 1.377 . S
C1741 C1739 1.389 . S
C1741 C1742 1.524 . S
C1741 C1755 1.377 . S
C1742 C1741 1.524 . S
C1742 C1743 1.397 . S
C1742 C1747 1.363 . S
C1743 H1720 0.950 . S
C1743 C1742 1.397 . S
C1743 C1744 1.334 . S
C1744 H1721 0.950 . S
C1744 C1743 1.334 . S
C1744 C1745 1.287 . S
C1745 C1744 1.287 . S
C1745 C1746 1.524 . S
C1745 H1764 0.913 . S
C1746 H1722 0.950 . S
C1746 C1745 1.524 . S
C1746 C1747 1.415 . S
C1747 H1723 0.950 . S
C1747 C1742 1.363 . S
C1747 C1746 1.415 . S
C1748 H1724 0.951 . S
C1748 C1749 1.366 . S
C1748 C1750 1.388 . S
C1749 C1748 1.366 . S
C1749 C1753 1.385 . S
C1750 H1725 0.951 . S
C1750 C1748 1.388 . S
C1750 C1751 1.366 . S
C1751 C1750 1.366 . S
C1751 C1752 1.414 . S
C1751 C1754 1.499 . S
C1752 H1726 0.950 . S
C1752 C1751 1.414 . S
C1752 C1753 1.374 . S
C1753 H1727 0.950 . S
C1753 C1749 1.385 . S
C1753 C1752 1.374 . S
C1754 C1751 1.499 . S
C1754 C1755 1.373 . S
C1754 C1756 1.389 . S
C1755 H1728 0.950 . S
C1755 C1741 1.377 . S
C1755 C1754 1.373 . S
C1756 C1740 1.377 . S
C1756 C1754 1.389 . S
C1756 C1757 1.524 . S
C1757 C1756 1.524 . S
C1757 C1758 1.397 . S
C1757 C1762 1.363 . S
C1758 H1729 0.950 . S
C1758 C1757 1.397 . S
C1758 C1759 1.334 . S
C1759 H1730 0.950 . S
C1759 C1758 1.334 . S
C1759 C1760 1.287 . S
C1760 C1759 1.287 . S
C1760 C1761 1.524 . S
C1760 H1763 0.999 . S
C1761 H1731 0.950 . S
C1761 C1760 1.524 . S
C1761 C1762 1.415 . S
C1762 H1732 0.950 . S
C1762 C1757 1.363 . S
C1762 C1761 1.415 . S
H1763 C1760 0.999 . S
H1764 C1745 0.913 . S
H1765 C1783 0.951 . S
H1766 C1785 0.951 . S
H1767 C1787 0.950 . S
H1768 C1788 0.950 . S
H1769 C1790 0.950 . S
H1770 C1793 0.950 . S
H1771 C1794 0.950 . S
H1772 C1796 0.950 . S
H1773 C1797 0.950 . S
H1774 C1798 0.951 . S
H1775 C1800 0.951 . S
H1776 C1802 0.950 . S
H1777 C1803 0.950 . S
H1778 C1805 0.950 . S
H1779 C1808 0.950 . S
H1780 C1809 0.950 . S
H1781 C1811 0.950 . S
H1782 C1812 0.950 . S
C1783 H1765 0.951 . S
C1783 C1784 1.366 . S
C1783 C1785 1.388 . S
C1784 C1783 1.366 . S
C1784 C1788 1.385 . S
C1785 H1766 0.951 . S
C1785 C1783 1.388 . S
C1785 C1786 1.366 . S
C1786 C1785 1.366 . S
C1786 C1787 1.414 . S
C1786 C1789 1.499 . S
C1787 H1767 0.950 . S
C1787 C1786 1.414 . S
C1787 C1788 1.374 . S
C1788 H1768 0.950 . S
C1788 C1784 1.385 . S
C1788 C1787 1.374 . S
C1789 C1786 1.499 . S
C1789 C1790 1.373 . S
C1789 C1791 1.389 . S
C1790 H1769 0.950 . S
C1790 C1789 1.373 . S
C1790 C1806 1.377 . S
C1791 C1789 1.389 . S
C1791 C1792 1.524 . S
C1791 C1805 1.377 . S
C1792 C1791 1.524 . S
C1792 C1793 1.397 . S
C1792 C1797 1.363 . S
C1793 H1770 0.950 . S
C1793 C1792 1.397 . S
C1793 C1794 1.334 . S
C1794 H1771 0.950 . S
C1794 C1793 1.334 . S
C1794 C1795 1.287 . S
C1795 C1794 1.287 . S
C1795 C1796 1.524 . S
C1795 H1814 0.913 . S
C1796 H1772 0.950 . S
C1796 C1795 1.524 . S
C1796 C1797 1.415 . S
C1797 H1773 0.950 . S
C1797 C1792 1.363 . S
C1797 C1796 1.415 . S
C1798 H1774 0.951 . S
C1798 C1799 1.366 . S
C1798 C1800 1.388 . S
C1799 C1798 1.366 . S
C1799 C1803 1.385 . S
C1800 H1775 0.951 . S
C1800 C1798 1.388 . S
C1800 C1801 1.366 . S
C1801 C1800 1.366 . S
C1801 C1802 1.414 . S
C1801 C1804 1.499 . S
C1802 H1776 0.950 . S
C1802 C1801 1.414 . S
C1802 C1803 1.374 . S
C1803 H1777 0.950 . S
C1803 C1799 1.385 . S
C1803 C1802 1.374 . S
C1804 C1801 1.499 . S
C1804 C1805 1.373 . S
C1804 C1806 1.389 . S
C1805 H1778 0.950 . S
C1805 C1791 1.377 . S
C1805 C1804 1.373 . S
C1806 C1790 1.377 . S
C1806 C1804 1.389 . S
C1806 C1807 1.524 . S
C1807 C1806 1.524 . S
C1807 C1808 1.397 . S
C1807 C1812 1.363 . S
C1808 H1779 0.950 . S
C1808 C1807 1.397 . S
C1808 C1809 1.334 . S
C1809 H1780 0.950 . S
C1809 C1808 1.334 . S
C1809 C1810 1.287 . S
C1810 C1809 1.287 . S
C1810 C1811 1.524 . S
C1810 H1813 0.999 . S
C1811 H1781 0.950 . S
C1811 C1810 1.524 . S
C1811 C1812 1.415 . S
C1812 H1782 0.950 . S
C1812 C1807 1.363 . S
C1812 C1811 1.415 . S
H1813 C1810 0.999 . S
H1814 C1795 0.913 . S
H1815 C1833 0.951 . S
H1816 C1835 0.951 . S
H1817 C1837 0.950 . S
H1818 C1838 0.950 . S
H1819 C1840 0.950 . S
H1820 C1843 0.950 . S
H1821 C1844 0.950 . S
H1822 C1846 0.950 . S
H1823 C1847 0.950 . S
H1824 C1848 0.951 . S
H1825 C1850 0.951 . S
H1826 C1852 0.950 . S
H1827 C1853 0.950 . S
H1828 C1855 0.950 . S
H1829 C1858 0.950 . S
H1830 C1859 0.950 . S
H1831 C1861 0.950 . S
H1832 C1862 0.950 . S
C1833 H1815 0.951 . S
C1833 C1834 1.366 . S
C1833 C1835 1.388 . S
C1834 C1833 1.366 . S
C1834 C1838 1.385 . S
C1835 H1816 0.951 . S
C1835 C1833 1.388 . S
C1835 C1836 1.366 . S
C1836 C1835 1.366 . S
C1836 C1837 1.414 . S
C1836 C1839 1.499 1_545 S
C1837 H1817 0.950 . S
C1837 C1836 1.414 . S
C1837 C1838 1.374 . S
C1838 H1818 0.950 . S
C1838 C1834 1.385 . S
C1838 C1837 1.374 . S
C1839 C1836 1.499 1_565 S
C1839 C1840 1.373 . S
C1839 C1841 1.389 . S
C1840 H1819 0.950 . S
C1840 C1839 1.373 . S
C1840 C1856 1.377 . S
C1841 C1839 1.389 . S
C1841 C1842 1.562 . S
C1841 C1855 1.377 . S
C1842 C1841 1.562 . S
C1842 C1843 1.370 1_565 S
C1842 C1847 1.355 . S
C1843 H1820 0.950 . S
C1843 C1842 1.370 1_545 S
C1843 C1844 1.334 . S
C1844 H1821 0.950 . S
C1844 C1843 1.334 . S
C1844 C1845 1.287 . S
C1845 C1844 1.287 . S
C1845 C1846 1.524 . S
C1845 H1864 0.913 . S
C1846 H1822 0.950 . S
C1846 C1845 1.524 . S
C1846 C1847 1.415 1_545 S
C1847 H1823 0.950 . S
C1847 C1842 1.355 . S
C1847 C1846 1.415 1_565 S
C1848 H1824 0.951 . S
C1848 C1849 1.366 . S
C1848 C1850 1.388 . S
C1849 C1848 1.366 . S
C1849 C1853 1.385 . S
C1850 H1825 0.951 . S
C1850 C1848 1.388 . S
C1850 C1851 1.366 . S
C1851 C1850 1.366 . S
C1851 C1852 1.414 . S
C1851 C1854 1.499 . S
C1852 H1826 0.950 . S
C1852 C1851 1.414 . S
C1852 C1853 1.374 . S
C1853 H1827 0.950 . S
C1853 C1849 1.385 . S
C1853 C1852 1.374 . S
C1854 C1851 1.499 . S
C1854 C1855 1.373 . S
C1854 C1856 1.389 . S
C1855 H1828 0.950 . S
C1855 C1841 1.377 . S
C1855 C1854 1.373 . S
C1856 C1840 1.377 . S
C1856 C1854 1.389 . S
C1856 C1857 1.524 . S
C1857 C1856 1.524 . S
C1857 C1858 1.397 . S
C1857 C1862 1.363 . S
C1858 H1829 0.950 . S
C1858 C1857 1.397 . S
C1858 C1859 1.334 . S
C1859 H1830 0.950 . S
C1859 C1858 1.334 . S
C1859 C1860 1.287 . S
C1860 C1859 1.287 . S
C1860 C1861 1.524 . S
C1860 H1863 0.999 . S
C1861 H1831 0.950 . S
C1861 C1860 1.524 . S
C1861 C1862 1.415 . S
C1862 H1832 0.950 . S
C1862 C1857 1.363 . S
C1862 C1861 1.415 . S
H1863 C1860 0.999 . S
H1864 C1845 0.913 . S
H1865 C1883 0.951 . S
H1866 C1885 0.951 . S
H1867 C1887 0.950 . S
H1868 C1888 0.950 . S
H1869 C1890 0.950 . S
H1870 C1893 0.950 . S
H1871 C1894 0.950 . S
H1872 C1896 0.950 . S
H1873 C1897 0.950 . S
H1874 C1898 0.951 . S
H1875 C1900 0.951 . S
H1876 C1902 0.950 . S
H1877 C1903 0.950 . S
H1878 C1905 0.950 . S
H1879 C1908 0.950 . S
H1880 C1909 0.950 . S
H1881 C1911 0.950 . S
H1882 C1912 0.950 . S
C1883 H1865 0.951 . S
C1883 C1884 1.366 . S
C1883 C1885 1.388 . S
C1884 C1883 1.366 . S
C1884 C1888 1.385 . S
C1885 H1866 0.951 . S
C1885 C1883 1.388 . S
C1885 C1886 1.366 . S
C1886 C1885 1.366 . S
C1886 C1887 1.414 . S
C1886 C1889 1.499 1_655 S
C1887 H1867 0.950 . S
C1887 C1886 1.414 . S
C1887 C1888 1.374 . S
C1888 H1868 0.950 . S
C1888 C1884 1.385 . S
C1888 C1887 1.374 . S
C1889 C1886 1.499 1_455 S
C1889 C1890 1.373 . S
C1889 C1891 1.389 . S
C1890 H1869 0.950 . S
C1890 C1889 1.373 . S
C1890 C1906 1.377 . S
C1891 C1889 1.389 . S
C1891 C1892 1.524 . S
C1891 C1905 1.377 . S
C1892 C1891 1.524 . S
C1892 C1893 1.397 1_455 S
C1892 C1897 1.363 . S
C1893 H1870 0.950 . S
C1893 C1892 1.397 1_655 S
C1893 C1894 1.334 . S
C1894 H1871 0.950 . S
C1894 C1893 1.334 . S
C1894 C1895 1.287 . S
C1895 C1894 1.287 . S
C1895 C1896 1.524 1_655 S
C1895 H1914 0.913 . S
C1896 H1872 0.950 . S
C1896 C1895 1.524 1_455 S
C1896 C1897 1.415 . S
C1897 H1873 0.950 . S
C1897 C1892 1.363 . S
C1897 C1896 1.415 . S
C1898 H1874 0.951 . S
C1898 C1899 1.366 . S
C1898 C1900 1.388 . S
C1899 C1898 1.366 . S
C1899 C1903 1.385 . S
C1900 H1875 0.951 . S
C1900 C1898 1.388 . S
C1900 C1901 1.366 . S
C1901 C1900 1.366 . S
C1901 C1902 1.414 . S
C1901 C1904 1.499 . S
C1902 H1876 0.950 . S
C1902 C1901 1.414 . S
C1902 C1903 1.374 . S
C1903 H1877 0.950 . S
C1903 C1899 1.385 . S
C1903 C1902 1.374 . S
C1904 C1901 1.499 . S
C1904 C1905 1.373 . S
C1904 C1906 1.389 . S
C1905 H1878 0.950 . S
C1905 C1891 1.377 . S
C1905 C1904 1.373 . S
C1906 C1890 1.377 . S
C1906 C1904 1.389 . S
C1906 C1907 1.524 . S
C1907 C1906 1.524 . S
C1907 C1908 1.397 . S
C1907 C1912 1.363 . S
C1908 H1879 0.950 . S
C1908 C1907 1.397 . S
C1908 C1909 1.334 . S
C1909 H1880 0.950 . S
C1909 C1908 1.334 . S
C1909 C1910 1.287 . S
C1910 C1909 1.287 . S
C1910 C1911 1.524 . S
C1910 H1913 0.999 . S
C1911 H1881 0.950 . S
C1911 C1910 1.524 . S
C1911 C1912 1.415 . S
C1912 H1882 0.950 . S
C1912 C1907 1.363 . S
C1912 C1911 1.415 . S
H1913 C1910 0.999 . S
H1914 C1895 0.913 . S
H1915 C1933 0.951 . S
H1916 C1935 0.951 . S
H1917 C1937 0.950 . S
H1918 C1938 0.950 . S
H1919 C1940 0.950 . S
H1920 C1943 0.950 . S
H1921 C1944 0.950 . S
H1922 C1946 0.950 . S
H1923 C1947 0.950 . S
H1924 C1948 0.951 . S
H1925 C1950 0.951 . S
H1926 C1952 0.950 . S
H1927 C1953 0.950 . S
H1928 C1955 0.950 . S
H1929 C1958 0.950 . S
H1930 C1959 0.950 . S
H1931 C1961 0.950 . S
H1932 C1962 0.950 . S
C1933 H1915 0.951 . S
C1933 C1934 1.366 . S
C1933 C1935 1.388 . S
C1934 C1933 1.366 . S
C1934 C1938 1.385 . S
C1935 H1916 0.951 . S
C1935 C1933 1.388 . S
C1935 C1936 1.366 . S
C1936 C1935 1.366 . S
C1936 C1937 1.414 . S
C1936 C1939 1.499 . S
C1937 H1917 0.950 . S
C1937 C1936 1.414 . S
C1937 C1938 1.374 . S
C1938 H1918 0.950 . S
C1938 C1934 1.385 . S
C1938 C1937 1.374 . S
C1939 C1936 1.499 . S
C1939 C1940 1.373 . S
C1939 C1941 1.389 . S
C1940 H1919 0.950 . S
C1940 C1939 1.373 . S
C1940 C1956 1.377 . S
C1941 C1939 1.389 . S
C1941 C1942 1.524 . S
C1941 C1955 1.377 . S
C1942 C1941 1.524 . S
C1942 C1943 1.397 . S
C1942 C1947 1.363 . S
C1943 H1920 0.950 . S
C1943 C1942 1.397 . S
C1943 C1944 1.334 . S
C1944 H1921 0.950 . S
C1944 C1943 1.334 . S
C1944 C1945 1.287 . S
C1945 C1944 1.287 . S
C1945 C1946 1.524 . S
C1945 H1964 0.913 . S
C1946 H1922 0.950 . S
C1946 C1945 1.524 . S
C1946 C1947 1.415 . S
C1947 H1923 0.950 . S
C1947 C1942 1.363 . S
C1947 C1946 1.415 . S
C1948 H1924 0.951 . S
C1948 C1949 1.366 . S
C1948 C1950 1.388 . S
C1949 C1948 1.366 . S
C1949 C1953 1.385 . S
C1950 H1925 0.951 . S
C1950 C1948 1.388 . S
C1950 C1951 1.366 . S
C1951 C1950 1.366 . S
C1951 C1952 1.414 . S
C1951 C1954 1.499 . S
C1952 H1926 0.950 . S
C1952 C1951 1.414 . S
C1952 C1953 1.374 . S
C1953 H1927 0.950 . S
C1953 C1949 1.385 . S
C1953 C1952 1.374 . S
C1954 C1951 1.499 . S
C1954 C1955 1.373 . S
C1954 C1956 1.389 . S
C1955 H1928 0.950 . S
C1955 C1941 1.377 . S
C1955 C1954 1.373 . S
C1956 C1940 1.377 . S
C1956 C1954 1.389 . S
C1956 C1957 1.524 . S
C1957 C1956 1.524 . S
C1957 C1958 1.397 . S
C1957 C1962 1.363 . S
C1958 H1929 0.950 . S
C1958 C1957 1.397 . S
C1958 C1959 1.334 . S
C1959 H1930 0.950 . S
C1959 C1958 1.334 . S
C1959 C1960 1.287 . S
C1960 C1959 1.287 . S
C1960 C1961 1.524 . S
C1960 H1963 0.999 . S
C1961 H1931 0.950 . S
C1961 C1960 1.524 . S
C1961 C1962 1.415 . S
C1962 H1932 0.950 . S
C1962 C1957 1.363 . S
C1962 C1961 1.415 . S
H1963 C1960 0.999 . S
H1964 C1945 0.913 . S
H1965 C1983 0.951 . S
H1966 C1985 0.951 . S
H1967 C1987 0.950 . S
H1968 C1988 0.950 . S
H1969 C1990 0.950 . S
H1970 C1993 0.950 . S
H1971 C1994 0.950 . S
H1972 C1996 0.950 . S
H1973 C1997 0.950 . S
H1974 C1998 0.951 . S
H1975 C2000 0.951 . S
H1976 C2002 0.950 . S
H1977 C2003 0.950 . S
H1978 C2005 0.950 . S
H1979 C2008 0.950 . S
H1980 C2009 0.950 . S
H1981 C2011 0.950 . S
H1982 C2012 0.950 . S
C1983 H1965 0.951 . S
C1983 C1984 1.366 . S
C1983 C1985 1.388 . S
C1984 C1983 1.366 . S
C1984 C1988 1.385 . S
C1985 H1966 0.951 . S
C1985 C1983 1.388 . S
C1985 C1986 1.366 . S
C1986 C1985 1.366 . S
C1986 C1987 1.414 . S
C1986 C1989 1.499 . S
C1987 H1967 0.950 . S
C1987 C1986 1.414 . S
C1987 C1988 1.374 . S
C1988 H1968 0.950 . S
C1988 C1984 1.385 . S
C1988 C1987 1.374 . S
C1989 C1986 1.499 . S
C1989 C1990 1.373 . S
C1989 C1991 1.389 . S
C1990 H1969 0.950 . S
C1990 C1989 1.373 . S
C1990 C2006 1.377 . S
C1991 C1989 1.389 . S
C1991 C1992 1.524 . S
C1991 C2005 1.377 . S
C1992 C1991 1.524 . S
C1992 C1993 1.397 . S
C1992 C1997 1.363 . S
C1993 H1970 0.950 . S
C1993 C1992 1.397 . S
C1993 C1994 1.334 . S
C1994 H1971 0.950 . S
C1994 C1993 1.334 . S
C1994 C1995 1.287 . S
C1995 C1994 1.287 . S
C1995 C1996 1.524 . S
C1995 H2014 0.913 . S
C1996 H1972 0.950 . S
C1996 C1995 1.524 . S
C1996 C1997 1.415 . S
C1997 H1973 0.950 . S
C1997 C1992 1.363 . S
C1997 C1996 1.415 . S
C1998 H1974 0.951 . S
C1998 C1999 1.366 . S
C1998 C2000 1.388 . S
C1999 C1998 1.366 . S
C1999 C2003 1.385 . S
C2000 H1975 0.951 . S
C2000 C1998 1.388 . S
C2000 C2001 1.366 . S
C2001 C2000 1.366 . S
C2001 C2002 1.414 . S
C2001 C2004 1.499 . S
C2002 H1976 0.950 . S
C2002 C2001 1.414 . S
C2002 C2003 1.374 . S
C2003 H1977 0.950 . S
C2003 C1999 1.385 . S
C2003 C2002 1.374 . S
C2004 C2001 1.499 . S
C2004 C2005 1.373 . S
C2004 C2006 1.389 . S
C2005 H1978 0.950 . S
C2005 C1991 1.377 . S
C2005 C2004 1.373 . S
C2006 C1990 1.377 . S
C2006 C2004 1.389 . S
C2006 C2007 1.524 . S
C2007 C2006 1.524 . S
C2007 C2008 1.397 . S
C2007 C2012 1.363 . S
C2008 H1979 0.950 . S
C2008 C2007 1.397 . S
C2008 C2009 1.334 . S
C2009 H1980 0.950 . S
C2009 C2008 1.334 . S
C2009 C2010 1.287 . S
C2010 C2009 1.287 . S
C2010 C2011 1.524 . S
C2010 H2013 0.999 . S
C2011 H1981 0.950 . S
C2011 C2010 1.524 . S
C2011 C2012 1.415 . S
C2012 H1982 0.950 . S
C2012 C2007 1.363 . S
C2012 C2011 1.415 . S
H2013 C2010 0.999 . S
H2014 C1995 0.913 . S
H2015 C2033 0.951 . S
H2016 C2035 0.951 . S
H2017 C2037 0.950 . S
H2018 C2038 0.950 . S
H2019 C2040 0.950 . S
H2020 C2043 0.950 . S
H2021 C2044 0.950 . S
H2022 C2046 0.950 . S
H2023 C2047 0.950 . S
H2024 C2048 0.951 . S
H2025 C2050 0.951 . S
H2026 C2052 0.950 . S
H2027 C2053 0.950 . S
H2028 C2055 0.950 . S
H2029 C2058 0.950 . S
H2030 C2059 0.950 . S
H2031 C2061 0.950 . S
H2032 C2062 0.950 . S
C2033 H2015 0.951 . S
C2033 C2034 1.366 . S
C2033 C2035 1.388 . S
C2034 C2033 1.366 . S
C2034 C2038 1.385 . S
C2035 H2016 0.951 . S
C2035 C2033 1.388 . S
C2035 C2036 1.366 . S
C2036 C2035 1.366 . S
C2036 C2037 1.414 . S
C2036 C2039 1.499 . S
C2037 H2017 0.950 . S
C2037 C2036 1.414 . S
C2037 C2038 1.374 . S
C2038 H2018 0.950 . S
C2038 C2034 1.385 . S
C2038 C2037 1.374 . S
C2039 C2036 1.499 . S
C2039 C2040 1.373 . S
C2039 C2041 1.389 . S
C2040 H2019 0.950 . S
C2040 C2039 1.373 . S
C2040 C2056 1.377 . S
C2041 C2039 1.389 . S
C2041 C2042 1.524 . S
C2041 C2055 1.377 . S
C2042 C2041 1.524 . S
C2042 C2043 1.397 . S
C2042 C2047 1.363 . S
C2043 H2020 0.950 . S
C2043 C2042 1.397 . S
C2043 C2044 1.334 . S
C2044 H2021 0.950 . S
C2044 C2043 1.334 . S
C2044 C2045 1.287 . S
C2045 C2044 1.287 . S
C2045 C2046 1.524 . S
C2045 H2064 0.913 . S
C2046 H2022 0.950 . S
C2046 C2045 1.524 . S
C2046 C2047 1.415 . S
C2047 H2023 0.950 . S
C2047 C2042 1.363 . S
C2047 C2046 1.415 . S
C2048 H2024 0.951 . S
C2048 C2049 1.366 . S
C2048 C2050 1.388 . S
C2049 C2048 1.366 . S
C2049 C2053 1.385 . S
C2050 H2025 0.951 . S
C2050 C2048 1.388 . S
C2050 C2051 1.366 . S
C2051 C2050 1.366 . S
C2051 C2052 1.414 . S
C2051 C2054 1.499 . S
C2052 H2026 0.950 . S
C2052 C2051 1.414 . S
C2052 C2053 1.374 . S
C2053 H2027 0.950 . S
C2053 C2049 1.385 . S
C2053 C2052 1.374 . S
C2054 C2051 1.499 . S
C2054 C2055 1.373 . S
C2054 C2056 1.389 . S
C2055 H2028 0.950 . S
C2055 C2041 1.377 . S
C2055 C2054 1.373 . S
C2056 C2040 1.377 . S
C2056 C2054 1.389 . S
C2056 C2057 1.524 . S
C2057 C2056 1.524 . S
C2057 C2058 1.397 . S
C2057 C2062 1.363 . S
C2058 H2029 0.950 . S
C2058 C2057 1.397 . S
C2058 C2059 1.334 . S
C2059 H2030 0.950 . S
C2059 C2058 1.334 . S
C2059 C2060 1.287 . S
C2060 C2059 1.287 . S
C2060 C2061 1.524 . S
C2060 H2063 0.999 . S
C2061 H2031 0.950 . S
C2061 C2060 1.524 . S
C2061 C2062 1.415 . S
C2062 H2032 0.950 . S
C2062 C2057 1.363 . S
C2062 C2061 1.415 . S
H2063 C2060 0.999 . S
H2064 C2045 0.913 . S
H2065 C2083 0.951 . S
H2066 C2085 0.951 . S
H2067 C2087 0.950 . S
H2068 C2088 0.950 . S
H2069 C2090 0.950 . S
H2070 C2093 0.950 . S
H2071 C2094 0.950 . S
H2072 C2096 0.950 . S
H2073 C2097 0.950 . S
H2074 C2098 0.951 . S
H2075 C2100 0.951 . S
H2076 C2102 0.950 . S
H2077 C2103 0.950 . S
H2078 C2105 0.950 . S
H2079 C2108 0.950 . S
H2080 C2109 0.950 . S
H2081 C2111 0.950 . S
H2082 C2112 0.950 . S
C2083 H2065 0.951 . S
C2083 C2084 1.366 . S
C2083 C2085 1.388 . S
C2084 C2083 1.366 . S
C2084 C2088 1.385 . S
C2085 H2066 0.951 . S
C2085 C2083 1.388 . S
C2085 C2086 1.366 . S
C2086 C2085 1.366 . S
C2086 C2087 1.414 . S
C2086 C2089 1.499 . S
C2087 H2067 0.950 . S
C2087 C2086 1.414 . S
C2087 C2088 1.374 . S
C2088 H2068 0.950 . S
C2088 C2084 1.385 . S
C2088 C2087 1.374 . S
C2089 C2086 1.499 . S
C2089 C2090 1.373 . S
C2089 C2091 1.389 . S
C2090 H2069 0.950 . S
C2090 C2089 1.373 . S
C2090 C2106 1.377 . S
C2091 C2089 1.389 . S
C2091 C2092 1.524 . S
C2091 C2105 1.377 . S
C2092 C2091 1.524 . S
C2092 C2093 1.397 . S
C2092 C2097 1.363 . S
C2093 H2070 0.950 . S
C2093 C2092 1.397 . S
C2093 C2094 1.334 . S
C2094 H2071 0.950 . S
C2094 C2093 1.334 . S
C2094 C2095 1.287 . S
C2095 C2094 1.287 . S
C2095 C2096 1.524 . S
C2095 H2114 0.913 . S
C2096 H2072 0.950 . S
C2096 C2095 1.524 . S
C2096 C2097 1.415 . S
C2097 H2073 0.950 . S
C2097 C2092 1.363 . S
C2097 C2096 1.415 . S
C2098 H2074 0.951 . S
C2098 C2099 1.366 . S
C2098 C2100 1.388 . S
C2099 C2098 1.366 . S
C2099 C2103 1.385 . S
C2100 H2075 0.951 . S
C2100 C2098 1.388 . S
C2100 C2101 1.366 . S
C2101 C2100 1.366 . S
C2101 C2102 1.414 . S
C2101 C2104 1.499 . S
C2102 H2076 0.950 . S
C2102 C2101 1.414 . S
C2102 C2103 1.374 . S
C2103 H2077 0.950 . S
C2103 C2099 1.385 . S
C2103 C2102 1.374 . S
C2104 C2101 1.499 . S
C2104 C2105 1.373 . S
C2104 C2106 1.389 . S
C2105 H2078 0.950 . S
C2105 C2091 1.377 . S
C2105 C2104 1.373 . S
C2106 C2090 1.377 . S
C2106 C2104 1.389 . S
C2106 C2107 1.524 . S
C2107 C2106 1.524 . S
C2107 C2108 1.397 . S
C2107 C2112 1.363 . S
C2108 H2079 0.950 . S
C2108 C2107 1.397 . S
C2108 C2109 1.334 . S
C2109 H2080 0.950 . S
C2109 C2108 1.334 . S
C2109 C2110 1.287 . S
C2110 C2109 1.287 . S
C2110 C2111 1.524 . S
C2110 H2113 0.999 . S
C2111 H2081 0.950 . S
C2111 C2110 1.524 . S
C2111 C2112 1.415 . S
C2112 H2082 0.950 . S
C2112 C2107 1.363 . S
C2112 C2111 1.415 . S
H2113 C2110 0.999 . S
H2114 C2095 0.913 . S
H2115 C2133 0.951 . S
H2116 C2135 0.951 . S
H2117 C2137 0.950 . S
H2118 C2138 0.950 . S
H2119 C2140 0.950 . S
H2120 C2143 0.950 . S
H2121 C2144 0.950 . S
H2122 C2146 0.950 . S
H2123 C2147 0.956 . S
H2124 C2148 0.951 . S
H2125 C2150 0.951 . S
H2126 C2152 0.950 . S
H2127 C2153 0.950 . S
H2128 C2155 0.950 . S
H2129 C2158 0.950 . S
H2130 C2159 0.950 . S
H2131 C2161 0.950 . S
H2132 C2162 0.950 . S
C2133 H2115 0.951 . S
C2133 C2134 1.366 . S
C2133 C2135 1.388 . S
C2134 C2133 1.366 . S
C2134 C2138 1.385 . S
C2135 H2116 0.951 . S
C2135 C2133 1.388 . S
C2135 C2136 1.366 . S
C2136 C2135 1.366 . S
C2136 C2137 1.414 . S
C2136 C2139 1.499 1_565 S
C2137 H2117 0.950 . S
C2137 C2136 1.414 . S
C2137 C2138 1.374 . S
C2138 H2118 0.950 . S
C2138 C2134 1.385 . S
C2138 C2137 1.374 . S
C2139 C2136 1.499 1_545 S
C2139 C2140 1.373 . S
C2139 C2141 1.389 . S
C2140 H2119 0.950 . S
C2140 C2139 1.373 . S
C2140 C2156 1.377 . S
C2141 C2139 1.389 . S
C2141 C2142 1.526 . S
C2141 C2155 1.377 . S
C2142 C2141 1.526 . S
C2142 C2143 1.397 1_545 S
C2142 C2147 1.381 . S
C2143 H2120 0.950 . S
C2143 C2142 1.397 1_565 S
C2143 C2144 1.334 . S
C2144 H2121 0.950 . S
C2144 C2143 1.334 . S
C2144 C2145 1.287 . S
C2145 C2144 1.287 . S
C2145 C2146 1.524 . S
C2145 H2164 0.913 . S
C2146 H2122 0.950 . S
C2146 C2145 1.524 . S
C2146 C2147 1.394 1_565 S
C2147 H2123 0.956 . S
C2147 C2142 1.381 . S
C2147 C2146 1.394 1_545 S
C2148 H2124 0.951 . S
C2148 C2149 1.366 . S
C2148 C2150 1.388 . S
C2149 C2148 1.366 . S
C2149 C2153 1.385 . S
C2150 H2125 0.951 . S
C2150 C2148 1.388 . S
C2150 C2151 1.366 . S
C2151 C2150 1.366 . S
C2151 C2152 1.414 . S
C2151 C2154 1.499 . S
C2152 H2126 0.950 . S
C2152 C2151 1.414 . S
C2152 C2153 1.374 . S
C2153 H2127 0.950 . S
C2153 C2149 1.385 . S
C2153 C2152 1.374 . S
C2154 C2151 1.499 . S
C2154 C2155 1.373 . S
C2154 C2156 1.389 . S
C2155 H2128 0.950 . S
C2155 C2141 1.377 . S
C2155 C2154 1.373 . S
C2156 C2140 1.377 . S
C2156 C2154 1.389 . S
C2156 C2157 1.524 . S
C2157 C2156 1.524 . S
C2157 C2158 1.397 . S
C2157 C2162 1.363 . S
C2158 H2129 0.950 . S
C2158 C2157 1.397 . S
C2158 C2159 1.334 . S
C2159 H2130 0.950 . S
C2159 C2158 1.334 . S
C2159 C2160 1.287 . S
C2160 C2159 1.287 . S
C2160 C2161 1.524 . S
C2160 H2163 0.999 . S
C2161 H2131 0.950 . S
C2161 C2160 1.524 . S
C2161 C2162 1.415 . S
C2162 H2132 0.950 . S
C2162 C2157 1.363 . S
C2162 C2161 1.415 . S
H2163 C2160 0.999 . S
H2164 C2145 0.913 . S
H2165 C2183 0.951 . S
H2166 C2185 0.951 . S
H2167 C2187 0.950 . S
H2168 C2188 0.950 . S
H2169 C2190 0.950 . S
H2170 C2193 0.950 . S
H2171 C2194 0.950 . S
H2172 C2196 0.950 . S
H2173 C2197 0.950 1_655 S
H2174 C2198 0.951 . S
H2175 C2200 0.951 . S
H2176 C2202 0.950 . S
H2177 C2203 0.950 . S
H2178 C2205 0.950 . S
H2179 C2208 0.950 . S
H2180 C2209 0.950 . S
H2181 C2211 0.950 . S
H2182 C2212 0.950 . S
C2183 H2165 0.951 . S
C2183 C2184 1.366 . S
C2183 C2185 1.388 . S
C2184 C2183 1.366 . S
C2184 C2188 1.385 . S
C2185 H2166 0.951 . S
C2185 C2183 1.388 . S
C2185 C2186 1.366 . S
C2186 C2185 1.366 . S
C2186 C2187 1.414 . S
C2186 C2189 1.499 1_455 S
C2187 H2167 0.950 . S
C2187 C2186 1.414 . S
C2187 C2188 1.374 . S
C2188 H2168 0.950 . S
C2188 C2184 1.385 . S
C2188 C2187 1.374 . S
C2189 C2186 1.499 1_655 S
C2189 C2190 1.373 . S
C2189 C2191 1.389 . S
C2190 H2169 0.950 . S
C2190 C2189 1.373 . S
C2190 C2206 1.377 . S
C2191 C2189 1.389 . S
C2191 C2192 1.524 1_655 S
C2191 C2205 1.377 . S
C2192 C2191 1.524 1_455 S
C2192 C2193 1.397 . S
C2192 C2197 1.363 . S
C2193 H2170 0.950 . S
C2193 C2192 1.397 . S
C2193 C2194 1.334 . S
C2194 H2171 0.950 . S
C2194 C2193 1.334 . S
C2194 C2195 1.287 . S
C2195 C2194 1.287 . S
C2195 C2196 1.524 . S
C2195 H2214 0.913 . S
C2196 H2172 0.950 . S
C2196 C2195 1.524 . S
C2196 C2197 1.415 . S
C2197 H2173 0.950 1_455 S
C2197 C2192 1.363 . S
C2197 C2196 1.415 . S
C2198 H2174 0.951 . S
C2198 C2199 1.366 . S
C2198 C2200 1.388 . S
C2199 C2198 1.366 . S
C2199 C2203 1.385 . S
C2200 H2175 0.951 . S
C2200 C2198 1.388 . S
C2200 C2201 1.366 . S
C2201 C2200 1.366 . S
C2201 C2202 1.414 . S
C2201 C2204 1.499 . S
C2202 H2176 0.950 . S
C2202 C2201 1.414 . S
C2202 C2203 1.374 . S
C2203 H2177 0.950 . S
C2203 C2199 1.385 . S
C2203 C2202 1.374 . S
C2204 C2201 1.499 . S
C2204 C2205 1.373 . S
C2204 C2206 1.389 . S
C2205 H2178 0.950 . S
C2205 C2191 1.377 . S
C2205 C2204 1.373 . S
C2206 C2190 1.377 . S
C2206 C2204 1.389 . S
C2206 C2207 1.524 . S
C2207 C2206 1.524 . S
C2207 C2208 1.397 . S
C2207 C2212 1.363 . S
C2208 H2179 0.950 . S
C2208 C2207 1.397 . S
C2208 C2209 1.334 . S
C2209 H2180 0.950 . S
C2209 C2208 1.334 . S
C2209 C2210 1.287 . S
C2210 C2209 1.287 . S
C2210 C2211 1.524 . S
C2210 H2213 0.999 . S
C2211 H2181 0.950 . S
C2211 C2210 1.524 . S
C2211 C2212 1.415 . S
C2212 H2182 0.950 . S
C2212 C2207 1.363 . S
C2212 C2211 1.415 . S
H2213 C2210 0.999 . S
H2214 C2195 0.913 . S
H2215 C2233 0.951 . S
H2216 C2235 0.951 . S
H2217 C2237 0.950 . S
H2218 C2238 0.950 . S
H2219 C2240 0.950 . S
H2220 C2243 0.950 . S
H2221 C2244 0.950 . S
H2222 C2246 0.950 . S
H2223 C2247 0.950 . S
H2224 C2248 0.951 . S
H2225 C2250 0.951 . S
H2226 C2252 0.950 . S
H2227 C2253 0.950 . S
H2228 C2255 0.950 . S
H2229 C2258 0.950 . S
H2230 C2259 0.950 . S
H2231 C2261 0.950 . S
H2232 C2262 0.950 . S
C2233 H2215 0.951 . S
C2233 C2234 1.366 . S
C2233 C2235 1.388 . S
C2234 C2233 1.366 . S
C2234 C2238 1.385 . S
C2235 H2216 0.951 . S
C2235 C2233 1.388 . S
C2235 C2236 1.366 . S
C2236 C2235 1.366 . S
C2236 C2237 1.414 . S
C2236 C2239 1.499 . S
C2237 H2217 0.950 . S
C2237 C2236 1.414 . S
C2237 C2238 1.374 . S
C2238 H2218 0.950 . S
C2238 C2234 1.385 . S
C2238 C2237 1.374 . S
C2239 C2236 1.499 . S
C2239 C2240 1.373 . S
C2239 C2241 1.389 . S
C2240 H2219 0.950 . S
C2240 C2239 1.373 . S
C2240 C2256 1.377 . S
C2241 C2239 1.389 . S
C2241 C2242 1.524 . S
C2241 C2255 1.377 . S
C2242 C2241 1.524 . S
C2242 C2243 1.397 . S
C2242 C2247 1.363 . S
C2243 H2220 0.950 . S
C2243 C2242 1.397 . S
C2243 C2244 1.334 . S
C2244 H2221 0.950 . S
C2244 C2243 1.334 . S
C2244 C2245 1.287 . S
C2245 C2244 1.287 . S
C2245 C2246 1.524 . S
C2245 H2264 0.913 . S
C2246 H2222 0.950 . S
C2246 C2245 1.524 . S
C2246 C2247 1.415 . S
C2247 H2223 0.950 . S
C2247 C2242 1.363 . S
C2247 C2246 1.415 . S
C2248 H2224 0.951 . S
C2248 C2249 1.366 . S
C2248 C2250 1.388 . S
C2249 C2248 1.366 . S
C2249 C2253 1.385 . S
C2250 H2225 0.951 . S
C2250 C2248 1.388 . S
C2250 C2251 1.366 . S
C2251 C2250 1.366 . S
C2251 C2252 1.414 . S
C2251 C2254 1.499 . S
C2252 H2226 0.950 . S
C2252 C2251 1.414 . S
C2252 C2253 1.374 . S
C2253 H2227 0.950 . S
C2253 C2249 1.385 . S
C2253 C2252 1.374 . S
C2254 C2251 1.499 . S
C2254 C2255 1.373 . S
C2254 C2256 1.389 . S
C2255 H2228 0.950 . S
C2255 C2241 1.377 . S
C2255 C2254 1.373 . S
C2256 C2240 1.377 . S
C2256 C2254 1.389 . S
C2256 C2257 1.524 . S
C2257 C2256 1.524 . S
C2257 C2258 1.397 . S
C2257 C2262 1.363 . S
C2258 H2229 0.950 . S
C2258 C2257 1.397 . S
C2258 C2259 1.334 . S
C2259 H2230 0.950 . S
C2259 C2258 1.334 . S
C2259 C2260 1.287 . S
C2260 C2259 1.287 . S
C2260 C2261 1.524 . S
C2260 H2263 0.999 . S
C2261 H2231 0.950 . S
C2261 C2260 1.524 . S
C2261 C2262 1.415 . S
C2262 H2232 0.950 . S
C2262 C2257 1.363 . S
C2262 C2261 1.415 . S
H2263 C2260 0.999 . S
H2264 C2245 0.913 . S
H2265 C2283 0.951 . S
H2266 C2285 0.951 . S
H2267 C2287 0.950 . S
H2268 C2288 0.950 . S
H2269 C2290 0.950 . S
H2270 C2293 0.950 . S
H2271 C2294 0.950 . S
H2272 C2296 0.950 . S
H2273 C2297 0.950 1_655 S
H2274 C2298 0.951 . S
H2275 C2300 0.951 . S
H2276 C2302 0.950 . S
H2277 C2303 0.950 . S
H2278 C2305 0.950 . S
H2279 C2308 0.950 . S
H2280 C2309 0.950 . S
H2281 C2311 0.950 . S
H2282 C2312 0.950 . S
C2283 H2265 0.951 . S
C2283 C2284 1.366 . S
C2283 C2285 1.388 . S
C2284 C2283 1.366 . S
C2284 C2288 1.385 . S
C2285 H2266 0.951 . S
C2285 C2283 1.388 . S
C2285 C2286 1.366 . S
C2286 C2285 1.366 . S
C2286 C2287 1.414 . S
C2286 C2289 1.508 . S
C2287 H2267 0.950 . S
C2287 C2286 1.414 . S
C2287 C2288 1.374 . S
C2288 H2268 0.950 . S
C2288 C2284 1.385 . S
C2288 C2287 1.374 . S
C2289 C2286 1.508 . S
C2289 C2290 1.363 1_455 S
C2289 C2291 1.390 1_455 S
C2290 H2269 0.950 . S
C2290 C2289 1.363 1_655 S
C2290 C2306 1.377 . S
C2291 C2289 1.390 1_655 S
C2291 C2292 1.524 1_655 S
C2291 C2305 1.377 . S
C2292 C2291 1.524 1_455 S
C2292 C2293 1.397 . S
C2292 C2297 1.363 . S
C2293 H2270 0.950 . S
C2293 C2292 1.397 . S
C2293 C2294 1.334 . S
C2294 H2271 0.950 . S
C2294 C2293 1.334 . S
C2294 C2295 1.287 . S
C2295 C2294 1.287 . S
C2295 C2296 1.524 . S
C2295 H2314 0.913 . S
C2296 H2272 0.950 . S
C2296 C2295 1.524 . S
C2296 C2297 1.415 . S
C2297 H2273 0.950 1_455 S
C2297 C2292 1.363 . S
C2297 C2296 1.415 . S
C2298 H2274 0.951 . S
C2298 C2299 1.366 . S
C2298 C2300 1.388 . S
C2299 C2298 1.366 . S
C2299 C2303 1.385 . S
C2300 H2275 0.951 . S
C2300 C2298 1.388 . S
C2300 C2301 1.366 . S
C2301 C2300 1.366 . S
C2301 C2302 1.414 . S
C2301 C2304 1.499 . S
C2302 H2276 0.950 . S
C2302 C2301 1.414 . S
C2302 C2303 1.374 . S
C2303 H2277 0.950 . S
C2303 C2299 1.385 . S
C2303 C2302 1.374 . S
C2304 C2301 1.499 . S
C2304 C2305 1.373 . S
C2304 C2306 1.389 . S
C2305 H2278 0.950 . S
C2305 C2291 1.377 . S
C2305 C2304 1.373 . S
C2306 C2290 1.377 . S
C2306 C2304 1.389 . S
C2306 C2307 1.524 . S
C2307 C2306 1.524 . S
C2307 C2308 1.397 . S
C2307 C2312 1.363 . S
C2308 H2279 0.950 . S
C2308 C2307 1.397 . S
C2308 C2309 1.334 . S
C2309 H2280 0.950 . S
C2309 C2308 1.334 . S
C2309 C2310 1.287 . S
C2310 C2309 1.287 . S
C2310 C2311 1.524 . S
C2310 H2313 0.999 . S
C2311 H2281 0.950 . S
C2311 C2310 1.524 . S
C2311 C2312 1.415 . S
C2312 H2282 0.950 . S
C2312 C2307 1.363 . S
C2312 C2311 1.415 . S
H2313 C2310 0.999 . S
H2314 C2295 0.913 . S
H2315 C2333 0.951 . S
H2316 C2335 0.951 . S
H2317 C2337 0.950 . S
H2318 C2338 0.950 . S
H2319 C2340 0.950 . S
H2320 C2343 0.950 . S
H2321 C2344 0.950 . S
H2322 C2346 0.950 . S
H2323 C2347 0.950 . S
H2324 C2348 0.951 . S
H2325 C2350 0.951 . S
H2326 C2352 0.950 . S
H2327 C2353 0.950 . S
H2328 C2355 0.950 . S
H2329 C2358 0.950 . S
H2330 C2359 0.950 . S
H2331 C2361 0.950 . S
H2332 C2362 0.950 . S
C2333 H2315 0.951 . S
C2333 C2334 1.366 . S
C2333 C2335 1.388 . S
C2334 C2333 1.366 . S
C2334 C2338 1.385 . S
C2335 H2316 0.951 . S
C2335 C2333 1.388 . S
C2335 C2336 1.366 . S
C2336 C2335 1.366 . S
C2336 C2337 1.414 . S
C2336 C2339 1.499 . S
C2337 H2317 0.950 . S
C2337 C2336 1.414 . S
C2337 C2338 1.374 . S
C2338 H2318 0.950 . S
C2338 C2334 1.385 . S
C2338 C2337 1.374 . S
C2339 C2336 1.499 . S
C2339 C2340 1.373 . S
C2339 C2341 1.389 . S
C2340 H2319 0.950 . S
C2340 C2339 1.373 . S
C2340 C2356 1.377 . S
C2341 C2339 1.389 . S
C2341 C2342 1.524 . S
C2341 C2355 1.377 . S
C2342 C2341 1.524 . S
C2342 C2343 1.397 . S
C2342 C2347 1.363 . S
C2343 H2320 0.950 . S
C2343 C2342 1.397 . S
C2343 C2344 1.334 . S
C2344 H2321 0.950 . S
C2344 C2343 1.334 . S
C2344 C2345 1.287 . S
C2345 C2344 1.287 . S
C2345 C2346 1.524 . S
C2345 H2364 0.913 . S
C2346 H2322 0.950 . S
C2346 C2345 1.524 . S
C2346 C2347 1.415 . S
C2347 H2323 0.950 . S
C2347 C2342 1.363 . S
C2347 C2346 1.415 . S
C2348 H2324 0.951 . S
C2348 C2349 1.366 . S
C2348 C2350 1.388 . S
C2349 C2348 1.366 . S
C2349 C2353 1.385 . S
C2350 H2325 0.951 . S
C2350 C2348 1.388 . S
C2350 C2351 1.366 . S
C2351 C2350 1.366 . S
C2351 C2352 1.414 . S
C2351 C2354 1.499 . S
C2352 H2326 0.950 . S
C2352 C2351 1.414 . S
C2352 C2353 1.374 . S
C2353 H2327 0.950 . S
C2353 C2349 1.385 . S
C2353 C2352 1.374 . S
C2354 C2351 1.499 . S
C2354 C2355 1.373 . S
C2354 C2356 1.389 . S
C2355 H2328 0.950 . S
C2355 C2341 1.377 . S
C2355 C2354 1.373 . S
C2356 C2340 1.377 . S
C2356 C2354 1.389 . S
C2356 C2357 1.524 . S
C2357 C2356 1.524 . S
C2357 C2358 1.397 . S
C2357 C2362 1.363 . S
C2358 H2329 0.950 . S
C2358 C2357 1.397 . S
C2358 C2359 1.334 . S
C2359 H2330 0.950 . S
C2359 C2358 1.334 . S
C2359 C2360 1.287 . S
C2360 C2359 1.287 . S
C2360 C2361 1.524 . S
C2360 H2363 0.999 . S
C2361 H2331 0.950 . S
C2361 C2360 1.524 . S
C2361 C2362 1.415 . S
C2362 H2332 0.950 . S
C2362 C2357 1.363 . S
C2362 C2361 1.415 . S
H2363 C2360 0.999 . S
H2364 C2345 0.913 . S
H2365 C2383 0.951 . S
H2366 C2385 0.951 . S
H2367 C2387 0.950 . S
H2368 C2388 0.950 . S
H2369 C2390 0.950 . S
H2370 C2393 0.950 . S
H2371 C2394 0.950 . S
H2372 C2396 0.950 . S
H2373 C2397 0.950 . S
H2374 C2398 0.951 . S
H2375 C2400 0.951 . S
H2376 C2402 0.950 . S
H2377 C2403 0.950 . S
H2378 C2405 0.950 . S
H2379 C2408 0.950 . S
H2380 C2409 0.950 . S
H2381 C2411 0.950 . S
H2382 C2412 0.950 . S
C2383 H2365 0.951 . S
C2383 C2384 1.366 . S
C2383 C2385 1.388 . S
C2384 C2383 1.366 . S
C2384 C2388 1.385 . S
C2385 H2366 0.951 . S
C2385 C2383 1.388 . S
C2385 C2386 1.366 . S
C2386 C2385 1.366 . S
C2386 C2387 1.414 . S
C2386 C2389 1.499 1_565 S
C2387 H2367 0.950 . S
C2387 C2386 1.414 . S
C2387 C2388 1.374 . S
C2388 H2368 0.950 . S
C2388 C2384 1.385 . S
C2388 C2387 1.374 . S
C2389 C2386 1.499 1_545 S
C2389 C2390 1.373 . S
C2389 C2391 1.389 . S
C2390 H2369 0.950 . S
C2390 C2389 1.373 . S
C2390 C2406 1.377 . S
C2391 C2389 1.389 . S
C2391 C2392 1.524 . S
C2391 C2405 1.377 . S
C2392 C2391 1.524 . S
C2392 C2393 1.397 1_545 S
C2392 C2397 1.363 . S
C2393 H2370 0.950 . S
C2393 C2392 1.397 1_565 S
C2393 C2394 1.334 . S
C2394 H2371 0.950 . S
C2394 C2393 1.334 . S
C2394 C2395 1.287 . S
C2395 C2394 1.287 . S
C2395 C2396 1.524 . S
C2395 H2414 0.913 . S
C2396 H2372 0.950 . S
C2396 C2395 1.524 . S
C2396 C2397 1.415 1_565 S
C2397 H2373 0.950 . S
C2397 C2392 1.363 . S
C2397 C2396 1.415 1_545 S
C2398 H2374 0.951 . S
C2398 C2399 1.366 . S
C2398 C2400 1.388 . S
C2399 C2398 1.366 . S
C2399 C2403 1.385 . S
C2400 H2375 0.951 . S
C2400 C2398 1.388 . S
C2400 C2401 1.366 . S
C2401 C2400 1.366 . S
C2401 C2402 1.414 . S
C2401 C2404 1.499 . S
C2402 H2376 0.950 . S
C2402 C2401 1.414 . S
C2402 C2403 1.374 . S
C2403 H2377 0.950 . S
C2403 C2399 1.385 . S
C2403 C2402 1.374 . S
C2404 C2401 1.499 . S
C2404 C2405 1.373 . S
C2404 C2406 1.389 . S
C2405 H2378 0.950 . S
C2405 C2391 1.377 . S
C2405 C2404 1.373 . S
C2406 C2390 1.377 . S
C2406 C2404 1.389 . S
C2406 C2407 1.524 . S
C2407 C2406 1.524 . S
C2407 C2408 1.397 . S
C2407 C2412 1.363 . S
C2408 H2379 0.950 . S
C2408 C2407 1.397 . S
C2408 C2409 1.334 . S
C2409 H2380 0.950 . S
C2409 C2408 1.334 . S
C2409 C2410 1.287 . S
C2410 C2409 1.287 . S
C2410 C2411 1.524 . S
C2410 H2413 0.999 . S
C2411 H2381 0.950 . S
C2411 C2410 1.524 . S
C2411 C2412 1.415 . S
C2412 H2382 0.950 . S
C2412 C2407 1.363 . S
C2412 C2411 1.415 . S
H2413 C2410 0.999 . S
H2414 C2395 0.913 . S
H2415 C2433 0.951 . S
H2416 C2435 0.951 . S
H2417 C2437 0.950 . S
H2418 C2438 0.950 . S
H2419 C2440 0.950 . S
H2420 C2443 0.950 . S
H2421 C2444 0.950 . S
H2422 C2446 0.950 . S
H2423 C2447 0.950 . S
H2424 C2448 0.951 . S
H2425 C2450 0.951 . S
H2426 C2452 0.950 . S
H2427 C2453 0.950 . S
H2428 C2455 0.950 . S
H2429 C2458 0.950 . S
H2430 C2459 0.950 . S
H2431 C2461 0.950 . S
H2432 C2462 0.950 . S
C2433 H2415 0.951 . S
C2433 C2434 1.366 . S
C2433 C2435 1.388 . S
C2434 C2433 1.366 . S
C2434 C2438 1.385 . S
C2435 H2416 0.951 . S
C2435 C2433 1.388 . S
C2435 C2436 1.366 . S
C2436 C2435 1.366 . S
C2436 C2437 1.414 . S
C2436 C2439 1.499 . S
C2437 H2417 0.950 . S
C2437 C2436 1.414 . S
C2437 C2438 1.374 . S
C2438 H2418 0.950 . S
C2438 C2434 1.385 . S
C2438 C2437 1.374 . S
C2439 C2436 1.499 . S
C2439 C2440 1.373 . S
C2439 C2441 1.389 . S
C2440 H2419 0.950 . S
C2440 C2439 1.373 . S
C2440 C2456 1.377 . S
C2441 C2439 1.389 . S
C2441 C2442 1.524 . S
C2441 C2455 1.377 . S
C2442 C2441 1.524 . S
C2442 C2443 1.397 . S
C2442 C2447 1.363 . S
C2443 H2420 0.950 . S
C2443 C2442 1.397 . S
C2443 C2444 1.334 . S
C2444 H2421 0.950 . S
C2444 C2443 1.334 . S
C2444 C2445 1.287 . S
C2445 C2444 1.287 . S
C2445 C2446 1.524 . S
C2445 H2464 0.913 . S
C2446 H2422 0.950 . S
C2446 C2445 1.524 . S
C2446 C2447 1.415 . S
C2447 H2423 0.950 . S
C2447 C2442 1.363 . S
C2447 C2446 1.415 . S
C2448 H2424 0.951 . S
C2448 C2449 1.366 . S
C2448 C2450 1.388 . S
C2449 C2448 1.366 . S
C2449 C2453 1.385 . S
C2450 H2425 0.951 . S
C2450 C2448 1.388 . S
C2450 C2451 1.366 . S
C2451 C2450 1.366 . S
C2451 C2452 1.414 . S
C2451 C2454 1.499 . S
C2452 H2426 0.950 . S
C2452 C2451 1.414 . S
C2452 C2453 1.374 . S
C2453 H2427 0.950 . S
C2453 C2449 1.385 . S
C2453 C2452 1.374 . S
C2454 C2451 1.499 . S
C2454 C2455 1.373 . S
C2454 C2456 1.389 . S
C2455 H2428 0.950 . S
C2455 C2441 1.377 . S
C2455 C2454 1.373 . S
C2456 C2440 1.377 . S
C2456 C2454 1.389 . S
C2456 C2457 1.524 . S
C2457 C2456 1.524 . S
C2457 C2458 1.397 . S
C2457 C2462 1.363 . S
C2458 H2429 0.950 . S
C2458 C2457 1.397 . S
C2458 C2459 1.334 . S
C2459 H2430 0.950 . S
C2459 C2458 1.334 . S
C2459 C2460 1.287 . S
C2460 C2459 1.287 . S
C2460 C2461 1.524 . S
C2460 H2463 0.999 . S
C2461 H2431 0.950 . S
C2461 C2460 1.524 . S
C2461 C2462 1.415 . S
C2462 H2432 0.950 . S
C2462 C2457 1.363 . S
C2462 C2461 1.415 . S
H2463 C2460 0.999 . S
H2464 C2445 0.913 . S
H2465 C2483 0.951 . S
H2466 C2485 0.951 . S
H2467 C2487 0.950 . S
H2468 C2488 0.950 . S
H2469 C2490 0.950 . S
H2470 C2493 0.950 . S
H2471 C2494 0.950 . S
H2472 C2496 0.950 . S
H2473 C2497 0.950 . S
H2474 C2498 0.951 . S
H2475 C2500 0.951 . S
H2476 C2502 0.950 . S
H2477 C2503 0.950 . S
H2478 C2505 0.950 . S
H2479 C2508 0.950 . S
H2480 C2509 0.950 . S
H2481 C2511 0.950 . S
H2482 C2512 0.950 . S
C2483 H2465 0.951 . S
C2483 C2484 1.366 . S
C2483 C2485 1.388 . S
C2484 C2483 1.366 . S
C2484 C2488 1.385 . S
C2485 H2466 0.951 . S
C2485 C2483 1.388 . S
C2485 C2486 1.366 . S
C2486 C2485 1.366 . S
C2486 C2487 1.414 . S
C2486 C2489 1.499 . S
C2487 H2467 0.950 . S
C2487 C2486 1.414 . S
C2487 C2488 1.374 . S
C2488 H2468 0.950 . S
C2488 C2484 1.385 . S
C2488 C2487 1.374 . S
C2489 C2486 1.499 . S
C2489 C2490 1.373 . S
C2489 C2491 1.389 . S
C2490 H2469 0.950 . S
C2490 C2489 1.373 . S
C2490 C2506 1.377 . S
C2491 C2489 1.389 . S
C2491 C2492 1.524 . S
C2491 C2505 1.377 . S
C2492 C2491 1.524 . S
C2492 C2493 1.397 . S
C2492 C2497 1.363 . S
C2493 H2470 0.950 . S
C2493 C2492 1.397 . S
C2493 C2494 1.334 . S
C2494 H2471 0.950 . S
C2494 C2493 1.334 . S
C2494 C2495 1.287 . S
C2495 C2494 1.287 . S
C2495 C2496 1.524 . S
C2495 H2514 0.913 . S
C2496 H2472 0.950 . S
C2496 C2495 1.524 . S
C2496 C2497 1.415 . S
C2497 H2473 0.950 . S
C2497 C2492 1.363 . S
C2497 C2496 1.415 . S
C2498 H2474 0.951 . S
C2498 C2499 1.366 . S
C2498 C2500 1.388 . S
C2499 C2498 1.366 . S
C2499 C2503 1.385 . S
C2500 H2475 0.951 . S
C2500 C2498 1.388 . S
C2500 C2501 1.366 . S
C2501 C2500 1.366 . S
C2501 C2502 1.414 . S
C2501 C2504 1.499 . S
C2502 H2476 0.950 . S
C2502 C2501 1.414 . S
C2502 C2503 1.374 . S
C2503 H2477 0.950 . S
C2503 C2499 1.385 . S
C2503 C2502 1.374 . S
C2504 C2501 1.499 . S
C2504 C2505 1.373 . S
C2504 C2506 1.389 . S
C2505 H2478 0.950 . S
C2505 C2491 1.377 . S
C2505 C2504 1.373 . S
C2506 C2490 1.377 . S
C2506 C2504 1.389 . S
C2506 C2507 1.524 . S
C2507 C2506 1.524 . S
C2507 C2508 1.397 . S
C2507 C2512 1.363 . S
C2508 H2479 0.950 . S
C2508 C2507 1.397 . S
C2508 C2509 1.334 . S
C2509 H2480 0.950 . S
C2509 C2508 1.334 . S
C2509 C2510 1.287 . S
C2510 C2509 1.287 . S
C2510 C2511 1.524 . S
C2510 H2513 0.999 . S
C2511 H2481 0.950 . S
C2511 C2510 1.524 . S
C2511 C2512 1.415 . S
C2512 H2482 0.950 . S
C2512 C2507 1.363 . S
C2512 C2511 1.415 . S
H2513 C2510 0.999 . S
H2514 C2495 0.913 . S
H2515 C2533 0.951 . S
H2516 C2535 0.951 . S
H2517 C2537 0.950 . S
H2518 C2538 0.950 . S
H2519 C2540 0.950 . S
H2520 C2543 0.950 . S
H2521 C2544 0.950 . S
H2522 C2546 0.950 . S
H2523 C2547 0.950 . S
H2524 C2548 0.951 . S
H2525 C2550 0.951 . S
H2526 C2552 0.950 . S
H2527 C2553 0.950 . S
H2528 C2555 0.950 . S
H2529 C2558 0.950 . S
H2530 C2559 0.950 . S
H2531 C2561 0.950 . S
H2532 C2562 0.950 . S
C2533 H2515 0.951 . S
C2533 C2534 1.366 . S
C2533 C2535 1.388 . S
C2534 C2533 1.366 . S
C2534 C2538 1.385 . S
C2535 H2516 0.951 . S
C2535 C2533 1.388 . S
C2535 C2536 1.366 . S
C2536 C2535 1.366 . S
C2536 C2537 1.414 . S
C2536 C2539 1.499 . S
C2537 H2517 0.950 . S
C2537 C2536 1.414 . S
C2537 C2538 1.374 . S
C2538 H2518 0.950 . S
C2538 C2534 1.385 . S
C2538 C2537 1.374 . S
C2539 C2536 1.499 . S
C2539 C2540 1.373 . S
C2539 C2541 1.389 . S
C2540 H2519 0.950 . S
C2540 C2539 1.373 . S
C2540 C2556 1.377 . S
C2541 C2539 1.389 . S
C2541 C2542 1.524 . S
C2541 C2555 1.377 . S
C2542 C2541 1.524 . S
C2542 C2543 1.397 . S
C2542 C2547 1.363 . S
C2543 H2520 0.950 . S
C2543 C2542 1.397 . S
C2543 C2544 1.334 . S
C2544 H2521 0.950 . S
C2544 C2543 1.334 . S
C2544 C2545 1.287 . S
C2545 C2544 1.287 . S
C2545 C2546 1.524 . S
C2545 H2564 0.913 . S
C2546 H2522 0.950 . S
C2546 C2545 1.524 . S
C2546 C2547 1.415 . S
C2547 H2523 0.950 . S
C2547 C2542 1.363 . S
C2547 C2546 1.415 . S
C2548 H2524 0.951 . S
C2548 C2549 1.366 . S
C2548 C2550 1.388 . S
C2549 C2548 1.366 . S
C2549 C2553 1.385 . S
C2550 H2525 0.951 . S
C2550 C2548 1.388 . S
C2550 C2551 1.366 . S
C2551 C2550 1.366 . S
C2551 C2552 1.414 . S
C2551 C2554 1.499 . S
C2552 H2526 0.950 . S
C2552 C2551 1.414 . S
C2552 C2553 1.374 . S
C2553 H2527 0.950 . S
C2553 C2549 1.385 . S
C2553 C2552 1.374 . S
C2554 C2551 1.499 . S
C2554 C2555 1.373 . S
C2554 C2556 1.389 . S
C2555 H2528 0.950 . S
C2555 C2541 1.377 . S
C2555 C2554 1.373 . S
C2556 C2540 1.377 . S
C2556 C2554 1.389 . S
C2556 C2557 1.524 . S
C2557 C2556 1.524 . S
C2557 C2558 1.397 . S
C2557 C2562 1.363 . S
C2558 H2529 0.950 . S
C2558 C2557 1.397 . S
C2558 C2559 1.334 . S
C2559 H2530 0.950 . S
C2559 C2558 1.334 . S
C2559 C2560 1.287 . S
C2560 C2559 1.287 . S
C2560 C2561 1.524 . S
C2560 H2563 0.999 . S
C2561 H2531 0.950 . S
C2561 C2560 1.524 . S
C2561 C2562 1.415 . S
C2562 H2532 0.950 . S
C2562 C2557 1.363 . S
C2562 C2561 1.415 . S
H2563 C2560 0.999 . S
H2564 C2545 0.913 . S
H2565 C2583 0.951 . S
H2566 C2585 0.951 . S
H2567 C2587 0.950 . S
H2568 C2588 0.950 . S
H2569 C2590 0.950 . S
H2570 C2593 0.950 . S
H2571 C2594 0.950 . S
H2572 C2596 0.944 . S
H2573 C2597 0.937 1_545 S
H2574 C2598 0.951 . S
H2575 C2600 0.951 . S
H2576 C2602 0.950 . S
H2577 C2603 0.950 . S
H2578 C2605 0.950 . S
H2579 C2608 0.950 1_545 S
H2580 C2609 0.950 1_545 S
H2581 C2611 0.950 . S
H2582 C2612 0.950 . S
C2583 H2565 0.951 . S
C2583 C2584 1.366 . S
C2583 C2585 1.388 . S
C2584 C2583 1.366 . S
C2584 C2588 1.385 . S
C2585 H2566 0.951 . S
C2585 C2583 1.388 . S
C2585 C2586 1.366 . S
C2586 C2585 1.366 . S
C2586 C2587 1.414 . S
C2586 C2589 1.499 . S
C2587 H2567 0.950 . S
C2587 C2586 1.414 . S
C2587 C2588 1.374 . S
C2588 H2568 0.950 . S
C2588 C2584 1.385 . S
C2588 C2587 1.374 . S
C2589 C2586 1.499 . S
C2589 C2590 1.373 . S
C2589 C2591 1.389 . S
C2590 H2569 0.950 . S
C2590 C2589 1.373 . S
C2590 C2606 1.377 . S
C2591 C2589 1.389 . S
C2591 C2592 1.524 . S
C2591 C2605 1.377 . S
C2592 C2591 1.524 . S
C2592 C2593 1.397 . S
C2592 C2597 1.388 . S
C2593 H2570 0.950 . S
C2593 C2592 1.397 . S
C2593 C2594 1.334 . S
C2594 H2571 0.950 . S
C2594 C2593 1.334 . S
C2594 C2595 1.287 . S
C2595 C2594 1.287 . S
C2595 C2596 1.528 1_565 S
C2595 H2614 0.913 . S
C2596 H2572 0.944 . S
C2596 C2595 1.528 1_545 S
C2596 C2597 1.405 1_545 S
C2597 H2573 0.937 1_565 S
C2597 C2592 1.388 . S
C2597 C2596 1.405 1_565 S
C2598 H2574 0.951 . S
C2598 C2599 1.366 . S
C2598 C2600 1.388 . S
C2599 C2598 1.366 . S
C2599 C2603 1.385 1_565 S
C2600 H2575 0.951 . S
C2600 C2598 1.388 . S
C2600 C2601 1.366 . S
C2601 C2600 1.366 . S
C2601 C2602 1.414 1_565 S
C2601 C2604 1.499 . S
C2602 H2576 0.950 . S
C2602 C2601 1.414 1_545 S
C2602 C2603 1.374 . S
C2603 H2577 0.950 . S
C2603 C2599 1.385 1_545 S
C2603 C2602 1.374 . S
C2604 C2601 1.499 . S
C2604 C2605 1.373 . S
C2604 C2606 1.389 . S
C2605 H2578 0.950 . S
C2605 C2591 1.377 . S
C2605 C2604 1.373 . S
C2606 C2590 1.377 . S
C2606 C2604 1.389 . S
C2606 C2607 1.524 . S
C2607 C2606 1.524 . S
C2607 C2608 1.397 . S
C2607 C2612 1.363 . S
C2608 H2579 0.950 1_565 S
C2608 C2607 1.397 . S
C2608 C2609 1.334 . S
C2609 H2580 0.950 1_565 S
C2609 C2608 1.334 . S
C2609 C2610 1.287 . S
C2610 C2609 1.287 . S
C2610 C2611 1.524 . S
C2610 H2613 0.999 . S
C2611 H2581 0.950 . S
C2611 C2610 1.524 . S
C2611 C2612 1.415 . S
C2612 H2582 0.950 . S
C2612 C2607 1.363 . S
C2612 C2611 1.415 . S
H2613 C2610 0.999 . S
H2614 C2595 0.913 . S
H2615 C2633 0.951 . S
H2616 C2635 0.951 . S
H2617 C2637 0.950 . S
H2618 C2638 0.950 . S
H2619 C2640 0.950 . S
H2620 C2643 0.950 . S
H2621 C2644 0.950 . S
H2622 C2646 0.950 . S
H2623 C2647 0.950 . S
H2624 C2648 0.951 . S
H2625 C2650 0.951 . S
H2626 C2652 0.950 . S
H2627 C2653 0.950 . S
H2628 C2655 0.950 . S
H2629 C2658 0.950 . S
H2630 C2659 0.950 . S
H2631 C2661 0.950 . S
H2632 C2662 0.950 . S
C2633 H2615 0.951 . S
C2633 C2634 1.366 . S
C2633 C2635 1.388 . S
C2634 C2633 1.366 . S
C2634 C2638 1.385 . S
C2635 H2616 0.951 . S
C2635 C2633 1.388 . S
C2635 C2636 1.366 . S
C2636 C2635 1.366 . S
C2636 C2637 1.414 . S
C2636 C2639 1.499 . S
C2637 H2617 0.950 . S
C2637 C2636 1.414 . S
C2637 C2638 1.374 . S
C2638 H2618 0.950 . S
C2638 C2634 1.385 . S
C2638 C2637 1.374 . S
C2639 C2636 1.499 . S
C2639 C2640 1.373 . S
C2639 C2641 1.389 . S
C2640 H2619 0.950 . S
C2640 C2639 1.373 . S
C2640 C2656 1.377 . S
C2641 C2639 1.389 . S
C2641 C2642 1.524 . S
C2641 C2655 1.377 . S
C2642 C2641 1.524 . S
C2642 C2643 1.397 . S
C2642 C2647 1.363 . S
C2643 H2620 0.950 . S
C2643 C2642 1.397 . S
C2643 C2644 1.334 . S
C2644 H2621 0.950 . S
C2644 C2643 1.334 . S
C2644 C2645 1.287 . S
C2645 C2644 1.287 . S
C2645 C2646 1.524 . S
C2645 H2664 0.913 . S
C2646 H2622 0.950 . S
C2646 C2645 1.524 . S
C2646 C2647 1.415 . S
C2647 H2623 0.950 . S
C2647 C2642 1.363 . S
C2647 C2646 1.415 . S
C2648 H2624 0.951 . S
C2648 C2649 1.366 1_655 S
C2648 C2650 1.388 . S
C2649 C2648 1.366 1_455 S
C2649 C2653 1.385 . S
C2650 H2625 0.951 . S
C2650 C2648 1.388 . S
C2650 C2651 1.366 1_655 S
C2651 C2650 1.366 1_455 S
C2651 C2652 1.414 . S
C2651 C2654 1.499 . S
C2652 H2626 0.950 . S
C2652 C2651 1.414 . S
C2652 C2653 1.374 . S
C2653 H2627 0.950 . S
C2653 C2649 1.385 . S
C2653 C2652 1.374 . S
C2654 C2651 1.499 . S
C2654 C2655 1.373 . S
C2654 C2656 1.389 . S
C2655 H2628 0.950 . S
C2655 C2641 1.377 . S
C2655 C2654 1.373 . S
C2656 C2640 1.377 . S
C2656 C2654 1.389 . S
C2656 C2657 1.524 . S
C2657 C2656 1.524 . S
C2657 C2658 1.397 . S
C2657 C2662 1.363 1_455 S
C2658 H2629 0.950 . S
C2658 C2657 1.397 . S
C2658 C2659 1.334 . S
C2659 H2630 0.950 . S
C2659 C2658 1.334 . S
C2659 C2660 1.287 . S
C2660 C2659 1.287 . S
C2660 C2661 1.524 1_455 S
C2660 H2663 0.999 1_455 S
C2661 H2631 0.950 . S
C2661 C2660 1.524 1_655 S
C2661 C2662 1.415 . S
C2662 H2632 0.950 . S
C2662 C2657 1.363 1_655 S
C2662 C2661 1.415 . S
H2663 C2660 0.999 1_655 S
H2664 C2645 0.913 . S
H2665 C2683 0.951 . S
H2666 C2685 0.951 . S
H2667 C2687 0.950 . S
H2668 C2688 0.950 . S
H2669 C2690 0.950 . S
H2670 C2693 0.950 . S
H2671 C2694 0.950 . S
H2672 C2696 0.950 . S
H2673 C2697 0.950 . S
H2674 C2698 0.951 . S
H2675 C2700 0.951 . S
H2676 C2702 0.950 . S
H2677 C2703 0.950 . S
H2678 C2705 0.950 . S
H2679 C2708 0.950 . S
H2680 C2709 0.950 . S
H2681 C2711 0.950 . S
H2682 C2712 0.950 . S
C2683 H2665 0.951 . S
C2683 C2684 1.366 . S
C2683 C2685 1.388 . S
C2684 C2683 1.366 . S
C2684 C2688 1.385 . S
C2685 H2666 0.951 . S
C2685 C2683 1.388 . S
C2685 C2686 1.366 . S
C2686 C2685 1.366 . S
C2686 C2687 1.414 . S
C2686 C2689 1.499 . S
C2687 H2667 0.950 . S
C2687 C2686 1.414 . S
C2687 C2688 1.374 . S
C2688 H2668 0.950 . S
C2688 C2684 1.385 . S
C2688 C2687 1.374 . S
C2689 C2686 1.499 . S
C2689 C2690 1.373 . S
C2689 C2691 1.389 . S
C2690 H2669 0.950 . S
C2690 C2689 1.373 . S
C2690 C2706 1.377 . S
C2691 C2689 1.389 . S
C2691 C2692 1.524 . S
C2691 C2705 1.377 . S
C2692 C2691 1.524 . S
C2692 C2693 1.397 . S
C2692 C2697 1.363 . S
C2693 H2670 0.950 . S
C2693 C2692 1.397 . S
C2693 C2694 1.334 . S
C2694 H2671 0.950 . S
C2694 C2693 1.334 . S
C2694 C2695 1.287 . S
C2695 C2694 1.287 . S
C2695 C2696 1.524 . S
C2695 H2714 0.913 . S
C2696 H2672 0.950 . S
C2696 C2695 1.524 . S
C2696 C2697 1.415 . S
C2697 H2673 0.950 . S
C2697 C2692 1.363 . S
C2697 C2696 1.415 . S
C2698 H2674 0.951 . S
C2698 C2699 1.366 . S
C2698 C2700 1.388 . S
C2699 C2698 1.366 . S
C2699 C2703 1.385 . S
C2700 H2675 0.951 . S
C2700 C2698 1.388 . S
C2700 C2701 1.366 . S
C2701 C2700 1.366 . S
C2701 C2702 1.414 . S
C2701 C2704 1.499 . S
C2702 H2676 0.950 . S
C2702 C2701 1.414 . S
C2702 C2703 1.374 . S
C2703 H2677 0.950 . S
C2703 C2699 1.385 . S
C2703 C2702 1.374 . S
C2704 C2701 1.499 . S
C2704 C2705 1.373 . S
C2704 C2706 1.389 . S
C2705 H2678 0.950 . S
C2705 C2691 1.377 . S
C2705 C2704 1.373 . S
C2706 C2690 1.377 . S
C2706 C2704 1.389 . S
C2706 C2707 1.524 . S
C2707 C2706 1.524 . S
C2707 C2708 1.397 . S
C2707 C2712 1.363 . S
C2708 H2679 0.950 . S
C2708 C2707 1.397 . S
C2708 C2709 1.334 . S
C2709 H2680 0.950 . S
C2709 C2708 1.334 . S
C2709 C2710 1.287 . S
C2710 C2709 1.287 . S
C2710 C2711 1.524 . S
C2710 H2713 0.999 . S
C2711 H2681 0.950 . S
C2711 C2710 1.524 . S
C2711 C2712 1.415 . S
C2712 H2682 0.950 . S
C2712 C2707 1.363 . S
C2712 C2711 1.415 . S
H2713 C2710 0.999 . S
H2714 C2695 0.913 . S
H2715 C2733 0.951 . S
H2716 C2735 0.951 . S
H2717 C2737 0.950 . S
H2718 C2738 0.950 . S
H2719 C2740 0.950 . S
H2720 C2743 0.950 . S
H2721 C2744 0.950 . S
H2722 C2746 0.950 . S
H2723 C2747 0.950 . S
H2724 C2748 0.951 . S
H2725 C2750 0.951 . S
H2726 C2752 0.950 . S
H2727 C2753 0.950 . S
H2728 C2755 0.950 . S
H2729 C2758 0.950 . S
H2730 C2759 0.950 . S
H2731 C2761 0.950 . S
H2732 C2762 0.950 . S
C2733 H2715 0.951 . S
C2733 C2734 1.366 . S
C2733 C2735 1.388 . S
C2734 C2733 1.366 . S
C2734 C2738 1.385 . S
C2735 H2716 0.951 . S
C2735 C2733 1.388 . S
C2735 C2736 1.366 . S
C2736 C2735 1.366 . S
C2736 C2737 1.414 . S
C2736 C2739 1.499 . S
C2737 H2717 0.950 . S
C2737 C2736 1.414 . S
C2737 C2738 1.374 . S
C2738 H2718 0.950 . S
C2738 C2734 1.385 . S
C2738 C2737 1.374 . S
C2739 C2736 1.499 . S
C2739 C2740 1.373 . S
C2739 C2741 1.389 . S
C2740 H2719 0.950 . S
C2740 C2739 1.373 . S
C2740 C2756 1.377 . S
C2741 C2739 1.389 . S
C2741 C2742 1.524 . S
C2741 C2755 1.377 . S
C2742 C2741 1.524 . S
C2742 C2743 1.397 . S
C2742 C2747 1.363 1_655 S
C2743 H2720 0.950 . S
C2743 C2742 1.397 . S
C2743 C2744 1.334 . S
C2744 H2721 0.950 . S
C2744 C2743 1.334 . S
C2744 C2745 1.287 1_655 S
C2745 C2744 1.287 1_455 S
C2745 C2746 1.524 . S
C2745 H2764 0.913 . S
C2746 H2722 0.950 . S
C2746 C2745 1.524 . S
C2746 C2747 1.415 . S
C2747 H2723 0.950 . S
C2747 C2742 1.363 1_455 S
C2747 C2746 1.415 . S
C2748 H2724 0.951 . S
C2748 C2749 1.366 . S
C2748 C2750 1.388 . S
C2749 C2748 1.366 . S
C2749 C2753 1.385 1_655 S
C2750 H2725 0.951 . S
C2750 C2748 1.388 . S
C2750 C2751 1.366 . S
C2751 C2750 1.366 . S
C2751 C2752 1.414 1_655 S
C2751 C2754 1.499 . S
C2752 H2726 0.950 . S
C2752 C2751 1.414 1_455 S
C2752 C2753 1.374 . S
C2753 H2727 0.950 . S
C2753 C2749 1.385 1_455 S
C2753 C2752 1.374 . S
C2754 C2751 1.499 . S
C2754 C2755 1.373 . S
C2754 C2756 1.389 . S
C2755 H2728 0.950 . S
C2755 C2741 1.377 . S
C2755 C2754 1.373 . S
C2756 C2740 1.377 . S
C2756 C2754 1.389 . S
C2756 C2757 1.524 . S
C2757 C2756 1.524 . S
C2757 C2758 1.397 . S
C2757 C2762 1.363 . S
C2758 H2729 0.950 . S
C2758 C2757 1.397 . S
C2758 C2759 1.334 . S
C2759 H2730 0.950 . S
C2759 C2758 1.334 . S
C2759 C2760 1.287 . S
C2760 C2759 1.287 . S
C2760 C2761 1.524 . S
C2760 H2763 0.999 . S
C2761 H2731 0.950 . S
C2761 C2760 1.524 . S
C2761 C2762 1.415 . S
C2762 H2732 0.950 . S
C2762 C2757 1.363 . S
C2762 C2761 1.415 . S
H2763 C2760 0.999 . S
H2764 C2745 0.913 . S
H2765 C2783 0.951 . S
H2766 C2785 0.951 . S
H2767 C2787 0.950 . S
H2768 C2788 0.950 . S
H2769 C2790 0.950 . S
H2770 C2793 0.950 . S
H2771 C2794 0.950 . S
H2772 C2796 0.950 . S
H2773 C2797 0.950 . S
H2774 C2798 0.951 . S
H2775 C2800 0.951 . S
H2776 C2802 0.950 . S
H2777 C2803 0.950 . S
H2778 C2805 0.950 . S
H2779 C2808 0.950 . S
H2780 C2809 0.950 . S
H2781 C2811 0.950 . S
H2782 C2812 0.950 . S
C2783 H2765 0.951 . S
C2783 C2784 1.366 . S
C2783 C2785 1.388 . S
C2784 C2783 1.366 . S
C2784 C2788 1.385 . S
C2785 H2766 0.951 . S
C2785 C2783 1.388 . S
C2785 C2786 1.366 . S
C2786 C2785 1.366 . S
C2786 C2787 1.414 . S
C2786 C2789 1.499 . S
C2787 H2767 0.950 . S
C2787 C2786 1.414 . S
C2787 C2788 1.374 . S
C2788 H2768 0.950 . S
C2788 C2784 1.385 . S
C2788 C2787 1.374 . S
C2789 C2786 1.499 . S
C2789 C2790 1.373 . S
C2789 C2791 1.389 . S
C2790 H2769 0.950 . S
C2790 C2789 1.373 . S
C2790 C2806 1.377 . S
C2791 C2789 1.389 . S
C2791 C2792 1.524 . S
C2791 C2805 1.377 . S
C2792 C2791 1.524 . S
C2792 C2793 1.397 . S
C2792 C2797 1.363 . S
C2793 H2770 0.950 . S
C2793 C2792 1.397 . S
C2793 C2794 1.334 . S
C2794 H2771 0.950 . S
C2794 C2793 1.334 . S
C2794 C2795 1.287 . S
C2795 C2794 1.287 . S
C2795 C2796 1.524 . S
C2795 H2814 0.913 . S
C2796 H2772 0.950 . S
C2796 C2795 1.524 . S
C2796 C2797 1.415 . S
C2797 H2773 0.950 . S
C2797 C2792 1.363 . S
C2797 C2796 1.415 . S
C2798 H2774 0.951 . S
C2798 C2799 1.366 . S
C2798 C2800 1.388 . S
C2799 C2798 1.366 . S
C2799 C2803 1.385 . S
C2800 H2775 0.951 . S
C2800 C2798 1.388 . S
C2800 C2801 1.366 . S
C2801 C2800 1.366 . S
C2801 C2802 1.414 . S
C2801 C2804 1.499 . S
C2802 H2776 0.950 . S
C2802 C2801 1.414 . S
C2802 C2803 1.374 . S
C2803 H2777 0.950 . S
C2803 C2799 1.385 . S
C2803 C2802 1.374 . S
C2804 C2801 1.499 . S
C2804 C2805 1.373 . S
C2804 C2806 1.389 . S
C2805 H2778 0.950 . S
C2805 C2791 1.377 . S
C2805 C2804 1.373 . S
C2806 C2790 1.377 . S
C2806 C2804 1.389 . S
C2806 C2807 1.524 . S
C2807 C2806 1.524 . S
C2807 C2808 1.397 . S
C2807 C2812 1.363 . S
C2808 H2779 0.950 . S
C2808 C2807 1.397 . S
C2808 C2809 1.334 . S
C2809 H2780 0.950 . S
C2809 C2808 1.334 . S
C2809 C2810 1.287 . S
C2810 C2809 1.287 . S
C2810 C2811 1.524 . S
C2810 H2813 0.999 . S
C2811 H2781 0.950 . S
C2811 C2810 1.524 . S
C2811 C2812 1.415 . S
C2812 H2782 0.950 . S
C2812 C2807 1.363 . S
C2812 C2811 1.415 . S
H2813 C2810 0.999 . S
H2814 C2795 0.913 . S
H2815 C2833 0.951 . S
H2816 C2835 0.951 . S
H2817 C2837 0.950 . S
H2818 C2838 0.950 . S
H2819 C2840 0.950 . S
H2820 C2843 0.950 . S
H2821 C2844 0.950 . S
H2822 C2846 0.950 . S
H2823 C2847 0.950 . S
H2824 C2848 0.951 . S
H2825 C2850 0.951 . S
H2826 C2852 0.950 1_565 S
H2827 C2853 0.950 . S
H2828 C2855 0.950 . S
H2829 C2858 0.950 . S
H2830 C2859 0.950 . S
H2831 C2861 0.950 . S
H2832 C2862 0.950 . S
C2833 H2815 0.951 . S
C2833 C2834 1.366 . S
C2833 C2835 1.388 . S
C2834 C2833 1.366 . S
C2834 C2838 1.385 . S
C2835 H2816 0.951 . S
C2835 C2833 1.388 . S
C2835 C2836 1.366 . S
C2836 C2835 1.366 . S
C2836 C2837 1.414 . S
C2836 C2839 1.499 . S
C2837 H2817 0.950 . S
C2837 C2836 1.414 . S
C2837 C2838 1.374 . S
C2838 H2818 0.950 . S
C2838 C2834 1.385 . S
C2838 C2837 1.374 . S
C2839 C2836 1.499 . S
C2839 C2840 1.373 . S
C2839 C2841 1.389 . S
C2840 H2819 0.950 . S
C2840 C2839 1.373 . S
C2840 C2856 1.377 . S
C2841 C2839 1.389 . S
C2841 C2842 1.524 . S
C2841 C2855 1.377 . S
C2842 C2841 1.524 . S
C2842 C2843 1.397 . S
C2842 C2847 1.363 . S
C2843 H2820 0.950 . S
C2843 C2842 1.397 . S
C2843 C2844 1.334 . S
C2844 H2821 0.950 . S
C2844 C2843 1.334 . S
C2844 C2845 1.287 . S
C2845 C2844 1.287 . S
C2845 C2846 1.524 . S
C2845 H2864 0.913 . S
C2846 H2822 0.950 . S
C2846 C2845 1.524 . S
C2846 C2847 1.415 . S
C2847 H2823 0.950 . S
C2847 C2842 1.363 . S
C2847 C2846 1.415 . S
C2848 H2824 0.951 . S
C2848 C2849 1.366 . S
C2848 C2850 1.388 . S
C2849 C2848 1.366 . S
C2849 C2853 1.385 1_545 S
C2850 H2825 0.951 . S
C2850 C2848 1.388 . S
C2850 C2851 1.366 . S
C2851 C2850 1.366 . S
C2851 C2852 1.414 . S
C2851 C2854 1.499 . S
C2852 H2826 0.950 1_545 S
C2852 C2851 1.414 . S
C2852 C2853 1.374 1_545 S
C2853 H2827 0.950 . S
C2853 C2849 1.385 1_565 S
C2853 C2852 1.374 1_565 S
C2854 C2851 1.499 . S
C2854 C2855 1.373 . S
C2854 C2856 1.389 . S
C2855 H2828 0.950 . S
C2855 C2841 1.377 . S
C2855 C2854 1.373 . S
C2856 C2840 1.377 . S
C2856 C2854 1.389 . S
C2856 C2857 1.524 . S
C2857 C2856 1.524 . S
C2857 C2858 1.397 1_545 S
C2857 C2862 1.363 . S
C2858 H2829 0.950 . S
C2858 C2857 1.397 1_565 S
C2858 C2859 1.334 . S
C2859 H2830 0.950 . S
C2859 C2858 1.334 . S
C2859 C2860 1.288 . S
C2860 C2859 1.288 . S
C2860 C2861 1.507 1_565 S
C2860 H2863 1.015 . S
C2861 H2831 0.950 . S
C2861 C2860 1.507 1_545 S
C2861 C2862 1.415 . S
C2862 H2832 0.950 . S
C2862 C2857 1.363 . S
C2862 C2861 1.415 . S
H2863 C2860 1.015 . S
H2864 C2845 0.913 . S
H2865 C2883 0.951 . S
H2866 C2885 0.951 . S
H2867 C2887 0.950 . S
H2868 C2888 0.950 . S
H2869 C2890 0.950 . S
H2870 C2893 0.950 . S
H2871 C2894 0.950 . S
H2872 C2896 0.950 . S
H2873 C2897 0.950 . S
H2874 C2898 0.951 . S
H2875 C2900 0.951 . S
H2876 C2902 0.950 . S
H2877 C2903 0.950 . S
H2878 C2905 0.950 . S
H2879 C2908 0.950 . S
H2880 C2909 0.950 . S
H2881 C2911 0.950 . S
H2882 C2912 0.950 . S
C2883 H2865 0.951 . S
C2883 C2884 1.366 . S
C2883 C2885 1.388 . S
C2884 C2883 1.366 . S
C2884 C2888 1.385 . S
C2885 H2866 0.951 . S
C2885 C2883 1.388 . S
C2885 C2886 1.366 . S
C2886 C2885 1.366 . S
C2886 C2887 1.414 . S
C2886 C2889 1.499 . S
C2887 H2867 0.950 . S
C2887 C2886 1.414 . S
C2887 C2888 1.374 . S
C2888 H2868 0.950 . S
C2888 C2884 1.385 . S
C2888 C2887 1.374 . S
C2889 C2886 1.499 . S
C2889 C2890 1.373 . S
C2889 C2891 1.389 . S
C2890 H2869 0.950 . S
C2890 C2889 1.373 . S
C2890 C2906 1.377 . S
C2891 C2889 1.389 . S
C2891 C2892 1.524 . S
C2891 C2905 1.377 . S
C2892 C2891 1.524 . S
C2892 C2893 1.397 . S
C2892 C2897 1.363 . S
C2893 H2870 0.950 . S
C2893 C2892 1.397 . S
C2893 C2894 1.334 . S
C2894 H2871 0.950 . S
C2894 C2893 1.334 . S
C2894 C2895 1.287 . S
C2895 C2894 1.287 . S
C2895 C2896 1.524 . S
C2895 H2914 0.913 . S
C2896 H2872 0.950 . S
C2896 C2895 1.524 . S
C2896 C2897 1.415 . S
C2897 H2873 0.950 . S
C2897 C2892 1.363 . S
C2897 C2896 1.415 . S
C2898 H2874 0.951 . S
C2898 C2899 1.366 . S
C2898 C2900 1.388 . S
C2899 C2898 1.366 . S
C2899 C2903 1.385 . S
C2900 H2875 0.951 . S
C2900 C2898 1.388 . S
C2900 C2901 1.366 . S
C2901 C2900 1.366 . S
C2901 C2902 1.414 . S
C2901 C2904 1.499 . S
C2902 H2876 0.950 . S
C2902 C2901 1.414 . S
C2902 C2903 1.374 . S
C2903 H2877 0.950 . S
C2903 C2899 1.385 . S
C2903 C2902 1.374 . S
C2904 C2901 1.499 . S
C2904 C2905 1.373 . S
C2904 C2906 1.389 . S
C2905 H2878 0.950 . S
C2905 C2891 1.377 . S
C2905 C2904 1.373 . S
C2906 C2890 1.377 . S
C2906 C2904 1.389 . S
C2906 C2907 1.524 . S
C2907 C2906 1.524 . S
C2907 C2908 1.397 . S
C2907 C2912 1.363 . S
C2908 H2879 0.950 . S
C2908 C2907 1.397 . S
C2908 C2909 1.334 . S
C2909 H2880 0.950 . S
C2909 C2908 1.334 . S
C2909 C2910 1.287 . S
C2910 C2909 1.287 . S
C2910 C2911 1.524 . S
C2910 H2913 0.999 . S
C2911 H2881 0.950 . S
C2911 C2910 1.524 . S
C2911 C2912 1.415 . S
C2912 H2882 0.950 . S
C2912 C2907 1.363 . S
C2912 C2911 1.415 . S
H2913 C2910 0.999 . S
H2914 C2895 0.913 . S
H2915 C2933 0.951 . S
H2916 C2935 0.951 . S
H2917 C2937 0.950 . S
H2918 C2938 0.950 . S
H2919 C2940 0.950 . S
H2920 C2943 0.950 . S
H2921 C2944 0.950 . S
H2922 C2946 0.950 . S
H2923 C2947 0.950 . S
H2924 C2948 0.951 . S
H2925 C2950 0.951 . S
H2926 C2952 0.950 . S
H2927 C2953 0.950 . S
H2928 C2955 0.950 . S
H2929 C2958 0.950 . S
H2930 C2959 0.950 . S
H2931 C2961 0.950 . S
H2932 C2962 0.950 . S
C2933 H2915 0.951 . S
C2933 C2934 1.366 . S
C2933 C2935 1.388 . S
C2934 C2933 1.366 . S
C2934 C2938 1.385 . S
C2935 H2916 0.951 . S
C2935 C2933 1.388 . S
C2935 C2936 1.366 . S
C2936 C2935 1.366 . S
C2936 C2937 1.414 . S
C2936 C2939 1.499 . S
C2937 H2917 0.950 . S
C2937 C2936 1.414 . S
C2937 C2938 1.374 . S
C2938 H2918 0.950 . S
C2938 C2934 1.385 . S
C2938 C2937 1.374 . S
C2939 C2936 1.499 . S
C2939 C2940 1.373 . S
C2939 C2941 1.389 . S
C2940 H2919 0.950 . S
C2940 C2939 1.373 . S
C2940 C2956 1.377 . S
C2941 C2939 1.389 . S
C2941 C2942 1.524 . S
C2941 C2955 1.377 . S
C2942 C2941 1.524 . S
C2942 C2943 1.397 . S
C2942 C2947 1.363 . S
C2943 H2920 0.950 . S
C2943 C2942 1.397 . S
C2943 C2944 1.334 . S
C2944 H2921 0.950 . S
C2944 C2943 1.334 . S
C2944 C2945 1.287 . S
C2945 C2944 1.287 . S
C2945 C2946 1.524 . S
C2945 H2964 0.913 . S
C2946 H2922 0.950 . S
C2946 C2945 1.524 . S
C2946 C2947 1.415 . S
C2947 H2923 0.950 . S
C2947 C2942 1.363 . S
C2947 C2946 1.415 . S
C2948 H2924 0.951 . S
C2948 C2949 1.366 . S
C2948 C2950 1.388 . S
C2949 C2948 1.366 . S
C2949 C2953 1.385 . S
C2950 H2925 0.951 . S
C2950 C2948 1.388 . S
C2950 C2951 1.366 . S
C2951 C2950 1.366 . S
C2951 C2952 1.414 . S
C2951 C2954 1.499 . S
C2952 H2926 0.950 . S
C2952 C2951 1.414 . S
C2952 C2953 1.374 . S
C2953 H2927 0.950 . S
C2953 C2949 1.385 . S
C2953 C2952 1.374 . S
C2954 C2951 1.499 . S
C2954 C2955 1.373 . S
C2954 C2956 1.389 . S
C2955 H2928 0.950 . S
C2955 C2941 1.377 . S
C2955 C2954 1.373 . S
C2956 C2940 1.377 . S
C2956 C2954 1.389 . S
C2956 C2957 1.524 . S
C2957 C2956 1.524 . S
C2957 C2958 1.397 . S
C2957 C2962 1.363 . S
C2958 H2929 0.950 . S
C2958 C2957 1.397 . S
C2958 C2959 1.334 . S
C2959 H2930 0.950 . S
C2959 C2958 1.334 . S
C2959 C2960 1.287 . S
C2960 C2959 1.287 . S
C2960 C2961 1.524 . S
C2960 H2963 0.999 . S
C2961 H2931 0.950 . S
C2961 C2960 1.524 . S
C2961 C2962 1.415 . S
C2962 H2932 0.950 . S
C2962 C2957 1.363 . S
C2962 C2961 1.415 . S
H2963 C2960 0.999 . S
H2964 C2945 0.913 . S
H2965 C2983 0.951 . S
H2966 C2985 0.951 . S
H2967 C2987 0.950 . S
H2968 C2988 0.950 . S
H2969 C2990 0.950 . S
H2970 C2993 0.950 . S
H2971 C2994 0.950 . S
H2972 C2996 0.950 . S
H2973 C2997 0.950 . S
H2974 C2998 0.951 . S
H2975 C3000 0.951 . S
H2976 C3002 0.950 . S
H2977 C3003 0.950 . S
H2978 C3005 0.950 . S
H2979 C3008 0.950 . S
H2980 C3009 0.950 . S
H2981 C3011 0.950 . S
H2982 C3012 0.950 . S
C2983 H2965 0.951 . S
C2983 C2984 1.366 . S
C2983 C2985 1.388 . S
C2984 C2983 1.366 . S
C2984 C2988 1.385 . S
C2985 H2966 0.951 . S
C2985 C2983 1.388 . S
C2985 C2986 1.366 . S
C2986 C2985 1.366 . S
C2986 C2987 1.414 . S
C2986 C2989 1.499 . S
C2987 H2967 0.950 . S
C2987 C2986 1.414 . S
C2987 C2988 1.374 . S
C2988 H2968 0.950 . S
C2988 C2984 1.385 . S
C2988 C2987 1.374 . S
C2989 C2986 1.499 . S
C2989 C2990 1.373 . S
C2989 C2991 1.389 . S
C2990 H2969 0.950 . S
C2990 C2989 1.373 . S
C2990 C3006 1.377 . S
C2991 C2989 1.389 . S
C2991 C2992 1.524 . S
C2991 C3005 1.377 . S
C2992 C2991 1.524 . S
C2992 C2993 1.397 . S
C2992 C2997 1.363 . S
C2993 H2970 0.950 . S
C2993 C2992 1.397 . S
C2993 C2994 1.334 . S
C2994 H2971 0.950 . S
C2994 C2993 1.334 . S
C2994 C2995 1.287 . S
C2995 C2994 1.287 . S
C2995 C2996 1.524 . S
C2995 H3014 0.913 . S
C2996 H2972 0.950 . S
C2996 C2995 1.524 . S
C2996 C2997 1.415 . S
C2997 H2973 0.950 . S
C2997 C2992 1.363 . S
C2997 C2996 1.415 . S
C2998 H2974 0.951 . S
C2998 C2999 1.366 . S
C2998 C3000 1.388 . S
C2999 C2998 1.366 . S
C2999 C3003 1.385 . S
C3000 H2975 0.951 . S
C3000 C2998 1.388 . S
C3000 C3001 1.366 . S
C3001 C3000 1.366 . S
C3001 C3002 1.414 . S
C3001 C3004 1.499 . S
C3002 H2976 0.950 . S
C3002 C3001 1.414 . S
C3002 C3003 1.374 . S
C3003 H2977 0.950 . S
C3003 C2999 1.385 . S
C3003 C3002 1.374 . S
C3004 C3001 1.499 . S
C3004 C3005 1.373 . S
C3004 C3006 1.389 . S
C3005 H2978 0.950 . S
C3005 C2991 1.377 . S
C3005 C3004 1.373 . S
C3006 C2990 1.377 . S
C3006 C3004 1.389 . S
C3006 C3007 1.524 . S
C3007 C3006 1.524 . S
C3007 C3008 1.397 . S
C3007 C3012 1.363 . S
C3008 H2979 0.950 . S
C3008 C3007 1.397 . S
C3008 C3009 1.334 . S
C3009 H2980 0.950 . S
C3009 C3008 1.334 . S
C3009 C3010 1.287 . S
C3010 C3009 1.287 . S
C3010 C3011 1.524 . S
C3010 H3013 0.999 . S
C3011 H2981 0.950 . S
C3011 C3010 1.524 . S
C3011 C3012 1.415 . S
C3012 H2982 0.950 . S
C3012 C3007 1.363 . S
C3012 C3011 1.415 . S
H3013 C3010 0.999 . S
H3014 C2995 0.913 . S
H3015 C3033 0.951 . S
H3016 C3035 0.951 . S
H3017 C3037 0.950 . S
H3018 C3038 0.950 . S
H3019 C3040 0.950 . S
H3020 C3043 0.950 . S
H3021 C3044 0.950 . S
H3022 C3046 0.950 . S
H3023 C3047 0.950 . S
H3024 C3048 0.951 . S
H3025 C3050 0.951 . S
H3026 C3052 0.950 . S
H3027 C3053 0.950 . S
H3028 C3055 0.950 . S
H3029 C3058 0.950 . S
H3030 C3059 0.950 . S
H3031 C3061 0.950 . S
H3032 C3062 0.950 . S
C3033 H3015 0.951 . S
C3033 C3034 1.366 . S
C3033 C3035 1.388 . S
C3034 C3033 1.366 . S
C3034 C3038 1.385 . S
C3035 H3016 0.951 . S
C3035 C3033 1.388 . S
C3035 C3036 1.366 . S
C3036 C3035 1.366 . S
C3036 C3037 1.414 . S
C3036 C3039 1.499 . S
C3037 H3017 0.950 . S
C3037 C3036 1.414 . S
C3037 C3038 1.374 . S
C3038 H3018 0.950 . S
C3038 C3034 1.385 . S
C3038 C3037 1.374 . S
C3039 C3036 1.499 . S
C3039 C3040 1.373 . S
C3039 C3041 1.389 . S
C3040 H3019 0.950 . S
C3040 C3039 1.373 . S
C3040 C3056 1.377 . S
C3041 C3039 1.389 . S
C3041 C3042 1.524 . S
C3041 C3055 1.377 . S
C3042 C3041 1.524 . S
C3042 C3043 1.397 . S
C3042 C3047 1.363 . S
C3043 H3020 0.950 . S
C3043 C3042 1.397 . S
C3043 C3044 1.334 . S
C3044 H3021 0.950 . S
C3044 C3043 1.334 . S
C3044 C3045 1.287 . S
C3045 C3044 1.287 . S
C3045 C3046 1.524 . S
C3045 H3064 0.913 . S
C3046 H3022 0.950 . S
C3046 C3045 1.524 . S
C3046 C3047 1.415 . S
C3047 H3023 0.950 . S
C3047 C3042 1.363 . S
C3047 C3046 1.415 . S
C3048 H3024 0.951 . S
C3048 C3049 1.366 . S
C3048 C3050 1.388 . S
C3049 C3048 1.366 . S
C3049 C3053 1.385 . S
C3050 H3025 0.951 . S
C3050 C3048 1.388 . S
C3050 C3051 1.366 . S
C3051 C3050 1.366 . S
C3051 C3052 1.414 . S
C3051 C3054 1.499 . S
C3052 H3026 0.950 . S
C3052 C3051 1.414 . S
C3052 C3053 1.374 . S
C3053 H3027 0.950 . S
C3053 C3049 1.385 . S
C3053 C3052 1.374 . S
C3054 C3051 1.499 . S
C3054 C3055 1.373 . S
C3054 C3056 1.389 . S
C3055 H3028 0.950 . S
C3055 C3041 1.377 . S
C3055 C3054 1.373 . S
C3056 C3040 1.377 . S
C3056 C3054 1.389 . S
C3056 C3057 1.524 . S
C3057 C3056 1.524 . S
C3057 C3058 1.397 . S
C3057 C3062 1.363 . S
C3058 H3029 0.950 . S
C3058 C3057 1.397 . S
C3058 C3059 1.334 . S
C3059 H3030 0.950 . S
C3059 C3058 1.334 . S
C3059 C3060 1.287 . S
C3060 C3059 1.287 . S
C3060 C3061 1.524 . S
C3060 H3063 0.999 . S
C3061 H3031 0.950 . S
C3061 C3060 1.524 . S
C3061 C3062 1.415 . S
C3062 H3032 0.950 . S
C3062 C3057 1.363 . S
C3062 C3061 1.415 . S
H3063 C3060 0.999 . S
H3064 C3045 0.913 . S
H3065 C3083 0.951 . S
H3066 C3085 0.951 . S
H3067 C3087 0.950 . S
H3068 C3088 0.950 . S
H3069 C3090 0.950 . S
H3070 C3093 0.950 . S
H3071 C3094 0.950 . S
H3072 C3096 0.950 . S
H3073 C3097 0.950 . S
H3074 C3098 0.951 . S
H3075 C3100 0.951 . S
H3076 C3102 0.950 . S
H3077 C3103 0.950 . S
H3078 C3105 0.950 . S
H3079 C3108 0.950 . S
H3080 C3109 0.950 . S
H3081 C3111 0.950 . S
H3082 C3112 0.950 . S
C3083 H3065 0.951 . S
C3083 C3084 1.366 . S
C3083 C3085 1.388 . S
C3084 C3083 1.366 . S
C3084 C3088 1.385 . S
C3085 H3066 0.951 . S
C3085 C3083 1.388 . S
C3085 C3086 1.366 . S
C3086 C3085 1.366 . S
C3086 C3087 1.414 . S
C3086 C3089 1.499 . S
C3087 H3067 0.950 . S
C3087 C3086 1.414 . S
C3087 C3088 1.374 . S
C3088 H3068 0.950 . S
C3088 C3084 1.385 . S
C3088 C3087 1.374 . S
C3089 C3086 1.499 . S
C3089 C3090 1.373 . S
C3089 C3091 1.389 . S
C3090 H3069 0.950 . S
C3090 C3089 1.373 . S
C3090 C3106 1.377 . S
C3091 C3089 1.389 . S
C3091 C3092 1.524 . S
C3091 C3105 1.377 . S
C3092 C3091 1.524 . S
C3092 C3093 1.397 . S
C3092 C3097 1.363 . S
C3093 H3070 0.950 . S
C3093 C3092 1.397 . S
C3093 C3094 1.334 . S
C3094 H3071 0.950 . S
C3094 C3093 1.334 . S
C3094 C3095 1.287 . S
C3095 C3094 1.287 . S
C3095 C3096 1.524 . S
C3095 H3114 0.913 . S
C3096 H3072 0.950 . S
C3096 C3095 1.524 . S
C3096 C3097 1.415 . S
C3097 H3073 0.950 . S
C3097 C3092 1.363 . S
C3097 C3096 1.415 . S
C3098 H3074 0.951 . S
C3098 C3099 1.366 . S
C3098 C3100 1.388 . S
C3099 C3098 1.366 . S
C3099 C3103 1.385 . S
C3100 H3075 0.951 . S
C3100 C3098 1.388 . S
C3100 C3101 1.366 . S
C3101 C3100 1.366 . S
C3101 C3102 1.414 . S
C3101 C3104 1.499 . S
C3102 H3076 0.950 . S
C3102 C3101 1.414 . S
C3102 C3103 1.374 . S
C3103 H3077 0.950 . S
C3103 C3099 1.385 . S
C3103 C3102 1.374 . S
C3104 C3101 1.499 . S
C3104 C3105 1.373 . S
C3104 C3106 1.389 . S
C3105 H3078 0.950 . S
C3105 C3091 1.377 . S
C3105 C3104 1.373 . S
C3106 C3090 1.377 . S
C3106 C3104 1.389 . S
C3106 C3107 1.524 . S
C3107 C3106 1.524 . S
C3107 C3108 1.397 . S
C3107 C3112 1.363 . S
C3108 H3079 0.950 . S
C3108 C3107 1.397 . S
C3108 C3109 1.334 . S
C3109 H3080 0.950 . S
C3109 C3108 1.334 . S
C3109 C3110 1.287 . S
C3110 C3109 1.287 . S
C3110 C3111 1.524 . S
C3110 H3113 0.999 . S
C3111 H3081 0.950 . S
C3111 C3110 1.524 . S
C3111 C3112 1.415 . S
C3112 H3082 0.950 . S
C3112 C3107 1.363 . S
C3112 C3111 1.415 . S
H3113 C3110 0.999 . S
H3114 C3095 0.913 . S
H3115 C3133 0.951 . S
H3116 C3135 0.951 . S
H3117 C3137 0.950 . S
H3118 C3138 0.950 . S
H3119 C3140 0.950 . S
H3120 C3143 0.950 . S
H3121 C3144 0.950 . S
H3122 C3146 0.950 . S
H3123 C3147 0.950 . S
H3124 C3148 0.951 . S
H3125 C3150 0.951 . S
H3126 C3152 0.950 . S
H3127 C3153 0.950 . S
H3128 C3155 0.950 . S
H3129 C3158 0.950 . S
H3130 C3159 0.950 . S
H3131 C3161 0.950 . S
H3132 C3162 0.950 . S
C3133 H3115 0.951 . S
C3133 C3134 1.366 . S
C3133 C3135 1.388 . S
C3134 C3133 1.366 . S
C3134 C3138 1.385 . S
C3135 H3116 0.951 . S
C3135 C3133 1.388 . S
C3135 C3136 1.366 . S
C3136 C3135 1.366 . S
C3136 C3137 1.414 . S
C3136 C3139 1.499 . S
C3137 H3117 0.950 . S
C3137 C3136 1.414 . S
C3137 C3138 1.374 . S
C3138 H3118 0.950 . S
C3138 C3134 1.385 . S
C3138 C3137 1.374 . S
C3139 C3136 1.499 . S
C3139 C3140 1.373 . S
C3139 C3141 1.389 . S
C3140 H3119 0.950 . S
C3140 C3139 1.373 . S
C3140 C3156 1.377 . S
C3141 C3139 1.389 . S
C3141 C3142 1.524 . S
C3141 C3155 1.377 . S
C3142 C3141 1.524 . S
C3142 C3143 1.397 . S
C3142 C3147 1.363 . S
C3143 H3120 0.950 . S
C3143 C3142 1.397 . S
C3143 C3144 1.334 . S
C3144 H3121 0.950 . S
C3144 C3143 1.334 . S
C3144 C3145 1.287 . S
C3145 C3144 1.287 . S
C3145 C3146 1.524 . S
C3145 H3164 0.913 . S
C3146 H3122 0.950 . S
C3146 C3145 1.524 . S
C3146 C3147 1.415 . S
C3147 H3123 0.950 . S
C3147 C3142 1.363 . S
C3147 C3146 1.415 . S
C3148 H3124 0.951 . S
C3148 C3149 1.366 . S
C3148 C3150 1.388 . S
C3149 C3148 1.366 . S
C3149 C3153 1.385 . S
C3150 H3125 0.951 . S
C3150 C3148 1.388 . S
C3150 C3151 1.366 . S
C3151 C3150 1.366 . S
C3151 C3152 1.414 . S
C3151 C3154 1.499 . S
C3152 H3126 0.950 . S
C3152 C3151 1.414 . S
C3152 C3153 1.374 . S
C3153 H3127 0.950 . S
C3153 C3149 1.385 . S
C3153 C3152 1.374 . S
C3154 C3151 1.499 . S
C3154 C3155 1.373 . S
C3154 C3156 1.389 . S
C3155 H3128 0.950 . S
C3155 C3141 1.377 . S
C3155 C3154 1.373 . S
C3156 C3140 1.377 . S
C3156 C3154 1.389 . S
C3156 C3157 1.524 . S
C3157 C3156 1.524 . S
C3157 C3158 1.397 . S
C3157 C3162 1.363 . S
C3158 H3129 0.950 . S
C3158 C3157 1.397 . S
C3158 C3159 1.334 . S
C3159 H3130 0.950 . S
C3159 C3158 1.334 . S
C3159 C3160 1.287 . S
C3160 C3159 1.287 . S
C3160 C3161 1.524 . S
C3160 H3163 0.999 . S
C3161 H3131 0.950 . S
C3161 C3160 1.524 . S
C3161 C3162 1.415 . S
C3162 H3132 0.950 . S
C3162 C3157 1.363 . S
C3162 C3161 1.415 . S
H3163 C3160 0.999 . S
H3164 C3145 0.913 . S
H3165 C3183 0.951 . S
H3166 C3185 0.951 . S
H3167 C3187 0.950 . S
H3168 C3188 0.950 . S
H3169 C3190 0.950 . S
H3170 C3193 0.950 . S
H3171 C3194 0.950 . S
H3172 C3196 0.950 . S
H3173 C3197 0.950 . S
H3174 C3198 0.951 . S
H3175 C3200 0.951 . S
H3176 C3202 0.950 . S
H3177 C3203 0.950 . S
H3178 C3205 0.950 . S
H3179 C3208 0.950 . S
H3180 C3209 0.950 . S
H3181 C3211 0.950 . S
H3182 C3212 0.950 . S
C3183 H3165 0.951 . S
C3183 C3184 1.366 . S
C3183 C3185 1.388 . S
C3184 C3183 1.366 . S
C3184 C3188 1.385 . S
C3185 H3166 0.951 . S
C3185 C3183 1.388 . S
C3185 C3186 1.366 . S
C3186 C3185 1.366 . S
C3186 C3187 1.414 . S
C3186 C3189 1.499 . S
C3187 H3167 0.950 . S
C3187 C3186 1.414 . S
C3187 C3188 1.374 . S
C3188 H3168 0.950 . S
C3188 C3184 1.385 . S
C3188 C3187 1.374 . S
C3189 C3186 1.499 . S
C3189 C3190 1.373 . S
C3189 C3191 1.389 . S
C3190 H3169 0.950 . S
C3190 C3189 1.373 . S
C3190 C3206 1.377 . S
C3191 C3189 1.389 . S
C3191 C3192 1.524 . S
C3191 C3205 1.377 . S
C3192 C3191 1.524 . S
C3192 C3193 1.397 . S
C3192 C3197 1.363 . S
C3193 H3170 0.950 . S
C3193 C3192 1.397 . S
C3193 C3194 1.334 . S
C3194 H3171 0.950 . S
C3194 C3193 1.334 . S
C3194 C3195 1.287 . S
C3195 C3194 1.287 . S
C3195 C3196 1.524 . S
C3195 H3214 0.913 . S
C3196 H3172 0.950 . S
C3196 C3195 1.524 . S
C3196 C3197 1.415 . S
C3197 H3173 0.950 . S
C3197 C3192 1.363 . S
C3197 C3196 1.415 . S
C3198 H3174 0.951 . S
C3198 C3199 1.366 . S
C3198 C3200 1.388 . S
C3199 C3198 1.366 . S
C3199 C3203 1.385 . S
C3200 H3175 0.951 . S
C3200 C3198 1.388 . S
C3200 C3201 1.366 . S
C3201 C3200 1.366 . S
C3201 C3202 1.414 . S
C3201 C3204 1.499 . S
C3202 H3176 0.950 . S
C3202 C3201 1.414 . S
C3202 C3203 1.374 . S
C3203 H3177 0.950 . S
C3203 C3199 1.385 . S
C3203 C3202 1.374 . S
C3204 C3201 1.499 . S
C3204 C3205 1.373 . S
C3204 C3206 1.389 . S
C3205 H3178 0.950 . S
C3205 C3191 1.377 . S
C3205 C3204 1.373 . S
C3206 C3190 1.377 . S
C3206 C3204 1.389 . S
C3206 C3207 1.524 . S
C3207 C3206 1.524 . S
C3207 C3208 1.397 . S
C3207 C3212 1.363 . S
C3208 H3179 0.950 . S
C3208 C3207 1.397 . S
C3208 C3209 1.334 . S
C3209 H3180 0.950 . S
C3209 C3208 1.334 . S
C3209 C3210 1.287 . S
C3210 C3209 1.287 . S
C3210 C3211 1.524 . S
C3210 H3213 0.999 . S
C3211 H3181 0.950 . S
C3211 C3210 1.524 . S
C3211 C3212 1.415 . S
C3212 H3182 0.950 . S
C3212 C3207 1.363 . S
C3212 C3211 1.415 . S
H3213 C3210 0.999 . S
H3214 C3195 0.913 . S
H3215 C3233 0.951 . S
H3216 C3235 0.951 . S
H3217 C3237 0.950 . S
H3218 C3238 0.950 . S
H3219 C3240 0.950 . S
H3220 C3243 0.950 . S
H3221 C3244 0.950 . S
H3222 C3246 0.950 . S
H3223 C3247 0.950 . S
H3224 C3248 0.951 . S
H3225 C3250 0.951 . S
H3226 C3252 0.950 . S
H3227 C3253 0.950 . S
H3228 C3255 0.950 . S
H3229 C3258 0.950 . S
H3230 C3259 0.950 . S
H3231 C3261 0.950 . S
H3232 C3262 0.950 . S
C3233 H3215 0.951 . S
C3233 C3234 1.366 . S
C3233 C3235 1.388 . S
C3234 C3233 1.366 . S
C3234 C3238 1.385 . S
C3235 H3216 0.951 . S
C3235 C3233 1.388 . S
C3235 C3236 1.366 . S
C3236 C3235 1.366 . S
C3236 C3237 1.414 . S
C3236 C3239 1.499 . S
C3237 H3217 0.950 . S
C3237 C3236 1.414 . S
C3237 C3238 1.374 . S
C3238 H3218 0.950 . S
C3238 C3234 1.385 . S
C3238 C3237 1.374 . S
C3239 C3236 1.499 . S
C3239 C3240 1.373 . S
C3239 C3241 1.389 . S
C3240 H3219 0.950 . S
C3240 C3239 1.373 . S
C3240 C3256 1.377 . S
C3241 C3239 1.389 . S
C3241 C3242 1.524 . S
C3241 C3255 1.377 . S
C3242 C3241 1.524 . S
C3242 C3243 1.397 . S
C3242 C3247 1.363 . S
C3243 H3220 0.950 . S
C3243 C3242 1.397 . S
C3243 C3244 1.334 . S
C3244 H3221 0.950 . S
C3244 C3243 1.334 . S
C3244 C3245 1.287 . S
C3245 C3244 1.287 . S
C3245 C3246 1.524 . S
C3245 H3264 0.913 . S
C3246 H3222 0.950 . S
C3246 C3245 1.524 . S
C3246 C3247 1.415 . S
C3247 H3223 0.950 . S
C3247 C3242 1.363 . S
C3247 C3246 1.415 . S
C3248 H3224 0.951 . S
C3248 C3249 1.366 . S
C3248 C3250 1.388 . S
C3249 C3248 1.366 . S
C3249 C3253 1.385 . S
C3250 H3225 0.951 . S
C3250 C3248 1.388 . S
C3250 C3251 1.366 . S
C3251 C3250 1.366 . S
C3251 C3252 1.414 . S
C3251 C3254 1.499 . S
C3252 H3226 0.950 . S
C3252 C3251 1.414 . S
C3252 C3253 1.374 . S
C3253 H3227 0.950 . S
C3253 C3249 1.385 . S
C3253 C3252 1.374 . S
C3254 C3251 1.499 . S
C3254 C3255 1.373 . S
C3254 C3256 1.389 . S
C3255 H3228 0.950 . S
C3255 C3241 1.377 . S
C3255 C3254 1.373 . S
C3256 C3240 1.377 . S
C3256 C3254 1.389 . S
C3256 C3257 1.524 . S
C3257 C3256 1.524 . S
C3257 C3258 1.397 . S
C3257 C3262 1.363 . S
C3258 H3229 0.950 . S
C3258 C3257 1.397 . S
C3258 C3259 1.334 . S
C3259 H3230 0.950 . S
C3259 C3258 1.334 . S
C3259 C3260 1.287 . S
C3260 C3259 1.287 . S
C3260 C3261 1.524 . S
C3260 H3263 0.999 . S
C3261 H3231 0.950 . S
C3261 C3260 1.524 . S
C3261 C3262 1.415 . S
C3262 H3232 0.950 . S
C3262 C3257 1.363 . S
C3262 C3261 1.415 . S
H3263 C3260 0.999 . S
H3264 C3245 0.913 . S
H3265 C3283 0.951 . S
H3266 C3285 0.951 . S
H3267 C3287 0.950 . S
H3268 C3288 0.950 . S
H3269 C3290 0.950 . S
H3270 C3293 0.950 . S
H3271 C3294 0.950 . S
H3272 C3296 0.950 . S
H3273 C3297 0.950 . S
H3274 C3298 0.951 . S
H3275 C3300 0.951 . S
H3276 C3302 0.950 . S
H3277 C3303 0.950 . S
H3278 C3305 0.950 . S
H3279 C3308 0.950 . S
H3280 C3309 0.950 . S
H3281 C3311 0.950 . S
H3282 C3312 0.950 . S
C3283 H3265 0.951 . S
C3283 C3284 1.366 . S
C3283 C3285 1.388 . S
C3284 C3283 1.366 . S
C3284 C3288 1.385 . S
C3285 H3266 0.951 . S
C3285 C3283 1.388 . S
C3285 C3286 1.366 . S
C3286 C3285 1.366 . S
C3286 C3287 1.414 . S
C3286 C3289 1.499 . S
C3287 H3267 0.950 . S
C3287 C3286 1.414 . S
C3287 C3288 1.374 . S
C3288 H3268 0.950 . S
C3288 C3284 1.385 . S
C3288 C3287 1.374 . S
C3289 C3286 1.499 . S
C3289 C3290 1.373 . S
C3289 C3291 1.389 . S
C3290 H3269 0.950 . S
C3290 C3289 1.373 . S
C3290 C3306 1.377 . S
C3291 C3289 1.389 . S
C3291 C3292 1.524 . S
C3291 C3305 1.377 . S
C3292 C3291 1.524 . S
C3292 C3293 1.397 . S
C3292 C3297 1.363 . S
C3293 H3270 0.950 . S
C3293 C3292 1.397 . S
C3293 C3294 1.334 . S
C3294 H3271 0.950 . S
C3294 C3293 1.334 . S
C3294 C3295 1.287 . S
C3295 C3294 1.287 . S
C3295 C3296 1.524 . S
C3295 H3314 0.913 . S
C3296 H3272 0.950 . S
C3296 C3295 1.524 . S
C3296 C3297 1.415 . S
C3297 H3273 0.950 . S
C3297 C3292 1.363 . S
C3297 C3296 1.415 . S
C3298 H3274 0.951 . S
C3298 C3299 1.366 . S
C3298 C3300 1.388 . S
C3299 C3298 1.366 . S
C3299 C3303 1.385 . S
C3300 H3275 0.951 . S
C3300 C3298 1.388 . S
C3300 C3301 1.366 . S
C3301 C3300 1.366 . S
C3301 C3302 1.414 . S
C3301 C3304 1.499 . S
C3302 H3276 0.950 . S
C3302 C3301 1.414 . S
C3302 C3303 1.374 . S
C3303 H3277 0.950 . S
C3303 C3299 1.385 . S
C3303 C3302 1.374 . S
C3304 C3301 1.499 . S
C3304 C3305 1.373 . S
C3304 C3306 1.389 . S
C3305 H3278 0.950 . S
C3305 C3291 1.377 . S
C3305 C3304 1.373 . S
C3306 C3290 1.377 . S
C3306 C3304 1.389 . S
C3306 C3307 1.524 . S
C3307 C3306 1.524 . S
C3307 C3308 1.397 . S
C3307 C3312 1.363 . S
C3308 H3279 0.950 . S
C3308 C3307 1.397 . S
C3308 C3309 1.334 . S
C3309 H3280 0.950 . S
C3309 C3308 1.334 . S
C3309 C3310 1.287 . S
C3310 C3309 1.287 . S
C3310 C3311 1.524 . S
C3310 H3313 0.999 . S
C3311 H3281 0.950 . S
C3311 C3310 1.524 . S
C3311 C3312 1.415 . S
C3312 H3282 0.950 . S
C3312 C3307 1.363 . S
C3312 C3311 1.415 . S
H3313 C3310 0.999 . S
H3314 C3295 0.913 . S
H3315 C3333 0.951 . S
H3316 C3335 0.951 . S
H3317 C3337 0.950 . S
H3318 C3338 0.950 . S
H3319 C3340 0.950 . S
H3320 C3343 0.950 . S
H3321 C3344 0.950 . S
H3322 C3346 0.950 . S
H3323 C3347 0.950 . S
H3324 C3348 0.951 . S
H3325 C3350 0.951 . S
H3326 C3352 0.950 . S
H3327 C3353 0.950 . S
H3328 C3355 0.950 . S
H3329 C3358 0.950 . S
H3330 C3359 0.950 . S
H3331 C3361 0.950 . S
H3332 C3362 0.950 . S
C3333 H3315 0.951 . S
C3333 C3334 1.366 . S
C3333 C3335 1.388 . S
C3334 C3333 1.366 . S
C3334 C3338 1.385 . S
C3335 H3316 0.951 . S
C3335 C3333 1.388 . S
C3335 C3336 1.366 . S
C3336 C3335 1.366 . S
C3336 C3337 1.414 . S
C3336 C3339 1.499 . S
C3337 H3317 0.950 . S
C3337 C3336 1.414 . S
C3337 C3338 1.374 . S
C3338 H3318 0.950 . S
C3338 C3334 1.385 . S
C3338 C3337 1.374 . S
C3339 C3336 1.499 . S
C3339 C3340 1.373 . S
C3339 C3341 1.389 . S
C3340 H3319 0.950 . S
C3340 C3339 1.373 . S
C3340 C3356 1.377 . S
C3341 C3339 1.389 . S
C3341 C3342 1.524 . S
C3341 C3355 1.377 . S
C3342 C3341 1.524 . S
C3342 C3343 1.397 . S
C3342 C3347 1.363 . S
C3343 H3320 0.950 . S
C3343 C3342 1.397 . S
C3343 C3344 1.334 . S
C3344 H3321 0.950 . S
C3344 C3343 1.334 . S
C3344 C3345 1.287 . S
C3345 C3344 1.287 . S
C3345 C3346 1.524 . S
C3345 H3364 0.913 . S
C3346 H3322 0.950 . S
C3346 C3345 1.524 . S
C3346 C3347 1.415 . S
C3347 H3323 0.950 . S
C3347 C3342 1.363 . S
C3347 C3346 1.415 . S
C3348 H3324 0.951 . S
C3348 C3349 1.366 . S
C3348 C3350 1.388 . S
C3349 C3348 1.366 . S
C3349 C3353 1.385 . S
C3350 H3325 0.951 . S
C3350 C3348 1.388 . S
C3350 C3351 1.366 . S
C3351 C3350 1.366 . S
C3351 C3352 1.414 . S
C3351 C3354 1.499 . S
C3352 H3326 0.950 . S
C3352 C3351 1.414 . S
C3352 C3353 1.374 . S
C3353 H3327 0.950 . S
C3353 C3349 1.385 . S
C3353 C3352 1.374 . S
C3354 C3351 1.499 . S
C3354 C3355 1.373 . S
C3354 C3356 1.389 . S
C3355 H3328 0.950 . S
C3355 C3341 1.377 . S
C3355 C3354 1.373 . S
C3356 C3340 1.377 . S
C3356 C3354 1.389 . S
C3356 C3357 1.524 . S
C3357 C3356 1.524 . S
C3357 C3358 1.397 . S
C3357 C3362 1.363 . S
C3358 H3329 0.950 . S
C3358 C3357 1.397 . S
C3358 C3359 1.334 . S
C3359 H3330 0.950 . S
C3359 C3358 1.334 . S
C3359 C3360 1.287 . S
C3360 C3359 1.287 . S
C3360 C3361 1.524 . S
C3360 H3363 0.999 . S
C3361 H3331 0.950 . S
C3361 C3360 1.524 . S
C3361 C3362 1.415 . S
C3362 H3332 0.950 . S
C3362 C3357 1.363 . S
C3362 C3361 1.415 . S
H3363 C3360 0.999 . S
H3364 C3345 0.913 . S
H3365 C3383 0.951 . S
H3366 C3385 0.951 . S
H3367 C3387 0.950 . S
H3368 C3388 0.950 . S
H3369 C3390 0.950 . S
H3370 C3393 0.950 . S
H3371 C3394 0.950 . S
H3372 C3396 0.950 . S
H3373 C3397 0.950 . S
H3374 C3398 0.951 . S
H3375 C3400 0.951 . S
H3376 C3402 0.950 . S
H3377 C3403 0.950 . S
H3378 C3405 0.950 . S
H3379 C3408 0.950 . S
H3380 C3409 0.950 . S
H3381 C3411 0.950 . S
H3382 C3412 0.950 . S
C3383 H3365 0.951 . S
C3383 C3384 1.366 . S
C3383 C3385 1.388 . S
C3384 C3383 1.366 . S
C3384 C3388 1.385 . S
C3385 H3366 0.951 . S
C3385 C3383 1.388 . S
C3385 C3386 1.366 . S
C3386 C3385 1.366 . S
C3386 C3387 1.414 . S
C3386 C3389 1.499 . S
C3387 H3367 0.950 . S
C3387 C3386 1.414 . S
C3387 C3388 1.374 . S
C3388 H3368 0.950 . S
C3388 C3384 1.385 . S
C3388 C3387 1.374 . S
C3389 C3386 1.499 . S
C3389 C3390 1.373 . S
C3389 C3391 1.389 . S
C3390 H3369 0.950 . S
C3390 C3389 1.373 . S
C3390 C3406 1.377 . S
C3391 C3389 1.389 . S
C3391 C3392 1.524 . S
C3391 C3405 1.377 . S
C3392 C3391 1.524 . S
C3392 C3393 1.397 . S
C3392 C3397 1.363 . S
C3393 H3370 0.950 . S
C3393 C3392 1.397 . S
C3393 C3394 1.334 . S
C3394 H3371 0.950 . S
C3394 C3393 1.334 . S
C3394 C3395 1.287 . S
C3395 C3394 1.287 . S
C3395 C3396 1.524 . S
C3395 H3414 0.913 . S
C3396 H3372 0.950 . S
C3396 C3395 1.524 . S
C3396 C3397 1.415 . S
C3397 H3373 0.950 . S
C3397 C3392 1.363 . S
C3397 C3396 1.415 . S
C3398 H3374 0.951 . S
C3398 C3399 1.366 . S
C3398 C3400 1.388 . S
C3399 C3398 1.366 . S
C3399 C3403 1.385 . S
C3400 H3375 0.951 . S
C3400 C3398 1.388 . S
C3400 C3401 1.366 . S
C3401 C3400 1.366 . S
C3401 C3402 1.414 . S
C3401 C3404 1.499 . S
C3402 H3376 0.950 . S
C3402 C3401 1.414 . S
C3402 C3403 1.374 . S
C3403 H3377 0.950 . S
C3403 C3399 1.385 . S
C3403 C3402 1.374 . S
C3404 C3401 1.499 . S
C3404 C3405 1.373 . S
C3404 C3406 1.389 . S
C3405 H3378 0.950 . S
C3405 C3391 1.377 . S
C3405 C3404 1.373 . S
C3406 C3390 1.377 . S
C3406 C3404 1.389 . S
C3406 C3407 1.524 . S
C3407 C3406 1.524 . S
C3407 C3408 1.397 . S
C3407 C3412 1.363 . S
C3408 H3379 0.950 . S
C3408 C3407 1.397 . S
C3408 C3409 1.334 . S
C3409 H3380 0.950 . S
C3409 C3408 1.334 . S
C3409 C3410 1.287 . S
C3410 C3409 1.287 . S
C3410 C3411 1.524 . S
C3410 H3413 0.999 . S
C3411 H3381 0.950 . S
C3411 C3410 1.524 . S
C3411 C3412 1.415 . S
C3412 H3382 0.950 . S
C3412 C3407 1.363 . S
C3412 C3411 1.415 . S
H3413 C3410 0.999 . S
H3414 C3395 0.913 . S
H3415 C3433 0.951 . S
H3416 C3435 0.951 . S
H3417 C3437 0.950 . S
H3418 C3438 0.950 . S
H3419 C3440 0.950 . S
H3420 C3443 0.950 . S
H3421 C3444 0.950 . S
H3422 C3446 0.950 . S
H3423 C3447 0.950 . S
H3424 C3448 0.951 . S
H3425 C3450 0.951 . S
H3426 C3452 0.950 . S
H3427 C3453 0.950 . S
H3428 C3455 0.950 . S
H3429 C3458 0.950 . S
H3430 C3459 0.950 . S
H3431 C3461 0.950 . S
H3432 C3462 0.950 . S
C3433 H3415 0.951 . S
C3433 C3434 1.366 . S
C3433 C3435 1.388 . S
C3434 C3433 1.366 . S
C3434 C3438 1.385 . S
C3435 H3416 0.951 . S
C3435 C3433 1.388 . S
C3435 C3436 1.366 . S
C3436 C3435 1.366 . S
C3436 C3437 1.414 . S
C3436 C3439 1.499 . S
C3437 H3417 0.950 . S
C3437 C3436 1.414 . S
C3437 C3438 1.374 . S
C3438 H3418 0.950 . S
C3438 C3434 1.385 . S
C3438 C3437 1.374 . S
C3439 C3436 1.499 . S
C3439 C3440 1.373 . S
C3439 C3441 1.389 . S
C3440 H3419 0.950 . S
C3440 C3439 1.373 . S
C3440 C3456 1.377 . S
C3441 C3439 1.389 . S
C3441 C3442 1.524 . S
C3441 C3455 1.377 . S
C3442 C3441 1.524 . S
C3442 C3443 1.397 . S
C3442 C3447 1.363 . S
C3443 H3420 0.950 . S
C3443 C3442 1.397 . S
C3443 C3444 1.334 . S
C3444 H3421 0.950 . S
C3444 C3443 1.334 . S
C3444 C3445 1.287 . S
C3445 C3444 1.287 . S
C3445 C3446 1.524 . S
C3445 H3464 0.913 . S
C3446 H3422 0.950 . S
C3446 C3445 1.524 . S
C3446 C3447 1.415 . S
C3447 H3423 0.950 . S
C3447 C3442 1.363 . S
C3447 C3446 1.415 . S
C3448 H3424 0.951 . S
C3448 C3449 1.366 . S
C3448 C3450 1.388 . S
C3449 C3448 1.366 . S
C3449 C3453 1.385 . S
C3450 H3425 0.951 . S
C3450 C3448 1.388 . S
C3450 C3451 1.366 . S
C3451 C3450 1.366 . S
C3451 C3452 1.414 . S
C3451 C3454 1.499 . S
C3452 H3426 0.950 . S
C3452 C3451 1.414 . S
C3452 C3453 1.374 . S
C3453 H3427 0.950 . S
C3453 C3449 1.385 . S
C3453 C3452 1.374 . S
C3454 C3451 1.499 . S
C3454 C3455 1.373 . S
C3454 C3456 1.389 . S
C3455 H3428 0.950 . S
C3455 C3441 1.377 . S
C3455 C3454 1.373 . S
C3456 C3440 1.377 . S
C3456 C3454 1.389 . S
C3456 C3457 1.524 . S
C3457 C3456 1.524 . S
C3457 C3458 1.397 . S
C3457 C3462 1.363 . S
C3458 H3429 0.950 . S
C3458 C3457 1.397 . S
C3458 C3459 1.334 . S
C3459 H3430 0.950 . S
C3459 C3458 1.334 . S
C3459 C3460 1.287 . S
C3460 C3459 1.287 . S
C3460 C3461 1.524 . S
C3460 H3463 0.999 . S
C3461 H3431 0.950 . S
C3461 C3460 1.524 . S
C3461 C3462 1.415 . S
C3462 H3432 0.950 . S
C3462 C3457 1.363 . S
C3462 C3461 1.415 . S
H3463 C3460 0.999 . S
H3464 C3445 0.913 . S
C784 C439 1.287 . S
C799 C590 1.280 . S
C834 C465 1.425 . S
C849 C611 1.342 . S
C884 C401 1.308 . S
C899 C631 1.120 . S
C934 C369 1.334 . S
C949 C610 1.132 1_556 S
C999 C632 1.366 . S
C984 C305 1.456 . S
C1034 C343 1.247 . S
C1049 C589 1.115 1_556 S
C1099 C591 1.249 . S
C1084 C375 1.332 . S
C1149 C612 1.252 . S
C1134 C311 1.329 . S
C1184 C337 1.304 . S
C1199 C634 1.154 1_556 S
C1234 C433 1.261 . S
C1249 C613 1.122 . S
C1284 C471 1.295 . S
C1299 C633 1.221 . S
C1349 C592 1.144 . S
C1334 C407 1.345 . S
C1399 C653 1.281 . S
C1384 C55 1.288 . S
C1434 C81 1.425 . S
C1449 C674 1.341 . S
C1484 C17 1.308 . S
C1499 C694 1.119 . S
C1534 C561 1.334 . S
C1549 C673 1.130 . S
C1584 C497 1.455 . S
C1599 C695 1.365 . S
C1634 C535 1.246 . S
C1649 C652 1.114 . S
C1684 C567 1.332 . S
C1699 C654 1.248 . S
C1734 C503 1.329 . S
C1749 C675 1.253 . S
C1799 C697 1.155 . S
C1784 C529 1.305 . S
C1834 C49 1.259 . S
C1849 C676 1.120 . S
C1899 C696 1.222 . S
C1884 C87 1.294 . S
C1934 C23 1.345 . S
C1949 C655 1.146 . S
C1999 C716 1.280 . S
C1984 C247 1.288 . S
C2034 C273 1.425 . S
C2049 C737 1.341 . S
C2099 C757 1.119 . S
C2084 C209 1.307 . S
C2149 C736 1.130 . S
C2134 C177 1.334 . S
C2199 C758 1.366 . S
C2184 C113 1.455 . S
C2234 C151 1.246 . S
C2249 C715 1.115 . S
C2284 C183 1.332 . S
C2299 C717 1.248 . S
C2334 C119 1.329 . S
C2349 C738 1.252 . S
C2399 C760 1.154 . S
C2384 C145 1.304 . S
C2434 C241 1.260 . S
C2449 C739 1.122 . S
C2484 C279 1.294 . S
C2499 C759 1.222 . S
C2534 C215 1.345 . S
C2549 C718 1.144 . S
C2584 C509 1.412 . S
C2599 C594 1.376 1_565 S
C2649 C615 1.368 . S
C2634 C541 1.346 . S
C2684 C573 1.492 . S
C2699 C635 1.463 . S
C2734 C221 1.542 . S
C2749 C614 1.520 . S
C2784 C253 1.371 . S
C2799 C636 1.384 . S
C2849 C593 1.497 . S
C2834 C285 1.522 . S
C2884 C125 1.413 . S
C2899 C657 1.377 . S
C2934 C157 1.345 . S
C2949 C678 1.368 . S
C2984 C189 1.492 . S
C2999 C698 1.462 . S
C3034 C413 1.542 . S
C3049 C677 1.515 . S
C3099 C699 1.384 . S
C3084 C445 1.372 . S
C3134 C477 1.522 . S
C3149 C656 1.497 . S
C3184 C317 1.412 . S
C3199 C720 1.377 . S
C3234 C349 1.347 . S
C3249 C741 1.368 . S
C3299 C761 1.462 . S
C3284 C381 1.492 . S
C3334 C29 1.543 . S
C3349 C740 1.516 . S
C3384 C61 1.371 . S
C3399 C762 1.385 . S
C3434 C93 1.522 . S
C3449 C719 1.497 . S
