# Generated by pormake.
# Topology apo, (3,6)-cn, num edge types: 1
# Building blocks:
#     Node 0, Type 0, BuildingBlock: CUQRIR_clean_linker_1, # of connection points: 3
#     Node 1, Type 0, BuildingBlock: CUQRIR_clean_linker_1, # of connection points: 3
#     Node 2, Type 0, BuildingBlock: CUQRIR_clean_linker_1, # of connection points: 3
#     Node 3, Type 0, BuildingBlock: CUQRIR_clean_linker_1, # of connection points: 3
#     Node 4, Type 0, BuildingBlock: CUQRIR_clean_linker_1, # of connection points: 3
#     Node 5, Type 0, BuildingBlock: CUQRIR_clean_linker_1, # of connection points: 3
#     Node 6, Type 0, BuildingBlock: CUQRIR_clean_linker_1, # of connection points: 3
#     Node 7, Type 0, BuildingBlock: CUQRIR_clean_linker_1, # of connection points: 3
#     Node 8, Type 1, BuildingBlock: KUMBUR_clean_sbu_1, # of connection points: 6
#     Node 9, Type 1, BuildingBlock: KUMBUR_clean_sbu_1, # of connection points: 6
#     Node 10, Type 1, BuildingBlock: KUMBUR_clean_sbu_1, # of connection points: 6
#     Node 11, Type 1, BuildingBlock: KUMBUR_clean_sbu_1, # of connection points: 6
#     Edge 12, Type (0, 1), BuildingBlock: ZUJKAS_clean_linker_0, # of connection points: 2
#     Edge 13, Type (0, 1), BuildingBlock: ZUJKAS_clean_linker_0, # of connection points: 2
#     Edge 14, Type (0, 1), BuildingBlock: ZUJKAS_clean_linker_0, # of connection points: 2
#     Edge 15, Type (0, 1), BuildingBlock: ZUJKAS_clean_linker_0, # of connection points: 2
#     Edge 16, Type (0, 1), BuildingBlock: ZUJKAS_clean_linker_0, # of connection points: 2
#     Edge 17, Type (0, 1), BuildingBlock: ZUJKAS_clean_linker_0, # of connection points: 2
#     Edge 18, Type (0, 1), BuildingBlock: ZUJKAS_clean_linker_0, # of connection points: 2
#     Edge 19, Type (0, 1), BuildingBlock: ZUJKAS_clean_linker_0, # of connection points: 2
#     Edge 20, Type (0, 1), BuildingBlock: ZUJKAS_clean_linker_0, # of connection points: 2
#     Edge 21, Type (0, 1), BuildingBlock: ZUJKAS_clean_linker_0, # of connection points: 2
#     Edge 22, Type (0, 1), BuildingBlock: ZUJKAS_clean_linker_0, # of connection points: 2
#     Edge 23, Type (0, 1), BuildingBlock: ZUJKAS_clean_linker_0, # of connection points: 2
#     Edge 24, Type (0, 1), BuildingBlock: ZUJKAS_clean_linker_0, # of connection points: 2
#     Edge 25, Type (0, 1), BuildingBlock: ZUJKAS_clean_linker_0, # of connection points: 2
#     Edge 26, Type (0, 1), BuildingBlock: ZUJKAS_clean_linker_0, # of connection points: 2
#     Edge 27, Type (0, 1), BuildingBlock: ZUJKAS_clean_linker_0, # of connection points: 2
#     Edge 28, Type (0, 1), BuildingBlock: ZUJKAS_clean_linker_0, # of connection points: 2
#     Edge 29, Type (0, 1), BuildingBlock: ZUJKAS_clean_linker_0, # of connection points: 2
#     Edge 30, Type (0, 1), BuildingBlock: ZUJKAS_clean_linker_0, # of connection points: 2
#     Edge 31, Type (0, 1), BuildingBlock: ZUJKAS_clean_linker_0, # of connection points: 2
#     Edge 32, Type (0, 1), BuildingBlock: ZUJKAS_clean_linker_0, # of connection points: 2
#     Edge 33, Type (0, 1), BuildingBlock: ZUJKAS_clean_linker_0, # of connection points: 2
#     Edge 34, Type (0, 1), BuildingBlock: ZUJKAS_clean_linker_0, # of connection points: 2
#     Edge 35, Type (0, 1), BuildingBlock: ZUJKAS_clean_linker_0, # of connection points: 2
# Relax obj value: 0.047
# Max RMSD: 0.212
# Mean RMSD: 0.169
data_MOF--net-apo--node1-KUMBUR_clean_sbu_1--node2-CUQRIR_clean_linker_1--edge1-ZUJKAS_clean_linker_0
_symmetry_space_group_name_H-M    P1
_symmetry_Int_Tables_number       1
_symmetry_cell_setting            triclinic
loop_
_symmetry_equiv_pos_as_xyz
'x, y, z'
_cell_length_a     33.716615
_cell_length_b     52.260301
_cell_length_c     59.989465
_cell_angle_alpha  90.023046
_cell_angle_beta   90.01337
_cell_angle_gamma 90.180988
loop_
_atom_site_label
_atom_site_type_symbol
_atom_site_fract_x
_atom_site_fract_y
_atom_site_fract_z
_atom_type_partial_charge
C0 C 0.28229 0.34746 0.42571 0.0
N1 N 0.3032 0.36938 0.42875 0.0
N2 N 0.26567 0.34695 0.40514 0.0
C3 C 0.27589 0.32735 0.44329 0.0
C4 C 0.27711 0.36938 0.39582 0.0
N5 N 0.2995 0.38317 0.41026 0.0
C6 C 0.26927 0.37681 0.37197 0.0
H7 H 0.30093 0.31364 0.44278 0.0
H8 H 0.2479 0.31665 0.44033 0.0
H9 H 0.27499 0.3361 0.46014 0.0
H10 H 0.24259 0.38916 0.37138 0.0
H11 H 0.26384 0.35971 0.36143 0.0
H12 H 0.29462 0.38775 0.36497 0.0
C13 C 0.24171 0.16366 0.92745 0.0
N14 N 0.21773 0.14296 0.93019 0.0
N15 N 0.24847 0.16811 0.90551 0.0
C16 C 0.25554 0.18092 0.94599 0.0
C17 C 0.22761 0.14952 0.895 0.0
N18 N 0.20862 0.13444 0.90993 0.0
C19 C 0.22791 0.145 0.8702 0.0
H20 H 0.26047 0.2007 0.93985 0.0
H21 H 0.28401 0.17358 0.95265 0.0
H22 H 0.2336 0.18137 0.95976 0.0
H23 H 0.25561 0.15241 0.86255 0.0
H24 H 0.20234 0.1551 0.86262 0.0
H25 H 0.22499 0.12431 0.86634 0.0
C26 C 0.77841 0.17323 0.61088 0.0
N27 N 0.79892 0.1511 0.60847 0.0
N28 N 0.76343 0.1751 0.63177 0.0
C29 C 0.77332 0.19305 0.59293 0.0
C30 C 0.77511 0.15328 0.64189 0.0
N31 N 0.7963 0.1386 0.6277 0.0
C32 C 0.76655 0.14659 0.66581 0.0
H33 H 0.80031 0.20522 0.59229 0.0
H34 H 0.74759 0.20562 0.59619 0.0
H35 H 0.7696 0.18373 0.57643 0.0
H36 H 0.73869 0.15573 0.67154 0.0
H37 H 0.79129 0.15371 0.67634 0.0
H38 H 0.76425 0.12559 0.66811 0.0
C39 C 0.73619 0.34254 0.11123 0.0
N40 N 0.71653 0.36497 0.1089 0.0
N41 N 0.75336 0.34108 0.13158 0.0
C42 C 0.74096 0.32285 0.09313 0.0
C43 C 0.74353 0.36341 0.14156 0.0
N44 N 0.72164 0.37817 0.12765 0.0
C45 C 0.75181 0.3695 0.16567 0.0
H46 H 0.71564 0.30927 0.09386 0.0
H47 H 0.76882 0.3119 0.09534 0.0
H48 H 0.74109 0.33201 0.07644 0.0
H49 H 0.77976 0.38068 0.16682 0.0
H50 H 0.75531 0.35176 0.17562 0.0
H51 H 0.7275 0.38102 0.173 0.0
C52 C 0.73138 0.66861 0.60905 0.0
N53 N 0.71189 0.64601 0.60698 0.0
N54 N 0.7495 0.67021 0.62918 0.0
C55 C 0.73486 0.68837 0.59093 0.0
C56 C 0.74041 0.64773 0.63923 0.0
N57 N 0.71795 0.63291 0.62564 0.0
C58 C 0.75079 0.64113 0.66294 0.0
H59 H 0.76209 0.7001 0.59303 0.0
H60 H 0.70873 0.70119 0.59172 0.0
H61 H 0.73528 0.67916 0.57427 0.0
H62 H 0.75551 0.65862 0.67309 0.0
H63 H 0.77856 0.62979 0.66301 0.0
H64 H 0.72707 0.62939 0.67074 0.0
C65 C 0.77574 0.8481 0.10815 0.0
N66 N 0.79643 0.87031 0.10631 0.0
N67 N 0.7582 0.8464 0.12842 0.0
C68 C 0.77007 0.82897 0.08966 0.0
C69 C 0.76879 0.86838 0.13881 0.0
N70 N 0.79164 0.88303 0.1253 0.0
C71 C 0.75935 0.87466 0.16272 0.0
H72 H 0.74198 0.81814 0.09183 0.0
H73 H 0.79504 0.8152 0.08993 0.0
H74 H 0.76978 0.83862 0.07319 0.0
H75 H 0.75445 0.85702 0.17263 0.0
H76 H 0.73188 0.88629 0.16323 0.0
H77 H 0.78361 0.88598 0.17046 0.0
C78 C 0.23764 0.84417 0.42822 0.0
N79 N 0.2125 0.86413 0.43112 0.0
N80 N 0.24473 0.84025 0.40626 0.0
C81 C 0.25479 0.82831 0.44678 0.0
C82 C 0.22269 0.85825 0.39588 0.0
N83 N 0.20273 0.87253 0.41095 0.0
C84 C 0.22035 0.86194 0.37102 0.0
H85 H 0.27979 0.83895 0.45449 0.0
H86 H 0.26624 0.80974 0.44068 0.0
H87 H 0.23211 0.82482 0.45984 0.0
H88 H 0.24299 0.85072 0.36193 0.0
H89 H 0.22383 0.88253 0.36689 0.0
H90 H 0.19064 0.85578 0.36512 0.0
C91 C 0.27139 0.66954 0.92774 0.0
N92 N 0.29554 0.64911 0.93079 0.0
N93 N 0.26415 0.67323 0.90576 0.0
C94 C 0.2553 0.68605 0.94619 0.0
C95 C 0.2851 0.65458 0.89552 0.0
N96 N 0.30451 0.64014 0.91069 0.0
C97 C 0.28695 0.65039 0.87071 0.0
H98 H 0.23015 0.67595 0.95427 0.0
H99 H 0.24434 0.70466 0.93994 0.0
H100 H 0.27846 0.68946 0.95901 0.0
H101 H 0.31757 0.65421 0.86481 0.0
H102 H 0.26643 0.66302 0.86144 0.0
H103 H 0.27996 0.63009 0.86686 0.0
Tb104 Tb 0.06005 0.11818 0.24898 0.0
C105 C 0.88045 0.10351 0.27181 0.0
N106 N 0.90234 0.12501 0.27536 0.0
C107 C 0.84928 0.15083 0.26128 0.0
C108 C 0.84218 0.10479 0.26247 0.0
C109 C 0.88708 0.14855 0.27066 0.0
C110 C 0.8268 0.12884 0.25703 0.0
C111 C 0.87496 0.05732 0.27448 0.0
C112 C 0.89663 0.0801 0.2777 0.0
C113 C 0.83696 0.05842 0.26491 0.0
C114 C 0.82061 0.0821 0.25892 0.0
Tb115 Tb 0.9644 0.11888 0.28956 0.0
N116 N 0.93402 0.07979 0.2863 0.0
C117 C 0.89212 0.03418 0.28102 0.0
C118 C 0.9499 0.05744 0.29387 0.0
C119 C 0.92953 0.03429 0.29103 0.0
H120 H 0.90377 0.16562 0.27456 0.0
H121 H 0.94256 0.01657 0.29677 0.0
H122 H 0.12432 0.07619 0.26902 0.0
H123 H 0.06841 0.22105 0.23755 0.0
H124 H 0.97781 0.05725 0.30246 0.0
H125 H 0.87647 0.01621 0.27882 0.0
H126 H 0.03932 0.17845 0.23274 0.0
H127 H 0.83741 0.16954 0.25745 0.0
H128 H 0.8199 0.0411 0.26217 0.0
H129 H 0.7912 0.08266 0.25166 0.0
H130 H 0.19066 0.07714 0.28639 0.0
H131 H 0.7975 0.13067 0.2498 0.0
H132 H 0.13344 0.226 0.25615 0.0
N133 N 0.12174 0.1165 0.26443 0.0
C134 C 0.14103 0.13926 0.26646 0.0
C135 C 0.17694 0.09477 0.28095 0.0
C136 C 0.17895 0.14071 0.27627 0.0
C137 C 0.13918 0.09432 0.2713 0.0
C138 C 0.19688 0.11806 0.28352 0.0
N139 N 0.08452 0.15915 0.2509 0.0
C140 C 0.0663 0.18015 0.24209 0.0
C141 C 0.14029 0.18538 0.262 0.0
C142 C 0.12177 0.16131 0.25954 0.0
C143 C 0.12028 0.20714 0.25454 0.0
C144 C 0.08341 0.20445 0.24421 0.0
H145 H 0.22602 0.11835 0.29114 0.0
H146 H 0.22646 0.16619 0.28646 0.0
H147 H 0.19266 0.20529 0.27391 0.0
O148 O 0.06328 0.12731 0.21482 0.0
O149 O 0.06566 0.13303 0.28323 0.0
O150 O 0.00547 0.15143 0.29117 0.0
O151 O 0.10148 0.09888 0.22885 0.0
O152 O 0.00508 0.13699 0.2377 0.0
O153 O 0.97588 0.15297 0.26962 0.0
O154 O 0.96728 0.1101 0.32381 0.0
O155 O 0.95866 0.10126 0.25624 0.0
O156 O 0.02003 0.08528 0.2464 0.0
O157 O 0.92603 0.13799 0.31164 0.0
O158 O 0.01758 0.09787 0.30002 0.0
O159 O 0.05118 0.08325 0.26865 0.0
C160 C 0.04416 0.1502 0.29362 0.0
C161 C 0.08111 0.09307 0.19149 0.0
C162 C 0.08261 0.08494 0.1513 0.0
C163 C 0.06194 0.06188 0.1549 0.0
C164 C 0.06116 0.06978 0.19464 0.0
C165 C 0.0515 0.05435 0.17645 0.0
C166 C 0.09207 0.10052 0.16979 0.0
C167 C 0.98033 0.15265 0.24784 0.0
C168 C 0.08974 0.10992 0.21062 0.0
C169 C 0.19738 0.16467 0.27887 0.0
C170 C 0.17809 0.18694 0.27177 0.0
C171 C 0.98111 0.0851 0.2452 0.0
C172 C 0.90669 0.1139 0.34324 0.0
C173 C 0.88095 0.10431 0.3805 0.0
C174 C 0.84783 0.09243 0.37058 0.0
C175 C 0.87315 0.10216 0.33387 0.0
C176 C 0.91045 0.11501 0.36661 0.0
C177 C 0.84406 0.09139 0.34746 0.0
C178 C 0.04209 0.08191 0.29004 0.0
C179 C 0.93783 0.12505 0.3289 0.0
H180 H 0.05456 0.04938 0.14109 0.0
H181 H 0.05326 0.06352 0.2112 0.0
H182 H 0.03611 0.03642 0.17909 0.0
H183 H 0.10748 0.11853 0.1673 0.0
H184 H 0.82427 0.08443 0.38071 0.0
H185 H 0.86912 0.10149 0.3161 0.0
H186 H 0.93632 0.12408 0.37392 0.0
H187 H 0.81825 0.08244 0.34003 0.0
Tb188 Tb 0.45389 0.39631 0.74896 0.0
C189 C 0.63254 0.41395 0.77413 0.0
N190 N 0.61133 0.39206 0.7771 0.0
C191 C 0.66631 0.36723 0.76402 0.0
C192 C 0.6714 0.41336 0.76551 0.0
C193 C 0.62779 0.36881 0.77255 0.0
C194 C 0.68816 0.3896 0.76037 0.0
C195 C 0.63536 0.46029 0.77601 0.0
C196 C 0.61472 0.4371 0.77927 0.0
C197 C 0.67408 0.45984 0.76737 0.0
C198 C 0.69205 0.43643 0.76214 0.0
Tb199 Tb 0.54836 0.39711 0.79024 0.0
N200 N 0.57657 0.43684 0.78672 0.0
C201 C 0.61636 0.48322 0.78143 0.0
C202 C 0.5588 0.45906 0.79319 0.0
C203 C 0.5781 0.48256 0.79032 0.0
H204 H 0.61157 0.35144 0.77597 0.0
H205 H 0.56357 0.50014 0.79516 0.0
H206 H 0.38921 0.43979 0.76619 0.0
H207 H 0.44384 0.29319 0.74067 0.0
H208 H 0.53016 0.45891 0.80095 0.0
H209 H 0.63116 0.50147 0.77915 0.0
H210 H 0.47441 0.33533 0.73535 0.0
H211 H 0.67918 0.34875 0.76036 0.0
H212 H 0.69034 0.47747 0.76465 0.0
H213 H 0.72191 0.43638 0.75546 0.0
H214 H 0.32219 0.44016 0.78267 0.0
H215 H 0.71795 0.38832 0.75371 0.0
H216 H 0.37748 0.28962 0.75798 0.0
N217 N 0.39134 0.39927 0.76319 0.0
C218 C 0.37144 0.37679 0.76565 0.0
C219 C 0.3358 0.42219 0.77807 0.0
C220 C 0.33304 0.37609 0.77489 0.0
C221 C 0.37398 0.42189 0.76897 0.0
C222 C 0.31528 0.39919 0.78113 0.0
N223 N 0.42811 0.35576 0.75153 0.0
C224 C 0.44654 0.33424 0.7439 0.0
C225 C 0.3712 0.33052 0.76244 0.0
C226 C 0.39038 0.3543 0.75957 0.0
C227 C 0.39113 0.30828 0.75601 0.0
C228 C 0.42873 0.3102 0.74641 0.0
H229 H 0.28578 0.39948 0.78829 0.0
H230 H 0.2844 0.35149 0.78501 0.0
H231 H 0.3178 0.31159 0.7741 0.0
O232 O 0.45407 0.38665 0.71485 0.0
O233 O 0.44774 0.38046 0.78281 0.0
O234 O 0.50878 0.3638 0.79189 0.0
O235 O 0.41303 0.41426 0.72758 0.0
O236 O 0.50922 0.37728 0.73849 0.0
O237 O 0.53951 0.36242 0.77061 0.0
O238 O 0.54674 0.40809 0.82398 0.0
O239 O 0.55469 0.41395 0.7567 0.0
O240 O 0.49318 0.42966 0.74704 0.0
O241 O 0.58729 0.37925 0.81279 0.0
O242 O 0.49347 0.41634 0.80049 0.0
O243 O 0.46165 0.43122 0.76877 0.0
C244 C 0.46991 0.36394 0.79355 0.0
C245 C 0.4358 0.42008 0.69071 0.0
C246 C 0.43563 0.42803 0.65051 0.0
C247 C 0.45521 0.45145 0.65432 0.0
C248 C 0.45458 0.44372 0.69407 0.0
C249 C 0.46438 0.45923 0.67598 0.0
C250 C 0.42607 0.41235 0.6689 0.0
C251 C 0.53416 0.36192 0.74887 0.0
C252 C 0.42686 0.40326 0.70979 0.0
C253 C 0.31388 0.35243 0.77786 0.0
C254 C 0.33292 0.3297 0.77166 0.0
C255 C 0.53205 0.42979 0.74544 0.0
C256 C 0.56241 0.37541 0.8494 0.0
C257 C 0.56448 0.36804 0.88966 0.0
C258 C 0.54109 0.34594 0.8866 0.0
C259 C 0.53943 0.35321 0.84679 0.0
C260 C 0.5749 0.38277 0.87083 0.0
C261 C 0.52868 0.33865 0.86531 0.0
C262 C 0.46869 0.432 0.79041 0.0
C263 C 0.57299 0.39123 0.82997 0.0
H264 H 0.46262 0.46402 0.64058 0.0
H265 H 0.46136 0.45019 0.71073 0.0
H266 H 0.47881 0.47746 0.67879 0.0
H267 H 0.41144 0.3941 0.66625 0.0
H268 H 0.53303 0.33394 0.90061 0.0
H269 H 0.53 0.34708 0.83045 0.0
H270 H 0.59241 0.40005 0.87282 0.0
H271 H 0.51092 0.32153 0.86314 0.0
Tb272 Tb 0.04394 0.89853 0.74573 0.0
C273 C 0.87263 0.87627 0.77301 0.0
N274 N 0.89348 0.89838 0.77552 0.0
C275 C 0.83858 0.92204 0.76053 0.0
C276 C 0.83455 0.87604 0.7633 0.0
C277 C 0.87587 0.92129 0.77074 0.0
C278 C 0.81812 0.89927 0.7564 0.0
C279 C 0.8666 0.83103 0.78134 0.0
C280 C 0.8883 0.85409 0.78181 0.0
C281 C 0.82938 0.83042 0.77084 0.0
C282 C 0.81347 0.85285 0.76172 0.0
Tb283 Tb 0.95535 0.89424 0.79113 0.0
N284 N 0.92448 0.85541 0.79162 0.0
C285 C 0.88261 0.80952 0.79191 0.0
C286 C 0.93928 0.83497 0.80309 0.0
C287 C 0.91886 0.81161 0.80312 0.0
H288 H 0.89008 0.93916 0.77505 0.0
H289 H 0.93105 0.79526 0.81177 0.0
H290 H 0.11901 0.87323 0.77293 0.0
H291 H 0.02724 0.99165 0.70698 0.0
H292 H 0.96716 0.83664 0.81187 0.0
H293 H 0.86686 0.79142 0.79193 0.0
H294 H 0.01348 0.94574 0.71177 0.0
H295 H 0.82533 0.94023 0.75627 0.0
H296 H 0.81227 0.81285 0.77016 0.0
H297 H 0.7843 0.85224 0.75414 0.0
H298 H 0.18103 0.88823 0.79086 0.0
H299 H 0.78896 0.89993 0.74883 0.0
H300 H 0.08222 0.01207 0.72777 0.0
N301 N 0.10238 0.91033 0.76194 0.0
C302 C 0.11314 0.93525 0.75979 0.0
C303 C 0.16202 0.90169 0.78231 0.0
C304 C 0.14798 0.94473 0.76979 0.0
C305 C 0.12689 0.89325 0.77223 0.0
C306 C 0.17237 0.92761 0.78134 0.0
N307 N 0.05636 0.94073 0.73748 0.0
C308 C 0.03583 0.95464 0.72205 0.0
C309 C 0.09894 0.97708 0.74459 0.0
C310 C 0.08879 0.95112 0.74752 0.0
C311 C 0.07548 0.99203 0.73049 0.0
C312 C 0.0443 0.9806 0.7188 0.0
H313 H 0.19946 0.93412 0.78927 0.0
H314 H 0.18376 0.97863 0.77557 0.0
H315 H 0.14087 1.00698 0.75339 0.0
O316 O 0.07017 0.90233 0.71395 0.0
O317 O 0.05104 0.91234 0.78028 0.0
O318 O 0.99059 0.92923 0.78885 0.0
O319 O 0.07347 0.86695 0.73184 0.0
O320 O 0.98569 0.91395 0.73622 0.0
O321 O 0.95768 0.9282 0.76921 0.0
O322 O 0.97004 0.89173 0.82513 0.0
O323 O 0.9654 0.86294 0.76726 0.0
O324 O 0.98666 0.88263 0.73527 0.0
O325 O 0.91322 0.90574 0.81504 0.0
O326 O 0.01196 0.87605 0.79989 0.0
O327 O 0.04331 0.86418 0.7668 0.0
C328 C 0.02937 0.92987 0.79004 0.0
C329 C 0.06429 0.86457 0.69276 0.0
C330 C 0.06274 0.85943 0.65217 0.0
C331 C 0.0336 0.8403 0.65468 0.0
C332 C 0.03518 0.84538 0.69472 0.0
C333 C 0.02002 0.83337 0.6758 0.0
C334 C 0.07813 0.87144 0.67141 0.0
C335 C 0.96155 0.92913 0.74732 0.0
C336 C 0.07896 0.87822 0.71275 0.0
C337 C 0.15734 0.97084 0.76779 0.0
C338 C 0.13283 0.987 0.75523 0.0
C339 C 0.96624 0.86466 0.74546 0.0
C340 C 0.9398 0.92184 0.84864 0.0
C341 C 0.93341 0.9353 0.88752 0.0
C342 C 0.94652 0.95992 0.8814 0.0
C343 C 0.95253 0.94652 0.84287 0.0
C344 C 0.93036 0.9163 0.87092 0.0
C345 C 0.95607 0.96541 0.85922 0.0
C346 C 0.03693 0.86167 0.78843 0.0
C347 C 0.93674 0.90153 0.83176 0.0
H348 H 0.02161 0.8304 0.6403 0.0
H349 H 0.02394 0.8397 0.71088 0.0
H350 H 0.99761 0.81861 0.6775 0.0
H351 H 0.10021 0.88644 0.6698 0.0
H352 H 0.94974 0.97486 0.89379 0.0
H353 H 0.95961 0.95113 0.82575 0.0
H354 H 0.92007 0.89726 0.87525 0.0
H355 H 0.96621 0.98438 0.8547 0.0
Tb356 Tb 0.46619 0.61654 0.24515 0.0
C357 C 0.63734 0.64169 0.27236 0.0
N358 N 0.61759 0.61915 0.2747 0.0
C359 C 0.67378 0.59673 0.2598 0.0
C360 C 0.67548 0.64278 0.26278 0.0
C361 C 0.63639 0.59666 0.26991 0.0
C362 C 0.69313 0.61995 0.25581 0.0
C363 C 0.64098 0.68697 0.28093 0.0
C364 C 0.62046 0.66346 0.28121 0.0
C365 C 0.67829 0.68842 0.27059 0.0
C366 C 0.69541 0.66639 0.2614 0.0
Tb367 Tb 0.55545 0.62178 0.2902 0.0
N368 N 0.58425 0.6613 0.29086 0.0
C369 C 0.62376 0.70807 0.29154 0.0
C370 C 0.56828 0.68137 0.30236 0.0
C371 C 0.58749 0.70515 0.30258 0.0
H372 H 0.62313 0.57854 0.27425 0.0
H373 H 0.57437 0.72118 0.31127 0.0
H374 H 0.39148 0.64131 0.27304 0.0
H375 H 0.48334 0.52374 0.20588 0.0
H376 H 0.54046 0.67906 0.31107 0.0
H377 H 0.63859 0.72649 0.29171 0.0
H378 H 0.49643 0.56971 0.21084 0.0
H379 H 0.68801 0.57885 0.25553 0.0
H380 H 0.69451 0.70634 0.27007 0.0
H381 H 0.72461 0.66766 0.25394 0.0
H382 H 0.32989 0.62594 0.29115 0.0
H383 H 0.72238 0.61993 0.24834 0.0
H384 H 0.42881 0.50294 0.2268 0.0
N385 N 0.40825 0.60437 0.2617 0.0
C386 C 0.39766 0.57943 0.25943 0.0
C387 C 0.34888 0.61262 0.28243 0.0
C388 C 0.36304 0.56974 0.26951 0.0
C389 C 0.38379 0.62126 0.27225 0.0
C390 C 0.3387 0.58668 0.2813 0.0
N391 N 0.45411 0.57432 0.23682 0.0
C392 C 0.47454 0.5606 0.22123 0.0
C393 C 0.41199 0.53775 0.2439 0.0
C394 C 0.42195 0.56373 0.24694 0.0
C395 C 0.43541 0.52299 0.22961 0.0
C396 C 0.46633 0.53462 0.21786 0.0
H397 H 0.31177 0.58002 0.2893 0.0
H398 H 0.3276 0.53569 0.27519 0.0
H399 H 0.37041 0.50765 0.25265 0.0
O400 O 0.43952 0.6126 0.2135 0.0
O401 O 0.46031 0.60227 0.27955 0.0
O402 O 0.52144 0.58623 0.28787 0.0
O403 O 0.43572 0.64788 0.23154 0.0
O404 O 0.52448 0.6015 0.23528 0.0
O405 O 0.55481 0.588 0.26793 0.0
O406 O 0.54164 0.62485 0.32425 0.0
O407 O 0.54438 0.65285 0.26625 0.0
O408 O 0.5229 0.63298 0.23435 0.0
O409 O 0.5978 0.61001 0.31395 0.0
O410 O 0.49799 0.63864 0.29922 0.0
O411 O 0.46663 0.65083 0.26628 0.0
C412 C 0.48266 0.58485 0.28896 0.0
C413 C 0.44417 0.65048 0.19241 0.0
C414 C 0.44522 0.65551 0.15181 0.0
C415 C 0.47346 0.67521 0.15424 0.0
C416 C 0.47243 0.67021 0.19429 0.0
C417 C 0.48689 0.68245 0.17532 0.0
C418 C 0.43055 0.64327 0.17111 0.0
C419 C 0.54988 0.58688 0.24609 0.0
C420 C 0.43018 0.63663 0.21244 0.0
C421 C 0.35385 0.54362 0.26736 0.0
C422 C 0.37831 0.52764 0.25459 0.0
C423 C 0.5432 0.65108 0.24444 0.0
C424 C 0.57137 0.59486 0.34798 0.0
C425 C 0.57687 0.58224 0.38708 0.0
C426 C 0.56023 0.55832 0.38166 0.0
C427 C 0.55563 0.57073 0.34283 0.0
C428 C 0.58227 0.60048 0.37005 0.0
C429 C 0.5499 0.55261 0.35964 0.0
C430 C 0.47315 0.65324 0.28791 0.0
C431 C 0.57481 0.6148 0.33079 0.0
H432 H 0.48486 0.68532 0.13983 0.0
H433 H 0.48356 0.67613 0.21042 0.0
H434 H 0.50864 0.69763 0.17695 0.0
H435 H 0.40918 0.62783 0.16957 0.0
H436 H 0.55585 0.54389 0.39438 0.0
H437 H 0.54769 0.56603 0.32588 0.0
H438 H 0.59425 0.61922 0.37403 0.0
H439 H 0.53743 0.53407 0.35558 0.0
H440 H 0.13421 0.87343 0.3882 0.0
H441 H 0.10434 0.91128 0.37084 0.0
H442 H 0.18984 0.95946 0.40426 0.0
H443 H 0.22004 0.92132 0.42128 0.0
H444 H 0.07252 0.958 0.38569 0.0
H445 H 0.21172 0.97137 0.33739 0.0
H446 H 0.20142 0.94272 0.35316 0.0
H447 H 0.21773 0.97128 0.36716 0.0
C448 C 0.14579 0.89223 0.3922 0.0
C449 C 0.17936 0.8947 0.40584 0.0
C450 C 0.12889 0.91378 0.3823 0.0
C451 C 0.14547 0.9381 0.38586 0.0
C452 C 0.17708 0.94079 0.40098 0.0
H453 H 0.04737 0.08043 0.33533 0.0
H454 H 0.07272 0.04593 0.35861 0.0
C455 C 0.19397 0.91917 0.41089 0.0
C456 C 0.13166 0.96009 0.37233 0.0
H457 H 0.16116 1.00182 0.3317 0.0
C458 C 0.0919 0.9677 0.37397 0.0
C459 C 0.15682 0.97227 0.35667 0.0
C460 C 0.19921 0.96392 0.35325 0.0
C461 C 0.07671 0.98737 0.36052 0.0
C462 C 0.10216 1.0 0.34528 0.0
C463 C 0.14181 0.99223 0.34351 0.0
C464 C 0.08812 0.02129 0.33098 0.0
C465 C 0.03329 0.994 0.36236 0.0
C466 C 0.08973 0.01932 0.30763 0.0
C467 C 0.07551 0.03918 0.29418 0.0
C468 C 0.05959 0.06137 0.3039 0.0
C469 C 0.05901 0.06348 0.32728 0.0
C470 C 0.07332 0.04372 0.34066 0.0
H471 H 0.01592 0.97824 0.37011 0.0
H472 H 0.02998 0.01124 0.37299 0.0
H473 H 0.02043 0.99827 0.34573 0.0
H474 H 0.10131 1.00221 0.29982 0.0
H475 H 0.07621 0.03693 0.27624 0.0
H476 H 0.28334 0.59178 0.91995 0.0
H477 H 0.31297 0.55296 0.90375 0.0
H478 H 0.40362 0.59928 0.87273 0.0
H479 H 0.37408 0.63778 0.88914 0.0
H480 H 0.31855 0.54618 0.8577 0.0
H481 H 0.4668 0.53863 0.897 0.0
H482 H 0.4273 0.55753 0.90884 0.0
H483 H 0.45648 0.56993 0.88618 0.0
C484 C 0.31042 0.59334 0.91033 0.0
C485 C 0.32679 0.61745 0.90579 0.0
C486 C 0.3271 0.57133 0.90095 0.0
C487 C 0.36062 0.57322 0.88712 0.0
C488 C 0.3782 0.59728 0.88364 0.0
H489 H 0.43466 0.47717 0.77704 0.0
H490 H 0.40632 0.51054 0.80091 0.0
C491 C 0.3614 0.61922 0.89294 0.0
C492 C 0.37473 0.55069 0.87438 0.0
H493 H 0.45691 0.5149 0.86332 0.0
C494 C 0.34868 0.53914 0.85909 0.0
C495 C 0.41396 0.54147 0.87629 0.0
C496 C 0.44267 0.55236 0.89311 0.0
C497 C 0.36114 0.51906 0.84521 0.0
C498 C 0.40087 0.51059 0.84645 0.0
C499 C 0.42658 0.52164 0.8622 0.0
C500 C 0.41633 0.49007 0.83177 0.0
C501 C 0.33163 0.50701 0.82944 0.0
C502 C 0.43171 0.46766 0.84119 0.0
C503 C 0.44792 0.44867 0.82764 0.0
C504 C 0.44922 0.4517 0.80434 0.0
C505 C 0.43353 0.47409 0.79488 0.0
C506 C 0.41731 0.49315 0.8085 0.0
H507 H 0.30058 0.51095 0.83456 0.0
H508 H 0.33603 0.51505 0.8125 0.0
H509 H 0.33584 0.48597 0.82849 0.0
H510 H 0.43132 0.46491 0.85909 0.0
H511 H 0.45967 0.43164 0.83549 0.0
H512 H 0.63977 0.62421 0.62966 0.0
H513 H 0.60858 0.58683 0.64744 0.0
H514 H 0.72328 0.55093 0.653 0.0
H515 H 0.75427 0.58878 0.63595 0.0
H516 H 0.60351 0.53597 0.63972 0.0
H517 H 0.68935 0.55317 0.71724 0.0
H518 H 0.68878 0.5757 0.69449 0.0
H519 H 0.72019 0.54794 0.69332 0.0
C520 C 0.65794 0.60802 0.63431 0.0
C521 C 0.69921 0.60916 0.63166 0.0
C522 C 0.64029 0.58677 0.64452 0.0
C523 C 0.66374 0.56636 0.65214 0.0
C524 C 0.70473 0.56676 0.6479 0.0
H525 H 0.60598 0.42801 0.7269 0.0
H526 H 0.63826 0.46059 0.70375 0.0
C527 C 0.72237 0.58814 0.63796 0.0
C528 C 0.64559 0.54542 0.66549 0.0
H529 H 0.64992 0.51561 0.71619 0.0
C530 C 0.6137 0.53152 0.65642 0.0
C531 C 0.65858 0.53977 0.68743 0.0
C532 C 0.69082 0.55508 0.69881 0.0
C533 C 0.59482 0.51198 0.66858 0.0
C534 C 0.60811 0.50627 0.69036 0.0
C535 C 0.64008 0.51997 0.6994 0.0
C536 C 0.58851 0.4866 0.70433 0.0
C537 C 0.56069 0.49766 0.65808 0.0
C538 C 0.55025 0.49076 0.71272 0.0
C539 C 0.53204 0.47243 0.72629 0.0
C540 C 0.55153 0.44943 0.7314 0.0
C541 C 0.5901 0.44548 0.72318 0.0
C542 C 0.60852 0.464 0.70988 0.0
H543 H 0.56053 0.49972 0.63965 0.0
H544 H 0.56173 0.47699 0.66233 0.0
H545 H 0.53246 0.50555 0.66459 0.0
H546 H 0.53467 0.50834 0.70898 0.0
H547 H 0.50288 0.47641 0.73297 0.0
H548 H 0.87014 0.89051 0.12972 0.0
H549 H 0.90245 0.92745 0.14765 0.0
H550 H 0.78898 0.96498 0.15288 0.0
H551 H 0.75685 0.92759 0.13571 0.0
H552 H 0.90927 0.97827 0.13991 0.0
H553 H 0.8223 0.96248 0.21718 0.0
H554 H 0.82233 0.93987 0.19448 0.0
H555 H 0.79171 0.968 0.19322 0.0
C556 C 0.85249 0.90695 0.13436 0.0
C557 C 0.81123 0.90642 0.13156 0.0
C558 C 0.87078 0.92795 0.14465 0.0
C559 C 0.84798 0.9487 0.15219 0.0
C560 C 0.80702 0.94888 0.14784 0.0
H561 H 0.90758 0.08727 0.22613 0.0
H562 H 0.8751 0.05463 0.20309 0.0
C563 C 0.78875 0.92776 0.13784 0.0
C564 C 0.86668 0.96946 0.16556 0.0
H565 H 0.86233 0.99982 0.21602 0.0
C566 C 0.899 0.98296 0.15654 0.0
C567 C 0.85355 0.97543 0.18741 0.0
C568 C 0.82086 0.96052 0.19875 0.0
C569 C 0.91814 1.00246 0.16864 0.0
C570 C 0.90465 0.00854 0.19031 0.0
C571 C 0.87231 0.99519 0.19931 0.0
C572 C 0.92438 0.02826 0.20419 0.0
C573 C 0.95268 0.01641 0.1582 0.0
C574 C 0.96242 0.02394 0.21282 0.0
C575 C 0.9807 0.0423 0.22634 0.0
C576 C 0.96148 0.06547 0.2312 0.0
C577 C 0.92317 0.06962 0.22269 0.0
C578 C 0.90466 0.05108 0.20943 0.0
H579 H 0.95344 0.01384 0.13982 0.0
H580 H 0.95157 0.03719 0.16203 0.0
H581 H 0.98067 0.0087 0.16519 0.0
H582 H 0.97778 1.00621 0.2093 0.0
H583 H 0.00971 0.03821 0.2332 0.0
H584 H 0.76296 0.09202 0.62903 0.0
H585 H 0.79126 0.05375 0.64672 0.0
H586 H 0.90031 0.095 0.65862 0.0
H587 H 0.87193 0.13301 0.64046 0.0
H588 H 0.91239 0.0438 0.64663 0.0
H589 H 0.80184 0.05281 0.71473 0.0
H590 H 0.7805 0.0497 0.68744 0.0
H591 H 0.80961 0.07753 0.69419 0.0
C592 C 0.79337 0.09244 0.63483 0.0
C593 C 0.81562 0.11506 0.63335 0.0
C594 C 0.80932 0.07082 0.64515 0.0
C595 C 0.84756 0.07174 0.65442 0.0
C596 C 0.87069 0.09393 0.65167 0.0
H597 H 0.94201 0.97735 0.76098 0.0
H598 H 0.91386 0.01175 0.73812 0.0
C599 C 0.85472 0.1155 0.64123 0.0
C600 C 0.86248 0.05027 0.66822 0.0
H601 H 0.84378 0.01659 0.7159 0.0
C602 C 0.8974 0.03779 0.66175 0.0
C603 C 0.84327 0.04284 0.6882 0.0
C604 C 0.80695 0.05654 0.69673 0.0
C605 C 0.91337 0.01782 0.67457 0.0
C606 C 0.89344 0.00984 0.69417 0.0
C607 C 0.85878 0.02255 0.70077 0.0
C608 C 0.90847 0.98864 0.70829 0.0
C609 C 0.95194 1.0059 0.66724 0.0
C610 C 0.91357 0.96407 0.69933 0.0
C611 C 0.92969 0.94451 0.7123 0.0
C612 C 0.94056 0.94909 0.73457 0.0
C613 C 0.93373 0.97333 0.74388 0.0
C614 C 0.91785 0.99297 0.73081 0.0
H615 H 0.96881 0.01873 0.65589 0.0
H616 H 0.97094 1.00125 0.68178 0.0
H617 H 0.94556 0.9879 0.65809 0.0
H618 H 0.90548 0.96008 0.6822 0.0
H619 H 0.93426 0.92588 0.70482 0.0
H620 H 0.76103 0.41903 0.14352 0.0
H621 H 0.73174 0.45668 0.16108 0.0
H622 H 0.61552 0.43161 0.13996 0.0
H623 H 0.64488 0.39273 0.12403 0.0
H624 H 0.69157 0.49612 0.1509 0.0
H625 H 0.5963 0.43577 0.20491 0.0
H626 H 0.63331 0.42233 0.18676 0.0
H627 H 0.58558 0.43149 0.17589 0.0
C628 C 0.72925 0.42172 0.14258 0.0
C629 C 0.70506 0.40281 0.13296 0.0
C630 C 0.71249 0.44326 0.15252 0.0
C631 C 0.67118 0.44661 0.1526 0.0
C632 C 0.6473 0.42897 0.14093 0.0
H633 H 0.56598 0.5882 0.20164 0.0
H634 H 0.59548 0.55472 0.17887 0.0
C635 C 0.66408 0.40703 0.13144 0.0
C636 C 0.65356 0.46777 0.16594 0.0
H637 H 0.58701 0.48047 0.2074 0.0
C638 C 0.66873 0.49266 0.16328 0.0
C639 C 0.62446 0.46325 0.18256 0.0
C640 C 0.60927 0.43674 0.1879 0.0
C641 C 0.65581 0.51304 0.1767 0.0
C642 C 0.62538 0.50874 0.19256 0.0
C643 C 0.61014 0.48388 0.19518 0.0
C644 C 0.60869 0.52961 0.2066 0.0
C645 C 0.67607 0.53868 0.17419 0.0
C646 C 0.60499 0.52649 0.2298 0.0
C647 C 0.58667 0.54529 0.24282 0.0
C648 C 0.57212 0.56772 0.2329 0.0
C649 C 0.57685 0.57111 0.2098 0.0
C650 C 0.59423 0.55208 0.19675 0.0
H651 H 0.70673 0.53652 0.16767 0.0
H652 H 0.65934 0.55048 0.16206 0.0
H653 H 0.67756 0.54911 0.1903 0.0
H654 H 0.61573 0.50929 0.23783 0.0
H655 H 0.58304 0.54196 0.26052 0.0
H656 H 0.2665 0.42787 0.39842 0.0
H657 H 0.30113 0.46459 0.38162 0.0
H658 H 0.41328 0.42729 0.39272 0.0
H659 H 0.37845 0.39059 0.4096 0.0
H660 H 0.38306 0.49521 0.39913 0.0
H661 H 0.38336 0.43858 0.32029 0.0
H662 H 0.34532 0.43408 0.34113 0.0
H663 H 0.39468 0.42303 0.34636 0.0
C664 C 0.2986 0.428 0.39783 0.0
C665 C 0.32001 0.40663 0.40521 0.0
C666 C 0.31829 0.44885 0.38826 0.0
C667 C 0.35966 0.44852 0.38589 0.0
C668 C 0.38132 0.42787 0.39452 0.0
H669 H 0.51115 0.53719 0.29742 0.0
H670 H 0.48255 0.50454 0.32197 0.0
C671 C 0.36157 0.40706 0.40422 0.0
C672 C 0.37946 0.46825 0.37212 0.0
H673 H 0.41041 0.48 0.31891 0.0
C674 C 0.38922 0.49196 0.38162 0.0
C675 C 0.38745 0.46378 0.34933 0.0
C676 C 0.37719 0.43856 0.33848 0.0
C677 C 0.40697 0.51141 0.36881 0.0
C678 C 0.41413 0.50715 0.34584 0.0
C679 C 0.40472 0.48327 0.33648 0.0
C680 C 0.43143 0.52715 0.33117 0.0
C681 C 0.41855 0.53617 0.38004 0.0
C682 C 0.41185 0.55053 0.32788 0.0
C683 C 0.42831 0.56926 0.314 0.0
C684 C 0.46442 0.56482 0.30301 0.0
C685 C 0.48349 0.5412 0.3059 0.0
C686 C 0.46714 0.52253 0.31985 0.0
H687 H 0.42086 0.53391 0.39841 0.0
H688 H 0.44736 0.54338 0.37358 0.0
H689 H 0.3956 0.55081 0.37658 0.0
H690 H 0.38379 0.55428 0.33601 0.0
H691 H 0.41308 0.58733 0.31214 0.0
H692 H 0.22529 0.08512 0.9189 0.0
H693 H 0.19323 0.04762 0.90149 0.0
H694 H 0.10722 0.09728 0.87069 0.0
H695 H 0.13971 0.13451 0.8878 0.0
H696 H 0.11305 0.02698 0.89943 0.0
H697 H 0.16635 0.06373 0.81791 0.0
H698 H 0.18438 0.07599 0.84418 0.0
H699 H 0.13727 0.08628 0.83343 0.0
C700 C 0.19881 0.08772 0.90895 0.0
C701 C 0.18477 0.11244 0.90454 0.0
C702 C 0.18068 0.06645 0.89894 0.0
C703 C 0.14838 0.06977 0.88443 0.0
C704 C 0.13253 0.09435 0.88151 0.0
H705 H 0.00263 0.97799 0.79798 0.0
H706 H 0.03283 0.0108 0.8218 0.0
C707 C 0.15076 0.11552 0.89138 0.0
C708 C 0.13329 0.04813 0.8708 0.0
H709 H 0.12154 0.02856 0.81681 0.0
C710 C 0.11515 0.02719 0.88139 0.0
C711 C 0.13641 0.04837 0.84725 0.0
C712 C 0.15749 0.06966 0.83499 0.0
C713 C 0.0988 1.00691 0.86894 0.0
C714 C 0.10102 0.0076 0.84542 0.0
C715 C 0.11981 0.02823 0.83487 0.0
C716 C 0.08286 0.98746 0.83138 0.0
C717 C 0.0783 0.98516 0.88082 0.0
C718 C 0.10135 0.96364 0.82873 0.0
C719 C 0.08421 0.94489 0.81509 0.0
C720 C 0.04834 0.94974 0.80395 0.0
C721 C 0.03013 0.97369 0.80653 0.0
C722 C 0.04733 0.99243 0.82007 0.0
H723 H 0.07624 0.98845 0.89908 0.0
H724 H 0.04793 0.98246 0.87401 0.0
H725 H 0.09489 0.96716 0.87787 0.0
H726 H 0.12901 0.95959 0.8372 0.0
H727 H 0.09867 0.92651 0.81352 0.0
H728 H 0.26068 0.12966 0.9662 0.0
H729 H 0.23519 0.11864 1.00333 0.0
H730 H 0.11549 0.12291 0.97835 0.0
H731 H 0.14107 0.13462 0.94129 0.0
H732 H 0.17641 0.15306 0.02728 0.0
H733 H 0.12549 0.05262 1.01458 0.0
H734 H 0.16366 0.06703 0.9975 0.0
H735 H 0.11285 0.076 0.9937 0.0
C736 C 0.22897 0.12802 0.96867 0.0
C737 C 0.20278 0.13307 0.95101 0.0
C738 C 0.21447 0.12171 0.9898 0.0
C739 C 0.17349 0.11995 0.99355 0.0
C740 C 0.14723 0.12397 0.97572 0.0
H741 H 0.03795 0.0833 0.11323 0.0
H742 H 0.05898 0.09312 0.07511 0.0
C743 C 0.1618 0.1305 0.95459 0.0
C744 C 0.15837 0.11554 1.01646 0.0
H745 H 0.11402 0.071 0.04985 0.0
C746 C 0.16274 0.13513 0.03227 0.0
C747 C 0.14026 0.09226 0.02278 0.0
C748 C 0.13531 0.07061 1.00637 0.0
C749 C 0.14927 0.13213 0.05429 0.0
C750 C 0.13204 0.10855 0.06087 0.0
C751 C 0.12733 0.08904 0.0449 0.0
C752 C 0.119 0.1036 0.08421 0.0
C753 C 0.15285 0.1545 0.07008 0.0
C754 C 0.14566 0.10617 0.10211 0.0
C755 C 0.13356 0.10081 0.12395 0.0
C756 C 0.09475 0.09229 0.12831 0.0
C757 C 0.06812 0.08968 0.11039 0.0
C758 C 0.08011 0.0953 0.08859 0.0
H759 H 0.15451 0.17296 0.06094 0.0
H760 H 0.12737 0.15525 0.08178 0.0
H761 H 0.18051 0.15255 0.07995 0.0
H762 H 0.17613 0.11182 0.09916 0.0
H763 H 0.15495 0.10258 0.13734 0.0
H764 H 0.3623 0.34524 0.45027 0.0
H765 H 0.38882 0.35578 0.48731 0.0
H766 H 0.31219 0.42169 0.49028 0.0
H767 H 0.28668 0.41138 0.45292 0.0
H768 H 0.38352 0.43244 0.50777 0.0
H769 H 0.32837 0.34141 0.54372 0.0
H770 H 0.36215 0.3366 0.52103 0.0
H771 H 0.31517 0.35185 0.51606 0.0
C772 C 0.35166 0.36212 0.45884 0.0
C773 C 0.32241 0.37746 0.44902 0.0
C774 C 0.36645 0.36802 0.48002 0.0
C775 C 0.35167 0.38912 0.49191 0.0
C776 C 0.32382 0.40519 0.48155 0.0
H777 H 0.36438 0.40937 0.63576 0.0
H778 H 0.34465 0.40018 0.59727 0.0
C779 C 0.30937 0.39942 0.46024 0.0
C780 C 0.36441 0.39407 0.5153 0.0
H781 H 0.36961 0.36684 0.56702 0.0
C782 C 0.38043 0.41811 0.52073 0.0
C783 C 0.35966 0.37556 0.53236 0.0
C784 C 0.34003 0.35002 0.5281 0.0
C785 C 0.39227 0.42404 0.54262 0.0
C786 C 0.38905 0.40515 0.55949 0.0
C787 C 0.37258 0.38122 0.55409 0.0
C788 C 0.40164 0.41 0.58293 0.0
C789 C 0.40708 0.45074 0.54753 0.0
C790 C 0.44052 0.41794 0.58784 0.0
C791 C 0.45172 0.42338 0.6098 0.0
C792 C 0.4245 0.42053 0.6274 0.0
C793 C 0.38607 0.41161 0.62259 0.0
C794 C 0.37474 0.40645 0.60057 0.0
H795 H 0.39662 0.46467 0.53485 0.0
H796 H 0.39717 0.45732 0.56421 0.0
H797 H 0.43998 0.45084 0.54721 0.0
H798 H 0.46224 0.42002 0.57466 0.0
H799 H 0.48175 0.42982 0.61303 0.0
H800 H 0.65489 0.34114 0.08965 0.0
H801 H 0.62742 0.34996 0.05254 0.0
H802 H 0.70428 0.41569 0.04651 0.0
H803 H 0.73192 0.40668 0.08379 0.0
H804 H 0.60726 0.41385 0.03012 0.0
H805 H 0.71798 0.34458 0.99705 0.0
H806 H 0.69347 0.33724 0.023 0.0
H807 H 0.72746 0.36361 0.02164 0.0
C808 C 0.66513 0.35778 0.08054 0.0
C809 C 0.69547 0.3732 0.08932 0.0
C810 C 0.6495 0.36282 0.05946 0.0
C811 C 0.66397 0.38339 0.04684 0.0
C812 C 0.69266 0.39979 0.0561 0.0
H813 H 0.63791 0.386 0.90187 0.0
H814 H 0.66251 0.39438 0.93957 0.0
C815 C 0.70829 0.39473 0.07731 0.0
C816 C 0.65212 0.38578 0.02319 0.0
H817 H 0.66884 0.359 0.97219 0.0
C818 C 0.62091 0.40213 1.01735 0.0
C819 C 0.67028 0.37059 1.00663 0.0
C820 C 0.70431 0.35303 1.0122 0.0
C821 C 0.60658 0.40308 0.99532 0.0
C822 C 0.62356 0.38695 0.97892 0.0
C823 C 0.65575 0.37132 0.98473 0.0
C824 C 0.60726 0.38479 0.95595 0.0
C825 C 0.57341 0.42132 0.98985 0.0
C826 C 0.56794 0.37677 0.95257 0.0
C827 C 0.55372 0.37214 0.93104 0.0
C828 C 0.57862 0.37516 0.91239 0.0
C829 C 0.61776 0.38376 0.91579 0.0
C830 C 0.63195 0.38843 0.93736 0.0
H831 H 0.57262 0.43762 1.00173 0.0
H832 H 0.57639 0.42897 0.97266 0.0
H833 H 0.54465 0.41104 0.99109 0.0
H834 H 0.54854 0.37328 0.96664 0.0
H835 H 0.52331 0.36581 0.92904 0.0
H836 H 0.78407 0.10683 0.58702 0.0
H837 H 0.80858 0.09438 0.55005 0.0
H838 H 0.87848 0.16363 0.54717 0.0
H839 H 0.85534 0.1753 0.58452 0.0
H840 H 0.79341 0.12098 0.51315 0.0
H841 H 0.95632 0.11325 0.5221 0.0
H842 H 0.92341 0.114 0.54582 0.0
H843 H 0.93774 0.14324 0.53211 0.0
C844 C 0.80574 0.11884 0.57875 0.0
C845 C 0.81785 0.14199 0.58847 0.0
C846 C 0.8195 0.11188 0.5576 0.0
C847 C 0.84567 0.12795 0.54583 0.0
C848 C 0.85902 0.1506 0.55601 0.0
H849 H 0.90381 0.14554 0.4059 0.0
H850 H 0.89908 0.14999 0.44654 0.0
C851 C 0.84547 0.15744 0.57722 0.0
C852 C 0.85526 0.12255 0.52208 0.0
H853 H 0.93142 0.11696 0.48471 0.0
C854 C 0.82361 0.11978 0.50703 0.0
C855 C 0.89469 0.1212 0.51399 0.0
C856 C 0.92997 0.12283 0.5294 0.0
C857 C 0.83022 0.11622 0.48415 0.0
C858 C 0.86955 0.1152 0.47605 0.0
C859 C 0.9013 0.11783 0.491 0.0
C860 C 0.87773 0.11144 0.45199 0.0
C861 C 0.79504 0.11414 0.46868 0.0
C862 C 0.86854 0.08804 0.44176 0.0
C863 C 0.87137 0.0854 0.41864 0.0
C864 C 0.8834 0.10614 0.40525 0.0
C865 C 0.89466 0.12916 0.41571 0.0
C866 C 0.89186 0.13177 0.43891 0.0
H867 H 0.76698 0.11998 0.47692 0.0
H868 H 0.79958 0.12621 0.45365 0.0
H869 H 0.79177 0.094 0.46308 0.0
H870 H 0.85801 0.07204 0.45162 0.0
H871 H 0.86324 0.06725 0.41118 0.0
H872 H 0.85325 0.8457 0.08317 0.0
H873 H 0.88155 0.8586 0.04715 0.0
H874 H 0.81383 0.92844 0.04939 0.0
H875 H 0.78527 0.91532 0.08532 0.0
H876 H 0.83478 0.86778 1.00887 0.0
H877 H 0.92563 0.95294 0.03091 0.0
H878 H 0.90967 0.92974 0.05138 0.0
H879 H 0.87556 0.95334 0.04118 0.0
C880 C 0.84488 0.86392 0.07601 0.0
C881 C 0.81705 0.87951 0.08683 0.0
C882 C 0.86105 0.8713 0.05553 0.0
C883 C 0.84999 0.89455 0.04564 0.0
C884 C 0.82331 0.91063 0.05688 0.0
H885 H 0.89073 0.96499 0.91647 0.0
H886 H 0.87145 0.95495 0.95483 0.0
C887 C 0.80704 0.90318 0.07736 0.0
C888 C 0.86378 0.90087 0.02278 0.0
H889 H 0.91593 0.94479 0.99234 0.0
C890 C 0.85275 0.88452 1.00525 0.0
C891 C 0.88691 0.92284 1.0181 0.0
C892 C 0.90049 0.94066 0.03637 0.0
C893 C 0.86364 0.88974 0.98312 0.0
C894 C 0.88705 0.91162 0.97841 0.0
C895 C 0.89808 0.928 0.99595 0.0
C896 C 0.89998 0.91793 0.95535 0.0
C897 C 0.84897 0.87213 0.96492 0.0
C898 C 0.92305 0.90067 0.94298 0.0
C899 C 0.93403 0.90633 0.92103 0.0
C900 C 0.92257 0.92952 0.91106 0.0
C901 C 0.9003 0.94705 0.92369 0.0
C902 C 0.88916 0.94131 0.9456 0.0
H903 H 0.82286 0.86074 0.97041 0.0
H904 H 0.84071 0.88307 0.94976 0.0
H905 H 0.87289 0.85855 0.96041 0.0
H906 H 0.93262 0.8828 0.95032 0.0
H907 H 0.95181 0.89263 0.91193 0.0
H908 H 0.7318 0.60453 0.58308 0.0
H909 H 0.70539 0.59233 0.54636 0.0
H910 H 0.62099 0.65411 0.55021 0.0
H911 H 0.64862 0.66671 0.58652 0.0
H912 H 0.63557 0.57758 0.52995 0.0
H913 H 0.67598 0.67119 0.49291 0.0
H914 H 0.69169 0.66186 0.52044 0.0
H915 H 0.64254 0.67424 0.51598 0.0
C916 C 0.70725 0.61516 0.57609 0.0
C917 C 0.6923 0.6366 0.5873 0.0
C918 C 0.69225 0.6083 0.55515 0.0
C919 C 0.66188 0.62273 0.5452 0.0
C920 C 0.64525 0.64319 0.55717 0.0
H921 H 0.53392 0.57436 0.42517 0.0
H922 H 0.55356 0.58391 0.46359 0.0
C923 C 0.66066 0.65024 0.57794 0.0
C924 C 0.6487 0.61689 0.52205 0.0
H925 H 0.6375 0.64332 0.47034 0.0
C926 C 0.63604 0.59194 0.5169 0.0
C927 C 0.65006 0.63548 0.50487 0.0
C928 C 0.66619 0.6621 0.50873 0.0
C929 C 0.62438 0.58514 0.49517 0.0
C930 C 0.62422 0.60402 0.47821 0.0
C931 C 0.63716 0.6289 0.48335 0.0
C932 C 0.61183 0.59831 0.45488 0.0
C933 C 0.61353 0.55761 0.49053 0.0
C934 C 0.63733 0.6041 0.43703 0.0
C935 C 0.62583 0.59913 0.41503 0.0
C936 C 0.58866 0.58809 0.41042 0.0
C937 C 0.563 0.5825 0.42825 0.0
C938 C 0.57431 0.58781 0.45023 0.0
H939 H 0.62664 0.5445 0.50309 0.0
H940 H 0.58082 0.55541 0.49132 0.0
H941 H 0.62367 0.55159 0.47372 0.0
H942 H 0.66636 0.6123 0.44012 0.0
H943 H 0.64631 0.6035 0.40165 0.0
H944 H 0.25608 0.63511 0.96799 0.0
H945 H 0.28463 0.62988 1.00535 0.0
H946 H 0.40206 0.63848 0.97775 0.0
H947 H 0.3732 0.6448 0.94055 0.0
H948 H 0.33942 0.59774 0.02557 0.0
H949 H 0.39572 0.69765 0.02177 0.0
H950 H 0.36155 0.68487 1.00146 0.0
H951 H 0.4135 0.6774 0.99979 0.0
C952 C 0.28797 0.63565 0.96998 0.0
C953 C 0.3125 0.64082 0.95161 0.0
C954 C 0.30428 0.63253 0.99124 0.0
C955 C 0.34543 0.63444 0.99444 0.0
C956 C 0.37017 0.63754 0.97576 0.0
H957 H 0.48946 0.65005 0.11387 0.0
H958 H 0.46583 0.64217 0.07596 0.0
C959 C 0.35379 0.64083 0.95451 0.0
C960 C 0.36198 0.63518 1.01741 0.0
H961 H 0.41204 0.67384 0.05381 0.0
C962 C 0.3554 0.61433 0.03175 0.0
C963 C 0.38247 0.65697 0.02553 0.0
C964 C 0.38847 0.68061 1.01145 0.0
C965 C 0.36924 0.61458 0.05389 0.0
C966 C 0.38977 0.63636 0.06193 0.0
C967 C 0.3965 0.6571 0.04756 0.0
C968 C 0.40412 0.63845 0.08529 0.0
C969 C 0.36221 0.59147 0.06841 0.0
C970 C 0.3773 0.6388 0.1032 0.0
C971 C 0.39071 0.64349 0.12494 0.0
C972 C 0.43117 0.64812 0.12914 0.0
C973 C 0.45802 0.64699 0.1112 0.0
C974 C 0.44462 0.64233 0.08952 0.0
H975 H 0.35509 0.57419 0.05836 0.0
H976 H 0.38859 0.58741 0.07891 0.0
H977 H 0.33677 0.59526 0.07966 0.0
H978 H 0.34582 0.63637 0.10027 0.0
H979 H 0.36919 0.64451 0.13831 0.0
H980 H 0.13494 0.86663 0.44141 0.0
H981 H 0.10652 0.87353 0.47864 0.0
H982 H 0.22406 0.88572 0.50515 0.0
H983 H 0.25204 0.87974 0.46781 0.0
H984 H 0.12233 0.84231 0.51341 0.0
H985 H 0.16334 0.94144 0.53674 0.0
H986 H 0.16557 0.93003 0.50835 0.0
H987 H 0.20501 0.92294 0.52759 0.0
C988 C 0.15439 0.87164 0.45511 0.0
C989 C 0.19557 0.87254 0.45192 0.0
C990 C 0.13827 0.8754 0.47636 0.0
C991 C 0.16309 0.8803 0.49473 0.0
C992 C 0.20417 0.88245 0.49125 0.0
H993 H 0.13924 0.86833 0.63836 0.0
H994 H 0.16259 0.87553 0.60012 0.0
C995 C 0.22021 0.87878 0.47 0.0
C996 C 0.14667 0.88013 0.51775 0.0
H997 H 0.1429 0.91385 0.56659 0.0
C998 C 0.1264 0.85811 0.52492 0.0
C999 C 0.15234 0.90062 0.53289 0.0
C1000 C 0.17242 0.92519 0.52596 0.0
C1001 C 0.11245 0.85576 0.54687 0.0
C1002 C 0.11837 0.87614 0.56205 0.0
C1003 C 0.13843 0.89825 0.55492 0.0
C1004 C 0.10403 0.87453 0.58541 0.0
C1005 C 0.09245 0.83113 0.55381 0.0
C1006 C 0.06332 0.8724 0.58989 0.0
C1007 C 0.04993 0.86833 0.61165 0.0
C1008 C 0.07696 0.8664 0.62945 0.0
C1009 C 0.11764 0.8698 0.62506 0.0
C1010 C 0.13104 0.87385 0.60322 0.0
H1011 H 0.09843 0.81534 0.54188 0.0
H1012 H 0.10248 0.82513 0.57065 0.0
H1013 H 0.0599 0.83411 0.55446 0.0
H1014 H 0.04192 0.87337 0.57645 0.0
H1015 H 0.01834 0.86636 0.6145 0.0
H1016 H 0.2852 0.29725 0.40061 0.0
H1017 H 0.2459 0.26366 0.38215 0.0
H1018 H 0.15335 0.31843 0.36891 0.0
H1019 H 0.19288 0.35194 0.38725 0.0
H1020 H 0.17077 0.24497 0.39168 0.0
H1021 H 0.17426 0.28848 0.30731 0.0
H1022 H 0.20638 0.29906 0.32958 0.0
H1023 H 0.15558 0.30937 0.3286 0.0
C1024 C 0.25635 0.30193 0.39384 0.0
C1025 C 0.24196 0.32704 0.39518 0.0
C1026 C 0.23402 0.28285 0.38326 0.0
C1027 C 0.197 0.28864 0.37379 0.0
C1028 C 0.18223 0.31365 0.37561 0.0
H1029 H 0.01896 0.19867 0.30316 0.0
H1030 H 0.0554 0.23216 0.32332 0.0
C1031 C 0.20462 0.33272 0.38613 0.0
C1032 C 0.17371 0.26843 0.36223 0.0
H1033 H 0.1321 0.25245 0.31214 0.0
C1034 C 0.16242 0.24656 0.37427 0.0
C1035 C 0.16284 0.27055 0.3395 0.0
C1036 C 0.17567 0.293 0.3254 0.0
C1037 C 0.14006 0.22693 0.3643 0.0
C1038 C 0.12915 0.22908 0.34161 0.0
C1039 C 0.14035 0.25095 0.32957 0.0
C1040 C 0.10674 0.20862 0.32995 0.0
C1041 C 0.12773 0.20421 0.37821 0.0
C1042 C 0.12362 0.18436 0.32695 0.0
C1043 C 0.10284 0.16523 0.31557 0.0
C1044 C 0.06493 0.17006 0.30679 0.0
C1045 C 0.04796 0.19432 0.30992 0.0
C1046 C 0.06882 0.2135 0.32129 0.0
H1047 H 0.13004 0.20828 0.39634 0.0
H1048 H 0.09678 0.19838 0.37434 0.0
H1049 H 0.14743 0.18782 0.37437 0.0
H1050 H 0.1531 0.18032 0.33318 0.0
H1051 H 0.11658 0.14667 0.31354 0.0
H1052 H 0.22511 0.2013 0.8738 0.0
H1053 H 0.2659 0.23405 0.85539 0.0
H1054 H 0.36555 0.21299 0.8965 0.0
H1055 H 0.32471 0.17996 0.91472 0.0
H1056 H 0.35177 0.26714 0.89289 0.0
H1057 H 0.35636 0.21912 0.81032 0.0
H1058 H 0.30744 0.22318 0.82165 0.0
H1059 H 0.34215 0.20261 0.83555 0.0
C1060 C 0.25578 0.20365 0.87875 0.0
C1061 C 0.27199 0.1881 0.8955 0.0
C1062 C 0.27903 0.22227 0.86826 0.0
C1063 C 0.3189 0.22566 0.87435 0.0
C1064 C 0.33489 0.21057 0.89149 0.0
H1065 H 0.49612 0.31548 0.80207 0.0
H1066 H 0.46119 0.28155 0.82252 0.0
C1067 C 0.31163 0.19185 0.90192 0.0
C1068 C 0.34374 0.24509 0.86289 0.0
H1069 H 0.38082 0.26183 0.81191 0.0
C1070 C 0.35832 0.26593 0.87522 0.0
C1071 C 0.35261 0.24329 0.83989 0.0
C1072 C 0.33917 0.22075 0.82606 0.0
C1073 C 0.38062 0.28541 0.86498 0.0
C1074 C 0.38825 0.28403 0.84184 0.0
C1075 C 0.37462 0.26287 0.82963 0.0
C1076 C 0.40973 0.30465 0.82993 0.0
C1077 C 0.39595 0.30734 0.87893 0.0
C1078 C 0.39218 0.32875 0.82725 0.0
C1079 C 0.41203 0.3481 0.81565 0.0
C1080 C 0.44978 0.34368 0.80652 0.0
C1081 C 0.46729 0.31951 0.80921 0.0
C1082 C 0.44732 0.30011 0.82074 0.0
H1083 H 0.39453 0.30302 0.89704 0.0
H1084 H 0.4271 0.31199 0.87442 0.0
H1085 H 0.37769 0.32457 0.87568 0.0
H1086 H 0.36293 0.3325 0.83395 0.0
H1087 H 0.39778 0.36653 0.8138 0.0
H1088 H 0.68973 0.18942 0.62019 0.0
H1089 H 0.64937 0.22282 0.63803 0.0
H1090 H 0.74514 0.23869 0.68378 0.0
H1091 H 0.78554 0.20567 0.66554 0.0
H1092 H 0.62503 0.22477 0.6819 0.0
H1093 H 0.71634 0.30995 0.6612 0.0
H1094 H 0.72256 0.27952 0.64739 0.0
H1095 H 0.74379 0.28485 0.67451 0.0
C1096 C 0.70215 0.20048 0.63379 0.0
C1097 C 0.7407 0.19552 0.64137 0.0
C1098 C 0.67918 0.21936 0.64403 0.0
C1099 C 0.6945 0.23353 0.66199 0.0
C1100 C 0.73307 0.22843 0.66962 0.0
H1101 H 0.56597 0.31684 0.76328 0.0
H1102 H 0.60385 0.28581 0.74152 0.0
C1103 C 0.75601 0.20957 0.65935 0.0
C1104 C 0.66951 0.2528 0.67343 0.0
H1105 H 0.66584 0.31575 0.68856 0.0
C1106 C 0.6338 0.2447 0.68323 0.0
C1107 C 0.68079 0.27884 0.67493 0.0
C1108 C 0.71776 0.28891 0.66377 0.0
C1109 C 0.60952 0.26184 0.69495 0.0
C1110 C 0.62162 0.28765 0.69723 0.0
C1111 C 0.65682 0.29589 0.68696 0.0
C1112 C 0.59837 0.30638 0.71037 0.0
C1113 C 0.57096 0.25219 0.70463 0.0
C1114 C 0.58338 0.3285 0.70018 0.0
C1115 C 0.56213 0.34644 0.71264 0.0
C1116 C 0.55588 0.34268 0.73558 0.0
C1117 C 0.57074 0.32043 0.7457 0.0
C1118 C 0.59201 0.30254 0.73324 0.0
H1119 H 0.56088 0.23433 0.69629 0.0
H1120 H 0.57525 0.24791 0.72258 0.0
H1121 H 0.54725 0.26678 0.70311 0.0
H1122 H 0.58809 0.33186 0.68255 0.0
H1123 H 0.55108 0.36342 0.70439 0.0
H1124 H 0.73301 0.29123 0.1346 0.0
H1125 H 0.77192 0.25691 0.15204 0.0
H1126 H 0.86495 0.31111 0.1671 0.0
H1127 H 0.82647 0.34514 0.14911 0.0
H1128 H 0.89326 0.26475 0.15055 0.0
H1129 H 0.78587 0.24975 0.21964 0.0
H1130 H 0.7653 0.24674 0.19213 0.0
H1131 H 0.78385 0.2772 0.20144 0.0
C1132 C 0.76198 0.29559 0.14143 0.0
C1133 C 0.77686 0.32068 0.1407 0.0
C1134 C 0.78398 0.27613 0.15154 0.0
C1135 C 0.82103 0.28158 0.16118 0.0
C1136 C 0.83635 0.30653 0.15987 0.0
H1137 H 0.95275 0.1993 0.26087 0.0
H1138 H 0.91429 0.22978 0.23879 0.0
C1139 C 0.8144 0.32593 0.14973 0.0
C1140 C 0.84373 0.26149 0.17302 0.0
H1141 H 0.841 0.22199 0.21832 0.0
C1142 C 0.88183 0.25531 0.16532 0.0
C1143 C 0.82887 0.24948 0.19244 0.0
C1144 C 0.78889 0.25622 0.20208 0.0
C1145 C 0.90555 0.23743 0.17657 0.0
C1146 C 0.89047 0.22518 0.19581 0.0
C1147 C 0.85233 0.23131 0.20347 0.0
C1148 C 0.91435 0.2067 0.20883 0.0
C1149 C 0.94696 0.23237 0.16814 0.0
C1150 C 0.92705 0.1836 0.1993 0.0
C1151 C 0.94902 0.16614 0.2119 0.0
C1152 C 0.95817 0.17139 0.2343 0.0
C1153 C 0.94564 0.19461 0.24373 0.0
C1154 C 0.92377 0.21204 0.23114 0.0
H1155 H 0.95724 0.24753 0.15649 0.0
H1156 H 0.9683 0.23107 0.18219 0.0
H1157 H 0.9473 0.21386 0.15908 0.0
H1158 H 0.91953 0.17893 0.18223 0.0
H1159 H 0.95816 0.14833 0.20425 0.0
H1160 H 0.72627 0.71926 0.63328 0.0
H1161 H 0.76404 0.75458 0.65027 0.0
H1162 H 0.8613 0.70315 0.66297 0.0
H1163 H 0.82371 0.66806 0.64562 0.0
H1164 H 0.79203 0.7563 0.69411 0.0
H1165 H 0.916 0.76505 0.63378 0.0
H1166 H 0.87045 0.74833 0.62731 0.0
H1167 H 0.90802 0.73309 0.64387 0.0
C1168 C 0.75597 0.71575 0.63941 0.0
C1169 C 0.77232 0.69114 0.63815 0.0
C1170 C 0.77742 0.7358 0.64916 0.0
C1171 C 0.81569 0.73157 0.65762 0.0
C1172 C 0.83215 0.70697 0.65617 0.0
H1173 H 0.94704 0.81572 0.75697 0.0
H1174 H 0.90922 0.78451 0.73518 0.0
C1175 C 0.81065 0.68694 0.64647 0.0
C1176 C 0.83747 0.75246 0.66913 0.0
H1177 H 0.92376 0.78696 0.66843 0.0
C1178 C 0.8207 0.76313 0.68841 0.0
C1179 C 0.87469 0.76152 0.66154 0.0
C1180 C 0.89326 0.75161 0.64037 0.0
C1181 C 0.84065 0.78209 0.70066 0.0
C1182 C 0.87855 0.79042 0.69357 0.0
C1183 C 0.89486 0.78033 0.67393 0.0
C1184 C 0.90188 0.80929 0.7066 0.0
C1185 C 0.82101 0.79318 0.72106 0.0
C1186 C 0.91104 0.83337 0.69757 0.0
C1187 C 0.93222 0.85136 0.71015 0.0
C1188 C 0.94473 0.84549 0.73191 0.0
C1189 C 0.93659 0.82108 0.74058 0.0
C1190 C 0.91521 0.80319 0.72809 0.0
H1191 H 0.78863 0.78919 0.72135 0.0
H1192 H 0.83437 0.78454 0.73619 0.0
H1193 H 0.8257 0.8142 0.72187 0.0
H1194 H 0.9013 0.83835 0.68092 0.0
H1195 H 0.93836 0.86997 0.70295 0.0
H1196 H 0.78013 0.79702 0.13142 0.0
H1197 H 0.7421 0.76179 0.14832 0.0
H1198 H 0.64677 0.81402 0.16301 0.0
H1199 H 0.68468 0.84907 0.14581 0.0
H1200 H 0.71555 0.76004 0.19279 0.0
H1201 H 0.58977 0.75279 0.13338 0.0
H1202 H 0.63564 0.76896 0.12658 0.0
H1203 H 0.59915 0.78456 0.14362 0.0
C1204 C 0.75079 0.80074 0.13797 0.0
C1205 C 0.73509 0.82556 0.13732 0.0
C1206 C 0.72919 0.78074 0.14767 0.0
C1207 C 0.6914 0.78522 0.15667 0.0
C1208 C 0.67554 0.81002 0.15581 0.0
H1209 H 0.56151 0.70017 0.25598 0.0
H1210 H 0.5985 0.73172 0.23416 0.0
C1211 C 0.69722 0.83003 0.14618 0.0
C1212 C 0.6696 0.76434 0.16816 0.0
H1213 H 0.58304 0.73012 0.16766 0.0
C1214 C 0.6867 0.75338 0.18721 0.0
C1215 C 0.63213 0.75553 0.16074 0.0
C1216 C 0.61315 0.76587 0.13984 0.0
C1217 C 0.66687 0.73432 0.19939 0.0
C1218 C 0.62879 0.72617 0.19245 0.0
C1219 C 0.61211 0.73659 0.17304 0.0
C1220 C 0.60568 0.70715 0.20541 0.0
C1221 C 0.6868 0.72299 0.2196 0.0
C1222 C 0.5967 0.68307 0.19631 0.0
C1223 C 0.57606 0.66486 0.20892 0.0
C1224 C 0.5639 0.67052 0.23079 0.0
C1225 C 0.57174 0.69496 0.23952 0.0
C1226 C 0.59261 0.71306 0.227 0.0
H1227 H 0.71922 0.72686 0.21973 0.0
H1228 H 0.6738 0.73158 0.23484 0.0
H1229 H 0.68193 0.70198 0.22031 0.0
H1230 H 0.60626 0.67824 0.17959 0.0
H1231 H 0.57012 0.64624 0.20168 0.0
H1232 H 0.31269 0.8487 0.38417 0.0
H1233 H 0.35244 0.81687 0.36396 0.0
H1234 H 0.27246 0.7573 0.38585 0.0
H1235 H 0.23208 0.78946 0.40528 0.0
H1236 H 0.39242 0.77531 0.37737 0.0
H1237 H 0.27258 0.74604 0.31938 0.0
H1238 H 0.26859 0.77374 0.33718 0.0
H1239 H 0.25915 0.74223 0.34812 0.0
C1240 C 0.30393 0.82875 0.38459 0.0
C1241 C 0.26957 0.8213 0.39606 0.0
C1242 C 0.32648 0.81063 0.37313 0.0
C1243 C 0.315 0.78476 0.37303 0.0
C1244 C 0.28133 0.77722 0.38521 0.0
H1245 H 0.46492 0.65785 0.33308 0.0
H1246 H 0.42715 0.68995 0.35354 0.0
C1247 C 0.25857 0.79543 0.39648 0.0
C1248 C 0.3383 0.76577 0.36014 0.0
H1249 H 0.33092 0.72057 0.31921 0.0
C1250 C 0.37901 0.76339 0.3646 0.0
C1251 C 0.32094 0.75056 0.34319 0.0
C1252 C 0.27802 0.75341 0.33649 0.0
C1253 C 0.40269 0.74595 0.35283 0.0
C1254 C 0.38496 0.72996 0.33656 0.0
C1255 C 0.3444 0.73263 0.33185 0.0
C1256 C 0.40794 0.71044 0.32412 0.0
C1257 C 0.44662 0.74525 0.35763 0.0
C1258 C 0.40872 0.71076 0.30072 0.0
C1259 C 0.42986 0.69219 0.28892 0.0
C1260 C 0.45068 0.67294 0.30032 0.0
C1261 C 0.44961 0.67257 0.32376 0.0
C1262 C 0.4282 0.69101 0.33552 0.0
H1263 H 0.45713 0.76344 0.36523 0.0
H1264 H 0.45283 0.72959 0.36961 0.0
H1265 H 0.46397 0.74167 0.34221 0.0
H1266 H 0.39311 0.72549 0.29157 0.0
H1267 H 0.43005 0.69304 0.27088 0.0
H1268 H 0.27863 0.7238 0.90455 0.0
H1269 H 0.23849 0.75661 0.8858 0.0
H1270 H 0.15674 0.69806 0.86383 0.0
H1271 H 0.19623 0.6656 0.88336 0.0
H1272 H 0.22154 0.76173 0.84249 0.0
H1273 H 0.08142 0.74973 0.88955 0.0
H1274 H 0.12748 0.73562 0.89857 0.0
H1275 H 0.09814 0.72041 0.87724 0.0
C1276 C 0.25168 0.71822 0.89599 0.0
C1277 C 0.23996 0.69247 0.89549 0.0
C1278 C 0.22893 0.73681 0.88522 0.0
C1279 C 0.19421 0.72987 0.87371 0.0
C1280 C 0.18276 0.70399 0.87309 0.0
H1281 H 0.08012 0.82194 0.77128 0.0
H1282 H 0.1183 0.79003 0.79186 0.0
C1283 C 0.20533 0.68548 0.88405 0.0
C1284 C 0.17088 0.74954 0.86165 0.0
H1285 H 0.07792 0.7745 0.85624 0.0
C1286 C 0.19018 0.76463 0.84559 0.0
C1287 C 0.13007 0.75354 0.8659 0.0
C1288 C 0.10814 0.73915 0.88391 0.0
C1289 C 0.16971 0.78336 0.83343 0.0
C1290 C 0.12854 0.78661 0.83701 0.0
C1291 C 0.10937 0.77178 0.85331 0.0
C1292 C 0.10492 0.80567 0.82441 0.0
C1293 C 0.19261 0.79983 0.81722 0.0
C1294 C 0.08359 0.82456 0.83588 0.0
C1295 C 0.06126 0.84259 0.82419 0.0
C1296 C 0.05987 0.84214 0.80076 0.0
C1297 C 0.08089 0.823 0.78931 0.0
C1298 C 0.10295 0.80483 0.80104 0.0
H1299 H 0.22482 0.80008 0.82116 0.0
H1300 H 0.18905 0.79196 0.80015 0.0
H1301 H 0.18156 0.81982 0.81727 0.0
H1302 H 0.08453 0.82551 0.85391 0.0
H1303 H 0.04549 0.85706 0.83357 0.0
loop_
_geom_bond_atom_site_label_1
_geom_bond_atom_site_label_2
_geom_bond_distance
_geom_bond_site_symmetry_2
_ccdc_geom_bond_type
C0 N1 1.317 . S
C0 N2 1.348 . S
C0 C3 1.485 . S
N1 C0 1.317 . S
N1 N5 1.370 . S
N2 C0 1.348 . S
N2 C4 1.346 . S
C3 C0 1.485 . S
C3 H7 0.960 . S
C3 H8 0.961 . S
C3 H9 0.960 . S
C4 N2 1.346 . S
C4 N5 1.307 . S
C4 C6 1.486 . S
N5 N1 1.370 . S
N5 C4 1.307 . S
C6 C4 1.486 . S
C6 H10 0.960 . S
C6 H11 0.960 . S
C6 H12 0.959 . S
H7 C3 0.960 . S
H8 C3 0.961 . S
H9 C3 0.960 . S
H10 C6 0.960 . S
H11 C6 0.960 . S
H12 C6 0.959 . S
C13 N14 1.317 . S
C13 N15 1.348 . S
C13 C16 1.485 . S
N14 C13 1.317 . S
N14 N18 1.370 . S
N15 C13 1.348 . S
N15 C17 1.346 . S
C16 C13 1.485 . S
C16 H20 0.960 . S
C16 H21 0.961 . S
C16 H22 0.960 . S
C17 N15 1.346 . S
C17 N18 1.307 . S
C17 C19 1.486 . S
N18 N14 1.370 . S
N18 C17 1.307 . S
C19 C17 1.486 . S
C19 H23 0.960 . S
C19 H24 0.960 . S
C19 H25 0.959 . S
H20 C16 0.960 . S
H21 C16 0.961 . S
H22 C16 0.960 . S
H23 C19 0.960 . S
H24 C19 0.960 . S
H25 C19 0.959 . S
C26 N27 1.317 . S
C26 N28 1.348 . S
C26 C29 1.485 . S
N27 C26 1.317 . S
N27 N31 1.370 . S
N28 C26 1.348 . S
N28 C30 1.346 . S
C29 C26 1.485 . S
C29 H33 0.960 . S
C29 H34 0.961 . S
C29 H35 0.960 . S
C30 N28 1.346 . S
C30 N31 1.307 . S
C30 C32 1.486 . S
N31 N27 1.370 . S
N31 C30 1.307 . S
C32 C30 1.486 . S
C32 H36 0.960 . S
C32 H37 0.960 . S
C32 H38 0.959 . S
H33 C29 0.960 . S
H34 C29 0.961 . S
H35 C29 0.960 . S
H36 C32 0.960 . S
H37 C32 0.960 . S
H38 C32 0.959 . S
C39 N40 1.317 . S
C39 N41 1.348 . S
C39 C42 1.485 . S
N40 C39 1.317 . S
N40 N44 1.370 . S
N41 C39 1.348 . S
N41 C43 1.346 . S
C42 C39 1.485 . S
C42 H46 0.960 . S
C42 H47 0.961 . S
C42 H48 0.960 . S
C43 N41 1.346 . S
C43 N44 1.307 . S
C43 C45 1.486 . S
N44 N40 1.370 . S
N44 C43 1.307 . S
C45 C43 1.486 . S
C45 H49 0.960 . S
C45 H50 0.960 . S
C45 H51 0.959 . S
H46 C42 0.960 . S
H47 C42 0.961 . S
H48 C42 0.960 . S
H49 C45 0.960 . S
H50 C45 0.960 . S
H51 C45 0.959 . S
C52 N53 1.317 . S
C52 N54 1.348 . S
C52 C55 1.485 . S
N53 C52 1.317 . S
N53 N57 1.370 . S
N54 C52 1.348 . S
N54 C56 1.346 . S
C55 C52 1.485 . S
C55 H59 0.960 . S
C55 H60 0.961 . S
C55 H61 0.960 . S
C56 N54 1.346 . S
C56 N57 1.307 . S
C56 C58 1.486 . S
N57 N53 1.370 . S
N57 C56 1.307 . S
C58 C56 1.486 . S
C58 H62 0.960 . S
C58 H63 0.960 . S
C58 H64 0.959 . S
H59 C55 0.960 . S
H60 C55 0.961 . S
H61 C55 0.960 . S
H62 C58 0.960 . S
H63 C58 0.960 . S
H64 C58 0.959 . S
C65 N66 1.317 . S
C65 N67 1.348 . S
C65 C68 1.485 . S
N66 C65 1.317 . S
N66 N70 1.370 . S
N67 C65 1.348 . S
N67 C69 1.346 . S
C68 C65 1.485 . S
C68 H72 0.960 . S
C68 H73 0.961 . S
C68 H74 0.960 . S
C69 N67 1.346 . S
C69 N70 1.307 . S
C69 C71 1.486 . S
N70 N66 1.370 . S
N70 C69 1.307 . S
C71 C69 1.486 . S
C71 H75 0.960 . S
C71 H76 0.960 . S
C71 H77 0.959 . S
H72 C68 0.960 . S
H73 C68 0.961 . S
H74 C68 0.960 . S
H75 C71 0.960 . S
H76 C71 0.960 . S
H77 C71 0.959 . S
C78 N79 1.317 . S
C78 N80 1.348 . S
C78 C81 1.485 . S
N79 C78 1.317 . S
N79 N83 1.370 . S
N80 C78 1.348 . S
N80 C82 1.346 . S
C81 C78 1.485 . S
C81 H85 0.960 . S
C81 H86 0.961 . S
C81 H87 0.960 . S
C82 N80 1.346 . S
C82 N83 1.307 . S
C82 C84 1.486 . S
N83 N79 1.370 . S
N83 C82 1.307 . S
C84 C82 1.486 . S
C84 H88 0.960 . S
C84 H89 0.960 . S
C84 H90 0.959 . S
H85 C81 0.960 . S
H86 C81 0.961 . S
H87 C81 0.960 . S
H88 C84 0.960 . S
H89 C84 0.960 . S
H90 C84 0.959 . S
C91 N92 1.317 . S
C91 N93 1.348 . S
C91 C94 1.485 . S
N92 C91 1.317 . S
N92 N96 1.370 . S
N93 C91 1.348 . S
N93 C95 1.346 . S
C94 C91 1.485 . S
C94 H98 0.960 . S
C94 H99 0.961 . S
C94 H100 0.960 . S
C95 N93 1.346 . S
C95 N96 1.307 . S
C95 C97 1.486 . S
N96 N92 1.370 . S
N96 C95 1.307 . S
C97 C95 1.486 . S
C97 H101 0.960 . S
C97 H102 0.960 . S
C97 H103 0.959 . S
H98 C94 0.960 . S
H99 C94 0.961 . S
H100 C94 0.960 . S
H101 C97 0.960 . S
H102 C97 0.960 . S
H103 C97 0.959 . S
Tb104 N133 2.617 . S
Tb104 N139 2.572 . S
Tb104 O148 2.465 . S
Tb104 O149 2.387 . S
Tb104 O151 2.428 . S
Tb104 O152 2.308 . S
Tb104 O156 2.349 . S
Tb104 O159 2.393 . S
Tb104 C168 2.802 . S
C105 N106 1.379 . S
C105 C108 1.416 . S
C105 C112 1.424 . S
N106 C105 1.379 . S
N106 C109 1.334 . S
N106 Tb115 2.617 . S
C107 C109 1.390 . S
C107 C110 1.339 . S
C107 H127 0.930 . S
C108 C105 1.416 . S
C108 C110 1.416 . S
C108 C114 1.448 . S
C109 N106 1.334 . S
C109 C107 1.390 . S
C109 H120 0.930 . S
C110 C107 1.339 . S
C110 C108 1.416 . S
C110 H131 0.930 . S
C111 C112 1.413 . S
C111 C113 1.427 . S
C111 C117 1.416 . S
C112 C105 1.424 . S
C112 C111 1.413 . S
C112 N116 1.361 . S
C113 C111 1.427 . S
C113 C114 1.328 . S
C113 H128 0.929 . S
C114 C108 1.448 . S
C114 C113 1.328 . S
C114 H129 0.930 . S
Tb115 N106 2.617 . S
Tb115 N116 2.572 . S
Tb115 O150 2.349 1_655 S
Tb115 O153 2.393 . S
Tb115 O154 2.465 . S
Tb115 O155 2.387 . S
Tb115 O157 2.428 . S
Tb115 O158 2.308 1_655 S
Tb115 C179 2.802 . S
N116 C112 1.361 . S
N116 Tb115 2.572 . S
N116 C118 1.340 . S
C117 C111 1.416 . S
C117 C119 1.332 . S
C117 H125 0.931 . S
C118 N116 1.340 . S
C118 C119 1.407 . S
C118 H124 0.930 . S
C119 C117 1.332 . S
C119 C118 1.407 . S
C119 H121 0.929 . S
H120 C109 0.930 . S
H121 C119 0.929 . S
H122 C137 0.930 . S
H123 C144 0.929 . S
H124 C118 0.930 . S
H125 C117 0.931 . S
H126 C140 0.930 . S
H127 C107 0.930 . S
H128 C113 0.929 . S
H129 C114 0.930 . S
H130 C135 0.930 . S
H131 C110 0.930 . S
H132 C143 0.931 . S
N133 Tb104 2.617 . S
N133 C134 1.379 . S
N133 C137 1.334 . S
C134 N133 1.379 . S
C134 C136 1.416 . S
C134 C142 1.424 . S
C135 H130 0.930 . S
C135 C137 1.390 . S
C135 C138 1.339 . S
C136 C134 1.416 . S
C136 C138 1.416 . S
C136 C169 1.448 . S
C137 H122 0.930 . S
C137 N133 1.334 . S
C137 C135 1.390 . S
C138 C135 1.339 . S
C138 C136 1.416 . S
C138 H145 0.930 . S
N139 Tb104 2.572 . S
N139 C140 1.340 . S
N139 C142 1.361 . S
C140 H126 0.930 . S
C140 N139 1.340 . S
C140 C144 1.407 . S
C141 C142 1.413 . S
C141 C143 1.416 . S
C141 C170 1.427 . S
C142 C134 1.424 . S
C142 N139 1.361 . S
C142 C141 1.413 . S
C143 H132 0.931 . S
C143 C141 1.416 . S
C143 C144 1.332 . S
C144 H123 0.929 . S
C144 C140 1.407 . S
C144 C143 1.332 . S
H145 C138 0.930 . S
H146 C169 0.930 . S
H147 C170 0.929 . S
O148 Tb104 2.465 . S
O148 C168 1.264 . S
O149 Tb104 2.387 . S
O149 C160 1.264 . S
O150 Tb115 2.349 1_455 S
O150 C160 1.243 . S
O151 Tb104 2.428 . S
O151 C168 1.256 . S
O152 Tb104 2.308 . S
O152 C167 1.266 1_455 S
O153 Tb115 2.393 . S
O153 C167 1.248 . S
O154 Tb115 2.465 . S
O154 C179 1.264 . S
O155 Tb115 2.387 . S
O155 C171 1.264 . S
O156 Tb104 2.349 . S
O156 C171 1.243 1_455 S
O157 Tb115 2.428 . S
O157 C179 1.256 . S
O158 Tb115 2.308 1_455 S
O158 C178 1.266 . S
O159 Tb104 2.393 . S
O159 C178 1.248 . S
C160 O149 1.264 . S
C160 O150 1.243 . S
C161 C164 1.399 . S
C161 C166 1.383 . S
C161 C168 1.496 . S
C162 C163 1.399 . S
C162 C166 1.389 . S
C163 C162 1.399 . S
C163 C165 1.380 . S
C163 H180 0.929 . S
C164 C161 1.399 . S
C164 C165 1.392 . S
C164 H181 0.929 . S
C165 C163 1.380 . S
C165 C164 1.392 . S
C165 H182 0.929 . S
C166 C161 1.383 . S
C166 C162 1.389 . S
C166 H183 0.931 . S
C167 O152 1.266 1_655 S
C167 O153 1.248 . S
C168 Tb104 2.802 . S
C168 O148 1.264 . S
C168 O151 1.256 . S
C168 C161 1.496 . S
C169 C136 1.448 . S
C169 H146 0.930 . S
C169 C170 1.328 . S
C170 C141 1.427 . S
C170 H147 0.929 . S
C170 C169 1.328 . S
C171 O155 1.264 . S
C171 O156 1.243 1_655 S
C172 C175 1.399 . S
C172 C176 1.383 . S
C172 C179 1.496 . S
C173 C174 1.399 . S
C173 C176 1.389 . S
C174 C173 1.399 . S
C174 C177 1.380 . S
C174 H184 0.929 . S
C175 C172 1.399 . S
C175 C177 1.392 . S
C175 H185 0.929 . S
C176 C172 1.383 . S
C176 C173 1.389 . S
C176 H186 0.931 . S
C177 C174 1.380 . S
C177 C175 1.392 . S
C177 H187 0.929 . S
C178 O158 1.266 . S
C178 O159 1.248 . S
C179 Tb115 2.802 . S
C179 O154 1.264 . S
C179 O157 1.256 . S
C179 C172 1.496 . S
H180 C163 0.929 . S
H181 C164 0.929 . S
H182 C165 0.929 . S
H183 C166 0.931 . S
H184 C174 0.929 . S
H185 C175 0.929 . S
H186 C176 0.931 . S
H187 C177 0.929 . S
Tb188 N217 2.617 . S
Tb188 N223 2.572 . S
Tb188 O232 2.465 . S
Tb188 O233 2.387 . S
Tb188 O235 2.428 . S
Tb188 O236 2.308 . S
Tb188 O240 2.349 . S
Tb188 O243 2.393 . S
Tb188 C252 2.802 . S
C189 N190 1.379 . S
C189 C192 1.416 . S
C189 C196 1.424 . S
N190 C189 1.379 . S
N190 C193 1.334 . S
N190 Tb199 2.617 . S
C191 C193 1.390 . S
C191 C194 1.339 . S
C191 H211 0.930 . S
C192 C189 1.416 . S
C192 C194 1.416 . S
C192 C198 1.448 . S
C193 N190 1.334 . S
C193 C191 1.390 . S
C193 H204 0.930 . S
C194 C191 1.339 . S
C194 C192 1.416 . S
C194 H215 0.930 . S
C195 C196 1.413 . S
C195 C197 1.427 . S
C195 C201 1.416 . S
C196 C189 1.424 . S
C196 C195 1.413 . S
C196 N200 1.361 . S
C197 C195 1.427 . S
C197 C198 1.328 . S
C197 H212 0.929 . S
C198 C192 1.448 . S
C198 C197 1.328 . S
C198 H213 0.930 . S
Tb199 N190 2.617 . S
Tb199 N200 2.572 . S
Tb199 O234 2.349 . S
Tb199 O237 2.393 . S
Tb199 O238 2.465 . S
Tb199 O239 2.387 . S
Tb199 O241 2.428 . S
Tb199 O242 2.308 . S
Tb199 C263 2.802 . S
N200 C196 1.361 . S
N200 Tb199 2.572 . S
N200 C202 1.340 . S
C201 C195 1.416 . S
C201 C203 1.332 . S
C201 H209 0.931 . S
C202 N200 1.340 . S
C202 C203 1.407 . S
C202 H208 0.930 . S
C203 C201 1.332 . S
C203 C202 1.407 . S
C203 H205 0.929 . S
H204 C193 0.930 . S
H205 C203 0.929 . S
H206 C221 0.930 . S
H207 C228 0.929 . S
H208 C202 0.930 . S
H209 C201 0.931 . S
H210 C224 0.930 . S
H211 C191 0.930 . S
H212 C197 0.929 . S
H213 C198 0.930 . S
H214 C219 0.930 . S
H215 C194 0.930 . S
H216 C227 0.931 . S
N217 Tb188 2.617 . S
N217 C218 1.379 . S
N217 C221 1.334 . S
C218 N217 1.379 . S
C218 C220 1.416 . S
C218 C226 1.424 . S
C219 H214 0.930 . S
C219 C221 1.390 . S
C219 C222 1.339 . S
C220 C218 1.416 . S
C220 C222 1.416 . S
C220 C253 1.448 . S
C221 H206 0.930 . S
C221 N217 1.334 . S
C221 C219 1.390 . S
C222 C219 1.339 . S
C222 C220 1.416 . S
C222 H229 0.930 . S
N223 Tb188 2.572 . S
N223 C224 1.340 . S
N223 C226 1.361 . S
C224 H210 0.930 . S
C224 N223 1.340 . S
C224 C228 1.407 . S
C225 C226 1.413 . S
C225 C227 1.416 . S
C225 C254 1.427 . S
C226 C218 1.424 . S
C226 N223 1.361 . S
C226 C225 1.413 . S
C227 H216 0.931 . S
C227 C225 1.416 . S
C227 C228 1.332 . S
C228 H207 0.929 . S
C228 C224 1.407 . S
C228 C227 1.332 . S
H229 C222 0.930 . S
H230 C253 0.930 . S
H231 C254 0.929 . S
O232 Tb188 2.465 . S
O232 C252 1.264 . S
O233 Tb188 2.387 . S
O233 C244 1.264 . S
O234 Tb199 2.349 . S
O234 C244 1.243 . S
O235 Tb188 2.428 . S
O235 C252 1.256 . S
O236 Tb188 2.308 . S
O236 C251 1.266 . S
O237 Tb199 2.393 . S
O237 C251 1.248 . S
O238 Tb199 2.465 . S
O238 C263 1.264 . S
O239 Tb199 2.387 . S
O239 C255 1.264 . S
O240 Tb188 2.349 . S
O240 C255 1.243 . S
O241 Tb199 2.428 . S
O241 C263 1.256 . S
O242 Tb199 2.308 . S
O242 C262 1.266 . S
O243 Tb188 2.393 . S
O243 C262 1.248 . S
C244 O233 1.264 . S
C244 O234 1.243 . S
C245 C248 1.399 . S
C245 C250 1.383 . S
C245 C252 1.496 . S
C246 C247 1.399 . S
C246 C250 1.389 . S
C247 C246 1.399 . S
C247 C249 1.380 . S
C247 H264 0.929 . S
C248 C245 1.399 . S
C248 C249 1.392 . S
C248 H265 0.929 . S
C249 C247 1.380 . S
C249 C248 1.392 . S
C249 H266 0.929 . S
C250 C245 1.383 . S
C250 C246 1.389 . S
C250 H267 0.931 . S
C251 O236 1.266 . S
C251 O237 1.248 . S
C252 Tb188 2.802 . S
C252 O232 1.264 . S
C252 O235 1.256 . S
C252 C245 1.496 . S
C253 C220 1.448 . S
C253 H230 0.930 . S
C253 C254 1.328 . S
C254 C225 1.427 . S
C254 H231 0.929 . S
C254 C253 1.328 . S
C255 O239 1.264 . S
C255 O240 1.243 . S
C256 C259 1.399 . S
C256 C260 1.383 . S
C256 C263 1.496 . S
C257 C258 1.399 . S
C257 C260 1.389 . S
C258 C257 1.399 . S
C258 C261 1.380 . S
C258 H268 0.929 . S
C259 C256 1.399 . S
C259 C261 1.392 . S
C259 H269 0.929 . S
C260 C256 1.383 . S
C260 C257 1.389 . S
C260 H270 0.931 . S
C261 C258 1.380 . S
C261 C259 1.392 . S
C261 H271 0.929 . S
C262 O242 1.266 . S
C262 O243 1.248 . S
C263 Tb199 2.802 . S
C263 O238 1.264 . S
C263 O241 1.256 . S
C263 C256 1.496 . S
H264 C247 0.929 . S
H265 C248 0.929 . S
H266 C249 0.929 . S
H267 C250 0.931 . S
H268 C258 0.929 . S
H269 C259 0.929 . S
H270 C260 0.931 . S
H271 C261 0.929 . S
Tb272 N301 2.617 . S
Tb272 N307 2.572 . S
Tb272 O316 2.465 . S
Tb272 O317 2.387 . S
Tb272 O319 2.428 . S
Tb272 O320 2.308 . S
Tb272 O324 2.349 . S
Tb272 O327 2.393 . S
Tb272 C336 2.802 . S
C273 N274 1.379 . S
C273 C276 1.416 . S
C273 C280 1.424 . S
N274 C273 1.379 . S
N274 C277 1.334 . S
N274 Tb283 2.617 . S
C275 C277 1.390 . S
C275 C278 1.339 . S
C275 H295 0.930 . S
C276 C273 1.416 . S
C276 C278 1.416 . S
C276 C282 1.448 . S
C277 N274 1.334 . S
C277 C275 1.390 . S
C277 H288 0.930 . S
C278 C275 1.339 . S
C278 C276 1.416 . S
C278 H299 0.930 . S
C279 C280 1.413 . S
C279 C281 1.427 . S
C279 C285 1.416 . S
C280 C273 1.424 . S
C280 C279 1.413 . S
C280 N284 1.361 . S
C281 C279 1.427 . S
C281 C282 1.328 . S
C281 H296 0.929 . S
C282 C276 1.448 . S
C282 C281 1.328 . S
C282 H297 0.930 . S
Tb283 N274 2.617 . S
Tb283 N284 2.572 . S
Tb283 O318 2.349 1_655 S
Tb283 O321 2.393 . S
Tb283 O322 2.465 . S
Tb283 O323 2.387 . S
Tb283 O325 2.428 . S
Tb283 O326 2.308 1_655 S
Tb283 C347 2.802 . S
N284 C280 1.361 . S
N284 Tb283 2.572 . S
N284 C286 1.340 . S
C285 C279 1.416 . S
C285 C287 1.332 . S
C285 H293 0.931 . S
C286 N284 1.340 . S
C286 C287 1.407 . S
C286 H292 0.930 . S
C287 C285 1.332 . S
C287 C286 1.407 . S
C287 H289 0.929 . S
H288 C277 0.930 . S
H289 C287 0.929 . S
H290 C305 0.930 . S
H291 C312 0.929 . S
H292 C286 0.930 . S
H293 C285 0.931 . S
H294 C308 0.930 . S
H295 C275 0.930 . S
H296 C281 0.929 . S
H297 C282 0.930 . S
H298 C303 0.930 . S
H299 C278 0.930 . S
H300 C311 0.931 . S
N301 Tb272 2.617 . S
N301 C302 1.379 . S
N301 C305 1.334 . S
C302 N301 1.379 . S
C302 C304 1.416 . S
C302 C310 1.424 . S
C303 H298 0.930 . S
C303 C305 1.390 . S
C303 C306 1.339 . S
C304 C302 1.416 . S
C304 C306 1.416 . S
C304 C337 1.448 . S
C305 H290 0.930 . S
C305 N301 1.334 . S
C305 C303 1.390 . S
C306 C303 1.339 . S
C306 C304 1.416 . S
C306 H313 0.930 . S
N307 Tb272 2.572 . S
N307 C308 1.340 . S
N307 C310 1.361 . S
C308 H294 0.930 . S
C308 N307 1.340 . S
C308 C312 1.407 . S
C309 C310 1.413 . S
C309 C311 1.416 . S
C309 C338 1.427 . S
C310 C302 1.424 . S
C310 N307 1.361 . S
C310 C309 1.413 . S
C311 H300 0.931 . S
C311 C309 1.416 . S
C311 C312 1.332 . S
C312 H291 0.929 . S
C312 C308 1.407 . S
C312 C311 1.332 . S
H313 C306 0.930 . S
H314 C337 0.930 . S
H315 C338 0.929 . S
O316 Tb272 2.465 . S
O316 C336 1.264 . S
O317 Tb272 2.387 . S
O317 C328 1.264 . S
O318 Tb283 2.349 1_455 S
O318 C328 1.243 . S
O319 Tb272 2.428 . S
O319 C336 1.256 . S
O320 Tb272 2.308 . S
O320 C335 1.266 1_455 S
O321 Tb283 2.393 . S
O321 C335 1.248 . S
O322 Tb283 2.465 . S
O322 C347 1.264 . S
O323 Tb283 2.387 . S
O323 C339 1.264 . S
O324 Tb272 2.349 . S
O324 C339 1.243 1_455 S
O325 Tb283 2.428 . S
O325 C347 1.256 . S
O326 Tb283 2.308 1_455 S
O326 C346 1.266 . S
O327 Tb272 2.393 . S
O327 C346 1.248 . S
C328 O317 1.264 . S
C328 O318 1.243 . S
C329 C332 1.399 . S
C329 C334 1.383 . S
C329 C336 1.496 . S
C330 C331 1.399 . S
C330 C334 1.389 . S
C331 C330 1.399 . S
C331 C333 1.380 . S
C331 H348 0.929 . S
C332 C329 1.399 . S
C332 C333 1.392 . S
C332 H349 0.929 . S
C333 C331 1.380 . S
C333 C332 1.392 . S
C333 H350 0.929 . S
C334 C329 1.383 . S
C334 C330 1.389 . S
C334 H351 0.931 . S
C335 O320 1.266 1_655 S
C335 O321 1.248 . S
C336 Tb272 2.802 . S
C336 O316 1.264 . S
C336 O319 1.256 . S
C336 C329 1.496 . S
C337 C304 1.448 . S
C337 H314 0.930 . S
C337 C338 1.328 . S
C338 C309 1.427 . S
C338 H315 0.929 . S
C338 C337 1.328 . S
C339 O323 1.264 . S
C339 O324 1.243 1_655 S
C340 C343 1.399 . S
C340 C344 1.383 . S
C340 C347 1.496 . S
C341 C342 1.399 . S
C341 C344 1.389 . S
C342 C341 1.399 . S
C342 C345 1.380 . S
C342 H352 0.929 . S
C343 C340 1.399 . S
C343 C345 1.392 . S
C343 H353 0.929 . S
C344 C340 1.383 . S
C344 C341 1.389 . S
C344 H354 0.931 . S
C345 C342 1.380 . S
C345 C343 1.392 . S
C345 H355 0.929 . S
C346 O326 1.266 . S
C346 O327 1.248 . S
C347 Tb283 2.802 . S
C347 O322 1.264 . S
C347 O325 1.256 . S
C347 C340 1.496 . S
H348 C331 0.929 . S
H349 C332 0.929 . S
H350 C333 0.929 . S
H351 C334 0.931 . S
H352 C342 0.929 . S
H353 C343 0.929 . S
H354 C344 0.931 . S
H355 C345 0.929 . S
Tb356 N385 2.617 . S
Tb356 N391 2.572 . S
Tb356 O400 2.465 . S
Tb356 O401 2.387 . S
Tb356 O403 2.428 . S
Tb356 O404 2.308 . S
Tb356 O408 2.349 . S
Tb356 O411 2.393 . S
Tb356 C420 2.802 . S
C357 N358 1.379 . S
C357 C360 1.416 . S
C357 C364 1.424 . S
N358 C357 1.379 . S
N358 C361 1.334 . S
N358 Tb367 2.617 . S
C359 C361 1.390 . S
C359 C362 1.339 . S
C359 H379 0.930 . S
C360 C357 1.416 . S
C360 C362 1.416 . S
C360 C366 1.448 . S
C361 N358 1.334 . S
C361 C359 1.390 . S
C361 H372 0.930 . S
C362 C359 1.339 . S
C362 C360 1.416 . S
C362 H383 0.930 . S
C363 C364 1.413 . S
C363 C365 1.427 . S
C363 C369 1.416 . S
C364 C357 1.424 . S
C364 C363 1.413 . S
C364 N368 1.361 . S
C365 C363 1.427 . S
C365 C366 1.328 . S
C365 H380 0.929 . S
C366 C360 1.448 . S
C366 C365 1.328 . S
C366 H381 0.930 . S
Tb367 N358 2.617 . S
Tb367 N368 2.572 . S
Tb367 O402 2.349 . S
Tb367 O405 2.393 . S
Tb367 O406 2.465 . S
Tb367 O407 2.387 . S
Tb367 O409 2.428 . S
Tb367 O410 2.308 . S
Tb367 C431 2.802 . S
N368 C364 1.361 . S
N368 Tb367 2.572 . S
N368 C370 1.340 . S
C369 C363 1.416 . S
C369 C371 1.332 . S
C369 H377 0.931 . S
C370 N368 1.340 . S
C370 C371 1.407 . S
C370 H376 0.930 . S
C371 C369 1.332 . S
C371 C370 1.407 . S
C371 H373 0.929 . S
H372 C361 0.930 . S
H373 C371 0.929 . S
H374 C389 0.930 . S
H375 C396 0.929 . S
H376 C370 0.930 . S
H377 C369 0.931 . S
H378 C392 0.930 . S
H379 C359 0.930 . S
H380 C365 0.929 . S
H381 C366 0.930 . S
H382 C387 0.930 . S
H383 C362 0.930 . S
H384 C395 0.931 . S
N385 Tb356 2.617 . S
N385 C386 1.379 . S
N385 C389 1.334 . S
C386 N385 1.379 . S
C386 C388 1.416 . S
C386 C394 1.424 . S
C387 H382 0.930 . S
C387 C389 1.390 . S
C387 C390 1.339 . S
C388 C386 1.416 . S
C388 C390 1.416 . S
C388 C421 1.448 . S
C389 H374 0.930 . S
C389 N385 1.334 . S
C389 C387 1.390 . S
C390 C387 1.339 . S
C390 C388 1.416 . S
C390 H397 0.930 . S
N391 Tb356 2.572 . S
N391 C392 1.340 . S
N391 C394 1.361 . S
C392 H378 0.930 . S
C392 N391 1.340 . S
C392 C396 1.407 . S
C393 C394 1.413 . S
C393 C395 1.416 . S
C393 C422 1.427 . S
C394 C386 1.424 . S
C394 N391 1.361 . S
C394 C393 1.413 . S
C395 H384 0.931 . S
C395 C393 1.416 . S
C395 C396 1.332 . S
C396 H375 0.929 . S
C396 C392 1.407 . S
C396 C395 1.332 . S
H397 C390 0.930 . S
H398 C421 0.930 . S
H399 C422 0.929 . S
O400 Tb356 2.465 . S
O400 C420 1.264 . S
O401 Tb356 2.387 . S
O401 C412 1.264 . S
O402 Tb367 2.349 . S
O402 C412 1.243 . S
O403 Tb356 2.428 . S
O403 C420 1.256 . S
O404 Tb356 2.308 . S
O404 C419 1.266 . S
O405 Tb367 2.393 . S
O405 C419 1.248 . S
O406 Tb367 2.465 . S
O406 C431 1.264 . S
O407 Tb367 2.387 . S
O407 C423 1.264 . S
O408 Tb356 2.349 . S
O408 C423 1.243 . S
O409 Tb367 2.428 . S
O409 C431 1.256 . S
O410 Tb367 2.308 . S
O410 C430 1.266 . S
O411 Tb356 2.393 . S
O411 C430 1.248 . S
C412 O401 1.264 . S
C412 O402 1.243 . S
C413 C416 1.399 . S
C413 C418 1.383 . S
C413 C420 1.496 . S
C414 C415 1.399 . S
C414 C418 1.389 . S
C415 C414 1.399 . S
C415 C417 1.380 . S
C415 H432 0.929 . S
C416 C413 1.399 . S
C416 C417 1.392 . S
C416 H433 0.929 . S
C417 C415 1.380 . S
C417 C416 1.392 . S
C417 H434 0.929 . S
C418 C413 1.383 . S
C418 C414 1.389 . S
C418 H435 0.931 . S
C419 O404 1.266 . S
C419 O405 1.248 . S
C420 Tb356 2.802 . S
C420 O400 1.264 . S
C420 O403 1.256 . S
C420 C413 1.496 . S
C421 C388 1.448 . S
C421 H398 0.930 . S
C421 C422 1.328 . S
C422 C393 1.427 . S
C422 H399 0.929 . S
C422 C421 1.328 . S
C423 O407 1.264 . S
C423 O408 1.243 . S
C424 C427 1.399 . S
C424 C428 1.383 . S
C424 C431 1.496 . S
C425 C426 1.399 . S
C425 C428 1.389 . S
C426 C425 1.399 . S
C426 C429 1.380 . S
C426 H436 0.929 . S
C427 C424 1.399 . S
C427 C429 1.392 . S
C427 H437 0.929 . S
C428 C424 1.383 . S
C428 C425 1.389 . S
C428 H438 0.931 . S
C429 C426 1.380 . S
C429 C427 1.392 . S
C429 H439 0.929 . S
C430 O410 1.266 . S
C430 O411 1.248 . S
C431 Tb367 2.802 . S
C431 O406 1.264 . S
C431 O409 1.256 . S
C431 C424 1.496 . S
H432 C415 0.929 . S
H433 C416 0.929 . S
H434 C417 0.929 . S
H435 C418 0.931 . S
H436 C426 0.929 . S
H437 C427 0.929 . S
H438 C428 0.931 . S
H439 C429 0.929 . S
H440 C448 0.929 . S
H441 C450 0.930 . S
H442 C452 0.930 . S
H443 C455 0.929 . S
H444 C458 0.930 . S
H445 C460 0.960 . S
H446 C460 0.960 . S
H447 C460 0.960 . S
C448 H440 0.929 . S
C448 C449 1.377 . S
C448 C450 1.384 . S
C449 C448 1.377 . S
C449 C455 1.390 . S
C450 H441 0.930 . S
C450 C448 1.384 . S
C450 C451 1.372 . S
C451 C450 1.372 . S
C451 C452 1.400 . S
C451 C456 1.490 . S
C452 H442 0.930 . S
C452 C451 1.400 . S
C452 C455 1.386 . S
H453 C469 0.930 . S
H454 C470 0.931 . S
C455 H443 0.929 . S
C455 C449 1.390 . S
C455 C452 1.386 . S
C456 C451 1.490 . S
C456 C458 1.395 . S
C456 C459 1.403 . S
H457 C463 0.930 . S
C458 H444 0.930 . S
C458 C456 1.395 . S
C458 C461 1.403 . S
C459 C456 1.403 . S
C459 C460 1.524 . S
C459 C463 1.400 . S
C460 H445 0.960 . S
C460 H446 0.960 . S
C460 H447 0.960 . S
C460 C459 1.524 . S
C461 C458 1.403 . S
C461 C462 1.392 . S
C461 C465 1.495 1_565 S
C462 C461 1.392 . S
C462 C463 1.385 . S
C462 C464 1.478 1_565 S
C463 H457 0.930 . S
C463 C459 1.400 . S
C463 C462 1.385 . S
C464 C462 1.478 1_545 S
C464 C466 1.381 . S
C464 C470 1.383 . S
C465 C461 1.495 1_545 S
C465 H471 0.959 1_545 S
C465 H472 0.961 . S
C465 H473 0.960 . S
C466 C464 1.381 . S
C466 C467 1.394 . S
C466 H474 0.930 1_545 S
C467 C466 1.394 . S
C467 C468 1.383 . S
C467 H475 0.929 . S
C468 C467 1.383 . S
C468 C469 1.377 . S
C469 H453 0.930 . S
C469 C468 1.377 . S
C469 C470 1.379 . S
C470 H454 0.931 . S
C470 C464 1.383 . S
C470 C469 1.379 . S
H471 C465 0.959 1_565 S
H472 C465 0.961 . S
H473 C465 0.960 . S
H474 C466 0.930 1_565 S
H475 C467 0.929 . S
H476 C484 0.929 . S
H477 C486 0.930 . S
H478 C488 0.930 . S
H479 C491 0.929 . S
H480 C494 0.930 . S
H481 C496 0.960 . S
H482 C496 0.960 . S
H483 C496 0.960 . S
C484 H476 0.929 . S
C484 C485 1.377 . S
C484 C486 1.384 . S
C485 C484 1.377 . S
C485 C491 1.390 . S
C486 H477 0.930 . S
C486 C484 1.384 . S
C486 C487 1.372 . S
C487 C486 1.372 . S
C487 C488 1.400 . S
C487 C492 1.490 . S
C488 H478 0.930 . S
C488 C487 1.400 . S
C488 C491 1.386 . S
H489 C505 0.930 . S
H490 C506 0.931 . S
C491 H479 0.929 . S
C491 C485 1.390 . S
C491 C488 1.386 . S
C492 C487 1.490 . S
C492 C494 1.395 . S
C492 C495 1.403 . S
H493 C499 0.930 . S
C494 H480 0.930 . S
C494 C492 1.395 . S
C494 C497 1.403 . S
C495 C492 1.403 . S
C495 C496 1.524 . S
C495 C499 1.400 . S
C496 H481 0.960 . S
C496 H482 0.960 . S
C496 H483 0.960 . S
C496 C495 1.524 . S
C497 C494 1.403 . S
C497 C498 1.392 . S
C497 C501 1.495 . S
C498 C497 1.392 . S
C498 C499 1.385 . S
C498 C500 1.478 . S
C499 H493 0.930 . S
C499 C495 1.400 . S
C499 C498 1.385 . S
C500 C498 1.478 . S
C500 C502 1.381 . S
C500 C506 1.383 . S
C501 C497 1.495 . S
C501 H507 0.959 . S
C501 H508 0.961 . S
C501 H509 0.960 . S
C502 C500 1.381 . S
C502 C503 1.394 . S
C502 H510 0.930 . S
C503 C502 1.394 . S
C503 C504 1.383 . S
C503 H511 0.929 . S
C504 C503 1.383 . S
C504 C505 1.377 . S
C505 H489 0.930 . S
C505 C504 1.377 . S
C505 C506 1.379 . S
C506 H490 0.931 . S
C506 C500 1.383 . S
C506 C505 1.379 . S
H507 C501 0.959 . S
H508 C501 0.961 . S
H509 C501 0.960 . S
H510 C502 0.930 . S
H511 C503 0.929 . S
H512 C520 0.929 . S
H513 C522 0.930 . S
H514 C524 0.930 . S
H515 C527 0.929 . S
H516 C530 0.930 . S
H517 C532 0.960 . S
H518 C532 0.960 . S
H519 C532 0.960 . S
C520 H512 0.929 . S
C520 C521 1.377 . S
C520 C522 1.384 . S
C521 C520 1.377 . S
C521 C527 1.390 . S
C522 H513 0.930 . S
C522 C520 1.384 . S
C522 C523 1.372 . S
C523 C522 1.372 . S
C523 C524 1.400 . S
C523 C528 1.490 . S
C524 H514 0.930 . S
C524 C523 1.400 . S
C524 C527 1.386 . S
H525 C541 0.930 . S
H526 C542 0.931 . S
C527 H515 0.929 . S
C527 C521 1.390 . S
C527 C524 1.386 . S
C528 C523 1.490 . S
C528 C530 1.395 . S
C528 C531 1.403 . S
H529 C535 0.930 . S
C530 H516 0.930 . S
C530 C528 1.395 . S
C530 C533 1.403 . S
C531 C528 1.403 . S
C531 C532 1.524 . S
C531 C535 1.400 . S
C532 H517 0.960 . S
C532 H518 0.960 . S
C532 H519 0.960 . S
C532 C531 1.524 . S
C533 C530 1.403 . S
C533 C534 1.392 . S
C533 C537 1.495 . S
C534 C533 1.392 . S
C534 C535 1.385 . S
C534 C536 1.478 . S
C535 H529 0.930 . S
C535 C531 1.400 . S
C535 C534 1.385 . S
C536 C534 1.478 . S
C536 C538 1.381 . S
C536 C542 1.383 . S
C537 C533 1.495 . S
C537 H543 0.959 . S
C537 H544 0.961 . S
C537 H545 0.960 . S
C538 C536 1.381 . S
C538 C539 1.394 . S
C538 H546 0.930 . S
C539 C538 1.394 . S
C539 C540 1.383 . S
C539 H547 0.929 . S
C540 C539 1.383 . S
C540 C541 1.377 . S
C541 H525 0.930 . S
C541 C540 1.377 . S
C541 C542 1.379 . S
C542 H526 0.931 . S
C542 C536 1.383 . S
C542 C541 1.379 . S
H543 C537 0.959 . S
H544 C537 0.961 . S
H545 C537 0.960 . S
H546 C538 0.930 . S
H547 C539 0.929 . S
H548 C556 0.929 . S
H549 C558 0.930 . S
H550 C560 0.930 . S
H551 C563 0.929 . S
H552 C566 0.930 . S
H553 C568 0.960 . S
H554 C568 0.960 . S
H555 C568 0.960 . S
C556 H548 0.929 . S
C556 C557 1.377 . S
C556 C558 1.384 . S
C557 C556 1.377 . S
C557 C563 1.390 . S
C558 H549 0.930 . S
C558 C556 1.384 . S
C558 C559 1.372 . S
C559 C558 1.372 . S
C559 C560 1.400 . S
C559 C564 1.490 . S
C560 H550 0.930 . S
C560 C559 1.400 . S
C560 C563 1.386 . S
H561 C577 0.930 . S
H562 C578 0.931 . S
C563 H551 0.929 . S
C563 C557 1.390 . S
C563 C560 1.386 . S
C564 C559 1.490 . S
C564 C566 1.395 . S
C564 C567 1.403 . S
H565 C571 0.930 1_545 S
C566 H552 0.930 . S
C566 C564 1.395 . S
C566 C569 1.403 . S
C567 C564 1.403 . S
C567 C568 1.524 . S
C567 C571 1.400 . S
C568 H553 0.960 . S
C568 H554 0.960 . S
C568 H555 0.960 . S
C568 C567 1.524 . S
C569 C566 1.403 . S
C569 C570 1.392 . S
C569 C573 1.495 . S
C570 C569 1.392 . S
C570 C571 1.385 . S
C570 C572 1.478 1_565 S
C571 H565 0.930 1_565 S
C571 C567 1.400 . S
C571 C570 1.385 . S
C572 C570 1.478 1_545 S
C572 C574 1.381 . S
C572 C578 1.383 . S
C573 C569 1.495 . S
C573 H579 0.959 . S
C573 H580 0.961 . S
C573 H581 0.960 . S
C574 C572 1.381 . S
C574 C575 1.394 . S
C574 H582 0.930 1_545 S
C575 C574 1.394 . S
C575 C576 1.383 . S
C575 H583 0.929 . S
C576 C575 1.383 . S
C576 C577 1.377 . S
C577 H561 0.930 . S
C577 C576 1.377 . S
C577 C578 1.379 . S
C578 H562 0.931 . S
C578 C572 1.383 . S
C578 C577 1.379 . S
H579 C573 0.959 . S
H580 C573 0.961 . S
H581 C573 0.960 . S
H582 C574 0.930 1_565 S
H583 C575 0.929 . S
H584 C592 0.929 . S
H585 C594 0.930 . S
H586 C596 0.930 . S
H587 C599 0.929 . S
H588 C602 0.930 . S
H589 C604 0.960 . S
H590 C604 0.960 . S
H591 C604 0.960 . S
C592 H584 0.929 . S
C592 C593 1.377 . S
C592 C594 1.384 . S
C593 C592 1.377 . S
C593 C599 1.390 . S
C594 H585 0.930 . S
C594 C592 1.384 . S
C594 C595 1.372 . S
C595 C594 1.372 . S
C595 C596 1.400 . S
C595 C600 1.490 . S
C596 H586 0.930 . S
C596 C595 1.400 . S
C596 C599 1.386 . S
H597 C613 0.930 . S
H598 C614 0.931 1_545 S
C599 H587 0.929 . S
C599 C593 1.390 . S
C599 C596 1.386 . S
C600 C595 1.490 . S
C600 C602 1.395 . S
C600 C603 1.403 . S
H601 C607 0.930 . S
C602 H588 0.930 . S
C602 C600 1.395 . S
C602 C605 1.403 . S
C603 C600 1.403 . S
C603 C604 1.524 . S
C603 C607 1.400 . S
C604 H589 0.960 . S
C604 H590 0.960 . S
C604 H591 0.960 . S
C604 C603 1.524 . S
C605 C602 1.403 . S
C605 C606 1.392 . S
C605 C609 1.495 . S
C606 C605 1.392 . S
C606 C607 1.385 . S
C606 C608 1.478 1_545 S
C607 H601 0.930 . S
C607 C603 1.400 . S
C607 C606 1.385 . S
C608 C606 1.478 1_565 S
C608 C610 1.381 . S
C608 C614 1.383 . S
C609 C605 1.495 . S
C609 H615 0.959 . S
C609 H616 0.961 . S
C609 H617 0.960 1_545 S
C610 C608 1.381 . S
C610 C611 1.394 . S
C610 H618 0.930 . S
C611 C610 1.394 . S
C611 C612 1.383 . S
C611 H619 0.929 . S
C612 C611 1.383 . S
C612 C613 1.377 . S
C613 H597 0.930 . S
C613 C612 1.377 . S
C613 C614 1.379 . S
C614 H598 0.931 1_565 S
C614 C608 1.383 . S
C614 C613 1.379 . S
H615 C609 0.959 . S
H616 C609 0.961 . S
H617 C609 0.960 1_565 S
H618 C610 0.930 . S
H619 C611 0.929 . S
H620 C628 0.929 . S
H621 C630 0.930 . S
H622 C632 0.930 . S
H623 C635 0.929 . S
H624 C638 0.930 . S
H625 C640 0.960 . S
H626 C640 0.960 . S
H627 C640 0.960 . S
C628 H620 0.929 . S
C628 C629 1.377 . S
C628 C630 1.384 . S
C629 C628 1.377 . S
C629 C635 1.390 . S
C630 H621 0.930 . S
C630 C628 1.384 . S
C630 C631 1.372 . S
C631 C630 1.372 . S
C631 C632 1.400 . S
C631 C636 1.490 . S
C632 H622 0.930 . S
C632 C631 1.400 . S
C632 C635 1.386 . S
H633 C649 0.930 . S
H634 C650 0.931 . S
C635 H623 0.929 . S
C635 C629 1.390 . S
C635 C632 1.386 . S
C636 C631 1.490 . S
C636 C638 1.395 . S
C636 C639 1.403 . S
H637 C643 0.930 . S
C638 H624 0.930 . S
C638 C636 1.395 . S
C638 C641 1.403 . S
C639 C636 1.403 . S
C639 C640 1.524 . S
C639 C643 1.400 . S
C640 H625 0.960 . S
C640 H626 0.960 . S
C640 H627 0.960 . S
C640 C639 1.524 . S
C641 C638 1.403 . S
C641 C642 1.392 . S
C641 C645 1.495 . S
C642 C641 1.392 . S
C642 C643 1.385 . S
C642 C644 1.478 . S
C643 H637 0.930 . S
C643 C639 1.400 . S
C643 C642 1.385 . S
C644 C642 1.478 . S
C644 C646 1.381 . S
C644 C650 1.383 . S
C645 C641 1.495 . S
C645 H651 0.959 . S
C645 H652 0.961 . S
C645 H653 0.960 . S
C646 C644 1.381 . S
C646 C647 1.394 . S
C646 H654 0.930 . S
C647 C646 1.394 . S
C647 C648 1.383 . S
C647 H655 0.929 . S
C648 C647 1.383 . S
C648 C649 1.377 . S
C649 H633 0.930 . S
C649 C648 1.377 . S
C649 C650 1.379 . S
C650 H634 0.931 . S
C650 C644 1.383 . S
C650 C649 1.379 . S
H651 C645 0.959 . S
H652 C645 0.961 . S
H653 C645 0.960 . S
H654 C646 0.930 . S
H655 C647 0.929 . S
H656 C664 0.929 . S
H657 C666 0.930 . S
H658 C668 0.930 . S
H659 C671 0.929 . S
H660 C674 0.930 . S
H661 C676 0.960 . S
H662 C676 0.960 . S
H663 C676 0.960 . S
C664 H656 0.929 . S
C664 C665 1.377 . S
C664 C666 1.384 . S
C665 C664 1.377 . S
C665 C671 1.390 . S
C666 H657 0.930 . S
C666 C664 1.384 . S
C666 C667 1.372 . S
C667 C666 1.372 . S
C667 C668 1.400 . S
C667 C672 1.490 . S
C668 H658 0.930 . S
C668 C667 1.400 . S
C668 C671 1.386 . S
H669 C685 0.930 . S
H670 C686 0.931 . S
C671 H659 0.929 . S
C671 C665 1.390 . S
C671 C668 1.386 . S
C672 C667 1.490 . S
C672 C674 1.395 . S
C672 C675 1.403 . S
H673 C679 0.930 . S
C674 H660 0.930 . S
C674 C672 1.395 . S
C674 C677 1.403 . S
C675 C672 1.403 . S
C675 C676 1.524 . S
C675 C679 1.400 . S
C676 H661 0.960 . S
C676 H662 0.960 . S
C676 H663 0.960 . S
C676 C675 1.524 . S
C677 C674 1.403 . S
C677 C678 1.392 . S
C677 C681 1.495 . S
C678 C677 1.392 . S
C678 C679 1.385 . S
C678 C680 1.478 . S
C679 H673 0.930 . S
C679 C675 1.400 . S
C679 C678 1.385 . S
C680 C678 1.478 . S
C680 C682 1.381 . S
C680 C686 1.383 . S
C681 C677 1.495 . S
C681 H687 0.959 . S
C681 H688 0.961 . S
C681 H689 0.960 . S
C682 C680 1.381 . S
C682 C683 1.394 . S
C682 H690 0.930 . S
C683 C682 1.394 . S
C683 C684 1.383 . S
C683 H691 0.929 . S
C684 C683 1.383 . S
C684 C685 1.377 . S
C685 H669 0.930 . S
C685 C684 1.377 . S
C685 C686 1.379 . S
C686 H670 0.931 . S
C686 C680 1.383 . S
C686 C685 1.379 . S
H687 C681 0.959 . S
H688 C681 0.961 . S
H689 C681 0.960 . S
H690 C682 0.930 . S
H691 C683 0.929 . S
H692 C700 0.929 . S
H693 C702 0.930 . S
H694 C704 0.930 . S
H695 C707 0.929 . S
H696 C710 0.930 . S
H697 C712 0.960 . S
H698 C712 0.960 . S
H699 C712 0.960 . S
C700 H692 0.929 . S
C700 C701 1.377 . S
C700 C702 1.384 . S
C701 C700 1.377 . S
C701 C707 1.390 . S
C702 H693 0.930 . S
C702 C700 1.384 . S
C702 C703 1.372 . S
C703 C702 1.372 . S
C703 C704 1.400 . S
C703 C708 1.490 . S
C704 H694 0.930 . S
C704 C703 1.400 . S
C704 C707 1.386 . S
H705 C721 0.930 . S
H706 C722 0.931 1_545 S
C707 H695 0.929 . S
C707 C701 1.390 . S
C707 C704 1.386 . S
C708 C703 1.490 . S
C708 C710 1.395 . S
C708 C711 1.403 . S
H709 C715 0.930 . S
C710 H696 0.930 . S
C710 C708 1.395 . S
C710 C713 1.403 . S
C711 C708 1.403 . S
C711 C712 1.524 . S
C711 C715 1.400 . S
C712 H697 0.960 . S
C712 H698 0.960 . S
C712 H699 0.960 . S
C712 C711 1.524 . S
C713 C710 1.403 . S
C713 C714 1.392 . S
C713 C717 1.495 1_545 S
C714 C713 1.392 . S
C714 C715 1.385 . S
C714 C716 1.478 1_545 S
C715 H709 0.930 . S
C715 C711 1.400 . S
C715 C714 1.385 . S
C716 C714 1.478 1_565 S
C716 C718 1.381 . S
C716 C722 1.383 . S
C717 C713 1.495 1_565 S
C717 H723 0.959 . S
C717 H724 0.961 . S
C717 H725 0.960 . S
C718 C716 1.381 . S
C718 C719 1.394 . S
C718 H726 0.930 . S
C719 C718 1.394 . S
C719 C720 1.383 . S
C719 H727 0.929 . S
C720 C719 1.383 . S
C720 C721 1.377 . S
C721 H705 0.930 . S
C721 C720 1.377 . S
C721 C722 1.379 . S
C722 H706 0.931 1_565 S
C722 C716 1.383 . S
C722 C721 1.379 . S
H723 C717 0.959 . S
H724 C717 0.961 . S
H725 C717 0.960 . S
H726 C718 0.930 . S
H727 C719 0.929 . S
H728 C736 0.929 . S
H729 C738 0.930 . S
H730 C740 0.930 . S
H731 C743 0.929 . S
H732 C746 0.930 . S
H733 C748 0.946 1_554 S
H734 C748 0.960 . S
H735 C748 0.960 . S
C736 H728 0.929 . S
C736 C737 1.377 . S
C736 C738 1.384 . S
C737 C736 1.377 . S
C737 C743 1.390 . S
C738 H729 0.930 . S
C738 C736 1.384 . S
C738 C739 1.372 . S
C739 C738 1.372 . S
C739 C740 1.400 . S
C739 C744 1.490 1_556 S
C740 H730 0.930 . S
C740 C739 1.400 . S
C740 C743 1.386 . S
H741 C757 0.930 . S
H742 C758 0.931 . S
C743 H731 0.929 . S
C743 C737 1.390 . S
C743 C740 1.386 . S
C744 C739 1.490 1_554 S
C744 C746 1.395 . S
C744 C747 1.403 . S
H745 C751 0.930 . S
C746 H732 0.930 . S
C746 C744 1.395 . S
C746 C749 1.403 . S
C747 C744 1.403 . S
C747 C748 1.524 1_554 S
C747 C751 1.400 . S
C748 H733 0.946 1_556 S
C748 H734 0.960 . S
C748 H735 0.960 . S
C748 C747 1.524 1_556 S
C749 C746 1.403 . S
C749 C750 1.392 . S
C749 C753 1.495 . S
C750 C749 1.392 . S
C750 C751 1.385 . S
C750 C752 1.478 . S
C751 H745 0.930 . S
C751 C747 1.400 . S
C751 C750 1.385 . S
C752 C750 1.478 . S
C752 C754 1.381 . S
C752 C758 1.383 . S
C753 C749 1.495 . S
C753 H759 0.959 . S
C753 H760 0.961 . S
C753 H761 0.960 . S
C754 C752 1.381 . S
C754 C755 1.394 . S
C754 H762 0.930 . S
C755 C754 1.394 . S
C755 C756 1.383 . S
C755 H763 0.929 . S
C756 C755 1.383 . S
C756 C757 1.377 . S
C757 H741 0.930 . S
C757 C756 1.377 . S
C757 C758 1.379 . S
C758 H742 0.931 . S
C758 C752 1.383 . S
C758 C757 1.379 . S
H759 C753 0.959 . S
H760 C753 0.961 . S
H761 C753 0.960 . S
H762 C754 0.930 . S
H763 C755 0.929 . S
H764 C772 0.929 . S
H765 C774 0.930 . S
H766 C776 0.930 . S
H767 C779 0.929 . S
H768 C782 0.930 . S
H769 C784 0.960 . S
H770 C784 0.960 . S
H771 C784 0.960 . S
C772 H764 0.929 . S
C772 C773 1.377 . S
C772 C774 1.384 . S
C773 C772 1.377 . S
C773 C779 1.390 . S
C774 H765 0.930 . S
C774 C772 1.384 . S
C774 C775 1.372 . S
C775 C774 1.372 . S
C775 C776 1.400 . S
C775 C780 1.490 . S
C776 H766 0.930 . S
C776 C775 1.400 . S
C776 C779 1.386 . S
H777 C793 0.930 . S
H778 C794 0.931 . S
C779 H767 0.929 . S
C779 C773 1.390 . S
C779 C776 1.386 . S
C780 C775 1.490 . S
C780 C782 1.395 . S
C780 C783 1.403 . S
H781 C787 0.930 . S
C782 H768 0.930 . S
C782 C780 1.395 . S
C782 C785 1.403 . S
C783 C780 1.403 . S
C783 C784 1.524 . S
C783 C787 1.400 . S
C784 H769 0.960 . S
C784 H770 0.960 . S
C784 H771 0.960 . S
C784 C783 1.524 . S
C785 C782 1.403 . S
C785 C786 1.392 . S
C785 C789 1.495 . S
C786 C785 1.392 . S
C786 C787 1.385 . S
C786 C788 1.478 . S
C787 H781 0.930 . S
C787 C783 1.400 . S
C787 C786 1.385 . S
C788 C786 1.478 . S
C788 C790 1.381 . S
C788 C794 1.383 . S
C789 C785 1.495 . S
C789 H795 0.959 . S
C789 H796 0.961 . S
C789 H797 0.960 . S
C790 C788 1.381 . S
C790 C791 1.394 . S
C790 H798 0.930 . S
C791 C790 1.394 . S
C791 C792 1.383 . S
C791 H799 0.929 . S
C792 C791 1.383 . S
C792 C793 1.377 . S
C793 H777 0.930 . S
C793 C792 1.377 . S
C793 C794 1.379 . S
C794 H778 0.931 . S
C794 C788 1.383 . S
C794 C793 1.379 . S
H795 C789 0.959 . S
H796 C789 0.961 . S
H797 C789 0.960 . S
H798 C790 0.930 . S
H799 C791 0.929 . S
H800 C808 0.929 . S
H801 C810 0.930 . S
H802 C812 0.930 . S
H803 C815 0.929 . S
H804 C818 0.930 1_554 S
H805 C820 0.960 . S
H806 C820 0.960 . S
H807 C820 0.960 . S
C808 H800 0.929 . S
C808 C809 1.377 . S
C808 C810 1.384 . S
C809 C808 1.377 . S
C809 C815 1.390 . S
C810 H801 0.930 . S
C810 C808 1.384 . S
C810 C811 1.372 . S
C811 C810 1.372 . S
C811 C812 1.400 . S
C811 C816 1.491 1_554 S
C812 H802 0.930 . S
C812 C811 1.400 . S
C812 C815 1.386 . S
H813 C829 0.930 . S
H814 C830 0.931 . S
C815 H803 0.929 . S
C815 C809 1.390 . S
C815 C812 1.386 . S
C816 C811 1.491 1_556 S
C816 C818 1.394 . S
C816 C819 1.402 . S
H817 C823 0.930 . S
C818 H804 0.930 1_556 S
C818 C816 1.394 . S
C818 C821 1.403 . S
C819 C816 1.402 . S
C819 C820 1.524 . S
C819 C823 1.400 . S
C820 H805 0.960 . S
C820 H806 0.960 . S
C820 H807 0.960 . S
C820 C819 1.524 . S
C821 C818 1.403 . S
C821 C822 1.392 . S
C821 C825 1.495 . S
C822 C821 1.392 . S
C822 C823 1.385 . S
C822 C824 1.478 . S
C823 H817 0.930 . S
C823 C819 1.400 . S
C823 C822 1.385 . S
C824 C822 1.478 . S
C824 C826 1.381 . S
C824 C830 1.383 . S
C825 C821 1.495 . S
C825 H831 0.959 . S
C825 H832 0.961 . S
C825 H833 0.960 . S
C826 C824 1.381 . S
C826 C827 1.394 . S
C826 H834 0.930 . S
C827 C826 1.394 . S
C827 C828 1.383 . S
C827 H835 0.929 . S
C828 C827 1.383 . S
C828 C829 1.377 . S
C829 H813 0.930 . S
C829 C828 1.377 . S
C829 C830 1.379 . S
C830 H814 0.931 . S
C830 C824 1.383 . S
C830 C829 1.379 . S
H831 C825 0.959 . S
H832 C825 0.961 . S
H833 C825 0.960 . S
H834 C826 0.930 . S
H835 C827 0.929 . S
H836 C844 0.929 . S
H837 C846 0.930 . S
H838 C848 0.930 . S
H839 C851 0.929 . S
H840 C854 0.930 . S
H841 C856 0.960 . S
H842 C856 0.960 . S
H843 C856 0.960 . S
C844 H836 0.929 . S
C844 C845 1.377 . S
C844 C846 1.384 . S
C845 C844 1.377 . S
C845 C851 1.390 . S
C846 H837 0.930 . S
C846 C844 1.384 . S
C846 C847 1.372 . S
C847 C846 1.372 . S
C847 C848 1.400 . S
C847 C852 1.490 . S
C848 H838 0.930 . S
C848 C847 1.400 . S
C848 C851 1.386 . S
H849 C865 0.930 . S
H850 C866 0.931 . S
C851 H839 0.929 . S
C851 C845 1.390 . S
C851 C848 1.386 . S
C852 C847 1.490 . S
C852 C854 1.395 . S
C852 C855 1.403 . S
H853 C859 0.930 . S
C854 H840 0.930 . S
C854 C852 1.395 . S
C854 C857 1.403 . S
C855 C852 1.403 . S
C855 C856 1.524 . S
C855 C859 1.400 . S
C856 H841 0.960 . S
C856 H842 0.960 . S
C856 H843 0.960 . S
C856 C855 1.524 . S
C857 C854 1.403 . S
C857 C858 1.392 . S
C857 C861 1.495 . S
C858 C857 1.392 . S
C858 C859 1.385 . S
C858 C860 1.478 . S
C859 H853 0.930 . S
C859 C855 1.400 . S
C859 C858 1.385 . S
C860 C858 1.478 . S
C860 C862 1.381 . S
C860 C866 1.383 . S
C861 C857 1.495 . S
C861 H867 0.959 . S
C861 H868 0.961 . S
C861 H869 0.960 . S
C862 C860 1.381 . S
C862 C863 1.394 . S
C862 H870 0.930 . S
C863 C862 1.394 . S
C863 C864 1.383 . S
C863 H871 0.929 . S
C864 C863 1.383 . S
C864 C865 1.377 . S
C865 H849 0.930 . S
C865 C864 1.377 . S
C865 C866 1.379 . S
C866 H850 0.931 . S
C866 C860 1.383 . S
C866 C865 1.379 . S
H867 C861 0.959 . S
H868 C861 0.961 . S
H869 C861 0.960 . S
H870 C862 0.930 . S
H871 C863 0.929 . S
H872 C880 0.929 . S
H873 C882 0.930 . S
H874 C884 0.930 . S
H875 C887 0.929 . S
H876 C890 0.930 . S
H877 C892 0.960 1_556 S
H878 C892 0.960 . S
H879 C892 0.960 . S
C880 H872 0.929 . S
C880 C881 1.377 . S
C880 C882 1.384 . S
C881 C880 1.377 . S
C881 C887 1.390 . S
C882 H873 0.930 . S
C882 C880 1.384 . S
C882 C883 1.372 . S
C883 C882 1.372 . S
C883 C884 1.400 . S
C883 C888 1.490 1_554 S
C884 H874 0.930 . S
C884 C883 1.400 . S
C884 C887 1.386 . S
H885 C901 0.930 . S
H886 C902 0.931 . S
C887 H875 0.929 . S
C887 C881 1.390 . S
C887 C884 1.386 . S
C888 C883 1.490 1_556 S
C888 C890 1.395 . S
C888 C891 1.403 . S
H889 C895 0.930 . S
C890 H876 0.930 . S
C890 C888 1.395 . S
C890 C893 1.403 . S
C891 C888 1.403 . S
C891 C892 1.524 1_556 S
C891 C895 1.400 . S
C892 H877 0.960 1_554 S
C892 H878 0.960 . S
C892 H879 0.960 . S
C892 C891 1.524 1_554 S
C893 C890 1.403 . S
C893 C894 1.392 . S
C893 C897 1.495 . S
C894 C893 1.392 . S
C894 C895 1.385 . S
C894 C896 1.478 . S
C895 H889 0.930 . S
C895 C891 1.400 . S
C895 C894 1.385 . S
C896 C894 1.478 . S
C896 C898 1.381 . S
C896 C902 1.383 . S
C897 C893 1.495 . S
C897 H903 0.959 . S
C897 H904 0.961 . S
C897 H905 0.960 . S
C898 C896 1.381 . S
C898 C899 1.394 . S
C898 H906 0.930 . S
C899 C898 1.394 . S
C899 C900 1.383 . S
C899 H907 0.929 . S
C900 C899 1.383 . S
C900 C901 1.377 . S
C901 H885 0.930 . S
C901 C900 1.377 . S
C901 C902 1.379 . S
C902 H886 0.931 . S
C902 C896 1.383 . S
C902 C901 1.379 . S
H903 C897 0.959 . S
H904 C897 0.961 . S
H905 C897 0.960 . S
H906 C898 0.930 . S
H907 C899 0.929 . S
H908 C916 0.929 . S
H909 C918 0.930 . S
H910 C920 0.930 . S
H911 C923 0.929 . S
H912 C926 0.930 . S
H913 C928 0.960 . S
H914 C928 0.960 . S
H915 C928 0.960 . S
C916 H908 0.929 . S
C916 C917 1.377 . S
C916 C918 1.384 . S
C917 C916 1.377 . S
C917 C923 1.390 . S
C918 H909 0.930 . S
C918 C916 1.384 . S
C918 C919 1.372 . S
C919 C918 1.372 . S
C919 C920 1.400 . S
C919 C924 1.490 . S
C920 H910 0.930 . S
C920 C919 1.400 . S
C920 C923 1.386 . S
H921 C937 0.930 . S
H922 C938 0.931 . S
C923 H911 0.929 . S
C923 C917 1.390 . S
C923 C920 1.386 . S
C924 C919 1.490 . S
C924 C926 1.395 . S
C924 C927 1.403 . S
H925 C931 0.930 . S
C926 H912 0.930 . S
C926 C924 1.395 . S
C926 C929 1.403 . S
C927 C924 1.403 . S
C927 C928 1.524 . S
C927 C931 1.400 . S
C928 H913 0.960 . S
C928 H914 0.960 . S
C928 H915 0.960 . S
C928 C927 1.524 . S
C929 C926 1.403 . S
C929 C930 1.392 . S
C929 C933 1.495 . S
C930 C929 1.392 . S
C930 C931 1.385 . S
C930 C932 1.478 . S
C931 H925 0.930 . S
C931 C927 1.400 . S
C931 C930 1.385 . S
C932 C930 1.478 . S
C932 C934 1.381 . S
C932 C938 1.383 . S
C933 C929 1.495 . S
C933 H939 0.959 . S
C933 H940 0.961 . S
C933 H941 0.960 . S
C934 C932 1.381 . S
C934 C935 1.394 . S
C934 H942 0.930 . S
C935 C934 1.394 . S
C935 C936 1.383 . S
C935 H943 0.929 . S
C936 C935 1.383 . S
C936 C937 1.377 . S
C937 H921 0.930 . S
C937 C936 1.377 . S
C937 C938 1.379 . S
C938 H922 0.931 . S
C938 C932 1.383 . S
C938 C937 1.379 . S
H939 C933 0.959 . S
H940 C933 0.961 . S
H941 C933 0.960 . S
H942 C934 0.930 . S
H943 C935 0.929 . S
H944 C952 0.929 . S
H945 C954 0.930 . S
H946 C956 0.930 . S
H947 C959 0.929 . S
H948 C962 0.930 . S
H949 C964 0.960 . S
H950 C964 0.960 . S
H951 C964 0.960 . S
C952 H944 0.929 . S
C952 C953 1.377 . S
C952 C954 1.384 . S
C953 C952 1.377 . S
C953 C959 1.390 . S
C954 H945 0.930 . S
C954 C952 1.384 . S
C954 C955 1.372 . S
C955 C954 1.372 . S
C955 C956 1.400 . S
C955 C960 1.490 1_556 S
C956 H946 0.930 . S
C956 C955 1.400 . S
C956 C959 1.386 . S
H957 C973 0.930 . S
H958 C974 0.931 . S
C959 H947 0.929 . S
C959 C953 1.390 . S
C959 C956 1.386 . S
C960 C955 1.490 1_554 S
C960 C962 1.395 . S
C960 C963 1.403 . S
H961 C967 0.930 . S
C962 H948 0.930 . S
C962 C960 1.395 . S
C962 C965 1.403 . S
C963 C960 1.403 . S
C963 C964 1.524 1_554 S
C963 C967 1.400 . S
C964 H949 0.960 . S
C964 H950 0.960 . S
C964 H951 0.960 . S
C964 C963 1.524 1_556 S
C965 C962 1.403 . S
C965 C966 1.392 . S
C965 C969 1.495 . S
C966 C965 1.392 . S
C966 C967 1.385 . S
C966 C968 1.478 . S
C967 H961 0.930 . S
C967 C963 1.400 . S
C967 C966 1.385 . S
C968 C966 1.478 . S
C968 C970 1.381 . S
C968 C974 1.383 . S
C969 C965 1.495 . S
C969 H975 0.959 . S
C969 H976 0.961 . S
C969 H977 0.960 . S
C970 C968 1.381 . S
C970 C971 1.394 . S
C970 H978 0.930 . S
C971 C970 1.394 . S
C971 C972 1.383 . S
C971 H979 0.929 . S
C972 C971 1.383 . S
C972 C973 1.377 . S
C973 H957 0.930 . S
C973 C972 1.377 . S
C973 C974 1.379 . S
C974 H958 0.931 . S
C974 C968 1.383 . S
C974 C973 1.379 . S
H975 C969 0.959 . S
H976 C969 0.961 . S
H977 C969 0.960 . S
H978 C970 0.930 . S
H979 C971 0.929 . S
H980 C988 0.929 . S
H981 C990 0.930 . S
H982 C992 0.930 . S
H983 C995 0.929 . S
H984 C998 0.930 . S
H985 C1000 0.960 . S
H986 C1000 0.960 . S
H987 C1000 0.960 . S
C988 H980 0.929 . S
C988 C989 1.377 . S
C988 C990 1.384 . S
C989 C988 1.377 . S
C989 C995 1.390 . S
C990 H981 0.930 . S
C990 C988 1.384 . S
C990 C991 1.372 . S
C991 C990 1.372 . S
C991 C992 1.400 . S
C991 C996 1.490 . S
C992 H982 0.930 . S
C992 C991 1.400 . S
C992 C995 1.386 . S
H993 C1009 0.930 . S
H994 C1010 0.931 . S
C995 H983 0.929 . S
C995 C989 1.390 . S
C995 C992 1.386 . S
C996 C991 1.490 . S
C996 C998 1.395 . S
C996 C999 1.403 . S
H997 C1003 0.930 . S
C998 H984 0.930 . S
C998 C996 1.395 . S
C998 C1001 1.403 . S
C999 C996 1.403 . S
C999 C1000 1.524 . S
C999 C1003 1.400 . S
C1000 H985 0.960 . S
C1000 H986 0.960 . S
C1000 H987 0.960 . S
C1000 C999 1.524 . S
C1001 C998 1.403 . S
C1001 C1002 1.392 . S
C1001 C1005 1.495 . S
C1002 C1001 1.392 . S
C1002 C1003 1.385 . S
C1002 C1004 1.478 . S
C1003 H997 0.930 . S
C1003 C999 1.400 . S
C1003 C1002 1.385 . S
C1004 C1002 1.478 . S
C1004 C1006 1.381 . S
C1004 C1010 1.383 . S
C1005 C1001 1.495 . S
C1005 H1011 0.959 . S
C1005 H1012 0.961 . S
C1005 H1013 0.960 . S
C1006 C1004 1.381 . S
C1006 C1007 1.394 . S
C1006 H1014 0.930 . S
C1007 C1006 1.394 . S
C1007 C1008 1.383 . S
C1007 H1015 0.929 . S
C1008 C1007 1.383 . S
C1008 C1009 1.377 . S
C1009 H993 0.930 . S
C1009 C1008 1.377 . S
C1009 C1010 1.379 . S
C1010 H994 0.931 . S
C1010 C1004 1.383 . S
C1010 C1009 1.379 . S
H1011 C1005 0.959 . S
H1012 C1005 0.961 . S
H1013 C1005 0.960 . S
H1014 C1006 0.930 . S
H1015 C1007 0.929 . S
H1016 C1024 0.929 . S
H1017 C1026 0.930 . S
H1018 C1028 0.930 . S
H1019 C1031 0.929 . S
H1020 C1034 0.930 . S
H1021 C1036 0.960 . S
H1022 C1036 0.960 . S
H1023 C1036 0.960 . S
C1024 H1016 0.929 . S
C1024 C1025 1.377 . S
C1024 C1026 1.384 . S
C1025 C1024 1.377 . S
C1025 C1031 1.390 . S
C1026 H1017 0.930 . S
C1026 C1024 1.384 . S
C1026 C1027 1.372 . S
C1027 C1026 1.372 . S
C1027 C1028 1.400 . S
C1027 C1032 1.490 . S
C1028 H1018 0.930 . S
C1028 C1027 1.400 . S
C1028 C1031 1.386 . S
H1029 C1045 0.930 . S
H1030 C1046 0.931 . S
C1031 H1019 0.929 . S
C1031 C1025 1.390 . S
C1031 C1028 1.386 . S
C1032 C1027 1.490 . S
C1032 C1034 1.395 . S
C1032 C1035 1.403 . S
H1033 C1039 0.930 . S
C1034 H1020 0.930 . S
C1034 C1032 1.395 . S
C1034 C1037 1.403 . S
C1035 C1032 1.403 . S
C1035 C1036 1.524 . S
C1035 C1039 1.400 . S
C1036 H1021 0.960 . S
C1036 H1022 0.960 . S
C1036 H1023 0.960 . S
C1036 C1035 1.524 . S
C1037 C1034 1.403 . S
C1037 C1038 1.392 . S
C1037 C1041 1.495 . S
C1038 C1037 1.392 . S
C1038 C1039 1.385 . S
C1038 C1040 1.478 . S
C1039 H1033 0.930 . S
C1039 C1035 1.400 . S
C1039 C1038 1.385 . S
C1040 C1038 1.478 . S
C1040 C1042 1.381 . S
C1040 C1046 1.383 . S
C1041 C1037 1.495 . S
C1041 H1047 0.959 . S
C1041 H1048 0.961 . S
C1041 H1049 0.960 . S
C1042 C1040 1.381 . S
C1042 C1043 1.394 . S
C1042 H1050 0.930 . S
C1043 C1042 1.394 . S
C1043 C1044 1.383 . S
C1043 H1051 0.929 . S
C1044 C1043 1.383 . S
C1044 C1045 1.377 . S
C1045 H1029 0.930 . S
C1045 C1044 1.377 . S
C1045 C1046 1.379 . S
C1046 H1030 0.931 . S
C1046 C1040 1.383 . S
C1046 C1045 1.379 . S
H1047 C1041 0.959 . S
H1048 C1041 0.961 . S
H1049 C1041 0.960 . S
H1050 C1042 0.930 . S
H1051 C1043 0.929 . S
H1052 C1060 0.929 . S
H1053 C1062 0.930 . S
H1054 C1064 0.930 . S
H1055 C1067 0.929 . S
H1056 C1070 0.930 . S
H1057 C1072 0.960 . S
H1058 C1072 0.960 . S
H1059 C1072 0.960 . S
C1060 H1052 0.929 . S
C1060 C1061 1.377 . S
C1060 C1062 1.384 . S
C1061 C1060 1.377 . S
C1061 C1067 1.390 . S
C1062 H1053 0.930 . S
C1062 C1060 1.384 . S
C1062 C1063 1.372 . S
C1063 C1062 1.372 . S
C1063 C1064 1.400 . S
C1063 C1068 1.490 . S
C1064 H1054 0.930 . S
C1064 C1063 1.400 . S
C1064 C1067 1.386 . S
H1065 C1081 0.930 . S
H1066 C1082 0.931 . S
C1067 H1055 0.929 . S
C1067 C1061 1.390 . S
C1067 C1064 1.386 . S
C1068 C1063 1.490 . S
C1068 C1070 1.395 . S
C1068 C1071 1.403 . S
H1069 C1075 0.930 . S
C1070 H1056 0.930 . S
C1070 C1068 1.395 . S
C1070 C1073 1.403 . S
C1071 C1068 1.403 . S
C1071 C1072 1.524 . S
C1071 C1075 1.400 . S
C1072 H1057 0.960 . S
C1072 H1058 0.960 . S
C1072 H1059 0.960 . S
C1072 C1071 1.524 . S
C1073 C1070 1.403 . S
C1073 C1074 1.392 . S
C1073 C1077 1.495 . S
C1074 C1073 1.392 . S
C1074 C1075 1.385 . S
C1074 C1076 1.478 . S
C1075 H1069 0.930 . S
C1075 C1071 1.400 . S
C1075 C1074 1.385 . S
C1076 C1074 1.478 . S
C1076 C1078 1.381 . S
C1076 C1082 1.383 . S
C1077 C1073 1.495 . S
C1077 H1083 0.959 . S
C1077 H1084 0.961 . S
C1077 H1085 0.960 . S
C1078 C1076 1.381 . S
C1078 C1079 1.394 . S
C1078 H1086 0.930 . S
C1079 C1078 1.394 . S
C1079 C1080 1.383 . S
C1079 H1087 0.929 . S
C1080 C1079 1.383 . S
C1080 C1081 1.377 . S
C1081 H1065 0.930 . S
C1081 C1080 1.377 . S
C1081 C1082 1.379 . S
C1082 H1066 0.931 . S
C1082 C1076 1.383 . S
C1082 C1081 1.379 . S
H1083 C1077 0.959 . S
H1084 C1077 0.961 . S
H1085 C1077 0.960 . S
H1086 C1078 0.930 . S
H1087 C1079 0.929 . S
H1088 C1096 0.929 . S
H1089 C1098 0.930 . S
H1090 C1100 0.930 . S
H1091 C1103 0.929 . S
H1092 C1106 0.930 . S
H1093 C1108 0.960 . S
H1094 C1108 0.960 . S
H1095 C1108 0.960 . S
C1096 H1088 0.929 . S
C1096 C1097 1.377 . S
C1096 C1098 1.384 . S
C1097 C1096 1.377 . S
C1097 C1103 1.390 . S
C1098 H1089 0.930 . S
C1098 C1096 1.384 . S
C1098 C1099 1.372 . S
C1099 C1098 1.372 . S
C1099 C1100 1.400 . S
C1099 C1104 1.490 . S
C1100 H1090 0.930 . S
C1100 C1099 1.400 . S
C1100 C1103 1.386 . S
H1101 C1117 0.930 . S
H1102 C1118 0.931 . S
C1103 H1091 0.929 . S
C1103 C1097 1.390 . S
C1103 C1100 1.386 . S
C1104 C1099 1.490 . S
C1104 C1106 1.395 . S
C1104 C1107 1.403 . S
H1105 C1111 0.930 . S
C1106 H1092 0.930 . S
C1106 C1104 1.395 . S
C1106 C1109 1.403 . S
C1107 C1104 1.403 . S
C1107 C1108 1.524 . S
C1107 C1111 1.400 . S
C1108 H1093 0.960 . S
C1108 H1094 0.960 . S
C1108 H1095 0.960 . S
C1108 C1107 1.524 . S
C1109 C1106 1.403 . S
C1109 C1110 1.392 . S
C1109 C1113 1.495 . S
C1110 C1109 1.392 . S
C1110 C1111 1.385 . S
C1110 C1112 1.478 . S
C1111 H1105 0.930 . S
C1111 C1107 1.400 . S
C1111 C1110 1.385 . S
C1112 C1110 1.478 . S
C1112 C1114 1.381 . S
C1112 C1118 1.383 . S
C1113 C1109 1.495 . S
C1113 H1119 0.959 . S
C1113 H1120 0.961 . S
C1113 H1121 0.960 . S
C1114 C1112 1.381 . S
C1114 C1115 1.394 . S
C1114 H1122 0.930 . S
C1115 C1114 1.394 . S
C1115 C1116 1.383 . S
C1115 H1123 0.929 . S
C1116 C1115 1.383 . S
C1116 C1117 1.377 . S
C1117 H1101 0.930 . S
C1117 C1116 1.377 . S
C1117 C1118 1.379 . S
C1118 H1102 0.931 . S
C1118 C1112 1.383 . S
C1118 C1117 1.379 . S
H1119 C1113 0.959 . S
H1120 C1113 0.961 . S
H1121 C1113 0.960 . S
H1122 C1114 0.930 . S
H1123 C1115 0.929 . S
H1124 C1132 0.929 . S
H1125 C1134 0.930 . S
H1126 C1136 0.930 . S
H1127 C1139 0.929 . S
H1128 C1142 0.930 . S
H1129 C1144 0.960 . S
H1130 C1144 0.960 . S
H1131 C1144 0.960 . S
C1132 H1124 0.929 . S
C1132 C1133 1.377 . S
C1132 C1134 1.384 . S
C1133 C1132 1.377 . S
C1133 C1139 1.390 . S
C1134 H1125 0.930 . S
C1134 C1132 1.384 . S
C1134 C1135 1.372 . S
C1135 C1134 1.372 . S
C1135 C1136 1.400 . S
C1135 C1140 1.490 . S
C1136 H1126 0.930 . S
C1136 C1135 1.400 . S
C1136 C1139 1.386 . S
H1137 C1153 0.930 . S
H1138 C1154 0.931 . S
C1139 H1127 0.929 . S
C1139 C1133 1.390 . S
C1139 C1136 1.386 . S
C1140 C1135 1.490 . S
C1140 C1142 1.395 . S
C1140 C1143 1.403 . S
H1141 C1147 0.930 . S
C1142 H1128 0.930 . S
C1142 C1140 1.395 . S
C1142 C1145 1.403 . S
C1143 C1140 1.403 . S
C1143 C1144 1.524 . S
C1143 C1147 1.400 . S
C1144 H1129 0.960 . S
C1144 H1130 0.960 . S
C1144 H1131 0.960 . S
C1144 C1143 1.524 . S
C1145 C1142 1.403 . S
C1145 C1146 1.392 . S
C1145 C1149 1.495 . S
C1146 C1145 1.392 . S
C1146 C1147 1.385 . S
C1146 C1148 1.478 . S
C1147 H1141 0.930 . S
C1147 C1143 1.400 . S
C1147 C1146 1.385 . S
C1148 C1146 1.478 . S
C1148 C1150 1.381 . S
C1148 C1154 1.383 . S
C1149 C1145 1.495 . S
C1149 H1155 0.959 . S
C1149 H1156 0.961 . S
C1149 H1157 0.960 . S
C1150 C1148 1.381 . S
C1150 C1151 1.394 . S
C1150 H1158 0.930 . S
C1151 C1150 1.394 . S
C1151 C1152 1.383 . S
C1151 H1159 0.929 . S
C1152 C1151 1.383 . S
C1152 C1153 1.377 . S
C1153 H1137 0.930 . S
C1153 C1152 1.377 . S
C1153 C1154 1.379 . S
C1154 H1138 0.931 . S
C1154 C1148 1.383 . S
C1154 C1153 1.379 . S
H1155 C1149 0.959 . S
H1156 C1149 0.961 . S
H1157 C1149 0.960 . S
H1158 C1150 0.930 . S
H1159 C1151 0.929 . S
H1160 C1168 0.929 . S
H1161 C1170 0.930 . S
H1162 C1172 0.930 . S
H1163 C1175 0.929 . S
H1164 C1178 0.930 . S
H1165 C1180 0.960 . S
H1166 C1180 0.960 . S
H1167 C1180 0.960 . S
C1168 H1160 0.929 . S
C1168 C1169 1.377 . S
C1168 C1170 1.384 . S
C1169 C1168 1.377 . S
C1169 C1175 1.390 . S
C1170 H1161 0.930 . S
C1170 C1168 1.384 . S
C1170 C1171 1.372 . S
C1171 C1170 1.372 . S
C1171 C1172 1.400 . S
C1171 C1176 1.490 . S
C1172 H1162 0.930 . S
C1172 C1171 1.400 . S
C1172 C1175 1.386 . S
H1173 C1189 0.930 . S
H1174 C1190 0.931 . S
C1175 H1163 0.929 . S
C1175 C1169 1.390 . S
C1175 C1172 1.386 . S
C1176 C1171 1.490 . S
C1176 C1178 1.395 . S
C1176 C1179 1.403 . S
H1177 C1183 0.930 . S
C1178 H1164 0.930 . S
C1178 C1176 1.395 . S
C1178 C1181 1.403 . S
C1179 C1176 1.403 . S
C1179 C1180 1.524 . S
C1179 C1183 1.400 . S
C1180 H1165 0.960 . S
C1180 H1166 0.960 . S
C1180 H1167 0.960 . S
C1180 C1179 1.524 . S
C1181 C1178 1.403 . S
C1181 C1182 1.392 . S
C1181 C1185 1.495 . S
C1182 C1181 1.392 . S
C1182 C1183 1.385 . S
C1182 C1184 1.478 . S
C1183 H1177 0.930 . S
C1183 C1179 1.400 . S
C1183 C1182 1.385 . S
C1184 C1182 1.478 . S
C1184 C1186 1.381 . S
C1184 C1190 1.383 . S
C1185 C1181 1.495 . S
C1185 H1191 0.959 . S
C1185 H1192 0.961 . S
C1185 H1193 0.960 . S
C1186 C1184 1.381 . S
C1186 C1187 1.394 . S
C1186 H1194 0.930 . S
C1187 C1186 1.394 . S
C1187 C1188 1.383 . S
C1187 H1195 0.929 . S
C1188 C1187 1.383 . S
C1188 C1189 1.377 . S
C1189 H1173 0.930 . S
C1189 C1188 1.377 . S
C1189 C1190 1.379 . S
C1190 H1174 0.931 . S
C1190 C1184 1.383 . S
C1190 C1189 1.379 . S
H1191 C1185 0.959 . S
H1192 C1185 0.961 . S
H1193 C1185 0.960 . S
H1194 C1186 0.930 . S
H1195 C1187 0.929 . S
H1196 C1204 0.929 . S
H1197 C1206 0.930 . S
H1198 C1208 0.930 . S
H1199 C1211 0.929 . S
H1200 C1214 0.930 . S
H1201 C1216 0.960 . S
H1202 C1216 0.960 . S
H1203 C1216 0.960 . S
C1204 H1196 0.929 . S
C1204 C1205 1.377 . S
C1204 C1206 1.384 . S
C1205 C1204 1.377 . S
C1205 C1211 1.390 . S
C1206 H1197 0.930 . S
C1206 C1204 1.384 . S
C1206 C1207 1.372 . S
C1207 C1206 1.372 . S
C1207 C1208 1.400 . S
C1207 C1212 1.490 . S
C1208 H1198 0.930 . S
C1208 C1207 1.400 . S
C1208 C1211 1.386 . S
H1209 C1225 0.930 . S
H1210 C1226 0.931 . S
C1211 H1199 0.929 . S
C1211 C1205 1.390 . S
C1211 C1208 1.386 . S
C1212 C1207 1.490 . S
C1212 C1214 1.395 . S
C1212 C1215 1.403 . S
H1213 C1219 0.930 . S
C1214 H1200 0.930 . S
C1214 C1212 1.395 . S
C1214 C1217 1.403 . S
C1215 C1212 1.403 . S
C1215 C1216 1.524 . S
C1215 C1219 1.400 . S
C1216 H1201 0.960 . S
C1216 H1202 0.960 . S
C1216 H1203 0.960 . S
C1216 C1215 1.524 . S
C1217 C1214 1.403 . S
C1217 C1218 1.392 . S
C1217 C1221 1.495 . S
C1218 C1217 1.392 . S
C1218 C1219 1.385 . S
C1218 C1220 1.478 . S
C1219 H1213 0.930 . S
C1219 C1215 1.400 . S
C1219 C1218 1.385 . S
C1220 C1218 1.478 . S
C1220 C1222 1.381 . S
C1220 C1226 1.383 . S
C1221 C1217 1.495 . S
C1221 H1227 0.959 . S
C1221 H1228 0.961 . S
C1221 H1229 0.960 . S
C1222 C1220 1.381 . S
C1222 C1223 1.394 . S
C1222 H1230 0.930 . S
C1223 C1222 1.394 . S
C1223 C1224 1.383 . S
C1223 H1231 0.929 . S
C1224 C1223 1.383 . S
C1224 C1225 1.377 . S
C1225 H1209 0.930 . S
C1225 C1224 1.377 . S
C1225 C1226 1.379 . S
C1226 H1210 0.931 . S
C1226 C1220 1.383 . S
C1226 C1225 1.379 . S
H1227 C1221 0.959 . S
H1228 C1221 0.961 . S
H1229 C1221 0.960 . S
H1230 C1222 0.930 . S
H1231 C1223 0.929 . S
H1232 C1240 0.929 . S
H1233 C1242 0.930 . S
H1234 C1244 0.930 . S
H1235 C1247 0.929 . S
H1236 C1250 0.930 . S
H1237 C1252 0.960 . S
H1238 C1252 0.960 . S
H1239 C1252 0.960 . S
C1240 H1232 0.929 . S
C1240 C1241 1.377 . S
C1240 C1242 1.384 . S
C1241 C1240 1.377 . S
C1241 C1247 1.390 . S
C1242 H1233 0.930 . S
C1242 C1240 1.384 . S
C1242 C1243 1.372 . S
C1243 C1242 1.372 . S
C1243 C1244 1.400 . S
C1243 C1248 1.490 . S
C1244 H1234 0.930 . S
C1244 C1243 1.400 . S
C1244 C1247 1.386 . S
H1245 C1261 0.930 . S
H1246 C1262 0.931 . S
C1247 H1235 0.929 . S
C1247 C1241 1.390 . S
C1247 C1244 1.386 . S
C1248 C1243 1.490 . S
C1248 C1250 1.395 . S
C1248 C1251 1.403 . S
H1249 C1255 0.930 . S
C1250 H1236 0.930 . S
C1250 C1248 1.395 . S
C1250 C1253 1.403 . S
C1251 C1248 1.403 . S
C1251 C1252 1.524 . S
C1251 C1255 1.400 . S
C1252 H1237 0.960 . S
C1252 H1238 0.960 . S
C1252 H1239 0.960 . S
C1252 C1251 1.524 . S
C1253 C1250 1.403 . S
C1253 C1254 1.392 . S
C1253 C1257 1.495 . S
C1254 C1253 1.392 . S
C1254 C1255 1.385 . S
C1254 C1256 1.478 . S
C1255 H1249 0.930 . S
C1255 C1251 1.400 . S
C1255 C1254 1.385 . S
C1256 C1254 1.478 . S
C1256 C1258 1.381 . S
C1256 C1262 1.383 . S
C1257 C1253 1.495 . S
C1257 H1263 0.959 . S
C1257 H1264 0.961 . S
C1257 H1265 0.960 . S
C1258 C1256 1.381 . S
C1258 C1259 1.394 . S
C1258 H1266 0.930 . S
C1259 C1258 1.394 . S
C1259 C1260 1.383 . S
C1259 H1267 0.929 . S
C1260 C1259 1.383 . S
C1260 C1261 1.377 . S
C1261 H1245 0.930 . S
C1261 C1260 1.377 . S
C1261 C1262 1.379 . S
C1262 H1246 0.931 . S
C1262 C1256 1.383 . S
C1262 C1261 1.379 . S
H1263 C1257 0.959 . S
H1264 C1257 0.961 . S
H1265 C1257 0.960 . S
H1266 C1258 0.930 . S
H1267 C1259 0.929 . S
H1268 C1276 0.929 . S
H1269 C1278 0.930 . S
H1270 C1280 0.930 . S
H1271 C1283 0.929 . S
H1272 C1286 0.930 . S
H1273 C1288 0.960 . S
H1274 C1288 0.960 . S
H1275 C1288 0.960 . S
C1276 H1268 0.929 . S
C1276 C1277 1.377 . S
C1276 C1278 1.384 . S
C1277 C1276 1.377 . S
C1277 C1283 1.390 . S
C1278 H1269 0.930 . S
C1278 C1276 1.384 . S
C1278 C1279 1.372 . S
C1279 C1278 1.372 . S
C1279 C1280 1.400 . S
C1279 C1284 1.490 . S
C1280 H1270 0.930 . S
C1280 C1279 1.400 . S
C1280 C1283 1.386 . S
H1281 C1297 0.930 . S
H1282 C1298 0.931 . S
C1283 H1271 0.929 . S
C1283 C1277 1.390 . S
C1283 C1280 1.386 . S
C1284 C1279 1.490 . S
C1284 C1286 1.395 . S
C1284 C1287 1.403 . S
H1285 C1291 0.930 . S
C1286 H1272 0.930 . S
C1286 C1284 1.395 . S
C1286 C1289 1.403 . S
C1287 C1284 1.403 . S
C1287 C1288 1.524 . S
C1287 C1291 1.400 . S
C1288 H1273 0.960 . S
C1288 H1274 0.960 . S
C1288 H1275 0.960 . S
C1288 C1287 1.524 . S
C1289 C1286 1.403 . S
C1289 C1290 1.392 . S
C1289 C1293 1.495 . S
C1290 C1289 1.392 . S
C1290 C1291 1.385 . S
C1290 C1292 1.478 . S
C1291 H1285 0.930 . S
C1291 C1287 1.400 . S
C1291 C1290 1.385 . S
C1292 C1290 1.478 . S
C1292 C1294 1.381 . S
C1292 C1298 1.383 . S
C1293 C1289 1.495 . S
C1293 H1299 0.959 . S
C1293 H1300 0.961 . S
C1293 H1301 0.960 . S
C1294 C1292 1.381 . S
C1294 C1295 1.394 . S
C1294 H1302 0.930 . S
C1295 C1294 1.394 . S
C1295 C1296 1.383 . S
C1295 H1303 0.929 . S
C1296 C1295 1.383 . S
C1296 C1297 1.377 . S
C1297 H1281 0.930 . S
C1297 C1296 1.377 . S
C1297 C1298 1.379 . S
C1298 H1282 0.931 . S
C1298 C1292 1.383 . S
C1298 C1297 1.379 . S
H1299 C1293 0.959 . S
H1300 C1293 0.961 . S
H1301 C1293 0.960 . S
H1302 C1294 0.930 . S
H1303 C1295 0.929 . S
C449 N83 1.656 . S
C468 C178 1.668 . S
C504 C262 1.653 . S
C485 N96 1.661 . S
C540 C255 1.670 . S
C521 N57 1.644 . S
C557 N70 1.644 . S
C576 C171 1.671 . S
C612 C335 1.663 . S
C593 N31 1.662 . S
C648 C419 1.656 . S
C629 N44 1.657 . S
C665 N5 1.646 . S
C684 C412 1.659 . S
C701 N18 1.646 . S
C720 C328 1.660 . S
C756 C162 1.472 . S
C737 N14 1.629 . S
C792 C246 1.441 . S
C773 N1 1.629 . S
C828 C257 1.463 . S
C809 N40 1.634 . S
C864 C173 1.410 . S
C845 N27 1.637 . S
C900 C341 1.470 . S
C881 N66 1.619 . S
C917 N53 1.619 . S
C936 C425 1.438 . S
C972 C414 1.403 . S
C953 N92 1.625 . S
C989 N79 1.630 . S
C1008 C330 1.407 . S
C1044 C160 1.564 . S
C1025 N2 1.568 . S
C1080 C244 1.560 . S
C1061 N15 1.569 . S
C1097 N28 1.566 . S
C1116 C251 1.536 . S
C1152 C167 1.553 . S
C1133 N41 1.565 . S
C1188 C339 1.560 . S
C1169 N54 1.566 . S
C1205 N67 1.566 . S
C1224 C423 1.560 . S
C1241 N80 1.560 . S
C1260 C430 1.544 . S
C1277 N93 1.561 . S
C1296 C346 1.516 . S
