# Generated by pormake.
# Topology sqc, (4,8)-cn, num edge types: 1
# Building blocks:
#     Node 0, Type 0, BuildingBlock: MUDLON_clean_linker_0, # of connection points: 4
#     Node 1, Type 0, BuildingBlock: MUDLON_clean_linker_0, # of connection points: 4
#     Node 2, Type 0, BuildingBlock: MUDLON_clean_linker_0, # of connection points: 4
#     Node 3, Type 0, BuildingBlock: MUDLON_clean_linker_0, # of connection points: 4
#     Node 4, Type 0, BuildingBlock: MUDLON_clean_linker_0, # of connection points: 4
#     Node 5, Type 0, BuildingBlock: MUDLON_clean_linker_0, # of connection points: 4
#     Node 6, Type 0, BuildingBlock: MUDLON_clean_linker_0, # of connection points: 4
#     Node 7, Type 0, BuildingBlock: MUDLON_clean_linker_0, # of connection points: 4
#     Node 8, Type 1, BuildingBlock: VETTIZ_charged_sbu_0, # of connection points: 8
#     Node 9, Type 1, BuildingBlock: VETTIZ_charged_sbu_0, # of connection points: 8
#     Node 10, Type 1, BuildingBlock: VETTIZ_charged_sbu_0, # of connection points: 8
#     Node 11, Type 1, BuildingBlock: VETTIZ_charged_sbu_0, # of connection points: 8
#     Edge 12, Type (0, 1), BuildingBlock: UVAHIK_clean_linker_0, # of connection points: 2
#     Edge 13, Type (0, 1), BuildingBlock: UVAHIK_clean_linker_0, # of connection points: 2
#     Edge 14, Type (0, 1), BuildingBlock: UVAHIK_clean_linker_0, # of connection points: 2
#     Edge 15, Type (0, 1), BuildingBlock: UVAHIK_clean_linker_0, # of connection points: 2
#     Edge 16, Type (0, 1), BuildingBlock: UVAHIK_clean_linker_0, # of connection points: 2
#     Edge 17, Type (0, 1), BuildingBlock: UVAHIK_clean_linker_0, # of connection points: 2
#     Edge 18, Type (0, 1), BuildingBlock: UVAHIK_clean_linker_0, # of connection points: 2
#     Edge 19, Type (0, 1), BuildingBlock: UVAHIK_clean_linker_0, # of connection points: 2
#     Edge 20, Type (0, 1), BuildingBlock: UVAHIK_clean_linker_0, # of connection points: 2
#     Edge 21, Type (0, 1), BuildingBlock: UVAHIK_clean_linker_0, # of connection points: 2
#     Edge 22, Type (0, 1), BuildingBlock: UVAHIK_clean_linker_0, # of connection points: 2
#     Edge 23, Type (0, 1), BuildingBlock: UVAHIK_clean_linker_0, # of connection points: 2
#     Edge 24, Type (0, 1), BuildingBlock: UVAHIK_clean_linker_0, # of connection points: 2
#     Edge 25, Type (0, 1), BuildingBlock: UVAHIK_clean_linker_0, # of connection points: 2
#     Edge 26, Type (0, 1), BuildingBlock: UVAHIK_clean_linker_0, # of connection points: 2
#     Edge 27, Type (0, 1), BuildingBlock: UVAHIK_clean_linker_0, # of connection points: 2
#     Edge 28, Type (0, 1), BuildingBlock: UVAHIK_clean_linker_0, # of connection points: 2
#     Edge 29, Type (0, 1), BuildingBlock: UVAHIK_clean_linker_0, # of connection points: 2
#     Edge 30, Type (0, 1), BuildingBlock: UVAHIK_clean_linker_0, # of connection points: 2
#     Edge 31, Type (0, 1), BuildingBlock: UVAHIK_clean_linker_0, # of connection points: 2
#     Edge 32, Type (0, 1), BuildingBlock: UVAHIK_clean_linker_0, # of connection points: 2
#     Edge 33, Type (0, 1), BuildingBlock: UVAHIK_clean_linker_0, # of connection points: 2
#     Edge 34, Type (0, 1), BuildingBlock: UVAHIK_clean_linker_0, # of connection points: 2
#     Edge 35, Type (0, 1), BuildingBlock: UVAHIK_clean_linker_0, # of connection points: 2
#     Edge 36, Type (0, 1), BuildingBlock: UVAHIK_clean_linker_0, # of connection points: 2
#     Edge 37, Type (0, 1), BuildingBlock: UVAHIK_clean_linker_0, # of connection points: 2
#     Edge 38, Type (0, 1), BuildingBlock: UVAHIK_clean_linker_0, # of connection points: 2
#     Edge 39, Type (0, 1), BuildingBlock: UVAHIK_clean_linker_0, # of connection points: 2
#     Edge 40, Type (0, 1), BuildingBlock: UVAHIK_clean_linker_0, # of connection points: 2
#     Edge 41, Type (0, 1), BuildingBlock: UVAHIK_clean_linker_0, # of connection points: 2
#     Edge 42, Type (0, 1), BuildingBlock: UVAHIK_clean_linker_0, # of connection points: 2
#     Edge 43, Type (0, 1), BuildingBlock: UVAHIK_clean_linker_0, # of connection points: 2
# Relax obj value: 0.164
# Max RMSD: 0.284
# Mean RMSD: 0.211
data_MOF--net-sqc--node1-VETTIZ_charged_sbu_0--node2-MUDLON_clean_linker_0--edge1-UVAHIK_clean_linker_0
_symmetry_space_group_name_H-M    P1
_symmetry_Int_Tables_number       1
_symmetry_cell_setting            triclinic
loop_
_symmetry_equiv_pos_as_xyz
'x, y, z'
_cell_length_a     38.788574
_cell_length_b     38.803799
_cell_length_c     105.72597
_cell_angle_alpha  89.951114
_cell_angle_beta   89.984352
_cell_angle_gamma 90.012291
loop_
_atom_site_label
_atom_site_type_symbol
_atom_site_fract_x
_atom_site_fract_y
_atom_site_fract_z
_atom_type_partial_charge
H0 H 0.84076 0.99312 0.53351 0.0
N1 N 0.87347 0.03259 0.51555 0.0
H2 H 0.80873 0.01398 0.55174 0.0
H3 H 0.86509 0.09761 0.52286 0.0
H4 H 0.83254 0.11889 0.54115 0.0
H5 H 0.83473 0.0523 0.4962 0.0
H6 H 0.79774 0.0163 0.48287 0.0
H7 H 0.86862 0.96216 0.51651 0.0
H8 H 0.8313 0.92594 0.50333 0.0
H9 H 0.90487 0.99795 0.53519 0.0
H10 H 0.92357 0.04769 0.49936 0.0
H11 H 0.96614 0.98874 0.53792 0.0
H12 H 0.98516 0.03606 0.50149 0.0
H13 H 0.16213 0.96393 0.54693 0.0
H14 H 0.19268 0.9938 0.56396 0.0
H15 H 0.15596 0.09138 0.54954 0.0
H16 H 0.12658 0.0615 0.53244 0.0
H17 H 0.16241 0.03986 0.51435 0.0
H18 H 0.2024 0.02823 0.49703 0.0
H19 H 0.17684 0.91987 0.49919 0.0
H20 H 0.13842 0.93169 0.51695 0.0
H21 H 0.07569 0.95106 0.53572 0.0
H22 H 0.014 0.95809 0.53199 0.0
H23 H 0.03461 0.05301 0.5118 0.0
N24 N 0.12654 0.99162 0.52807 0.0
H25 H 0.09623 0.04388 0.51469 0.0
C26 C 0.85517 0.04393 0.5267 0.0
C27 C 0.83915 0.02059 0.53503 0.0
C28 C 0.82072 0.03258 0.54549 0.0
C29 C 0.81791 0.0681 0.54787 0.0
C30 C 0.83449 0.09135 0.53966 0.0
C31 C 0.8529 0.07931 0.52918 0.0
C32 C 0.8542 0.01003 0.50735 0.0
C33 C 0.83438 0.02468 0.49768 0.0
C34 C 0.8134 0.00408 0.49007 0.0
C35 C 0.81159 0.96832 0.49208 0.0
C36 C 0.83198 0.95348 0.50164 0.0
C37 C 0.85334 0.97411 0.50916 0.0
C38 C 0.90952 0.02432 0.51714 0.0
C39 C 0.92207 0.00671 0.52782 0.0
C40 C 0.95741 1.001 0.52929 0.0
C41 C 0.98104 0.01178 0.51997 0.0
C42 C 0.96812 0.02816 0.50906 0.0
C43 C 0.93283 0.03455 0.50774 0.0
C44 C 0.14196 0.01024 0.53843 0.0
C45 C 0.1605 0.99174 0.54755 0.0
C46 C 0.17775 0.00887 0.5573 0.0
C47 C 0.1768 0.04504 0.55813 0.0
C48 C 0.1576 0.06354 0.5491 0.0
C49 C 0.14045 0.04637 0.53933 0.0
C50 C 0.14795 0.98639 0.51711 0.0
C51 C 0.16549 0.01362 0.51112 0.0
C52 C 0.18818 0.00693 0.50111 0.0
C53 C 0.19337 0.973 0.4968 0.0
C54 C 0.17437 0.94618 0.50246 0.0
C55 C 0.15213 0.95284 0.51254 0.0
C56 C 0.09041 0.99719 0.52573 0.0
C57 C 0.0667 0.97328 0.53046 0.0
C58 C 0.0314 0.97758 0.5284 0.0
C59 C 0.01891 0.00641 0.52171 0.0
C60 C 0.04299 0.03026 0.51686 0.0
C61 C 0.07838 0.02545 0.5187 0.0
H62 H 0.25965 0.60217 0.77865 0.0
N63 N 0.21244 0.64509 0.76735 0.0
H64 H 0.24801 0.56151 0.7958 0.0
H65 H 0.1561 0.64178 0.78173 0.0
H66 H 0.14483 0.60185 0.79932 0.0
H67 H 0.17621 0.60682 0.75131 0.0
H68 H 0.19822 0.56892 0.73463 0.0
H69 H 0.27979 0.63968 0.75976 0.0
H70 H 0.30205 0.60175 0.74323 0.0
H71 H 0.26329 0.66876 0.7833 0.0
H72 H 0.19063 0.69999 0.75469 0.0
H73 H 0.28124 0.72841 0.78605 0.0
H74 H 0.20995 0.75961 0.75673 0.0
H75 H 0.29783 0.90359 0.80462 0.0
H76 H 0.26685 0.94516 0.8178 0.0
H77 H 0.19783 0.96629 0.78663 0.0
H78 H 0.23 0.92641 0.77346 0.0
H79 H 0.26412 0.9032 0.75626 0.0
H80 H 0.28982 0.943 0.74091 0.0
H81 H 0.37582 0.95925 0.76621 0.0
H82 H 0.34929 0.92038 0.7816 0.0
H83 H 0.32758 0.83479 0.78142 0.0
H84 H 0.31131 0.77486 0.77759 0.0
H85 H 0.20694 0.80765 0.76966 0.0
N86 N 0.28804 0.89047 0.7802 0.0
H87 H 0.22401 0.86715 0.77269 0.0
C88 C 0.20837 0.62468 0.77871 0.0
C89 C 0.23455 0.60252 0.7831 0.0
C90 C 0.22796 0.57931 0.79292 0.0
C91 C 0.19548 0.57846 0.79878 0.0
C92 C 0.17011 0.60211 0.79496 0.0
C93 C 0.17648 0.62485 0.78495 0.0
C94 C 0.22618 0.62624 0.75671 0.0
C95 C 0.20364 0.60619 0.74942 0.0
C96 C 0.21629 0.58437 0.73999 0.0
C97 C 0.2519 0.5822 0.73763 0.0
C98 C 0.27445 0.60312 0.7447 0.0
C99 C 0.26175 0.62485 0.75417 0.0
C100 C 0.22497 0.67992 0.76893 0.0
C101 C 0.25125 0.68842 0.77755 0.0
C102 C 0.26184 0.72271 0.77899 0.0
C103 C 0.24698 0.74924 0.77167 0.0
C104 C 0.22146 0.74029 0.76279 0.0
C105 C 0.21053 0.70613 0.76151 0.0
C106 C 0.26618 0.91149 0.78812 0.0
C107 C 0.27568 0.91689 0.80074 0.0
C108 C 0.25784 0.94063 0.80826 0.0
C109 C 0.22988 0.9594 0.80329 0.0
C110 C 0.21962 0.95292 0.79074 0.0
C111 C 0.23774 0.92955 0.7832 0.0
C112 C 0.30481 0.90907 0.77012 0.0
C113 C 0.28868 0.91504 0.75841 0.0
C114 C 0.30351 0.93771 0.74963 0.0
C115 C 0.33468 0.95475 0.7524 0.0
C116 C 0.35146 0.94721 0.76387 0.0
C117 C 0.33659 0.92473 0.77262 0.0
C118 C 0.27715 0.8556 0.77754 0.0
C119 C 0.30126 0.82892 0.77877 0.0
C120 C 0.29175 0.7946 0.77668 0.0
C121 C 0.25761 0.78603 0.77342 0.0
C122 C 0.23357 0.81301 0.77199 0.0
C123 C 0.24327 0.84737 0.77389 0.0
H124 H 0.66264 0.02881 0.03058 0.0
N125 N 0.62808 0.99142 0.01265 0.0
H126 H 0.69464 0.00576 0.04857 0.0
H127 H 0.63094 0.92619 0.02027 0.0
H128 H 0.66184 0.90284 0.03855 0.0
H129 H 0.67644 0.97042 0.99671 0.0
H130 H 0.71718 0.00595 0.98469 0.0
H131 H 0.62842 0.06222 0.01144 0.0
H132 H 0.66856 0.09788 0.99912 0.0
H133 H 0.5964 0.02809 0.03161 0.0
H134 H 0.57863 0.9758 0.99627 0.0
H135 H 0.53483 0.03769 0.03399 0.0
H136 H 0.51693 0.98741 0.99807 0.0
H137 H 0.33768 0.06039 0.0421 0.0
H138 H 0.30803 0.03242 0.05979 0.0
H139 H 0.34841 0.93397 0.04774 0.0
H140 H 0.37694 0.96188 0.02999 0.0
H141 H 0.34358 0.97801 0.01087 0.0
H142 H 0.30473 0.9838 0.99278 0.0
H143 H 0.31708 0.09442 0.99411 0.0
H144 H 0.35618 0.08829 0.01213 0.0
H145 H 0.42428 0.07359 0.03086 0.0
H146 H 0.48627 0.06743 0.02739 0.0
H147 H 0.46811 0.96962 0.00891 0.0
N148 N 0.3744 0.03083 0.02393 0.0
H149 H 0.40637 0.97743 0.01164 0.0
C150 C 0.64475 0.97903 0.02398 0.0
C151 C 0.66227 1.00131 0.03227 0.0
C152 C 0.68034 0.98808 0.04264 0.0
C153 C 0.68108 0.95237 0.04498 0.0
C154 C 0.66241 0.93038 0.03691 0.0
C155 C 0.64453 0.94363 0.02651 0.0
C156 C 0.64922 0.01351 0.00485 0.0
C157 C 0.67436 0.99823 0.99717 0.0
C158 C 0.69764 0.01849 0.99038 0.0
C159 C 0.69593 0.05458 0.991 0.0
C160 C 0.67017 0.07007 0.99842 0.0
C161 C 0.64721 0.04972 0.00543 0.0
C162 C 0.59212 1.00047 0.01384 0.0
C163 C 0.57929 0.01891 0.02428 0.0
C164 C 0.54387 0.02477 0.02555 0.0
C165 C 0.52052 0.01306 0.01629 0.0
C166 C 0.53379 0.996 0.00559 0.0
C167 C 0.56912 0.98963 0.00445 0.0
C168 C 0.35962 0.01348 0.03472 0.0
C169 C 0.34032 0.03282 0.04338 0.0
C170 C 0.32357 0.01679 0.05351 0.0
C171 C 0.3258 0.98089 0.05519 0.0
C172 C 0.34577 0.96159 0.04664 0.0
C173 C 0.36241 0.97766 0.03649 0.0
C174 C 0.35274 0.03289 0.01288 0.0
C175 C 0.33816 0.00347 0.00723 0.0
C176 C 0.31577 0.00682 0.99692 0.0
C177 C 0.30778 0.03956 0.992 0.0
C178 C 0.32301 0.06879 0.99754 0.0
C179 C 0.34521 0.06541 0.00787 0.0
C180 C 0.41073 0.02589 0.02169 0.0
C181 C 0.43385 0.05094 0.02602 0.0
C182 C 0.46932 0.04717 0.0241 0.0
C183 C 0.48254 0.01786 0.01793 0.0
C184 C 0.4591 0.99282 0.01353 0.0
C185 C 0.4236 0.99696 0.01526 0.0
H186 H 0.24903 0.41527 0.28326 0.0
N187 N 0.29398 0.384 0.26685 0.0
H188 H 0.26392 0.45727 0.29961 0.0
H189 H 0.35673 0.40149 0.27462 0.0
H190 H 0.37189 0.44361 0.291 0.0
H191 H 0.32452 0.41842 0.24821 0.0
H192 H 0.29757 0.45742 0.2329 0.0
H193 H 0.22472 0.39363 0.26361 0.0
H194 H 0.19743 0.43232 0.24829 0.0
H195 H 0.26765 0.35406 0.28882 0.0
H196 H 0.29259 0.33386 0.24968 0.0
H197 H 0.25022 0.29483 0.29152 0.0
H198 H 0.27333 0.27448 0.25224 0.0
H199 H 0.19672 0.10813 0.30062 0.0
H200 H 0.22722 0.06724 0.31428 0.0
H201 H 0.31898 0.08017 0.29158 0.0
H202 H 0.28823 0.1202 0.27792 0.0
H203 H 0.25275 0.10602 0.25995 0.0
H204 H 0.22604 0.06912 0.24407 0.0
H205 H 0.12589 0.09037 0.26015 0.0
H206 H 0.15301 0.12726 0.27611 0.0
H207 H 0.19206 0.19336 0.2902 0.0
H208 H 0.20791 0.2537 0.28694 0.0
H209 H 0.28853 0.22165 0.26124 0.0
N210 N 0.21982 0.13797 0.27968 0.0
H211 H 0.27103 0.162 0.26398 0.0
C212 C 0.30192 0.40506 0.27774 0.0
C213 C 0.27592 0.42087 0.28501 0.0
C214 C 0.28446 0.44477 0.2944 0.0
C215 C 0.31905 0.45382 0.29653 0.0
C216 C 0.34499 0.43731 0.28949 0.0
C217 C 0.33645 0.41311 0.28022 0.0
C218 C 0.27672 0.40329 0.25704 0.0
C219 C 0.29672 0.42099 0.24811 0.0
C220 C 0.28126 0.44315 0.23936 0.0
C221 C 0.24537 0.44816 0.23943 0.0
C222 C 0.22519 0.42941 0.24812 0.0
C223 C 0.2407 0.40717 0.25684 0.0
C224 C 0.28134 0.34917 0.26888 0.0
C225 C 0.26893 0.33738 0.28067 0.0
C226 C 0.25866 0.30307 0.28224 0.0
C227 C 0.2602 0.27958 0.27211 0.0
C228 C 0.27225 0.29148 0.26034 0.0
C229 C 0.28294 0.32564 0.25881 0.0
C230 C 0.24002 0.11736 0.28828 0.0
C231 C 0.22358 0.10245 0.29874 0.0
C232 C 0.24108 0.07917 0.30654 0.0
C233 C 0.27552 0.07023 0.30398 0.0
C234 C 0.29231 0.08605 0.2937 0.0
C235 C 0.27475 0.1093 0.28591 0.0
C236 C 0.20475 0.11955 0.26923 0.0
C237 C 0.22503 0.10344 0.25993 0.0
C238 C 0.20968 0.08228 0.25082 0.0
C239 C 0.17385 0.07664 0.25089 0.0
C240 C 0.15359 0.09384 0.25993 0.0
C241 C 0.16895 0.11509 0.26899 0.0
C242 C 0.23046 0.17307 0.2775 0.0
C243 C 0.21309 0.19952 0.28385 0.0
C244 C 0.22242 0.23399 0.28203 0.0
C245 C 0.24974 0.2428 0.27387 0.0
C246 C 0.26708 0.21609 0.26747 0.0
C247 C 0.25737 0.18166 0.26917 0.0
H248 H 0.81479 0.09921 0.29643 0.0
N249 N 0.78896 0.13535 0.27734 0.0
H250 H 0.7832 0.06739 0.31273 0.0
H251 H 0.71871 0.13312 0.28021 0.0
H252 H 0.68698 0.10253 0.29662 0.0
H253 H 0.74311 0.10336 0.26156 0.0
H254 H 0.75775 0.065 0.24393 0.0
H255 H 0.85104 0.12329 0.26784 0.0
H256 H 0.86586 0.08573 0.25002 0.0
H257 H 0.83331 0.18164 0.28578 0.0
H258 H 0.73808 0.17144 0.26525 0.0
H259 H 0.82984 0.24411 0.28401 0.0
H260 H 0.73232 0.2341 0.26442 0.0
H261 H 0.79437 0.43674 0.29108 0.0
H262 H 0.75929 0.46517 0.30726 0.0
H263 H 0.66874 0.41319 0.29302 0.0
H264 H 0.7043 0.3847 0.27688 0.0
H265 H 0.72185 0.41192 0.25712 0.0
H266 H 0.72817 0.44716 0.23805 0.0
H267 H 0.83835 0.45052 0.24395 0.0
H268 H 0.83169 0.41529 0.26301 0.0
H269 H 0.80072 0.35356 0.2912 0.0
H270 H 0.80245 0.29102 0.29216 0.0
H271 H 0.75052 0.28593 0.25597 0.0
N272 N 0.77353 0.3931 0.2734 0.0
H273 H 0.74636 0.34857 0.2557 0.0
C274 C 0.76929 0.11865 0.28715 0.0
C275 C 0.78689 0.10015 0.29651 0.0
C276 C 0.76876 0.08218 0.30584 0.0
C277 C 0.73249 0.08241 0.30601 0.0
C278 C 0.71488 0.10144 0.29669 0.0
C279 C 0.73307 0.11928 0.28733 0.0
C280 C 0.79617 0.11571 0.26612 0.0
C281 C 0.76991 0.09977 0.25908 0.0
C282 C 0.77828 0.0779 0.24901 0.0
C283 C 0.81293 0.07235 0.24566 0.0
C284 C 0.83895 0.08973 0.25233 0.0
C285 C 0.83059 0.11105 0.26251 0.0
C286 C 0.78563 0.17205 0.27596 0.0
C287 C 0.8113 0.1931 0.28108 0.0
C288 C 0.80897 0.22888 0.28016 0.0
C289 C 0.78033 0.2446 0.27432 0.0
C290 C 0.75483 0.22321 0.26895 0.0
C291 C 0.75771 0.18725 0.26961 0.0
C292 C 0.75189 0.40898 0.28279 0.0
C293 C 0.76697 0.43148 0.29151 0.0
C294 C 0.74695 0.44742 0.30078 0.0
C295 C 0.71127 0.44127 0.30144 0.0
C296 C 0.69612 0.41856 0.29268 0.0
C297 C 0.71632 0.40235 0.28346 0.0
C298 C 0.77643 0.4112 0.26154 0.0
C299 C 0.74735 0.4201 0.25428 0.0
C300 C 0.75099 0.44032 0.24339 0.0
C301 C 0.78375 0.45172 0.2395 0.0
C302 C 0.8128 0.44184 0.24659 0.0
C303 C 0.80909 0.42184 0.2575 0.0
C304 C 0.77392 0.35591 0.27336 0.0
C305 C 0.78958 0.33886 0.28351 0.0
C306 C 0.79086 0.30298 0.28394 0.0
C307 C 0.77724 0.28301 0.27401 0.0
C308 C 0.76108 0.30019 0.26386 0.0
C309 C 0.75903 0.33625 0.26361 0.0
H310 H 0.70101 0.89537 0.80495 0.0
N311 N 0.71147 0.89106 0.78014 0.0
H312 H 0.73567 0.92718 0.82051 0.0
H313 H 0.77345 0.92296 0.77571 0.0
H314 H 0.80739 0.95546 0.79106 0.0
H315 H 0.74392 0.90444 0.7577 0.0
H316 H 0.7242 0.94491 0.7413 0.0
H317 H 0.6518 0.92432 0.77926 0.0
H318 H 0.63114 0.96337 0.7626 0.0
H319 H 0.66183 0.84434 0.78007 0.0
H320 H 0.77112 0.85646 0.77447 0.0
H321 H 0.66726 0.78225 0.77715 0.0
H322 H 0.77738 0.79394 0.77226 0.0
H323 H 0.70968 0.5816 0.78621 0.0
H324 H 0.74019 0.5503 0.80277 0.0
H325 H 0.82732 0.61901 0.79841 0.0
H326 H 0.79708 0.64866 0.78124 0.0
H327 H 0.78641 0.61369 0.75836 0.0
H328 H 0.78306 0.57883 0.739 0.0
H329 H 0.67181 0.58275 0.74091 0.0
H330 H 0.67559 0.61744 0.76014 0.0
H331 H 0.69096 0.67227 0.78727 0.0
H332 H 0.68742 0.73487 0.78858 0.0
H333 H 0.76672 0.74358 0.75997 0.0
N334 N 0.73194 0.63478 0.77278 0.0
H335 H 0.77119 0.68058 0.75929 0.0
C336 C 0.73417 0.90725 0.78915 0.0
C337 C 0.7245 0.90802 0.80192 0.0
C338 C 0.74432 0.92604 0.81078 0.0
C339 C 0.77399 0.94396 0.80693 0.0
C340 C 0.7844 0.94214 0.79422 0.0
C341 C 0.76489 0.92364 0.78543 0.0
C342 C 0.69951 0.91205 0.76981 0.0
C343 C 0.71945 0.91743 0.75888 0.0
C344 C 0.70812 0.94032 0.74951 0.0
C345 C 0.67624 0.95717 0.75076 0.0
C346 C 0.65574 0.95055 0.76143 0.0
C347 C 0.66747 0.92841 0.77092 0.0
C348 C 0.71599 0.85486 0.77771 0.0
C349 C 0.68705 0.83343 0.77826 0.0
C350 C 0.69034 0.7979 0.77671 0.0
C351 C 0.72291 0.7828 0.77474 0.0
C352 C 0.75189 0.80456 0.77373 0.0
C353 C 0.74843 0.84035 0.7751 0.0
C354 C 0.75089 0.61755 0.78264 0.0
C355 C 0.73538 0.58979 0.78887 0.0
C356 C 0.75281 0.5722 0.79842 0.0
C357 C 0.78617 0.58235 0.80214 0.0
C358 C 0.80182 0.61022 0.79578 0.0
C359 C 0.78447 0.62747 0.78603 0.0
C360 C 0.73111 0.61794 0.76066 0.0
C361 C 0.76139 0.60737 0.75447 0.0
C362 C 0.75942 0.58734 0.74347 0.0
C363 C 0.72717 0.57795 0.73842 0.0
C364 C 0.69706 0.58986 0.74442 0.0
C365 C 0.69909 0.60959 0.75542 0.0
C366 C 0.73086 0.67185 0.77309 0.0
C367 C 0.70753 0.68778 0.7813 0.0
C368 C 0.7054 0.72361 0.78193 0.0
C369 C 0.72636 0.74451 0.77421 0.0
C370 C 0.75026 0.72841 0.76609 0.0
C371 C 0.75266 0.69237 0.76559 0.0
H372 H 0.3504 0.54442 0.01238 0.0
N373 N 0.37894 0.4945 0.02741 0.0
H374 H 0.31162 0.53488 0.99444 0.0
H375 H 0.3634 0.43474 0.01663 0.0
H376 H 0.3242 0.42496 0.99879 0.0
H377 H 0.3325 0.46506 0.04226 0.0
H378 H 0.29291 0.49346 0.05704 0.0
H379 H 0.3807 0.56276 0.03421 0.0
H380 H 0.3418 0.5911 0.04936 0.0
H381 H 0.41184 0.54154 0.01207 0.0
H382 H 0.4284 0.46444 0.04079 0.0
H383 H 0.47368 0.54952 0.00998 0.0
H384 H 0.49061 0.4737 0.03935 0.0
H385 H 0.65019 0.54109 0.99355 0.0
H386 H 0.68881 0.50666 0.98029 0.0
H387 H 0.6985 0.43209 0.01047 0.0
H388 H 0.66089 0.46704 0.02369 0.0
H389 H 0.64188 0.50119 0.04107 0.0
H390 H 0.68033 0.52174 0.0579 0.0
H391 H 0.70799 0.60933 0.03478 0.0
H392 H 0.66996 0.58833 0.018 0.0
H393 H 0.58549 0.57818 0.01601 0.0
H394 H 0.52348 0.57159 0.01922 0.0
H395 H 0.53843 0.4629 0.02653 0.0
N396 N 0.634 0.53033 0.01765 0.0
H397 H 0.60033 0.47034 0.02405 0.0
C398 C 0.36006 0.49014 0.01577 0.0
C399 C 0.3456 0.51831 0.00926 0.0
C400 C 0.32336 0.51285 0.99903 0.0
C401 C 0.31475 0.47919 0.99529 0.0
C402 C 0.33017 0.45117 1.00155 0.0
C403 C 0.3527 0.45667 0.01165 0.0
C404 C 0.35971 0.51161 0.03724 0.0
C405 C 0.33503 0.49248 0.04393 0.0
C406 C 0.31243 0.50868 0.05229 0.0
C407 C 0.31448 0.54433 0.05429 0.0
C408 C 0.34002 0.56349 0.048 0.0
C409 C 0.36226 0.54732 0.0394 0.0
C410 C 0.41536 0.50183 0.02648 0.0
C411 C 0.4287 0.52644 0.01802 0.0
C412 C 0.46434 0.53126 0.01693 0.0
C413 C 0.48749 0.51212 0.02444 0.0
C414 C 0.47385 0.48836 0.03318 0.0
C415 C 0.43825 0.48323 0.03412 0.0
C416 C 0.6525 0.50677 0.00957 0.0
C417 C 0.66019 0.51697 0.99718 0.0
C418 C 0.6822 0.4972 0.98962 0.0
C419 C 0.69702 0.46669 0.99434 0.0
C420 C 0.68804 0.45572 0.0066 0.0
C421 C 0.66614 0.47558 0.01415 0.0
C422 C 0.65333 0.54328 0.02826 0.0
C423 C 0.65612 0.52486 0.03967 0.0
C424 C 0.67812 0.53659 0.04926 0.0
C425 C 0.69719 0.56713 0.04765 0.0
C426 C 0.69336 0.58594 0.03637 0.0
C427 C 0.67175 0.57401 0.02678 0.0
C428 C 0.5976 0.52484 0.0196 0.0
C429 C 0.57526 0.55299 0.01834 0.0
C430 C 0.53975 0.54905 0.02009 0.0
C431 C 0.5256 0.5166 0.02303 0.0
C432 C 0.54822 0.4884 0.02443 0.0
C433 C 0.58384 0.49252 0.02286 0.0
H434 H 0.15296 0.53144 0.53675 0.0
N435 N 0.11943 0.48955 0.51995 0.0
H436 H 0.19357 0.51266 0.55313 0.0
H437 H 0.13127 0.42556 0.5275 0.0
H438 H 0.1716 0.4065 0.54388 0.0
H439 H 0.14919 0.45528 0.5012 0.0
H440 H 0.18913 0.47772 0.48531 0.0
H441 H 0.13523 0.55765 0.51606 0.0
H442 H 0.17374 0.5806 0.49995 0.0
H443 H 0.09513 0.54778 0.53165 0.0
H444 H 0.06416 0.45446 0.51282 0.0
H445 H 0.03499 0.56443 0.53408 0.0
H446 H 0.00362 0.46949 0.51598 0.0
H447 H 0.83211 0.58065 0.55097 0.0
H448 H 0.79251 0.54742 0.56426 0.0
H449 H 0.82607 0.45372 0.54595 0.0
H450 H 0.86517 0.48727 0.53259 0.0
H451 H 0.83272 0.51967 0.51561 0.0
H452 H 0.79543 0.54209 0.49913 0.0
H453 H 0.83188 0.64524 0.50699 0.0
H454 H 0.86769 0.62247 0.52413 0.0
H455 H 0.92418 0.57058 0.54759 0.0
H456 H 0.9844 0.55364 0.54506 0.0
H457 H 0.95891 0.5048 0.50949 0.0
N458 N 0.87155 0.55763 0.53226 0.0
H459 H 0.89864 0.51988 0.51258 0.0
C460 C 0.13911 0.47974 0.53091 0.0
C461 C 0.15628 0.50417 0.53845 0.0
C462 C 0.17951 0.4934 0.54781 0.0
C463 C 0.18609 0.45811 0.54968 0.0
C464 C 0.1675 0.43387 0.54253 0.0
C465 C 0.14427 0.44464 0.53325 0.0
C466 C 0.13894 0.50465 0.50975 0.0
C467 C 0.15412 0.48274 0.50082 0.0
C468 C 0.17688 0.49567 0.49172 0.0
C469 C 0.18491 0.53103 0.49134 0.0
C470 C 0.16872 0.55315 0.50008 0.0
C471 C 0.14619 0.54009 0.50925 0.0
C472 C 0.08417 0.50009 0.5218 0.0
C473 C 0.07539 0.53086 0.528 0.0
C474 C 0.04074 0.54009 0.52956 0.0
C475 C 0.01404 0.51842 0.52522 0.0
C476 C 0.02317 0.48735 0.51921 0.0
C477 C 0.05779 0.47849 0.51747 0.0
C478 C 0.85161 0.53657 0.54084 0.0
C479 C 0.83124 0.55288 0.54999 0.0
C480 C 0.80871 0.53382 0.55759 0.0
C481 C 0.806 0.49789 0.55614 0.0
C482 C 0.82721 0.4814 0.54719 0.0
C483 C 0.84982 0.50051 0.53962 0.0
C484 C 0.85267 0.56955 0.52131 0.0
C485 C 0.83279 0.5471 0.51382 0.0
C486 C 0.81162 0.56003 0.50424 0.0
C487 C 0.81021 0.59566 0.50172 0.0
C488 C 0.83154 0.61779 0.50882 0.0
C489 C 0.85235 0.60484 0.51853 0.0
C490 C 0.90687 0.54701 0.53026 0.0
C491 C 0.9317 0.55611 0.53928 0.0
C492 C 0.96623 0.54663 0.53773 0.0
C493 C 0.97695 0.52805 0.52699 0.0
C494 C 0.95183 0.5187 0.51798 0.0
C495 C 0.91716 0.5277 0.51965 0.0
Fe496 Fe 0.99555 0.73488 0.17644 0.0
O497 O 0.00322 0.73645 0.15804 0.0
Fe498 Fe 0.96322 0.75773 0.14719 0.0
Fe499 Fe 0.04281 0.76092 0.14986 0.0
O500 O 0.99973 0.73634 0.15793 0.0
O501 O 0.00275 0.78178 0.1389 0.0
O502 O 0.00612 0.78198 0.13903 0.0
Fe503 Fe 0.00838 0.78445 0.12052 0.0
C504 C 0.0381 0.80149 0.17413 0.0
O505 O 0.03888 0.70449 0.17563 0.0
O506 O 0.07601 0.73457 0.16246 0.0
O507 O 0.9727 0.7463 0.11678 0.0
O508 O 0.96586 0.71716 0.13476 0.0
O509 O 0.92641 0.72813 0.15728 0.0
O510 O 0.95925 0.6984 0.17192 0.0
O511 O 0.04953 0.72049 0.13755 0.0
O512 O 0.04708 0.74821 0.11903 0.0
C513 C 0.93165 0.70265 0.16514 0.0
O514 O 0.96608 0.81673 0.12217 0.0
O515 O 0.93003 0.78431 0.13486 0.0
O516 O 0.02864 0.77508 0.1804 0.0
O517 O 0.03877 0.8019 0.16211 0.0
C518 C 0.06917 0.71113 0.17099 0.0
C519 C 0.05652 0.72275 0.12581 0.0
C520 C 0.07538 0.81401 0.13112 0.0
O521 O 0.07933 0.79006 0.13969 0.0
O522 O 0.04732 0.81917 0.12463 0.0
C523 C 0.96243 0.71981 0.12284 0.0
O524 O 0.95866 0.79863 0.1594 0.0
O525 O 0.95475 0.76913 0.1773 0.0
C526 C 0.93589 0.80906 0.12678 0.0
C527 C 0.95002 0.79655 0.17095 0.0
Fe528 Fe 0.4701 0.76347 0.42612 0.0
O529 O 0.47346 0.76239 0.40756 0.0
Fe530 Fe 0.49831 0.80368 0.39848 0.0
Fe531 Fe 0.4963 0.72376 0.39831 0.0
O532 O 0.4736 0.76588 0.40758 0.0
O533 O 0.52089 0.76504 0.38918 0.0
O534 O 0.52086 0.76166 0.38919 0.0
Fe535 Fe 0.52548 0.76386 0.37076 0.0
C536 C 0.53329 0.71799 0.42308 0.0
O537 O 0.43502 0.72512 0.42248 0.0
O538 O 0.46595 0.68916 0.40919 0.0
O539 O 0.48947 0.80215 0.3677 0.0
O540 O 0.45896 0.80669 0.38549 0.0
O541 O 0.47049 0.83944 0.40949 0.0
O542 O 0.43844 0.80531 0.42307 0.0
O543 O 0.45701 0.72293 0.3852 0.0
O544 O 0.4878 0.72752 0.36747 0.0
C545 C 0.44507 0.83413 0.41732 0.0
O546 O 0.55972 0.80359 0.37429 0.0
O547 O 0.52803 0.83828 0.38769 0.0
O548 O 0.50539 0.72421 0.42899 0.0
O549 O 0.53595 0.72263 0.41122 0.0
C550 C 0.44 0.69605 0.41668 0.0
C551 C 0.46077 0.71803 0.37338 0.0
C552 C 0.54971 0.69297 0.37928 0.0
O553 O 0.52449 0.68829 0.3873 0.0
O554 O 0.55757 0.72234 0.37407 0.0
C555 C 0.46276 0.81212 0.3737 0.0
O556 O 0.53795 0.80283 0.41126 0.0
O557 O 0.50922 0.79867 0.42944 0.0
C558 C 0.5533 0.83289 0.37979 0.0
C559 C 0.53641 0.80587 0.4232 0.0
Fe560 Fe 0.5044 0.30018 0.67692 0.0
O561 O 0.50415 0.2953 0.65843 0.0
Fe562 Fe 0.46167 0.27104 0.64993 0.0
Fe563 Fe 0.54147 0.27051 0.64918 0.0
O564 O 0.50069 0.29545 0.65843 0.0
O565 O 0.49919 0.24668 0.64055 0.0
O566 O 0.5025 0.24664 0.64052 0.0
Fe567 Fe 0.4998 0.2408 0.62216 0.0
C568 C 0.57248 0.32683 0.66671 0.0
O569 O 0.54254 0.26361 0.67989 0.0
O570 O 0.54185 0.23178 0.66242 0.0
O571 O 0.45902 0.20816 0.62624 0.0
O572 O 0.42583 0.24132 0.63972 0.0
O573 O 0.46248 0.23234 0.66318 0.0
O574 O 0.46789 0.26272 0.68092 0.0
O575 O 0.57562 0.24067 0.6383 0.0
O576 O 0.5405 0.20755 0.62553 0.0
C577 C 0.46026 0.23493 0.67513 0.0
O578 O 0.46252 0.27762 0.61898 0.0
O579 O 0.45855 0.30942 0.63648 0.0
O580 O 0.54392 0.33358 0.67263 0.0
O581 O 0.57771 0.30005 0.65948 0.0
C582 C 0.54756 0.23519 0.67417 0.0
C583 C 0.57017 0.21503 0.63058 0.0
C584 C 0.54782 0.30422 0.624 0.0
O585 O 0.54276 0.30886 0.63576 0.0
O586 O 0.5374 0.27717 0.61832 0.0
C587 C 0.43018 0.2156 0.63193 0.0
O588 O 0.42743 0.30091 0.661 0.0
O589 O 0.46366 0.33309 0.67377 0.0
C590 C 0.45277 0.30475 0.62475 0.0
C591 C 0.43422 0.32708 0.66836 0.0
Fe592 Fe 0.03655 0.26193 0.92612 0.0
O593 O 0.0331 0.2617 0.9076 0.0
Fe594 Fe 0.0111 0.30492 0.89879 0.0
Fe595 Fe 0.00778 0.22506 0.89814 0.0
O596 O 0.03324 0.26519 0.90763 0.0
O597 O 0.98664 0.2682 0.88905 0.0
O598 O 0.98637 0.26483 0.88905 0.0
Fe599 Fe 0.98305 0.26803 0.87057 0.0
C600 C 0.0614 0.19261 0.91646 0.0
O601 O 0.99838 0.22536 0.92878 0.0
O602 O 0.96787 0.22607 0.91097 0.0
O603 O 0.95101 0.30955 0.8742 0.0
O604 O 0.984 0.34176 0.88809 0.0
O605 O 0.97108 0.3056 0.91151 0.0
O606 O 1.00022 0.29993 0.92953 0.0
O607 O 0.97748 0.19192 0.8869 0.0
O608 O 0.94826 0.2284 0.87335 0.0
C609 C 0.97314 0.3085 0.92346 0.0
O610 O 0.02139 0.30435 0.86797 0.0
O611 O 0.05096 0.3065 0.88604 0.0
O612 O 0.06871 0.22108 0.92234 0.0
O613 O 0.03506 0.18805 0.90894 0.0
C614 C 0.97035 0.22042 0.92278 0.0
C615 C 0.95327 0.19855 0.87866 0.0
C616 C 0.04448 0.21797 0.87343 0.0
O617 O 0.04743 0.222 0.88531 0.0
O618 O 0.01877 0.22959 0.86725 0.0
C619 C 0.95889 0.33804 0.88 0.0
O620 O 0.04073 0.33832 0.91022 0.0
O621 O 0.07124 0.30138 0.92323 0.0
C622 C 0.04798 0.313 0.8743 0.0
C623 C 0.06621 0.33104 0.91783 0.0
C624 C 0.22454 0.98763 0.47646 0.0
C625 C 0.2192 0.96516 0.48676 0.0
C626 C 0.24853 0.97951 0.467 0.0
C627 C 0.2898 0.90524 0.45228 0.0
H628 H 0.36257 0.9674 0.4416 0.0
C629 C 0.38698 0.85967 0.41596 0.0
C630 C 0.42117 0.86239 0.42011 0.0
C631 C 0.36118 0.8796 0.42154 0.0
C632 C 0.34221 0.94992 0.44443 0.0
H633 H 0.23635 0.91731 0.49538 0.0
H634 H 0.27704 0.90282 0.47875 0.0
H635 H 0.31928 0.98698 0.45698 0.0
H636 H 0.45597 0.88912 0.43269 0.0
H637 H 0.41078 0.92407 0.44258 0.0
H638 H 0.31282 0.86784 0.44016 0.0
C639 C 0.26242 0.92651 0.47795 0.0
C640 C 0.31741 0.96115 0.45316 0.0
C641 C 0.23889 0.93477 0.48744 0.0
C642 C 0.42977 0.88717 0.42922 0.0
C643 C 0.40388 0.90706 0.43487 0.0
C644 C 0.3142 0.89419 0.4435 0.0
C645 C 0.26729 0.9486 0.46758 0.0
C646 C 0.29148 0.93858 0.45737 0.0
C647 C 0.36909 0.90219 0.43152 0.0
C648 C 0.34105 0.91613 0.43962 0.0
H649 H 0.2097 0.01113 0.47556 0.0
H650 H 0.25177 0.99691 0.45907 0.0
H651 H 0.26992 0.88741 0.4553 0.0
H652 H 0.37986 0.84041 0.40901 0.0
H653 H 0.33471 0.87568 0.4186 0.0
C654 C 0.36279 0.01219 0.74882 0.0
C655 C 0.3488 0.9817 0.74378 0.0
C656 C 0.37591 0.03783 0.74088 0.0
C657 C 0.37197 0.07106 0.70818 0.0
H658 H 0.45498 0.11972 0.71814 0.0
C659 C 0.43682 0.17457 0.67645 0.0
C660 C 0.44824 0.2047 0.68256 0.0
C661 C 0.4257 0.14606 0.68347 0.0
C662 C 0.43161 0.10659 0.71528 0.0
H663 H 0.33768 0.95439 0.72637 0.0
H664 H 0.36065 0.99931 0.71247 0.0
H665 H 0.43389 0.07216 0.73107 0.0
H666 H 0.45718 0.22816 0.7009 0.0
H667 H 0.43761 0.17862 0.71309 0.0
H668 H 0.36965 0.10573 0.69242 0.0
C669 C 0.36118 0.0034 0.7226 0.0
C670 C 0.4195 0.0793 0.72269 0.0
C671 C 0.34803 0.97765 0.73056 0.0
C672 C 0.44847 0.20548 0.69586 0.0
C673 C 0.4375 0.17694 0.70286 0.0
C674 C 0.38413 0.09837 0.70075 0.0
C675 C 0.37539 0.03377 0.72768 0.0
C676 C 0.38929 0.06145 0.71933 0.0
C677 C 0.42592 0.14689 0.69677 0.0
C678 C 0.41387 0.11674 0.70429 0.0
H679 H 0.36306 0.01661 0.75893 0.0
H680 H 0.38591 0.06117 0.74512 0.0
H681 H 0.34843 0.05813 0.70539 0.0
H682 H 0.43641 0.17295 0.66622 0.0
H683 H 0.4173 0.12319 0.67848 0.0
C684 C 0.25189 0.02474 0.98121 0.0
C685 C 0.28287 0.04357 0.9814 0.0
C686 C 0.22717 0.03077 0.97181 0.0
C687 C 0.2139 0.07315 0.94054 0.0
H688 H 0.12068 0.08751 0.95268 0.0
C689 C 0.1206 0.16985 0.91879 0.0
C690 C 0.08497 0.16368 0.91899 0.0
C691 C 0.14352 0.14574 0.92376 0.0
C692 C 0.14633 0.08279 0.94902 0.0
H693 H 0.31289 0.08225 0.9715 0.0
H694 H 0.26973 0.0932 0.95529 0.0
H695 H 0.16381 0.06299 0.96679 0.0
H696 H 0.04524 0.12688 0.92389 0.0
H697 H 0.08556 0.0844 0.93281 0.0
H698 H 0.19673 0.0946 0.92296 0.0
C699 C 0.26451 0.07356 0.96232 0.0
C700 C 0.17114 0.06878 0.95713 0.0
C701 C 0.28912 0.06761 0.97172 0.0
C702 C 0.07268 0.132 0.92354 0.0
C703 C 0.0957 0.10792 0.92873 0.0
C704 C 0.18911 0.08721 0.93244 0.0
C705 C 0.23298 0.05563 0.96236 0.0
C706 C 0.20551 0.06492 0.95312 0.0
C707 C 0.1313 0.11506 0.92922 0.0
C708 C 0.15535 0.09332 0.93673 0.0
H709 H 0.24618 0.00618 0.98857 0.0
H710 H 0.20329 0.01632 0.97206 0.0
H711 H 0.23995 0.06981 0.93706 0.0
H712 H 0.13062 0.19419 0.91535 0.0
H713 H 0.17065 0.15229 0.9241 0.0
C714 C 0.13376 0.02725 0.24682 0.0
C715 C 0.15801 0.05106 0.24219 0.0
C716 C 0.12018 0.00181 0.23893 0.0
C717 C 0.10561 0.97788 0.20567 0.0
H718 H 0.10157 0.88513 0.21926 0.0
C719 C 0.06929 0.85828 0.1753 0.0
C720 C 0.04978 0.8323 0.18122 0.0
C721 C 0.08191 0.88621 0.1823 0.0
C722 C 0.10202 0.91094 0.21535 0.0
H723 H 0.18635 0.06732 0.22555 0.0
H724 H 0.1625 0.02267 0.21171 0.0
H725 H 0.12442 0.93158 0.2322 0.0
H726 H 0.02679 0.81628 0.19899 0.0
H727 H 0.04804 0.86509 0.21105 0.0
H728 H 0.08282 0.9572 0.18884 0.0
C729 C 0.15403 0.02384 0.22147 0.0
C730 C 0.11522 0.93756 0.22278 0.0
C731 C 0.16787 0.04921 0.2294 0.0
C732 C 0.04221 0.8355 0.19417 0.0
C733 C 0.05457 0.86346 0.20111 0.0
C734 C 0.09214 0.9512 0.19824 0.0
C735 C 0.13037 0.99959 0.2262 0.0
C736 C 0.11697 0.97137 0.21807 0.0
C737 C 0.0751 0.88888 0.19534 0.0
C738 C 0.08995 0.91742 0.20303 0.0
H739 H 0.12591 0.0277 0.25665 0.0
H740 H 0.10171 0.98373 0.24283 0.0
H741 H 0.10643 0.00374 0.20182 0.0
H742 H 0.07559 0.85659 0.16534 0.0
H743 H 0.09782 0.90518 0.17755 0.0
C744 C 0.21504 0.09377 0.56501 0.0
C745 C 0.19699 0.06342 0.56801 0.0
C746 C 0.23552 0.11014 0.57406 0.0
C747 C 0.26467 0.14882 0.59658 0.0
H748 H 0.32672 0.09113 0.61604 0.0
C749 C 0.36602 0.20773 0.63013 0.0
C750 C 0.39958 0.19492 0.6283 0.0
C751 C 0.33756 0.19045 0.62503 0.0
C752 C 0.30945 0.10758 0.61072 0.0
H753 H 0.18548 0.02717 0.58307 0.0
H754 H 0.22154 0.05566 0.59885 0.0
H755 H 0.28355 0.06447 0.60241 0.0
H756 H 0.42921 0.15269 0.62036 0.0
H757 H 0.37981 0.12279 0.6115 0.0
H758 H 0.29153 0.19193 0.60446 0.0
C759 C 0.22005 0.06654 0.58943 0.0
C760 C 0.28451 0.09231 0.60299 0.0
C761 C 0.19945 0.0502 0.58038 0.0
C762 C 0.40379 0.16347 0.62188 0.0
C763 C 0.37538 0.14613 0.61687 0.0
C764 C 0.28953 0.16409 0.60433 0.0
C765 C 0.23855 0.09655 0.58634 0.0
C766 C 0.26235 0.11276 0.59561 0.0
C767 C 0.34203 0.15985 0.6181 0.0
C768 C 0.31272 0.14364 0.61127 0.0
H769 H 0.21426 0.10436 0.55553 0.0
H770 H 0.2499 0.13286 0.57129 0.0
H771 H 0.24768 0.16529 0.59113 0.0
H772 H 0.36181 0.23188 0.63503 0.0
H773 H 0.31211 0.20145 0.62625 0.0
C774 C 0.20096 0.01724 0.80509 0.0
C775 C 0.21243 0.98667 0.81091 0.0
C776 C 0.18464 0.04294 0.81213 0.0
C777 C 0.17527 0.07804 0.84413 0.0
H778 H 0.09053 0.11701 0.83098 0.0
C779 C 0.08838 0.17046 0.87328 0.0
C780 C 0.06948 0.19568 0.86671 0.0
C781 C 0.10811 0.14618 0.86668 0.0
C782 C 0.1145 0.10696 0.83471 0.0
H783 H 0.2156 0.95951 0.82883 0.0
H784 H 0.18773 0.0049 0.84117 0.0
H785 H 0.12003 0.0721 0.81916 0.0
H786 H 0.05834 0.21666 0.84815 0.0
H787 H 0.09371 0.17536 0.8367 0.0
H788 H 0.17011 0.1133 0.85959 0.0
C789 C 0.1915 0.00876 0.83111 0.0
C790 C 0.13129 0.08101 0.82795 0.0
C791 C 0.20752 0.9828 0.82403 0.0
C792 C 0.07225 0.19727 0.85347 0.0
C793 C 0.09232 0.17335 0.84691 0.0
C794 C 0.15866 0.10434 0.85085 0.0
C795 C 0.17969 0.039 0.82521 0.0
C796 C 0.16185 0.06628 0.83257 0.0
C797 C 0.10974 0.14684 0.85338 0.0
C798 C 0.12804 0.11921 0.84622 0.0
H799 H 0.20502 0.02166 0.79509 0.0
H800 H 0.17628 0.06619 0.80735 0.0
H801 H 0.19899 0.06735 0.84786 0.0
H802 H 0.08663 0.1684 0.88348 0.0
H803 H 0.1209 0.12606 0.87201 0.0
C804 C 0.30295 0.97869 0.07751 0.0
C805 C 0.30611 0.9635 0.06548 0.0
C806 C 0.28281 0.96316 0.0869 0.0
C807 C 0.2408 0.88065 0.09586 0.0
H808 H 0.17658 0.93933 0.1139 0.0
C809 C 0.1011 0.86578 0.12061 0.0
C810 C 0.10569 0.83521 0.12756 0.0
C811 C 0.12935 0.88327 0.11554 0.0
C812 C 0.19447 0.92261 0.10898 0.0
H813 H 0.29053 0.91992 0.05397 0.0
H814 H 0.25568 0.89288 0.07032 0.0
H815 H 0.21927 0.96515 0.09984 0.0
H816 H 0.14391 0.80009 0.1352 0.0
H817 H 0.1934 0.83079 0.12632 0.0
H818 H 0.21499 0.83802 0.10455 0.0
C819 C 0.26919 0.91652 0.07257 0.0
C820 C 0.21915 0.93742 0.10101 0.0
C821 C 0.28922 0.93206 0.06318 0.0
C822 C 0.13943 0.82356 0.1299 0.0
C823 C 0.16777 0.84098 0.12473 0.0
C824 C 0.21619 0.86585 0.10386 0.0
C825 C 0.26545 0.93203 0.08451 0.0
C826 C 0.24205 0.91656 0.09411 0.0
C827 C 0.16296 0.87058 0.11724 0.0
C828 C 0.19219 0.88661 0.11027 0.0
H829 H 0.31603 0.00264 0.07966 0.0
H830 H 0.28078 0.97556 0.09605 0.0
H831 H 0.25839 0.86389 0.09081 0.0
H832 H 0.0755 0.87566 0.1187 0.0
H833 H 0.12464 0.90579 0.10974 0.0
C834 C 0.28905 0.04167 0.32484 0.0
C835 C 0.29338 0.04339 0.31164 0.0
C836 C 0.30551 0.01598 0.33192 0.0
C837 C 0.37891 0.9554 0.3305 0.0
H838 H 0.33112 0.90729 0.35748 0.0
C839 C 0.43864 0.83627 0.35365 0.0
C840 C 0.43765 0.83423 0.36692 0.0
C841 C 0.41861 0.86042 0.3472 0.0
C842 C 0.3449 0.92071 0.35005 0.0
H843 H 0.31772 0.01878 0.29553 0.0
H844 H 0.34644 0.97427 0.30784 0.0
H845 H 0.30154 0.95296 0.34577 0.0
H846 H 0.41343 0.85496 0.38378 0.0
H847 H 0.37857 0.89747 0.37247 0.0
H848 H 0.42225 0.92348 0.33474 0.0
C849 C 0.33084 0.99312 0.31277 0.0
C850 C 0.32798 0.94689 0.34335 0.0
C851 C 0.31441 0.01873 0.3057 0.0
C852 C 0.41477 0.8558 0.37355 0.0
C853 C 0.39476 0.88016 0.36707 0.0
C854 C 0.39577 0.92934 0.33717 0.0
C855 C 0.3267 0.99146 0.32597 0.0
C856 C 0.34473 0.96435 0.33342 0.0
C857 C 0.39717 0.88334 0.35383 0.0
C858 C 0.37892 0.91142 0.34695 0.0
H859 H 0.27329 0.06046 0.32973 0.0
H860 H 0.30209 0.01567 0.34209 0.0
H861 H 0.39284 0.9688 0.32309 0.0
H862 H 0.45561 0.81976 0.34822 0.0
H863 H 0.42042 0.86155 0.33698 0.0
C864 C 0.80832 0.10845 0.56615 0.0
C865 C 0.79689 0.08082 0.55865 0.0
C866 C 0.78792 0.12092 0.57606 0.0
C867 C 0.71273 0.09851 0.59631 0.0
H868 H 0.7029 0.19757 0.59938 0.0
C869 C 0.59556 0.16419 0.61934 0.0
C870 C 0.60037 0.19508 0.62607 0.0
C871 C 0.6233 0.14805 0.61337 0.0
C872 C 0.70583 0.16986 0.59883 0.0
H873 H 0.75496 0.04477 0.55564 0.0
H874 H 0.71936 0.06659 0.5728 0.0
H875 H 0.74434 0.17391 0.58443 0.0
H876 H 0.63862 0.23214 0.63236 0.0
H877 H 0.68707 0.20382 0.62191 0.0
H878 H 0.67331 0.09456 0.61043 0.0
C879 C 0.74439 0.0782 0.57123 0.0
C880 C 0.72959 0.15627 0.59024 0.0
C881 C 0.76479 0.06572 0.56137 0.0
C882 C 0.63394 0.20841 0.62725 0.0
C883 C 0.66169 0.19235 0.62119 0.0
C884 C 0.68888 0.11211 0.60487 0.0
C885 C 0.7556 0.10607 0.57866 0.0
C886 C 0.73284 0.12043 0.58869 0.0
C887 C 0.6565 0.16247 0.61392 0.0
C888 C 0.6847 0.14793 0.60605 0.0
H889 H 0.83314 0.12034 0.56441 0.0
H890 H 0.79751 0.14214 0.5817 0.0
H891 H 0.71506 0.07078 0.59553 0.0
H892 H 0.57012 0.15305 0.6183 0.0
H893 H 0.61835 0.12521 0.60777 0.0
C894 C 0.68329 0.04367 0.31215 0.0
C895 C 0.71317 0.06193 0.3156 0.0
C896 C 0.66598 0.02315 0.32097 0.0
C897 C 0.62476 0.99472 0.34311 0.0
H898 H 0.68015 0.93271 0.36349 0.0
C899 C 0.5625 0.89666 0.37729 0.0
C900 C 0.57461 0.86273 0.37581 0.0
C901 C 0.58046 0.92436 0.37193 0.0
C902 C 0.66435 0.94998 0.3579 0.0
H903 H 0.74755 0.07372 0.33119 0.0
H904 H 0.71751 0.03751 0.34655 0.0
H905 H 0.70843 0.9751 0.34992 0.0
H906 H 0.61623 0.83162 0.3682 0.0
H907 H 0.64741 0.87976 0.35893 0.0
H908 H 0.58071 0.96876 0.35074 0.0
C909 C 0.70772 0.03889 0.33696 0.0
C910 C 0.68052 0.97445 0.35021 0.0
C911 C 0.72497 0.05956 0.32815 0.0
C912 C 0.60601 0.85737 0.36946 0.0
C913 C 0.62406 0.88503 0.36421 0.0
C914 C 0.60858 0.97038 0.35085 0.0
C915 C 0.67818 0.02025 0.33344 0.0
C916 C 0.66092 0.99663 0.34253 0.0
C917 C 0.61108 0.91873 0.36511 0.0
C918 C 0.62821 0.94727 0.35814 0.0
H919 H 0.67378 0.04438 0.30253 0.0
H920 H 0.64362 0.00868 0.3179 0.0
H921 H 0.60895 0.01171 0.33742 0.0
H922 H 0.5384 0.90173 0.38212 0.0
H923 H 0.57002 0.95011 0.3729 0.0
C924 C 0.7214 0.90744 0.05355 0.0
C925 C 0.70252 0.93796 0.0554 0.0
C926 C 0.74273 0.89451 0.06307 0.0
C927 C 0.79223 0.92146 0.0909 0.0
H928 H 0.79932 0.82302 0.09671 0.0
C929 C 0.91071 0.85695 0.11375 0.0
C930 C 0.9058 0.82801 0.12158 0.0
C931 C 0.8828 0.8724 0.10762 0.0
C932 C 0.79735 0.85062 0.09536 0.0
H933 H 0.69076 0.97834 0.06892 0.0
H934 H 0.72841 0.95588 0.08552 0.0
H935 H 0.7555 0.84514 0.08232 0.0
H936 H 0.86718 0.79374 0.12954 0.0
H937 H 0.81852 0.82086 0.11884 0.0
H938 H 0.83443 0.92687 0.10382 0.0
C939 C 0.72679 0.94215 0.07662 0.0
C940 C 0.77249 0.86326 0.08699 0.0
C941 C 0.70528 0.95504 0.0671 0.0
C942 C 0.87202 0.8159 0.12356 0.0
C943 C 0.84411 0.83129 0.11736 0.0
C944 C 0.81723 0.9088 0.09923 0.0
C945 C 0.74587 0.91181 0.07469 0.0
C946 C 0.77005 0.89876 0.08449 0.0
C947 C 0.84928 0.85927 0.10912 0.0
C948 C 0.82045 0.87318 0.10139 0.0
H949 H 0.72051 0.89397 0.04459 0.0
H950 H 0.75756 0.87143 0.06119 0.0
H951 H 0.79115 0.94894 0.08912 0.0
H952 H 0.93628 0.86715 0.11204 0.0
H953 H 0.88776 0.89372 0.10126 0.0
C954 C 0.7986 1.00121 0.81273 0.0
C955 C 0.79252 0.96661 0.81593 0.0
C956 C 0.81421 0.02345 0.82137 0.0
C957 C 0.87328 0.02938 0.84747 0.0
H958 H 0.82563 0.11475 0.85505 0.0
C959 C 0.93534 0.13588 0.87869 0.0
C960 C 0.93105 0.16977 0.8742 0.0
C961 C 0.9161 0.10869 0.87352 0.0
C962 C 0.83948 0.09119 0.85298 0.0
H963 H 0.79864 0.92785 0.83051 0.0
H964 H 0.82717 0.96684 0.84559 0.0
H965 H 0.79781 0.07159 0.84181 0.0
H966 H 0.90233 0.20145 0.8609 0.0
H967 H 0.87 0.15461 0.85182 0.0
H968 H 0.91581 0.0497 0.85802 0.0
C969 C 0.81936 0.97663 0.83643 0.0
C970 C 0.8234 0.06643 0.84545 0.0
C971 C 0.80302 0.95446 0.82785 0.0
C972 C 0.90646 0.17584 0.86468 0.0
C973 C 0.88753 0.14882 0.8595 0.0
C974 C 0.8897 0.05448 0.85485 0.0
C975 C 0.82461 0.01142 0.8333 0.0
C976 C 0.84041 0.03565 0.84241 0.0
C977 C 0.89221 0.11481 0.86374 0.0
C978 C 0.87331 0.0861 0.85743 0.0
H979 H 0.79049 0.01129 0.80364 0.0
H980 H 0.81822 0.05014 0.81872 0.0
H981 H 0.8869 0.0058 0.84522 0.0
H982 H 0.95397 0.13021 0.88603 0.0
H983 H 0.92013 0.08288 0.87713 0.0
C984 C 0.76521 0.92346 0.49055 0.0
C985 C 0.78734 0.94703 0.48455 0.0
C986 C 0.74027 0.90561 0.4836 0.0
C987 C 0.69183 0.91134 0.45344 0.0
H988 H 0.66365 0.81828 0.46195 0.0
C989 C 0.59382 0.83556 0.42334 0.0
C990 C 0.567 0.81926 0.43001 0.0
C991 C 0.62221 0.84914 0.42976 0.0
C992 C 0.67116 0.84434 0.45952 0.0
H993 H 0.80187 0.96915 0.4665 0.0
H994 H 0.75902 0.93742 0.4543 0.0
H995 H 0.71133 0.84506 0.4734 0.0
H996 H 0.5496 0.80347 0.44864 0.0
H997 H 0.59937 0.8271 0.45984 0.0
H998 H 0.65181 0.91048 0.43951 0.0
C999 C 0.76014 0.93341 0.46443 0.0
C1000 C 0.69842 0.85975 0.46609 0.0
C1001 C 0.78483 0.95149 0.4714 0.0
C1002 C 0.56966 0.81612 0.44323 0.0
C1003 C 0.59828 0.8294 0.44963 0.0
C1004 C 0.66484 0.89584 0.44681 0.0
C1005 C 0.73709 0.9107 0.47046 0.0
C1006 C 0.709 0.89356 0.46318 0.0
C1007 C 0.62465 0.84641 0.44298 0.0
C1008 C 0.65407 0.86226 0.44982 0.0
H1009 H 0.76632 0.91979 0.5007 0.0
H1010 H 0.72273 0.88873 0.48861 0.0
H1011 H 0.69868 0.93764 0.45109 0.0
H1012 H 0.59267 0.83835 0.41315 0.0
H1013 H 0.64232 0.86178 0.42436 0.0
C1014 C 0.84671 0.05487 0.22647 0.0
C1015 C 0.82232 0.04679 0.23583 0.0
C1016 C 0.85791 0.02969 0.21795 0.0
C1017 C 0.83855 0.94059 0.20632 0.0
H1018 H 0.93567 0.94115 0.19757 0.0
C1019 C 0.91238 0.82153 0.18783 0.0
C1020 C 0.93329 0.82637 0.17711 0.0
C1021 C 0.89702 0.84969 0.19382 0.0
C1022 C 0.90842 0.9409 0.19983 0.0
H1023 H 0.79028 0.00624 0.24358 0.0
H1024 H 0.81049 0.96202 0.22905 0.0
H1025 H 0.91187 0.98808 0.21013 0.0
H1026 H 0.95477 0.86451 0.16434 0.0
H1027 H 0.92849 0.91392 0.17506 0.0
H1028 H 0.83578 0.89238 0.19647 0.0
C1029 C 0.82034 0.98796 0.22796 0.0
C1030 C 0.89465 0.96789 0.20698 0.0
C1031 C 0.80877 0.01328 0.23634 0.0
C1032 C 0.9386 0.85998 0.17253 0.0
C1033 C 0.92374 0.88823 0.17869 0.0
C1034 C 0.85248 0.91334 0.19934 0.0
C1035 C 0.84541 0.99567 0.21874 0.0
C1036 C 0.85956 0.96799 0.21042 0.0
C1037 C 0.90276 0.88331 0.18937 0.0
C1038 C 0.88758 0.91312 0.19612 0.0
H1039 H 0.85733 0.08063 0.22582 0.0
H1040 H 0.87662 0.03689 0.21082 0.0
H1041 H 0.8113 0.94003 0.20853 0.0
H1042 H 0.90776 0.79594 0.19156 0.0
H1043 H 0.88121 0.84524 0.20211 0.0
C1044 C 0.7121 0.10191 0.9759 0.0
C1045 C 0.72202 0.07571 0.98433 0.0
C1046 C 0.73708 0.12071 0.96925 0.0
C1047 C 0.82699 0.14831 0.97047 0.0
H1048 H 0.8237 0.15068 0.93383 0.0
C1049 C 0.94505 0.18919 0.94128 0.0
C1050 C 0.94028 0.20644 0.92973 0.0
C1051 C 0.91693 0.17582 0.94791 0.0
C1052 C 0.82477 0.15094 0.94406 0.0
H1053 H 0.76552 0.04922 0.99272 0.0
H1054 H 0.80914 0.08263 0.98136 0.0
H1055 H 0.77671 0.12382 0.94564 0.0
H1056 H 0.9021 0.22376 0.91618 0.0
H1057 H 0.85276 0.20143 0.92796 0.0
H1058 H 0.87451 0.17582 0.96906 0.0
C1059 C 0.78215 0.08838 0.97978 0.0
C1060 C 0.79786 0.13541 0.9508 0.0
C1061 C 0.75725 0.06917 0.98621 0.0
C1062 C 0.90664 0.21029 0.92501 0.0
C1063 C 0.87836 0.19734 0.93175 0.0
C1064 C 0.85358 0.16432 0.96376 0.0
C1065 C 0.77234 0.11412 0.97116 0.0
C1066 C 0.79907 0.13338 0.96405 0.0
C1067 C 0.88313 0.17983 0.94329 0.0
C1068 C 0.85327 0.16523 0.95044 0.0
H1069 H 0.68507 0.10732 0.97427 0.0
H1070 H 0.7289 0.14052 0.96268 0.0
H1071 H 0.8283 0.14746 0.9807 0.0
H1072 H 0.97066 0.1855 0.94514 0.0
H1073 H 0.92188 0.16181 0.95658 0.0
C1074 C 0.68463 0.01244 0.73905 0.0
C1075 C 0.66482 0.98285 0.74131 0.0
C1076 C 0.6724 0.03839 0.73104 0.0
C1077 C 0.59077 0.06984 0.71607 0.0
H1078 H 0.6539 0.12942 0.69785 0.0
C1079 C 0.55075 0.17182 0.67829 0.0
C1080 C 0.56115 0.2055 0.68134 0.0
C1081 C 0.56322 0.14369 0.6852 0.0
C1082 C 0.63606 0.11292 0.7029 0.0
H1083 H 0.61748 0.95628 0.73669 0.0
H1084 H 0.59685 1.00044 0.7221 0.0
H1085 H 0.67649 0.08089 0.70995 0.0
H1086 H 0.59288 0.23625 0.69386 0.0
H1087 H 0.61574 0.18679 0.70564 0.0
H1088 H 0.55034 0.10153 0.70851 0.0
C1089 C 0.62118 0.00459 0.72686 0.0
C1090 C 0.64893 0.08522 0.70994 0.0
C1091 C 0.6331 0.97904 0.73511 0.0
C1092 C 0.58444 0.21054 0.69134 0.0
C1093 C 0.59759 0.18235 0.69802 0.0
C1094 C 0.57791 0.09707 0.70879 0.0
C1095 C 0.64034 0.03501 0.72488 0.0
C1096 C 0.62652 0.06348 0.71678 0.0
C1097 C 0.58695 0.14874 0.69504 0.0
C1098 C 0.60048 0.11905 0.70228 0.0
H1099 H 0.70902 0.01607 0.74387 0.0
H1100 H 0.68773 0.06153 0.73002 0.0
H1101 H 0.57259 0.05436 0.72136 0.0
H1102 H 0.53256 0.1673 0.67069 0.0
H1103 H 0.55467 0.11796 0.68276 0.0
C1104 C 0.75303 0.43448 0.99284 0.0
C1105 C 0.72345 0.44767 0.98686 0.0
C1106 C 0.77891 0.41832 0.98583 0.0
C1107 C 0.79739 0.37661 0.95506 0.0
H1108 H 0.89215 0.39793 0.96374 0.0
C1109 C 0.91381 0.33468 0.92416 0.0
C1110 C 0.94353 0.32323 0.93054 0.0
C1111 C 0.88622 0.34906 0.93087 0.0
C1112 C 0.86586 0.39135 0.96128 0.0
H1113 H 0.69763 0.45337 0.96879 0.0
H1114 H 0.74316 0.42562 0.9565 0.0
H1115 H 0.84539 0.42416 0.97568 0.0
H1116 H 0.96704 0.31733 0.94905 0.0
H1117 H 0.91897 0.3421 0.96069 0.0
H1118 H 0.81804 0.34383 0.94061 0.0
C1119 C 0.74614 0.42756 0.96666 0.0
C1120 C 0.83901 0.4064 0.96813 0.0
C1121 C 0.7202 0.44378 0.97369 0.0
C1122 C 0.94475 0.32612 0.94379 0.0
C1123 C 0.91721 0.3405 0.95048 0.0
C1124 C 0.82431 0.36153 0.94819 0.0
C1125 C 0.776 0.41497 0.97263 0.0
C1126 C 0.80443 0.3991 0.96517 0.0
C1127 C 0.88769 0.35237 0.9441 0.0
C1128 C 0.85889 0.3686 0.95126 0.0
H1129 H 0.75668 0.43738 0.00294 0.0
H1130 H 0.80131 0.4085 0.99077 0.0
H1131 H 0.77107 0.37014 0.95261 0.0
H1132 H 0.91192 0.33284 0.91396 0.0
H1133 H 0.86401 0.35823 0.92565 0.0
C1134 C 0.81513 0.47042 0.21988 0.0
C1135 C 0.78775 0.47504 0.22842 0.0
C1136 C 0.82094 0.49416 0.21017 0.0
C1137 C 0.80739 0.58538 0.20276 0.0
H1138 H 0.84609 0.55876 0.1704 0.0
C1139 C 0.87059 0.68604 0.17004 0.0
C1140 C 0.90452 0.67658 0.16702 0.0
C1141 C 0.84741 0.66126 0.17467 0.0
C1142 C 0.83508 0.56664 0.17936 0.0
H1143 H 0.74431 0.50772 0.23318 0.0
H1144 H 0.75431 0.5491 0.21613 0.0
H1145 H 0.82187 0.51478 0.18434 0.0
H1146 H 0.94019 0.63391 0.16546 0.0
H1147 H 0.89998 0.59083 0.17324 0.0
H1148 H 0.82201 0.637 0.19804 0.0
C1149 C 0.77142 0.52718 0.21702 0.0
C1150 C 0.82133 0.54144 0.18736 0.0
C1151 C 0.76552 0.5033 0.22672 0.0
C1152 C 0.91411 0.64178 0.16773 0.0
C1153 C 0.89096 0.61707 0.17214 0.0
C1154 C 0.82114 0.61059 0.19475 0.0
C1155 C 0.79955 0.52318 0.20876 0.0
C1156 C 0.80847 0.55035 0.19936 0.0
C1157 C 0.85775 0.62667 0.17611 0.0
C1158 C 0.8363 0.60133 0.18316 0.0
H1159 H 0.8325 0.44872 0.22085 0.0
H1160 H 0.8431 0.49045 0.20409 0.0
H1161 H 0.79794 0.59315 0.21197 0.0
H1162 H 0.86276 0.71282 0.16965 0.0
H1163 H 0.8219 0.66937 0.17758 0.0
C1164 C 0.7768 0.59076 0.48128 0.0
C1165 C 0.78535 0.60967 0.49221 0.0
C1166 C 0.75144 0.60265 0.47294 0.0
C1167 C 0.70514 0.67976 0.46225 0.0
H1168 H 0.63103 0.61655 0.45394 0.0
C1169 C 0.59704 0.71005 0.42577 0.0
C1170 C 0.56329 0.70469 0.43022 0.0
C1171 C 0.62541 0.69852 0.43277 0.0
C1172 C 0.65161 0.63443 0.45617 0.0
H1173 H 0.77389 0.65645 0.50269 0.0
H1174 H 0.73071 0.67759 0.48788 0.0
H1175 H 0.67929 0.59673 0.46697 0.0
H1176 H 0.53284 0.68271 0.44542 0.0
H1177 H 0.58239 0.66179 0.45747 0.0
H1178 H 0.67738 0.71746 0.45143 0.0
C1179 C 0.74368 0.6535 0.48584 0.0
C1180 C 0.6793 0.62304 0.46353 0.0
C1181 C 0.76862 0.64138 0.4943 0.0
C1182 C 0.55851 0.68723 0.44174 0.0
C1183 C 0.58683 0.67513 0.44861 0.0
C1184 C 0.67772 0.69098 0.45469 0.0
C1185 C 0.73445 0.634 0.47519 0.0
C1186 C 0.70616 0.64569 0.46677 0.0
C1187 C 0.62056 0.68082 0.44423 0.0
C1188 C 0.6505 0.66852 0.4517 0.0
H1189 H 0.78954 0.56663 0.47917 0.0
H1190 H 0.7451 0.5873 0.46471 0.0
H1191 H 0.72558 0.6977 0.46457 0.0
H1192 H 0.60154 0.72368 0.41697 0.0
H1193 H 0.65115 0.70314 0.42917 0.0
C1194 C 0.74483 0.52421 0.72682 0.0
C1195 C 0.72444 0.55413 0.72745 0.0
C1196 C 0.73895 0.49946 0.71743 0.0
C1197 C 0.69171 0.48373 0.68718 0.0
H1198 H 0.68301 0.39054 0.70006 0.0
C1199 C 0.59315 0.3869 0.66897 0.0
C1200 C 0.60075 0.35156 0.6688 0.0
C1201 C 0.61748 0.41068 0.6732 0.0
C1202 C 0.68611 0.41621 0.69619 0.0
H1203 H 0.68346 0.58256 0.71821 0.0
H1204 H 0.67278 0.53937 0.70203 0.0
H1205 H 0.70904 0.43489 0.71325 0.0
H1206 H 0.6402 0.31329 0.6723 0.0
H1207 H 0.68301 0.35512 0.67999 0.0
H1208 H 0.66692 0.46531 0.67039 0.0
C1209 C 0.6935 0.53495 0.7087 0.0
C1210 C 0.70103 0.44172 0.70376 0.0
C1211 C 0.69933 0.5596 0.71808 0.0
C1212 C 0.63388 0.34048 0.67228 0.0
C1213 C 0.65819 0.36435 0.67675 0.0
C1214 C 0.67668 0.45826 0.67964 0.0
C1215 C 0.71266 0.50417 0.70843 0.0
C1216 C 0.70286 0.47607 0.69953 0.0
C1217 C 0.64986 0.39962 0.67754 0.0
C1218 C 0.67257 0.4245 0.68424 0.0
H1219 H 0.76426 0.51911 0.73393 0.0
H1220 H 0.75443 0.47624 0.71741 0.0
H1221 H 0.69341 0.50975 0.68352 0.0
H1222 H 0.56776 0.39604 0.66631 0.0
H1223 H 0.61004 0.43753 0.67381 0.0
C1224 C 0.74587 0.55564 0.06277 0.0
C1225 C 0.72224 0.57885 0.05737 0.0
C1226 C 0.77203 0.56749 0.0708 0.0
C1227 C 0.82092 0.64702 0.07743 0.0
H1228 H 0.85486 0.59687 0.10662 0.0
C1229 C 0.91541 0.67534 0.12236 0.0
C1230 C 0.94089 0.69445 0.11599 0.0
C1231 C 0.89054 0.6569 0.11554 0.0
C1232 C 0.84559 0.61122 0.09852 0.0
H1233 H 0.7061 0.63227 0.05679 0.0
H1234 H 0.75122 0.65289 0.07091 0.0
H1235 H 0.8055 0.57453 0.09476 0.0
H1236 H 0.96214 0.70665 0.09755 0.0
H1237 H 0.91958 0.67378 0.08572 0.0
H1238 H 0.86009 0.68414 0.08128 0.0
C1239 C 0.75026 0.62567 0.06869 0.0
C1240 C 0.81748 0.59828 0.09167 0.0
C1241 C 0.72431 0.61387 0.06063 0.0
C1242 C 0.94256 0.69258 0.10273 0.0
C1243 C 0.91798 0.67395 0.09595 0.0
C1244 C 0.84886 0.6599 0.08425 0.0
C1245 C 0.77499 0.6028 0.07362 0.0
C1246 C 0.80472 0.61616 0.08107 0.0
C1247 C 0.89085 0.65702 0.10223 0.0
C1248 C 0.86165 0.6422 0.09487 0.0
H1249 H 0.74509 0.52853 0.06035 0.0
H1250 H 0.79075 0.5492 0.07435 0.0
H1251 H 0.81221 0.66121 0.06921 0.0
H1252 H 0.91334 0.67635 0.13258 0.0
H1253 H 0.87 0.64422 0.12069 0.0
C1254 C 0.65909 0.47583 0.30734 0.0
C1255 C 0.69003 0.45976 0.31094 0.0
C1256 C 0.64117 0.49662 0.31589 0.0
C1257 C 0.63195 0.52018 0.34965 0.0
H1258 H 0.60954 0.61036 0.33613 0.0
C1259 C 0.55543 0.62886 0.37609 0.0
C1260 C 0.56867 0.66239 0.37453 0.0
C1261 C 0.57014 0.60104 0.36958 0.0
C1262 C 0.61569 0.58529 0.34005 0.0
H1263 H 0.72527 0.45107 0.32653 0.0
H1264 H 0.694 0.48755 0.34146 0.0
H1265 H 0.63288 0.56633 0.32217 0.0
H1266 H 0.60959 0.69229 0.36575 0.0
H1267 H 0.63488 0.64401 0.35449 0.0
H1268 H 0.61496 0.53969 0.36763 0.0
C1269 C 0.68364 0.48408 0.33204 0.0
C1270 C 0.62868 0.55995 0.33203 0.0
C1271 C 0.70171 0.46349 0.32346 0.0
C1272 C 0.59829 0.667 0.36703 0.0
C1273 C 0.61278 0.63935 0.36053 0.0
C1274 C 0.61852 0.54554 0.3577 0.0
C1275 C 0.65367 0.50157 0.32825 0.0
C1276 C 0.63732 0.52724 0.33674 0.0
C1277 C 0.59819 0.60635 0.36139 0.0
C1278 C 0.61082 0.57852 0.35299 0.0
H1279 H 0.64953 0.47356 0.29775 0.0
H1280 H 0.61794 0.50954 0.31275 0.0
H1281 H 0.63827 0.49511 0.35353 0.0
H1282 H 0.53266 0.62436 0.38179 0.0
H1283 H 0.55847 0.57578 0.37043 0.0
C1284 C 0.77386 0.48546 0.57636 0.0
C1285 C 0.77999 0.47805 0.56353 0.0
C1286 C 0.74837 0.46771 0.58311 0.0
C1287 C 0.69569 0.38798 0.58238 0.0
H1288 H 0.63662 0.43761 0.6057 0.0
C1289 C 0.57562 0.32431 0.60391 0.0
C1290 C 0.57023 0.32866 0.61696 0.0
C1291 C 0.6 0.34422 0.59749 0.0
C1292 C 0.6531 0.42334 0.5993 0.0
H1293 H 0.76375 0.44636 0.54773 0.0
H1294 H 0.71941 0.4155 0.55946 0.0
H1295 H 0.68234 0.4683 0.59446 0.0
H1296 H 0.58543 0.35856 0.63339 0.0
H1297 H 0.62807 0.39331 0.62215 0.0
H1298 H 0.66649 0.34307 0.58716 0.0
C1299 C 0.73469 0.43461 0.56439 0.0
C1300 C 0.67936 0.4409 0.59288 0.0
C1301 C 0.76018 0.45229 0.55765 0.0
C1302 C 0.58881 0.35454 0.62333 0.0
C1303 C 0.61326 0.37451 0.61688 0.0
C1304 C 0.66944 0.37048 0.58876 0.0
C1305 C 0.72837 0.44214 0.5772 0.0
C1306 C 0.70089 0.42345 0.58429 0.0
C1307 C 0.61967 0.36903 0.60394 0.0
C1308 C 0.64768 0.38795 0.59725 0.0
H1309 H 0.78893 0.50486 0.58121 0.0
H1310 H 0.74458 0.47381 0.59301 0.0
H1311 H 0.71217 0.37355 0.57603 0.0
H1312 H 0.56162 0.30486 0.59866 0.0
H1313 H 0.60376 0.33985 0.58746 0.0
C1314 C 0.84034 0.55795 0.81195 0.0
C1315 C 0.80444 0.56336 0.81244 0.0
C1316 C 0.85685 0.53796 0.82116 0.0
C1317 C 0.84226 0.46408 0.84041 0.0
H1318 H 0.91916 0.49302 0.86126 0.0
C1319 C 0.90403 0.3678 0.87458 0.0
C1320 C 0.93992 0.36899 0.87598 0.0
C1321 C 0.88648 0.39501 0.8688 0.0
C1322 C 0.89802 0.48429 0.85541 0.0
H1323 H 0.75834 0.55351 0.82358 0.0
H1324 H 0.78702 0.51725 0.83918 0.0
H1325 H 0.89179 0.5343 0.84694 0.0
H1326 H 0.98575 0.39957 0.8728 0.0
H1327 H 0.95563 0.4463 0.86208 0.0
H1328 H 0.84928 0.41381 0.84804 0.0
C1329 C 0.80219 0.52867 0.83166 0.0
C1330 C 0.88227 0.50806 0.84728 0.0
C1331 C 0.78579 0.54917 0.82262 0.0
C1332 C 0.95793 0.39835 0.87195 0.0
C1333 C 0.94053 0.42519 0.86583 0.0
C1334 C 0.85841 0.44015 0.84828 0.0
C1335 C 0.83774 0.52257 0.83092 0.0
C1336 C 0.85425 0.49809 0.83975 0.0
C1337 C 0.90461 0.4235 0.86386 0.0
C1338 C 0.88654 0.44982 0.85593 0.0
H1339 H 0.85558 0.56804 0.80421 0.0
H1340 H 0.8843 0.53332 0.82037 0.0
H1341 H 0.82092 0.45574 0.83455 0.0
H1342 H 0.88963 0.34541 0.8777 0.0
H1343 H 0.85875 0.39314 0.86792 0.0
C1344 C 0.29811 0.57873 0.07343 0.0
C1345 C 0.28849 0.56149 0.06233 0.0
C1346 C 0.27297 0.59344 0.08126 0.0
C1347 C 0.17738 0.59301 0.087 0.0
H1348 H 0.19749 0.67651 0.1057 0.0
C1349 C 0.07601 0.6881 0.10727 0.0
C1350 C 0.07996 0.69728 0.12003 0.0
C1351 C 0.10081 0.66779 0.10124 0.0
C1352 C 0.1917 0.65298 0.10062 0.0
H1353 H 0.24563 0.54686 0.05042 0.0
H1354 H 0.20193 0.57402 0.06358 0.0
H1355 H 0.24244 0.65006 0.09284 0.0
H1356 H 0.1126 0.69227 0.13655 0.0
H1357 H 0.15662 0.65741 0.12586 0.0
H1358 H 0.12593 0.59745 0.0943 0.0
C1359 C 0.22851 0.5751 0.06667 0.0
C1360 C 0.21748 0.63764 0.09328 0.0
C1361 C 0.25354 0.55981 0.05902 0.0
C1362 C 0.10872 0.68509 0.12676 0.0
C1363 C 0.13399 0.66548 0.12063 0.0
C1364 C 0.15144 0.60881 0.09412 0.0
C1365 C 0.23773 0.5918 0.078 0.0
C1366 C 0.21066 0.60753 0.08627 0.0
C1367 C 0.13041 0.65704 0.10778 0.0
C1368 C 0.15835 0.63898 0.10094 0.0
H1369 H 0.32497 0.5801 0.07618 0.0
H1370 H 0.28121 0.60554 0.08997 0.0
H1371 H 0.17118 0.5694 0.08206 0.0
H1372 H 0.0541 0.6973 0.10188 0.0
H1373 H 0.0976 0.66173 0.09131 0.0
C1374 C 0.17396 0.55949 0.82006 0.0
C1375 C 0.18719 0.55119 0.8081 0.0
C1376 C 0.16469 0.53338 0.82856 0.0
C1377 C 0.17068 0.43741 0.83365 0.0
H1378 H 0.09154 0.45371 0.85523 0.0
C1379 C 0.07938 0.33373 0.8551 0.0
C1380 C 0.07336 0.336 0.86818 0.0
C1381 C 0.09905 0.35881 0.84891 0.0
C1382 C 0.11393 0.44898 0.84935 0.0
H1383 H 0.20085 0.5094 0.79553 0.0
H1384 H 0.18311 0.46392 0.80995 0.0
H1385 H 0.11372 0.50033 0.84214 0.0
H1386 H 0.08387 0.36575 0.88511 0.0
H1387 H 0.11733 0.4103 0.87415 0.0
H1388 H 0.16893 0.38516 0.84035 0.0
C1389 C 0.18113 0.49034 0.81314 0.0
C1390 C 0.12688 0.47576 0.84188 0.0
C1391 C 0.19111 0.51642 0.80479 0.0
C1392 C 0.08839 0.36316 0.87504 0.0
C1393 C 0.10732 0.38873 0.86878 0.0
C1394 C 0.15716 0.41043 0.84091 0.0
C1395 C 0.1676 0.49835 0.82515 0.0
C1396 C 0.15528 0.47035 0.8338 0.0
C1397 C 0.1123 0.38702 0.85565 0.0
C1398 C 0.12856 0.41597 0.84875 0.0
H1399 H 0.1709 0.58618 0.82284 0.0
H1400 H 0.15516 0.5408 0.83779 0.0
H1401 H 0.19307 0.43224 0.82784 0.0
H1402 H 0.06802 0.3131 0.8496 0.0
H1403 H 0.10243 0.3571 0.83876 0.0
C1404 C 0.21793 0.46023 0.57051 0.0
C1405 C 0.214 0.44637 0.55831 0.0
C1406 C 0.24405 0.44816 0.57856 0.0
C1407 C 0.3015 0.37249 0.58275 0.0
H1408 H 0.35531 0.43273 0.60436 0.0
C1409 C 0.42684 0.32579 0.60457 0.0
C1410 C 0.43012 0.32902 0.61777 0.0
C1411 C 0.40136 0.3438 0.59804 0.0
C1412 C 0.34026 0.41565 0.59844 0.0
H1413 H 0.2355 0.41046 0.54474 0.0
H1414 H 0.281 0.38991 0.55857 0.0
H1415 H 0.3082 0.45672 0.59159 0.0
H1416 H 0.41061 0.35579 0.6343 0.0
H1417 H 0.36597 0.38771 0.62274 0.0
H1418 H 0.33381 0.33164 0.58933 0.0
C1419 C 0.26336 0.40919 0.56216 0.0
C1420 C 0.31324 0.42931 0.59116 0.0
C1421 C 0.23726 0.42101 0.55421 0.0
C1422 C 0.40877 0.35268 0.62414 0.0
C1423 C 0.3832 0.37093 0.61754 0.0
C1424 C 0.32852 0.35902 0.5899 0.0
C1425 C 0.26685 0.42217 0.57451 0.0
C1426 C 0.29396 0.40792 0.58304 0.0
C1427 C 0.37854 0.36566 0.6045 0.0
C1428 C 0.3486 0.38047 0.59764 0.0
H1429 H 0.20037 0.47983 0.57392 0.0
H1430 H 0.2459 0.45863 0.58802 0.0
H1431 H 0.28661 0.35504 0.57693 0.0
H1432 H 0.44311 0.30822 0.59931 0.0
H1433 H 0.39882 0.3398 0.58795 0.0
C1434 C 0.31312 0.48364 0.31757 0.0
C1435 C 0.32792 0.48203 0.30544 0.0
C1436 C 0.32117 0.51085 0.32577 0.0
C1437 C 0.35252 0.60027 0.32578 0.0
H1438 H 0.38467 0.58154 0.35982 0.0
C1439 C 0.43692 0.69528 0.35311 0.0
C1440 C 0.43526 0.69691 0.36638 0.0
C1441 C 0.41695 0.67164 0.34642 0.0
C1442 C 0.37502 0.58738 0.35045 0.0
H1443 H 0.36219 0.50789 0.29231 0.0
H1444 H 0.37606 0.55532 0.30654 0.0
H1445 H 0.36315 0.53433 0.34673 0.0
H1446 H 0.40977 0.67608 0.38298 0.0
H1447 H 0.37435 0.63489 0.37121 0.0
H1448 H 0.36459 0.65312 0.32936 0.0
C1449 C 0.35833 0.53558 0.30974 0.0
C1450 C 0.36283 0.56027 0.34294 0.0
C1451 C 0.35069 0.50822 0.30165 0.0
C1452 C 0.41168 0.67551 0.37276 0.0
C1453 C 0.39163 0.65168 0.36602 0.0
C1454 C 0.36436 0.62736 0.33331 0.0
C1455 C 0.34364 0.53724 0.32188 0.0
C1456 C 0.35242 0.56633 0.33041 0.0
C1457 C 0.39461 0.64896 0.35278 0.0
C1458 C 0.37678 0.62114 0.3456 0.0
H1459 H 0.29555 0.46373 0.32075 0.0
H1460 H 0.30946 0.51153 0.33507 0.0
H1461 H 0.34401 0.60577 0.31623 0.0
H1462 H 0.45467 0.71146 0.34787 0.0
H1463 H 0.42035 0.6701 0.33627 0.0
C1464 C 0.26107 0.44982 0.98795 0.0
C1465 C 0.28798 0.47312 0.98553 0.0
C1466 C 0.23559 0.44385 0.9789 0.0
C1467 C 0.1754 0.44987 0.96064 0.0
H1468 H 0.20567 0.42187 0.92724 0.0
C1469 C 0.08025 0.39117 0.92482 0.0
C1470 C 0.0912 0.35822 0.9211 0.0
C1471 C 0.10366 0.41414 0.9304 0.0
C1472 C 0.19677 0.43013 0.93647 0.0
H1473 H 0.30926 0.50866 0.97177 0.0
H1474 H 0.26483 0.49759 0.95573 0.0
H1475 H 0.24753 0.44521 0.94228 0.0
H1476 H 0.13527 0.32433 0.91931 0.0
H1477 H 0.17608 0.36442 0.92874 0.0
H1478 H 0.12501 0.43329 0.95508 0.0
C1479 C 0.26346 0.48419 0.9647 0.0
C1480 C 0.22068 0.44361 0.94505 0.0
C1481 C 0.28877 0.49057 0.97387 0.0
C1482 C 0.12622 0.34959 0.92215 0.0
C1483 C 0.14962 0.37265 0.92747 0.0
C1484 C 0.15145 0.43674 0.95203 0.0
C1485 C 0.23658 0.46079 0.96715 0.0
C1486 C 0.21044 0.45242 0.95737 0.0
C1487 C 0.13841 0.40468 0.93208 0.0
C1488 C 0.16211 0.42557 0.94001 0.0
H1489 H 0.25959 0.43631 0.99691 0.0
H1490 H 0.21547 0.42534 0.98099 0.0
H1491 H 0.16675 0.45683 0.97004 0.0
H1492 H 0.0533 0.39829 0.92417 0.0
H1493 H 0.09437 0.43873 0.93384 0.0
C1494 C 0.25247 0.52338 0.72766 0.0
C1495 C 0.26565 0.55713 0.72826 0.0
C1496 C 0.26684 0.49912 0.71942 0.0
C1497 C 0.34808 0.48103 0.70264 0.0
H1498 H 0.2943 0.4122 0.68479 0.0
C1499 C 0.41526 0.38773 0.66941 0.0
C1500 C 0.4072 0.35274 0.67092 0.0
C1501 C 0.39394 0.4131 0.67448 0.0
C1502 C 0.30963 0.43117 0.68977 0.0
H1503 H 0.30325 0.59223 0.72024 0.0
H1504 H 0.32819 0.55006 0.70582 0.0
H1505 H 0.26499 0.45617 0.69748 0.0
H1506 H 0.36971 0.31659 0.67823 0.0
H1507 H 0.33228 0.36118 0.68738 0.0
H1508 H 0.39265 0.45604 0.6952 0.0
C1509 C 0.30718 0.5421 0.7119 0.0
C1510 C 0.29288 0.45633 0.69704 0.0
C1511 C 0.29289 0.56631 0.72017 0.0
C1512 C 0.37618 0.34349 0.67685 0.0
C1513 C 0.35488 0.36902 0.6821 0.0
C1514 C 0.36473 0.45604 0.69541 0.0
C1515 C 0.29471 0.50804 0.71157 0.0
C1516 C 0.31196 0.48161 0.70355 0.0
C1517 C 0.36435 0.40405 0.6814 0.0
C1518 C 0.34579 0.43085 0.68883 0.0
H1519 H 0.23178 0.51534 0.73388 0.0
H1520 H 0.25688 0.47305 0.71952 0.0
H1521 H 0.36368 0.49948 0.70777 0.0
H1522 H 0.43903 0.39542 0.66481 0.0
H1523 H 0.4015 0.43983 0.67346 0.0
C1524 C 0.21386 0.53098 0.46991 0.0
C1525 C 0.21107 0.54453 0.48223 0.0
C1526 C 0.2388 0.5435 0.46149 0.0
C1527 C 0.29026 0.62059 0.45502 0.0
H1528 H 0.34858 0.56063 0.43489 0.0
C1529 C 0.37896 0.67861 0.41808 0.0
C1530 C 0.41381 0.6695 0.41926 0.0
C1531 C 0.35338 0.65878 0.42381 0.0
C1532 C 0.33242 0.57761 0.44044 0.0
H1533 H 0.23333 0.58128 0.49538 0.0
H1534 H 0.27596 0.60361 0.48061 0.0
H1535 H 0.30579 0.53553 0.44937 0.0
H1536 H 0.44931 0.63139 0.42656 0.0
H1537 H 0.40427 0.59634 0.43671 0.0
H1538 H 0.31674 0.66261 0.44631 0.0
C1539 C 0.25866 0.58346 0.47746 0.0
C1540 C 0.30784 0.5633 0.44866 0.0
C1541 C 0.23402 0.57077 0.4859 0.0
C1542 C 0.42252 0.63861 0.42539 0.0
C1543 C 0.39677 0.61871 0.43123 0.0
C1544 C 0.31441 0.63481 0.44675 0.0
C1545 C 0.26127 0.57008 0.46515 0.0
C1546 C 0.28672 0.58471 0.45611 0.0
C1547 C 0.36213 0.62959 0.43099 0.0
C1548 C 0.33582 0.61357 0.43937 0.0
H1549 H 0.19643 0.51105 0.46668 0.0
H1550 H 0.23998 0.53294 0.45202 0.0
H1551 H 0.2742 0.63776 0.46054 0.0
H1552 H 0.37169 0.70238 0.41339 0.0
H1553 H 0.32687 0.66742 0.42323 0.0
C1554 C 0.23995 0.47831 0.21837 0.0
C1555 C 0.22933 0.47441 0.23102 0.0
C1556 C 0.22545 0.50394 0.21069 0.0
C1557 C 0.14889 0.56082 0.20864 0.0
H1558 H 0.20533 0.61652 0.18622 0.0
C1559 C 0.09784 0.68697 0.18981 0.0
C1560 C 0.09741 0.69091 0.17662 0.0
C1561 C 0.11815 0.66173 0.19545 0.0
C1562 C 0.1893 0.6009 0.19236 0.0
H1563 H 0.19584 0.49501 0.24559 0.0
H1564 H 0.17079 0.53953 0.23232 0.0
H1565 H 0.23153 0.56862 0.198 0.0
H1566 H 0.11959 0.6733 0.15899 0.0
H1567 H 0.15574 0.62863 0.16897 0.0
H1568 H 0.10695 0.59337 0.2033 0.0
C1569 C 0.18968 0.52234 0.22819 0.0
C1570 C 0.20419 0.57346 0.19907 0.0
C1571 C 0.20403 0.49675 0.23582 0.0
C1572 C 0.11978 0.6709 0.1692 0.0
C1573 C 0.14025 0.64532 0.17489 0.0
C1574 C 0.13419 0.58821 0.20204 0.0
C1575 C 0.20007 0.52623 0.21551 0.0
C1576 C 0.18424 0.55355 0.2075 0.0
C1577 C 0.13838 0.63964 0.18803 0.0
C1578 C 0.15432 0.609 0.19405 0.0
H1579 H 0.25925 0.46135 0.21438 0.0
H1580 H 0.2338 0.506 0.20095 0.0
H1581 H 0.13252 0.54548 0.21474 0.0
H1582 H 0.08095 0.70227 0.19574 0.0
H1583 H 0.11677 0.65839 0.20562 0.0
loop_
_geom_bond_atom_site_label_1
_geom_bond_atom_site_label_2
_geom_bond_distance
_geom_bond_site_symmetry_2
_ccdc_geom_bond_type
H0 C27 0.929 . S
N1 C26 1.433 . S
N1 C32 1.435 1_545 S
N1 C38 1.423 1_545 S
H2 C28 0.930 . S
H3 C31 0.931 . S
H4 C30 0.929 . S
H5 C33 0.930 . S
H6 C34 0.922 1_545 S
H7 C37 0.929 . S
H8 C36 0.931 . S
H9 C39 0.929 . S
H10 C43 0.932 1_545 S
H11 C40 0.931 . S
H12 C42 0.929 . S
H13 C45 0.929 . S
H14 C46 0.930 . S
H15 C48 0.929 . S
H16 C49 0.931 . S
H17 C51 0.930 . S
H18 C52 0.922 1_545 S
H19 C54 0.931 . S
H20 C55 0.929 . S
H21 C57 0.929 . S
H22 C58 0.931 . S
H23 C60 0.929 . S
N24 C44 1.433 . S
N24 C50 1.435 1_545 S
N24 C56 1.423 1_545 S
H25 C61 0.932 1_545 S
C26 N1 1.433 . S
C26 C27 1.363 . S
C26 C31 1.370 . S
C27 H0 0.929 . S
C27 C26 1.363 . S
C27 C28 1.385 . S
C28 H2 0.930 . S
C28 C27 1.385 . S
C28 C29 1.357 . S
C29 C28 1.357 . S
C29 C30 1.406 . S
C30 H4 0.929 . S
C30 C29 1.406 . S
C30 C31 1.391 . S
C31 H3 0.931 . S
C31 C26 1.370 . S
C31 C30 1.391 . S
C32 N1 1.435 1_565 S
C32 C33 1.358 1_565 S
C32 C37 1.371 . S
C33 H5 0.930 . S
C33 C32 1.358 1_545 S
C33 C34 1.399 1_545 S
C34 H6 0.922 1_565 S
C34 C33 1.399 1_565 S
C34 C35 1.399 . S
C35 C34 1.399 . S
C35 C36 1.393 . S
C36 H8 0.931 . S
C36 C35 1.393 . S
C36 C37 1.382 . S
C37 H7 0.929 . S
C37 C32 1.371 . S
C37 C36 1.382 . S
C38 N1 1.423 1_565 S
C38 C39 1.362 . S
C38 C43 1.388 . S
C39 H9 0.929 . S
C39 C38 1.362 . S
C39 C40 1.376 . S
C40 H11 0.931 . S
C40 C39 1.376 . S
C40 C41 1.396 . S
C41 C40 1.396 . S
C41 C42 1.348 . S
C41 C59 1.472 1_655 S
C42 H12 0.929 . S
C42 C41 1.348 . S
C42 C43 1.443 . S
C43 H10 0.932 1_565 S
C43 C38 1.388 . S
C43 C42 1.443 . S
C44 N24 1.433 . S
C44 C45 1.363 . S
C44 C49 1.370 . S
C45 H13 0.929 . S
C45 C44 1.363 . S
C45 C46 1.385 . S
C46 H14 0.930 . S
C46 C45 1.385 . S
C46 C47 1.357 . S
C47 C46 1.357 . S
C47 C48 1.406 . S
C48 H15 0.929 . S
C48 C47 1.406 . S
C48 C49 1.391 . S
C49 H16 0.931 . S
C49 C44 1.370 . S
C49 C48 1.391 . S
C50 N24 1.435 1_565 S
C50 C51 1.358 1_565 S
C50 C55 1.371 . S
C51 H17 0.930 . S
C51 C50 1.358 1_545 S
C51 C52 1.399 1_545 S
C52 H18 0.922 1_565 S
C52 C51 1.399 1_565 S
C52 C53 1.399 . S
C53 C52 1.399 . S
C53 C54 1.393 . S
C54 H19 0.931 . S
C54 C53 1.393 . S
C54 C55 1.382 . S
C55 H20 0.929 . S
C55 C50 1.371 . S
C55 C54 1.382 . S
C56 N24 1.423 1_565 S
C56 C57 1.362 . S
C56 C61 1.388 . S
C57 H21 0.929 . S
C57 C56 1.362 . S
C57 C58 1.376 . S
C58 H22 0.931 . S
C58 C57 1.376 . S
C58 C59 1.396 . S
C59 C41 1.472 1_455 S
C59 C58 1.396 . S
C59 C60 1.348 . S
C60 H23 0.929 . S
C60 C59 1.348 . S
C60 C61 1.443 . S
C61 H25 0.932 1_565 S
C61 C56 1.388 . S
C61 C60 1.443 . S
H62 C89 0.929 . S
N63 C88 1.433 . S
N63 C94 1.435 . S
N63 C100 1.423 . S
H64 C90 0.930 . S
H65 C93 0.931 . S
H66 C92 0.929 . S
H67 C95 0.930 . S
H68 C96 0.932 . S
H69 C99 0.929 . S
H70 C98 0.931 . S
H71 C101 0.929 . S
H72 C105 0.932 . S
H73 C102 0.931 . S
H74 C104 0.929 . S
H75 C107 0.929 . S
H76 C108 0.930 . S
H77 C110 0.929 . S
H78 C111 0.931 . S
H79 C113 0.930 . S
H80 C114 0.932 . S
H81 C116 0.931 . S
H82 C117 0.929 . S
H83 C119 0.929 . S
H84 C120 0.931 . S
H85 C122 0.929 . S
N86 C106 1.433 . S
N86 C112 1.435 . S
N86 C118 1.423 . S
H87 C123 0.932 . S
C88 N63 1.433 . S
C88 C89 1.363 . S
C88 C93 1.370 . S
C89 H62 0.929 . S
C89 C88 1.363 . S
C89 C90 1.385 . S
C90 H64 0.930 . S
C90 C89 1.385 . S
C90 C91 1.357 . S
C91 C90 1.357 . S
C91 C92 1.406 . S
C92 H66 0.929 . S
C92 C91 1.406 . S
C92 C93 1.391 . S
C93 H65 0.931 . S
C93 C88 1.370 . S
C93 C92 1.391 . S
C94 N63 1.435 . S
C94 C95 1.358 . S
C94 C99 1.371 . S
C95 H67 0.930 . S
C95 C94 1.358 . S
C95 C96 1.405 . S
C96 H68 0.932 . S
C96 C95 1.405 . S
C96 C97 1.383 . S
C97 C96 1.383 . S
C97 C98 1.393 . S
C98 H70 0.931 . S
C98 C97 1.393 . S
C98 C99 1.382 . S
C99 H69 0.929 . S
C99 C94 1.371 . S
C99 C98 1.382 . S
C100 N63 1.423 . S
C100 C101 1.362 . S
C100 C105 1.388 . S
C101 H71 0.929 . S
C101 C100 1.362 . S
C101 C102 1.376 . S
C102 H73 0.931 . S
C102 C101 1.376 . S
C102 C103 1.396 . S
C103 C102 1.396 . S
C103 C104 1.348 . S
C103 C121 1.472 . S
C104 H74 0.929 . S
C104 C103 1.348 . S
C104 C105 1.443 . S
C105 H72 0.932 . S
C105 C100 1.388 . S
C105 C104 1.443 . S
C106 N86 1.433 . S
C106 C107 1.363 . S
C106 C111 1.370 . S
C107 H75 0.929 . S
C107 C106 1.363 . S
C107 C108 1.385 . S
C108 H76 0.930 . S
C108 C107 1.385 . S
C108 C109 1.357 . S
C109 C108 1.357 . S
C109 C110 1.406 . S
C110 H77 0.929 . S
C110 C109 1.406 . S
C110 C111 1.391 . S
C111 H78 0.931 . S
C111 C106 1.370 . S
C111 C110 1.391 . S
C112 N86 1.435 . S
C112 C113 1.358 . S
C112 C117 1.371 . S
C113 H79 0.930 . S
C113 C112 1.358 . S
C113 C114 1.405 . S
C114 H80 0.932 . S
C114 C113 1.405 . S
C114 C115 1.383 . S
C115 C114 1.383 . S
C115 C116 1.393 . S
C116 H81 0.931 . S
C116 C115 1.393 . S
C116 C117 1.382 . S
C117 H82 0.929 . S
C117 C112 1.371 . S
C117 C116 1.382 . S
C118 N86 1.423 . S
C118 C119 1.362 . S
C118 C123 1.388 . S
C119 H83 0.929 . S
C119 C118 1.362 . S
C119 C120 1.376 . S
C120 H84 0.931 . S
C120 C119 1.376 . S
C120 C121 1.396 . S
C121 C103 1.472 . S
C121 C120 1.396 . S
C121 C122 1.348 . S
C122 H85 0.929 . S
C122 C121 1.348 . S
C122 C123 1.443 . S
C123 H87 0.932 . S
C123 C118 1.388 . S
C123 C122 1.443 . S
H124 C151 0.929 . S
N125 C150 1.431 . S
N125 C156 1.435 . S
N125 C162 1.423 . S
H126 C152 0.930 . S
H127 C155 0.931 . S
H128 C154 0.929 . S
H129 C157 0.930 1_565 S
H130 C158 0.918 1_556 S
H131 C161 0.929 . S
H132 C160 0.908 1_556 S
H133 C163 0.929 . S
H134 C167 0.932 . S
H135 C164 0.931 . S
H136 C166 0.929 . S
H137 C169 0.929 . S
H138 C170 0.930 . S
H139 C172 0.929 . S
H140 C173 0.931 . S
H141 C175 0.930 1_565 S
H142 C176 0.918 1_556 S
H143 C178 0.908 1_556 S
H144 C179 0.929 . S
H145 C181 0.929 . S
H146 C182 0.931 . S
H147 C184 0.929 . S
N148 C168 1.431 . S
N148 C174 1.435 . S
N148 C180 1.423 . S
H149 C185 0.932 . S
C150 N125 1.431 . S
C150 C151 1.363 . S
C150 C155 1.372 1_545 S
C151 H124 0.929 . S
C151 C150 1.363 . S
C151 C152 1.385 1_545 S
C152 H126 0.930 . S
C152 C151 1.385 1_565 S
C152 C153 1.357 . S
C153 C152 1.357 . S
C153 C154 1.406 . S
C154 H128 0.929 . S
C154 C153 1.406 . S
C154 C155 1.391 . S
C155 H127 0.931 . S
C155 C150 1.372 1_565 S
C155 C154 1.391 . S
C156 N125 1.435 . S
C156 C157 1.358 . S
C156 C161 1.371 . S
C157 H129 0.930 1_545 S
C157 C156 1.358 . S
C157 C158 1.437 . S
C158 H130 0.918 1_554 S
C158 C157 1.437 . S
C158 C159 1.368 1_554 S
C159 C158 1.368 1_556 S
C159 C160 1.365 1_556 S
C160 H132 0.908 1_554 S
C160 C159 1.365 1_554 S
C160 C161 1.439 . S
C161 H131 0.929 . S
C161 C156 1.371 . S
C161 C160 1.439 . S
C162 N125 1.423 . S
C162 C163 1.362 . S
C162 C167 1.388 . S
C163 H133 0.929 . S
C163 C162 1.362 . S
C163 C164 1.376 . S
C164 H135 0.931 . S
C164 C163 1.376 . S
C164 C165 1.396 . S
C165 C164 1.396 . S
C165 C166 1.348 . S
C165 C183 1.472 . S
C166 H136 0.929 . S
C166 C165 1.348 . S
C166 C167 1.443 . S
C167 H134 0.932 . S
C167 C162 1.388 . S
C167 C166 1.443 . S
C168 N148 1.431 . S
C168 C169 1.363 . S
C168 C173 1.372 1_545 S
C169 H137 0.929 . S
C169 C168 1.363 . S
C169 C170 1.385 1_545 S
C170 H138 0.930 . S
C170 C169 1.385 1_565 S
C170 C171 1.357 . S
C171 C170 1.357 . S
C171 C172 1.406 . S
C172 H139 0.929 . S
C172 C171 1.406 . S
C172 C173 1.391 . S
C173 H140 0.931 . S
C173 C168 1.372 1_565 S
C173 C172 1.391 . S
C174 N148 1.435 . S
C174 C175 1.358 . S
C174 C179 1.371 . S
C175 H141 0.930 1_545 S
C175 C174 1.358 . S
C175 C176 1.437 . S
C176 H142 0.918 1_554 S
C176 C175 1.437 . S
C176 C177 1.368 1_554 S
C177 C176 1.368 1_556 S
C177 C178 1.365 1_556 S
C178 H143 0.908 1_554 S
C178 C177 1.365 1_554 S
C178 C179 1.439 . S
C179 H144 0.929 . S
C179 C174 1.371 . S
C179 C178 1.439 . S
C180 N148 1.423 . S
C180 C181 1.362 . S
C180 C185 1.388 . S
C181 H145 0.929 . S
C181 C180 1.362 . S
C181 C182 1.376 . S
C182 H146 0.931 . S
C182 C181 1.376 . S
C182 C183 1.396 . S
C183 C165 1.472 . S
C183 C182 1.396 . S
C183 C184 1.348 . S
C184 H147 0.929 . S
C184 C183 1.348 . S
C184 C185 1.443 . S
C185 H149 0.932 . S
C185 C180 1.388 . S
C185 C184 1.443 . S
H186 C213 0.929 . S
N187 C212 1.433 . S
N187 C218 1.435 . S
N187 C224 1.423 . S
H188 C214 0.930 . S
H189 C217 0.931 . S
H190 C216 0.929 . S
H191 C219 0.930 . S
H192 C220 0.932 . S
H193 C223 0.929 . S
H194 C222 0.931 . S
H195 C225 0.929 . S
H196 C229 0.932 . S
H197 C226 0.931 . S
H198 C228 0.929 . S
H199 C231 0.929 . S
H200 C232 0.930 . S
H201 C234 0.929 . S
H202 C235 0.931 . S
H203 C237 0.930 . S
H204 C238 0.932 . S
H205 C240 0.931 . S
H206 C241 0.929 . S
H207 C243 0.929 . S
H208 C244 0.931 . S
H209 C246 0.929 . S
N210 C230 1.433 . S
N210 C236 1.435 . S
N210 C242 1.423 . S
H211 C247 0.932 . S
C212 N187 1.433 . S
C212 C213 1.363 . S
C212 C217 1.370 . S
C213 H186 0.929 . S
C213 C212 1.363 . S
C213 C214 1.385 . S
C214 H188 0.930 . S
C214 C213 1.385 . S
C214 C215 1.357 . S
C215 C214 1.357 . S
C215 C216 1.406 . S
C216 H190 0.929 . S
C216 C215 1.406 . S
C216 C217 1.391 . S
C217 H189 0.931 . S
C217 C212 1.370 . S
C217 C216 1.391 . S
C218 N187 1.435 . S
C218 C219 1.358 . S
C218 C223 1.371 . S
C219 H191 0.930 . S
C219 C218 1.358 . S
C219 C220 1.405 . S
C220 H192 0.932 . S
C220 C219 1.405 . S
C220 C221 1.383 . S
C221 C220 1.383 . S
C221 C222 1.393 . S
C222 H194 0.931 . S
C222 C221 1.393 . S
C222 C223 1.382 . S
C223 H193 0.929 . S
C223 C218 1.371 . S
C223 C222 1.382 . S
C224 N187 1.423 . S
C224 C225 1.362 . S
C224 C229 1.388 . S
C225 H195 0.929 . S
C225 C224 1.362 . S
C225 C226 1.376 . S
C226 H197 0.931 . S
C226 C225 1.376 . S
C226 C227 1.396 . S
C227 C226 1.396 . S
C227 C228 1.348 . S
C227 C245 1.472 . S
C228 H198 0.929 . S
C228 C227 1.348 . S
C228 C229 1.443 . S
C229 H196 0.932 . S
C229 C224 1.388 . S
C229 C228 1.443 . S
C230 N210 1.433 . S
C230 C231 1.363 . S
C230 C235 1.370 . S
C231 H199 0.929 . S
C231 C230 1.363 . S
C231 C232 1.385 . S
C232 H200 0.930 . S
C232 C231 1.385 . S
C232 C233 1.357 . S
C233 C232 1.357 . S
C233 C234 1.406 . S
C234 H201 0.929 . S
C234 C233 1.406 . S
C234 C235 1.391 . S
C235 H202 0.931 . S
C235 C230 1.370 . S
C235 C234 1.391 . S
C236 N210 1.435 . S
C236 C237 1.358 . S
C236 C241 1.371 . S
C237 H203 0.930 . S
C237 C236 1.358 . S
C237 C238 1.405 . S
C238 H204 0.932 . S
C238 C237 1.405 . S
C238 C239 1.383 . S
C239 C238 1.383 . S
C239 C240 1.393 . S
C240 H205 0.931 . S
C240 C239 1.393 . S
C240 C241 1.382 . S
C241 H206 0.929 . S
C241 C236 1.371 . S
C241 C240 1.382 . S
C242 N210 1.423 . S
C242 C243 1.362 . S
C242 C247 1.388 . S
C243 H207 0.929 . S
C243 C242 1.362 . S
C243 C244 1.376 . S
C244 H208 0.931 . S
C244 C243 1.376 . S
C244 C245 1.396 . S
C245 C227 1.472 . S
C245 C244 1.396 . S
C245 C246 1.348 . S
C246 H209 0.929 . S
C246 C245 1.348 . S
C246 C247 1.443 . S
C247 H211 0.932 . S
C247 C242 1.388 . S
C247 C246 1.443 . S
H248 C275 0.929 . S
N249 C274 1.433 . S
N249 C280 1.435 . S
N249 C286 1.423 . S
H250 C276 0.930 . S
H251 C279 0.931 . S
H252 C278 0.929 . S
H253 C281 0.930 . S
H254 C282 0.932 . S
H255 C285 0.929 . S
H256 C284 0.931 . S
H257 C287 0.929 . S
H258 C291 0.932 . S
H259 C288 0.931 . S
H260 C290 0.929 . S
H261 C293 0.929 . S
H262 C294 0.930 . S
H263 C296 0.929 . S
H264 C297 0.931 . S
H265 C299 0.930 . S
H266 C300 0.932 . S
H267 C302 0.931 . S
H268 C303 0.929 . S
H269 C305 0.929 . S
H270 C306 0.931 . S
H271 C308 0.929 . S
N272 C292 1.433 . S
N272 C298 1.435 . S
N272 C304 1.423 . S
H273 C309 0.932 . S
C274 N249 1.433 . S
C274 C275 1.363 . S
C274 C279 1.370 . S
C275 H248 0.929 . S
C275 C274 1.363 . S
C275 C276 1.385 . S
C276 H250 0.930 . S
C276 C275 1.385 . S
C276 C277 1.357 . S
C277 C276 1.357 . S
C277 C278 1.406 . S
C278 H252 0.929 . S
C278 C277 1.406 . S
C278 C279 1.391 . S
C279 H251 0.931 . S
C279 C274 1.370 . S
C279 C278 1.391 . S
C280 N249 1.435 . S
C280 C281 1.358 . S
C280 C285 1.371 . S
C281 H253 0.930 . S
C281 C280 1.358 . S
C281 C282 1.405 . S
C282 H254 0.932 . S
C282 C281 1.405 . S
C282 C283 1.383 . S
C283 C282 1.383 . S
C283 C284 1.393 . S
C284 H256 0.931 . S
C284 C283 1.393 . S
C284 C285 1.382 . S
C285 H255 0.929 . S
C285 C280 1.371 . S
C285 C284 1.382 . S
C286 N249 1.423 . S
C286 C287 1.362 . S
C286 C291 1.388 . S
C287 H257 0.929 . S
C287 C286 1.362 . S
C287 C288 1.376 . S
C288 H259 0.931 . S
C288 C287 1.376 . S
C288 C289 1.396 . S
C289 C288 1.396 . S
C289 C290 1.348 . S
C289 C307 1.472 . S
C290 H260 0.929 . S
C290 C289 1.348 . S
C290 C291 1.443 . S
C291 H258 0.932 . S
C291 C286 1.388 . S
C291 C290 1.443 . S
C292 N272 1.433 . S
C292 C293 1.363 . S
C292 C297 1.370 . S
C293 H261 0.929 . S
C293 C292 1.363 . S
C293 C294 1.385 . S
C294 H262 0.930 . S
C294 C293 1.385 . S
C294 C295 1.357 . S
C295 C294 1.357 . S
C295 C296 1.406 . S
C296 H263 0.929 . S
C296 C295 1.406 . S
C296 C297 1.391 . S
C297 H264 0.931 . S
C297 C292 1.370 . S
C297 C296 1.391 . S
C298 N272 1.435 . S
C298 C299 1.358 . S
C298 C303 1.371 . S
C299 H265 0.930 . S
C299 C298 1.358 . S
C299 C300 1.405 . S
C300 H266 0.932 . S
C300 C299 1.405 . S
C300 C301 1.383 . S
C301 C300 1.383 . S
C301 C302 1.393 . S
C302 H267 0.931 . S
C302 C301 1.393 . S
C302 C303 1.382 . S
C303 H268 0.929 . S
C303 C298 1.371 . S
C303 C302 1.382 . S
C304 N272 1.423 . S
C304 C305 1.362 . S
C304 C309 1.388 . S
C305 H269 0.929 . S
C305 C304 1.362 . S
C305 C306 1.376 . S
C306 H270 0.931 . S
C306 C305 1.376 . S
C306 C307 1.396 . S
C307 C289 1.472 . S
C307 C306 1.396 . S
C307 C308 1.348 . S
C308 H271 0.929 . S
C308 C307 1.348 . S
C308 C309 1.443 . S
C309 H273 0.932 . S
C309 C304 1.388 . S
C309 C308 1.443 . S
H310 C337 0.929 . S
N311 C336 1.433 . S
N311 C342 1.435 . S
N311 C348 1.423 . S
H312 C338 0.930 . S
H313 C341 0.931 . S
H314 C340 0.929 . S
H315 C343 0.930 . S
H316 C344 0.932 . S
H317 C347 0.929 . S
H318 C346 0.931 . S
H319 C349 0.929 . S
H320 C353 0.932 . S
H321 C350 0.931 . S
H322 C352 0.929 . S
H323 C355 0.929 . S
H324 C356 0.930 . S
H325 C358 0.929 . S
H326 C359 0.931 . S
H327 C361 0.930 . S
H328 C362 0.932 . S
H329 C364 0.931 . S
H330 C365 0.929 . S
H331 C367 0.929 . S
H332 C368 0.931 . S
H333 C370 0.929 . S
N334 C354 1.433 . S
N334 C360 1.435 . S
N334 C366 1.423 . S
H335 C371 0.932 . S
C336 N311 1.433 . S
C336 C337 1.363 . S
C336 C341 1.370 . S
C337 H310 0.929 . S
C337 C336 1.363 . S
C337 C338 1.385 . S
C338 H312 0.930 . S
C338 C337 1.385 . S
C338 C339 1.357 . S
C339 C338 1.357 . S
C339 C340 1.406 . S
C340 H314 0.929 . S
C340 C339 1.406 . S
C340 C341 1.391 . S
C341 H313 0.931 . S
C341 C336 1.370 . S
C341 C340 1.391 . S
C342 N311 1.435 . S
C342 C343 1.358 . S
C342 C347 1.371 . S
C343 H315 0.930 . S
C343 C342 1.358 . S
C343 C344 1.405 . S
C344 H316 0.932 . S
C344 C343 1.405 . S
C344 C345 1.383 . S
C345 C344 1.383 . S
C345 C346 1.393 . S
C346 H318 0.931 . S
C346 C345 1.393 . S
C346 C347 1.382 . S
C347 H317 0.929 . S
C347 C342 1.371 . S
C347 C346 1.382 . S
C348 N311 1.423 . S
C348 C349 1.362 . S
C348 C353 1.388 . S
C349 H319 0.929 . S
C349 C348 1.362 . S
C349 C350 1.376 . S
C350 H321 0.931 . S
C350 C349 1.376 . S
C350 C351 1.396 . S
C351 C350 1.396 . S
C351 C352 1.348 . S
C351 C369 1.472 . S
C352 H322 0.929 . S
C352 C351 1.348 . S
C352 C353 1.443 . S
C353 H320 0.932 . S
C353 C348 1.388 . S
C353 C352 1.443 . S
C354 N334 1.433 . S
C354 C355 1.363 . S
C354 C359 1.370 . S
C355 H323 0.929 . S
C355 C354 1.363 . S
C355 C356 1.385 . S
C356 H324 0.930 . S
C356 C355 1.385 . S
C356 C357 1.357 . S
C357 C356 1.357 . S
C357 C358 1.406 . S
C358 H325 0.929 . S
C358 C357 1.406 . S
C358 C359 1.391 . S
C359 H326 0.931 . S
C359 C354 1.370 . S
C359 C358 1.391 . S
C360 N334 1.435 . S
C360 C361 1.358 . S
C360 C365 1.371 . S
C361 H327 0.930 . S
C361 C360 1.358 . S
C361 C362 1.405 . S
C362 H328 0.932 . S
C362 C361 1.405 . S
C362 C363 1.383 . S
C363 C362 1.383 . S
C363 C364 1.393 . S
C364 H329 0.931 . S
C364 C363 1.393 . S
C364 C365 1.382 . S
C365 H330 0.929 . S
C365 C360 1.371 . S
C365 C364 1.382 . S
C366 N334 1.423 . S
C366 C367 1.362 . S
C366 C371 1.388 . S
C367 H331 0.929 . S
C367 C366 1.362 . S
C367 C368 1.376 . S
C368 H332 0.931 . S
C368 C367 1.376 . S
C368 C369 1.396 . S
C369 C351 1.472 . S
C369 C368 1.396 . S
C369 C370 1.348 . S
C370 H333 0.929 . S
C370 C369 1.348 . S
C370 C371 1.443 . S
C371 H335 0.932 . S
C371 C366 1.388 . S
C371 C370 1.443 . S
H372 C399 0.937 . S
N373 C398 1.433 . S
N373 C404 1.435 . S
N373 C410 1.423 . S
H374 C400 0.930 . S
H375 C403 0.931 . S
H376 C402 0.929 . S
H377 C405 0.930 . S
H378 C406 0.932 . S
H379 C409 0.929 . S
H380 C408 0.931 . S
H381 C411 0.929 1_556 S
H382 C415 0.932 . S
H383 C412 0.931 1_556 S
H384 C414 0.929 . S
H385 C417 0.937 . S
H386 C418 0.930 . S
H387 C420 0.929 . S
H388 C421 0.931 . S
H389 C423 0.930 . S
H390 C424 0.932 . S
H391 C426 0.931 . S
H392 C427 0.929 . S
H393 C429 0.929 1_556 S
H394 C430 0.931 1_556 S
H395 C432 0.929 . S
N396 C416 1.433 . S
N396 C422 1.435 . S
N396 C428 1.423 . S
H397 C433 0.932 . S
C398 N373 1.433 . S
C398 C399 1.379 . S
C398 C403 1.370 . S
C399 H372 0.937 . S
C399 C398 1.379 . S
C399 C400 1.364 1_554 S
C400 H374 0.930 . S
C400 C399 1.364 1_556 S
C400 C401 1.357 . S
C401 C400 1.357 . S
C401 C402 1.406 . S
C402 H376 0.929 . S
C402 C401 1.406 . S
C402 C403 1.391 1_556 S
C403 H375 0.931 . S
C403 C398 1.370 . S
C403 C402 1.391 1_554 S
C404 N373 1.435 . S
C404 C405 1.358 . S
C404 C409 1.371 . S
C405 H377 0.930 . S
C405 C404 1.358 . S
C405 C406 1.405 . S
C406 H378 0.932 . S
C406 C405 1.405 . S
C406 C407 1.383 . S
C407 C406 1.383 . S
C407 C408 1.393 . S
C408 H380 0.931 . S
C408 C407 1.393 . S
C408 C409 1.382 . S
C409 H379 0.929 . S
C409 C404 1.371 . S
C409 C408 1.382 . S
C410 N373 1.423 . S
C410 C411 1.362 . S
C410 C415 1.388 . S
C411 H381 0.929 1_554 S
C411 C410 1.362 . S
C411 C412 1.376 . S
C412 H383 0.931 1_554 S
C412 C411 1.376 . S
C412 C413 1.396 . S
C413 C412 1.396 . S
C413 C414 1.348 . S
C413 C431 1.472 . S
C414 H384 0.929 . S
C414 C413 1.348 . S
C414 C415 1.443 . S
C415 H382 0.932 . S
C415 C410 1.388 . S
C415 C414 1.443 . S
C416 N396 1.433 . S
C416 C417 1.379 . S
C416 C421 1.370 . S
C417 H385 0.937 . S
C417 C416 1.379 . S
C417 C418 1.364 1_554 S
C418 H386 0.930 . S
C418 C417 1.364 1_556 S
C418 C419 1.357 . S
C419 C418 1.357 . S
C419 C420 1.406 . S
C420 H387 0.929 . S
C420 C419 1.406 . S
C420 C421 1.391 1_556 S
C421 H388 0.931 . S
C421 C416 1.370 . S
C421 C420 1.391 1_554 S
C422 N396 1.435 . S
C422 C423 1.358 . S
C422 C427 1.371 . S
C423 H389 0.930 . S
C423 C422 1.358 . S
C423 C424 1.405 . S
C424 H390 0.932 . S
C424 C423 1.405 . S
C424 C425 1.383 . S
C425 C424 1.383 . S
C425 C426 1.393 . S
C426 H391 0.931 . S
C426 C425 1.393 . S
C426 C427 1.382 . S
C427 H392 0.929 . S
C427 C422 1.371 . S
C427 C426 1.382 . S
C428 N396 1.423 . S
C428 C429 1.362 . S
C428 C433 1.388 . S
C429 H393 0.929 1_554 S
C429 C428 1.362 . S
C429 C430 1.376 . S
C430 H394 0.931 1_554 S
C430 C429 1.376 . S
C430 C431 1.396 . S
C431 C413 1.472 . S
C431 C430 1.396 . S
C431 C432 1.348 . S
C432 H395 0.929 . S
C432 C431 1.348 . S
C432 C433 1.443 . S
C433 H397 0.932 . S
C433 C428 1.388 . S
C433 C432 1.443 . S
H434 C461 0.929 . S
N435 C460 1.433 . S
N435 C466 1.435 . S
N435 C472 1.423 . S
H436 C462 0.930 . S
H437 C465 0.931 . S
H438 C464 0.929 . S
H439 C467 0.930 . S
H440 C468 0.932 . S
H441 C471 0.929 . S
H442 C470 0.931 . S
H443 C473 0.929 . S
H444 C477 0.932 . S
H445 C474 0.931 . S
H446 C476 0.929 . S
H447 C479 0.929 . S
H448 C480 0.930 . S
H449 C482 0.929 . S
H450 C483 0.931 . S
H451 C485 0.930 . S
H452 C486 0.932 . S
H453 C488 0.931 . S
H454 C489 0.929 . S
H455 C491 0.929 . S
H456 C492 0.931 . S
H457 C494 0.929 . S
N458 C478 1.433 . S
N458 C484 1.435 . S
N458 C490 1.423 . S
H459 C495 0.932 . S
C460 N435 1.433 . S
C460 C461 1.363 . S
C460 C465 1.370 . S
C461 H434 0.929 . S
C461 C460 1.363 . S
C461 C462 1.385 . S
C462 H436 0.930 . S
C462 C461 1.385 . S
C462 C463 1.357 . S
C463 C462 1.357 . S
C463 C464 1.406 . S
C464 H438 0.929 . S
C464 C463 1.406 . S
C464 C465 1.391 . S
C465 H437 0.931 . S
C465 C460 1.370 . S
C465 C464 1.391 . S
C466 N435 1.435 . S
C466 C467 1.358 . S
C466 C471 1.371 . S
C467 H439 0.930 . S
C467 C466 1.358 . S
C467 C468 1.405 . S
C468 H440 0.932 . S
C468 C467 1.405 . S
C468 C469 1.383 . S
C469 C468 1.383 . S
C469 C470 1.393 . S
C470 H442 0.931 . S
C470 C469 1.393 . S
C470 C471 1.382 . S
C471 H441 0.929 . S
C471 C466 1.371 . S
C471 C470 1.382 . S
C472 N435 1.423 . S
C472 C473 1.362 . S
C472 C477 1.388 . S
C473 H443 0.929 . S
C473 C472 1.362 . S
C473 C474 1.376 . S
C474 H445 0.931 . S
C474 C473 1.376 . S
C474 C475 1.396 . S
C475 C474 1.396 . S
C475 C476 1.348 . S
C475 C493 1.472 1_455 S
C476 H446 0.929 . S
C476 C475 1.348 . S
C476 C477 1.443 . S
C477 H444 0.932 . S
C477 C472 1.388 . S
C477 C476 1.443 . S
C478 N458 1.433 . S
C478 C479 1.363 . S
C478 C483 1.370 . S
C479 H447 0.929 . S
C479 C478 1.363 . S
C479 C480 1.385 . S
C480 H448 0.930 . S
C480 C479 1.385 . S
C480 C481 1.357 . S
C481 C480 1.357 . S
C481 C482 1.406 . S
C482 H449 0.929 . S
C482 C481 1.406 . S
C482 C483 1.391 . S
C483 H450 0.931 . S
C483 C478 1.370 . S
C483 C482 1.391 . S
C484 N458 1.435 . S
C484 C485 1.358 . S
C484 C489 1.371 . S
C485 H451 0.930 . S
C485 C484 1.358 . S
C485 C486 1.405 . S
C486 H452 0.932 . S
C486 C485 1.405 . S
C486 C487 1.383 . S
C487 C486 1.383 . S
C487 C488 1.393 . S
C488 H453 0.931 . S
C488 C487 1.393 . S
C488 C489 1.382 . S
C489 H454 0.929 . S
C489 C484 1.371 . S
C489 C488 1.382 . S
C490 N458 1.423 . S
C490 C491 1.362 . S
C490 C495 1.388 . S
C491 H455 0.929 . S
C491 C490 1.362 . S
C491 C492 1.376 . S
C492 H456 0.931 . S
C492 C491 1.376 . S
C492 C493 1.396 . S
C493 C475 1.472 1_655 S
C493 C492 1.396 . S
C493 C494 1.348 . S
C494 H457 0.929 . S
C494 C493 1.348 . S
C494 C495 1.443 . S
C495 H459 0.932 . S
C495 C490 1.388 . S
C495 C494 1.443 . S
Fe496 O497 1.909 . S
Fe496 O500 1.691 1_455 S
Fe496 O505 2.098 . S
Fe496 O510 1.917 1_455 S
Fe496 O516 2.098 . S
Fe496 O525 1.917 1_455 S
O497 Fe496 1.909 . S
O497 Fe499 1.715 . S
Fe498 O500 1.886 . S
Fe498 O501 1.715 . S
Fe498 O508 1.935 . S
Fe498 O509 2.077 . S
Fe498 O515 1.935 . S
Fe498 O524 2.077 . S
Fe499 O497 1.715 . S
Fe499 O502 1.886 . S
Fe499 O506 1.935 . S
Fe499 O511 2.077 . S
Fe499 O517 1.935 . S
Fe499 O521 2.077 . S
O500 Fe496 1.691 1_655 S
O500 Fe498 1.886 . S
O501 Fe498 1.715 . S
O501 Fe503 1.903 . S
O502 Fe499 1.886 . S
O502 Fe503 1.697 1_455 S
Fe503 O501 1.903 . S
Fe503 O502 1.697 1_655 S
Fe503 O507 2.093 . S
Fe503 O512 1.922 1_655 S
Fe503 O514 2.093 . S
Fe503 O522 1.922 1_655 S
C504 O516 1.381 . S
C504 O517 1.421 . S
O505 Fe496 2.098 . S
O505 C518 1.381 . S
O506 Fe499 1.935 . S
O506 C518 1.421 . S
O507 Fe503 2.093 . S
O507 C523 1.381 . S
O508 Fe498 1.935 . S
O508 C523 1.421 . S
O509 Fe498 2.077 . S
O509 C513 1.381 . S
O510 Fe496 1.917 1_655 S
O510 C513 1.421 . S
O511 Fe499 2.077 . S
O511 C519 1.381 . S
O512 Fe503 1.922 1_455 S
O512 C519 1.421 . S
C513 O509 1.381 . S
C513 O510 1.421 . S
O514 Fe503 2.093 . S
O514 C526 1.381 . S
O515 Fe498 1.935 . S
O515 C526 1.421 . S
O516 Fe496 2.098 . S
O516 C504 1.381 . S
O517 Fe499 1.935 . S
O517 C504 1.421 . S
C518 O505 1.381 . S
C518 O506 1.421 . S
C519 O511 1.381 . S
C519 O512 1.421 . S
C520 O521 1.381 . S
C520 O522 1.421 . S
O521 Fe499 2.077 . S
O521 C520 1.381 . S
O522 Fe503 1.922 1_455 S
O522 C520 1.421 . S
C523 O507 1.381 . S
C523 O508 1.421 . S
O524 Fe498 2.077 . S
O524 C527 1.381 . S
O525 Fe496 1.917 1_655 S
O525 C527 1.421 . S
C526 O514 1.381 . S
C526 O515 1.421 . S
C527 O524 1.381 . S
C527 O525 1.421 . S
Fe528 O529 1.886 . S
Fe528 O532 1.715 . S
Fe528 O537 2.077 . S
Fe528 O542 1.935 . S
Fe528 O548 2.077 . S
Fe528 O557 1.935 . S
O529 Fe528 1.886 . S
O529 Fe531 1.715 . S
Fe530 O532 1.886 . S
Fe530 O533 1.715 . S
Fe530 O540 1.935 . S
Fe530 O541 2.077 . S
Fe530 O547 1.935 . S
Fe530 O556 2.077 . S
Fe531 O529 1.715 . S
Fe531 O534 1.886 . S
Fe531 O538 1.935 . S
Fe531 O543 2.077 . S
Fe531 O549 1.935 . S
Fe531 O553 2.077 . S
O532 Fe528 1.715 . S
O532 Fe530 1.886 . S
O533 Fe530 1.715 . S
O533 Fe535 1.886 . S
O534 Fe531 1.886 . S
O534 Fe535 1.715 . S
Fe535 O533 1.886 . S
Fe535 O534 1.715 . S
Fe535 O539 2.077 . S
Fe535 O544 1.935 . S
Fe535 O546 2.077 . S
Fe535 O554 1.935 . S
C536 O548 1.381 . S
C536 O549 1.421 . S
O537 Fe528 2.077 . S
O537 C550 1.381 . S
O538 Fe531 1.935 . S
O538 C550 1.421 . S
O539 Fe535 2.077 . S
O539 C555 1.381 . S
O540 Fe530 1.935 . S
O540 C555 1.421 . S
O541 Fe530 2.077 . S
O541 C545 1.381 . S
O542 Fe528 1.935 . S
O542 C545 1.421 . S
O543 Fe531 2.077 . S
O543 C551 1.381 . S
O544 Fe535 1.935 . S
O544 C551 1.421 . S
C545 O541 1.381 . S
C545 O542 1.421 . S
O546 Fe535 2.077 . S
O546 C558 1.381 . S
O547 Fe530 1.935 . S
O547 C558 1.421 . S
O548 Fe528 2.077 . S
O548 C536 1.381 . S
O549 Fe531 1.935 . S
O549 C536 1.421 . S
C550 O537 1.381 . S
C550 O538 1.421 . S
C551 O543 1.381 . S
C551 O544 1.421 . S
C552 O553 1.381 . S
C552 O554 1.421 . S
O553 Fe531 2.077 . S
O553 C552 1.381 . S
O554 Fe535 1.935 . S
O554 C552 1.421 . S
C555 O539 1.381 . S
C555 O540 1.421 . S
O556 Fe530 2.077 . S
O556 C559 1.381 . S
O557 Fe528 1.935 . S
O557 C559 1.421 . S
C558 O546 1.381 . S
C558 O547 1.421 . S
C559 O556 1.381 . S
C559 O557 1.421 . S
Fe560 O561 1.886 . S
Fe560 O564 1.715 . S
Fe560 O569 2.077 . S
Fe560 O574 1.935 . S
Fe560 O580 2.077 . S
Fe560 O589 1.935 . S
O561 Fe560 1.886 . S
O561 Fe563 1.715 . S
Fe562 O564 1.886 . S
Fe562 O565 1.715 . S
Fe562 O572 1.935 . S
Fe562 O573 2.077 . S
Fe562 O579 1.935 . S
Fe562 O588 2.077 . S
Fe563 O561 1.715 . S
Fe563 O566 1.886 . S
Fe563 O570 1.935 . S
Fe563 O575 2.077 . S
Fe563 O581 1.935 . S
Fe563 O585 2.077 . S
O564 Fe560 1.715 . S
O564 Fe562 1.886 . S
O565 Fe562 1.715 . S
O565 Fe567 1.886 . S
O566 Fe563 1.886 . S
O566 Fe567 1.715 . S
Fe567 O565 1.886 . S
Fe567 O566 1.715 . S
Fe567 O571 2.077 . S
Fe567 O576 1.935 . S
Fe567 O578 2.077 . S
Fe567 O586 1.935 . S
C568 O580 1.381 . S
C568 O581 1.421 . S
O569 Fe560 2.077 . S
O569 C582 1.381 . S
O570 Fe563 1.935 . S
O570 C582 1.421 . S
O571 Fe567 2.077 . S
O571 C587 1.381 . S
O572 Fe562 1.935 . S
O572 C587 1.421 . S
O573 Fe562 2.077 . S
O573 C577 1.381 . S
O574 Fe560 1.935 . S
O574 C577 1.421 . S
O575 Fe563 2.077 . S
O575 C583 1.381 . S
O576 Fe567 1.935 . S
O576 C583 1.421 . S
C577 O573 1.381 . S
C577 O574 1.421 . S
O578 Fe567 2.077 . S
O578 C590 1.381 . S
O579 Fe562 1.935 . S
O579 C590 1.421 . S
O580 Fe560 2.077 . S
O580 C568 1.381 . S
O581 Fe563 1.935 . S
O581 C568 1.421 . S
C582 O569 1.381 . S
C582 O570 1.421 . S
C583 O575 1.381 . S
C583 O576 1.421 . S
C584 O585 1.381 . S
C584 O586 1.421 . S
O585 Fe563 2.077 . S
O585 C584 1.381 . S
O586 Fe567 1.935 . S
O586 C584 1.421 . S
C587 O571 1.381 . S
C587 O572 1.421 . S
O588 Fe562 2.077 . S
O588 C591 1.381 . S
O589 Fe560 1.935 . S
O589 C591 1.421 . S
C590 O578 1.381 . S
C590 O579 1.421 . S
C591 O588 1.381 . S
C591 O589 1.421 . S
Fe592 O593 1.886 . S
Fe592 O596 1.715 . S
Fe592 O601 2.077 1_455 S
Fe592 O606 1.935 1_455 S
Fe592 O612 2.077 . S
Fe592 O621 1.935 . S
O593 Fe592 1.886 . S
O593 Fe595 1.715 . S
Fe594 O596 1.886 . S
Fe594 O597 1.715 . S
Fe594 O604 1.935 1_455 S
Fe594 O605 2.077 1_455 S
Fe594 O611 1.935 . S
Fe594 O620 2.077 . S
Fe595 O593 1.715 . S
Fe595 O598 1.886 . S
Fe595 O602 1.935 1_455 S
Fe595 O607 2.077 1_455 S
Fe595 O613 1.935 . S
Fe595 O617 2.077 . S
O596 Fe592 1.715 . S
O596 Fe594 1.886 . S
O597 Fe594 1.715 . S
O597 Fe599 1.886 . S
O598 Fe595 1.886 . S
O598 Fe599 1.715 . S
Fe599 O597 1.886 . S
Fe599 O598 1.715 . S
Fe599 O603 2.077 1_455 S
Fe599 O608 1.935 1_455 S
Fe599 O610 2.077 . S
Fe599 O618 1.935 . S
C600 O612 1.381 . S
C600 O613 1.421 . S
O601 Fe592 2.077 1_655 S
O601 C614 1.381 . S
O602 Fe595 1.935 1_655 S
O602 C614 1.421 . S
O603 Fe599 2.077 1_655 S
O603 C619 1.381 . S
O604 Fe594 1.935 1_655 S
O604 C619 1.421 . S
O605 Fe594 2.077 1_655 S
O605 C609 1.381 . S
O606 Fe592 1.935 1_655 S
O606 C609 1.421 . S
O607 Fe595 2.077 1_655 S
O607 C615 1.381 . S
O608 Fe599 1.935 1_655 S
O608 C615 1.421 . S
C609 O605 1.381 . S
C609 O606 1.421 . S
O610 Fe599 2.077 . S
O610 C622 1.381 . S
O611 Fe594 1.935 . S
O611 C622 1.421 . S
O612 Fe592 2.077 . S
O612 C600 1.381 . S
O613 Fe595 1.935 . S
O613 C600 1.421 . S
C614 O601 1.381 . S
C614 O602 1.421 . S
C615 O607 1.381 . S
C615 O608 1.421 . S
C616 O617 1.381 . S
C616 O618 1.421 . S
O617 Fe595 2.077 . S
O617 C616 1.381 . S
O618 Fe599 1.935 . S
O618 C616 1.421 . S
C619 O603 1.381 . S
C619 O604 1.421 . S
O620 Fe594 2.077 . S
O620 C623 1.381 . S
O621 Fe592 1.935 . S
O621 C623 1.421 . S
C622 O610 1.381 . S
C622 O611 1.421 . S
C623 O620 1.381 . S
C623 O621 1.421 . S
C624 C625 1.349 . S
C624 C626 1.327 . S
C624 H649 0.950 . S
C625 C624 1.349 . S
C625 C641 1.349 . S
C626 C624 1.327 . S
C626 C645 1.429 . S
C626 H650 0.950 . S
C627 C644 1.574 . S
C627 C646 1.368 . S
C627 H651 0.949 . S
H628 C632 0.949 . S
C629 C630 1.349 . S
C629 C631 1.327 . S
C629 H652 0.950 . S
C630 C629 1.349 . S
C630 C642 1.349 . S
C631 C629 1.327 . S
C631 C647 1.429 . S
C631 H653 0.950 . S
C632 H628 0.949 . S
C632 C640 1.574 . S
C632 C648 1.368 . S
H633 C641 0.950 . S
H634 C639 0.950 . S
H635 C640 0.949 . S
H636 C642 0.950 . S
H637 C643 0.950 . S
H638 C644 0.949 . S
C639 H634 0.950 . S
C639 C641 1.327 . S
C639 C645 1.429 . S
C640 C632 1.574 . S
C640 H635 0.949 . S
C640 C646 1.368 . S
C641 C625 1.349 . S
C641 H633 0.950 . S
C641 C639 1.327 . S
C642 C630 1.349 . S
C642 H636 0.950 . S
C642 C643 1.327 . S
C643 H637 0.950 . S
C643 C642 1.327 . S
C643 C647 1.429 . S
C644 C627 1.574 . S
C644 H638 0.949 . S
C644 C648 1.368 . S
C645 C626 1.429 . S
C645 C639 1.429 . S
C645 C646 1.523 . S
C646 C627 1.368 . S
C646 C640 1.368 . S
C646 C645 1.523 . S
C647 C631 1.429 . S
C647 C643 1.429 . S
C647 C648 1.523 . S
C648 C632 1.368 . S
C648 C644 1.368 . S
C648 C647 1.523 . S
H649 C624 0.950 . S
H650 C626 0.950 . S
H651 C627 0.949 . S
H652 C629 0.950 . S
H653 C631 0.950 . S
C654 C655 1.349 . S
C654 C656 1.327 1_565 S
C654 H679 0.950 . S
C655 C654 1.349 . S
C655 C671 1.349 1_565 S
C656 C654 1.327 1_545 S
C656 C675 1.429 . S
C656 H680 0.950 . S
C657 C674 1.574 . S
C657 C676 1.368 . S
C657 H681 0.949 . S
H658 C662 0.949 . S
C659 C660 1.349 . S
C659 C661 1.327 . S
C659 H682 0.950 . S
C660 C659 1.349 . S
C660 C672 1.349 . S
C661 C659 1.327 . S
C661 C677 1.429 . S
C661 H683 0.950 . S
C662 H658 0.949 . S
C662 C670 1.574 . S
C662 C678 1.368 . S
H663 C671 0.950 . S
H664 C669 0.950 . S
H665 C670 0.949 . S
H666 C672 0.950 . S
H667 C673 0.950 . S
H668 C674 0.949 . S
C669 H664 0.950 . S
C669 C671 1.327 . S
C669 C675 1.429 . S
C670 C662 1.574 . S
C670 H665 0.949 . S
C670 C676 1.368 . S
C671 C655 1.349 1_545 S
C671 H663 0.950 . S
C671 C669 1.327 . S
C672 C660 1.349 . S
C672 H666 0.950 . S
C672 C673 1.327 . S
C673 H667 0.950 . S
C673 C672 1.327 . S
C673 C677 1.429 . S
C674 C657 1.574 . S
C674 H668 0.949 . S
C674 C678 1.368 . S
C675 C656 1.429 . S
C675 C669 1.429 . S
C675 C676 1.523 . S
C676 C657 1.368 . S
C676 C670 1.368 . S
C676 C675 1.523 . S
C677 C661 1.429 . S
C677 C673 1.429 . S
C677 C678 1.523 . S
C678 C662 1.368 . S
C678 C674 1.368 . S
C678 C677 1.523 . S
H679 C654 0.950 . S
H680 C656 0.950 . S
H681 C657 0.949 . S
H682 C659 0.950 . S
H683 C661 0.950 . S
C684 C685 1.349 . S
C684 C686 1.327 . S
C684 H709 0.871 1_556 S
C685 C684 1.349 . S
C685 C701 1.349 . S
C686 C684 1.327 . S
C686 C705 1.429 . S
C686 H710 0.950 . S
C687 C704 1.574 . S
C687 C706 1.368 . S
C687 H711 0.949 . S
H688 C692 0.949 . S
C689 C690 1.349 . S
C689 C691 1.327 . S
C689 H712 0.950 . S
C690 C689 1.349 . S
C690 C702 1.349 . S
C691 C689 1.327 . S
C691 C707 1.429 . S
C691 H713 0.950 . S
C692 H688 0.949 . S
C692 C700 1.574 . S
C692 C708 1.368 . S
H693 C701 0.950 . S
H694 C699 0.950 . S
H695 C700 0.949 . S
H696 C702 0.950 . S
H697 C703 0.950 . S
H698 C704 0.949 . S
C699 H694 0.950 . S
C699 C701 1.327 . S
C699 C705 1.429 . S
C700 C692 1.574 . S
C700 H695 0.949 . S
C700 C706 1.368 . S
C701 C685 1.349 . S
C701 H693 0.950 . S
C701 C699 1.327 . S
C702 C690 1.349 . S
C702 H696 0.950 . S
C702 C703 1.327 . S
C703 H697 0.950 . S
C703 C702 1.327 . S
C703 C707 1.429 . S
C704 C687 1.574 . S
C704 H698 0.949 . S
C704 C708 1.368 . S
C705 C686 1.429 . S
C705 C699 1.429 . S
C705 C706 1.523 . S
C706 C687 1.368 . S
C706 C700 1.368 . S
C706 C705 1.523 . S
C707 C691 1.429 . S
C707 C703 1.429 . S
C707 C708 1.523 . S
C708 C692 1.368 . S
C708 C704 1.368 . S
C708 C707 1.523 . S
H709 C684 0.871 1_554 S
H710 C686 0.950 . S
H711 C687 0.949 . S
H712 C689 0.950 . S
H713 C691 0.950 . S
C714 C715 1.349 . S
C714 C716 1.323 1_545 S
C714 H739 0.950 . S
C715 C714 1.349 . S
C715 C731 1.349 . S
C716 C714 1.323 1_565 S
C716 C735 1.429 . S
C716 H740 0.953 . S
C717 C734 1.574 . S
C717 C736 1.368 . S
C717 H741 0.949 . S
H718 C722 0.949 . S
C719 C720 1.349 . S
C719 C721 1.327 . S
C719 H742 0.950 . S
C720 C719 1.349 . S
C720 C732 1.349 . S
C721 C719 1.327 . S
C721 C737 1.429 . S
C721 H743 0.950 . S
C722 H718 0.949 . S
C722 C730 1.574 . S
C722 C738 1.368 . S
H723 C731 0.950 . S
H724 C729 0.950 . S
H725 C730 0.949 . S
H726 C732 0.950 . S
H727 C733 0.950 . S
H728 C734 0.949 . S
C729 H724 0.950 . S
C729 C731 1.327 . S
C729 C735 1.429 1_545 S
C730 C722 1.574 . S
C730 H725 0.949 . S
C730 C736 1.368 . S
C731 C715 1.349 . S
C731 H723 0.950 . S
C731 C729 1.327 . S
C732 C720 1.349 . S
C732 H726 0.950 . S
C732 C733 1.327 . S
C733 H727 0.950 . S
C733 C732 1.327 . S
C733 C737 1.429 . S
C734 C717 1.574 . S
C734 H728 0.949 . S
C734 C738 1.368 . S
C735 C716 1.429 . S
C735 C729 1.429 1_565 S
C735 C736 1.523 . S
C736 C717 1.368 . S
C736 C730 1.368 . S
C736 C735 1.523 . S
C737 C721 1.429 . S
C737 C733 1.429 . S
C737 C738 1.523 . S
C738 C722 1.368 . S
C738 C734 1.368 . S
C738 C737 1.523 . S
H739 C714 0.950 . S
H740 C716 0.953 . S
H741 C717 0.949 . S
H742 C719 0.950 . S
H743 C721 0.950 . S
C744 C745 1.349 . S
C744 C746 1.327 . S
C744 H769 0.950 . S
C745 C744 1.349 . S
C745 C761 1.349 . S
C746 C744 1.327 . S
C746 C765 1.429 . S
C746 H770 0.950 . S
C747 C764 1.574 . S
C747 C766 1.368 . S
C747 H771 0.949 . S
H748 C752 0.949 . S
C749 C750 1.349 . S
C749 C751 1.327 . S
C749 H772 0.950 . S
C750 C749 1.349 . S
C750 C762 1.349 . S
C751 C749 1.327 . S
C751 C767 1.429 . S
C751 H773 0.950 . S
C752 H748 0.949 . S
C752 C760 1.574 . S
C752 C768 1.368 . S
H753 C761 0.950 . S
H754 C759 0.950 . S
H755 C760 0.949 . S
H756 C762 0.950 . S
H757 C763 0.950 . S
H758 C764 0.949 . S
C759 H754 0.950 . S
C759 C761 1.327 . S
C759 C765 1.429 . S
C760 C752 1.574 . S
C760 H755 0.949 . S
C760 C766 1.368 . S
C761 C745 1.349 . S
C761 H753 0.950 . S
C761 C759 1.327 . S
C762 C750 1.349 . S
C762 H756 0.950 . S
C762 C763 1.327 . S
C763 H757 0.950 . S
C763 C762 1.327 . S
C763 C767 1.429 . S
C764 C747 1.574 . S
C764 H758 0.949 . S
C764 C768 1.368 . S
C765 C746 1.429 . S
C765 C759 1.429 . S
C765 C766 1.523 . S
C766 C747 1.368 . S
C766 C760 1.368 . S
C766 C765 1.523 . S
C767 C751 1.429 . S
C767 C763 1.429 . S
C767 C768 1.523 . S
C768 C752 1.368 . S
C768 C764 1.368 . S
C768 C767 1.523 . S
H769 C744 0.950 . S
H770 C746 0.950 . S
H771 C747 0.949 . S
H772 C749 0.950 . S
H773 C751 0.950 . S
C774 C775 1.349 . S
C774 C776 1.327 . S
C774 H799 0.950 . S
C775 C774 1.349 . S
C775 C791 1.349 . S
C776 C774 1.327 . S
C776 C795 1.429 1_565 S
C776 H800 0.950 1_565 S
C777 C794 1.574 . S
C777 C796 1.368 . S
C777 H801 0.949 . S
H778 C782 0.949 . S
C779 C780 1.349 . S
C779 C781 1.327 . S
C779 H802 0.950 . S
C780 C779 1.349 . S
C780 C792 1.349 . S
C781 C779 1.327 . S
C781 C797 1.429 . S
C781 H803 0.950 . S
C782 H778 0.949 . S
C782 C790 1.574 . S
C782 C798 1.368 . S
H783 C791 0.950 . S
H784 C789 0.958 . S
H785 C790 0.949 . S
H786 C792 0.950 . S
H787 C793 0.950 . S
H788 C794 0.949 . S
C789 H784 0.958 . S
C789 C791 1.327 . S
C789 C795 1.429 1_565 S
C790 C782 1.574 . S
C790 H785 0.949 . S
C790 C796 1.368 . S
C791 C775 1.349 . S
C791 H783 0.950 . S
C791 C789 1.327 . S
C792 C780 1.349 . S
C792 H786 0.950 . S
C792 C793 1.327 . S
C793 H787 0.950 . S
C793 C792 1.327 . S
C793 C797 1.429 . S
C794 C777 1.574 . S
C794 H788 0.949 . S
C794 C798 1.368 . S
C795 C776 1.429 1_545 S
C795 C789 1.429 1_545 S
C795 C796 1.523 . S
C796 C777 1.368 . S
C796 C790 1.368 . S
C796 C795 1.523 . S
C797 C781 1.429 . S
C797 C793 1.429 . S
C797 C798 1.523 . S
C798 C782 1.368 . S
C798 C794 1.368 . S
C798 C797 1.523 . S
H799 C774 0.950 . S
H800 C776 0.950 1_545 S
H801 C777 0.949 . S
H802 C779 0.950 . S
H803 C781 0.950 . S
C804 C805 1.349 . S
C804 C806 1.327 . S
C804 H829 0.950 . S
C805 C804 1.349 . S
C805 C821 1.349 . S
C806 C804 1.327 . S
C806 C825 1.429 . S
C806 H830 0.950 . S
C807 C824 1.574 . S
C807 C826 1.368 . S
C807 H831 0.949 . S
H808 C812 0.949 . S
C809 C810 1.349 . S
C809 C811 1.327 . S
C809 H832 0.950 . S
C810 C809 1.349 . S
C810 C822 1.349 . S
C811 C809 1.327 . S
C811 C827 1.429 . S
C811 H833 0.950 . S
C812 H808 0.949 . S
C812 C820 1.574 . S
C812 C828 1.368 . S
H813 C821 0.950 . S
H814 C819 0.950 . S
H815 C820 0.949 . S
H816 C822 0.950 . S
H817 C823 0.950 . S
H818 C824 0.949 . S
C819 H814 0.950 . S
C819 C821 1.327 . S
C819 C825 1.429 . S
C820 C812 1.574 . S
C820 H815 0.949 . S
C820 C826 1.368 . S
C821 C805 1.349 . S
C821 H813 0.950 . S
C821 C819 1.327 . S
C822 C810 1.349 . S
C822 H816 0.950 . S
C822 C823 1.327 . S
C823 H817 0.950 . S
C823 C822 1.327 . S
C823 C827 1.429 . S
C824 C807 1.574 . S
C824 H818 0.949 . S
C824 C828 1.368 . S
C825 C806 1.429 . S
C825 C819 1.429 . S
C825 C826 1.523 . S
C826 C807 1.368 . S
C826 C820 1.368 . S
C826 C825 1.523 . S
C827 C811 1.429 . S
C827 C823 1.429 . S
C827 C828 1.523 . S
C828 C812 1.368 . S
C828 C824 1.368 . S
C828 C827 1.523 . S
H829 C804 0.950 . S
H830 C806 0.950 . S
H831 C807 0.949 . S
H832 C809 0.950 . S
H833 C811 0.950 . S
C834 C835 1.349 . S
C834 C836 1.327 . S
C834 H859 0.950 . S
C835 C834 1.349 . S
C835 C851 1.349 . S
C836 C834 1.327 . S
C836 C855 1.429 . S
C836 H860 0.950 . S
C837 C854 1.574 . S
C837 C856 1.368 . S
C837 H861 0.949 . S
H838 C842 0.949 . S
C839 C840 1.349 . S
C839 C841 1.327 . S
C839 H862 0.950 . S
C840 C839 1.349 . S
C840 C852 1.349 . S
C841 C839 1.327 . S
C841 C857 1.429 . S
C841 H863 0.950 . S
C842 H838 0.949 . S
C842 C850 1.574 . S
C842 C858 1.368 . S
H843 C851 0.950 . S
H844 C849 0.950 . S
H845 C850 0.949 . S
H846 C852 0.950 . S
H847 C853 0.950 . S
H848 C854 0.949 . S
C849 H844 0.950 . S
C849 C851 1.327 . S
C849 C855 1.429 . S
C850 C842 1.574 . S
C850 H845 0.949 . S
C850 C856 1.368 . S
C851 C835 1.349 . S
C851 H843 0.950 . S
C851 C849 1.327 . S
C852 C840 1.349 . S
C852 H846 0.950 . S
C852 C853 1.327 . S
C853 H847 0.950 . S
C853 C852 1.327 . S
C853 C857 1.429 . S
C854 C837 1.574 . S
C854 H848 0.949 . S
C854 C858 1.368 . S
C855 C836 1.429 . S
C855 C849 1.429 . S
C855 C856 1.523 1_545 S
C856 C837 1.368 . S
C856 C850 1.368 . S
C856 C855 1.523 1_565 S
C857 C841 1.429 . S
C857 C853 1.429 . S
C857 C858 1.523 . S
C858 C842 1.368 . S
C858 C854 1.368 . S
C858 C857 1.523 . S
H859 C834 0.950 . S
H860 C836 0.950 . S
H861 C837 0.949 . S
H862 C839 0.950 . S
H863 C841 0.950 . S
C864 C865 1.349 . S
C864 C866 1.327 . S
C864 H889 0.950 . S
C865 C864 1.349 . S
C865 C881 1.349 . S
C866 C864 1.327 . S
C866 C885 1.429 . S
C866 H890 0.950 . S
C867 C884 1.574 . S
C867 C886 1.368 . S
C867 H891 0.949 . S
H868 C872 0.949 . S
C869 C870 1.349 . S
C869 C871 1.327 . S
C869 H892 0.950 . S
C870 C869 1.349 . S
C870 C882 1.349 . S
C871 C869 1.327 . S
C871 C887 1.429 . S
C871 H893 0.950 . S
C872 H868 0.949 . S
C872 C880 1.574 . S
C872 C888 1.368 . S
H873 C881 0.950 . S
H874 C879 0.950 . S
H875 C880 0.949 . S
H876 C882 0.950 . S
H877 C883 0.950 . S
H878 C884 0.949 . S
C879 H874 0.950 . S
C879 C881 1.327 . S
C879 C885 1.429 . S
C880 C872 1.574 . S
C880 H875 0.949 . S
C880 C886 1.368 . S
C881 C865 1.349 . S
C881 H873 0.950 . S
C881 C879 1.327 . S
C882 C870 1.349 . S
C882 H876 0.950 . S
C882 C883 1.327 . S
C883 H877 0.950 . S
C883 C882 1.327 . S
C883 C887 1.429 . S
C884 C867 1.574 . S
C884 H878 0.949 . S
C884 C888 1.368 . S
C885 C866 1.429 . S
C885 C879 1.429 . S
C885 C886 1.523 . S
C886 C867 1.368 . S
C886 C880 1.368 . S
C886 C885 1.523 . S
C887 C871 1.429 . S
C887 C883 1.429 . S
C887 C888 1.523 . S
C888 C872 1.368 . S
C888 C884 1.368 . S
C888 C887 1.523 . S
H889 C864 0.950 . S
H890 C866 0.950 . S
H891 C867 0.949 . S
H892 C869 0.950 . S
H893 C871 0.950 . S
C894 C895 1.349 . S
C894 C896 1.327 . S
C894 H919 0.950 . S
C895 C894 1.349 . S
C895 C911 1.349 . S
C896 C894 1.327 . S
C896 C915 1.429 . S
C896 H920 0.950 1_545 S
C897 C914 1.574 . S
C897 C916 1.368 . S
C897 H921 0.949 1_565 S
H898 C902 0.949 . S
C899 C900 1.349 . S
C899 C901 1.327 . S
C899 H922 0.950 . S
C900 C899 1.349 . S
C900 C912 1.349 . S
C901 C899 1.327 . S
C901 C917 1.429 . S
C901 H923 0.950 . S
C902 H898 0.949 . S
C902 C910 1.574 . S
C902 C918 1.368 . S
H903 C911 0.950 . S
H904 C909 0.950 . S
H905 C910 0.949 . S
H906 C912 0.950 . S
H907 C913 0.950 . S
H908 C914 0.949 . S
C909 H904 0.950 . S
C909 C911 1.327 . S
C909 C915 1.429 . S
C910 C902 1.574 . S
C910 H905 0.949 . S
C910 C916 1.368 . S
C911 C895 1.349 . S
C911 H903 0.950 . S
C911 C909 1.327 . S
C912 C900 1.349 . S
C912 H906 0.950 . S
C912 C913 1.327 . S
C913 H907 0.950 . S
C913 C912 1.327 . S
C913 C917 1.429 . S
C914 C897 1.574 . S
C914 H908 0.949 . S
C914 C918 1.368 . S
C915 C896 1.429 . S
C915 C909 1.429 . S
C915 C916 1.523 1_545 S
C916 C897 1.368 . S
C916 C910 1.368 . S
C916 C915 1.523 1_565 S
C917 C901 1.429 . S
C917 C913 1.429 . S
C917 C918 1.523 . S
C918 C902 1.368 . S
C918 C914 1.368 . S
C918 C917 1.523 . S
H919 C894 0.950 . S
H920 C896 0.950 1_565 S
H921 C897 0.949 1_545 S
H922 C899 0.950 . S
H923 C901 0.950 . S
C924 C925 1.349 . S
C924 C926 1.327 . S
C924 H949 0.950 . S
C925 C924 1.349 . S
C925 C941 1.349 . S
C926 C924 1.327 . S
C926 C945 1.429 . S
C926 H950 0.950 . S
C927 C944 1.574 . S
C927 C946 1.368 . S
C927 H951 0.949 . S
H928 C932 0.949 . S
C929 C930 1.349 . S
C929 C931 1.327 . S
C929 H952 0.950 . S
C930 C929 1.349 . S
C930 C942 1.349 . S
C931 C929 1.327 . S
C931 C947 1.429 . S
C931 H953 0.950 . S
C932 H928 0.949 . S
C932 C940 1.574 . S
C932 C948 1.368 . S
H933 C941 0.950 . S
H934 C939 0.950 . S
H935 C940 0.949 . S
H936 C942 0.950 . S
H937 C943 0.950 . S
H938 C944 0.949 . S
C939 H934 0.950 . S
C939 C941 1.327 . S
C939 C945 1.429 . S
C940 C932 1.574 . S
C940 H935 0.949 . S
C940 C946 1.368 . S
C941 C925 1.349 . S
C941 H933 0.950 . S
C941 C939 1.327 . S
C942 C930 1.349 . S
C942 H936 0.950 . S
C942 C943 1.327 . S
C943 H937 0.950 . S
C943 C942 1.327 . S
C943 C947 1.429 . S
C944 C927 1.574 . S
C944 H938 0.949 . S
C944 C948 1.368 . S
C945 C926 1.429 . S
C945 C939 1.429 . S
C945 C946 1.523 . S
C946 C927 1.368 . S
C946 C940 1.368 . S
C946 C945 1.523 . S
C947 C931 1.429 . S
C947 C943 1.429 . S
C947 C948 1.523 . S
C948 C932 1.368 . S
C948 C944 1.368 . S
C948 C947 1.523 . S
H949 C924 0.950 . S
H950 C926 0.950 . S
H951 C927 0.949 . S
H952 C929 0.950 . S
H953 C931 0.950 . S
C954 C955 1.349 . S
C954 C956 1.327 1_565 S
C954 H979 0.950 . S
C955 C954 1.349 . S
C955 C971 1.349 . S
C956 C954 1.327 1_545 S
C956 C975 1.429 . S
C956 H980 0.950 . S
C957 C974 1.574 . S
C957 C976 1.368 . S
C957 H981 0.949 . S
H958 C962 0.949 . S
C959 C960 1.349 . S
C959 C961 1.327 . S
C959 H982 0.950 . S
C960 C959 1.349 . S
C960 C972 1.349 . S
C961 C959 1.327 . S
C961 C977 1.429 . S
C961 H983 0.950 . S
C962 H958 0.949 . S
C962 C970 1.574 . S
C962 C978 1.368 . S
H963 C971 0.950 . S
H964 C969 0.950 . S
H965 C970 0.949 . S
H966 C972 0.950 . S
H967 C973 0.950 . S
H968 C974 0.949 . S
C969 H964 0.950 . S
C969 C971 1.327 . S
C969 C975 1.429 1_565 S
C970 C962 1.574 . S
C970 H965 0.949 . S
C970 C976 1.368 . S
C971 C955 1.349 . S
C971 H963 0.950 . S
C971 C969 1.327 . S
C972 C960 1.349 . S
C972 H966 0.950 . S
C972 C973 1.327 . S
C973 H967 0.950 . S
C973 C972 1.327 . S
C973 C977 1.429 . S
C974 C957 1.574 . S
C974 H968 0.949 . S
C974 C978 1.368 . S
C975 C956 1.429 . S
C975 C969 1.429 1_545 S
C975 C976 1.523 . S
C976 C957 1.368 . S
C976 C970 1.368 . S
C976 C975 1.523 . S
C977 C961 1.429 . S
C977 C973 1.429 . S
C977 C978 1.523 . S
C978 C962 1.368 . S
C978 C974 1.368 . S
C978 C977 1.523 . S
H979 C954 0.950 . S
H980 C956 0.950 . S
H981 C957 0.949 . S
H982 C959 0.950 . S
H983 C961 0.950 . S
C984 C985 1.349 . S
C984 C986 1.327 . S
C984 H1009 0.950 . S
C985 C984 1.349 . S
C985 C1001 1.349 . S
C986 C984 1.327 . S
C986 C1005 1.429 . S
C986 H1010 0.950 . S
C987 C1004 1.574 . S
C987 C1006 1.368 . S
C987 H1011 0.949 . S
H988 C992 0.949 . S
C989 C990 1.349 . S
C989 C991 1.327 . S
C989 H1012 0.950 . S
C990 C989 1.349 . S
C990 C1002 1.349 . S
C991 C989 1.327 . S
C991 C1007 1.429 . S
C991 H1013 0.950 . S
C992 H988 0.949 . S
C992 C1000 1.574 . S
C992 C1008 1.368 . S
H993 C1001 0.950 . S
H994 C999 0.950 . S
H995 C1000 0.949 . S
H996 C1002 0.950 . S
H997 C1003 0.950 . S
H998 C1004 0.949 . S
C999 H994 0.950 . S
C999 C1001 1.327 . S
C999 C1005 1.429 . S
C1000 C992 1.574 . S
C1000 H995 0.949 . S
C1000 C1006 1.368 . S
C1001 C985 1.349 . S
C1001 H993 0.950 . S
C1001 C999 1.327 . S
C1002 C990 1.349 . S
C1002 H996 0.950 . S
C1002 C1003 1.327 . S
C1003 H997 0.950 . S
C1003 C1002 1.327 . S
C1003 C1007 1.429 . S
C1004 C987 1.574 . S
C1004 H998 0.949 . S
C1004 C1008 1.368 . S
C1005 C986 1.429 . S
C1005 C999 1.429 . S
C1005 C1006 1.523 . S
C1006 C987 1.368 . S
C1006 C1000 1.368 . S
C1006 C1005 1.523 . S
C1007 C991 1.429 . S
C1007 C1003 1.429 . S
C1007 C1008 1.523 . S
C1008 C992 1.368 . S
C1008 C1004 1.368 . S
C1008 C1007 1.523 . S
H1009 C984 0.950 . S
H1010 C986 0.950 . S
H1011 C987 0.949 . S
H1012 C989 0.950 . S
H1013 C991 0.950 . S
C1014 C1015 1.349 . S
C1014 C1016 1.327 . S
C1014 H1039 0.950 . S
C1015 C1014 1.349 . S
C1015 C1031 1.349 . S
C1016 C1014 1.327 . S
C1016 C1035 1.429 1_545 S
C1016 H1040 0.950 . S
C1017 C1034 1.574 . S
C1017 C1036 1.368 . S
C1017 H1041 0.949 . S
H1018 C1022 0.949 . S
C1019 C1020 1.349 . S
C1019 C1021 1.327 . S
C1019 H1042 0.950 . S
C1020 C1019 1.349 . S
C1020 C1032 1.349 . S
C1021 C1019 1.327 . S
C1021 C1037 1.429 . S
C1021 H1043 0.950 . S
C1022 H1018 0.949 . S
C1022 C1030 1.574 . S
C1022 C1038 1.368 . S
H1023 C1031 0.950 . S
H1024 C1029 0.950 . S
H1025 C1030 0.949 1_545 S
H1026 C1032 0.950 . S
H1027 C1033 0.950 . S
H1028 C1034 0.949 . S
C1029 H1024 0.950 . S
C1029 C1031 1.327 1_565 S
C1029 C1035 1.429 . S
C1030 C1022 1.574 . S
C1030 H1025 0.949 1_565 S
C1030 C1036 1.368 . S
C1031 C1015 1.349 . S
C1031 H1023 0.950 . S
C1031 C1029 1.327 1_545 S
C1032 C1020 1.349 . S
C1032 H1026 0.950 . S
C1032 C1033 1.327 . S
C1033 H1027 0.950 . S
C1033 C1032 1.327 . S
C1033 C1037 1.429 . S
C1034 C1017 1.574 . S
C1034 H1028 0.949 . S
C1034 C1038 1.368 . S
C1035 C1016 1.429 1_565 S
C1035 C1029 1.429 . S
C1035 C1036 1.523 . S
C1036 C1017 1.368 . S
C1036 C1030 1.368 . S
C1036 C1035 1.523 . S
C1037 C1021 1.429 . S
C1037 C1033 1.429 . S
C1037 C1038 1.523 . S
C1038 C1022 1.368 . S
C1038 C1034 1.368 . S
C1038 C1037 1.523 . S
H1039 C1014 0.950 . S
H1040 C1016 0.950 . S
H1041 C1017 0.949 . S
H1042 C1019 0.950 . S
H1043 C1021 0.950 . S
C1044 C1045 1.349 . S
C1044 C1046 1.327 . S
C1044 H1069 0.950 . S
C1045 C1044 1.349 . S
C1045 C1061 1.349 . S
C1046 C1044 1.327 . S
C1046 C1065 1.429 . S
C1046 H1070 0.950 . S
C1047 C1064 1.574 . S
C1047 C1066 1.368 . S
C1047 H1071 0.949 . S
H1048 C1052 0.949 . S
C1049 C1050 1.349 . S
C1049 C1051 1.327 . S
C1049 H1072 0.950 . S
C1050 C1049 1.349 . S
C1050 C1062 1.349 . S
C1051 C1049 1.327 . S
C1051 C1067 1.429 . S
C1051 H1073 0.950 . S
C1052 H1048 0.949 . S
C1052 C1060 1.574 . S
C1052 C1068 1.368 . S
H1053 C1061 0.950 . S
H1054 C1059 0.950 . S
H1055 C1060 0.949 . S
H1056 C1062 0.950 . S
H1057 C1063 0.950 . S
H1058 C1064 0.949 . S
C1059 H1054 0.950 . S
C1059 C1061 1.327 . S
C1059 C1065 1.429 . S
C1060 C1052 1.574 . S
C1060 H1055 0.949 . S
C1060 C1066 1.368 . S
C1061 C1045 1.349 . S
C1061 H1053 0.950 . S
C1061 C1059 1.327 . S
C1062 C1050 1.349 . S
C1062 H1056 0.950 . S
C1062 C1063 1.327 . S
C1063 H1057 0.950 . S
C1063 C1062 1.327 . S
C1063 C1067 1.429 . S
C1064 C1047 1.574 . S
C1064 H1058 0.949 . S
C1064 C1068 1.368 . S
C1065 C1046 1.429 . S
C1065 C1059 1.429 . S
C1065 C1066 1.523 . S
C1066 C1047 1.368 . S
C1066 C1060 1.368 . S
C1066 C1065 1.523 . S
C1067 C1051 1.429 . S
C1067 C1063 1.429 . S
C1067 C1068 1.523 . S
C1068 C1052 1.368 . S
C1068 C1064 1.368 . S
C1068 C1067 1.523 . S
H1069 C1044 0.950 . S
H1070 C1046 0.950 . S
H1071 C1047 0.949 . S
H1072 C1049 0.950 . S
H1073 C1051 0.950 . S
C1074 C1075 1.349 1_545 S
C1074 C1076 1.327 . S
C1074 H1099 0.950 . S
C1075 C1074 1.349 1_565 S
C1075 C1091 1.349 . S
C1076 C1074 1.327 . S
C1076 C1095 1.429 . S
C1076 H1100 0.950 . S
C1077 C1094 1.574 . S
C1077 C1096 1.368 . S
C1077 H1101 0.949 . S
H1078 C1082 0.949 . S
C1079 C1080 1.349 . S
C1079 C1081 1.327 . S
C1079 H1102 0.950 . S
C1080 C1079 1.349 . S
C1080 C1092 1.349 . S
C1081 C1079 1.327 . S
C1081 C1097 1.429 . S
C1081 H1103 0.950 . S
C1082 H1078 0.949 . S
C1082 C1090 1.574 . S
C1082 C1098 1.368 . S
H1083 C1091 0.950 . S
H1084 C1089 0.948 1_565 S
H1085 C1090 0.949 . S
H1086 C1092 0.950 . S
H1087 C1093 0.950 . S
H1088 C1094 0.949 . S
C1089 H1084 0.948 1_545 S
C1089 C1091 1.319 1_545 S
C1089 C1095 1.438 . S
C1090 C1082 1.574 . S
C1090 H1085 0.949 . S
C1090 C1096 1.368 . S
C1091 C1075 1.349 . S
C1091 H1083 0.950 . S
C1091 C1089 1.319 1_565 S
C1092 C1080 1.349 . S
C1092 H1086 0.950 . S
C1092 C1093 1.327 . S
C1093 H1087 0.950 . S
C1093 C1092 1.327 . S
C1093 C1097 1.429 . S
C1094 C1077 1.574 . S
C1094 H1088 0.949 . S
C1094 C1098 1.368 . S
C1095 C1076 1.429 . S
C1095 C1089 1.438 . S
C1095 C1096 1.523 . S
C1096 C1077 1.368 . S
C1096 C1090 1.368 . S
C1096 C1095 1.523 . S
C1097 C1081 1.429 . S
C1097 C1093 1.429 . S
C1097 C1098 1.523 . S
C1098 C1082 1.368 . S
C1098 C1094 1.368 . S
C1098 C1097 1.523 . S
H1099 C1074 0.950 . S
H1100 C1076 0.950 . S
H1101 C1077 0.949 . S
H1102 C1079 0.950 . S
H1103 C1081 0.950 . S
C1104 C1105 1.349 . S
C1104 C1106 1.327 . S
C1104 H1129 0.950 . S
C1105 C1104 1.349 . S
C1105 C1121 1.349 . S
C1106 C1104 1.327 . S
C1106 C1125 1.429 . S
C1106 H1130 0.950 . S
C1107 C1124 1.574 . S
C1107 C1126 1.368 . S
C1107 H1131 0.949 . S
H1108 C1112 0.949 . S
C1109 C1110 1.349 . S
C1109 C1111 1.327 . S
C1109 H1132 0.950 . S
C1110 C1109 1.349 . S
C1110 C1122 1.349 . S
C1111 C1109 1.327 . S
C1111 C1127 1.429 . S
C1111 H1133 0.950 . S
C1112 H1108 0.949 . S
C1112 C1120 1.574 . S
C1112 C1128 1.368 . S
H1113 C1121 0.950 . S
H1114 C1119 0.950 . S
H1115 C1120 0.949 . S
H1116 C1122 0.950 . S
H1117 C1123 0.950 . S
H1118 C1124 0.949 . S
C1119 H1114 0.950 . S
C1119 C1121 1.327 . S
C1119 C1125 1.429 . S
C1120 C1112 1.574 . S
C1120 H1115 0.949 . S
C1120 C1126 1.368 . S
C1121 C1105 1.349 . S
C1121 H1113 0.950 . S
C1121 C1119 1.327 . S
C1122 C1110 1.349 . S
C1122 H1116 0.950 . S
C1122 C1123 1.327 . S
C1123 H1117 0.950 . S
C1123 C1122 1.327 . S
C1123 C1127 1.429 . S
C1124 C1107 1.574 . S
C1124 H1118 0.949 . S
C1124 C1128 1.368 . S
C1125 C1106 1.429 . S
C1125 C1119 1.429 . S
C1125 C1126 1.523 . S
C1126 C1107 1.368 . S
C1126 C1120 1.368 . S
C1126 C1125 1.523 . S
C1127 C1111 1.429 . S
C1127 C1123 1.429 . S
C1127 C1128 1.523 . S
C1128 C1112 1.368 . S
C1128 C1124 1.368 . S
C1128 C1127 1.523 . S
H1129 C1104 0.950 . S
H1130 C1106 0.950 . S
H1131 C1107 0.949 . S
H1132 C1109 0.950 . S
H1133 C1111 0.950 . S
C1134 C1135 1.349 . S
C1134 C1136 1.327 . S
C1134 H1159 0.950 . S
C1135 C1134 1.349 . S
C1135 C1151 1.349 . S
C1136 C1134 1.327 . S
C1136 C1155 1.429 . S
C1136 H1160 0.950 . S
C1137 C1154 1.574 . S
C1137 C1156 1.368 . S
C1137 H1161 0.949 . S
H1138 C1142 0.949 . S
C1139 C1140 1.349 . S
C1139 C1141 1.327 . S
C1139 H1162 0.950 . S
C1140 C1139 1.349 . S
C1140 C1152 1.349 . S
C1141 C1139 1.327 . S
C1141 C1157 1.429 . S
C1141 H1163 0.950 . S
C1142 H1138 0.949 . S
C1142 C1150 1.574 . S
C1142 C1158 1.368 . S
H1143 C1151 0.950 . S
H1144 C1149 0.950 . S
H1145 C1150 0.949 . S
H1146 C1152 0.950 . S
H1147 C1153 0.950 . S
H1148 C1154 0.949 . S
C1149 H1144 0.950 . S
C1149 C1151 1.327 . S
C1149 C1155 1.429 . S
C1150 C1142 1.574 . S
C1150 H1145 0.949 . S
C1150 C1156 1.368 . S
C1151 C1135 1.349 . S
C1151 H1143 0.950 . S
C1151 C1149 1.327 . S
C1152 C1140 1.349 . S
C1152 H1146 0.950 . S
C1152 C1153 1.327 . S
C1153 H1147 0.950 . S
C1153 C1152 1.327 . S
C1153 C1157 1.429 . S
C1154 C1137 1.574 . S
C1154 H1148 0.949 . S
C1154 C1158 1.368 . S
C1155 C1136 1.429 . S
C1155 C1149 1.429 . S
C1155 C1156 1.523 . S
C1156 C1137 1.368 . S
C1156 C1150 1.368 . S
C1156 C1155 1.523 . S
C1157 C1141 1.429 . S
C1157 C1153 1.429 . S
C1157 C1158 1.523 . S
C1158 C1142 1.368 . S
C1158 C1154 1.368 . S
C1158 C1157 1.523 . S
H1159 C1134 0.950 . S
H1160 C1136 0.950 . S
H1161 C1137 0.949 . S
H1162 C1139 0.950 . S
H1163 C1141 0.950 . S
C1164 C1165 1.349 . S
C1164 C1166 1.327 . S
C1164 H1189 0.950 . S
C1165 C1164 1.349 . S
C1165 C1181 1.349 . S
C1166 C1164 1.327 . S
C1166 C1185 1.429 . S
C1166 H1190 0.950 . S
C1167 C1184 1.574 . S
C1167 C1186 1.368 . S
C1167 H1191 0.949 . S
H1168 C1172 0.949 . S
C1169 C1170 1.349 . S
C1169 C1171 1.327 . S
C1169 H1192 0.950 . S
C1170 C1169 1.349 . S
C1170 C1182 1.349 . S
C1171 C1169 1.327 . S
C1171 C1187 1.429 . S
C1171 H1193 0.950 . S
C1172 H1168 0.949 . S
C1172 C1180 1.574 . S
C1172 C1188 1.368 . S
H1173 C1181 0.950 . S
H1174 C1179 0.950 . S
H1175 C1180 0.949 . S
H1176 C1182 0.950 . S
H1177 C1183 0.950 . S
H1178 C1184 0.949 . S
C1179 H1174 0.950 . S
C1179 C1181 1.327 . S
C1179 C1185 1.429 . S
C1180 C1172 1.574 . S
C1180 H1175 0.949 . S
C1180 C1186 1.368 . S
C1181 C1165 1.349 . S
C1181 H1173 0.950 . S
C1181 C1179 1.327 . S
C1182 C1170 1.349 . S
C1182 H1176 0.950 . S
C1182 C1183 1.327 . S
C1183 H1177 0.950 . S
C1183 C1182 1.327 . S
C1183 C1187 1.429 . S
C1184 C1167 1.574 . S
C1184 H1178 0.949 . S
C1184 C1188 1.368 . S
C1185 C1166 1.429 . S
C1185 C1179 1.429 . S
C1185 C1186 1.523 . S
C1186 C1167 1.368 . S
C1186 C1180 1.368 . S
C1186 C1185 1.523 . S
C1187 C1171 1.429 . S
C1187 C1183 1.429 . S
C1187 C1188 1.523 . S
C1188 C1172 1.368 . S
C1188 C1184 1.368 . S
C1188 C1187 1.523 . S
H1189 C1164 0.950 . S
H1190 C1166 0.950 . S
H1191 C1167 0.949 . S
H1192 C1169 0.950 . S
H1193 C1171 0.950 . S
C1194 C1195 1.349 . S
C1194 C1196 1.327 . S
C1194 H1219 0.950 . S
C1195 C1194 1.349 . S
C1195 C1211 1.349 . S
C1196 C1194 1.327 . S
C1196 C1215 1.429 . S
C1196 H1220 0.950 . S
C1197 C1214 1.574 . S
C1197 C1216 1.368 . S
C1197 H1221 0.949 . S
H1198 C1202 0.949 . S
C1199 C1200 1.349 . S
C1199 C1201 1.327 . S
C1199 H1222 0.950 . S
C1200 C1199 1.349 . S
C1200 C1212 1.349 . S
C1201 C1199 1.327 . S
C1201 C1217 1.429 . S
C1201 H1223 0.950 . S
C1202 H1198 0.949 . S
C1202 C1210 1.574 . S
C1202 C1218 1.368 . S
H1203 C1211 0.950 . S
H1204 C1209 0.950 . S
H1205 C1210 0.949 . S
H1206 C1212 0.950 . S
H1207 C1213 0.950 . S
H1208 C1214 0.949 . S
C1209 H1204 0.950 . S
C1209 C1211 1.327 . S
C1209 C1215 1.429 . S
C1210 C1202 1.574 . S
C1210 H1205 0.949 . S
C1210 C1216 1.368 . S
C1211 C1195 1.349 . S
C1211 H1203 0.950 . S
C1211 C1209 1.327 . S
C1212 C1200 1.349 . S
C1212 H1206 0.950 . S
C1212 C1213 1.327 . S
C1213 H1207 0.950 . S
C1213 C1212 1.327 . S
C1213 C1217 1.429 . S
C1214 C1197 1.574 . S
C1214 H1208 0.949 . S
C1214 C1218 1.368 . S
C1215 C1196 1.429 . S
C1215 C1209 1.429 . S
C1215 C1216 1.523 . S
C1216 C1197 1.368 . S
C1216 C1210 1.368 . S
C1216 C1215 1.523 . S
C1217 C1201 1.429 . S
C1217 C1213 1.429 . S
C1217 C1218 1.523 . S
C1218 C1202 1.368 . S
C1218 C1214 1.368 . S
C1218 C1217 1.523 . S
H1219 C1194 0.950 . S
H1220 C1196 0.950 . S
H1221 C1197 0.949 . S
H1222 C1199 0.950 . S
H1223 C1201 0.950 . S
C1224 C1225 1.349 . S
C1224 C1226 1.327 . S
C1224 H1249 0.950 . S
C1225 C1224 1.349 . S
C1225 C1241 1.349 . S
C1226 C1224 1.327 . S
C1226 C1245 1.429 . S
C1226 H1250 0.950 . S
C1227 C1244 1.574 . S
C1227 C1246 1.368 . S
C1227 H1251 0.949 . S
H1228 C1232 0.949 . S
C1229 C1230 1.349 . S
C1229 C1231 1.327 . S
C1229 H1252 0.950 . S
C1230 C1229 1.349 . S
C1230 C1242 1.349 . S
C1231 C1229 1.327 . S
C1231 C1247 1.429 . S
C1231 H1253 0.950 . S
C1232 H1228 0.949 . S
C1232 C1240 1.574 . S
C1232 C1248 1.368 . S
H1233 C1241 0.950 . S
H1234 C1239 0.950 . S
H1235 C1240 0.949 . S
H1236 C1242 0.950 . S
H1237 C1243 0.950 . S
H1238 C1244 0.949 . S
C1239 H1234 0.950 . S
C1239 C1241 1.327 . S
C1239 C1245 1.429 . S
C1240 C1232 1.574 . S
C1240 H1235 0.949 . S
C1240 C1246 1.368 . S
C1241 C1225 1.349 . S
C1241 H1233 0.950 . S
C1241 C1239 1.327 . S
C1242 C1230 1.349 . S
C1242 H1236 0.950 . S
C1242 C1243 1.327 . S
C1243 H1237 0.950 . S
C1243 C1242 1.327 . S
C1243 C1247 1.429 . S
C1244 C1227 1.574 . S
C1244 H1238 0.949 . S
C1244 C1248 1.368 . S
C1245 C1226 1.429 . S
C1245 C1239 1.429 . S
C1245 C1246 1.523 . S
C1246 C1227 1.368 . S
C1246 C1240 1.368 . S
C1246 C1245 1.523 . S
C1247 C1231 1.429 . S
C1247 C1243 1.429 . S
C1247 C1248 1.523 . S
C1248 C1232 1.368 . S
C1248 C1244 1.368 . S
C1248 C1247 1.523 . S
H1249 C1224 0.950 . S
H1250 C1226 0.950 . S
H1251 C1227 0.949 . S
H1252 C1229 0.950 . S
H1253 C1231 0.950 . S
C1254 C1255 1.349 . S
C1254 C1256 1.327 . S
C1254 H1279 0.950 . S
C1255 C1254 1.349 . S
C1255 C1271 1.349 . S
C1256 C1254 1.327 . S
C1256 C1275 1.429 . S
C1256 H1280 0.950 . S
C1257 C1274 1.574 . S
C1257 C1276 1.368 . S
C1257 H1281 0.949 . S
H1258 C1262 0.949 . S
C1259 C1260 1.349 . S
C1259 C1261 1.327 . S
C1259 H1282 0.950 . S
C1260 C1259 1.349 . S
C1260 C1272 1.349 . S
C1261 C1259 1.327 . S
C1261 C1277 1.429 . S
C1261 H1283 0.950 . S
C1262 H1258 0.949 . S
C1262 C1270 1.574 . S
C1262 C1278 1.368 . S
H1263 C1271 0.950 . S
H1264 C1269 0.950 . S
H1265 C1270 0.949 . S
H1266 C1272 0.950 . S
H1267 C1273 0.950 . S
H1268 C1274 0.949 . S
C1269 H1264 0.950 . S
C1269 C1271 1.327 . S
C1269 C1275 1.429 . S
C1270 C1262 1.574 . S
C1270 H1265 0.949 . S
C1270 C1276 1.368 . S
C1271 C1255 1.349 . S
C1271 H1263 0.950 . S
C1271 C1269 1.327 . S
C1272 C1260 1.349 . S
C1272 H1266 0.950 . S
C1272 C1273 1.327 . S
C1273 H1267 0.950 . S
C1273 C1272 1.327 . S
C1273 C1277 1.429 . S
C1274 C1257 1.574 . S
C1274 H1268 0.949 . S
C1274 C1278 1.368 . S
C1275 C1256 1.429 . S
C1275 C1269 1.429 . S
C1275 C1276 1.523 . S
C1276 C1257 1.368 . S
C1276 C1270 1.368 . S
C1276 C1275 1.523 . S
C1277 C1261 1.429 . S
C1277 C1273 1.429 . S
C1277 C1278 1.523 . S
C1278 C1262 1.368 . S
C1278 C1274 1.368 . S
C1278 C1277 1.523 . S
H1279 C1254 0.950 . S
H1280 C1256 0.950 . S
H1281 C1257 0.949 . S
H1282 C1259 0.950 . S
H1283 C1261 0.950 . S
C1284 C1285 1.349 . S
C1284 C1286 1.327 . S
C1284 H1309 0.950 . S
C1285 C1284 1.349 . S
C1285 C1301 1.349 . S
C1286 C1284 1.327 . S
C1286 C1305 1.429 . S
C1286 H1310 0.950 . S
C1287 C1304 1.574 . S
C1287 C1306 1.368 . S
C1287 H1311 0.949 . S
H1288 C1292 0.949 . S
C1289 C1290 1.349 . S
C1289 C1291 1.327 . S
C1289 H1312 0.950 . S
C1290 C1289 1.349 . S
C1290 C1302 1.349 . S
C1291 C1289 1.327 . S
C1291 C1307 1.429 . S
C1291 H1313 0.950 . S
C1292 H1288 0.949 . S
C1292 C1300 1.574 . S
C1292 C1308 1.368 . S
H1293 C1301 0.950 . S
H1294 C1299 0.950 . S
H1295 C1300 0.949 . S
H1296 C1302 0.950 . S
H1297 C1303 0.950 . S
H1298 C1304 0.949 . S
C1299 H1294 0.950 . S
C1299 C1301 1.327 . S
C1299 C1305 1.429 . S
C1300 C1292 1.574 . S
C1300 H1295 0.949 . S
C1300 C1306 1.368 . S
C1301 C1285 1.349 . S
C1301 H1293 0.950 . S
C1301 C1299 1.327 . S
C1302 C1290 1.349 . S
C1302 H1296 0.950 . S
C1302 C1303 1.327 . S
C1303 H1297 0.950 . S
C1303 C1302 1.327 . S
C1303 C1307 1.429 . S
C1304 C1287 1.574 . S
C1304 H1298 0.949 . S
C1304 C1308 1.368 . S
C1305 C1286 1.429 . S
C1305 C1299 1.429 . S
C1305 C1306 1.523 . S
C1306 C1287 1.368 . S
C1306 C1300 1.368 . S
C1306 C1305 1.523 . S
C1307 C1291 1.429 . S
C1307 C1303 1.429 . S
C1307 C1308 1.523 . S
C1308 C1292 1.368 . S
C1308 C1304 1.368 . S
C1308 C1307 1.523 . S
H1309 C1284 0.950 . S
H1310 C1286 0.950 . S
H1311 C1287 0.949 . S
H1312 C1289 0.950 . S
H1313 C1291 0.950 . S
C1314 C1315 1.349 . S
C1314 C1316 1.327 . S
C1314 H1339 0.950 . S
C1315 C1314 1.349 . S
C1315 C1331 1.349 . S
C1316 C1314 1.327 . S
C1316 C1335 1.429 . S
C1316 H1340 0.950 . S
C1317 C1334 1.574 . S
C1317 C1336 1.368 . S
C1317 H1341 0.949 . S
H1318 C1322 0.949 . S
C1319 C1320 1.349 . S
C1319 C1321 1.327 . S
C1319 H1342 0.950 . S
C1320 C1319 1.349 . S
C1320 C1332 1.349 . S
C1321 C1319 1.327 . S
C1321 C1337 1.429 . S
C1321 H1343 0.950 . S
C1322 H1318 0.949 . S
C1322 C1330 1.574 . S
C1322 C1338 1.368 . S
H1323 C1331 0.950 . S
H1324 C1329 0.950 . S
H1325 C1330 0.949 . S
H1326 C1332 0.950 . S
H1327 C1333 0.950 . S
H1328 C1334 0.949 . S
C1329 H1324 0.950 . S
C1329 C1331 1.327 . S
C1329 C1335 1.429 . S
C1330 C1322 1.574 . S
C1330 H1325 0.949 . S
C1330 C1336 1.368 . S
C1331 C1315 1.349 . S
C1331 H1323 0.950 . S
C1331 C1329 1.327 . S
C1332 C1320 1.349 . S
C1332 H1326 0.950 . S
C1332 C1333 1.327 . S
C1333 H1327 0.950 . S
C1333 C1332 1.327 . S
C1333 C1337 1.429 . S
C1334 C1317 1.574 . S
C1334 H1328 0.949 . S
C1334 C1338 1.368 . S
C1335 C1316 1.429 . S
C1335 C1329 1.429 . S
C1335 C1336 1.523 . S
C1336 C1317 1.368 . S
C1336 C1330 1.368 . S
C1336 C1335 1.523 . S
C1337 C1321 1.429 . S
C1337 C1333 1.429 . S
C1337 C1338 1.523 . S
C1338 C1322 1.368 . S
C1338 C1334 1.368 . S
C1338 C1337 1.523 . S
H1339 C1314 0.950 . S
H1340 C1316 0.950 . S
H1341 C1317 0.949 . S
H1342 C1319 0.950 . S
H1343 C1321 0.950 . S
C1344 C1345 1.349 . S
C1344 C1346 1.327 . S
C1344 H1369 0.950 . S
C1345 C1344 1.349 . S
C1345 C1361 1.349 . S
C1346 C1344 1.327 . S
C1346 C1365 1.429 . S
C1346 H1370 0.950 . S
C1347 C1364 1.574 . S
C1347 C1366 1.368 . S
C1347 H1371 0.949 . S
H1348 C1352 0.949 . S
C1349 C1350 1.349 . S
C1349 C1351 1.327 . S
C1349 H1372 0.950 . S
C1350 C1349 1.349 . S
C1350 C1362 1.349 . S
C1351 C1349 1.327 . S
C1351 C1367 1.429 . S
C1351 H1373 0.950 . S
C1352 H1348 0.949 . S
C1352 C1360 1.574 . S
C1352 C1368 1.368 . S
H1353 C1361 0.950 . S
H1354 C1359 0.950 . S
H1355 C1360 0.949 . S
H1356 C1362 0.950 . S
H1357 C1363 0.950 . S
H1358 C1364 0.949 . S
C1359 H1354 0.950 . S
C1359 C1361 1.327 . S
C1359 C1365 1.429 . S
C1360 C1352 1.574 . S
C1360 H1355 0.949 . S
C1360 C1366 1.368 . S
C1361 C1345 1.349 . S
C1361 H1353 0.950 . S
C1361 C1359 1.327 . S
C1362 C1350 1.349 . S
C1362 H1356 0.950 . S
C1362 C1363 1.327 . S
C1363 H1357 0.950 . S
C1363 C1362 1.327 . S
C1363 C1367 1.429 . S
C1364 C1347 1.574 . S
C1364 H1358 0.949 . S
C1364 C1368 1.368 . S
C1365 C1346 1.429 . S
C1365 C1359 1.429 . S
C1365 C1366 1.523 . S
C1366 C1347 1.368 . S
C1366 C1360 1.368 . S
C1366 C1365 1.523 . S
C1367 C1351 1.429 . S
C1367 C1363 1.429 . S
C1367 C1368 1.523 . S
C1368 C1352 1.368 . S
C1368 C1364 1.368 . S
C1368 C1367 1.523 . S
H1369 C1344 0.950 . S
H1370 C1346 0.950 . S
H1371 C1347 0.949 . S
H1372 C1349 0.950 . S
H1373 C1351 0.950 . S
C1374 C1375 1.349 . S
C1374 C1376 1.327 . S
C1374 H1399 0.950 . S
C1375 C1374 1.349 . S
C1375 C1391 1.349 . S
C1376 C1374 1.327 . S
C1376 C1395 1.429 . S
C1376 H1400 0.950 . S
C1377 C1394 1.574 . S
C1377 C1396 1.368 . S
C1377 H1401 0.949 . S
H1378 C1382 0.949 . S
C1379 C1380 1.349 . S
C1379 C1381 1.327 . S
C1379 H1402 0.950 . S
C1380 C1379 1.349 . S
C1380 C1392 1.349 . S
C1381 C1379 1.327 . S
C1381 C1397 1.429 . S
C1381 H1403 0.950 . S
C1382 H1378 0.949 . S
C1382 C1390 1.574 . S
C1382 C1398 1.368 . S
H1383 C1391 0.950 . S
H1384 C1389 0.950 . S
H1385 C1390 0.949 . S
H1386 C1392 0.950 . S
H1387 C1393 0.950 . S
H1388 C1394 0.949 . S
C1389 H1384 0.950 . S
C1389 C1391 1.327 . S
C1389 C1395 1.429 . S
C1390 C1382 1.574 . S
C1390 H1385 0.949 . S
C1390 C1396 1.368 . S
C1391 C1375 1.349 . S
C1391 H1383 0.950 . S
C1391 C1389 1.327 . S
C1392 C1380 1.349 . S
C1392 H1386 0.950 . S
C1392 C1393 1.327 . S
C1393 H1387 0.950 . S
C1393 C1392 1.327 . S
C1393 C1397 1.429 . S
C1394 C1377 1.574 . S
C1394 H1388 0.949 . S
C1394 C1398 1.368 . S
C1395 C1376 1.429 . S
C1395 C1389 1.429 . S
C1395 C1396 1.523 . S
C1396 C1377 1.368 . S
C1396 C1390 1.368 . S
C1396 C1395 1.523 . S
C1397 C1381 1.429 . S
C1397 C1393 1.429 . S
C1397 C1398 1.523 . S
C1398 C1382 1.368 . S
C1398 C1394 1.368 . S
C1398 C1397 1.523 . S
H1399 C1374 0.950 . S
H1400 C1376 0.950 . S
H1401 C1377 0.949 . S
H1402 C1379 0.950 . S
H1403 C1381 0.950 . S
C1404 C1405 1.349 . S
C1404 C1406 1.327 . S
C1404 H1429 0.950 . S
C1405 C1404 1.349 . S
C1405 C1421 1.349 . S
C1406 C1404 1.327 . S
C1406 C1425 1.429 . S
C1406 H1430 0.950 . S
C1407 C1424 1.574 . S
C1407 C1426 1.368 . S
C1407 H1431 0.949 . S
H1408 C1412 0.949 . S
C1409 C1410 1.349 . S
C1409 C1411 1.327 . S
C1409 H1432 0.950 . S
C1410 C1409 1.349 . S
C1410 C1422 1.349 . S
C1411 C1409 1.327 . S
C1411 C1427 1.429 . S
C1411 H1433 0.950 . S
C1412 H1408 0.949 . S
C1412 C1420 1.574 . S
C1412 C1428 1.368 . S
H1413 C1421 0.950 . S
H1414 C1419 0.950 . S
H1415 C1420 0.949 . S
H1416 C1422 0.950 . S
H1417 C1423 0.950 . S
H1418 C1424 0.949 . S
C1419 H1414 0.950 . S
C1419 C1421 1.327 . S
C1419 C1425 1.429 . S
C1420 C1412 1.574 . S
C1420 H1415 0.949 . S
C1420 C1426 1.368 . S
C1421 C1405 1.349 . S
C1421 H1413 0.950 . S
C1421 C1419 1.327 . S
C1422 C1410 1.349 . S
C1422 H1416 0.950 . S
C1422 C1423 1.327 . S
C1423 H1417 0.950 . S
C1423 C1422 1.327 . S
C1423 C1427 1.429 . S
C1424 C1407 1.574 . S
C1424 H1418 0.949 . S
C1424 C1428 1.368 . S
C1425 C1406 1.429 . S
C1425 C1419 1.429 . S
C1425 C1426 1.523 . S
C1426 C1407 1.368 . S
C1426 C1420 1.368 . S
C1426 C1425 1.523 . S
C1427 C1411 1.429 . S
C1427 C1423 1.429 . S
C1427 C1428 1.523 . S
C1428 C1412 1.368 . S
C1428 C1424 1.368 . S
C1428 C1427 1.523 . S
H1429 C1404 0.950 . S
H1430 C1406 0.950 . S
H1431 C1407 0.949 . S
H1432 C1409 0.950 . S
H1433 C1411 0.950 . S
C1434 C1435 1.349 . S
C1434 C1436 1.327 . S
C1434 H1459 0.950 . S
C1435 C1434 1.349 . S
C1435 C1451 1.349 . S
C1436 C1434 1.327 . S
C1436 C1455 1.429 . S
C1436 H1460 0.950 . S
C1437 C1454 1.574 . S
C1437 C1456 1.368 . S
C1437 H1461 0.949 . S
H1438 C1442 0.949 . S
C1439 C1440 1.349 . S
C1439 C1441 1.327 . S
C1439 H1462 0.950 . S
C1440 C1439 1.349 . S
C1440 C1452 1.349 . S
C1441 C1439 1.327 . S
C1441 C1457 1.429 . S
C1441 H1463 0.950 . S
C1442 H1438 0.949 . S
C1442 C1450 1.574 . S
C1442 C1458 1.368 . S
H1443 C1451 0.950 . S
H1444 C1449 0.950 . S
H1445 C1450 0.949 . S
H1446 C1452 0.950 . S
H1447 C1453 0.950 . S
H1448 C1454 0.949 . S
C1449 H1444 0.950 . S
C1449 C1451 1.327 . S
C1449 C1455 1.429 . S
C1450 C1442 1.574 . S
C1450 H1445 0.949 . S
C1450 C1456 1.368 . S
C1451 C1435 1.349 . S
C1451 H1443 0.950 . S
C1451 C1449 1.327 . S
C1452 C1440 1.349 . S
C1452 H1446 0.950 . S
C1452 C1453 1.327 . S
C1453 H1447 0.950 . S
C1453 C1452 1.327 . S
C1453 C1457 1.429 . S
C1454 C1437 1.574 . S
C1454 H1448 0.949 . S
C1454 C1458 1.368 . S
C1455 C1436 1.429 . S
C1455 C1449 1.429 . S
C1455 C1456 1.523 . S
C1456 C1437 1.368 . S
C1456 C1450 1.368 . S
C1456 C1455 1.523 . S
C1457 C1441 1.429 . S
C1457 C1453 1.429 . S
C1457 C1458 1.523 . S
C1458 C1442 1.368 . S
C1458 C1454 1.368 . S
C1458 C1457 1.523 . S
H1459 C1434 0.950 . S
H1460 C1436 0.950 . S
H1461 C1437 0.949 . S
H1462 C1439 0.950 . S
H1463 C1441 0.950 . S
C1464 C1465 1.349 . S
C1464 C1466 1.327 . S
C1464 H1489 0.950 . S
C1465 C1464 1.349 . S
C1465 C1481 1.349 . S
C1466 C1464 1.327 . S
C1466 C1485 1.429 . S
C1466 H1490 0.950 . S
C1467 C1484 1.574 . S
C1467 C1486 1.368 . S
C1467 H1491 0.949 . S
H1468 C1472 0.949 . S
C1469 C1470 1.349 . S
C1469 C1471 1.327 . S
C1469 H1492 0.950 . S
C1470 C1469 1.349 . S
C1470 C1482 1.349 . S
C1471 C1469 1.327 . S
C1471 C1487 1.429 . S
C1471 H1493 0.950 . S
C1472 H1468 0.949 . S
C1472 C1480 1.574 . S
C1472 C1488 1.368 . S
H1473 C1481 0.950 . S
H1474 C1479 0.950 . S
H1475 C1480 0.949 . S
H1476 C1482 0.950 . S
H1477 C1483 0.950 . S
H1478 C1484 0.949 . S
C1479 H1474 0.950 . S
C1479 C1481 1.327 . S
C1479 C1485 1.429 . S
C1480 C1472 1.574 . S
C1480 H1475 0.949 . S
C1480 C1486 1.368 . S
C1481 C1465 1.349 . S
C1481 H1473 0.950 . S
C1481 C1479 1.327 . S
C1482 C1470 1.349 . S
C1482 H1476 0.950 . S
C1482 C1483 1.327 . S
C1483 H1477 0.950 . S
C1483 C1482 1.327 . S
C1483 C1487 1.429 . S
C1484 C1467 1.574 . S
C1484 H1478 0.949 . S
C1484 C1488 1.368 . S
C1485 C1466 1.429 . S
C1485 C1479 1.429 . S
C1485 C1486 1.523 . S
C1486 C1467 1.368 . S
C1486 C1480 1.368 . S
C1486 C1485 1.523 . S
C1487 C1471 1.429 . S
C1487 C1483 1.429 . S
C1487 C1488 1.523 . S
C1488 C1472 1.368 . S
C1488 C1484 1.368 . S
C1488 C1487 1.523 . S
H1489 C1464 0.950 . S
H1490 C1466 0.950 . S
H1491 C1467 0.949 . S
H1492 C1469 0.950 . S
H1493 C1471 0.950 . S
C1494 C1495 1.349 . S
C1494 C1496 1.327 . S
C1494 H1519 0.950 . S
C1495 C1494 1.349 . S
C1495 C1511 1.349 . S
C1496 C1494 1.327 . S
C1496 C1515 1.429 . S
C1496 H1520 0.950 . S
C1497 C1514 1.574 . S
C1497 C1516 1.368 . S
C1497 H1521 0.949 . S
H1498 C1502 0.949 . S
C1499 C1500 1.349 . S
C1499 C1501 1.327 . S
C1499 H1522 0.950 . S
C1500 C1499 1.349 . S
C1500 C1512 1.349 . S
C1501 C1499 1.327 . S
C1501 C1517 1.429 . S
C1501 H1523 0.950 . S
C1502 H1498 0.949 . S
C1502 C1510 1.574 . S
C1502 C1518 1.368 . S
H1503 C1511 0.950 . S
H1504 C1509 0.950 . S
H1505 C1510 0.949 . S
H1506 C1512 0.950 . S
H1507 C1513 0.950 . S
H1508 C1514 0.949 . S
C1509 H1504 0.950 . S
C1509 C1511 1.327 . S
C1509 C1515 1.429 . S
C1510 C1502 1.574 . S
C1510 H1505 0.949 . S
C1510 C1516 1.368 . S
C1511 C1495 1.349 . S
C1511 H1503 0.950 . S
C1511 C1509 1.327 . S
C1512 C1500 1.349 . S
C1512 H1506 0.950 . S
C1512 C1513 1.327 . S
C1513 H1507 0.950 . S
C1513 C1512 1.327 . S
C1513 C1517 1.429 . S
C1514 C1497 1.574 . S
C1514 H1508 0.949 . S
C1514 C1518 1.368 . S
C1515 C1496 1.429 . S
C1515 C1509 1.429 . S
C1515 C1516 1.523 . S
C1516 C1497 1.368 . S
C1516 C1510 1.368 . S
C1516 C1515 1.523 . S
C1517 C1501 1.429 . S
C1517 C1513 1.429 . S
C1517 C1518 1.523 . S
C1518 C1502 1.368 . S
C1518 C1514 1.368 . S
C1518 C1517 1.523 . S
H1519 C1494 0.950 . S
H1520 C1496 0.950 . S
H1521 C1497 0.949 . S
H1522 C1499 0.950 . S
H1523 C1501 0.950 . S
C1524 C1525 1.349 . S
C1524 C1526 1.327 . S
C1524 H1549 0.950 . S
C1525 C1524 1.349 . S
C1525 C1541 1.349 . S
C1526 C1524 1.327 . S
C1526 C1545 1.429 . S
C1526 H1550 0.950 . S
C1527 C1544 1.574 . S
C1527 C1546 1.368 . S
C1527 H1551 0.949 . S
H1528 C1532 0.949 . S
C1529 C1530 1.349 . S
C1529 C1531 1.327 . S
C1529 H1552 0.950 . S
C1530 C1529 1.349 . S
C1530 C1542 1.349 . S
C1531 C1529 1.327 . S
C1531 C1547 1.429 . S
C1531 H1553 0.950 . S
C1532 H1528 0.949 . S
C1532 C1540 1.574 . S
C1532 C1548 1.368 . S
H1533 C1541 0.950 . S
H1534 C1539 0.950 . S
H1535 C1540 0.949 . S
H1536 C1542 0.950 . S
H1537 C1543 0.950 . S
H1538 C1544 0.949 . S
C1539 H1534 0.950 . S
C1539 C1541 1.327 . S
C1539 C1545 1.429 . S
C1540 C1532 1.574 . S
C1540 H1535 0.949 . S
C1540 C1546 1.368 . S
C1541 C1525 1.349 . S
C1541 H1533 0.950 . S
C1541 C1539 1.327 . S
C1542 C1530 1.349 . S
C1542 H1536 0.950 . S
C1542 C1543 1.327 . S
C1543 H1537 0.950 . S
C1543 C1542 1.327 . S
C1543 C1547 1.429 . S
C1544 C1527 1.574 . S
C1544 H1538 0.949 . S
C1544 C1548 1.368 . S
C1545 C1526 1.429 . S
C1545 C1539 1.429 . S
C1545 C1546 1.523 . S
C1546 C1527 1.368 . S
C1546 C1540 1.368 . S
C1546 C1545 1.523 . S
C1547 C1531 1.429 . S
C1547 C1543 1.429 . S
C1547 C1548 1.523 . S
C1548 C1532 1.368 . S
C1548 C1544 1.368 . S
C1548 C1547 1.523 . S
H1549 C1524 0.950 . S
H1550 C1526 0.950 . S
H1551 C1527 0.949 . S
H1552 C1529 0.950 . S
H1553 C1531 0.950 . S
C1554 C1555 1.349 . S
C1554 C1556 1.327 . S
C1554 H1579 0.950 . S
C1555 C1554 1.349 . S
C1555 C1571 1.349 . S
C1556 C1554 1.327 . S
C1556 C1575 1.429 . S
C1556 H1580 0.950 . S
C1557 C1574 1.574 . S
C1557 C1576 1.368 . S
C1557 H1581 0.949 . S
H1558 C1562 0.949 . S
C1559 C1560 1.349 . S
C1559 C1561 1.327 . S
C1559 H1582 0.950 . S
C1560 C1559 1.349 . S
C1560 C1572 1.349 . S
C1561 C1559 1.327 . S
C1561 C1577 1.429 . S
C1561 H1583 0.950 . S
C1562 H1558 0.949 . S
C1562 C1570 1.574 . S
C1562 C1578 1.368 . S
H1563 C1571 0.950 . S
H1564 C1569 0.950 . S
H1565 C1570 0.949 . S
H1566 C1572 0.950 . S
H1567 C1573 0.950 . S
H1568 C1574 0.949 . S
C1569 H1564 0.950 . S
C1569 C1571 1.327 . S
C1569 C1575 1.429 . S
C1570 C1562 1.574 . S
C1570 H1565 0.949 . S
C1570 C1576 1.368 . S
C1571 C1555 1.349 . S
C1571 H1563 0.950 . S
C1571 C1569 1.327 . S
C1572 C1560 1.349 . S
C1572 H1566 0.950 . S
C1572 C1573 1.327 . S
C1573 H1567 0.950 . S
C1573 C1572 1.327 . S
C1573 C1577 1.429 . S
C1574 C1557 1.574 . S
C1574 H1568 0.949 . S
C1574 C1578 1.368 . S
C1575 C1556 1.429 . S
C1575 C1569 1.429 . S
C1575 C1576 1.523 . S
C1576 C1557 1.368 . S
C1576 C1570 1.368 . S
C1576 C1575 1.523 . S
C1577 C1561 1.429 . S
C1577 C1573 1.429 . S
C1577 C1578 1.523 . S
C1578 C1562 1.368 . S
C1578 C1574 1.368 . S
C1578 C1577 1.523 . S
H1579 C1554 0.950 . S
H1580 C1556 0.950 . S
H1581 C1557 0.949 . S
H1582 C1559 0.950 . S
H1583 C1561 0.950 . S
C630 C545 1.398 . S
C625 C53 1.417 . S
C655 C115 1.429 . S
C660 C577 1.407 . S
C685 C177 1.433 . S
C690 C600 1.416 . S
C720 C504 1.429 . S
C715 C239 1.440 . S
C750 C587 1.523 . S
C745 C47 1.576 . S
C780 C616 1.518 . S
C775 C109 1.558 . S
C810 C520 1.528 . S
C805 C171 1.564 . S
C840 C555 1.514 . S
C835 C233 1.569 . S
C865 C29 1.578 . S
C870 C583 1.540 . S
C895 C277 1.569 . S
C900 C558 1.514 . S
C925 C153 1.567 . S
C930 C526 1.516 . S
C960 C615 1.518 . S
C955 C339 1.562 . S
C990 C559 1.398 . S
C985 C35 1.422 . S
C1015 C283 1.442 . S
C1020 C527 1.422 . S
C1045 C159 1.433 . S
C1050 C614 1.423 . S
C1080 C582 1.416 . S
C1075 C345 1.429 . S
C1105 C419 1.570 . S
C1110 C609 1.635 . S
C1135 C301 1.436 . S
C1140 C513 1.415 . S
C1165 C487 1.420 . S
C1170 C536 1.410 . S
C1195 C363 1.430 . S
C1200 C568 1.416 . S
C1230 C523 1.341 . S
C1225 C425 1.437 . S
C1255 C295 1.569 . S
C1260 C552 1.528 . S
C1285 C481 1.578 . S
C1290 C584 1.540 . S
C1320 C619 1.510 . S
C1315 C357 1.567 . S
C1345 C407 1.435 . S
C1350 C519 1.343 . S
C1375 C91 1.565 . S
C1380 C622 1.507 . S
C1405 C463 1.578 . S
C1410 C590 1.521 . S
C1440 C551 1.528 . S
C1435 C215 1.569 . S
C1470 C623 1.632 . S
C1465 C401 1.568 . S
C1500 C591 1.407 . S
C1495 C97 1.430 . S
C1530 C550 1.407 . S
C1525 C469 1.417 . S
C1560 C518 1.422 . S
C1555 C221 1.435 . S
