# Generated by pormake.
# Topology anh, (6,3)-cn, num edge types: 1
# Building blocks:
#     Node 0, Type 0, BuildingBlock: BETDEL_clean_sbu_0, # of connection points: 6
#     Node 1, Type 0, BuildingBlock: BETDEL_clean_sbu_0, # of connection points: 6
#     Node 2, Type 0, BuildingBlock: BETDEL_clean_sbu_0, # of connection points: 6
#     Node 3, Type 1, BuildingBlock: ESEHIV_clean_linker_0, # of connection points: 3
#     Node 4, Type 1, BuildingBlock: ESEHIV_clean_linker_0, # of connection points: 3
#     Node 5, Type 1, BuildingBlock: ESEHIV_clean_linker_0, # of connection points: 3
#     Node 6, Type 1, BuildingBlock: ESEHIV_clean_linker_0, # of connection points: 3
#     Node 7, Type 1, BuildingBlock: ESEHIV_clean_linker_0, # of connection points: 3
#     Node 8, Type 1, BuildingBlock: ESEHIV_clean_linker_0, # of connection points: 3
#     Edge 9, Type (0, 1), BuildingBlock: TEMPAE_clean_linker_10, # of connection points: 2
#     Edge 10, Type (0, 1), BuildingBlock: TEMPAE_clean_linker_10, # of connection points: 2
#     Edge 11, Type (0, 1), BuildingBlock: TEMPAE_clean_linker_10, # of connection points: 2
#     Edge 12, Type (0, 1), BuildingBlock: TEMPAE_clean_linker_10, # of connection points: 2
#     Edge 13, Type (0, 1), BuildingBlock: TEMPAE_clean_linker_10, # of connection points: 2
#     Edge 14, Type (0, 1), BuildingBlock: TEMPAE_clean_linker_10, # of connection points: 2
#     Edge 15, Type (0, 1), BuildingBlock: TEMPAE_clean_linker_10, # of connection points: 2
#     Edge 16, Type (0, 1), BuildingBlock: TEMPAE_clean_linker_10, # of connection points: 2
#     Edge 17, Type (0, 1), BuildingBlock: TEMPAE_clean_linker_10, # of connection points: 2
#     Edge 18, Type (0, 1), BuildingBlock: TEMPAE_clean_linker_10, # of connection points: 2
#     Edge 19, Type (0, 1), BuildingBlock: TEMPAE_clean_linker_10, # of connection points: 2
#     Edge 20, Type (0, 1), BuildingBlock: TEMPAE_clean_linker_10, # of connection points: 2
#     Edge 21, Type (0, 1), BuildingBlock: TEMPAE_clean_linker_10, # of connection points: 2
#     Edge 22, Type (0, 1), BuildingBlock: TEMPAE_clean_linker_10, # of connection points: 2
#     Edge 23, Type (0, 1), BuildingBlock: TEMPAE_clean_linker_10, # of connection points: 2
#     Edge 24, Type (0, 1), BuildingBlock: TEMPAE_clean_linker_10, # of connection points: 2
#     Edge 25, Type (0, 1), BuildingBlock: TEMPAE_clean_linker_10, # of connection points: 2
#     Edge 26, Type (0, 1), BuildingBlock: TEMPAE_clean_linker_10, # of connection points: 2
# Relax obj value: 0.148
# Max RMSD: 0.167
# Mean RMSD: 0.136
data_MOF--net-anh--node1-BETDEL_clean_sbu_0--node2-ESEHIV_clean_linker_0--edge1-TEMPAE_clean_linker_10
_symmetry_space_group_name_H-M    P1
_symmetry_Int_Tables_number       1
_symmetry_cell_setting            triclinic
loop_
_symmetry_equiv_pos_as_xyz
'x, y, z'
_cell_length_a     27.78848
_cell_length_b     27.769624
_cell_length_c     50.280271
_cell_angle_alpha  89.905258
_cell_angle_beta   90.040899
_cell_angle_gamma 119.9464
loop_
_atom_site_label
_atom_site_type_symbol
_atom_site_fract_x
_atom_site_fract_y
_atom_site_fract_z
_atom_type_partial_charge
Dy0 Dy 0.05498 0.49888 0.16123 0.0
C1 C 0.92085 0.5946 0.185 0.0
C2 C 0.12139 0.45815 0.14544 0.0
Dy3 Dy 0.99394 0.56228 0.16835 0.0
O4 O 0.09423 0.44621 0.16766 0.0
O5 O 0.1121 0.49227 0.13165 0.0
O6 O 0.03142 0.46494 0.20275 0.0
O7 O 0.04559 0.54477 0.19393 0.0
C8 C 0.02913 0.50766 0.21148 0.0
C9 C 1.01906 0.55411 0.11778 0.0
O10 O 0.07963 0.6319 0.1777 0.0
O11 O 0.12515 0.58894 0.15943 0.0
O12 O 0.95275 0.61382 0.16424 0.0
O13 O 0.93074 0.55921 0.19714 0.0
O14 O 1.01611 0.59613 0.12703 0.0
O15 O 1.00311 0.51634 0.13514 0.0
O16 O 0.96853 0.428 0.15381 0.0
O17 O 0.9249 0.47284 0.1718 0.0
C18 C 0.12579 0.63401 0.16899 0.0
C19 C 0.92333 0.42692 0.16316 0.0
Dy20 Dy 0.50598 0.04632 0.49442 0.0
C21 C 0.74275 0.19169 0.51643 0.0
C22 C 0.40178 0.98716 0.47439 0.0
Dy23 Dy 0.6382 0.11585 0.50028 0.0
O24 O 0.41611 0.02204 0.49402 0.0
O25 O 0.44466 0.98506 0.46546 0.0
O26 O 0.4867 0.0285 0.53873 0.0
O27 O 0.56667 0.07472 0.52469 0.0
C28 C 0.53874 0.05696 0.54546 0.0
C29 C 0.59834 0.0834 0.45105 0.0
O30 O 0.62056 0.02998 0.51141 0.0
O31 O 0.53244 0.98121 0.49201 0.0
O32 O 0.73053 0.16266 0.49468 0.0
O33 O 0.69762 0.17726 0.52982 0.0
O34 O 0.64622 0.09094 0.45896 0.0
O35 O 0.57692 0.0986 0.46894 0.0
O36 O 0.52024 0.13398 0.49303 0.0
O37 O 0.61679 0.18425 0.49889 0.0
C38 C 0.57718 0.98285 0.50279 0.0
C39 C 0.56789 0.18161 0.49614 0.0
Dy40 Dy 0.60787 0.60044 0.82931 0.0
C41 C 0.5046 0.36563 0.85655 0.0
C42 C 0.64768 0.70742 0.81373 0.0
Dy43 Dy 0.5409 0.46844 0.83548 0.0
O44 O 0.65896 0.69221 0.8362 0.0
O45 O 0.61482 0.66411 0.79963 0.0
O46 O 0.63999 0.60696 0.87088 0.0
O47 O 0.56189 0.5401 0.86036 0.0
C48 C 0.59808 0.55982 0.8784 0.0
C49 C 0.56307 0.49948 0.78392 0.0
O50 O 0.46987 0.48535 0.83898 0.0
O51 O 0.51832 0.5816 0.83108 0.0
O52 O 0.47992 0.37704 0.83757 0.0
O53 O 0.5478 0.41117 0.86459 0.0
O54 O 0.53432 0.44783 0.79137 0.0
O55 O 0.57733 0.52862 0.80453 0.0
O56 O 0.67536 0.58043 0.82027 0.0
O57 O 0.63118 0.49236 0.83966 0.0
C58 C 0.47134 0.53362 0.83527 0.0
C59 C 0.67637 0.53628 0.82995 0.0
H60 H 0.44476 0.96262 0.25224 0.0
H61 H 0.60233 0.11273 0.2505 0.0
H62 H 0.53189 0.02257 0.1778 0.0
C63 C 0.48061 0.99296 0.24114 0.0
C64 C 0.48318 0.98608 0.21354 0.0
C65 C 0.52339 0.03809 0.25468 0.0
C66 C 0.5689 0.07801 0.24009 0.0
C67 C 0.5729 0.07342 0.21239 0.0
C68 C 0.52913 0.02738 0.19902 0.0
H69 H 0.5826 0.65953 0.58721 0.0
H70 H 0.58956 0.50954 0.58451 0.0
H71 H 0.57929 0.58534 0.51127 0.0
C72 C 0.58254 0.62666 0.57558 0.0
C73 C 0.57855 0.62714 0.54765 0.0
C74 C 0.58757 0.58506 0.58879 0.0
C75 C 0.58859 0.54307 0.57393 0.0
C76 C 0.58687 0.54263 0.54594 0.0
C77 C 0.58145 0.58508 0.53277 0.0
H78 H 0.99387 0.53949 0.91482 0.0
H79 H 0.13842 0.52292 0.91969 0.0
H80 H 0.07609 0.53607 0.84281 0.0
C81 C 0.02685 0.53639 0.90493 0.0
C82 C 0.03039 0.5395 0.87702 0.0
C83 C 0.06521 0.52996 0.92037 0.0
C84 C 0.10821 0.52664 0.90758 0.0
C85 C 0.11283 0.528 0.8796 0.0
C86 C 0.07336 0.53456 0.8643 0.0
H87 H 0.93482 0.50498 0.4145 0.0
H88 H 0.05585 0.67395 0.39667 0.0
H89 H 1.00988 0.62343 0.47799 0.0
C90 C 0.96148 0.54737 0.42113 0.0
C91 C 0.96734 0.55962 0.44847 0.0
C92 C 0.99348 0.58843 0.40244 0.0
C93 C 0.03003 0.64258 0.41111 0.0
C94 C 0.03626 0.65567 0.43829 0.0
C95 C 1.00465 0.61394 0.45692 0.0
H96 H 0.61606 0.16815 0.74908 0.0
H97 H 0.66542 0.04634 0.73456 0.0
H98 H 0.64281 0.08431 0.81455 0.0
C99 C 0.62832 0.13915 0.75639 0.0
C100 C 0.62756 0.12968 0.78394 0.0
C101 C 0.64229 0.10963 0.73822 0.0
C102 C 0.65742 0.07178 0.74816 0.0
C103 C 0.65813 0.06288 0.77555 0.0
C104 C 0.64304 0.09179 0.79337 0.0
H105 H 0.43395 0.42447 0.0658 0.0
H106 H 0.60524 0.47666 0.08017 0.0
H107 H 0.49422 0.44424 0.1461 0.0
C108 C 0.46718 0.4329 0.07965 0.0
C109 C 0.45752 0.43122 0.10708 0.0
C110 C 0.5203 0.44916 0.06985 0.0
C111 C 0.56367 0.46195 0.08776 0.0
C112 C 0.55469 0.46045 0.11536 0.0
C113 C 0.50139 0.44482 0.12488 0.0
C114 C 0.17109 0.40692 0.15601 0.0
C115 C 0.16248 0.44155 0.13874 0.0
C116 C 0.21499 0.39661 0.15184 0.0
C117 C 0.25103 0.42193 0.12999 0.0
C118 C 0.24071 0.45467 0.11175 0.0
C119 C 0.19629 0.46397 0.11633 0.0
C120 C 0.22443 0.36099 0.1715 0.0
C121 C 0.27831 0.48232 0.0882 0.0
C122 C 0.40201 0.46119 0.13392 0.0
C123 C 0.40346 0.42252 0.11659 0.0
C124 C 0.35199 0.45983 0.13942 0.0
C125 C 0.30235 0.41857 0.12739 0.0
C126 C 0.30302 0.3773 0.11121 0.0
C127 C 0.35379 0.37993 0.10588 0.0
C128 C 0.35288 0.50464 0.15677 0.0
C129 C 0.25072 0.33221 0.09842 0.0
H130 H 0.14465 0.38934 0.17331 0.0
H131 H 0.18943 0.49061 0.10294 0.0
H132 H 0.23113 0.32977 0.16094 0.0
H133 H 0.26243 0.38745 0.18326 0.0
H134 H 0.189 0.33902 0.18546 0.0
H135 H 0.26224 0.5031 0.07491 0.0
H136 H 0.32016 0.51392 0.09531 0.0
H137 H 0.2833 0.45134 0.07643 0.0
H138 H 0.44048 0.49455 0.14195 0.0
H139 H 0.35497 0.34978 0.09262 0.0
H140 H 0.32108 0.4859 0.17265 0.0
H141 H 0.34257 0.53165 0.1446 0.0
H142 H 0.39406 0.53106 0.1662 0.0
H143 H 0.21682 0.3125 0.11329 0.0
H144 H 0.25713 0.29952 0.08919 0.0
H145 H 0.23673 0.35067 0.08276 0.0
C146 C 0.83544 0.26247 0.50022 0.0
C147 C 0.79338 0.24611 0.51923 0.0
C148 C 0.87212 0.31887 0.49528 0.0
C149 C 0.86642 0.35933 0.50988 0.0
C150 C 0.82958 0.34282 0.53177 0.0
C151 C 0.79327 0.286 0.53625 0.0
C152 C 0.91171 0.33473 0.47208 0.0
C153 C 0.82363 0.38469 0.54841 0.0
C154 C 0.96858 0.50659 0.4885 0.0
C155 C 0.93867 0.51391 0.46791 0.0
C156 C 0.94434 0.45795 0.50396 0.0
C157 C 0.88928 0.41584 0.49843 0.0
C158 C 0.85763 0.42509 0.47906 0.0
C159 C 0.88279 0.47409 0.46406 0.0
C160 C 0.97891 0.45026 0.52486 0.0
C161 C 0.79828 0.38165 0.47288 0.0
H162 H 0.83609 0.2315 0.48734 0.0
H163 H 0.7612 0.27335 0.55128 0.0
H164 H 0.89528 0.3478 0.4551 0.0
H165 H 0.95297 0.37026 0.47732 0.0
H166 H 0.91708 0.29954 0.46548 0.0
H167 H 0.80582 0.36741 0.56828 0.0
H168 H 0.8642 0.42325 0.5511 0.0
H169 H 0.79519 0.39599 0.53823 0.0
H170 H 1.01192 0.53732 0.49151 0.0
H171 H 0.85943 0.48028 0.44846 0.0
H172 H 0.99586 0.42478 0.51656 0.0
H173 H 0.95351 0.42813 0.54253 0.0
H174 H 1.0144 0.49072 0.53131 0.0
H175 H 0.79705 0.34399 0.46463 0.0
H176 H 0.77873 0.39668 0.45826 0.0
H177 H 0.77293 0.3691 0.4913 0.0
C178 C 0.69489 0.80794 0.82488 0.0
C179 C 0.66293 0.76481 0.80711 0.0
C180 C 0.70294 0.8614 0.82078 0.0
C181 C 0.67801 0.87138 0.79852 0.0
C182 C 0.64829 0.82863 0.77975 0.0
C183 C 0.64126 0.77573 0.78425 0.0
C184 C 0.73553 0.90625 0.84098 0.0
C185 C 0.62118 0.83783 0.75572 0.0
C186 C 0.63031 0.97693 0.80178 0.0
C187 C 0.66873 0.01868 0.78499 0.0
C188 C 0.63443 0.92973 0.80736 0.0
C189 C 0.67828 0.92463 0.796 0.0
C190 C 0.71919 0.9683 0.7804 0.0
C191 C 0.71372 1.01483 0.77493 0.0
C192 C 0.5899 0.88385 0.82405 0.0
C193 C 0.767 0.96462 0.76837 0.0
H194 H 0.71192 0.79946 0.84252 0.0
H195 H 0.61676 0.74233 0.77045 0.0
H196 H 0.76586 0.94536 0.83092 0.0
H197 H 0.70681 0.91518 0.85248 0.0
H198 H 0.75817 0.89392 0.85515 0.0
H199 H 0.60309 0.80155 0.74208 0.0
H200 H 0.58754 0.84561 0.76228 0.0
H201 H 0.65177 0.87502 0.7445 0.0
H202 H 0.59522 0.97969 0.80932 0.0
H203 H 0.74365 0.04748 0.7621 0.0
H204 H 0.60892 0.87184 0.84026 0.0
H205 H 0.56541 0.84652 0.81152 0.0
H206 H 0.56105 0.89611 0.83298 0.0
H207 H 0.78701 0.95134 0.78355 0.0
H208 H 0.79889 1.00487 0.75971 0.0
H209 H 0.75126 0.93287 0.75239 0.0
C210 C 0.82587 0.55454 0.20364 0.0
C211 C 0.86788 0.59416 0.1873 0.0
C212 C 0.76995 0.53713 0.19844 0.0
C213 C 0.75651 0.56008 0.17646 0.0
C214 C 0.79924 0.60603 0.16265 0.0
C215 C 0.85473 0.62274 0.16835 0.0
C216 C 0.72559 0.48943 0.21427 0.0
C217 C 0.78668 0.63249 0.13942 0.0
C218 C 0.64215 0.46397 0.1299 0.0
C219 C 0.60235 0.48009 0.13384 0.0
C220 C 0.69133 0.48788 0.1447 0.0
C221 C 0.70079 0.52879 0.16404 0.0
C222 C 0.65921 0.54265 0.16935 0.0
C223 C 0.61045 0.51831 0.15403 0.0
C224 C 0.73435 0.47126 0.13865 0.0
C225 C 0.66724 0.58516 0.19014 0.0
H226 H 0.83605 0.53298 0.21866 0.0
H227 H 0.88735 0.6541 0.15601 0.0
H228 H 0.68833 0.49387 0.21677 0.0
H229 H 0.71272 0.44995 0.20352 0.0
H230 H 0.74111 0.48633 0.23421 0.0
H231 H 0.8232 0.673 0.1338 0.0
H232 H 0.77467 0.60433 0.12199 0.0
H233 H 0.75142 0.63911 0.14405 0.0
H234 H 0.63546 0.43369 0.11465 0.0
H235 H 0.57988 0.53116 0.15706 0.0
H236 H 0.74581 0.45733 0.15708 0.0
H237 H 0.77261 0.50763 0.13083 0.0
H238 H 0.7195 0.43726 0.12377 0.0
H239 H 0.68811 0.58086 0.20807 0.0
H240 H 0.62709 0.58152 0.19616 0.0
H241 H 0.69408 0.62748 0.18195 0.0
C242 C 0.30022 0.94679 0.48122 0.0
C243 C 0.34404 0.94864 0.46662 0.0
C244 C 0.24538 0.90424 0.47705 0.0
C245 C 0.23455 0.86295 0.45781 0.0
C246 C 0.27832 0.86686 0.44181 0.0
C247 C 0.33271 0.90978 0.44645 0.0
C248 C 0.1997 0.90156 0.49434 0.0
C249 C 0.26824 0.82386 0.42088 0.0
C250 C 0.11873 0.71477 0.46649 0.0
C251 C 0.08116 0.71097 0.44688 0.0
C252 C 0.16753 0.7651 0.47131 0.0
C253 C 0.1789 0.8126 0.4561 0.0
C254 C 0.13935 0.80997 0.43758 0.0
C255 C 0.0908 0.75903 0.43318 0.0
C256 C 0.20863 0.76642 0.49139 0.0
C257 C 0.14983 0.85992 0.42123 0.0
H258 H 0.30902 0.97706 0.49679 0.0
H259 H 0.36664 0.9115 0.43504 0.0
H260 H 0.16305 0.89316 0.48213 0.0
H261 H 0.18608 0.86685 0.50875 0.0
H262 H 0.21353 0.94064 0.50564 0.0
H263 H 0.30573 0.83569 0.40858 0.0
H264 H 0.2558 0.78341 0.43063 0.0
H265 H 0.23375 0.81764 0.40758 0.0
H266 H 0.11176 0.67764 0.47693 0.0
H267 H 0.06139 0.75625 0.41823 0.0
H268 H 0.22185 0.80202 0.50515 0.0
H269 H 0.24629 0.77215 0.48093 0.0
H270 H 0.19122 0.72755 0.5033 0.0
H271 H 0.16485 0.89723 0.43401 0.0
H272 H 0.11195 0.85313 0.41052 0.0
H273 H 0.18272 0.86888 0.40634 0.0
C274 C 0.53974 0.30644 0.87521 0.0
C275 C 0.50039 0.31097 0.85959 0.0
C276 C 0.55419 0.26588 0.86952 0.0
C277 C 0.52869 0.2298 0.84772 0.0
C278 C 0.48241 0.2283 0.83507 0.0
C279 C 0.46845 0.26895 0.84135 0.0
C280 C 0.6019 0.26694 0.88436 0.0
C281 C 0.45304 0.18942 0.8122 0.0
C282 C 0.62251 0.21259 0.79906 0.0
C283 C 0.60689 0.15666 0.80254 0.0
C284 C 0.59859 0.23717 0.81438 0.0
C285 C 0.55842 0.20512 0.83394 0.0
C286 C 0.54476 0.14951 0.83864 0.0
C287 C 0.56884 0.12572 0.82269 0.0
C288 C 0.61491 0.29698 0.80887 0.0
C289 C 0.50305 0.11427 0.85959 0.0
H290 H 0.56363 0.33823 0.88983 0.0
H291 H 0.43713 0.27169 0.82963 0.0
H292 H 0.59549 0.2244 0.88675 0.0
H293 H 0.64082 0.29184 0.8729 0.0
H294 H 0.60743 0.2862 0.9043 0.0
H295 H 0.41248 0.18649 0.80778 0.0
H296 H 0.47944 0.205 0.79414 0.0
H297 H 0.44594 0.1472 0.8165 0.0
H298 H 0.65275 0.23692 0.7839 0.0
H299 H 0.55625 0.08226 0.82537 0.0
H300 H 0.63077 0.32202 0.82728 0.0
H301 H 0.57801 0.29934 0.80229 0.0
H302 H 0.64741 0.31618 0.79327 0.0
H303 H 0.50623 0.13911 0.87745 0.0
H304 H 0.50859 0.07888 0.86574 0.0
H305 H 0.46051 0.097 0.85143 0.0
C306 C 0.61539 0.92572 0.5233 0.0
C307 C 0.57803 0.92952 0.50576 0.0
C308 C 0.61487 0.87513 0.52726 0.0
C309 C 0.57668 0.82684 0.51307 0.0
C310 C 0.54004 0.83083 0.49471 0.0
C311 C 0.54079 0.88175 0.49147 0.0
C312 C 0.65415 0.87297 0.54736 0.0
C313 C 0.49921 0.78097 0.47881 0.0
C314 C 0.60597 0.70527 0.51415 0.0
C315 C 0.572 0.67282 0.5352 0.0
C316 C 0.60636 0.75427 0.5059 0.0
C317 C 0.57233 0.77159 0.5191 0.0
C318 C 0.53593 0.73728 0.53937 0.0
C319 C 0.53586 0.68844 0.54693 0.0
C320 C 0.64495 0.78876 0.48381 0.0
C321 C 0.49883 0.75351 0.55411 0.0
H322 H 0.64426 0.96206 0.53454 0.0
H323 H 0.512 0.88403 0.47769 0.0
H324 H 0.63002 0.8441 0.56373 0.0
H325 H 0.67921 0.85666 0.53795 0.0
H326 H 0.68277 0.9144 0.55603 0.0
H327 H 0.47713 0.79187 0.46365 0.0
H328 H 0.52094 0.76177 0.46867 0.0
H329 H 0.46795 0.74913 0.49233 0.0
H330 H 0.63415 0.69388 0.50498 0.0
H331 H 0.50868 0.66325 0.56289 0.0
H332 H 0.67884 0.82819 0.49209 0.0
H333 H 0.62239 0.79978 0.469 0.0
H334 H 0.66375 0.76679 0.4735 0.0
H335 H 0.52469 0.79289 0.56506 0.0
H336 H 0.47117 0.72121 0.56857 0.0
H337 H 0.47274 0.76101 0.53989 0.0
C338 C 0.73605 0.50057 0.84934 0.0
C339 C 0.73037 0.53662 0.83162 0.0
C340 C 0.78724 0.50242 0.85286 0.0
C341 C 0.8343 0.54046 0.8379 0.0
C342 C 0.82832 0.57535 0.81911 0.0
C343 C 0.77678 0.57357 0.81645 0.0
C344 C 0.7914 0.4651 0.87351 0.0
C345 C 0.87671 0.61539 0.80217 0.0
C346 C 0.97272 0.58551 0.87221 0.0
C347 C 0.9876 0.54732 0.86238 0.0
C348 C 0.92443 0.58523 0.86359 0.0
C349 C 0.89034 0.54687 0.84391 0.0
C350 C 0.90766 0.51148 0.83216 0.0
C351 C 0.95582 0.51178 0.84166 0.0
C352 C 0.90793 0.62345 0.87702 0.0
C353 C 0.87372 0.47114 0.81054 0.0
H354 H 0.70076 0.47192 0.86128 0.0
H355 H 0.77292 0.60127 0.80252 0.0
H356 H 0.80801 0.44002 0.86441 0.0
H357 H 0.8208 0.49082 0.88937 0.0
H358 H 0.75065 0.4364 0.88281 0.0
H359 H 0.86385 0.63443 0.78626 0.0
H360 H 0.90825 0.64913 0.81479 0.0
H361 H 0.89699 0.59386 0.79287 0.0
H362 H 0.99749 0.61389 0.88788 0.0
H363 H 0.96674 0.48211 0.83389 0.0
H364 H 0.86911 0.59838 0.88852 0.0
H365 H 0.89937 0.64749 0.862 0.0
H366 H 0.94049 0.65309 0.89081 0.0
H367 H 0.83543 0.43639 0.81927 0.0
H368 H 0.89701 0.45353 0.80041 0.0
H369 H 0.86079 0.49175 0.79551 0.0
C370 C 0.18411 0.73072 0.18733 0.0
C371 C 0.17993 0.68717 0.17149 0.0
C372 C 0.23526 0.78002 0.19103 0.0
C373 C 0.2838 0.78678 0.1783 0.0
C374 C 0.27954 0.74376 0.16155 0.0
C375 C 0.22794 0.69445 0.15853 0.0
C376 C 0.23766 0.82416 0.20937 0.0
C377 C 0.32981 0.74929 0.14727 0.0
C378 C 0.40855 0.93534 0.17865 0.0
C379 C 0.43774 0.93401 0.20117 0.0
C380 C 0.3597 0.88717 0.17012 0.0
C381 C 0.33939 0.83659 0.18451 0.0
C382 C 0.37059 0.83456 0.20633 0.0
C383 C 0.41928 0.88287 0.21418 0.0
C384 C 0.32849 0.89105 0.14644 0.0
C385 C 0.35101 0.78199 0.22238 0.0
H386 H 0.14754 0.72579 0.1975 0.0
H387 H 0.22532 0.66144 0.14605 0.0
H388 H 0.26456 0.82918 0.22669 0.0
H389 H 0.25637 0.86477 0.19893 0.0
H390 H 0.19597 0.81389 0.21682 0.0
H391 H 0.3188 0.71483 0.133 0.0
H392 H 0.35133 0.78934 0.13634 0.0
H393 H 0.3597 0.74944 0.16195 0.0
H394 H 0.42234 0.97453 0.16848 0.0
H395 H 0.44205 0.88111 0.23132 0.0
H396 H 0.28908 0.88804 0.1532 0.0
H397 H 0.31751 0.85596 0.13261 0.0
H398 H 0.35288 0.93076 0.13543 0.0
H399 H 0.31107 0.77086 0.23225 0.0
H400 H 0.38144 0.7864 0.23789 0.0
H401 H 0.3434 0.74693 0.20918 0.0
C402 C 0.52718 0.23889 0.51276 0.0
C403 C 0.56709 0.23486 0.49739 0.0
C404 C 0.53048 0.29064 0.5172 0.0
C405 C 0.57342 0.33952 0.50507 0.0
C406 C 0.61175 0.33486 0.48813 0.0
C407 C 0.60899 0.28302 0.48508 0.0
C408 C 0.49006 0.29346 0.53629 0.0
C409 C 0.65709 0.38479 0.47388 0.0
C410 C 0.55528 0.46788 0.51008 0.0
C411 C 0.58971 0.49621 0.5318 0.0
C412 C 0.5517 0.41845 0.50014 0.0
C413 C 0.58184 0.39572 0.51266 0.0
C414 C 0.61864 0.42573 0.53364 0.0
C415 C 0.62318 0.4759 0.54234 0.0
C416 C 0.51458 0.38978 0.47666 0.0
C417 C 0.65146 0.40354 0.54791 0.0
H418 H 0.49515 0.20199 0.5226 0.0
H419 H 0.63996 0.28026 0.4731 0.0
H420 H 0.513 0.31916 0.55374 0.0
H421 H 0.46885 0.31374 0.52668 0.0
H422 H 0.45808 0.25171 0.54346 0.0
H423 H 0.67143 0.37227 0.45593 0.0
H424 H 0.64292 0.41414 0.46782 0.0
H425 H 0.69326 0.40713 0.48733 0.0
H426 H 0.52951 0.48299 0.50152 0.0
H427 H 0.65167 0.49827 0.5584 0.0
H428 H 0.47744 0.35091 0.48332 0.0
H429 H 0.5367 0.37816 0.46189 0.0
H430 H 0.50049 0.41638 0.46675 0.0
H431 H 0.62293 0.36125 0.55575 0.0
H432 H 0.67612 0.43046 0.56474 0.0
H433 H 0.68031 0.40006 0.53387 0.0
C434 C 0.41567 0.57574 0.85238 0.0
C435 C 0.41827 0.53446 0.83746 0.0
C436 C 0.36483 0.57453 0.85644 0.0
C437 C 0.3155 0.5323 0.8444 0.0
C438 C 0.31866 0.49225 0.82814 0.0
C439 C 0.36961 0.49304 0.82539 0.0
C440 C 0.36351 0.61696 0.87468 0.0
C441 C 0.26799 0.44792 0.81395 0.0
C442 C 0.17846 0.48988 0.87971 0.0
C443 C 0.16016 0.52358 0.86748 0.0
C444 C 0.22834 0.49221 0.87229 0.0
C445 C 0.26015 0.52695 0.851 0.0
C446 C 0.23985 0.55774 0.83706 0.0
C447 C 0.19064 0.55635 0.84567 0.0
C448 C 0.24824 0.45924 0.88816 0.0
C449 C 0.27096 0.59348 0.81351 0.0
H450 H 0.45308 0.60767 0.86188 0.0
H451 H 0.37148 0.46137 0.81359 0.0
H452 H 0.34554 0.6395 0.86422 0.0
H453 H 0.33644 0.5956 0.89203 0.0
H454 H 0.40548 0.64776 0.88208 0.0
H455 H 0.27875 0.42514 0.79915 0.0
H456 H 0.23871 0.41753 0.82859 0.0
H457 H 0.24594 0.46666 0.80364 0.0
H458 H 0.15451 0.4626 0.89589 0.0
H459 H 0.17728 0.58248 0.83589 0.0
H460 H 0.28956 0.48777 0.89693 0.0
H461 H 0.25321 0.43001 0.87502 0.0
H462 H 0.21925 0.43505 0.9045 0.0
H463 H 0.30955 0.63057 0.82042 0.0
H464 H 0.24584 0.60776 0.80236 0.0
H465 H 0.28327 0.57028 0.79976 0.0
C466 C 0.82585 0.36953 0.1805 0.0
C467 C 0.86968 0.37304 0.16508 0.0
C468 C 0.77657 0.31858 0.18454 0.0
C469 C 0.76996 0.26945 0.17255 0.0
C470 C 0.81294 0.2731 0.15593 0.0
C471 C 0.8624 0.32457 0.15263 0.0
C472 C 0.73258 0.31705 0.20272 0.0
C473 C 0.8073 0.22229 0.14217 0.0
C474 C 0.67639 0.13618 0.21077 0.0
C475 C 0.62432 0.11711 0.19866 0.0
C476 C 0.72413 0.18433 0.20188 0.0
C477 C 0.72074 0.214 0.1797 0.0
C478 C 0.66931 0.19263 0.16603 0.0
C479 C 0.62163 0.14466 0.17575 0.0
C480 C 0.77754 0.20525 0.21733 0.0
C481 C 0.66401 0.22189 0.14187 0.0
H482 H 0.83067 0.40646 0.19026 0.0
H483 H 0.8956 0.32667 0.14049 0.0
H484 H 0.69172 0.29707 0.19255 0.0
H485 H 0.72839 0.29169 0.22058 0.0
H486 H 0.74248 0.35919 0.20931 0.0
H487 H 0.84074 0.23302 0.12732 0.0
H488 H 0.80907 0.19376 0.1571 0.0
H489 H 0.76648 0.19937 0.13202 0.0
H490 H 0.67935 0.11457 0.22812 0.0
H491 H 0.5818 0.13042 0.1662 0.0
H492 H 0.78915 0.24601 0.22645 0.0
H493 H 0.81185 0.21178 0.20386 0.0
H494 H 0.77403 0.17613 0.23338 0.0
H495 H 0.66601 0.26119 0.14801 0.0
H496 H 0.62421 0.19602 0.1312 0.0
H497 H 0.69894 0.23288 0.12792 0.0
C498 C 0.03252 0.58737 0.07098 0.0
C499 C 0.02847 0.54764 0.08943 0.0
C500 C 0.03981 0.58177 0.04381 0.0
C501 C 0.0443 0.53585 0.03489 0.0
C502 C 0.04152 0.49617 0.05352 0.0
C503 C 0.03296 0.5022 0.0806 0.0
C504 C 0.04174 0.6246 0.0246 0.0
C505 C 0.04729 0.4473 0.04484 0.0
C506 C 1.00811 0.49865 0.9622 0.0
C507 C 0.06046 0.52754 0.94998 0.0
C508 C 1.00241 0.4995 0.9899 0.0
C509 C 0.0503 0.52906 0.00592 0.0
C510 C 0.10347 0.55608 0.99388 0.0
C511 C 0.1079 0.55545 0.96606 0.0
C512 C 0.94492 0.47057 0.00192 0.0
C513 C 0.15559 0.58738 0.01032 0.0
H514 H 0.02903 0.62256 0.07773 0.0
H515 H 0.02984 0.47144 0.09485 0.0
H516 H 0.08151 0.64418 0.01347 0.0
H517 H 1.00777 0.60421 0.0098 0.0
H518 H 0.03754 0.65779 0.03477 0.0
H519 H 0.04773 0.42219 0.06197 0.0
H520 H 1.01234 0.42007 0.03153 0.0
H521 H 0.08621 0.46198 0.03331 0.0
H522 H 0.9713 0.47585 0.95006 0.0
H523 H 0.14852 0.57835 0.9569 0.0
H524 H 0.93643 0.50174 0.01127 0.0
H525 H 0.94207 0.44147 0.01779 0.0
H526 H 0.91213 0.44699 0.9869 0.0
H527 H 0.15726 0.62488 0.01901 0.0
H528 H 0.19378 0.60069 -0.00166 0.0
H529 H 0.15535 0.56123 0.02708 0.0
C530 C 0.61394 0.06857 0.40385 0.0
C531 C 0.57935 0.07185 0.42314 0.0
C532 C 0.59905 0.06133 0.37692 0.0
C533 C 0.54764 0.05595 0.36909 0.0
C534 C 0.5116 0.05741 0.3886 0.0
C535 C 0.52829 0.06616 0.41542 0.0
C536 C 0.63905 0.0607 0.35675 0.0
C537 C 0.45588 0.05046 0.38113 0.0
C538 C 0.54394 0.09377 0.29687 0.0
C539 C 0.52252 0.04194 0.28429 0.0
C540 C 0.54995 0.09868 0.32462 0.0
C541 C 0.53306 0.05047 0.34031 0.0
C542 C 0.50799 0.99769 0.32796 0.0
C543 C 0.50358 0.99409 0.30012 0.0
C544 C 0.57725 0.15581 0.33699 0.0
C545 C 0.48842 0.94518 0.34403 0.0
H546 H 0.65351 0.07304 0.40973 0.0
H547 H 0.50159 0.06898 0.43029 0.0
H548 H 0.61881 0.02113 0.34548 0.0
H549 H 0.65097 0.09492 0.3422 0.0
H550 H 0.67741 0.0655 0.36613 0.0
H551 H 0.43047 0.04682 0.39889 0.0
H552 H 0.46196 0.0867 0.3692 0.0
H553 H 0.43236 1.01291 0.36862 0.0
H554 H 0.55739 0.13087 0.28495 0.0
H555 H 0.48742 0.95382 0.29075 0.0
H556 H 0.61799 0.16562 0.34553 0.0
H557 H 0.55148 0.15704 0.35351 0.0
H558 H 0.58416 0.18865 0.32233 0.0
H559 H 0.52486 0.94334 0.35177 0.0
H560 H 0.46278 0.90727 0.33201 0.0
H561 H 0.46372 0.94492 0.36142 0.0
C562 C 0.54152 0.48039 0.73593 0.0
C563 C 0.57048 0.51887 0.75609 0.0
C564 C 0.54696 0.49694 0.70925 0.0
C565 C 0.58242 0.55348 0.70251 0.0
C566 C 0.61181 0.59267 0.72282 0.0
C567 C 0.60569 0.57476 0.74944 0.0
C568 C 0.5149 0.45373 0.68825 0.0
C569 C 0.65007 0.65325 0.71641 0.0
C570 C 0.62942 0.57299 0.63062 0.0
C571 C 0.59078 0.58427 0.61831 0.0
C572 C 0.62928 0.5661 0.65827 0.0
C573 C 0.5894 0.57043 0.67402 0.0
C574 C 0.55217 0.58469 0.66187 0.0
C575 C 0.55334 0.59151 0.63413 0.0
C576 C 0.66995 0.55133 0.67043 0.0
C577 C 0.50906 0.5897 0.67798 0.0
H578 H 0.5143 0.43708 0.74102 0.0
H579 H 0.62892 0.60426 0.76496 0.0
H580 H 0.48813 0.46553 0.67686 0.0
H581 H 0.54412 0.45157 0.67393 0.0
H582 H 0.4883 0.41171 0.69688 0.0
H583 H 0.66703 0.67896 0.73462 0.0
H584 H 0.68522 0.65784 0.7041 0.0
H585 H 0.62771 0.66973 0.70459 0.0
H586 H 0.65909 0.56833 0.61849 0.0
H587 H 0.52328 0.60005 0.62471 0.0
H588 H 0.64727 0.50783 0.67776 0.0
H589 H 0.69112 0.57841 0.68775 0.0
H590 H 0.70191 0.5553 0.65594 0.0
H591 H 0.4775 0.54802 0.68535 0.0
H592 H 0.48761 0.6072 0.66613 0.0
H593 H 0.52841 0.61643 0.69563 0.0
C594 C 0.53737 0.02667 0.5919 0.0
C595 C 0.56032 0.06847 0.57265 0.0
C596 C 0.55602 0.03764 0.61828 0.0
C597 C 0.59701 0.09227 0.62558 0.0
C598 C 0.62018 0.13469 0.60607 0.0
C599 C 0.60193 0.122 0.57966 0.0
C600 C 0.53149 0.99092 0.63837 0.0
C601 C 0.66248 0.19378 0.61323 0.0
C602 C 0.5921 0.11983 0.69889 0.0
C603 C 0.63588 0.11366 0.70898 0.0
C604 C 0.58134 0.11663 0.67152 0.0
C605 C 0.61378 0.10494 0.65386 0.0
C606 C 0.65929 0.10082 0.66367 0.0
C607 C 0.67048 0.10639 0.69103 0.0
C608 C 0.53349 0.12306 0.66168 0.0
C609 C 0.69421 0.08736 0.64549 0.0
H610 H 0.50512 0.9853 0.58626 0.0
H611 H 0.61837 0.15447 0.56471 0.0
H612 H 0.56511 0.98812 0.64891 0.0
H613 H 0.50766 0.99935 0.65353 0.0
H614 H 0.50332 0.9501 0.62901 0.0
H615 H 0.679 0.22095 0.59542 0.0
H616 H 0.64305 0.21106 0.62657 0.0
H617 H 0.6977 0.1951 0.62424 0.0
H618 H 0.56446 0.1247 0.71237 0.0
H619 H 0.70539 0.10315 0.69843 0.0
H620 H 0.49902 0.0821 0.6552 0.0
H621 H 0.54636 0.15129 0.64421 0.0
H622 H 0.51749 0.13969 0.6773 0.0
H623 H 0.66822 0.04503 0.63716 0.0
H624 H 0.73016 0.08891 0.65597 0.0
H625 H 0.70991 0.11671 0.62848 0.0
C626 C 0.62994 0.56619 0.92514 0.0
C627 C 0.59023 0.53702 0.90549 0.0
C628 C 0.62064 0.54789 0.95162 0.0
C629 C 0.57078 0.49887 0.95839 0.0
C630 C 0.53195 0.46764 0.9383 0.0
C631 C 0.54187 0.48749 0.91207 0.0
C632 C 0.66275 0.58264 0.97254 0.0
C633 C 0.47874 0.41471 0.94467 0.0
C634 C 0.56106 0.43839 0.02734 0.0
C635 C 0.53176 0.45952 0.04107 0.0
C636 C 0.57322 0.44982 0.00017 0.0
C637 C 0.55648 0.48394 0.98676 0.0
C638 C 0.52692 0.50532 0.00062 0.0
C639 C 0.51472 0.49262 0.02758 0.0
C640 C 0.60411 0.42574 0.98584 0.0
C641 C 0.50902 0.5425 0.98712 0.0
H642 H 0.66745 0.60444 0.92002 0.0
H643 H 0.51106 0.46493 0.89687 0.0
H644 H 0.64456 0.601 0.98598 0.0
H645 H 0.67371 0.55641 0.9849 0.0
H646 H 0.70138 0.6169 0.96371 0.0
H647 H 0.45695 0.39148 0.92644 0.0
H648 H 0.48725 0.38726 0.9575 0.0
H649 H 0.4505 0.42481 0.95585 0.0
H650 H 0.57412 0.41271 0.03784 0.0
H651 H 0.4929 0.50977 0.03833 0.0
H652 H 0.64441 0.45975 0.97838 0.0
H653 H 0.57993 0.40157 0.9683 0.0
H654 H 0.61221 0.39821 -0.00112 0.0
H655 H 0.54593 0.58029 0.97933 0.0
H656 H 0.48622 0.55553 0.00078 0.0
H657 H 0.48183 0.52067 0.96991 0.0
C658 C 1.00595 0.4747 0.25832 0.0
C659 C 1.01607 0.51501 0.23899 0.0
C660 C 0.99712 0.48315 0.28496 0.0
C661 C 0.99793 0.53281 0.2922 0.0
C662 C 1.00578 0.57252 0.27248 0.0
C663 C 1.01518 0.56329 0.2461 0.0
C664 C 0.98929 0.44009 0.3055 0.0
C665 C 1.00638 0.62572 0.27939 0.0
C666 C 0.94396 0.54351 0.36007 0.0
C667 C 0.99369 0.57362 0.37423 0.0
C668 C 0.94448 0.52968 0.33325 0.0
C669 C 0.99588 0.54575 0.32063 0.0
C670 C 0.04607 0.57536 0.33505 0.0
C671 C 0.04434 0.58909 0.36165 0.0
C672 C 0.89028 0.49855 0.31834 0.0
C673 C 0.10167 0.59265 0.32238 0.0
H674 H 1.00642 0.43723 0.25277 0.0
H675 H 0.02281 0.59443 0.23111 0.0
H676 H 0.02534 0.45772 0.31924 0.0
H677 H 0.95172 0.42849 0.31763 0.0
H678 H 0.98532 0.40189 0.29634 0.0
H679 H 1.00737 0.6495 0.2614 0.0
H680 H 0.96923 0.6166 0.29135 0.0
H681 H 0.04347 0.6524 0.29168 0.0
H682 H 0.90484 0.53158 0.36987 0.0
H683 H 0.08273 0.61147 0.37278 0.0
H684 H 0.88551 0.45932 0.31017 0.0
H685 H 0.89023 0.5238 0.30123 0.0
H686 H 0.85387 0.48846 0.33115 0.0
H687 H 0.10221 0.55565 0.31447 0.0
H688 H 0.13667 0.61424 0.3366 0.0
H689 H 0.10867 0.62087 0.30535 0.0
loop_
_geom_bond_atom_site_label_1
_geom_bond_atom_site_label_2
_geom_bond_distance
_geom_bond_site_symmetry_2
_ccdc_geom_bond_type
Dy0 O4 2.398 . S
Dy0 O5 2.491 . S
Dy0 O6 2.403 . S
Dy0 O7 2.664 . S
Dy0 O11 2.326 . S
Dy0 O15 2.310 . S
Dy0 O16 2.351 1_455 S
C1 O12 1.185 . S
C1 O13 1.355 . S
C2 O4 1.185 . S
C2 O5 1.355 . S
Dy3 O7 2.310 1_655 S
Dy3 O10 2.351 1_655 S
Dy3 O12 2.398 . S
Dy3 O13 2.491 . S
Dy3 O14 2.404 . S
Dy3 O15 2.664 1_655 S
Dy3 O17 2.326 . S
O4 Dy0 2.398 . S
O4 C2 1.185 . S
O5 Dy0 2.491 . S
O5 C2 1.355 . S
O6 Dy0 2.403 . S
O6 C8 1.254 . S
O7 Dy0 2.664 . S
O7 Dy3 2.310 1_455 S
O7 C8 1.268 . S
C8 O6 1.254 . S
C8 O7 1.268 . S
C9 O14 1.252 1_455 S
C9 O15 1.268 . S
O10 Dy3 2.351 1_455 S
O10 C18 1.249 . S
O11 Dy0 2.326 . S
O11 C18 1.267 . S
O12 C1 1.185 . S
O12 Dy3 2.398 . S
O13 C1 1.355 . S
O13 Dy3 2.491 . S
O14 Dy3 2.404 . S
O14 C9 1.252 1_655 S
O15 Dy0 2.310 . S
O15 Dy3 2.664 1_455 S
O15 C9 1.268 . S
O16 Dy0 2.351 1_655 S
O16 C19 1.249 . S
O17 Dy3 2.326 . S
O17 C19 1.267 . S
C18 O10 1.249 . S
C18 O11 1.267 . S
C19 O16 1.249 . S
C19 O17 1.267 . S
Dy20 O24 2.398 . S
Dy20 O25 2.491 . S
Dy20 O26 2.403 1_565 S
Dy20 O27 2.664 1_565 S
Dy20 O31 2.326 . S
Dy20 O35 2.310 1_565 S
Dy20 O36 2.351 1_565 S
C21 O32 1.185 . S
C21 O33 1.355 . S
C22 O24 1.185 . S
C22 O25 1.355 . S
Dy23 O27 2.310 . S
Dy23 O30 2.351 1_545 S
Dy23 O32 2.398 . S
Dy23 O33 2.491 . S
Dy23 O34 2.403 . S
Dy23 O35 2.664 . S
Dy23 O37 2.326 . S
O24 Dy20 2.398 . S
O24 C22 1.185 . S
O25 Dy20 2.491 . S
O25 C22 1.355 . S
O26 Dy20 2.403 1_545 S
O26 C28 1.254 . S
O27 Dy20 2.664 1_545 S
O27 Dy23 2.310 . S
O27 C28 1.268 . S
C28 O26 1.254 . S
C28 O27 1.268 . S
C29 O34 1.254 . S
C29 O35 1.268 . S
O30 Dy23 2.351 1_565 S
O30 C38 1.249 . S
O31 Dy20 2.326 . S
O31 C38 1.267 . S
O32 C21 1.185 . S
O32 Dy23 2.398 . S
O33 C21 1.355 . S
O33 Dy23 2.491 . S
O34 Dy23 2.403 . S
O34 C29 1.254 . S
O35 Dy20 2.310 1_545 S
O35 Dy23 2.664 . S
O35 C29 1.268 . S
O36 Dy20 2.351 1_545 S
O36 C39 1.249 . S
O37 Dy23 2.326 . S
O37 C39 1.267 . S
C38 O30 1.249 . S
C38 O31 1.267 . S
C39 O36 1.249 . S
C39 O37 1.267 . S
Dy40 O44 2.398 . S
Dy40 O45 2.491 . S
Dy40 O46 2.403 . S
Dy40 O47 2.664 . S
Dy40 O51 2.326 . S
Dy40 O55 2.310 . S
Dy40 O56 2.351 . S
C41 O52 1.185 . S
C41 O53 1.355 . S
C42 O44 1.185 . S
C42 O45 1.355 . S
Dy43 O47 2.310 . S
Dy43 O50 2.351 . S
Dy43 O52 2.398 . S
Dy43 O53 2.491 . S
Dy43 O54 2.403 . S
Dy43 O55 2.664 . S
Dy43 O57 2.326 . S
O44 Dy40 2.398 . S
O44 C42 1.185 . S
O45 Dy40 2.491 . S
O45 C42 1.355 . S
O46 Dy40 2.403 . S
O46 C48 1.254 . S
O47 Dy40 2.664 . S
O47 Dy43 2.310 . S
O47 C48 1.268 . S
C48 O46 1.254 . S
C48 O47 1.268 . S
C49 O54 1.254 . S
C49 O55 1.268 . S
O50 Dy43 2.351 . S
O50 C58 1.249 . S
O51 Dy40 2.326 . S
O51 C58 1.267 . S
O52 C41 1.185 . S
O52 Dy43 2.398 . S
O53 C41 1.355 . S
O53 Dy43 2.491 . S
O54 Dy43 2.403 . S
O54 C49 1.254 . S
O55 Dy40 2.310 . S
O55 Dy43 2.664 . S
O55 C49 1.268 . S
O56 Dy40 2.351 . S
O56 C59 1.249 . S
O57 Dy43 2.326 . S
O57 C59 1.267 . S
C58 O50 1.249 . S
C58 O51 1.267 . S
C59 O56 1.249 . S
C59 O57 1.267 . S
H60 C63 0.931 . S
H61 C66 0.928 . S
H62 C68 0.930 . S
C63 H60 0.931 . S
C63 C64 1.413 . S
C63 C65 1.360 1_565 S
C64 C63 1.413 . S
C64 C68 1.429 1_565 S
C65 C63 1.360 1_545 S
C65 C66 1.372 . S
C66 H61 0.928 . S
C66 C65 1.372 . S
C66 C67 1.404 . S
C67 C66 1.404 . S
C67 C68 1.391 . S
C68 H62 0.930 . S
C68 C64 1.429 1_545 S
C68 C67 1.391 . S
H69 C72 0.931 . S
H70 C75 0.928 . S
H71 C77 0.930 . S
C72 H69 0.931 . S
C72 C73 1.413 . S
C72 C74 1.360 . S
C73 C72 1.413 . S
C73 C77 1.429 . S
C74 C72 1.360 . S
C74 C75 1.372 . S
C75 H70 0.928 . S
C75 C74 1.372 . S
C75 C76 1.404 . S
C76 C75 1.404 . S
C76 C77 1.391 . S
C77 H71 0.930 . S
C77 C73 1.429 . S
C77 C76 1.391 . S
H78 C81 0.931 1_655 S
H79 C84 0.928 . S
H80 C86 0.930 . S
C81 H78 0.931 1_455 S
C81 C82 1.413 . S
C81 C83 1.360 . S
C82 C81 1.413 . S
C82 C86 1.429 . S
C83 C81 1.360 . S
C83 C84 1.372 . S
C84 H79 0.928 . S
C84 C83 1.372 . S
C84 C85 1.404 . S
C85 C84 1.404 . S
C85 C86 1.391 . S
C86 H80 0.930 . S
C86 C82 1.429 . S
C86 C85 1.391 . S
H87 C90 0.931 . S
H88 C93 0.928 . S
H89 C95 0.930 . S
C90 H87 0.931 . S
C90 C91 1.413 . S
C90 C92 1.360 1_655 S
C91 C90 1.413 . S
C91 C95 1.429 1_655 S
C92 C90 1.360 1_455 S
C92 C93 1.372 . S
C93 H88 0.928 . S
C93 C92 1.372 . S
C93 C94 1.404 . S
C94 C93 1.404 . S
C94 C95 1.391 . S
C95 H89 0.930 . S
C95 C91 1.429 1_455 S
C95 C94 1.391 . S
H96 C99 0.931 . S
H97 C102 0.928 1_565 S
H98 C104 0.930 . S
C99 H96 0.931 . S
C99 C100 1.413 . S
C99 C101 1.360 . S
C100 C99 1.413 . S
C100 C104 1.429 . S
C101 C99 1.360 . S
C101 C102 1.372 . S
C102 H97 0.928 1_545 S
C102 C101 1.372 . S
C102 C103 1.404 . S
C103 C102 1.404 . S
C103 C104 1.391 . S
C104 H98 0.930 . S
C104 C100 1.429 . S
C104 C103 1.391 . S
H105 C108 0.931 . S
H106 C111 0.928 . S
H107 C113 0.930 . S
C108 H105 0.931 . S
C108 C109 1.413 . S
C108 C110 1.360 . S
C109 C108 1.413 . S
C109 C113 1.429 . S
C110 C108 1.360 . S
C110 C111 1.372 . S
C111 H106 0.928 . S
C111 C110 1.372 . S
C111 C112 1.404 . S
C112 C111 1.404 . S
C112 C113 1.391 . S
C113 H107 0.930 . S
C113 C109 1.429 . S
C113 C112 1.391 . S
C114 C115 1.391 . S
C114 C116 1.394 . S
C114 H130 0.931 . S
C115 C114 1.391 . S
C115 C119 1.376 . S
C116 C114 1.394 . S
C116 C117 1.369 . S
C116 C120 1.531 . S
C117 C116 1.369 . S
C117 C118 1.410 . S
C117 C125 1.503 . S
C118 C117 1.410 . S
C118 C119 1.392 . S
C118 C121 1.511 . S
C119 C115 1.376 . S
C119 C118 1.392 . S
C119 H131 0.929 . S
C120 C116 1.531 . S
C120 H132 0.960 . S
C120 H133 0.962 . S
C120 H134 0.960 . S
C121 C118 1.511 . S
C121 H135 0.961 . S
C121 H136 0.961 . S
C121 H137 0.961 . S
C122 C123 1.370 . S
C122 C124 1.363 . S
C122 H138 0.931 . S
C123 C122 1.370 . S
C123 C127 1.408 . S
C124 C122 1.363 . S
C124 C125 1.370 . S
C124 C128 1.524 . S
C125 C117 1.503 . S
C125 C124 1.370 . S
C125 C126 1.403 . S
C126 C125 1.403 . S
C126 C127 1.404 . S
C126 C129 1.539 . S
C127 C123 1.408 . S
C127 C126 1.404 . S
C127 H139 0.930 . S
C128 C124 1.524 . S
C128 H140 0.956 . S
C128 H141 0.961 . S
C128 H142 0.961 . S
C129 C126 1.539 . S
C129 H143 0.958 . S
C129 H144 0.961 . S
C129 H145 0.960 . S
H130 C114 0.931 . S
H131 C119 0.929 . S
H132 C120 0.960 . S
H133 C120 0.962 . S
H134 C120 0.960 . S
H135 C121 0.961 . S
H136 C121 0.961 . S
H137 C121 0.961 . S
H138 C122 0.931 . S
H139 C127 0.930 . S
H140 C128 0.956 . S
H141 C128 0.961 . S
H142 C128 0.961 . S
H143 C129 0.958 . S
H144 C129 0.961 . S
H145 C129 0.960 . S
C146 C147 1.391 . S
C146 C148 1.394 . S
C146 H162 0.931 . S
C147 C146 1.391 . S
C147 C151 1.376 . S
C148 C146 1.394 . S
C148 C149 1.369 . S
C148 C152 1.531 . S
C149 C148 1.369 . S
C149 C150 1.410 . S
C149 C157 1.503 . S
C150 C149 1.410 . S
C150 C151 1.392 . S
C150 C153 1.511 . S
C151 C147 1.376 . S
C151 C150 1.392 . S
C151 H163 0.929 . S
C152 C148 1.531 . S
C152 H164 0.960 . S
C152 H165 0.962 . S
C152 H166 0.960 . S
C153 C150 1.511 . S
C153 H167 0.961 . S
C153 H168 0.961 . S
C153 H169 0.961 . S
C154 C155 1.370 . S
C154 C156 1.363 . S
C154 H170 0.931 . S
C155 C154 1.370 . S
C155 C159 1.408 . S
C156 C154 1.363 . S
C156 C157 1.370 . S
C156 C160 1.524 . S
C157 C149 1.503 . S
C157 C156 1.370 . S
C157 C158 1.403 . S
C158 C157 1.403 . S
C158 C159 1.404 . S
C158 C161 1.539 . S
C159 C155 1.408 . S
C159 C158 1.404 . S
C159 H171 0.930 . S
C160 C156 1.524 . S
C160 H172 0.956 . S
C160 H173 0.961 . S
C160 H174 0.961 . S
C161 C158 1.539 . S
C161 H175 0.958 . S
C161 H176 0.961 . S
C161 H177 0.960 . S
H162 C146 0.931 . S
H163 C151 0.929 . S
H164 C152 0.960 . S
H165 C152 0.962 . S
H166 C152 0.960 . S
H167 C153 0.961 . S
H168 C153 0.961 . S
H169 C153 0.961 . S
H170 C154 0.931 . S
H171 C159 0.930 . S
H172 C160 0.956 . S
H173 C160 0.961 . S
H174 C160 0.961 . S
H175 C161 0.958 . S
H176 C161 0.961 . S
H177 C161 0.960 . S
C178 C179 1.391 . S
C178 C180 1.394 . S
C178 H194 0.931 . S
C179 C178 1.391 . S
C179 C183 1.376 . S
C180 C178 1.394 . S
C180 C181 1.369 . S
C180 C184 1.531 . S
C181 C180 1.369 . S
C181 C182 1.410 . S
C181 C189 1.503 . S
C182 C181 1.410 . S
C182 C183 1.392 . S
C182 C185 1.511 . S
C183 C179 1.376 . S
C183 C182 1.392 . S
C183 H195 0.929 . S
C184 C180 1.531 . S
C184 H196 0.960 . S
C184 H197 0.962 . S
C184 H198 0.960 . S
C185 C182 1.511 . S
C185 H199 0.961 . S
C185 H200 0.961 . S
C185 H201 0.961 . S
C186 C187 1.370 . S
C186 C188 1.363 . S
C186 H202 0.931 . S
C187 C186 1.370 . S
C187 C191 1.408 . S
C188 C186 1.363 . S
C188 C189 1.370 . S
C188 C192 1.524 . S
C189 C181 1.503 . S
C189 C188 1.370 . S
C189 C190 1.403 . S
C190 C189 1.403 . S
C190 C191 1.404 . S
C190 C193 1.539 . S
C191 C187 1.408 . S
C191 C190 1.404 . S
C191 H203 0.936 . S
C192 C188 1.524 . S
C192 H204 0.956 . S
C192 H205 0.961 . S
C192 H206 0.961 . S
C193 C190 1.539 . S
C193 H207 0.958 . S
C193 H208 0.961 . S
C193 H209 0.960 . S
H194 C178 0.931 . S
H195 C183 0.929 . S
H196 C184 0.960 . S
H197 C184 0.962 . S
H198 C184 0.960 . S
H199 C185 0.961 . S
H200 C185 0.961 . S
H201 C185 0.961 . S
H202 C186 0.931 . S
H203 C191 0.936 . S
H204 C192 0.956 . S
H205 C192 0.961 . S
H206 C192 0.961 . S
H207 C193 0.958 . S
H208 C193 0.961 . S
H209 C193 0.960 . S
C210 C211 1.391 . S
C210 C212 1.394 . S
C210 H226 0.931 . S
C211 C210 1.391 . S
C211 C215 1.376 . S
C212 C210 1.394 . S
C212 C213 1.369 . S
C212 C216 1.531 . S
C213 C212 1.369 . S
C213 C214 1.410 . S
C213 C221 1.503 . S
C214 C213 1.410 . S
C214 C215 1.392 . S
C214 C217 1.511 . S
C215 C211 1.376 . S
C215 C214 1.392 . S
C215 H227 0.929 . S
C216 C212 1.531 . S
C216 H228 0.960 . S
C216 H229 0.962 . S
C216 H230 0.960 . S
C217 C214 1.511 . S
C217 H231 0.961 . S
C217 H232 0.961 . S
C217 H233 0.961 . S
C218 C219 1.370 . S
C218 C220 1.363 . S
C218 H234 0.931 . S
C219 C218 1.370 . S
C219 C223 1.408 . S
C220 C218 1.363 . S
C220 C221 1.370 . S
C220 C224 1.524 . S
C221 C213 1.503 . S
C221 C220 1.370 . S
C221 C222 1.403 . S
C222 C221 1.403 . S
C222 C223 1.404 . S
C222 C225 1.539 . S
C223 C219 1.408 . S
C223 C222 1.404 . S
C223 H235 0.930 . S
C224 C220 1.524 . S
C224 H236 0.956 . S
C224 H237 0.961 . S
C224 H238 0.961 . S
C225 C222 1.539 . S
C225 H239 0.958 . S
C225 H240 0.961 . S
C225 H241 0.960 . S
H226 C210 0.931 . S
H227 C215 0.929 . S
H228 C216 0.960 . S
H229 C216 0.962 . S
H230 C216 0.960 . S
H231 C217 0.961 . S
H232 C217 0.961 . S
H233 C217 0.961 . S
H234 C218 0.931 . S
H235 C223 0.930 . S
H236 C224 0.956 . S
H237 C224 0.961 . S
H238 C224 0.961 . S
H239 C225 0.958 . S
H240 C225 0.961 . S
H241 C225 0.960 . S
C242 C243 1.391 . S
C242 C244 1.394 . S
C242 H258 0.931 . S
C243 C242 1.391 . S
C243 C247 1.376 . S
C244 C242 1.394 . S
C244 C245 1.369 . S
C244 C248 1.531 . S
C245 C244 1.369 . S
C245 C246 1.410 . S
C245 C253 1.503 . S
C246 C245 1.410 . S
C246 C247 1.392 . S
C246 C249 1.511 . S
C247 C243 1.376 . S
C247 C246 1.392 . S
C247 H259 0.929 . S
C248 C244 1.531 . S
C248 H260 0.960 . S
C248 H261 0.962 . S
C248 H262 0.960 . S
C249 C246 1.511 . S
C249 H263 0.961 . S
C249 H264 0.961 . S
C249 H265 0.961 . S
C250 C251 1.370 . S
C250 C252 1.363 . S
C250 H266 0.931 . S
C251 C250 1.370 . S
C251 C255 1.408 . S
C252 C250 1.363 . S
C252 C253 1.370 . S
C252 C256 1.524 . S
C253 C245 1.503 . S
C253 C252 1.370 . S
C253 C254 1.403 . S
C254 C253 1.403 . S
C254 C255 1.404 . S
C254 C257 1.539 . S
C255 C251 1.408 . S
C255 C254 1.404 . S
C255 H267 0.930 . S
C256 C252 1.524 . S
C256 H268 0.956 . S
C256 H269 0.961 . S
C256 H270 0.961 . S
C257 C254 1.539 . S
C257 H271 0.958 . S
C257 H272 0.961 . S
C257 H273 0.960 . S
H258 C242 0.931 . S
H259 C247 0.929 . S
H260 C248 0.960 . S
H261 C248 0.962 . S
H262 C248 0.960 . S
H263 C249 0.961 . S
H264 C249 0.961 . S
H265 C249 0.961 . S
H266 C250 0.931 . S
H267 C255 0.930 . S
H268 C256 0.956 . S
H269 C256 0.961 . S
H270 C256 0.961 . S
H271 C257 0.958 . S
H272 C257 0.961 . S
H273 C257 0.960 . S
C274 C275 1.391 . S
C274 C276 1.394 . S
C274 H290 0.931 . S
C275 C274 1.391 . S
C275 C279 1.376 . S
C276 C274 1.394 . S
C276 C277 1.369 . S
C276 C280 1.531 . S
C277 C276 1.369 . S
C277 C278 1.410 . S
C277 C285 1.503 . S
C278 C277 1.410 . S
C278 C279 1.392 . S
C278 C281 1.511 . S
C279 C275 1.376 . S
C279 C278 1.392 . S
C279 H291 0.929 . S
C280 C276 1.531 . S
C280 H292 0.960 . S
C280 H293 0.962 . S
C280 H294 0.960 . S
C281 C278 1.511 . S
C281 H295 0.961 . S
C281 H296 0.961 . S
C281 H297 0.961 . S
C282 C283 1.370 . S
C282 C284 1.363 . S
C282 H298 0.931 . S
C283 C282 1.370 . S
C283 C287 1.408 . S
C284 C282 1.363 . S
C284 C285 1.370 . S
C284 C288 1.524 . S
C285 C277 1.503 . S
C285 C284 1.370 . S
C285 C286 1.403 . S
C286 C285 1.403 . S
C286 C287 1.404 . S
C286 C289 1.539 . S
C287 C283 1.408 . S
C287 C286 1.404 . S
C287 H299 0.930 . S
C288 C284 1.524 . S
C288 H300 0.956 . S
C288 H301 0.961 . S
C288 H302 0.961 . S
C289 C286 1.539 . S
C289 H303 0.958 . S
C289 H304 0.961 . S
C289 H305 0.960 . S
H290 C274 0.931 . S
H291 C279 0.929 . S
H292 C280 0.960 . S
H293 C280 0.962 . S
H294 C280 0.960 . S
H295 C281 0.961 . S
H296 C281 0.961 . S
H297 C281 0.961 . S
H298 C282 0.931 . S
H299 C287 0.930 . S
H300 C288 0.956 . S
H301 C288 0.961 . S
H302 C288 0.961 . S
H303 C289 0.958 . S
H304 C289 0.961 . S
H305 C289 0.960 . S
C306 C307 1.391 . S
C306 C308 1.394 . S
C306 H322 0.931 . S
C307 C306 1.391 . S
C307 C311 1.376 . S
C308 C306 1.394 . S
C308 C309 1.369 . S
C308 C312 1.531 . S
C309 C308 1.369 . S
C309 C310 1.410 . S
C309 C317 1.503 . S
C310 C309 1.410 . S
C310 C311 1.392 . S
C310 C313 1.511 . S
C311 C307 1.376 . S
C311 C310 1.392 . S
C311 H323 0.929 . S
C312 C308 1.531 . S
C312 H324 0.960 . S
C312 H325 0.962 . S
C312 H326 0.960 . S
C313 C310 1.511 . S
C313 H327 0.961 . S
C313 H328 0.961 . S
C313 H329 0.961 . S
C314 C315 1.370 . S
C314 C316 1.363 . S
C314 H330 0.931 . S
C315 C314 1.370 . S
C315 C319 1.408 . S
C316 C314 1.363 . S
C316 C317 1.370 . S
C316 C320 1.524 . S
C317 C309 1.503 . S
C317 C316 1.370 . S
C317 C318 1.403 . S
C318 C317 1.403 . S
C318 C319 1.404 . S
C318 C321 1.539 . S
C319 C315 1.408 . S
C319 C318 1.404 . S
C319 H331 0.930 . S
C320 C316 1.524 . S
C320 H332 0.956 . S
C320 H333 0.961 . S
C320 H334 0.961 . S
C321 C318 1.539 . S
C321 H335 0.958 . S
C321 H336 0.961 . S
C321 H337 0.960 . S
H322 C306 0.931 . S
H323 C311 0.929 . S
H324 C312 0.960 . S
H325 C312 0.962 . S
H326 C312 0.960 . S
H327 C313 0.961 . S
H328 C313 0.961 . S
H329 C313 0.961 . S
H330 C314 0.931 . S
H331 C319 0.930 . S
H332 C320 0.956 . S
H333 C320 0.961 . S
H334 C320 0.961 . S
H335 C321 0.958 . S
H336 C321 0.961 . S
H337 C321 0.960 . S
C338 C339 1.391 . S
C338 C340 1.394 . S
C338 H354 0.931 . S
C339 C338 1.391 . S
C339 C343 1.376 . S
C340 C338 1.394 . S
C340 C341 1.369 . S
C340 C344 1.531 . S
C341 C340 1.369 . S
C341 C342 1.410 . S
C341 C349 1.503 . S
C342 C341 1.410 . S
C342 C343 1.392 . S
C342 C345 1.511 . S
C343 C339 1.376 . S
C343 C342 1.392 . S
C343 H355 0.929 . S
C344 C340 1.531 . S
C344 H356 0.960 . S
C344 H357 0.962 . S
C344 H358 0.960 . S
C345 C342 1.511 . S
C345 H359 0.961 . S
C345 H360 0.961 . S
C345 H361 0.961 . S
C346 C347 1.370 . S
C346 C348 1.363 . S
C346 H362 0.931 . S
C347 C346 1.370 . S
C347 C351 1.408 . S
C348 C346 1.363 . S
C348 C349 1.370 . S
C348 C352 1.524 . S
C349 C341 1.503 . S
C349 C348 1.370 . S
C349 C350 1.403 . S
C350 C349 1.403 . S
C350 C351 1.404 . S
C350 C353 1.539 . S
C351 C347 1.408 . S
C351 C350 1.404 . S
C351 H363 0.930 . S
C352 C348 1.524 . S
C352 H364 0.956 . S
C352 H365 0.961 . S
C352 H366 0.961 . S
C353 C350 1.539 . S
C353 H367 0.958 . S
C353 H368 0.961 . S
C353 H369 0.960 . S
H354 C338 0.931 . S
H355 C343 0.929 . S
H356 C344 0.960 . S
H357 C344 0.962 . S
H358 C344 0.960 . S
H359 C345 0.961 . S
H360 C345 0.961 . S
H361 C345 0.961 . S
H362 C346 0.931 . S
H363 C351 0.930 . S
H364 C352 0.956 . S
H365 C352 0.961 . S
H366 C352 0.961 . S
H367 C353 0.958 . S
H368 C353 0.961 . S
H369 C353 0.960 . S
C370 C371 1.391 . S
C370 C372 1.394 . S
C370 H386 0.931 . S
C371 C370 1.391 . S
C371 C375 1.376 . S
C372 C370 1.394 . S
C372 C373 1.369 . S
C372 C376 1.531 . S
C373 C372 1.369 . S
C373 C374 1.410 . S
C373 C381 1.503 . S
C374 C373 1.410 . S
C374 C375 1.392 . S
C374 C377 1.511 . S
C375 C371 1.376 . S
C375 C374 1.392 . S
C375 H387 0.929 . S
C376 C372 1.531 . S
C376 H388 0.960 . S
C376 H389 0.962 . S
C376 H390 0.960 . S
C377 C374 1.511 . S
C377 H391 0.961 . S
C377 H392 0.961 . S
C377 H393 0.961 . S
C378 C379 1.370 . S
C378 C380 1.363 . S
C378 H394 0.931 . S
C379 C378 1.370 . S
C379 C383 1.408 . S
C380 C378 1.363 . S
C380 C381 1.370 . S
C380 C384 1.524 . S
C381 C373 1.503 . S
C381 C380 1.370 . S
C381 C382 1.403 . S
C382 C381 1.403 . S
C382 C383 1.404 . S
C382 C385 1.539 . S
C383 C379 1.408 . S
C383 C382 1.404 . S
C383 H395 0.930 . S
C384 C380 1.524 . S
C384 H396 0.956 . S
C384 H397 0.961 . S
C384 H398 0.961 . S
C385 C382 1.539 . S
C385 H399 0.958 . S
C385 H400 0.961 . S
C385 H401 0.960 . S
H386 C370 0.931 . S
H387 C375 0.929 . S
H388 C376 0.960 . S
H389 C376 0.962 . S
H390 C376 0.960 . S
H391 C377 0.961 . S
H392 C377 0.961 . S
H393 C377 0.961 . S
H394 C378 0.931 . S
H395 C383 0.930 . S
H396 C384 0.956 . S
H397 C384 0.961 . S
H398 C384 0.961 . S
H399 C385 0.958 . S
H400 C385 0.961 . S
H401 C385 0.960 . S
C402 C403 1.391 . S
C402 C404 1.394 . S
C402 H418 0.931 . S
C403 C402 1.391 . S
C403 C407 1.376 . S
C404 C402 1.394 . S
C404 C405 1.369 . S
C404 C408 1.531 . S
C405 C404 1.369 . S
C405 C406 1.410 . S
C405 C413 1.503 . S
C406 C405 1.410 . S
C406 C407 1.392 . S
C406 C409 1.511 . S
C407 C403 1.376 . S
C407 C406 1.392 . S
C407 H419 0.929 . S
C408 C404 1.531 . S
C408 H420 0.960 . S
C408 H421 0.962 . S
C408 H422 0.960 . S
C409 C406 1.511 . S
C409 H423 0.961 . S
C409 H424 0.961 . S
C409 H425 0.961 . S
C410 C411 1.370 . S
C410 C412 1.363 . S
C410 H426 0.931 . S
C411 C410 1.370 . S
C411 C415 1.408 . S
C412 C410 1.363 . S
C412 C413 1.370 . S
C412 C416 1.524 . S
C413 C405 1.503 . S
C413 C412 1.370 . S
C413 C414 1.403 . S
C414 C413 1.403 . S
C414 C415 1.404 . S
C414 C417 1.539 . S
C415 C411 1.408 . S
C415 C414 1.404 . S
C415 H427 0.930 . S
C416 C412 1.524 . S
C416 H428 0.956 . S
C416 H429 0.961 . S
C416 H430 0.961 . S
C417 C414 1.539 . S
C417 H431 0.958 . S
C417 H432 0.961 . S
C417 H433 0.960 . S
H418 C402 0.931 . S
H419 C407 0.929 . S
H420 C408 0.960 . S
H421 C408 0.962 . S
H422 C408 0.960 . S
H423 C409 0.961 . S
H424 C409 0.961 . S
H425 C409 0.961 . S
H426 C410 0.931 . S
H427 C415 0.930 . S
H428 C416 0.956 . S
H429 C416 0.961 . S
H430 C416 0.961 . S
H431 C417 0.958 . S
H432 C417 0.961 . S
H433 C417 0.960 . S
C434 C435 1.391 . S
C434 C436 1.394 . S
C434 H450 0.931 . S
C435 C434 1.391 . S
C435 C439 1.376 . S
C436 C434 1.394 . S
C436 C437 1.369 . S
C436 C440 1.531 . S
C437 C436 1.369 . S
C437 C438 1.410 . S
C437 C445 1.503 . S
C438 C437 1.410 . S
C438 C439 1.392 . S
C438 C441 1.511 . S
C439 C435 1.376 . S
C439 C438 1.392 . S
C439 H451 0.929 . S
C440 C436 1.531 . S
C440 H452 0.960 . S
C440 H453 0.962 . S
C440 H454 0.960 . S
C441 C438 1.511 . S
C441 H455 0.961 . S
C441 H456 0.961 . S
C441 H457 0.961 . S
C442 C443 1.370 . S
C442 C444 1.363 . S
C442 H458 0.931 . S
C443 C442 1.370 . S
C443 C447 1.408 . S
C444 C442 1.363 . S
C444 C445 1.370 . S
C444 C448 1.524 . S
C445 C437 1.503 . S
C445 C444 1.370 . S
C445 C446 1.403 . S
C446 C445 1.403 . S
C446 C447 1.404 . S
C446 C449 1.539 . S
C447 C443 1.408 . S
C447 C446 1.404 . S
C447 H459 0.930 . S
C448 C444 1.524 . S
C448 H460 0.956 . S
C448 H461 0.961 . S
C448 H462 0.961 . S
C449 C446 1.539 . S
C449 H463 0.958 . S
C449 H464 0.961 . S
C449 H465 0.960 . S
H450 C434 0.931 . S
H451 C439 0.929 . S
H452 C440 0.960 . S
H453 C440 0.962 . S
H454 C440 0.960 . S
H455 C441 0.961 . S
H456 C441 0.961 . S
H457 C441 0.961 . S
H458 C442 0.931 . S
H459 C447 0.930 . S
H460 C448 0.956 . S
H461 C448 0.961 . S
H462 C448 0.961 . S
H463 C449 0.958 . S
H464 C449 0.961 . S
H465 C449 0.960 . S
C466 C467 1.391 . S
C466 C468 1.394 . S
C466 H482 0.931 . S
C467 C466 1.391 . S
C467 C471 1.376 . S
C468 C466 1.394 . S
C468 C469 1.369 . S
C468 C472 1.531 . S
C469 C468 1.369 . S
C469 C470 1.410 . S
C469 C477 1.503 . S
C470 C469 1.410 . S
C470 C471 1.392 . S
C470 C473 1.511 . S
C471 C467 1.376 . S
C471 C470 1.392 . S
C471 H483 0.929 . S
C472 C468 1.531 . S
C472 H484 0.960 . S
C472 H485 0.962 . S
C472 H486 0.960 . S
C473 C470 1.511 . S
C473 H487 0.961 . S
C473 H488 0.961 . S
C473 H489 0.961 . S
C474 C475 1.370 . S
C474 C476 1.363 . S
C474 H490 0.931 . S
C475 C474 1.370 . S
C475 C479 1.408 . S
C476 C474 1.363 . S
C476 C477 1.370 . S
C476 C480 1.524 . S
C477 C469 1.503 . S
C477 C476 1.370 . S
C477 C478 1.403 . S
C478 C477 1.403 . S
C478 C479 1.404 . S
C478 C481 1.539 . S
C479 C475 1.408 . S
C479 C478 1.404 . S
C479 H491 0.930 . S
C480 C476 1.524 . S
C480 H492 0.956 . S
C480 H493 0.961 . S
C480 H494 0.961 . S
C481 C478 1.539 . S
C481 H495 0.958 . S
C481 H496 0.961 . S
C481 H497 0.960 . S
H482 C466 0.931 . S
H483 C471 0.929 . S
H484 C472 0.960 . S
H485 C472 0.962 . S
H486 C472 0.960 . S
H487 C473 0.961 . S
H488 C473 0.961 . S
H489 C473 0.961 . S
H490 C474 0.931 . S
H491 C479 0.930 . S
H492 C480 0.956 . S
H493 C480 0.961 . S
H494 C480 0.961 . S
H495 C481 0.958 . S
H496 C481 0.961 . S
H497 C481 0.960 . S
C498 C499 1.391 . S
C498 C500 1.394 . S
C498 H514 0.931 1_455 S
C499 C498 1.391 . S
C499 C503 1.376 . S
C500 C498 1.394 . S
C500 C501 1.369 . S
C500 C504 1.531 1_455 S
C501 C500 1.369 . S
C501 C502 1.410 . S
C501 C509 1.503 . S
C502 C501 1.410 . S
C502 C503 1.392 . S
C502 C505 1.511 . S
C503 C499 1.376 . S
C503 C502 1.392 . S
C503 H515 0.929 . S
C504 C500 1.531 1_655 S
C504 H516 0.960 1_655 S
C504 H517 0.962 . S
C504 H518 0.960 . S
C505 C502 1.511 . S
C505 H519 0.961 . S
C505 H520 0.961 . S
C505 H521 0.961 . S
C506 C507 1.370 . S
C506 C508 1.363 . S
C506 H522 0.931 1_455 S
C507 C506 1.370 . S
C507 C511 1.408 . S
C508 C506 1.363 . S
C508 C509 1.370 1_556 S
C508 C512 1.524 1_456 S
C509 C501 1.503 . S
C509 C508 1.370 1_554 S
C509 C510 1.403 1_554 S
C510 C509 1.403 1_556 S
C510 C511 1.404 . S
C510 C513 1.539 1_556 S
C511 C507 1.408 . S
C511 C510 1.404 . S
C511 H523 0.930 . S
C512 C508 1.524 1_654 S
C512 H524 0.956 . S
C512 H525 0.961 1_655 S
C512 H526 0.961 1_554 S
C513 C510 1.539 1_554 S
C513 H527 0.958 . S
C513 H528 0.961 1_554 S
C513 H529 0.960 . S
H514 C498 0.931 1_655 S
H515 C503 0.929 . S
H516 C504 0.960 1_455 S
H517 C504 0.962 . S
H518 C504 0.960 . S
H519 C505 0.961 . S
H520 C505 0.961 . S
H521 C505 0.961 . S
H522 C506 0.931 1_655 S
H523 C511 0.930 . S
H524 C512 0.956 . S
H525 C512 0.961 1_455 S
H526 C512 0.961 1_556 S
H527 C513 0.958 . S
H528 C513 0.961 1_556 S
H529 C513 0.960 . S
C530 C531 1.391 . S
C530 C532 1.394 . S
C530 H546 0.931 . S
C531 C530 1.391 . S
C531 C535 1.376 . S
C532 C530 1.394 . S
C532 C533 1.369 . S
C532 C536 1.531 1_545 S
C533 C532 1.369 . S
C533 C534 1.410 . S
C533 C541 1.503 . S
C534 C533 1.410 . S
C534 C535 1.392 . S
C534 C537 1.511 . S
C535 C531 1.376 . S
C535 C534 1.392 . S
C535 H547 0.929 . S
C536 C532 1.531 1_565 S
C536 H548 0.960 . S
C536 H549 0.962 1_565 S
C536 H550 0.960 . S
C537 C534 1.511 . S
C537 H551 0.961 . S
C537 H552 0.961 . S
C537 H553 0.961 1_545 S
C538 C539 1.370 . S
C538 C540 1.363 . S
C538 H554 0.931 . S
C539 C538 1.370 . S
C539 C543 1.408 1_545 S
C540 C538 1.363 . S
C540 C541 1.370 . S
C540 C544 1.524 . S
C541 C533 1.503 . S
C541 C540 1.370 . S
C541 C542 1.403 1_545 S
C542 C541 1.403 1_565 S
C542 C543 1.404 . S
C542 C545 1.539 . S
C543 C539 1.408 1_565 S
C543 C542 1.404 . S
C543 H555 0.930 . S
C544 C540 1.524 . S
C544 H556 0.956 . S
C544 H557 0.961 . S
C544 H558 0.961 . S
C545 C542 1.539 . S
C545 H559 0.958 . S
C545 H560 0.961 . S
C545 H561 0.960 . S
H546 C530 0.931 . S
H547 C535 0.929 . S
H548 C536 0.960 . S
H549 C536 0.962 1_545 S
H550 C536 0.960 . S
H551 C537 0.961 . S
H552 C537 0.961 . S
H553 C537 0.961 1_565 S
H554 C538 0.931 . S
H555 C543 0.930 . S
H556 C544 0.956 . S
H557 C544 0.961 . S
H558 C544 0.961 . S
H559 C545 0.958 . S
H560 C545 0.961 . S
H561 C545 0.960 . S
C562 C563 1.391 . S
C562 C564 1.394 . S
C562 H578 0.931 . S
C563 C562 1.391 . S
C563 C567 1.376 . S
C564 C562 1.394 . S
C564 C565 1.369 . S
C564 C568 1.531 . S
C565 C564 1.369 . S
C565 C566 1.410 . S
C565 C573 1.503 . S
C566 C565 1.410 . S
C566 C567 1.392 . S
C566 C569 1.511 . S
C567 C563 1.376 . S
C567 C566 1.392 . S
C567 H579 0.929 . S
C568 C564 1.531 . S
C568 H580 0.960 . S
C568 H581 0.962 . S
C568 H582 0.960 . S
C569 C566 1.511 . S
C569 H583 0.961 . S
C569 H584 0.961 . S
C569 H585 0.961 . S
C570 C571 1.370 . S
C570 C572 1.363 . S
C570 H586 0.931 . S
C571 C570 1.370 . S
C571 C575 1.408 . S
C572 C570 1.363 . S
C572 C573 1.370 . S
C572 C576 1.524 . S
C573 C565 1.503 . S
C573 C572 1.370 . S
C573 C574 1.403 . S
C574 C573 1.403 . S
C574 C575 1.404 . S
C574 C577 1.539 . S
C575 C571 1.408 . S
C575 C574 1.404 . S
C575 H587 0.930 . S
C576 C572 1.524 . S
C576 H588 0.956 . S
C576 H589 0.961 . S
C576 H590 0.961 . S
C577 C574 1.539 . S
C577 H591 0.958 . S
C577 H592 0.961 . S
C577 H593 0.960 . S
H578 C562 0.931 . S
H579 C567 0.929 . S
H580 C568 0.960 . S
H581 C568 0.962 . S
H582 C568 0.960 . S
H583 C569 0.961 . S
H584 C569 0.961 . S
H585 C569 0.961 . S
H586 C570 0.931 . S
H587 C575 0.930 . S
H588 C576 0.956 . S
H589 C576 0.961 . S
H590 C576 0.961 . S
H591 C577 0.958 . S
H592 C577 0.961 . S
H593 C577 0.960 . S
C594 C595 1.391 . S
C594 C596 1.394 . S
C594 H610 0.931 1_545 S
C595 C594 1.391 . S
C595 C599 1.376 . S
C596 C594 1.394 . S
C596 C597 1.369 . S
C596 C600 1.531 1_545 S
C597 C596 1.369 . S
C597 C598 1.410 . S
C597 C605 1.503 . S
C598 C597 1.410 . S
C598 C599 1.392 . S
C598 C601 1.511 . S
C599 C595 1.376 . S
C599 C598 1.392 . S
C599 H611 0.929 . S
C600 C596 1.531 1_565 S
C600 H612 0.960 . S
C600 H613 0.962 1_565 S
C600 H614 0.960 . S
C601 C598 1.511 . S
C601 H615 0.961 . S
C601 H616 0.961 . S
C601 H617 0.961 . S
C602 C603 1.370 . S
C602 C604 1.363 . S
C602 H618 0.931 . S
C603 C602 1.370 . S
C603 C607 1.408 . S
C604 C602 1.363 . S
C604 C605 1.370 . S
C604 C608 1.524 . S
C605 C597 1.503 . S
C605 C604 1.370 . S
C605 C606 1.403 . S
C606 C605 1.403 . S
C606 C607 1.404 . S
C606 C609 1.539 1_545 S
C607 C603 1.408 . S
C607 C606 1.404 . S
C607 H619 0.930 1_545 S
C608 C604 1.524 . S
C608 H620 0.956 . S
C608 H621 0.961 . S
C608 H622 0.961 . S
C609 C606 1.539 1_565 S
C609 H623 0.958 . S
C609 H624 0.961 . S
C609 H625 0.960 . S
H610 C594 0.931 1_565 S
H611 C599 0.929 . S
H612 C600 0.960 . S
H613 C600 0.962 1_545 S
H614 C600 0.960 . S
H615 C601 0.961 . S
H616 C601 0.961 . S
H617 C601 0.961 . S
H618 C602 0.931 . S
H619 C607 0.930 1_565 S
H620 C608 0.956 . S
H621 C608 0.961 . S
H622 C608 0.961 . S
H623 C609 0.958 . S
H624 C609 0.961 . S
H625 C609 0.960 . S
C626 C627 1.391 . S
C626 C628 1.394 . S
C626 H642 0.931 . S
C627 C626 1.391 . S
C627 C631 1.376 . S
C628 C626 1.394 . S
C628 C629 1.369 . S
C628 C632 1.531 . S
C629 C628 1.369 . S
C629 C630 1.410 . S
C629 C637 1.503 . S
C630 C629 1.410 . S
C630 C631 1.392 . S
C630 C633 1.511 . S
C631 C627 1.376 . S
C631 C630 1.392 . S
C631 H643 0.929 . S
C632 C628 1.531 . S
C632 H644 0.960 . S
C632 H645 0.962 . S
C632 H646 0.960 . S
C633 C630 1.511 . S
C633 H647 0.961 . S
C633 H648 0.961 . S
C633 H649 0.961 . S
C634 C635 1.370 . S
C634 C636 1.363 . S
C634 H650 0.931 . S
C635 C634 1.370 . S
C635 C639 1.408 . S
C636 C634 1.363 . S
C636 C637 1.370 1_554 S
C636 C640 1.524 1_554 S
C637 C629 1.503 . S
C637 C636 1.370 1_556 S
C637 C638 1.403 1_556 S
C638 C637 1.403 1_554 S
C638 C639 1.404 . S
C638 C641 1.539 . S
C639 C635 1.408 . S
C639 C638 1.404 . S
C639 H651 0.930 . S
C640 C636 1.524 1_556 S
C640 H652 0.956 . S
C640 H653 0.961 . S
C640 H654 0.968 . S
C641 C638 1.539 . S
C641 H655 0.958 . S
C641 H656 0.961 . S
C641 H657 0.960 1_554 S
H642 C626 0.931 . S
H643 C631 0.929 . S
H644 C632 0.960 . S
H645 C632 0.962 . S
H646 C632 0.960 . S
H647 C633 0.961 . S
H648 C633 0.961 . S
H649 C633 0.961 . S
H650 C634 0.931 . S
H651 C639 0.930 . S
H652 C640 0.956 . S
H653 C640 0.961 . S
H654 C640 0.968 . S
H655 C641 0.958 . S
H656 C641 0.961 . S
H657 C641 0.960 1_556 S
C658 C659 1.391 1_655 S
C658 C660 1.394 . S
C658 H674 0.931 . S
C659 C658 1.391 1_455 S
C659 C663 1.376 . S
C660 C658 1.394 . S
C660 C661 1.369 1_655 S
C660 C664 1.531 . S
C661 C660 1.369 1_455 S
C661 C662 1.410 . S
C661 C669 1.503 . S
C662 C661 1.410 . S
C662 C663 1.392 . S
C662 C665 1.511 . S
C663 C659 1.376 . S
C663 C662 1.392 . S
C663 H675 0.929 . S
C664 C660 1.531 . S
C664 H676 0.960 . S
C664 H677 0.962 . S
C664 H678 0.960 . S
C665 C662 1.511 . S
C665 H679 0.961 . S
C665 H680 0.961 . S
C665 H681 0.961 . S
C666 C667 1.370 . S
C666 C668 1.363 . S
C666 H682 0.931 . S
C667 C666 1.370 . S
C667 C671 1.408 . S
C668 C666 1.363 . S
C668 C669 1.370 . S
C668 C672 1.524 . S
C669 C661 1.503 . S
C669 C668 1.370 . S
C669 C670 1.403 . S
C670 C669 1.403 . S
C670 C671 1.404 . S
C670 C673 1.539 . S
C671 C667 1.408 . S
C671 C670 1.404 . S
C671 H683 0.930 . S
C672 C668 1.524 . S
C672 H684 0.956 1_455 S
C672 H685 0.961 . S
C672 H686 0.961 . S
C673 C670 1.539 . S
C673 H687 0.958 1_455 S
C673 H688 0.961 . S
C673 H689 0.960 . S
H674 C658 0.931 . S
H675 C663 0.929 . S
H676 C664 0.960 . S
H677 C664 0.962 . S
H678 C664 0.960 . S
H679 C665 0.961 . S
H680 C665 0.961 . S
H681 C665 0.961 . S
H682 C666 0.931 . S
H683 C671 0.930 . S
H684 C672 0.956 1_655 S
H685 C672 0.961 . S
H686 C672 0.961 . S
H687 C673 0.958 1_655 S
H688 C673 0.961 . S
H689 C673 0.960 . S
C115 C2 0.994 . S
C123 C109 1.027 . S
C147 C21 0.979 . S
C155 C91 0.996 . S
C179 C42 0.982 . S
C187 C103 1.009 1_565 S
C211 C1 0.928 . S
C219 C112 0.977 . S
C251 C94 1.006 . S
C243 C22 0.990 . S
C283 C100 1.005 . S
C275 C41 1.006 . S
C307 C38 1.773 . S
C315 C73 1.801 . S
C339 C59 1.864 . S
C347 C82 1.843 1_655 S
C371 C18 1.782 . S
C379 C64 1.804 . S
C411 C76 1.820 . S
C403 C39 1.851 . S
C443 C85 1.789 . S
C435 C58 1.785 . S
C467 C19 1.846 . S
C475 C67 1.831 . S
C507 C83 1.575 . S
C499 C9 1.497 . S
C531 C29 1.527 . S
C539 C65 1.576 . S
C563 C49 1.476 . S
C571 C74 1.576 . S
C603 C101 1.388 . S
C595 C28 1.355 . S
C635 C110 1.388 . S
C627 C48 1.331 . S
C659 C8 1.333 . S
C667 C92 1.386 . S
