# Generated by pormake.
# Topology zzz, (3,6)-cn, num edge types: 1
# Building blocks:
#     Node 0, Type 0, BuildingBlock: MIDCAF_clean_linker_0, # of connection points: 3
#     Node 1, Type 0, BuildingBlock: MIDCAF_clean_linker_0, # of connection points: 3
#     Node 2, Type 0, BuildingBlock: MIDCAF_clean_linker_0, # of connection points: 3
#     Node 3, Type 0, BuildingBlock: MIDCAF_clean_linker_0, # of connection points: 3
#     Node 4, Type 0, BuildingBlock: MIDCAF_clean_linker_0, # of connection points: 3
#     Node 5, Type 0, BuildingBlock: MIDCAF_clean_linker_0, # of connection points: 3
#     Node 6, Type 0, BuildingBlock: MIDCAF_clean_linker_0, # of connection points: 3
#     Node 7, Type 0, BuildingBlock: MIDCAF_clean_linker_0, # of connection points: 3
#     Node 8, Type 1, BuildingBlock: CUKXOW_clean_sbu_0, # of connection points: 6
#     Node 9, Type 1, BuildingBlock: CUKXOW_clean_sbu_0, # of connection points: 6
#     Node 10, Type 1, BuildingBlock: CUKXOW_clean_sbu_0, # of connection points: 6
#     Node 11, Type 1, BuildingBlock: CUKXOW_clean_sbu_0, # of connection points: 6
#     Edge 12, Type (0, 1), BuildingBlock: CIFDUS_clean_linker_0, # of connection points: 2
#     Edge 13, Type (0, 1), BuildingBlock: CIFDUS_clean_linker_0, # of connection points: 2
#     Edge 14, Type (0, 1), BuildingBlock: CIFDUS_clean_linker_0, # of connection points: 2
#     Edge 15, Type (0, 1), BuildingBlock: CIFDUS_clean_linker_0, # of connection points: 2
#     Edge 16, Type (0, 1), BuildingBlock: CIFDUS_clean_linker_0, # of connection points: 2
#     Edge 17, Type (0, 1), BuildingBlock: CIFDUS_clean_linker_0, # of connection points: 2
#     Edge 18, Type (0, 1), BuildingBlock: CIFDUS_clean_linker_0, # of connection points: 2
#     Edge 19, Type (0, 1), BuildingBlock: CIFDUS_clean_linker_0, # of connection points: 2
#     Edge 20, Type (0, 1), BuildingBlock: CIFDUS_clean_linker_0, # of connection points: 2
#     Edge 21, Type (0, 1), BuildingBlock: CIFDUS_clean_linker_0, # of connection points: 2
#     Edge 22, Type (0, 1), BuildingBlock: CIFDUS_clean_linker_0, # of connection points: 2
#     Edge 23, Type (0, 1), BuildingBlock: CIFDUS_clean_linker_0, # of connection points: 2
#     Edge 24, Type (0, 1), BuildingBlock: CIFDUS_clean_linker_0, # of connection points: 2
#     Edge 25, Type (0, 1), BuildingBlock: CIFDUS_clean_linker_0, # of connection points: 2
#     Edge 26, Type (0, 1), BuildingBlock: CIFDUS_clean_linker_0, # of connection points: 2
#     Edge 27, Type (0, 1), BuildingBlock: CIFDUS_clean_linker_0, # of connection points: 2
#     Edge 28, Type (0, 1), BuildingBlock: CIFDUS_clean_linker_0, # of connection points: 2
#     Edge 29, Type (0, 1), BuildingBlock: CIFDUS_clean_linker_0, # of connection points: 2
#     Edge 30, Type (0, 1), BuildingBlock: CIFDUS_clean_linker_0, # of connection points: 2
#     Edge 31, Type (0, 1), BuildingBlock: CIFDUS_clean_linker_0, # of connection points: 2
#     Edge 32, Type (0, 1), BuildingBlock: CIFDUS_clean_linker_0, # of connection points: 2
#     Edge 33, Type (0, 1), BuildingBlock: CIFDUS_clean_linker_0, # of connection points: 2
#     Edge 34, Type (0, 1), BuildingBlock: CIFDUS_clean_linker_0, # of connection points: 2
#     Edge 35, Type (0, 1), BuildingBlock: CIFDUS_clean_linker_0, # of connection points: 2
# Relax obj value: 0.215
# Max RMSD: 0.231
# Mean RMSD: 0.187
data_MOF--net-zzz--node1-CUKXOW_clean_sbu_0--node2-MIDCAF_clean_linker_0--edge1-CIFDUS_clean_linker_0
_symmetry_space_group_name_H-M    P1
_symmetry_Int_Tables_number       1
_symmetry_cell_setting            triclinic
loop_
_symmetry_equiv_pos_as_xyz
'x, y, z'
_cell_length_a     52.144864
_cell_length_b     51.219698
_cell_length_c     18.448174
_cell_angle_alpha  92.69484
_cell_angle_beta   88.254167
_cell_angle_gamma 95.530219
loop_
_atom_site_label
_atom_site_type_symbol
_atom_site_fract_x
_atom_site_fract_y
_atom_site_fract_z
_atom_type_partial_charge
C0 C 0.80611 0.43653 0.34224 0.0
C1 C 0.80847 0.46173 0.37644 0.0
C2 C 0.79476 0.4813 0.34845 0.0
C3 C 0.78069 0.47626 0.28466 0.0
H4 H 0.71016 0.4841 0.13302 0.0
H5 H 0.67118 0.49615 0.07611 0.0
H6 H 0.68947 0.44976 0.88335 0.0
H7 H 0.7277 0.43764 0.93926 0.0
H8 H 0.79313 0.44591 0.90654 0.0
H9 H 0.83282 0.44414 0.83352 0.0
H10 H 0.86803 0.40906 0.00912 0.0
H11 H 0.82867 0.41114 0.08257 0.0
H12 H 0.79252 0.41252 0.25077 0.0
H13 H 0.81653 0.42101 0.36133 0.0
H14 H 0.79591 0.50085 0.37389 0.0
H15 H 0.77191 0.49214 0.26137 0.0
N16 N 0.75109 0.4559 0.1447 0.0
N17 N 0.76466 0.44356 0.02606 0.0
N18 N 0.79092 0.43856 0.1235 0.0
C19 C 0.74647 0.45298 0.07197 0.0
C20 C 0.78689 0.43633 0.05135 0.0
C21 C 0.77336 0.44826 0.17048 0.0
C22 C 0.72216 0.45995 0.04085 0.0
C23 C 0.7057 0.47636 0.07874 0.0
C24 C 0.6835 0.48339 0.046 0.0
C25 C 0.67719 0.47381 0.9753 0.0
C26 C 0.69353 0.4572 0.93816 0.0
C27 C 0.71565 0.45043 0.9703 0.0
C28 C 0.80801 0.4293 0.00104 0.0
C29 C 0.80908 0.43713 0.92885 0.0
C30 C 0.83178 0.43604 0.88684 0.0
C31 C 0.85363 0.42698 0.91636 0.0
C32 C 0.85161 0.41665 0.98569 0.0
C33 C 0.82906 0.41786 0.0277 0.0
C34 C 0.78032 0.45165 0.24764 0.0
C35 C 0.79233 0.43162 0.27861 0.0
C36 C 0.89881 0.81132 0.33962 0.0
C37 C 0.91742 0.80378 0.38614 0.0
C38 C 0.92707 0.77918 0.37195 0.0
C39 C 0.92071 0.76422 0.30823 0.0
H40 H 0.94825 0.72351 0.97388 0.0
H41 H 0.9603 0.68129 0.92658 0.0
H42 H 0.91513 0.64259 0.09731 0.0
H43 H 0.90304 0.68545 0.14595 0.0
H44 H 0.94675 0.78328 0.95424 0.0
H45 H 0.96233 0.82438 0.90108 0.0
H46 H 0.89722 0.86069 0.99838 0.0
H47 H 0.88278 0.81977 0.05583 0.0
H48 H 0.87939 0.80383 0.23965 0.0
H49 H 0.89086 0.83001 0.3476 0.0
H50 H 0.94081 0.77225 0.40759 0.0
H51 H 0.93032 0.74668 0.29545 0.0
N52 N 0.91147 0.73967 0.15992 0.0
N53 N 0.91599 0.75249 0.03893 0.0
N54 N 0.90401 0.78231 0.1302 0.0
C55 C 0.91645 0.73367 0.0883 0.0
C56 C 0.90947 0.77674 0.05945 0.0
C57 C 0.90504 0.76414 0.18093 0.0
C58 C 0.9246 0.70779 0.06356 0.0
C59 C 0.94091 0.70609 0.0018 0.0
C60 C 0.94799 0.68191 0.97489 0.0
C61 C 0.93872 0.65873 0.00845 0.0
C62 C 0.92249 0.66025 0.07051 0.0
C63 C 0.91571 0.68469 0.09845 0.0
C64 C 0.9138 0.79852 0.00994 0.0
C65 C 0.93536 0.79983 0.96243 0.0
C66 C 0.94427 0.82353 0.9318 0.0
C67 C 0.93144 0.84622 0.94684 0.0
C68 C 0.90816 0.84393 0.98776 0.0
C69 C 0.89964 0.82041 0.01992 0.0
C70 C 0.90444 0.77353 0.25801 0.0
C71 C 0.89227 0.79628 0.27686 0.0
C72 C 0.68253 0.05137 0.37994 0.0
C73 C 0.68474 0.03264 0.43232 0.0
C74 C 0.70575 0.0171 0.42513 0.0
C75 C 0.72202 0.01813 0.36296 0.0
H76 H 0.80291 0.02861 0.22014 0.0
H77 H 0.84697 0.02449 0.17404 0.0
H78 H 0.81685 0.98721 0.97533 0.0
H79 H 0.77328 0.99081 0.02145 0.0
H80 H 0.6985 0.98653 0.01485 0.0
H81 H 0.65905 0.98594 0.94462 0.0
H82 H 0.65249 0.06694 0.01195 0.0
H83 H 0.69122 0.06722 0.08345 0.0
H84 H 0.69535 0.06608 0.27764 0.0
H85 H 0.66678 0.06367 0.38176 0.0
H86 H 0.70876 0.00304 0.46525 0.0
H87 H 0.73641 0.00427 0.35556 0.0
N88 N 0.75131 0.02244 0.21619 0.0
N89 N 0.74068 0.01777 0.09246 0.0
N90 N 0.71083 0.03209 0.17855 0.0
C91 C 0.75809 0.01648 0.1455 0.0
C92 C 0.71715 0.02578 0.109 0.0
C93 C 0.72746 0.03028 0.23255 0.0
C94 C 0.78457 0.01028 0.12423 0.0
C95 C 0.80575 0.01899 0.16736 0.0
C96 C 0.83098 0.01683 0.14069 0.0
C97 C 0.83547 0.00569 0.07076 0.0
C98 C 0.81419 0.99566 0.02966 0.0
C99 C 0.78912 0.99794 0.05598 0.0
C100 C 0.69776 0.02698 0.05376 0.0
C101 C 0.68896 0.00434 0.0126 0.0
C102 C 0.66639 0.00394 0.97321 0.0
C103 C 0.65286 0.02638 0.97334 0.0
C104 C 0.66273 0.04948 0.01069 0.0
C105 C 0.68482 0.04967 0.05134 0.0
C106 C 0.71772 0.03495 0.30763 0.0
C107 C 0.69894 0.05267 0.31913 0.0
C108 C 0.60477 0.64631 0.02506 0.0
C109 C 0.59488 0.64816 0.95572 0.0
C110 C 0.59579 0.67294 0.92557 0.0
C111 C 0.60443 0.69559 0.96627 0.0
H112 H 0.634 0.78274 0.9851 0.0
H113 H 0.62353 0.82076 0.9218 0.0
H114 H 0.56776 0.83734 0.09208 0.0
H115 H 0.57947 0.79996 0.15719 0.0
H116 H 0.56962 0.74 0.29077 0.0
H117 H 0.55869 0.71524 0.39893 0.0
H118 H 0.6371 0.69459 0.40357 0.0
H119 H 0.64731 0.71812 0.29283 0.0
H120 H 0.61959 0.66685 0.12056 0.0
H121 H 0.6049 0.62742 0.049 0.0
H122 H 0.58828 0.67505 0.87228 0.0
H123 H 0.60338 0.71446 0.94293 0.0
N124 N 0.61334 0.74178 0.06121 0.0
N125 N 0.60989 0.76001 0.18023 0.0
N126 N 0.61492 0.71513 0.15982 0.0
C127 C 0.61107 0.76302 0.10709 0.0
C128 C 0.61258 0.73604 0.20648 0.0
C129 C 0.61507 0.7177 0.08713 0.0
C130 C 0.60743 0.78837 0.07578 0.0
C131 C 0.61986 0.79485 0.00958 0.0
C132 C 0.61363 0.81651 0.97297 0.0
C133 C 0.59436 0.83191 0.00079 0.0
C134 C 0.58284 0.82613 0.06905 0.0
C135 C 0.58949 0.80468 0.10648 0.0
C136 C 0.60926 0.73091 0.28397 0.0
C137 C 0.58472 0.73111 0.317 0.0
C138 C 0.57849 0.71679 0.37896 0.0
C139 C 0.59684 0.70226 0.40912 0.0
C140 C 0.62226 0.70484 0.3806 0.0
C141 C 0.62829 0.71867 0.31792 0.0
C142 C 0.61218 0.69391 0.03812 0.0
C143 C 0.61334 0.66894 0.06584 0.0
C144 C 0.21265 0.57434 0.02106 0.0
C145 C 0.2126 0.55009 0.98207 0.0
C146 C 0.22871 0.53161 0.00466 0.0
C147 C 0.24302 0.53656 0.06794 0.0
H148 H 0.32442 0.57417 0.24055 0.0
H149 H 0.36468 0.56797 0.29855 0.0
H150 H 0.32341 0.51146 0.43773 0.0
H151 H 0.2832 0.51966 0.38353 0.0
H152 H 0.22891 0.55372 0.45078 0.0
H153 H 0.18946 0.55381 0.52634 0.0
H154 H 0.15342 0.59332 0.36077 0.0
H155 H 0.19247 0.59329 0.2854 0.0
H156 H 0.22465 0.59717 0.11626 0.0
H157 H 0.20033 0.58893 0.00588 0.0
H158 H 0.22927 0.51283 0.97541 0.0
H159 H 0.25378 0.52129 0.08703 0.0
N160 N 0.27149 0.55462 0.20895 0.0
N161 N 0.25749 0.5606 0.33094 0.0
N162 N 0.23066 0.56863 0.23703 0.0
C163 C 0.27604 0.55434 0.28143 0.0
C164 C 0.23482 0.56804 0.30895 0.0
C165 C 0.24859 0.56185 0.1868 0.0
C166 C 0.30083 0.54741 0.30776 0.0
C167 C 0.32419 0.56024 0.28305 0.0
C168 C 0.34729 0.55656 0.31643 0.0
C169 C 0.3476 0.53939 0.37405 0.0
C170 C 0.32414 0.52554 0.39561 0.0
C171 C 0.30103 0.52988 0.3638 0.0
C172 C 0.2136 0.57293 0.36138 0.0
C173 C 0.21282 0.56305 0.43138 0.0
C174 C 0.1903 0.56316 0.47474 0.0
C175 C 0.16837 0.57317 0.44861 0.0
C176 C 0.16998 0.58511 0.38153 0.0
C177 C 0.19235 0.58501 0.33839 0.0
C178 C 0.24113 0.5599 0.11001 0.0
C179 C 0.2266 0.5791 0.08446 0.0
C180 C 0.12794 0.18146 0.09923 0.0
C181 C 0.11099 0.18806 0.04667 0.0
C182 C 0.09974 0.21197 0.05634 0.0
C183 C 0.10317 0.2274 0.12074 0.0
H184 H 0.08294 0.2976 0.25512 0.0
H185 H 0.07216 0.34196 0.29374 0.0
H186 H 0.10416 0.33321 0.50326 0.0
H187 H 0.11441 0.28911 0.46574 0.0
H188 H 0.06649 0.21579 0.4707 0.0
H189 H 0.048 0.17595 0.52637 0.0
H190 H 0.1144 0.13656 0.45231 0.0
H191 H 0.1319 0.17608 0.39255 0.0
H192 H 0.14291 0.19002 0.20501 0.0
H193 H 0.13689 0.16323 0.0942 0.0
H194 H 0.08699 0.21789 0.01621 0.0
H195 H 0.09255 0.2445 0.12939 0.0
N196 N 0.10979 0.25472 0.26788 0.0
N197 N 0.10241 0.24465 0.39053 0.0
N198 N 0.1133 0.2121 0.30536 0.0
C199 C 0.10432 0.26253 0.33791 0.0
C200 C 0.10698 0.21941 0.37444 0.0
C201 C 0.11474 0.22944 0.2518 0.0
C202 C 0.09943 0.28993 0.35756 0.0
C203 C 0.08785 0.30533 0.30911 0.0
C204 C 0.08158 0.33056 0.3312 0.0
C205 C 0.08743 0.34091 0.40129 0.0
C206 C 0.09964 0.32575 0.44874 0.0
C207 C 0.10538 0.30047 0.42735 0.0
C208 C 0.10042 0.19881 0.42667 0.0
C209 C 0.07747 0.19885 0.46839 0.0
C210 C 0.06688 0.17591 0.50034 0.0
C211 C 0.07933 0.15269 0.49223 0.0
C212 C 0.10379 0.15375 0.45741 0.0
C213 C 0.11403 0.17646 0.424 0.0
C214 C 0.11781 0.21905 0.17635 0.0
C215 C 0.1313 0.19679 0.16324 0.0
C216 C 0.30161 0.00543 0.99376 0.0
C217 C 0.31436 0.98356 0.96897 0.0
C218 C 0.30743 0.95926 7e-05 0.0
C219 C 0.29074 0.95761 0.06058 0.0
H220 H 0.1969 0.96485 0.21846 0.0
H221 H 0.15466 0.96858 0.27625 0.0
H222 H 0.1886 0.02918 0.42526 0.0
H223 H 0.23091 0.02348 0.37105 0.0
H224 H 0.28443 0.98613 0.43747 0.0
H225 H 0.31989 0.98211 0.51917 0.0
H226 H 0.36754 0.95893 0.33631 0.0
H227 H 0.33273 0.96312 0.25516 0.0
H228 H 0.27709 0.02135 0.0769 0.0
H229 H 0.30658 0.02444 0.97111 0.0
H230 H 0.31652 0.94195 0.98125 0.0
H231 H 0.28782 0.93928 0.08808 0.0
N232 N 0.2485 0.98656 0.19078 0.0
N233 N 0.26145 0.98498 0.31187 0.0
N234 N 0.29028 0.97681 0.21596 0.0
C235 C 0.243 0.98855 0.26351 0.0
C236 C 0.28517 0.97893 0.28823 0.0
C237 C 0.27231 0.98067 0.1672 0.0
C238 C 0.21705 0.99373 0.29084 0.0
C239 C 0.19511 0.97909 0.26319 0.0
C240 C 0.17085 0.98139 0.29632 0.0
C241 C 0.16795 0.99893 0.35667 0.0
C242 C 0.18994 0.01474 0.38092 0.0
C243 C 0.21423 0.01178 0.34931 0.0
C244 C 0.30574 0.97523 0.33955 0.0
C245 C 0.30244 0.98006 0.41482 0.0
C246 C 0.32269 0.97768 0.46165 0.0
C247 C 0.34657 0.97052 0.43395 0.0
C248 C 0.34955 0.96502 0.35912 0.0
C249 C 0.32945 0.96734 0.31259 0.0
C250 C 0.28024 0.98007 0.09014 0.0
C251 C 0.2846 0.00366 0.05406 0.0
C252 C 0.42093 0.35826 0.35329 0.0
C253 C 0.42284 0.35559 0.42851 0.0
C254 C 0.4137 0.33142 0.45779 0.0
C255 C 0.4047 0.31003 0.4123 0.0
H256 H 0.40912 0.23239 0.40204 0.0
H257 H 0.41948 0.19176 0.44881 0.0
H258 H 0.41578 0.155 0.23317 0.0
H259 H 0.40621 0.19665 0.18489 0.0
H260 H 0.43034 0.25246 0.06024 0.0
H261 H 0.44515 0.27496 0.95028 0.0
H262 H 0.38757 0.32959 0.99026 0.0
H263 H 0.37266 0.30687 0.09822 0.0
H264 H 0.41145 0.33994 0.2505 0.0
H265 H 0.4282 0.37615 0.32764 0.0
H266 H 0.41424 0.3287 0.51554 0.0
H267 H 0.399 0.29134 0.43602 0.0
N268 N 0.40192 0.2649 0.30953 0.0
N269 N 0.40134 0.24768 0.189 0.0
N270 N 0.3978 0.29253 0.21466 0.0
C271 C 0.40251 0.24393 0.26161 0.0
C272 C 0.39844 0.27205 0.16561 0.0
C273 C 0.39967 0.28926 0.28654 0.0
C274 C 0.40686 0.21798 0.28934 0.0
C275 C 0.41028 0.21574 0.36406 0.0
C276 C 0.41602 0.19218 0.39131 0.0
C277 C 0.41823 0.16989 0.34504 0.0
C278 C 0.41438 0.17184 0.27031 0.0
C279 C 0.40876 0.19567 0.2427 0.0
C280 C 0.40062 0.27819 0.08815 0.0
C281 C 0.42007 0.26845 0.04331 0.0
C282 C 0.42874 0.28157 0.98085 0.0
C283 C 0.418 0.30453 0.96237 0.0
C284 C 0.39635 0.31204 0.00242 0.0
C285 C 0.3878 0.29904 0.06468 0.0
C286 C 0.40421 0.31254 0.33678 0.0
C287 C 0.41144 0.33719 0.30837 0.0
Tb288 Tb 0.98982 0.97922 0.66648 0.0
C289 C 0.04641 0.00239 0.63183 0.0
Tb290 Tb 0.01558 0.02244 0.77322 0.0
O291 O 0.9892 0.00753 0.58136 0.0
O292 O 0.98842 0.01974 0.69005 0.0
O293 O 0.02879 0.98222 0.61981 0.0
C294 C 0.03577 0.06826 0.83123 0.0
O295 O 0.04379 0.02124 0.68295 0.0
C296 C 0.01551 0.97385 0.81248 0.0
C297 C 0.96019 0.99724 0.81238 0.0
O298 O 0.04778 0.04721 0.82219 0.0
O299 O 0.01242 0.06331 0.80883 0.0
O300 O 0.01696 0.99408 0.85821 0.0
O301 O 0.01711 0.98209 0.74928 0.0
O302 O 0.97696 0.01826 0.82179 0.0
O303 O 0.96311 0.97871 0.76061 0.0
C304 C 0.96622 0.93509 0.60733 0.0
O305 O 0.95592 0.95704 0.6191 0.0
O306 O 0.99001 0.93815 0.62739 0.0
C307 C 0.99058 0.02782 0.62666 0.0
Tb308 Tb 0.49095 0.03171 0.67201 0.0
C309 C 0.54806 0.01892 0.63793 0.0
Tb310 Tb 0.51108 0.98397 0.74346 0.0
O311 O 0.51719 0.06039 0.7305 0.0
O312 O 0.50638 0.02386 0.77239 0.0
O313 O 0.52828 0.03086 0.6158 0.0
C314 C 0.53418 0.95026 0.81981 0.0
O315 O 0.54606 0.00167 0.68998 0.0
C316 C 0.48022 0.97342 0.63358 0.0
C317 C 0.45535 0.99816 0.78415 0.0
O318 O 0.53256 0.94932 0.74956 0.0
O319 O 0.52284 0.97011 0.84662 0.0
O320 O 0.48184 0.9576 0.68586 0.0
O321 O 0.49691 0.99253 0.64226 0.0
O322 O 0.47576 0.98752 0.80666 0.0
O323 O 0.45644 0.01342 0.72758 0.0
C324 C 0.46488 0.06258 0.59503 0.0
O325 O 0.46515 0.06261 0.66536 0.0
O326 O 0.47953 0.04528 0.56771 0.0
C327 C 0.52191 0.0443 0.7798 0.0
Tb328 Tb 0.52386 0.52573 0.64573 0.0
C329 C 0.46344 0.51612 0.63179 0.0
Tb330 Tb 0.49362 0.48016 0.72993 0.0
O331 O 0.51507 0.50493 0.5417 0.0
O332 O 0.51674 0.48433 0.63476 0.0
O333 O 0.48435 0.53287 0.6235 0.0
C334 C 0.46937 0.4337 0.76408 0.0
O335 O 0.46303 0.4941 0.66752 0.0
C336 C 0.50459 0.52369 0.80866 0.0
C337 C 0.55328 0.4896 0.74138 0.0
O338 O 0.46064 0.44997 0.7212 0.0
O339 O 0.4913 0.44385 0.78851 0.0
O340 O 0.49748 0.50124 0.83661 0.0
O341 O 0.5009 0.52124 0.74158 0.0
O342 O 0.53361 0.47133 0.7331 0.0
O343 O 0.55252 0.51378 0.71902 0.0
C344 C 0.55085 0.56891 0.59863 0.0
O345 O 0.55794 0.54526 0.59183 0.0
O346 O 0.52854 0.56829 0.6321 0.0
C347 C 0.51043 0.48211 0.56952 0.0
Tb348 Tb 0.98468 0.50256 0.64341 0.0
C349 C 0.02363 0.46247 0.58907 0.0
Tb350 Tb 0.03623 0.50235 0.72345 0.0
O351 O 0.00552 0.51578 0.54532 0.0
O352 O 0.02068 0.52567 0.64729 0.0
O353 O 0.99894 0.46715 0.59316 0.0
C354 C 0.08484 0.50469 0.76867 0.0
O355 O 0.04164 0.47614 0.62856 0.0
C356 C 0.99563 0.47809 0.78646 0.0
C357 C 0.9977 0.54255 0.77775 0.0
O358 O 0.06753 0.4849 0.77486 0.0
O359 O 0.07481 0.5231 0.73644 0.0
O360 O 0.01538 0.48896 0.82146 0.0
O361 O 1.00029 0.47919 0.71932 0.0
O362 O 0.02229 0.53776 0.77257 0.0
O363 O 0.97938 0.52899 0.73895 0.0
C364 C 0.93638 0.50153 0.59619 0.0
O365 O 0.95427 0.52081 0.59067 0.0
O366 O 0.94561 0.48278 0.62928 0.0
C367 C 0.02528 0.52671 0.58007 0.0
H368 H 0.15938 0.00915 0.50188 0.0
H369 H 0.11881 0.99023 0.3025 0.0
H370 H 0.0778 0.98845 0.37001 0.0
H371 H 0.05323 0.99197 0.48669 0.0
H372 H 0.09415 0.01591 0.68198 0.0
H373 H 0.13522 0.01682 0.61445 0.0
C374 C 0.1417 0.00528 0.47225 0.0
C375 C 0.14257 -0.00031 0.39669 0.0
C376 C 0.11811 0.00519 0.5109 0.0
C377 C 0.11908 0.99403 0.36068 0.0
C378 C 0.09549 0.99321 0.39922 0.0
C379 C 0.0712 0.99735 0.51413 0.0
C380 C 0.07081 0.00356 0.58916 0.0
C381 C 0.09476 0.99855 0.47448 0.0
C382 C 0.09407 0.01102 0.62419 0.0
C383 C 0.11753 0.01149 0.58568 0.0
H384 H 0.40251 0.14915 0.47387 0.0
H385 H 0.4511 0.13545 0.28497 0.0
H386 H 0.4679 0.09893 0.34299 0.0
H387 H 0.47221 0.07397 0.4529 0.0
H388 H 0.42656 0.09116 0.64502 0.0
H389 H 0.40555 0.12352 0.58086 0.0
C390 C 0.41684 0.13827 0.44528 0.0
C391 C 0.42576 0.14538 0.37549 0.0
C392 C 0.4272 0.11808 0.48006 0.0
C393 C 0.44373 0.13042 0.33853 0.0
C394 C 0.45357 0.10967 0.37202 0.0
C395 C 0.45747 0.08466 0.48024 0.0
C396 C 0.451 0.0804 0.55357 0.0
C397 C 0.44596 0.10379 0.44353 0.0
C398 C 0.43195 0.09431 0.5887 0.0
C399 C 0.41993 0.11278 0.55206 0.0
H400 H 0.35305 0.52888 0.51724 0.0
H401 H 0.39764 0.54336 0.31922 0.0
H402 H 0.43719 0.54009 0.38345 0.0
H403 H 0.45936 0.53174 0.49505 0.0
H404 H 0.41443 0.51109 0.68736 0.0
H405 H 0.37473 0.51763 0.62567 0.0
C406 C 0.37125 0.53083 0.48717 0.0
C407 C 0.37197 0.53651 0.4129 0.0
C408 C 0.39399 0.52783 0.52367 0.0
C409 C 0.39616 0.5396 0.37648 0.0
C410 C 0.41892 0.53749 0.41309 0.0
C411 C 0.44084 0.52892 0.52344 0.0
C412 C 0.43971 0.52135 0.59582 0.0
C413 C 0.41808 0.5316 0.48663 0.0
C414 C 0.41567 0.51712 0.63175 0.0
C415 C 0.39303 0.52079 0.59644 0.0
H416 H 0.04006 0.35883 0.40054 0.0
H417 H 0.11856 0.38104 0.46173 0.0
H418 H 0.10591 0.42178 0.52039 0.0
H419 H 0.07222 0.44902 0.56285 0.0
H420 H 0.99308 0.42637 0.50728 0.0
H421 H 0.00632 0.38799 0.43718 0.0
C422 C 0.0544 0.3729 0.42554 0.0
C423 C 0.08017 0.36704 0.4271 0.0
C424 C 0.04684 0.396 0.46074 0.0
C425 C 0.09859 0.38517 0.46032 0.0
C426 C 0.09136 0.40839 0.49392 0.0
C427 C 0.05779 0.43584 0.53515 0.0
C428 C 0.03162 0.44047 0.54116 0.0
C429 C 0.06546 0.41367 0.49599 0.0
C430 C 0.01333 0.42324 0.50405 0.0
C431 C 0.02089 0.40125 0.46398 0.0
H432 H 0.8564 0.96738 0.98728 0.0
H433 H 0.87383 0.04604 0.07814 0.0
H434 H 0.91474 0.04984 0.00969 0.0
H435 H 0.94375 0.03232 0.91575 0.0
H436 H 0.92544 0.95404 0.8224 0.0
H437 H 0.88668 0.94881 0.89935 0.0
C438 C 0.86919 0.98533 0.99234 0.0
C439 C 0.8619 0.00644 0.03744 0.0
C440 C 0.89241 0.98763 0.9515 0.0
C441 C 0.87899 0.02936 0.04443 0.0
C442 C 0.9023 0.03167 0.00465 0.0
C443 C 0.93137 0.01406 0.91241 0.0
C444 C 0.93736 0.99382 0.86225 0.0
C445 C 0.90893 0.01116 0.95671 0.0
C446 C 0.92115 0.97019 0.85941 0.0
C447 C 0.89897 0.9671 0.90367 0.0
H448 H 0.57827 0.87941 0.04768 0.0
H449 H 0.58926 0.83091 0.85331 0.0
H450 H 0.5733 0.86383 0.7802 0.0
H451 H 0.5544 0.90565 0.77112 0.0
H452 H 0.53998 0.95241 0.96586 0.0
H453 H 0.55876 0.92088 0.03888 0.0
C454 C 0.57703 0.87589 0.98943 0.0
C455 C 0.58522 0.85265 0.95646 0.0
C456 C 0.56709 0.89463 0.94752 0.0
C457 C 0.58372 0.84878 0.8805 0.0
C458 C 0.57432 0.86752 0.83843 0.0
C459 C 0.5555 0.90894 0.8295 0.0
C460 C 0.54607 0.93138 0.86306 0.0
C461 C 0.56577 0.89042 0.87134 0.0
C462 C 0.54739 0.93538 0.93875 0.0
C463 C 0.55802 0.91731 0.98058 0.0
H464 H 0.64254 0.44157 0.89827 0.0
H465 H 0.65982 0.52253 0.96999 0.0
H466 H 0.62357 0.53486 0.90172 0.0
H467 H 0.58738 0.52258 0.81935 0.0
H468 H 0.56997 0.44124 0.75082 0.0
H469 H 0.60616 0.4292 0.81887 0.0
C470 C 0.63843 0.46194 0.89882 0.0
C471 C 0.65397 0.48112 0.93886 0.0
C472 C 0.61771 0.46885 0.85926 0.0
C473 C 0.64805 0.50735 0.94011 0.0
C474 C 0.62747 0.51443 0.90056 0.0
C475 C 0.59173 0.50227 0.81872 0.0
C476 C 0.5762 0.48286 0.77935 0.0
C477 C 0.6123 0.49538 0.85936 0.0
C478 C 0.58168 0.45656 0.78038 0.0
C479 C 0.60234 0.44964 0.81944 0.0
H480 H 0.98644 0.64568 0.97113 0.0
H481 H 0.90652 0.61503 0.97252 0.0
H482 H 0.91769 0.57559 0.90268 0.0
H483 H 0.95002 0.55153 0.83343 0.0
H484 H 0.02997 0.58277 0.83404 0.0
H485 H 0.01893 0.62028 0.91057 0.0
C486 C 0.97152 0.63021 0.95665 0.0
C487 C 0.94571 0.63325 0.97628 0.0
C488 C 0.97806 0.60786 0.91618 0.0
C489 C 0.92655 0.613 0.95821 0.0
C490 C 0.93291 0.5906 0.91779 0.0
C491 C 0.96501 0.56653 0.85046 0.0
C492 C 0.99074 0.56447 0.82728 0.0
C493 C 0.95856 0.58809 0.8951 0.0
C494 C 0.01 0.58385 0.85084 0.0
C495 C 0.00372 0.60537 0.8946 0.0
H496 H 0.04582 0.14213 0.60716 0.0
H497 H 0.08111 0.10526 0.41876 0.0
H498 H 0.05643 0.06385 0.44307 0.0
H499 H 0.02384 0.03818 0.51485 0.0
H500 H 0.9865 0.07479 0.69902 0.0
H501 H 0.01233 0.11649 0.67792 0.0
C502 C 0.04803 0.12513 0.57108 0.0
C503 C 0.06556 0.127 0.51149 0.0
C504 C 0.03308 0.1014 0.58383 0.0
C505 C 0.06835 0.10448 0.46614 0.0
C506 C 0.05391 0.08077 0.47924 0.0
C507 C 0.02113 0.0554 0.54972 0.0
C508 C 0.00357 0.05356 0.60879 0.0
C509 C 0.03602 0.07909 0.53729 0.0
C510 C 1.00032 0.07584 0.65399 0.0
C511 C 0.01502 0.0996 0.64183 0.0
H512 H 0.39587 0.99019 0.40898 0.0
H513 H 0.34694 0.94845 0.56645 0.0
H514 H 0.38428 0.94479 0.64161 0.0
H515 H 0.43113 0.95286 0.66092 0.0
H516 H 0.47944 0.99525 0.50352 0.0
H517 H 0.44209 0.99884 0.42887 0.0
C518 C 0.3934 0.9801 0.45948 0.0
C519 C 0.36875 0.96935 0.48178 0.0
C520 C 0.41486 0.97797 0.50186 0.0
C521 C 0.36572 0.95694 0.54826 0.0
C522 C 0.38707 0.95468 0.59091 0.0
C523 C 0.43342 0.96255 0.60977 0.0
C524 C 0.45788 0.97361 0.58703 0.0
C525 C 0.41178 0.96491 0.56787 0.0
C526 C 0.46069 0.98661 0.52168 0.0
C527 C 0.43939 0.98869 0.47919 0.0
H528 H 0.42427 0.40847 0.4123 0.0
H529 H 0.45294 0.35156 0.54729 0.0
H530 H 0.48105 0.3862 0.60714 0.0
H531 H 0.50146 0.43185 0.61095 0.0
H532 H 0.47687 0.4866 0.46277 0.0
H533 H 0.44426 0.45336 0.41571 0.0
C534 C 0.43687 0.40339 0.45403 0.0
C535 C 0.43669 0.37714 0.47364 0.0
C536 C 0.45434 0.42299 0.48463 0.0
C537 C 0.45235 0.37147 0.53076 0.0
C538 C 0.46883 0.39125 0.56443 0.0
C539 C 0.48896 0.43634 0.56819 0.0
C540 C 0.49163 0.46144 0.5398 0.0
C541 C 0.47065 0.41689 0.53999 0.0
C542 C 0.47535 0.46726 0.48477 0.0
C543 C 0.45658 0.44833 0.4582 0.0
H544 H 0.12532 0.55064 0.38764 0.0
H545 H 0.15484 0.58306 0.59173 0.0
H546 H 0.11232 0.57289 0.65045 0.0
H547 H 0.06666 0.55457 0.64227 0.0
H548 H 0.03916 0.5192 0.439 0.0
H549 H 0.08077 0.53166 0.38026 0.0
C550 C 0.12235 0.55576 0.44484 0.0
C551 C 0.14292 0.56789 0.48526 0.0
C552 C 0.09824 0.54942 0.47798 0.0
C553 C 0.13913 0.57381 0.55967 0.0
C554 C 0.11489 0.56803 0.59305 0.0
C555 C 0.07007 0.54913 0.58564 0.0
C556 C 0.05018 0.5355 0.54537 0.0
C557 C 0.09433 0.5557 0.5527 0.0
C558 C 0.05428 0.52959 0.47114 0.0
C559 C 0.07806 0.53661 0.43759 0.0
H560 H 0.96149 0.85913 0.82678 0.0
H561 H 0.93025 0.89271 0.02601 0.0
H562 H 0.95386 0.93476 0.00258 0.0
H563 H 0.98486 0.96174 0.92887 0.0
H564 H 0.01846 0.92801 0.73429 0.0
H565 H 0.99327 0.88592 0.75419 0.0
C566 C 0.95996 0.87552 0.86552 0.0
C567 C 0.94395 0.8725 0.92802 0.0
C568 C 0.97446 0.89952 0.85341 0.0
C569 C 0.94187 0.89433 0.97653 0.0
C570 C 0.95574 0.9184 0.96391 0.0
C571 C 0.98694 0.94503 0.89153 0.0
C572 C 0.00326 0.9478 0.83 0.0
C573 C 0.9724 0.92108 0.90327 0.0
C574 C 0.00565 0.92622 0.78148 0.0
C575 C 0.99128 0.90225 0.79286 0.0
H576 H 0.6375 0.05873 0.87496 0.0
H577 H 0.611 0.99224 0.00117 0.0
H578 H 0.56721 0.99356 0.95816 0.0
H579 H 0.53628 0.0146 0.88683 0.0
H580 H 0.56389 0.07821 0.75191 0.0
H581 H 0.60711 0.07801 0.79853 0.0
C582 C 0.62212 0.04438 0.89222 0.0
C583 C 0.62731 0.02535 0.94061 0.0
C584 C 0.59716 0.04506 0.86669 0.0
C585 C 0.60738 0.00683 0.96301 0.0
C586 C 0.58236 0.00769 0.93894 0.0
C587 C 0.55194 0.02778 0.8663 0.0
C588 C 0.54708 0.04576 0.81473 0.0
C589 C 0.57701 0.02678 0.89098 0.0
C590 C 0.56715 0.06407 0.79167 0.0
C591 C 0.59194 0.06383 0.81774 0.0
H592 H 0.56139 0.61071 0.01528 0.0
H593 H 0.59749 0.63358 0.8112 0.0
H594 H 0.57207 0.59742 0.74787 0.0
H595 H 0.53956 0.55972 0.75134 0.0
H596 H 0.50394 0.53602 0.95369 0.0
H597 H 0.52968 0.57193 0.01816 0.0
C598 C 0.56406 0.60752 0.95713 0.0
C599 C 0.58134 0.62482 0.918 0.0
C600 C 0.54939 0.58674 0.92113 0.0
C601 C 0.58417 0.62069 0.84245 0.0
C602 C 0.56968 0.60003 0.80626 0.0
C603 C 0.53698 0.56281 0.80889 0.0
C604 C 0.51942 0.5458 0.84714 0.0
C605 C 0.55204 0.58317 0.84503 0.0
C606 C 0.51718 0.54914 0.92292 0.0
C607 C 0.53191 0.56959 0.95969 0.0
H608 H 0.8968 0.44886 0.97894 0.0
H609 H 0.86759 0.41777 0.77307 0.0
H610 H 0.90969 0.42986 0.71442 0.0
H611 H 0.95468 0.45009 0.72258 0.0
H612 H 0.98202 0.48331 0.92837 0.0
H613 H 0.94096 0.46869 0.98706 0.0
C614 C 0.89976 0.44423 0.92147 0.0
C615 C 0.8793 0.4321 0.88051 0.0
C616 C 0.92366 0.4516 0.88836 0.0
C617 C 0.88316 0.42699 0.80568 0.0
C618 C 0.90717 0.43389 0.77227 0.0
C619 C 0.9514 0.45443 0.77994 0.0
C620 C 0.97106 0.46815 0.82092 0.0
C621 C 0.92749 0.44645 0.81305 0.0
C622 C 0.96708 0.47287 0.89574 0.0
C623 C 0.94361 0.46458 0.92929 0.0
H624 H 0.06218 0.17637 0.99953 0.0
H625 H 0.13953 0.15387 0.96702 0.0
H626 H 0.12307 0.11481 0.89556 0.0
H627 H 0.08614 0.08487 0.85253 0.0
H628 H 0.00923 0.10861 0.88126 0.0
H629 H 0.02615 0.14958 0.94328 0.0
C630 C 0.07562 0.16345 0.97502 0.0
C631 C 0.10206 0.16798 0.98959 0.0
C632 C 0.06603 0.14099 0.93423 0.0
C633 C 0.11902 0.15066 0.95789 0.0
C634 C 0.10963 0.12828 0.91705 0.0
C635 C 0.07318 0.09914 0.87204 0.0
C636 C 0.04649 0.09364 0.86369 0.0
C637 C 0.08308 0.12282 0.90689 0.0
C638 C 0.02985 0.11238 0.88784 0.0
C639 C 0.03951 0.1358 0.9232 0.0
H640 H 0.35992 0.96432 0.98745 0.0
H641 H 0.32168 0.01143 0.8445 0.0
H642 H 0.36192 0.01975 0.77319 0.0
H643 H 0.40843 0.0147 0.75472 0.0
H644 H 0.44583 0.96794 0.90136 0.0
H645 H 0.40528 0.95821 0.96735 0.0
C646 C 0.36016 0.97596 0.93975 0.0
C647 C 0.33772 0.98696 0.92079 0.0
C648 C 0.38329 0.9809 0.90001 0.0
C649 C 0.33868 0.00269 0.86015 0.0
C650 C 0.36167 0.00745 0.81948 0.0
C651 C 0.40772 0.00238 0.8011 0.0
C652 C 0.43032 0.99226 0.82316 0.0
C653 C 0.3842 0.9969 0.83949 0.0
C654 C 0.42891 0.97617 0.88315 0.0
C655 C 0.40566 0.97053 0.92104 0.0
H656 H 0.39782 0.33496 0.86365 0.0
H657 H 0.46982 0.31738 0.95099 0.0
H658 H 0.49231 0.35465 0.89176 0.0
H659 H 0.49081 0.39552 0.82913 0.0
H660 H 0.41933 0.41429 0.74257 0.0
H661 H 0.39732 0.37353 0.78806 0.0
C662 C 0.41849 0.33907 0.86881 0.0
C663 C 0.43198 0.32336 0.91231 0.0
C664 C 0.43134 0.36109 0.83599 0.0
C665 C 0.45887 0.32878 0.91735 0.0
C666 C 0.47177 0.35039 0.88424 0.0
C667 C 0.47045 0.39055 0.81969 0.0
C668 C 0.45653 0.40801 0.78399 0.0
C669 C 0.45807 0.36717 0.84573 0.0
C670 C 0.43032 0.4012 0.77074 0.0
C671 C 0.41778 0.37793 0.79674 0.0
H672 H 0.18204 0.5043 0.96223 0.0
H673 H 0.19906 0.58079 0.87424 0.0
H674 H 0.16192 0.57266 0.79578 0.0
H675 H 0.12202 0.54561 0.76163 0.0
H676 H 0.10497 0.46936 0.85074 0.0
H677 H 0.14486 0.47542 0.91837 0.0
C678 C 0.17808 0.51893 0.9245 0.0
C679 C 0.19327 0.54321 0.92461 0.0
C680 C 0.15646 0.51427 0.88028 0.0
C681 C 0.18753 0.56206 0.87597 0.0
C682 C 0.16626 0.55744 0.83111 0.0
C683 C 0.12726 0.5302 0.79509 0.0
C684 C 0.11049 0.50718 0.80178 0.0
C685 C 0.15015 0.53393 0.83438 0.0
C686 C 0.11752 0.48731 0.845 0.0
C687 C 0.14031 0.49079 0.88382 0.0
H688 H 0.89425 0.84179 0.46709 0.0
H689 H 0.96776 0.81044 0.42894 0.0
H690 H 0.98882 0.847 0.50023 0.0
H691 H 0.98747 0.89077 0.56078 0.0
H692 H 0.91492 0.92448 0.58602 0.0
H693 H 0.89264 0.88468 0.5304 0.0
C694 C 0.91489 0.84287 0.47396 0.0
C695 C 0.92924 0.82327 0.44139 0.0
C696 C 0.92724 0.86481 0.51158 0.0
C697 C 0.95591 0.82482 0.45364 0.0
C698 C 0.96816 0.84604 0.49366 0.0
C699 C 0.96677 0.88928 0.55439 0.0
C700 C 0.95285 0.91054 0.57667 0.0
C701 C 0.95417 0.86657 0.52081 0.0
C702 C 0.92604 0.90842 0.56849 0.0
C703 C 0.9133 0.88564 0.53694 0.0
H704 H 0.65209 0.06691 0.49523 0.0
H705 H 0.6679 0.9855 0.49265 0.0
H706 H 0.6283 0.9748 0.56215 0.0
H707 H 0.58639 0.98723 0.61075 0.0
H708 H 0.56769 0.06691 0.595 0.0
H709 H 0.61051 0.07925 0.54237 0.0
C710 C 0.64692 0.0467 0.50873 0.0
C711 C 0.66317 0.0271 0.4868 0.0
C712 C 0.62309 0.04017 0.54404 0.0
C713 C 0.6563 0.0013 0.50876 0.0
C714 C 0.63328 0.99496 0.54772 0.0
C715 C 0.59178 0.00729 0.59583 0.0
C716 C 0.57389 0.02609 0.60581 0.0
C717 C 0.61613 0.01404 0.56346 0.0
C718 C 0.58102 0.05202 0.58649 0.0
C719 C 0.60555 0.05911 0.55697 0.0
H720 H 0.61354 0.65368 0.41282 0.0
H721 H 0.56089 0.70362 0.52176 0.0
H722 H 0.54279 0.6669 0.5932 0.0
H723 H 0.53968 0.61959 0.61736 0.0
H724 H 0.5932 0.57056 0.50936 0.0
H725 H 0.61368 0.60825 0.44619 0.0
C726 C 0.59865 0.65694 0.45364 0.0
C727 C 0.58859 0.68152 0.46141 0.0
C728 C 0.58835 0.63579 0.4944 0.0
C729 C 0.56881 0.68488 0.51368 0.0
C730 C 0.55847 0.66389 0.55471 0.0
C731 C 0.556 0.61729 0.58052 0.0
C732 C 0.56477 0.59234 0.56722 0.0
C733 C 0.56767 0.63908 0.54422 0.0
C734 C 0.58605 0.58957 0.52008 0.0
C735 C 0.59773 0.61109 0.48386 0.0
H736 H 0.84197 0.50571 0.39412 0.0
H737 H 0.81887 0.4314 0.48907 0.0
H738 H 0.85566 0.43778 0.56903 0.0
H739 H 0.89689 0.46256 0.60363 0.0
H740 H 0.91927 0.53708 0.50934 0.0
H741 H 0.88014 0.53273 0.43869 0.0
C742 C 0.8445 0.49121 0.43361 0.0
C743 C 0.82772 0.46796 0.43471 0.0
C744 C 0.86582 0.49492 0.47923 0.0
C745 C 0.83167 0.44929 0.48594 0.0
C746 C 0.85273 0.45292 0.53181 0.0
C747 C 0.89298 0.47797 0.5683 0.0
C748 C 0.91107 0.49997 0.56112 0.0
C749 C 0.87037 0.4753 0.52748 0.0
C750 C 0.90571 0.51988 0.51556 0.0
C751 C 0.88334 0.51739 0.47498 0.0
loop_
_geom_bond_atom_site_label_1
_geom_bond_atom_site_label_2
_geom_bond_distance
_geom_bond_site_symmetry_2
_ccdc_geom_bond_type
C0 C1 1.384 . S
C0 H13 0.947 . S
C0 C35 1.382 . S
C1 C0 1.384 . S
C1 C2 1.378 . S
C2 C1 1.378 . S
C2 C3 1.378 . S
C2 H14 0.952 . S
C3 C2 1.378 . S
C3 H15 0.950 . S
C3 C34 1.383 . S
H4 C23 0.947 . S
H5 C24 0.946 . S
H6 C26 0.953 . S
H7 C27 0.945 . S
H8 C29 0.952 . S
H9 C30 0.949 . S
H10 C32 0.950 . S
H11 C33 0.948 1_554 S
H12 C35 0.951 . S
H13 C0 0.947 . S
H14 C2 0.952 . S
H15 C3 0.950 . S
N16 C19 1.382 . S
N16 C21 1.363 . S
N17 C19 1.371 1_556 S
N17 C20 1.372 1_556 S
N18 C20 1.361 . S
N18 C21 1.377 . S
C19 N16 1.382 . S
C19 N17 1.371 1_554 S
C19 C22 1.480 . S
C20 N17 1.372 1_554 S
C20 N18 1.361 . S
C20 C28 1.457 1_554 S
C21 N16 1.363 . S
C21 N18 1.377 . S
C21 C34 1.479 . S
C22 C19 1.480 . S
C22 C23 1.383 . S
C22 C27 1.385 1_554 S
C23 H4 0.947 . S
C23 C22 1.383 . S
C23 C24 1.388 . S
C24 H5 0.946 . S
C24 C23 1.388 . S
C24 C25 1.384 1_554 S
C25 C24 1.384 1_556 S
C25 C26 1.377 . S
C26 H6 0.953 . S
C26 C25 1.377 . S
C26 C27 1.369 . S
C27 H7 0.945 . S
C27 C22 1.385 1_556 S
C27 C26 1.369 . S
C28 C20 1.457 1_556 S
C28 C29 1.372 . S
C28 C33 1.364 . S
C29 H8 0.952 . S
C29 C28 1.372 . S
C29 C30 1.389 . S
C30 H9 0.949 . S
C30 C29 1.389 . S
C30 C31 1.387 . S
C31 C30 1.387 . S
C31 C32 1.372 . S
C32 H10 0.950 . S
C32 C31 1.372 . S
C32 C33 1.379 . S
C33 H11 0.948 1_556 S
C33 C28 1.364 . S
C33 C32 1.379 . S
C34 C3 1.383 . S
C34 C21 1.479 . S
C34 C35 1.398 . S
C35 C0 1.382 . S
C35 H12 0.951 . S
C35 C34 1.398 . S
C36 C37 1.384 . S
C36 H49 0.947 . S
C36 C71 1.382 . S
C37 C36 1.384 . S
C37 C38 1.378 . S
C38 C37 1.378 . S
C38 C39 1.378 . S
C38 H50 0.952 . S
C39 C38 1.378 . S
C39 H51 0.950 . S
C39 C70 1.383 . S
H40 C59 0.947 . S
H41 C60 0.946 . S
H42 C62 0.953 . S
H43 C63 0.945 . S
H44 C65 0.952 . S
H45 C66 0.949 . S
H46 C68 0.950 . S
H47 C69 0.948 . S
H48 C71 0.951 . S
H49 C36 0.947 . S
H50 C38 0.952 . S
H51 C39 0.950 . S
N52 C55 1.382 . S
N52 C57 1.363 . S
N53 C55 1.371 1_556 S
N53 C56 1.372 . S
N54 C56 1.361 1_554 S
N54 C57 1.377 . S
C55 N52 1.382 . S
C55 N53 1.371 1_554 S
C55 C58 1.480 1_554 S
C56 N53 1.372 . S
C56 N54 1.361 1_556 S
C56 C64 1.457 . S
C57 N52 1.363 . S
C57 N54 1.377 . S
C57 C70 1.479 . S
C58 C55 1.480 1_556 S
C58 C59 1.383 1_556 S
C58 C63 1.385 . S
C59 H40 0.947 . S
C59 C58 1.383 1_554 S
C59 C60 1.388 . S
C60 H41 0.946 . S
C60 C59 1.388 . S
C60 C61 1.384 1_554 S
C61 C60 1.384 1_556 S
C61 C62 1.377 . S
C62 H42 0.953 . S
C62 C61 1.377 . S
C62 C63 1.369 . S
C63 H43 0.945 . S
C63 C58 1.385 . S
C63 C62 1.369 . S
C64 C56 1.457 . S
C64 C65 1.372 . S
C64 C69 1.364 . S
C65 H44 0.952 . S
C65 C64 1.372 . S
C65 C66 1.389 . S
C66 H45 0.949 . S
C66 C65 1.389 . S
C66 C67 1.387 . S
C67 C66 1.387 . S
C67 C68 1.372 . S
C68 H46 0.950 . S
C68 C67 1.372 . S
C68 C69 1.379 . S
C69 H47 0.948 . S
C69 C64 1.364 . S
C69 C68 1.379 . S
C70 C39 1.383 . S
C70 C57 1.479 . S
C70 C71 1.398 . S
C71 C36 1.382 . S
C71 H48 0.951 . S
C71 C70 1.398 . S
C72 C73 1.384 1_565 S
C72 H85 0.947 . S
C72 C107 1.382 1_565 S
C73 C72 1.384 1_545 S
C73 C74 1.378 . S
C74 C73 1.378 . S
C74 C75 1.378 . S
C74 H86 0.952 . S
C75 C74 1.378 . S
C75 H87 0.950 . S
C75 C106 1.383 . S
H76 C95 0.947 . S
H77 C96 0.955 . S
H78 C98 0.953 . S
H79 C99 0.945 . S
H80 C101 0.947 1_565 S
H81 C102 0.956 . S
H82 C104 0.950 . S
H83 C105 0.948 . S
H84 C107 0.951 1_565 S
H85 C72 0.947 . S
H86 C74 0.952 . S
H87 C75 0.950 . S
N88 C91 1.382 . S
N88 C93 1.363 . S
N89 C91 1.371 . S
N89 C92 1.372 . S
N90 C92 1.361 . S
N90 C93 1.377 . S
C91 N88 1.382 . S
C91 N89 1.371 . S
C91 C94 1.480 . S
C92 N89 1.372 . S
C92 N90 1.361 . S
C92 C100 1.457 1_554 S
C93 N88 1.363 . S
C93 N90 1.377 . S
C93 C106 1.479 . S
C94 C91 1.480 . S
C94 C95 1.383 . S
C94 C99 1.385 1_554 S
C95 H76 0.947 . S
C95 C94 1.383 . S
C95 C96 1.383 1_545 S
C96 H77 0.955 . S
C96 C95 1.383 1_565 S
C96 C97 1.381 1_565 S
C97 C96 1.381 1_545 S
C97 C98 1.377 1_554 S
C98 H78 0.953 . S
C98 C97 1.377 1_556 S
C98 C99 1.369 . S
C99 H79 0.945 . S
C99 C94 1.385 1_556 S
C99 C98 1.369 . S
C100 C92 1.457 1_556 S
C100 C101 1.376 . S
C100 C105 1.364 1_556 S
C101 H80 0.947 1_545 S
C101 C100 1.376 . S
C101 C102 1.393 1_545 S
C102 H81 0.956 . S
C102 C101 1.393 1_565 S
C102 C103 1.379 1_565 S
C103 C102 1.379 1_545 S
C103 C104 1.372 . S
C104 H82 0.950 . S
C104 C103 1.372 . S
C104 C105 1.379 1_556 S
C105 H83 0.948 . S
C105 C100 1.364 1_554 S
C105 C104 1.379 1_554 S
C106 C75 1.383 . S
C106 C93 1.479 . S
C106 C107 1.398 . S
C107 C72 1.382 1_545 S
C107 H84 0.951 1_545 S
C107 C106 1.398 . S
C108 C109 1.384 . S
C108 H121 0.947 . S
C108 C143 1.382 . S
C109 C108 1.384 . S
C109 C110 1.378 . S
C110 C109 1.378 . S
C110 C111 1.378 . S
C110 H122 0.952 . S
C111 C110 1.378 . S
C111 H123 0.950 . S
C111 C142 1.383 . S
H112 C131 0.947 . S
H113 C132 0.946 . S
H114 C134 0.953 . S
H115 C135 0.945 . S
H116 C137 0.952 . S
H117 C138 0.949 . S
H118 C140 0.950 . S
H119 C141 0.948 . S
H120 C143 0.951 1_554 S
H121 C108 0.947 . S
H122 C110 0.952 . S
H123 C111 0.950 . S
N124 C127 1.382 . S
N124 C129 1.363 . S
N125 C127 1.371 . S
N125 C128 1.372 . S
N126 C128 1.361 . S
N126 C129 1.377 . S
C127 N124 1.382 . S
C127 N125 1.371 . S
C127 C130 1.480 . S
C128 N125 1.372 . S
C128 N126 1.361 . S
C128 C136 1.457 . S
C129 N124 1.363 . S
C129 N126 1.377 . S
C129 C142 1.479 1_554 S
C130 C127 1.480 . S
C130 C131 1.383 1_554 S
C130 C135 1.385 . S
C131 H112 0.947 . S
C131 C130 1.383 1_556 S
C131 C132 1.388 . S
C132 H113 0.946 . S
C132 C131 1.388 . S
C132 C133 1.384 1_556 S
C133 C132 1.384 1_554 S
C133 C134 1.377 . S
C134 H114 0.953 . S
C134 C133 1.377 . S
C134 C135 1.369 . S
C135 H115 0.945 . S
C135 C130 1.385 . S
C135 C134 1.369 . S
C136 C128 1.457 . S
C136 C137 1.372 . S
C136 C141 1.364 . S
C137 H116 0.952 . S
C137 C136 1.372 . S
C137 C138 1.389 . S
C138 H117 0.949 . S
C138 C137 1.389 . S
C138 C139 1.387 . S
C139 C138 1.387 . S
C139 C140 1.372 . S
C140 H118 0.950 . S
C140 C139 1.372 . S
C140 C141 1.379 . S
C141 H119 0.948 . S
C141 C136 1.364 . S
C141 C140 1.379 . S
C142 C111 1.383 . S
C142 C129 1.479 1_556 S
C142 C143 1.398 . S
C143 C108 1.382 . S
C143 H120 0.951 1_556 S
C143 C142 1.398 . S
C144 C145 1.384 . S
C144 H157 0.947 . S
C144 C179 1.382 . S
C145 C144 1.384 . S
C145 C146 1.378 . S
C146 C145 1.378 . S
C146 C147 1.378 . S
C146 H158 0.952 . S
C147 C146 1.378 . S
C147 H159 0.950 . S
C147 C178 1.383 . S
H148 C167 0.947 . S
H149 C168 0.946 . S
H150 C170 0.953 . S
H151 C171 0.945 . S
H152 C173 0.952 . S
H153 C174 0.949 . S
H154 C176 0.950 . S
H155 C177 0.948 . S
H156 C179 0.951 . S
H157 C144 0.947 . S
H158 C146 0.952 . S
H159 C147 0.950 . S
N160 C163 1.382 . S
N160 C165 1.363 . S
N161 C163 1.371 . S
N161 C164 1.372 . S
N162 C164 1.361 . S
N162 C165 1.377 . S
C163 N160 1.382 . S
C163 N161 1.371 . S
C163 C166 1.480 . S
C164 N161 1.372 . S
C164 N162 1.361 . S
C164 C172 1.457 . S
C165 N160 1.363 . S
C165 N162 1.377 . S
C165 C178 1.479 . S
C166 C163 1.480 . S
C166 C167 1.383 . S
C166 C171 1.385 . S
C167 H148 0.947 . S
C167 C166 1.383 . S
C167 C168 1.388 . S
C168 H149 0.946 . S
C168 C167 1.388 . S
C168 C169 1.384 . S
C169 C168 1.384 . S
C169 C170 1.377 . S
C170 H150 0.953 . S
C170 C169 1.377 . S
C170 C171 1.369 . S
C171 H151 0.945 . S
C171 C166 1.385 . S
C171 C170 1.369 . S
C172 C164 1.457 . S
C172 C173 1.372 . S
C172 C177 1.364 . S
C173 H152 0.952 . S
C173 C172 1.372 . S
C173 C174 1.389 . S
C174 H153 0.949 . S
C174 C173 1.389 . S
C174 C175 1.387 . S
C175 C174 1.387 . S
C175 C176 1.372 . S
C176 H154 0.950 . S
C176 C175 1.372 . S
C176 C177 1.379 . S
C177 H155 0.948 . S
C177 C172 1.364 . S
C177 C176 1.379 . S
C178 C147 1.383 . S
C178 C165 1.479 . S
C178 C179 1.398 . S
C179 C144 1.382 . S
C179 H156 0.951 . S
C179 C178 1.398 . S
C180 C181 1.384 . S
C180 H193 0.947 . S
C180 C215 1.382 . S
C181 C180 1.384 . S
C181 C182 1.378 . S
C182 C181 1.378 . S
C182 C183 1.378 . S
C182 H194 0.952 . S
C183 C182 1.378 . S
C183 H195 0.950 . S
C183 C214 1.383 . S
H184 C203 0.947 . S
H185 C204 0.946 . S
H186 C206 0.953 . S
H187 C207 0.945 . S
H188 C209 0.952 . S
H189 C210 0.949 . S
H190 C212 0.950 . S
H191 C213 0.948 . S
H192 C215 0.951 . S
H193 C180 0.947 . S
H194 C182 0.952 . S
H195 C183 0.950 . S
N196 C199 1.382 . S
N196 C201 1.363 . S
N197 C199 1.371 . S
N197 C200 1.372 . S
N198 C200 1.361 . S
N198 C201 1.377 . S
C199 N196 1.382 . S
C199 N197 1.371 . S
C199 C202 1.480 . S
C200 N197 1.372 . S
C200 N198 1.361 . S
C200 C208 1.457 . S
C201 N196 1.363 . S
C201 N198 1.377 . S
C201 C214 1.479 . S
C202 C199 1.480 . S
C202 C203 1.383 . S
C202 C207 1.385 . S
C203 H184 0.947 . S
C203 C202 1.383 . S
C203 C204 1.388 . S
C204 H185 0.946 . S
C204 C203 1.388 . S
C204 C205 1.384 . S
C205 C204 1.384 . S
C205 C206 1.377 . S
C206 H186 0.953 . S
C206 C205 1.377 . S
C206 C207 1.369 . S
C207 H187 0.945 . S
C207 C202 1.385 . S
C207 C206 1.369 . S
C208 C200 1.457 . S
C208 C209 1.372 . S
C208 C213 1.364 . S
C209 H188 0.952 . S
C209 C208 1.372 . S
C209 C210 1.389 . S
C210 H189 0.949 . S
C210 C209 1.389 . S
C210 C211 1.387 . S
C211 C210 1.387 . S
C211 C212 1.372 . S
C212 H190 0.950 . S
C212 C211 1.372 . S
C212 C213 1.379 . S
C213 H191 0.948 . S
C213 C208 1.364 . S
C213 C212 1.379 . S
C214 C183 1.383 . S
C214 C201 1.479 . S
C214 C215 1.398 . S
C215 C180 1.382 . S
C215 H192 0.951 . S
C215 C214 1.398 . S
C216 C217 1.385 . S
C216 H229 0.947 . S
C216 C251 1.382 . S
C217 C216 1.385 . S
C217 C218 1.379 . S
C218 C217 1.379 . S
C218 C219 1.378 . S
C218 H230 0.952 1_554 S
C219 C218 1.378 . S
C219 H231 0.950 . S
C219 C250 1.383 . S
H220 C239 0.947 . S
H221 C240 0.952 . S
H222 C242 0.953 . S
H223 C243 0.945 . S
H224 C245 0.952 . S
H225 C246 0.949 . S
H226 C248 0.950 . S
H227 C249 0.948 . S
H228 C251 0.951 . S
H229 C216 0.947 . S
H230 C218 0.952 1_556 S
H231 C219 0.950 . S
N232 C235 1.382 . S
N232 C237 1.363 . S
N233 C235 1.371 . S
N233 C236 1.372 . S
N234 C236 1.361 . S
N234 C237 1.377 . S
C235 N232 1.382 . S
C235 N233 1.371 . S
C235 C238 1.480 . S
C236 N233 1.372 . S
C236 N234 1.361 . S
C236 C244 1.457 . S
C237 N232 1.363 . S
C237 N234 1.377 . S
C237 C250 1.479 . S
C238 C235 1.480 . S
C238 C239 1.383 . S
C238 C243 1.385 . S
C239 H220 0.947 . S
C239 C238 1.383 . S
C239 C240 1.388 . S
C240 H221 0.952 . S
C240 C239 1.388 . S
C240 C241 1.384 . S
C241 C240 1.384 . S
C241 C242 1.377 . S
C242 H222 0.953 . S
C242 C241 1.377 . S
C242 C243 1.369 . S
C243 H223 0.945 . S
C243 C238 1.385 . S
C243 C242 1.369 . S
C244 C236 1.457 . S
C244 C245 1.372 . S
C244 C249 1.364 . S
C245 H224 0.952 . S
C245 C244 1.372 . S
C245 C246 1.389 . S
C246 H225 0.949 . S
C246 C245 1.389 . S
C246 C247 1.387 . S
C247 C246 1.387 . S
C247 C248 1.372 . S
C248 H226 0.950 . S
C248 C247 1.372 . S
C248 C249 1.379 . S
C249 H227 0.948 . S
C249 C244 1.364 . S
C249 C248 1.379 . S
C250 C219 1.383 . S
C250 C237 1.479 . S
C250 C251 1.398 . S
C251 C216 1.382 . S
C251 H228 0.951 . S
C251 C250 1.398 . S
C252 C253 1.384 . S
C252 H265 0.947 . S
C252 C287 1.382 . S
C253 C252 1.384 . S
C253 C254 1.378 . S
C254 C253 1.378 . S
C254 C255 1.378 . S
C254 H266 0.952 . S
C255 C254 1.378 . S
C255 H267 0.950 . S
C255 C286 1.383 . S
H256 C275 0.947 . S
H257 C276 0.946 . S
H258 C278 0.953 . S
H259 C279 0.945 . S
H260 C281 0.952 . S
H261 C282 0.949 . S
H262 C284 0.950 . S
H263 C285 0.948 . S
H264 C287 0.951 . S
H265 C252 0.947 . S
H266 C254 0.952 . S
H267 C255 0.950 . S
N268 C271 1.382 . S
N268 C273 1.363 . S
N269 C271 1.371 . S
N269 C272 1.372 . S
N270 C272 1.361 . S
N270 C273 1.377 . S
C271 N268 1.382 . S
C271 N269 1.371 . S
C271 C274 1.480 . S
C272 N269 1.372 . S
C272 N270 1.361 . S
C272 C280 1.457 . S
C273 N268 1.363 . S
C273 N270 1.377 . S
C273 C286 1.479 . S
C274 C271 1.480 . S
C274 C275 1.383 . S
C274 C279 1.385 . S
C275 H256 0.947 . S
C275 C274 1.383 . S
C275 C276 1.388 . S
C276 H257 0.946 . S
C276 C275 1.388 . S
C276 C277 1.384 . S
C277 C276 1.384 . S
C277 C278 1.377 . S
C278 H258 0.953 . S
C278 C277 1.377 . S
C278 C279 1.369 . S
C279 H259 0.945 . S
C279 C274 1.385 . S
C279 C278 1.369 . S
C280 C272 1.457 . S
C280 C281 1.372 . S
C280 C285 1.364 . S
C281 H260 0.952 . S
C281 C280 1.372 . S
C281 C282 1.389 . S
C282 H261 0.949 . S
C282 C281 1.389 . S
C282 C283 1.387 . S
C283 C282 1.387 . S
C283 C284 1.372 . S
C284 H262 0.950 . S
C284 C283 1.372 . S
C284 C285 1.379 . S
C285 H263 0.948 . S
C285 C280 1.364 . S
C285 C284 1.379 . S
C286 C255 1.383 . S
C286 C273 1.479 . S
C286 C287 1.398 . S
C287 C252 1.382 . S
C287 H264 0.951 . S
C287 C286 1.398 . S
Tb288 O291 2.453 1_665 S
Tb288 O292 2.596 1_665 S
Tb288 O293 2.374 1_655 S
Tb288 O301 2.343 . S
Tb288 O303 2.353 1_565 S
Tb288 O305 2.427 . S
Tb288 O306 2.513 . S
C289 O293 1.251 . S
C289 O295 1.263 . S
Tb290 O292 2.343 . S
Tb290 O295 2.353 1_545 S
Tb290 O298 2.427 . S
Tb290 O299 2.513 . S
Tb290 O300 2.453 1_545 S
Tb290 O301 2.596 1_445 S
Tb290 O302 2.374 1_455 S
O291 Tb288 2.453 1_445 S
O291 C307 1.245 . S
O292 Tb288 2.596 1_445 S
O292 Tb290 2.343 . S
O292 C307 1.259 . S
O293 Tb288 2.374 1_455 S
O293 C289 1.251 . S
C294 O298 1.275 . S
C294 O299 1.246 . S
O295 C289 1.263 . S
O295 Tb290 2.353 1_565 S
C296 O300 1.245 1_655 S
C296 O301 1.259 . S
C297 O302 1.250 . S
C297 O303 1.263 . S
O298 Tb290 2.427 . S
O298 C294 1.275 . S
O299 Tb290 2.513 . S
O299 C294 1.246 . S
O300 Tb290 2.453 1_565 S
O300 C296 1.245 1_455 S
O301 Tb288 2.343 . S
O301 Tb290 2.596 1_665 S
O301 C296 1.259 . S
O302 Tb290 2.374 1_655 S
O302 C297 1.250 . S
O303 Tb288 2.353 1_545 S
O303 C297 1.263 . S
C304 O305 1.275 . S
C304 O306 1.246 . S
O305 Tb288 2.427 . S
O305 C304 1.275 . S
O306 Tb288 2.513 . S
O306 C304 1.246 . S
C307 O291 1.245 . S
C307 O292 1.259 . S
Tb308 O311 2.453 . S
Tb308 O312 2.596 1_545 S
Tb308 O313 2.374 . S
Tb308 O321 2.343 . S
Tb308 O323 2.353 . S
Tb308 O325 2.427 . S
Tb308 O326 2.513 . S
C309 O313 1.251 . S
C309 O315 1.263 1_545 S
Tb310 O312 2.343 . S
Tb310 O315 2.353 . S
Tb310 O318 2.427 . S
Tb310 O319 2.513 . S
Tb310 O320 2.453 . S
Tb310 O321 2.596 1_565 S
Tb310 O322 2.374 . S
O311 Tb308 2.453 . S
O311 C327 1.245 . S
O312 Tb308 2.596 1_565 S
O312 Tb310 2.343 . S
O312 C327 1.259 1_565 S
O313 Tb308 2.374 . S
O313 C309 1.251 . S
C314 O318 1.275 . S
C314 O319 1.246 . S
O315 C309 1.263 1_565 S
O315 Tb310 2.353 . S
C316 O320 1.245 . S
C316 O321 1.259 1_565 S
C317 O322 1.250 1_545 S
C317 O323 1.263 . S
O318 Tb310 2.427 . S
O318 C314 1.275 . S
O319 Tb310 2.513 . S
O319 C314 1.246 . S
O320 Tb310 2.453 . S
O320 C316 1.245 . S
O321 Tb308 2.343 . S
O321 Tb310 2.596 1_545 S
O321 C316 1.259 1_545 S
O322 Tb310 2.374 . S
O322 C317 1.250 1_565 S
O323 Tb308 2.353 . S
O323 C317 1.263 . S
C324 O325 1.275 . S
C324 O326 1.246 . S
O325 Tb308 2.427 . S
O325 C324 1.275 . S
O326 Tb308 2.513 . S
O326 C324 1.246 . S
C327 O311 1.245 . S
C327 O312 1.259 1_545 S
Tb328 O331 2.453 . S
Tb328 O332 2.596 . S
Tb328 O333 2.374 . S
Tb328 O341 2.343 . S
Tb328 O343 2.353 . S
Tb328 O345 2.427 . S
Tb328 O346 2.513 . S
C329 O333 1.251 . S
C329 O335 1.263 . S
Tb330 O332 2.343 . S
Tb330 O335 2.353 . S
Tb330 O338 2.427 . S
Tb330 O339 2.513 . S
Tb330 O340 2.453 . S
Tb330 O341 2.596 . S
Tb330 O342 2.374 . S
O331 Tb328 2.453 . S
O331 C347 1.245 . S
O332 Tb328 2.596 . S
O332 Tb330 2.343 . S
O332 C347 1.259 . S
O333 Tb328 2.374 . S
O333 C329 1.251 . S
C334 O338 1.275 . S
C334 O339 1.246 . S
O335 C329 1.263 . S
O335 Tb330 2.353 . S
C336 O340 1.245 . S
C336 O341 1.259 . S
C337 O342 1.250 . S
C337 O343 1.263 . S
O338 Tb330 2.427 . S
O338 C334 1.275 . S
O339 Tb330 2.513 . S
O339 C334 1.246 . S
O340 Tb330 2.453 . S
O340 C336 1.245 . S
O341 Tb328 2.343 . S
O341 Tb330 2.596 . S
O341 C336 1.259 . S
O342 Tb330 2.374 . S
O342 C337 1.250 . S
O343 Tb328 2.353 . S
O343 C337 1.263 . S
C344 O345 1.275 . S
C344 O346 1.246 . S
O345 Tb328 2.427 . S
O345 C344 1.275 . S
O346 Tb328 2.513 . S
O346 C344 1.246 . S
C347 O331 1.245 . S
C347 O332 1.259 . S
Tb348 O351 2.453 1_655 S
Tb348 O352 2.596 1_655 S
Tb348 O353 2.374 1_655 S
Tb348 O361 2.343 . S
Tb348 O363 2.353 . S
Tb348 O365 2.427 . S
Tb348 O366 2.513 . S
C349 O353 1.251 . S
C349 O355 1.263 . S
Tb350 O352 2.343 . S
Tb350 O355 2.353 . S
Tb350 O358 2.427 . S
Tb350 O359 2.513 . S
Tb350 O360 2.453 1_455 S
Tb350 O361 2.596 1_455 S
Tb350 O362 2.391 . S
O351 Tb348 2.453 1_455 S
O351 C367 1.245 . S
O352 Tb348 2.596 1_455 S
O352 Tb350 2.343 . S
O352 C367 1.259 . S
O353 Tb348 2.374 1_455 S
O353 C349 1.251 . S
C354 O358 1.275 . S
C354 O359 1.246 . S
O355 C349 1.263 . S
O355 Tb350 2.353 . S
C356 O360 1.245 . S
C356 O361 1.259 . S
C357 O362 1.229 1_655 S
C357 O363 1.263 . S
O358 Tb350 2.427 . S
O358 C354 1.275 . S
O359 Tb350 2.513 . S
O359 C354 1.246 . S
O360 Tb350 2.453 1_655 S
O360 C356 1.245 . S
O361 Tb348 2.343 . S
O361 Tb350 2.596 1_655 S
O361 C356 1.259 . S
O362 Tb350 2.391 . S
O362 C357 1.229 1_455 S
O363 Tb348 2.353 . S
O363 C357 1.263 . S
C364 O365 1.275 . S
C364 O366 1.246 . S
O365 Tb348 2.427 . S
O365 C364 1.275 . S
O366 Tb348 2.513 . S
O366 C364 1.246 . S
C367 O351 1.245 . S
C367 O352 1.259 . S
H368 C374 0.930 . S
H369 C377 0.929 . S
H370 C378 0.931 . S
H371 C379 0.928 . S
H372 C382 0.930 . S
H373 C383 0.930 . S
C374 H368 0.930 . S
C374 C375 1.355 . S
C374 C376 1.415 . S
C375 C374 1.355 . S
C375 C377 1.419 . S
C376 C374 1.415 . S
C376 C381 1.425 . S
C376 C383 1.409 . S
C377 H369 0.929 . S
C377 C375 1.419 . S
C377 C378 1.362 1_545 S
C378 H370 0.931 . S
C378 C377 1.362 1_565 S
C378 C381 1.410 1_565 S
C379 H371 0.928 . S
C379 C380 1.356 . S
C379 C381 1.416 1_565 S
C380 C379 1.356 . S
C380 C382 1.419 1_565 S
C381 C376 1.425 . S
C381 C378 1.410 1_545 S
C381 C379 1.416 1_545 S
C382 H372 0.930 . S
C382 C380 1.419 1_545 S
C382 C383 1.362 . S
C383 H373 0.930 . S
C383 C376 1.409 . S
C383 C382 1.362 . S
H384 C390 0.930 . S
H385 C393 0.930 . S
H386 C394 0.930 . S
H387 C395 0.930 . S
H388 C398 0.930 . S
H389 C399 0.930 . S
C390 H384 0.930 . S
C390 C391 1.355 . S
C390 C392 1.415 . S
C391 C390 1.355 . S
C391 C393 1.419 . S
C392 C390 1.415 . S
C392 C397 1.425 . S
C392 C399 1.409 . S
C393 H385 0.930 . S
C393 C391 1.419 . S
C393 C394 1.362 . S
C394 H386 0.930 . S
C394 C393 1.362 . S
C394 C397 1.409 . S
C395 H387 0.930 . S
C395 C396 1.355 . S
C395 C397 1.415 . S
C396 C395 1.355 . S
C396 C398 1.419 . S
C397 C392 1.425 . S
C397 C394 1.409 . S
C397 C395 1.415 . S
C398 H388 0.930 . S
C398 C396 1.419 . S
C398 C399 1.362 . S
C399 H389 0.930 . S
C399 C392 1.409 . S
C399 C398 1.362 . S
H400 C406 0.930 . S
H401 C409 0.930 . S
H402 C410 0.930 . S
H403 C411 0.930 . S
H404 C414 0.930 . S
H405 C415 0.930 . S
C406 H400 0.930 . S
C406 C407 1.355 . S
C406 C408 1.415 . S
C407 C406 1.355 . S
C407 C409 1.419 . S
C408 C406 1.415 . S
C408 C413 1.425 . S
C408 C415 1.409 . S
C409 H401 0.930 . S
C409 C407 1.419 . S
C409 C410 1.362 . S
C410 H402 0.930 . S
C410 C409 1.362 . S
C410 C413 1.409 . S
C411 H403 0.930 . S
C411 C412 1.355 . S
C411 C413 1.415 . S
C412 C411 1.355 . S
C412 C414 1.419 . S
C413 C408 1.425 . S
C413 C410 1.409 . S
C413 C411 1.415 . S
C414 H404 0.930 . S
C414 C412 1.419 . S
C414 C415 1.362 . S
C415 H405 0.930 . S
C415 C408 1.409 . S
C415 C414 1.362 . S
H416 C422 0.930 . S
H417 C425 0.930 . S
H418 C426 0.930 . S
H419 C427 0.930 . S
H420 C430 0.930 . S
H421 C431 0.930 . S
C422 H416 0.930 . S
C422 C423 1.355 . S
C422 C424 1.415 . S
C423 C422 1.355 . S
C423 C425 1.419 . S
C424 C422 1.415 . S
C424 C429 1.425 . S
C424 C431 1.409 . S
C425 H417 0.930 . S
C425 C423 1.419 . S
C425 C426 1.362 . S
C426 H418 0.930 . S
C426 C425 1.362 . S
C426 C429 1.409 . S
C427 H419 0.930 . S
C427 C428 1.355 . S
C427 C429 1.415 . S
C428 C427 1.355 . S
C428 C430 1.419 . S
C429 C424 1.425 . S
C429 C426 1.409 . S
C429 C427 1.415 . S
C430 H420 0.930 . S
C430 C428 1.419 . S
C430 C431 1.362 . S
C431 H421 0.930 . S
C431 C424 1.409 . S
C431 C430 1.362 . S
H432 C438 0.930 . S
H433 C441 0.930 1_554 S
H434 C442 0.930 . S
H435 C443 0.930 . S
H436 C446 0.930 . S
H437 C447 0.930 . S
C438 H432 0.930 . S
C438 C439 1.355 1_565 S
C438 C440 1.415 . S
C439 C438 1.355 1_545 S
C439 C441 1.419 . S
C440 C438 1.415 . S
C440 C445 1.425 1_565 S
C440 C447 1.409 . S
C441 H433 0.930 1_556 S
C441 C439 1.419 . S
C441 C442 1.362 . S
C442 H434 0.930 . S
C442 C441 1.362 . S
C442 C445 1.409 . S
C443 H435 0.930 . S
C443 C444 1.355 . S
C443 C445 1.415 . S
C444 C443 1.355 . S
C444 C446 1.419 1_545 S
C445 C440 1.425 1_545 S
C445 C442 1.409 . S
C445 C443 1.415 . S
C446 H436 0.930 . S
C446 C444 1.419 1_565 S
C446 C447 1.362 . S
C447 H437 0.930 . S
C447 C440 1.409 . S
C447 C446 1.362 . S
H448 C454 0.930 1_554 S
H449 C457 0.930 . S
H450 C458 0.930 . S
H451 C459 0.930 . S
H452 C462 0.930 . S
H453 C463 0.930 . S
C454 H448 0.930 1_556 S
C454 C455 1.355 . S
C454 C456 1.415 . S
C455 C454 1.355 . S
C455 C457 1.419 . S
C456 C454 1.415 . S
C456 C461 1.425 . S
C456 C463 1.409 . S
C457 H449 0.930 . S
C457 C455 1.419 . S
C457 C458 1.362 . S
C458 H450 0.930 . S
C458 C457 1.362 . S
C458 C461 1.409 . S
C459 H451 0.930 . S
C459 C460 1.355 . S
C459 C461 1.415 . S
C460 C459 1.355 . S
C460 C462 1.419 . S
C461 C456 1.425 . S
C461 C458 1.409 . S
C461 C459 1.415 . S
C462 H452 0.930 . S
C462 C460 1.419 . S
C462 C463 1.362 . S
C463 H453 0.930 . S
C463 C456 1.409 . S
C463 C462 1.362 . S
H464 C470 0.930 . S
H465 C473 0.930 . S
H466 C474 0.930 . S
H467 C475 0.930 . S
H468 C478 0.930 . S
H469 C479 0.930 . S
C470 H464 0.930 . S
C470 C471 1.355 . S
C470 C472 1.415 . S
C471 C470 1.355 . S
C471 C473 1.419 . S
C472 C470 1.415 . S
C472 C477 1.425 . S
C472 C479 1.409 . S
C473 H465 0.930 . S
C473 C471 1.419 . S
C473 C474 1.362 . S
C474 H466 0.930 . S
C474 C473 1.362 . S
C474 C477 1.409 . S
C475 H467 0.930 . S
C475 C476 1.355 . S
C475 C477 1.415 . S
C476 C475 1.355 . S
C476 C478 1.419 . S
C477 C472 1.425 . S
C477 C474 1.409 . S
C477 C475 1.415 . S
C478 H468 0.930 . S
C478 C476 1.419 . S
C478 C479 1.362 . S
C479 H469 0.930 . S
C479 C472 1.409 . S
C479 C478 1.362 . S
H480 C486 0.930 . S
H481 C489 0.930 . S
H482 C490 0.930 . S
H483 C491 0.930 . S
H484 C494 0.930 . S
H485 C495 0.930 . S
C486 H480 0.930 . S
C486 C487 1.355 . S
C486 C488 1.415 . S
C487 C486 1.355 . S
C487 C489 1.419 . S
C488 C486 1.415 . S
C488 C493 1.425 . S
C488 C495 1.409 . S
C489 H481 0.930 . S
C489 C487 1.419 . S
C489 C490 1.362 . S
C490 H482 0.930 . S
C490 C489 1.362 . S
C490 C493 1.409 . S
C491 H483 0.930 . S
C491 C492 1.355 . S
C491 C493 1.415 . S
C492 C491 1.355 . S
C492 C494 1.419 . S
C493 C488 1.425 . S
C493 C490 1.409 . S
C493 C491 1.415 . S
C494 H484 0.930 . S
C494 C492 1.419 . S
C494 C495 1.362 . S
C495 H485 0.930 . S
C495 C488 1.409 . S
C495 C494 1.362 . S
H496 C502 0.930 . S
H497 C505 0.930 . S
H498 C506 0.930 . S
H499 C507 0.930 . S
H500 C510 0.930 . S
H501 C511 0.930 . S
C502 H496 0.930 . S
C502 C503 1.355 . S
C502 C504 1.415 . S
C503 C502 1.355 . S
C503 C505 1.419 . S
C504 C502 1.415 . S
C504 C509 1.425 . S
C504 C511 1.409 . S
C505 H497 0.930 . S
C505 C503 1.419 . S
C505 C506 1.362 . S
C506 H498 0.930 . S
C506 C505 1.362 . S
C506 C509 1.409 . S
C507 H499 0.930 . S
C507 C508 1.355 . S
C507 C509 1.415 . S
C508 C507 1.355 . S
C508 C510 1.419 . S
C509 C504 1.425 . S
C509 C506 1.409 . S
C509 C507 1.415 . S
C510 H500 0.930 . S
C510 C508 1.419 . S
C510 C511 1.362 . S
C511 H501 0.930 . S
C511 C504 1.409 . S
C511 C510 1.362 . S
H512 C518 0.930 . S
H513 C521 0.930 . S
H514 C522 0.930 . S
H515 C523 0.930 . S
H516 C526 0.930 . S
H517 C527 0.930 . S
C518 H512 0.930 . S
C518 C519 1.355 . S
C518 C520 1.415 . S
C519 C518 1.355 . S
C519 C521 1.419 1_545 S
C520 C518 1.415 . S
C520 C525 1.425 1_545 S
C520 C527 1.409 . S
C521 H513 0.930 . S
C521 C519 1.419 1_565 S
C521 C522 1.362 . S
C522 H514 0.930 . S
C522 C521 1.362 . S
C522 C525 1.409 . S
C523 H515 0.930 . S
C523 C524 1.355 1_565 S
C523 C525 1.415 . S
C524 C523 1.355 1_545 S
C524 C526 1.419 . S
C525 C520 1.425 1_565 S
C525 C522 1.409 . S
C525 C523 1.415 . S
C526 H516 0.930 . S
C526 C524 1.419 . S
C526 C527 1.362 . S
C527 H517 0.930 . S
C527 C520 1.409 . S
C527 C526 1.362 . S
H528 C534 0.930 . S
H529 C537 0.930 . S
H530 C538 0.930 . S
H531 C539 0.930 . S
H532 C542 0.930 . S
H533 C543 0.930 . S
C534 H528 0.930 . S
C534 C535 1.355 . S
C534 C536 1.415 . S
C535 C534 1.355 . S
C535 C537 1.419 . S
C536 C534 1.415 . S
C536 C541 1.425 . S
C536 C543 1.409 . S
C537 H529 0.930 . S
C537 C535 1.419 . S
C537 C538 1.362 . S
C538 H530 0.930 . S
C538 C537 1.362 . S
C538 C541 1.409 . S
C539 H531 0.930 . S
C539 C540 1.355 . S
C539 C541 1.415 . S
C540 C539 1.355 . S
C540 C542 1.419 . S
C541 C536 1.425 . S
C541 C538 1.409 . S
C541 C539 1.415 . S
C542 H532 0.930 . S
C542 C540 1.419 . S
C542 C543 1.362 . S
C543 H533 0.930 . S
C543 C536 1.409 . S
C543 C542 1.362 . S
H544 C550 0.930 . S
H545 C553 0.930 . S
H546 C554 0.930 . S
H547 C555 0.930 . S
H548 C558 0.930 . S
H549 C559 0.930 . S
C550 H544 0.930 . S
C550 C551 1.355 . S
C550 C552 1.415 . S
C551 C550 1.355 . S
C551 C553 1.419 . S
C552 C550 1.415 . S
C552 C557 1.425 . S
C552 C559 1.409 . S
C553 H545 0.930 . S
C553 C551 1.419 . S
C553 C554 1.362 . S
C554 H546 0.930 . S
C554 C553 1.362 . S
C554 C557 1.409 . S
C555 H547 0.930 . S
C555 C556 1.355 . S
C555 C557 1.415 . S
C556 C555 1.355 . S
C556 C558 1.419 . S
C557 C552 1.425 . S
C557 C554 1.409 . S
C557 C555 1.415 . S
C558 H548 0.930 . S
C558 C556 1.419 . S
C558 C559 1.362 . S
C559 H549 0.930 . S
C559 C552 1.409 . S
C559 C558 1.362 . S
H560 C566 0.930 . S
H561 C569 0.930 . S
H562 C570 0.930 . S
H563 C571 0.930 . S
H564 C574 0.930 . S
H565 C575 0.930 . S
C566 H560 0.930 . S
C566 C567 1.355 . S
C566 C568 1.415 . S
C567 C566 1.355 . S
C567 C569 1.419 . S
C568 C566 1.415 . S
C568 C573 1.425 . S
C568 C575 1.409 . S
C569 H561 0.930 . S
C569 C567 1.419 . S
C569 C570 1.362 . S
C570 H562 0.930 . S
C570 C569 1.362 . S
C570 C573 1.409 . S
C571 H563 0.930 . S
C571 C572 1.355 . S
C571 C573 1.415 . S
C572 C571 1.355 . S
C572 C574 1.419 . S
C573 C568 1.425 . S
C573 C570 1.409 . S
C573 C571 1.415 . S
C574 H564 0.930 . S
C574 C572 1.419 . S
C574 C575 1.362 . S
C575 H565 0.930 . S
C575 C568 1.409 . S
C575 C574 1.362 . S
H576 C582 0.930 . S
H577 C585 0.930 . S
H578 C586 0.930 . S
H579 C587 0.930 . S
H580 C590 0.930 . S
H581 C591 0.930 . S
C582 H576 0.930 . S
C582 C583 1.348 1_545 S
C582 C584 1.415 . S
C583 C582 1.348 1_565 S
C583 C585 1.425 . S
C584 C582 1.415 . S
C584 C589 1.425 1_545 S
C584 C591 1.409 . S
C585 H577 0.930 . S
C585 C583 1.425 . S
C585 C586 1.362 . S
C586 H578 0.930 . S
C586 C585 1.362 . S
C586 C589 1.409 . S
C587 H579 0.930 . S
C587 C588 1.355 1_565 S
C587 C589 1.415 . S
C588 C587 1.355 1_545 S
C588 C590 1.419 . S
C589 C584 1.425 1_565 S
C589 C586 1.409 . S
C589 C587 1.415 . S
C590 H580 0.930 . S
C590 C588 1.419 . S
C590 C591 1.362 . S
C591 H581 0.930 . S
C591 C584 1.409 . S
C591 C590 1.362 . S
H592 C598 0.930 . S
H593 C601 0.930 . S
H594 C602 0.930 . S
H595 C603 0.930 . S
H596 C606 0.930 . S
H597 C607 0.930 . S
C598 H592 0.930 . S
C598 C599 1.355 . S
C598 C600 1.415 . S
C599 C598 1.355 . S
C599 C601 1.419 . S
C600 C598 1.415 . S
C600 C605 1.425 . S
C600 C607 1.409 . S
C601 H593 0.930 . S
C601 C599 1.419 . S
C601 C602 1.362 . S
C602 H594 0.930 . S
C602 C601 1.362 . S
C602 C605 1.409 . S
C603 H595 0.930 . S
C603 C604 1.355 . S
C603 C605 1.415 . S
C604 C603 1.355 . S
C604 C606 1.419 . S
C605 C600 1.425 . S
C605 C602 1.409 . S
C605 C603 1.415 . S
C606 H596 0.930 . S
C606 C604 1.419 . S
C606 C607 1.362 . S
C607 H597 0.930 . S
C607 C600 1.409 . S
C607 C606 1.362 . S
H608 C614 0.930 . S
H609 C617 0.930 . S
H610 C618 0.930 . S
H611 C619 0.930 . S
H612 C622 0.930 . S
H613 C623 0.930 . S
C614 H608 0.930 . S
C614 C615 1.355 . S
C614 C616 1.415 . S
C615 C614 1.355 . S
C615 C617 1.419 . S
C616 C614 1.415 . S
C616 C621 1.425 . S
C616 C623 1.409 . S
C617 H609 0.930 . S
C617 C615 1.419 . S
C617 C618 1.362 . S
C618 H610 0.930 . S
C618 C617 1.362 . S
C618 C621 1.409 . S
C619 H611 0.930 . S
C619 C620 1.355 . S
C619 C621 1.415 . S
C620 C619 1.355 . S
C620 C622 1.419 . S
C621 C616 1.425 . S
C621 C618 1.409 . S
C621 C619 1.415 . S
C622 H612 0.930 . S
C622 C620 1.419 . S
C622 C623 1.362 . S
C623 H613 0.930 . S
C623 C616 1.409 . S
C623 C622 1.362 . S
H624 C630 0.930 . S
H625 C633 0.930 1_554 S
H626 C634 0.930 . S
H627 C635 0.930 . S
H628 C638 0.930 . S
H629 C639 0.930 . S
C630 H624 0.930 . S
C630 C631 1.355 1_556 S
C630 C632 1.415 . S
C631 C630 1.355 1_554 S
C631 C633 1.419 1_554 S
C632 C630 1.415 . S
C632 C637 1.425 . S
C632 C639 1.409 . S
C633 H625 0.930 1_556 S
C633 C631 1.419 1_556 S
C633 C634 1.362 . S
C634 H626 0.930 . S
C634 C633 1.362 . S
C634 C637 1.409 . S
C635 H627 0.930 . S
C635 C636 1.355 . S
C635 C637 1.415 . S
C636 C635 1.355 . S
C636 C638 1.419 . S
C637 C632 1.425 . S
C637 C634 1.409 . S
C637 C635 1.415 . S
C638 H628 0.930 . S
C638 C636 1.419 . S
C638 C639 1.362 . S
C639 H629 0.930 . S
C639 C632 1.409 . S
C639 C638 1.362 . S
H640 C646 0.930 1_554 S
H641 C649 0.930 . S
H642 C650 0.930 . S
H643 C651 0.930 . S
H644 C654 0.930 . S
H645 C655 0.930 . S
C646 H640 0.930 1_556 S
C646 C647 1.355 1_565 S
C646 C648 1.415 . S
C647 C646 1.355 1_545 S
C647 C649 1.419 . S
C648 C646 1.415 . S
C648 C653 1.425 1_565 S
C648 C655 1.409 . S
C649 H641 0.930 . S
C649 C647 1.419 . S
C649 C650 1.362 . S
C650 H642 0.930 . S
C650 C649 1.362 . S
C650 C653 1.409 . S
C651 H643 0.930 . S
C651 C652 1.355 . S
C651 C653 1.415 . S
C652 C651 1.355 . S
C652 C654 1.419 1_545 S
C653 C648 1.425 1_545 S
C653 C650 1.409 . S
C653 C651 1.415 . S
C654 H644 0.930 . S
C654 C652 1.419 1_565 S
C654 C655 1.362 . S
C655 H645 0.930 . S
C655 C648 1.409 . S
C655 C654 1.362 . S
H656 C662 0.930 . S
H657 C665 0.930 . S
H658 C666 0.930 . S
H659 C667 0.930 . S
H660 C670 0.930 . S
H661 C671 0.930 . S
C662 H656 0.930 . S
C662 C663 1.355 . S
C662 C664 1.415 . S
C663 C662 1.355 . S
C663 C665 1.419 1_556 S
C664 C662 1.415 . S
C664 C669 1.425 . S
C664 C671 1.409 . S
C665 H657 0.930 . S
C665 C663 1.419 1_554 S
C665 C666 1.362 . S
C666 H658 0.930 . S
C666 C665 1.362 . S
C666 C669 1.409 1_554 S
C667 H659 0.930 . S
C667 C668 1.355 . S
C667 C669 1.415 . S
C668 C667 1.355 . S
C668 C670 1.419 . S
C669 C664 1.425 . S
C669 C666 1.409 1_556 S
C669 C667 1.415 . S
C670 H660 0.930 . S
C670 C668 1.419 . S
C670 C671 1.362 . S
C671 H661 0.930 . S
C671 C664 1.409 . S
C671 C670 1.362 . S
H672 C678 0.930 . S
H673 C681 0.930 . S
H674 C682 0.930 . S
H675 C683 0.930 . S
H676 C686 0.930 . S
H677 C687 0.930 . S
C678 H672 0.930 . S
C678 C679 1.355 . S
C678 C680 1.415 . S
C679 C678 1.355 . S
C679 C681 1.419 . S
C680 C678 1.415 . S
C680 C685 1.425 . S
C680 C687 1.409 . S
C681 H673 0.930 . S
C681 C679 1.419 . S
C681 C682 1.362 . S
C682 H674 0.930 . S
C682 C681 1.362 . S
C682 C685 1.409 . S
C683 H675 0.930 . S
C683 C684 1.355 . S
C683 C685 1.415 . S
C684 C683 1.355 . S
C684 C686 1.419 . S
C685 C680 1.425 . S
C685 C682 1.409 . S
C685 C683 1.415 . S
C686 H676 0.930 . S
C686 C684 1.419 . S
C686 C687 1.362 . S
C687 H677 0.930 . S
C687 C680 1.409 . S
C687 C686 1.362 . S
H688 C694 0.930 . S
H689 C697 0.930 . S
H690 C698 0.930 . S
H691 C699 0.930 . S
H692 C702 0.930 . S
H693 C703 0.930 . S
C694 H688 0.930 . S
C694 C695 1.355 . S
C694 C696 1.415 . S
C695 C694 1.355 . S
C695 C697 1.419 . S
C696 C694 1.415 . S
C696 C701 1.425 . S
C696 C703 1.409 . S
C697 H689 0.930 . S
C697 C695 1.419 . S
C697 C698 1.362 . S
C698 H690 0.930 . S
C698 C697 1.362 . S
C698 C701 1.409 . S
C699 H691 0.930 . S
C699 C700 1.355 . S
C699 C701 1.415 . S
C700 C699 1.355 . S
C700 C702 1.419 . S
C701 C696 1.425 . S
C701 C698 1.409 . S
C701 C699 1.415 . S
C702 H692 0.930 . S
C702 C700 1.419 . S
C702 C703 1.362 . S
C703 H693 0.930 . S
C703 C696 1.409 . S
C703 C702 1.362 . S
H704 C710 0.930 . S
H705 C713 0.930 . S
H706 C714 0.930 . S
H707 C715 0.930 . S
H708 C718 0.930 . S
H709 C719 0.930 . S
C710 H704 0.930 . S
C710 C711 1.355 1_545 S
C710 C712 1.415 . S
C711 C710 1.355 1_565 S
C711 C713 1.419 . S
C712 C710 1.415 . S
C712 C717 1.425 1_545 S
C712 C719 1.409 . S
C713 H705 0.930 . S
C713 C711 1.419 . S
C713 C714 1.362 . S
C714 H706 0.930 . S
C714 C713 1.362 . S
C714 C717 1.409 . S
C715 H707 0.930 . S
C715 C716 1.355 1_565 S
C715 C717 1.415 . S
C716 C715 1.355 1_545 S
C716 C718 1.419 . S
C717 C712 1.425 1_565 S
C717 C714 1.409 . S
C717 C715 1.415 . S
C718 H708 0.930 . S
C718 C716 1.419 . S
C718 C719 1.362 . S
C719 H709 0.930 . S
C719 C712 1.409 . S
C719 C718 1.362 . S
H720 C726 0.930 . S
H721 C729 0.930 . S
H722 C730 0.930 . S
H723 C731 0.930 . S
H724 C734 0.930 . S
H725 C735 0.930 . S
C726 H720 0.930 . S
C726 C727 1.355 . S
C726 C728 1.415 . S
C727 C726 1.355 . S
C727 C729 1.419 . S
C728 C726 1.415 . S
C728 C733 1.425 . S
C728 C735 1.409 . S
C729 H721 0.930 . S
C729 C727 1.419 . S
C729 C730 1.362 . S
C730 H722 0.930 . S
C730 C729 1.362 . S
C730 C733 1.409 . S
C731 H723 0.930 . S
C731 C732 1.355 . S
C731 C733 1.415 . S
C732 C731 1.355 . S
C732 C734 1.419 . S
C733 C728 1.425 . S
C733 C730 1.409 . S
C733 C731 1.415 . S
C734 H724 0.930 . S
C734 C732 1.419 . S
C734 C735 1.362 . S
C735 H725 0.930 . S
C735 C728 1.409 . S
C735 C734 1.362 . S
H736 C742 0.930 . S
H737 C745 0.930 . S
H738 C746 0.930 . S
H739 C747 0.930 . S
H740 C750 0.930 . S
H741 C751 0.930 . S
C742 H736 0.930 . S
C742 C743 1.355 . S
C742 C744 1.415 . S
C743 C742 1.355 . S
C743 C745 1.419 . S
C744 C742 1.415 . S
C744 C749 1.425 . S
C744 C751 1.409 . S
C745 H737 0.930 . S
C745 C743 1.419 . S
C745 C746 1.362 . S
C746 H738 0.930 . S
C746 C745 1.362 . S
C746 C749 1.409 . S
C747 H739 0.930 . S
C747 C748 1.355 . S
C747 C749 1.415 . S
C748 C747 1.355 . S
C748 C750 1.419 . S
C749 C744 1.425 . S
C749 C746 1.409 . S
C749 C747 1.415 . S
C750 H740 0.930 . S
C750 C748 1.419 . S
C750 C751 1.362 . S
C751 H741 0.930 . S
C751 C744 1.409 . S
C751 C750 1.362 . S
C375 C241 1.565 . S
C380 C289 1.596 . S
C396 C324 2.266 . S
C391 C277 2.010 . S
C412 C329 1.449 . S
C407 C169 1.401 . S
C428 C349 2.004 . S
C423 C205 1.925 . S
C444 C297 1.587 . S
C439 C97 1.523 1_556 S
C455 C133 2.113 1_556 S
C460 C314 2.264 . S
C471 C25 1.406 . S
C476 C337 1.421 . S
C487 C61 1.754 . S
C492 C357 1.986 . S
C508 C307 1.703 . S
C503 C211 1.506 . S
C524 C316 0.839 1_545 S
C519 C247 0.771 . S
C540 C347 1.798 . S
C535 C253 1.504 . S
C551 C175 0.932 . S
C556 C367 1.062 . S
C567 C67 1.376 . S
C572 C296 1.680 . S
C588 C327 0.783 . S
C583 C103 0.729 1_565 S
C604 C336 1.802 . S
C599 C109 1.690 . S
C615 C31 1.056 . S
C620 C356 1.016 . S
C631 C181 2.086 . S
C636 C294 2.241 . S
C647 C217 1.829 1_556 S
C652 C317 1.976 . S
C668 C334 2.410 . S
C663 C283 2.055 1_556 S
C684 C354 2.123 . S
C679 C145 1.983 1_556 S
C695 C37 2.011 . S
C700 C304 2.232 . S
C716 C309 1.970 . S
C711 C73 1.808 1_565 S
C732 C344 2.405 . S
C727 C139 2.186 . S
C743 C1 2.018 . S
C748 C364 2.117 . S
