# Generated by pormake.
# Topology pyr, (3,6)-cn, num edge types: 1
# Building blocks:
#     Node 0, Type 0, BuildingBlock: PAMTOO_clean_linker_0, # of connection points: 3
#     Node 1, Type 0, BuildingBlock: PAMTOO_clean_linker_0, # of connection points: 3
#     Node 2, Type 0, BuildingBlock: PAMTOO_clean_linker_0, # of connection points: 3
#     Node 3, Type 0, BuildingBlock: PAMTOO_clean_linker_0, # of connection points: 3
#     Node 4, Type 0, BuildingBlock: PAMTOO_clean_linker_0, # of connection points: 3
#     Node 5, Type 0, BuildingBlock: PAMTOO_clean_linker_0, # of connection points: 3
#     Node 6, Type 0, BuildingBlock: PAMTOO_clean_linker_0, # of connection points: 3
#     Node 7, Type 0, BuildingBlock: PAMTOO_clean_linker_0, # of connection points: 3
#     Node 8, Type 1, BuildingBlock: JUFBIX_clean_sbu_0, # of connection points: 6
#     Node 9, Type 1, BuildingBlock: JUFBIX_clean_sbu_0, # of connection points: 6
#     Node 10, Type 1, BuildingBlock: JUFBIX_clean_sbu_0, # of connection points: 6
#     Node 11, Type 1, BuildingBlock: JUFBIX_clean_sbu_0, # of connection points: 6
#     Edge 12, Type (0, 1), BuildingBlock: AJUNOK_clean_linker_0, # of connection points: 2
#     Edge 13, Type (0, 1), BuildingBlock: AJUNOK_clean_linker_0, # of connection points: 2
#     Edge 14, Type (0, 1), BuildingBlock: AJUNOK_clean_linker_0, # of connection points: 2
#     Edge 15, Type (0, 1), BuildingBlock: AJUNOK_clean_linker_0, # of connection points: 2
#     Edge 16, Type (0, 1), BuildingBlock: AJUNOK_clean_linker_0, # of connection points: 2
#     Edge 17, Type (0, 1), BuildingBlock: AJUNOK_clean_linker_0, # of connection points: 2
#     Edge 18, Type (0, 1), BuildingBlock: AJUNOK_clean_linker_0, # of connection points: 2
#     Edge 19, Type (0, 1), BuildingBlock: AJUNOK_clean_linker_0, # of connection points: 2
#     Edge 20, Type (0, 1), BuildingBlock: AJUNOK_clean_linker_0, # of connection points: 2
#     Edge 21, Type (0, 1), BuildingBlock: AJUNOK_clean_linker_0, # of connection points: 2
#     Edge 22, Type (0, 1), BuildingBlock: AJUNOK_clean_linker_0, # of connection points: 2
#     Edge 23, Type (0, 1), BuildingBlock: AJUNOK_clean_linker_0, # of connection points: 2
#     Edge 24, Type (0, 1), BuildingBlock: AJUNOK_clean_linker_0, # of connection points: 2
#     Edge 25, Type (0, 1), BuildingBlock: AJUNOK_clean_linker_0, # of connection points: 2
#     Edge 26, Type (0, 1), BuildingBlock: AJUNOK_clean_linker_0, # of connection points: 2
#     Edge 27, Type (0, 1), BuildingBlock: AJUNOK_clean_linker_0, # of connection points: 2
#     Edge 28, Type (0, 1), BuildingBlock: AJUNOK_clean_linker_0, # of connection points: 2
#     Edge 29, Type (0, 1), BuildingBlock: AJUNOK_clean_linker_0, # of connection points: 2
#     Edge 30, Type (0, 1), BuildingBlock: AJUNOK_clean_linker_0, # of connection points: 2
#     Edge 31, Type (0, 1), BuildingBlock: AJUNOK_clean_linker_0, # of connection points: 2
#     Edge 32, Type (0, 1), BuildingBlock: AJUNOK_clean_linker_0, # of connection points: 2
#     Edge 33, Type (0, 1), BuildingBlock: AJUNOK_clean_linker_0, # of connection points: 2
#     Edge 34, Type (0, 1), BuildingBlock: AJUNOK_clean_linker_0, # of connection points: 2
#     Edge 35, Type (0, 1), BuildingBlock: AJUNOK_clean_linker_0, # of connection points: 2
# Relax obj value: 0.160
# Max RMSD: 0.207
# Mean RMSD: 0.140
data_MOF--net-pyr--node1-JUFBIX_clean_sbu_0--node2-PAMTOO_clean_linker_0--edge1-AJUNOK_clean_linker_0
_symmetry_space_group_name_H-M    P1
_symmetry_Int_Tables_number       1
_symmetry_cell_setting            triclinic
loop_
_symmetry_equiv_pos_as_xyz
'x, y, z'
_cell_length_a     26.73144
_cell_length_b     25.844121
_cell_length_c     27.297176
_cell_angle_alpha  81.504158
_cell_angle_beta   89.519882
_cell_angle_gamma 95.704867
loop_
_atom_site_label
_atom_site_type_symbol
_atom_site_fract_x
_atom_site_fract_y
_atom_site_fract_z
_atom_type_partial_charge
H0 H 0.13938 0.2189 0.26522 0.0
H1 H 0.25488 0.11266 0.27974 0.0
H2 H 0.25483 0.23133 0.15146 0.0
H3 H 0.2766 0.11417 0.13962 0.0
C4 C 0.3053 0.11145 0.16888 0.0
O5 O 0.30344 0.15362 0.1954 0.0
H6 H 0.29396 0.07432 0.19431 0.0
C7 C 0.17296 0.20556 0.25101 0.0
C8 C 0.19436 0.23163 0.20499 0.0
C9 C 0.19423 0.16296 0.27944 0.0
C10 C 0.23784 0.14539 0.2595 0.0
C11 C 0.25951 0.16921 0.21287 0.0
C12 C 0.23734 0.21211 0.18622 0.0
H13 H 0.41837 0.99537 0.66911 0.0
H14 H 0.41747 0.87183 0.57968 0.0
H15 H 0.54097 0.89901 0.67504 0.0
H16 H 0.5688 0.86036 0.57472 0.0
C17 C 0.53116 0.83876 0.5713 0.0
O18 O 0.50231 0.83985 0.613 0.0
H19 H 0.51301 0.85776 0.53772 0.0
C20 C 0.43784 0.96588 0.65441 0.0
C21 C 0.48339 0.95206 0.67485 0.0
C22 C 0.41377 0.93717 0.62014 0.0
C23 C 0.43669 0.8958 0.60453 0.0
C24 C 0.48328 0.88331 0.62334 0.0
C25 C 0.50663 0.91136 0.65832 0.0
H26 H 0.78047 0.30902 0.99466 0.0
H27 H 0.67736 0.32364 0.87383 0.0
H28 H 0.79779 0.44392 0.87981 0.0
H29 H 0.70753 0.48802 0.83577 0.0
C30 C 0.68735 0.45094 0.8269 0.0
O31 O 0.7205 0.41281 0.82924 0.0
H32 H 0.65656 0.4384 0.85519 0.0
C33 C 0.76783 0.33085 0.96088 0.0
C34 C 0.79614 0.37795 0.93955 0.0
C35 C 0.72391 0.31116 0.93849 0.0
C36 C 0.70905 0.33913 0.89357 0.0
C37 C 0.73541 0.38692 0.8728 0.0
C38 C 0.77835 0.40651 0.89608 0.0
H39 H 0.91884 0.72177 0.50255 0.0
H40 H 0.97569 0.59964 0.43265 0.0
H41 H 0.07368 0.73592 0.45271 0.0
H42 H 0.12188 0.66237 0.36517 0.0
C43 C 0.08059 0.66322 0.36911 0.0
O44 O 0.06674 0.6466 0.41821 0.0
H45 H 0.07373 0.70505 0.35775 0.0
C46 C 0.94972 0.70581 0.48588 0.0
C47 C 0.99743 0.73471 0.48061 0.0
C48 C 0.94137 0.65699 0.46865 0.0
C49 C 0.9813 0.63715 0.44611 0.0
C50 C 1.02875 0.66561 0.44063 0.0
C51 C 0.0369 0.7139 0.45821 0.0
H52 H 0.82524 0.96096 0.83258 0.0
H53 H 0.83145 0.84275 0.96196 0.0
H54 H 0.94237 0.8559 0.84619 0.0
H55 H 0.89947 0.74783 0.88707 0.0
C56 C 0.90141 0.75176 0.92708 0.0
O57 O 0.91252 0.80449 0.9321 0.0
H58 H 0.86329 0.73794 0.94339 0.0
C59 C 0.84275 0.92863 0.85299 0.0
C60 C 0.88542 0.91022 0.83137 0.0
C61 C 0.82291 0.90563 0.90112 0.0
C62 C 0.84621 0.86248 0.92626 0.0
C63 C 0.88876 0.84423 0.90611 0.0
C64 C 0.90832 0.86898 0.85974 0.0
H65 H 0.68415 0.06724 0.41233 0.0
H66 H 0.55315 0.15025 0.38159 0.0
H67 H 0.65794 0.19506 0.48976 0.0
H68 H 0.5546 0.1908 0.51567 0.0
C69 C 0.54403 0.21758 0.4824 0.0
O70 O 0.57625 0.21714 0.44285 0.0
H71 H 0.50551 0.2036 0.47194 0.0
C72 C 0.65952 0.09582 0.42079 0.0
C73 C 0.67402 0.12775 0.45648 0.0
C74 C 0.61681 0.10429 0.39238 0.0
C75 C 0.58661 0.14314 0.40263 0.0
C76 C 0.60161 0.17574 0.43764 0.0
C77 C 0.64561 0.1685 0.46403 0.0
H78 H 0.33906 0.73212 0.09497 0.0
H79 H 0.31513 0.60885 0.22042 0.0
H80 H 0.44783 0.71678 0.21129 0.0
H81 H 0.44703 0.59004 0.2421 0.0
C82 C 0.41797 0.58985 0.27161 0.0
O83 O 0.39661 0.63682 0.26537 0.0
H84 H 0.3885 0.55717 0.268 0.0
C85 C 0.35176 0.71186 0.12953 0.0
C86 C 0.39691 0.73136 0.15032 0.0
C87 C 0.32171 0.6676 0.15477 0.0
C88 C 0.33761 0.64277 0.20046 0.0
C89 C 0.38291 0.66038 0.2205 0.0
C90 C 0.41275 0.70381 0.19515 0.0
H91 H 0.10558 0.31226 0.72102 0.0
H92 H 0.14389 0.4777 0.66929 0.0
H93 H 0.09774 0.37413 0.56604 0.0
H94 H 0.16292 0.51655 0.51673 0.0
C95 C 0.16631 0.4789 0.54139 0.0
O96 O 0.12779 0.47118 0.57664 0.0
H97 H 0.16127 0.44776 0.51723 0.0
C98 C 0.10981 0.34526 0.69128 0.0
C99 C 0.09939 0.33689 0.64235 0.0
C100 C 0.12514 0.39621 0.70181 0.0
C101 C 0.13228 0.43811 0.66234 0.0
C102 C 0.12223 0.43003 0.6138 0.0
C103 C 0.10501 0.37983 0.60397 0.0
Co104 Co 1.00733 0.04804 0.54047 0.0
C105 C 1.02997 0.94636 0.53328 0.0
Co106 Co 0.07738 0.02824 0.57562 0.0
C107 C 0.90888 0.08327 0.52578 0.0
C108 C 0.94006 0.06018 0.46063 0.0
N109 N 0.94981 0.06465 0.50836 0.0
N110 N 0.87458 0.09104 0.49044 0.0
C111 C 0.8937 0.07654 0.4495 0.0
H112 H 0.90404 0.09041 0.56354 0.0
H113 H 0.96473 0.04516 0.43571 0.0
C114 C 0.05496 0.12906 0.58454 0.0
N115 N 0.13546 1.01123 0.60664 0.0
C116 C 0.17598 0.99467 0.58629 0.0
C117 C 0.14653 1.01189 0.65472 0.0
N118 N 0.21146 0.98467 0.61988 0.0
C119 C 0.19347 0.99534 0.663 0.0
C120 C 0.09339 0.07417 0.47494 0.0
O121 O 1.01717 0.11678 0.55904 0.0
O122 O 0.08611 0.09548 0.59599 0.0
O123 O 0.11623 0.05644 0.51376 0.0
O124 O 0.04585 0.07369 0.47875 0.0
O125 O 0.06889 0.96095 0.5559 0.0
H126 H 0.12218 0.02389 0.68189 0.0
H127 H 0.17941 0.98979 0.54773 0.0
O128 O 0.99753 0.97879 0.52235 0.0
O129 O 0.96862 0.0227 0.60216 0.0
O130 O 0.03808 1.0 0.63691 0.0
C131 C 0.99075 1.00249 0.64041 0.0
H132 H 0.8747 0.07634 0.41463 0.0
H133 H 0.21327 0.99218 0.69758 0.0
Co134 Co 0.54923 0.01864 1.0032 0.0
C135 C 0.5208 0.92474 0.06417 0.0
Co136 Co 0.58799 0.01342 0.07387 0.0
C137 C 0.52656 1.00153 0.90373 0.0
C138 C 0.49205 0.06662 0.92433 0.0
N139 N 0.51943 0.02721 0.94233 0.0
N140 N 0.5055 0.02389 0.86222 0.0
C141 C 0.48303 0.06438 0.87521 0.0
H142 H 0.54862 0.96842 0.90539 0.0
H143 H 0.48114 0.0965 0.94492 0.0
C144 C 0.61445 0.10784 1.01474 0.0
N145 N 0.61812 1.00698 0.13495 0.0
C146 C 0.5951 1.00679 0.17917 0.0
C147 C 0.66767 1.01032 0.14452 0.0
N148 N 0.62808 1.01115 0.21558 0.0
C149 C 0.67387 0.01326 0.19411 0.0
C150 C 0.64496 0.97741 0.99907 0.0
O151 O 0.58242 0.08818 0.98681 0.0
O152 O 0.62395 0.0812 0.05588 0.0
O153 O 0.64374 0.98199 0.04506 0.0
O154 O 0.60702 0.99057 0.97383 0.0
O155 O 0.55194 0.94601 0.09207 0.0
H156 H 0.69743 0.015 0.11668 0.0
H157 H 0.5551 1.00814 0.1842 0.0
O158 O 0.51497 0.94845 1.02048 0.0
O159 O 0.49234 0.04691 0.03238 0.0
O160 O 0.5318 0.04547 0.10178 0.0
C161 C 0.49292 0.05603 0.07699 0.0
H162 H 0.46176 0.09067 0.85103 0.0
H163 H 0.70917 0.02181 0.21188 0.0
Co164 Co 0.591 0.53449 0.5308 0.0
C165 C 0.50988 0.54538 0.46586 0.0
Co166 Co 0.51582 0.51355 0.56697 0.0
C167 C 0.70039 0.54767 0.5065 0.0
C168 C 0.65661 0.5992 0.46033 0.0
N169 N 0.6524 0.55865 0.49798 0.0
N170 N 0.73343 0.57887 0.4744 0.0
C171 C 0.70582 0.6112 0.44552 0.0
H172 H 0.71108 0.51898 0.53657 0.0
H173 H 0.62629 0.6215 0.44676 0.0
C174 C 0.59733 0.50256 0.63172 0.0
N175 N 0.45384 0.49166 0.59837 0.0
C176 C 0.40897 0.50878 0.58556 0.0
C177 C 0.44271 0.44962 0.63369 0.0
N178 N 0.37029 0.47865 0.61083 0.0
C179 C 0.39135 0.44129 0.64114 0.0
C180 C 0.5572 0.4308 0.53186 0.0
O181 O 0.62372 0.51857 0.59235 0.0
O182 O 0.54952 0.49823 0.62886 0.0
O183 O 0.52061 0.44506 0.55461 0.0
O184 O 0.59497 0.46411 0.51791 0.0
O185 O 0.48316 0.52884 0.50477 0.0
H186 H 0.46991 0.42464 0.65065 0.0
H187 H 0.40441 0.54025 0.55554 0.0
O188 O 0.55734 0.5499 0.46944 0.0
O189 O 0.58566 0.6041 0.54359 0.0
O190 O 0.5108 0.5826 0.57842 0.0
C191 C 0.54679 0.61732 0.56364 0.0
H192 H 0.72071 0.64382 0.41805 0.0
H193 H 0.3709 0.40877 0.66506 0.0
Co194 Co 0.08389 0.49984 1.0232 0.0
C195 C 0.98508 0.45009 0.02925 0.0
Co196 Co 0.04328 0.50322 0.09303 0.0
C197 C 0.11217 0.45896 0.93419 0.0
C198 C 0.14064 0.53938 0.93392 0.0
N199 N 0.11469 0.49817 0.96218 0.0
N200 N 0.13495 0.47436 0.88911 0.0
C201 C 0.15309 0.52497 0.88928 0.0
H202 H 0.09326 0.42026 0.94668 0.0
H203 H 0.14824 0.57814 0.94434 0.0
C204 C 0.14107 0.55688 0.0846 0.0
N205 N 1.01327 0.50537 0.15415 0.0
C206 C 1.01795 0.54638 0.17977 0.0
C207 C 0.99328 0.46422 0.18706 0.0
N208 N 1.00303 0.53226 0.22757 0.0
C209 C 0.98763 0.48053 0.23248 0.0
C210 C 0.10245 0.41633 0.09755 0.0
O211 O 0.14202 0.54055 0.04295 0.0
O212 O 0.10169 0.54456 0.11195 0.0
O213 O 0.07247 0.43984 0.12099 0.0
O214 O 0.11245 0.43472 0.05202 0.0
O215 O 0.98458 0.46265 0.0727 0.0
H216 H 0.98744 0.4241 0.17968 0.0
H217 H 0.0367 0.58466 0.16502 0.0
O218 O 1.02557 0.46046 1.00337 0.0
O219 O 0.05472 0.56468 0.99553 0.0
O220 O 1.0146 0.56635 0.06529 0.0
C221 C 1.02454 0.58674 1.02046 0.0
H222 H 0.17192 0.55079 0.85834 0.0
H223 H 0.97656 0.45568 0.26712 0.0
C224 C 0.11717 0.13003 0.33616 0.0
C225 C 0.17013 0.1378 0.32966 0.0
C226 C 0.09335 0.10951 0.38253 0.0
C227 C 0.12081 0.09515 0.42563 0.0
H228 H 0.09345 0.13977 0.30487 0.0
H229 H 0.05263 0.10493 0.38443 0.0
S230 S 0.26044 0.10771 0.43053 0.0
N231 N 0.24925 0.12963 0.37209 0.0
N232 N 0.20483 0.09046 0.45816 0.0
C233 C 0.17381 0.10209 0.41982 0.0
C234 C 0.1982 0.12329 0.37244 0.0
C235 C 0.50107 0.93618 0.76449 0.0
C236 C 0.49953 0.97204 0.72063 0.0
C237 C 0.50472 0.95361 0.81053 0.0
C238 C 0.50691 1.00744 0.81424 0.0
H239 H 0.49629 0.89422 0.76351 0.0
H240 H 0.50324 0.92458 0.84358 0.0
S241 S 0.51265 0.11729 0.70942 0.0
N242 N 0.50594 0.06363 0.68291 0.0
N243 N 0.51409 0.09678 0.7696 0.0
C244 C 0.50886 0.04385 0.77034 0.0
C245 C 0.50488 0.02602 0.72346 0.0
C246 C 0.61349 0.45177 0.76884 0.0
C247 C 0.66556 0.46148 0.77555 0.0
C248 C 0.59201 0.46498 0.72238 0.0
C249 C 0.62165 0.48839 0.68042 0.0
H250 H 0.58892 0.43448 0.79997 0.0
H251 H 0.55168 0.45691 0.71952 0.0
S252 S 0.76039 0.52098 0.67832 0.0
N253 N 0.74639 0.49518 0.73643 0.0
N254 N 0.70655 0.51977 0.64906 0.0
C255 C 0.67402 0.49752 0.68657 0.0
C256 C 0.69578 0.48414 0.73402 0.0
C257 C 0.06786 0.57597 0.3378 0.0
C258 C 0.05459 0.62752 0.33603 0.0
C259 C 0.04869 0.5438 0.30377 0.0
C260 C 1.01591 0.56232 0.2667 0.0
H261 H 0.09462 0.56117 0.3646 0.0
H262 H 0.06142 0.50516 0.30485 0.0
S263 S 0.96514 0.69163 0.24958 0.0
N264 N 1.00289 0.69364 0.29704 0.0
N265 N 0.96802 0.63332 0.23234 0.0
C266 C 1.00065 0.61273 0.26587 0.0
C267 C 1.01958 0.64528 0.30084 0.0
C268 C 0.39611 0.08438 0.17424 0.0
C269 C 0.35764 0.10671 0.14551 0.0
C270 C 0.4402 0.07001 0.15225 0.0
C271 C 0.44803 0.07647 0.1002 0.0
H272 H 0.39111 0.07589 0.21412 0.0
H273 H 0.46748 0.05172 0.17635 0.0
S274 S 0.36157 0.13785 1.00803 0.0
N275 N 0.33303 0.1382 0.06185 0.0
N276 N 0.41427 0.11091 1.02104 0.0
C277 C 0.41082 0.10081 0.07128 0.0
C278 C 0.36637 0.11597 0.09366 0.0
C279 C 0.34829 0.99478 0.58834 0.0
C280 C 0.36096 0.94481 0.60912 0.0
C281 C 0.29832 1.0067 0.58901 0.0
C282 C 0.26014 0.96927 0.61126 0.0
H283 H 0.37749 0.0255 0.57392 0.0
H284 H 0.28978 0.04615 0.5748 0.0
S285 S 0.27299 0.83244 0.66786 0.0
N286 N 0.33077 0.85691 0.64973 0.0
N287 N 0.2369 0.88017 0.6516 0.0
C288 C 0.27179 0.91868 0.62987 0.0
C289 C 0.32235 0.90617 0.62856 0.0
C290 C 0.84932 0.39261 1.01388 0.0
C291 C 0.84482 0.39613 0.96198 0.0
C292 C 0.89477 0.40911 0.03552 0.0
C293 C 0.93793 0.42948 1.0063 0.0
H294 H 0.81719 0.37778 0.0381 0.0
H295 H 0.89593 0.40615 0.07548 0.0
S296 S 0.94614 0.44852 0.86857 0.0
N297 N 0.88827 0.42149 0.88213 0.0
N298 N 0.97244 0.45384 0.92227 0.0
C299 C 0.93392 0.43327 0.95437 0.0
C300 C 0.88781 0.4164 0.93242 0.0
C301 C 0.86208 0.61931 0.51651 0.0
C302 C 0.89014 0.62852 0.47158 0.0
C303 C 0.81148 0.59809 0.51846 0.0
C304 C 0.78734 0.58606 0.47543 0.0
H305 H 0.87888 0.63021 0.54998 0.0
H306 H 0.7902 0.59444 0.55295 0.0
S307 S 0.84467 0.59942 0.34959 0.0
N308 N 0.89055 0.62108 0.38379 0.0
N309 N 0.79565 0.58143 0.38771 0.0
C310 C 0.81568 0.59247 0.43103 0.0
C311 C 0.86704 0.61367 0.42901 0.0
C312 C 0.1676 0.2876 0.12522 0.0
C313 C 0.17216 0.27978 0.17744 0.0
C314 C 0.14574 0.33152 0.09948 0.0
C315 C 0.12676 0.36979 0.12458 0.0
H316 H 0.18031 0.25903 0.10392 0.0
H317 H 0.14295 0.33498 0.0596 0.0
S318 S 0.13477 0.3724 0.26021 0.0
N319 N 0.1599 0.31838 0.25216 0.0
N320 N 0.11777 0.39844 0.20477 0.0
C321 C 0.13217 0.36311 0.17654 0.0
C322 C 0.15497 0.31902 0.20256 0.0
C323 C 0.72019 0.2173 0.98175 0.0
C324 C 0.69482 0.26034 0.96073 0.0
C325 C 0.69385 0.16855 1.00076 0.0
C326 C 0.64122 0.16053 0.99847 0.0
H327 H 0.76086 0.2207 0.98242 0.0
H328 H 0.71495 0.13636 1.01574 0.0
S329 S 0.55599 0.26064 0.95265 0.0
N330 N 0.61291 0.29223 0.94401 0.0
N331 N 0.5642 0.1997 0.97673 0.0
C332 C 0.61519 0.20304 0.97865 0.0
C333 C 0.64175 0.25309 0.96054 0.0
C334 C 0.97241 0.8258 0.48084 0.0
C335 C 1.00551 0.78774 0.49608 0.0
C336 C 0.98059 0.87688 0.49295 0.0
C337 C 1.02218 0.89197 0.52086 0.0
H338 H 0.94041 0.81634 0.45853 0.0
H339 H 0.95421 0.9048 0.47995 0.0
S340 S 0.11819 0.80557 0.57261 0.0
N341 N 0.07998 0.76767 0.54261 0.0
N342 N 0.09581 0.86341 0.56513 0.0
C343 C 0.05513 0.85385 0.53703 0.0
C344 C 0.04671 0.80189 0.52468 0.0
C345 C 0.58213 0.76211 0.56786 0.0
C346 C 0.53513 0.78217 0.56668 0.0
C347 C 0.58562 0.70851 0.56709 0.0
C348 C 0.54217 0.6732 0.56607 0.0
H349 H 0.61635 0.7879 0.56979 0.0
H350 H 0.62255 0.69455 0.56789 0.0
S351 S 0.41038 0.70697 0.56045 0.0
N352 N 0.44454 0.76348 0.5623 0.0
N353 N 0.45083 0.66248 0.56208 0.0
C354 C 0.49498 0.69296 0.56447 0.0
C355 C 0.49155 0.74756 0.56434 0.0
C356 C 0.91453 0.98865 0.76393 0.0
C357 C 0.90804 0.9337 0.78014 0.0
C358 C 0.94033 1.01075 0.71862 0.0
C359 C 0.96148 0.97911 0.6875 0.0
H360 H 0.90088 0.01506 0.78709 0.0
H361 H 0.94481 0.0531 0.70848 0.0
S362 S 0.95003 0.8334 0.70796 0.0
N363 N 0.92076 0.84841 0.75669 0.0
N364 N 0.97068 0.89003 0.67427 0.0
C365 C 0.95397 0.92443 0.70224 0.0
C366 C 0.927 0.90182 0.74759 0.0
C367 C 0.61769 0.02472 0.34976 0.0
C368 C 0.60966 0.07819 0.3476 0.0
C369 C 0.62226 1.00218 0.30644 0.0
C370 C 0.61801 0.03214 0.25984 0.0
H371 H 0.62264 1.00079 0.38512 0.0
H372 H 0.63047 0.96167 0.30917 0.0
S373 S 0.59542 0.17229 0.23299 0.0
N374 N 0.59694 0.1598 0.29402 0.0
N375 N 0.60357 0.11632 0.21318 0.0
C376 C 0.60756 0.08451 0.257 0.0
C377 C 0.60363 0.10779 0.30078 0.0
C378 C 0.41393 0.55115 0.36284 0.0
C379 C 0.44132 0.58069 0.32204 0.0
C380 C 0.43602 0.54054 0.4094 0.0
C381 C 0.48638 0.55898 0.41686 0.0
H382 H 0.37538 0.53549 0.35851 0.0
H383 H 0.41371 0.51689 0.43946 0.0
S384 S 0.57211 0.64304 0.3227 0.0
N385 N 0.51961 0.63181 0.29289 0.0
N386 N 0.56151 0.61162 0.37956 0.0
C387 C 0.51341 0.59011 0.3765 0.0
C388 C 0.49075 0.60119 0.32941 0.0
C389 C 0.17236 0.44163 0.76503 0.0
C390 C 0.13129 0.40741 0.75362 0.0
C391 C 0.17459 0.46062 0.81054 0.0
C392 C 0.13578 0.44653 0.84674 0.0
H393 H 0.20233 0.45531 0.73782 0.0
H394 H 0.2064 0.48802 0.81677 0.0
S395 S 1.02284 0.35246 0.83742 0.0
N396 N 0.05307 0.35622 0.78388 0.0
N397 N 0.05719 0.39165 0.86948 0.0
C398 C 0.09617 0.4093 0.83718 0.0
C399 C 0.09395 0.38987 0.79064 0.0
C400 C 0.73429 0.93788 0.90001 0.0
C401 C 0.77831 0.92585 0.92596 0.0
C402 C 0.69178 0.95384 0.92361 0.0
C403 C 0.69065 0.95903 0.97464 0.0
H404 H 0.73216 0.934 0.8611 0.0
H405 H 0.65932 0.9621 0.90142 0.0
S406 S 0.79743 0.93686 0.0592 0.0
N407 N 0.81842 0.92396 1.00572 0.0
N408 N 0.73967 0.95272 0.04941 0.0
C409 C 0.73481 0.94807 1.00071 0.0
C410 C 0.77799 0.93192 0.97674 0.0
C411 C 0.76244 0.16335 0.46486 0.0
C412 C 0.72342 0.12317 0.479 0.0
C413 C 0.81264 0.15406 0.47267 0.0
C414 C 0.82478 0.10487 0.49562 0.0
H415 H 0.75443 0.20042 0.44381 0.0
H416 H 0.84227 0.18401 0.4577 0.0
S417 S 0.73631 0.98944 0.5448 0.0
N418 N 0.69987 0.03434 0.52092 0.0
N419 N 0.79467 0.01749 0.53639 0.0
C420 C 0.78609 0.06611 0.51371 0.0
C421 C 0.73511 0.07516 0.50522 0.0
C422 C 0.27291 0.62916 0.08783 0.0
C423 C 0.2736 0.64606 0.13451 0.0
C424 C 0.22974 0.60123 0.07162 0.0
C425 C 0.18545 0.5892 0.10139 0.0
H426 H 0.30661 0.63567 0.06452 0.0
H427 H 0.23158 0.58797 0.03588 0.0
S428 S 0.16651 0.62982 0.22484 0.0
N429 N 0.22516 0.65253 0.20867 0.0
N430 N 0.14448 0.60022 0.17872 0.0
C431 C 0.18519 0.608 0.14734 0.0
C432 C 0.22906 0.63634 0.16372 0.0
C433 C 0.23981 0.43219 0.57595 0.0
C434 C 0.21775 0.47953 0.56414 0.0
C435 C 0.28899 0.43194 0.59327 0.0
C436 C 0.31794 0.47905 0.59909 0.0
H437 H 0.21932 0.39526 0.57042 0.0
H438 H 0.30525 0.39488 0.6001 0.0
S439 S 0.27551 0.61258 0.57902 0.0
N440 N 0.22675 0.57404 0.56396 0.0
N441 N 0.31971 0.57359 0.59579 0.0
C442 C 0.29556 0.52631 0.58957 0.0
C443 C 0.24525 0.52652 0.57246 0.0
C444 C 0.93266 0.69358 1.00255 0.0
C445 C 0.93934 0.71583 0.95228 0.0
C446 C 0.9614 0.65351 1.02443 0.0
C447 C 0.99841 0.63346 0.99721 0.0
H448 H 0.90343 0.70576 1.02473 0.0
H449 H 0.95326 0.63698 0.06281 0.0
S450 S 0.03428 0.682 0.86529 0.0
N451 N 0.98867 0.71747 0.87689 0.0
N452 N 0.04224 0.64263 0.91746 0.0
C453 C 1.00712 0.6573 0.94746 0.0
C454 C 0.97792 0.69827 0.92528 0.0
C455 C 0.43907 0.79221 0.07636 0.0
C456 C 0.42655 0.78176 0.12748 0.0
C457 C 0.46917 0.83855 0.05558 0.0
C458 C 0.4883 0.8759 0.08524 0.0
H459 H 0.42635 0.76392 0.05242 0.0
H460 H 0.47829 0.84465 1.01628 0.0
S461 S 0.46038 0.87121 0.21952 0.0
N462 N 0.43114 0.8161 0.20576 0.0
N463 N 0.48825 0.9014 0.16749 0.0
C464 C 0.47455 0.86663 0.13597 0.0
C465 C 0.44361 0.82015 0.15684 0.0
C466 C 0.11468 0.24247 0.64576 0.0
C467 C 0.08463 0.28322 0.6305 0.0
C468 C 0.10438 0.1928 0.6311 0.0
C469 C 0.06339 0.1817 0.60077 0.0
H470 H 0.14735 0.24947 0.668 0.0
H471 H 0.1293 0.16308 0.64324 0.0
S472 S 0.97074 0.27424 0.55422 0.0
N473 N 1.01051 0.3087 0.58592 0.0
N474 N 0.99097 0.21547 0.55825 0.0
C475 C 0.03209 0.22182 0.58653 0.0
C476 C 0.04278 0.27249 0.60136 0.0
C477 C 0.59351 0.3029 0.49571 0.0
C478 C 0.54672 0.27251 0.49531 0.0
C479 C 0.59681 0.35422 0.50726 0.0
C480 C 0.55358 0.37647 0.52006 0.0
H481 H 0.62784 0.28707 0.48658 0.0
H482 H 0.63348 0.37637 0.50656 0.0
S483 S 0.42234 0.3119 0.52706 0.0
N484 N 0.45667 0.26748 0.51041 0.0
N485 N 0.46239 0.36345 0.5326 0.0
C486 C 0.50665 0.34587 0.52096 0.0
C487 C 0.50338 0.29394 0.50872 0.0
loop_
_geom_bond_atom_site_label_1
_geom_bond_atom_site_label_2
_geom_bond_distance
_geom_bond_site_symmetry_2
_ccdc_geom_bond_type
H0 C7 0.929 . S
H1 C10 0.930 . S
H2 C12 0.929 . S
H3 C4 0.969 . S
C4 H3 0.969 . S
C4 O5 1.550 . S
C4 H6 0.973 . S
O5 C4 1.550 . S
O5 C11 1.412 . S
H6 C4 0.973 . S
C7 H0 0.929 . S
C7 C8 1.400 . S
C7 C9 1.364 . S
C8 C7 1.400 . S
C8 C12 1.377 . S
C9 C7 1.364 . S
C9 C10 1.374 . S
C10 H1 0.930 . S
C10 C9 1.374 . S
C10 C11 1.383 . S
C11 O5 1.412 . S
C11 C10 1.383 . S
C11 C12 1.394 . S
C12 H2 0.929 . S
C12 C8 1.377 . S
C12 C11 1.394 . S
H13 C20 0.929 . S
H14 C23 0.930 . S
H15 C25 0.929 . S
H16 C17 0.969 . S
C17 H16 0.969 . S
C17 O18 1.550 . S
C17 H19 0.973 . S
O18 C17 1.550 . S
O18 C24 1.412 . S
H19 C17 0.973 . S
C20 H13 0.929 . S
C20 C21 1.400 . S
C20 C22 1.364 . S
C21 C20 1.400 . S
C21 C25 1.377 . S
C22 C20 1.364 . S
C22 C23 1.374 . S
C23 H14 0.930 . S
C23 C22 1.374 . S
C23 C24 1.383 . S
C24 O18 1.412 . S
C24 C23 1.383 . S
C24 C25 1.394 . S
C25 H15 0.929 . S
C25 C21 1.377 . S
C25 C24 1.394 . S
H26 C33 0.929 . S
H27 C36 0.930 . S
H28 C38 0.929 . S
H29 C30 0.969 . S
C30 H29 0.969 . S
C30 O31 1.550 . S
C30 H32 0.973 . S
O31 C30 1.550 . S
O31 C37 1.412 . S
H32 C30 0.973 . S
C33 H26 0.929 . S
C33 C34 1.400 . S
C33 C35 1.364 . S
C34 C33 1.400 . S
C34 C38 1.377 . S
C35 C33 1.364 . S
C35 C36 1.374 . S
C36 H27 0.930 . S
C36 C35 1.374 . S
C36 C37 1.383 . S
C37 O31 1.412 . S
C37 C36 1.383 . S
C37 C38 1.394 . S
C38 H28 0.929 . S
C38 C34 1.377 . S
C38 C37 1.394 . S
H39 C46 0.929 . S
H40 C49 0.930 . S
H41 C51 0.929 1_455 S
H42 C43 0.969 . S
C43 H42 0.969 . S
C43 O44 1.550 . S
C43 H45 0.973 . S
O44 C43 1.550 . S
O44 C50 1.412 . S
H45 C43 0.973 . S
C46 H39 0.929 . S
C46 C47 1.400 . S
C46 C48 1.364 . S
C47 C46 1.400 . S
C47 C51 1.377 . S
C48 C46 1.364 . S
C48 C49 1.374 . S
C49 H40 0.930 . S
C49 C48 1.374 . S
C49 C50 1.383 . S
C50 O44 1.412 . S
C50 C49 1.383 . S
C50 C51 1.394 . S
C51 H41 0.929 1_655 S
C51 C47 1.377 . S
C51 C50 1.394 . S
H52 C59 0.929 . S
H53 C62 0.930 . S
H54 C64 0.929 . S
H55 C56 0.969 . S
C56 H55 0.969 . S
C56 O57 1.550 . S
C56 H58 0.973 . S
O57 C56 1.550 . S
O57 C63 1.412 . S
H58 C56 0.973 . S
C59 H52 0.929 . S
C59 C60 1.400 . S
C59 C61 1.364 . S
C60 C59 1.400 . S
C60 C64 1.377 . S
C61 C59 1.364 . S
C61 C62 1.374 . S
C62 H53 0.930 . S
C62 C61 1.374 . S
C62 C63 1.383 . S
C63 O57 1.412 . S
C63 C62 1.383 . S
C63 C64 1.394 . S
C64 H54 0.929 . S
C64 C60 1.377 . S
C64 C63 1.394 . S
H65 C72 0.929 . S
H66 C75 0.930 . S
H67 C77 0.929 . S
H68 C69 0.969 . S
C69 H68 0.969 . S
C69 O70 1.550 . S
C69 H71 0.973 . S
O70 C69 1.550 . S
O70 C76 1.412 . S
H71 C69 0.973 . S
C72 H65 0.929 . S
C72 C73 1.400 . S
C72 C74 1.364 . S
C73 C72 1.400 . S
C73 C77 1.377 . S
C74 C72 1.364 . S
C74 C75 1.374 . S
C75 H66 0.930 . S
C75 C74 1.374 . S
C75 C76 1.383 . S
C76 O70 1.412 . S
C76 C75 1.383 . S
C76 C77 1.394 . S
C77 H67 0.929 . S
C77 C73 1.377 . S
C77 C76 1.394 . S
H78 C85 0.929 . S
H79 C88 0.930 . S
H80 C90 0.929 . S
H81 C82 0.969 . S
C82 H81 0.969 . S
C82 O83 1.550 . S
C82 H84 0.973 . S
O83 C82 1.550 . S
O83 C89 1.412 . S
H84 C82 0.973 . S
C85 H78 0.929 . S
C85 C86 1.400 . S
C85 C87 1.364 . S
C86 C85 1.400 . S
C86 C90 1.377 . S
C87 C85 1.364 . S
C87 C88 1.374 . S
C88 H79 0.930 . S
C88 C87 1.374 . S
C88 C89 1.383 . S
C89 O83 1.412 . S
C89 C88 1.383 . S
C89 C90 1.394 . S
C90 H80 0.929 . S
C90 C86 1.377 . S
C90 C89 1.394 . S
H91 C98 0.929 . S
H92 C101 0.930 . S
H93 C103 0.929 . S
H94 C95 0.969 . S
C95 H94 0.969 . S
C95 O96 1.550 . S
C95 H97 0.973 . S
O96 C95 1.550 . S
O96 C102 1.412 . S
H97 C95 0.973 . S
C98 H91 0.929 . S
C98 C99 1.400 . S
C98 C100 1.364 . S
C99 C98 1.400 . S
C99 C103 1.377 . S
C100 C98 1.364 . S
C100 C101 1.374 . S
C101 H92 0.930 . S
C101 C100 1.374 . S
C101 C102 1.383 . S
C102 O96 1.412 . S
C102 C101 1.383 . S
C102 C103 1.394 . S
C103 H93 0.929 . S
C103 C99 1.377 . S
C103 C102 1.394 . S
Co104 N109 2.057 . S
Co104 O121 2.021 . S
Co104 O124 2.062 . S
Co104 O128 2.117 1_545 S
Co104 O129 2.020 . S
C105 O125 1.259 1_655 S
C105 O128 1.258 . S
Co106 N115 2.060 . S
Co106 O122 2.096 1_565 S
Co106 O123 2.013 1_565 S
Co106 O125 2.040 . S
Co106 O130 2.065 . S
C107 N109 1.316 . S
C107 N110 1.347 . S
C107 H112 0.931 . S
C108 N109 1.375 1_565 S
C108 C111 1.350 1_565 S
C108 H113 0.930 . S
N109 Co104 2.057 . S
N109 C107 1.316 . S
N109 C108 1.375 1_545 S
N110 C107 1.347 . S
N110 C111 1.373 . S
C111 C108 1.350 1_545 S
C111 N110 1.373 . S
C111 H132 0.931 1_545 S
H112 C107 0.931 . S
H113 C108 0.930 . S
C114 O121 1.259 1_455 S
C114 O122 1.258 . S
N115 Co106 2.060 . S
N115 C116 1.316 . S
N115 C117 1.375 1_565 S
C116 N115 1.316 . S
C116 N118 1.347 . S
C116 H127 0.931 . S
C117 N115 1.375 1_545 S
C117 C119 1.350 . S
C117 H126 0.930 . S
N118 C116 1.347 . S
N118 C119 1.373 1_565 S
C119 C117 1.350 . S
C119 N118 1.373 1_545 S
C119 H133 0.931 . S
C120 O123 1.256 . S
C120 O124 1.255 1_455 S
O121 Co104 2.021 . S
O121 C114 1.259 1_655 S
O122 Co106 2.096 1_545 S
O122 C114 1.258 . S
O123 Co106 2.013 1_545 S
O123 C120 1.256 . S
O124 Co104 2.062 . S
O124 C120 1.255 1_655 S
O125 C105 1.259 1_455 S
O125 Co106 2.040 . S
H126 C117 0.930 . S
H127 C116 0.931 . S
O128 Co104 2.117 1_565 S
O128 C105 1.258 . S
O129 Co104 2.020 . S
O129 C131 1.256 1_545 S
O130 Co106 2.065 . S
O130 C131 1.255 1_455 S
C131 O129 1.256 1_565 S
C131 O130 1.255 1_655 S
H132 C111 0.931 1_565 S
H133 C119 0.931 . S
Co134 N139 2.057 1_545 S
Co134 O151 2.021 . S
Co134 O154 2.062 1_545 S
Co134 O158 2.117 1_546 S
Co134 O159 2.020 . S
C135 O155 1.259 . S
C135 O158 1.258 . S
Co136 N145 2.057 . S
Co136 O152 2.117 . S
Co136 O153 2.023 . S
Co136 O155 2.021 1_545 S
Co136 O160 2.062 . S
C137 N139 1.316 . S
C137 N140 1.347 . S
C137 H142 0.931 1_565 S
C138 N139 1.375 . S
C138 C141 1.350 . S
C138 H143 0.930 . S
N139 Co134 2.057 1_565 S
N139 C137 1.316 . S
N139 C138 1.375 . S
N140 C137 1.347 . S
N140 C141 1.373 . S
C141 C138 1.350 . S
C141 N140 1.373 . S
C141 H162 0.931 . S
H142 C137 0.931 1_545 S
H143 C138 0.930 . S
C144 O151 1.259 . S
C144 O152 1.258 1_556 S
N145 Co136 2.057 . S
N145 C146 1.316 . S
N145 C147 1.375 . S
C146 N145 1.316 . S
C146 N148 1.347 . S
C146 H157 0.931 . S
C147 N145 1.375 . S
C147 C149 1.350 . S
C147 H156 0.930 . S
N148 C146 1.347 . S
N148 C149 1.373 . S
C149 C147 1.350 . S
C149 N148 1.373 . S
C149 H163 0.931 . S
C150 O153 1.253 1_566 S
C150 O154 1.255 . S
O151 Co134 2.021 . S
O151 C144 1.259 . S
O152 Co136 2.117 . S
O152 C144 1.258 1_554 S
O153 Co136 2.023 . S
O153 C150 1.253 1_544 S
O154 Co134 2.062 1_565 S
O154 C150 1.255 . S
O155 C135 1.259 . S
O155 Co136 2.021 1_565 S
H156 C147 0.930 . S
H157 C146 0.931 . S
O158 Co134 2.117 1_564 S
O158 C135 1.258 . S
O159 Co134 2.020 . S
O159 C161 1.256 1_556 S
O160 Co136 2.062 . S
O160 C161 1.255 . S
C161 O159 1.256 1_554 S
C161 O160 1.255 . S
H162 C141 0.931 . S
H163 C149 0.931 . S
Co164 N169 2.057 . S
Co164 O181 2.021 . S
Co164 O184 2.062 . S
Co164 O188 2.117 . S
Co164 O189 2.020 . S
C165 O185 1.259 . S
C165 O188 1.258 . S
Co166 N175 2.057 . S
Co166 O182 2.117 . S
Co166 O183 2.020 . S
Co166 O185 2.021 . S
Co166 O190 2.062 . S
C167 N169 1.316 . S
C167 N170 1.347 . S
C167 H172 0.931 . S
C168 N169 1.375 . S
C168 C171 1.350 . S
C168 H173 0.930 . S
N169 Co164 2.057 . S
N169 C167 1.316 . S
N169 C168 1.375 . S
N170 C167 1.347 . S
N170 C171 1.373 . S
C171 C168 1.350 . S
C171 N170 1.373 . S
C171 H192 0.931 . S
H172 C167 0.931 . S
H173 C168 0.930 . S
C174 O181 1.259 . S
C174 O182 1.258 . S
N175 Co166 2.057 . S
N175 C176 1.316 . S
N175 C177 1.375 . S
C176 N175 1.316 . S
C176 N178 1.347 . S
C176 H187 0.931 . S
C177 N175 1.375 . S
C177 C179 1.350 . S
C177 H186 0.930 . S
N178 C176 1.347 . S
N178 C179 1.373 . S
C179 C177 1.350 . S
C179 N178 1.373 . S
C179 H193 0.931 . S
C180 O183 1.256 . S
C180 O184 1.255 . S
O181 Co164 2.021 . S
O181 C174 1.259 . S
O182 Co166 2.117 . S
O182 C174 1.258 . S
O183 Co166 2.020 . S
O183 C180 1.256 . S
O184 Co164 2.062 . S
O184 C180 1.255 . S
O185 C165 1.259 . S
O185 Co166 2.021 . S
H186 C177 0.930 . S
H187 C176 0.931 . S
O188 Co164 2.117 . S
O188 C165 1.258 . S
O189 Co164 2.020 . S
O189 C191 1.256 . S
O190 Co166 2.062 . S
O190 C191 1.255 . S
C191 O189 1.256 . S
C191 O190 1.255 . S
H192 C171 0.931 . S
H193 C179 0.931 . S
Co194 N199 2.057 . S
Co194 O211 2.021 . S
Co194 O214 2.062 1_556 S
Co194 O218 2.117 1_455 S
Co194 O219 2.020 . S
C195 O215 1.259 . S
C195 O218 1.258 1_554 S
Co196 N205 2.057 . S
Co196 O212 2.117 . S
Co196 O213 2.020 . S
Co196 O215 2.021 1_455 S
Co196 O220 2.062 1_455 S
C197 N199 1.316 . S
C197 N200 1.347 . S
C197 H202 0.931 . S
C198 N199 1.375 . S
C198 C201 1.350 . S
C198 H203 0.930 1_455 S
N199 Co194 2.057 . S
N199 C197 1.316 . S
N199 C198 1.375 . S
N200 C197 1.347 . S
N200 C201 1.373 . S
C201 C198 1.350 . S
C201 N200 1.373 . S
C201 H222 0.931 . S
H202 C197 0.931 . S
H203 C198 0.930 1_655 S
C204 O211 1.259 1_554 S
C204 O212 1.258 . S
N205 Co196 2.057 . S
N205 C206 1.316 1_455 S
N205 C207 1.375 . S
C206 N205 1.316 1_655 S
C206 N208 1.347 . S
C206 H217 0.931 . S
C207 N205 1.375 . S
C207 C209 1.350 . S
C207 H216 0.930 . S
N208 C206 1.347 . S
N208 C209 1.373 1_655 S
C209 C207 1.350 . S
C209 N208 1.373 1_455 S
C209 H223 0.931 . S
C210 O213 1.256 . S
C210 O214 1.255 . S
O211 Co194 2.021 . S
O211 C204 1.259 1_556 S
O212 Co196 2.117 . S
O212 C204 1.258 . S
O213 Co196 2.020 . S
O213 C210 1.256 . S
O214 Co194 2.062 1_554 S
O214 C210 1.255 . S
O215 C195 1.259 . S
O215 Co196 2.021 1_655 S
H216 C207 0.930 . S
H217 C206 0.931 . S
O218 Co194 2.117 1_655 S
O218 C195 1.258 1_556 S
O219 Co194 2.020 . S
O219 C221 1.256 . S
O220 Co196 2.062 1_655 S
O220 C221 1.255 1_654 S
C221 O219 1.256 . S
C221 O220 1.255 1_456 S
H222 C201 0.931 . S
H223 C209 0.931 . S
C224 C225 1.369 . S
C224 C226 1.419 . S
C224 H228 0.930 . S
C225 C224 1.369 . S
C225 C234 1.429 . S
C226 C224 1.419 . S
C226 C227 1.363 . S
C226 H229 0.929 1_455 S
C227 C226 1.363 . S
C227 C233 1.428 . S
H228 C224 0.930 . S
H229 C226 0.929 1_655 S
S230 N231 1.613 . S
S230 N232 1.610 . S
N231 S230 1.613 . S
N231 C234 1.350 . S
N232 S230 1.610 . S
N232 C233 1.351 . S
C233 C227 1.428 . S
C233 N232 1.351 . S
C233 C234 1.434 . S
C234 C225 1.429 . S
C234 N231 1.350 . S
C234 C233 1.434 . S
C235 C236 1.369 . S
C235 C237 1.419 . S
C235 H239 0.930 . S
C236 C235 1.369 . S
C236 C245 1.429 . S
C237 C235 1.419 . S
C237 C238 1.363 . S
C237 H240 0.929 . S
C238 C237 1.363 . S
C238 C244 1.428 . S
H239 C235 0.930 . S
H240 C237 0.929 . S
S241 N242 1.613 . S
S241 N243 1.610 . S
N242 S241 1.613 . S
N242 C245 1.350 1_545 S
N243 S241 1.610 . S
N243 C244 1.351 1_545 S
C244 C238 1.428 . S
C244 N243 1.351 1_565 S
C244 C245 1.434 . S
C245 C236 1.429 . S
C245 N242 1.350 1_565 S
C245 C244 1.434 . S
C246 C247 1.369 . S
C246 C248 1.419 . S
C246 H250 0.930 . S
C247 C246 1.369 . S
C247 C256 1.429 . S
C248 C246 1.419 . S
C248 C249 1.363 . S
C248 H251 0.929 . S
C249 C248 1.363 . S
C249 C255 1.428 . S
H250 C246 0.930 . S
H251 C248 0.929 . S
S252 N253 1.613 . S
S252 N254 1.610 . S
N253 S252 1.613 . S
N253 C256 1.350 . S
N254 S252 1.610 . S
N254 C255 1.351 . S
C255 C249 1.428 . S
C255 N254 1.351 . S
C255 C256 1.434 . S
C256 C247 1.429 . S
C256 N253 1.350 . S
C256 C255 1.434 . S
C257 C258 1.369 . S
C257 C259 1.419 . S
C257 H261 0.930 . S
C258 C257 1.369 . S
C258 C267 1.429 . S
C259 C257 1.419 . S
C259 C260 1.363 . S
C259 H262 0.929 . S
C260 C259 1.363 . S
C260 C266 1.428 . S
H261 C257 0.930 . S
H262 C259 0.929 . S
S263 N264 1.613 . S
S263 N265 1.610 . S
N264 S263 1.613 . S
N264 C267 1.350 . S
N265 S263 1.610 . S
N265 C266 1.351 . S
C266 C260 1.428 . S
C266 N265 1.351 . S
C266 C267 1.434 . S
C267 C258 1.429 . S
C267 N264 1.350 . S
C267 C266 1.434 . S
C268 C269 1.369 . S
C268 C270 1.419 . S
C268 H272 0.930 . S
C269 C268 1.369 . S
C269 C278 1.429 . S
C270 C268 1.419 . S
C270 C271 1.363 . S
C270 H273 0.929 . S
C271 C270 1.363 . S
C271 C277 1.428 . S
H272 C268 0.930 . S
H273 C270 0.929 . S
S274 N275 1.613 1_566 S
S274 N276 1.610 . S
N275 S274 1.613 1_544 S
N275 C278 1.350 . S
N276 S274 1.610 . S
N276 C277 1.351 1_566 S
C277 C271 1.428 . S
C277 N276 1.351 1_544 S
C277 C278 1.434 . S
C278 C269 1.429 . S
C278 N275 1.350 . S
C278 C277 1.434 . S
C279 C280 1.369 . S
C279 C281 1.419 . S
C279 H283 0.930 . S
C280 C279 1.369 . S
C280 C289 1.429 . S
C281 C279 1.419 . S
C281 C282 1.363 . S
C281 H284 0.929 . S
C282 C281 1.363 . S
C282 C288 1.428 . S
H283 C279 0.930 . S
H284 C281 0.929 . S
S285 N286 1.613 . S
S285 N287 1.610 . S
N286 S285 1.613 . S
N286 C289 1.350 . S
N287 S285 1.610 . S
N287 C288 1.351 . S
C288 C282 1.428 . S
C288 N287 1.351 . S
C288 C289 1.434 . S
C289 C280 1.429 . S
C289 N286 1.350 . S
C289 C288 1.434 . S
C290 C291 1.369 . S
C290 C292 1.419 1_556 S
C290 H294 0.930 1_556 S
C291 C290 1.369 . S
C291 C300 1.429 . S
C292 C290 1.419 1_554 S
C292 C293 1.363 1_554 S
C292 H295 0.929 . S
C293 C292 1.363 1_556 S
C293 C299 1.428 . S
H294 C290 0.930 1_554 S
H295 C292 0.929 . S
S296 N297 1.613 . S
S296 N298 1.610 . S
N297 S296 1.613 . S
N297 C300 1.350 . S
N298 S296 1.610 . S
N298 C299 1.351 . S
C299 C293 1.428 . S
C299 N298 1.351 . S
C299 C300 1.434 . S
C300 C291 1.429 . S
C300 N297 1.350 . S
C300 C299 1.434 . S
C301 C302 1.369 . S
C301 C303 1.419 . S
C301 H305 0.930 . S
C302 C301 1.369 . S
C302 C311 1.429 . S
C303 C301 1.419 . S
C303 C304 1.363 . S
C303 H306 0.929 . S
C304 C303 1.363 . S
C304 C310 1.428 . S
H305 C301 0.930 . S
H306 C303 0.929 . S
S307 N308 1.613 . S
S307 N309 1.610 . S
N308 S307 1.613 . S
N308 C311 1.350 . S
N309 S307 1.610 . S
N309 C310 1.351 . S
C310 C304 1.428 . S
C310 N309 1.351 . S
C310 C311 1.434 . S
C311 C302 1.429 . S
C311 N308 1.350 . S
C311 C310 1.434 . S
C312 C313 1.369 . S
C312 C314 1.419 . S
C312 H316 0.930 . S
C313 C312 1.369 . S
C313 C322 1.429 . S
C314 C312 1.419 . S
C314 C315 1.363 . S
C314 H317 0.929 . S
C315 C314 1.363 . S
C315 C321 1.428 . S
H316 C312 0.930 . S
H317 C314 0.929 . S
S318 N319 1.613 . S
S318 N320 1.610 . S
N319 S318 1.613 . S
N319 C322 1.350 . S
N320 S318 1.610 . S
N320 C321 1.351 . S
C321 C315 1.428 . S
C321 N320 1.351 . S
C321 C322 1.434 . S
C322 C313 1.429 . S
C322 N319 1.350 . S
C322 C321 1.434 . S
C323 C324 1.369 . S
C323 C325 1.419 . S
C323 H327 0.930 . S
C324 C323 1.369 . S
C324 C333 1.429 . S
C325 C323 1.419 . S
C325 C326 1.363 . S
C325 H328 0.929 1_556 S
C326 C325 1.363 . S
C326 C332 1.428 . S
H327 C323 0.930 . S
H328 C325 0.929 1_554 S
S329 N330 1.613 . S
S329 N331 1.610 . S
N330 S329 1.613 . S
N330 C333 1.350 . S
N331 S329 1.610 . S
N331 C332 1.351 . S
C332 C326 1.428 . S
C332 N331 1.351 . S
C332 C333 1.434 . S
C333 C324 1.429 . S
C333 N330 1.350 . S
C333 C332 1.434 . S
C334 C335 1.369 . S
C334 C336 1.419 . S
C334 H338 0.930 . S
C335 C334 1.369 . S
C335 C344 1.429 1_655 S
C336 C334 1.419 . S
C336 C337 1.363 . S
C336 H339 0.929 . S
C337 C336 1.363 . S
C337 C343 1.428 1_655 S
H338 C334 0.930 . S
H339 C336 0.929 . S
S340 N341 1.613 . S
S340 N342 1.610 . S
N341 S340 1.613 . S
N341 C344 1.350 . S
N342 S340 1.610 . S
N342 C343 1.351 . S
C343 C337 1.428 1_455 S
C343 N342 1.351 . S
C343 C344 1.434 . S
C344 C335 1.429 1_455 S
C344 N341 1.350 . S
C344 C343 1.434 . S
C345 C346 1.369 . S
C345 C347 1.419 . S
C345 H349 0.930 . S
C346 C345 1.369 . S
C346 C355 1.429 . S
C347 C345 1.419 . S
C347 C348 1.363 . S
C347 H350 0.929 . S
C348 C347 1.363 . S
C348 C354 1.428 . S
H349 C345 0.930 . S
H350 C347 0.929 . S
S351 N352 1.613 . S
S351 N353 1.610 . S
N352 S351 1.613 . S
N352 C355 1.350 . S
N353 S351 1.610 . S
N353 C354 1.351 . S
C354 C348 1.428 . S
C354 N353 1.351 . S
C354 C355 1.434 . S
C355 C346 1.429 . S
C355 N352 1.350 . S
C355 C354 1.434 . S
C356 C357 1.369 . S
C356 C358 1.419 1_565 S
C356 H360 0.930 1_565 S
C357 C356 1.369 . S
C357 C366 1.429 . S
C358 C356 1.419 1_545 S
C358 C359 1.363 1_545 S
C358 H361 0.929 . S
C359 C358 1.363 1_565 S
C359 C365 1.428 . S
H360 C356 0.930 1_545 S
H361 C358 0.929 . S
S362 N363 1.613 . S
S362 N364 1.610 . S
N363 S362 1.613 . S
N363 C366 1.350 . S
N364 S362 1.610 . S
N364 C365 1.351 . S
C365 C359 1.428 . S
C365 N364 1.351 . S
C365 C366 1.434 . S
C366 C357 1.429 . S
C366 N363 1.350 . S
C366 C365 1.434 . S
C367 C368 1.369 . S
C367 C369 1.419 . S
C367 H371 0.930 . S
C368 C367 1.369 . S
C368 C377 1.429 . S
C369 C367 1.419 . S
C369 C370 1.363 . S
C369 H372 0.929 . S
C370 C369 1.363 . S
C370 C376 1.428 . S
H371 C367 0.930 . S
H372 C369 0.929 . S
S373 N374 1.613 . S
S373 N375 1.610 . S
N374 S373 1.613 . S
N374 C377 1.350 . S
N375 S373 1.610 . S
N375 C376 1.351 . S
C376 C370 1.428 . S
C376 N375 1.351 . S
C376 C377 1.434 . S
C377 C368 1.429 . S
C377 N374 1.350 . S
C377 C376 1.434 . S
C378 C379 1.369 . S
C378 C380 1.419 . S
C378 H382 0.930 . S
C379 C378 1.369 . S
C379 C388 1.429 . S
C380 C378 1.419 . S
C380 C381 1.363 . S
C380 H383 0.929 . S
C381 C380 1.363 . S
C381 C387 1.428 . S
H382 C378 0.930 . S
H383 C380 0.929 . S
S384 N385 1.613 . S
S384 N386 1.610 . S
N385 S384 1.613 . S
N385 C388 1.350 . S
N386 S384 1.610 . S
N386 C387 1.351 . S
C387 C381 1.428 . S
C387 N386 1.351 . S
C387 C388 1.434 . S
C388 C379 1.429 . S
C388 N385 1.350 . S
C388 C387 1.434 . S
C389 C390 1.369 . S
C389 C391 1.419 . S
C389 H393 0.930 . S
C390 C389 1.369 . S
C390 C399 1.429 . S
C391 C389 1.419 . S
C391 C392 1.363 . S
C391 H394 0.929 . S
C392 C391 1.363 . S
C392 C398 1.428 . S
H393 C389 0.930 . S
H394 C391 0.929 . S
S395 N396 1.613 . S
S395 N397 1.620 . S
N396 S395 1.613 . S
N396 C399 1.350 1_655 S
N397 S395 1.620 . S
N397 C398 1.339 1_655 S
C398 C392 1.428 . S
C398 N397 1.339 1_455 S
C398 C399 1.434 . S
C399 C390 1.429 . S
C399 N396 1.350 1_455 S
C399 C398 1.434 . S
C400 C401 1.369 . S
C400 C402 1.419 . S
C400 H404 0.930 . S
C401 C400 1.369 . S
C401 C410 1.429 . S
C402 C400 1.419 . S
C402 C403 1.363 . S
C402 H405 0.929 . S
C403 C402 1.363 . S
C403 C409 1.428 . S
H404 C400 0.930 . S
H405 C402 0.929 . S
S406 N407 1.613 1_545 S
S406 N408 1.610 . S
N407 S406 1.613 1_565 S
N407 C410 1.350 1_554 S
N408 S406 1.610 . S
N408 C409 1.351 1_544 S
C409 C403 1.428 . S
C409 N408 1.351 1_566 S
C409 C410 1.434 . S
C410 C401 1.429 . S
C410 N407 1.350 1_556 S
C410 C409 1.434 . S
C411 C412 1.369 . S
C411 C413 1.419 . S
C411 H415 0.930 . S
C412 C411 1.369 . S
C412 C421 1.429 . S
C413 C411 1.419 . S
C413 C414 1.363 . S
C413 H416 0.929 . S
C414 C413 1.363 . S
C414 C420 1.428 . S
H415 C411 0.930 . S
H416 C413 0.929 . S
S417 N418 1.613 . S
S417 N419 1.610 . S
N418 S417 1.613 . S
N418 C421 1.350 . S
N419 S417 1.610 . S
N419 C420 1.351 . S
C420 C414 1.428 . S
C420 N419 1.351 . S
C420 C421 1.434 . S
C421 C412 1.429 . S
C421 N418 1.350 . S
C421 C420 1.434 . S
C422 C423 1.369 . S
C422 C424 1.419 . S
C422 H426 0.930 . S
C423 C422 1.369 . S
C423 C432 1.429 . S
C424 C422 1.419 . S
C424 C425 1.363 . S
C424 H427 0.929 . S
C425 C424 1.363 . S
C425 C431 1.428 . S
H426 C422 0.930 . S
H427 C424 0.929 . S
S428 N429 1.613 1_556 S
S428 N430 1.610 1_556 S
N429 S428 1.613 1_554 S
N429 C432 1.350 . S
N430 S428 1.610 1_554 S
N430 C431 1.351 . S
C431 C425 1.428 . S
C431 N430 1.351 . S
C431 C432 1.434 . S
C432 C423 1.429 . S
C432 N429 1.350 . S
C432 C431 1.434 . S
C433 C434 1.369 . S
C433 C435 1.419 . S
C433 H437 0.930 . S
C434 C433 1.369 . S
C434 C443 1.429 . S
C435 C433 1.419 . S
C435 C436 1.363 . S
C435 H438 0.929 . S
C436 C435 1.363 . S
C436 C442 1.428 . S
H437 C433 0.930 . S
H438 C435 0.929 . S
S439 N440 1.613 . S
S439 N441 1.610 . S
N440 S439 1.613 . S
N440 C443 1.350 . S
N441 S439 1.610 . S
N441 C442 1.351 . S
C442 C436 1.428 . S
C442 N441 1.351 . S
C442 C443 1.434 . S
C443 C434 1.429 . S
C443 N440 1.350 . S
C443 C442 1.434 . S
C444 C445 1.369 1_554 S
C444 C446 1.419 . S
C444 H448 0.930 . S
C445 C444 1.369 1_556 S
C445 C454 1.429 . S
C446 C444 1.419 . S
C446 C447 1.363 1_554 S
C446 H449 0.929 . S
C447 C446 1.363 1_556 S
C447 C453 1.428 . S
H448 C444 0.930 . S
H449 C446 0.929 . S
S450 N451 1.613 . S
S450 N452 1.610 . S
N451 S450 1.613 . S
N451 C454 1.350 . S
N452 S450 1.610 . S
N452 C453 1.351 . S
C453 C447 1.428 . S
C453 N452 1.351 . S
C453 C454 1.434 . S
C454 C445 1.429 . S
C454 N451 1.350 . S
C454 C453 1.434 . S
C455 C456 1.369 . S
C455 C457 1.419 . S
C455 H459 0.930 . S
C456 C455 1.369 . S
C456 C465 1.429 . S
C457 C455 1.419 . S
C457 C458 1.363 . S
C457 H460 0.929 . S
C458 C457 1.363 . S
C458 C464 1.428 . S
H459 C455 0.930 . S
H460 C457 0.929 . S
S461 N462 1.613 . S
S461 N463 1.610 . S
N462 S461 1.613 . S
N462 C465 1.350 . S
N463 S461 1.610 . S
N463 C464 1.351 . S
C464 C458 1.428 . S
C464 N463 1.351 . S
C464 C465 1.434 . S
C465 C456 1.429 . S
C465 N462 1.350 . S
C465 C464 1.434 . S
C466 C467 1.369 . S
C466 C468 1.419 . S
C466 H470 0.930 . S
C467 C466 1.369 . S
C467 C476 1.429 . S
C468 C466 1.419 . S
C468 C469 1.363 . S
C468 H471 0.929 . S
C469 C468 1.363 . S
C469 C475 1.428 . S
H470 C466 0.930 . S
H471 C468 0.929 . S
S472 N473 1.613 . S
S472 N474 1.610 . S
N473 S472 1.613 . S
N473 C476 1.350 . S
N474 S472 1.610 . S
N474 C475 1.351 . S
C475 C469 1.428 . S
C475 N474 1.351 . S
C475 C476 1.434 . S
C476 C467 1.429 . S
C476 N473 1.350 . S
C476 C475 1.434 . S
C477 C478 1.369 . S
C477 C479 1.419 . S
C477 H481 0.930 . S
C478 C477 1.369 . S
C478 C487 1.429 . S
C479 C477 1.419 . S
C479 C480 1.363 . S
C479 H482 0.929 . S
C480 C479 1.363 . S
C480 C486 1.428 . S
H481 C477 0.930 . S
H482 C479 0.929 . S
S483 N484 1.613 . S
S483 N485 1.610 . S
N484 S483 1.613 . S
N484 C487 1.350 . S
N485 S483 1.610 . S
N485 C486 1.351 . S
C486 C480 1.428 . S
C486 N485 1.351 . S
C486 C487 1.434 . S
C487 C478 1.429 . S
C487 N484 1.350 . S
C487 C486 1.434 . S
C225 C9 2.431 . S
C227 C120 2.449 . S
C236 C21 1.115 . S
C238 N140 1.102 . S
C249 C174 1.756 . S
C247 C30 1.732 . S
C258 C43 1.067 . S
C260 N208 1.125 . S
C271 C161 2.193 . S
C269 C4 2.186 . S
C282 N118 1.481 . S
C280 C22 1.512 . S
C293 C195 1.759 1_556 S
C291 C34 1.750 . S
C304 N170 1.011 . S
C302 C48 0.986 . S
C313 C8 1.835 . S
C315 C210 1.846 . S
C326 C144 1.790 . S
C324 C35 1.777 . S
C335 C47 1.448 . S
C337 C105 1.462 . S
C346 C17 1.263 . S
C348 C191 1.263 . S
C359 C131 2.163 . S
C357 C60 2.132 . S
C368 C74 1.323 . S
C370 N148 1.319 . S
C379 C82 1.606 . S
C381 C165 1.596 . S
C390 C100 1.538 . S
C392 N200 1.433 . S
C401 C61 2.514 . S
C403 C150 2.530 . S
C414 N110 1.149 . S
C412 C73 1.180 . S
C425 C204 2.080 . S
C423 C87 2.075 . S
C436 N178 0.815 . S
C434 C95 0.794 . S
C445 C56 1.794 . S
C447 C221 1.865 1_655 S
C458 C135 1.821 . S
C456 C86 1.780 . S
C469 C114 1.459 . S
C467 C99 1.424 . S
C478 C69 1.348 . S
C480 C180 1.358 . S
