# Generated by pormake.
# Topology apo, (3,6)-cn, num edge types: 1
# Building blocks:
#     Node 0, Type 0, BuildingBlock: CUQRIR_clean_linker_1, # of connection points: 3
#     Node 1, Type 0, BuildingBlock: CUQRIR_clean_linker_1, # of connection points: 3
#     Node 2, Type 0, BuildingBlock: CUQRIR_clean_linker_1, # of connection points: 3
#     Node 3, Type 0, BuildingBlock: CUQRIR_clean_linker_1, # of connection points: 3
#     Node 4, Type 0, BuildingBlock: CUQRIR_clean_linker_1, # of connection points: 3
#     Node 5, Type 0, BuildingBlock: CUQRIR_clean_linker_1, # of connection points: 3
#     Node 6, Type 0, BuildingBlock: CUQRIR_clean_linker_1, # of connection points: 3
#     Node 7, Type 0, BuildingBlock: CUQRIR_clean_linker_1, # of connection points: 3
#     Node 8, Type 1, BuildingBlock: KUMBOL_clean_sbu_1, # of connection points: 6
#     Node 9, Type 1, BuildingBlock: KUMBOL_clean_sbu_1, # of connection points: 6
#     Node 10, Type 1, BuildingBlock: KUMBOL_clean_sbu_1, # of connection points: 6
#     Node 11, Type 1, BuildingBlock: KUMBOL_clean_sbu_1, # of connection points: 6
#     Edge 12, Type (0, 1), BuildingBlock: ZUJKAS_clean_linker_0, # of connection points: 2
#     Edge 13, Type (0, 1), BuildingBlock: ZUJKAS_clean_linker_0, # of connection points: 2
#     Edge 14, Type (0, 1), BuildingBlock: ZUJKAS_clean_linker_0, # of connection points: 2
#     Edge 15, Type (0, 1), BuildingBlock: ZUJKAS_clean_linker_0, # of connection points: 2
#     Edge 16, Type (0, 1), BuildingBlock: ZUJKAS_clean_linker_0, # of connection points: 2
#     Edge 17, Type (0, 1), BuildingBlock: ZUJKAS_clean_linker_0, # of connection points: 2
#     Edge 18, Type (0, 1), BuildingBlock: ZUJKAS_clean_linker_0, # of connection points: 2
#     Edge 19, Type (0, 1), BuildingBlock: ZUJKAS_clean_linker_0, # of connection points: 2
#     Edge 20, Type (0, 1), BuildingBlock: ZUJKAS_clean_linker_0, # of connection points: 2
#     Edge 21, Type (0, 1), BuildingBlock: ZUJKAS_clean_linker_0, # of connection points: 2
#     Edge 22, Type (0, 1), BuildingBlock: ZUJKAS_clean_linker_0, # of connection points: 2
#     Edge 23, Type (0, 1), BuildingBlock: ZUJKAS_clean_linker_0, # of connection points: 2
#     Edge 24, Type (0, 1), BuildingBlock: ZUJKAS_clean_linker_0, # of connection points: 2
#     Edge 25, Type (0, 1), BuildingBlock: ZUJKAS_clean_linker_0, # of connection points: 2
#     Edge 26, Type (0, 1), BuildingBlock: ZUJKAS_clean_linker_0, # of connection points: 2
#     Edge 27, Type (0, 1), BuildingBlock: ZUJKAS_clean_linker_0, # of connection points: 2
#     Edge 28, Type (0, 1), BuildingBlock: ZUJKAS_clean_linker_0, # of connection points: 2
#     Edge 29, Type (0, 1), BuildingBlock: ZUJKAS_clean_linker_0, # of connection points: 2
#     Edge 30, Type (0, 1), BuildingBlock: ZUJKAS_clean_linker_0, # of connection points: 2
#     Edge 31, Type (0, 1), BuildingBlock: ZUJKAS_clean_linker_0, # of connection points: 2
#     Edge 32, Type (0, 1), BuildingBlock: ZUJKAS_clean_linker_0, # of connection points: 2
#     Edge 33, Type (0, 1), BuildingBlock: ZUJKAS_clean_linker_0, # of connection points: 2
#     Edge 34, Type (0, 1), BuildingBlock: ZUJKAS_clean_linker_0, # of connection points: 2
#     Edge 35, Type (0, 1), BuildingBlock: ZUJKAS_clean_linker_0, # of connection points: 2
# Relax obj value: 0.047
# Max RMSD: 0.213
# Mean RMSD: 0.169
data_MOF--net-apo--node1-KUMBOL_clean_sbu_1--node2-CUQRIR_clean_linker_1--edge1-ZUJKAS_clean_linker_0
_symmetry_space_group_name_H-M    P1
_symmetry_Int_Tables_number       1
_symmetry_cell_setting            triclinic
loop_
_symmetry_equiv_pos_as_xyz
'x, y, z'
_cell_length_a     33.854587
_cell_length_b     52.120192
_cell_length_c     60.082774
_cell_angle_alpha  89.966045
_cell_angle_beta   89.954468
_cell_angle_gamma 90.545491
loop_
_atom_site_label
_atom_site_type_symbol
_atom_site_fract_x
_atom_site_fract_y
_atom_site_fract_z
_atom_type_partial_charge
C0 C 0.27573 0.3446 0.43103 0.0
N1 N 0.29612 0.3668 0.43442 0.0
N2 N 0.26295 0.34313 0.40967 0.0
C3 C 0.26699 0.32473 0.44859 0.0
C4 C 0.27597 0.36529 0.40031 0.0
N5 N 0.29576 0.37973 0.41538 0.0
C6 C 0.26957 0.3728 0.3764 0.0
H7 H 0.26461 0.30534 0.44107 0.0
H8 H 0.23831 0.32928 0.45654 0.0
H9 H 0.2898 0.32447 0.46175 0.0
H10 H 0.24228 0.36377 0.36968 0.0
H11 H 0.2951 0.36628 0.36637 0.0
H12 H 0.2675 0.39391 0.37461 0.0
C13 C 0.24691 0.17223 0.92962 0.0
N14 N 0.2253 0.15029 0.93188 0.0
N15 N 0.26204 0.17413 0.90878 0.0
C16 C 0.25605 0.19076 0.94814 0.0
C17 C 0.24904 0.15259 0.89846 0.0
N18 N 0.22712 0.13801 0.91252 0.0
C19 C 0.25532 0.14671 0.87418 0.0
H20 H 0.23238 0.2053 0.94895 0.0
H21 H 0.28456 0.20085 0.94515 0.0
H22 H 0.25736 0.18068 0.96439 0.0
H23 H 0.25977 0.16456 0.86439 0.0
H24 H 0.2298 0.13588 0.86722 0.0
H25 H 0.28203 0.13471 0.87243 0.0
C26 C 0.76978 0.17578 0.6079 0.0
N27 N 0.78975 0.15371 0.60446 0.0
N28 N 0.75601 0.17682 0.62904 0.0
C29 C 0.7611 0.19535 0.59019 0.0
C30 C 0.76813 0.15458 0.63832 0.0
N31 N 0.78817 0.14036 0.62329 0.0
C32 C 0.76324 0.14781 0.66254 0.0
H33 H 0.78617 0.20917 0.5892 0.0
H34 H 0.73385 0.20611 0.59412 0.0
H35 H 0.75767 0.18605 0.57369 0.0
H36 H 0.7365 0.13555 0.66452 0.0
H37 H 0.75966 0.16526 0.67287 0.0
H38 H 0.78908 0.13695 0.66869 0.0
C39 C 0.74045 0.3393 0.10959 0.0
N40 N 0.71953 0.36102 0.10644 0.0
N41 N 0.75754 0.33935 0.12998 0.0
C42 C 0.7464 0.3189 0.09224 0.0
C43 C 0.74639 0.36194 0.13905 0.0
N44 N 0.72375 0.37522 0.12461 0.0
C45 C 0.75494 0.37014 0.1626 0.0
H46 H 0.72174 0.30478 0.09328 0.0
H47 H 0.7746 0.30869 0.09494 0.0
H48 H 0.74641 0.32738 0.07529 0.0
H49 H 0.78294 0.38137 0.16282 0.0
H50 H 0.75826 0.35326 0.17366 0.0
H51 H 0.73115 0.38249 0.16921 0.0
C52 C 0.74702 0.67071 0.6049 0.0
N53 N 0.72274 0.65003 0.60265 0.0
N54 N 0.75112 0.67705 0.62664 0.0
C55 C 0.76445 0.68582 0.5859 0.0
C56 C 0.72846 0.65958 0.63752 0.0
N57 N 0.71088 0.64333 0.62294 0.0
C58 C 0.72584 0.65729 0.66246 0.0
H59 H 0.79242 0.67669 0.58063 0.0
H60 H 0.77106 0.70588 0.59093 0.0
H61 H 0.74404 0.68591 0.57146 0.0
H62 H 0.69917 0.66751 0.66831 0.0
H63 H 0.75213 0.66596 0.67063 0.0
H64 H 0.72314 0.63689 0.66759 0.0
C65 C 0.7741 0.84621 0.10803 0.0
N66 N 0.7961 0.86775 0.10488 0.0
N67 N 0.76093 0.84486 0.12929 0.0
C68 C 0.76447 0.82689 0.09023 0.0
C69 C 0.77579 0.86632 0.13897 0.0
N70 N 0.79693 0.88029 0.1241 0.0
C71 C 0.77246 0.87283 0.16329 0.0
H72 H 0.73642 0.81659 0.094 0.0
H73 H 0.78858 0.81265 0.08941 0.0
H74 H 0.76218 0.83635 0.07373 0.0
H75 H 0.80115 0.86896 0.1715 0.0
H76 H 0.74921 0.86141 0.17181 0.0
H77 H 0.76633 0.89359 0.16527 0.0
C78 C 0.23912 0.83773 0.4266 0.0
N79 N 0.21703 0.8592 0.42858 0.0
N80 N 0.24594 0.8324 0.40492 0.0
C81 C 0.25392 0.82183 0.44572 0.0
C82 C 0.22703 0.85112 0.39373 0.0
N83 N 0.20902 0.86721 0.40808 0.0
C84 C 0.22683 0.85415 0.36881 0.0
H85 H 0.28249 0.82996 0.45154 0.0
H86 H 0.25891 0.8017 0.4406 0.0
H87 H 0.23266 0.82209 0.45978 0.0
H88 H 0.19675 0.84982 0.36245 0.0
H89 H 0.24791 0.84112 0.36051 0.0
H90 H 0.23407 0.87432 0.36432 0.0
C91 C 0.26997 0.67759 0.9281 0.0
N92 N 0.2917 0.65597 0.93014 0.0
N93 N 0.25509 0.67958 0.90725 0.0
C94 C 0.26034 0.69557 0.94688 0.0
C95 C 0.26834 0.6584 0.89671 0.0
N96 N 0.2902 0.64396 0.91065 0.0
C97 C 0.26142 0.65238 0.87252 0.0
H98 H 0.25836 0.68506 0.96291 0.0
H99 H 0.23203 0.70551 0.94382 0.0
H100 H 0.28416 0.71025 0.94824 0.0
H101 H 0.25748 0.6702 0.8627 0.0
H102 H 0.23419 0.6405 0.87102 0.0
H103 H 0.28632 0.64134 0.86545 0.0
C104 C 0.89659 0.07467 0.28485 0.0
C105 C 0.90815 0.03527 0.30514 0.0
C106 C 0.92034 0.06013 0.29866 0.0
C107 C 0.87264 0.02496 0.2968 0.0
C108 C 0.86047 0.06468 0.27685 0.0
C109 C 0.84887 0.03962 0.28267 0.0
N110 N 0.90886 0.09871 0.27928 0.0
C111 C 0.88525 0.11446 0.26705 0.0
C112 C 0.83689 0.08032 0.26346 0.0
C113 C 0.84917 0.10541 0.25873 0.0
Gd114 Gd 0.05621 0.11697 0.24684 0.0
Gd115 Gd 0.96953 0.11245 0.29415 0.0
N116 N 0.9546 0.07061 0.30638 0.0
C117 C 0.93155 0.02176 0.32024 0.0
C118 C 0.97608 0.05818 0.32219 0.0
C119 C 0.96528 0.03348 0.32909 0.0
H120 H 0.00077 0.06761 0.33012 0.0
H121 H 0.98246 0.02375 0.34161 0.0
H122 H 0.04294 0.1747 0.22509 0.0
H123 H 0.89433 0.13399 0.26369 0.0
H124 H 0.07626 0.21733 0.225 0.0
H125 H 0.92313 1.00267 0.32574 0.0
H126 H 0.86297 1.00582 0.30147 0.0
H127 H 0.12472 0.07521 0.2666 0.0
H128 H 0.8089 0.07336 0.257 0.0
H129 H 0.83078 0.11781 0.24877 0.0
H130 H 0.19209 0.20477 0.26981 0.0
H131 H 0.82132 0.03154 0.27659 0.0
H132 H 0.21994 0.11924 0.29398 0.0
H133 H 0.18744 0.0773 0.28707 0.0
N134 N 0.11857 0.11582 0.26439 0.0
C135 C 0.13749 0.13885 0.26649 0.0
C136 C 0.13717 0.09377 0.27055 0.0
C137 C 0.19168 0.11852 0.28553 0.0
C138 C 0.17337 0.09482 0.28173 0.0
C139 C 0.17435 0.14086 0.27732 0.0
H140 H 0.22143 0.16682 0.28742 0.0
N141 N 0.0858 0.15769 0.24607 0.0
C142 C 0.12109 0.1603 0.25659 0.0
C143 C 0.12423 0.20497 0.2459 0.0
C144 C 0.1409 0.18419 0.2572 0.0
C145 C 0.07025 0.17747 0.23415 0.0
C146 C 0.08902 0.2015 0.23408 0.0
O147 O 0.95935 0.09385 0.26034 0.0
O148 O 0.02066 0.08041 0.24867 0.0
O149 O 0.04493 0.11997 0.21132 0.0
O150 O 0.10052 0.10518 0.22287 0.0
O151 O 0.02997 0.09665 0.30216 0.0
O152 O 0.0554 0.08148 0.26903 0.0
O153 O 0.04441 0.14982 0.27057 0.0
O154 O 0.02955 0.12867 0.30267 0.0
O155 O 0.9517 0.11225 0.3288 0.0
O156 O 0.93761 0.1448 0.30814 0.0
O157 O 0.99594 0.13236 0.23803 0.0
O158 O 0.96786 0.14669 0.27104 0.0
C159 C 0.982 0.07878 0.24842 0.0
C160 C 0.05103 0.08006 0.29083 0.0
C161 C 0.07697 0.09007 0.1883 0.0
C162 C 0.08647 0.07802 0.14929 0.0
C163 C 0.06568 0.0461 0.17672 0.0
C164 C 0.06644 0.06468 0.19344 0.0
C165 C 0.07574 0.05262 0.15484 0.0
C166 C 0.08662 0.0967 0.16629 0.0
C167 C 0.07845 0.10989 0.20568 0.0
C168 C 0.1767 0.18649 0.26884 0.0
C169 C 0.19334 0.16488 0.27892 0.0
H170 H 0.13857 0.22365 0.24595 0.0
C171 C 0.04583 0.14815 0.2923 0.0
C172 C 0.97217 0.14758 0.24921 0.0
C173 C 0.89383 0.13411 0.33797 0.0
C174 C 0.85412 0.13141 0.37193 0.0
C175 C 0.8223 0.13286 0.33564 0.0
C176 C 0.85915 0.13422 0.32522 0.0
C177 C 0.81972 0.13135 0.35883 0.0
C178 C 0.89113 0.13289 0.3613 0.0
C179 C 0.9332 0.13388 0.32753 0.0
H180 H 0.05771 0.02649 0.18077 0.0
H181 H 0.05895 0.05926 0.21034 0.0
H182 H 0.07585 0.0376 0.14241 0.0
H183 H 0.09408 0.11648 0.16247 0.0
H184 H 0.79564 0.13291 0.32572 0.0
H185 H 0.86045 0.13521 0.30726 0.0
H186 H 0.79079 0.13046 0.36653 0.0
H187 H 0.91795 0.13248 0.37115 0.0
C188 C 0.63164 0.42371 0.76682 0.0
C189 C 0.63956 0.46935 0.7737 0.0
C190 C 0.61775 0.44633 0.77588 0.0
C191 C 0.67466 0.46955 0.76123 0.0
C192 C 0.66795 0.42354 0.7553 0.0
C193 C 0.68879 0.44669 0.752 0.0
N194 N 0.61111 0.40161 0.7707 0.0
C195 C 0.62755 0.37849 0.76574 0.0
C196 C 0.683 0.39998 0.74826 0.0
C197 C 0.66309 0.37731 0.75392 0.0
Gd198 Gd 0.45845 0.40299 0.74551 0.0
Gd199 Gd 0.55 0.40609 0.78905 0.0
N200 N 0.5834 0.4456 0.78752 0.0
C201 C 0.62585 0.49132 0.78459 0.0
C202 C 0.57091 0.46651 0.79916 0.0
C203 C 0.59171 0.48977 0.79766 0.0
H204 H 0.54441 0.46525 0.80917 0.0
H205 H 0.58132 0.5065 0.80649 0.0
H206 H 0.48528 0.35591 0.7097 0.0
H207 H 0.6137 0.36085 0.77118 0.0
H208 H 0.47004 0.31021 0.7035 0.0
H209 H 0.64182 0.50938 0.78337 0.0
H210 H 0.6916 0.48712 0.75909 0.0
H211 H 0.38387 0.4265 0.77475 0.0
H212 H 0.7108 0.39901 0.73936 0.0
H213 H 0.67545 0.35891 0.74956 0.0
H214 H 0.35888 0.29338 0.75111 0.0
H215 H 0.71651 0.44698 0.74298 0.0
H216 H 0.3034 0.36489 0.79004 0.0
H217 H 0.32235 0.41079 0.79283 0.0
N218 N 0.39931 0.38978 0.76238 0.0
C219 C 0.3884 0.36487 0.75961 0.0
C220 C 0.37553 0.40648 0.77346 0.0
C221 C 0.33019 0.37171 0.78203 0.0
C222 C 0.3408 0.39765 0.78366 0.0
C223 C 0.35388 0.355 0.76971 0.0
H224 H 0.31785 0.32091 0.77485 0.0
N225 N 0.44348 0.36009 0.73592 0.0
C226 C 0.41164 0.34943 0.74632 0.0
C227 C 0.42303 0.30911 0.72768 0.0
C228 C 0.40079 0.32358 0.74268 0.0
C229 C 0.46298 0.3467 0.71983 0.0
C230 C 0.45378 0.32089 0.71589 0.0
O231 O 0.53851 0.43866 0.76473 0.0
O232 O 0.51792 0.41701 0.7339 0.0
O233 O 0.42831 0.40158 0.71329 0.0
O234 O 0.43194 0.43748 0.7321 0.0
O235 O 0.49366 0.42499 0.80016 0.0
O236 O 0.46034 0.43791 0.7682 0.0
O237 O 0.45175 0.38891 0.78106 0.0
O238 O 0.51137 0.37059 0.78826 0.0
O239 O 0.54085 0.40964 0.8247 0.0
O240 O 0.59492 0.39343 0.81231 0.0
O241 O 0.51685 0.38555 0.73492 0.0
O242 O 0.54416 0.37042 0.76754 0.0
C243 C 0.53628 0.43652 0.74301 0.0
C244 C 0.46876 0.44002 0.78962 0.0
C245 C 0.39737 0.43923 0.69666 0.0
C246 C 0.37243 0.44188 0.6585 0.0
C247 C 0.35768 0.4755 0.68523 0.0
C248 C 0.37913 0.46265 0.70153 0.0
C249 C 0.35425 0.46522 0.66389 0.0
C250 C 0.39408 0.42893 0.67504 0.0
C251 C 0.41967 0.42582 0.71421 0.0
C252 C 0.3674 0.31328 0.7535 0.0
C253 C 0.34396 0.32897 0.76697 0.0
H254 H 0.4157 0.28918 0.72443 0.0
C255 C 0.47282 0.37087 0.79036 0.0
C256 C 0.5392 0.3692 0.74582 0.0
C257 C 0.57037 0.37769 0.8464 0.0
C258 C 0.57698 0.36334 0.88495 0.0
C259 C 0.55361 0.33383 0.85627 0.0
C260 C 0.55705 0.35314 0.84028 0.0
C261 C 0.5636 0.33879 0.87842 0.0
C262 C 0.58009 0.38276 0.86868 0.0
C263 C 0.57363 0.39828 0.8298 0.0
H264 H 0.3437 0.49354 0.68915 0.0
H265 H 0.38122 0.471 0.718 0.0
H266 H 0.33779 0.47573 0.65147 0.0
H267 H 0.40807 0.41087 0.67111 0.0
H268 H 0.54341 0.31488 0.85145 0.0
H269 H 0.54946 0.34893 0.82316 0.0
H270 H 0.56145 0.32326 0.89035 0.0
H271 H 0.58968 0.40193 0.87332 0.0
C272 C 0.87975 0.87203 0.77308 0.0
C273 C 0.88696 0.82926 0.78834 0.0
C274 C 0.90141 0.85453 0.78541 0.0
C275 C 0.85163 0.82162 0.77794 0.0
C276 C 0.84387 0.86458 0.76296 0.0
C277 C 0.83015 0.83922 0.76528 0.0
N278 N 0.89406 0.89633 0.77074 0.0
C279 C 0.8735 0.91438 0.75921 0.0
C280 C 0.8229 0.88286 0.75076 0.0
C281 C 0.8377 0.90789 0.74897 0.0
Gd282 Gd 0.04995 0.90199 0.74758 0.0
Gd283 Gd 0.95436 0.90547 0.78819 0.0
N284 N 0.93552 0.86251 0.79536 0.0
C285 C 0.9077 0.81266 0.80229 0.0
C286 C 0.95328 0.84718 0.81078 0.0
C287 C 0.94052 0.82185 0.81393 0.0
H288 H 0.97653 0.85447 0.8213 0.0
H289 H 0.95547 0.80963 0.82575 0.0
H290 H 0.03925 0.96518 0.73655 0.0
H291 H 0.88488 0.93374 0.75787 0.0
H292 H 0.07734 1.00521 0.74115 0.0
H293 H 0.89757 0.79312 0.80497 0.0
H294 H 0.84029 0.80223 0.7799 0.0
H295 H 0.10938 0.85472 0.76376 0.0
H296 H 0.79523 0.87786 0.74273 0.0
H297 H 0.82158 0.92219 0.73969 0.0
H298 H 0.20048 0.97819 0.77251 0.0
H299 H 0.80277 0.83309 0.75751 0.0
H300 H 0.21852 0.88832 0.7857 0.0
H301 H 0.17621 0.84995 0.77977 0.0
N302 N 0.11344 0.89529 0.76166 0.0
C303 C 0.13635 0.91661 0.76446 0.0
C304 C 0.12735 0.87156 0.76682 0.0
C305 C 0.18912 0.89052 0.77889 0.0
C306 C 0.16529 0.86881 0.77562 0.0
C307 C 0.17484 0.91479 0.77321 0.0
H308 H 0.22734 0.93615 0.78284 0.0
N309 N 0.0834 0.94159 0.7508 0.0
C310 C 0.12107 0.94043 0.75873 0.0
C311 C 0.12787 0.98643 0.7553 0.0
C312 C 0.14409 0.96288 0.76145 0.0
C313 C 0.06806 0.96437 0.74397 0.0
C314 C 0.08984 0.98714 0.74635 0.0
O315 O 0.94822 0.88944 0.75322 0.0
O316 O 0.00673 0.86873 0.74773 0.0
O317 O 0.04553 0.90789 0.71189 0.0
O318 O 0.09009 0.88263 0.72493 0.0
O319 O 0.01095 0.88682 0.8006 0.0
O320 O 0.03668 0.8678 0.76921 0.0
O321 O 0.05722 0.92199 0.78098 0.0
O322 O 0.99645 0.93903 0.78839 0.0
O323 O 0.94643 0.90709 0.82458 0.0
O324 O 0.9088 0.92921 0.8023 0.0
O325 O 0.99791 0.92505 0.7354 0.0
O326 O 0.96137 0.93979 0.76551 0.0
C327 C 0.96859 0.87078 0.74433 0.0
C328 C 0.03294 0.86923 0.79095 0.0
C329 C 0.10544 0.90594 0.69216 0.0
C330 C 0.12897 0.91439 0.65444 0.0
C331 C 0.16043 0.93537 0.68591 0.0
C332 C 0.13469 0.92264 0.7004 0.0
C333 C 0.15744 0.93145 0.66302 0.0
C334 C 0.10299 0.90157 0.66909 0.0
C335 C 0.07633 0.89404 0.70733 0.0
C336 C 0.18242 0.96112 0.77022 0.0
C337 C 0.19773 0.93717 0.7761 0.0
H338 H 0.1446 1.00413 0.75714 0.0
C339 C 0.03457 0.93813 0.79174 0.0
C340 C 0.97181 0.94058 0.74435 0.0
C341 C 0.89581 0.93446 0.84163 0.0
C342 C 0.88053 0.93689 0.8814 0.0
C343 C 0.85179 0.96736 0.85553 0.0
C344 C 0.87134 0.95567 0.83789 0.0
C345 C 0.85637 0.95814 0.87712 0.0
C346 C 0.90015 0.92498 0.86348 0.0
C347 C 0.9176 0.9233 0.82267 0.0
H348 H 0.18275 0.94831 0.69245 0.0
H349 H 0.13762 0.92594 0.71798 0.0
H350 H 0.17778 0.94141 0.652 0.0
H351 H 0.08063 0.88861 0.66254 0.0
H352 H 0.83304 0.98369 0.85245 0.0
H353 H 0.86757 0.96346 0.82132 0.0
H354 H 0.84048 0.96742 0.89049 0.0
H355 H 0.91904 0.9087 0.86659 0.0
C356 C 0.64063 0.63794 0.2681 0.0
C357 C 0.63837 0.68417 0.27282 0.0
C358 C 0.62093 0.65967 0.27551 0.0
C359 C 0.67535 0.68656 0.26237 0.0
C360 C 0.67778 0.64028 0.25763 0.0
C361 C 0.695 0.66469 0.25481 0.0
N362 N 0.6227 0.61462 0.27033 0.0
C363 C 0.64059 0.59284 0.26306 0.0
C364 C 0.69622 0.61803 0.24996 0.0
C365 C 0.67758 0.59421 0.25274 0.0
Gd366 Gd 0.46417 0.61317 0.24722 0.0
Gd367 Gd 0.56038 0.61436 0.28715 0.0
N368 N 0.58447 0.65687 0.28492 0.0
C369 C 0.61816 0.70558 0.28076 0.0
C370 C 0.56601 0.67753 0.29402 0.0
C371 C 0.58212 0.70219 0.2917 0.0
H372 H 0.53949 0.67524 0.30365 0.0
H373 H 0.56696 0.71854 0.29864 0.0
H374 H 0.48039 0.55051 0.23589 0.0
H375 H 0.62653 0.57437 0.26545 0.0
H376 H 0.44804 0.50884 0.24275 0.0
H377 H 0.63054 0.72473 0.27899 0.0
H378 H 0.68903 0.70525 0.26004 0.0
H379 H 0.39987 0.65771 0.26318 0.0
H380 H 0.72477 0.61903 0.24182 0.0
H381 H 0.69168 0.5769 0.24694 0.0
H382 H 0.32507 0.53045 0.27744 0.0
H383 H 0.72343 0.66687 0.2467 0.0
H384 H 0.2968 0.6195 0.28867 0.0
H385 H 0.33367 0.65965 0.28049 0.0
N386 N 0.40079 0.61704 0.26237 0.0
C387 C 0.3807 0.59475 0.26619 0.0
C388 C 0.38427 0.64014 0.26713 0.0
C389 C 0.32591 0.61856 0.28122 0.0
C390 C 0.34668 0.64127 0.27671 0.0
C391 C 0.34277 0.59491 0.27587 0.0
H392 H 0.29387 0.5713 0.28745 0.0
N393 N 0.43534 0.57217 0.25153 0.0
C394 C 0.39835 0.57166 0.2605 0.0
C395 C 0.3969 0.52539 0.25827 0.0
C396 C 0.3784 0.54822 0.26439 0.0
C397 C 0.45259 0.55007 0.2445 0.0
C398 C 0.43394 0.52636 0.24805 0.0
O399 O 0.56525 0.62924 0.25175 0.0
O400 O 0.50516 0.64751 0.24497 0.0
O401 O 0.46448 0.60439 0.21184 0.0
O402 O 0.4234 0.63212 0.22482 0.0
O403 O 0.50436 0.63386 0.29896 0.0
O404 O 0.47473 0.64911 0.26705 0.0
O405 O 0.45895 0.59633 0.28207 0.0
O406 O 0.52014 0.57984 0.28983 0.0
O407 O 0.56459 0.6222 0.32264 0.0
O408 O 0.60492 0.5957 0.30728 0.0
O409 O 0.51892 0.59215 0.23591 0.0
O410 O 0.5517 0.57792 0.26741 0.0
C411 C 0.5435 0.64655 0.2419 0.0
C412 C 0.47954 0.64926 0.28875 0.0
C413 C 0.4031 0.60783 0.19356 0.0
C414 C 0.37482 0.59984 0.1567 0.0
C415 C 0.34182 0.58371 0.18999 0.0
C416 C 0.37145 0.59437 0.20327 0.0
C417 C 0.34335 0.58644 0.16691 0.0
C418 C 0.40474 0.6105 0.17028 0.0
C419 C 0.43458 0.61912 0.20747 0.0
C420 C 0.34075 0.5483 0.27423 0.0
C421 C 0.32298 0.57157 0.27993 0.0
H422 H 0.3826 0.50697 0.26103 0.0
C423 C 0.48172 0.58008 0.2926 0.0
C424 C 0.54406 0.57682 0.24592 0.0
C425 C 0.58639 0.58763 0.34455 0.0
C426 C 0.59155 0.5781 0.38435 0.0
C427 C 0.56393 0.54643 0.35875 0.0
C428 C 0.56983 0.56323 0.34095 0.0
C429 C 0.5748 0.55371 0.38027 0.0
C430 C 0.59705 0.59504 0.36624 0.0
C431 C 0.59243 0.60554 0.32586 0.0
H432 H 0.31738 0.57347 0.19765 0.0
H433 H 0.36944 0.59223 0.22107 0.0
H434 H 0.31942 0.57843 0.15709 0.0
H435 H 0.42943 0.62072 0.16279 0.0
H436 H 0.55121 0.5276 0.35582 0.0
H437 H 0.56175 0.55715 0.32436 0.0
H438 H 0.5707 0.54 0.39365 0.0
H439 H 0.60931 0.61406 0.36896 0.0
H440 H 0.14169 0.87055 0.38492 0.0
H441 H 0.11548 0.90938 0.36739 0.0
H442 H 0.20617 0.95474 0.39953 0.0
H443 H 0.23259 0.91559 0.41681 0.0
H444 H 0.08861 0.95668 0.38369 0.0
H445 H 0.22447 0.9673 0.33228 0.0
H446 H 0.21306 0.93847 0.34776 0.0
H447 H 0.23225 0.96629 0.36186 0.0
C448 C 0.15533 0.88896 0.38852 0.0
C449 C 0.18902 0.89035 0.40202 0.0
C450 C 0.14053 0.91104 0.37852 0.0
C451 C 0.15941 0.93482 0.3818 0.0
C452 C 0.19163 0.93648 0.39648 0.0
H453 H 0.07573 0.08189 0.33388 0.0
H454 H 0.10347 0.04702 0.356 0.0
C455 C 0.20638 0.91431 0.40653 0.0
C456 C 0.14646 0.95741 0.36884 0.0
H457 H 0.17536 0.99877 0.32761 0.0
C458 C 0.10766 0.96604 0.37158 0.0
C459 C 0.17116 0.96915 0.35267 0.0
C460 C 0.21246 0.95977 0.34824 0.0
C461 C 0.09296 0.98627 0.35868 0.0
C462 C 0.11782 0.99826 0.34279 0.0
C463 C 0.15656 0.9896 0.33995 0.0
C464 C 0.10373 0.01975 0.32891 0.0
C465 C 0.0505 0.9941 0.36145 0.0
C466 C 0.0959 0.01612 0.30618 0.0
C467 C 0.07989 0.03601 0.29348 0.0
C468 C 0.07158 0.05977 0.30338 0.0
C469 C 0.08123 0.06364 0.3259 0.0
C470 C 0.09706 0.04378 0.33856 0.0
H471 H 0.03401 0.98124 0.373 0.0
H472 H 0.04921 0.01397 0.36802 0.0
H473 H 0.03557 0.99384 0.34501 0.0
H474 H 0.10113 0.99768 0.29845 0.0
H475 H 0.07284 0.03254 0.27615 0.0
H476 H 0.25865 0.59696 0.90622 0.0
H477 H 0.29029 0.55965 0.88905 0.0
H478 H 0.39811 0.60376 0.88148 0.0
H479 H 0.36666 0.64041 0.89977 0.0
H480 H 0.31426 0.55668 0.84842 0.0
H481 H 0.44353 0.53797 0.90193 0.0
H482 H 0.40427 0.55898 0.91042 0.0
H483 H 0.44324 0.57058 0.89249 0.0
C484 C 0.28955 0.59811 0.90161 0.0
C485 C 0.31075 0.62104 0.90465 0.0
C486 C 0.30752 0.57701 0.89164 0.0
C487 C 0.34683 0.57869 0.88415 0.0
C488 C 0.36824 0.6016 0.88769 0.0
H489 H 0.43819 0.48556 0.77521 0.0
H490 H 0.40839 0.51923 0.79798 0.0
C491 C 0.35039 0.62253 0.89807 0.0
C492 C 0.36396 0.55745 0.87082 0.0
H493 H 0.44498 0.51945 0.86543 0.0
C494 C 0.34268 0.54836 0.85231 0.0
C495 C 0.40087 0.54637 0.87593 0.0
C496 C 0.42406 0.5538 0.89641 0.0
C497 C 0.35735 0.52877 0.83867 0.0
C498 C 0.39515 0.5186 0.84312 0.0
C499 C 0.41623 0.52745 0.8618 0.0
C500 C 0.41302 0.4983 0.82904 0.0
C501 C 0.33166 0.51882 0.81999 0.0
C502 C 0.4267 0.47565 0.83892 0.0
C503 C 0.44454 0.45673 0.82604 0.0
C504 C 0.44877 0.45991 0.80292 0.0
C505 C 0.43485 0.48246 0.79294 0.0
C506 C 0.41761 0.50164 0.80594 0.0
H507 H 0.29991 0.52258 0.82319 0.0
H508 H 0.33988 0.5288 0.80432 0.0
H509 H 0.33544 0.49788 0.81754 0.0
H510 H 0.42355 0.47258 0.85667 0.0
H511 H 0.45484 0.43951 0.83421 0.0
H512 H 0.64261 0.64245 0.64574 0.0
H513 H 0.61036 0.6044 0.66206 0.0
H514 H 0.69585 0.55598 0.62993 0.0
H515 H 0.72809 0.59421 0.61369 0.0
H516 H 0.57992 0.55539 0.6427 0.0
H517 H 0.70906 0.54554 0.69935 0.0
H518 H 0.69941 0.57471 0.68416 0.0
H519 H 0.71934 0.54743 0.67 0.0
C520 C 0.65376 0.62358 0.64183 0.0
C521 C 0.68771 0.62102 0.62865 0.0
C522 C 0.63547 0.60194 0.65109 0.0
C523 C 0.65109 0.57747 0.64741 0.0
C524 C 0.68359 0.57475 0.63309 0.0
H525 H 0.55427 0.43289 0.69885 0.0
H526 H 0.582 0.46636 0.67467 0.0
C527 C 0.70176 0.59644 0.62371 0.0
C528 C 0.6354 0.55528 0.66014 0.0
H529 H 0.65713 0.5156 0.70362 0.0
C530 C 0.59685 0.54649 0.65588 0.0
C531 C 0.65746 0.54406 0.67754 0.0
C532 C 0.69853 0.55343 0.68325 0.0
C533 C 0.57973 0.52669 0.66864 0.0
C534 C 0.60185 0.51545 0.686 0.0
C535 C 0.64041 0.52421 0.69021 0.0
C536 C 0.585 0.49517 0.70052 0.0
C537 C 0.53777 0.51837 0.6639 0.0
C538 C 0.57796 0.50024 0.7231 0.0
C539 C 0.56187 0.48124 0.7369 0.0
C540 C 0.55324 0.4567 0.72847 0.0
C541 C 0.56052 0.45165 0.70584 0.0
C542 C 0.57632 0.47072 0.69199 0.0
H543 H 0.52246 0.53198 0.65266 0.0
H544 H 0.53789 0.49923 0.65582 0.0
H545 H 0.52068 0.51663 0.67962 0.0
H546 H 0.58442 0.51903 0.72997 0.0
H547 H 0.55566 0.48591 0.75407 0.0
H548 H 0.86717 0.88037 0.14439 0.0
H549 H 0.90069 0.91768 0.16101 0.0
H550 H 0.81277 0.96735 0.13257 0.0
H551 H 0.77841 0.92971 0.11695 0.0
H552 H 0.93361 0.96233 0.14697 0.0
H553 H 0.80034 0.98173 0.19802 0.0
H554 H 0.80515 0.9531 0.18147 0.0
H555 H 0.79188 0.98296 0.16856 0.0
C556 C 0.8558 0.8994 0.14132 0.0
C557 C 0.82072 0.90244 0.12928 0.0
C558 C 0.87475 0.92065 0.15081 0.0
C559 C 0.85883 0.94529 0.14841 0.0
C560 C 0.82515 0.94849 0.13505 0.0
H561 H 0.98275 0.08056 0.20338 0.0
H562 H 0.95277 0.04958 0.17748 0.0
C563 C 0.80591 0.92713 0.12581 0.0
C564 C 0.87586 0.96706 0.16133 0.0
H565 H 0.85421 0.01017 0.20227 0.0
C566 C 0.91623 0.97293 0.15897 0.0
C567 C 0.85328 0.98056 0.17728 0.0
C568 C 0.81037 0.97417 0.1817 0.0
C569 C 0.93473 0.99169 0.17227 0.0
C570 C 0.91199 1.0054 0.188 0.0
C571 C 0.87153 0.99978 0.19011 0.0
C572 C 0.92984 0.02458 0.20337 0.0
C573 C 0.97873 0.99586 0.16999 0.0
C574 C 0.926 0.02128 0.2265 0.0
C575 C 0.94276 0.03906 0.24119 0.0
C576 C 0.96347 0.06045 0.23302 0.0
C577 C 0.9671 0.06399 0.20996 0.0
C578 C 0.95017 0.04626 0.19521 0.0
H579 H 0.99318 0.97949 0.16151 0.0
H580 H 0.98441 0.01335 0.1599 0.0
H581 H 0.99275 0.99859 0.18653 0.0
H582 H 0.91048 1.00472 0.2332 0.0
H583 H 0.94033 0.03574 0.25889 0.0
H584 H 0.86587 0.13105 0.61919 0.0
H585 H 0.90101 0.09392 0.63452 0.0
H586 H 0.78958 0.06005 0.6543 0.0
H587 H 0.75479 0.09682 0.63851 0.0
H588 H 0.89848 0.08233 0.67871 0.0
H589 H 0.84714 0.99824 0.63016 0.0
H590 H 0.84116 0.03078 0.62047 0.0
H591 H 0.80699 0.01718 0.64029 0.0
C592 C 0.84907 0.11515 0.62609 0.0
C593 C 0.80784 0.11657 0.62776 0.0
C594 C 0.86903 0.09411 0.63498 0.0
C595 C 0.84792 0.07412 0.64547 0.0
C596 C 0.80649 0.07494 0.64594 0.0
H597 H 0.92082 0.97915 0.75576 0.0
H598 H 0.89202 0.01139 0.73118 0.0
C599 C 0.78663 0.09594 0.63705 0.0
C600 C 0.86903 0.05411 0.65826 0.0
H601 H 0.87557 0.98936 0.66596 0.0
C602 C 0.89385 0.062 0.67574 0.0
C603 C 0.86314 0.02759 0.65434 0.0
C604 C 0.83847 0.01792 0.63515 0.0
C605 C 0.91199 0.04412 0.6898 0.0
C606 C 0.90453 0.01765 0.68655 0.0
C607 C 0.88077 0.0097 0.66864 0.0
C608 C 0.92143 0.9979 0.70146 0.0
C609 C 0.93912 0.05375 0.70794 0.0
C610 C 0.94673 0.97925 0.69283 0.0
C611 C 0.96301 0.9607 0.70677 0.0
C612 C 0.95417 0.96032 0.72969 0.0
C613 C 0.92842 0.9789 0.73825 0.0
C614 C 0.91209 0.99745 0.72424 0.0
H615 H 0.94993 0.07356 0.70451 0.0
H616 H 0.92276 0.05403 0.72395 0.0
H617 H 0.96499 0.04101 0.70991 0.0
H618 H 0.95419 0.97919 0.67529 0.0
H619 H 0.98259 0.94668 0.69951 0.0
H620 H 0.64695 0.37962 0.1342 0.0
H621 H 0.61558 0.41692 0.15145 0.0
H622 H 0.72424 0.46018 0.144 0.0
H623 H 0.75574 0.42226 0.12774 0.0
H624 H 0.69982 0.46295 0.18481 0.0
H625 H 0.57199 0.48331 0.13073 0.0
H626 H 0.57137 0.45056 0.1398 0.0
H627 H 0.611 0.46207 0.12229 0.0
C628 C 0.66342 0.39746 0.13564 0.0
C629 C 0.70331 0.3985 0.12951 0.0
C630 C 0.64562 0.41876 0.14543 0.0
C631 C 0.66736 0.44155 0.14881 0.0
C632 C 0.70681 0.44288 0.14152 0.0
H633 H 0.55946 0.57962 0.20162 0.0
H634 H 0.59134 0.54762 0.17822 0.0
C635 C 0.7247 0.42143 0.13209 0.0
C636 C 0.65051 0.46285 0.1621 0.0
H637 H 0.56958 0.50085 0.1677 0.0
C638 C 0.67154 0.47145 0.18088 0.0
C639 C 0.61381 0.47416 0.15694 0.0
C640 C 0.59098 0.46722 0.1362 0.0
C641 C 0.65662 0.49065 0.19483 0.0
C642 C 0.61891 0.50091 0.19037 0.0
C643 C 0.59823 0.49272 0.17134 0.0
C644 C 0.60059 0.52048 0.20496 0.0
C645 C 0.68183 0.49999 0.21394 0.0
C646 C 0.59506 0.5159 0.22782 0.0
C647 C 0.57739 0.53439 0.24134 0.0
C648 C 0.56412 0.5575 0.23209 0.0
C649 C 0.56926 0.56192 0.20919 0.0
C650 C 0.58746 0.54364 0.19579 0.0
H651 H 0.71367 0.49638 0.21088 0.0
H652 H 0.67791 0.52085 0.21689 0.0
H653 H 0.67326 0.48949 0.2293 0.0
H654 H 0.60391 0.49788 0.23518 0.0
H655 H 0.57331 0.53038 0.25889 0.0
H656 H 0.37303 0.38316 0.40658 0.0
H657 H 0.40728 0.42007 0.38947 0.0
H658 H 0.30057 0.46429 0.39454 0.0
H659 H 0.26668 0.42727 0.41169 0.0
H660 H 0.37778 0.44036 0.34849 0.0
H661 H 0.38894 0.51549 0.4139 0.0
H662 H 0.38233 0.48185 0.42039 0.0
H663 H 0.34127 0.50038 0.41081 0.0
C664 C 0.35762 0.40115 0.40473 0.0
C665 C 0.31765 0.40277 0.41054 0.0
C666 C 0.37693 0.42208 0.39487 0.0
C667 C 0.35652 0.44496 0.39085 0.0
C668 C 0.31707 0.447 0.39784 0.0
H669 H 0.40952 0.58206 0.31292 0.0
H670 H 0.37842 0.54924 0.33651 0.0
C671 C 0.29776 0.426 0.40763 0.0
C672 C 0.37487 0.46535 0.37696 0.0
H673 H 0.4051 0.52805 0.37699 0.0
C674 C 0.38403 0.45949 0.35476 0.0
C675 C 0.38234 0.49036 0.3851 0.0
C676 C 0.37353 0.49748 0.4089 0.0
C677 C 0.40023 0.47803 0.34039 0.0
C678 C 0.40841 0.50294 0.34861 0.0
C679 C 0.39893 0.5089 0.37077 0.0
C680 C 0.4273 0.5229 0.33447 0.0
C681 C 0.40759 0.47096 0.31639 0.0
C682 C 0.46512 0.519 0.32558 0.0
C683 C 0.4827 0.53753 0.3119 0.0
C684 C 0.46306 0.5605 0.30712 0.0
C685 C 0.42532 0.56449 0.31622 0.0
C686 C 0.40762 0.54585 0.3298 0.0
H687 H 0.38996 0.45385 0.31132 0.0
H688 H 0.40034 0.48712 0.30509 0.0
H689 H 0.43928 0.46636 0.31417 0.0
H690 H 0.48105 0.50156 0.3292 0.0
H691 H 0.51147 0.53369 0.30483 0.0
H692 H 0.26009 0.09371 0.90012 0.0
H693 H 0.22596 0.05672 0.88335 0.0
H694 H 0.11397 0.0937 0.89384 0.0
H695 H 0.14843 0.13043 0.91117 0.0
H696 H 0.11035 0.04061 0.90066 0.0
H697 H 0.18333 0.06428 0.8204 0.0
H698 H 0.21743 0.05852 0.84265 0.0
H699 H 0.18492 0.08558 0.84403 0.0
C700 C 0.22814 0.0935 0.89925 0.0
C701 C 0.20666 0.11468 0.90672 0.0
C702 C 0.20871 0.07259 0.88955 0.0
C703 C 0.16752 0.07279 0.88681 0.0
C704 C 0.1458 0.09326 0.89564 0.0
H705 H 0.00047 0.97993 0.81124 0.0
H706 H 0.03198 0.01177 0.83549 0.0
C707 C 0.16531 0.11411 0.90557 0.0
C708 C 0.14759 0.05257 0.87343 0.0
H709 H 0.14586 0.02568 0.82158 0.0
C710 C 0.118 0.03737 0.88336 0.0
C711 C 0.15742 0.04853 0.85078 0.0
C712 C 0.18722 0.06524 0.83874 0.0
C713 C 0.09858 0.01784 0.87136 0.0
C714 C 0.10885 0.01364 0.84884 0.0
C715 C 0.1383 0.02887 0.83891 0.0
C716 C 0.08922 0.99369 0.83511 0.0
C717 C 0.0677 1.00155 0.88289 0.0
C718 C 0.1111 0.97313 0.82671 0.0
C719 C 0.09319 0.95486 0.81293 0.0
C720 C 0.05322 0.95707 0.80692 0.0
C721 C 0.03131 0.97764 0.8155 0.0
C722 C 0.0492 0.9958 0.82945 0.0
H723 H 0.06919 1.00354 0.90129 0.0
H724 H 0.03794 1.0076 0.87737 0.0
H725 H 0.07118 0.98101 0.87847 0.0
H726 H 0.14208 0.97122 0.83085 0.0
H727 H 0.11075 0.93902 0.80702 0.0
H728 H 0.23321 0.1035 0.95053 0.0
H729 H 0.20444 0.08853 0.98576 0.0
H730 H 0.14813 0.16183 0.99424 0.0
H731 H 0.17496 0.17608 0.95839 0.0
H732 H 0.21808 0.10619 0.02584 0.0
H733 H 0.05813 0.11522 1.00971 0.0
H734 H 0.09442 0.11726 0.98777 0.0
H735 H 0.08388 0.14488 1.00472 0.0
C736 C 0.21379 0.11607 0.95968 0.0
C737 C 0.20622 0.1409 0.95181 0.0
C738 C 0.19764 0.10764 0.97988 0.0
C739 C 0.17365 0.12391 0.99262 0.0
C740 C 0.16569 0.14864 0.98456 0.0
H741 H 0.14357 0.11252 0.13566 0.0
H742 H 0.16314 0.12339 0.09776 0.0
C743 C 0.18146 0.15694 0.96424 0.0
C744 C 0.15937 0.11569 1.015 0.0
H745 H 0.07729 0.11162 0.04803 0.0
C746 C 0.18721 0.10715 0.0306 0.0
C747 C 0.11903 0.11656 0.02121 0.0
C748 C 0.08712 0.12371 1.00488 0.0
C749 C 0.17608 0.10006 0.05228 0.0
C750 C 0.13608 0.10234 0.05889 0.0
C751 C 0.10804 0.11023 0.04313 0.0
C752 C 0.12277 0.09655 0.08201 0.0
C753 C 0.20731 0.08978 0.06774 0.0
C754 C 0.09219 0.07871 0.08588 0.0
C755 C 0.08005 0.07295 0.10761 0.0
C756 C 0.09831 0.08485 0.12603 0.0
C757 C 0.12846 0.10309 0.12201 0.0
C758 C 0.14023 0.10904 0.10028 0.0
H759 H 0.23246 0.08157 0.05832 0.0
H760 H 0.2191 0.10571 0.07811 0.0
H761 H 0.19506 0.07473 0.07893 0.0
H762 H 0.07793 0.06901 0.07207 0.0
H763 H 0.05619 0.05923 0.10994 0.0
H764 H 0.35548 0.346 0.458 0.0
H765 H 0.37614 0.35809 0.49589 0.0
H766 H 0.29364 0.42064 0.49503 0.0
H767 H 0.27275 0.40821 0.45726 0.0
H768 H 0.37443 0.43116 0.51429 0.0
H769 H 0.296 0.34578 0.5493 0.0
H770 H 0.32977 0.34034 0.52667 0.0
H771 H 0.28549 0.35813 0.52187 0.0
C772 C 0.3422 0.36245 0.46595 0.0
C773 C 0.31218 0.37599 0.45512 0.0
C774 C 0.3539 0.36932 0.48747 0.0
C775 C 0.33597 0.39002 0.49833 0.0
C776 C 0.30769 0.40454 0.48694 0.0
H777 H 0.30561 0.43735 0.63345 0.0
H778 H 0.30005 0.42352 0.59463 0.0
C779 C 0.29585 0.39754 0.46546 0.0
C780 C 0.34477 0.39557 0.52202 0.0
H781 H 0.32839 0.37315 0.57472 0.0
C782 C 0.36473 0.41841 0.52752 0.0
C783 C 0.33173 0.37893 0.53919 0.0
C784 C 0.30932 0.35446 0.53413 0.0
C785 C 0.37182 0.42511 0.54984 0.0
C786 C 0.35852 0.40857 0.56699 0.0
C787 C 0.33881 0.38565 0.56148 0.0
C788 C 0.36227 0.41567 0.59078 0.0
C789 C 0.39242 0.45018 0.55505 0.0
C790 C 0.39903 0.41531 0.60157 0.0
C791 C 0.40226 0.42305 0.62384 0.0
C792 C 0.36882 0.43149 0.63555 0.0
C793 C 0.33195 0.43122 0.62478 0.0
C794 C 0.3287 0.42326 0.60265 0.0
H795 H 0.39719 0.46211 0.53994 0.0
H796 H 0.37487 0.46129 0.56726 0.0
H797 H 0.42156 0.44625 0.56271 0.0
H798 H 0.42522 0.40932 0.59269 0.0
H799 H 0.43107 0.4232 0.63167 0.0
H800 H 0.65969 0.33486 0.08747 0.0
H801 H 0.63128 0.3427 0.05048 0.0
H802 H 0.70439 0.41046 0.04363 0.0
H803 H 0.73271 0.40253 0.08076 0.0
H804 H 0.59562 0.39285 0.02965 0.0
H805 H 0.73458 0.3553 0.99254 0.0
H806 H 0.71986 0.34757 0.02067 0.0
H807 H 0.73811 0.37909 1.01421 0.0
C808 C 0.66893 0.35167 0.07817 0.0
C809 C 0.69833 0.36807 0.08668 0.0
C810 C 0.65276 0.35617 0.05716 0.0
C811 C 0.66599 0.37704 0.04435 0.0
C812 C 0.69389 0.39424 0.05332 0.0
H813 H 0.63856 0.39291 0.90054 0.0
H814 H 0.65808 0.40014 0.93917 0.0
C815 C 0.70986 0.38982 0.07445 0.0
C816 C 0.65333 0.37921 0.02087 0.0
H817 H 0.68331 0.36552 0.96801 0.0
C818 C 0.6148 0.38713 1.0161 0.0
C819 C 0.67857 0.37179 1.00333 0.0
C820 C 0.72009 0.36283 1.00776 0.0
C821 C 0.60066 0.38761 0.9941 0.0
C822 C 0.62541 0.37921 0.97658 0.0
C823 C 0.66431 0.37192 0.98141 0.0
C824 C 0.61127 0.37667 0.95326 0.0
C825 C 0.55948 0.39729 0.98989 0.0
C826 C 0.57842 0.36108 0.94824 0.0
C827 C 0.5668 0.35721 0.92617 0.0
C828 C 0.58817 0.36851 0.90854 0.0
C829 C 0.62098 0.38423 0.91364 0.0
C830 C 0.63238 0.38825 0.93575 0.0
H831 H 0.55 0.41073 1.00317 0.0
H832 H 0.55747 0.40722 0.97359 0.0
H833 H 0.5385 0.38081 0.98987 0.0
H834 H 0.56221 0.3514 0.96138 0.0
H835 H 0.54114 0.34522 0.92293 0.0
H836 H 0.76808 0.11137 0.58185 0.0
H837 H 0.78536 0.10127 0.54304 0.0
H838 H 0.86279 0.16745 0.54107 0.0
H839 H 0.84549 0.17734 0.5798 0.0
H840 H 0.76938 0.13777 0.50868 0.0
H841 H 0.92759 0.11087 0.50962 0.0
H842 H 0.89658 0.10909 0.53409 0.0
H843 H 0.91609 0.13948 0.52491 0.0
C844 C 0.78971 0.12317 0.57324 0.0
C845 C 0.80558 0.14506 0.58357 0.0
C846 C 0.79942 0.11752 0.55113 0.0
C847 C 0.82557 0.13351 0.53922 0.0
C848 C 0.84308 0.15461 0.55002 0.0
H849 H 0.89464 0.15996 0.40274 0.0
H850 H 0.88799 0.15856 0.44333 0.0
C851 C 0.83314 0.16033 0.57204 0.0
C852 C 0.83074 0.13017 0.51487 0.0
H853 H 0.8998 0.12094 0.47426 0.0
C854 C 0.79777 0.13374 0.50113 0.0
C855 C 0.86791 0.12528 0.50512 0.0
C856 C 0.90407 0.12074 0.51916 0.0
C857 C 0.80112 0.13335 0.47785 0.0
C858 C 0.83834 0.12852 0.468 0.0
C859 C 0.87127 0.12458 0.48179 0.0
C860 C 0.8438 0.12827 0.44344 0.0
C861 C 0.76503 0.13921 0.46406 0.0
C862 C 0.82181 0.11136 0.43 0.0
C863 C 0.82529 0.11229 0.40681 0.0
C864 C 0.85136 0.12987 0.3966 0.0
C865 C 0.8744 0.14616 0.41012 0.0
C866 C 0.87061 0.14539 0.43331 0.0
H867 H 0.7422 0.14932 0.47394 0.0
H868 H 0.77281 0.15123 0.44941 0.0
H869 H 0.75178 0.12096 0.45799 0.0
H870 H 0.80174 0.09751 0.43744 0.0
H871 H 0.80773 0.09916 0.39686 0.0
H872 H 0.85379 0.84378 0.08244 0.0
H873 H 0.87771 0.85426 0.04478 0.0
H874 H 0.80115 0.91993 0.04323 0.0
H875 H 0.77702 0.90909 0.08067 0.0
H876 H 0.79295 0.88536 1.00665 0.0
H877 H 0.94973 0.91356 0.02103 0.0
H878 H 0.93353 0.88393 0.0336 0.0
H879 H 0.91313 0.9137 0.04294 0.0
C880 C 0.84293 0.86074 0.07413 0.0
C881 C 0.8142 0.87595 0.08439 0.0
C882 C 0.85657 0.86675 0.05273 0.0
C883 C 0.84151 0.88804 0.04131 0.0
C884 C 0.81343 0.90357 0.05184 0.0
H885 H 0.8948 0.96483 0.91893 0.0
H886 H 0.88948 0.95039 0.95758 0.0
C887 C 0.79995 0.89759 0.07324 0.0
C888 C 0.85234 0.89293 1.01775 0.0
H889 H 0.9285 0.91085 0.98357 0.0
C890 C 0.82262 0.89083 1.00157 0.0
C891 C 0.89105 0.90008 1.01123 0.0
C892 C 0.92377 0.90317 0.02806 0.0
C893 C 0.83043 0.89594 0.97905 0.0
C894 C 0.86914 0.90309 0.97248 0.0
C895 C 0.89898 0.90506 0.98863 0.0
C896 C 0.87804 0.91067 0.94919 0.0
C897 C 0.79689 0.89447 0.96254 0.0
C898 C 0.8748 0.89292 0.93167 0.0
C899 C 0.87784 0.90114 0.90951 0.0
C900 C 0.88397 0.92725 0.90459 0.0
C901 C 0.88952 0.94465 0.92223 0.0
C902 C 0.8867 0.93642 0.94431 0.0
H903 H 0.76764 0.89315 0.97089 0.0
H904 H 0.79717 0.91154 0.95147 0.0
H905 H 0.80046 0.87719 0.95198 0.0
H906 H 0.86852 0.8729 0.93512 0.0
H907 H 0.87337 0.88733 0.89627 0.0
H908 H 0.76648 0.63096 0.56912 0.0
H909 H 0.74243 0.61708 0.53237 0.0
H910 H 0.62267 0.63127 0.55319 0.0
H911 H 0.64689 0.64522 0.58989 0.0
H912 H 0.68082 0.57717 0.52084 0.0
H913 H 0.64426 0.67701 0.49576 0.0
H914 H 0.67799 0.67004 0.51821 0.0
H915 H 0.62577 0.6662 0.52229 0.0
C916 C 0.73506 0.63084 0.56579 0.0
C917 C 0.70843 0.63921 0.5821 0.0
C918 C 0.72135 0.62291 0.54492 0.0
C919 C 0.68084 0.62345 0.54003 0.0
C920 C 0.65407 0.63093 0.55661 0.0
H921 H 0.55391 0.56705 0.42381 0.0
H922 H 0.57573 0.57751 0.46156 0.0
C923 C 0.6678 0.6387 0.57753 0.0
C924 C 0.6668 0.61714 0.5173 0.0
H925 H 0.62835 0.64402 0.47027 0.0
C926 C 0.66923 0.59173 0.50979 0.0
C927 C 0.65212 0.63628 0.50289 0.0
C928 C 0.65001 0.66399 0.51002 0.0
C929 C 0.65687 0.5849 0.48824 0.0
C930 C 0.64179 0.60399 0.47393 0.0
C931 C 0.63975 0.62944 0.48136 0.0
C932 C 0.62843 0.59788 0.45104 0.0
C933 C 0.66047 0.55741 0.48074 0.0
C934 C 0.65059 0.60621 0.43263 0.0
C935 C 0.63852 0.6 0.411 0.0
C936 C 0.60375 0.58555 0.40735 0.0
C937 C 0.58122 0.57775 0.42593 0.0
C938 C 0.59351 0.58379 0.44754 0.0
H939 H 0.67824 0.54579 0.49249 0.0
H940 H 0.63055 0.54863 0.47949 0.0
H941 H 0.67428 0.55654 0.46398 0.0
H942 H 0.67764 0.61714 0.43503 0.0
H943 H 0.65692 0.60607 0.39719 0.0
H944 H 0.28088 0.60947 0.94908 0.0
H945 H 0.30408 0.59593 0.98588 0.0
H946 H 0.36455 0.66858 0.99388 0.0
H947 H 0.34305 0.68146 0.95655 0.0
H948 H 0.40665 0.62926 1.01199 0.0
H949 H 0.25077 0.62456 0.04053 0.0
H950 H 0.261 0.60361 1.0176 0.0
H951 H 0.26472 0.63782 1.01391 0.0
C952 C 0.30011 0.62215 0.95845 0.0
C953 C 0.30999 0.64655 0.95016 0.0
C954 C 0.31286 0.6146 0.97959 0.0
C955 C 0.33512 0.63153 0.99291 0.0
C956 C 0.34708 0.65529 0.98402 0.0
H957 H 0.39617 0.64266 0.13266 0.0
H958 H 0.39111 0.64903 0.09239 0.0
C959 C 0.33468 0.66269 0.96279 0.0
C960 C 0.34377 0.6253 1.01655 0.0
H961 H 0.2993 0.61146 0.06626 0.0
C962 C 0.3832 0.62534 0.02386 0.0
C963 C 0.3131 0.62048 0.0321 0.0
C964 C 0.27002 0.62185 0.02574 0.0
C965 C 0.39275 0.62036 0.04622 0.0
C966 C 0.36207 0.61531 0.06163 0.0
C967 C 0.32275 0.61515 0.05433 0.0
C968 C 0.36973 0.6106 0.08557 0.0
C969 C 0.4355 0.62028 0.05323 0.0
C970 C 0.35961 0.58684 0.09505 0.0
C971 C 0.3627 0.58308 0.11801 0.0
C972 C 0.37548 0.60313 0.13205 0.0
C973 C 0.38669 0.62671 0.12237 0.0
C974 C 0.38378 0.63041 0.09935 0.0
H975 H 0.45577 0.6194 0.03871 0.0
H976 H 0.44219 0.63812 0.06263 0.0
H977 H 0.44144 0.60375 0.06438 0.0
H978 H 0.34865 0.57133 0.0847 0.0
H979 H 0.35449 0.56453 0.12481 0.0
H980 H 0.26192 0.87333 0.46351 0.0
H981 H 0.23855 0.8859 0.50042 0.0
H982 H 0.11853 0.88545 0.4762 0.0
H983 H 0.14204 0.87117 0.43955 0.0
H984 H 0.20046 0.92468 0.51714 0.0
H985 H 0.10769 0.83711 0.52762 0.0
H986 H 0.14142 0.84116 0.50464 0.0
H987 H 0.09401 0.85648 0.50423 0.0
C988 C 0.23057 0.87586 0.46617 0.0
C989 C 0.20364 0.87074 0.44898 0.0
C990 C 0.21721 0.8832 0.48718 0.0
C991 C 0.17662 0.88592 0.49133 0.0
C992 C 0.14985 0.88266 0.47364 0.0
H993 H 0.11163 0.94887 0.62203 0.0
H994 H 0.11717 0.94285 0.58167 0.0
C995 C 0.16327 0.87491 0.45265 0.0
C996 C 0.16288 0.8913 0.51437 0.0
H997 H 0.10649 0.86721 0.55687 0.0
C998 C 0.17975 0.91218 0.52579 0.0
C999 C 0.13631 0.87475 0.5258 0.0
C1000 C 0.11907 0.85098 0.51506 0.0
C1001 C 0.17164 0.91665 0.54838 0.0
C1002 C 0.1445 0.90038 0.55971 0.0
C1003 C 0.12696 0.87982 0.54816 0.0
C1004 C 0.13602 0.90332 0.58388 0.0
C1005 C 0.19387 0.93799 0.56005 0.0
C1006 C 0.14207 0.88265 0.59851 0.0
C1007 C 0.13763 0.88586 0.62149 0.0
C1008 C 0.12748 0.90987 0.6302 0.0
C1009 C 0.11974 0.93023 0.61559 0.0
C1010 C 0.12333 0.92687 0.5926 0.0
H1011 H 0.22114 0.9436 0.55088 0.0
H1012 H 0.17482 0.95515 0.56107 0.0
H1013 H 0.2023 0.93229 0.5772 0.0
H1014 H 0.15165 0.86425 0.59222 0.0
H1015 H 0.14393 0.86996 0.63251 0.0
H1016 H 0.28444 0.3176 0.37276 0.0
H1017 H 0.24638 0.28432 0.35321 0.0
H1018 H 0.15619 0.2879 0.4039 0.0
H1019 H 0.19337 0.32226 0.42269 0.0
H1020 H 0.22324 0.23749 0.36491 0.0
H1021 H 0.09088 0.2964 0.34875 0.0
H1022 H 0.13649 0.31003 0.35903 0.0
H1023 H 0.10262 0.29424 0.37779 0.0
C1024 C 0.25628 0.31139 0.37951 0.0
C1025 C 0.24152 0.32255 0.39903 0.0
C1026 C 0.23469 0.29231 0.36847 0.0
C1027 C 0.19803 0.28393 0.37683 0.0
C1028 C 0.18388 0.2945 0.39679 0.0
H1029 H 0.07913 0.14342 0.33341 0.0
H1030 H 0.11585 0.1762 0.35425 0.0
C1031 C 0.2053 0.31384 0.40769 0.0
C1032 C 0.17488 0.26407 0.36465 0.0
H1033 H 0.08512 0.25185 0.34079 0.0
C1034 C 0.19306 0.24066 0.3596 0.0
C1035 C 0.13573 0.26836 0.35735 0.0
C1036 C 0.1154 0.29371 0.36079 0.0
C1037 C 0.17308 0.22136 0.34767 0.0
C1038 C 0.13341 0.22527 0.34119 0.0
C1039 C 0.11537 0.24876 0.34603 0.0
C1040 C 0.11036 0.2055 0.32891 0.0
C1041 C 0.19503 0.19727 0.34161 0.0
C1042 C 0.09372 0.21138 0.30815 0.0
C1043 C 0.07208 0.19286 0.29646 0.0
C1044 C 0.06703 0.16805 0.30518 0.0
C1045 C 0.08283 0.16235 0.32621 0.0
C1046 C 0.10419 0.18096 0.33801 0.0
H1047 H 0.22754 0.20037 0.34198 0.0
H1048 H 0.18766 0.18198 0.35381 0.0
H1049 H 0.18656 0.19038 0.32478 0.0
H1050 H 0.09775 0.23026 0.3009 0.0
H1051 H 0.0593 0.19796 0.28058 0.0
H1052 H 0.33277 0.16957 0.88876 0.0
H1053 H 0.37106 0.20372 0.87027 0.0
H1054 H 0.28215 0.25859 0.88864 0.0
H1055 H 0.2441 0.22435 0.90721 0.0
H1056 H 0.34683 0.23359 0.83497 0.0
H1057 H 0.38381 0.29484 0.90768 0.0
H1058 H 0.3658 0.2623 0.91058 0.0
H1059 H 0.33202 0.28788 0.90485 0.0
C1060 C 0.32177 0.189 0.88895 0.0
C1061 C 0.28574 0.1945 0.89939 0.0
C1062 C 0.34354 0.20845 0.87844 0.0
C1063 C 0.32972 0.23377 0.8783 0.0
C1064 C 0.29384 0.23932 0.88896 0.0
H1065 H 0.40328 0.37461 0.81292 0.0
H1066 H 0.36885 0.34092 0.83397 0.0
C1067 C 0.27211 0.21984 0.89951 0.0
C1068 C 0.35184 0.25403 0.866 0.0
H1069 H 0.3973 0.31245 0.87188 0.0
C1070 C 0.35811 0.25075 0.84307 0.0
C1071 C 0.36642 0.27644 0.87658 0.0
C1072 C 0.36204 0.28055 0.90132 0.0
C1073 C 0.37794 0.26948 0.83036 0.0
C1074 C 0.39236 0.2919 0.84094 0.0
C1075 C 0.38617 0.2952 0.86385 0.0
C1076 C 0.4136 0.31227 0.8284 0.0
C1077 C 0.38248 0.26545 0.80563 0.0
C1078 C 0.45037 0.30739 0.81853 0.0
C1079 C 0.46991 0.32655 0.80635 0.0
C1080 C 0.45296 0.35088 0.80385 0.0
C1081 C 0.4166 0.35587 0.81419 0.0
C1082 C 0.39708 0.33673 0.82635 0.0
H1083 H 0.36237 0.25015 0.79932 0.0
H1084 H 0.37649 0.28347 0.79642 0.0
H1085 H 0.4133 0.25975 0.80196 0.0
H1086 H 0.4639 0.28874 0.82022 0.0
H1087 H 0.49797 0.3222 0.79861 0.0
H1088 H 0.686 0.17149 0.6498 0.0
H1089 H 0.64848 0.20521 0.66867 0.0
H1090 H 0.73774 0.2609 0.65015 0.0
H1091 H 0.7756 0.22693 0.63167 0.0
H1092 H 0.71568 0.26316 0.6951 0.0
H1093 H 0.58443 0.26288 0.63982 0.0
H1094 H 0.59684 0.23185 0.65065 0.0
H1095 H 0.63045 0.24808 0.63209 0.0
C1096 C 0.69738 0.19097 0.6498 0.0
C1097 C 0.73343 0.19681 0.63934 0.0
C1098 C 0.67591 0.21021 0.66037 0.0
C1099 C 0.69008 0.23561 0.66053 0.0
C1100 C 0.72618 0.24144 0.65008 0.0
H1101 H 0.56155 0.37106 0.70222 0.0
H1102 H 0.5987 0.33886 0.68142 0.0
C1103 C 0.74764 0.22218 0.63948 0.0
C1104 C 0.66789 0.25588 0.67227 0.0
H1105 H 0.57916 0.28648 0.67359 0.0
C1106 C 0.6859 0.26835 0.69036 0.0
C1107 C 0.62922 0.26279 0.66586 0.0
C1108 C 0.60915 0.2509 0.64592 0.0
C1109 C 0.66593 0.2872 0.70253 0.0
C1110 C 0.62677 0.29346 0.6966 0.0
C1111 C 0.60906 0.2814 0.67822 0.0
C1112 C 0.60381 0.31266 0.70918 0.0
C1113 C 0.68702 0.30053 0.72145 0.0
C1114 C 0.59385 0.30834 0.73155 0.0
C1115 C 0.5725 0.32662 0.74343 0.0
C1116 C 0.56074 0.34951 0.73311 0.0
C1117 C 0.57017 0.35357 0.71059 0.0
C1118 C 0.59143 0.33526 0.69871 0.0
H1119 H 0.7195 0.29781 0.72062 0.0
H1120 H 0.68083 0.32142 0.72133 0.0
H1121 H 0.67631 0.29253 0.73749 0.0
H1122 H 0.60248 0.29078 0.7398 0.0
H1123 H 0.56519 0.32285 0.76069 0.0
H1124 H 0.82839 0.34451 0.14998 0.0
H1125 H 0.8651 0.31107 0.1696 0.0
H1126 H 0.7749 0.25558 0.15213 0.0
H1127 H 0.73729 0.28942 0.13356 0.0
H1128 H 0.79447 0.25169 0.19493 0.0
H1129 H 0.93111 0.25451 0.14422 0.0
H1130 H 0.91935 0.28522 0.15577 0.0
H1131 H 0.88654 0.27055 0.13582 0.0
C1132 C 0.81658 0.32514 0.1504 0.0
C1133 C 0.78023 0.31939 0.14027 0.0
C1134 C 0.83769 0.30601 0.16134 0.0
C1135 C 0.82311 0.2807 0.16198 0.0
C1136 C 0.78685 0.27493 0.15171 0.0
H1137 H 0.95999 0.14929 0.20429 0.0
H1138 H 0.92247 0.18094 0.18333 0.0
C1139 C 0.76557 0.29414 0.14097 0.0
C1140 C 0.84474 0.26048 0.17418 0.0
H1141 H 0.93428 0.23134 0.17845 0.0
C1142 C 0.82497 0.24711 0.19123 0.0
C1143 C 0.88436 0.25428 0.16914 0.0
C1144 C 0.90646 0.2667 0.15009 0.0
C1145 C 0.8439 0.22801 0.20362 0.0
C1146 C 0.88406 0.22264 0.19926 0.0
C1147 C 0.90363 0.23569 0.18196 0.0
C1148 C 0.90624 0.20331 0.21221 0.0
C1149 C 0.82041 0.21346 0.22096 0.0
C1150 C 0.9099 0.20548 0.23541 0.0
C1151 C 0.93099 0.18725 0.24749 0.0
C1152 C 0.94942 0.16676 0.23653 0.0
C1153 C 0.9462 0.16485 0.21325 0.0
C1154 C 0.92477 0.18293 0.20123 0.0
H1155 H 0.78817 0.21434 0.21762 0.0
H1156 H 0.82919 0.193 0.22165 0.0
H1157 H 0.82583 0.22218 0.23753 0.0
H1158 H 0.89676 0.22142 0.24417 0.0
H1159 H 0.93326 0.18942 0.26537 0.0
H1160 H 0.72357 0.71511 0.65224 0.0
H1161 H 0.76245 0.74908 0.67049 0.0
H1162 H 0.86886 0.7186 0.64152 0.0
H1163 H 0.82954 0.685 0.6229 0.0
H1164 H 0.81971 0.74369 0.7011 0.0
H1165 H 0.88098 0.79394 0.62711 0.0
H1166 H 0.8411 0.77082 0.62516 0.0
H1167 H 0.89133 0.76024 0.62765 0.0
C1168 C 0.75522 0.71598 0.64967 0.0
C1169 C 0.77377 0.69774 0.6362 0.0
C1170 C 0.77739 0.73528 0.66005 0.0
C1171 C 0.81854 0.73661 0.65716 0.0
C1172 C 0.83708 0.71836 0.64357 0.0
H1173 H 0.99202 0.82179 0.73551 0.0
H1174 H 0.9562 0.78893 0.7141 0.0
C1175 C 0.81478 0.69917 0.63303 0.0
C1176 C 0.84201 0.75634 0.66929 0.0
H1177 H 0.90706 0.80631 0.66233 0.0
C1178 C 0.83881 0.75735 0.69259 0.0
C1179 C 0.86671 0.77432 0.65817 0.0
C1180 C 0.87003 0.77501 0.63313 0.0
C1181 C 0.85983 0.77568 0.70505 0.0
C1182 C 0.88475 0.79337 0.69396 0.0
C1183 C 0.88804 0.7925 0.67072 0.0
C1184 C 0.90681 0.81335 0.70634 0.0
C1185 C 0.85465 0.77658 0.72996 0.0
C1186 C 0.89087 0.83789 0.70882 0.0
C1187 C 0.91125 0.85667 0.72092 0.0
C1188 C 0.9478 0.85116 0.73084 0.0
C1189 C 0.96395 0.82662 0.72803 0.0
C1190 C 0.94354 0.80783 0.71589 0.0
H1191 H 0.83533 0.76082 0.73624 0.0
H1192 H 0.88382 0.77542 0.73832 0.0
H1193 H 0.84136 0.79519 0.73461 0.0
H1194 H 0.86255 0.84244 0.7015 0.0
H1195 H 0.89843 0.87553 0.72247 0.0
H1196 H 0.6883 0.84889 0.14697 0.0
H1197 H 0.64994 0.81478 0.16568 0.0
H1198 H 0.74366 0.7613 0.15262 0.0
H1199 H 0.78201 0.79559 0.13418 0.0
H1200 H 0.62415 0.76646 0.1487 0.0
H1201 H 0.72596 0.75568 0.22051 0.0
H1202 H 0.72754 0.78321 0.20225 0.0
H1203 H 0.74901 0.75342 0.19364 0.0
C1204 C 0.70048 0.82981 0.14824 0.0
C1205 C 0.73802 0.8247 0.1395 0.0
C1206 C 0.6787 0.8104 0.15881 0.0
C1207 C 0.69427 0.78564 0.16085 0.0
C1208 C 0.73145 0.7804 0.1516 0.0
H1209 H 0.61481 0.64346 0.22114 0.0
H1210 H 0.65032 0.67746 0.2012 0.0
C1211 C 0.75317 0.79982 0.14098 0.0
C1212 C 0.6715 0.76529 0.17255 0.0
H1213 H 0.67393 0.72519 0.2175 0.0
C1214 C 0.6349 0.75749 0.16379 0.0
C1215 C 0.68565 0.75366 0.19224 0.0
C1216 C 0.72403 0.76201 0.20288 0.0
C1217 C 0.6124 0.73794 0.17394 0.0
C1218 C 0.62662 0.72627 0.1936 0.0
C1219 C 0.66315 0.73416 0.2024 0.0
C1220 C 0.60431 0.70562 0.20521 0.0
C1221 C 0.57411 0.72952 0.16325 0.0
C1222 C 0.56672 0.71022 0.21418 0.0
C1223 C 0.54639 0.69082 0.22566 0.0
C1224 C 0.56355 0.6666 0.22855 0.0
C1225 C 0.60102 0.66201 0.21937 0.0
C1226 C 0.6213 0.68138 0.20793 0.0
H1227 H 0.57239 0.73567 0.14557 0.0
H1228 H 0.57049 0.70834 0.16403 0.0
H1229 H 0.54906 0.73827 0.17232 0.0
H1230 H 0.55342 0.72895 0.21265 0.0
H1231 H 0.51774 0.69498 0.23276 0.0
H1232 H 0.22887 0.78206 0.40266 0.0
H1233 H 0.26984 0.74854 0.38563 0.0
H1234 H 0.35808 0.80575 0.36897 0.0
H1235 H 0.31734 0.83892 0.38645 0.0
H1236 H 0.29376 0.7456 0.34226 0.0
H1237 H 0.42404 0.75018 0.39791 0.0
H1238 H 0.37746 0.76465 0.405 0.0
H1239 H 0.41133 0.78085 0.38653 0.0
C1240 C 0.25731 0.78716 0.39559 0.0
C1241 C 0.27046 0.81272 0.39585 0.0
C1242 C 0.28056 0.76819 0.38587 0.0
C1243 C 0.31728 0.77461 0.37636 0.0
C1244 C 0.33033 0.80027 0.37668 0.0
H1245 H 0.4469 0.69425 0.27506 0.0
H1246 H 0.40686 0.72373 0.29704 0.0
C1247 C 0.30713 0.81917 0.38647 0.0
C1248 C 0.34097 0.75479 0.365 0.0
H1249 H 0.43248 0.72788 0.36345 0.0
C1250 C 0.32398 0.74156 0.347 0.0
C1251 C 0.3802 0.74931 0.37142 0.0
C1252 C 0.39923 0.7618 0.39141 0.0
C1253 C 0.34559 0.72355 0.3348 0.0
C1254 C 0.38544 0.71906 0.34051 0.0
C1255 C 0.40206 0.73165 0.35894 0.0
C1256 C 0.41044 0.70151 0.3274 0.0
C1257 C 0.32552 0.70933 0.31602 0.0
C1258 C 0.42675 0.67972 0.33741 0.0
C1259 C 0.44974 0.66289 0.3249 0.0
C1260 C 0.45677 0.66763 0.30221 0.0
C1261 C 0.44133 0.68986 0.29241 0.0
C1262 C 0.41839 0.70667 0.30492 0.0
H1263 H 0.29282 0.70998 0.31748 0.0
H1264 H 0.33397 0.71832 0.29994 0.0
H1265 H 0.33476 0.68895 0.31562 0.0
H1266 H 0.42115 0.67553 0.35479 0.0
H1267 H 0.46135 0.64593 0.3329 0.0
H1268 H 0.18433 0.67421 0.8873 0.0
H1269 H 0.1455 0.70817 0.86957 0.0
H1270 H 0.23306 0.76427 0.88949 0.0
H1271 H 0.27219 0.73013 0.9068 0.0
H1272 H 0.11371 0.7543 0.88766 0.0
H1273 H 0.22477 0.77296 0.8212 0.0
H1274 H 0.22559 0.74454 0.83838 0.0
H1275 H 0.24326 0.77464 0.8492 0.0
C1276 C 0.1951 0.69382 0.88781 0.0
C1277 C 0.23119 0.6997 0.89816 0.0
C1278 C 0.17294 0.71317 0.87784 0.0
C1279 C 0.18669 0.73866 0.87799 0.0
C1280 C 0.22224 0.74466 0.88892 0.0
H1281 H 0.05406 0.87335 0.83479 0.0
H1282 H 0.09068 0.84211 0.8571 0.0
C1283 C 0.24437 0.72529 0.89891 0.0
C1284 C 0.16425 0.75877 0.86619 0.0
H1285 H 0.1691 0.79989 0.82199 0.0
C1286 C 0.12581 0.76437 0.87335 0.0
C1287 C 0.18003 0.77161 0.84738 0.0
C1288 C 0.22054 0.76556 0.8384 0.0
C1289 C 0.1027 0.78256 0.8622 0.0
C1290 C 0.11868 0.79558 0.84356 0.0
C1291 C 0.1571 0.78998 0.83641 0.0
C1292 C 0.09545 0.81426 0.83055 0.0
C1293 C 0.06103 0.78722 0.87004 0.0
C1294 C 0.08629 0.809 0.80825 0.0
C1295 C 0.06545 0.82672 0.79554 0.0
C1296 C 0.05375 0.8502 0.80482 0.0
C1297 C 0.06261 0.85537 0.82724 0.0
C1298 C 0.08342 0.83755 0.83999 0.0
H1299 H 0.05054 0.77205 0.88168 0.0
H1300 H 0.05993 0.80592 0.87884 0.0
H1301 H 0.04043 0.78812 0.85569 0.0
H1302 H 0.09528 0.79111 0.80068 0.0
H1303 H 0.05862 0.82204 0.7784 0.0
loop_
_geom_bond_atom_site_label_1
_geom_bond_atom_site_label_2
_geom_bond_distance
_geom_bond_site_symmetry_2
_ccdc_geom_bond_type
C0 N1 1.317 . S
C0 N2 1.348 . S
C0 C3 1.485 . S
N1 C0 1.317 . S
N1 N5 1.370 . S
N2 C0 1.348 . S
N2 C4 1.346 . S
C3 C0 1.485 . S
C3 H7 0.960 . S
C3 H8 0.961 . S
C3 H9 0.960 . S
C4 N2 1.346 . S
C4 N5 1.307 . S
C4 C6 1.486 . S
N5 N1 1.370 . S
N5 C4 1.307 . S
C6 C4 1.486 . S
C6 H10 0.960 . S
C6 H11 0.960 . S
C6 H12 0.959 . S
H7 C3 0.960 . S
H8 C3 0.961 . S
H9 C3 0.960 . S
H10 C6 0.960 . S
H11 C6 0.960 . S
H12 C6 0.959 . S
C13 N14 1.317 . S
C13 N15 1.348 . S
C13 C16 1.485 . S
N14 C13 1.317 . S
N14 N18 1.370 . S
N15 C13 1.348 . S
N15 C17 1.346 . S
C16 C13 1.485 . S
C16 H20 0.960 . S
C16 H21 0.961 . S
C16 H22 0.960 . S
C17 N15 1.346 . S
C17 N18 1.307 . S
C17 C19 1.486 . S
N18 N14 1.370 . S
N18 C17 1.307 . S
C19 C17 1.486 . S
C19 H23 0.960 . S
C19 H24 0.960 . S
C19 H25 0.959 . S
H20 C16 0.960 . S
H21 C16 0.961 . S
H22 C16 0.960 . S
H23 C19 0.960 . S
H24 C19 0.960 . S
H25 C19 0.959 . S
C26 N27 1.317 . S
C26 N28 1.348 . S
C26 C29 1.485 . S
N27 C26 1.317 . S
N27 N31 1.370 . S
N28 C26 1.348 . S
N28 C30 1.346 . S
C29 C26 1.485 . S
C29 H33 0.960 . S
C29 H34 0.961 . S
C29 H35 0.960 . S
C30 N28 1.346 . S
C30 N31 1.307 . S
C30 C32 1.486 . S
N31 N27 1.370 . S
N31 C30 1.307 . S
C32 C30 1.486 . S
C32 H36 0.960 . S
C32 H37 0.960 . S
C32 H38 0.959 . S
H33 C29 0.960 . S
H34 C29 0.961 . S
H35 C29 0.960 . S
H36 C32 0.960 . S
H37 C32 0.960 . S
H38 C32 0.959 . S
C39 N40 1.317 . S
C39 N41 1.348 . S
C39 C42 1.485 . S
N40 C39 1.317 . S
N40 N44 1.370 . S
N41 C39 1.348 . S
N41 C43 1.346 . S
C42 C39 1.485 . S
C42 H46 0.960 . S
C42 H47 0.961 . S
C42 H48 0.960 . S
C43 N41 1.346 . S
C43 N44 1.307 . S
C43 C45 1.486 . S
N44 N40 1.370 . S
N44 C43 1.307 . S
C45 C43 1.486 . S
C45 H49 0.960 . S
C45 H50 0.960 . S
C45 H51 0.959 . S
H46 C42 0.960 . S
H47 C42 0.961 . S
H48 C42 0.960 . S
H49 C45 0.960 . S
H50 C45 0.960 . S
H51 C45 0.959 . S
C52 N53 1.317 . S
C52 N54 1.348 . S
C52 C55 1.485 . S
N53 C52 1.317 . S
N53 N57 1.370 . S
N54 C52 1.348 . S
N54 C56 1.346 . S
C55 C52 1.485 . S
C55 H59 0.960 . S
C55 H60 0.961 . S
C55 H61 0.960 . S
C56 N54 1.346 . S
C56 N57 1.307 . S
C56 C58 1.486 . S
N57 N53 1.370 . S
N57 C56 1.307 . S
C58 C56 1.486 . S
C58 H62 0.960 . S
C58 H63 0.960 . S
C58 H64 0.959 . S
H59 C55 0.960 . S
H60 C55 0.961 . S
H61 C55 0.960 . S
H62 C58 0.960 . S
H63 C58 0.960 . S
H64 C58 0.959 . S
C65 N66 1.317 . S
C65 N67 1.348 . S
C65 C68 1.485 . S
N66 C65 1.317 . S
N66 N70 1.370 . S
N67 C65 1.348 . S
N67 C69 1.346 . S
C68 C65 1.485 . S
C68 H72 0.960 . S
C68 H73 0.961 . S
C68 H74 0.960 . S
C69 N67 1.346 . S
C69 N70 1.307 . S
C69 C71 1.486 . S
N70 N66 1.370 . S
N70 C69 1.307 . S
C71 C69 1.486 . S
C71 H75 0.960 . S
C71 H76 0.960 . S
C71 H77 0.959 . S
H72 C68 0.960 . S
H73 C68 0.961 . S
H74 C68 0.960 . S
H75 C71 0.960 . S
H76 C71 0.960 . S
H77 C71 0.959 . S
C78 N79 1.317 . S
C78 N80 1.348 . S
C78 C81 1.485 . S
N79 C78 1.317 . S
N79 N83 1.370 . S
N80 C78 1.348 . S
N80 C82 1.346 . S
C81 C78 1.485 . S
C81 H85 0.960 . S
C81 H86 0.961 . S
C81 H87 0.960 . S
C82 N80 1.346 . S
C82 N83 1.307 . S
C82 C84 1.486 . S
N83 N79 1.370 . S
N83 C82 1.307 . S
C84 C82 1.486 . S
C84 H88 0.960 . S
C84 H89 0.960 . S
C84 H90 0.959 . S
H85 C81 0.960 . S
H86 C81 0.961 . S
H87 C81 0.960 . S
H88 C84 0.960 . S
H89 C84 0.960 . S
H90 C84 0.959 . S
C91 N92 1.317 . S
C91 N93 1.348 . S
C91 C94 1.485 . S
N92 C91 1.317 . S
N92 N96 1.370 . S
N93 C91 1.348 . S
N93 C95 1.346 . S
C94 C91 1.485 . S
C94 H98 0.960 . S
C94 H99 0.961 . S
C94 H100 0.960 . S
C95 N93 1.346 . S
C95 N96 1.307 . S
C95 C97 1.486 . S
N96 N92 1.370 . S
N96 C95 1.307 . S
C97 C95 1.486 . S
C97 H101 0.960 . S
C97 H102 0.960 . S
C97 H103 0.959 . S
H98 C94 0.960 . S
H99 C94 0.961 . S
H100 C94 0.960 . S
H101 C97 0.960 . S
H102 C97 0.960 . S
H103 C97 0.959 . S
C104 C106 1.422 . S
C104 C108 1.415 . S
C104 N110 1.369 . S
C105 C106 1.421 . S
C105 C107 1.417 . S
C105 C117 1.422 . S
C106 C104 1.422 . S
C106 C105 1.421 . S
C106 N116 1.359 . S
C107 C105 1.417 . S
C107 C109 1.329 . S
C107 H126 0.930 . S
C108 C104 1.415 . S
C108 C109 1.437 . S
C108 C112 1.413 . S
C109 C107 1.329 . S
C109 C108 1.437 . S
C109 H131 0.929 . S
N110 C104 1.369 . S
N110 C111 1.338 . S
N110 Gd115 2.622 . S
C111 N110 1.338 . S
C111 C113 1.378 . S
C111 H123 0.929 . S
C112 C108 1.413 . S
C112 C113 1.348 . S
C112 H128 0.931 . S
C113 C111 1.378 . S
C113 C112 1.348 . S
C113 H129 0.930 . S
Gd114 N134 2.622 . S
Gd114 N141 2.570 . S
Gd114 O148 2.353 . S
Gd114 O149 2.468 . S
Gd114 O150 2.427 . S
Gd114 O152 2.388 . S
Gd114 O153 2.386 . S
Gd114 O157 2.307 . S
Gd114 C167 2.805 . S
Gd115 N110 2.622 . S
Gd115 N116 2.570 . S
Gd115 O147 2.386 . S
Gd115 O151 2.307 1_655 S
Gd115 O154 2.353 1_655 S
Gd115 O155 2.468 . S
Gd115 O156 2.427 . S
Gd115 O158 2.388 . S
Gd115 C179 2.805 . S
N116 C106 1.359 . S
N116 Gd115 2.570 . S
N116 C118 1.343 . S
C117 C105 1.422 . S
C117 C119 1.321 . S
C117 H125 0.931 . S
C118 N116 1.343 . S
C118 C119 1.390 . S
C118 H120 0.931 . S
C119 C117 1.321 . S
C119 C118 1.390 . S
C119 H121 0.930 . S
H120 C118 0.931 . S
H121 C119 0.930 . S
H122 C145 0.931 . S
H123 C111 0.929 . S
H124 C146 0.930 . S
H125 C117 0.931 . S
H126 C107 0.930 . S
H127 C136 0.929 . S
H128 C112 0.931 . S
H129 C113 0.930 . S
H130 C168 0.930 . S
H131 C109 0.929 . S
H132 C137 0.931 . S
H133 C138 0.930 . S
N134 Gd114 2.622 . S
N134 C135 1.369 . S
N134 C136 1.338 . S
C135 N134 1.369 . S
C135 C139 1.415 . S
C135 C142 1.422 . S
C136 H127 0.929 . S
C136 N134 1.338 . S
C136 C138 1.378 . S
C137 H132 0.931 . S
C137 C138 1.348 . S
C137 C139 1.413 . S
C138 H133 0.930 . S
C138 C136 1.378 . S
C138 C137 1.348 . S
C139 C135 1.415 . S
C139 C137 1.413 . S
C139 C169 1.437 . S
H140 C169 0.929 . S
N141 Gd114 2.570 . S
N141 C142 1.359 . S
N141 C145 1.343 . S
C142 C135 1.422 . S
C142 N141 1.359 . S
C142 C144 1.421 . S
C143 C144 1.422 . S
C143 C146 1.321 . S
C143 H170 0.931 . S
C144 C142 1.421 . S
C144 C143 1.422 . S
C144 C168 1.417 . S
C145 H122 0.931 . S
C145 N141 1.343 . S
C145 C146 1.390 . S
C146 H124 0.930 . S
C146 C143 1.321 . S
C146 C145 1.390 . S
O147 Gd115 2.386 . S
O147 C159 1.265 . S
O148 Gd114 2.353 . S
O148 C159 1.242 1_455 S
O149 Gd114 2.468 . S
O149 C167 1.263 . S
O150 Gd114 2.427 . S
O150 C167 1.252 . S
O151 Gd115 2.307 1_455 S
O151 C160 1.261 . S
O152 Gd114 2.388 . S
O152 C160 1.252 . S
O153 Gd114 2.386 . S
O153 C171 1.265 . S
O154 Gd115 2.353 1_455 S
O154 C171 1.242 . S
O155 Gd115 2.468 . S
O155 C179 1.263 . S
O156 Gd115 2.427 . S
O156 C179 1.252 . S
O157 Gd114 2.307 . S
O157 C172 1.261 1_455 S
O158 Gd115 2.388 . S
O158 C172 1.252 . S
C159 O147 1.265 . S
C159 O148 1.242 1_655 S
C160 O151 1.261 . S
C160 O152 1.252 . S
C161 C164 1.394 . S
C161 C166 1.370 . S
C161 C167 1.500 . S
C162 C165 1.383 . S
C162 C166 1.395 . S
C163 C164 1.396 . S
C163 C165 1.365 . S
C163 H180 0.929 . S
C164 C161 1.394 . S
C164 C163 1.396 . S
C164 H181 0.930 . S
C165 C162 1.383 . S
C165 C163 1.365 . S
C165 H182 0.931 . S
C166 C161 1.370 . S
C166 C162 1.395 . S
C166 H183 0.930 . S
C167 Gd114 2.805 . S
C167 O149 1.263 . S
C167 O150 1.252 . S
C167 C161 1.500 . S
C168 H130 0.930 . S
C168 C144 1.417 . S
C168 C169 1.329 . S
C169 C139 1.437 . S
C169 H140 0.929 . S
C169 C168 1.329 . S
H170 C143 0.931 . S
C171 O153 1.265 . S
C171 O154 1.242 . S
C172 O157 1.261 1_655 S
C172 O158 1.252 . S
C173 C176 1.394 . S
C173 C178 1.370 . S
C173 C179 1.500 . S
C174 C177 1.383 . S
C174 C178 1.395 . S
C175 C176 1.396 . S
C175 C177 1.365 . S
C175 H184 0.929 . S
C176 C173 1.394 . S
C176 C175 1.396 . S
C176 H185 0.930 . S
C177 C174 1.383 . S
C177 C175 1.365 . S
C177 H186 0.931 . S
C178 C173 1.370 . S
C178 C174 1.395 . S
C178 H187 0.930 . S
C179 Gd115 2.805 . S
C179 O155 1.263 . S
C179 O156 1.252 . S
C179 C173 1.500 . S
H180 C163 0.929 . S
H181 C164 0.930 . S
H182 C165 0.931 . S
H183 C166 0.930 . S
H184 C175 0.929 . S
H185 C176 0.930 . S
H186 C177 0.931 . S
H187 C178 0.930 . S
C188 C190 1.422 . S
C188 C192 1.415 . S
C188 N194 1.369 . S
C189 C190 1.421 . S
C189 C191 1.417 . S
C189 C201 1.422 . S
C190 C188 1.422 . S
C190 C189 1.421 . S
C190 N200 1.359 . S
C191 C189 1.417 . S
C191 C193 1.329 . S
C191 H210 0.930 . S
C192 C188 1.415 . S
C192 C193 1.437 . S
C192 C196 1.413 . S
C193 C191 1.329 . S
C193 C192 1.437 . S
C193 H215 0.929 . S
N194 C188 1.369 . S
N194 C195 1.338 . S
N194 Gd199 2.622 . S
C195 N194 1.338 . S
C195 C197 1.378 . S
C195 H207 0.929 . S
C196 C192 1.413 . S
C196 C197 1.348 . S
C196 H212 0.931 . S
C197 C195 1.378 . S
C197 C196 1.348 . S
C197 H213 0.930 . S
Gd198 N218 2.622 . S
Gd198 N225 2.570 . S
Gd198 O232 2.353 . S
Gd198 O233 2.468 . S
Gd198 O234 2.427 . S
Gd198 O236 2.388 . S
Gd198 O237 2.386 . S
Gd198 O241 2.307 . S
Gd198 C251 2.805 . S
Gd199 N194 2.622 . S
Gd199 N200 2.570 . S
Gd199 O231 2.386 . S
Gd199 O235 2.307 . S
Gd199 O238 2.353 . S
Gd199 O239 2.468 . S
Gd199 O240 2.427 . S
Gd199 O242 2.388 . S
Gd199 C263 2.805 . S
N200 C190 1.359 . S
N200 Gd199 2.570 . S
N200 C202 1.343 . S
C201 C189 1.422 . S
C201 C203 1.321 . S
C201 H209 0.931 . S
C202 N200 1.343 . S
C202 C203 1.390 . S
C202 H204 0.931 . S
C203 C201 1.321 . S
C203 C202 1.390 . S
C203 H205 0.930 . S
H204 C202 0.931 . S
H205 C203 0.930 . S
H206 C229 0.931 . S
H207 C195 0.929 . S
H208 C230 0.930 . S
H209 C201 0.931 . S
H210 C191 0.930 . S
H211 C220 0.929 . S
H212 C196 0.931 . S
H213 C197 0.930 . S
H214 C252 0.930 . S
H215 C193 0.929 . S
H216 C221 0.931 . S
H217 C222 0.930 . S
N218 Gd198 2.622 . S
N218 C219 1.369 . S
N218 C220 1.338 . S
C219 N218 1.369 . S
C219 C223 1.415 . S
C219 C226 1.422 . S
C220 H211 0.929 . S
C220 N218 1.338 . S
C220 C222 1.378 . S
C221 H216 0.931 . S
C221 C222 1.348 . S
C221 C223 1.413 . S
C222 H217 0.930 . S
C222 C220 1.378 . S
C222 C221 1.348 . S
C223 C219 1.415 . S
C223 C221 1.413 . S
C223 C253 1.437 . S
H224 C253 0.929 . S
N225 Gd198 2.570 . S
N225 C226 1.359 . S
N225 C229 1.343 . S
C226 C219 1.422 . S
C226 N225 1.359 . S
C226 C228 1.421 . S
C227 C228 1.422 . S
C227 C230 1.321 . S
C227 H254 0.931 . S
C228 C226 1.421 . S
C228 C227 1.422 . S
C228 C252 1.417 . S
C229 H206 0.931 . S
C229 N225 1.343 . S
C229 C230 1.390 . S
C230 H208 0.930 . S
C230 C227 1.321 . S
C230 C229 1.390 . S
O231 Gd199 2.386 . S
O231 C243 1.265 . S
O232 Gd198 2.353 . S
O232 C243 1.242 . S
O233 Gd198 2.468 . S
O233 C251 1.263 . S
O234 Gd198 2.427 . S
O234 C251 1.252 . S
O235 Gd199 2.307 . S
O235 C244 1.261 . S
O236 Gd198 2.388 . S
O236 C244 1.252 . S
O237 Gd198 2.386 . S
O237 C255 1.265 . S
O238 Gd199 2.353 . S
O238 C255 1.242 . S
O239 Gd199 2.468 . S
O239 C263 1.263 . S
O240 Gd199 2.427 . S
O240 C263 1.252 . S
O241 Gd198 2.307 . S
O241 C256 1.261 . S
O242 Gd199 2.388 . S
O242 C256 1.252 . S
C243 O231 1.265 . S
C243 O232 1.242 . S
C244 O235 1.261 . S
C244 O236 1.252 . S
C245 C248 1.394 . S
C245 C250 1.370 . S
C245 C251 1.500 . S
C246 C249 1.383 . S
C246 C250 1.395 . S
C247 C248 1.396 . S
C247 C249 1.365 . S
C247 H264 0.929 . S
C248 C245 1.394 . S
C248 C247 1.396 . S
C248 H265 0.930 . S
C249 C246 1.383 . S
C249 C247 1.365 . S
C249 H266 0.931 . S
C250 C245 1.370 . S
C250 C246 1.395 . S
C250 H267 0.930 . S
C251 Gd198 2.805 . S
C251 O233 1.263 . S
C251 O234 1.252 . S
C251 C245 1.500 . S
C252 H214 0.930 . S
C252 C228 1.417 . S
C252 C253 1.329 . S
C253 C223 1.437 . S
C253 H224 0.929 . S
C253 C252 1.329 . S
H254 C227 0.931 . S
C255 O237 1.265 . S
C255 O238 1.242 . S
C256 O241 1.261 . S
C256 O242 1.252 . S
C257 C260 1.394 . S
C257 C262 1.370 . S
C257 C263 1.500 . S
C258 C261 1.383 . S
C258 C262 1.395 . S
C259 C260 1.396 . S
C259 C261 1.365 . S
C259 H268 0.929 . S
C260 C257 1.394 . S
C260 C259 1.396 . S
C260 H269 0.930 . S
C261 C258 1.383 . S
C261 C259 1.365 . S
C261 H270 0.931 . S
C262 C257 1.370 . S
C262 C258 1.395 . S
C262 H271 0.930 . S
C263 Gd199 2.805 . S
C263 O239 1.263 . S
C263 O240 1.252 . S
C263 C257 1.500 . S
H264 C247 0.929 . S
H265 C248 0.930 . S
H266 C249 0.931 . S
H267 C250 0.930 . S
H268 C259 0.929 . S
H269 C260 0.930 . S
H270 C261 0.931 . S
H271 C262 0.930 . S
C272 C274 1.422 . S
C272 C276 1.415 . S
C272 N278 1.369 . S
C273 C274 1.421 . S
C273 C275 1.417 . S
C273 C285 1.422 . S
C274 C272 1.422 . S
C274 C273 1.421 . S
C274 N284 1.359 . S
C275 C273 1.417 . S
C275 C277 1.329 . S
C275 H294 0.930 . S
C276 C272 1.415 . S
C276 C277 1.437 . S
C276 C280 1.413 . S
C277 C275 1.329 . S
C277 C276 1.437 . S
C277 H299 0.929 . S
N278 C272 1.369 . S
N278 C279 1.338 . S
N278 Gd283 2.622 . S
C279 N278 1.338 . S
C279 C281 1.378 . S
C279 H291 0.929 . S
C280 C276 1.413 . S
C280 C281 1.348 . S
C280 H296 0.931 . S
C281 C279 1.378 . S
C281 C280 1.348 . S
C281 H297 0.930 . S
Gd282 N302 2.622 . S
Gd282 N309 2.570 . S
Gd282 O316 2.353 . S
Gd282 O317 2.468 . S
Gd282 O318 2.427 . S
Gd282 O320 2.388 . S
Gd282 O321 2.386 . S
Gd282 O325 2.307 . S
Gd282 C335 2.805 . S
Gd283 N278 2.622 . S
Gd283 N284 2.570 . S
Gd283 O315 2.386 . S
Gd283 O319 2.307 1_655 S
Gd283 O322 2.353 1_655 S
Gd283 O323 2.468 . S
Gd283 O324 2.427 . S
Gd283 O326 2.388 . S
Gd283 C347 2.805 . S
N284 C274 1.359 . S
N284 Gd283 2.570 . S
N284 C286 1.343 . S
C285 C273 1.422 . S
C285 C287 1.321 . S
C285 H293 0.931 . S
C286 N284 1.343 . S
C286 C287 1.390 . S
C286 H288 0.931 . S
C287 C285 1.321 . S
C287 C286 1.390 . S
C287 H289 0.930 . S
H288 C286 0.931 . S
H289 C287 0.930 . S
H290 C313 0.931 . S
H291 C279 0.929 . S
H292 C314 0.930 . S
H293 C285 0.931 . S
H294 C275 0.930 . S
H295 C304 0.929 . S
H296 C280 0.931 . S
H297 C281 0.930 . S
H298 C336 0.930 . S
H299 C277 0.929 . S
H300 C305 0.931 . S
H301 C306 0.930 . S
N302 Gd282 2.622 . S
N302 C303 1.369 . S
N302 C304 1.338 . S
C303 N302 1.369 . S
C303 C307 1.415 . S
C303 C310 1.422 . S
C304 H295 0.929 . S
C304 N302 1.338 . S
C304 C306 1.378 . S
C305 H300 0.931 . S
C305 C306 1.348 . S
C305 C307 1.413 . S
C306 H301 0.930 . S
C306 C304 1.378 . S
C306 C305 1.348 . S
C307 C303 1.415 . S
C307 C305 1.413 . S
C307 C337 1.437 . S
H308 C337 0.929 . S
N309 Gd282 2.570 . S
N309 C310 1.359 . S
N309 C313 1.343 . S
C310 C303 1.422 . S
C310 N309 1.359 . S
C310 C312 1.421 . S
C311 C312 1.422 . S
C311 C314 1.321 . S
C311 H338 0.931 . S
C312 C310 1.421 . S
C312 C311 1.422 . S
C312 C336 1.417 . S
C313 H290 0.931 . S
C313 N309 1.343 . S
C313 C314 1.390 . S
C314 H292 0.930 . S
C314 C311 1.321 . S
C314 C313 1.390 . S
O315 Gd283 2.386 . S
O315 C327 1.265 . S
O316 Gd282 2.353 . S
O316 C327 1.242 1_455 S
O317 Gd282 2.468 . S
O317 C335 1.263 . S
O318 Gd282 2.427 . S
O318 C335 1.252 . S
O319 Gd283 2.307 1_455 S
O319 C328 1.261 . S
O320 Gd282 2.388 . S
O320 C328 1.252 . S
O321 Gd282 2.386 . S
O321 C339 1.265 . S
O322 Gd283 2.353 1_455 S
O322 C339 1.242 . S
O323 Gd283 2.468 . S
O323 C347 1.263 . S
O324 Gd283 2.427 . S
O324 C347 1.252 . S
O325 Gd282 2.307 . S
O325 C340 1.261 1_455 S
O326 Gd283 2.388 . S
O326 C340 1.252 . S
C327 O315 1.265 . S
C327 O316 1.242 1_655 S
C328 O319 1.261 . S
C328 O320 1.252 . S
C329 C332 1.394 . S
C329 C334 1.370 . S
C329 C335 1.500 . S
C330 C333 1.383 . S
C330 C334 1.395 . S
C331 C332 1.396 . S
C331 C333 1.365 . S
C331 H348 0.929 . S
C332 C329 1.394 . S
C332 C331 1.396 . S
C332 H349 0.930 . S
C333 C330 1.383 . S
C333 C331 1.365 . S
C333 H350 0.931 . S
C334 C329 1.370 . S
C334 C330 1.395 . S
C334 H351 0.930 . S
C335 Gd282 2.805 . S
C335 O317 1.263 . S
C335 O318 1.252 . S
C335 C329 1.500 . S
C336 H298 0.930 . S
C336 C312 1.417 . S
C336 C337 1.329 . S
C337 C307 1.437 . S
C337 H308 0.929 . S
C337 C336 1.329 . S
H338 C311 0.931 . S
C339 O321 1.265 . S
C339 O322 1.242 . S
C340 O325 1.261 1_655 S
C340 O326 1.252 . S
C341 C344 1.394 . S
C341 C346 1.370 . S
C341 C347 1.500 . S
C342 C345 1.383 . S
C342 C346 1.395 . S
C343 C344 1.396 . S
C343 C345 1.365 . S
C343 H352 0.929 . S
C344 C341 1.394 . S
C344 C343 1.396 . S
C344 H353 0.930 . S
C345 C342 1.383 . S
C345 C343 1.365 . S
C345 H354 0.931 . S
C346 C341 1.370 . S
C346 C342 1.395 . S
C346 H355 0.930 . S
C347 Gd283 2.805 . S
C347 O323 1.263 . S
C347 O324 1.252 . S
C347 C341 1.500 . S
H348 C331 0.929 . S
H349 C332 0.930 . S
H350 C333 0.931 . S
H351 C334 0.930 . S
H352 C343 0.929 . S
H353 C344 0.930 . S
H354 C345 0.931 . S
H355 C346 0.930 . S
C356 C358 1.422 . S
C356 C360 1.415 . S
C356 N362 1.369 . S
C357 C358 1.421 . S
C357 C359 1.417 . S
C357 C369 1.422 . S
C358 C356 1.422 . S
C358 C357 1.421 . S
C358 N368 1.359 . S
C359 C357 1.417 . S
C359 C361 1.329 . S
C359 H378 0.930 . S
C360 C356 1.415 . S
C360 C361 1.437 . S
C360 C364 1.413 . S
C361 C359 1.329 . S
C361 C360 1.437 . S
C361 H383 0.929 . S
N362 C356 1.369 . S
N362 C363 1.338 . S
N362 Gd367 2.622 . S
C363 N362 1.338 . S
C363 C365 1.378 . S
C363 H375 0.929 . S
C364 C360 1.413 . S
C364 C365 1.348 . S
C364 H380 0.931 . S
C365 C363 1.378 . S
C365 C364 1.348 . S
C365 H381 0.930 . S
Gd366 N386 2.622 . S
Gd366 N393 2.570 . S
Gd366 O400 2.353 . S
Gd366 O401 2.468 . S
Gd366 O402 2.427 . S
Gd366 O404 2.388 . S
Gd366 O405 2.386 . S
Gd366 O409 2.307 . S
Gd366 C419 2.805 . S
Gd367 N362 2.622 . S
Gd367 N368 2.570 . S
Gd367 O399 2.386 . S
Gd367 O403 2.307 . S
Gd367 O406 2.353 . S
Gd367 O407 2.468 . S
Gd367 O408 2.427 . S
Gd367 O410 2.388 . S
Gd367 C431 2.805 . S
N368 C358 1.359 . S
N368 Gd367 2.570 . S
N368 C370 1.343 . S
C369 C357 1.422 . S
C369 C371 1.321 . S
C369 H377 0.931 . S
C370 N368 1.343 . S
C370 C371 1.390 . S
C370 H372 0.931 . S
C371 C369 1.321 . S
C371 C370 1.390 . S
C371 H373 0.930 . S
H372 C370 0.931 . S
H373 C371 0.930 . S
H374 C397 0.931 . S
H375 C363 0.929 . S
H376 C398 0.930 . S
H377 C369 0.931 . S
H378 C359 0.930 . S
H379 C388 0.929 . S
H380 C364 0.931 . S
H381 C365 0.930 . S
H382 C420 0.930 . S
H383 C361 0.929 . S
H384 C389 0.931 . S
H385 C390 0.930 . S
N386 Gd366 2.622 . S
N386 C387 1.369 . S
N386 C388 1.338 . S
C387 N386 1.369 . S
C387 C391 1.415 . S
C387 C394 1.422 . S
C388 H379 0.929 . S
C388 N386 1.338 . S
C388 C390 1.378 . S
C389 H384 0.931 . S
C389 C390 1.348 . S
C389 C391 1.413 . S
C390 H385 0.930 . S
C390 C388 1.378 . S
C390 C389 1.348 . S
C391 C387 1.415 . S
C391 C389 1.413 . S
C391 C421 1.437 . S
H392 C421 0.929 . S
N393 Gd366 2.570 . S
N393 C394 1.359 . S
N393 C397 1.343 . S
C394 C387 1.422 . S
C394 N393 1.359 . S
C394 C396 1.421 . S
C395 C396 1.422 . S
C395 C398 1.321 . S
C395 H422 0.931 . S
C396 C394 1.421 . S
C396 C395 1.422 . S
C396 C420 1.417 . S
C397 H374 0.931 . S
C397 N393 1.343 . S
C397 C398 1.390 . S
C398 H376 0.930 . S
C398 C395 1.321 . S
C398 C397 1.390 . S
O399 Gd367 2.386 . S
O399 C411 1.265 . S
O400 Gd366 2.353 . S
O400 C411 1.242 . S
O401 Gd366 2.468 . S
O401 C419 1.263 . S
O402 Gd366 2.427 . S
O402 C419 1.252 . S
O403 Gd367 2.307 . S
O403 C412 1.261 . S
O404 Gd366 2.388 . S
O404 C412 1.252 . S
O405 Gd366 2.386 . S
O405 C423 1.265 . S
O406 Gd367 2.353 . S
O406 C423 1.242 . S
O407 Gd367 2.468 . S
O407 C431 1.263 . S
O408 Gd367 2.427 . S
O408 C431 1.252 . S
O409 Gd366 2.307 . S
O409 C424 1.261 . S
O410 Gd367 2.388 . S
O410 C424 1.252 . S
C411 O399 1.265 . S
C411 O400 1.242 . S
C412 O403 1.261 . S
C412 O404 1.252 . S
C413 C416 1.394 . S
C413 C418 1.370 . S
C413 C419 1.500 . S
C414 C417 1.383 . S
C414 C418 1.395 . S
C415 C416 1.396 . S
C415 C417 1.365 . S
C415 H432 0.929 . S
C416 C413 1.394 . S
C416 C415 1.396 . S
C416 H433 0.930 . S
C417 C414 1.383 . S
C417 C415 1.365 . S
C417 H434 0.931 . S
C418 C413 1.370 . S
C418 C414 1.395 . S
C418 H435 0.930 . S
C419 Gd366 2.805 . S
C419 O401 1.263 . S
C419 O402 1.252 . S
C419 C413 1.500 . S
C420 H382 0.930 . S
C420 C396 1.417 . S
C420 C421 1.329 . S
C421 C391 1.437 . S
C421 H392 0.929 . S
C421 C420 1.329 . S
H422 C395 0.931 . S
C423 O405 1.265 . S
C423 O406 1.242 . S
C424 O409 1.261 . S
C424 O410 1.252 . S
C425 C428 1.394 . S
C425 C430 1.370 . S
C425 C431 1.500 . S
C426 C429 1.383 . S
C426 C430 1.395 . S
C427 C428 1.396 . S
C427 C429 1.365 . S
C427 H436 0.929 . S
C428 C425 1.394 . S
C428 C427 1.396 . S
C428 H437 0.930 . S
C429 C426 1.383 . S
C429 C427 1.365 . S
C429 H438 0.931 . S
C430 C425 1.370 . S
C430 C426 1.395 . S
C430 H439 0.930 . S
C431 Gd367 2.805 . S
C431 O407 1.263 . S
C431 O408 1.252 . S
C431 C425 1.500 . S
H432 C415 0.929 . S
H433 C416 0.930 . S
H434 C417 0.931 . S
H435 C418 0.930 . S
H436 C427 0.929 . S
H437 C428 0.930 . S
H438 C429 0.931 . S
H439 C430 0.930 . S
H440 C448 0.929 . S
H441 C450 0.930 . S
H442 C452 0.930 . S
H443 C455 0.929 . S
H444 C458 0.930 . S
H445 C460 0.960 . S
H446 C460 0.960 . S
H447 C460 0.960 . S
C448 H440 0.929 . S
C448 C449 1.377 . S
C448 C450 1.384 . S
C449 C448 1.377 . S
C449 C455 1.390 . S
C450 H441 0.930 . S
C450 C448 1.384 . S
C450 C451 1.372 . S
C451 C450 1.372 . S
C451 C452 1.400 . S
C451 C456 1.490 . S
C452 H442 0.930 . S
C452 C451 1.400 . S
C452 C455 1.386 . S
H453 C469 0.930 . S
H454 C470 0.931 . S
C455 H443 0.929 . S
C455 C449 1.390 . S
C455 C452 1.386 . S
C456 C451 1.490 . S
C456 C458 1.395 . S
C456 C459 1.403 . S
H457 C463 0.930 . S
C458 H444 0.930 . S
C458 C456 1.395 . S
C458 C461 1.403 . S
C459 C456 1.403 . S
C459 C460 1.524 . S
C459 C463 1.400 . S
C460 H445 0.960 . S
C460 H446 0.960 . S
C460 H447 0.960 . S
C460 C459 1.524 . S
C461 C458 1.403 . S
C461 C462 1.392 . S
C461 C465 1.495 . S
C462 C461 1.392 . S
C462 C463 1.385 . S
C462 C464 1.478 1_565 S
C463 H457 0.930 . S
C463 C459 1.400 . S
C463 C462 1.385 . S
C464 C462 1.478 1_545 S
C464 C466 1.381 . S
C464 C470 1.383 . S
C465 C461 1.495 . S
C465 H471 0.959 . S
C465 H472 0.961 1_565 S
C465 H473 0.960 . S
C466 C464 1.381 . S
C466 C467 1.394 . S
C466 H474 0.930 1_545 S
C467 C466 1.394 . S
C467 C468 1.383 . S
C467 H475 0.929 . S
C468 C467 1.383 . S
C468 C469 1.377 . S
C469 H453 0.930 . S
C469 C468 1.377 . S
C469 C470 1.379 . S
C470 H454 0.931 . S
C470 C464 1.383 . S
C470 C469 1.379 . S
H471 C465 0.959 . S
H472 C465 0.961 1_545 S
H473 C465 0.960 . S
H474 C466 0.930 1_565 S
H475 C467 0.929 . S
H476 C484 0.929 . S
H477 C486 0.930 . S
H478 C488 0.930 . S
H479 C491 0.929 . S
H480 C494 0.930 . S
H481 C496 0.960 . S
H482 C496 0.960 . S
H483 C496 0.960 . S
C484 H476 0.929 . S
C484 C485 1.377 . S
C484 C486 1.384 . S
C485 C484 1.377 . S
C485 C491 1.390 . S
C486 H477 0.930 . S
C486 C484 1.384 . S
C486 C487 1.372 . S
C487 C486 1.372 . S
C487 C488 1.400 . S
C487 C492 1.490 . S
C488 H478 0.930 . S
C488 C487 1.400 . S
C488 C491 1.386 . S
H489 C505 0.930 . S
H490 C506 0.931 . S
C491 H479 0.929 . S
C491 C485 1.390 . S
C491 C488 1.386 . S
C492 C487 1.490 . S
C492 C494 1.395 . S
C492 C495 1.403 . S
H493 C499 0.930 . S
C494 H480 0.930 . S
C494 C492 1.395 . S
C494 C497 1.403 . S
C495 C492 1.403 . S
C495 C496 1.524 . S
C495 C499 1.400 . S
C496 H481 0.960 . S
C496 H482 0.960 . S
C496 H483 0.960 . S
C496 C495 1.524 . S
C497 C494 1.403 . S
C497 C498 1.392 . S
C497 C501 1.495 . S
C498 C497 1.392 . S
C498 C499 1.385 . S
C498 C500 1.478 . S
C499 H493 0.930 . S
C499 C495 1.400 . S
C499 C498 1.385 . S
C500 C498 1.478 . S
C500 C502 1.381 . S
C500 C506 1.383 . S
C501 C497 1.495 . S
C501 H507 0.959 . S
C501 H508 0.961 . S
C501 H509 0.960 . S
C502 C500 1.381 . S
C502 C503 1.394 . S
C502 H510 0.930 . S
C503 C502 1.394 . S
C503 C504 1.383 . S
C503 H511 0.929 . S
C504 C503 1.383 . S
C504 C505 1.377 . S
C505 H489 0.930 . S
C505 C504 1.377 . S
C505 C506 1.379 . S
C506 H490 0.931 . S
C506 C500 1.383 . S
C506 C505 1.379 . S
H507 C501 0.959 . S
H508 C501 0.961 . S
H509 C501 0.960 . S
H510 C502 0.930 . S
H511 C503 0.929 . S
H512 C520 0.929 . S
H513 C522 0.930 . S
H514 C524 0.930 . S
H515 C527 0.929 . S
H516 C530 0.930 . S
H517 C532 0.960 . S
H518 C532 0.960 . S
H519 C532 0.960 . S
C520 H512 0.929 . S
C520 C521 1.377 . S
C520 C522 1.384 . S
C521 C520 1.377 . S
C521 C527 1.390 . S
C522 H513 0.930 . S
C522 C520 1.384 . S
C522 C523 1.372 . S
C523 C522 1.372 . S
C523 C524 1.400 . S
C523 C528 1.490 . S
C524 H514 0.930 . S
C524 C523 1.400 . S
C524 C527 1.386 . S
H525 C541 0.930 . S
H526 C542 0.931 . S
C527 H515 0.929 . S
C527 C521 1.390 . S
C527 C524 1.386 . S
C528 C523 1.490 . S
C528 C530 1.395 . S
C528 C531 1.403 . S
H529 C535 0.930 . S
C530 H516 0.930 . S
C530 C528 1.395 . S
C530 C533 1.403 . S
C531 C528 1.403 . S
C531 C532 1.524 . S
C531 C535 1.400 . S
C532 H517 0.960 . S
C532 H518 0.960 . S
C532 H519 0.960 . S
C532 C531 1.524 . S
C533 C530 1.403 . S
C533 C534 1.392 . S
C533 C537 1.495 . S
C534 C533 1.392 . S
C534 C535 1.385 . S
C534 C536 1.478 . S
C535 H529 0.930 . S
C535 C531 1.400 . S
C535 C534 1.385 . S
C536 C534 1.478 . S
C536 C538 1.381 . S
C536 C542 1.383 . S
C537 C533 1.495 . S
C537 H543 0.959 . S
C537 H544 0.961 . S
C537 H545 0.960 . S
C538 C536 1.381 . S
C538 C539 1.394 . S
C538 H546 0.930 . S
C539 C538 1.394 . S
C539 C540 1.383 . S
C539 H547 0.929 . S
C540 C539 1.383 . S
C540 C541 1.377 . S
C541 H525 0.930 . S
C541 C540 1.377 . S
C541 C542 1.379 . S
C542 H526 0.931 . S
C542 C536 1.383 . S
C542 C541 1.379 . S
H543 C537 0.959 . S
H544 C537 0.961 . S
H545 C537 0.960 . S
H546 C538 0.930 . S
H547 C539 0.929 . S
H548 C556 0.929 . S
H549 C558 0.930 . S
H550 C560 0.930 . S
H551 C563 0.929 . S
H552 C566 0.930 . S
H553 C568 0.960 1_545 S
H554 C568 0.960 . S
H555 C568 0.960 . S
C556 H548 0.929 . S
C556 C557 1.377 . S
C556 C558 1.384 . S
C557 C556 1.377 . S
C557 C563 1.390 . S
C558 H549 0.930 . S
C558 C556 1.384 . S
C558 C559 1.372 . S
C559 C558 1.372 . S
C559 C560 1.400 . S
C559 C564 1.490 . S
C560 H550 0.930 . S
C560 C559 1.400 . S
C560 C563 1.386 . S
H561 C577 0.930 . S
H562 C578 0.931 . S
C563 H551 0.929 . S
C563 C557 1.390 . S
C563 C560 1.386 . S
C564 C559 1.490 . S
C564 C566 1.395 . S
C564 C567 1.403 . S
H565 C571 0.930 1_545 S
C566 H552 0.930 . S
C566 C564 1.395 . S
C566 C569 1.403 . S
C567 C564 1.403 . S
C567 C568 1.524 . S
C567 C571 1.400 . S
C568 H553 0.960 1_565 S
C568 H554 0.960 . S
C568 H555 0.960 . S
C568 C567 1.524 . S
C569 C566 1.403 . S
C569 C570 1.392 . S
C569 C573 1.495 . S
C570 C569 1.392 . S
C570 C571 1.385 . S
C570 C572 1.478 1_565 S
C571 H565 0.930 1_565 S
C571 C567 1.400 . S
C571 C570 1.385 . S
C572 C570 1.478 1_545 S
C572 C574 1.381 . S
C572 C578 1.383 . S
C573 C569 1.495 . S
C573 H579 0.959 . S
C573 H580 0.961 . S
C573 H581 0.960 . S
C574 C572 1.381 . S
C574 C575 1.394 . S
C574 H582 0.921 1_545 S
C575 C574 1.394 . S
C575 C576 1.383 . S
C575 H583 0.929 . S
C576 C575 1.383 . S
C576 C577 1.377 . S
C577 H561 0.930 . S
C577 C576 1.377 . S
C577 C578 1.379 . S
C578 H562 0.931 . S
C578 C572 1.383 . S
C578 C577 1.379 . S
H579 C573 0.959 . S
H580 C573 0.961 . S
H581 C573 0.960 . S
H582 C574 0.921 1_565 S
H583 C575 0.929 . S
H584 C592 0.929 . S
H585 C594 0.930 . S
H586 C596 0.930 . S
H587 C599 0.929 . S
H588 C602 0.930 . S
H589 C604 0.960 . S
H590 C604 0.960 . S
H591 C604 0.960 . S
C592 H584 0.929 . S
C592 C593 1.377 . S
C592 C594 1.384 . S
C593 C592 1.377 . S
C593 C599 1.390 . S
C594 H585 0.930 . S
C594 C592 1.384 . S
C594 C595 1.372 . S
C595 C594 1.372 . S
C595 C596 1.400 . S
C595 C600 1.490 . S
C596 H586 0.930 . S
C596 C595 1.400 . S
C596 C599 1.386 . S
H597 C613 0.930 . S
H598 C614 0.931 1_545 S
C599 H587 0.929 . S
C599 C593 1.390 . S
C599 C596 1.386 . S
C600 C595 1.490 . S
C600 C602 1.395 . S
C600 C603 1.403 . S
H601 C607 0.930 1_565 S
C602 H588 0.930 . S
C602 C600 1.395 . S
C602 C605 1.403 . S
C603 C600 1.403 . S
C603 C604 1.524 . S
C603 C607 1.400 . S
C604 H589 0.960 . S
C604 H590 0.960 . S
C604 H591 0.960 . S
C604 C603 1.524 . S
C605 C602 1.403 . S
C605 C606 1.392 . S
C605 C609 1.495 . S
C606 C605 1.392 . S
C606 C607 1.385 . S
C606 C608 1.478 1_545 S
C607 H601 0.930 1_545 S
C607 C603 1.400 . S
C607 C606 1.385 . S
C608 C606 1.478 1_565 S
C608 C610 1.381 . S
C608 C614 1.383 . S
C609 C605 1.495 . S
C609 H615 0.959 . S
C609 H616 0.961 . S
C609 H617 0.960 . S
C610 C608 1.381 . S
C610 C611 1.394 . S
C610 H618 0.930 . S
C611 C610 1.394 . S
C611 C612 1.383 . S
C611 H619 0.929 . S
C612 C611 1.383 . S
C612 C613 1.377 . S
C613 H597 0.930 . S
C613 C612 1.377 . S
C613 C614 1.379 . S
C614 H598 0.931 1_565 S
C614 C608 1.383 . S
C614 C613 1.379 . S
H615 C609 0.959 . S
H616 C609 0.961 . S
H617 C609 0.960 . S
H618 C610 0.930 . S
H619 C611 0.929 . S
H620 C628 0.929 . S
H621 C630 0.930 . S
H622 C632 0.930 . S
H623 C635 0.929 . S
H624 C638 0.930 . S
H625 C640 0.960 . S
H626 C640 0.960 . S
H627 C640 0.960 . S
C628 H620 0.929 . S
C628 C629 1.377 . S
C628 C630 1.384 . S
C629 C628 1.377 . S
C629 C635 1.390 . S
C630 H621 0.930 . S
C630 C628 1.384 . S
C630 C631 1.372 . S
C631 C630 1.372 . S
C631 C632 1.400 . S
C631 C636 1.490 . S
C632 H622 0.930 . S
C632 C631 1.400 . S
C632 C635 1.386 . S
H633 C649 0.930 . S
H634 C650 0.931 . S
C635 H623 0.929 . S
C635 C629 1.390 . S
C635 C632 1.386 . S
C636 C631 1.490 . S
C636 C638 1.395 . S
C636 C639 1.403 . S
H637 C643 0.930 . S
C638 H624 0.930 . S
C638 C636 1.395 . S
C638 C641 1.403 . S
C639 C636 1.403 . S
C639 C640 1.524 . S
C639 C643 1.400 . S
C640 H625 0.960 . S
C640 H626 0.960 . S
C640 H627 0.960 . S
C640 C639 1.524 . S
C641 C638 1.403 . S
C641 C642 1.392 . S
C641 C645 1.495 . S
C642 C641 1.392 . S
C642 C643 1.385 . S
C642 C644 1.478 . S
C643 H637 0.930 . S
C643 C639 1.400 . S
C643 C642 1.385 . S
C644 C642 1.478 . S
C644 C646 1.381 . S
C644 C650 1.383 . S
C645 C641 1.495 . S
C645 H651 0.959 . S
C645 H652 0.961 . S
C645 H653 0.960 . S
C646 C644 1.381 . S
C646 C647 1.394 . S
C646 H654 0.930 . S
C647 C646 1.394 . S
C647 C648 1.383 . S
C647 H655 0.929 . S
C648 C647 1.383 . S
C648 C649 1.377 . S
C649 H633 0.930 . S
C649 C648 1.377 . S
C649 C650 1.379 . S
C650 H634 0.931 . S
C650 C644 1.383 . S
C650 C649 1.379 . S
H651 C645 0.959 . S
H652 C645 0.961 . S
H653 C645 0.960 . S
H654 C646 0.930 . S
H655 C647 0.929 . S
H656 C664 0.929 . S
H657 C666 0.930 . S
H658 C668 0.930 . S
H659 C671 0.929 . S
H660 C674 0.930 . S
H661 C676 0.960 . S
H662 C676 0.960 . S
H663 C676 0.960 . S
C664 H656 0.929 . S
C664 C665 1.377 . S
C664 C666 1.384 . S
C665 C664 1.377 . S
C665 C671 1.390 . S
C666 H657 0.930 . S
C666 C664 1.384 . S
C666 C667 1.372 . S
C667 C666 1.372 . S
C667 C668 1.400 . S
C667 C672 1.490 . S
C668 H658 0.930 . S
C668 C667 1.400 . S
C668 C671 1.386 . S
H669 C685 0.930 . S
H670 C686 0.931 . S
C671 H659 0.929 . S
C671 C665 1.390 . S
C671 C668 1.386 . S
C672 C667 1.490 . S
C672 C674 1.395 . S
C672 C675 1.403 . S
H673 C679 0.930 . S
C674 H660 0.930 . S
C674 C672 1.395 . S
C674 C677 1.403 . S
C675 C672 1.403 . S
C675 C676 1.524 . S
C675 C679 1.400 . S
C676 H661 0.960 . S
C676 H662 0.960 . S
C676 H663 0.960 . S
C676 C675 1.524 . S
C677 C674 1.403 . S
C677 C678 1.392 . S
C677 C681 1.495 . S
C678 C677 1.392 . S
C678 C679 1.385 . S
C678 C680 1.478 . S
C679 H673 0.930 . S
C679 C675 1.400 . S
C679 C678 1.385 . S
C680 C678 1.478 . S
C680 C682 1.381 . S
C680 C686 1.383 . S
C681 C677 1.495 . S
C681 H687 0.959 . S
C681 H688 0.961 . S
C681 H689 0.960 . S
C682 C680 1.381 . S
C682 C683 1.394 . S
C682 H690 0.930 . S
C683 C682 1.394 . S
C683 C684 1.383 . S
C683 H691 0.929 . S
C684 C683 1.383 . S
C684 C685 1.377 . S
C685 H669 0.930 . S
C685 C684 1.377 . S
C685 C686 1.379 . S
C686 H670 0.931 . S
C686 C680 1.383 . S
C686 C685 1.379 . S
H687 C681 0.959 . S
H688 C681 0.961 . S
H689 C681 0.960 . S
H690 C682 0.930 . S
H691 C683 0.929 . S
H692 C700 0.929 . S
H693 C702 0.930 . S
H694 C704 0.930 . S
H695 C707 0.929 . S
H696 C710 0.930 . S
H697 C712 0.960 . S
H698 C712 0.960 . S
H699 C712 0.960 . S
C700 H692 0.929 . S
C700 C701 1.377 . S
C700 C702 1.384 . S
C701 C700 1.377 . S
C701 C707 1.390 . S
C702 H693 0.930 . S
C702 C700 1.384 . S
C702 C703 1.372 . S
C703 C702 1.372 . S
C703 C704 1.400 . S
C703 C708 1.490 . S
C704 H694 0.930 . S
C704 C703 1.400 . S
C704 C707 1.386 . S
H705 C721 0.930 . S
H706 C722 0.931 1_545 S
C707 H695 0.929 . S
C707 C701 1.390 . S
C707 C704 1.386 . S
C708 C703 1.490 . S
C708 C710 1.395 . S
C708 C711 1.403 . S
H709 C715 0.930 . S
C710 H696 0.930 . S
C710 C708 1.395 . S
C710 C713 1.403 . S
C711 C708 1.403 . S
C711 C712 1.524 . S
C711 C715 1.400 . S
C712 H697 0.960 . S
C712 H698 0.960 . S
C712 H699 0.960 . S
C712 C711 1.524 . S
C713 C710 1.403 . S
C713 C714 1.392 . S
C713 C717 1.495 . S
C714 C713 1.392 . S
C714 C715 1.385 . S
C714 C716 1.478 1_545 S
C715 H709 0.930 . S
C715 C711 1.400 . S
C715 C714 1.385 . S
C716 C714 1.478 1_565 S
C716 C718 1.381 . S
C716 C722 1.383 . S
C717 C713 1.495 . S
C717 H723 0.959 . S
C717 H724 0.961 . S
C717 H725 0.960 1_545 S
C718 C716 1.381 . S
C718 C719 1.394 . S
C718 H726 0.930 . S
C719 C718 1.394 . S
C719 C720 1.383 . S
C719 H727 0.929 . S
C720 C719 1.383 . S
C720 C721 1.377 . S
C721 H705 0.930 . S
C721 C720 1.377 . S
C721 C722 1.379 . S
C722 H706 0.931 1_565 S
C722 C716 1.383 . S
C722 C721 1.379 . S
H723 C717 0.959 . S
H724 C717 0.961 . S
H725 C717 0.960 1_565 S
H726 C718 0.930 . S
H727 C719 0.929 . S
H728 C736 0.929 . S
H729 C738 0.930 . S
H730 C740 0.930 . S
H731 C743 0.929 . S
H732 C746 0.930 . S
H733 C748 0.960 1_554 S
H734 C748 0.960 . S
H735 C748 0.960 . S
C736 H728 0.929 . S
C736 C737 1.377 . S
C736 C738 1.384 . S
C737 C736 1.377 . S
C737 C743 1.390 . S
C738 H729 0.930 . S
C738 C736 1.384 . S
C738 C739 1.372 . S
C739 C738 1.372 . S
C739 C740 1.400 . S
C739 C744 1.490 1_556 S
C740 H730 0.930 . S
C740 C739 1.400 . S
C740 C743 1.386 . S
H741 C757 0.930 . S
H742 C758 0.931 . S
C743 H731 0.929 . S
C743 C737 1.390 . S
C743 C740 1.386 . S
C744 C739 1.490 1_554 S
C744 C746 1.395 . S
C744 C747 1.403 . S
H745 C751 0.930 . S
C746 H732 0.930 . S
C746 C744 1.395 . S
C746 C749 1.403 . S
C747 C744 1.403 . S
C747 C748 1.524 1_554 S
C747 C751 1.400 . S
C748 H733 0.960 1_556 S
C748 H734 0.960 . S
C748 H735 0.960 . S
C748 C747 1.524 1_556 S
C749 C746 1.403 . S
C749 C750 1.392 . S
C749 C753 1.495 . S
C750 C749 1.392 . S
C750 C751 1.385 . S
C750 C752 1.478 . S
C751 H745 0.930 . S
C751 C747 1.400 . S
C751 C750 1.385 . S
C752 C750 1.478 . S
C752 C754 1.381 . S
C752 C758 1.383 . S
C753 C749 1.495 . S
C753 H759 0.959 . S
C753 H760 0.961 . S
C753 H761 0.960 . S
C754 C752 1.381 . S
C754 C755 1.394 . S
C754 H762 0.930 . S
C755 C754 1.394 . S
C755 C756 1.383 . S
C755 H763 0.929 . S
C756 C755 1.383 . S
C756 C757 1.377 . S
C757 H741 0.930 . S
C757 C756 1.377 . S
C757 C758 1.379 . S
C758 H742 0.931 . S
C758 C752 1.383 . S
C758 C757 1.379 . S
H759 C753 0.959 . S
H760 C753 0.961 . S
H761 C753 0.960 . S
H762 C754 0.930 . S
H763 C755 0.929 . S
H764 C772 0.929 . S
H765 C774 0.930 . S
H766 C776 0.930 . S
H767 C779 0.929 . S
H768 C782 0.930 . S
H769 C784 0.960 . S
H770 C784 0.960 . S
H771 C784 0.960 . S
C772 H764 0.929 . S
C772 C773 1.377 . S
C772 C774 1.384 . S
C773 C772 1.377 . S
C773 C779 1.390 . S
C774 H765 0.930 . S
C774 C772 1.384 . S
C774 C775 1.372 . S
C775 C774 1.372 . S
C775 C776 1.400 . S
C775 C780 1.490 . S
C776 H766 0.930 . S
C776 C775 1.400 . S
C776 C779 1.386 . S
H777 C793 0.930 . S
H778 C794 0.931 . S
C779 H767 0.929 . S
C779 C773 1.390 . S
C779 C776 1.386 . S
C780 C775 1.490 . S
C780 C782 1.395 . S
C780 C783 1.403 . S
H781 C787 0.930 . S
C782 H768 0.930 . S
C782 C780 1.395 . S
C782 C785 1.403 . S
C783 C780 1.403 . S
C783 C784 1.524 . S
C783 C787 1.400 . S
C784 H769 0.960 . S
C784 H770 0.960 . S
C784 H771 0.960 . S
C784 C783 1.524 . S
C785 C782 1.403 . S
C785 C786 1.392 . S
C785 C789 1.495 . S
C786 C785 1.392 . S
C786 C787 1.385 . S
C786 C788 1.478 . S
C787 H781 0.930 . S
C787 C783 1.400 . S
C787 C786 1.385 . S
C788 C786 1.478 . S
C788 C790 1.381 . S
C788 C794 1.383 . S
C789 C785 1.495 . S
C789 H795 0.959 . S
C789 H796 0.961 . S
C789 H797 0.960 . S
C790 C788 1.381 . S
C790 C791 1.394 . S
C790 H798 0.930 . S
C791 C790 1.394 . S
C791 C792 1.383 . S
C791 H799 0.929 . S
C792 C791 1.383 . S
C792 C793 1.377 . S
C793 H777 0.930 . S
C793 C792 1.377 . S
C793 C794 1.379 . S
C794 H778 0.931 . S
C794 C788 1.383 . S
C794 C793 1.379 . S
H795 C789 0.959 . S
H796 C789 0.961 . S
H797 C789 0.960 . S
H798 C790 0.930 . S
H799 C791 0.929 . S
H800 C808 0.929 . S
H801 C810 0.930 . S
H802 C812 0.930 . S
H803 C815 0.929 . S
H804 C818 0.930 1_554 S
H805 C820 0.960 . S
H806 C820 0.960 . S
H807 C820 0.960 . S
C808 H800 0.929 . S
C808 C809 1.377 . S
C808 C810 1.384 . S
C809 C808 1.377 . S
C809 C815 1.390 . S
C810 H801 0.930 . S
C810 C808 1.384 . S
C810 C811 1.372 . S
C811 C810 1.372 . S
C811 C812 1.400 . S
C811 C816 1.474 1_554 S
C812 H802 0.930 . S
C812 C811 1.400 . S
C812 C815 1.386 . S
H813 C829 0.930 . S
H814 C830 0.931 . S
C815 H803 0.929 . S
C815 C809 1.390 . S
C815 C812 1.386 . S
C816 C811 1.474 1_556 S
C816 C818 1.396 . S
C816 C819 1.418 . S
H817 C823 0.930 . S
C818 H804 0.930 1_556 S
C818 C816 1.396 . S
C818 C821 1.403 . S
C819 C816 1.418 . S
C819 C820 1.524 . S
C819 C823 1.400 . S
C820 H805 0.960 . S
C820 H806 0.960 . S
C820 H807 0.960 . S
C820 C819 1.524 . S
C821 C818 1.403 . S
C821 C822 1.392 . S
C821 C825 1.495 . S
C822 C821 1.392 . S
C822 C823 1.385 . S
C822 C824 1.478 . S
C823 H817 0.930 . S
C823 C819 1.400 . S
C823 C822 1.385 . S
C824 C822 1.478 . S
C824 C826 1.381 . S
C824 C830 1.383 . S
C825 C821 1.495 . S
C825 H831 0.959 . S
C825 H832 0.961 . S
C825 H833 0.960 . S
C826 C824 1.381 . S
C826 C827 1.394 . S
C826 H834 0.930 . S
C827 C826 1.394 . S
C827 C828 1.383 . S
C827 H835 0.929 . S
C828 C827 1.383 . S
C828 C829 1.377 . S
C829 H813 0.930 . S
C829 C828 1.377 . S
C829 C830 1.379 . S
C830 H814 0.931 . S
C830 C824 1.383 . S
C830 C829 1.379 . S
H831 C825 0.959 . S
H832 C825 0.961 . S
H833 C825 0.960 . S
H834 C826 0.930 . S
H835 C827 0.929 . S
H836 C844 0.929 . S
H837 C846 0.930 . S
H838 C848 0.930 . S
H839 C851 0.929 . S
H840 C854 0.930 . S
H841 C856 0.960 . S
H842 C856 0.960 . S
H843 C856 0.960 . S
C844 H836 0.929 . S
C844 C845 1.377 . S
C844 C846 1.384 . S
C845 C844 1.377 . S
C845 C851 1.390 . S
C846 H837 0.930 . S
C846 C844 1.384 . S
C846 C847 1.372 . S
C847 C846 1.372 . S
C847 C848 1.400 . S
C847 C852 1.490 . S
C848 H838 0.930 . S
C848 C847 1.400 . S
C848 C851 1.386 . S
H849 C865 0.930 . S
H850 C866 0.931 . S
C851 H839 0.929 . S
C851 C845 1.390 . S
C851 C848 1.386 . S
C852 C847 1.490 . S
C852 C854 1.395 . S
C852 C855 1.403 . S
H853 C859 0.930 . S
C854 H840 0.930 . S
C854 C852 1.395 . S
C854 C857 1.403 . S
C855 C852 1.403 . S
C855 C856 1.524 . S
C855 C859 1.400 . S
C856 H841 0.960 . S
C856 H842 0.960 . S
C856 H843 0.960 . S
C856 C855 1.524 . S
C857 C854 1.403 . S
C857 C858 1.392 . S
C857 C861 1.495 . S
C858 C857 1.392 . S
C858 C859 1.385 . S
C858 C860 1.478 . S
C859 H853 0.930 . S
C859 C855 1.400 . S
C859 C858 1.385 . S
C860 C858 1.478 . S
C860 C862 1.381 . S
C860 C866 1.383 . S
C861 C857 1.495 . S
C861 H867 0.959 . S
C861 H868 0.961 . S
C861 H869 0.960 . S
C862 C860 1.381 . S
C862 C863 1.394 . S
C862 H870 0.930 . S
C863 C862 1.394 . S
C863 C864 1.383 . S
C863 H871 0.929 . S
C864 C863 1.383 . S
C864 C865 1.377 . S
C865 H849 0.930 . S
C865 C864 1.377 . S
C865 C866 1.379 . S
C866 H850 0.931 . S
C866 C860 1.383 . S
C866 C865 1.379 . S
H867 C861 0.959 . S
H868 C861 0.961 . S
H869 C861 0.960 . S
H870 C862 0.930 . S
H871 C863 0.929 . S
H872 C880 0.929 . S
H873 C882 0.930 . S
H874 C884 0.930 . S
H875 C887 0.929 . S
H876 C890 0.930 . S
H877 C892 0.960 . S
H878 C892 0.960 . S
H879 C892 0.960 . S
C880 H872 0.929 . S
C880 C881 1.377 . S
C880 C882 1.384 . S
C881 C880 1.377 . S
C881 C887 1.390 . S
C882 H873 0.930 . S
C882 C880 1.384 . S
C882 C883 1.372 . S
C883 C882 1.372 . S
C883 C884 1.400 . S
C883 C888 1.490 1_554 S
C884 H874 0.930 . S
C884 C883 1.400 . S
C884 C887 1.386 . S
H885 C901 0.930 . S
H886 C902 0.931 . S
C887 H875 0.929 . S
C887 C881 1.390 . S
C887 C884 1.386 . S
C888 C883 1.490 1_556 S
C888 C890 1.395 . S
C888 C891 1.403 . S
H889 C895 0.930 . S
C890 H876 0.930 . S
C890 C888 1.395 . S
C890 C893 1.403 . S
C891 C888 1.403 . S
C891 C892 1.524 1_556 S
C891 C895 1.400 . S
C892 H877 0.960 . S
C892 H878 0.960 . S
C892 H879 0.960 . S
C892 C891 1.524 1_554 S
C893 C890 1.403 . S
C893 C894 1.392 . S
C893 C897 1.495 . S
C894 C893 1.392 . S
C894 C895 1.385 . S
C894 C896 1.478 . S
C895 H889 0.930 . S
C895 C891 1.400 . S
C895 C894 1.385 . S
C896 C894 1.478 . S
C896 C898 1.381 . S
C896 C902 1.383 . S
C897 C893 1.495 . S
C897 H903 0.959 . S
C897 H904 0.961 . S
C897 H905 0.960 . S
C898 C896 1.381 . S
C898 C899 1.394 . S
C898 H906 0.930 . S
C899 C898 1.394 . S
C899 C900 1.383 . S
C899 H907 0.929 . S
C900 C899 1.383 . S
C900 C901 1.377 . S
C901 H885 0.930 . S
C901 C900 1.377 . S
C901 C902 1.379 . S
C902 H886 0.931 . S
C902 C896 1.383 . S
C902 C901 1.379 . S
H903 C897 0.959 . S
H904 C897 0.961 . S
H905 C897 0.960 . S
H906 C898 0.930 . S
H907 C899 0.929 . S
H908 C916 0.929 . S
H909 C918 0.930 . S
H910 C920 0.930 . S
H911 C923 0.929 . S
H912 C926 0.930 . S
H913 C928 0.960 . S
H914 C928 0.960 . S
H915 C928 0.960 . S
C916 H908 0.929 . S
C916 C917 1.377 . S
C916 C918 1.384 . S
C917 C916 1.377 . S
C917 C923 1.390 . S
C918 H909 0.930 . S
C918 C916 1.384 . S
C918 C919 1.372 . S
C919 C918 1.372 . S
C919 C920 1.400 . S
C919 C924 1.490 . S
C920 H910 0.930 . S
C920 C919 1.400 . S
C920 C923 1.386 . S
H921 C937 0.930 . S
H922 C938 0.931 . S
C923 H911 0.929 . S
C923 C917 1.390 . S
C923 C920 1.386 . S
C924 C919 1.490 . S
C924 C926 1.395 . S
C924 C927 1.403 . S
H925 C931 0.930 . S
C926 H912 0.930 . S
C926 C924 1.395 . S
C926 C929 1.403 . S
C927 C924 1.403 . S
C927 C928 1.524 . S
C927 C931 1.400 . S
C928 H913 0.960 . S
C928 H914 0.960 . S
C928 H915 0.960 . S
C928 C927 1.524 . S
C929 C926 1.403 . S
C929 C930 1.392 . S
C929 C933 1.495 . S
C930 C929 1.392 . S
C930 C931 1.385 . S
C930 C932 1.478 . S
C931 H925 0.930 . S
C931 C927 1.400 . S
C931 C930 1.385 . S
C932 C930 1.478 . S
C932 C934 1.381 . S
C932 C938 1.383 . S
C933 C929 1.495 . S
C933 H939 0.959 . S
C933 H940 0.961 . S
C933 H941 0.960 . S
C934 C932 1.381 . S
C934 C935 1.394 . S
C934 H942 0.930 . S
C935 C934 1.394 . S
C935 C936 1.383 . S
C935 H943 0.929 . S
C936 C935 1.383 . S
C936 C937 1.377 . S
C937 H921 0.930 . S
C937 C936 1.377 . S
C937 C938 1.379 . S
C938 H922 0.931 . S
C938 C932 1.383 . S
C938 C937 1.379 . S
H939 C933 0.959 . S
H940 C933 0.961 . S
H941 C933 0.960 . S
H942 C934 0.930 . S
H943 C935 0.929 . S
H944 C952 0.929 . S
H945 C954 0.930 . S
H946 C956 0.930 . S
H947 C959 0.929 . S
H948 C962 0.930 1_556 S
H949 C964 0.960 . S
H950 C964 0.960 . S
H951 C964 0.960 . S
C952 H944 0.929 . S
C952 C953 1.377 . S
C952 C954 1.384 . S
C953 C952 1.377 . S
C953 C959 1.390 . S
C954 H945 0.930 . S
C954 C952 1.384 . S
C954 C955 1.372 . S
C955 C954 1.372 . S
C955 C956 1.400 . S
C955 C960 1.488 1_556 S
C956 H946 0.930 . S
C956 C955 1.400 . S
C956 C959 1.386 . S
H957 C973 0.930 . S
H958 C974 0.931 . S
C959 H947 0.929 . S
C959 C953 1.390 . S
C959 C956 1.386 . S
C960 C955 1.488 1_554 S
C960 C962 1.395 . S
C960 C963 1.404 . S
H961 C967 0.930 . S
C962 H948 0.930 1_554 S
C962 C960 1.395 . S
C962 C965 1.403 . S
C963 C960 1.404 . S
C963 C964 1.524 . S
C963 C967 1.400 . S
C964 H949 0.960 . S
C964 H950 0.960 . S
C964 H951 0.960 . S
C964 C963 1.524 . S
C965 C962 1.403 . S
C965 C966 1.392 . S
C965 C969 1.495 . S
C966 C965 1.392 . S
C966 C967 1.385 . S
C966 C968 1.478 . S
C967 H961 0.930 . S
C967 C963 1.400 . S
C967 C966 1.385 . S
C968 C966 1.478 . S
C968 C970 1.381 . S
C968 C974 1.383 . S
C969 C965 1.495 . S
C969 H975 0.959 . S
C969 H976 0.961 . S
C969 H977 0.960 . S
C970 C968 1.381 . S
C970 C971 1.394 . S
C970 H978 0.930 . S
C971 C970 1.394 . S
C971 C972 1.383 . S
C971 H979 0.929 . S
C972 C971 1.383 . S
C972 C973 1.377 . S
C973 H957 0.930 . S
C973 C972 1.377 . S
C973 C974 1.379 . S
C974 H958 0.931 . S
C974 C968 1.383 . S
C974 C973 1.379 . S
H975 C969 0.959 . S
H976 C969 0.961 . S
H977 C969 0.960 . S
H978 C970 0.930 . S
H979 C971 0.929 . S
H980 C988 0.929 . S
H981 C990 0.930 . S
H982 C992 0.930 . S
H983 C995 0.929 . S
H984 C998 0.930 . S
H985 C1000 0.960 . S
H986 C1000 0.960 . S
H987 C1000 0.960 . S
C988 H980 0.929 . S
C988 C989 1.377 . S
C988 C990 1.384 . S
C989 C988 1.377 . S
C989 C995 1.390 . S
C990 H981 0.930 . S
C990 C988 1.384 . S
C990 C991 1.372 . S
C991 C990 1.372 . S
C991 C992 1.400 . S
C991 C996 1.490 . S
C992 H982 0.930 . S
C992 C991 1.400 . S
C992 C995 1.386 . S
H993 C1009 0.930 . S
H994 C1010 0.931 . S
C995 H983 0.929 . S
C995 C989 1.390 . S
C995 C992 1.386 . S
C996 C991 1.490 . S
C996 C998 1.395 . S
C996 C999 1.403 . S
H997 C1003 0.930 . S
C998 H984 0.930 . S
C998 C996 1.395 . S
C998 C1001 1.403 . S
C999 C996 1.403 . S
C999 C1000 1.524 . S
C999 C1003 1.400 . S
C1000 H985 0.960 . S
C1000 H986 0.960 . S
C1000 H987 0.960 . S
C1000 C999 1.524 . S
C1001 C998 1.403 . S
C1001 C1002 1.392 . S
C1001 C1005 1.495 . S
C1002 C1001 1.392 . S
C1002 C1003 1.385 . S
C1002 C1004 1.478 . S
C1003 H997 0.930 . S
C1003 C999 1.400 . S
C1003 C1002 1.385 . S
C1004 C1002 1.478 . S
C1004 C1006 1.381 . S
C1004 C1010 1.383 . S
C1005 C1001 1.495 . S
C1005 H1011 0.959 . S
C1005 H1012 0.961 . S
C1005 H1013 0.960 . S
C1006 C1004 1.381 . S
C1006 C1007 1.394 . S
C1006 H1014 0.930 . S
C1007 C1006 1.394 . S
C1007 C1008 1.383 . S
C1007 H1015 0.929 . S
C1008 C1007 1.383 . S
C1008 C1009 1.377 . S
C1009 H993 0.930 . S
C1009 C1008 1.377 . S
C1009 C1010 1.379 . S
C1010 H994 0.931 . S
C1010 C1004 1.383 . S
C1010 C1009 1.379 . S
H1011 C1005 0.959 . S
H1012 C1005 0.961 . S
H1013 C1005 0.960 . S
H1014 C1006 0.930 . S
H1015 C1007 0.929 . S
H1016 C1024 0.929 . S
H1017 C1026 0.930 . S
H1018 C1028 0.930 . S
H1019 C1031 0.929 . S
H1020 C1034 0.930 . S
H1021 C1036 0.960 . S
H1022 C1036 0.960 . S
H1023 C1036 0.960 . S
C1024 H1016 0.929 . S
C1024 C1025 1.377 . S
C1024 C1026 1.384 . S
C1025 C1024 1.377 . S
C1025 C1031 1.390 . S
C1026 H1017 0.930 . S
C1026 C1024 1.384 . S
C1026 C1027 1.372 . S
C1027 C1026 1.372 . S
C1027 C1028 1.400 . S
C1027 C1032 1.490 . S
C1028 H1018 0.930 . S
C1028 C1027 1.400 . S
C1028 C1031 1.386 . S
H1029 C1045 0.930 . S
H1030 C1046 0.931 . S
C1031 H1019 0.929 . S
C1031 C1025 1.390 . S
C1031 C1028 1.386 . S
C1032 C1027 1.490 . S
C1032 C1034 1.395 . S
C1032 C1035 1.403 . S
H1033 C1039 0.930 . S
C1034 H1020 0.930 . S
C1034 C1032 1.395 . S
C1034 C1037 1.403 . S
C1035 C1032 1.403 . S
C1035 C1036 1.524 . S
C1035 C1039 1.400 . S
C1036 H1021 0.960 . S
C1036 H1022 0.960 . S
C1036 H1023 0.960 . S
C1036 C1035 1.524 . S
C1037 C1034 1.403 . S
C1037 C1038 1.392 . S
C1037 C1041 1.495 . S
C1038 C1037 1.392 . S
C1038 C1039 1.385 . S
C1038 C1040 1.478 . S
C1039 H1033 0.930 . S
C1039 C1035 1.400 . S
C1039 C1038 1.385 . S
C1040 C1038 1.478 . S
C1040 C1042 1.381 . S
C1040 C1046 1.383 . S
C1041 C1037 1.495 . S
C1041 H1047 0.959 . S
C1041 H1048 0.961 . S
C1041 H1049 0.960 . S
C1042 C1040 1.381 . S
C1042 C1043 1.394 . S
C1042 H1050 0.930 . S
C1043 C1042 1.394 . S
C1043 C1044 1.383 . S
C1043 H1051 0.929 . S
C1044 C1043 1.383 . S
C1044 C1045 1.377 . S
C1045 H1029 0.930 . S
C1045 C1044 1.377 . S
C1045 C1046 1.379 . S
C1046 H1030 0.931 . S
C1046 C1040 1.383 . S
C1046 C1045 1.379 . S
H1047 C1041 0.959 . S
H1048 C1041 0.961 . S
H1049 C1041 0.960 . S
H1050 C1042 0.930 . S
H1051 C1043 0.929 . S
H1052 C1060 0.929 . S
H1053 C1062 0.930 . S
H1054 C1064 0.930 . S
H1055 C1067 0.929 . S
H1056 C1070 0.930 . S
H1057 C1072 0.960 . S
H1058 C1072 0.960 . S
H1059 C1072 0.960 . S
C1060 H1052 0.929 . S
C1060 C1061 1.377 . S
C1060 C1062 1.384 . S
C1061 C1060 1.377 . S
C1061 C1067 1.390 . S
C1062 H1053 0.930 . S
C1062 C1060 1.384 . S
C1062 C1063 1.372 . S
C1063 C1062 1.372 . S
C1063 C1064 1.400 . S
C1063 C1068 1.490 . S
C1064 H1054 0.930 . S
C1064 C1063 1.400 . S
C1064 C1067 1.386 . S
H1065 C1081 0.930 . S
H1066 C1082 0.931 . S
C1067 H1055 0.929 . S
C1067 C1061 1.390 . S
C1067 C1064 1.386 . S
C1068 C1063 1.490 . S
C1068 C1070 1.395 . S
C1068 C1071 1.403 . S
H1069 C1075 0.930 . S
C1070 H1056 0.930 . S
C1070 C1068 1.395 . S
C1070 C1073 1.403 . S
C1071 C1068 1.403 . S
C1071 C1072 1.524 . S
C1071 C1075 1.400 . S
C1072 H1057 0.960 . S
C1072 H1058 0.960 . S
C1072 H1059 0.960 . S
C1072 C1071 1.524 . S
C1073 C1070 1.403 . S
C1073 C1074 1.392 . S
C1073 C1077 1.495 . S
C1074 C1073 1.392 . S
C1074 C1075 1.385 . S
C1074 C1076 1.478 . S
C1075 H1069 0.930 . S
C1075 C1071 1.400 . S
C1075 C1074 1.385 . S
C1076 C1074 1.478 . S
C1076 C1078 1.381 . S
C1076 C1082 1.383 . S
C1077 C1073 1.495 . S
C1077 H1083 0.959 . S
C1077 H1084 0.961 . S
C1077 H1085 0.960 . S
C1078 C1076 1.381 . S
C1078 C1079 1.394 . S
C1078 H1086 0.930 . S
C1079 C1078 1.394 . S
C1079 C1080 1.383 . S
C1079 H1087 0.929 . S
C1080 C1079 1.383 . S
C1080 C1081 1.377 . S
C1081 H1065 0.930 . S
C1081 C1080 1.377 . S
C1081 C1082 1.379 . S
C1082 H1066 0.931 . S
C1082 C1076 1.383 . S
C1082 C1081 1.379 . S
H1083 C1077 0.959 . S
H1084 C1077 0.961 . S
H1085 C1077 0.960 . S
H1086 C1078 0.930 . S
H1087 C1079 0.929 . S
H1088 C1096 0.929 . S
H1089 C1098 0.930 . S
H1090 C1100 0.930 . S
H1091 C1103 0.929 . S
H1092 C1106 0.930 . S
H1093 C1108 0.960 . S
H1094 C1108 0.960 . S
H1095 C1108 0.960 . S
C1096 H1088 0.929 . S
C1096 C1097 1.377 . S
C1096 C1098 1.384 . S
C1097 C1096 1.377 . S
C1097 C1103 1.390 . S
C1098 H1089 0.930 . S
C1098 C1096 1.384 . S
C1098 C1099 1.372 . S
C1099 C1098 1.372 . S
C1099 C1100 1.400 . S
C1099 C1104 1.490 . S
C1100 H1090 0.930 . S
C1100 C1099 1.400 . S
C1100 C1103 1.386 . S
H1101 C1117 0.930 . S
H1102 C1118 0.931 . S
C1103 H1091 0.929 . S
C1103 C1097 1.390 . S
C1103 C1100 1.386 . S
C1104 C1099 1.490 . S
C1104 C1106 1.395 . S
C1104 C1107 1.403 . S
H1105 C1111 0.930 . S
C1106 H1092 0.930 . S
C1106 C1104 1.395 . S
C1106 C1109 1.403 . S
C1107 C1104 1.403 . S
C1107 C1108 1.524 . S
C1107 C1111 1.400 . S
C1108 H1093 0.960 . S
C1108 H1094 0.960 . S
C1108 H1095 0.960 . S
C1108 C1107 1.524 . S
C1109 C1106 1.403 . S
C1109 C1110 1.392 . S
C1109 C1113 1.495 . S
C1110 C1109 1.392 . S
C1110 C1111 1.385 . S
C1110 C1112 1.478 . S
C1111 H1105 0.930 . S
C1111 C1107 1.400 . S
C1111 C1110 1.385 . S
C1112 C1110 1.478 . S
C1112 C1114 1.381 . S
C1112 C1118 1.383 . S
C1113 C1109 1.495 . S
C1113 H1119 0.959 . S
C1113 H1120 0.961 . S
C1113 H1121 0.960 . S
C1114 C1112 1.381 . S
C1114 C1115 1.394 . S
C1114 H1122 0.930 . S
C1115 C1114 1.394 . S
C1115 C1116 1.383 . S
C1115 H1123 0.929 . S
C1116 C1115 1.383 . S
C1116 C1117 1.377 . S
C1117 H1101 0.930 . S
C1117 C1116 1.377 . S
C1117 C1118 1.379 . S
C1118 H1102 0.931 . S
C1118 C1112 1.383 . S
C1118 C1117 1.379 . S
H1119 C1113 0.959 . S
H1120 C1113 0.961 . S
H1121 C1113 0.960 . S
H1122 C1114 0.930 . S
H1123 C1115 0.929 . S
H1124 C1132 0.929 . S
H1125 C1134 0.930 . S
H1126 C1136 0.930 . S
H1127 C1139 0.929 . S
H1128 C1142 0.930 . S
H1129 C1144 0.960 . S
H1130 C1144 0.960 . S
H1131 C1144 0.960 . S
C1132 H1124 0.929 . S
C1132 C1133 1.377 . S
C1132 C1134 1.384 . S
C1133 C1132 1.377 . S
C1133 C1139 1.390 . S
C1134 H1125 0.930 . S
C1134 C1132 1.384 . S
C1134 C1135 1.372 . S
C1135 C1134 1.372 . S
C1135 C1136 1.400 . S
C1135 C1140 1.490 . S
C1136 H1126 0.930 . S
C1136 C1135 1.400 . S
C1136 C1139 1.386 . S
H1137 C1153 0.930 . S
H1138 C1154 0.931 . S
C1139 H1127 0.929 . S
C1139 C1133 1.390 . S
C1139 C1136 1.386 . S
C1140 C1135 1.490 . S
C1140 C1142 1.395 . S
C1140 C1143 1.403 . S
H1141 C1147 0.930 . S
C1142 H1128 0.930 . S
C1142 C1140 1.395 . S
C1142 C1145 1.403 . S
C1143 C1140 1.403 . S
C1143 C1144 1.524 . S
C1143 C1147 1.400 . S
C1144 H1129 0.960 . S
C1144 H1130 0.960 . S
C1144 H1131 0.960 . S
C1144 C1143 1.524 . S
C1145 C1142 1.403 . S
C1145 C1146 1.392 . S
C1145 C1149 1.495 . S
C1146 C1145 1.392 . S
C1146 C1147 1.385 . S
C1146 C1148 1.478 . S
C1147 H1141 0.930 . S
C1147 C1143 1.400 . S
C1147 C1146 1.385 . S
C1148 C1146 1.478 . S
C1148 C1150 1.381 . S
C1148 C1154 1.383 . S
C1149 C1145 1.495 . S
C1149 H1155 0.959 . S
C1149 H1156 0.961 . S
C1149 H1157 0.960 . S
C1150 C1148 1.381 . S
C1150 C1151 1.394 . S
C1150 H1158 0.930 . S
C1151 C1150 1.394 . S
C1151 C1152 1.383 . S
C1151 H1159 0.929 . S
C1152 C1151 1.383 . S
C1152 C1153 1.377 . S
C1153 H1137 0.930 . S
C1153 C1152 1.377 . S
C1153 C1154 1.379 . S
C1154 H1138 0.931 . S
C1154 C1148 1.383 . S
C1154 C1153 1.379 . S
H1155 C1149 0.959 . S
H1156 C1149 0.961 . S
H1157 C1149 0.960 . S
H1158 C1150 0.930 . S
H1159 C1151 0.929 . S
H1160 C1168 0.929 . S
H1161 C1170 0.930 . S
H1162 C1172 0.930 . S
H1163 C1175 0.929 . S
H1164 C1178 0.930 . S
H1165 C1180 0.960 . S
H1166 C1180 0.960 . S
H1167 C1180 0.960 . S
C1168 H1160 0.929 . S
C1168 C1169 1.377 . S
C1168 C1170 1.384 . S
C1169 C1168 1.377 . S
C1169 C1175 1.390 . S
C1170 H1161 0.930 . S
C1170 C1168 1.384 . S
C1170 C1171 1.372 . S
C1171 C1170 1.372 . S
C1171 C1172 1.400 . S
C1171 C1176 1.490 . S
C1172 H1162 0.930 . S
C1172 C1171 1.400 . S
C1172 C1175 1.386 . S
H1173 C1189 0.930 . S
H1174 C1190 0.931 . S
C1175 H1163 0.929 . S
C1175 C1169 1.390 . S
C1175 C1172 1.386 . S
C1176 C1171 1.490 . S
C1176 C1178 1.395 . S
C1176 C1179 1.403 . S
H1177 C1183 0.930 . S
C1178 H1164 0.930 . S
C1178 C1176 1.395 . S
C1178 C1181 1.403 . S
C1179 C1176 1.403 . S
C1179 C1180 1.524 . S
C1179 C1183 1.400 . S
C1180 H1165 0.960 . S
C1180 H1166 0.960 . S
C1180 H1167 0.960 . S
C1180 C1179 1.524 . S
C1181 C1178 1.403 . S
C1181 C1182 1.392 . S
C1181 C1185 1.495 . S
C1182 C1181 1.392 . S
C1182 C1183 1.385 . S
C1182 C1184 1.478 . S
C1183 H1177 0.930 . S
C1183 C1179 1.400 . S
C1183 C1182 1.385 . S
C1184 C1182 1.478 . S
C1184 C1186 1.381 . S
C1184 C1190 1.383 . S
C1185 C1181 1.495 . S
C1185 H1191 0.959 . S
C1185 H1192 0.961 . S
C1185 H1193 0.960 . S
C1186 C1184 1.381 . S
C1186 C1187 1.394 . S
C1186 H1194 0.930 . S
C1187 C1186 1.394 . S
C1187 C1188 1.383 . S
C1187 H1195 0.929 . S
C1188 C1187 1.383 . S
C1188 C1189 1.377 . S
C1189 H1173 0.930 . S
C1189 C1188 1.377 . S
C1189 C1190 1.379 . S
C1190 H1174 0.931 . S
C1190 C1184 1.383 . S
C1190 C1189 1.379 . S
H1191 C1185 0.959 . S
H1192 C1185 0.961 . S
H1193 C1185 0.960 . S
H1194 C1186 0.930 . S
H1195 C1187 0.929 . S
H1196 C1204 0.929 . S
H1197 C1206 0.930 . S
H1198 C1208 0.930 . S
H1199 C1211 0.929 . S
H1200 C1214 0.930 . S
H1201 C1216 0.960 . S
H1202 C1216 0.960 . S
H1203 C1216 0.960 . S
C1204 H1196 0.929 . S
C1204 C1205 1.377 . S
C1204 C1206 1.384 . S
C1205 C1204 1.377 . S
C1205 C1211 1.390 . S
C1206 H1197 0.930 . S
C1206 C1204 1.384 . S
C1206 C1207 1.372 . S
C1207 C1206 1.372 . S
C1207 C1208 1.400 . S
C1207 C1212 1.490 . S
C1208 H1198 0.930 . S
C1208 C1207 1.400 . S
C1208 C1211 1.386 . S
H1209 C1225 0.930 . S
H1210 C1226 0.931 . S
C1211 H1199 0.929 . S
C1211 C1205 1.390 . S
C1211 C1208 1.386 . S
C1212 C1207 1.490 . S
C1212 C1214 1.395 . S
C1212 C1215 1.403 . S
H1213 C1219 0.930 . S
C1214 H1200 0.930 . S
C1214 C1212 1.395 . S
C1214 C1217 1.403 . S
C1215 C1212 1.403 . S
C1215 C1216 1.524 . S
C1215 C1219 1.400 . S
C1216 H1201 0.960 . S
C1216 H1202 0.960 . S
C1216 H1203 0.960 . S
C1216 C1215 1.524 . S
C1217 C1214 1.403 . S
C1217 C1218 1.392 . S
C1217 C1221 1.495 . S
C1218 C1217 1.392 . S
C1218 C1219 1.385 . S
C1218 C1220 1.478 . S
C1219 H1213 0.930 . S
C1219 C1215 1.400 . S
C1219 C1218 1.385 . S
C1220 C1218 1.478 . S
C1220 C1222 1.381 . S
C1220 C1226 1.383 . S
C1221 C1217 1.495 . S
C1221 H1227 0.959 . S
C1221 H1228 0.961 . S
C1221 H1229 0.960 . S
C1222 C1220 1.381 . S
C1222 C1223 1.394 . S
C1222 H1230 0.930 . S
C1223 C1222 1.394 . S
C1223 C1224 1.383 . S
C1223 H1231 0.929 . S
C1224 C1223 1.383 . S
C1224 C1225 1.377 . S
C1225 H1209 0.930 . S
C1225 C1224 1.377 . S
C1225 C1226 1.379 . S
C1226 H1210 0.931 . S
C1226 C1220 1.383 . S
C1226 C1225 1.379 . S
H1227 C1221 0.959 . S
H1228 C1221 0.961 . S
H1229 C1221 0.960 . S
H1230 C1222 0.930 . S
H1231 C1223 0.929 . S
H1232 C1240 0.929 . S
H1233 C1242 0.930 . S
H1234 C1244 0.930 . S
H1235 C1247 0.929 . S
H1236 C1250 0.930 . S
H1237 C1252 0.960 . S
H1238 C1252 0.960 . S
H1239 C1252 0.960 . S
C1240 H1232 0.929 . S
C1240 C1241 1.377 . S
C1240 C1242 1.384 . S
C1241 C1240 1.377 . S
C1241 C1247 1.390 . S
C1242 H1233 0.930 . S
C1242 C1240 1.384 . S
C1242 C1243 1.372 . S
C1243 C1242 1.372 . S
C1243 C1244 1.400 . S
C1243 C1248 1.490 . S
C1244 H1234 0.930 . S
C1244 C1243 1.400 . S
C1244 C1247 1.386 . S
H1245 C1261 0.930 . S
H1246 C1262 0.931 . S
C1247 H1235 0.929 . S
C1247 C1241 1.390 . S
C1247 C1244 1.386 . S
C1248 C1243 1.490 . S
C1248 C1250 1.395 . S
C1248 C1251 1.403 . S
H1249 C1255 0.930 . S
C1250 H1236 0.930 . S
C1250 C1248 1.395 . S
C1250 C1253 1.403 . S
C1251 C1248 1.403 . S
C1251 C1252 1.524 . S
C1251 C1255 1.400 . S
C1252 H1237 0.960 . S
C1252 H1238 0.960 . S
C1252 H1239 0.960 . S
C1252 C1251 1.524 . S
C1253 C1250 1.403 . S
C1253 C1254 1.392 . S
C1253 C1257 1.495 . S
C1254 C1253 1.392 . S
C1254 C1255 1.385 . S
C1254 C1256 1.478 . S
C1255 H1249 0.930 . S
C1255 C1251 1.400 . S
C1255 C1254 1.385 . S
C1256 C1254 1.478 . S
C1256 C1258 1.381 . S
C1256 C1262 1.383 . S
C1257 C1253 1.495 . S
C1257 H1263 0.959 . S
C1257 H1264 0.961 . S
C1257 H1265 0.960 . S
C1258 C1256 1.381 . S
C1258 C1259 1.394 . S
C1258 H1266 0.930 . S
C1259 C1258 1.394 . S
C1259 C1260 1.383 . S
C1259 H1267 0.929 . S
C1260 C1259 1.383 . S
C1260 C1261 1.377 . S
C1261 H1245 0.930 . S
C1261 C1260 1.377 . S
C1261 C1262 1.379 . S
C1262 H1246 0.931 . S
C1262 C1256 1.383 . S
C1262 C1261 1.379 . S
H1263 C1257 0.959 . S
H1264 C1257 0.961 . S
H1265 C1257 0.960 . S
H1266 C1258 0.930 . S
H1267 C1259 0.929 . S
H1268 C1276 0.929 . S
H1269 C1278 0.930 . S
H1270 C1280 0.930 . S
H1271 C1283 0.929 . S
H1272 C1286 0.930 . S
H1273 C1288 0.960 . S
H1274 C1288 0.960 . S
H1275 C1288 0.960 . S
C1276 H1268 0.929 . S
C1276 C1277 1.377 . S
C1276 C1278 1.384 . S
C1277 C1276 1.377 . S
C1277 C1283 1.390 . S
C1278 H1269 0.930 . S
C1278 C1276 1.384 . S
C1278 C1279 1.372 . S
C1279 C1278 1.372 . S
C1279 C1280 1.400 . S
C1279 C1284 1.490 . S
C1280 H1270 0.930 . S
C1280 C1279 1.400 . S
C1280 C1283 1.386 . S
H1281 C1297 0.930 . S
H1282 C1298 0.931 . S
C1283 H1271 0.929 . S
C1283 C1277 1.390 . S
C1283 C1280 1.386 . S
C1284 C1279 1.490 . S
C1284 C1286 1.395 . S
C1284 C1287 1.403 . S
H1285 C1291 0.930 . S
C1286 H1272 0.930 . S
C1286 C1284 1.395 . S
C1286 C1289 1.403 . S
C1287 C1284 1.403 . S
C1287 C1288 1.524 . S
C1287 C1291 1.400 . S
C1288 H1273 0.960 . S
C1288 H1274 0.960 . S
C1288 H1275 0.960 . S
C1288 C1287 1.524 . S
C1289 C1286 1.403 . S
C1289 C1290 1.392 . S
C1289 C1293 1.495 . S
C1290 C1289 1.392 . S
C1290 C1291 1.385 . S
C1290 C1292 1.478 . S
C1291 H1285 0.930 . S
C1291 C1287 1.400 . S
C1291 C1290 1.385 . S
C1292 C1290 1.478 . S
C1292 C1294 1.381 . S
C1292 C1298 1.383 . S
C1293 C1289 1.495 . S
C1293 H1299 0.959 . S
C1293 H1300 0.961 . S
C1293 H1301 0.960 . S
C1294 C1292 1.381 . S
C1294 C1295 1.394 . S
C1294 H1302 0.930 . S
C1295 C1294 1.394 . S
C1295 C1296 1.383 . S
C1295 H1303 0.929 . S
C1296 C1295 1.383 . S
C1296 C1297 1.377 . S
C1297 H1281 0.930 . S
C1297 C1296 1.377 . S
C1297 C1298 1.379 . S
C1298 H1282 0.931 . S
C1298 C1292 1.383 . S
C1298 C1297 1.379 . S
H1299 C1293 0.959 . S
H1300 C1293 0.961 . S
H1301 C1293 0.960 . S
H1302 C1294 0.930 . S
H1303 C1295 0.929 . S
C449 N83 1.656 . S
C468 C160 1.667 . S
C504 C244 1.639 . S
C485 N96 1.662 . S
C540 C243 1.672 . S
C521 N57 1.644 . S
C557 N70 1.646 . S
C576 C159 1.672 . S
C612 C340 1.654 . S
C593 N31 1.663 . S
C648 C424 1.635 . S
C629 N44 1.662 . S
C665 N5 1.652 . S
C684 C423 1.672 . S
C701 N18 1.649 . S
C720 C339 1.666 . S
C756 C162 1.421 . S
C737 N14 1.630 . S
C792 C246 1.448 . S
C773 N1 1.628 . S
C828 C258 1.453 . S
C809 N40 1.635 . S
C864 C174 1.375 . S
C845 N27 1.638 . S
C900 C342 1.432 . S
C881 N66 1.617 . S
C917 N53 1.618 . S
C936 C426 1.423 . S
C972 C414 1.450 . S
C953 N92 1.631 . S
C989 N79 1.626 . S
C1008 C330 1.394 . S
C1044 C171 1.561 . S
C1025 N2 1.570 . S
C1080 C255 1.570 . S
C1061 N15 1.571 . S
C1097 N28 1.566 . S
C1116 C256 1.516 . S
C1152 C172 1.516 . S
C1133 N41 1.566 . S
C1188 C327 1.566 . S
C1169 N54 1.565 . S
C1205 N67 1.564 . S
C1224 C411 1.570 . S
C1241 N80 1.561 . S
C1260 C412 1.517 . S
C1277 N93 1.560 . S
C1296 C328 1.539 . S
