# Generated by pormake.
# Topology zzz, (3,6)-cn, num edge types: 1
# Building blocks:
#     Node 0, Type 0, BuildingBlock: ESEHIV_clean_linker_0, # of connection points: 3
#     Node 1, Type 0, BuildingBlock: ESEHIV_clean_linker_0, # of connection points: 3
#     Node 2, Type 0, BuildingBlock: ESEHIV_clean_linker_0, # of connection points: 3
#     Node 3, Type 0, BuildingBlock: ESEHIV_clean_linker_0, # of connection points: 3
#     Node 4, Type 0, BuildingBlock: ESEHIV_clean_linker_0, # of connection points: 3
#     Node 5, Type 0, BuildingBlock: ESEHIV_clean_linker_0, # of connection points: 3
#     Node 6, Type 0, BuildingBlock: ESEHIV_clean_linker_0, # of connection points: 3
#     Node 7, Type 0, BuildingBlock: ESEHIV_clean_linker_0, # of connection points: 3
#     Node 8, Type 1, BuildingBlock: CUKXOW_clean_sbu_0, # of connection points: 6
#     Node 9, Type 1, BuildingBlock: CUKXOW_clean_sbu_0, # of connection points: 6
#     Node 10, Type 1, BuildingBlock: CUKXOW_clean_sbu_0, # of connection points: 6
#     Node 11, Type 1, BuildingBlock: CUKXOW_clean_sbu_0, # of connection points: 6
#     Edge 12, Type (0, 1), BuildingBlock: KIFKEQ_clean_linker_1, # of connection points: 2
#     Edge 13, Type (0, 1), BuildingBlock: KIFKEQ_clean_linker_1, # of connection points: 2
#     Edge 14, Type (0, 1), BuildingBlock: KIFKEQ_clean_linker_1, # of connection points: 2
#     Edge 15, Type (0, 1), BuildingBlock: KIFKEQ_clean_linker_1, # of connection points: 2
#     Edge 16, Type (0, 1), BuildingBlock: KIFKEQ_clean_linker_1, # of connection points: 2
#     Edge 17, Type (0, 1), BuildingBlock: KIFKEQ_clean_linker_1, # of connection points: 2
#     Edge 18, Type (0, 1), BuildingBlock: KIFKEQ_clean_linker_1, # of connection points: 2
#     Edge 19, Type (0, 1), BuildingBlock: KIFKEQ_clean_linker_1, # of connection points: 2
#     Edge 20, Type (0, 1), BuildingBlock: KIFKEQ_clean_linker_1, # of connection points: 2
#     Edge 21, Type (0, 1), BuildingBlock: KIFKEQ_clean_linker_1, # of connection points: 2
#     Edge 22, Type (0, 1), BuildingBlock: KIFKEQ_clean_linker_1, # of connection points: 2
#     Edge 23, Type (0, 1), BuildingBlock: KIFKEQ_clean_linker_1, # of connection points: 2
#     Edge 24, Type (0, 1), BuildingBlock: KIFKEQ_clean_linker_1, # of connection points: 2
#     Edge 25, Type (0, 1), BuildingBlock: KIFKEQ_clean_linker_1, # of connection points: 2
#     Edge 26, Type (0, 1), BuildingBlock: KIFKEQ_clean_linker_1, # of connection points: 2
#     Edge 27, Type (0, 1), BuildingBlock: KIFKEQ_clean_linker_1, # of connection points: 2
#     Edge 28, Type (0, 1), BuildingBlock: KIFKEQ_clean_linker_1, # of connection points: 2
#     Edge 29, Type (0, 1), BuildingBlock: KIFKEQ_clean_linker_1, # of connection points: 2
#     Edge 30, Type (0, 1), BuildingBlock: KIFKEQ_clean_linker_1, # of connection points: 2
#     Edge 31, Type (0, 1), BuildingBlock: KIFKEQ_clean_linker_1, # of connection points: 2
#     Edge 32, Type (0, 1), BuildingBlock: KIFKEQ_clean_linker_1, # of connection points: 2
#     Edge 33, Type (0, 1), BuildingBlock: KIFKEQ_clean_linker_1, # of connection points: 2
#     Edge 34, Type (0, 1), BuildingBlock: KIFKEQ_clean_linker_1, # of connection points: 2
#     Edge 35, Type (0, 1), BuildingBlock: KIFKEQ_clean_linker_1, # of connection points: 2
# Relax obj value: 0.211
# Max RMSD: 0.228
# Mean RMSD: 0.184
data_MOF--net-zzz--node1-CUKXOW_clean_sbu_0--node2-ESEHIV_clean_linker_0--edge1-KIFKEQ_clean_linker_1
_symmetry_space_group_name_H-M    P1
_symmetry_Int_Tables_number       1
_symmetry_cell_setting            triclinic
loop_
_symmetry_equiv_pos_as_xyz
'x, y, z'
_cell_length_a     45.47237
_cell_length_b     45.253961
_cell_length_c     16.296834
_cell_angle_alpha  92.768452
_cell_angle_beta   87.64517
_cell_angle_gamma 95.676099
loop_
_atom_site_label
_atom_site_type_symbol
_atom_site_fract_x
_atom_site_fract_y
_atom_site_fract_z
_atom_type_partial_charge
H0 H 0.81466 0.42976 0.18563 0.0
H1 H 0.76826 0.43622 0.96306 0.0
H2 H 0.73331 0.47009 0.19433 0.0
C3 C 0.79603 0.43606 0.15344 0.0
C4 C 0.77476 0.45103 0.19836 0.0
C5 C 0.79512 0.43195 0.06766 0.0
C6 C 0.76967 0.43896 0.02915 0.0
C7 C 0.7465 0.4514 0.07473 0.0
C8 C 0.74988 0.4587 0.15918 0.0
H9 H 0.93728 0.81479 0.17971 0.0
H10 H 0.96801 0.75233 0.99725 0.0
H11 H 0.93619 0.72299 0.23574 0.0
C12 C 0.94048 0.79209 0.15961 0.0
C13 C 0.9342 0.76943 0.21511 0.0
C14 C 0.95309 0.78628 0.08144 0.0
C15 C 0.95869 0.75712 0.05819 0.0
C16 C 0.95229 0.73405 0.11299 0.0
C17 C 0.94014 0.74035 0.19191 0.0
H18 H 0.68057 0.00337 0.17875 0.0
H19 H 0.74719 0.02517 0.99265 0.0
H20 H 0.77187 0.01631 0.24322 0.0
C21 C 0.70377 0.00755 0.16036 0.0
C22 C 0.72522 0.00827 0.21975 0.0
C23 C 0.71155 0.01421 0.07917 0.0
C24 C 0.74136 0.02075 0.05636 0.0
C25 C 0.76357 0.02134 0.11445 0.0
C26 C 0.75528 0.01521 0.19704 0.0
H27 H 0.60698 0.68739 0.17503 0.0
H28 H 0.6042 0.77913 0.25363 0.0
H29 H 0.58125 0.74936 0.00711 0.0
C30 C 0.6045 0.71011 0.16021 0.0
C31 C 0.59421 0.71574 0.08334 0.0
C32 C 0.60822 0.73274 0.22184 0.0
C33 C 0.60262 0.76183 0.2052 0.0
C34 C 0.59322 0.768 0.12709 0.0
C35 C 0.58923 0.74486 0.06662 0.0
H36 H 0.19867 0.56505 0.27921 0.0
H37 H 0.26237 0.56895 0.46749 0.0
H38 H 0.28288 0.53206 0.22476 0.0
C39 C 0.22076 0.56205 0.29805 0.0
C40 C 0.24007 0.54846 0.24253 0.0
C41 C 0.22847 0.5692 0.37937 0.0
C42 C 0.25658 0.5639 0.40414 0.0
C43 C 0.27675 0.55103 0.3485 0.0
C44 C 0.26804 0.54275 0.26779 0.0
H45 H 0.09097 0.19354 0.20947 0.0
H46 H 0.05813 0.25413 0.39316 0.0
H47 H 0.09654 0.28675 0.16444 0.0
C48 C 0.08826 0.21619 0.23134 0.0
C49 C 0.09662 0.23968 0.17965 0.0
C50 C 0.07388 0.22115 0.30748 0.0
C51 C 0.06948 0.25024 0.33437 0.0
C52 C 0.07791 0.27412 0.28356 0.0
C53 C 0.09144 0.26874 0.20582 0.0
H54 H 0.32901 0.99292 0.2252 0.0
H55 H 0.2588 0.9704 0.40112 0.0
H56 H 0.23886 0.99309 0.1558 0.0
C57 C 0.3055 0.98969 0.24081 0.0
C58 C 0.28516 0.99388 0.18149 0.0
C59 C 0.29618 0.98126 0.31959 0.0
C60 C 0.26591 0.97632 0.33923 0.0
C61 C 0.24487 0.98077 0.28091 0.0
C62 C 0.25469 0.98949 0.20132 0.0
H63 H 0.42189 0.31729 0.18516 0.0
H64 H 0.4102 0.22362 0.12218 0.0
H65 H 0.43035 0.25464 0.36996 0.0
C66 C 0.42012 0.2945 0.20409 0.0
C67 C 0.42649 0.28874 0.28462 0.0
C68 C 0.41425 0.27125 0.14536 0.0
C69 C 0.41398 0.24165 0.1679 0.0
C70 C 0.41874 0.23557 0.24999 0.0
C71 C 0.42524 0.25922 0.30767 0.0
Tb72 Tb 0.98436 0.98512 0.64549 0.0
C73 C 0.05394 0.99505 0.60144 0.0
Tb74 Tb 0.02444 0.03001 0.75129 0.0
O75 O 0.96807 0.02047 0.57774 0.0
O76 O 0.00898 0.02635 0.63105 0.0
O77 O 0.02863 0.97785 0.59172 0.0
C78 C 0.05222 0.08065 0.80975 0.0
O79 O 0.05634 0.01824 0.65486 0.0
C80 C 0.01734 0.97512 0.79787 0.0
C81 C 0.95471 0.0217 0.79244 0.0
O82 O 0.05534 0.05444 0.83548 0.0
O83 O 0.0329 0.07837 0.75291 0.0
O84 O 0.04086 0.99297 0.81384 0.0
O85 O 0.99898 0.98946 0.76594 0.0
O86 O 0.98037 0.03811 0.80416 0.0
O87 O 0.95195 0.99832 0.73943 0.0
C88 C 0.95944 0.93281 0.58921 0.0
O89 O 0.95228 0.9585 0.56875 0.0
O90 O 0.98101 0.93666 0.63932 0.0
C91 C 0.98986 0.03982 0.5989 0.0
Tb92 Tb 0.49643 0.02742 0.64403 0.0
C93 C 0.55642 -0.00056 0.60881 0.0
Tb94 Tb 0.5114 0.97819 0.75614 0.0
O95 O 0.53347 0.05693 0.69218 0.0
O96 O 0.51145 0.02475 0.76454 0.0
O97 O 0.53604 0.01456 0.57806 0.0
C98 C 0.53285 0.94566 0.86855 0.0
O99 O 0.55201 0.98494 0.67829 0.0
C100 C 0.47604 0.95996 0.63633 0.0
C101 C 0.45294 0.00756 0.78957 0.0
O102 O 0.54874 0.96226 0.81747 0.0
O103 O 0.50517 0.94726 0.85564 0.0
O104 O 0.4777 0.94561 0.70262 0.0
O105 O 0.49656 0.98064 0.63602 0.0
O106 O 0.47597 -0.00142 0.82573 0.0
O107 O 0.45487 0.01558 0.71227 0.0
C108 C 0.47236 0.0641 0.54873 0.0
O109 O 0.47684 0.06861 0.62659 0.0
O110 O 0.4816 0.03879 0.52376 0.0
C111 C 0.53345 0.04381 0.76126 0.0
Tb112 Tb 0.53494 0.52512 0.63492 0.0
C113 C 0.46771 0.51081 0.59864 0.0
Tb114 Tb 0.49899 0.47454 0.72841 0.0
O115 O 0.52959 0.49895 0.51897 0.0
O116 O 0.5306 0.4782 0.63013 0.0
O117 O 0.49067 0.53144 0.59769 0.0
C118 C 0.4672 0.42468 0.77298 0.0
O119 O 0.46759 0.4858 0.63863 0.0
C120 C 0.50729 0.52612 0.8079 0.0
C121 C 0.56607 0.48894 0.76567 0.0
O122 O 0.46263 0.45138 0.79989 0.0
O123 O 0.48971 0.42611 0.72149 0.0
O124 O 0.50443 0.50099 0.84414 0.0
O125 O 0.50315 0.52134 0.73251 0.0
O126 O 0.5431 0.46834 0.76665 0.0
O127 O 0.56642 0.51378 0.72471 0.0
C128 C 0.56597 0.57549 0.59062 0.0
O129 O 0.54426 0.57353 0.64475 0.0
O130 O 0.57025 0.549 0.56124 0.0
C131 C 0.52646 0.47368 0.55455 0.0
Tb132 Tb 0.98386 0.50744 0.65294 0.0
C133 C 0.02693 0.45793 0.59249 0.0
Tb134 Tb 0.03575 0.49399 0.7605 0.0
O135 O 0.00755 0.54833 0.60635 0.0
O136 O 0.03016 0.51516 0.65032 0.0
O137 O 1.00177 0.47003 0.58344 0.0
C138 C 0.08599 0.4963 0.8413 0.0
O139 O 0.04493 0.46565 0.65365 0.0
C140 C 0.98555 0.46041 0.77896 0.0
C141 C 0.995 0.54435 0.81772 0.0
O142 O 0.08386 0.50337 0.76579 0.0
O143 O 0.0598 0.4878 0.87143 0.0
O144 O 0.0111 0.45157 0.79382 0.0
O145 O 0.98917 0.48749 0.76438 0.0
O146 O 0.02198 0.53538 0.81729 0.0
O147 O 0.97442 0.53214 0.76746 0.0
C148 C 0.932 0.49937 0.57931 0.0
O149 O 0.94554 0.52502 0.6012 0.0
O150 O 0.94789 0.47853 0.59769 0.0
C151 C 0.03289 0.54187 0.63118 0.0
H152 H 0.21313 0.93646 0.36429 0.0
H153 H 0.20515 0.02092 0.25928 0.0
H154 H 0.16416 0.93796 0.43142 0.0
H155 H 0.15609 0.02234 0.32592 0.0
H156 H 0.10095 0.03525 0.56883 0.0
H157 H 0.14353 0.02925 0.47708 0.0
H158 H 0.10858 0.93933 0.41264 0.0
H159 H 0.0653 0.94536 0.50513 0.0
C160 C 0.2006 0.95502 0.35413 0.0
C161 C 0.21306 0.9787 0.30709 0.0
C162 C 0.17251 0.95579 0.3922 0.0
C163 C 0.15644 0.98042 0.38471 0.0
C164 C 0.16813 0.00321 0.3335 0.0
C165 C 0.19609 0.00229 0.29473 0.0
C166 C 0.10217 0.01412 0.53529 0.0
C167 C 0.07974 0.99068 0.54489 0.0
C168 C 0.1265 0.01083 0.48185 0.0
C169 C 0.12931 0.98392 0.43704 0.0
C170 C 0.10696 0.96035 0.4464 0.0
C171 C 0.08222 0.9638 0.49924 0.0
H172 H 0.45343 0.19322 0.18845 0.0
H173 H 0.38557 0.20943 0.37317 0.0
H174 H 0.46207 0.14741 0.25393 0.0
H175 H 0.39333 0.16334 0.43721 0.0
H176 H 0.46409 0.05975 0.38251 0.0
H177 H 0.44527 0.09698 0.29874 0.0
H178 H 0.43408 0.15328 0.51748 0.0
H179 H 0.45221 0.11625 0.60002 0.0
C180 C 0.43968 0.18636 0.24136 0.0
C181 C 0.41908 0.20484 0.2765 0.0
C182 C 0.44457 0.16016 0.27886 0.0
C183 C 0.42879 0.15204 0.35178 0.0
C184 C 0.40637 0.16934 0.38233 0.0
C185 C 0.40175 0.19559 0.34546 0.0
C186 C 0.45729 0.08002 0.41229 0.0
C187 C 0.45967 0.08525 0.49753 0.0
C188 C 0.44661 0.10132 0.36448 0.0
C189 C 0.43798 0.12804 0.40143 0.0
C190 C 0.43991 0.13275 0.48705 0.0
C191 C 0.45058 0.11162 0.53442 0.0
H192 H 0.31448 0.58835 0.4406 0.0
H193 H 0.30573 0.50089 0.3207 0.0
H194 H 0.36125 0.57816 0.49572 0.0
H195 H 0.35309 0.49092 0.37417 0.0
H196 H 0.41773 0.47269 0.5752 0.0
H197 H 0.37288 0.48238 0.50837 0.0
H198 H 0.4122 0.57044 0.45435 0.0
H199 H 0.45687 0.56103 0.52223 0.0
C200 C 0.32266 0.56698 0.42563 0.0
C201 C 0.30632 0.54538 0.3766 0.0
C202 C 0.34962 0.56124 0.45657 0.0
C203 C 0.36093 0.5337 0.43945 0.0
C204 C 0.34486 0.51225 0.38915 0.0
C205 C 0.31789 0.51807 0.3578 0.0
C206 C 0.41688 0.49412 0.54898 0.0
C207 C 0.44088 0.51616 0.55483 0.0
C208 C 0.39122 0.49957 0.51004 0.0
C209 C 0.3889 0.52722 0.47625 0.0
C210 C 0.41311 0.54904 0.48072 0.0
C211 C 0.4388 0.54357 0.51937 0.0
H212 H 0.1139 0.32617 0.28448 0.0
H213 H 0.02455 0.2895 0.34176 0.0
H214 H 0.10212 0.37468 0.34341 0.0
H215 H 0.01292 0.33744 0.40167 0.0
H216 H 0.07923 0.43294 0.57896 0.0
H217 H 0.09182 0.39174 0.48753 0.0
H218 H 0.0072 0.38962 0.37512 0.0
H219 H 0.99423 0.4307 0.46774 0.0
C220 C 0.09168 0.32866 0.30858 0.0
C221 C 0.07025 0.30415 0.30995 0.0
C222 C 0.08498 0.35627 0.34255 0.0
C223 C 0.05665 0.35976 0.37751 0.0
C224 C 0.03484 0.33554 0.37457 0.0
C225 C 0.04159 0.30802 0.34121 0.0
C226 C 0.06335 0.42393 0.53433 0.0
C227 C 0.03553 0.43484 0.5315 0.0
C228 C 0.07075 0.40051 0.48127 0.0
C229 C 0.05046 0.38742 0.42438 0.0
C230 C 0.02314 0.39913 0.41901 0.0
C231 C 0.01576 0.42268 0.47196 0.0
H232 H 0.81219 0.99374 0.15318 0.0
H233 H 0.7861 0.06411 0.01022 0.0
H234 H 0.86125 -0.00149 0.08323 0.0
H235 H 0.8344 0.0678 0.93869 0.0
H236 H 0.89714 0.01401 0.75197 0.0
H237 H 0.85347 0.01876 0.84249 0.0
H238 H 0.90943 0.04476 0.04615 0.0
H239 H 0.95348 0.04096 0.95457 0.0
C240 C 0.81711 0.01067 0.10855 0.0
C241 C 0.79501 0.02811 0.08612 0.0
C242 C 0.84512 0.01332 0.06842 0.0
C243 C 0.85131 0.03327 0.00508 0.0
C244 C 0.83001 0.05208 0.98683 0.0
C245 C 0.80233 0.04979 0.02754 0.0
C246 C 0.90015 0.02114 0.81576 0.0
C247 C 0.92866 0.0273 0.84614 0.0
C248 C 0.87521 0.02384 0.86744 0.0
C249 C 0.87821 0.03205 0.95108 0.0
C250 C 0.90665 0.03838 0.98181 0.0
C251 C 0.93173 0.03642 0.92939 0.0
H252 H 0.54093 0.78036 0.07101 0.0
H253 H 0.62609 0.82215 0.1419 0.0
H254 H 0.52795 0.82727 0.02388 0.0
H255 H 0.61289 0.86992 0.09548 0.0
H256 H 0.58935 0.93054 0.88011 0.0
H257 H 0.60493 0.89072 0.96024 0.0
H258 H 0.51658 0.87655 0.06842 0.0
H259 H 0.50099 0.91546 0.98672 0.0
C260 C 0.55671 0.79983 0.07755 0.0
C261 C 0.58457 0.79766 0.1094 0.0
C262 C 0.5492 0.82682 0.05122 0.0
C263 C 0.56937 0.85242 0.05602 0.0
C264 C 0.59697 0.85053 0.09055 0.0
C265 C 0.60443 0.82335 0.11764 0.0
C266 C 0.57349 0.91915 0.92208 0.0
C267 C 0.54386 0.92554 0.92614 0.0
C268 C 0.58241 0.89651 0.96835 0.0
C269 C 0.56184 0.8801 0.0196 0.0
C270 C 0.53279 0.88827 0.02808 0.0
C271 C 0.52387 0.91062 0.98151 0.0
H272 H 0.71633 0.50134 0.08954 0.0
H273 H 0.71551 0.41502 0.96409 0.0
H274 H 0.67229 0.51086 0.01721 0.0
H275 H 0.67213 0.42475 0.89073 0.0
H276 H 0.61461 0.5282 0.79842 0.0
H277 H 0.65768 0.51964 0.87567 0.0
H278 H 0.6196 0.43022 0.91847 0.0
H279 H 0.57684 0.43852 0.84071 0.0
C280 C 0.70667 0.48436 0.0469 0.0
C281 C 0.71942 0.45742 0.03255 0.0
C282 C 0.68165 0.48993 0.00485 0.0
C283 C 0.66869 0.46856 0.94819 0.0
C284 C 0.68134 0.44156 0.93453 0.0
C285 C 0.70639 0.4361 0.97603 0.0
C286 C 0.61545 0.50667 0.82408 0.0
C287 C 0.5923 0.48398 0.81272 0.0
C288 C 0.64004 0.50187 0.86896 0.0
C289 C 0.64213 0.47421 0.90304 0.0
C290 C 0.61888 0.45165 0.89214 0.0
C291 C 0.59427 0.45648 0.84777 0.0
H292 H 0.91648 0.68221 0.12557 0.0
H293 H 0.00363 0.71775 0.04223 0.0
H294 H 0.92637 0.63293 0.0683 0.0
H295 H 0.01332 0.66898 0.98392 0.0
H296 H 0.03094 0.57485 0.92975 0.0
H297 H 0.02033 0.61788 0.01739 0.0
H298 H 0.9322 0.61243 0.92483 0.0
H299 H 0.94253 0.56908 0.83804 0.0
C300 C 0.93787 0.67932 0.09615 0.0
C301 C 0.95921 0.7037 0.08742 0.0
C302 C 0.94345 0.65127 0.06296 0.0
C303 C 0.97056 0.64718 0.02139 0.0
C304 C 0.99234 0.67135 0.01629 0.0
C305 C 0.9867 0.69932 0.04889 0.0
C306 C 0.00917 0.58257 0.92869 0.0
C307 C 0.9877 0.56875 0.87611 0.0
C308 C 1.00314 0.60725 0.97885 0.0
C309 C 0.97552 0.61861 0.9775 0.0
C310 C 0.95359 0.60399 0.92777 0.0
C311 C 0.95962 0.5793 0.8775 0.0
H312 H 0.03799 0.17484 0.24614 0.0
H313 H 0.07763 0.21041 0.47068 0.0
H314 H 0.0148 0.13222 0.3176 0.0
H315 H 0.05503 0.16703 0.54265 0.0
H316 H 0.98953 0.09653 0.66077 0.0
H317 H 0.00864 0.14191 0.59201 0.0
H318 H 0.02953 0.08871 0.37352 0.0
H319 H 0.00978 0.04387 0.44207 0.0
C320 C 0.04199 0.17328 0.31081 0.0
C321 C 0.05995 0.19559 0.35277 0.0
C322 C 0.02873 0.14887 0.35177 0.0
C323 C 0.03331 0.14602 0.43563 0.0
C324 C 0.05084 0.16869 0.47818 0.0
C325 C 0.06392 0.19339 0.43711 0.0
C326 C 0.99788 0.09487 0.59767 0.0
C327 C 0.998 0.06712 0.5558 0.0
C328 C 0.00903 0.12068 0.55857 0.0
C329 C 0.02058 0.11895 0.4772 0.0
C330 C 0.02029 0.09094 0.43556 0.0
C331 C 0.00902 0.06528 0.47452 0.0
H332 H 0.30364 0.93325 0.4094 0.0
H333 H 0.34004 0.02295 0.36415 0.0
H334 H 0.34689 0.92613 0.48888 0.0
H335 H 0.38279 0.01619 0.44409 0.0
H336 H 0.47074 0.98192 0.48654 0.0
H337 H 0.42501 0.98714 0.4174 0.0
H338 H 0.37469 0.94218 0.61342 0.0
H339 H 0.42057 0.93699 0.68216 0.0
C340 C 0.32055 0.9516 0.41836 0.0
C341 C 0.31882 0.9785 0.38033 0.0
C342 C 0.34529 0.94755 0.46343 0.0
C343 C 0.3685 0.97041 0.47106 0.0
C344 C 0.36567 0.99791 0.43733 0.0
C345 C 0.34112 0.00188 0.39229 0.0
C346 C 0.44987 0.9732 0.51452 0.0
C347 C 0.44902 0.95948 0.58979 0.0
C348 C 0.42371 0.97622 0.47532 0.0
C349 C 0.39622 0.96548 0.51078 0.0
C350 C 0.39553 0.95057 0.58455 0.0
C351 C 0.42176 0.94755 0.62371 0.0
H352 H 0.47689 0.29276 0.37024 0.0
H353 H 0.40289 0.34117 0.32086 0.0
H354 H 0.5011 0.33701 0.43919 0.0
H355 H 0.42654 0.38534 0.39227 0.0
H356 H 0.49286 0.46686 0.41968 0.0
H357 H 0.46714 0.421 0.36328 0.0
H358 H 0.50212 0.37195 0.55235 0.0
H359 H 0.52931 0.41774 0.60501 0.0
C360 C 0.46541 0.31267 0.37649 0.0
C361 C 0.43809 0.31364 0.34011 0.0
C362 C 0.4793 0.33808 0.41587 0.0
C363 C 0.466 0.36493 0.42024 0.0
C364 C 0.43778 0.36528 0.38811 0.0
C365 C 0.42407 0.33995 0.34799 0.0
C366 C 0.49528 0.44617 0.44836 0.0
C367 C 0.51265 0.44574 0.51729 0.0
C368 C 0.48018 0.41995 0.41699 0.0
C369 C 0.48211 0.39277 0.45408 0.0
C370 C 0.50015 0.3924 0.52206 0.0
C371 C 0.51547 0.41862 0.55282 0.0
H372 H 0.21255 0.54467 0.5256 0.0
H373 H 0.19108 0.6123 0.36636 0.0
H374 H 0.16579 0.54792 0.60168 0.0
H375 H 0.14432 0.61612 0.44357 0.0
H376 H 0.07927 0.55594 0.7299 0.0
H377 H 0.13011 0.57273 0.68617 0.0
H378 H 0.10098 0.58121 0.43976 0.0
H379 H 0.05055 0.56435 0.48428 0.0
C380 C 0.19838 0.56118 0.50918 0.0
C381 C 0.20519 0.57791 0.43943 0.0
C382 C 0.17148 0.56307 0.55279 0.0
C383 C 0.15098 0.58185 0.52758 0.0
C384 C 0.15931 0.60092 0.46326 0.0
C385 C 0.18613 0.59889 0.41941 0.0
C386 C 0.08398 0.5615 0.6666 0.0
C387 C 0.06153 0.55799 0.60962 0.0
C388 C 0.11292 0.57135 0.64167 0.0
C389 C 0.11976 0.57791 0.55916 0.0
C390 C 0.09657 0.57666 0.50395 0.0
C391 C 0.06766 0.56688 0.52914 0.0
H392 H 0.00463 0.79623 0.98936 0.0
H393 H 0.92216 0.83306 0.05294 0.0
H394 H 0.02123 0.84009 0.91171 0.0
H395 H 0.93922 0.8773 0.97985 0.0
H396 H 0.96407 0.94309 0.79295 0.0
H397 H 0.94947 0.89488 0.84729 0.0
H398 H 0.0373 0.89249 0.93738 0.0
H399 H 0.05259 0.94046 0.8768 0.0
C400 C 0.98992 0.81351 0.9859 0.0
C401 C 0.96209 0.81124 0.02733 0.0
C402 C 0.99961 0.8388 0.9425 0.0
C403 C 0.98164 0.86226 0.93976 0.0
C404 C 0.95352 0.85953 0.97957 0.0
C405 C 0.94382 0.83428 0.0223 0.0
C406 C 0.98055 0.93203 0.8225 0.0
C407 C 0.0096 0.94535 0.82978 0.0
C408 C 0.97203 0.9045 0.85478 0.0
C409 C 0.99208 0.88993 0.89762 0.0
C410 C 0.02139 0.903 0.90396 0.0
C411 C 0.0301 0.93053 0.87004 0.0
H412 H 0.66387 0.97447 0.04758 0.0
H413 H 0.70588 0.06023 0.98161 0.0
H414 H 0.62144 0.98205 0.96681 0.0
H415 H 0.6632 0.06832 0.90268 0.0
H416 H 0.59027 0.06212 0.71503 0.0
H417 H 0.63496 0.05326 0.78412 0.0
H418 H 0.58121 0.01259 0.98116 0.0
H419 H 0.53664 0.02068 0.91041 0.0
C420 C 0.66405 0.99483 0.01513 0.0
C421 C 0.68801 0.01681 0.02082 0.0
C422 C 0.6397 -0.00068 0.96953 0.0
C423 C 0.63872 0.02602 0.92947 0.0
C424 C 0.66333 0.04743 0.93229 0.0
C425 C 0.6878 0.0428 0.97733 0.0
C426 C 0.5881 0.05169 0.77373 0.0
C427 C 0.56014 0.04213 0.80782 0.0
C428 C 0.61366 0.04654 0.81318 0.0
C429 C 0.61167 0.03198 0.88779 0.0
C430 C 0.58355 0.0233 0.92291 0.0
C431 C 0.55803 0.02825 0.88312 0.0
H432 H 0.62311 0.66688 0.03836 0.0
H433 H 0.54243 0.70692 0.00337 0.0
H434 H 0.60277 0.62143 0.96566 0.0
H435 H 0.52202 0.6616 0.93162 0.0
H436 H 0.5413 0.53487 0.94177 0.0
H437 H 0.56428 0.58212 -0.00139 0.0
H438 H 0.52513 0.62856 0.81138 0.0
H439 H 0.50121 0.5813 0.75715 0.0
C440 C 0.6012 0.66608 0.01412 0.0
C441 C 0.58435 0.69041 0.02669 0.0
C442 C 0.58948 0.64004 0.97303 0.0
C443 C 0.56062 0.63777 0.94392 0.0
C444 C 0.54441 0.66268 0.95265 0.0
C445 C 0.55616 0.68873 0.99354 0.0
C446 C 0.53745 0.55526 0.9135 0.0
C447 C 0.51977 0.55462 0.84487 0.0
C448 C 0.55091 0.58225 0.94515 0.0
C449 C 0.54683 0.60908 0.90887 0.0
C450 C 0.52866 0.60833 0.8409 0.0
C451 C 0.51514 0.58133 0.80951 0.0
H452 H 0.85328 0.44428 0.10969 0.0
H453 H 0.79973 0.40371 0.9124 0.0
H454 H 0.89726 0.43782 0.02718 0.0
H455 H 0.84487 0.40051 0.82643 0.0
H456 H 0.97356 0.40955 0.86391 0.0
H457 H 0.92526 0.39104 0.92482 0.0
H458 H 0.884 0.45795 0.80373 0.0
H459 H 0.93197 0.4777 0.74846 0.0
C460 C 0.8505 0.43299 0.05014 0.0
C461 C 0.82227 0.42436 0.01894 0.0
C462 C 0.87608 0.42953 0.00248 0.0
C463 C 0.87435 0.41838 0.92122 0.0
C464 C 0.8466 0.40883 0.88967 0.0
C465 C 0.82077 0.41122 0.93868 0.0
C466 C 0.95401 0.41966 0.84844 0.0
C467 C 0.95645 0.44495 0.80102 0.0
C468 C 0.92647 0.40894 0.88263 0.0
C469 C 0.90104 0.4228 0.86736 0.0
C470 C 0.9032 0.44644 0.81443 0.0
C471 C 0.93071 0.45773 0.78275 0.0
H472 H 0.1447 0.21316 0.11946 0.0
H473 H 0.06411 0.24597 0.04835 0.0
H474 H 0.14339 0.17883 -0.00077 0.0
H475 H 0.06171 0.21093 0.93104 0.0
H476 H 0.05115 0.13583 0.75064 0.0
H477 H 0.07374 0.1829 0.81013 0.0
H478 H 0.11042 0.13501 -0.00104 0.0
H479 H 0.08885 0.08838 0.93765 0.0
C480 C 0.12759 0.21407 0.07555 0.0
C481 C 0.10426 0.23173 0.09331 0.0
C482 C 0.1265 0.1941 0.00748 0.0
C483 C 0.10173 0.19115 0.95764 0.0
C484 C 0.08102 0.2123 0.96823 0.0
C485 C 0.08242 0.23261 0.0355 0.0
C486 C 0.06449 0.13552 0.80412 0.0
C487 C 0.0679 0.10867 0.8407 0.0
C488 C 0.07747 0.16242 0.83804 0.0
C489 C 0.09386 0.1629 0.90957 0.0
C490 C 0.09849 0.13567 0.94303 0.0
C491 C 0.08575 0.10885 0.90872 0.0
H492 H 0.31482 0.04653 0.14551 0.0
H493 H 0.28629 0.95991 0.03909 0.0
H494 H 0.35339 0.05323 0.03734 0.0
H495 H 0.32469 0.96682 0.92944 0.0
H496 H 0.3973 0.00279 0.72964 0.0
H497 H 0.35015 0.00371 0.80852 0.0
H498 H 0.3976 0.01709 0.03329 0.0
H499 H 0.4445 0.01536 0.95529 0.0
C500 C 0.31574 0.02968 0.09615 0.0
C501 C 0.29754 0.00279 0.10016 0.0
C502 C 0.33803 0.03334 0.03497 0.0
C503 C 0.34223 0.01034 0.97608 0.0
C504 C 0.3218 0.9849 0.97416 0.0
C505 C 0.29964 0.98106 0.03626 0.0
C506 C 0.3976 0.00608 0.7959 0.0
C507 C 0.42456 0.00903 0.83649 0.0
C508 C 0.37067 0.00655 0.84077 0.0
C509 C 0.37034 0.01082 0.92665 0.0
C510 C 0.39731 0.01419 0.96692 0.0
C511 C 0.42411 0.01299 0.92242 0.0
H512 H 0.45652 0.26808 0.02505 0.0
H513 H 0.36943 0.2956 0.07711 0.0
H514 H 0.46334 0.30106 0.91085 0.0
H515 H 0.37541 0.32781 0.96038 0.0
H516 H 0.42464 0.41929 0.89449 0.0
H517 H 0.4047 0.37413 0.95977 0.0
H518 H 0.45429 0.32205 0.78401 0.0
H519 H 0.47498 0.36776 0.72029 0.0
C520 C 0.43815 0.27986 0.00863 0.0
C521 C 0.41251 0.27944 0.05947 0.0
C522 C 0.44203 0.29895 0.9433 0.0
C523 C 0.42021 0.31778 0.92771 0.0
C524 C 0.39298 0.31423 0.97211 0.0
C525 C 0.38929 0.29543 0.03805 0.0
C526 C 0.43083 0.39814 0.86893 0.0
C527 C 0.45166 0.39699 0.80337 0.0
C528 C 0.41917 0.37211 0.90577 0.0
C529 C 0.42795 0.34429 0.87747 0.0
C530 C 0.44736 0.34308 0.80812 0.0
C531 C 0.45916 0.36922 0.77153 0.0
H532 H 0.22579 0.4913 0.18989 0.0
H533 H 0.2261 0.58182 0.11859 0.0
H534 H 0.1923 0.47466 0.07912 0.0
H535 H 0.19294 0.56537 0.00752 0.0
H536 H 0.09432 0.47607 0.99229 0.0
H537 H 0.13852 0.48517 0.07365 0.0
H538 H 0.18369 0.53369 0.87612 0.0
H539 H 0.13941 0.52433 0.79431 0.0
C540 C 0.21973 0.5074 0.14808 0.0
C541 C 0.22864 0.53774 0.16185 0.0
C542 C 0.20031 0.49798 0.08548 0.0
C543 C 0.18979 0.51876 0.03525 0.0
C544 C 0.20084 0.54881 0.04474 0.0
C545 C 0.21989 0.55825 0.10799 0.0
C546 C 0.11384 0.48829 0.96586 0.0
C547 C 0.11347 0.49961 0.88734 0.0
C548 C 0.13922 0.49329 0.01209 0.0
C549 C 0.16461 0.51004 0.98107 0.0
C550 C 0.16444 0.52073 0.90153 0.0
C551 C 0.13916 0.51535 0.85481 0.0
H552 H 0.88346 0.79159 0.27195 0.0
H553 H 0.96819 0.76972 0.34665 0.0
H554 H 0.88038 0.82613 0.39105 0.0
H555 H 0.96619 0.8051 0.46286 0.0
H556 H 0.96671 0.87866 0.64625 0.0
H557 H 0.95003 0.83007 0.58377 0.0
H558 H 0.90704 0.87344 0.39729 0.0
H559 H 0.92262 0.92156 0.46212 0.0
C560 C 0.90073 0.79317 0.31629 0.0
C561 C 0.92616 0.77835 0.30039 0.0
C562 C 0.89926 0.81328 0.3837 0.0
C563 C 0.92355 0.81931 0.43478 0.0
C564 C 0.94706 0.80123 0.42501 0.0
C565 C 0.94825 0.78076 0.35839 0.0
C566 C 0.95319 0.8776 0.59275 0.0
C567 C 0.94635 0.9037 0.55777 0.0
C568 C 0.94363 0.84981 0.557 0.0
C569 C 0.92743 0.84769 0.48491 0.0
C570 C 0.91906 0.87397 0.45341 0.0
C571 C 0.92829 0.90169 0.48984 0.0
H572 H 0.71983 0.05183 0.33735 0.0
H573 H 0.70237 0.95739 0.28961 0.0
H574 H 0.68228 0.04964 0.44939 0.0
H575 H 0.6649 0.955 0.40169 0.0
H576 H 0.57953 0.03808 0.49449 0.0
H577 H 0.6276 0.03972 0.42302 0.0
H578 H 0.64861 0.9641 0.5531 0.0
H579 H 0.60021 0.96254 0.62598 0.0
C580 C 0.70917 0.03036 0.35402 0.0
C581 C 0.71416 0.00473 0.30559 0.0
C582 C 0.68732 0.02914 0.41718 0.0
C583 C 0.67025 0.00223 0.43323 0.0
C584 C 0.67771 0.97603 0.39103 0.0
C585 C 0.69936 0.97732 0.32734 0.0
C586 C 0.59431 0.02177 0.50817 0.0
C587 C 0.58581 -4e-05 0.56536 0.0
C588 C 0.62209 0.02298 0.46795 0.0
C589 C 0.64207 0.00224 0.48306 0.0
C590 C 0.63372 0.98044 0.54045 0.0
C591 C 0.60599 0.97952 0.5819 0.0
H592 H 0.56889 0.7344 0.35043 0.0
H593 H 0.65496 0.7077 0.2788 0.0
H594 H 0.56511 0.70032 0.46203 0.0
H595 H 0.65204 0.67437 0.39291 0.0
H596 H 0.55863 0.63199 0.64821 0.0
H597 H 0.57717 0.67828 0.58403 0.0
H598 H 0.6235 0.62785 0.39674 0.0
H599 H 0.6058 0.58211 0.46251 0.0
C600 C 0.58776 0.72251 0.36181 0.0
C601 C 0.61212 0.72347 0.30603 0.0
C602 C 0.5856 0.70278 0.42569 0.0
C603 C 0.60793 0.68386 0.43515 0.0
C604 C 0.63406 0.68794 0.38591 0.0
C605 C 0.63601 0.70738 0.3214 0.0
C606 C 0.57332 0.63101 0.59429 0.0
C607 C 0.58054 0.60353 0.55957 0.0
C608 C 0.58387 0.65749 0.55737 0.0
C609 C 0.60169 0.65694 0.48472 0.0
C610 C 0.61025 0.62939 0.45323 0.0
C611 C 0.59987 0.60302 0.49044 0.0
H612 H 0.77546 0.42022 0.33757 0.0
H613 H 0.79499 0.50728 0.24162 0.0
H614 H 0.80802 0.43437 0.4513 0.0
H615 H 0.82885 0.52114 0.35163 0.0
H616 H 0.89298 0.54006 0.55325 0.0
H617 H 0.8457 0.5311 0.48522 0.0
H618 H 0.85957 0.43811 0.4482 0.0
H619 H 0.9057 0.447 0.51898 0.0
C620 C 0.78573 0.44284 0.34315 0.0
C621 C 0.78266 0.46275 0.28145 0.0
C622 C 0.80492 0.45082 0.40716 0.0
C623 C 0.822 0.47858 0.4093 0.0
C624 C 0.81621 0.49959 0.35255 0.0
C625 C 0.79658 0.49176 0.28949 0.0
C626 C 0.88561 0.5177 0.53111 0.0
C627 C 0.90305 0.49426 0.54061 0.0
C628 C 0.85855 0.51253 0.49206 0.0
C629 C 0.84855 0.48384 0.46108 0.0
C630 C 0.86594 0.46038 0.47268 0.0
C631 C 0.8927 0.46551 0.51236 0.0
loop_
_geom_bond_atom_site_label_1
_geom_bond_atom_site_label_2
_geom_bond_distance
_geom_bond_site_symmetry_2
_ccdc_geom_bond_type
H0 C3 0.931 . S
H1 C6 0.928 . S
H2 C8 0.930 . S
C3 H0 0.931 . S
C3 C4 1.413 . S
C3 C5 1.360 1_554 S
C4 C3 1.413 . S
C4 C8 1.429 . S
C5 C3 1.360 1_556 S
C5 C6 1.372 . S
C6 H1 0.928 . S
C6 C5 1.372 . S
C6 C7 1.404 1_556 S
C7 C6 1.404 1_554 S
C7 C8 1.391 . S
C8 H2 0.930 . S
C8 C4 1.429 . S
C8 C7 1.391 . S
H9 C12 0.931 . S
H10 C15 0.928 . S
H11 C17 0.930 . S
C12 H9 0.931 . S
C12 C13 1.413 . S
C12 C14 1.360 1_554 S
C13 C12 1.413 . S
C13 C17 1.429 . S
C14 C12 1.360 1_556 S
C14 C15 1.372 . S
C15 H10 0.928 . S
C15 C14 1.372 . S
C15 C16 1.404 1_556 S
C16 C15 1.404 1_554 S
C16 C17 1.391 . S
C17 H11 0.930 . S
C17 C13 1.429 . S
C17 C16 1.391 . S
H18 C21 0.931 . S
H19 C24 0.928 1_556 S
H20 C26 0.933 . S
C21 H18 0.931 . S
C21 C22 1.414 . S
C21 C23 1.360 . S
C22 C21 1.414 . S
C22 C26 1.430 1_565 S
C23 C21 1.360 . S
C23 C24 1.374 . S
C24 H19 0.928 1_554 S
C24 C23 1.374 . S
C24 C25 1.403 . S
C25 C24 1.403 . S
C25 C26 1.391 1_565 S
C26 H20 0.933 . S
C26 C22 1.430 1_545 S
C26 C25 1.391 1_545 S
H27 C30 0.931 . S
H28 C33 0.928 . S
H29 C35 0.930 . S
C30 H27 0.931 . S
C30 C31 1.413 . S
C30 C32 1.360 . S
C31 C30 1.413 . S
C31 C35 1.429 1_554 S
C32 C30 1.360 . S
C32 C33 1.372 . S
C33 H28 0.928 . S
C33 C32 1.372 . S
C33 C34 1.404 . S
C34 C33 1.404 . S
C34 C35 1.391 1_554 S
C35 H29 0.930 . S
C35 C31 1.429 1_556 S
C35 C34 1.391 1_556 S
H36 C39 0.931 . S
H37 C42 0.928 . S
H38 C44 0.930 . S
C39 H36 0.931 . S
C39 C40 1.413 . S
C39 C41 1.360 . S
C40 C39 1.413 . S
C40 C44 1.429 . S
C41 C39 1.360 . S
C41 C42 1.372 . S
C42 H37 0.928 . S
C42 C41 1.372 . S
C42 C43 1.404 . S
C43 C42 1.404 . S
C43 C44 1.391 . S
C44 H38 0.930 . S
C44 C40 1.429 . S
C44 C43 1.391 . S
H45 C48 0.931 . S
H46 C51 0.928 . S
H47 C53 0.930 . S
C48 H45 0.931 . S
C48 C49 1.413 . S
C48 C50 1.360 . S
C49 C48 1.413 . S
C49 C53 1.429 . S
C50 C48 1.360 . S
C50 C51 1.372 . S
C51 H46 0.928 . S
C51 C50 1.372 . S
C51 C52 1.404 . S
C52 C51 1.404 . S
C52 C53 1.391 . S
C53 H47 0.930 . S
C53 C49 1.429 . S
C53 C52 1.391 . S
H54 C57 0.931 . S
H55 C60 0.928 . S
H56 C62 0.930 . S
C57 H54 0.931 . S
C57 C58 1.413 . S
C57 C59 1.360 . S
C58 C57 1.413 . S
C58 C62 1.429 . S
C59 C57 1.360 . S
C59 C60 1.372 . S
C60 H55 0.928 . S
C60 C59 1.372 . S
C60 C61 1.404 . S
C61 C60 1.404 . S
C61 C62 1.391 . S
C62 H56 0.930 . S
C62 C58 1.429 . S
C62 C61 1.391 . S
H63 C66 0.931 . S
H64 C69 0.928 . S
H65 C71 0.930 . S
C66 H63 0.931 . S
C66 C67 1.413 . S
C66 C68 1.360 . S
C67 C66 1.413 . S
C67 C71 1.429 . S
C68 C66 1.360 . S
C68 C69 1.372 . S
C69 H64 0.928 . S
C69 C68 1.372 . S
C69 C70 1.404 . S
C70 C69 1.404 . S
C70 C71 1.391 . S
C71 H65 0.930 . S
C71 C67 1.429 . S
C71 C70 1.391 . S
Tb72 O75 2.453 1_665 S
Tb72 O76 2.596 1_665 S
Tb72 O77 2.374 1_655 S
Tb72 O85 2.343 . S
Tb72 O87 2.353 1_565 S
Tb72 O89 2.427 . S
Tb72 O90 2.513 . S
C73 O77 1.251 . S
C73 O79 1.263 . S
Tb74 O76 2.343 . S
Tb74 O79 2.353 1_545 S
Tb74 O82 2.427 . S
Tb74 O83 2.513 . S
Tb74 O84 2.453 1_545 S
Tb74 O85 2.596 1_445 S
Tb74 O86 2.374 1_455 S
O75 Tb72 2.453 1_445 S
O75 C91 1.245 . S
O76 Tb72 2.596 1_445 S
O76 Tb74 2.343 . S
O76 C91 1.259 . S
O77 Tb72 2.374 1_455 S
O77 C73 1.251 . S
C78 O82 1.275 . S
C78 O83 1.246 . S
O79 C73 1.263 . S
O79 Tb74 2.353 1_565 S
C80 O84 1.245 1_655 S
C80 O85 1.259 . S
C81 O86 1.250 . S
C81 O87 1.263 . S
O82 Tb74 2.427 . S
O82 C78 1.275 . S
O83 Tb74 2.513 . S
O83 C78 1.246 . S
O84 Tb74 2.453 1_565 S
O84 C80 1.245 1_455 S
O85 Tb72 2.343 . S
O85 Tb74 2.596 1_665 S
O85 C80 1.259 . S
O86 Tb74 2.374 1_655 S
O86 C81 1.250 . S
O87 Tb72 2.353 1_545 S
O87 C81 1.263 . S
C88 O89 1.275 . S
C88 O90 1.246 . S
O89 Tb72 2.427 . S
O89 C88 1.275 . S
O90 Tb72 2.513 . S
O90 C88 1.246 . S
C91 O75 1.245 . S
C91 O76 1.259 . S
Tb92 O95 2.453 . S
Tb92 O96 2.596 1_545 S
Tb92 O97 2.374 . S
Tb92 O105 2.343 . S
Tb92 O107 2.353 . S
Tb92 O109 2.427 . S
Tb92 O110 2.513 . S
C93 O97 1.251 . S
C93 O99 1.263 1_545 S
Tb94 O96 2.343 . S
Tb94 O99 2.353 . S
Tb94 O102 2.427 . S
Tb94 O103 2.513 . S
Tb94 O104 2.453 . S
Tb94 O105 2.596 1_565 S
Tb94 O106 2.374 . S
O95 Tb92 2.453 . S
O95 C111 1.245 . S
O96 Tb92 2.596 1_565 S
O96 Tb94 2.343 . S
O96 C111 1.259 1_565 S
O97 Tb92 2.374 . S
O97 C93 1.251 . S
C98 O102 1.275 . S
C98 O103 1.246 . S
O99 C93 1.263 1_565 S
O99 Tb94 2.353 . S
C100 O104 1.245 . S
C100 O105 1.259 1_565 S
C101 O106 1.250 1_545 S
C101 O107 1.263 . S
O102 Tb94 2.427 . S
O102 C98 1.275 . S
O103 Tb94 2.513 . S
O103 C98 1.246 . S
O104 Tb94 2.453 . S
O104 C100 1.245 . S
O105 Tb92 2.343 . S
O105 Tb94 2.596 1_545 S
O105 C100 1.259 1_545 S
O106 Tb94 2.374 . S
O106 C101 1.250 1_565 S
O107 Tb92 2.353 . S
O107 C101 1.263 . S
C108 O109 1.275 . S
C108 O110 1.246 . S
O109 Tb92 2.427 . S
O109 C108 1.275 . S
O110 Tb92 2.513 . S
O110 C108 1.246 . S
C111 O95 1.245 . S
C111 O96 1.259 1_545 S
Tb112 O115 2.453 . S
Tb112 O116 2.596 . S
Tb112 O117 2.374 . S
Tb112 O125 2.343 . S
Tb112 O127 2.353 . S
Tb112 O129 2.427 . S
Tb112 O130 2.513 . S
C113 O117 1.251 . S
C113 O119 1.263 . S
Tb114 O116 2.343 . S
Tb114 O119 2.353 . S
Tb114 O122 2.427 . S
Tb114 O123 2.513 . S
Tb114 O124 2.453 . S
Tb114 O125 2.596 . S
Tb114 O126 2.374 . S
O115 Tb112 2.453 . S
O115 C131 1.245 . S
O116 Tb112 2.596 . S
O116 Tb114 2.343 . S
O116 C131 1.259 . S
O117 Tb112 2.374 . S
O117 C113 1.251 . S
C118 O122 1.275 . S
C118 O123 1.246 . S
O119 C113 1.263 . S
O119 Tb114 2.353 . S
C120 O124 1.245 . S
C120 O125 1.259 . S
C121 O126 1.250 . S
C121 O127 1.263 . S
O122 Tb114 2.427 . S
O122 C118 1.275 . S
O123 Tb114 2.513 . S
O123 C118 1.246 . S
O124 Tb114 2.453 . S
O124 C120 1.245 . S
O125 Tb112 2.343 . S
O125 Tb114 2.596 . S
O125 C120 1.259 . S
O126 Tb114 2.374 . S
O126 C121 1.250 . S
O127 Tb112 2.353 . S
O127 C121 1.263 . S
C128 O129 1.275 . S
C128 O130 1.246 . S
O129 Tb112 2.427 . S
O129 C128 1.275 . S
O130 Tb112 2.513 . S
O130 C128 1.246 . S
C131 O115 1.245 . S
C131 O116 1.259 . S
Tb132 O135 2.453 1_655 S
Tb132 O136 2.596 1_655 S
Tb132 O137 2.374 1_655 S
Tb132 O145 2.343 . S
Tb132 O147 2.353 . S
Tb132 O149 2.427 . S
Tb132 O150 2.513 . S
C133 O137 1.251 . S
C133 O139 1.263 . S
Tb134 O136 2.343 . S
Tb134 O139 2.353 . S
Tb134 O142 2.427 . S
Tb134 O143 2.513 . S
Tb134 O144 2.453 1_455 S
Tb134 O145 2.596 1_455 S
Tb134 O146 2.388 . S
O135 Tb132 2.453 1_455 S
O135 C151 1.245 . S
O136 Tb132 2.596 1_455 S
O136 Tb134 2.343 . S
O136 C151 1.259 . S
O137 Tb132 2.374 1_455 S
O137 C133 1.251 . S
C138 O142 1.275 . S
C138 O143 1.246 . S
O139 C133 1.263 . S
O139 Tb134 2.353 . S
C140 O144 1.245 . S
C140 O145 1.259 . S
C141 O146 1.232 1_655 S
C141 O147 1.263 . S
O142 Tb134 2.427 . S
O142 C138 1.275 . S
O143 Tb134 2.513 . S
O143 C138 1.246 . S
O144 Tb134 2.453 1_655 S
O144 C140 1.245 . S
O145 Tb132 2.343 . S
O145 Tb134 2.596 1_655 S
O145 C140 1.259 . S
O146 Tb134 2.388 . S
O146 C141 1.232 1_455 S
O147 Tb132 2.353 . S
O147 C141 1.263 . S
C148 O149 1.275 . S
C148 O150 1.246 . S
O149 Tb132 2.427 . S
O149 C148 1.275 . S
O150 Tb132 2.513 . S
O150 C148 1.246 . S
C151 O135 1.245 . S
C151 O136 1.259 . S
H152 C160 0.950 . S
H153 C165 0.950 . S
H154 C162 0.950 . S
H155 C164 0.950 . S
H156 C166 0.950 . S
H157 C168 0.950 . S
H158 C170 0.950 . S
H159 C171 0.950 . S
C160 H152 0.950 . S
C160 C161 1.386 1_565 S
C160 C162 1.391 . S
C161 C160 1.386 1_545 S
C161 C165 1.393 . S
C162 H154 0.950 . S
C162 C160 1.391 . S
C162 C163 1.400 1_565 S
C163 C162 1.400 1_545 S
C163 C164 1.398 . S
C163 C169 1.491 . S
C164 H155 0.950 . S
C164 C163 1.398 . S
C164 C165 1.391 . S
C165 H153 0.950 . S
C165 C161 1.393 . S
C165 C164 1.391 . S
C166 H156 0.950 . S
C166 C167 1.372 1_545 S
C166 C168 1.391 . S
C167 C166 1.372 1_565 S
C167 C171 1.406 . S
C168 H157 0.950 . S
C168 C166 1.391 . S
C168 C169 1.400 . S
C169 C163 1.491 . S
C169 C168 1.400 . S
C169 C170 1.398 1_545 S
C170 H158 0.950 . S
C170 C169 1.398 1_565 S
C170 C171 1.391 . S
C171 H159 0.950 . S
C171 C167 1.406 . S
C171 C170 1.391 . S
H172 C180 0.950 . S
H173 C185 0.950 . S
H174 C182 0.950 . S
H175 C184 0.950 . S
H176 C186 0.950 . S
H177 C188 0.950 . S
H178 C190 0.950 . S
H179 C191 0.950 . S
C180 H172 0.950 . S
C180 C181 1.386 . S
C180 C182 1.391 . S
C181 C180 1.386 . S
C181 C185 1.393 . S
C182 H174 0.950 . S
C182 C180 1.391 . S
C182 C183 1.400 . S
C183 C182 1.400 . S
C183 C184 1.398 . S
C183 C189 1.491 . S
C184 H175 0.950 . S
C184 C183 1.398 . S
C184 C185 1.391 . S
C185 H173 0.950 . S
C185 C181 1.393 . S
C185 C184 1.391 . S
C186 H176 0.950 . S
C186 C187 1.386 . S
C186 C188 1.391 . S
C187 C186 1.386 . S
C187 C191 1.393 . S
C188 H177 0.950 . S
C188 C186 1.391 . S
C188 C189 1.400 . S
C189 C183 1.491 . S
C189 C188 1.400 . S
C189 C190 1.398 . S
C190 H178 0.950 . S
C190 C189 1.398 . S
C190 C191 1.391 . S
C191 H179 0.950 . S
C191 C187 1.393 . S
C191 C190 1.391 . S
H192 C200 0.950 . S
H193 C205 0.950 . S
H194 C202 0.950 . S
H195 C204 0.950 . S
H196 C206 0.950 . S
H197 C208 0.950 . S
H198 C210 0.950 . S
H199 C211 0.950 . S
C200 H192 0.950 . S
C200 C201 1.386 . S
C200 C202 1.391 . S
C201 C200 1.386 . S
C201 C205 1.393 . S
C202 H194 0.950 . S
C202 C200 1.391 . S
C202 C203 1.400 . S
C203 C202 1.400 . S
C203 C204 1.398 . S
C203 C209 1.491 . S
C204 H195 0.950 . S
C204 C203 1.398 . S
C204 C205 1.391 . S
C205 H193 0.950 . S
C205 C201 1.393 . S
C205 C204 1.391 . S
C206 H196 0.950 . S
C206 C207 1.386 . S
C206 C208 1.391 . S
C207 C206 1.386 . S
C207 C211 1.393 . S
C208 H197 0.950 . S
C208 C206 1.391 . S
C208 C209 1.400 . S
C209 C203 1.491 . S
C209 C208 1.400 . S
C209 C210 1.398 . S
C210 H198 0.950 . S
C210 C209 1.398 . S
C210 C211 1.391 . S
C211 H199 0.950 . S
C211 C207 1.393 . S
C211 C210 1.391 . S
H212 C220 0.950 . S
H213 C225 0.950 . S
H214 C222 0.950 . S
H215 C224 0.950 . S
H216 C226 0.950 . S
H217 C228 0.950 . S
H218 C230 0.950 . S
H219 C231 0.950 . S
C220 H212 0.950 . S
C220 C221 1.386 . S
C220 C222 1.391 . S
C221 C220 1.386 . S
C221 C225 1.393 . S
C222 H214 0.950 . S
C222 C220 1.391 . S
C222 C223 1.400 . S
C223 C222 1.400 . S
C223 C224 1.398 . S
C223 C229 1.491 . S
C224 H215 0.950 . S
C224 C223 1.398 . S
C224 C225 1.391 . S
C225 H213 0.950 . S
C225 C221 1.393 . S
C225 C224 1.391 . S
C226 H216 0.950 . S
C226 C227 1.386 . S
C226 C228 1.391 . S
C227 C226 1.386 . S
C227 C231 1.393 . S
C228 H217 0.950 . S
C228 C226 1.391 . S
C228 C229 1.400 . S
C229 C223 1.491 . S
C229 C228 1.400 . S
C229 C230 1.398 . S
C230 H218 0.950 . S
C230 C229 1.398 . S
C230 C231 1.391 . S
C231 H219 0.950 . S
C231 C227 1.393 . S
C231 C230 1.391 . S
H232 C240 0.950 . S
H233 C245 0.950 . S
H234 C242 0.950 . S
H235 C244 0.950 . S
H236 C246 0.950 . S
H237 C248 0.950 . S
H238 C250 0.950 . S
H239 C251 0.950 . S
C240 H232 0.950 . S
C240 C241 1.384 . S
C240 C242 1.391 . S
C241 C240 1.384 . S
C241 C245 1.394 1_564 S
C242 H234 0.950 . S
C242 C240 1.391 . S
C242 C243 1.400 1_564 S
C243 C242 1.400 1_546 S
C243 C244 1.398 . S
C243 C249 1.491 . S
C244 H235 0.950 . S
C244 C243 1.398 . S
C244 C245 1.391 . S
C245 H233 0.950 . S
C245 C241 1.394 1_546 S
C245 C244 1.391 . S
C246 H236 0.950 . S
C246 C247 1.386 . S
C246 C248 1.391 . S
C247 C246 1.386 . S
C247 C251 1.393 1_545 S
C248 H237 0.950 . S
C248 C246 1.391 . S
C248 C249 1.400 . S
C249 C243 1.491 . S
C249 C248 1.400 . S
C249 C250 1.398 1_545 S
C250 H238 0.950 . S
C250 C249 1.398 1_565 S
C250 C251 1.391 . S
C251 H239 0.950 . S
C251 C247 1.393 1_565 S
C251 C250 1.391 . S
H252 C260 0.950 . S
H253 C265 0.950 . S
H254 C262 0.950 . S
H255 C264 0.950 . S
H256 C266 0.950 . S
H257 C268 0.950 . S
H258 C270 0.950 . S
H259 C271 0.950 . S
C260 H252 0.950 . S
C260 C261 1.386 1_556 S
C260 C262 1.391 . S
C261 C260 1.386 1_554 S
C261 C265 1.393 . S
C262 H254 0.950 . S
C262 C260 1.391 . S
C262 C263 1.400 . S
C263 C262 1.400 . S
C263 C264 1.398 . S
C263 C269 1.491 . S
C264 H255 0.950 . S
C264 C263 1.398 . S
C264 C265 1.391 1_556 S
C265 H253 0.950 . S
C265 C261 1.393 . S
C265 C264 1.391 1_554 S
C266 H256 0.950 . S
C266 C267 1.386 . S
C266 C268 1.391 . S
C267 C266 1.386 . S
C267 C271 1.393 . S
C268 H257 0.950 . S
C268 C266 1.391 . S
C268 C269 1.400 . S
C269 C263 1.491 . S
C269 C268 1.400 . S
C269 C270 1.398 . S
C270 H258 0.950 . S
C270 C269 1.398 . S
C270 C271 1.391 . S
C271 H259 0.950 . S
C271 C267 1.393 . S
C271 C270 1.391 . S
H272 C280 0.950 . S
H273 C285 0.950 . S
H274 C282 0.950 . S
H275 C284 0.950 . S
H276 C286 0.950 . S
H277 C288 0.950 . S
H278 C290 0.950 . S
H279 C291 0.950 . S
C280 H272 0.950 . S
C280 C281 1.386 . S
C280 C282 1.391 . S
C281 C280 1.386 . S
C281 C285 1.393 1_554 S
C282 H274 0.950 . S
C282 C280 1.391 . S
C282 C283 1.400 1_554 S
C283 C282 1.400 1_556 S
C283 C284 1.398 . S
C283 C289 1.491 . S
C284 H275 0.950 . S
C284 C283 1.398 . S
C284 C285 1.391 . S
C285 H273 0.950 . S
C285 C281 1.393 1_556 S
C285 C284 1.391 . S
C286 H276 0.950 . S
C286 C287 1.386 . S
C286 C288 1.391 . S
C287 C286 1.386 . S
C287 C291 1.393 . S
C288 H277 0.950 . S
C288 C286 1.391 . S
C288 C289 1.400 . S
C289 C283 1.491 . S
C289 C288 1.400 . S
C289 C290 1.398 . S
C290 H278 0.950 . S
C290 C289 1.398 . S
C290 C291 1.391 . S
C291 H279 0.950 . S
C291 C287 1.393 . S
C291 C290 1.391 . S
H292 C300 0.950 . S
H293 C305 0.950 . S
H294 C302 0.950 . S
H295 C304 0.950 . S
H296 C306 0.950 . S
H297 C308 0.950 . S
H298 C310 0.950 . S
H299 C311 0.950 . S
C300 H292 0.950 . S
C300 C301 1.386 . S
C300 C302 1.391 . S
C301 C300 1.386 . S
C301 C305 1.393 1_556 S
C302 H294 0.950 . S
C302 C300 1.391 . S
C302 C303 1.400 . S
C303 C302 1.400 . S
C303 C304 1.398 . S
C303 C309 1.491 . S
C304 H295 0.950 . S
C304 C303 1.398 . S
C304 C305 1.391 1_556 S
C305 H293 0.950 . S
C305 C301 1.393 1_554 S
C305 C304 1.391 1_554 S
C306 H296 0.950 . S
C306 C307 1.386 . S
C306 C308 1.391 . S
C307 C306 1.386 . S
C307 C311 1.393 . S
C308 H297 0.950 . S
C308 C306 1.391 . S
C308 C309 1.400 . S
C309 C303 1.491 . S
C309 C308 1.400 . S
C309 C310 1.398 . S
C310 H298 0.950 . S
C310 C309 1.398 . S
C310 C311 1.391 . S
C311 H299 0.950 . S
C311 C307 1.393 . S
C311 C310 1.391 . S
H312 C320 0.950 . S
H313 C325 0.950 . S
H314 C322 0.950 . S
H315 C324 0.950 . S
H316 C326 0.950 . S
H317 C328 0.950 . S
H318 C330 0.950 . S
H319 C331 0.950 . S
C320 H312 0.950 . S
C320 C321 1.386 . S
C320 C322 1.391 . S
C321 C320 1.386 . S
C321 C325 1.393 . S
C322 H314 0.950 . S
C322 C320 1.391 . S
C322 C323 1.400 . S
C323 C322 1.400 . S
C323 C324 1.398 . S
C323 C329 1.491 . S
C324 H315 0.950 . S
C324 C323 1.398 . S
C324 C325 1.391 . S
C325 H313 0.950 . S
C325 C321 1.393 . S
C325 C324 1.391 . S
C326 H316 0.950 . S
C326 C327 1.386 . S
C326 C328 1.391 . S
C327 C326 1.386 . S
C327 C331 1.393 . S
C328 H317 0.950 . S
C328 C326 1.391 . S
C328 C329 1.400 . S
C329 C323 1.491 . S
C329 C328 1.400 . S
C329 C330 1.398 . S
C330 H318 0.950 . S
C330 C329 1.398 . S
C330 C331 1.391 . S
C331 H319 0.950 . S
C331 C327 1.393 . S
C331 C330 1.391 . S
H332 C340 0.950 . S
H333 C345 0.950 . S
H334 C342 0.950 . S
H335 C344 0.950 . S
H336 C346 0.950 . S
H337 C348 0.950 . S
H338 C350 0.950 . S
H339 C351 0.950 . S
C340 H332 0.950 . S
C340 C341 1.386 1_565 S
C340 C342 1.391 . S
C341 C340 1.386 1_545 S
C341 C345 1.393 . S
C342 H334 0.950 . S
C342 C340 1.391 . S
C342 C343 1.400 1_565 S
C343 C342 1.400 1_545 S
C343 C344 1.398 . S
C343 C349 1.491 . S
C344 H335 0.950 . S
C344 C343 1.398 . S
C344 C345 1.391 . S
C345 H333 0.950 . S
C345 C341 1.393 . S
C345 C344 1.391 . S
C346 H336 0.950 . S
C346 C347 1.386 . S
C346 C348 1.391 . S
C347 C346 1.386 . S
C347 C351 1.393 1_545 S
C348 H337 0.950 . S
C348 C346 1.391 . S
C348 C349 1.400 . S
C349 C343 1.491 . S
C349 C348 1.400 . S
C349 C350 1.398 1_545 S
C350 H338 0.950 . S
C350 C349 1.398 1_565 S
C350 C351 1.391 . S
C351 H339 0.950 . S
C351 C347 1.393 1_565 S
C351 C350 1.391 . S
H352 C360 0.950 . S
H353 C365 0.950 . S
H354 C362 0.950 . S
H355 C364 0.950 . S
H356 C366 0.950 . S
H357 C368 0.950 . S
H358 C370 0.950 . S
H359 C371 0.950 . S
C360 H352 0.950 . S
C360 C361 1.386 . S
C360 C362 1.391 . S
C361 C360 1.386 . S
C361 C365 1.393 . S
C362 H354 0.950 . S
C362 C360 1.391 . S
C362 C363 1.400 . S
C363 C362 1.400 . S
C363 C364 1.398 . S
C363 C369 1.491 . S
C364 H355 0.950 . S
C364 C363 1.398 . S
C364 C365 1.391 . S
C365 H353 0.950 . S
C365 C361 1.393 . S
C365 C364 1.391 . S
C366 H356 0.950 . S
C366 C367 1.386 . S
C366 C368 1.391 . S
C367 C366 1.386 . S
C367 C371 1.393 . S
C368 H357 0.950 . S
C368 C366 1.391 . S
C368 C369 1.400 . S
C369 C363 1.491 . S
C369 C368 1.400 . S
C369 C370 1.398 . S
C370 H358 0.950 . S
C370 C369 1.398 . S
C370 C371 1.391 . S
C371 H359 0.950 . S
C371 C367 1.393 . S
C371 C370 1.391 . S
H372 C380 0.950 . S
H373 C385 0.950 . S
H374 C382 0.950 . S
H375 C384 0.950 . S
H376 C386 0.950 . S
H377 C388 0.950 . S
H378 C390 0.950 . S
H379 C391 0.950 . S
C380 H372 0.950 . S
C380 C381 1.386 . S
C380 C382 1.391 . S
C381 C380 1.386 . S
C381 C385 1.393 . S
C382 H374 0.950 . S
C382 C380 1.391 . S
C382 C383 1.400 . S
C383 C382 1.400 . S
C383 C384 1.398 . S
C383 C389 1.491 . S
C384 H375 0.950 . S
C384 C383 1.398 . S
C384 C385 1.391 . S
C385 H373 0.950 . S
C385 C381 1.393 . S
C385 C384 1.391 . S
C386 H376 0.950 . S
C386 C387 1.386 . S
C386 C388 1.391 . S
C387 C386 1.386 . S
C387 C391 1.393 . S
C388 H377 0.950 . S
C388 C386 1.391 . S
C388 C389 1.400 . S
C389 C383 1.491 . S
C389 C388 1.400 . S
C389 C390 1.398 . S
C390 H378 0.950 . S
C390 C389 1.398 . S
C390 C391 1.391 . S
C391 H379 0.950 . S
C391 C387 1.393 . S
C391 C390 1.391 . S
H392 C400 0.950 . S
H393 C405 0.950 . S
H394 C402 0.950 . S
H395 C404 0.950 . S
H396 C406 0.950 . S
H397 C408 0.950 . S
H398 C410 0.950 . S
H399 C411 0.950 1_455 S
C400 H392 0.950 . S
C400 C401 1.386 . S
C400 C402 1.391 . S
C401 C400 1.386 . S
C401 C405 1.393 . S
C402 H394 0.950 . S
C402 C400 1.391 . S
C402 C403 1.400 . S
C403 C402 1.400 . S
C403 C404 1.398 . S
C403 C409 1.491 . S
C404 H395 0.950 . S
C404 C403 1.398 . S
C404 C405 1.391 . S
C405 H393 0.950 . S
C405 C401 1.393 . S
C405 C404 1.391 . S
C406 H396 0.950 . S
C406 C407 1.386 . S
C406 C408 1.391 . S
C407 C406 1.386 . S
C407 C411 1.393 . S
C408 H397 0.950 . S
C408 C406 1.391 . S
C408 C409 1.400 . S
C409 C403 1.491 . S
C409 C408 1.400 . S
C409 C410 1.398 . S
C410 H398 0.950 . S
C410 C409 1.398 . S
C410 C411 1.391 . S
C411 H399 0.950 1_655 S
C411 C407 1.393 . S
C411 C410 1.391 . S
H412 C420 0.950 . S
H413 C425 0.950 . S
H414 C422 0.950 . S
H415 C424 0.950 . S
H416 C426 0.950 . S
H417 C428 0.950 . S
H418 C430 0.950 . S
H419 C431 0.950 . S
C420 H412 0.950 . S
C420 C421 1.369 1_565 S
C420 C422 1.391 1_554 S
C421 C420 1.369 1_545 S
C421 C425 1.414 1_554 S
C422 H414 0.950 . S
C422 C420 1.391 1_556 S
C422 C423 1.400 1_565 S
C423 C422 1.400 1_545 S
C423 C424 1.398 . S
C423 C429 1.491 . S
C424 H415 0.950 . S
C424 C423 1.398 . S
C424 C425 1.391 . S
C425 H413 0.950 . S
C425 C421 1.414 1_556 S
C425 C424 1.391 . S
C426 H416 0.950 . S
C426 C427 1.386 . S
C426 C428 1.391 . S
C427 C426 1.386 . S
C427 C431 1.393 1_545 S
C428 H417 0.950 . S
C428 C426 1.391 . S
C428 C429 1.400 . S
C429 C423 1.491 . S
C429 C428 1.400 . S
C429 C430 1.398 1_545 S
C430 H418 0.950 . S
C430 C429 1.398 1_565 S
C430 C431 1.391 . S
C431 H419 0.950 . S
C431 C427 1.393 1_565 S
C431 C430 1.391 . S
H432 C440 0.950 . S
H433 C445 0.950 . S
H434 C442 0.950 . S
H435 C444 0.955 . S
H436 C446 0.950 . S
H437 C448 0.950 . S
H438 C450 0.950 . S
H439 C451 0.950 . S
C440 H432 0.950 . S
C440 C441 1.386 . S
C440 C442 1.391 . S
C441 C440 1.386 . S
C441 C445 1.393 1_556 S
C442 H434 0.950 . S
C442 C440 1.391 . S
C442 C443 1.400 . S
C443 C442 1.400 . S
C443 C444 1.398 . S
C443 C449 1.491 . S
C444 H435 0.955 . S
C444 C443 1.398 . S
C444 C445 1.391 1_556 S
C445 H433 0.950 . S
C445 C441 1.393 1_554 S
C445 C444 1.391 1_554 S
C446 H436 0.950 . S
C446 C447 1.386 . S
C446 C448 1.391 . S
C447 C446 1.386 . S
C447 C451 1.393 . S
C448 H437 0.950 . S
C448 C446 1.391 . S
C448 C449 1.400 . S
C449 C443 1.491 . S
C449 C448 1.400 . S
C449 C450 1.398 . S
C450 H438 0.950 . S
C450 C449 1.398 . S
C450 C451 1.391 . S
C451 H439 0.950 . S
C451 C447 1.393 . S
C451 C450 1.391 . S
H452 C460 0.950 . S
H453 C465 0.950 . S
H454 C462 0.950 1_554 S
H455 C464 0.950 . S
H456 C466 0.950 . S
H457 C468 0.950 . S
H458 C470 0.950 . S
H459 C471 0.950 . S
C460 H452 0.950 . S
C460 C461 1.386 1_554 S
C460 C462 1.391 1_554 S
C461 C460 1.386 1_556 S
C461 C465 1.393 . S
C462 H454 0.950 1_556 S
C462 C460 1.391 1_556 S
C462 C463 1.400 . S
C463 C462 1.400 . S
C463 C464 1.398 . S
C463 C469 1.491 . S
C464 H455 0.950 . S
C464 C463 1.398 . S
C464 C465 1.391 . S
C465 H453 0.950 . S
C465 C461 1.393 . S
C465 C464 1.391 . S
C466 H456 0.950 . S
C466 C467 1.386 . S
C466 C468 1.391 . S
C467 C466 1.386 . S
C467 C471 1.393 . S
C468 H457 0.950 . S
C468 C466 1.391 . S
C468 C469 1.400 . S
C469 C463 1.491 . S
C469 C468 1.400 . S
C469 C470 1.398 . S
C470 H458 0.950 . S
C470 C469 1.398 . S
C470 C471 1.391 . S
C471 H459 0.950 . S
C471 C467 1.393 . S
C471 C470 1.391 . S
H472 C480 0.950 . S
H473 C485 0.950 . S
H474 C482 0.950 . S
H475 C484 0.950 . S
H476 C486 0.950 . S
H477 C488 0.950 . S
H478 C490 0.950 . S
H479 C491 0.950 . S
C480 H472 0.950 . S
C480 C481 1.386 . S
C480 C482 1.391 . S
C481 C480 1.386 . S
C481 C485 1.393 . S
C482 H474 0.950 . S
C482 C480 1.391 . S
C482 C483 1.400 . S
C483 C482 1.400 . S
C483 C484 1.398 . S
C483 C489 1.491 . S
C484 H475 0.950 . S
C484 C483 1.398 . S
C484 C485 1.391 . S
C485 H473 0.950 . S
C485 C481 1.393 . S
C485 C484 1.391 . S
C486 H476 0.950 . S
C486 C487 1.386 . S
C486 C488 1.391 1_556 S
C487 C486 1.386 . S
C487 C491 1.393 . S
C488 H477 0.950 . S
C488 C486 1.391 1_554 S
C488 C489 1.400 . S
C489 C483 1.491 . S
C489 C488 1.400 . S
C489 C490 1.398 1_554 S
C490 H478 0.950 . S
C490 C489 1.398 1_556 S
C490 C491 1.391 . S
C491 H479 0.950 . S
C491 C487 1.393 . S
C491 C490 1.391 . S
H492 C500 0.950 . S
H493 C505 0.950 . S
H494 C502 0.950 . S
H495 C504 0.950 1_556 S
H496 C506 0.950 . S
H497 C508 0.950 . S
H498 C510 0.950 . S
H499 C511 0.950 . S
C500 H492 0.950 . S
C500 C501 1.386 . S
C500 C502 1.391 . S
C501 C500 1.386 . S
C501 C505 1.393 . S
C502 H494 0.950 . S
C502 C500 1.391 . S
C502 C503 1.400 . S
C503 C502 1.400 . S
C503 C504 1.398 . S
C503 C509 1.491 1_554 S
C504 H495 0.950 1_554 S
C504 C503 1.398 . S
C504 C505 1.391 . S
C505 H493 0.950 . S
C505 C501 1.393 . S
C505 C504 1.391 . S
C506 H496 0.950 . S
C506 C507 1.386 . S
C506 C508 1.391 . S
C507 C506 1.386 . S
C507 C511 1.393 . S
C508 H497 0.950 . S
C508 C506 1.391 . S
C508 C509 1.400 . S
C509 C503 1.491 1_556 S
C509 C508 1.400 . S
C509 C510 1.398 1_556 S
C510 H498 0.950 . S
C510 C509 1.398 1_554 S
C510 C511 1.391 1_554 S
C511 H499 0.950 . S
C511 C507 1.393 . S
C511 C510 1.391 1_556 S
H512 C520 0.950 . S
H513 C525 0.950 . S
H514 C522 0.950 1_556 S
H515 C524 0.950 . S
H516 C526 0.950 . S
H517 C528 0.950 . S
H518 C530 0.950 . S
H519 C531 0.950 . S
C520 H512 0.950 . S
C520 C521 1.386 . S
C520 C522 1.391 . S
C521 C520 1.386 . S
C521 C525 1.393 . S
C522 H514 0.950 1_554 S
C522 C520 1.391 . S
C522 C523 1.400 . S
C523 C522 1.400 . S
C523 C524 1.398 . S
C523 C529 1.491 . S
C524 H515 0.950 . S
C524 C523 1.398 . S
C524 C525 1.391 . S
C525 H513 0.950 . S
C525 C521 1.393 . S
C525 C524 1.391 . S
C526 H516 0.950 . S
C526 C527 1.386 . S
C526 C528 1.391 1_556 S
C527 C526 1.386 . S
C527 C531 1.393 . S
C528 H517 0.950 . S
C528 C526 1.391 1_554 S
C528 C529 1.400 . S
C529 C523 1.491 . S
C529 C528 1.400 . S
C529 C530 1.398 1_554 S
C530 H518 0.950 . S
C530 C529 1.398 1_556 S
C530 C531 1.391 . S
C531 H519 0.950 . S
C531 C527 1.393 . S
C531 C530 1.391 . S
H532 C540 0.950 . S
H533 C545 0.950 . S
H534 C542 0.950 . S
H535 C544 0.950 . S
H536 C546 0.950 . S
H537 C548 0.950 . S
H538 C550 0.950 . S
H539 C551 0.950 . S
C540 H532 0.950 . S
C540 C541 1.386 . S
C540 C542 1.391 . S
C541 C540 1.386 . S
C541 C545 1.393 . S
C542 H534 0.950 . S
C542 C540 1.391 . S
C542 C543 1.400 . S
C543 C542 1.400 . S
C543 C544 1.398 . S
C543 C549 1.491 . S
C544 H535 0.950 . S
C544 C543 1.398 . S
C544 C545 1.391 . S
C545 H533 0.950 . S
C545 C541 1.393 . S
C545 C544 1.391 . S
C546 H536 0.950 . S
C546 C547 1.386 . S
C546 C548 1.391 1_556 S
C547 C546 1.386 . S
C547 C551 1.393 . S
C548 H537 0.950 . S
C548 C546 1.391 1_554 S
C548 C549 1.400 . S
C549 C543 1.491 . S
C549 C548 1.400 . S
C549 C550 1.398 1_554 S
C550 H538 0.950 . S
C550 C549 1.398 1_556 S
C550 C551 1.391 . S
C551 H539 0.950 . S
C551 C547 1.393 . S
C551 C550 1.391 . S
H552 C560 0.950 . S
H553 C565 0.950 . S
H554 C562 0.950 . S
H555 C564 0.950 . S
H556 C566 0.950 . S
H557 C568 0.950 . S
H558 C570 0.950 . S
H559 C571 0.950 . S
C560 H552 0.950 . S
C560 C561 1.386 . S
C560 C562 1.391 . S
C561 C560 1.386 . S
C561 C565 1.393 . S
C562 H554 0.950 . S
C562 C560 1.391 . S
C562 C563 1.400 . S
C563 C562 1.400 . S
C563 C564 1.398 . S
C563 C569 1.491 . S
C564 H555 0.950 . S
C564 C563 1.398 . S
C564 C565 1.391 . S
C565 H553 0.950 . S
C565 C561 1.393 . S
C565 C564 1.391 . S
C566 H556 0.950 . S
C566 C567 1.386 . S
C566 C568 1.391 . S
C567 C566 1.386 . S
C567 C571 1.393 . S
C568 H557 0.950 . S
C568 C566 1.391 . S
C568 C569 1.400 . S
C569 C563 1.491 . S
C569 C568 1.400 . S
C569 C570 1.398 . S
C570 H558 0.950 . S
C570 C569 1.398 . S
C570 C571 1.391 . S
C571 H559 0.950 . S
C571 C567 1.393 . S
C571 C570 1.391 . S
H572 C580 0.950 . S
H573 C585 0.950 . S
H574 C582 0.950 . S
H575 C584 0.950 . S
H576 C586 0.950 . S
H577 C588 0.950 . S
H578 C590 0.950 . S
H579 C591 0.950 . S
C580 H572 0.950 . S
C580 C581 1.404 . S
C580 C582 1.391 . S
C581 C580 1.404 . S
C581 C585 1.377 1_545 S
C582 H574 0.950 . S
C582 C580 1.391 . S
C582 C583 1.400 . S
C583 C582 1.400 . S
C583 C584 1.398 1_545 S
C583 C589 1.490 . S
C584 H575 0.950 . S
C584 C583 1.398 1_565 S
C584 C585 1.391 . S
C585 H573 0.950 . S
C585 C581 1.377 1_565 S
C585 C584 1.391 . S
C586 H576 0.950 . S
C586 C587 1.372 1_565 S
C586 C588 1.391 . S
C587 C586 1.372 1_545 S
C587 C591 1.405 . S
C588 H577 0.950 . S
C588 C586 1.391 . S
C588 C589 1.392 1_565 S
C589 C583 1.490 . S
C589 C588 1.392 1_545 S
C589 C590 1.407 . S
C590 H578 0.950 . S
C590 C589 1.407 . S
C590 C591 1.391 . S
C591 H579 0.950 . S
C591 C587 1.405 . S
C591 C590 1.391 . S
H592 C600 0.950 . S
H593 C605 0.950 . S
H594 C602 0.950 . S
H595 C604 0.950 . S
H596 C606 0.950 . S
H597 C608 0.950 . S
H598 C610 0.950 . S
H599 C611 0.950 . S
C600 H592 0.950 . S
C600 C601 1.386 . S
C600 C602 1.391 . S
C601 C600 1.386 . S
C601 C605 1.393 . S
C602 H594 0.950 . S
C602 C600 1.391 . S
C602 C603 1.400 . S
C603 C602 1.400 . S
C603 C604 1.398 . S
C603 C609 1.491 . S
C604 H595 0.950 . S
C604 C603 1.398 . S
C604 C605 1.391 . S
C605 H593 0.950 . S
C605 C601 1.393 . S
C605 C604 1.391 . S
C606 H596 0.950 . S
C606 C607 1.386 . S
C606 C608 1.391 . S
C607 C606 1.386 . S
C607 C611 1.393 . S
C608 H597 0.950 . S
C608 C606 1.391 . S
C608 C609 1.400 . S
C609 C603 1.491 . S
C609 C608 1.400 . S
C609 C610 1.398 . S
C610 H598 0.950 . S
C610 C609 1.398 . S
C610 C611 1.391 . S
C611 H599 0.950 . S
C611 C607 1.393 . S
C611 C610 1.391 . S
H612 C620 0.950 . S
H613 C625 0.950 . S
H614 C622 0.950 . S
H615 C624 0.950 . S
H616 C626 0.950 . S
H617 C628 0.950 . S
H618 C630 0.950 . S
H619 C631 0.950 . S
C620 H612 0.950 . S
C620 C621 1.386 . S
C620 C622 1.391 . S
C621 C620 1.386 . S
C621 C625 1.393 . S
C622 H614 0.950 . S
C622 C620 1.391 . S
C622 C623 1.400 . S
C623 C622 1.400 . S
C623 C624 1.398 . S
C623 C629 1.491 . S
C624 H615 0.950 . S
C624 C623 1.398 . S
C624 C625 1.391 . S
C625 H613 0.950 . S
C625 C621 1.393 . S
C625 C624 1.391 . S
C626 H616 0.950 . S
C626 C627 1.386 . S
C626 C628 1.391 . S
C627 C626 1.386 . S
C627 C631 1.393 . S
C628 H617 0.950 . S
C628 C626 1.391 . S
C628 C629 1.400 . S
C629 C623 1.491 . S
C629 C628 1.400 . S
C629 C630 1.398 . S
C630 H618 0.950 . S
C630 C629 1.398 . S
C630 C631 1.391 . S
C631 H619 0.950 . S
C631 C627 1.393 . S
C631 C630 1.391 . S
C161 C61 1.422 . S
C167 C73 1.444 . S
C187 C108 1.738 . S
C181 C70 1.678 . S
C207 C113 1.289 . S
C201 C43 1.277 . S
C227 C133 1.606 . S
C221 C52 1.534 . S
C247 C81 1.441 . S
C241 C25 1.427 . S
C261 C34 1.668 . S
C267 C98 1.739 . S
C281 C7 1.271 . S
C287 C121 1.281 . S
C301 C16 1.542 1_556 S
C307 C141 1.605 . S
C327 C91 1.118 . S
C321 C50 1.107 . S
C347 C100 0.781 1_545 S
C341 C59 0.750 . S
C367 C131 1.223 . S
C361 C67 1.162 . S
C381 C41 0.843 . S
C387 C151 0.817 . S
C401 C14 1.118 . S
C407 C80 1.106 . S
C427 C111 0.778 . S
C421 C23 0.744 1_545 S
C447 C120 1.219 . S
C441 C31 1.176 1_556 S
C461 C5 0.851 . S
C467 C140 0.844 . S
C481 C49 1.610 . S
C487 C78 1.663 . S
C501 C58 1.402 . S
C507 C101 1.461 . S
C527 C118 1.684 . S
C521 C68 1.646 . S
C547 C138 1.591 . S
C541 C40 1.547 . S
C561 C13 1.636 . S
C567 C88 1.646 . S
C587 C93 1.468 . S
C581 C22 1.387 1_545 S
C607 C128 1.692 . S
C601 C32 1.625 . S
C621 C4 1.544 . S
C627 C148 1.593 . S
