# Generated by pormake.
# Topology zzz, (3,6)-cn, num edge types: 1
# Building blocks:
#     Node 0, Type 0, BuildingBlock: PAMTOO_clean_linker_0, # of connection points: 3
#     Node 1, Type 0, BuildingBlock: PAMTOO_clean_linker_0, # of connection points: 3
#     Node 2, Type 0, BuildingBlock: PAMTOO_clean_linker_0, # of connection points: 3
#     Node 3, Type 0, BuildingBlock: PAMTOO_clean_linker_0, # of connection points: 3
#     Node 4, Type 0, BuildingBlock: PAMTOO_clean_linker_0, # of connection points: 3
#     Node 5, Type 0, BuildingBlock: PAMTOO_clean_linker_0, # of connection points: 3
#     Node 6, Type 0, BuildingBlock: PAMTOO_clean_linker_0, # of connection points: 3
#     Node 7, Type 0, BuildingBlock: PAMTOO_clean_linker_0, # of connection points: 3
#     Node 8, Type 1, BuildingBlock: INOVEN_clean_sbu_0, # of connection points: 6
#     Node 9, Type 1, BuildingBlock: INOVEN_clean_sbu_0, # of connection points: 6
#     Node 10, Type 1, BuildingBlock: INOVEN_clean_sbu_0, # of connection points: 6
#     Node 11, Type 1, BuildingBlock: INOVEN_clean_sbu_0, # of connection points: 6
#     Edge 12, Type (0, 1), None
#     Edge 13, Type (0, 1), None
#     Edge 14, Type (0, 1), None
#     Edge 15, Type (0, 1), None
#     Edge 16, Type (0, 1), None
#     Edge 17, Type (0, 1), None
#     Edge 18, Type (0, 1), None
#     Edge 19, Type (0, 1), None
#     Edge 20, Type (0, 1), None
#     Edge 21, Type (0, 1), None
#     Edge 22, Type (0, 1), None
#     Edge 23, Type (0, 1), None
#     Edge 24, Type (0, 1), None
#     Edge 25, Type (0, 1), None
#     Edge 26, Type (0, 1), None
#     Edge 27, Type (0, 1), None
#     Edge 28, Type (0, 1), None
#     Edge 29, Type (0, 1), None
#     Edge 30, Type (0, 1), None
#     Edge 31, Type (0, 1), None
#     Edge 32, Type (0, 1), None
#     Edge 33, Type (0, 1), None
#     Edge 34, Type (0, 1), None
#     Edge 35, Type (0, 1), None
# Relax obj value: 0.626
# Max RMSD: 0.252
# Mean RMSD: 0.146
data_MOF--net-zzz--node1-INOVEN_clean_sbu_0--node2-PAMTOO_clean_linker_0--edge1-none
_symmetry_space_group_name_H-M    P1
_symmetry_Int_Tables_number       1
_symmetry_cell_setting            triclinic
loop_
_symmetry_equiv_pos_as_xyz
'x, y, z'
_cell_length_a     21.554559
_cell_length_b     21.692775
_cell_length_c     7.1038783
_cell_angle_alpha  89.925251
_cell_angle_beta   90.129725
_cell_angle_gamma 89.227694
loop_
_atom_site_label
_atom_site_type_symbol
_atom_site_fract_x
_atom_site_fract_y
_atom_site_fract_z
_atom_type_partial_charge
H0 H 0.90849 0.54515 0.46039 0.0
H1 H 0.76043 0.52766 0.18098 0.0
H2 H 0.82983 0.64497 0.62427 0.0
H3 H 0.67493 0.68971 0.33853 0.0
C4 C 0.70324 0.6552 0.26323 0.0
O5 O 0.7295 0.61433 0.39557 0.0
H6 H 0.74083 0.68237 0.19712 0.0
C7 C 0.90493 0.51854 0.37586 0.0
C8 C 0.89984 0.5715 0.5235 0.0
C9 C 0.85354 0.507 0.26218 0.0
C10 C 0.79859 0.54126 0.2705 0.0
C11 C 0.78913 0.59071 0.39306 0.0
C12 C 0.83758 0.60807 0.52445 0.0
H13 H 0.10407 0.90879 0.45361 0.0
H14 H 0.11196 0.77339 0.12013 0.0
H15 H 0.98679 0.84466 0.54425 0.0
H16 H 0.97306 0.67531 0.34857 0.0
C17 C 1.01703 0.69345 0.29229 0.0
O18 O 1.00737 0.75706 0.26616 0.0
H19 H 1.05461 0.6853 0.39566 0.0
C20 C 0.13379 0.90346 0.37929 0.0
C21 C 1.07386 0.90248 0.5021 0.0
C22 C 0.14381 0.85512 0.2528 0.0
C23 C 0.10182 0.80758 0.22704 0.0
C24 C 1.04648 0.80249 0.32714 0.0
C25 C 1.03023 0.84761 0.46903 0.0
H26 H 0.74591 0.10154 0.46568 0.0
H27 H 0.89506 0.12054 0.19743 0.0
H28 H 0.82249 0.9983 0.62087 0.0
H29 H 0.90956 0.96174 0.19301 0.0
C30 C 0.94814 0.98786 0.25806 0.0
O31 O 0.92324 1.02862 0.39312 0.0
H32 H 0.97619 0.9526 0.33103 0.0
C33 C 0.74972 0.12858 0.38215 0.0
C34 C 0.75417 0.0746 0.5272 0.0
C35 C 0.80126 0.14014 0.26995 0.0
C36 C 0.85604 0.10566 0.27993 0.0
C37 C 0.86429 1.05411 0.39512 0.0
C38 C 0.81555 1.0365 0.52474 0.0
H39 H 0.54575 0.74196 0.46008 0.0
H40 H 0.54253 0.87744 0.12564 0.0
H41 H 0.66619 0.80089 0.54761 0.0
H42 H 0.68166 0.97269 0.35219 0.0
C43 C 0.63757 0.95442 0.29673 0.0
O44 O 0.64717 0.8907 0.27261 0.0
H45 H 0.6001 0.96263 0.39981 0.0
C46 C 0.51603 0.74863 0.38614 0.0
C47 C 0.57643 0.74685 0.5078 0.0
C48 C 0.508 0.79703 0.25802 0.0
C49 C 0.55164 0.84285 0.2324 0.0
C50 C 0.60723 0.84585 0.33227 0.0
C51 C 0.62239 0.79974 0.47315 0.0
H52 H 0.24738 0.60918 0.26267 0.0
H53 H 0.38096 0.6114 0.6077 0.0
H54 H 0.30846 0.48811 0.1859 0.0
H55 H 0.47924 0.46995 0.38572 0.0
C56 C 0.4608 0.51397 0.44232 0.0
O57 O 0.39661 0.50661 0.46643 0.0
H58 H 0.46863 0.55165 0.34032 0.0
C59 C 0.25292 0.63872 0.33649 0.0
C60 C 0.25314 0.57854 0.21617 0.0
C61 C 0.30052 0.64654 0.46791 0.0
C62 C 0.3471 0.60258 0.49855 0.0
C63 C 0.3515 0.54686 0.40152 0.0
C64 C 0.30635 0.532 0.25788 0.0
H65 H 1.04789 0.2416 0.27983 0.0
H66 H 1.04325 0.37837 0.60186 0.0
H67 H 0.16849 0.29924 0.189 0.0
H68 H 0.10218 0.462 0.33241 0.0
C69 C 0.13992 0.45438 0.43559 0.0
O70 O 0.149 0.39051 0.46225 0.0
H71 H 0.18388 0.47233 0.37885 0.0
C72 C 1.01799 0.24765 0.35127 0.0
C73 C 0.07827 0.24534 0.2305 0.0
C74 C 1.00947 0.29688 0.47378 0.0
C75 C 1.05308 0.34291 0.49875 0.0
C76 C 0.10932 0.34522 0.40226 0.0
C77 C 0.12492 0.29818 0.26409 0.0
H78 H 0.40778 1.04505 0.26939 0.0
H79 H 0.26226 1.02803 0.55597 0.0
H80 H 0.32856 0.14489 0.1065 0.0
H81 H 0.17745 0.18785 0.43379 0.0
C82 C 0.19668 0.14328 0.48466 0.0
O83 O 0.22861 0.11385 0.33555 0.0
H84 H 0.23007 0.15542 0.5979 0.0
C85 C 0.40469 1.01842 0.35424 0.0
C86 C 0.39899 1.07136 0.20624 0.0
C87 C 0.35394 1.00723 0.47009 0.0
C88 C 0.29919 1.04163 0.46321 0.0
C89 C 0.28874 0.09095 0.33994 0.0
C90 C 0.33678 0.10822 0.20716 0.0
H91 H 0.61256 0.40332 0.26585 0.0
H92 H 0.6152 0.26722 0.59658 0.0
H93 H 0.49132 0.3461 0.17865 0.0
H94 H 0.47213 0.17479 0.37744 0.0
C95 C 0.51677 0.19208 0.43198 0.0
O96 O 0.50939 0.25617 0.45478 0.0
H97 H 0.55408 0.18292 0.32916 0.0
C98 C 0.64205 0.3968 0.34 0.0
C99 C 0.58206 0.39881 0.21706 0.0
C100 C 0.64999 0.34791 0.46571 0.0
C101 C 0.60621 0.30206 0.49035 0.0
C102 C 0.55019 0.29996 0.39228 0.0
C103 C 0.53535 0.34646 0.25197 0.0
Gd104 Gd 0.11969 1.05507 0.92324 0.0
Gd105 Gd 1.01774 0.08982 0.80557 0.0
C106 C 1.05476 0.95861 0.65325 0.0
C107 C 0.22539 1.01362 0.03381 0.0
C108 C 0.25496 0.95709 0.9641 0.0
C109 C 0.21632 0.92221 0.84878 0.0
C110 C 0.28615 0.92514 0.10473 0.0
C111 C 0.19615 0.86144 0.1249 0.0
C112 C 0.2534 0.87995 0.19875 0.0
C113 C 0.1821 0.87648 0.93754 0.0
C114 C 0.14348 0.10586 0.57616 0.0
C115 C 0.08994 0.18962 0.0711 0.0
C116 C 0.91285 0.14278 0.72673 0.0
C117 C 0.89085 0.20486 0.77151 0.0
C118 C 0.93063 0.23927 0.88256 0.0
C119 C 0.86313 0.23431 0.62128 0.0
C120 C 0.95651 0.29304 0.5986 0.0
C121 C 0.89889 0.27608 0.52317 0.0
C122 C 0.96928 0.27952 0.78753 0.0
C123 C 0.98819 1.01522 0.09696 0.0
O124 O 0.08398 0.96183 0.81579 0.0
O125 O 1.03339 1.01218 0.59149 0.0
O126 O 0.22046 1.05856 0.91426 0.0
O127 O 0.17425 1.00499 0.1285 0.0
O128 O 0.15274 1.04889 0.62001 0.0
O129 O 0.10869 0.12884 0.70421 0.0
O130 O 1.04385 0.1794 0.95433 0.0
O131 O 0.12751 0.1427 0.10133 0.0
O132 O 0.92193 0.1083 0.87201 0.0
O133 O 0.95857 0.13866 0.60575 0.0
O134 O 0.97185 1.00655 0.92479 0.0
O135 O 1.03154 1.05535 0.10309 0.0
H136 H 0.19963 0.94097 0.71687 0.0
H137 H 0.32459 0.94661 0.172 0.0
H138 H 0.26592 0.87049 0.34214 0.0
H139 H 0.13954 0.86101 0.87286 0.0
H140 H 0.943 0.22325 0.02198 0.0
H141 H 0.82538 0.21161 0.55426 0.0
H142 H 0.88818 0.28324 0.37726 0.0
H143 H 1.01284 0.29244 0.85179 0.0
Gd144 Gd 0.59086 0.12191 0.93549 0.0
Gd145 Gd 0.56195 1.02368 0.7941 0.0
C146 C 0.69564 1.05709 0.67236 0.0
C147 C 0.64125 0.22273 0.04367 0.0
C148 C 0.69799 0.24883 0.96603 0.0
C149 C 0.73211 0.20768 0.85498 0.0
C150 C 0.73148 0.28074 0.09894 0.0
C151 C 0.79434 0.18926 0.13156 0.0
C152 C 0.7773 0.24829 0.1945 0.0
C153 C 0.77723 0.17223 0.94884 0.0
C154 C 0.53213 0.15499 0.61213 0.0
C155 C 0.4569 0.08841 0.05806 0.0
C156 C 0.51292 0.92237 0.68364 0.0
C157 C 0.45654 0.89488 0.75946 0.0
C158 C 0.42222 0.93436 0.87592 0.0
C159 C 0.42315 0.86446 0.62271 0.0
C160 C 0.36015 0.95612 0.60164 0.0
C161 C 0.37757 0.89834 0.52955 0.0
C162 C 0.37617 0.9701 0.78755 0.0
C163 C 0.62217 0.99158 0.11699 0.0
O164 O 0.68762 0.08635 0.83301 0.0
O165 O 0.64391 1.03714 0.60077 0.0
O166 O 0.59427 0.22203 0.93062 0.0
O167 O 0.64902 0.17034 0.13214 0.0
O168 O 0.51435 0.17204 0.77717 0.0
O169 O 0.57263 0.11136 0.62568 0.0
O170 O 0.46499 1.05777 0.89967 0.0
O171 O 0.50837 0.10978 0.12747 0.0
O172 O 0.55988 0.92346 0.79679 0.0
O173 O 0.50426 0.97499 0.59721 0.0
O174 O 0.63884 0.97374 0.95167 0.0
O175 O 0.58074 1.0343 0.10328 0.0
H176 H 0.71279 0.19158 0.72373 0.0
H177 H 0.71146 0.32095 0.16134 0.0
H178 H 0.78814 0.26389 0.33226 0.0
H179 H 0.79257 0.12856 0.89077 0.0
H180 H 0.44182 0.94972 0.00783 0.0
H181 H 0.44382 0.82533 0.5561 0.0
H182 H 0.36724 0.8859 0.38713 0.0
H183 H 0.36052 1.01286 0.85108 0.0
Gd184 Gd 0.53097 0.58925 0.94058 0.0
Gd185 Gd 0.62989 0.55857 0.80236 0.0
C186 C 0.59363 0.68941 0.65754 0.0
C187 C 0.42823 0.63994 0.04942 0.0
C188 C 0.39842 0.69532 0.97017 0.0
C189 C 0.43697 0.72924 0.85281 0.0
C190 C 0.36633 0.72911 0.10387 0.0
C191 C 0.45662 0.79186 0.12562 0.0
C192 C 0.39846 0.77514 0.19552 0.0
C193 C 0.47173 0.775 0.94033 0.0
C194 C 0.49833 0.52866 0.62175 0.0
C195 C 0.56547 0.45704 0.07004 0.0
C196 C 0.73323 0.50694 0.70423 0.0
C197 C 0.75917 0.4479 0.76526 0.0
C198 C 0.71954 0.41331 0.87638 0.0
C199 C 0.79062 0.41722 0.62386 0.0
C200 C 0.7011 0.35323 0.59819 0.0
C201 C 0.75884 0.37161 0.52888 0.0
C202 C 0.68522 0.36867 0.78363 0.0
C203 C 0.66259 0.62761 0.10429 0.0
O204 O 0.56074 0.68291 0.81263 0.0
O205 O 0.62012 0.63843 0.59711 0.0
O206 O 0.43005 0.59252 0.9399 0.0
O207 O 0.48142 0.64902 0.13278 0.0
O208 O 0.48127 0.51261 0.78818 0.0
O209 O 0.54168 0.56826 0.63255 0.0
O210 O 0.59622 0.4636 0.91153 0.0
O211 O 0.54435 0.50882 0.13827 0.0
O212 O 0.72952 0.54845 0.83365 0.0
O213 O 0.68258 0.50387 0.60303 0.0
O214 O 0.67625 0.63962 0.93204 0.0
O215 O 0.62096 0.58562 0.10937 0.0
H216 H 0.45275 0.70952 0.72142 0.0
H217 H 0.32689 0.70931 0.1685 0.0
H218 H 0.38465 0.78631 0.3361 0.0
H219 H 0.51487 0.78935 0.8771 0.0
H220 H 0.70288 0.43201 0.00803 0.0
H221 H 0.82824 0.44024 0.55723 0.0
H222 H 0.77161 0.36261 0.38565 0.0
H223 H 0.6416 0.3543 0.84382 0.0
Gd224 Gd 1.06408 0.52578 0.93364 0.0
Gd225 Gd 0.0918 0.62428 0.79095 0.0
C226 C 0.95834 0.58916 0.66915 0.0
C227 C 1.01499 0.42477 0.0437 0.0
C228 C 0.95813 0.39813 0.97021 0.0
C229 C 0.92318 0.43761 0.85504 0.0
C230 C 0.92607 0.36697 0.10737 0.0
C231 C 0.86029 0.45673 0.12842 0.0
C232 C 0.87912 0.39895 0.19849 0.0
C233 C 0.87669 0.47228 0.94405 0.0
C234 C 0.12424 0.49256 0.61363 0.0
C235 C 0.19626 0.56134 0.06511 0.0
C236 C 0.13959 0.72568 0.67578 0.0
C237 C 0.1945 0.75578 0.7529 0.0
C238 C 0.23018 0.71797 0.87104 0.0
C239 C 0.22697 0.78744 0.61694 0.0
C240 C 0.29343 0.69818 0.59799 0.0
C241 C 0.27421 0.75556 0.52568 0.0
C242 C 0.27749 0.68378 0.78438 0.0
C243 C 1.03188 0.6561 0.11318 0.0
O244 O 0.96674 0.55969 0.82964 0.0
O245 O 1.00973 0.6099 0.5978 0.0
O246 O 1.06107 0.42577 0.92806 0.0
O247 O 1.00716 0.47709 0.13195 0.0
O248 O 0.14183 0.47636 0.78003 0.0
O249 O 0.08318 0.53584 0.62427 0.0
O250 O 0.1883 0.59335 0.90859 0.0
O251 O 0.14555 0.53719 0.12963 0.0
O252 O 0.09177 0.72453 0.78509 0.0
O253 O 0.15046 0.67239 0.5957 0.0
O254 O 1.0148 0.67379 0.9477 0.0
O255 O 1.07354 0.6137 0.09988 0.0
H256 H 0.94234 0.45346 0.72331 0.0
H257 H 0.94881 0.32938 0.17683 0.0
H258 H 0.86986 0.38548 0.3401 0.0
H259 H 0.86053 0.51516 0.88188 0.0
H260 H 0.21089 0.70198 1.00241 0.0
H261 H 0.20516 0.82602 0.55044 0.0
H262 H 0.28447 0.7689 0.38404 0.0
H263 H 0.29339 0.64117 0.84897 0.0
loop_
_geom_bond_atom_site_label_1
_geom_bond_atom_site_label_2
_geom_bond_distance
_geom_bond_site_symmetry_2
_ccdc_geom_bond_type
H0 C7 0.929 . S
H1 C10 0.930 . S
H2 C12 0.929 . S
H3 C4 0.969 . S
C4 H3 0.969 . S
C4 O5 1.550 . S
C4 H6 0.973 . S
O5 C4 1.550 . S
O5 C11 1.412 . S
H6 C4 0.973 . S
C7 H0 0.929 . S
C7 C8 1.400 . S
C7 C9 1.364 . S
C8 C7 1.400 . S
C8 C12 1.377 . S
C9 C7 1.364 . S
C9 C10 1.374 . S
C10 H1 0.930 . S
C10 C9 1.374 . S
C10 C11 1.383 . S
C11 O5 1.412 . S
C11 C10 1.383 . S
C11 C12 1.394 . S
C12 H2 0.929 . S
C12 C8 1.377 . S
C12 C11 1.394 . S
H13 C20 0.928 1_655 S
H14 C23 0.931 . S
H15 C25 0.929 1_655 S
H16 C17 0.969 . S
C17 H16 0.969 . S
C17 O18 1.550 1_455 S
C17 H19 0.973 1_455 S
O18 C17 1.550 1_655 S
O18 C24 1.412 1_655 S
H19 C17 0.973 1_655 S
C20 H13 0.928 1_455 S
C20 C21 1.399 . S
C20 C22 1.364 . S
C21 C20 1.399 . S
C21 C25 1.377 . S
C22 C20 1.364 . S
C22 C23 1.374 1_455 S
C23 H14 0.931 . S
C23 C22 1.374 1_655 S
C23 C24 1.383 1_655 S
C24 O18 1.412 1_455 S
C24 C23 1.383 1_455 S
C24 C25 1.394 . S
C25 H15 0.929 1_455 S
C25 C21 1.377 . S
C25 C24 1.394 . S
H26 C33 0.928 1_565 S
H27 C36 0.931 . S
H28 C38 0.929 1_565 S
H29 C30 0.969 . S
C30 H29 0.969 . S
C30 O31 1.550 1_545 S
C30 H32 0.973 1_545 S
O31 C30 1.550 1_565 S
O31 C37 1.412 1_565 S
H32 C30 0.973 1_565 S
C33 H26 0.928 1_545 S
C33 C34 1.399 . S
C33 C35 1.364 . S
C34 C33 1.399 . S
C34 C38 1.377 . S
C35 C33 1.364 . S
C35 C36 1.374 1_545 S
C36 H27 0.931 . S
C36 C35 1.374 1_565 S
C36 C37 1.383 1_565 S
C37 O31 1.412 1_545 S
C37 C36 1.383 1_545 S
C37 C38 1.394 . S
C38 H28 0.929 1_545 S
C38 C34 1.377 . S
C38 C37 1.394 . S
H39 C46 0.929 . S
H40 C49 0.930 . S
H41 C51 0.929 . S
H42 C43 0.969 . S
C43 H42 0.969 . S
C43 O44 1.550 . S
C43 H45 0.973 . S
O44 C43 1.550 . S
O44 C50 1.412 . S
H45 C43 0.973 . S
C46 H39 0.929 . S
C46 C47 1.400 . S
C46 C48 1.364 . S
C47 C46 1.400 . S
C47 C51 1.377 . S
C48 C46 1.364 . S
C48 C49 1.374 . S
C49 H40 0.930 . S
C49 C48 1.374 . S
C49 C50 1.383 . S
C50 O44 1.412 . S
C50 C49 1.383 . S
C50 C51 1.394 . S
C51 H41 0.929 . S
C51 C47 1.377 . S
C51 C50 1.394 . S
H52 C59 0.929 . S
H53 C62 0.930 . S
H54 C64 0.929 . S
H55 C56 0.969 . S
C56 H55 0.969 . S
C56 O57 1.550 . S
C56 H58 0.973 . S
O57 C56 1.550 . S
O57 C63 1.412 . S
H58 C56 0.973 . S
C59 H52 0.929 . S
C59 C60 1.400 . S
C59 C61 1.364 1_556 S
C60 C59 1.400 . S
C60 C64 1.377 . S
C61 C59 1.364 1_554 S
C61 C62 1.374 . S
C62 H53 0.930 . S
C62 C61 1.374 . S
C62 C63 1.383 . S
C63 O57 1.412 . S
C63 C62 1.383 . S
C63 C64 1.394 1_554 S
C64 H54 0.929 . S
C64 C60 1.377 . S
C64 C63 1.394 1_556 S
H65 C72 0.928 1_655 S
H66 C75 0.931 . S
H67 C77 0.928 1_655 S
H68 C69 0.969 . S
C69 H68 0.969 . S
C69 O70 1.550 1_455 S
C69 H71 0.973 1_455 S
O70 C69 1.550 1_655 S
O70 C76 1.412 1_655 S
H71 C69 0.973 1_655 S
C72 H65 0.928 1_455 S
C72 C73 1.400 . S
C72 C74 1.364 1_556 S
C73 C72 1.400 . S
C73 C77 1.377 . S
C74 C72 1.364 1_554 S
C74 C75 1.374 1_455 S
C75 H66 0.931 . S
C75 C74 1.374 1_655 S
C75 C76 1.383 1_655 S
C76 O70 1.412 1_455 S
C76 C75 1.383 1_455 S
C76 C77 1.395 1_554 S
C77 H67 0.928 1_455 S
C77 C73 1.377 . S
C77 C76 1.395 1_556 S
H78 C85 0.928 1_565 S
H79 C88 0.931 . S
H80 C90 0.928 1_565 S
H81 C82 0.969 . S
C82 H81 0.969 . S
C82 O83 1.550 1_545 S
C82 H84 0.973 1_545 S
O83 C82 1.550 1_565 S
O83 C89 1.412 1_565 S
H84 C82 0.973 1_565 S
C85 H78 0.928 1_545 S
C85 C86 1.400 . S
C85 C87 1.364 1_556 S
C86 C85 1.400 . S
C86 C90 1.377 . S
C87 C85 1.364 1_554 S
C87 C88 1.374 1_545 S
C88 H79 0.931 . S
C88 C87 1.374 1_565 S
C88 C89 1.383 1_565 S
C89 O83 1.412 1_545 S
C89 C88 1.383 1_545 S
C89 C90 1.395 1_554 S
C90 H80 0.928 1_545 S
C90 C86 1.377 . S
C90 C89 1.395 1_556 S
H91 C98 0.929 . S
H92 C101 0.930 . S
H93 C103 0.929 . S
H94 C95 0.969 . S
C95 H94 0.969 . S
C95 O96 1.550 . S
C95 H97 0.973 . S
O96 C95 1.550 . S
O96 C102 1.412 . S
H97 C95 0.973 . S
C98 H91 0.929 . S
C98 C99 1.400 . S
C98 C100 1.364 1_556 S
C99 C98 1.400 . S
C99 C103 1.377 . S
C100 C98 1.364 1_554 S
C100 C101 1.374 . S
C101 H92 0.930 . S
C101 C100 1.374 . S
C101 C102 1.383 . S
C102 O96 1.412 . S
C102 C101 1.383 . S
C102 C103 1.394 1_554 S
C103 H93 0.929 . S
C103 C99 1.377 . S
C103 C102 1.394 1_556 S
Gd104 C107 2.818 . S
Gd104 O124 2.377 1_554 S
Gd104 O126 2.448 . S
Gd104 O127 2.506 . S
Gd104 O128 2.435 1_554 S
Gd104 O129 2.717 1_564 S
Gd104 O131 2.395 1_565 S
Gd104 O135 2.327 1_455 S
Gd105 C116 2.818 . S
Gd105 O125 2.395 1_545 S
Gd105 O129 2.327 1_655 S
Gd105 O130 2.377 . S
Gd105 O132 2.448 . S
Gd105 O133 2.506 . S
Gd105 O134 2.435 . S
Gd105 O135 2.717 1_546 S
C106 O124 1.240 1_655 S
C106 O125 1.240 . S
C107 Gd104 2.818 . S
C107 C108 1.510 . S
C107 O126 1.249 . S
C107 O127 1.252 . S
C108 C107 1.510 . S
C108 C109 1.404 . S
C108 C110 1.352 . S
C109 C108 1.404 . S
C109 C113 1.389 . S
C109 H136 0.930 . S
C110 C108 1.352 . S
C110 C112 1.374 . S
C110 H137 0.931 . S
C111 C112 1.359 . S
C111 C113 1.364 . S
C112 C110 1.374 . S
C112 C111 1.359 . S
C112 H138 0.931 . S
C113 C109 1.389 . S
C113 C111 1.364 . S
C113 H139 0.931 . S
C114 O128 1.256 . S
C114 O129 1.257 1_565 S
C115 O130 1.240 1_455 S
C115 O131 1.240 1_556 S
C116 Gd105 2.818 . S
C116 C117 1.510 . S
C116 O132 1.249 . S
C116 O133 1.252 . S
C117 C116 1.510 . S
C117 C118 1.404 . S
C117 C119 1.352 . S
C118 C117 1.404 . S
C118 C122 1.389 . S
C118 H140 0.930 . S
C119 C117 1.352 . S
C119 C121 1.374 . S
C119 H141 0.931 . S
C120 C121 1.359 . S
C120 C122 1.364 . S
C121 C119 1.374 . S
C121 C120 1.359 . S
C121 H142 0.931 . S
C122 C118 1.389 . S
C122 C120 1.364 . S
C122 H143 0.931 . S
C123 O134 1.256 1_554 S
C123 O135 1.257 1_545 S
O124 Gd104 2.377 1_556 S
O124 C106 1.240 1_455 S
O125 Gd105 2.395 1_565 S
O125 C106 1.240 . S
O126 Gd104 2.448 . S
O126 C107 1.249 . S
O127 Gd104 2.506 . S
O127 C107 1.252 . S
O128 Gd104 2.435 1_556 S
O128 C114 1.256 . S
O129 Gd104 2.717 1_546 S
O129 Gd105 2.327 1_455 S
O129 C114 1.257 1_545 S
O130 Gd105 2.377 . S
O130 C115 1.240 1_655 S
O131 Gd104 2.395 1_545 S
O131 C115 1.240 1_554 S
O132 Gd105 2.448 . S
O132 C116 1.249 . S
O133 Gd105 2.506 . S
O133 C116 1.252 . S
O134 Gd105 2.435 . S
O134 C123 1.256 1_556 S
O135 Gd104 2.327 1_655 S
O135 Gd105 2.717 1_564 S
O135 C123 1.257 1_565 S
H136 C109 0.930 . S
H137 C110 0.931 . S
H138 C112 0.931 . S
H139 C113 0.931 . S
H140 C118 0.930 . S
H141 C119 0.931 . S
H142 C121 0.931 . S
H143 C122 0.931 . S
Gd144 C147 2.818 . S
Gd144 O164 2.377 1_554 S
Gd144 O166 2.448 . S
Gd144 O167 2.506 . S
Gd144 O168 2.435 1_554 S
Gd144 O169 2.717 1_554 S
Gd144 O171 2.395 . S
Gd144 O175 2.327 1_545 S
Gd145 C156 2.818 . S
Gd145 O165 2.395 . S
Gd145 O169 2.327 1_565 S
Gd145 O170 2.377 . S
Gd145 O172 2.448 . S
Gd145 O173 2.506 . S
Gd145 O174 2.435 . S
Gd145 O175 2.717 1_556 S
C146 O164 1.240 1_565 S
C146 O165 1.240 . S
C147 Gd144 2.818 . S
C147 C148 1.510 . S
C147 O166 1.249 . S
C147 O167 1.252 . S
C148 C147 1.510 . S
C148 C149 1.404 . S
C148 C150 1.352 . S
C149 C148 1.404 . S
C149 C153 1.389 . S
C149 H176 0.930 . S
C150 C148 1.352 . S
C150 C152 1.374 . S
C150 H177 0.917 1_545 S
C151 C152 1.359 . S
C151 C153 1.364 . S
C152 C150 1.374 . S
C152 C151 1.359 . S
C152 H178 0.931 . S
C153 C149 1.389 . S
C153 C151 1.364 . S
C153 H179 0.931 . S
C154 O168 1.256 . S
C154 O169 1.257 . S
C155 O170 1.240 1_545 S
C155 O171 1.240 1_556 S
C156 Gd145 2.818 . S
C156 C157 1.510 . S
C156 O172 1.249 . S
C156 O173 1.252 . S
C157 C156 1.510 . S
C157 C158 1.404 . S
C157 C159 1.352 . S
C158 C157 1.404 . S
C158 C162 1.389 . S
C158 H180 0.930 . S
C159 C157 1.352 . S
C159 C161 1.374 . S
C159 H181 0.912 1_565 S
C160 C161 1.359 . S
C160 C162 1.364 . S
C161 C159 1.374 . S
C161 C160 1.359 . S
C161 H182 0.931 . S
C162 C158 1.389 . S
C162 C160 1.364 . S
C162 H183 0.931 . S
C163 O174 1.256 1_554 S
C163 O175 1.257 . S
O164 Gd144 2.377 1_556 S
O164 C146 1.240 1_545 S
O165 Gd145 2.395 . S
O165 C146 1.240 . S
O166 Gd144 2.448 . S
O166 C147 1.249 . S
O167 Gd144 2.506 . S
O167 C147 1.252 . S
O168 Gd144 2.435 1_556 S
O168 C154 1.256 . S
O169 Gd144 2.717 1_556 S
O169 Gd145 2.327 1_545 S
O169 C154 1.257 . S
O170 Gd145 2.377 . S
O170 C155 1.240 1_565 S
O171 Gd144 2.395 . S
O171 C155 1.240 1_554 S
O172 Gd145 2.448 . S
O172 C156 1.249 . S
O173 Gd145 2.506 . S
O173 C156 1.252 . S
O174 Gd145 2.435 . S
O174 C163 1.256 1_556 S
O175 Gd144 2.327 1_565 S
O175 Gd145 2.717 1_554 S
O175 C163 1.257 . S
H176 C149 0.930 . S
H177 C150 0.917 1_565 S
H178 C152 0.931 . S
H179 C153 0.931 . S
H180 C158 0.930 . S
H181 C159 0.912 1_545 S
H182 C161 0.931 . S
H183 C162 0.931 . S
Gd184 C187 2.818 . S
Gd184 O204 2.377 1_554 S
Gd184 O206 2.448 . S
Gd184 O207 2.506 . S
Gd184 O208 2.435 1_554 S
Gd184 O209 2.717 1_554 S
Gd184 O211 2.395 . S
Gd184 O215 2.327 . S
Gd185 C196 2.818 . S
Gd185 O205 2.395 . S
Gd185 O209 2.327 . S
Gd185 O210 2.377 . S
Gd185 O212 2.448 . S
Gd185 O213 2.506 . S
Gd185 O214 2.435 . S
Gd185 O215 2.717 1_556 S
C186 O204 1.240 . S
C186 O205 1.240 . S
C187 Gd184 2.818 . S
C187 C188 1.510 . S
C187 O206 1.249 . S
C187 O207 1.252 . S
C188 C187 1.510 . S
C188 C189 1.404 . S
C188 C190 1.352 . S
C189 C188 1.404 . S
C189 C193 1.389 . S
C189 H216 0.930 . S
C190 C188 1.352 . S
C190 C192 1.374 . S
C190 H217 0.931 . S
C191 C192 1.359 . S
C191 C193 1.364 . S
C192 C190 1.374 . S
C192 C191 1.359 . S
C192 H218 0.931 . S
C193 C189 1.389 . S
C193 C191 1.364 . S
C193 H219 0.931 . S
C194 O208 1.256 . S
C194 O209 1.257 . S
C195 O210 1.240 . S
C195 O211 1.240 1_556 S
C196 Gd185 2.818 . S
C196 C197 1.510 . S
C196 O212 1.249 . S
C196 O213 1.252 . S
C197 C196 1.510 . S
C197 C198 1.404 . S
C197 C199 1.352 . S
C198 C197 1.404 . S
C198 C202 1.389 . S
C198 H220 0.930 . S
C199 C197 1.352 . S
C199 C201 1.374 . S
C199 H221 0.931 . S
C200 C201 1.359 . S
C200 C202 1.364 . S
C201 C199 1.374 . S
C201 C200 1.359 . S
C201 H222 0.931 . S
C202 C198 1.389 . S
C202 C200 1.364 . S
C202 H223 0.931 . S
C203 O214 1.256 1_554 S
C203 O215 1.257 . S
O204 Gd184 2.377 1_556 S
O204 C186 1.240 . S
O205 Gd185 2.395 . S
O205 C186 1.240 . S
O206 Gd184 2.448 . S
O206 C187 1.249 . S
O207 Gd184 2.506 . S
O207 C187 1.252 . S
O208 Gd184 2.435 1_556 S
O208 C194 1.256 . S
O209 Gd184 2.717 1_556 S
O209 Gd185 2.327 . S
O209 C194 1.257 . S
O210 Gd185 2.377 . S
O210 C195 1.240 . S
O211 Gd184 2.395 . S
O211 C195 1.240 1_554 S
O212 Gd185 2.448 . S
O212 C196 1.249 . S
O213 Gd185 2.506 . S
O213 C196 1.252 . S
O214 Gd185 2.435 . S
O214 C203 1.256 1_556 S
O215 Gd184 2.327 . S
O215 Gd185 2.717 1_554 S
O215 C203 1.257 . S
H216 C189 0.930 . S
H217 C190 0.931 . S
H218 C192 0.931 . S
H219 C193 0.931 . S
H220 C198 0.930 . S
H221 C199 0.931 . S
H222 C201 0.931 . S
H223 C202 0.931 . S
Gd224 C227 2.818 . S
Gd224 O244 2.377 1_554 S
Gd224 O246 2.448 . S
Gd224 O247 2.506 . S
Gd224 O248 2.435 1_554 S
Gd224 O249 2.717 1_654 S
Gd224 O251 2.395 1_655 S
Gd224 O255 2.327 . S
Gd225 C236 2.818 . S
Gd225 O245 2.395 1_455 S
Gd225 O249 2.327 . S
Gd225 O250 2.377 . S
Gd225 O252 2.448 . S
Gd225 O253 2.506 . S
Gd225 O254 2.435 . S
Gd225 O255 2.717 1_456 S
C226 O244 1.240 . S
C226 O245 1.240 . S
C227 Gd224 2.818 . S
C227 C228 1.510 . S
C227 O246 1.249 . S
C227 O247 1.252 . S
C228 C227 1.510 . S
C228 C229 1.404 . S
C228 C230 1.352 . S
C229 C228 1.404 . S
C229 C233 1.389 . S
C229 H256 0.930 . S
C230 C228 1.352 . S
C230 C232 1.374 . S
C230 H257 0.931 . S
C231 C232 1.359 . S
C231 C233 1.364 . S
C232 C230 1.374 . S
C232 C231 1.359 . S
C232 H258 0.931 . S
C233 C229 1.389 . S
C233 C231 1.364 . S
C233 H259 0.931 . S
C234 O248 1.262 . S
C234 O249 1.254 1_655 S
C235 O250 1.240 . S
C235 O251 1.240 1_556 S
C236 Gd225 2.818 . S
C236 C237 1.510 . S
C236 O252 1.249 . S
C236 O253 1.252 . S
C237 C236 1.510 . S
C237 C238 1.404 . S
C237 C239 1.352 . S
C238 C237 1.404 . S
C238 C242 1.389 . S
C238 H260 0.930 . S
C239 C237 1.352 . S
C239 C241 1.374 . S
C239 H261 0.931 . S
C240 C241 1.359 . S
C240 C242 1.364 . S
C241 C239 1.374 . S
C241 C240 1.359 . S
C241 H262 0.931 . S
C242 C238 1.389 . S
C242 C240 1.364 . S
C242 H263 0.931 . S
C243 O254 1.264 1_554 S
C243 O255 1.253 1_455 S
O244 Gd224 2.377 1_556 S
O244 C226 1.240 . S
O245 Gd225 2.395 1_655 S
O245 C226 1.240 . S
O246 Gd224 2.448 . S
O246 C227 1.249 . S
O247 Gd224 2.506 . S
O247 C227 1.252 . S
O248 Gd224 2.435 1_556 S
O248 C234 1.262 . S
O249 Gd224 2.717 1_456 S
O249 Gd225 2.327 . S
O249 C234 1.254 1_455 S
O250 Gd225 2.377 . S
O250 C235 1.240 . S
O251 Gd224 2.395 1_455 S
O251 C235 1.240 1_554 S
O252 Gd225 2.448 . S
O252 C236 1.249 . S
O253 Gd225 2.506 . S
O253 C236 1.252 . S
O254 Gd225 2.435 . S
O254 C243 1.264 1_556 S
O255 Gd224 2.327 . S
O255 Gd225 2.717 1_654 S
O255 C243 1.253 1_655 S
H256 C229 0.930 . S
H257 C230 0.931 . S
H258 C232 0.931 . S
H259 C233 0.931 . S
H260 C238 0.930 . S
H261 C239 0.931 . S
H262 C241 0.931 . S
H263 C242 0.931 . S
C82 C114 3.386 1_545 S
C154 C95 3.385 . S
C194 C56 3.399 . S
C234 C69 3.393 1_655 S
C123 C30 3.372 . S
C43 C163 3.422 . S
C4 C203 3.449 . S
C17 C243 3.393 . S
C120 C74 2.441 1_655 S
C160 C87 2.318 1_565 S
C200 C100 2.218 . S
C61 C240 2.325 . S
C22 C111 2.440 . S
C151 C35 2.318 . S
C191 C48 2.196 . S
C9 C231 2.303 . S
C73 C115 3.965 . S
C86 C155 3.905 . S
C195 C99 3.905 . S
C235 C60 3.963 . S
C21 C106 3.970 1_455 S
C146 C34 3.905 1_565 S
C186 C47 3.916 . S
C8 C226 3.979 . S
