# Generated by pormake.
# Topology anh, (6,3)-cn, num edge types: 1
# Building blocks:
#     Node 0, Type 0, BuildingBlock: GEDQOX_clean_sbu_0, # of connection points: 6
#     Node 1, Type 0, BuildingBlock: GEDQOX_clean_sbu_0, # of connection points: 6
#     Node 2, Type 0, BuildingBlock: GEDQOX_clean_sbu_0, # of connection points: 6
#     Node 3, Type 1, BuildingBlock: CUQRIR_clean_linker_1, # of connection points: 3
#     Node 4, Type 1, BuildingBlock: CUQRIR_clean_linker_1, # of connection points: 3
#     Node 5, Type 1, BuildingBlock: CUQRIR_clean_linker_1, # of connection points: 3
#     Node 6, Type 1, BuildingBlock: CUQRIR_clean_linker_1, # of connection points: 3
#     Node 7, Type 1, BuildingBlock: CUQRIR_clean_linker_1, # of connection points: 3
#     Node 8, Type 1, BuildingBlock: CUQRIR_clean_linker_1, # of connection points: 3
#     Edge 9, Type (0, 1), BuildingBlock: XIVTED_clean_linker_0, # of connection points: 2
#     Edge 10, Type (0, 1), BuildingBlock: XIVTED_clean_linker_0, # of connection points: 2
#     Edge 11, Type (0, 1), BuildingBlock: XIVTED_clean_linker_0, # of connection points: 2
#     Edge 12, Type (0, 1), BuildingBlock: XIVTED_clean_linker_0, # of connection points: 2
#     Edge 13, Type (0, 1), BuildingBlock: XIVTED_clean_linker_0, # of connection points: 2
#     Edge 14, Type (0, 1), BuildingBlock: XIVTED_clean_linker_0, # of connection points: 2
#     Edge 15, Type (0, 1), BuildingBlock: XIVTED_clean_linker_0, # of connection points: 2
#     Edge 16, Type (0, 1), BuildingBlock: XIVTED_clean_linker_0, # of connection points: 2
#     Edge 17, Type (0, 1), BuildingBlock: XIVTED_clean_linker_0, # of connection points: 2
#     Edge 18, Type (0, 1), BuildingBlock: XIVTED_clean_linker_0, # of connection points: 2
#     Edge 19, Type (0, 1), BuildingBlock: XIVTED_clean_linker_0, # of connection points: 2
#     Edge 20, Type (0, 1), BuildingBlock: XIVTED_clean_linker_0, # of connection points: 2
#     Edge 21, Type (0, 1), BuildingBlock: XIVTED_clean_linker_0, # of connection points: 2
#     Edge 22, Type (0, 1), BuildingBlock: XIVTED_clean_linker_0, # of connection points: 2
#     Edge 23, Type (0, 1), BuildingBlock: XIVTED_clean_linker_0, # of connection points: 2
#     Edge 24, Type (0, 1), BuildingBlock: XIVTED_clean_linker_0, # of connection points: 2
#     Edge 25, Type (0, 1), BuildingBlock: XIVTED_clean_linker_0, # of connection points: 2
#     Edge 26, Type (0, 1), BuildingBlock: XIVTED_clean_linker_0, # of connection points: 2
# Relax obj value: 0.201
# Max RMSD: 0.215
# Mean RMSD: 0.168
data_MOF--net-anh--node1-GEDQOX_clean_sbu_0--node2-CUQRIR_clean_linker_1--edge1-XIVTED_clean_linker_0
_symmetry_space_group_name_H-M    P1
_symmetry_Int_Tables_number       1
_symmetry_cell_setting            triclinic
loop_
_symmetry_equiv_pos_as_xyz
'x, y, z'
_cell_length_a     28.701405
_cell_length_b     27.785809
_cell_length_c     46.778114
_cell_angle_alpha  89.325417
_cell_angle_beta   89.018335
_cell_angle_gamma 101.56479
loop_
_atom_site_label
_atom_site_type_symbol
_atom_site_fract_x
_atom_site_fract_y
_atom_site_fract_z
_atom_type_partial_charge
Nd0 Nd 1.05791 0.5557 0.14543 0.0
Nd1 Nd 1.03738 0.44791 0.15672 0.0
C2 C 0.09604 0.64635 0.12866 0.0
C3 C 0.142 0.67738 0.13583 0.0
C4 C 0.16013 0.72087 0.12046 0.0
C5 C 0.20435 0.74958 0.12737 0.0
C6 C 0.23113 0.73503 0.14968 0.0
C7 C 0.21258 0.69123 0.16492 0.0
C8 C 0.16854 0.66275 0.15805 0.0
C9 C 1.04355 0.52991 0.20217 0.0
C10 C 0.15101 0.49861 0.15242 0.0
C11 C 1.00648 0.35806 0.17779 0.0
C12 C 0.96176 0.32374 0.18517 0.0
C13 C 0.92 0.34055 0.19194 0.0
C14 C 0.87818 0.30705 0.19948 0.0
C15 C 0.87743 0.2562 0.20033 0.0
C16 C 0.91938 0.23975 0.19317 0.0
C17 C 0.96109 0.27322 0.1857 0.0
C18 C 1.05609 0.47327 0.10063 0.0
C19 C 0.94514 0.50482 0.14513 0.0
O20 O 0.09864 0.60785 0.11335 0.0
O21 O 1.06529 0.63614 0.1499 0.0
O22 O 1.02729 0.56532 0.19021 0.0
O23 O 1.06781 0.51069 0.1846 0.0
O24 O 0.13502 0.53825 0.14427 0.0
O25 O 0.12013 0.4585 0.16088 0.0
O26 O 1.01769 0.39701 0.19366 0.0
O27 O 1.01561 0.36746 0.1506 0.0
O28 O 1.07109 0.43759 0.11329 0.0
O29 O 1.03003 0.49283 0.11701 0.0
O30 O 0.95987 0.46643 0.15671 0.0
O31 O 0.97724 0.54297 0.13535 0.0
H32 H 0.14021 0.73251 0.10312 0.0
H33 H 0.21779 0.78284 0.11503 0.0
H34 H 0.23172 0.67927 0.18253 0.0
H35 H 0.15508 0.62927 0.1702 0.0
H36 H 0.91983 0.3795 0.19162 0.0
H37 H 0.84669 0.32106 0.20509 0.0
H38 H 0.91993 0.20089 0.19304 0.0
H39 H 0.99295 0.2596 0.18037 0.0
Nd40 Nd 0.57163 0.98645 0.53003 0.0
Nd41 Nd 0.67678 1.00667 0.51793 0.0
C42 C 0.48315 0.95294 0.54831 0.0
C43 C 0.44724 0.90866 0.54264 0.0
C44 C 0.40076 0.90408 0.55349 0.0
C45 C 0.36579 0.86327 0.5467 0.0
C46 C 0.37681 0.82638 0.52892 0.0
C47 C 0.42385 0.8308 0.51859 0.0
C48 C 0.45871 0.87163 0.52535 0.0
C49 C 0.59589 0.99891 0.47306 0.0
C50 C 0.62738 0.89275 0.52512 0.0
C51 C 0.76401 0.03918 0.49719 0.0
C52 C 0.7957 0.08597 0.48853 0.0
C53 C 0.78124 0.11902 0.46925 0.0
C54 C 0.81255 0.16249 0.4609 0.0
C55 C 0.85885 0.17397 0.47179 0.0
C56 C 0.8728 0.14097 0.4914 0.0
C57 C 0.84164 0.09743 0.49956 0.0
C58 C 0.65191 0.99349 0.57485 0.0
C59 C 0.62171 0.0994 0.52659 0.0
O60 O 0.52043 0.94609 0.5623 0.0
O61 O 0.49424 0.9835 0.52668 0.0
O62 O 0.56177 0.01601 0.48509 0.0
O63 O 0.61484 0.97436 0.49067 0.0
O64 O 0.58958 0.90926 0.53394 0.0
O65 O 0.6655 0.92289 0.51465 0.0
O66 O 0.72739 0.02301 0.48117 0.0
O67 O 0.75416 0.03251 0.5245 0.0
O68 O 0.68678 0.97693 0.56313 0.0
O69 O 0.63329 0.01804 0.55711 0.0
O70 O 0.65689 0.08368 0.51336 0.0
O71 O 0.58723 0.06815 0.53984 0.0
H72 H 0.39137 0.93238 0.56688 0.0
H73 H 0.33007 0.8607 0.55527 0.0
H74 H 0.43344 0.80349 0.50454 0.0
H75 H 0.49443 0.8748 0.51663 0.0
H76 H 0.7459 0.11121 0.46045 0.0
H77 H 0.80066 0.18668 0.44556 0.0
H78 H 0.90773 0.14892 0.50072 0.0
H79 H 0.85349 0.07259 0.51455 0.0
Nd80 Nd 0.56988 0.57276 0.83779 0.0
Nd81 Nd 0.6712 0.5938 0.84391 0.0
C82 C 0.48257 0.58046 0.82583 0.0
C83 C 0.45452 0.6165 0.83566 0.0
C84 C 0.45036 0.65707 0.8183 0.0
C85 C 0.42453 0.6916 0.82798 0.0
C86 C 0.40226 0.68608 0.85517 0.0
C87 C 0.40797 0.6463 0.87277 0.0
C88 C 0.43361 0.612 0.86314 0.0
C89 C 0.59637 0.56392 0.89347 0.0
C90 C 0.62663 0.68859 0.84425 0.0
C91 C 0.75751 0.58244 0.85474 0.0
C92 C 0.77926 0.54397 0.84213 0.0
C93 C 0.8146 0.52578 0.85642 0.0
C94 C 0.83446 0.48878 0.84409 0.0
C95 C 0.81925 0.46956 0.81728 0.0
C96 C 0.78238 0.48648 0.80364 0.0
C97 C 0.76226 0.52309 0.8161 0.0
C98 C 0.64466 0.59881 0.78794 0.0
C99 C 0.61449 0.47845 0.83467 0.0
O100 O 0.51883 0.59758 0.8088 0.0
O101 O 0.49227 0.54964 0.84513 0.0
O102 O 0.563 0.53324 0.88124 0.0
O103 O 0.6144 0.59906 0.87675 0.0
O104 O 0.58975 0.65738 0.83452 0.0
O105 O 0.66356 0.67245 0.85407 0.0
O106 O 0.72166 0.56629 0.87223 0.0
O107 O 0.74905 0.61581 0.83669 0.0
O108 O 0.67917 0.62964 0.79908 0.0
O109 O 0.62656 0.56575 0.80577 0.0
O110 O 0.6509 0.50833 0.84601 0.0
O111 O 0.57862 0.49615 0.82474 0.0
H112 H 0.4666 0.66182 0.79711 0.0
H113 H 0.4207 0.72167 0.81386 0.0
H114 H 0.39031 0.63977 0.8935 0.0
H115 H 0.43625 0.58144 0.8772 0.0
H116 H 0.82739 0.54077 0.87676 0.0
H117 H 0.86352 0.47709 0.85485 0.0
H118 H 0.77016 0.47245 0.78299 0.0
H119 H 0.73392 0.53577 0.80511 0.0
C120 C 0.55853 0.97726 0.21925 0.0
N121 N 0.58768 0.99641 0.24056 0.0
N122 N 0.52486 0.93915 0.2292 0.0
C123 C 0.56468 0.99339 0.18838 0.0
C124 C 0.53462 0.93565 0.25728 0.0
N125 N 0.57311 0.97007 0.26412 0.0
C126 C 0.50397 0.90165 0.27851 0.0
H127 H 0.54568 0.02392 0.18478 0.0
H128 H 0.54955 0.96284 0.17409 0.0
H129 H 0.60283 1.00668 0.18273 0.0
H130 H 0.5186 0.86782 0.28098 0.0
H131 H 0.46682 0.89116 0.27116 0.0
H132 H 0.50381 0.91899 0.29975 0.0
C133 C 0.63036 0.49879 0.54045 0.0
N134 N 0.62704 0.53529 0.55903 0.0
N135 N 0.62411 0.45477 0.55442 0.0
C136 C 0.63646 0.50544 0.50861 0.0
C137 C 0.61707 0.46579 0.58203 0.0
N138 N 0.61829 0.5144 0.58481 0.0
C139 C 0.61212 0.42936 0.60656 0.0
H140 H 0.62254 0.4706 0.49749 0.0
H141 H 0.67492 0.51701 0.50326 0.0
H142 H 0.61809 0.53448 0.50085 0.0
H143 H 0.62852 0.44704 0.6261 0.0
H144 H 0.62907 0.39796 0.60124 0.0
H145 H 0.57378 0.41503 0.61121 0.0
C146 C 0.1135 0.54561 0.84673 0.0
N147 N 0.11866 0.56226 0.87386 0.0
N148 N 1.08273 0.50173 0.8461 0.0
C149 C 0.14231 0.56939 0.82128 0.0
C150 C 1.06937 0.49245 0.87394 0.0
N151 N 0.09195 0.52862 0.89075 0.0
C152 C 1.03054 0.45091 0.88457 0.0
H153 H 0.12583 0.59921 0.81262 0.0
H154 H 0.14373 0.54233 0.80419 0.0
H155 H 0.17911 0.5858 0.8276 0.0
H156 H 1.04491 0.41679 0.88617 0.0
H157 H 1.00043 0.44468 0.86961 0.0
H158 H 1.0168 0.45862 0.90599 0.0
C159 C 0.11775 0.51018 0.45271 0.0
N160 N 0.09061 0.48771 0.43137 0.0
N161 N 0.1404 0.55584 0.4443 0.0
C162 C 0.11949 0.48908 0.48233 0.0
C163 C 0.12608 0.56035 0.41716 0.0
N164 N 0.09544 0.51919 0.40941 0.0
C165 C 0.14484 0.60347 0.39753 0.0
H166 H 0.12901 0.51861 0.49821 0.0
H167 H 0.14688 0.46603 0.48261 0.0
H168 H 0.08475 0.46557 0.48859 0.0
H169 H 0.14705 0.59144 0.3751 0.0
H170 H 0.18058 0.623 0.40404 0.0
H171 H 0.12019 0.62951 0.39846 0.0
C172 C 0.62517 0.08267 0.82252 0.0
N173 N 0.62421 0.04412 0.8047 0.0
N174 N 0.61794 0.1229 0.80779 0.0
C175 C 0.63 0.08025 0.85438 0.0
C176 C 0.61282 0.10757 0.78049 0.0
N177 N 0.61599 0.05978 0.77864 0.0
C178 C 0.60804 0.14046 0.75531 0.0
H179 H 0.61188 0.04376 0.86295 0.0
H180 H 0.61503 0.10947 0.86498 0.0
H181 H 0.66829 0.08553 0.85946 0.0
H182 H 0.62338 0.17945 0.75987 0.0
H183 H 0.56976 0.13722 0.75068 0.0
H184 H 0.62611 0.12952 0.736 0.0
C185 C 0.54971 0.50289 0.14277 0.0
N186 N 0.58926 0.5126 0.1248 0.0
N187 N 0.50964 0.51209 0.12963 0.0
C188 C 0.55047 0.48679 0.17339 0.0
C189 C 0.52647 0.52717 0.10311 0.0
N190 N 0.57378 0.52797 0.10028 0.0
C191 C 0.49578 0.53866 0.0791 0.0
H192 H 0.54704 0.44631 0.1743 0.0
H193 H 0.52037 0.49643 0.18574 0.0
H194 H 0.58469 0.50384 0.18315 0.0
H195 H 0.49671 0.57877 0.07856 0.0
H196 H 0.45833 0.5191 0.08219 0.0
H197 H 0.50905 0.52833 0.0581 0.0
H198 H 0.22506 0.57774 0.14097 0.0
H199 H 0.44295 0.43105 0.14761 0.0
H200 H 0.20181 0.42337 0.16214 0.0
H201 H 0.46101 0.58657 0.13244 0.0
H202 H 0.35634 0.42645 0.15484 0.0
H203 H 0.31091 0.5806 0.13888 0.0
C204 C 0.23768 0.54421 0.14524 0.0
C205 C 0.20485 0.50018 0.15176 0.0
C206 C 0.37924 0.46177 0.15033 0.0
C207 C 0.30576 0.50329 0.14922 0.0
C208 C 0.42906 0.46446 0.14654 0.0
C209 C 0.46017 0.50947 0.13984 0.0
C210 C 0.35956 0.50433 0.14722 0.0
C211 C 0.43905 0.55116 0.13792 0.0
C212 C 0.2873 0.54595 0.14405 0.0
C213 C 0.22489 0.45835 0.15706 0.0
N214 N 0.39084 0.54753 0.14138 0.0
N215 N 0.2734 0.46091 0.15558 0.0
H216 H 0.83936 0.26554 0.46095 0.0
H217 H 0.11192 0.39971 0.44387 0.0
H218 H 0.95548 0.18788 0.46214 0.0
H219 H 0.99598 0.4701 0.42327 0.0
H220 H 1.05514 0.3216 0.45127 0.0
H221 H 0.89573 0.34088 0.4476 0.0
C222 C 0.87657 0.26408 0.45817 0.0
C223 C 0.89253 0.22006 0.46287 0.0
C224 C 1.04203 0.35395 0.44488 0.0
C225 C 0.95752 0.30671 0.448 0.0
C226 C 1.07439 0.39832 0.44071 0.0
C227 C 1.05826 0.44091 0.43306 0.0
C228 C 0.99313 0.35245 0.44166 0.0
C229 C 1.0095 0.43772 0.42904 0.0
C230 C 0.90881 0.30727 0.45066 0.0
C231 C 0.94147 0.22096 0.45936 0.0
N232 N 0.97851 0.39429 0.43364 0.0
N233 N 0.97216 0.26355 0.45231 0.0
H234 H 0.55285 0.73058 0.82822 0.0
H235 H 0.69317 0.01079 0.8336 0.0
H236 H 0.69883 0.76908 0.85466 0.0
H237 H 0.5585 0.96318 0.79327 0.0
H238 H 0.69457 0.92442 0.84578 0.0
H239 H 0.55262 0.81698 0.82019 0.0
C240 C 0.58498 0.75719 0.83252 0.0
C241 C 0.62611 0.74211 0.842 0.0
C242 C 0.66471 0.93288 0.83429 0.0
C243 C 0.62597 0.84235 0.83262 0.0
C244 C 0.66385 0.98206 0.82748 0.0
C245 C 0.62567 0.99386 0.81241 0.0
C246 C 0.62683 0.89539 0.82619 0.0
C247 C 0.58871 0.95546 0.80469 0.0
C248 C 0.58479 0.8068 0.82781 0.0
C249 C 0.66633 0.77884 0.84732 0.0
N250 N 0.59016 0.90813 0.8117 0.0
N251 N 0.66533 0.82725 0.84246 0.0
H252 H 0.9018 0.57744 0.12272 0.0
H253 H 0.62668 0.43817 0.14989 0.0
H254 H 0.86491 0.43369 0.16222 0.0
H255 H 0.66883 0.58246 0.11194 0.0
H256 H 0.71166 0.43513 0.15556 0.0
H257 H 0.81696 0.57885 0.1191 0.0
C258 C 0.87611 0.54596 0.13069 0.0
C259 C 0.89184 0.50536 0.14284 0.0
C260 C 0.70241 0.46756 0.14603 0.0
C261 C 0.79203 0.50684 0.13867 0.0
C262 C 0.65352 0.46947 0.14297 0.0
C263 C 0.63959 0.51068 0.13031 0.0
C264 C 0.73858 0.50716 0.13644 0.0
C265 C 0.67701 0.54955 0.12144 0.0
C266 C 0.82711 0.54685 0.1286 0.0
C267 C 0.85547 0.466 0.15267 0.0
N268 N 0.72393 0.54678 0.12461 0.0
N269 N 0.80794 0.46775 0.15037 0.0
H270 H 0.28547 0.82858 0.51373 0.0
H271 H 0.22147 0.54522 0.46991 0.0
H272 H 0.38216 0.72914 0.52351 0.0
H273 H 0.13083 0.64848 0.45474 0.0
H274 H 0.27789 0.60975 0.49397 0.0
H275 H 0.22538 0.76084 0.49652 0.0
C276 C 0.29392 0.79237 0.5126 0.0
C277 C 0.33907 0.78466 0.52003 0.0
C278 C 0.24553 0.61828 0.48555 0.0
C279 C 0.27043 0.70683 0.49986 0.0
C280 C 0.21341 0.58146 0.47201 0.0
C281 C 0.17189 0.59199 0.46037 0.0
C282 C 0.23581 0.66581 0.48743 0.0
C283 C 0.16281 0.63937 0.46331 0.0
C284 C 0.25964 0.75371 0.50256 0.0
C285 C 0.3481 0.73697 0.51764 0.0
N286 N 0.1946 0.67462 0.47645 0.0
N287 N 0.31417 0.69992 0.50768 0.0
H288 H 0.68602 0.43062 0.84902 0.0
H289 H 0.54186 0.16522 0.80385 0.0
H290 H 0.54311 0.40395 0.81706 0.0
H291 H 0.68575 0.19007 0.83317 0.0
H292 H 0.53959 0.25149 0.81271 0.0
H293 H 0.68533 0.34255 0.84653 0.0
C294 C 0.6544 0.4063 0.84154 0.0
C295 C 0.61453 0.42495 0.83319 0.0
C296 C 0.57157 0.23819 0.81758 0.0
C297 C 0.61352 0.32365 0.83041 0.0
C298 C 0.57266 0.18893 0.81271 0.0
C299 C 0.61395 0.17079 0.81792 0.0
C300 C 0.61229 0.26989 0.82759 0.0
C301 C 0.65317 0.20279 0.82917 0.0
C302 C 0.65405 0.35591 0.84016 0.0
C303 C 0.57471 0.39146 0.82364 0.0
N304 N 0.65157 0.25095 0.83341 0.0
N305 N 0.57527 0.34261 0.82249 0.0
H306 H 0.55464 0.82073 0.54558 0.0
H307 H 0.69594 0.60015 0.53048 0.0
H308 H 0.69822 0.84208 0.51154 0.0
H309 H 0.55937 0.58637 0.5726 0.0
H310 H 0.6963 0.68744 0.52038 0.0
H311 H 0.55442 0.73374 0.55254 0.0
C312 C 0.58619 0.8072 0.53944 0.0
C313 C 0.62663 0.83915 0.52802 0.0
C314 C 0.66622 0.66534 0.5318 0.0
C315 C 0.62654 0.73868 0.53608 0.0
C316 C 0.66597 0.61561 0.53741 0.0
C317 C 0.62758 0.58632 0.55238 0.0
C318 C 0.62762 0.68576 0.54112 0.0
C319 C 0.58976 0.60796 0.56122 0.0
C320 C 0.58602 0.75731 0.5435 0.0
C321 C 0.66626 0.819 0.52045 0.0
N322 N 0.59069 0.65625 0.55546 0.0
N323 N 0.66525 0.77013 0.52466 0.0
H324 H 0.85518 0.48359 0.76286 0.0
H325 H 1.06323 0.4033 0.83652 0.0
H326 H 0.8499 0.38743 0.83631 0.0
H327 H 1.05154 0.54267 0.79922 0.0
H328 H 0.99597 0.36325 0.80792 0.0
H329 H 0.93024 0.46264 0.74792 0.0
C330 C 0.86847 0.45603 0.77508 0.0
C331 C 0.84803 0.43936 0.80176 0.0
C332 C 1.00999 0.40221 0.80484 0.0
C333 C 0.93398 0.41645 0.78512 0.0
C334 C 1.04781 0.42515 0.82143 0.0
C335 C 1.06053 0.47662 0.82157 0.0
C336 C 0.98585 0.43128 0.78816 0.0
C337 C 1.04171 0.50306 0.80055 0.0
C338 C 0.91138 0.44397 0.76645 0.0
C339 C 0.86616 0.40301 0.81634 0.0
N340 N 1.00443 0.48021 0.78513 0.0
N341 N 0.90916 0.39385 0.80832 0.0
H342 H 0.31217 0.70392 0.16523 0.0
H343 H 0.45802 0.97369 0.19986 0.0
H344 H 0.25663 0.83571 0.1523 0.0
H345 H 0.50262 0.84056 0.22464 0.0
H346 H 0.38826 0.9245 0.17694 0.0
H347 H 0.38618 0.75401 0.18193 0.0
C348 C 0.31548 0.74341 0.1659 0.0
C349 C 0.27777 0.76553 0.15762 0.0
C350 C 0.4134 0.90598 0.18722 0.0
C351 C 0.3629 0.82327 0.17647 0.0
C352 C 0.45319 0.93403 0.2001 0.0
C353 C 0.48568 0.91087 0.21406 0.0
C354 C 0.40628 0.85442 0.18829 0.0
C355 C 0.47798 0.85948 0.21417 0.0
C356 C 0.35789 0.77202 0.17533 0.0
C357 C 0.28472 0.81702 0.1583 0.0
N358 N 0.43898 0.83291 0.20155 0.0
N359 N 0.32631 0.84409 0.16772 0.0
H360 H 0.55 0.14263 0.54599 0.0
H361 H 0.69429 0.41982 0.52713 0.0
H362 H 0.69117 0.17802 0.50814 0.0
H363 H 0.54941 0.37922 0.55773 0.0
H364 H 0.69344 0.33279 0.51661 0.0
H365 H 0.54886 0.22979 0.54795 0.0
C366 C 0.58087 0.16872 0.53805 0.0
C367 C 0.62088 0.15274 0.52706 0.0
C368 C 0.6616 0.343 0.52523 0.0
C369 C 0.6198 0.25353 0.52927 0.0
C370 C 0.66205 0.39257 0.53096 0.0
C371 C 0.62184 0.40625 0.54324 0.0
C372 C 0.62064 0.30716 0.53198 0.0
C373 C 0.58103 0.36983 0.54827 0.0
C374 C 0.58011 0.21871 0.53909 0.0
C375 C 0.65959 0.18859 0.51689 0.0
N376 N 0.58159 0.32203 0.54287 0.0
N377 N 0.65823 0.23731 0.51842 0.0
H378 H 0.38233 0.72067 0.90818 0.0
H379 H 0.18549 0.57017 0.91452 0.0
H380 H 0.33676 0.716 0.8207 0.0
H381 H 0.12339 0.65452 0.8534 0.0
H382 H 0.25051 0.63962 0.92044 0.0
H383 H 0.3007 0.72075 0.92396 0.0
C384 C 0.35565 0.72177 0.89221 0.0
C385 C 0.36539 0.7143 0.86323 0.0
C386 C 0.22174 0.64418 0.90664 0.0
C387 C 0.27292 0.71428 0.88105 0.0
C388 C 0.18454 0.60415 0.90323 0.0
C389 C 0.14985 0.60638 0.88292 0.0
C390 C 0.22526 0.68575 0.88862 0.0
C391 C 0.15071 0.65111 0.86851 0.0
C392 C 0.30911 0.72183 0.90127 0.0
C393 C 0.33039 0.71904 0.84341 0.0
N394 N 0.18895 0.68851 0.87073 0.0
N395 N 0.28502 0.71685 0.85275 0.0
H396 H 0.7852 0.25809 0.18612 0.0
H397 H 0.67681 0.99526 0.25758 0.0
H398 H 0.86866 0.17226 0.23328 0.0
H399 H 0.59142 0.08723 0.21799 0.0
H400 H 0.74736 0.06083 0.25026 0.0
H401 H 0.7136 0.19719 0.19863 0.0
C402 C 0.78849 0.2267 0.19931 0.0
C403 C 0.83321 0.22029 0.20851 0.0
C404 C 0.7132 0.06687 0.24327 0.0
C405 C 0.75123 0.14994 0.22264 0.0
C406 C 0.67304 0.02958 0.24759 0.0
C407 C 0.62863 0.03595 0.23812 0.0
C408 C 0.70882 0.11079 0.22927 0.0
C409 C 0.62535 0.08081 0.22511 0.0
C410 C 0.74756 0.19177 0.20633 0.0
C411 C 0.83517 0.17839 0.22524 0.0
N412 N 0.66496 0.11644 0.22088 0.0
N413 N 0.79487 0.1448 0.23165 0.0
H414 H 0.11028 0.43284 0.06359 0.0
H415 H 1.06308 0.59247 0.92719 0.0
H416 H 1.02478 0.54382 0.0688 0.0
H417 H 0.12084 0.46126 0.92341 0.0
H418 H 1.05823 0.58421 0.97988 0.0
H419 H 0.12438 0.45189 0.01286 0.0
C420 C 0.09446 0.46135 0.05398 0.0
C421 C 1.06582 0.4864 0.07024 0.0
C422 C 1.07222 0.55744 0.96749 0.0
C423 C 1.08183 0.50846 0.01209 0.0
C424 C 1.07509 0.56231 0.93765 0.0
C425 C 0.09202 0.5272 0.92142 0.0
C426 C 0.08687 0.51744 0.98082 0.0
C427 C 0.10725 0.48864 0.93548 0.0
C428 C 0.10255 0.47221 0.02502 0.0
C429 C 1.0467 0.52336 0.05686 0.0
N430 N 0.10423 0.48471 0.96437 0.0
N431 N 1.05485 0.53317 0.02841 0.0
H432 H 0.6435 0.94137 0.44095 0.0
H433 H 0.57561 0.05434 0.29241 0.0
H434 H 0.56724 0.05978 0.4343 0.0
H435 H 0.60758 0.91007 0.30032 0.0
H436 H 0.59183 0.06746 0.34345 0.0
H437 H 0.64894 0.93959 0.38846 0.0
C438 C 0.62847 0.96735 0.42843 0.0
C439 C 0.60432 1.00032 0.44184 0.0
C440 C 0.596 0.03318 0.33396 0.0
C441 C 0.61077 0.99885 0.38215 0.0
C442 C 0.58712 0.02597 0.3049 0.0
C443 C 0.59014 0.98108 0.29253 0.0
C444 C 0.60816 0.99521 0.35059 0.0
C445 C 0.60471 0.94502 0.3094 0.0
C446 C 0.63148 0.96626 0.39856 0.0
C447 C 0.58562 0.03336 0.42473 0.0
N448 N 0.61287 0.95267 0.3377 0.0
N449 N 0.58906 0.03166 0.39579 0.0
H450 H 0.6956 0.6534 0.74463 0.0
H451 H 0.54498 0.49688 0.62261 0.0
H452 H 0.57326 0.53748 0.761 0.0
H453 H 0.68393 0.58659 0.60744 0.0
H454 H 0.54606 0.526 0.67192 0.0
H455 H 0.68375 0.64273 0.69312 0.0
C456 C 0.66599 0.62603 0.73736 0.0
C457 C 0.63568 0.59581 0.757 0.0
C458 C 0.57609 0.53996 0.65775 0.0
C459 C 0.62177 0.58368 0.69831 0.0
C460 C 0.57529 0.52354 0.62969 0.0
C461 C 0.61463 0.5391 0.61136 0.0
C462 C 0.61663 0.57217 0.66749 0.0
C463 C 0.65305 0.57389 0.62114 0.0
C464 C 0.65928 0.61996 0.708 0.0
C465 C 0.59773 0.56114 0.74651 0.0
N466 N 0.65342 0.58888 0.64875 0.0
N467 N 0.592 0.55585 0.71787 0.0
H468 H 0.57654 0.0203 0.60193 0.0
H469 H 0.68533 0.01764 0.75655 0.0
H470 H 0.70241 0.96249 0.61812 0.0
H471 H 0.54467 0.04245 0.74119 0.0
H472 H 0.68995 0.98971 0.70706 0.0
H473 H 0.56193 0.02308 0.65342 0.0
C474 C 0.60093 1.00787 0.61638 0.0
C475 C 0.64098 0.99163 0.60584 0.0
C476 C 0.65766 1.0003 0.71465 0.0
C477 C 0.62478 0.995 0.66485 0.0
C478 C 0.65498 0.01579 0.74288 0.0
C479 C 0.6148 0.03266 0.75255 0.0
C480 C 0.61997 1.00229 0.6961 0.0
C481 C 0.5764 0.03014 0.73418 0.0
C482 C 0.59251 0.00927 0.64579 0.0
C483 C 0.67126 0.97557 0.62545 0.0
N484 N 0.58019 0.01609 0.70668 0.0
N485 N 0.66291 0.97827 0.65406 0.0
H486 H 0.58118 0.48079 0.92585 0.0
H487 H 0.60261 0.61485 0.07294 0.0
H488 H 0.63693 0.63648 0.9304 0.0
H489 H 0.59899 0.46011 0.06602 0.0
H490 H 0.622 0.62549 0.02159 0.0
H491 H 0.59205 0.47301 0.9772 0.0
C492 C 0.5961 0.51335 0.93771 0.0
C493 C 0.60772 0.55942 0.92397 0.0
C494 C 0.61848 0.5894 0.03139 0.0
C495 C 0.61982 0.55093 0.98298 0.0
C496 C 0.60791 0.58352 0.06067 0.0
C497 C 0.5998 0.53667 0.07351 0.0
C498 C 0.61966 0.54783 0.01479 0.0
C499 C 0.60568 0.49681 0.0568 0.0
C500 C 0.60258 0.50885 0.96702 0.0
C501 C 0.62737 0.60032 0.94027 0.0
N502 N 0.61428 0.50308 0.02816 0.0
N503 N 0.63201 0.59529 0.96907 0.0
H504 H 0.99805 0.57332 0.24306 0.0
H505 H 0.10889 0.44778 0.3735 0.0
H506 H 0.08484 0.46461 0.23203 0.0
H507 H 1.03888 0.57012 0.38198 0.0
H508 H 0.08773 0.44223 0.32271 0.0
H509 H 1.00065 0.56214 0.29485 0.0
C510 C 1.01739 0.54682 0.25157 0.0
C511 C 1.04178 0.5203 0.23331 0.0
C512 C 1.07632 0.46982 0.33576 0.0
C513 C 1.04498 0.50728 0.29257 0.0
C514 C 0.08804 0.47263 0.36467 0.0
C515 C 1.07569 0.50959 0.38154 0.0
C516 C 1.05205 0.50427 0.32386 0.0
C517 C 1.04913 0.54138 0.36938 0.0
C518 C 1.01886 0.54042 0.28114 0.0
C519 C 1.06591 0.4861 0.24543 0.0
N520 N 1.03855 0.53833 0.34119 0.0
N521 N 1.06725 0.48085 0.27435 0.0
loop_
_geom_bond_atom_site_label_1
_geom_bond_atom_site_label_2
_geom_bond_distance
_geom_bond_site_symmetry_2
_ccdc_geom_bond_type
Nd0 C2 2.836 . S
Nd0 O20 2.500 . S
Nd0 O21 2.492 . S
Nd0 O22 2.487 . S
Nd0 O23 2.682 1_455 S
Nd0 O24 2.410 . S
Nd0 O29 2.414 . S
Nd0 O31 2.424 1_455 S
Nd1 C11 2.836 . S
Nd1 O23 2.414 . S
Nd1 O25 2.424 1_655 S
Nd1 O26 2.500 . S
Nd1 O27 2.492 . S
Nd1 O28 2.487 . S
Nd1 O29 2.682 1_655 S
Nd1 O30 2.410 . S
C2 Nd0 2.836 . S
C2 C3 1.498 . S
C2 O20 1.258 . S
C2 O21 1.239 . S
C3 C2 1.498 . S
C3 C4 1.366 . S
C3 C8 1.407 . S
C4 C3 1.366 . S
C4 C5 1.392 . S
C4 H32 0.930 . S
C5 C4 1.392 . S
C5 C6 1.398 . S
C5 H33 0.929 . S
C6 C5 1.398 . S
C6 C7 1.352 . S
C7 C6 1.352 . S
C7 C8 1.384 . S
C7 H34 0.930 . S
C8 C3 1.407 . S
C8 C7 1.384 . S
C8 H35 0.929 . S
C9 O22 1.241 1_655 S
C9 O23 1.273 . S
C10 O24 1.251 . S
C10 O25 1.268 . S
C11 Nd1 2.836 . S
C11 C12 1.498 . S
C11 O26 1.258 . S
C11 O27 1.239 . S
C12 C11 1.498 . S
C12 C13 1.366 . S
C12 C17 1.407 . S
C13 C12 1.366 . S
C13 C14 1.392 . S
C13 H36 0.930 . S
C14 C13 1.392 . S
C14 C15 1.398 . S
C14 H37 0.929 . S
C15 C14 1.398 . S
C15 C16 1.352 . S
C16 C15 1.352 . S
C16 C17 1.384 . S
C16 H38 0.930 . S
C17 C12 1.407 . S
C17 C16 1.384 . S
C17 H39 0.929 . S
C18 O28 1.241 1_455 S
C18 O29 1.273 . S
C19 O30 1.251 . S
C19 O31 1.268 . S
O20 Nd0 2.500 . S
O20 C2 1.258 . S
O21 Nd0 2.492 . S
O21 C2 1.239 . S
O22 Nd0 2.487 . S
O22 C9 1.241 1_455 S
O23 Nd0 2.682 1_655 S
O23 Nd1 2.414 . S
O23 C9 1.273 . S
O24 Nd0 2.410 . S
O24 C10 1.251 . S
O25 Nd1 2.424 1_455 S
O25 C10 1.268 . S
O26 Nd1 2.500 . S
O26 C11 1.258 . S
O27 Nd1 2.492 . S
O27 C11 1.239 . S
O28 Nd1 2.487 . S
O28 C18 1.241 1_655 S
O29 Nd0 2.414 . S
O29 Nd1 2.682 1_455 S
O29 C18 1.273 . S
O30 Nd1 2.410 . S
O30 C19 1.251 . S
O31 Nd0 2.424 1_655 S
O31 C19 1.268 . S
H32 C4 0.930 . S
H33 C5 0.929 . S
H34 C7 0.930 . S
H35 C8 0.929 . S
H36 C13 0.930 . S
H37 C14 0.929 . S
H38 C16 0.930 . S
H39 C17 0.929 . S
Nd40 C42 2.836 . S
Nd40 O60 2.500 . S
Nd40 O61 2.492 . S
Nd40 O62 2.487 . S
Nd40 O63 2.682 1_565 S
Nd40 O64 2.410 . S
Nd40 O69 2.414 1_565 S
Nd40 O71 2.424 1_565 S
Nd41 C51 2.836 . S
Nd41 O63 2.414 . S
Nd41 O65 2.424 1_545 S
Nd41 O66 2.500 . S
Nd41 O67 2.492 . S
Nd41 O68 2.487 . S
Nd41 O69 2.682 . S
Nd41 O70 2.410 . S
C42 Nd40 2.836 . S
C42 C43 1.498 . S
C42 O60 1.258 . S
C42 O61 1.239 . S
C43 C42 1.498 . S
C43 C44 1.366 . S
C43 C48 1.407 . S
C44 C43 1.366 . S
C44 C45 1.392 . S
C44 H72 0.930 . S
C45 C44 1.392 . S
C45 C46 1.398 . S
C45 H73 0.929 . S
C46 C45 1.398 . S
C46 C47 1.352 . S
C47 C46 1.352 . S
C47 C48 1.384 . S
C47 H74 0.930 . S
C48 C43 1.407 . S
C48 C47 1.384 . S
C48 H75 0.929 . S
C49 O62 1.241 1_545 S
C49 O63 1.273 . S
C50 O64 1.251 . S
C50 O65 1.268 . S
C51 Nd41 2.836 . S
C51 C52 1.498 . S
C51 O66 1.258 . S
C51 O67 1.239 . S
C52 C51 1.498 . S
C52 C53 1.366 . S
C52 C57 1.407 . S
C53 C52 1.366 . S
C53 C54 1.392 . S
C53 H76 0.930 . S
C54 C53 1.392 . S
C54 C55 1.398 . S
C54 H77 0.929 . S
C55 C54 1.398 . S
C55 C56 1.352 . S
C56 C55 1.352 . S
C56 C57 1.384 . S
C56 H78 0.930 . S
C57 C52 1.407 . S
C57 C56 1.384 . S
C57 H79 0.929 . S
C58 O68 1.241 . S
C58 O69 1.273 . S
C59 O70 1.251 . S
C59 O71 1.268 . S
O60 Nd40 2.500 . S
O60 C42 1.258 . S
O61 Nd40 2.492 . S
O61 C42 1.239 . S
O62 Nd40 2.487 . S
O62 C49 1.241 1_565 S
O63 Nd40 2.682 1_545 S
O63 Nd41 2.414 . S
O63 C49 1.273 . S
O64 Nd40 2.410 . S
O64 C50 1.251 . S
O65 Nd41 2.424 1_565 S
O65 C50 1.268 . S
O66 Nd41 2.500 . S
O66 C51 1.258 . S
O67 Nd41 2.492 . S
O67 C51 1.239 . S
O68 Nd41 2.487 . S
O68 C58 1.241 . S
O69 Nd40 2.414 1_545 S
O69 Nd41 2.682 . S
O69 C58 1.273 . S
O70 Nd41 2.410 . S
O70 C59 1.251 . S
O71 Nd40 2.424 1_545 S
O71 C59 1.268 . S
H72 C44 0.930 . S
H73 C45 0.929 . S
H74 C47 0.930 . S
H75 C48 0.929 . S
H76 C53 0.930 . S
H77 C54 0.929 . S
H78 C56 0.930 . S
H79 C57 0.929 . S
Nd80 C82 2.836 . S
Nd80 O100 2.500 . S
Nd80 O101 2.492 . S
Nd80 O102 2.487 . S
Nd80 O103 2.682 . S
Nd80 O104 2.410 . S
Nd80 O109 2.414 . S
Nd80 O111 2.424 . S
Nd81 C91 2.836 . S
Nd81 O103 2.414 . S
Nd81 O105 2.424 . S
Nd81 O106 2.500 . S
Nd81 O107 2.492 . S
Nd81 O108 2.487 . S
Nd81 O109 2.682 . S
Nd81 O110 2.410 . S
C82 Nd80 2.836 . S
C82 C83 1.498 . S
C82 O100 1.258 . S
C82 O101 1.239 . S
C83 C82 1.498 . S
C83 C84 1.366 . S
C83 C88 1.407 . S
C84 C83 1.366 . S
C84 C85 1.392 . S
C84 H112 0.930 . S
C85 C84 1.392 . S
C85 C86 1.398 . S
C85 H113 0.929 . S
C86 C85 1.398 . S
C86 C87 1.352 . S
C87 C86 1.352 . S
C87 C88 1.384 . S
C87 H114 0.930 . S
C88 C83 1.407 . S
C88 C87 1.384 . S
C88 H115 0.929 . S
C89 O102 1.241 . S
C89 O103 1.273 . S
C90 O104 1.251 . S
C90 O105 1.268 . S
C91 Nd81 2.836 . S
C91 C92 1.498 . S
C91 O106 1.258 . S
C91 O107 1.239 . S
C92 C91 1.498 . S
C92 C93 1.366 . S
C92 C97 1.407 . S
C93 C92 1.366 . S
C93 C94 1.392 . S
C93 H116 0.930 . S
C94 C93 1.392 . S
C94 C95 1.398 . S
C94 H117 0.929 . S
C95 C94 1.398 . S
C95 C96 1.352 . S
C96 C95 1.352 . S
C96 C97 1.384 . S
C96 H118 0.930 . S
C97 C92 1.407 . S
C97 C96 1.384 . S
C97 H119 0.929 . S
C98 O108 1.241 . S
C98 O109 1.273 . S
C99 O110 1.251 . S
C99 O111 1.268 . S
O100 Nd80 2.500 . S
O100 C82 1.258 . S
O101 Nd80 2.492 . S
O101 C82 1.239 . S
O102 Nd80 2.487 . S
O102 C89 1.241 . S
O103 Nd80 2.682 . S
O103 Nd81 2.414 . S
O103 C89 1.273 . S
O104 Nd80 2.410 . S
O104 C90 1.251 . S
O105 Nd81 2.424 . S
O105 C90 1.268 . S
O106 Nd81 2.500 . S
O106 C91 1.258 . S
O107 Nd81 2.492 . S
O107 C91 1.239 . S
O108 Nd81 2.487 . S
O108 C98 1.241 . S
O109 Nd80 2.414 . S
O109 Nd81 2.682 . S
O109 C98 1.273 . S
O110 Nd81 2.410 . S
O110 C99 1.251 . S
O111 Nd80 2.424 . S
O111 C99 1.268 . S
H112 C84 0.930 . S
H113 C85 0.929 . S
H114 C87 0.930 . S
H115 C88 0.929 . S
H116 C93 0.930 . S
H117 C94 0.929 . S
H118 C96 0.930 . S
H119 C97 0.929 . S
C120 N121 1.317 1_565 S
C120 N122 1.348 . S
C120 C123 1.484 1_565 S
N121 C120 1.317 1_545 S
N121 N125 1.370 . S
N122 C120 1.348 . S
N122 C124 1.346 . S
C123 C120 1.484 1_545 S
C123 H127 0.968 . S
C123 H128 0.953 1_545 S
C123 H129 0.961 . S
C124 N122 1.346 . S
C124 N125 1.307 1_565 S
C124 C126 1.486 . S
N125 N121 1.370 . S
N125 C124 1.307 1_545 S
C126 C124 1.486 . S
C126 H130 0.960 . S
C126 H131 0.960 . S
C126 H132 0.959 . S
H127 C123 0.968 . S
H128 C123 0.953 1_565 S
H129 C123 0.961 . S
H130 C126 0.960 . S
H131 C126 0.960 . S
H132 C126 0.959 . S
C133 N134 1.317 . S
C133 N135 1.348 . S
C133 C136 1.485 . S
N134 C133 1.317 . S
N134 N138 1.370 . S
N135 C133 1.348 . S
N135 C137 1.346 . S
C136 C133 1.485 . S
C136 H140 0.960 . S
C136 H141 0.961 . S
C136 H142 0.960 . S
C137 N135 1.346 . S
C137 N138 1.307 . S
C137 C139 1.486 . S
N138 N134 1.370 . S
N138 C137 1.307 . S
C139 C137 1.486 . S
C139 H143 0.960 . S
C139 H144 0.960 . S
C139 H145 0.959 . S
H140 C136 0.960 . S
H141 C136 0.961 . S
H142 C136 0.960 . S
H143 C139 0.960 . S
H144 C139 0.960 . S
H145 C139 0.959 . S
C146 N147 1.317 . S
C146 N148 1.348 1_455 S
C146 C149 1.485 . S
N147 C146 1.317 . S
N147 N151 1.370 . S
N148 C146 1.348 1_655 S
N148 C150 1.346 . S
C149 C146 1.485 . S
C149 H153 0.960 . S
C149 H154 0.981 . S
C149 H155 0.960 . S
C150 N148 1.346 . S
C150 N151 1.307 1_655 S
C150 C152 1.486 . S
N151 N147 1.370 . S
N151 C150 1.307 1_455 S
C152 C150 1.486 . S
C152 H156 0.960 . S
C152 H157 0.960 . S
C152 H158 0.959 . S
H153 C149 0.960 . S
H154 C149 0.981 . S
H155 C149 0.960 . S
H156 C152 0.960 . S
H157 C152 0.960 . S
H158 C152 0.959 . S
C159 N160 1.317 1_455 S
C159 N161 1.348 . S
C159 C162 1.485 . S
N160 C159 1.317 1_655 S
N160 N164 1.370 1_655 S
N161 C159 1.348 . S
N161 C163 1.346 . S
C162 C159 1.485 . S
C162 H166 0.960 1_455 S
C162 H167 0.961 . S
C162 H168 0.960 1_455 S
C163 N161 1.346 . S
C163 N164 1.307 . S
C163 C165 1.486 . S
N164 N160 1.370 1_455 S
N164 C163 1.307 . S
C165 C163 1.486 . S
C165 H169 0.960 . S
C165 H170 0.960 . S
C165 H171 0.959 . S
H166 C162 0.960 1_655 S
H167 C162 0.961 . S
H168 C162 0.960 1_655 S
H169 C165 0.960 . S
H170 C165 0.960 . S
H171 C165 0.959 . S
C172 N173 1.317 . S
C172 N174 1.348 . S
C172 C175 1.485 . S
N173 C172 1.317 . S
N173 N177 1.370 . S
N174 C172 1.348 . S
N174 C176 1.346 . S
C175 C172 1.485 . S
C175 H179 0.960 . S
C175 H180 0.961 . S
C175 H181 0.960 . S
C176 N174 1.346 . S
C176 N177 1.307 . S
C176 C178 1.486 . S
N177 N173 1.370 . S
N177 C176 1.307 . S
C178 C176 1.486 . S
C178 H182 0.960 . S
C178 H183 0.960 . S
C178 H184 0.959 . S
H179 C175 0.960 . S
H180 C175 0.961 . S
H181 C175 0.960 . S
H182 C178 0.960 . S
H183 C178 0.960 . S
H184 C178 0.959 . S
C185 N186 1.317 . S
C185 N187 1.348 . S
C185 C188 1.485 . S
N186 C185 1.317 . S
N186 N190 1.370 . S
N187 C185 1.348 . S
N187 C189 1.346 . S
C188 C185 1.485 . S
C188 H192 0.960 . S
C188 H193 0.961 . S
C188 H194 0.960 . S
C189 N187 1.346 . S
C189 N190 1.307 . S
C189 C191 1.486 . S
N190 N186 1.370 . S
N190 C189 1.307 . S
C191 C189 1.486 . S
C191 H195 0.960 . S
C191 H196 0.960 . S
C191 H197 0.959 . S
H192 C188 0.960 . S
H193 C188 0.961 . S
H194 C188 0.960 . S
H195 C191 0.960 . S
H196 C191 0.960 . S
H197 C191 0.959 . S
H198 C204 0.930 . S
H199 C208 0.930 . S
H200 C213 0.929 . S
H201 C211 0.929 . S
H202 C206 0.929 . S
H203 C212 0.929 . S
C204 H198 0.930 . S
C204 C205 1.367 . S
C204 C212 1.378 . S
C205 C204 1.367 . S
C205 C213 1.433 . S
C206 H202 0.929 . S
C206 C208 1.378 . S
C206 C210 1.350 . S
C207 C210 1.463 . S
C207 C212 1.350 . S
C207 N215 1.427 . S
C208 H199 0.930 . S
C208 C206 1.378 . S
C208 C209 1.367 . S
C209 C208 1.367 . S
C209 C211 1.433 . S
C210 C206 1.350 . S
C210 C207 1.463 . S
C210 N214 1.427 . S
C211 H201 0.929 . S
C211 C209 1.433 . S
C211 N214 1.384 . S
C212 H203 0.929 . S
C212 C204 1.378 . S
C212 C207 1.350 . S
C213 H200 0.929 . S
C213 C205 1.433 . S
C213 N215 1.384 . S
N214 C210 1.427 . S
N214 C211 1.384 . S
N215 C207 1.427 . S
N215 C213 1.384 . S
H216 C222 0.930 . S
H217 C226 0.930 . S
H218 C231 0.929 . S
H219 C229 0.929 . S
H220 C224 0.929 . S
H221 C230 0.929 . S
C222 H216 0.930 . S
C222 C223 1.367 . S
C222 C230 1.378 . S
C223 C222 1.367 . S
C223 C231 1.433 . S
C224 H220 0.929 . S
C224 C226 1.378 . S
C224 C228 1.350 . S
C225 C228 1.463 . S
C225 C230 1.350 . S
C225 N233 1.427 . S
C226 H217 0.930 . S
C226 C224 1.378 . S
C226 C227 1.367 . S
C227 C226 1.367 . S
C227 C229 1.433 . S
C228 C224 1.350 . S
C228 C225 1.463 . S
C228 N232 1.427 . S
C229 H219 0.929 . S
C229 C227 1.433 . S
C229 N232 1.384 . S
C230 H221 0.929 . S
C230 C222 1.378 . S
C230 C225 1.350 . S
C231 H218 0.929 . S
C231 C223 1.433 . S
C231 N233 1.384 . S
N232 C228 1.427 . S
N232 C229 1.384 . S
N233 C225 1.427 . S
N233 C231 1.384 . S
H234 C240 0.930 . S
H235 C244 0.930 . S
H236 C249 0.929 . S
H237 C247 0.929 . S
H238 C242 0.929 . S
H239 C248 0.929 . S
C240 H234 0.930 . S
C240 C241 1.367 . S
C240 C248 1.378 . S
C241 C240 1.367 . S
C241 C249 1.433 . S
C242 H238 0.929 . S
C242 C244 1.378 . S
C242 C246 1.350 . S
C243 C246 1.463 . S
C243 C248 1.350 . S
C243 N251 1.427 . S
C244 H235 0.930 . S
C244 C242 1.378 . S
C244 C245 1.367 . S
C245 C244 1.367 . S
C245 C247 1.433 . S
C246 C242 1.350 . S
C246 C243 1.463 . S
C246 N250 1.427 . S
C247 H237 0.929 . S
C247 C245 1.433 . S
C247 N250 1.384 . S
C248 H239 0.929 . S
C248 C240 1.378 . S
C248 C243 1.350 . S
C249 H236 0.929 . S
C249 C241 1.433 . S
C249 N251 1.384 . S
N250 C246 1.427 . S
N250 C247 1.384 . S
N251 C243 1.427 . S
N251 C249 1.384 . S
H252 C258 0.930 . S
H253 C262 0.930 . S
H254 C267 0.929 . S
H255 C265 0.929 . S
H256 C260 0.929 . S
H257 C266 0.929 . S
C258 H252 0.930 . S
C258 C259 1.367 . S
C258 C266 1.378 . S
C259 C258 1.367 . S
C259 C267 1.433 . S
C260 H256 0.929 . S
C260 C262 1.378 . S
C260 C264 1.350 . S
C261 C264 1.463 . S
C261 C266 1.350 . S
C261 N269 1.427 . S
C262 H253 0.930 . S
C262 C260 1.378 . S
C262 C263 1.367 . S
C263 C262 1.367 . S
C263 C265 1.433 . S
C264 C260 1.350 . S
C264 C261 1.463 . S
C264 N268 1.427 . S
C265 H255 0.929 . S
C265 C263 1.433 . S
C265 N268 1.384 . S
C266 H257 0.929 . S
C266 C258 1.378 . S
C266 C261 1.350 . S
C267 H254 0.929 . S
C267 C259 1.433 . S
C267 N269 1.384 . S
N268 C264 1.427 . S
N268 C265 1.384 . S
N269 C261 1.427 . S
N269 C267 1.384 . S
H270 C276 0.930 . S
H271 C280 0.930 . S
H272 C285 0.929 . S
H273 C283 0.929 . S
H274 C278 0.929 . S
H275 C284 0.929 . S
C276 H270 0.930 . S
C276 C277 1.367 . S
C276 C284 1.378 . S
C277 C276 1.367 . S
C277 C285 1.433 . S
C278 H274 0.929 . S
C278 C280 1.378 . S
C278 C282 1.350 . S
C279 C282 1.463 . S
C279 C284 1.350 . S
C279 N287 1.427 . S
C280 H271 0.930 . S
C280 C278 1.378 . S
C280 C281 1.367 . S
C281 C280 1.367 . S
C281 C283 1.433 . S
C282 C278 1.350 . S
C282 C279 1.463 . S
C282 N286 1.427 . S
C283 H273 0.929 . S
C283 C281 1.433 . S
C283 N286 1.384 . S
C284 H275 0.929 . S
C284 C276 1.378 . S
C284 C279 1.350 . S
C285 H272 0.929 . S
C285 C277 1.433 . S
C285 N287 1.384 . S
N286 C282 1.427 . S
N286 C283 1.384 . S
N287 C279 1.427 . S
N287 C285 1.384 . S
H288 C294 0.930 . S
H289 C298 0.930 . S
H290 C303 0.929 . S
H291 C301 0.929 . S
H292 C296 0.929 . S
H293 C302 0.929 . S
C294 H288 0.930 . S
C294 C295 1.367 . S
C294 C302 1.378 . S
C295 C294 1.367 . S
C295 C303 1.433 . S
C296 H292 0.929 . S
C296 C298 1.378 . S
C296 C300 1.350 . S
C297 C300 1.463 . S
C297 C302 1.350 . S
C297 N305 1.427 . S
C298 H289 0.930 . S
C298 C296 1.378 . S
C298 C299 1.367 . S
C299 C298 1.367 . S
C299 C301 1.433 . S
C300 C296 1.350 . S
C300 C297 1.463 . S
C300 N304 1.427 . S
C301 H291 0.929 . S
C301 C299 1.433 . S
C301 N304 1.384 . S
C302 H293 0.929 . S
C302 C294 1.378 . S
C302 C297 1.350 . S
C303 H290 0.929 . S
C303 C295 1.433 . S
C303 N305 1.384 . S
N304 C300 1.427 . S
N304 C301 1.384 . S
N305 C297 1.427 . S
N305 C303 1.384 . S
H306 C312 0.930 . S
H307 C316 0.930 . S
H308 C321 0.929 . S
H309 C319 0.929 . S
H310 C314 0.929 . S
H311 C320 0.929 . S
C312 H306 0.930 . S
C312 C313 1.367 . S
C312 C320 1.378 . S
C313 C312 1.367 . S
C313 C321 1.433 . S
C314 H310 0.929 . S
C314 C316 1.378 . S
C314 C318 1.350 . S
C315 C318 1.463 . S
C315 C320 1.350 . S
C315 N323 1.427 . S
C316 H307 0.930 . S
C316 C314 1.378 . S
C316 C317 1.367 . S
C317 C316 1.367 . S
C317 C319 1.433 . S
C318 C314 1.350 . S
C318 C315 1.463 . S
C318 N322 1.427 . S
C319 H309 0.929 . S
C319 C317 1.433 . S
C319 N322 1.384 . S
C320 H311 0.929 . S
C320 C312 1.378 . S
C320 C315 1.350 . S
C321 H308 0.929 . S
C321 C313 1.433 . S
C321 N323 1.384 . S
N322 C318 1.427 . S
N322 C319 1.384 . S
N323 C315 1.427 . S
N323 C321 1.384 . S
H324 C330 0.930 . S
H325 C334 0.930 . S
H326 C339 0.929 . S
H327 C337 0.929 . S
H328 C332 0.929 . S
H329 C338 0.929 . S
C330 H324 0.930 . S
C330 C331 1.367 . S
C330 C338 1.378 . S
C331 C330 1.367 . S
C331 C339 1.433 . S
C332 H328 0.929 . S
C332 C334 1.378 . S
C332 C336 1.350 . S
C333 C336 1.463 . S
C333 C338 1.350 . S
C333 N341 1.427 . S
C334 H325 0.930 . S
C334 C332 1.378 . S
C334 C335 1.367 . S
C335 C334 1.367 . S
C335 C337 1.433 . S
C336 C332 1.350 . S
C336 C333 1.463 . S
C336 N340 1.427 . S
C337 H327 0.929 . S
C337 C335 1.433 . S
C337 N340 1.384 . S
C338 H329 0.929 . S
C338 C330 1.378 . S
C338 C333 1.350 . S
C339 H326 0.929 . S
C339 C331 1.433 . S
C339 N341 1.384 . S
N340 C336 1.427 . S
N340 C337 1.384 . S
N341 C333 1.427 . S
N341 C339 1.384 . S
H342 C348 0.930 . S
H343 C352 0.930 . S
H344 C357 0.929 . S
H345 C355 0.929 . S
H346 C350 0.929 . S
H347 C356 0.929 . S
C348 H342 0.930 . S
C348 C349 1.367 . S
C348 C356 1.378 . S
C349 C348 1.367 . S
C349 C357 1.433 . S
C350 H346 0.929 . S
C350 C352 1.378 . S
C350 C354 1.350 . S
C351 C354 1.463 . S
C351 C356 1.350 . S
C351 N359 1.427 . S
C352 H343 0.930 . S
C352 C350 1.378 . S
C352 C353 1.367 . S
C353 C352 1.367 . S
C353 C355 1.433 . S
C354 C350 1.350 . S
C354 C351 1.463 . S
C354 N358 1.427 . S
C355 H345 0.929 . S
C355 C353 1.433 . S
C355 N358 1.384 . S
C356 H347 0.929 . S
C356 C348 1.378 . S
C356 C351 1.350 . S
C357 H344 0.929 . S
C357 C349 1.433 . S
C357 N359 1.384 . S
N358 C354 1.427 . S
N358 C355 1.384 . S
N359 C351 1.427 . S
N359 C357 1.384 . S
H360 C366 0.930 . S
H361 C370 0.930 . S
H362 C375 0.929 . S
H363 C373 0.929 . S
H364 C368 0.929 . S
H365 C374 0.929 . S
C366 H360 0.930 . S
C366 C367 1.367 . S
C366 C374 1.378 . S
C367 C366 1.367 . S
C367 C375 1.433 . S
C368 H364 0.929 . S
C368 C370 1.378 . S
C368 C372 1.350 . S
C369 C372 1.463 . S
C369 C374 1.350 . S
C369 N377 1.427 . S
C370 H361 0.930 . S
C370 C368 1.378 . S
C370 C371 1.367 . S
C371 C370 1.367 . S
C371 C373 1.433 . S
C372 C368 1.350 . S
C372 C369 1.463 . S
C372 N376 1.427 . S
C373 H363 0.929 . S
C373 C371 1.433 . S
C373 N376 1.384 . S
C374 H365 0.929 . S
C374 C366 1.378 . S
C374 C369 1.350 . S
C375 H362 0.929 . S
C375 C367 1.433 . S
C375 N377 1.384 . S
N376 C372 1.427 . S
N376 C373 1.384 . S
N377 C369 1.427 . S
N377 C375 1.384 . S
H378 C384 0.930 . S
H379 C388 0.930 . S
H380 C393 0.929 . S
H381 C391 0.929 . S
H382 C386 0.929 . S
H383 C392 0.929 . S
C384 H378 0.930 . S
C384 C385 1.367 . S
C384 C392 1.378 . S
C385 C384 1.367 . S
C385 C393 1.433 . S
C386 H382 0.929 . S
C386 C388 1.378 . S
C386 C390 1.350 . S
C387 C390 1.463 . S
C387 C392 1.350 . S
C387 N395 1.427 . S
C388 H379 0.930 . S
C388 C386 1.378 . S
C388 C389 1.367 . S
C389 C388 1.367 . S
C389 C391 1.433 . S
C390 C386 1.350 . S
C390 C387 1.463 . S
C390 N394 1.427 . S
C391 H381 0.929 . S
C391 C389 1.433 . S
C391 N394 1.384 . S
C392 H383 0.929 . S
C392 C384 1.378 . S
C392 C387 1.350 . S
C393 H380 0.929 . S
C393 C385 1.433 . S
C393 N395 1.384 . S
N394 C390 1.427 . S
N394 C391 1.384 . S
N395 C387 1.427 . S
N395 C393 1.384 . S
H396 C402 0.930 . S
H397 C406 0.930 1_565 S
H398 C411 0.929 . S
H399 C409 0.929 . S
H400 C404 0.929 . S
H401 C410 0.929 . S
C402 H396 0.930 . S
C402 C403 1.367 . S
C402 C410 1.378 . S
C403 C402 1.367 . S
C403 C411 1.433 . S
C404 H400 0.929 . S
C404 C406 1.378 . S
C404 C408 1.350 . S
C405 C408 1.463 . S
C405 C410 1.350 . S
C405 N413 1.427 . S
C406 H397 0.930 1_545 S
C406 C404 1.378 . S
C406 C407 1.367 . S
C407 C406 1.367 . S
C407 C409 1.433 . S
C408 C404 1.350 . S
C408 C405 1.463 . S
C408 N412 1.427 . S
C409 H399 0.929 . S
C409 C407 1.433 . S
C409 N412 1.384 . S
C410 H401 0.929 . S
C410 C402 1.378 . S
C410 C405 1.350 . S
C411 H398 0.929 . S
C411 C403 1.433 . S
C411 N413 1.384 . S
N412 C408 1.427 . S
N412 C409 1.384 . S
N413 C405 1.427 . S
N413 C411 1.384 . S
H414 C420 0.930 1_655 S
H415 C424 0.930 . S
H416 C429 0.929 . S
H417 C427 0.929 . S
H418 C422 0.929 1_554 S
H419 C428 0.929 1_655 S
C420 H414 0.930 1_455 S
C420 C421 1.367 . S
C420 C428 1.378 . S
C421 C420 1.367 . S
C421 C429 1.433 . S
C422 H418 0.929 1_556 S
C422 C424 1.378 . S
C422 C426 1.350 . S
C423 C426 1.463 1_554 S
C423 C428 1.350 . S
C423 N431 1.427 . S
C424 H415 0.930 . S
C424 C422 1.378 . S
C424 C425 1.367 . S
C425 C424 1.367 . S
C425 C427 1.433 . S
C426 C422 1.350 . S
C426 C423 1.463 1_556 S
C426 N430 1.427 . S
C427 H417 0.929 . S
C427 C425 1.433 . S
C427 N430 1.384 . S
C428 H419 0.929 1_455 S
C428 C420 1.378 . S
C428 C423 1.350 . S
C429 H416 0.929 . S
C429 C421 1.433 . S
C429 N431 1.384 . S
N430 C426 1.427 . S
N430 C427 1.384 . S
N431 C423 1.427 . S
N431 C429 1.384 . S
H432 C438 0.930 . S
H433 C442 0.930 . S
H434 C447 0.929 . S
H435 C445 0.929 . S
H436 C440 0.929 . S
H437 C446 0.929 . S
C438 H432 0.930 . S
C438 C439 1.367 1_565 S
C438 C446 1.378 . S
C439 C438 1.367 1_545 S
C439 C447 1.433 . S
C440 H436 0.929 . S
C440 C442 1.378 . S
C440 C444 1.350 . S
C441 C444 1.463 . S
C441 C446 1.350 1_545 S
C441 N449 1.427 . S
C442 H433 0.930 . S
C442 C440 1.378 . S
C442 C443 1.367 . S
C443 C442 1.367 . S
C443 C445 1.433 1_545 S
C444 C440 1.350 . S
C444 C441 1.463 . S
C444 N448 1.427 1_545 S
C445 H435 0.929 . S
C445 C443 1.433 1_565 S
C445 N448 1.384 . S
C446 H437 0.929 . S
C446 C438 1.378 . S
C446 C441 1.350 1_565 S
C447 H434 0.929 . S
C447 C439 1.433 . S
C447 N449 1.384 . S
N448 C444 1.427 1_565 S
N448 C445 1.384 . S
N449 C441 1.427 . S
N449 C447 1.384 . S
H450 C456 0.930 . S
H451 C460 0.930 . S
H452 C465 0.929 . S
H453 C463 0.929 . S
H454 C458 0.929 . S
H455 C464 0.929 . S
C456 H450 0.930 . S
C456 C457 1.367 . S
C456 C464 1.378 . S
C457 C456 1.367 . S
C457 C465 1.433 . S
C458 H454 0.929 . S
C458 C460 1.378 . S
C458 C462 1.350 . S
C459 C462 1.463 . S
C459 C464 1.350 . S
C459 N467 1.427 . S
C460 H451 0.930 . S
C460 C458 1.378 . S
C460 C461 1.367 . S
C461 C460 1.367 . S
C461 C463 1.433 . S
C462 C458 1.350 . S
C462 C459 1.463 . S
C462 N466 1.427 . S
C463 H453 0.929 . S
C463 C461 1.433 . S
C463 N466 1.384 . S
C464 H455 0.929 . S
C464 C456 1.378 . S
C464 C459 1.350 . S
C465 H452 0.929 . S
C465 C457 1.433 . S
C465 N467 1.384 . S
N466 C462 1.427 . S
N466 C463 1.384 . S
N467 C459 1.427 . S
N467 C465 1.384 . S
H468 C474 0.930 . S
H469 C478 0.930 . S
H470 C483 0.929 . S
H471 C481 0.929 . S
H472 C476 0.929 . S
H473 C482 0.929 . S
C474 H468 0.930 . S
C474 C475 1.367 . S
C474 C482 1.378 . S
C475 C474 1.367 . S
C475 C483 1.433 1_545 S
C476 H472 0.929 . S
C476 C478 1.378 . S
C476 C480 1.350 1_565 S
C477 C480 1.463 . S
C477 C482 1.350 . S
C477 N485 1.427 1_545 S
C478 H469 0.930 . S
C478 C476 1.378 . S
C478 C479 1.367 1_565 S
C479 C478 1.367 1_545 S
C479 C481 1.433 . S
C480 C476 1.350 1_545 S
C480 C477 1.463 . S
C480 N484 1.427 . S
C481 H471 0.929 . S
C481 C479 1.433 . S
C481 N484 1.384 . S
C482 H473 0.929 . S
C482 C474 1.378 . S
C482 C477 1.350 . S
C483 H470 0.929 . S
C483 C475 1.433 1_565 S
C483 N485 1.384 . S
N484 C480 1.427 . S
N484 C481 1.384 . S
N485 C477 1.427 1_565 S
N485 C483 1.384 . S
H486 C492 0.930 . S
H487 C496 0.930 . S
H488 C501 0.929 . S
H489 C499 0.929 . S
H490 C494 0.929 . S
H491 C500 0.929 . S
C492 H486 0.930 . S
C492 C493 1.367 . S
C492 C500 1.378 . S
C493 C492 1.367 . S
C493 C501 1.433 . S
C494 H490 0.929 . S
C494 C496 1.378 . S
C494 C498 1.350 . S
C495 C498 1.463 1_556 S
C495 C500 1.350 . S
C495 N503 1.427 . S
C496 H487 0.930 . S
C496 C494 1.378 . S
C496 C497 1.367 . S
C497 C496 1.367 . S
C497 C499 1.433 . S
C498 C494 1.350 . S
C498 C495 1.463 1_554 S
C498 N502 1.427 . S
C499 H489 0.929 . S
C499 C497 1.433 . S
C499 N502 1.384 . S
C500 H491 0.929 . S
C500 C492 1.378 . S
C500 C495 1.350 . S
C501 H488 0.929 . S
C501 C493 1.433 . S
C501 N503 1.384 . S
N502 C498 1.427 . S
N502 C499 1.384 . S
N503 C495 1.427 . S
N503 C501 1.384 . S
H504 C510 0.931 1_455 S
H505 C514 0.930 . S
H506 C519 0.929 . S
H507 C517 0.929 . S
H508 C512 0.929 . S
H509 C518 0.931 1_455 S
C510 H504 0.931 1_655 S
C510 C511 1.367 . S
C510 C518 1.378 . S
C511 C510 1.367 . S
C511 C519 1.433 . S
C512 H508 0.929 . S
C512 C514 1.378 . S
C512 C516 1.350 . S
C513 C516 1.463 . S
C513 C518 1.348 . S
C513 N521 1.427 . S
C514 H505 0.930 . S
C514 C512 1.378 . S
C514 C515 1.368 1_655 S
C515 C514 1.368 1_455 S
C515 C517 1.432 . S
C516 C512 1.350 . S
C516 C513 1.463 . S
C516 N520 1.427 1_655 S
C517 H507 0.929 . S
C517 C515 1.432 . S
C517 N520 1.384 . S
C518 H509 0.931 1_655 S
C518 C510 1.378 . S
C518 C513 1.348 . S
C519 H506 0.929 . S
C519 C511 1.433 . S
C519 N521 1.384 . S
N520 C516 1.427 1_455 S
N520 C517 1.384 . S
N521 C513 1.427 . S
N521 C519 1.384 . S
C205 C10 2.840 . S
C209 N187 2.795 . S
C223 C55 1.090 . S
C227 N160 1.088 . S
C241 C90 1.812 . S
C245 N173 1.825 1_565 S
C259 C19 3.232 . S
C263 N186 3.277 . S
C281 N161 1.426 . S
C277 C46 1.397 . S
C299 N174 2.018 . S
C295 C99 2.009 . S
C313 C50 1.811 . S
C317 N134 1.809 . S
C331 C95 0.383 . S
C335 N148 0.302 . S
C349 C6 1.340 . S
C353 N122 1.367 . S
C371 N135 1.987 . S
C367 C59 1.988 . S
C389 N147 0.745 . S
C385 C86 0.750 . S
C403 C15 1.192 . S
C407 N121 1.185 . S
C425 N151 1.271 . S
C421 C18 1.271 . S
C439 C49 1.460 . S
C443 N125 1.542 . S
C457 C98 1.433 . S
C461 N138 1.473 . S
C479 N177 1.484 . S
C475 C58 1.464 . S
C497 N190 1.734 . S
C493 C89 1.721 . S
C511 C9 1.488 . S
C515 N164 1.589 . S
