# Generated by pormake.
# Topology ssa, (4,4)-cn, num edge types: 1
# Building blocks:
#     Node 0, Type 0, BuildingBlock: ESEHIV_clean_sbu_0, # of connection points: 4
#     Node 1, Type 0, BuildingBlock: ESEHIV_clean_sbu_0, # of connection points: 4
#     Node 2, Type 0, BuildingBlock: ESEHIV_clean_sbu_0, # of connection points: 4
#     Node 3, Type 0, BuildingBlock: ESEHIV_clean_sbu_0, # of connection points: 4
#     Node 4, Type 0, BuildingBlock: ESEHIV_clean_sbu_0, # of connection points: 4
#     Node 5, Type 0, BuildingBlock: ESEHIV_clean_sbu_0, # of connection points: 4
#     Node 6, Type 1, BuildingBlock: NAWXER_clean_linker_0, # of connection points: 4
#     Node 7, Type 1, BuildingBlock: NAWXER_clean_linker_0, # of connection points: 4
#     Node 8, Type 1, BuildingBlock: NAWXER_clean_linker_0, # of connection points: 4
#     Node 9, Type 1, BuildingBlock: NAWXER_clean_linker_0, # of connection points: 4
#     Node 10, Type 1, BuildingBlock: NAWXER_clean_linker_0, # of connection points: 4
#     Node 11, Type 1, BuildingBlock: NAWXER_clean_linker_0, # of connection points: 4
#     Edge 12, Type (0, 1), BuildingBlock: XIVTED_clean_linker_0, # of connection points: 2
#     Edge 13, Type (0, 1), BuildingBlock: XIVTED_clean_linker_0, # of connection points: 2
#     Edge 14, Type (0, 1), BuildingBlock: XIVTED_clean_linker_0, # of connection points: 2
#     Edge 15, Type (0, 1), BuildingBlock: XIVTED_clean_linker_0, # of connection points: 2
#     Edge 16, Type (0, 1), BuildingBlock: XIVTED_clean_linker_0, # of connection points: 2
#     Edge 17, Type (0, 1), BuildingBlock: XIVTED_clean_linker_0, # of connection points: 2
#     Edge 18, Type (0, 1), BuildingBlock: XIVTED_clean_linker_0, # of connection points: 2
#     Edge 19, Type (0, 1), BuildingBlock: XIVTED_clean_linker_0, # of connection points: 2
#     Edge 20, Type (0, 1), BuildingBlock: XIVTED_clean_linker_0, # of connection points: 2
#     Edge 21, Type (0, 1), BuildingBlock: XIVTED_clean_linker_0, # of connection points: 2
#     Edge 22, Type (0, 1), BuildingBlock: XIVTED_clean_linker_0, # of connection points: 2
#     Edge 23, Type (0, 1), BuildingBlock: XIVTED_clean_linker_0, # of connection points: 2
#     Edge 24, Type (0, 1), BuildingBlock: XIVTED_clean_linker_0, # of connection points: 2
#     Edge 25, Type (0, 1), BuildingBlock: XIVTED_clean_linker_0, # of connection points: 2
#     Edge 26, Type (0, 1), BuildingBlock: XIVTED_clean_linker_0, # of connection points: 2
#     Edge 27, Type (0, 1), BuildingBlock: XIVTED_clean_linker_0, # of connection points: 2
#     Edge 28, Type (0, 1), BuildingBlock: XIVTED_clean_linker_0, # of connection points: 2
#     Edge 29, Type (0, 1), BuildingBlock: XIVTED_clean_linker_0, # of connection points: 2
#     Edge 30, Type (0, 1), BuildingBlock: XIVTED_clean_linker_0, # of connection points: 2
#     Edge 31, Type (0, 1), BuildingBlock: XIVTED_clean_linker_0, # of connection points: 2
#     Edge 32, Type (0, 1), BuildingBlock: XIVTED_clean_linker_0, # of connection points: 2
#     Edge 33, Type (0, 1), BuildingBlock: XIVTED_clean_linker_0, # of connection points: 2
#     Edge 34, Type (0, 1), BuildingBlock: XIVTED_clean_linker_0, # of connection points: 2
#     Edge 35, Type (0, 1), BuildingBlock: XIVTED_clean_linker_0, # of connection points: 2
# Relax obj value: 0.009
# Max RMSD: 0.106
# Mean RMSD: 0.056
data_MOF--net-ssa--node1-ESEHIV_clean_sbu_0--node2-NAWXER_clean_linker_0--edge1-XIVTED_clean_linker_0
_symmetry_space_group_name_H-M    P1
_symmetry_Int_Tables_number       1
_symmetry_cell_setting            triclinic
loop_
_symmetry_equiv_pos_as_xyz
'x, y, z'
_cell_length_a     58.446542
_cell_length_b     62.378817
_cell_length_c     42.262239
_cell_angle_alpha  88.524835
_cell_angle_beta   90.944869
_cell_angle_gamma 122.10425
loop_
_atom_site_label
_atom_site_type_symbol
_atom_site_fract_x
_atom_site_fract_y
_atom_site_fract_z
_atom_type_partial_charge
Cu0 Cu 0.99087 0.50405 0.03129 0.0
N1 N 0.96636 0.46931 0.03006 0.0
N2 N 0.93687 0.43173 0.00945 0.0
C3 C 0.95474 0.45653 0.00347 0.0
C4 C 0.93727 0.42884 0.04122 0.0
C5 C 0.95558 0.45212 0.05389 0.0
O6 O 0.98555 0.51756 0.99175 0.0
C7 C 0.03487 0.49596 0.03543 0.0
O8 O 0.01892 0.47489 0.02033 0.0
H9 H 0.95882 0.46549 0.98024 0.0
H10 H 0.96044 0.45629 0.07866 0.0
N11 N 0.98271 0.51767 0.0647 0.0
N12 N 0.9914 0.54321 0.10513 0.0
C13 C 1.00002 0.53089 0.08811 0.0
C14 C 0.96216 0.52141 0.06719 0.0
C15 C 0.96761 0.53742 0.09207 0.0
C16 C 0.98747 0.53883 0.98876 0.0
O17 O 0.99873 0.55529 0.01154 0.0
H18 H 0.01969 0.53326 0.09085 0.0
H19 H 0.94551 0.5146 0.05063 0.0
O20 O 0.02728 0.51142 0.03951 0.0
H21 H 0.92524 0.41122 0.05437 0.0
H22 H 0.9558 0.54525 0.09895 0.0
Cu23 Cu 0.53324 0.01028 0.48668 0.0
N24 N 0.55394 0.00951 0.45388 0.0
N25 N 0.56864 0.99316 0.41903 0.0
C26 C 0.55242 0.98843 0.44402 0.0
C27 C 0.58088 0.01824 0.41291 0.0
C28 C 0.57188 0.02831 0.43457 0.0
O29 O 0.49628 0.98293 0.47916 0.0
C30 C 0.57216 0.01573 0.53137 0.0
O31 O 0.58689 0.0201 0.50609 0.0
H32 H 0.53915 0.96986 0.45457 0.0
H33 H 0.57798 0.04793 0.43606 0.0
N34 N 0.53374 0.04046 0.48749 0.0
N35 N 0.52908 0.07056 0.50834 0.0
C36 C 0.52845 0.04883 0.51373 0.0
C37 C 0.53784 0.05744 0.46447 0.0
C38 C 0.53498 0.07605 0.47727 0.0
C39 C 0.48647 0.98476 0.45284 0.0
O40 O 0.50155 0.00451 0.43432 0.0
H41 H 0.52354 0.03864 0.53617 0.0
H42 H 0.54213 0.05622 0.44003 0.0
O43 O 0.54734 0.00828 0.52795 0.0
H44 H 0.59545 0.02857 0.3943 0.0
H45 H 0.53712 0.0923 0.4646 0.0
Cu46 Cu 0.51145 0.48911 0.01952 0.0
N47 N 0.51177 0.45937 0.01854 0.0
N48 N 0.50974 0.42603 0.99679 0.0
C49 C 0.50622 0.44561 0.99232 0.0
C50 C 0.5177 0.42751 0.0273 0.0
C51 C 0.51904 0.44817 0.04062 0.0
O52 O 0.5222 0.50342 0.97709 0.0
C53 C 0.46909 0.47254 0.05999 0.0
O54 O 0.48467 0.4669 0.07612 0.0
H55 H 0.49992 0.45016 0.97027 0.0
H56 H 0.52545 0.45486 0.06443 0.0
N57 N 0.53587 0.51212 0.04884 0.0
N58 N 0.55474 0.54616 0.07936 0.0
C59 C 0.53369 0.53078 0.06056 0.0
C60 C 0.55897 0.51547 0.06096 0.0
C61 C 0.57064 0.53649 0.07999 0.0
C62 C 0.53986 0.52648 0.97067 0.0
O63 O 0.5474 0.54346 0.99269 0.0
H64 H 0.51718 0.53333 0.05467 0.0
H65 H 0.56711 0.50394 0.05562 0.0
O66 O 0.47614 0.48172 0.03206 0.0
H67 H 0.523 0.41507 0.03895 0.0
H68 H 0.58982 0.5446 0.09222 0.0
Cu69 Cu 0.00899 0.49264 0.54864 0.0
N70 N 0.0375 0.48789 0.5424 0.0
N71 N 0.0703 0.48793 0.51607 0.0
C72 C 0.05049 0.49286 0.51468 0.0
C73 C 0.06976 0.47941 0.5459 0.0
C74 C 0.04957 0.47962 0.56226 0.0
O75 O 0.01447 0.51864 0.5174 0.0
C76 C 0.97136 0.43934 0.5499 0.0
O77 O 0.9928 0.43794 0.54651 0.0
H78 H 0.04523 0.49967 0.4937 0.0
H79 H 0.04398 0.47403 0.58674 0.0
N80 N 0.00988 0.50483 0.58869 0.0
N81 N 0.99426 0.51587 0.62885 0.0
C82 C 0.98845 0.50411 0.60094 0.0
C83 C 0.03007 0.51724 0.60979 0.0
C84 C 0.02049 0.52436 0.63458 0.0
C85 C 0.0358 0.54019 0.52225 0.0
O86 O 0.0505 0.54278 0.54738 0.0
H87 H 0.9692 0.49604 0.58885 0.0
H88 H 0.05044 0.52152 0.60686 0.0
O89 O 0.9738 0.46087 0.54726 0.0
H90 H 0.08318 0.47377 0.55528 0.0
H91 H 0.03191 0.53515 0.65493 0.0
Cu92 Cu 0.46218 0.97015 0.99831 0.0
N93 N 0.4375 0.96902 0.96894 0.0
N94 N 0.42047 0.98491 0.93491 0.0
C95 C 0.4377 0.98975 0.95914 0.0
C96 C 0.40894 0.96006 0.92908 0.0
C97 C 0.41944 0.95022 0.95034 0.0
O98 O 0.49704 1.00067 0.98785 0.0
C99 C 0.42773 0.96677 0.04833 0.0
O100 O 0.41551 0.97245 0.02643 0.0
H101 H 0.45146 0.00837 0.96848 0.0
H102 H 0.41506 0.93105 0.95127 0.0
N103 N 0.46598 0.94249 0.99501 0.0
N104 N 0.47705 0.91483 0.01096 0.0
C105 C 0.47289 0.93308 0.01969 0.0
C106 C 0.46546 0.92954 0.96968 0.0
C107 C 0.47254 0.91252 0.97949 0.0
C108 C 0.5045 0.00125 0.95947 0.0
O109 O 0.48865 0.98216 0.9412 0.0
H110 H 0.47597 0.9403 0.04342 0.0
H111 H 0.46095 0.93264 0.94571 0.0
O112 O 0.44936 0.96764 0.04145 0.0
H113 H 0.39455 0.94994 0.91035 0.0
H114 H 0.47449 0.89967 0.96468 0.0
Cu115 Cu 0.52616 0.50574 0.49076 0.0
N116 N 0.55091 0.52865 0.46132 0.0
N117 N 0.57007 0.56183 0.42786 0.0
C118 C 0.54827 0.54621 0.44571 0.0
C119 C 0.58719 0.55369 0.43239 0.0
C120 C 0.57522 0.53308 0.45307 0.0
O121 O 0.49059 0.4981 0.47741 0.0
C122 C 0.55753 0.54073 0.53918 0.0
O123 O 0.56712 0.55806 0.51648 0.0
H124 H 0.53118 0.54821 0.44869 0.0
H125 H 0.5839 0.52256 0.46215 0.0
N126 N 0.52619 0.47603 0.4911 0.0
N127 N 0.52554 0.4424 0.5116 0.0
C128 C 0.52514 0.46329 0.51768 0.0
C129 C 0.52728 0.46284 0.46712 0.0
C130 C 0.52678 0.44193 0.47975 0.0
C131 C 0.4817 0.5126 0.48094 0.0
O132 O 0.49565 0.53296 0.49802 0.0
H133 H 0.52356 0.46907 0.54105 0.0
H134 H 0.52837 0.46807 0.44234 0.0
O135 O 0.53757 0.51862 0.53336 0.0
H136 H 0.60701 0.56217 0.42192 0.0
H137 H 0.52749 0.42766 0.46653 0.0
C138 C 0.34303 0.50765 0.20289 0.0
C139 C 0.33277 0.48859 0.18019 0.0
C140 C 0.32556 0.51108 0.22119 0.0
C141 C 0.29742 0.49503 0.21783 0.0
C142 C 0.30469 0.47306 0.17611 0.0
C143 C 0.2872 0.47623 0.19477 0.0
C144 C 0.27842 0.49851 0.23664 0.0
C145 C 0.32538 0.48395 0.31247 0.0
C146 C 0.34098 0.50462 0.33247 0.0
C147 C 0.30667 0.48388 0.29121 0.0
C148 C 0.30313 0.50446 0.28946 0.0
C149 C 0.33759 0.52534 0.33016 0.0
C150 C 0.31871 0.52511 0.30919 0.0
C151 C 0.28171 0.50379 0.26936 0.0
C152 C 0.17663 0.48494 0.31083 0.0
C153 C 0.18544 0.50378 0.33368 0.0
C154 C 0.19456 0.48635 0.28814 0.0
C155 C 0.22165 0.50653 0.28807 0.0
C156 C 0.21223 0.52453 0.33262 0.0
C157 C 0.23023 0.52574 0.31023 0.0
C158 C 0.24188 0.50562 0.26858 0.0
C159 C 0.19391 0.52109 0.1972 0.0
C160 C 0.17882 0.5016 0.17549 0.0
C161 C 0.21282 0.5205 0.21739 0.0
C162 C 0.21727 0.50051 0.21629 0.0
C163 C 0.18321 0.48148 0.17476 0.0
C164 C 0.2024 0.48111 0.19466 0.0
C165 C 0.23873 0.50071 0.23586 0.0
H166 H 0.36462 0.52021 0.20608 0.0
H167 H 0.33415 0.52654 0.2376 0.0
H168 H 0.29624 0.45819 0.15884 0.0
H169 H 0.26561 0.46381 0.19134 0.0
H170 H 0.32701 0.46746 0.31383 0.0
H171 H 0.29443 0.46745 0.27677 0.0
H172 H 0.34952 0.54184 0.34456 0.0
H173 H 0.31624 0.54115 0.30837 0.0
H174 H 0.15605 0.4688 0.31102 0.0
H175 H 0.18761 0.47099 0.27176 0.0
H176 H 0.21964 0.5392 0.35011 0.0
H177 H 0.25112 0.5413 0.31087 0.0
H178 H 0.19166 0.5372 0.19814 0.0
H179 H 0.22454 0.53609 0.23322 0.0
H180 H 0.17175 0.46586 0.15892 0.0
H181 H 0.20555 0.46554 0.19325 0.0
N182 N 0.25703 0.49719 0.22127 0.0
N183 N 0.26331 0.50714 0.28389 0.0
C184 C 0.82772 0.2992 0.82258 0.0
C185 C 0.81766 0.30856 0.8448 0.0
C186 C 0.81021 0.28036 0.80165 0.0
C187 C 0.78235 0.27075 0.80224 0.0
C188 C 0.78987 0.29934 0.84479 0.0
C189 C 0.77241 0.28056 0.82385 0.0
C190 C 0.76311 0.24833 0.78366 0.0
C191 C 0.81243 0.30918 0.71011 0.0
C192 C 0.82547 0.30315 0.68744 0.0
C193 C 0.79368 0.29062 0.73119 0.0
C194 C 0.78786 0.26565 0.73058 0.0
C195 C 0.81925 0.27805 0.68664 0.0
C196 C 0.80074 0.25961 0.70788 0.0
C197 C 0.76689 0.24518 0.75145 0.0
C198 C 0.66832 0.14677 0.7159 0.0
C199 C 0.68003 0.13457 0.7019 0.0
C200 C 0.68403 0.16849 0.7338 0.0
C201 C 0.71179 0.17859 0.73779 0.0
C202 C 0.70774 0.1444 0.70701 0.0
C203 C 0.72349 0.16636 0.72435 0.0
C204 C 0.72907 0.20252 0.75459 0.0
C205 C 0.68046 0.14256 0.82835 0.0
C206 C 0.66282 0.14677 0.84556 0.0
C207 C 0.70052 0.1617 0.80912 0.0
C208 C 0.70333 0.18547 0.80644 0.0
C209 C 0.66619 0.17084 0.84354 0.0
C210 C 0.68634 0.19002 0.8243 0.0
C211 C 0.72472 0.20596 0.78629 0.0
H212 H 0.84896 0.30563 0.82227 0.0
H213 H 0.81834 0.27257 0.78598 0.0
H214 H 0.78153 0.30639 0.8613 0.0
H215 H 0.75097 0.2733 0.82495 0.0
H216 H 0.81673 0.32827 0.71169 0.0
H217 H 0.78342 0.29577 0.74756 0.0
H218 H 0.82831 0.27242 0.66917 0.0
H219 H 0.79638 0.24047 0.70641 0.0
H220 H 0.64721 0.14012 0.71217 0.0
H221 H 0.67469 0.17785 0.74372 0.0
H222 H 0.71745 0.1353 0.69737 0.0
H223 H 0.74487 0.1738 0.72734 0.0
H224 H 0.67895 0.1245 0.82992 0.0
H225 H 0.71402 0.15796 0.79661 0.0
H226 H 0.6529 0.17473 0.85627 0.0
H227 H 0.68836 0.20832 0.82295 0.0
N228 N 0.74196 0.22871 0.79956 0.0
N229 N 0.74982 0.22223 0.73843 0.0
C230 C 0.60196 0.7174 0.19902 0.0
C231 C 0.5802 0.70143 0.1791 0.0
C232 C 0.60334 0.73814 0.21302 0.0
C233 C 0.58287 0.74324 0.20762 0.0
C234 C 0.55999 0.70688 0.17336 0.0
C235 C 0.56141 0.72763 0.18731 0.0
C236 C 0.58353 0.76465 0.22316 0.0
C237 C 0.56526 0.70682 0.29709 0.0
C238 C 0.58736 0.71264 0.31676 0.0
C239 C 0.56558 0.72544 0.27797 0.0
C240 C 0.58815 0.75025 0.27769 0.0
C241 C 0.6098 0.73767 0.31703 0.0
C242 C 0.61008 0.75644 0.29777 0.0
C243 C 0.58844 0.76921 0.25584 0.0
C244 C 0.56087 0.848 0.27831 0.0
C245 C 0.58185 0.86381 0.29913 0.0
C246 C 0.56135 0.82882 0.2625 0.0
C247 C 0.58327 0.82555 0.26635 0.0
C248 C 0.60337 0.86007 0.30373 0.0
C249 C 0.60408 0.84116 0.28748 0.0
C250 C 0.58395 0.80499 0.25021 0.0
C251 C 0.57689 0.85149 0.17008 0.0
C252 C 0.55125 0.83765 0.1558 0.0
C253 C 0.58574 0.83934 0.19059 0.0
C254 C 0.56915 0.8132 0.19661 0.0
C255 C 0.53485 0.81151 0.16183 0.0
C256 C 0.54385 0.79936 0.18177 0.0
C257 C 0.57777 0.79961 0.21772 0.0
H258 H 0.61813 0.71407 0.2035 0.0
H259 H 0.62046 0.75025 0.22799 0.0
H260 H 0.54275 0.69484 0.15852 0.0
H261 H 0.54537 0.73115 0.18278 0.0
H262 H 0.54782 0.68769 0.29597 0.0
H263 H 0.54826 0.72037 0.26297 0.0
H264 H 0.627 0.74271 0.33218 0.0
H265 H 0.62757 0.77558 0.298 0.0
H266 H 0.54372 0.85007 0.27487 0.0
H267 H 0.54428 0.8163 0.24775 0.0
H268 H 0.61981 0.87196 0.31967 0.0
H269 H 0.62098 0.83878 0.29132 0.0
H270 H 0.58983 0.87169 0.16573 0.0
H271 H 0.60546 0.85024 0.20161 0.0
H272 H 0.51513 0.80043 0.15083 0.0
H273 H 0.53086 0.77914 0.18602 0.0
N274 N 0.57793 0.77977 0.20549 0.0
N275 N 0.58893 0.78941 0.26809 0.0
C276 C 0.86841 0.57186 0.73884 0.0
C277 C 0.862 0.55285 0.7169 0.0
C278 C 0.84821 0.57492 0.75089 0.0
C279 C 0.82114 0.55866 0.74176 0.0
C280 C 0.83516 0.53791 0.70608 0.0
C281 C 0.81495 0.5408 0.71839 0.0
C282 C 0.79896 0.55892 0.75782 0.0
C283 C 0.83997 0.5346 0.82625 0.0
C284 C 0.85402 0.55208 0.85041 0.0
C285 C 0.82052 0.53577 0.80794 0.0
C286 C 0.81511 0.55487 0.81266 0.0
C287 C 0.84754 0.57043 0.85609 0.0
C288 C 0.82826 0.57176 0.83744 0.0
C289 C 0.79641 0.55767 0.79119 0.0
C290 C 0.68329 0.53453 0.80622 0.0
C291 C 0.68641 0.55055 0.83095 0.0
C292 C 0.7058 0.53662 0.79206 0.0
C293 C 0.73202 0.55524 0.80164 0.0
C294 C 0.71272 0.56872 0.84114 0.0
C295 C 0.73529 0.57098 0.82666 0.0
C296 C 0.75592 0.55805 0.78582 0.0
C297 C 0.71123 0.57758 0.71595 0.0
C298 C 0.69782 0.55898 0.69286 0.0
C299 C 0.73153 0.57825 0.73476 0.0
C300 C 0.73879 0.56031 0.73089 0.0
C301 C 0.70581 0.5416 0.68835 0.0
C302 C 0.72623 0.54239 0.70701 0.0
C303 C 0.75855 0.5594 0.75248 0.0
H304 H 0.88882 0.58374 0.74769 0.0
H305 H 0.85357 0.5893 0.76831 0.0
H306 H 0.82962 0.52359 0.68851 0.0
H307 H 0.79427 0.52833 0.71062 0.0
H308 H 0.84441 0.52032 0.82085 0.0
H309 H 0.81017 0.52209 0.78948 0.0
H310 H 0.85737 0.58383 0.87494 0.0
H311 H 0.82413 0.58642 0.84185 0.0
H312 H 0.66343 0.52044 0.79754 0.0
H313 H 0.70267 0.52368 0.77347 0.0
H314 H 0.71591 0.581 0.86059 0.0
H315 H 0.75532 0.58522 0.83476 0.0
H316 H 0.70555 0.59121 0.72006 0.0
H317 H 0.74122 0.59249 0.75274 0.0
H318 H 0.69622 0.52734 0.67039 0.0
H319 H 0.73162 0.52848 0.70347 0.0
N320 N 0.77982 0.55951 0.73974 0.0
N321 N 0.77508 0.55749 0.80394 0.0
C322 C 0.15233 0.68364 0.24456 0.0
C323 C 0.13329 0.68745 0.22882 0.0
C324 C 0.17437 0.70345 0.26026 0.0
C325 C 0.17802 0.72755 0.26031 0.0
C326 C 0.13741 0.71186 0.2285 0.0
C327 C 0.15974 0.73178 0.24381 0.0
C328 C 0.20051 0.74812 0.27827 0.0
C329 C 0.13741 0.69401 0.34807 0.0
C330 C 0.14669 0.68364 0.37097 0.0
C331 C 0.15573 0.71436 0.32866 0.0
C332 C 0.18367 0.72428 0.33116 0.0
C333 C 0.17461 0.69375 0.37367 0.0
C334 C 0.19287 0.71383 0.35401 0.0
C335 C 0.2036 0.74618 0.31126 0.0
C336 C 0.2961 0.85089 0.34177 0.0
C337 C 0.31195 0.84534 0.36161 0.0
C338 C 0.27416 0.83174 0.32515 0.0
C339 C 0.26766 0.80664 0.32793 0.0
C340 C 0.30475 0.82 0.3652 0.0
C341 C 0.28269 0.80083 0.34866 0.0
C342 C 0.24507 0.78636 0.30959 0.0
C343 C 0.31002 0.83711 0.24006 0.0
C344 C 0.30242 0.84843 0.21634 0.0
C345 C 0.29059 0.81756 0.25948 0.0
C346 C 0.2631 0.80919 0.25625 0.0
C347 C 0.27479 0.83964 0.21277 0.0
C348 C 0.2554 0.82024 0.23243 0.0
C349 C 0.24219 0.78814 0.27645 0.0
H350 H 0.15038 0.66539 0.24464 0.0
H351 H 0.18854 0.69995 0.2725 0.0
H352 H 0.12311 0.71554 0.217 0.0
H353 H 0.16229 0.7503 0.24364 0.0
H354 H 0.11606 0.68691 0.34585 0.0
H355 H 0.14804 0.72262 0.31218 0.0
H356 H 0.18236 0.68606 0.39101 0.0
H357 H 0.21426 0.72119 0.35663 0.0
H358 H 0.30065 0.87008 0.33903 0.0
H359 H 0.26235 0.83655 0.30998 0.0
H360 H 0.3166 0.81505 0.38005 0.0
H361 H 0.27784 0.78153 0.35136 0.0
H362 H 0.33103 0.84337 0.24375 0.0
H363 H 0.29714 0.80883 0.27684 0.0
H364 H 0.268 0.84741 0.19436 0.0
H365 H 0.23432 0.81388 0.22904 0.0
N366 N 0.21981 0.76899 0.26214 0.0
N367 N 0.22585 0.76539 0.32558 0.0
C368 C 0.43805 0.13554 0.78447 0.0
C369 C 0.45073 0.13587 0.81315 0.0
C370 C 0.44578 0.1581 0.76805 0.0
C371 C 0.46661 0.18142 0.77972 0.0
C372 C 0.47151 0.15924 0.82485 0.0
C373 C 0.47927 0.18178 0.80837 0.0
C374 C 0.47387 0.20551 0.76342 0.0
C375 C 0.49997 0.16887 0.6944 0.0
C376 C 0.48661 0.16278 0.66493 0.0
C377 C 0.49596 0.18313 0.71607 0.0
C378 C 0.47839 0.19151 0.70889 0.0
C379 C 0.46873 0.17091 0.65802 0.0
C380 C 0.46483 0.18527 0.67967 0.0
C381 C 0.4763 0.20892 0.73024 0.0
C382 C 0.51224 0.3153 0.7001 0.0
C383 C 0.49419 0.31098 0.67502 0.0
C384 C 0.50731 0.29556 0.7211 0.0
C385 C 0.48421 0.27131 0.71738 0.0
C386 C 0.47046 0.28696 0.67249 0.0
C387 C 0.46565 0.26732 0.6933 0.0
C388 C 0.48097 0.24913 0.73489 0.0
C389 C 0.4725 0.29614 0.80867 0.0
C390 C 0.48926 0.30151 0.83541 0.0
C391 C 0.46981 0.27863 0.78643 0.0
C392 C 0.48417 0.26643 0.79023 0.0
C393 C 0.50356 0.28925 0.83908 0.0
C394 C 0.50096 0.27189 0.81685 0.0
C395 C 0.48065 0.24666 0.76825 0.0
H396 H 0.42167 0.1179 0.77514 0.0
H397 H 0.43498 0.15731 0.7466 0.0
H398 H 0.48187 0.1601 0.84671 0.0
H399 H 0.49522 0.19954 0.81798 0.0
H400 H 0.5143 0.16342 0.70034 0.0
H401 H 0.50738 0.18835 0.73798 0.0
H402 H 0.4578 0.1663 0.63579 0.0
H403 H 0.45134 0.19169 0.67346 0.0
H404 H 0.53078 0.33356 0.70256 0.0
H405 H 0.52216 0.2989 0.73917 0.0
H406 H 0.45587 0.28314 0.65391 0.0
H407 H 0.44775 0.24871 0.68998 0.0
H408 H 0.46087 0.30494 0.80537 0.0
H409 H 0.45597 0.27419 0.76679 0.0
H410 H 0.51691 0.29315 0.85913 0.0
H411 H 0.51215 0.26267 0.82048 0.0
N412 N 0.47674 0.22472 0.78113 0.0
N413 N 0.47915 0.23033 0.71733 0.0
H414 H 0.06094 0.47064 0.02725 0.0
H415 H 0.14632 0.52043 0.18642 0.0
H416 H 0.06365 0.52901 0.0829 0.0
H417 H 0.16539 0.48459 0.11419 0.0
H418 H 0.11401 0.52157 0.15027 0.0
H419 H 0.09742 0.47341 0.05992 0.0
C420 C 0.06939 0.48423 0.04609 0.0
C421 C 0.05915 0.49959 0.0523 0.0
C422 C 0.12537 0.51355 0.14232 0.0
C423 C 0.10056 0.50249 0.09019 0.0
C424 C 0.14399 0.51297 0.16294 0.0
C425 C 0.15883 0.50238 0.15359 0.0
C426 C 0.12112 0.50315 0.11213 0.0
C427 C 0.15419 0.49251 0.12291 0.0
C428 C 0.0902 0.48578 0.06475 0.0
C429 C 0.07091 0.51684 0.07711 0.0
N430 N 0.13568 0.49301 0.10343 0.0
N431 N 0.09073 0.5176 0.09534 0.0
H432 H 0.55129 0.02177 0.58603 0.0
H433 H 0.6971 0.12284 0.64855 0.0
H434 H 0.62471 0.0332 0.54646 0.0
H435 H 0.62598 0.09642 0.70576 0.0
H436 H 0.67042 0.08879 0.6122 0.0
H437 H 0.57727 0.04694 0.63158 0.0
C438 C 0.57273 0.02904 0.58723 0.0
C439 C 0.5859 0.02565 0.56212 0.0
C440 C 0.66066 0.09022 0.63288 0.0
C441 C 0.61574 0.05482 0.61385 0.0
C442 C 0.67598 0.10968 0.65391 0.0
C443 C 0.66393 0.11272 0.68053 0.0
C444 C 0.63284 0.07376 0.63794 0.0
C445 C 0.63616 0.09524 0.68534 0.0
C446 C 0.58756 0.04352 0.61319 0.0
C447 C 0.61373 0.03558 0.565 0.0
N448 N 0.6215 0.07669 0.66408 0.0
N449 N 0.62775 0.05001 0.59008 0.0
H450 H 0.53973 0.57771 0.05601 0.0
H451 H 0.59337 0.66839 0.2052 0.0
H452 H 0.58183 0.56758 0.134 0.0
H453 H 0.56309 0.6836 0.11918 0.0
H454 H 0.58897 0.63123 0.18063 0.0
H455 H 0.54719 0.61595 0.08007 0.0
C456 C 0.55042 0.58345 0.07836 0.0
C457 C 0.55992 0.56924 0.09319 0.0
C458 C 0.58338 0.64277 0.16714 0.0
C459 C 0.56883 0.6134 0.12089 0.0
C460 C 0.58601 0.66408 0.18108 0.0
C461 C 0.57845 0.67916 0.16433 0.0
C462 C 0.57303 0.63641 0.13626 0.0
C463 C 0.56868 0.67235 0.1333 0.0
C464 C 0.55487 0.60545 0.092 0.0
C465 C 0.57424 0.57801 0.12176 0.0
N466 N 0.56618 0.65149 0.12038 0.0
N467 N 0.57812 0.59946 0.13483 0.0
H468 H 0.94109 0.48299 0.638 0.0
H469 H 0.91582 0.58707 0.70383 0.0
H470 H 0.00642 0.55849 0.65928 0.0
H471 H 0.85586 0.50691 0.70661 0.0
H472 H 0.94934 0.5777 0.68663 0.0
H473 H 0.90942 0.49184 0.66229 0.0
C474 C 0.94872 0.50138 0.6481 0.0
C475 C 0.9763 0.52008 0.6466 0.0
C476 C 0.92885 0.5622 0.69115 0.0
C477 C 0.94023 0.53055 0.67408 0.0
C478 C 0.90969 0.56751 0.70101 0.0
C479 C 0.88282 0.54777 0.70639 0.0
C480 C 0.92106 0.53699 0.68643 0.0
C481 C 0.87609 0.52281 0.70202 0.0
C482 C 0.9307 0.50644 0.66199 0.0
C483 C 0.9853 0.54356 0.6602 0.0
N484 N 0.89501 0.51818 0.69215 0.0
N485 N 0.96724 0.54828 0.67306 0.0
H486 H 0.4389 0.93991 0.09162 0.0
H487 H 0.30367 0.89032 0.19131 0.0
H488 H 0.38323 0.96427 0.07286 0.0
H489 H 0.34853 0.85326 0.19224 0.0
H490 H 0.33645 0.92212 0.15415 0.0
H491 H 0.41038 0.91345 0.13563 0.0
C492 C 0.42097 0.9401 0.09709 0.0
C493 C 0.41338 0.95425 0.07831 0.0
C494 C 0.33917 0.90708 0.16265 0.0
C495 C 0.38047 0.92373 0.12857 0.0
C496 C 0.32033 0.88876 0.18374 0.0
C497 C 0.32306 0.86879 0.19491 0.0
C498 C 0.36111 0.90564 0.15269 0.0
C499 C 0.34559 0.86834 0.1847 0.0
C500 C 0.40457 0.9248 0.12209 0.0
C501 C 0.3898 0.95357 0.08652 0.0
N502 N 0.36363 0.88638 0.16415 0.0
N503 N 0.37412 0.93845 0.11089 0.0
H504 H 0.54156 0.45074 0.5731 0.0
H505 H 0.48707 0.3051 0.61103 0.0
H506 H 0.50593 0.39248 0.50301 0.0
H507 H 0.51639 0.36203 0.68269 0.0
H508 H 0.49658 0.33739 0.57071 0.0
H509 H 0.5355 0.41915 0.61288 0.0
C510 C 0.5324 0.43129 0.56604 0.0
C511 C 0.52393 0.42422 0.53466 0.0
C512 C 0.50095 0.34286 0.59523 0.0
C513 C 0.51719 0.38793 0.58018 0.0
C514 C 0.49535 0.32439 0.61834 0.0
C515 C 0.50061 0.3308 0.6504 0.0
C516 C 0.512 0.36803 0.6041 0.0
C517 C 0.51207 0.35625 0.65829 0.0
C518 C 0.52907 0.41327 0.58879 0.0
C519 C 0.51284 0.39882 0.52681 0.0
N520 N 0.51727 0.37392 0.6353 0.0
N521 N 0.50965 0.38157 0.54946 0.0
H522 H 0.5663 0.95143 0.4433 0.0
H523 H 0.57114 0.8988 0.27522 0.0
H524 H 0.57771 0.99343 0.35622 0.0
H525 H 0.59033 0.87411 0.36235 0.0
H526 H 0.56881 0.93106 0.30442 0.0
H527 H 0.57039 0.92022 0.41402 0.0
C528 C 0.56961 0.95402 0.418 0.0
C529 C 0.57166 0.97502 0.40214 0.0
C530 C 0.57364 0.91865 0.31711 0.0
C531 C 0.57622 0.93937 0.36847 0.0
C532 C 0.57482 0.90018 0.30051 0.0
C533 C 0.58095 0.88379 0.31641 0.0
C534 C 0.57815 0.92048 0.34995 0.0
C535 C 0.58576 0.8865 0.34915 0.0
C536 C 0.5721 0.93632 0.40134 0.0
C537 C 0.57625 0.97764 0.36937 0.0
N538 N 0.58405 0.90436 0.36489 0.0
N539 N 0.57815 0.95991 0.35356 0.0
H540 H 0.58351 0.57244 0.95183 0.0
H541 H 0.63783 0.50685 0.84397 0.0
H542 H 0.53574 0.494 0.92529 0.0
H543 H 0.67978 0.58794 0.85368 0.0
H544 H 0.59911 0.50251 0.87093 0.0
H545 H 0.61732 0.57953 0.91271 0.0
C546 C 0.57981 0.55683 0.93734 0.0
C547 C 0.55692 0.53249 0.94227 0.0
C548 C 0.61667 0.52129 0.86692 0.0
C549 C 0.59579 0.54039 0.89787 0.0
C550 C 0.63884 0.52382 0.85137 0.0
C551 C 0.66229 0.54782 0.84654 0.0
C552 C 0.61791 0.54286 0.8782 0.0
C553 C 0.66241 0.56901 0.85737 0.0
C554 C 0.59921 0.56088 0.91508 0.0
C555 C 0.55319 0.51304 0.92263 0.0
N556 N 0.64067 0.56602 0.87292 0.0
N557 N 0.57263 0.51732 0.9017 0.0
H558 H 0.0252 0.53961 0.45801 0.0
H559 H 0.15135 0.68111 0.43494 0.0
H560 H 0.07116 0.58961 0.5341 0.0
H561 H 0.09854 0.63965 0.3573 0.0
H562 H 0.12105 0.64703 0.47117 0.0
H563 H 0.04982 0.57538 0.42018 0.0
C564 C 0.04003 0.55816 0.46679 0.0
C565 C 0.04633 0.56161 0.4992 0.0
C566 C 0.11589 0.6453 0.44626 0.0
C567 C 0.07468 0.60227 0.45632 0.0
C568 C 0.13335 0.66473 0.42552 0.0
C569 C 0.12759 0.66312 0.39304 0.0
C570 C 0.09249 0.62379 0.43455 0.0
C571 C 0.10368 0.64163 0.38223 0.0
C572 C 0.05417 0.5785 0.44523 0.0
C573 C 0.06586 0.58597 0.50931 0.0
N574 N 0.08709 0.62264 0.40291 0.0
N575 N 0.07942 0.6052 0.488 0.0
H576 H 0.41227 0.98606 0.87158 0.0
H577 H 0.44341 0.12734 0.87705 0.0
H578 H 0.42416 0.0267 0.95739 0.0
H579 H 0.43803 0.08999 0.79018 0.0
H580 H 0.43109 0.08859 0.90657 0.0
H581 H 0.41547 0.02155 0.84103 0.0
C582 C 0.41505 0.00225 0.88399 0.0
C583 C 0.41826 0.00364 0.91698 0.0
C584 C 0.43248 0.08879 0.88104 0.0
C585 C 0.42228 0.04429 0.88238 0.0
C586 C 0.43971 0.11099 0.86418 0.0
C587 C 0.44208 0.11201 0.83112 0.0
C588 C 0.42764 0.06739 0.86479 0.0
C589 C 0.43637 0.09002 0.81565 0.0
C590 C 0.4171 0.02257 0.86658 0.0
C591 C 0.42205 0.02512 0.93193 0.0
N592 N 0.4296 0.06864 0.83264 0.0
N593 N 0.42415 0.04465 0.91453 0.0
H594 H 0.45537 0.47881 0.43338 0.0
H595 H 0.35356 0.52452 0.39232 0.0
H596 H 0.45488 0.53772 0.48418 0.0
H597 H 0.37267 0.48425 0.32681 0.0
H598 H 0.38612 0.52513 0.42978 0.0
H599 H 0.42002 0.47562 0.39839 0.0
C600 C 0.44764 0.49089 0.43746 0.0
C601 C 0.45824 0.50864 0.4618 0.0
C602 C 0.38315 0.51615 0.4072 0.0
C603 C 0.4177 0.50507 0.42158 0.0
C604 C 0.36466 0.51593 0.3856 0.0
C605 C 0.36036 0.5045 0.35599 0.0
C606 C 0.39734 0.50461 0.39949 0.0
C607 C 0.37494 0.49306 0.34933 0.0
C608 C 0.42755 0.48915 0.4173 0.0
C609 C 0.44741 0.52382 0.46573 0.0
N610 N 0.39272 0.49341 0.37085 0.0
N611 N 0.42777 0.52171 0.44583 0.0
H612 H 0.8878 0.38869 0.01916 0.0
H613 H 0.86906 0.34996 0.83681 0.0
H614 H 0.94762 0.43163 0.94723 0.0
H615 H 0.80779 0.30879 0.9079 0.0
H616 H 0.89878 0.3793 0.87731 0.0
H617 H 0.85895 0.35816 0.97922 0.0
C618 C 0.89498 0.39161 0.99506 0.0
C619 C 0.92014 0.41287 0.98656 0.0
C620 C 0.87882 0.36387 0.88405 0.0
C621 C 0.88709 0.37812 0.94057 0.0
C622 C 0.86188 0.34706 0.86094 0.0
C623 C 0.83584 0.32694 0.86891 0.0
C624 C 0.86973 0.3605 0.91543 0.0
C625 C 0.82753 0.32426 0.90054 0.0
C626 C 0.87842 0.37426 0.97219 0.0
C627 C 0.92823 0.41579 0.9548 0.0
N628 N 0.84441 0.34081 0.92261 0.0
N629 N 0.91176 0.39866 0.933 0.0
H630 H 0.95282 0.5044 0.94547 0.0
H631 H 0.90166 0.59196 0.87419 0.0
H632 H 0.98565 0.58121 0.9749 0.0
H633 H 0.85569 0.51036 0.86967 0.0
H634 H 0.93638 0.59 0.90485 0.0
H635 H 0.92185 0.50836 0.90994 0.0
C636 C 0.95386 0.52227 0.94413 0.0
C637 C 0.97183 0.54247 0.96344 0.0
C638 C 0.91869 0.57256 0.89704 0.0
C639 C 0.9361 0.547 0.92284 0.0
C640 C 0.89868 0.57361 0.87973 0.0
C641 C 0.87546 0.55128 0.86925 0.0
C642 C 0.9157 0.54904 0.90375 0.0
C643 C 0.87329 0.52815 0.87667 0.0
C644 C 0.93598 0.52443 0.92398 0.0
C645 C 0.9721 0.5651 0.96061 0.0
N646 N 0.8931 0.52766 0.89336 0.0
N647 N 0.95441 0.56672 0.94083 0.0
H648 H 0.46024 0.98601 0.39984 0.0
H649 H 0.3315 0.84547 0.42156 0.0
H650 H 0.45087 0.93807 0.48044 0.0
H651 H 0.3487 0.89238 0.3375 0.0
H652 H 0.37304 0.8796 0.44576 0.0
H653 H 0.41705 0.95265 0.37942 0.0
C654 C 0.44905 0.96845 0.41337 0.0
C655 C 0.45933 0.96479 0.44184 0.0
C656 C 0.3676 0.88239 0.42208 0.0
C657 C 0.40955 0.92621 0.41832 0.0
C658 C 0.34396 0.8629 0.40817 0.0
C659 C 0.33649 0.86602 0.37741 0.0
C660 C 0.38385 0.90518 0.40512 0.0
C661 C 0.35329 0.88917 0.36142 0.0
C662 C 0.42431 0.94934 0.40161 0.0
C663 C 0.44372 0.94165 0.45835 0.0
N664 N 0.37611 0.90776 0.37543 0.0
N665 N 0.4196 0.92314 0.44627 0.0
H666 H 0.5115 0.43208 0.93258 0.0
H667 H 0.49054 0.29684 0.90009 0.0
H668 H 0.5013 0.379 0.00702 0.0
H669 H 0.49336 0.34724 0.82619 0.0
H670 H 0.49556 0.32704 0.93955 0.0
H671 H 0.50576 0.4016 0.89349 0.0
C672 C 0.50784 0.41397 0.94084 0.0
C673 C 0.50671 0.40816 0.97338 0.0
C674 C 0.49505 0.3315 0.91472 0.0
C675 C 0.50051 0.37309 0.92831 0.0
C676 C 0.49234 0.31432 0.89212 0.0
C677 C 0.49164 0.31952 0.85968 0.0
C678 C 0.49721 0.35418 0.90492 0.0
C679 C 0.49356 0.34229 0.85089 0.0
C680 C 0.50471 0.39657 0.91837 0.0
C681 C 0.50255 0.38448 0.98233 0.0
N682 N 0.49635 0.35879 0.87334 0.0
N683 N 0.49959 0.36785 0.95996 0.0
H684 H 0.09009 0.52436 0.47023 0.0
H685 H 0.15399 0.46186 0.37089 0.0
H686 H 0.09044 0.45864 0.50356 0.0
H687 H 0.17645 0.53939 0.35658 0.0
H688 H 0.12631 0.45812 0.41609 0.0
H689 H 0.11797 0.52824 0.42525 0.0
C690 C 0.09606 0.51073 0.46802 0.0
C691 C 0.08792 0.49109 0.49055 0.0
C692 C 0.13727 0.47593 0.40303 0.0
C693 C 0.11966 0.49533 0.4391 0.0
C694 C 0.15285 0.47801 0.37708 0.0
C695 C 0.16744 0.50095 0.35993 0.0
C696 C 0.136 0.49686 0.41167 0.0
C697 C 0.1656 0.5214 0.36927 0.0
C698 C 0.11205 0.51302 0.44245 0.0
C699 C 0.09647 0.47413 0.48681 0.0
N700 N 0.15007 0.51885 0.39443 0.0
N701 N 0.11171 0.4765 0.4614 0.0
H702 H 0.52928 0.0012 0.90602 0.0
H703 H 0.64364 0.14889 0.90407 0.0
H704 H 0.53743 0.05018 0.98143 0.0
H705 H 0.63096 0.09677 0.83064 0.0
H706 H 0.60641 0.11378 0.93419 0.0
H707 H 0.56839 0.0364 0.88024 0.0
C708 C 0.53938 0.01943 0.91729 0.0
C709 C 0.52987 0.02273 0.94589 0.0
C710 C 0.61191 0.11009 0.91155 0.0
C711 C 0.57508 0.06362 0.91604 0.0
C712 C 0.63305 0.13013 0.89423 0.0
C713 C 0.64059 0.12584 0.86473 0.0
C714 C 0.59817 0.08559 0.89924 0.0
C715 C 0.6263 0.10104 0.85342 0.0
C716 C 0.56183 0.03962 0.90246 0.0
C717 C 0.54409 0.04681 0.9594 0.0
N718 N 0.60588 0.082 0.87062 0.0
N719 N 0.56594 0.06645 0.94422 0.0
H720 H 0.61814 0.6046 0.41208 0.0
H721 H 0.54513 0.67552 0.35107 0.0
H722 H 0.53176 0.56923 0.40307 0.0
H723 H 0.62794 0.70324 0.32692 0.0
H724 H 0.54207 0.63905 0.3777 0.0
H725 H 0.62412 0.64295 0.38614 0.0
C726 C 0.60047 0.60477 0.40445 0.0
C727 C 0.57437 0.58373 0.41018 0.0
C728 C 0.56095 0.6531 0.36662 0.0
C729 C 0.58109 0.62754 0.38126 0.0
C730 C 0.56271 0.67394 0.35141 0.0
C731 C 0.58669 0.69224 0.3363 0.0
C732 C 0.58337 0.6505 0.367 0.0
C733 C 0.60907 0.68955 0.3383 0.0
C734 C 0.60391 0.62669 0.38985 0.0
C735 C 0.55222 0.58512 0.39994 0.0
N736 N 0.60684 0.66892 0.35324 0.0
N737 N 0.55609 0.60666 0.38624 0.0
H738 H 0.53211 0.0685 0.57264 0.0
H739 H 0.49107 0.17011 0.60029 0.0
H740 H 0.51362 0.10428 0.49624 0.0
H741 H 0.49503 0.12372 0.67513 0.0
H742 H 0.5013 0.14777 0.56191 0.0
H743 H 0.52112 0.09043 0.61049 0.0
C744 C 0.5256 0.08082 0.5637 0.0
C745 C 0.52362 0.08428 0.53099 0.0
C746 C 0.49986 0.14245 0.58673 0.0
C747 C 0.51132 0.10989 0.57457 0.0
C748 C 0.49382 0.15508 0.6087 0.0
C749 C 0.49211 0.14883 0.64114 0.0
C750 C 0.50441 0.12347 0.59717 0.0
C751 C 0.49649 0.1295 0.65051 0.0
C752 C 0.51942 0.09346 0.58544 0.0
C753 C 0.51567 0.10108 0.5211 0.0
N754 N 0.50248 0.11758 0.62868 0.0
N755 N 0.5098 0.11322 0.54278 0.0
H756 H 0.45375 0.45914 0.12141 0.0
H757 H 0.3324 0.483 0.11594 0.0
H758 H 0.43256 0.484 0.03575 0.0
H759 H 0.37525 0.48542 0.20118 0.0
H760 H 0.36382 0.47697 0.08516 0.0
H761 H 0.41935 0.46158 0.14977 0.0
C762 C 0.4417 0.46491 0.10842 0.0
C763 C 0.44622 0.47155 0.07612 0.0
C764 C 0.36628 0.47882 0.11059 0.0
C765 C 0.40667 0.47442 0.10872 0.0
C766 C 0.34834 0.48214 0.12815 0.0
C767 C 0.35135 0.48479 0.16112 0.0
C768 C 0.38702 0.47771 0.12624 0.0
C769 C 0.37241 0.48371 0.17578 0.0
C770 C 0.42213 0.46641 0.12474 0.0
C771 C 0.42983 0.4788 0.06065 0.0
N772 N 0.38935 0.48015 0.15827 0.0
N773 N 0.41077 0.4801 0.07713 0.0
H774 H 0.96039 0.39135 0.56046 0.0
H775 H 0.82474 0.3431 0.65857 0.0
H776 H 0.92593 0.43707 0.572 0.0
H777 H 0.8718 0.30824 0.66394 0.0
H778 H 0.85787 0.375 0.6216 0.0
H779 H 0.92348 0.35748 0.59147 0.0
C780 C 0.94485 0.39418 0.5691 0.0
C781 C 0.94647 0.41726 0.56373 0.0
C782 C 0.86083 0.36029 0.63083 0.0
C783 C 0.90409 0.37842 0.59976 0.0
C784 C 0.84202 0.34213 0.65218 0.0
C785 C 0.84533 0.32279 0.66463 0.0
C786 C 0.88308 0.35908 0.62158 0.0
C787 C 0.86797 0.3224 0.65475 0.0
C788 C 0.92383 0.37483 0.58702 0.0
C789 C 0.92558 0.41965 0.57553 0.0
N790 N 0.88587 0.34019 0.6339 0.0
N791 N 0.90537 0.40055 0.59319 0.0
H792 H 0.46208 0.89897 0.07121 0.0
H793 H 0.57613 0.86802 0.10387 0.0
H794 H 0.51377 0.9026 0.99698 0.0
H795 H 0.50355 0.83526 0.15965 0.0
H796 H 0.5575 0.88634 0.06734 0.0
H797 H 0.48064 0.88042 0.10699 0.0
C798 C 0.47729 0.89573 0.0625 0.0
C799 C 0.48642 0.9022 0.03121 0.0
C800 C 0.54572 0.87514 0.0876 0.0
C801 C 0.50799 0.88142 0.07192 0.0
C802 C 0.55639 0.86492 0.1085 0.0
C803 C 0.54126 0.85016 0.13465 0.0
C804 C 0.52 0.87089 0.09334 0.0
C805 C 0.51573 0.84643 0.13959 0.0
C806 C 0.48782 0.88513 0.08282 0.0
C807 C 0.50606 0.89758 0.02089 0.0
N808 N 0.50593 0.85684 0.1192 0.0
N809 N 0.51644 0.88767 0.04133 0.0
H810 H 0.55075 0.5057 0.58483 0.0
H811 H 0.69515 0.59787 0.66492 0.0
H812 H 0.60261 0.58473 0.55888 0.0
H813 H 0.64924 0.51665 0.67755 0.0
H814 H 0.65842 0.59463 0.63232 0.0
H815 H 0.58319 0.51088 0.62577 0.0
C816 C 0.56868 0.52428 0.5881 0.0
C817 C 0.57404 0.54477 0.56808 0.0
C818 C 0.65634 0.57753 0.64235 0.0
C819 C 0.6115 0.55071 0.6148 0.0
C820 C 0.67726 0.57938 0.66105 0.0
C821 C 0.67539 0.55748 0.67377 0.0
C822 C 0.63325 0.55363 0.63648 0.0
C823 C 0.65178 0.53399 0.66777 0.0
C824 C 0.58732 0.52716 0.61137 0.0
C825 C 0.59769 0.56836 0.57355 0.0
N826 N 0.6317 0.53269 0.64954 0.0
N827 N 0.61565 0.57063 0.59617 0.0
H828 H 0.02202 0.54111 0.15192 0.0
H829 H 0.10773 0.6887 0.17398 0.0
H830 H 0.99817 0.58952 0.10837 0.0
H831 H 0.10397 0.63712 0.24702 0.0
H832 H 0.06955 0.65302 0.14743 0.0
H833 H 0.05431 0.57626 0.1852 0.0
C834 C 0.02338 0.5591 0.14979 0.0
C835 C 0.00746 0.56251 0.1276 0.0
C836 C 0.07702 0.64962 0.16941 0.0
C837 C 0.0446 0.60282 0.16478 0.0
C838 C 0.09879 0.67 0.18471 0.0
C839 C 0.1094 0.66605 0.2128 0.0
C840 C 0.06601 0.62503 0.18192 0.0
C841 C 0.09708 0.64116 0.22505 0.0
C842 C 0.04172 0.57908 0.16871 0.0
C843 C 0.00992 0.58613 0.1255 0.0
N844 N 0.07627 0.62159 0.20937 0.0
N845 N 0.0285 0.60556 0.14352 0.0
loop_
_geom_bond_atom_site_label_1
_geom_bond_atom_site_label_2
_geom_bond_distance
_geom_bond_site_symmetry_2
_ccdc_geom_bond_type
Cu0 N1 1.999 1_454 S
Cu0 O6 1.974 1_454 S
Cu0 N11 1.985 . S
Cu0 O20 1.959 . S
N1 Cu0 1.999 1_656 S
N1 C3 1.263 . S
N1 C5 1.389 1_556 S
N2 C3 1.358 . S
N2 C4 1.400 . S
C3 N1 1.263 . S
C3 N2 1.358 . S
C3 H9 0.930 . S
C4 N2 1.400 . S
C4 C5 1.351 1_556 S
C4 H21 0.930 . S
C5 N1 1.389 1_554 S
C5 C4 1.351 1_554 S
C5 H10 0.930 . S
O6 Cu0 1.974 1_656 S
O6 C16 1.282 . S
C7 O8 1.261 1_554 S
C7 O20 1.251 . S
O8 C7 1.261 1_556 S
H9 C3 0.930 . S
H10 C5 0.930 . S
N11 Cu0 1.985 . S
N11 C13 1.335 . S
N11 C14 1.390 . S
N12 C13 1.345 . S
N12 C15 1.336 . S
C13 N11 1.335 . S
C13 N12 1.345 . S
C13 H18 0.930 . S
C14 N11 1.390 . S
C14 C15 1.346 . S
C14 H19 0.930 1_554 S
C15 N12 1.336 . S
C15 C14 1.346 . S
C15 H22 0.929 . S
C16 O6 1.282 . S
C16 O17 1.216 1_655 S
O17 C16 1.216 1_455 S
H18 C13 0.930 . S
H19 C14 0.930 1_556 S
O20 Cu0 1.959 . S
O20 C7 1.251 . S
H21 C4 0.930 . S
H22 C15 0.929 . S
Cu23 N24 1.999 . S
Cu23 O29 1.974 . S
Cu23 N34 1.985 1_565 S
Cu23 O43 1.959 1_565 S
N24 Cu23 1.999 . S
N24 C26 1.263 . S
N24 C28 1.389 . S
N25 C26 1.358 . S
N25 C27 1.400 . S
C26 N24 1.263 . S
C26 N25 1.358 . S
C26 H32 0.930 . S
C27 N25 1.400 . S
C27 C28 1.351 . S
C27 H44 0.930 . S
C28 N24 1.389 . S
C28 C27 1.351 . S
C28 H33 0.930 . S
O29 Cu23 1.974 . S
O29 C39 1.282 . S
C30 O31 1.261 . S
C30 O43 1.251 . S
O31 C30 1.261 . S
H32 C26 0.930 . S
H33 C28 0.930 . S
N34 Cu23 1.985 1_545 S
N34 C36 1.335 . S
N34 C37 1.390 . S
N35 C36 1.345 . S
N35 C38 1.336 . S
C36 N34 1.335 . S
C36 N35 1.345 . S
C36 H41 0.930 . S
C37 N34 1.390 . S
C37 C38 1.346 . S
C37 H42 0.930 . S
C38 N35 1.336 . S
C38 C37 1.346 . S
C38 H45 0.929 . S
C39 O29 1.282 . S
C39 O40 1.216 . S
O40 C39 1.216 . S
H41 C36 0.930 . S
H42 C37 0.930 . S
O43 Cu23 1.959 1_545 S
O43 C30 1.251 . S
H44 C27 0.930 . S
H45 C38 0.929 . S
Cu46 N47 1.999 1_554 S
Cu46 O52 1.974 1_554 S
Cu46 N57 1.985 . S
Cu46 O66 1.959 . S
N47 Cu46 1.999 1_556 S
N47 C49 1.263 . S
N47 C51 1.389 . S
N48 C49 1.358 . S
N48 C50 1.400 . S
C49 N47 1.263 . S
C49 N48 1.358 . S
C49 H55 0.930 . S
C50 N48 1.400 . S
C50 C51 1.351 . S
C50 H67 0.930 . S
C51 N47 1.389 . S
C51 C50 1.351 . S
C51 H56 0.930 . S
O52 Cu46 1.974 1_556 S
O52 C62 1.282 . S
C53 O54 1.261 . S
C53 O66 1.251 . S
O54 C53 1.261 . S
H55 C49 0.930 . S
H56 C51 0.930 . S
N57 Cu46 1.985 . S
N57 C59 1.335 . S
N57 C60 1.390 . S
N58 C59 1.345 . S
N58 C61 1.336 . S
C59 N57 1.335 . S
C59 N58 1.345 . S
C59 H64 0.930 . S
C60 N57 1.390 . S
C60 C61 1.346 . S
C60 H65 0.930 . S
C61 N58 1.336 . S
C61 C60 1.346 . S
C61 H68 0.929 . S
C62 O52 1.282 . S
C62 O63 1.216 1_556 S
O63 C62 1.216 1_554 S
H64 C59 0.930 . S
H65 C60 0.930 . S
O66 Cu46 1.959 . S
O66 C53 1.251 . S
H67 C50 0.930 . S
H68 C61 0.929 . S
Cu69 N70 1.999 1_655 S
Cu69 O75 1.974 1_655 S
Cu69 N80 1.985 . S
Cu69 O89 1.959 . S
N70 Cu69 1.999 1_455 S
N70 C72 1.263 . S
N70 C74 1.389 1_455 S
N71 C72 1.358 . S
N71 C73 1.400 . S
C72 N70 1.263 . S
C72 N71 1.358 . S
C72 H78 0.930 . S
C73 N71 1.400 . S
C73 C74 1.351 1_455 S
C73 H90 0.930 . S
C74 N70 1.389 1_655 S
C74 C73 1.351 1_655 S
C74 H79 0.930 . S
O75 Cu69 1.974 1_455 S
O75 C85 1.282 . S
C76 O77 1.254 1_655 S
C76 O89 1.251 . S
O77 C76 1.254 1_455 S
H78 C72 0.930 . S
H79 C74 0.930 . S
N80 Cu69 1.985 . S
N80 C82 1.335 . S
N80 C83 1.390 . S
N81 C82 1.345 . S
N81 C84 1.336 . S
C82 N80 1.335 . S
C82 N81 1.345 . S
C82 H87 0.930 . S
C83 N80 1.390 . S
C83 C84 1.346 . S
C83 H88 0.930 1_655 S
C84 N81 1.336 . S
C84 C83 1.346 . S
C84 H91 0.929 . S
C85 O75 1.282 . S
C85 O86 1.216 . S
O86 C85 1.216 . S
H87 C82 0.930 . S
H88 C83 0.930 1_455 S
O89 Cu69 1.959 . S
O89 C76 1.251 . S
H90 C73 0.930 . S
H91 C84 0.929 . S
Cu92 N93 1.999 . S
Cu92 O98 1.974 1_554 S
Cu92 N103 1.985 1_545 S
Cu92 O112 1.959 1_545 S
N93 Cu92 1.999 . S
N93 C95 1.263 1_554 S
N93 C97 1.389 . S
N94 C95 1.358 . S
N94 C96 1.400 1_556 S
C95 N93 1.263 1_556 S
C95 N94 1.358 . S
C95 H101 0.930 . S
C96 N94 1.400 1_554 S
C96 C97 1.351 . S
C96 H113 0.930 . S
C97 N93 1.389 . S
C97 C96 1.351 . S
C97 H102 0.930 . S
O98 Cu92 1.974 1_556 S
O98 C108 1.282 . S
C99 O100 1.261 . S
C99 O112 1.251 . S
O100 C99 1.261 . S
H101 C95 0.930 . S
H102 C97 0.930 . S
N103 Cu92 1.985 1_565 S
N103 C105 1.335 . S
N103 C106 1.390 . S
N104 C105 1.345 . S
N104 C107 1.336 . S
C105 N103 1.335 . S
C105 N104 1.345 . S
C105 H110 0.930 . S
C106 N103 1.390 . S
C106 C107 1.346 . S
C106 H111 0.924 1_565 S
C107 N104 1.336 . S
C107 C106 1.346 . S
C107 H114 0.929 . S
C108 O98 1.282 . S
C108 O109 1.216 . S
O109 C108 1.216 . S
H110 C105 0.930 . S
H111 C106 0.924 1_545 S
O112 Cu92 1.959 1_565 S
O112 C99 1.251 . S
H113 C96 0.930 . S
H114 C107 0.929 . S
Cu115 N116 1.999 . S
Cu115 O121 1.974 . S
Cu115 N126 1.985 . S
Cu115 O135 1.959 . S
N116 Cu115 1.999 . S
N116 C118 1.263 . S
N116 C120 1.389 . S
N117 C118 1.358 . S
N117 C119 1.400 . S
C118 N116 1.263 . S
C118 N117 1.358 . S
C118 H124 0.930 . S
C119 N117 1.400 . S
C119 C120 1.351 . S
C119 H136 0.930 . S
C120 N116 1.389 . S
C120 C119 1.351 . S
C120 H125 0.930 . S
O121 Cu115 1.974 . S
O121 C131 1.282 . S
C122 O123 1.261 . S
C122 O135 1.251 . S
O123 C122 1.261 . S
H124 C118 0.930 . S
H125 C120 0.930 . S
N126 Cu115 1.985 . S
N126 C128 1.335 . S
N126 C129 1.390 . S
N127 C128 1.345 . S
N127 C130 1.336 . S
C128 N126 1.335 . S
C128 N127 1.345 . S
C128 H133 0.930 . S
C129 N126 1.390 . S
C129 C130 1.346 . S
C129 H134 0.930 . S
C130 N127 1.336 . S
C130 C129 1.346 . S
C130 H137 0.929 . S
C131 O121 1.282 . S
C131 O132 1.216 . S
O132 C131 1.216 . S
H133 C128 0.930 . S
H134 C129 0.930 . S
O135 Cu115 1.959 . S
O135 C122 1.251 . S
H136 C119 0.930 . S
H137 C130 0.929 . S
C138 C139 1.384 . S
C138 C140 1.384 . S
C138 H166 0.931 . S
C139 C138 1.384 . S
C139 C142 1.382 . S
C140 C138 1.384 . S
C140 C141 1.381 . S
C140 H167 0.930 . S
C141 C140 1.381 . S
C141 C143 1.381 . S
C141 C144 1.487 . S
C142 C139 1.382 . S
C142 C143 1.387 . S
C142 H168 0.930 . S
C143 C141 1.381 . S
C143 C142 1.387 . S
C143 H169 0.931 . S
C144 C141 1.487 . S
C144 C151 1.399 . S
C144 N182 1.343 . S
C145 C146 1.384 . S
C145 C147 1.384 . S
C145 H170 0.931 . S
C146 C145 1.384 . S
C146 C149 1.382 . S
C147 C145 1.384 . S
C147 C148 1.381 . S
C147 H171 0.930 . S
C148 C147 1.381 . S
C148 C150 1.381 . S
C148 C151 1.487 . S
C149 C146 1.382 . S
C149 C150 1.387 . S
C149 H172 0.930 . S
C150 C148 1.381 . S
C150 C149 1.387 . S
C150 H173 0.931 . S
C151 C144 1.399 . S
C151 C148 1.487 . S
C151 N183 1.343 . S
C152 C153 1.384 . S
C152 C154 1.384 . S
C152 H174 0.931 . S
C153 C152 1.384 . S
C153 C156 1.382 . S
C154 C152 1.384 . S
C154 C155 1.381 . S
C154 H175 0.930 . S
C155 C154 1.381 . S
C155 C157 1.381 . S
C155 C158 1.487 . S
C156 C153 1.382 . S
C156 C157 1.387 . S
C156 H176 0.930 . S
C157 C155 1.381 . S
C157 C156 1.387 . S
C157 H177 0.931 . S
C158 C155 1.487 . S
C158 C165 1.399 . S
C158 N183 1.343 . S
C159 C160 1.384 . S
C159 C161 1.384 . S
C159 H178 0.931 . S
C160 C159 1.384 . S
C160 C163 1.382 . S
C161 C159 1.384 . S
C161 C162 1.381 . S
C161 H179 0.930 . S
C162 C161 1.381 . S
C162 C164 1.381 . S
C162 C165 1.487 . S
C163 C160 1.382 . S
C163 C164 1.387 . S
C163 H180 0.930 . S
C164 C162 1.381 . S
C164 C163 1.387 . S
C164 H181 0.931 . S
C165 C158 1.399 . S
C165 C162 1.487 . S
C165 N182 1.343 . S
H166 C138 0.931 . S
H167 C140 0.930 . S
H168 C142 0.930 . S
H169 C143 0.931 . S
H170 C145 0.931 . S
H171 C147 0.930 . S
H172 C149 0.930 . S
H173 C150 0.931 . S
H174 C152 0.931 . S
H175 C154 0.930 . S
H176 C156 0.930 . S
H177 C157 0.931 . S
H178 C159 0.931 . S
H179 C161 0.930 . S
H180 C163 0.930 . S
H181 C164 0.931 . S
N182 C144 1.343 . S
N182 C165 1.343 . S
N183 C151 1.343 . S
N183 C158 1.343 . S
C184 C185 1.384 . S
C184 C186 1.384 . S
C184 H212 0.931 . S
C185 C184 1.384 . S
C185 C188 1.382 . S
C186 C184 1.384 . S
C186 C187 1.381 . S
C186 H213 0.930 . S
C187 C186 1.381 . S
C187 C189 1.381 . S
C187 C190 1.487 . S
C188 C185 1.382 . S
C188 C189 1.387 . S
C188 H214 0.930 . S
C189 C187 1.381 . S
C189 C188 1.387 . S
C189 H215 0.931 . S
C190 C187 1.487 . S
C190 C197 1.399 . S
C190 N228 1.343 . S
C191 C192 1.384 . S
C191 C193 1.384 . S
C191 H216 0.931 . S
C192 C191 1.384 . S
C192 C195 1.382 . S
C193 C191 1.384 . S
C193 C194 1.381 . S
C193 H217 0.930 . S
C194 C193 1.381 . S
C194 C196 1.381 . S
C194 C197 1.487 . S
C195 C192 1.382 . S
C195 C196 1.387 . S
C195 H218 0.930 . S
C196 C194 1.381 . S
C196 C195 1.387 . S
C196 H219 0.931 . S
C197 C190 1.399 . S
C197 C194 1.487 . S
C197 N229 1.343 . S
C198 C199 1.384 . S
C198 C200 1.384 . S
C198 H220 0.931 . S
C199 C198 1.384 . S
C199 C202 1.382 . S
C200 C198 1.384 . S
C200 C201 1.381 . S
C200 H221 0.930 . S
C201 C200 1.381 . S
C201 C203 1.381 . S
C201 C204 1.487 . S
C202 C199 1.382 . S
C202 C203 1.387 . S
C202 H222 0.930 . S
C203 C201 1.381 . S
C203 C202 1.387 . S
C203 H223 0.931 . S
C204 C201 1.487 . S
C204 C211 1.399 . S
C204 N229 1.343 . S
C205 C206 1.384 . S
C205 C207 1.384 . S
C205 H224 0.931 . S
C206 C205 1.384 . S
C206 C209 1.382 . S
C207 C205 1.384 . S
C207 C208 1.381 . S
C207 H225 0.930 . S
C208 C207 1.381 . S
C208 C210 1.381 . S
C208 C211 1.487 . S
C209 C206 1.382 . S
C209 C210 1.387 . S
C209 H226 0.930 . S
C210 C208 1.381 . S
C210 C209 1.387 . S
C210 H227 0.931 . S
C211 C204 1.399 . S
C211 C208 1.487 . S
C211 N228 1.343 . S
H212 C184 0.931 . S
H213 C186 0.930 . S
H214 C188 0.930 . S
H215 C189 0.931 . S
H216 C191 0.931 . S
H217 C193 0.930 . S
H218 C195 0.930 . S
H219 C196 0.931 . S
H220 C198 0.931 . S
H221 C200 0.930 . S
H222 C202 0.930 . S
H223 C203 0.931 . S
H224 C205 0.931 . S
H225 C207 0.930 . S
H226 C209 0.930 . S
H227 C210 0.931 . S
N228 C190 1.343 . S
N228 C211 1.343 . S
N229 C197 1.343 . S
N229 C204 1.343 . S
C230 C231 1.384 . S
C230 C232 1.384 . S
C230 H258 0.931 . S
C231 C230 1.384 . S
C231 C234 1.382 . S
C232 C230 1.384 . S
C232 C233 1.381 . S
C232 H259 0.930 . S
C233 C232 1.381 . S
C233 C235 1.381 . S
C233 C236 1.487 . S
C234 C231 1.382 . S
C234 C235 1.387 . S
C234 H260 0.930 . S
C235 C233 1.381 . S
C235 C234 1.387 . S
C235 H261 0.931 . S
C236 C233 1.487 . S
C236 C243 1.399 . S
C236 N274 1.343 . S
C237 C238 1.384 . S
C237 C239 1.384 . S
C237 H262 0.931 . S
C238 C237 1.384 . S
C238 C241 1.382 . S
C239 C237 1.384 . S
C239 C240 1.381 . S
C239 H263 0.930 . S
C240 C239 1.381 . S
C240 C242 1.381 . S
C240 C243 1.487 . S
C241 C238 1.382 . S
C241 C242 1.387 . S
C241 H264 0.930 . S
C242 C240 1.381 . S
C242 C241 1.387 . S
C242 H265 0.931 . S
C243 C236 1.399 . S
C243 C240 1.487 . S
C243 N275 1.343 . S
C244 C245 1.384 . S
C244 C246 1.384 . S
C244 H266 0.931 . S
C245 C244 1.384 . S
C245 C248 1.382 . S
C246 C244 1.384 . S
C246 C247 1.381 . S
C246 H267 0.930 . S
C247 C246 1.381 . S
C247 C249 1.381 . S
C247 C250 1.487 . S
C248 C245 1.382 . S
C248 C249 1.387 . S
C248 H268 0.930 . S
C249 C247 1.381 . S
C249 C248 1.387 . S
C249 H269 0.931 . S
C250 C247 1.487 . S
C250 C257 1.399 . S
C250 N275 1.343 . S
C251 C252 1.384 . S
C251 C253 1.384 . S
C251 H270 0.931 . S
C252 C251 1.384 . S
C252 C255 1.382 . S
C253 C251 1.384 . S
C253 C254 1.381 . S
C253 H271 0.930 . S
C254 C253 1.381 . S
C254 C256 1.381 . S
C254 C257 1.487 . S
C255 C252 1.382 . S
C255 C256 1.387 . S
C255 H272 0.930 . S
C256 C254 1.381 . S
C256 C255 1.387 . S
C256 H273 0.931 . S
C257 C250 1.399 . S
C257 C254 1.487 . S
C257 N274 1.343 . S
H258 C230 0.931 . S
H259 C232 0.930 . S
H260 C234 0.930 . S
H261 C235 0.931 . S
H262 C237 0.931 . S
H263 C239 0.930 . S
H264 C241 0.930 . S
H265 C242 0.931 . S
H266 C244 0.931 . S
H267 C246 0.930 . S
H268 C248 0.930 . S
H269 C249 0.931 . S
H270 C251 0.931 . S
H271 C253 0.930 . S
H272 C255 0.930 . S
H273 C256 0.931 . S
N274 C236 1.343 . S
N274 C257 1.343 . S
N275 C243 1.343 . S
N275 C250 1.343 . S
C276 C277 1.384 . S
C276 C278 1.384 . S
C276 H304 0.931 . S
C277 C276 1.384 . S
C277 C280 1.382 . S
C278 C276 1.384 . S
C278 C279 1.381 . S
C278 H305 0.930 . S
C279 C278 1.381 . S
C279 C281 1.381 . S
C279 C282 1.487 . S
C280 C277 1.382 . S
C280 C281 1.387 . S
C280 H306 0.930 . S
C281 C279 1.381 . S
C281 C280 1.387 . S
C281 H307 0.931 . S
C282 C279 1.487 . S
C282 C289 1.399 . S
C282 N320 1.343 . S
C283 C284 1.384 . S
C283 C285 1.384 . S
C283 H308 0.931 . S
C284 C283 1.384 . S
C284 C287 1.382 . S
C285 C283 1.384 . S
C285 C286 1.381 . S
C285 H309 0.930 . S
C286 C285 1.381 . S
C286 C288 1.381 . S
C286 C289 1.487 . S
C287 C284 1.382 . S
C287 C288 1.387 . S
C287 H310 0.930 . S
C288 C286 1.381 . S
C288 C287 1.387 . S
C288 H311 0.931 . S
C289 C282 1.399 . S
C289 C286 1.487 . S
C289 N321 1.343 . S
C290 C291 1.384 . S
C290 C292 1.384 . S
C290 H312 0.931 . S
C291 C290 1.384 . S
C291 C294 1.382 . S
C292 C290 1.384 . S
C292 C293 1.381 . S
C292 H313 0.930 . S
C293 C292 1.381 . S
C293 C295 1.381 . S
C293 C296 1.487 . S
C294 C291 1.382 . S
C294 C295 1.387 . S
C294 H314 0.930 . S
C295 C293 1.381 . S
C295 C294 1.387 . S
C295 H315 0.931 . S
C296 C293 1.487 . S
C296 C303 1.399 . S
C296 N321 1.343 . S
C297 C298 1.384 . S
C297 C299 1.384 . S
C297 H316 0.931 . S
C298 C297 1.384 . S
C298 C301 1.382 . S
C299 C297 1.384 . S
C299 C300 1.381 . S
C299 H317 0.930 . S
C300 C299 1.381 . S
C300 C302 1.381 . S
C300 C303 1.487 . S
C301 C298 1.382 . S
C301 C302 1.387 . S
C301 H318 0.930 . S
C302 C300 1.381 . S
C302 C301 1.387 . S
C302 H319 0.931 . S
C303 C296 1.399 . S
C303 C300 1.487 . S
C303 N320 1.343 . S
H304 C276 0.931 . S
H305 C278 0.930 . S
H306 C280 0.930 . S
H307 C281 0.931 . S
H308 C283 0.931 . S
H309 C285 0.930 . S
H310 C287 0.930 . S
H311 C288 0.931 . S
H312 C290 0.931 . S
H313 C292 0.930 . S
H314 C294 0.930 . S
H315 C295 0.931 . S
H316 C297 0.931 . S
H317 C299 0.930 . S
H318 C301 0.930 . S
H319 C302 0.931 . S
N320 C282 1.343 . S
N320 C303 1.343 . S
N321 C289 1.343 . S
N321 C296 1.343 . S
C322 C323 1.384 . S
C322 C324 1.384 . S
C322 H350 0.931 . S
C323 C322 1.384 . S
C323 C326 1.382 . S
C324 C322 1.384 . S
C324 C325 1.381 . S
C324 H351 0.930 . S
C325 C324 1.381 . S
C325 C327 1.381 . S
C325 C328 1.487 . S
C326 C323 1.382 . S
C326 C327 1.387 . S
C326 H352 0.930 . S
C327 C325 1.381 . S
C327 C326 1.387 . S
C327 H353 0.931 . S
C328 C325 1.487 . S
C328 C335 1.399 . S
C328 N366 1.343 . S
C329 C330 1.384 . S
C329 C331 1.384 . S
C329 H354 0.931 . S
C330 C329 1.384 . S
C330 C333 1.382 . S
C331 C329 1.384 . S
C331 C332 1.381 . S
C331 H355 0.930 . S
C332 C331 1.381 . S
C332 C334 1.381 . S
C332 C335 1.487 . S
C333 C330 1.382 . S
C333 C334 1.387 . S
C333 H356 0.930 . S
C334 C332 1.381 . S
C334 C333 1.387 . S
C334 H357 0.931 . S
C335 C328 1.399 . S
C335 C332 1.487 . S
C335 N367 1.343 . S
C336 C337 1.384 . S
C336 C338 1.384 . S
C336 H358 0.931 . S
C337 C336 1.384 . S
C337 C340 1.382 . S
C338 C336 1.384 . S
C338 C339 1.381 . S
C338 H359 0.930 . S
C339 C338 1.381 . S
C339 C341 1.381 . S
C339 C342 1.487 . S
C340 C337 1.382 . S
C340 C341 1.387 . S
C340 H360 0.930 . S
C341 C339 1.381 . S
C341 C340 1.387 . S
C341 H361 0.931 . S
C342 C339 1.487 . S
C342 C349 1.399 . S
C342 N367 1.343 . S
C343 C344 1.384 . S
C343 C345 1.384 . S
C343 H362 0.931 . S
C344 C343 1.384 . S
C344 C347 1.382 . S
C345 C343 1.384 . S
C345 C346 1.381 . S
C345 H363 0.930 . S
C346 C345 1.381 . S
C346 C348 1.381 . S
C346 C349 1.487 . S
C347 C344 1.382 . S
C347 C348 1.387 . S
C347 H364 0.930 . S
C348 C346 1.381 . S
C348 C347 1.387 . S
C348 H365 0.931 . S
C349 C342 1.399 . S
C349 C346 1.487 . S
C349 N366 1.343 . S
H350 C322 0.931 . S
H351 C324 0.930 . S
H352 C326 0.930 . S
H353 C327 0.931 . S
H354 C329 0.931 . S
H355 C331 0.930 . S
H356 C333 0.930 . S
H357 C334 0.931 . S
H358 C336 0.931 . S
H359 C338 0.930 . S
H360 C340 0.930 . S
H361 C341 0.931 . S
H362 C343 0.931 . S
H363 C345 0.930 . S
H364 C347 0.930 . S
H365 C348 0.931 . S
N366 C328 1.343 . S
N366 C349 1.343 . S
N367 C335 1.343 . S
N367 C342 1.343 . S
C368 C369 1.384 . S
C368 C370 1.384 . S
C368 H396 0.931 . S
C369 C368 1.384 . S
C369 C372 1.382 . S
C370 C368 1.384 . S
C370 C371 1.381 . S
C370 H397 0.930 . S
C371 C370 1.381 . S
C371 C373 1.381 . S
C371 C374 1.487 . S
C372 C369 1.382 . S
C372 C373 1.387 . S
C372 H398 0.930 . S
C373 C371 1.381 . S
C373 C372 1.387 . S
C373 H399 0.931 . S
C374 C371 1.487 . S
C374 C381 1.399 . S
C374 N412 1.343 . S
C375 C376 1.384 . S
C375 C377 1.384 . S
C375 H400 0.931 . S
C376 C375 1.384 . S
C376 C379 1.382 . S
C377 C375 1.384 . S
C377 C378 1.381 . S
C377 H401 0.930 . S
C378 C377 1.381 . S
C378 C380 1.381 . S
C378 C381 1.487 . S
C379 C376 1.382 . S
C379 C380 1.387 . S
C379 H402 0.930 . S
C380 C378 1.381 . S
C380 C379 1.387 . S
C380 H403 0.931 . S
C381 C374 1.399 . S
C381 C378 1.487 . S
C381 N413 1.343 . S
C382 C383 1.384 . S
C382 C384 1.384 . S
C382 H404 0.931 . S
C383 C382 1.384 . S
C383 C386 1.382 . S
C384 C382 1.384 . S
C384 C385 1.381 . S
C384 H405 0.930 . S
C385 C384 1.381 . S
C385 C387 1.381 . S
C385 C388 1.487 . S
C386 C383 1.382 . S
C386 C387 1.387 . S
C386 H406 0.930 . S
C387 C385 1.381 . S
C387 C386 1.387 . S
C387 H407 0.931 . S
C388 C385 1.487 . S
C388 C395 1.399 . S
C388 N413 1.343 . S
C389 C390 1.384 . S
C389 C391 1.384 . S
C389 H408 0.931 . S
C390 C389 1.384 . S
C390 C393 1.382 . S
C391 C389 1.384 . S
C391 C392 1.381 . S
C391 H409 0.930 . S
C392 C391 1.381 . S
C392 C394 1.381 . S
C392 C395 1.487 . S
C393 C390 1.382 . S
C393 C394 1.387 . S
C393 H410 0.930 . S
C394 C392 1.381 . S
C394 C393 1.387 . S
C394 H411 0.931 . S
C395 C388 1.399 . S
C395 C392 1.487 . S
C395 N412 1.343 . S
H396 C368 0.931 . S
H397 C370 0.930 . S
H398 C372 0.930 . S
H399 C373 0.931 . S
H400 C375 0.931 . S
H401 C377 0.930 . S
H402 C379 0.930 . S
H403 C380 0.931 . S
H404 C382 0.931 . S
H405 C384 0.930 . S
H406 C386 0.930 . S
H407 C387 0.931 . S
H408 C389 0.931 . S
H409 C391 0.930 . S
H410 C393 0.930 . S
H411 C394 0.931 . S
N412 C374 1.343 . S
N412 C395 1.343 . S
N413 C381 1.343 . S
N413 C388 1.343 . S
H414 C420 0.930 . S
H415 C424 0.930 . S
H416 C429 0.929 . S
H417 C427 0.929 . S
H418 C422 0.929 . S
H419 C428 0.929 . S
C420 H414 0.930 . S
C420 C421 1.367 . S
C420 C428 1.378 . S
C421 C420 1.367 . S
C421 C429 1.433 . S
C422 H418 0.929 . S
C422 C424 1.378 . S
C422 C426 1.350 . S
C423 C426 1.463 . S
C423 C428 1.350 . S
C423 N431 1.427 . S
C424 H415 0.930 . S
C424 C422 1.378 . S
C424 C425 1.367 . S
C425 C424 1.367 . S
C425 C427 1.433 . S
C426 C422 1.350 . S
C426 C423 1.463 . S
C426 N430 1.427 . S
C427 H417 0.929 . S
C427 C425 1.433 . S
C427 N430 1.384 . S
C428 H419 0.929 . S
C428 C420 1.378 . S
C428 C423 1.350 . S
C429 H416 0.929 . S
C429 C421 1.433 . S
C429 N431 1.384 . S
N430 C426 1.427 . S
N430 C427 1.384 . S
N431 C423 1.427 . S
N431 C429 1.384 . S
H432 C438 0.930 . S
H433 C442 0.930 . S
H434 C447 0.929 . S
H435 C445 0.929 . S
H436 C440 0.929 . S
H437 C446 0.929 . S
C438 H432 0.930 . S
C438 C439 1.367 . S
C438 C446 1.378 . S
C439 C438 1.367 . S
C439 C447 1.433 . S
C440 H436 0.929 . S
C440 C442 1.378 . S
C440 C444 1.350 . S
C441 C444 1.463 . S
C441 C446 1.350 . S
C441 N449 1.427 . S
C442 H433 0.930 . S
C442 C440 1.378 . S
C442 C443 1.367 . S
C443 C442 1.367 . S
C443 C445 1.433 . S
C444 C440 1.350 . S
C444 C441 1.463 . S
C444 N448 1.427 . S
C445 H435 0.929 . S
C445 C443 1.433 . S
C445 N448 1.384 . S
C446 H437 0.929 . S
C446 C438 1.378 . S
C446 C441 1.350 . S
C447 H434 0.929 . S
C447 C439 1.433 . S
C447 N449 1.384 . S
N448 C444 1.427 . S
N448 C445 1.384 . S
N449 C441 1.427 . S
N449 C447 1.384 . S
H450 C456 0.930 . S
H451 C460 0.930 . S
H452 C465 0.929 . S
H453 C463 0.929 . S
H454 C458 0.929 . S
H455 C464 0.929 . S
C456 H450 0.930 . S
C456 C457 1.367 . S
C456 C464 1.378 . S
C457 C456 1.367 . S
C457 C465 1.433 . S
C458 H454 0.929 . S
C458 C460 1.378 . S
C458 C462 1.350 . S
C459 C462 1.463 . S
C459 C464 1.350 . S
C459 N467 1.427 . S
C460 H451 0.930 . S
C460 C458 1.378 . S
C460 C461 1.367 . S
C461 C460 1.367 . S
C461 C463 1.433 . S
C462 C458 1.350 . S
C462 C459 1.463 . S
C462 N466 1.427 . S
C463 H453 0.929 . S
C463 C461 1.433 . S
C463 N466 1.384 . S
C464 H455 0.929 . S
C464 C456 1.378 . S
C464 C459 1.350 . S
C465 H452 0.929 . S
C465 C457 1.433 . S
C465 N467 1.384 . S
N466 C462 1.427 . S
N466 C463 1.384 . S
N467 C459 1.427 . S
N467 C465 1.384 . S
H468 C474 0.930 . S
H469 C478 0.930 . S
H470 C483 0.929 . S
H471 C481 0.929 . S
H472 C476 0.929 . S
H473 C482 0.929 . S
C474 H468 0.930 . S
C474 C475 1.367 . S
C474 C482 1.378 . S
C475 C474 1.367 . S
C475 C483 1.433 . S
C476 H472 0.929 . S
C476 C478 1.378 . S
C476 C480 1.350 . S
C477 C480 1.463 . S
C477 C482 1.350 . S
C477 N485 1.427 . S
C478 H469 0.930 . S
C478 C476 1.378 . S
C478 C479 1.367 . S
C479 C478 1.367 . S
C479 C481 1.433 . S
C480 C476 1.350 . S
C480 C477 1.463 . S
C480 N484 1.427 . S
C481 H471 0.929 . S
C481 C479 1.433 . S
C481 N484 1.384 . S
C482 H473 0.929 . S
C482 C474 1.378 . S
C482 C477 1.350 . S
C483 H470 0.929 . S
C483 C475 1.433 . S
C483 N485 1.384 . S
N484 C480 1.427 . S
N484 C481 1.384 . S
N485 C477 1.427 . S
N485 C483 1.384 . S
H486 C492 0.930 . S
H487 C496 0.930 . S
H488 C501 0.929 . S
H489 C499 0.929 . S
H490 C494 0.929 . S
H491 C500 0.929 . S
C492 H486 0.930 . S
C492 C493 1.367 . S
C492 C500 1.378 . S
C493 C492 1.367 . S
C493 C501 1.433 . S
C494 H490 0.929 . S
C494 C496 1.378 . S
C494 C498 1.350 . S
C495 C498 1.463 . S
C495 C500 1.350 . S
C495 N503 1.427 . S
C496 H487 0.930 . S
C496 C494 1.378 . S
C496 C497 1.367 . S
C497 C496 1.367 . S
C497 C499 1.433 . S
C498 C494 1.350 . S
C498 C495 1.463 . S
C498 N502 1.427 . S
C499 H489 0.929 . S
C499 C497 1.433 . S
C499 N502 1.384 . S
C500 H491 0.929 . S
C500 C492 1.378 . S
C500 C495 1.350 . S
C501 H488 0.929 . S
C501 C493 1.433 . S
C501 N503 1.384 . S
N502 C498 1.427 . S
N502 C499 1.384 . S
N503 C495 1.427 . S
N503 C501 1.384 . S
H504 C510 0.930 . S
H505 C514 0.930 . S
H506 C519 0.929 . S
H507 C517 0.929 . S
H508 C512 0.929 . S
H509 C518 0.929 . S
C510 H504 0.930 . S
C510 C511 1.367 . S
C510 C518 1.378 . S
C511 C510 1.367 . S
C511 C519 1.433 . S
C512 H508 0.929 . S
C512 C514 1.378 . S
C512 C516 1.350 . S
C513 C516 1.463 . S
C513 C518 1.350 . S
C513 N521 1.427 . S
C514 H505 0.930 . S
C514 C512 1.378 . S
C514 C515 1.367 . S
C515 C514 1.367 . S
C515 C517 1.433 . S
C516 C512 1.350 . S
C516 C513 1.463 . S
C516 N520 1.427 . S
C517 H507 0.929 . S
C517 C515 1.433 . S
C517 N520 1.384 . S
C518 H509 0.929 . S
C518 C510 1.378 . S
C518 C513 1.350 . S
C519 H506 0.929 . S
C519 C511 1.433 . S
C519 N521 1.384 . S
N520 C516 1.427 . S
N520 C517 1.384 . S
N521 C513 1.427 . S
N521 C519 1.384 . S
H522 C528 0.930 . S
H523 C532 0.930 . S
H524 C537 0.929 . S
H525 C535 0.929 . S
H526 C530 0.929 . S
H527 C536 0.929 . S
C528 H522 0.930 . S
C528 C529 1.367 . S
C528 C536 1.378 . S
C529 C528 1.367 . S
C529 C537 1.433 . S
C530 H526 0.929 . S
C530 C532 1.378 . S
C530 C534 1.350 . S
C531 C534 1.463 . S
C531 C536 1.350 . S
C531 N539 1.427 . S
C532 H523 0.930 . S
C532 C530 1.378 . S
C532 C533 1.367 . S
C533 C532 1.367 . S
C533 C535 1.433 . S
C534 C530 1.350 . S
C534 C531 1.463 . S
C534 N538 1.427 . S
C535 H525 0.929 . S
C535 C533 1.433 . S
C535 N538 1.384 . S
C536 H527 0.929 . S
C536 C528 1.378 . S
C536 C531 1.350 . S
C537 H524 0.929 . S
C537 C529 1.433 . S
C537 N539 1.384 . S
N538 C534 1.427 . S
N538 C535 1.384 . S
N539 C531 1.427 . S
N539 C537 1.384 . S
H540 C546 0.930 . S
H541 C550 0.930 . S
H542 C555 0.929 . S
H543 C553 0.929 . S
H544 C548 0.929 . S
H545 C554 0.929 . S
C546 H540 0.930 . S
C546 C547 1.367 . S
C546 C554 1.378 . S
C547 C546 1.367 . S
C547 C555 1.433 . S
C548 H544 0.929 . S
C548 C550 1.378 . S
C548 C552 1.350 . S
C549 C552 1.463 . S
C549 C554 1.350 . S
C549 N557 1.427 . S
C550 H541 0.930 . S
C550 C548 1.378 . S
C550 C551 1.367 . S
C551 C550 1.367 . S
C551 C553 1.433 . S
C552 C548 1.350 . S
C552 C549 1.463 . S
C552 N556 1.427 . S
C553 H543 0.929 . S
C553 C551 1.433 . S
C553 N556 1.384 . S
C554 H545 0.929 . S
C554 C546 1.378 . S
C554 C549 1.350 . S
C555 H542 0.929 . S
C555 C547 1.433 . S
C555 N557 1.384 . S
N556 C552 1.427 . S
N556 C553 1.384 . S
N557 C549 1.427 . S
N557 C555 1.384 . S
H558 C564 0.930 . S
H559 C568 0.930 . S
H560 C573 0.929 . S
H561 C571 0.929 . S
H562 C566 0.929 . S
H563 C572 0.929 . S
C564 H558 0.930 . S
C564 C565 1.367 . S
C564 C572 1.378 . S
C565 C564 1.367 . S
C565 C573 1.433 . S
C566 H562 0.929 . S
C566 C568 1.378 . S
C566 C570 1.350 . S
C567 C570 1.463 . S
C567 C572 1.350 . S
C567 N575 1.427 . S
C568 H559 0.930 . S
C568 C566 1.378 . S
C568 C569 1.367 . S
C569 C568 1.367 . S
C569 C571 1.433 . S
C570 C566 1.350 . S
C570 C567 1.463 . S
C570 N574 1.427 . S
C571 H561 0.929 . S
C571 C569 1.433 . S
C571 N574 1.384 . S
C572 H563 0.929 . S
C572 C564 1.378 . S
C572 C567 1.350 . S
C573 H560 0.929 . S
C573 C565 1.433 . S
C573 N575 1.384 . S
N574 C570 1.427 . S
N574 C571 1.384 . S
N575 C567 1.427 . S
N575 C573 1.384 . S
H576 C582 0.930 . S
H577 C586 0.930 . S
H578 C591 0.929 . S
H579 C589 0.929 . S
H580 C584 0.929 . S
H581 C590 0.929 . S
C582 H576 0.930 . S
C582 C583 1.367 . S
C582 C590 1.378 . S
C583 C582 1.367 . S
C583 C591 1.433 . S
C584 H580 0.929 . S
C584 C586 1.378 . S
C584 C588 1.350 . S
C585 C588 1.463 . S
C585 C590 1.350 . S
C585 N593 1.427 . S
C586 H577 0.930 . S
C586 C584 1.378 . S
C586 C587 1.367 . S
C587 C586 1.367 . S
C587 C589 1.433 . S
C588 C584 1.350 . S
C588 C585 1.463 . S
C588 N592 1.427 . S
C589 H579 0.929 . S
C589 C587 1.433 . S
C589 N592 1.384 . S
C590 H581 0.929 . S
C590 C582 1.378 . S
C590 C585 1.350 . S
C591 H578 0.929 . S
C591 C583 1.433 . S
C591 N593 1.384 . S
N592 C588 1.427 . S
N592 C589 1.384 . S
N593 C585 1.427 . S
N593 C591 1.384 . S
H594 C600 0.930 . S
H595 C604 0.930 . S
H596 C609 0.929 . S
H597 C607 0.929 . S
H598 C602 0.929 . S
H599 C608 0.929 . S
C600 H594 0.930 . S
C600 C601 1.367 . S
C600 C608 1.378 . S
C601 C600 1.367 . S
C601 C609 1.433 . S
C602 H598 0.929 . S
C602 C604 1.378 . S
C602 C606 1.350 . S
C603 C606 1.463 . S
C603 C608 1.350 . S
C603 N611 1.427 . S
C604 H595 0.930 . S
C604 C602 1.378 . S
C604 C605 1.367 . S
C605 C604 1.367 . S
C605 C607 1.433 . S
C606 C602 1.350 . S
C606 C603 1.463 . S
C606 N610 1.427 . S
C607 H597 0.929 . S
C607 C605 1.433 . S
C607 N610 1.384 . S
C608 H599 0.929 . S
C608 C600 1.378 . S
C608 C603 1.350 . S
C609 H596 0.929 . S
C609 C601 1.433 . S
C609 N611 1.384 . S
N610 C606 1.427 . S
N610 C607 1.384 . S
N611 C603 1.427 . S
N611 C609 1.384 . S
H612 C618 0.930 . S
H613 C622 0.930 . S
H614 C627 0.929 . S
H615 C625 0.929 . S
H616 C620 0.929 . S
H617 C626 0.929 . S
C618 H612 0.930 . S
C618 C619 1.367 . S
C618 C626 1.378 . S
C619 C618 1.367 . S
C619 C627 1.433 . S
C620 H616 0.929 . S
C620 C622 1.378 . S
C620 C624 1.350 . S
C621 C624 1.463 . S
C621 C626 1.350 . S
C621 N629 1.427 . S
C622 H613 0.930 . S
C622 C620 1.378 . S
C622 C623 1.367 . S
C623 C622 1.367 . S
C623 C625 1.433 . S
C624 C620 1.350 . S
C624 C621 1.463 . S
C624 N628 1.427 . S
C625 H615 0.929 . S
C625 C623 1.433 . S
C625 N628 1.384 . S
C626 H617 0.929 . S
C626 C618 1.378 . S
C626 C621 1.350 . S
C627 H614 0.929 . S
C627 C619 1.433 . S
C627 N629 1.384 . S
N628 C624 1.427 . S
N628 C625 1.384 . S
N629 C621 1.427 . S
N629 C627 1.384 . S
H630 C636 0.930 . S
H631 C640 0.930 . S
H632 C645 0.929 . S
H633 C643 0.929 . S
H634 C638 0.929 . S
H635 C644 0.929 . S
C636 H630 0.930 . S
C636 C637 1.367 . S
C636 C644 1.378 . S
C637 C636 1.367 . S
C637 C645 1.433 . S
C638 H634 0.929 . S
C638 C640 1.378 . S
C638 C642 1.350 . S
C639 C642 1.463 . S
C639 C644 1.350 . S
C639 N647 1.427 . S
C640 H631 0.930 . S
C640 C638 1.378 . S
C640 C641 1.367 . S
C641 C640 1.367 . S
C641 C643 1.433 . S
C642 C638 1.350 . S
C642 C639 1.463 . S
C642 N646 1.427 . S
C643 H633 0.929 . S
C643 C641 1.433 . S
C643 N646 1.384 . S
C644 H635 0.929 . S
C644 C636 1.378 . S
C644 C639 1.350 . S
C645 H632 0.929 . S
C645 C637 1.433 . S
C645 N647 1.384 . S
N646 C642 1.427 . S
N646 C643 1.384 . S
N647 C639 1.427 . S
N647 C645 1.384 . S
H648 C654 0.930 . S
H649 C658 0.930 . S
H650 C663 0.929 . S
H651 C661 0.929 . S
H652 C656 0.929 . S
H653 C662 0.929 . S
C654 H648 0.930 . S
C654 C655 1.367 . S
C654 C662 1.378 . S
C655 C654 1.367 . S
C655 C663 1.433 . S
C656 H652 0.929 . S
C656 C658 1.378 . S
C656 C660 1.350 . S
C657 C660 1.463 . S
C657 C662 1.350 . S
C657 N665 1.427 . S
C658 H649 0.930 . S
C658 C656 1.378 . S
C658 C659 1.367 . S
C659 C658 1.367 . S
C659 C661 1.433 . S
C660 C656 1.350 . S
C660 C657 1.463 . S
C660 N664 1.427 . S
C661 H651 0.929 . S
C661 C659 1.433 . S
C661 N664 1.384 . S
C662 H653 0.929 . S
C662 C654 1.378 . S
C662 C657 1.350 . S
C663 H650 0.929 . S
C663 C655 1.433 . S
C663 N665 1.384 . S
N664 C660 1.427 . S
N664 C661 1.384 . S
N665 C657 1.427 . S
N665 C663 1.384 . S
H666 C672 0.930 . S
H667 C676 0.930 . S
H668 C681 0.929 . S
H669 C679 0.929 . S
H670 C674 0.929 . S
H671 C680 0.929 . S
C672 H666 0.930 . S
C672 C673 1.367 . S
C672 C680 1.378 . S
C673 C672 1.367 . S
C673 C681 1.433 . S
C674 H670 0.929 . S
C674 C676 1.378 . S
C674 C678 1.350 . S
C675 C678 1.463 . S
C675 C680 1.350 . S
C675 N683 1.427 . S
C676 H667 0.930 . S
C676 C674 1.378 . S
C676 C677 1.367 . S
C677 C676 1.367 . S
C677 C679 1.433 . S
C678 C674 1.350 . S
C678 C675 1.463 . S
C678 N682 1.427 . S
C679 H669 0.929 . S
C679 C677 1.433 . S
C679 N682 1.384 . S
C680 H671 0.929 . S
C680 C672 1.378 . S
C680 C675 1.350 . S
C681 H668 0.929 . S
C681 C673 1.433 . S
C681 N683 1.384 . S
N682 C678 1.427 . S
N682 C679 1.384 . S
N683 C675 1.427 . S
N683 C681 1.384 . S
H684 C690 0.930 . S
H685 C694 0.930 . S
H686 C699 0.929 . S
H687 C697 0.929 . S
H688 C692 0.929 . S
H689 C698 0.929 . S
C690 H684 0.930 . S
C690 C691 1.367 . S
C690 C698 1.378 . S
C691 C690 1.367 . S
C691 C699 1.433 . S
C692 H688 0.929 . S
C692 C694 1.378 . S
C692 C696 1.350 . S
C693 C696 1.463 . S
C693 C698 1.350 . S
C693 N701 1.427 . S
C694 H685 0.930 . S
C694 C692 1.378 . S
C694 C695 1.367 . S
C695 C694 1.367 . S
C695 C697 1.433 . S
C696 C692 1.350 . S
C696 C693 1.463 . S
C696 N700 1.427 . S
C697 H687 0.929 . S
C697 C695 1.433 . S
C697 N700 1.384 . S
C698 H689 0.929 . S
C698 C690 1.378 . S
C698 C693 1.350 . S
C699 H686 0.929 . S
C699 C691 1.433 . S
C699 N701 1.384 . S
N700 C696 1.427 . S
N700 C697 1.384 . S
N701 C693 1.427 . S
N701 C699 1.384 . S
H702 C708 0.930 . S
H703 C712 0.930 . S
H704 C717 0.929 . S
H705 C715 0.929 . S
H706 C710 0.929 . S
H707 C716 0.929 . S
C708 H702 0.930 . S
C708 C709 1.367 . S
C708 C716 1.378 . S
C709 C708 1.367 . S
C709 C717 1.433 . S
C710 H706 0.929 . S
C710 C712 1.378 . S
C710 C714 1.350 . S
C711 C714 1.463 . S
C711 C716 1.350 . S
C711 N719 1.427 . S
C712 H703 0.930 . S
C712 C710 1.378 . S
C712 C713 1.367 . S
C713 C712 1.367 . S
C713 C715 1.433 . S
C714 C710 1.350 . S
C714 C711 1.463 . S
C714 N718 1.427 . S
C715 H705 0.929 . S
C715 C713 1.433 . S
C715 N718 1.384 . S
C716 H707 0.929 . S
C716 C708 1.378 . S
C716 C711 1.350 . S
C717 H704 0.929 . S
C717 C709 1.433 . S
C717 N719 1.384 . S
N718 C714 1.427 . S
N718 C715 1.384 . S
N719 C711 1.427 . S
N719 C717 1.384 . S
H720 C726 0.930 . S
H721 C730 0.930 . S
H722 C735 0.929 . S
H723 C733 0.929 . S
H724 C728 0.929 . S
H725 C734 0.929 . S
C726 H720 0.930 . S
C726 C727 1.367 . S
C726 C734 1.378 . S
C727 C726 1.367 . S
C727 C735 1.433 . S
C728 H724 0.929 . S
C728 C730 1.378 . S
C728 C732 1.350 . S
C729 C732 1.463 . S
C729 C734 1.350 . S
C729 N737 1.427 . S
C730 H721 0.930 . S
C730 C728 1.378 . S
C730 C731 1.367 . S
C731 C730 1.367 . S
C731 C733 1.433 . S
C732 C728 1.350 . S
C732 C729 1.463 . S
C732 N736 1.427 . S
C733 H723 0.929 . S
C733 C731 1.433 . S
C733 N736 1.384 . S
C734 H725 0.929 . S
C734 C726 1.378 . S
C734 C729 1.350 . S
C735 H722 0.929 . S
C735 C727 1.433 . S
C735 N737 1.384 . S
N736 C732 1.427 . S
N736 C733 1.384 . S
N737 C729 1.427 . S
N737 C735 1.384 . S
H738 C744 0.930 . S
H739 C748 0.930 . S
H740 C753 0.929 . S
H741 C751 0.929 . S
H742 C746 0.929 . S
H743 C752 0.929 . S
C744 H738 0.930 . S
C744 C745 1.367 . S
C744 C752 1.378 . S
C745 C744 1.367 . S
C745 C753 1.433 . S
C746 H742 0.929 . S
C746 C748 1.378 . S
C746 C750 1.350 . S
C747 C750 1.463 . S
C747 C752 1.350 . S
C747 N755 1.427 . S
C748 H739 0.930 . S
C748 C746 1.378 . S
C748 C749 1.367 . S
C749 C748 1.367 . S
C749 C751 1.433 . S
C750 C746 1.350 . S
C750 C747 1.463 . S
C750 N754 1.427 . S
C751 H741 0.929 . S
C751 C749 1.433 . S
C751 N754 1.384 . S
C752 H743 0.929 . S
C752 C744 1.378 . S
C752 C747 1.350 . S
C753 H740 0.929 . S
C753 C745 1.433 . S
C753 N755 1.384 . S
N754 C750 1.427 . S
N754 C751 1.384 . S
N755 C747 1.427 . S
N755 C753 1.384 . S
H756 C762 0.930 . S
H757 C766 0.930 . S
H758 C771 0.929 . S
H759 C769 0.929 . S
H760 C764 0.929 . S
H761 C770 0.929 . S
C762 H756 0.930 . S
C762 C763 1.367 . S
C762 C770 1.378 . S
C763 C762 1.367 . S
C763 C771 1.433 . S
C764 H760 0.929 . S
C764 C766 1.378 . S
C764 C768 1.350 . S
C765 C768 1.463 . S
C765 C770 1.350 . S
C765 N773 1.427 . S
C766 H757 0.930 . S
C766 C764 1.378 . S
C766 C767 1.367 . S
C767 C766 1.367 . S
C767 C769 1.433 . S
C768 C764 1.350 . S
C768 C765 1.463 . S
C768 N772 1.427 . S
C769 H759 0.929 . S
C769 C767 1.433 . S
C769 N772 1.384 . S
C770 H761 0.929 . S
C770 C762 1.378 . S
C770 C765 1.350 . S
C771 H758 0.929 . S
C771 C763 1.433 . S
C771 N773 1.384 . S
N772 C768 1.427 . S
N772 C769 1.384 . S
N773 C765 1.427 . S
N773 C771 1.384 . S
H774 C780 0.930 . S
H775 C784 0.930 . S
H776 C789 0.929 . S
H777 C787 0.929 . S
H778 C782 0.929 . S
H779 C788 0.929 . S
C780 H774 0.930 . S
C780 C781 1.367 . S
C780 C788 1.378 . S
C781 C780 1.367 . S
C781 C789 1.433 . S
C782 H778 0.929 . S
C782 C784 1.378 . S
C782 C786 1.350 . S
C783 C786 1.463 . S
C783 C788 1.350 . S
C783 N791 1.427 . S
C784 H775 0.930 . S
C784 C782 1.378 . S
C784 C785 1.367 . S
C785 C784 1.367 . S
C785 C787 1.433 . S
C786 C782 1.350 . S
C786 C783 1.463 . S
C786 N790 1.427 . S
C787 H777 0.929 . S
C787 C785 1.433 . S
C787 N790 1.384 . S
C788 H779 0.929 . S
C788 C780 1.378 . S
C788 C783 1.350 . S
C789 H776 0.929 . S
C789 C781 1.433 . S
C789 N791 1.384 . S
N790 C786 1.427 . S
N790 C787 1.384 . S
N791 C783 1.427 . S
N791 C789 1.384 . S
H792 C798 0.930 . S
H793 C802 0.930 . S
H794 C807 0.929 . S
H795 C805 0.929 . S
H796 C800 0.929 . S
H797 C806 0.929 . S
C798 H792 0.930 . S
C798 C799 1.367 . S
C798 C806 1.378 . S
C799 C798 1.367 . S
C799 C807 1.433 . S
C800 H796 0.929 . S
C800 C802 1.378 . S
C800 C804 1.350 . S
C801 C804 1.463 . S
C801 C806 1.350 . S
C801 N809 1.427 . S
C802 H793 0.930 . S
C802 C800 1.378 . S
C802 C803 1.367 . S
C803 C802 1.367 . S
C803 C805 1.433 . S
C804 C800 1.350 . S
C804 C801 1.463 . S
C804 N808 1.427 . S
C805 H795 0.929 . S
C805 C803 1.433 . S
C805 N808 1.384 . S
C806 H797 0.929 . S
C806 C798 1.378 . S
C806 C801 1.350 . S
C807 H794 0.929 . S
C807 C799 1.433 . S
C807 N809 1.384 . S
N808 C804 1.427 . S
N808 C805 1.384 . S
N809 C801 1.427 . S
N809 C807 1.384 . S
H810 C816 0.930 . S
H811 C820 0.930 . S
H812 C825 0.929 . S
H813 C823 0.929 . S
H814 C818 0.929 . S
H815 C824 0.929 . S
C816 H810 0.930 . S
C816 C817 1.367 . S
C816 C824 1.378 . S
C817 C816 1.367 . S
C817 C825 1.433 . S
C818 H814 0.929 . S
C818 C820 1.378 . S
C818 C822 1.350 . S
C819 C822 1.463 . S
C819 C824 1.350 . S
C819 N827 1.427 . S
C820 H811 0.930 . S
C820 C818 1.378 . S
C820 C821 1.367 . S
C821 C820 1.367 . S
C821 C823 1.433 . S
C822 C818 1.350 . S
C822 C819 1.463 . S
C822 N826 1.427 . S
C823 H813 0.929 . S
C823 C821 1.433 . S
C823 N826 1.384 . S
C824 H815 0.929 . S
C824 C816 1.378 . S
C824 C819 1.350 . S
C825 H812 0.929 . S
C825 C817 1.433 . S
C825 N827 1.384 . S
N826 C822 1.427 . S
N826 C823 1.384 . S
N827 C819 1.427 . S
N827 C825 1.384 . S
H828 C834 0.930 . S
H829 C838 0.930 . S
H830 C843 0.929 . S
H831 C841 0.929 . S
H832 C836 0.929 . S
H833 C842 0.929 . S
C834 H828 0.930 . S
C834 C835 1.367 . S
C834 C842 1.378 . S
C835 C834 1.367 . S
C835 C843 1.433 . S
C836 H832 0.929 . S
C836 C838 1.378 . S
C836 C840 1.350 . S
C837 C840 1.463 . S
C837 C842 1.350 . S
C837 N845 1.427 . S
C838 H829 0.930 . S
C838 C836 1.378 . S
C838 C839 1.367 . S
C839 C838 1.367 . S
C839 C841 1.433 . S
C840 C836 1.350 . S
C840 C837 1.463 . S
C840 N844 1.427 . S
C841 H831 0.929 . S
C841 C839 1.433 . S
C841 N844 1.384 . S
C842 H833 0.929 . S
C842 C834 1.378 . S
C842 C837 1.350 . S
C843 H830 0.929 . S
C843 C835 1.433 . S
C843 N845 1.384 . S
N844 C840 1.427 . S
N844 C841 1.384 . S
N845 C837 1.427 . S
N845 C843 1.384 . S
C421 C7 1.875 . S
C425 C160 1.856 . S
C439 C30 1.651 . S
C443 C199 1.637 . S
C461 C231 1.731 . S
C457 N58 1.710 . S
C479 C277 1.499 . S
C475 N81 1.471 . S
C497 C344 1.777 . S
C493 C99 1.789 . S
C515 C383 1.542 . S
C511 N127 1.508 . S
C529 N25 1.717 . S
C533 C245 1.744 . S
C547 C62 1.636 . S
C551 C291 1.621 . S
C569 C330 1.794 . S
C565 C85 1.819 . S
C587 C369 1.528 . S
C583 N94 1.530 . S
C601 C131 1.826 . S
C605 C146 1.790 . S
C623 C185 1.497 . S
C619 N2 1.480 . S
C641 C284 1.810 . S
C637 C16 1.821 . S
C655 C39 1.604 . S
C659 C337 1.589 . S
C677 C390 1.721 . S
C673 N48 1.702 . S
C691 N71 1.467 . S
C695 C153 1.487 . S
C709 C108 1.781 . S
C713 C206 1.767 . S
C727 N117 1.487 . S
C731 C238 1.521 . S
C745 N35 1.706 . S
C749 C376 1.738 . S
C767 C139 1.626 . S
C763 C53 1.642 . S
C781 C76 1.852 . S
C785 C192 1.835 . S
C799 N104 1.497 . S
C803 C252 1.512 . S
C817 C122 1.774 . S
C821 C298 1.750 . S
C835 N12 1.449 . S
C839 C323 1.482 . S
