# Generated by pormake.
# Topology ptr, (4,4)-cn, num edge types: 1
# Building blocks:
#     Node 0, Type 0, BuildingBlock: QUQFOY_clean_sbu_1, # of connection points: 4
#     Node 1, Type 0, BuildingBlock: QUQFOY_clean_sbu_1, # of connection points: 4
#     Node 2, Type 0, BuildingBlock: QUQFOY_clean_sbu_1, # of connection points: 4
#     Node 3, Type 0, BuildingBlock: QUQFOY_clean_sbu_1, # of connection points: 4
#     Node 4, Type 0, BuildingBlock: QUQFOY_clean_sbu_1, # of connection points: 4
#     Node 5, Type 0, BuildingBlock: QUQFOY_clean_sbu_1, # of connection points: 4
#     Node 6, Type 0, BuildingBlock: QUQFOY_clean_sbu_1, # of connection points: 4
#     Node 7, Type 0, BuildingBlock: QUQFOY_clean_sbu_1, # of connection points: 4
#     Node 8, Type 0, BuildingBlock: QUQFOY_clean_sbu_1, # of connection points: 4
#     Node 9, Type 0, BuildingBlock: QUQFOY_clean_sbu_1, # of connection points: 4
#     Node 10, Type 0, BuildingBlock: QUQFOY_clean_sbu_1, # of connection points: 4
#     Node 11, Type 0, BuildingBlock: QUQFOY_clean_sbu_1, # of connection points: 4
#     Node 12, Type 0, BuildingBlock: QUQFOY_clean_sbu_1, # of connection points: 4
#     Node 13, Type 0, BuildingBlock: QUQFOY_clean_sbu_1, # of connection points: 4
#     Node 14, Type 0, BuildingBlock: QUQFOY_clean_sbu_1, # of connection points: 4
#     Node 15, Type 0, BuildingBlock: QUQFOY_clean_sbu_1, # of connection points: 4
#     Node 16, Type 0, BuildingBlock: QUQFOY_clean_sbu_1, # of connection points: 4
#     Node 17, Type 0, BuildingBlock: QUQFOY_clean_sbu_1, # of connection points: 4
#     Node 18, Type 1, BuildingBlock: MUDLON_clean_linker_0, # of connection points: 4
#     Node 19, Type 1, BuildingBlock: MUDLON_clean_linker_0, # of connection points: 4
#     Node 20, Type 1, BuildingBlock: MUDLON_clean_linker_0, # of connection points: 4
#     Node 21, Type 1, BuildingBlock: MUDLON_clean_linker_0, # of connection points: 4
#     Node 22, Type 1, BuildingBlock: MUDLON_clean_linker_0, # of connection points: 4
#     Node 23, Type 1, BuildingBlock: MUDLON_clean_linker_0, # of connection points: 4
#     Node 24, Type 1, BuildingBlock: MUDLON_clean_linker_0, # of connection points: 4
#     Node 25, Type 1, BuildingBlock: MUDLON_clean_linker_0, # of connection points: 4
#     Node 26, Type 1, BuildingBlock: MUDLON_clean_linker_0, # of connection points: 4
#     Node 27, Type 1, BuildingBlock: MUDLON_clean_linker_0, # of connection points: 4
#     Node 28, Type 1, BuildingBlock: MUDLON_clean_linker_0, # of connection points: 4
#     Node 29, Type 1, BuildingBlock: MUDLON_clean_linker_0, # of connection points: 4
#     Node 30, Type 1, BuildingBlock: MUDLON_clean_linker_0, # of connection points: 4
#     Node 31, Type 1, BuildingBlock: MUDLON_clean_linker_0, # of connection points: 4
#     Node 32, Type 1, BuildingBlock: MUDLON_clean_linker_0, # of connection points: 4
#     Node 33, Type 1, BuildingBlock: MUDLON_clean_linker_0, # of connection points: 4
#     Node 34, Type 1, BuildingBlock: MUDLON_clean_linker_0, # of connection points: 4
#     Node 35, Type 1, BuildingBlock: MUDLON_clean_linker_0, # of connection points: 4
#     Edge 36, Type (0, 1), BuildingBlock: OJICUG_clean_linker_0, # of connection points: 2
#     Edge 37, Type (0, 1), BuildingBlock: OJICUG_clean_linker_0, # of connection points: 2
#     Edge 38, Type (0, 1), BuildingBlock: OJICUG_clean_linker_0, # of connection points: 2
#     Edge 39, Type (0, 1), BuildingBlock: OJICUG_clean_linker_0, # of connection points: 2
#     Edge 40, Type (0, 1), BuildingBlock: OJICUG_clean_linker_0, # of connection points: 2
#     Edge 41, Type (0, 1), BuildingBlock: OJICUG_clean_linker_0, # of connection points: 2
#     Edge 42, Type (0, 1), BuildingBlock: OJICUG_clean_linker_0, # of connection points: 2
#     Edge 43, Type (0, 1), BuildingBlock: OJICUG_clean_linker_0, # of connection points: 2
#     Edge 44, Type (0, 1), BuildingBlock: OJICUG_clean_linker_0, # of connection points: 2
#     Edge 45, Type (0, 1), BuildingBlock: OJICUG_clean_linker_0, # of connection points: 2
#     Edge 46, Type (0, 1), BuildingBlock: OJICUG_clean_linker_0, # of connection points: 2
#     Edge 47, Type (0, 1), BuildingBlock: OJICUG_clean_linker_0, # of connection points: 2
#     Edge 48, Type (0, 1), BuildingBlock: OJICUG_clean_linker_0, # of connection points: 2
#     Edge 49, Type (0, 1), BuildingBlock: OJICUG_clean_linker_0, # of connection points: 2
#     Edge 50, Type (0, 1), BuildingBlock: OJICUG_clean_linker_0, # of connection points: 2
#     Edge 51, Type (0, 1), BuildingBlock: OJICUG_clean_linker_0, # of connection points: 2
#     Edge 52, Type (0, 1), BuildingBlock: OJICUG_clean_linker_0, # of connection points: 2
#     Edge 53, Type (0, 1), BuildingBlock: OJICUG_clean_linker_0, # of connection points: 2
#     Edge 54, Type (0, 1), BuildingBlock: OJICUG_clean_linker_0, # of connection points: 2
#     Edge 55, Type (0, 1), BuildingBlock: OJICUG_clean_linker_0, # of connection points: 2
#     Edge 56, Type (0, 1), BuildingBlock: OJICUG_clean_linker_0, # of connection points: 2
#     Edge 57, Type (0, 1), BuildingBlock: OJICUG_clean_linker_0, # of connection points: 2
#     Edge 58, Type (0, 1), BuildingBlock: OJICUG_clean_linker_0, # of connection points: 2
#     Edge 59, Type (0, 1), BuildingBlock: OJICUG_clean_linker_0, # of connection points: 2
#     Edge 60, Type (0, 1), BuildingBlock: OJICUG_clean_linker_0, # of connection points: 2
#     Edge 61, Type (0, 1), BuildingBlock: OJICUG_clean_linker_0, # of connection points: 2
#     Edge 62, Type (0, 1), BuildingBlock: OJICUG_clean_linker_0, # of connection points: 2
#     Edge 63, Type (0, 1), BuildingBlock: OJICUG_clean_linker_0, # of connection points: 2
#     Edge 64, Type (0, 1), BuildingBlock: OJICUG_clean_linker_0, # of connection points: 2
#     Edge 65, Type (0, 1), BuildingBlock: OJICUG_clean_linker_0, # of connection points: 2
#     Edge 66, Type (0, 1), BuildingBlock: OJICUG_clean_linker_0, # of connection points: 2
#     Edge 67, Type (0, 1), BuildingBlock: OJICUG_clean_linker_0, # of connection points: 2
#     Edge 68, Type (0, 1), BuildingBlock: OJICUG_clean_linker_0, # of connection points: 2
#     Edge 69, Type (0, 1), BuildingBlock: OJICUG_clean_linker_0, # of connection points: 2
#     Edge 70, Type (0, 1), BuildingBlock: OJICUG_clean_linker_0, # of connection points: 2
#     Edge 71, Type (0, 1), BuildingBlock: OJICUG_clean_linker_0, # of connection points: 2
#     Edge 72, Type (0, 1), BuildingBlock: OJICUG_clean_linker_0, # of connection points: 2
#     Edge 73, Type (0, 1), BuildingBlock: OJICUG_clean_linker_0, # of connection points: 2
#     Edge 74, Type (0, 1), BuildingBlock: OJICUG_clean_linker_0, # of connection points: 2
#     Edge 75, Type (0, 1), BuildingBlock: OJICUG_clean_linker_0, # of connection points: 2
#     Edge 76, Type (0, 1), BuildingBlock: OJICUG_clean_linker_0, # of connection points: 2
#     Edge 77, Type (0, 1), BuildingBlock: OJICUG_clean_linker_0, # of connection points: 2
#     Edge 78, Type (0, 1), BuildingBlock: OJICUG_clean_linker_0, # of connection points: 2
#     Edge 79, Type (0, 1), BuildingBlock: OJICUG_clean_linker_0, # of connection points: 2
#     Edge 80, Type (0, 1), BuildingBlock: OJICUG_clean_linker_0, # of connection points: 2
#     Edge 81, Type (0, 1), BuildingBlock: OJICUG_clean_linker_0, # of connection points: 2
#     Edge 82, Type (0, 1), BuildingBlock: OJICUG_clean_linker_0, # of connection points: 2
#     Edge 83, Type (0, 1), BuildingBlock: OJICUG_clean_linker_0, # of connection points: 2
#     Edge 84, Type (0, 1), BuildingBlock: OJICUG_clean_linker_0, # of connection points: 2
#     Edge 85, Type (0, 1), BuildingBlock: OJICUG_clean_linker_0, # of connection points: 2
#     Edge 86, Type (0, 1), BuildingBlock: OJICUG_clean_linker_0, # of connection points: 2
#     Edge 87, Type (0, 1), BuildingBlock: OJICUG_clean_linker_0, # of connection points: 2
#     Edge 88, Type (0, 1), BuildingBlock: OJICUG_clean_linker_0, # of connection points: 2
#     Edge 89, Type (0, 1), BuildingBlock: OJICUG_clean_linker_0, # of connection points: 2
#     Edge 90, Type (0, 1), BuildingBlock: OJICUG_clean_linker_0, # of connection points: 2
#     Edge 91, Type (0, 1), BuildingBlock: OJICUG_clean_linker_0, # of connection points: 2
#     Edge 92, Type (0, 1), BuildingBlock: OJICUG_clean_linker_0, # of connection points: 2
#     Edge 93, Type (0, 1), BuildingBlock: OJICUG_clean_linker_0, # of connection points: 2
#     Edge 94, Type (0, 1), BuildingBlock: OJICUG_clean_linker_0, # of connection points: 2
#     Edge 95, Type (0, 1), BuildingBlock: OJICUG_clean_linker_0, # of connection points: 2
#     Edge 96, Type (0, 1), BuildingBlock: OJICUG_clean_linker_0, # of connection points: 2
#     Edge 97, Type (0, 1), BuildingBlock: OJICUG_clean_linker_0, # of connection points: 2
#     Edge 98, Type (0, 1), BuildingBlock: OJICUG_clean_linker_0, # of connection points: 2
#     Edge 99, Type (0, 1), BuildingBlock: OJICUG_clean_linker_0, # of connection points: 2
#     Edge 100, Type (0, 1), BuildingBlock: OJICUG_clean_linker_0, # of connection points: 2
#     Edge 101, Type (0, 1), BuildingBlock: OJICUG_clean_linker_0, # of connection points: 2
#     Edge 102, Type (0, 1), BuildingBlock: OJICUG_clean_linker_0, # of connection points: 2
#     Edge 103, Type (0, 1), BuildingBlock: OJICUG_clean_linker_0, # of connection points: 2
#     Edge 104, Type (0, 1), BuildingBlock: OJICUG_clean_linker_0, # of connection points: 2
#     Edge 105, Type (0, 1), BuildingBlock: OJICUG_clean_linker_0, # of connection points: 2
#     Edge 106, Type (0, 1), BuildingBlock: OJICUG_clean_linker_0, # of connection points: 2
#     Edge 107, Type (0, 1), BuildingBlock: OJICUG_clean_linker_0, # of connection points: 2
# Relax obj value: 0.011
# Max RMSD: 0.038
# Mean RMSD: 0.035
data_MOF--net-ptr--node1-QUQFOY_clean_sbu_1--node2-MUDLON_clean_linker_0--edge1-OJICUG_clean_linker_0
_symmetry_space_group_name_H-M    P1
_symmetry_Int_Tables_number       1
_symmetry_cell_setting            triclinic
loop_
_symmetry_equiv_pos_as_xyz
'x, y, z'
_cell_length_a     86.001899
_cell_length_b     86.005837
_cell_length_c     51.350382
_cell_angle_alpha  89.995751
_cell_angle_beta   90.009936
_cell_angle_gamma 119.98895
loop_
_atom_site_label
_atom_site_type_symbol
_atom_site_fract_x
_atom_site_fract_y
_atom_site_fract_z
_atom_type_partial_charge
O0 O 0.02563 0.40104 0.05523 0.0
Cd1 Cd 0.03305 0.39107 0.02411 0.0
Cd2 Cd 0.99669 0.37112 0.01837 0.0
O3 O 0.99661 0.38146 0.05498 0.0
O4 O 0.05809 0.3969 0.03238 0.0
O5 O 0.03531 0.36909 0.0293 0.0
C6 C 0.05209 0.37987 0.03436 0.0
C7 C 0.97859 0.34052 0.009 0.0
C8 C 0.01019 0.39466 0.06551 0.0
C9 C 0.01822 0.39825 0.97624 0.0
O10 O 1.0029 0.38772 0.98614 0.0
O11 O 0.03246 0.40083 0.98761 0.0
O12 O 0.97184 0.35085 0.01178 0.0
O13 O 0.99565 0.34742 0.01274 0.0
O14 O 0.62863 0.63083 0.05537 0.0
Cd15 Cd 0.63933 0.64732 0.02316 0.0
Cd16 Cd 0.6557 0.62748 0.01773 0.0
O17 O 0.64545 0.61811 0.05449 0.0
O18 O 0.63522 0.66803 0.02899 0.0
O19 O 0.66217 0.6707 0.02919 0.0
C20 C 0.65231 0.678 0.03229 0.0
C21 C 0.68618 0.64064 0.00756 0.0
C22 C 0.63359 0.62053 0.06559 0.0
C23 C 0.62953 0.62344 0.9761 0.0
O24 O 0.63836 0.61687 0.9866 0.0
O25 O 0.62931 0.63677 0.98651 0.0
O26 O 0.67632 0.6235 0.01055 0.0
O27 O 0.67886 0.6504 0.01155 0.0
O28 O 0.40288 0.01889 0.98165 0.0
Cd29 Cd 0.39391 0.02637 0.01413 0.0
Cd30 Cd 0.37584 0.98996 0.02099 0.0
O31 O 0.38518 0.98955 0.98403 0.0
O32 O 0.40017 0.05162 0.00609 0.0
O33 O 0.37222 0.02938 0.01031 0.0
C34 C 0.38321 0.04605 0.00494 0.0
C35 C 0.34545 0.97351 0.03193 0.0
C36 C 0.39714 1.00332 0.97211 0.0
C37 C 0.4034 0.01212 0.06137 0.0
O38 O 0.39355 0.99659 0.05169 0.0
O39 O 0.40451 0.02592 0.05036 0.0
O40 O 0.35481 0.96572 0.02863 0.0
O41 O 0.35321 0.99063 0.02796 0.0
O42 O 1.0024 0.61941 0.98787 0.0
Cd43 Cd 0.99646 0.63099 0.01872 0.0
Cd44 Cd 0.03225 0.6501 0.02233 0.0
O45 O 0.03085 0.64051 0.98479 0.0
O46 O 0.97175 0.62696 0.01242 0.0
O47 O 0.99617 0.6538 0.01155 0.0
C48 C 0.979 0.64402 0.00849 0.0
C49 C 0.04977 0.6806 0.03257 0.0
C50 C 0.01727 0.62655 0.97575 0.0
C51 C 0.01236 0.62362 0.06511 0.0
O52 O 0.02726 0.63274 0.05332 0.0
O53 O 0.99815 0.62258 0.05582 0.0
O54 O 0.05701 0.67086 0.02795 0.0
O55 O 0.03255 0.67315 0.03028 0.0
O56 O 0.4047 0.38837 0.98688 0.0
Cd57 Cd 0.3925 0.37088 0.0178 0.0
Cd58 Cd 0.3762 0.39027 0.02233 0.0
O59 O 0.38592 0.39876 0.98518 0.0
O60 O 0.39646 0.35015 0.01157 0.0
O61 O 0.36967 0.34779 0.01004 0.0
C62 C 0.37946 0.34038 0.00729 0.0
C63 C 0.34588 0.37784 0.03298 0.0
C64 C 0.39894 0.39765 0.9755 0.0
C65 C 0.40166 0.39428 0.06469 0.0
O66 O 0.39398 0.40162 0.05294 0.0
O67 O 0.40103 0.38027 0.05533 0.0
O68 O 0.35593 0.39484 0.02891 0.0
O69 O 0.35293 0.36774 0.02992 0.0
O70 O 0.62108 0.99454 0.05224 0.0
Cd71 Cd 0.63144 0.98746 0.02115 0.0
Cd72 Cd 0.65098 0.02369 0.01484 0.0
O73 O 0.64059 0.02358 0.0514 0.0
O74 O 0.62688 0.9627 0.02861 0.0
O75 O 0.65409 0.98659 0.02715 0.0
C76 C 0.644 0.96957 0.03132 0.0
C77 C 0.6816 0.0415 0.00567 0.0
C78 C 0.62749 0.01007 0.06224 0.0
C79 C 0.62406 1.00204 0.97292 0.0
O80 O 0.63437 0.01745 0.98268 0.0
O81 O 0.62178 0.98795 0.98445 0.0
O82 O 0.6715 0.0485 0.00859 0.0
O83 O 0.67446 0.02438 0.00909 0.0
O84 O 0.6919 0.73417 0.38701 0.0
Cd85 Cd 0.69831 0.72278 0.35633 0.0
Cd86 Cd 0.6623 0.70538 0.35037 0.0
O87 O 0.66272 0.71522 0.38732 0.0
O88 O 0.72298 0.72712 0.36394 0.0
O89 O 0.69889 0.70006 0.36353 0.0
C90 C 0.71595 0.71005 0.36743 0.0
C91 C 0.64401 0.67505 0.33978 0.0
C92 C 0.67659 0.72822 0.39761 0.0
C93 C 0.68466 0.73168 0.30864 0.0
O94 O 0.6693 0.72295 0.3193 0.0
O95 O 0.69825 0.73203 0.31908 0.0
O96 O 0.63739 0.68548 0.34286 0.0
O97 O 0.66101 0.68171 0.34384 0.0
O98 O 0.29091 0.96611 0.38696 0.0
Cd99 Cd 0.30179 0.98393 0.35621 0.0
Cd100 Cd 0.32002 0.96613 0.35032 0.0
O101 O 0.31025 0.95633 0.3872 0.0
O102 O 0.29719 1.00406 0.3641 0.0
O103 O 0.3244 0.00736 0.36303 0.0
C104 C 0.31427 0.01425 0.36724 0.0
C105 C 0.3503 0.97797 0.33928 0.0
C106 C 0.29709 0.95692 0.3975 0.0
C107 C 0.2931 0.96142 0.3088 0.0
O108 O 0.30237 0.95537 0.31938 0.0
O109 O 0.29229 0.97444 0.31915 0.0
O110 O 0.33965 0.96092 0.34179 0.0
O111 O 0.34395 0.98846 0.34429 0.0
O112 O 0.07252 0.35614 0.32202 0.0
Cd113 Cd 0.0607 0.36158 0.35311 0.0
Cd114 Cd 0.04255 0.32557 0.35679 0.0
O115 O 0.05295 0.32716 0.31986 0.0
O116 O 0.06431 0.38622 0.34741 0.0
O117 O 0.03776 0.36147 0.34535 0.0
C118 C 0.04731 0.3787 0.34284 0.0
C119 C 0.01195 0.30777 0.3661 0.0
C120 C 0.06632 0.34113 0.31041 0.0
C121 C 0.06833 0.34591 0.39991 0.0
O122 O 0.0595 0.33092 0.38826 0.0
O123 O 0.06915 0.35995 0.39033 0.0
O124 O 0.02191 0.3007 0.3621 0.0
O125 O 0.01924 0.32497 0.36368 0.0
O126 O 0.67139 0.95505 0.3135 0.0
Cd127 Cd 0.66422 0.96495 0.34542 0.0
Cd128 Cd 0.70053 0.98104 0.35268 0.0
O129 O 0.7009 0.97129 0.31613 0.0
O130 O 0.63933 0.95951 0.33673 0.0
O131 O 0.66216 0.98715 0.34074 0.0
C132 C 0.64542 0.97655 0.3353 0.0
C133 C 0.7189 0.01117 0.36407 0.0
C134 C 0.68685 0.95977 0.30423 0.0
C135 C 0.67675 0.95423 0.39293 0.0
O136 O 0.69237 0.96305 0.38314 0.0
O137 O 0.66347 0.95429 0.38209 0.0
O138 O 0.7252 1.00039 0.36235 0.0
O139 O 0.70221 1.00501 0.35817 0.0
O140 O 0.06989 0.72353 0.32062 0.0
Cd141 Cd 0.05858 0.70568 0.35127 0.0
Cd142 Cd 0.04072 0.72388 0.35608 0.0
O143 O 0.04998 0.73253 0.31865 0.0
O144 O 0.06447 0.68644 0.34339 0.0
O145 O 0.03667 0.68156 0.34452 0.0
C146 C 0.04752 0.67553 0.34023 0.0
C147 C 0.01045 0.71151 0.36736 0.0
C148 C 0.06347 0.73219 0.30915 0.0
C149 C 0.0673 0.72887 0.39794 0.0
O150 O 0.05876 0.73544 0.38651 0.0
O151 O 0.06743 0.71526 0.38849 0.0
O152 O 0.02056 0.72852 0.36348 0.0
O153 O 0.01739 0.70136 0.36375 0.0
O154 O 0.29181 0.33246 0.38905 0.0
Cd155 Cd 0.30342 0.32683 0.35775 0.0
Cd156 Cd 0.32086 0.3627 0.35375 0.0
O157 O 0.31101 0.36154 0.39089 0.0
O158 O 0.29919 0.30203 0.36387 0.0
O159 O 0.32615 0.32626 0.36458 0.0
C160 C 0.31625 0.3091 0.36756 0.0
C161 C 0.35132 0.38016 0.34333 0.0
C162 C 0.29783 0.3475 0.40052 0.0
C163 C 0.29482 0.34187 0.31129 0.0
O164 O 0.30328 0.35687 0.32298 0.0
O165 O 0.29464 0.32806 0.32058 0.0
O166 O 0.3415 0.38739 0.34735 0.0
O167 O 0.34397 0.36299 0.34637 0.0
O168 O 0.36004 0.0656 0.72252 0.0
Cd169 Cd 0.36656 0.05625 0.68958 0.0
Cd170 Cd 0.33011 0.03934 0.68274 0.0
O171 O 0.3305 0.05023 0.71887 0.0
O172 O 0.39129 0.06043 0.69621 0.0
O173 O 0.36735 0.03336 0.69338 0.0
C174 C 0.38436 0.04326 0.69776 0.0
C175 C 0.31266 0.00874 0.6736 0.0
C176 C 0.34455 0.06119 0.73132 0.0
C177 C 0.35296 0.06602 0.64175 0.0
O178 O 0.33727 0.05598 0.65078 0.0
O179 O 0.36662 0.06751 0.65369 0.0
O180 O 0.30545 0.01871 0.67601 0.0
O181 O 0.32973 0.01602 0.67761 0.0
O182 O 0.95405 0.29561 0.71972 0.0
Cd183 Cd 0.96546 0.31367 0.6893 0.0
Cd184 Cd 0.98408 0.29623 0.68446 0.0
O185 O 0.97445 0.28722 0.72165 0.0
O186 O 0.9603 0.33349 0.69661 0.0
O187 O 0.98768 0.33721 0.6971 0.0
C188 C 0.97726 0.34385 0.70059 0.0
C189 C 0.01442 0.3081 0.67383 0.0
C190 C 0.96077 0.28721 0.73114 0.0
C191 C 0.95772 0.29121 0.64209 0.0
O192 O 0.96646 0.28488 0.65352 0.0
O193 O 0.95709 0.30449 0.65179 0.0
O194 O 1.00384 0.29106 0.67674 0.0
O195 O 1.00794 0.31857 0.67811 0.0
O196 O 0.73958 0.69251 0.65411 0.0
Cd197 Cd 0.72978 0.6998 0.68572 0.0
Cd198 Cd 0.71091 0.66348 0.69335 0.0
O199 O 0.72174 0.66318 0.65736 0.0
O200 O 0.73305 0.72405 0.67805 0.0
O201 O 0.70644 0.69932 0.68016 0.0
C202 C 0.71583 0.71636 0.67565 0.0
C203 C 0.68049 0.64418 0.70274 0.0
C204 C 0.7339 0.67675 0.64527 0.0
C205 C 0.73804 0.68647 0.73452 0.0
O206 O 0.72747 0.67088 0.72558 0.0
O207 O 0.74039 0.70032 0.7222 0.0
O208 O 0.69173 0.63841 0.70161 0.0
O209 O 0.68636 0.66087 0.69728 0.0
O210 O 0.33916 0.28918 0.65094 0.0
Cd211 Cd 0.33149 0.29841 0.68308 0.0
Cd212 Cd 0.36797 0.31485 0.69108 0.0
O213 O 0.36863 0.30546 0.6544 0.0
O214 O 0.30649 0.29247 0.67407 0.0
O215 O 0.32883 0.32031 0.67882 0.0
C216 C 0.3122 0.30946 0.67299 0.0
C217 C 0.3865 0.34496 0.70257 0.0
C218 C 0.35475 0.29413 0.64199 0.0
C219 C 0.34388 0.28745 0.73059 0.0
O220 O 0.3596 0.29661 0.72127 0.0
O221 O 0.3306 0.28737 0.71948 0.0
O222 O 0.39267 0.33405 0.70099 0.0
O223 O 0.36983 0.3389 0.69665 0.0
O224 O 0.73752 0.05579 0.65272 0.0
Cd225 Cd 0.72599 0.03844 0.68383 0.0
Cd226 Cd 0.70871 0.05712 0.68883 0.0
O227 O 0.71868 0.06615 0.6518 0.0
O228 O 0.73007 0.01784 0.67718 0.0
O229 O 0.70316 0.01526 0.6767 0.0
C230 C 0.71301 0.00797 0.67339 0.0
C231 C 0.67828 0.04467 0.69911 0.0
C232 C 0.73163 0.06508 0.64172 0.0
C233 C 0.7349 0.06155 0.73095 0.0
O234 O 0.72618 0.06807 0.71991 0.0
O235 O 0.73523 0.04818 0.72093 0.0
O236 O 0.68846 0.06173 0.69575 0.0
O237 O 0.68526 0.03456 0.69551 0.0
O238 O 0.95757 0.66497 0.7221 0.0
Cd239 Cd 0.96707 0.65796 0.68986 0.0
Cd240 Cd 0.98583 0.69424 0.68287 0.0
O241 O 0.97546 0.69429 0.71932 0.0
O242 O 0.96251 0.63317 0.69672 0.0
O243 O 0.98976 0.65694 0.69454 0.0
C244 C 0.97965 0.63993 0.69876 0.0
C245 C 0.01639 0.71249 0.67353 0.0
C246 C 0.96336 0.68063 0.73133 0.0
C247 C 0.95853 0.67203 0.64181 0.0
O248 O 0.96908 0.68758 0.65092 0.0
O249 O 0.95637 0.65812 0.65373 0.0
O250 O 1.00595 0.71914 0.67608 0.0
O251 O 0.0096 0.69546 0.67738 0.0
H252 H 0.25321 0.36502 0.17081 0.0
N253 N 0.23526 0.33547 0.13971 0.0
H254 H 0.26746 0.36638 0.2123 0.0
H255 H 0.23213 0.30794 0.16732 0.0
H256 H 0.24494 0.30873 0.21007 0.0
H257 H 0.23994 0.31499 0.10552 0.0
H258 H 0.26463 0.32429 0.07445 0.0
H259 H 0.26049 0.37015 0.1277 0.0
H260 H 0.28553 0.3795 0.09798 0.0
H261 H 0.23213 0.36566 0.13727 0.0
H262 H 0.20222 0.3079 0.13654 0.0
H263 H 0.2042 0.36649 0.13351 0.0
H264 H 0.17418 0.30842 0.13417 0.0
H265 H 0.12112 0.36298 0.16108 0.0
H266 H 0.1092 0.36494 0.20327 0.0
H267 H 0.09121 0.30886 0.21712 0.0
H268 H 0.10251 0.30691 0.17418 0.0
H269 H 0.08439 0.31496 0.11986 0.0
H270 H 0.06976 0.3262 0.0911 0.0
H271 H 0.12022 0.37575 0.08174 0.0
H272 H 0.13435 0.36466 0.11207 0.0
H273 H 0.1493 0.35976 0.15819 0.0
H274 H 0.17841 0.36135 0.15667 0.0
H275 H 0.15566 0.31412 0.10768 0.0
N276 N 0.11755 0.3326 0.13836 0.0
H277 H 0.12636 0.31206 0.11079 0.0
C278 C 0.24194 0.33639 0.1657 0.0
C279 C 0.25151 0.35272 0.17911 0.0
C280 C 0.25946 0.3534 0.20318 0.0
C281 C 0.25761 0.33768 0.21473 0.0
C282 C 0.24721 0.32123 0.20166 0.0
C283 C 0.23964 0.32066 0.17734 0.0
C284 C 0.24835 0.34177 0.11905 0.0
C285 C 0.24966 0.32913 0.10342 0.0
C286 C 0.26391 0.33448 0.08591 0.0
C287 C 0.2773 0.35266 0.08385 0.0
C288 C 0.27544 0.36541 0.09871 0.0
C289 C 0.26109 0.36004 0.11601 0.0
C290 C 0.21923 0.33665 0.13678 0.0
C291 C 0.21956 0.35315 0.13615 0.0
C292 C 0.20349 0.35357 0.13428 0.0
C293 C 0.18678 0.33752 0.13334 0.0
C294 C 0.18668 0.32109 0.13413 0.0
C295 C 0.20269 0.32071 0.1357 0.0
C296 C 0.11251 0.33469 0.16439 0.0
C297 C 0.11468 0.35114 0.17324 0.0
C298 C 0.10795 0.35225 0.19753 0.0
C299 C 0.09907 0.33701 0.21363 0.0
C300 C 0.0976 0.32077 0.20507 0.0
C301 C 0.1042 0.31965 0.18068 0.0
C302 C 0.11042 0.33885 0.11802 0.0
C303 C 0.09232 0.32813 0.11122 0.0
C304 C 0.08401 0.33461 0.09457 0.0
C305 C 0.09371 0.35199 0.08392 0.0
C306 C 0.11216 0.36245 0.08986 0.0
C307 C 0.12039 0.35604 0.10696 0.0
C308 C 0.13548 0.33547 0.13505 0.0
C309 C 0.15056 0.34974 0.14713 0.0
C310 C 0.16733 0.35073 0.14601 0.0
C311 C 0.16946 0.33767 0.13243 0.0
C312 C 0.15452 0.32411 0.11902 0.0
C313 C 0.13776 0.32299 0.1205 0.0
H314 H 0.7217 0.79925 0.16886 0.0
N315 N 0.6952 0.7905 0.13489 0.0
H316 H 0.71977 0.78648 0.21219 0.0
H317 H 0.66444 0.76593 0.1599 0.0
H318 H 0.66245 0.75245 0.20212 0.0
H319 H 0.66129 0.76924 0.11572 0.0
H320 H 0.65174 0.74326 0.08745 0.0
H321 H 0.71632 0.7824 0.10746 0.0
H322 H 0.70727 0.75749 0.07713 0.0
H323 H 0.71838 0.82085 0.11158 0.0
H324 H 0.66697 0.79489 0.14989 0.0
H325 H 0.71718 0.84855 0.10832 0.0
H326 H 0.666 0.82279 0.14807 0.0
H327 H 0.71812 0.9384 0.15301 0.0
H328 H 0.71668 0.95115 0.19491 0.0
H329 H 0.66834 0.90158 0.21392 0.0
H330 H 0.66966 0.88923 0.17163 0.0
H331 H 0.65964 0.89896 0.13162 0.0
H332 H 0.64746 0.91274 0.1028 0.0
H333 H 0.6981 0.94006 0.06182 0.0
H334 H 0.71033 0.92652 0.09146 0.0
H335 H 0.72164 0.90042 0.13749 0.0
H336 H 0.72074 0.87164 0.1362 0.0
H337 H 0.66343 0.84471 0.12302 0.0
N338 N 0.69459 0.90666 0.13335 0.0
H339 H 0.66445 0.87361 0.12551 0.0
C340 C 0.69333 0.78353 0.16099 0.0
C341 C 0.70873 0.78919 0.17627 0.0
C342 C 0.70759 0.78172 0.20091 0.0
C343 C 0.69096 0.76827 0.21073 0.0
C344 C 0.67547 0.76292 0.19551 0.0
C345 C 0.67661 0.77054 0.17105 0.0
C346 C 0.6895 0.77744 0.11424 0.0
C347 C 0.67136 0.7667 0.10738 0.0
C348 C 0.66596 0.75192 0.09083 0.0
C349 C 0.67866 0.74785 0.0802 0.0
C350 C 0.69696 0.75965 0.08553 0.0
C351 C 0.70225 0.7741 0.10258 0.0
C352 C 0.69297 0.8059 0.13126 0.0
C353 C 0.7068 0.82116 0.11923 0.0
C354 C 0.70614 0.83704 0.11767 0.0
C355 C 0.69166 0.83814 0.12843 0.0
C356 C 0.67735 0.82252 0.13949 0.0
C357 C 0.67794 0.80652 0.14074 0.0
C358 C 0.69412 0.9129 0.15925 0.0
C359 C 0.70735 0.93027 0.16642 0.0
C360 C 0.70652 0.93748 0.19041 0.0
C361 C 0.69238 0.92742 0.20787 0.0
C362 C 0.67929 0.90981 0.20084 0.0
C363 C 0.68011 0.90264 0.17674 0.0
C364 C 0.68598 0.91175 0.11371 0.0
C365 C 0.66801 0.90758 0.11611 0.0
C366 C 0.66103 0.91549 0.09949 0.0
C367 C 0.67183 0.9277 0.08007 0.0
C368 C 0.68948 0.931 0.07683 0.0
C369 C 0.69645 0.92313 0.09353 0.0
C370 C 0.69325 0.88928 0.13132 0.0
C371 C 0.70891 0.88829 0.13419 0.0
C372 C 0.70835 0.87179 0.13324 0.0
C373 C 0.69202 0.85573 0.12916 0.0
C374 C 0.67623 0.85672 0.12634 0.0
C375 C 0.67681 0.87332 0.12753 0.0
H376 H 0.12859 0.77345 0.16921 0.0
N377 N 0.11759 0.7919 0.13807 0.0
H378 H 0.11542 0.75923 0.21056 0.0
H379 H 0.09337 0.79545 0.16551 0.0
H380 H 0.08104 0.78261 0.20816 0.0
H381 H 0.09209 0.78677 0.10422 0.0
H382 H 0.0767 0.76189 0.07343 0.0
H383 H 0.12741 0.76695 0.12587 0.0
H384 H 0.11178 0.74178 0.09637 0.0
H385 H 0.15087 0.79479 0.1369 0.0
H386 H 0.12337 0.82503 0.13424 0.0
H387 H 0.17975 0.82256 0.13349 0.0
H388 H 0.15206 0.85294 0.13232 0.0
H389 H 0.25847 0.90408 0.16244 0.0
H390 H 0.2722 0.91665 0.20412 0.0
H391 H 0.2372 0.93893 0.21302 0.0
H392 H 0.22418 0.92703 0.17014 0.0
H393 H 0.24234 0.93814 0.1086 0.0
H394 H 0.26726 0.95279 0.07796 0.0
H395 H 0.27953 0.91026 0.09016 0.0
H396 H 0.25357 0.89506 0.11883 0.0
H397 H 0.22814 0.87731 0.15768 0.0
H398 H 0.20042 0.84838 0.15635 0.0
H399 H 0.17655 0.87128 0.10641 0.0
N400 N 0.23322 0.90906 0.13699 0.0
H401 H 0.20396 0.90041 0.10937 0.0
C402 C 0.11166 0.78521 0.16402 0.0
C403 C 0.11812 0.77537 0.17744 0.0
C404 C 0.11067 0.76742 0.20143 0.0
C405 C 0.09694 0.76954 0.2129 0.0
C406 C 0.09118 0.78017 0.19981 0.0
C407 C 0.09836 0.78775 0.17556 0.0
C408 C 0.11085 0.77878 0.11744 0.0
C409 C 0.09668 0.77719 0.10204 0.0
C410 C 0.08778 0.76284 0.08469 0.0
C411 C 0.09279 0.7496 0.08255 0.0
C412 C 0.1076 0.75174 0.09716 0.0
C413 C 0.11657 0.76618 0.11432 0.0
C414 C 0.1349 0.80784 0.13535 0.0
C415 C 0.15101 0.80739 0.13541 0.0
C416 C 0.16759 0.82338 0.13377 0.0
C417 C 0.1684 0.84016 0.13243 0.0
C418 C 0.15214 0.84039 0.13259 0.0
C419 C 0.13566 0.82444 0.13389 0.0
C420 C 0.24035 0.91478 0.16291 0.0
C421 C 0.25371 0.91167 0.17319 0.0
C422 C 0.26147 0.91877 0.19736 0.0
C423 C 0.2559 0.92891 0.21211 0.0
C424 C 0.24211 0.93151 0.20209 0.0
C425 C 0.2345 0.92456 0.17771 0.0
C426 C 0.24633 0.91576 0.11633 0.0
C427 C 0.25021 0.93184 0.10408 0.0
C428 C 0.26467 0.94031 0.08686 0.0
C429 C 0.27589 0.93307 0.08192 0.0
C430 C 0.2713 0.91634 0.09321 0.0
C431 C 0.25652 0.90766 0.10996 0.0
C432 C 0.21799 0.89121 0.13406 0.0
C433 C 0.21696 0.87613 0.14647 0.0
C434 C 0.20106 0.85946 0.14547 0.0
C435 C 0.18597 0.85741 0.13164 0.0
C436 C 0.18757 0.87234 0.11796 0.0
C437 C 0.20332 0.88901 0.11935 0.0
H438 H 0.36315 0.24317 0.87077 0.0
N439 N 0.3341 0.22794 0.90328 0.0
H440 H 0.36493 0.25707 0.8289 0.0
H441 H 0.30709 0.22677 0.8765 0.0
H442 H 0.3081 0.23903 0.83324 0.0
H443 H 0.31474 0.23296 0.93914 0.0
H444 H 0.32486 0.25831 0.96927 0.0
H445 H 0.36907 0.25416 0.91211 0.0
H446 H 0.37914 0.2796 0.94114 0.0
H447 H 0.3646 0.2255 0.90947 0.0
H448 H 0.30702 0.19451 0.90315 0.0
H449 H 0.36599 0.19793 0.913 0.0
H450 H 0.30822 0.16682 0.90526 0.0
H451 H 0.3662 0.12097 0.87666 0.0
H452 H 0.36829 0.11004 0.83387 0.0
H453 H 0.31031 0.078 0.83075 0.0
H454 H 0.30851 0.09044 0.87261 0.0
H455 H 0.3176 0.07966 0.92422 0.0
H456 H 0.32918 0.06504 0.95234 0.0
H457 H 0.38007 0.11464 0.95678 0.0
H458 H 0.36851 0.1287 0.92705 0.0
H459 H 0.36284 0.14508 0.88723 0.0
H460 H 0.36306 0.17342 0.88904 0.0
H461 H 0.31295 0.14755 0.93154 0.0
N462 N 0.33546 0.11213 0.90357 0.0
H463 H 0.31234 0.11892 0.92808 0.0
C464 C 0.33505 0.23433 0.87706 0.0
C465 C 0.35115 0.24244 0.86289 0.0
C466 C 0.35203 0.25014 0.83854 0.0
C467 C 0.33668 0.24942 0.82739 0.0
C468 C 0.32037 0.24043 0.84126 0.0
C469 C 0.31966 0.23317 0.8659 0.0
C470 C 0.34103 0.24153 0.92334 0.0
C471 C 0.32888 0.24292 0.94001 0.0
C472 C 0.33468 0.25753 0.95699 0.0
C473 C 0.35282 0.27117 0.95756 0.0
C474 C 0.36511 0.26931 0.94159 0.0
C475 C 0.3593 0.25466 0.92473 0.0
C476 C 0.3356 0.21208 0.90644 0.0
C477 C 0.35222 0.21279 0.90898 0.0
C478 C 0.353 0.1969 0.91072 0.0
C479 C 0.33722 0.17997 0.90955 0.0
C480 C 0.32066 0.17946 0.90692 0.0
C481 C 0.31991 0.1953 0.9055 0.0
C482 C 0.33713 0.10689 0.87751 0.0
C483 C 0.35394 0.1121 0.86634 0.0
C484 C 0.35509 0.10545 0.84199 0.0
C485 C 0.33947 0.09293 0.82861 0.0
C486 C 0.32267 0.08785 0.83995 0.0
C487 C 0.32156 0.09487 0.864 0.0
C488 C 0.34208 0.10523 0.92367 0.0
C489 C 0.33115 0.08742 0.93168 0.0
C490 C 0.33784 0.07912 0.94796 0.0
C491 C 0.35568 0.08854 0.95704 0.0
C492 C 0.3664 0.10676 0.94989 0.0
C493 C 0.35974 0.11496 0.93313 0.0
C494 C 0.3373 0.12965 0.90706 0.0
C495 C 0.35186 0.1454 0.89689 0.0
C496 C 0.35207 0.16178 0.89821 0.0
C497 C 0.33789 0.16289 0.91012 0.0
C498 C 0.32387 0.14724 0.92153 0.0
C499 C 0.32356 0.13086 0.91985 0.0
H500 H 0.76918 0.11732 0.87868 0.0
N501 N 0.7942 0.11183 0.90375 0.0
H502 H 0.7556 0.10537 0.83667 0.0
H503 H 0.80333 0.09429 0.86994 0.0
H504 H 0.79042 0.08296 0.82681 0.0
H505 H 0.78628 0.08264 0.93115 0.0
H506 H 0.76134 0.06661 0.96138 0.0
H507 H 0.77272 0.12423 0.9228 0.0
H508 H 0.7467 0.10762 0.95097 0.0
H509 H 0.79885 0.14397 0.88553 0.0
H510 H 0.82367 0.11998 0.93052 0.0
H511 H 0.82648 0.17298 0.88761 0.0
H512 H 0.85101 0.14913 0.93422 0.0
H513 H 0.89718 0.24615 0.87256 0.0
H514 H 0.90961 0.25997 0.83068 0.0
H515 H 0.94584 0.23875 0.8337 0.0
H516 H 0.93427 0.22641 0.87682 0.0
H517 H 0.93434 0.2336 0.9389 0.0
H518 H 0.94994 0.25851 0.96958 0.0
H519 H 0.9165 0.28009 0.94451 0.0
H520 H 0.90062 0.25487 0.91516 0.0
H521 H 0.87631 0.2262 0.90806 0.0
H522 H 0.84746 0.19834 0.91136 0.0
H523 H 0.8751 0.16797 0.90787 0.0
N524 N 0.9095 0.22908 0.90416 0.0
H525 H 0.90376 0.1959 0.90595 0.0
C526 C 0.78722 0.10655 0.87768 0.0
C527 C 0.77395 0.10986 0.86762 0.0
C528 C 0.76626 0.10311 0.84329 0.0
C529 C 0.77181 0.09309 0.8282 0.0
C530 C 0.78553 0.09031 0.83801 0.0
C531 C 0.79308 0.09692 0.86252 0.0
C532 C 0.78111 0.10437 0.92435 0.0
C533 C 0.77789 0.08831 0.93599 0.0
C534 C 0.76342 0.07905 0.95298 0.0
C535 C 0.75151 0.08543 0.95824 0.0
C536 C 0.75546 0.10216 0.94763 0.0
C537 C 0.77026 0.11165 0.93116 0.0
C538 C 0.80933 0.12965 0.90741 0.0
C539 C 0.81015 0.14497 0.89619 0.0
C540 C 0.826 0.16167 0.89763 0.0
C541 C 0.84124 0.16348 0.91069 0.0
C542 C 0.83985 0.14827 0.92327 0.0
C543 C 0.82415 0.13159 0.92145 0.0
C544 C 0.91513 0.23561 0.87808 0.0
C545 C 0.90794 0.24468 0.86436 0.0
C546 C 0.91494 0.25236 0.84006 0.0
C547 C 0.92897 0.25073 0.82859 0.0
C548 C 0.93547 0.24084 0.84202 0.0
C549 C 0.92874 0.23355 0.86656 0.0
C550 C 0.91637 0.24232 0.92464 0.0
C551 C 0.93015 0.24352 0.94058 0.0
C552 C 0.93918 0.2579 0.95787 0.0
C553 C 0.9347 0.27154 0.9594 0.0
C554 C 0.92027 0.26982 0.94421 0.0
C555 C 0.91116 0.25534 0.92713 0.0
C556 C 0.89225 0.21311 0.90718 0.0
C557 C 0.87616 0.21357 0.90848 0.0
C558 C 0.8596 0.19754 0.91008 0.0
C559 C 0.85879 0.18075 0.91008 0.0
C560 C 0.87504 0.18052 0.90865 0.0
C561 C 0.89149 0.19648 0.90735 0.0
H562 H 0.79241 0.71815 0.88528 0.0
N563 N 0.7995 0.69372 0.90467 0.0
H564 H 0.77812 0.71724 0.8436 0.0
H565 H 0.79112 0.66878 0.86581 0.0
H566 H 0.77754 0.66807 0.82403 0.0
H567 H 0.77304 0.65845 0.9066 0.0
H568 H 0.74709 0.64566 0.93551 0.0
H569 H 0.79467 0.70924 0.94617 0.0
H570 H 0.76898 0.69641 0.97593 0.0
H571 H 0.83208 0.72123 0.91294 0.0
H572 H 0.8034 0.66388 0.90271 0.0
H573 H 0.86034 0.72114 0.91551 0.0
H574 H 0.83165 0.66369 0.90297 0.0
H575 H 0.94858 0.71627 0.88317 0.0
H576 H 0.95968 0.71315 0.84078 0.0
H577 H 0.90835 0.66589 0.82527 0.0
H578 H 0.89767 0.66886 0.86813 0.0
H579 H 0.90819 0.65945 0.90833 0.0
H580 H 0.92193 0.64744 0.93761 0.0
H581 H 0.95118 0.6991 0.97553 0.0
H582 H 0.93771 0.71114 0.94539 0.0
H583 H 0.90965 0.7198 0.88957 0.0
H584 H 0.88098 0.71899 0.89006 0.0
H585 H 0.85617 0.66631 0.92549 0.0
N586 N 0.91683 0.69461 0.90461 0.0
H587 H 0.88468 0.66679 0.9231 0.0
C588 C 0.79299 0.69368 0.87874 0.0
C589 C 0.78939 0.70733 0.87178 0.0
C590 C 0.78127 0.70679 0.84792 0.0
C591 C 0.77656 0.69252 0.83044 0.0
C592 C 0.78067 0.67911 0.83717 0.0
C593 C 0.78869 0.67961 0.86108 0.0
C594 C 0.78578 0.68488 0.92418 0.0
C595 C 0.77246 0.66673 0.92198 0.0
C596 C 0.75759 0.65941 0.93866 0.0
C597 C 0.75578 0.67004 0.95796 0.0
C598 C 0.76971 0.68791 0.961 0.0
C599 C 0.7845 0.69523 0.94423 0.0
C600 C 0.81569 0.69271 0.90711 0.0
C601 C 0.83195 0.70863 0.91098 0.0
C602 C 0.84814 0.70852 0.91213 0.0
C603 C 0.84853 0.69245 0.90888 0.0
C604 C 0.83204 0.67635 0.90569 0.0
C605 C 0.81578 0.67645 0.90513 0.0
C606 C 0.92234 0.69292 0.87872 0.0
C607 C 0.93973 0.70534 0.87047 0.0
C608 C 0.94599 0.70356 0.84618 0.0
C609 C 0.93492 0.68928 0.82949 0.0
C610 C 0.91734 0.67692 0.83771 0.0
C611 C 0.91113 0.67867 0.86212 0.0
C612 C 0.922 0.68627 0.92463 0.0
C613 C 0.91729 0.66811 0.92323 0.0
C614 C 0.92514 0.66123 0.94014 0.0
C615 C 0.93784 0.67233 0.95885 0.0
C616 C 0.94172 0.69024 0.96109 0.0
C617 C 0.93389 0.6971 0.9441 0.0
C618 C 0.89953 0.69355 0.90652 0.0
C619 C 0.898 0.70809 0.89747 0.0
C620 C 0.88154 0.70763 0.89803 0.0
C621 C 0.86608 0.69267 0.90817 0.0
C622 C 0.86763 0.67802 0.91727 0.0
C623 C 0.8841 0.67835 0.9162 0.0
H624 H 0.74834 0.6398 0.49444 0.0
N625 N 0.77979 0.6615 0.47224 0.0
H626 H 0.73754 0.64321 0.5369 0.0
H627 H 0.79914 0.68765 0.50812 0.0
H628 H 0.78877 0.69092 0.55107 0.0
H629 H 0.78793 0.69648 0.46794 0.0
H630 H 0.77365 0.70792 0.43869 0.0
H631 H 0.75855 0.64437 0.43203 0.0
H632 H 0.74455 0.65584 0.40189 0.0
H633 H 0.78751 0.63674 0.48755 0.0
H634 H 0.81156 0.68929 0.45268 0.0
H635 H 0.8163 0.63782 0.48639 0.0
H636 H 0.84018 0.69002 0.4496 0.0
H637 H 0.90405 0.63892 0.49162 0.0
H638 H 0.91824 0.64042 0.53358 0.0
H639 H 0.92006 0.69058 0.55025 0.0
H640 H 0.90666 0.6893 0.50807 0.0
H641 H 0.92412 0.69839 0.46652 0.0
H642 H 0.95011 0.70996 0.43772 0.0
H643 H 0.92766 0.65787 0.40105 0.0
H644 H 0.90198 0.64631 0.43074 0.0
H645 H 0.86499 0.63563 0.46288 0.0
H646 H 0.83663 0.63551 0.46051 0.0
H647 H 0.86518 0.69314 0.47133 0.0
N648 N 0.89754 0.66333 0.47065 0.0
H649 H 0.89353 0.69311 0.47134 0.0
C650 C 0.7745 0.66335 0.49821 0.0
C651 C 0.75724 0.65089 0.50687 0.0
C652 C 0.75115 0.65284 0.53121 0.0
C653 C 0.76228 0.66734 0.54754 0.0
C654 C 0.77974 0.67972 0.53892 0.0
C655 C 0.78577 0.6778 0.51445 0.0
C656 C 0.77424 0.66949 0.45221 0.0
C657 C 0.77873 0.6876 0.45329 0.0
C658 C 0.77057 0.69416 0.43639 0.0
C659 C 0.75777 0.68278 0.41799 0.0
C660 C 0.75407 0.66492 0.41609 0.0
C661 C 0.7622 0.65837 0.43307 0.0
C662 C 0.79715 0.66273 0.46999 0.0
C663 C 0.79898 0.6484 0.47922 0.0
C664 C 0.8155 0.64901 0.47826 0.0
C665 C 0.83074 0.66391 0.46751 0.0
C666 C 0.82891 0.67837 0.45826 0.0
C667 C 0.81237 0.67788 0.45974 0.0
C668 C 0.90412 0.66384 0.49667 0.0
C669 C 0.90735 0.65011 0.50454 0.0
C670 C 0.91541 0.65098 0.52857 0.0
C671 C 0.92039 0.66566 0.54537 0.0
C672 C 0.9167 0.67921 0.53769 0.0
C673 C 0.90878 0.67839 0.51356 0.0
C674 C 0.91113 0.67142 0.45081 0.0
C675 C 0.9246 0.68957 0.45195 0.0
C676 C 0.93949 0.69617 0.43534 0.0
C677 C 0.94116 0.6848 0.41718 0.0
C678 C 0.92705 0.66693 0.41512 0.0
C679 C 0.91225 0.66034 0.43183 0.0
C680 C 0.88132 0.66424 0.46783 0.0
C681 C 0.86507 0.64823 0.46445 0.0
C682 C 0.84883 0.64822 0.46344 0.0
C683 C 0.84836 0.66428 0.46637 0.0
C684 C 0.86483 0.68047 0.46892 0.0
C685 C 0.88116 0.68048 0.46933 0.0
H686 H 0.38744 0.1199 0.49127 0.0
N687 N 0.36369 0.12736 0.47026 0.0
H688 H 0.38556 0.1057 0.53336 0.0
H689 H 0.33803 0.1193 0.50787 0.0
H690 H 0.33642 0.10593 0.55015 0.0
H691 H 0.32859 0.10075 0.46686 0.0
H692 H 0.3167 0.07473 0.4381 0.0
H693 H 0.38027 0.12281 0.42985 0.0
H694 H 0.36836 0.09712 0.40016 0.0
H695 H 0.39154 0.15984 0.46271 0.0
H696 H 0.334 0.13151 0.47019 0.0
H697 H 0.3918 0.18824 0.45974 0.0
H698 H 0.33409 0.15993 0.46961 0.0
H699 H 0.38863 0.27709 0.49012 0.0
H700 H 0.38614 0.28875 0.5324 0.0
H701 H 0.33803 0.23828 0.54867 0.0
H702 H 0.34044 0.22701 0.50595 0.0
H703 H 0.33104 0.23699 0.46563 0.0
H704 H 0.31917 0.2511 0.43684 0.0
H705 H 0.37078 0.28022 0.39876 0.0
H706 H 0.38269 0.26637 0.42842 0.0
H707 H 0.39067 0.23762 0.48535 0.0
H708 H 0.38942 0.20876 0.48498 0.0
H709 H 0.33745 0.18485 0.44745 0.0
N710 N 0.36615 0.24542 0.46912 0.0
H711 H 0.33832 0.21355 0.44975 0.0
C712 C 0.36304 0.12084 0.49637 0.0
C713 C 0.3764 0.11705 0.50424 0.0
C714 C 0.37532 0.109 0.52836 0.0
C715 C 0.36079 0.10457 0.54522 0.0
C716 C 0.34764 0.10884 0.53754 0.0
C717 C 0.34867 0.11675 0.51334 0.0
C718 C 0.35539 0.11369 0.45056 0.0
C719 C 0.33725 0.10023 0.45205 0.0
C720 C 0.33045 0.08534 0.43545 0.0
C721 C 0.34161 0.08365 0.41692 0.0
C722 C 0.35947 0.09774 0.41451 0.0
C723 C 0.36626 0.11254 0.43123 0.0
C724 C 0.36289 0.14362 0.46723 0.0
C725 C 0.37896 0.15982 0.46396 0.0
C726 C 0.37905 0.17609 0.4626 0.0
C727 C 0.363 0.17664 0.46507 0.0
C728 C 0.34675 0.16021 0.46754 0.0
C729 C 0.34667 0.14386 0.46828 0.0
C730 C 0.36483 0.25123 0.49497 0.0
C731 C 0.37766 0.26855 0.50297 0.0
C732 C 0.37623 0.27512 0.52719 0.0
C733 C 0.36189 0.26446 0.54403 0.0
C734 C 0.34912 0.24696 0.53608 0.0
C735 C 0.35054 0.24042 0.51176 0.0
C736 C 0.35783 0.2507 0.44922 0.0
C737 C 0.33971 0.24614 0.45078 0.0
C738 C 0.33291 0.2542 0.43415 0.0
C739 C 0.34405 0.26698 0.41557 0.0
C740 C 0.3619 0.2707 0.41312 0.0
C741 C 0.36868 0.26266 0.42982 0.0
C742 C 0.36478 0.22798 0.4674 0.0
C743 C 0.37901 0.22613 0.47704 0.0
C744 C 0.37831 0.20956 0.47654 0.0
C745 C 0.36343 0.19429 0.4658 0.0
C746 C 0.34908 0.19614 0.45612 0.0
C747 C 0.34965 0.21273 0.45717 0.0
H748 H 0.78574 0.09729 0.49193 0.0
N749 N 0.78214 0.12399 0.46887 0.0
H750 H 0.77395 0.08366 0.53425 0.0
H751 H 0.76714 0.13481 0.50455 0.0
H752 H 0.75603 0.12186 0.54768 0.0
H753 H 0.74898 0.10789 0.45025 0.0
H754 H 0.73479 0.08192 0.42159 0.0
H755 H 0.79942 0.10903 0.44303 0.0
H756 H 0.78572 0.08372 0.41284 0.0
H757 H 0.81391 0.129 0.4893 0.0
H758 H 0.79088 0.15308 0.44063 0.0
H759 H 0.84295 0.15655 0.48745 0.0
H760 H 0.82014 0.18034 0.43718 0.0
H761 H 0.91808 0.22775 0.5003 0.0
H762 H 0.9319 0.24044 0.54205 0.0
H763 H 0.90827 0.27461 0.54029 0.0
H764 H 0.89587 0.26282 0.49726 0.0
H765 H 0.90518 0.2648 0.43584 0.0
H766 H 0.93026 0.28038 0.40546 0.0
H767 H 0.95009 0.24499 0.42807 0.0
H768 H 0.92466 0.22911 0.45705 0.0
H769 H 0.89662 0.20564 0.46787 0.0
H770 H 0.86873 0.17689 0.4643 0.0
H771 H 0.83872 0.20496 0.4628 0.0
N772 N 0.89976 0.239 0.46931 0.0
H773 H 0.86676 0.23353 0.46491 0.0
C774 C 0.77712 0.11698 0.49497 0.0
C775 C 0.77933 0.10277 0.50401 0.0
C776 C 0.77267 0.09506 0.52839 0.0
C777 C 0.76386 0.10153 0.54445 0.0
C778 C 0.76235 0.11624 0.53569 0.0
C779 C 0.76886 0.12381 0.51118 0.0
C780 C 0.77522 0.11049 0.44868 0.0
C781 C 0.7571 0.10281 0.44177 0.0
C782 C 0.74905 0.08798 0.42519 0.0
C783 C 0.75901 0.08052 0.41472 0.0
C784 C 0.77746 0.08878 0.42081 0.0
C785 C 0.78544 0.10348 0.43784 0.0
C786 C 0.80004 0.13912 0.46554 0.0
C787 C 0.81514 0.14013 0.4779 0.0
C788 C 0.83187 0.15592 0.47659 0.0
C789 C 0.83398 0.17094 0.46251 0.0
C790 C 0.81903 0.16936 0.44889 0.0
C791 C 0.80229 0.15371 0.45057 0.0
C792 C 0.90627 0.24466 0.4954 0.0
C793 C 0.91604 0.2381 0.50875 0.0
C794 C 0.92375 0.24525 0.53298 0.0
C795 C 0.92145 0.25878 0.54475 0.0
C796 C 0.91087 0.26464 0.53172 0.0
C797 C 0.90353 0.25776 0.50723 0.0
C798 C 0.91301 0.24587 0.44885 0.0
C799 C 0.91474 0.26018 0.43366 0.0
C800 C 0.92922 0.26919 0.41655 0.0
C801 C 0.94245 0.26417 0.41447 0.0
C802 C 0.94015 0.2492 0.42883 0.0
C803 C 0.92556 0.2401 0.44571 0.0
C804 C 0.88376 0.22178 0.46621 0.0
C805 C 0.88408 0.2056 0.46625 0.0
C806 C 0.86802 0.1891 0.46452 0.0
C807 C 0.85131 0.18843 0.4631 0.0
C808 C 0.85121 0.20477 0.46316 0.0
C809 C 0.86723 0.22118 0.46456 0.0
H810 H 0.03478 0.58924 0.21355 0.0
N811 N 1.00403 0.56307 0.23613 0.0
H812 H 0.03704 0.60346 0.17142 0.0
H813 H 0.97862 0.55252 0.20001 0.0
H814 H 0.98083 0.56596 0.15723 0.0
H815 H 0.98555 0.57829 0.25231 0.0
H816 H 0.99565 0.60418 0.28079 0.0
H817 H 0.0352 0.57858 0.26497 0.0
H818 H 0.04502 0.60371 0.29493 0.0
H819 H 0.03406 0.56016 0.22913 0.0
H820 H 0.97823 0.53082 0.25041 0.0
H821 H 0.03595 0.53281 0.23344 0.0
H822 H 0.97946 0.5032 0.25308 0.0
H823 H 0.03246 0.45036 0.21288 0.0
H824 H 0.03347 0.43787 0.17103 0.0
H825 H 0.97634 0.41647 0.16192 0.0
H826 H 0.97537 0.42834 0.20495 0.0
H827 H 0.98188 0.41684 0.266 0.0
H828 H 0.99148 0.40152 0.29649 0.0
H829 H 0.0467 0.44332 0.28532 0.0
H830 H 0.03661 0.45918 0.25669 0.0
H831 H 0.02662 0.47675 0.21176 0.0
H832 H 0.02818 0.50571 0.21356 0.0
H833 H 0.98863 0.48606 0.27525 0.0
N834 N 1.00248 0.44604 0.23816 0.0
H835 H 0.98615 0.45663 0.27176 0.0
C836 C 1.00644 0.56994 0.20996 0.0
C837 C 0.02302 0.58401 0.20122 0.0
C838 C 0.02428 0.59208 0.17702 0.0
C839 C 0.00905 0.58607 0.16094 0.0
C840 C 0.99274 0.5713 0.16929 0.0
C841 C 0.99146 0.56342 0.19358 0.0
C842 C 0.00947 0.57636 0.25651 0.0
C843 C 0.99843 0.58363 0.26194 0.0
C844 C 1.00425 0.59844 0.27842 0.0
C845 C 0.02127 0.60628 0.2903 0.0
C846 C 0.032 0.59838 0.28579 0.0
C847 C 0.02627 0.58374 0.26884 0.0
C848 C 1.00603 0.54754 0.23996 0.0
C849 C 0.02225 0.54784 0.23501 0.0
C850 C 0.0232 0.53206 0.23713 0.0
C851 C 1.00787 0.51558 0.24371 0.0
C852 C 0.99172 0.51554 0.24867 0.0
C853 C 0.9909 0.53132 0.24698 0.0
C854 C 1.00374 0.44014 0.21228 0.0
C855 C 0.02011 0.44294 0.20207 0.0
C856 C 0.02069 0.43591 0.17781 0.0
C857 C 1.00498 0.42611 0.16291 0.0
C858 C 0.98867 0.42368 0.17295 0.0
C859 C 0.98809 0.4306 0.1974 0.0
C860 C 0.00851 0.43891 0.25876 0.0
C861 C 0.996 0.42283 0.27069 0.0
C862 C 1.0016 0.41398 0.28785 0.0
C863 C 0.01998 0.42082 0.29303 0.0
C864 C 0.03244 0.43754 0.28205 0.0
C865 C 0.02673 0.4466 0.26535 0.0
C866 C 1.00587 0.46421 0.24127 0.0
C867 C 0.01824 0.47857 0.22569 0.0
C868 C 0.01928 0.49535 0.22695 0.0
C869 C 1.00829 0.49835 0.24424 0.0
C870 C 0.99688 0.48425 0.26103 0.0
C871 C 0.99559 0.46741 0.25934 0.0
H872 H 0.61012 0.56794 0.21749 0.0
N873 N 0.57907 0.56196 0.23723 0.0
H874 H 0.62346 0.58171 0.1756 0.0
H875 H 0.563 0.5712 0.19874 0.0
H876 H 0.57575 0.58416 0.15661 0.0
H877 H 0.57121 0.58902 0.24013 0.0
H878 H 0.58557 0.61505 0.26888 0.0
H879 H 0.59973 0.56607 0.27805 0.0
H880 H 0.61374 0.59178 0.30771 0.0
H881 H 0.57368 0.52933 0.24613 0.0
H882 H 0.54552 0.55845 0.23511 0.0
H883 H 0.5452 0.50123 0.24856 0.0
H884 H 0.51691 0.53031 0.23517 0.0
H885 H 0.46076 0.41731 0.21131 0.0
H886 H 0.44754 0.40566 0.16868 0.0
H887 H 0.43348 0.44735 0.16235 0.0
H888 H 0.4484 0.45979 0.20373 0.0
H889 H 0.4364 0.45398 0.24496 0.0
H890 H 0.41129 0.4393 0.27487 0.0
H891 H 0.43339 0.40756 0.3053 0.0
H892 H 0.4583 0.42201 0.27429 0.0
H893 H 0.49484 0.45217 0.22193 0.0
H894 H 0.52268 0.48081 0.22262 0.0
H895 H 0.49462 0.50571 0.25717 0.0
N896 N 0.46244 0.44502 0.23663 0.0
H897 H 0.46658 0.47719 0.25453 0.0
C898 C 0.58554 0.56835 0.21128 0.0
C899 C 0.60251 0.57129 0.20409 0.0
C900 C 0.61007 0.5791 0.18009 0.0
C901 C 0.60073 0.58412 0.16263 0.0
C902 C 0.58349 0.58076 0.16967 0.0
C903 C 0.57603 0.57309 0.19377 0.0
C904 C 0.58451 0.57564 0.2569 0.0
C905 C 0.58019 0.58935 0.25514 0.0
C906 C 0.58842 0.60425 0.27172 0.0
C907 C 0.60104 0.60568 0.29049 0.0
C908 C 0.60442 0.59135 0.29317 0.0
C909 C 0.59627 0.57654 0.27647 0.0
C910 C 0.5618 0.54591 0.23988 0.0
C911 C 0.56128 0.52958 0.24398 0.0
C912 C 0.54492 0.51349 0.24503 0.0
C913 C 0.52855 0.51324 0.24141 0.0
C914 C 0.5291 0.5298 0.23811 0.0
C915 C 0.54555 0.54599 0.23767 0.0
C916 C 0.45525 0.43914 0.21087 0.0
C917 C 0.45497 0.42398 0.20045 0.0
C918 C 0.44716 0.41722 0.17617 0.0
C919 C 0.43902 0.42526 0.16194 0.0
C920 C 0.43968 0.44078 0.17235 0.0
C921 C 0.44796 0.4478 0.19635 0.0
C922 C 0.44929 0.43905 0.25727 0.0
C923 C 0.43607 0.44409 0.25826 0.0
C924 C 0.42168 0.4357 0.27562 0.0
C925 C 0.42016 0.42209 0.29248 0.0
C926 C 0.43392 0.41774 0.29234 0.0
C927 C 0.44828 0.42612 0.27486 0.0
C928 C 0.4786 0.46233 0.23839 0.0
C929 C 0.49472 0.46384 0.22964 0.0
C930 C 0.51072 0.48028 0.23034 0.0
C931 C 0.51117 0.49575 0.24038 0.0
C932 C 0.49491 0.49424 0.24908 0.0
C933 C 0.47877 0.47777 0.24784 0.0
H934 H 0.57481 0.99321 0.21225 0.0
N935 N 0.57931 0.02427 0.23382 0.0
H936 H 0.58614 0.99012 0.17027 0.0
H937 H 0.59467 0.04929 0.19702 0.0
H938 H 0.60534 0.04619 0.15416 0.0
H939 H 0.6127 0.04195 0.25156 0.0
H940 H 0.6276 0.0307 0.27981 0.0
H941 H 0.56264 0.99254 0.2609 0.0
H942 H 0.57708 0.98144 0.29068 0.0
H943 H 0.54793 1.00011 0.20878 0.0
H944 H 0.56973 0.04151 0.26742 0.0
H945 H 0.51933 0.99915 0.21136 0.0
H946 H 0.54059 0.03957 0.27185 0.0
H947 H 0.4368 0.99354 0.21266 0.0
H948 H 0.4231 0.99065 0.16998 0.0
H949 H 0.4608 0.04662 0.15447 0.0
H950 H 0.47373 0.04948 0.19785 0.0
H951 H 0.44664 0.04197 0.25019 0.0
H952 H 0.42067 0.03124 0.27873 0.0
H953 H 0.42332 0.98316 0.29409 0.0
H954 H 0.44849 0.99353 0.26424 0.0
H955 H 0.46566 0.99427 0.22748 0.0
H956 H 0.49279 0.99207 0.23145 0.0
H957 H 0.52302 0.04857 0.2509 0.0
N958 N 0.46308 0.0245 0.23469 0.0
H959 H 0.49552 0.05009 0.24881 0.0
C960 C 0.58408 0.02159 0.20788 0.0
C961 C 0.58143 1.00483 0.19968 0.0
C962 C 0.58781 1.00306 0.17548 0.0
C963 C 0.5968 0.01793 0.15874 0.0
C964 C 0.59883 0.03453 0.16668 0.0
C965 C 0.59258 0.03631 0.19103 0.0
C966 C 0.5866 0.0182 0.2542 0.0
C967 C 0.60481 0.02886 0.26047 0.0
C968 C 0.61328 0.02238 0.2768 0.0
C969 C 0.60366 1.00504 0.28765 0.0
C970 C 0.5851 0.9947 0.28236 0.0
C971 C 0.57669 1.00111 0.2656 0.0
C972 C 0.56131 0.02129 0.23751 0.0
C973 C 0.54656 0.00883 0.22259 0.0
C974 C 0.52996 0.00814 0.22433 0.0
C975 C 0.52748 0.01951 0.24152 0.0
C976 C 0.54197 0.03102 0.25769 0.0
C977 C 0.55866 0.03201 0.25548 0.0
C978 C 0.45617 0.02183 0.20849 0.0
C979 C 0.44216 1.00513 0.19998 0.0
C980 C 0.43441 1.0035 0.17543 0.0
C981 C 0.44068 0.01845 0.15871 0.0
C982 C 0.45528 0.03491 0.16696 0.0
C983 C 0.46285 0.03656 0.19161 0.0
C984 C 0.44966 0.01872 0.25499 0.0
C985 C 0.44175 0.02924 0.26007 0.0
C986 C 0.4269 0.02307 0.27658 0.0
C987 C 0.41966 0.0062 0.28882 0.0
C988 C 0.42818 0.99602 0.28466 0.0
C989 C 0.44285 1.00209 0.26771 0.0
C990 C 0.47852 0.02232 0.23841 0.0
C991 C 0.47806 0.00603 0.2333 0.0
C992 C 0.49373 1.00489 0.2352 0.0
C993 C 0.51034 0.02014 0.24154 0.0
C994 C 0.51059 0.03637 0.24666 0.0
C995 C 0.49486 0.03735 0.2453 0.0
H996 H 0.41433 0.96962 0.81992 0.0
N997 N 0.44634 0.99184 0.79965 0.0
H998 H 0.4024 0.97206 0.862 0.0
H999 H 0.46474 0.01708 0.83711 0.0
H1000 H 0.45322 0.01937 0.87964 0.0
H1001 H 0.45454 0.02691 0.79708 0.0
H1002 H 0.44095 0.03913 0.76796 0.0
H1003 H 0.42617 0.97585 0.75803 0.0
H1004 H 0.41288 0.98813 0.72799 0.0
H1005 H 0.45417 0.96722 0.81531 0.0
H1006 H 0.47834 0.02006 0.78128 0.0
H1007 H 0.48313 0.96864 0.81508 0.0
H1008 H 0.50712 0.02111 0.77913 0.0
H1009 H 0.57149 0.97062 0.82128 0.0
H1010 H 0.5854 0.97179 0.86335 0.0
H1011 H 0.58651 0.02149 0.88104 0.0
H1012 H 0.57338 0.02054 0.83874 0.0
H1013 H 0.59124 0.03014 0.79754 0.0
H1014 H 0.61735 0.04215 0.76894 0.0
H1015 H 0.59517 0.99057 0.73077 0.0
H1016 H 0.56939 0.97855 0.76031 0.0
H1017 H 0.53239 0.96714 0.79242 0.0
H1018 H 0.50391 0.96675 0.78964 0.0
H1019 H 0.53189 0.02427 0.80155 0.0
N1020 N 0.56475 0.99499 0.80079 0.0
H1021 H 0.56039 0.02454 0.80197 0.0
C1022 C 0.44038 0.99305 0.82546 0.0
C1023 C 0.42289 0.9804 0.83303 0.0
C1024 C 0.41615 0.9818 0.85714 0.0
C1025 C 0.42683 0.99592 0.87431 0.0
C1026 C 0.44452 0.00847 0.8668 0.0
C1027 C 0.45121 0.0071 0.84258 0.0
C1028 C 0.44129 1.00038 0.77979 0.0
C1029 C 0.44572 0.01845 0.78178 0.0
C1030 C 0.43797 0.02545 0.76495 0.0
C1031 C 0.42565 0.01459 0.74568 0.0
C1032 C 0.42205 0.9968 0.74286 0.0
C1033 C 0.42977 0.9898 0.75979 0.0
C1034 C 0.46385 0.99333 0.79812 0.0
C1035 C 0.4657 0.97903 0.80738 0.0
C1036 C 0.48233 0.97983 0.80696 0.0
C1037 C 0.49764 0.9949 0.7967 0.0
C1038 C 0.49578 0.00933 0.78743 0.0
C1039 C 0.47915 0.00866 0.78839 0.0
C1040 C 0.57122 0.99533 0.82683 0.0
C1041 C 0.57457 0.98163 0.83443 0.0
C1042 C 0.58247 0.98232 0.85854 0.0
C1043 C 0.58715 0.99677 0.87567 0.0
C1044 C 0.58337 0.0103 0.86823 0.0
C1045 C 0.57561 0.00966 0.84403 0.0
C1046 C 0.57841 1.00337 0.78112 0.0
C1047 C 0.59182 0.02152 0.7827 0.0
C1048 C 0.60677 0.02838 0.7662 0.0
C1049 C 0.60855 0.01728 0.74767 0.0
C1050 C 0.59448 0.99942 0.74513 0.0
C1051 C 0.57963 0.99257 0.76176 0.0
C1052 C 0.54845 0.99573 0.79793 0.0
C1053 C 0.53232 0.97966 0.79416 0.0
C1054 C 0.51601 0.97949 0.79292 0.0
C1055 C 0.51534 0.99543 0.79599 0.0
C1056 C 0.5317 0.01169 0.79901 0.0
C1057 C 0.5481 0.01186 0.79965 0.0
H1058 H 0.99669 0.55981 0.83754 0.0
N1059 N 0.02523 0.57414 0.80416 0.0
H1060 H 0.99464 0.57267 0.87879 0.0
H1061 H 0.05157 0.60194 0.82887 0.0
H1062 H 0.05045 0.61401 0.87136 0.0
H1063 H 0.04398 0.59656 0.76586 0.0
H1064 H 0.03362 0.61107 0.7348 0.0
H1065 H 0.99034 0.56574 0.79645 0.0
H1066 H 0.98004 0.58055 0.76658 0.0
H1067 H 0.99692 0.54215 0.78624 0.0
H1068 H 0.05005 0.56648 0.81922 0.0
H1069 H 0.99602 0.51342 0.78359 0.0
H1070 H 0.04883 0.53763 0.81852 0.0
H1071 H 0.99733 0.44657 0.84135 0.0
H1072 H 0.99678 0.43374 0.88374 0.0
H1073 H 0.04777 0.43742 0.86684 0.0
H1074 H 0.04852 0.45107 0.82472 0.0
H1075 H 0.04071 0.45243 0.76408 0.0
H1076 H 0.0296 0.42683 0.73432 0.0
H1077 H 0.97735 0.40358 0.77072 0.0
H1078 H 0.98848 0.42954 0.79955 0.0
H1079 H 0.9935 0.46029 0.80554 0.0
H1080 H 0.99334 0.4886 0.80548 0.0
H1081 H 0.05074 0.51719 0.79237 0.0
N1082 N 0.02334 0.45646 0.80387 0.0
H1083 H 0.0508 0.48893 0.79486 0.0
C1084 C 0.02417 0.58025 0.82987 0.0
C1085 C 1.00834 0.57181 0.84466 0.0
C1086 C 1.00734 0.57908 0.86857 0.0
C1087 C 0.02233 0.59463 0.87863 0.0
C1088 C 0.0384 0.60244 0.86413 0.0
C1089 C 0.0392 0.59544 0.83994 0.0
C1090 C 0.01804 0.58011 0.78354 0.0
C1091 C 0.02992 0.59272 0.76557 0.0
C1092 C 0.02399 0.60114 0.74806 0.0
C1093 C 1.006 0.59717 0.74829 0.0
C1094 C 0.99394 0.58386 0.76553 0.0
C1095 C 0.99986 0.5754 0.78289 0.0
C1096 C 0.02377 0.55668 0.80258 0.0
C1097 C 1.0084 0.54137 0.79303 0.0
C1098 C 1.00783 0.52478 0.79177 0.0
C1099 C 0.02243 0.52303 0.80055 0.0
C1100 C 0.03752 0.53836 0.81073 0.0
C1101 C 0.03821 0.55492 0.81145 0.0
C1102 C 0.02314 0.45003 0.82988 0.0
C1103 C 0.00856 0.44498 0.84684 0.0
C1104 C 1.00817 0.43738 0.87109 0.0
C1105 C 0.02219 0.43441 0.87879 0.0
C1106 C 0.03686 0.43972 0.86184 0.0
C1107 C 0.0373 0.44747 0.83771 0.0
C1108 C 0.01549 0.44287 0.78401 0.0
C1109 C 0.02674 0.44199 0.76509 0.0
C1110 C 0.02041 0.42724 0.74834 0.0
C1111 C 1.00263 0.41293 0.75033 0.0
C1112 C 0.99107 0.41436 0.76842 0.0
C1113 C 0.99742 0.42921 0.78504 0.0
C1114 C 0.0223 0.47258 0.80097 0.0
C1115 C 1.00606 0.47268 0.80306 0.0
C1116 C 1.00598 0.48896 0.80261 0.0
C1117 C 0.02209 0.50543 0.79942 0.0
C1118 C 0.03812 0.505 0.79584 0.0
C1119 C 0.03821 0.48882 0.79691 0.0
H1120 H 0.45548 0.43221 0.82752 0.0
N1121 N 0.45148 0.45872 0.80464 0.0
H1122 H 0.44323 0.41796 0.86936 0.0
H1123 H 0.43593 0.46895 0.84031 0.0
H1124 H 0.42439 0.45542 0.88301 0.0
H1125 H 0.41833 0.44305 0.78601 0.0
H1126 H 0.40371 0.41683 0.75789 0.0
H1127 H 0.46837 0.44339 0.77886 0.0
H1128 H 0.45423 0.41775 0.74919 0.0
H1129 H 0.48275 0.46593 0.8298 0.0
H1130 H 0.46099 0.48563 0.77128 0.0
H1131 H 0.51134 0.4937 0.82753 0.0
H1132 H 0.49006 0.51298 0.76721 0.0
H1133 H 0.59339 0.5703 0.82589 0.0
H1134 H 0.60787 0.58135 0.86806 0.0
H1135 H 0.57138 0.601 0.88449 0.0
H1136 H 0.55759 0.59058 0.84165 0.0
H1137 H 0.58272 0.60928 0.78857 0.0
H1138 H 0.60869 0.62497 0.76015 0.0
H1139 H 0.60754 0.57488 0.74533 0.0
H1140 H 0.58232 0.55964 0.77504 0.0
H1141 H 0.56494 0.54277 0.81128 0.0
H1142 H 0.53791 0.51338 0.80726 0.0
H1143 H 0.50729 0.53942 0.78886 0.0
N1144 N 0.56725 0.57552 0.80458 0.0
H1145 H 0.53467 0.56852 0.79108 0.0
C1146 C 0.4464 0.45154 0.83066 0.0
C1147 C 0.44876 0.43738 0.83954 0.0
C1148 C 0.44184 0.42933 0.86366 0.0
C1149 C 0.43262 0.43538 0.8796 0.0
C1150 C 0.43102 0.45009 0.87107 0.0
C1151 C 0.43777 0.458 0.84681 0.0
C1152 C 0.44439 0.44524 0.78443 0.0
C1153 C 0.42628 0.43775 0.77761 0.0
C1154 C 0.41797 0.42275 0.76135 0.0
C1155 C 0.42768 0.41495 0.75113 0.0
C1156 C 0.44616 0.42308 0.75701 0.0
C1157 C 0.45439 0.43794 0.77371 0.0
C1158 C 0.46943 0.47381 0.80111 0.0
C1159 C 0.48415 0.47609 0.8161 0.0
C1160 C 0.50071 0.49206 0.81454 0.0
C1161 C 0.50314 0.50596 0.79749 0.0
C1162 C 0.48869 0.50299 0.78125 0.0
C1163 C 0.47205 0.48722 0.78327 0.0
C1164 C 0.57449 0.57978 0.8306 0.0
C1165 C 0.58842 0.57684 0.83869 0.0
C1166 C 0.59664 0.58313 0.86293 0.0
C1167 C 0.59095 0.59228 0.87972 0.0
C1168 C 0.57643 0.59442 0.87192 0.0
C1169 C 0.56837 0.58829 0.84758 0.0
C1170 C 0.58044 0.5833 0.78402 0.0
C1171 C 0.58791 0.60166 0.77878 0.0
C1172 C 0.60276 0.61059 0.76235 0.0
C1173 C 0.61045 0.6013 0.75038 0.0
C1174 C 0.60232 0.58264 0.75458 0.0
C1175 C 0.58762 0.57377 0.77142 0.0
C1176 C 0.55186 0.55787 0.80095 0.0
C1177 C 0.55248 0.54209 0.80571 0.0
C1178 C 0.53687 0.52523 0.80377 0.0
C1179 C 0.52019 0.52378 0.79767 0.0
C1180 C 0.51979 0.53973 0.79291 0.0
C1181 C 0.53544 0.55648 0.79435 0.0
H1182 H 0.69746 0.91269 0.53464 0.0
N1183 N 0.66833 0.8967 0.56691 0.0
H1184 H 0.69887 0.92612 0.49249 0.0
H1185 H 0.64103 0.89476 0.53998 0.0
H1186 H 0.64175 0.90666 0.49651 0.0
H1187 H 0.64868 0.90144 0.60256 0.0
H1188 H 0.65859 0.9264 0.63334 0.0
H1189 H 0.70321 0.92276 0.57646 0.0
H1190 H 0.7131 0.9479 0.60607 0.0
H1191 H 0.69885 0.89415 0.5713 0.0
H1192 H 0.64113 0.86338 0.56843 0.0
H1193 H 0.70016 0.8665 0.5749 0.0
H1194 H 0.6422 0.83562 0.57071 0.0
H1195 H 0.69866 0.78557 0.54413 0.0
H1196 H 0.70015 0.77315 0.50248 0.0
H1197 H 0.64286 0.75049 0.49296 0.0
H1198 H 0.64142 0.76221 0.53582 0.0
H1199 H 0.64815 0.75138 0.59796 0.0
H1200 H 0.65831 0.73696 0.62918 0.0
H1201 H 0.71317 0.77931 0.61681 0.0
H1202 H 0.7025 0.79432 0.58763 0.0
H1203 H 0.69524 0.81233 0.55015 0.0
H1204 H 0.6961 0.84113 0.55131 0.0
H1205 H 0.64768 0.81716 0.59778 0.0
N1206 N 0.66821 0.78026 0.56924 0.0
H1207 H 0.64642 0.78821 0.59508 0.0
C1208 C 0.66919 0.90309 0.54074 0.0
C1209 C 0.68531 0.91154 0.52664 0.0
C1210 C 0.68599 0.91898 0.50215 0.0
C1211 C 0.67043 0.91767 0.49081 0.0
C1212 C 0.65414 0.90845 0.50467 0.0
C1213 C 0.65361 0.90142 0.52943 0.0
C1214 C 0.67509 0.91014 0.58714 0.0
C1215 C 0.66281 0.91137 0.60373 0.0
C1216 C 0.6685 0.92575 0.62109 0.0
C1217 C 0.68665 0.93934 0.62211 0.0
C1218 C 0.69905 0.93764 0.60617 0.0
C1219 C 0.69336 0.9232 0.58896 0.0
C1220 C 0.6698 0.88083 0.57001 0.0
C1221 C 0.68644 0.88147 0.57159 0.0
C1222 C 0.68715 0.86555 0.57338 0.0
C1223 C 0.67128 0.84868 0.5733 0.0
C1224 C 0.65472 0.84825 0.57155 0.0
C1225 C 0.65404 0.86411 0.57005 0.0
C1226 C 0.66982 0.77462 0.54337 0.0
C1227 C 0.68638 0.77791 0.53325 0.0
C1228 C 0.68724 0.77091 0.50909 0.0
C1229 C 0.67161 0.76069 0.49419 0.0
C1230 C 0.65514 0.75796 0.50402 0.0
C1231 C 0.65428 0.7648 0.52839 0.0
C1232 C 0.67455 0.77366 0.59011 0.0
C1233 C 0.66231 0.75769 0.60255 0.0
C1234 C 0.66824 0.74935 0.62012 0.0
C1235 C 0.68669 0.75659 0.62519 0.0
C1236 C 0.69886 0.77322 0.61367 0.0
C1237 C 0.69282 0.78178 0.59661 0.0
C1238 C 0.67048 0.79797 0.5721 0.0
C1239 C 0.68481 0.81326 0.56058 0.0
C1240 C 0.68537 0.82984 0.56147 0.0
C1241 C 0.67178 0.83153 0.57428 0.0
C1242 C 0.65809 0.81636 0.58705 0.0
C1243 C 0.65742 0.7998 0.5858 0.0
H1244 H 0.26323 0.88778 0.53592 0.0
N1245 N 0.24535 0.89676 0.56935 0.0
H1246 H 0.27494 0.90084 0.49299 0.0
H1247 H 0.24019 0.92196 0.54415 0.0
H1248 H 0.25255 0.93571 0.5024 0.0
H1249 H 0.23223 0.91778 0.58785 0.0
H1250 H 0.24803 0.94357 0.61663 0.0
H1251 H 0.27421 0.90491 0.59777 0.0
H1252 H 0.28939 0.92959 0.62864 0.0
H1253 H 0.23696 0.86712 0.59578 0.0
H1254 H 0.21341 0.8922 0.5504 0.0
H1255 H 0.20774 0.83982 0.59905 0.0
H1256 H 0.18433 0.86462 0.5521 0.0
H1257 H 0.1301 0.75676 0.54174 0.0
H1258 H 0.11711 0.7448 0.49904 0.0
H1259 H 0.09598 0.78113 0.49641 0.0
H1260 H 0.11047 0.79395 0.5378 0.0
H1261 H 0.10223 0.79086 0.58057 0.0
H1262 H 0.07705 0.77498 0.60996 0.0
H1263 H 0.09852 0.74136 0.63461 0.0
H1264 H 0.12335 0.75691 0.60381 0.0
H1265 H 0.16087 0.78724 0.57067 0.0
H1266 H 0.18891 0.81581 0.57248 0.0
H1267 H 0.15884 0.84377 0.57588 0.0
N1268 N 0.12776 0.78171 0.56909 0.0
H1269 H 0.13087 0.815 0.57271 0.0
C1270 C 0.25094 0.90389 0.54341 0.0
C1271 C 0.26069 0.89808 0.52844 0.0
C1272 C 0.26752 0.90572 0.50404 0.0
C1273 C 0.26485 0.91948 0.49415 0.0
C1274 C 0.25472 0.925 0.50906 0.0
C1275 C 0.24775 0.91723 0.53326 0.0
C1276 C 0.25237 0.90977 0.59012 0.0
C1277 C 0.24473 0.92035 0.59666 0.0
C1278 C 0.25374 0.93501 0.61351 0.0
C1279 C 0.27033 0.93909 0.62478 0.0
C1280 C 0.27706 0.92743 0.61974 0.0
C1281 C 0.26828 0.91311 0.60237 0.0
C1282 C 0.22751 0.88158 0.57251 0.0
C1283 C 0.22544 0.8667 0.58651 0.0
C1284 C 0.20872 0.85103 0.58809 0.0
C1285 C 0.19362 0.84974 0.57534 0.0
C1286 C 0.19556 0.86503 0.56225 0.0
C1287 C 0.2123 0.88085 0.56104 0.0
C1288 C 0.121 0.77598 0.54313 0.0
C1289 C 0.12286 0.76224 0.53163 0.0
C1290 C 0.11518 0.75528 0.50735 0.0
C1291 C 0.10511 0.76168 0.49419 0.0
C1292 C 0.10371 0.77586 0.5056 0.0
C1293 C 0.11179 0.78309 0.52961 0.0
C1294 C 0.11468 0.77497 0.58977 0.0
C1295 C 0.10174 0.78027 0.59246 0.0
C1296 C 0.08729 0.77118 0.60957 0.0
C1297 C 0.08553 0.75668 0.62463 0.0
C1298 C 0.09915 0.75216 0.62299 0.0
C1299 C 0.11349 0.76117 0.60564 0.0
C1300 C 0.14381 0.79892 0.57188 0.0
C1301 C 0.16038 0.79956 0.57201 0.0
C1302 C 0.17641 0.81596 0.57325 0.0
C1303 C 0.17629 0.83226 0.57464 0.0
C1304 C 0.15955 0.83158 0.57464 0.0
C1305 C 0.14346 0.81507 0.5731 0.0
H1306 H 0.24134 0.32554 0.54854 0.0
N1307 N 0.24505 0.35595 0.57131 0.0
H1308 H 0.25375 0.32362 0.50679 0.0
H1309 H 0.26064 0.38176 0.53569 0.0
H1310 H 0.27239 0.37987 0.4931 0.0
H1311 H 0.27819 0.37405 0.5899 0.0
H1312 H 0.29327 0.363 0.61814 0.0
H1313 H 0.22875 0.32381 0.5973 0.0
H1314 H 0.24334 0.31286 0.62709 0.0
H1315 H 0.21403 0.33191 0.54547 0.0
H1316 H 0.23492 0.37248 0.60533 0.0
H1317 H 0.18518 0.33052 0.54795 0.0
H1318 H 0.20558 0.37014 0.60956 0.0
H1319 H 0.10231 0.32411 0.549 0.0
H1320 H 0.08826 0.32183 0.50674 0.0
H1321 H 0.12521 0.37825 0.49318 0.0
H1322 H 0.1385 0.38047 0.5361 0.0
H1323 H 0.11217 0.37261 0.58805 0.0
H1324 H 0.08594 0.36175 0.61601 0.0
H1325 H 0.08768 0.31303 0.63001 0.0
H1326 H 0.11313 0.32357 0.60059 0.0
H1327 H 0.13105 0.32485 0.56428 0.0
H1328 H 0.15835 0.32289 0.56808 0.0
H1329 H 0.18812 0.37926 0.5884 0.0
N1330 N 0.1282 0.35488 0.57193 0.0
H1331 H 0.1605 0.38054 0.58634 0.0
C1332 C 0.25025 0.3539 0.54533 0.0
C1333 C 0.24804 0.33744 0.53651 0.0
C1334 C 0.25506 0.33635 0.51246 0.0
C1335 C 0.26426 0.35163 0.49652 0.0
C1336 C 0.26577 0.3679 0.50503 0.0
C1337 C 0.25889 0.369 0.52921 0.0
C1338 C 0.25239 0.34986 0.59159 0.0
C1339 C 0.27047 0.3608 0.59838 0.0
C1340 C 0.27904 0.35443 0.61471 0.0
C1341 C 0.26964 0.33692 0.62503 0.0
C1342 C 0.25119 0.32626 0.61919 0.0
C1343 C 0.2427 0.33258 0.60242 0.0
C1344 C 0.22695 0.3527 0.57484 0.0
C1345 C 0.21239 0.34035 0.55951 0.0
C1346 C 0.19567 0.33942 0.56118 0.0
C1347 C 0.19291 0.35045 0.57866 0.0
C1348 C 0.2072 0.36185 0.5952 0.0
C1349 C 0.22399 0.36307 0.59308 0.0
C1350 C 0.12135 0.35255 0.54574 0.0
C1351 C 0.10746 0.33593 0.5368 0.0
C1352 C 0.09949 0.33465 0.51251 0.0
C1353 C 0.10542 0.34992 0.49654 0.0
C1354 C 0.11995 0.36631 0.50514 0.0
C1355 C 0.12774 0.36759 0.52951 0.0
C1356 C 0.11476 0.34906 0.59218 0.0
C1357 C 0.10704 0.35971 0.59754 0.0
C1358 C 0.09203 0.35346 0.61372 0.0
C1359 C 0.08443 0.33638 0.62538 0.0
C1360 C 0.0928 0.32607 0.62101 0.0
C1361 C 0.10763 0.33222 0.60436 0.0
C1362 C 0.1437 0.35281 0.57557 0.0
C1363 C 0.14338 0.33662 0.57023 0.0
C1364 C 0.15915 0.33563 0.57204 0.0
C1365 C 0.17568 0.35091 0.57861 0.0
C1366 C 0.17576 0.36703 0.58398 0.0
C1367 C 0.15997 0.36788 0.58264 0.0
C1368 C 0.02206 0.41985 0.09769 0.0
C1369 C 1.00827 0.40283 0.08986 0.0
H1370 H 0.03157 0.44077 0.12607 0.0
C1371 C 0.99297 0.39376 0.1057 0.0
H1372 H 0.03394 0.42734 0.08579 0.0
C1373 C 0.99175 0.40137 0.12922 0.0
C1374 C 1.00571 0.4183 0.13727 0.0
H1375 H 0.98213 0.38061 0.10025 0.0
H1376 H 0.98006 0.39374 0.14137 0.0
C1377 C 0.02074 0.42753 0.12094 0.0
C1378 C 0.62811 0.59747 0.09992 0.0
C1379 C 0.62534 0.61124 0.09044 0.0
H1380 H 0.62221 0.57783 0.12964 0.0
C1381 C 0.61443 0.61597 0.10483 0.0
H1382 H 0.63635 0.59341 0.08925 0.0
C1383 C 0.6065 0.60721 0.12815 0.0
C1384 C 0.60913 0.59334 0.13762 0.0
H1385 H 0.6121 0.6266 0.09822 0.0
H1386 H 0.59851 0.61153 0.13895 0.0
C1387 C 0.62004 0.58858 0.12318 0.0
C1388 C 0.42088 0.02995 0.10036 0.0
C1389 C 0.41343 0.014 0.08579 0.0
H1390 H 0.4348 0.04372 0.13492 0.0
C1391 C 0.41539 0.99968 0.09502 0.0
H1392 H 0.41952 0.04121 0.09391 0.0
C1393 C 0.42447 1.00122 0.11834 0.0
C1394 C 0.43166 0.01705 0.13323 0.0
H1395 H 0.40996 0.98724 0.08417 0.0
H1396 H 0.42591 0.98998 0.12459 0.0
C1397 C 0.42977 0.03142 0.12385 0.0
C1398 C 0.40038 0.98428 0.93775 0.0
C1399 C 0.40464 1.00133 0.9471 0.0
H1400 H 0.40432 0.96921 0.90792 0.0
C1401 C 0.41636 0.01656 0.93244 0.0
H1402 H 0.39149 0.97227 0.94862 0.0
C1403 C 0.42358 0.0148 0.90898 0.0
C1404 C 0.41937 0.99776 0.8996 0.0
H1405 H 0.41989 0.0299 0.93897 0.0
H1406 H 0.43225 0.02681 0.89798 0.0
C1407 C 0.40769 0.98253 0.91433 0.0
C1408 C 0.03585 0.42157 0.94228 0.0
C1409 C 0.01934 0.40755 0.95137 0.0
H1410 H 0.04967 0.44133 0.91275 0.0
C1411 C 1.00381 0.40251 0.93651 0.0
H1412 H 0.04806 0.42587 0.95333 0.0
C1413 C 1.00476 0.41121 0.91307 0.0
C1414 C 0.02124 0.42531 0.90397 0.0
H1415 H 0.99088 0.39169 0.94282 0.0
H1416 H 0.99256 0.40665 0.90189 0.0
C1417 C 0.03678 0.43039 0.91892 0.0
C1418 C 0.61682 0.59879 0.94279 0.0
C1419 C 0.61944 0.61541 0.95168 0.0
H1420 H 0.60542 0.57825 0.91375 0.0
C1421 C 0.61236 0.62421 0.93698 0.0
H1422 H 0.62195 0.59156 0.95374 0.0
C1423 C 0.60309 0.61669 0.91377 0.0
C1424 C 0.60048 0.60007 0.9048 0.0
H1425 H 0.61421 0.63706 0.94318 0.0
H1426 H 0.59828 0.62412 0.90261 0.0
C1427 C 0.60739 0.59119 0.91973 0.0
C1428 C 0.03061 0.62915 0.93152 0.0
C1429 C 0.01873 0.61844 0.95114 0.0
H1430 H 0.04046 0.63035 0.89303 0.0
C1431 C 1.00814 0.59987 0.94702 0.0
H1432 H 0.03881 0.64354 0.93409 0.0
C1433 C 0.00952 0.59212 0.92382 0.0
C1434 C 0.02119 0.60281 0.90381 0.0
H1435 H 0.99898 0.59126 0.96195 0.0
H1436 H 1.00153 0.57769 0.92183 0.0
C1437 C 0.03164 0.62149 0.90802 0.0
C1438 C 0.42418 0.40948 0.94313 0.0
C1439 C 0.40759 0.40737 0.9511 0.0
H1440 H 0.44534 0.42038 0.91498 0.0
C1441 C 0.39943 0.41475 0.9356 0.0
H1442 H 0.43093 0.4041 0.95473 0.0
C1443 C 0.40756 0.42386 0.91255 0.0
C1444 C 0.42419 0.42602 0.90453 0.0
H1445 H 0.3866 0.41329 0.94108 0.0
H1446 H 0.4006 0.42891 0.90079 0.0
C1447 C 0.43242 0.41877 0.92023 0.0
C1448 C 0.60101 0.98385 0.93891 0.0
C1449 C 0.6146 1.00058 0.94807 0.0
H1450 H 0.58141 0.96953 0.90937 0.0
C1451 C 0.61901 0.01602 0.93332 0.0
H1452 H 0.59719 0.97169 0.94986 0.0
C1453 C 0.61012 0.01476 0.90995 0.0
C1454 C 0.59646 0.99804 0.90078 0.0
H1455 H 0.62949 0.02912 0.93968 0.0
H1456 H 0.6142 0.02691 0.89886 0.0
C1457 C 0.592 0.9826 0.9156 0.0
C1458 C 0.62837 0.02832 0.10104 0.0
C1459 C 0.61953 0.01233 0.08658 0.0
H1460 H 0.62841 0.0425 0.13529 0.0
C1461 C 0.60297 0.9984 0.09566 0.0
H1462 H 0.64118 0.0393 0.09466 0.0
C1463 C 0.59546 1.00034 0.11871 0.0
C1464 C 0.60441 0.0162 0.13349 0.0
H1465 H 0.59569 0.98596 0.08488 0.0
H1466 H 0.58256 0.9894 0.12485 0.0
C1467 C 0.62095 0.0302 0.12428 0.0
C1468 C 0.02618 0.61211 0.0974 0.0
C1469 C 0.01156 0.61405 0.08957 0.0
H1470 H 0.03673 0.60142 0.12548 0.0
C1471 C 0.99612 0.60665 0.10528 0.0
H1472 H 0.03824 0.61755 0.08567 0.0
C1473 C 0.99535 0.59762 0.12832 0.0
C1474 C 0.00992 0.59556 0.13615 0.0
H1475 H 0.98467 0.60799 0.09994 0.0
H1476 H 0.98339 0.59253 0.14021 0.0
C1477 C 0.02534 0.60292 0.12033 0.0
C1478 C 0.41251 0.39124 0.10861 0.0
C1479 C 0.41139 0.40216 0.08928 0.0
H1480 H 0.42119 0.38965 0.14692 0.0
C1481 C 0.41953 0.42071 0.09371 0.0
H1482 H 0.4062 0.37686 0.1058 0.0
C1483 C 0.42875 0.42824 0.11694 0.0
C1484 C 0.42965 0.41733 0.13668 0.0
H1485 H 0.41903 0.42948 0.079 0.0
H1486 H 0.4353 0.44266 0.11918 0.0
C1487 C 0.42129 0.39867 0.13215 0.0
C1488 C 0.65975 0.72774 0.43786 0.0
C1489 C 0.67501 0.73662 0.42193 0.0
H1490 H 0.64687 0.72805 0.47333 0.0
C1491 C 0.68889 0.75366 0.42952 0.0
H1492 H 0.64885 0.71457 0.43263 0.0
C1493 C 0.6876 0.7616 0.45255 0.0
C1494 C 0.67252 0.75259 0.46888 0.0
H1495 H 0.70076 0.76097 0.41753 0.0
H1496 H 0.69846 0.77487 0.45746 0.0
C1497 C 0.65857 0.73557 0.46114 0.0
C1498 C 0.29768 0.9405 0.43768 0.0
C1499 C 0.28874 0.94684 0.42178 0.0
H1500 H 0.29746 0.92735 0.47316 0.0
C1501 C 0.27166 0.94358 0.42938 0.0
H1502 H 0.31088 0.94284 0.43242 0.0
C1503 C 0.26378 0.93436 0.45243 0.0
C1504 C 0.27287 0.92838 0.46877 0.0
H1505 H 0.26429 0.94807 0.41742 0.0
H1506 H 0.2505 0.9319 0.45737 0.0
C1507 C 0.2899 0.93148 0.46098 0.0
C1508 C 0.0849 0.3624 0.44024 0.0
C1509 C 0.07785 0.34697 0.42455 0.0
H1510 H 0.09863 0.37527 0.47536 0.0
C1511 C 0.08005 0.33255 0.43257 0.0
H1512 H 0.08335 0.37371 0.43473 0.0
C1513 C 0.08913 0.33355 0.45568 0.0
C1514 C 0.0961 0.34894 0.47152 0.0
H1515 H 0.07491 0.32049 0.42086 0.0
H1516 H 0.09084 0.32231 0.46096 0.0
C1517 C 0.09381 0.36333 0.46348 0.0
C1518 C 0.06646 0.32442 0.27039 0.0
C1519 C 0.07478 0.33997 0.28586 0.0
H1520 H 0.06731 0.31143 0.23536 0.0
C1521 C 0.0913 0.35443 0.27765 0.0
H1522 H 0.05368 0.31307 0.27606 0.0
C1523 C 0.0993 0.35339 0.25449 0.0
C1524 C 0.09089 0.33792 0.23881 0.0
H1525 H 0.09817 0.36656 0.2892 0.0
H1526 H 0.11215 0.3647 0.249 0.0
C1527 C 0.07437 0.32344 0.2471 0.0
C1528 C 0.67303 0.74496 0.27587 0.0
C1529 C 0.68661 0.74149 0.28399 0.0
H1530 H 0.664 0.75662 0.24714 0.0
C1531 C 0.70191 0.74737 0.26826 0.0
H1532 H 0.66116 0.74081 0.28766 0.0
C1533 C 0.70341 0.75617 0.24466 0.0
C1534 C 0.68974 0.75953 0.23637 0.0
H1535 H 0.71259 0.74484 0.27391 0.0
H1536 H 0.71512 0.75996 0.23266 0.0
C1537 C 0.67463 0.75397 0.25249 0.0
C1538 C 0.27994 0.93597 0.27698 0.0
C1539 C 0.28311 0.95304 0.28447 0.0
H1540 H 0.26835 0.91474 0.24909 0.0
C1541 C 0.27675 0.96191 0.26845 0.0
H1542 H 0.28445 0.92866 0.28904 0.0
C1543 C 0.26779 0.95405 0.24514 0.0
C1544 C 0.26476 0.93702 0.23748 0.0
H1545 H 0.27903 0.97509 0.27364 0.0
H1546 H 0.26363 0.96155 0.23287 0.0
C1547 C 0.27077 0.92802 0.25393 0.0
C1548 C 0.70516 0.95491 0.27041 0.0
C1549 C 0.68836 0.95156 0.27962 0.0
H1550 H 0.71959 0.94965 0.24103 0.0
C1551 C 0.67291 0.94005 0.26519 0.0
H1552 H 0.71732 0.9636 0.2811 0.0
C1553 C 0.67421 0.93216 0.2421 0.0
C1554 C 0.691 0.9355 0.23285 0.0
H1555 H 0.65974 0.9372 0.27162 0.0
H1556 H 0.66205 0.92369 0.23126 0.0
C1557 C 0.70646 0.94695 0.24735 0.0
C1558 C 0.0621 0.7455 0.26632 0.0
C1559 C 0.07199 0.74206 0.28486 0.0
H1560 H 0.06186 0.75612 0.22884 0.0
C1561 C 0.09018 0.74801 0.27995 0.0
H1562 H 0.04802 0.74096 0.26951 0.0
C1563 C 0.09834 0.75724 0.257 0.0
C1564 C 0.08841 0.76039 0.23801 0.0
H1565 H 0.09822 0.74574 0.29404 0.0
H1566 H 0.1125 0.76199 0.25432 0.0
C1567 C 0.07014 0.75437 0.24306 0.0
C1568 C 0.27894 0.35264 0.2819 0.0
C1569 C 0.28506 0.34054 0.28689 0.0
H1570 H 0.26485 0.36078 0.25612 0.0
C1571 C 0.28186 0.3273 0.26831 0.0
H1572 H 0.28103 0.36288 0.296 0.0
C1573 C 0.27304 0.32641 0.24497 0.0
C1574 C 0.2668 0.33847 0.23988 0.0
H1575 H 0.28655 0.31788 0.27154 0.0
H1576 H 0.27148 0.31644 0.23076 0.0
C1577 C 0.26975 0.35149 0.25886 0.0
C1578 C 0.29744 0.36418 0.44046 0.0
C1579 C 0.28924 0.34864 0.42496 0.0
H1580 H 0.29629 0.37718 0.4753 0.0
C1581 C 0.27264 0.33419 0.43295 0.0
H1582 H 0.31027 0.37553 0.43495 0.0
C1583 C 0.26444 0.33525 0.45587 0.0
C1584 C 0.2727 0.35072 0.47158 0.0
H1585 H 0.26586 0.32206 0.42137 0.0
H1586 H 0.25151 0.32396 0.46113 0.0
C1587 C 0.28932 0.36517 0.46353 0.0
C1588 C 0.68554 0.93695 0.42266 0.0
C1589 C 0.67428 0.94401 0.41722 0.0
H1590 H 0.69261 0.9224 0.44915 0.0
C1591 C 0.66123 0.94175 0.43555 0.0
H1592 H 0.6956 0.9383 0.40871 0.0
C1593 C 0.6599 0.93316 0.45931 0.0
C1594 C 0.6713 0.92621 0.46501 0.0
H1595 H 0.65246 0.94718 0.43193 0.0
H1596 H 0.65022 0.93246 0.47342 0.0
C1597 C 0.68391 0.92796 0.44605 0.0
C1598 C 0.08018 0.72708 0.44086 0.0
C1599 C 0.07721 0.73726 0.42225 0.0
H1600 H 0.09051 0.72645 0.47839 0.0
C1601 C 0.08371 0.75555 0.42711 0.0
H1602 H 0.0752 0.7129 0.43773 0.0
C1603 C 0.09305 0.76355 0.45007 0.0
C1604 C 0.09577 0.75334 0.4691 0.0
H1605 H 0.08179 0.76379 0.41296 0.0
H1606 H 0.09825 0.77779 0.4527 0.0
C1607 C 0.08914 0.73495 0.46413 0.0
C1608 C 0.32831 0.07144 0.76106 0.0
C1609 C 0.34303 0.06902 0.75619 0.0
H1610 H 0.316 0.08157 0.7869 0.0
C1611 C 0.35653 0.07448 0.77512 0.0
H1612 H 0.31778 0.06752 0.74667 0.0
C1613 C 0.35529 0.08204 0.79857 0.0
C1614 C 0.34072 0.0848 0.80347 0.0
H1615 H 0.36797 0.07263 0.772 0.0
H1616 H 0.3657 0.08546 0.81296 0.0
C1617 C 0.32727 0.07942 0.78426 0.0
C1618 C 0.93435 0.27101 0.76082 0.0
C1619 C 0.9526 0.27746 0.75564 0.0
H1620 H 0.9124 0.25686 0.787 0.0
C1621 C 0.96297 0.27474 0.77423 0.0
H1622 H 0.92597 0.27274 0.74671 0.0
C1623 C 0.95535 0.26613 0.7978 0.0
C1624 C 0.93702 0.25961 0.80314 0.0
H1625 H 0.97712 0.27971 0.77085 0.0
H1626 H 0.96401 0.26498 0.81202 0.0
C1627 C 0.92661 0.26201 0.7841 0.0
C1628 C 0.76144 0.70512 0.76801 0.0
C1629 C 0.74779 0.68829 0.75923 0.0
H1630 H 0.78147 0.71966 0.79701 0.0
C1631 C 0.74366 0.67297 0.77411 0.0
H1632 H 0.76502 0.71718 0.75698 0.0
C1633 C 0.75296 0.6744 0.79711 0.0
C1634 C 0.76675 0.69118 0.80582 0.0
H1635 H 0.73315 0.6598 0.76808 0.0
H1636 H 0.74914 0.66232 0.80823 0.0
C1637 C 0.77083 0.70654 0.79103 0.0
C1638 C 0.73709 0.65708 0.61199 0.0
C1639 C 0.74145 0.67431 0.62062 0.0
H1640 H 0.74056 0.64139 0.58267 0.0
C1641 C 0.75304 0.68923 0.60533 0.0
H1642 H 0.72832 0.64529 0.62336 0.0
C1643 C 0.7599 0.68698 0.58183 0.0
C1644 C 0.75546 0.66975 0.57306 0.0
H1645 H 0.75663 0.7027 0.6113 0.0
H1646 H 0.76839 0.69876 0.57027 0.0
C1647 C 0.74406 0.65484 0.58856 0.0
C1648 C 0.3722 0.08932 0.60855 0.0
C1649 C 0.35516 0.07597 0.61713 0.0
H1650 H 0.38734 0.1091 0.57958 0.0
C1651 C 0.34006 0.0722 0.60194 0.0
H1652 H 0.3841 0.09263 0.61984 0.0
C1653 C 0.34193 0.08146 0.57876 0.0
C1654 C 0.35893 0.0949 0.57017 0.0
H1655 H 0.32673 0.06191 0.60782 0.0
H1656 H 0.33001 0.07784 0.56734 0.0
C1657 C 0.37406 0.09871 0.58539 0.0
C1658 C 0.94241 0.26483 0.61213 0.0
C1659 C 0.94815 0.28292 0.61752 0.0
H1660 H 0.92884 0.24283 0.58586 0.0
C1661 C 0.94478 0.29296 0.59916 0.0
H1662 H 0.94465 0.25669 0.62606 0.0
C1663 C 0.93619 0.28518 0.57563 0.0
C1664 C 0.93035 0.26701 0.57012 0.0
H1665 H 0.94917 0.30698 0.6027 0.0
H1666 H 0.93449 0.2936 0.5616 0.0
C1667 C 0.93344 0.25692 0.5889 0.0
C1668 C 0.3414 0.27522 0.60205 0.0
C1669 C 0.35663 0.28648 0.61706 0.0
H1670 H 0.3311 0.2597 0.56725 0.0
C1671 C 0.3736 0.29024 0.60803 0.0
H1672 H 0.32812 0.27207 0.60834 0.0
C1673 C 0.37529 0.28295 0.58456 0.0
C1674 C 0.36006 0.27178 0.56945 0.0
H1675 H 0.38561 0.29876 0.61916 0.0
H1676 H 0.38854 0.28597 0.57837 0.0
C1677 C 0.3431 0.268 0.57854 0.0
C1678 C 0.73166 0.082 0.60181 0.0
C1679 C 0.73999 0.0747 0.61712 0.0
H1680 H 0.73236 0.09576 0.56676 0.0
C1681 C 0.7564 0.0766 0.60865 0.0
H1682 H 0.71897 0.0807 0.6077 0.0
C1683 C 0.76427 0.08554 0.58539 0.0
C1684 C 0.75585 0.09264 0.56982 0.0
H1685 H 0.76327 0.07128 0.62008 0.0
H1686 H 0.77705 0.08696 0.57974 0.0
C1687 C 0.73944 0.09077 0.57839 0.0
C1688 C 0.93492 0.65343 0.60865 0.0
C1689 C 0.94871 0.67025 0.61719 0.0
H1690 H 0.91488 0.63881 0.57975 0.0
C1691 C 0.95303 0.6855 0.60203 0.0
H1692 H 0.93117 0.64143 0.61992 0.0
C1693 C 0.94385 0.68398 0.57886 0.0
C1694 C 0.92998 0.66719 0.5703 0.0
H1695 H 0.96366 0.69866 0.6079 0.0
H1696 H 0.94787 0.69598 0.56745 0.0
C1697 C 0.92562 0.65193 0.58552 0.0
C1698 C 0.9604 0.70006 0.76527 0.0
C1699 C 0.95593 0.68289 0.75622 0.0
H1700 H 0.95697 0.71553 0.795 0.0
C1701 C 0.94427 0.66784 0.77123 0.0
H1702 H 0.96925 0.71194 0.75413 0.0
C1703 C 0.93737 0.66991 0.79482 0.0
C1704 C 0.94188 0.68707 0.80397 0.0
H1705 H 0.94059 0.65441 0.76493 0.0
H1706 H 0.92878 0.65803 0.80613 0.0
C1707 C 0.95341 0.70212 0.7888 0.0
C1708 C 0.35229 0.26959 0.75973 0.0
C1709 C 0.34124 0.27692 0.75461 0.0
H1710 H 0.35895 0.25443 0.78566 0.0
C1711 C 0.32817 0.27459 0.77296 0.0
H1712 H 0.36235 0.271 0.74574 0.0
C1713 C 0.32663 0.26565 0.79645 0.0
C1714 C 0.3378 0.25837 0.80184 0.0
H1715 H 0.31956 0.28024 0.76957 0.0
H1716 H 0.31697 0.26492 0.8106 0.0
C1717 C 0.35043 0.26021 0.78283 0.0
C1718 C 0.75089 0.06059 0.77137 0.0
C1719 C 0.74475 0.06971 0.75546 0.0
H1720 H 0.76381 0.06054 0.80695 0.0
C1721 C 0.74804 0.08676 0.76324 0.0
H1722 H 0.74852 0.0474 0.76599 0.0
C1723 C 0.75713 0.09447 0.78645 0.0
C1724 C 0.76297 0.08523 0.80273 0.0
H1725 H 0.74368 0.09425 0.7513 0.0
H1726 H 0.75963 0.10774 0.79154 0.0
C1727 C 0.7598 0.06821 0.7948 0.0
C1728 C 0.05885 0.35496 0.04145 0.0
C1729 C 0.06379 0.37309 0.04422 0.0
H1730 H 0.06482 0.33424 0.05055 0.0
C1731 C 0.07944 0.38453 0.05822 0.0
H1732 H 0.04695 0.34584 0.03055 0.0
C1733 C 0.08943 0.37782 0.07037 0.0
C1734 C 0.08423 0.35952 0.06844 0.0
H1735 H 0.08356 0.39857 0.06086 0.0
H1736 H 0.10078 0.38692 0.08222 0.0
C1737 C 0.06906 0.3483 0.05315 0.0
C1738 C 0.65046 0.70593 0.0391 0.0
C1739 C 0.66006 0.69674 0.04158 0.0
H1740 H 0.64907 0.72947 0.04812 0.0
C1741 C 0.67643 0.70502 0.05512 0.0
H1742 H 0.63785 0.69992 0.02861 0.0
C1743 C 0.68261 0.72172 0.06706 0.0
C1744 C 0.6728 0.73081 0.06531 0.0
H1745 H 0.68405 0.69821 0.05761 0.0
H1746 H 0.69475 0.72705 0.07858 0.0
C1747 C 0.65684 0.72283 0.05056 0.0
C1748 C 0.31928 0.97216 0.05532 0.0
C1749 C 0.32683 0.9633 0.04197 0.0
H1750 H 0.29786 0.96977 0.07905 0.0
C1751 C 0.31701 0.94448 0.04022 0.0
H1752 H 0.3266 0.98665 0.05723 0.0
C1753 C 0.30018 0.9347 0.05217 0.0
C1754 C 0.29291 0.94347 0.06667 0.0
H1755 H 0.32244 0.93727 0.02989 0.0
H1756 H 0.29301 0.92023 0.05027 0.0
C1757 C 0.30265 0.96239 0.06773 0.0
C1758 C 0.35882 0.05379 0.9996 0.0
C1759 C 0.37666 0.05806 0.99554 0.0
H1760 H 0.33845 0.0605 0.99197 0.0
C1761 C 0.38797 0.0733 0.98064 0.0
H1762 H 0.34983 0.04223 0.01121 0.0
C1763 C 0.38134 0.08349 0.96888 0.0
C1764 C 0.36328 0.07894 0.97211 0.0
H1765 H 0.40177 0.0769 0.97699 0.0
H1766 H 0.39025 0.09445 0.95631 0.0
C1767 C 0.35227 0.06423 0.98832 0.0
C1768 C 0.94849 0.31386 0.99914 0.0
C1769 C 0.96728 0.32182 0.99966 0.0
H1770 H 0.92344 0.29157 0.98699 0.0
C1771 C 0.97516 0.31236 0.98896 0.0
H1772 H 0.94198 0.32072 0.00743 0.0
C1773 C 0.96455 0.29576 0.97675 0.0
C1774 C 0.94576 0.28811 0.97518 0.0
H1775 H 0.98961 0.31815 0.98892 0.0
H1776 H 0.97121 0.28938 0.96748 0.0
C1777 C 0.93786 0.29718 0.98722 0.0
C1778 C 0.71265 0.63785 0.99356 0.0
C1779 C 0.70487 0.64865 0.99782 0.0
H1780 H 0.73492 0.63616 0.97825 0.0
C1781 C 0.7146 0.66685 0.99072 0.0
H1782 H 0.70557 0.62379 0.99892 0.0
C1783 C 0.73135 0.67389 0.9786 0.0
C1784 C 0.73886 0.66294 0.97338 0.0
H1785 H 0.70899 0.67553 0.99363 0.0
H1786 H 0.73805 0.68777 0.97233 0.0
C1787 C 0.72945 0.64492 0.98153 0.0
C1788 C 0.97646 0.66988 0.99089 0.0
C1789 C 0.96813 0.65185 0.99881 0.0
H1790 H 0.97355 0.69041 0.97187 0.0
C1791 C 0.94948 0.64099 0.99544 0.0
H1792 H 0.9908 0.67861 0.99313 0.0
C1793 C 0.93951 0.6478 0.98343 0.0
C1794 C 0.94795 0.66563 0.97442 0.0
H1795 H 0.94261 0.62705 1.00146 0.0
H1796 H 0.92521 0.63898 0.98081 0.0
C1797 C 0.96651 0.67668 0.9788 0.0
C1798 C 0.35432 0.31249 0.98721 0.0
C1799 C 0.37176 0.32171 0.99761 0.0
H1800 H 0.33478 0.28955 0.96612 0.0
C1801 C 0.38233 0.31345 0.99676 0.0
H1802 H 0.34585 0.31849 0.98747 0.0
C1803 C 0.3759 0.29672 0.98481 0.0
C1804 C 0.35879 0.28786 0.97319 0.0
H1805 H 0.39578 0.32012 0.00479 0.0
H1806 H 0.38451 0.29089 0.98426 0.0
C1807 C 0.34794 0.2958 0.97506 0.0
C1808 C 0.70942 0.07136 0.99906 0.0
C1809 C 0.70036 0.05258 0.99651 0.0
H1810 H 0.73289 0.09639 0.99022 0.0
C1811 C 0.70877 0.04462 0.98305 0.0
H1812 H 0.70331 0.07788 0.00951 0.0
C1813 C 0.72549 0.05523 0.97122 0.0
C1814 C 0.73445 0.07412 0.97303 0.0
H1815 H 0.70205 0.03019 0.98052 0.0
H1816 H 0.73093 0.04852 0.95973 0.0
C1817 C 0.72634 0.08198 0.98773 0.0
C1818 C 0.64041 0.93994 0.04503 0.0
C1819 C 0.6516 0.95846 0.04083 0.0
H1820 H 0.63804 0.91562 0.06008 0.0
C1821 C 0.66982 0.96646 0.0477 0.0
H1822 H 0.62633 0.93331 0.03982 0.0
C1823 C 0.6765 0.95634 0.05957 0.0
C1824 C 0.66515 0.93794 0.06477 0.0
H1825 H 0.6788 0.9807 0.04481 0.0
H1826 H 0.69041 0.96315 0.06569 0.0
C1827 C 0.6471 0.9298 0.05681 0.0
C1828 C 0.05263 0.70818 0.05378 0.0
C1829 C 0.0608 0.69926 0.04223 0.0
H1830 H 0.05618 0.73077 0.07593 0.0
C1831 C 0.07964 0.70776 0.04199 0.0
H1832 H 0.03814 0.70197 0.0544 0.0
C1833 C 0.09005 0.72445 0.05399 0.0
C1834 C 0.08189 0.73299 0.06681 0.0
H1835 H 0.08637 0.70132 0.03304 0.0
H1836 H 0.10452 0.7305 0.05364 0.0
C1837 C 0.06303 0.72479 0.06603 0.0
C1838 C 0.31912 0.38108 0.04311 0.0
C1839 C 0.32732 0.37046 0.04289 0.0
H1840 H 0.29671 0.38362 0.05529 0.0
C1841 C 0.31821 0.35331 0.05421 0.0
H1842 H 0.32572 0.39431 0.03434 0.0
C1843 C 0.30171 0.34729 0.0667 0.0
C1844 C 0.2938 0.35821 0.0679 0.0
H1845 H 0.32419 0.34482 0.05449 0.0
H1846 H 0.29559 0.3344 0.07641 0.0
C1847 C 0.30252 0.37499 0.05531 0.0
C1848 C 0.7188 0.68449 0.38567 0.0
C1849 C 0.72695 0.70246 0.37747 0.0
H1850 H 0.722 0.66427 0.40513 0.0
C1851 C 0.74558 0.71351 0.38081 0.0
H1852 H 0.70447 0.67563 0.38347 0.0
C1853 C 0.75571 0.70695 0.39301 0.0
C1854 C 0.74745 0.6892 0.4023 0.0
H1855 H 0.75232 0.72739 0.37456 0.0
H1856 H 0.76998 0.71591 0.39554 0.0
C1857 C 0.72891 0.67795 0.39799 0.0
C1858 C 0.33982 0.04281 0.38502 0.0
C1859 C 0.32178 0.03284 0.3772 0.0
H1860 H 0.36011 0.0664 0.40398 0.0
C1861 C 0.31063 0.04029 0.38081 0.0
H1862 H 0.34875 0.03745 0.38264 0.0
C1863 C 0.31719 0.05703 0.39282 0.0
C1864 C 0.33505 0.06672 0.40164 0.0
H1865 H 0.29668 0.03301 0.37487 0.0
H1866 H 0.30817 0.06227 0.3955 0.0
C1867 C 0.34636 0.05951 0.39716 0.0
C1868 C 0.98406 0.30462 0.38665 0.0
C1869 C 0.99318 0.29659 0.37528 0.0
H1870 H 0.96123 0.30083 0.40832 0.0
C1871 C 0.98478 0.27776 0.37483 0.0
H1872 H 0.9902 0.31909 0.38743 0.0
C1873 C 0.96796 0.26721 0.38643 0.0
C1874 C 0.95921 0.27522 0.39909 0.0
H1875 H 0.99138 0.27115 0.36602 0.0
H1876 H 0.96199 0.25275 0.3859 0.0
C1877 C 0.96734 0.29408 0.39853 0.0
C1878 C 0.0231 0.38093 0.31906 0.0
C1879 C 0.03936 0.38936 0.33287 0.0
H1880 H 1.00462 0.38405 0.29506 0.0
C1881 C 0.04863 0.40817 0.33507 0.0
H1882 H 0.01572 0.36647 0.31678 0.0
C1883 C 0.04203 0.41835 0.32312 0.0
C1884 C 0.02615 0.41 0.30821 0.0
H1885 H 0.06116 0.41506 0.34573 0.0
H1886 H 0.04954 0.4328 0.32534 0.0
C1887 C 0.01668 0.3911 0.3067 0.0
C1888 C 0.64043 0.64616 0.32241 0.0
C1889 C 0.63265 0.65646 0.32999 0.0
H1890 H 0.6367 0.62233 0.30373 0.0
C1891 C 0.61411 0.64933 0.32624 0.0
H1892 H 0.65468 0.65127 0.32491 0.0
C1893 C 0.60371 0.63259 0.31431 0.0
C1894 C 0.61161 0.62259 0.30572 0.0
H1895 H 0.60766 0.65686 0.33198 0.0
H1896 H 0.58951 0.62762 0.31148 0.0
C1897 C 0.63005 0.62948 0.31037 0.0
C1898 C 0.37339 0.97354 0.31616 0.0
C1899 C 0.36874 0.98507 0.32897 0.0
H1900 H 0.3926 0.97105 0.29296 0.0
C1901 C 0.38143 1.00347 0.33016 0.0
H1902 H 0.36388 0.95929 0.31471 0.0
C1903 C 0.39823 0.01024 0.31817 0.0
C1904 C 0.40263 0.99882 0.30424 0.0
H1905 H 0.3783 0.01269 0.34006 0.0
H1906 H 0.40766 0.02449 0.31956 0.0
C1907 C 0.39002 0.98032 0.30378 0.0
C1908 C 0.61794 0.97223 0.31213 0.0
C1909 C 0.63382 0.98357 0.32577 0.0
H1910 H 0.59634 0.97004 0.28896 0.0
C1911 C 0.63897 1.00175 0.32862 0.0
H1912 H 0.61363 0.95816 0.30945 0.0
C1913 C 0.62873 0.00856 0.3174 0.0
C1914 C 0.61329 0.99742 0.30256 0.0
H1915 H 0.65106 0.0108 0.33922 0.0
H1916 H 0.63315 0.02265 0.32005 0.0
C1917 C 0.6079 0.97908 0.3005 0.0
C1918 C 0.05287 0.65301 0.3172 0.0
C1919 C 0.04098 0.65716 0.33005 0.0
H1920 H 0.05607 0.6342 0.29407 0.0
C1921 C 0.02275 0.644 0.33146 0.0
H1922 H 0.067 0.6629 0.31559 0.0
C1923 C 0.01647 0.62721 0.31966 0.0
C1924 C 0.02822 0.6233 0.30564 0.0
H1925 H 0.01327 0.64674 0.34142 0.0
H1926 H 1.00233 0.61741 0.32126 0.0
C1927 C 0.04657 0.6364 0.30496 0.0
C1928 C 0.37927 0.38278 0.32376 0.0
C1929 C 0.36996 0.39108 0.33352 0.0
H1930 H 0.40219 0.38592 0.30288 0.0
C1931 C 0.37806 0.40986 0.33181 0.0
H1932 H 0.3734 0.36833 0.32469 0.0
C1933 C 0.39471 0.42001 0.31958 0.0
C1934 C 0.40363 0.41164 0.30855 0.0
H1935 H 0.37133 0.41671 0.33933 0.0
H1936 H 0.40042 0.43442 0.3183 0.0
C1937 C 0.39587 0.39292 0.31134 0.0
C1938 C 0.31294 0.27935 0.3799 0.0
C1939 C 0.32394 0.29801 0.37683 0.0
H1940 H 0.3107 0.25485 0.3939 0.0
C1941 C 0.34199 0.30612 0.38463 0.0
H1942 H 0.29899 0.27265 0.37396 0.0
C1943 C 0.34866 0.29593 0.39631 0.0
C1944 C 0.33747 0.27736 0.40039 0.0
H1945 H 0.35082 0.32046 0.38262 0.0
H1946 H 0.36241 0.3028 0.40318 0.0
C1947 C 0.31963 0.26915 0.3915 0.0
C1948 C 0.72491 0.04257 0.37164 0.0
C1949 C 0.73015 0.0296 0.37444 0.0
H1950 H 0.73029 0.06904 0.38095 0.0
C1951 C 0.74571 0.03398 0.38883 0.0
H1952 H 0.71307 0.03965 0.36046 0.0
C1953 C 0.75532 0.05063 0.40122 0.0
C1954 C 0.74984 0.06351 0.39919 0.0
H1955 H 0.75005 0.02424 0.39151 0.0
H1956 H 0.76662 0.05303 0.4133 0.0
C1957 C 0.73474 0.05939 0.38361 0.0
C1958 C 0.98196 0.68621 0.38578 0.0
C1959 C 0.9919 0.70413 0.37743 0.0
H1960 H 0.95841 0.66617 0.40513 0.0
C1961 C 0.98445 0.71532 0.38058 0.0
H1962 H 0.98732 0.67725 0.38376 0.0
C1963 C 0.96773 0.70892 0.39263 0.0
C1964 C 0.95807 0.69118 0.40194 0.0
H1965 H 0.9917 0.72918 0.37425 0.0
H1966 H 0.9625 0.71797 0.39495 0.0
C1967 C 0.96529 0.67983 0.39794 0.0
C1968 C 0.41392 0.04632 0.71051 0.0
C1969 C 0.39534 0.03534 0.70655 0.0
H1970 H 0.43815 0.04833 0.72526 0.0
C1971 C 0.38716 0.0171 0.71333 0.0
H1972 H 0.42068 0.06041 0.70534 0.0
C1973 C 0.39714 0.01021 0.72507 0.0
C1974 C 0.41559 0.02138 0.73018 0.0
H1975 H 0.37287 0.00828 0.71062 0.0
H1976 H 0.39018 0.99632 0.73125 0.0
C1977 C 0.42392 0.03941 0.72211 0.0
C1978 C 0.97281 0.36948 0.71366 0.0
C1979 C 0.98428 0.36235 0.71064 0.0
H1980 H 0.96964 0.39114 0.72792 0.0
C1981 C 1.00216 0.37255 0.7191 0.0
H1982 H 0.95898 0.36202 0.70723 0.0
C1983 C 1.00821 0.38917 0.73125 0.0
C1984 C 0.99658 0.39607 0.73511 0.0
H1985 H 0.01133 0.36744 0.71719 0.0
H1986 H 0.02185 0.39625 0.73855 0.0
C1987 C 0.97889 0.38615 0.72569 0.0
C1988 C 0.65744 0.6162 0.72499 0.0
C1989 C 0.66189 0.63232 0.71212 0.0
H1990 H 0.63819 0.59415 0.7476 0.0
C1991 C 0.64881 0.63748 0.71009 0.0
H1992 H 0.66724 0.61187 0.72706 0.0
C1993 C 0.63184 0.62702 0.7214 0.0
C1994 C 0.62764 0.6113 0.73545 0.0
H1995 H 0.65178 0.64976 0.70012 0.0
H1996 H 0.62213 0.63145 0.71946 0.0
C1997 C 0.64063 0.60592 0.73666 0.0
C1998 C 0.71643 0.74538 0.66718 0.0
C1999 C 0.70736 0.72655 0.66576 0.0
H2000 H 0.71674 0.76959 0.65673 0.0
C2001 C 0.69084 0.71762 0.65269 0.0
H2002 H 0.72915 0.75263 0.6773 0.0
C2003 C 0.68398 0.72733 0.64012 0.0
C2004 C 0.69325 0.74627 0.64077 0.0
H2005 H 0.68363 0.70312 0.65103 0.0
H2006 H 0.67176 0.71989 0.62895 0.0
C2007 C 0.70937 0.75511 0.65511 0.0
C2008 C 0.31032 0.98186 0.65117 0.0
C2009 C 0.30192 0.99002 0.66419 0.0
H2010 H 0.30716 0.95999 0.62783 0.0
C2011 C 0.2831 0.98075 0.66598 0.0
H2012 H 0.3248 0.98875 0.64923 0.0
C2013 C 0.27287 0.96388 0.65431 0.0
C2014 C 0.28118 0.95604 0.64001 0.0
H2015 H 0.27626 0.98666 0.67607 0.0
H2016 H 0.25841 0.95716 0.6562 0.0
C2017 C 0.30011 0.96521 0.639 0.0
C2018 C 0.04574 0.33352 0.6657 0.0
C2019 C 0.03296 0.31518 0.66398 0.0
H2020 H 0.07221 0.35449 0.65612 0.0
C2021 C 0.03767 0.30368 0.65118 0.0
H2022 H 0.04257 0.34269 0.67564 0.0
C2023 C 0.05447 0.31047 0.63931 0.0
C2024 C 0.06719 0.32894 0.64032 0.0
H2025 H 0.02809 0.28948 0.64933 0.0
H2026 H 0.0571 0.30126 0.62844 0.0
C2027 C 0.06271 0.34029 0.65427 0.0
C2028 C 0.28475 0.3047 0.64928 0.0
C2029 C 0.30035 0.31616 0.66339 0.0
H2030 H 0.26322 0.30221 0.62565 0.0
C2031 C 0.30502 0.33419 0.66663 0.0
H2032 H 0.28082 0.29075 0.64628 0.0
C2033 C 0.29458 0.34073 0.65532 0.0
C2034 C 0.27943 0.3295 0.64001 0.0
H2035 H 0.31688 0.34331 0.67761 0.0
H2036 H 0.29861 0.35471 0.65829 0.0
C2037 C 0.27453 0.3113 0.63756 0.0
C2038 C 0.71593 0.98115 0.66236 0.0
C2039 C 0.70534 0.98937 0.66347 0.0
H2040 H 0.7182 0.95875 0.64929 0.0
C2041 C 0.68794 0.98024 0.65294 0.0
H2042 H 0.72935 0.98774 0.67049 0.0
C2043 C 0.68163 0.96372 0.64036 0.0
C2044 C 0.69252 0.95583 0.63821 0.0
H2045 H 0.67945 0.98623 0.65337 0.0
H2046 H 0.66852 0.95756 0.63129 0.0
C2047 C 0.70957 0.96456 0.65002 0.0
C2048 C 0.04303 0.74267 0.66401 0.0
C2049 C 0.03511 0.72388 0.66435 0.0
H2050 H 0.06536 0.76779 0.6522 0.0
C2051 C 0.04465 0.71608 0.65371 0.0
H2052 H 0.0361 0.74911 0.67228 0.0
C2053 C 0.06129 0.72676 0.64167 0.0
C2054 C 0.06892 0.74555 0.64028 0.0
H2055 H 0.03888 0.70163 0.65354 0.0
H2056 H 0.06773 0.72015 0.6324 0.0
C2057 C 0.05977 0.75337 0.6523 0.0
C2058 C 1.00503 0.63675 0.71683 0.0
C2059 C 0.98723 0.62874 0.70788 0.0
H2060 H 0.02481 0.6332 0.73693 0.0
C2061 C 0.97623 0.61002 0.70998 0.0
H2062 H 0.01384 0.65115 0.71559 0.0
C2063 C 0.98259 0.59965 0.7219 0.0
C2064 C 1.00007 0.60776 0.73226 0.0
H2065 H 0.9625 0.6034 0.70306 0.0
H2066 H 0.97364 0.58531 0.72352 0.0
C2067 C 0.01135 0.6264 0.72898 0.0
C2068 C 0.39293 0.37657 0.7093 0.0
C2069 C 0.39794 0.36346 0.71255 0.0
H2070 H 0.39877 0.40331 0.71769 0.0
C2071 C 0.41354 0.36785 0.72685 0.0
H2072 H 0.38108 0.37365 0.69817 0.0
C2073 C 0.42345 0.38467 0.73868 0.0
C2074 C 0.41821 0.39772 0.73615 0.0
H2075 H 0.41772 0.35801 0.72985 0.0
H2076 H 0.43478 0.3871 0.75069 0.0
C2077 C 0.40305 0.39355 0.72071 0.0
C2078 C 0.65214 0.04831 0.71211 0.0
C2079 C 0.65961 0.03717 0.70871 0.0
H2080 H 0.63006 0.05075 0.72643 0.0
C2081 C 0.64958 0.01912 0.71645 0.0
H2082 H 0.65947 0.06227 0.70623 0.0
C2083 C 0.6328 0.01256 0.72832 0.0
C2084 C 0.62556 0.02386 0.73261 0.0
H2085 H 0.65495 0.01018 0.71422 0.0
H2086 H 0.62586 0.9988 0.73509 0.0
C2087 C 0.63531 0.04174 0.72386 0.0
loop_
_geom_bond_atom_site_label_1
_geom_bond_atom_site_label_2
_geom_bond_distance
_geom_bond_site_symmetry_2
_ccdc_geom_bond_type
O0 Cd1 2.223 . S
O0 C8 1.315 . S
Cd1 O0 2.223 . S
Cd1 O4 2.297 . S
Cd1 O5 2.439 . S
Cd1 O11 2.240 1_554 S
Cd2 O3 2.240 1_655 S
Cd2 O10 2.223 1_554 S
Cd2 O12 2.297 1_554 S
Cd2 O13 2.447 . S
O3 Cd2 2.240 1_455 S
O3 C8 1.279 . S
O4 Cd1 2.297 . S
O4 C6 1.247 . S
O5 Cd1 2.439 . S
O5 C6 1.208 . S
C6 O4 1.247 . S
C6 O5 1.208 . S
C7 O12 1.247 . S
C7 O13 1.199 1_556 S
C8 O0 1.315 . S
C8 O3 1.279 . S
C9 O10 1.302 1_455 S
C9 O11 1.293 . S
O10 Cd2 2.223 1_556 S
O10 C9 1.302 1_655 S
O11 Cd1 2.240 1_556 S
O11 C9 1.293 . S
O12 Cd2 2.297 1_556 S
O12 C7 1.247 . S
O13 Cd2 2.447 . S
O13 C7 1.199 1_554 S
O14 Cd15 2.223 . S
O14 C22 1.315 . S
Cd15 O14 2.223 . S
Cd15 O18 2.297 . S
Cd15 O19 2.439 . S
Cd15 O25 2.240 1_554 S
Cd16 O17 2.240 . S
Cd16 O24 2.223 1_554 S
Cd16 O26 2.297 1_554 S
Cd16 O27 2.447 . S
O17 Cd16 2.240 . S
O17 C22 1.279 . S
O18 Cd15 2.297 . S
O18 C20 1.247 . S
O19 Cd15 2.439 . S
O19 C20 1.208 . S
C20 O18 1.247 . S
C20 O19 1.208 . S
C21 O26 1.247 . S
C21 O27 1.199 1_556 S
C22 O14 1.315 . S
C22 O17 1.279 . S
C23 O24 1.315 . S
C23 O25 1.279 . S
O24 Cd16 2.223 1_556 S
O24 C23 1.315 . S
O25 Cd15 2.240 1_556 S
O25 C23 1.279 . S
O26 Cd16 2.297 1_556 S
O26 C21 1.247 . S
O27 Cd16 2.447 . S
O27 C21 1.199 1_554 S
O28 Cd29 2.223 1_556 S
O28 C36 1.315 . S
Cd29 O28 2.223 1_554 S
Cd29 O32 2.297 1_554 S
Cd29 O33 2.448 . S
Cd29 O39 2.240 . S
Cd30 O31 2.240 1_564 S
Cd30 O38 2.223 . S
Cd30 O40 2.297 . S
Cd30 O41 2.439 . S
O31 Cd30 2.240 1_546 S
O31 C36 1.279 . S
O32 Cd29 2.297 1_556 S
O32 C34 1.247 . S
O33 Cd29 2.448 . S
O33 C34 1.199 1_554 S
C34 O32 1.247 . S
C34 O33 1.199 1_556 S
C35 O40 1.247 . S
C35 O41 1.208 . S
C36 O28 1.315 . S
C36 O31 1.279 . S
C37 O38 1.303 1_545 S
C37 O39 1.292 . S
O38 Cd30 2.223 . S
O38 C37 1.303 1_565 S
O39 Cd29 2.240 . S
O39 C37 1.292 . S
O40 Cd30 2.297 . S
O40 C35 1.247 . S
O41 Cd30 2.439 . S
O41 C35 1.208 . S
O42 Cd43 2.223 1_556 S
O42 C50 1.304 1_655 S
Cd43 O42 2.223 1_554 S
Cd43 O46 2.297 1_554 S
Cd43 O47 2.447 . S
Cd43 O53 2.240 1_655 S
Cd44 O45 2.240 1_554 S
Cd44 O52 2.223 . S
Cd44 O54 2.297 . S
Cd44 O55 2.439 . S
O45 Cd44 2.240 1_556 S
O45 C50 1.280 . S
O46 Cd43 2.297 1_556 S
O46 C48 1.247 . S
O47 Cd43 2.447 . S
O47 C48 1.199 1_554 S
C48 O46 1.247 . S
C48 O47 1.199 1_556 S
C49 O54 1.247 . S
C49 O55 1.208 . S
C50 O42 1.304 1_455 S
C50 O45 1.280 . S
C51 O52 1.315 . S
C51 O53 1.279 . S
O52 Cd44 2.223 . S
O52 C51 1.315 . S
O53 Cd43 2.240 1_455 S
O53 C51 1.279 . S
O54 Cd44 2.297 . S
O54 C49 1.247 . S
O55 Cd44 2.439 . S
O55 C49 1.208 . S
O56 Cd57 2.223 1_556 S
O56 C64 1.315 . S
Cd57 O56 2.223 1_554 S
Cd57 O60 2.297 1_554 S
Cd57 O61 2.447 . S
Cd57 O67 2.240 . S
Cd58 O59 2.240 1_554 S
Cd58 O66 2.223 . S
Cd58 O68 2.297 . S
Cd58 O69 2.439 . S
O59 Cd58 2.240 1_556 S
O59 C64 1.279 . S
O60 Cd57 2.297 1_556 S
O60 C62 1.247 . S
O61 Cd57 2.447 . S
O61 C62 1.200 1_554 S
C62 O60 1.247 . S
C62 O61 1.200 1_556 S
C63 O68 1.247 . S
C63 O69 1.208 . S
C64 O56 1.315 . S
C64 O59 1.279 . S
C65 O66 1.315 . S
C65 O67 1.279 . S
O66 Cd58 2.223 . S
O66 C65 1.315 . S
O67 Cd57 2.240 . S
O67 C65 1.279 . S
O68 Cd58 2.297 . S
O68 C63 1.247 . S
O69 Cd58 2.439 . S
O69 C63 1.208 . S
O70 Cd71 2.223 . S
O70 C78 1.307 1_565 S
Cd71 O70 2.223 . S
Cd71 O74 2.297 . S
Cd71 O75 2.439 . S
Cd71 O81 2.240 1_564 S
Cd72 O73 2.240 . S
Cd72 O80 2.223 1_554 S
Cd72 O82 2.297 1_554 S
Cd72 O83 2.447 . S
O73 Cd72 2.240 . S
O73 C78 1.279 . S
O74 Cd71 2.297 . S
O74 C76 1.247 . S
O75 Cd71 2.439 . S
O75 C76 1.208 . S
C76 O74 1.247 . S
C76 O75 1.208 . S
C77 O82 1.247 . S
C77 O83 1.199 1_556 S
C78 O70 1.307 1_545 S
C78 O73 1.279 . S
C79 O80 1.315 . S
C79 O81 1.279 . S
O80 Cd72 2.223 1_556 S
O80 C79 1.315 . S
O81 Cd71 2.240 1_546 S
O81 C79 1.279 . S
O82 Cd72 2.297 1_556 S
O82 C77 1.247 . S
O83 Cd72 2.447 . S
O83 C77 1.199 1_554 S
O84 Cd85 2.223 . S
O84 C92 1.315 . S
Cd85 O84 2.223 . S
Cd85 O88 2.297 . S
Cd85 O89 2.439 . S
Cd85 O95 2.240 . S
Cd86 O87 2.240 . S
Cd86 O94 2.223 . S
Cd86 O96 2.297 . S
Cd86 O97 2.439 . S
O87 Cd86 2.240 . S
O87 C92 1.279 . S
O88 Cd85 2.297 . S
O88 C90 1.247 . S
O89 Cd85 2.439 . S
O89 C90 1.208 . S
C90 O88 1.247 . S
C90 O89 1.208 . S
C91 O96 1.247 . S
C91 O97 1.208 . S
C92 O84 1.315 . S
C92 O87 1.279 . S
C93 O94 1.315 . S
C93 O95 1.279 . S
O94 Cd86 2.223 . S
O94 C93 1.315 . S
O95 Cd85 2.240 . S
O95 C93 1.279 . S
O96 Cd86 2.297 . S
O96 C91 1.247 . S
O97 Cd86 2.439 . S
O97 C91 1.208 . S
O98 Cd99 2.223 . S
O98 C106 1.315 . S
Cd99 O98 2.223 . S
Cd99 O102 2.297 1_565 S
Cd99 O103 2.439 1_565 S
Cd99 O109 2.240 . S
Cd100 O101 2.240 . S
Cd100 O108 2.223 . S
Cd100 O110 2.297 . S
Cd100 O111 2.439 . S
O101 Cd100 2.240 . S
O101 C106 1.279 . S
O102 Cd99 2.297 1_545 S
O102 C104 1.247 . S
O103 Cd99 2.439 1_545 S
O103 C104 1.208 . S
C104 O102 1.247 . S
C104 O103 1.208 . S
C105 O110 1.247 . S
C105 O111 1.208 . S
C106 O98 1.315 . S
C106 O101 1.279 . S
C107 O108 1.315 . S
C107 O109 1.279 . S
O108 Cd100 2.223 . S
O108 C107 1.315 . S
O109 Cd99 2.240 . S
O109 C107 1.279 . S
O110 Cd100 2.297 . S
O110 C105 1.247 . S
O111 Cd100 2.439 . S
O111 C105 1.208 . S
O112 Cd113 2.223 . S
O112 C120 1.315 . S
Cd113 O112 2.223 . S
Cd113 O116 2.297 . S
Cd113 O117 2.439 . S
Cd113 O123 2.240 . S
Cd114 O115 2.240 . S
Cd114 O122 2.223 . S
Cd114 O124 2.297 . S
Cd114 O125 2.384 1_455 S
O115 Cd114 2.240 . S
O115 C120 1.279 . S
O116 Cd113 2.297 . S
O116 C118 1.247 . S
O117 Cd113 2.439 . S
O117 C118 1.208 . S
C118 O116 1.247 . S
C118 O117 1.208 . S
C119 O124 1.247 1_655 S
C119 O125 1.203 . S
C120 O112 1.315 . S
C120 O115 1.279 . S
C121 O122 1.315 . S
C121 O123 1.279 . S
O122 Cd114 2.223 . S
O122 C121 1.315 . S
O123 Cd113 2.240 . S
O123 C121 1.279 . S
O124 Cd114 2.297 . S
O124 C119 1.247 1_455 S
O125 Cd114 2.384 1_655 S
O125 C119 1.203 . S
O126 Cd127 2.223 . S
O126 C134 1.315 . S
Cd127 O126 2.223 . S
Cd127 O130 2.297 . S
Cd127 O131 2.439 . S
Cd127 O137 2.240 . S
Cd128 O129 2.240 . S
Cd128 O136 2.223 . S
Cd128 O138 2.297 1_565 S
Cd128 O139 2.439 1_565 S
O129 Cd128 2.240 . S
O129 C134 1.279 . S
O130 Cd127 2.297 . S
O130 C132 1.247 . S
O131 Cd127 2.439 . S
O131 C132 1.208 . S
C132 O130 1.247 . S
C132 O131 1.208 . S
C133 O138 1.247 . S
C133 O139 1.208 . S
C134 O126 1.315 . S
C134 O129 1.279 . S
C135 O136 1.315 . S
C135 O137 1.279 . S
O136 Cd128 2.223 . S
O136 C135 1.315 . S
O137 Cd127 2.240 . S
O137 C135 1.279 . S
O138 Cd128 2.297 1_545 S
O138 C133 1.247 . S
O139 Cd128 2.439 1_545 S
O139 C133 1.208 . S
O140 Cd141 2.223 . S
O140 C148 1.315 . S
Cd141 O140 2.223 . S
Cd141 O144 2.297 . S
Cd141 O145 2.439 . S
Cd141 O151 2.240 . S
Cd142 O143 2.240 . S
Cd142 O150 2.223 . S
Cd142 O152 2.297 . S
Cd142 O153 2.420 1_455 S
O143 Cd142 2.240 . S
O143 C148 1.279 . S
O144 Cd141 2.297 . S
O144 C146 1.247 . S
O145 Cd141 2.439 . S
O145 C146 1.208 . S
C146 O144 1.247 . S
C146 O145 1.208 . S
C147 O152 1.247 1_655 S
C147 O153 1.253 . S
C148 O140 1.315 . S
C148 O143 1.279 . S
C149 O150 1.315 . S
C149 O151 1.279 . S
O150 Cd142 2.223 . S
O150 C149 1.315 . S
O151 Cd141 2.240 . S
O151 C149 1.279 . S
O152 Cd142 2.297 . S
O152 C147 1.247 1_455 S
O153 Cd142 2.420 1_655 S
O153 C147 1.253 . S
O154 Cd155 2.223 . S
O154 C162 1.315 . S
Cd155 O154 2.223 . S
Cd155 O158 2.297 . S
Cd155 O159 2.439 . S
Cd155 O165 2.240 . S
Cd156 O157 2.240 . S
Cd156 O164 2.223 . S
Cd156 O166 2.297 . S
Cd156 O167 2.439 . S
O157 Cd156 2.240 . S
O157 C162 1.279 . S
O158 Cd155 2.297 . S
O158 C160 1.247 . S
O159 Cd155 2.439 . S
O159 C160 1.208 . S
C160 O158 1.247 . S
C160 O159 1.208 . S
C161 O166 1.247 . S
C161 O167 1.208 . S
C162 O154 1.315 . S
C162 O157 1.279 . S
C163 O164 1.315 . S
C163 O165 1.279 . S
O164 Cd156 2.223 . S
O164 C163 1.315 . S
O165 Cd155 2.240 . S
O165 C163 1.279 . S
O166 Cd156 2.297 . S
O166 C161 1.247 . S
O167 Cd156 2.439 . S
O167 C161 1.208 . S
O168 Cd169 2.223 . S
O168 C176 1.315 . S
Cd169 O168 2.223 . S
Cd169 O172 2.297 . S
Cd169 O173 2.439 . S
Cd169 O179 2.240 . S
Cd170 O171 2.240 . S
Cd170 O178 2.223 . S
Cd170 O180 2.297 . S
Cd170 O181 2.380 1_545 S
O171 Cd170 2.240 . S
O171 C176 1.279 . S
O172 Cd169 2.297 . S
O172 C174 1.247 . S
O173 Cd169 2.439 . S
O173 C174 1.208 . S
C174 O172 1.247 . S
C174 O173 1.208 . S
C175 O180 1.247 1_565 S
C175 O181 1.203 . S
C176 O168 1.315 . S
C176 O171 1.279 . S
C177 O178 1.315 . S
C177 O179 1.279 . S
O178 Cd170 2.223 . S
O178 C177 1.315 . S
O179 Cd169 2.240 . S
O179 C177 1.279 . S
O180 Cd170 2.297 . S
O180 C175 1.247 1_545 S
O181 Cd170 2.380 1_565 S
O181 C175 1.203 . S
O182 Cd183 2.223 . S
O182 C190 1.315 . S
Cd183 O182 2.223 . S
Cd183 O186 2.297 . S
Cd183 O187 2.439 . S
Cd183 O193 2.240 . S
Cd184 O185 2.240 . S
Cd184 O192 2.223 . S
Cd184 O194 2.297 1_655 S
Cd184 O195 2.439 1_655 S
O185 Cd184 2.240 . S
O185 C190 1.279 . S
O186 Cd183 2.297 . S
O186 C188 1.247 . S
O187 Cd183 2.439 . S
O187 C188 1.208 . S
C188 O186 1.247 . S
C188 O187 1.208 . S
C189 O194 1.247 . S
C189 O195 1.208 . S
C190 O182 1.315 . S
C190 O185 1.279 . S
C191 O192 1.315 . S
C191 O193 1.279 . S
O192 Cd184 2.223 . S
O192 C191 1.315 . S
O193 Cd183 2.240 . S
O193 C191 1.279 . S
O194 Cd184 2.297 1_455 S
O194 C189 1.247 . S
O195 Cd184 2.439 1_455 S
O195 C189 1.208 . S
O196 Cd197 2.223 . S
O196 C204 1.315 . S
Cd197 O196 2.223 . S
Cd197 O200 2.297 . S
Cd197 O201 2.439 . S
Cd197 O207 2.240 . S
Cd198 O199 2.240 . S
Cd198 O206 2.223 . S
Cd198 O208 2.297 . S
Cd198 O209 2.439 . S
O199 Cd198 2.240 . S
O199 C204 1.279 . S
O200 Cd197 2.297 . S
O200 C202 1.247 . S
O201 Cd197 2.439 . S
O201 C202 1.208 . S
C202 O200 1.247 . S
C202 O201 1.208 . S
C203 O208 1.247 . S
C203 O209 1.208 . S
C204 O196 1.315 . S
C204 O199 1.279 . S
C205 O206 1.315 . S
C205 O207 1.279 . S
O206 Cd198 2.223 . S
O206 C205 1.315 . S
O207 Cd197 2.240 . S
O207 C205 1.279 . S
O208 Cd198 2.297 . S
O208 C203 1.247 . S
O209 Cd198 2.439 . S
O209 C203 1.208 . S
O210 Cd211 2.223 . S
O210 C218 1.315 . S
Cd211 O210 2.223 . S
Cd211 O214 2.297 . S
Cd211 O215 2.439 . S
Cd211 O221 2.240 . S
Cd212 O213 2.240 . S
Cd212 O220 2.223 . S
Cd212 O222 2.297 . S
Cd212 O223 2.439 . S
O213 Cd212 2.240 . S
O213 C218 1.279 . S
O214 Cd211 2.297 . S
O214 C216 1.247 . S
O215 Cd211 2.439 . S
O215 C216 1.208 . S
C216 O214 1.247 . S
C216 O215 1.208 . S
C217 O222 1.247 . S
C217 O223 1.208 . S
C218 O210 1.315 . S
C218 O213 1.279 . S
C219 O220 1.315 . S
C219 O221 1.279 . S
O220 Cd212 2.223 . S
O220 C219 1.315 . S
O221 Cd211 2.240 . S
O221 C219 1.279 . S
O222 Cd212 2.297 . S
O222 C217 1.247 . S
O223 Cd212 2.439 . S
O223 C217 1.208 . S
O224 Cd225 2.223 . S
O224 C232 1.315 . S
Cd225 O224 2.223 . S
Cd225 O228 2.297 . S
Cd225 O229 2.419 1_545 S
Cd225 O235 2.240 . S
Cd226 O227 2.240 . S
Cd226 O234 2.223 . S
Cd226 O236 2.297 . S
Cd226 O237 2.439 . S
O227 Cd226 2.240 . S
O227 C232 1.279 . S
O228 Cd225 2.297 . S
O228 C230 1.247 1_545 S
O229 Cd225 2.419 1_565 S
O229 C230 1.255 . S
C230 O228 1.247 1_565 S
C230 O229 1.255 . S
C231 O236 1.247 . S
C231 O237 1.208 . S
C232 O224 1.315 . S
C232 O227 1.279 . S
C233 O234 1.315 . S
C233 O235 1.279 . S
O234 Cd226 2.223 . S
O234 C233 1.315 . S
O235 Cd225 2.240 . S
O235 C233 1.279 . S
O236 Cd226 2.297 . S
O236 C231 1.247 . S
O237 Cd226 2.439 . S
O237 C231 1.208 . S
O238 Cd239 2.223 . S
O238 C246 1.315 . S
Cd239 O238 2.223 . S
Cd239 O242 2.297 . S
Cd239 O243 2.439 . S
Cd239 O249 2.240 . S
Cd240 O241 2.240 . S
Cd240 O248 2.223 . S
Cd240 O250 2.297 1_655 S
Cd240 O251 2.439 1_655 S
O241 Cd240 2.240 . S
O241 C246 1.279 . S
O242 Cd239 2.297 . S
O242 C244 1.247 . S
O243 Cd239 2.439 . S
O243 C244 1.208 . S
C244 O242 1.247 . S
C244 O243 1.208 . S
C245 O250 1.247 . S
C245 O251 1.208 . S
C246 O238 1.315 . S
C246 O241 1.279 . S
C247 O248 1.315 . S
C247 O249 1.279 . S
O248 Cd240 2.223 . S
O248 C247 1.315 . S
O249 Cd239 2.240 . S
O249 C247 1.279 . S
O250 Cd240 2.297 1_455 S
O250 C245 1.247 . S
O251 Cd240 2.439 1_455 S
O251 C245 1.208 . S
H252 C279 0.929 . S
N253 C278 1.433 . S
N253 C284 1.435 . S
N253 C290 1.423 . S
H254 C280 0.930 . S
H255 C283 0.931 . S
H256 C282 0.929 . S
H257 C285 0.930 . S
H258 C286 0.932 . S
H259 C289 0.929 . S
H260 C288 0.931 . S
H261 C291 0.929 . S
H262 C295 0.932 . S
H263 C292 0.931 . S
H264 C294 0.929 . S
H265 C297 0.929 . S
H266 C298 0.930 . S
H267 C300 0.929 . S
H268 C301 0.931 . S
H269 C303 0.930 . S
H270 C304 0.932 . S
H271 C306 0.931 . S
H272 C307 0.929 . S
H273 C309 0.929 . S
H274 C310 0.931 . S
H275 C312 0.929 . S
N276 C296 1.433 . S
N276 C302 1.435 . S
N276 C308 1.423 . S
H277 C313 0.932 . S
C278 N253 1.433 . S
C278 C279 1.363 . S
C278 C283 1.370 . S
C279 H252 0.929 . S
C279 C278 1.363 . S
C279 C280 1.385 . S
C280 H254 0.930 . S
C280 C279 1.385 . S
C280 C281 1.357 . S
C281 C280 1.357 . S
C281 C282 1.406 . S
C282 H256 0.929 . S
C282 C281 1.406 . S
C282 C283 1.391 . S
C283 H255 0.931 . S
C283 C278 1.370 . S
C283 C282 1.391 . S
C284 N253 1.435 . S
C284 C285 1.358 . S
C284 C289 1.371 . S
C285 H257 0.930 . S
C285 C284 1.358 . S
C285 C286 1.405 . S
C286 H258 0.932 . S
C286 C285 1.405 . S
C286 C287 1.383 . S
C287 C286 1.383 . S
C287 C288 1.393 . S
C288 H260 0.931 . S
C288 C287 1.393 . S
C288 C289 1.382 . S
C289 H259 0.929 . S
C289 C284 1.371 . S
C289 C288 1.382 . S
C290 N253 1.423 . S
C290 C291 1.362 . S
C290 C295 1.388 . S
C291 H261 0.929 . S
C291 C290 1.362 . S
C291 C292 1.376 . S
C292 H263 0.931 . S
C292 C291 1.376 . S
C292 C293 1.396 . S
C293 C292 1.396 . S
C293 C294 1.348 . S
C293 C311 1.472 . S
C294 H264 0.929 . S
C294 C293 1.348 . S
C294 C295 1.443 . S
C295 H262 0.932 . S
C295 C290 1.388 . S
C295 C294 1.443 . S
C296 N276 1.433 . S
C296 C297 1.363 . S
C296 C301 1.370 . S
C297 H265 0.929 . S
C297 C296 1.363 . S
C297 C298 1.385 . S
C298 H266 0.930 . S
C298 C297 1.385 . S
C298 C299 1.357 . S
C299 C298 1.357 . S
C299 C300 1.406 . S
C300 H267 0.929 . S
C300 C299 1.406 . S
C300 C301 1.391 . S
C301 H268 0.931 . S
C301 C296 1.370 . S
C301 C300 1.391 . S
C302 N276 1.435 . S
C302 C303 1.358 . S
C302 C307 1.371 . S
C303 H269 0.930 . S
C303 C302 1.358 . S
C303 C304 1.405 . S
C304 H270 0.932 . S
C304 C303 1.405 . S
C304 C305 1.383 . S
C305 C304 1.383 . S
C305 C306 1.393 . S
C306 H271 0.931 . S
C306 C305 1.393 . S
C306 C307 1.382 . S
C307 H272 0.929 . S
C307 C302 1.371 . S
C307 C306 1.382 . S
C308 N276 1.423 . S
C308 C309 1.362 . S
C308 C313 1.388 . S
C309 H273 0.929 . S
C309 C308 1.362 . S
C309 C310 1.376 . S
C310 H274 0.931 . S
C310 C309 1.376 . S
C310 C311 1.396 . S
C311 C293 1.472 . S
C311 C310 1.396 . S
C311 C312 1.348 . S
C312 H275 0.929 . S
C312 C311 1.348 . S
C312 C313 1.443 . S
C313 H277 0.932 . S
C313 C308 1.388 . S
C313 C312 1.443 . S
H314 C341 0.929 . S
N315 C340 1.433 . S
N315 C346 1.435 . S
N315 C352 1.423 . S
H316 C342 0.930 . S
H317 C345 0.931 . S
H318 C344 0.929 . S
H319 C347 0.930 . S
H320 C348 0.932 . S
H321 C351 0.929 . S
H322 C350 0.931 . S
H323 C353 0.929 . S
H324 C357 0.932 . S
H325 C354 0.931 . S
H326 C356 0.929 . S
H327 C359 0.929 . S
H328 C360 0.930 . S
H329 C362 0.929 . S
H330 C363 0.931 . S
H331 C365 0.930 . S
H332 C366 0.932 . S
H333 C368 0.931 . S
H334 C369 0.929 . S
H335 C371 0.929 . S
H336 C372 0.931 . S
H337 C374 0.929 . S
N338 C358 1.433 . S
N338 C364 1.435 . S
N338 C370 1.423 . S
H339 C375 0.932 . S
C340 N315 1.433 . S
C340 C341 1.363 . S
C340 C345 1.370 . S
C341 H314 0.929 . S
C341 C340 1.363 . S
C341 C342 1.385 . S
C342 H316 0.930 . S
C342 C341 1.385 . S
C342 C343 1.357 . S
C343 C342 1.357 . S
C343 C344 1.406 . S
C344 H318 0.929 . S
C344 C343 1.406 . S
C344 C345 1.391 . S
C345 H317 0.931 . S
C345 C340 1.370 . S
C345 C344 1.391 . S
C346 N315 1.435 . S
C346 C347 1.358 . S
C346 C351 1.371 . S
C347 H319 0.930 . S
C347 C346 1.358 . S
C347 C348 1.405 . S
C348 H320 0.932 . S
C348 C347 1.405 . S
C348 C349 1.383 . S
C349 C348 1.383 . S
C349 C350 1.393 . S
C350 H322 0.931 . S
C350 C349 1.393 . S
C350 C351 1.382 . S
C351 H321 0.929 . S
C351 C346 1.371 . S
C351 C350 1.382 . S
C352 N315 1.423 . S
C352 C353 1.362 . S
C352 C357 1.388 . S
C353 H323 0.929 . S
C353 C352 1.362 . S
C353 C354 1.376 . S
C354 H325 0.931 . S
C354 C353 1.376 . S
C354 C355 1.396 . S
C355 C354 1.396 . S
C355 C356 1.348 . S
C355 C373 1.472 . S
C356 H326 0.929 . S
C356 C355 1.348 . S
C356 C357 1.443 . S
C357 H324 0.932 . S
C357 C352 1.388 . S
C357 C356 1.443 . S
C358 N338 1.433 . S
C358 C359 1.363 . S
C358 C363 1.370 . S
C359 H327 0.929 . S
C359 C358 1.363 . S
C359 C360 1.385 . S
C360 H328 0.930 . S
C360 C359 1.385 . S
C360 C361 1.357 . S
C361 C360 1.357 . S
C361 C362 1.406 . S
C362 H329 0.929 . S
C362 C361 1.406 . S
C362 C363 1.391 . S
C363 H330 0.931 . S
C363 C358 1.370 . S
C363 C362 1.391 . S
C364 N338 1.435 . S
C364 C365 1.358 . S
C364 C369 1.371 . S
C365 H331 0.930 . S
C365 C364 1.358 . S
C365 C366 1.405 . S
C366 H332 0.932 . S
C366 C365 1.405 . S
C366 C367 1.383 . S
C367 C366 1.383 . S
C367 C368 1.393 . S
C368 H333 0.931 . S
C368 C367 1.393 . S
C368 C369 1.382 . S
C369 H334 0.929 . S
C369 C364 1.371 . S
C369 C368 1.382 . S
C370 N338 1.423 . S
C370 C371 1.362 . S
C370 C375 1.388 . S
C371 H335 0.929 . S
C371 C370 1.362 . S
C371 C372 1.376 . S
C372 H336 0.931 . S
C372 C371 1.376 . S
C372 C373 1.396 . S
C373 C355 1.472 . S
C373 C372 1.396 . S
C373 C374 1.348 . S
C374 H337 0.929 . S
C374 C373 1.348 . S
C374 C375 1.443 . S
C375 H339 0.932 . S
C375 C370 1.388 . S
C375 C374 1.443 . S
H376 C403 0.929 . S
N377 C402 1.433 . S
N377 C408 1.435 . S
N377 C414 1.423 . S
H378 C404 0.930 . S
H379 C407 0.931 . S
H380 C406 0.929 . S
H381 C409 0.930 . S
H382 C410 0.932 . S
H383 C413 0.929 . S
H384 C412 0.931 . S
H385 C415 0.929 . S
H386 C419 0.932 . S
H387 C416 0.931 . S
H388 C418 0.929 . S
H389 C421 0.929 . S
H390 C422 0.930 . S
H391 C424 0.929 . S
H392 C425 0.931 . S
H393 C427 0.930 . S
H394 C428 0.932 . S
H395 C430 0.931 . S
H396 C431 0.929 . S
H397 C433 0.929 . S
H398 C434 0.931 . S
H399 C436 0.929 . S
N400 C420 1.433 . S
N400 C426 1.435 . S
N400 C432 1.423 . S
H401 C437 0.932 . S
C402 N377 1.433 . S
C402 C403 1.363 . S
C402 C407 1.370 . S
C403 H376 0.929 . S
C403 C402 1.363 . S
C403 C404 1.385 . S
C404 H378 0.930 . S
C404 C403 1.385 . S
C404 C405 1.357 . S
C405 C404 1.357 . S
C405 C406 1.406 . S
C406 H380 0.929 . S
C406 C405 1.406 . S
C406 C407 1.391 . S
C407 H379 0.931 . S
C407 C402 1.370 . S
C407 C406 1.391 . S
C408 N377 1.435 . S
C408 C409 1.358 . S
C408 C413 1.371 . S
C409 H381 0.930 . S
C409 C408 1.358 . S
C409 C410 1.405 . S
C410 H382 0.932 . S
C410 C409 1.405 . S
C410 C411 1.383 . S
C411 C410 1.383 . S
C411 C412 1.393 . S
C412 H384 0.931 . S
C412 C411 1.393 . S
C412 C413 1.382 . S
C413 H383 0.929 . S
C413 C408 1.371 . S
C413 C412 1.382 . S
C414 N377 1.423 . S
C414 C415 1.362 . S
C414 C419 1.388 . S
C415 H385 0.929 . S
C415 C414 1.362 . S
C415 C416 1.376 . S
C416 H387 0.931 . S
C416 C415 1.376 . S
C416 C417 1.396 . S
C417 C416 1.396 . S
C417 C418 1.348 . S
C417 C435 1.472 . S
C418 H388 0.929 . S
C418 C417 1.348 . S
C418 C419 1.443 . S
C419 H386 0.932 . S
C419 C414 1.388 . S
C419 C418 1.443 . S
C420 N400 1.433 . S
C420 C421 1.363 . S
C420 C425 1.370 . S
C421 H389 0.929 . S
C421 C420 1.363 . S
C421 C422 1.385 . S
C422 H390 0.930 . S
C422 C421 1.385 . S
C422 C423 1.357 . S
C423 C422 1.357 . S
C423 C424 1.406 . S
C424 H391 0.929 . S
C424 C423 1.406 . S
C424 C425 1.391 . S
C425 H392 0.931 . S
C425 C420 1.370 . S
C425 C424 1.391 . S
C426 N400 1.435 . S
C426 C427 1.358 . S
C426 C431 1.371 . S
C427 H393 0.930 . S
C427 C426 1.358 . S
C427 C428 1.405 . S
C428 H394 0.932 . S
C428 C427 1.405 . S
C428 C429 1.383 . S
C429 C428 1.383 . S
C429 C430 1.393 . S
C430 H395 0.931 . S
C430 C429 1.393 . S
C430 C431 1.382 . S
C431 H396 0.929 . S
C431 C426 1.371 . S
C431 C430 1.382 . S
C432 N400 1.423 . S
C432 C433 1.362 . S
C432 C437 1.388 . S
C433 H397 0.929 . S
C433 C432 1.362 . S
C433 C434 1.376 . S
C434 H398 0.931 . S
C434 C433 1.376 . S
C434 C435 1.396 . S
C435 C417 1.472 . S
C435 C434 1.396 . S
C435 C436 1.348 . S
C436 H399 0.929 . S
C436 C435 1.348 . S
C436 C437 1.443 . S
C437 H401 0.932 . S
C437 C432 1.388 . S
C437 C436 1.443 . S
H438 C465 0.929 . S
N439 C464 1.433 . S
N439 C470 1.435 . S
N439 C476 1.423 . S
H440 C466 0.930 . S
H441 C469 0.931 . S
H442 C468 0.929 . S
H443 C471 0.930 . S
H444 C472 0.932 . S
H445 C475 0.929 . S
H446 C474 0.931 . S
H447 C477 0.929 . S
H448 C481 0.932 . S
H449 C478 0.931 . S
H450 C480 0.929 . S
H451 C483 0.929 . S
H452 C484 0.930 . S
H453 C486 0.929 . S
H454 C487 0.931 . S
H455 C489 0.930 . S
H456 C490 0.932 . S
H457 C492 0.931 . S
H458 C493 0.929 . S
H459 C495 0.929 . S
H460 C496 0.931 . S
H461 C498 0.929 . S
N462 C482 1.433 . S
N462 C488 1.435 . S
N462 C494 1.423 . S
H463 C499 0.932 . S
C464 N439 1.433 . S
C464 C465 1.363 . S
C464 C469 1.370 . S
C465 H438 0.929 . S
C465 C464 1.363 . S
C465 C466 1.385 . S
C466 H440 0.930 . S
C466 C465 1.385 . S
C466 C467 1.357 . S
C467 C466 1.357 . S
C467 C468 1.406 . S
C468 H442 0.929 . S
C468 C467 1.406 . S
C468 C469 1.391 . S
C469 H441 0.931 . S
C469 C464 1.370 . S
C469 C468 1.391 . S
C470 N439 1.435 . S
C470 C471 1.358 . S
C470 C475 1.371 . S
C471 H443 0.930 . S
C471 C470 1.358 . S
C471 C472 1.405 . S
C472 H444 0.932 . S
C472 C471 1.405 . S
C472 C473 1.383 . S
C473 C472 1.383 . S
C473 C474 1.393 . S
C474 H446 0.931 . S
C474 C473 1.393 . S
C474 C475 1.382 . S
C475 H445 0.929 . S
C475 C470 1.371 . S
C475 C474 1.382 . S
C476 N439 1.423 . S
C476 C477 1.362 . S
C476 C481 1.388 . S
C477 H447 0.929 . S
C477 C476 1.362 . S
C477 C478 1.376 . S
C478 H449 0.931 . S
C478 C477 1.376 . S
C478 C479 1.396 . S
C479 C478 1.396 . S
C479 C480 1.348 . S
C479 C497 1.472 . S
C480 H450 0.929 . S
C480 C479 1.348 . S
C480 C481 1.443 . S
C481 H448 0.932 . S
C481 C476 1.388 . S
C481 C480 1.443 . S
C482 N462 1.433 . S
C482 C483 1.363 . S
C482 C487 1.370 . S
C483 H451 0.929 . S
C483 C482 1.363 . S
C483 C484 1.385 . S
C484 H452 0.930 . S
C484 C483 1.385 . S
C484 C485 1.357 . S
C485 C484 1.357 . S
C485 C486 1.406 . S
C486 H453 0.929 . S
C486 C485 1.406 . S
C486 C487 1.391 . S
C487 H454 0.931 . S
C487 C482 1.370 . S
C487 C486 1.391 . S
C488 N462 1.435 . S
C488 C489 1.358 . S
C488 C493 1.371 . S
C489 H455 0.930 . S
C489 C488 1.358 . S
C489 C490 1.405 . S
C490 H456 0.932 . S
C490 C489 1.405 . S
C490 C491 1.383 . S
C491 C490 1.383 . S
C491 C492 1.393 . S
C492 H457 0.931 . S
C492 C491 1.393 . S
C492 C493 1.382 . S
C493 H458 0.929 . S
C493 C488 1.371 . S
C493 C492 1.382 . S
C494 N462 1.423 . S
C494 C495 1.362 . S
C494 C499 1.388 . S
C495 H459 0.929 . S
C495 C494 1.362 . S
C495 C496 1.376 . S
C496 H460 0.931 . S
C496 C495 1.376 . S
C496 C497 1.396 . S
C497 C479 1.472 . S
C497 C496 1.396 . S
C497 C498 1.348 . S
C498 H461 0.929 . S
C498 C497 1.348 . S
C498 C499 1.443 . S
C499 H463 0.932 . S
C499 C494 1.388 . S
C499 C498 1.443 . S
H500 C527 0.929 . S
N501 C526 1.433 . S
N501 C532 1.435 . S
N501 C538 1.423 . S
H502 C528 0.930 . S
H503 C531 0.931 . S
H504 C530 0.929 . S
H505 C533 0.930 . S
H506 C534 0.932 . S
H507 C537 0.929 . S
H508 C536 0.931 . S
H509 C539 0.929 . S
H510 C543 0.932 . S
H511 C540 0.931 . S
H512 C542 0.929 . S
H513 C545 0.929 . S
H514 C546 0.930 . S
H515 C548 0.929 . S
H516 C549 0.931 . S
H517 C551 0.930 . S
H518 C552 0.932 . S
H519 C554 0.931 . S
H520 C555 0.929 . S
H521 C557 0.929 . S
H522 C558 0.931 . S
H523 C560 0.929 . S
N524 C544 1.433 . S
N524 C550 1.435 . S
N524 C556 1.423 . S
H525 C561 0.932 . S
C526 N501 1.433 . S
C526 C527 1.363 . S
C526 C531 1.370 . S
C527 H500 0.929 . S
C527 C526 1.363 . S
C527 C528 1.385 . S
C528 H502 0.930 . S
C528 C527 1.385 . S
C528 C529 1.357 . S
C529 C528 1.357 . S
C529 C530 1.406 . S
C530 H504 0.929 . S
C530 C529 1.406 . S
C530 C531 1.391 . S
C531 H503 0.931 . S
C531 C526 1.370 . S
C531 C530 1.391 . S
C532 N501 1.435 . S
C532 C533 1.358 . S
C532 C537 1.371 . S
C533 H505 0.930 . S
C533 C532 1.358 . S
C533 C534 1.405 . S
C534 H506 0.932 . S
C534 C533 1.405 . S
C534 C535 1.383 . S
C535 C534 1.383 . S
C535 C536 1.393 . S
C536 H508 0.931 . S
C536 C535 1.393 . S
C536 C537 1.382 . S
C537 H507 0.929 . S
C537 C532 1.371 . S
C537 C536 1.382 . S
C538 N501 1.423 . S
C538 C539 1.362 . S
C538 C543 1.388 . S
C539 H509 0.929 . S
C539 C538 1.362 . S
C539 C540 1.376 . S
C540 H511 0.931 . S
C540 C539 1.376 . S
C540 C541 1.396 . S
C541 C540 1.396 . S
C541 C542 1.348 . S
C541 C559 1.472 . S
C542 H512 0.929 . S
C542 C541 1.348 . S
C542 C543 1.443 . S
C543 H510 0.932 . S
C543 C538 1.388 . S
C543 C542 1.443 . S
C544 N524 1.433 . S
C544 C545 1.363 . S
C544 C549 1.370 . S
C545 H513 0.929 . S
C545 C544 1.363 . S
C545 C546 1.385 . S
C546 H514 0.930 . S
C546 C545 1.385 . S
C546 C547 1.357 . S
C547 C546 1.357 . S
C547 C548 1.406 . S
C548 H515 0.929 . S
C548 C547 1.406 . S
C548 C549 1.391 . S
C549 H516 0.931 . S
C549 C544 1.370 . S
C549 C548 1.391 . S
C550 N524 1.435 . S
C550 C551 1.358 . S
C550 C555 1.371 . S
C551 H517 0.930 . S
C551 C550 1.358 . S
C551 C552 1.405 . S
C552 H518 0.932 . S
C552 C551 1.405 . S
C552 C553 1.383 . S
C553 C552 1.383 . S
C553 C554 1.393 . S
C554 H519 0.931 . S
C554 C553 1.393 . S
C554 C555 1.382 . S
C555 H520 0.929 . S
C555 C550 1.371 . S
C555 C554 1.382 . S
C556 N524 1.423 . S
C556 C557 1.362 . S
C556 C561 1.388 . S
C557 H521 0.929 . S
C557 C556 1.362 . S
C557 C558 1.376 . S
C558 H522 0.931 . S
C558 C557 1.376 . S
C558 C559 1.396 . S
C559 C541 1.472 . S
C559 C558 1.396 . S
C559 C560 1.348 . S
C560 H523 0.929 . S
C560 C559 1.348 . S
C560 C561 1.443 . S
C561 H525 0.932 . S
C561 C556 1.388 . S
C561 C560 1.443 . S
H562 C589 0.929 . S
N563 C588 1.433 . S
N563 C594 1.435 . S
N563 C600 1.423 . S
H564 C590 0.930 . S
H565 C593 0.931 . S
H566 C592 0.929 . S
H567 C595 0.930 . S
H568 C596 0.932 . S
H569 C599 0.929 . S
H570 C598 0.931 . S
H571 C601 0.929 . S
H572 C605 0.932 . S
H573 C602 0.931 . S
H574 C604 0.929 . S
H575 C607 0.929 . S
H576 C608 0.930 . S
H577 C610 0.929 . S
H578 C611 0.931 . S
H579 C613 0.930 . S
H580 C614 0.932 . S
H581 C616 0.931 . S
H582 C617 0.929 . S
H583 C619 0.929 . S
H584 C620 0.931 . S
H585 C622 0.929 . S
N586 C606 1.433 . S
N586 C612 1.435 . S
N586 C618 1.423 . S
H587 C623 0.932 . S
C588 N563 1.433 . S
C588 C589 1.363 . S
C588 C593 1.370 . S
C589 H562 0.929 . S
C589 C588 1.363 . S
C589 C590 1.385 . S
C590 H564 0.930 . S
C590 C589 1.385 . S
C590 C591 1.357 . S
C591 C590 1.357 . S
C591 C592 1.406 . S
C592 H566 0.929 . S
C592 C591 1.406 . S
C592 C593 1.391 . S
C593 H565 0.931 . S
C593 C588 1.370 . S
C593 C592 1.391 . S
C594 N563 1.435 . S
C594 C595 1.358 . S
C594 C599 1.371 . S
C595 H567 0.930 . S
C595 C594 1.358 . S
C595 C596 1.405 . S
C596 H568 0.932 . S
C596 C595 1.405 . S
C596 C597 1.383 . S
C597 C596 1.383 . S
C597 C598 1.393 . S
C598 H570 0.931 . S
C598 C597 1.393 . S
C598 C599 1.382 . S
C599 H569 0.929 . S
C599 C594 1.371 . S
C599 C598 1.382 . S
C600 N563 1.423 . S
C600 C601 1.362 . S
C600 C605 1.388 . S
C601 H571 0.929 . S
C601 C600 1.362 . S
C601 C602 1.376 . S
C602 H573 0.931 . S
C602 C601 1.376 . S
C602 C603 1.396 . S
C603 C602 1.396 . S
C603 C604 1.348 . S
C603 C621 1.472 . S
C604 H574 0.929 . S
C604 C603 1.348 . S
C604 C605 1.443 . S
C605 H572 0.932 . S
C605 C600 1.388 . S
C605 C604 1.443 . S
C606 N586 1.433 . S
C606 C607 1.363 . S
C606 C611 1.370 . S
C607 H575 0.929 . S
C607 C606 1.363 . S
C607 C608 1.385 . S
C608 H576 0.930 . S
C608 C607 1.385 . S
C608 C609 1.357 . S
C609 C608 1.357 . S
C609 C610 1.406 . S
C610 H577 0.929 . S
C610 C609 1.406 . S
C610 C611 1.391 . S
C611 H578 0.931 . S
C611 C606 1.370 . S
C611 C610 1.391 . S
C612 N586 1.435 . S
C612 C613 1.358 . S
C612 C617 1.371 . S
C613 H579 0.930 . S
C613 C612 1.358 . S
C613 C614 1.405 . S
C614 H580 0.932 . S
C614 C613 1.405 . S
C614 C615 1.383 . S
C615 C614 1.383 . S
C615 C616 1.393 . S
C616 H581 0.931 . S
C616 C615 1.393 . S
C616 C617 1.382 . S
C617 H582 0.929 . S
C617 C612 1.371 . S
C617 C616 1.382 . S
C618 N586 1.423 . S
C618 C619 1.362 . S
C618 C623 1.388 . S
C619 H583 0.929 . S
C619 C618 1.362 . S
C619 C620 1.376 . S
C620 H584 0.931 . S
C620 C619 1.376 . S
C620 C621 1.396 . S
C621 C603 1.472 . S
C621 C620 1.396 . S
C621 C622 1.348 . S
C622 H585 0.929 . S
C622 C621 1.348 . S
C622 C623 1.443 . S
C623 H587 0.932 . S
C623 C618 1.388 . S
C623 C622 1.443 . S
H624 C651 0.929 . S
N625 C650 1.433 . S
N625 C656 1.435 . S
N625 C662 1.423 . S
H626 C652 0.930 . S
H627 C655 0.931 . S
H628 C654 0.929 . S
H629 C657 0.930 . S
H630 C658 0.932 . S
H631 C661 0.929 . S
H632 C660 0.931 . S
H633 C663 0.929 . S
H634 C667 0.932 . S
H635 C664 0.931 . S
H636 C666 0.929 . S
H637 C669 0.929 . S
H638 C670 0.930 . S
H639 C672 0.929 . S
H640 C673 0.931 . S
H641 C675 0.930 . S
H642 C676 0.932 . S
H643 C678 0.931 . S
H644 C679 0.929 . S
H645 C681 0.929 . S
H646 C682 0.931 . S
H647 C684 0.929 . S
N648 C668 1.433 . S
N648 C674 1.435 . S
N648 C680 1.423 . S
H649 C685 0.932 . S
C650 N625 1.433 . S
C650 C651 1.363 . S
C650 C655 1.370 . S
C651 H624 0.929 . S
C651 C650 1.363 . S
C651 C652 1.385 . S
C652 H626 0.930 . S
C652 C651 1.385 . S
C652 C653 1.357 . S
C653 C652 1.357 . S
C653 C654 1.406 . S
C654 H628 0.929 . S
C654 C653 1.406 . S
C654 C655 1.391 . S
C655 H627 0.931 . S
C655 C650 1.370 . S
C655 C654 1.391 . S
C656 N625 1.435 . S
C656 C657 1.358 . S
C656 C661 1.371 . S
C657 H629 0.930 . S
C657 C656 1.358 . S
C657 C658 1.405 . S
C658 H630 0.932 . S
C658 C657 1.405 . S
C658 C659 1.383 . S
C659 C658 1.383 . S
C659 C660 1.393 . S
C660 H632 0.931 . S
C660 C659 1.393 . S
C660 C661 1.382 . S
C661 H631 0.929 . S
C661 C656 1.371 . S
C661 C660 1.382 . S
C662 N625 1.423 . S
C662 C663 1.362 . S
C662 C667 1.388 . S
C663 H633 0.929 . S
C663 C662 1.362 . S
C663 C664 1.376 . S
C664 H635 0.931 . S
C664 C663 1.376 . S
C664 C665 1.396 . S
C665 C664 1.396 . S
C665 C666 1.348 . S
C665 C683 1.472 . S
C666 H636 0.929 . S
C666 C665 1.348 . S
C666 C667 1.443 . S
C667 H634 0.932 . S
C667 C662 1.388 . S
C667 C666 1.443 . S
C668 N648 1.433 . S
C668 C669 1.363 . S
C668 C673 1.370 . S
C669 H637 0.929 . S
C669 C668 1.363 . S
C669 C670 1.385 . S
C670 H638 0.930 . S
C670 C669 1.385 . S
C670 C671 1.357 . S
C671 C670 1.357 . S
C671 C672 1.406 . S
C672 H639 0.929 . S
C672 C671 1.406 . S
C672 C673 1.391 . S
C673 H640 0.931 . S
C673 C668 1.370 . S
C673 C672 1.391 . S
C674 N648 1.435 . S
C674 C675 1.358 . S
C674 C679 1.371 . S
C675 H641 0.930 . S
C675 C674 1.358 . S
C675 C676 1.405 . S
C676 H642 0.932 . S
C676 C675 1.405 . S
C676 C677 1.383 . S
C677 C676 1.383 . S
C677 C678 1.393 . S
C678 H643 0.931 . S
C678 C677 1.393 . S
C678 C679 1.382 . S
C679 H644 0.929 . S
C679 C674 1.371 . S
C679 C678 1.382 . S
C680 N648 1.423 . S
C680 C681 1.362 . S
C680 C685 1.388 . S
C681 H645 0.929 . S
C681 C680 1.362 . S
C681 C682 1.376 . S
C682 H646 0.931 . S
C682 C681 1.376 . S
C682 C683 1.396 . S
C683 C665 1.472 . S
C683 C682 1.396 . S
C683 C684 1.348 . S
C684 H647 0.929 . S
C684 C683 1.348 . S
C684 C685 1.443 . S
C685 H649 0.932 . S
C685 C680 1.388 . S
C685 C684 1.443 . S
H686 C713 0.929 . S
N687 C712 1.433 . S
N687 C718 1.435 . S
N687 C724 1.423 . S
H688 C714 0.930 . S
H689 C717 0.931 . S
H690 C716 0.929 . S
H691 C719 0.930 . S
H692 C720 0.932 . S
H693 C723 0.929 . S
H694 C722 0.931 . S
H695 C725 0.929 . S
H696 C729 0.932 . S
H697 C726 0.931 . S
H698 C728 0.929 . S
H699 C731 0.929 . S
H700 C732 0.930 . S
H701 C734 0.929 . S
H702 C735 0.931 . S
H703 C737 0.930 . S
H704 C738 0.932 . S
H705 C740 0.931 . S
H706 C741 0.929 . S
H707 C743 0.929 . S
H708 C744 0.931 . S
H709 C746 0.929 . S
N710 C730 1.433 . S
N710 C736 1.435 . S
N710 C742 1.423 . S
H711 C747 0.932 . S
C712 N687 1.433 . S
C712 C713 1.363 . S
C712 C717 1.370 . S
C713 H686 0.929 . S
C713 C712 1.363 . S
C713 C714 1.385 . S
C714 H688 0.930 . S
C714 C713 1.385 . S
C714 C715 1.357 . S
C715 C714 1.357 . S
C715 C716 1.406 . S
C716 H690 0.929 . S
C716 C715 1.406 . S
C716 C717 1.391 . S
C717 H689 0.931 . S
C717 C712 1.370 . S
C717 C716 1.391 . S
C718 N687 1.435 . S
C718 C719 1.358 . S
C718 C723 1.371 . S
C719 H691 0.930 . S
C719 C718 1.358 . S
C719 C720 1.405 . S
C720 H692 0.932 . S
C720 C719 1.405 . S
C720 C721 1.383 . S
C721 C720 1.383 . S
C721 C722 1.393 . S
C722 H694 0.931 . S
C722 C721 1.393 . S
C722 C723 1.382 . S
C723 H693 0.929 . S
C723 C718 1.371 . S
C723 C722 1.382 . S
C724 N687 1.423 . S
C724 C725 1.362 . S
C724 C729 1.388 . S
C725 H695 0.929 . S
C725 C724 1.362 . S
C725 C726 1.376 . S
C726 H697 0.931 . S
C726 C725 1.376 . S
C726 C727 1.396 . S
C727 C726 1.396 . S
C727 C728 1.348 . S
C727 C745 1.472 . S
C728 H698 0.929 . S
C728 C727 1.348 . S
C728 C729 1.443 . S
C729 H696 0.932 . S
C729 C724 1.388 . S
C729 C728 1.443 . S
C730 N710 1.433 . S
C730 C731 1.363 . S
C730 C735 1.370 . S
C731 H699 0.929 . S
C731 C730 1.363 . S
C731 C732 1.385 . S
C732 H700 0.930 . S
C732 C731 1.385 . S
C732 C733 1.357 . S
C733 C732 1.357 . S
C733 C734 1.406 . S
C734 H701 0.929 . S
C734 C733 1.406 . S
C734 C735 1.391 . S
C735 H702 0.931 . S
C735 C730 1.370 . S
C735 C734 1.391 . S
C736 N710 1.435 . S
C736 C737 1.358 . S
C736 C741 1.371 . S
C737 H703 0.930 . S
C737 C736 1.358 . S
C737 C738 1.405 . S
C738 H704 0.932 . S
C738 C737 1.405 . S
C738 C739 1.383 . S
C739 C738 1.383 . S
C739 C740 1.393 . S
C740 H705 0.931 . S
C740 C739 1.393 . S
C740 C741 1.382 . S
C741 H706 0.929 . S
C741 C736 1.371 . S
C741 C740 1.382 . S
C742 N710 1.423 . S
C742 C743 1.362 . S
C742 C747 1.388 . S
C743 H707 0.929 . S
C743 C742 1.362 . S
C743 C744 1.376 . S
C744 H708 0.931 . S
C744 C743 1.376 . S
C744 C745 1.396 . S
C745 C727 1.472 . S
C745 C744 1.396 . S
C745 C746 1.348 . S
C746 H709 0.929 . S
C746 C745 1.348 . S
C746 C747 1.443 . S
C747 H711 0.932 . S
C747 C742 1.388 . S
C747 C746 1.443 . S
H748 C775 0.929 . S
N749 C774 1.433 . S
N749 C780 1.435 . S
N749 C786 1.423 . S
H750 C776 0.930 . S
H751 C779 0.931 . S
H752 C778 0.929 . S
H753 C781 0.930 . S
H754 C782 0.932 . S
H755 C785 0.929 . S
H756 C784 0.931 . S
H757 C787 0.929 . S
H758 C791 0.932 . S
H759 C788 0.931 . S
H760 C790 0.929 . S
H761 C793 0.929 . S
H762 C794 0.930 . S
H763 C796 0.929 . S
H764 C797 0.931 . S
H765 C799 0.930 . S
H766 C800 0.932 . S
H767 C802 0.931 . S
H768 C803 0.929 . S
H769 C805 0.929 . S
H770 C806 0.931 . S
H771 C808 0.929 . S
N772 C792 1.433 . S
N772 C798 1.435 . S
N772 C804 1.423 . S
H773 C809 0.932 . S
C774 N749 1.433 . S
C774 C775 1.363 . S
C774 C779 1.370 . S
C775 H748 0.929 . S
C775 C774 1.363 . S
C775 C776 1.385 . S
C776 H750 0.930 . S
C776 C775 1.385 . S
C776 C777 1.357 . S
C777 C776 1.357 . S
C777 C778 1.406 . S
C778 H752 0.929 . S
C778 C777 1.406 . S
C778 C779 1.391 . S
C779 H751 0.931 . S
C779 C774 1.370 . S
C779 C778 1.391 . S
C780 N749 1.435 . S
C780 C781 1.358 . S
C780 C785 1.371 . S
C781 H753 0.930 . S
C781 C780 1.358 . S
C781 C782 1.405 . S
C782 H754 0.932 . S
C782 C781 1.405 . S
C782 C783 1.383 . S
C783 C782 1.383 . S
C783 C784 1.393 . S
C784 H756 0.931 . S
C784 C783 1.393 . S
C784 C785 1.382 . S
C785 H755 0.929 . S
C785 C780 1.371 . S
C785 C784 1.382 . S
C786 N749 1.423 . S
C786 C787 1.362 . S
C786 C791 1.388 . S
C787 H757 0.929 . S
C787 C786 1.362 . S
C787 C788 1.376 . S
C788 H759 0.931 . S
C788 C787 1.376 . S
C788 C789 1.396 . S
C789 C788 1.396 . S
C789 C790 1.348 . S
C789 C807 1.472 . S
C790 H760 0.929 . S
C790 C789 1.348 . S
C790 C791 1.443 . S
C791 H758 0.932 . S
C791 C786 1.388 . S
C791 C790 1.443 . S
C792 N772 1.433 . S
C792 C793 1.363 . S
C792 C797 1.370 . S
C793 H761 0.929 . S
C793 C792 1.363 . S
C793 C794 1.385 . S
C794 H762 0.930 . S
C794 C793 1.385 . S
C794 C795 1.357 . S
C795 C794 1.357 . S
C795 C796 1.406 . S
C796 H763 0.929 . S
C796 C795 1.406 . S
C796 C797 1.391 . S
C797 H764 0.931 . S
C797 C792 1.370 . S
C797 C796 1.391 . S
C798 N772 1.435 . S
C798 C799 1.358 . S
C798 C803 1.371 . S
C799 H765 0.930 . S
C799 C798 1.358 . S
C799 C800 1.405 . S
C800 H766 0.932 . S
C800 C799 1.405 . S
C800 C801 1.383 . S
C801 C800 1.383 . S
C801 C802 1.393 . S
C802 H767 0.931 . S
C802 C801 1.393 . S
C802 C803 1.382 . S
C803 H768 0.929 . S
C803 C798 1.371 . S
C803 C802 1.382 . S
C804 N772 1.423 . S
C804 C805 1.362 . S
C804 C809 1.388 . S
C805 H769 0.929 . S
C805 C804 1.362 . S
C805 C806 1.376 . S
C806 H770 0.931 . S
C806 C805 1.376 . S
C806 C807 1.396 . S
C807 C789 1.472 . S
C807 C806 1.396 . S
C807 C808 1.348 . S
C808 H771 0.929 . S
C808 C807 1.348 . S
C808 C809 1.443 . S
C809 H773 0.932 . S
C809 C804 1.388 . S
C809 C808 1.443 . S
H810 C837 0.929 . S
N811 C836 1.433 . S
N811 C842 1.435 . S
N811 C848 1.423 . S
H812 C838 0.930 . S
H813 C841 0.942 1_655 S
H814 C840 0.944 . S
H815 C843 0.930 1_655 S
H816 C844 0.932 1_655 S
H817 C847 0.929 . S
H818 C846 0.931 . S
H819 C849 0.929 . S
H820 C853 0.932 . S
H821 C850 0.931 . S
H822 C852 0.929 . S
H823 C855 0.929 . S
H824 C856 0.930 . S
H825 C858 0.968 . S
H826 C859 0.874 1_655 S
H827 C861 0.930 1_655 S
H828 C862 0.932 1_655 S
H829 C864 0.931 . S
H830 C865 0.929 . S
H831 C867 0.929 . S
H832 C868 0.931 . S
H833 C870 0.929 . S
N834 C854 1.433 . S
N834 C860 1.435 . S
N834 C866 1.423 . S
H835 C871 0.932 . S
C836 N811 1.433 . S
C836 C837 1.363 . S
C836 C841 1.370 . S
C837 H810 0.929 . S
C837 C836 1.363 . S
C837 C838 1.385 . S
C838 H812 0.930 . S
C838 C837 1.385 . S
C838 C839 1.357 . S
C839 C838 1.357 . S
C839 C840 1.412 1_455 S
C840 H814 0.944 . S
C840 C839 1.412 1_655 S
C840 C841 1.374 1_655 S
C841 H813 0.942 1_455 S
C841 C836 1.370 . S
C841 C840 1.374 1_455 S
C842 N811 1.435 . S
C842 C843 1.358 . S
C842 C847 1.371 . S
C843 H815 0.930 1_455 S
C843 C842 1.358 . S
C843 C844 1.405 . S
C844 H816 0.932 1_455 S
C844 C843 1.405 . S
C844 C845 1.383 . S
C845 C844 1.383 . S
C845 C846 1.393 . S
C846 H818 0.931 . S
C846 C845 1.393 . S
C846 C847 1.382 . S
C847 H817 0.929 . S
C847 C842 1.371 . S
C847 C846 1.382 . S
C848 N811 1.423 . S
C848 C849 1.362 . S
C848 C853 1.388 . S
C849 H819 0.929 . S
C849 C848 1.362 . S
C849 C850 1.376 . S
C850 H821 0.931 . S
C850 C849 1.376 . S
C850 C851 1.396 . S
C851 C850 1.396 . S
C851 C852 1.348 . S
C851 C869 1.472 . S
C852 H822 0.929 . S
C852 C851 1.348 . S
C852 C853 1.443 . S
C853 H820 0.932 . S
C853 C848 1.388 . S
C853 C852 1.443 . S
C854 N834 1.433 . S
C854 C855 1.363 . S
C854 C859 1.370 . S
C855 H823 0.929 . S
C855 C854 1.363 . S
C855 C856 1.385 . S
C856 H824 0.930 . S
C856 C855 1.385 . S
C856 C857 1.357 . S
C857 C856 1.357 . S
C857 C858 1.371 1_455 S
C858 H825 0.968 . S
C858 C857 1.371 1_655 S
C858 C859 1.391 1_655 S
C859 H826 0.874 1_455 S
C859 C854 1.370 . S
C859 C858 1.391 1_455 S
C860 N834 1.435 . S
C860 C861 1.358 . S
C860 C865 1.371 . S
C861 H827 0.930 1_455 S
C861 C860 1.358 . S
C861 C862 1.405 . S
C862 H828 0.932 1_455 S
C862 C861 1.405 . S
C862 C863 1.383 . S
C863 C862 1.383 . S
C863 C864 1.393 . S
C864 H829 0.931 . S
C864 C863 1.393 . S
C864 C865 1.382 . S
C865 H830 0.929 . S
C865 C860 1.371 . S
C865 C864 1.382 . S
C866 N834 1.423 . S
C866 C867 1.362 . S
C866 C871 1.388 . S
C867 H831 0.929 . S
C867 C866 1.362 . S
C867 C868 1.376 . S
C868 H832 0.931 . S
C868 C867 1.376 . S
C868 C869 1.396 . S
C869 C851 1.472 . S
C869 C868 1.396 . S
C869 C870 1.348 . S
C870 H833 0.929 . S
C870 C869 1.348 . S
C870 C871 1.443 . S
C871 H835 0.932 . S
C871 C866 1.388 . S
C871 C870 1.443 . S
H872 C899 0.929 . S
N873 C898 1.433 . S
N873 C904 1.435 . S
N873 C910 1.423 . S
H874 C900 0.930 . S
H875 C903 0.931 . S
H876 C902 0.929 . S
H877 C905 0.930 . S
H878 C906 0.932 . S
H879 C909 0.929 . S
H880 C908 0.931 . S
H881 C911 0.929 . S
H882 C915 0.932 . S
H883 C912 0.931 . S
H884 C914 0.929 . S
H885 C917 0.929 . S
H886 C918 0.930 . S
H887 C920 0.929 . S
H888 C921 0.931 . S
H889 C923 0.930 . S
H890 C924 0.932 . S
H891 C926 0.931 . S
H892 C927 0.929 . S
H893 C929 0.929 . S
H894 C930 0.931 . S
H895 C932 0.929 . S
N896 C916 1.433 . S
N896 C922 1.435 . S
N896 C928 1.423 . S
H897 C933 0.932 . S
C898 N873 1.433 . S
C898 C899 1.363 . S
C898 C903 1.370 . S
C899 H872 0.929 . S
C899 C898 1.363 . S
C899 C900 1.385 . S
C900 H874 0.930 . S
C900 C899 1.385 . S
C900 C901 1.357 . S
C901 C900 1.357 . S
C901 C902 1.406 . S
C902 H876 0.929 . S
C902 C901 1.406 . S
C902 C903 1.391 . S
C903 H875 0.931 . S
C903 C898 1.370 . S
C903 C902 1.391 . S
C904 N873 1.435 . S
C904 C905 1.358 . S
C904 C909 1.371 . S
C905 H877 0.930 . S
C905 C904 1.358 . S
C905 C906 1.405 . S
C906 H878 0.932 . S
C906 C905 1.405 . S
C906 C907 1.383 . S
C907 C906 1.383 . S
C907 C908 1.393 . S
C908 H880 0.931 . S
C908 C907 1.393 . S
C908 C909 1.382 . S
C909 H879 0.929 . S
C909 C904 1.371 . S
C909 C908 1.382 . S
C910 N873 1.423 . S
C910 C911 1.362 . S
C910 C915 1.388 . S
C911 H881 0.929 . S
C911 C910 1.362 . S
C911 C912 1.376 . S
C912 H883 0.931 . S
C912 C911 1.376 . S
C912 C913 1.396 . S
C913 C912 1.396 . S
C913 C914 1.348 . S
C913 C931 1.472 . S
C914 H884 0.929 . S
C914 C913 1.348 . S
C914 C915 1.443 . S
C915 H882 0.932 . S
C915 C910 1.388 . S
C915 C914 1.443 . S
C916 N896 1.433 . S
C916 C917 1.363 . S
C916 C921 1.370 . S
C917 H885 0.929 . S
C917 C916 1.363 . S
C917 C918 1.385 . S
C918 H886 0.930 . S
C918 C917 1.385 . S
C918 C919 1.357 . S
C919 C918 1.357 . S
C919 C920 1.406 . S
C920 H887 0.929 . S
C920 C919 1.406 . S
C920 C921 1.391 . S
C921 H888 0.931 . S
C921 C916 1.370 . S
C921 C920 1.391 . S
C922 N896 1.435 . S
C922 C923 1.358 . S
C922 C927 1.371 . S
C923 H889 0.930 . S
C923 C922 1.358 . S
C923 C924 1.405 . S
C924 H890 0.932 . S
C924 C923 1.405 . S
C924 C925 1.383 . S
C925 C924 1.383 . S
C925 C926 1.393 . S
C926 H891 0.931 . S
C926 C925 1.393 . S
C926 C927 1.382 . S
C927 H892 0.929 . S
C927 C922 1.371 . S
C927 C926 1.382 . S
C928 N896 1.423 . S
C928 C929 1.362 . S
C928 C933 1.388 . S
C929 H893 0.929 . S
C929 C928 1.362 . S
C929 C930 1.376 . S
C930 H894 0.931 . S
C930 C929 1.376 . S
C930 C931 1.396 . S
C931 C913 1.472 . S
C931 C930 1.396 . S
C931 C932 1.348 . S
C932 H895 0.929 . S
C932 C931 1.348 . S
C932 C933 1.443 . S
C933 H897 0.932 . S
C933 C928 1.388 . S
C933 C932 1.443 . S
H934 C961 0.929 . S
N935 C960 1.433 . S
N935 C966 1.435 . S
N935 C972 1.423 . S
H936 C962 0.930 . S
H937 C965 0.931 . S
H938 C964 0.929 . S
H939 C967 0.930 . S
H940 C968 0.932 . S
H941 C971 0.929 . S
H942 C970 0.931 . S
H943 C973 0.929 . S
H944 C977 0.932 1_545 S
H945 C974 0.931 . S
H946 C976 0.929 . S
H947 C979 0.929 . S
H948 C980 0.930 . S
H949 C982 0.929 . S
H950 C983 0.931 . S
H951 C985 0.930 . S
H952 C986 0.932 . S
H953 C988 0.931 . S
H954 C989 0.929 . S
H955 C991 0.929 . S
H956 C992 0.931 . S
H957 C994 0.929 . S
N958 C978 1.433 . S
N958 C984 1.435 . S
N958 C990 1.423 . S
H959 C995 0.932 1_545 S
C960 N935 1.433 . S
C960 C961 1.363 . S
C960 C965 1.370 1_565 S
C961 H934 0.929 . S
C961 C960 1.363 . S
C961 C962 1.385 . S
C962 H936 0.930 . S
C962 C961 1.385 . S
C962 C963 1.357 1_565 S
C963 C962 1.357 1_545 S
C963 C964 1.406 . S
C964 H938 0.929 . S
C964 C963 1.406 . S
C964 C965 1.391 . S
C965 H937 0.931 . S
C965 C960 1.370 1_545 S
C965 C964 1.391 . S
C966 N935 1.435 . S
C966 C967 1.358 1_565 S
C966 C971 1.371 . S
C967 H939 0.930 . S
C967 C966 1.358 1_545 S
C967 C968 1.405 . S
C968 H940 0.932 . S
C968 C967 1.405 . S
C968 C969 1.383 1_545 S
C969 C968 1.383 1_565 S
C969 C970 1.393 . S
C970 H942 0.931 . S
C970 C969 1.393 . S
C970 C971 1.382 . S
C971 H941 0.929 . S
C971 C966 1.371 . S
C971 C970 1.382 . S
C972 N935 1.423 . S
C972 C973 1.362 . S
C972 C977 1.388 . S
C973 H943 0.929 . S
C973 C972 1.362 . S
C973 C974 1.376 . S
C974 H945 0.931 . S
C974 C973 1.376 . S
C974 C975 1.396 . S
C975 C974 1.396 . S
C975 C976 1.348 . S
C975 C993 1.472 . S
C976 H946 0.929 . S
C976 C975 1.348 . S
C976 C977 1.443 . S
C977 H944 0.932 1_565 S
C977 C972 1.388 . S
C977 C976 1.443 . S
C978 N958 1.433 . S
C978 C979 1.363 . S
C978 C983 1.370 1_565 S
C979 H947 0.929 . S
C979 C978 1.363 . S
C979 C980 1.385 . S
C980 H948 0.930 . S
C980 C979 1.385 . S
C980 C981 1.357 1_565 S
C981 C980 1.357 1_545 S
C981 C982 1.406 . S
C982 H949 0.929 . S
C982 C981 1.406 . S
C982 C983 1.391 . S
C983 H950 0.931 . S
C983 C978 1.370 1_545 S
C983 C982 1.391 . S
C984 N958 1.435 . S
C984 C985 1.358 1_565 S
C984 C989 1.371 . S
C985 H951 0.930 . S
C985 C984 1.358 1_545 S
C985 C986 1.405 . S
C986 H952 0.932 . S
C986 C985 1.405 . S
C986 C987 1.383 1_545 S
C987 C986 1.383 1_565 S
C987 C988 1.393 . S
C988 H953 0.931 . S
C988 C987 1.393 . S
C988 C989 1.382 . S
C989 H954 0.929 . S
C989 C984 1.371 . S
C989 C988 1.382 . S
C990 N958 1.423 . S
C990 C991 1.362 . S
C990 C995 1.388 . S
C991 H955 0.929 . S
C991 C990 1.362 . S
C991 C992 1.376 . S
C992 H956 0.931 . S
C992 C991 1.376 . S
C992 C993 1.396 . S
C993 C975 1.472 . S
C993 C992 1.396 . S
C993 C994 1.348 . S
C994 H957 0.929 . S
C994 C993 1.348 . S
C994 C995 1.443 . S
C995 H959 0.932 1_565 S
C995 C990 1.388 . S
C995 C994 1.443 . S
H996 C1023 0.929 . S
N997 C1022 1.433 . S
N997 C1028 1.435 . S
N997 C1034 1.431 . S
H998 C1024 0.930 . S
H999 C1027 0.931 . S
H1000 C1026 0.929 . S
H1001 C1029 0.930 . S
H1002 C1030 0.932 . S
H1003 C1033 0.929 . S
H1004 C1032 0.931 1_565 S
H1005 C1035 0.929 . S
H1006 C1039 0.932 . S
H1007 C1036 0.931 . S
H1008 C1038 0.929 . S
H1009 C1041 0.929 . S
H1010 C1042 0.930 . S
H1011 C1044 0.929 . S
H1012 C1045 0.931 . S
H1013 C1047 0.930 . S
H1014 C1048 0.932 . S
H1015 C1050 0.931 1_565 S
H1016 C1051 0.929 . S
H1017 C1053 0.929 . S
H1018 C1054 0.931 . S
H1019 C1056 0.929 . S
N1020 C1040 1.433 . S
N1020 C1046 1.435 . S
N1020 C1052 1.418 . S
H1021 C1057 0.932 . S
C1022 N997 1.433 . S
C1022 C1023 1.363 1_545 S
C1022 C1027 1.370 . S
C1023 H996 0.929 . S
C1023 C1022 1.363 1_565 S
C1023 C1024 1.385 . S
C1024 H998 0.930 . S
C1024 C1023 1.385 . S
C1024 C1025 1.357 1_565 S
C1025 C1024 1.357 1_545 S
C1025 C1026 1.406 . S
C1026 H1000 0.929 . S
C1026 C1025 1.406 . S
C1026 C1027 1.391 . S
C1027 H999 0.931 . S
C1027 C1022 1.370 . S
C1027 C1026 1.391 . S
C1028 N997 1.435 . S
C1028 C1029 1.358 . S
C1028 C1033 1.371 1_545 S
C1029 H1001 0.930 . S
C1029 C1028 1.358 . S
C1029 C1030 1.405 . S
C1030 H1002 0.932 . S
C1030 C1029 1.405 . S
C1030 C1031 1.383 . S
C1031 C1030 1.383 . S
C1031 C1032 1.393 . S
C1032 H1004 0.931 1_545 S
C1032 C1031 1.393 . S
C1032 C1033 1.382 1_545 S
C1033 H1003 0.929 . S
C1033 C1028 1.371 1_565 S
C1033 C1032 1.382 1_565 S
C1034 N997 1.431 . S
C1034 C1035 1.351 1_545 S
C1034 C1039 1.392 . S
C1035 H1005 0.929 . S
C1035 C1034 1.351 1_565 S
C1035 C1036 1.376 . S
C1036 H1007 0.931 . S
C1036 C1035 1.376 . S
C1036 C1037 1.396 . S
C1037 C1036 1.396 . S
C1037 C1038 1.348 1_565 S
C1037 C1055 1.472 . S
C1038 H1008 0.929 . S
C1038 C1037 1.348 1_545 S
C1038 C1039 1.443 . S
C1039 H1006 0.932 . S
C1039 C1034 1.392 . S
C1039 C1038 1.443 . S
C1040 N1020 1.433 . S
C1040 C1041 1.363 1_545 S
C1040 C1045 1.370 . S
C1041 H1009 0.929 . S
C1041 C1040 1.363 1_565 S
C1041 C1042 1.385 . S
C1042 H1010 0.930 . S
C1042 C1041 1.385 . S
C1042 C1043 1.357 1_565 S
C1043 C1042 1.357 1_545 S
C1043 C1044 1.406 . S
C1044 H1011 0.929 . S
C1044 C1043 1.406 . S
C1044 C1045 1.391 . S
C1045 H1012 0.931 . S
C1045 C1040 1.370 . S
C1045 C1044 1.391 . S
C1046 N1020 1.435 . S
C1046 C1047 1.358 . S
C1046 C1051 1.371 1_545 S
C1047 H1013 0.930 . S
C1047 C1046 1.358 . S
C1047 C1048 1.405 . S
C1048 H1014 0.932 . S
C1048 C1047 1.405 . S
C1048 C1049 1.383 . S
C1049 C1048 1.383 . S
C1049 C1050 1.393 . S
C1050 H1015 0.931 1_545 S
C1050 C1049 1.393 . S
C1050 C1051 1.382 1_545 S
C1051 H1016 0.929 . S
C1051 C1046 1.371 1_565 S
C1051 C1050 1.382 1_565 S
C1052 N1020 1.418 . S
C1052 C1053 1.358 1_545 S
C1052 C1057 1.398 . S
C1053 H1017 0.929 . S
C1053 C1052 1.358 1_565 S
C1053 C1054 1.376 . S
C1054 H1018 0.931 . S
C1054 C1053 1.376 . S
C1054 C1055 1.396 . S
C1055 C1037 1.472 . S
C1055 C1054 1.396 . S
C1055 C1056 1.348 1_565 S
C1056 H1019 0.929 . S
C1056 C1055 1.348 1_545 S
C1056 C1057 1.443 . S
C1057 H1021 0.932 . S
C1057 C1052 1.398 . S
C1057 C1056 1.443 . S
H1058 C1085 0.929 . S
N1059 C1084 1.433 . S
N1059 C1090 1.435 . S
N1059 C1096 1.423 . S
H1060 C1086 0.930 . S
H1061 C1089 0.931 . S
H1062 C1088 0.929 . S
H1063 C1091 0.930 . S
H1064 C1092 0.932 . S
H1065 C1095 0.929 . S
H1066 C1094 0.931 . S
H1067 C1097 0.929 . S
H1068 C1101 0.932 1_455 S
H1069 C1098 0.931 . S
H1070 C1100 0.929 . S
H1071 C1103 0.929 . S
H1072 C1104 0.930 . S
H1073 C1106 0.929 . S
H1074 C1107 0.931 . S
H1075 C1109 0.930 . S
H1076 C1110 0.932 . S
H1077 C1112 0.931 . S
H1078 C1113 0.929 . S
H1079 C1115 0.929 . S
H1080 C1116 0.931 . S
H1081 C1118 0.929 . S
N1082 C1102 1.433 . S
N1082 C1108 1.435 . S
N1082 C1114 1.423 . S
H1083 C1119 0.932 1_455 S
C1084 N1059 1.433 . S
C1084 C1085 1.363 . S
C1084 C1089 1.370 1_655 S
C1085 H1058 0.929 . S
C1085 C1084 1.363 . S
C1085 C1086 1.385 . S
C1086 H1060 0.930 . S
C1086 C1085 1.385 . S
C1086 C1087 1.357 1_655 S
C1087 C1086 1.357 1_455 S
C1087 C1088 1.406 . S
C1088 H1062 0.929 . S
C1088 C1087 1.406 . S
C1088 C1089 1.391 . S
C1089 H1061 0.931 . S
C1089 C1084 1.370 1_455 S
C1089 C1088 1.391 . S
C1090 N1059 1.435 . S
C1090 C1091 1.358 1_655 S
C1090 C1095 1.371 . S
C1091 H1063 0.930 . S
C1091 C1090 1.358 1_455 S
C1091 C1092 1.405 . S
C1092 H1064 0.932 . S
C1092 C1091 1.405 . S
C1092 C1093 1.383 1_455 S
C1093 C1092 1.383 1_655 S
C1093 C1094 1.393 . S
C1094 H1066 0.931 . S
C1094 C1093 1.393 . S
C1094 C1095 1.382 . S
C1095 H1065 0.929 . S
C1095 C1090 1.371 . S
C1095 C1094 1.382 . S
C1096 N1059 1.423 . S
C1096 C1097 1.362 . S
C1096 C1101 1.388 . S
C1097 H1067 0.929 . S
C1097 C1096 1.362 . S
C1097 C1098 1.376 . S
C1098 H1069 0.931 . S
C1098 C1097 1.376 . S
C1098 C1099 1.396 . S
C1099 C1098 1.396 . S
C1099 C1100 1.348 . S
C1099 C1117 1.472 . S
C1100 H1070 0.929 . S
C1100 C1099 1.348 . S
C1100 C1101 1.443 . S
C1101 H1068 0.932 1_655 S
C1101 C1096 1.388 . S
C1101 C1100 1.443 . S
C1102 N1082 1.433 . S
C1102 C1103 1.363 . S
C1102 C1107 1.370 1_655 S
C1103 H1071 0.929 . S
C1103 C1102 1.363 . S
C1103 C1104 1.385 . S
C1104 H1072 0.930 . S
C1104 C1103 1.385 . S
C1104 C1105 1.357 1_655 S
C1105 C1104 1.357 1_455 S
C1105 C1106 1.406 . S
C1106 H1073 0.929 . S
C1106 C1105 1.406 . S
C1106 C1107 1.391 . S
C1107 H1074 0.931 . S
C1107 C1102 1.370 1_455 S
C1107 C1106 1.391 . S
C1108 N1082 1.435 . S
C1108 C1109 1.358 1_655 S
C1108 C1113 1.371 . S
C1109 H1075 0.930 . S
C1109 C1108 1.358 1_455 S
C1109 C1110 1.405 . S
C1110 H1076 0.932 . S
C1110 C1109 1.405 . S
C1110 C1111 1.383 1_455 S
C1111 C1110 1.383 1_655 S
C1111 C1112 1.393 . S
C1112 H1077 0.931 . S
C1112 C1111 1.393 . S
C1112 C1113 1.382 . S
C1113 H1078 0.929 . S
C1113 C1108 1.371 . S
C1113 C1112 1.382 . S
C1114 N1082 1.423 . S
C1114 C1115 1.362 . S
C1114 C1119 1.388 . S
C1115 H1079 0.929 . S
C1115 C1114 1.362 . S
C1115 C1116 1.376 . S
C1116 H1080 0.931 . S
C1116 C1115 1.376 . S
C1116 C1117 1.396 . S
C1117 C1099 1.472 . S
C1117 C1116 1.396 . S
C1117 C1118 1.348 . S
C1118 H1081 0.929 . S
C1118 C1117 1.348 . S
C1118 C1119 1.443 . S
C1119 H1083 0.932 1_655 S
C1119 C1114 1.388 . S
C1119 C1118 1.443 . S
H1120 C1147 0.929 . S
N1121 C1146 1.433 . S
N1121 C1152 1.435 . S
N1121 C1158 1.423 . S
H1122 C1148 0.930 . S
H1123 C1151 0.931 . S
H1124 C1150 0.929 . S
H1125 C1153 0.930 . S
H1126 C1154 0.932 . S
H1127 C1157 0.929 . S
H1128 C1156 0.931 . S
H1129 C1159 0.929 . S
H1130 C1163 0.932 . S
H1131 C1160 0.931 . S
H1132 C1162 0.929 . S
H1133 C1165 0.929 . S
H1134 C1166 0.930 . S
H1135 C1168 0.929 . S
H1136 C1169 0.931 . S
H1137 C1171 0.930 . S
H1138 C1172 0.932 . S
H1139 C1174 0.931 . S
H1140 C1175 0.929 . S
H1141 C1177 0.929 . S
H1142 C1178 0.931 . S
H1143 C1180 0.929 . S
N1144 C1164 1.433 . S
N1144 C1170 1.435 . S
N1144 C1176 1.423 . S
H1145 C1181 0.932 . S
C1146 N1121 1.433 . S
C1146 C1147 1.363 . S
C1146 C1151 1.370 . S
C1147 H1120 0.929 . S
C1147 C1146 1.363 . S
C1147 C1148 1.385 . S
C1148 H1122 0.930 . S
C1148 C1147 1.385 . S
C1148 C1149 1.357 . S
C1149 C1148 1.357 . S
C1149 C1150 1.406 . S
C1150 H1124 0.929 . S
C1150 C1149 1.406 . S
C1150 C1151 1.391 . S
C1151 H1123 0.931 . S
C1151 C1146 1.370 . S
C1151 C1150 1.391 . S
C1152 N1121 1.435 . S
C1152 C1153 1.358 . S
C1152 C1157 1.371 . S
C1153 H1125 0.930 . S
C1153 C1152 1.358 . S
C1153 C1154 1.405 . S
C1154 H1126 0.932 . S
C1154 C1153 1.405 . S
C1154 C1155 1.383 . S
C1155 C1154 1.383 . S
C1155 C1156 1.393 . S
C1156 H1128 0.931 . S
C1156 C1155 1.393 . S
C1156 C1157 1.382 . S
C1157 H1127 0.929 . S
C1157 C1152 1.371 . S
C1157 C1156 1.382 . S
C1158 N1121 1.423 . S
C1158 C1159 1.362 . S
C1158 C1163 1.388 . S
C1159 H1129 0.929 . S
C1159 C1158 1.362 . S
C1159 C1160 1.376 . S
C1160 H1131 0.931 . S
C1160 C1159 1.376 . S
C1160 C1161 1.396 . S
C1161 C1160 1.396 . S
C1161 C1162 1.348 . S
C1161 C1179 1.472 . S
C1162 H1132 0.929 . S
C1162 C1161 1.348 . S
C1162 C1163 1.443 . S
C1163 H1130 0.932 . S
C1163 C1158 1.388 . S
C1163 C1162 1.443 . S
C1164 N1144 1.433 . S
C1164 C1165 1.363 . S
C1164 C1169 1.370 . S
C1165 H1133 0.929 . S
C1165 C1164 1.363 . S
C1165 C1166 1.385 . S
C1166 H1134 0.930 . S
C1166 C1165 1.385 . S
C1166 C1167 1.357 . S
C1167 C1166 1.357 . S
C1167 C1168 1.406 . S
C1168 H1135 0.929 . S
C1168 C1167 1.406 . S
C1168 C1169 1.391 . S
C1169 H1136 0.931 . S
C1169 C1164 1.370 . S
C1169 C1168 1.391 . S
C1170 N1144 1.435 . S
C1170 C1171 1.358 . S
C1170 C1175 1.371 . S
C1171 H1137 0.930 . S
C1171 C1170 1.358 . S
C1171 C1172 1.405 . S
C1172 H1138 0.932 . S
C1172 C1171 1.405 . S
C1172 C1173 1.383 . S
C1173 C1172 1.383 . S
C1173 C1174 1.393 . S
C1174 H1139 0.931 . S
C1174 C1173 1.393 . S
C1174 C1175 1.382 . S
C1175 H1140 0.929 . S
C1175 C1170 1.371 . S
C1175 C1174 1.382 . S
C1176 N1144 1.423 . S
C1176 C1177 1.362 . S
C1176 C1181 1.388 . S
C1177 H1141 0.929 . S
C1177 C1176 1.362 . S
C1177 C1178 1.376 . S
C1178 H1142 0.931 . S
C1178 C1177 1.376 . S
C1178 C1179 1.396 . S
C1179 C1161 1.472 . S
C1179 C1178 1.396 . S
C1179 C1180 1.348 . S
C1180 H1143 0.929 . S
C1180 C1179 1.348 . S
C1180 C1181 1.443 . S
C1181 H1145 0.932 . S
C1181 C1176 1.388 . S
C1181 C1180 1.443 . S
H1182 C1209 0.929 . S
N1183 C1208 1.433 . S
N1183 C1214 1.435 . S
N1183 C1220 1.423 . S
H1184 C1210 0.930 . S
H1185 C1213 0.931 . S
H1186 C1212 0.929 . S
H1187 C1215 0.930 . S
H1188 C1216 0.932 . S
H1189 C1219 0.929 . S
H1190 C1218 0.931 . S
H1191 C1221 0.929 . S
H1192 C1225 0.932 . S
H1193 C1222 0.931 . S
H1194 C1224 0.929 . S
H1195 C1227 0.929 . S
H1196 C1228 0.930 . S
H1197 C1230 0.929 . S
H1198 C1231 0.931 . S
H1199 C1233 0.930 . S
H1200 C1234 0.932 . S
H1201 C1236 0.931 . S
H1202 C1237 0.929 . S
H1203 C1239 0.929 . S
H1204 C1240 0.931 . S
H1205 C1242 0.929 . S
N1206 C1226 1.433 . S
N1206 C1232 1.435 . S
N1206 C1238 1.423 . S
H1207 C1243 0.932 . S
C1208 N1183 1.433 . S
C1208 C1209 1.363 . S
C1208 C1213 1.370 . S
C1209 H1182 0.929 . S
C1209 C1208 1.363 . S
C1209 C1210 1.385 . S
C1210 H1184 0.930 . S
C1210 C1209 1.385 . S
C1210 C1211 1.357 . S
C1211 C1210 1.357 . S
C1211 C1212 1.406 . S
C1212 H1186 0.929 . S
C1212 C1211 1.406 . S
C1212 C1213 1.391 . S
C1213 H1185 0.931 . S
C1213 C1208 1.370 . S
C1213 C1212 1.391 . S
C1214 N1183 1.435 . S
C1214 C1215 1.358 . S
C1214 C1219 1.371 . S
C1215 H1187 0.930 . S
C1215 C1214 1.358 . S
C1215 C1216 1.405 . S
C1216 H1188 0.932 . S
C1216 C1215 1.405 . S
C1216 C1217 1.383 . S
C1217 C1216 1.383 . S
C1217 C1218 1.393 . S
C1218 H1190 0.931 . S
C1218 C1217 1.393 . S
C1218 C1219 1.382 . S
C1219 H1189 0.929 . S
C1219 C1214 1.371 . S
C1219 C1218 1.382 . S
C1220 N1183 1.423 . S
C1220 C1221 1.362 . S
C1220 C1225 1.388 . S
C1221 H1191 0.929 . S
C1221 C1220 1.362 . S
C1221 C1222 1.376 . S
C1222 H1193 0.931 . S
C1222 C1221 1.376 . S
C1222 C1223 1.396 . S
C1223 C1222 1.396 . S
C1223 C1224 1.348 . S
C1223 C1241 1.472 . S
C1224 H1194 0.929 . S
C1224 C1223 1.348 . S
C1224 C1225 1.443 . S
C1225 H1192 0.932 . S
C1225 C1220 1.388 . S
C1225 C1224 1.443 . S
C1226 N1206 1.433 . S
C1226 C1227 1.363 . S
C1226 C1231 1.370 . S
C1227 H1195 0.929 . S
C1227 C1226 1.363 . S
C1227 C1228 1.385 . S
C1228 H1196 0.930 . S
C1228 C1227 1.385 . S
C1228 C1229 1.357 . S
C1229 C1228 1.357 . S
C1229 C1230 1.406 . S
C1230 H1197 0.929 . S
C1230 C1229 1.406 . S
C1230 C1231 1.391 . S
C1231 H1198 0.931 . S
C1231 C1226 1.370 . S
C1231 C1230 1.391 . S
C1232 N1206 1.435 . S
C1232 C1233 1.358 . S
C1232 C1237 1.371 . S
C1233 H1199 0.930 . S
C1233 C1232 1.358 . S
C1233 C1234 1.405 . S
C1234 H1200 0.932 . S
C1234 C1233 1.405 . S
C1234 C1235 1.383 . S
C1235 C1234 1.383 . S
C1235 C1236 1.393 . S
C1236 H1201 0.931 . S
C1236 C1235 1.393 . S
C1236 C1237 1.382 . S
C1237 H1202 0.929 . S
C1237 C1232 1.371 . S
C1237 C1236 1.382 . S
C1238 N1206 1.423 . S
C1238 C1239 1.362 . S
C1238 C1243 1.388 . S
C1239 H1203 0.929 . S
C1239 C1238 1.362 . S
C1239 C1240 1.376 . S
C1240 H1204 0.931 . S
C1240 C1239 1.376 . S
C1240 C1241 1.396 . S
C1241 C1223 1.472 . S
C1241 C1240 1.396 . S
C1241 C1242 1.348 . S
C1242 H1205 0.929 . S
C1242 C1241 1.348 . S
C1242 C1243 1.443 . S
C1243 H1207 0.932 . S
C1243 C1238 1.388 . S
C1243 C1242 1.443 . S
H1244 C1271 0.929 . S
N1245 C1270 1.433 . S
N1245 C1276 1.435 . S
N1245 C1282 1.423 . S
H1246 C1272 0.930 . S
H1247 C1275 0.931 . S
H1248 C1274 0.929 . S
H1249 C1277 0.930 . S
H1250 C1278 0.932 . S
H1251 C1281 0.929 . S
H1252 C1280 0.931 . S
H1253 C1283 0.929 . S
H1254 C1287 0.932 . S
H1255 C1284 0.931 . S
H1256 C1286 0.929 . S
H1257 C1289 0.929 . S
H1258 C1290 0.930 . S
H1259 C1292 0.929 . S
H1260 C1293 0.931 . S
H1261 C1295 0.930 . S
H1262 C1296 0.932 . S
H1263 C1298 0.931 . S
H1264 C1299 0.929 . S
H1265 C1301 0.929 . S
H1266 C1302 0.931 . S
H1267 C1304 0.929 . S
N1268 C1288 1.433 . S
N1268 C1294 1.435 . S
N1268 C1300 1.423 . S
H1269 C1305 0.932 . S
C1270 N1245 1.433 . S
C1270 C1271 1.363 . S
C1270 C1275 1.370 . S
C1271 H1244 0.929 . S
C1271 C1270 1.363 . S
C1271 C1272 1.385 . S
C1272 H1246 0.930 . S
C1272 C1271 1.385 . S
C1272 C1273 1.357 . S
C1273 C1272 1.357 . S
C1273 C1274 1.406 . S
C1274 H1248 0.929 . S
C1274 C1273 1.406 . S
C1274 C1275 1.391 . S
C1275 H1247 0.931 . S
C1275 C1270 1.370 . S
C1275 C1274 1.391 . S
C1276 N1245 1.435 . S
C1276 C1277 1.358 . S
C1276 C1281 1.371 . S
C1277 H1249 0.930 . S
C1277 C1276 1.358 . S
C1277 C1278 1.405 . S
C1278 H1250 0.932 . S
C1278 C1277 1.405 . S
C1278 C1279 1.383 . S
C1279 C1278 1.383 . S
C1279 C1280 1.393 . S
C1280 H1252 0.931 . S
C1280 C1279 1.393 . S
C1280 C1281 1.382 . S
C1281 H1251 0.929 . S
C1281 C1276 1.371 . S
C1281 C1280 1.382 . S
C1282 N1245 1.423 . S
C1282 C1283 1.362 . S
C1282 C1287 1.388 . S
C1283 H1253 0.929 . S
C1283 C1282 1.362 . S
C1283 C1284 1.376 . S
C1284 H1255 0.931 . S
C1284 C1283 1.376 . S
C1284 C1285 1.396 . S
C1285 C1284 1.396 . S
C1285 C1286 1.348 . S
C1285 C1303 1.472 . S
C1286 H1256 0.929 . S
C1286 C1285 1.348 . S
C1286 C1287 1.443 . S
C1287 H1254 0.932 . S
C1287 C1282 1.388 . S
C1287 C1286 1.443 . S
C1288 N1268 1.433 . S
C1288 C1289 1.363 . S
C1288 C1293 1.370 . S
C1289 H1257 0.929 . S
C1289 C1288 1.363 . S
C1289 C1290 1.385 . S
C1290 H1258 0.930 . S
C1290 C1289 1.385 . S
C1290 C1291 1.357 . S
C1291 C1290 1.357 . S
C1291 C1292 1.406 . S
C1292 H1259 0.929 . S
C1292 C1291 1.406 . S
C1292 C1293 1.391 . S
C1293 H1260 0.931 . S
C1293 C1288 1.370 . S
C1293 C1292 1.391 . S
C1294 N1268 1.435 . S
C1294 C1295 1.358 . S
C1294 C1299 1.371 . S
C1295 H1261 0.930 . S
C1295 C1294 1.358 . S
C1295 C1296 1.405 . S
C1296 H1262 0.932 . S
C1296 C1295 1.405 . S
C1296 C1297 1.383 . S
C1297 C1296 1.383 . S
C1297 C1298 1.393 . S
C1298 H1263 0.931 . S
C1298 C1297 1.393 . S
C1298 C1299 1.382 . S
C1299 H1264 0.929 . S
C1299 C1294 1.371 . S
C1299 C1298 1.382 . S
C1300 N1268 1.423 . S
C1300 C1301 1.362 . S
C1300 C1305 1.388 . S
C1301 H1265 0.929 . S
C1301 C1300 1.362 . S
C1301 C1302 1.376 . S
C1302 H1266 0.931 . S
C1302 C1301 1.376 . S
C1302 C1303 1.396 . S
C1303 C1285 1.472 . S
C1303 C1302 1.396 . S
C1303 C1304 1.348 . S
C1304 H1267 0.929 . S
C1304 C1303 1.348 . S
C1304 C1305 1.443 . S
C1305 H1269 0.932 . S
C1305 C1300 1.388 . S
C1305 C1304 1.443 . S
H1306 C1333 0.929 . S
N1307 C1332 1.433 . S
N1307 C1338 1.435 . S
N1307 C1344 1.423 . S
H1308 C1334 0.930 . S
H1309 C1337 0.931 . S
H1310 C1336 0.929 . S
H1311 C1339 0.930 . S
H1312 C1340 0.932 . S
H1313 C1343 0.929 . S
H1314 C1342 0.931 . S
H1315 C1345 0.929 . S
H1316 C1349 0.932 . S
H1317 C1346 0.931 . S
H1318 C1348 0.929 . S
H1319 C1351 0.929 . S
H1320 C1352 0.930 . S
H1321 C1354 0.929 . S
H1322 C1355 0.931 . S
H1323 C1357 0.930 . S
H1324 C1358 0.932 . S
H1325 C1360 0.931 . S
H1326 C1361 0.929 . S
H1327 C1363 0.929 . S
H1328 C1364 0.931 . S
H1329 C1366 0.929 . S
N1330 C1350 1.433 . S
N1330 C1356 1.435 . S
N1330 C1362 1.423 . S
H1331 C1367 0.932 . S
C1332 N1307 1.433 . S
C1332 C1333 1.363 . S
C1332 C1337 1.370 . S
C1333 H1306 0.929 . S
C1333 C1332 1.363 . S
C1333 C1334 1.385 . S
C1334 H1308 0.930 . S
C1334 C1333 1.385 . S
C1334 C1335 1.357 . S
C1335 C1334 1.357 . S
C1335 C1336 1.406 . S
C1336 H1310 0.929 . S
C1336 C1335 1.406 . S
C1336 C1337 1.391 . S
C1337 H1309 0.931 . S
C1337 C1332 1.370 . S
C1337 C1336 1.391 . S
C1338 N1307 1.435 . S
C1338 C1339 1.358 . S
C1338 C1343 1.371 . S
C1339 H1311 0.930 . S
C1339 C1338 1.358 . S
C1339 C1340 1.405 . S
C1340 H1312 0.932 . S
C1340 C1339 1.405 . S
C1340 C1341 1.383 . S
C1341 C1340 1.383 . S
C1341 C1342 1.393 . S
C1342 H1314 0.931 . S
C1342 C1341 1.393 . S
C1342 C1343 1.382 . S
C1343 H1313 0.929 . S
C1343 C1338 1.371 . S
C1343 C1342 1.382 . S
C1344 N1307 1.423 . S
C1344 C1345 1.362 . S
C1344 C1349 1.388 . S
C1345 H1315 0.929 . S
C1345 C1344 1.362 . S
C1345 C1346 1.376 . S
C1346 H1317 0.931 . S
C1346 C1345 1.376 . S
C1346 C1347 1.396 . S
C1347 C1346 1.396 . S
C1347 C1348 1.348 . S
C1347 C1365 1.472 . S
C1348 H1318 0.929 . S
C1348 C1347 1.348 . S
C1348 C1349 1.443 . S
C1349 H1316 0.932 . S
C1349 C1344 1.388 . S
C1349 C1348 1.443 . S
C1350 N1330 1.433 . S
C1350 C1351 1.363 . S
C1350 C1355 1.370 . S
C1351 H1319 0.929 . S
C1351 C1350 1.363 . S
C1351 C1352 1.385 . S
C1352 H1320 0.930 . S
C1352 C1351 1.385 . S
C1352 C1353 1.357 . S
C1353 C1352 1.357 . S
C1353 C1354 1.406 . S
C1354 H1321 0.929 . S
C1354 C1353 1.406 . S
C1354 C1355 1.391 . S
C1355 H1322 0.931 . S
C1355 C1350 1.370 . S
C1355 C1354 1.391 . S
C1356 N1330 1.435 . S
C1356 C1357 1.358 . S
C1356 C1361 1.371 . S
C1357 H1323 0.930 . S
C1357 C1356 1.358 . S
C1357 C1358 1.405 . S
C1358 H1324 0.932 . S
C1358 C1357 1.405 . S
C1358 C1359 1.383 . S
C1359 C1358 1.383 . S
C1359 C1360 1.393 . S
C1360 H1325 0.931 . S
C1360 C1359 1.393 . S
C1360 C1361 1.382 . S
C1361 H1326 0.929 . S
C1361 C1356 1.371 . S
C1361 C1360 1.382 . S
C1362 N1330 1.423 . S
C1362 C1363 1.362 . S
C1362 C1367 1.388 . S
C1363 H1327 0.929 . S
C1363 C1362 1.362 . S
C1363 C1364 1.376 . S
C1364 H1328 0.931 . S
C1364 C1363 1.376 . S
C1364 C1365 1.396 . S
C1365 C1347 1.472 . S
C1365 C1364 1.396 . S
C1365 C1366 1.348 . S
C1366 H1329 0.929 . S
C1366 C1365 1.348 . S
C1366 C1367 1.443 . S
C1367 H1331 0.932 . S
C1367 C1362 1.388 . S
C1367 C1366 1.443 . S
C1368 C1369 1.387 . S
C1368 H1372 0.956 . S
C1368 C1377 1.390 . S
C1369 C1368 1.387 . S
C1369 C1371 1.387 . S
H1370 C1377 0.950 1_655 S
C1371 C1369 1.387 . S
C1371 C1373 1.390 . S
C1371 H1375 0.950 . S
H1372 C1368 0.956 . S
C1373 C1371 1.390 . S
C1373 C1374 1.387 . S
C1373 H1376 0.950 . S
C1374 C1373 1.387 . S
C1374 C1377 1.387 . S
H1375 C1371 0.950 . S
H1376 C1373 0.950 . S
C1377 C1368 1.390 . S
C1377 H1370 0.950 1_455 S
C1377 C1374 1.387 . S
C1378 C1379 1.387 . S
C1378 H1382 0.950 . S
C1378 C1387 1.390 . S
C1379 C1378 1.387 . S
C1379 C1381 1.387 . S
H1380 C1387 0.950 . S
C1381 C1379 1.387 . S
C1381 C1383 1.390 . S
C1381 H1385 0.950 . S
H1382 C1378 0.950 . S
C1383 C1381 1.390 . S
C1383 C1384 1.387 . S
C1383 H1386 0.950 . S
C1384 C1383 1.387 . S
C1384 C1387 1.387 . S
H1385 C1381 0.950 . S
H1386 C1383 0.950 . S
C1387 C1378 1.390 . S
C1387 H1380 0.950 . S
C1387 C1384 1.387 . S
C1388 C1389 1.387 . S
C1388 H1392 0.950 . S
C1388 C1397 1.390 . S
C1389 C1388 1.387 . S
C1389 C1391 1.387 1_545 S
H1390 C1397 0.950 . S
C1391 C1389 1.387 1_565 S
C1391 C1393 1.390 . S
C1391 H1395 0.950 . S
H1392 C1388 0.950 . S
C1393 C1391 1.390 . S
C1393 C1394 1.387 1_565 S
C1393 H1396 0.950 . S
C1394 C1393 1.387 1_545 S
C1394 C1397 1.387 . S
H1395 C1391 0.950 . S
H1396 C1393 0.950 . S
C1397 C1388 1.390 . S
C1397 H1390 0.950 . S
C1397 C1394 1.387 . S
C1398 C1399 1.387 1_565 S
C1398 H1402 0.950 . S
C1398 C1407 1.390 . S
C1399 C1398 1.387 1_545 S
C1399 C1401 1.387 . S
H1400 C1407 0.950 . S
C1401 C1399 1.387 . S
C1401 C1403 1.390 . S
C1401 H1405 0.950 . S
H1402 C1398 0.950 . S
C1403 C1401 1.390 . S
C1403 C1404 1.387 . S
C1403 H1406 0.950 . S
C1404 C1403 1.387 . S
C1404 C1407 1.387 1_545 S
H1405 C1401 0.950 . S
H1406 C1403 0.950 . S
C1407 C1398 1.390 . S
C1407 H1400 0.950 . S
C1407 C1404 1.387 1_565 S
C1408 C1409 1.387 . S
C1408 H1412 0.950 . S
C1408 C1417 1.390 . S
C1409 C1408 1.387 . S
C1409 C1411 1.387 1_455 S
H1410 C1417 0.950 . S
C1411 C1409 1.387 1_655 S
C1411 C1413 1.390 . S
C1411 H1415 0.950 . S
H1412 C1408 0.950 . S
C1413 C1411 1.390 . S
C1413 C1414 1.387 1_655 S
C1413 H1416 0.950 . S
C1414 C1413 1.387 1_455 S
C1414 C1417 1.387 . S
H1415 C1411 0.950 . S
H1416 C1413 0.950 . S
C1417 C1408 1.390 . S
C1417 H1410 0.950 . S
C1417 C1414 1.387 . S
C1418 C1419 1.387 . S
C1418 H1422 0.950 . S
C1418 C1427 1.390 . S
C1419 C1418 1.387 . S
C1419 C1421 1.387 . S
H1420 C1427 0.950 . S
C1421 C1419 1.387 . S
C1421 C1423 1.390 . S
C1421 H1425 0.950 . S
H1422 C1418 0.950 . S
C1423 C1421 1.390 . S
C1423 C1424 1.387 . S
C1423 H1426 0.950 . S
C1424 C1423 1.387 . S
C1424 C1427 1.387 . S
H1425 C1421 0.950 . S
H1426 C1423 0.950 . S
C1427 C1418 1.390 . S
C1427 H1420 0.950 . S
C1427 C1424 1.387 . S
C1428 C1429 1.387 . S
C1428 H1432 0.950 . S
C1428 C1437 1.390 . S
C1429 C1428 1.387 . S
C1429 C1431 1.387 1_455 S
H1430 C1437 0.950 . S
C1431 C1429 1.387 1_655 S
C1431 C1433 1.390 . S
C1431 H1435 0.950 . S
H1432 C1428 0.950 . S
C1433 C1431 1.390 . S
C1433 C1434 1.387 1_655 S
C1433 H1436 0.950 . S
C1434 C1433 1.387 1_455 S
C1434 C1437 1.387 . S
H1435 C1431 0.950 . S
H1436 C1433 0.950 . S
C1437 C1428 1.390 . S
C1437 H1430 0.950 . S
C1437 C1434 1.387 . S
C1438 C1439 1.387 . S
C1438 H1442 0.950 . S
C1438 C1447 1.390 . S
C1439 C1438 1.387 . S
C1439 C1441 1.387 . S
H1440 C1447 0.950 . S
C1441 C1439 1.387 . S
C1441 C1443 1.390 . S
C1441 H1445 0.950 . S
H1442 C1438 0.950 . S
C1443 C1441 1.390 . S
C1443 C1444 1.387 . S
C1443 H1446 0.950 . S
C1444 C1443 1.387 . S
C1444 C1447 1.387 . S
H1445 C1441 0.950 . S
H1446 C1443 0.950 . S
C1447 C1438 1.390 . S
C1447 H1440 0.950 . S
C1447 C1444 1.387 . S
C1448 C1449 1.387 1_565 S
C1448 H1452 0.950 . S
C1448 C1457 1.390 . S
C1449 C1448 1.387 1_545 S
C1449 C1451 1.387 . S
H1450 C1457 0.950 . S
C1451 C1449 1.387 . S
C1451 C1453 1.390 . S
C1451 H1455 0.950 . S
H1452 C1448 0.950 . S
C1453 C1451 1.390 . S
C1453 C1454 1.387 . S
C1453 H1456 0.950 . S
C1454 C1453 1.387 . S
C1454 C1457 1.387 1_545 S
H1455 C1451 0.950 . S
H1456 C1453 0.950 . S
C1457 C1448 1.390 . S
C1457 H1450 0.950 . S
C1457 C1454 1.387 1_565 S
C1458 C1459 1.387 . S
C1458 H1462 0.950 . S
C1458 C1467 1.390 . S
C1459 C1458 1.387 . S
C1459 C1461 1.387 1_545 S
H1460 C1467 0.950 . S
C1461 C1459 1.387 1_565 S
C1461 C1463 1.390 . S
C1461 H1465 0.950 . S
H1462 C1458 0.950 . S
C1463 C1461 1.390 . S
C1463 C1464 1.387 1_565 S
C1463 H1466 0.950 . S
C1464 C1463 1.387 1_545 S
C1464 C1467 1.387 . S
H1465 C1461 0.950 . S
H1466 C1463 0.950 . S
C1467 C1458 1.390 . S
C1467 H1460 0.950 . S
C1467 C1464 1.387 . S
C1468 C1469 1.387 . S
C1468 H1472 0.950 . S
C1468 C1477 1.390 . S
C1469 C1468 1.387 . S
C1469 C1471 1.387 1_455 S
H1470 C1477 0.950 . S
C1471 C1469 1.387 1_655 S
C1471 C1473 1.390 . S
C1471 H1475 0.950 . S
H1472 C1468 0.950 . S
C1473 C1471 1.390 . S
C1473 C1474 1.387 1_655 S
C1473 H1476 0.950 . S
C1474 C1473 1.387 1_455 S
C1474 C1477 1.387 . S
H1475 C1471 0.950 . S
H1476 C1473 0.950 . S
C1477 C1468 1.390 . S
C1477 H1470 0.950 . S
C1477 C1474 1.387 . S
C1478 C1479 1.387 . S
C1478 H1482 0.950 . S
C1478 C1487 1.390 . S
C1479 C1478 1.387 . S
C1479 C1481 1.387 . S
H1480 C1487 0.950 . S
C1481 C1479 1.387 . S
C1481 C1483 1.390 . S
C1481 H1485 0.950 . S
H1482 C1478 0.950 . S
C1483 C1481 1.390 . S
C1483 C1484 1.387 . S
C1483 H1486 0.950 . S
C1484 C1483 1.387 . S
C1484 C1487 1.387 . S
H1485 C1481 0.950 . S
H1486 C1483 0.950 . S
C1487 C1478 1.390 . S
C1487 H1480 0.950 . S
C1487 C1484 1.387 . S
C1488 C1489 1.387 . S
C1488 H1492 0.950 . S
C1488 C1497 1.390 . S
C1489 C1488 1.387 . S
C1489 C1491 1.387 . S
H1490 C1497 0.950 . S
C1491 C1489 1.387 . S
C1491 C1493 1.390 . S
C1491 H1495 0.950 . S
H1492 C1488 0.950 . S
C1493 C1491 1.390 . S
C1493 C1494 1.387 . S
C1493 H1496 0.950 . S
C1494 C1493 1.387 . S
C1494 C1497 1.387 . S
H1495 C1491 0.950 . S
H1496 C1493 0.950 . S
C1497 C1488 1.390 . S
C1497 H1490 0.950 . S
C1497 C1494 1.387 . S
C1498 C1499 1.387 . S
C1498 H1502 0.950 . S
C1498 C1507 1.390 . S
C1499 C1498 1.387 . S
C1499 C1501 1.387 . S
H1500 C1507 0.950 . S
C1501 C1499 1.387 . S
C1501 C1503 1.390 . S
C1501 H1505 0.950 . S
H1502 C1498 0.950 . S
C1503 C1501 1.390 . S
C1503 C1504 1.387 . S
C1503 H1506 0.950 . S
C1504 C1503 1.387 . S
C1504 C1507 1.387 . S
H1505 C1501 0.950 . S
H1506 C1503 0.950 . S
C1507 C1498 1.390 . S
C1507 H1500 0.950 . S
C1507 C1504 1.387 . S
C1508 C1509 1.387 . S
C1508 H1512 0.950 . S
C1508 C1517 1.390 . S
C1509 C1508 1.387 . S
C1509 C1511 1.387 . S
H1510 C1517 0.950 . S
C1511 C1509 1.387 . S
C1511 C1513 1.390 . S
C1511 H1515 0.950 . S
H1512 C1508 0.950 . S
C1513 C1511 1.390 . S
C1513 C1514 1.387 . S
C1513 H1516 0.950 . S
C1514 C1513 1.387 . S
C1514 C1517 1.387 . S
H1515 C1511 0.950 . S
H1516 C1513 0.950 . S
C1517 C1508 1.390 . S
C1517 H1510 0.950 . S
C1517 C1514 1.387 . S
C1518 C1519 1.387 . S
C1518 H1522 0.950 . S
C1518 C1527 1.390 . S
C1519 C1518 1.387 . S
C1519 C1521 1.387 . S
H1520 C1527 0.950 . S
C1521 C1519 1.387 . S
C1521 C1523 1.390 . S
C1521 H1525 0.950 . S
H1522 C1518 0.950 . S
C1523 C1521 1.390 . S
C1523 C1524 1.387 . S
C1523 H1526 0.950 . S
C1524 C1523 1.387 . S
C1524 C1527 1.387 . S
H1525 C1521 0.950 . S
H1526 C1523 0.950 . S
C1527 C1518 1.390 . S
C1527 H1520 0.950 . S
C1527 C1524 1.387 . S
C1528 C1529 1.387 . S
C1528 H1532 0.950 . S
C1528 C1537 1.390 . S
C1529 C1528 1.387 . S
C1529 C1531 1.387 . S
H1530 C1537 0.950 . S
C1531 C1529 1.387 . S
C1531 C1533 1.390 . S
C1531 H1535 0.950 . S
H1532 C1528 0.950 . S
C1533 C1531 1.390 . S
C1533 C1534 1.387 . S
C1533 H1536 0.950 . S
C1534 C1533 1.387 . S
C1534 C1537 1.387 . S
H1535 C1531 0.950 . S
H1536 C1533 0.950 . S
C1537 C1528 1.390 . S
C1537 H1530 0.950 . S
C1537 C1534 1.387 . S
C1538 C1539 1.387 . S
C1538 H1542 0.950 . S
C1538 C1547 1.390 . S
C1539 C1538 1.387 . S
C1539 C1541 1.387 . S
H1540 C1547 0.950 . S
C1541 C1539 1.387 . S
C1541 C1543 1.390 . S
C1541 H1545 0.950 . S
H1542 C1538 0.950 . S
C1543 C1541 1.390 . S
C1543 C1544 1.387 . S
C1543 H1546 0.950 . S
C1544 C1543 1.387 . S
C1544 C1547 1.387 . S
H1545 C1541 0.950 . S
H1546 C1543 0.950 . S
C1547 C1538 1.390 . S
C1547 H1540 0.950 . S
C1547 C1544 1.387 . S
C1548 C1549 1.387 . S
C1548 H1552 0.950 . S
C1548 C1557 1.390 . S
C1549 C1548 1.387 . S
C1549 C1551 1.387 . S
H1550 C1557 0.950 . S
C1551 C1549 1.387 . S
C1551 C1553 1.390 . S
C1551 H1555 0.950 . S
H1552 C1548 0.950 . S
C1553 C1551 1.390 . S
C1553 C1554 1.387 . S
C1553 H1556 0.950 . S
C1554 C1553 1.387 . S
C1554 C1557 1.387 . S
H1555 C1551 0.950 . S
H1556 C1553 0.950 . S
C1557 C1548 1.390 . S
C1557 H1550 0.950 . S
C1557 C1554 1.387 . S
C1558 C1559 1.387 . S
C1558 H1562 0.950 . S
C1558 C1567 1.390 . S
C1559 C1558 1.387 . S
C1559 C1561 1.387 . S
H1560 C1567 0.950 . S
C1561 C1559 1.387 . S
C1561 C1563 1.390 . S
C1561 H1565 0.950 . S
H1562 C1558 0.950 . S
C1563 C1561 1.390 . S
C1563 C1564 1.387 . S
C1563 H1566 0.950 . S
C1564 C1563 1.387 . S
C1564 C1567 1.387 . S
H1565 C1561 0.950 . S
H1566 C1563 0.950 . S
C1567 C1558 1.390 . S
C1567 H1560 0.950 . S
C1567 C1564 1.387 . S
C1568 C1569 1.387 . S
C1568 H1572 0.950 . S
C1568 C1577 1.390 . S
C1569 C1568 1.387 . S
C1569 C1571 1.387 . S
H1570 C1577 0.950 . S
C1571 C1569 1.387 . S
C1571 C1573 1.390 . S
C1571 H1575 0.950 . S
H1572 C1568 0.950 . S
C1573 C1571 1.390 . S
C1573 C1574 1.387 . S
C1573 H1576 0.950 . S
C1574 C1573 1.387 . S
C1574 C1577 1.387 . S
H1575 C1571 0.950 . S
H1576 C1573 0.950 . S
C1577 C1568 1.390 . S
C1577 H1570 0.950 . S
C1577 C1574 1.387 . S
C1578 C1579 1.387 . S
C1578 H1582 0.950 . S
C1578 C1587 1.390 . S
C1579 C1578 1.387 . S
C1579 C1581 1.387 . S
H1580 C1587 0.950 . S
C1581 C1579 1.387 . S
C1581 C1583 1.390 . S
C1581 H1585 0.950 . S
H1582 C1578 0.950 . S
C1583 C1581 1.390 . S
C1583 C1584 1.387 . S
C1583 H1586 0.950 . S
C1584 C1583 1.387 . S
C1584 C1587 1.387 . S
H1585 C1581 0.950 . S
H1586 C1583 0.950 . S
C1587 C1578 1.390 . S
C1587 H1580 0.950 . S
C1587 C1584 1.387 . S
C1588 C1589 1.387 . S
C1588 H1592 0.950 . S
C1588 C1597 1.390 . S
C1589 C1588 1.387 . S
C1589 C1591 1.387 . S
H1590 C1597 0.950 . S
C1591 C1589 1.387 . S
C1591 C1593 1.390 . S
C1591 H1595 0.950 . S
H1592 C1588 0.950 . S
C1593 C1591 1.390 . S
C1593 C1594 1.387 . S
C1593 H1596 0.950 . S
C1594 C1593 1.387 . S
C1594 C1597 1.387 . S
H1595 C1591 0.950 . S
H1596 C1593 0.950 . S
C1597 C1588 1.390 . S
C1597 H1590 0.950 . S
C1597 C1594 1.387 . S
C1598 C1599 1.387 . S
C1598 H1602 0.950 . S
C1598 C1607 1.390 . S
C1599 C1598 1.387 . S
C1599 C1601 1.387 . S
H1600 C1607 0.950 . S
C1601 C1599 1.387 . S
C1601 C1603 1.390 . S
C1601 H1605 0.950 . S
H1602 C1598 0.950 . S
C1603 C1601 1.390 . S
C1603 C1604 1.387 . S
C1603 H1606 0.950 . S
C1604 C1603 1.387 . S
C1604 C1607 1.387 . S
H1605 C1601 0.950 . S
H1606 C1603 0.950 . S
C1607 C1598 1.390 . S
C1607 H1600 0.950 . S
C1607 C1604 1.387 . S
C1608 C1609 1.387 . S
C1608 H1612 0.950 . S
C1608 C1617 1.390 . S
C1609 C1608 1.387 . S
C1609 C1611 1.387 . S
H1610 C1617 0.950 . S
C1611 C1609 1.387 . S
C1611 C1613 1.390 . S
C1611 H1615 0.950 . S
H1612 C1608 0.950 . S
C1613 C1611 1.390 . S
C1613 C1614 1.387 . S
C1613 H1616 0.950 . S
C1614 C1613 1.387 . S
C1614 C1617 1.387 . S
H1615 C1611 0.950 . S
H1616 C1613 0.950 . S
C1617 C1608 1.390 . S
C1617 H1610 0.950 . S
C1617 C1614 1.387 . S
C1618 C1619 1.387 . S
C1618 H1622 0.950 . S
C1618 C1627 1.390 . S
C1619 C1618 1.387 . S
C1619 C1621 1.387 . S
H1620 C1627 0.950 . S
C1621 C1619 1.387 . S
C1621 C1623 1.390 . S
C1621 H1625 0.950 . S
H1622 C1618 0.950 . S
C1623 C1621 1.390 . S
C1623 C1624 1.387 . S
C1623 H1626 0.950 . S
C1624 C1623 1.387 . S
C1624 C1627 1.387 . S
H1625 C1621 0.950 . S
H1626 C1623 0.950 . S
C1627 C1618 1.390 . S
C1627 H1620 0.950 . S
C1627 C1624 1.387 . S
C1628 C1629 1.387 . S
C1628 H1632 0.950 . S
C1628 C1637 1.390 . S
C1629 C1628 1.387 . S
C1629 C1631 1.387 . S
H1630 C1637 0.950 . S
C1631 C1629 1.387 . S
C1631 C1633 1.390 . S
C1631 H1635 0.950 . S
H1632 C1628 0.950 . S
C1633 C1631 1.390 . S
C1633 C1634 1.387 . S
C1633 H1636 0.950 . S
C1634 C1633 1.387 . S
C1634 C1637 1.387 . S
H1635 C1631 0.950 . S
H1636 C1633 0.950 . S
C1637 C1628 1.390 . S
C1637 H1630 0.950 . S
C1637 C1634 1.387 . S
C1638 C1639 1.387 . S
C1638 H1642 0.950 . S
C1638 C1647 1.390 . S
C1639 C1638 1.387 . S
C1639 C1641 1.387 . S
H1640 C1647 0.950 . S
C1641 C1639 1.387 . S
C1641 C1643 1.390 . S
C1641 H1645 0.950 . S
H1642 C1638 0.950 . S
C1643 C1641 1.390 . S
C1643 C1644 1.387 . S
C1643 H1646 0.950 . S
C1644 C1643 1.387 . S
C1644 C1647 1.387 . S
H1645 C1641 0.950 . S
H1646 C1643 0.950 . S
C1647 C1638 1.390 . S
C1647 H1640 0.950 . S
C1647 C1644 1.387 . S
C1648 C1649 1.387 . S
C1648 H1652 0.950 . S
C1648 C1657 1.390 . S
C1649 C1648 1.387 . S
C1649 C1651 1.387 . S
H1650 C1657 0.950 . S
C1651 C1649 1.387 . S
C1651 C1653 1.390 . S
C1651 H1655 0.950 . S
H1652 C1648 0.950 . S
C1653 C1651 1.390 . S
C1653 C1654 1.387 . S
C1653 H1656 0.950 . S
C1654 C1653 1.387 . S
C1654 C1657 1.387 . S
H1655 C1651 0.950 . S
H1656 C1653 0.950 . S
C1657 C1648 1.390 . S
C1657 H1650 0.950 . S
C1657 C1654 1.387 . S
C1658 C1659 1.387 . S
C1658 H1662 0.950 . S
C1658 C1667 1.390 . S
C1659 C1658 1.387 . S
C1659 C1661 1.387 . S
H1660 C1667 0.950 . S
C1661 C1659 1.387 . S
C1661 C1663 1.390 . S
C1661 H1665 0.950 . S
H1662 C1658 0.950 . S
C1663 C1661 1.390 . S
C1663 C1664 1.387 . S
C1663 H1666 0.950 . S
C1664 C1663 1.387 . S
C1664 C1667 1.387 . S
H1665 C1661 0.950 . S
H1666 C1663 0.950 . S
C1667 C1658 1.390 . S
C1667 H1660 0.950 . S
C1667 C1664 1.387 . S
C1668 C1669 1.387 . S
C1668 H1672 0.950 . S
C1668 C1677 1.390 . S
C1669 C1668 1.387 . S
C1669 C1671 1.387 . S
H1670 C1677 0.950 . S
C1671 C1669 1.387 . S
C1671 C1673 1.390 . S
C1671 H1675 0.950 . S
H1672 C1668 0.950 . S
C1673 C1671 1.390 . S
C1673 C1674 1.387 . S
C1673 H1676 0.950 . S
C1674 C1673 1.387 . S
C1674 C1677 1.387 . S
H1675 C1671 0.950 . S
H1676 C1673 0.950 . S
C1677 C1668 1.390 . S
C1677 H1670 0.950 . S
C1677 C1674 1.387 . S
C1678 C1679 1.387 . S
C1678 H1682 0.950 . S
C1678 C1687 1.390 . S
C1679 C1678 1.387 . S
C1679 C1681 1.387 . S
H1680 C1687 0.950 . S
C1681 C1679 1.387 . S
C1681 C1683 1.390 . S
C1681 H1685 0.950 . S
H1682 C1678 0.950 . S
C1683 C1681 1.390 . S
C1683 C1684 1.387 . S
C1683 H1686 0.950 . S
C1684 C1683 1.387 . S
C1684 C1687 1.387 . S
H1685 C1681 0.950 . S
H1686 C1683 0.950 . S
C1687 C1678 1.390 . S
C1687 H1680 0.950 . S
C1687 C1684 1.387 . S
C1688 C1689 1.387 . S
C1688 H1692 0.950 . S
C1688 C1697 1.390 . S
C1689 C1688 1.387 . S
C1689 C1691 1.387 . S
H1690 C1697 0.950 . S
C1691 C1689 1.387 . S
C1691 C1693 1.390 . S
C1691 H1695 0.950 . S
H1692 C1688 0.950 . S
C1693 C1691 1.390 . S
C1693 C1694 1.387 . S
C1693 H1696 0.950 . S
C1694 C1693 1.387 . S
C1694 C1697 1.387 . S
H1695 C1691 0.950 . S
H1696 C1693 0.950 . S
C1697 C1688 1.390 . S
C1697 H1690 0.950 . S
C1697 C1694 1.387 . S
C1698 C1699 1.387 . S
C1698 H1702 0.950 . S
C1698 C1707 1.390 . S
C1699 C1698 1.387 . S
C1699 C1701 1.387 . S
H1700 C1707 0.950 . S
C1701 C1699 1.387 . S
C1701 C1703 1.390 . S
C1701 H1705 0.950 . S
H1702 C1698 0.950 . S
C1703 C1701 1.390 . S
C1703 C1704 1.387 . S
C1703 H1706 0.950 . S
C1704 C1703 1.387 . S
C1704 C1707 1.387 . S
H1705 C1701 0.950 . S
H1706 C1703 0.950 . S
C1707 C1698 1.390 . S
C1707 H1700 0.950 . S
C1707 C1704 1.387 . S
C1708 C1709 1.387 . S
C1708 H1712 0.950 . S
C1708 C1717 1.390 . S
C1709 C1708 1.387 . S
C1709 C1711 1.387 . S
H1710 C1717 0.950 . S
C1711 C1709 1.387 . S
C1711 C1713 1.390 . S
C1711 H1715 0.950 . S
H1712 C1708 0.950 . S
C1713 C1711 1.390 . S
C1713 C1714 1.387 . S
C1713 H1716 0.950 . S
C1714 C1713 1.387 . S
C1714 C1717 1.387 . S
H1715 C1711 0.950 . S
H1716 C1713 0.950 . S
C1717 C1708 1.390 . S
C1717 H1710 0.950 . S
C1717 C1714 1.387 . S
C1718 C1719 1.387 . S
C1718 H1722 0.950 . S
C1718 C1727 1.390 . S
C1719 C1718 1.387 . S
C1719 C1721 1.387 . S
H1720 C1727 0.950 . S
C1721 C1719 1.387 . S
C1721 C1723 1.390 . S
C1721 H1725 0.950 . S
H1722 C1718 0.950 . S
C1723 C1721 1.390 . S
C1723 C1724 1.387 . S
C1723 H1726 0.950 . S
C1724 C1723 1.387 . S
C1724 C1727 1.387 . S
H1725 C1721 0.950 . S
H1726 C1723 0.950 . S
C1727 C1718 1.390 . S
C1727 H1720 0.950 . S
C1727 C1724 1.387 . S
C1728 C1729 1.387 . S
C1728 H1732 0.950 . S
C1728 C1737 1.390 . S
C1729 C1728 1.387 . S
C1729 C1731 1.387 . S
H1730 C1737 0.950 . S
C1731 C1729 1.387 . S
C1731 C1733 1.390 . S
C1731 H1735 0.950 . S
H1732 C1728 0.950 . S
C1733 C1731 1.390 . S
C1733 C1734 1.387 . S
C1733 H1736 0.950 . S
C1734 C1733 1.387 . S
C1734 C1737 1.387 . S
H1735 C1731 0.950 . S
H1736 C1733 0.950 . S
C1737 C1728 1.390 . S
C1737 H1730 0.950 . S
C1737 C1734 1.387 . S
C1738 C1739 1.387 . S
C1738 H1742 0.950 . S
C1738 C1747 1.390 . S
C1739 C1738 1.387 . S
C1739 C1741 1.387 . S
H1740 C1747 0.950 . S
C1741 C1739 1.387 . S
C1741 C1743 1.390 . S
C1741 H1745 0.950 . S
H1742 C1738 0.950 . S
C1743 C1741 1.390 . S
C1743 C1744 1.387 . S
C1743 H1746 0.950 . S
C1744 C1743 1.387 . S
C1744 C1747 1.387 . S
H1745 C1741 0.950 . S
H1746 C1743 0.950 . S
C1747 C1738 1.390 . S
C1747 H1740 0.950 . S
C1747 C1744 1.387 . S
C1748 C1749 1.387 . S
C1748 H1752 0.950 . S
C1748 C1757 1.390 . S
C1749 C1748 1.387 . S
C1749 C1751 1.387 . S
H1750 C1757 0.950 . S
C1751 C1749 1.387 . S
C1751 C1753 1.390 . S
C1751 H1755 0.950 . S
H1752 C1748 0.950 . S
C1753 C1751 1.390 . S
C1753 C1754 1.387 . S
C1753 H1756 0.950 . S
C1754 C1753 1.387 . S
C1754 C1757 1.387 . S
H1755 C1751 0.950 . S
H1756 C1753 0.950 . S
C1757 C1748 1.390 . S
C1757 H1750 0.950 . S
C1757 C1754 1.387 . S
C1758 C1759 1.387 . S
C1758 H1762 0.950 1_556 S
C1758 C1767 1.390 . S
C1759 C1758 1.387 . S
C1759 C1761 1.387 . S
H1760 C1767 0.950 . S
C1761 C1759 1.387 . S
C1761 C1763 1.390 . S
C1761 H1765 0.950 . S
H1762 C1758 0.950 1_554 S
C1763 C1761 1.390 . S
C1763 C1764 1.387 . S
C1763 H1766 0.950 . S
C1764 C1763 1.387 . S
C1764 C1767 1.387 . S
H1765 C1761 0.950 . S
H1766 C1763 0.950 . S
C1767 C1758 1.390 . S
C1767 H1760 0.950 . S
C1767 C1764 1.387 . S
C1768 C1769 1.387 . S
C1768 H1772 0.950 1_556 S
C1768 C1777 1.390 . S
C1769 C1768 1.387 . S
C1769 C1771 1.387 . S
H1770 C1777 0.950 . S
C1771 C1769 1.387 . S
C1771 C1773 1.390 . S
C1771 H1775 0.950 . S
H1772 C1768 0.950 1_554 S
C1773 C1771 1.390 . S
C1773 C1774 1.387 . S
C1773 H1776 0.950 . S
C1774 C1773 1.387 . S
C1774 C1777 1.387 . S
H1775 C1771 0.950 . S
H1776 C1773 0.950 . S
C1777 C1768 1.390 . S
C1777 H1770 0.950 . S
C1777 C1774 1.387 . S
C1778 C1779 1.387 . S
C1778 H1782 0.950 . S
C1778 C1787 1.390 . S
C1779 C1778 1.387 . S
C1779 C1781 1.387 . S
H1780 C1787 0.950 . S
C1781 C1779 1.387 . S
C1781 C1783 1.390 . S
C1781 H1785 0.950 . S
H1782 C1778 0.950 . S
C1783 C1781 1.390 . S
C1783 C1784 1.387 . S
C1783 H1786 0.950 . S
C1784 C1783 1.387 . S
C1784 C1787 1.387 . S
H1785 C1781 0.950 . S
H1786 C1783 0.950 . S
C1787 C1778 1.390 . S
C1787 H1780 0.950 . S
C1787 C1784 1.387 . S
C1788 C1789 1.387 . S
C1788 H1792 0.950 . S
C1788 C1797 1.390 . S
C1789 C1788 1.387 . S
C1789 C1791 1.387 . S
H1790 C1797 0.950 . S
C1791 C1789 1.387 . S
C1791 C1793 1.390 . S
C1791 H1795 0.950 . S
H1792 C1788 0.950 . S
C1793 C1791 1.390 . S
C1793 C1794 1.387 . S
C1793 H1796 0.950 . S
C1794 C1793 1.387 . S
C1794 C1797 1.387 . S
H1795 C1791 0.950 . S
H1796 C1793 0.950 . S
C1797 C1788 1.390 . S
C1797 H1790 0.950 . S
C1797 C1794 1.387 . S
C1798 C1799 1.387 . S
C1798 H1802 0.950 . S
C1798 C1807 1.390 . S
C1799 C1798 1.387 . S
C1799 C1801 1.387 . S
H1800 C1807 0.950 . S
C1801 C1799 1.387 . S
C1801 C1803 1.390 . S
C1801 H1805 0.950 1_556 S
H1802 C1798 0.950 . S
C1803 C1801 1.390 . S
C1803 C1804 1.387 . S
C1803 H1806 0.950 . S
C1804 C1803 1.387 . S
C1804 C1807 1.387 . S
H1805 C1801 0.950 1_554 S
H1806 C1803 0.950 . S
C1807 C1798 1.390 . S
C1807 H1800 0.950 . S
C1807 C1804 1.387 . S
C1808 C1809 1.387 . S
C1808 H1812 0.950 1_556 S
C1808 C1817 1.390 . S
C1809 C1808 1.387 . S
C1809 C1811 1.387 . S
H1810 C1817 0.950 . S
C1811 C1809 1.387 . S
C1811 C1813 1.390 . S
C1811 H1815 0.950 . S
H1812 C1808 0.950 1_554 S
C1813 C1811 1.390 . S
C1813 C1814 1.387 . S
C1813 H1816 0.950 . S
C1814 C1813 1.387 . S
C1814 C1817 1.387 . S
H1815 C1811 0.950 . S
H1816 C1813 0.950 . S
C1817 C1808 1.390 . S
C1817 H1810 0.950 . S
C1817 C1814 1.387 . S
C1818 C1819 1.387 . S
C1818 H1822 0.950 . S
C1818 C1827 1.390 . S
C1819 C1818 1.387 . S
C1819 C1821 1.387 . S
H1820 C1827 0.950 . S
C1821 C1819 1.387 . S
C1821 C1823 1.390 . S
C1821 H1825 0.950 . S
H1822 C1818 0.950 . S
C1823 C1821 1.390 . S
C1823 C1824 1.387 . S
C1823 H1826 0.950 . S
C1824 C1823 1.387 . S
C1824 C1827 1.387 . S
H1825 C1821 0.950 . S
H1826 C1823 0.950 . S
C1827 C1818 1.390 . S
C1827 H1820 0.950 . S
C1827 C1824 1.387 . S
C1828 C1829 1.387 . S
C1828 H1832 0.950 . S
C1828 C1837 1.390 . S
C1829 C1828 1.387 . S
C1829 C1831 1.387 . S
H1830 C1837 0.950 . S
C1831 C1829 1.387 . S
C1831 C1833 1.390 . S
C1831 H1835 0.950 . S
H1832 C1828 0.950 . S
C1833 C1831 1.390 . S
C1833 C1834 1.387 . S
C1833 H1836 0.950 . S
C1834 C1833 1.387 . S
C1834 C1837 1.387 . S
H1835 C1831 0.950 . S
H1836 C1833 0.950 . S
C1837 C1828 1.390 . S
C1837 H1830 0.950 . S
C1837 C1834 1.387 . S
C1838 C1839 1.387 . S
C1838 H1842 0.950 . S
C1838 C1847 1.390 . S
C1839 C1838 1.387 . S
C1839 C1841 1.387 . S
H1840 C1847 0.950 . S
C1841 C1839 1.387 . S
C1841 C1843 1.390 . S
C1841 H1845 0.950 . S
H1842 C1838 0.950 . S
C1843 C1841 1.390 . S
C1843 C1844 1.387 . S
C1843 H1846 0.950 . S
C1844 C1843 1.387 . S
C1844 C1847 1.387 . S
H1845 C1841 0.950 . S
H1846 C1843 0.950 . S
C1847 C1838 1.390 . S
C1847 H1840 0.950 . S
C1847 C1844 1.387 . S
C1848 C1849 1.387 . S
C1848 H1852 0.950 . S
C1848 C1857 1.390 . S
C1849 C1848 1.387 . S
C1849 C1851 1.387 . S
H1850 C1857 0.950 . S
C1851 C1849 1.387 . S
C1851 C1853 1.390 . S
C1851 H1855 0.950 . S
H1852 C1848 0.950 . S
C1853 C1851 1.390 . S
C1853 C1854 1.387 . S
C1853 H1856 0.950 . S
C1854 C1853 1.387 . S
C1854 C1857 1.387 . S
H1855 C1851 0.950 . S
H1856 C1853 0.950 . S
C1857 C1848 1.390 . S
C1857 H1850 0.950 . S
C1857 C1854 1.387 . S
C1858 C1859 1.387 . S
C1858 H1862 0.950 . S
C1858 C1867 1.390 . S
C1859 C1858 1.387 . S
C1859 C1861 1.387 . S
H1860 C1867 0.950 . S
C1861 C1859 1.387 . S
C1861 C1863 1.390 . S
C1861 H1865 0.950 . S
H1862 C1858 0.950 . S
C1863 C1861 1.390 . S
C1863 C1864 1.387 . S
C1863 H1866 0.950 . S
C1864 C1863 1.387 . S
C1864 C1867 1.387 . S
H1865 C1861 0.950 . S
H1866 C1863 0.950 . S
C1867 C1858 1.390 . S
C1867 H1860 0.950 . S
C1867 C1864 1.387 . S
C1868 C1869 1.387 . S
C1868 H1872 0.950 . S
C1868 C1877 1.390 . S
C1869 C1868 1.387 . S
C1869 C1871 1.387 . S
H1870 C1877 0.950 . S
C1871 C1869 1.387 . S
C1871 C1873 1.390 . S
C1871 H1875 0.950 . S
H1872 C1868 0.950 . S
C1873 C1871 1.390 . S
C1873 C1874 1.387 . S
C1873 H1876 0.950 . S
C1874 C1873 1.387 . S
C1874 C1877 1.387 . S
H1875 C1871 0.950 . S
H1876 C1873 0.950 . S
C1877 C1868 1.390 . S
C1877 H1870 0.950 . S
C1877 C1874 1.387 . S
C1878 C1879 1.387 . S
C1878 H1882 0.950 . S
C1878 C1887 1.390 . S
C1879 C1878 1.387 . S
C1879 C1881 1.387 . S
H1880 C1887 0.950 . S
C1881 C1879 1.387 . S
C1881 C1883 1.390 . S
C1881 H1885 0.950 . S
H1882 C1878 0.950 . S
C1883 C1881 1.390 . S
C1883 C1884 1.387 . S
C1883 H1886 0.950 . S
C1884 C1883 1.387 . S
C1884 C1887 1.387 . S
H1885 C1881 0.950 . S
H1886 C1883 0.950 . S
C1887 C1878 1.390 . S
C1887 H1880 0.950 . S
C1887 C1884 1.387 . S
C1888 C1889 1.387 . S
C1888 H1892 0.950 . S
C1888 C1897 1.390 . S
C1889 C1888 1.387 . S
C1889 C1891 1.387 . S
H1890 C1897 0.950 . S
C1891 C1889 1.387 . S
C1891 C1893 1.390 . S
C1891 H1895 0.950 . S
H1892 C1888 0.950 . S
C1893 C1891 1.390 . S
C1893 C1894 1.387 . S
C1893 H1896 0.950 . S
C1894 C1893 1.387 . S
C1894 C1897 1.387 . S
H1895 C1891 0.950 . S
H1896 C1893 0.950 . S
C1897 C1888 1.390 . S
C1897 H1890 0.950 . S
C1897 C1894 1.387 . S
C1898 C1899 1.387 . S
C1898 H1902 0.950 . S
C1898 C1907 1.390 . S
C1899 C1898 1.387 . S
C1899 C1901 1.387 1_565 S
H1900 C1907 0.950 . S
C1901 C1899 1.387 1_545 S
C1901 C1903 1.390 . S
C1901 H1905 0.950 . S
H1902 C1898 0.950 . S
C1903 C1901 1.390 . S
C1903 C1904 1.387 1_545 S
C1903 H1906 0.950 . S
C1904 C1903 1.387 1_565 S
C1904 C1907 1.387 . S
H1905 C1901 0.950 . S
H1906 C1903 0.950 . S
C1907 C1898 1.390 . S
C1907 H1900 0.950 . S
C1907 C1904 1.387 . S
C1908 C1909 1.387 . S
C1908 H1912 0.950 . S
C1908 C1917 1.390 . S
C1909 C1908 1.387 . S
C1909 C1911 1.387 1_565 S
H1910 C1917 0.950 . S
C1911 C1909 1.387 1_545 S
C1911 C1913 1.390 . S
C1911 H1915 0.950 . S
H1912 C1908 0.950 . S
C1913 C1911 1.390 . S
C1913 C1914 1.387 1_545 S
C1913 H1916 0.950 . S
C1914 C1913 1.387 1_565 S
C1914 C1917 1.387 . S
H1915 C1911 0.950 . S
H1916 C1913 0.950 . S
C1917 C1908 1.390 . S
C1917 H1910 0.950 . S
C1917 C1914 1.387 . S
C1918 C1919 1.387 . S
C1918 H1922 0.950 . S
C1918 C1927 1.390 . S
C1919 C1918 1.387 . S
C1919 C1921 1.387 . S
H1920 C1927 0.950 . S
C1921 C1919 1.387 . S
C1921 C1923 1.390 . S
C1921 H1925 0.906 1_455 S
H1922 C1918 0.950 . S
C1923 C1921 1.390 . S
C1923 C1924 1.387 . S
C1923 H1926 0.950 1_455 S
C1924 C1923 1.387 . S
C1924 C1927 1.387 . S
H1925 C1921 0.906 1_655 S
H1926 C1923 0.950 1_655 S
C1927 C1918 1.390 . S
C1927 H1920 0.950 . S
C1927 C1924 1.387 . S
C1928 C1929 1.387 . S
C1928 H1932 0.950 . S
C1928 C1937 1.390 . S
C1929 C1928 1.387 . S
C1929 C1931 1.387 . S
H1930 C1937 0.950 . S
C1931 C1929 1.387 . S
C1931 C1933 1.390 . S
C1931 H1935 0.950 . S
H1932 C1928 0.950 . S
C1933 C1931 1.390 . S
C1933 C1934 1.387 . S
C1933 H1936 0.950 . S
C1934 C1933 1.387 . S
C1934 C1937 1.387 . S
H1935 C1931 0.950 . S
H1936 C1933 0.950 . S
C1937 C1928 1.390 . S
C1937 H1930 0.950 . S
C1937 C1934 1.387 . S
C1938 C1939 1.387 . S
C1938 H1942 0.950 . S
C1938 C1947 1.390 . S
C1939 C1938 1.387 . S
C1939 C1941 1.387 . S
H1940 C1947 0.950 . S
C1941 C1939 1.387 . S
C1941 C1943 1.390 . S
C1941 H1945 0.950 . S
H1942 C1938 0.950 . S
C1943 C1941 1.390 . S
C1943 C1944 1.387 . S
C1943 H1946 0.950 . S
C1944 C1943 1.387 . S
C1944 C1947 1.387 . S
H1945 C1941 0.950 . S
H1946 C1943 0.950 . S
C1947 C1938 1.390 . S
C1947 H1940 0.950 . S
C1947 C1944 1.387 . S
C1948 C1949 1.387 . S
C1948 H1952 0.950 . S
C1948 C1957 1.390 . S
C1949 C1948 1.387 . S
C1949 C1951 1.387 . S
H1950 C1957 0.950 . S
C1951 C1949 1.387 . S
C1951 C1953 1.390 . S
C1951 H1955 0.950 . S
H1952 C1948 0.950 . S
C1953 C1951 1.390 . S
C1953 C1954 1.387 . S
C1953 H1956 0.950 . S
C1954 C1953 1.387 . S
C1954 C1957 1.387 . S
H1955 C1951 0.950 . S
H1956 C1953 0.950 . S
C1957 C1948 1.390 . S
C1957 H1950 0.950 . S
C1957 C1954 1.387 . S
C1958 C1959 1.387 . S
C1958 H1962 0.950 . S
C1958 C1967 1.390 . S
C1959 C1958 1.387 . S
C1959 C1961 1.387 . S
H1960 C1967 0.950 . S
C1961 C1959 1.387 . S
C1961 C1963 1.390 . S
C1961 H1965 0.950 . S
H1962 C1958 0.950 . S
C1963 C1961 1.390 . S
C1963 C1964 1.387 . S
C1963 H1966 0.950 . S
C1964 C1963 1.387 . S
C1964 C1967 1.387 . S
H1965 C1961 0.950 . S
H1966 C1963 0.950 . S
C1967 C1958 1.390 . S
C1967 H1960 0.950 . S
C1967 C1964 1.387 . S
C1968 C1969 1.387 . S
C1968 H1972 0.950 . S
C1968 C1977 1.390 . S
C1969 C1968 1.387 . S
C1969 C1971 1.387 . S
H1970 C1977 0.950 . S
C1971 C1969 1.387 . S
C1971 C1973 1.390 . S
C1971 H1975 0.950 1_545 S
H1972 C1968 0.950 . S
C1973 C1971 1.390 . S
C1973 C1974 1.387 . S
C1973 H1976 0.950 1_545 S
C1974 C1973 1.387 . S
C1974 C1977 1.387 . S
H1975 C1971 0.950 1_565 S
H1976 C1973 0.950 1_565 S
C1977 C1968 1.390 . S
C1977 H1970 0.950 . S
C1977 C1974 1.387 . S
C1978 C1979 1.387 . S
C1978 H1982 0.950 . S
C1978 C1987 1.390 . S
C1979 C1978 1.387 . S
C1979 C1981 1.387 . S
H1980 C1987 0.950 . S
C1981 C1979 1.387 . S
C1981 C1983 1.390 . S
C1981 H1985 0.950 . S
H1982 C1978 0.950 . S
C1983 C1981 1.390 . S
C1983 C1984 1.387 . S
C1983 H1986 0.950 . S
C1984 C1983 1.387 . S
C1984 C1987 1.387 . S
H1985 C1981 0.950 . S
H1986 C1983 0.950 . S
C1987 C1978 1.390 . S
C1987 H1980 0.950 . S
C1987 C1984 1.387 . S
C1988 C1989 1.387 . S
C1988 H1992 0.950 . S
C1988 C1997 1.390 . S
C1989 C1988 1.387 . S
C1989 C1991 1.387 . S
H1990 C1997 0.950 . S
C1991 C1989 1.387 . S
C1991 C1993 1.390 . S
C1991 H1995 0.950 . S
H1992 C1988 0.950 . S
C1993 C1991 1.390 . S
C1993 C1994 1.387 . S
C1993 H1996 0.950 . S
C1994 C1993 1.387 . S
C1994 C1997 1.387 . S
H1995 C1991 0.950 . S
H1996 C1993 0.950 . S
C1997 C1988 1.390 . S
C1997 H1990 0.950 . S
C1997 C1994 1.387 . S
C1998 C1999 1.387 . S
C1998 H2002 0.950 . S
C1998 C2007 1.390 . S
C1999 C1998 1.387 . S
C1999 C2001 1.387 . S
H2000 C2007 0.950 . S
C2001 C1999 1.387 . S
C2001 C2003 1.390 . S
C2001 H2005 0.950 . S
H2002 C1998 0.950 . S
C2003 C2001 1.390 . S
C2003 C2004 1.387 . S
C2003 H2006 0.950 . S
C2004 C2003 1.387 . S
C2004 C2007 1.387 . S
H2005 C2001 0.950 . S
H2006 C2003 0.950 . S
C2007 C1998 1.390 . S
C2007 H2000 0.950 . S
C2007 C2004 1.387 . S
C2008 C2009 1.387 . S
C2008 H2012 0.950 . S
C2008 C2017 1.390 . S
C2009 C2008 1.387 . S
C2009 C2011 1.387 . S
H2010 C2017 0.950 . S
C2011 C2009 1.387 . S
C2011 C2013 1.390 . S
C2011 H2015 0.950 . S
H2012 C2008 0.950 . S
C2013 C2011 1.390 . S
C2013 C2014 1.387 . S
C2013 H2016 0.950 . S
C2014 C2013 1.387 . S
C2014 C2017 1.387 . S
H2015 C2011 0.950 . S
H2016 C2013 0.950 . S
C2017 C2008 1.390 . S
C2017 H2010 0.950 . S
C2017 C2014 1.387 . S
C2018 C2019 1.387 . S
C2018 H2022 0.950 . S
C2018 C2027 1.390 . S
C2019 C2018 1.387 . S
C2019 C2021 1.387 . S
H2020 C2027 0.950 . S
C2021 C2019 1.387 . S
C2021 C2023 1.390 . S
C2021 H2025 0.950 . S
H2022 C2018 0.950 . S
C2023 C2021 1.390 . S
C2023 C2024 1.387 . S
C2023 H2026 0.950 . S
C2024 C2023 1.387 . S
C2024 C2027 1.387 . S
H2025 C2021 0.950 . S
H2026 C2023 0.950 . S
C2027 C2018 1.390 . S
C2027 H2020 0.950 . S
C2027 C2024 1.387 . S
C2028 C2029 1.387 . S
C2028 H2032 0.950 . S
C2028 C2037 1.390 . S
C2029 C2028 1.387 . S
C2029 C2031 1.387 . S
H2030 C2037 0.950 . S
C2031 C2029 1.387 . S
C2031 C2033 1.390 . S
C2031 H2035 0.950 . S
H2032 C2028 0.950 . S
C2033 C2031 1.390 . S
C2033 C2034 1.387 . S
C2033 H2036 0.950 . S
C2034 C2033 1.387 . S
C2034 C2037 1.387 . S
H2035 C2031 0.950 . S
H2036 C2033 0.950 . S
C2037 C2028 1.390 . S
C2037 H2030 0.950 . S
C2037 C2034 1.387 . S
C2038 C2039 1.387 . S
C2038 H2042 0.950 . S
C2038 C2047 1.390 . S
C2039 C2038 1.387 . S
C2039 C2041 1.387 . S
H2040 C2047 0.950 . S
C2041 C2039 1.387 . S
C2041 C2043 1.390 . S
C2041 H2045 0.950 . S
H2042 C2038 0.950 . S
C2043 C2041 1.390 . S
C2043 C2044 1.387 . S
C2043 H2046 0.950 . S
C2044 C2043 1.387 . S
C2044 C2047 1.387 . S
H2045 C2041 0.950 . S
H2046 C2043 0.950 . S
C2047 C2038 1.390 . S
C2047 H2040 0.950 . S
C2047 C2044 1.387 . S
C2048 C2049 1.387 . S
C2048 H2052 0.950 . S
C2048 C2057 1.390 . S
C2049 C2048 1.387 . S
C2049 C2051 1.387 . S
H2050 C2057 0.950 . S
C2051 C2049 1.387 . S
C2051 C2053 1.390 . S
C2051 H2055 0.950 . S
H2052 C2048 0.950 . S
C2053 C2051 1.390 . S
C2053 C2054 1.387 . S
C2053 H2056 0.950 . S
C2054 C2053 1.387 . S
C2054 C2057 1.387 . S
H2055 C2051 0.950 . S
H2056 C2053 0.950 . S
C2057 C2048 1.390 . S
C2057 H2050 0.950 . S
C2057 C2054 1.387 . S
C2058 C2059 1.387 . S
C2058 H2062 0.950 1_655 S
C2058 C2067 1.429 . S
C2059 C2058 1.387 . S
C2059 C2061 1.387 . S
H2060 C2067 0.917 1_455 S
C2061 C2059 1.387 . S
C2061 C2063 1.390 . S
C2061 H2065 0.950 . S
H2062 C2058 0.950 1_455 S
C2063 C2061 1.390 . S
C2063 C2064 1.387 . S
C2063 H2066 0.950 . S
C2064 C2063 1.387 . S
C2064 C2067 1.385 . S
H2065 C2061 0.950 . S
H2066 C2063 0.950 . S
C2067 C2058 1.429 . S
C2067 H2060 0.917 1_655 S
C2067 C2064 1.385 . S
C2068 C2069 1.387 . S
C2068 H2072 0.950 . S
C2068 C2077 1.390 . S
C2069 C2068 1.387 . S
C2069 C2071 1.387 . S
H2070 C2077 0.950 . S
C2071 C2069 1.387 . S
C2071 C2073 1.390 . S
C2071 H2075 0.950 . S
H2072 C2068 0.950 . S
C2073 C2071 1.390 . S
C2073 C2074 1.387 . S
C2073 H2076 0.950 . S
C2074 C2073 1.387 . S
C2074 C2077 1.387 . S
H2075 C2071 0.950 . S
H2076 C2073 0.950 . S
C2077 C2068 1.390 . S
C2077 H2070 0.950 . S
C2077 C2074 1.387 . S
C2078 C2079 1.387 . S
C2078 H2082 0.950 . S
C2078 C2087 1.390 . S
C2079 C2078 1.387 . S
C2079 C2081 1.387 . S
H2080 C2087 0.950 . S
C2081 C2079 1.387 . S
C2081 C2083 1.390 . S
C2081 H2085 0.914 1_545 S
H2082 C2078 0.950 . S
C2083 C2081 1.390 . S
C2083 C2084 1.387 . S
C2083 H2086 0.950 1_545 S
C2084 C2083 1.387 . S
C2084 C2087 1.387 . S
H2085 C2081 0.914 1_565 S
H2086 C2083 0.950 1_565 S
C2087 C2078 1.390 . S
C2087 H2080 0.950 . S
C2087 C2084 1.387 . S
C1369 C8 1.564 . S
C1374 C857 1.513 . S
C1379 C22 1.565 . S
C1384 C901 1.530 . S
C1394 C981 1.511 . S
C1389 C37 1.562 . S
C1399 C36 1.565 . S
C1404 C1025 1.530 . S
C1409 C9 1.561 . S
C1414 C1105 1.515 . S
C1419 C23 1.564 . S
C1424 C1167 1.514 . S
C1429 C50 1.573 . S
C1434 C1087 1.513 . S
C1444 C1149 1.512 . S
C1439 C64 1.566 . S
C1454 C1043 1.532 . S
C1449 C79 1.565 . S
C1459 C78 1.572 . S
C1464 C963 1.512 . S
C1474 C839 1.511 . S
C1469 C51 1.566 . S
C1479 C65 1.564 . S
C1484 C919 1.531 . S
C1489 C92 1.566 . S
C1494 C1229 1.511 . S
C1499 C106 1.566 . S
C1504 C1273 1.531 . S
C1514 C1353 1.511 . S
C1509 C121 1.565 . S
C1519 C120 1.565 . S
C1524 C299 1.511 . S
C1529 C93 1.564 . S
C1534 C343 1.531 . S
C1539 C107 1.564 . S
C1544 C423 1.513 . S
C1549 C134 1.564 . S
C1554 C361 1.532 . S
C1559 C148 1.564 . S
C1564 C405 1.513 . S
C1574 C281 1.512 . S
C1569 C163 1.565 . S
C1584 C1335 1.514 . S
C1579 C162 1.565 . S
C1594 C1211 1.511 . S
C1589 C135 1.566 . S
C1604 C1291 1.532 . S
C1599 C149 1.564 . S
C1609 C176 1.564 . S
C1614 C485 1.513 . S
C1619 C190 1.565 . S
C1624 C547 1.513 . S
C1629 C205 1.565 . S
C1634 C591 1.530 . S
C1639 C204 1.566 . S
C1644 C653 1.530 . S
C1654 C715 1.531 . S
C1649 C177 1.565 . S
C1664 C795 1.514 . S
C1659 C191 1.564 . S
C1674 C733 1.530 . S
C1669 C218 1.566 . S
C1684 C777 1.513 . S
C1679 C232 1.564 . S
C1689 C247 1.565 . S
C1694 C671 1.532 . S
C1704 C609 1.533 . S
C1699 C246 1.565 . S
C1709 C219 1.566 . S
C1714 C467 1.512 . S
C1724 C529 1.513 . S
C1719 C233 1.564 . S
C1734 C305 1.460 . S
C1729 C6 1.489 . S
C1739 C20 1.486 . S
C1744 C349 1.463 . S
C1754 C429 1.459 . S
C1749 C35 1.487 . S
C1764 C491 1.459 . S
C1759 C34 1.489 . S
C1774 C553 1.457 . S
C1769 C7 1.488 . S
C1784 C597 1.463 . S
C1779 C21 1.486 . S
C1789 C48 1.487 . S
C1794 C615 1.463 . S
C1799 C62 1.488 . S
C1804 C473 1.457 . S
C1809 C77 1.486 . S
C1814 C535 1.458 . S
C1819 C76 1.487 . S
C1824 C367 1.465 . S
C1834 C411 1.457 . S
C1829 C49 1.488 . S
C1839 C63 1.487 . S
C1844 C287 1.459 . S
C1854 C659 1.466 . S
C1849 C90 1.488 . S
C1859 C104 1.486 . S
C1864 C721 1.464 . S
C1869 C119 1.487 . S
C1874 C801 1.459 . S
C1884 C863 1.458 . S
C1879 C118 1.487 . S
C1889 C91 1.488 . S
C1894 C907 1.466 . S
C1899 C105 1.487 . S
C1904 C987 1.457 . S
C1909 C132 1.488 . S
C1914 C969 1.459 . S
C1919 C146 1.489 . S
C1924 C845 1.460 . S
C1934 C925 1.464 . S
C1929 C161 1.488 . S
C1939 C160 1.487 . S
C1944 C739 1.466 . S
C1949 C133 1.486 . S
C1954 C783 1.458 . S
C1964 C677 1.463 . S
C1959 C147 1.487 . S
C1974 C1031 1.463 . S
C1969 C174 1.487 . S
C1979 C188 1.489 . S
C1984 C1111 1.460 . S
C1989 C203 1.486 . S
C1994 C1173 1.457 . S
C2004 C1235 1.457 . S
C1999 C202 1.488 . S
C2014 C1279 1.466 . S
C2009 C175 1.488 . S
C2019 C189 1.488 . S
C2024 C1359 1.459 . S
C2029 C216 1.489 . S
C2034 C1341 1.460 . S
C2039 C230 1.487 . S
C2044 C1217 1.459 . S
C2054 C1297 1.465 . S
C2049 C245 1.487 . S
C2064 C1093 1.457 . S
C2059 C244 1.484 . S
C2074 C1155 1.456 . S
C2069 C217 1.487 . S
C2079 C231 1.489 . S
C2084 C1049 1.466 . S
