# Generated by pormake.
# Topology zzz, (3,6)-cn, num edge types: 1
# Building blocks:
#     Node 0, Type 0, BuildingBlock: VETTIZ_charged_linker_0, # of connection points: 3
#     Node 1, Type 0, BuildingBlock: VETTIZ_charged_linker_0, # of connection points: 3
#     Node 2, Type 0, BuildingBlock: VETTIZ_charged_linker_0, # of connection points: 3
#     Node 3, Type 0, BuildingBlock: VETTIZ_charged_linker_0, # of connection points: 3
#     Node 4, Type 0, BuildingBlock: VETTIZ_charged_linker_0, # of connection points: 3
#     Node 5, Type 0, BuildingBlock: VETTIZ_charged_linker_0, # of connection points: 3
#     Node 6, Type 0, BuildingBlock: VETTIZ_charged_linker_0, # of connection points: 3
#     Node 7, Type 0, BuildingBlock: VETTIZ_charged_linker_0, # of connection points: 3
#     Node 8, Type 1, BuildingBlock: LEVNOQ01_clean_sbu_1, # of connection points: 6
#     Node 9, Type 1, BuildingBlock: LEVNOQ01_clean_sbu_1, # of connection points: 6
#     Node 10, Type 1, BuildingBlock: LEVNOQ01_clean_sbu_1, # of connection points: 6
#     Node 11, Type 1, BuildingBlock: LEVNOQ01_clean_sbu_1, # of connection points: 6
#     Edge 12, Type (0, 1), BuildingBlock: EYOCIG_clean_linker_4, # of connection points: 2
#     Edge 13, Type (0, 1), BuildingBlock: EYOCIG_clean_linker_4, # of connection points: 2
#     Edge 14, Type (0, 1), BuildingBlock: EYOCIG_clean_linker_4, # of connection points: 2
#     Edge 15, Type (0, 1), BuildingBlock: EYOCIG_clean_linker_4, # of connection points: 2
#     Edge 16, Type (0, 1), BuildingBlock: EYOCIG_clean_linker_4, # of connection points: 2
#     Edge 17, Type (0, 1), BuildingBlock: EYOCIG_clean_linker_4, # of connection points: 2
#     Edge 18, Type (0, 1), BuildingBlock: EYOCIG_clean_linker_4, # of connection points: 2
#     Edge 19, Type (0, 1), BuildingBlock: EYOCIG_clean_linker_4, # of connection points: 2
#     Edge 20, Type (0, 1), BuildingBlock: EYOCIG_clean_linker_4, # of connection points: 2
#     Edge 21, Type (0, 1), BuildingBlock: EYOCIG_clean_linker_4, # of connection points: 2
#     Edge 22, Type (0, 1), BuildingBlock: EYOCIG_clean_linker_4, # of connection points: 2
#     Edge 23, Type (0, 1), BuildingBlock: EYOCIG_clean_linker_4, # of connection points: 2
#     Edge 24, Type (0, 1), BuildingBlock: EYOCIG_clean_linker_4, # of connection points: 2
#     Edge 25, Type (0, 1), BuildingBlock: EYOCIG_clean_linker_4, # of connection points: 2
#     Edge 26, Type (0, 1), BuildingBlock: EYOCIG_clean_linker_4, # of connection points: 2
#     Edge 27, Type (0, 1), BuildingBlock: EYOCIG_clean_linker_4, # of connection points: 2
#     Edge 28, Type (0, 1), BuildingBlock: EYOCIG_clean_linker_4, # of connection points: 2
#     Edge 29, Type (0, 1), BuildingBlock: EYOCIG_clean_linker_4, # of connection points: 2
#     Edge 30, Type (0, 1), BuildingBlock: EYOCIG_clean_linker_4, # of connection points: 2
#     Edge 31, Type (0, 1), BuildingBlock: EYOCIG_clean_linker_4, # of connection points: 2
#     Edge 32, Type (0, 1), BuildingBlock: EYOCIG_clean_linker_4, # of connection points: 2
#     Edge 33, Type (0, 1), BuildingBlock: EYOCIG_clean_linker_4, # of connection points: 2
#     Edge 34, Type (0, 1), BuildingBlock: EYOCIG_clean_linker_4, # of connection points: 2
#     Edge 35, Type (0, 1), BuildingBlock: EYOCIG_clean_linker_4, # of connection points: 2
# Relax obj value: 0.314
# Max RMSD: 0.220
# Mean RMSD: 0.209
data_MOF--net-zzz--node1-LEVNOQ01_clean_sbu_1--node2-VETTIZ_charged_linker_0--edge1-EYOCIG_clean_linker_4
_symmetry_space_group_name_H-M    P1
_symmetry_Int_Tables_number       1
_symmetry_cell_setting            triclinic
loop_
_symmetry_equiv_pos_as_xyz
'x, y, z'
_cell_length_a     44.601801
_cell_length_b     47.08587
_cell_length_c     17.263993
_cell_angle_alpha  89.852069
_cell_angle_beta   89.94787
_cell_angle_gamma 88.14922
loop_
_atom_site_label
_atom_site_type_symbol
_atom_site_fract_x
_atom_site_fract_y
_atom_site_fract_z
_atom_type_partial_charge
C0 C 0.81069 0.58727 0.387 0.0
C1 C 0.84151 0.58945 0.40528 0.0
C2 C 0.86073 0.60168 0.35139 0.0
C3 C 0.82047 0.60547 0.25793 0.0
C4 C 0.80053 0.59582 0.31238 0.0
C5 C 0.76904 0.59499 0.27869 0.0
H6 H 0.68462 0.59424 0.94538 0.0
C7 C 0.80491 0.60853 0.18301 0.0
C8 C 0.77442 0.60293 0.19369 0.0
H9 H 0.65182 0.58297 0.17801 0.0
H10 H 0.70143 0.59274 0.22984 0.0
H11 H 0.72702 0.64894 0.98149 0.0
H12 H 0.73914 0.55854 0.96369 0.0
H13 H 0.77357 0.57151 0.93436 0.0
H14 H 0.74017 0.58092 0.87977 0.0
H15 H 0.72487 0.62946 0.89246 0.0
H16 H 0.76001 0.6423 0.92756 0.0
C17 C 0.74936 0.61778 0.32012 0.0
C18 C 0.75747 0.56465 0.28776 0.0
C19 C 0.86968 0.60586 0.94523 0.0
C20 C 0.8629 0.59864 0.86911 0.0
C21 C 0.83349 0.60247 0.84142 0.0
C22 C 0.81021 0.60983 0.89306 0.0
C23 C 0.81676 0.61257 0.97258 0.0
C24 C 0.84628 0.61207 0.99656 0.0
C25 C 0.84933 0.6127 0.08293 0.0
C26 C 0.81676 0.61202 0.10757 0.0
C27 C 0.79786 0.61186 0.04303 0.0
C28 C 0.86364 0.64116 0.10517 0.0
C29 C 0.86746 0.58538 0.10818 0.0
C30 C 0.68796 0.59433 0.00759 0.0
C31 C 0.66458 0.58788 0.05774 0.0
C32 C 0.66975 0.5879 0.13835 0.0
C33 C 0.69852 0.59334 0.16819 0.0
C34 C 0.72224 0.5985 0.11667 0.0
C35 C 0.7163 0.59956 0.03788 0.0
C36 C 0.74364 0.60444 0.99034 0.0
C37 C 0.76696 0.6072 0.05299 0.0
C38 C 0.75486 0.60317 0.12765 0.0
C39 C 0.73876 0.63263 0.9449 0.0
C40 C 0.74953 0.57773 0.93886 0.0
H41 H 0.86658 0.61816 0.23947 0.0
H42 H 0.79531 0.5784 0.42841 0.0
H43 H 0.77448 0.5488 0.26608 0.0
H44 H 0.7368 0.56135 0.25462 0.0
H45 H 0.75291 0.55981 0.34959 0.0
H46 H 0.76109 0.63826 0.32252 0.0
H47 H 0.74444 0.61116 0.3805 0.0
H48 H 0.72801 0.62235 0.28977 0.0
H49 H 0.89236 0.60283 0.96707 0.0
H50 H 0.82807 0.59689 0.78232 0.0
H51 H 0.78787 0.61072 0.87011 0.0
H52 H 0.86006 0.65766 0.05953 0.0
H53 H 0.88822 0.63837 0.11391 0.0
H54 H 0.85332 0.65072 0.15785 0.0
H55 H 0.86214 0.56709 0.07041 0.0
H56 H 0.86223 0.57782 0.16683 0.0
H57 H 0.89198 0.5885 0.10436 0.0
H58 H 0.88431 0.60386 0.36464 0.0
C59 C 0.85035 0.60999 0.27853 0.0
C60 C 0.99821 0.83349 0.89758 0.0
C61 C 0.99835 0.86306 0.90431 0.0
C62 C 0.99475 0.87608 0.97674 0.0
C63 C 0.99449 0.83009 0.03754 0.0
C64 C 0.99625 0.81737 0.96561 0.0
C65 C 0.99774 0.78558 0.9717 0.0
H66 H 0.99499 0.6657 0.18492 0.0
C67 C 0.99576 0.80765 0.09673 0.0
C68 C 0.99726 0.78156 0.05927 0.0
H69 H 0.99837 0.67715 0.93633 0.0
H70 H 1.0007 0.72712 0.95181 0.0
H71 H 0.04699 0.72003 0.22253 0.0
H72 H 0.94935 0.7245 0.22771 0.0
H73 H 0.96716 0.73604 0.31393 0.0
H74 H 0.96998 0.69923 0.28723 0.0
H75 H 0.02646 0.69678 0.2846 0.0
H76 H 0.03105 0.73332 0.31025 0.0
C77 C 0.02795 0.77481 0.9356 0.0
C78 C 0.96916 0.77435 0.93232 0.0
C79 C 0.99993 0.83968 0.37252 0.0
C80 C 1.00111 0.82642 0.44445 0.0
C81 C 1.00125 0.79638 0.4479 0.0
C82 C 1.00027 0.77999 0.37886 0.0
C83 C 0.99915 0.79394 0.30636 0.0
C84 C 0.99892 0.82338 0.30546 0.0
C85 C 0.99714 0.83568 0.22635 0.0
C86 C 0.99678 0.80911 0.17822 0.0
C87 C 0.99805 0.7842 0.22377 0.0
C88 C 0.02604 0.85264 0.21251 0.0
C89 C 0.96711 0.85334 0.22012 0.0
C90 C 0.996 0.67936 0.1345 0.0
C91 C 0.99594 0.66775 0.05889 0.0
C92 C 0.99795 0.68574 0.99461 0.0
C93 C 0.99929 0.7149 0.00384 0.0
C94 C 0.99855 0.72658 0.0784 0.0
C95 C 0.9975 0.70922 0.14294 0.0
C96 C 0.99817 0.72669 0.21712 0.0
C97 C 0.9984 0.75711 0.18538 0.0
C98 C 0.99848 0.75627 0.1037 0.0
C99 C 0.0272 0.7188 0.26151 0.0
C100 C 0.96965 0.72134 0.26451 0.0
H101 H 0.99148 0.87117 0.09687 0.0
H102 H 1.00138 0.82321 0.84195 0.0
H103 H 0.94999 0.79 0.93679 0.0
H104 H 0.96081 0.755 0.96027 0.0
H105 H 0.97305 0.77014 0.8698 0.0
H106 H 0.04563 0.79078 0.94207 0.0
H107 H 0.02553 0.77047 0.87276 0.0
H108 H 0.03742 0.75559 0.96473 0.0
H109 H 0.99972 0.86268 0.36813 0.0
H110 H 1.00216 0.78568 0.50348 0.0
H111 H 1.00032 0.75726 0.38408 0.0
H112 H 0.04567 0.84242 0.24259 0.0
H113 H 0.02337 0.87469 0.23471 0.0
H114 H 0.03293 0.85341 0.1511 0.0
H115 H 0.9501 0.84602 0.26226 0.0
H116 H 0.9561 0.85111 0.16308 0.0
H117 H 0.97052 0.87621 0.23165 0.0
H118 H 0.99506 0.89902 0.98224 0.0
C119 C 0.99284 0.85978 0.04344 0.0
C120 C 0.83246 0.9267 0.11416 0.0
C121 C 0.84542 0.92479 0.03943 0.0
C122 C 0.82872 0.9139 0.9782 0.0
C123 C 0.78555 0.91037 0.06194 0.0
C124 C 0.80229 0.91904 0.12428 0.0
C125 C 0.7834 0.92049 0.19765 0.0
H126 H 0.64073 0.91931 0.34925 0.0
C127 C 0.75442 0.90701 0.08739 0.0
C128 C 0.75263 0.91229 0.16763 0.0
H129 H 0.721 0.93819 0.4751 0.0
H130 H 0.75155 0.92621 0.361 0.0
H131 H 0.65388 0.95183 0.2125 0.0
H132 H 0.66716 0.864 0.26367 0.0
H133 H 0.65816 0.86434 0.16478 0.0
H134 H 0.63175 0.87951 0.23404 0.0
H135 H 0.62497 0.92695 0.19727 0.0
H136 H 0.65059 0.93656 0.12147 0.0
C137 C 0.78327 0.95118 0.22862 0.0
C138 C 0.79607 0.89832 0.25577 0.0
C139 C 0.67222 0.91058 0.88704 0.0
C140 C 0.64117 0.91358 0.89784 0.0
C141 C 0.62809 0.90395 0.96649 0.0
C142 C 0.64611 0.89558 0.0289 0.0
C143 C 0.67731 0.89771 0.0224 0.0
C144 C 0.69008 0.90267 0.95093 0.0
C145 C 0.7237 0.90352 0.95601 0.0
C146 C 0.72823 0.90224 0.0436 0.0
C147 C 0.70087 0.8995 0.08166 0.0
C148 C 0.73368 0.93207 0.92057 0.0
C149 C 0.73697 0.87662 0.91503 0.0
C150 C 0.66493 0.92064 0.35267 0.0
C151 C 0.67848 0.92984 0.42044 0.0
C152 C 0.71006 0.93132 0.42273 0.0
C153 C 0.72767 0.92467 0.35636 0.0
C154 C 0.71342 0.91689 0.28697 0.0
C155 C 0.68255 0.91441 0.28748 0.0
C156 C 0.67032 0.90665 0.21033 0.0
C157 C 0.69865 0.90464 0.16232 0.0
C158 C 0.7242 0.91093 0.20621 0.0
C159 C 0.64868 0.93145 0.18366 0.0
C160 C 0.65583 0.87724 0.21815 0.0
H161 H 0.78738 0.89903 0.93956 0.0
H162 H 0.84507 0.93485 0.16236 0.0
H163 H 0.79907 0.87723 0.22738 0.0
H164 H 0.78091 0.89529 0.30542 0.0
H165 H 0.81824 0.90465 0.278 0.0
H166 H 0.77853 0.9666 0.18093 0.0
H167 H 0.8054 0.95599 0.2541 0.0
H168 H 0.76588 0.95528 0.27282 0.0
H169 H 0.68245 0.91783 0.83392 0.0
H170 H 0.60403 0.90595 0.975 0.0
H171 H 0.63489 0.89076 0.08193 0.0
H172 H 0.71887 0.94996 0.94115 0.0
H173 H 0.73252 0.93157 0.85633 0.0
H174 H 0.75657 0.93778 0.93659 0.0
H175 H 0.71999 0.86006 0.90707 0.0
H176 H 0.75502 0.86596 0.94967 0.0
H177 H 0.74583 0.88177 0.85669 0.0
H178 H 0.83834 0.9121 0.92065 0.0
C179 C 0.79906 0.9064 0.98924 0.0
C180 C 0.49719 0.71392 0.41424 0.0
C181 C 0.49487 0.6845 0.43085 0.0
C182 C 0.48836 0.66574 0.37101 0.0
C183 C 0.4892 0.70402 0.27788 0.0
C184 C 0.49394 0.72333 0.33627 0.0
C185 C 0.49553 0.75338 0.30312 0.0
H186 H 0.49852 0.83406 0.96742 0.0
C187 C 0.48945 0.71891 0.20308 0.0
C188 C 0.49273 0.74813 0.2157 0.0
H189 H 0.50354 0.8669 0.19958 0.0
H190 H 0.49896 0.81869 0.25234 0.0
H191 H 0.54245 0.78615 0.98999 0.0
H192 H 0.44629 0.78897 0.99965 0.0
H193 H 0.45728 0.75878 0.94547 0.0
H194 H 0.4677 0.79342 0.91255 0.0
H195 H 0.52024 0.78357 0.90406 0.0
H196 H 0.53225 0.75248 0.95871 0.0
C197 C 0.52602 0.76565 0.32425 0.0
C198 C 0.4687 0.7713 0.3344 0.0
C199 C 0.49146 0.65818 0.96399 0.0
C200 C 0.49391 0.6641 0.88524 0.0
C201 C 0.49512 0.69224 0.85904 0.0
C202 C 0.49389 0.71459 0.91279 0.0
C203 C 0.49169 0.70828 0.9926 0.0
C204 C 0.49042 0.68041 0.0163 0.0
C205 C 0.4882 0.67709 0.10201 0.0
C206 C 0.48915 0.70777 0.12723 0.0
C207 C 0.491 0.72583 0.06341 0.0
C208 C 0.51625 0.65925 0.12915 0.0
C209 C 0.45742 0.66393 0.12035 0.0
C210 C 0.49855 0.83097 0.02973 0.0
C211 C 0.5015 0.85392 0.07937 0.0
C212 C 0.50148 0.8492 0.16023 0.0
C213 C 0.4988 0.82136 0.19058 0.0
C214 C 0.49631 0.79829 0.13925 0.0
C215 C 0.49614 0.80374 0.06023 0.0
C216 C 0.49444 0.77765 0.01229 0.0
C217 C 0.493 0.75532 0.07454 0.0
C218 C 0.49395 0.76691 0.14989 0.0
C219 C 0.52364 0.77471 0.96321 0.0
C220 C 0.46504 0.77969 0.96435 0.0
H221 H 0.48114 0.65936 0.25316 0.0
H222 H 0.50169 0.72888 0.45995 0.0
H223 H 0.44744 0.76003 0.32551 0.0
H224 H 0.46609 0.79197 0.30461 0.0
H225 H 0.47128 0.77521 0.39746 0.0
H226 H 0.54458 0.75042 0.30841 0.0
H227 H 0.52735 0.76978 0.38747 0.0
H228 H 0.53012 0.78565 0.29322 0.0
H229 H 0.49021 0.63648 0.98484 0.0
H230 H 0.49663 0.69688 0.79769 0.0
H231 H 0.49462 0.73579 0.89011 0.0
H232 H 0.53611 0.66354 0.09233 0.0
H233 H 0.51226 0.63613 0.12578 0.0
H234 H 0.52367 0.66439 0.18828 0.0
H235 H 0.44078 0.66814 0.07334 0.0
H236 H 0.44662 0.67332 0.1726 0.0
H237 H 0.45969 0.64052 0.12766 0.0
H238 H 0.48611 0.64325 0.38259 0.0
C239 C 0.4854 0.67526 0.29533 0.0
C240 C 0.33162 0.43045 0.34308 0.0
C241 C 0.3444 0.42875 0.41797 0.0
C242 C 0.32757 0.41814 0.47952 0.0
C243 C 0.28462 0.41425 0.39552 0.0
C244 C 0.30147 0.42277 0.33302 0.0
C245 C 0.28276 0.42402 0.25945 0.0
H246 H 0.14052 0.42241 0.10645 0.0
C247 C 0.25357 0.41075 0.36987 0.0
C248 C 0.25194 0.41591 0.28949 0.0
H249 H 0.22116 0.44065 0.98074 0.0
H250 H 0.25138 0.42922 0.09578 0.0
H251 H 0.16618 0.36757 0.19376 0.0
H252 H 0.1544 0.45565 0.24457 0.0
H253 H 0.14908 0.43977 0.33438 0.0
H254 H 0.12465 0.43129 0.25523 0.0
H255 H 0.13095 0.38323 0.22416 0.0
H256 H 0.15755 0.36799 0.29289 0.0
C257 C 0.29556 0.40168 0.20225 0.0
C258 C 0.2827 0.45463 0.22741 0.0
C259 C 0.17127 0.41315 0.57025 0.0
C260 C 0.14025 0.4163 0.55951 0.0
C261 C 0.12717 0.40704 0.49066 0.0
C262 C 0.1452 0.39901 0.42799 0.0
C263 C 0.1764 0.40108 0.43451 0.0
C264 C 0.18914 0.40567 0.5061 0.0
C265 C 0.22272 0.40683 0.50105 0.0
C266 C 0.22733 0.40588 0.41351 0.0
C267 C 0.20002 0.40316 0.37533 0.0
C268 C 0.23619 0.37987 0.5417 0.0
C269 C 0.23239 0.43537 0.53678 0.0
C270 C 0.16473 0.42371 0.1033 0.0
C271 C 0.17849 0.43256 0.03527 0.0
C272 C 0.21007 0.43404 0.0333 0.0
C273 C 0.22748 0.42769 0.10019 0.0
C274 C 0.21303 0.4202 0.16971 0.0
C275 C 0.18216 0.41774 0.16897 0.0
C276 C 0.16974 0.41023 0.24626 0.0
C277 C 0.19795 0.40827 0.29458 0.0
C278 C 0.22359 0.41446 0.25076 0.0
C279 C 0.15509 0.38087 0.23936 0.0
C280 C 0.1482 0.4352 0.27182 0.0
H281 H 0.28616 0.40348 0.51851 0.0
H282 H 0.34434 0.43842 0.29468 0.0
H283 H 0.27791 0.47018 0.27455 0.0
H284 H 0.26537 0.45863 0.18302 0.0
H285 H 0.30487 0.45935 0.20186 0.0
H286 H 0.2986 0.3807 0.23149 0.0
H287 H 0.31773 0.40799 0.1798 0.0
H288 H 0.28047 0.39841 0.15271 0.0
H289 H 0.18151 0.42019 0.62346 0.0
H290 H 0.10312 0.40918 0.48217 0.0
H291 H 0.13399 0.39455 0.37482 0.0
H292 H 0.2195 0.36292 0.54775 0.0
H293 H 0.24431 0.38476 0.60083 0.0
H294 H 0.25478 0.36979 0.50782 0.0
H295 H 0.21701 0.45312 0.51774 0.0
H296 H 0.25492 0.44173 0.51929 0.0
H297 H 0.23181 0.43447 0.60106 0.0
H298 H 0.33707 0.41656 0.53723 0.0
C299 C 0.29795 0.4106 0.46855 0.0
C300 C 0.00783 0.18515 0.5529 0.0
C301 C 0.00783 0.15559 0.54626 0.0
C302 C 0.0103 0.14258 0.47354 0.0
C303 C 0.01006 0.18859 0.41272 0.0
C304 C 0.00891 0.20128 0.48474 0.0
C305 C 0.00729 0.23305 0.47884 0.0
H306 H 0.01238 0.35305 0.26741 0.0
C307 C 0.00882 0.21107 0.35369 0.0
C308 C 0.00748 0.23714 0.39129 0.0
H309 H 0.006 0.34123 0.51547 0.0
H310 H 1.0028 0.29142 0.49895 0.0
H311 H 0.05711 0.29376 0.22618 0.0
H312 H 0.95947 0.29916 0.22557 0.0
H313 H 0.97621 0.28608 0.13851 0.0
H314 H 0.98078 0.32249 0.16556 0.0
H315 H 0.03732 0.31937 0.16587 0.0
H316 H 0.03986 0.28259 0.1388 0.0
C317 C 0.03598 0.24426 0.51767 0.0
C318 C 0.97717 0.24371 0.51575 0.0
C319 C 0.00716 0.17918 0.0777 0.0
C320 C 0.00708 0.19242 0.00575 0.0
C321 C 0.00704 0.22246 0.00235 0.0
C322 C 0.00715 0.23886 0.0715 0.0
C323 C 0.00734 0.22492 0.14403 0.0
C324 C 0.00738 0.19548 0.14483 0.0
C325 C 0.00832 0.18314 0.22394 0.0
C326 C 0.00836 0.20969 0.27218 0.0
C327 C 0.00768 0.23463 0.22674 0.0
C328 C 0.03818 0.16531 0.23195 0.0
C329 C 0.97918 0.16637 0.23591 0.0
C330 C 0.01048 0.33934 0.31748 0.0
C331 C 0.01006 0.3508 0.39333 0.0
C332 C 0.00683 0.33277 0.45707 0.0
C333 C 1.00498 0.30369 0.44724 0.0
C334 C 0.00648 0.2921 0.37262 0.0
C335 C 0.00842 0.30953 0.30843 0.0
C336 C 0.00818 0.29215 0.23399 0.0
C337 C 0.00728 0.2617 0.26533 0.0
C338 C 0.00656 0.26247 0.347 0.0
C339 C 0.03717 0.29723 0.18829 0.0
C340 C 0.97965 0.30039 0.18794 0.0
H341 H 0.01213 0.14751 0.35319 0.0
H342 H 1.00543 0.19541 0.60878 0.0
H343 H 0.95987 0.22722 0.51323 0.0
H344 H 0.96685 0.26209 0.48441 0.0
H345 H 0.98012 0.24941 0.5776 0.0
H346 H 0.05548 0.22926 0.50896 0.0
H347 H 0.03277 0.2469 0.58108 0.0
H348 H 0.04338 0.26447 0.49263 0.0
H349 H 0.00726 0.15618 0.08208 0.0
H350 H 0.00694 0.23315 0.94674 0.0
H351 H 0.00723 0.2616 0.06638 0.0
H352 H 0.05566 0.17261 0.19108 0.0
H353 H 0.03476 0.14249 0.21984 0.0
H354 H 0.04866 0.16738 0.2897 0.0
H355 H 0.95994 0.1766 0.20431 0.0
H356 H 0.97166 0.16579 0.29687 0.0
H357 H 0.98198 0.14425 0.21424 0.0
H358 H 0.01001 0.11964 0.46813 0.0
C359 C 0.01138 0.15889 0.4067 0.0
C360 C 0.3102 0.08942 0.05905 0.0
C361 C 0.34089 0.09248 0.04023 0.0
C362 C 0.35947 0.10638 0.09223 0.0
C363 C 0.31925 0.10946 0.18603 0.0
C364 C 0.2997 0.09856 0.1328 0.0
C365 C 0.26827 0.09722 0.16695 0.0
H366 H 0.18443 0.09622 0.50187 0.0
C367 C 0.3038 0.11239 0.26114 0.0
C368 C 0.2735 0.1059 0.25136 0.0
H369 H 0.15139 0.08373 0.2703 0.0
H370 H 0.20071 0.09404 0.21718 0.0
H371 H 0.23867 0.0614 0.48538 0.0
H372 H 0.2262 0.15152 0.4628 0.0
H373 H 0.25903 0.14515 0.51769 0.0
H374 H 0.22384 0.13214 0.55224 0.0
H375 H 0.24143 0.08421 0.56761 0.0
H376 H 0.27374 0.07423 0.50942 0.0
C377 C 0.25743 0.06658 0.16006 0.0
C378 C 0.24803 0.11929 0.12423 0.0
C379 C 0.36923 0.1092 0.49749 0.0
C380 C 0.36265 0.10169 0.57368 0.0
C381 C 0.3333 0.1054 0.60197 0.0
C382 C 0.3099 0.11297 0.55091 0.0
C383 C 0.31624 0.116 0.47129 0.0
C384 C 0.34569 0.11567 0.4467 0.0
C385 C 0.34849 0.11682 0.36023 0.0
C386 C 0.31584 0.11596 0.3363 0.0
C387 C 0.29713 0.1154 0.40129 0.0
C388 C 0.36688 0.08984 0.33397 0.0
C389 C 0.36247 0.14553 0.33831 0.0
C390 C 0.18764 0.09616 0.43959 0.0
C391 C 0.16425 0.08923 0.39015 0.0
C392 C 0.1693 0.08904 0.30944 0.0
C393 C 0.19791 0.09482 0.27884 0.0
C394 C 0.22163 0.10054 0.32968 0.0
C395 C 0.21583 0.10172 0.40855 0.0
C396 C 0.24318 0.10713 0.45536 0.0
C397 C 0.2663 0.11019 0.39212 0.0
C398 C 0.25411 0.10582 0.31783 0.0
C399 C 0.24968 0.08062 0.50759 0.0
C400 C 0.23792 0.13535 0.50005 0.0
H401 H 0.36447 0.1247 0.20215 0.0
H402 H 0.29524 0.07941 0.01884 0.0
H403 H 0.2592 0.14004 0.12047 0.0
H404 H 0.22658 0.12356 0.15441 0.0
H405 H 0.2433 0.11215 0.06431 0.0
H406 H 0.27475 0.05125 0.183 0.0
H407 H 0.25309 0.06115 0.09858 0.0
H408 H 0.23677 0.06315 0.19327 0.0
H409 H 0.39188 0.10636 0.4753 0.0
H410 H 0.32803 0.09968 0.66115 0.0
H411 H 0.28762 0.11386 0.57433 0.0
H412 H 0.36093 0.07107 0.36948 0.0
H413 H 0.39133 0.09285 0.34044 0.0
H414 H 0.36266 0.08323 0.27411 0.0
H415 H 0.36 0.16145 0.38562 0.0
H416 H 0.35107 0.15577 0.28792 0.0
H417 H 0.3868 0.14279 0.32571 0.0
H418 H 0.38287 0.10939 0.07839 0.0
C419 C 0.34873 0.11524 0.16426 0.0
C420 C 0.51048 0.30371 0.03311 0.0
C421 C 0.5117 0.33322 0.01653 0.0
C422 C 0.51458 0.35247 0.0773 0.0
C423 C 0.51387 0.31423 0.17053 0.0
C424 C 0.51175 0.29459 0.11169 0.0
C425 C 0.5107 0.26451 0.14487 0.0
H426 H 0.50833 0.18364 0.48025 0.0
C427 C 0.51357 0.2993 0.24528 0.0
C428 C 0.51187 0.26993 0.23249 0.0
H429 H 0.50453 0.15087 0.24781 0.0
H430 H 0.50799 0.19924 0.19543 0.0
H431 H 0.55961 0.22876 0.44739 0.0
H432 H 0.46332 0.23241 0.45705 0.0
H433 H 0.47455 0.26478 0.49536 0.0
H434 H 0.48585 0.232 0.54304 0.0
H435 H 0.53874 0.22559 0.53577 0.0
H436 H 0.54922 0.2597 0.49871 0.0
C437 C 0.53853 0.2473 0.11662 0.0
C438 C 0.481 0.25137 0.1205 0.0
C439 C 0.51526 0.3598 0.48463 0.0
C440 C 0.51577 0.35374 0.56358 0.0
C441 C 0.51445 0.3256 0.58983 0.0
C442 C 0.51318 0.30335 0.53593 0.0
C443 C 0.51329 0.30974 0.45593 0.0
C444 C 0.51417 0.33765 0.43222 0.0
C445 C 0.51485 0.34104 0.34639 0.0
C446 C 0.51389 0.31039 0.32117 0.0
C447 C 0.51304 0.29224 0.38499 0.0
C448 C 0.5451 0.35463 0.32455 0.0
C449 C 0.48607 0.35845 0.32246 0.0
C450 C 0.5082 0.1868 0.41797 0.0
C451 C 0.50595 0.16382 0.36811 0.0
C452 C 0.50599 0.1686 0.2873 0.0
C453 C 0.50799 0.19655 0.25718 0.0
C454 C 0.50978 0.21964 0.3087 0.0
C455 C 0.50996 0.21412 0.38769 0.0
C456 C 0.5114 0.24022 0.43578 0.0
C457 C 0.51196 0.26267 0.3737 0.0
C458 C 0.51126 0.25109 0.29826 0.0
C459 C 0.54112 0.23861 0.48251 0.0
C460 C 0.48249 0.24258 0.48599 0.0
H461 H 0.51756 0.35952 0.19594 0.0
H462 H 0.50849 0.28842 0.98683 0.0
H463 H 0.46176 0.2662 0.13366 0.0
H464 H 0.47684 0.23141 0.15163 0.0
H465 H 0.48093 0.24696 0.05731 0.0
H466 H 0.55925 0.25914 0.12799 0.0
H467 H 0.53716 0.24334 0.05332 0.0
H468 H 0.54121 0.22666 0.14659 0.0
H469 H 0.51652 0.38147 0.46362 0.0
H470 H 0.51509 0.32084 0.65124 0.0
H471 H 0.51259 0.28213 0.5586 0.0
H472 H 0.56277 0.34992 0.36867 0.0
H473 H 0.54253 0.3781 0.31968 0.0
H474 H 0.55482 0.346 0.27011 0.0
H475 H 0.46718 0.35467 0.36299 0.0
H476 H 0.47726 0.35235 0.26526 0.0
H477 H 0.49002 0.38161 0.32257 0.0
H478 H 0.51575 0.37509 0.06587 0.0
C479 C 0.51568 0.34325 0.15347 0.0
O480 O 0.07885 0.98013 0.80998 0.0
Mg481 Mg 0.06874 0.98265 0.68937 0.0
O482 O 0.03611 1.00026 0.83236 0.0
Mg483 Mg 0.00605 0.0089 0.727 0.0
O484 O 0.04862 0.02096 0.6487 0.0
O485 O 0.09558 0.00487 0.62043 0.0
O486 O 0.97608 0.01743 0.6213 0.0
O487 O 0.007 0.05696 0.77517 0.0
Mg488 Mg 0.94304 0.03481 0.76479 0.0
O489 O 0.96365 0.99684 0.8058 0.0
O490 O 0.93285 0.03648 0.64427 0.0
O491 O 0.96171 0.07112 0.81508 0.0
O492 O 0.91662 0.01255 0.83468 0.0
C493 C 0.02227 0.94244 0.64511 0.0
C494 C 0.05323 0.97859 0.84027 0.0
C495 C 0.07408 0.02353 0.61145 0.0
C496 C 0.95834 0.03866 0.61369 0.0
C497 C 0.98942 0.07545 0.8079 0.0
C498 C 0.93832 0.9941 0.84354 0.0
O499 O 0.04999 0.94662 0.63773 0.0
O500 O 1.00488 0.96095 0.67841 0.0
O501 O 0.42353 0.00311 0.78306 0.0
Mg502 Mg 0.44465 0.96859 0.72355 0.0
O503 O 0.46088 0.03355 0.77247 0.0
Mg504 Mg 0.50541 0.00901 0.72357 0.0
O505 O 0.48725 0.96729 0.77281 0.0
O506 O 0.45571 0.93239 0.7888 0.0
O507 O 0.54997 0.98438 0.6753 0.0
O508 O 0.52382 0.01861 0.84365 0.0
Mg509 Mg 0.5663 0.04976 0.72203 0.0
O510 O 0.52362 0.05058 0.67377 0.0
O511 O 0.58737 0.01474 0.66426 0.0
O512 O 0.56292 0.04423 0.84454 0.0
O513 O 0.5548 0.08556 0.65537 0.0
C514 C 0.45952 0.99834 0.58739 0.0
C515 C 0.43415 0.02746 0.79417 0.0
C516 C 0.48039 0.944 0.80776 0.0
C517 C 0.57675 0.99035 0.65382 0.0
C518 C 0.55129 0.02066 0.8594 0.0
C519 C 0.53006 0.07379 0.63793 0.0
O520 O 0.44729 0.97495 0.6009 0.0
O521 O 0.48704 0.99949 0.60356 0.0
O522 O 0.55383 0.44594 0.79979 0.0
Mg523 Mg 0.57227 0.48292 0.75089 0.0
O524 O 0.50752 0.46031 0.76846 0.0
Mg525 Mg 0.50686 0.50888 0.72558 0.0
O526 O 0.55104 0.51953 0.79692 0.0
O527 O 0.5989 0.50564 0.82024 0.0
O528 O 0.50611 0.55749 0.68163 0.0
O529 O 0.48058 0.51545 0.83828 0.0
Mg530 Mg 0.44191 0.53503 0.70439 0.0
O531 O 0.46243 0.49846 0.6552 0.0
O532 O 0.4595 0.57194 0.65361 0.0
O533 O 0.43669 0.53449 0.82739 0.0
O534 O 0.41431 0.51277 0.63688 0.0
C535 C 0.55189 0.48138 0.6014 0.0
C536 C 0.526 0.44154 0.79657 0.0
C537 C 0.57657 0.5231 0.83248 0.0
C538 C 0.48737 0.57624 0.65441 0.0
C539 C 0.46315 0.53644 0.85199 0.0
C540 C 0.43645 0.49546 0.62137 0.0
O541 O 0.57784 0.48448 0.62838 0.0
O542 O 0.53321 0.50167 0.61278 0.0
O543 O 0.94685 0.47115 0.84306 0.0
Mg544 Mg 0.94661 0.4666 0.71945 0.0
O545 O 0.9863 0.49597 0.84502 0.0
Mg546 Mg 1.00527 0.50904 0.72819 0.0
O547 O 0.98978 0.46745 0.67301 0.0
O548 O 0.9597 0.43169 0.65225 0.0
O549 O 0.02429 0.5223 0.61153 0.0
O550 O 0.05028 0.4854 0.77725 0.0
Mg551 Mg 0.06404 0.55178 0.739 0.0
O552 O 0.02073 0.55047 0.78376 0.0
O553 O 0.06335 0.54782 0.61551 0.0
O554 O 0.08602 0.51699 0.7956 0.0
O555 O 0.05034 0.58628 0.80733 0.0
C556 C 0.93426 0.52584 0.65357 0.0
C557 C 0.95867 0.49446 0.85937 0.0
C558 C 0.9841 0.44434 0.63598 0.0
C559 C 0.05189 0.52449 0.59765 0.0
C560 C 0.0764 0.49201 0.80203 0.0
C561 C 0.02585 0.5735 0.82162 0.0
O562 O 0.92456 0.50093 0.66121 0.0
O563 O 0.96035 0.53256 0.67831 0.0
C564 C 0.11488 0.07303 0.46208 0.0
C565 C 0.13634 0.08017 0.42426 0.0
C566 C 0.09342 0.06106 0.51284 0.0
C567 C 0.07997 0.0466 0.55873 0.0
C568 C 0.5033 0.11667 0.44992 0.0
C569 C 0.5041 0.136 0.40353 0.0
C570 C 0.50609 0.09788 0.5143 0.0
C571 C 0.5137 0.0844 0.57124 0.0
C572 C 0.39591 0.44787 0.46811 0.0
C573 C 0.37344 0.43988 0.43652 0.0
C574 C 0.41771 0.4599 0.51728 0.0
C575 C 0.43093 0.47378 0.56459 0.0
C576 C 0.01298 0.4017 0.45122 0.0
C577 C 0.01239 0.38062 0.41129 0.0
C578 C 0.00954 0.4213 0.51327 0.0
C579 C 1.00127 0.4345 0.56991 0.0
C580 C 0.89711 0.94408 0.98974 0.0
C581 C 0.87447 0.936 0.02068 0.0
C582 C 0.91926 0.95648 0.94197 0.0
C583 C 0.93275 0.97099 0.89633 0.0
C584 C 0.50551 0.90081 0.99695 0.0
C585 C 0.50416 0.88161 0.04362 0.0
C586 C 0.5033 0.91956 0.93231 0.0
C587 C 0.49616 0.93314 0.87515 0.0
C588 C 0.6152 0.57189 0.98632 0.0
C589 C 0.63655 0.57896 0.02439 0.0
C590 C 0.59421 0.55992 0.93463 0.0
C591 C 0.58143 0.54554 0.88757 0.0
C592 C 0.99466 0.61643 0.00295 0.0
C593 C 0.99466 0.63778 0.04187 0.0
C594 C 0.99884 0.59653 0.94196 0.0
C595 C 0.0078 0.58326 0.88615 0.0
C596 C 0.99331 0.11553 0.63592 0.0
C597 C 1.00057 0.13775 0.60962 0.0
C598 C 0.98197 0.08824 0.6351 0.0
C599 C 0.97147 0.06544 0.62516 0.0
C600 C 0.4044 0.06647 0.62368 0.0
C601 C 0.38361 0.0827 0.61159 0.0
C602 C 0.42571 0.04397 0.61672 0.0
C603 C 0.44165 0.02345 0.60338 0.0
C604 C 0.5247 0.40146 0.62888 0.0
C605 C 0.52013 0.37718 0.61381 0.0
C606 C 0.53247 0.42994 0.62265 0.0
C607 C 0.54059 0.45372 0.61268 0.0
C608 C 0.1054 0.45475 0.62383 0.0
C609 C 0.12375 0.43715 0.60351 0.0
C610 C 0.08563 0.47852 0.62259 0.0
C611 C 0.07011 0.49945 0.61119 0.0
C612 C 0.01588 0.90275 0.8171 0.0
C613 C 0.00737 0.88077 0.84229 0.0
C614 C 0.02828 0.92961 0.81866 0.0
C615 C 0.03943 0.95212 0.82867 0.0
C616 C 0.60578 0.9516 0.83292 0.0
C617 C 0.6244 0.93427 0.85359 0.0
C618 C 0.58554 0.97506 0.83375 0.0
C619 C 0.56973 0.99577 0.84546 0.0
C620 C 0.49108 0.61567 0.82046 0.0
C621 C 0.4934 0.64034 0.83461 0.0
C622 C 0.48423 0.58704 0.82855 0.0
C623 C 0.47569 0.56349 0.83953 0.0
C624 C 0.90421 0.56294 0.82068 0.0
C625 C 0.88359 0.57948 0.83125 0.0
C626 C 0.92511 0.54021 0.82961 0.0
C627 C 0.94082 0.51956 0.84322 0.0
C628 C 0.00655 0.1531 0.89684 0.0
C629 C 0.00687 0.17386 0.93854 0.0
C630 C 1.00452 0.12612 0.85984 0.0
C631 C 1.00012 0.10257 0.8343 0.0
C632 C 0.37244 0.07158 0.92204 0.0
C633 C 0.35518 0.08001 0.97208 0.0
C634 C 0.39555 0.06027 0.87262 0.0
C635 C 0.41515 0.04764 0.83635 0.0
C636 C 0.50993 0.36454 0.89121 0.0
C637 C 0.51015 0.34583 0.93981 0.0
C638 C 0.51172 0.3908 0.85029 0.0
C639 C 0.51587 0.41436 0.82433 0.0
C640 C 0.14009 0.44857 0.92432 0.0
C641 C 0.15937 0.44171 0.97107 0.0
C642 C 0.11595 0.4591 0.87699 0.0
C643 C 0.09591 0.47154 0.8418 0.0
C644 C 1.00352 0.86549 0.55381 0.0
C645 C 1.00245 0.8449 0.51164 0.0
C646 C 0.00632 0.89222 0.59164 0.0
C647 C 0.01123 0.91556 0.61785 0.0
C648 C 0.63982 0.94651 0.5302 0.0
C649 C 0.65916 0.93936 0.48389 0.0
C650 C 0.61573 0.95732 0.57733 0.0
C651 C 0.59586 0.96993 0.61272 0.0
C652 C 0.50108 0.65285 0.55517 0.0
C653 C 0.49931 0.6715 0.50649 0.0
C654 C 0.50062 0.62674 0.59729 0.0
C655 C 0.49719 0.60327 0.62474 0.0
C656 C 0.87224 0.56966 0.52612 0.0
C657 C 0.85522 0.57773 0.47518 0.0
C658 C 0.89525 0.55857 0.57614 0.0
C659 C 0.91494 0.54605 0.61238 0.0
loop_
_geom_bond_atom_site_label_1
_geom_bond_atom_site_label_2
_geom_bond_distance
_geom_bond_site_symmetry_2
_ccdc_geom_bond_type
C0 C1 1.391 . S
C0 C4 1.391 . S
C0 H42 0.948 . S
C1 C0 1.391 . S
C1 C2 1.391 . S
C2 C1 1.391 . S
C2 H58 0.947 . S
C2 C59 1.392 . S
C3 C4 1.391 . S
C3 C7 1.397 . S
C3 C59 1.419 . S
C4 C0 1.391 . S
C4 C3 1.391 . S
C4 C5 1.399 . S
C5 C4 1.399 . S
C5 C8 1.396 . S
C5 C17 1.453 . S
C5 C18 1.684 . S
H6 C30 0.948 . S
C7 C3 1.397 . S
C7 C8 1.394 . S
C7 C26 1.723 . S
C8 C5 1.396 . S
C8 C7 1.394 . S
C8 C38 1.723 . S
H9 C32 0.947 . S
H10 C33 0.948 . S
H11 C39 0.982 . S
H12 C40 0.979 . S
H13 C40 0.980 . S
H14 C40 0.983 . S
H15 C39 0.979 . S
H16 C39 0.977 . S
C17 C5 1.453 . S
C17 H46 0.982 . S
C17 H47 0.979 . S
C17 H48 0.977 . S
C18 C5 1.684 . S
C18 H43 0.979 . S
C18 H44 0.980 . S
C18 H45 0.983 . S
C19 C20 1.391 . S
C19 C24 1.391 . S
C19 H49 0.948 . S
C20 C19 1.391 . S
C20 C21 1.391 . S
C21 C20 1.391 . S
C21 C22 1.392 . S
C21 H50 0.947 . S
C22 C21 1.392 . S
C22 C23 1.419 . S
C22 H51 0.948 . S
C23 C22 1.419 . S
C23 C24 1.391 . S
C23 C27 1.397 1_556 S
C24 C19 1.391 . S
C24 C23 1.391 . S
C24 C25 1.399 1_556 S
C25 C24 1.399 1_554 S
C25 C26 1.396 . S
C25 C28 1.453 . S
C25 C29 1.684 . S
C26 C7 1.723 . S
C26 C25 1.396 . S
C26 C27 1.394 . S
C27 C23 1.397 1_554 S
C27 C26 1.394 . S
C27 C37 1.723 . S
C28 C25 1.453 . S
C28 H52 0.982 . S
C28 H53 0.979 . S
C28 H54 0.977 . S
C29 C25 1.684 . S
C29 H55 0.979 . S
C29 H56 0.980 . S
C29 H57 0.983 . S
C30 H6 0.948 . S
C30 C31 1.391 1_556 S
C30 C35 1.391 1_556 S
C31 C30 1.391 1_554 S
C31 C32 1.391 . S
C32 H9 0.947 . S
C32 C31 1.391 . S
C32 C33 1.392 . S
C33 H10 0.948 . S
C33 C32 1.392 . S
C33 C34 1.419 . S
C34 C33 1.419 . S
C34 C35 1.391 . S
C34 C38 1.397 . S
C35 C30 1.391 1_554 S
C35 C34 1.391 . S
C35 C36 1.399 1_554 S
C36 C35 1.399 1_556 S
C36 C37 1.396 1_556 S
C36 C39 1.453 . S
C36 C40 1.684 . S
C37 C27 1.723 . S
C37 C36 1.396 1_554 S
C37 C38 1.394 . S
C38 C8 1.723 . S
C38 C34 1.397 . S
C38 C37 1.394 . S
C39 H11 0.982 . S
C39 H15 0.979 . S
C39 H16 0.977 . S
C39 C36 1.453 . S
C40 H12 0.979 . S
C40 H13 0.980 . S
C40 H14 0.983 . S
C40 C36 1.684 . S
H41 C59 0.948 . S
H42 C0 0.948 . S
H43 C18 0.979 . S
H44 C18 0.980 . S
H45 C18 0.983 . S
H46 C17 0.982 . S
H47 C17 0.979 . S
H48 C17 0.977 . S
H49 C19 0.948 . S
H50 C21 0.947 . S
H51 C22 0.948 . S
H52 C28 0.982 . S
H53 C28 0.979 . S
H54 C28 0.977 . S
H55 C29 0.979 . S
H56 C29 0.980 . S
H57 C29 0.983 . S
H58 C2 0.947 . S
C59 C2 1.392 . S
C59 C3 1.419 . S
C59 H41 0.948 . S
C60 C61 1.391 . S
C60 C64 1.391 . S
C60 H102 0.948 . S
C61 C60 1.391 . S
C61 C62 1.391 . S
C62 C61 1.391 . S
C62 H118 0.947 . S
C62 C119 1.392 1_556 S
C63 C64 1.391 1_554 S
C63 C67 1.397 1_655 S
C63 C119 1.419 . S
C64 C60 1.391 . S
C64 C63 1.391 1_556 S
C64 C65 1.399 . S
C65 C64 1.399 . S
C65 C68 1.396 1_656 S
C65 C77 1.453 1_655 S
C65 C78 1.684 . S
H66 C90 0.948 . S
C67 C63 1.397 1_455 S
C67 C68 1.394 . S
C67 C86 1.723 . S
C68 C65 1.396 1_454 S
C68 C67 1.394 . S
C68 C98 1.723 . S
H69 C92 0.947 . S
H70 C93 0.948 . S
H71 C99 0.982 . S
H72 C100 0.979 . S
H73 C100 0.980 . S
H74 C100 0.983 . S
H75 C99 0.979 . S
H76 C99 0.977 . S
C77 C65 1.453 1_455 S
C77 H106 0.982 . S
C77 H107 0.979 . S
C77 H108 0.977 . S
C78 C65 1.684 . S
C78 H103 0.979 . S
C78 H104 0.980 . S
C78 H105 0.983 . S
C79 C80 1.391 . S
C79 C84 1.391 . S
C79 H109 0.948 . S
C80 C79 1.391 . S
C80 C81 1.391 . S
C81 C80 1.391 . S
C81 C82 1.392 . S
C81 H110 0.947 . S
C82 C81 1.392 . S
C82 C83 1.419 . S
C82 H111 0.948 . S
C83 C82 1.419 . S
C83 C84 1.391 . S
C83 C87 1.397 1_655 S
C84 C79 1.391 . S
C84 C83 1.391 . S
C84 C85 1.399 . S
C85 C84 1.399 . S
C85 C86 1.396 1_655 S
C85 C88 1.453 1_655 S
C85 C89 1.684 . S
C86 C67 1.723 . S
C86 C85 1.396 1_455 S
C86 C87 1.394 . S
C87 C83 1.397 1_455 S
C87 C86 1.394 . S
C87 C97 1.723 . S
C88 C85 1.453 1_455 S
C88 H112 0.982 . S
C88 H113 0.979 . S
C88 H114 0.977 . S
C89 C85 1.684 . S
C89 H115 0.979 . S
C89 H116 0.980 . S
C89 H117 0.983 . S
C90 H66 0.948 . S
C90 C91 1.391 . S
C90 C95 1.391 . S
C91 C90 1.391 . S
C91 C92 1.391 1_554 S
C92 H69 0.947 . S
C92 C91 1.391 1_556 S
C92 C93 1.392 . S
C93 H70 0.948 . S
C93 C92 1.392 . S
C93 C94 1.419 1_556 S
C94 C93 1.419 1_554 S
C94 C95 1.391 . S
C94 C98 1.397 1_655 S
C95 C90 1.391 . S
C95 C94 1.391 . S
C95 C96 1.399 . S
C96 C95 1.399 . S
C96 C97 1.396 1_655 S
C96 C99 1.453 1_655 S
C96 C100 1.684 . S
C97 C87 1.723 . S
C97 C96 1.396 1_455 S
C97 C98 1.394 . S
C98 C68 1.723 . S
C98 C94 1.397 1_455 S
C98 C97 1.394 . S
C99 H71 0.982 . S
C99 H75 0.979 . S
C99 H76 0.977 . S
C99 C96 1.453 1_455 S
C100 H72 0.979 . S
C100 H73 0.980 . S
C100 H74 0.983 . S
C100 C96 1.684 . S
H101 C119 0.948 . S
H102 C60 0.948 . S
H103 C78 0.979 . S
H104 C78 0.980 . S
H105 C78 0.983 . S
H106 C77 0.982 . S
H107 C77 0.979 . S
H108 C77 0.977 . S
H109 C79 0.948 . S
H110 C81 0.947 . S
H111 C82 0.948 . S
H112 C88 0.982 . S
H113 C88 0.979 . S
H114 C88 0.977 . S
H115 C89 0.979 . S
H116 C89 0.980 . S
H117 C89 0.983 . S
H118 C62 0.947 . S
C119 C62 1.392 1_554 S
C119 C63 1.419 . S
C119 H101 0.948 . S
C120 C121 1.391 . S
C120 C124 1.391 . S
C120 H162 0.948 . S
C121 C120 1.391 . S
C121 C122 1.391 1_554 S
C122 C121 1.391 1_556 S
C122 H178 0.947 . S
C122 C179 1.392 . S
C123 C124 1.391 . S
C123 C127 1.397 . S
C123 C179 1.419 1_554 S
C124 C120 1.391 . S
C124 C123 1.391 . S
C124 C125 1.399 . S
C125 C124 1.399 . S
C125 C128 1.396 . S
C125 C137 1.453 . S
C125 C138 1.684 . S
H126 C150 0.948 . S
C127 C123 1.397 . S
C127 C128 1.394 . S
C127 C146 1.723 . S
C128 C125 1.396 . S
C128 C127 1.394 . S
C128 C158 1.723 . S
H129 C152 0.947 . S
H130 C153 0.948 . S
H131 C159 0.982 . S
H132 C160 0.979 . S
H133 C160 0.980 . S
H134 C160 0.983 . S
H135 C159 0.979 . S
H136 C159 0.977 . S
C137 C125 1.453 . S
C137 H166 0.982 . S
C137 H167 0.979 . S
C137 H168 0.977 . S
C138 C125 1.684 . S
C138 H163 0.979 . S
C138 H164 0.980 . S
C138 H165 0.983 . S
C139 C140 1.391 . S
C139 C144 1.391 . S
C139 H169 0.948 . S
C140 C139 1.391 . S
C140 C141 1.391 . S
C141 C140 1.391 . S
C141 C142 1.392 1_556 S
C141 H170 0.947 . S
C142 C141 1.392 1_554 S
C142 C143 1.419 . S
C142 H171 0.948 . S
C143 C142 1.419 . S
C143 C144 1.391 1_554 S
C143 C147 1.397 . S
C144 C139 1.391 . S
C144 C143 1.391 1_556 S
C144 C145 1.399 . S
C145 C144 1.399 . S
C145 C146 1.396 1_556 S
C145 C148 1.453 . S
C145 C149 1.684 . S
C146 C127 1.723 . S
C146 C145 1.396 1_554 S
C146 C147 1.394 . S
C147 C143 1.397 . S
C147 C146 1.394 . S
C147 C157 1.723 . S
C148 C145 1.453 . S
C148 H172 0.982 . S
C148 H173 0.979 . S
C148 H174 0.977 . S
C149 C145 1.684 . S
C149 H175 0.979 . S
C149 H176 0.980 . S
C149 H177 0.983 . S
C150 H126 0.948 . S
C150 C151 1.391 . S
C150 C155 1.391 . S
C151 C150 1.391 . S
C151 C152 1.391 . S
C152 H129 0.947 . S
C152 C151 1.391 . S
C152 C153 1.392 . S
C153 H130 0.948 . S
C153 C152 1.392 . S
C153 C154 1.419 . S
C154 C153 1.419 . S
C154 C155 1.391 . S
C154 C158 1.397 . S
C155 C150 1.391 . S
C155 C154 1.391 . S
C155 C156 1.399 . S
C156 C155 1.399 . S
C156 C157 1.396 . S
C156 C159 1.453 . S
C156 C160 1.684 . S
C157 C147 1.723 . S
C157 C156 1.396 . S
C157 C158 1.394 . S
C158 C128 1.723 . S
C158 C154 1.397 . S
C158 C157 1.394 . S
C159 H131 0.982 . S
C159 H135 0.979 . S
C159 H136 0.977 . S
C159 C156 1.453 . S
C160 H132 0.979 . S
C160 H133 0.980 . S
C160 H134 0.983 . S
C160 C156 1.684 . S
H161 C179 0.948 . S
H162 C120 0.948 . S
H163 C138 0.979 . S
H164 C138 0.980 . S
H165 C138 0.983 . S
H166 C137 0.982 . S
H167 C137 0.979 . S
H168 C137 0.977 . S
H169 C139 0.948 . S
H170 C141 0.947 . S
H171 C142 0.948 . S
H172 C148 0.982 . S
H173 C148 0.979 . S
H174 C148 0.977 . S
H175 C149 0.979 . S
H176 C149 0.980 . S
H177 C149 0.983 . S
H178 C122 0.947 . S
C179 C122 1.392 . S
C179 C123 1.419 1_556 S
C179 H161 0.948 . S
C180 C181 1.391 . S
C180 C184 1.391 . S
C180 H222 0.948 . S
C181 C180 1.391 . S
C181 C182 1.391 . S
C182 C181 1.391 . S
C182 H238 0.947 . S
C182 C239 1.392 . S
C183 C184 1.391 . S
C183 C187 1.397 . S
C183 C239 1.419 . S
C184 C180 1.391 . S
C184 C183 1.391 . S
C184 C185 1.399 . S
C185 C184 1.399 . S
C185 C188 1.396 . S
C185 C197 1.453 . S
C185 C198 1.684 . S
H186 C210 0.948 1_556 S
C187 C183 1.397 . S
C187 C188 1.394 . S
C187 C206 1.723 . S
C188 C185 1.396 . S
C188 C187 1.394 . S
C188 C218 1.723 . S
H189 C212 0.947 . S
H190 C213 0.948 . S
H191 C219 0.982 . S
H192 C220 0.979 . S
H193 C220 0.980 . S
H194 C220 0.983 . S
H195 C219 0.979 . S
H196 C219 0.977 . S
C197 C185 1.453 . S
C197 H226 0.982 . S
C197 H227 0.979 . S
C197 H228 0.977 . S
C198 C185 1.684 . S
C198 H223 0.979 . S
C198 H224 0.980 . S
C198 H225 0.983 . S
C199 C200 1.391 . S
C199 C204 1.391 1_556 S
C199 H229 0.948 . S
C200 C199 1.391 . S
C200 C201 1.391 . S
C201 C200 1.391 . S
C201 C202 1.392 . S
C201 H230 0.947 . S
C202 C201 1.392 . S
C202 C203 1.419 . S
C202 H231 0.948 . S
C203 C202 1.419 . S
C203 C204 1.391 1_556 S
C203 C207 1.397 1_556 S
C204 C199 1.391 1_554 S
C204 C203 1.391 1_554 S
C204 C205 1.399 . S
C205 C204 1.399 . S
C205 C206 1.396 . S
C205 C208 1.453 . S
C205 C209 1.684 . S
C206 C187 1.723 . S
C206 C205 1.396 . S
C206 C207 1.394 . S
C207 C203 1.397 1_554 S
C207 C206 1.394 . S
C207 C217 1.723 . S
C208 C205 1.453 . S
C208 H232 0.982 . S
C208 H233 0.979 . S
C208 H234 0.977 . S
C209 C205 1.684 . S
C209 H235 0.979 . S
C209 H236 0.980 . S
C209 H237 0.983 . S
C210 H186 0.948 1_554 S
C210 C211 1.391 . S
C210 C215 1.391 . S
C211 C210 1.391 . S
C211 C212 1.391 . S
C212 H189 0.947 . S
C212 C211 1.391 . S
C212 C213 1.392 . S
C213 H190 0.948 . S
C213 C212 1.392 . S
C213 C214 1.419 . S
C214 C213 1.419 . S
C214 C215 1.391 . S
C214 C218 1.397 . S
C215 C210 1.391 . S
C215 C214 1.391 . S
C215 C216 1.399 1_554 S
C216 C215 1.399 1_556 S
C216 C217 1.396 1_556 S
C216 C219 1.453 . S
C216 C220 1.684 . S
C217 C207 1.723 . S
C217 C216 1.396 1_554 S
C217 C218 1.394 . S
C218 C188 1.723 . S
C218 C214 1.397 . S
C218 C217 1.394 . S
C219 H191 0.982 . S
C219 H195 0.979 . S
C219 H196 0.977 . S
C219 C216 1.453 . S
C220 H192 0.979 . S
C220 H193 0.980 . S
C220 H194 0.983 . S
C220 C216 1.684 . S
H221 C239 0.948 . S
H222 C180 0.948 . S
H223 C198 0.979 . S
H224 C198 0.980 . S
H225 C198 0.983 . S
H226 C197 0.982 . S
H227 C197 0.979 . S
H228 C197 0.977 . S
H229 C199 0.948 . S
H230 C201 0.947 . S
H231 C202 0.948 . S
H232 C208 0.982 . S
H233 C208 0.979 . S
H234 C208 0.977 . S
H235 C209 0.979 . S
H236 C209 0.980 . S
H237 C209 0.983 . S
H238 C182 0.947 . S
C239 C182 1.392 . S
C239 C183 1.419 . S
C239 H221 0.948 . S
C240 C241 1.391 . S
C240 C244 1.391 . S
C240 H282 0.948 . S
C241 C240 1.391 . S
C241 C242 1.391 . S
C242 C241 1.391 . S
C242 H298 0.947 . S
C242 C299 1.392 . S
C243 C244 1.391 . S
C243 C247 1.397 . S
C243 C299 1.419 . S
C244 C240 1.391 . S
C244 C243 1.391 . S
C244 C245 1.399 . S
C245 C244 1.399 . S
C245 C248 1.396 . S
C245 C257 1.453 . S
C245 C258 1.684 . S
H246 C270 0.948 . S
C247 C243 1.397 . S
C247 C248 1.394 . S
C247 C266 1.723 . S
C248 C245 1.396 . S
C248 C247 1.394 . S
C248 C278 1.723 . S
H249 C272 0.947 1_556 S
H250 C273 0.948 . S
H251 C279 0.982 . S
H252 C280 0.979 . S
H253 C280 0.980 . S
H254 C280 0.983 . S
H255 C279 0.979 . S
H256 C279 0.977 . S
C257 C245 1.453 . S
C257 H286 0.982 . S
C257 H287 0.979 . S
C257 H288 0.977 . S
C258 C245 1.684 . S
C258 H283 0.979 . S
C258 H284 0.980 . S
C258 H285 0.983 . S
C259 C260 1.391 . S
C259 C264 1.391 . S
C259 H289 0.948 . S
C260 C259 1.391 . S
C260 C261 1.391 . S
C261 C260 1.391 . S
C261 C262 1.392 . S
C261 H290 0.947 . S
C262 C261 1.392 . S
C262 C263 1.419 . S
C262 H291 0.948 . S
C263 C262 1.419 . S
C263 C264 1.391 . S
C263 C267 1.397 . S
C264 C259 1.391 . S
C264 C263 1.391 . S
C264 C265 1.399 . S
C265 C264 1.399 . S
C265 C266 1.396 . S
C265 C268 1.453 . S
C265 C269 1.684 . S
C266 C247 1.723 . S
C266 C265 1.396 . S
C266 C267 1.394 . S
C267 C263 1.397 . S
C267 C266 1.394 . S
C267 C277 1.723 . S
C268 C265 1.453 . S
C268 H292 0.982 . S
C268 H293 0.979 . S
C268 H294 0.977 . S
C269 C265 1.684 . S
C269 H295 0.979 . S
C269 H296 0.980 . S
C269 H297 0.983 . S
C270 H246 0.948 . S
C270 C271 1.391 . S
C270 C275 1.391 . S
C271 C270 1.391 . S
C271 C272 1.391 . S
C272 H249 0.947 1_554 S
C272 C271 1.391 . S
C272 C273 1.392 . S
C273 H250 0.948 . S
C273 C272 1.392 . S
C273 C274 1.419 . S
C274 C273 1.419 . S
C274 C275 1.391 . S
C274 C278 1.397 . S
C275 C270 1.391 . S
C275 C274 1.391 . S
C275 C276 1.399 . S
C276 C275 1.399 . S
C276 C277 1.396 . S
C276 C279 1.453 . S
C276 C280 1.684 . S
C277 C267 1.723 . S
C277 C276 1.396 . S
C277 C278 1.394 . S
C278 C248 1.723 . S
C278 C274 1.397 . S
C278 C277 1.394 . S
C279 H251 0.982 . S
C279 H255 0.979 . S
C279 H256 0.977 . S
C279 C276 1.453 . S
C280 H252 0.979 . S
C280 H253 0.980 . S
C280 H254 0.983 . S
C280 C276 1.684 . S
H281 C299 0.948 . S
H282 C240 0.948 . S
H283 C258 0.979 . S
H284 C258 0.980 . S
H285 C258 0.983 . S
H286 C257 0.982 . S
H287 C257 0.979 . S
H288 C257 0.977 . S
H289 C259 0.948 . S
H290 C261 0.947 . S
H291 C262 0.948 . S
H292 C268 0.982 . S
H293 C268 0.979 . S
H294 C268 0.977 . S
H295 C269 0.979 . S
H296 C269 0.980 . S
H297 C269 0.983 . S
H298 C242 0.947 . S
C299 C242 1.392 . S
C299 C243 1.419 . S
C299 H281 0.948 . S
C300 C301 1.391 . S
C300 C304 1.391 . S
C300 H342 0.948 . S
C301 C300 1.391 . S
C301 C302 1.391 . S
C302 C301 1.391 . S
C302 H358 0.947 . S
C302 C359 1.392 . S
C303 C304 1.391 . S
C303 C307 1.396 1_655 S
C303 C359 1.419 . S
C304 C300 1.391 . S
C304 C303 1.391 . S
C304 C305 1.399 . S
C305 C304 1.399 . S
C305 C308 1.396 1_655 S
C305 C317 1.453 1_655 S
C305 C318 1.684 . S
H306 C330 0.948 . S
C307 C303 1.396 1_455 S
C307 C308 1.395 . S
C307 C326 1.723 . S
C308 C305 1.396 1_455 S
C308 C307 1.395 . S
C308 C338 1.723 . S
H309 C332 0.947 . S
H310 C333 0.948 . S
H311 C339 0.982 . S
H312 C340 0.979 . S
H313 C340 0.980 . S
H314 C340 0.983 . S
H315 C339 0.979 . S
H316 C339 0.977 . S
C317 C305 1.453 1_455 S
C317 H346 0.982 . S
C317 H347 0.979 . S
C317 H348 0.977 . S
C318 C305 1.684 . S
C318 H343 0.979 . S
C318 H344 0.980 . S
C318 H345 0.983 . S
C319 C320 1.391 . S
C319 C324 1.391 . S
C319 H349 0.948 . S
C320 C319 1.391 . S
C320 C321 1.391 . S
C321 C320 1.391 . S
C321 C322 1.392 . S
C321 H350 0.947 1_554 S
C322 C321 1.392 . S
C322 C323 1.419 . S
C322 H351 0.948 . S
C323 C322 1.419 . S
C323 C324 1.391 . S
C323 C327 1.396 1_655 S
C324 C319 1.391 . S
C324 C323 1.391 . S
C324 C325 1.399 . S
C325 C324 1.399 . S
C325 C326 1.396 1_655 S
C325 C328 1.453 1_655 S
C325 C329 1.684 . S
C326 C307 1.723 . S
C326 C325 1.396 1_455 S
C326 C327 1.394 . S
C327 C323 1.396 1_455 S
C327 C326 1.394 . S
C327 C337 1.723 . S
C328 C325 1.453 1_455 S
C328 H352 0.982 . S
C328 H353 0.979 . S
C328 H354 0.977 . S
C329 C325 1.684 . S
C329 H355 0.979 . S
C329 H356 0.980 . S
C329 H357 0.983 . S
C330 H306 0.948 . S
C330 C331 1.391 . S
C330 C335 1.391 . S
C331 C330 1.391 . S
C331 C332 1.391 . S
C332 H309 0.947 . S
C332 C331 1.391 . S
C332 C333 1.392 . S
C333 H310 0.948 . S
C333 C332 1.392 . S
C333 C334 1.419 . S
C334 C333 1.419 . S
C334 C335 1.391 . S
C334 C338 1.397 1_655 S
C335 C330 1.391 . S
C335 C334 1.391 . S
C335 C336 1.399 . S
C336 C335 1.399 . S
C336 C337 1.396 1_655 S
C336 C339 1.453 1_655 S
C336 C340 1.684 . S
C337 C327 1.723 . S
C337 C336 1.396 1_455 S
C337 C338 1.395 . S
C338 C308 1.723 . S
C338 C334 1.397 1_455 S
C338 C337 1.395 . S
C339 H311 0.982 . S
C339 H315 0.979 . S
C339 H316 0.977 . S
C339 C336 1.453 1_455 S
C340 H312 0.979 . S
C340 H313 0.980 . S
C340 H314 0.983 . S
C340 C336 1.684 . S
H341 C359 0.948 . S
H342 C300 0.948 . S
H343 C318 0.979 . S
H344 C318 0.980 . S
H345 C318 0.983 . S
H346 C317 0.982 . S
H347 C317 0.979 . S
H348 C317 0.977 . S
H349 C319 0.948 . S
H350 C321 0.947 1_556 S
H351 C322 0.948 . S
H352 C328 0.982 . S
H353 C328 0.979 . S
H354 C328 0.977 . S
H355 C329 0.979 . S
H356 C329 0.980 . S
H357 C329 0.983 . S
H358 C302 0.947 . S
C359 C302 1.392 . S
C359 C303 1.419 . S
C359 H341 0.948 . S
C360 C361 1.391 . S
C360 C364 1.391 . S
C360 H402 0.948 . S
C361 C360 1.391 . S
C361 C362 1.391 . S
C362 C361 1.391 . S
C362 H418 0.947 . S
C362 C419 1.392 . S
C363 C364 1.391 . S
C363 C367 1.397 . S
C363 C419 1.419 . S
C364 C360 1.391 . S
C364 C363 1.391 . S
C364 C365 1.399 . S
C365 C364 1.399 . S
C365 C368 1.396 . S
C365 C377 1.453 . S
C365 C378 1.684 . S
H366 C390 0.948 . S
C367 C363 1.397 . S
C367 C368 1.394 . S
C367 C386 1.723 . S
C368 C365 1.396 . S
C368 C367 1.394 . S
C368 C398 1.723 . S
H369 C392 0.947 . S
H370 C393 0.948 . S
H371 C399 0.982 . S
H372 C400 0.979 . S
H373 C400 0.980 . S
H374 C400 0.983 . S
H375 C399 0.979 . S
H376 C399 0.977 . S
C377 C365 1.453 . S
C377 H406 0.982 . S
C377 H407 0.979 . S
C377 H408 0.977 . S
C378 C365 1.684 . S
C378 H403 0.979 . S
C378 H404 0.980 . S
C378 H405 0.983 . S
C379 C380 1.391 . S
C379 C384 1.391 . S
C379 H409 0.948 . S
C380 C379 1.391 . S
C380 C381 1.391 . S
C381 C380 1.391 . S
C381 C382 1.392 . S
C381 H410 0.947 . S
C382 C381 1.392 . S
C382 C383 1.419 . S
C382 H411 0.948 . S
C383 C382 1.419 . S
C383 C384 1.391 . S
C383 C387 1.397 . S
C384 C379 1.391 . S
C384 C383 1.391 . S
C384 C385 1.399 . S
C385 C384 1.399 . S
C385 C386 1.396 . S
C385 C388 1.453 . S
C385 C389 1.684 . S
C386 C367 1.723 . S
C386 C385 1.396 . S
C386 C387 1.394 . S
C387 C383 1.397 . S
C387 C386 1.394 . S
C387 C397 1.723 . S
C388 C385 1.453 . S
C388 H412 0.982 . S
C388 H413 0.979 . S
C388 H414 0.977 . S
C389 C385 1.684 . S
C389 H415 0.979 . S
C389 H416 0.980 . S
C389 H417 0.983 . S
C390 H366 0.948 . S
C390 C391 1.391 . S
C390 C395 1.391 . S
C391 C390 1.391 . S
C391 C392 1.391 . S
C392 H369 0.947 . S
C392 C391 1.391 . S
C392 C393 1.392 . S
C393 H370 0.948 . S
C393 C392 1.392 . S
C393 C394 1.419 . S
C394 C393 1.419 . S
C394 C395 1.391 . S
C394 C398 1.397 . S
C395 C390 1.391 . S
C395 C394 1.391 . S
C395 C396 1.399 . S
C396 C395 1.399 . S
C396 C397 1.396 . S
C396 C399 1.453 . S
C396 C400 1.684 . S
C397 C387 1.723 . S
C397 C396 1.396 . S
C397 C398 1.394 . S
C398 C368 1.723 . S
C398 C394 1.397 . S
C398 C397 1.394 . S
C399 H371 0.982 . S
C399 H375 0.979 . S
C399 H376 0.977 . S
C399 C396 1.453 . S
C400 H372 0.979 . S
C400 H373 0.980 . S
C400 H374 0.983 . S
C400 C396 1.684 . S
H401 C419 0.948 . S
H402 C360 0.948 . S
H403 C378 0.979 . S
H404 C378 0.980 . S
H405 C378 0.983 . S
H406 C377 0.982 . S
H407 C377 0.979 . S
H408 C377 0.977 . S
H409 C379 0.948 . S
H410 C381 0.947 . S
H411 C382 0.948 . S
H412 C388 0.982 . S
H413 C388 0.979 . S
H414 C388 0.977 . S
H415 C389 0.979 . S
H416 C389 0.980 . S
H417 C389 0.983 . S
H418 C362 0.947 . S
C419 C362 1.392 . S
C419 C363 1.419 . S
C419 H401 0.948 . S
C420 C421 1.391 . S
C420 C424 1.391 . S
C420 H462 0.948 . S
C421 C420 1.391 . S
C421 C422 1.391 . S
C422 C421 1.391 . S
C422 H478 0.947 . S
C422 C479 1.392 . S
C423 C424 1.391 . S
C423 C427 1.397 . S
C423 C479 1.419 . S
C424 C420 1.391 . S
C424 C423 1.391 . S
C424 C425 1.399 . S
C425 C424 1.399 . S
C425 C428 1.396 . S
C425 C437 1.453 . S
C425 C438 1.684 . S
H426 C450 0.948 . S
C427 C423 1.397 . S
C427 C428 1.394 . S
C427 C446 1.723 . S
C428 C425 1.396 . S
C428 C427 1.394 . S
C428 C458 1.723 . S
H429 C452 0.947 . S
H430 C453 0.948 . S
H431 C459 0.982 . S
H432 C460 0.979 . S
H433 C460 0.980 . S
H434 C460 0.983 . S
H435 C459 0.979 . S
H436 C459 0.977 . S
C437 C425 1.453 . S
C437 H466 0.982 . S
C437 H467 0.979 . S
C437 H468 0.977 . S
C438 C425 1.684 . S
C438 H463 0.979 . S
C438 H464 0.980 . S
C438 H465 0.983 . S
C439 C440 1.391 . S
C439 C444 1.391 . S
C439 H469 0.948 . S
C440 C439 1.391 . S
C440 C441 1.391 . S
C441 C440 1.391 . S
C441 C442 1.392 . S
C441 H470 0.947 . S
C442 C441 1.392 . S
C442 C443 1.419 . S
C442 H471 0.948 . S
C443 C442 1.419 . S
C443 C444 1.391 . S
C443 C447 1.397 . S
C444 C439 1.391 . S
C444 C443 1.391 . S
C444 C445 1.399 . S
C445 C444 1.399 . S
C445 C446 1.396 . S
C445 C448 1.453 . S
C445 C449 1.684 . S
C446 C427 1.723 . S
C446 C445 1.396 . S
C446 C447 1.394 . S
C447 C443 1.397 . S
C447 C446 1.394 . S
C447 C457 1.723 . S
C448 C445 1.453 . S
C448 H472 0.982 . S
C448 H473 0.979 . S
C448 H474 0.977 . S
C449 C445 1.684 . S
C449 H475 0.979 . S
C449 H476 0.980 . S
C449 H477 0.983 . S
C450 H426 0.948 . S
C450 C451 1.391 . S
C450 C455 1.391 . S
C451 C450 1.391 . S
C451 C452 1.391 . S
C452 H429 0.947 . S
C452 C451 1.391 . S
C452 C453 1.392 . S
C453 H430 0.948 . S
C453 C452 1.392 . S
C453 C454 1.419 . S
C454 C453 1.419 . S
C454 C455 1.391 . S
C454 C458 1.397 . S
C455 C450 1.391 . S
C455 C454 1.391 . S
C455 C456 1.399 . S
C456 C455 1.399 . S
C456 C457 1.396 . S
C456 C459 1.453 . S
C456 C460 1.684 . S
C457 C447 1.723 . S
C457 C456 1.396 . S
C457 C458 1.394 . S
C458 C428 1.723 . S
C458 C454 1.397 . S
C458 C457 1.394 . S
C459 H431 0.982 . S
C459 H435 0.979 . S
C459 H436 0.977 . S
C459 C456 1.453 . S
C460 H432 0.979 . S
C460 H433 0.980 . S
C460 H434 0.983 . S
C460 C456 1.684 . S
H461 C479 0.948 . S
H462 C420 0.948 . S
H463 C438 0.979 . S
H464 C438 0.980 . S
H465 C438 0.983 . S
H466 C437 0.982 . S
H467 C437 0.979 . S
H468 C437 0.977 . S
H469 C439 0.948 . S
H470 C441 0.947 . S
H471 C442 0.948 . S
H472 C448 0.982 . S
H473 C448 0.979 . S
H474 C448 0.977 . S
H475 C449 0.979 . S
H476 C449 0.980 . S
H477 C449 0.983 . S
H478 C422 0.947 . S
C479 C422 1.392 . S
C479 C423 1.419 . S
C479 H461 0.948 . S
O480 Mg481 1.990 . S
O480 C494 1.253 . S
Mg481 O480 1.990 . S
Mg481 O484 2.180 1_565 S
Mg481 O485 2.117 . S
Mg481 O499 2.030 . S
O482 Mg483 2.072 1_465 S
O482 C494 1.260 . S
Mg483 O482 2.072 1_645 S
Mg483 O484 2.099 1_655 S
Mg483 O486 2.079 . S
Mg483 O487 2.072 1_655 S
Mg483 O489 2.099 . S
Mg483 O500 2.079 1_545 S
O484 Mg481 2.180 1_545 S
O484 Mg483 2.099 1_455 S
O484 C495 1.279 . S
O485 Mg481 2.117 . S
O485 C495 1.250 1_565 S
O486 Mg483 2.079 . S
O486 C496 1.264 . S
O487 Mg483 2.072 1_455 S
O487 C497 1.260 . S
Mg488 O489 2.180 . S
Mg488 O490 2.030 . S
Mg488 O491 1.990 . S
Mg488 O492 2.117 . S
O489 Mg483 2.099 . S
O489 Mg488 2.180 . S
O489 C498 1.279 . S
O490 Mg488 2.030 . S
O490 C496 1.248 . S
O491 Mg488 1.990 . S
O491 C497 1.253 1_655 S
O492 Mg488 2.117 . S
O492 C498 1.250 . S
C493 O499 1.248 1_655 S
C493 O500 1.264 . S
C494 O480 1.253 . S
C494 O482 1.260 . S
C495 O484 1.279 . S
C495 O485 1.250 1_545 S
C496 O486 1.264 . S
C496 O490 1.248 . S
C497 O487 1.260 . S
C497 O491 1.253 1_455 S
C498 O489 1.279 . S
C498 O492 1.250 . S
O499 Mg481 2.030 . S
O499 C493 1.248 1_455 S
O500 Mg483 2.079 1_565 S
O500 C493 1.264 . S
O501 Mg502 1.990 1_545 S
O501 C515 1.253 . S
Mg502 O501 1.990 1_565 S
Mg502 O505 2.180 . S
Mg502 O506 2.117 . S
Mg502 O520 2.030 1_565 S
O503 Mg504 2.072 . S
O503 C515 1.260 . S
Mg504 O503 2.072 . S
Mg504 O505 2.099 1_545 S
Mg504 O507 2.079 1_545 S
Mg504 O508 2.072 1_545 S
Mg504 O510 2.099 . S
Mg504 O521 2.079 . S
O505 Mg502 2.180 . S
O505 Mg504 2.099 1_565 S
O505 C516 1.279 . S
O506 Mg502 2.117 . S
O506 C516 1.250 . S
O507 Mg504 2.079 1_565 S
O507 C517 1.264 . S
O508 Mg504 2.072 1_565 S
O508 C518 1.260 1_565 S
Mg509 O510 2.180 . S
Mg509 O511 2.030 1_545 S
Mg509 O512 1.990 . S
Mg509 O513 2.117 . S
O510 Mg504 2.099 . S
O510 Mg509 2.180 . S
O510 C519 1.279 . S
O511 Mg509 2.030 1_565 S
O511 C517 1.248 . S
O512 Mg509 1.990 . S
O512 C518 1.253 . S
O513 Mg509 2.117 . S
O513 C519 1.250 . S
C514 O520 1.248 . S
C514 O521 1.264 . S
C515 O501 1.253 . S
C515 O503 1.260 . S
C516 O505 1.279 . S
C516 O506 1.250 . S
C517 O507 1.264 . S
C517 O511 1.248 . S
C518 O508 1.260 1_545 S
C518 O512 1.253 . S
C519 O510 1.279 . S
C519 O513 1.250 . S
O520 Mg502 2.030 1_545 S
O520 C514 1.248 . S
O521 Mg504 2.079 . S
O521 C514 1.264 . S
O522 Mg523 1.990 . S
O522 C536 1.253 . S
Mg523 O522 1.990 . S
Mg523 O526 2.180 . S
Mg523 O527 2.117 . S
Mg523 O541 2.030 . S
O524 Mg525 2.072 . S
O524 C536 1.260 . S
Mg525 O524 2.072 . S
Mg525 O526 2.099 . S
Mg525 O528 2.079 . S
Mg525 O529 2.072 . S
Mg525 O531 2.099 . S
Mg525 O542 2.079 . S
O526 Mg523 2.180 . S
O526 Mg525 2.099 . S
O526 C537 1.279 . S
O527 Mg523 2.117 . S
O527 C537 1.250 . S
O528 Mg525 2.079 . S
O528 C538 1.264 . S
O529 Mg525 2.072 . S
O529 C539 1.260 . S
Mg530 O531 2.180 . S
Mg530 O532 2.030 . S
Mg530 O533 1.990 . S
Mg530 O534 2.117 . S
O531 Mg525 2.099 . S
O531 Mg530 2.180 . S
O531 C540 1.279 . S
O532 Mg530 2.030 . S
O532 C538 1.248 . S
O533 Mg530 1.990 . S
O533 C539 1.253 . S
O534 Mg530 2.117 . S
O534 C540 1.250 . S
C535 O541 1.248 . S
C535 O542 1.264 . S
C536 O522 1.253 . S
C536 O524 1.260 . S
C537 O526 1.279 . S
C537 O527 1.250 . S
C538 O528 1.264 . S
C538 O532 1.248 . S
C539 O529 1.260 . S
C539 O533 1.253 . S
C540 O531 1.279 . S
C540 O534 1.250 . S
O541 Mg523 2.030 . S
O541 C535 1.248 . S
O542 Mg525 2.079 . S
O542 C535 1.264 . S
O543 Mg544 1.990 . S
O543 C557 1.253 . S
Mg544 O543 1.990 . S
Mg544 O547 2.180 . S
Mg544 O548 2.117 . S
Mg544 O562 2.030 . S
O545 Mg546 2.072 1_655 S
O545 C557 1.260 . S
Mg546 O545 2.072 1_455 S
Mg546 O547 2.099 1_455 S
Mg546 O549 2.079 . S
Mg546 O550 2.072 . S
Mg546 O552 2.099 . S
Mg546 O563 2.079 1_455 S
O547 Mg544 2.180 . S
O547 Mg546 2.099 1_655 S
O547 C558 1.279 . S
O548 Mg544 2.117 . S
O548 C558 1.250 . S
O549 Mg546 2.079 . S
O549 C559 1.264 . S
O550 Mg546 2.072 . S
O550 C560 1.260 . S
Mg551 O552 2.180 . S
Mg551 O553 2.030 . S
Mg551 O554 1.990 . S
Mg551 O555 2.117 . S
O552 Mg546 2.099 . S
O552 Mg551 2.180 . S
O552 C561 1.279 . S
O553 Mg551 2.030 . S
O553 C559 1.248 . S
O554 Mg551 1.990 . S
O554 C560 1.253 . S
O555 Mg551 2.117 . S
O555 C561 1.250 . S
C556 O562 1.248 . S
C556 O563 1.264 . S
C557 O543 1.253 . S
C557 O545 1.260 . S
C558 O547 1.279 . S
C558 O548 1.250 . S
C559 O549 1.264 . S
C559 O553 1.248 . S
C560 O550 1.260 . S
C560 O554 1.253 . S
C561 O552 1.279 . S
C561 O555 1.250 . S
O562 Mg544 2.030 . S
O562 C556 1.248 . S
O563 Mg546 2.079 1_655 S
O563 C556 1.264 . S
C564 C565 1.170 . S
C564 C566 1.380 . S
C565 C564 1.170 . S
C566 C564 1.380 . S
C566 C567 1.170 . S
C567 C566 1.170 . S
C568 C569 1.170 . S
C568 C570 1.380 . S
C569 C568 1.170 . S
C570 C568 1.380 . S
C570 C571 1.170 . S
C571 C570 1.170 . S
C572 C573 1.170 . S
C572 C574 1.380 . S
C573 C572 1.170 . S
C574 C572 1.380 . S
C574 C575 1.170 . S
C575 C574 1.170 . S
C576 C577 1.170 . S
C576 C578 1.380 . S
C577 C576 1.170 . S
C578 C576 1.380 . S
C578 C579 1.170 . S
C579 C578 1.170 . S
C580 C581 1.170 . S
C580 C582 1.380 . S
C581 C580 1.170 . S
C582 C580 1.380 . S
C582 C583 1.170 . S
C583 C582 1.170 . S
C584 C585 1.166 1_556 S
C584 C586 1.380 . S
C585 C584 1.166 1_554 S
C586 C584 1.380 . S
C586 C587 1.170 . S
C587 C586 1.170 . S
C588 C589 1.170 . S
C588 C590 1.380 . S
C589 C588 1.170 . S
C590 C588 1.380 . S
C590 C591 1.170 . S
C591 C590 1.170 . S
C592 C593 1.181 . S
C592 C594 1.381 . S
C593 C592 1.181 . S
C594 C592 1.381 . S
C594 C595 1.170 . S
C595 C594 1.170 . S
C596 C597 1.170 1_655 S
C596 C598 1.380 . S
C597 C596 1.170 1_455 S
C598 C596 1.380 . S
C598 C599 1.170 . S
C599 C598 1.170 . S
C600 C601 1.170 . S
C600 C602 1.380 . S
C601 C600 1.170 . S
C602 C600 1.380 . S
C602 C603 1.170 . S
C603 C602 1.170 . S
C604 C605 1.170 . S
C604 C606 1.380 . S
C605 C604 1.170 . S
C606 C604 1.380 . S
C606 C607 1.170 . S
C607 C606 1.170 . S
C608 C609 1.170 . S
C608 C610 1.380 . S
C609 C608 1.170 . S
C610 C608 1.380 . S
C610 C611 1.170 . S
C611 C610 1.170 . S
C612 C613 1.166 1_455 S
C612 C614 1.380 . S
C613 C612 1.166 1_655 S
C614 C612 1.380 . S
C614 C615 1.170 . S
C615 C614 1.170 . S
C616 C617 1.170 . S
C616 C618 1.380 . S
C617 C616 1.170 . S
C618 C616 1.380 . S
C618 C619 1.170 . S
C619 C618 1.170 . S
C620 C621 1.170 . S
C620 C622 1.380 . S
C621 C620 1.170 . S
C622 C620 1.380 . S
C622 C623 1.170 . S
C623 C622 1.170 . S
C624 C625 1.170 . S
C624 C626 1.380 . S
C625 C624 1.170 . S
C626 C624 1.380 . S
C626 C627 1.170 . S
C627 C626 1.170 . S
C628 C629 1.170 . S
C628 C630 1.380 . S
C629 C628 1.170 . S
C630 C628 1.380 . S
C630 C631 1.170 . S
C631 C630 1.170 . S
C632 C633 1.170 . S
C632 C634 1.380 . S
C633 C632 1.170 . S
C634 C632 1.380 . S
C634 C635 1.170 . S
C635 C634 1.170 . S
C636 C637 1.170 . S
C636 C638 1.380 . S
C637 C636 1.170 . S
C638 C636 1.380 . S
C638 C639 1.170 . S
C639 C638 1.170 . S
C640 C641 1.170 . S
C640 C642 1.380 . S
C641 C640 1.170 . S
C642 C640 1.380 . S
C642 C643 1.170 . S
C643 C642 1.170 . S
C644 C645 1.170 . S
C644 C646 1.380 . S
C645 C644 1.170 . S
C646 C644 1.380 . S
C646 C647 1.170 . S
C647 C646 1.170 . S
C648 C649 1.170 . S
C648 C650 1.380 . S
C649 C648 1.170 . S
C650 C648 1.380 . S
C650 C651 1.170 . S
C651 C650 1.170 . S
C652 C653 1.170 . S
C652 C654 1.380 . S
C653 C652 1.170 . S
C654 C652 1.380 . S
C654 C655 1.170 . S
C655 C654 1.170 . S
C656 C657 1.170 . S
C656 C658 1.380 . S
C657 C656 1.170 . S
C658 C656 1.380 . S
C658 C659 1.170 . S
C659 C658 1.170 . S
C565 C391 2.167 . S
C567 C495 2.065 . S
C571 C519 1.478 . S
C569 C451 1.784 . S
C575 C540 2.020 . S
C573 C241 1.818 . S
C579 C558 1.529 . S
C577 C331 1.551 . S
C583 C498 1.957 1_565 S
C581 C121 1.878 1_556 S
C585 C211 1.603 . S
C587 C516 1.391 . S
C589 C31 1.869 1_556 S
C591 C537 1.902 . S
C593 C91 1.421 1_456 S
C595 C561 1.439 . S
C599 C496 0.698 . S
C597 C301 0.631 1_455 S
C603 C514 1.082 . S
C601 C380 1.156 . S
C607 C535 0.710 . S
C605 C440 0.582 . S
C609 C260 0.985 . S
C611 C559 1.080 . S
C613 C61 0.648 . S
C615 C494 0.737 . S
C619 C518 1.174 1_565 S
C617 C140 1.124 . S
C623 C539 0.722 . S
C621 C200 0.678 . S
C625 C20 1.090 . S
C627 C557 1.181 . S
C629 C320 2.108 1_456 S
C631 C497 2.012 . S
C633 C361 2.078 1_556 S
C635 C515 2.247 . S
C639 C536 1.990 . S
C637 C421 1.807 1_556 S
C643 C560 2.284 . S
C641 C271 2.212 1_556 S
C645 C80 1.957 . S
C647 C493 1.885 . S
C651 C517 2.114 . S
C649 C151 2.208 . S
C655 C538 1.848 . S
C653 C181 1.681 . S
C657 C1 1.831 . S
C659 C556 2.138 . S
