# Generated by pormake.
# Topology pyr, (3,6)-cn, num edge types: 1
# Building blocks:
#     Node 0, Type 0, BuildingBlock: PAMTOO_clean_linker_0, # of connection points: 3
#     Node 1, Type 0, BuildingBlock: PAMTOO_clean_linker_0, # of connection points: 3
#     Node 2, Type 0, BuildingBlock: PAMTOO_clean_linker_0, # of connection points: 3
#     Node 3, Type 0, BuildingBlock: PAMTOO_clean_linker_0, # of connection points: 3
#     Node 4, Type 0, BuildingBlock: PAMTOO_clean_linker_0, # of connection points: 3
#     Node 5, Type 0, BuildingBlock: PAMTOO_clean_linker_0, # of connection points: 3
#     Node 6, Type 0, BuildingBlock: PAMTOO_clean_linker_0, # of connection points: 3
#     Node 7, Type 0, BuildingBlock: PAMTOO_clean_linker_0, # of connection points: 3
#     Node 8, Type 1, BuildingBlock: BETFAJ_clean_sbu_0, # of connection points: 6
#     Node 9, Type 1, BuildingBlock: BETFAJ_clean_sbu_0, # of connection points: 6
#     Node 10, Type 1, BuildingBlock: BETFAJ_clean_sbu_0, # of connection points: 6
#     Node 11, Type 1, BuildingBlock: BETFAJ_clean_sbu_0, # of connection points: 6
#     Edge 12, Type (0, 1), None
#     Edge 13, Type (0, 1), None
#     Edge 14, Type (0, 1), None
#     Edge 15, Type (0, 1), None
#     Edge 16, Type (0, 1), None
#     Edge 17, Type (0, 1), None
#     Edge 18, Type (0, 1), None
#     Edge 19, Type (0, 1), None
#     Edge 20, Type (0, 1), None
#     Edge 21, Type (0, 1), None
#     Edge 22, Type (0, 1), None
#     Edge 23, Type (0, 1), None
#     Edge 24, Type (0, 1), None
#     Edge 25, Type (0, 1), None
#     Edge 26, Type (0, 1), None
#     Edge 27, Type (0, 1), None
#     Edge 28, Type (0, 1), None
#     Edge 29, Type (0, 1), None
#     Edge 30, Type (0, 1), None
#     Edge 31, Type (0, 1), None
#     Edge 32, Type (0, 1), None
#     Edge 33, Type (0, 1), None
#     Edge 34, Type (0, 1), None
#     Edge 35, Type (0, 1), None
# Relax obj value: 0.500
# Max RMSD: 0.277
# Mean RMSD: 0.169
data_MOF--net-pyr--node1-BETFAJ_clean_sbu_0--node2-PAMTOO_clean_linker_0--edge1-none
_symmetry_space_group_name_H-M    P1
_symmetry_Int_Tables_number       1
_symmetry_cell_setting            triclinic
loop_
_symmetry_equiv_pos_as_xyz
'x, y, z'
_cell_length_a     16.833241
_cell_length_b     18.702533
_cell_length_c     17.142514
_cell_angle_alpha  93.940179
_cell_angle_beta   87.672489
_cell_angle_gamma 111.11801
loop_
_atom_site_label
_atom_site_type_symbol
_atom_site_fract_x
_atom_site_fract_y
_atom_site_fract_z
_atom_type_partial_charge
H0 H 0.42511 0.52423 0.31814 0.0
H1 H 0.45808 0.34075 0.43462 0.0
H2 H 0.52123 0.36497 0.19398 0.0
H3 H 0.42377 0.22136 0.27163 0.0
C4 C 0.48552 0.22415 0.29551 0.0
O5 O 0.53605 0.29833 0.31876 0.0
H6 H 0.47184 0.18784 0.34657 0.0
C7 C 0.45112 0.47904 0.3193 0.0
C8 C 0.46762 0.44557 0.24755 0.0
C9 C 0.43278 0.43418 0.38458 0.0
C10 C 0.46916 0.37712 0.38587 0.0
C11 C 0.50883 0.35778 0.31877 0.0
C12 C 0.50624 0.39073 0.24847 0.0
H13 H 0.25716 1.07149 0.73006 0.0
H14 H 0.34378 1.09847 0.49167 0.0
H15 H 0.39542 0.93498 0.6254 0.0
H16 H 0.53928 1.09748 0.52043 0.0
C17 C 0.51767 1.03632 0.49799 0.0
O18 O 0.42954 1.00524 0.49435 0.0
H19 H 0.54386 1.03517 0.4376 0.0
C20 C 0.28827 1.0535 0.68009 0.0
C21 C 0.32713 0.99913 0.68681 0.0
C22 C 0.29039 1.08675 0.60949 0.0
C23 C 0.33841 1.07073 0.54611 0.0
C24 C 0.37864 1.01759 0.55274 0.0
C25 C 0.36759 0.97823 0.62118 0.0
H26 H 0.83093 0.38321 1.08637 0.0
H27 H 0.6468 0.35727 0.90691 0.0
H28 H 0.86511 0.56733 0.93379 0.0
H29 H 0.74645 0.61228 0.8783 0.0
C30 C 0.70239 0.56332 0.84257 0.0
O31 O 0.73002 0.49927 0.84585 0.0
H32 H 0.6391 0.54787 0.8723 0.0
C33 C 0.80747 0.40636 1.03992 0.0
C34 C 0.85722 0.48161 1.01596 0.0
C35 C 0.7301 0.35902 1.0029 0.0
C36 C 0.70328 0.39221 0.93859 0.0
C37 C 0.7502 0.46941 0.91342 0.0
C38 C 0.82683 0.51129 0.95358 0.0
H39 H 0.88917 0.87327 0.58622 0.0
H40 H 0.88331 0.67559 0.43812 0.0
H41 H 0.08643 0.89559 0.41115 0.0
H42 H 1.01413 0.7669 0.24703 0.0
C43 C 1.00354 0.71573 0.28069 0.0
O44 O 1.02781 0.7429 0.35916 0.0
H45 H 0.93416 0.68161 0.28107 0.0
C46 C 0.916 0.84847 0.53775 0.0
C47 C 0.99079 0.8967 0.50128 0.0
C48 C 0.8759 0.76935 0.51594 0.0
C49 C 0.91205 0.73652 0.45329 0.0
C50 C 0.98778 0.78059 0.41269 0.0
C51 C 1.02667 0.86148 0.438 0.0
H52 H 0.69558 0.93837 0.92247 0.0
H53 H 0.87424 1.11084 1.07436 0.0
H54 H 0.92759 0.91487 0.99221 0.0
H55 H 0.97445 0.99709 0.1698 0.0
C56 C 1.02199 1.0184 0.12172 0.0
O57 O 0.98826 1.04693 1.06425 0.0
H58 H 0.07698 1.0663 0.14723 0.0
C59 C 0.75272 0.95768 0.95709 0.0
C60 C 0.80832 0.91606 0.95169 0.0
C61 C 0.77537 1.02792 1.00194 0.0
C62 C 0.85335 1.0556 1.04205 0.0
C63 C 0.90728 1.01405 1.03847 0.0
C64 C 0.8828 0.94379 0.99638 0.0
H65 H 0.91381 0.14437 0.54678 0.0
H66 H 0.75238 0.27038 0.60558 0.0
H67 H 0.81974 0.1513 0.78385 0.0
H68 H 0.61656 0.22783 0.80709 0.0
C69 C 0.64371 0.22129 0.7481 0.0
O70 O 0.73006 0.23631 0.75559 0.0
H71 H 0.60994 0.16119 0.72513 0.0
C72 C 0.87746 0.16443 0.591 0.0
C73 C 0.87478 0.1447 0.66821 0.0
C74 C 0.83355 0.20979 0.56946 0.0
C75 C 0.78558 0.23533 0.62475 0.0
C76 C 0.77747 0.21202 0.70184 0.0
C77 C 0.82292 0.16688 0.72377 0.0
H78 H 0.41088 0.87873 0.12741 0.0
H79 H 0.38497 0.69876 0.28399 0.0
H80 H 0.59268 0.91617 0.31213 0.0
H81 H 0.62691 0.75188 0.35396 0.0
C82 C 0.56197 0.72379 0.3789 0.0
O83 O 0.5175 0.77578 0.37393 0.0
H84 H 0.53083 0.6723 0.33947 0.0
C85 C 0.43464 0.85784 0.17539 0.0
C86 C 0.51041 0.90905 0.21408 0.0
C87 C 0.38718 0.7812 0.19955 0.0
C88 C 0.41982 0.75547 0.26392 0.0
C89 C 0.49478 0.80175 0.30519 0.0
C90 C 0.53789 0.87884 0.27966 0.0
H91 H 0.07884 0.34688 0.89538 0.0
H92 H 0.27218 0.57131 0.86182 0.0
H93 H 0.26568 0.37935 0.70723 0.0
H94 H 0.43312 0.48487 0.75227 0.0
C95 C 0.4239 0.53979 0.74364 0.0
O96 O 0.33805 0.52584 0.73372 0.0
H97 H 0.44515 0.5777 0.79748 0.0
C98 C 0.13549 0.38306 0.8656 0.0
C99 C 0.17002 0.34885 0.79904 0.0
C100 C 0.1729 0.465 0.89201 0.0
C101 C 0.24388 0.51018 0.84743 0.0
C102 C 0.27562 0.47918 0.7807 0.0
C103 C 0.2396 0.40036 0.75883 0.0
Sm104 Sm 0.09204 0.16378 0.58017 0.0
Sm105 Sm 0.07658 1.07802 0.71845 0.0
C106 C 0.10566 0.27279 0.48694 0.0
C107 C 0.18541 0.33757 0.47732 0.0
C108 C 0.19826 0.38379 0.41425 0.0
C109 C 0.2811 0.4282 0.39193 0.0
C110 C 0.35213 0.42383 0.43027 0.0
C111 C 0.33732 0.38757 0.50135 0.0
C112 C 0.25449 0.34403 0.52421 0.0
C113 C 0.23655 0.13238 0.6006 0.0
C114 C 0.13229 0.26553 0.75819 0.0
C115 C 1.04787 0.95834 0.80178 0.0
C116 C 0.96127 0.90007 0.80513 0.0
C117 C 0.93865 0.8396 0.85546 0.0
C118 C 0.85636 0.81488 0.88946 0.0
C119 C 0.80765 0.86207 0.88306 0.0
C120 C 0.8166 0.89717 0.81193 0.0
C121 C 0.89561 0.91815 0.77347 0.0
C122 C 0.93166 1.10602 0.68906 0.0
C123 C 1.03235 0.97856 0.54135 0.0
O124 O 0.0701 0.27025 0.55633 0.0
O125 O 0.10893 0.20657 0.46071 0.0
O126 O 0.19441 0.15187 0.6555 0.0
O127 O 0.20811 0.13728 0.53327 0.0
O128 O 0.11071 0.26068 0.68349 0.0
O129 O 0.13729 0.2021 0.78655 0.0
O130 O 0.08502 0.96354 0.73319 0.0
O131 O 0.05475 1.02588 0.83413 0.0
O132 O 0.97684 1.0849 0.63941 0.0
O133 O 0.95947 1.10906 0.75867 0.0
O134 O 0.06104 0.98373 0.61343 0.0
O135 O 1.0231 1.04096 0.51607 0.0
H136 H 0.1454 0.3805 0.37833 0.0
H137 H 0.28829 0.458 0.33893 0.0
H138 H 0.38953 0.3853 0.53462 0.0
H139 H 0.24529 0.30922 0.57413 0.0
H140 H 0.98596 0.819 0.87588 0.0
H141 H 0.84444 0.77802 0.93801 0.0
H142 H 0.77487 0.92709 0.7986 0.0
H143 H 0.90932 0.95869 0.7284 0.0
Sm144 Sm 0.67615 0.14788 0.15813 0.0
Sm145 Sm 0.56947 1.12352 1.06462 0.0
C146 C 0.81661 0.18805 0.23985 0.0
C147 C 0.82267 0.1966 0.32432 0.0
C148 C 0.89752 0.24532 0.36023 0.0
C149 C 0.89945 0.25608 0.44154 0.0
C150 C 0.82689 0.21786 0.48644 0.0
C151 C 0.75103 0.17306 0.45004 0.0
C152 C 0.74887 0.1626 0.36942 0.0
C153 C 0.55652 0.99541 0.19091 0.0
C154 C 0.53321 0.19456 0.23473 0.0
C155 C 0.43147 1.07859 0.97986 0.0
C156 C 0.39496 1.02131 0.91724 0.0
C157 C 0.30981 1.00442 0.90076 0.0
C158 C 0.28118 0.97917 0.82545 0.0
C159 C 0.33965 0.9774 0.76539 0.0
C160 C 0.421 0.98013 0.7855 0.0
C161 C 0.44835 1.00132 0.86202 0.0
C162 C 0.68361 0.27354 1.02745 0.0
C163 C 0.71945 1.07353 1.01011 0.0
O164 O 0.78944 0.2373 0.21114 0.0
O165 O 0.77826 1.11831 0.21054 0.0
O166 O 0.58416 1.02044 0.12311 0.0
O167 O 0.58775 1.05324 0.24101 0.0
O168 O 0.61237 0.20531 0.24575 0.0
O169 O 0.49717 0.15768 0.1703 0.0
O170 O 0.43133 1.05488 1.04947 0.0
O171 O 0.50222 0.13272 0.96118 0.0
O172 O 0.65943 0.24994 0.09681 0.0
O173 O 0.65341 0.21491 0.97793 0.0
O174 O 0.63674 1.0413 1.01363 0.0
O175 O 0.74911 0.14068 1.04583 0.0
H176 H 0.95392 0.27448 0.32572 0.0
H177 H 0.95744 0.29273 0.46954 0.0
H178 H 0.69482 0.14306 0.48413 0.0
H179 H 0.68971 0.12717 0.34252 0.0
H180 H 0.26876 1.02043 0.94303 0.0
H181 H 0.21724 0.97374 0.81194 0.0
H182 H 0.4678 0.9775 0.74129 0.0
H183 H 0.51458 1.01315 0.87476 0.0
Sm184 Sm 0.61823 0.57703 0.57632 0.0
Sm185 Sm 0.65405 0.71972 0.6463 0.0
C186 C 0.63041 0.44333 0.53301 0.0
C187 C 0.6339 0.38462 0.58542 0.0
C188 C 0.69309 0.40598 0.6462 0.0
C189 C 0.68961 0.35534 0.70304 0.0
C190 C 0.63181 0.27936 0.69703 0.0
C191 C 0.57295 0.25685 0.63585 0.0
C192 C 0.57316 0.30955 0.58111 0.0
C193 C 0.48214 0.57751 0.67579 0.0
C194 C 0.69342 0.59638 0.76038 0.0
C195 C 0.62896 0.84801 0.69238 0.0
C196 C 0.60001 0.89738 0.64534 0.0
C197 C 0.53702 0.86359 0.58877 0.0
C198 C 0.5152 0.90844 0.53814 0.0
C199 C 0.55051 0.98873 0.54685 0.0
C200 C 0.61252 1.02316 0.60422 0.0
C201 C 0.63804 0.97776 0.65238 0.0
C202 C 0.8003 0.72312 0.56557 0.0
C203 C 0.57482 0.69379 0.46146 0.0
O204 O 0.69622 0.50775 0.5345 0.0
O205 O 0.55828 0.4548 0.53362 0.0
O206 O 0.56066 0.6094 0.68856 0.0
O207 O 0.47298 0.54636 0.60488 0.0
O208 O 0.67169 0.5519 0.69533 0.0
O209 O 0.68926 0.66662 0.75847 0.0
O210 O 0.57282 0.7797 0.70338 0.0
O211 O 0.70443 0.8461 0.67451 0.0
O212 O 0.72452 0.68991 0.53939 0.0
O213 O 0.7971 0.74675 0.63856 0.0
O214 O 0.59907 0.74001 0.5252 0.0
O215 O 0.57856 0.62408 0.46435 0.0
H216 H 0.74274 0.46215 0.65041 0.0
H217 H 0.73647 0.37402 0.74879 0.0
H218 H 0.52807 0.19837 0.62964 0.0
H219 H 0.52638 0.29157 0.53532 0.0
H220 H 0.50392 0.80213 0.58342 0.0
H221 H 0.46721 0.88036 0.49464 0.0
H222 H 0.64086 1.08499 0.61186 0.0
H223 H 0.68691 1.00527 0.69524 0.0
Sm224 Sm 0.12593 0.57443 0.1341 0.0
Sm225 Sm 0.12976 0.66156 1.05911 0.0
C226 C 0.16397 0.46264 0.18987 0.0
C227 C 0.24203 0.44577 0.17397 0.0
C228 C 0.3161 0.50318 0.14688 0.0
C229 C 0.39575 0.49799 0.15623 0.0
C230 C 0.40102 0.43375 0.18974 0.0
C231 C 0.32581 0.36919 0.19917 0.0
C232 C 0.24633 0.37602 0.19354 0.0
C233 C 1.04961 0.66434 0.23405 0.0
C234 C 0.30176 0.72772 0.16087 0.0
C235 C 0.11972 0.77143 0.97664 0.0
C236 C 0.09611 0.83519 1.0126 0.0
C237 C 0.11578 0.90408 0.97633 0.0
C238 C 0.09689 0.96531 1.01359 0.0
C239 C 0.05385 0.95687 1.08659 0.0
C240 C 1.03367 0.8873 0.12273 0.0
C241 C 0.05512 0.82735 1.08623 0.0
C242 C 0.13249 0.50642 0.95723 0.0
C243 C 0.94465 0.52809 1.05136 0.0
O244 O 0.11461 0.45177 0.13056 0.0
O245 O 0.17408 0.5272 0.22961 0.0
O246 O 0.11552 0.68941 0.19044 0.0
O247 O 1.01679 0.59033 0.21868 0.0
O248 O 0.26412 0.65532 0.17789 0.0
O249 O 0.25905 0.75075 0.11179 0.0
O250 O 0.19266 0.77009 0.99823 0.0
O251 O 0.05922 0.70408 0.97804 0.0
O252 O 0.17477 0.5678 1.00125 0.0
O253 O 0.17879 0.56773 1.00055 0.0
O254 O 0.98196 0.60199 1.04338 0.0
O255 O 0.99084 0.49659 1.08591 0.0
H256 H 0.31342 0.55515 0.12558 0.0
H257 H 0.45253 0.548 0.14757 0.0
H258 H 0.32819 0.31856 0.22469 0.0
H259 H 0.18957 0.33 0.21201 0.0
H260 H 0.14348 0.90923 0.9184 0.0
H261 H 0.11225 1.01799 0.98386 0.0
H262 H 0.99988 0.87881 0.17845 0.0
H263 H 1.03838 0.77396 0.11465 0.0
loop_
_geom_bond_atom_site_label_1
_geom_bond_atom_site_label_2
_geom_bond_distance
_geom_bond_site_symmetry_2
_ccdc_geom_bond_type
H0 C7 0.929 . S
H1 C10 0.930 . S
H2 C12 0.929 . S
H3 C4 0.969 . S
C4 H3 0.969 . S
C4 O5 1.550 . S
C4 H6 0.973 . S
O5 C4 1.550 . S
O5 C11 1.412 . S
H6 C4 0.973 . S
C7 H0 0.929 . S
C7 C8 1.400 . S
C7 C9 1.364 . S
C8 C7 1.400 . S
C8 C12 1.377 . S
C9 C7 1.364 . S
C9 C10 1.374 . S
C10 H1 0.930 . S
C10 C9 1.374 . S
C10 C11 1.383 . S
C11 O5 1.412 . S
C11 C10 1.383 . S
C11 C12 1.394 . S
C12 H2 0.929 . S
C12 C8 1.377 . S
C12 C11 1.394 . S
H13 C20 0.929 . S
H14 C23 0.930 . S
H15 C25 0.929 . S
H16 C17 0.969 . S
C17 H16 0.969 . S
C17 O18 1.550 . S
C17 H19 0.973 . S
O18 C17 1.550 . S
O18 C24 1.412 . S
H19 C17 0.973 . S
C20 H13 0.929 . S
C20 C21 1.400 . S
C20 C22 1.364 . S
C21 C20 1.400 . S
C21 C25 1.377 . S
C22 C20 1.364 . S
C22 C23 1.374 . S
C23 H14 0.930 . S
C23 C22 1.374 . S
C23 C24 1.383 . S
C24 O18 1.412 . S
C24 C23 1.383 . S
C24 C25 1.394 . S
C25 H15 0.929 . S
C25 C21 1.377 . S
C25 C24 1.394 . S
H26 C33 0.929 . S
H27 C36 0.930 . S
H28 C38 0.929 . S
H29 C30 0.969 . S
C30 H29 0.969 . S
C30 O31 1.550 . S
C30 H32 0.973 . S
O31 C30 1.550 . S
O31 C37 1.412 . S
H32 C30 0.973 . S
C33 H26 0.929 . S
C33 C34 1.400 . S
C33 C35 1.364 . S
C34 C33 1.400 . S
C34 C38 1.377 . S
C35 C33 1.364 . S
C35 C36 1.374 . S
C36 H27 0.930 . S
C36 C35 1.374 . S
C36 C37 1.383 . S
C37 O31 1.412 . S
C37 C36 1.383 . S
C37 C38 1.394 . S
C38 H28 0.929 . S
C38 C34 1.377 . S
C38 C37 1.394 . S
H39 C46 0.929 . S
H40 C49 0.930 . S
H41 C51 0.929 1_455 S
H42 C43 0.969 . S
C43 H42 0.969 . S
C43 O44 1.550 1_655 S
C43 H45 0.973 . S
O44 C43 1.550 1_455 S
O44 C50 1.412 1_455 S
H45 C43 0.973 . S
C46 H39 0.929 . S
C46 C47 1.400 . S
C46 C48 1.364 . S
C47 C46 1.400 . S
C47 C51 1.377 . S
C48 C46 1.364 . S
C48 C49 1.374 . S
C49 H40 0.930 . S
C49 C48 1.374 . S
C49 C50 1.383 . S
C50 O44 1.412 1_655 S
C50 C49 1.383 . S
C50 C51 1.394 . S
C51 H41 0.929 1_655 S
C51 C47 1.377 . S
C51 C50 1.394 . S
H52 C59 0.929 . S
H53 C62 0.930 . S
H54 C64 0.929 . S
H55 C56 0.969 . S
C56 H55 0.969 . S
C56 O57 1.550 . S
C56 H58 0.973 . S
O57 C56 1.550 . S
O57 C63 1.412 . S
H58 C56 0.973 . S
C59 H52 0.929 . S
C59 C60 1.400 . S
C59 C61 1.364 . S
C60 C59 1.400 . S
C60 C64 1.377 . S
C61 C59 1.364 . S
C61 C62 1.374 . S
C62 H53 0.930 . S
C62 C61 1.374 . S
C62 C63 1.383 . S
C63 O57 1.412 . S
C63 C62 1.383 . S
C63 C64 1.394 . S
C64 H54 0.929 . S
C64 C60 1.377 . S
C64 C63 1.394 . S
H65 C72 0.929 . S
H66 C75 0.930 . S
H67 C77 0.929 . S
H68 C69 0.969 . S
C69 H68 0.969 . S
C69 O70 1.550 . S
C69 H71 0.973 . S
O70 C69 1.550 . S
O70 C76 1.412 . S
H71 C69 0.973 . S
C72 H65 0.929 . S
C72 C73 1.400 1_655 S
C72 C74 1.364 . S
C73 C72 1.400 1_455 S
C73 C77 1.377 . S
C74 C72 1.364 . S
C74 C75 1.374 . S
C75 H66 0.930 . S
C75 C74 1.374 . S
C75 C76 1.383 . S
C76 O70 1.412 . S
C76 C75 1.383 . S
C76 C77 1.394 1_655 S
C77 H67 0.929 . S
C77 C73 1.377 . S
C77 C76 1.394 1_455 S
H78 C85 0.929 . S
H79 C88 0.930 . S
H80 C90 0.929 . S
H81 C82 0.969 . S
C82 H81 0.969 . S
C82 O83 1.550 . S
C82 H84 0.973 . S
O83 C82 1.550 . S
O83 C89 1.412 . S
H84 C82 0.973 . S
C85 H78 0.929 . S
C85 C86 1.400 . S
C85 C87 1.364 . S
C86 C85 1.400 . S
C86 C90 1.377 . S
C87 C85 1.364 . S
C87 C88 1.374 . S
C88 H79 0.930 . S
C88 C87 1.374 . S
C88 C89 1.383 . S
C89 O83 1.412 . S
C89 C88 1.383 . S
C89 C90 1.394 . S
C90 H80 0.929 . S
C90 C86 1.377 . S
C90 C89 1.394 . S
H91 C98 0.929 . S
H92 C101 0.930 . S
H93 C103 0.929 . S
H94 C95 0.969 . S
C95 H94 0.969 . S
C95 O96 1.550 . S
C95 H97 0.973 . S
O96 C95 1.550 . S
O96 C102 1.412 . S
H97 C95 0.973 . S
C98 H91 0.929 . S
C98 C99 1.400 . S
C98 C100 1.364 . S
C99 C98 1.400 . S
C99 C103 1.377 . S
C100 C98 1.364 . S
C100 C101 1.374 . S
C101 H92 0.930 . S
C101 C100 1.374 . S
C101 C102 1.383 . S
C102 O96 1.412 . S
C102 C101 1.383 . S
C102 C103 1.394 . S
C103 H93 0.929 . S
C103 C99 1.377 . S
C103 C102 1.394 . S
Sm104 C106 2.846 . S
Sm104 O124 2.543 . S
Sm104 O125 2.450 . S
Sm104 O126 2.681 1_545 S
Sm104 O127 2.464 1_545 S
Sm104 O128 2.396 . S
Sm104 O132 2.386 1_455 S
Sm104 O135 2.408 1_445 S
Sm105 C115 2.846 1_545 S
Sm105 O126 2.386 1_645 S
Sm105 O129 2.408 1_655 S
Sm105 O130 2.543 1_545 S
Sm105 O131 2.450 1_545 S
Sm105 O132 2.681 . S
Sm105 O133 2.464 . S
Sm105 O134 2.396 1_545 S
C106 Sm104 2.846 . S
C106 C107 1.506 . S
C106 O124 1.261 . S
C106 O125 1.242 . S
C107 C106 1.506 . S
C107 C108 1.358 . S
C107 C112 1.382 . S
C108 C107 1.358 . S
C108 C109 1.385 . S
C108 H136 0.930 . S
C109 C108 1.385 . S
C109 C110 1.395 . S
C109 H137 0.929 . S
C110 C109 1.395 . S
C110 C111 1.335 . S
C111 C110 1.335 . S
C111 C112 1.398 . S
C111 H138 0.930 . S
C112 C107 1.382 . S
C112 C111 1.398 . S
C112 H139 0.929 . S
C113 O126 1.271 . S
C113 O127 1.251 . S
C114 O128 1.252 . S
C114 O129 1.272 . S
C115 Sm105 2.846 1_565 S
C115 C116 1.506 . S
C115 O130 1.261 . S
C115 O131 1.242 . S
C116 C115 1.506 . S
C116 C117 1.358 . S
C116 C121 1.382 . S
C117 C116 1.358 . S
C117 C118 1.385 . S
C117 H140 0.930 . S
C118 C117 1.385 . S
C118 C119 1.395 . S
C118 H141 0.929 . S
C119 C118 1.395 . S
C119 C120 1.335 . S
C120 C119 1.335 . S
C120 C121 1.398 . S
C120 H142 0.930 . S
C121 C116 1.382 . S
C121 C120 1.398 . S
C121 H143 0.929 . S
C122 O132 1.271 . S
C122 O133 1.251 . S
C123 O134 1.252 . S
C123 O135 1.272 . S
O124 Sm104 2.543 . S
O124 C106 1.261 . S
O125 Sm104 2.450 . S
O125 C106 1.242 . S
O126 Sm104 2.681 1_565 S
O126 Sm105 2.386 1_465 S
O126 C113 1.271 . S
O127 Sm104 2.464 1_565 S
O127 C113 1.251 . S
O128 Sm104 2.396 . S
O128 C114 1.252 . S
O129 Sm105 2.408 1_455 S
O129 C114 1.272 . S
O130 Sm105 2.543 1_565 S
O130 C115 1.261 . S
O131 Sm105 2.450 1_565 S
O131 C115 1.242 . S
O132 Sm104 2.386 1_655 S
O132 Sm105 2.681 . S
O132 C122 1.271 . S
O133 Sm105 2.464 . S
O133 C122 1.251 . S
O134 Sm105 2.396 1_565 S
O134 C123 1.252 . S
O135 Sm104 2.408 1_665 S
O135 C123 1.272 . S
H136 C108 0.930 . S
H137 C109 0.929 . S
H138 C111 0.930 . S
H139 C112 0.929 . S
H140 C117 0.930 . S
H141 C118 0.929 . S
H142 C120 0.930 . S
H143 C121 0.929 . S
Sm144 C146 2.846 . S
Sm144 O164 2.543 . S
Sm144 O165 2.450 . S
Sm144 O166 2.681 1_545 S
Sm144 O167 2.464 1_545 S
Sm144 O168 2.396 . S
Sm144 O172 2.386 1_554 S
Sm144 O175 2.408 1_544 S
Sm145 C155 2.846 1_545 S
Sm145 O166 2.386 1_546 S
Sm145 O169 2.408 1_556 S
Sm145 O170 2.543 1_545 S
Sm145 O171 2.450 1_545 S
Sm145 O172 2.681 . S
Sm145 O173 2.464 . S
Sm145 O174 2.396 1_545 S
C146 Sm144 2.846 . S
C146 C147 1.506 . S
C146 O164 1.261 . S
C146 O165 1.242 . S
C147 C146 1.506 . S
C147 C148 1.358 . S
C147 C152 1.382 . S
C148 C147 1.358 . S
C148 C149 1.385 . S
C148 H176 0.930 . S
C149 C148 1.385 . S
C149 C150 1.395 . S
C149 H177 0.929 . S
C150 C149 1.395 . S
C150 C151 1.335 . S
C151 C150 1.335 . S
C151 C152 1.398 . S
C151 H178 0.930 . S
C152 C147 1.382 . S
C152 C151 1.398 . S
C152 H179 0.929 . S
C153 O166 1.271 . S
C153 O167 1.251 . S
C154 O168 1.252 . S
C154 O169 1.272 . S
C155 Sm145 2.846 1_565 S
C155 C156 1.506 . S
C155 O170 1.261 . S
C155 O171 1.242 . S
C156 C155 1.506 . S
C156 C157 1.358 . S
C156 C161 1.382 . S
C157 C156 1.358 . S
C157 C158 1.385 . S
C157 H180 0.930 . S
C158 C157 1.385 . S
C158 C159 1.395 . S
C158 H181 0.929 . S
C159 C158 1.395 . S
C159 C160 1.335 . S
C160 C159 1.335 . S
C160 C161 1.398 . S
C160 H182 0.930 . S
C161 C156 1.382 . S
C161 C160 1.398 . S
C161 H183 0.929 . S
C162 O172 1.271 . S
C162 O173 1.251 . S
C163 O174 1.252 . S
C163 O175 1.272 . S
O164 Sm144 2.543 . S
O164 C146 1.261 . S
O165 Sm144 2.450 . S
O165 C146 1.242 . S
O166 Sm144 2.681 1_565 S
O166 Sm145 2.386 1_564 S
O166 C153 1.271 . S
O167 Sm144 2.464 1_565 S
O167 C153 1.251 . S
O168 Sm144 2.396 . S
O168 C154 1.252 . S
O169 Sm145 2.408 1_554 S
O169 C154 1.272 . S
O170 Sm145 2.543 1_565 S
O170 C155 1.261 . S
O171 Sm145 2.450 1_565 S
O171 C155 1.242 . S
O172 Sm144 2.386 1_556 S
O172 Sm145 2.681 . S
O172 C162 1.271 . S
O173 Sm145 2.464 . S
O173 C162 1.251 . S
O174 Sm145 2.396 1_565 S
O174 C163 1.252 . S
O175 Sm144 2.408 1_566 S
O175 C163 1.272 . S
H176 C148 0.930 . S
H177 C149 0.929 . S
H178 C151 0.930 . S
H179 C152 0.929 . S
H180 C157 0.930 . S
H181 C158 0.929 . S
H182 C160 0.930 . S
H183 C161 0.929 . S
Sm184 C186 2.846 . S
Sm184 O204 2.543 . S
Sm184 O205 2.450 . S
Sm184 O206 2.681 . S
Sm184 O207 2.464 . S
Sm184 O208 2.396 . S
Sm184 O212 2.386 . S
Sm184 O215 2.408 . S
Sm185 C195 2.846 . S
Sm185 O206 2.386 . S
Sm185 O209 2.408 . S
Sm185 O210 2.543 . S
Sm185 O211 2.450 . S
Sm185 O212 2.681 . S
Sm185 O213 2.464 . S
Sm185 O214 2.396 . S
C186 Sm184 2.846 . S
C186 C187 1.506 . S
C186 O204 1.261 . S
C186 O205 1.242 . S
C187 C186 1.506 . S
C187 C188 1.358 . S
C187 C192 1.382 . S
C188 C187 1.358 . S
C188 C189 1.385 . S
C188 H216 0.930 . S
C189 C188 1.385 . S
C189 C190 1.395 . S
C189 H217 0.929 . S
C190 C189 1.395 . S
C190 C191 1.335 . S
C191 C190 1.335 . S
C191 C192 1.398 . S
C191 H218 0.930 . S
C192 C187 1.382 . S
C192 C191 1.398 . S
C192 H219 0.929 . S
C193 O206 1.271 . S
C193 O207 1.251 . S
C194 O208 1.252 . S
C194 O209 1.272 . S
C195 Sm185 2.846 . S
C195 C196 1.506 . S
C195 O210 1.261 . S
C195 O211 1.242 . S
C196 C195 1.506 . S
C196 C197 1.358 . S
C196 C201 1.382 . S
C197 C196 1.358 . S
C197 C198 1.385 . S
C197 H220 0.930 . S
C198 C197 1.385 . S
C198 C199 1.395 . S
C198 H221 0.929 . S
C199 C198 1.395 . S
C199 C200 1.335 . S
C200 C199 1.335 . S
C200 C201 1.398 . S
C200 H222 0.930 . S
C201 C196 1.382 . S
C201 C200 1.398 . S
C201 H223 0.929 . S
C202 O212 1.271 . S
C202 O213 1.251 . S
C203 O214 1.252 . S
C203 O215 1.272 . S
O204 Sm184 2.543 . S
O204 C186 1.261 . S
O205 Sm184 2.450 . S
O205 C186 1.242 . S
O206 Sm184 2.681 . S
O206 Sm185 2.386 . S
O206 C193 1.271 . S
O207 Sm184 2.464 . S
O207 C193 1.251 . S
O208 Sm184 2.396 . S
O208 C194 1.252 . S
O209 Sm185 2.408 . S
O209 C194 1.272 . S
O210 Sm185 2.543 . S
O210 C195 1.261 . S
O211 Sm185 2.450 . S
O211 C195 1.242 . S
O212 Sm184 2.386 . S
O212 Sm185 2.681 . S
O212 C202 1.271 . S
O213 Sm185 2.464 . S
O213 C202 1.251 . S
O214 Sm185 2.396 . S
O214 C203 1.252 . S
O215 Sm184 2.408 . S
O215 C203 1.272 . S
H216 C188 0.930 . S
H217 C189 0.929 . S
H218 C191 0.930 . S
H219 C192 0.929 . S
H220 C197 0.930 . S
H221 C198 0.929 . S
H222 C200 0.930 . S
H223 C201 0.929 . S
Sm224 C226 2.846 . S
Sm224 O244 2.543 . S
Sm224 O245 2.450 . S
Sm224 O246 2.681 . S
Sm224 O247 2.464 . S
Sm224 O248 2.396 . S
Sm224 O252 2.386 . S
Sm224 O255 2.408 1_455 S
Sm225 C235 2.846 1_454 S
Sm225 O246 2.386 . S
Sm225 O249 2.408 . S
Sm225 O250 2.543 1_455 S
Sm225 O251 2.450 1_454 S
Sm225 O252 2.681 . S
Sm225 O253 2.464 1_554 S
Sm225 O254 2.396 1_454 S
C226 Sm224 2.846 . S
C226 C227 1.506 . S
C226 O244 1.261 . S
C226 O245 1.242 . S
C227 C226 1.506 . S
C227 C228 1.358 . S
C227 C232 1.382 . S
C228 C227 1.358 . S
C228 C229 1.385 . S
C228 H256 0.930 . S
C229 C228 1.385 . S
C229 C230 1.395 . S
C229 H257 0.929 . S
C230 C229 1.395 . S
C230 C231 1.335 . S
C231 C230 1.335 . S
C231 C232 1.398 . S
C231 H258 0.930 . S
C232 C227 1.382 . S
C232 C231 1.398 . S
C232 H259 0.929 . S
C233 O246 1.271 1_655 S
C233 O247 1.251 1_655 S
C234 O248 1.252 . S
C234 O249 1.272 . S
C235 Sm225 2.846 1_656 S
C235 C236 1.506 . S
C235 O250 1.261 1_556 S
C235 O251 1.242 . S
C236 C235 1.506 . S
C236 C237 1.358 . S
C236 C241 1.382 . S
C237 C236 1.358 . S
C237 C238 1.385 . S
C237 H260 0.930 1_556 S
C238 C237 1.385 . S
C238 C239 1.395 . S
C238 H261 0.929 . S
C239 C238 1.395 . S
C239 C240 1.335 . S
C240 C239 1.335 . S
C240 C241 1.398 . S
C240 H262 0.930 . S
C241 C236 1.382 . S
C241 C240 1.398 . S
C241 H263 0.929 . S
C242 O252 1.271 1_556 S
C242 O253 1.251 . S
C243 O254 1.252 1_554 S
C243 O255 1.272 . S
O244 Sm224 2.543 . S
O244 C226 1.261 . S
O245 Sm224 2.450 . S
O245 C226 1.242 . S
O246 Sm224 2.681 . S
O246 Sm225 2.386 . S
O246 C233 1.271 1_455 S
O247 Sm224 2.464 . S
O247 C233 1.251 1_455 S
O248 Sm224 2.396 . S
O248 C234 1.252 . S
O249 Sm225 2.408 . S
O249 C234 1.272 . S
O250 Sm225 2.543 1_655 S
O250 C235 1.261 1_554 S
O251 Sm225 2.450 1_656 S
O251 C235 1.242 . S
O252 Sm224 2.386 . S
O252 Sm225 2.681 . S
O252 C242 1.271 1_554 S
O253 Sm225 2.464 1_556 S
O253 C242 1.251 . S
O254 Sm225 2.396 1_656 S
O254 C243 1.252 1_556 S
O255 Sm224 2.408 1_655 S
O255 C243 1.272 . S
H256 C228 0.930 . S
H257 C229 0.929 . S
H258 C231 0.930 . S
H259 C232 0.929 . S
H260 C237 0.930 1_554 S
H261 C238 0.929 . S
H262 C240 0.930 . S
H263 C241 0.929 . S
C9 C110 2.018 . S
C21 C159 2.299 . S
C194 C30 3.467 . S
C43 C233 3.393 . S
C154 C4 2.970 . S
C113 C22 1.322 . S
C243 C34 2.261 1_554 S
C202 C48 2.361 . S
C8 C230 2.198 . S
C162 C35 3.448 . S
C47 C123 4.114 . S
C17 C199 2.645 . S
C119 C60 1.403 . S
C74 C150 2.049 . S
C82 C203 2.841 . S
C100 C242 4.400 . S
C61 C163 3.513 . S
C122 C73 1.551 1_655 S
C234 C87 3.052 . S
C193 C95 2.391 . S
C56 C239 2.232 . S
C153 C86 3.682 . S
C114 C99 3.961 . S
C69 C190 1.666 . S
