# Generated by pormake.
# Topology tsx, (6,3)-cn, num edge types: 1
# Building blocks:
#     Node 0, Type 0, BuildingBlock: MIDCAF_clean_sbu_0, # of connection points: 6
#     Node 1, Type 0, BuildingBlock: MIDCAF_clean_sbu_0, # of connection points: 6
#     Node 2, Type 1, BuildingBlock: QEWDON_clean_linker_0, # of connection points: 3
#     Node 3, Type 1, BuildingBlock: QEWDON_clean_linker_0, # of connection points: 3
#     Node 4, Type 1, BuildingBlock: QEWDON_clean_linker_0, # of connection points: 3
#     Node 5, Type 1, BuildingBlock: QEWDON_clean_linker_0, # of connection points: 3
#     Edge 6, Type (0, 1), BuildingBlock: FUNLAD_clean_linker_0, # of connection points: 2
#     Edge 7, Type (0, 1), BuildingBlock: FUNLAD_clean_linker_0, # of connection points: 2
#     Edge 8, Type (0, 1), BuildingBlock: FUNLAD_clean_linker_0, # of connection points: 2
#     Edge 9, Type (0, 1), BuildingBlock: FUNLAD_clean_linker_0, # of connection points: 2
#     Edge 10, Type (0, 1), BuildingBlock: FUNLAD_clean_linker_0, # of connection points: 2
#     Edge 11, Type (0, 1), BuildingBlock: FUNLAD_clean_linker_0, # of connection points: 2
#     Edge 12, Type (0, 1), BuildingBlock: FUNLAD_clean_linker_0, # of connection points: 2
#     Edge 13, Type (0, 1), BuildingBlock: FUNLAD_clean_linker_0, # of connection points: 2
#     Edge 14, Type (0, 1), BuildingBlock: FUNLAD_clean_linker_0, # of connection points: 2
#     Edge 15, Type (0, 1), BuildingBlock: FUNLAD_clean_linker_0, # of connection points: 2
#     Edge 16, Type (0, 1), BuildingBlock: FUNLAD_clean_linker_0, # of connection points: 2
#     Edge 17, Type (0, 1), BuildingBlock: FUNLAD_clean_linker_0, # of connection points: 2
# Relax obj value: 0.092
# Max RMSD: 0.156
# Mean RMSD: 0.152
data_MOF--net-tsx--node1-MIDCAF_clean_sbu_0--node2-QEWDON_clean_linker_0--edge1-FUNLAD_clean_linker_0
_symmetry_space_group_name_H-M    P1
_symmetry_Int_Tables_number       1
_symmetry_cell_setting            triclinic
loop_
_symmetry_equiv_pos_as_xyz
'x, y, z'
_cell_length_a     24.264372
_cell_length_b     25.073272
_cell_length_c     41.254858
_cell_angle_alpha  90.20781
_cell_angle_beta   107.77831
_cell_angle_gamma 90.61458
loop_
_atom_site_label
_atom_site_type_symbol
_atom_site_fract_x
_atom_site_fract_y
_atom_site_fract_z
_atom_type_partial_charge
Zn0 Zn 0.97758 0.9733 0.95143 0.0
Zn1 Zn 0.16132 0.00528 0.03728 0.0
Zn2 Zn 0.06789 0.99378 -0.00402 0.0
C3 C 0.13612 0.10158 0.00526 0.0
C4 C 0.18091 0.92551 -0.00039 0.0
O5 O 0.01398 0.93958 0.01799 0.0
O6 O 0.95651 0.90644 0.96986 0.0
C7 C 0.97127 0.0788 0.97205 0.0
O8 O 0.08525 0.08065 -0.00081 0.0
O9 O 0.18025 0.07342 0.01782 0.0
O10 O 0.19977 0.93919 0.03048 0.0
O11 O 0.13494 0.94766 0.98013 0.0
O12 O 0.93849 0.03968 0.95931 0.0
O13 O 0.02633 0.0721 0.98366 0.0
O14 O 0.09108 0.96141 0.95184 0.0
O15 O 1.0068 0.96838 0.91186 0.0
C16 C 0.06044 0.95993 0.92022 0.0
O17 O 0.05654 0.96591 0.04419 0.0
O18 O 0.13373 0.00777 0.07754 0.0
C19 C 0.97498 0.90524 0.00194 0.0
C20 C 0.08681 0.98276 0.07391 0.0
Zn21 Zn 0.67094 0.51194 0.54903 0.0
Zn22 Zn 0.46551 0.49869 0.45155 0.0
Zn23 Zn 0.56804 0.51185 0.50067 0.0
C24 C 0.54835 0.45568 0.42607 0.0
C25 C 0.49206 0.60994 0.46454 0.0
O26 O 0.55656 0.47809 0.54762 0.0
O27 O 0.64425 0.47766 0.58504 0.0
C28 C 0.68511 0.4527 0.49548 0.0
O29 O 0.58076 0.47157 0.45557 0.0
O30 O 0.49412 0.46055 0.41789 0.0
O31 O 0.45483 0.57754 0.44649 0.0
O32 O 0.53844 0.59298 0.48644 0.0
O33 O 0.71438 0.46908 0.5247 0.0
O34 O 0.63132 0.46514 0.48313 0.0
O35 O 0.59576 0.59692 0.50868 0.0
O36 O 0.67982 0.59091 0.54908 0.0
C37 C 0.6418 0.6191 0.52877 0.0
O38 O 0.50464 0.46965 0.5215 0.0
O39 O 0.42424 0.45808 0.47843 0.0
C40 C 0.5906 0.46815 0.57765 0.0
C41 C 0.45228 0.45169 0.50937 0.0
H42 H 0.05341 0.07995 0.37687 0.0
C43 C 0.08707 0.05187 0.38859 0.0
C44 C 0.11624 0.02718 0.36813 0.0
C45 C 0.10316 0.04189 0.42393 0.0
H46 H 0.18514 0.97473 0.36692 0.0
C47 C 0.16256 0.9934 0.38289 0.0
C48 C 0.17915 0.98246 0.41773 0.0
C49 C 0.14816 0.00535 0.43781 0.0
C50 C 0.07523 0.07061 0.44669 0.0
H51 H 0.16029 0.99508 0.46447 0.0
C52 C 0.01849 0.09111 0.43425 0.0
C53 C 0.99362 0.11803 0.45621 0.0
C54 C 0.10612 0.07886 0.48145 0.0
H55 H 0.15062 0.06685 0.49211 0.0
C56 C 0.0806 0.10405 0.50325 0.0
H57 H 0.99313 0.08604 0.40784 0.0
C58 C 0.02477 0.12343 0.49073 0.0
H59 H 1.00638 0.14439 0.50773 0.0
H60 H 0.10465 0.10943 0.52988 0.0
H61 H 0.02407 0.12989 0.63209 0.0
C62 C 0.99951 0.0986 0.61552 0.0
C63 C 0.99045 0.04959 0.62951 0.0
C64 C 0.97309 0.10855 0.58062 0.0
H65 H 0.95008 0.97193 0.61924 0.0
C66 C 0.95739 0.00967 0.60831 0.0
C67 C 0.93099 0.01863 0.57363 0.0
C68 C 0.93836 0.06825 0.55986 0.0
C69 C 0.97863 0.16192 0.56626 0.0
H70 H 0.91728 0.07529 0.5331 0.0
C71 C 0.03285 0.18824 0.57355 0.0
C72 C 0.03779 0.23805 0.55878 0.0
C73 C 0.92937 0.18644 0.5445 0.0
H74 H 0.88711 0.16748 0.53869 0.0
C75 C 0.93399 0.23573 0.52999 0.0
H76 H 0.07114 0.16958 0.59015 0.0
C77 C 0.98767 0.26131 0.53693 0.0
H78 H 0.99007 0.29899 0.52464 0.0
H79 H 0.89583 0.25404 0.51306 0.0
H80 H 0.5865 0.59165 0.8634 0.0
C81 C 0.61325 0.56091 0.8786 0.0
C82 C 0.61905 0.51164 0.86356 0.0
C83 C 0.64516 0.57213 0.9127 0.0
H84 H 0.65891 0.4343 0.87273 0.0
C85 C 0.65478 0.47282 0.88372 0.0
C86 C 0.68805 0.48386 0.91734 0.0
C87 C 0.68332 0.53367 0.9317 0.0
C88 C 0.64112 0.62502 0.92803 0.0
H89 H 0.70901 0.54226 0.95774 0.0
C90 C 0.58691 0.6472 0.9256 0.0
C91 C 0.5834 0.69653 0.9413 0.0
C92 C 0.69184 0.6532 0.9457 0.0
H93 H 0.73405 0.6373 0.94765 0.0
C94 C 0.68859 0.70252 0.96067 0.0
H95 H 0.54765 0.62517 0.91259 0.0
C96 C 0.63491 0.72399 0.95868 0.0
H97 H 0.63373 0.76234 0.97062 0.0
H98 H 0.72787 0.72416 0.97396 0.0
H99 H 0.5464 0.57362 0.13996 0.0
C100 C 0.51494 0.54837 0.12195 0.0
C101 C 0.49341 0.50225 0.13339 0.0
C102 C 0.49201 0.56446 0.08784 0.0
H103 H 0.43496 0.435 0.11858 0.0
C104 C 0.45099 0.47117 0.11003 0.0
C105 C 0.42748 0.48681 0.07608 0.0
C106 C 0.44845 0.53338 0.06498 0.0
C107 C 0.5079 0.61717 0.0772 0.0
H108 H 0.42952 0.54649 0.03896 0.0
C109 C 0.56526 0.6294 0.07847 0.0
C110 C 0.57979 0.68043 0.06909 0.0
C111 C 0.46514 0.6561 0.06642 0.0
H112 H 0.42076 0.64744 0.06533 0.0
C113 C 0.47947 0.70687 0.05767 0.0
H114 H 0.59828 0.59931 0.08665 0.0
C115 C 0.5364 0.71915 0.05919 0.0
H116 H 0.54618 0.75869 0.05182 0.0
H117 H 0.44633 0.73679 0.04962 0.0
C118 C 0.18612 0.17183 0.98243 0.0
C119 C 0.14491 0.15809 -0.00142 0.0
C120 C 0.2042 0.22474 0.98183 0.0
C121 C 0.18224 0.26508 -0.00182 0.0
C122 C 0.13781 0.25149 0.01219 0.0
C123 C 0.11937 0.19842 0.01247 0.0
C124 C 0.20875 0.31965 0.005 0.0
C125 C 0.25886 0.33412 -0.00065 0.0
C126 C 0.29477 0.38111 0.01583 0.0
C127 C 0.33975 0.39878 0.00342 0.0
C128 C 0.38127 0.43579 0.02189 0.0
C129 C 0.37889 0.45522 0.05336 0.0
H130 H 0.25788 0.3903 0.05749 0.0
C131 C 0.33219 0.44 0.06482 0.0
C132 C 0.29069 0.40333 0.04639 0.0
H133 H 0.32914 0.45483 0.08891 0.0
H134 H 0.20613 0.14117 0.97138 0.0
H135 H 0.23707 0.23271 0.96975 0.0
H136 H 0.11968 0.2815 0.02479 0.0
H137 H 0.08796 0.18854 0.02543 0.0
H138 H 0.18899 0.34714 0.01841 0.0
H139 H 0.27781 0.30869 0.98446 0.0
H140 H 0.34428 0.38211 0.98011 0.0
H141 H 0.41695 0.44683 0.01256 0.0
C142 C 0.22406 0.89017 0.95557 0.0
C143 C 0.2136 0.88518 0.98707 0.0
C144 C 0.26461 0.85726 0.94747 0.0
C145 C 0.29469 0.81842 0.97073 0.0
C146 C 0.28083 0.81152 0.00109 0.0
C147 C 0.24116 0.84456 0.00924 0.0
C148 C 0.34469 0.78789 0.96678 0.0
C149 C 0.36385 0.7886 0.93936 0.0
C150 C 0.41958 0.76349 0.9401 0.0
C151 C 0.4264 0.741 0.91035 0.0
C152 C 0.47919 0.71837 0.91068 0.0
C153 C 0.52652 0.71885 0.94066 0.0
H154 H 0.46415 0.78261 0.99312 0.0
C155 C 0.5197 0.74188 0.97025 0.0
C156 C 0.46706 0.764 0.97 0.0
H157 H 0.55528 0.74282 0.99371 0.0
H158 H 0.20386 0.92158 0.93824 0.0
H159 H 0.2739 0.86426 0.92383 0.0
H160 H 0.30281 0.78194 0.01947 0.0
H161 H 0.23364 0.83959 0.03364 0.0
H162 H 0.36869 0.76463 0.98863 0.0
H163 H 0.33898 0.80767 0.916 0.0
H164 H 0.39078 0.74074 0.88687 0.0
H165 H 0.48333 0.7015 0.88735 0.0
C166 C 0.9043 0.83137 0.00013 0.0
C167 C 0.94629 0.86754 0.01963 0.0
C168 C 0.86966 0.80151 0.01492 0.0
C169 C 0.87625 0.80656 0.04986 0.0
C170 C 0.92027 0.8405 0.06978 0.0
C171 C 0.9554 0.87022 0.05488 0.0
C172 C 0.83348 0.78224 0.06497 0.0
C173 C 0.79952 0.73993 0.05097 0.0
C174 C 0.74723 0.72287 0.06019 0.0
C175 C 0.7186 0.75743 0.07655 0.0
C176 C 0.66536 0.74269 0.08058 0.0
C177 C 0.6393 0.69327 0.0683 0.0
H178 H 0.74236 0.64567 0.03567 0.0
C179 C 0.66862 0.65806 0.05292 0.0
C180 C 0.72185 0.67283 0.0488 0.0
H181 H 0.64925 0.62004 0.04273 0.0
H182 H 0.89612 0.82769 0.97287 0.0
H183 H 0.83564 0.77702 -0.0017 0.0
H184 H 0.92638 0.84528 0.09678 0.0
H185 H 0.98801 0.89655 0.07069 0.0
H186 H 0.82834 0.80158 0.08743 0.0
H187 H 0.80887 0.71758 0.03072 0.0
H188 H 0.73552 0.79686 0.08498 0.0
H189 H 0.64388 0.7706 0.09265 0.0
C190 C 0.96914 0.17928 0.9715 0.0
C191 C 0.9445 0.13004 0.97592 0.0
C192 C 0.94035 0.22698 0.97335 0.0
C193 C 0.88638 0.22588 0.97976 0.0
C194 C 0.86328 0.17643 0.9853 0.0
C195 C 0.89166 0.12922 0.98317 0.0
C196 C 0.85007 0.27379 0.97883 0.0
C197 C 0.85944 0.32218 0.96728 0.0
C198 C 0.8146 0.36435 0.95957 0.0
C199 C 0.8314 0.4182 0.95996 0.0
C200 C 0.78983 0.45787 0.94849 0.0
C201 C 0.7308 0.44415 0.93584 0.0
H202 H 0.74025 0.31012 0.94656 0.0
C203 C 0.71383 0.39064 0.93661 0.0
C204 C 0.75514 0.35117 0.9483 0.0
H205 H 0.66859 0.37905 0.92676 0.0
H206 H 1.00939 0.18075 0.96534 0.0
H207 H 0.96023 0.26403 0.9692 0.0
H208 H 0.82204 0.17403 0.99035 0.0
H209 H 0.87187 0.09177 0.98701 0.0
H210 H 0.81091 0.26761 0.98594 0.0
H211 H 0.89928 0.33088 0.96152 0.0
H212 H 0.87683 0.42942 0.96816 0.0
H213 H 0.80405 0.49882 0.94769 0.0
C214 C 0.69568 0.7012 0.55504 0.0
C215 C 0.65449 0.67685 0.52714 0.0
C216 C 0.71748 0.752 0.55225 0.0
C217 C 0.69863 0.77999 0.52149 0.0
C218 C 0.65419 0.75773 0.49432 0.0
C219 C 0.63264 0.70618 0.49699 0.0
C220 C 0.72749 0.83119 0.51771 0.0
C221 C 0.78574 0.83548 0.529 0.0
C222 C 0.82034 0.88572 0.53211 0.0
C223 C 0.88076 0.88133 0.54047 0.0
C224 C 0.9168 0.92588 0.55107 0.0
C225 C 0.89323 0.97604 0.55328 0.0
H226 H 0.75027 0.94194 0.52592 0.0
C227 C 0.83281 0.98167 0.54229 0.0
C228 C 0.79648 0.9368 0.53184 0.0
H229 H 0.81379 0.01996 0.5443 0.0
H230 H 0.71295 0.68005 0.57878 0.0
H231 H 0.75043 0.76886 0.57398 0.0
H232 H 0.63852 0.77888 0.47047 0.0
H233 H 0.60158 0.68829 0.4749 0.0
H234 H 0.701 0.86447 0.50562 0.0
H235 H 0.81016 0.7995 0.53816 0.0
H236 H 0.90047 0.84265 0.54087 0.0
H237 H 0.96327 0.92058 0.55967 0.0
C238 C 0.684 0.37479 0.45687 0.0
C239 C 0.71346 0.41835 0.47631 0.0
C240 C 0.71375 0.33854 0.44256 0.0
C241 C 0.77342 0.34555 0.44742 0.0
C242 C 0.80176 0.3908 0.46523 0.0
C243 C 0.77232 0.42645 0.47984 0.0
C244 C 0.80869 0.30552 0.43623 0.0
C245 C 0.79773 0.25263 0.43555 0.0
C246 C 0.84195 0.21272 0.43427 0.0
C247 C 0.84573 0.16574 0.45319 0.0
C248 C 0.89313 0.13219 0.45809 0.0
C249 C 0.93703 0.14452 0.44363 0.0
H250 H 0.88092 0.25761 0.40176 0.0
C251 C 0.93069 0.18869 0.42209 0.0
C252 C 0.88349 0.22261 0.41741 0.0
H253 H 0.9642 0.199 0.41077 0.0
H254 H 0.63871 0.36741 0.45402 0.0
H255 H 0.69024 0.30472 0.42829 0.0
H256 H 0.84757 0.39739 0.46917 0.0
H257 H 0.79599 0.45988 0.49456 0.0
H258 H 0.8496 0.31953 0.43357 0.0
H259 H 0.75964 0.2382 0.44156 0.0
H260 H 0.81412 0.15686 0.4662 0.0
H261 H 0.89717 0.09815 0.47467 0.0
C262 C 0.38865 0.4489 0.54652 0.0
C263 C 0.42404 0.4221 0.53074 0.0
C264 C 0.35115 0.4202 0.56011 0.0
C265 C 0.34759 0.36407 0.55745 0.0
C266 C 0.38618 0.33745 0.54373 0.0
C267 C 0.42375 0.36622 0.53025 0.0
C268 C 0.302 0.33217 0.56639 0.0
C269 C 0.25002 0.35229 0.56523 0.0
C270 C 0.19933 0.32033 0.56802 0.0
C271 C 0.15113 0.34799 0.57114 0.0
C272 C 0.09971 0.32101 0.56961 0.0
C273 C 0.09489 0.26544 0.5648 0.0
H274 H 0.23078 0.2411 0.56161 0.0
C275 C 0.14378 0.23722 0.56321 0.0
C276 C 0.19538 0.26428 0.56464 0.0
H277 H 0.14139 0.19446 0.55927 0.0
H278 H 0.38813 0.4921 0.54697 0.0
H279 H 0.32397 0.44229 0.57171 0.0
H280 H 0.38498 0.29433 0.54165 0.0
H281 H 0.45033 0.34486 0.5178 0.0
H282 H 0.31005 0.29001 0.57106 0.0
H283 H 0.24238 0.39441 0.56001 0.0
H284 H 0.15264 0.39103 0.57386 0.0
H285 H 0.06319 0.34391 0.57147 0.0
C286 C 0.48519 0.69945 0.48977 0.0
C287 C 0.47925 0.66718 0.46099 0.0
C288 C 0.46158 0.75065 0.48603 0.0
C289 C 0.43271 0.77031 0.4534 0.0
C290 C 0.43125 0.73951 0.42471 0.0
C291 C 0.45348 0.68809 0.42846 0.0
C292 C 0.3999 0.82068 0.4481 0.0
C293 C 0.36775 0.83539 0.46803 0.0
C294 C 0.32268 0.87703 0.45772 0.0
C295 C 0.27302 0.87246 0.46829 0.0
C296 C 0.22677 0.90731 0.45597 0.0
C297 C 0.22951 0.94768 0.43296 0.0
H298 H 0.36505 0.92536 0.42845 0.0
C299 C 0.28045 0.954 0.42382 0.0
C300 C 0.32664 0.91925 0.43615 0.0
H301 H 0.28445 0.98571 0.40688 0.0
H302 H 0.50496 0.68398 0.5151 0.0
H303 H 0.46445 0.77412 0.50858 0.0
H304 H 0.40971 0.75397 0.39932 0.0
H305 H 0.44868 0.66389 0.40593 0.0
H306 H 0.39468 0.84102 0.42417 0.0
H307 H 0.36879 0.81142 0.49011 0.0
H308 H 0.269 0.84052 0.48509 0.0
H309 H 0.18813 0.90146 0.46351 0.0
C310 C 0.10991 0.96176 0.13491 0.0
C311 C 0.06817 0.97544 0.10435 0.0
C312 C 0.09822 0.96679 0.16574 0.0
C313 C 0.0447 0.98635 0.16673 0.0
C314 C 1.00113 0.99601 0.13599 0.0
C315 C 0.013 0.99108 0.10487 0.0
C316 C 0.03617 0.99944 0.19996 0.0
C317 C 0.07852 0.0251 0.22413 0.0
C318 C 0.08078 0.03342 0.26023 0.0
C319 C 0.13122 0.0572 0.28216 0.0
C320 C 0.14092 0.05831 0.31722 0.0
C321 C 0.09996 0.03637 0.33114 0.0
H322 H 0.99839 0.99593 0.25825 0.0
C323 C 0.04756 0.01601 0.30936 0.0
C324 C 0.03799 0.0143 0.27409 0.0
H325 H 0.01564 0.9985 0.31977 0.0
H326 H 0.15271 0.94954 0.13509 0.0
H327 H 0.13199 0.95738 0.18901 0.0
H328 H 0.95933 0.01047 0.13618 0.0
H329 H 0.9804 1.00237 0.08154 0.0
H330 H 0.99558 0.98816 0.20405 0.0
H331 H 0.1164 0.03856 0.21742 0.0
H332 H 0.16486 0.07254 0.27233 0.0
H333 H 0.1817 0.07406 0.33364 0.0
C334 C 0.06108 0.92014 0.86552 0.0
C335 C 0.08706 0.95451 0.89288 0.0
C336 C 0.0711 0.92729 0.8343 0.0
C337 C 0.10588 0.9701 0.82968 0.0
C338 C 0.13733 1.00036 0.85816 0.0
C339 C 0.12789 0.99265 0.88969 0.0
C340 C 0.10248 0.9883 0.79488 0.0
C341 C 0.0507 0.98911 0.77053 0.0
C342 C 0.03878 0.01005 0.73543 0.0
C343 C 0.98048 0.01412 0.71584 0.0
C344 C 0.96545 0.02938 0.68194 0.0
C345 C 1.00831 0.04111 0.66665 0.0
H346 H 0.12751 0.02089 0.73466 0.0
C347 C 0.06681 0.03942 0.68627 0.0
C348 C 0.08211 0.02375 0.72052 0.0
H349 H 0.10049 0.04801 0.67477 0.0
H350 H 0.02958 0.89038 0.86753 0.0
H351 H 0.04796 0.90198 0.81307 0.0
H352 H 0.16497 0.0331 0.85532 0.0
H353 H 0.14804 0.01986 0.91051 0.0
H354 H 0.14059 0.00611 0.79062 0.0
H355 H 0.01298 0.97501 0.77715 0.0
H356 H 0.94609 0.00423 0.72655 0.0
H357 H 0.92003 0.03064 0.66728 0.0
C358 C 0.52014 0.47635 0.61054 0.0
C359 C 0.56747 0.45041 0.60494 0.0
C360 C 0.50748 0.46919 0.6412 0.0
C361 C 0.54179 0.43546 0.6664 0.0
C362 C 0.58534 0.40572 0.65913 0.0
C363 C 0.59865 0.41371 0.62893 0.0
C364 C 0.53911 0.43453 0.70186 0.0
C365 C 0.52608 0.47763 0.71763 0.0
C366 C 0.54715 0.4833 0.75529 0.0
C367 C 0.51568 0.51248 0.77266 0.0
C368 C 0.53812 0.52125 0.80793 0.0
C369 C 0.59301 0.50185 0.82627 0.0
H370 H 0.62886 0.44404 0.76091 0.0
C371 C 0.62469 0.47376 0.80845 0.0
C372 C 0.60204 0.46437 0.77363 0.0
H373 H 0.66807 0.46011 0.82119 0.0
H374 H 0.49576 0.50514 0.59241 0.0
H375 H 0.47263 0.4917 0.64563 0.0
H376 H 0.61212 0.37914 0.67796 0.0
H377 H 0.63527 0.39319 0.62509 0.0
H378 H 0.55846 0.40045 0.71721 0.0
H379 H 0.50589 0.51206 0.7031 0.0
H380 H 0.47379 0.52848 0.75893 0.0
H381 H 0.51254 0.54313 0.82076 0.0
C382 C 0.54473 0.40199 0.3748 0.0
C383 C 0.57368 0.43984 0.39934 0.0
C384 C 0.55623 0.3989 0.34373 0.0
C385 C 0.59542 0.43504 0.33624 0.0
C386 C 0.62966 0.46802 0.36243 0.0
C387 C 0.61895 0.47034 0.39391 0.0
C388 C 0.59486 0.44442 0.3005 0.0
C389 C 0.5446 0.44167 0.27486 0.0
C390 C 0.53524 0.45855 0.23906 0.0
C391 C 0.47775 0.46057 0.21792 0.0
C392 C 0.46485 0.47574 0.1841 0.0
C393 C 0.50913 0.489 0.17012 0.0
H394 H 0.62493 0.4716 0.24074 0.0
C395 C 0.56692 0.48813 0.19117 0.0
C396 C 0.58002 0.47279 0.22542 0.0
H397 H 0.60186 0.49814 0.18097 0.0
H398 H 0.51036 0.37738 0.3787 0.0
H399 H 0.53125 0.37088 0.32472 0.0
H400 H 0.66098 0.49546 0.35758 0.0
H401 H 0.64208 0.4997 0.4126 0.0
H402 H 0.63376 0.46027 0.29617 0.0
H403 H 0.50574 0.42955 0.28089 0.0
H404 H 0.4422 0.4504 0.22761 0.0
H405 H 0.4198 0.4771 0.16879 0.0
loop_
_geom_bond_atom_site_label_1
_geom_bond_atom_site_label_2
_geom_bond_distance
_geom_bond_site_symmetry_2
_ccdc_geom_bond_type
Zn0 O6 1.920 1_545 S
Zn0 O12 1.898 . S
Zn0 O15 1.905 1_545 S
Zn1 O9 1.905 . S
Zn1 O10 1.898 1_545 S
Zn1 O18 1.920 1_545 S
Zn2 O5 2.080 1_444 S
Zn2 O8 2.114 . S
Zn2 O11 2.120 1_545 S
Zn2 O13 2.120 1_455 S
Zn2 O14 2.114 1_554 S
Zn2 O17 2.080 . S
C3 O8 1.166 . S
C3 O9 1.182 . S
C4 O10 1.167 . S
C4 O11 1.299 . S
O5 Zn2 2.080 1_666 S
O5 C19 1.305 . S
O6 Zn0 1.920 1_565 S
O6 C19 1.234 . S
C7 O12 1.167 . S
C7 O13 1.299 1_556 S
O8 Zn2 2.114 . S
O8 C3 1.166 . S
O9 Zn1 1.905 . S
O9 C3 1.182 . S
O10 Zn1 1.898 1_565 S
O10 C4 1.167 . S
O11 Zn2 2.120 1_565 S
O11 C4 1.299 . S
O12 Zn0 1.898 . S
O12 C7 1.167 . S
O13 Zn2 2.120 1_655 S
O13 C7 1.299 1_554 S
O14 Zn2 2.114 1_556 S
O14 C16 1.166 1_545 S
O15 Zn0 1.905 1_565 S
O15 C16 1.182 1_655 S
C16 O14 1.166 1_565 S
C16 O15 1.182 1_455 S
O17 Zn2 2.080 . S
O17 C20 1.305 1_545 S
O18 Zn1 1.920 1_565 S
O18 C20 1.234 . S
C19 O5 1.305 . S
C19 O6 1.234 . S
C20 O17 1.305 1_565 S
C20 O18 1.234 . S
Zn21 O27 1.920 . S
Zn21 O33 1.898 . S
Zn21 O36 1.905 . S
Zn22 O30 1.905 . S
Zn22 O31 1.898 . S
Zn22 O39 1.920 . S
Zn23 O26 2.080 . S
Zn23 O29 2.114 . S
Zn23 O32 2.120 . S
Zn23 O34 2.120 . S
Zn23 O35 2.114 . S
Zn23 O38 2.080 . S
C24 O29 1.166 . S
C24 O30 1.182 . S
C25 O31 1.167 . S
C25 O32 1.299 . S
O26 Zn23 2.080 . S
O26 C40 1.305 . S
O27 Zn21 1.920 . S
O27 C40 1.234 . S
C28 O33 1.167 . S
C28 O34 1.299 . S
O29 Zn23 2.114 . S
O29 C24 1.166 . S
O30 Zn22 1.905 . S
O30 C24 1.182 . S
O31 Zn22 1.898 . S
O31 C25 1.167 . S
O32 Zn23 2.120 . S
O32 C25 1.299 . S
O33 Zn21 1.898 . S
O33 C28 1.167 . S
O34 Zn23 2.120 . S
O34 C28 1.299 . S
O35 Zn23 2.114 . S
O35 C37 1.166 . S
O36 Zn21 1.905 . S
O36 C37 1.182 . S
C37 O35 1.166 . S
C37 O36 1.182 . S
O38 Zn23 2.080 . S
O38 C41 1.305 . S
O39 Zn22 1.920 . S
O39 C41 1.234 . S
C40 O26 1.305 . S
C40 O27 1.234 . S
C41 O38 1.305 . S
C41 O39 1.234 . S
H42 C43 0.949 . S
C43 H42 0.949 . S
C43 C44 1.395 . S
C43 C45 1.391 . S
C44 C43 1.395 . S
C44 C47 1.390 1_545 S
C45 C43 1.391 . S
C45 C49 1.387 . S
C45 C50 1.491 . S
H46 C47 0.950 . S
C47 C44 1.390 1_565 S
C47 H46 0.950 . S
C47 C48 1.378 . S
C48 C47 1.378 . S
C48 C49 1.409 1_565 S
C49 C45 1.387 . S
C49 C48 1.409 1_545 S
C49 H51 0.951 . S
C50 C45 1.491 . S
C50 C52 1.382 . S
C50 C54 1.404 . S
H51 C49 0.951 . S
C52 C50 1.382 . S
C52 C53 1.390 . S
C52 H57 0.949 . S
C53 C52 1.390 . S
C53 C58 1.399 . S
C54 C50 1.404 . S
C54 H55 0.950 . S
C54 C56 1.375 . S
H55 C54 0.950 . S
C56 C54 1.375 . S
C56 C58 1.382 . S
C56 H60 0.950 . S
H57 C52 0.949 . S
C58 C53 1.399 . S
C58 C56 1.382 . S
C58 H59 0.952 . S
H59 C58 0.952 . S
H60 C56 0.950 . S
H61 C62 0.949 . S
C62 H61 0.949 . S
C62 C63 1.395 1_455 S
C62 C64 1.391 1_455 S
C63 C62 1.395 1_655 S
C63 C66 1.390 1_545 S
C64 C62 1.391 1_655 S
C64 C68 1.387 . S
C64 C69 1.491 1_655 S
H65 C66 0.950 . S
C66 C63 1.390 1_565 S
C66 H65 0.950 . S
C66 C67 1.378 . S
C67 C66 1.378 . S
C67 C68 1.409 1_565 S
C68 C64 1.387 . S
C68 C67 1.409 1_545 S
C68 H70 0.951 . S
C69 C64 1.491 1_455 S
C69 C71 1.382 . S
C69 C73 1.404 1_455 S
H70 C68 0.951 . S
C71 C69 1.382 . S
C71 C72 1.390 . S
C71 H76 0.949 . S
C72 C71 1.390 . S
C72 C77 1.399 . S
C73 C69 1.404 1_655 S
C73 H74 0.950 . S
C73 C75 1.375 . S
H74 C73 0.950 . S
C75 C73 1.375 . S
C75 C77 1.382 1_655 S
C75 H79 0.950 . S
H76 C71 0.949 . S
C77 C72 1.399 . S
C77 C75 1.382 1_455 S
C77 H78 0.952 . S
H78 C77 0.952 . S
H79 C75 0.950 . S
H80 C81 0.949 . S
C81 H80 0.949 . S
C81 C82 1.395 . S
C81 C83 1.391 . S
C82 C81 1.395 . S
C82 C85 1.390 . S
C83 C81 1.391 . S
C83 C87 1.387 . S
C83 C88 1.491 . S
H84 C85 0.950 . S
C85 C82 1.390 . S
C85 H84 0.950 . S
C85 C86 1.378 . S
C86 C85 1.378 . S
C86 C87 1.409 . S
C87 C83 1.387 . S
C87 C86 1.409 . S
C87 H89 0.951 . S
C88 C83 1.491 . S
C88 C90 1.382 . S
C88 C92 1.404 . S
H89 C87 0.951 . S
C90 C88 1.382 . S
C90 C91 1.390 . S
C90 H95 0.949 . S
C91 C90 1.390 . S
C91 C96 1.399 1_556 S
C92 C88 1.404 . S
C92 H93 0.950 1_556 S
C92 C94 1.375 1_556 S
H93 C92 0.950 1_554 S
C94 C92 1.375 1_554 S
C94 C96 1.382 . S
C94 H98 0.950 . S
H95 C90 0.949 . S
C96 C91 1.399 1_554 S
C96 C94 1.382 . S
C96 H97 0.952 . S
H97 C96 0.952 . S
H98 C94 0.950 . S
H99 C100 0.949 . S
C100 H99 0.949 . S
C100 C101 1.395 . S
C100 C102 1.391 . S
C101 C100 1.395 . S
C101 C104 1.390 . S
C102 C100 1.391 . S
C102 C106 1.387 . S
C102 C107 1.491 . S
H103 C104 0.950 . S
C104 C101 1.390 . S
C104 H103 0.950 . S
C104 C105 1.378 . S
C105 C104 1.378 . S
C105 C106 1.409 . S
C106 C102 1.387 . S
C106 C105 1.409 . S
C106 H108 0.951 . S
C107 C102 1.491 . S
C107 C109 1.382 . S
C107 C111 1.404 . S
H108 C106 0.951 . S
C109 C107 1.382 . S
C109 C110 1.390 . S
C109 H114 0.949 . S
C110 C109 1.390 . S
C110 C115 1.399 . S
C111 C107 1.404 . S
C111 H112 0.950 . S
C111 C113 1.375 1_554 S
H112 C111 0.950 . S
C113 C111 1.375 1_556 S
C113 C115 1.382 1_556 S
C113 H117 0.950 . S
H114 C109 0.949 . S
C115 C110 1.399 . S
C115 C113 1.382 1_554 S
C115 H116 0.952 1_554 S
H116 C115 0.952 1_556 S
H117 C113 0.950 . S
C118 C119 1.386 . S
C118 C120 1.383 . S
C118 H134 0.951 1_554 S
C119 C118 1.386 . S
C119 C123 1.383 . S
C120 C118 1.383 . S
C120 C121 1.402 . S
C120 H135 0.951 . S
C121 C120 1.402 . S
C121 C122 1.375 . S
C121 C124 1.481 . S
C122 C121 1.375 . S
C122 C123 1.367 . S
C122 H136 0.951 . S
C123 C119 1.383 . S
C123 C122 1.367 . S
C123 H137 0.950 . S
C124 C121 1.481 . S
C124 C125 1.297 . S
C124 H138 0.950 . S
C125 C124 1.297 . S
C125 C126 1.479 . S
C125 H139 0.950 . S
C126 C125 1.479 . S
C126 C127 1.375 . S
C126 C132 1.404 . S
C127 C126 1.375 . S
C127 C128 1.369 . S
C127 H140 0.950 . S
C128 C127 1.369 . S
C128 C129 1.392 . S
C128 H141 0.951 . S
C129 C128 1.392 . S
C129 C131 1.384 . S
H130 C132 0.949 . S
C131 C129 1.384 . S
C131 C132 1.385 . S
C131 H133 0.950 . S
C132 C126 1.404 . S
C132 H130 0.949 . S
C132 C131 1.385 . S
H133 C131 0.950 . S
H134 C118 0.951 1_556 S
H135 C120 0.951 . S
H136 C122 0.951 . S
H137 C123 0.950 . S
H138 C124 0.950 . S
H139 C125 0.950 . S
H140 C127 0.950 . S
H141 C128 0.951 . S
C142 C143 1.386 . S
C142 C144 1.383 . S
C142 H158 0.951 . S
C143 C142 1.386 . S
C143 C147 1.383 1_556 S
C144 C142 1.383 . S
C144 C145 1.419 . S
C144 H159 0.951 . S
C145 C144 1.419 . S
C145 C146 1.352 1_556 S
C145 C148 1.492 1_556 S
C146 C145 1.352 1_554 S
C146 C147 1.367 . S
C146 H160 0.951 . S
C147 C143 1.383 1_554 S
C147 C146 1.367 . S
C147 H161 0.950 . S
C148 C145 1.492 1_554 S
C148 C149 1.275 1_554 S
C148 H162 0.969 . S
C149 C148 1.275 1_556 S
C149 C150 1.479 . S
C149 H163 0.950 . S
C150 C149 1.479 . S
C150 C151 1.375 . S
C150 C156 1.404 1_556 S
C151 C150 1.375 . S
C151 C152 1.369 . S
C151 H164 0.950 . S
C152 C151 1.369 . S
C152 C153 1.392 . S
C152 H165 0.951 . S
C153 C152 1.392 . S
C153 C155 1.387 1_556 S
H154 C156 0.949 . S
C155 C153 1.387 1_554 S
C155 C156 1.384 . S
C155 H157 0.948 . S
C156 C150 1.404 1_554 S
C156 H154 0.949 . S
C156 C155 1.384 . S
H157 C155 0.948 . S
H158 C142 0.951 . S
H159 C144 0.951 . S
H160 C146 0.951 . S
H161 C147 0.950 . S
H162 C148 0.969 . S
H163 C149 0.950 . S
H164 C151 0.950 . S
H165 C152 0.951 . S
C166 C167 1.386 1_556 S
C166 C168 1.383 . S
C166 H182 0.951 . S
C167 C166 1.386 1_554 S
C167 C171 1.383 . S
C168 C166 1.383 . S
C168 C169 1.402 1_556 S
C168 H183 0.951 . S
C169 C168 1.402 1_554 S
C169 C170 1.375 . S
C169 C172 1.481 . S
C170 C169 1.375 . S
C170 C171 1.367 . S
C170 H184 0.951 . S
C171 C167 1.383 . S
C171 C170 1.367 . S
C171 H185 0.950 . S
C172 C169 1.481 . S
C172 C173 1.297 . S
C172 H186 0.950 . S
C173 C172 1.297 . S
C173 C174 1.479 . S
C173 H187 0.950 1_554 S
C174 C173 1.479 . S
C174 C175 1.375 . S
C174 C180 1.404 . S
C175 C174 1.375 . S
C175 C176 1.369 . S
C175 H188 0.950 1_554 S
C176 C175 1.369 . S
C176 C177 1.392 . S
C176 H189 0.951 1_554 S
C177 C176 1.392 . S
C177 C179 1.384 . S
H178 C180 0.949 . S
C179 C177 1.384 . S
C179 C180 1.385 . S
C179 H181 0.950 . S
C180 C174 1.404 . S
C180 H178 0.949 . S
C180 C179 1.385 . S
H181 C179 0.950 . S
H182 C166 0.951 . S
H183 C168 0.951 . S
H184 C170 0.951 . S
H185 C171 0.950 . S
H186 C172 0.950 . S
H187 C173 0.950 1_556 S
H188 C175 0.950 1_556 S
H189 C176 0.951 1_556 S
C190 C191 1.386 . S
C190 C192 1.383 . S
C190 H206 0.951 . S
C191 C190 1.386 . S
C191 C195 1.383 . S
C192 C190 1.383 . S
C192 C193 1.402 . S
C192 H207 0.951 . S
C193 C192 1.402 . S
C193 C194 1.375 . S
C193 C196 1.481 . S
C194 C193 1.375 . S
C194 C195 1.367 . S
C194 H208 0.951 . S
C195 C191 1.383 . S
C195 C194 1.367 . S
C195 H209 0.950 . S
C196 C193 1.481 . S
C196 C197 1.297 . S
C196 H210 0.950 . S
C197 C196 1.297 . S
C197 C198 1.479 . S
C197 H211 0.950 . S
C198 C197 1.479 . S
C198 C199 1.375 . S
C198 C204 1.404 . S
C199 C198 1.375 . S
C199 C200 1.369 . S
C199 H212 0.950 . S
C200 C199 1.369 . S
C200 C201 1.392 . S
C200 H213 0.951 . S
C201 C200 1.392 . S
C201 C203 1.384 . S
H202 C204 0.949 . S
C203 C201 1.384 . S
C203 C204 1.385 . S
C203 H205 0.950 . S
C204 C198 1.404 . S
C204 H202 0.949 . S
C204 C203 1.385 . S
H205 C203 0.950 . S
H206 C190 0.951 . S
H207 C192 0.951 . S
H208 C194 0.951 . S
H209 C195 0.950 . S
H210 C196 0.950 . S
H211 C197 0.950 . S
H212 C199 0.950 . S
H213 C200 0.951 . S
C214 C215 1.386 . S
C214 C216 1.383 . S
C214 H230 0.951 . S
C215 C214 1.386 . S
C215 C219 1.383 . S
C216 C214 1.383 . S
C216 C217 1.402 . S
C216 H231 0.951 . S
C217 C216 1.402 . S
C217 C218 1.375 . S
C217 C220 1.481 . S
C218 C217 1.375 . S
C218 C219 1.367 . S
C218 H232 0.951 . S
C219 C215 1.383 . S
C219 C218 1.367 . S
C219 H233 0.950 . S
C220 C217 1.481 . S
C220 C221 1.297 . S
C220 H234 0.950 . S
C221 C220 1.297 . S
C221 C222 1.479 . S
C221 H235 0.950 . S
C222 C221 1.479 . S
C222 C223 1.375 . S
C222 C228 1.404 . S
C223 C222 1.375 . S
C223 C224 1.369 . S
C223 H236 0.950 . S
C224 C223 1.369 . S
C224 C225 1.392 . S
C224 H237 0.951 . S
C225 C224 1.392 . S
C225 C227 1.384 . S
H226 C228 0.949 . S
C227 C225 1.384 . S
C227 C228 1.385 . S
C227 H229 0.950 . S
C228 C222 1.404 . S
C228 H226 0.949 . S
C228 C227 1.385 . S
H229 C227 0.950 . S
H230 C214 0.951 . S
H231 C216 0.951 . S
H232 C218 0.951 . S
H233 C219 0.950 . S
H234 C220 0.950 . S
H235 C221 0.950 . S
H236 C223 0.950 . S
H237 C224 0.951 . S
C238 C239 1.386 . S
C238 C240 1.383 . S
C238 H254 0.951 . S
C239 C238 1.386 . S
C239 C243 1.383 . S
C240 C238 1.383 . S
C240 C241 1.402 . S
C240 H255 0.951 . S
C241 C240 1.402 . S
C241 C242 1.375 . S
C241 C244 1.481 . S
C242 C241 1.375 . S
C242 C243 1.367 . S
C242 H256 0.951 . S
C243 C239 1.383 . S
C243 C242 1.367 . S
C243 H257 0.950 . S
C244 C241 1.481 . S
C244 C245 1.297 . S
C244 H258 0.950 . S
C245 C244 1.297 . S
C245 C246 1.479 . S
C245 H259 0.950 . S
C246 C245 1.479 . S
C246 C247 1.375 . S
C246 C252 1.404 . S
C247 C246 1.375 . S
C247 C248 1.369 . S
C247 H260 0.950 . S
C248 C247 1.369 . S
C248 C249 1.392 . S
C248 H261 0.951 . S
C249 C248 1.392 . S
C249 C251 1.384 . S
H250 C252 0.949 . S
C251 C249 1.384 . S
C251 C252 1.385 . S
C251 H253 0.950 1_655 S
C252 C246 1.404 . S
C252 H250 0.949 . S
C252 C251 1.385 . S
H253 C251 0.950 1_455 S
H254 C238 0.951 . S
H255 C240 0.951 . S
H256 C242 0.951 . S
H257 C243 0.950 . S
H258 C244 0.950 . S
H259 C245 0.950 . S
H260 C247 0.950 . S
H261 C248 0.951 . S
C262 C263 1.386 . S
C262 C264 1.383 . S
C262 H278 0.951 . S
C263 C262 1.386 . S
C263 C267 1.383 . S
C264 C262 1.383 . S
C264 C265 1.402 . S
C264 H279 0.951 . S
C265 C264 1.402 . S
C265 C266 1.375 . S
C265 C268 1.481 . S
C266 C265 1.375 . S
C266 C267 1.367 . S
C266 H280 0.951 . S
C267 C263 1.383 . S
C267 C266 1.367 . S
C267 H281 0.950 . S
C268 C265 1.481 . S
C268 C269 1.297 . S
C268 H282 0.950 . S
C269 C268 1.297 . S
C269 C270 1.479 . S
C269 H283 0.950 . S
C270 C269 1.479 . S
C270 C271 1.375 . S
C270 C276 1.404 . S
C271 C270 1.375 . S
C271 C272 1.369 . S
C271 H284 0.950 . S
C272 C271 1.369 . S
C272 C273 1.392 . S
C272 H285 0.951 . S
C273 C272 1.392 . S
C273 C275 1.384 . S
H274 C276 0.949 . S
C275 C273 1.384 . S
C275 C276 1.385 . S
C275 H277 0.950 . S
C276 C270 1.404 . S
C276 H274 0.949 . S
C276 C275 1.385 . S
H277 C275 0.950 . S
H278 C262 0.951 . S
H279 C264 0.951 . S
H280 C266 0.951 . S
H281 C267 0.950 . S
H282 C268 0.950 . S
H283 C269 0.950 . S
H284 C271 0.950 . S
H285 C272 0.951 . S
C286 C287 1.386 . S
C286 C288 1.383 . S
C286 H302 0.951 . S
C287 C286 1.386 . S
C287 C291 1.383 . S
C288 C286 1.383 . S
C288 C289 1.402 . S
C288 H303 0.951 . S
C289 C288 1.402 . S
C289 C290 1.375 . S
C289 C292 1.481 . S
C290 C289 1.375 . S
C290 C291 1.367 . S
C290 H304 0.951 . S
C291 C287 1.383 . S
C291 C290 1.367 . S
C291 H305 0.950 . S
C292 C289 1.481 . S
C292 C293 1.297 . S
C292 H306 0.950 . S
C293 C292 1.297 . S
C293 C294 1.479 . S
C293 H307 0.950 . S
C294 C293 1.479 . S
C294 C295 1.375 . S
C294 C300 1.404 . S
C295 C294 1.375 . S
C295 C296 1.369 . S
C295 H308 0.950 . S
C296 C295 1.369 . S
C296 C297 1.392 . S
C296 H309 0.951 . S
C297 C296 1.392 . S
C297 C299 1.384 . S
H298 C300 0.949 . S
C299 C297 1.384 . S
C299 C300 1.385 . S
C299 H301 0.950 . S
C300 C294 1.404 . S
C300 H298 0.949 . S
C300 C299 1.385 . S
H301 C299 0.950 . S
H302 C286 0.951 . S
H303 C288 0.951 . S
H304 C290 0.951 . S
H305 C291 0.950 . S
H306 C292 0.950 . S
H307 C293 0.950 . S
H308 C295 0.950 . S
H309 C296 0.951 . S
C310 C311 1.386 . S
C310 C312 1.383 . S
C310 H326 0.951 . S
C311 C310 1.386 . S
C311 C315 1.383 1_565 S
C312 C310 1.383 . S
C312 C313 1.402 1_565 S
C312 H327 0.951 . S
C313 C312 1.402 1_545 S
C313 C314 1.375 . S
C313 C316 1.481 . S
C314 C313 1.375 . S
C314 C315 1.367 . S
C314 H328 0.951 . S
C315 C311 1.383 1_545 S
C315 C314 1.367 . S
C315 H329 0.950 . S
C316 C313 1.481 . S
C316 C317 1.297 . S
C316 H330 0.950 . S
C317 C316 1.297 . S
C317 C318 1.479 . S
C317 H331 0.950 . S
C318 C317 1.479 . S
C318 C319 1.375 . S
C318 C324 1.404 . S
C319 C318 1.375 . S
C319 C320 1.369 . S
C319 H332 0.950 1_545 S
C320 C319 1.369 . S
C320 C321 1.392 . S
C320 H333 0.951 1_545 S
C321 C320 1.392 . S
C321 C323 1.384 . S
H322 C324 0.949 . S
C323 C321 1.384 . S
C323 C324 1.385 . S
C323 H325 0.950 . S
C324 C318 1.404 . S
C324 H322 0.949 . S
C324 C323 1.385 . S
H325 C323 0.950 . S
H326 C310 0.951 . S
H327 C312 0.951 . S
H328 C314 0.951 . S
H329 C315 0.950 . S
H330 C316 0.950 . S
H331 C317 0.950 . S
H332 C319 0.950 1_565 S
H333 C320 0.951 1_565 S
C334 C335 1.386 1_655 S
C334 C336 1.383 . S
C334 H350 0.951 . S
C335 C334 1.386 1_455 S
C335 C339 1.383 1_565 S
C336 C334 1.383 . S
C336 C337 1.402 1_665 S
C336 H351 0.951 . S
C337 C336 1.402 1_445 S
C337 C338 1.375 . S
C337 C340 1.481 . S
C338 C337 1.375 . S
C338 C339 1.367 . S
C338 H352 0.951 . S
C339 C335 1.383 1_545 S
C339 C338 1.367 . S
C339 H353 0.950 . S
C340 C337 1.481 . S
C340 C341 1.297 1_455 S
C340 H354 0.950 . S
C341 C340 1.297 1_655 S
C341 C342 1.479 . S
C341 H355 0.950 . S
C342 C341 1.479 . S
C342 C343 1.375 . S
C342 C348 1.404 1_655 S
C343 C342 1.375 . S
C343 C344 1.369 . S
C343 H356 0.950 1_545 S
C344 C343 1.369 . S
C344 C345 1.392 . S
C344 H357 0.951 1_545 S
C345 C344 1.392 . S
C345 C347 1.384 1_655 S
H346 C348 0.949 . S
C347 C345 1.384 1_455 S
C347 C348 1.385 . S
C347 H349 0.950 . S
C348 C342 1.404 1_455 S
C348 H346 0.949 . S
C348 C347 1.385 . S
H349 C347 0.950 . S
H350 C334 0.951 . S
H351 C336 0.951 . S
H352 C338 0.951 . S
H353 C339 0.950 . S
H354 C340 0.950 . S
H355 C341 0.950 . S
H356 C343 0.950 1_565 S
H357 C344 0.951 1_565 S
C358 C359 1.386 . S
C358 C360 1.383 . S
C358 H374 0.951 . S
C359 C358 1.386 . S
C359 C363 1.383 . S
C360 C358 1.383 . S
C360 C361 1.402 . S
C360 H375 0.951 . S
C361 C360 1.402 . S
C361 C362 1.375 . S
C361 C364 1.481 . S
C362 C361 1.375 . S
C362 C363 1.367 . S
C362 H376 0.951 . S
C363 C359 1.383 . S
C363 C362 1.367 . S
C363 H377 0.950 . S
C364 C361 1.481 . S
C364 C365 1.297 . S
C364 H378 0.950 . S
C365 C364 1.297 . S
C365 C366 1.479 . S
C365 H379 0.950 . S
C366 C365 1.479 . S
C366 C367 1.375 . S
C366 C372 1.404 . S
C367 C366 1.375 . S
C367 C368 1.369 . S
C367 H380 0.950 . S
C368 C367 1.369 . S
C368 C369 1.392 . S
C368 H381 0.951 . S
C369 C368 1.392 . S
C369 C371 1.384 . S
H370 C372 0.949 . S
C371 C369 1.384 . S
C371 C372 1.385 . S
C371 H373 0.950 . S
C372 C366 1.404 . S
C372 H370 0.949 . S
C372 C371 1.385 . S
H373 C371 0.950 . S
H374 C358 0.951 . S
H375 C360 0.951 . S
H376 C362 0.951 . S
H377 C363 0.950 . S
H378 C364 0.950 . S
H379 C365 0.950 . S
H380 C367 0.950 . S
H381 C368 0.951 . S
C382 C383 1.386 . S
C382 C384 1.383 . S
C382 H398 0.951 . S
C383 C382 1.386 . S
C383 C387 1.383 . S
C384 C382 1.383 . S
C384 C385 1.402 . S
C384 H399 0.951 . S
C385 C384 1.402 . S
C385 C386 1.375 . S
C385 C388 1.481 . S
C386 C385 1.375 . S
C386 C387 1.367 . S
C386 H400 0.951 . S
C387 C383 1.383 . S
C387 C386 1.367 . S
C387 H401 0.950 . S
C388 C385 1.481 . S
C388 C389 1.297 . S
C388 H402 0.950 . S
C389 C388 1.297 . S
C389 C390 1.479 . S
C389 H403 0.950 . S
C390 C389 1.479 . S
C390 C391 1.375 . S
C390 C396 1.404 . S
C391 C390 1.375 . S
C391 C392 1.369 . S
C391 H404 0.950 . S
C392 C391 1.369 . S
C392 C393 1.392 . S
C392 H405 0.951 . S
C393 C392 1.392 . S
C393 C395 1.384 . S
H394 C396 0.949 . S
C395 C393 1.384 . S
C395 C396 1.385 . S
C395 H397 0.950 . S
C396 C390 1.404 . S
C396 H394 0.949 . S
C396 C395 1.385 . S
H397 C395 0.950 . S
H398 C382 0.951 . S
H399 C384 0.951 . S
H400 C386 0.951 . S
H401 C387 0.950 . S
H402 C388 0.950 . S
H403 C389 0.950 . S
H404 C391 0.950 . S
H405 C392 0.951 . S
C129 C105 1.386 . S
C119 C3 1.307 . S
C143 C4 1.390 1_556 S
C153 C91 1.459 . S
C167 C19 1.494 1_554 S
C177 C110 1.529 . S
C191 C7 1.229 . S
C201 C86 1.348 . S
C215 C37 1.289 . S
C225 C67 1.372 . S
C239 C28 1.401 . S
C249 C53 1.494 1_655 S
C273 C72 1.465 . S
C263 C41 1.418 . S
C297 C48 1.393 . S
C287 C25 1.302 . S
C311 C20 1.376 . S
C321 C44 1.509 . S
C335 C16 1.421 . S
C345 C63 1.552 . S
C369 C82 1.477 . S
C359 C40 1.394 . S
C383 C24 1.409 . S
C393 C101 1.544 . S
