# Generated by pormake.
# Topology ptr, (4,4)-cn, num edge types: 1
# Building blocks:
#     Node 0, Type 0, BuildingBlock: AZAVOO_clean_sbu_0, # of connection points: 4
#     Node 1, Type 0, BuildingBlock: AZAVOO_clean_sbu_0, # of connection points: 4
#     Node 2, Type 0, BuildingBlock: AZAVOO_clean_sbu_0, # of connection points: 4
#     Node 3, Type 0, BuildingBlock: AZAVOO_clean_sbu_0, # of connection points: 4
#     Node 4, Type 0, BuildingBlock: AZAVOO_clean_sbu_0, # of connection points: 4
#     Node 5, Type 0, BuildingBlock: AZAVOO_clean_sbu_0, # of connection points: 4
#     Node 6, Type 0, BuildingBlock: AZAVOO_clean_sbu_0, # of connection points: 4
#     Node 7, Type 0, BuildingBlock: AZAVOO_clean_sbu_0, # of connection points: 4
#     Node 8, Type 0, BuildingBlock: AZAVOO_clean_sbu_0, # of connection points: 4
#     Node 9, Type 0, BuildingBlock: AZAVOO_clean_sbu_0, # of connection points: 4
#     Node 10, Type 0, BuildingBlock: AZAVOO_clean_sbu_0, # of connection points: 4
#     Node 11, Type 0, BuildingBlock: AZAVOO_clean_sbu_0, # of connection points: 4
#     Node 12, Type 0, BuildingBlock: AZAVOO_clean_sbu_0, # of connection points: 4
#     Node 13, Type 0, BuildingBlock: AZAVOO_clean_sbu_0, # of connection points: 4
#     Node 14, Type 0, BuildingBlock: AZAVOO_clean_sbu_0, # of connection points: 4
#     Node 15, Type 0, BuildingBlock: AZAVOO_clean_sbu_0, # of connection points: 4
#     Node 16, Type 0, BuildingBlock: AZAVOO_clean_sbu_0, # of connection points: 4
#     Node 17, Type 0, BuildingBlock: AZAVOO_clean_sbu_0, # of connection points: 4
#     Node 18, Type 1, BuildingBlock: GIZVER_clean_linker_0, # of connection points: 4
#     Node 19, Type 1, BuildingBlock: GIZVER_clean_linker_0, # of connection points: 4
#     Node 20, Type 1, BuildingBlock: GIZVER_clean_linker_0, # of connection points: 4
#     Node 21, Type 1, BuildingBlock: GIZVER_clean_linker_0, # of connection points: 4
#     Node 22, Type 1, BuildingBlock: GIZVER_clean_linker_0, # of connection points: 4
#     Node 23, Type 1, BuildingBlock: GIZVER_clean_linker_0, # of connection points: 4
#     Node 24, Type 1, BuildingBlock: GIZVER_clean_linker_0, # of connection points: 4
#     Node 25, Type 1, BuildingBlock: GIZVER_clean_linker_0, # of connection points: 4
#     Node 26, Type 1, BuildingBlock: GIZVER_clean_linker_0, # of connection points: 4
#     Node 27, Type 1, BuildingBlock: GIZVER_clean_linker_0, # of connection points: 4
#     Node 28, Type 1, BuildingBlock: GIZVER_clean_linker_0, # of connection points: 4
#     Node 29, Type 1, BuildingBlock: GIZVER_clean_linker_0, # of connection points: 4
#     Node 30, Type 1, BuildingBlock: GIZVER_clean_linker_0, # of connection points: 4
#     Node 31, Type 1, BuildingBlock: GIZVER_clean_linker_0, # of connection points: 4
#     Node 32, Type 1, BuildingBlock: GIZVER_clean_linker_0, # of connection points: 4
#     Node 33, Type 1, BuildingBlock: GIZVER_clean_linker_0, # of connection points: 4
#     Node 34, Type 1, BuildingBlock: GIZVER_clean_linker_0, # of connection points: 4
#     Node 35, Type 1, BuildingBlock: GIZVER_clean_linker_0, # of connection points: 4
#     Edge 36, Type (0, 1), BuildingBlock: XUDNAN_clean_linker_2, # of connection points: 2
#     Edge 37, Type (0, 1), BuildingBlock: XUDNAN_clean_linker_2, # of connection points: 2
#     Edge 38, Type (0, 1), BuildingBlock: XUDNAN_clean_linker_2, # of connection points: 2
#     Edge 39, Type (0, 1), BuildingBlock: XUDNAN_clean_linker_2, # of connection points: 2
#     Edge 40, Type (0, 1), BuildingBlock: XUDNAN_clean_linker_2, # of connection points: 2
#     Edge 41, Type (0, 1), BuildingBlock: XUDNAN_clean_linker_2, # of connection points: 2
#     Edge 42, Type (0, 1), BuildingBlock: XUDNAN_clean_linker_2, # of connection points: 2
#     Edge 43, Type (0, 1), BuildingBlock: XUDNAN_clean_linker_2, # of connection points: 2
#     Edge 44, Type (0, 1), BuildingBlock: XUDNAN_clean_linker_2, # of connection points: 2
#     Edge 45, Type (0, 1), BuildingBlock: XUDNAN_clean_linker_2, # of connection points: 2
#     Edge 46, Type (0, 1), BuildingBlock: XUDNAN_clean_linker_2, # of connection points: 2
#     Edge 47, Type (0, 1), BuildingBlock: XUDNAN_clean_linker_2, # of connection points: 2
#     Edge 48, Type (0, 1), BuildingBlock: XUDNAN_clean_linker_2, # of connection points: 2
#     Edge 49, Type (0, 1), BuildingBlock: XUDNAN_clean_linker_2, # of connection points: 2
#     Edge 50, Type (0, 1), BuildingBlock: XUDNAN_clean_linker_2, # of connection points: 2
#     Edge 51, Type (0, 1), BuildingBlock: XUDNAN_clean_linker_2, # of connection points: 2
#     Edge 52, Type (0, 1), BuildingBlock: XUDNAN_clean_linker_2, # of connection points: 2
#     Edge 53, Type (0, 1), BuildingBlock: XUDNAN_clean_linker_2, # of connection points: 2
#     Edge 54, Type (0, 1), BuildingBlock: XUDNAN_clean_linker_2, # of connection points: 2
#     Edge 55, Type (0, 1), BuildingBlock: XUDNAN_clean_linker_2, # of connection points: 2
#     Edge 56, Type (0, 1), BuildingBlock: XUDNAN_clean_linker_2, # of connection points: 2
#     Edge 57, Type (0, 1), BuildingBlock: XUDNAN_clean_linker_2, # of connection points: 2
#     Edge 58, Type (0, 1), BuildingBlock: XUDNAN_clean_linker_2, # of connection points: 2
#     Edge 59, Type (0, 1), BuildingBlock: XUDNAN_clean_linker_2, # of connection points: 2
#     Edge 60, Type (0, 1), BuildingBlock: XUDNAN_clean_linker_2, # of connection points: 2
#     Edge 61, Type (0, 1), BuildingBlock: XUDNAN_clean_linker_2, # of connection points: 2
#     Edge 62, Type (0, 1), BuildingBlock: XUDNAN_clean_linker_2, # of connection points: 2
#     Edge 63, Type (0, 1), BuildingBlock: XUDNAN_clean_linker_2, # of connection points: 2
#     Edge 64, Type (0, 1), BuildingBlock: XUDNAN_clean_linker_2, # of connection points: 2
#     Edge 65, Type (0, 1), BuildingBlock: XUDNAN_clean_linker_2, # of connection points: 2
#     Edge 66, Type (0, 1), BuildingBlock: XUDNAN_clean_linker_2, # of connection points: 2
#     Edge 67, Type (0, 1), BuildingBlock: XUDNAN_clean_linker_2, # of connection points: 2
#     Edge 68, Type (0, 1), BuildingBlock: XUDNAN_clean_linker_2, # of connection points: 2
#     Edge 69, Type (0, 1), BuildingBlock: XUDNAN_clean_linker_2, # of connection points: 2
#     Edge 70, Type (0, 1), BuildingBlock: XUDNAN_clean_linker_2, # of connection points: 2
#     Edge 71, Type (0, 1), BuildingBlock: XUDNAN_clean_linker_2, # of connection points: 2
#     Edge 72, Type (0, 1), BuildingBlock: XUDNAN_clean_linker_2, # of connection points: 2
#     Edge 73, Type (0, 1), BuildingBlock: XUDNAN_clean_linker_2, # of connection points: 2
#     Edge 74, Type (0, 1), BuildingBlock: XUDNAN_clean_linker_2, # of connection points: 2
#     Edge 75, Type (0, 1), BuildingBlock: XUDNAN_clean_linker_2, # of connection points: 2
#     Edge 76, Type (0, 1), BuildingBlock: XUDNAN_clean_linker_2, # of connection points: 2
#     Edge 77, Type (0, 1), BuildingBlock: XUDNAN_clean_linker_2, # of connection points: 2
#     Edge 78, Type (0, 1), BuildingBlock: XUDNAN_clean_linker_2, # of connection points: 2
#     Edge 79, Type (0, 1), BuildingBlock: XUDNAN_clean_linker_2, # of connection points: 2
#     Edge 80, Type (0, 1), BuildingBlock: XUDNAN_clean_linker_2, # of connection points: 2
#     Edge 81, Type (0, 1), BuildingBlock: XUDNAN_clean_linker_2, # of connection points: 2
#     Edge 82, Type (0, 1), BuildingBlock: XUDNAN_clean_linker_2, # of connection points: 2
#     Edge 83, Type (0, 1), BuildingBlock: XUDNAN_clean_linker_2, # of connection points: 2
#     Edge 84, Type (0, 1), BuildingBlock: XUDNAN_clean_linker_2, # of connection points: 2
#     Edge 85, Type (0, 1), BuildingBlock: XUDNAN_clean_linker_2, # of connection points: 2
#     Edge 86, Type (0, 1), BuildingBlock: XUDNAN_clean_linker_2, # of connection points: 2
#     Edge 87, Type (0, 1), BuildingBlock: XUDNAN_clean_linker_2, # of connection points: 2
#     Edge 88, Type (0, 1), BuildingBlock: XUDNAN_clean_linker_2, # of connection points: 2
#     Edge 89, Type (0, 1), BuildingBlock: XUDNAN_clean_linker_2, # of connection points: 2
#     Edge 90, Type (0, 1), BuildingBlock: XUDNAN_clean_linker_2, # of connection points: 2
#     Edge 91, Type (0, 1), BuildingBlock: XUDNAN_clean_linker_2, # of connection points: 2
#     Edge 92, Type (0, 1), BuildingBlock: XUDNAN_clean_linker_2, # of connection points: 2
#     Edge 93, Type (0, 1), BuildingBlock: XUDNAN_clean_linker_2, # of connection points: 2
#     Edge 94, Type (0, 1), BuildingBlock: XUDNAN_clean_linker_2, # of connection points: 2
#     Edge 95, Type (0, 1), BuildingBlock: XUDNAN_clean_linker_2, # of connection points: 2
#     Edge 96, Type (0, 1), BuildingBlock: XUDNAN_clean_linker_2, # of connection points: 2
#     Edge 97, Type (0, 1), BuildingBlock: XUDNAN_clean_linker_2, # of connection points: 2
#     Edge 98, Type (0, 1), BuildingBlock: XUDNAN_clean_linker_2, # of connection points: 2
#     Edge 99, Type (0, 1), BuildingBlock: XUDNAN_clean_linker_2, # of connection points: 2
#     Edge 100, Type (0, 1), BuildingBlock: XUDNAN_clean_linker_2, # of connection points: 2
#     Edge 101, Type (0, 1), BuildingBlock: XUDNAN_clean_linker_2, # of connection points: 2
#     Edge 102, Type (0, 1), BuildingBlock: XUDNAN_clean_linker_2, # of connection points: 2
#     Edge 103, Type (0, 1), BuildingBlock: XUDNAN_clean_linker_2, # of connection points: 2
#     Edge 104, Type (0, 1), BuildingBlock: XUDNAN_clean_linker_2, # of connection points: 2
#     Edge 105, Type (0, 1), BuildingBlock: XUDNAN_clean_linker_2, # of connection points: 2
#     Edge 106, Type (0, 1), BuildingBlock: XUDNAN_clean_linker_2, # of connection points: 2
#     Edge 107, Type (0, 1), BuildingBlock: XUDNAN_clean_linker_2, # of connection points: 2
# Relax obj value: 0.078
# Max RMSD: 0.236
# Mean RMSD: 0.124
data_MOF--net-ptr--node1-AZAVOO_clean_sbu_0--node2-GIZVER_clean_linker_0--edge1-XUDNAN_clean_linker_2
_symmetry_space_group_name_H-M    P1
_symmetry_Int_Tables_number       1
_symmetry_cell_setting            triclinic
loop_
_symmetry_equiv_pos_as_xyz
'x, y, z'
_cell_length_a     81.063416
_cell_length_b     79.923738
_cell_length_c     45.916705
_cell_angle_alpha  91.495214
_cell_angle_beta   91.487268
_cell_angle_gamma 119.9916
loop_
_atom_site_label
_atom_site_type_symbol
_atom_site_fract_x
_atom_site_fract_y
_atom_site_fract_z
_atom_type_partial_charge
Mg0 Mg 1.00096 0.35921 0.97607 0.0
O1 O 0.99722 0.37332 0.01839 0.0
O2 O 0.97329 0.37895 0.00765 0.0
Mg3 Mg 0.96285 0.37021 0.96033 0.0
C4 C 0.98586 0.37939 0.02548 0.0
C5 C 0.03679 0.36073 0.00698 0.0
O6 O 0.04328 0.37932 0.00474 0.0
O7 O 0.97332 0.33079 0.98345 0.0
O8 O 0.95102 0.33859 0.97238 0.0
O9 O 0.02196 0.38843 0.96125 0.0
O10 O 0.99098 0.37411 0.95132 0.0
C11 C 0.95586 0.3264 0.9804 0.0
C12 C 0.0076 0.38923 0.94994 0.0
O13 O 0.01951 0.34883 -0.00086 0.0
Mg14 Mg 0.632 0.64428 0.05009 0.0
O15 O 0.61743 0.62903 0.006 0.0
O16 O 0.5877 0.62405 0.00509 0.0
Mg17 Mg 0.5833 0.63575 0.04838 0.0
C18 C 0.60102 0.62256 0.99331 0.0
C19 C 0.67103 0.64745 0.0508 0.0
O20 O 0.66404 0.63985 0.07573 0.0
O21 O 0.63509 0.67284 0.03622 0.0
O22 O 0.60517 0.66712 0.03729 0.0
O23 O 0.62158 0.61545 0.06774 0.0
O24 O 0.60547 0.63109 0.06925 0.0
C25 C 0.62289 0.67842 0.0334 0.0
C26 C 0.60611 0.61554 0.07374 0.0
O27 O 0.6612 0.65178 0.03386 0.0
Mg28 Mg 0.37619 0.99267 0.97809 0.0
O29 O 0.38879 0.99185 0.02265 0.0
O30 O 0.41534 0.02018 0.03263 0.0
Mg31 Mg 0.42019 0.03869 0.99328 0.0
C32 C 0.40312 0.00311 0.03943 0.0
C33 C 0.3332 0.95945 0.97301 0.0
O34 O 0.33388 0.9664 0.94718 0.0
O35 O 0.36649 0.01295 0.99541 0.0
O36 O 0.39364 0.04116 0.00268 0.0
O37 O 0.3929 0.98086 0.95762 0.0
O38 O 0.4033 0.01213 0.96494 0.0
C39 C 0.37549 0.0309 0.00291 0.0
C40 C 0.40658 0.99862 0.95634 0.0
O41 O 0.34816 0.96684 0.98961 0.0
Mg42 Mg 0.99608 0.63471 0.02818 0.0
O43 O 0.00736 0.62163 0.99371 0.0
O44 O 0.03335 0.623 0.01445 0.0
Mg45 Mg 0.03926 0.6372 0.05991 0.0
C46 C 0.02132 0.61839 0.99299 0.0
C47 C 0.9701 0.64829 -0.00228 0.0
O48 O 0.98045 0.66349 0.01528 0.0
O49 O 0.01968 0.66542 0.01856 0.0
O50 O 0.04488 0.66535 0.03942 0.0
O51 O 0.97935 0.60554 0.04638 0.0
O52 O 0.0088 0.62714 0.06123 0.0
C53 C 0.03752 0.67383 0.02547 0.0
C54 C 0.99453 0.60984 0.06214 0.0
O55 O 0.97433 0.63498 0.99592 0.0
Mg56 Mg 0.37283 0.35935 0.97738 0.0
O57 O 0.38937 0.37831 0.01894 0.0
O58 O 0.41945 0.38455 0.01462 0.0
Mg59 Mg 0.42185 0.36863 0.97481 0.0
C60 C 0.4069 0.3866 0.02792 0.0
C61 C 0.33885 0.3638 0.00066 0.0
O62 O 0.35159 0.38228 0.00033 0.0
O63 O 0.3714 0.33258 0.99629 0.0
O64 O 0.40146 0.33906 0.99311 0.0
O65 O 0.38122 0.38602 0.95311 0.0
O66 O 0.39832 0.37151 0.95593 0.0
C67 C 0.38423 0.32792 -0.0002 0.0
C68 C 0.39684 0.38604 0.94784 0.0
O69 O 0.34368 0.35133 0.99418 0.0
Mg70 Mg 0.62032 0.99448 0.04042 0.0
O71 O 0.60786 0.99759 0.99669 0.0
O72 O 0.57897 0.9713 0.98991 0.0
Mg73 Mg 0.57229 0.95246 0.02936 0.0
C74 C 0.59234 0.98738 0.98147 0.0
C75 C 0.65496 0.0344 0.02123 0.0
O76 O 0.64143 0.03846 0.01533 0.0
O77 O 0.62493 0.97085 0.01991 0.0
O78 O 0.59552 0.94512 0.01818 0.0
O79 O 0.60791 0.00999 0.0645 0.0
O80 O 0.5929 0.97844 0.05537 0.0
C81 C 0.61342 0.9528 0.01478 0.0
C82 C 0.59259 0.99333 0.06603 0.0
O83 O 0.65055 0.0179 0.03055 0.0
Mg84 Mg 0.67693 0.70311 0.31358 0.0
O85 O 0.67129 0.7198 0.35046 0.0
O86 O 0.64871 0.72555 0.33269 0.0
Mg87 Mg 0.63862 0.71138 0.28736 0.0
C88 C 0.66056 0.72723 0.35301 0.0
C89 C 0.70394 0.68833 0.33315 0.0
O90 O 0.69859 0.68049 0.30661 0.0
O91 O 0.6497 0.67489 0.32321 0.0
O92 O 0.62742 0.68149 0.30682 0.0
O93 O 0.69779 0.73123 0.29625 0.0
O94 O 0.6672 0.71535 0.28261 0.0
C95 C 0.63225 0.67018 0.31863 0.0
C96 C 0.68364 0.73086 0.28198 0.0
O97 O 0.69623 0.69746 0.34391 0.0
Mg98 Mg 0.28563 0.96757 0.37478 0.0
O99 O 0.26673 0.95065 0.33376 0.0
O100 O 0.23871 0.94906 0.34014 0.0
Mg101 Mg 0.23922 0.96432 0.38301 0.0
C102 C 0.24954 0.94517 0.32522 0.0
C103 C 0.32848 0.9852 0.35227 0.0
O104 O 0.33023 0.0023 0.35693 0.0
O105 O 0.29012 0.99618 0.35734 0.0
O106 O 0.262 0.99351 0.36661 0.0
O107 O 0.2748 0.94019 0.39816 0.0
O108 O 0.26112 0.95807 0.39904 0.0
C109 C 0.27896 0.00316 0.35783 0.0
C110 C 0.26083 0.94244 0.40616 0.0
O111 O 0.3125 0.97003 0.35548 0.0
Mg112 Mg 0.04785 0.34335 0.31514 0.0
O113 O 0.05906 0.3374 0.35764 0.0
O114 O 0.08766 0.36333 0.3686 0.0
Mg115 Mg 0.09543 0.38466 0.33224 0.0
C116 C 0.07407 0.34659 0.37426 0.0
C117 C 0.01269 0.30188 0.32413 0.0
O118 O 0.0256 0.29664 0.32168 0.0
O119 O 0.04248 0.36552 0.33823 0.0
O120 O 0.07174 0.39122 0.34405 0.0
O121 O 0.06106 0.32931 0.28995 0.0
O122 O 0.07554 0.36051 0.30236 0.0
C123 C 0.05368 0.38325 0.34594 0.0
C124 C 0.07633 0.34619 0.29047 0.0
O125 O 0.01764 0.31962 0.32286 0.0
Mg126 Mg 0.66887 0.97591 0.37099 0.0
O127 O 0.67074 0.96194 0.3274 0.0
O128 O 0.6945 0.95547 0.33325 0.0
Mg129 Mg 0.70866 0.96649 0.37861 0.0
C130 C 0.68093 0.95505 0.31789 0.0
C131 C 0.63073 0.9752 0.35542 0.0
O132 O 0.6243 0.95923 0.36966 0.0
O133 O 0.695 0.00448 0.36023 0.0
O134 O 0.71858 0.99801 0.36736 0.0
O135 O 0.64993 0.94671 0.3884 0.0
O136 O 0.68131 0.96223 0.39316 0.0
C137 C 0.71271 0.0097 0.36106 0.0
C138 C 0.66531 0.94688 0.39722 0.0
O139 O 0.64848 0.98505 0.35101 0.0
Mg140 Mg 0.04403 0.70149 0.31369 0.0
O141 O 0.06487 0.71595 0.35388 0.0
O142 O 0.0931 0.72119 0.33873 0.0
Mg143 Mg 0.09106 0.71231 0.29072 0.0
C144 C 0.08265 0.72189 0.35854 0.0
C145 C 0.01132 0.70125 0.34982 0.0
O146 O 0.02256 0.7201 0.35022 0.0
O147 O 0.04476 0.67371 0.32019 0.0
O148 O 0.07285 0.68056 0.30289 0.0
O149 O 0.04949 0.73009 0.29896 0.0
O150 O 0.06634 0.71644 0.28661 0.0
C151 C 0.057 0.66877 0.31374 0.0
C152 C 0.06381 0.73111 0.2856 0.0
O153 O 0.01711 0.69035 0.3392 0.0
Mg154 Mg 0.29631 0.34686 0.38549 0.0
O155 O 0.2804 0.34486 0.34227 0.0
O156 O 0.25077 0.31971 0.34333 0.0
Mg157 Mg 0.24759 0.30601 0.38737 0.0
C158 C 0.26377 0.33401 0.33045 0.0
C159 C 0.33537 0.38404 0.37939 0.0
O160 O 0.32967 0.38827 0.40359 0.0
O161 O 0.29879 0.32057 0.37171 0.0
O162 O 0.26894 0.29616 0.37506 0.0
O163 O 0.2864 0.36587 0.40512 0.0
O164 O 0.27057 0.334 0.40638 0.0
C165 C 0.28647 0.30254 0.36993 0.0
C166 C 0.27135 0.35024 0.41231 0.0
O167 O 0.32475 0.36769 0.36626 0.0
Mg168 Mg 0.34281 0.03867 0.6458 0.0
O169 O 0.3339 0.05299 0.68199 0.0
O170 O 0.30903 0.05481 0.66349 0.0
Mg171 Mg 0.30001 0.03895 0.61901 0.0
C172 C 0.32142 0.05827 0.68397 0.0
C173 C 0.37118 0.02612 0.66919 0.0
O174 O 0.36279 0.01361 0.64706 0.0
O175 O 0.3186 0.00864 0.65682 0.0
O176 O 0.29335 0.01071 0.64085 0.0
O177 O 0.35981 0.06759 0.62701 0.0
O178 O 0.32973 0.04676 0.61367 0.0
C179 C 0.3006 0.00153 0.65308 0.0
C180 C 0.3445 0.06366 0.61195 0.0
O181 O 0.36503 0.03748 0.67617 0.0
Mg182 Mg 0.96349 0.29997 0.7212 0.0
O183 O 0.95167 0.28572 0.67578 0.0
O184 O 0.92057 0.27592 0.67222 0.0
Mg185 Mg 0.91283 0.28514 0.71499 0.0
C186 C 0.93561 0.27739 0.66155 0.0
C187 C 0.00223 0.30195 0.70904 0.0
O188 O 0.99289 0.28475 0.71989 0.0
O189 O 0.96327 0.32718 0.70819 0.0
O190 O 0.9322 0.31758 0.70607 0.0
O191 O 0.95511 0.27097 0.73773 0.0
O192 O 0.93638 0.2837 0.73771 0.0
C193 C 0.94966 0.33068 0.70411 0.0
C194 C 0.93861 0.26911 0.74241 0.0
O195 O 0.99401 0.31189 0.70649 0.0
Mg196 Mg 0.69937 0.6589 0.63482 0.0
O197 O 0.71195 0.65634 0.67863 0.0
O198 O 0.74356 0.67584 0.67876 0.0
Mg199 Mg 0.75101 0.69056 0.63513 0.0
C200 C 0.72855 0.66357 0.69103 0.0
C201 C 0.65671 0.62824 0.64409 0.0
O202 O 0.66066 0.61797 0.62576 0.0
O203 O 0.70439 0.68837 0.64927 0.0
O204 O 0.73577 0.70777 0.64618 0.0
O205 O 0.70261 0.63483 0.61574 0.0
O206 O 0.72466 0.66575 0.61553 0.0
C207 C 0.71921 0.70511 0.65119 0.0
C208 C 0.71972 0.64794 0.60978 0.0
O209 O 0.6697 0.64516 0.65236 0.0
Mg210 Mg 0.33888 0.3028 0.69988 0.0
O211 O 0.34732 0.28853 0.66256 0.0
O212 O 0.37548 0.29207 0.67747 0.0
Mg213 Mg 0.38536 0.30822 0.72148 0.0
C214 C 0.36155 0.28597 0.65874 0.0
C215 C 0.30887 0.31359 0.67688 0.0
O216 O 0.31965 0.32897 0.6939 0.0
O217 O 0.36037 0.33314 0.68517 0.0
O218 O 0.38772 0.33475 0.69982 0.0
O219 O 0.32488 0.27491 0.72255 0.0
O220 O 0.3553 0.29714 0.72919 0.0
C221 C 0.37857 0.3421 0.68781 0.0
C222 C 0.34158 0.28009 0.73399 0.0
O223 O 0.31392 0.30101 0.67286 0.0
Mg224 Mg 0.71182 0.04453 0.62546 0.0
O225 O 0.72383 0.05854 0.67117 0.0
O226 O 0.75549 0.07107 0.67255 0.0
Mg227 Mg 0.76344 0.06343 0.62895 0.0
C228 C 0.74019 0.06786 0.68448 0.0
C229 C 0.67588 0.04227 0.65083 0.0
O230 O 0.68842 0.06076 0.65487 0.0
O231 O 0.71447 0.01843 0.63794 0.0
O232 O 0.7461 0.03107 0.63861 0.0
O233 O 0.71755 0.07281 0.60866 0.0
O234 O 0.73824 0.06252 0.60833 0.0
C235 C 0.7293 0.01681 0.64146 0.0
C236 C 0.73446 0.07605 0.60327 0.0
O237 O 0.68122 0.03102 0.64006 0.0
Mg238 Mg 0.95743 0.67365 0.70874 0.0
O239 O 0.93699 0.66384 0.66742 0.0
O240 O 0.91014 0.63792 0.68063 0.0
Mg241 Mg 0.91256 0.63104 0.72753 0.0
C242 C 0.91986 0.65007 0.66175 0.0
C243 C 0.99309 0.71134 0.69506 0.0
O244 O 0.98673 0.7158 0.71833 0.0
O245 O 0.96261 0.64816 0.70097 0.0
O246 O 0.93491 0.62317 0.71355 0.0
O247 O 0.94577 0.69238 0.72429 0.0
O248 O 0.9338 0.66162 0.73419 0.0
C249 C 0.95175 0.63009 0.70447 0.0
C250 C 0.93245 0.67699 0.73537 0.0
O251 O 0.98369 0.69417 0.68395 0.0
H252 H 0.16313 0.32746 0.14638 0.0
H253 H 0.14611 0.32291 0.05548 0.0
H254 H 0.13112 0.3535 0.11824 0.0
H255 H 0.16002 0.30034 0.10775 0.0
H256 H 0.16273 0.30673 0.07059 0.0
H257 H 0.18651 0.3219 0.1461 0.0
H258 H 0.24274 0.34919 0.11416 0.0
H259 H 0.19432 0.32563 0.05352 0.0
C260 C 0.15722 0.33155 0.12848 0.0
C261 C 0.14842 0.34231 0.13485 0.0
C262 C 0.15745 0.32531 0.09964 0.0
C263 C 0.14722 0.32875 0.07747 0.0
C264 C 0.1376 0.33893 0.084 0.0
C265 C 0.13898 0.34626 0.11259 0.0
C266 C 0.16635 0.31286 0.09341 0.0
C267 C 0.18782 0.32365 0.09917 0.0
C268 C 0.1957 0.32719 0.12795 0.0
C269 C 0.21552 0.33723 0.13351 0.0
C270 C 0.22748 0.34265 0.10996 0.0
C271 C 0.22001 0.33821 0.08113 0.0
C272 C 0.20016 0.32908 0.07578 0.0
H273 H 0.69797 0.84902 0.15334 0.0
H274 H 0.6832 0.83425 0.06156 0.0
H275 H 0.67142 0.78977 0.12151 0.0
H276 H 0.71301 0.87375 0.11694 0.0
H277 H 0.70706 0.86776 0.07896 0.0
H278 H 0.69379 0.88207 0.14764 0.0
H279 H 0.65205 0.89242 0.10477 0.0
H280 H 0.67923 0.86725 0.05615 0.0
C281 C 0.69164 0.83823 0.13553 0.0
C282 C 0.68419 0.8186 0.14108 0.0
C283 C 0.69131 0.84403 0.10689 0.0
C284 C 0.68328 0.82994 0.08372 0.0
C285 C 0.67618 0.81037 0.08913 0.0
C286 C 0.67658 0.8049 0.11769 0.0
C287 C 0.7009 0.86526 0.10087 0.0
C288 C 0.68703 0.87263 0.10229 0.0
C289 C 0.68506 0.88089 0.12858 0.0
C290 C 0.67287 0.8887 0.12961 0.0
C291 C 0.66185 0.88693 0.10437 0.0
C292 C 0.66448 0.87983 0.07773 0.0
C293 C 0.67693 0.87248 0.07681 0.0
H294 H 0.16719 0.81698 0.14897 0.0
H295 H 0.16054 0.80548 0.05614 0.0
H296 H 0.11214 0.79344 0.1066 0.0
H297 H 0.19091 0.8124 0.119 0.0
H298 H 0.19037 0.81426 0.08042 0.0
H299 H 0.19556 0.84232 0.15139 0.0
H300 H 0.23768 0.89609 0.11877 0.0
H301 H 0.2109 0.84489 0.06194 0.0
C302 C 0.15864 0.81338 0.12889 0.0
C303 C 0.13911 0.80666 0.13045 0.0
C304 C 0.16677 0.81402 0.102 0.0
C305 C 0.15474 0.80661 0.07662 0.0
C306 C 0.13494 0.79907 0.07813 0.0
C307 C 0.12745 0.80008 0.10492 0.0
C308 C 0.18757 0.81962 0.10126 0.0
C309 C 0.2009 0.84122 0.1057 0.0
C310 C 0.2033 0.85051 0.13322 0.0
C311 C 0.21624 0.87033 0.13794 0.0
C312 C 0.22759 0.88078 0.11521 0.0
C313 C 0.22587 0.87168 0.0878 0.0
C314 C 0.21217 0.85201 0.08297 0.0
H315 H 0.36334 0.18299 0.86457 0.0
H316 H 0.3649 0.18844 0.95823 0.0
H317 H 0.34951 0.22277 0.90566 0.0
H318 H 0.38268 0.17345 0.89641 0.0
H319 H 0.37999 0.17254 0.93485 0.0
H320 H 0.35309 0.15074 0.8627 0.0
H321 H 0.31988 0.09451 0.89541 0.0
H322 H 0.36017 0.14231 0.95266 0.0
C323 C 0.36072 0.1889 0.88424 0.0
C324 C 0.35489 0.20264 0.88203 0.0
C325 C 0.364 0.1834 0.91163 0.0
C326 C 0.3617 0.1921 0.93708 0.0
C327 C 0.35637 0.20633 0.93522 0.0
C328 C 0.35261 0.21112 0.90755 0.0
C329 C 0.37211 0.17005 0.91351 0.0
C330 C 0.35679 0.14905 0.90904 0.0
C331 C 0.34855 0.14151 0.88109 0.0
C332 C 0.33566 0.12175 0.87625 0.0
C333 C 0.33043 0.10955 0.89976 0.0
C334 C 0.33957 0.11634 0.92762 0.0
C335 C 0.35242 0.1364 0.93201 0.0
H336 H 0.83724 0.15388 0.87127 0.0
H337 H 0.84566 0.17457 0.96136 0.0
H338 H 0.87446 0.21402 0.89427 0.0
H339 H 0.83132 0.13189 0.91403 0.0
H340 H 0.8303 0.14031 0.94989 0.0
H341 H 0.80666 0.12749 0.875 0.0
H342 H 0.75134 0.11003 0.90724 0.0
H343 H 0.80043 0.13476 0.96634 0.0
C344 C 0.84326 0.16564 0.88763 0.0
C345 C 0.85557 0.18452 0.87918 0.0
C346 C 0.83919 0.16192 0.91724 0.0
C347 C 0.84809 0.17732 0.93844 0.0
C348 C 0.86104 0.19605 0.93009 0.0
C349 C 0.8643 0.19953 0.90055 0.0
C350 C 0.82724 0.14132 0.92644 0.0
C351 C 0.80609 0.1335 0.92083 0.0
C352 C 0.79776 0.12686 0.89255 0.0
C353 C 0.77791 0.11818 0.88735 0.0
C354 C 0.7666 0.11664 0.91091 0.0
C355 C 0.77439 0.12181 0.93956 0.0
C356 C 0.79426 0.13077 0.94428 0.0
H357 H 0.8184 0.65031 0.87177 0.0
H358 H 0.83203 0.63123 0.95101 0.0
H359 H 0.87627 0.66636 0.89439 0.0
H360 H 0.79701 0.61434 0.90158 0.0
H361 H 0.79985 0.62039 0.93939 0.0
H362 H 0.78509 0.6297 0.86697 0.0
H363 H 0.74904 0.64833 0.90493 0.0
H364 H 0.78935 0.64182 0.95962 0.0
C365 C 0.8288 0.65078 0.88746 0.0
C366 C 0.84812 0.66035 0.8806 0.0
C367 C 0.82282 0.64052 0.91318 0.0
C368 C 0.83653 0.64005 0.9321 0.0
C369 C 0.85589 0.64967 0.92561 0.0
C370 C 0.86156 0.66018 0.90033 0.0
C371 C 0.80188 0.62676 0.9176 0.0
C372 C 0.78909 0.63538 0.9137 0.0
C373 C 0.78106 0.63494 0.88596 0.0
C374 C 0.76691 0.64003 0.88286 0.0
C375 C 0.76067 0.64541 0.90763 0.0
C376 C 0.76856 0.64618 0.93561 0.0
C377 C 0.78317 0.64154 0.9383 0.0
H378 H 0.81147 0.63042 0.46131 0.0
H379 H 0.81847 0.66445 0.38621 0.0
H380 H 0.78579 0.66584 0.45746 0.0
H381 H 0.82395 0.62503 0.41378 0.0
H382 H 0.8306 0.64237 0.38621 0.0
H383 H 0.8424 0.64446 0.46803 0.0
H384 H 0.90202 0.66886 0.45583 0.0
H385 H 0.86384 0.65732 0.38178 0.0
C386 C 0.80959 0.64119 0.45027 0.0
C387 C 0.79893 0.64849 0.46324 0.0
C388 C 0.8179 0.64791 0.42332 0.0
C389 C 0.81325 0.66015 0.4078 0.0
C390 C 0.80143 0.66644 0.42 0.0
C391 C 0.79496 0.66106 0.44801 0.0
C392 C 0.83035 0.64074 0.41021 0.0
C393 C 0.85063 0.65083 0.42348 0.0
C394 C 0.85407 0.65054 0.45366 0.0
C395 C 0.87254 0.65714 0.46559 0.0
C396 C 0.88785 0.66466 0.4471 0.0
C397 C 0.88484 0.6648 0.41694 0.0
C398 C 0.86623 0.65787 0.40521 0.0
H399 H 0.35528 0.17023 0.46775 0.0
H400 H 0.33662 0.15845 0.37728 0.0
H401 H 0.31411 0.11248 0.43663 0.0
H402 H 0.373 0.19314 0.42757 0.0
H403 H 0.36105 0.19012 0.39306 0.0
H404 H 0.3611 0.20178 0.47269 0.0
H405 H 0.33703 0.23806 0.45638 0.0
H406 H 0.34006 0.20328 0.38621 0.0
C407 C 0.34579 0.16022 0.45065 0.0
C408 C 0.33472 0.14041 0.45599 0.0
C409 C 0.34575 0.16704 0.42264 0.0
C410 C 0.33544 0.15364 0.39938 0.0
C411 C 0.32433 0.13389 0.40443 0.0
C412 C 0.32309 0.12771 0.43296 0.0
C413 C 0.35874 0.18814 0.4168 0.0
C414 C 0.35118 0.20083 0.42829 0.0
C415 C 0.35421 0.20699 0.45795 0.0
C416 C 0.34886 0.22019 0.46849 0.0
C417 C 0.34061 0.22734 0.44885 0.0
C418 C 0.33741 0.22136 0.41928 0.0
C419 C 0.34231 0.20775 0.40914 0.0
H420 H 0.84889 0.16273 0.48187 0.0
H421 H 0.84024 0.13814 0.39444 0.0
H422 H 0.79315 0.13482 0.43993 0.0
H423 H 0.87009 0.14995 0.45728 0.0
H424 H 0.87055 0.15031 0.41853 0.0
H425 H 0.88298 0.18009 0.48776 0.0
H426 H 0.92006 0.23286 0.44651 0.0
H427 H 0.88454 0.18115 0.3939 0.0
C428 C 0.83983 0.1562 0.46235 0.0
C429 C 0.82038 0.15017 0.46319 0.0
C430 C 0.84729 0.15248 0.43729 0.0
C431 C 0.8349 0.14221 0.41312 0.0
C432 C 0.81534 0.13598 0.41382 0.0
C433 C 0.80839 0.14066 0.43853 0.0
C434 C 0.8677 0.15682 0.4381 0.0
C435 C 0.88166 0.17828 0.44053 0.0
C436 C 0.88814 0.188 0.46811 0.0
C437 C 0.90206 0.20769 0.47038 0.0
C438 C 0.90912 0.2177 0.44494 0.0
C439 C 0.90284 0.20823 0.41747 0.0
C440 C 0.88907 0.18856 0.4152 0.0
H441 H 0.0318 0.5193 0.18073 0.0
H442 H 0.04909 0.53318 0.27195 0.0
H443 H 0.01726 0.55614 0.2299 0.0
H444 H 0.05795 0.51523 0.20301 0.0
H445 H 0.06289 0.5184 0.24155 0.0
H446 H 0.03133 0.48523 0.18136 0.0
H447 H 0.0048 0.43652 0.23568 0.0
H448 H 0.04175 0.49347 0.27447 0.0
C449 C 0.03147 0.52593 0.20144 0.0
C450 C 0.02314 0.53762 0.20266 0.0
C451 C 0.04065 0.52401 0.22653 0.0
C452 C 0.04126 0.53379 0.25289 0.0
C453 C 0.03247 0.54506 0.25422 0.0
C454 C 0.02319 0.54659 0.22923 0.0
C455 C 0.05118 0.51299 0.22443 0.0
C456 C 0.03772 0.49173 0.22764 0.0
C457 C 0.0287 0.4794 0.20289 0.0
C458 C 0.01655 0.45952 0.20583 0.0
C459 C 0.01338 0.45203 0.23369 0.0
C460 C 0.0226 0.4641 0.25859 0.0
C461 C 0.03447 0.48403 0.25543 0.0
H462 H 0.51025 0.50274 0.20799 0.0
H463 H 0.52093 0.51917 0.29986 0.0
H464 H 0.5467 0.56204 0.23607 0.0
H465 H 0.50956 0.47996 0.25073 0.0
H466 H 0.50445 0.4857 0.28578 0.0
H467 H 0.48645 0.47252 0.2077 0.0
H468 H 0.42782 0.44648 0.22937 0.0
H469 H 0.47216 0.47573 0.29638 0.0
C470 C 0.51631 0.51369 0.22547 0.0
C471 C 0.52796 0.53306 0.21849 0.0
C472 C 0.51323 0.50844 0.25478 0.0
C473 C 0.52242 0.52297 0.27722 0.0
C474 C 0.53454 0.54227 0.27031 0.0
C475 C 0.53691 0.54717 0.24111 0.0
C476 C 0.50274 0.48726 0.26205 0.0
C477 C 0.48174 0.4767 0.2527 0.0
C478 C 0.47589 0.47006 0.2235 0.0
C479 C 0.45647 0.45929 0.21481 0.0
C480 C 0.44284 0.45461 0.23592 0.0
C481 C 0.44829 0.45996 0.26549 0.0
C482 C 0.46778 0.47159 0.27361 0.0
H483 H 0.48619 0.97015 0.21746 0.0
H484 H 0.50509 0.97849 0.30795 0.0
H485 H 0.54566 0.99913 0.24081 0.0
H486 H 0.46585 0.94823 0.26065 0.0
H487 H 0.47193 0.95953 0.29623 0.0
H488 H 0.45822 0.9655 0.21914 0.0
H489 H 0.42523 0.99031 0.24712 0.0
H490 H 0.45536 0.9757 0.3109 0.0
C491 C 0.49737 0.97657 0.23423 0.0
C492 C 0.51631 0.98599 0.2257 0.0
C493 C 0.49299 0.97449 0.26391 0.0
C494 C 0.50812 0.98111 0.28514 0.0
C495 C 0.52716 0.99018 0.27679 0.0
C496 C 0.53104 0.99301 0.24723 0.0
C497 C 0.47241 0.96253 0.27265 0.0
C498 C 0.46015 0.97153 0.26577 0.0
C499 C 0.45434 0.97185 0.23674 0.0
C500 C 0.4426 0.97952 0.2301 0.0
C501 C 0.43543 0.98574 0.25261 0.0
C502 C 0.43934 0.98377 0.28186 0.0
C503 C 0.45228 0.97728 0.28836 0.0
H504 H 0.4958 0.99273 0.80515 0.0
H505 H 0.48789 0.00697 0.71787 0.0
H506 H 0.4724 0.02943 0.79192 0.0
H507 H 0.49635 0.97391 0.75891 0.0
H508 H 0.49962 0.98489 0.72457 0.0
H509 H 0.52276 0.99414 0.80102 0.0
H510 H 0.57911 0.01981 0.76996 0.0
H511 H 0.53146 0.00138 0.70894 0.0
C512 C 0.49247 0.00104 0.79041 0.0
C513 C 0.48534 0.01241 0.80183 0.0
C514 C 0.49474 1.00001 0.76024 0.0
C515 C 0.48754 0.00875 0.74128 0.0
C516 C 0.47928 0.01928 0.75265 0.0
C517 C 0.47903 0.02165 0.78294 0.0
C518 C 0.50309 0.98807 0.74838 0.0
C519 C 0.52452 0.99777 0.75444 0.0
C520 C 0.53209 0.99965 0.78312 0.0
C521 C 0.5518 0.00822 0.78897 0.0
C522 C 0.56398 0.01423 0.76571 0.0
C523 C 0.55678 0.01156 0.73683 0.0
C524 C 0.53705 0.00356 0.73126 0.0
H525 H 0.0239 0.50404 0.81331 0.0
H526 H 0.00344 0.48565 0.72395 0.0
H527 H 0.99048 0.44369 0.7887 0.0
H528 H 0.04034 0.52445 0.76864 0.0
H529 H 0.02696 0.51861 0.73491 0.0
H530 H 0.02779 0.53368 0.81374 0.0
H531 H 0.00377 0.5692 0.79238 0.0
H532 H 0.0072 0.53253 0.72573 0.0
C533 C 0.01533 0.49275 0.79703 0.0
C534 C 0.00644 0.47338 0.80492 0.0
C535 C 0.01392 0.49746 0.76798 0.0
C536 C 0.00384 0.48238 0.74662 0.0
C537 C 0.9955 0.46302 0.75426 0.0
C538 C 0.99651 0.45872 0.78332 0.0
C539 C 0.02561 0.51818 0.75897 0.0
C540 C 0.01778 0.53101 0.76885 0.0
C541 C 0.02081 0.53818 0.79804 0.0
C542 C 0.01535 0.55161 0.80691 0.0
C543 C 0.0074 0.5583 0.78604 0.0
C544 C 0.00454 0.55164 0.75683 0.0
C545 C 0.00926 0.53758 0.74839 0.0
H546 H 0.50458 0.49082 0.81682 0.0
H547 H 0.49435 0.48173 0.72396 0.0
H548 H 0.4489 0.44987 0.78143 0.0
H549 H 0.52972 0.49307 0.7807 0.0
H550 H 0.52617 0.49649 0.74349 0.0
H551 H 0.53499 0.51807 0.81957 0.0
H552 H 0.56235 0.57581 0.78997 0.0
H553 H 0.53283 0.52752 0.72809 0.0
C554 C 0.49476 0.48419 0.79813 0.0
C555 C 0.47558 0.4708 0.80239 0.0
C556 C 0.50166 0.48804 0.76993 0.0
C557 C 0.48893 0.47892 0.74567 0.0
C558 C 0.46966 0.46519 0.74943 0.0
C559 C 0.46322 0.46144 0.77797 0.0
C560 C 0.52289 0.49896 0.76605 0.0
C561 C 0.53185 0.52037 0.77316 0.0
C562 C 0.53773 0.5278 0.80202 0.0
C563 C 0.54814 0.54783 0.80814 0.0
C564 C 0.553 0.56045 0.78522 0.0
C565 C 0.54801 0.55328 0.75615 0.0
C566 C 0.53667 0.53322 0.75044 0.0
H567 H 0.70213 0.86027 0.5204 0.0
H568 H 0.72175 0.88039 0.60927 0.0
H569 H 0.6864 0.89791 0.56266 0.0
H570 H 0.73357 0.86412 0.54452 0.0
H571 H 0.73568 0.86497 0.58329 0.0
H572 H 0.70659 0.83473 0.51735 0.0
H573 H 0.68895 0.78139 0.55922 0.0
H574 H 0.72074 0.83533 0.60865 0.0
C575 C 0.70184 0.86764 0.54028 0.0
C576 C 0.69179 0.87764 0.54 0.0
C577 C 0.71237 0.8682 0.56548 0.0
C578 C 0.71312 0.87943 0.5902 0.0
C579 C 0.70401 0.89054 0.58956 0.0
C580 C 0.69286 0.88893 0.56451 0.0
C581 C 0.72514 0.85943 0.56444 0.0
C582 C 0.71402 0.83759 0.56349 0.0
C583 C 0.70537 0.82713 0.53704 0.0
C584 C 0.69617 0.80687 0.5354 0.0
C585 C 0.69567 0.79704 0.56043 0.0
C586 C 0.7045 0.80724 0.58678 0.0
C587 C 0.71354 0.82748 0.58839 0.0
H588 H 0.17226 0.83286 0.55306 0.0
H589 H 0.19209 0.84986 0.64329 0.0
H590 H 0.21471 0.89113 0.57648 0.0
H591 H 0.17769 0.81101 0.60207 0.0
H592 H 0.1686 0.81719 0.6325 0.0
H593 H 0.15887 0.80045 0.5538 0.0
H594 H 0.0982 0.76978 0.56194 0.0
H595 H 0.13506 0.80594 0.63365 0.0
C596 C 0.18068 0.8436 0.57003 0.0
C597 C 0.19313 0.86248 0.56193 0.0
C598 C 0.17997 0.83873 0.59954 0.0
C599 C 0.19195 0.85334 0.62066 0.0
C600 C 0.20461 0.87219 0.61232 0.0
C601 C 0.20493 0.87659 0.58304 0.0
C602 C 0.16915 0.81781 0.60834 0.0
C603 C 0.14918 0.80556 0.59459 0.0
C604 C 0.14653 0.79728 0.56619 0.0
C605 C 0.12815 0.78482 0.55387 0.0
C606 C 0.11239 0.77986 0.57092 0.0
C607 C 0.11466 0.78703 0.59986 0.0
C608 C 0.1331 0.80041 0.61126 0.0
H609 H 0.15776 0.31391 0.55118 0.0
H610 H 0.16773 0.29188 0.6305 0.0
H611 H 0.21464 0.33149 0.58087 0.0
H612 H 0.13397 0.27698 0.57955 0.0
H613 H 0.13576 0.28305 0.61738 0.0
H614 H 0.12502 0.29392 0.54306 0.0
H615 H 0.09689 0.32367 0.5746 0.0
H616 H 0.1246 0.30459 0.63552 0.0
C617 C 0.16725 0.31398 0.56818 0.0
C618 C 0.18689 0.32472 0.56442 0.0
C619 C 0.16007 0.30265 0.59273 0.0
C620 C 0.17303 0.30155 0.61263 0.0
C621 C 0.19279 0.31205 0.60862 0.0
C622 C 0.19954 0.32409 0.58501 0.0
C623 C 0.13877 0.2894 0.59555 0.0
C624 C 0.12709 0.29909 0.58988 0.0
C625 C 0.12133 0.30022 0.56115 0.0
C626 C 0.11105 0.30968 0.55562 0.0
C627 C 0.10565 0.31719 0.57896 0.0
C628 C 0.11004 0.315 0.60781 0.0
C629 C 0.1211 0.30626 0.61324 0.0
H630 H 0.01804 0.40571 0.05738 0.0
H631 H 0.95641 0.37232 0.05928 0.0
H632 H 0.95761 0.38875 0.10627 0.0
H633 H 0.02848 0.4085 0.13652 0.0
H634 H 0.04778 0.43315 0.13629 0.0
H635 H 0.0422 0.41725 0.10448 0.0
H636 H 0.03858 0.44187 0.07328 0.0
H637 H 0.04387 0.45771 0.10505 0.0
H638 H 0.02205 0.44962 0.08361 0.0
H639 H 0.96529 0.40936 0.15199 0.0
H640 H 0.97909 0.43336 0.19359 0.0
H641 H 0.03551 0.45512 0.16051 0.0
C642 C 0.00489 0.40157 0.06817 0.0
C643 C 0.98714 0.38757 0.05512 0.0
C644 C 0.97013 0.3829 0.06921 0.0
C645 C 0.97068 0.39216 0.09582 0.0
C646 C 0.98834 0.40626 0.10784 0.0
C647 C 0.00516 0.411 0.09452 0.0
C648 C 0.02209 0.42761 0.11112 0.0
C649 C 0.03595 0.42124 0.1228 0.0
C650 C 0.03224 0.44524 0.09213 0.0
C651 C 0.01214 0.43148 0.13569 0.0
C652 C 0.99269 0.41886 0.13352 0.0
C653 C 0.98049 0.41937 0.15391 0.0
C654 C 0.9884 0.43302 0.17735 0.0
C655 C 0.00826 0.44614 0.17991 0.0
C656 C 0.02023 0.44543 0.1587 0.0
H657 H 0.57824 0.61433 0.10734 0.0
H658 H 0.59842 0.57828 0.06831 0.0
H659 H 0.57465 0.55038 0.09439 0.0
H660 H 0.57517 0.59797 0.17507 0.0
H661 H 0.55416 0.59873 0.1849 0.0
H662 H 0.56918 0.61441 0.15793 0.0
H663 H 0.54025 0.60075 0.12087 0.0
H664 H 0.52508 0.58496 0.14789 0.0
H665 H 0.52637 0.57504 0.11288 0.0
H666 H 0.55335 0.52839 0.13095 0.0
H667 H 0.53765 0.51482 0.17666 0.0
H668 H 0.53087 0.56474 0.19239 0.0
C669 C 0.5771 0.60036 0.10345 0.0
C670 C 0.58998 0.59836 0.08564 0.0
C671 C 0.58858 0.58006 0.08178 0.0
C672 C 0.57503 0.5641 0.09635 0.0
C673 C 0.56296 0.56666 0.11466 0.0
C674 C 0.56381 0.58433 0.11819 0.0
C675 C 0.55137 0.58408 0.14242 0.0
C676 C 0.56318 0.59971 0.16649 0.0
C677 C 0.53478 0.58633 0.13028 0.0
C678 C 0.54429 0.56392 0.15302 0.0
C679 C 0.5507 0.5539 0.13624 0.0
C680 C 0.5478 0.53586 0.14381 0.0
C681 C 0.53877 0.5282 0.16978 0.0
C682 C 0.53296 0.53869 0.18801 0.0
C683 C 0.53506 0.55636 0.17876 0.0
H684 H 0.42326 0.02402 0.08889 0.0
H685 H 0.39046 0.96544 0.05146 0.0
H686 H 0.39784 0.95308 0.09574 0.0
H687 H 0.46018 0.01932 0.12463 0.0
H688 H 0.46197 0.0338 0.15661 0.0
H689 H 0.45417 0.03813 0.12198 0.0
H690 H 0.42317 0.03344 0.14438 0.0
H691 H 0.43097 0.02929 0.17915 0.0
H692 H 0.40816 0.01155 0.16271 0.0
H693 H 0.41022 0.94733 0.14288 0.0
H694 H 0.42358 0.9482 0.19241 0.0
H695 H 0.44662 0.0102 0.20009 0.0
C696 C 0.41759 0.00859 0.09008 0.0
C697 C 0.40638 0.99568 0.06675 0.0
C698 C 0.39903 0.97557 0.06917 0.0
C699 C 0.40323 0.96843 0.09413 0.0
C700 C 0.41455 0.98158 0.11657 0.0
C701 C 0.42136 0.00119 0.11501 0.0
C702 C 0.4327 0.01216 0.14256 0.0
C703 C 0.45349 0.02671 0.13604 0.0
C704 C 0.42318 0.0222 0.15812 0.0
C705 C 0.43137 0.99567 0.15972 0.0
C706 C 0.42103 0.97817 0.14421 0.0
C707 C 0.41823 0.96092 0.15532 0.0
C708 C 0.42594 0.96155 0.18328 0.0
C709 C 0.43607 0.97926 0.19976 0.0
C710 C 0.43887 0.9965 0.18778 0.0
H711 H 0.41474 0.97397 0.92628 0.0
H712 H 0.43919 0.03396 0.95607 0.0
H713 H 0.4672 0.04264 0.92707 0.0
H714 H 0.46215 0.97467 0.91702 0.0
H715 H 0.45248 0.95921 0.88448 0.0
H716 H 0.43718 0.95666 0.91391 0.0
H717 H 0.41462 0.96115 0.87803 0.0
H718 H 0.42978 0.96374 0.84871 0.0
H719 H 0.42417 0.98248 0.85689 0.0
H720 H 0.488 0.04622 0.88694 0.0
H721 H 0.49967 0.04424 0.83852 0.0
H722 H 0.46243 0.98215 0.83412 0.0
C723 C 0.42638 0.98879 0.92767 0.0
C724 C 0.42485 0.00325 0.94363 0.0
C725 C 0.44009 0.02259 0.94424 0.0
C726 C 0.45615 0.02765 0.92792 0.0
C727 C 0.45683 0.0132 0.91127 0.0
C728 C 0.44242 0.99408 0.91125 0.0
C729 C 0.44496 0.98192 0.88791 0.0
C730 C 0.44947 0.96725 0.90166 0.0
C731 C 0.42735 0.97175 0.86664 0.0
C732 C 0.46215 0.99743 0.87334 0.0
C733 C 0.46914 0.01529 0.88771 0.0
C734 C 0.48313 0.03226 0.87604 0.0
C735 C 0.48966 0.03104 0.84857 0.0
C736 C 0.48217 0.01301 0.83317 0.0
C737 C 0.46881 0.99597 0.84614 0.0
H738 H 0.98076 0.39383 0.91944 0.0
H739 H 0.04057 0.4241 0.94765 0.0
H740 H 0.04568 0.45213 0.91963 0.0
H741 H 0.98731 0.40718 0.84883 0.0
H742 H 0.96655 0.40977 0.84447 0.0
H743 H 0.96697 0.39368 0.87067 0.0
H744 H 0.95963 0.41172 0.91154 0.0
H745 H 0.95922 0.42794 0.88533 0.0
H746 H 0.97484 0.43748 0.91753 0.0
H747 H 0.04527 0.4746 0.88268 0.0
H748 H 0.03949 0.4888 0.83918 0.0
H749 H 0.97971 0.4446 0.83671 0.0
C750 C 0.99481 0.40657 0.92048 0.0
C751 C 0.01023 0.40682 0.93592 0.0
C752 C 0.02851 0.4236 0.93609 0.0
C753 C 0.03153 0.43965 0.92035 0.0
C754 C 0.0161 0.43877 0.9048 0.0
C755 C 0.99806 0.42269 0.90493 0.0
C756 C 0.98431 0.42446 0.88406 0.0
C757 C 0.9758 0.40779 0.86063 0.0
C758 C 0.96857 0.42546 0.90061 0.0
C759 C 0.99762 0.44362 0.87115 0.0
C760 C 0.01583 0.45185 0.88371 0.0
C761 C 0.03096 0.46854 0.87316 0.0
C762 C 0.02753 0.4766 0.84851 0.0
C763 C 0.00913 0.46787 0.83461 0.0
C764 C 0.99392 0.45165 0.84694 0.0
H765 H 0.57492 0.61787 0.95001 0.0
H766 H 0.61673 0.60127 0.97396 0.0
H767 H 0.60669 0.57923 0.93015 0.0
H768 H 0.5383 0.57202 0.92178 0.0
H769 H 0.53103 0.58137 0.89182 0.0
H770 H 0.54154 0.59603 0.92488 0.0
H771 H 0.56753 0.62328 0.89549 0.0
H772 H 0.55693 0.60884 0.86229 0.0
H773 H 0.58175 0.6178 0.87178 0.0
H774 H 0.59052 0.55732 0.88567 0.0
H775 H 0.57281 0.54081 0.83931 0.0
H776 H 0.54317 0.57332 0.8425 0.0
C777 C 0.58207 0.60971 0.94587 0.0
C778 C 0.59656 0.61121 0.96539 0.0
C779 C 0.60569 0.60043 0.95917 0.0
C780 C 0.59998 0.58777 0.93449 0.0
C781 C 0.58536 0.58631 0.91602 0.0
C782 C 0.57682 0.59731 0.92103 0.0
C783 C 0.56191 0.59352 0.89723 0.0
C784 C 0.54202 0.58524 0.90968 0.0
C785 C 0.56736 0.61196 0.88072 0.0
C786 C 0.56324 0.57851 0.87822 0.0
C787 C 0.57665 0.57434 0.88968 0.0
C788 C 0.58009 0.56057 0.87638 0.0
C789 C 0.56988 0.55116 0.85027 0.0
C790 C 0.55663 0.55578 0.83764 0.0
C791 C 0.5532 0.56952 0.8519 0.0
H792 H 0.99614 0.60059 0.94567 0.0
H793 H 0.05172 0.61373 0.98132 0.0
H794 H 0.0555 0.59661 0.939 0.0
H795 H 0.98205 0.55264 0.91639 0.0
H796 H 0.97009 0.55471 0.88421 0.0
H797 H 0.97155 0.56789 0.91753 0.0
H798 H 0.98729 0.59999 0.89054 0.0
H799 H 0.98578 0.5869 0.85713 0.0
H800 H 0.00847 0.60659 0.87078 0.0
H801 H 0.05377 0.57884 0.89219 0.0
H802 H 0.04686 0.56247 0.84338 0.0
H803 H 0.9919 0.5596 0.83927 0.0
C804 C 0.00912 0.59992 0.94457 0.0
C805 C 0.02361 0.60854 0.9669 0.0
C806 C 0.04036 0.60722 0.96459 0.0
C807 C 0.04266 0.59749 0.94063 0.0
C808 C 0.02806 0.58903 0.91917 0.0
C809 C 0.01163 0.59015 0.92085 0.0
C810 C 0.99822 0.57997 0.8946 0.0
C811 C 0.97936 0.56278 0.90374 0.0
C812 C 0.99475 0.59422 0.87724 0.0
C813 C 0.00981 0.5732 0.87781 0.0
C814 C 0.02694 0.57851 0.89238 0.0
C815 C 0.04031 0.57443 0.88066 0.0
C816 C 0.03619 0.56498 0.85301 0.0
C817 C 0.01883 0.55969 0.83744 0.0
C818 C 0.00538 0.56358 0.85043 0.0
H819 H 0.39397 0.40952 0.90854 0.0
H820 H 0.43513 0.3994 0.95517 0.0
H821 H 0.46099 0.42464 0.92808 0.0
H822 H 0.41298 0.41401 0.84145 0.0
H823 H 0.4085 0.4327 0.82929 0.0
H824 H 0.39373 0.41636 0.8559 0.0
H825 H 0.40154 0.44543 0.89134 0.0
H826 H 0.41642 0.4619 0.86474 0.0
H827 H 0.42607 0.46297 0.901 0.0
H828 H 0.48143 0.44715 0.89143 0.0
H829 H 0.49472 0.46419 0.84663 0.0
H830 H 0.44084 0.46106 0.82428 0.0
C831 C 0.40851 0.41302 0.91357 0.0
C832 C 0.41255 0.40243 0.93381 0.0
C833 C 0.43165 0.40707 0.93943 0.0
C834 C 0.44649 0.4216 0.92441 0.0
C835 C 0.44199 0.43143 0.90396 0.0
C836 C 0.42347 0.42739 0.89856 0.0
C837 C 0.42217 0.43844 0.87313 0.0
C838 C 0.40855 0.42455 0.8485 0.0
C839 C 0.4162 0.45306 0.88316 0.0
C840 C 0.44269 0.44859 0.86428 0.0
C841 C 0.45395 0.44467 0.88272 0.0
C842 C 0.47291 0.45076 0.87724 0.0
C843 C 0.48038 0.46058 0.85176 0.0
C844 C 0.46889 0.46414 0.83197 0.0
C845 C 0.45002 0.45864 0.83901 0.0
H846 H 0.56247 0.96836 0.94131 0.0
H847 H 0.61549 0.02257 0.95811 0.0
H848 H 0.61 0.03449 0.91182 0.0
H849 H 0.56705 0.96475 0.86476 0.0
H850 H 0.54193 0.95446 0.85606 0.0
H851 H 0.54983 0.95057 0.89091 0.0
H852 H 0.53108 0.96462 0.91687 0.0
H853 H 0.52325 0.9687 0.88207 0.0
H854 H 0.53563 0.98846 0.90871 0.0
H855 H 0.59883 0.04029 0.86334 0.0
H856 H 0.58366 0.03894 0.81529 0.0
H857 H 0.53835 0.98069 0.83022 0.0
C858 C 0.57294 0.98278 0.9354 0.0
C859 C 0.5894 0.99454 0.95346 0.0
C860 C 0.60277 0.01327 0.94468 0.0
C861 C 0.59974 0.0202 0.91848 0.0
C862 C 0.5833 0.00824 0.90132 0.0
C863 C 0.57018 0.98989 0.90936 0.0
C864 C 0.55397 0.97967 0.88667 0.0
C865 C 0.55316 0.96128 0.87384 0.0
C866 C 0.53485 0.9751 0.89935 0.0
C867 C 0.56007 0.99508 0.86444 0.0
C868 C 0.57696 0.0115 0.87337 0.0
C869 C 0.5856 0.02752 0.85615 0.0
C870 C 0.57691 0.02659 0.82888 0.0
C871 C 0.55981 0.00973 0.81902 0.0
C872 C 0.55122 0.9939 0.83731 0.0
H873 H 0.59121 0.01944 0.10396 0.0
H874 H 0.55628 0.96215 0.06322 0.0
H875 H 0.52993 0.95671 0.09424 0.0
H876 H 0.57935 0.00633 0.17275 0.0
H877 H 0.57903 0.02766 0.18568 0.0
H878 H 0.59343 0.02904 0.15577 0.0
H879 H 0.57647 0.04259 0.12357 0.0
H880 H 0.56202 0.04134 0.15355 0.0
H881 H 0.55084 0.02938 0.11888 0.0
H882 H 0.50997 0.95495 0.13527 0.0
H883 H 0.49838 0.95676 0.18359 0.0
H884 H 0.54558 0.01544 0.19789 0.0
C885 C 0.57776 0.00606 0.10078 0.0
C886 C 0.57577 0.99129 0.08096 0.0
C887 C 0.55816 0.97372 0.0781 0.0
C888 C 0.54302 0.97054 0.09555 0.0
C889 C 0.54567 0.98509 0.1157 0.0
C890 C 0.56256 0.00259 0.11827 0.0
C891 C 0.56276 0.01474 0.14431 0.0
C892 C 0.57963 0.01971 0.16589 0.0
C893 C 0.56303 0.0331 0.13448 0.0
C894 C 0.54386 0.00087 0.15693 0.0
C895 C 0.534 0.98405 0.13971 0.0
C896 C 0.51725 0.96826 0.14854 0.0
C897 C 0.51071 0.96947 0.17604 0.0
C898 C 0.52098 0.98631 0.19452 0.0
C899 C 0.53736 0.00241 0.18422 0.0
H900 H 0.02198 0.616 0.10334 0.0
H901 H 0.97044 0.57047 0.05896 0.0
H902 H 0.97345 0.54608 0.08722 0.0
H903 H 0.04757 0.58958 0.10782 0.0
H904 H 0.05799 0.59997 0.14355 0.0
H905 H 0.05225 0.61348 0.11849 0.0
H906 H 0.03147 0.61752 0.15697 0.0
H907 H 0.03724 0.60414 0.18214 0.0
H908 H 0.01265 0.59635 0.17267 0.0
H909 H 0.98183 0.52678 0.12228 0.0
H910 H 0.99367 0.51502 0.16299 0.0
H911 H 0.03928 0.57362 0.18324 0.0
C912 C 0.01144 0.60089 0.09922 0.0
C913 C 0.99607 0.59511 0.07881 0.0
C914 C 0.98236 0.57521 0.07453 0.0
C915 C 0.98401 0.56125 0.09034 0.0
C916 C 0.99944 0.56748 0.11029 0.0
C917 C 0.01284 0.58688 0.1148 0.0
C918 C 0.02751 0.59009 0.13851 0.0
C919 C 0.04751 0.59879 0.12635 0.0
C920 C 0.02718 0.60276 0.16408 0.0
C921 C 0.02015 0.56951 0.147 0.0
C922 C 0.00408 0.55657 0.13037 0.0
C923 C 0.99448 0.53678 0.13528 0.0
C924 C 1.00128 0.53021 0.15825 0.0
C925 C 0.01732 0.54348 0.17593 0.0
C926 C 0.02702 0.56323 0.16981 0.0
H927 H 0.39627 0.38153 0.08495 0.0
H928 H 0.43406 0.42388 0.02573 0.0
H929 H 0.4494 0.44794 0.06678 0.0
H930 H 0.39174 0.41577 0.13613 0.0
H931 H 0.39232 0.40315 0.16776 0.0
H932 H 0.38253 0.39003 0.13329 0.0
H933 H 0.40595 0.37688 0.13633 0.0
H934 H 0.41587 0.39005 0.17065 0.0
H935 H 0.4312 0.39366 0.14085 0.0
H936 H 0.46231 0.46653 0.11414 0.0
H937 H 0.47201 0.47861 0.1653 0.0
H938 H 0.42715 0.42373 0.19446 0.0
C939 C 0.4074 0.39605 0.08071 0.0
C940 C 0.41387 0.40108 0.05232 0.0
C941 C 0.42887 0.41995 0.04744 0.0
C942 C 0.43763 0.43368 0.07056 0.0
C943 C 0.43133 0.42824 0.09848 0.0
C944 C 0.41655 0.40991 0.10374 0.0
C945 C 0.41371 0.40739 0.13617 0.0
C946 C 0.3939 0.40388 0.14378 0.0
C947 C 0.41688 0.39103 0.1466 0.0
C948 C 0.42935 0.427 0.14818 0.0
C949 C 0.4392 0.43886 0.12605 0.0
C950 C 0.45464 0.45743 0.13171 0.0
C951 C 0.46015 0.46411 0.16084 0.0
C952 C 0.45035 0.45218 0.18396 0.0
C953 C 0.43473 0.43338 0.17736 0.0
H954 H 0.68154 0.73236 0.40425 0.0
H955 H 0.64418 0.74957 0.36163 0.0
H956 H 0.6487 0.77115 0.40393 0.0
H957 H 0.66559 0.73272 0.47788 0.0
H958 H 0.68906 0.74205 0.49472 0.0
H959 H 0.68245 0.72735 0.46137 0.0
H960 H 0.71167 0.75453 0.43689 0.0
H961 H 0.71833 0.76933 0.4701 0.0
H962 H 0.71472 0.77846 0.43649 0.0
H963 H 0.65874 0.79248 0.44927 0.0
H964 H 0.67221 0.81057 0.49655 0.0
H965 H 0.70213 0.77894 0.51056 0.0
C966 C 0.67418 0.74053 0.4039 0.0
C967 C 0.66251 0.73921 0.37951 0.0
C968 C 0.65316 0.75021 0.38001 0.0
C969 C 0.65565 0.76258 0.40395 0.0
C970 C 0.6674 0.76372 0.42742 0.0
C971 C 0.67637 0.75287 0.42779 0.0
C972 C 0.68834 0.75695 0.45576 0.0
C973 C 0.68091 0.73868 0.47348 0.0
C974 C 0.70952 0.76532 0.44942 0.0
C975 C 0.68489 0.77196 0.47078 0.0
C976 C 0.67281 0.7757 0.45401 0.0
C977 C 0.66807 0.78955 0.46277 0.0
C978 C 0.67583 0.7998 0.48951 0.0
C979 C 0.68803 0.79599 0.50719 0.0
C980 C 0.69257 0.78188 0.49765 0.0
H981 H 0.26175 0.91427 0.43698 0.0
H982 H 0.22513 0.93749 0.41421 0.0
H983 H 0.20052 0.91424 0.44548 0.0
H984 H 0.22364 0.86306 0.4451 0.0
H985 H 0.23611 0.86054 0.47623 0.0
H986 H 0.24933 0.87648 0.44795 0.0
H987 H 0.26658 0.905 0.48635 0.0
H988 H 0.25359 0.88912 0.51461 0.0
H989 H 0.25259 0.91091 0.50989 0.0
H990 H 0.18175 0.89154 0.48407 0.0
H991 H 0.17195 0.87352 0.52946 0.0
H992 H 0.22093 0.8656 0.52767 0.0
C993 C 0.24833 0.9141 0.43791 0.0
C994 C 0.24529 0.92757 0.42286 0.0
C995 C 0.22778 0.92728 0.42536 0.0
C996 C 0.21363 0.91399 0.44294 0.0
C997 C 0.21722 0.9011 0.45791 0.0
C998 C 0.23421 0.90113 0.45565 0.0
C999 C 0.23569 0.8877 0.47684 0.0
C1000 C 0.23622 0.87095 0.46055 0.0
C1001 C 0.25313 0.89885 0.49818 0.0
C1002 C 0.21719 0.88063 0.49212 0.0
C1003 C 0.20649 0.88815 0.48046 0.0
C1004 C 0.18975 0.88517 0.49291 0.0
C1005 C 0.1842 0.87485 0.51851 0.0
C1006 C 0.19545 0.86781 0.53128 0.0
C1007 C 0.21179 0.87026 0.5175 0.0
H1008 H 0.09657 0.36405 0.42353 0.0
H1009 H 0.05728 0.30775 0.38264 0.0
H1010 H 0.06365 0.292 0.42365 0.0
H1011 H 0.13094 0.35275 0.45218 0.0
H1012 H 0.13549 0.36679 0.48583 0.0
H1013 H 0.12793 0.37363 0.45325 0.0
H1014 H 0.0994 0.37214 0.47978 0.0
H1015 H 0.10703 0.36555 0.51255 0.0
H1016 H 0.08313 0.35036 0.49732 0.0
H1017 H 0.07565 0.28254 0.46825 0.0
H1018 H 0.08904 0.2801 0.51613 0.0
H1019 H 0.11898 0.34251 0.52843 0.0
C1020 C 0.08925 0.3484 0.42324 0.0
C1021 C 0.07651 0.33711 0.39987 0.0
C1022 C 0.06704 0.31667 0.40042 0.0
C1023 C 0.07067 0.30761 0.42349 0.0
C1024 C 0.0836 0.3192 0.44595 0.0
C1025 C 0.09247 0.33914 0.44624 0.0
C1026 C 0.1052 0.34832 0.4734 0.0
C1027 C 0.12613 0.36113 0.46569 0.0
C1028 C 0.09827 0.35976 0.49185 0.0
C1029 C 0.1022 0.33043 0.48831 0.0
C1030 C 0.08991 0.31376 0.47199 0.0
C1031 C 0.08522 0.29548 0.48127 0.0
C1032 C 0.09296 0.29422 0.50829 0.0
C1033 C 0.10498 0.31112 0.52568 0.0
C1034 C 0.1098 0.32941 0.5154 0.0
H1035 H 0.08264 0.31863 0.26542 0.0
H1036 H 0.10877 0.38054 0.28244 0.0
H1037 H 0.13499 0.38592 0.25107 0.0
H1038 H 0.12921 0.3179 0.25718 0.0
H1039 H 0.11825 0.2994 0.22837 0.0
H1040 H 0.10423 0.30011 0.25774 0.0
H1041 H 0.08035 0.30111 0.22017 0.0
H1042 H 0.09426 0.3005 0.19086 0.0
H1043 H 0.08903 0.31988 0.19416 0.0
H1044 H 0.15336 0.38512 0.2094 0.0
H1045 H 0.16328 0.3778 0.16244 0.0
H1046 H 0.12662 0.31658 0.17366 0.0
C1047 C 0.09426 0.33326 0.26341 0.0
C1048 C 0.0937 0.34915 0.27641 0.0
C1049 C 0.10897 0.36812 0.27289 0.0
C1050 C 0.12399 0.37133 0.25516 0.0
C1051 C 0.12369 0.35539 0.24154 0.0
C1052 C 0.10939 0.33668 0.24588 0.0
C1053 C 0.11096 0.32226 0.22584 0.0
C1054 C 0.11597 0.30915 0.24333 0.0
C1055 C 0.09257 0.31026 0.20662 0.0
C1056 C 0.12747 0.33587 0.20807 0.0
C1057 C 0.13489 0.35492 0.21784 0.0
C1058 C 0.14823 0.37026 0.2022 0.0
C1059 C 0.15377 0.36603 0.17561 0.0
C1060 C 0.14605 0.34667 0.16522 0.0
C1061 C 0.13323 0.33145 0.182 0.0
H1062 H 0.65758 0.73399 0.24668 0.0
H1063 H 0.71551 0.76676 0.2835 0.0
H1064 H 0.72027 0.79526 0.25716 0.0
H1065 H 0.66766 0.75137 0.1775 0.0
H1066 H 0.646 0.75209 0.17116 0.0
H1067 H 0.64644 0.73529 0.19597 0.0
H1068 H 0.63466 0.74929 0.23681 0.0
H1069 H 0.63433 0.76627 0.21206 0.0
H1070 H 0.64784 0.77484 0.24633 0.0
H1071 H 0.72001 0.81881 0.22221 0.0
H1072 H 0.71517 0.83447 0.17969 0.0
H1073 H 0.657 0.78701 0.16761 0.0
C1074 C 0.67111 0.74728 0.24977 0.0
C1075 C 0.68611 0.74817 0.2673 0.0
C1076 C 0.70377 0.76573 0.27021 0.0
C1077 C 0.70658 0.78206 0.2555 0.0
C1078 C 0.69154 0.78066 0.23817 0.0
C1079 C 0.67414 0.76371 0.2353 0.0
C1080 C 0.66087 0.76537 0.2133 0.0
C1081 C 0.65491 0.75014 0.188 0.0
C1082 C 0.64339 0.76386 0.22801 0.0
C1083 C 0.67379 0.78561 0.2034 0.0
C1084 C 0.69133 0.79434 0.21829 0.0
C1085 C 0.7062 0.8123 0.21082 0.0
C1086 C 0.70329 0.82118 0.18676 0.0
C1087 C 0.68571 0.81198 0.17042 0.0
C1088 C 0.67058 0.79441 0.17977 0.0
H1089 H 0.26839 0.93903 0.28041 0.0
H1090 H 0.21192 0.92389 0.30816 0.0
H1091 H 0.19759 0.90321 0.26366 0.0
H1092 H 0.25845 0.94126 0.20367 0.0
H1093 H 0.27264 0.93109 0.19141 0.0
H1094 H 0.27873 0.94472 0.22572 0.0
H1095 H 0.27709 0.91569 0.25208 0.0
H1096 H 0.27098 0.90196 0.21786 0.0
H1097 H 0.25566 0.89238 0.24809 0.0
H1098 H 0.18905 0.8835 0.21724 0.0
H1099 H 0.18701 0.86716 0.16979 0.0
H1100 H 0.24876 0.89547 0.17069 0.0
C1101 C 0.25302 0.93137 0.27711 0.0
C1102 C 0.24132 0.93312 0.29788 0.0
C1103 C 0.22125 0.92291 0.2926 0.0
C1104 C 0.21292 0.91105 0.2674 0.0
C1105 C 0.22481 0.9096 0.24745 0.0
C1106 C 0.24442 0.91956 0.2518 0.0
C1107 C 0.25385 0.91561 0.2265 0.0
C1108 C 0.26667 0.93428 0.2109 0.0
C1109 C 0.26505 0.90583 0.23675 0.0
C1110 C 0.23644 0.90182 0.20744 0.0
C1111 C 0.21985 0.89849 0.22009 0.0
C1112 C 0.20193 0.88602 0.20702 0.0
C1113 C 0.20091 0.87675 0.18018 0.0
C1114 C 0.21771 0.88009 0.1666 0.0
C1115 C 0.2357 0.89282 0.18046 0.0
H1116 H 0.6846 0.92452 0.29807 0.0
H1117 H 0.66919 0.96654 0.27008 0.0
H1118 H 0.66541 0.95393 0.2191 0.0
H1119 H 0.71096 0.92527 0.2371 0.0
H1120 H 0.70222 0.89962 0.23525 0.0
H1121 H 0.70355 0.91169 0.26964 0.0
H1122 H 0.66763 0.88806 0.27609 0.0
H1123 H 0.66622 0.87581 0.24183 0.0
H1124 H 0.65048 0.88529 0.2478 0.0
H1125 H 0.6667 0.93926 0.17136 0.0
H1126 H 0.66825 0.92056 0.12971 0.0
H1127 H 0.67869 0.88474 0.18864 0.0
C1128 C 0.68034 0.93097 0.28117 0.0
C1129 C 0.6773 0.94659 0.28785 0.0
C1130 C 0.67152 0.95454 0.26535 0.0
C1131 C 0.66943 0.94754 0.23638 0.0
C1132 C 0.67277 0.93231 0.23047 0.0
C1133 C 0.67771 0.92383 0.25224 0.0
C1134 C 0.67997 0.90729 0.23995 0.0
C1135 C 0.70039 0.91121 0.24584 0.0
C1136 C 0.66519 0.88797 0.25214 0.0
C1137 C 0.6759 0.90807 0.20775 0.0
C1138 C 0.67201 0.92277 0.20287 0.0
C1139 C 0.66909 0.9273 0.17495 0.0
C1140 C 0.66978 0.9163 0.15134 0.0
C1141 C 0.6728 0.90044 0.15555 0.0
C1142 C 0.67611 0.8965 0.18436 0.0
H1143 H 0.09771 0.7398 0.26204 0.0
H1144 H 0.05774 0.76056 0.27059 0.0
H1145 H 0.07614 0.78632 0.23673 0.0
H1146 H 0.1413 0.78855 0.25408 0.0
H1147 H 0.15071 0.77854 0.22813 0.0
H1148 H 0.13632 0.764 0.25683 0.0
H1149 H 0.11345 0.73771 0.2183 0.0
H1150 H 0.12768 0.75212 0.18961 0.0
H1151 H 0.10261 0.74429 0.18935 0.0
H1152 H 0.09513 0.80548 0.19511 0.0
H1153 H 0.11426 0.81746 0.15129 0.0
H1154 H 0.14263 0.78528 0.17219 0.0
C1155 C 0.0931 0.75007 0.25753 0.0
C1156 C 0.07631 0.74817 0.26898 0.0
C1157 C 0.07066 0.76182 0.26219 0.0
C1158 C 0.08104 0.77653 0.24302 0.0
C1159 C 0.09723 0.77762 0.23137 0.0
C1160 C 0.10341 0.76493 0.23878 0.0
C1161 C 0.1202 0.76798 0.22136 0.0
C1162 C 0.1382 0.7752 0.2413 0.0
C1163 C 0.1157 0.74943 0.20361 0.0
C1164 C 0.12184 0.78363 0.20185 0.0
C1165 C 0.10864 0.7892 0.20812 0.0
C1166 C 0.10593 0.80171 0.19058 0.0
C1167 C 0.11678 0.8084 0.16576 0.0
C1168 C 0.13017 0.80263 0.15895 0.0
C1169 C 0.13299 0.79048 0.17761 0.0
H1170 H 0.23292 0.31078 0.29356 0.0
H1171 H 0.28428 0.36722 0.30114 0.0
H1172 H 0.27628 0.37486 0.25291 0.0
H1173 H 0.2358 0.30212 0.21776 0.0
H1174 H 0.21039 0.28992 0.21027 0.0
H1175 H 0.21972 0.28929 0.24597 0.0
H1176 H 0.19996 0.30321 0.26887 0.0
H1177 H 0.19069 0.30404 0.23317 0.0
H1178 H 0.20267 0.32565 0.25652 0.0
H1179 H 0.26291 0.37632 0.2039 0.0
H1180 H 0.24634 0.37062 0.15573 0.0
H1181 H 0.20429 0.31281 0.17929 0.0
C1182 C 0.24245 0.3248 0.28519 0.0
C1183 C 0.2592 0.33844 0.30123 0.0
C1184 C 0.27139 0.35652 0.28928 0.0
C1185 C 0.26692 0.36104 0.26196 0.0
C1186 C 0.25026 0.3473 0.24682 0.0
C1187 C 0.23829 0.32949 0.25787 0.0
C1188 C 0.22172 0.31698 0.23659 0.0
C1189 C 0.22194 0.29849 0.22709 0.0
C1190 C 0.20263 0.3122 0.24957 0.0
C1191 C 0.22633 0.3305 0.21174 0.0
C1192 C 0.24274 0.34798 0.21824 0.0
C1193 C 0.25007 0.36268 0.19854 0.0
C1194 C 0.24059 0.35927 0.17122 0.0
C1195 C 0.22406 0.34125 0.16369 0.0
C1196 C 0.21671 0.32682 0.1845 0.0
H1197 H 0.23693 0.31994 0.42637 0.0
H1198 H 0.27185 0.38239 0.43551 0.0
H1199 H 0.24909 0.38324 0.46932 0.0
H1200 H 0.18912 0.31761 0.43438 0.0
H1201 H 0.18035 0.29588 0.45439 0.0
H1202 H 0.197 0.30061 0.42616 0.0
H1203 H 0.21968 0.29702 0.46304 0.0
H1204 H 0.20318 0.2923 0.49121 0.0
H1205 H 0.22747 0.31178 0.49644 0.0
H1206 H 0.22725 0.37663 0.51022 0.0
H1207 H 0.20737 0.36301 0.55288 0.0
H1208 H 0.18525 0.30528 0.51492 0.0
C1209 C 0.23944 0.33386 0.43458 0.0
C1210 C 0.25613 0.35108 0.42822 0.0
C1211 C 0.25908 0.36899 0.43991 0.0
C1212 C 0.24618 0.36963 0.45907 0.0
C1213 C 0.2302 0.35228 0.46579 0.0
C1214 C 0.22661 0.33474 0.45344 0.0
C1215 C 0.20973 0.31799 0.46669 0.0
C1216 C 0.19306 0.3074 0.44405 0.0
C1217 C 0.21537 0.30397 0.48015 0.0
C1218 C 0.20522 0.32873 0.48984 0.0
C1219 C 0.21695 0.34854 0.4887 0.0
C1220 C 0.21745 0.36124 0.51066 0.0
C1221 C 0.20613 0.35344 0.53475 0.0
C1222 C 0.19439 0.33323 0.53638 0.0
C1223 C 0.19348 0.32083 0.51327 0.0
H1224 H 0.69527 0.942 0.41361 0.0
H1225 H 0.63375 0.91479 0.4158 0.0
H1226 H 0.63318 0.8897 0.44679 0.0
H1227 H 0.69759 0.89611 0.4147 0.0
H1228 H 0.71922 0.90785 0.4374 0.0
H1229 H 0.7143 0.92147 0.41136 0.0
H1230 H 0.71816 0.94605 0.45273 0.0
H1231 H 0.72304 0.93255 0.47877 0.0
H1232 H 0.70389 0.93744 0.48427 0.0
H1233 H 0.6401 0.8718 0.48501 0.0
H1234 H 0.65394 0.86203 0.5254 0.0
H1235 H 0.71052 0.89954 0.49551 0.0
C1236 C 0.68159 0.93045 0.41969 0.0
C1237 C 0.66456 0.93033 0.4121 0.0
C1238 C 0.64699 0.91511 0.42117 0.0
C1239 C 0.64652 0.90076 0.43871 0.0
C1240 C 0.66369 0.90162 0.44645 0.0
C1241 C 0.68088 0.91594 0.43682 0.0
C1242 C 0.69752 0.91488 0.45035 0.0
C1243 C 0.70776 0.90977 0.42706 0.0
C1244 C 0.71145 0.93385 0.46755 0.0
C1245 C 0.68714 0.8984 0.47037 0.0
C1246 C 0.66759 0.89074 0.46761 0.0
C1247 C 0.65529 0.87717 0.48665 0.0
C1248 C 0.66321 0.87167 0.50945 0.0
C1249 C 0.68315 0.87962 0.51268 0.0
C1250 C 0.69516 0.89271 0.49252 0.0
H1251 H 0.07141 0.73858 0.40109 0.0
H1252 H 0.11498 0.72402 0.38151 0.0
H1253 H 0.13164 0.739 0.42879 0.0
H1254 H 0.10342 0.78509 0.43567 0.0
H1255 H 0.08708 0.78334 0.46292 0.0
H1256 H 0.07806 0.77085 0.42788 0.0
H1257 H 0.05841 0.73845 0.45315 0.0
H1258 H 0.06729 0.75086 0.48826 0.0
H1259 H 0.07032 0.73062 0.47839 0.0
H1260 H 0.14347 0.75519 0.47826 0.0
H1261 H 0.14961 0.77154 0.52687 0.0
H1262 H 0.09966 0.77762 0.513 0.0
C1263 C 0.08435 0.73839 0.40691 0.0
C1264 C 0.09186 0.73009 0.38765 0.0
C1265 C 0.10898 0.73035 0.39587 0.0
C1266 C 0.11856 0.73881 0.4227 0.0
C1267 C 0.11094 0.74711 0.441 0.0
C1268 C 0.09427 0.74702 0.4335 0.0
C1269 C 0.08943 0.75735 0.45695 0.0
C1270 C 0.08951 0.77522 0.44514 0.0
C1271 C 0.07023 0.74349 0.46996 0.0
C1272 C 0.10592 0.76309 0.4788 0.0
C1273 C 0.11813 0.757 0.46922 0.0
C1274 C 0.13411 0.76019 0.48595 0.0
C1275 C 0.13758 0.76968 0.51345 0.0
C1276 C 0.12519 0.77599 0.52386 0.0
C1277 C 0.10931 0.77282 0.50595 0.0
H1278 H 0.33463 0.05774 0.73956 0.0
H1279 H 0.30801 0.08341 0.68821 0.0
H1280 H 0.30784 0.10187 0.73201 0.0
H1281 H 0.30796 0.05249 0.80417 0.0
H1282 H 0.32777 0.05799 0.82906 0.0
H1283 H 0.32599 0.04689 0.79358 0.0
H1284 H 0.35967 0.07475 0.78261 0.0
H1285 H 0.36158 0.08587 0.81809 0.0
H1286 H 0.3647 0.09941 0.7859 0.0
H1287 H 0.31213 0.11892 0.78099 0.0
H1288 H 0.31911 0.13182 0.83234 0.0
H1289 H 0.34088 0.09348 0.85206 0.0
C1290 C 0.32881 0.06728 0.73755 0.0
C1291 C 0.32139 0.06919 0.71047 0.0
C1292 C 0.3137 0.08166 0.70878 0.0
C1293 C 0.31357 0.09224 0.73351 0.0
C1294 C 0.32092 0.08999 0.7599 0.0
C1295 C 0.32824 0.07769 0.76216 0.0
C1296 C 0.335 0.0777 0.7932 0.0
C1297 C 0.32349 0.05757 0.80573 0.0
C1298 C 0.35651 0.08486 0.79505 0.0
C1299 C 0.33058 0.09209 0.8079 0.0
C1300 C 0.32256 0.09912 0.78833 0.0
C1301 C 0.31816 0.11332 0.79663 0.0
C1302 C 0.32214 0.12056 0.82572 0.0
C1303 C 0.33014 0.11334 0.84609 0.0
C1304 C 0.33429 0.09887 0.83702 0.0
H1305 H 0.90645 0.26398 0.76773 0.0
H1306 H 0.93611 0.23367 0.74275 0.0
H1307 H 0.91218 0.20467 0.76677 0.0
H1308 H 0.89912 0.24903 0.83654 0.0
H1309 H 0.87603 0.24692 0.83948 0.0
H1310 H 0.89247 0.26325 0.81447 0.0
H1311 H 0.86709 0.24626 0.77205 0.0
H1312 H 0.85056 0.22973 0.7971 0.0
H1313 H 0.85642 0.22053 0.76513 0.0
H1314 H 0.8888 0.18139 0.80059 0.0
H1315 H 0.87008 0.16737 0.84405 0.0
H1316 H 0.8557 0.21274 0.84739 0.0
C1317 C 0.90749 0.251 0.7664 0.0
C1318 C 0.92299 0.25098 0.75316 0.0
C1319 C 0.92426 0.23394 0.75265 0.0
C1320 C 0.91064 0.21735 0.76605 0.0
C1321 C 0.89582 0.21801 0.77976 0.0
C1322 C 0.89416 0.23443 0.77998 0.0
C1323 C 0.87886 0.23262 0.79996 0.0
C1324 C 0.88712 0.24891 0.82402 0.0
C1325 C 0.86224 0.23226 0.78251 0.0
C1326 C 0.87291 0.21312 0.81226 0.0
C1327 C 0.88242 0.20462 0.79972 0.0
C1328 C 0.8809 0.18764 0.81004 0.0
C1329 C 0.87015 0.17969 0.83463 0.0
C1330 C 0.86136 0.18892 0.84876 0.0
C1331 C 0.86204 0.20526 0.83656 0.0
H1332 H 0.76165 0.67291 0.72234 0.0
H1333 H 0.69995 0.63926 0.72564 0.0
H1334 H 0.70325 0.62791 0.7737 0.0
H1335 H 0.77148 0.63833 0.75699 0.0
H1336 H 0.79258 0.65669 0.77682 0.0
H1337 H 0.78549 0.66181 0.74219 0.0
H1338 H 0.78518 0.69138 0.76609 0.0
H1339 H 0.7924 0.68644 0.8007 0.0
H1340 H 0.77108 0.68813 0.79742 0.0
H1341 H 0.71308 0.62123 0.82201 0.0
H1342 H 0.72893 0.62029 0.86814 0.0
H1343 H 0.78419 0.65769 0.83326 0.0
C1344 C 0.7488 0.66314 0.73309 0.0
C1345 C 0.73052 0.657 0.72014 0.0
C1346 C 0.71411 0.64418 0.73504 0.0
C1347 C 0.71583 0.63759 0.76232 0.0
C1348 C 0.73404 0.64386 0.77436 0.0
C1349 C 0.75025 0.65635 0.76027 0.0
C1350 C 0.76814 0.66126 0.77834 0.0
C1351 C 0.78013 0.65409 0.76265 0.0
C1352 C 0.77989 0.6831 0.7861 0.0
C1353 C 0.75944 0.64981 0.80501 0.0
C1354 C 0.73975 0.63981 0.80217 0.0
C1355 C 0.72849 0.62888 0.82441 0.0
C1356 C 0.73759 0.62844 0.85049 0.0
C1357 C 0.75772 0.63886 0.85405 0.0
C1358 C 0.76878 0.64938 0.83083 0.0
H1359 H 0.75604 0.67252 0.59449 0.0
H1360 H 0.71284 0.6118 0.59241 0.0
H1361 H 0.73315 0.60411 0.56215 0.0
H1362 H 0.76567 0.67464 0.52456 0.0
H1363 H 0.79095 0.6913 0.52877 0.0
H1364 H 0.77544 0.69125 0.55591 0.0
H1365 H 0.7952 0.68565 0.59582 0.0
H1366 H 0.81085 0.68568 0.56859 0.0
H1367 H 0.79911 0.66543 0.59167 0.0
H1368 H 0.75472 0.60407 0.52398 0.0
H1369 H 0.77478 0.61202 0.48101 0.0
H1370 H 0.80415 0.67249 0.50926 0.0
C1371 C 0.75114 0.65752 0.58869 0.0
C1372 C 0.73293 0.64277 0.59595 0.0
C1373 C 0.72683 0.62334 0.58725 0.0
C1374 C 0.73833 0.61882 0.5702 0.0
C1375 C 0.75598 0.63385 0.56248 0.0
C1376 C 0.76243 0.65281 0.5718 0.0
C1377 C 0.7805 0.66669 0.5573 0.0
C1378 C 0.77796 0.68183 0.54065 0.0
C1379 C 0.79742 0.67643 0.57969 0.0
C1380 C 0.78248 0.65277 0.53679 0.0
C1381 C 0.76855 0.63381 0.54058 0.0
C1382 C 0.76604 0.61877 0.5214 0.0
C1383 C 0.7775 0.62336 0.49712 0.0
C1384 C 0.79103 0.64281 0.49225 0.0
C1385 C 0.7941 0.65747 0.51301 0.0
H1386 H 0.33417 0.05951 0.55467 0.0
H1387 H 0.35362 0.10047 0.6287 0.0
H1388 H 0.35221 0.12479 0.59763 0.0
H1389 H 0.36273 0.09453 0.50354 0.0
H1390 H 0.34527 0.08302 0.47378 0.0
H1391 H 0.34649 0.0688 0.5026 0.0
H1392 H 0.31074 0.05587 0.51171 0.0
H1393 H 0.30949 0.0702 0.48304 0.0
H1394 H 0.30262 0.07277 0.51917 0.0
H1395 H 0.34731 0.14409 0.55754 0.0
H1396 H 0.34293 0.15759 0.51202 0.0
H1397 H 0.33169 0.10495 0.46424 0.0
C1398 C 0.33795 0.07356 0.56431 0.0
C1399 C 0.34375 0.07819 0.59395 0.0
C1400 C 0.34907 0.09679 0.60591 0.0
C1401 C 0.34824 0.11059 0.58849 0.0
C1402 C 0.3425 0.10561 0.55911 0.0
C1403 C 0.3378 0.08763 0.54708 0.0
C1404 C 0.33351 0.08623 0.51463 0.0
C1405 C 0.34786 0.08296 0.49765 0.0
C1406 C 0.31287 0.07032 0.50669 0.0
C1407 C 0.33627 0.10612 0.51025 0.0
C1408 C 0.34112 0.11705 0.53607 0.0
C1409 C 0.34372 0.13569 0.53713 0.0
C1410 C 0.34132 0.1433 0.51106 0.0
C1411 C 0.33672 0.13241 0.48416 0.0
C1412 C 0.33448 0.11365 0.48414 0.0
H1413 H 0.90317 0.25283 0.62822 0.0
H1414 H 0.96499 0.28137 0.62874 0.0
H1415 H 0.96286 0.26555 0.58088 0.0
H1416 H 0.89418 0.2075 0.59491 0.0
H1417 H 0.87354 0.20367 0.57347 0.0
H1418 H 0.87976 0.21726 0.60784 0.0
H1419 H 0.88065 0.24621 0.58228 0.0
H1420 H 0.8743 0.23266 0.54788 0.0
H1421 H 0.89554 0.25611 0.55166 0.0
H1422 H 0.95426 0.2473 0.53292 0.0
H1423 H 0.93962 0.22796 0.48707 0.0
H1424 H 0.88334 0.21051 0.51771 0.0
C1425 C 0.91628 0.25584 0.61824 0.0
C1426 C 0.93427 0.26841 0.63228 0.0
C1427 C 0.95105 0.27182 0.61849 0.0
C1428 C 0.94999 0.26287 0.59131 0.0
C1429 C 0.93206 0.25047 0.57824 0.0
C1430 C 0.91549 0.24693 0.59118 0.0
C1431 C 0.89803 0.23299 0.57235 0.0
C1432 C 0.88565 0.21424 0.58809 0.0
C1433 C 0.88645 0.24257 0.56299 0.0
C1434 C 0.9074 0.2294 0.54668 0.0
C1435 C 0.92705 0.23963 0.55062 0.0
C1436 C 0.9389 0.23917 0.52962 0.0
C1437 C 0.93048 0.22819 0.50369 0.0
C1438 C 0.9104 0.21778 0.499 0.0
C1439 C 0.89872 0.21817 0.52097 0.0
H1440 H 0.33451 0.26863 0.61308 0.0
H1441 H 0.39027 0.27937 0.64394 0.0
H1442 H 0.39203 0.26199 0.60038 0.0
H1443 H 0.31803 0.22028 0.5812 0.0
H1444 H 0.30576 0.22341 0.55038 0.0
H1445 H 0.30836 0.23619 0.58464 0.0
H1446 H 0.32438 0.26876 0.5589 0.0
H1447 H 0.32178 0.25607 0.52458 0.0
H1448 H 0.34498 0.27506 0.53778 0.0
H1449 H 0.38873 0.24481 0.55275 0.0
H1450 H 0.38065 0.22951 0.50323 0.0
H1451 H 0.32656 0.22849 0.5036 0.0
C1452 C 0.34705 0.26727 0.61074 0.0
C1453 C 0.36222 0.27542 0.6321 0.0
C1454 C 0.3784 0.2733 0.62804 0.0
C1455 C 0.37956 0.26338 0.60334 0.0
C1456 C 0.36442 0.25554 0.5828 0.0
C1457 C 0.34846 0.25733 0.58614 0.0
C1458 C 0.33444 0.24791 0.56026 0.0
C1459 C 0.31553 0.23094 0.56969 0.0
C1460 C 0.33121 0.26284 0.54445 0.0
C1461 C 0.34519 0.24086 0.5418 0.0
C1462 C 0.3624 0.24533 0.5553 0.0
C1463 C 0.37518 0.24101 0.54204 0.0
C1464 C 0.37038 0.23215 0.51397 0.0
C1465 C 0.35293 0.22767 0.49942 0.0
C1466 C 0.34008 0.23182 0.51393 0.0
H1467 H 0.77155 0.08752 0.59257 0.0
H1468 H 0.72914 0.10519 0.58376 0.0
H1469 H 0.75106 0.13244 0.55467 0.0
H1470 H 0.81527 0.13834 0.59265 0.0
H1471 H 0.82795 0.12919 0.57209 0.0
H1472 H 0.81097 0.11424 0.59801 0.0
H1473 H 0.79291 0.08739 0.55746 0.0
H1474 H 0.80974 0.10216 0.53164 0.0
H1475 H 0.78467 0.09315 0.52441 0.0
H1476 H 0.77379 0.15216 0.51739 0.0
H1477 H 0.7954 0.16267 0.47629 0.0
H1478 H 0.82389 0.13358 0.51151 0.0
C1479 C 0.76713 0.09754 0.5856 0.0
C1480 C 0.74866 0.09426 0.59057 0.0
C1481 C 0.74328 0.1075 0.5804 0.0
C1482 C 0.75569 0.12309 0.56396 0.0
C1483 C 0.77358 0.12548 0.55846 0.0
C1484 C 0.7794 0.11323 0.56946 0.0
C1485 C 0.79813 0.11716 0.55735 0.0
C1486 C 0.81402 0.12522 0.58147 0.0
C1487 C 0.79622 0.09889 0.54179 0.0
C1488 C 0.80119 0.13248 0.53608 0.0
C1489 C 0.78713 0.13746 0.53747 0.0
C1490 C 0.78527 0.14897 0.51679 0.0
C1491 C 0.79758 0.15489 0.49353 0.0
C1492 C 0.81154 0.1493 0.49127 0.0
C1493 C 0.81386 0.13871 0.51348 0.0
H1494 H 0.93147 0.67608 0.61755 0.0
H1495 H 0.88646 0.61931 0.64049 0.0
H1496 H 0.86915 0.61591 0.59412 0.0
H1497 H 0.90065 0.69061 0.58218 0.0
H1498 H 0.91669 0.70293 0.55366 0.0
H1499 H 0.92602 0.70122 0.58881 0.0
H1500 H 0.94361 0.68538 0.56432 0.0
H1501 H 0.93446 0.68718 0.52909 0.0
H1502 H 0.93029 0.66406 0.54067 0.0
H1503 H 0.85658 0.61809 0.54577 0.0
H1504 H 0.85017 0.62526 0.49643 0.0
H1505 H 0.90241 0.68102 0.50429 0.0
C1506 C 0.91804 0.6629 0.61272 0.0
C1507 C 0.91035 0.64801 0.63282 0.0
C1508 C 0.89267 0.63101 0.62564 0.0
C1509 C 0.88266 0.6289 0.59932 0.0
C1510 C 0.89044 0.6439 0.58026 0.0
C1511 C 0.90774 0.66054 0.58641 0.0
C1512 C 0.91281 0.67433 0.56176 0.0
C1513 C 0.91411 0.6934 0.57224 0.0
C1514 C 0.93139 0.67794 0.54816 0.0
C1515 C 0.8957 0.66272 0.54086 0.0
C1516 C 0.88297 0.64526 0.55212 0.0
C1517 C 0.86633 0.6318 0.53675 0.0
C1518 C 0.86272 0.63612 0.50881 0.0
C1519 C 0.87564 0.65383 0.49649 0.0
C1520 C 0.89224 0.66736 0.51303 0.0
H1521 H 0.93213 0.70101 0.77796 0.0
H1522 H 0.89529 0.65137 0.72094 0.0
H1523 H 0.86715 0.64778 0.74581 0.0
H1524 H 0.91104 0.68075 0.83919 0.0
H1525 H 0.91353 0.70212 0.85766 0.0
H1526 H 0.9298 0.7044 0.83026 0.0
H1527 H 0.92112 0.72686 0.80206 0.0
H1528 H 0.9046 0.72444 0.82947 0.0
H1529 H 0.89655 0.7186 0.79168 0.0
H1530 H 0.84439 0.64529 0.78196 0.0
H1531 H 0.8297 0.6414 0.8292 0.0
H1532 H 0.88064 0.69247 0.86455 0.0
C1533 C 0.91801 0.68994 0.77007 0.0
C1534 C 0.91568 0.67662 0.74741 0.0
C1535 C 0.89722 0.66175 0.73822 0.0
C1536 C 0.88118 0.65976 0.75201 0.0
C1537 C 0.88388 0.67271 0.77507 0.0
C1538 C 0.90187 0.68751 0.78415 0.0
C1539 C 0.90132 0.697 0.81283 0.0
C1540 C 0.9147 0.69598 0.83635 0.0
C1541 C 0.90618 0.71797 0.80875 0.0
C1542 C 0.88052 0.68433 0.81948 0.0
C1543 C 0.87056 0.67093 0.79686 0.0
C1544 C 0.85186 0.65603 0.79951 0.0
C1545 C 0.84354 0.654 0.8265 0.0
C1546 C 0.85403 0.66667 0.85061 0.0
C1547 C 0.87227 0.6827 0.8464 0.0
H1548 H 0.31957 0.25593 0.77519 0.0
H1549 H 0.37144 0.27368 0.72932 0.0
H1550 H 0.37822 0.25209 0.75836 0.0
H1551 H 0.3392 0.25626 0.84399 0.0
H1552 H 0.31812 0.2357 0.85658 0.0
H1553 H 0.31595 0.25039 0.82944 0.0
H1554 H 0.29695 0.22003 0.79481 0.0
H1555 H 0.29913 0.20523 0.82189 0.0
H1556 H 0.30718 0.20517 0.78568 0.0
H1557 H 0.38071 0.23075 0.79471 0.0
H1558 H 0.38019 0.21332 0.83857 0.0
H1559 H 0.32706 0.20985 0.86184 0.0
C1560 C 0.33214 0.25492 0.77095 0.0
C1561 C 0.34503 0.26642 0.75015 0.0
C1562 C 0.36155 0.26515 0.74547 0.0
C1563 C 0.36539 0.25276 0.7616 0.0
C1564 C 0.35258 0.24182 0.78238 0.0
C1565 C 0.33634 0.24286 0.78726 0.0
C1566 C 0.326 0.23118 0.81295 0.0
C1567 C 0.32476 0.24416 0.83716 0.0
C1568 C 0.30614 0.21441 0.80324 0.0
C1569 C 0.33922 0.22384 0.82219 0.0
C1570 C 0.35424 0.2298 0.8039 0.0
C1571 C 0.36887 0.22573 0.80896 0.0
C1572 C 0.3684 0.21573 0.83383 0.0
C1573 C 0.35351 0.21013 0.85344 0.0
C1574 C 0.33855 0.21388 0.8471 0.0
H1575 H 0.7703 0.09875 0.71398 0.0
H1576 H 0.71303 0.05107 0.72458 0.0
H1577 H 0.71621 0.05952 0.77734 0.0
H1578 H 0.79146 0.09483 0.77922 0.0
H1579 H 0.80612 0.12046 0.78726 0.0
H1580 H 0.79918 0.11141 0.75003 0.0
H1581 H 0.78449 0.1334 0.74299 0.0
H1582 H 0.79158 0.14268 0.78014 0.0
H1583 H 0.76699 0.13211 0.76766 0.0
H1584 H 0.72714 0.07025 0.82895 0.0
H1585 H 0.74302 0.08526 0.87611 0.0
H1586 H 0.79194 0.129 0.83214 0.0
C1587 C 0.75837 0.09025 0.7274 0.0
C1588 C 0.74144 0.07419 0.71532 0.0
C1589 C 0.72607 0.06346 0.73342 0.0
C1590 C 0.72778 0.06811 0.76339 0.0
C1591 C 0.74479 0.08378 0.7747 0.0
C1592 C 0.75967 0.09497 0.75725 0.0
C1593 C 0.77635 0.11108 0.77505 0.0
C1594 C 0.79433 0.10932 0.77275 0.0
C1595 C 0.78006 0.131 0.76592 0.0
C1596 C 0.7687 0.10682 0.80537 0.0
C1597 C 0.75054 0.09091 0.80457 0.0
C1598 C 0.74107 0.08315 0.82983 0.0
C1599 C 0.75024 0.09202 0.85665 0.0
C1600 C 0.7686 0.10893 0.85826 0.0
C1601 C 0.7779 0.11629 0.83201 0.0
H1602 H 0.07301 0.38193 0.03162 0.0
H1603 H 0.03073 0.32378 0.00076 0.0
H1604 H 0.0537 0.31271 0.01149 0.0
H1605 H 0.11457 0.38167 0.00489 0.0
H1606 H 0.12954 0.39499 0.0365 0.0
H1607 H 0.11016 0.3986 0.02504 0.0
H1608 H 0.09618 0.3902 0.07625 0.0
H1609 H 0.11569 0.38692 0.08796 0.0
H1610 H 0.09148 0.36771 0.09136 0.0
H1611 H 0.08127 0.30789 0.02659 0.0
H1612 H 0.10934 0.30882 0.05085 0.0
H1613 H 0.13341 0.37003 0.07192 0.0
C1614 C 0.06857 0.36687 0.02704 0.0
C1615 C 0.05007 0.35374 0.01523 0.0
C1616 C 0.0448 0.33411 0.00986 0.0
C1617 C 0.05781 0.32772 0.01565 0.0
C1618 C 0.07603 0.34111 0.02688 0.0
C1619 C 0.08131 0.36022 0.03288 0.0
C1620 C 0.1013 0.37145 0.04664 0.0
C1621 C 0.11468 0.38763 0.02709 0.0
C1622 C 0.10114 0.37954 0.07737 0.0
C1623 C 0.10638 0.35563 0.04783 0.0
C1624 C 0.09176 0.3383 0.0359 0.0
C1625 C 0.09287 0.32143 0.03577 0.0
C1626 C 0.10898 0.32213 0.0493 0.0
C1627 C 0.12363 0.33952 0.06304 0.0
C1628 C 0.12251 0.35658 0.06134 0.0
H1629 H 0.65908 0.70904 0.04263 0.0
H1630 H 0.60173 0.69468 0.01525 0.0
H1631 H 0.61193 0.72942 0.01574 0.0
H1632 H 0.6657 0.74293 0.09376 0.0
H1633 H 0.69069 0.75902 0.08864 0.0
H1634 H 0.68019 0.73374 0.07903 0.0
H1635 H 0.69194 0.74199 0.02651 0.0
H1636 H 0.70242 0.76742 0.03605 0.0
H1637 H 0.68554 0.75677 0.00541 0.0
H1638 H 0.62656 0.76486 0.02841 0.0
H1639 H 0.64366 0.7969 0.05474 0.0
H1640 H 0.69129 0.78821 0.0739 0.0
C1641 C 0.64885 0.71321 0.03558 0.0
C1642 C 0.62965 0.69912 0.02862 0.0
C1643 C 0.61655 0.7052 0.02049 0.0
C1644 C 0.62225 0.72493 0.02053 0.0
C1645 C 0.64114 0.73846 0.02861 0.0
C1646 C 0.65427 0.73282 0.03586 0.0
C1647 C 0.6728 0.74977 0.04813 0.0
C1648 C 0.6776 0.74614 0.07922 0.0
C1649 C 0.68914 0.75425 0.0278 0.0
C1650 C 0.66772 0.7656 0.04818 0.0
C1651 C 0.64959 0.75898 0.03611 0.0
C1652 C 0.64097 0.77038 0.03711 0.0
C1653 C 0.65079 0.7886 0.05191 0.0
C1654 C 0.66888 0.79505 0.06568 0.0
C1655 C 0.67771 0.78376 0.06268 0.0
H1656 H 0.32659 0.94572 0.0278 0.0
H1657 H 0.29856 0.93885 0.94288 0.0
H1658 H 0.26789 0.91451 0.9623 0.0
H1659 H 0.29948 0.89564 0.04724 0.0
H1660 H 0.29893 0.90193 0.08504 0.0
H1661 H 0.31867 0.91783 0.06375 0.0
H1662 H 0.31272 0.94605 0.07705 0.0
H1663 H 0.29291 0.93024 0.09823 0.0
H1664 H 0.28951 0.94321 0.06935 0.0
H1665 H 0.24 0.89151 0.99204 0.0
H1666 H 0.21744 0.87252 0.02962 0.0
H1667 H 0.26431 0.89533 0.09439 0.0
C1668 C 0.31408 0.93897 0.0131 0.0
C1669 C 0.31498 0.94413 0.98377 0.0
C1670 C 0.2982 0.93508 0.96543 0.0
C1671 C 0.28074 0.92123 0.97625 0.0
C1672 C 0.28035 0.91667 0.00543 0.0
C1673 C 0.29661 0.92529 0.02354 0.0
C1674 C 0.29239 0.91854 0.0543 0.0
C1675 C 0.30299 0.90785 0.06309 0.0
C1676 C 0.29716 0.93552 0.076 0.0
C1677 C 0.27116 0.90488 0.0508 0.0
C1678 C 0.26442 0.90382 0.02246 0.0
C1679 C 0.24514 0.89219 0.01426 0.0
C1680 C 0.23246 0.88144 0.03567 0.0
C1681 C 0.23914 0.88259 0.06488 0.0
C1682 C 0.25876 0.89437 0.07232 0.0
H1683 H 0.34659 0.02569 0.96703 0.0
H1684 H 0.38154 0.06018 0.04211 0.0
H1685 H 0.36807 0.08186 0.03762 0.0
H1686 H 0.35865 0.06324 0.9271 0.0
H1687 H 0.33637 0.054 0.90642 0.0
H1688 H 0.34268 0.03753 0.92188 0.0
H1689 H 0.31107 0.02146 0.94911 0.0
H1690 H 0.30472 0.0381 0.93363 0.0
H1691 H 0.30536 0.0361 0.97261 0.0
H1692 H 0.35477 0.10256 0.01994 0.0
H1693 H 0.34829 0.12284 0.98789 0.0
H1694 H 0.32789 0.07727 0.91946 0.0
C1695 C 0.35054 0.03717 0.98349 0.0
C1696 C 0.36456 0.04099 0.00546 0.0
C1697 C 0.3704 0.05681 0.0256 0.0
C1698 C 0.36275 0.06911 0.02324 0.0
C1699 C 0.34961 0.06557 0.00025 0.0
C1700 C 0.34371 0.05 0.98055 0.0
C1701 C 0.3335 0.05185 0.95389 0.0
C1702 C 0.34341 0.05167 0.92571 0.0
C1703 C 0.31241 0.03593 0.95223 0.0
C1704 C 0.33561 0.07144 0.96075 0.0
C1705 C 0.34397 0.07866 0.98815 0.0
C1706 C 0.34828 0.09703 -0.00164 0.0
C1707 C 0.34485 0.10864 0.97955 0.0
C1708 C 0.33819 0.10235 0.95012 0.0
C1709 C 0.33276 0.08303 0.94145 0.0
H1710 H 0.95588 0.29278 0.96747 0.0
H1711 H 0.92077 0.31497 0.00118 0.0
H1712 H 0.89336 0.28172 0.00155 0.0
H1713 H 0.92227 0.26085 0.91773 0.0
H1714 H 0.92834 0.2421 0.92053 0.0
H1715 H 0.94608 0.26681 0.92937 0.0
H1716 H 0.95191 0.25726 0.98057 0.0
H1717 H 0.93402 0.23244 0.97183 0.0
H1718 H 0.93215 0.24481 0.00386 0.0
H1719 H 0.86861 0.24699 0.99089 0.0
H1720 H 0.84855 0.21453 0.96664 0.0
H1721 H 0.89935 0.21502 0.93873 0.0
C1722 C 0.94261 0.29052 0.97601 0.0
C1723 C 0.94049 0.30637 0.98473 0.0
C1724 C 0.92271 0.30297 0.99463 0.0
C1725 C 0.9071 0.28412 0.99509 0.0
C1726 C 0.90944 0.26879 0.98547 0.0
C1727 C 0.92678 0.27179 0.97607 0.0
C1728 C 0.92485 0.25335 0.96265 0.0
C1729 C 0.93072 0.25594 0.93069 0.0
C1730 C 0.93642 0.24657 0.98082 0.0
C1731 C 0.90363 0.23976 0.96479 0.0
C1732 C 0.89503 0.24875 0.97871 0.0
C1733 C 0.87523 0.23964 0.9806 0.0
C1734 C 0.86393 0.22119 0.96695 0.0
C1735 C 0.8725 0.21227 0.95141 0.0
C1736 C 0.89257 0.22141 0.95122 0.0
H1737 H 0.69272 0.66744 0.0053 0.0
H1738 H 0.69021 0.63107 0.07557 0.0
H1739 H 0.71864 0.63104 0.05789 0.0
H1740 H 0.70459 0.64533 0.95148 0.0
H1741 H 0.72084 0.66699 0.93369 0.0
H1742 H 0.70199 0.66644 0.95416 0.0
H1743 H 0.72672 0.6964 0.98569 0.0
H1744 H 0.7457 0.69705 0.96523 0.0
H1745 H 0.74628 0.69587 0.00436 0.0
H1746 H 0.7435 0.63022 0.02792 0.0
H1747 H 0.76341 0.62956 0.98896 0.0
H1748 H 0.75272 0.66966 0.94109 0.0
C1749 C 0.69841 0.65982 0.01731 0.0
C1750 C 0.68922 0.64924 0.04177 0.0
C1751 C 0.69703 0.63936 0.05684 0.0
C1752 C 0.71323 0.63929 0.04702 0.0
C1753 C 0.72172 0.64954 0.02248 0.0
C1754 C 0.71478 0.65989 0.00809 0.0
C1755 C 0.72579 0.66861 0.98115 0.0
C1756 C 0.71251 0.6614 0.9535 0.0
C1757 C 0.73678 0.6908 0.98431 0.0
C1758 C 0.73927 0.66064 0.98178 0.0
C1759 C 0.73683 0.64982 0.00593 0.0
C1760 C 0.74598 0.63912 0.00935 0.0
C1761 C 0.75745 0.63897 0.98708 0.0
C1762 C 0.75978 0.64956 0.9617 0.0
C1763 C 0.75117 0.6612 0.95991 0.0
H1764 H 0.95956 0.67525 0.9857 0.0
H1765 H 0.93873 0.6135 0.98194 0.0
H1766 H 0.90663 0.60726 0.96696 0.0
H1767 H 0.91805 0.67376 0.01289 0.0
H1768 H 0.91927 0.69253 0.99055 0.0
H1769 H 0.94076 0.69241 0.00116 0.0
H1770 H 0.94894 0.69249 0.94693 0.0
H1771 H 0.92768 0.693 0.93623 0.0
H1772 H 0.93159 0.67422 0.92146 0.0
H1773 H 0.87645 0.60756 0.95484 0.0
H1774 H 0.85143 0.61455 0.93793 0.0
H1775 H 0.892 0.67605 0.94693 0.0
C1776 C 0.94827 0.66043 0.98146 0.0
C1777 C 0.95163 0.64486 0.98508 0.0
C1778 C 0.93653 0.62567 0.97915 0.0
C1779 C 0.91819 0.62196 0.9709 0.0
C1780 C 0.91524 0.6376 0.96824 0.0
C1781 C 0.92993 0.65647 0.97264 0.0
C1782 C 0.92309 0.67065 0.96688 0.0
C1783 C 0.92543 0.68307 0.99452 0.0
C1784 C 0.93344 0.68333 0.94136 0.0
C1785 C 0.90223 0.65679 0.95879 0.0
C1786 C 0.89795 0.63779 0.96017 0.0
C1787 C 0.87963 0.62238 0.95363 0.0
C1788 C 0.86546 0.62648 0.94438 0.0
C1789 C 0.86975 0.64583 0.94144 0.0
C1790 C 0.88831 0.66114 0.94927 0.0
H1791 H 0.35039 0.29518 0.98632 0.0
H1792 H 0.40624 0.31572 0.02761 0.0
H1793 H 0.40016 0.28227 0.02785 0.0
H1794 H 0.32538 0.24395 0.01836 0.0
H1795 H 0.31243 0.23371 0.98399 0.0
H1796 H 0.31807 0.25767 0.99636 0.0
H1797 H 0.33448 0.27111 0.94795 0.0
H1798 H 0.32902 0.24739 0.9356 0.0
H1799 H 0.35339 0.26692 0.93714 0.0
H1800 H 0.39236 0.24953 0.01153 0.0
H1801 H 0.38422 0.22134 0.97895 0.0
H1802 H 0.33283 0.22063 0.94836 0.0
C1803 C 0.36086 0.29245 0.99691 0.0
C1804 C 0.37867 0.30795 0.00731 0.0
C1805 C 0.39242 0.304 0.01981 0.0
C1806 C 0.38903 0.285 0.02017 0.0
C1807 C 0.37179 0.27009 0.008 0.0
C1808 C 0.35778 0.27356 0.99688 0.0
C1809 C 0.34226 0.2559 0.97989 0.0
C1810 C 0.32342 0.2473 0.9956 0.0
C1811 C 0.33967 0.26063 0.9483 0.0
C1812 C 0.35058 0.24264 0.98096 0.0
C1813 C 0.36725 0.25078 -0.00183 0.0
C1814 C 0.37901 0.24268 -0.0012 0.0
C1815 C 0.3742 0.22652 0.98024 0.0
C1816 C 0.35786 0.21874 0.96106 0.0
C1817 C 0.34536 0.22623 0.96289 0.0
H1818 H 0.66932 0.06744 0.99038 0.0
H1819 H 0.68643 0.03403 0.04332 0.0
H1820 H 0.7202 0.05747 0.03573 0.0
H1821 H 0.70205 0.07695 0.93741 0.0
H1822 H 0.70661 0.101 0.93085 0.0
H1823 H 0.68413 0.08344 0.94443 0.0
H1824 H 0.68941 0.10693 0.98836 0.0
H1825 H 0.7121 0.12449 0.97499 0.0
H1826 H 0.71075 0.11626 0.0115 0.0
H1827 H 0.75163 0.08201 0.01778 0.0
H1828 H 0.77759 0.10333 0.98673 0.0
H1829 H 0.74062 0.12159 0.94607 0.0
C1830 C 0.68019 0.06531 0.00091 0.0
C1831 C 0.67523 0.04897 0.01761 0.0
C1832 C 0.68987 0.04644 0.03046 0.0
C1833 C 0.70912 0.05979 0.0265 0.0
C1834 C 0.71355 0.07565 0.00969 0.0
C1835 C 0.6995 0.07842 0.99698 0.0
C1836 C 0.70793 0.09531 0.97711 0.0
C1837 C 0.6997 0.08878 0.9456 0.0
C1838 C 0.70486 0.11172 0.9887 0.0
C1839 C 0.72881 0.10107 0.97968 0.0
C1840 C 0.73182 0.08985 -0.00088 0.0
C1841 C 0.74955 0.09117 0.00295 0.0
C1842 C 0.76432 0.1035 0.98537 0.0
C1843 C 0.76121 0.11422 0.96399 0.0
C1844 C 0.74348 0.11367 0.96232 0.0
H1845 H 0.59749 0.91487 0.02669 0.0
H1846 H 0.64758 0.9621 0.99098 0.0
H1847 H 0.66287 0.94201 0.98983 0.0
H1848 H 0.62102 0.90506 0.07626 0.0
H1849 H 0.60551 0.87919 0.07552 0.0
H1850 H 0.59629 0.89433 0.06429 0.0
H1851 H 0.58497 0.87517 0.01441 0.0
H1852 H 0.59442 0.86003 0.02561 0.0
H1853 H 0.60183 0.87281 0.99236 0.0
H1854 H 0.67532 0.92039 0.00278 0.0
H1855 H 0.6851 0.90201 0.03411 0.0
H1856 H 0.62766 0.86918 0.06356 0.0
C1857 C 0.61131 0.92065 0.01731 0.0
C1858 C 0.62124 0.93992 0.0085 0.0
C1859 C 0.63964 0.94728 0.99754 0.0
C1860 C 0.64836 0.9359 0.99659 0.0
C1861 C 0.63852 0.91719 0.00674 0.0
C1862 C 0.62034 0.90963 0.01693 0.0
C1863 C 0.61437 0.89105 0.03235 0.0
C1864 C 0.60902 0.89253 0.06395 0.0
C1865 C 0.59792 0.87374 0.01514 0.0
C1866 C 0.63255 0.89014 0.03136 0.0
C1867 C 0.64602 0.90483 0.01531 0.0
C1868 C 0.66475 0.90853 0.01468 0.0
C1869 C 0.67018 0.8979 0.03238 0.0
C1870 C 0.65702 0.88407 0.0509 0.0
C1871 C 0.63776 0.87934 0.04894 0.0
H1872 H 0.07616 0.69288 0.02365 0.0
H1873 H 0.02759 0.70154 0.0152 0.0
H1874 H 0.04949 0.73691 0.0156 0.0
H1875 H 0.10047 0.72738 0.07463 0.0
H1876 H 0.12401 0.73515 0.06203 0.0
H1877 H 0.10506 0.71103 0.05317 0.0
H1878 H 0.1111 0.71666 -0.00184 0.0
H1879 H 0.13014 0.74099 0.00697 0.0
H1880 H 0.11078 0.73682 0.98204 0.0
H1881 H 0.0758 0.77066 0.02899 0.0
H1882 H 0.10344 0.79884 0.05413 0.0
H1883 H 0.13496 0.76831 0.05242 0.0
C1884 C 0.07013 0.70218 0.02083 0.0
C1885 C 0.05018 0.69447 0.01941 0.0
C1886 C 0.04283 0.70711 0.01603 0.0
C1887 C 0.0552 0.72723 0.01618 0.0
C1888 C 0.07484 0.73443 0.01907 0.0
C1889 C 0.08224 0.72219 0.02084 0.0
C1890 C 0.1035 0.73327 0.02801 0.0
C1891 C 0.10853 0.7263 0.05612 0.0
C1892 C 0.11453 0.73185 0.00225 0.0
C1893 C 0.10673 0.75355 0.03222 0.0
C1894 C 0.09016 0.75406 0.02623 0.0
C1895 C 0.08899 0.77057 0.03278 0.0
C1896 C 0.10476 0.78655 0.04701 0.0
C1897 C 0.12144 0.78586 0.05464 0.0
C1898 C 0.12268 0.76951 0.04579 0.0
H1899 H 0.32468 0.38461 0.02785 0.0
H1900 H 0.30754 0.32864 0.98605 0.0
H1901 H 0.27386 0.31807 0.99467 0.0
H1902 H 0.2931 0.36652 0.0844 0.0
H1903 H 0.28833 0.38626 0.08619 0.0
H1904 H 0.31064 0.39012 0.07319 0.0
H1905 H 0.30429 0.40296 0.02534 0.0
H1906 H 0.28175 0.3988 0.03812 0.0
H1907 H 0.28263 0.38802 0.00364 0.0
H1908 H 0.2424 0.31267 0.01103 0.0
H1909 H 0.21648 0.31137 0.0398 0.0
H1910 H 0.25396 0.37059 0.07147 0.0
C1911 C 0.31381 0.37024 0.02013 0.0
C1912 C 0.31871 0.35749 0.00612 0.0
C1913 C 0.30411 0.33865 0.99686 0.0
C1914 C 0.28492 0.33258 0.00138 0.0
C1915 C 0.28054 0.3455 0.01524 0.0
C1916 C 0.29459 0.36387 0.02478 0.0
C1917 C 0.28632 0.37416 0.04193 0.0
C1918 C 0.29511 0.37957 0.07327 0.0
C1919 C 0.2889 0.39204 0.02631 0.0
C1920 C 0.26553 0.35851 0.04133 0.0
C1921 C 0.26239 0.34225 0.02521 0.0
C1922 C 0.2446 0.32541 0.02335 0.0
C1923 C 0.2299 0.32484 0.03954 0.0
C1924 C 0.2332 0.34093 0.05762 0.0
C1925 C 0.25101 0.35819 0.05749 0.0
H1926 H 0.71883 0.66462 0.32294 0.0
H1927 H 0.72685 0.71357 0.37739 0.0
H1928 H 0.75614 0.71632 0.39995 0.0
H1929 H 0.73298 0.64338 0.37833 0.0
H1930 H 0.74431 0.6347 0.35373 0.0
H1931 H 0.72493 0.63774 0.34052 0.0
H1932 H 0.74648 0.65996 0.30102 0.0
H1933 H 0.76607 0.65732 0.31466 0.0
H1934 H 0.76894 0.68108 0.3119 0.0
H1935 H 0.78389 0.71325 0.41762 0.0
H1936 H 0.80504 0.70126 0.43497 0.0
H1937 H 0.77881 0.65386 0.37017 0.0
C1938 C 0.7268 0.67596 0.33954 0.0
C1939 C 0.72061 0.68895 0.3483 0.0
C1940 C 0.73127 0.70342 0.37039 0.0
C1941 C 0.74805 0.70523 0.38309 0.0
C1942 C 0.75393 0.6924 0.37361 0.0
C1943 C 0.74345 0.67782 0.35273 0.0
C1944 C 0.75199 0.66489 0.3483 0.0
C1945 C 0.73771 0.64394 0.35568 0.0
C1946 C 0.75877 0.66588 0.31712 0.0
C1947 C 0.76874 0.67428 0.37033 0.0
C1948 C 0.76982 0.69039 0.38423 0.0
C1949 C 0.78333 0.7008 0.40668 0.0
C1950 C 0.79539 0.69402 0.41622 0.0
C1951 C 0.79377 0.6769 0.40348 0.0
C1952 C 0.78076 0.66734 0.37955 0.0
H1953 H 0.26242 0.02482 0.37003 0.0
H1954 H 0.31242 0.02828 0.33209 0.0
H1955 H 0.32616 0.06356 0.32813 0.0
H1956 H 0.26225 0.06591 0.33113 0.0
H1957 H 0.25533 0.07347 0.36369 0.0
H1958 H 0.24734 0.04822 0.35634 0.0
H1959 H 0.26175 0.0467 0.40669 0.0
H1960 H 0.26949 0.07173 0.41417 0.0
H1961 H 0.28656 0.06354 0.41584 0.0
H1962 H 0.33686 0.09871 0.33675 0.0
H1963 H 0.34495 0.12963 0.36219 0.0
H1964 H 0.28833 0.10332 0.39549 0.0
C1965 C 0.27595 0.03282 0.35983 0.0
C1966 C 0.28623 0.02369 0.35104 0.0
C1967 C 0.30418 0.03489 0.33873 0.0
C1968 C 0.31203 0.05493 0.33621 0.0
C1969 C 0.30175 0.06357 0.34602 0.0
C1970 C 0.28406 0.05279 0.35763 0.0
C1971 C 0.27729 0.0656 0.37133 0.0
C1972 C 0.25949 0.06315 0.35461 0.0
C1973 C 0.27358 0.06166 0.40391 0.0
C1974 C 0.29437 0.08533 0.36715 0.0
C1975 C 0.30809 0.08394 0.35162 0.0
C1976 C 0.32604 0.10003 0.34824 0.0
C1977 C 0.33048 0.11762 0.36254 0.0
C1978 C 0.31713 0.11886 0.38042 0.0
C1979 C 0.29855 0.10282 0.38129 0.0
H1980 H 0.99835 0.2643 0.33927 0.0
H1981 H 0.98186 0.30714 0.32166 0.0
H1982 H 0.94899 0.28417 0.33458 0.0
H1983 H 0.95149 0.22038 0.31535 0.0
H1984 H 0.95332 0.20665 0.34451 0.0
H1985 H 0.97459 0.22496 0.32852 0.0
H1986 H 0.98796 0.2418 0.37959 0.0
H1987 H 0.9669 0.2235 0.39562 0.0
H1988 H 0.97388 0.24862 0.40135 0.0
H1989 H 0.91982 0.25916 0.35701 0.0
H1990 H 0.8972 0.23453 0.38934 0.0
H1991 H 0.93197 0.20751 0.39167 0.0
C1992 C 0.9877 0.26864 0.33735 0.0
C1993 C 0.99265 0.28747 0.32933 0.0
C1994 C 0.9784 0.29278 0.32771 0.0
C1995 C 0.95963 0.27976 0.33478 0.0
C1996 C 0.95528 0.26144 0.34321 0.0
C1997 C 0.9689 0.25585 0.34446 0.0
C1998 C 0.9612 0.23631 0.35769 0.0
C1999 C 0.96008 0.22118 0.33517 0.0
C2000 C 0.97319 0.23765 0.38519 0.0
C2001 C 0.94148 0.23226 0.3651 0.0
C2002 C 0.93817 0.24673 0.35595 0.0
C2003 C 0.92195 0.24742 0.36347 0.0
C2004 C 0.90914 0.23338 0.38167 0.0
C2005 C 0.91266 0.21892 0.39195 0.0
C2006 C 0.92866 0.218 0.38288 0.0
H2007 H 0.07221 0.42261 0.3487 0.0
H2008 H 0.01609 0.37208 0.35347 0.0
H2009 H 1.00151 0.39227 0.34583 0.0
H2010 H 0.05829 0.46098 0.37574 0.0
H2011 H 0.07395 0.47743 0.34981 0.0
H2012 H 0.08014 0.46137 0.36778 0.0
H2013 H 0.08355 0.44832 0.31743 0.0
H2014 H 0.07728 0.46404 0.29948 0.0
H2015 H 0.06368 0.43835 0.29111 0.0
H2016 H 0.99303 0.41414 0.32185 0.0
H2017 H 0.99177 0.43527 0.28474 0.0
H2018 H 0.05309 0.47187 0.29395 0.0
C2019 C 0.05689 0.41599 0.34976 0.0
C2020 C 0.04532 0.39576 0.35151 0.0
C2021 C 0.0253 0.38755 0.35219 0.0
C2022 C 0.01687 0.39898 0.34799 0.0
C2023 C 0.02863 0.41863 0.34351 0.0
C2024 C 0.04831 0.42718 0.34502 0.0
C2025 C 0.05769 0.44731 0.33335 0.0
C2026 C 0.06813 0.46268 0.35816 0.0
C2027 C 0.0713 0.44959 0.30889 0.0
C2028 C 0.04028 0.44781 0.32187 0.0
C2029 C 0.02362 0.43154 0.32913 0.0
C2030 C 0.00592 0.42724 0.31688 0.0
C2031 C 0.00532 0.43925 0.29567 0.0
C2032 C 0.02234 0.45523 0.28666 0.0
C2033 C 0.03984 0.46009 0.30112 0.0
H2034 H 0.63133 0.63595 0.30791 0.0
H2035 H 0.59796 0.66032 0.34098 0.0
H2036 H 0.56996 0.62753 0.34282 0.0
H2037 H 0.59722 0.60458 0.25924 0.0
H2038 H 0.60228 0.58513 0.26216 0.0
H2039 H 0.62074 0.60956 0.27084 0.0
H2040 H 0.62601 0.59972 0.32212 0.0
H2041 H 0.60741 0.57516 0.31353 0.0
H2042 H 0.60617 0.588 0.34549 0.0
H2043 H 0.54433 0.59328 0.33251 0.0
H2044 H 0.5232 0.5613 0.30763 0.0
H2045 H 0.57264 0.55908 0.27976 0.0
C2046 C 0.61836 0.63423 0.3168 0.0
C2047 C 0.61686 0.65056 0.32492 0.0
C2048 C 0.59942 0.64792 0.33508 0.0
C2049 C 0.58348 0.62934 0.33632 0.0
C2050 C 0.58514 0.6135 0.32714 0.0
C2051 C 0.60217 0.61577 0.31755 0.0
C2052 C 0.59942 0.59695 0.30422 0.0
C2053 C 0.60525 0.5992 0.27224 0.0
C2054 C 0.61041 0.58952 0.32244 0.0
C2055 C 0.57808 0.58404 0.30645 0.0
C2056 C 0.57015 0.59367 0.32051 0.0
C2057 C 0.55042 0.5854 0.32221 0.0
C2058 C 0.53849 0.5672 0.30822 0.0
C2059 C 0.54639 0.55765 0.29257 0.0
C2060 C 0.56638 0.56588 0.29256 0.0
H2061 H 0.36178 0.01075 0.32682 0.0
H2062 H 0.3336 0.95533 0.36731 0.0
H2063 H 0.36204 0.95214 0.36134 0.0
H2064 H 0.38231 0.99605 0.27224 0.0
H2065 H 0.40407 0.01901 0.27167 0.0
H2066 H 0.38249 0.01807 0.28258 0.0
H2067 H 0.39968 0.03641 0.33133 0.0
H2068 H 0.42125 0.03707 0.32068 0.0
H2069 H 0.41087 0.02673 0.35454 0.0
H2070 H 0.39247 0.95379 0.3486 0.0
H2071 H 0.42033 0.95757 0.32279 0.0
H2072 H 0.42893 0.01147 0.28926 0.0
C2073 C 0.36174 0.99808 0.33472 0.0
C2074 C 0.34553 0.98335 0.34768 0.0
C2075 C 0.34583 0.96678 0.35723 0.0
C2076 C 0.36201 0.96493 0.35425 0.0
C2077 C 0.37778 0.9797 0.34147 0.0
C2078 C 0.37769 0.99582 0.33142 0.0
C2079 C 0.39567 0.00847 0.31552 0.0
C2080 C 0.39084 0.01051 0.28362 0.0
C2081 C 0.40757 0.02835 0.33148 0.0
C2082 C 0.40559 0.99667 0.31756 0.0
C2083 C 0.39525 0.98039 0.3333 0.0
C2084 C 0.40084 0.96661 0.33654 0.0
C2085 C 0.41684 0.96899 0.32204 0.0
C2086 C 0.4269 0.98487 0.30416 0.0
C2087 C 0.42163 0.99928 0.30302 0.0
H2088 H 0.59168 0.95468 0.35245 0.0
H2089 H 0.63996 0.01127 0.33766 0.0
H2090 H 0.61786 0.02283 0.32356 0.0
H2091 H 0.56379 0.9531 0.29142 0.0
H2092 H 0.54141 0.94044 0.30899 0.0
H2093 H 0.56109 0.9375 0.32079 0.0
H2094 H 0.55843 0.94808 0.37352 0.0
H2095 H 0.53892 0.9514 0.36166 0.0
H2096 H 0.55974 0.97105 0.38026 0.0
H2097 H 0.59065 0.02758 0.30795 0.0
H2098 H 0.56076 0.024 0.2863 0.0
H2099 H 0.53018 0.96433 0.31076 0.0
C2100 C 0.59762 0.96958 0.34658 0.0
C2101 C 0.61756 0.98211 0.34634 0.0
C2102 C 0.62474 0.0014 0.33802 0.0
C2103 C 0.61229 0.00815 0.33024 0.0
C2104 C 0.5927 0.99544 0.33088 0.0
C2105 C 0.58541 0.9765 0.33855 0.0
C2106 C 0.56385 0.96527 0.33486 0.0
C2107 C 0.55715 0.94807 0.31269 0.0
C2108 C 0.5547 0.95856 0.36433 0.0
C2109 C 0.56015 0.9807 0.32317 0.0
C2110 C 0.57697 0.99812 0.32161 0.0
C2111 C 0.57738 0.01412 0.30948 0.0
C2112 C 0.56033 0.01201 0.29742 0.0
C2113 C 0.54315 0.99401 0.29739 0.0
C2114 C 0.54298 0.97841 0.3114 0.0
H2115 H 0.07873 0.65257 0.29962 0.0
H2116 H 0.02443 0.63888 0.33488 0.0
H2117 H 0.01513 0.6044 0.33443 0.0
H2118 H 0.06118 0.61551 0.24974 0.0
H2119 H 0.08075 0.61086 0.25253 0.0
H2120 H 0.08465 0.63452 0.26197 0.0
H2121 H 0.09815 0.63309 0.31315 0.0
H2122 H 0.09401 0.6092 0.30382 0.0
H2123 H 0.08392 0.61329 0.33589 0.0
H2124 H 0.00903 0.57146 0.3203 0.0
H2125 H 0.00653 0.54338 0.29227 0.0
H2126 H 0.06501 0.57804 0.26819 0.0
C2127 C 0.06511 0.64244 0.30813 0.0
C2128 C 0.05234 0.6485 0.31733 0.0
C2129 C 0.03452 0.63466 0.3278 0.0
C2130 C 0.02915 0.61502 0.32782 0.0
C2131 C 0.04186 0.60945 0.31771 0.0
C2132 C 0.05955 0.62282 0.30827 0.0
C2133 C 0.06951 0.61301 0.29464 0.0
C2134 C 0.07427 0.61881 0.26286 0.0
C2135 C 0.08746 0.61741 0.31298 0.0
C2136 C 0.05419 0.59202 0.29623 0.0
C2137 C 0.03849 0.59021 0.31023 0.0
C2138 C 0.02146 0.57257 0.3103 0.0
C2139 C 0.02017 0.55664 0.29453 0.0
C2140 C 0.03582 0.55851 0.27913 0.0
C2141 C 0.05324 0.57613 0.2811 0.0
H2142 H 0.35215 0.37928 0.33116 0.0
H2143 H 0.36017 0.42099 0.40052 0.0
H2144 H 0.3905 0.44492 0.38 0.0
H2145 H 0.40181 0.39268 0.32768 0.0
H2146 H 0.40045 0.38903 0.28859 0.0
H2147 H 0.37964 0.37514 0.30926 0.0
H2148 H 0.36081 0.38689 0.27754 0.0
H2149 H 0.38157 0.40085 0.25685 0.0
H2150 H 0.37007 0.41248 0.27442 0.0
H2151 H 0.41977 0.46473 0.35066 0.0
H2152 H 0.44519 0.47844 0.31496 0.0
H2153 H 0.41799 0.42322 0.26626 0.0
C2154 C 0.36029 0.39341 0.34214 0.0
C2155 C 0.35376 0.39825 0.36744 0.0
C2156 C 0.36488 0.41693 0.38111 0.0
C2157 C 0.38214 0.43063 0.36963 0.0
C2158 C 0.38813 0.42541 0.34456 0.0
C2159 C 0.37755 0.40722 0.33107 0.0
C2160 C 0.38696 0.40524 0.30422 0.0
C2161 C 0.39255 0.3896 0.30766 0.0
C2162 C 0.37408 0.40113 0.27664 0.0
C2163 C 0.40436 0.42523 0.30451 0.0
C2164 C 0.40488 0.43669 0.32794 0.0
C2165 C 0.41954 0.45585 0.3323 0.0
C2166 C 0.43395 0.46349 0.31201 0.0
C2167 C 0.43351 0.45199 0.28767 0.0
C2168 C 0.41859 0.43255 0.28429 0.0
H2169 H 0.32194 0.30774 0.38191 0.0
H2170 H 0.26517 0.26494 0.349 0.0
H2171 H 0.27449 0.23987 0.34923 0.0
H2172 H 0.34883 0.28606 0.34581 0.0
H2173 H 0.36453 0.29203 0.37769 0.0
H2174 H 0.35487 0.30731 0.3684 0.0
H2175 H 0.34128 0.30354 0.41983 0.0
H2176 H 0.3508 0.28827 0.4292 0.0
H2177 H 0.32571 0.27963 0.43224 0.0
H2178 H 0.28828 0.21857 0.36057 0.0
H2179 H 0.3047 0.20309 0.38454 0.0
H2180 H 0.35192 0.2596 0.41128 0.0
C2181 C 0.31171 0.29326 0.37361 0.0
C2182 C 0.29291 0.28834 0.36506 0.0
C2183 C 0.2797 0.26906 0.35542 0.0
C2184 C 0.2849 0.25473 0.35534 0.0
C2185 C 0.30337 0.2599 0.36497 0.0
C2186 C 0.31659 0.27876 0.37385 0.0
C2187 C 0.33449 0.2801 0.38727 0.0
C2188 C 0.3517 0.29209 0.36867 0.0
C2189 C 0.33827 0.28836 0.419 0.0
C2190 C 0.32894 0.25898 0.38584 0.0
C2191 C 0.31115 0.24756 0.37221 0.0
C2192 C 0.30238 0.2274 0.37071 0.0
C2193 C 0.31179 0.21871 0.38426 0.0
C2194 C 0.32955 0.23021 0.39946 0.0
C2195 C 0.33843 0.25055 0.39941 0.0
H2196 H 0.75153 0.02689 0.36814 0.0
H2197 H 0.70642 0.03939 0.34692 0.0
H2198 H 0.73011 0.07426 0.34823 0.0
H2199 H 0.77435 0.06267 0.41997 0.0
H2200 H 0.79824 0.06848 0.41192 0.0
H2201 H 0.77862 0.04467 0.40298 0.0
H2202 H 0.78828 0.048 0.34913 0.0
H2203 H 0.80797 0.07197 0.35798 0.0
H2204 H 0.79067 0.06823 0.32935 0.0
H2205 H 0.75737 0.10757 0.36079 0.0
H2206 H 0.7854 0.13601 0.38476 0.0
H2207 H 0.81276 0.10188 0.39729 0.0
C2208 C 0.74666 0.03687 0.3628 0.0
C2209 C 0.72707 0.03032 0.3573 0.0
C2210 C 0.72133 0.04399 0.35105 0.0
C2211 C 0.73473 0.06385 0.35161 0.0
C2212 C 0.75384 0.06985 0.35812 0.0
C2213 C 0.75981 0.0567 0.36338 0.0
C2214 C 0.78062 0.06681 0.3736 0.0
C2215 C 0.78308 0.06027 0.40391 0.0
C2216 C 0.79259 0.06356 0.35117 0.0
C2217 C 0.78518 0.08764 0.37482 0.0
C2218 C 0.76969 0.08917 0.36518 0.0
C2219 C 0.76976 0.10664 0.36761 0.0
C2220 C 0.78573 0.12273 0.3812 0.0
C2221 C 0.80137 0.12121 0.39229 0.0
C2222 C 0.80132 0.10363 0.38801 0.0
H2223 H 0.99504 0.71716 0.3844 0.0
H2224 H 0.98164 0.66652 0.32951 0.0
H2225 H 0.94737 0.65363 0.33632 0.0
H2226 H 0.95939 0.69116 0.43617 0.0
H2227 H 0.95409 0.7103 0.44246 0.0
H2228 H 0.97748 0.71597 0.43184 0.0
H2229 H 0.97437 0.73423 0.38809 0.0
H2230 H 0.95079 0.72828 0.39832 0.0
H2231 H 0.95443 0.72177 0.36216 0.0
H2232 H 0.91457 0.64627 0.34856 0.0
H2233 H 0.88586 0.64236 0.37218 0.0
H2234 H 0.92044 0.69689 0.42084 0.0
C2235 C 0.98488 0.70336 0.37386 0.0
C2236 C 0.991 0.69289 0.35634 0.0
C2237 C 0.97729 0.67477 0.34315 0.0
C2238 C 0.95777 0.6674 0.34663 0.0
C2239 C 0.95218 0.67822 0.36362 0.0
C2240 C 0.96532 0.69561 0.37753 0.0
C2241 C 0.95555 0.70363 0.39631 0.0
C2242 C 0.96201 0.70535 0.4286 0.0
C2243 C 0.95899 0.72314 0.38556 0.0
C2244 C 0.93491 0.68797 0.39091 0.0
C2245 C 0.93325 0.67364 0.37152 0.0
C2246 C 0.91566 0.65743 0.36369 0.0
C2247 C 0.89941 0.65541 0.37696 0.0
C2248 C 0.90096 0.66941 0.39806 0.0
C2249 C 0.91888 0.6861 0.40451 0.0
H2250 H 0.3845 1.00053 0.66861 0.0
H2251 H 0.39892 0.0582 0.69975 0.0
H2252 H 0.43034 0.06412 0.71827 0.0
H2253 H 0.40591 0.99086 0.7303 0.0
H2254 H 0.41386 0.97709 0.70924 0.0
H2255 H 0.39309 0.97802 0.69693 0.0
H2256 H 0.40855 0.99032 0.64749 0.0
H2257 H 0.42957 0.98983 0.65999 0.0
H2258 H 0.43164 0.01187 0.64704 0.0
H2259 H 0.45996 0.06377 0.73384 0.0
H2260 H 0.48355 0.05532 0.75274 0.0
H2261 H 0.44975 0.99756 0.71319 0.0
C2262 C 0.39429 0.01441 0.6793 0.0
C2263 C 0.38928 0.02894 0.68261 0.0
C2264 C 0.40239 0.04682 0.69705 0.0
C2265 C 0.42036 0.0504 0.70737 0.0
C2266 C 0.42499 0.03591 0.70329 0.0
C2267 C 0.41221 0.01813 0.69011 0.0
C2268 C 0.42017 0.00452 0.69053 0.0
C2269 C 0.40751 0.98657 0.70779 0.0
C2270 C 0.42263 0.9988 0.65941 0.0
C2271 C 0.43934 0.01735 0.70632 0.0
C2272 C 0.44196 0.03552 0.71294 0.0
C2273 C 0.45812 0.04964 0.72864 0.0
C2274 C 0.47151 0.04477 0.7391 0.0
C2275 C 0.46857 0.02589 0.7341 0.0
C2276 C 0.45261 0.01225 0.71662 0.0
H2277 H 0.98466 0.36364 0.71015 0.0
H2278 H 0.92492 0.3436 0.68972 0.0
H2279 H 0.93193 0.37741 0.69015 0.0
H2280 H 0.99107 0.39786 0.76119 0.0
H2281 H 0.01511 0.41535 0.75267 0.0
H2282 H 0.00615 0.39012 0.7444 0.0
H2283 H 0.0144 0.39743 0.6903 0.0
H2284 H 0.02331 0.42278 0.69849 0.0
H2285 H 0.005 0.41012 0.67016 0.0
H2286 H 0.94422 0.41271 0.7019 0.0
H2287 H 0.96056 0.44567 0.72546 0.0
H2288 H 0.01211 0.44271 0.73738 0.0
C2289 C 0.97314 0.36634 0.70474 0.0
C2290 C 0.95426 0.3509 0.69973 0.0
C2291 C 0.93954 0.35514 0.6935 0.0
C2292 C 0.9434 0.37434 0.69354 0.0
C2293 C 0.96208 0.38921 0.69958 0.0
C2294 C 0.97674 0.3854 0.70486 0.0
C2295 C 0.99503 0.4036 0.71461 0.0
C2296 C 0.00224 0.4016 0.74501 0.0
C2297 C 0.01034 0.40878 0.69204 0.0
C2298 C 0.98817 0.41807 0.71545 0.0
C2299 C 0.96922 0.40965 0.70609 0.0
C2300 C 0.9592 0.41963 0.7084 0.0
C2301 C 0.96857 0.43837 0.7216 0.0
C2302 C 0.98767 0.44678 0.73233 0.0
C2303 C 0.99771 0.43677 0.72825 0.0
H2304 H 0.62951 0.59014 0.64592 0.0
H2305 H 0.64091 0.648 0.66925 0.0
H2306 H 0.60983 0.63427 0.69218 0.0
H2307 H 0.57618 0.56657 0.63485 0.0
H2308 H 0.5726 0.54487 0.65141 0.0
H2309 H 0.59371 0.55912 0.63144 0.0
H2310 H 0.61497 0.5619 0.67664 0.0
H2311 H 0.59399 0.54752 0.69644 0.0
H2312 H 0.61179 0.57112 0.71102 0.0
H2313 H 0.57996 0.6145 0.7183 0.0
H2314 H 0.55566 0.59059 0.74942 0.0
H2315 H 0.56453 0.54582 0.71054 0.0
C2316 C 0.62519 0.59991 0.65509 0.0
C2317 C 0.6375 0.6201 0.65562 0.0
C2318 C 0.63164 0.63245 0.66856 0.0
C2319 C 0.61394 0.62479 0.68138 0.0
C2320 C 0.60226 0.60476 0.68104 0.0
C2321 C 0.60769 0.59248 0.6683 0.0
C2322 C 0.59397 0.57162 0.67457 0.0
C2323 C 0.58349 0.55985 0.64639 0.0
C2324 C 0.6043 0.56253 0.69063 0.0
C2325 C 0.58054 0.57417 0.69405 0.0
C2326 C 0.5852 0.59331 0.69682 0.0
C2327 C 0.57597 0.59942 0.71592 0.0
C2328 C 0.56222 0.58576 0.73357 0.0
C2329 C 0.55811 0.56631 0.73233 0.0
C2330 C 0.56688 0.5604 0.71143 0.0
H2331 H 0.74408 0.74275 0.63941 0.0
H2332 H 0.68803 0.70547 0.67199 0.0
H2333 H 0.68103 0.73206 0.6698 0.0
H2334 H 0.75112 0.79059 0.67305 0.0
H2335 H 0.76256 0.803 0.64091 0.0
H2336 H 0.76528 0.78313 0.65278 0.0
H2337 H 0.75287 0.76588 0.60178 0.0
H2338 H 0.7501 0.78555 0.58987 0.0
H2339 H 0.72999 0.76128 0.58736 0.0
H2340 H 0.677 0.75889 0.65269 0.0
H2341 H 0.67668 0.78394 0.62253 0.0
H2342 H 0.73534 0.80457 0.60207 0.0
C2343 C 0.73067 0.74046 0.64734 0.0
C2344 C 0.71665 0.72206 0.65598 0.0
C2345 C 0.69903 0.71945 0.66535 0.0
C2346 C 0.69496 0.73454 0.66436 0.0
C2347 C 0.70872 0.75222 0.65425 0.0
C2348 C 0.72635 0.75535 0.64626 0.0
C2349 C 0.73744 0.77447 0.6318 0.0
C2350 C 0.75515 0.78864 0.65078 0.0
C2351 C 0.74289 0.7716 0.60089 0.0
C2352 C 0.72278 0.78092 0.63097 0.0
C2353 C 0.70647 0.76814 0.64472 0.0
C2354 C 0.68992 0.76942 0.64288 0.0
C2355 C 0.68983 0.78367 0.62579 0.0
C2356 C 0.7062 0.79643 0.61099 0.0
C2357 C 0.72301 0.79546 0.6144 0.0
H2358 H 0.30086 0.9689 0.63551 0.0
H2359 H 0.26959 0.98939 0.68589 0.0
H2360 H 0.24367 0.9557 0.69072 0.0
H2361 H 0.26303 0.93719 0.59314 0.0
H2362 H 0.26946 0.91869 0.58932 0.0
H2363 H 0.28766 0.94336 0.59697 0.0
H2364 H 0.29925 0.93327 0.64289 0.0
H2365 H 0.28095 0.90844 0.63532 0.0
H2366 H 0.28258 0.92009 0.67028 0.0
H2367 H 0.21881 0.92096 0.6823 0.0
H2368 H 0.19654 0.88911 0.65796 0.0
H2369 H 0.24312 0.89121 0.61115 0.0
C2370 C 0.28896 0.96612 0.64877 0.0
C2371 C 0.28737 0.98156 0.66108 0.0
C2372 C 0.27117 0.97762 0.6769 0.0
C2373 C 0.25643 0.95854 0.67981 0.0
C2374 C 0.25802 0.94355 0.6665 0.0
C2375 C 0.27391 0.94714 0.65124 0.0
C2376 C 0.27069 0.92907 0.63454 0.0
C2377 C 0.27282 0.93228 0.60156 0.0
C2378 C 0.28417 0.92232 0.64648 0.0
C2379 C 0.25022 0.91509 0.6415 0.0
C2380 C 0.24333 0.92349 0.66072 0.0
C2381 C 0.22418 0.91405 0.66784 0.0
C2382 C 0.21162 0.89593 0.65408 0.0
C2383 C 0.21826 0.88769 0.63317 0.0
C2384 C 0.23789 0.89707 0.62769 0.0
H2385 H 0.0214 0.282 0.70369 0.0
H2386 H 0.02718 0.33831 0.69127 0.0
H2387 H 0.05907 0.34976 0.67195 0.0
H2388 H 0.07266 0.29922 0.72238 0.0
H2389 H 0.07179 0.27905 0.7024 0.0
H2390 H 0.05083 0.27622 0.71956 0.0
H2391 H 0.03162 0.26429 0.67003 0.0
H2392 H 0.0524 0.26688 0.65291 0.0
H2393 H 0.04047 0.27911 0.63891 0.0
H2394 H 0.0882 0.35375 0.6483 0.0
H2395 H 0.11096 0.34916 0.61913 0.0
H2396 H 0.08644 0.29044 0.64709 0.0
C2397 C 0.02954 0.29689 0.69754 0.0
C2398 C 0.02183 0.3093 0.69916 0.0
C2399 C 0.0328 0.32855 0.69031 0.0
C2400 C 0.051 0.33523 0.67951 0.0
C2401 C 0.05808 0.32252 0.67786 0.0
C2402 C 0.04766 0.30374 0.68661 0.0
C2403 C 0.0575 0.29234 0.67962 0.0
C2404 C 0.06356 0.28636 0.70767 0.0
C2405 C 0.04475 0.27462 0.65915 0.0
C2406 C 0.07469 0.30738 0.66442 0.0
C2407 C 0.07498 0.32484 0.66419 0.0
C2408 C 0.08837 0.34031 0.6489 0.0
C2409 C 0.10128 0.33762 0.63248 0.0
C2410 C 0.10064 0.31959 0.6314 0.0
C2411 C 0.08764 0.30456 0.64843 0.0
H2412 H 0.29639 0.33953 0.66991 0.0
H2413 H 0.27802 0.27843 0.66058 0.0
H2414 H 0.2453 0.27117 0.64747 0.0
H2415 H 0.25354 0.33475 0.69965 0.0
H2416 H 0.25414 0.35404 0.67937 0.0
H2417 H 0.27603 0.35452 0.68929 0.0
H2418 H 0.28484 0.35724 0.63506 0.0
H2419 H 0.26316 0.35714 0.6251 0.0
H2420 H 0.26812 0.33959 0.60827 0.0
H2421 H 0.21445 0.27048 0.63588 0.0
H2422 H 0.18905 0.2769 0.61885 0.0
H2423 H 0.22766 0.33847 0.63387 0.0
C2424 C 0.28548 0.32463 0.66508 0.0
C2425 C 0.28974 0.30954 0.66639 0.0
C2426 C 0.27512 0.29024 0.6596 0.0
C2427 C 0.25644 0.28595 0.6524 0.0
C2428 C 0.25263 0.30112 0.65181 0.0
C2429 C 0.26681 0.32011 0.6574 0.0
C2430 C 0.25922 0.33384 0.65336 0.0
C2431 C 0.26083 0.34494 0.68214 0.0
C2432 C 0.26944 0.34777 0.62899 0.0
C2433 C 0.23858 0.31961 0.64449 0.0
C2434 C 0.23499 0.30079 0.64425 0.0
C2435 C 0.21707 0.28516 0.63608 0.0
C2436 C 0.20266 0.28892 0.62676 0.0
C2437 C 0.20634 0.30816 0.62533 0.0
C2438 C 0.22441 0.32362 0.63506 0.0
H2439 H 0.69683 0.9811 0.63467 0.0
H2440 H 0.75722 0.00905 0.65876 0.0
H2441 H 0.75515 0.97729 0.65912 0.0
H2442 H 0.68214 0.93467 0.67533 0.0
H2443 H 0.66497 0.92029 0.64638 0.0
H2444 H 0.66998 0.94459 0.65491 0.0
H2445 H 0.6781 0.9532 0.60117 0.0
H2446 H 0.67318 0.92907 0.59255 0.0
H2447 H 0.69605 0.94938 0.58495 0.0
H2448 H 0.74861 0.94438 0.64593 0.0
H2449 H 0.73818 0.91326 0.62014 0.0
H2450 H 0.68113 0.90486 0.60837 0.0
C2451 C 0.70944 0.98048 0.64114 0.0
C2452 C 0.72717 0.9976 0.64671 0.0
C2453 C 0.74346 0.99617 0.65438 0.0
C2454 C 0.74241 0.97815 0.65486 0.0
C2455 C 0.72492 0.9616 0.64805 0.0
C2456 C 0.70863 0.96254 0.64172 0.0
C2457 C 0.69225 0.94291 0.63129 0.0
C2458 C 0.6764 0.93516 0.6533 0.0
C2459 C 0.68446 0.9437 0.60069 0.0
C2460 C 0.70226 0.93117 0.63072 0.0
C2461 C 0.72098 0.94211 0.64109 0.0
C2462 C 0.73381 0.93541 0.63867 0.0
C2463 C 0.72765 0.91751 0.62406 0.0
C2464 C 0.70875 0.90639 0.612 0.0
C2465 C 0.6957 0.91295 0.61705 0.0
H2466 H 0.0142 0.70572 0.65401 0.0
H2467 H 0.01351 0.74999 0.7099 0.0
H2468 H 0.04467 0.77427 0.69227 0.0
H2469 H 0.06412 0.72272 0.66464 0.0
H2470 H 0.06701 0.71695 0.6276 0.0
H2471 H 0.04437 0.70315 0.64398 0.0
H2472 H 0.02778 0.71088 0.60165 0.0
H2473 H 0.05037 0.72464 0.5851 0.0
H2474 H 0.03628 0.73572 0.59329 0.0
H2475 H 0.07628 0.79385 0.66857 0.0
H2476 H 0.10533 0.80696 0.6399 0.0
H2477 H 0.08565 0.74952 0.60148 0.0
C2478 C 0.02052 0.72054 0.66237 0.0
C2479 C 0.01136 0.72594 0.68328 0.0
C2480 C 0.02023 0.74548 0.69387 0.0
C2481 C 0.03795 0.7594 0.68401 0.0
C2482 C 0.0467 0.75356 0.66363 0.0
C2483 C 0.03827 0.7346 0.65293 0.0
C2484 C 0.05077 0.73201 0.6315 0.0
C2485 C 0.05693 0.71787 0.64261 0.0
C2486 C 0.0407 0.72543 0.60109 0.0
C2487 C 0.06748 0.75247 0.63175 0.0
C2488 C 0.06491 0.76473 0.65037 0.0
C2489 C 0.07846 0.78436 0.65393 0.0
C2490 C 0.09496 0.79167 0.63772 0.0
C2491 C 0.09773 0.77935 0.61822 0.0
C2492 C 0.08384 0.75945 0.6157 0.0
H2493 H 0.98773 0.63662 0.7167 0.0
H2494 H 0.93152 0.59269 0.68362 0.0
H2495 H 0.94177 0.56833 0.68375 0.0
H2496 H 0.01591 0.61589 0.68104 0.0
H2497 H 0.03148 0.62217 0.71314 0.0
H2498 H 0.02141 0.63703 0.7035 0.0
H2499 H 0.00744 0.63298 0.7547 0.0
H2500 H 0.01743 0.61818 0.7644 0.0
H2501 H 0.99221 0.60899 0.76709 0.0
H2502 H 0.95606 0.54777 0.69547 0.0
H2503 H 0.9725 0.5328 0.72075 0.0
H2504 H 0.01905 0.58974 0.74739 0.0
C2505 C 0.97789 0.62205 0.7083 0.0
C2506 C 0.95896 0.61656 0.6997 0.0
C2507 C 0.94616 0.59719 0.69003 0.0
C2508 C 0.95189 0.58328 0.68987 0.0
C2509 C 0.97046 0.58895 0.69954 0.0
C2510 C 0.9833 0.60791 0.70854 0.0
C2511 C 1.00131 0.60966 0.72228 0.0
C2512 C 0.01855 0.62191 0.70389 0.0
C2513 C 0.00478 0.61792 0.75398 0.0
C2514 C 0.9962 0.58865 0.72097 0.0
C2515 C 0.97858 0.57696 0.70703 0.0
C2516 C 0.97007 0.55681 0.70582 0.0
C2517 C 0.97949 0.5484 0.72011 0.0
C2518 C 0.99703 0.56016 0.73573 0.0
C2519 C 0.00575 0.58049 0.73518 0.0
H2520 H 0.37496 0.37271 0.70587 0.0
H2521 H 0.40894 0.35663 0.65373 0.0
H2522 H 0.434 0.39084 0.65257 0.0
H2523 H 0.3946 0.4248 0.67637 0.0
H2524 H 0.39421 0.43389 0.71254 0.0
H2525 H 0.37622 0.40972 0.70041 0.0
H2526 H 0.3848 0.39625 0.74542 0.0
H2527 H 0.40286 0.42017 0.75745 0.0
H2528 H 0.40906 0.40163 0.75168 0.0
H2529 H 0.45842 0.42336 0.6694 0.0
H2530 H 0.47972 0.45114 0.70182 0.0
H2531 H 0.43063 0.4486 0.74189 0.0
C2532 C 0.38715 0.37668 0.69266 0.0
C2533 C 0.38992 0.36225 0.67926 0.0
C2534 C 0.40647 0.36761 0.66354 0.0
C2535 C 0.42076 0.38703 0.66276 0.0
C2536 C 0.41829 0.40094 0.67785 0.0
C2537 C 0.40172 0.39608 0.69214 0.0
C2538 C 0.40414 0.41298 0.71132 0.0
C2539 C 0.39154 0.42081 0.69944 0.0
C2540 C 0.39999 0.40741 0.74333 0.0
C2541 C 0.42508 0.42732 0.70774 0.0
C2542 C 0.43281 0.42033 0.68766 0.0
C2543 C 0.45244 0.42938 0.68434 0.0
C2544 C 0.46451 0.44534 0.70291 0.0
C2545 C 0.45698 0.45221 0.72467 0.0
C2546 C 0.43692 0.44371 0.72567 0.0
H2547 H 0.66135 0.06085 0.68272 0.0
H2548 H 0.64478 0.0072 0.63375 0.0
H2549 H 0.61103 0.9955 0.64413 0.0
H2550 H 0.63014 0.03965 0.73914 0.0
H2551 H 0.62523 0.05916 0.74418 0.0
H2552 H 0.64754 0.06385 0.73002 0.0
H2553 H 0.64094 0.0788 0.68482 0.0
H2554 H 0.6184 0.07383 0.69871 0.0
H2555 H 0.61926 0.06471 0.66279 0.0
H2556 H 0.57932 0.98887 0.66264 0.0
H2557 H 0.55331 0.98631 0.69271 0.0
H2558 H 0.59083 0.04417 0.72959 0.0
C2559 C 0.65061 0.04673 0.67384 0.0
C2560 C 0.65567 0.03499 0.65727 0.0
C2561 C 0.64122 0.01646 0.64651 0.0
C2562 C 0.622 0.00976 0.65206 0.0
C2563 C 0.61748 0.02177 0.6684 0.0
C2564 C 0.63143 0.03979 0.67936 0.0
C2565 C 0.62315 0.04917 0.69856 0.0
C2566 C 0.63203 0.05318 0.72981 0.0
C2567 C 0.62558 0.06773 0.68542 0.0
C2568 C 0.60243 0.03341 0.69735 0.0
C2569 C 0.59932 0.01787 0.67936 0.0
C2570 C 0.58152 0.00106 0.67645 0.0
C2571 C 0.56678 0.99978 0.69338 0.0
C2572 C 0.57007 0.01512 0.71317 0.0
C2573 C 0.5879 0.03237 0.71426 0.0
loop_
_geom_bond_atom_site_label_1
_geom_bond_atom_site_label_2
_geom_bond_distance
_geom_bond_site_symmetry_2
_ccdc_geom_bond_type
Mg0 O1 2.028 1_556 S
Mg0 O7 1.986 1_455 S
Mg0 O9 2.114 . S
Mg0 O10 2.251 1_455 S
Mg0 O13 2.010 1_556 S
O1 Mg0 2.028 1_554 S
O1 C4 1.250 1_455 S
O2 Mg3 2.028 1_554 S
O2 C4 1.248 . S
Mg3 O2 2.028 1_556 S
Mg3 O8 2.032 . S
Mg3 O10 2.079 . S
C4 O1 1.250 1_655 S
C4 O2 1.248 . S
C5 O6 1.264 1_554 S
C5 O13 1.249 . S
O6 C5 1.264 1_556 S
O7 Mg0 1.986 1_655 S
O7 C11 1.246 . S
O8 Mg3 2.032 . S
O8 C11 1.259 . S
O9 Mg0 2.114 . S
O9 C12 1.252 . S
O10 Mg0 2.251 1_655 S
O10 Mg3 2.079 . S
O10 C12 1.273 1_655 S
C11 O7 1.246 . S
C11 O8 1.259 . S
C12 O9 1.252 . S
C12 O10 1.273 1_455 S
O13 Mg0 2.010 1_554 S
O13 C5 1.249 . S
Mg14 O15 2.028 1_554 S
Mg14 O21 1.986 . S
Mg14 O23 2.114 . S
Mg14 O24 2.251 . S
Mg14 O27 2.010 . S
O15 Mg14 2.028 1_556 S
O15 C18 1.250 . S
O16 Mg17 2.028 1_556 S
O16 C18 1.248 . S
Mg17 O16 2.028 1_554 S
Mg17 O22 2.032 . S
Mg17 O24 2.079 . S
C18 O15 1.250 . S
C18 O16 1.248 . S
C19 O20 1.264 . S
C19 O27 1.249 . S
O20 C19 1.264 . S
O21 Mg14 1.986 . S
O21 C25 1.246 . S
O22 Mg17 2.032 . S
O22 C25 1.259 . S
O23 Mg14 2.114 . S
O23 C26 1.252 . S
O24 Mg14 2.251 . S
O24 Mg17 2.079 . S
O24 C26 1.273 . S
C25 O21 1.246 . S
C25 O22 1.259 . S
C26 O23 1.252 . S
C26 O24 1.273 . S
O27 Mg14 2.010 . S
O27 C19 1.249 . S
Mg28 O29 2.021 1_556 S
Mg28 O35 1.988 1_565 S
Mg28 O37 2.114 . S
Mg28 O38 2.251 1_565 S
Mg28 O41 2.010 1_556 S
O29 Mg28 2.021 1_554 S
O29 C32 1.243 1_565 S
O30 Mg31 2.028 1_554 S
O30 C32 1.248 . S
Mg31 O30 2.028 1_556 S
Mg31 O36 2.032 . S
Mg31 O38 2.079 . S
C32 O29 1.243 1_545 S
C32 O30 1.248 . S
C33 O34 1.264 1_554 S
C33 O41 1.249 . S
O34 C33 1.264 1_556 S
O35 Mg28 1.988 1_545 S
O35 C39 1.251 . S
O36 Mg31 2.032 . S
O36 C39 1.259 . S
O37 Mg28 2.114 . S
O37 C40 1.252 . S
O38 Mg28 2.251 1_545 S
O38 Mg31 2.079 . S
O38 C40 1.273 1_545 S
C39 O35 1.251 . S
C39 O36 1.259 . S
C40 O37 1.252 . S
C40 O38 1.273 1_565 S
O41 Mg28 2.010 1_554 S
O41 C33 1.249 . S
Mg42 O43 2.028 1_554 S
Mg42 O49 1.986 1_655 S
Mg42 O51 2.114 . S
Mg42 O52 2.251 1_655 S
Mg42 O55 2.010 . S
O43 Mg42 2.028 1_556 S
O43 C46 1.250 1_655 S
O44 Mg45 2.028 1_556 S
O44 C46 1.248 . S
Mg45 O44 2.028 1_554 S
Mg45 O50 2.032 . S
Mg45 O52 2.079 . S
C46 O43 1.250 1_455 S
C46 O44 1.248 . S
C47 O48 1.264 . S
C47 O55 1.249 . S
O48 C47 1.264 . S
O49 Mg42 1.986 1_455 S
O49 C53 1.246 . S
O50 Mg45 2.032 . S
O50 C53 1.259 . S
O51 Mg42 2.114 . S
O51 C54 1.252 . S
O52 Mg42 2.251 1_455 S
O52 Mg45 2.079 . S
O52 C54 1.273 1_455 S
C53 O49 1.246 . S
C53 O50 1.259 . S
C54 O51 1.252 . S
C54 O52 1.273 1_655 S
O55 Mg42 2.010 . S
O55 C47 1.249 . S
Mg56 O57 2.028 1_556 S
Mg56 O63 1.986 . S
Mg56 O65 2.114 . S
Mg56 O66 2.251 . S
Mg56 O69 2.010 1_556 S
O57 Mg56 2.028 1_554 S
O57 C60 1.250 . S
O58 Mg59 2.028 1_554 S
O58 C60 1.248 . S
Mg59 O58 2.028 1_556 S
Mg59 O64 2.032 . S
Mg59 O66 2.079 . S
C60 O57 1.250 . S
C60 O58 1.248 . S
C61 O62 1.266 . S
C61 O69 1.249 . S
O62 C61 1.266 . S
O63 Mg56 1.986 . S
O63 C67 1.246 . S
O64 Mg59 2.032 . S
O64 C67 1.259 . S
O65 Mg56 2.114 . S
O65 C68 1.252 . S
O66 Mg56 2.251 . S
O66 Mg59 2.079 . S
O66 C68 1.273 . S
C67 O63 1.246 . S
C67 O64 1.259 . S
C68 O65 1.252 . S
C68 O66 1.273 . S
O69 Mg56 2.010 1_554 S
O69 C61 1.249 . S
Mg70 O71 2.028 1_554 S
Mg70 O77 1.986 1_545 S
Mg70 O79 2.114 . S
Mg70 O80 2.251 1_545 S
Mg70 O83 2.010 . S
O71 Mg70 2.028 1_556 S
O71 C74 1.250 1_545 S
O72 Mg73 2.028 1_556 S
O72 C74 1.248 . S
Mg73 O72 2.028 1_554 S
Mg73 O78 2.032 . S
Mg73 O80 2.079 . S
C74 O71 1.250 1_565 S
C74 O72 1.248 . S
C75 O76 1.264 . S
C75 O83 1.249 . S
O76 C75 1.264 . S
O77 Mg70 1.986 1_565 S
O77 C81 1.246 . S
O78 Mg73 2.032 . S
O78 C81 1.259 . S
O79 Mg70 2.114 . S
O79 C82 1.252 . S
O80 Mg70 2.251 1_565 S
O80 Mg73 2.079 . S
O80 C82 1.273 1_565 S
C81 O77 1.246 . S
C81 O78 1.259 . S
C82 O79 1.252 . S
C82 O80 1.273 1_545 S
O83 Mg70 2.010 . S
O83 C75 1.249 . S
Mg84 O85 2.028 . S
Mg84 O91 1.986 . S
Mg84 O93 2.114 . S
Mg84 O94 2.251 . S
Mg84 O97 2.010 . S
O85 Mg84 2.028 . S
O85 C88 1.250 . S
O86 Mg87 2.028 . S
O86 C88 1.248 . S
Mg87 O86 2.028 . S
Mg87 O92 2.032 . S
Mg87 O94 2.079 . S
C88 O85 1.250 . S
C88 O86 1.248 . S
C89 O90 1.264 . S
C89 O97 1.249 . S
O90 C89 1.264 . S
O91 Mg84 1.986 . S
O91 C95 1.246 . S
O92 Mg87 2.032 . S
O92 C95 1.259 . S
O93 Mg84 2.114 . S
O93 C96 1.252 . S
O94 Mg84 2.251 . S
O94 Mg87 2.079 . S
O94 C96 1.273 . S
C95 O91 1.246 . S
C95 O92 1.259 . S
C96 O93 1.252 . S
C96 O94 1.273 . S
O97 Mg84 2.010 . S
O97 C89 1.249 . S
Mg98 O99 2.028 . S
Mg98 O105 1.986 1_565 S
Mg98 O107 2.114 . S
Mg98 O108 2.251 . S
Mg98 O111 2.010 . S
O99 Mg98 2.028 . S
O99 C102 1.250 . S
O100 Mg101 2.028 . S
O100 C102 1.248 . S
Mg101 O100 2.028 . S
Mg101 O106 2.032 1_565 S
Mg101 O108 2.079 . S
C102 O99 1.250 . S
C102 O100 1.248 . S
C103 O104 1.264 . S
C103 O111 1.249 . S
O104 C103 1.264 . S
O105 Mg98 1.986 1_545 S
O105 C109 1.246 . S
O106 Mg101 2.032 1_545 S
O106 C109 1.259 . S
O107 Mg98 2.114 . S
O107 C110 1.252 . S
O108 Mg98 2.251 . S
O108 Mg101 2.079 . S
O108 C110 1.273 . S
C109 O105 1.246 . S
C109 O106 1.259 . S
C110 O107 1.252 . S
C110 O108 1.273 . S
O111 Mg98 2.010 . S
O111 C103 1.249 . S
Mg112 O113 2.028 . S
Mg112 O119 1.986 . S
Mg112 O121 2.114 . S
Mg112 O122 2.251 . S
Mg112 O125 2.010 1_455 S
O113 Mg112 2.028 . S
O113 C116 1.250 . S
O114 Mg115 2.028 . S
O114 C116 1.248 . S
Mg115 O114 2.028 . S
Mg115 O120 2.032 . S
Mg115 O122 2.079 . S
C116 O113 1.250 . S
C116 O114 1.248 . S
C117 O118 1.264 . S
C117 O125 1.249 . S
O118 C117 1.264 . S
O119 Mg112 1.986 . S
O119 C123 1.246 . S
O120 Mg115 2.032 . S
O120 C123 1.259 . S
O121 Mg112 2.114 . S
O121 C124 1.252 . S
O122 Mg112 2.251 . S
O122 Mg115 2.079 . S
O122 C124 1.273 . S
C123 O119 1.246 . S
C123 O120 1.259 . S
C124 O121 1.252 . S
C124 O122 1.273 . S
O125 Mg112 2.010 1_655 S
O125 C117 1.249 . S
Mg126 O127 2.028 . S
Mg126 O133 1.986 1_565 S
Mg126 O135 2.114 . S
Mg126 O136 2.251 . S
Mg126 O139 2.010 . S
O127 Mg126 2.028 . S
O127 C130 1.250 . S
O128 Mg129 2.028 . S
O128 C130 1.248 . S
Mg129 O128 2.028 . S
Mg129 O134 2.032 1_565 S
Mg129 O136 2.079 . S
C130 O127 1.250 . S
C130 O128 1.248 . S
C131 O132 1.264 . S
C131 O139 1.249 . S
O132 C131 1.264 . S
O133 Mg126 1.986 1_545 S
O133 C137 1.246 . S
O134 Mg129 2.032 1_545 S
O134 C137 1.259 . S
O135 Mg126 2.114 . S
O135 C138 1.252 . S
O136 Mg126 2.251 . S
O136 Mg129 2.079 . S
O136 C138 1.273 . S
C137 O133 1.246 . S
C137 O134 1.259 . S
C138 O135 1.252 . S
C138 O136 1.273 . S
O139 Mg126 2.010 . S
O139 C131 1.249 . S
Mg140 O141 2.028 . S
Mg140 O147 1.986 . S
Mg140 O149 2.114 . S
Mg140 O150 2.251 . S
Mg140 O153 2.010 1_455 S
O141 Mg140 2.028 . S
O141 C144 1.250 . S
O142 Mg143 2.028 . S
O142 C144 1.248 . S
Mg143 O142 2.028 . S
Mg143 O148 2.032 . S
Mg143 O150 2.079 . S
C144 O141 1.250 . S
C144 O142 1.248 . S
C145 O146 1.264 . S
C145 O153 1.249 . S
O146 C145 1.264 . S
O147 Mg140 1.986 . S
O147 C151 1.246 . S
O148 Mg143 2.032 . S
O148 C151 1.259 . S
O149 Mg140 2.114 . S
O149 C152 1.252 . S
O150 Mg140 2.251 . S
O150 Mg143 2.079 . S
O150 C152 1.273 . S
C151 O147 1.246 . S
C151 O148 1.259 . S
C152 O149 1.252 . S
C152 O150 1.273 . S
O153 Mg140 2.010 1_655 S
O153 C145 1.249 . S
Mg154 O155 2.028 . S
Mg154 O161 1.986 . S
Mg154 O163 2.114 . S
Mg154 O164 2.251 . S
Mg154 O167 2.010 . S
O155 Mg154 2.028 . S
O155 C158 1.250 . S
O156 Mg157 2.028 . S
O156 C158 1.248 . S
Mg157 O156 2.028 . S
Mg157 O162 2.032 . S
Mg157 O164 2.079 . S
C158 O155 1.250 . S
C158 O156 1.248 . S
C159 O160 1.264 . S
C159 O167 1.249 . S
O160 C159 1.264 . S
O161 Mg154 1.986 . S
O161 C165 1.246 . S
O162 Mg157 2.032 . S
O162 C165 1.259 . S
O163 Mg154 2.114 . S
O163 C166 1.252 . S
O164 Mg154 2.251 . S
O164 Mg157 2.079 . S
O164 C166 1.273 . S
C165 O161 1.246 . S
C165 O162 1.259 . S
C166 O163 1.252 . S
C166 O164 1.273 . S
O167 Mg154 2.010 . S
O167 C159 1.249 . S
Mg168 O169 2.028 . S
Mg168 O175 1.986 1_545 S
Mg168 O177 2.114 . S
Mg168 O178 2.251 . S
Mg168 O181 2.010 . S
O169 Mg168 2.028 . S
O169 C172 1.250 . S
O170 Mg171 2.028 . S
O170 C172 1.248 . S
Mg171 O170 2.028 . S
Mg171 O176 2.032 1_545 S
Mg171 O178 2.079 . S
C172 O169 1.250 . S
C172 O170 1.248 . S
C173 O174 1.264 . S
C173 O181 1.249 . S
O174 C173 1.264 . S
O175 Mg168 1.986 1_565 S
O175 C179 1.246 . S
O176 Mg171 2.032 1_565 S
O176 C179 1.259 . S
O177 Mg168 2.114 . S
O177 C180 1.252 . S
O178 Mg168 2.251 . S
O178 Mg171 2.079 . S
O178 C180 1.273 . S
C179 O175 1.246 . S
C179 O176 1.259 . S
C180 O177 1.252 . S
C180 O178 1.273 . S
O181 Mg168 2.010 . S
O181 C173 1.249 . S
Mg182 O183 2.028 . S
Mg182 O189 1.986 . S
Mg182 O191 2.114 . S
Mg182 O192 2.251 . S
Mg182 O195 2.010 1_655 S
O183 Mg182 2.028 . S
O183 C186 1.250 . S
O184 Mg185 2.028 . S
O184 C186 1.248 . S
Mg185 O184 2.028 . S
Mg185 O190 2.032 . S
Mg185 O192 2.079 . S
C186 O183 1.250 . S
C186 O184 1.248 . S
C187 O188 1.264 . S
C187 O195 1.249 . S
O188 C187 1.264 . S
O189 Mg182 1.986 . S
O189 C193 1.246 . S
O190 Mg185 2.032 . S
O190 C193 1.259 . S
O191 Mg182 2.114 . S
O191 C194 1.252 . S
O192 Mg182 2.251 . S
O192 Mg185 2.079 . S
O192 C194 1.273 . S
C193 O189 1.246 . S
C193 O190 1.259 . S
C194 O191 1.252 . S
C194 O192 1.273 . S
O195 Mg182 2.010 1_455 S
O195 C187 1.249 . S
Mg196 O197 2.028 . S
Mg196 O203 1.986 . S
Mg196 O205 2.114 . S
Mg196 O206 2.251 . S
Mg196 O209 2.010 . S
O197 Mg196 2.028 . S
O197 C200 1.250 . S
O198 Mg199 2.028 . S
O198 C200 1.248 . S
Mg199 O198 2.028 . S
Mg199 O204 2.032 . S
Mg199 O206 2.079 . S
C200 O197 1.250 . S
C200 O198 1.248 . S
C201 O202 1.264 . S
C201 O209 1.249 . S
O202 C201 1.264 . S
O203 Mg196 1.986 . S
O203 C207 1.246 . S
O204 Mg199 2.032 . S
O204 C207 1.259 . S
O205 Mg196 2.114 . S
O205 C208 1.252 . S
O206 Mg196 2.251 . S
O206 Mg199 2.079 . S
O206 C208 1.273 . S
C207 O203 1.246 . S
C207 O204 1.259 . S
C208 O205 1.252 . S
C208 O206 1.273 . S
O209 Mg196 2.010 . S
O209 C201 1.249 . S
Mg210 O211 2.028 . S
Mg210 O217 1.986 . S
Mg210 O219 2.114 . S
Mg210 O220 2.251 . S
Mg210 O223 2.010 . S
O211 Mg210 2.028 . S
O211 C214 1.250 . S
O212 Mg213 2.028 . S
O212 C214 1.248 . S
Mg213 O212 2.028 . S
Mg213 O218 2.032 . S
Mg213 O220 2.079 . S
C214 O211 1.250 . S
C214 O212 1.248 . S
C215 O216 1.264 . S
C215 O223 1.249 . S
O216 C215 1.264 . S
O217 Mg210 1.986 . S
O217 C221 1.246 . S
O218 Mg213 2.032 . S
O218 C221 1.259 . S
O219 Mg210 2.114 . S
O219 C222 1.252 . S
O220 Mg210 2.251 . S
O220 Mg213 2.079 . S
O220 C222 1.273 . S
C221 O217 1.246 . S
C221 O218 1.259 . S
C222 O219 1.252 . S
C222 O220 1.273 . S
O223 Mg210 2.010 . S
O223 C215 1.249 . S
Mg224 O225 2.028 . S
Mg224 O231 1.986 1_545 S
Mg224 O233 2.114 . S
Mg224 O234 2.251 . S
Mg224 O237 2.010 . S
O225 Mg224 2.028 . S
O225 C228 1.250 . S
O226 Mg227 2.028 . S
O226 C228 1.248 . S
Mg227 O226 2.028 . S
Mg227 O232 2.032 1_545 S
Mg227 O234 2.079 . S
C228 O225 1.250 . S
C228 O226 1.248 . S
C229 O230 1.264 . S
C229 O237 1.249 . S
O230 C229 1.264 . S
O231 Mg224 1.986 1_565 S
O231 C235 1.246 . S
O232 Mg227 2.032 1_565 S
O232 C235 1.259 . S
O233 Mg224 2.114 . S
O233 C236 1.252 . S
O234 Mg224 2.251 . S
O234 Mg227 2.079 . S
O234 C236 1.273 . S
C235 O231 1.246 . S
C235 O232 1.259 . S
C236 O233 1.252 . S
C236 O234 1.273 . S
O237 Mg224 2.010 . S
O237 C229 1.249 . S
Mg238 O239 2.028 . S
Mg238 O245 1.986 . S
Mg238 O247 2.114 . S
Mg238 O248 2.251 . S
Mg238 O251 2.010 1_655 S
O239 Mg238 2.028 . S
O239 C242 1.250 . S
O240 Mg241 2.028 . S
O240 C242 1.248 . S
Mg241 O240 2.028 . S
Mg241 O246 2.032 . S
Mg241 O248 2.079 . S
C242 O239 1.250 . S
C242 O240 1.248 . S
C243 O244 1.264 . S
C243 O251 1.249 . S
O244 C243 1.264 . S
O245 Mg238 1.986 . S
O245 C249 1.246 . S
O246 Mg241 2.032 . S
O246 C249 1.259 . S
O247 Mg238 2.114 . S
O247 C250 1.252 . S
O248 Mg238 2.251 . S
O248 Mg241 2.079 . S
O248 C250 1.273 . S
C249 O245 1.246 . S
C249 O246 1.259 . S
C250 O247 1.252 . S
C250 O248 1.273 . S
O251 Mg238 2.010 1_455 S
O251 C243 1.249 . S
H252 C260 0.930 . S
H253 C263 0.930 . S
H254 C265 0.930 . S
H255 C266 0.970 . S
H256 C266 0.970 . S
H257 C268 0.930 . S
H258 C270 0.930 . S
H259 C272 0.930 . S
C260 H252 0.930 . S
C260 C261 1.382 . S
C260 C262 1.426 . S
C261 C260 1.382 . S
C261 C265 1.389 . S
C262 C260 1.426 . S
C262 C263 1.375 . S
C262 C266 1.532 . S
C263 H253 0.930 . S
C263 C262 1.375 . S
C263 C264 1.416 . S
C264 C263 1.416 . S
C264 C265 1.371 . S
C265 H254 0.930 . S
C265 C261 1.389 . S
C265 C264 1.371 . S
C266 H255 0.970 . S
C266 H256 0.970 . S
C266 C262 1.532 . S
C266 C267 1.499 . S
C267 C266 1.499 . S
C267 C268 1.370 . S
C267 C272 1.415 . S
C268 H257 0.930 . S
C268 C267 1.370 . S
C268 C269 1.407 . S
C269 C268 1.407 . S
C269 C270 1.365 . S
C270 H258 0.930 . S
C270 C269 1.365 . S
C270 C271 1.393 . S
C271 C270 1.393 . S
C271 C272 1.387 . S
C272 H259 0.930 . S
C272 C267 1.415 . S
C272 C271 1.387 . S
H273 C281 0.930 . S
H274 C284 0.930 . S
H275 C286 0.930 . S
H276 C287 0.970 . S
H277 C287 0.970 . S
H278 C289 0.930 . S
H279 C291 0.930 . S
H280 C293 0.930 . S
C281 H273 0.930 . S
C281 C282 1.382 . S
C281 C283 1.426 . S
C282 C281 1.382 . S
C282 C286 1.389 . S
C283 C281 1.426 . S
C283 C284 1.375 . S
C283 C287 1.532 . S
C284 H274 0.930 . S
C284 C283 1.375 . S
C284 C285 1.416 . S
C285 C284 1.416 . S
C285 C286 1.371 . S
C286 H275 0.930 . S
C286 C282 1.389 . S
C286 C285 1.371 . S
C287 H276 0.970 . S
C287 H277 0.970 . S
C287 C283 1.532 . S
C287 C288 1.499 . S
C288 C287 1.499 . S
C288 C289 1.370 . S
C288 C293 1.415 . S
C289 H278 0.930 . S
C289 C288 1.370 . S
C289 C290 1.407 . S
C290 C289 1.407 . S
C290 C291 1.365 . S
C291 H279 0.930 . S
C291 C290 1.365 . S
C291 C292 1.393 . S
C292 C291 1.393 . S
C292 C293 1.387 . S
C293 H280 0.930 . S
C293 C288 1.415 . S
C293 C292 1.387 . S
H294 C302 0.930 . S
H295 C305 0.930 . S
H296 C307 0.930 . S
H297 C308 0.970 . S
H298 C308 0.970 . S
H299 C310 0.930 . S
H300 C312 0.930 . S
H301 C314 0.930 . S
C302 H294 0.930 . S
C302 C303 1.382 . S
C302 C304 1.426 . S
C303 C302 1.382 . S
C303 C307 1.389 . S
C304 C302 1.426 . S
C304 C305 1.375 . S
C304 C308 1.532 . S
C305 H295 0.930 . S
C305 C304 1.375 . S
C305 C306 1.416 . S
C306 C305 1.416 . S
C306 C307 1.371 . S
C307 H296 0.930 . S
C307 C303 1.389 . S
C307 C306 1.371 . S
C308 H297 0.970 . S
C308 H298 0.970 . S
C308 C304 1.532 . S
C308 C309 1.499 . S
C309 C308 1.499 . S
C309 C310 1.370 . S
C309 C314 1.415 . S
C310 H299 0.930 . S
C310 C309 1.370 . S
C310 C311 1.407 . S
C311 C310 1.407 . S
C311 C312 1.365 . S
C312 H300 0.930 . S
C312 C311 1.365 . S
C312 C313 1.393 . S
C313 C312 1.393 . S
C313 C314 1.387 . S
C314 H301 0.930 . S
C314 C309 1.415 . S
C314 C313 1.387 . S
H315 C323 0.930 . S
H316 C326 0.930 . S
H317 C328 0.930 . S
H318 C329 0.970 . S
H319 C329 0.970 . S
H320 C331 0.930 . S
H321 C333 0.930 . S
H322 C335 0.930 . S
C323 H315 0.930 . S
C323 C324 1.382 . S
C323 C325 1.426 . S
C324 C323 1.382 . S
C324 C328 1.389 . S
C325 C323 1.426 . S
C325 C326 1.375 . S
C325 C329 1.532 . S
C326 H316 0.930 . S
C326 C325 1.375 . S
C326 C327 1.416 . S
C327 C326 1.416 . S
C327 C328 1.371 . S
C328 H317 0.930 . S
C328 C324 1.389 . S
C328 C327 1.371 . S
C329 H318 0.970 . S
C329 H319 0.970 . S
C329 C325 1.532 . S
C329 C330 1.499 . S
C330 C329 1.499 . S
C330 C331 1.370 . S
C330 C335 1.415 . S
C331 H320 0.930 . S
C331 C330 1.370 . S
C331 C332 1.407 . S
C332 C331 1.407 . S
C332 C333 1.365 . S
C333 H321 0.930 . S
C333 C332 1.365 . S
C333 C334 1.393 . S
C334 C333 1.393 . S
C334 C335 1.387 . S
C335 H322 0.930 . S
C335 C330 1.415 . S
C335 C334 1.387 . S
H336 C344 0.930 . S
H337 C347 0.930 . S
H338 C349 0.930 . S
H339 C350 0.970 . S
H340 C350 0.970 . S
H341 C352 0.930 . S
H342 C354 0.930 . S
H343 C356 0.930 . S
C344 H336 0.930 . S
C344 C345 1.382 . S
C344 C346 1.426 . S
C345 C344 1.382 . S
C345 C349 1.389 . S
C346 C344 1.426 . S
C346 C347 1.375 . S
C346 C350 1.532 . S
C347 H337 0.930 . S
C347 C346 1.375 . S
C347 C348 1.416 . S
C348 C347 1.416 . S
C348 C349 1.371 . S
C349 H338 0.930 . S
C349 C345 1.389 . S
C349 C348 1.371 . S
C350 H339 0.970 . S
C350 H340 0.970 . S
C350 C346 1.532 . S
C350 C351 1.499 . S
C351 C350 1.499 . S
C351 C352 1.370 . S
C351 C356 1.415 . S
C352 H341 0.930 . S
C352 C351 1.370 . S
C352 C353 1.407 . S
C353 C352 1.407 . S
C353 C354 1.365 . S
C354 H342 0.930 . S
C354 C353 1.365 . S
C354 C355 1.393 . S
C355 C354 1.393 . S
C355 C356 1.387 . S
C356 H343 0.930 . S
C356 C351 1.415 . S
C356 C355 1.387 . S
H357 C365 0.930 . S
H358 C368 0.930 . S
H359 C370 0.930 . S
H360 C371 0.970 . S
H361 C371 0.970 . S
H362 C373 0.930 . S
H363 C375 0.930 . S
H364 C377 0.930 . S
C365 H357 0.930 . S
C365 C366 1.382 . S
C365 C367 1.426 . S
C366 C365 1.382 . S
C366 C370 1.389 . S
C367 C365 1.426 . S
C367 C368 1.375 . S
C367 C371 1.532 . S
C368 H358 0.930 . S
C368 C367 1.375 . S
C368 C369 1.416 . S
C369 C368 1.416 . S
C369 C370 1.371 . S
C370 H359 0.930 . S
C370 C366 1.389 . S
C370 C369 1.371 . S
C371 H360 0.970 . S
C371 H361 0.970 . S
C371 C367 1.532 . S
C371 C372 1.499 . S
C372 C371 1.499 . S
C372 C373 1.370 . S
C372 C377 1.415 . S
C373 H362 0.930 . S
C373 C372 1.370 . S
C373 C374 1.407 . S
C374 C373 1.407 . S
C374 C375 1.365 . S
C375 H363 0.930 . S
C375 C374 1.365 . S
C375 C376 1.393 . S
C376 C375 1.393 . S
C376 C377 1.387 . S
C377 H364 0.930 . S
C377 C372 1.415 . S
C377 C376 1.387 . S
H378 C386 0.930 . S
H379 C389 0.930 . S
H380 C391 0.930 . S
H381 C392 0.970 . S
H382 C392 0.970 . S
H383 C394 0.930 . S
H384 C396 0.930 . S
H385 C398 0.930 . S
C386 H378 0.930 . S
C386 C387 1.382 . S
C386 C388 1.426 . S
C387 C386 1.382 . S
C387 C391 1.389 . S
C388 C386 1.426 . S
C388 C389 1.375 . S
C388 C392 1.532 . S
C389 H379 0.930 . S
C389 C388 1.375 . S
C389 C390 1.416 . S
C390 C389 1.416 . S
C390 C391 1.371 . S
C391 H380 0.930 . S
C391 C387 1.389 . S
C391 C390 1.371 . S
C392 H381 0.970 . S
C392 H382 0.970 . S
C392 C388 1.532 . S
C392 C393 1.499 . S
C393 C392 1.499 . S
C393 C394 1.370 . S
C393 C398 1.415 . S
C394 H383 0.930 . S
C394 C393 1.370 . S
C394 C395 1.407 . S
C395 C394 1.407 . S
C395 C396 1.365 . S
C396 H384 0.930 . S
C396 C395 1.365 . S
C396 C397 1.393 . S
C397 C396 1.393 . S
C397 C398 1.387 . S
C398 H385 0.930 . S
C398 C393 1.415 . S
C398 C397 1.387 . S
H399 C407 0.930 . S
H400 C410 0.930 . S
H401 C412 0.930 . S
H402 C413 0.970 . S
H403 C413 0.970 . S
H404 C415 0.930 . S
H405 C417 0.930 . S
H406 C419 0.930 . S
C407 H399 0.930 . S
C407 C408 1.382 . S
C407 C409 1.426 . S
C408 C407 1.382 . S
C408 C412 1.389 . S
C409 C407 1.426 . S
C409 C410 1.375 . S
C409 C413 1.532 . S
C410 H400 0.930 . S
C410 C409 1.375 . S
C410 C411 1.416 . S
C411 C410 1.416 . S
C411 C412 1.371 . S
C412 H401 0.930 . S
C412 C408 1.389 . S
C412 C411 1.371 . S
C413 H402 0.970 . S
C413 H403 0.970 . S
C413 C409 1.532 . S
C413 C414 1.499 . S
C414 C413 1.499 . S
C414 C415 1.370 . S
C414 C419 1.415 . S
C415 H404 0.930 . S
C415 C414 1.370 . S
C415 C416 1.407 . S
C416 C415 1.407 . S
C416 C417 1.365 . S
C417 H405 0.930 . S
C417 C416 1.365 . S
C417 C418 1.393 . S
C418 C417 1.393 . S
C418 C419 1.387 . S
C419 H406 0.930 . S
C419 C414 1.415 . S
C419 C418 1.387 . S
H420 C428 0.930 . S
H421 C431 0.930 . S
H422 C433 0.930 . S
H423 C434 0.970 . S
H424 C434 0.970 . S
H425 C436 0.930 . S
H426 C438 0.930 . S
H427 C440 0.930 . S
C428 H420 0.930 . S
C428 C429 1.382 . S
C428 C430 1.426 . S
C429 C428 1.382 . S
C429 C433 1.389 . S
C430 C428 1.426 . S
C430 C431 1.375 . S
C430 C434 1.532 . S
C431 H421 0.930 . S
C431 C430 1.375 . S
C431 C432 1.416 . S
C432 C431 1.416 . S
C432 C433 1.371 . S
C433 H422 0.930 . S
C433 C429 1.389 . S
C433 C432 1.371 . S
C434 H423 0.970 . S
C434 H424 0.970 . S
C434 C430 1.532 . S
C434 C435 1.499 . S
C435 C434 1.499 . S
C435 C436 1.370 . S
C435 C440 1.415 . S
C436 H425 0.930 . S
C436 C435 1.370 . S
C436 C437 1.407 . S
C437 C436 1.407 . S
C437 C438 1.365 . S
C438 H426 0.930 . S
C438 C437 1.365 . S
C438 C439 1.393 . S
C439 C438 1.393 . S
C439 C440 1.387 . S
C440 H427 0.930 . S
C440 C435 1.415 . S
C440 C439 1.387 . S
H441 C449 0.930 . S
H442 C452 0.930 . S
H443 C454 0.930 . S
H444 C455 0.970 . S
H445 C455 0.970 . S
H446 C457 0.930 . S
H447 C459 0.930 . S
H448 C461 0.930 . S
C449 H441 0.930 . S
C449 C450 1.382 . S
C449 C451 1.426 . S
C450 C449 1.382 . S
C450 C454 1.389 1_455 S
C451 C449 1.426 . S
C451 C452 1.375 . S
C451 C455 1.532 . S
C452 H442 0.930 . S
C452 C451 1.375 . S
C452 C453 1.416 . S
C453 C452 1.416 . S
C453 C454 1.371 1_455 S
C454 H443 0.930 . S
C454 C450 1.389 1_655 S
C454 C453 1.371 1_655 S
C455 H444 0.970 . S
C455 H445 0.970 . S
C455 C451 1.532 . S
C455 C456 1.499 . S
C456 C455 1.499 . S
C456 C457 1.370 . S
C456 C461 1.415 . S
C457 H446 0.930 . S
C457 C456 1.370 . S
C457 C458 1.410 . S
C458 C457 1.410 . S
C458 C459 1.368 1_455 S
C459 H447 0.930 . S
C459 C458 1.368 1_655 S
C459 C460 1.393 1_655 S
C460 C459 1.393 1_455 S
C460 C461 1.387 . S
C461 H448 0.930 . S
C461 C456 1.415 . S
C461 C460 1.387 . S
H462 C470 0.930 . S
H463 C473 0.930 . S
H464 C475 0.930 . S
H465 C476 0.970 . S
H466 C476 0.970 . S
H467 C478 0.930 . S
H468 C480 0.930 . S
H469 C482 0.930 . S
C470 H462 0.930 . S
C470 C471 1.382 . S
C470 C472 1.426 . S
C471 C470 1.382 . S
C471 C475 1.389 . S
C472 C470 1.426 . S
C472 C473 1.375 . S
C472 C476 1.532 . S
C473 H463 0.930 . S
C473 C472 1.375 . S
C473 C474 1.416 . S
C474 C473 1.416 . S
C474 C475 1.371 . S
C475 H464 0.930 . S
C475 C471 1.389 . S
C475 C474 1.371 . S
C476 H465 0.970 . S
C476 H466 0.970 . S
C476 C472 1.532 . S
C476 C477 1.499 . S
C477 C476 1.499 . S
C477 C478 1.370 . S
C477 C482 1.415 . S
C478 H467 0.930 . S
C478 C477 1.370 . S
C478 C479 1.407 . S
C479 C478 1.407 . S
C479 C480 1.365 . S
C480 H468 0.930 . S
C480 C479 1.365 . S
C480 C481 1.393 . S
C481 C480 1.393 . S
C481 C482 1.387 . S
C482 H469 0.930 . S
C482 C477 1.415 . S
C482 C481 1.387 . S
H483 C491 0.930 . S
H484 C494 0.930 . S
H485 C496 0.930 . S
H486 C497 0.970 . S
H487 C497 0.970 . S
H488 C499 0.930 . S
H489 C501 0.930 . S
H490 C503 0.930 . S
C491 H483 0.930 . S
C491 C492 1.382 . S
C491 C493 1.426 . S
C492 C491 1.382 . S
C492 C496 1.389 1_565 S
C493 C491 1.426 . S
C493 C494 1.375 . S
C493 C497 1.532 . S
C494 H484 0.930 . S
C494 C493 1.375 . S
C494 C495 1.416 . S
C495 C494 1.416 . S
C495 C496 1.371 1_565 S
C496 H485 0.930 . S
C496 C492 1.389 1_545 S
C496 C495 1.371 1_545 S
C497 H486 0.970 . S
C497 H487 0.970 . S
C497 C493 1.532 . S
C497 C498 1.499 . S
C498 C497 1.499 . S
C498 C499 1.370 . S
C498 C503 1.415 . S
C499 H488 0.930 . S
C499 C498 1.370 . S
C499 C500 1.437 . S
C500 C499 1.437 . S
C500 C501 1.354 1_565 S
C501 H489 0.930 . S
C501 C500 1.354 1_545 S
C501 C502 1.393 1_545 S
C502 C501 1.393 1_565 S
C502 C503 1.387 . S
C503 H490 0.930 . S
C503 C498 1.415 . S
C503 C502 1.387 . S
H504 C512 0.930 . S
H505 C515 0.930 . S
H506 C517 0.930 . S
H507 C518 0.970 . S
H508 C518 0.970 . S
H509 C520 0.930 . S
H510 C522 0.930 . S
H511 C524 0.930 . S
C512 H504 0.930 . S
C512 C513 1.382 . S
C512 C514 1.426 . S
C513 C512 1.382 . S
C513 C517 1.389 1_565 S
C514 C512 1.426 . S
C514 C515 1.375 . S
C514 C518 1.532 . S
C515 H505 0.930 . S
C515 C514 1.375 . S
C515 C516 1.416 . S
C516 C515 1.416 . S
C516 C517 1.371 1_565 S
C517 H506 0.930 . S
C517 C513 1.389 1_545 S
C517 C516 1.371 1_545 S
C518 H507 0.970 . S
C518 H508 0.970 . S
C518 C514 1.532 . S
C518 C519 1.499 . S
C519 C518 1.499 . S
C519 C520 1.370 . S
C519 C524 1.415 . S
C520 H509 0.930 . S
C520 C519 1.370 . S
C520 C521 1.407 . S
C521 C520 1.407 . S
C521 C522 1.365 1_565 S
C522 H510 0.930 . S
C522 C521 1.365 1_545 S
C522 C523 1.393 1_545 S
C523 C522 1.393 1_565 S
C523 C524 1.387 . S
C524 H511 0.930 . S
C524 C519 1.415 . S
C524 C523 1.387 . S
H525 C533 0.930 . S
H526 C536 0.930 . S
H527 C538 0.930 . S
H528 C539 0.970 . S
H529 C539 0.970 . S
H530 C541 0.930 . S
H531 C543 0.930 . S
H532 C545 0.930 . S
C533 H525 0.930 . S
C533 C534 1.382 . S
C533 C535 1.426 . S
C534 C533 1.382 . S
C534 C538 1.389 1_455 S
C535 C533 1.426 . S
C535 C536 1.375 . S
C535 C539 1.532 . S
C536 H526 0.930 . S
C536 C535 1.375 . S
C536 C537 1.416 . S
C537 C536 1.416 . S
C537 C538 1.371 1_455 S
C538 H527 0.930 . S
C538 C534 1.389 1_655 S
C538 C537 1.371 1_655 S
C539 H528 0.970 . S
C539 H529 0.970 . S
C539 C535 1.532 . S
C539 C540 1.499 . S
C540 C539 1.499 . S
C540 C541 1.370 . S
C540 C545 1.415 . S
C541 H530 0.930 . S
C541 C540 1.370 . S
C541 C542 1.407 . S
C542 C541 1.407 . S
C542 C543 1.365 1_455 S
C543 H531 0.930 . S
C543 C542 1.365 1_655 S
C543 C544 1.393 1_655 S
C544 C543 1.393 1_455 S
C544 C545 1.387 . S
C545 H532 0.930 . S
C545 C540 1.415 . S
C545 C544 1.387 . S
H546 C554 0.930 . S
H547 C557 0.930 . S
H548 C559 0.930 . S
H549 C560 0.970 . S
H550 C560 0.970 . S
H551 C562 0.930 . S
H552 C564 0.930 . S
H553 C566 0.930 . S
C554 H546 0.930 . S
C554 C555 1.382 . S
C554 C556 1.426 . S
C555 C554 1.382 . S
C555 C559 1.389 . S
C556 C554 1.426 . S
C556 C557 1.375 . S
C556 C560 1.532 . S
C557 H547 0.930 . S
C557 C556 1.375 . S
C557 C558 1.416 . S
C558 C557 1.416 . S
C558 C559 1.371 . S
C559 H548 0.930 . S
C559 C555 1.389 . S
C559 C558 1.371 . S
C560 H549 0.970 . S
C560 H550 0.970 . S
C560 C556 1.532 . S
C560 C561 1.499 . S
C561 C560 1.499 . S
C561 C562 1.370 . S
C561 C566 1.415 . S
C562 H551 0.930 . S
C562 C561 1.370 . S
C562 C563 1.407 . S
C563 C562 1.407 . S
C563 C564 1.365 . S
C564 H552 0.930 . S
C564 C563 1.365 . S
C564 C565 1.393 . S
C565 C564 1.393 . S
C565 C566 1.387 . S
C566 H553 0.930 . S
C566 C561 1.415 . S
C566 C565 1.387 . S
H567 C575 0.930 . S
H568 C578 0.930 . S
H569 C580 0.930 . S
H570 C581 0.970 . S
H571 C581 0.970 . S
H572 C583 0.930 . S
H573 C585 0.930 . S
H574 C587 0.930 . S
C575 H567 0.930 . S
C575 C576 1.382 . S
C575 C577 1.426 . S
C576 C575 1.382 . S
C576 C580 1.389 . S
C577 C575 1.426 . S
C577 C578 1.375 . S
C577 C581 1.532 . S
C578 H568 0.930 . S
C578 C577 1.375 . S
C578 C579 1.416 . S
C579 C578 1.416 . S
C579 C580 1.371 . S
C580 H569 0.930 . S
C580 C576 1.389 . S
C580 C579 1.371 . S
C581 H570 0.970 . S
C581 H571 0.970 . S
C581 C577 1.532 . S
C581 C582 1.499 . S
C582 C581 1.499 . S
C582 C583 1.370 . S
C582 C587 1.415 . S
C583 H572 0.930 . S
C583 C582 1.370 . S
C583 C584 1.407 . S
C584 C583 1.407 . S
C584 C585 1.365 . S
C585 H573 0.930 . S
C585 C584 1.365 . S
C585 C586 1.393 . S
C586 C585 1.393 . S
C586 C587 1.387 . S
C587 H574 0.930 . S
C587 C582 1.415 . S
C587 C586 1.387 . S
H588 C596 0.930 . S
H589 C599 0.930 . S
H590 C601 0.930 . S
H591 C602 0.970 . S
H592 C602 0.970 . S
H593 C604 0.930 . S
H594 C606 0.930 . S
H595 C608 0.930 . S
C596 H588 0.930 . S
C596 C597 1.382 . S
C596 C598 1.426 . S
C597 C596 1.382 . S
C597 C601 1.389 . S
C598 C596 1.426 . S
C598 C599 1.375 . S
C598 C602 1.532 . S
C599 H589 0.930 . S
C599 C598 1.375 . S
C599 C600 1.416 . S
C600 C599 1.416 . S
C600 C601 1.371 . S
C601 H590 0.930 . S
C601 C597 1.389 . S
C601 C600 1.371 . S
C602 H591 0.970 . S
C602 H592 0.970 . S
C602 C598 1.532 . S
C602 C603 1.499 . S
C603 C602 1.499 . S
C603 C604 1.370 . S
C603 C608 1.415 . S
C604 H593 0.930 . S
C604 C603 1.370 . S
C604 C605 1.407 . S
C605 C604 1.407 . S
C605 C606 1.365 . S
C606 H594 0.930 . S
C606 C605 1.365 . S
C606 C607 1.393 . S
C607 C606 1.393 . S
C607 C608 1.387 . S
C608 H595 0.930 . S
C608 C603 1.415 . S
C608 C607 1.387 . S
H609 C617 0.930 . S
H610 C620 0.930 . S
H611 C622 0.930 . S
H612 C623 0.970 . S
H613 C623 0.970 . S
H614 C625 0.930 . S
H615 C627 0.930 . S
H616 C629 0.930 . S
C617 H609 0.930 . S
C617 C618 1.382 . S
C617 C619 1.426 . S
C618 C617 1.382 . S
C618 C622 1.389 . S
C619 C617 1.426 . S
C619 C620 1.375 . S
C619 C623 1.532 . S
C620 H610 0.930 . S
C620 C619 1.375 . S
C620 C621 1.416 . S
C621 C620 1.416 . S
C621 C622 1.371 . S
C622 H611 0.930 . S
C622 C618 1.389 . S
C622 C621 1.371 . S
C623 H612 0.970 . S
C623 H613 0.970 . S
C623 C619 1.532 . S
C623 C624 1.499 . S
C624 C623 1.499 . S
C624 C625 1.370 . S
C624 C629 1.415 . S
C625 H614 0.930 . S
C625 C624 1.370 . S
C625 C626 1.407 . S
C626 C625 1.407 . S
C626 C627 1.365 . S
C627 H615 0.930 . S
C627 C626 1.365 . S
C627 C628 1.393 . S
C628 C627 1.393 . S
C628 C629 1.387 . S
C629 H616 0.930 . S
C629 C624 1.415 . S
C629 C628 1.387 . S
H630 C642 0.930 . S
H631 C644 0.930 . S
H632 C645 0.930 . S
H633 C649 0.959 . S
H634 C649 0.959 . S
H635 C649 0.961 . S
H636 C650 0.960 . S
H637 C650 0.961 . S
H638 C650 0.959 . S
H639 C653 0.929 . S
H640 C654 0.931 . S
H641 C656 0.930 . S
C642 H630 0.930 . S
C642 C643 1.399 1_455 S
C642 C647 1.399 . S
C643 C642 1.399 1_655 S
C643 C644 1.376 . S
C644 H631 0.930 . S
C644 C643 1.376 . S
C644 C645 1.388 . S
C645 H632 0.930 . S
C645 C644 1.388 . S
C645 C646 1.390 . S
C646 C645 1.390 . S
C646 C647 1.394 1_655 S
C646 C652 1.465 . S
C647 C642 1.399 . S
C647 C646 1.394 1_455 S
C647 C648 1.516 . S
C648 C647 1.516 . S
C648 C649 1.502 . S
C648 C650 1.561 . S
C648 C651 1.526 . S
C649 H633 0.959 . S
C649 H634 0.959 . S
C649 H635 0.961 . S
C649 C648 1.502 . S
C650 H636 0.960 . S
C650 H637 0.961 . S
C650 H638 0.959 . S
C650 C648 1.561 . S
C651 C648 1.526 . S
C651 C652 1.396 1_455 S
C651 C656 1.390 . S
C652 C646 1.465 . S
C652 C651 1.396 1_655 S
C652 C653 1.399 . S
C653 H639 0.929 . S
C653 C652 1.399 . S
C653 C654 1.385 . S
C654 H640 0.931 . S
C654 C653 1.385 . S
C654 C655 1.389 . S
C655 C654 1.389 . S
C655 C656 1.387 1_655 S
C656 H641 0.930 . S
C656 C651 1.390 . S
C656 C655 1.387 1_455 S
H657 C669 0.930 . S
H658 C671 0.930 . S
H659 C672 0.930 . S
H660 C676 0.959 . S
H661 C676 0.959 . S
H662 C676 0.961 . S
H663 C677 0.960 . S
H664 C677 0.961 . S
H665 C677 0.959 . S
H666 C680 0.929 . S
H667 C681 0.931 . S
H668 C683 0.930 . S
C669 H657 0.930 . S
C669 C670 1.399 . S
C669 C674 1.399 . S
C670 C669 1.399 . S
C670 C671 1.376 . S
C671 H658 0.930 . S
C671 C670 1.376 . S
C671 C672 1.388 . S
C672 H659 0.930 . S
C672 C671 1.388 . S
C672 C673 1.390 . S
C673 C672 1.390 . S
C673 C674 1.394 . S
C673 C679 1.465 . S
C674 C669 1.399 . S
C674 C673 1.394 . S
C674 C675 1.516 . S
C675 C674 1.516 . S
C675 C676 1.502 . S
C675 C677 1.561 . S
C675 C678 1.526 . S
C676 H660 0.959 . S
C676 H661 0.959 . S
C676 H662 0.961 . S
C676 C675 1.502 . S
C677 H663 0.960 . S
C677 H664 0.961 . S
C677 H665 0.959 . S
C677 C675 1.561 . S
C678 C675 1.526 . S
C678 C679 1.396 . S
C678 C683 1.390 . S
C679 C673 1.465 . S
C679 C678 1.396 . S
C679 C680 1.399 . S
C680 H666 0.929 . S
C680 C679 1.399 . S
C680 C681 1.385 . S
C681 H667 0.931 . S
C681 C680 1.385 . S
C681 C682 1.389 . S
C682 C681 1.389 . S
C682 C683 1.387 . S
C683 H668 0.930 . S
C683 C678 1.390 . S
C683 C682 1.387 . S
H684 C696 0.930 . S
H685 C698 0.930 . S
H686 C699 0.930 . S
H687 C703 0.959 . S
H688 C703 0.959 . S
H689 C703 0.961 . S
H690 C704 0.960 . S
H691 C704 0.961 . S
H692 C704 0.959 . S
H693 C707 0.929 . S
H694 C708 0.931 . S
H695 C710 0.930 . S
C696 H684 0.930 . S
C696 C697 1.399 . S
C696 C701 1.399 . S
C697 C696 1.399 . S
C697 C698 1.376 1_545 S
C698 H685 0.930 . S
C698 C697 1.376 1_565 S
C698 C699 1.388 . S
C699 H686 0.930 . S
C699 C698 1.388 . S
C699 C700 1.390 . S
C700 C699 1.390 . S
C700 C701 1.394 1_565 S
C700 C706 1.465 . S
C701 C696 1.399 . S
C701 C700 1.394 1_545 S
C701 C702 1.516 . S
C702 C701 1.516 . S
C702 C703 1.502 . S
C702 C704 1.561 . S
C702 C705 1.526 . S
C703 H687 0.959 . S
C703 H688 0.959 . S
C703 H689 0.961 . S
C703 C702 1.502 . S
C704 H690 0.960 . S
C704 H691 0.961 . S
C704 H692 0.959 . S
C704 C702 1.561 . S
C705 C702 1.526 . S
C705 C706 1.396 1_545 S
C705 C710 1.390 . S
C706 C700 1.465 . S
C706 C705 1.396 1_565 S
C706 C707 1.399 . S
C707 H693 0.929 . S
C707 C706 1.399 . S
C707 C708 1.385 . S
C708 H694 0.931 . S
C708 C707 1.385 . S
C708 C709 1.389 1_565 S
C709 C708 1.389 1_545 S
C709 C710 1.387 . S
C710 H695 0.930 . S
C710 C705 1.390 . S
C710 C709 1.387 . S
H711 C723 0.930 . S
H712 C725 0.930 . S
H713 C726 0.930 . S
H714 C730 0.959 . S
H715 C730 0.959 . S
H716 C730 0.961 . S
H717 C731 0.960 . S
H718 C731 0.961 . S
H719 C731 0.959 . S
H720 C734 0.929 . S
H721 C735 0.931 . S
H722 C737 0.930 . S
C723 H711 0.930 . S
C723 C724 1.399 . S
C723 C728 1.399 . S
C724 C723 1.399 . S
C724 C725 1.376 1_565 S
C725 H712 0.930 . S
C725 C724 1.376 1_545 S
C725 C726 1.388 . S
C726 H713 0.930 . S
C726 C725 1.388 . S
C726 C727 1.390 . S
C727 C726 1.390 . S
C727 C728 1.394 1_545 S
C727 C733 1.465 . S
C728 C723 1.399 . S
C728 C727 1.394 1_565 S
C728 C729 1.516 . S
C729 C728 1.516 . S
C729 C730 1.502 . S
C729 C731 1.561 . S
C729 C732 1.526 . S
C730 H714 0.959 . S
C730 H715 0.959 . S
C730 H716 0.961 . S
C730 C729 1.502 . S
C731 H717 0.960 . S
C731 H718 0.961 . S
C731 H719 0.959 . S
C731 C729 1.561 . S
C732 C729 1.526 . S
C732 C733 1.396 1_565 S
C732 C737 1.390 . S
C733 C727 1.465 . S
C733 C732 1.396 1_545 S
C733 C734 1.399 . S
C734 H720 0.929 . S
C734 C733 1.399 . S
C734 C735 1.385 . S
C735 H721 0.931 . S
C735 C734 1.385 . S
C735 C736 1.389 1_545 S
C736 C735 1.389 1_565 S
C736 C737 1.387 . S
C737 H722 0.930 . S
C737 C732 1.390 . S
C737 C736 1.387 . S
H738 C750 0.930 . S
H739 C752 0.930 . S
H740 C753 0.930 . S
H741 C757 0.959 . S
H742 C757 0.959 . S
H743 C757 0.961 . S
H744 C758 0.960 . S
H745 C758 0.961 . S
H746 C758 0.959 . S
H747 C761 0.929 . S
H748 C762 0.931 . S
H749 C764 0.930 1_655 S
C750 H738 0.930 . S
C750 C751 1.399 . S
C750 C755 1.399 . S
C751 C750 1.399 . S
C751 C752 1.376 . S
C752 H739 0.930 . S
C752 C751 1.376 . S
C752 C753 1.388 . S
C753 H740 0.930 . S
C753 C752 1.388 . S
C753 C754 1.390 . S
C754 C753 1.390 . S
C754 C755 1.394 . S
C754 C760 1.465 . S
C755 C750 1.399 . S
C755 C754 1.394 . S
C755 C756 1.516 . S
C756 C755 1.516 . S
C756 C757 1.502 1_455 S
C756 C758 1.561 . S
C756 C759 1.526 . S
C757 H741 0.959 . S
C757 H742 0.959 . S
C757 H743 0.961 . S
C757 C756 1.502 1_655 S
C758 H744 0.960 . S
C758 H745 0.961 . S
C758 H746 0.959 . S
C758 C756 1.561 . S
C759 C756 1.526 . S
C759 C760 1.396 . S
C759 C764 1.390 . S
C760 C754 1.465 . S
C760 C759 1.396 . S
C760 C761 1.399 . S
C761 H747 0.929 . S
C761 C760 1.399 . S
C761 C762 1.385 . S
C762 H748 0.931 . S
C762 C761 1.385 . S
C762 C763 1.389 . S
C763 C762 1.389 . S
C763 C764 1.387 . S
C764 H749 0.930 1_455 S
C764 C759 1.390 . S
C764 C763 1.387 . S
H765 C777 0.930 . S
H766 C779 0.930 . S
H767 C780 0.930 . S
H768 C784 0.959 . S
H769 C784 0.959 . S
H770 C784 0.961 . S
H771 C785 0.960 . S
H772 C785 0.961 . S
H773 C785 0.959 . S
H774 C788 0.929 . S
H775 C789 0.931 . S
H776 C791 0.930 . S
C777 H765 0.930 . S
C777 C778 1.399 . S
C777 C782 1.399 . S
C778 C777 1.399 . S
C778 C779 1.376 . S
C779 H766 0.930 . S
C779 C778 1.376 . S
C779 C780 1.388 . S
C780 H767 0.930 . S
C780 C779 1.388 . S
C780 C781 1.390 . S
C781 C780 1.390 . S
C781 C782 1.394 . S
C781 C787 1.465 . S
C782 C777 1.399 . S
C782 C781 1.394 . S
C782 C783 1.516 . S
C783 C782 1.516 . S
C783 C784 1.502 . S
C783 C785 1.561 . S
C783 C786 1.526 . S
C784 H768 0.959 . S
C784 H769 0.959 . S
C784 H770 0.961 . S
C784 C783 1.502 . S
C785 H771 0.960 . S
C785 H772 0.961 . S
C785 H773 0.959 . S
C785 C783 1.561 . S
C786 C783 1.526 . S
C786 C787 1.396 . S
C786 C791 1.390 . S
C787 C781 1.465 . S
C787 C786 1.396 . S
C787 C788 1.399 . S
C788 H774 0.929 . S
C788 C787 1.399 . S
C788 C789 1.385 . S
C789 H775 0.931 . S
C789 C788 1.385 . S
C789 C790 1.389 . S
C790 C789 1.389 . S
C790 C791 1.387 . S
C791 H776 0.930 . S
C791 C786 1.390 . S
C791 C790 1.387 . S
H792 C804 0.930 . S
H793 C806 0.930 . S
H794 C807 0.930 . S
H795 C811 0.959 . S
H796 C811 0.959 . S
H797 C811 0.961 . S
H798 C812 0.960 . S
H799 C812 0.961 . S
H800 C812 0.959 . S
H801 C815 0.929 . S
H802 C816 0.931 . S
H803 C818 0.930 . S
C804 H792 0.930 . S
C804 C805 1.399 1_655 S
C804 C809 1.399 . S
C805 C804 1.399 1_455 S
C805 C806 1.376 . S
C806 H793 0.930 . S
C806 C805 1.376 . S
C806 C807 1.388 . S
C807 H794 0.930 . S
C807 C806 1.388 . S
C807 C808 1.390 . S
C808 C807 1.390 . S
C808 C809 1.394 1_455 S
C808 C814 1.465 . S
C809 C804 1.399 . S
C809 C808 1.394 1_655 S
C809 C810 1.516 . S
C810 C809 1.516 . S
C810 C811 1.502 . S
C810 C812 1.561 . S
C810 C813 1.526 . S
C811 H795 0.959 . S
C811 H796 0.959 . S
C811 H797 0.961 . S
C811 C810 1.502 . S
C812 H798 0.960 . S
C812 H799 0.961 . S
C812 H800 0.959 . S
C812 C810 1.561 . S
C813 C810 1.526 . S
C813 C814 1.396 1_655 S
C813 C818 1.390 . S
C814 C808 1.465 . S
C814 C813 1.396 1_455 S
C814 C815 1.399 . S
C815 H801 0.929 . S
C815 C814 1.399 . S
C815 C816 1.385 . S
C816 H802 0.931 . S
C816 C815 1.385 . S
C816 C817 1.389 . S
C817 C816 1.389 . S
C817 C818 1.387 1_455 S
C818 H803 0.930 . S
C818 C813 1.390 . S
C818 C817 1.387 1_655 S
H819 C831 0.930 . S
H820 C833 0.930 . S
H821 C834 0.930 . S
H822 C838 0.959 . S
H823 C838 0.959 . S
H824 C838 0.961 . S
H825 C839 0.960 . S
H826 C839 0.961 . S
H827 C839 0.959 . S
H828 C842 0.929 . S
H829 C843 0.931 . S
H830 C845 0.930 . S
C831 H819 0.930 . S
C831 C832 1.399 . S
C831 C836 1.399 . S
C832 C831 1.399 . S
C832 C833 1.376 . S
C833 H820 0.930 . S
C833 C832 1.376 . S
C833 C834 1.388 . S
C834 H821 0.930 . S
C834 C833 1.388 . S
C834 C835 1.390 . S
C835 C834 1.390 . S
C835 C836 1.394 . S
C835 C841 1.465 . S
C836 C831 1.399 . S
C836 C835 1.394 . S
C836 C837 1.516 . S
C837 C836 1.516 . S
C837 C838 1.502 . S
C837 C839 1.561 . S
C837 C840 1.526 . S
C838 H822 0.959 . S
C838 H823 0.959 . S
C838 H824 0.961 . S
C838 C837 1.502 . S
C839 H825 0.960 . S
C839 H826 0.961 . S
C839 H827 0.959 . S
C839 C837 1.561 . S
C840 C837 1.526 . S
C840 C841 1.396 . S
C840 C845 1.390 . S
C841 C835 1.465 . S
C841 C840 1.396 . S
C841 C842 1.399 . S
C842 H828 0.929 . S
C842 C841 1.399 . S
C842 C843 1.385 . S
C843 H829 0.931 . S
C843 C842 1.385 . S
C843 C844 1.389 . S
C844 C843 1.389 . S
C844 C845 1.387 . S
C845 H830 0.930 . S
C845 C840 1.390 . S
C845 C844 1.387 . S
H846 C858 0.930 . S
H847 C860 0.930 . S
H848 C861 0.930 . S
H849 C865 0.959 . S
H850 C865 0.959 . S
H851 C865 0.961 . S
H852 C866 0.960 . S
H853 C866 0.961 . S
H854 C866 0.959 . S
H855 C869 0.929 . S
H856 C870 0.931 . S
H857 C872 0.930 . S
C858 H846 0.930 . S
C858 C859 1.399 . S
C858 C863 1.399 . S
C859 C858 1.399 . S
C859 C860 1.376 1_565 S
C860 H847 0.930 . S
C860 C859 1.376 1_545 S
C860 C861 1.388 . S
C861 H848 0.930 . S
C861 C860 1.388 . S
C861 C862 1.390 . S
C862 C861 1.390 . S
C862 C863 1.394 1_545 S
C862 C868 1.465 . S
C863 C858 1.399 . S
C863 C862 1.394 1_565 S
C863 C864 1.516 . S
C864 C863 1.516 . S
C864 C865 1.502 . S
C864 C866 1.561 . S
C864 C867 1.526 . S
C865 H849 0.959 . S
C865 H850 0.959 . S
C865 H851 0.961 . S
C865 C864 1.502 . S
C866 H852 0.960 . S
C866 H853 0.961 . S
C866 H854 0.959 . S
C866 C864 1.561 . S
C867 C864 1.526 . S
C867 C868 1.396 1_565 S
C867 C872 1.390 . S
C868 C862 1.465 . S
C868 C867 1.396 1_545 S
C868 C869 1.399 . S
C869 H855 0.929 . S
C869 C868 1.399 . S
C869 C870 1.385 . S
C870 H856 0.931 . S
C870 C869 1.385 . S
C870 C871 1.439 . S
C871 C870 1.439 . S
C871 C872 1.319 1_545 S
C872 H857 0.930 . S
C872 C867 1.390 . S
C872 C871 1.319 1_565 S
H873 C885 0.930 . S
H874 C887 0.930 . S
H875 C888 0.930 . S
H876 C892 0.959 . S
H877 C892 0.959 . S
H878 C892 0.961 . S
H879 C893 0.960 . S
H880 C893 0.961 . S
H881 C893 0.959 . S
H882 C896 0.929 . S
H883 C897 0.931 . S
H884 C899 0.930 . S
C885 H873 0.930 . S
C885 C886 1.399 . S
C885 C890 1.399 . S
C886 C885 1.399 . S
C886 C887 1.376 1_545 S
C887 H874 0.930 . S
C887 C886 1.376 1_565 S
C887 C888 1.388 . S
C888 H875 0.930 . S
C888 C887 1.388 . S
C888 C889 1.375 1_565 S
C889 C888 1.375 1_545 S
C889 C890 1.405 . S
C889 C895 1.472 1_545 S
C890 C885 1.399 . S
C890 C889 1.405 . S
C890 C891 1.516 . S
C891 C890 1.516 . S
C891 C892 1.502 . S
C891 C893 1.561 . S
C891 C894 1.526 . S
C892 H876 0.959 . S
C892 H877 0.959 . S
C892 H878 0.961 . S
C892 C891 1.502 . S
C893 H879 0.960 . S
C893 H880 0.961 . S
C893 H881 0.959 . S
C893 C891 1.561 . S
C894 C891 1.526 . S
C894 C895 1.396 1_545 S
C894 C899 1.390 . S
C895 C889 1.472 1_565 S
C895 C894 1.396 1_565 S
C895 C896 1.399 . S
C896 H882 0.929 . S
C896 C895 1.399 . S
C896 C897 1.385 . S
C897 H883 0.931 . S
C897 C896 1.385 . S
C897 C898 1.373 1_565 S
C898 C897 1.373 1_545 S
C898 C899 1.394 . S
C899 H884 0.930 . S
C899 C894 1.390 . S
C899 C898 1.394 . S
H900 C912 0.930 . S
H901 C914 0.930 . S
H902 C915 0.930 . S
H903 C919 0.959 . S
H904 C919 0.959 . S
H905 C919 0.961 . S
H906 C920 0.955 . S
H907 C920 0.968 . S
H908 C920 0.946 1_655 S
H909 C923 0.929 . S
H910 C924 0.931 . S
H911 C926 0.930 . S
C912 H900 0.930 . S
C912 C913 1.399 1_455 S
C912 C917 1.403 1_455 S
C913 C912 1.399 1_655 S
C913 C914 1.376 . S
C914 H901 0.930 . S
C914 C913 1.376 . S
C914 C915 1.388 . S
C915 H902 0.930 . S
C915 C914 1.388 . S
C915 C916 1.390 . S
C916 C915 1.390 . S
C916 C917 1.396 . S
C916 C922 1.465 . S
C917 C912 1.403 1_655 S
C917 C916 1.396 . S
C917 C918 1.510 1_655 S
C918 C917 1.510 1_455 S
C918 C919 1.502 . S
C918 C920 1.571 . S
C918 C921 1.526 . S
C919 H903 0.959 . S
C919 H904 0.959 . S
C919 H905 0.961 . S
C919 C918 1.502 . S
C920 H906 0.955 . S
C920 H907 0.968 . S
C920 H908 0.946 1_455 S
C920 C918 1.571 . S
C921 C918 1.526 . S
C921 C922 1.396 1_455 S
C921 C926 1.390 . S
C922 C916 1.465 . S
C922 C921 1.396 1_655 S
C922 C923 1.399 . S
C923 H909 0.929 . S
C923 C922 1.399 . S
C923 C924 1.385 . S
C924 H910 0.931 . S
C924 C923 1.385 . S
C924 C925 1.389 . S
C925 C924 1.389 . S
C925 C926 1.387 1_655 S
C926 H911 0.930 . S
C926 C921 1.390 . S
C926 C925 1.387 1_455 S
H927 C939 0.930 . S
H928 C941 0.930 . S
H929 C942 0.930 . S
H930 C946 0.959 . S
H931 C946 0.959 . S
H932 C946 0.961 . S
H933 C947 0.960 . S
H934 C947 0.961 . S
H935 C947 0.959 . S
H936 C950 0.929 . S
H937 C951 0.931 . S
H938 C953 0.930 . S
C939 H927 0.930 . S
C939 C940 1.399 . S
C939 C944 1.399 . S
C940 C939 1.399 . S
C940 C941 1.376 . S
C941 H928 0.930 . S
C941 C940 1.376 . S
C941 C942 1.388 . S
C942 H929 0.930 . S
C942 C941 1.388 . S
C942 C943 1.390 . S
C943 C942 1.390 . S
C943 C944 1.394 . S
C943 C949 1.465 . S
C944 C939 1.399 . S
C944 C943 1.394 . S
C944 C945 1.516 . S
C945 C944 1.516 . S
C945 C946 1.502 . S
C945 C947 1.561 . S
C945 C948 1.526 . S
C946 H930 0.959 . S
C946 H931 0.959 . S
C946 H932 0.961 . S
C946 C945 1.502 . S
C947 H933 0.960 . S
C947 H934 0.961 . S
C947 H935 0.959 . S
C947 C945 1.561 . S
C948 C945 1.526 . S
C948 C949 1.396 . S
C948 C953 1.390 . S
C949 C943 1.465 . S
C949 C948 1.396 . S
C949 C950 1.399 . S
C950 H936 0.929 . S
C950 C949 1.399 . S
C950 C951 1.385 . S
C951 H937 0.931 . S
C951 C950 1.385 . S
C951 C952 1.389 . S
C952 C951 1.389 . S
C952 C953 1.387 . S
C953 H938 0.930 . S
C953 C948 1.390 . S
C953 C952 1.387 . S
H954 C966 0.930 . S
H955 C968 0.930 . S
H956 C969 0.930 . S
H957 C973 0.959 . S
H958 C973 0.959 . S
H959 C973 0.961 . S
H960 C974 0.960 . S
H961 C974 0.961 . S
H962 C974 0.959 . S
H963 C977 0.929 . S
H964 C978 0.931 . S
H965 C980 0.930 . S
C966 H954 0.930 . S
C966 C967 1.399 . S
C966 C971 1.399 . S
C967 C966 1.399 . S
C967 C968 1.376 . S
C968 H955 0.930 . S
C968 C967 1.376 . S
C968 C969 1.388 . S
C969 H956 0.930 . S
C969 C968 1.388 . S
C969 C970 1.390 . S
C970 C969 1.390 . S
C970 C971 1.394 . S
C970 C976 1.465 . S
C971 C966 1.399 . S
C971 C970 1.394 . S
C971 C972 1.516 . S
C972 C971 1.516 . S
C972 C973 1.502 . S
C972 C974 1.561 . S
C972 C975 1.526 . S
C973 H957 0.959 . S
C973 H958 0.959 . S
C973 H959 0.961 . S
C973 C972 1.502 . S
C974 H960 0.960 . S
C974 H961 0.961 . S
C974 H962 0.959 . S
C974 C972 1.561 . S
C975 C972 1.526 . S
C975 C976 1.396 . S
C975 C980 1.390 . S
C976 C970 1.465 . S
C976 C975 1.396 . S
C976 C977 1.399 . S
C977 H963 0.929 . S
C977 C976 1.399 . S
C977 C978 1.385 . S
C978 H964 0.931 . S
C978 C977 1.385 . S
C978 C979 1.389 . S
C979 C978 1.389 . S
C979 C980 1.387 . S
C980 H965 0.930 . S
C980 C975 1.390 . S
C980 C979 1.387 . S
H981 C993 0.930 . S
H982 C995 0.930 . S
H983 C996 0.930 . S
H984 C1000 0.959 . S
H985 C1000 0.959 . S
H986 C1000 0.961 . S
H987 C1001 0.960 . S
H988 C1001 0.961 . S
H989 C1001 0.959 . S
H990 C1004 0.929 . S
H991 C1005 0.931 . S
H992 C1007 0.930 . S
C993 H981 0.930 . S
C993 C994 1.399 . S
C993 C998 1.399 . S
C994 C993 1.399 . S
C994 C995 1.376 . S
C995 H982 0.930 . S
C995 C994 1.376 . S
C995 C996 1.388 . S
C996 H983 0.930 . S
C996 C995 1.388 . S
C996 C997 1.390 . S
C997 C996 1.390 . S
C997 C998 1.394 . S
C997 C1003 1.465 . S
C998 C993 1.399 . S
C998 C997 1.394 . S
C998 C999 1.516 . S
C999 C998 1.516 . S
C999 C1000 1.502 . S
C999 C1001 1.561 . S
C999 C1002 1.526 . S
C1000 H984 0.959 . S
C1000 H985 0.959 . S
C1000 H986 0.961 . S
C1000 C999 1.502 . S
C1001 H987 0.960 . S
C1001 H988 0.961 . S
C1001 H989 0.959 . S
C1001 C999 1.561 . S
C1002 C999 1.526 . S
C1002 C1003 1.396 . S
C1002 C1007 1.390 . S
C1003 C997 1.465 . S
C1003 C1002 1.396 . S
C1003 C1004 1.399 . S
C1004 H990 0.929 . S
C1004 C1003 1.399 . S
C1004 C1005 1.385 . S
C1005 H991 0.931 . S
C1005 C1004 1.385 . S
C1005 C1006 1.389 . S
C1006 C1005 1.389 . S
C1006 C1007 1.387 . S
C1007 H992 0.930 . S
C1007 C1002 1.390 . S
C1007 C1006 1.387 . S
H1008 C1020 0.930 . S
H1009 C1022 0.930 . S
H1010 C1023 0.930 . S
H1011 C1027 0.959 . S
H1012 C1027 0.959 . S
H1013 C1027 0.961 . S
H1014 C1028 0.960 . S
H1015 C1028 0.961 . S
H1016 C1028 0.959 . S
H1017 C1031 0.929 . S
H1018 C1032 0.931 . S
H1019 C1034 0.930 . S
C1020 H1008 0.930 . S
C1020 C1021 1.399 . S
C1020 C1025 1.399 . S
C1021 C1020 1.399 . S
C1021 C1022 1.376 . S
C1022 H1009 0.930 . S
C1022 C1021 1.376 . S
C1022 C1023 1.388 . S
C1023 H1010 0.930 . S
C1023 C1022 1.388 . S
C1023 C1024 1.390 . S
C1024 C1023 1.390 . S
C1024 C1025 1.394 . S
C1024 C1030 1.465 . S
C1025 C1020 1.399 . S
C1025 C1024 1.394 . S
C1025 C1026 1.516 . S
C1026 C1025 1.516 . S
C1026 C1027 1.502 . S
C1026 C1028 1.561 . S
C1026 C1029 1.526 . S
C1027 H1011 0.959 . S
C1027 H1012 0.959 . S
C1027 H1013 0.961 . S
C1027 C1026 1.502 . S
C1028 H1014 0.960 . S
C1028 H1015 0.961 . S
C1028 H1016 0.959 . S
C1028 C1026 1.561 . S
C1029 C1026 1.526 . S
C1029 C1030 1.396 . S
C1029 C1034 1.390 . S
C1030 C1024 1.465 . S
C1030 C1029 1.396 . S
C1030 C1031 1.399 . S
C1031 H1017 0.929 . S
C1031 C1030 1.399 . S
C1031 C1032 1.385 . S
C1032 H1018 0.931 . S
C1032 C1031 1.385 . S
C1032 C1033 1.389 . S
C1033 C1032 1.389 . S
C1033 C1034 1.387 . S
C1034 H1019 0.930 . S
C1034 C1029 1.390 . S
C1034 C1033 1.387 . S
H1035 C1047 0.930 . S
H1036 C1049 0.930 . S
H1037 C1050 0.930 . S
H1038 C1054 0.959 . S
H1039 C1054 0.959 . S
H1040 C1054 0.961 . S
H1041 C1055 0.960 . S
H1042 C1055 0.961 . S
H1043 C1055 0.959 . S
H1044 C1058 0.929 . S
H1045 C1059 0.931 . S
H1046 C1061 0.930 . S
C1047 H1035 0.930 . S
C1047 C1048 1.399 . S
C1047 C1052 1.399 . S
C1048 C1047 1.399 . S
C1048 C1049 1.376 . S
C1049 H1036 0.930 . S
C1049 C1048 1.376 . S
C1049 C1050 1.388 . S
C1050 H1037 0.930 . S
C1050 C1049 1.388 . S
C1050 C1051 1.390 . S
C1051 C1050 1.390 . S
C1051 C1052 1.394 . S
C1051 C1057 1.465 . S
C1052 C1047 1.399 . S
C1052 C1051 1.394 . S
C1052 C1053 1.516 . S
C1053 C1052 1.516 . S
C1053 C1054 1.502 . S
C1053 C1055 1.561 . S
C1053 C1056 1.526 . S
C1054 H1038 0.959 . S
C1054 H1039 0.959 . S
C1054 H1040 0.961 . S
C1054 C1053 1.502 . S
C1055 H1041 0.960 . S
C1055 H1042 0.961 . S
C1055 H1043 0.959 . S
C1055 C1053 1.561 . S
C1056 C1053 1.526 . S
C1056 C1057 1.396 . S
C1056 C1061 1.390 . S
C1057 C1051 1.465 . S
C1057 C1056 1.396 . S
C1057 C1058 1.399 . S
C1058 H1044 0.929 . S
C1058 C1057 1.399 . S
C1058 C1059 1.385 . S
C1059 H1045 0.931 . S
C1059 C1058 1.385 . S
C1059 C1060 1.389 . S
C1060 C1059 1.389 . S
C1060 C1061 1.387 . S
C1061 H1046 0.930 . S
C1061 C1056 1.390 . S
C1061 C1060 1.387 . S
H1062 C1074 0.930 . S
H1063 C1076 0.930 . S
H1064 C1077 0.930 . S
H1065 C1081 0.959 . S
H1066 C1081 0.959 . S
H1067 C1081 0.961 . S
H1068 C1082 0.960 . S
H1069 C1082 0.961 . S
H1070 C1082 0.959 . S
H1071 C1085 0.929 . S
H1072 C1086 0.931 . S
H1073 C1088 0.930 . S
C1074 H1062 0.930 . S
C1074 C1075 1.399 . S
C1074 C1079 1.399 . S
C1075 C1074 1.399 . S
C1075 C1076 1.376 . S
C1076 H1063 0.930 . S
C1076 C1075 1.376 . S
C1076 C1077 1.388 . S
C1077 H1064 0.930 . S
C1077 C1076 1.388 . S
C1077 C1078 1.390 . S
C1078 C1077 1.390 . S
C1078 C1079 1.394 . S
C1078 C1084 1.465 . S
C1079 C1074 1.399 . S
C1079 C1078 1.394 . S
C1079 C1080 1.516 . S
C1080 C1079 1.516 . S
C1080 C1081 1.502 . S
C1080 C1082 1.561 . S
C1080 C1083 1.526 . S
C1081 H1065 0.959 . S
C1081 H1066 0.959 . S
C1081 H1067 0.961 . S
C1081 C1080 1.502 . S
C1082 H1068 0.960 . S
C1082 H1069 0.961 . S
C1082 H1070 0.959 . S
C1082 C1080 1.561 . S
C1083 C1080 1.526 . S
C1083 C1084 1.396 . S
C1083 C1088 1.390 . S
C1084 C1078 1.465 . S
C1084 C1083 1.396 . S
C1084 C1085 1.399 . S
C1085 H1071 0.929 . S
C1085 C1084 1.399 . S
C1085 C1086 1.385 . S
C1086 H1072 0.931 . S
C1086 C1085 1.385 . S
C1086 C1087 1.389 . S
C1087 C1086 1.389 . S
C1087 C1088 1.387 . S
C1088 H1073 0.930 . S
C1088 C1083 1.390 . S
C1088 C1087 1.387 . S
H1089 C1101 0.930 . S
H1090 C1103 0.930 . S
H1091 C1104 0.930 . S
H1092 C1108 0.959 . S
H1093 C1108 0.959 . S
H1094 C1108 0.961 . S
H1095 C1109 0.960 . S
H1096 C1109 0.961 . S
H1097 C1109 0.959 . S
H1098 C1112 0.929 . S
H1099 C1113 0.931 . S
H1100 C1115 0.930 . S
C1101 H1089 0.930 . S
C1101 C1102 1.399 . S
C1101 C1106 1.399 . S
C1102 C1101 1.399 . S
C1102 C1103 1.376 . S
C1103 H1090 0.930 . S
C1103 C1102 1.376 . S
C1103 C1104 1.388 . S
C1104 H1091 0.930 . S
C1104 C1103 1.388 . S
C1104 C1105 1.390 . S
C1105 C1104 1.390 . S
C1105 C1106 1.394 . S
C1105 C1111 1.465 . S
C1106 C1101 1.399 . S
C1106 C1105 1.394 . S
C1106 C1107 1.516 . S
C1107 C1106 1.516 . S
C1107 C1108 1.502 . S
C1107 C1109 1.561 . S
C1107 C1110 1.526 . S
C1108 H1092 0.959 . S
C1108 H1093 0.959 . S
C1108 H1094 0.961 . S
C1108 C1107 1.502 . S
C1109 H1095 0.960 . S
C1109 H1096 0.961 . S
C1109 H1097 0.959 . S
C1109 C1107 1.561 . S
C1110 C1107 1.526 . S
C1110 C1111 1.396 . S
C1110 C1115 1.390 . S
C1111 C1105 1.465 . S
C1111 C1110 1.396 . S
C1111 C1112 1.399 . S
C1112 H1098 0.929 . S
C1112 C1111 1.399 . S
C1112 C1113 1.385 . S
C1113 H1099 0.931 . S
C1113 C1112 1.385 . S
C1113 C1114 1.389 . S
C1114 C1113 1.389 . S
C1114 C1115 1.387 . S
C1115 H1100 0.930 . S
C1115 C1110 1.390 . S
C1115 C1114 1.387 . S
H1116 C1128 0.930 . S
H1117 C1130 0.930 . S
H1118 C1131 0.930 . S
H1119 C1135 0.959 . S
H1120 C1135 0.959 . S
H1121 C1135 0.961 . S
H1122 C1136 0.960 . S
H1123 C1136 0.961 . S
H1124 C1136 0.959 . S
H1125 C1139 0.929 . S
H1126 C1140 0.931 . S
H1127 C1142 0.930 . S
C1128 H1116 0.930 . S
C1128 C1129 1.399 . S
C1128 C1133 1.399 . S
C1129 C1128 1.399 . S
C1129 C1130 1.376 . S
C1130 H1117 0.930 . S
C1130 C1129 1.376 . S
C1130 C1131 1.388 . S
C1131 H1118 0.930 . S
C1131 C1130 1.388 . S
C1131 C1132 1.390 . S
C1132 C1131 1.390 . S
C1132 C1133 1.394 . S
C1132 C1138 1.465 . S
C1133 C1128 1.399 . S
C1133 C1132 1.394 . S
C1133 C1134 1.516 . S
C1134 C1133 1.516 . S
C1134 C1135 1.502 . S
C1134 C1136 1.561 . S
C1134 C1137 1.526 . S
C1135 H1119 0.959 . S
C1135 H1120 0.959 . S
C1135 H1121 0.961 . S
C1135 C1134 1.502 . S
C1136 H1122 0.960 . S
C1136 H1123 0.961 . S
C1136 H1124 0.959 . S
C1136 C1134 1.561 . S
C1137 C1134 1.526 . S
C1137 C1138 1.396 . S
C1137 C1142 1.390 . S
C1138 C1132 1.465 . S
C1138 C1137 1.396 . S
C1138 C1139 1.399 . S
C1139 H1125 0.929 . S
C1139 C1138 1.399 . S
C1139 C1140 1.385 . S
C1140 H1126 0.931 . S
C1140 C1139 1.385 . S
C1140 C1141 1.389 . S
C1141 C1140 1.389 . S
C1141 C1142 1.387 . S
C1142 H1127 0.930 . S
C1142 C1137 1.390 . S
C1142 C1141 1.387 . S
H1143 C1155 0.930 . S
H1144 C1157 0.930 . S
H1145 C1158 0.930 . S
H1146 C1162 0.959 . S
H1147 C1162 0.959 . S
H1148 C1162 0.961 . S
H1149 C1163 0.960 . S
H1150 C1163 0.961 . S
H1151 C1163 0.959 . S
H1152 C1166 0.929 . S
H1153 C1167 0.931 . S
H1154 C1169 0.930 . S
C1155 H1143 0.930 . S
C1155 C1156 1.399 . S
C1155 C1160 1.399 . S
C1156 C1155 1.399 . S
C1156 C1157 1.376 . S
C1157 H1144 0.930 . S
C1157 C1156 1.376 . S
C1157 C1158 1.388 . S
C1158 H1145 0.930 . S
C1158 C1157 1.388 . S
C1158 C1159 1.390 . S
C1159 C1158 1.390 . S
C1159 C1160 1.394 . S
C1159 C1165 1.465 . S
C1160 C1155 1.399 . S
C1160 C1159 1.394 . S
C1160 C1161 1.516 . S
C1161 C1160 1.516 . S
C1161 C1162 1.502 . S
C1161 C1163 1.561 . S
C1161 C1164 1.526 . S
C1162 H1146 0.959 . S
C1162 H1147 0.959 . S
C1162 H1148 0.961 . S
C1162 C1161 1.502 . S
C1163 H1149 0.960 . S
C1163 H1150 0.961 . S
C1163 H1151 0.959 . S
C1163 C1161 1.561 . S
C1164 C1161 1.526 . S
C1164 C1165 1.396 . S
C1164 C1169 1.390 . S
C1165 C1159 1.465 . S
C1165 C1164 1.396 . S
C1165 C1166 1.399 . S
C1166 H1152 0.929 . S
C1166 C1165 1.399 . S
C1166 C1167 1.385 . S
C1167 H1153 0.931 . S
C1167 C1166 1.385 . S
C1167 C1168 1.389 . S
C1168 C1167 1.389 . S
C1168 C1169 1.387 . S
C1169 H1154 0.930 . S
C1169 C1164 1.390 . S
C1169 C1168 1.387 . S
H1170 C1182 0.930 . S
H1171 C1184 0.930 . S
H1172 C1185 0.930 . S
H1173 C1189 0.959 . S
H1174 C1189 0.959 . S
H1175 C1189 0.961 . S
H1176 C1190 0.960 . S
H1177 C1190 0.961 . S
H1178 C1190 0.959 . S
H1179 C1193 0.929 . S
H1180 C1194 0.931 . S
H1181 C1196 0.930 . S
C1182 H1170 0.930 . S
C1182 C1183 1.399 . S
C1182 C1187 1.399 . S
C1183 C1182 1.399 . S
C1183 C1184 1.376 . S
C1184 H1171 0.930 . S
C1184 C1183 1.376 . S
C1184 C1185 1.388 . S
C1185 H1172 0.930 . S
C1185 C1184 1.388 . S
C1185 C1186 1.390 . S
C1186 C1185 1.390 . S
C1186 C1187 1.394 . S
C1186 C1192 1.465 . S
C1187 C1182 1.399 . S
C1187 C1186 1.394 . S
C1187 C1188 1.516 . S
C1188 C1187 1.516 . S
C1188 C1189 1.502 . S
C1188 C1190 1.561 . S
C1188 C1191 1.526 . S
C1189 H1173 0.959 . S
C1189 H1174 0.959 . S
C1189 H1175 0.961 . S
C1189 C1188 1.502 . S
C1190 H1176 0.960 . S
C1190 H1177 0.961 . S
C1190 H1178 0.959 . S
C1190 C1188 1.561 . S
C1191 C1188 1.526 . S
C1191 C1192 1.396 . S
C1191 C1196 1.390 . S
C1192 C1186 1.465 . S
C1192 C1191 1.396 . S
C1192 C1193 1.399 . S
C1193 H1179 0.929 . S
C1193 C1192 1.399 . S
C1193 C1194 1.385 . S
C1194 H1180 0.931 . S
C1194 C1193 1.385 . S
C1194 C1195 1.389 . S
C1195 C1194 1.389 . S
C1195 C1196 1.387 . S
C1196 H1181 0.930 . S
C1196 C1191 1.390 . S
C1196 C1195 1.387 . S
H1197 C1209 0.930 . S
H1198 C1211 0.930 . S
H1199 C1212 0.930 . S
H1200 C1216 0.959 . S
H1201 C1216 0.959 . S
H1202 C1216 0.961 . S
H1203 C1217 0.960 . S
H1204 C1217 0.961 . S
H1205 C1217 0.959 . S
H1206 C1220 0.929 . S
H1207 C1221 0.931 . S
H1208 C1223 0.930 . S
C1209 H1197 0.930 . S
C1209 C1210 1.399 . S
C1209 C1214 1.399 . S
C1210 C1209 1.399 . S
C1210 C1211 1.376 . S
C1211 H1198 0.930 . S
C1211 C1210 1.376 . S
C1211 C1212 1.388 . S
C1212 H1199 0.930 . S
C1212 C1211 1.388 . S
C1212 C1213 1.390 . S
C1213 C1212 1.390 . S
C1213 C1214 1.394 . S
C1213 C1219 1.465 . S
C1214 C1209 1.399 . S
C1214 C1213 1.394 . S
C1214 C1215 1.516 . S
C1215 C1214 1.516 . S
C1215 C1216 1.502 . S
C1215 C1217 1.561 . S
C1215 C1218 1.526 . S
C1216 H1200 0.959 . S
C1216 H1201 0.959 . S
C1216 H1202 0.961 . S
C1216 C1215 1.502 . S
C1217 H1203 0.960 . S
C1217 H1204 0.961 . S
C1217 H1205 0.959 . S
C1217 C1215 1.561 . S
C1218 C1215 1.526 . S
C1218 C1219 1.396 . S
C1218 C1223 1.390 . S
C1219 C1213 1.465 . S
C1219 C1218 1.396 . S
C1219 C1220 1.399 . S
C1220 H1206 0.929 . S
C1220 C1219 1.399 . S
C1220 C1221 1.385 . S
C1221 H1207 0.931 . S
C1221 C1220 1.385 . S
C1221 C1222 1.389 . S
C1222 C1221 1.389 . S
C1222 C1223 1.387 . S
C1223 H1208 0.930 . S
C1223 C1218 1.390 . S
C1223 C1222 1.387 . S
H1224 C1236 0.930 . S
H1225 C1238 0.930 . S
H1226 C1239 0.930 . S
H1227 C1243 0.959 . S
H1228 C1243 0.959 . S
H1229 C1243 0.961 . S
H1230 C1244 0.960 . S
H1231 C1244 0.961 . S
H1232 C1244 0.959 . S
H1233 C1247 0.929 . S
H1234 C1248 0.931 . S
H1235 C1250 0.930 . S
C1236 H1224 0.930 . S
C1236 C1237 1.399 . S
C1236 C1241 1.399 . S
C1237 C1236 1.399 . S
C1237 C1238 1.376 . S
C1238 H1225 0.930 . S
C1238 C1237 1.376 . S
C1238 C1239 1.388 . S
C1239 H1226 0.930 . S
C1239 C1238 1.388 . S
C1239 C1240 1.390 . S
C1240 C1239 1.390 . S
C1240 C1241 1.394 . S
C1240 C1246 1.465 . S
C1241 C1236 1.399 . S
C1241 C1240 1.394 . S
C1241 C1242 1.516 . S
C1242 C1241 1.516 . S
C1242 C1243 1.502 . S
C1242 C1244 1.561 . S
C1242 C1245 1.526 . S
C1243 H1227 0.959 . S
C1243 H1228 0.959 . S
C1243 H1229 0.961 . S
C1243 C1242 1.502 . S
C1244 H1230 0.960 . S
C1244 H1231 0.961 . S
C1244 H1232 0.959 . S
C1244 C1242 1.561 . S
C1245 C1242 1.526 . S
C1245 C1246 1.396 . S
C1245 C1250 1.390 . S
C1246 C1240 1.465 . S
C1246 C1245 1.396 . S
C1246 C1247 1.399 . S
C1247 H1233 0.929 . S
C1247 C1246 1.399 . S
C1247 C1248 1.385 . S
C1248 H1234 0.931 . S
C1248 C1247 1.385 . S
C1248 C1249 1.389 . S
C1249 C1248 1.389 . S
C1249 C1250 1.387 . S
C1250 H1235 0.930 . S
C1250 C1245 1.390 . S
C1250 C1249 1.387 . S
H1251 C1263 0.930 . S
H1252 C1265 0.930 . S
H1253 C1266 0.930 . S
H1254 C1270 0.959 . S
H1255 C1270 0.959 . S
H1256 C1270 0.961 . S
H1257 C1271 0.960 . S
H1258 C1271 0.961 . S
H1259 C1271 0.959 . S
H1260 C1274 0.929 . S
H1261 C1275 0.931 . S
H1262 C1277 0.930 . S
C1263 H1251 0.930 . S
C1263 C1264 1.399 . S
C1263 C1268 1.399 . S
C1264 C1263 1.399 . S
C1264 C1265 1.376 . S
C1265 H1252 0.930 . S
C1265 C1264 1.376 . S
C1265 C1266 1.388 . S
C1266 H1253 0.930 . S
C1266 C1265 1.388 . S
C1266 C1267 1.390 . S
C1267 C1266 1.390 . S
C1267 C1268 1.394 . S
C1267 C1273 1.465 . S
C1268 C1263 1.399 . S
C1268 C1267 1.394 . S
C1268 C1269 1.516 . S
C1269 C1268 1.516 . S
C1269 C1270 1.502 . S
C1269 C1271 1.561 . S
C1269 C1272 1.526 . S
C1270 H1254 0.959 . S
C1270 H1255 0.959 . S
C1270 H1256 0.961 . S
C1270 C1269 1.502 . S
C1271 H1257 0.960 . S
C1271 H1258 0.961 . S
C1271 H1259 0.959 . S
C1271 C1269 1.561 . S
C1272 C1269 1.526 . S
C1272 C1273 1.396 . S
C1272 C1277 1.390 . S
C1273 C1267 1.465 . S
C1273 C1272 1.396 . S
C1273 C1274 1.399 . S
C1274 H1260 0.929 . S
C1274 C1273 1.399 . S
C1274 C1275 1.385 . S
C1275 H1261 0.931 . S
C1275 C1274 1.385 . S
C1275 C1276 1.389 . S
C1276 C1275 1.389 . S
C1276 C1277 1.387 . S
C1277 H1262 0.930 . S
C1277 C1272 1.390 . S
C1277 C1276 1.387 . S
H1278 C1290 0.930 . S
H1279 C1292 0.930 . S
H1280 C1293 0.930 . S
H1281 C1297 0.959 . S
H1282 C1297 0.959 . S
H1283 C1297 0.961 . S
H1284 C1298 0.960 . S
H1285 C1298 0.961 . S
H1286 C1298 0.959 . S
H1287 C1301 0.929 . S
H1288 C1302 0.931 . S
H1289 C1304 0.930 . S
C1290 H1278 0.930 . S
C1290 C1291 1.399 . S
C1290 C1295 1.399 . S
C1291 C1290 1.399 . S
C1291 C1292 1.376 . S
C1292 H1279 0.930 . S
C1292 C1291 1.376 . S
C1292 C1293 1.388 . S
C1293 H1280 0.930 . S
C1293 C1292 1.388 . S
C1293 C1294 1.390 . S
C1294 C1293 1.390 . S
C1294 C1295 1.394 . S
C1294 C1300 1.465 . S
C1295 C1290 1.399 . S
C1295 C1294 1.394 . S
C1295 C1296 1.516 . S
C1296 C1295 1.516 . S
C1296 C1297 1.502 . S
C1296 C1298 1.561 . S
C1296 C1299 1.526 . S
C1297 H1281 0.959 . S
C1297 H1282 0.959 . S
C1297 H1283 0.961 . S
C1297 C1296 1.502 . S
C1298 H1284 0.960 . S
C1298 H1285 0.961 . S
C1298 H1286 0.959 . S
C1298 C1296 1.561 . S
C1299 C1296 1.526 . S
C1299 C1300 1.396 . S
C1299 C1304 1.390 . S
C1300 C1294 1.465 . S
C1300 C1299 1.396 . S
C1300 C1301 1.399 . S
C1301 H1287 0.929 . S
C1301 C1300 1.399 . S
C1301 C1302 1.385 . S
C1302 H1288 0.931 . S
C1302 C1301 1.385 . S
C1302 C1303 1.389 . S
C1303 C1302 1.389 . S
C1303 C1304 1.387 . S
C1304 H1289 0.930 . S
C1304 C1299 1.390 . S
C1304 C1303 1.387 . S
H1305 C1317 0.930 . S
H1306 C1319 0.930 . S
H1307 C1320 0.930 . S
H1308 C1324 0.959 . S
H1309 C1324 0.959 . S
H1310 C1324 0.961 . S
H1311 C1325 0.960 . S
H1312 C1325 0.961 . S
H1313 C1325 0.959 . S
H1314 C1328 0.929 . S
H1315 C1329 0.931 . S
H1316 C1331 0.930 . S
C1317 H1305 0.930 . S
C1317 C1318 1.399 . S
C1317 C1322 1.399 . S
C1318 C1317 1.399 . S
C1318 C1319 1.376 . S
C1319 H1306 0.930 . S
C1319 C1318 1.376 . S
C1319 C1320 1.388 . S
C1320 H1307 0.930 . S
C1320 C1319 1.388 . S
C1320 C1321 1.390 . S
C1321 C1320 1.390 . S
C1321 C1322 1.394 . S
C1321 C1327 1.465 . S
C1322 C1317 1.399 . S
C1322 C1321 1.394 . S
C1322 C1323 1.516 . S
C1323 C1322 1.516 . S
C1323 C1324 1.502 . S
C1323 C1325 1.561 . S
C1323 C1326 1.526 . S
C1324 H1308 0.959 . S
C1324 H1309 0.959 . S
C1324 H1310 0.961 . S
C1324 C1323 1.502 . S
C1325 H1311 0.960 . S
C1325 H1312 0.961 . S
C1325 H1313 0.959 . S
C1325 C1323 1.561 . S
C1326 C1323 1.526 . S
C1326 C1327 1.396 . S
C1326 C1331 1.390 . S
C1327 C1321 1.465 . S
C1327 C1326 1.396 . S
C1327 C1328 1.399 . S
C1328 H1314 0.929 . S
C1328 C1327 1.399 . S
C1328 C1329 1.385 . S
C1329 H1315 0.931 . S
C1329 C1328 1.385 . S
C1329 C1330 1.389 . S
C1330 C1329 1.389 . S
C1330 C1331 1.387 . S
C1331 H1316 0.930 . S
C1331 C1326 1.390 . S
C1331 C1330 1.387 . S
H1332 C1344 0.930 . S
H1333 C1346 0.930 . S
H1334 C1347 0.930 . S
H1335 C1351 0.959 . S
H1336 C1351 0.959 . S
H1337 C1351 0.961 . S
H1338 C1352 0.960 . S
H1339 C1352 0.961 . S
H1340 C1352 0.959 . S
H1341 C1355 0.929 . S
H1342 C1356 0.931 . S
H1343 C1358 0.930 . S
C1344 H1332 0.930 . S
C1344 C1345 1.399 . S
C1344 C1349 1.399 . S
C1345 C1344 1.399 . S
C1345 C1346 1.376 . S
C1346 H1333 0.930 . S
C1346 C1345 1.376 . S
C1346 C1347 1.388 . S
C1347 H1334 0.930 . S
C1347 C1346 1.388 . S
C1347 C1348 1.390 . S
C1348 C1347 1.390 . S
C1348 C1349 1.394 . S
C1348 C1354 1.465 . S
C1349 C1344 1.399 . S
C1349 C1348 1.394 . S
C1349 C1350 1.516 . S
C1350 C1349 1.516 . S
C1350 C1351 1.502 . S
C1350 C1352 1.561 . S
C1350 C1353 1.526 . S
C1351 H1335 0.959 . S
C1351 H1336 0.959 . S
C1351 H1337 0.961 . S
C1351 C1350 1.502 . S
C1352 H1338 0.960 . S
C1352 H1339 0.961 . S
C1352 H1340 0.959 . S
C1352 C1350 1.561 . S
C1353 C1350 1.526 . S
C1353 C1354 1.396 . S
C1353 C1358 1.390 . S
C1354 C1348 1.465 . S
C1354 C1353 1.396 . S
C1354 C1355 1.399 . S
C1355 H1341 0.929 . S
C1355 C1354 1.399 . S
C1355 C1356 1.385 . S
C1356 H1342 0.931 . S
C1356 C1355 1.385 . S
C1356 C1357 1.389 . S
C1357 C1356 1.389 . S
C1357 C1358 1.387 . S
C1358 H1343 0.930 . S
C1358 C1353 1.390 . S
C1358 C1357 1.387 . S
H1359 C1371 0.930 . S
H1360 C1373 0.930 . S
H1361 C1374 0.930 . S
H1362 C1378 0.959 . S
H1363 C1378 0.959 . S
H1364 C1378 0.961 . S
H1365 C1379 0.960 . S
H1366 C1379 0.961 . S
H1367 C1379 0.959 . S
H1368 C1382 0.929 . S
H1369 C1383 0.931 . S
H1370 C1385 0.930 . S
C1371 H1359 0.930 . S
C1371 C1372 1.399 . S
C1371 C1376 1.399 . S
C1372 C1371 1.399 . S
C1372 C1373 1.376 . S
C1373 H1360 0.930 . S
C1373 C1372 1.376 . S
C1373 C1374 1.388 . S
C1374 H1361 0.930 . S
C1374 C1373 1.388 . S
C1374 C1375 1.390 . S
C1375 C1374 1.390 . S
C1375 C1376 1.394 . S
C1375 C1381 1.465 . S
C1376 C1371 1.399 . S
C1376 C1375 1.394 . S
C1376 C1377 1.516 . S
C1377 C1376 1.516 . S
C1377 C1378 1.502 . S
C1377 C1379 1.561 . S
C1377 C1380 1.526 . S
C1378 H1362 0.959 . S
C1378 H1363 0.959 . S
C1378 H1364 0.961 . S
C1378 C1377 1.502 . S
C1379 H1365 0.960 . S
C1379 H1366 0.961 . S
C1379 H1367 0.959 . S
C1379 C1377 1.561 . S
C1380 C1377 1.526 . S
C1380 C1381 1.396 . S
C1380 C1385 1.390 . S
C1381 C1375 1.465 . S
C1381 C1380 1.396 . S
C1381 C1382 1.399 . S
C1382 H1368 0.929 . S
C1382 C1381 1.399 . S
C1382 C1383 1.385 . S
C1383 H1369 0.931 . S
C1383 C1382 1.385 . S
C1383 C1384 1.389 . S
C1384 C1383 1.389 . S
C1384 C1385 1.387 . S
C1385 H1370 0.930 . S
C1385 C1380 1.390 . S
C1385 C1384 1.387 . S
H1386 C1398 0.930 . S
H1387 C1400 0.930 . S
H1388 C1401 0.930 . S
H1389 C1405 0.959 . S
H1390 C1405 0.959 . S
H1391 C1405 0.961 . S
H1392 C1406 0.960 . S
H1393 C1406 0.961 . S
H1394 C1406 0.959 . S
H1395 C1409 0.929 . S
H1396 C1410 0.931 . S
H1397 C1412 0.930 . S
C1398 H1386 0.930 . S
C1398 C1399 1.399 . S
C1398 C1403 1.399 . S
C1399 C1398 1.399 . S
C1399 C1400 1.376 . S
C1400 H1387 0.930 . S
C1400 C1399 1.376 . S
C1400 C1401 1.388 . S
C1401 H1388 0.930 . S
C1401 C1400 1.388 . S
C1401 C1402 1.390 . S
C1402 C1401 1.390 . S
C1402 C1403 1.394 . S
C1402 C1408 1.465 . S
C1403 C1398 1.399 . S
C1403 C1402 1.394 . S
C1403 C1404 1.516 . S
C1404 C1403 1.516 . S
C1404 C1405 1.502 . S
C1404 C1406 1.561 . S
C1404 C1407 1.526 . S
C1405 H1389 0.959 . S
C1405 H1390 0.959 . S
C1405 H1391 0.961 . S
C1405 C1404 1.502 . S
C1406 H1392 0.960 . S
C1406 H1393 0.961 . S
C1406 H1394 0.959 . S
C1406 C1404 1.561 . S
C1407 C1404 1.526 . S
C1407 C1408 1.396 . S
C1407 C1412 1.390 . S
C1408 C1402 1.465 . S
C1408 C1407 1.396 . S
C1408 C1409 1.399 . S
C1409 H1395 0.929 . S
C1409 C1408 1.399 . S
C1409 C1410 1.385 . S
C1410 H1396 0.931 . S
C1410 C1409 1.385 . S
C1410 C1411 1.389 . S
C1411 C1410 1.389 . S
C1411 C1412 1.387 . S
C1412 H1397 0.930 . S
C1412 C1407 1.390 . S
C1412 C1411 1.387 . S
H1413 C1425 0.930 . S
H1414 C1427 0.930 . S
H1415 C1428 0.930 . S
H1416 C1432 0.959 . S
H1417 C1432 0.959 . S
H1418 C1432 0.961 . S
H1419 C1433 0.960 . S
H1420 C1433 0.961 . S
H1421 C1433 0.959 . S
H1422 C1436 0.929 . S
H1423 C1437 0.931 . S
H1424 C1439 0.930 . S
C1425 H1413 0.930 . S
C1425 C1426 1.399 . S
C1425 C1430 1.399 . S
C1426 C1425 1.399 . S
C1426 C1427 1.376 . S
C1427 H1414 0.930 . S
C1427 C1426 1.376 . S
C1427 C1428 1.388 . S
C1428 H1415 0.930 . S
C1428 C1427 1.388 . S
C1428 C1429 1.390 . S
C1429 C1428 1.390 . S
C1429 C1430 1.394 . S
C1429 C1435 1.465 . S
C1430 C1425 1.399 . S
C1430 C1429 1.394 . S
C1430 C1431 1.516 . S
C1431 C1430 1.516 . S
C1431 C1432 1.502 . S
C1431 C1433 1.561 . S
C1431 C1434 1.526 . S
C1432 H1416 0.959 . S
C1432 H1417 0.959 . S
C1432 H1418 0.961 . S
C1432 C1431 1.502 . S
C1433 H1419 0.960 . S
C1433 H1420 0.961 . S
C1433 H1421 0.959 . S
C1433 C1431 1.561 . S
C1434 C1431 1.526 . S
C1434 C1435 1.396 . S
C1434 C1439 1.390 . S
C1435 C1429 1.465 . S
C1435 C1434 1.396 . S
C1435 C1436 1.399 . S
C1436 H1422 0.929 . S
C1436 C1435 1.399 . S
C1436 C1437 1.385 . S
C1437 H1423 0.931 . S
C1437 C1436 1.385 . S
C1437 C1438 1.389 . S
C1438 C1437 1.389 . S
C1438 C1439 1.387 . S
C1439 H1424 0.930 . S
C1439 C1434 1.390 . S
C1439 C1438 1.387 . S
H1440 C1452 0.930 . S
H1441 C1454 0.930 . S
H1442 C1455 0.930 . S
H1443 C1459 0.959 . S
H1444 C1459 0.959 . S
H1445 C1459 0.961 . S
H1446 C1460 0.960 . S
H1447 C1460 0.961 . S
H1448 C1460 0.959 . S
H1449 C1463 0.929 . S
H1450 C1464 0.931 . S
H1451 C1466 0.930 . S
C1452 H1440 0.930 . S
C1452 C1453 1.399 . S
C1452 C1457 1.399 . S
C1453 C1452 1.399 . S
C1453 C1454 1.376 . S
C1454 H1441 0.930 . S
C1454 C1453 1.376 . S
C1454 C1455 1.388 . S
C1455 H1442 0.930 . S
C1455 C1454 1.388 . S
C1455 C1456 1.390 . S
C1456 C1455 1.390 . S
C1456 C1457 1.394 . S
C1456 C1462 1.465 . S
C1457 C1452 1.399 . S
C1457 C1456 1.394 . S
C1457 C1458 1.516 . S
C1458 C1457 1.516 . S
C1458 C1459 1.502 . S
C1458 C1460 1.561 . S
C1458 C1461 1.526 . S
C1459 H1443 0.959 . S
C1459 H1444 0.959 . S
C1459 H1445 0.961 . S
C1459 C1458 1.502 . S
C1460 H1446 0.960 . S
C1460 H1447 0.961 . S
C1460 H1448 0.959 . S
C1460 C1458 1.561 . S
C1461 C1458 1.526 . S
C1461 C1462 1.396 . S
C1461 C1466 1.390 . S
C1462 C1456 1.465 . S
C1462 C1461 1.396 . S
C1462 C1463 1.399 . S
C1463 H1449 0.929 . S
C1463 C1462 1.399 . S
C1463 C1464 1.385 . S
C1464 H1450 0.931 . S
C1464 C1463 1.385 . S
C1464 C1465 1.389 . S
C1465 C1464 1.389 . S
C1465 C1466 1.387 . S
C1466 H1451 0.930 . S
C1466 C1461 1.390 . S
C1466 C1465 1.387 . S
H1467 C1479 0.930 . S
H1468 C1481 0.930 . S
H1469 C1482 0.930 . S
H1470 C1486 0.959 . S
H1471 C1486 0.959 . S
H1472 C1486 0.961 . S
H1473 C1487 0.960 . S
H1474 C1487 0.961 . S
H1475 C1487 0.959 . S
H1476 C1490 0.929 . S
H1477 C1491 0.931 . S
H1478 C1493 0.930 . S
C1479 H1467 0.930 . S
C1479 C1480 1.399 . S
C1479 C1484 1.399 . S
C1480 C1479 1.399 . S
C1480 C1481 1.376 . S
C1481 H1468 0.930 . S
C1481 C1480 1.376 . S
C1481 C1482 1.388 . S
C1482 H1469 0.930 . S
C1482 C1481 1.388 . S
C1482 C1483 1.390 . S
C1483 C1482 1.390 . S
C1483 C1484 1.394 . S
C1483 C1489 1.465 . S
C1484 C1479 1.399 . S
C1484 C1483 1.394 . S
C1484 C1485 1.516 . S
C1485 C1484 1.516 . S
C1485 C1486 1.502 . S
C1485 C1487 1.561 . S
C1485 C1488 1.526 . S
C1486 H1470 0.959 . S
C1486 H1471 0.959 . S
C1486 H1472 0.961 . S
C1486 C1485 1.502 . S
C1487 H1473 0.960 . S
C1487 H1474 0.961 . S
C1487 H1475 0.959 . S
C1487 C1485 1.561 . S
C1488 C1485 1.526 . S
C1488 C1489 1.396 . S
C1488 C1493 1.390 . S
C1489 C1483 1.465 . S
C1489 C1488 1.396 . S
C1489 C1490 1.399 . S
C1490 H1476 0.929 . S
C1490 C1489 1.399 . S
C1490 C1491 1.385 . S
C1491 H1477 0.931 . S
C1491 C1490 1.385 . S
C1491 C1492 1.389 . S
C1492 C1491 1.389 . S
C1492 C1493 1.387 . S
C1493 H1478 0.930 . S
C1493 C1488 1.390 . S
C1493 C1492 1.387 . S
H1494 C1506 0.930 . S
H1495 C1508 0.930 . S
H1496 C1509 0.930 . S
H1497 C1513 0.959 . S
H1498 C1513 0.959 . S
H1499 C1513 0.961 . S
H1500 C1514 0.960 . S
H1501 C1514 0.961 . S
H1502 C1514 0.959 . S
H1503 C1517 0.929 . S
H1504 C1518 0.931 . S
H1505 C1520 0.930 . S
C1506 H1494 0.930 . S
C1506 C1507 1.399 . S
C1506 C1511 1.399 . S
C1507 C1506 1.399 . S
C1507 C1508 1.376 . S
C1508 H1495 0.930 . S
C1508 C1507 1.376 . S
C1508 C1509 1.388 . S
C1509 H1496 0.930 . S
C1509 C1508 1.388 . S
C1509 C1510 1.390 . S
C1510 C1509 1.390 . S
C1510 C1511 1.394 . S
C1510 C1516 1.465 . S
C1511 C1506 1.399 . S
C1511 C1510 1.394 . S
C1511 C1512 1.516 . S
C1512 C1511 1.516 . S
C1512 C1513 1.502 . S
C1512 C1514 1.561 . S
C1512 C1515 1.526 . S
C1513 H1497 0.959 . S
C1513 H1498 0.959 . S
C1513 H1499 0.961 . S
C1513 C1512 1.502 . S
C1514 H1500 0.960 . S
C1514 H1501 0.961 . S
C1514 H1502 0.959 . S
C1514 C1512 1.561 . S
C1515 C1512 1.526 . S
C1515 C1516 1.396 . S
C1515 C1520 1.390 . S
C1516 C1510 1.465 . S
C1516 C1515 1.396 . S
C1516 C1517 1.399 . S
C1517 H1503 0.929 . S
C1517 C1516 1.399 . S
C1517 C1518 1.385 . S
C1518 H1504 0.931 . S
C1518 C1517 1.385 . S
C1518 C1519 1.389 . S
C1519 C1518 1.389 . S
C1519 C1520 1.387 . S
C1520 H1505 0.930 . S
C1520 C1515 1.390 . S
C1520 C1519 1.387 . S
H1521 C1533 0.930 . S
H1522 C1535 0.930 . S
H1523 C1536 0.930 . S
H1524 C1540 0.959 . S
H1525 C1540 0.959 . S
H1526 C1540 0.961 . S
H1527 C1541 0.960 . S
H1528 C1541 0.961 . S
H1529 C1541 0.959 . S
H1530 C1544 0.929 . S
H1531 C1545 0.931 . S
H1532 C1547 0.930 . S
C1533 H1521 0.930 . S
C1533 C1534 1.399 . S
C1533 C1538 1.399 . S
C1534 C1533 1.399 . S
C1534 C1535 1.376 . S
C1535 H1522 0.930 . S
C1535 C1534 1.376 . S
C1535 C1536 1.388 . S
C1536 H1523 0.930 . S
C1536 C1535 1.388 . S
C1536 C1537 1.390 . S
C1537 C1536 1.390 . S
C1537 C1538 1.394 . S
C1537 C1543 1.465 . S
C1538 C1533 1.399 . S
C1538 C1537 1.394 . S
C1538 C1539 1.516 . S
C1539 C1538 1.516 . S
C1539 C1540 1.502 . S
C1539 C1541 1.561 . S
C1539 C1542 1.526 . S
C1540 H1524 0.959 . S
C1540 H1525 0.959 . S
C1540 H1526 0.961 . S
C1540 C1539 1.502 . S
C1541 H1527 0.960 . S
C1541 H1528 0.961 . S
C1541 H1529 0.959 . S
C1541 C1539 1.561 . S
C1542 C1539 1.526 . S
C1542 C1543 1.396 . S
C1542 C1547 1.390 . S
C1543 C1537 1.465 . S
C1543 C1542 1.396 . S
C1543 C1544 1.399 . S
C1544 H1530 0.929 . S
C1544 C1543 1.399 . S
C1544 C1545 1.385 . S
C1545 H1531 0.931 . S
C1545 C1544 1.385 . S
C1545 C1546 1.389 . S
C1546 C1545 1.389 . S
C1546 C1547 1.387 . S
C1547 H1532 0.930 . S
C1547 C1542 1.390 . S
C1547 C1546 1.387 . S
H1548 C1560 0.930 . S
H1549 C1562 0.930 . S
H1550 C1563 0.930 . S
H1551 C1567 0.959 . S
H1552 C1567 0.959 . S
H1553 C1567 0.961 . S
H1554 C1568 0.960 . S
H1555 C1568 0.961 . S
H1556 C1568 0.959 . S
H1557 C1571 0.929 . S
H1558 C1572 0.931 . S
H1559 C1574 0.930 . S
C1560 H1548 0.930 . S
C1560 C1561 1.399 . S
C1560 C1565 1.399 . S
C1561 C1560 1.399 . S
C1561 C1562 1.376 . S
C1562 H1549 0.930 . S
C1562 C1561 1.376 . S
C1562 C1563 1.388 . S
C1563 H1550 0.930 . S
C1563 C1562 1.388 . S
C1563 C1564 1.390 . S
C1564 C1563 1.390 . S
C1564 C1565 1.394 . S
C1564 C1570 1.465 . S
C1565 C1560 1.399 . S
C1565 C1564 1.394 . S
C1565 C1566 1.516 . S
C1566 C1565 1.516 . S
C1566 C1567 1.502 . S
C1566 C1568 1.561 . S
C1566 C1569 1.526 . S
C1567 H1551 0.959 . S
C1567 H1552 0.959 . S
C1567 H1553 0.961 . S
C1567 C1566 1.502 . S
C1568 H1554 0.960 . S
C1568 H1555 0.961 . S
C1568 H1556 0.959 . S
C1568 C1566 1.561 . S
C1569 C1566 1.526 . S
C1569 C1570 1.396 . S
C1569 C1574 1.390 . S
C1570 C1564 1.465 . S
C1570 C1569 1.396 . S
C1570 C1571 1.399 . S
C1571 H1557 0.929 . S
C1571 C1570 1.399 . S
C1571 C1572 1.385 . S
C1572 H1558 0.931 . S
C1572 C1571 1.385 . S
C1572 C1573 1.389 . S
C1573 C1572 1.389 . S
C1573 C1574 1.387 . S
C1574 H1559 0.930 . S
C1574 C1569 1.390 . S
C1574 C1573 1.387 . S
H1575 C1587 0.930 . S
H1576 C1589 0.930 . S
H1577 C1590 0.930 . S
H1578 C1594 0.959 . S
H1579 C1594 0.959 . S
H1580 C1594 0.961 . S
H1581 C1595 0.960 . S
H1582 C1595 0.961 . S
H1583 C1595 0.959 . S
H1584 C1598 0.929 . S
H1585 C1599 0.931 . S
H1586 C1601 0.930 . S
C1587 H1575 0.930 . S
C1587 C1588 1.399 . S
C1587 C1592 1.399 . S
C1588 C1587 1.399 . S
C1588 C1589 1.376 . S
C1589 H1576 0.930 . S
C1589 C1588 1.376 . S
C1589 C1590 1.388 . S
C1590 H1577 0.930 . S
C1590 C1589 1.388 . S
C1590 C1591 1.390 . S
C1591 C1590 1.390 . S
C1591 C1592 1.394 . S
C1591 C1597 1.465 . S
C1592 C1587 1.399 . S
C1592 C1591 1.394 . S
C1592 C1593 1.516 . S
C1593 C1592 1.516 . S
C1593 C1594 1.502 . S
C1593 C1595 1.561 . S
C1593 C1596 1.526 . S
C1594 H1578 0.959 . S
C1594 H1579 0.959 . S
C1594 H1580 0.961 . S
C1594 C1593 1.502 . S
C1595 H1581 0.960 . S
C1595 H1582 0.961 . S
C1595 H1583 0.959 . S
C1595 C1593 1.561 . S
C1596 C1593 1.526 . S
C1596 C1597 1.396 . S
C1596 C1601 1.390 . S
C1597 C1591 1.465 . S
C1597 C1596 1.396 . S
C1597 C1598 1.399 . S
C1598 H1584 0.929 . S
C1598 C1597 1.399 . S
C1598 C1599 1.385 . S
C1599 H1585 0.931 . S
C1599 C1598 1.385 . S
C1599 C1600 1.389 . S
C1600 C1599 1.389 . S
C1600 C1601 1.387 . S
C1601 H1586 0.930 . S
C1601 C1596 1.390 . S
C1601 C1600 1.387 . S
H1602 C1614 0.930 . S
H1603 C1616 0.930 . S
H1604 C1617 0.930 . S
H1605 C1621 0.959 . S
H1606 C1621 0.959 . S
H1607 C1621 0.961 . S
H1608 C1622 0.960 . S
H1609 C1622 0.961 . S
H1610 C1622 0.959 . S
H1611 C1625 0.929 . S
H1612 C1626 0.931 . S
H1613 C1628 0.930 . S
C1614 H1602 0.930 . S
C1614 C1615 1.399 . S
C1614 C1619 1.399 . S
C1615 C1614 1.399 . S
C1615 C1616 1.376 . S
C1616 H1603 0.930 . S
C1616 C1615 1.376 . S
C1616 C1617 1.388 . S
C1617 H1604 0.930 . S
C1617 C1616 1.388 . S
C1617 C1618 1.390 . S
C1618 C1617 1.390 . S
C1618 C1619 1.394 . S
C1618 C1624 1.465 . S
C1619 C1614 1.399 . S
C1619 C1618 1.394 . S
C1619 C1620 1.516 . S
C1620 C1619 1.516 . S
C1620 C1621 1.502 . S
C1620 C1622 1.561 . S
C1620 C1623 1.526 . S
C1621 H1605 0.959 . S
C1621 H1606 0.959 . S
C1621 H1607 0.961 . S
C1621 C1620 1.502 . S
C1622 H1608 0.960 . S
C1622 H1609 0.961 . S
C1622 H1610 0.959 . S
C1622 C1620 1.561 . S
C1623 C1620 1.526 . S
C1623 C1624 1.396 . S
C1623 C1628 1.390 . S
C1624 C1618 1.465 . S
C1624 C1623 1.396 . S
C1624 C1625 1.399 . S
C1625 H1611 0.929 . S
C1625 C1624 1.399 . S
C1625 C1626 1.385 . S
C1626 H1612 0.931 . S
C1626 C1625 1.385 . S
C1626 C1627 1.389 . S
C1627 C1626 1.389 . S
C1627 C1628 1.387 . S
C1628 H1613 0.930 . S
C1628 C1623 1.390 . S
C1628 C1627 1.387 . S
H1629 C1641 0.930 . S
H1630 C1643 0.930 . S
H1631 C1644 0.930 . S
H1632 C1648 0.959 . S
H1633 C1648 0.959 . S
H1634 C1648 0.961 . S
H1635 C1649 0.960 . S
H1636 C1649 0.961 . S
H1637 C1649 0.959 . S
H1638 C1652 0.929 . S
H1639 C1653 0.931 . S
H1640 C1655 0.930 . S
C1641 H1629 0.930 . S
C1641 C1642 1.399 . S
C1641 C1646 1.399 . S
C1642 C1641 1.399 . S
C1642 C1643 1.376 . S
C1643 H1630 0.930 . S
C1643 C1642 1.376 . S
C1643 C1644 1.388 . S
C1644 H1631 0.930 . S
C1644 C1643 1.388 . S
C1644 C1645 1.390 . S
C1645 C1644 1.390 . S
C1645 C1646 1.394 . S
C1645 C1651 1.465 . S
C1646 C1641 1.399 . S
C1646 C1645 1.394 . S
C1646 C1647 1.516 . S
C1647 C1646 1.516 . S
C1647 C1648 1.502 . S
C1647 C1649 1.561 . S
C1647 C1650 1.526 . S
C1648 H1632 0.959 . S
C1648 H1633 0.959 . S
C1648 H1634 0.961 . S
C1648 C1647 1.502 . S
C1649 H1635 0.960 . S
C1649 H1636 0.961 . S
C1649 H1637 0.959 . S
C1649 C1647 1.561 . S
C1650 C1647 1.526 . S
C1650 C1651 1.396 . S
C1650 C1655 1.390 . S
C1651 C1645 1.465 . S
C1651 C1650 1.396 . S
C1651 C1652 1.399 . S
C1652 H1638 0.929 . S
C1652 C1651 1.399 . S
C1652 C1653 1.385 . S
C1653 H1639 0.931 . S
C1653 C1652 1.385 . S
C1653 C1654 1.389 . S
C1654 C1653 1.389 . S
C1654 C1655 1.387 . S
C1655 H1640 0.930 . S
C1655 C1650 1.390 . S
C1655 C1654 1.387 . S
H1656 C1668 0.930 . S
H1657 C1670 0.930 1_556 S
H1658 C1671 0.930 1_556 S
H1659 C1675 0.959 . S
H1660 C1675 0.959 . S
H1661 C1675 0.961 . S
H1662 C1676 0.960 . S
H1663 C1676 0.961 . S
H1664 C1676 0.959 . S
H1665 C1679 0.929 . S
H1666 C1680 0.931 . S
H1667 C1682 0.930 . S
C1668 H1656 0.930 . S
C1668 C1669 1.399 . S
C1668 C1673 1.399 . S
C1669 C1668 1.399 . S
C1669 C1670 1.376 . S
C1670 H1657 0.930 1_554 S
C1670 C1669 1.376 . S
C1670 C1671 1.388 . S
C1671 H1658 0.930 1_554 S
C1671 C1670 1.388 . S
C1671 C1672 1.390 . S
C1672 C1671 1.390 . S
C1672 C1673 1.394 . S
C1672 C1678 1.465 . S
C1673 C1668 1.399 . S
C1673 C1672 1.394 . S
C1673 C1674 1.516 . S
C1674 C1673 1.516 . S
C1674 C1675 1.502 . S
C1674 C1676 1.561 . S
C1674 C1677 1.526 . S
C1675 H1659 0.959 . S
C1675 H1660 0.959 . S
C1675 H1661 0.961 . S
C1675 C1674 1.502 . S
C1676 H1662 0.960 . S
C1676 H1663 0.961 . S
C1676 H1664 0.959 . S
C1676 C1674 1.561 . S
C1677 C1674 1.526 . S
C1677 C1678 1.396 . S
C1677 C1682 1.390 . S
C1678 C1672 1.465 . S
C1678 C1677 1.396 . S
C1678 C1679 1.399 . S
C1679 H1665 0.929 . S
C1679 C1678 1.399 . S
C1679 C1680 1.385 . S
C1680 H1666 0.931 . S
C1680 C1679 1.385 . S
C1680 C1681 1.389 . S
C1681 C1680 1.389 . S
C1681 C1682 1.387 . S
C1682 H1667 0.930 . S
C1682 C1677 1.390 . S
C1682 C1681 1.387 . S
H1683 C1695 0.930 . S
H1684 C1697 0.930 . S
H1685 C1698 0.930 . S
H1686 C1702 0.959 . S
H1687 C1702 0.959 . S
H1688 C1702 0.961 . S
H1689 C1703 0.960 . S
H1690 C1703 0.961 . S
H1691 C1703 0.959 . S
H1692 C1706 0.931 1_554 S
H1693 C1707 0.931 . S
H1694 C1709 0.930 . S
C1695 H1683 0.930 . S
C1695 C1696 1.399 . S
C1695 C1700 1.399 . S
C1696 C1695 1.399 . S
C1696 C1697 1.376 1_556 S
C1697 H1684 0.930 . S
C1697 C1696 1.376 1_554 S
C1697 C1698 1.388 . S
C1698 H1685 0.930 . S
C1698 C1697 1.388 . S
C1698 C1699 1.390 1_554 S
C1699 C1698 1.390 1_556 S
C1699 C1700 1.394 . S
C1699 C1705 1.465 . S
C1700 C1695 1.399 . S
C1700 C1699 1.394 . S
C1700 C1701 1.516 . S
C1701 C1700 1.516 . S
C1701 C1702 1.502 . S
C1701 C1703 1.561 . S
C1701 C1704 1.526 . S
C1702 H1686 0.959 . S
C1702 H1687 0.959 . S
C1702 H1688 0.961 . S
C1702 C1701 1.502 . S
C1703 H1689 0.960 . S
C1703 H1690 0.961 . S
C1703 H1691 0.959 . S
C1703 C1701 1.561 . S
C1704 C1701 1.526 . S
C1704 C1705 1.396 . S
C1704 C1709 1.390 . S
C1705 C1699 1.465 . S
C1705 C1704 1.396 . S
C1705 C1706 1.399 . S
C1706 H1692 0.931 1_556 S
C1706 C1705 1.399 . S
C1706 C1707 1.385 . S
C1707 H1693 0.931 . S
C1707 C1706 1.385 . S
C1707 C1708 1.389 . S
C1708 C1707 1.389 . S
C1708 C1709 1.387 . S
C1709 H1694 0.930 . S
C1709 C1704 1.390 . S
C1709 C1708 1.387 . S
H1710 C1722 0.930 1_554 S
H1711 C1724 0.930 . S
H1712 C1725 0.930 . S
H1713 C1729 0.959 . S
H1714 C1729 0.959 . S
H1715 C1729 0.961 . S
H1716 C1730 0.960 . S
H1717 C1730 0.961 . S
H1718 C1730 0.959 1_556 S
H1719 C1733 0.929 . S
H1720 C1734 0.931 . S
H1721 C1736 0.930 . S
C1722 H1710 0.930 1_556 S
C1722 C1723 1.399 . S
C1722 C1727 1.399 . S
C1723 C1722 1.399 . S
C1723 C1724 1.376 . S
C1724 H1711 0.930 . S
C1724 C1723 1.376 . S
C1724 C1725 1.388 . S
C1725 H1712 0.930 . S
C1725 C1724 1.388 . S
C1725 C1726 1.390 . S
C1726 C1725 1.390 . S
C1726 C1727 1.394 . S
C1726 C1732 1.465 . S
C1727 C1722 1.399 . S
C1727 C1726 1.394 . S
C1727 C1728 1.516 . S
C1728 C1727 1.516 . S
C1728 C1729 1.502 1_556 S
C1728 C1730 1.561 1_556 S
C1728 C1731 1.526 . S
C1729 H1713 0.959 . S
C1729 H1714 0.959 . S
C1729 H1715 0.961 . S
C1729 C1728 1.502 1_554 S
C1730 H1716 0.960 . S
C1730 H1717 0.961 . S
C1730 H1718 0.959 1_554 S
C1730 C1728 1.561 1_554 S
C1731 C1728 1.526 . S
C1731 C1732 1.396 . S
C1731 C1736 1.390 . S
C1732 C1726 1.465 . S
C1732 C1731 1.396 . S
C1732 C1733 1.399 . S
C1733 H1719 0.929 . S
C1733 C1732 1.399 . S
C1733 C1734 1.385 . S
C1734 H1720 0.931 . S
C1734 C1733 1.385 . S
C1734 C1735 1.389 . S
C1735 C1734 1.389 . S
C1735 C1736 1.387 . S
C1736 H1721 0.930 . S
C1736 C1731 1.390 . S
C1736 C1735 1.387 . S
H1737 C1749 0.930 . S
H1738 C1751 0.930 . S
H1739 C1752 0.930 1_554 S
H1740 C1756 0.959 . S
H1741 C1756 0.959 . S
H1742 C1756 0.961 . S
H1743 C1757 0.960 . S
H1744 C1757 0.961 . S
H1745 C1757 0.959 . S
H1746 C1760 0.929 . S
H1747 C1761 0.931 . S
H1748 C1763 0.930 . S
C1749 H1737 0.930 . S
C1749 C1750 1.399 . S
C1749 C1754 1.399 . S
C1750 C1749 1.399 . S
C1750 C1751 1.376 1_556 S
C1751 H1738 0.930 . S
C1751 C1750 1.376 1_554 S
C1751 C1752 1.388 1_554 S
C1752 H1739 0.930 1_556 S
C1752 C1751 1.388 1_556 S
C1752 C1753 1.390 . S
C1753 C1752 1.390 . S
C1753 C1754 1.394 . S
C1753 C1759 1.465 . S
C1754 C1749 1.399 . S
C1754 C1753 1.394 . S
C1754 C1755 1.516 . S
C1755 C1754 1.516 . S
C1755 C1756 1.502 . S
C1755 C1757 1.561 . S
C1755 C1758 1.526 . S
C1756 H1740 0.959 . S
C1756 H1741 0.959 . S
C1756 H1742 0.961 . S
C1756 C1755 1.502 . S
C1757 H1743 0.960 . S
C1757 H1744 0.961 . S
C1757 H1745 0.959 . S
C1757 C1755 1.561 . S
C1758 C1755 1.526 . S
C1758 C1759 1.396 . S
C1758 C1763 1.390 . S
C1759 C1753 1.465 . S
C1759 C1758 1.396 . S
C1759 C1760 1.399 . S
C1760 H1746 0.929 . S
C1760 C1759 1.399 . S
C1760 C1761 1.385 . S
C1761 H1747 0.931 . S
C1761 C1760 1.385 . S
C1761 C1762 1.389 . S
C1762 C1761 1.389 . S
C1762 C1763 1.387 . S
C1763 H1748 0.930 . S
C1763 C1758 1.390 . S
C1763 C1762 1.387 . S
H1764 C1776 0.930 . S
H1765 C1778 0.930 . S
H1766 C1779 0.930 . S
H1767 C1783 0.959 . S
H1768 C1783 0.959 . S
H1769 C1783 0.961 . S
H1770 C1784 0.960 . S
H1771 C1784 0.961 . S
H1772 C1784 0.959 . S
H1773 C1787 0.929 . S
H1774 C1788 0.931 . S
H1775 C1790 0.930 . S
C1776 H1764 0.930 . S
C1776 C1777 1.399 . S
C1776 C1781 1.399 . S
C1777 C1776 1.399 . S
C1777 C1778 1.376 . S
C1778 H1765 0.930 . S
C1778 C1777 1.376 . S
C1778 C1779 1.388 . S
C1779 H1766 0.930 . S
C1779 C1778 1.388 . S
C1779 C1780 1.390 . S
C1780 C1779 1.390 . S
C1780 C1781 1.394 . S
C1780 C1786 1.465 . S
C1781 C1776 1.399 . S
C1781 C1780 1.394 . S
C1781 C1782 1.516 . S
C1782 C1781 1.516 . S
C1782 C1783 1.502 1_556 S
C1782 C1784 1.561 . S
C1782 C1785 1.526 . S
C1783 H1767 0.959 . S
C1783 H1768 0.959 . S
C1783 H1769 0.961 . S
C1783 C1782 1.502 1_554 S
C1784 H1770 0.960 . S
C1784 H1771 0.961 . S
C1784 H1772 0.959 . S
C1784 C1782 1.561 . S
C1785 C1782 1.526 . S
C1785 C1786 1.396 . S
C1785 C1790 1.390 . S
C1786 C1780 1.465 . S
C1786 C1785 1.396 . S
C1786 C1787 1.399 . S
C1787 H1773 0.929 . S
C1787 C1786 1.399 . S
C1787 C1788 1.385 . S
C1788 H1774 0.931 . S
C1788 C1787 1.385 . S
C1788 C1789 1.389 . S
C1789 C1788 1.389 . S
C1789 C1790 1.387 . S
C1790 H1775 0.930 . S
C1790 C1785 1.390 . S
C1790 C1789 1.387 . S
H1791 C1803 0.930 . S
H1792 C1805 0.930 . S
H1793 C1806 0.930 1_554 S
H1794 C1810 0.959 . S
H1795 C1810 0.959 . S
H1796 C1810 0.961 . S
H1797 C1811 0.960 . S
H1798 C1811 0.961 . S
H1799 C1811 0.959 . S
H1800 C1814 0.929 . S
H1801 C1815 0.931 . S
H1802 C1817 0.930 . S
C1803 H1791 0.930 . S
C1803 C1804 1.399 . S
C1803 C1808 1.399 . S
C1804 C1803 1.399 . S
C1804 C1805 1.376 1_556 S
C1805 H1792 0.930 . S
C1805 C1804 1.376 1_554 S
C1805 C1806 1.388 1_554 S
C1806 H1793 0.930 1_556 S
C1806 C1805 1.388 1_556 S
C1806 C1807 1.390 . S
C1807 C1806 1.390 . S
C1807 C1808 1.394 . S
C1807 C1813 1.465 . S
C1808 C1803 1.399 . S
C1808 C1807 1.394 . S
C1808 C1809 1.516 . S
C1809 C1808 1.516 . S
C1809 C1810 1.502 . S
C1809 C1811 1.561 . S
C1809 C1812 1.526 . S
C1810 H1794 0.959 . S
C1810 H1795 0.959 . S
C1810 H1796 0.961 . S
C1810 C1809 1.502 . S
C1811 H1797 0.960 . S
C1811 H1798 0.961 . S
C1811 H1799 0.959 . S
C1811 C1809 1.561 . S
C1812 C1809 1.526 . S
C1812 C1813 1.396 . S
C1812 C1817 1.390 . S
C1813 C1807 1.465 . S
C1813 C1812 1.396 . S
C1813 C1814 1.399 . S
C1814 H1800 0.929 . S
C1814 C1813 1.399 . S
C1814 C1815 1.385 . S
C1815 H1801 0.931 . S
C1815 C1814 1.385 . S
C1815 C1816 1.389 . S
C1816 C1815 1.389 . S
C1816 C1817 1.387 . S
C1817 H1802 0.930 . S
C1817 C1812 1.390 . S
C1817 C1816 1.387 . S
H1818 C1830 0.930 1_554 S
H1819 C1832 0.930 . S
H1820 C1833 0.930 . S
H1821 C1837 0.959 . S
H1822 C1837 0.959 . S
H1823 C1837 0.961 . S
H1824 C1838 0.960 . S
H1825 C1838 0.961 . S
H1826 C1838 0.959 . S
H1827 C1841 0.929 . S
H1828 C1842 0.931 . S
H1829 C1844 0.930 . S
C1830 H1818 0.930 1_556 S
C1830 C1831 1.399 . S
C1830 C1835 1.399 . S
C1831 C1830 1.399 . S
C1831 C1832 1.376 . S
C1832 H1819 0.930 . S
C1832 C1831 1.376 . S
C1832 C1833 1.388 . S
C1833 H1820 0.930 . S
C1833 C1832 1.388 . S
C1833 C1834 1.390 . S
C1834 C1833 1.390 . S
C1834 C1835 1.394 . S
C1834 C1840 1.465 . S
C1835 C1830 1.399 . S
C1835 C1834 1.394 . S
C1835 C1836 1.516 . S
C1836 C1835 1.516 . S
C1836 C1837 1.502 . S
C1836 C1838 1.561 1_556 S
C1836 C1839 1.526 . S
C1837 H1821 0.959 . S
C1837 H1822 0.959 . S
C1837 H1823 0.961 . S
C1837 C1836 1.502 . S
C1838 H1824 0.960 . S
C1838 H1825 0.961 . S
C1838 H1826 0.959 . S
C1838 C1836 1.561 1_554 S
C1839 C1836 1.526 . S
C1839 C1840 1.396 . S
C1839 C1844 1.390 . S
C1840 C1834 1.465 . S
C1840 C1839 1.396 . S
C1840 C1841 1.399 . S
C1841 H1827 0.929 . S
C1841 C1840 1.399 . S
C1841 C1842 1.385 . S
C1842 H1828 0.931 . S
C1842 C1841 1.385 . S
C1842 C1843 1.389 . S
C1843 C1842 1.389 . S
C1843 C1844 1.387 . S
C1844 H1829 0.930 . S
C1844 C1839 1.390 . S
C1844 C1843 1.387 . S
H1845 C1857 0.930 . S
H1846 C1859 0.930 . S
H1847 C1860 0.930 . S
H1848 C1864 0.959 . S
H1849 C1864 0.959 . S
H1850 C1864 0.961 . S
H1851 C1865 0.960 1_556 S
H1852 C1865 0.961 . S
H1853 C1865 0.959 . S
H1854 C1868 0.929 . S
H1855 C1869 0.931 . S
H1856 C1871 0.930 . S
C1857 H1845 0.930 . S
C1857 C1858 1.399 . S
C1857 C1862 1.399 . S
C1858 C1857 1.399 . S
C1858 C1859 1.376 . S
C1859 H1846 0.930 . S
C1859 C1858 1.376 . S
C1859 C1860 1.388 . S
C1860 H1847 0.930 . S
C1860 C1859 1.388 . S
C1860 C1861 1.390 . S
C1861 C1860 1.390 . S
C1861 C1862 1.394 . S
C1861 C1867 1.465 . S
C1862 C1857 1.399 . S
C1862 C1861 1.394 . S
C1862 C1863 1.516 . S
C1863 C1862 1.516 . S
C1863 C1864 1.502 . S
C1863 C1865 1.561 . S
C1863 C1866 1.526 . S
C1864 H1848 0.959 . S
C1864 H1849 0.959 . S
C1864 H1850 0.961 . S
C1864 C1863 1.502 . S
C1865 H1851 0.960 1_554 S
C1865 H1852 0.961 . S
C1865 H1853 0.959 . S
C1865 C1863 1.561 . S
C1866 C1863 1.526 . S
C1866 C1867 1.396 . S
C1866 C1871 1.390 . S
C1867 C1861 1.465 . S
C1867 C1866 1.396 . S
C1867 C1868 1.399 . S
C1868 H1854 0.929 . S
C1868 C1867 1.399 . S
C1868 C1869 1.385 . S
C1869 H1855 0.931 . S
C1869 C1868 1.385 . S
C1869 C1870 1.389 . S
C1870 C1869 1.389 . S
C1870 C1871 1.387 . S
C1871 H1856 0.930 . S
C1871 C1866 1.390 . S
C1871 C1870 1.387 . S
H1872 C1884 0.930 . S
H1873 C1886 0.930 1_556 S
H1874 C1887 0.930 . S
H1875 C1891 0.959 . S
H1876 C1891 0.959 . S
H1877 C1891 0.961 . S
H1878 C1892 0.960 . S
H1879 C1892 0.961 . S
H1880 C1892 0.959 . S
H1881 C1895 0.929 . S
H1882 C1896 0.931 . S
H1883 C1898 0.930 . S
C1884 H1872 0.930 . S
C1884 C1885 1.399 . S
C1884 C1889 1.399 . S
C1885 C1884 1.399 . S
C1885 C1886 1.376 . S
C1886 H1873 0.930 1_554 S
C1886 C1885 1.376 . S
C1886 C1887 1.388 . S
C1887 H1874 0.930 . S
C1887 C1886 1.388 . S
C1887 C1888 1.390 . S
C1888 C1887 1.390 . S
C1888 C1889 1.394 . S
C1888 C1894 1.465 . S
C1889 C1884 1.399 . S
C1889 C1888 1.394 . S
C1889 C1890 1.516 . S
C1890 C1889 1.516 . S
C1890 C1891 1.502 . S
C1890 C1892 1.561 . S
C1890 C1893 1.526 . S
C1891 H1875 0.959 . S
C1891 H1876 0.959 . S
C1891 H1877 0.961 . S
C1891 C1890 1.502 . S
C1892 H1878 0.960 . S
C1892 H1879 0.961 . S
C1892 H1880 0.959 . S
C1892 C1890 1.561 . S
C1893 C1890 1.526 . S
C1893 C1894 1.396 . S
C1893 C1898 1.390 . S
C1894 C1888 1.465 . S
C1894 C1893 1.396 . S
C1894 C1895 1.399 . S
C1895 H1881 0.929 . S
C1895 C1894 1.399 . S
C1895 C1896 1.385 . S
C1896 H1882 0.931 . S
C1896 C1895 1.385 . S
C1896 C1897 1.389 . S
C1897 C1896 1.389 . S
C1897 C1898 1.387 . S
C1898 H1883 0.930 . S
C1898 C1893 1.390 . S
C1898 C1897 1.387 . S
H1899 C1911 0.930 . S
H1900 C1913 0.930 . S
H1901 C1914 0.930 . S
H1902 C1918 0.959 . S
H1903 C1918 0.959 . S
H1904 C1918 0.961 . S
H1905 C1919 0.960 . S
H1906 C1919 0.961 . S
H1907 C1919 0.959 . S
H1908 C1922 0.929 . S
H1909 C1923 0.931 . S
H1910 C1925 0.930 . S
C1911 H1899 0.930 . S
C1911 C1912 1.399 . S
C1911 C1916 1.399 . S
C1912 C1911 1.399 . S
C1912 C1913 1.376 . S
C1913 H1900 0.930 . S
C1913 C1912 1.376 . S
C1913 C1914 1.388 . S
C1914 H1901 0.930 . S
C1914 C1913 1.388 . S
C1914 C1915 1.390 . S
C1915 C1914 1.390 . S
C1915 C1916 1.394 . S
C1915 C1921 1.465 . S
C1916 C1911 1.399 . S
C1916 C1915 1.394 . S
C1916 C1917 1.516 . S
C1917 C1916 1.516 . S
C1917 C1918 1.502 . S
C1917 C1919 1.561 . S
C1917 C1920 1.526 . S
C1918 H1902 0.959 . S
C1918 H1903 0.959 . S
C1918 H1904 0.961 . S
C1918 C1917 1.502 . S
C1919 H1905 0.960 . S
C1919 H1906 0.961 . S
C1919 H1907 0.959 . S
C1919 C1917 1.561 . S
C1920 C1917 1.526 . S
C1920 C1921 1.396 . S
C1920 C1925 1.390 . S
C1921 C1915 1.465 . S
C1921 C1920 1.396 . S
C1921 C1922 1.399 . S
C1922 H1908 0.929 . S
C1922 C1921 1.399 . S
C1922 C1923 1.385 . S
C1923 H1909 0.931 . S
C1923 C1922 1.385 . S
C1923 C1924 1.389 . S
C1924 C1923 1.389 . S
C1924 C1925 1.387 . S
C1925 H1910 0.930 . S
C1925 C1920 1.390 . S
C1925 C1924 1.387 . S
H1926 C1938 0.930 . S
H1927 C1940 0.930 . S
H1928 C1941 0.930 . S
H1929 C1945 0.959 . S
H1930 C1945 0.959 . S
H1931 C1945 0.961 . S
H1932 C1946 0.960 . S
H1933 C1946 0.961 . S
H1934 C1946 0.959 . S
H1935 C1949 0.929 . S
H1936 C1950 0.931 . S
H1937 C1952 0.930 . S
C1938 H1926 0.930 . S
C1938 C1939 1.399 . S
C1938 C1943 1.399 . S
C1939 C1938 1.399 . S
C1939 C1940 1.376 . S
C1940 H1927 0.930 . S
C1940 C1939 1.376 . S
C1940 C1941 1.388 . S
C1941 H1928 0.930 . S
C1941 C1940 1.388 . S
C1941 C1942 1.390 . S
C1942 C1941 1.390 . S
C1942 C1943 1.394 . S
C1942 C1948 1.465 . S
C1943 C1938 1.399 . S
C1943 C1942 1.394 . S
C1943 C1944 1.516 . S
C1944 C1943 1.516 . S
C1944 C1945 1.502 . S
C1944 C1946 1.561 . S
C1944 C1947 1.526 . S
C1945 H1929 0.959 . S
C1945 H1930 0.959 . S
C1945 H1931 0.961 . S
C1945 C1944 1.502 . S
C1946 H1932 0.960 . S
C1946 H1933 0.961 . S
C1946 H1934 0.959 . S
C1946 C1944 1.561 . S
C1947 C1944 1.526 . S
C1947 C1948 1.396 . S
C1947 C1952 1.390 . S
C1948 C1942 1.465 . S
C1948 C1947 1.396 . S
C1948 C1949 1.399 . S
C1949 H1935 0.929 . S
C1949 C1948 1.399 . S
C1949 C1950 1.385 . S
C1950 H1936 0.931 . S
C1950 C1949 1.385 . S
C1950 C1951 1.389 . S
C1951 C1950 1.389 . S
C1951 C1952 1.387 . S
C1952 H1937 0.930 . S
C1952 C1947 1.390 . S
C1952 C1951 1.387 . S
H1953 C1965 0.930 . S
H1954 C1967 0.930 . S
H1955 C1968 0.930 . S
H1956 C1972 0.959 . S
H1957 C1972 0.959 . S
H1958 C1972 0.961 . S
H1959 C1973 0.960 . S
H1960 C1973 0.961 . S
H1961 C1973 0.959 . S
H1962 C1976 0.929 . S
H1963 C1977 0.931 . S
H1964 C1979 0.930 . S
C1965 H1953 0.930 . S
C1965 C1966 1.399 . S
C1965 C1970 1.399 . S
C1966 C1965 1.399 . S
C1966 C1967 1.376 . S
C1967 H1954 0.930 . S
C1967 C1966 1.376 . S
C1967 C1968 1.388 . S
C1968 H1955 0.930 . S
C1968 C1967 1.388 . S
C1968 C1969 1.390 . S
C1969 C1968 1.390 . S
C1969 C1970 1.394 . S
C1969 C1975 1.465 . S
C1970 C1965 1.399 . S
C1970 C1969 1.394 . S
C1970 C1971 1.516 . S
C1971 C1970 1.516 . S
C1971 C1972 1.502 . S
C1971 C1973 1.561 . S
C1971 C1974 1.526 . S
C1972 H1956 0.959 . S
C1972 H1957 0.959 . S
C1972 H1958 0.961 . S
C1972 C1971 1.502 . S
C1973 H1959 0.960 . S
C1973 H1960 0.961 . S
C1973 H1961 0.959 . S
C1973 C1971 1.561 . S
C1974 C1971 1.526 . S
C1974 C1975 1.396 . S
C1974 C1979 1.390 . S
C1975 C1969 1.465 . S
C1975 C1974 1.396 . S
C1975 C1976 1.399 . S
C1976 H1962 0.929 . S
C1976 C1975 1.399 . S
C1976 C1977 1.385 . S
C1977 H1963 0.931 . S
C1977 C1976 1.385 . S
C1977 C1978 1.389 . S
C1978 C1977 1.389 . S
C1978 C1979 1.387 . S
C1979 H1964 0.930 . S
C1979 C1974 1.390 . S
C1979 C1978 1.387 . S
H1980 C1992 0.930 . S
H1981 C1994 0.930 . S
H1982 C1995 0.930 . S
H1983 C1999 0.959 . S
H1984 C1999 0.959 . S
H1985 C1999 0.961 . S
H1986 C2000 0.960 . S
H1987 C2000 0.961 . S
H1988 C2000 0.959 . S
H1989 C2003 0.929 . S
H1990 C2004 0.931 . S
H1991 C2006 0.930 . S
C1992 H1980 0.930 . S
C1992 C1993 1.399 . S
C1992 C1997 1.399 . S
C1993 C1992 1.399 . S
C1993 C1994 1.376 . S
C1994 H1981 0.930 . S
C1994 C1993 1.376 . S
C1994 C1995 1.388 . S
C1995 H1982 0.930 . S
C1995 C1994 1.388 . S
C1995 C1996 1.390 . S
C1996 C1995 1.390 . S
C1996 C1997 1.394 . S
C1996 C2002 1.465 . S
C1997 C1992 1.399 . S
C1997 C1996 1.394 . S
C1997 C1998 1.516 . S
C1998 C1997 1.516 . S
C1998 C1999 1.502 . S
C1998 C2000 1.561 . S
C1998 C2001 1.526 . S
C1999 H1983 0.959 . S
C1999 H1984 0.959 . S
C1999 H1985 0.961 . S
C1999 C1998 1.502 . S
C2000 H1986 0.960 . S
C2000 H1987 0.961 . S
C2000 H1988 0.959 . S
C2000 C1998 1.561 . S
C2001 C1998 1.526 . S
C2001 C2002 1.396 . S
C2001 C2006 1.390 . S
C2002 C1996 1.465 . S
C2002 C2001 1.396 . S
C2002 C2003 1.399 . S
C2003 H1989 0.929 . S
C2003 C2002 1.399 . S
C2003 C2004 1.385 . S
C2004 H1990 0.931 . S
C2004 C2003 1.385 . S
C2004 C2005 1.389 . S
C2005 C2004 1.389 . S
C2005 C2006 1.387 . S
C2006 H1991 0.930 . S
C2006 C2001 1.390 . S
C2006 C2005 1.387 . S
H2007 C2019 0.930 . S
H2008 C2021 0.930 . S
H2009 C2022 0.930 . S
H2010 C2026 0.955 1_655 S
H2011 C2026 0.984 . S
H2012 C2026 0.964 . S
H2013 C2027 0.960 . S
H2014 C2027 0.961 . S
H2015 C2027 0.959 . S
H2016 C2030 0.929 . S
H2017 C2031 0.931 . S
H2018 C2033 0.930 . S
C2019 H2007 0.930 . S
C2019 C2020 1.399 . S
C2019 C2024 1.399 . S
C2020 C2019 1.399 . S
C2020 C2021 1.376 . S
C2021 H2008 0.930 . S
C2021 C2020 1.376 . S
C2021 C2022 1.388 . S
C2022 H2009 0.930 . S
C2022 C2021 1.388 . S
C2022 C2023 1.390 . S
C2023 C2022 1.390 . S
C2023 C2024 1.394 . S
C2023 C2029 1.465 . S
C2024 C2019 1.399 . S
C2024 C2023 1.394 . S
C2024 C2025 1.516 . S
C2025 C2024 1.516 . S
C2025 C2026 1.507 . S
C2025 C2027 1.561 . S
C2025 C2028 1.526 . S
C2026 H2010 0.955 1_455 S
C2026 H2011 0.984 . S
C2026 H2012 0.964 . S
C2026 C2025 1.507 . S
C2027 H2013 0.960 . S
C2027 H2014 0.961 . S
C2027 H2015 0.959 . S
C2027 C2025 1.561 . S
C2028 C2025 1.526 . S
C2028 C2029 1.396 . S
C2028 C2033 1.390 . S
C2029 C2023 1.465 . S
C2029 C2028 1.396 . S
C2029 C2030 1.399 . S
C2030 H2016 0.929 . S
C2030 C2029 1.399 . S
C2030 C2031 1.385 . S
C2031 H2017 0.931 . S
C2031 C2030 1.385 . S
C2031 C2032 1.389 . S
C2032 C2031 1.389 . S
C2032 C2033 1.387 . S
C2033 H2018 0.930 . S
C2033 C2028 1.390 . S
C2033 C2032 1.387 . S
H2034 C2046 0.930 . S
H2035 C2048 0.930 . S
H2036 C2049 0.930 . S
H2037 C2053 0.959 . S
H2038 C2053 0.959 . S
H2039 C2053 0.961 . S
H2040 C2054 0.960 . S
H2041 C2054 0.961 . S
H2042 C2054 0.959 . S
H2043 C2057 0.929 . S
H2044 C2058 0.931 . S
H2045 C2060 0.930 . S
C2046 H2034 0.930 . S
C2046 C2047 1.399 . S
C2046 C2051 1.399 . S
C2047 C2046 1.399 . S
C2047 C2048 1.376 . S
C2048 H2035 0.930 . S
C2048 C2047 1.376 . S
C2048 C2049 1.388 . S
C2049 H2036 0.930 . S
C2049 C2048 1.388 . S
C2049 C2050 1.390 . S
C2050 C2049 1.390 . S
C2050 C2051 1.394 . S
C2050 C2056 1.465 . S
C2051 C2046 1.399 . S
C2051 C2050 1.394 . S
C2051 C2052 1.516 . S
C2052 C2051 1.516 . S
C2052 C2053 1.502 . S
C2052 C2054 1.561 . S
C2052 C2055 1.526 . S
C2053 H2037 0.959 . S
C2053 H2038 0.959 . S
C2053 H2039 0.961 . S
C2053 C2052 1.502 . S
C2054 H2040 0.960 . S
C2054 H2041 0.961 . S
C2054 H2042 0.959 . S
C2054 C2052 1.561 . S
C2055 C2052 1.526 . S
C2055 C2056 1.396 . S
C2055 C2060 1.390 . S
C2056 C2050 1.465 . S
C2056 C2055 1.396 . S
C2056 C2057 1.399 . S
C2057 H2043 0.929 . S
C2057 C2056 1.399 . S
C2057 C2058 1.385 . S
C2058 H2044 0.931 . S
C2058 C2057 1.385 . S
C2058 C2059 1.389 . S
C2059 C2058 1.389 . S
C2059 C2060 1.387 . S
C2060 H2045 0.930 . S
C2060 C2055 1.390 . S
C2060 C2059 1.387 . S
H2061 C2073 0.923 . S
H2062 C2075 0.930 . S
H2063 C2076 0.930 . S
H2064 C2080 0.959 . S
H2065 C2080 0.959 . S
H2066 C2080 0.961 . S
H2067 C2081 0.960 . S
H2068 C2081 0.961 . S
H2069 C2081 0.959 . S
H2070 C2084 0.929 . S
H2071 C2085 0.931 . S
H2072 C2087 0.930 . S
C2073 H2061 0.923 . S
C2073 C2074 1.402 1_545 S
C2073 C2078 1.403 1_545 S
C2074 C2073 1.402 1_565 S
C2074 C2075 1.376 . S
C2075 H2062 0.930 . S
C2075 C2074 1.376 . S
C2075 C2076 1.388 . S
C2076 H2063 0.930 . S
C2076 C2075 1.388 . S
C2076 C2077 1.390 . S
C2077 C2076 1.390 . S
C2077 C2078 1.394 . S
C2077 C2083 1.465 . S
C2078 C2073 1.403 1_565 S
C2078 C2077 1.394 . S
C2078 C2079 1.516 1_565 S
C2079 C2078 1.516 1_545 S
C2079 C2080 1.502 . S
C2079 C2081 1.561 . S
C2079 C2082 1.566 . S
C2080 H2064 0.959 . S
C2080 H2065 0.959 . S
C2080 H2066 0.961 . S
C2080 C2079 1.502 . S
C2081 H2067 0.960 . S
C2081 H2068 0.961 . S
C2081 H2069 0.959 . S
C2081 C2079 1.561 . S
C2082 C2079 1.566 . S
C2082 C2083 1.363 1_545 S
C2082 C2087 1.382 . S
C2083 C2077 1.465 . S
C2083 C2082 1.363 1_565 S
C2083 C2084 1.399 . S
C2084 H2070 0.929 . S
C2084 C2083 1.399 . S
C2084 C2085 1.385 . S
C2085 H2071 0.931 . S
C2085 C2084 1.385 . S
C2085 C2086 1.389 . S
C2086 C2085 1.389 . S
C2086 C2087 1.387 1_565 S
C2087 H2072 0.930 . S
C2087 C2082 1.382 . S
C2087 C2086 1.387 1_545 S
H2088 C2100 0.930 . S
H2089 C2102 0.930 . S
H2090 C2103 0.930 . S
H2091 C2107 0.959 . S
H2092 C2107 0.959 . S
H2093 C2107 0.961 . S
H2094 C2108 0.960 . S
H2095 C2108 0.961 . S
H2096 C2108 0.959 . S
H2097 C2111 0.929 . S
H2098 C2112 0.931 . S
H2099 C2114 0.930 . S
C2100 H2088 0.930 . S
C2100 C2101 1.399 . S
C2100 C2105 1.399 . S
C2101 C2100 1.399 . S
C2101 C2102 1.376 1_565 S
C2102 H2089 0.930 . S
C2102 C2101 1.376 1_545 S
C2102 C2103 1.388 . S
C2103 H2090 0.930 . S
C2103 C2102 1.388 . S
C2103 C2104 1.379 1_545 S
C2104 C2103 1.379 1_565 S
C2104 C2105 1.449 . S
C2104 C2110 1.431 1_565 S
C2105 C2100 1.399 . S
C2105 C2104 1.449 . S
C2105 C2106 1.516 . S
C2106 C2105 1.516 . S
C2106 C2107 1.502 . S
C2106 C2108 1.561 . S
C2106 C2109 1.526 . S
C2107 H2091 0.959 . S
C2107 H2092 0.959 . S
C2107 H2093 0.961 . S
C2107 C2106 1.502 . S
C2108 H2094 0.960 . S
C2108 H2095 0.961 . S
C2108 H2096 0.959 . S
C2108 C2106 1.561 . S
C2109 C2106 1.526 . S
C2109 C2110 1.396 1_565 S
C2109 C2114 1.390 . S
C2110 C2104 1.431 1_545 S
C2110 C2109 1.396 1_545 S
C2110 C2111 1.399 . S
C2111 H2097 0.929 . S
C2111 C2110 1.399 . S
C2111 C2112 1.385 . S
C2112 H2098 0.931 . S
C2112 C2111 1.385 . S
C2112 C2113 1.387 . S
C2113 C2112 1.387 . S
C2113 C2114 1.391 1_545 S
C2114 H2099 0.930 . S
C2114 C2109 1.390 . S
C2114 C2113 1.391 1_565 S
H2115 C2127 0.930 . S
H2116 C2129 0.930 . S
H2117 C2130 0.920 1_655 S
H2118 C2134 0.959 . S
H2119 C2134 0.959 . S
H2120 C2134 0.961 . S
H2121 C2135 0.960 . S
H2122 C2135 0.961 . S
H2123 C2135 0.959 1_655 S
H2124 C2138 0.929 . S
H2125 C2139 0.931 . S
H2126 C2141 0.930 . S
C2127 H2115 0.930 . S
C2127 C2128 1.399 . S
C2127 C2132 1.399 . S
C2128 C2127 1.399 . S
C2128 C2129 1.376 . S
C2129 H2116 0.930 . S
C2129 C2128 1.376 . S
C2129 C2130 1.385 . S
C2130 H2117 0.920 1_455 S
C2130 C2129 1.385 . S
C2130 C2131 1.404 . S
C2131 C2130 1.404 . S
C2131 C2132 1.394 . S
C2131 C2137 1.465 . S
C2132 C2127 1.399 . S
C2132 C2131 1.394 . S
C2132 C2133 1.516 . S
C2133 C2132 1.516 . S
C2133 C2134 1.502 . S
C2133 C2135 1.561 . S
C2133 C2136 1.526 . S
C2134 H2118 0.959 . S
C2134 H2119 0.959 . S
C2134 H2120 0.961 . S
C2134 C2133 1.502 . S
C2135 H2121 0.960 . S
C2135 H2122 0.961 . S
C2135 H2123 0.959 1_455 S
C2135 C2133 1.561 . S
C2136 C2133 1.526 . S
C2136 C2137 1.396 . S
C2136 C2141 1.390 . S
C2137 C2131 1.465 . S
C2137 C2136 1.396 . S
C2137 C2138 1.399 1_455 S
C2138 H2124 0.929 . S
C2138 C2137 1.399 1_655 S
C2138 C2139 1.385 . S
C2139 H2125 0.931 . S
C2139 C2138 1.385 . S
C2139 C2140 1.355 1_655 S
C2140 C2139 1.355 1_455 S
C2140 C2141 1.398 . S
C2141 H2126 0.930 . S
C2141 C2136 1.390 . S
C2141 C2140 1.398 . S
H2142 C2154 0.930 . S
H2143 C2156 0.930 . S
H2144 C2157 0.930 . S
H2145 C2161 0.959 . S
H2146 C2161 0.959 . S
H2147 C2161 0.961 . S
H2148 C2162 0.960 . S
H2149 C2162 0.961 . S
H2150 C2162 0.959 . S
H2151 C2165 0.929 . S
H2152 C2166 0.931 . S
H2153 C2168 0.930 . S
C2154 H2142 0.930 . S
C2154 C2155 1.399 . S
C2154 C2159 1.399 . S
C2155 C2154 1.399 . S
C2155 C2156 1.376 . S
C2156 H2143 0.930 . S
C2156 C2155 1.376 . S
C2156 C2157 1.388 . S
C2157 H2144 0.930 . S
C2157 C2156 1.388 . S
C2157 C2158 1.390 . S
C2158 C2157 1.390 . S
C2158 C2159 1.394 . S
C2158 C2164 1.465 . S
C2159 C2154 1.399 . S
C2159 C2158 1.394 . S
C2159 C2160 1.516 . S
C2160 C2159 1.516 . S
C2160 C2161 1.502 . S
C2160 C2162 1.561 . S
C2160 C2163 1.526 . S
C2161 H2145 0.959 . S
C2161 H2146 0.959 . S
C2161 H2147 0.961 . S
C2161 C2160 1.502 . S
C2162 H2148 0.960 . S
C2162 H2149 0.961 . S
C2162 H2150 0.959 . S
C2162 C2160 1.561 . S
C2163 C2160 1.526 . S
C2163 C2164 1.396 . S
C2163 C2168 1.390 . S
C2164 C2158 1.465 . S
C2164 C2163 1.396 . S
C2164 C2165 1.399 . S
C2165 H2151 0.929 . S
C2165 C2164 1.399 . S
C2165 C2166 1.385 . S
C2166 H2152 0.931 . S
C2166 C2165 1.385 . S
C2166 C2167 1.389 . S
C2167 C2166 1.389 . S
C2167 C2168 1.387 . S
C2168 H2153 0.930 . S
C2168 C2163 1.390 . S
C2168 C2167 1.387 . S
H2169 C2181 0.930 . S
H2170 C2183 0.930 . S
H2171 C2184 0.930 . S
H2172 C2188 0.959 . S
H2173 C2188 0.959 . S
H2174 C2188 0.961 . S
H2175 C2189 0.960 . S
H2176 C2189 0.961 . S
H2177 C2189 0.959 . S
H2178 C2192 0.929 . S
H2179 C2193 0.931 . S
H2180 C2195 0.930 . S
C2181 H2169 0.930 . S
C2181 C2182 1.399 . S
C2181 C2186 1.399 . S
C2182 C2181 1.399 . S
C2182 C2183 1.376 . S
C2183 H2170 0.930 . S
C2183 C2182 1.376 . S
C2183 C2184 1.388 . S
C2184 H2171 0.930 . S
C2184 C2183 1.388 . S
C2184 C2185 1.390 . S
C2185 C2184 1.390 . S
C2185 C2186 1.394 . S
C2185 C2191 1.465 . S
C2186 C2181 1.399 . S
C2186 C2185 1.394 . S
C2186 C2187 1.516 . S
C2187 C2186 1.516 . S
C2187 C2188 1.502 . S
C2187 C2189 1.561 . S
C2187 C2190 1.526 . S
C2188 H2172 0.959 . S
C2188 H2173 0.959 . S
C2188 H2174 0.961 . S
C2188 C2187 1.502 . S
C2189 H2175 0.960 . S
C2189 H2176 0.961 . S
C2189 H2177 0.959 . S
C2189 C2187 1.561 . S
C2190 C2187 1.526 . S
C2190 C2191 1.396 . S
C2190 C2195 1.390 . S
C2191 C2185 1.465 . S
C2191 C2190 1.396 . S
C2191 C2192 1.399 . S
C2192 H2178 0.929 . S
C2192 C2191 1.399 . S
C2192 C2193 1.385 . S
C2193 H2179 0.931 . S
C2193 C2192 1.385 . S
C2193 C2194 1.389 . S
C2194 C2193 1.389 . S
C2194 C2195 1.387 . S
C2195 H2180 0.930 . S
C2195 C2190 1.390 . S
C2195 C2194 1.387 . S
H2196 C2208 0.930 . S
H2197 C2210 0.930 . S
H2198 C2211 0.930 . S
H2199 C2215 0.959 . S
H2200 C2215 0.959 . S
H2201 C2215 0.961 . S
H2202 C2216 0.960 . S
H2203 C2216 0.961 . S
H2204 C2216 0.959 . S
H2205 C2219 0.929 . S
H2206 C2220 0.931 . S
H2207 C2222 0.930 . S
C2208 H2196 0.930 . S
C2208 C2209 1.399 . S
C2208 C2213 1.399 . S
C2209 C2208 1.399 . S
C2209 C2210 1.376 . S
C2210 H2197 0.930 . S
C2210 C2209 1.376 . S
C2210 C2211 1.388 . S
C2211 H2198 0.930 . S
C2211 C2210 1.388 . S
C2211 C2212 1.390 . S
C2212 C2211 1.390 . S
C2212 C2213 1.394 . S
C2212 C2218 1.465 . S
C2213 C2208 1.399 . S
C2213 C2212 1.394 . S
C2213 C2214 1.516 . S
C2214 C2213 1.516 . S
C2214 C2215 1.502 . S
C2214 C2216 1.561 . S
C2214 C2217 1.526 . S
C2215 H2199 0.959 . S
C2215 H2200 0.959 . S
C2215 H2201 0.961 . S
C2215 C2214 1.502 . S
C2216 H2202 0.960 . S
C2216 H2203 0.961 . S
C2216 H2204 0.959 . S
C2216 C2214 1.561 . S
C2217 C2214 1.526 . S
C2217 C2218 1.396 . S
C2217 C2222 1.390 . S
C2218 C2212 1.465 . S
C2218 C2217 1.396 . S
C2218 C2219 1.399 . S
C2219 H2205 0.929 . S
C2219 C2218 1.399 . S
C2219 C2220 1.385 . S
C2220 H2206 0.931 . S
C2220 C2219 1.385 . S
C2220 C2221 1.389 . S
C2221 C2220 1.389 . S
C2221 C2222 1.387 . S
C2222 H2207 0.930 . S
C2222 C2217 1.390 . S
C2222 C2221 1.387 . S
H2223 C2235 0.930 . S
H2224 C2237 0.930 . S
H2225 C2238 0.930 . S
H2226 C2242 0.959 . S
H2227 C2242 0.959 . S
H2228 C2242 0.961 . S
H2229 C2243 0.960 . S
H2230 C2243 0.961 . S
H2231 C2243 0.959 . S
H2232 C2246 0.929 . S
H2233 C2247 0.931 . S
H2234 C2249 0.930 . S
C2235 H2223 0.930 . S
C2235 C2236 1.399 . S
C2235 C2240 1.399 . S
C2236 C2235 1.399 . S
C2236 C2237 1.376 . S
C2237 H2224 0.930 . S
C2237 C2236 1.376 . S
C2237 C2238 1.388 . S
C2238 H2225 0.930 . S
C2238 C2237 1.388 . S
C2238 C2239 1.390 . S
C2239 C2238 1.390 . S
C2239 C2240 1.394 . S
C2239 C2245 1.465 . S
C2240 C2235 1.399 . S
C2240 C2239 1.394 . S
C2240 C2241 1.516 . S
C2241 C2240 1.516 . S
C2241 C2242 1.502 . S
C2241 C2243 1.561 . S
C2241 C2244 1.526 . S
C2242 H2226 0.959 . S
C2242 H2227 0.959 . S
C2242 H2228 0.961 . S
C2242 C2241 1.502 . S
C2243 H2229 0.960 . S
C2243 H2230 0.961 . S
C2243 H2231 0.959 . S
C2243 C2241 1.561 . S
C2244 C2241 1.526 . S
C2244 C2245 1.396 . S
C2244 C2249 1.390 . S
C2245 C2239 1.465 . S
C2245 C2244 1.396 . S
C2245 C2246 1.399 . S
C2246 H2232 0.929 . S
C2246 C2245 1.399 . S
C2246 C2247 1.385 . S
C2247 H2233 0.931 . S
C2247 C2246 1.385 . S
C2247 C2248 1.389 . S
C2248 C2247 1.389 . S
C2248 C2249 1.387 . S
C2249 H2234 0.930 . S
C2249 C2244 1.390 . S
C2249 C2248 1.387 . S
H2250 C2262 0.930 . S
H2251 C2264 0.930 . S
H2252 C2265 0.930 . S
H2253 C2269 0.959 . S
H2254 C2269 0.959 . S
H2255 C2269 0.961 . S
H2256 C2270 0.960 . S
H2257 C2270 0.961 . S
H2258 C2270 0.959 . S
H2259 C2273 0.929 . S
H2260 C2274 0.931 . S
H2261 C2276 0.930 1_565 S
C2262 H2250 0.930 . S
C2262 C2263 1.399 . S
C2262 C2267 1.399 . S
C2263 C2262 1.399 . S
C2263 C2264 1.376 . S
C2264 H2251 0.930 . S
C2264 C2263 1.376 . S
C2264 C2265 1.388 . S
C2265 H2252 0.930 . S
C2265 C2264 1.388 . S
C2265 C2266 1.390 . S
C2266 C2265 1.390 . S
C2266 C2267 1.394 . S
C2266 C2272 1.465 . S
C2267 C2262 1.399 . S
C2267 C2266 1.394 . S
C2267 C2268 1.516 . S
C2268 C2267 1.516 . S
C2268 C2269 1.502 1_545 S
C2268 C2270 1.561 . S
C2268 C2271 1.526 . S
C2269 H2253 0.959 . S
C2269 H2254 0.959 . S
C2269 H2255 0.961 . S
C2269 C2268 1.502 1_565 S
C2270 H2256 0.960 . S
C2270 H2257 0.961 . S
C2270 H2258 0.959 . S
C2270 C2268 1.561 . S
C2271 C2268 1.526 . S
C2271 C2272 1.396 . S
C2271 C2276 1.390 . S
C2272 C2266 1.465 . S
C2272 C2271 1.396 . S
C2272 C2273 1.399 . S
C2273 H2259 0.929 . S
C2273 C2272 1.399 . S
C2273 C2274 1.385 . S
C2274 H2260 0.931 . S
C2274 C2273 1.385 . S
C2274 C2275 1.389 . S
C2275 C2274 1.389 . S
C2275 C2276 1.387 . S
C2276 H2261 0.930 1_545 S
C2276 C2271 1.390 . S
C2276 C2275 1.387 . S
H2277 C2289 0.930 1_455 S
H2278 C2291 0.930 . S
H2279 C2292 0.930 . S
H2280 C2296 0.959 . S
H2281 C2296 0.959 . S
H2282 C2296 0.961 . S
H2283 C2297 0.960 . S
H2284 C2297 0.961 . S
H2285 C2297 0.959 . S
H2286 C2300 0.929 . S
H2287 C2301 0.931 . S
H2288 C2303 0.930 . S
C2289 H2277 0.930 1_655 S
C2289 C2290 1.399 . S
C2289 C2294 1.399 . S
C2290 C2289 1.399 . S
C2290 C2291 1.376 . S
C2291 H2278 0.930 . S
C2291 C2290 1.376 . S
C2291 C2292 1.388 . S
C2292 H2279 0.930 . S
C2292 C2291 1.388 . S
C2292 C2293 1.390 . S
C2293 C2292 1.390 . S
C2293 C2294 1.394 . S
C2293 C2299 1.465 . S
C2294 C2289 1.399 . S
C2294 C2293 1.394 . S
C2294 C2295 1.516 1_655 S
C2295 C2294 1.516 1_455 S
C2295 C2296 1.502 . S
C2295 C2297 1.561 . S
C2295 C2298 1.552 . S
C2296 H2280 0.959 . S
C2296 H2281 0.959 . S
C2296 H2282 0.961 . S
C2296 C2295 1.502 . S
C2297 H2283 0.960 . S
C2297 H2284 0.961 . S
C2297 H2285 0.959 . S
C2297 C2295 1.561 . S
C2298 C2295 1.552 . S
C2298 C2299 1.374 1_455 S
C2298 C2303 1.384 . S
C2299 C2293 1.465 . S
C2299 C2298 1.374 1_655 S
C2299 C2300 1.399 . S
C2300 H2286 0.929 . S
C2300 C2299 1.399 . S
C2300 C2301 1.385 . S
C2301 H2287 0.931 . S
C2301 C2300 1.385 . S
C2301 C2302 1.389 . S
C2302 C2301 1.389 . S
C2302 C2303 1.387 1_655 S
C2303 H2288 0.930 . S
C2303 C2298 1.384 . S
C2303 C2302 1.387 1_455 S
H2304 C2316 0.930 . S
H2305 C2318 0.930 . S
H2306 C2319 0.930 . S
H2307 C2323 0.959 . S
H2308 C2323 0.959 . S
H2309 C2323 0.961 . S
H2310 C2324 0.960 . S
H2311 C2324 0.961 . S
H2312 C2324 0.959 . S
H2313 C2327 0.929 . S
H2314 C2328 0.931 . S
H2315 C2330 0.930 . S
C2316 H2304 0.930 . S
C2316 C2317 1.399 . S
C2316 C2321 1.399 . S
C2317 C2316 1.399 . S
C2317 C2318 1.376 . S
C2318 H2305 0.930 . S
C2318 C2317 1.376 . S
C2318 C2319 1.388 . S
C2319 H2306 0.930 . S
C2319 C2318 1.388 . S
C2319 C2320 1.390 . S
C2320 C2319 1.390 . S
C2320 C2321 1.394 . S
C2320 C2326 1.465 . S
C2321 C2316 1.399 . S
C2321 C2320 1.394 . S
C2321 C2322 1.516 . S
C2322 C2321 1.516 . S
C2322 C2323 1.502 . S
C2322 C2324 1.561 . S
C2322 C2325 1.526 . S
C2323 H2307 0.959 . S
C2323 H2308 0.959 . S
C2323 H2309 0.961 . S
C2323 C2322 1.502 . S
C2324 H2310 0.960 . S
C2324 H2311 0.961 . S
C2324 H2312 0.959 . S
C2324 C2322 1.561 . S
C2325 C2322 1.526 . S
C2325 C2326 1.396 . S
C2325 C2330 1.390 . S
C2326 C2320 1.465 . S
C2326 C2325 1.396 . S
C2326 C2327 1.399 . S
C2327 H2313 0.929 . S
C2327 C2326 1.399 . S
C2327 C2328 1.385 . S
C2328 H2314 0.931 . S
C2328 C2327 1.385 . S
C2328 C2329 1.389 . S
C2329 C2328 1.389 . S
C2329 C2330 1.387 . S
C2330 H2315 0.930 . S
C2330 C2325 1.390 . S
C2330 C2329 1.387 . S
H2331 C2343 0.930 . S
H2332 C2345 0.930 . S
H2333 C2346 0.930 . S
H2334 C2350 0.959 . S
H2335 C2350 0.959 . S
H2336 C2350 0.961 . S
H2337 C2351 0.960 . S
H2338 C2351 0.961 . S
H2339 C2351 0.959 . S
H2340 C2354 0.929 . S
H2341 C2355 0.931 . S
H2342 C2357 0.930 . S
C2343 H2331 0.930 . S
C2343 C2344 1.399 . S
C2343 C2348 1.399 . S
C2344 C2343 1.399 . S
C2344 C2345 1.376 . S
C2345 H2332 0.930 . S
C2345 C2344 1.376 . S
C2345 C2346 1.388 . S
C2346 H2333 0.930 . S
C2346 C2345 1.388 . S
C2346 C2347 1.390 . S
C2347 C2346 1.390 . S
C2347 C2348 1.394 . S
C2347 C2353 1.465 . S
C2348 C2343 1.399 . S
C2348 C2347 1.394 . S
C2348 C2349 1.516 . S
C2349 C2348 1.516 . S
C2349 C2350 1.502 . S
C2349 C2351 1.561 . S
C2349 C2352 1.526 . S
C2350 H2334 0.959 . S
C2350 H2335 0.959 . S
C2350 H2336 0.961 . S
C2350 C2349 1.502 . S
C2351 H2337 0.960 . S
C2351 H2338 0.961 . S
C2351 H2339 0.959 . S
C2351 C2349 1.561 . S
C2352 C2349 1.526 . S
C2352 C2353 1.396 . S
C2352 C2357 1.390 . S
C2353 C2347 1.465 . S
C2353 C2352 1.396 . S
C2353 C2354 1.399 . S
C2354 H2340 0.929 . S
C2354 C2353 1.399 . S
C2354 C2355 1.385 . S
C2355 H2341 0.931 . S
C2355 C2354 1.385 . S
C2355 C2356 1.389 . S
C2356 C2355 1.389 . S
C2356 C2357 1.387 . S
C2357 H2342 0.930 . S
C2357 C2352 1.390 . S
C2357 C2356 1.387 . S
H2358 C2370 0.930 . S
H2359 C2372 0.930 . S
H2360 C2373 0.930 . S
H2361 C2377 0.959 . S
H2362 C2377 0.959 . S
H2363 C2377 0.961 . S
H2364 C2378 0.960 . S
H2365 C2378 0.961 . S
H2366 C2378 0.959 . S
H2367 C2381 0.929 . S
H2368 C2382 0.931 . S
H2369 C2384 0.930 . S
C2370 H2358 0.930 . S
C2370 C2371 1.399 . S
C2370 C2375 1.399 . S
C2371 C2370 1.399 . S
C2371 C2372 1.376 . S
C2372 H2359 0.930 . S
C2372 C2371 1.376 . S
C2372 C2373 1.388 . S
C2373 H2360 0.930 . S
C2373 C2372 1.388 . S
C2373 C2374 1.390 . S
C2374 C2373 1.390 . S
C2374 C2375 1.394 . S
C2374 C2380 1.465 . S
C2375 C2370 1.399 . S
C2375 C2374 1.394 . S
C2375 C2376 1.516 . S
C2376 C2375 1.516 . S
C2376 C2377 1.502 . S
C2376 C2378 1.561 . S
C2376 C2379 1.526 . S
C2377 H2361 0.959 . S
C2377 H2362 0.959 . S
C2377 H2363 0.961 . S
C2377 C2376 1.502 . S
C2378 H2364 0.960 . S
C2378 H2365 0.961 . S
C2378 H2366 0.959 . S
C2378 C2376 1.561 . S
C2379 C2376 1.526 . S
C2379 C2380 1.396 . S
C2379 C2384 1.390 . S
C2380 C2374 1.465 . S
C2380 C2379 1.396 . S
C2380 C2381 1.399 . S
C2381 H2367 0.929 . S
C2381 C2380 1.399 . S
C2381 C2382 1.385 . S
C2382 H2368 0.931 . S
C2382 C2381 1.385 . S
C2382 C2383 1.389 . S
C2383 C2382 1.389 . S
C2383 C2384 1.387 . S
C2384 H2369 0.930 . S
C2384 C2379 1.390 . S
C2384 C2383 1.387 . S
H2385 C2397 0.930 . S
H2386 C2399 0.930 . S
H2387 C2400 0.930 . S
H2388 C2404 0.959 . S
H2389 C2404 0.959 . S
H2390 C2404 0.961 . S
H2391 C2405 0.960 . S
H2392 C2405 0.961 . S
H2393 C2405 0.959 . S
H2394 C2408 0.929 . S
H2395 C2409 0.931 . S
H2396 C2411 0.930 . S
C2397 H2385 0.930 . S
C2397 C2398 1.399 . S
C2397 C2402 1.399 . S
C2398 C2397 1.399 . S
C2398 C2399 1.376 . S
C2399 H2386 0.930 . S
C2399 C2398 1.376 . S
C2399 C2400 1.388 . S
C2400 H2387 0.930 . S
C2400 C2399 1.388 . S
C2400 C2401 1.390 . S
C2401 C2400 1.390 . S
C2401 C2402 1.394 . S
C2401 C2407 1.465 . S
C2402 C2397 1.399 . S
C2402 C2401 1.394 . S
C2402 C2403 1.516 . S
C2403 C2402 1.516 . S
C2403 C2404 1.502 . S
C2403 C2405 1.561 . S
C2403 C2406 1.526 . S
C2404 H2388 0.959 . S
C2404 H2389 0.959 . S
C2404 H2390 0.961 . S
C2404 C2403 1.502 . S
C2405 H2391 0.960 . S
C2405 H2392 0.961 . S
C2405 H2393 0.959 . S
C2405 C2403 1.561 . S
C2406 C2403 1.526 . S
C2406 C2407 1.396 . S
C2406 C2411 1.390 . S
C2407 C2401 1.465 . S
C2407 C2406 1.396 . S
C2407 C2408 1.399 . S
C2408 H2394 0.929 . S
C2408 C2407 1.399 . S
C2408 C2409 1.385 . S
C2409 H2395 0.931 . S
C2409 C2408 1.385 . S
C2409 C2410 1.389 . S
C2410 C2409 1.389 . S
C2410 C2411 1.387 . S
C2411 H2396 0.930 . S
C2411 C2406 1.390 . S
C2411 C2410 1.387 . S
H2412 C2424 0.930 . S
H2413 C2426 0.930 . S
H2414 C2427 0.930 . S
H2415 C2431 0.959 . S
H2416 C2431 0.959 . S
H2417 C2431 0.961 . S
H2418 C2432 0.960 . S
H2419 C2432 0.961 . S
H2420 C2432 0.959 . S
H2421 C2435 0.929 . S
H2422 C2436 0.931 . S
H2423 C2438 0.930 . S
C2424 H2412 0.930 . S
C2424 C2425 1.399 . S
C2424 C2429 1.399 . S
C2425 C2424 1.399 . S
C2425 C2426 1.376 . S
C2426 H2413 0.930 . S
C2426 C2425 1.376 . S
C2426 C2427 1.388 . S
C2427 H2414 0.930 . S
C2427 C2426 1.388 . S
C2427 C2428 1.390 . S
C2428 C2427 1.390 . S
C2428 C2429 1.394 . S
C2428 C2434 1.465 . S
C2429 C2424 1.399 . S
C2429 C2428 1.394 . S
C2429 C2430 1.516 . S
C2430 C2429 1.516 . S
C2430 C2431 1.502 . S
C2430 C2432 1.561 . S
C2430 C2433 1.526 . S
C2431 H2415 0.959 . S
C2431 H2416 0.959 . S
C2431 H2417 0.961 . S
C2431 C2430 1.502 . S
C2432 H2418 0.960 . S
C2432 H2419 0.961 . S
C2432 H2420 0.959 . S
C2432 C2430 1.561 . S
C2433 C2430 1.526 . S
C2433 C2434 1.396 . S
C2433 C2438 1.390 . S
C2434 C2428 1.465 . S
C2434 C2433 1.396 . S
C2434 C2435 1.399 . S
C2435 H2421 0.929 . S
C2435 C2434 1.399 . S
C2435 C2436 1.385 . S
C2436 H2422 0.931 . S
C2436 C2435 1.385 . S
C2436 C2437 1.389 . S
C2437 C2436 1.389 . S
C2437 C2438 1.387 . S
C2438 H2423 0.930 . S
C2438 C2433 1.390 . S
C2438 C2437 1.387 . S
H2439 C2451 0.930 . S
H2440 C2453 0.930 . S
H2441 C2454 0.930 . S
H2442 C2458 0.959 . S
H2443 C2458 0.959 . S
H2444 C2458 0.961 . S
H2445 C2459 0.960 . S
H2446 C2459 0.961 . S
H2447 C2459 0.959 . S
H2448 C2462 0.929 . S
H2449 C2463 0.931 . S
H2450 C2465 0.930 . S
C2451 H2439 0.930 . S
C2451 C2452 1.399 . S
C2451 C2456 1.399 . S
C2452 C2451 1.399 . S
C2452 C2453 1.376 . S
C2453 H2440 0.930 . S
C2453 C2452 1.376 . S
C2453 C2454 1.388 . S
C2454 H2441 0.930 . S
C2454 C2453 1.388 . S
C2454 C2455 1.390 . S
C2455 C2454 1.390 . S
C2455 C2456 1.394 . S
C2455 C2461 1.465 . S
C2456 C2451 1.399 . S
C2456 C2455 1.394 . S
C2456 C2457 1.516 . S
C2457 C2456 1.516 . S
C2457 C2458 1.502 . S
C2457 C2459 1.561 . S
C2457 C2460 1.526 . S
C2458 H2442 0.959 . S
C2458 H2443 0.959 . S
C2458 H2444 0.961 . S
C2458 C2457 1.502 . S
C2459 H2445 0.960 . S
C2459 H2446 0.961 . S
C2459 H2447 0.959 . S
C2459 C2457 1.561 . S
C2460 C2457 1.526 . S
C2460 C2461 1.396 . S
C2460 C2465 1.390 . S
C2461 C2455 1.465 . S
C2461 C2460 1.396 . S
C2461 C2462 1.399 . S
C2462 H2448 0.929 . S
C2462 C2461 1.399 . S
C2462 C2463 1.385 . S
C2463 H2449 0.931 . S
C2463 C2462 1.385 . S
C2463 C2464 1.389 . S
C2464 C2463 1.389 . S
C2464 C2465 1.387 . S
C2465 H2450 0.930 . S
C2465 C2460 1.390 . S
C2465 C2464 1.387 . S
H2466 C2478 0.930 . S
H2467 C2480 0.930 . S
H2468 C2481 0.930 . S
H2469 C2485 0.959 . S
H2470 C2485 0.959 . S
H2471 C2485 0.961 . S
H2472 C2486 0.960 . S
H2473 C2486 0.961 . S
H2474 C2486 0.959 . S
H2475 C2489 0.929 . S
H2476 C2490 0.931 . S
H2477 C2492 0.930 . S
C2478 H2466 0.930 . S
C2478 C2479 1.399 . S
C2478 C2483 1.399 . S
C2479 C2478 1.399 . S
C2479 C2480 1.376 . S
C2480 H2467 0.930 . S
C2480 C2479 1.376 . S
C2480 C2481 1.388 . S
C2481 H2468 0.930 . S
C2481 C2480 1.388 . S
C2481 C2482 1.390 . S
C2482 C2481 1.390 . S
C2482 C2483 1.394 . S
C2482 C2488 1.465 . S
C2483 C2478 1.399 . S
C2483 C2482 1.394 . S
C2483 C2484 1.516 . S
C2484 C2483 1.516 . S
C2484 C2485 1.502 . S
C2484 C2486 1.561 . S
C2484 C2487 1.526 . S
C2485 H2469 0.959 . S
C2485 H2470 0.959 . S
C2485 H2471 0.961 . S
C2485 C2484 1.502 . S
C2486 H2472 0.960 . S
C2486 H2473 0.961 . S
C2486 H2474 0.959 . S
C2486 C2484 1.561 . S
C2487 C2484 1.526 . S
C2487 C2488 1.396 . S
C2487 C2492 1.390 . S
C2488 C2482 1.465 . S
C2488 C2487 1.396 . S
C2488 C2489 1.399 . S
C2489 H2475 0.929 . S
C2489 C2488 1.399 . S
C2489 C2490 1.385 . S
C2490 H2476 0.931 . S
C2490 C2489 1.385 . S
C2490 C2491 1.389 . S
C2491 C2490 1.389 . S
C2491 C2492 1.387 . S
C2492 H2477 0.930 . S
C2492 C2487 1.390 . S
C2492 C2491 1.387 . S
H2493 C2505 0.930 . S
H2494 C2507 0.930 . S
H2495 C2508 0.930 . S
H2496 C2512 0.959 . S
H2497 C2512 0.959 . S
H2498 C2512 0.961 . S
H2499 C2513 0.960 . S
H2500 C2513 0.961 . S
H2501 C2513 0.959 . S
H2502 C2516 0.929 . S
H2503 C2517 0.931 . S
H2504 C2519 0.930 . S
C2505 H2493 0.930 . S
C2505 C2506 1.399 . S
C2505 C2510 1.399 . S
C2506 C2505 1.399 . S
C2506 C2507 1.376 . S
C2507 H2494 0.930 . S
C2507 C2506 1.376 . S
C2507 C2508 1.388 . S
C2508 H2495 0.930 . S
C2508 C2507 1.388 . S
C2508 C2509 1.390 . S
C2509 C2508 1.390 . S
C2509 C2510 1.394 . S
C2509 C2515 1.465 . S
C2510 C2505 1.399 . S
C2510 C2509 1.394 . S
C2510 C2511 1.516 . S
C2511 C2510 1.516 . S
C2511 C2512 1.502 1_655 S
C2511 C2513 1.561 . S
C2511 C2514 1.526 . S
C2512 H2496 0.959 . S
C2512 H2497 0.959 . S
C2512 H2498 0.961 . S
C2512 C2511 1.502 1_455 S
C2513 H2499 0.960 . S
C2513 H2500 0.961 . S
C2513 H2501 0.959 . S
C2513 C2511 1.561 . S
C2514 C2511 1.526 . S
C2514 C2515 1.396 . S
C2514 C2519 1.390 . S
C2515 C2509 1.465 . S
C2515 C2514 1.396 . S
C2515 C2516 1.399 . S
C2516 H2502 0.929 . S
C2516 C2515 1.399 . S
C2516 C2517 1.385 . S
C2517 H2503 0.931 . S
C2517 C2516 1.385 . S
C2517 C2518 1.389 . S
C2518 C2517 1.389 . S
C2518 C2519 1.387 . S
C2519 H2504 0.930 . S
C2519 C2514 1.390 . S
C2519 C2518 1.387 . S
H2520 C2532 0.930 . S
H2521 C2534 0.930 . S
H2522 C2535 0.930 . S
H2523 C2539 0.959 . S
H2524 C2539 0.959 . S
H2525 C2539 0.961 . S
H2526 C2540 0.960 . S
H2527 C2540 0.961 . S
H2528 C2540 0.959 . S
H2529 C2543 0.929 . S
H2530 C2544 0.931 . S
H2531 C2546 0.930 . S
C2532 H2520 0.930 . S
C2532 C2533 1.399 . S
C2532 C2537 1.399 . S
C2533 C2532 1.399 . S
C2533 C2534 1.376 . S
C2534 H2521 0.930 . S
C2534 C2533 1.376 . S
C2534 C2535 1.388 . S
C2535 H2522 0.930 . S
C2535 C2534 1.388 . S
C2535 C2536 1.390 . S
C2536 C2535 1.390 . S
C2536 C2537 1.394 . S
C2536 C2542 1.465 . S
C2537 C2532 1.399 . S
C2537 C2536 1.394 . S
C2537 C2538 1.516 . S
C2538 C2537 1.516 . S
C2538 C2539 1.502 . S
C2538 C2540 1.561 . S
C2538 C2541 1.526 . S
C2539 H2523 0.959 . S
C2539 H2524 0.959 . S
C2539 H2525 0.961 . S
C2539 C2538 1.502 . S
C2540 H2526 0.960 . S
C2540 H2527 0.961 . S
C2540 H2528 0.959 . S
C2540 C2538 1.561 . S
C2541 C2538 1.526 . S
C2541 C2542 1.396 . S
C2541 C2546 1.390 . S
C2542 C2536 1.465 . S
C2542 C2541 1.396 . S
C2542 C2543 1.399 . S
C2543 H2529 0.929 . S
C2543 C2542 1.399 . S
C2543 C2544 1.385 . S
C2544 H2530 0.931 . S
C2544 C2543 1.385 . S
C2544 C2545 1.389 . S
C2545 C2544 1.389 . S
C2545 C2546 1.387 . S
C2546 H2531 0.930 . S
C2546 C2541 1.390 . S
C2546 C2545 1.387 . S
H2547 C2559 0.930 . S
H2548 C2561 0.963 . S
H2549 C2562 0.930 . S
H2550 C2566 0.959 . S
H2551 C2566 0.959 . S
H2552 C2566 0.961 . S
H2553 C2567 0.960 . S
H2554 C2567 0.961 . S
H2555 C2567 0.959 . S
H2556 C2570 0.929 . S
H2557 C2571 0.931 . S
H2558 C2573 0.930 . S
C2559 H2547 0.930 . S
C2559 C2560 1.399 . S
C2559 C2564 1.399 . S
C2560 C2559 1.399 . S
C2560 C2561 1.356 1_545 S
C2561 H2548 0.963 . S
C2561 C2560 1.356 1_565 S
C2561 C2562 1.379 . S
C2562 H2549 0.930 . S
C2562 C2561 1.379 . S
C2562 C2563 1.390 1_565 S
C2563 C2562 1.390 1_545 S
C2563 C2564 1.394 . S
C2563 C2569 1.456 . S
C2564 C2559 1.399 . S
C2564 C2563 1.394 . S
C2564 C2565 1.516 . S
C2565 C2564 1.516 . S
C2565 C2566 1.502 . S
C2565 C2567 1.561 . S
C2565 C2568 1.526 . S
C2566 H2550 0.959 . S
C2566 H2551 0.959 . S
C2566 H2552 0.961 . S
C2566 C2565 1.502 . S
C2567 H2553 0.960 . S
C2567 H2554 0.961 . S
C2567 H2555 0.959 . S
C2567 C2565 1.561 . S
C2568 C2565 1.526 . S
C2568 C2569 1.417 . S
C2568 C2573 1.390 . S
C2569 C2563 1.456 . S
C2569 C2568 1.417 . S
C2569 C2570 1.391 1_545 S
C2570 H2556 0.929 . S
C2570 C2569 1.391 1_565 S
C2570 C2571 1.385 . S
C2571 H2557 0.931 . S
C2571 C2570 1.385 . S
C2571 C2572 1.367 1_565 S
C2572 C2571 1.367 1_545 S
C2572 C2573 1.396 . S
C2573 H2558 0.930 . S
C2573 C2568 1.390 . S
C2573 C2572 1.396 . S
C643 C4 1.525 . S
C655 C458 1.564 1_655 S
C670 C26 1.582 . S
C682 C471 1.490 . S
C709 C500 1.420 1_545 S
C697 C32 1.524 . S
C724 C40 1.501 . S
C736 C513 1.455 . S
C751 C12 1.569 . S
C763 C534 1.468 . S
C778 C18 1.524 . S
C790 C563 1.472 . S
C805 C46 1.554 . S
C817 C542 1.496 . S
C844 C555 1.449 . S
C832 C68 1.551 . S
C871 C521 1.532 1_545 S
C859 C74 1.476 . S
C886 C82 1.468 . S
C898 C492 1.461 1_545 S
C925 C450 1.547 1_655 S
C913 C54 1.561 . S
C940 C60 1.462 . S
C952 C479 1.538 . S
C967 C88 1.547 . S
C979 C584 1.587 . S
C994 C110 1.571 . S
C1006 C597 1.576 . S
C1033 C626 1.464 . S
C1021 C116 1.572 . S
C1048 C124 1.521 . S
C1060 C261 1.470 . S
C1075 C96 1.580 . S
C1087 C282 1.494 . S
C1102 C102 1.501 . S
C1114 C311 1.526 . S
C1129 C130 1.585 . S
C1141 C290 1.521 . S
C1156 C152 1.594 . S
C1168 C303 1.546 . S
C1195 C269 1.545 . S
C1183 C158 1.523 . S
C1222 C618 1.464 . S
C1210 C166 1.541 . S
C1249 C576 1.533 . S
C1237 C138 1.549 . S
C1276 C605 1.508 . S
C1264 C144 1.540 . S
C1291 C172 1.554 . S
C1303 C332 1.550 . S
C1318 C194 1.576 . S
C1330 C345 1.577 . S
C1345 C200 1.572 . S
C1357 C374 1.466 . S
C1372 C208 1.527 . S
C1384 C387 1.495 . S
C1411 C408 1.558 . S
C1399 C180 1.550 . S
C1438 C437 1.474 . S
C1426 C186 1.566 . S
C1465 C416 1.551 . S
C1453 C214 1.610 . S
C1492 C429 1.516 . S
C1480 C236 1.588 . S
C1507 C242 1.538 . S
C1519 C395 1.493 . S
C1546 C366 1.454 . S
C1534 C250 1.481 . S
C1561 C222 1.552 . S
C1573 C324 1.464 . S
C1600 C353 1.486 . S
C1588 C228 1.553 . S
C1627 C264 1.286 . S
C1615 C5 1.161 . S
C1642 C25 1.305 . S
C1654 C285 1.254 . S
C1681 C313 1.333 . S
C1669 C33 1.114 . S
C1708 C334 1.265 . S
C1696 C39 1.305 . S
C1735 C348 1.195 . S
C1723 C11 1.310 . S
C1762 C376 1.270 . S
C1750 C19 1.084 1_556 S
C1777 C47 1.293 1_556 S
C1789 C369 1.204 . S
C1804 C67 1.333 . S
C1816 C327 1.208 . S
C1831 C75 1.185 1_556 S
C1843 C355 1.294 . S
C1858 C81 1.333 . S
C1870 C292 1.224 . S
C1897 C306 1.265 . S
C1885 C53 1.355 . S
C1912 C61 1.068 . S
C1924 C271 1.318 . S
C1951 C390 1.307 . S
C1939 C89 1.189 . S
C1966 C109 1.383 . S
C1978 C411 1.289 . S
C1993 C117 1.255 . S
C2005 C439 1.226 . S
C2032 C460 1.125 . S
C2020 C123 1.237 . S
C2047 C95 1.299 . S
C2059 C474 1.188 . S
C2074 C103 1.142 . S
C2086 C502 1.196 . S
C2101 C131 1.073 . S
C2113 C495 1.238 1_545 S
C2128 C151 1.315 . S
C2140 C453 1.179 . S
C2167 C481 1.345 . S
C2155 C159 1.156 . S
C2182 C165 1.329 . S
C2194 C418 1.304 . S
C2209 C137 1.386 . S
C2221 C432 1.198 . S
C2248 C397 1.333 . S
C2236 C145 1.101 . S
C2275 C516 1.203 1_545 S
C2263 C173 1.218 . S
C2290 C193 1.266 . S
C2302 C537 1.231 1_655 S
C2317 C201 1.234 . S
C2329 C565 1.179 . S
C2356 C586 1.166 . S
C2344 C207 1.282 . S
C2383 C600 1.259 . S
C2371 C179 1.345 . S
C2398 C187 1.241 . S
C2410 C628 1.239 . S
C2425 C215 1.271 . S
C2437 C621 1.177 . S
C2452 C235 1.368 . S
C2464 C579 1.154 . S
C2491 C607 1.344 . S
C2479 C243 1.227 . S
C2518 C544 1.256 1_655 S
C2506 C249 1.256 . S
C2545 C558 1.125 . S
C2533 C221 1.328 . S
C2560 C229 1.045 . S
C2572 C523 1.274 1_545 S
