# Generated by pormake.
# Topology zzz, (3,6)-cn, num edge types: 1
# Building blocks:
#     Node 0, Type 0, BuildingBlock: PAMTOO_clean_linker_0, # of connection points: 3
#     Node 1, Type 0, BuildingBlock: PAMTOO_clean_linker_0, # of connection points: 3
#     Node 2, Type 0, BuildingBlock: PAMTOO_clean_linker_0, # of connection points: 3
#     Node 3, Type 0, BuildingBlock: PAMTOO_clean_linker_0, # of connection points: 3
#     Node 4, Type 0, BuildingBlock: PAMTOO_clean_linker_0, # of connection points: 3
#     Node 5, Type 0, BuildingBlock: PAMTOO_clean_linker_0, # of connection points: 3
#     Node 6, Type 0, BuildingBlock: PAMTOO_clean_linker_0, # of connection points: 3
#     Node 7, Type 0, BuildingBlock: PAMTOO_clean_linker_0, # of connection points: 3
#     Node 8, Type 1, BuildingBlock: BETGAK_clean_sbu_0, # of connection points: 6
#     Node 9, Type 1, BuildingBlock: BETGAK_clean_sbu_0, # of connection points: 6
#     Node 10, Type 1, BuildingBlock: BETGAK_clean_sbu_0, # of connection points: 6
#     Node 11, Type 1, BuildingBlock: BETGAK_clean_sbu_0, # of connection points: 6
#     Edge 12, Type (0, 1), BuildingBlock: ZUJKAS_clean_linker_0, # of connection points: 2
#     Edge 13, Type (0, 1), BuildingBlock: ZUJKAS_clean_linker_0, # of connection points: 2
#     Edge 14, Type (0, 1), BuildingBlock: ZUJKAS_clean_linker_0, # of connection points: 2
#     Edge 15, Type (0, 1), BuildingBlock: ZUJKAS_clean_linker_0, # of connection points: 2
#     Edge 16, Type (0, 1), BuildingBlock: ZUJKAS_clean_linker_0, # of connection points: 2
#     Edge 17, Type (0, 1), BuildingBlock: ZUJKAS_clean_linker_0, # of connection points: 2
#     Edge 18, Type (0, 1), BuildingBlock: ZUJKAS_clean_linker_0, # of connection points: 2
#     Edge 19, Type (0, 1), BuildingBlock: ZUJKAS_clean_linker_0, # of connection points: 2
#     Edge 20, Type (0, 1), BuildingBlock: ZUJKAS_clean_linker_0, # of connection points: 2
#     Edge 21, Type (0, 1), BuildingBlock: ZUJKAS_clean_linker_0, # of connection points: 2
#     Edge 22, Type (0, 1), BuildingBlock: ZUJKAS_clean_linker_0, # of connection points: 2
#     Edge 23, Type (0, 1), BuildingBlock: ZUJKAS_clean_linker_0, # of connection points: 2
#     Edge 24, Type (0, 1), BuildingBlock: ZUJKAS_clean_linker_0, # of connection points: 2
#     Edge 25, Type (0, 1), BuildingBlock: ZUJKAS_clean_linker_0, # of connection points: 2
#     Edge 26, Type (0, 1), BuildingBlock: ZUJKAS_clean_linker_0, # of connection points: 2
#     Edge 27, Type (0, 1), BuildingBlock: ZUJKAS_clean_linker_0, # of connection points: 2
#     Edge 28, Type (0, 1), BuildingBlock: ZUJKAS_clean_linker_0, # of connection points: 2
#     Edge 29, Type (0, 1), BuildingBlock: ZUJKAS_clean_linker_0, # of connection points: 2
#     Edge 30, Type (0, 1), BuildingBlock: ZUJKAS_clean_linker_0, # of connection points: 2
#     Edge 31, Type (0, 1), BuildingBlock: ZUJKAS_clean_linker_0, # of connection points: 2
#     Edge 32, Type (0, 1), BuildingBlock: ZUJKAS_clean_linker_0, # of connection points: 2
#     Edge 33, Type (0, 1), BuildingBlock: ZUJKAS_clean_linker_0, # of connection points: 2
#     Edge 34, Type (0, 1), BuildingBlock: ZUJKAS_clean_linker_0, # of connection points: 2
#     Edge 35, Type (0, 1), BuildingBlock: ZUJKAS_clean_linker_0, # of connection points: 2
# Relax obj value: 0.231
# Max RMSD: 0.178
# Mean RMSD: 0.158
data_MOF--net-zzz--node1-BETGAK_clean_sbu_0--node2-PAMTOO_clean_linker_0--edge1-ZUJKAS_clean_linker_0
_symmetry_space_group_name_H-M    P1
_symmetry_Int_Tables_number       1
_symmetry_cell_setting            triclinic
loop_
_symmetry_equiv_pos_as_xyz
'x, y, z'
_cell_length_a     67.605545
_cell_length_b     67.598488
_cell_length_c     17.256384
_cell_angle_alpha  89.882166
_cell_angle_beta   90.061859
_cell_angle_gamma 89.9724
loop_
_atom_site_label
_atom_site_type_symbol
_atom_site_fract_x
_atom_site_fract_y
_atom_site_fract_z
_atom_type_partial_charge
H0 H 0.80642 0.49383 0.23433 0.0
H1 H 0.74493 0.49618 0.17045 0.0
H2 H 0.7663 0.53065 0.36266 0.0
H3 H 0.73949 0.54433 0.19901 0.0
C4 C 0.72799 0.53808 0.23831 0.0
O5 O 0.73491 0.52147 0.27693 0.0
H6 H 0.72476 0.54976 0.28172 0.0
C7 C 0.79155 0.49926 0.24445 0.0
C8 C 0.78839 0.5128 0.30457 0.0
C9 C 0.77605 0.493 0.19609 0.0
C10 C 0.75702 0.50064 0.20779 0.0
C11 C 0.75346 0.51421 0.26745 0.0
C12 C 0.7691 0.52013 0.3167 0.0
H13 H 0.02105 0.80685 0.22121 0.0
H14 H 1.01421 0.74768 0.13453 0.0
H15 H 1.00843 0.75916 0.37904 0.0
H16 H 0.02394 0.71338 0.33784 0.0
C17 C 0.02256 0.71754 0.27571 0.0
O18 O 1.00754 0.73143 0.26899 0.0
H19 H 0.03702 0.72387 0.25717 0.0
C20 C 0.01801 0.7913 0.23145 0.0
C21 C 1.0147 0.78479 0.3074 0.0
C22 C 0.01774 0.77812 0.16879 0.0
C23 C 1.01432 0.75799 0.18248 0.0
C24 C 1.01102 0.75103 0.25795 0.0
C25 C 1.01105 0.76449 0.32073 0.0
H26 H 0.73404 0.04092 0.23801 0.0
H27 H 0.79347 0.03264 0.15514 0.0
H28 H 0.77208 0.9983 0.34791 0.0
H29 H 0.82274 1.00195 0.33884 0.0
C30 C 0.8195 1.01139 0.28757 0.0
O31 O 0.80234 1.00464 0.2527 0.0
H32 H 0.81764 0.02677 0.30959 0.0
C33 C 0.74847 0.03402 0.24339 0.0
C34 C 0.75119 0.01933 0.29979 0.0
C35 C 0.76359 0.03916 0.19138 0.0
C36 C 0.78181 0.02929 0.19612 0.0
C37 C 0.78503 1.01479 0.25295 0.0
C38 C 0.76976 1.00992 0.30552 0.0
H39 H 0.50539 0.72907 0.22054 0.0
H40 H 0.51342 0.78881 0.14315 0.0
H41 H 0.53064 0.77232 0.37514 0.0
H42 H 0.5194 0.82157 0.35031 0.0
C43 C 0.51679 0.81734 0.28896 0.0
O44 O 0.52924 0.80166 0.27132 0.0
H45 H 0.50097 0.81292 0.28367 0.0
C46 C 0.51011 0.74409 0.23281 0.0
C47 C 0.51786 0.74873 0.30603 0.0
C48 C 0.50845 0.7584 0.17444 0.0
C49 C 0.51467 0.77774 0.18839 0.0
C50 C 0.5227 0.78286 0.26049 0.0
C51 C 0.52439 0.76834 0.31952 0.0
H52 H 0.2346 0.54258 0.1619 0.0
H53 H 0.29447 0.54054 0.24626 0.0
H54 H 0.27598 0.50153 0.06303 0.0
H55 H 0.31113 0.48289 0.16933 0.0
C56 C 0.31146 0.49684 0.20332 0.0
O57 O 0.30595 0.51223 0.15458 0.0
H58 H 0.30078 0.49516 0.25198 0.0
C59 C 0.24953 0.53676 0.15861 0.0
C60 C 0.25356 0.52172 0.10534 0.0
C61 C 0.26412 0.5437 0.20979 0.0
C62 C 0.28312 0.53541 0.20689 0.0
C63 C 0.28749 0.52019 0.15457 0.0
C64 C 0.27268 0.51335 0.10326 0.0
H65 H 1.01719 0.22843 0.20167 0.0
H66 H 0.0252 0.28906 0.26797 0.0
H67 H 0.02725 0.27289 0.02679 0.0
H68 H 1.00058 0.31016 0.13204 0.0
C69 C 1.01549 0.3167 0.12193 0.0
O70 O 0.03021 0.3025 0.12806 0.0
H71 H 1.01536 0.32248 0.06161 0.0
C72 C 0.01984 0.2437 0.18535 0.0
C73 C 0.0219 0.24864 0.1067 0.0
C74 C 0.02095 0.25811 0.24357 0.0
C75 C 0.0243 0.27785 0.22334 0.0
C76 C 0.02657 0.28325 0.1455 0.0
C77 C 0.02549 0.26864 0.08692 0.0
H78 H 0.30865 1.01349 0.21071 0.0
H79 H 0.24729 1.01174 0.27449 0.0
H80 H 0.26386 0.02623 0.04026 0.0
H81 H 0.21965 0.04517 0.09487 0.0
C82 C 0.22296 0.03812 0.15166 0.0
O83 O 0.23377 0.02102 0.13795 0.0
H84 H 0.23171 0.04892 0.18629 0.0
C85 C 0.29321 1.01553 0.19548 0.0
C86 C 0.28827 0.02059 0.11896 0.0
C87 C 0.27863 1.01236 0.25199 0.0
C88 C 0.25868 1.01408 0.23136 0.0
C89 C 0.25327 0.01927 0.1556 0.0
C90 C 0.26807 0.02236 0.09893 0.0
H91 H 0.49964 0.30061 0.17403 0.0
H92 H 0.50811 0.24007 0.24445 0.0
H93 H 0.52321 0.25831 0.01309 0.0
H94 H 0.51364 0.20715 0.03594 0.0
C95 C 0.50965 0.21267 0.09447 0.0
O96 O 0.5222 0.22816 0.11317 0.0
H97 H 0.49399 0.21777 0.09048 0.0
C98 C 0.50357 0.28547 0.1603 0.0
C99 C 0.51099 0.28131 0.08626 0.0
C100 C 0.50244 0.27079 0.21807 0.0
C101 C 0.50867 0.25154 0.20063 0.0
C102 C 0.51583 0.24688 0.12686 0.0
C103 C 0.51721 0.26182 0.06958 0.0
La104 La 0.0299 1.01018 0.77256 0.0
La105 La 1.00827 0.02351 0.63858 0.0
C106 C 0.04528 0.99908 0.8973 0.0
C107 C 0.05572 0.98019 0.90989 0.0
C108 C 0.06996 0.9737 0.85613 0.0
C109 C 0.07558 0.95386 0.85362 0.0
C110 C 0.06717 0.94017 0.90505 0.0
C111 C 0.05425 0.94698 0.96309 0.0
C112 C 0.04855 0.96684 0.96539 0.0
C113 C 0.05169 1.01158 0.64483 0.0
C114 C 1.01583 0.9773 0.65954 0.0
C115 C 0.99344 0.03572 0.51473 0.0
C116 C 0.98536 0.05584 0.50448 0.0
C117 C 0.97202 0.06351 0.55944 0.0
C118 C 0.9697 0.08389 0.56792 0.0
C119 C 0.98053 0.09698 0.52126 0.0
C120 C 0.99219 0.08927 0.46085 0.0
C121 C 0.99461 0.06886 0.45264 0.0
C122 C 0.98661 0.02231 0.76667 0.0
C123 C 0.02231 0.05629 0.75151 0.0
O124 O 0.05381 1.01165 0.85025 0.0
O125 O 0.02637 0.99724 0.88247 0.0
O126 O 0.05268 0.99797 0.69712 0.0
O127 O 0.03908 0.02427 0.66578 0.0
O128 O 0.02106 0.98107 0.73166 0.0
O129 O 1.01202 0.99191 0.6104 0.0
O130 O 0.9839 0.02417 0.5628 0.0
O131 O 1.01256 0.03519 0.52693 0.0
O132 O 0.98571 0.03595 0.71445 0.0
O133 O 0.99907 1.0095 0.74555 0.0
O134 O 0.01793 0.05244 0.67864 0.0
O135 O 0.02525 0.04165 0.80136 0.0
H136 H 0.07584 0.98362 0.81256 0.0
H137 H 0.08579 0.94907 0.80911 0.0
H138 H 0.04742 0.93673 1.00328 0.0
H139 H 0.03744 0.97143 0.00682 0.0
H140 H 0.96456 0.05391 0.6003 0.0
H141 H 0.96055 0.08934 0.61475 0.0
H142 H 1.00029 0.09903 0.42248 0.0
H143 H 1.00496 0.06334 0.40992 0.0
La144 La 0.52463 0.02833 0.76366 0.0
La145 La 0.51286 1.00469 0.63529 0.0
C146 C 0.54305 0.04344 0.87593 0.0
C147 C 0.56354 0.05077 0.8823 0.0
C148 C 0.56709 0.0707 0.90081 0.0
C149 C 0.58628 0.07842 0.89725 0.0
C150 C 0.6021 0.06636 0.87403 0.0
C151 C 0.59863 0.04632 0.85808 0.0
C152 C 0.57958 0.03856 0.8627 0.0
C153 C 0.5125 0.04961 0.64316 0.0
C154 C 0.55713 1.0145 0.63888 0.0
C155 C 0.49375 0.98974 0.52533 0.0
C156 C 0.47422 0.98024 0.52794 0.0
C157 C 0.46839 0.96946 0.59384 0.0
C158 C 0.44887 0.96306 0.60193 0.0
C159 C 0.43474 0.96755 0.54476 0.0
C160 C 0.44083 0.97787 0.4778 0.0
C161 C 0.4604 0.98411 0.46948 0.0
C162 C 0.5249 0.98324 0.7555 0.0
C163 C 0.48016 0.01835 0.75953 0.0
O164 O 0.53168 0.05353 0.82924 0.0
O165 O 0.54077 0.02436 0.86663 0.0
O166 O 0.50826 0.05328 0.71472 0.0
O167 O 0.52337 0.03444 0.6408 0.0
O168 O 0.55338 0.01984 0.71129 0.0
O169 O 0.54239 1.01049 0.59135 0.0
O170 O 0.50797 0.98049 0.56174 0.0
O171 O 0.49364 1.00868 0.54078 0.0
O172 O 0.52878 0.97947 0.68375 0.0
O173 O 0.51413 0.9985 0.75816 0.0
O174 O 0.48401 1.01212 0.68847 0.0
O175 O 0.49475 0.02347 0.80612 0.0
H176 H 0.55494 0.08039 0.91613 0.0
H177 H 0.58869 0.09387 0.91076 0.0
H178 H 0.61071 0.03662 0.84201 0.0
H179 H 0.57739 0.0231 0.8489 0.0
H180 H 0.47874 0.96658 0.64052 0.0
H181 H 0.44475 0.95503 0.6538 0.0
H182 H 0.4303 0.98197 0.43327 0.0
H183 H 0.46454 0.99271 0.41899 0.0
La184 La 0.51303 0.5241 0.78477 0.0
La185 La 0.53029 0.50909 0.62913 0.0
C186 C 0.50269 0.5368 0.91409 0.0
C187 C 0.49189 0.55542 0.92818 0.0
C188 C 0.47461 0.55983 0.8858 0.0
C189 C 0.46768 0.57926 0.88082 0.0
C190 C 0.47796 0.59459 0.91776 0.0
C191 C 0.4942 0.58991 0.96545 0.0
C192 C 0.50109 0.57048 0.9707 0.0
C193 C 0.48806 0.52142 0.66729 0.0
C194 C 0.52582 0.55532 0.65697 0.0
C195 C 0.53134 0.49264 0.49949 0.0
C196 C 0.52524 0.47212 0.48205 0.0
C197 C 0.53969 0.45721 0.4794 0.0
C198 C 0.5344 0.43744 0.48942 0.0
C199 C 0.51455 0.43219 0.50189 0.0
C200 C 0.49988 0.44684 0.49565 0.0
C201 C 0.50519 0.46663 0.48507 0.0
C202 C 0.55924 0.5174 0.72976 0.0
C203 C 0.52207 0.47806 0.76434 0.0
O204 O 0.49293 0.52288 0.87732 0.0
O205 O 0.52061 0.53926 0.88639 0.0
O206 O 0.48761 0.53509 0.71939 0.0
O207 O 0.50176 0.5094 0.68358 0.0
O208 O 0.52312 0.55179 0.73199 0.0
O209 O 0.52707 0.54083 0.60513 0.0
O210 O 0.54671 0.49396 0.54542 0.0
O211 O 0.51729 0.50507 0.51939 0.0
O212 O 0.56212 0.51174 0.65893 0.0
O213 O 0.54086 0.51873 0.73774 0.0
O214 O 0.52523 0.48106 0.6894 0.0
O215 O 0.51859 0.49285 0.81314 0.0
H216 H 0.46717 0.54858 0.85205 0.0
H217 H 0.45511 0.58244 0.8439 0.0
H218 H 0.50214 0.60144 0.99597 0.0
H219 H 0.51444 0.56748 1.0035 0.0
H220 H 0.55525 0.46094 0.47558 0.0
H221 H 0.54598 0.42637 0.49083 0.0
H222 H 0.48441 0.44322 0.50367 0.0
H223 H 0.49367 0.47771 0.48449 0.0
La224 La 1.01404 0.50305 0.77598 0.0
La225 La 0.0264 0.52634 0.64618 0.0
C226 C 0.9949 0.48834 0.8871 0.0
C227 C 0.97423 0.48132 0.89089 0.0
C228 C 0.97024 0.46106 0.90071 0.0
C229 C 0.95093 0.45386 0.89292 0.0
C230 C 0.93537 0.46682 0.87454 0.0
C231 C 0.93926 0.48715 0.86809 0.0
C232 C 0.95845 0.49435 0.8765 0.0
C233 C 0.02643 0.48143 0.65733 0.0
C234 C 0.9819 0.51697 0.64964 0.0
C235 C 0.04507 0.54068 0.53308 0.0
C236 C 0.06515 0.54905 0.52746 0.0
C237 C 0.06782 0.5684 0.4996 0.0
C238 C 0.08652 0.57725 0.50179 0.0
C239 C 0.10275 0.56693 0.53285 0.0
C240 C 0.10012 0.54744 0.55903 0.0
C241 C 0.08155 0.53855 0.55598 0.0
C242 C 1.01375 0.54803 0.76411 0.0
C243 C 0.05853 0.51283 0.77425 0.0
O244 O 1.00649 0.47805 0.84212 0.0
O245 O 0.99758 0.50737 0.87775 0.0
O246 O 0.03035 0.47787 0.72935 0.0
O247 O 1.01569 0.49669 0.65356 0.0
O248 O 0.98548 0.51157 0.72216 0.0
O249 O 0.99671 0.52099 0.60254 0.0
O250 O 0.03273 0.55085 0.57538 0.0
O251 O 0.04378 0.52168 0.54711 0.0
O252 O 1.01005 0.55156 0.69187 0.0
O253 O 0.0246 0.53284 0.76849 0.0
O254 O 0.05501 0.51902 0.70258 0.0
O255 O 0.04377 0.50775 0.82002 0.0
H256 H 0.98216 0.45072 0.91197 0.0
H257 H 0.94825 0.43814 0.89902 0.0
H258 H 0.92742 0.49753 0.85597 0.0
H259 H 0.96094 0.51007 0.86914 0.0
H260 H 0.05536 0.57679 0.47752 0.0
H261 H 0.08825 0.59224 0.48057 0.0
H262 H 0.11251 0.53899 0.58143 0.0
H263 H 0.08003 0.52356 0.57738 0.0
H264 H 0.21262 1.00627 0.24722 0.0
H265 H 0.18238 1.00218 0.32355 0.0
H266 H 0.16021 0.05757 0.23474 0.0
H267 H 0.19033 0.06161 0.15759 0.0
H268 H 0.16804 0.02592 0.43839 0.0
H269 H 0.11276 0.02203 0.20134 0.0
H270 H 0.13897 0.01951 0.18429 0.0
H271 H 0.12818 0.04361 0.19713 0.0
C272 C 0.20121 0.01744 0.24287 0.0
C273 C 0.20374 0.0341 0.19472 0.0
C274 C 0.1839 1.0151 0.28682 0.0
C275 C 0.16873 0.02936 0.28396 0.0
C276 C 0.17134 0.04606 0.23646 0.0
H277 H 0.05799 0.04357 0.54805 0.0
H278 H 0.08605 0.04857 0.45893 0.0
C279 C 0.18861 0.04838 0.19251 0.0
C280 C 0.15074 0.02728 0.33373 0.0
H281 H 0.10011 0.02507 0.32933 0.0
C282 C 0.15321 0.02565 0.41434 0.0
C283 C 0.13129 0.02708 0.30276 0.0
C284 C 0.12758 0.02797 0.21661 0.0
C285 C 0.13691 0.02396 0.46459 0.0
C286 C 0.11749 0.02358 0.43363 0.0
C287 C 0.11496 0.02543 0.35315 0.0
C288 C 0.09982 0.02035 0.48395 0.0
C289 C 0.14061 0.02285 0.55075 0.0
C290 C 0.09789 1.00265 0.5259 0.0
C291 C 0.08196 0.99978 0.5763 0.0
C292 C 0.06747 1.01451 0.586 0.0
C293 C 0.06896 0.03199 0.54201 0.0
C294 C 0.08498 0.03485 0.49118 0.0
H295 H 0.15547 0.02865 0.56631 0.0
H296 H 0.12925 0.03131 0.58325 0.0
H297 H 0.13986 1.00717 0.56973 0.0
H298 H 0.10888 0.99107 0.52022 0.0
H299 H 0.08118 0.98606 0.60875 0.0
H300 H 0.53354 0.17967 0.09085 0.0
H301 H 0.53407 0.15152 0.18108 0.0
H302 H 0.49034 0.18047 0.32302 0.0
H303 H 0.48936 0.20828 0.23153 0.0
H304 H 0.5429 0.14755 0.33288 0.0
H305 H 0.46419 0.12772 0.28983 0.0
H306 H 0.47677 0.14532 0.22854 0.0
H307 H 0.46743 0.15275 0.32173 0.0
C308 C 0.52406 0.17999 0.14138 0.0
C309 C 0.51119 0.19604 0.15353 0.0
C310 C 0.52437 0.1639 0.193 0.0
C311 C 0.51187 0.16353 0.25812 0.0
C312 C 0.49969 0.18003 0.27215 0.0
H313 H 0.49191 0.08423 0.64659 0.0
H314 H 0.49207 0.11105 0.55097 0.0
C315 C 0.49929 0.19604 0.22028 0.0
C316 C 0.51159 0.14593 0.31114 0.0
H317 H 0.48095 0.1114 0.39311 0.0
C318 C 0.52937 0.13958 0.34552 0.0
C319 C 0.49397 0.13535 0.32773 0.0
C320 C 0.47455 0.14048 0.28945 0.0
C321 C 0.52991 0.12342 0.39735 0.0
C322 C 0.51224 0.11308 0.41481 0.0
C323 C 0.4945 0.11931 0.37997 0.0
C324 C 0.51171 0.09622 0.47107 0.0
C325 C 0.54932 0.11789 0.43478 0.0
C326 C 0.52231 0.07864 0.45746 0.0
C327 C 0.52215 0.06317 0.51208 0.0
C328 C 0.5114 0.065 0.58148 0.0
C329 C 0.50039 0.08237 0.59388 0.0
C330 C 0.50047 0.09774 0.53922 0.0
H331 H 0.56051 0.12983 0.42882 0.0
H332 H 0.54726 0.11459 0.49731 0.0
H333 H 0.55526 0.10441 0.40652 0.0
H334 H 0.53079 0.07691 0.40471 0.0
H335 H 0.53075 0.04997 0.5007 0.0
H336 H 0.32788 0.53116 0.2629 0.0
H337 H 0.35925 0.53496 0.33255 0.0
H338 H 0.37172 0.47302 0.29894 0.0
H339 H 0.3405 0.46926 0.22844 0.0
H340 H 0.37031 0.51673 0.4668 0.0
H341 H 0.4241 0.49742 0.23681 0.0
H342 H 0.39853 0.50304 0.21603 0.0
H343 H 0.4054 0.47897 0.25175 0.0
C344 C 0.33749 0.51846 0.26878 0.0
C345 C 0.33188 0.50002 0.2382 0.0
C346 C 0.35542 0.52062 0.309 0.0
C347 C 0.36815 0.50437 0.31996 0.0
C348 C 0.36254 0.48594 0.28953 0.0
H349 H 0.47594 0.48689 0.59809 0.0
H350 H 0.44736 0.48232 0.51117 0.0
C351 C 0.34464 0.48379 0.24929 0.0
C352 C 0.38656 0.50643 0.36756 0.0
H353 H 0.43682 0.49993 0.36511 0.0
C354 C 0.38484 0.51316 0.44425 0.0
C355 C 0.40559 0.50162 0.33872 0.0
C356 C 0.40861 0.49503 0.25612 0.0
C357 C 0.40147 0.51503 0.49284 0.0
C358 C 0.42052 0.51038 0.46387 0.0
C359 C 0.42226 0.50348 0.38744 0.0
C360 C 0.43875 0.51317 0.51169 0.0
C361 C 0.39843 0.52164 0.57547 0.0
C362 C 0.44379 0.53205 0.53917 0.0
C363 C 0.46014 0.53465 0.58795 0.0
C364 C 0.472 0.51849 0.60976 0.0
C365 C 0.46734 0.49966 0.58066 0.0
C366 C 0.45092 0.49703 0.53162 0.0
H367 H 0.38292 0.51936 0.59467 0.0
H368 H 0.40843 0.51355 0.61561 0.0
H369 H 0.40178 0.53767 0.57994 0.0
H370 H 0.43491 0.5448 0.52362 0.0
H371 H 0.46338 0.54935 0.60945 0.0
H372 H 0.03636 0.35116 0.09926 0.0
H373 H 0.03975 0.37945 0.18722 0.0
H374 H 1.006 0.34829 0.36069 0.0
H375 H 1.00228 0.32015 0.27201 0.0
H376 H 0.99292 0.38609 0.34245 0.0
H377 H 0.07443 0.38662 0.37618 0.0
H378 H 0.06648 0.38771 0.277 0.0
H379 H 0.0613 0.36603 0.33409 0.0
C380 C 0.02983 0.35032 0.15646 0.0
C381 C 0.01895 0.33351 0.1786 0.0
C382 C 0.03186 0.36645 0.20695 0.0
C383 C 0.02329 0.36604 0.28121 0.0
C384 C 1.01276 0.34904 0.30388 0.0
H385 H 0.04462 0.44556 0.66746 0.0
H386 H 0.04389 0.41842 0.574 0.0
C387 C 1.0107 0.33293 0.25333 0.0
C388 C 0.02458 0.38356 0.33397 0.0
H389 H 0.05711 0.41446 0.42588 0.0
C390 C 1.00697 0.39226 0.36071 0.0
C391 C 0.04289 0.3916 0.35869 0.0
C392 C 0.06236 0.38242 0.33569 0.0
C393 C 1.00715 0.40874 0.41067 0.0
C394 C 0.02545 0.4171 0.43375 0.0
C395 C 0.04306 0.40829 0.40755 0.0
C396 C 0.02664 0.43426 0.48832 0.0
C397 C 0.98768 0.41668 0.44 0.0
C398 C 0.01763 0.45253 0.47094 0.0
C399 C 0.018 0.46814 0.52465 0.0
C400 C 0.02749 0.46584 0.59669 0.0
C401 C 0.03711 0.44782 0.61267 0.0
C402 C 0.03672 0.43226 0.55915 0.0
H403 H 0.97554 0.40574 0.4331 0.0
H404 H 0.98874 0.42081 0.50211 0.0
H405 H 0.98366 0.43011 0.40642 0.0
H406 H 1.01015 0.45468 0.41606 0.0
H407 H 1.01054 0.48187 0.51041 0.0
H408 H 0.83211 0.04039 0.18748 0.0
H409 H 0.86104 0.04003 0.10151 0.0
H410 H 0.87447 0.9805 0.17492 0.0
H411 H 0.84541 0.98079 0.26023 0.0
H412 H 0.90042 0.03511 0.14517 0.0
H413 H 0.87818 0.97608 0.93948 0.0
H414 H 0.86079 0.98791 1.00385 0.0
H415 H 0.87723 0.96911 0.0399 0.0
C416 C 0.84117 0.02719 0.18466 0.0
C417 C 0.83666 1.0107 0.23112 0.0
C418 C 0.85771 0.02699 0.13566 0.0
C419 C 0.86994 1.0102 0.13116 0.0
C420 C 0.86516 0.99352 0.17627 0.0
H421 H 0.97924 0.99002 0.86078 0.0
H422 H 0.95197 0.98619 0.95446 0.0
C423 C 0.84862 0.99373 0.22536 0.0
C424 C 0.88815 1.01056 0.08211 0.0
H425 H 0.91075 0.98857 0.92705 0.0
C426 C 0.90265 0.02492 0.09749 0.0
C427 C 0.89123 0.99715 0.02025 0.0
C428 C 0.87599 0.98178 0.99921 0.0
C429 C 0.92 0.02631 0.05283 0.0
C430 C 0.92288 1.01322 0.98981 0.0
C431 C 0.90861 0.99857 0.97538 0.0
C432 C 0.93988 1.01546 0.9352 0.0
C433 C 0.93518 0.04174 0.074 0.0
C434 C 0.94213 0.03307 0.89293 0.0
C435 C 0.95759 0.03526 0.83987 0.0
C436 C 0.97118 0.01984 0.82714 0.0
C437 C 0.96907 1.00219 0.86964 0.0
C438 C 0.95346 0.99998 0.9229 0.0
H439 H 0.9339 0.04617 0.13576 0.0
H440 H 0.95044 0.03629 0.06343 0.0
H441 H 0.93276 0.05513 0.03793 0.0
H442 H 0.93168 0.04509 0.89997 0.0
H443 H 0.95874 0.04901 0.80786 0.0
H444 H 0.53342 0.81935 0.14062 0.0
H445 H 0.53612 0.84834 0.0559 0.0
H446 H 0.50885 0.88444 0.23163 0.0
H447 H 0.50646 0.85556 0.317 0.0
H448 H 0.50724 0.87143 0.99571 0.0
H449 H 0.55588 0.9183 0.1772 0.0
H450 H 0.55213 0.89234 0.19672 0.0
H451 H 0.53402 0.91025 0.22691 0.0
C452 C 0.52831 0.8335 0.16187 0.0
C453 C 0.52016 0.8352 0.23667 0.0
C454 C 0.5298 0.85011 0.11312 0.0
C455 C 0.5231 0.86879 0.13767 0.0
C456 C 0.51472 0.87042 0.21188 0.0
H457 H 0.50896 0.98363 0.90258 0.0
H458 H 0.50855 0.95626 0.99706 0.0
C459 C 0.51329 0.85386 0.26064 0.0
C460 C 0.52396 0.8863 0.08439 0.0
H461 H 0.54075 0.93398 0.0685 0.0
C462 C 0.51469 0.88504 0.01161 0.0
C463 C 0.53356 0.90421 0.10487 0.0
C464 C 0.54463 0.90635 0.18035 0.0
C465 C 0.51454 0.90111 0.95955 0.0
C466 C 0.52414 0.91898 0.98 0.0
C467 C 0.53332 0.92034 0.05286 0.0
C468 C 0.52531 0.9361 0.92521 0.0
C469 C 0.50379 0.89894 0.88336 0.0
C470 C 0.53532 0.93414 0.85442 0.0
C471 C 0.53564 0.94972 0.80083 0.0
C472 C 0.52597 0.9677 0.8166 0.0
C473 C 0.51651 0.96996 0.88865 0.0
C474 C 0.51626 0.95432 0.94259 0.0
H475 H 0.4931 0.88647 0.88459 0.0
H476 H 0.49571 0.91273 0.86824 0.0
H477 H 0.5147 0.89597 0.83683 0.0
H478 H 0.54275 0.92042 0.84017 0.0
H479 H 0.54318 0.94751 0.74618 0.0
H480 H 0.68918 0.54002 0.28542 0.0
H481 H 0.65917 0.53502 0.20745 0.0
H482 H 0.69523 0.52111 0.00883 0.0
H483 H 0.72517 0.52574 0.08715 0.0
H484 H 0.64714 0.55538 0.07971 0.0
H485 H 0.65581 0.47641 1.00327 0.0
H486 H 0.67033 0.48802 0.07827 0.0
H487 H 0.67712 0.49081 0.97799 0.0
C488 C 0.69064 0.53564 0.22535 0.0
C489 C 0.70948 0.53341 0.19212 0.0
C490 C 0.6735 0.53285 0.18074 0.0
C491 C 0.67483 0.52752 0.10218 0.0
C492 C 0.6937 0.52484 0.06951 0.0
H493 H 0.59871 0.51678 0.70469 0.0
H494 H 0.62548 0.51954 0.79923 0.0
C495 C 0.71083 0.5276 0.11414 0.0
C496 C 0.65659 0.52571 0.05349 0.0
H497 H 0.63225 0.49483 0.92883 0.0
C498 C 0.64376 0.54205 0.04745 0.0
C499 C 0.65206 0.50832 0.01139 0.0
C500 C 0.66444 0.48983 0.01857 0.0
C501 C 0.62707 0.54172 0.99841 0.0
C502 C 0.62289 0.52453 0.9547 0.0
C503 C 0.63546 0.50806 0.96203 0.0
C504 C 0.60623 0.52361 0.8979 0.0
C505 C 0.61444 0.56004 0.99149 0.0
C506 C 0.58635 0.525 0.92156 0.0
C507 C 0.5709 0.52341 0.86719 0.0
C508 C 0.57508 0.52043 0.78829 0.0
C509 C 0.59497 0.51919 0.76498 0.0
C510 C 0.61032 0.5207 0.81904 0.0
H511 H 0.62177 0.57322 0.01702 0.0
H512 H 0.61093 0.56321 0.92982 0.0
H513 H 0.60028 0.55761 0.02253 0.0
H514 H 0.58276 0.52689 0.98224 0.0
H515 H 0.55577 0.52402 0.88712 0.0
H516 H 0.03564 0.67997 0.30277 0.0
H517 H 0.03285 0.65067 0.22008 0.0
H518 H 0.99874 0.68436 0.05484 0.0
H519 H 1.00181 0.71376 0.1367 0.0
H520 H 1.00128 0.62937 0.16597 0.0
H521 H 0.04215 0.66229 0.9191 0.0
H522 H 0.04148 0.67369 0.01348 0.0
H523 H 0.02096 0.67647 0.94782 0.0
C524 C 0.02734 0.68106 0.24921 0.0
C525 C 0.0187 0.69917 0.22715 0.0
C526 C 0.02579 0.6643 0.20183 0.0
C527 C 1.0158 0.66526 0.13048 0.0
C528 C 1.00685 0.68325 0.10881 0.0
H529 H 0.99435 0.58314 0.75303 0.0
H530 H 0.99428 0.61058 0.84508 0.0
C531 C 1.00845 0.70006 0.15614 0.0
C532 C 1.01503 0.64752 0.07869 0.0
H533 H 0.02694 0.63122 0.89698 0.0
C534 C 1.00696 0.62977 0.10724 0.0
C535 C 0.02254 0.6479 1.00204 0.0
C536 C 0.03245 0.66603 0.9689 0.0
C537 C 1.00575 0.61264 0.0609 0.0
C538 C 1.01308 0.6131 0.98405 0.0
C539 C 0.02125 0.63081 0.95571 0.0
C540 C 1.01213 0.5956 0.93119 0.0
C541 C 0.9962 0.59432 0.09399 0.0
C542 C 0.02205 0.57783 0.94882 0.0
C543 C 0.02208 0.562 0.89599 0.0
C544 C 1.0123 0.5637 0.82429 0.0
C545 C 1.00205 0.58133 0.80767 0.0
C546 C 1.00203 0.59708 0.86026 0.0
H547 H 0.98707 0.59774 0.14576 0.0
H548 H 0.98671 0.58697 0.05008 0.0
H549 H 1.0079 0.58372 0.11179 0.0
H550 H 0.03025 0.57638 1.00246 0.0
H551 H 0.03022 0.54867 0.91029 0.0
H552 H 0.03991 0.22916 0.32285 0.0
H553 H 0.02783 0.21245 0.43853 0.0
H554 H 0.98226 0.25669 0.46411 0.0
H555 H 0.99414 0.27327 0.34613 0.0
H556 H 1.01648 0.21856 0.59532 0.0
H557 H 0.95144 0.20757 0.39984 0.0
H558 H 0.97362 0.21898 0.3633 0.0
H559 H 0.95807 0.23209 0.43021 0.0
C560 C 0.02771 0.23566 0.35457 0.0
C561 C 0.01761 0.25213 0.32485 0.0
C562 C 0.0209 0.22622 0.42106 0.0
C563 C 1.00384 0.23306 0.45879 0.0
C564 C 0.99524 0.25099 0.43494 0.0
H565 H 0.94987 0.12132 0.56486 0.0
H566 H 0.95135 0.15697 0.58987 0.0
C567 C 1.00207 0.26048 0.36789 0.0
C568 C 0.99327 0.21895 0.50966 0.0
H569 H 0.9593 0.18234 0.4852 0.0
C570 C 1.00348 0.211 0.57341 0.0
C571 C 0.97601 0.20932 0.48238 0.0
C572 C 0.96407 0.21732 0.41522 0.0
C573 C 0.99861 0.19227 0.60293 0.0
C574 C 0.98339 0.18127 0.56679 0.0
C575 C 0.97124 0.1906 0.51188 0.0
C576 C 0.98287 0.15934 0.56981 0.0
C577 C 1.01088 0.1839 0.66823 0.0
C578 C 1.00009 0.14876 0.55101 0.0
C579 C 0.99928 0.12852 0.53694 0.0
C580 C 0.98118 0.11838 0.53991 0.0
C581 C 0.96403 0.12875 0.56181 0.0
C582 C 0.96488 0.14909 0.57647 0.0
H583 H 1.01337 0.19536 0.71325 0.0
H584 H 1.00377 0.17084 0.69545 0.0
H585 H 0.02561 0.17951 0.64575 0.0
H586 H 1.01407 0.15631 0.54312 0.0
H587 H 1.01285 0.12087 0.52238 0.0
H588 H 0.26334 0.98298 0.3444 0.0
H589 H 0.27818 0.9696 0.46316 0.0
H590 H 0.32317 1.0149 0.45306 0.0
H591 H 0.3078 0.02879 0.33873 0.0
H592 H 0.3104 0.95226 0.46598 0.0
H593 H 0.32118 1.01018 0.67772 0.0
H594 H 0.30333 1.01334 0.60072 0.0
H595 H 0.32858 0.02186 0.58951 0.0
C596 C 0.2759 0.99052 0.36974 0.0
C597 C 0.28467 1.00669 0.33163 0.0
C598 C 0.28441 0.98284 0.43751 0.0
C599 C 0.30178 0.99124 0.46805 0.0
C600 C 0.30951 1.00835 0.43288 0.0
H601 H 0.40781 0.95534 0.4369 0.0
H602 H 0.37221 0.95463 0.45008 0.0
C603 C 0.30093 1.0161 0.36612 0.0
C604 C 0.31437 0.98027 0.52432 0.0
H605 H 0.35321 0.99125 0.64176 0.0
C606 C 0.31926 0.96056 0.507 0.0
C607 C 0.32541 0.99027 0.58186 0.0
C608 C 0.31907 1.01001 0.61389 0.0
C609 C 0.33694 0.95219 0.53412 0.0
C610 C 0.3503 0.96416 0.57622 0.0
C611 C 0.34356 0.98231 0.60585 0.0
C612 C 0.37199 0.96059 0.57369 0.0
C613 C 0.34173 0.93114 0.51229 0.0
C614 C 0.38405 0.96433 0.63835 0.0
C615 C 0.40461 0.96551 0.63005 0.0
C616 C 0.41348 0.96293 0.55691 0.0
C617 C 0.40148 0.95778 0.4937 0.0
C618 C 0.38101 0.9569 0.50173 0.0
H619 H 0.32843 0.92168 0.51939 0.0
H620 H 0.34596 0.93052 0.4502 0.0
H621 H 0.35392 0.92495 0.54808 0.0
H622 H 0.37752 0.96739 0.69437 0.0
H623 H 0.41338 0.96958 0.68003 0.0
H624 H 0.47321 0.29633 0.26225 0.0
H625 H 0.47182 0.31395 0.38448 0.0
H626 H 0.51553 0.27443 0.48116 0.0
H627 H 0.51841 0.25785 0.35613 0.0
H628 H 0.46825 0.31229 0.54023 0.0
H629 H 0.54785 0.32329 0.46283 0.0
H630 H 0.53171 0.30986 0.39908 0.0
H631 H 0.53973 0.29897 0.48915 0.0
C632 C 0.48239 0.2912 0.30973 0.0
C633 C 0.49668 0.27642 0.29813 0.0
C634 C 0.48133 0.30109 0.38027 0.0
C635 C 0.49427 0.29609 0.44091 0.0
C636 C 0.50601 0.27905 0.434 0.0
H637 H 0.53433 0.40851 0.60345 0.0
H638 H 0.52777 0.37388 0.63463 0.0
C639 C 0.50749 0.26945 0.36247 0.0
C640 C 0.49844 0.31138 0.50015 0.0
H641 H 0.53194 0.34836 0.52667 0.0
C642 C 0.48238 0.31989 0.53968 0.0
C643 C 0.51702 0.32114 0.50129 0.0
C644 C 0.53508 0.31296 0.46085 0.0
C645 C 0.48366 0.33907 0.57029 0.0
C646 C 0.50137 0.34986 0.56064 0.0
C647 C 0.51822 0.34018 0.53258 0.0
C648 C 0.50186 0.37176 0.56136 0.0
C649 C 0.46564 0.34806 0.6076 0.0
C650 C 0.48916 0.3823 0.51155 0.0
C651 C 0.49281 0.40215 0.4942 0.0
C652 C 0.50942 0.41172 0.52532 0.0
C653 C 0.52151 0.40145 0.57819 0.0
C654 C 0.51768 0.38172 0.59659 0.0
H655 H 0.45759 0.33676 0.64213 0.0
H656 H 0.46955 0.36066 0.64588 0.0
H657 H 0.45541 0.35341 0.56175 0.0
H658 H 0.47725 0.37484 0.48153 0.0
H659 H 0.48329 0.40962 0.45296 0.0
H660 H 0.24107 0.57666 0.19458 0.0
H661 H 0.22297 0.59273 0.29798 0.0
H662 H 0.25685 0.56014 0.46778 0.0
H663 H 0.27413 0.54295 0.36366 0.0
H664 H 0.22096 0.55073 0.47974 0.0
H665 H 0.22009 0.63149 0.46699 0.0
H666 H 0.21655 0.62299 0.36992 0.0
H667 H 0.23934 0.61732 0.42024 0.0
C668 C 0.24507 0.57332 0.254 0.0
C669 C 0.25853 0.55806 0.27093 0.0
C670 C 0.23495 0.58286 0.3135 0.0
C671 C 0.23843 0.57766 0.3912 0.0
C672 C 0.25386 0.56438 0.40834 0.0
H673 H 0.12858 0.5682 0.65448 0.0
H674 H 0.16383 0.57659 0.64878 0.0
C675 C 0.26378 0.55457 0.34863 0.0
C676 C 0.22272 0.58162 0.44923 0.0
H677 H 0.18678 0.61555 0.4891 0.0
C678 C 0.21393 0.56509 0.48462 0.0
C679 C 0.21353 0.60033 0.45648 0.0
C680 C 0.22309 0.61901 0.42689 0.0
C681 C 0.19504 0.56619 0.5174 0.0
C682 C 0.18482 0.58447 0.51605 0.0
C683 C 0.19452 0.60149 0.48899 0.0
C684 C 0.16316 0.58509 0.52785 0.0
C685 C 0.18543 0.54731 0.5455 0.0
C686 C 0.15092 0.58849 0.46339 0.0
C687 C 0.13081 0.58395 0.46675 0.0
C688 C 0.12272 0.57582 0.53452 0.0
C689 C 0.13461 0.57414 0.60114 0.0
C690 C 0.15468 0.57896 0.59804 0.0
H691 H 0.19463 0.53403 0.5337 0.0
H692 H 0.18304 0.54817 0.60899 0.0
H693 H 0.17082 0.54522 0.51722 0.0
H694 H 0.15719 0.5932 0.40861 0.0
H695 H 0.12195 0.58538 0.41467 0.0
H696 H 1.00103 0.80992 0.09878 0.0
H697 H 1.01372 0.82771 0.98745 0.0
H698 H 0.05647 0.78133 0.94782 0.0
H699 H 0.04413 0.76376 0.0625 0.0
H700 H 0.07492 0.81357 0.9642 0.0
H701 H 1.01611 0.83202 0.76063 0.0
H702 H 1.00568 0.83635 0.85415 0.0
H703 H 1.01346 0.81164 0.82789 0.0
C704 C 1.01275 0.80323 0.06497 0.0
C705 C 0.02187 0.78571 0.08997 0.0
C706 C 0.01982 0.81325 1.00019 0.0
C707 C 0.03601 0.80584 0.95824 0.0
C708 C 0.04391 0.78731 0.97887 0.0
H709 H 0.06585 0.91986 0.7684 0.0
H710 H 0.06499 0.88395 0.75129 0.0
C711 C 0.03685 0.77727 0.0443 0.0
C712 C 0.04708 0.81962 0.90715 0.0
H713 H 0.03726 0.86133 0.8033 0.0
C714 C 0.0669 0.82356 0.92624 0.0
C715 C 0.03722 0.83235 0.85457 0.0
C716 C 1.01701 0.82762 0.82262 0.0
C717 C 0.07577 0.84152 0.90545 0.0
C718 C 0.0643 0.85598 0.86677 0.0
C719 C 0.04584 0.8506 0.83594 0.0
C720 C 0.06902 0.87732 0.87306 0.0
C721 C 0.09677 0.84542 0.93058 0.0
C722 C 0.07185 0.88557 0.947 0.0
C723 C 0.07246 0.90601 0.95687 0.0
C724 C 0.07002 0.91867 0.89313 0.0
C725 C 0.06808 0.91045 0.81855 0.0
C726 C 0.06751 0.88994 0.80865 0.0
H727 H 0.10583 0.83179 0.92477 0.0
H728 H 0.1037 0.85744 0.89603 0.0
H729 H 0.09693 0.84964 0.9927 0.0
H730 H 0.0724 0.87624 0.99805 0.0
H731 H 0.07401 0.91192 0.01487 0.0
H732 H 0.77274 0.03536 0.03745 0.0
H733 H 0.75586 0.052 0.93058 0.0
H734 H 0.72586 0.08975 0.09426 0.0
H735 H 0.74368 0.07418 0.19992 0.0
H736 H 0.71947 0.04459 0.92655 0.0
H737 H 0.72314 0.12529 0.91461 0.0
H738 H 0.74199 0.11096 0.96351 0.0
H739 H 0.71997 0.11882 0.01432 0.0
C740 C 0.76342 0.04797 0.05021 0.0
C741 C 0.75905 0.05309 0.1272 0.0
C742 C 0.75371 0.05747 0.98894 0.0
C743 C 0.73934 0.07202 1.00394 0.0
C744 C 0.737 0.07883 0.08025 0.0
H745 H 0.6225 0.08628 0.98506 0.0
H746 H 0.65818 0.0922 0.988 0.0
C747 C 0.74696 0.06961 0.14117 0.0
C748 C 0.72324 0.07582 0.94709 0.0
H749 H 0.68888 0.11092 0.90061 0.0
C750 C 0.71322 0.05921 0.91802 0.0
C751 C 0.715 0.09484 0.93529 0.0
C752 C 0.72581 0.11344 0.95807 0.0
C753 C 0.69416 0.06078 0.88697 0.0
C754 C 0.685 0.0796 0.88338 0.0
C755 C 0.69582 0.09648 0.90442 0.0
C756 C 0.66337 0.08128 0.87187 0.0
C757 C 0.68329 0.042 0.86593 0.0
C758 C 0.65436 0.07419 0.80413 0.0
C759 C 0.63405 0.07041 0.80308 0.0
C760 C 0.62246 0.07415 0.86906 0.0
C761 C 0.63115 0.08326 0.93362 0.0
C762 C 0.6515 0.08671 0.93513 0.0
H763 H 0.69169 0.02848 0.88217 0.0
H764 H 0.66867 0.04144 0.89517 0.0
H765 H 0.68075 0.04161 0.80243 0.0
H766 H 0.66321 0.07026 0.75421 0.0
H767 H 0.62755 0.06365 0.75217 0.0
H768 H 0.47298 0.76911 0.11185 0.0
H769 H 0.45529 0.75091 0.0097 0.0
H770 H 0.50738 0.71539 0.97043 0.0
H771 H 0.52492 0.73358 0.07111 0.0
H772 H 0.48264 0.7207 0.83422 0.0
H773 H 0.4409 0.69608 0.09661 0.0
H774 H 0.44043 0.72166 0.06795 0.0
H775 H 0.46272 0.71112 0.10707 0.0
C776 C 0.48081 0.75801 0.07865 0.0
C777 C 0.50014 0.75248 0.09917 0.0
C778 C 0.47071 0.7476 0.02072 0.0
C779 C 0.47992 0.73158 0.98365 0.0
C780 C 0.49999 0.72772 0.99822 0.0
H781 H 0.50334 0.62428 0.88212 0.0
H782 H 0.49603 0.65927 0.86864 0.0
C783 C 0.51 0.73803 0.05588 0.0
C784 C 0.46837 0.71598 0.9443 0.0
H785 H 0.4455 0.67327 0.99814 0.0
C786 C 0.47379 0.71061 0.86872 0.0
C787 C 0.45642 0.703 0.98858 0.0
C788 C 0.4497 0.70812 0.06957 0.0
C789 C 0.46992 0.69154 0.84063 0.0
C790 C 0.46092 0.67752 0.89029 0.0
C791 C 0.45277 0.6839 0.96063 0.0
C792 C 0.46428 0.65598 0.88107 0.0
C793 C 0.47682 0.68614 0.76042 0.0
C794 C 0.44893 0.6423 0.8933 0.0
C795 C 0.45321 0.62218 0.9031 0.0
C796 C 0.47291 0.61552 0.90169 0.0
C797 C 0.48807 0.62907 0.88535 0.0
C798 C 0.48382 0.64906 0.87561 0.0
H799 H 0.47474 0.69879 0.72001 0.0
H800 H 0.49288 0.68272 0.7619 0.0
H801 H 0.46871 0.67311 0.73762 0.0
H802 H 0.43378 0.64732 0.89879 0.0
H803 H 0.44123 0.61199 0.91517 0.0
H804 H 0.79898 0.45987 0.19768 0.0
H805 H 0.81612 0.44607 0.0866 0.0
H806 H 0.77995 0.48121 0.9328 0.0
H807 H 0.76368 0.49627 0.04491 0.0
H808 H 0.81331 0.42854 0.94671 0.0
H809 H 0.83194 0.50857 0.90942 0.0
H810 H 0.81751 0.50018 0.99048 0.0
H811 H 0.80669 0.50135 0.89518 0.0
C812 C 0.79437 0.46437 0.14013 0.0
C813 C 0.78068 0.4798 0.13 0.0
C814 C 0.80403 0.45629 0.07643 0.0
C815 C 0.79992 0.46326 1.00148 0.0
C816 C 0.78387 0.47619 0.99042 0.0
H817 H 0.91011 0.47538 0.75629 0.0
H818 H 0.87443 0.46917 0.75264 0.0
C819 C 0.77444 0.48465 0.05454 0.0
C820 C 0.8152 0.46034 0.94091 0.0
H821 H 0.85375 0.48566 0.86128 0.0
C822 C 0.82187 0.44102 0.92582 0.0
C823 C 0.82632 0.47663 0.9128 0.0
C824 C 0.82039 0.49785 0.92783 0.0
C825 C 0.84032 0.43763 0.89094 0.0
C826 C 0.85233 0.45396 0.87104 0.0
C827 C 0.84458 0.47314 0.8772 0.0
C828 C 0.87398 0.4522 0.85914 0.0
C829 C 0.84723 0.41663 0.87983 0.0
C830 C 0.88573 0.44405 0.91848 0.0
C831 C 0.90608 0.44756 0.92049 0.0
C832 C 0.91493 0.45953 0.86384 0.0
C833 C 0.90349 0.46633 0.80118 0.0
C834 C 0.88318 0.46265 0.79871 0.0
H835 H 0.83456 0.4068 0.86586 0.0
H836 H 0.8584 0.41551 0.83292 0.0
H837 H 0.85392 0.41117 0.93462 0.0
H838 H 0.87898 0.43642 0.96693 0.0
H839 H 0.91457 0.44224 0.96956 0.0
H840 H 0.04669 0.23999 0.98407 0.0
H841 H 0.04665 0.2098 0.90444 0.0
H842 H 0.99417 0.18966 0.02233 0.0
H843 H 0.99371 0.21985 0.09889 0.0
H844 H 0.05146 0.17276 0.95326 0.0
H845 H 0.97891 0.17589 0.80659 0.0
H846 H 0.98973 0.19721 0.85299 0.0
H847 H 0.9763 0.17913 0.90902 0.0
C848 C 0.0348 0.2294 0.99106 0.0
C849 C 0.02023 0.23238 0.04805 0.0
C850 C 0.03488 0.21203 0.94602 0.0
C851 C 0.02028 0.19736 0.9564 0.0
C852 C 1.00534 0.20077 0.01128 0.0
H853 H 0.03061 0.07046 0.89722 0.0
H854 H 0.03078 0.10485 0.94109 0.0
C855 C 1.00522 0.21806 0.05582 0.0
C856 C 0.02148 0.17779 0.91569 0.0
H857 H 0.99382 0.14363 0.81706 0.0
C858 C 0.03891 0.16654 0.92261 0.0
C859 C 1.00527 0.16954 0.87464 0.0
C860 C 0.98659 0.18117 0.85962 0.0
C861 C 0.04029 0.14719 0.89276 0.0
C862 C 0.02364 0.13848 0.85623 0.0
C863 C 1.0065 0.15002 0.84631 0.0
C864 C 0.02361 0.11741 0.82902 0.0
C865 C 0.05967 0.13629 0.90048 0.0
C866 C 0.01893 0.11274 0.75175 0.0
C867 C 0.01868 0.09299 0.72654 0.0
C868 C 0.02298 0.07734 0.77809 0.0
C869 C 0.02743 0.08205 0.85559 0.0
C870 C 0.02766 0.1018 0.88073 0.0
H871 H 0.07228 0.14671 0.9066 0.0
H872 H 0.05926 0.12689 0.95322 0.0
H873 H 0.06243 0.12665 0.84961 0.0
H874 H 1.01557 0.12441 0.71066 0.0
H875 H 1.015 0.09002 0.66656 0.0
H876 H 0.32074 0.04387 0.13655 0.0
H877 H 0.35125 0.0433 0.06078 0.0
H878 H 0.32449 1.0027 0.89951 0.0
H879 H 0.29372 1.00315 0.97604 0.0
H880 H 0.37207 1.00583 0.03634 0.0
H881 H 0.35422 0.04433 0.75924 0.0
H882 H 0.34066 0.04925 0.84739 0.0
H883 H 0.33697 0.02643 0.79684 0.0
C884 C 0.32116 0.03516 0.08394 0.0
C885 C 0.30479 0.02352 0.06246 0.0
C886 C 0.33865 0.03481 0.04074 0.0
C887 C 0.34025 0.02295 0.9744 0.0
C888 C 0.32358 1.01214 0.95 0.0
H889 H 0.44666 1.00427 0.68723 0.0
H890 H 0.41264 1.00428 0.73623 0.0
C891 C 0.30595 1.01247 0.99356 0.0
C892 C 0.35998 0.0206 0.93645 0.0
H893 H 0.38682 0.03269 0.77512 0.0
C894 C 0.37527 1.01165 0.97907 0.0
C895 C 0.36411 0.02787 0.86126 0.0
C896 C 0.34823 0.03761 0.81312 0.0
C897 C 0.39458 1.01003 0.94937 0.0
C898 C 0.39905 0.01823 0.87572 0.0
C899 C 0.38357 0.0266 0.83186 0.0
C900 C 0.41976 0.01866 0.84461 0.0
C901 C 0.40991 0.99926 0.99713 0.0
C902 C 0.43518 0.02716 0.88802 0.0
C903 C 0.45469 0.02705 0.86046 0.0
C904 C 0.4593 0.01872 0.78802 0.0
C905 C 0.44375 1.01072 0.74347 0.0
C906 C 0.42423 1.01072 0.77141 0.0
H907 H 0.40293 0.98841 0.0371 0.0
H908 H 0.42064 0.9913 0.95984 0.0
H909 H 0.41812 1.01011 0.03306 0.0
H910 H 0.43215 0.03395 0.94352 0.0
H911 H 0.46616 0.03357 0.89602 0.0
H912 H 0.48167 0.30507 0.03089 0.0
H913 H 0.4852 0.33693 0.96437 0.0
H914 H 0.54837 0.32864 0.95537 0.0
H915 H 0.5448 0.29654 0.02166 0.0
H916 H 0.5366 0.3652 0.02108 0.0
H917 H 0.49924 0.35307 0.73974 0.0
H918 H 0.48449 0.34562 0.82125 0.0
H919 H 0.50728 0.33292 0.80093 0.0
C920 C 0.49625 0.30975 0.0124 0.0
C921 C 0.51293 0.29813 0.03043 0.0
C922 C 0.49827 0.32801 0.97448 0.0
C923 C 0.51705 0.33525 0.95421 0.0
C924 C 0.53371 0.32338 0.96989 0.0
H925 H 0.53499 0.4446 0.68971 0.0
H926 H 0.5352 0.41049 0.73785 0.0
C927 C 0.53166 0.30493 0.00706 0.0
C928 C 0.51926 0.35586 0.92313 0.0
H929 H 0.50455 0.38672 0.77638 0.0
C930 C 0.52972 0.36986 0.96726 0.0
C931 C 0.51046 0.36202 0.85255 0.0
C932 C 0.49989 0.34759 0.80041 0.0
C933 C 0.53114 0.38983 0.944 0.0
C934 C 0.52159 0.3962 0.87513 0.0
C935 C 0.51164 0.38205 0.82979 0.0
C936 C 0.52203 0.41734 0.84823 0.0
C937 C 0.54313 0.40386 0.99308 0.0
C938 C 0.51478 0.43279 0.89484 0.0
C939 C 0.51501 0.45248 0.86832 0.0
C940 C 0.52218 0.45721 0.7939 0.0
C941 C 0.52929 0.44166 0.74723 0.0
C942 C 0.52931 0.42206 0.77432 0.0
H943 H 0.55391 0.39582 0.03024 0.0
H944 H 0.55132 0.41462 0.95652 0.0
H945 H 0.53304 0.41224 0.03165 0.0
H946 H 0.5087 0.42962 0.95153 0.0
H947 H 0.50927 0.46396 0.90576 0.0
H948 H 0.22459 0.49584 0.14454 0.0
H949 H 0.19253 0.4916 0.07987 0.0
H950 H 0.21173 0.53006 0.89505 0.0
H951 H 0.24389 0.53407 0.95959 0.0
H952 H 0.16692 0.52239 0.05465 0.0
H953 H 0.18399 0.48643 0.77403 0.0
H954 H 0.20125 0.48663 0.85398 0.0
H955 H 0.19845 0.50814 0.7935 0.0
C956 C 0.22223 0.50267 0.08843 0.0
C957 C 0.23691 0.51482 0.05591 0.0
C958 C 0.20382 0.50044 0.05188 0.0
C959 C 0.19964 0.51035 0.98199 0.0
C960 C 0.21464 0.52187 0.94783 0.0
H961 H 0.09159 0.5306 0.71336 0.0
H962 H 0.1255 0.52979 0.76296 0.0
C963 C 0.23308 0.5241 0.9845 0.0
C964 C 0.17906 0.51027 0.94971 0.0
H965 H 0.15153 0.49953 0.7885 0.0
C966 C 0.16356 0.51723 0.99663 0.0
C967 C 0.1746 0.5038 0.87363 0.0
C968 C 0.1904 0.49566 0.82096 0.0
C969 C 0.14391 0.51814 0.96958 0.0
C970 C 0.13937 0.51146 0.89381 0.0
C971 C 0.15489 0.50459 0.84663 0.0
C972 C 0.11867 0.51155 0.8626 0.0
C973 C 0.12831 0.52685 0.02192 0.0
C974 C 0.1034 0.50136 0.90103 0.0
C975 C 0.08393 0.50184 0.87262 0.0
C976 C 0.07926 0.51228 0.80433 0.0
C977 C 0.09463 0.5222 0.76534 0.0
C978 C 0.11408 0.52181 0.79394 0.0
H979 H 0.13493 0.53646 0.0672 0.0
H980 H 0.1174 0.53569 0.9884 0.0
H981 H 0.12032 0.51468 0.05168 0.0
H982 H 0.10653 0.49293 0.95303 0.0
H983 H 0.07257 0.49387 0.90394 0.0
H984 H 0.98373 0.8005 0.38888 0.0
H985 H 0.98399 0.83168 0.46239 0.0
H986 H 0.04727 0.83526 0.43533 0.0
H987 H 0.04693 0.80441 0.36092 0.0
H988 H 1.00357 0.8473 0.59544 0.0
H989 H 0.0275 0.88531 0.32624 0.0
H990 H 0.01886 0.86008 0.32681 0.0
H991 H 0.0437 0.86574 0.35674 0.0
C992 C 0.99774 0.80761 0.40113 0.0
C993 C 1.01534 0.79992 0.37001 0.0
C994 C 0.99789 0.82552 0.44258 0.0
C995 C 1.01561 0.83611 0.45315 0.0
C996 C 0.03336 0.82763 0.42684 0.0
H997 H 0.03151 0.94438 0.73029 0.0
H998 H 0.0314 0.91023 0.68388 0.0
C999 C 0.0332 0.80985 0.38519 0.0
C1000 C 1.01541 0.85665 0.48569 0.0
H1001 H 0.02636 0.90469 0.4399 0.0
C1002 C 1.00852 0.85986 0.56146 0.0
C1003 C 0.0216 0.87317 0.44116 0.0
C1004 C 0.02816 0.87101 0.358 0.0
C1005 C 1.00787 0.87902 0.59402 0.0
C1006 C 1.01456 0.8955 0.55005 0.0
C1007 C 0.02129 0.89221 0.4741 0.0
C1008 C 1.01433 0.91635 0.58023 0.0
C1009 C 0.99953 0.88138 0.67454 0.0
C1010 C 1.00539 0.93158 0.53671 0.0
C1011 C 1.0058 0.95127 0.5624 0.0
C1012 C 1.01505 0.9563 0.63271 0.0
C1013 C 0.02398 0.94107 0.67639 0.0
C1014 C 0.02379 0.92141 0.65012 0.0
H1015 H 0.98981 0.86876 0.69051 0.0
H1016 H 1.01188 0.8818 0.71691 0.0
H1017 H 0.99093 0.8953 0.67983 0.0
H1018 H 0.99807 0.92823 0.48243 0.0
H1019 H 0.9988 0.96255 0.52715 0.0
H1020 H 0.71636 1.00477 0.24732 0.0
H1021 H 0.68521 1.00162 0.31816 0.0
H1022 H 0.71484 0.01833 0.52954 0.0
H1023 H 0.7462 0.0217 0.45789 0.0
H1024 H 0.6726 0.9795 0.44475 0.0
H1025 H 0.67097 0.05995 0.5111 0.0
H1026 H 0.68812 0.04943 0.44251 0.0
H1027 H 0.69242 0.04677 0.54476 0.0
C1028 C 0.71632 1.00737 0.30926 0.0
C1029 C 0.73372 1.01345 0.34714 0.0
C1030 C 0.69848 1.00564 0.3497 0.0
C1031 C 0.6975 1.01012 0.429 0.0
C1032 C 0.7151 1.01516 0.46807 0.0
H1033 H 0.59123 0.02345 0.71785 0.0
H1034 H 0.62538 0.02161 0.67207 0.0
C1035 C 0.73307 1.01682 0.42744 0.0
C1036 C 0.67783 1.01029 0.46866 0.0
H1037 H 0.64393 0.04098 0.55377 0.0
C1038 C 0.66639 0.99293 0.469 0.0
C1039 C 0.66962 0.0278 0.50036 0.0
C1040 C 0.68079 0.04712 0.49937 0.0
C1041 C 0.64708 0.9926 0.49956 0.0
C1042 C 0.63866 1.01023 0.52924 0.0
C1043 C 0.65028 0.02748 0.53077 0.0
C1044 C 0.61775 1.01122 0.55735 0.0
C1045 C 0.63593 0.97327 0.5004 0.0
C1046 C 0.60189 1.00635 0.50811 0.0
C1047 C 0.58227 1.00743 0.53439 0.0
C1048 C 0.57799 1.01352 0.61053 0.0
C1049 C 0.59389 0.01863 0.65925 0.0
C1050 C 0.61349 0.01758 0.63298 0.0
H1051 H 0.64615 0.96041 0.49812 0.0
H1052 H 0.62659 0.97192 0.55303 0.0
H1053 H 0.62617 0.97255 0.44876 0.0
H1054 H 0.60466 1.00188 0.44888 0.0
H1055 H 0.57047 1.00349 0.49484 0.0
H1056 H 0.5495 0.73784 0.39864 0.0
H1057 H 0.55276 0.70728 0.47543 0.0
H1058 H 0.49259 0.69175 0.41913 0.0
H1059 H 0.48906 0.7224 0.34583 0.0
H1060 H 0.50023 0.68092 0.56262 0.0
H1061 H 0.56146 0.65446 0.37544 0.0
H1062 H 0.56668 0.67711 0.42544 0.0
H1063 H 0.54747 0.67646 0.35322 0.0
C1064 C 0.53684 0.72813 0.40438 0.0
C1065 C 0.5191 0.73249 0.36516 0.0
C1066 C 0.5388 0.71046 0.44729 0.0
C1067 C 0.52312 0.69674 0.45137 0.0
C1068 C 0.50503 0.70183 0.41654 0.0
H1069 H 0.52651 0.56939 0.50732 0.0
H1070 H 0.52642 0.6038 0.46348 0.0
C1071 C 0.50304 0.71942 0.37431 0.0
C1072 C 0.52544 0.67673 0.48834 0.0
H1073 H 0.55153 0.63337 0.47683 0.0
C1074 C 0.51154 0.67059 0.54411 0.0
C1075 C 0.53996 0.66296 0.46358 0.0
C1076 C 0.55464 0.66794 0.40066 0.0
C1077 C 0.51153 0.65119 0.57456 0.0
C1078 C 0.52624 0.63753 0.55062 0.0
C1079 C 0.54032 0.64376 0.4958 0.0
C1080 C 0.52674 0.61647 0.57859 0.0
C1081 C 0.49515 0.64536 0.62937 0.0
C1082 C 0.52726 0.61185 0.65812 0.0
C1083 C 0.52713 0.59209 0.68348 0.0
C1084 C 0.5268 0.57635 0.62998 0.0
C1085 C 0.5268 0.58101 0.5504 0.0
C1086 C 0.52676 0.60077 0.52513 0.0
H1087 H 0.482 0.65506 0.62234 0.0
H1088 H 0.49044 0.62982 0.62002 0.0
H1089 H 0.50045 0.64684 0.68997 0.0
H1090 H 0.52776 0.62355 0.70086 0.0
H1091 H 0.52725 0.58918 0.74522 0.0
H1092 H 0.79373 0.51012 0.46241 0.0
H1093 H 0.82509 0.51403 0.53375 0.0
H1094 H 0.85404 0.53183 0.32228 0.0
H1095 H 0.82292 0.52827 0.25192 0.0
H1096 H 0.85895 0.4928 0.50693 0.0
H1097 H 0.87578 0.57226 0.47081 0.0
H1098 H 0.85149 0.5622 0.45251 0.0
H1099 H 0.87054 0.56058 0.3799 0.0
C1100 C 0.80666 0.51551 0.43197 0.0
C1101 C 0.80583 0.51903 0.35171 0.0
C1102 C 0.82463 0.51756 0.47252 0.0
C1103 C 0.842 0.52343 0.43376 0.0
C1104 C 0.84088 0.52772 0.35421 0.0
H1105 H 0.96883 0.52615 0.5029 0.0
H1106 H 0.93466 0.52766 0.45587 0.0
C1107 C 0.82305 0.52561 0.31386 0.0
C1108 C 0.86166 0.52339 0.47383 0.0
H1109 H 0.90325 0.55125 0.50359 0.0
C1110 C 0.86851 0.50568 0.50723 0.0
C1111 C 0.87428 0.54013 0.47408 0.0
C1112 C 0.86758 0.55991 0.44308 0.0
C1113 C 0.8878 0.50401 0.53776 0.0
C1114 C 0.90059 0.52062 0.53618 0.0
C1115 C 0.89358 0.53846 0.50443 0.0
C1116 C 0.92141 0.51969 0.56565 0.0
C1117 C 0.89451 0.48425 0.56889 0.0
C1118 C 0.92548 0.51495 0.64338 0.0
C1119 C 0.94504 0.51408 0.67043 0.0
C1120 C 0.96107 0.51799 0.62067 0.0
C1121 C 0.95694 0.52297 0.54303 0.0
C1122 C 0.93736 0.52387 0.51599 0.0
H1123 H 0.88508 0.47195 0.54748 0.0
H1124 H 0.9101 0.48118 0.55272 0.0
H1125 H 0.8935 0.48444 0.63299 0.0
H1126 H 0.9135 0.51206 0.68348 0.0
H1127 H 0.94758 0.51045 0.73055 0.0
loop_
_geom_bond_atom_site_label_1
_geom_bond_atom_site_label_2
_geom_bond_distance
_geom_bond_site_symmetry_2
_ccdc_geom_bond_type
H0 C7 0.929 . S
H1 C10 0.930 . S
H2 C12 0.929 . S
H3 C4 0.969 . S
C4 H3 0.969 . S
C4 O5 1.550 . S
C4 H6 0.973 . S
O5 C4 1.550 . S
O5 C11 1.412 . S
H6 C4 0.973 . S
C7 H0 0.929 . S
C7 C8 1.400 . S
C7 C9 1.364 . S
C8 C7 1.400 . S
C8 C12 1.377 . S
C9 C7 1.364 . S
C9 C10 1.374 . S
C10 H1 0.930 . S
C10 C9 1.374 . S
C10 C11 1.383 . S
C11 O5 1.412 . S
C11 C10 1.383 . S
C11 C12 1.394 . S
C12 H2 0.929 . S
C12 C8 1.377 . S
C12 C11 1.394 . S
H13 C20 0.928 . S
H14 C23 0.934 . S
H15 C25 0.931 . S
H16 C17 0.969 . S
C17 H16 0.969 . S
C17 O18 1.550 1_455 S
C17 H19 0.973 1_455 S
O18 C17 1.550 1_655 S
O18 C24 1.415 . S
H19 C17 0.973 1_655 S
C20 H13 0.928 . S
C20 C21 1.400 . S
C20 C22 1.364 . S
C21 C20 1.400 . S
C21 C25 1.377 . S
C22 C20 1.364 . S
C22 C23 1.374 . S
C23 H14 0.934 . S
C23 C22 1.374 . S
C23 C24 1.382 . S
C24 O18 1.415 . S
C24 C23 1.382 . S
C24 C25 1.394 . S
C25 H15 0.931 . S
C25 C21 1.377 . S
C25 C24 1.394 . S
H26 C33 0.931 . S
H27 C36 0.930 . S
H28 C38 0.932 . S
H29 C30 0.969 . S
C30 H29 0.969 . S
C30 O31 1.550 1_545 S
C30 H32 0.973 1_545 S
O31 C30 1.550 1_565 S
O31 C37 1.418 . S
H32 C30 0.973 1_565 S
C33 H26 0.931 . S
C33 C34 1.400 . S
C33 C35 1.364 . S
C34 C33 1.400 . S
C34 C38 1.377 . S
C35 C33 1.364 . S
C35 C36 1.376 . S
C36 H27 0.930 . S
C36 C35 1.376 . S
C36 C37 1.384 . S
C37 O31 1.418 . S
C37 C36 1.384 . S
C37 C38 1.394 . S
C38 H28 0.932 . S
C38 C34 1.377 . S
C38 C37 1.394 . S
H39 C46 0.929 . S
H40 C49 0.930 . S
H41 C51 0.929 . S
H42 C43 0.969 . S
C43 H42 0.969 . S
C43 O44 1.550 . S
C43 H45 0.973 . S
O44 C43 1.550 . S
O44 C50 1.412 . S
H45 C43 0.973 . S
C46 H39 0.929 . S
C46 C47 1.400 . S
C46 C48 1.364 . S
C47 C46 1.400 . S
C47 C51 1.377 . S
C48 C46 1.364 . S
C48 C49 1.374 . S
C49 H40 0.930 . S
C49 C48 1.374 . S
C49 C50 1.383 . S
C50 O44 1.412 . S
C50 C49 1.383 . S
C50 C51 1.394 . S
C51 H41 0.929 . S
C51 C47 1.377 . S
C51 C50 1.394 . S
H52 C59 0.929 . S
H53 C62 0.930 . S
H54 C64 0.929 . S
H55 C56 0.969 . S
C56 H55 0.969 . S
C56 O57 1.550 . S
C56 H58 0.973 . S
O57 C56 1.550 . S
O57 C63 1.412 . S
H58 C56 0.973 . S
C59 H52 0.929 . S
C59 C60 1.400 1_554 S
C59 C61 1.364 . S
C60 C59 1.400 1_556 S
C60 C64 1.377 . S
C61 C59 1.364 . S
C61 C62 1.374 . S
C62 H53 0.930 . S
C62 C61 1.374 . S
C62 C63 1.383 . S
C63 O57 1.412 . S
C63 C62 1.383 . S
C63 C64 1.394 1_554 S
C64 H54 0.929 . S
C64 C60 1.377 . S
C64 C63 1.394 1_556 S
H65 C72 0.929 . S
H66 C75 0.933 . S
H67 C77 0.929 . S
H68 C69 0.969 . S
C69 H68 0.969 . S
C69 O70 1.550 1_455 S
C69 H71 0.973 1_455 S
O70 C69 1.550 1_655 S
O70 C76 1.412 1_655 S
H71 C69 0.973 1_655 S
C72 H65 0.929 . S
C72 C73 1.400 1_554 S
C72 C74 1.364 . S
C73 C72 1.400 1_556 S
C73 C77 1.377 . S
C74 C72 1.364 . S
C74 C75 1.374 . S
C75 H66 0.933 . S
C75 C74 1.374 . S
C75 C76 1.383 . S
C76 O70 1.412 1_455 S
C76 C75 1.383 . S
C76 C77 1.394 1_554 S
C77 H67 0.929 . S
C77 C73 1.377 . S
C77 C76 1.394 1_556 S
H78 C85 0.931 . S
H79 C88 0.930 . S
H80 C90 0.932 . S
H81 C82 0.969 . S
C82 H81 0.969 . S
C82 O83 1.550 1_545 S
C82 H84 0.973 1_545 S
O83 C82 1.550 1_565 S
O83 C89 1.412 1_565 S
H84 C82 0.973 1_565 S
C85 H78 0.931 . S
C85 C86 1.400 1_554 S
C85 C87 1.364 . S
C86 C85 1.400 1_556 S
C86 C90 1.377 . S
C87 C85 1.364 . S
C87 C88 1.377 . S
C88 H79 0.930 . S
C88 C87 1.377 . S
C88 C89 1.386 . S
C89 O83 1.412 1_545 S
C89 C88 1.386 . S
C89 C90 1.394 1_554 S
C90 H80 0.932 . S
C90 C86 1.377 . S
C90 C89 1.394 1_556 S
H91 C98 0.929 . S
H92 C101 0.930 . S
H93 C103 0.929 . S
H94 C95 0.969 . S
C95 H94 0.969 . S
C95 O96 1.550 . S
C95 H97 0.973 . S
O96 C95 1.550 . S
O96 C102 1.412 . S
H97 C95 0.973 . S
C98 H91 0.929 . S
C98 C99 1.400 1_554 S
C98 C100 1.364 . S
C99 C98 1.400 1_556 S
C99 C103 1.377 . S
C100 C98 1.364 . S
C100 C101 1.374 . S
C101 H92 0.930 . S
C101 C100 1.374 . S
C101 C102 1.383 . S
C102 O96 1.412 . S
C102 C101 1.383 . S
C102 C103 1.394 1_554 S
C103 H93 0.929 . S
C103 C99 1.377 . S
C103 C102 1.394 1_556 S
La104 C106 2.928 . S
La104 O124 2.521 . S
La104 O125 2.629 . S
La104 O126 2.554 . S
La104 O127 2.757 1_565 S
La104 O128 2.470 . S
La104 O133 2.482 1_455 S
La104 O135 2.503 1_565 S
La105 C115 2.928 . S
La105 O127 2.482 1_655 S
La105 O129 2.503 1_545 S
La105 O130 2.521 . S
La105 O131 2.620 1_655 S
La105 O132 2.554 . S
La105 O133 2.757 1_545 S
La105 O134 2.470 . S
C106 La104 2.928 . S
C106 C107 1.503 . S
C106 O124 1.261 . S
C106 O125 1.246 . S
C107 C106 1.503 . S
C107 C108 1.394 . S
C107 C112 1.373 . S
C108 C107 1.394 . S
C108 C109 1.380 . S
C108 H136 0.930 . S
C109 C108 1.380 . S
C109 C110 1.376 . S
C109 H137 0.930 . S
C110 C109 1.376 . S
C110 C111 1.370 . S
C111 C110 1.370 . S
C111 C112 1.396 . S
C111 H138 0.929 1_455 S
C112 C107 1.373 . S
C112 C111 1.396 . S
C112 H139 0.929 1_455 S
C113 O126 1.265 . S
C113 O127 1.275 1_565 S
C114 O128 1.258 1_655 S
C114 O129 1.256 . S
C115 La105 2.928 . S
C115 C116 1.503 . S
C115 O130 1.261 . S
C115 O131 1.225 1_655 S
C116 C115 1.503 . S
C116 C117 1.394 . S
C116 C121 1.373 . S
C117 C116 1.394 . S
C117 C118 1.380 . S
C117 H140 0.930 . S
C118 C117 1.380 . S
C118 C119 1.376 . S
C118 H141 0.930 . S
C119 C118 1.376 . S
C119 C120 1.370 . S
C120 C119 1.370 . S
C120 C121 1.396 . S
C120 H142 0.929 1_655 S
C121 C116 1.373 . S
C121 C120 1.396 . S
C121 H143 0.929 1_655 S
C122 O132 1.272 . S
C122 O133 1.271 1_545 S
C123 O134 1.258 1_455 S
C123 O135 1.256 . S
O124 La104 2.521 . S
O124 C106 1.261 . S
O125 La104 2.629 . S
O125 C106 1.246 . S
O126 La104 2.554 . S
O126 C113 1.265 . S
O127 La104 2.757 1_545 S
O127 La105 2.482 1_455 S
O127 C113 1.275 1_545 S
O128 La104 2.470 . S
O128 C114 1.258 1_455 S
O129 La105 2.503 1_565 S
O129 C114 1.256 . S
O130 La105 2.521 . S
O130 C115 1.261 . S
O131 La105 2.620 1_455 S
O131 C115 1.225 1_455 S
O132 La105 2.554 . S
O132 C122 1.272 . S
O133 La104 2.482 1_655 S
O133 La105 2.757 1_565 S
O133 C122 1.271 1_565 S
O134 La105 2.470 . S
O134 C123 1.258 1_655 S
O135 La104 2.503 1_545 S
O135 C123 1.256 . S
H136 C108 0.930 . S
H137 C109 0.930 . S
H138 C111 0.929 1_655 S
H139 C112 0.929 1_655 S
H140 C117 0.930 . S
H141 C118 0.930 . S
H142 C120 0.929 1_455 S
H143 C121 0.929 1_455 S
La144 C146 2.928 . S
La144 O164 2.521 . S
La144 O165 2.630 1_545 S
La144 O166 2.554 . S
La144 O167 2.757 . S
La144 O168 2.470 . S
La144 O173 2.482 1_545 S
La144 O175 2.503 . S
La145 C155 2.928 . S
La145 O167 2.482 1_565 S
La145 O169 2.503 . S
La145 O170 2.521 . S
La145 O171 2.625 1_565 S
La145 O172 2.554 . S
La145 O173 2.757 . S
La145 O174 2.470 . S
C146 La144 2.928 . S
C146 C147 1.503 . S
C146 O164 1.261 . S
C146 O165 1.249 1_545 S
C147 C146 1.503 . S
C147 C148 1.394 . S
C147 C152 1.373 . S
C148 C147 1.394 . S
C148 C149 1.380 . S
C148 H176 0.930 . S
C149 C148 1.380 . S
C149 C150 1.376 . S
C149 H177 0.930 . S
C150 C149 1.376 . S
C150 C151 1.370 . S
C151 C150 1.370 . S
C151 C152 1.396 . S
C151 H178 0.929 1_545 S
C152 C147 1.373 . S
C152 C151 1.396 . S
C152 H179 0.929 1_545 S
C153 O166 1.240 . S
C153 O167 1.289 . S
C154 O168 1.258 1_565 S
C154 O169 1.256 . S
C155 La145 2.928 . S
C155 C156 1.503 . S
C155 O170 1.261 . S
C155 O171 1.236 1_565 S
C156 C155 1.503 . S
C156 C157 1.394 . S
C156 C161 1.373 . S
C157 C156 1.394 . S
C157 C158 1.380 . S
C157 H180 0.930 . S
C158 C157 1.380 . S
C158 C159 1.376 . S
C158 H181 0.930 . S
C159 C158 1.376 . S
C159 C160 1.370 . S
C160 C159 1.370 . S
C160 C161 1.396 . S
C160 H182 0.929 1_565 S
C161 C156 1.373 . S
C161 C160 1.396 . S
C161 H183 0.929 1_565 S
C162 O172 1.240 . S
C162 O173 1.289 . S
C163 O174 1.258 1_545 S
C163 O175 1.256 . S
O164 La144 2.521 . S
O164 C146 1.261 . S
O165 La144 2.630 1_565 S
O165 C146 1.249 1_565 S
O166 La144 2.554 . S
O166 C153 1.240 . S
O167 La144 2.757 . S
O167 La145 2.482 1_545 S
O167 C153 1.289 . S
O168 La144 2.470 . S
O168 C154 1.258 1_545 S
O169 La145 2.503 . S
O169 C154 1.256 . S
O170 La145 2.521 . S
O170 C155 1.261 . S
O171 La145 2.625 1_545 S
O171 C155 1.236 1_545 S
O172 La145 2.554 . S
O172 C162 1.240 . S
O173 La144 2.482 1_565 S
O173 La145 2.757 . S
O173 C162 1.289 . S
O174 La145 2.470 . S
O174 C163 1.258 1_565 S
O175 La144 2.503 . S
O175 C163 1.256 . S
H176 C148 0.930 . S
H177 C149 0.930 . S
H178 C151 0.929 1_565 S
H179 C152 0.929 1_565 S
H180 C157 0.930 . S
H181 C158 0.930 . S
H182 C160 0.929 1_545 S
H183 C161 0.929 1_545 S
La184 C186 2.928 . S
La184 O204 2.521 . S
La184 O205 2.628 . S
La184 O206 2.554 . S
La184 O207 2.757 . S
La184 O208 2.470 . S
La184 O213 2.482 . S
La184 O215 2.503 . S
La185 C195 2.928 . S
La185 O207 2.482 . S
La185 O209 2.503 . S
La185 O210 2.521 . S
La185 O211 2.628 . S
La185 O212 2.554 . S
La185 O213 2.757 . S
La185 O214 2.470 . S
C186 La184 2.928 . S
C186 C187 1.503 . S
C186 O204 1.261 . S
C186 O205 1.243 . S
C187 C186 1.503 . S
C187 C188 1.394 . S
C187 C192 1.373 . S
C188 C187 1.394 . S
C188 C189 1.380 . S
C188 H216 0.930 . S
C189 C188 1.380 . S
C189 C190 1.376 . S
C189 H217 0.930 . S
C190 C189 1.376 . S
C190 C191 1.370 . S
C191 C190 1.370 . S
C191 C192 1.396 . S
C191 H218 0.929 . S
C192 C187 1.373 . S
C192 C191 1.396 . S
C192 H219 0.929 . S
C193 O206 1.240 . S
C193 O207 1.289 . S
C194 O208 1.258 . S
C194 O209 1.256 . S
C195 La185 2.928 . S
C195 C196 1.503 . S
C195 O210 1.261 . S
C195 O211 1.243 . S
C196 C195 1.503 . S
C196 C197 1.394 . S
C196 C201 1.373 . S
C197 C196 1.394 . S
C197 C198 1.380 . S
C197 H220 0.930 . S
C198 C197 1.380 . S
C198 C199 1.376 . S
C198 H221 0.930 . S
C199 C198 1.376 . S
C199 C200 1.370 . S
C200 C199 1.370 . S
C200 C201 1.396 . S
C200 H222 0.929 . S
C201 C196 1.373 . S
C201 C200 1.396 . S
C201 H223 0.929 . S
C202 O212 1.240 . S
C202 O213 1.289 . S
C203 O214 1.258 . S
C203 O215 1.256 . S
O204 La184 2.521 . S
O204 C186 1.261 . S
O205 La184 2.628 . S
O205 C186 1.243 . S
O206 La184 2.554 . S
O206 C193 1.240 . S
O207 La184 2.757 . S
O207 La185 2.482 . S
O207 C193 1.289 . S
O208 La184 2.470 . S
O208 C194 1.258 . S
O209 La185 2.503 . S
O209 C194 1.256 . S
O210 La185 2.521 . S
O210 C195 1.261 . S
O211 La185 2.628 . S
O211 C195 1.243 . S
O212 La185 2.554 . S
O212 C202 1.240 . S
O213 La184 2.482 . S
O213 La185 2.757 . S
O213 C202 1.289 . S
O214 La185 2.470 . S
O214 C203 1.258 . S
O215 La184 2.503 . S
O215 C203 1.256 . S
H216 C188 0.930 . S
H217 C189 0.930 . S
H218 C191 0.929 . S
H219 C192 0.929 . S
H220 C197 0.930 . S
H221 C198 0.930 . S
H222 C200 0.929 . S
H223 C201 0.929 . S
La224 C226 2.928 . S
La224 O244 2.521 . S
La224 O245 2.628 . S
La224 O246 2.554 . S
La224 O247 2.757 1_655 S
La224 O248 2.470 . S
La224 O253 2.482 . S
La224 O255 2.503 1_655 S
La225 C235 2.928 . S
La225 O247 2.482 . S
La225 O249 2.503 1_455 S
La225 O250 2.521 . S
La225 O251 2.628 . S
La225 O252 2.554 . S
La225 O253 2.757 1_455 S
La225 O254 2.470 . S
C226 La224 2.928 . S
C226 C227 1.503 . S
C226 O244 1.261 . S
C226 O245 1.243 . S
C227 C226 1.503 . S
C227 C228 1.394 . S
C227 C232 1.373 . S
C228 C227 1.394 . S
C228 C229 1.380 . S
C228 H256 0.930 . S
C229 C228 1.380 . S
C229 C230 1.376 . S
C229 H257 0.930 . S
C230 C229 1.376 . S
C230 C231 1.370 . S
C231 C230 1.370 . S
C231 C232 1.396 . S
C231 H258 0.929 . S
C232 C227 1.373 . S
C232 C231 1.396 . S
C232 H259 0.929 . S
C233 O246 1.258 . S
C233 O247 1.279 1_655 S
C234 O248 1.258 . S
C234 O249 1.256 . S
C235 La225 2.928 . S
C235 C236 1.503 . S
C235 O250 1.261 . S
C235 O251 1.243 . S
C236 C235 1.503 . S
C236 C237 1.394 . S
C236 C241 1.373 . S
C237 C236 1.394 . S
C237 C238 1.380 . S
C237 H260 0.930 . S
C238 C237 1.380 . S
C238 C239 1.376 . S
C238 H261 0.930 . S
C239 C238 1.376 . S
C239 C240 1.370 . S
C240 C239 1.370 . S
C240 C241 1.396 . S
C240 H262 0.929 . S
C241 C236 1.373 . S
C241 C240 1.396 . S
C241 H263 0.929 . S
C242 O252 1.240 . S
C242 O253 1.289 1_455 S
C243 O254 1.258 . S
C243 O255 1.256 . S
O244 La224 2.521 . S
O244 C226 1.261 . S
O245 La224 2.628 . S
O245 C226 1.243 . S
O246 La224 2.554 . S
O246 C233 1.258 . S
O247 La224 2.757 1_455 S
O247 La225 2.482 . S
O247 C233 1.279 1_455 S
O248 La224 2.470 . S
O248 C234 1.258 . S
O249 La225 2.503 1_655 S
O249 C234 1.256 . S
O250 La225 2.521 . S
O250 C235 1.261 . S
O251 La225 2.628 . S
O251 C235 1.243 . S
O252 La225 2.554 . S
O252 C242 1.240 . S
O253 La224 2.482 . S
O253 La225 2.757 1_655 S
O253 C242 1.289 1_655 S
O254 La225 2.470 . S
O254 C243 1.258 . S
O255 La224 2.503 1_455 S
O255 C243 1.256 . S
H256 C228 0.930 . S
H257 C229 0.930 . S
H258 C231 0.929 . S
H259 C232 0.929 . S
H260 C237 0.930 . S
H261 C238 0.930 . S
H262 C240 0.929 . S
H263 C241 0.929 . S
H264 C272 0.929 . S
H265 C274 0.930 . S
H266 C276 0.930 . S
H267 C279 0.929 . S
H268 C282 0.930 . S
H269 C284 0.960 . S
H270 C284 0.960 . S
H271 C284 0.960 1_545 S
C272 H264 0.929 . S
C272 C273 1.346 1_565 S
C272 C274 1.384 . S
C273 C272 1.346 1_545 S
C273 C279 1.422 . S
C274 H265 0.930 . S
C274 C272 1.384 . S
C274 C275 1.366 1_565 S
C275 C274 1.366 1_545 S
C275 C276 1.406 . S
C275 C280 1.490 . S
C276 H266 0.930 . S
C276 C275 1.406 . S
C276 C279 1.386 . S
H277 C293 0.930 . S
H278 C294 0.931 . S
C279 H267 0.929 . S
C279 C273 1.422 . S
C279 C276 1.386 . S
C280 C275 1.490 . S
C280 C282 1.399 . S
C280 C283 1.399 1_545 S
H281 C287 0.930 . S
C282 H268 0.930 . S
C282 C280 1.399 . S
C282 C285 1.403 . S
C283 C280 1.399 1_565 S
C283 C284 1.524 . S
C283 C287 1.400 . S
C284 H269 0.960 . S
C284 H270 0.960 . S
C284 H271 0.960 1_565 S
C284 C283 1.524 . S
C285 C282 1.403 . S
C285 C286 1.392 . S
C285 C289 1.495 . S
C286 C285 1.392 . S
C286 C287 1.385 1_545 S
C286 C288 1.478 . S
C287 H281 0.930 . S
C287 C283 1.400 . S
C287 C286 1.385 1_565 S
C288 C286 1.478 . S
C288 C290 1.381 1_545 S
C288 C294 1.383 . S
C289 C285 1.495 . S
C289 H295 0.959 . S
C289 H296 0.961 . S
C289 H297 0.960 1_545 S
C290 C288 1.381 1_565 S
C290 C291 1.394 . S
C290 H298 0.930 . S
C291 C290 1.394 . S
C291 C292 1.383 1_565 S
C291 H299 0.929 . S
C292 C291 1.383 1_545 S
C292 C293 1.377 . S
C293 H277 0.930 . S
C293 C292 1.377 . S
C293 C294 1.379 . S
C294 H278 0.931 . S
C294 C288 1.383 . S
C294 C293 1.379 . S
H295 C289 0.959 . S
H296 C289 0.961 . S
H297 C289 0.960 1_565 S
H298 C290 0.930 . S
H299 C291 0.929 . S
H300 C308 0.929 . S
H301 C310 0.930 . S
H302 C312 0.930 . S
H303 C315 0.929 . S
H304 C318 0.930 . S
H305 C320 0.960 . S
H306 C320 0.960 . S
H307 C320 0.960 . S
C308 H300 0.929 . S
C308 C309 1.377 . S
C308 C310 1.384 . S
C309 C308 1.377 . S
C309 C315 1.390 . S
C310 H301 0.930 . S
C310 C308 1.384 . S
C310 C311 1.372 . S
C311 C310 1.372 . S
C311 C312 1.400 . S
C311 C316 1.490 . S
C312 H302 0.930 . S
C312 C311 1.400 . S
C312 C315 1.386 . S
H313 C329 0.930 . S
H314 C330 0.931 . S
C315 H303 0.929 . S
C315 C309 1.390 . S
C315 C312 1.386 . S
C316 C311 1.490 . S
C316 C318 1.395 . S
C316 C319 1.403 . S
H317 C323 0.930 . S
C318 H304 0.930 . S
C318 C316 1.395 . S
C318 C321 1.403 . S
C319 C316 1.403 . S
C319 C320 1.524 . S
C319 C323 1.400 . S
C320 H305 0.960 . S
C320 H306 0.960 . S
C320 H307 0.960 . S
C320 C319 1.524 . S
C321 C318 1.403 . S
C321 C322 1.392 . S
C321 C325 1.495 . S
C322 C321 1.392 . S
C322 C323 1.385 . S
C322 C324 1.478 . S
C323 H317 0.930 . S
C323 C319 1.400 . S
C323 C322 1.385 . S
C324 C322 1.478 . S
C324 C326 1.381 . S
C324 C330 1.383 . S
C325 C321 1.495 . S
C325 H331 0.959 . S
C325 H332 0.961 . S
C325 H333 0.960 . S
C326 C324 1.381 . S
C326 C327 1.394 . S
C326 H334 0.930 . S
C327 C326 1.394 . S
C327 C328 1.383 . S
C327 H335 0.929 . S
C328 C327 1.383 . S
C328 C329 1.377 . S
C329 H313 0.930 . S
C329 C328 1.377 . S
C329 C330 1.379 . S
C330 H314 0.931 . S
C330 C324 1.383 . S
C330 C329 1.379 . S
H331 C325 0.959 . S
H332 C325 0.961 . S
H333 C325 0.960 . S
H334 C326 0.930 . S
H335 C327 0.929 . S
H336 C344 0.929 . S
H337 C346 0.930 . S
H338 C348 0.930 . S
H339 C351 0.929 . S
H340 C354 0.930 . S
H341 C356 0.960 . S
H342 C356 0.960 . S
H343 C356 0.960 . S
C344 H336 0.929 . S
C344 C345 1.377 . S
C344 C346 1.384 . S
C345 C344 1.377 . S
C345 C351 1.390 . S
C346 H337 0.930 . S
C346 C344 1.384 . S
C346 C347 1.372 . S
C347 C346 1.372 . S
C347 C348 1.400 . S
C347 C352 1.490 . S
C348 H338 0.930 . S
C348 C347 1.400 . S
C348 C351 1.386 . S
H349 C365 0.930 . S
H350 C366 0.931 . S
C351 H339 0.929 . S
C351 C345 1.390 . S
C351 C348 1.386 . S
C352 C347 1.490 . S
C352 C354 1.395 . S
C352 C355 1.403 . S
H353 C359 0.930 . S
C354 H340 0.930 . S
C354 C352 1.395 . S
C354 C357 1.403 . S
C355 C352 1.403 . S
C355 C356 1.524 . S
C355 C359 1.400 . S
C356 H341 0.960 . S
C356 H342 0.960 . S
C356 H343 0.960 . S
C356 C355 1.524 . S
C357 C354 1.403 . S
C357 C358 1.392 . S
C357 C361 1.495 . S
C358 C357 1.392 . S
C358 C359 1.385 . S
C358 C360 1.478 . S
C359 H353 0.930 . S
C359 C355 1.400 . S
C359 C358 1.385 . S
C360 C358 1.478 . S
C360 C362 1.381 . S
C360 C366 1.383 . S
C361 C357 1.495 . S
C361 H367 0.959 . S
C361 H368 0.961 . S
C361 H369 0.960 . S
C362 C360 1.381 . S
C362 C363 1.394 . S
C362 H370 0.930 . S
C363 C362 1.394 . S
C363 C364 1.383 . S
C363 H371 0.929 . S
C364 C363 1.383 . S
C364 C365 1.377 . S
C365 H349 0.930 . S
C365 C364 1.377 . S
C365 C366 1.379 . S
C366 H350 0.931 . S
C366 C360 1.383 . S
C366 C365 1.379 . S
H367 C361 0.959 . S
H368 C361 0.961 . S
H369 C361 0.960 . S
H370 C362 0.930 . S
H371 C363 0.929 . S
H372 C380 0.929 . S
H373 C382 0.930 . S
H374 C384 0.930 . S
H375 C387 0.929 . S
H376 C390 0.930 . S
H377 C392 0.960 . S
H378 C392 0.960 . S
H379 C392 0.960 . S
C380 H372 0.929 . S
C380 C381 1.377 1_655 S
C380 C382 1.384 . S
C381 C380 1.377 1_455 S
C381 C387 1.390 . S
C382 H373 0.930 . S
C382 C380 1.384 . S
C382 C383 1.372 1_655 S
C383 C382 1.372 1_455 S
C383 C384 1.400 . S
C383 C388 1.492 . S
C384 H374 0.930 . S
C384 C383 1.400 . S
C384 C387 1.386 . S
H385 C401 0.935 . S
H386 C402 0.931 . S
C387 H375 0.929 . S
C387 C381 1.390 . S
C387 C384 1.386 . S
C388 C383 1.492 . S
C388 C390 1.355 1_455 S
C388 C391 1.440 . S
H389 C395 0.930 . S
C390 H376 0.930 . S
C390 C388 1.355 1_655 S
C390 C393 1.403 . S
C391 C388 1.440 . S
C391 C392 1.524 . S
C391 C395 1.400 . S
C392 H377 0.960 . S
C392 H378 0.960 . S
C392 H379 0.960 . S
C392 C391 1.524 . S
C393 C390 1.403 . S
C393 C394 1.392 . S
C393 C397 1.495 . S
C394 C393 1.392 . S
C394 C395 1.385 1_655 S
C394 C396 1.478 . S
C395 H389 0.930 . S
C395 C391 1.400 . S
C395 C394 1.385 1_455 S
C396 C394 1.478 . S
C396 C398 1.381 . S
C396 C402 1.385 . S
C397 C393 1.495 . S
C397 H403 0.959 . S
C397 H404 0.961 . S
C397 H405 0.960 . S
C398 C396 1.381 . S
C398 C399 1.394 . S
C398 H406 0.930 . S
C399 C398 1.394 . S
C399 C400 1.383 1_655 S
C399 H407 0.929 . S
C400 C399 1.383 1_455 S
C400 C401 1.376 . S
C401 H385 0.935 . S
C401 C400 1.376 . S
C401 C402 1.377 1_455 S
C402 H386 0.931 . S
C402 C396 1.385 . S
C402 C401 1.377 1_655 S
H403 C397 0.959 . S
H404 C397 0.961 . S
H405 C397 0.960 . S
H406 C398 0.930 . S
H407 C399 0.929 . S
H408 C416 0.929 . S
H409 C418 0.930 . S
H410 C420 0.930 . S
H411 C423 0.929 . S
H412 C426 0.930 . S
H413 C428 0.961 1_556 S
H414 C428 0.960 . S
H415 C428 0.960 . S
C416 H408 0.929 . S
C416 C417 1.340 1_545 S
C416 C418 1.384 . S
C417 C416 1.340 1_565 S
C417 C423 1.427 . S
C418 H409 0.930 . S
C418 C416 1.384 . S
C418 C419 1.371 . S
C419 C418 1.371 . S
C419 C420 1.401 1_545 S
C419 C424 1.490 . S
C420 H410 0.930 . S
C420 C419 1.401 1_565 S
C420 C423 1.386 . S
H421 C437 0.930 . S
H422 C438 0.931 . S
C423 H411 0.929 . S
C423 C417 1.427 . S
C423 C420 1.386 . S
C424 C419 1.490 . S
C424 C426 1.401 . S
C424 C427 1.397 1_545 S
H425 C431 0.930 . S
C426 H412 0.930 . S
C426 C424 1.401 . S
C426 C429 1.403 . S
C427 C424 1.397 1_565 S
C427 C428 1.523 . S
C427 C431 1.400 1_554 S
C428 H413 0.961 1_554 S
C428 H414 0.960 . S
C428 H415 0.960 . S
C428 C427 1.523 . S
C429 C426 1.403 . S
C429 C430 1.392 . S
C429 C433 1.495 . S
C430 C429 1.392 . S
C430 C431 1.385 1_544 S
C430 C432 1.479 1_554 S
C431 H425 0.930 . S
C431 C427 1.400 1_556 S
C431 C430 1.385 1_566 S
C432 C430 1.479 1_556 S
C432 C434 1.410 . S
C432 C438 1.353 1_545 S
C433 C429 1.495 . S
C433 H439 0.959 . S
C433 H440 0.961 . S
C433 H441 0.960 . S
C434 C432 1.410 . S
C434 C435 1.394 . S
C434 H442 0.930 . S
C435 C434 1.394 . S
C435 C436 1.347 1_545 S
C435 H443 0.929 . S
C436 C435 1.347 1_565 S
C436 C437 1.412 . S
C437 H421 0.930 . S
C437 C436 1.412 . S
C437 C438 1.379 . S
C438 H422 0.931 . S
C438 C432 1.353 1_565 S
C438 C437 1.379 . S
H439 C433 0.959 . S
H440 C433 0.961 . S
H441 C433 0.960 . S
H442 C434 0.930 . S
H443 C435 0.929 . S
H444 C452 0.929 . S
H445 C454 0.930 . S
H446 C456 0.930 . S
H447 C459 0.929 . S
H448 C462 0.930 . S
H449 C464 0.960 . S
H450 C464 0.960 . S
H451 C464 0.960 . S
C452 H444 0.929 . S
C452 C453 1.377 . S
C452 C454 1.384 . S
C453 C452 1.377 . S
C453 C459 1.390 . S
C454 H445 0.930 . S
C454 C452 1.384 . S
C454 C455 1.372 . S
C455 C454 1.372 . S
C455 C456 1.400 . S
C455 C460 1.490 . S
C456 H446 0.930 . S
C456 C455 1.400 . S
C456 C459 1.386 . S
H457 C473 0.930 . S
H458 C474 0.931 . S
C459 H447 0.929 . S
C459 C453 1.390 . S
C459 C456 1.386 . S
C460 C455 1.490 . S
C460 C462 1.395 . S
C460 C463 1.403 . S
H461 C467 0.930 . S
C462 H448 0.930 . S
C462 C460 1.395 . S
C462 C465 1.403 1_554 S
C463 C460 1.403 . S
C463 C464 1.524 . S
C463 C467 1.400 . S
C464 H449 0.960 . S
C464 H450 0.960 . S
C464 H451 0.960 . S
C464 C463 1.524 . S
C465 C462 1.403 1_556 S
C465 C466 1.392 . S
C465 C469 1.495 . S
C466 C465 1.392 . S
C466 C467 1.385 1_556 S
C466 C468 1.478 . S
C467 H461 0.930 . S
C467 C463 1.400 . S
C467 C466 1.385 1_554 S
C468 C466 1.478 . S
C468 C470 1.381 . S
C468 C474 1.383 . S
C469 C465 1.495 . S
C469 H475 0.959 . S
C469 H476 0.961 . S
C469 H477 0.960 . S
C470 C468 1.381 . S
C470 C471 1.394 . S
C470 H478 0.930 . S
C471 C470 1.394 . S
C471 C472 1.383 . S
C471 H479 0.929 . S
C472 C471 1.383 . S
C472 C473 1.377 . S
C473 H457 0.930 . S
C473 C472 1.377 . S
C473 C474 1.379 . S
C474 H458 0.931 . S
C474 C468 1.383 . S
C474 C473 1.379 . S
H475 C469 0.959 . S
H476 C469 0.961 . S
H477 C469 0.960 . S
H478 C470 0.930 . S
H479 C471 0.929 . S
H480 C488 0.929 . S
H481 C490 0.930 . S
H482 C492 0.930 . S
H483 C495 0.929 . S
H484 C498 0.930 . S
H485 C500 0.960 . S
H486 C500 0.960 . S
H487 C500 0.960 . S
C488 H480 0.929 . S
C488 C489 1.377 . S
C488 C490 1.384 . S
C489 C488 1.377 . S
C489 C495 1.390 . S
C490 H481 0.930 . S
C490 C488 1.384 . S
C490 C491 1.372 . S
C491 C490 1.372 . S
C491 C492 1.400 . S
C491 C496 1.490 . S
C492 H482 0.930 . S
C492 C491 1.400 . S
C492 C495 1.386 . S
H493 C509 0.930 . S
H494 C510 0.931 . S
C495 H483 0.929 . S
C495 C489 1.390 . S
C495 C492 1.386 . S
C496 C491 1.490 . S
C496 C498 1.395 . S
C496 C499 1.403 . S
H497 C503 0.930 . S
C498 H484 0.930 . S
C498 C496 1.395 . S
C498 C501 1.403 . S
C499 C496 1.403 . S
C499 C500 1.524 . S
C499 C503 1.400 . S
C500 H485 0.960 . S
C500 H486 0.960 . S
C500 H487 0.960 . S
C500 C499 1.524 . S
C501 C498 1.403 . S
C501 C502 1.392 1_554 S
C501 C505 1.495 1_554 S
C502 C501 1.392 1_556 S
C502 C503 1.385 1_556 S
C502 C504 1.478 . S
C503 H497 0.930 . S
C503 C499 1.400 . S
C503 C502 1.385 1_554 S
C504 C502 1.478 . S
C504 C506 1.381 . S
C504 C510 1.383 . S
C505 C501 1.495 1_556 S
C505 H511 0.959 1_556 S
C505 H512 0.961 . S
C505 H513 0.960 1_556 S
C506 C504 1.381 . S
C506 C507 1.394 . S
C506 H514 0.930 1_556 S
C507 C506 1.394 . S
C507 C508 1.383 . S
C507 H515 0.929 . S
C508 C507 1.383 . S
C508 C509 1.377 . S
C509 H493 0.930 . S
C509 C508 1.377 . S
C509 C510 1.379 . S
C510 H494 0.931 . S
C510 C504 1.383 . S
C510 C509 1.379 . S
H511 C505 0.959 1_554 S
H512 C505 0.961 . S
H513 C505 0.960 1_554 S
H514 C506 0.930 1_554 S
H515 C507 0.929 . S
H516 C524 0.929 . S
H517 C526 0.930 . S
H518 C528 0.930 . S
H519 C531 0.929 . S
H520 C534 0.930 . S
H521 C536 0.960 1_556 S
H522 C536 0.960 . S
H523 C536 0.960 . S
C524 H516 0.929 . S
C524 C525 1.345 1_455 S
C524 C526 1.384 . S
C525 C524 1.345 1_655 S
C525 C531 1.422 . S
C526 H517 0.930 . S
C526 C524 1.384 . S
C526 C527 1.375 . S
C527 C526 1.375 . S
C527 C528 1.396 1_455 S
C527 C532 1.490 . S
C528 H518 0.930 . S
C528 C527 1.396 1_655 S
C528 C531 1.386 . S
H529 C545 0.930 . S
H530 C546 0.931 . S
C531 H519 0.929 . S
C531 C525 1.422 . S
C531 C528 1.386 . S
C532 C527 1.490 . S
C532 C534 1.414 . S
C532 C535 1.385 1_455 S
H533 C539 0.930 . S
C534 H520 0.930 . S
C534 C532 1.414 . S
C534 C537 1.403 . S
C535 C532 1.385 1_655 S
C535 C536 1.524 . S
C535 C539 1.400 1_554 S
C536 H521 0.960 1_554 S
C536 H522 0.960 . S
C536 H523 0.960 . S
C536 C535 1.524 . S
C537 C534 1.403 . S
C537 C538 1.392 . S
C537 C541 1.495 . S
C538 C537 1.392 . S
C538 C539 1.385 1_454 S
C538 C540 1.478 1_554 S
C539 H533 0.930 . S
C539 C535 1.400 1_556 S
C539 C538 1.385 1_656 S
C540 C538 1.478 1_556 S
C540 C542 1.381 . S
C540 C546 1.383 1_455 S
C541 C537 1.495 . S
C541 H547 0.959 . S
C541 H548 0.961 . S
C541 H549 0.960 . S
C542 C540 1.381 . S
C542 C543 1.394 . S
C542 H550 0.930 . S
C543 C542 1.394 . S
C543 C544 1.377 1_455 S
C543 H551 0.929 . S
C544 C543 1.377 1_655 S
C544 C545 1.383 . S
C545 H529 0.930 . S
C545 C544 1.383 . S
C545 C546 1.379 . S
C546 H530 0.931 . S
C546 C540 1.383 1_655 S
C546 C545 1.379 . S
H547 C541 0.959 . S
H548 C541 0.961 . S
H549 C541 0.960 . S
H550 C542 0.930 . S
H551 C543 0.929 . S
H552 C560 0.929 . S
H553 C562 0.930 . S
H554 C564 0.930 . S
H555 C567 0.931 . S
H556 C570 0.930 . S
H557 C572 0.960 . S
H558 C572 0.960 . S
H559 C572 0.960 . S
C560 H552 0.929 . S
C560 C561 1.377 . S
C560 C562 1.384 1_455 S
C561 C560 1.377 . S
C561 C567 1.393 . S
C562 H553 0.930 . S
C562 C560 1.384 1_655 S
C562 C563 1.372 . S
C563 C562 1.372 . S
C563 C564 1.400 . S
C563 C568 1.490 . S
C564 H554 0.930 . S
C564 C563 1.400 . S
C564 C567 1.381 1_655 S
H565 C581 0.930 . S
H566 C582 0.931 . S
C567 H555 0.931 . S
C567 C561 1.393 . S
C567 C564 1.381 1_455 S
C568 C563 1.490 . S
C568 C570 1.395 . S
C568 C571 1.403 1_655 S
H569 C575 0.930 1_455 S
C570 H556 0.930 . S
C570 C568 1.395 . S
C570 C573 1.403 . S
C571 C568 1.403 1_455 S
C571 C572 1.524 . S
C571 C575 1.400 1_455 S
C572 H557 0.960 . S
C572 H558 0.960 . S
C572 H559 0.960 . S
C572 C571 1.524 . S
C573 C570 1.403 . S
C573 C574 1.392 . S
C573 C577 1.495 . S
C574 C573 1.392 . S
C574 C575 1.385 . S
C574 C576 1.478 . S
C575 H569 0.930 1_655 S
C575 C571 1.400 1_655 S
C575 C574 1.385 . S
C576 C574 1.478 . S
C576 C578 1.381 . S
C576 C582 1.383 . S
C577 C573 1.495 . S
C577 H583 0.959 . S
C577 H584 0.961 . S
C577 H585 0.960 . S
C578 C576 1.381 . S
C578 C579 1.394 . S
C578 H586 0.930 . S
C579 C578 1.394 . S
C579 C580 1.383 . S
C579 H587 0.929 . S
C580 C579 1.383 . S
C580 C581 1.377 . S
C581 H565 0.930 . S
C581 C580 1.377 . S
C581 C582 1.379 . S
C582 H566 0.931 . S
C582 C576 1.383 . S
C582 C581 1.379 . S
H583 C577 0.959 . S
H584 C577 0.961 . S
H585 C577 0.960 . S
H586 C578 0.930 . S
H587 C579 0.929 . S
H588 C596 0.929 . S
H589 C598 0.930 . S
H590 C600 0.930 . S
H591 C603 0.929 . S
H592 C606 0.930 . S
H593 C608 0.960 . S
H594 C608 0.960 . S
H595 C608 0.960 . S
C596 H588 0.929 . S
C596 C597 1.377 1_565 S
C596 C598 1.384 . S
C597 C596 1.377 1_545 S
C597 C603 1.390 . S
C598 H589 0.930 . S
C598 C596 1.384 . S
C598 C599 1.372 . S
C599 C598 1.372 . S
C599 C600 1.400 1_565 S
C599 C604 1.490 . S
C600 H590 0.930 . S
C600 C599 1.400 1_545 S
C600 C603 1.386 . S
H601 C617 0.930 . S
H602 C618 0.931 . S
C603 H591 0.929 . S
C603 C597 1.390 . S
C603 C600 1.386 . S
C604 C599 1.490 . S
C604 C606 1.395 . S
C604 C607 1.403 1_565 S
H605 C611 0.930 1_545 S
C606 H592 0.930 . S
C606 C604 1.395 . S
C606 C609 1.403 . S
C607 C604 1.403 1_545 S
C607 C608 1.524 . S
C607 C611 1.400 1_545 S
C608 H593 0.960 . S
C608 H594 0.960 . S
C608 H595 0.960 . S
C608 C607 1.524 . S
C609 C606 1.403 . S
C609 C610 1.392 . S
C609 C613 1.495 . S
C610 C609 1.392 . S
C610 C611 1.385 . S
C610 C612 1.478 . S
C611 H605 0.930 1_565 S
C611 C607 1.400 1_565 S
C611 C610 1.385 . S
C612 C610 1.478 . S
C612 C614 1.381 . S
C612 C618 1.383 . S
C613 C609 1.495 . S
C613 H619 0.959 . S
C613 H620 0.961 . S
C613 H621 0.960 . S
C614 C612 1.381 . S
C614 C615 1.394 . S
C614 H622 0.930 . S
C615 C614 1.394 . S
C615 C616 1.383 . S
C615 H623 0.929 . S
C616 C615 1.383 . S
C616 C617 1.377 . S
C617 H601 0.930 . S
C617 C616 1.377 . S
C617 C618 1.379 . S
C618 H602 0.931 . S
C618 C612 1.383 . S
C618 C617 1.379 . S
H619 C613 0.959 . S
H620 C613 0.961 . S
H621 C613 0.960 . S
H622 C614 0.930 . S
H623 C615 0.929 . S
H624 C632 0.929 . S
H625 C634 0.930 . S
H626 C636 0.930 . S
H627 C639 0.929 . S
H628 C642 0.930 . S
H629 C644 0.960 . S
H630 C644 0.960 . S
H631 C644 0.960 . S
C632 H624 0.929 . S
C632 C633 1.377 . S
C632 C634 1.384 . S
C633 C632 1.377 . S
C633 C639 1.390 . S
C634 H625 0.930 . S
C634 C632 1.384 . S
C634 C635 1.372 . S
C635 C634 1.372 . S
C635 C636 1.400 . S
C635 C640 1.490 . S
C636 H626 0.930 . S
C636 C635 1.400 . S
C636 C639 1.386 . S
H637 C653 0.930 . S
H638 C654 0.931 . S
C639 H627 0.929 . S
C639 C633 1.390 . S
C639 C636 1.386 . S
C640 C635 1.490 . S
C640 C642 1.395 . S
C640 C643 1.403 . S
H641 C647 0.930 . S
C642 H628 0.930 . S
C642 C640 1.395 . S
C642 C645 1.403 . S
C643 C640 1.403 . S
C643 C644 1.524 . S
C643 C647 1.400 . S
C644 H629 0.960 . S
C644 H630 0.960 . S
C644 H631 0.960 . S
C644 C643 1.524 . S
C645 C642 1.403 . S
C645 C646 1.392 . S
C645 C649 1.495 . S
C646 C645 1.392 . S
C646 C647 1.385 . S
C646 C648 1.478 . S
C647 H641 0.930 . S
C647 C643 1.400 . S
C647 C646 1.385 . S
C648 C646 1.478 . S
C648 C650 1.381 . S
C648 C654 1.383 . S
C649 C645 1.495 . S
C649 H655 0.959 . S
C649 H656 0.961 . S
C649 H657 0.960 . S
C650 C648 1.381 . S
C650 C651 1.394 . S
C650 H658 0.930 . S
C651 C650 1.394 . S
C651 C652 1.383 . S
C651 H659 0.929 . S
C652 C651 1.383 . S
C652 C653 1.377 . S
C653 H637 0.930 . S
C653 C652 1.377 . S
C653 C654 1.379 . S
C654 H638 0.931 . S
C654 C648 1.383 . S
C654 C653 1.379 . S
H655 C649 0.959 . S
H656 C649 0.961 . S
H657 C649 0.960 . S
H658 C650 0.930 . S
H659 C651 0.929 . S
H660 C668 0.929 . S
H661 C670 0.930 . S
H662 C672 0.930 . S
H663 C675 0.929 . S
H664 C678 0.930 . S
H665 C680 0.960 . S
H666 C680 0.960 . S
H667 C680 0.960 . S
C668 H660 0.929 . S
C668 C669 1.377 . S
C668 C670 1.384 . S
C669 C668 1.377 . S
C669 C675 1.390 . S
C670 H661 0.930 . S
C670 C668 1.384 . S
C670 C671 1.372 . S
C671 C670 1.372 . S
C671 C672 1.400 . S
C671 C676 1.490 . S
C672 H662 0.930 . S
C672 C671 1.400 . S
C672 C675 1.386 . S
H673 C689 0.930 . S
H674 C690 0.931 . S
C675 H663 0.929 . S
C675 C669 1.390 . S
C675 C672 1.386 . S
C676 C671 1.490 . S
C676 C678 1.395 . S
C676 C679 1.403 . S
H677 C683 0.930 . S
C678 H664 0.930 . S
C678 C676 1.395 . S
C678 C681 1.403 . S
C679 C676 1.403 . S
C679 C680 1.524 . S
C679 C683 1.400 . S
C680 H665 0.960 . S
C680 H666 0.960 . S
C680 H667 0.960 . S
C680 C679 1.524 . S
C681 C678 1.403 . S
C681 C682 1.392 . S
C681 C685 1.495 . S
C682 C681 1.392 . S
C682 C683 1.385 . S
C682 C684 1.478 . S
C683 H677 0.930 . S
C683 C679 1.400 . S
C683 C682 1.385 . S
C684 C682 1.478 . S
C684 C686 1.381 . S
C684 C690 1.383 . S
C685 C681 1.495 . S
C685 H691 0.959 . S
C685 H692 0.961 . S
C685 H693 0.960 . S
C686 C684 1.381 . S
C686 C687 1.394 . S
C686 H694 0.930 . S
C687 C686 1.394 . S
C687 C688 1.383 . S
C687 H695 0.929 . S
C688 C687 1.383 . S
C688 C689 1.377 . S
C689 H673 0.930 . S
C689 C688 1.377 . S
C689 C690 1.379 . S
C690 H674 0.931 . S
C690 C684 1.383 . S
C690 C689 1.379 . S
H691 C685 0.959 . S
H692 C685 0.961 . S
H693 C685 0.960 . S
H694 C686 0.930 . S
H695 C687 0.929 . S
H696 C704 0.929 . S
H697 C706 0.930 . S
H698 C708 0.930 . S
H699 C711 0.929 . S
H700 C714 0.930 . S
H701 C716 0.968 . S
H702 C716 0.960 . S
H703 C716 0.960 1_455 S
C704 H696 0.929 . S
C704 C705 1.377 . S
C704 C706 1.384 . S
C705 C704 1.377 . S
C705 C711 1.390 1_655 S
C706 H697 0.930 . S
C706 C704 1.384 . S
C706 C707 1.372 1_655 S
C707 C706 1.372 1_455 S
C707 C708 1.400 . S
C707 C712 1.490 . S
C708 H698 0.930 . S
C708 C707 1.400 . S
C708 C711 1.386 . S
H709 C725 0.930 . S
H710 C726 0.931 . S
C711 H699 0.929 . S
C711 C705 1.390 1_455 S
C711 C708 1.386 . S
C712 C707 1.490 . S
C712 C714 1.395 . S
C712 C715 1.403 . S
H713 C719 0.930 . S
C714 H700 0.930 . S
C714 C712 1.395 . S
C714 C717 1.403 . S
C715 C712 1.403 . S
C715 C716 1.524 1_455 S
C715 C719 1.400 . S
C716 H701 0.968 . S
C716 H702 0.960 . S
C716 H703 0.960 1_655 S
C716 C715 1.524 1_655 S
C717 C714 1.403 . S
C717 C718 1.392 . S
C717 C721 1.495 . S
C718 C717 1.392 . S
C718 C719 1.385 . S
C718 C720 1.478 . S
C719 H713 0.930 . S
C719 C715 1.400 . S
C719 C718 1.385 . S
C720 C718 1.478 . S
C720 C722 1.381 . S
C720 C726 1.383 . S
C721 C717 1.495 . S
C721 H727 0.959 . S
C721 H728 0.961 . S
C721 H729 0.960 . S
C722 C720 1.381 . S
C722 C723 1.394 . S
C722 H730 0.968 . S
C723 C722 1.394 . S
C723 C724 1.383 1_554 S
C723 H731 0.929 . S
C724 C723 1.383 1_556 S
C724 C725 1.377 . S
C725 H709 0.930 . S
C725 C724 1.377 . S
C725 C726 1.379 1_556 S
C726 H710 0.931 . S
C726 C720 1.383 . S
C726 C725 1.379 1_554 S
H727 C721 0.959 . S
H728 C721 0.961 . S
H729 C721 0.960 . S
H730 C722 0.968 . S
H731 C723 0.929 . S
H732 C740 0.929 . S
H733 C742 0.930 . S
H734 C744 0.930 . S
H735 C747 0.929 . S
H736 C750 0.930 . S
H737 C752 0.960 . S
H738 C752 0.960 . S
H739 C752 0.960 . S
C740 H732 0.929 . S
C740 C741 1.377 . S
C740 C742 1.384 . S
C741 C740 1.377 . S
C741 C747 1.390 1_565 S
C742 H733 0.930 . S
C742 C740 1.384 . S
C742 C743 1.372 1_565 S
C743 C742 1.372 1_545 S
C743 C744 1.400 . S
C743 C748 1.490 . S
C744 H734 0.930 . S
C744 C743 1.400 . S
C744 C747 1.386 . S
H745 C761 0.930 . S
H746 C762 0.931 . S
C747 H735 0.929 . S
C747 C741 1.390 1_545 S
C747 C744 1.386 . S
C748 C743 1.490 . S
C748 C750 1.395 1_545 S
C748 C751 1.403 . S
H749 C755 0.930 . S
C750 H736 0.930 . S
C750 C748 1.395 1_565 S
C750 C753 1.403 . S
C751 C748 1.403 . S
C751 C752 1.524 . S
C751 C755 1.400 . S
C752 H737 0.960 . S
C752 H738 0.960 . S
C752 H739 0.960 . S
C752 C751 1.524 . S
C753 C750 1.403 . S
C753 C754 1.392 1_565 S
C753 C757 1.495 . S
C754 C753 1.392 1_545 S
C754 C755 1.385 . S
C754 C756 1.478 . S
C755 H749 0.930 . S
C755 C751 1.400 . S
C755 C754 1.385 . S
C756 C754 1.478 . S
C756 C758 1.381 1_554 S
C756 C762 1.383 . S
C757 C753 1.495 . S
C757 H763 0.959 . S
C757 H764 0.961 . S
C757 H765 0.960 . S
C758 C756 1.381 1_556 S
C758 C759 1.394 . S
C758 H766 0.897 1_545 S
C759 C758 1.394 . S
C759 C760 1.383 . S
C759 H767 0.929 . S
C760 C759 1.383 . S
C760 C761 1.377 1_556 S
C761 H745 0.930 . S
C761 C760 1.377 1_554 S
C761 C762 1.379 . S
C762 H746 0.931 . S
C762 C756 1.383 . S
C762 C761 1.379 . S
H763 C757 0.959 . S
H764 C757 0.961 . S
H765 C757 0.960 . S
H766 C758 0.897 1_565 S
H767 C759 0.929 . S
H768 C776 0.929 . S
H769 C778 0.930 . S
H770 C780 0.930 . S
H771 C783 0.929 . S
H772 C786 0.930 . S
H773 C788 0.960 . S
H774 C788 0.960 . S
H775 C788 0.960 . S
C776 H768 0.929 . S
C776 C777 1.377 . S
C776 C778 1.384 . S
C777 C776 1.377 . S
C777 C783 1.390 . S
C778 H769 0.930 . S
C778 C776 1.384 . S
C778 C779 1.372 . S
C779 C778 1.372 . S
C779 C780 1.400 . S
C779 C784 1.490 . S
C780 H770 0.930 . S
C780 C779 1.400 . S
C780 C783 1.386 . S
H781 C797 0.930 . S
H782 C798 0.931 . S
C783 H771 0.929 . S
C783 C777 1.390 . S
C783 C780 1.386 . S
C784 C779 1.490 . S
C784 C786 1.395 . S
C784 C787 1.403 . S
H785 C791 0.930 . S
C786 H772 0.930 . S
C786 C784 1.395 . S
C786 C789 1.403 . S
C787 C784 1.403 . S
C787 C788 1.524 . S
C787 C791 1.400 . S
C788 H773 0.960 . S
C788 H774 0.960 . S
C788 H775 0.960 . S
C788 C787 1.524 . S
C789 C786 1.403 . S
C789 C790 1.392 . S
C789 C793 1.495 . S
C790 C789 1.392 . S
C790 C791 1.385 . S
C790 C792 1.478 . S
C791 H785 0.930 . S
C791 C787 1.400 . S
C791 C790 1.385 . S
C792 C790 1.478 . S
C792 C794 1.381 . S
C792 C798 1.383 1_554 S
C793 C789 1.495 . S
C793 H799 0.959 . S
C793 H800 0.961 . S
C793 H801 0.960 . S
C794 C792 1.381 . S
C794 C795 1.394 . S
C794 H802 0.930 . S
C795 C794 1.394 . S
C795 C796 1.383 1_554 S
C795 H803 0.929 . S
C796 C795 1.383 1_556 S
C796 C797 1.377 . S
C797 H781 0.930 . S
C797 C796 1.377 . S
C797 C798 1.379 . S
C798 H782 0.931 . S
C798 C792 1.383 1_556 S
C798 C797 1.379 . S
H799 C793 0.959 . S
H800 C793 0.961 . S
H801 C793 0.960 . S
H802 C794 0.930 . S
H803 C795 0.929 . S
H804 C812 0.929 . S
H805 C814 0.930 . S
H806 C816 0.930 . S
H807 C819 0.929 . S
H808 C822 0.930 . S
H809 C824 0.960 . S
H810 C824 0.960 . S
H811 C824 0.960 . S
C812 H804 0.929 . S
C812 C813 1.377 . S
C812 C814 1.384 . S
C813 C812 1.377 . S
C813 C819 1.390 . S
C814 H805 0.930 . S
C814 C812 1.384 . S
C814 C815 1.372 . S
C815 C814 1.372 . S
C815 C816 1.400 . S
C815 C820 1.490 . S
C816 H806 0.930 . S
C816 C815 1.400 . S
C816 C819 1.386 . S
H817 C833 0.930 . S
H818 C834 0.931 . S
C819 H807 0.929 . S
C819 C813 1.390 . S
C819 C816 1.386 . S
C820 C815 1.490 . S
C820 C822 1.395 . S
C820 C823 1.403 . S
H821 C827 0.930 . S
C822 H808 0.930 . S
C822 C820 1.395 . S
C822 C825 1.403 . S
C823 C820 1.403 . S
C823 C824 1.524 . S
C823 C827 1.400 . S
C824 H809 0.960 . S
C824 H810 0.960 . S
C824 H811 0.960 . S
C824 C823 1.524 . S
C825 C822 1.403 . S
C825 C826 1.392 . S
C825 C829 1.495 . S
C826 C825 1.392 . S
C826 C827 1.385 . S
C826 C828 1.478 . S
C827 H821 0.930 . S
C827 C823 1.400 . S
C827 C826 1.385 . S
C828 C826 1.478 . S
C828 C830 1.381 . S
C828 C834 1.383 1_554 S
C829 C825 1.495 . S
C829 H835 0.959 . S
C829 H836 0.961 . S
C829 H837 0.960 . S
C830 C828 1.381 . S
C830 C831 1.394 . S
C830 H838 0.930 . S
C831 C830 1.394 . S
C831 C832 1.383 1_554 S
C831 H839 0.929 . S
C832 C831 1.383 1_556 S
C832 C833 1.377 . S
C833 H817 0.930 . S
C833 C832 1.377 . S
C833 C834 1.379 . S
C834 H818 0.931 . S
C834 C828 1.383 1_556 S
C834 C833 1.379 . S
H835 C829 0.959 . S
H836 C829 0.961 . S
H837 C829 0.960 . S
H838 C830 0.930 . S
H839 C831 0.929 . S
H840 C848 0.929 . S
H841 C850 0.930 . S
H842 C852 0.930 . S
H843 C855 0.920 1_554 S
H844 C858 0.930 . S
H845 C860 0.960 . S
H846 C860 0.960 . S
H847 C860 0.960 . S
C848 H840 0.929 . S
C848 C849 1.377 . S
C848 C850 1.384 . S
C849 C848 1.377 . S
C849 C855 1.390 1_455 S
C850 H841 0.930 . S
C850 C848 1.384 . S
C850 C851 1.372 . S
C851 C850 1.372 . S
C851 C852 1.400 1_455 S
C851 C856 1.490 . S
C852 H842 0.930 . S
C852 C851 1.400 1_655 S
C852 C855 1.386 . S
H853 C869 0.930 . S
H854 C870 0.931 . S
C855 H843 0.920 1_556 S
C855 C849 1.390 1_655 S
C855 C852 1.386 . S
C856 C851 1.490 . S
C856 C858 1.395 . S
C856 C859 1.403 1_455 S
H857 C863 0.930 . S
C858 H844 0.930 . S
C858 C856 1.395 . S
C858 C861 1.403 . S
C859 C856 1.403 1_655 S
C859 C860 1.524 . S
C859 C863 1.400 . S
C860 H845 0.960 . S
C860 H846 0.960 . S
C860 H847 0.960 . S
C860 C859 1.524 . S
C861 C858 1.403 . S
C861 C862 1.392 . S
C861 C865 1.495 . S
C862 C861 1.392 . S
C862 C863 1.385 1_455 S
C862 C864 1.478 . S
C863 H857 0.930 . S
C863 C859 1.400 . S
C863 C862 1.385 1_655 S
C864 C862 1.478 . S
C864 C866 1.381 . S
C864 C870 1.383 . S
C865 C861 1.495 . S
C865 H871 0.959 . S
C865 H872 0.961 . S
C865 H873 0.960 . S
C866 C864 1.381 . S
C866 C867 1.394 . S
C866 H874 0.930 . S
C867 C866 1.394 . S
C867 C868 1.383 . S
C867 H875 0.929 . S
C868 C867 1.383 . S
C868 C869 1.377 . S
C869 H853 0.930 . S
C869 C868 1.377 . S
C869 C870 1.379 . S
C870 H854 0.931 . S
C870 C864 1.383 . S
C870 C869 1.379 . S
H871 C865 0.959 . S
H872 C865 0.961 . S
H873 C865 0.960 . S
H874 C866 0.930 . S
H875 C867 0.929 . S
H876 C884 0.929 . S
H877 C886 0.930 . S
H878 C888 0.930 . S
H879 C891 0.929 . S
H880 C894 0.930 . S
H881 C896 0.960 . S
H882 C896 0.976 . S
H883 C896 0.960 . S
C884 H876 0.929 . S
C884 C885 1.377 . S
C884 C886 1.384 . S
C885 C884 1.377 . S
C885 C891 1.390 1_545 S
C886 H877 0.930 . S
C886 C884 1.384 . S
C886 C887 1.372 . S
C887 C886 1.372 . S
C887 C888 1.400 1_545 S
C887 C892 1.490 . S
C888 H878 0.930 . S
C888 C887 1.400 1_565 S
C888 C891 1.386 . S
H889 C905 0.930 . S
H890 C906 0.931 . S
C891 H879 0.929 . S
C891 C885 1.390 1_565 S
C891 C888 1.386 . S
C892 C887 1.490 . S
C892 C894 1.395 . S
C892 C895 1.403 1_545 S
H893 C899 0.929 1_565 S
C894 H880 0.930 . S
C894 C892 1.395 . S
C894 C897 1.403 . S
C895 C892 1.403 1_565 S
C895 C896 1.524 . S
C895 C899 1.400 1_565 S
C896 H881 0.960 . S
C896 H882 0.976 . S
C896 H883 0.960 . S
C896 C895 1.524 . S
C897 C894 1.403 . S
C897 C898 1.392 . S
C897 C901 1.495 . S
C898 C897 1.392 . S
C898 C899 1.386 . S
C898 C900 1.478 . S
C899 H893 0.929 1_545 S
C899 C895 1.400 1_545 S
C899 C898 1.386 . S
C900 C898 1.478 . S
C900 C902 1.381 . S
C900 C906 1.383 1_545 S
C901 C897 1.495 . S
C901 H907 0.959 1_556 S
C901 H908 0.961 . S
C901 H909 0.960 . S
C902 C900 1.381 . S
C902 C903 1.394 . S
C902 H910 0.930 . S
C903 C902 1.394 . S
C903 C904 1.383 . S
C903 H911 0.929 . S
C904 C903 1.383 . S
C904 C905 1.377 1_545 S
C905 H889 0.930 . S
C905 C904 1.377 1_565 S
C905 C906 1.379 . S
C906 H890 0.931 . S
C906 C900 1.383 1_565 S
C906 C905 1.379 . S
H907 C901 0.959 1_554 S
H908 C901 0.961 . S
H909 C901 0.960 . S
H910 C902 0.930 . S
H911 C903 0.929 . S
H912 C920 0.929 . S
H913 C922 0.930 . S
H914 C924 0.930 . S
H915 C927 0.929 . S
H916 C930 0.930 . S
H917 C932 0.960 . S
H918 C932 0.960 . S
H919 C932 0.960 . S
C920 H912 0.929 . S
C920 C921 1.377 . S
C920 C922 1.384 . S
C921 C920 1.377 . S
C921 C927 1.390 . S
C922 H913 0.930 . S
C922 C920 1.384 . S
C922 C923 1.372 . S
C923 C922 1.372 . S
C923 C924 1.400 . S
C923 C928 1.490 . S
C924 H914 0.930 . S
C924 C923 1.400 . S
C924 C927 1.386 . S
H925 C941 0.930 . S
H926 C942 0.931 . S
C927 H915 0.929 . S
C927 C921 1.390 . S
C927 C924 1.386 . S
C928 C923 1.490 . S
C928 C930 1.395 . S
C928 C931 1.403 . S
H929 C935 0.930 . S
C930 H916 0.930 . S
C930 C928 1.395 . S
C930 C933 1.403 . S
C931 C928 1.403 . S
C931 C932 1.524 . S
C931 C935 1.400 . S
C932 H917 0.960 . S
C932 H918 0.960 . S
C932 H919 0.960 . S
C932 C931 1.524 . S
C933 C930 1.403 . S
C933 C934 1.392 . S
C933 C937 1.495 . S
C934 C933 1.392 . S
C934 C935 1.385 . S
C934 C936 1.478 . S
C935 H929 0.930 . S
C935 C931 1.400 . S
C935 C934 1.385 . S
C936 C934 1.478 . S
C936 C938 1.381 . S
C936 C942 1.383 . S
C937 C933 1.495 . S
C937 H943 0.959 . S
C937 H944 0.961 . S
C937 H945 0.960 . S
C938 C936 1.381 . S
C938 C939 1.394 . S
C938 H946 0.930 . S
C939 C938 1.394 . S
C939 C940 1.383 . S
C939 H947 0.929 . S
C940 C939 1.383 . S
C940 C941 1.377 . S
C941 H925 0.930 . S
C941 C940 1.377 . S
C941 C942 1.379 . S
C942 H926 0.931 . S
C942 C936 1.383 . S
C942 C941 1.379 . S
H943 C937 0.959 . S
H944 C937 0.961 . S
H945 C937 0.960 . S
H946 C938 0.930 . S
H947 C939 0.929 . S
H948 C956 0.929 . S
H949 C958 0.930 . S
H950 C960 0.930 . S
H951 C963 0.929 . S
H952 C966 0.930 . S
H953 C968 0.960 . S
H954 C968 0.960 . S
H955 C968 0.960 . S
C956 H948 0.929 . S
C956 C957 1.377 . S
C956 C958 1.384 . S
C957 C956 1.377 . S
C957 C963 1.390 . S
C958 H949 0.930 . S
C958 C956 1.384 . S
C958 C959 1.372 . S
C959 C958 1.372 . S
C959 C960 1.400 . S
C959 C964 1.490 . S
C960 H950 0.930 . S
C960 C959 1.400 . S
C960 C963 1.386 . S
H961 C977 0.930 . S
H962 C978 0.931 . S
C963 H951 0.929 . S
C963 C957 1.390 . S
C963 C960 1.386 . S
C964 C959 1.490 . S
C964 C966 1.395 . S
C964 C967 1.403 . S
H965 C971 0.930 . S
C966 H952 0.930 . S
C966 C964 1.395 . S
C966 C969 1.403 . S
C967 C964 1.403 . S
C967 C968 1.524 . S
C967 C971 1.400 . S
C968 H953 0.960 . S
C968 H954 0.960 . S
C968 H955 0.960 . S
C968 C967 1.524 . S
C969 C966 1.403 . S
C969 C970 1.392 . S
C969 C973 1.495 . S
C970 C969 1.392 . S
C970 C971 1.385 . S
C970 C972 1.478 . S
C971 H965 0.930 . S
C971 C967 1.400 . S
C971 C970 1.385 . S
C972 C970 1.478 . S
C972 C974 1.381 . S
C972 C978 1.383 . S
C973 C969 1.495 . S
C973 H979 0.959 1_556 S
C973 H980 0.961 . S
C973 H981 0.960 . S
C974 C972 1.381 . S
C974 C975 1.394 . S
C974 H982 0.930 . S
C975 C974 1.394 . S
C975 C976 1.383 . S
C975 H983 0.929 . S
C976 C975 1.383 . S
C976 C977 1.377 . S
C977 H961 0.930 . S
C977 C976 1.377 . S
C977 C978 1.379 . S
C978 H962 0.931 . S
C978 C972 1.383 . S
C978 C977 1.379 . S
H979 C973 0.959 1_554 S
H980 C973 0.961 . S
H981 C973 0.960 . S
H982 C974 0.930 . S
H983 C975 0.929 . S
H984 C992 0.929 . S
H985 C994 0.930 . S
H986 C996 0.930 . S
H987 C999 0.929 . S
H988 C1002 0.930 . S
H989 C1004 0.960 . S
H990 C1004 0.960 . S
H991 C1004 0.960 . S
C992 H984 0.929 . S
C992 C993 1.377 . S
C992 C994 1.384 . S
C993 C992 1.377 . S
C993 C999 1.390 1_655 S
C994 H985 0.930 . S
C994 C992 1.384 . S
C994 C995 1.372 . S
C995 C994 1.372 . S
C995 C996 1.400 1_655 S
C995 C1000 1.490 . S
C996 H986 0.930 . S
C996 C995 1.400 1_455 S
C996 C999 1.386 . S
H997 C1013 0.930 . S
H998 C1014 0.931 . S
C999 H987 0.929 . S
C999 C993 1.390 1_455 S
C999 C996 1.386 . S
C1000 C995 1.490 . S
C1000 C1002 1.395 . S
C1000 C1003 1.403 1_655 S
H1001 C1007 0.930 . S
C1002 H988 0.930 . S
C1002 C1000 1.395 . S
C1002 C1005 1.403 . S
C1003 C1000 1.403 1_455 S
C1003 C1004 1.524 . S
C1003 C1007 1.400 . S
C1004 H989 0.960 . S
C1004 H990 0.960 . S
C1004 H991 0.960 . S
C1004 C1003 1.524 . S
C1005 C1002 1.403 . S
C1005 C1006 1.392 . S
C1005 C1009 1.495 . S
C1006 C1005 1.392 . S
C1006 C1007 1.385 1_655 S
C1006 C1008 1.478 . S
C1007 H1001 0.930 . S
C1007 C1003 1.400 . S
C1007 C1006 1.385 1_455 S
C1008 C1006 1.478 . S
C1008 C1010 1.381 . S
C1008 C1014 1.383 1_655 S
C1009 C1005 1.495 . S
C1009 H1015 0.959 . S
C1009 H1016 0.961 . S
C1009 H1017 0.960 . S
C1010 C1008 1.381 . S
C1010 C1011 1.394 . S
C1010 H1018 0.930 . S
C1011 C1010 1.394 . S
C1011 C1012 1.383 . S
C1011 H1019 0.929 . S
C1012 C1011 1.383 . S
C1012 C1013 1.377 1_655 S
C1013 H997 0.930 . S
C1013 C1012 1.377 1_455 S
C1013 C1014 1.379 . S
C1014 H998 0.931 . S
C1014 C1008 1.383 1_455 S
C1014 C1013 1.379 . S
H1015 C1009 0.959 . S
H1016 C1009 0.961 . S
H1017 C1009 0.960 . S
H1018 C1010 0.930 . S
H1019 C1011 0.929 . S
H1020 C1028 0.929 . S
H1021 C1030 0.930 . S
H1022 C1032 0.930 . S
H1023 C1035 0.929 . S
H1024 C1038 0.930 . S
H1025 C1040 0.960 . S
H1026 C1040 0.960 . S
H1027 C1040 0.960 . S
C1028 H1020 0.929 . S
C1028 C1029 1.377 . S
C1028 C1030 1.384 . S
C1029 C1028 1.377 . S
C1029 C1035 1.390 1_565 S
C1030 H1021 0.930 . S
C1030 C1028 1.384 . S
C1030 C1031 1.372 . S
C1031 C1030 1.372 . S
C1031 C1032 1.400 1_565 S
C1031 C1036 1.490 . S
C1032 H1022 0.930 . S
C1032 C1031 1.400 1_545 S
C1032 C1035 1.386 . S
H1033 C1049 0.930 . S
H1034 C1050 0.931 . S
C1035 H1023 0.929 . S
C1035 C1029 1.390 1_545 S
C1035 C1032 1.386 . S
C1036 C1031 1.490 . S
C1036 C1038 1.395 . S
C1036 C1039 1.403 1_565 S
H1037 C1043 0.930 . S
C1038 H1024 0.930 . S
C1038 C1036 1.395 . S
C1038 C1041 1.403 . S
C1039 C1036 1.403 1_545 S
C1039 C1040 1.524 . S
C1039 C1043 1.400 . S
C1040 H1025 0.960 . S
C1040 H1026 0.960 . S
C1040 H1027 0.960 . S
C1040 C1039 1.524 . S
C1041 C1038 1.403 . S
C1041 C1042 1.392 . S
C1041 C1045 1.495 . S
C1042 C1041 1.392 . S
C1042 C1043 1.385 1_565 S
C1042 C1044 1.478 . S
C1043 H1037 0.930 . S
C1043 C1039 1.400 . S
C1043 C1042 1.385 1_545 S
C1044 C1042 1.478 . S
C1044 C1046 1.381 . S
C1044 C1050 1.383 . S
C1045 C1041 1.495 . S
C1045 H1051 0.959 . S
C1045 H1052 0.961 . S
C1045 H1053 0.960 . S
C1046 C1044 1.381 . S
C1046 C1047 1.394 . S
C1046 H1054 0.930 . S
C1047 C1046 1.394 . S
C1047 C1048 1.383 . S
C1047 H1055 0.929 . S
C1048 C1047 1.383 . S
C1048 C1049 1.377 . S
C1049 H1033 0.930 . S
C1049 C1048 1.377 . S
C1049 C1050 1.379 . S
C1050 H1034 0.931 . S
C1050 C1044 1.383 . S
C1050 C1049 1.379 . S
H1051 C1045 0.959 . S
H1052 C1045 0.961 . S
H1053 C1045 0.960 . S
H1054 C1046 0.930 . S
H1055 C1047 0.929 . S
H1056 C1064 0.929 . S
H1057 C1066 0.930 . S
H1058 C1068 0.930 . S
H1059 C1071 0.929 . S
H1060 C1074 0.930 . S
H1061 C1076 0.960 . S
H1062 C1076 0.960 . S
H1063 C1076 0.960 . S
C1064 H1056 0.929 . S
C1064 C1065 1.377 . S
C1064 C1066 1.384 . S
C1065 C1064 1.377 . S
C1065 C1071 1.390 . S
C1066 H1057 0.930 . S
C1066 C1064 1.384 . S
C1066 C1067 1.372 . S
C1067 C1066 1.372 . S
C1067 C1068 1.400 . S
C1067 C1072 1.490 . S
C1068 H1058 0.930 . S
C1068 C1067 1.400 . S
C1068 C1071 1.386 . S
H1069 C1085 0.930 . S
H1070 C1086 0.931 . S
C1071 H1059 0.929 . S
C1071 C1065 1.390 . S
C1071 C1068 1.386 . S
C1072 C1067 1.490 . S
C1072 C1074 1.395 . S
C1072 C1075 1.403 . S
H1073 C1079 0.930 . S
C1074 H1060 0.930 . S
C1074 C1072 1.395 . S
C1074 C1077 1.403 . S
C1075 C1072 1.403 . S
C1075 C1076 1.524 . S
C1075 C1079 1.400 . S
C1076 H1061 0.960 . S
C1076 H1062 0.960 . S
C1076 H1063 0.960 . S
C1076 C1075 1.524 . S
C1077 C1074 1.403 . S
C1077 C1078 1.392 . S
C1077 C1081 1.495 . S
C1078 C1077 1.392 . S
C1078 C1079 1.385 . S
C1078 C1080 1.478 . S
C1079 H1073 0.930 . S
C1079 C1075 1.400 . S
C1079 C1078 1.385 . S
C1080 C1078 1.478 . S
C1080 C1082 1.381 . S
C1080 C1086 1.383 . S
C1081 C1077 1.495 . S
C1081 H1087 0.959 . S
C1081 H1088 0.961 . S
C1081 H1089 0.960 . S
C1082 C1080 1.381 . S
C1082 C1083 1.394 . S
C1082 H1090 0.930 . S
C1083 C1082 1.394 . S
C1083 C1084 1.383 . S
C1083 H1091 0.929 . S
C1084 C1083 1.383 . S
C1084 C1085 1.377 . S
C1085 H1069 0.930 . S
C1085 C1084 1.377 . S
C1085 C1086 1.379 . S
C1086 H1070 0.931 . S
C1086 C1080 1.383 . S
C1086 C1085 1.379 . S
H1087 C1081 0.959 . S
H1088 C1081 0.961 . S
H1089 C1081 0.960 . S
H1090 C1082 0.930 . S
H1091 C1083 0.929 . S
H1092 C1100 0.929 . S
H1093 C1102 0.930 . S
H1094 C1104 0.930 . S
H1095 C1107 0.929 . S
H1096 C1110 0.930 . S
H1097 C1112 0.960 . S
H1098 C1112 0.960 . S
H1099 C1112 0.960 . S
C1100 H1092 0.929 . S
C1100 C1101 1.377 . S
C1100 C1102 1.384 . S
C1101 C1100 1.377 . S
C1101 C1107 1.390 . S
C1102 H1093 0.930 . S
C1102 C1100 1.384 . S
C1102 C1103 1.372 . S
C1103 C1102 1.372 . S
C1103 C1104 1.400 . S
C1103 C1108 1.490 . S
C1104 H1094 0.930 . S
C1104 C1103 1.400 . S
C1104 C1107 1.386 . S
H1105 C1121 0.930 . S
H1106 C1122 0.931 . S
C1107 H1095 0.929 . S
C1107 C1101 1.390 . S
C1107 C1104 1.386 . S
C1108 C1103 1.490 . S
C1108 C1110 1.395 . S
C1108 C1111 1.403 . S
H1109 C1115 0.930 . S
C1110 H1096 0.930 . S
C1110 C1108 1.395 . S
C1110 C1113 1.403 . S
C1111 C1108 1.403 . S
C1111 C1112 1.524 . S
C1111 C1115 1.400 . S
C1112 H1097 0.960 . S
C1112 H1098 0.960 . S
C1112 H1099 0.960 . S
C1112 C1111 1.524 . S
C1113 C1110 1.403 . S
C1113 C1114 1.392 . S
C1113 C1117 1.495 . S
C1114 C1113 1.392 . S
C1114 C1115 1.385 . S
C1114 C1116 1.478 . S
C1115 H1109 0.930 . S
C1115 C1111 1.400 . S
C1115 C1114 1.385 . S
C1116 C1114 1.478 . S
C1116 C1118 1.381 . S
C1116 C1122 1.383 . S
C1117 C1113 1.495 . S
C1117 H1123 0.959 . S
C1117 H1124 0.961 . S
C1117 H1125 0.960 . S
C1118 C1116 1.381 . S
C1118 C1119 1.394 . S
C1118 H1126 0.930 . S
C1119 C1118 1.394 . S
C1119 C1120 1.383 . S
C1119 H1127 0.929 . S
C1120 C1119 1.383 . S
C1120 C1121 1.377 . S
C1121 H1105 0.930 . S
C1121 C1120 1.377 . S
C1121 C1122 1.379 . S
C1122 H1106 0.931 . S
C1122 C1116 1.383 . S
C1122 C1121 1.379 . S
H1123 C1117 0.959 . S
H1124 C1117 0.961 . S
H1125 C1117 0.960 . S
H1126 C1118 0.930 . S
H1127 C1119 0.929 . S
C273 C82 1.623 . S
C292 C113 1.804 1_545 S
C328 C153 1.814 . S
C309 C95 1.609 . S
C364 C193 1.803 . S
C345 C56 1.619 . S
C400 C233 1.806 1_455 S
C381 C69 1.616 . S
C436 C122 1.815 1_565 S
C417 C30 1.600 1_565 S
C453 C43 1.612 . S
C472 C162 1.803 . S
C489 C4 1.618 . S
C508 C202 1.821 . S
C525 C17 1.600 1_655 S
C544 C242 1.815 1_655 S
C580 C119 0.394 . S
C561 C74 0.395 . S
C616 C159 0.397 . S
C597 C87 0.398 . S
C652 C199 0.296 . S
C633 C100 0.368 . S
C669 C61 0.366 . S
C688 C239 0.272 . S
C705 C22 0.405 . S
C724 C110 0.368 . S
C760 C150 0.260 . S
C741 C35 0.414 . S
C796 C190 0.395 . S
C777 C48 0.368 . S
C813 C9 0.372 . S
C832 C230 0.401 . S
C849 C73 1.881 . S
C868 C123 2.054 . S
C885 C86 1.881 . S
C904 C163 2.044 . S
C940 C203 2.048 . S
C921 C99 1.882 . S
C976 C243 2.032 . S
C957 C60 1.876 . S
C993 C21 1.872 . S
C1012 C114 2.057 . S
C1048 C154 2.057 . S
C1029 C34 1.873 . S
C1084 C194 2.035 . S
C1065 C47 1.879 . S
C1101 C8 1.884 . S
C1120 C234 2.027 . S
