# Generated by pormake.
# Topology eea, (3,6)-cn, num edge types: 1
# Building blocks:
#     Node 0, Type 0, BuildingBlock: KAKCAD_clean_linker_0, # of connection points: 3
#     Node 1, Type 0, BuildingBlock: KAKCAD_clean_linker_0, # of connection points: 3
#     Node 2, Type 0, BuildingBlock: KAKCAD_clean_linker_0, # of connection points: 3
#     Node 3, Type 0, BuildingBlock: KAKCAD_clean_linker_0, # of connection points: 3
#     Node 4, Type 0, BuildingBlock: KAKCAD_clean_linker_0, # of connection points: 3
#     Node 5, Type 0, BuildingBlock: KAKCAD_clean_linker_0, # of connection points: 3
#     Node 6, Type 0, BuildingBlock: KAKCAD_clean_linker_0, # of connection points: 3
#     Node 7, Type 0, BuildingBlock: KAKCAD_clean_linker_0, # of connection points: 3
#     Node 8, Type 0, BuildingBlock: KAKCAD_clean_linker_0, # of connection points: 3
#     Node 9, Type 0, BuildingBlock: KAKCAD_clean_linker_0, # of connection points: 3
#     Node 10, Type 0, BuildingBlock: KAKCAD_clean_linker_0, # of connection points: 3
#     Node 11, Type 0, BuildingBlock: KAKCAD_clean_linker_0, # of connection points: 3
#     Node 12, Type 0, BuildingBlock: KAKCAD_clean_linker_0, # of connection points: 3
#     Node 13, Type 0, BuildingBlock: KAKCAD_clean_linker_0, # of connection points: 3
#     Node 14, Type 0, BuildingBlock: KAKCAD_clean_linker_0, # of connection points: 3
#     Node 15, Type 0, BuildingBlock: KAKCAD_clean_linker_0, # of connection points: 3
#     Node 16, Type 0, BuildingBlock: KAKCAD_clean_linker_0, # of connection points: 3
#     Node 17, Type 0, BuildingBlock: KAKCAD_clean_linker_0, # of connection points: 3
#     Node 18, Type 1, BuildingBlock: KUMBOL_clean_sbu_0, # of connection points: 6
#     Node 19, Type 1, BuildingBlock: KUMBOL_clean_sbu_0, # of connection points: 6
#     Node 20, Type 1, BuildingBlock: KUMBOL_clean_sbu_0, # of connection points: 6
#     Node 21, Type 1, BuildingBlock: KUMBOL_clean_sbu_0, # of connection points: 6
#     Node 22, Type 1, BuildingBlock: KUMBOL_clean_sbu_0, # of connection points: 6
#     Node 23, Type 1, BuildingBlock: KUMBOL_clean_sbu_0, # of connection points: 6
#     Node 24, Type 1, BuildingBlock: KUMBOL_clean_sbu_0, # of connection points: 6
#     Node 25, Type 1, BuildingBlock: KUMBOL_clean_sbu_0, # of connection points: 6
#     Node 26, Type 1, BuildingBlock: KUMBOL_clean_sbu_0, # of connection points: 6
#     Edge 27, Type (0, 1), BuildingBlock: XIVTED_clean_linker_0, # of connection points: 2
#     Edge 28, Type (0, 1), BuildingBlock: XIVTED_clean_linker_0, # of connection points: 2
#     Edge 29, Type (0, 1), BuildingBlock: XIVTED_clean_linker_0, # of connection points: 2
#     Edge 30, Type (0, 1), BuildingBlock: XIVTED_clean_linker_0, # of connection points: 2
#     Edge 31, Type (0, 1), BuildingBlock: XIVTED_clean_linker_0, # of connection points: 2
#     Edge 32, Type (0, 1), BuildingBlock: XIVTED_clean_linker_0, # of connection points: 2
#     Edge 33, Type (0, 1), BuildingBlock: XIVTED_clean_linker_0, # of connection points: 2
#     Edge 34, Type (0, 1), BuildingBlock: XIVTED_clean_linker_0, # of connection points: 2
#     Edge 35, Type (0, 1), BuildingBlock: XIVTED_clean_linker_0, # of connection points: 2
#     Edge 36, Type (0, 1), BuildingBlock: XIVTED_clean_linker_0, # of connection points: 2
#     Edge 37, Type (0, 1), BuildingBlock: XIVTED_clean_linker_0, # of connection points: 2
#     Edge 38, Type (0, 1), BuildingBlock: XIVTED_clean_linker_0, # of connection points: 2
#     Edge 39, Type (0, 1), BuildingBlock: XIVTED_clean_linker_0, # of connection points: 2
#     Edge 40, Type (0, 1), BuildingBlock: XIVTED_clean_linker_0, # of connection points: 2
#     Edge 41, Type (0, 1), BuildingBlock: XIVTED_clean_linker_0, # of connection points: 2
#     Edge 42, Type (0, 1), BuildingBlock: XIVTED_clean_linker_0, # of connection points: 2
#     Edge 43, Type (0, 1), BuildingBlock: XIVTED_clean_linker_0, # of connection points: 2
#     Edge 44, Type (0, 1), BuildingBlock: XIVTED_clean_linker_0, # of connection points: 2
#     Edge 45, Type (0, 1), BuildingBlock: XIVTED_clean_linker_0, # of connection points: 2
#     Edge 46, Type (0, 1), BuildingBlock: XIVTED_clean_linker_0, # of connection points: 2
#     Edge 47, Type (0, 1), BuildingBlock: XIVTED_clean_linker_0, # of connection points: 2
#     Edge 48, Type (0, 1), BuildingBlock: XIVTED_clean_linker_0, # of connection points: 2
#     Edge 49, Type (0, 1), BuildingBlock: XIVTED_clean_linker_0, # of connection points: 2
#     Edge 50, Type (0, 1), BuildingBlock: XIVTED_clean_linker_0, # of connection points: 2
#     Edge 51, Type (0, 1), BuildingBlock: XIVTED_clean_linker_0, # of connection points: 2
#     Edge 52, Type (0, 1), BuildingBlock: XIVTED_clean_linker_0, # of connection points: 2
#     Edge 53, Type (0, 1), BuildingBlock: XIVTED_clean_linker_0, # of connection points: 2
#     Edge 54, Type (0, 1), BuildingBlock: XIVTED_clean_linker_0, # of connection points: 2
#     Edge 55, Type (0, 1), BuildingBlock: XIVTED_clean_linker_0, # of connection points: 2
#     Edge 56, Type (0, 1), BuildingBlock: XIVTED_clean_linker_0, # of connection points: 2
#     Edge 57, Type (0, 1), BuildingBlock: XIVTED_clean_linker_0, # of connection points: 2
#     Edge 58, Type (0, 1), BuildingBlock: XIVTED_clean_linker_0, # of connection points: 2
#     Edge 59, Type (0, 1), BuildingBlock: XIVTED_clean_linker_0, # of connection points: 2
#     Edge 60, Type (0, 1), BuildingBlock: XIVTED_clean_linker_0, # of connection points: 2
#     Edge 61, Type (0, 1), BuildingBlock: XIVTED_clean_linker_0, # of connection points: 2
#     Edge 62, Type (0, 1), BuildingBlock: XIVTED_clean_linker_0, # of connection points: 2
#     Edge 63, Type (0, 1), BuildingBlock: XIVTED_clean_linker_0, # of connection points: 2
#     Edge 64, Type (0, 1), BuildingBlock: XIVTED_clean_linker_0, # of connection points: 2
#     Edge 65, Type (0, 1), BuildingBlock: XIVTED_clean_linker_0, # of connection points: 2
#     Edge 66, Type (0, 1), BuildingBlock: XIVTED_clean_linker_0, # of connection points: 2
#     Edge 67, Type (0, 1), BuildingBlock: XIVTED_clean_linker_0, # of connection points: 2
#     Edge 68, Type (0, 1), BuildingBlock: XIVTED_clean_linker_0, # of connection points: 2
#     Edge 69, Type (0, 1), BuildingBlock: XIVTED_clean_linker_0, # of connection points: 2
#     Edge 70, Type (0, 1), BuildingBlock: XIVTED_clean_linker_0, # of connection points: 2
#     Edge 71, Type (0, 1), BuildingBlock: XIVTED_clean_linker_0, # of connection points: 2
#     Edge 72, Type (0, 1), BuildingBlock: XIVTED_clean_linker_0, # of connection points: 2
#     Edge 73, Type (0, 1), BuildingBlock: XIVTED_clean_linker_0, # of connection points: 2
#     Edge 74, Type (0, 1), BuildingBlock: XIVTED_clean_linker_0, # of connection points: 2
#     Edge 75, Type (0, 1), BuildingBlock: XIVTED_clean_linker_0, # of connection points: 2
#     Edge 76, Type (0, 1), BuildingBlock: XIVTED_clean_linker_0, # of connection points: 2
#     Edge 77, Type (0, 1), BuildingBlock: XIVTED_clean_linker_0, # of connection points: 2
#     Edge 78, Type (0, 1), BuildingBlock: XIVTED_clean_linker_0, # of connection points: 2
#     Edge 79, Type (0, 1), BuildingBlock: XIVTED_clean_linker_0, # of connection points: 2
#     Edge 80, Type (0, 1), BuildingBlock: XIVTED_clean_linker_0, # of connection points: 2
# Relax obj value: 0.009
# Max RMSD: 0.094
# Mean RMSD: 0.061
data_MOF--net-eea--node1-KUMBOL_clean_sbu_0--node2-KAKCAD_clean_linker_0--edge1-XIVTED_clean_linker_0
_symmetry_space_group_name_H-M    P1
_symmetry_Int_Tables_number       1
_symmetry_cell_setting            triclinic
loop_
_symmetry_equiv_pos_as_xyz
'x, y, z'
_cell_length_a     62.853833
_cell_length_b     64.123426
_cell_length_c     88.845229
_cell_angle_alpha  90.271489
_cell_angle_beta   90.11831
_cell_angle_gamma 119.99682
loop_
_atom_site_label
_atom_site_type_symbol
_atom_site_fract_x
_atom_site_fract_y
_atom_site_fract_z
_atom_type_partial_charge
C0 C 0.27605 0.14624 0.48809 0.0
C1 C 0.29605 0.14263 0.49081 0.0
C2 C 0.26538 0.14219 0.47376 0.0
C3 C 0.27434 0.13426 0.46189 0.0
C4 C 0.29441 0.13084 0.46456 0.0
C5 C 0.30521 0.13508 0.47881 0.0
C6 C 0.26285 0.12938 0.44673 0.0
C7 C 0.25748 0.14593 0.43989 0.0
C8 C 0.24804 0.14189 0.42517 0.0
C9 C 0.24358 0.121 0.41739 0.0
C10 C 0.24789 0.10376 0.42426 0.0
C11 C 0.25768 0.10822 0.43893 0.0
C12 C 0.24174 0.08098 0.41622 0.0
C13 C 0.22085 0.06951 0.40688 0.0
C14 C 0.25648 0.07035 0.41794 0.0
C15 C 0.25029 0.04866 0.41066 0.0
C16 C 0.2294 0.03721 0.4013 0.0
C17 C 0.24263 0.15933 0.4178 0.0
C18 C 0.22661 0.16586 0.42454 0.0
C19 C 0.25256 0.16863 0.40361 0.0
C20 C 0.24648 0.18413 0.39624 0.0
C21 C 0.23 0.19023 0.40281 0.0
C22 C 0.22015 0.18101 0.41704 0.0
C23 C 0.21489 0.04805 0.39942 0.0
H24 H 0.2683 0.15174 0.4971 0.0
H25 H 0.24979 0.14479 0.47203 0.0
H26 H 0.30197 0.12513 0.45554 0.0
H27 H 0.32092 0.13265 0.48037 0.0
H28 H 0.26139 0.16232 0.44579 0.0
H29 H 0.26081 0.09499 0.4445 0.0
H30 H 0.23653 0.11817 0.40597 0.0
H31 H 0.20882 0.07691 0.40544 0.0
H32 H 0.27289 0.07879 0.42486 0.0
H33 H 0.26176 0.04075 0.41258 0.0
H34 H 0.21864 0.15875 0.43544 0.0
H35 H 0.26499 0.16383 0.39823 0.0
H36 H 0.1989 0.04005 0.39212 0.0
H37 H 0.20753 0.18562 0.42236 0.0
H38 H 0.25423 0.19096 0.38526 0.0
C39 C 0.87357 0.1615 0.47418 0.0
C40 C 0.86719 0.14508 0.48608 0.0
C41 C 0.87973 0.15629 0.46008 0.0
C42 C 0.87916 0.13438 0.45754 0.0
C43 C 0.87286 0.11801 0.46945 0.0
C44 C 0.86714 0.1234 0.48361 0.0
C45 C 0.88456 0.12832 0.44242 0.0
C46 C 0.90586 0.1447 0.4347 0.0
C47 C 0.91109 0.13897 0.42038 0.0
C48 C 0.8946 0.11652 0.41387 0.0
C49 C 0.87292 0.10001 0.42131 0.0
C50 C 0.86818 0.10614 0.43564 0.0
C51 C 0.8551 0.07662 0.41401 0.0
C52 C 0.8514 0.07498 0.39832 0.0
C53 C 0.84146 0.05575 0.42265 0.0
C54 C 0.82446 0.03399 0.41583 0.0
C55 C 0.82095 0.03229 0.40012 0.0
C56 C 0.93351 0.1565 0.41209 0.0
C57 C 0.94126 0.18121 0.41237 0.0
C58 C 0.94706 0.14865 0.40356 0.0
C59 C 0.96764 0.16505 0.39539 0.0
C60 C 0.97532 0.18975 0.39562 0.0
C61 C 0.96193 0.19762 0.40429 0.0
C62 C 0.83482 0.0531 0.39147 0.0
H63 H 0.87388 0.1784 0.47581 0.0
H64 H 0.88441 0.16916 0.45106 0.0
H65 H 0.87241 0.10104 0.46779 0.0
H66 H 0.86214 0.11037 0.49256 0.0
H67 H 0.91862 0.1617 0.44002 0.0
H68 H 0.85132 0.09401 0.44143 0.0
H69 H 0.8986 0.11202 0.40287 0.0
H70 H 0.86112 0.09064 0.39125 0.0
H71 H 0.84397 0.05609 0.43473 0.0
H72 H 0.81393 0.01858 0.42298 0.0
H73 H 0.93115 0.1879 0.41868 0.0
H74 H 0.94184 0.1298 0.40322 0.0
H75 H 0.83309 0.0526 0.37934 0.0
H76 H 0.9675 0.21654 0.40497 0.0
H77 H 0.97735 0.15827 0.38876 0.0
C78 C 0.88759 0.74757 0.48284 0.0
C79 C 0.86421 0.72779 0.48582 0.0
C80 C 0.89321 0.75819 0.46857 0.0
C81 C 0.87547 0.74949 0.457 0.0
C82 C 0.85205 0.72982 0.46001 0.0
C83 C 0.84654 0.71903 0.47421 0.0
C84 C 0.88127 0.76091 0.44184 0.0
C85 C 0.90332 0.76642 0.43458 0.0
C86 C 0.90895 0.77709 0.4202 0.0
C87 C 0.89189 0.78214 0.41318 0.0
C88 C 0.86951 0.77642 0.42013 0.0
C89 C 0.86453 0.76596 0.43452 0.0
C90 C 0.85107 0.78086 0.41227 0.0
C91 C 0.85846 0.80157 0.40349 0.0
C92 C 0.8258 0.76417 0.41339 0.0
C93 C 0.80844 0.76807 0.40598 0.0
C94 C 0.81579 0.78867 0.39711 0.0
C95 C 0.93231 0.78239 0.41242 0.0
C96 C 0.95388 0.7888 0.42075 0.0
C97 C 0.93324 0.78072 0.39662 0.0
C98 C 0.95494 0.78524 0.38941 0.0
C99 C 0.9761 0.79099 0.39783 0.0
C100 C 0.97537 0.79274 0.41355 0.0
C101 C 0.84107 0.80539 0.39599 0.0
H102 H 0.90167 0.75465 0.4915 0.0
H103 H 0.91137 0.77341 0.46663 0.0
H104 H 0.83803 0.72257 0.45132 0.0
H105 H 0.82829 0.70396 0.47615 0.0
H106 H 0.9157 0.76162 0.44 0.0
H107 H 0.84772 0.7621 0.4402 0.0
H108 H 0.89588 0.79036 0.40217 0.0
H109 H 0.87771 0.81498 0.40249 0.0
H110 H 0.81934 0.74785 0.41986 0.0
H111 H 0.78917 0.75494 0.40736 0.0
H112 H 0.95429 0.79089 0.43286 0.0
H113 H 0.91706 0.77535 0.38974 0.0
H114 H 0.84752 0.82136 0.38917 0.0
H115 H 0.99154 0.79733 0.42029 0.0
H116 H 0.95497 0.78353 0.37728 0.0
C117 C 0.14848 0.25175 0.53506 0.0
C118 C 0.14146 0.26832 0.53027 0.0
C119 C 0.14273 0.24197 0.54953 0.0
C120 C 0.13003 0.24868 0.55972 0.0
C121 C 0.1228 0.26511 0.55485 0.0
C122 C 0.12834 0.2747 0.5403 0.0
C123 C 0.12468 0.23879 0.57537 0.0
C124 C 0.14183 0.23484 0.58321 0.0
C125 C 0.13698 0.22494 0.59778 0.0
C126 C 0.11469 0.21972 0.60471 0.0
C127 C 0.09752 0.2242 0.59732 0.0
C128 C 0.10259 0.23338 0.58257 0.0
C129 C 0.07451 0.21979 0.60506 0.0
C130 C 0.06123 0.19962 0.61434 0.0
C131 C 0.06579 0.23604 0.60335 0.0
C132 C 0.0445 0.23228 0.6107 0.0
C133 C 0.03127 0.21222 0.62006 0.0
C134 C 0.15535 0.22029 0.60567 0.0
C135 C 0.17009 0.21348 0.59743 0.0
C136 C 0.15861 0.22285 0.62142 0.0
C137 C 0.17608 0.21882 0.62864 0.0
C138 C 0.19108 0.21261 0.62029 0.0
C139 C 0.18788 0.20998 0.60462 0.0
C140 C 0.0399 0.19588 0.62174 0.0
H141 H 0.15828 0.24616 0.52754 0.0
H142 H 0.14814 0.22898 0.55268 0.0
H143 H 0.11332 0.27102 0.56238 0.0
H144 H 0.1229 0.28762 0.53703 0.0
H145 H 0.15936 0.24007 0.57803 0.0
H146 H 0.08903 0.2359 0.57657 0.0
H147 H 0.11072 0.2123 0.61594 0.0
H148 H 0.06718 0.18657 0.61583 0.0
H149 H 0.07562 0.25193 0.59646 0.0
H150 H 0.0383 0.24509 0.60891 0.0
H151 H 0.16784 0.21065 0.58538 0.0
H152 H 0.14804 0.22845 0.6282 0.0
H153 H 0.03037 0.18032 0.62893 0.0
H154 H 0.19897 0.20488 0.59793 0.0
H155 H 0.17829 0.22112 0.64074 0.0
C156 C 0.70223 0.83527 0.53715 0.0
C157 C 0.70985 0.85367 0.52642 0.0
C158 C 0.71269 0.84025 0.55156 0.0
C159 C 0.73097 0.86375 0.55554 0.0
C160 C 0.7386 0.88209 0.54479 0.0
C161 C 0.72813 0.87713 0.53043 0.0
C162 C 0.74223 0.86929 0.57081 0.0
C163 C 0.74861 0.85362 0.57788 0.0
C164 C 0.76042 0.8595 0.59197 0.0
C165 C 0.76587 0.88128 0.59899 0.0
C166 C 0.7593 0.89702 0.59221 0.0
C167 C 0.7473 0.89073 0.57818 0.0
C168 C 0.76521 0.92013 0.59964 0.0
C169 C 0.76316 0.92149 0.61534 0.0
C170 C 0.77304 0.9411 0.59106 0.0
C171 C 0.77853 0.96282 0.59799 0.0
C172 C 0.77661 0.96413 0.61366 0.0
C173 C 0.7673 0.843 0.59929 0.0
C174 C 0.7503 0.81827 0.60016 0.0
C175 C 0.79084 0.85188 0.60555 0.0
C176 C 0.79728 0.8363 0.6125 0.0
C177 C 0.78025 0.81152 0.61343 0.0
C178 C 0.75665 0.80271 0.60722 0.0
C179 C 0.76894 0.9433 0.62228 0.0
H180 H 0.68834 0.81696 0.53438 0.0
H181 H 0.70629 0.82576 0.55963 0.0
H182 H 0.75287 0.90032 0.54741 0.0
H183 H 0.73421 0.8918 0.52252 0.0
H184 H 0.74514 0.8372 0.5722 0.0
H185 H 0.74158 0.90243 0.57302 0.0
H186 H 0.7753 0.88597 0.60977 0.0
H187 H 0.7568 0.90563 0.62226 0.0
H188 H 0.77529 0.94085 0.57899 0.0
H189 H 0.78473 0.97871 0.59111 0.0
H190 H 0.73192 0.811 0.5956 0.0
H191 H 0.80441 0.87084 0.60487 0.0
H192 H 0.76708 0.94381 0.63437 0.0
H193 H 0.74291 0.78382 0.60797 0.0
H194 H 0.81574 0.84366 0.61692 0.0
C195 C 0.11285 0.84861 0.53545 0.0
C196 C 0.13725 0.85773 0.53079 0.0
C197 C 0.10772 0.85342 0.54998 0.0
C198 C 0.12689 0.86712 0.56025 0.0
C199 C 0.15128 0.87589 0.55554 0.0
C200 C 0.15638 0.87144 0.54097 0.0
C201 C 0.12166 0.87224 0.57582 0.0
C202 C 0.10096 0.85507 0.58376 0.0
C203 C 0.0966 0.8596 0.5986 0.0
C204 C 0.11337 0.88141 0.60563 0.0
C205 C 0.13399 0.89899 0.59788 0.0
C206 C 0.13773 0.89432 0.58292 0.0
C207 C 0.15168 0.92221 0.60534 0.0
C208 C 0.1434 0.93378 0.61526 0.0
C209 C 0.17703 0.93306 0.60256 0.0
C210 C 0.19362 0.95498 0.60937 0.0
C211 C 0.18537 0.96655 0.6193 0.0
C212 C 0.0744 0.84164 0.60676 0.0
C213 C 0.05114 0.83138 0.59988 0.0
C214 C 0.07621 0.83502 0.62157 0.0
C215 C 0.05519 0.8184 0.62931 0.0
C216 C 0.0319 0.80833 0.62248 0.0
C217 C 0.0301 0.81501 0.60769 0.0
C218 C 0.16003 0.95557 0.62221 0.0
H219 H 0.09776 0.8381 0.52777 0.0
H220 H 0.08874 0.84665 0.55305 0.0
H221 H 0.16656 0.88597 0.56318 0.0
H222 H 0.17535 0.87838 0.53773 0.0
H223 H 0.08849 0.83784 0.57859 0.0
H224 H 0.15303 0.90815 0.57669 0.0
H225 H 0.11023 0.88467 0.61717 0.0
H226 H 0.12401 0.92617 0.61755 0.0
H227 H 0.18417 0.92455 0.59517 0.0
H228 H 0.21292 0.96297 0.60667 0.0
H229 H 0.0492 0.83629 0.58852 0.0
H230 H 0.09392 0.84257 0.62712 0.0
H231 H 0.15296 0.96369 0.62995 0.0
H232 H 0.01242 0.80735 0.60209 0.0
H233 H 0.05711 0.81364 0.64072 0.0
C234 C 0.94596 0.48203 0.81757 0.0
C235 C 0.96695 0.47989 0.81987 0.0
C236 C 0.93449 0.47712 0.80346 0.0
C237 C 0.94363 0.46977 0.79138 0.0
C238 C 0.96477 0.46793 0.79359 0.0
C239 C 0.97635 0.47303 0.80765 0.0
C240 C 0.93083 0.4634 0.77661 0.0
C241 C 0.92292 0.47827 0.77001 0.0
C242 C 0.91104 0.47229 0.75594 0.0
C243 C 0.90634 0.45091 0.7487 0.0
C244 C 0.91379 0.43576 0.75527 0.0
C245 C 0.92633 0.44224 0.76909 0.0
C246 C 0.90789 0.41283 0.74785 0.0
C247 C 0.88342 0.3959 0.74429 0.0
C248 C 0.92656 0.40767 0.7444 0.0
C249 C 0.92084 0.38593 0.73734 0.0
C250 C 0.89632 0.36887 0.73397 0.0
C251 C 0.904 0.48856 0.74856 0.0
C252 C 0.88924 0.49599 0.75604 0.0
C253 C 0.91191 0.49658 0.73386 0.0
C254 C 0.90534 0.51194 0.72678 0.0
C255 C 0.89035 0.51916 0.73417 0.0
C256 C 0.88224 0.51098 0.74883 0.0
C257 C 0.87764 0.37397 0.73754 0.0
H258 H 0.93799 0.48692 0.82676 0.0
H259 H 0.91808 0.47844 0.80211 0.0
H260 H 0.97243 0.46266 0.78441 0.0
H261 H 0.99277 0.47169 0.80889 0.0
H262 H 0.92668 0.49486 0.77558 0.0
H263 H 0.93187 0.43036 0.77421 0.0
H264 H 0.89686 0.44605 0.73794 0.0
H265 H 0.86874 0.39951 0.74693 0.0
H266 H 0.94557 0.42055 0.74703 0.0
H267 H 0.9355 0.38228 0.73472 0.0
H268 H 0.88287 0.48992 0.76737 0.0
H269 H 0.9234 0.49114 0.72791 0.0
H270 H 0.85862 0.36108 0.73497 0.0
H271 H 0.87077 0.51646 0.75477 0.0
H272 H 0.91173 0.51797 0.71545 0.0
C273 C 0.54251 0.50249 0.81098 0.0
C274 C 0.53715 0.48706 0.82334 0.0
C275 C 0.5482 0.49649 0.79698 0.0
C276 C 0.54813 0.47471 0.79498 0.0
C277 C 0.54277 0.45928 0.80733 0.0
C278 C 0.53759 0.46552 0.82142 0.0
C279 C 0.55314 0.46789 0.77996 0.0
C280 C 0.5742 0.48397 0.77189 0.0
C281 C 0.57898 0.47771 0.75759 0.0
C282 C 0.56214 0.45511 0.7514 0.0
C283 C 0.54075 0.43888 0.75918 0.0
C284 C 0.53657 0.44541 0.77356 0.0
C285 C 0.52265 0.41538 0.75214 0.0
C286 C 0.51788 0.41373 0.73655 0.0
C287 C 0.51007 0.3944 0.76085 0.0
C288 C 0.4933 0.37239 0.75414 0.0
C289 C 0.48897 0.37079 0.73854 0.0
C290 C 0.60128 0.49477 0.74897 0.0
C291 C 0.60942 0.51957 0.74893 0.0
C292 C 0.61429 0.48633 0.74041 0.0
C293 C 0.63465 0.5022 0.73187 0.0
C294 C 0.64268 0.52698 0.73173 0.0
C295 C 0.62986 0.53545 0.74046 0.0
C296 C 0.50141 0.39169 0.72983 0.0
H297 H 0.54241 0.51926 0.81218 0.0
H298 H 0.55215 0.50863 0.78761 0.0
H299 H 0.5427 0.44242 0.80609 0.0
H300 H 0.53339 0.45326 0.83074 0.0
H301 H 0.58712 0.50117 0.77693 0.0
H302 H 0.51998 0.43337 0.77961 0.0
H303 H 0.56563 0.45022 0.74038 0.0
H304 H 0.52668 0.42953 0.7295 0.0
H305 H 0.51347 0.39485 0.77283 0.0
H306 H 0.48411 0.3565 0.7611 0.0
H307 H 0.59975 0.52672 0.75526 0.0
H308 H 0.60881 0.46741 0.74032 0.0
H309 H 0.49814 0.39104 0.71782 0.0
H310 H 0.63571 0.55445 0.74087 0.0
H311 H 0.64388 0.49493 0.72522 0.0
C312 C 0.56263 0.07603 0.81741 0.0
C313 C 0.53869 0.06046 0.82254 0.0
C314 C 0.56663 0.08649 0.80312 0.0
C315 C 0.54678 0.08129 0.79339 0.0
C316 C 0.52279 0.06563 0.79862 0.0
C317 C 0.51881 0.05558 0.81303 0.0
C318 C 0.55105 0.09172 0.77782 0.0
C319 C 0.5721 0.09624 0.76959 0.0
C320 C 0.57601 0.10549 0.75488 0.0
C321 C 0.55833 0.10991 0.74823 0.0
C322 C 0.53717 0.10571 0.75615 0.0
C323 C 0.53392 0.09689 0.77098 0.0
C324 C 0.51834 0.11031 0.74892 0.0
C325 C 0.52534 0.13022 0.73943 0.0
C326 C 0.49311 0.09463 0.75134 0.0
C327 C 0.47544 0.09871 0.74449 0.0
C328 C 0.4824 0.11854 0.73493 0.0
C329 C 0.59857 0.11041 0.74646 0.0
C330 C 0.62182 0.12288 0.7534 0.0
C331 C 0.59706 0.10266 0.73145 0.0
C332 C 0.61825 0.10699 0.72365 0.0
C333 C 0.64151 0.11949 0.73059 0.0
C334 C 0.64304 0.12752 0.74553 0.0
C335 C 0.50764 0.13426 0.73254 0.0
H336 H 0.57831 0.08032 0.82455 0.0
H337 H 0.58535 0.09882 0.79979 0.0
H338 H 0.50696 0.06063 0.79148 0.0
H339 H 0.50015 0.04342 0.8166 0.0
H340 H 0.58525 0.09191 0.7744 0.0
H341 H 0.51816 0.09448 0.77732 0.0
H342 H 0.56109 0.11662 0.73681 0.0
H343 H 0.54456 0.14287 0.73741 0.0
H344 H 0.48692 0.07895 0.7584 0.0
H345 H 0.45625 0.08637 0.74683 0.0
H346 H 0.62363 0.12924 0.7649 0.0
H347 H 0.57942 0.09289 0.72581 0.0
H348 H 0.51379 0.14959 0.72516 0.0
H349 H 0.66063 0.137 0.75125 0.0
H350 H 0.61644 0.10068 0.71214 0.0
C351 C 0.80987 0.58262 0.86571 0.0
C352 C 0.80888 0.60366 0.86285 0.0
C353 C 0.8043 0.57216 0.88002 0.0
C354 C 0.79715 0.58227 0.89166 0.0
C355 C 0.79562 0.60298 0.88868 0.0
C356 C 0.80163 0.61368 0.87447 0.0
C357 C 0.79196 0.5717 0.907 0.0
C358 C 0.8088 0.56668 0.91421 0.0
C359 C 0.80477 0.55797 0.92903 0.0
C360 C 0.78327 0.55372 0.93649 0.0
C361 C 0.76583 0.55803 0.92936 0.0
C362 C 0.77052 0.56728 0.91463 0.0
C363 C 0.74272 0.55273 0.93726 0.0
C364 C 0.73021 0.53215 0.94631 0.0
C365 C 0.73286 0.56807 0.93577 0.0
C366 C 0.71103 0.56288 0.94303 0.0
C367 C 0.69847 0.54225 0.95204 0.0
C368 C 0.82325 0.5538 0.93684 0.0
C369 C 0.83346 0.54131 0.92961 0.0
C370 C 0.83095 0.56246 0.95158 0.0
C371 C 0.84866 0.55893 0.95886 0.0
C372 C 0.85885 0.54641 0.95164 0.0
C373 C 0.85094 0.53752 0.93697 0.0
C374 C 0.70844 0.52702 0.95362 0.0
H375 H 0.81553 0.57459 0.85698 0.0
H376 H 0.80553 0.55614 0.88199 0.0
H377 H 0.79031 0.61124 0.89746 0.0
H378 H 0.80057 0.62981 0.87255 0.0
H379 H 0.82556 0.57045 0.90848 0.0
H380 H 0.75724 0.57056 0.90891 0.0
H381 H 0.78017 0.54706 0.94793 0.0
H382 H 0.73704 0.51975 0.9476 0.0
H383 H 0.74209 0.58422 0.92905 0.0
H384 H 0.7038 0.57489 0.94136 0.0
H385 H 0.82778 0.53432 0.9183 0.0
H386 H 0.82356 0.5723 0.95739 0.0
H387 H 0.6995 0.51112 0.96059 0.0
H388 H 0.85861 0.52798 0.93107 0.0
H389 H 0.85426 0.56586 0.97019 0.0
C390 C 0.34989 0.16352 0.87956 0.0
C391 C 0.3619 0.17973 0.86779 0.0
C392 C 0.36009 0.16842 0.89404 0.0
C393 C 0.38217 0.18985 0.897 0.0
C394 C 0.39415 0.20605 0.88523 0.0
C395 C 0.38421 0.20093 0.87072 0.0
C396 C 0.39265 0.19555 0.91237 0.0
C397 C 0.39712 0.17919 0.9202 0.0
C398 C 0.40802 0.18497 0.93458 0.0
C399 C 0.41417 0.20734 0.94109 0.0
C400 C 0.40968 0.22389 0.93341 0.0
C401 C 0.3988 0.21772 0.91904 0.0
C402 C 0.41687 0.24779 0.94022 0.0
C403 C 0.41496 0.25031 0.95582 0.0
C404 C 0.42606 0.2684 0.93116 0.0
C405 C 0.43304 0.29087 0.9375 0.0
C406 C 0.43156 0.2935 0.95313 0.0
C407 C 0.41371 0.16801 0.94259 0.0
C408 C 0.39747 0.14301 0.94179 0.0
C409 C 0.43567 0.17666 0.95087 0.0
C410 C 0.44134 0.16072 0.95806 0.0
C411 C 0.42534 0.13578 0.95696 0.0
C412 C 0.4033 0.12707 0.94883 0.0
C413 C 0.4224 0.2729 0.9622 0.0
H414 H 0.3327 0.14701 0.87754 0.0
H415 H 0.35053 0.15572 0.90298 0.0
H416 H 0.41127 0.22262 0.88726 0.0
H417 H 0.39371 0.21376 0.86183 0.0
H418 H 0.3929 0.16234 0.91482 0.0
H419 H 0.39473 0.23 0.91304 0.0
H420 H 0.42273 0.21196 0.95211 0.0
H421 H 0.40762 0.23483 0.96315 0.0
H422 H 0.42818 0.26731 0.91914 0.0
H423 H 0.43951 0.30616 0.93006 0.0
H424 H 0.3802 0.13573 0.93574 0.0
H425 H 0.44885 0.19575 0.9515 0.0
H426 H 0.42123 0.27417 0.97429 0.0
H427 H 0.39055 0.10789 0.94793 0.0
H428 H 0.45862 0.16787 0.96409 0.0
C429 C 0.79019 0.17994 0.86691 0.0
C430 C 0.81381 0.18332 0.86435 0.0
C431 C 0.78378 0.18457 0.8811 0.0
C432 C 0.80089 0.1929 0.89298 0.0
C433 C 0.82426 0.19574 0.89055 0.0
C434 C 0.8306 0.19087 0.87644 0.0
C435 C 0.79487 0.19987 0.90761 0.0
C436 C 0.77254 0.18467 0.91483 0.0
C437 C 0.76637 0.19173 0.92843 0.0
C438 C 0.78291 0.21448 0.93459 0.0
C439 C 0.80549 0.22962 0.92764 0.0
C440 C 0.81136 0.22216 0.9142 0.0
C441 C 0.82297 0.25333 0.93438 0.0
C442 C 0.81485 0.26905 0.93919 0.0
C443 C 0.8479 0.26039 0.936 0.0
C444 C 0.8644 0.28269 0.94241 0.0
C445 C 0.85637 0.29855 0.9472 0.0
C446 C 0.74286 0.17536 0.93626 0.0
C447 C 0.72145 0.16004 0.92799 0.0
C448 C 0.74163 0.17483 0.95211 0.0
C449 C 0.71961 0.15956 0.95945 0.0
C450 C 0.69849 0.1441 0.95113 0.0
C451 C 0.69959 0.14441 0.93536 0.0
C452 C 0.83138 0.29146 0.94546 0.0
H453 H 0.77687 0.17445 0.85786 0.0
H454 H 0.76571 0.18245 0.88263 0.0
H455 H 0.8377 0.20184 0.89958 0.0
H456 H 0.84873 0.19312 0.87502 0.0
H457 H 0.76029 0.16713 0.90996 0.0
H458 H 0.82851 0.23409 0.90859 0.0
H459 H 0.77834 0.2205 0.94486 0.0
H460 H 0.79577 0.26417 0.93788 0.0
H461 H 0.85458 0.24847 0.93253 0.0
H462 H 0.88338 0.28731 0.94382 0.0
H463 H 0.72142 0.16022 0.91581 0.0
H464 H 0.75776 0.1859 0.95892 0.0
H465 H 0.82459 0.30335 0.94874 0.0
H466 H 0.68341 0.13275 0.92872 0.0
H467 H 0.71921 0.15943 0.97164 0.0
C468 C 0.63316 0.83129 0.14179 0.0
C469 C 0.64676 0.82071 0.14675 0.0
C470 C 0.62428 0.82774 0.12702 0.0
C471 C 0.6292 0.81385 0.11677 0.0
C472 C 0.64328 0.80367 0.12175 0.0
C473 C 0.65176 0.80688 0.13661 0.0
C474 C 0.61909 0.80947 0.10114 0.0
C475 C 0.61673 0.82734 0.09341 0.0
C476 C 0.60589 0.82282 0.07901 0.0
C477 C 0.59771 0.80024 0.07224 0.0
C478 C 0.60042 0.78244 0.0796 0.0
C479 C 0.61103 0.78708 0.09401 0.0
C480 C 0.59162 0.75873 0.07233 0.0
C481 C 0.56736 0.74541 0.06699 0.0
C482 C 0.60747 0.74938 0.07061 0.0
C483 C 0.59922 0.72712 0.06353 0.0
C484 C 0.57487 0.71367 0.05835 0.0
C485 C 0.60231 0.84131 0.07123 0.0
C486 C 0.59428 0.85499 0.07928 0.0
C487 C 0.60599 0.8448 0.05562 0.0
C488 C 0.60132 0.86128 0.0482 0.0
C489 C 0.59301 0.87473 0.05624 0.0
C490 C 0.58971 0.87152 0.07188 0.0
C491 C 0.55898 0.72295 0.06018 0.0
H492 H 0.62887 0.84185 0.14946 0.0
H493 H 0.61311 0.83547 0.12375 0.0
H494 H 0.6479 0.79329 0.11416 0.0
H495 H 0.66248 0.79877 0.14013 0.0
H496 H 0.62357 0.84494 0.09852 0.0
H497 H 0.61214 0.77284 0.09983 0.0
H498 H 0.589 0.79635 0.06124 0.0
H499 H 0.55481 0.75226 0.06826 0.0
H500 H 0.62629 0.75943 0.0746 0.0
H501 H 0.61173 0.72021 0.06233 0.0
H502 H 0.59085 0.85246 0.09126 0.0
H503 H 0.61251 0.8348 0.04912 0.0
H504 H 0.54014 0.7129 0.05622 0.0
H505 H 0.58295 0.88133 0.07836 0.0
H506 H 0.60433 0.86359 0.03617 0.0
C507 C 0.21037 0.83068 0.14283 0.0
C508 C 0.20437 0.81417 0.1547 0.0
C509 C 0.21645 0.8258 0.1286 0.0
C510 C 0.21626 0.80414 0.12585 0.0
C511 C 0.21063 0.78779 0.13767 0.0
C512 C 0.20499 0.79283 0.15195 0.0
C513 C 0.2211 0.79807 0.11059 0.0
C514 C 0.24246 0.81404 0.10275 0.0
C515 C 0.24744 0.80768 0.08855 0.0
C516 C 0.23054 0.78526 0.08219 0.0
C517 C 0.20869 0.76932 0.08967 0.0
C518 C 0.20426 0.77594 0.10393 0.0
C519 C 0.19044 0.74597 0.08253 0.0
C520 C 0.18674 0.74412 0.06684 0.0
C521 C 0.17641 0.72536 0.0913 0.0
C522 C 0.15902 0.70364 0.08462 0.0
C523 C 0.1555 0.70173 0.06891 0.0
C524 C 0.27022 0.82429 0.08027 0.0
C525 C 0.2781 0.84897 0.07931 0.0
C526 C 0.2839 0.81542 0.07292 0.0
C527 C 0.30484 0.83081 0.06469 0.0
C528 C 0.3126 0.85545 0.06358 0.0
C529 C 0.29901 0.86437 0.07102 0.0
C530 C 0.16976 0.72228 0.06012 0.0
H531 H 0.20978 0.84714 0.14438 0.0
H532 H 0.22058 0.83861 0.11961 0.0
H533 H 0.21067 0.77109 0.13587 0.0
H534 H 0.20116 0.77993 0.16082 0.0
H535 H 0.25554 0.83108 0.10791 0.0
H536 H 0.18739 0.76416 0.10982 0.0
H537 H 0.23445 0.78032 0.0713 0.0
H538 H 0.19679 0.7596 0.05966 0.0
H539 H 0.17891 0.72585 0.10339 0.0
H540 H 0.14821 0.68844 0.09186 0.0
H541 H 0.26786 0.85632 0.08476 0.0
H542 H 0.27846 0.79653 0.07357 0.0
H543 H 0.16803 0.72159 0.04798 0.0
H544 H 0.30467 0.88331 0.07056 0.0
H545 H 0.31478 0.82332 0.05903 0.0
C546 C 0.22627 0.41101 0.14914 0.0
C547 C 0.20198 0.39574 0.15381 0.0
C548 C 0.23119 0.42094 0.13466 0.0
C549 C 0.21193 0.41549 0.1244 0.0
C550 C 0.18764 0.39986 0.12911 0.0
C551 C 0.18274 0.39033 0.14365 0.0
C552 C 0.21699 0.42597 0.10888 0.0
C553 C 0.23818 0.43016 0.10096 0.0
C554 C 0.24272 0.43962 0.08627 0.0
C555 C 0.22553 0.44455 0.07942 0.0
C556 C 0.20421 0.44044 0.08704 0.0
C557 C 0.20036 0.43153 0.10182 0.0
C558 C 0.18564 0.44494 0.07948 0.0
C559 C 0.19289 0.46509 0.07019 0.0
C560 C 0.16039 0.42881 0.08137 0.0
C561 C 0.14287 0.43267 0.07416 0.0
C562 C 0.15007 0.45271 0.06479 0.0
C563 C 0.2654 0.44437 0.07806 0.0
C564 C 0.28826 0.45501 0.0855 0.0
C565 C 0.26449 0.43878 0.06265 0.0
C566 C 0.28589 0.44388 0.05486 0.0
C567 C 0.3088 0.45477 0.06226 0.0
C568 C 0.30966 0.46017 0.0777 0.0
C569 C 0.17533 0.46893 0.06294 0.0
H570 H 0.24147 0.41563 0.15678 0.0
H571 H 0.2501 0.43316 0.13163 0.0
H572 H 0.17228 0.39463 0.12152 0.0
H573 H 0.16385 0.37831 0.14686 0.0
H574 H 0.25089 0.42546 0.10602 0.0
H575 H 0.18446 0.42928 0.10792 0.0
H576 H 0.22873 0.45155 0.06807 0.0
H577 H 0.21216 0.47804 0.0686 0.0
H578 H 0.15408 0.41294 0.08828 0.0
H579 H 0.12362 0.41997 0.07606 0.0
H580 H 0.28969 0.45973 0.09733 0.0
H581 H 0.24718 0.43032 0.05659 0.0
H582 H 0.18159 0.48446 0.05572 0.0
H583 H 0.3269 0.46825 0.08383 0.0
H584 H 0.28452 0.43962 0.04296 0.0
C585 C 0.46984 0.91397 0.19883 0.0
C586 C 0.46828 0.93472 0.196 0.0
C587 C 0.46457 0.90351 0.21314 0.0
C588 C 0.45724 0.91333 0.22486 0.0
C589 C 0.45515 0.93376 0.22193 0.0
C590 C 0.46079 0.94444 0.20769 0.0
C591 C 0.45233 0.90264 0.24019 0.0
C592 C 0.46918 0.89731 0.24707 0.0
C593 C 0.46504 0.88737 0.26162 0.0
C594 C 0.44347 0.88283 0.26923 0.0
C595 C 0.42649 0.88838 0.26264 0.0
C596 C 0.43113 0.8982 0.24806 0.0
C597 C 0.40413 0.88431 0.27103 0.0
C598 C 0.39095 0.8639 0.28014 0.0
C599 C 0.39585 0.90099 0.27006 0.0
C600 C 0.37498 0.89734 0.27789 0.0
C601 C 0.36181 0.87698 0.28703 0.0
C602 C 0.48357 0.88237 0.26891 0.0
C603 C 0.49775 0.87543 0.26019 0.0
C604 C 0.48781 0.88512 0.28459 0.0
C605 C 0.50578 0.88127 0.29126 0.0
C606 C 0.5203 0.87513 0.2824 0.0
C607 C 0.51607 0.87217 0.26683 0.0
C608 C 0.37011 0.8603 0.28804 0.0
H609 H 0.4757 0.90617 0.19008 0.0
H610 H 0.4662 0.88769 0.21505 0.0
H611 H 0.44968 0.94181 0.23075 0.0
H612 H 0.45926 0.96032 0.20582 0.0
H613 H 0.48598 0.90174 0.24119 0.0
H614 H 0.41798 0.90203 0.24267 0.0
H615 H 0.43995 0.87517 0.28039 0.0
H616 H 0.39656 0.8505 0.28105 0.0
H617 H 0.40565 0.9171 0.26335 0.0
H618 H 0.36903 0.91043 0.2766 0.0
H619 H 0.49475 0.87247 0.24818 0.0
H620 H 0.47775 0.89086 0.29173 0.0
H621 H 0.36066 0.84452 0.29506 0.0
H622 H 0.52692 0.86721 0.25978 0.0
H623 H 0.50886 0.88384 0.3033 0.0
C624 C 0.03416 0.50585 0.2072 0.0
C625 C 0.04446 0.52244 0.19534 0.0
C626 C 0.04582 0.51073 0.22125 0.0
C627 C 0.06777 0.53244 0.2238 0.0
C628 C 0.0782 0.54892 0.212 0.0
C629 C 0.06681 0.5439 0.1979 0.0
C630 C 0.07968 0.53823 0.2388 0.0
C631 C 0.08491 0.52196 0.24612 0.0
C632 C 0.09723 0.52801 0.26006 0.0
C633 C 0.10379 0.55032 0.26677 0.0
C634 C 0.09813 0.56655 0.25975 0.0
C635 C 0.08621 0.56038 0.2457 0.0
C636 C 0.10448 0.58982 0.26715 0.0
C637 C 0.1019 0.59108 0.2828 0.0
C638 C 0.11294 0.61091 0.25861 0.0
C639 C 0.11848 0.63265 0.26554 0.0
C640 C 0.11593 0.63385 0.28116 0.0
C641 C 0.10357 0.51123 0.26757 0.0
C642 C 0.08605 0.4867 0.26885 0.0
C643 C 0.12716 0.51975 0.27366 0.0
C644 C 0.13312 0.50405 0.28089 0.0
C645 C 0.11558 0.47949 0.28229 0.0
C646 C 0.09195 0.47101 0.27618 0.0
C647 C 0.10769 0.61288 0.28974 0.0
H648 H 0.01682 0.4893 0.20576 0.0
H649 H 0.03736 0.49782 0.23024 0.0
H650 H 0.09533 0.56565 0.21366 0.0
H651 H 0.07568 0.55685 0.18899 0.0
H652 H 0.08014 0.50496 0.24073 0.0
H653 H 0.08144 0.57256 0.24021 0.0
H654 H 0.11332 0.555 0.27751 0.0
H655 H 0.095 0.57512 0.28969 0.0
H656 H 0.11556 0.6107 0.24658 0.0
H657 H 0.1251 0.64864 0.25869 0.0
H658 H 0.06764 0.47972 0.26441 0.0
H659 H 0.14113 0.53853 0.27265 0.0
H660 H 0.10529 0.61326 0.30179 0.0
H661 H 0.07785 0.45229 0.27726 0.0
H662 H 0.15162 0.51113 0.28519 0.0
C663 C 0.44947 0.51393 0.19746 0.0
C664 C 0.47323 0.51765 0.19493 0.0
C665 C 0.4428 0.51824 0.21167 0.0
C666 C 0.45981 0.52661 0.22361 0.0
C667 C 0.48331 0.52975 0.22122 0.0
C668 C 0.48989 0.52518 0.20709 0.0
C669 C 0.45361 0.53332 0.23829 0.0
C670 C 0.43148 0.51774 0.24561 0.0
C671 C 0.42545 0.52436 0.25944 0.0
C672 C 0.44183 0.54713 0.26565 0.0
C673 C 0.4642 0.56264 0.2586 0.0
C674 C 0.46995 0.55559 0.24496 0.0
C675 C 0.48179 0.58611 0.26559 0.0
C676 C 0.47378 0.60161 0.27101 0.0
C677 C 0.50673 0.59306 0.26695 0.0
C678 C 0.52334 0.61504 0.27368 0.0
C679 C 0.51543 0.63069 0.27907 0.0
C680 C 0.40255 0.50732 0.26763 0.0
C681 C 0.38098 0.49131 0.25972 0.0
C682 C 0.40219 0.50658 0.28349 0.0
C683 C 0.38098 0.49029 0.29119 0.0
C684 C 0.3598 0.474 0.28321 0.0
C685 C 0.35994 0.47467 0.26742 0.0
C686 C 0.49043 0.62372 0.2776 0.0
H687 H 0.43622 0.50841 0.18836 0.0
H688 H 0.42462 0.51587 0.21318 0.0
H689 H 0.49667 0.53585 0.23029 0.0
H690 H 0.50812 0.52766 0.20572 0.0
H691 H 0.4194 0.50018 0.2407 0.0
H692 H 0.48697 0.56776 0.23931 0.0
H693 H 0.4374 0.5528 0.27612 0.0
H694 H 0.45468 0.5968 0.26994 0.0
H695 H 0.51333 0.58129 0.26304 0.0
H696 H 0.54232 0.61954 0.27486 0.0
H697 H 0.38026 0.49159 0.24755 0.0
H698 H 0.41848 0.51815 0.29004 0.0
H699 H 0.48372 0.63546 0.28136 0.0
H700 H 0.34371 0.46234 0.26105 0.0
H701 H 0.38137 0.48989 0.30337 0.0
Gd702 Gd 0.51429 0.01688 0.0246 0.0
Gd703 Gd 0.49488 0.98501 0.98819 0.0
C704 C 0.41556 0.94769 0.97118 0.0
C705 C 0.39713 0.90959 0.98443 0.0
C706 C 0.44047 0.93895 0.98793 0.0
C707 C 0.43814 0.95463 0.97843 0.0
C708 C 0.42009 0.916 0.9908 0.0
C709 C 0.39488 0.92541 0.97461 0.0
C710 C 0.41481 0.96281 0.96013 0.0
C711 C 0.43653 0.98342 0.95596 0.0
N712 N 0.45851 0.97583 0.97526 0.0
C713 C 0.45847 0.98926 0.96338 0.0
H714 H 0.47546 0.00462 0.95978 0.0
C715 C 0.46655 0.92983 1.0021 0.0
N716 N 0.46295 0.94574 0.99384 0.0
C717 C 0.44696 0.9068 0.00516 0.0
C718 C 0.42354 0.89997 0.99968 0.0
H719 H 0.48433 0.93478 0.00667 0.0
H720 H 0.37728 0.9199 0.96931 0.0
H721 H 0.57086 0.02494 0.02031 0.0
H722 H 0.39785 0.95812 0.95426 0.0
H723 H 0.43645 0.99461 0.9469 0.0
H724 H 0.38121 0.89218 0.98667 0.0
H725 H 0.48243 0.04068 0.0392 0.0
H726 H 0.62267 0.10043 0.02161 0.0
H727 H 0.61358 0.05833 0.019 0.0
H728 H 0.57286 0.13538 0.03374 0.0
H729 H 0.4499 0.89444 0.0119 0.0
H730 H 0.40837 0.88219 1.00216 0.0
H731 H 0.60719 0.12915 0.02676 0.0
H732 H 0.48814 0.08087 0.04531 0.0
N733 N 0.55564 0.04778 0.02334 0.0
C734 C 0.60384 0.08582 0.0222 0.0
C735 C 0.59879 0.06208 0.02078 0.0
C736 C 0.58457 0.09035 0.02482 0.0
C737 C 0.56039 0.07067 0.02543 0.0
C738 C 0.57448 0.04317 0.02155 0.0
N739 N 0.51856 0.05454 0.03069 0.0
C740 C 0.54115 0.07418 0.02917 0.0
C741 C 0.50316 0.07928 0.04063 0.0
C742 C 0.52588 0.09986 0.03811 0.0
C743 C 0.49995 0.05658 0.03714 0.0
C744 C 0.54542 0.09744 0.03266 0.0
H745 H 0.5284 0.11742 0.04095 0.0
O746 O 0.49524 0.00358 0.04595 0.0
O747 O 0.48696 0.98315 0.0127 0.0
O748 O 0.47755 0.00857 0.99061 0.0
O749 O 0.49947 0.0361 0.0102 0.0
O750 O 0.47362 0.00033 0.02665 0.0
O751 O 0.53371 0.01551 0.04455 0.0
O752 O 0.50048 0.95999 0.9744 0.0
O753 O 0.52606 0.0136 1.00154 0.0
O754 O 0.52896 0.99137 0.0229 0.0
O755 O 0.51868 0.97229 0.99941 0.0
O756 O 0.51898 0.02295 0.98052 0.0
O757 O 0.5125 0.99576 0.96633 0.0
C758 C 0.46765 0.98209 0.01794 0.0
C759 C 0.56923 0.11731 0.03128 0.0
C760 C 0.58879 0.11377 0.02734 0.0
C761 C 0.5148 0.00775 0.05334 0.0
C762 C 0.51877 0.02005 0.06801 0.0
C763 C 0.52935 0.04514 0.06875 0.0
C764 C 0.51181 0.00662 0.08142 0.0
C765 C 0.51518 0.01818 0.09554 0.0
C766 C 0.53237 0.05666 0.08257 0.0
C767 C 0.52524 0.04337 0.09583 0.0
C768 C 0.48403 0.02855 0.99853 0.0
C769 C 0.53344 0.03046 0.99204 0.0
C770 C 0.50882 0.97452 0.96296 0.0
C771 C 0.49812 0.96499 0.94784 0.0
C772 C 0.48018 0.94065 0.94584 0.0
C773 C 0.50637 0.98021 0.93513 0.0
C774 C 0.4972 0.97106 0.92063 0.0
C775 C 0.47096 0.9316 0.9315 0.0
C776 C 0.47951 0.9466 0.91897 0.0
C777 C 0.52926 0.97633 0.01282 0.0
H778 H 0.53531 0.05585 0.05866 0.0
H779 H 0.50416 0.98729 0.08081 0.0
H780 H 0.54027 0.07602 0.08301 0.0
H781 H 0.52747 0.05291 0.10633 0.0
H782 H 0.47333 0.92851 0.95532 0.0
H783 H 0.52025 0.99901 0.93647 0.0
H784 H 0.4572 0.91281 0.93008 0.0
H785 H 0.47211 0.93914 0.90795 0.0
Gd786 Gd 0.9834 0.49301 0.02408 0.0
Gd787 Gd 0.02647 0.50787 0.99199 0.0
C788 C 0.09462 0.49979 0.99577 0.0
C789 C 0.12773 0.54131 0.99414 0.0
C790 C 0.08515 0.53169 0.99249 0.0
C791 C 0.07735 0.50762 0.99439 0.0
C792 C 0.11043 0.54878 0.9919 0.0
C793 C 0.11983 0.51682 0.99608 0.0
C794 C 0.08606 0.47504 0.99627 0.0
C795 C 0.06094 0.45884 0.99479 0.0
N796 N 0.05288 0.4917 0.99384 0.0
C797 C 0.04456 0.46752 0.99336 0.0
H798 H 0.02524 0.4547 0.9923 0.0
C799 C 0.07473 0.56104 0.98572 0.0
N800 N 0.06795 0.53814 0.99006 0.0
C801 C 0.09956 0.57875 0.98517 0.0
C802 C 0.11751 0.57268 0.9885 0.0
H803 H 0.06087 0.56576 0.98312 0.0
H804 H 0.13336 0.51118 0.99732 0.0
H805 H 0.98294 0.54518 0.02394 0.0
H806 H 0.0987 0.46828 0.99737 0.0
H807 H 0.05414 0.43965 0.99481 0.0
H808 H 0.14724 0.55419 0.9939 0.0
H809 H 0.95062 0.43403 0.031 0.0
H810 H 0.90855 0.52928 0.01939 0.0
H811 H 0.95286 0.55898 0.02177 0.0
H812 H 0.86237 0.44314 0.02203 0.0
H813 H 0.10483 0.59703 0.98213 0.0
H814 H 0.13675 0.58636 0.98794 0.0
H815 H 0.87488 0.48594 0.01926 0.0
H816 H 0.90703 0.40189 0.03187 0.0
N817 N 0.95607 0.50796 0.02244 0.0
C818 C 0.92168 0.5231 0.02035 0.0
C819 C 0.94667 0.53991 0.02173 0.0
C820 C 0.91389 0.49849 0.0207 0.0
C821 C 0.93176 0.49141 0.02188 0.0
C822 C 0.96368 0.53198 0.02297 0.0
N823 N 0.94244 0.46146 0.02533 0.0
C824 C 0.92471 0.46737 0.02335 0.0
C825 C 0.91175 0.42021 0.02938 0.0
C826 C 0.89328 0.42579 0.0266 0.0
C827 C 0.93639 0.43843 0.02891 0.0
C828 C 0.89962 0.44967 0.02378 0.0
H829 H 0.8742 0.41166 0.02702 0.0
O830 O 0.98452 0.47896 0.04602 0.0
O831 O 0.01796 0.49579 0.01568 0.0
O832 O 0.99607 0.46842 0.99219 0.0
O833 O 0.9632 0.46673 0.00539 0.0
O834 O 0.99586 0.46605 0.02857 0.0
O835 O 0.98761 0.51411 0.04422 0.0
O836 O 0.02713 0.52192 0.96968 0.0
O837 O 0.99272 0.50607 1.0007 0.0
O838 O 0.01361 0.53234 0.02477 0.0
O839 O 0.04612 0.5367 0.00956 0.0
O840 O 0.01389 0.5347 0.98696 0.0
O841 O 0.01798 0.48479 0.97235 0.0
C842 C 0.0165 0.4773 0.02158 0.0
C843 C 0.88175 0.45649 0.02189 0.0
C844 C 0.88887 0.48087 0.02033 0.0
C845 C 0.98591 0.49735 0.05324 0.0
C846 C 0.96956 0.49162 0.06622 0.0
C847 C 0.94404 0.48078 0.06436 0.0
C848 C 0.97965 0.49614 0.08075 0.0
C849 C 0.96436 0.48943 0.09344 0.0
C850 C 0.92875 0.47413 0.07692 0.0
C851 C 0.93879 0.47825 0.09141 0.0
C852 C 0.97235 0.45785 0.99552 0.0
C853 C 0.99382 0.52424 0.99457 0.0
C854 C 0.02236 0.50197 0.96292 0.0
C855 C 0.03787 0.50428 0.95 0.0
C856 C 0.06175 0.50826 0.95205 0.0
C857 C 0.02847 0.5021 0.9354 0.0
C858 C 0.04269 0.50362 0.9228 0.0
C859 C 0.07602 0.50991 0.9396 0.0
C860 C 0.06657 0.50753 0.92505 0.0
C861 C 0.03673 0.54433 0.02012 0.0
H862 H 0.93594 0.47727 0.05326 0.0
H863 H 0.99938 0.50436 0.08218 0.0
H864 H 0.90905 0.46566 0.07542 0.0
H865 H 0.92666 0.47299 0.10102 0.0
H866 H 0.06928 0.50995 0.96322 0.0
H867 H 0.00988 0.49873 0.93387 0.0
H868 H 0.09444 0.51297 0.94124 0.0
H869 H 0.078 0.50896 0.91556 0.0
Gd870 Gd 0.4934 0.51176 0.98624 0.0
Gd871 Gd 0.51339 0.49779 0.02159 0.0
C872 C 0.59315 0.51458 0.02036 0.0
C873 C 0.58862 0.47478 0.02227 0.0
C874 C 0.55259 0.47956 0.02239 0.0
C875 C 0.56738 0.50412 0.02087 0.0
C876 C 0.56307 0.46466 0.0236 0.0
C877 C 0.60365 0.49972 0.02065 0.0
C878 C 0.60761 0.53969 0.01996 0.0
C879 C 0.59629 0.55368 0.02036 0.0
N880 N 0.5566 0.5179 0.02058 0.0
C881 C 0.57064 0.54243 0.02072 0.0
H882 H 0.56223 0.55348 0.02101 0.0
C883 C 0.51335 0.44716 0.02833 0.0
N884 N 0.52809 0.47052 0.02393 0.0
C885 C 0.52276 0.43155 0.02943 0.0
C886 C 0.54768 0.44024 0.02679 0.0
H887 H 0.4941 0.44046 0.03055 0.0
H888 H 0.62338 0.5074 0.02006 0.0
H889 H 0.48065 0.47641 0.956 0.0
H890 H 0.62746 0.54844 0.01959 0.0
H891 H 0.6073 0.57313 0.02028 0.0
H892 H 0.59699 0.46359 0.02298 0.0
H893 H 0.47542 0.54505 0.00587 0.0
H894 H 0.403 0.44022 0.94788 0.0
H895 H 0.4443 0.44723 0.94121 0.0
H896 H 0.37558 0.47928 0.98251 0.0
H897 H 0.51083 0.41289 0.03242 0.0
H898 H 0.55501 0.42819 0.02781 0.0
H899 H 0.37737 0.45208 0.96355 0.0
H900 H 0.43733 0.5456 0.0113 0.0
N901 N 0.45979 0.48423 0.97145 0.0
C902 C 0.41884 0.45275 0.95449 0.0
C903 C 0.4421 0.45667 0.95068 0.0
C904 C 0.41649 0.46602 0.96628 0.0
C905 C 0.43769 0.4821 0.97451 0.0
C906 C 0.46259 0.47306 0.95908 0.0
N907 N 0.45795 0.51387 0.99188 0.0
C908 C 0.43675 0.49752 0.98502 0.0
C909 C 0.43687 0.53189 1.00394 0.0
C910 C 0.41467 0.51437 0.9976 0.0
C911 C 0.45847 0.53147 1.00086 0.0
C912 C 0.41447 0.49713 0.9878 0.0
H913 H 0.39795 0.51467 1.00005 0.0
O914 O 0.49601 0.54322 0.97528 0.0
O915 O 0.52554 0.51478 0.99909 0.0
O916 O 0.51669 0.53429 0.02374 0.0
O917 O 0.5149 0.54648 0.99935 0.0
O918 O 0.51958 0.50082 0.97716 0.0
O919 O 0.51198 0.52394 0.96478 0.0
O920 O 0.49738 0.48106 0.04303 0.0
O921 O 0.48434 0.50272 0.01046 0.0
O922 O 0.4783 0.47152 0.98664 0.0
O923 O 0.50035 0.46562 0.00594 0.0
O924 O 0.47299 0.47153 0.02288 0.0
O925 O 0.52596 0.5183 0.04242 0.0
C926 C 0.53362 0.50671 0.98885 0.0
C927 C 0.39293 0.48008 0.98037 0.0
C928 C 0.39394 0.46456 0.96961 0.0
C929 C 0.50593 0.54042 0.96315 0.0
C930 C 0.49507 0.5411 0.94844 0.0
C931 C 0.47988 0.5513 0.94736 0.0
C932 C 0.50056 0.53237 0.93524 0.0
C933 C 0.49115 0.53392 0.9211 0.0
C934 C 0.47044 0.55283 0.93346 0.0
C935 C 0.47609 0.54438 0.92044 0.0
C936 C 0.51938 0.55076 0.01389 0.0
C937 C 0.46566 0.48366 0.01507 0.0
C938 C 0.51172 0.50017 0.05089 0.0
C939 C 0.52311 0.49666 0.06438 0.0
C940 C 0.54284 0.49239 0.06321 0.0
C941 C 0.51454 0.49837 0.07865 0.0
C942 C 0.5258 0.49614 0.09178 0.0
C943 C 0.55393 0.48988 0.07617 0.0
C944 C 0.54557 0.49183 0.09038 0.0
C945 C 0.48549 0.45824 0.99408 0.0
H946 H 0.47543 0.55831 0.95724 0.0
H947 H 0.51207 0.52428 0.93603 0.0
H948 H 0.4589 0.56088 0.93275 0.0
H949 H 0.46898 0.54652 0.90981 0.0
H950 H 0.54981 0.49122 0.05233 0.0
H951 H 0.49951 0.50205 0.07953 0.0
H952 H 0.56916 0.48658 0.0752 0.0
H953 H 0.55447 0.48983 0.10028 0.0
Gd954 Gd 0.18206 0.35058 0.35929 0.0
Gd955 Gd 0.15796 0.31312 0.32455 0.0
C956 C 0.08322 0.24425 0.32205 0.0
C957 C 0.09475 0.21347 0.31926 0.0
C958 C 0.12618 0.25574 0.3209 0.0
C959 C 0.10829 0.26208 0.3224 0.0
C960 C 0.11964 0.23141 0.31901 0.0
C961 C 0.07656 0.21988 0.32079 0.0
C962 C 0.0656 0.25149 0.32259 0.0
C963 C 0.0732 0.276 0.32295 0.0
N964 N 0.11539 0.28578 0.32351 0.0
C965 C 0.09829 0.29299 0.3232 0.0
H966 H 0.10384 0.31185 0.32355 0.0
C967 C 0.16818 0.26841 0.3174 0.0
N968 N 0.15 0.27354 0.32058 0.0
C969 C 0.16265 0.24454 0.31556 0.0
C970 C 0.1383 0.22592 0.31654 0.0
H971 H 0.18706 0.2827 0.3167 0.0
H972 H 0.0574 0.20591 0.32063 0.0
H973 H 0.23617 0.35178 0.35913 0.0
H974 H 0.04616 0.23836 0.32239 0.0
H975 H 0.05974 0.28182 0.3231 0.0
H976 H 0.08935 0.19465 0.31795 0.0
H977 H 0.15338 0.38081 0.36831 0.0
H978 H 0.29401 0.42514 0.36077 0.0
H979 H 0.28027 0.38168 0.35931 0.0
H980 H 0.25114 0.46884 0.36733 0.0
H981 H 0.17717 0.24052 0.3134 0.0
H982 H 0.13404 0.20744 0.31505 0.0
H983 H 0.28294 0.45761 0.36362 0.0
H984 H 0.16342 0.42286 0.37262 0.0
N985 N 0.2247 0.37788 0.36 0.0
C986 C 0.27455 0.41206 0.36067 0.0
C987 C 0.26687 0.38755 0.35988 0.0
C988 C 0.25702 0.41934 0.36177 0.0
C989 C 0.23192 0.40157 0.36151 0.0
C990 C 0.24175 0.37062 0.3598 0.0
N991 N 0.19034 0.3901 0.36395 0.0
C992 C 0.21414 0.40789 0.36356 0.0
C993 C 0.17787 0.41892 0.37002 0.0
C994 C 0.20222 0.43756 0.36902 0.0
C995 C 0.17225 0.39512 0.36761 0.0
C996 C 0.22077 0.43215 0.36597 0.0
H997 H 0.20654 0.45598 0.37094 0.0
O998 O 0.16563 0.3467 0.38138 0.0
O999 O 0.15129 0.31882 0.34825 0.0
O1000 O 0.14697 0.34188 0.3264 0.0
O1001 O 0.17588 0.37259 0.34193 0.0
O1002 O 0.14169 0.33777 0.36278 0.0
O1003 O 0.19522 0.33908 0.37836 0.0
O1004 O 0.1768 0.31943 0.30317 0.0
O1005 O 0.18871 0.34548 0.33538 0.0
O1006 O 0.1931 0.32185 0.35712 0.0
O1007 O 0.1631 0.29098 0.34224 0.0
O1008 O 0.19815 0.32542 0.32163 0.0
O1009 O 0.14331 0.32105 0.30452 0.0
C1010 C 0.13325 0.31922 0.35405 0.0
C1011 C 0.24567 0.45007 0.36563 0.0
C1012 C 0.26377 0.44368 0.36352 0.0
C1013 C 0.18041 0.34076 0.3879 0.0
C1014 C 0.1913 0.3527 0.40235 0.0
C1015 C 0.21024 0.37678 0.40276 0.0
C1016 C 0.18309 0.33971 0.41587 0.0
C1017 C 0.19407 0.35061 0.42974 0.0
C1018 C 0.22104 0.38774 0.41646 0.0
C1019 C 0.21313 0.37477 0.42985 0.0
C1020 C 0.15871 0.36453 0.33128 0.0
C1021 C 0.20669 0.34463 0.32979 0.0
C1022 C 0.16053 0.32225 0.29578 0.0
C1023 C 0.15287 0.30983 0.28114 0.0
C1024 C 0.13883 0.28465 0.28033 0.0
C1025 C 0.16087 0.32326 0.26778 0.0
C1026 C 0.15536 0.31157 0.25366 0.0
C1027 C 0.13312 0.27297 0.26637 0.0
C1028 C 0.14145 0.28628 0.25311 0.0
C1029 C 0.18082 0.29909 0.35249 0.0
H1030 H 0.21676 0.38703 0.39249 0.0
H1031 H 0.16857 0.32102 0.41554 0.0
H1032 H 0.23567 0.40634 0.4167 0.0
H1033 H 0.22178 0.38374 0.44033 0.0
H1034 H 0.13254 0.27404 0.29048 0.0
H1035 H 0.17192 0.34273 0.2684 0.0
H1036 H 0.12235 0.25352 0.26581 0.0
H1037 H 0.13683 0.27683 0.24241 0.0
Gd1038 Gd 0.64823 0.82608 0.35438 0.0
Gd1039 Gd 0.69021 0.83893 0.32201 0.0
C1040 C 0.75907 0.83237 0.32658 0.0
C1041 C 0.79171 0.87398 0.3242 0.0
C1042 C 0.74892 0.86365 0.32243 0.0
C1043 C 0.7415 0.83974 0.32485 0.0
C1044 C 0.7741 0.88097 0.3216 0.0
C1045 C 0.7842 0.8497 0.3267 0.0
C1046 C 0.75089 0.80773 0.32757 0.0
C1047 C 0.72584 0.79116 0.3262 0.0
N1048 N 0.71711 0.82349 0.32443 0.0
C1049 C 0.70915 0.79938 0.32442 0.0
H1050 H 0.68985 0.78634 0.32347 0.0
C1051 C 0.73782 0.89212 0.31464 0.0
N1052 N 0.73143 0.86962 0.31965 0.0
C1053 C 0.76255 0.91003 0.31383 0.0
C1054 C 0.78079 0.90454 0.31756 0.0
H1055 H 0.72374 0.8964 0.31174 0.0
H1056 H 0.79796 0.84442 0.32821 0.0
H1057 H 0.64961 0.87918 0.35263 0.0
H1058 H 0.76378 0.80131 0.32895 0.0
H1059 H 0.71935 0.77204 0.3266 0.0
H1060 H 0.81115 0.88706 0.32379 0.0
H1061 H 0.61446 0.76774 0.36255 0.0
H1062 H 0.57574 0.86535 0.35012 0.0
H1063 H 0.62046 0.89408 0.35069 0.0
H1064 H 0.52758 0.77969 0.3556 0.0
H1065 H 0.76752 0.92803 0.3103 0.0
H1066 H 0.79994 0.91838 0.3168 0.0
H1067 H 0.54118 0.82255 0.35177 0.0
H1068 H 0.57063 0.73669 0.36484 0.0
N1069 N 0.62183 0.84217 0.35274 0.0
C1070 C 0.58848 0.85866 0.35097 0.0
C1071 C 0.6137 0.87492 0.35131 0.0
C1072 C 0.57998 0.83398 0.35211 0.0
C1073 C 0.59735 0.82621 0.3531 0.0
C1074 C 0.63019 0.86635 0.35243 0.0
N1075 N 0.607 0.79562 0.35682 0.0
C1076 C 0.58969 0.80214 0.35517 0.0
C1077 C 0.57573 0.75501 0.36205 0.0
C1078 C 0.55761 0.7612 0.35967 0.0
C1079 C 0.6005 0.77261 0.36077 0.0
C1080 C 0.56448 0.78509 0.35642 0.0
H1081 H 0.53843 0.74756 0.36072 0.0
O1082 O 0.6484 0.81248 0.37668 0.0
O1083 O 0.68224 0.82781 0.3459 0.0
O1084 O 0.6597 0.79957 0.32292 0.0
O1085 O 0.62732 0.79851 0.3364 0.0
O1086 O 0.66022 0.79891 0.35938 0.0
O1087 O 0.65569 0.84911 0.37392 0.0
O1088 O 0.68806 0.85094 0.29954 0.0
O1089 O 0.65639 0.83735 0.33059 0.0
O1090 O 0.67883 0.86525 0.35425 0.0
O1091 O 0.71079 0.8684 0.33905 0.0
O1092 O 0.67766 0.86559 0.31655 0.0
O1093 O 0.68464 0.81593 0.30262 0.0
C1094 C 0.68066 0.80949 0.35215 0.0
C1095 C 0.54705 0.79255 0.35482 0.0
C1096 C 0.55479 0.81696 0.35266 0.0
C1097 C 0.65233 0.83223 0.38338 0.0
C1098 C 0.63704 0.82931 0.39653 0.0
C1099 C 0.61295 0.82492 0.39495 0.0
C1100 C 0.64689 0.83105 0.41094 0.0
C1101 C 0.63295 0.82869 0.42385 0.0
C1102 C 0.59887 0.8223 0.40769 0.0
C1103 C 0.60876 0.8242 0.42207 0.0
C1104 C 0.63612 0.78913 0.32662 0.0
C1105 C 0.65753 0.85532 0.32411 0.0
C1106 C 0.68628 0.83194 0.29298 0.0
C1107 C 0.70253 0.83654 0.28006 0.0
C1108 C 0.72763 0.8448 0.28214 0.0
C1109 C 0.69298 0.83357 0.26542 0.0
C1110 C 0.70851 0.83931 0.25288 0.0
C1111 C 0.74312 0.85048 0.26973 0.0
C1112 C 0.73369 0.84793 0.25517 0.0
C1113 C 0.70187 0.8767 0.34946 0.0
H1114 H 0.60508 0.82362 0.38394 0.0
H1115 H 0.66542 0.8341 0.41204 0.0
H1116 H 0.58029 0.81898 0.40641 0.0
H1117 H 0.59763 0.82258 0.43176 0.0
H1118 H 0.73528 0.84699 0.2933 0.0
H1119 H 0.67359 0.8273 0.26379 0.0
H1120 H 0.7625 0.85695 0.27142 0.0
H1121 H 0.74599 0.85238 0.24568 0.0
Gd1122 Gd 0.15613 0.84071 0.3257 0.0
Gd1123 Gd 0.18146 0.82686 0.35946 0.0
C1124 C 0.25567 0.82996 0.35987 0.0
C1125 C 0.24368 0.78787 0.36304 0.0
C1126 C 0.21266 0.79993 0.36218 0.0
C1127 C 0.2307 0.8236 0.36017 0.0
C1128 C 0.21895 0.78184 0.36401 0.0
C1129 C 0.26201 0.81189 0.36095 0.0
C1130 C 0.27352 0.85434 0.35895 0.0
C1131 C 0.2663 0.87169 0.35894 0.0
N1132 N 0.22392 0.84059 0.35935 0.0
C1133 C 0.24131 0.86447 0.35937 0.0
H1134 H 0.23602 0.87809 0.35928 0.0
C1135 C 0.17088 0.77223 0.36705 0.0
N1136 N 0.18902 0.79482 0.36321 0.0
C1137 C 0.17617 0.75365 0.36891 0.0
C1138 C 0.20027 0.75839 0.36719 0.0
H1139 H 0.15219 0.76838 0.36834 0.0
H1140 H 0.28107 0.81639 0.3606 0.0
H1141 H 0.10224 0.78869 0.32561 0.0
H1142 H 0.29289 0.85997 0.35864 0.0
H1143 H 0.27997 0.89063 0.35854 0.0
H1144 H 0.24887 0.77419 0.36427 0.0
H1145 H 0.18452 0.8996 0.31818 0.0
H1146 H 0.04418 0.80515 0.32628 0.0
H1147 H 0.05806 0.77522 0.32625 0.0
H1148 H 0.0866 0.89115 0.32193 0.0
H1149 H 0.16166 0.73568 0.37164 0.0
H1150 H 0.20433 0.74398 0.36868 0.0
H1151 H 0.05502 0.84851 0.32481 0.0
H1152 H 0.17417 0.93188 0.31568 0.0
N1153 N 0.11351 0.82601 0.32567 0.0
C1154 C 0.06365 0.8112 0.32599 0.0
C1155 C 0.07141 0.79425 0.32594 0.0
C1156 C 0.08109 0.83573 0.32527 0.0
C1157 C 0.1062 0.84264 0.325 0.0
C1158 C 0.09653 0.802 0.32557 0.0
N1159 N 0.14776 0.87232 0.32261 0.0
C1160 C 0.12391 0.86658 0.32346 0.0
C1161 C 0.15986 0.9136 0.31793 0.0
C1162 C 0.13551 0.90817 0.31948 0.0
C1163 C 0.16566 0.89529 0.31932 0.0
C1164 C 0.11711 0.88436 0.32204 0.0
H1165 H 0.13105 0.92238 0.31834 0.0
O1166 O 0.17349 0.85333 0.30401 0.0
O1167 O 0.1873 0.83854 0.33567 0.0
O1168 O 0.19269 0.86654 0.35784 0.0
O1169 O 0.16209 0.86789 0.34368 0.0
O1170 O 0.1964 0.86756 0.32193 0.0
O1171 O 0.14027 0.81858 0.30566 0.0
O1172 O 0.16388 0.81563 0.38122 0.0
O1173 O 0.15016 0.82887 0.34946 0.0
O1174 O 0.14574 0.80121 0.32682 0.0
O1175 O 0.17532 0.79922 0.34176 0.0
O1176 O 0.14129 0.79987 0.36312 0.0
O1177 O 0.19795 0.8495 0.37923 0.0
C1178 C 0.20515 0.85677 0.32986 0.0
C1179 C 0.09219 0.87772 0.32286 0.0
C1180 C 0.07421 0.85345 0.32449 0.0
C1181 C 0.1567 0.83461 0.29673 0.0
C1182 C 0.14779 0.83973 0.28271 0.0
C1183 C 0.13265 0.84998 0.28297 0.0
C1184 C 0.15569 0.83546 0.26887 0.0
C1185 C 0.14893 0.84182 0.25528 0.0
C1186 C 0.12575 0.85622 0.26952 0.0
C1187 C 0.13396 0.85233 0.25575 0.0
C1188 C 0.18027 0.87727 0.35361 0.0
C1189 C 0.13236 0.8105 0.3552 0.0
C1190 C 0.18118 0.83422 0.38831 0.0
C1191 C 0.18967 0.82901 0.40245 0.0
C1192 C 0.20433 0.81822 0.40242 0.0
C1193 C 0.18183 0.83372 0.41618 0.0
C1194 C 0.18816 0.82726 0.42988 0.0
C1195 C 0.21079 0.81188 0.41599 0.0
C1196 C 0.20264 0.81621 0.42966 0.0
C1197 C 0.15793 0.79034 0.33129 0.0
H1198 H 0.12637 0.85337 0.29352 0.0
H1199 H 0.16761 0.82775 0.26869 0.0
H1200 H 0.11413 0.86421 0.26978 0.0
H1201 H 0.12839 0.85729 0.24545 0.0
H1202 H 0.21056 0.81449 0.39196 0.0
H1203 H 0.17029 0.84185 0.41618 0.0
H1204 H 0.22204 0.80347 0.41592 0.0
H1205 H 0.20786 0.81116 0.44005 0.0
Gd1206 Gd 0.84776 0.68443 0.69161 0.0
Gd1207 Gd 0.8237 0.64677 0.65693 0.0
C1208 C 0.74802 0.57894 0.65497 0.0
C1209 C 0.75851 0.54738 0.65252 0.0
C1210 C 0.79067 0.58941 0.65374 0.0
C1211 C 0.77324 0.59634 0.65519 0.0
C1212 C 0.78355 0.56489 0.6521 0.0
C1213 C 0.74076 0.5544 0.65395 0.0
C1214 C 0.73087 0.58678 0.65537 0.0
C1215 C 0.73906 0.61142 0.65544 0.0
N1216 N 0.78094 0.6202 0.65604 0.0
C1217 C 0.76429 0.62797 0.65555 0.0
H1218 H 0.77026 0.64692 0.65567 0.0
C1219 C 0.83242 0.60107 0.65021 0.0
N1220 N 0.81463 0.6068 0.65324 0.0
C1221 C 0.82631 0.57699 0.64862 0.0
C1222 C 0.80178 0.55878 0.64973 0.0
H1223 H 0.85142 0.61508 0.64945 0.0
H1224 H 0.72148 0.54076 0.65391 0.0
H1225 H 0.9023 0.68671 0.69237 0.0
H1226 H 0.71133 0.57401 0.65527 0.0
H1227 H 0.72596 0.6177 0.65545 0.0
H1228 H 0.75265 0.52842 0.6514 0.0
H1229 H 0.81798 0.71395 0.7002 0.0
H1230 H 0.95918 0.76055 0.69348 0.0
H1231 H 0.94627 0.71724 0.6927 0.0
H1232 H 0.91483 0.803 0.69872 0.0
H1233 H 0.84052 0.57249 0.64655 0.0
H1234 H 0.79708 0.54015 0.64843 0.0
H1235 H 0.94725 0.79248 0.69554 0.0
H1236 H 0.82721 0.7558 0.70403 0.0
N1237 N 0.8902 0.71234 0.69249 0.0
C1238 C 0.9398 0.7472 0.69332 0.0
C1239 C 0.93259 0.72278 0.69292 0.0
C1240 C 0.92191 0.75405 0.69399 0.0
C1241 C 0.89694 0.73594 0.69367 0.0
C1242 C 0.90758 0.70549 0.69274 0.0
N1243 N 0.8551 0.72376 0.69585 0.0
C1244 C 0.87879 0.74186 0.69542 0.0
C1245 C 0.84189 0.75215 0.70155 0.0
C1246 C 0.86607 0.77107 0.70044 0.0
C1247 C 0.83673 0.72844 0.69939 0.0
C1248 C 0.88495 0.76604 0.69757 0.0
H1249 H 0.87004 0.78942 0.70216 0.0
O1250 O 0.8294 0.67788 0.71318 0.0
O1251 O 0.81696 0.65229 0.68068 0.0
O1252 O 0.81333 0.67601 0.65861 0.0
O1253 O 0.84254 0.70667 0.67402 0.0
O1254 O 0.80743 0.67192 0.69471 0.0
O1255 O 0.8629 0.67636 0.71134 0.0
O1256 O 0.8398 0.64887 0.63492 0.0
O1257 O 0.85451 0.67857 0.66791 0.0
O1258 O 0.85908 0.65588 0.68963 0.0
O1259 O 0.829 0.62496 0.67483 0.0
O1260 O 0.86408 0.65938 0.65354 0.0
O1261 O 0.81154 0.65852 0.63752 0.0
C1262 C 0.79894 0.65306 0.68624 0.0
C1263 C 0.90972 0.78428 0.69723 0.0
C1264 C 0.92818 0.7783 0.69542 0.0
C1265 C 0.846 0.67524 0.72033 0.0
C1266 C 0.85433 0.68805 0.73483 0.0
C1267 C 0.86732 0.71326 0.73536 0.0
C1268 C 0.8484 0.67492 0.74831 0.0
C1269 C 0.85505 0.68687 0.7624 0.0
C1270 C 0.87401 0.72526 0.74919 0.0
C1271 C 0.86782 0.71227 0.76259 0.0
C1272 C 0.82547 0.69874 0.66334 0.0
C1273 C 0.87254 0.6781 0.66214 0.0
C1274 C 0.8258 0.65559 0.62816 0.0
C1275 C 0.81454 0.64348 0.61381 0.0
C1276 C 0.79432 0.62006 0.61366 0.0
C1277 C 0.82383 0.65565 0.60013 0.0
C1278 C 0.8129 0.64456 0.58626 0.0
C1279 C 0.78335 0.60895 0.60004 0.0
C1280 C 0.79244 0.62106 0.58646 0.0
C1281 C 0.84675 0.63309 0.68506 0.0
H1282 H 0.87206 0.72364 0.72513 0.0
H1283 H 0.83869 0.65543 0.74775 0.0
H1284 H 0.88381 0.74475 0.74953 0.0
H1285 H 0.87272 0.72223 0.7731 0.0
H1286 H 0.78694 0.61045 0.62406 0.0
H1287 H 0.83968 0.67365 0.60033 0.0
H1288 H 0.76761 0.59093 0.6 0.0
H1289 H 0.78314 0.61207 0.57613 0.0
Gd1290 Gd 0.31676 0.16263 0.69415 0.0
Gd1291 Gd 0.35941 0.17479 0.66235 0.0
C1292 C 0.42934 0.16992 0.66575 0.0
C1293 C 0.46124 0.21168 0.66266 0.0
C1294 C 0.41816 0.20054 0.66181 0.0
C1295 C 0.41133 0.1768 0.66438 0.0
C1296 C 0.44317 0.2182 0.66058 0.0
C1297 C 0.45433 0.18757 0.66525 0.0
C1298 C 0.42168 0.14544 0.66708 0.0
C1299 C 0.39666 0.12849 0.66646 0.0
N1300 N 0.38703 0.16022 0.66459 0.0
C1301 C 0.37951 0.13621 0.66498 0.0
H1302 H 0.36026 0.12289 0.66456 0.0
C1303 C 0.40596 0.22874 0.6553 0.0
N1304 N 0.40024 0.20611 0.65968 0.0
C1305 C 0.43051 0.24692 0.654 0.0
C1306 C 0.44922 0.24171 0.65684 0.0
H1307 H 0.39157 0.2329 0.65318 0.0
H1308 H 0.46843 0.18267 0.66644 0.0
H1309 H 0.31647 0.2148 0.69186 0.0
H1310 H 0.43492 0.13941 0.6682 0.0
H1311 H 0.39054 0.10947 0.66717 0.0
H1312 H 0.48057 0.22503 0.6619 0.0
H1313 H 0.28384 0.10399 0.70217 0.0
H1314 H 0.24205 0.19876 0.6872 0.0
H1315 H 0.28645 0.2285 0.68883 0.0
H1316 H 0.19572 0.11288 0.69197 0.0
H1317 H 0.43497 0.26494 0.65084 0.0
H1318 H 0.46822 0.2558 0.65578 0.0
H1319 H 0.20832 0.15551 0.68814 0.0
H1320 H 0.24024 0.07194 0.70319 0.0
N1321 N 0.28949 0.17754 0.69162 0.0
C1322 C 0.25516 0.19262 0.68856 0.0
C1323 C 0.2802 0.20945 0.6895 0.0
C1324 C 0.24731 0.16806 0.68973 0.0
C1325 C 0.26515 0.16102 0.69139 0.0
C1326 C 0.29718 0.20158 0.69122 0.0
N1327 N 0.27576 0.13122 0.69582 0.0
C1328 C 0.25805 0.13707 0.69349 0.0
C1329 C 0.245 0.09016 0.70037 0.0
C1330 C 0.22656 0.09567 0.69728 0.0
C1331 C 0.26964 0.10834 0.69983 0.0
C1332 C 0.23295 0.11944 0.69403 0.0
H1333 H 0.20748 0.08158 0.69778 0.0
O1334 O 0.31795 0.1505 0.71671 0.0
O1335 O 0.35104 0.16426 0.68627 0.0
O1336 O 0.32951 0.1352 0.66388 0.0
O1337 O 0.29659 0.13499 0.67609 0.0
O1338 O 0.32916 0.136 0.7002 0.0
O1339 O 0.32128 0.18551 0.7134 0.0
O1340 O 0.35888 0.18647 0.63952 0.0
O1341 O 0.32555 0.17362 0.67039 0.0
O1342 O 0.34707 0.20204 0.69319 0.0
O1343 O 0.37985 0.20313 0.68014 0.0
O1344 O 0.34683 0.20125 0.65607 0.0
O1345 O 0.35137 0.15008 0.64365 0.0
C1346 C 0.3496 0.1463 0.69296 0.0
C1347 C 0.21511 0.1262 0.69174 0.0
C1348 C 0.22228 0.15047 0.68958 0.0
C1349 C 0.31927 0.16943 0.72312 0.0
C1350 C 0.30247 0.16461 0.73577 0.0
C1351 C 0.27771 0.1574 0.73333 0.0
C1352 C 0.3112 0.1662 0.75049 0.0
C1353 C 0.29523 0.16013 0.76287 0.0
C1354 C 0.26173 0.15145 0.74549 0.0
C1355 C 0.27032 0.15263 0.76015 0.0
C1356 C 0.30574 0.12507 0.66701 0.0
C1357 C 0.32661 0.19126 0.66353 0.0
C1358 C 0.35464 0.16612 0.63357 0.0
C1359 C 0.36962 0.16776 0.6205 0.0
C1360 C 0.3934 0.17137 0.62227 0.0
C1361 C 0.35976 0.16541 0.60602 0.0
C1362 C 0.37339 0.16634 0.59325 0.0
C1363 C 0.40711 0.17242 0.60965 0.0
C1364 C 0.39717 0.16983 0.59521 0.0
C1365 C 0.37074 0.21257 0.68968 0.0
H1366 H 0.27068 0.15622 0.7221 0.0
H1367 H 0.33051 0.17227 0.75223 0.0
H1368 H 0.24256 0.14568 0.74352 0.0
H1369 H 0.25734 0.14734 0.76931 0.0
H1370 H 0.4013 0.17324 0.63334 0.0
H1371 H 0.34125 0.16236 0.60472 0.0
H1372 H 0.42545 0.17519 0.61106 0.0
H1373 H 0.40816 0.17079 0.58558 0.0
Gd1374 Gd 0.82353 0.17369 0.65759 0.0
Gd1375 Gd 0.84815 0.15828 0.69108 0.0
C1376 C 0.92327 0.1634 0.69053 0.0
C1377 C 0.91227 0.12139 0.69249 0.0
C1378 C 0.88052 0.13249 0.69242 0.0
C1379 C 0.89815 0.15645 0.69091 0.0
C1380 C 0.88738 0.11472 0.6936 0.0
C1381 C 0.9302 0.1457 0.69094 0.0
C1382 C 0.94069 0.18797 0.69024 0.0
C1383 C 0.9329 0.20487 0.69091 0.0
N1384 N 0.89081 0.17307 0.69076 0.0
C1385 C 0.90777 0.19707 0.69139 0.0
H1386 H 0.90207 0.21037 0.69184 0.0
C1387 C 0.83894 0.1038 0.69711 0.0
N1388 N 0.85671 0.12674 0.69366 0.0
C1389 C 0.8448 0.0855 0.69832 0.0
C1390 C 0.86909 0.09092 0.69635 0.0
H1391 H 0.82012 0.09953 0.69853 0.0
H1392 H 0.94939 0.15068 0.69049 0.0
H1393 H 0.76891 0.12232 0.65766 0.0
H1394 H 0.96017 0.19407 0.68989 0.0
H1395 H 0.94624 0.22393 0.69101 0.0
H1396 H 0.9179 0.10798 0.69322 0.0
H1397 H 0.85156 0.23128 0.64724 0.0
H1398 H 0.71203 0.14025 0.66032 0.0
H1399 H 0.72502 0.10968 0.6592 0.0
H1400 H 0.75565 0.22609 0.65504 0.0
H1401 H 0.83059 0.06725 0.70072 0.0
H1402 H 0.8736 0.07674 0.69734 0.0
H1403 H 0.7237 0.18387 0.65905 0.0
H1404 H 0.84199 0.26409 0.64454 0.0
N1405 N 0.78101 0.15983 0.65838 0.0
C1406 C 0.73139 0.14594 0.65966 0.0
C1407 C 0.73865 0.12864 0.65898 0.0
C1408 C 0.74917 0.17036 0.65889 0.0
C1409 C 0.77412 0.17677 0.65811 0.0
C1410 C 0.76363 0.13593 0.6581 0.0
N1411 N 0.81548 0.20545 0.6541 0.0
C1412 C 0.79199 0.20042 0.65592 0.0
C1413 C 0.82777 0.2463 0.64786 0.0
C1414 C 0.80396 0.24176 0.65061 0.0
C1415 C 0.83314 0.22771 0.64939 0.0
C1416 C 0.78557 0.21846 0.65437 0.0
H1417 H 0.79979 0.25614 0.6493 0.0
O1418 O 0.84096 0.18521 0.63578 0.0
O1419 O 0.85433 0.17064 0.66744 0.0
O1420 O 0.85874 0.19777 0.69117 0.0
O1421 O 0.83267 0.20308 0.67461 0.0
O1422 O 0.86394 0.19999 0.65391 0.0
O1423 O 0.8067 0.15161 0.63766 0.0
O1424 O 0.83264 0.14384 0.713 0.0
O1425 O 0.81738 0.16158 0.6814 0.0
O1426 O 0.81201 0.13391 0.65859 0.0
O1427 O 0.84185 0.13141 0.67283 0.0
O1428 O 0.80776 0.13192 0.69465 0.0
O1429 O 0.86273 0.1806 0.71106 0.0
C1430 C 0.8724 0.1889 0.66179 0.0
C1431 C 0.76093 0.21244 0.65601 0.0
C1432 C 0.74274 0.18841 0.65829 0.0
C1433 C 0.82341 0.16697 0.6286 0.0
C1434 C 0.81475 0.17274 0.61472 0.0
C1435 C 0.80007 0.18348 0.61527 0.0
C1436 C 0.82215 0.16832 0.60074 0.0
C1437 C 0.81538 0.17499 0.58723 0.0
C1438 C 0.7932 0.19009 0.60199 0.0
C1439 C 0.80088 0.18606 0.58807 0.0
C1440 C 0.84887 0.21029 0.68575 0.0
C1441 C 0.79932 0.14331 0.68707 0.0
C1442 C 0.84834 0.16337 0.72015 0.0
C1443 C 0.86006 0.16008 0.73354 0.0
C1444 C 0.87939 0.15523 0.73219 0.0
C1445 C 0.85208 0.16229 0.74789 0.0
C1446 C 0.86355 0.16 0.76089 0.0
C1447 C 0.89073 0.15276 0.74503 0.0
C1448 C 0.88297 0.15521 0.75932 0.0
C1449 C 0.8241 0.12275 0.66261 0.0
H1450 H 0.79411 0.18691 0.62592 0.0
H1451 H 0.8331 0.15958 0.60048 0.0
H1452 H 0.78206 0.19861 0.60248 0.0
H1453 H 0.79574 0.19198 0.57802 0.0
H1454 H 0.88582 0.15353 0.72125 0.0
H1455 H 0.83731 0.16632 0.7489 0.0
H1456 H 0.90565 0.14902 0.74392 0.0
H1457 H 0.892 0.15317 0.76913 0.0
H1458 H 0.35664 0.85628 0.06267 0.0
H1459 H 0.42197 0.97261 0.00996 0.0
H1460 H 0.31946 0.89189 0.04452 0.0
H1461 H 0.46068 0.94323 0.03373 0.0
H1462 H 0.3829 0.93932 0.01917 0.0
H1463 H 0.39357 0.8842 0.0489 0.0
C1464 C 0.35615 0.86983 0.05568 0.0
C1465 C 0.33493 0.87183 0.05485 0.0
C1466 C 0.39989 0.93988 0.02215 0.0
C1467 C 0.3773 0.90404 0.03913 0.0
C1468 C 0.42207 0.95871 0.0168 0.0
C1469 C 0.44429 0.95999 0.02069 0.0
C1470 C 0.4001 0.92263 0.03177 0.0
C1471 C 0.44376 0.94226 0.03007 0.0
C1472 C 0.3773 0.88585 0.04787 0.0
C1473 C 0.33552 0.88994 0.04571 0.0
N1474 N 0.42201 0.92429 0.03531 0.0
N1475 N 0.35637 0.90538 0.03825 0.0
H1476 H 0.10645 0.41879 0.05196 0.0
H1477 H 0.06415 0.51264 0.02703 0.0
H1478 H 0.15061 0.4954 0.05974 0.0
H1479 H 0.01607 0.43571 0.02752 0.0
H1480 H 0.09776 0.50711 0.0364 0.0
H1481 H 0.07487 0.42507 0.04042 0.0
C1482 C 0.10951 0.43695 0.05132 0.0
C1483 C 0.13122 0.45655 0.05703 0.0
C1484 C 0.07991 0.49143 0.03438 0.0
C1485 C 0.09506 0.46391 0.04356 0.0
C1486 C 0.0608 0.49458 0.02893 0.0
C1487 C 0.03752 0.47453 0.0262 0.0
C1488 C 0.07559 0.46808 0.03722 0.0
C1489 C 0.03389 0.45157 0.02929 0.0
C1490 C 0.09148 0.44053 0.04464 0.0
C1491 C 0.13431 0.47973 0.05545 0.0
N1492 N 0.05273 0.44896 0.03456 0.0
N1493 N 0.11641 0.48275 0.04892 0.0
H1494 H 0.53426 0.67138 0.06584 0.0
H1495 H 0.54458 0.59376 0.99912 0.0
H1496 H 0.59511 0.70183 0.03495 0.0
H1497 H 0.5117 0.56298 0.04188 0.0
H1498 H 0.55789 0.63407 0.00952 0.0
H1499 H 0.52004 0.63164 0.05446 0.0
C1500 C 0.5445 0.66966 0.05659 0.0
C1501 C 0.56588 0.68977 0.05132 0.0
C1502 C 0.54775 0.61842 0.01657 0.0
C1503 C 0.5497 0.64464 0.03823 0.0
C1504 C 0.54008 0.5955 0.01065 0.0
C1505 C 0.52716 0.57511 0.0197 0.0
C1506 C 0.54192 0.62078 0.0315 0.0
C1507 C 0.52183 0.57828 0.03458 0.0
C1508 C 0.53648 0.64704 0.05017 0.0
C1509 C 0.57863 0.68665 0.03938 0.0
N1510 N 0.5291 0.60069 0.03999 0.0
N1511 N 0.57026 0.66447 0.03315 0.0
H1512 H 0.9046 0.32932 0.93961 0.0
H1513 H 0.9221 0.43305 0.99669 0.0
H1514 H 0.8483 0.32212 0.97046 0.0
H1515 H 0.98332 0.43006 0.97703 0.0
H1516 H 0.8941 0.39434 0.98506 0.0
H1517 H 0.93309 0.36809 0.95124 0.0
C1518 C 0.89822 0.33575 0.94888 0.0
C1519 C 0.87393 0.3223 0.95405 0.0
C1520 C 0.91367 0.40209 0.98335 0.0
C1521 C 0.9064 0.36696 0.96718 0.0
C1522 C 0.92973 0.42418 0.99007 0.0
C1523 C 0.95521 0.43466 0.98812 0.0
C1524 C 0.92305 0.39051 0.97439 0.0
C1525 C 0.96386 0.4226 0.97896 0.0
C1526 C 0.91449 0.35797 0.95545 0.0
C1527 C 0.86667 0.33193 0.9659 0.0
N1528 N 0.9478 0.40116 0.97241 0.0
N1529 N 0.8828 0.35366 0.97203 0.0
H1530 H 0.65734 0.49778 0.95607 0.0
H1531 H 0.57477 0.5506 0.98768 0.0
H1532 H 0.68552 0.57338 0.96508 0.0
H1533 H 0.54934 0.47473 0.98429 0.0
H1534 H 0.61605 0.55929 0.98052 0.0
H1535 H 0.6184 0.48884 0.96746 0.0
C1536 C 0.6555 0.51252 0.96057 0.0
C1537 C 0.67486 0.53643 0.9595 0.0
C1538 C 0.60161 0.54072 0.9816 0.0
C1539 C 0.62992 0.52625 0.97237 0.0
C1540 C 0.57817 0.5358 0.98584 0.0
C1541 C 0.55906 0.51196 0.98713 0.0
C1542 C 0.60578 0.52161 0.97824 0.0
C1543 C 0.5639 0.49335 0.98383 0.0
C1544 C 0.63314 0.50738 0.96702 0.0
C1545 C 0.67106 0.55472 0.96535 0.0
N1546 N 0.5868 0.49855 0.97954 0.0
N1547 N 0.64904 0.54926 0.97144 0.0
H1548 H 0.42378 0.09675 0.94359 0.0
H1549 H 0.46873 0.05475 0.01529 0.0
H1550 H 0.44279 0.13666 0.98541 0.0
H1551 H 0.47848 0.03846 0.96964 0.0
H1552 H 0.45365 0.08089 0.00574 0.0
H1553 H 0.4371 0.07006 0.95425 0.0
C1554 C 0.43054 0.09972 0.95508 0.0
C1555 C 0.43223 0.1189 0.96365 0.0
C1556 C 0.45902 0.07144 0.99785 0.0
C1557 C 0.44756 0.08855 0.97588 0.0
C1558 C 0.46779 0.0567 1.00329 0.0
C1559 C 0.47458 0.04416 0.99323 0.0
C1560 C 0.45683 0.07334 0.98225 0.0
C1561 C 0.47253 0.04697 0.97777 0.0
C1562 C 0.43829 0.08462 0.96111 0.0
C1563 C 0.44139 0.12214 0.97842 0.0
N1564 N 0.46375 0.06115 0.97274 0.0
N1565 N 0.44868 0.10705 0.98411 0.0
H1566 H 0.67124 0.09547 0.94774 0.0
H1567 H 0.55424 0.07918 0.99055 0.0
H1568 H 0.67341 0.15493 0.97195 0.0
H1569 H 0.57026 0.02148 0.98641 0.0
H1570 H 0.59632 0.10778 0.98229 0.0
H1571 H 0.63224 0.06803 0.95998 0.0
C1572 C 0.66344 0.10268 0.95566 0.0
C1573 C 0.67538 0.1274 0.95885 0.0
C1574 C 0.59072 0.08893 0.98345 0.0
C1575 C 0.63084 0.09632 0.97274 0.0
C1576 C 0.56686 0.07272 0.98817 0.0
C1577 C 0.55928 0.04825 0.9895 0.0
C1578 C 0.60655 0.08027 0.97946 0.0
C1579 C 0.57581 0.0404 0.98585 0.0
C1580 C 0.64134 0.08706 0.9627 0.0
C1581 C 0.66469 0.13592 0.96926 0.0
N1582 N 0.59865 0.05635 0.98085 0.0
N1583 N 0.64281 0.12042 0.97572 0.0
H1584 H 0.89919 0.57973 0.96746 0.0
H1585 H 0.94659 0.48855 0.9886 0.0
H1586 H 0.862 0.50531 0.95324 0.0
H1587 H 0.9933 0.56569 0.98961 0.0
H1588 H 0.9127 0.49357 0.97936 0.0
H1589 H 0.93113 0.57405 0.97933 0.0
C1590 C 0.89765 0.56214 0.96694 0.0
C1591 C 0.87795 0.54298 0.95929 0.0
C1592 C 0.93031 0.5094 0.9817 0.0
C1593 C 0.91444 0.53638 0.97284 0.0
C1594 C 0.94957 0.50655 0.98713 0.0
C1595 C 0.97257 0.52678 0.99022 0.0
C1596 C 0.93412 0.53266 0.97928 0.0
C1597 C 0.9757 0.54968 0.98756 0.0
C1598 C 0.91595 0.55896 0.97364 0.0
C1599 C 0.87701 0.52064 0.95886 0.0
N1600 N 0.95666 0.55202 0.98233 0.0
N1601 N 0.89497 0.51793 0.96556 0.0
H1602 H 0.41227 0.30495 0.97758 0.0
H1603 H 0.48884 0.44577 0.96542 0.0
H1604 H 0.46947 0.33741 0.94416 0.0
H1605 H 0.46436 0.41604 0.0096 0.0
H1606 H 0.47575 0.40532 0.95569 0.0
H1607 H 0.42584 0.34496 0.98814 0.0
C1608 C 0.42776 0.32035 0.9725 0.0
C1609 C 0.43964 0.31764 0.95987 0.0
C1610 C 0.47323 0.40766 0.96751 0.0
C1611 C 0.45465 0.36347 0.97169 0.0
C1612 C 0.48043 0.43062 0.973 0.0
C1613 C 0.4774 0.434 0.98825 0.0
C1614 C 0.46258 0.38797 0.97731 0.0
C1615 C 0.46701 0.41399 0.99776 0.0
C1616 C 0.43537 0.34318 0.97852 0.0
C1617 C 0.4593 0.33849 0.95365 0.0
N1618 N 0.45972 0.39166 0.9921 0.0
N1619 N 0.46604 0.36051 0.95954 0.0
H1620 H 0.12743 0.69462 0.0434 0.0
H1621 H 0.04565 0.55283 0.05005 0.0
H1622 H 0.14117 0.65538 0.0779 0.0
H1623 H 0.06471 0.58807 0.00701 0.0
H1624 H 0.07439 0.59137 0.06229 0.0
H1625 H 0.09842 0.65642 0.03148 0.0
C1626 C 0.12459 0.67811 0.04847 0.0
C1627 C 0.13711 0.67848 0.06171 0.0
C1628 C 0.07227 0.59059 0.05016 0.0
C1629 C 0.10307 0.63461 0.04829 0.0
C1630 C 0.05588 0.56875 0.04322 0.0
C1631 C 0.05321 0.56742 0.02754 0.0
C1632 C 0.0855 0.61123 0.04133 0.0
C1633 C 0.06673 0.58838 0.0191 0.0
C1634 C 0.10784 0.6563 0.04167 0.0
C1635 C 0.1318 0.65622 0.06789 0.0
N1636 N 0.08222 0.60955 0.02612 0.0
N1637 N 0.1151 0.63521 0.06118 0.0
H1638 H 0.35447 0.49506 0.0649 0.0
H1639 H 0.41973 0.44807 0.00729 0.0
H1640 H 0.31545 0.42777 0.04053 0.0
H1641 H 0.45838 0.51359 0.03319 0.0
H1642 H 0.38067 0.44193 0.01749 0.0
H1643 H 0.39209 0.50361 0.05183 0.0
C1644 C 0.3538 0.48202 0.05684 0.0
C1645 C 0.3317 0.46054 0.05394 0.0
C1646 C 0.39764 0.45784 0.02079 0.0
C1647 C 0.37487 0.47039 0.03875 0.0
C1648 C 0.41984 0.46138 0.0149 0.0
C1649 C 0.44204 0.48174 0.01906 0.0
C1650 C 0.39781 0.4745 0.03123 0.0
C1651 C 0.44148 0.49806 0.02936 0.0
C1652 C 0.3753 0.487 0.04929 0.0
C1653 C 0.33195 0.44462 0.04309 0.0
N1654 N 0.41973 0.4941 0.0351 0.0
N1655 N 0.35318 0.44979 0.03597 0.0
H1656 H 0.6041 0.91994 0.06519 0.0
H1657 H 0.52744 0.93688 0.99901 0.0
H1658 H 0.56853 0.86796 0.02942 0.0
H1659 H 0.56009 0.98559 0.03673 0.0
H1660 H 0.54588 0.91345 0.0082 0.0
H1661 H 0.59152 0.94621 0.05321 0.0
C1662 C 0.59365 0.91407 0.05479 0.0
C1663 C 0.58714 0.89162 0.04838 0.0
C1664 C 0.54912 0.92938 0.01437 0.0
C1665 C 0.5727 0.92169 0.03452 0.0
C1666 C 0.53866 0.9428 0.00911 0.0
C1667 C 0.54198 0.9631 0.01719 0.0
C1668 C 0.56303 0.93641 0.02775 0.0
C1669 C 0.55672 0.96993 0.03021 0.0
C1670 C 0.58655 0.92912 0.04791 0.0
C1671 C 0.57403 0.88517 0.03472 0.0
N1672 N 0.56655 0.95656 0.0351 0.0
N1673 N 0.56705 0.90005 0.0283 0.0
H1674 H 0.98221 0.22979 0.38029 0.0
H1675 H 0.12065 0.27183 0.35664 0.0
H1676 H 0.01871 0.18982 0.39114 0.0
H1677 H 0.09074 0.31937 0.35819 0.0
H1678 H 0.08072 0.23844 0.36442 0.0
H1679 H 0.0194 0.25978 0.36765 0.0
C1680 C 0.99802 0.22729 0.38006 0.0
C1681 C 0.99733 0.20733 0.38701 0.0
C1682 C 0.08282 0.25611 0.36288 0.0
C1683 C 0.03989 0.24147 0.37226 0.0
C1684 C 0.10551 0.27509 0.3583 0.0
C1685 C 0.10876 0.29823 0.35657 0.0
C1686 C 0.06338 0.26042 0.36583 0.0
C1687 C 0.0888 0.30169 0.3593 0.0
C1688 C 0.0192 0.24436 0.37274 0.0
C1689 C 0.01824 0.20478 0.38591 0.0
N1690 N 0.06694 0.28299 0.3638 0.0
N1691 N 0.03869 0.22172 0.37875 0.0
H1692 H 0.81619 0.8314 0.39226 0.0
H1693 H 0.67987 0.76787 0.35849 0.0
H1694 H 0.77253 0.75496 0.38364 0.0
H1695 H 0.72843 0.8447 0.35767 0.0
H1696 H 0.71352 0.76296 0.36831 0.0
H1697 H 0.78455 0.83696 0.37994 0.0
C1698 C 0.80011 0.81578 0.38768 0.0
C1699 C 0.79709 0.79261 0.38915 0.0
C1700 C 0.71695 0.7809 0.36585 0.0
C1701 C 0.76047 0.79889 0.37523 0.0
C1702 C 0.69775 0.78368 0.36026 0.0
C1703 C 0.70158 0.80664 0.35695 0.0
C1704 C 0.74007 0.80131 0.36855 0.0
C1705 C 0.72492 0.82663 0.35973 0.0
C1706 C 0.78197 0.81899 0.38071 0.0
C1707 C 0.77556 0.7731 0.38314 0.0
N1708 N 0.74329 0.82352 0.36541 0.0
N1709 N 0.7581 0.77667 0.37656 0.0
H1710 H 0.26006 0.02211 0.38963 0.0
H1711 H 0.15317 0.89986 0.35459 0.0
H1712 H 0.18316 0.99901 0.39551 0.0
H1713 H 0.22376 0.90907 0.36722 0.0
H1714 H 0.16531 0.9393 0.36568 0.0
H1715 H 0.2483 0.98339 0.37774 0.0
C1716 C 0.24072 0.00894 0.38852 0.0
C1717 C 0.22261 0.01395 0.39368 0.0
C1718 C 0.17809 0.93263 0.36601 0.0
C1719 C 0.20913 0.96984 0.37969 0.0
C1720 C 0.17125 0.91021 0.35963 0.0
C1721 C 0.18747 0.90116 0.36003 0.0
C1722 C 0.20144 0.9462 0.37262 0.0
C1723 C 0.21063 0.91529 0.36676 0.0
C1724 C 0.23407 0.9869 0.38165 0.0
C1725 C 0.19783 0.99626 0.39152 0.0
N1726 N 0.21698 0.93718 0.37274 0.0
N1727 N 0.19184 0.97505 0.38465 0.0
H1728 H 0.50786 0.65329 0.30314 0.0
H1729 H 0.64649 0.7614 0.30772 0.0
H1730 H 0.56358 0.66165 0.27143 0.0
H1731 H 0.58594 0.76364 0.32902 0.0
H1732 H 0.61726 0.72283 0.29613 0.0
H1733 H 0.53716 0.69184 0.31459 0.0
C1734 C 0.52617 0.66325 0.29849 0.0
C1735 C 0.53316 0.65412 0.28623 0.0
C1736 C 0.61043 0.73177 0.30338 0.0
C1737 C 0.56699 0.69814 0.29955 0.0
C1738 C 0.6271 0.75378 0.31003 0.0
C1739 C 0.61874 0.7657 0.31955 0.0
C1740 C 0.58523 0.72151 0.30634 0.0
C1741 C 0.59335 0.75495 0.32204 0.0
C1742 C 0.54294 0.68523 0.3051 0.0
C1743 C 0.5574 0.66771 0.28098 0.0
N1744 N 0.57753 0.73344 0.31554 0.0
N1745 N 0.57344 0.68899 0.28769 0.0
H1746 H 0.31891 0.83432 0.29246 0.0
H1747 H 0.24748 0.89837 0.32483 0.0
H1748 H 0.35344 0.91089 0.30062 0.0
H1749 H 0.21746 0.82152 0.32598 0.0
H1750 H 0.28661 0.90318 0.31615 0.0
H1751 H 0.28192 0.82896 0.305 0.0
C1752 C 0.3189 0.85001 0.297 0.0
C1753 C 0.33944 0.87316 0.2953 0.0
C1754 C 0.27161 0.88526 0.31848 0.0
C1755 C 0.29677 0.86709 0.3095 0.0
C1756 C 0.2493 0.88254 0.32343 0.0
C1757 C 0.22941 0.85958 0.32635 0.0
C1758 C 0.2739 0.8648 0.31604 0.0
C1759 C 0.23251 0.83958 0.32414 0.0
C1760 C 0.29766 0.84691 0.30411 0.0
C1761 C 0.33799 0.89276 0.30129 0.0
N1762 N 0.25431 0.84263 0.31902 0.0
N1763 N 0.31704 0.88929 0.308 0.0
H1764 H 0.14438 0.48803 0.30749 0.0
H1765 H 0.12259 0.35432 0.3105 0.0
H1766 H 0.10135 0.43275 0.27469 0.0
H1767 H 0.1794 0.41329 0.33626 0.0
H1768 H 0.11195 0.3822 0.29892 0.0
H1769 H 0.15499 0.46033 0.31968 0.0
C1770 C 0.13725 0.47014 0.30278 0.0
C1771 C 0.12194 0.46277 0.28999 0.0
C1772 C 0.1267 0.38905 0.30714 0.0
C1773 C 0.13372 0.43086 0.30409 0.0
C1774 C 0.1328 0.37311 0.3138 0.0
C1775 C 0.15185 0.38139 0.32449 0.0
C1776 C 0.13964 0.4135 0.31119 0.0
C1777 C 0.16439 0.406 0.32824 0.0
C1778 C 0.14324 0.45431 0.30981 0.0
C1779 C 0.11289 0.43917 0.28463 0.0
N1780 N 0.15802 0.42119 0.32161 0.0
N1781 N 0.1189 0.42409 0.2917 0.0
H1782 H 0.33641 0.42553 0.27911 0.0
H1783 H 0.22052 0.39277 0.32888 0.0
H1784 H 0.33394 0.48064 0.30574 0.0
H1785 H 0.24739 0.3434 0.32189 0.0
H1786 H 0.25953 0.42557 0.3192 0.0
H1787 H 0.30056 0.39489 0.29265 0.0
C1788 C 0.3282 0.43112 0.28779 0.0
C1789 C 0.33799 0.45555 0.29132 0.0
C1790 C 0.25697 0.40761 0.32004 0.0
C1791 C 0.29701 0.42073 0.30678 0.0
C1792 C 0.23484 0.38897 0.32566 0.0
C1793 C 0.23098 0.36546 0.3264 0.0
C1794 C 0.27482 0.40241 0.31466 0.0
C1795 C 0.24978 0.36133 0.32159 0.0
C1796 C 0.30791 0.41368 0.29558 0.0
C1797 C 0.32686 0.46192 0.30275 0.0
N1798 N 0.27076 0.37954 0.31576 0.0
N1799 N 0.30672 0.4446 0.31 0.0
H1800 H 0.56895 0.90025 0.27557 0.0
H1801 H 0.6087 0.82038 0.3218 0.0
H1802 H 0.51729 0.84437 0.30471 0.0
H1803 H 0.65858 0.89603 0.31487 0.0
H1804 H 0.57475 0.82557 0.31275 0.0
H1805 H 0.60222 0.89583 0.28675 0.0
C1806 C 0.56467 0.88702 0.28431 0.0
C1807 C 0.54044 0.87264 0.28925 0.0
C1808 C 0.5931 0.84106 0.31338 0.0
C1809 C 0.5782 0.86725 0.30189 0.0
C1810 C 0.61244 0.83815 0.31864 0.0
C1811 C 0.63635 0.858 0.31959 0.0
C1812 C 0.59791 0.86376 0.30844 0.0
C1813 C 0.64032 0.88039 0.31461 0.0
C1814 C 0.58361 0.8846 0.29073 0.0
C1815 C 0.5358 0.85583 0.30066 0.0
N1816 N 0.62134 0.88266 0.30917 0.0
N1817 N 0.55449 0.85338 0.3065 0.0
H1818 H 0.1021 0.66612 0.27229 0.0
H1819 H 0.17999 0.76319 0.33572 0.0
H1820 H 0.1431 0.6539 0.3067 0.0
H1821 H 0.12199 0.76453 0.31034 0.0
H1822 H 0.16938 0.72483 0.32384 0.0
H1823 H 0.11213 0.70423 0.28458 0.0
C1824 C 0.1133 0.67154 0.2824 0.0
C1825 C 0.12181 0.6569 0.2885 0.0
C1826 C 0.15889 0.73347 0.32095 0.0
C1827 C 0.13332 0.70034 0.3026 0.0
C1828 C 0.16486 0.75535 0.32779 0.0
C1829 C 0.15164 0.76701 0.32422 0.0
C1830 C 0.13984 0.72333 0.31026 0.0
C1831 C 0.13263 0.75619 0.31352 0.0
C1832 C 0.11888 0.69318 0.28946 0.0
C1833 C 0.13602 0.66459 0.30172 0.0
N1834 N 0.12736 0.735 0.30688 0.0
N1835 N 0.14144 0.68587 0.30829 0.0
H1836 H 0.80775 0.98605 0.40877 0.0
H1837 H 0.72983 0.92021 0.33603 0.0
H1838 H 0.79282 0.02491 0.37459 0.0
H1839 H 0.71205 0.88547 0.37924 0.0
H1840 H 0.75888 0.95838 0.34844 0.0
H1841 H 0.77796 0.9483 0.39668 0.0
C1842 C 0.79818 0.98681 0.39883 0.0
C1843 C 0.80296 0.00898 0.39279 0.0
C1844 C 0.74859 0.94238 0.35518 0.0
C1845 C 0.76941 0.96561 0.37863 0.0
C1846 C 0.73225 0.92065 0.34811 0.0
C1847 C 0.71884 0.89983 0.35667 0.0
C1848 C 0.75182 0.94303 0.37085 0.0
C1849 C 0.72213 0.90128 0.37232 0.0
C1850 C 0.78128 0.96517 0.39189 0.0
C1851 C 0.7903 0.00848 0.37957 0.0
N1852 N 0.73853 0.92252 0.37893 0.0
N1853 N 0.77427 0.98718 0.37289 0.0
H1854 H 0.00268 0.82251 0.37535 0.0
H1855 H 0.09164 0.76914 0.36286 0.0
H1856 H 1.00046 0.76661 0.4032 0.0
H1857 H 0.11829 0.84494 0.35711 0.0
H1858 H 0.05277 0.76415 0.3723 0.0
H1859 H 0.04032 0.82748 0.36337 0.0
C1860 C 0.01009 0.81126 0.37888 0.0
C1861 C 0.99862 0.79422 0.39032 0.0
C1862 C 0.06702 0.78181 0.36877 0.0
C1863 C 0.04104 0.79945 0.37655 0.0
C1864 C 0.08911 0.78465 0.36333 0.0
C1865 C 0.108 0.80738 0.3589 0.0
C1866 C 0.06369 0.80183 0.36976 0.0
C1867 C 0.10395 0.82699 0.36 0.0
C1868 C 0.03151 0.81415 0.3721 0.0
C1869 C 0.00889 0.78007 0.39451 0.0
N1870 N 0.08214 0.82376 0.36525 0.0
N1871 N 0.0294 0.78287 0.38756 0.0
H1872 H 0.26038 0.23398 0.39031 0.0
H1873 H 0.15362 0.2498 0.35344 0.0
H1874 H 0.18379 0.1822 0.39697 0.0
H1875 H 0.22419 0.30999 0.36604 0.0
H1876 H 0.16554 0.22251 0.36514 0.0
H1877 H 0.24845 0.26006 0.37707 0.0
C1878 C 0.24106 0.22811 0.38891 0.0
C1879 C 0.22301 0.20605 0.39477 0.0
C1880 C 0.17835 0.24171 0.36529 0.0
C1881 C 0.20928 0.23551 0.37958 0.0
C1882 C 0.17164 0.25725 0.35858 0.0
C1883 C 0.1879 0.28221 0.35886 0.0
C1884 C 0.20161 0.25121 0.37205 0.0
C1885 C 0.211 0.29092 0.36568 0.0
C1886 C 0.23428 0.24298 0.38143 0.0
C1887 C 0.19822 0.19923 0.39273 0.0
N1888 N 0.2172 0.27543 0.37195 0.0
N1889 N 0.19204 0.21388 0.38522 0.0
H1890 H 0.64937 0.56655 0.7159 0.0
H1891 H 0.78598 0.60557 0.68941 0.0
H1892 H 0.68549 0.52614 0.72653 0.0
H1893 H 0.75672 0.65366 0.69055 0.0
H1894 H 0.74632 0.57285 0.69822 0.0
H1895 H 0.6859 0.59542 0.70222 0.0
C1896 C 0.66496 0.56372 0.71541 0.0
C1897 C 0.66435 0.54396 0.7226 0.0
C1898 C 0.74849 0.59049 0.69635 0.0
C1899 C 0.70618 0.57683 0.70663 0.0
C1900 C 0.77102 0.60907 0.69118 0.0
C1901 C 0.77442 0.63221 0.68909 0.0
C1902 C 0.72937 0.59519 0.69951 0.0
C1903 C 0.75469 0.63598 0.69194 0.0
C1904 C 0.68577 0.58015 0.70749 0.0
C1905 C 0.68496 0.54097 0.72113 0.0
N1906 N 0.73302 0.61769 0.69703 0.0
N1907 N 0.70505 0.55728 0.71339 0.0
H1908 H 0.43717 0.0849 0.72357 0.0
H1909 H 0.39812 0.18075 0.69728 0.0
H1910 H 0.48405 0.16168 0.72924 0.0
H1911 H 0.34795 0.10433 0.69968 0.0
H1912 H 0.43127 0.17431 0.70646 0.0
H1913 H 0.40574 0.09185 0.71247 0.0
C1914 C 0.44089 0.10324 0.72258 0.0
C1915 C 0.46338 0.12269 0.72755 0.0
C1916 C 0.41305 0.15893 0.7049 0.0
C1917 C 0.42731 0.13081 0.71451 0.0
C1918 C 0.39419 0.16259 0.69954 0.0
C1919 C 0.37041 0.14295 0.69741 0.0
C1920 C 0.40804 0.13548 0.70826 0.0
C1921 C 0.36612 0.11989 0.70098 0.0
C1922 C 0.42291 0.1072 0.71612 0.0
C1923 C 0.46718 0.14608 0.7255 0.0
N1924 N 0.38473 0.11678 0.70614 0.0
N1925 N 0.44935 0.14947 0.7192 0.0
H1926 H 0.91451 0.36157 0.70785 0.0
H1927 H 0.84887 0.21934 0.71556 0.0
H1928 H 0.86411 0.32373 0.74386 0.0
H1929 H 0.86611 0.25396 0.67231 0.0
H1930 H 0.86082 0.25828 0.72757 0.0
H1931 H 0.90322 0.32272 0.6959 0.0
C1932 C 0.90117 0.34504 0.71324 0.0
C1933 C 0.89013 0.34569 0.72679 0.0
C1934 C 0.86186 0.25728 0.71545 0.0
C1935 C 0.87744 0.30153 0.71339 0.0
C1936 C 0.85517 0.23519 0.70863 0.0
C1937 C 0.85619 0.23356 0.69295 0.0
C1938 C 0.87019 0.27788 0.70651 0.0
C1939 C 0.86451 0.25449 0.6844 0.0
C1940 C 0.89467 0.32298 0.70642 0.0
C1941 C 0.87287 0.32388 0.73335 0.0
N1942 N 0.87138 0.2759 0.6913 0.0
N1943 N 0.86716 0.30262 0.72664 0.0
H1944 H 0.17877 0.00495 0.6258 0.0
H1945 H 0.31621 0.0925 0.65374 0.0
H1946 H 0.23258 0.98201 0.62922 0.0
H1947 H 0.25586 0.10404 0.66439 0.0
H1948 H 0.28699 0.05373 0.64222 0.0
H1949 H 0.20793 0.04312 0.63767 0.0
C1950 C 0.1966 0.00777 0.62913 0.0
C1951 C 0.20307 0.99002 0.6265 0.0
C1952 C 0.28019 0.06475 0.64714 0.0
C1953 C 0.23684 0.03413 0.63982 0.0
C1954 C 0.29685 0.0869 0.65367 0.0
C1955 C 0.28847 0.1015 0.6601 0.0
C1956 C 0.25504 0.05732 0.64685 0.0
C1957 C 0.26315 0.09331 0.65969 0.0
C1958 C 0.21331 0.02969 0.63584 0.0
C1959 C 0.2268 0.99518 0.63077 0.0
N1960 N 0.24737 0.07184 0.65312 0.0
N1961 N 0.24282 0.01676 0.63716 0.0
H1962 H 0.02255 0.24632 0.63293 0.0
H1963 H 0.88405 0.15321 0.65743 0.0
H1964 H 0.98821 0.16962 0.62545 0.0
H1965 H 0.91511 0.23022 0.65685 0.0
H1966 H 0.9235 0.1584 0.64882 0.0
H1967 H 0.98481 0.24029 0.64458 0.0
C1968 C 0.00708 0.22819 0.63366 0.0
C1969 C 0.00863 0.2085 0.62797 0.0
C1970 C 0.92176 0.17418 0.6507 0.0
C1971 C 0.96518 0.20142 0.64162 0.0
C1972 C 0.89931 0.17122 0.65575 0.0
C1973 C 0.89652 0.19137 0.65815 0.0
C1974 C 0.94146 0.19745 0.6479 0.0
C1975 C 0.91664 0.21426 0.65531 0.0
C1976 C 0.98552 0.22475 0.64043 0.0
C1977 C 0.98803 0.18537 0.6297 0.0
N1978 N 0.93823 0.21668 0.65038 0.0
N1979 N 0.96717 0.18249 0.63629 0.0
H1980 H 0.76735 0.76549 0.6049 0.0
H1981 H 0.84708 0.7476 0.66812 0.0
H1982 H 0.80887 0.81956 0.63868 0.0
H1983 H 0.78969 0.68909 0.64239 0.0
H1984 H 0.83612 0.77529 0.65625 0.0
H1985 H 0.77822 0.73823 0.61726 0.0
C1986 C 0.77861 0.77161 0.61497 0.0
C1987 C 0.78708 0.79488 0.62077 0.0
C1988 C 0.82589 0.75636 0.65329 0.0
C1989 C 0.79999 0.7638 0.63485 0.0
C1990 C 0.83205 0.7405 0.66011 0.0
C1991 C 0.81912 0.71587 0.65641 0.0
C1992 C 0.8069 0.74759 0.64254 0.0
C1993 C 0.80017 0.70786 0.64567 0.0
C1994 C 0.78491 0.75605 0.62199 0.0
C1995 C 0.80214 0.80193 0.63368 0.0
N1996 N 0.7947 0.72367 0.63909 0.0
N1997 N 0.80814 0.78646 0.64027 0.0
H1998 H 0.02516 0.76928 0.63869 0.0
H1999 H 0.88503 0.72539 0.65917 0.0
H2000 H 0.98782 0.80708 0.62481 0.0
H2001 H 0.91519 0.67804 0.65826 0.0
H2002 H 0.9251 0.75885 0.6516 0.0
H2003 H 0.98734 0.73898 0.65086 0.0
C2004 C 0.00907 0.77133 0.63834 0.0
C2005 C 0.00954 0.79061 0.63063 0.0
C2006 C 0.92301 0.74119 0.65322 0.0
C2007 C 0.96631 0.75609 0.64452 0.0
C2008 C 0.90024 0.72218 0.65767 0.0
C2009 C 0.89703 0.69908 0.65954 0.0
C2010 C 0.9426 0.73699 0.65061 0.0
C2011 C 0.9171 0.69569 0.65704 0.0
C2012 C 0.98749 0.75399 0.64522 0.0
C2013 C 0.98812 0.79231 0.63045 0.0
N2014 N 0.93907 0.71444 0.65273 0.0
N2015 N 0.96736 0.77526 0.63728 0.0
H2016 H 0.18592 0.18381 0.64436 0.0
H2017 H 0.27829 0.15568 0.66029 0.0
H2018 H 0.23981 0.23367 0.61334 0.0
H2019 H 0.32707 0.23173 0.65414 0.0
H2020 H 0.24408 0.16018 0.65103 0.0
H2021 H 0.21785 0.17754 0.65599 0.0
C2022 C 0.20448 0.19345 0.64004 0.0
C2023 C 0.21023 0.20912 0.62779 0.0
C2024 C 0.26218 0.17594 0.65196 0.0
C2025 C 0.24668 0.20207 0.64098 0.0
C2026 C 0.28171 0.17341 0.65731 0.0
C2027 C 0.30535 0.19356 0.65862 0.0
C2028 C 0.26652 0.19868 0.64741 0.0
C2029 C 0.30896 0.21587 0.65371 0.0
C2030 C 0.22258 0.18972 0.64657 0.0
C2031 C 0.23457 0.22122 0.62263 0.0
N2032 N 0.28978 0.21783 0.64825 0.0
N2033 N 0.25195 0.2176 0.62932 0.0
H2034 H 0.76201 0.99608 0.60538 0.0
H2035 H 0.84673 0.09591 0.66559 0.0
H2036 H 0.80548 0.98478 0.63849 0.0
H2037 H 0.78599 0.09632 0.64305 0.0
H2038 H 0.83453 0.0569 0.65412 0.0
H2039 H 0.77335 0.03478 0.61734 0.0
C2040 C 0.77397 0.00181 0.61516 0.0
C2041 C 0.78284 0.98729 0.62098 0.0
C2042 C 0.82379 0.06547 0.65177 0.0
C2043 C 0.79592 0.03141 0.63465 0.0
C2044 C 0.83067 0.08772 0.65838 0.0
C2045 C 0.8171 0.09927 0.65553 0.0
C2046 C 0.80348 0.05486 0.642 0.0
C2047 C 0.79691 0.08805 0.64567 0.0
C2048 C 0.78032 0.02378 0.62202 0.0
C2049 C 0.7981 0.99538 0.63374 0.0
N2050 N 0.79074 0.06649 0.63922 0.0
N2051 N 0.80429 0.017 0.64011 0.0
H2052 H 0.49633 0.35084 0.71324 0.0
H2053 H 0.35981 0.23892 0.70946 0.0
H2054 H 0.44236 0.3376 0.74736 0.0
H2055 H 0.42088 0.2396 0.68679 0.0
H2056 H 0.38848 0.2773 0.72148 0.0
H2057 H 0.46748 0.31238 0.70126 0.0
C2058 C 0.47836 0.33985 0.71817 0.0
C2059 C 0.4717 0.34739 0.7313 0.0
C2060 C 0.39554 0.26904 0.71382 0.0
C2061 C 0.43861 0.30345 0.71764 0.0
C2062 C 0.37919 0.24714 0.70691 0.0
C2063 C 0.38784 0.23605 0.69689 0.0
C2064 C 0.42072 0.28011 0.7106 0.0
C2065 C 0.41323 0.24761 0.69415 0.0
C2066 C 0.46198 0.31787 0.71138 0.0
C2067 C 0.44827 0.33235 0.73731 0.0
N2068 N 0.42873 0.26904 0.70089 0.0
N2069 N 0.43249 0.31116 0.73038 0.0
H2070 H 0.64785 0.08735 0.71345 0.0
H2071 H 0.78821 0.1792 0.6921 0.0
H2072 H 0.68653 0.16097 0.72919 0.0
H2073 H 0.75647 0.10209 0.69193 0.0
H2074 H 0.74901 0.17413 0.70134 0.0
H2075 H 0.68547 0.09382 0.70111 0.0
C2076 C 0.66419 0.10495 0.71419 0.0
C2077 C 0.66403 0.1236 0.72245 0.0
C2078 C 0.7506 0.15833 0.69916 0.0
C2079 C 0.70724 0.13115 0.70831 0.0
C2080 C 0.77286 0.16122 0.69378 0.0
C2081 C 0.77538 0.14098 0.69104 0.0
C2082 C 0.73076 0.13506 0.70178 0.0
C2083 C 0.75514 0.11811 0.69377 0.0
C2084 C 0.6857 0.10859 0.70721 0.0
C2085 C 0.68588 0.14599 0.72311 0.0
N2086 N 0.73369 0.11575 0.69891 0.0
N2087 N 0.70658 0.14916 0.71613 0.0
H2088 H 0.84434 0.51283 0.73021 0.0
H2089 H 0.89033 0.6436 0.69815 0.0
H2090 H 0.92072 0.5623 0.721 0.0
H2091 H 0.8186 0.584 0.68693 0.0
H2092 H 0.90091 0.61544 0.70969 0.0
H2093 H 0.83345 0.54019 0.71749 0.0
C2094 C 0.85877 0.52949 0.72554 0.0
C2095 C 0.88343 0.53541 0.72661 0.0
C2096 C 0.8829 0.60854 0.70465 0.0
C2097 C 0.87122 0.56667 0.71226 0.0
C2098 C 0.8768 0.62459 0.69812 0.0
C2099 C 0.85354 0.61611 0.6916 0.0
C2100 C 0.86545 0.58391 0.70493 0.0
C2101 C 0.83677 0.59126 0.6918 0.0
C2102 C 0.85256 0.54496 0.71822 0.0
C2103 C 0.90148 0.55709 0.72031 0.0
N2104 N 0.84298 0.57601 0.69851 0.0
N2105 N 0.89504 0.57206 0.71351 0.0
H2106 H 0.49793 0.9826 0.19014 0.0
H2107 H 0.47636 0.9724 0.10124 0.0
H2108 H 0.45446 0.91405 0.16785 0.0
H2109 H 0.53865 0.03225 0.12298 0.0
H2110 H 0.46511 0.95135 0.1254 0.0
H2111 H 0.50952 0.00212 0.16557 0.0
C2112 C 0.49071 0.97167 0.18006 0.0
C2113 C 0.47518 0.94666 0.18105 0.0
C2114 C 0.48126 0.96908 0.12482 0.0
C2115 C 0.48837 0.96891 0.15282 0.0
C2116 C 0.48781 0.98111 0.11099 0.0
C2117 C 0.50841 0.00437 0.10997 0.0
C2118 C 0.49521 0.98046 0.13777 0.0
C2119 C 0.52225 0.01469 0.12316 0.0
C2120 C 0.49746 0.98279 0.16603 0.0
C2121 C 0.4666 0.93336 0.16759 0.0
N2122 N 0.51531 0.00279 0.13646 0.0
N2123 N 0.47318 0.94465 0.15402 0.0
H2124 H 0.04256 0.55486 0.17602 0.0
H2125 H 0.9515 0.45761 0.11667 0.0
H2126 H 0.01743 0.47895 0.18052 0.0
H2127 H 1.00176 0.53143 0.10486 0.0
H2128 H 0.97044 0.46538 0.14179 0.0
H2129 H 0.02289 0.5468 0.15135 0.0
C2130 C 0.0331 0.53651 0.17183 0.0
C2131 C 0.03193 0.5176 0.18042 0.0
C2132 C 0.97729 0.47984 0.13368 0.0
C2133 C 0.00871 0.50825 0.15227 0.0
C2134 C 0.96642 0.47547 0.11943 0.0
C2135 C 0.97515 0.49393 0.10874 0.0
C2136 C 0.99669 0.50292 0.1373 0.0
C2137 C 0.99464 0.5167 0.11278 0.0
C2138 C 0.02174 0.53194 0.15776 0.0
C2139 C 0.01865 0.49411 0.17447 0.0
N2140 N 0.00469 0.52061 0.12678 0.0
N2141 N 0.00751 0.49009 0.16078 0.0
H2142 H 0.51827 0.54446 0.18156 0.0
H2143 H 0.47853 0.47637 0.10213 0.0
H2144 H 0.44585 0.48381 0.17315 0.0
H2145 H 0.55397 0.52229 0.11579 0.0
H2146 H 0.4653 0.48145 0.12717 0.0
H2147 H 0.53082 0.53893 0.15664 0.0
C2148 C 0.50501 0.52981 0.17457 0.0
C2149 C 0.48096 0.51445 0.17962 0.0
C2150 C 0.48474 0.49035 0.12468 0.0
C2151 C 0.4952 0.5084 0.15077 0.0
C2152 C 0.49229 0.48757 0.11039 0.0
C2153 C 0.51739 0.49887 0.1069 0.0
C2154 C 0.50242 0.50479 0.1355 0.0
C2155 C 0.53445 0.51302 0.11806 0.0
C2156 C 0.5122 0.52678 0.16026 0.0
C2157 C 0.4645 0.49626 0.16975 0.0
N2158 N 0.52665 0.51566 0.13182 0.0
N2159 N 0.47191 0.49377 0.15581 0.0
H2160 H 0.97341 0.51424 0.84093 0.0
H2161 H 0.0452 0.47688 0.89951 0.0
H2162 H 0.98729 0.4555 0.83343 0.0
H2163 H 0.01677 0.52373 0.91104 0.0
H2164 H 0.02748 0.47171 0.8743 0.0
H2165 H 0.99214 0.52047 0.86589 0.0
C2166 C 0.98027 0.50257 0.84452 0.0
C2167 C 0.97871 0.48429 0.835 0.0
C2168 C 0.02512 0.48313 0.88234 0.0
C2169 C 1.00056 0.49162 0.86351 0.0
C2170 C 0.03537 0.48621 0.89669 0.0
C2171 C 0.03243 0.50074 0.90738 0.0
C2172 C 0.01199 0.49482 0.87859 0.0
C2173 C 0.01924 0.51217 0.90318 0.0
C2174 C 0.99108 0.50623 0.85876 0.0
C2175 C 0.98839 0.47006 0.84022 0.0
N2176 N 0.00955 0.50901 0.8891 0.0
N2177 N 0.9989 0.47404 0.8541 0.0
H2178 H 0.55644 0.48773 0.85117 0.0
H2179 H 0.46198 0.51293 0.8961 0.0
H2180 H 0.50274 0.50017 0.829 0.0
H2181 H 0.53429 0.53463 0.91374 0.0
H2182 H 0.47319 0.50133 0.87255 0.0
H2183 H 0.54509 0.4981 0.8754 0.0
C2184 C 0.54221 0.49256 0.85143 0.0
C2185 C 0.53055 0.4932 0.83809 0.0
C2186 C 0.48656 0.50861 0.88161 0.0
C2187 C 0.51731 0.50471 0.86566 0.0
C2188 C 0.48026 0.51541 0.89507 0.0
C2189 C 0.49727 0.52516 0.90701 0.0
C2190 C 0.50991 0.5111 0.88004 0.0
C2191 C 0.52039 0.52703 0.90502 0.0
C2192 C 0.53584 0.49856 0.86521 0.0
C2193 C 0.51231 0.49967 0.83902 0.0
N2194 N 0.52601 0.52006 0.89181 0.0
N2195 N 0.50613 0.50501 0.85257 0.0
H2196 H 0.56024 0.0362 0.83447 0.0
H2197 H 0.49578 0.01239 0.91502 0.0
H2198 H 0.50743 0.05831 0.84483 0.0
H2199 H 0.51799 0.96473 0.89536 0.0
H2200 H 0.50706 0.03562 0.89147 0.0
H2201 H 0.55197 0.01597 0.85892 0.0
C2202 C 0.54706 0.03697 0.84195 0.0
C2203 C 0.53445 0.04889 0.83759 0.0
C2204 C 0.50959 0.02017 0.89238 0.0
C2205 C 0.52509 0.02601 0.86564 0.0
C2206 C 0.50334 0.00705 0.90581 0.0
C2207 C 0.50596 0.98664 0.90709 0.0
C2208 C 0.51902 0.0131 0.88028 0.0
C2209 C 0.51562 0.98032 0.89479 0.0
C2210 C 0.54227 0.02533 0.85585 0.0
C2211 C 0.51741 0.04916 0.8477 0.0
N2212 N 0.5219 0.99353 0.88194 0.0
N2213 N 0.51332 0.03801 0.86128 0.0
H2214 H 0.11294 0.27566 0.50981 0.0
H2215 H 0.22293 0.34875 0.45218 0.0
H2216 H 0.18576 0.28616 0.51599 0.0
H2217 H 0.14703 0.32152 0.44009 0.0
H2218 H 0.20981 0.32794 0.47628 0.0
H2219 H 0.12516 0.29448 0.48497 0.0
C2220 C 0.1315 0.28196 0.50596 0.0
C2221 C 0.14834 0.2793 0.51502 0.0
C2222 C 0.19599 0.32641 0.46835 0.0
C2223 C 0.16246 0.3009 0.4866 0.0
C2224 C 0.20347 0.33838 0.45461 0.0
C2225 C 0.18606 0.33696 0.44411 0.0
C2226 C 0.17085 0.31308 0.47178 0.0
C2227 C 0.16107 0.323 0.44781 0.0
C2228 C 0.13842 0.29256 0.49174 0.0
C2229 C 0.17208 0.28759 0.50936 0.0
N2230 N 0.15421 0.31177 0.46138 0.0
N2231 N 0.17845 0.29813 0.4956 0.0
H2232 H 0.73301 0.87155 0.49954 0.0
H2233 H 0.61092 0.80285 0.44941 0.0
H2234 H 0.66148 0.82424 0.51833 0.0
H2235 H 0.67991 0.86066 0.43309 0.0
H2236 H 0.6295 0.80786 0.47436 0.0
H2237 H 0.7143 0.86487 0.47464 0.0
C2238 C 0.71334 0.85981 0.49845 0.0
C2239 C 0.69878 0.84862 0.5111 0.0
C2240 C 0.64054 0.81941 0.46529 0.0
C2241 C 0.67724 0.84065 0.48251 0.0
C2242 C 0.62992 0.81666 0.45107 0.0
C2243 C 0.64386 0.83133 0.43909 0.0
C2244 C 0.66531 0.8369 0.46756 0.0
C2245 C 0.66853 0.84866 0.44188 0.0
C2246 C 0.70268 0.85593 0.4842 0.0
C2247 C 0.67346 0.83312 0.5089 0.0
N2248 N 0.67843 0.85094 0.4558 0.0
N2249 N 0.66348 0.82964 0.49488 0.0
H2250 H 0.11794 0.81438 0.51609 0.0
H2251 H 0.19103 0.86912 0.43962 0.0
H2252 H 0.16949 0.89007 0.51063 0.0
H2253 H 0.16556 0.79584 0.45299 0.0
H2254 H 0.17727 0.87654 0.46386 0.0
H2255 H 0.12919 0.80665 0.49107 0.0
C2256 C 0.13146 0.82937 0.50955 0.0
C2257 C 0.14289 0.85287 0.51541 0.0
C2258 C 0.17468 0.85884 0.46146 0.0
C2259 C 0.15571 0.84423 0.48688 0.0
C2260 C 0.18241 0.85458 0.44764 0.0
C2261 C 0.17951 0.83187 0.44437 0.0
C2262 C 0.16359 0.84015 0.47197 0.0
C2263 C 0.16835 0.81367 0.45517 0.0
C2264 C 0.13797 0.82494 0.49535 0.0
C2265 C 0.16042 0.87166 0.50655 0.0
N2266 N 0.16069 0.81816 0.46847 0.0
N2267 N 0.16624 0.86695 0.4927 0.0
H2268 H 0.67208 0.86269 0.16274 0.0
H2269 H 0.66906 0.79978 0.24049 0.0
H2270 H 0.64118 0.78589 0.16656 0.0
H2271 H 0.72529 0.87239 0.23026 0.0
H2272 H 0.65337 0.7952 0.21464 0.0
H2273 H 0.68668 0.86748 0.18887 0.0
C2274 C 0.66831 0.84686 0.16913 0.0
C2275 C 0.65553 0.82388 0.16253 0.0
C2276 C 0.66913 0.81212 0.21808 0.0
C2277 C 0.67188 0.82917 0.19232 0.0
C2278 C 0.67798 0.81477 0.2328 0.0
C2279 C 0.69852 0.83645 0.23743 0.0
C2280 C 0.68064 0.83144 0.20804 0.0
C2281 C 0.70954 0.85532 0.22705 0.0
C2282 C 0.67672 0.8496 0.18396 0.0
C2283 C 0.65119 0.80393 0.17122 0.0
N2284 N 0.70037 0.85243 0.21285 0.0
N2285 N 0.65922 0.80701 0.18572 0.0
H2286 H 0.22094 0.85767 0.16947 0.0
H2287 H 0.14729 0.80066 0.24524 0.0
H2288 H 0.17072 0.78137 0.17451 0.0
H2289 H 0.17046 0.87361 0.23217 0.0
H2290 H 0.16138 0.79406 0.22089 0.0
H2291 H 0.20772 0.86463 0.19392 0.0
C2292 C 0.20708 0.84236 0.17561 0.0
C2293 C 0.19699 0.81884 0.16977 0.0
C2294 C 0.16336 0.8115 0.22336 0.0
C2295 C 0.18228 0.82678 0.19802 0.0
C2296 C 0.15546 0.8153 0.23725 0.0
C2297 C 0.15765 0.83768 0.24067 0.0
C2298 C 0.17392 0.83033 0.21291 0.0
C2299 C 0.16823 0.85602 0.2299 0.0
C2300 C 0.19966 0.84639 0.18962 0.0
C2301 C 0.17947 0.79977 0.17855 0.0
N2302 N 0.1761 0.852 0.21653 0.0
N2303 N 0.17278 0.80416 0.19222 0.0
H2304 H 0.16879 0.39475 0.17414 0.0
H2305 H 0.17975 0.30458 0.23051 0.0
H2306 H 0.22273 0.3726 0.16836 0.0
H2307 H 0.15102 0.35011 0.24453 0.0
H2308 H 0.19264 0.32649 0.20667 0.0
H2309 H 0.1589 0.37577 0.199 0.0
C2310 C 0.17856 0.3859 0.17813 0.0
C2311 C 0.19658 0.38521 0.16917 0.0
C2312 C 0.18365 0.33179 0.21499 0.0
C2313 C 0.1852 0.36327 0.19752 0.0
C2314 C 0.17619 0.31923 0.22855 0.0
C2315 C 0.16426 0.32552 0.23948 0.0
C2316 C 0.17872 0.3505 0.21219 0.0
C2317 C 0.16027 0.34477 0.23643 0.0
C2318 C 0.173 0.3752 0.19233 0.0
C2319 C 0.20881 0.37367 0.17493 0.0
N2320 N 0.16723 0.35641 0.223 0.0
N2321 N 0.20272 0.36293 0.18866 0.0
H2322 H 0.84057 0.65111 0.85698 0.0
H2323 H 0.81381 0.64319 0.769 0.0
H2324 H 0.79347 0.58326 0.8348 0.0
H2325 H 0.88117 0.69903 0.78907 0.0
H2326 H 0.80302 0.62215 0.79311 0.0
H2327 H 0.85221 0.67062 0.83237 0.0
C2328 C 0.83261 0.64035 0.84691 0.0
C2329 C 0.81602 0.61555 0.84792 0.0
C2330 C 0.82019 0.63899 0.79216 0.0
C2331 C 0.82915 0.63777 0.81972 0.0
C2332 C 0.82649 0.651 0.77835 0.0
C2333 C 0.84845 0.67315 0.77687 0.0
C2334 C 0.83572 0.6493 0.80468 0.0
C2335 C 0.86378 0.68239 0.78963 0.0
C2336 C 0.83937 0.65145 0.83288 0.0
C2337 C 0.80643 0.60241 0.8345 0.0
N2338 N 0.85703 0.67057 0.80297 0.0
N2339 N 0.81298 0.61371 0.82095 0.0
H2340 H 0.31533 0.16828 0.85984 0.0
H2341 H 0.33092 0.15035 0.77271 0.0
H2342 H 0.38385 0.18043 0.84117 0.0
H2343 H 0.28074 0.17297 0.78888 0.0
H2344 H 0.34678 0.15417 0.79827 0.0
H2345 H 0.29822 0.16224 0.83429 0.0
C2346 C 0.32665 0.16945 0.85035 0.0
C2347 C 0.351 0.1749 0.85253 0.0
C2348 C 0.33228 0.15826 0.79617 0.0
C2349 C 0.33164 0.16792 0.82346 0.0
C2350 C 0.32329 0.15626 0.78155 0.0
C2351 C 0.30452 0.16154 0.7785 0.0
C2352 C 0.32219 0.16516 0.8079 0.0
C2353 C 0.29494 0.16838 0.79063 0.0
C2354 C 0.31697 0.16616 0.83582 0.0
C2355 C 0.36503 0.17642 0.8399 0.0
N2356 N 0.30384 0.16993 0.80479 0.0
N2357 N 0.35511 0.17284 0.82587 0.0
H2358 H 0.85866 0.20963 0.85071 0.0
H2359 H 0.81662 0.14079 0.77165 0.0
H2360 H 0.78589 0.14917 0.8429 0.0
H2361 H 0.89248 0.18627 0.78461 0.0
H2362 H 0.80414 0.14627 0.79681 0.0
H2363 H 0.8706 0.20368 0.82569 0.0
C2364 C 0.84521 0.19494 0.84382 0.0
C2365 C 0.82123 0.17977 0.84905 0.0
C2366 C 0.82351 0.15499 0.79415 0.0
C2367 C 0.83475 0.17324 0.82013 0.0
C2368 C 0.83063 0.15198 0.77978 0.0
C2369 C 0.85562 0.16305 0.77607 0.0
C2370 C 0.84152 0.16941 0.8048 0.0
C2371 C 0.87303 0.1772 0.78706 0.0
C2372 C 0.85204 0.19166 0.82947 0.0
C2373 C 0.80449 0.16149 0.83935 0.0
N2374 N 0.86565 0.18005 0.8009 0.0
N2375 N 0.81155 0.15877 0.82536 0.0
H2376 H 0.30383 0.17767 0.51169 0.0
H2377 H 0.37417 0.13845 0.5701 0.0
H2378 H 0.31392 0.11643 0.50486 0.0
H2379 H 0.34799 0.18711 0.58169 0.0
H2380 H 0.35551 0.13291 0.54515 0.0
H2381 H 0.32264 0.18368 0.53662 0.0
C2382 C 0.30983 0.16538 0.51543 0.0
C2383 C 0.30729 0.14653 0.50608 0.0
C2384 C 0.35384 0.1448 0.55315 0.0
C2385 C 0.32927 0.15363 0.53453 0.0
C2386 C 0.36463 0.14809 0.56735 0.0
C2387 C 0.36261 0.16325 0.57797 0.0
C2388 C 0.34111 0.15692 0.54948 0.0
C2389 C 0.34977 0.17508 0.57387 0.0
C2390 C 0.3207 0.16893 0.52965 0.0
C2391 C 0.31586 0.13148 0.5115 0.0
N2392 N 0.33956 0.17172 0.55993 0.0
N2393 N 0.3265 0.1354 0.52532 0.0
H2394 H 0.8342 0.16002 0.49183 0.0
H2395 H 0.85903 0.17676 0.58017 0.0
H2396 H 0.88376 0.14177 0.514 0.0
H2397 H 0.7906 0.16339 0.56009 0.0
H2398 H 0.87178 0.16942 0.5557 0.0
H2399 H 0.82174 0.1675 0.51647 0.0
C2400 C 0.84257 0.15776 0.5019 0.0
C2401 C 0.86001 0.15026 0.50091 0.0
C2402 C 0.85397 0.16809 0.55671 0.0
C2403 C 0.84594 0.15884 0.52907 0.0
C2404 C 0.84655 0.17211 0.57071 0.0
C2405 C 0.82358 0.17066 0.57234 0.0
C2406 C 0.83856 0.16295 0.54414 0.0
C2407 C 0.80862 0.16518 0.55944 0.0
C2408 C 0.83534 0.16186 0.51593 0.0
C2409 C 0.87012 0.14737 0.5143 0.0
N2410 N 0.81642 0.16165 0.54591 0.0
N2411 N 0.86305 0.1518 0.52784 0.0
H2412 H 0.87476 0.74956 0.51373 0.0
H2413 H 0.81577 0.62542 0.55905 0.0
H2414 H 0.83998 0.67961 0.49235 0.0
H2415 H 0.83205 0.69285 0.57985 0.0
H2416 H 0.829 0.6458 0.53492 0.0
H2417 H 0.86383 0.72991 0.53838 0.0
C2418 C 0.86496 0.73008 0.51422 0.0
C2419 C 0.8582 0.71622 0.50093 0.0
C2420 C 0.8297 0.65616 0.54477 0.0
C2421 C 0.84567 0.69362 0.52912 0.0
C2422 C 0.822 0.6445 0.55859 0.0
C2423 C 0.82245 0.65728 0.57161 0.0
C2424 C 0.83819 0.68094 0.54383 0.0
C2425 C 0.83149 0.68218 0.57023 0.0
C2426 C 0.85862 0.71888 0.52829 0.0
C2427 C 0.84532 0.69103 0.50227 0.0
N2428 N 0.83894 0.69316 0.55661 0.0
N2429 N 0.83955 0.68058 0.51607 0.0
loop_
_geom_bond_atom_site_label_1
_geom_bond_atom_site_label_2
_geom_bond_distance
_geom_bond_site_symmetry_2
_ccdc_geom_bond_type
C0 C1 1.386 . S
C0 C2 1.397 . S
C0 H24 0.931 . S
C1 C0 1.386 . S
C1 C5 1.397 . S
C2 C0 1.397 . S
C2 C3 1.384 . S
C2 H25 0.930 . S
C3 C2 1.384 . S
C3 C4 1.377 . S
C3 C6 1.481 . S
C4 C3 1.377 . S
C4 C5 1.389 . S
C4 H26 0.929 . S
C5 C1 1.397 . S
C5 C4 1.389 . S
C5 H27 0.931 . S
C6 C3 1.481 . S
C6 C7 1.387 . S
C6 C11 1.390 . S
C7 C6 1.387 . S
C7 C8 1.401 . S
C7 H28 0.930 . S
C8 C7 1.401 . S
C8 C9 1.376 . S
C8 C17 1.511 . S
C9 C8 1.376 . S
C9 C10 1.392 . S
C9 H30 0.931 . S
C10 C9 1.392 . S
C10 C11 1.361 . S
C10 C12 1.500 . S
C11 C6 1.390 . S
C11 C10 1.361 . S
C11 H29 0.931 . S
C12 C10 1.500 . S
C12 C13 1.371 . S
C12 C14 1.365 . S
C13 C12 1.371 . S
C13 C23 1.386 . S
C13 H31 0.931 . S
C14 C12 1.365 . S
C14 C15 1.409 . S
C14 H32 0.929 . S
C15 C14 1.409 . S
C15 C16 1.380 . S
C15 H33 0.930 . S
C16 C15 1.380 . S
C16 C23 1.357 . S
C17 C8 1.511 . S
C17 C18 1.341 . S
C17 C19 1.371 . S
C18 C17 1.341 . S
C18 C22 1.394 . S
C18 H34 0.930 . S
C19 C17 1.371 . S
C19 C20 1.392 . S
C19 H35 0.931 . S
C20 C19 1.392 . S
C20 C21 1.331 . S
C20 H38 0.932 . S
C21 C20 1.331 . S
C21 C22 1.336 . S
C22 C18 1.394 . S
C22 C21 1.336 . S
C22 H37 0.929 . S
C23 C13 1.386 . S
C23 C16 1.357 . S
C23 H36 0.928 . S
H24 C0 0.931 . S
H25 C2 0.930 . S
H26 C4 0.929 . S
H27 C5 0.931 . S
H28 C7 0.930 . S
H29 C11 0.931 . S
H30 C9 0.931 . S
H31 C13 0.931 . S
H32 C14 0.929 . S
H33 C15 0.930 . S
H34 C18 0.930 . S
H35 C19 0.931 . S
H36 C23 0.928 . S
H37 C22 0.929 . S
H38 C20 0.932 . S
C39 C40 1.386 . S
C39 C41 1.397 . S
C39 H63 0.931 . S
C40 C39 1.386 . S
C40 C44 1.397 . S
C41 C39 1.397 . S
C41 C42 1.384 . S
C41 H64 0.930 . S
C42 C41 1.384 . S
C42 C43 1.377 . S
C42 C45 1.481 . S
C43 C42 1.377 . S
C43 C44 1.389 . S
C43 H65 0.929 . S
C44 C40 1.397 . S
C44 C43 1.389 . S
C44 H66 0.931 . S
C45 C42 1.481 . S
C45 C46 1.387 . S
C45 C50 1.390 . S
C46 C45 1.387 . S
C46 C47 1.401 . S
C46 H67 0.930 . S
C47 C46 1.401 . S
C47 C48 1.376 . S
C47 C56 1.511 . S
C48 C47 1.376 . S
C48 C49 1.392 . S
C48 H69 0.931 . S
C49 C48 1.392 . S
C49 C50 1.361 . S
C49 C51 1.500 . S
C50 C45 1.390 . S
C50 C49 1.361 . S
C50 H68 0.931 . S
C51 C49 1.500 . S
C51 C52 1.371 . S
C51 C53 1.365 . S
C52 C51 1.371 . S
C52 C62 1.386 . S
C52 H70 0.931 . S
C53 C51 1.365 . S
C53 C54 1.409 . S
C53 H71 0.929 . S
C54 C53 1.409 . S
C54 C55 1.380 . S
C54 H72 0.930 . S
C55 C54 1.380 . S
C55 C62 1.357 . S
C56 C47 1.511 . S
C56 C57 1.341 . S
C56 C58 1.371 . S
C57 C56 1.341 . S
C57 C61 1.394 . S
C57 H73 0.930 . S
C58 C56 1.371 . S
C58 C59 1.392 . S
C58 H74 0.931 . S
C59 C58 1.392 . S
C59 C60 1.331 . S
C59 H77 0.932 . S
C60 C59 1.331 . S
C60 C61 1.336 . S
C61 C57 1.394 . S
C61 C60 1.336 . S
C61 H76 0.929 . S
C62 C52 1.386 . S
C62 C55 1.357 . S
C62 H75 0.928 . S
H63 C39 0.931 . S
H64 C41 0.930 . S
H65 C43 0.929 . S
H66 C44 0.931 . S
H67 C46 0.930 . S
H68 C50 0.931 . S
H69 C48 0.931 . S
H70 C52 0.931 . S
H71 C53 0.929 . S
H72 C54 0.930 . S
H73 C57 0.930 . S
H74 C58 0.931 . S
H75 C62 0.928 . S
H76 C61 0.929 . S
H77 C59 0.932 . S
C78 C79 1.386 . S
C78 C80 1.397 . S
C78 H102 0.931 . S
C79 C78 1.386 . S
C79 C83 1.397 . S
C80 C78 1.397 . S
C80 C81 1.384 . S
C80 H103 0.930 . S
C81 C80 1.384 . S
C81 C82 1.377 . S
C81 C84 1.481 . S
C82 C81 1.377 . S
C82 C83 1.389 . S
C82 H104 0.929 . S
C83 C79 1.397 . S
C83 C82 1.389 . S
C83 H105 0.931 . S
C84 C81 1.481 . S
C84 C85 1.387 . S
C84 C89 1.390 . S
C85 C84 1.387 . S
C85 C86 1.401 . S
C85 H106 0.930 . S
C86 C85 1.401 . S
C86 C87 1.376 . S
C86 C95 1.511 . S
C87 C86 1.376 . S
C87 C88 1.392 . S
C87 H108 0.931 . S
C88 C87 1.392 . S
C88 C89 1.361 . S
C88 C90 1.500 . S
C89 C84 1.390 . S
C89 C88 1.361 . S
C89 H107 0.931 . S
C90 C88 1.500 . S
C90 C91 1.371 . S
C90 C92 1.365 . S
C91 C90 1.371 . S
C91 C101 1.386 . S
C91 H109 0.931 . S
C92 C90 1.365 . S
C92 C93 1.409 . S
C92 H110 0.929 . S
C93 C92 1.409 . S
C93 C94 1.380 . S
C93 H111 0.930 . S
C94 C93 1.380 . S
C94 C101 1.357 . S
C95 C86 1.511 . S
C95 C96 1.341 . S
C95 C97 1.371 . S
C96 C95 1.341 . S
C96 C100 1.394 . S
C96 H112 0.930 . S
C97 C95 1.371 . S
C97 C98 1.392 . S
C97 H113 0.931 . S
C98 C97 1.392 . S
C98 C99 1.331 . S
C98 H116 0.932 . S
C99 C98 1.331 . S
C99 C100 1.336 . S
C100 C96 1.394 . S
C100 C99 1.336 . S
C100 H115 0.929 . S
C101 C91 1.386 . S
C101 C94 1.357 . S
C101 H114 0.928 . S
H102 C78 0.931 . S
H103 C80 0.930 . S
H104 C82 0.929 . S
H105 C83 0.931 . S
H106 C85 0.930 . S
H107 C89 0.931 . S
H108 C87 0.931 . S
H109 C91 0.931 . S
H110 C92 0.929 . S
H111 C93 0.930 . S
H112 C96 0.930 . S
H113 C97 0.931 . S
H114 C101 0.928 . S
H115 C100 0.929 . S
H116 C98 0.932 . S
C117 C118 1.386 . S
C117 C119 1.397 . S
C117 H141 0.931 . S
C118 C117 1.386 . S
C118 C122 1.397 . S
C119 C117 1.397 . S
C119 C120 1.384 . S
C119 H142 0.930 . S
C120 C119 1.384 . S
C120 C121 1.377 . S
C120 C123 1.481 . S
C121 C120 1.377 . S
C121 C122 1.389 . S
C121 H143 0.929 . S
C122 C118 1.397 . S
C122 C121 1.389 . S
C122 H144 0.931 . S
C123 C120 1.481 . S
C123 C124 1.387 . S
C123 C128 1.390 . S
C124 C123 1.387 . S
C124 C125 1.401 . S
C124 H145 0.930 . S
C125 C124 1.401 . S
C125 C126 1.376 . S
C125 C134 1.511 . S
C126 C125 1.376 . S
C126 C127 1.392 . S
C126 H147 0.931 . S
C127 C126 1.392 . S
C127 C128 1.361 . S
C127 C129 1.500 . S
C128 C123 1.390 . S
C128 C127 1.361 . S
C128 H146 0.931 . S
C129 C127 1.500 . S
C129 C130 1.371 . S
C129 C131 1.365 . S
C130 C129 1.371 . S
C130 C140 1.386 . S
C130 H148 0.931 . S
C131 C129 1.365 . S
C131 C132 1.409 . S
C131 H149 0.929 . S
C132 C131 1.409 . S
C132 C133 1.380 . S
C132 H150 0.930 . S
C133 C132 1.380 . S
C133 C140 1.357 . S
C134 C125 1.511 . S
C134 C135 1.341 . S
C134 C136 1.371 . S
C135 C134 1.341 . S
C135 C139 1.394 . S
C135 H151 0.930 . S
C136 C134 1.371 . S
C136 C137 1.392 . S
C136 H152 0.931 . S
C137 C136 1.392 . S
C137 C138 1.331 . S
C137 H155 0.932 . S
C138 C137 1.331 . S
C138 C139 1.336 . S
C139 C135 1.394 . S
C139 C138 1.336 . S
C139 H154 0.929 . S
C140 C130 1.386 . S
C140 C133 1.357 . S
C140 H153 0.928 . S
H141 C117 0.931 . S
H142 C119 0.930 . S
H143 C121 0.929 . S
H144 C122 0.931 . S
H145 C124 0.930 . S
H146 C128 0.931 . S
H147 C126 0.931 . S
H148 C130 0.931 . S
H149 C131 0.929 . S
H150 C132 0.930 . S
H151 C135 0.930 . S
H152 C136 0.931 . S
H153 C140 0.928 . S
H154 C139 0.929 . S
H155 C137 0.932 . S
C156 C157 1.386 . S
C156 C158 1.397 . S
C156 H180 0.931 . S
C157 C156 1.386 . S
C157 C161 1.397 . S
C158 C156 1.397 . S
C158 C159 1.384 . S
C158 H181 0.930 . S
C159 C158 1.384 . S
C159 C160 1.377 . S
C159 C162 1.481 . S
C160 C159 1.377 . S
C160 C161 1.389 . S
C160 H182 0.929 . S
C161 C157 1.397 . S
C161 C160 1.389 . S
C161 H183 0.931 . S
C162 C159 1.481 . S
C162 C163 1.387 . S
C162 C167 1.390 . S
C163 C162 1.387 . S
C163 C164 1.401 . S
C163 H184 0.930 . S
C164 C163 1.401 . S
C164 C165 1.376 . S
C164 C173 1.511 . S
C165 C164 1.376 . S
C165 C166 1.392 . S
C165 H186 0.931 . S
C166 C165 1.392 . S
C166 C167 1.361 . S
C166 C168 1.500 . S
C167 C162 1.390 . S
C167 C166 1.361 . S
C167 H185 0.931 . S
C168 C166 1.500 . S
C168 C169 1.371 . S
C168 C170 1.365 . S
C169 C168 1.371 . S
C169 C179 1.386 . S
C169 H187 0.931 . S
C170 C168 1.365 . S
C170 C171 1.409 . S
C170 H188 0.929 . S
C171 C170 1.409 . S
C171 C172 1.380 . S
C171 H189 0.930 . S
C172 C171 1.380 . S
C172 C179 1.357 . S
C173 C164 1.511 . S
C173 C174 1.341 . S
C173 C175 1.371 . S
C174 C173 1.341 . S
C174 C178 1.394 . S
C174 H190 0.930 . S
C175 C173 1.371 . S
C175 C176 1.392 . S
C175 H191 0.931 . S
C176 C175 1.392 . S
C176 C177 1.331 . S
C176 H194 0.932 . S
C177 C176 1.331 . S
C177 C178 1.336 . S
C178 C174 1.394 . S
C178 C177 1.336 . S
C178 H193 0.929 . S
C179 C169 1.386 . S
C179 C172 1.357 . S
C179 H192 0.928 . S
H180 C156 0.931 . S
H181 C158 0.930 . S
H182 C160 0.929 . S
H183 C161 0.931 . S
H184 C163 0.930 . S
H185 C167 0.931 . S
H186 C165 0.931 . S
H187 C169 0.931 . S
H188 C170 0.929 . S
H189 C171 0.930 . S
H190 C174 0.930 . S
H191 C175 0.931 . S
H192 C179 0.928 . S
H193 C178 0.929 . S
H194 C176 0.932 . S
C195 C196 1.386 . S
C195 C197 1.397 . S
C195 H219 0.931 . S
C196 C195 1.386 . S
C196 C200 1.397 . S
C197 C195 1.397 . S
C197 C198 1.384 . S
C197 H220 0.930 . S
C198 C197 1.384 . S
C198 C199 1.377 . S
C198 C201 1.481 . S
C199 C198 1.377 . S
C199 C200 1.389 . S
C199 H221 0.929 . S
C200 C196 1.397 . S
C200 C199 1.389 . S
C200 H222 0.931 . S
C201 C198 1.481 . S
C201 C202 1.387 . S
C201 C206 1.390 . S
C202 C201 1.387 . S
C202 C203 1.401 . S
C202 H223 0.930 . S
C203 C202 1.401 . S
C203 C204 1.376 . S
C203 C212 1.511 . S
C204 C203 1.376 . S
C204 C205 1.392 . S
C204 H225 0.931 . S
C205 C204 1.392 . S
C205 C206 1.361 . S
C205 C207 1.500 . S
C206 C201 1.390 . S
C206 C205 1.361 . S
C206 H224 0.931 . S
C207 C205 1.500 . S
C207 C208 1.371 . S
C207 C209 1.365 . S
C208 C207 1.371 . S
C208 C218 1.386 . S
C208 H226 0.931 . S
C209 C207 1.365 . S
C209 C210 1.409 . S
C209 H227 0.929 . S
C210 C209 1.409 . S
C210 C211 1.380 . S
C210 H228 0.930 . S
C211 C210 1.380 . S
C211 C218 1.357 . S
C212 C203 1.511 . S
C212 C213 1.341 . S
C212 C214 1.371 . S
C213 C212 1.341 . S
C213 C217 1.394 . S
C213 H229 0.930 . S
C214 C212 1.371 . S
C214 C215 1.392 . S
C214 H230 0.931 . S
C215 C214 1.392 . S
C215 C216 1.331 . S
C215 H233 0.932 . S
C216 C215 1.331 . S
C216 C217 1.336 . S
C217 C213 1.394 . S
C217 C216 1.336 . S
C217 H232 0.929 . S
C218 C208 1.386 . S
C218 C211 1.357 . S
C218 H231 0.928 . S
H219 C195 0.931 . S
H220 C197 0.930 . S
H221 C199 0.929 . S
H222 C200 0.931 . S
H223 C202 0.930 . S
H224 C206 0.931 . S
H225 C204 0.931 . S
H226 C208 0.931 . S
H227 C209 0.929 . S
H228 C210 0.930 . S
H229 C213 0.930 . S
H230 C214 0.931 . S
H231 C218 0.928 . S
H232 C217 0.929 . S
H233 C215 0.932 . S
C234 C235 1.386 . S
C234 C236 1.397 . S
C234 H258 0.931 . S
C235 C234 1.386 . S
C235 C239 1.397 . S
C236 C234 1.397 . S
C236 C237 1.384 . S
C236 H259 0.930 . S
C237 C236 1.384 . S
C237 C238 1.377 . S
C237 C240 1.481 . S
C238 C237 1.377 . S
C238 C239 1.389 . S
C238 H260 0.929 . S
C239 C235 1.397 . S
C239 C238 1.389 . S
C239 H261 0.931 . S
C240 C237 1.481 . S
C240 C241 1.387 . S
C240 C245 1.390 . S
C241 C240 1.387 . S
C241 C242 1.401 . S
C241 H262 0.930 . S
C242 C241 1.401 . S
C242 C243 1.376 . S
C242 C251 1.511 . S
C243 C242 1.376 . S
C243 C244 1.392 . S
C243 H264 0.931 . S
C244 C243 1.392 . S
C244 C245 1.361 . S
C244 C246 1.500 . S
C245 C240 1.390 . S
C245 C244 1.361 . S
C245 H263 0.931 . S
C246 C244 1.500 . S
C246 C247 1.371 . S
C246 C248 1.365 . S
C247 C246 1.371 . S
C247 C257 1.386 . S
C247 H265 0.931 . S
C248 C246 1.365 . S
C248 C249 1.409 . S
C248 H266 0.929 . S
C249 C248 1.409 . S
C249 C250 1.380 . S
C249 H267 0.930 . S
C250 C249 1.380 . S
C250 C257 1.357 . S
C251 C242 1.511 . S
C251 C252 1.341 . S
C251 C253 1.371 . S
C252 C251 1.341 . S
C252 C256 1.394 . S
C252 H268 0.930 . S
C253 C251 1.371 . S
C253 C254 1.392 . S
C253 H269 0.931 . S
C254 C253 1.392 . S
C254 C255 1.331 . S
C254 H272 0.932 . S
C255 C254 1.331 . S
C255 C256 1.336 . S
C256 C252 1.394 . S
C256 C255 1.336 . S
C256 H271 0.929 . S
C257 C247 1.386 . S
C257 C250 1.357 . S
C257 H270 0.928 . S
H258 C234 0.931 . S
H259 C236 0.930 . S
H260 C238 0.929 . S
H261 C239 0.931 . S
H262 C241 0.930 . S
H263 C245 0.931 . S
H264 C243 0.931 . S
H265 C247 0.931 . S
H266 C248 0.929 . S
H267 C249 0.930 . S
H268 C252 0.930 . S
H269 C253 0.931 . S
H270 C257 0.928 . S
H271 C256 0.929 . S
H272 C254 0.932 . S
C273 C274 1.386 . S
C273 C275 1.397 . S
C273 H297 0.931 . S
C274 C273 1.386 . S
C274 C278 1.397 . S
C275 C273 1.397 . S
C275 C276 1.384 . S
C275 H298 0.930 . S
C276 C275 1.384 . S
C276 C277 1.377 . S
C276 C279 1.481 . S
C277 C276 1.377 . S
C277 C278 1.389 . S
C277 H299 0.929 . S
C278 C274 1.397 . S
C278 C277 1.389 . S
C278 H300 0.931 . S
C279 C276 1.481 . S
C279 C280 1.387 . S
C279 C284 1.390 . S
C280 C279 1.387 . S
C280 C281 1.401 . S
C280 H301 0.930 . S
C281 C280 1.401 . S
C281 C282 1.376 . S
C281 C290 1.511 . S
C282 C281 1.376 . S
C282 C283 1.392 . S
C282 H303 0.931 . S
C283 C282 1.392 . S
C283 C284 1.361 . S
C283 C285 1.500 . S
C284 C279 1.390 . S
C284 C283 1.361 . S
C284 H302 0.931 . S
C285 C283 1.500 . S
C285 C286 1.371 . S
C285 C287 1.365 . S
C286 C285 1.371 . S
C286 C296 1.386 . S
C286 H304 0.931 . S
C287 C285 1.365 . S
C287 C288 1.409 . S
C287 H305 0.929 . S
C288 C287 1.409 . S
C288 C289 1.380 . S
C288 H306 0.930 . S
C289 C288 1.380 . S
C289 C296 1.357 . S
C290 C281 1.511 . S
C290 C291 1.341 . S
C290 C292 1.371 . S
C291 C290 1.341 . S
C291 C295 1.394 . S
C291 H307 0.930 . S
C292 C290 1.371 . S
C292 C293 1.392 . S
C292 H308 0.931 . S
C293 C292 1.392 . S
C293 C294 1.331 . S
C293 H311 0.932 . S
C294 C293 1.331 . S
C294 C295 1.336 . S
C295 C291 1.394 . S
C295 C294 1.336 . S
C295 H310 0.929 . S
C296 C286 1.386 . S
C296 C289 1.357 . S
C296 H309 0.928 . S
H297 C273 0.931 . S
H298 C275 0.930 . S
H299 C277 0.929 . S
H300 C278 0.931 . S
H301 C280 0.930 . S
H302 C284 0.931 . S
H303 C282 0.931 . S
H304 C286 0.931 . S
H305 C287 0.929 . S
H306 C288 0.930 . S
H307 C291 0.930 . S
H308 C292 0.931 . S
H309 C296 0.928 . S
H310 C295 0.929 . S
H311 C293 0.932 . S
C312 C313 1.386 . S
C312 C314 1.397 . S
C312 H336 0.931 . S
C313 C312 1.386 . S
C313 C317 1.397 . S
C314 C312 1.397 . S
C314 C315 1.384 . S
C314 H337 0.930 . S
C315 C314 1.384 . S
C315 C316 1.377 . S
C315 C318 1.481 . S
C316 C315 1.377 . S
C316 C317 1.389 . S
C316 H338 0.929 . S
C317 C313 1.397 . S
C317 C316 1.389 . S
C317 H339 0.931 . S
C318 C315 1.481 . S
C318 C319 1.387 . S
C318 C323 1.390 . S
C319 C318 1.387 . S
C319 C320 1.401 . S
C319 H340 0.930 . S
C320 C319 1.401 . S
C320 C321 1.376 . S
C320 C329 1.511 . S
C321 C320 1.376 . S
C321 C322 1.392 . S
C321 H342 0.931 . S
C322 C321 1.392 . S
C322 C323 1.361 . S
C322 C324 1.500 . S
C323 C318 1.390 . S
C323 C322 1.361 . S
C323 H341 0.931 . S
C324 C322 1.500 . S
C324 C325 1.371 . S
C324 C326 1.365 . S
C325 C324 1.371 . S
C325 C335 1.386 . S
C325 H343 0.931 . S
C326 C324 1.365 . S
C326 C327 1.409 . S
C326 H344 0.929 . S
C327 C326 1.409 . S
C327 C328 1.380 . S
C327 H345 0.930 . S
C328 C327 1.380 . S
C328 C335 1.357 . S
C329 C320 1.511 . S
C329 C330 1.341 . S
C329 C331 1.371 . S
C330 C329 1.341 . S
C330 C334 1.394 . S
C330 H346 0.930 . S
C331 C329 1.371 . S
C331 C332 1.392 . S
C331 H347 0.931 . S
C332 C331 1.392 . S
C332 C333 1.331 . S
C332 H350 0.932 . S
C333 C332 1.331 . S
C333 C334 1.336 . S
C334 C330 1.394 . S
C334 C333 1.336 . S
C334 H349 0.929 . S
C335 C325 1.386 . S
C335 C328 1.357 . S
C335 H348 0.928 . S
H336 C312 0.931 . S
H337 C314 0.930 . S
H338 C316 0.929 . S
H339 C317 0.931 . S
H340 C319 0.930 . S
H341 C323 0.931 . S
H342 C321 0.931 . S
H343 C325 0.931 . S
H344 C326 0.929 . S
H345 C327 0.930 . S
H346 C330 0.930 . S
H347 C331 0.931 . S
H348 C335 0.928 . S
H349 C334 0.929 . S
H350 C332 0.932 . S
C351 C352 1.386 . S
C351 C353 1.397 . S
C351 H375 0.931 . S
C352 C351 1.386 . S
C352 C356 1.397 . S
C353 C351 1.397 . S
C353 C354 1.384 . S
C353 H376 0.930 . S
C354 C353 1.384 . S
C354 C355 1.377 . S
C354 C357 1.481 . S
C355 C354 1.377 . S
C355 C356 1.389 . S
C355 H377 0.929 . S
C356 C352 1.397 . S
C356 C355 1.389 . S
C356 H378 0.931 . S
C357 C354 1.481 . S
C357 C358 1.387 . S
C357 C362 1.390 . S
C358 C357 1.387 . S
C358 C359 1.401 . S
C358 H379 0.930 . S
C359 C358 1.401 . S
C359 C360 1.376 . S
C359 C368 1.511 . S
C360 C359 1.376 . S
C360 C361 1.392 . S
C360 H381 0.931 . S
C361 C360 1.392 . S
C361 C362 1.361 . S
C361 C363 1.500 . S
C362 C357 1.390 . S
C362 C361 1.361 . S
C362 H380 0.931 . S
C363 C361 1.500 . S
C363 C364 1.371 . S
C363 C365 1.365 . S
C364 C363 1.371 . S
C364 C374 1.386 . S
C364 H382 0.931 . S
C365 C363 1.365 . S
C365 C366 1.409 . S
C365 H383 0.929 . S
C366 C365 1.409 . S
C366 C367 1.380 . S
C366 H384 0.930 . S
C367 C366 1.380 . S
C367 C374 1.357 . S
C368 C359 1.511 . S
C368 C369 1.341 . S
C368 C370 1.371 . S
C369 C368 1.341 . S
C369 C373 1.394 . S
C369 H385 0.930 . S
C370 C368 1.371 . S
C370 C371 1.392 . S
C370 H386 0.931 . S
C371 C370 1.392 . S
C371 C372 1.331 . S
C371 H389 0.932 . S
C372 C371 1.331 . S
C372 C373 1.336 . S
C373 C369 1.394 . S
C373 C372 1.336 . S
C373 H388 0.929 . S
C374 C364 1.386 . S
C374 C367 1.357 . S
C374 H387 0.928 . S
H375 C351 0.931 . S
H376 C353 0.930 . S
H377 C355 0.929 . S
H378 C356 0.931 . S
H379 C358 0.930 . S
H380 C362 0.931 . S
H381 C360 0.931 . S
H382 C364 0.931 . S
H383 C365 0.929 . S
H384 C366 0.930 . S
H385 C369 0.930 . S
H386 C370 0.931 . S
H387 C374 0.928 . S
H388 C373 0.929 . S
H389 C371 0.932 . S
C390 C391 1.386 . S
C390 C392 1.397 . S
C390 H414 0.931 . S
C391 C390 1.386 . S
C391 C395 1.397 . S
C392 C390 1.397 . S
C392 C393 1.384 . S
C392 H415 0.930 . S
C393 C392 1.384 . S
C393 C394 1.377 . S
C393 C396 1.481 . S
C394 C393 1.377 . S
C394 C395 1.389 . S
C394 H416 0.929 . S
C395 C391 1.397 . S
C395 C394 1.389 . S
C395 H417 0.931 . S
C396 C393 1.481 . S
C396 C397 1.387 . S
C396 C401 1.390 . S
C397 C396 1.387 . S
C397 C398 1.401 . S
C397 H418 0.930 . S
C398 C397 1.401 . S
C398 C399 1.376 . S
C398 C407 1.511 . S
C399 C398 1.376 . S
C399 C400 1.392 . S
C399 H420 0.931 . S
C400 C399 1.392 . S
C400 C401 1.361 . S
C400 C402 1.500 . S
C401 C396 1.390 . S
C401 C400 1.361 . S
C401 H419 0.931 . S
C402 C400 1.500 . S
C402 C403 1.371 . S
C402 C404 1.365 . S
C403 C402 1.371 . S
C403 C413 1.386 . S
C403 H421 0.931 . S
C404 C402 1.365 . S
C404 C405 1.409 . S
C404 H422 0.929 . S
C405 C404 1.409 . S
C405 C406 1.380 . S
C405 H423 0.930 . S
C406 C405 1.380 . S
C406 C413 1.357 . S
C407 C398 1.511 . S
C407 C408 1.341 . S
C407 C409 1.371 . S
C408 C407 1.341 . S
C408 C412 1.394 . S
C408 H424 0.930 . S
C409 C407 1.371 . S
C409 C410 1.392 . S
C409 H425 0.931 . S
C410 C409 1.392 . S
C410 C411 1.331 . S
C410 H428 0.932 . S
C411 C410 1.331 . S
C411 C412 1.336 . S
C412 C408 1.394 . S
C412 C411 1.336 . S
C412 H427 0.929 . S
C413 C403 1.386 . S
C413 C406 1.357 . S
C413 H426 0.928 . S
H414 C390 0.931 . S
H415 C392 0.930 . S
H416 C394 0.929 . S
H417 C395 0.931 . S
H418 C397 0.930 . S
H419 C401 0.931 . S
H420 C399 0.931 . S
H421 C403 0.931 . S
H422 C404 0.929 . S
H423 C405 0.930 . S
H424 C408 0.930 . S
H425 C409 0.931 . S
H426 C413 0.928 . S
H427 C412 0.929 . S
H428 C410 0.932 . S
C429 C430 1.386 . S
C429 C431 1.397 . S
C429 H453 0.931 . S
C430 C429 1.386 . S
C430 C434 1.397 . S
C431 C429 1.397 . S
C431 C432 1.384 . S
C431 H454 0.930 . S
C432 C431 1.384 . S
C432 C433 1.377 . S
C432 C435 1.481 . S
C433 C432 1.377 . S
C433 C434 1.389 . S
C433 H455 0.929 . S
C434 C430 1.397 . S
C434 C433 1.389 . S
C434 H456 0.931 . S
C435 C432 1.481 . S
C435 C436 1.387 . S
C435 C440 1.390 . S
C436 C435 1.387 . S
C436 C437 1.401 . S
C436 H457 0.930 . S
C437 C436 1.401 . S
C437 C438 1.376 . S
C437 C446 1.511 . S
C438 C437 1.376 . S
C438 C439 1.392 . S
C438 H459 0.931 . S
C439 C438 1.392 . S
C439 C440 1.361 . S
C439 C441 1.500 . S
C440 C435 1.390 . S
C440 C439 1.361 . S
C440 H458 0.931 . S
C441 C439 1.500 . S
C441 C442 1.371 . S
C441 C443 1.365 . S
C442 C441 1.371 . S
C442 C452 1.386 . S
C442 H460 0.931 . S
C443 C441 1.365 . S
C443 C444 1.409 . S
C443 H461 0.929 . S
C444 C443 1.409 . S
C444 C445 1.380 . S
C444 H462 0.930 . S
C445 C444 1.380 . S
C445 C452 1.357 . S
C446 C437 1.511 . S
C446 C447 1.341 . S
C446 C448 1.371 . S
C447 C446 1.341 . S
C447 C451 1.394 . S
C447 H463 0.930 . S
C448 C446 1.371 . S
C448 C449 1.392 . S
C448 H464 0.931 . S
C449 C448 1.392 . S
C449 C450 1.331 . S
C449 H467 0.932 . S
C450 C449 1.331 . S
C450 C451 1.336 . S
C451 C447 1.394 . S
C451 C450 1.336 . S
C451 H466 0.929 . S
C452 C442 1.386 . S
C452 C445 1.357 . S
C452 H465 0.928 . S
H453 C429 0.931 . S
H454 C431 0.930 . S
H455 C433 0.929 . S
H456 C434 0.931 . S
H457 C436 0.930 . S
H458 C440 0.931 . S
H459 C438 0.931 . S
H460 C442 0.931 . S
H461 C443 0.929 . S
H462 C444 0.930 . S
H463 C447 0.930 . S
H464 C448 0.931 . S
H465 C452 0.928 . S
H466 C451 0.929 . S
H467 C449 0.932 . S
C468 C469 1.386 . S
C468 C470 1.397 . S
C468 H492 0.931 . S
C469 C468 1.386 . S
C469 C473 1.397 . S
C470 C468 1.397 . S
C470 C471 1.384 . S
C470 H493 0.930 . S
C471 C470 1.384 . S
C471 C472 1.377 . S
C471 C474 1.481 . S
C472 C471 1.377 . S
C472 C473 1.389 . S
C472 H494 0.929 . S
C473 C469 1.397 . S
C473 C472 1.389 . S
C473 H495 0.931 . S
C474 C471 1.481 . S
C474 C475 1.387 . S
C474 C479 1.390 . S
C475 C474 1.387 . S
C475 C476 1.401 . S
C475 H496 0.930 . S
C476 C475 1.401 . S
C476 C477 1.376 . S
C476 C485 1.511 . S
C477 C476 1.376 . S
C477 C478 1.392 . S
C477 H498 0.931 . S
C478 C477 1.392 . S
C478 C479 1.361 . S
C478 C480 1.500 . S
C479 C474 1.390 . S
C479 C478 1.361 . S
C479 H497 0.931 . S
C480 C478 1.500 . S
C480 C481 1.371 . S
C480 C482 1.365 . S
C481 C480 1.371 . S
C481 C491 1.386 . S
C481 H499 0.931 . S
C482 C480 1.365 . S
C482 C483 1.409 . S
C482 H500 0.929 . S
C483 C482 1.409 . S
C483 C484 1.380 . S
C483 H501 0.930 . S
C484 C483 1.380 . S
C484 C491 1.357 . S
C485 C476 1.511 . S
C485 C486 1.341 . S
C485 C487 1.371 . S
C486 C485 1.341 . S
C486 C490 1.394 . S
C486 H502 0.930 . S
C487 C485 1.371 . S
C487 C488 1.392 . S
C487 H503 0.931 . S
C488 C487 1.392 . S
C488 C489 1.331 . S
C488 H506 0.932 . S
C489 C488 1.331 . S
C489 C490 1.336 . S
C490 C486 1.394 . S
C490 C489 1.336 . S
C490 H505 0.929 . S
C491 C481 1.386 . S
C491 C484 1.357 . S
C491 H504 0.928 . S
H492 C468 0.931 . S
H493 C470 0.930 . S
H494 C472 0.929 . S
H495 C473 0.931 . S
H496 C475 0.930 . S
H497 C479 0.931 . S
H498 C477 0.931 . S
H499 C481 0.931 . S
H500 C482 0.929 . S
H501 C483 0.930 . S
H502 C486 0.930 . S
H503 C487 0.931 . S
H504 C491 0.928 . S
H505 C490 0.929 . S
H506 C488 0.932 . S
C507 C508 1.386 . S
C507 C509 1.397 . S
C507 H531 0.931 . S
C508 C507 1.386 . S
C508 C512 1.397 . S
C509 C507 1.397 . S
C509 C510 1.384 . S
C509 H532 0.930 . S
C510 C509 1.384 . S
C510 C511 1.377 . S
C510 C513 1.481 . S
C511 C510 1.377 . S
C511 C512 1.389 . S
C511 H533 0.929 . S
C512 C508 1.397 . S
C512 C511 1.389 . S
C512 H534 0.931 . S
C513 C510 1.481 . S
C513 C514 1.387 . S
C513 C518 1.390 . S
C514 C513 1.387 . S
C514 C515 1.401 . S
C514 H535 0.930 . S
C515 C514 1.401 . S
C515 C516 1.376 . S
C515 C524 1.511 . S
C516 C515 1.376 . S
C516 C517 1.392 . S
C516 H537 0.931 . S
C517 C516 1.392 . S
C517 C518 1.361 . S
C517 C519 1.500 . S
C518 C513 1.390 . S
C518 C517 1.361 . S
C518 H536 0.931 . S
C519 C517 1.500 . S
C519 C520 1.371 . S
C519 C521 1.365 . S
C520 C519 1.371 . S
C520 C530 1.386 . S
C520 H538 0.931 . S
C521 C519 1.365 . S
C521 C522 1.409 . S
C521 H539 0.929 . S
C522 C521 1.409 . S
C522 C523 1.380 . S
C522 H540 0.930 . S
C523 C522 1.380 . S
C523 C530 1.357 . S
C524 C515 1.511 . S
C524 C525 1.341 . S
C524 C526 1.371 . S
C525 C524 1.341 . S
C525 C529 1.394 . S
C525 H541 0.930 . S
C526 C524 1.371 . S
C526 C527 1.392 . S
C526 H542 0.931 . S
C527 C526 1.392 . S
C527 C528 1.331 . S
C527 H545 0.932 . S
C528 C527 1.331 . S
C528 C529 1.336 . S
C529 C525 1.394 . S
C529 C528 1.336 . S
C529 H544 0.929 . S
C530 C520 1.386 . S
C530 C523 1.357 . S
C530 H543 0.928 . S
H531 C507 0.931 . S
H532 C509 0.930 . S
H533 C511 0.929 . S
H534 C512 0.931 . S
H535 C514 0.930 . S
H536 C518 0.931 . S
H537 C516 0.931 . S
H538 C520 0.931 . S
H539 C521 0.929 . S
H540 C522 0.930 . S
H541 C525 0.930 . S
H542 C526 0.931 . S
H543 C530 0.928 . S
H544 C529 0.929 . S
H545 C527 0.932 . S
C546 C547 1.386 . S
C546 C548 1.397 . S
C546 H570 0.931 . S
C547 C546 1.386 . S
C547 C551 1.397 . S
C548 C546 1.397 . S
C548 C549 1.384 . S
C548 H571 0.930 . S
C549 C548 1.384 . S
C549 C550 1.377 . S
C549 C552 1.481 . S
C550 C549 1.377 . S
C550 C551 1.389 . S
C550 H572 0.929 . S
C551 C547 1.397 . S
C551 C550 1.389 . S
C551 H573 0.931 . S
C552 C549 1.481 . S
C552 C553 1.387 . S
C552 C557 1.390 . S
C553 C552 1.387 . S
C553 C554 1.401 . S
C553 H574 0.930 . S
C554 C553 1.401 . S
C554 C555 1.376 . S
C554 C563 1.511 . S
C555 C554 1.376 . S
C555 C556 1.392 . S
C555 H576 0.931 . S
C556 C555 1.392 . S
C556 C557 1.361 . S
C556 C558 1.500 . S
C557 C552 1.390 . S
C557 C556 1.361 . S
C557 H575 0.931 . S
C558 C556 1.500 . S
C558 C559 1.371 . S
C558 C560 1.365 . S
C559 C558 1.371 . S
C559 C569 1.386 . S
C559 H577 0.931 . S
C560 C558 1.365 . S
C560 C561 1.409 . S
C560 H578 0.929 . S
C561 C560 1.409 . S
C561 C562 1.380 . S
C561 H579 0.930 . S
C562 C561 1.380 . S
C562 C569 1.357 . S
C563 C554 1.511 . S
C563 C564 1.341 . S
C563 C565 1.371 . S
C564 C563 1.341 . S
C564 C568 1.394 . S
C564 H580 0.930 . S
C565 C563 1.371 . S
C565 C566 1.392 . S
C565 H581 0.931 . S
C566 C565 1.392 . S
C566 C567 1.331 . S
C566 H584 0.932 . S
C567 C566 1.331 . S
C567 C568 1.336 . S
C568 C564 1.394 . S
C568 C567 1.336 . S
C568 H583 0.929 . S
C569 C559 1.386 . S
C569 C562 1.357 . S
C569 H582 0.928 . S
H570 C546 0.931 . S
H571 C548 0.930 . S
H572 C550 0.929 . S
H573 C551 0.931 . S
H574 C553 0.930 . S
H575 C557 0.931 . S
H576 C555 0.931 . S
H577 C559 0.931 . S
H578 C560 0.929 . S
H579 C561 0.930 . S
H580 C564 0.930 . S
H581 C565 0.931 . S
H582 C569 0.928 . S
H583 C568 0.929 . S
H584 C566 0.932 . S
C585 C586 1.386 . S
C585 C587 1.397 . S
C585 H609 0.931 . S
C586 C585 1.386 . S
C586 C590 1.397 . S
C587 C585 1.397 . S
C587 C588 1.384 . S
C587 H610 0.930 . S
C588 C587 1.384 . S
C588 C589 1.377 . S
C588 C591 1.481 . S
C589 C588 1.377 . S
C589 C590 1.389 . S
C589 H611 0.929 . S
C590 C586 1.397 . S
C590 C589 1.389 . S
C590 H612 0.931 . S
C591 C588 1.481 . S
C591 C592 1.387 . S
C591 C596 1.390 . S
C592 C591 1.387 . S
C592 C593 1.401 . S
C592 H613 0.930 . S
C593 C592 1.401 . S
C593 C594 1.376 . S
C593 C602 1.511 . S
C594 C593 1.376 . S
C594 C595 1.392 . S
C594 H615 0.931 . S
C595 C594 1.392 . S
C595 C596 1.361 . S
C595 C597 1.500 . S
C596 C591 1.390 . S
C596 C595 1.361 . S
C596 H614 0.931 . S
C597 C595 1.500 . S
C597 C598 1.371 . S
C597 C599 1.365 . S
C598 C597 1.371 . S
C598 C608 1.386 . S
C598 H616 0.931 . S
C599 C597 1.365 . S
C599 C600 1.409 . S
C599 H617 0.929 . S
C600 C599 1.409 . S
C600 C601 1.380 . S
C600 H618 0.930 . S
C601 C600 1.380 . S
C601 C608 1.357 . S
C602 C593 1.511 . S
C602 C603 1.341 . S
C602 C604 1.371 . S
C603 C602 1.341 . S
C603 C607 1.394 . S
C603 H619 0.930 . S
C604 C602 1.371 . S
C604 C605 1.392 . S
C604 H620 0.931 . S
C605 C604 1.392 . S
C605 C606 1.331 . S
C605 H623 0.932 . S
C606 C605 1.331 . S
C606 C607 1.336 . S
C607 C603 1.394 . S
C607 C606 1.336 . S
C607 H622 0.929 . S
C608 C598 1.386 . S
C608 C601 1.357 . S
C608 H621 0.928 . S
H609 C585 0.931 . S
H610 C587 0.930 . S
H611 C589 0.929 . S
H612 C590 0.931 . S
H613 C592 0.930 . S
H614 C596 0.931 . S
H615 C594 0.931 . S
H616 C598 0.931 . S
H617 C599 0.929 . S
H618 C600 0.930 . S
H619 C603 0.930 . S
H620 C604 0.931 . S
H621 C608 0.928 . S
H622 C607 0.929 . S
H623 C605 0.932 . S
C624 C625 1.386 . S
C624 C626 1.397 . S
C624 H648 0.931 . S
C625 C624 1.386 . S
C625 C629 1.397 . S
C626 C624 1.397 . S
C626 C627 1.384 . S
C626 H649 0.930 . S
C627 C626 1.384 . S
C627 C628 1.377 . S
C627 C630 1.481 . S
C628 C627 1.377 . S
C628 C629 1.389 . S
C628 H650 0.929 . S
C629 C625 1.397 . S
C629 C628 1.389 . S
C629 H651 0.931 . S
C630 C627 1.481 . S
C630 C631 1.387 . S
C630 C635 1.390 . S
C631 C630 1.387 . S
C631 C632 1.401 . S
C631 H652 0.930 . S
C632 C631 1.401 . S
C632 C633 1.376 . S
C632 C641 1.511 . S
C633 C632 1.376 . S
C633 C634 1.392 . S
C633 H654 0.931 . S
C634 C633 1.392 . S
C634 C635 1.361 . S
C634 C636 1.500 . S
C635 C630 1.390 . S
C635 C634 1.361 . S
C635 H653 0.931 . S
C636 C634 1.500 . S
C636 C637 1.371 . S
C636 C638 1.365 . S
C637 C636 1.371 . S
C637 C647 1.386 . S
C637 H655 0.931 . S
C638 C636 1.365 . S
C638 C639 1.409 . S
C638 H656 0.929 . S
C639 C638 1.409 . S
C639 C640 1.380 . S
C639 H657 0.930 . S
C640 C639 1.380 . S
C640 C647 1.357 . S
C641 C632 1.511 . S
C641 C642 1.341 . S
C641 C643 1.371 . S
C642 C641 1.341 . S
C642 C646 1.394 . S
C642 H658 0.930 . S
C643 C641 1.371 . S
C643 C644 1.392 . S
C643 H659 0.931 . S
C644 C643 1.392 . S
C644 C645 1.331 . S
C644 H662 0.932 . S
C645 C644 1.331 . S
C645 C646 1.336 . S
C646 C642 1.394 . S
C646 C645 1.336 . S
C646 H661 0.929 . S
C647 C637 1.386 . S
C647 C640 1.357 . S
C647 H660 0.928 . S
H648 C624 0.931 . S
H649 C626 0.930 . S
H650 C628 0.929 . S
H651 C629 0.931 . S
H652 C631 0.930 . S
H653 C635 0.931 . S
H654 C633 0.931 . S
H655 C637 0.931 . S
H656 C638 0.929 . S
H657 C639 0.930 . S
H658 C642 0.930 . S
H659 C643 0.931 . S
H660 C647 0.928 . S
H661 C646 0.929 . S
H662 C644 0.932 . S
C663 C664 1.386 . S
C663 C665 1.397 . S
C663 H687 0.931 . S
C664 C663 1.386 . S
C664 C668 1.397 . S
C665 C663 1.397 . S
C665 C666 1.384 . S
C665 H688 0.930 . S
C666 C665 1.384 . S
C666 C667 1.377 . S
C666 C669 1.481 . S
C667 C666 1.377 . S
C667 C668 1.389 . S
C667 H689 0.929 . S
C668 C664 1.397 . S
C668 C667 1.389 . S
C668 H690 0.931 . S
C669 C666 1.481 . S
C669 C670 1.387 . S
C669 C674 1.390 . S
C670 C669 1.387 . S
C670 C671 1.401 . S
C670 H691 0.930 . S
C671 C670 1.401 . S
C671 C672 1.376 . S
C671 C680 1.511 . S
C672 C671 1.376 . S
C672 C673 1.392 . S
C672 H693 0.931 . S
C673 C672 1.392 . S
C673 C674 1.361 . S
C673 C675 1.500 . S
C674 C669 1.390 . S
C674 C673 1.361 . S
C674 H692 0.931 . S
C675 C673 1.500 . S
C675 C676 1.371 . S
C675 C677 1.365 . S
C676 C675 1.371 . S
C676 C686 1.386 . S
C676 H694 0.931 . S
C677 C675 1.365 . S
C677 C678 1.409 . S
C677 H695 0.929 . S
C678 C677 1.409 . S
C678 C679 1.380 . S
C678 H696 0.930 . S
C679 C678 1.380 . S
C679 C686 1.357 . S
C680 C671 1.511 . S
C680 C681 1.341 . S
C680 C682 1.371 . S
C681 C680 1.341 . S
C681 C685 1.394 . S
C681 H697 0.930 . S
C682 C680 1.371 . S
C682 C683 1.392 . S
C682 H698 0.931 . S
C683 C682 1.392 . S
C683 C684 1.331 . S
C683 H701 0.932 . S
C684 C683 1.331 . S
C684 C685 1.336 . S
C685 C681 1.394 . S
C685 C684 1.336 . S
C685 H700 0.929 . S
C686 C676 1.386 . S
C686 C679 1.357 . S
C686 H699 0.928 . S
H687 C663 0.931 . S
H688 C665 0.930 . S
H689 C667 0.929 . S
H690 C668 0.931 . S
H691 C670 0.930 . S
H692 C674 0.931 . S
H693 C672 0.931 . S
H694 C676 0.931 . S
H695 C677 0.929 . S
H696 C678 0.930 . S
H697 C681 0.930 . S
H698 C682 0.931 . S
H699 C686 0.928 . S
H700 C685 0.929 . S
H701 C683 0.932 . S
Gd702 N733 2.661 . S
Gd702 N739 2.601 . S
Gd702 O746 2.545 . S
Gd702 O747 2.606 1_545 S
Gd702 O749 2.429 . S
Gd702 O750 2.545 1_545 S
Gd702 O751 2.412 . S
Gd702 O753 2.362 1_554 S
Gd702 O754 2.324 1_545 S
Gd702 C761 2.828 . S
Gd703 N712 2.661 . S
Gd703 N716 2.601 . S
Gd703 O747 2.362 1_556 S
Gd703 O748 2.324 1_565 S
Gd703 O752 2.545 . S
Gd703 O753 2.606 1_565 S
Gd703 O755 2.429 . S
Gd703 O756 2.545 1_565 S
Gd703 O757 2.412 . S
Gd703 C770 2.828 . S
C704 C707 1.417 . S
C704 C709 1.431 . S
C704 C710 1.412 . S
C705 C708 1.437 . S
C705 C709 1.317 . S
C705 H724 0.929 . S
C706 C707 1.426 . S
C706 C708 1.413 . S
C706 N716 1.359 . S
C707 C704 1.417 . S
C707 C706 1.426 . S
C707 N712 1.350 . S
C708 C705 1.437 . S
C708 C706 1.413 . S
C708 C718 1.391 . S
C709 C704 1.431 . S
C709 C705 1.317 . S
C709 H720 0.930 . S
C710 C704 1.412 . S
C710 C711 1.355 . S
C710 H722 0.930 . S
C711 C710 1.355 . S
C711 C713 1.402 . S
C711 H723 0.930 . S
N712 Gd703 2.661 . S
N712 C707 1.350 . S
N712 C713 1.307 . S
C713 C711 1.402 . S
C713 N712 1.307 . S
C713 H714 0.930 . S
H714 C713 0.930 . S
C715 N716 1.334 . S
C715 C717 1.394 . S
C715 H719 0.930 . S
N716 Gd703 2.601 . S
N716 C706 1.359 . S
N716 C715 1.334 . S
C717 C715 1.394 . S
C717 C718 1.359 . S
C717 H729 0.930 . S
C718 C708 1.391 . S
C718 C717 1.359 . S
C718 H730 0.929 . S
H719 C715 0.930 . S
H720 C709 0.930 . S
H721 C738 0.930 . S
H722 C710 0.930 . S
H723 C711 0.930 . S
H724 C705 0.929 . S
H725 C743 0.930 . S
H726 C734 0.930 . S
H727 C735 0.930 . S
H728 C759 0.929 . S
H729 C717 0.930 . S
H730 C718 0.929 . S
H731 C760 0.930 . S
H732 C741 0.930 . S
N733 Gd702 2.661 . S
N733 C737 1.350 . S
N733 C738 1.307 . S
C734 H726 0.930 . S
C734 C735 1.355 . S
C734 C736 1.412 . S
C735 H727 0.930 . S
C735 C734 1.355 . S
C735 C738 1.402 . S
C736 C734 1.412 . S
C736 C737 1.417 . S
C736 C760 1.431 . S
C737 N733 1.350 . S
C737 C736 1.417 . S
C737 C740 1.426 . S
C738 H721 0.930 . S
C738 N733 1.307 . S
C738 C735 1.402 . S
N739 Gd702 2.601 . S
N739 C740 1.359 . S
N739 C743 1.334 . S
C740 C737 1.426 . S
C740 N739 1.359 . S
C740 C744 1.413 . S
C741 H732 0.930 . S
C741 C742 1.359 . S
C741 C743 1.394 . S
C742 C741 1.359 . S
C742 C744 1.391 . S
C742 H745 0.929 . S
C743 H725 0.930 . S
C743 N739 1.334 . S
C743 C741 1.394 . S
C744 C740 1.413 . S
C744 C742 1.391 . S
C744 C759 1.437 . S
H745 C742 0.929 . S
O746 Gd702 2.545 . S
O746 C761 1.258 . S
O747 Gd702 2.606 1_565 S
O747 Gd703 2.362 1_554 S
O747 C758 1.284 . S
O748 Gd703 2.324 1_545 S
O748 C768 1.254 . S
O749 Gd702 2.429 . S
O749 C768 1.268 1_554 S
O750 Gd702 2.545 1_565 S
O750 C758 1.250 . S
O751 Gd702 2.412 . S
O751 C761 1.252 . S
O752 Gd703 2.545 . S
O752 C770 1.258 . S
O753 Gd702 2.362 1_556 S
O753 Gd703 2.606 1_545 S
O753 C769 1.284 . S
O754 Gd702 2.324 1_565 S
O754 C777 1.254 . S
O755 Gd703 2.429 . S
O755 C777 1.268 1_556 S
O756 Gd703 2.545 1_545 S
O756 C769 1.250 . S
O757 Gd703 2.412 . S
O757 C770 1.252 . S
C758 O747 1.284 . S
C758 O750 1.250 . S
C759 H728 0.929 . S
C759 C744 1.437 . S
C759 C760 1.317 . S
C760 H731 0.930 . S
C760 C736 1.431 . S
C760 C759 1.317 . S
C761 Gd702 2.828 . S
C761 O746 1.258 . S
C761 O751 1.252 . S
C761 C762 1.497 . S
C762 C761 1.497 . S
C762 C763 1.395 . S
C762 C764 1.380 1_545 S
C763 C762 1.395 . S
C763 C766 1.398 . S
C763 H778 0.930 . S
C764 C762 1.380 1_565 S
C764 C765 1.391 . S
C764 H779 0.930 . S
C765 C764 1.391 . S
C765 C767 1.387 1_565 S
C766 C763 1.398 . S
C766 C767 1.380 . S
C766 H780 0.930 . S
C767 C765 1.387 1_545 S
C767 C766 1.380 . S
C767 H781 0.930 . S
C768 O748 1.254 . S
C768 O749 1.268 1_556 S
C769 O753 1.284 . S
C769 O756 1.250 . S
C770 Gd703 2.828 . S
C770 O752 1.258 . S
C770 O757 1.252 . S
C770 C771 1.497 . S
C771 C770 1.497 . S
C771 C772 1.395 . S
C771 C773 1.380 1_565 S
C772 C771 1.395 . S
C772 C775 1.398 . S
C772 H782 0.930 . S
C773 C771 1.380 1_545 S
C773 C774 1.391 . S
C773 H783 0.930 . S
C774 C773 1.391 . S
C774 C776 1.387 1_545 S
C775 C772 1.398 . S
C775 C776 1.380 . S
C775 H784 0.930 . S
C776 C774 1.387 1_565 S
C776 C775 1.380 . S
C776 H785 0.930 . S
C777 O754 1.254 . S
C777 O755 1.268 1_554 S
H778 C763 0.930 . S
H779 C764 0.930 . S
H780 C766 0.930 . S
H781 C767 0.930 . S
H782 C772 0.930 . S
H783 C773 0.930 . S
H784 C775 0.930 . S
H785 C776 0.930 . S
Gd786 N817 2.661 . S
Gd786 N823 2.601 . S
Gd786 O830 2.545 . S
Gd786 O831 2.606 1_655 S
Gd786 O833 2.429 . S
Gd786 O834 2.545 1_655 S
Gd786 O835 2.412 . S
Gd786 O837 2.362 1_554 S
Gd786 O838 2.324 1_655 S
Gd786 C845 2.828 . S
Gd787 N796 2.661 . S
Gd787 N800 2.601 . S
Gd787 O831 2.362 1_556 S
Gd787 O832 2.324 1_455 S
Gd787 O836 2.545 . S
Gd787 O837 2.606 1_455 S
Gd787 O839 2.429 . S
Gd787 O840 2.545 1_455 S
Gd787 O841 2.412 . S
Gd787 C854 2.828 . S
C788 C791 1.417 . S
C788 C793 1.431 . S
C788 C794 1.412 . S
C789 C792 1.437 . S
C789 C793 1.317 . S
C789 H808 0.929 . S
C790 C791 1.426 . S
C790 C792 1.413 . S
C790 N800 1.359 . S
C791 C788 1.417 . S
C791 C790 1.426 . S
C791 N796 1.350 . S
C792 C789 1.437 . S
C792 C790 1.413 . S
C792 C802 1.391 . S
C793 C788 1.431 . S
C793 C789 1.317 . S
C793 H804 0.930 . S
C794 C788 1.412 . S
C794 C795 1.355 . S
C794 H806 0.930 . S
C795 C794 1.355 . S
C795 C797 1.402 . S
C795 H807 0.930 . S
N796 Gd787 2.661 . S
N796 C791 1.350 . S
N796 C797 1.307 . S
C797 C795 1.402 . S
C797 N796 1.307 . S
C797 H798 0.930 . S
H798 C797 0.930 . S
C799 N800 1.334 . S
C799 C801 1.394 . S
C799 H803 0.930 . S
N800 Gd787 2.601 . S
N800 C790 1.359 . S
N800 C799 1.334 . S
C801 C799 1.394 . S
C801 C802 1.359 . S
C801 H813 0.930 . S
C802 C792 1.391 . S
C802 C801 1.359 . S
C802 H814 0.929 . S
H803 C799 0.930 . S
H804 C793 0.930 . S
H805 C822 0.930 . S
H806 C794 0.930 . S
H807 C795 0.930 . S
H808 C789 0.929 . S
H809 C827 0.930 . S
H810 C818 0.930 . S
H811 C819 0.930 . S
H812 C843 0.929 . S
H813 C801 0.930 . S
H814 C802 0.929 . S
H815 C844 0.930 . S
H816 C825 0.930 . S
N817 Gd786 2.661 . S
N817 C821 1.350 . S
N817 C822 1.307 . S
C818 H810 0.930 . S
C818 C819 1.355 . S
C818 C820 1.412 . S
C819 H811 0.930 . S
C819 C818 1.355 . S
C819 C822 1.402 . S
C820 C818 1.412 . S
C820 C821 1.417 . S
C820 C844 1.431 . S
C821 N817 1.350 . S
C821 C820 1.417 . S
C821 C824 1.426 . S
C822 H805 0.930 . S
C822 N817 1.307 . S
C822 C819 1.402 . S
N823 Gd786 2.601 . S
N823 C824 1.359 . S
N823 C827 1.334 . S
C824 C821 1.426 . S
C824 N823 1.359 . S
C824 C828 1.413 . S
C825 H816 0.930 . S
C825 C826 1.359 . S
C825 C827 1.394 . S
C826 C825 1.359 . S
C826 C828 1.391 . S
C826 H829 0.929 . S
C827 H809 0.930 . S
C827 N823 1.334 . S
C827 C825 1.394 . S
C828 C824 1.413 . S
C828 C826 1.391 . S
C828 C843 1.437 . S
H829 C826 0.929 . S
O830 Gd786 2.545 . S
O830 C845 1.258 . S
O831 Gd786 2.606 1_455 S
O831 Gd787 2.362 1_554 S
O831 C842 1.284 . S
O832 Gd787 2.324 1_655 S
O832 C852 1.254 . S
O833 Gd786 2.429 . S
O833 C852 1.268 1_554 S
O834 Gd786 2.545 1_455 S
O834 C842 1.250 . S
O835 Gd786 2.412 . S
O835 C845 1.252 . S
O836 Gd787 2.545 . S
O836 C854 1.258 . S
O837 Gd786 2.362 1_556 S
O837 Gd787 2.606 1_655 S
O837 C853 1.284 . S
O838 Gd786 2.324 1_455 S
O838 C861 1.254 . S
O839 Gd787 2.429 . S
O839 C861 1.268 1_556 S
O840 Gd787 2.545 1_655 S
O840 C853 1.250 . S
O841 Gd787 2.412 . S
O841 C854 1.252 . S
C842 O831 1.284 . S
C842 O834 1.250 . S
C843 H812 0.929 . S
C843 C828 1.437 . S
C843 C844 1.317 . S
C844 H815 0.930 . S
C844 C820 1.431 . S
C844 C843 1.317 . S
C845 Gd786 2.828 . S
C845 O830 1.258 . S
C845 O835 1.252 . S
C845 C846 1.497 . S
C846 C845 1.497 . S
C846 C847 1.395 . S
C846 C848 1.380 1_655 S
C847 C846 1.395 . S
C847 C850 1.398 . S
C847 H862 0.930 . S
C848 C846 1.380 1_455 S
C848 C849 1.391 . S
C848 H863 0.930 . S
C849 C848 1.391 . S
C849 C851 1.387 1_455 S
C850 C847 1.398 . S
C850 C851 1.380 . S
C850 H864 0.930 . S
C851 C849 1.387 1_655 S
C851 C850 1.380 . S
C851 H865 0.930 . S
C852 O832 1.254 . S
C852 O833 1.268 1_556 S
C853 O837 1.284 . S
C853 O840 1.250 . S
C854 Gd787 2.828 . S
C854 O836 1.258 . S
C854 O841 1.252 . S
C854 C855 1.497 . S
C855 C854 1.497 . S
C855 C856 1.395 . S
C855 C857 1.380 1_455 S
C856 C855 1.395 . S
C856 C859 1.398 . S
C856 H866 0.930 . S
C857 C855 1.380 1_655 S
C857 C858 1.391 . S
C857 H867 0.930 . S
C858 C857 1.391 . S
C858 C860 1.387 1_655 S
C859 C856 1.398 . S
C859 C860 1.380 . S
C859 H868 0.930 . S
C860 C858 1.387 1_455 S
C860 C859 1.380 . S
C860 H869 0.930 . S
C861 O838 1.254 . S
C861 O839 1.268 1_554 S
H862 C847 0.930 . S
H863 C848 0.930 . S
H864 C850 0.930 . S
H865 C851 0.930 . S
H866 C856 0.930 . S
H867 C857 0.930 . S
H868 C859 0.930 . S
H869 C860 0.930 . S
Gd870 N901 2.661 . S
Gd870 N907 2.601 . S
Gd870 O914 2.545 . S
Gd870 O915 2.606 . S
Gd870 O917 2.429 . S
Gd870 O918 2.545 . S
Gd870 O919 2.412 . S
Gd870 O921 2.362 1_556 S
Gd870 O922 2.324 . S
Gd870 C929 2.828 . S
Gd871 N880 2.661 . S
Gd871 N884 2.601 . S
Gd871 O915 2.362 1_554 S
Gd871 O916 2.324 . S
Gd871 O920 2.545 . S
Gd871 O921 2.606 . S
Gd871 O923 2.429 . S
Gd871 O924 2.545 . S
Gd871 O925 2.412 . S
Gd871 C938 2.828 . S
C872 C875 1.417 . S
C872 C877 1.431 . S
C872 C878 1.412 . S
C873 C876 1.437 . S
C873 C877 1.317 . S
C873 H892 0.929 . S
C874 C875 1.426 . S
C874 C876 1.413 . S
C874 N884 1.359 . S
C875 C872 1.417 . S
C875 C874 1.426 . S
C875 N880 1.350 . S
C876 C873 1.437 . S
C876 C874 1.413 . S
C876 C886 1.391 . S
C877 C872 1.431 . S
C877 C873 1.317 . S
C877 H888 0.930 . S
C878 C872 1.412 . S
C878 C879 1.355 . S
C878 H890 0.930 . S
C879 C878 1.355 . S
C879 C881 1.402 . S
C879 H891 0.930 . S
N880 Gd871 2.661 . S
N880 C875 1.350 . S
N880 C881 1.307 . S
C881 C879 1.402 . S
C881 N880 1.307 . S
C881 H882 0.930 . S
H882 C881 0.930 . S
C883 N884 1.334 . S
C883 C885 1.394 . S
C883 H887 0.930 . S
N884 Gd871 2.601 . S
N884 C874 1.359 . S
N884 C883 1.334 . S
C885 C883 1.394 . S
C885 C886 1.359 . S
C885 H897 0.930 . S
C886 C876 1.391 . S
C886 C885 1.359 . S
C886 H898 0.929 . S
H887 C883 0.930 . S
H888 C877 0.930 . S
H889 C906 0.930 . S
H890 C878 0.930 . S
H891 C879 0.930 . S
H892 C873 0.929 . S
H893 C911 0.930 . S
H894 C902 0.930 . S
H895 C903 0.930 . S
H896 C927 0.929 . S
H897 C885 0.930 . S
H898 C886 0.929 . S
H899 C928 0.930 . S
H900 C909 0.930 . S
N901 Gd870 2.661 . S
N901 C905 1.350 . S
N901 C906 1.307 . S
C902 H894 0.930 . S
C902 C903 1.355 . S
C902 C904 1.412 . S
C903 H895 0.930 . S
C903 C902 1.355 . S
C903 C906 1.402 . S
C904 C902 1.412 . S
C904 C905 1.417 . S
C904 C928 1.431 . S
C905 N901 1.350 . S
C905 C904 1.417 . S
C905 C908 1.426 . S
C906 H889 0.930 . S
C906 N901 1.307 . S
C906 C903 1.402 . S
N907 Gd870 2.601 . S
N907 C908 1.359 . S
N907 C911 1.334 . S
C908 C905 1.426 . S
C908 N907 1.359 . S
C908 C912 1.413 . S
C909 H900 0.930 . S
C909 C910 1.359 . S
C909 C911 1.394 . S
C910 C909 1.359 . S
C910 C912 1.391 . S
C910 H913 0.929 . S
C911 H893 0.930 . S
C911 N907 1.334 . S
C911 C909 1.394 . S
C912 C908 1.413 . S
C912 C910 1.391 . S
C912 C927 1.437 . S
H913 C910 0.929 . S
O914 Gd870 2.545 . S
O914 C929 1.258 . S
O915 Gd870 2.606 . S
O915 Gd871 2.362 1_556 S
O915 C926 1.284 . S
O916 Gd871 2.324 . S
O916 C936 1.254 . S
O917 Gd870 2.429 . S
O917 C936 1.268 1_556 S
O918 Gd870 2.545 . S
O918 C926 1.250 . S
O919 Gd870 2.412 . S
O919 C929 1.252 . S
O920 Gd871 2.545 . S
O920 C938 1.258 . S
O921 Gd870 2.362 1_554 S
O921 Gd871 2.606 . S
O921 C937 1.284 . S
O922 Gd870 2.324 . S
O922 C945 1.254 . S
O923 Gd871 2.429 . S
O923 C945 1.268 1_554 S
O924 Gd871 2.545 . S
O924 C937 1.250 . S
O925 Gd871 2.412 . S
O925 C938 1.252 . S
C926 O915 1.284 . S
C926 O918 1.250 . S
C927 H896 0.929 . S
C927 C912 1.437 . S
C927 C928 1.317 . S
C928 H899 0.930 . S
C928 C904 1.431 . S
C928 C927 1.317 . S
C929 Gd870 2.828 . S
C929 O914 1.258 . S
C929 O919 1.252 . S
C929 C930 1.497 . S
C930 C929 1.497 . S
C930 C931 1.395 . S
C930 C932 1.380 . S
C931 C930 1.395 . S
C931 C934 1.398 . S
C931 H946 0.930 . S
C932 C930 1.380 . S
C932 C933 1.391 . S
C932 H947 0.930 . S
C933 C932 1.391 . S
C933 C935 1.387 . S
C934 C931 1.398 . S
C934 C935 1.380 . S
C934 H948 0.930 . S
C935 C933 1.387 . S
C935 C934 1.380 . S
C935 H949 0.930 . S
C936 O916 1.254 . S
C936 O917 1.268 1_554 S
C937 O921 1.284 . S
C937 O924 1.250 . S
C938 Gd871 2.828 . S
C938 O920 1.258 . S
C938 O925 1.252 . S
C938 C939 1.497 . S
C939 C938 1.497 . S
C939 C940 1.395 . S
C939 C941 1.380 . S
C940 C939 1.395 . S
C940 C943 1.398 . S
C940 H950 0.930 . S
C941 C939 1.380 . S
C941 C942 1.391 . S
C941 H951 0.930 . S
C942 C941 1.391 . S
C942 C944 1.387 . S
C943 C940 1.398 . S
C943 C944 1.380 . S
C943 H952 0.930 . S
C944 C942 1.387 . S
C944 C943 1.380 . S
C944 H953 0.930 . S
C945 O922 1.254 . S
C945 O923 1.268 1_556 S
H946 C931 0.930 . S
H947 C932 0.930 . S
H948 C934 0.930 . S
H949 C935 0.930 . S
H950 C940 0.930 . S
H951 C941 0.930 . S
H952 C943 0.930 . S
H953 C944 0.930 . S
Gd954 N985 2.661 . S
Gd954 N991 2.601 . S
Gd954 O998 2.545 . S
Gd954 O999 2.606 . S
Gd954 O1001 2.429 . S
Gd954 O1002 2.545 . S
Gd954 O1003 2.412 . S
Gd954 O1005 2.362 . S
Gd954 O1006 2.324 . S
Gd954 C1013 2.828 . S
Gd955 N964 2.661 . S
Gd955 N968 2.601 . S
Gd955 O999 2.362 . S
Gd955 O1000 2.324 . S
Gd955 O1004 2.545 . S
Gd955 O1005 2.606 . S
Gd955 O1007 2.429 . S
Gd955 O1008 2.545 . S
Gd955 O1009 2.412 . S
Gd955 C1022 2.828 . S
C956 C959 1.417 . S
C956 C961 1.431 . S
C956 C962 1.412 . S
C957 C960 1.437 . S
C957 C961 1.317 . S
C957 H976 0.929 . S
C958 C959 1.426 . S
C958 C960 1.413 . S
C958 N968 1.359 . S
C959 C956 1.417 . S
C959 C958 1.426 . S
C959 N964 1.350 . S
C960 C957 1.437 . S
C960 C958 1.413 . S
C960 C970 1.391 . S
C961 C956 1.431 . S
C961 C957 1.317 . S
C961 H972 0.930 . S
C962 C956 1.412 . S
C962 C963 1.355 . S
C962 H974 0.930 . S
C963 C962 1.355 . S
C963 C965 1.402 . S
C963 H975 0.930 . S
N964 Gd955 2.661 . S
N964 C959 1.350 . S
N964 C965 1.307 . S
C965 C963 1.402 . S
C965 N964 1.307 . S
C965 H966 0.930 . S
H966 C965 0.930 . S
C967 N968 1.334 . S
C967 C969 1.394 . S
C967 H971 0.930 . S
N968 Gd955 2.601 . S
N968 C958 1.359 . S
N968 C967 1.334 . S
C969 C967 1.394 . S
C969 C970 1.359 . S
C969 H981 0.930 . S
C970 C960 1.391 . S
C970 C969 1.359 . S
C970 H982 0.929 . S
H971 C967 0.930 . S
H972 C961 0.930 . S
H973 C990 0.930 . S
H974 C962 0.930 . S
H975 C963 0.930 . S
H976 C957 0.929 . S
H977 C995 0.930 . S
H978 C986 0.930 . S
H979 C987 0.930 . S
H980 C1011 0.929 . S
H981 C969 0.930 . S
H982 C970 0.929 . S
H983 C1012 0.930 . S
H984 C993 0.930 . S
N985 Gd954 2.661 . S
N985 C989 1.350 . S
N985 C990 1.307 . S
C986 H978 0.930 . S
C986 C987 1.355 . S
C986 C988 1.412 . S
C987 H979 0.930 . S
C987 C986 1.355 . S
C987 C990 1.402 . S
C988 C986 1.412 . S
C988 C989 1.417 . S
C988 C1012 1.431 . S
C989 N985 1.350 . S
C989 C988 1.417 . S
C989 C992 1.426 . S
C990 H973 0.930 . S
C990 N985 1.307 . S
C990 C987 1.402 . S
N991 Gd954 2.601 . S
N991 C992 1.359 . S
N991 C995 1.334 . S
C992 C989 1.426 . S
C992 N991 1.359 . S
C992 C996 1.413 . S
C993 H984 0.930 . S
C993 C994 1.359 . S
C993 C995 1.394 . S
C994 C993 1.359 . S
C994 C996 1.391 . S
C994 H997 0.929 . S
C995 H977 0.930 . S
C995 N991 1.334 . S
C995 C993 1.394 . S
C996 C992 1.413 . S
C996 C994 1.391 . S
C996 C1011 1.437 . S
H997 C994 0.929 . S
O998 Gd954 2.545 . S
O998 C1013 1.258 . S
O999 Gd954 2.606 . S
O999 Gd955 2.362 . S
O999 C1010 1.284 . S
O1000 Gd955 2.324 . S
O1000 C1020 1.254 . S
O1001 Gd954 2.429 . S
O1001 C1020 1.268 . S
O1002 Gd954 2.545 . S
O1002 C1010 1.250 . S
O1003 Gd954 2.412 . S
O1003 C1013 1.252 . S
O1004 Gd955 2.545 . S
O1004 C1022 1.258 . S
O1005 Gd954 2.362 . S
O1005 Gd955 2.606 . S
O1005 C1021 1.284 . S
O1006 Gd954 2.324 . S
O1006 C1029 1.254 . S
O1007 Gd955 2.429 . S
O1007 C1029 1.268 . S
O1008 Gd955 2.545 . S
O1008 C1021 1.250 . S
O1009 Gd955 2.412 . S
O1009 C1022 1.252 . S
C1010 O999 1.284 . S
C1010 O1002 1.250 . S
C1011 H980 0.929 . S
C1011 C996 1.437 . S
C1011 C1012 1.317 . S
C1012 H983 0.930 . S
C1012 C988 1.431 . S
C1012 C1011 1.317 . S
C1013 Gd954 2.828 . S
C1013 O998 1.258 . S
C1013 O1003 1.252 . S
C1013 C1014 1.497 . S
C1014 C1013 1.497 . S
C1014 C1015 1.395 . S
C1014 C1016 1.380 . S
C1015 C1014 1.395 . S
C1015 C1018 1.398 . S
C1015 H1030 0.930 . S
C1016 C1014 1.380 . S
C1016 C1017 1.391 . S
C1016 H1031 0.930 . S
C1017 C1016 1.391 . S
C1017 C1019 1.387 . S
C1018 C1015 1.398 . S
C1018 C1019 1.380 . S
C1018 H1032 0.930 . S
C1019 C1017 1.387 . S
C1019 C1018 1.380 . S
C1019 H1033 0.930 . S
C1020 O1000 1.254 . S
C1020 O1001 1.268 . S
C1021 O1005 1.284 . S
C1021 O1008 1.250 . S
C1022 Gd955 2.828 . S
C1022 O1004 1.258 . S
C1022 O1009 1.252 . S
C1022 C1023 1.497 . S
C1023 C1022 1.497 . S
C1023 C1024 1.395 . S
C1023 C1025 1.380 . S
C1024 C1023 1.395 . S
C1024 C1027 1.398 . S
C1024 H1034 0.930 . S
C1025 C1023 1.380 . S
C1025 C1026 1.391 . S
C1025 H1035 0.930 . S
C1026 C1025 1.391 . S
C1026 C1028 1.387 . S
C1027 C1024 1.398 . S
C1027 C1028 1.380 . S
C1027 H1036 0.930 . S
C1028 C1026 1.387 . S
C1028 C1027 1.380 . S
C1028 H1037 0.930 . S
C1029 O1006 1.254 . S
C1029 O1007 1.268 . S
H1030 C1015 0.930 . S
H1031 C1016 0.930 . S
H1032 C1018 0.930 . S
H1033 C1019 0.930 . S
H1034 C1024 0.930 . S
H1035 C1025 0.930 . S
H1036 C1027 0.930 . S
H1037 C1028 0.930 . S
Gd1038 N1069 2.661 . S
Gd1038 N1075 2.601 . S
Gd1038 O1082 2.545 . S
Gd1038 O1083 2.606 . S
Gd1038 O1085 2.429 . S
Gd1038 O1086 2.545 . S
Gd1038 O1087 2.412 . S
Gd1038 O1089 2.362 . S
Gd1038 O1090 2.324 . S
Gd1038 C1097 2.828 . S
Gd1039 N1048 2.661 . S
Gd1039 N1052 2.601 . S
Gd1039 O1083 2.362 . S
Gd1039 O1084 2.324 . S
Gd1039 O1088 2.545 . S
Gd1039 O1089 2.606 . S
Gd1039 O1091 2.429 . S
Gd1039 O1092 2.545 . S
Gd1039 O1093 2.412 . S
Gd1039 C1106 2.828 . S
C1040 C1043 1.417 . S
C1040 C1045 1.431 . S
C1040 C1046 1.412 . S
C1041 C1044 1.437 . S
C1041 C1045 1.317 . S
C1041 H1060 0.929 . S
C1042 C1043 1.426 . S
C1042 C1044 1.413 . S
C1042 N1052 1.359 . S
C1043 C1040 1.417 . S
C1043 C1042 1.426 . S
C1043 N1048 1.350 . S
C1044 C1041 1.437 . S
C1044 C1042 1.413 . S
C1044 C1054 1.391 . S
C1045 C1040 1.431 . S
C1045 C1041 1.317 . S
C1045 H1056 0.930 . S
C1046 C1040 1.412 . S
C1046 C1047 1.355 . S
C1046 H1058 0.930 . S
C1047 C1046 1.355 . S
C1047 C1049 1.402 . S
C1047 H1059 0.930 . S
N1048 Gd1039 2.661 . S
N1048 C1043 1.350 . S
N1048 C1049 1.307 . S
C1049 C1047 1.402 . S
C1049 N1048 1.307 . S
C1049 H1050 0.930 . S
H1050 C1049 0.930 . S
C1051 N1052 1.334 . S
C1051 C1053 1.394 . S
C1051 H1055 0.930 . S
N1052 Gd1039 2.601 . S
N1052 C1042 1.359 . S
N1052 C1051 1.334 . S
C1053 C1051 1.394 . S
C1053 C1054 1.359 . S
C1053 H1065 0.930 . S
C1054 C1044 1.391 . S
C1054 C1053 1.359 . S
C1054 H1066 0.929 . S
H1055 C1051 0.930 . S
H1056 C1045 0.930 . S
H1057 C1074 0.930 . S
H1058 C1046 0.930 . S
H1059 C1047 0.930 . S
H1060 C1041 0.929 . S
H1061 C1079 0.930 . S
H1062 C1070 0.930 . S
H1063 C1071 0.930 . S
H1064 C1095 0.929 . S
H1065 C1053 0.930 . S
H1066 C1054 0.929 . S
H1067 C1096 0.930 . S
H1068 C1077 0.930 . S
N1069 Gd1038 2.661 . S
N1069 C1073 1.350 . S
N1069 C1074 1.307 . S
C1070 H1062 0.930 . S
C1070 C1071 1.355 . S
C1070 C1072 1.412 . S
C1071 H1063 0.930 . S
C1071 C1070 1.355 . S
C1071 C1074 1.402 . S
C1072 C1070 1.412 . S
C1072 C1073 1.417 . S
C1072 C1096 1.431 . S
C1073 N1069 1.350 . S
C1073 C1072 1.417 . S
C1073 C1076 1.426 . S
C1074 H1057 0.930 . S
C1074 N1069 1.307 . S
C1074 C1071 1.402 . S
N1075 Gd1038 2.601 . S
N1075 C1076 1.359 . S
N1075 C1079 1.334 . S
C1076 C1073 1.426 . S
C1076 N1075 1.359 . S
C1076 C1080 1.413 . S
C1077 H1068 0.930 . S
C1077 C1078 1.359 . S
C1077 C1079 1.394 . S
C1078 C1077 1.359 . S
C1078 C1080 1.391 . S
C1078 H1081 0.929 . S
C1079 H1061 0.930 . S
C1079 N1075 1.334 . S
C1079 C1077 1.394 . S
C1080 C1076 1.413 . S
C1080 C1078 1.391 . S
C1080 C1095 1.437 . S
H1081 C1078 0.929 . S
O1082 Gd1038 2.545 . S
O1082 C1097 1.258 . S
O1083 Gd1038 2.606 . S
O1083 Gd1039 2.362 . S
O1083 C1094 1.284 . S
O1084 Gd1039 2.324 . S
O1084 C1104 1.254 . S
O1085 Gd1038 2.429 . S
O1085 C1104 1.268 . S
O1086 Gd1038 2.545 . S
O1086 C1094 1.250 . S
O1087 Gd1038 2.412 . S
O1087 C1097 1.252 . S
O1088 Gd1039 2.545 . S
O1088 C1106 1.258 . S
O1089 Gd1038 2.362 . S
O1089 Gd1039 2.606 . S
O1089 C1105 1.284 . S
O1090 Gd1038 2.324 . S
O1090 C1113 1.254 . S
O1091 Gd1039 2.429 . S
O1091 C1113 1.268 . S
O1092 Gd1039 2.545 . S
O1092 C1105 1.250 . S
O1093 Gd1039 2.412 . S
O1093 C1106 1.252 . S
C1094 O1083 1.284 . S
C1094 O1086 1.250 . S
C1095 H1064 0.929 . S
C1095 C1080 1.437 . S
C1095 C1096 1.317 . S
C1096 H1067 0.930 . S
C1096 C1072 1.431 . S
C1096 C1095 1.317 . S
C1097 Gd1038 2.828 . S
C1097 O1082 1.258 . S
C1097 O1087 1.252 . S
C1097 C1098 1.497 . S
C1098 C1097 1.497 . S
C1098 C1099 1.395 . S
C1098 C1100 1.380 . S
C1099 C1098 1.395 . S
C1099 C1102 1.398 . S
C1099 H1114 0.930 . S
C1100 C1098 1.380 . S
C1100 C1101 1.391 . S
C1100 H1115 0.930 . S
C1101 C1100 1.391 . S
C1101 C1103 1.387 . S
C1102 C1099 1.398 . S
C1102 C1103 1.380 . S
C1102 H1116 0.930 . S
C1103 C1101 1.387 . S
C1103 C1102 1.380 . S
C1103 H1117 0.930 . S
C1104 O1084 1.254 . S
C1104 O1085 1.268 . S
C1105 O1089 1.284 . S
C1105 O1092 1.250 . S
C1106 Gd1039 2.828 . S
C1106 O1088 1.258 . S
C1106 O1093 1.252 . S
C1106 C1107 1.497 . S
C1107 C1106 1.497 . S
C1107 C1108 1.395 . S
C1107 C1109 1.380 . S
C1108 C1107 1.395 . S
C1108 C1111 1.398 . S
C1108 H1118 0.930 . S
C1109 C1107 1.380 . S
C1109 C1110 1.391 . S
C1109 H1119 0.930 . S
C1110 C1109 1.391 . S
C1110 C1112 1.387 . S
C1111 C1108 1.398 . S
C1111 C1112 1.380 . S
C1111 H1120 0.930 . S
C1112 C1110 1.387 . S
C1112 C1111 1.380 . S
C1112 H1121 0.930 . S
C1113 O1090 1.254 . S
C1113 O1091 1.268 . S
H1114 C1099 0.930 . S
H1115 C1100 0.930 . S
H1116 C1102 0.930 . S
H1117 C1103 0.930 . S
H1118 C1108 0.930 . S
H1119 C1109 0.930 . S
H1120 C1111 0.930 . S
H1121 C1112 0.930 . S
Gd1122 N1153 2.661 . S
Gd1122 N1159 2.601 . S
Gd1122 O1166 2.545 . S
Gd1122 O1167 2.606 . S
Gd1122 O1169 2.429 . S
Gd1122 O1170 2.545 . S
Gd1122 O1171 2.412 . S
Gd1122 O1173 2.362 . S
Gd1122 O1174 2.324 . S
Gd1122 C1181 2.828 . S
Gd1123 N1132 2.661 . S
Gd1123 N1136 2.601 . S
Gd1123 O1167 2.362 . S
Gd1123 O1168 2.324 . S
Gd1123 O1172 2.545 . S
Gd1123 O1173 2.606 . S
Gd1123 O1175 2.429 . S
Gd1123 O1176 2.545 . S
Gd1123 O1177 2.412 . S
Gd1123 C1190 2.828 . S
C1124 C1127 1.417 . S
C1124 C1129 1.431 . S
C1124 C1130 1.412 . S
C1125 C1128 1.437 . S
C1125 C1129 1.317 . S
C1125 H1144 0.929 . S
C1126 C1127 1.426 . S
C1126 C1128 1.413 . S
C1126 N1136 1.359 . S
C1127 C1124 1.417 . S
C1127 C1126 1.426 . S
C1127 N1132 1.350 . S
C1128 C1125 1.437 . S
C1128 C1126 1.413 . S
C1128 C1138 1.391 . S
C1129 C1124 1.431 . S
C1129 C1125 1.317 . S
C1129 H1140 0.930 . S
C1130 C1124 1.412 . S
C1130 C1131 1.355 . S
C1130 H1142 0.930 . S
C1131 C1130 1.355 . S
C1131 C1133 1.402 . S
C1131 H1143 0.930 . S
N1132 Gd1123 2.661 . S
N1132 C1127 1.350 . S
N1132 C1133 1.307 . S
C1133 C1131 1.402 . S
C1133 N1132 1.307 . S
C1133 H1134 0.930 . S
H1134 C1133 0.930 . S
C1135 N1136 1.334 . S
C1135 C1137 1.394 . S
C1135 H1139 0.930 . S
N1136 Gd1123 2.601 . S
N1136 C1126 1.359 . S
N1136 C1135 1.334 . S
C1137 C1135 1.394 . S
C1137 C1138 1.359 . S
C1137 H1149 0.930 . S
C1138 C1128 1.391 . S
C1138 C1137 1.359 . S
C1138 H1150 0.929 . S
H1139 C1135 0.930 . S
H1140 C1129 0.930 . S
H1141 C1158 0.930 . S
H1142 C1130 0.930 . S
H1143 C1131 0.930 . S
H1144 C1125 0.929 . S
H1145 C1163 0.930 . S
H1146 C1154 0.930 . S
H1147 C1155 0.930 . S
H1148 C1179 0.929 . S
H1149 C1137 0.930 . S
H1150 C1138 0.929 . S
H1151 C1180 0.930 . S
H1152 C1161 0.930 . S
N1153 Gd1122 2.661 . S
N1153 C1157 1.350 . S
N1153 C1158 1.307 . S
C1154 H1146 0.930 . S
C1154 C1155 1.355 . S
C1154 C1156 1.412 . S
C1155 H1147 0.930 . S
C1155 C1154 1.355 . S
C1155 C1158 1.402 . S
C1156 C1154 1.412 . S
C1156 C1157 1.417 . S
C1156 C1180 1.431 . S
C1157 N1153 1.350 . S
C1157 C1156 1.417 . S
C1157 C1160 1.426 . S
C1158 H1141 0.930 . S
C1158 N1153 1.307 . S
C1158 C1155 1.402 . S
N1159 Gd1122 2.601 . S
N1159 C1160 1.359 . S
N1159 C1163 1.334 . S
C1160 C1157 1.426 . S
C1160 N1159 1.359 . S
C1160 C1164 1.413 . S
C1161 H1152 0.930 . S
C1161 C1162 1.359 . S
C1161 C1163 1.394 . S
C1162 C1161 1.359 . S
C1162 C1164 1.391 . S
C1162 H1165 0.929 . S
C1163 H1145 0.930 . S
C1163 N1159 1.334 . S
C1163 C1161 1.394 . S
C1164 C1160 1.413 . S
C1164 C1162 1.391 . S
C1164 C1179 1.437 . S
H1165 C1162 0.929 . S
O1166 Gd1122 2.545 . S
O1166 C1181 1.258 . S
O1167 Gd1122 2.606 . S
O1167 Gd1123 2.362 . S
O1167 C1178 1.284 . S
O1168 Gd1123 2.324 . S
O1168 C1188 1.254 . S
O1169 Gd1122 2.429 . S
O1169 C1188 1.268 . S
O1170 Gd1122 2.545 . S
O1170 C1178 1.250 . S
O1171 Gd1122 2.412 . S
O1171 C1181 1.252 . S
O1172 Gd1123 2.545 . S
O1172 C1190 1.258 . S
O1173 Gd1122 2.362 . S
O1173 Gd1123 2.606 . S
O1173 C1189 1.284 . S
O1174 Gd1122 2.324 . S
O1174 C1197 1.254 . S
O1175 Gd1123 2.429 . S
O1175 C1197 1.268 . S
O1176 Gd1123 2.545 . S
O1176 C1189 1.250 . S
O1177 Gd1123 2.412 . S
O1177 C1190 1.252 . S
C1178 O1167 1.284 . S
C1178 O1170 1.250 . S
C1179 H1148 0.929 . S
C1179 C1164 1.437 . S
C1179 C1180 1.317 . S
C1180 H1151 0.930 . S
C1180 C1156 1.431 . S
C1180 C1179 1.317 . S
C1181 Gd1122 2.828 . S
C1181 O1166 1.258 . S
C1181 O1171 1.252 . S
C1181 C1182 1.497 . S
C1182 C1181 1.497 . S
C1182 C1183 1.395 . S
C1182 C1184 1.380 . S
C1183 C1182 1.395 . S
C1183 C1186 1.398 . S
C1183 H1198 0.930 . S
C1184 C1182 1.380 . S
C1184 C1185 1.391 . S
C1184 H1199 0.930 . S
C1185 C1184 1.391 . S
C1185 C1187 1.387 . S
C1186 C1183 1.398 . S
C1186 C1187 1.380 . S
C1186 H1200 0.930 . S
C1187 C1185 1.387 . S
C1187 C1186 1.380 . S
C1187 H1201 0.930 . S
C1188 O1168 1.254 . S
C1188 O1169 1.268 . S
C1189 O1173 1.284 . S
C1189 O1176 1.250 . S
C1190 Gd1123 2.828 . S
C1190 O1172 1.258 . S
C1190 O1177 1.252 . S
C1190 C1191 1.497 . S
C1191 C1190 1.497 . S
C1191 C1192 1.395 . S
C1191 C1193 1.380 . S
C1192 C1191 1.395 . S
C1192 C1195 1.398 . S
C1192 H1202 0.930 . S
C1193 C1191 1.380 . S
C1193 C1194 1.391 . S
C1193 H1203 0.930 . S
C1194 C1193 1.391 . S
C1194 C1196 1.387 . S
C1195 C1192 1.398 . S
C1195 C1196 1.380 . S
C1195 H1204 0.930 . S
C1196 C1194 1.387 . S
C1196 C1195 1.380 . S
C1196 H1205 0.930 . S
C1197 O1174 1.254 . S
C1197 O1175 1.268 . S
H1198 C1183 0.930 . S
H1199 C1184 0.930 . S
H1200 C1186 0.930 . S
H1201 C1187 0.930 . S
H1202 C1192 0.930 . S
H1203 C1193 0.930 . S
H1204 C1195 0.930 . S
H1205 C1196 0.930 . S
Gd1206 N1237 2.661 . S
Gd1206 N1243 2.601 . S
Gd1206 O1250 2.545 . S
Gd1206 O1251 2.606 . S
Gd1206 O1253 2.429 . S
Gd1206 O1254 2.545 . S
Gd1206 O1255 2.412 . S
Gd1206 O1257 2.362 . S
Gd1206 O1258 2.324 . S
Gd1206 C1265 2.828 . S
Gd1207 N1216 2.661 . S
Gd1207 N1220 2.601 . S
Gd1207 O1251 2.362 . S
Gd1207 O1252 2.324 . S
Gd1207 O1256 2.545 . S
Gd1207 O1257 2.606 . S
Gd1207 O1259 2.429 . S
Gd1207 O1260 2.545 . S
Gd1207 O1261 2.412 . S
Gd1207 C1274 2.828 . S
C1208 C1211 1.417 . S
C1208 C1213 1.431 . S
C1208 C1214 1.412 . S
C1209 C1212 1.437 . S
C1209 C1213 1.317 . S
C1209 H1228 0.929 . S
C1210 C1211 1.426 . S
C1210 C1212 1.413 . S
C1210 N1220 1.359 . S
C1211 C1208 1.417 . S
C1211 C1210 1.426 . S
C1211 N1216 1.350 . S
C1212 C1209 1.437 . S
C1212 C1210 1.413 . S
C1212 C1222 1.391 . S
C1213 C1208 1.431 . S
C1213 C1209 1.317 . S
C1213 H1224 0.930 . S
C1214 C1208 1.412 . S
C1214 C1215 1.355 . S
C1214 H1226 0.930 . S
C1215 C1214 1.355 . S
C1215 C1217 1.402 . S
C1215 H1227 0.930 . S
N1216 Gd1207 2.661 . S
N1216 C1211 1.350 . S
N1216 C1217 1.307 . S
C1217 C1215 1.402 . S
C1217 N1216 1.307 . S
C1217 H1218 0.930 . S
H1218 C1217 0.930 . S
C1219 N1220 1.334 . S
C1219 C1221 1.394 . S
C1219 H1223 0.930 . S
N1220 Gd1207 2.601 . S
N1220 C1210 1.359 . S
N1220 C1219 1.334 . S
C1221 C1219 1.394 . S
C1221 C1222 1.359 . S
C1221 H1233 0.930 . S
C1222 C1212 1.391 . S
C1222 C1221 1.359 . S
C1222 H1234 0.929 . S
H1223 C1219 0.930 . S
H1224 C1213 0.930 . S
H1225 C1242 0.930 . S
H1226 C1214 0.930 . S
H1227 C1215 0.930 . S
H1228 C1209 0.929 . S
H1229 C1247 0.930 . S
H1230 C1238 0.930 . S
H1231 C1239 0.930 . S
H1232 C1263 0.929 . S
H1233 C1221 0.930 . S
H1234 C1222 0.929 . S
H1235 C1264 0.930 . S
H1236 C1245 0.930 . S
N1237 Gd1206 2.661 . S
N1237 C1241 1.350 . S
N1237 C1242 1.307 . S
C1238 H1230 0.930 . S
C1238 C1239 1.355 . S
C1238 C1240 1.412 . S
C1239 H1231 0.930 . S
C1239 C1238 1.355 . S
C1239 C1242 1.402 . S
C1240 C1238 1.412 . S
C1240 C1241 1.417 . S
C1240 C1264 1.431 . S
C1241 N1237 1.350 . S
C1241 C1240 1.417 . S
C1241 C1244 1.426 . S
C1242 H1225 0.930 . S
C1242 N1237 1.307 . S
C1242 C1239 1.402 . S
N1243 Gd1206 2.601 . S
N1243 C1244 1.359 . S
N1243 C1247 1.334 . S
C1244 C1241 1.426 . S
C1244 N1243 1.359 . S
C1244 C1248 1.413 . S
C1245 H1236 0.930 . S
C1245 C1246 1.359 . S
C1245 C1247 1.394 . S
C1246 C1245 1.359 . S
C1246 C1248 1.391 . S
C1246 H1249 0.929 . S
C1247 H1229 0.930 . S
C1247 N1243 1.334 . S
C1247 C1245 1.394 . S
C1248 C1244 1.413 . S
C1248 C1246 1.391 . S
C1248 C1263 1.437 . S
H1249 C1246 0.929 . S
O1250 Gd1206 2.545 . S
O1250 C1265 1.258 . S
O1251 Gd1206 2.606 . S
O1251 Gd1207 2.362 . S
O1251 C1262 1.284 . S
O1252 Gd1207 2.324 . S
O1252 C1272 1.254 . S
O1253 Gd1206 2.429 . S
O1253 C1272 1.268 . S
O1254 Gd1206 2.545 . S
O1254 C1262 1.250 . S
O1255 Gd1206 2.412 . S
O1255 C1265 1.252 . S
O1256 Gd1207 2.545 . S
O1256 C1274 1.258 . S
O1257 Gd1206 2.362 . S
O1257 Gd1207 2.606 . S
O1257 C1273 1.284 . S
O1258 Gd1206 2.324 . S
O1258 C1281 1.254 . S
O1259 Gd1207 2.429 . S
O1259 C1281 1.268 . S
O1260 Gd1207 2.545 . S
O1260 C1273 1.250 . S
O1261 Gd1207 2.412 . S
O1261 C1274 1.252 . S
C1262 O1251 1.284 . S
C1262 O1254 1.250 . S
C1263 H1232 0.929 . S
C1263 C1248 1.437 . S
C1263 C1264 1.317 . S
C1264 H1235 0.930 . S
C1264 C1240 1.431 . S
C1264 C1263 1.317 . S
C1265 Gd1206 2.828 . S
C1265 O1250 1.258 . S
C1265 O1255 1.252 . S
C1265 C1266 1.497 . S
C1266 C1265 1.497 . S
C1266 C1267 1.395 . S
C1266 C1268 1.380 . S
C1267 C1266 1.395 . S
C1267 C1270 1.398 . S
C1267 H1282 0.930 . S
C1268 C1266 1.380 . S
C1268 C1269 1.391 . S
C1268 H1283 0.930 . S
C1269 C1268 1.391 . S
C1269 C1271 1.387 . S
C1270 C1267 1.398 . S
C1270 C1271 1.380 . S
C1270 H1284 0.930 . S
C1271 C1269 1.387 . S
C1271 C1270 1.380 . S
C1271 H1285 0.930 . S
C1272 O1252 1.254 . S
C1272 O1253 1.268 . S
C1273 O1257 1.284 . S
C1273 O1260 1.250 . S
C1274 Gd1207 2.828 . S
C1274 O1256 1.258 . S
C1274 O1261 1.252 . S
C1274 C1275 1.497 . S
C1275 C1274 1.497 . S
C1275 C1276 1.395 . S
C1275 C1277 1.380 . S
C1276 C1275 1.395 . S
C1276 C1279 1.398 . S
C1276 H1286 0.930 . S
C1277 C1275 1.380 . S
C1277 C1278 1.391 . S
C1277 H1287 0.930 . S
C1278 C1277 1.391 . S
C1278 C1280 1.387 . S
C1279 C1276 1.398 . S
C1279 C1280 1.380 . S
C1279 H1288 0.930 . S
C1280 C1278 1.387 . S
C1280 C1279 1.380 . S
C1280 H1289 0.930 . S
C1281 O1258 1.254 . S
C1281 O1259 1.268 . S
H1282 C1267 0.930 . S
H1283 C1268 0.930 . S
H1284 C1270 0.930 . S
H1285 C1271 0.930 . S
H1286 C1276 0.930 . S
H1287 C1277 0.930 . S
H1288 C1279 0.930 . S
H1289 C1280 0.930 . S
Gd1290 N1321 2.661 . S
Gd1290 N1327 2.601 . S
Gd1290 O1334 2.545 . S
Gd1290 O1335 2.606 . S
Gd1290 O1337 2.429 . S
Gd1290 O1338 2.545 . S
Gd1290 O1339 2.412 . S
Gd1290 O1341 2.362 . S
Gd1290 O1342 2.324 . S
Gd1290 C1349 2.828 . S
Gd1291 N1300 2.661 . S
Gd1291 N1304 2.601 . S
Gd1291 O1335 2.362 . S
Gd1291 O1336 2.324 . S
Gd1291 O1340 2.545 . S
Gd1291 O1341 2.606 . S
Gd1291 O1343 2.429 . S
Gd1291 O1344 2.545 . S
Gd1291 O1345 2.412 . S
Gd1291 C1358 2.828 . S
C1292 C1295 1.417 . S
C1292 C1297 1.431 . S
C1292 C1298 1.412 . S
C1293 C1296 1.437 . S
C1293 C1297 1.317 . S
C1293 H1312 0.929 . S
C1294 C1295 1.426 . S
C1294 C1296 1.413 . S
C1294 N1304 1.359 . S
C1295 C1292 1.417 . S
C1295 C1294 1.426 . S
C1295 N1300 1.350 . S
C1296 C1293 1.437 . S
C1296 C1294 1.413 . S
C1296 C1306 1.391 . S
C1297 C1292 1.431 . S
C1297 C1293 1.317 . S
C1297 H1308 0.930 . S
C1298 C1292 1.412 . S
C1298 C1299 1.355 . S
C1298 H1310 0.930 . S
C1299 C1298 1.355 . S
C1299 C1301 1.402 . S
C1299 H1311 0.930 . S
N1300 Gd1291 2.661 . S
N1300 C1295 1.350 . S
N1300 C1301 1.307 . S
C1301 C1299 1.402 . S
C1301 N1300 1.307 . S
C1301 H1302 0.930 . S
H1302 C1301 0.930 . S
C1303 N1304 1.334 . S
C1303 C1305 1.394 . S
C1303 H1307 0.930 . S
N1304 Gd1291 2.601 . S
N1304 C1294 1.359 . S
N1304 C1303 1.334 . S
C1305 C1303 1.394 . S
C1305 C1306 1.359 . S
C1305 H1317 0.930 . S
C1306 C1296 1.391 . S
C1306 C1305 1.359 . S
C1306 H1318 0.929 . S
H1307 C1303 0.930 . S
H1308 C1297 0.930 . S
H1309 C1326 0.930 . S
H1310 C1298 0.930 . S
H1311 C1299 0.930 . S
H1312 C1293 0.929 . S
H1313 C1331 0.930 . S
H1314 C1322 0.930 . S
H1315 C1323 0.930 . S
H1316 C1347 0.929 . S
H1317 C1305 0.930 . S
H1318 C1306 0.929 . S
H1319 C1348 0.930 . S
H1320 C1329 0.930 . S
N1321 Gd1290 2.661 . S
N1321 C1325 1.350 . S
N1321 C1326 1.307 . S
C1322 H1314 0.930 . S
C1322 C1323 1.355 . S
C1322 C1324 1.412 . S
C1323 H1315 0.930 . S
C1323 C1322 1.355 . S
C1323 C1326 1.402 . S
C1324 C1322 1.412 . S
C1324 C1325 1.417 . S
C1324 C1348 1.431 . S
C1325 N1321 1.350 . S
C1325 C1324 1.417 . S
C1325 C1328 1.426 . S
C1326 H1309 0.930 . S
C1326 N1321 1.307 . S
C1326 C1323 1.402 . S
N1327 Gd1290 2.601 . S
N1327 C1328 1.359 . S
N1327 C1331 1.334 . S
C1328 C1325 1.426 . S
C1328 N1327 1.359 . S
C1328 C1332 1.413 . S
C1329 H1320 0.930 . S
C1329 C1330 1.359 . S
C1329 C1331 1.394 . S
C1330 C1329 1.359 . S
C1330 C1332 1.391 . S
C1330 H1333 0.929 . S
C1331 H1313 0.930 . S
C1331 N1327 1.334 . S
C1331 C1329 1.394 . S
C1332 C1328 1.413 . S
C1332 C1330 1.391 . S
C1332 C1347 1.437 . S
H1333 C1330 0.929 . S
O1334 Gd1290 2.545 . S
O1334 C1349 1.258 . S
O1335 Gd1290 2.606 . S
O1335 Gd1291 2.362 . S
O1335 C1346 1.284 . S
O1336 Gd1291 2.324 . S
O1336 C1356 1.254 . S
O1337 Gd1290 2.429 . S
O1337 C1356 1.268 . S
O1338 Gd1290 2.545 . S
O1338 C1346 1.250 . S
O1339 Gd1290 2.412 . S
O1339 C1349 1.252 . S
O1340 Gd1291 2.545 . S
O1340 C1358 1.258 . S
O1341 Gd1290 2.362 . S
O1341 Gd1291 2.606 . S
O1341 C1357 1.284 . S
O1342 Gd1290 2.324 . S
O1342 C1365 1.254 . S
O1343 Gd1291 2.429 . S
O1343 C1365 1.268 . S
O1344 Gd1291 2.545 . S
O1344 C1357 1.250 . S
O1345 Gd1291 2.412 . S
O1345 C1358 1.252 . S
C1346 O1335 1.284 . S
C1346 O1338 1.250 . S
C1347 H1316 0.929 . S
C1347 C1332 1.437 . S
C1347 C1348 1.317 . S
C1348 H1319 0.930 . S
C1348 C1324 1.431 . S
C1348 C1347 1.317 . S
C1349 Gd1290 2.828 . S
C1349 O1334 1.258 . S
C1349 O1339 1.252 . S
C1349 C1350 1.497 . S
C1350 C1349 1.497 . S
C1350 C1351 1.395 . S
C1350 C1352 1.380 . S
C1351 C1350 1.395 . S
C1351 C1354 1.398 . S
C1351 H1366 0.930 . S
C1352 C1350 1.380 . S
C1352 C1353 1.391 . S
C1352 H1367 0.930 . S
C1353 C1352 1.391 . S
C1353 C1355 1.387 . S
C1354 C1351 1.398 . S
C1354 C1355 1.380 . S
C1354 H1368 0.930 . S
C1355 C1353 1.387 . S
C1355 C1354 1.380 . S
C1355 H1369 0.930 . S
C1356 O1336 1.254 . S
C1356 O1337 1.268 . S
C1357 O1341 1.284 . S
C1357 O1344 1.250 . S
C1358 Gd1291 2.828 . S
C1358 O1340 1.258 . S
C1358 O1345 1.252 . S
C1358 C1359 1.497 . S
C1359 C1358 1.497 . S
C1359 C1360 1.395 . S
C1359 C1361 1.380 . S
C1360 C1359 1.395 . S
C1360 C1363 1.398 . S
C1360 H1370 0.930 . S
C1361 C1359 1.380 . S
C1361 C1362 1.391 . S
C1361 H1371 0.930 . S
C1362 C1361 1.391 . S
C1362 C1364 1.387 . S
C1363 C1360 1.398 . S
C1363 C1364 1.380 . S
C1363 H1372 0.930 . S
C1364 C1362 1.387 . S
C1364 C1363 1.380 . S
C1364 H1373 0.930 . S
C1365 O1342 1.254 . S
C1365 O1343 1.268 . S
H1366 C1351 0.930 . S
H1367 C1352 0.930 . S
H1368 C1354 0.930 . S
H1369 C1355 0.930 . S
H1370 C1360 0.930 . S
H1371 C1361 0.930 . S
H1372 C1363 0.930 . S
H1373 C1364 0.930 . S
Gd1374 N1405 2.661 . S
Gd1374 N1411 2.601 . S
Gd1374 O1418 2.545 . S
Gd1374 O1419 2.606 . S
Gd1374 O1421 2.429 . S
Gd1374 O1422 2.545 . S
Gd1374 O1423 2.412 . S
Gd1374 O1425 2.362 . S
Gd1374 O1426 2.324 . S
Gd1374 C1433 2.828 . S
Gd1375 N1384 2.661 . S
Gd1375 N1388 2.601 . S
Gd1375 O1419 2.362 . S
Gd1375 O1420 2.324 . S
Gd1375 O1424 2.545 . S
Gd1375 O1425 2.606 . S
Gd1375 O1427 2.429 . S
Gd1375 O1428 2.545 . S
Gd1375 O1429 2.412 . S
Gd1375 C1442 2.828 . S
C1376 C1379 1.417 . S
C1376 C1381 1.431 . S
C1376 C1382 1.412 . S
C1377 C1380 1.437 . S
C1377 C1381 1.317 . S
C1377 H1396 0.929 . S
C1378 C1379 1.426 . S
C1378 C1380 1.413 . S
C1378 N1388 1.359 . S
C1379 C1376 1.417 . S
C1379 C1378 1.426 . S
C1379 N1384 1.350 . S
C1380 C1377 1.437 . S
C1380 C1378 1.413 . S
C1380 C1390 1.391 . S
C1381 C1376 1.431 . S
C1381 C1377 1.317 . S
C1381 H1392 0.930 . S
C1382 C1376 1.412 . S
C1382 C1383 1.355 . S
C1382 H1394 0.930 . S
C1383 C1382 1.355 . S
C1383 C1385 1.402 . S
C1383 H1395 0.930 . S
N1384 Gd1375 2.661 . S
N1384 C1379 1.350 . S
N1384 C1385 1.307 . S
C1385 C1383 1.402 . S
C1385 N1384 1.307 . S
C1385 H1386 0.930 . S
H1386 C1385 0.930 . S
C1387 N1388 1.334 . S
C1387 C1389 1.394 . S
C1387 H1391 0.930 . S
N1388 Gd1375 2.601 . S
N1388 C1378 1.359 . S
N1388 C1387 1.334 . S
C1389 C1387 1.394 . S
C1389 C1390 1.359 . S
C1389 H1401 0.930 . S
C1390 C1380 1.391 . S
C1390 C1389 1.359 . S
C1390 H1402 0.929 . S
H1391 C1387 0.930 . S
H1392 C1381 0.930 . S
H1393 C1410 0.930 . S
H1394 C1382 0.930 . S
H1395 C1383 0.930 . S
H1396 C1377 0.929 . S
H1397 C1415 0.930 . S
H1398 C1406 0.930 . S
H1399 C1407 0.930 . S
H1400 C1431 0.929 . S
H1401 C1389 0.930 . S
H1402 C1390 0.929 . S
H1403 C1432 0.930 . S
H1404 C1413 0.930 . S
N1405 Gd1374 2.661 . S
N1405 C1409 1.350 . S
N1405 C1410 1.307 . S
C1406 H1398 0.930 . S
C1406 C1407 1.355 . S
C1406 C1408 1.412 . S
C1407 H1399 0.930 . S
C1407 C1406 1.355 . S
C1407 C1410 1.402 . S
C1408 C1406 1.412 . S
C1408 C1409 1.417 . S
C1408 C1432 1.431 . S
C1409 N1405 1.350 . S
C1409 C1408 1.417 . S
C1409 C1412 1.426 . S
C1410 H1393 0.930 . S
C1410 N1405 1.307 . S
C1410 C1407 1.402 . S
N1411 Gd1374 2.601 . S
N1411 C1412 1.359 . S
N1411 C1415 1.334 . S
C1412 C1409 1.426 . S
C1412 N1411 1.359 . S
C1412 C1416 1.413 . S
C1413 H1404 0.930 . S
C1413 C1414 1.359 . S
C1413 C1415 1.394 . S
C1414 C1413 1.359 . S
C1414 C1416 1.391 . S
C1414 H1417 0.929 . S
C1415 H1397 0.930 . S
C1415 N1411 1.334 . S
C1415 C1413 1.394 . S
C1416 C1412 1.413 . S
C1416 C1414 1.391 . S
C1416 C1431 1.437 . S
H1417 C1414 0.929 . S
O1418 Gd1374 2.545 . S
O1418 C1433 1.258 . S
O1419 Gd1374 2.606 . S
O1419 Gd1375 2.362 . S
O1419 C1430 1.284 . S
O1420 Gd1375 2.324 . S
O1420 C1440 1.254 . S
O1421 Gd1374 2.429 . S
O1421 C1440 1.268 . S
O1422 Gd1374 2.545 . S
O1422 C1430 1.250 . S
O1423 Gd1374 2.412 . S
O1423 C1433 1.252 . S
O1424 Gd1375 2.545 . S
O1424 C1442 1.258 . S
O1425 Gd1374 2.362 . S
O1425 Gd1375 2.606 . S
O1425 C1441 1.284 . S
O1426 Gd1374 2.324 . S
O1426 C1449 1.254 . S
O1427 Gd1375 2.429 . S
O1427 C1449 1.268 . S
O1428 Gd1375 2.545 . S
O1428 C1441 1.250 . S
O1429 Gd1375 2.412 . S
O1429 C1442 1.252 . S
C1430 O1419 1.284 . S
C1430 O1422 1.250 . S
C1431 H1400 0.929 . S
C1431 C1416 1.437 . S
C1431 C1432 1.317 . S
C1432 H1403 0.930 . S
C1432 C1408 1.431 . S
C1432 C1431 1.317 . S
C1433 Gd1374 2.828 . S
C1433 O1418 1.258 . S
C1433 O1423 1.252 . S
C1433 C1434 1.497 . S
C1434 C1433 1.497 . S
C1434 C1435 1.395 . S
C1434 C1436 1.380 . S
C1435 C1434 1.395 . S
C1435 C1438 1.398 . S
C1435 H1450 0.930 . S
C1436 C1434 1.380 . S
C1436 C1437 1.391 . S
C1436 H1451 0.930 . S
C1437 C1436 1.391 . S
C1437 C1439 1.387 . S
C1438 C1435 1.398 . S
C1438 C1439 1.380 . S
C1438 H1452 0.930 . S
C1439 C1437 1.387 . S
C1439 C1438 1.380 . S
C1439 H1453 0.930 . S
C1440 O1420 1.254 . S
C1440 O1421 1.268 . S
C1441 O1425 1.284 . S
C1441 O1428 1.250 . S
C1442 Gd1375 2.828 . S
C1442 O1424 1.258 . S
C1442 O1429 1.252 . S
C1442 C1443 1.497 . S
C1443 C1442 1.497 . S
C1443 C1444 1.395 . S
C1443 C1445 1.380 . S
C1444 C1443 1.395 . S
C1444 C1447 1.398 . S
C1444 H1454 0.930 . S
C1445 C1443 1.380 . S
C1445 C1446 1.391 . S
C1445 H1455 0.930 . S
C1446 C1445 1.391 . S
C1446 C1448 1.387 . S
C1447 C1444 1.398 . S
C1447 C1448 1.380 . S
C1447 H1456 0.930 . S
C1448 C1446 1.387 . S
C1448 C1447 1.380 . S
C1448 H1457 0.930 . S
C1449 O1426 1.254 . S
C1449 O1427 1.268 . S
H1450 C1435 0.930 . S
H1451 C1436 0.930 . S
H1452 C1438 0.930 . S
H1453 C1439 0.930 . S
H1454 C1444 0.930 . S
H1455 C1445 0.930 . S
H1456 C1447 0.930 . S
H1457 C1448 0.930 . S
H1458 C1464 0.930 . S
H1459 C1468 0.930 . S
H1460 C1473 0.929 . S
H1461 C1471 0.929 . S
H1462 C1466 0.929 . S
H1463 C1472 0.929 . S
C1464 H1458 0.930 . S
C1464 C1465 1.367 . S
C1464 C1472 1.378 . S
C1465 C1464 1.367 . S
C1465 C1473 1.433 . S
C1466 H1462 0.929 . S
C1466 C1468 1.378 . S
C1466 C1470 1.350 . S
C1467 C1470 1.463 . S
C1467 C1472 1.350 . S
C1467 N1475 1.427 . S
C1468 H1459 0.930 . S
C1468 C1466 1.378 . S
C1468 C1469 1.367 . S
C1469 C1468 1.367 . S
C1469 C1471 1.433 . S
C1470 C1466 1.350 . S
C1470 C1467 1.463 . S
C1470 N1474 1.427 . S
C1471 H1461 0.929 . S
C1471 C1469 1.433 . S
C1471 N1474 1.384 . S
C1472 H1463 0.929 . S
C1472 C1464 1.378 . S
C1472 C1467 1.350 . S
C1473 H1460 0.929 . S
C1473 C1465 1.433 . S
C1473 N1475 1.384 . S
N1474 C1470 1.427 . S
N1474 C1471 1.384 . S
N1475 C1467 1.427 . S
N1475 C1473 1.384 . S
H1476 C1482 0.930 . S
H1477 C1486 0.930 . S
H1478 C1491 0.929 . S
H1479 C1489 0.929 . S
H1480 C1484 0.929 . S
H1481 C1490 0.929 . S
C1482 H1476 0.930 . S
C1482 C1483 1.367 . S
C1482 C1490 1.378 . S
C1483 C1482 1.367 . S
C1483 C1491 1.433 . S
C1484 H1480 0.929 . S
C1484 C1486 1.378 . S
C1484 C1488 1.350 . S
C1485 C1488 1.463 . S
C1485 C1490 1.350 . S
C1485 N1493 1.427 . S
C1486 H1477 0.930 . S
C1486 C1484 1.378 . S
C1486 C1487 1.367 . S
C1487 C1486 1.367 . S
C1487 C1489 1.433 . S
C1488 C1484 1.350 . S
C1488 C1485 1.463 . S
C1488 N1492 1.427 . S
C1489 H1479 0.929 . S
C1489 C1487 1.433 . S
C1489 N1492 1.384 . S
C1490 H1481 0.929 . S
C1490 C1482 1.378 . S
C1490 C1485 1.350 . S
C1491 H1478 0.929 . S
C1491 C1483 1.433 . S
C1491 N1493 1.384 . S
N1492 C1488 1.427 . S
N1492 C1489 1.384 . S
N1493 C1485 1.427 . S
N1493 C1491 1.384 . S
H1494 C1500 0.930 . S
H1495 C1504 0.930 . S
H1496 C1509 0.929 . S
H1497 C1507 0.929 . S
H1498 C1502 0.929 . S
H1499 C1508 0.929 . S
C1500 H1494 0.930 . S
C1500 C1501 1.367 . S
C1500 C1508 1.378 . S
C1501 C1500 1.367 . S
C1501 C1509 1.433 . S
C1502 H1498 0.929 . S
C1502 C1504 1.378 . S
C1502 C1506 1.350 . S
C1503 C1506 1.463 . S
C1503 C1508 1.350 . S
C1503 N1511 1.427 . S
C1504 H1495 0.930 . S
C1504 C1502 1.378 . S
C1504 C1505 1.367 . S
C1505 C1504 1.367 . S
C1505 C1507 1.433 . S
C1506 C1502 1.350 . S
C1506 C1503 1.463 . S
C1506 N1510 1.427 . S
C1507 H1497 0.929 . S
C1507 C1505 1.433 . S
C1507 N1510 1.384 . S
C1508 H1499 0.929 . S
C1508 C1500 1.378 . S
C1508 C1503 1.350 . S
C1509 H1496 0.929 . S
C1509 C1501 1.433 . S
C1509 N1511 1.384 . S
N1510 C1506 1.427 . S
N1510 C1507 1.384 . S
N1511 C1503 1.427 . S
N1511 C1509 1.384 . S
H1512 C1518 0.930 . S
H1513 C1522 0.930 1_554 S
H1514 C1527 0.929 . S
H1515 C1525 0.929 . S
H1516 C1520 0.929 . S
H1517 C1526 0.929 . S
C1518 H1512 0.930 . S
C1518 C1519 1.367 . S
C1518 C1526 1.378 . S
C1519 C1518 1.367 . S
C1519 C1527 1.433 . S
C1520 H1516 0.929 . S
C1520 C1522 1.378 . S
C1520 C1524 1.350 . S
C1521 C1524 1.463 . S
C1521 C1526 1.350 . S
C1521 N1529 1.427 . S
C1522 H1513 0.930 1_556 S
C1522 C1520 1.378 . S
C1522 C1523 1.367 . S
C1523 C1522 1.367 . S
C1523 C1525 1.433 . S
C1524 C1520 1.350 . S
C1524 C1521 1.463 . S
C1524 N1528 1.427 . S
C1525 H1515 0.929 . S
C1525 C1523 1.433 . S
C1525 N1528 1.384 . S
C1526 H1517 0.929 . S
C1526 C1518 1.378 . S
C1526 C1521 1.350 . S
C1527 H1514 0.929 . S
C1527 C1519 1.433 . S
C1527 N1529 1.384 . S
N1528 C1524 1.427 . S
N1528 C1525 1.384 . S
N1529 C1521 1.427 . S
N1529 C1527 1.384 . S
H1530 C1536 0.930 . S
H1531 C1540 0.930 . S
H1532 C1545 0.929 . S
H1533 C1543 0.929 . S
H1534 C1538 0.929 . S
H1535 C1544 0.929 . S
C1536 H1530 0.930 . S
C1536 C1537 1.367 . S
C1536 C1544 1.378 . S
C1537 C1536 1.367 . S
C1537 C1545 1.433 . S
C1538 H1534 0.929 . S
C1538 C1540 1.378 . S
C1538 C1542 1.350 . S
C1539 C1542 1.463 . S
C1539 C1544 1.350 . S
C1539 N1547 1.427 . S
C1540 H1531 0.930 . S
C1540 C1538 1.378 . S
C1540 C1541 1.367 . S
C1541 C1540 1.367 . S
C1541 C1543 1.433 . S
C1542 C1538 1.350 . S
C1542 C1539 1.463 . S
C1542 N1546 1.427 . S
C1543 H1533 0.929 . S
C1543 C1541 1.433 . S
C1543 N1546 1.384 . S
C1544 H1535 0.929 . S
C1544 C1536 1.378 . S
C1544 C1539 1.350 . S
C1545 H1532 0.929 . S
C1545 C1537 1.433 . S
C1545 N1547 1.384 . S
N1546 C1542 1.427 . S
N1546 C1543 1.384 . S
N1547 C1539 1.427 . S
N1547 C1545 1.384 . S
H1548 C1554 0.930 . S
H1549 C1558 0.930 1_554 S
H1550 C1563 0.929 . S
H1551 C1561 0.929 . S
H1552 C1556 0.929 . S
H1553 C1562 0.929 . S
C1554 H1548 0.930 . S
C1554 C1555 1.367 . S
C1554 C1562 1.378 . S
C1555 C1554 1.367 . S
C1555 C1563 1.433 . S
C1556 H1552 0.929 . S
C1556 C1558 1.378 . S
C1556 C1560 1.350 . S
C1557 C1560 1.463 . S
C1557 C1562 1.350 . S
C1557 N1565 1.427 . S
C1558 H1549 0.930 1_556 S
C1558 C1556 1.378 . S
C1558 C1559 1.367 . S
C1559 C1558 1.367 . S
C1559 C1561 1.433 . S
C1560 C1556 1.350 . S
C1560 C1557 1.463 . S
C1560 N1564 1.427 . S
C1561 H1551 0.929 . S
C1561 C1559 1.433 . S
C1561 N1564 1.384 . S
C1562 H1553 0.929 . S
C1562 C1554 1.378 . S
C1562 C1557 1.350 . S
C1563 H1550 0.929 . S
C1563 C1555 1.433 . S
C1563 N1565 1.384 . S
N1564 C1560 1.427 . S
N1564 C1561 1.384 . S
N1565 C1557 1.427 . S
N1565 C1563 1.384 . S
H1566 C1572 0.930 . S
H1567 C1576 0.930 . S
H1568 C1581 0.929 . S
H1569 C1579 0.929 . S
H1570 C1574 0.929 . S
H1571 C1580 0.929 . S
C1572 H1566 0.930 . S
C1572 C1573 1.367 . S
C1572 C1580 1.378 . S
C1573 C1572 1.367 . S
C1573 C1581 1.433 . S
C1574 H1570 0.929 . S
C1574 C1576 1.378 . S
C1574 C1578 1.350 . S
C1575 C1578 1.463 . S
C1575 C1580 1.350 . S
C1575 N1583 1.427 . S
C1576 H1567 0.930 . S
C1576 C1574 1.378 . S
C1576 C1577 1.367 . S
C1577 C1576 1.367 . S
C1577 C1579 1.433 . S
C1578 C1574 1.350 . S
C1578 C1575 1.463 . S
C1578 N1582 1.427 . S
C1579 H1569 0.929 . S
C1579 C1577 1.433 . S
C1579 N1582 1.384 . S
C1580 H1571 0.929 . S
C1580 C1572 1.378 . S
C1580 C1575 1.350 . S
C1581 H1568 0.929 . S
C1581 C1573 1.433 . S
C1581 N1583 1.384 . S
N1582 C1578 1.427 . S
N1582 C1579 1.384 . S
N1583 C1575 1.427 . S
N1583 C1581 1.384 . S
H1584 C1590 0.930 . S
H1585 C1594 0.930 . S
H1586 C1599 0.929 . S
H1587 C1597 0.929 . S
H1588 C1592 0.929 . S
H1589 C1598 0.929 . S
C1590 H1584 0.930 . S
C1590 C1591 1.367 . S
C1590 C1598 1.378 . S
C1591 C1590 1.367 . S
C1591 C1599 1.433 . S
C1592 H1588 0.929 . S
C1592 C1594 1.378 . S
C1592 C1596 1.350 . S
C1593 C1596 1.463 . S
C1593 C1598 1.350 . S
C1593 N1601 1.427 . S
C1594 H1585 0.930 . S
C1594 C1592 1.378 . S
C1594 C1595 1.367 . S
C1595 C1594 1.367 . S
C1595 C1597 1.433 . S
C1596 C1592 1.350 . S
C1596 C1593 1.463 . S
C1596 N1600 1.427 . S
C1597 H1587 0.929 . S
C1597 C1595 1.433 . S
C1597 N1600 1.384 . S
C1598 H1589 0.929 . S
C1598 C1590 1.378 . S
C1598 C1593 1.350 . S
C1599 H1586 0.929 . S
C1599 C1591 1.433 . S
C1599 N1601 1.384 . S
N1600 C1596 1.427 . S
N1600 C1597 1.384 . S
N1601 C1593 1.427 . S
N1601 C1599 1.384 . S
H1602 C1608 0.930 . S
H1603 C1612 0.930 . S
H1604 C1617 0.929 . S
H1605 C1615 0.929 1_554 S
H1606 C1610 0.929 . S
H1607 C1616 0.929 . S
C1608 H1602 0.930 . S
C1608 C1609 1.367 . S
C1608 C1616 1.378 . S
C1609 C1608 1.367 . S
C1609 C1617 1.433 . S
C1610 H1606 0.929 . S
C1610 C1612 1.378 . S
C1610 C1614 1.350 . S
C1611 C1614 1.463 . S
C1611 C1616 1.350 . S
C1611 N1619 1.427 . S
C1612 H1603 0.930 . S
C1612 C1610 1.378 . S
C1612 C1613 1.367 . S
C1613 C1612 1.367 . S
C1613 C1615 1.433 . S
C1614 C1610 1.350 . S
C1614 C1611 1.463 . S
C1614 N1618 1.427 . S
C1615 H1605 0.929 1_556 S
C1615 C1613 1.433 . S
C1615 N1618 1.384 . S
C1616 H1607 0.929 . S
C1616 C1608 1.378 . S
C1616 C1611 1.350 . S
C1617 H1604 0.929 . S
C1617 C1609 1.433 . S
C1617 N1619 1.384 . S
N1618 C1614 1.427 . S
N1618 C1615 1.384 . S
N1619 C1611 1.427 . S
N1619 C1617 1.384 . S
H1620 C1626 0.930 . S
H1621 C1630 0.930 . S
H1622 C1635 0.929 . S
H1623 C1633 0.929 . S
H1624 C1628 0.929 . S
H1625 C1634 0.929 . S
C1626 H1620 0.930 . S
C1626 C1627 1.367 . S
C1626 C1634 1.378 . S
C1627 C1626 1.367 . S
C1627 C1635 1.433 . S
C1628 H1624 0.929 . S
C1628 C1630 1.378 . S
C1628 C1632 1.350 . S
C1629 C1632 1.463 . S
C1629 C1634 1.350 . S
C1629 N1637 1.427 . S
C1630 H1621 0.930 . S
C1630 C1628 1.378 . S
C1630 C1631 1.367 . S
C1631 C1630 1.367 . S
C1631 C1633 1.433 . S
C1632 C1628 1.350 . S
C1632 C1629 1.463 . S
C1632 N1636 1.427 . S
C1633 H1623 0.929 . S
C1633 C1631 1.433 . S
C1633 N1636 1.384 . S
C1634 H1625 0.929 . S
C1634 C1626 1.378 . S
C1634 C1629 1.350 . S
C1635 H1622 0.929 . S
C1635 C1627 1.433 . S
C1635 N1637 1.384 . S
N1636 C1632 1.427 . S
N1636 C1633 1.384 . S
N1637 C1629 1.427 . S
N1637 C1635 1.384 . S
H1638 C1644 0.930 . S
H1639 C1648 0.930 . S
H1640 C1653 0.929 . S
H1641 C1651 0.929 . S
H1642 C1646 0.929 . S
H1643 C1652 0.929 . S
C1644 H1638 0.930 . S
C1644 C1645 1.367 . S
C1644 C1652 1.378 . S
C1645 C1644 1.367 . S
C1645 C1653 1.433 . S
C1646 H1642 0.929 . S
C1646 C1648 1.378 . S
C1646 C1650 1.350 . S
C1647 C1650 1.463 . S
C1647 C1652 1.350 . S
C1647 N1655 1.427 . S
C1648 H1639 0.930 . S
C1648 C1646 1.378 . S
C1648 C1649 1.367 . S
C1649 C1648 1.367 . S
C1649 C1651 1.433 . S
C1650 C1646 1.350 . S
C1650 C1647 1.463 . S
C1650 N1654 1.427 . S
C1651 H1641 0.929 . S
C1651 C1649 1.433 . S
C1651 N1654 1.384 . S
C1652 H1643 0.929 . S
C1652 C1644 1.378 . S
C1652 C1647 1.350 . S
C1653 H1640 0.929 . S
C1653 C1645 1.433 . S
C1653 N1655 1.384 . S
N1654 C1650 1.427 . S
N1654 C1651 1.384 . S
N1655 C1647 1.427 . S
N1655 C1653 1.384 . S
H1656 C1662 0.930 . S
H1657 C1666 0.930 . S
H1658 C1671 0.929 . S
H1659 C1669 0.929 . S
H1660 C1664 0.929 . S
H1661 C1670 0.929 . S
C1662 H1656 0.930 . S
C1662 C1663 1.367 . S
C1662 C1670 1.378 . S
C1663 C1662 1.367 . S
C1663 C1671 1.433 . S
C1664 H1660 0.929 . S
C1664 C1666 1.378 . S
C1664 C1668 1.350 . S
C1665 C1668 1.463 . S
C1665 C1670 1.350 . S
C1665 N1673 1.427 . S
C1666 H1657 0.930 . S
C1666 C1664 1.378 . S
C1666 C1667 1.367 . S
C1667 C1666 1.367 . S
C1667 C1669 1.433 . S
C1668 C1664 1.350 . S
C1668 C1665 1.463 . S
C1668 N1672 1.427 . S
C1669 H1659 0.929 . S
C1669 C1667 1.433 . S
C1669 N1672 1.384 . S
C1670 H1661 0.929 . S
C1670 C1662 1.378 . S
C1670 C1665 1.350 . S
C1671 H1658 0.929 . S
C1671 C1663 1.433 . S
C1671 N1673 1.384 . S
N1672 C1668 1.427 . S
N1672 C1669 1.384 . S
N1673 C1665 1.427 . S
N1673 C1671 1.384 . S
H1674 C1680 0.930 . S
H1675 C1684 0.930 . S
H1676 C1689 0.929 . S
H1677 C1687 0.929 . S
H1678 C1682 0.929 . S
H1679 C1688 0.929 . S
C1680 H1674 0.930 . S
C1680 C1681 1.367 . S
C1680 C1688 1.378 1_655 S
C1681 C1680 1.367 . S
C1681 C1689 1.433 1_655 S
C1682 H1678 0.929 . S
C1682 C1684 1.378 . S
C1682 C1686 1.350 . S
C1683 C1686 1.463 . S
C1683 C1688 1.350 . S
C1683 N1691 1.427 . S
C1684 H1675 0.930 . S
C1684 C1682 1.378 . S
C1684 C1685 1.367 . S
C1685 C1684 1.367 . S
C1685 C1687 1.433 . S
C1686 C1682 1.350 . S
C1686 C1683 1.463 . S
C1686 N1690 1.427 . S
C1687 H1677 0.929 . S
C1687 C1685 1.433 . S
C1687 N1690 1.384 . S
C1688 H1679 0.929 . S
C1688 C1680 1.378 1_455 S
C1688 C1683 1.350 . S
C1689 H1676 0.929 . S
C1689 C1681 1.433 1_455 S
C1689 N1691 1.384 . S
N1690 C1686 1.427 . S
N1690 C1687 1.384 . S
N1691 C1683 1.427 . S
N1691 C1689 1.384 . S
H1692 C1698 0.930 . S
H1693 C1702 0.930 . S
H1694 C1707 0.929 . S
H1695 C1705 0.929 . S
H1696 C1700 0.929 . S
H1697 C1706 0.929 . S
C1698 H1692 0.930 . S
C1698 C1699 1.367 . S
C1698 C1706 1.378 . S
C1699 C1698 1.367 . S
C1699 C1707 1.433 . S
C1700 H1696 0.929 . S
C1700 C1702 1.378 . S
C1700 C1704 1.350 . S
C1701 C1704 1.463 . S
C1701 C1706 1.350 . S
C1701 N1709 1.427 . S
C1702 H1693 0.930 . S
C1702 C1700 1.378 . S
C1702 C1703 1.367 . S
C1703 C1702 1.367 . S
C1703 C1705 1.433 . S
C1704 C1700 1.350 . S
C1704 C1701 1.463 . S
C1704 N1708 1.427 . S
C1705 H1695 0.929 . S
C1705 C1703 1.433 . S
C1705 N1708 1.384 . S
C1706 H1697 0.929 . S
C1706 C1698 1.378 . S
C1706 C1701 1.350 . S
C1707 H1694 0.929 . S
C1707 C1699 1.433 . S
C1707 N1709 1.384 . S
N1708 C1704 1.427 . S
N1708 C1705 1.384 . S
N1709 C1701 1.427 . S
N1709 C1707 1.384 . S
H1710 C1716 0.930 . S
H1711 C1720 0.930 . S
H1712 C1725 0.906 1_545 S
H1713 C1723 0.929 . S
H1714 C1718 0.929 . S
H1715 C1724 0.929 . S
C1716 H1710 0.930 . S
C1716 C1717 1.367 . S
C1716 C1724 1.378 1_545 S
C1717 C1716 1.367 . S
C1717 C1725 1.422 1_545 S
C1718 H1714 0.929 . S
C1718 C1720 1.378 . S
C1718 C1722 1.350 . S
C1719 C1722 1.463 . S
C1719 C1724 1.350 . S
C1719 N1727 1.427 . S
C1720 H1711 0.930 . S
C1720 C1718 1.378 . S
C1720 C1721 1.367 . S
C1721 C1720 1.367 . S
C1721 C1723 1.433 . S
C1722 C1718 1.350 . S
C1722 C1719 1.463 . S
C1722 N1726 1.427 . S
C1723 H1713 0.929 . S
C1723 C1721 1.433 . S
C1723 N1726 1.384 . S
C1724 H1715 0.929 . S
C1724 C1716 1.378 1_565 S
C1724 C1719 1.350 . S
C1725 H1712 0.906 1_565 S
C1725 C1717 1.422 1_565 S
C1725 N1727 1.421 . S
N1726 C1722 1.427 . S
N1726 C1723 1.384 . S
N1727 C1719 1.427 . S
N1727 C1725 1.421 . S
H1728 C1734 0.930 . S
H1729 C1738 0.930 . S
H1730 C1743 0.929 . S
H1731 C1741 0.929 . S
H1732 C1736 0.929 . S
H1733 C1742 0.929 . S
C1734 H1728 0.930 . S
C1734 C1735 1.367 . S
C1734 C1742 1.378 . S
C1735 C1734 1.367 . S
C1735 C1743 1.433 . S
C1736 H1732 0.929 . S
C1736 C1738 1.378 . S
C1736 C1740 1.350 . S
C1737 C1740 1.463 . S
C1737 C1742 1.350 . S
C1737 N1745 1.427 . S
C1738 H1729 0.930 . S
C1738 C1736 1.378 . S
C1738 C1739 1.367 . S
C1739 C1738 1.367 . S
C1739 C1741 1.433 . S
C1740 C1736 1.350 . S
C1740 C1737 1.463 . S
C1740 N1744 1.427 . S
C1741 H1731 0.929 . S
C1741 C1739 1.433 . S
C1741 N1744 1.384 . S
C1742 H1733 0.929 . S
C1742 C1734 1.378 . S
C1742 C1737 1.350 . S
C1743 H1730 0.929 . S
C1743 C1735 1.433 . S
C1743 N1745 1.384 . S
N1744 C1740 1.427 . S
N1744 C1741 1.384 . S
N1745 C1737 1.427 . S
N1745 C1743 1.384 . S
H1746 C1752 0.930 . S
H1747 C1756 0.930 . S
H1748 C1761 0.929 . S
H1749 C1759 0.929 . S
H1750 C1754 0.929 . S
H1751 C1760 0.929 . S
C1752 H1746 0.930 . S
C1752 C1753 1.367 . S
C1752 C1760 1.378 . S
C1753 C1752 1.367 . S
C1753 C1761 1.433 . S
C1754 H1750 0.929 . S
C1754 C1756 1.378 . S
C1754 C1758 1.350 . S
C1755 C1758 1.463 . S
C1755 C1760 1.350 . S
C1755 N1763 1.427 . S
C1756 H1747 0.930 . S
C1756 C1754 1.378 . S
C1756 C1757 1.367 . S
C1757 C1756 1.367 . S
C1757 C1759 1.433 . S
C1758 C1754 1.350 . S
C1758 C1755 1.463 . S
C1758 N1762 1.427 . S
C1759 H1749 0.929 . S
C1759 C1757 1.433 . S
C1759 N1762 1.384 . S
C1760 H1751 0.929 . S
C1760 C1752 1.378 . S
C1760 C1755 1.350 . S
C1761 H1748 0.929 . S
C1761 C1753 1.433 . S
C1761 N1763 1.384 . S
N1762 C1758 1.427 . S
N1762 C1759 1.384 . S
N1763 C1755 1.427 . S
N1763 C1761 1.384 . S
H1764 C1770 0.930 . S
H1765 C1774 0.930 . S
H1766 C1779 0.929 . S
H1767 C1777 0.929 . S
H1768 C1772 0.929 . S
H1769 C1778 0.929 . S
C1770 H1764 0.930 . S
C1770 C1771 1.367 . S
C1770 C1778 1.378 . S
C1771 C1770 1.367 . S
C1771 C1779 1.433 . S
C1772 H1768 0.929 . S
C1772 C1774 1.378 . S
C1772 C1776 1.350 . S
C1773 C1776 1.463 . S
C1773 C1778 1.350 . S
C1773 N1781 1.427 . S
C1774 H1765 0.930 . S
C1774 C1772 1.378 . S
C1774 C1775 1.367 . S
C1775 C1774 1.367 . S
C1775 C1777 1.433 . S
C1776 C1772 1.350 . S
C1776 C1773 1.463 . S
C1776 N1780 1.427 . S
C1777 H1767 0.929 . S
C1777 C1775 1.433 . S
C1777 N1780 1.384 . S
C1778 H1769 0.929 . S
C1778 C1770 1.378 . S
C1778 C1773 1.350 . S
C1779 H1766 0.929 . S
C1779 C1771 1.433 . S
C1779 N1781 1.384 . S
N1780 C1776 1.427 . S
N1780 C1777 1.384 . S
N1781 C1773 1.427 . S
N1781 C1779 1.384 . S
H1782 C1788 0.930 . S
H1783 C1792 0.930 . S
H1784 C1797 0.929 . S
H1785 C1795 0.929 . S
H1786 C1790 0.929 . S
H1787 C1796 0.929 . S
C1788 H1782 0.930 . S
C1788 C1789 1.367 . S
C1788 C1796 1.378 . S
C1789 C1788 1.367 . S
C1789 C1797 1.433 . S
C1790 H1786 0.929 . S
C1790 C1792 1.378 . S
C1790 C1794 1.350 . S
C1791 C1794 1.463 . S
C1791 C1796 1.350 . S
C1791 N1799 1.427 . S
C1792 H1783 0.930 . S
C1792 C1790 1.378 . S
C1792 C1793 1.367 . S
C1793 C1792 1.367 . S
C1793 C1795 1.433 . S
C1794 C1790 1.350 . S
C1794 C1791 1.463 . S
C1794 N1798 1.427 . S
C1795 H1785 0.929 . S
C1795 C1793 1.433 . S
C1795 N1798 1.384 . S
C1796 H1787 0.929 . S
C1796 C1788 1.378 . S
C1796 C1791 1.350 . S
C1797 H1784 0.929 . S
C1797 C1789 1.433 . S
C1797 N1799 1.384 . S
N1798 C1794 1.427 . S
N1798 C1795 1.384 . S
N1799 C1791 1.427 . S
N1799 C1797 1.384 . S
H1800 C1806 0.930 . S
H1801 C1810 0.930 . S
H1802 C1815 0.929 . S
H1803 C1813 0.929 . S
H1804 C1808 0.929 . S
H1805 C1814 0.929 . S
C1806 H1800 0.930 . S
C1806 C1807 1.367 . S
C1806 C1814 1.378 . S
C1807 C1806 1.367 . S
C1807 C1815 1.433 . S
C1808 H1804 0.929 . S
C1808 C1810 1.378 . S
C1808 C1812 1.350 . S
C1809 C1812 1.463 . S
C1809 C1814 1.350 . S
C1809 N1817 1.427 . S
C1810 H1801 0.930 . S
C1810 C1808 1.378 . S
C1810 C1811 1.367 . S
C1811 C1810 1.367 . S
C1811 C1813 1.433 . S
C1812 C1808 1.350 . S
C1812 C1809 1.463 . S
C1812 N1816 1.427 . S
C1813 H1803 0.929 . S
C1813 C1811 1.433 . S
C1813 N1816 1.384 . S
C1814 H1805 0.929 . S
C1814 C1806 1.378 . S
C1814 C1809 1.350 . S
C1815 H1802 0.929 . S
C1815 C1807 1.433 . S
C1815 N1817 1.384 . S
N1816 C1812 1.427 . S
N1816 C1813 1.384 . S
N1817 C1809 1.427 . S
N1817 C1815 1.384 . S
H1818 C1824 0.930 . S
H1819 C1828 0.930 . S
H1820 C1833 0.929 . S
H1821 C1831 0.929 . S
H1822 C1826 0.929 . S
H1823 C1832 0.929 . S
C1824 H1818 0.930 . S
C1824 C1825 1.367 . S
C1824 C1832 1.378 . S
C1825 C1824 1.367 . S
C1825 C1833 1.433 . S
C1826 H1822 0.929 . S
C1826 C1828 1.378 . S
C1826 C1830 1.350 . S
C1827 C1830 1.463 . S
C1827 C1832 1.350 . S
C1827 N1835 1.427 . S
C1828 H1819 0.930 . S
C1828 C1826 1.378 . S
C1828 C1829 1.367 . S
C1829 C1828 1.367 . S
C1829 C1831 1.433 . S
C1830 C1826 1.350 . S
C1830 C1827 1.463 . S
C1830 N1834 1.427 . S
C1831 H1821 0.929 . S
C1831 C1829 1.433 . S
C1831 N1834 1.384 . S
C1832 H1823 0.929 . S
C1832 C1824 1.378 . S
C1832 C1827 1.350 . S
C1833 H1820 0.929 . S
C1833 C1825 1.433 . S
C1833 N1835 1.384 . S
N1834 C1830 1.427 . S
N1834 C1831 1.384 . S
N1835 C1827 1.427 . S
N1835 C1833 1.384 . S
H1836 C1842 0.930 . S
H1837 C1846 0.930 . S
H1838 C1851 0.929 . S
H1839 C1849 0.929 . S
H1840 C1844 0.929 . S
H1841 C1850 0.929 . S
C1842 H1836 0.930 . S
C1842 C1843 1.367 1_565 S
C1842 C1850 1.378 . S
C1843 C1842 1.367 1_545 S
C1843 C1851 1.433 . S
C1844 H1840 0.929 . S
C1844 C1846 1.378 . S
C1844 C1848 1.350 . S
C1845 C1848 1.463 . S
C1845 C1850 1.350 . S
C1845 N1853 1.427 . S
C1846 H1837 0.930 . S
C1846 C1844 1.378 . S
C1846 C1847 1.367 . S
C1847 C1846 1.367 . S
C1847 C1849 1.433 . S
C1848 C1844 1.350 . S
C1848 C1845 1.463 . S
C1848 N1852 1.427 . S
C1849 H1839 0.929 . S
C1849 C1847 1.433 . S
C1849 N1852 1.384 . S
C1850 H1841 0.929 . S
C1850 C1842 1.378 . S
C1850 C1845 1.350 . S
C1851 H1838 0.929 . S
C1851 C1843 1.433 . S
C1851 N1853 1.384 1_545 S
N1852 C1848 1.427 . S
N1852 C1849 1.384 . S
N1853 C1845 1.427 . S
N1853 C1851 1.384 1_565 S
H1854 C1860 0.930 . S
H1855 C1864 0.930 . S
H1856 C1869 0.929 . S
H1857 C1867 0.929 . S
H1858 C1862 0.929 . S
H1859 C1868 0.929 . S
C1860 H1854 0.930 . S
C1860 C1861 1.367 . S
C1860 C1868 1.378 1_655 S
C1861 C1860 1.367 . S
C1861 C1869 1.433 1_655 S
C1862 H1858 0.929 . S
C1862 C1864 1.378 . S
C1862 C1866 1.350 . S
C1863 C1866 1.463 . S
C1863 C1868 1.350 . S
C1863 N1871 1.427 . S
C1864 H1855 0.930 . S
C1864 C1862 1.378 . S
C1864 C1865 1.367 . S
C1865 C1864 1.367 . S
C1865 C1867 1.433 . S
C1866 C1862 1.350 . S
C1866 C1863 1.463 . S
C1866 N1870 1.427 . S
C1867 H1857 0.929 . S
C1867 C1865 1.433 . S
C1867 N1870 1.384 . S
C1868 H1859 0.929 . S
C1868 C1860 1.378 1_455 S
C1868 C1863 1.350 . S
C1869 H1856 0.929 . S
C1869 C1861 1.433 1_455 S
C1869 N1871 1.384 . S
N1870 C1866 1.427 . S
N1870 C1867 1.384 . S
N1871 C1863 1.427 . S
N1871 C1869 1.384 . S
H1872 C1878 0.930 . S
H1873 C1882 0.930 . S
H1874 C1887 0.929 . S
H1875 C1885 0.929 . S
H1876 C1880 0.929 . S
H1877 C1886 0.929 . S
C1878 H1872 0.930 . S
C1878 C1879 1.367 . S
C1878 C1886 1.378 . S
C1879 C1878 1.367 . S
C1879 C1887 1.433 . S
C1880 H1876 0.929 . S
C1880 C1882 1.378 . S
C1880 C1884 1.350 . S
C1881 C1884 1.463 . S
C1881 C1886 1.350 . S
C1881 N1889 1.427 . S
C1882 H1873 0.930 . S
C1882 C1880 1.378 . S
C1882 C1883 1.367 . S
C1883 C1882 1.367 . S
C1883 C1885 1.433 . S
C1884 C1880 1.350 . S
C1884 C1881 1.463 . S
C1884 N1888 1.427 . S
C1885 H1875 0.929 . S
C1885 C1883 1.433 . S
C1885 N1888 1.384 . S
C1886 H1877 0.929 . S
C1886 C1878 1.378 . S
C1886 C1881 1.350 . S
C1887 H1874 0.929 . S
C1887 C1879 1.433 . S
C1887 N1889 1.384 . S
N1888 C1884 1.427 . S
N1888 C1885 1.384 . S
N1889 C1881 1.427 . S
N1889 C1887 1.384 . S
H1890 C1896 0.930 . S
H1891 C1900 0.930 . S
H1892 C1905 0.929 . S
H1893 C1903 0.929 . S
H1894 C1898 0.929 . S
H1895 C1904 0.929 . S
C1896 H1890 0.930 . S
C1896 C1897 1.367 . S
C1896 C1904 1.378 . S
C1897 C1896 1.367 . S
C1897 C1905 1.433 . S
C1898 H1894 0.929 . S
C1898 C1900 1.378 . S
C1898 C1902 1.350 . S
C1899 C1902 1.463 . S
C1899 C1904 1.350 . S
C1899 N1907 1.427 . S
C1900 H1891 0.930 . S
C1900 C1898 1.378 . S
C1900 C1901 1.367 . S
C1901 C1900 1.367 . S
C1901 C1903 1.433 . S
C1902 C1898 1.350 . S
C1902 C1899 1.463 . S
C1902 N1906 1.427 . S
C1903 H1893 0.929 . S
C1903 C1901 1.433 . S
C1903 N1906 1.384 . S
C1904 H1895 0.929 . S
C1904 C1896 1.378 . S
C1904 C1899 1.350 . S
C1905 H1892 0.929 . S
C1905 C1897 1.433 . S
C1905 N1907 1.384 . S
N1906 C1902 1.427 . S
N1906 C1903 1.384 . S
N1907 C1899 1.427 . S
N1907 C1905 1.384 . S
H1908 C1914 0.930 . S
H1909 C1918 0.930 . S
H1910 C1923 0.929 . S
H1911 C1921 0.929 . S
H1912 C1916 0.929 . S
H1913 C1922 0.929 . S
C1914 H1908 0.930 . S
C1914 C1915 1.367 . S
C1914 C1922 1.378 . S
C1915 C1914 1.367 . S
C1915 C1923 1.433 . S
C1916 H1912 0.929 . S
C1916 C1918 1.378 . S
C1916 C1920 1.350 . S
C1917 C1920 1.463 . S
C1917 C1922 1.350 . S
C1917 N1925 1.427 . S
C1918 H1909 0.930 . S
C1918 C1916 1.378 . S
C1918 C1919 1.367 . S
C1919 C1918 1.367 . S
C1919 C1921 1.433 . S
C1920 C1916 1.350 . S
C1920 C1917 1.463 . S
C1920 N1924 1.427 . S
C1921 H1911 0.929 . S
C1921 C1919 1.433 . S
C1921 N1924 1.384 . S
C1922 H1913 0.929 . S
C1922 C1914 1.378 . S
C1922 C1917 1.350 . S
C1923 H1910 0.929 . S
C1923 C1915 1.433 . S
C1923 N1925 1.384 . S
N1924 C1920 1.427 . S
N1924 C1921 1.384 . S
N1925 C1917 1.427 . S
N1925 C1923 1.384 . S
H1926 C1932 0.930 . S
H1927 C1936 0.930 . S
H1928 C1941 0.929 . S
H1929 C1939 0.929 . S
H1930 C1934 0.929 . S
H1931 C1940 0.929 . S
C1932 H1926 0.930 . S
C1932 C1933 1.367 . S
C1932 C1940 1.378 . S
C1933 C1932 1.367 . S
C1933 C1941 1.433 . S
C1934 H1930 0.929 . S
C1934 C1936 1.378 . S
C1934 C1938 1.350 . S
C1935 C1938 1.463 . S
C1935 C1940 1.350 . S
C1935 N1943 1.427 . S
C1936 H1927 0.930 . S
C1936 C1934 1.378 . S
C1936 C1937 1.367 . S
C1937 C1936 1.367 . S
C1937 C1939 1.433 . S
C1938 C1934 1.350 . S
C1938 C1935 1.463 . S
C1938 N1942 1.427 . S
C1939 H1929 0.929 . S
C1939 C1937 1.433 . S
C1939 N1942 1.384 . S
C1940 H1931 0.929 . S
C1940 C1932 1.378 . S
C1940 C1935 1.350 . S
C1941 H1928 0.929 . S
C1941 C1933 1.433 . S
C1941 N1943 1.384 . S
N1942 C1938 1.427 . S
N1942 C1939 1.384 . S
N1943 C1935 1.427 . S
N1943 C1941 1.384 . S
H1944 C1950 0.930 . S
H1945 C1954 0.930 . S
H1946 C1959 0.929 . S
H1947 C1957 0.929 . S
H1948 C1952 0.929 . S
H1949 C1958 0.929 . S
C1950 H1944 0.930 . S
C1950 C1951 1.367 1_545 S
C1950 C1958 1.378 . S
C1951 C1950 1.367 1_565 S
C1951 C1959 1.433 . S
C1952 H1948 0.929 . S
C1952 C1954 1.378 . S
C1952 C1956 1.350 . S
C1953 C1956 1.463 . S
C1953 C1958 1.350 . S
C1953 N1961 1.427 . S
C1954 H1945 0.930 . S
C1954 C1952 1.378 . S
C1954 C1955 1.367 . S
C1955 C1954 1.367 . S
C1955 C1957 1.433 . S
C1956 C1952 1.350 . S
C1956 C1953 1.463 . S
C1956 N1960 1.427 . S
C1957 H1947 0.929 . S
C1957 C1955 1.433 . S
C1957 N1960 1.384 . S
C1958 H1949 0.929 . S
C1958 C1950 1.378 . S
C1958 C1953 1.350 . S
C1959 H1946 0.929 . S
C1959 C1951 1.433 . S
C1959 N1961 1.384 1_565 S
N1960 C1956 1.427 . S
N1960 C1957 1.384 . S
N1961 C1953 1.427 . S
N1961 C1959 1.384 1_545 S
H1962 C1968 0.930 . S
H1963 C1972 0.930 . S
H1964 C1977 0.929 . S
H1965 C1975 0.929 . S
H1966 C1970 0.929 . S
H1967 C1976 0.929 . S
C1968 H1962 0.930 . S
C1968 C1969 1.367 . S
C1968 C1976 1.378 1_455 S
C1969 C1968 1.367 . S
C1969 C1977 1.433 1_455 S
C1970 H1966 0.929 . S
C1970 C1972 1.378 . S
C1970 C1974 1.350 . S
C1971 C1974 1.463 . S
C1971 C1976 1.350 . S
C1971 N1979 1.427 . S
C1972 H1963 0.930 . S
C1972 C1970 1.378 . S
C1972 C1973 1.367 . S
C1973 C1972 1.367 . S
C1973 C1975 1.433 . S
C1974 C1970 1.350 . S
C1974 C1971 1.463 . S
C1974 N1978 1.427 . S
C1975 H1965 0.929 . S
C1975 C1973 1.433 . S
C1975 N1978 1.384 . S
C1976 H1967 0.929 . S
C1976 C1968 1.378 1_655 S
C1976 C1971 1.350 . S
C1977 H1964 0.929 . S
C1977 C1969 1.433 1_655 S
C1977 N1979 1.384 . S
N1978 C1974 1.427 . S
N1978 C1975 1.384 . S
N1979 C1971 1.427 . S
N1979 C1977 1.384 . S
H1980 C1986 0.930 . S
H1981 C1990 0.930 . S
H1982 C1995 0.929 . S
H1983 C1993 0.929 . S
H1984 C1988 0.929 . S
H1985 C1994 0.929 . S
C1986 H1980 0.930 . S
C1986 C1987 1.367 . S
C1986 C1994 1.378 . S
C1987 C1986 1.367 . S
C1987 C1995 1.433 . S
C1988 H1984 0.929 . S
C1988 C1990 1.378 . S
C1988 C1992 1.350 . S
C1989 C1992 1.463 . S
C1989 C1994 1.350 . S
C1989 N1997 1.427 . S
C1990 H1981 0.930 . S
C1990 C1988 1.378 . S
C1990 C1991 1.367 . S
C1991 C1990 1.367 . S
C1991 C1993 1.433 . S
C1992 C1988 1.350 . S
C1992 C1989 1.463 . S
C1992 N1996 1.427 . S
C1993 H1983 0.929 . S
C1993 C1991 1.433 . S
C1993 N1996 1.384 . S
C1994 H1985 0.929 . S
C1994 C1986 1.378 . S
C1994 C1989 1.350 . S
C1995 H1982 0.929 . S
C1995 C1987 1.433 . S
C1995 N1997 1.384 . S
N1996 C1992 1.427 . S
N1996 C1993 1.384 . S
N1997 C1989 1.427 . S
N1997 C1995 1.384 . S
H1998 C2004 0.930 . S
H1999 C2008 0.930 . S
H2000 C2013 0.929 . S
H2001 C2011 0.929 . S
H2002 C2006 0.929 . S
H2003 C2012 0.929 . S
C2004 H1998 0.930 . S
C2004 C2005 1.367 . S
C2004 C2012 1.378 1_455 S
C2005 C2004 1.367 . S
C2005 C2013 1.433 1_455 S
C2006 H2002 0.929 . S
C2006 C2008 1.378 . S
C2006 C2010 1.350 . S
C2007 C2010 1.463 . S
C2007 C2012 1.350 . S
C2007 N2015 1.427 . S
C2008 H1999 0.930 . S
C2008 C2006 1.378 . S
C2008 C2009 1.367 . S
C2009 C2008 1.367 . S
C2009 C2011 1.433 . S
C2010 C2006 1.350 . S
C2010 C2007 1.463 . S
C2010 N2014 1.427 . S
C2011 H2001 0.929 . S
C2011 C2009 1.433 . S
C2011 N2014 1.384 . S
C2012 H2003 0.929 . S
C2012 C2004 1.378 1_655 S
C2012 C2007 1.350 . S
C2013 H2000 0.929 . S
C2013 C2005 1.433 1_655 S
C2013 N2015 1.384 . S
N2014 C2010 1.427 . S
N2014 C2011 1.384 . S
N2015 C2007 1.427 . S
N2015 C2013 1.384 . S
H2016 C2022 0.930 . S
H2017 C2026 0.930 . S
H2018 C2031 0.929 . S
H2019 C2029 0.929 . S
H2020 C2024 0.929 . S
H2021 C2030 0.929 . S
C2022 H2016 0.930 . S
C2022 C2023 1.367 . S
C2022 C2030 1.378 . S
C2023 C2022 1.367 . S
C2023 C2031 1.433 . S
C2024 H2020 0.929 . S
C2024 C2026 1.378 . S
C2024 C2028 1.350 . S
C2025 C2028 1.463 . S
C2025 C2030 1.350 . S
C2025 N2033 1.427 . S
C2026 H2017 0.930 . S
C2026 C2024 1.378 . S
C2026 C2027 1.367 . S
C2027 C2026 1.367 . S
C2027 C2029 1.433 . S
C2028 C2024 1.350 . S
C2028 C2025 1.463 . S
C2028 N2032 1.427 . S
C2029 H2019 0.929 . S
C2029 C2027 1.433 . S
C2029 N2032 1.384 . S
C2030 H2021 0.929 . S
C2030 C2022 1.378 . S
C2030 C2025 1.350 . S
C2031 H2018 0.929 . S
C2031 C2023 1.433 . S
C2031 N2033 1.384 . S
N2032 C2028 1.427 . S
N2032 C2029 1.384 . S
N2033 C2025 1.427 . S
N2033 C2031 1.384 . S
H2034 C2040 0.930 . S
H2035 C2044 0.930 . S
H2036 C2049 0.929 . S
H2037 C2047 0.929 . S
H2038 C2042 0.929 . S
H2039 C2048 0.929 . S
C2040 H2034 0.930 . S
C2040 C2041 1.367 1_545 S
C2040 C2048 1.378 . S
C2041 C2040 1.367 1_565 S
C2041 C2049 1.433 . S
C2042 H2038 0.929 . S
C2042 C2044 1.378 . S
C2042 C2046 1.350 . S
C2043 C2046 1.463 . S
C2043 C2048 1.350 . S
C2043 N2051 1.427 . S
C2044 H2035 0.930 . S
C2044 C2042 1.378 . S
C2044 C2045 1.367 . S
C2045 C2044 1.367 . S
C2045 C2047 1.433 . S
C2046 C2042 1.350 . S
C2046 C2043 1.463 . S
C2046 N2050 1.427 . S
C2047 H2037 0.929 . S
C2047 C2045 1.433 . S
C2047 N2050 1.384 . S
C2048 H2039 0.929 . S
C2048 C2040 1.378 . S
C2048 C2043 1.350 . S
C2049 H2036 0.929 . S
C2049 C2041 1.433 . S
C2049 N2051 1.384 1_565 S
N2050 C2046 1.427 . S
N2050 C2047 1.384 . S
N2051 C2043 1.427 . S
N2051 C2049 1.384 1_545 S
H2052 C2058 0.930 . S
H2053 C2062 0.930 . S
H2054 C2067 0.929 . S
H2055 C2065 0.929 . S
H2056 C2060 0.929 . S
H2057 C2066 0.929 . S
C2058 H2052 0.930 . S
C2058 C2059 1.367 . S
C2058 C2066 1.378 . S
C2059 C2058 1.367 . S
C2059 C2067 1.433 . S
C2060 H2056 0.929 . S
C2060 C2062 1.378 . S
C2060 C2064 1.350 . S
C2061 C2064 1.463 . S
C2061 C2066 1.350 . S
C2061 N2069 1.427 . S
C2062 H2053 0.930 . S
C2062 C2060 1.378 . S
C2062 C2063 1.367 . S
C2063 C2062 1.367 . S
C2063 C2065 1.433 . S
C2064 C2060 1.350 . S
C2064 C2061 1.463 . S
C2064 N2068 1.427 . S
C2065 H2055 0.929 . S
C2065 C2063 1.433 . S
C2065 N2068 1.384 . S
C2066 H2057 0.929 . S
C2066 C2058 1.378 . S
C2066 C2061 1.350 . S
C2067 H2054 0.929 . S
C2067 C2059 1.433 . S
C2067 N2069 1.384 . S
N2068 C2064 1.427 . S
N2068 C2065 1.384 . S
N2069 C2061 1.427 . S
N2069 C2067 1.384 . S
H2070 C2076 0.930 . S
H2071 C2080 0.930 . S
H2072 C2085 0.929 . S
H2073 C2083 0.929 . S
H2074 C2078 0.929 . S
H2075 C2084 0.929 . S
C2076 H2070 0.930 . S
C2076 C2077 1.367 . S
C2076 C2084 1.378 . S
C2077 C2076 1.367 . S
C2077 C2085 1.433 . S
C2078 H2074 0.929 . S
C2078 C2080 1.378 . S
C2078 C2082 1.350 . S
C2079 C2082 1.463 . S
C2079 C2084 1.350 . S
C2079 N2087 1.427 . S
C2080 H2071 0.930 . S
C2080 C2078 1.378 . S
C2080 C2081 1.367 . S
C2081 C2080 1.367 . S
C2081 C2083 1.433 . S
C2082 C2078 1.350 . S
C2082 C2079 1.463 . S
C2082 N2086 1.427 . S
C2083 H2073 0.929 . S
C2083 C2081 1.433 . S
C2083 N2086 1.384 . S
C2084 H2075 0.929 . S
C2084 C2076 1.378 . S
C2084 C2079 1.350 . S
C2085 H2072 0.929 . S
C2085 C2077 1.433 . S
C2085 N2087 1.384 . S
N2086 C2082 1.427 . S
N2086 C2083 1.384 . S
N2087 C2079 1.427 . S
N2087 C2085 1.384 . S
H2088 C2094 0.930 . S
H2089 C2098 0.930 . S
H2090 C2103 0.929 . S
H2091 C2101 0.929 . S
H2092 C2096 0.929 . S
H2093 C2102 0.929 . S
C2094 H2088 0.930 . S
C2094 C2095 1.367 . S
C2094 C2102 1.378 . S
C2095 C2094 1.367 . S
C2095 C2103 1.433 . S
C2096 H2092 0.929 . S
C2096 C2098 1.378 . S
C2096 C2100 1.350 . S
C2097 C2100 1.463 . S
C2097 C2102 1.350 . S
C2097 N2105 1.427 . S
C2098 H2089 0.930 . S
C2098 C2096 1.378 . S
C2098 C2099 1.367 . S
C2099 C2098 1.367 . S
C2099 C2101 1.433 . S
C2100 C2096 1.350 . S
C2100 C2097 1.463 . S
C2100 N2104 1.427 . S
C2101 H2091 0.929 . S
C2101 C2099 1.433 . S
C2101 N2104 1.384 . S
C2102 H2093 0.929 . S
C2102 C2094 1.378 . S
C2102 C2097 1.350 . S
C2103 H2090 0.929 . S
C2103 C2095 1.433 . S
C2103 N2105 1.384 . S
N2104 C2100 1.427 . S
N2104 C2101 1.384 . S
N2105 C2097 1.427 . S
N2105 C2103 1.384 . S
H2106 C2112 0.930 . S
H2107 C2116 0.930 . S
H2108 C2121 0.929 . S
H2109 C2119 0.929 1_545 S
H2110 C2114 0.929 . S
H2111 C2120 0.929 . S
C2112 H2106 0.930 . S
C2112 C2113 1.367 . S
C2112 C2120 1.378 . S
C2113 C2112 1.367 . S
C2113 C2121 1.433 . S
C2114 H2110 0.929 . S
C2114 C2116 1.378 . S
C2114 C2118 1.350 . S
C2115 C2118 1.463 . S
C2115 C2120 1.350 . S
C2115 N2123 1.427 . S
C2116 H2107 0.930 . S
C2116 C2114 1.378 . S
C2116 C2117 1.367 . S
C2117 C2116 1.367 . S
C2117 C2119 1.433 . S
C2118 C2114 1.350 . S
C2118 C2115 1.463 . S
C2118 N2122 1.427 . S
C2119 H2109 0.929 1_565 S
C2119 C2117 1.433 . S
C2119 N2122 1.384 . S
C2120 H2111 0.929 . S
C2120 C2112 1.378 . S
C2120 C2115 1.350 . S
C2121 H2108 0.929 . S
C2121 C2113 1.433 . S
C2121 N2123 1.384 . S
N2122 C2118 1.427 . S
N2122 C2119 1.384 . S
N2123 C2115 1.427 . S
N2123 C2121 1.384 . S
H2124 C2130 0.930 . S
H2125 C2134 0.942 . S
H2126 C2139 0.929 . S
H2127 C2137 0.929 . S
H2128 C2132 0.929 . S
H2129 C2138 0.929 . S
C2130 H2124 0.930 . S
C2130 C2131 1.367 . S
C2130 C2138 1.378 . S
C2131 C2130 1.367 . S
C2131 C2139 1.433 . S
C2132 H2128 0.929 . S
C2132 C2134 1.378 . S
C2132 C2136 1.350 . S
C2133 C2136 1.463 . S
C2133 C2138 1.350 . S
C2133 N2141 1.427 . S
C2134 H2125 0.942 . S
C2134 C2132 1.378 . S
C2134 C2135 1.367 . S
C2135 C2134 1.367 . S
C2135 C2137 1.433 . S
C2136 C2132 1.350 . S
C2136 C2133 1.463 . S
C2136 N2140 1.427 . S
C2137 H2127 0.929 . S
C2137 C2135 1.433 . S
C2137 N2140 1.384 . S
C2138 H2129 0.929 . S
C2138 C2130 1.378 . S
C2138 C2133 1.350 . S
C2139 H2126 0.929 . S
C2139 C2131 1.433 . S
C2139 N2141 1.384 . S
N2140 C2136 1.427 . S
N2140 C2137 1.384 . S
N2141 C2133 1.427 . S
N2141 C2139 1.384 . S
H2142 C2148 0.930 . S
H2143 C2152 0.930 . S
H2144 C2157 0.929 . S
H2145 C2155 0.929 . S
H2146 C2150 0.929 . S
H2147 C2156 0.929 . S
C2148 H2142 0.930 . S
C2148 C2149 1.367 . S
C2148 C2156 1.378 . S
C2149 C2148 1.367 . S
C2149 C2157 1.433 . S
C2150 H2146 0.929 . S
C2150 C2152 1.378 . S
C2150 C2154 1.350 . S
C2151 C2154 1.463 . S
C2151 C2156 1.350 . S
C2151 N2159 1.427 . S
C2152 H2143 0.930 . S
C2152 C2150 1.378 . S
C2152 C2153 1.367 . S
C2153 C2152 1.367 . S
C2153 C2155 1.433 . S
C2154 C2150 1.350 . S
C2154 C2151 1.463 . S
C2154 N2158 1.427 . S
C2155 H2145 0.929 . S
C2155 C2153 1.433 . S
C2155 N2158 1.384 . S
C2156 H2147 0.929 . S
C2156 C2148 1.378 . S
C2156 C2151 1.350 . S
C2157 H2144 0.929 . S
C2157 C2149 1.433 . S
C2157 N2159 1.384 . S
N2158 C2154 1.427 . S
N2158 C2155 1.384 . S
N2159 C2151 1.427 . S
N2159 C2157 1.384 . S
H2160 C2166 0.930 . S
H2161 C2170 0.930 . S
H2162 C2175 0.929 . S
H2163 C2173 0.929 . S
H2164 C2168 0.929 . S
H2165 C2174 0.929 . S
C2166 H2160 0.930 . S
C2166 C2167 1.367 . S
C2166 C2174 1.378 . S
C2167 C2166 1.367 . S
C2167 C2175 1.433 . S
C2168 H2164 0.929 . S
C2168 C2170 1.378 . S
C2168 C2172 1.350 . S
C2169 C2172 1.463 . S
C2169 C2174 1.350 . S
C2169 N2177 1.427 . S
C2170 H2161 0.930 . S
C2170 C2168 1.378 . S
C2170 C2171 1.367 . S
C2171 C2170 1.367 . S
C2171 C2173 1.433 . S
C2172 C2168 1.350 . S
C2172 C2169 1.463 . S
C2172 N2176 1.427 . S
C2173 H2163 0.929 . S
C2173 C2171 1.433 . S
C2173 N2176 1.384 . S
C2174 H2165 0.929 . S
C2174 C2166 1.378 . S
C2174 C2169 1.350 . S
C2175 H2162 0.929 . S
C2175 C2167 1.433 . S
C2175 N2177 1.384 . S
N2176 C2172 1.427 . S
N2176 C2173 1.384 . S
N2177 C2169 1.427 . S
N2177 C2175 1.384 . S
H2178 C2184 0.930 . S
H2179 C2188 0.930 . S
H2180 C2193 0.929 . S
H2181 C2191 0.929 . S
H2182 C2186 0.929 . S
H2183 C2192 0.929 . S
C2184 H2178 0.930 . S
C2184 C2185 1.367 . S
C2184 C2192 1.378 . S
C2185 C2184 1.367 . S
C2185 C2193 1.433 . S
C2186 H2182 0.929 . S
C2186 C2188 1.378 . S
C2186 C2190 1.350 . S
C2187 C2190 1.463 . S
C2187 C2192 1.350 . S
C2187 N2195 1.427 . S
C2188 H2179 0.930 . S
C2188 C2186 1.378 . S
C2188 C2189 1.367 . S
C2189 C2188 1.367 . S
C2189 C2191 1.433 . S
C2190 C2186 1.350 . S
C2190 C2187 1.463 . S
C2190 N2194 1.427 . S
C2191 H2181 0.929 . S
C2191 C2189 1.433 . S
C2191 N2194 1.384 . S
C2192 H2183 0.929 . S
C2192 C2184 1.378 . S
C2192 C2187 1.350 . S
C2193 H2180 0.929 . S
C2193 C2185 1.433 . S
C2193 N2195 1.384 . S
N2194 C2190 1.427 . S
N2194 C2191 1.384 . S
N2195 C2187 1.427 . S
N2195 C2193 1.384 . S
H2196 C2202 0.930 . S
H2197 C2206 0.930 . S
H2198 C2211 0.929 . S
H2199 C2209 0.945 . S
H2200 C2204 0.929 . S
H2201 C2210 0.929 . S
C2202 H2196 0.930 . S
C2202 C2203 1.367 . S
C2202 C2210 1.378 . S
C2203 C2202 1.367 . S
C2203 C2211 1.433 . S
C2204 H2200 0.929 . S
C2204 C2206 1.378 . S
C2204 C2208 1.350 . S
C2205 C2208 1.463 . S
C2205 C2210 1.350 . S
C2205 N2213 1.427 . S
C2206 H2197 0.930 . S
C2206 C2204 1.378 . S
C2206 C2207 1.367 . S
C2207 C2206 1.367 . S
C2207 C2209 1.433 . S
C2208 C2204 1.350 . S
C2208 C2205 1.463 . S
C2208 N2212 1.427 . S
C2209 H2199 0.945 . S
C2209 C2207 1.433 . S
C2209 N2212 1.384 . S
C2210 H2201 0.929 . S
C2210 C2202 1.378 . S
C2210 C2205 1.350 . S
C2211 H2198 0.929 . S
C2211 C2203 1.433 . S
C2211 N2213 1.384 . S
N2212 C2208 1.427 . S
N2212 C2209 1.384 . S
N2213 C2205 1.427 . S
N2213 C2211 1.384 . S
H2214 C2220 0.930 . S
H2215 C2224 0.930 . S
H2216 C2229 0.929 . S
H2217 C2227 0.929 . S
H2218 C2222 0.929 . S
H2219 C2228 0.929 . S
C2220 H2214 0.930 . S
C2220 C2221 1.367 . S
C2220 C2228 1.378 . S
C2221 C2220 1.367 . S
C2221 C2229 1.433 . S
C2222 H2218 0.929 . S
C2222 C2224 1.378 . S
C2222 C2226 1.350 . S
C2223 C2226 1.463 . S
C2223 C2228 1.350 . S
C2223 N2231 1.427 . S
C2224 H2215 0.930 . S
C2224 C2222 1.378 . S
C2224 C2225 1.367 . S
C2225 C2224 1.367 . S
C2225 C2227 1.433 . S
C2226 C2222 1.350 . S
C2226 C2223 1.463 . S
C2226 N2230 1.427 . S
C2227 H2217 0.929 . S
C2227 C2225 1.433 . S
C2227 N2230 1.384 . S
C2228 H2219 0.929 . S
C2228 C2220 1.378 . S
C2228 C2223 1.350 . S
C2229 H2216 0.929 . S
C2229 C2221 1.433 . S
C2229 N2231 1.384 . S
N2230 C2226 1.427 . S
N2230 C2227 1.384 . S
N2231 C2223 1.427 . S
N2231 C2229 1.384 . S
H2232 C2238 0.930 . S
H2233 C2242 0.930 . S
H2234 C2247 0.929 . S
H2235 C2245 0.929 . S
H2236 C2240 0.929 . S
H2237 C2246 0.929 . S
C2238 H2232 0.930 . S
C2238 C2239 1.367 . S
C2238 C2246 1.378 . S
C2239 C2238 1.367 . S
C2239 C2247 1.433 . S
C2240 H2236 0.929 . S
C2240 C2242 1.378 . S
C2240 C2244 1.350 . S
C2241 C2244 1.463 . S
C2241 C2246 1.350 . S
C2241 N2249 1.427 . S
C2242 H2233 0.930 . S
C2242 C2240 1.378 . S
C2242 C2243 1.367 . S
C2243 C2242 1.367 . S
C2243 C2245 1.433 . S
C2244 C2240 1.350 . S
C2244 C2241 1.463 . S
C2244 N2248 1.427 . S
C2245 H2235 0.929 . S
C2245 C2243 1.433 . S
C2245 N2248 1.384 . S
C2246 H2237 0.929 . S
C2246 C2238 1.378 . S
C2246 C2241 1.350 . S
C2247 H2234 0.929 . S
C2247 C2239 1.433 . S
C2247 N2249 1.384 . S
N2248 C2244 1.427 . S
N2248 C2245 1.384 . S
N2249 C2241 1.427 . S
N2249 C2247 1.384 . S
H2250 C2256 0.930 . S
H2251 C2260 0.930 . S
H2252 C2265 0.929 . S
H2253 C2263 0.929 . S
H2254 C2258 0.929 . S
H2255 C2264 0.929 . S
C2256 H2250 0.930 . S
C2256 C2257 1.367 . S
C2256 C2264 1.378 . S
C2257 C2256 1.367 . S
C2257 C2265 1.433 . S
C2258 H2254 0.929 . S
C2258 C2260 1.378 . S
C2258 C2262 1.350 . S
C2259 C2262 1.463 . S
C2259 C2264 1.350 . S
C2259 N2267 1.427 . S
C2260 H2251 0.930 . S
C2260 C2258 1.378 . S
C2260 C2261 1.367 . S
C2261 C2260 1.367 . S
C2261 C2263 1.433 . S
C2262 C2258 1.350 . S
C2262 C2259 1.463 . S
C2262 N2266 1.427 . S
C2263 H2253 0.929 . S
C2263 C2261 1.433 . S
C2263 N2266 1.384 . S
C2264 H2255 0.929 . S
C2264 C2256 1.378 . S
C2264 C2259 1.350 . S
C2265 H2252 0.929 . S
C2265 C2257 1.433 . S
C2265 N2267 1.384 . S
N2266 C2262 1.427 . S
N2266 C2263 1.384 . S
N2267 C2259 1.427 . S
N2267 C2265 1.384 . S
H2268 C2274 0.930 . S
H2269 C2278 0.930 . S
H2270 C2283 0.929 . S
H2271 C2281 0.929 . S
H2272 C2276 0.929 . S
H2273 C2282 0.929 . S
C2274 H2268 0.930 . S
C2274 C2275 1.367 . S
C2274 C2282 1.378 . S
C2275 C2274 1.367 . S
C2275 C2283 1.433 . S
C2276 H2272 0.929 . S
C2276 C2278 1.378 . S
C2276 C2280 1.350 . S
C2277 C2280 1.463 . S
C2277 C2282 1.350 . S
C2277 N2285 1.427 . S
C2278 H2269 0.930 . S
C2278 C2276 1.378 . S
C2278 C2279 1.367 . S
C2279 C2278 1.367 . S
C2279 C2281 1.433 . S
C2280 C2276 1.350 . S
C2280 C2277 1.463 . S
C2280 N2284 1.427 . S
C2281 H2271 0.929 . S
C2281 C2279 1.433 . S
C2281 N2284 1.384 . S
C2282 H2273 0.929 . S
C2282 C2274 1.378 . S
C2282 C2277 1.350 . S
C2283 H2270 0.929 . S
C2283 C2275 1.433 . S
C2283 N2285 1.384 . S
N2284 C2280 1.427 . S
N2284 C2281 1.384 . S
N2285 C2277 1.427 . S
N2285 C2283 1.384 . S
H2286 C2292 0.930 . S
H2287 C2296 0.930 . S
H2288 C2301 0.929 . S
H2289 C2299 0.929 . S
H2290 C2294 0.929 . S
H2291 C2300 0.929 . S
C2292 H2286 0.930 . S
C2292 C2293 1.367 . S
C2292 C2300 1.378 . S
C2293 C2292 1.367 . S
C2293 C2301 1.433 . S
C2294 H2290 0.929 . S
C2294 C2296 1.378 . S
C2294 C2298 1.350 . S
C2295 C2298 1.463 . S
C2295 C2300 1.350 . S
C2295 N2303 1.427 . S
C2296 H2287 0.930 . S
C2296 C2294 1.378 . S
C2296 C2297 1.367 . S
C2297 C2296 1.367 . S
C2297 C2299 1.433 . S
C2298 C2294 1.350 . S
C2298 C2295 1.463 . S
C2298 N2302 1.427 . S
C2299 H2289 0.929 . S
C2299 C2297 1.433 . S
C2299 N2302 1.384 . S
C2300 H2291 0.929 . S
C2300 C2292 1.378 . S
C2300 C2295 1.350 . S
C2301 H2288 0.929 . S
C2301 C2293 1.433 . S
C2301 N2303 1.384 . S
N2302 C2298 1.427 . S
N2302 C2299 1.384 . S
N2303 C2295 1.427 . S
N2303 C2301 1.384 . S
H2304 C2310 0.930 . S
H2305 C2314 0.930 . S
H2306 C2319 0.929 . S
H2307 C2317 0.929 . S
H2308 C2312 0.929 . S
H2309 C2318 0.929 . S
C2310 H2304 0.930 . S
C2310 C2311 1.367 . S
C2310 C2318 1.378 . S
C2311 C2310 1.367 . S
C2311 C2319 1.433 . S
C2312 H2308 0.929 . S
C2312 C2314 1.378 . S
C2312 C2316 1.350 . S
C2313 C2316 1.463 . S
C2313 C2318 1.350 . S
C2313 N2321 1.427 . S
C2314 H2305 0.930 . S
C2314 C2312 1.378 . S
C2314 C2315 1.367 . S
C2315 C2314 1.367 . S
C2315 C2317 1.433 . S
C2316 C2312 1.350 . S
C2316 C2313 1.463 . S
C2316 N2320 1.427 . S
C2317 H2307 0.929 . S
C2317 C2315 1.433 . S
C2317 N2320 1.384 . S
C2318 H2309 0.929 . S
C2318 C2310 1.378 . S
C2318 C2313 1.350 . S
C2319 H2306 0.929 . S
C2319 C2311 1.433 . S
C2319 N2321 1.384 . S
N2320 C2316 1.427 . S
N2320 C2317 1.384 . S
N2321 C2313 1.427 . S
N2321 C2319 1.384 . S
H2322 C2328 0.930 . S
H2323 C2332 0.930 . S
H2324 C2337 0.929 . S
H2325 C2335 0.929 . S
H2326 C2330 0.929 . S
H2327 C2336 0.929 . S
C2328 H2322 0.930 . S
C2328 C2329 1.367 . S
C2328 C2336 1.378 . S
C2329 C2328 1.367 . S
C2329 C2337 1.433 . S
C2330 H2326 0.929 . S
C2330 C2332 1.378 . S
C2330 C2334 1.350 . S
C2331 C2334 1.463 . S
C2331 C2336 1.350 . S
C2331 N2339 1.427 . S
C2332 H2323 0.930 . S
C2332 C2330 1.378 . S
C2332 C2333 1.367 . S
C2333 C2332 1.367 . S
C2333 C2335 1.433 . S
C2334 C2330 1.350 . S
C2334 C2331 1.463 . S
C2334 N2338 1.427 . S
C2335 H2325 0.929 . S
C2335 C2333 1.433 . S
C2335 N2338 1.384 . S
C2336 H2327 0.929 . S
C2336 C2328 1.378 . S
C2336 C2331 1.350 . S
C2337 H2324 0.929 . S
C2337 C2329 1.433 . S
C2337 N2339 1.384 . S
N2338 C2334 1.427 . S
N2338 C2335 1.384 . S
N2339 C2331 1.427 . S
N2339 C2337 1.384 . S
H2340 C2346 0.930 . S
H2341 C2350 0.930 . S
H2342 C2355 0.929 . S
H2343 C2353 0.929 . S
H2344 C2348 0.929 . S
H2345 C2354 0.929 . S
C2346 H2340 0.930 . S
C2346 C2347 1.367 . S
C2346 C2354 1.378 . S
C2347 C2346 1.367 . S
C2347 C2355 1.433 . S
C2348 H2344 0.929 . S
C2348 C2350 1.378 . S
C2348 C2352 1.350 . S
C2349 C2352 1.463 . S
C2349 C2354 1.350 . S
C2349 N2357 1.427 . S
C2350 H2341 0.930 . S
C2350 C2348 1.378 . S
C2350 C2351 1.367 . S
C2351 C2350 1.367 . S
C2351 C2353 1.433 . S
C2352 C2348 1.350 . S
C2352 C2349 1.463 . S
C2352 N2356 1.427 . S
C2353 H2343 0.929 . S
C2353 C2351 1.433 . S
C2353 N2356 1.384 . S
C2354 H2345 0.929 . S
C2354 C2346 1.378 . S
C2354 C2349 1.350 . S
C2355 H2342 0.929 . S
C2355 C2347 1.433 . S
C2355 N2357 1.384 . S
N2356 C2352 1.427 . S
N2356 C2353 1.384 . S
N2357 C2349 1.427 . S
N2357 C2355 1.384 . S
H2358 C2364 0.930 . S
H2359 C2368 0.930 . S
H2360 C2373 0.929 . S
H2361 C2371 0.929 . S
H2362 C2366 0.929 . S
H2363 C2372 0.929 . S
C2364 H2358 0.930 . S
C2364 C2365 1.367 . S
C2364 C2372 1.378 . S
C2365 C2364 1.367 . S
C2365 C2373 1.433 . S
C2366 H2362 0.929 . S
C2366 C2368 1.378 . S
C2366 C2370 1.350 . S
C2367 C2370 1.463 . S
C2367 C2372 1.350 . S
C2367 N2375 1.427 . S
C2368 H2359 0.930 . S
C2368 C2366 1.378 . S
C2368 C2369 1.367 . S
C2369 C2368 1.367 . S
C2369 C2371 1.433 . S
C2370 C2366 1.350 . S
C2370 C2367 1.463 . S
C2370 N2374 1.427 . S
C2371 H2361 0.929 . S
C2371 C2369 1.433 . S
C2371 N2374 1.384 . S
C2372 H2363 0.929 . S
C2372 C2364 1.378 . S
C2372 C2367 1.350 . S
C2373 H2360 0.929 . S
C2373 C2365 1.433 . S
C2373 N2375 1.384 . S
N2374 C2370 1.427 . S
N2374 C2371 1.384 . S
N2375 C2367 1.427 . S
N2375 C2373 1.384 . S
H2376 C2382 0.930 . S
H2377 C2386 0.930 . S
H2378 C2391 0.929 . S
H2379 C2389 0.929 . S
H2380 C2384 0.929 . S
H2381 C2390 0.929 . S
C2382 H2376 0.930 . S
C2382 C2383 1.367 . S
C2382 C2390 1.378 . S
C2383 C2382 1.367 . S
C2383 C2391 1.433 . S
C2384 H2380 0.929 . S
C2384 C2386 1.378 . S
C2384 C2388 1.350 . S
C2385 C2388 1.463 . S
C2385 C2390 1.350 . S
C2385 N2393 1.427 . S
C2386 H2377 0.930 . S
C2386 C2384 1.378 . S
C2386 C2387 1.367 . S
C2387 C2386 1.367 . S
C2387 C2389 1.433 . S
C2388 C2384 1.350 . S
C2388 C2385 1.463 . S
C2388 N2392 1.427 . S
C2389 H2379 0.929 . S
C2389 C2387 1.433 . S
C2389 N2392 1.384 . S
C2390 H2381 0.929 . S
C2390 C2382 1.378 . S
C2390 C2385 1.350 . S
C2391 H2378 0.929 . S
C2391 C2383 1.433 . S
C2391 N2393 1.384 . S
N2392 C2388 1.427 . S
N2392 C2389 1.384 . S
N2393 C2385 1.427 . S
N2393 C2391 1.384 . S
H2394 C2400 0.930 . S
H2395 C2404 0.930 . S
H2396 C2409 0.929 . S
H2397 C2407 0.929 . S
H2398 C2402 0.929 . S
H2399 C2408 0.929 . S
C2400 H2394 0.930 . S
C2400 C2401 1.367 . S
C2400 C2408 1.378 . S
C2401 C2400 1.367 . S
C2401 C2409 1.433 . S
C2402 H2398 0.929 . S
C2402 C2404 1.378 . S
C2402 C2406 1.350 . S
C2403 C2406 1.463 . S
C2403 C2408 1.350 . S
C2403 N2411 1.427 . S
C2404 H2395 0.930 . S
C2404 C2402 1.378 . S
C2404 C2405 1.367 . S
C2405 C2404 1.367 . S
C2405 C2407 1.433 . S
C2406 C2402 1.350 . S
C2406 C2403 1.463 . S
C2406 N2410 1.427 . S
C2407 H2397 0.929 . S
C2407 C2405 1.433 . S
C2407 N2410 1.384 . S
C2408 H2399 0.929 . S
C2408 C2400 1.378 . S
C2408 C2403 1.350 . S
C2409 H2396 0.929 . S
C2409 C2401 1.433 . S
C2409 N2411 1.384 . S
N2410 C2406 1.427 . S
N2410 C2407 1.384 . S
N2411 C2403 1.427 . S
N2411 C2409 1.384 . S
H2412 C2418 0.930 . S
H2413 C2422 0.930 . S
H2414 C2427 0.929 . S
H2415 C2425 0.929 . S
H2416 C2420 0.929 . S
H2417 C2426 0.929 . S
C2418 H2412 0.930 . S
C2418 C2419 1.367 . S
C2418 C2426 1.378 . S
C2419 C2418 1.367 . S
C2419 C2427 1.433 . S
C2420 H2416 0.929 . S
C2420 C2422 1.378 . S
C2420 C2424 1.350 . S
C2421 C2424 1.463 . S
C2421 C2426 1.350 . S
C2421 N2429 1.427 . S
C2422 H2413 0.930 . S
C2422 C2420 1.378 . S
C2422 C2423 1.367 . S
C2423 C2422 1.367 . S
C2423 C2425 1.433 . S
C2424 C2420 1.350 . S
C2424 C2421 1.463 . S
C2424 N2428 1.427 . S
C2425 H2415 0.929 . S
C2425 C2423 1.433 . S
C2425 N2428 1.384 . S
C2426 H2417 0.929 . S
C2426 C2418 1.378 . S
C2426 C2421 1.350 . S
C2427 H2414 0.929 . S
C2427 C2419 1.433 . S
C2427 N2429 1.384 . S
N2428 C2424 1.427 . S
N2428 C2425 1.384 . S
N2429 C2421 1.427 . S
N2429 C2427 1.384 . S
C1465 C528 1.420 . S
C1469 C758 1.349 . S
C1483 C562 1.490 . S
C1487 C842 1.422 . S
C1501 C484 1.470 . S
C1505 C936 1.423 . S
C1519 C445 1.430 . S
C1523 C852 1.388 . S
C1541 C926 1.343 . S
C1537 C367 1.427 . S
C1555 C411 1.394 . S
C1559 C768 1.348 . S
C1577 C769 1.373 . S
C1573 C450 1.438 . S
C1595 C853 1.402 . S
C1591 C372 1.472 . S
C1609 C406 1.475 . S
C1613 C945 1.436 . S
C1627 C523 1.432 . S
C1631 C861 1.396 . S
C1645 C567 1.407 . S
C1649 C937 1.339 . S
C1667 C777 1.375 . S
C1663 C489 1.412 . S
C1685 C1010 1.346 . S
C1681 C60 1.424 . S
C1699 C94 1.487 . S
C1703 C1094 1.408 . S
C1717 C16 1.477 . S
C1721 C1188 1.437 . S
C1735 C679 1.431 . S
C1739 C1104 1.388 . S
C1753 C601 1.427 . S
C1757 C1178 1.357 . S
C1771 C645 1.398 . S
C1775 C1020 1.357 . S
C1789 C684 1.437 . S
C1793 C1021 1.374 . S
C1807 C606 1.469 . S
C1811 C1105 1.409 . S
C1829 C1197 1.431 . S
C1825 C640 1.471 . S
C1843 C55 1.427 . S
C1847 C1113 1.384 . S
C1865 C1189 1.327 . S
C1861 C99 1.409 . S
C1879 C21 1.413 . S
C1883 C1029 1.378 . S
C1901 C1262 1.346 . S
C1897 C294 1.424 . S
C1915 C328 1.490 . S
C1919 C1346 1.422 . S
C1937 C1440 1.436 . S
C1933 C250 1.476 . S
C1955 C1356 1.384 . S
C1951 C211 1.429 . S
C1973 C1430 1.356 . S
C1969 C133 1.430 . S
C1987 C177 1.396 . S
C1991 C1272 1.354 . S
C2005 C216 1.440 . S
C2009 C1273 1.363 . S
C2023 C138 1.471 . S
C2027 C1357 1.393 . S
C2045 C1449 1.424 . S
C2041 C172 1.468 . S
C2059 C289 1.431 . S
C2063 C1365 1.393 . S
C2077 C333 1.412 . S
C2081 C1441 1.339 . S
C2095 C255 1.406 . S
C2099 C1281 1.363 . S
C2113 C586 1.464 . S
C2117 C765 1.356 . S
C2135 C849 1.340 . S
C2131 C625 1.495 . S
C2149 C664 1.477 . S
C2153 C942 1.336 . S
C2167 C235 1.507 . S
C2171 C858 1.364 . S
C2185 C274 1.463 . S
C2189 C933 1.325 . S
C2207 C774 1.357 . S
C2203 C313 1.463 . S
C2221 C118 1.464 . S
C2225 C1017 1.344 . S
C2239 C157 1.494 . S
C2243 C1101 1.339 . S
C2257 C196 1.477 . S
C2261 C1194 1.349 . S
C2275 C469 1.507 . S
C2279 C1110 1.364 . S
C2297 C1185 1.343 . S
C2293 C508 1.464 . S
C2311 C547 1.464 . S
C2315 C1026 1.335 . S
C2329 C352 1.463 . S
C2333 C1269 1.354 . S
C2347 C391 1.496 . S
C2351 C1353 1.362 . S
C2369 C1446 1.345 . S
C2365 C430 1.478 . S
C2383 C1 1.506 . S
C2387 C1362 1.360 . S
C2401 C40 1.464 . S
C2405 C1437 1.344 . S
C2419 C79 1.464 . S
C2423 C1278 1.335 . S
