# Generated by pormake.
# Topology ftw, (4,12)-cn, num edge types: 1
# Building blocks:
#     Node 0, Type 0, BuildingBlock: AZAVOO_clean_linker_0, # of connection points: 4
#     Node 1, Type 0, BuildingBlock: AZAVOO_clean_linker_0, # of connection points: 4
#     Node 2, Type 0, BuildingBlock: AZAVOO_clean_linker_0, # of connection points: 4
#     Node 3, Type 1, BuildingBlock: EZIPEK_clean_sbu_0, # of connection points: 12
#     Edge 4, Type (0, 1), BuildingBlock: TEMPAE_clean_linker_10, # of connection points: 2
#     Edge 5, Type (0, 1), BuildingBlock: TEMPAE_clean_linker_10, # of connection points: 2
#     Edge 6, Type (0, 1), BuildingBlock: TEMPAE_clean_linker_10, # of connection points: 2
#     Edge 7, Type (0, 1), BuildingBlock: TEMPAE_clean_linker_10, # of connection points: 2
#     Edge 8, Type (0, 1), BuildingBlock: TEMPAE_clean_linker_10, # of connection points: 2
#     Edge 9, Type (0, 1), BuildingBlock: TEMPAE_clean_linker_10, # of connection points: 2
#     Edge 10, Type (0, 1), BuildingBlock: TEMPAE_clean_linker_10, # of connection points: 2
#     Edge 11, Type (0, 1), BuildingBlock: TEMPAE_clean_linker_10, # of connection points: 2
#     Edge 12, Type (0, 1), BuildingBlock: TEMPAE_clean_linker_10, # of connection points: 2
#     Edge 13, Type (0, 1), BuildingBlock: TEMPAE_clean_linker_10, # of connection points: 2
#     Edge 14, Type (0, 1), BuildingBlock: TEMPAE_clean_linker_10, # of connection points: 2
#     Edge 15, Type (0, 1), BuildingBlock: TEMPAE_clean_linker_10, # of connection points: 2
# Relax obj value: 0.053
# Max RMSD: 0.221
# Mean RMSD: 0.170
data_MOF--net-ftw--node1-EZIPEK_clean_sbu_0--node2-AZAVOO_clean_linker_0--edge1-TEMPAE_clean_linker_10
_symmetry_space_group_name_H-M    P1
_symmetry_Int_Tables_number       1
_symmetry_cell_setting            triclinic
loop_
_symmetry_equiv_pos_as_xyz
'x, y, z'
_cell_length_a     28.442561
_cell_length_b     28.393336
_cell_length_c     28.389572
_cell_angle_alpha  91.611004
_cell_angle_beta   88.423482
_cell_angle_gamma 91.556377
loop_
_atom_site_label
_atom_site_type_symbol
_atom_site_fract_x
_atom_site_fract_y
_atom_site_fract_z
_atom_type_partial_charge
H0 H 0.02135 0.20095 0.39913 0.0
H1 H 0.95368 0.62627 0.79142 0.0
H2 H 0.05907 0.47102 0.39456 0.0
H3 H 0.06245 0.4122 0.32989 0.0
H4 H 0.91257 0.38637 0.34623 0.0
H5 H 0.90952 0.44555 0.41027 0.0
H6 H 0.0603 0.3956 0.4619 0.0
H7 H 0.05852 0.31312 0.43446 0.0
H8 H 0.90979 0.3033 0.46995 0.0
H9 H 0.91211 0.38599 0.4971 0.0
H10 H 0.06193 0.41238 0.56324 0.0
H11 H 0.0649 0.35453 0.62532 0.0
H12 H 0.92033 0.38261 0.66527 0.0
H13 H 0.91741 0.43947 0.60209 0.0
H14 H 0.06291 0.51839 0.60898 0.0
H15 H 0.06548 0.55367 0.68866 0.0
H16 H 0.91696 0.58142 0.68368 0.0
H17 H 0.91491 0.54585 0.60423 0.0
H18 H 0.06639 0.59651 0.53939 0.0
H19 H 0.06573 0.66526 0.5926 0.0
H20 H 0.91603 0.67625 0.57451 0.0
H21 H 0.91701 0.60622 0.52221 0.0
H22 H 0.05998 0.58715 0.43861 0.0
H23 H 0.061 0.6445 0.37574 0.0
H24 H 0.9169 0.60519 0.34525 0.0
H25 H 0.91595 0.54871 0.40901 0.0
O26 O 0.02164 0.23291 0.41192 0.0
O27 O 0.94558 0.22912 0.43219 0.0
O28 O 0.03009 0.59746 0.7607 0.0
O29 O 0.95347 0.61106 0.76048 0.0
C30 C 0.98541 0.48079 0.45624 0.0
C31 C 0.98651 0.44804 0.49286 0.0
C32 C 0.98772 0.46404 0.54014 0.0
C33 C 0.98829 0.51267 0.55099 0.0
C34 C 0.98907 0.5455 0.51431 0.0
C35 C 0.98729 0.52966 0.46681 0.0
C36 C 0.98411 0.46225 0.40709 0.0
C37 C 0.02666 0.45445 0.38245 0.0
C38 C 0.02862 0.4203 0.34615 0.0
C39 C 0.98795 0.39394 0.33397 0.0
C40 C 0.94445 0.40609 0.35489 0.0
C41 C 0.94256 0.44016 0.39122 0.0
C42 C 0.98631 0.39667 0.48127 0.0
C43 C 0.0275 0.37539 0.46414 0.0
C44 C 0.02633 0.32834 0.44835 0.0
C45 C 0.98392 0.30172 0.44963 0.0
C46 C 0.94298 0.32286 0.46828 0.0
C47 C 0.94423 0.36996 0.48404 0.0
C48 C 0.98943 0.42981 0.57827 0.0
C49 C 0.03094 0.40586 0.5854 0.0
C50 C 0.03265 0.37319 0.62104 0.0
C51 C 0.99285 0.36411 0.65019 0.0
C52 C 0.95136 0.3885 0.64302 0.0
C53 C 0.94968 0.42111 0.60726 0.0
C54 C 0.98876 0.52968 0.60095 0.0
C55 C 0.03089 0.53155 0.62548 0.0
C56 C 0.03228 0.55196 0.67082 0.0
C57 C 0.99145 0.57065 0.69242 0.0
C58 C 0.94905 0.56751 0.66807 0.0
C59 C 0.94773 0.5471 0.62277 0.0
C60 C 0.9917 0.59626 0.5274 0.0
C61 C 0.03392 0.61521 0.54502 0.0
C62 C 0.03337 0.65441 0.57571 0.0
C63 C 0.99056 0.67543 0.58873 0.0
C64 C 0.94934 0.66003 0.56597 0.0
C65 C 0.94992 0.62059 0.53542 0.0
C66 C 0.98786 0.56395 0.4284 0.0
C67 C 0.02863 0.59109 0.41841 0.0
C68 C 0.02924 0.62352 0.38226 0.0
C69 C 0.98903 0.62935 0.35545 0.0
C70 C 0.94826 0.6019 0.36557 0.0
C71 C 0.94772 0.56945 0.40172 0.0
C72 C 0.98239 0.25237 0.43089 0.0
C73 C 0.99303 0.59378 0.73992 0.0
H74 H 0.62136 0.97862 0.20909 0.0
H75 H 0.21003 0.0539 0.61237 0.0
H76 H 0.60861 0.94923 0.4805 0.0
H77 H 0.67598 0.94233 0.42545 0.0
H78 H 0.67078 0.09133 0.39956 0.0
H79 H 0.60437 0.09795 0.45535 0.0
H80 H 0.54645 0.94713 0.3997 0.0
H81 H 0.57864 0.94588 0.31889 0.0
H82 H 0.55294 0.09477 0.31005 0.0
H83 H 0.52098 0.09548 0.39111 0.0
H84 H 0.44454 0.94619 0.41046 0.0
H85 H 0.38552 0.94097 0.34928 0.0
H86 H 0.35266 0.08709 0.37739 0.0
H87 H 0.41306 0.09227 0.4373 0.0
H88 H 0.39902 0.94469 0.52374 0.0
H89 H 0.31807 0.94069 0.55544 0.0
H90 H 0.31736 0.09292 0.56575 0.0
H91 H 0.39826 0.09631 0.53403 0.0
H92 H 0.47162 0.94517 0.5991 0.0
H93 H 0.41513 0.94036 0.66513 0.0
H94 H 0.40777 0.09229 0.67029 0.0
H95 H 0.46604 0.09666 0.6057 0.0
H96 H 0.56032 0.94837 0.58651 0.0
H97 H 0.61938 0.94556 0.64732 0.0
H98 H 0.65673 0.09196 0.62459 0.0
H99 H 0.59634 0.09468 0.56482 0.0
O100 O 0.60709 0.97963 0.24043 0.0
O101 O 0.59288 0.05611 0.23743 0.0
O102 O 0.24265 0.9764 0.59007 0.0
O103 O 0.24145 0.05447 0.59836 0.0
C104 C 0.55142 0.0241 0.48696 0.0
C105 C 0.51695 0.02299 0.45184 0.0
C106 C 0.46886 0.02248 0.4648 0.0
C107 C 0.45504 0.02279 0.51273 0.0
C108 C 0.4894 0.02285 0.5479 0.0
C109 C 0.53773 0.02326 0.5351 0.0
C110 C 0.60155 0.02401 0.47157 0.0
C111 C 0.62372 0.98078 0.4649 0.0
C112 C 0.66161 0.97678 0.43281 0.0
C113 C 0.67775 0.01605 0.40724 0.0
C114 C 0.65918 0.06044 0.41864 0.0
C115 C 0.6214 0.06439 0.45079 0.0
C116 C 0.53162 0.02143 0.40119 0.0
C117 C 0.54742 0.97932 0.38005 0.0
C118 C 0.56591 0.97876 0.33396 0.0
C119 C 0.56873 0.02031 0.30813 0.0
C120 C 0.55148 0.06219 0.32904 0.0
C121 C 0.53298 0.06268 0.37519 0.0
C122 C 0.43292 0.01959 0.42811 0.0
C123 C 0.42467 0.97705 0.40314 0.0
C124 C 0.39075 0.97408 0.36854 0.0
C125 C 0.36434 0.0136 0.35856 0.0
C126 C 0.37281 0.0562 0.38382 0.0
C127 C 0.40694 0.05917 0.41826 0.0
C128 C 0.4043 0.02076 0.52657 0.0
C129 C 0.38099 0.97709 0.5322 0.0
C130 C 0.3349 0.97494 0.55053 0.0
C131 C 0.31133 0.01651 0.56338 0.0
C132 C 0.3345 0.06025 0.55637 0.0
C133 C 0.38058 0.06233 0.53801 0.0
C134 C 0.47295 0.02126 0.59773 0.0
C135 C 0.45997 0.97748 0.61636 0.0
C136 C 0.42683 0.9748 0.65339 0.0
C137 C 0.40582 0.01587 0.6719 0.0
C138 C 0.42317 0.05998 0.65684 0.0
C139 C 0.45681 0.06262 0.62014 0.0
C140 C 0.57373 0.02185 0.57172 0.0
C141 C 0.58097 0.97991 0.59504 0.0
C142 C 0.61508 0.97828 0.6294 0.0
C143 C 0.64282 0.01856 0.64087 0.0
C144 C 0.63555 0.06051 0.61711 0.0
C145 C 0.6013 0.0621 0.5828 0.0
C146 C 0.59017 0.01995 0.25985 0.0
C147 C 0.26307 0.01439 0.58464 0.0
H148 H 0.40557 0.19851 0.97135 0.0
H149 H 0.79329 0.61291 0.05541 0.0
H150 H 0.41524 0.45094 0.92561 0.0
H151 H 0.35164 0.39176 0.92252 0.0
H152 H 0.32555 0.41246 0.07233 0.0
H153 H 0.39074 0.47025 0.07523 0.0
H154 H 0.49323 0.38364 0.93693 0.0
H155 H 0.46243 0.30225 0.93796 0.0
H156 H 0.42979 0.31899 0.08708 0.0
H157 H 0.46071 0.40025 0.08546 0.0
H158 H 0.59977 0.43621 0.93875 0.0
H159 H 0.66097 0.37745 0.94104 0.0
H160 H 0.62279 0.35174 0.08674 0.0
H161 H 0.56268 0.41177 0.08442 0.0
H162 H 0.60772 0.53798 0.93256 0.0
H163 H 0.68735 0.57278 0.93438 0.0
H164 H 0.68781 0.55613 0.08532 0.0
H165 H 0.60805 0.52152 0.08293 0.0
H166 H 0.5293 0.60014 0.92877 0.0
H167 H 0.58276 0.66873 0.925 0.0
H168 H 0.59504 0.66802 0.07643 0.0
H169 H 0.53976 0.60105 0.07988 0.0
H170 H 0.44313 0.5792 0.92775 0.0
H171 H 0.38294 0.63892 0.92483 0.0
H172 H 0.34838 0.61815 0.07226 0.0
H173 H 0.41037 0.56035 0.07518 0.0
O174 O 0.41943 0.23003 0.97209 0.0
O175 O 0.40733 0.23892 0.0495 0.0
O176 O 0.7612 0.60378 0.97559 0.0
O177 O 0.76249 0.59774 0.05347 0.0
C178 C 0.45671 0.48216 0.00534 0.0
C179 C 0.49225 0.44862 0.00912 0.0
C180 C 0.53984 0.46336 0.00959 0.0
C181 C 0.55199 0.51159 0.00709 0.0
C182 C 0.51634 0.54529 0.00495 0.0
C183 C 0.46859 0.53063 0.00381 0.0
C184 C 0.40762 0.46465 0.00064 0.0
C185 C 0.39423 0.44439 0.95729 0.0
C186 C 0.35805 0.41025 0.9557 0.0
C187 C 0.33446 0.39649 0.99745 0.0
C188 C 0.344 0.42146 0.03979 0.0
C189 C 0.38053 0.45525 0.0414 0.0
C190 C 0.47914 0.39768 0.0111 0.0
C191 C 0.48008 0.36935 0.96989 0.0
C192 C 0.46219 0.32302 0.97055 0.0
C193 C 0.44333 0.30422 0.01255 0.0
C194 C 0.44396 0.33237 0.05413 0.0
C195 C 0.46175 0.3787 0.05337 0.0
C196 C 0.57701 0.42812 0.01142 0.0
C197 C 0.60494 0.41804 0.97119 0.0
C198 C 0.63953 0.38427 0.97249 0.0
C199 C 0.64656 0.35986 0.01404 0.0
C200 C 0.61855 0.37031 0.05439 0.0
C201 C 0.58406 0.40426 0.05308 0.0
C202 C 0.60221 0.52739 0.00762 0.0
C203 C 0.62534 0.5414 0.96587 0.0
C204 C 0.67073 0.5614 0.96706 0.0
C205 C 0.69382 0.56759 0.01008 0.0
C206 C 0.67097 0.55209 0.05165 0.0
C207 C 0.62557 0.53204 0.05038 0.0
C208 C 0.5307 0.59572 0.0046 0.0
C209 C 0.54122 0.61663 0.96133 0.0
C210 C 0.57263 0.65518 0.95919 0.0
C211 C 0.59426 0.67286 0.00026 0.0
C212 C 0.57908 0.65534 0.04412 0.0
C213 C 0.54719 0.61719 0.04625 0.0
C214 C 0.43126 0.56578 0.00173 0.0
C215 C 0.42276 0.58793 0.95943 0.0
C216 C 0.38799 0.62166 0.95777 0.0
C217 C 0.36073 0.63347 0.99834 0.0
C218 C 0.36915 0.61059 0.04055 0.0
C219 C 0.40424 0.57722 0.04223 0.0
C220 C 0.42237 0.25576 0.01271 0.0
C221 C 0.74121 0.59071 0.0118 0.0
C222 C 0.0058 0.1137 0.89319 0.0
C223 C 0.00573 0.10748 0.11984 0.0
C224 C 0.9954 0.88663 0.8794 0.0
C225 C 0.99836 0.87869 0.10819 0.0
C226 C 0.11235 0.88107 0.99319 0.0
C227 C 0.11866 0.11015 0.0033 0.0
C228 C 0.88385 0.88389 0.99423 0.0
C229 C 0.89209 0.11094 0.01086 0.0
C230 C 0.8886 0.99127 0.11788 0.0
C231 C 0.11558 0.99509 0.11218 0.0
C232 C 0.88947 0.00295 0.88936 0.0
C233 C 0.11778 0.99641 0.88495 0.0
Eu234 Eu 0.0047 0.08465 0.00518 0.0
O235 O 0.04499 0.03644 0.0436 0.0
O236 O 0.96176 0.03937 0.96174 0.0
Eu237 Eu 0.09118 0.99558 0.99881 0.0
Eu238 Eu 0.91331 0.99705 0.00299 0.0
O239 O 0.0462 0.0392 0.95999 0.0
O240 O 0.96136 0.03722 0.04618 0.0
Eu241 Eu 0.00333 -0.00078 0.9116 0.0
Eu242 Eu 0.00199 0.9937 0.08956 0.0
O243 O 0.04294 0.95502 0.95548 0.0
O244 O 0.04222 0.95252 0.03896 0.0
O245 O 0.95893 0.95327 0.041 0.0
O246 O 0.95986 0.95646 0.95777 0.0
Eu247 Eu 0.999 0.90657 0.99532 0.0
O248 O 0.00462 0.12659 0.93872 0.0
O249 O 0.00764 0.12225 0.07572 0.0
O250 O 0.9971 0.8698 0.92286 0.0
O251 O 0.9961 0.86541 0.06276 0.0
O252 O 0.1281 0.92581 0.99489 0.0
O253 O 0.13265 0.06554 1e-05 0.0
O254 O 0.87169 0.92886 0.99686 0.0
O255 O 0.87613 0.06635 0.00929 0.0
O256 O 0.9333 0.99019 0.13047 0.0
O257 O 0.07084 0.99519 0.12753 0.0
O258 O 0.93432 0.0034 0.87411 0.0
O259 O 0.07351 -0.00096 0.87074 0.0
O260 O 0.92769 0.86809 0.99441 0.0
O261 O 0.06718 0.86682 0.99308 0.0
O262 O 0.93722 0.12496 0.00952 0.0
O263 O 0.07424 0.12381 0.00548 0.0
O264 O 0.00209 0.06259 0.13279 0.0
O265 O 0.00164 0.9231 0.12479 0.0
O266 O 0.00658 0.06949 0.87611 0.0
O267 O 0.9972 0.93194 0.86841 0.0
O268 O 0.13107 0.99458 0.92944 0.0
O269 O 0.13026 0.99451 0.06712 0.0
O270 O 0.87464 0.00039 0.93432 0.0
O271 O 0.87367 0.9944 0.07384 0.0
C272 C 0.95908 0.33952 0.2694 0.0
C273 C 0.99169 0.35031 0.30444 0.0
C274 C 0.96142 0.29723 0.24277 0.0
C275 C 0.99707 0.26499 0.25166 0.0
C276 C 0.02953 0.27531 0.2876 0.0
C277 C 0.02649 0.31791 0.3135 0.0
C278 C 0.92634 0.28748 0.20449 0.0
C279 C 0.06799 0.24181 0.29808 0.0
C280 C 0.98183 0.1409 0.1993 0.0
C281 C 0.00747 0.14504 0.15671 0.0
C282 C 0.97892 0.17941 0.23142 0.0
C283 C 0.00272 0.22245 0.22066 0.0
C284 C 0.03059 0.22578 0.17882 0.0
C285 C 0.03238 0.18715 0.14728 0.0
C286 C 0.94896 0.17468 0.27584 0.0
C287 C 0.05714 0.27076 0.1664 0.0
H288 H 0.93208 0.36445 0.26247 0.0
H289 H 0.05108 0.32562 0.34136 0.0
H290 H 0.94493 0.2861 0.16962 0.0
H291 H 0.90854 0.25265 0.20946 0.0
H292 H 0.89917 0.31482 0.20389 0.0
H293 H 0.08858 0.25376 0.3291 0.0
H294 H 0.05273 0.20617 0.30476 0.0
H295 H 0.09241 0.23847 0.26708 0.0
H296 H 0.96242 0.10839 0.20652 0.0
H297 H 0.0528 0.1902 0.11464 0.0
H298 H 0.91852 0.19819 0.27453 0.0
H299 H 0.96941 0.18594 0.30711 0.0
H300 H 0.93547 0.13799 0.28064 0.0
H301 H 0.0318 0.29851 0.15913 0.0
H302 H 0.08074 0.26597 0.13493 0.0
H303 H 0.07863 0.28371 0.19634 0.0
C304 C 0.74506 0.0426 0.35458 0.0
C305 C 0.70874 0.00981 0.36475 0.0
C306 C 0.77212 0.03868 0.31263 0.0
C307 C 0.76252 0.00109 0.28013 0.0
C308 C 0.72584 0.96796 0.29014 0.0
C309 C 0.69941 0.97272 0.33233 0.0
C310 C 0.81109 0.07465 0.30313 0.0
C311 C 0.71465 0.92736 0.25643 0.0
C312 C 0.81113 0.01376 0.15485 0.0
C313 C 0.85338 0.98979 0.157 0.0
C314 C 0.78052 0.01702 0.19448 0.0
C315 C 0.7924 0.99528 0.23674 0.0
C316 C 0.83398 0.96924 0.23824 0.0
C317 C 0.86404 0.96702 0.19845 0.0
C318 C 0.73643 0.04513 0.1917 0.0
C319 C 0.84751 0.94489 0.28234 0.0
H320 H 0.75237 0.0713 0.37952 0.0
H321 H 0.67066 0.94788 0.33944 0.0
H322 H 0.84543 0.05701 0.30036 0.0
H323 H 0.80572 0.09149 0.26897 0.0
H324 H 0.81303 0.10259 0.33125 0.0
H325 H 0.68321 0.90629 0.26817 0.0
H326 H 0.7084 0.9406 0.22081 0.0
H327 H 0.74511 0.90378 0.25311 0.0
H328 H 0.80296 0.0316 0.12293 0.0
H329 H 0.89643 0.9479 0.20003 0.0
H330 H 0.73876 0.07637 0.21599 0.0
H331 H 0.70525 0.02368 0.20319 0.0
H332 H 0.73079 0.05741 0.15551 0.0
H333 H 0.8541 0.97151 0.31092 0.0
H334 H 0.87958 0.92373 0.27673 0.0
H335 H 0.81828 0.92127 0.2947 0.0
C336 C 0.02865 0.66883 0.28648 0.0
C337 C 0.98955 0.66431 0.31741 0.0
C338 C 0.03015 0.70256 0.25122 0.0
C339 C 0.99162 0.7325 0.24676 0.0
C340 C 0.95179 0.72773 0.27745 0.0
C341 C 0.95125 0.6937 0.31241 0.0
C342 C 0.0732 0.70653 0.21908 0.0
C343 C 0.91006 0.75908 0.27383 0.0
C344 C 0.0132 0.85039 0.18898 0.0
C345 C 0.997 0.84103 0.14334 0.0
C346 C 0.01194 0.81529 0.22281 0.0
C347 C 0.99357 0.7698 0.21093 0.0
C348 C 0.97701 0.76009 0.165 0.0
C349 C 0.97919 0.79575 0.13164 0.0
C350 C 0.03036 0.82689 0.27129 0.0
C351 C 0.9567 0.71215 0.15118 0.0
H352 H 0.05807 0.64577 0.28972 0.0
H353 H 0.92117 0.69079 0.33653 0.0
H354 H 0.06301 0.70198 0.18175 0.0
H355 H 0.08977 0.74219 0.22317 0.0
H356 H 0.09976 0.67994 0.22653 0.0
H357 H 0.88112 0.74972 0.29923 0.0
H358 H 0.92109 0.79638 0.28065 0.0
H359 H 0.89627 0.7566 0.23764 0.0
H360 H 0.02735 0.88515 0.19826 0.0
H361 H 0.96624 0.78829 0.09659 0.0
H362 H 0.05902 0.80282 0.27919 0.0
H363 H 0.00195 0.82148 0.29832 0.0
H364 H 0.04406 0.86381 0.2747 0.0
H365 H 0.98338 0.6849 0.15533 0.0
H366 H 0.94484 0.71047 0.11419 0.0
H367 H 0.9263 0.70311 0.17486 0.0
C368 C 0.29797 0.97042 0.31854 0.0
C369 C 0.328 0.01032 0.32203 0.0
C370 C 0.26349 0.9668 0.28418 0.0
C371 C 0.25874 0.00414 0.25282 0.0
C372 C 0.28886 0.04452 0.25615 0.0
C373 C 0.32326 0.04705 0.29063 0.0
C374 C 0.23201 0.92315 0.28157 0.0
C375 C 0.28466 0.08509 0.22336 0.0
C376 C 0.19721 0.98019 0.13741 0.0
C377 C 0.15202 0.99657 0.14828 0.0
C378 C 0.2322 0.98194 0.17131 0.0
C379 C 0.22187 0.00119 0.21683 0.0
C380 C 0.17636 0.01788 0.22797 0.0
C381 C 0.14186 0.01506 0.19363 0.0
C382 C 0.28019 0.9632 0.15844 0.0
C383 C 0.16427 0.03918 0.27599 0.0
H384 H 0.301 0.94221 0.34313 0.0
H385 H 0.34679 0.07767 0.29271 0.0
H386 H 0.19478 0.93283 0.28775 0.0
H387 H 0.23474 0.90645 0.24582 0.0
H388 H 0.24104 0.8968 0.30784 0.0
H389 H 0.31061 0.11411 0.23083 0.0
H390 H 0.29001 0.07261 0.18628 0.0
H391 H 0.24876 0.0994 0.22661 0.0
H392 H 0.20513 0.96552 0.10252 0.0
H393 H 0.10712 0.0282 0.2021 0.0
H394 H 0.28904 0.93519 0.18294 0.0
H395 H 0.30732 0.99177 0.16212 0.0
H396 H 0.2822 0.94847 0.12178 0.0
H397 H 0.16986 0.01322 0.30363 0.0
H398 H 0.12724 0.05067 0.2789 0.0
H399 H 0.18788 0.0701 0.2834 0.0
C400 C 0.02379 0.7422 0.63834 0.0
C401 C 0.9881 0.7081 0.63042 0.0
C402 C 0.02414 0.76984 0.68008 0.0
C403 C 0.98776 0.76339 0.71454 0.0
C404 C 0.95133 0.72946 0.70655 0.0
C405 C 0.95202 0.70213 0.66466 0.0
C406 C 0.06361 0.80571 0.68746 0.0
C407 C 0.91166 0.72198 0.74224 0.0
C408 C 0.01088 0.80855 0.83938 0.0
C409 C 0.99065 0.85295 0.83917 0.0
C410 C 0.00973 0.77856 0.79913 0.0
C411 C 0.98715 0.79324 0.75833 0.0
C412 C 0.96505 0.83725 0.75877 0.0
C413 C 0.96735 0.86667 0.79905 0.0
C414 C 0.0338 0.73186 0.79975 0.0
C415 C 0.93982 0.85378 0.71634 0.0
H416 H 0.05165 0.74706 0.61197 0.0
H417 H 0.92489 0.67512 0.65934 0.0
H418 H 0.04913 0.84153 0.69155 0.0
H419 H 0.08194 0.79851 0.7204 0.0
H420 H 0.08981 0.8056 0.6577 0.0
H421 H 0.88748 0.69235 0.73183 0.0
H422 H 0.92592 0.71474 0.77721 0.0
H423 H 0.89107 0.75454 0.7464 0.0
H424 H 0.02901 0.79797 0.87031 0.0
H425 H 0.95099 0.90073 0.79903 0.0
H426 H 0.06323 0.73148 0.77327 0.0
H427 H 0.00886 0.7028 0.78981 0.0
H428 H 0.04796 0.72473 0.83485 0.0
H429 H 0.96528 0.8583 0.68639 0.0
H430 H 0.92213 0.88777 0.72346 0.0
H431 H 0.91303 0.82697 0.7051 0.0
C432 C 0.32732 0.97837 0.69106 0.0
C433 C 0.36238 0.01242 0.702 0.0
C434 C 0.28532 0.97513 0.71787 0.0
C435 C 0.27782 0.00712 0.75622 0.0
C436 C 0.31254 0.04223 0.76693 0.0
C437 C 0.35452 0.04435 0.73979 0.0
C438 C 0.24927 0.93706 0.70551 0.0
C439 C 0.30558 0.07717 0.80747 0.0
C440 C 0.15423 0.02211 0.80825 0.0
C441 C 0.15631 0.99586 0.84914 0.0
C442 C 0.19343 0.02579 0.77717 0.0
C443 C 0.23506 0.00198 0.78705 0.0
C444 C 0.23643 0.97385 0.8273 0.0
C445 C 0.19718 0.97142 0.85798 0.0
C446 C 0.19088 0.05631 0.73468 0.0
C447 C 0.27975 0.94709 0.83857 0.0
H448 H 0.33243 0.95446 0.66103 0.0
H449 H 0.38139 0.07074 0.74842 0.0
H450 H 0.24302 0.91372 0.73588 0.0
H451 H 0.21523 0.95307 0.698 0.0
H452 H 0.26043 0.91514 0.67437 0.0
H453 H 0.33461 0.10407 0.80934 0.0
H454 H 0.27188 0.09541 0.80403 0.0
H455 H 0.30344 0.05835 0.84122 0.0
H456 H 0.12273 0.04127 0.80159 0.0
H457 H 0.19864 0.95061 0.88935 0.0
H458 H 0.19969 0.03557 0.7021 0.0
H459 H 0.21723 0.08574 0.73735 0.0
H460 H 0.1555 0.0713 0.73119 0.0
H461 H 0.2904 0.9242 0.80802 0.0
H462 H 0.27409 0.92478 0.86986 0.0
H463 H 0.30946 0.97224 0.84549 0.0
C464 C 0.95704 0.2964 0.69422 0.0
C465 C 0.99453 0.32882 0.68752 0.0
C466 C 0.95868 0.26203 0.72856 0.0
C467 C 0.99885 0.26001 0.75668 0.0
C468 C 0.03664 0.29287 0.75041 0.0
C469 C 0.03398 0.32698 0.71591 0.0
C470 C 0.91772 0.2275 0.73435 0.0
C471 C 0.08001 0.29172 0.77984 0.0
C472 C 0.98723 0.19565 0.87174 0.0
C473 C 0.00531 0.15157 0.85869 0.0
C474 C 0.98494 0.23137 0.83888 0.0
C475 C 0.00168 0.22289 0.7921 0.0
C476 C 0.02063 0.17873 0.77889 0.0
C477 C 0.02195 0.14345 0.81232 0.0
C478 C 0.96403 0.27791 0.85404 0.0
C479 C 0.03927 0.16864 0.7294 0.0
H480 H 0.92675 0.29732 0.67195 0.0
H481 H 0.06275 0.3524 0.71128 0.0
H482 H 0.92956 0.19109 0.72672 0.0
H483 H 0.90402 0.22878 0.77132 0.0
H484 H 0.8885 0.23477 0.71064 0.0
H485 H 0.10611 0.32009 0.77081 0.0
H486 H 0.0701 0.29554 0.8178 0.0
H487 H 0.09705 0.25719 0.77467 0.0
H488 H 0.9739 0.20197 0.90745 0.0
H489 H 0.03631 0.10955 0.80215 0.0
H490 H 0.93299 0.28459 0.8326 0.0
H491 H 0.99001 0.30707 0.84783 0.0
H492 H 0.95291 0.27892 0.89187 0.0
H493 H 0.0106 0.1715 0.704 0.0
H494 H 0.05417 0.13294 0.72527 0.0
H495 H 0.06705 0.19512 0.71981 0.0
C496 C 0.70782 0.97734 0.6797 0.0
C497 C 0.67923 0.01669 0.67742 0.0
C498 C 0.74196 0.97484 0.71427 0.0
C499 C 0.74786 0.0127 0.74727 0.0
C500 C 0.71932 0.05262 0.74507 0.0
C501 C 0.6853 0.0541 0.71025 0.0
C502 C 0.77179 0.93169 0.71542 0.0
C503 C 0.72463 0.09373 0.77962 0.0
C504 C 0.80689 0.98938 0.86259 0.0
C505 C 0.85311 0.00568 0.85322 0.0
C506 C 0.77229 0.99134 0.8284 0.0
C507 C 0.78407 0.01058 0.78398 0.0
C508 C 0.83055 0.02749 0.77448 0.0
C509 C 0.86458 0.02454 0.80908 0.0
C510 C 0.72327 0.97238 0.83964 0.0
C511 C 0.84435 0.0488 0.72778 0.0
H512 H 0.70387 0.9486 0.65406 0.0
H513 H 0.66297 0.08435 0.70914 0.0
H514 H 0.8095 0.94192 0.71061 0.0
H515 H 0.76762 0.91514 0.75029 0.0
H516 H 0.7624 0.90504 0.68762 0.0
H517 H 0.70007 0.12238 0.77283 0.0
H518 H 0.71803 0.08169 0.8161 0.0
H519 H 0.76119 0.10835 0.7777 0.0
H520 H 0.79783 0.97439 0.89645 0.0
H521 H 0.90011 0.0376 0.80169 0.0
H522 H 0.71443 0.94273 0.81487 0.0
H523 H 0.6972 9e-05 0.8349 0.0
H524 H 0.71951 0.95969 0.87624 0.0
H525 H 0.83872 0.02244 0.69876 0.0
H526 H 0.88174 0.0612 0.72633 0.0
H527 H 0.82177 0.07906 0.72124 0.0
C528 C 0.30894 0.32068 0.03413 0.0
C529 C 0.30467 0.35277 0.99785 0.0
C530 C 0.2823 0.27848 0.03472 0.0
C531 C 0.251 0.26781 0.99785 0.0
C532 C 0.24741 0.29936 0.96043 0.0
C533 C 0.27417 0.34161 0.96098 0.0
C534 C 0.28694 0.24578 0.07529 0.0
C535 C 0.21428 0.28912 0.92053 0.0
C536 C 0.19928 0.14337 0.98321 0.0
C537 C 0.15459 0.1487 0.00443 0.0
C538 C 0.23148 0.1818 0.98098 0.0
C539 C 0.21858 0.22611 0.00085 0.0
C540 C 0.17401 0.23117 0.02339 0.0
C541 C 0.14268 0.19246 0.02494 0.0
C542 C 0.27867 0.1754 0.95636 0.0
C543 C 0.15916 0.27761 0.04565 0.0
H544 H 0.33351 0.32835 0.062 0.0
H545 H 0.27072 0.36621 0.93285 0.0
H546 H 0.25277 0.24235 0.09486 0.0
H547 H 0.29618 0.21007 0.06184 0.0
H548 H 0.31415 0.25849 0.10032 0.0
H549 H 0.21858 0.31518 0.89217 0.0
H550 H 0.22018 0.25337 0.90507 0.0
H551 H 0.17737 0.2897 0.93422 0.0
H552 H 0.20852 0.10968 0.96711 0.0
H553 H 0.10845 0.19668 0.04205 0.0
H554 H 0.30741 0.18611 0.98036 0.0
H555 H 0.28181 0.19851 0.92549 0.0
H556 H 0.28389 0.13838 0.94404 0.0
H557 H 0.18198 0.28702 0.07575 0.0
H558 H 0.12197 0.27645 0.05861 0.0
H559 H 0.1634 0.3062 0.01992 0.0
C560 C 0.31705 0.70172 0.03469 0.0
C561 C 0.32386 0.66963 0.99674 0.0
C562 C 0.28231 0.73584 0.03383 0.0
C563 C 0.254 0.73839 0.9938 0.0
C564 C 0.26081 0.70641 0.95523 0.0
C565 C 0.29544 0.67226 0.95728 0.0
C566 C 0.27594 0.76921 0.07576 0.0
C567 C 0.23148 0.70824 0.91181 0.0
C568 C 0.13674 0.79893 0.00821 0.0
C569 C 0.14815 0.84415 0.99201 0.0
C570 C 0.17083 0.76414 0.00893 0.0
C571 C 0.21725 0.77461 0.99236 0.0
C572 C 0.22877 0.81992 0.97517 0.0
C573 C 0.19418 0.85425 0.97552 0.0
C574 C 0.15736 0.71644 0.02816 0.0
C575 C 0.27769 0.8322 0.95653 0.0
H576 H 0.33929 0.70058 0.065 0.0
H577 H 0.29987 0.64723 0.92808 0.0
H578 H 0.28223 0.8061 0.06481 0.0
H579 H 0.23922 0.76643 0.08982 0.0
H580 H 0.30018 0.76196 0.10456 0.0
H581 H 0.24182 0.68147 0.88444 0.0
H582 H 0.19376 0.7023 0.92144 0.0
H583 H 0.23504 0.74368 0.89641 0.0
H584 H 0.10135 0.79099 0.02137 0.0
H585 H 0.20315 0.88898 0.96252 0.0
H586 H 0.17917 0.70937 0.05886 0.0
H587 H 0.1644 0.68842 0.00107 0.0
H588 H 0.11967 0.71384 0.03939 0.0
H589 H 0.28073 0.86883 0.94379 0.0
H590 H 0.28744 0.80757 0.92705 0.0
H591 H 0.30359 0.8282 0.98456 0.0
C592 C 0.71194 0.32063 0.05384 0.0
C593 C 0.68273 0.32332 0.01505 0.0
C594 C 0.7464 0.28631 0.05501 0.0
C595 C 0.75179 0.25414 0.01639 0.0
C596 C 0.72237 0.25659 0.97719 0.0
C597 C 0.68808 0.29109 0.97707 0.0
C598 C 0.77717 0.2846 0.09742 0.0
C599 C 0.72714 0.22281 0.93537 0.0
C600 C 0.86781 0.19306 0.99706 0.0
C601 C 0.85671 0.148 0.01376 0.0
C602 C 0.83404 0.22812 0.99803 0.0
C603 C 0.78836 0.21795 0.01672 0.0
C604 C 0.77724 0.17283 0.03453 0.0
C605 C 0.8115 0.13823 0.03252 0.0
C606 C 0.84697 0.27571 0.97823 0.0
C607 C 0.72904 0.16094 0.05527 0.0
H608 H 0.70829 0.34581 0.08304 0.0
H609 H 0.6651 0.29254 0.94734 0.0
H610 H 0.77398 0.24928 0.11314 0.0
H611 H 0.8146 0.29029 0.08651 0.0
H612 H 0.76784 0.3116 0.12493 0.0
H613 H 0.70171 0.22972 0.90752 0.0
H614 H 0.7633 0.22552 0.91982 0.0
H615 H 0.72141 0.18604 0.94688 0.0
H616 H 0.90263 0.20066 0.98219 0.0
H617 H 0.80293 0.10357 0.04591 0.0
H618 H 0.84084 0.30387 0.0054 0.0
H619 H 0.8242 0.2827 0.94823 0.0
H620 H 0.88432 0.27816 0.96577 0.0
H621 H 0.71989 0.18667 0.08398 0.0
H622 H 0.72681 0.12491 0.06961 0.0
H623 H 0.70224 0.16346 0.02786 0.0
C624 C 0.67135 0.69543 0.96176 0.0
C625 C 0.63673 0.70425 0.99689 0.0
C626 C 0.71333 0.72235 0.9597 0.0
C627 C 0.72115 0.75866 0.99389 0.0
C628 C 0.68656 0.76764 0.02963 0.0
C629 C 0.64464 0.74044 0.03057 0.0
C630 C 0.74922 0.71201 0.92084 0.0
C631 C 0.69387 0.80598 0.06686 0.0
C632 C 0.84537 0.80639 0.01385 0.0
C633 C 0.84452 0.84929 0.9908 0.0
C634 C 0.80553 0.776 0.01471 0.0
C635 C 0.7646 0.78867 0.99118 0.0
C636 C 0.76453 0.83101 0.96611 0.0
C637 C 0.80435 0.86098 0.96659 0.0
C638 C 0.80666 0.7312 0.04203 0.0
C639 C 0.72199 0.84525 0.93968 0.0
H640 H 0.66613 0.66673 0.93633 0.0
H641 H 0.61803 0.74749 0.05773 0.0
H642 H 0.75513 0.74358 0.89905 0.0
H643 H 0.78344 0.70386 0.93612 0.0
H644 H 0.73808 0.68192 0.8975 0.0
H645 H 0.66441 0.80717 0.09334 0.0
H646 H 0.72705 0.80045 0.08538 0.0
H647 H 0.69732 0.84077 0.05007 0.0
H648 H 0.87639 0.79753 0.03277 0.0
H649 H 0.80394 0.89395 0.94822 0.0
H650 H 0.79762 0.70036 0.01888 0.0
H651 H 0.77984 0.73229 0.07116 0.0
H652 H 0.84163 0.72579 0.05722 0.0
H653 H 0.71074 0.81641 0.91497 0.0
H654 H 0.72891 0.87769 0.91934 0.0
H655 H 0.69221 0.85164 0.9649 0.0
loop_
_geom_bond_atom_site_label_1
_geom_bond_atom_site_label_2
_geom_bond_distance
_geom_bond_site_symmetry_2
_ccdc_geom_bond_type
H0 O26 0.856 . S
H1 O29 0.854 . S
H2 C37 0.930 . S
H3 C38 0.930 . S
H4 C40 0.930 . S
H5 C41 0.930 . S
H6 C43 0.931 . S
H7 C44 0.930 . S
H8 C46 0.930 . S
H9 C47 0.929 . S
H10 C49 0.930 . S
H11 C50 0.931 . S
H12 C52 0.930 . S
H13 C53 0.929 . S
H14 C55 0.931 . S
H15 C56 0.930 . S
H16 C58 0.930 . S
H17 C59 0.932 . S
H18 C61 0.930 . S
H19 C62 0.929 . S
H20 C64 0.931 . S
H21 C65 0.930 . S
H22 C67 0.929 . S
H23 C68 0.931 . S
H24 C70 0.930 . S
H25 C71 0.929 . S
O26 H0 0.856 . S
O26 C72 1.300 1_455 S
O27 C72 1.209 . S
O28 C73 1.199 1_455 S
O29 H1 0.854 . S
O29 C73 1.297 . S
C30 C31 1.404 . S
C30 C35 1.397 1_655 S
C30 C36 1.492 1_655 S
C31 C30 1.404 . S
C31 C32 1.396 . S
C31 C42 1.492 . S
C32 C31 1.396 . S
C32 C33 1.397 . S
C32 C48 1.509 . S
C33 C32 1.397 . S
C33 C34 1.413 . S
C33 C54 1.485 . S
C34 C33 1.413 . S
C34 C35 1.389 1_655 S
C34 C60 1.490 1_655 S
C35 C30 1.397 1_455 S
C35 C34 1.389 1_455 S
C35 C66 1.519 1_455 S
C36 C30 1.492 1_455 S
C36 C37 1.363 . S
C36 C41 1.390 1_455 S
C37 H2 0.930 . S
C37 C36 1.363 . S
C37 C38 1.372 . S
C38 H3 0.930 . S
C38 C37 1.372 . S
C38 C39 1.383 . S
C39 C38 1.383 . S
C39 C40 1.395 1_455 S
C40 H4 0.930 . S
C40 C39 1.395 1_655 S
C40 C41 1.362 . S
C41 H5 0.930 . S
C41 C36 1.390 1_655 S
C41 C40 1.362 . S
C42 C31 1.492 . S
C42 C43 1.377 1_655 S
C42 C47 1.397 . S
C43 H6 0.931 . S
C43 C42 1.377 1_455 S
C43 C44 1.376 . S
C44 H7 0.930 . S
C44 C43 1.376 . S
C44 C45 1.376 1_455 S
C45 C44 1.376 1_655 S
C45 C46 1.378 . S
C45 C72 1.486 . S
C46 H8 0.930 . S
C46 C45 1.378 . S
C46 C47 1.376 . S
C47 H9 0.929 . S
C47 C42 1.397 . S
C47 C46 1.376 . S
C48 C32 1.509 . S
C48 C49 1.391 1_655 S
C48 C53 1.386 . S
C49 H10 0.930 . S
C49 C48 1.391 1_455 S
C49 C50 1.375 . S
C50 H11 0.931 . S
C50 C49 1.375 . S
C50 C51 1.375 1_455 S
C51 C50 1.375 1_655 S
C51 C52 1.361 . S
C52 H12 0.930 . S
C52 C51 1.361 . S
C52 C53 1.399 . S
C53 H13 0.929 . S
C53 C48 1.386 . S
C53 C52 1.399 . S
C54 C33 1.485 . S
C54 C55 1.394 1_655 S
C54 C59 1.360 . S
C55 H14 0.931 . S
C55 C54 1.394 1_455 S
C55 C56 1.372 . S
C56 H15 0.930 . S
C56 C55 1.372 . S
C56 C57 1.397 1_455 S
C57 C56 1.397 1_655 S
C57 C58 1.390 . S
C57 C73 1.476 . S
C58 H16 0.930 . S
C58 C57 1.390 . S
C58 C59 1.366 . S
C59 H17 0.932 . S
C59 C54 1.360 . S
C59 C58 1.366 . S
C60 C34 1.490 1_455 S
C60 C61 1.380 . S
C60 C65 1.386 1_455 S
C61 H18 0.930 . S
C61 C60 1.380 . S
C61 C62 1.381 . S
C62 H19 0.929 . S
C62 C61 1.381 . S
C62 C63 1.371 . S
C63 C62 1.371 . S
C63 C64 1.380 1_455 S
C64 H20 0.931 . S
C64 C63 1.380 1_655 S
C64 C65 1.387 . S
C65 H21 0.930 . S
C65 C60 1.386 1_655 S
C65 C64 1.387 . S
C66 C35 1.519 1_655 S
C66 C67 1.377 1_655 S
C66 C71 1.361 . S
C67 H22 0.929 . S
C67 C66 1.377 1_455 S
C67 C68 1.386 . S
C68 H23 0.931 . S
C68 C67 1.386 . S
C68 C69 1.363 1_455 S
C69 C68 1.363 1_655 S
C69 C70 1.385 . S
C70 H24 0.930 . S
C70 C69 1.385 . S
C70 C71 1.396 . S
C71 H25 0.929 . S
C71 C66 1.361 . S
C71 C70 1.396 . S
C72 O26 1.300 1_655 S
C72 O27 1.209 . S
C72 C45 1.486 . S
C73 O28 1.199 1_655 S
C73 O29 1.297 . S
C73 C57 1.476 . S
H74 O100 0.856 1_545 S
H75 O103 0.854 . S
H76 C111 0.930 . S
H77 C112 0.930 . S
H78 C114 0.930 . S
H79 C115 0.930 . S
H80 C117 0.931 . S
H81 C118 0.930 . S
H82 C120 0.930 . S
H83 C121 0.929 . S
H84 C123 0.930 . S
H85 C124 0.931 . S
H86 C126 0.930 . S
H87 C127 0.929 . S
H88 C129 0.931 . S
H89 C130 0.930 . S
H90 C132 0.930 . S
H91 C133 0.932 . S
H92 C135 0.930 . S
H93 C136 0.929 . S
H94 C138 0.931 . S
H95 C139 0.930 . S
H96 C141 0.929 . S
H97 C142 0.931 . S
H98 C144 0.930 . S
H99 C145 0.929 . S
O100 H74 0.856 1_565 S
O100 C146 1.300 1_565 S
O101 C146 1.209 . S
O102 C147 1.199 1_565 S
O103 H75 0.854 . S
O103 C147 1.297 . S
C104 C105 1.404 . S
C104 C109 1.397 . S
C104 C110 1.492 . S
C105 C104 1.404 . S
C105 C106 1.396 . S
C105 C116 1.492 . S
C106 C105 1.396 . S
C106 C107 1.397 . S
C106 C122 1.509 . S
C107 C106 1.397 . S
C107 C108 1.412 . S
C107 C128 1.485 . S
C108 C107 1.412 . S
C108 C109 1.388 . S
C108 C134 1.490 . S
C109 C104 1.397 . S
C109 C108 1.388 . S
C109 C140 1.519 . S
C110 C104 1.492 . S
C110 C111 1.363 1_545 S
C110 C115 1.390 . S
C111 H76 0.930 . S
C111 C110 1.363 1_565 S
C111 C112 1.372 . S
C112 H77 0.930 . S
C112 C111 1.372 . S
C112 C113 1.383 . S
C113 C112 1.383 . S
C113 C114 1.395 1_565 S
C114 H78 0.930 . S
C114 C113 1.395 1_545 S
C114 C115 1.362 . S
C115 H79 0.930 . S
C115 C110 1.390 . S
C115 C114 1.362 . S
C116 C105 1.492 . S
C116 C117 1.377 1_545 S
C116 C121 1.397 . S
C117 H80 0.931 . S
C117 C116 1.377 1_565 S
C117 C118 1.376 . S
C118 H81 0.930 . S
C118 C117 1.376 . S
C118 C119 1.376 1_565 S
C119 C118 1.376 1_545 S
C119 C120 1.378 . S
C119 C146 1.486 . S
C120 H82 0.930 . S
C120 C119 1.378 . S
C120 C121 1.376 . S
C121 H83 0.929 . S
C121 C116 1.397 . S
C121 C120 1.376 . S
C122 C106 1.509 . S
C122 C123 1.391 1_545 S
C122 C127 1.386 . S
C123 H84 0.930 . S
C123 C122 1.391 1_565 S
C123 C124 1.375 . S
C124 H85 0.931 . S
C124 C123 1.375 . S
C124 C125 1.375 1_565 S
C125 C124 1.375 1_545 S
C125 C126 1.361 . S
C126 H86 0.930 . S
C126 C125 1.361 . S
C126 C127 1.399 . S
C127 H87 0.929 . S
C127 C122 1.386 . S
C127 C126 1.399 . S
C128 C107 1.485 . S
C128 C129 1.394 1_545 S
C128 C133 1.360 . S
C129 H88 0.931 . S
C129 C128 1.394 1_565 S
C129 C130 1.372 . S
C130 H89 0.930 . S
C130 C129 1.372 . S
C130 C131 1.397 1_565 S
C131 C130 1.397 1_545 S
C131 C132 1.390 . S
C131 C147 1.476 . S
C132 H90 0.930 . S
C132 C131 1.390 . S
C132 C133 1.366 . S
C133 H91 0.932 . S
C133 C128 1.360 . S
C133 C132 1.366 . S
C134 C108 1.490 . S
C134 C135 1.380 1_545 S
C134 C139 1.386 . S
C135 H92 0.930 . S
C135 C134 1.380 1_565 S
C135 C136 1.381 . S
C136 H93 0.929 . S
C136 C135 1.381 . S
C136 C137 1.371 . S
C137 C136 1.371 . S
C137 C138 1.380 1_565 S
C138 H94 0.931 . S
C138 C137 1.380 1_545 S
C138 C139 1.387 . S
C139 H95 0.930 . S
C139 C134 1.386 . S
C139 C138 1.387 . S
C140 C109 1.519 . S
C140 C141 1.377 1_545 S
C140 C145 1.361 . S
C141 H96 0.929 . S
C141 C140 1.377 1_565 S
C141 C142 1.386 . S
C142 H97 0.931 . S
C142 C141 1.386 . S
C142 C143 1.363 1_565 S
C143 C142 1.363 1_545 S
C143 C144 1.385 . S
C144 H98 0.930 . S
C144 C143 1.385 . S
C144 C145 1.396 . S
C145 H99 0.929 . S
C145 C140 1.361 . S
C145 C144 1.396 . S
C146 O100 1.300 1_545 S
C146 O101 1.209 . S
C146 C119 1.486 . S
C147 O102 1.199 1_545 S
C147 O103 1.297 . S
C147 C131 1.476 . S
H148 O174 0.856 . S
H149 O177 0.854 . S
H150 C185 0.930 . S
H151 C186 0.930 . S
H152 C188 0.930 . S
H153 C189 0.930 . S
H154 C191 0.931 . S
H155 C192 0.930 . S
H156 C194 0.930 . S
H157 C195 0.929 . S
H158 C197 0.930 . S
H159 C198 0.931 . S
H160 C200 0.930 . S
H161 C201 0.929 . S
H162 C203 0.931 . S
H163 C204 0.930 . S
H164 C206 0.930 . S
H165 C207 0.932 . S
H166 C209 0.930 . S
H167 C210 0.929 . S
H168 C212 0.931 . S
H169 C213 0.930 . S
H170 C215 0.929 . S
H171 C216 0.931 . S
H172 C218 0.930 . S
H173 C219 0.929 . S
O174 H148 0.856 . S
O174 C220 1.300 1_556 S
O175 C220 1.209 . S
O176 C221 1.199 1_556 S
O177 H149 0.854 . S
O177 C221 1.297 . S
C178 C179 1.404 . S
C178 C183 1.397 . S
C178 C184 1.492 1_554 S
C179 C178 1.404 . S
C179 C180 1.396 . S
C179 C190 1.492 . S
C180 C179 1.396 . S
C180 C181 1.397 . S
C180 C196 1.509 . S
C181 C180 1.397 . S
C181 C182 1.412 . S
C181 C202 1.485 . S
C182 C181 1.412 . S
C182 C183 1.388 . S
C182 C208 1.490 1_554 S
C183 C178 1.397 . S
C183 C182 1.388 . S
C183 C214 1.519 . S
C184 C178 1.492 1_556 S
C184 C185 1.363 . S
C184 C189 1.390 1_556 S
C185 H150 0.930 . S
C185 C184 1.363 . S
C185 C186 1.372 . S
C186 H151 0.930 . S
C186 C185 1.372 . S
C186 C187 1.383 . S
C187 C186 1.383 . S
C187 C188 1.395 1_556 S
C188 H152 0.930 . S
C188 C187 1.395 1_554 S
C188 C189 1.362 . S
C189 H153 0.930 . S
C189 C184 1.390 1_554 S
C189 C188 1.362 . S
C190 C179 1.492 . S
C190 C191 1.377 1_554 S
C190 C195 1.397 . S
C191 H154 0.931 . S
C191 C190 1.377 1_556 S
C191 C192 1.376 . S
C192 H155 0.930 . S
C192 C191 1.376 . S
C192 C193 1.376 1_556 S
C193 C192 1.376 1_554 S
C193 C194 1.378 . S
C193 C220 1.486 . S
C194 H156 0.930 . S
C194 C193 1.378 . S
C194 C195 1.376 . S
C195 H157 0.929 . S
C195 C190 1.397 . S
C195 C194 1.376 . S
C196 C180 1.509 . S
C196 C197 1.391 1_554 S
C196 C201 1.386 . S
C197 H158 0.930 . S
C197 C196 1.391 1_556 S
C197 C198 1.375 . S
C198 H159 0.931 . S
C198 C197 1.375 . S
C198 C199 1.375 1_556 S
C199 C198 1.375 1_554 S
C199 C200 1.361 . S
C200 H160 0.930 . S
C200 C199 1.361 . S
C200 C201 1.399 . S
C201 H161 0.929 . S
C201 C196 1.386 . S
C201 C200 1.399 . S
C202 C181 1.485 . S
C202 C203 1.394 1_554 S
C202 C207 1.360 . S
C203 H162 0.931 . S
C203 C202 1.394 1_556 S
C203 C204 1.372 . S
C204 H163 0.930 . S
C204 C203 1.372 . S
C204 C205 1.397 1_556 S
C205 C204 1.397 1_554 S
C205 C206 1.390 . S
C205 C221 1.476 . S
C206 H164 0.930 . S
C206 C205 1.390 . S
C206 C207 1.366 . S
C207 H165 0.932 . S
C207 C202 1.360 . S
C207 C206 1.366 . S
C208 C182 1.490 1_556 S
C208 C209 1.380 . S
C208 C213 1.386 1_556 S
C209 H166 0.930 . S
C209 C208 1.380 . S
C209 C210 1.381 . S
C210 H167 0.929 . S
C210 C209 1.381 . S
C210 C211 1.371 . S
C211 C210 1.371 . S
C211 C212 1.380 1_556 S
C212 H168 0.931 . S
C212 C211 1.380 1_554 S
C212 C213 1.387 . S
C213 H169 0.930 . S
C213 C208 1.386 1_554 S
C213 C212 1.387 . S
C214 C183 1.519 . S
C214 C215 1.377 1_554 S
C214 C219 1.361 . S
C215 H170 0.929 . S
C215 C214 1.377 1_556 S
C215 C216 1.386 . S
C216 H171 0.931 . S
C216 C215 1.386 . S
C216 C217 1.363 1_556 S
C217 C216 1.363 1_554 S
C217 C218 1.385 . S
C218 H172 0.930 . S
C218 C217 1.385 . S
C218 C219 1.396 . S
C219 H173 0.929 . S
C219 C214 1.361 . S
C219 C218 1.396 . S
C220 O174 1.300 1_554 S
C220 O175 1.209 . S
C220 C193 1.486 . S
C221 O176 1.199 1_554 S
C221 O177 1.297 . S
C221 C205 1.476 . S
C222 O248 1.283 . S
C222 O266 1.283 . S
C223 O249 1.283 . S
C223 O264 1.284 . S
C224 O250 1.284 . S
C224 O267 1.283 . S
C225 O251 1.283 . S
C225 O265 1.283 . S
C226 O252 1.283 . S
C226 O261 1.283 . S
C227 O253 1.283 . S
C227 O263 1.283 . S
C228 O254 1.283 . S
C228 O260 1.283 . S
C229 O255 1.283 . S
C229 O262 1.283 . S
C230 O256 1.283 . S
C230 O271 1.283 . S
C231 O257 1.283 . S
C231 O269 1.283 . S
C232 O258 1.283 . S
C232 O270 1.283 . S
C233 O259 1.283 . S
C233 O268 1.283 . S
Eu234 O235 2.370 . S
Eu234 O236 2.370 1_454 S
Eu234 O239 2.370 1_554 S
Eu234 O240 2.370 1_455 S
Eu234 O248 2.363 1_554 S
Eu234 O249 2.363 . S
Eu234 O262 2.363 1_455 S
Eu234 O263 2.363 . S
O235 Eu234 2.370 . S
O235 Eu237 2.372 . S
O235 Eu242 2.366 1_455 S
O236 Eu234 2.370 1_656 S
O236 Eu238 2.370 1_556 S
O236 Eu241 2.370 1_655 S
Eu237 O235 2.372 . S
Eu237 O239 2.368 1_554 S
Eu237 O243 2.368 1_544 S
Eu237 O244 2.372 1_545 S
Eu237 O252 2.363 1_544 S
Eu237 O253 2.363 . S
Eu237 O268 2.360 1_554 S
Eu237 O269 2.366 . S
Eu238 O236 2.370 1_554 S
Eu238 O240 2.370 . S
Eu238 O245 2.370 1_545 S
Eu238 O246 2.370 1_544 S
Eu238 O254 2.363 1_545 S
Eu238 O255 2.363 . S
Eu238 O270 2.363 1_554 S
Eu238 O271 2.363 . S
O239 Eu234 2.370 1_556 S
O239 Eu237 2.368 1_556 S
O239 Eu241 2.370 . S
O240 Eu234 2.370 1_655 S
O240 Eu238 2.370 . S
O240 Eu242 2.375 . S
Eu241 O236 2.370 1_455 S
Eu241 O239 2.370 . S
Eu241 O243 2.370 1_545 S
Eu241 O246 2.370 1_445 S
Eu241 O258 2.363 1_455 S
Eu241 O259 2.363 . S
Eu241 O266 2.363 . S
Eu241 O267 2.363 1_545 S
Eu242 O235 2.366 1_655 S
Eu242 O240 2.375 . S
Eu242 O244 2.366 1_645 S
Eu242 O245 2.375 1_545 S
Eu242 O256 2.370 . S
Eu242 O257 2.355 1_655 S
Eu242 O264 2.363 1_655 S
Eu242 O265 2.363 1_545 S
O243 Eu237 2.368 1_566 S
O243 Eu241 2.370 1_565 S
O243 Eu247 2.364 1_456 S
O244 Eu237 2.372 1_565 S
O244 Eu242 2.366 1_465 S
O244 Eu247 2.367 1_455 S
O245 Eu238 2.370 1_565 S
O245 Eu242 2.375 1_565 S
O245 Eu247 2.376 . S
O246 Eu238 2.370 1_566 S
O246 Eu241 2.370 1_665 S
O246 Eu247 2.373 1_556 S
Eu247 O243 2.364 1_654 S
Eu247 O244 2.367 1_655 S
Eu247 O245 2.376 . S
Eu247 O246 2.373 1_554 S
Eu247 O250 2.360 1_654 S
Eu247 O251 2.366 . S
Eu247 O260 2.371 . S
Eu247 O261 2.355 1_654 S
O248 C222 1.283 . S
O248 Eu234 2.363 1_556 S
O249 C223 1.283 . S
O249 Eu234 2.363 . S
O250 C224 1.284 . S
O250 Eu247 2.360 1_456 S
O251 C225 1.283 . S
O251 Eu247 2.366 . S
O252 C226 1.283 . S
O252 Eu237 2.363 1_566 S
O253 C227 1.283 . S
O253 Eu237 2.363 . S
O254 C228 1.283 . S
O254 Eu238 2.363 1_565 S
O255 C229 1.283 . S
O255 Eu238 2.363 . S
O256 C230 1.283 . S
O256 Eu242 2.370 . S
O257 C231 1.283 . S
O257 Eu242 2.355 1_455 S
O258 C232 1.283 . S
O258 Eu241 2.363 1_655 S
O259 C233 1.283 . S
O259 Eu241 2.363 . S
O260 C228 1.283 . S
O260 Eu247 2.371 . S
O261 C226 1.283 . S
O261 Eu247 2.355 1_456 S
O262 C229 1.283 . S
O262 Eu234 2.363 1_655 S
O263 C227 1.283 . S
O263 Eu234 2.363 . S
O264 C223 1.284 . S
O264 Eu242 2.363 1_455 S
O265 C225 1.283 . S
O265 Eu242 2.363 1_565 S
O266 C222 1.283 . S
O266 Eu241 2.363 . S
O267 C224 1.283 . S
O267 Eu241 2.363 1_565 S
O268 C233 1.283 . S
O268 Eu237 2.360 1_556 S
O269 C231 1.283 . S
O269 Eu237 2.366 . S
O270 C232 1.283 . S
O270 Eu238 2.363 1_556 S
O271 C230 1.283 . S
O271 Eu238 2.363 . S
C272 C273 1.391 . S
C272 C274 1.394 . S
C272 H288 0.931 1_455 S
C273 C272 1.391 . S
C273 C277 1.376 . S
C274 C272 1.394 . S
C274 C275 1.369 . S
C274 C278 1.531 1_455 S
C275 C274 1.369 . S
C275 C276 1.410 . S
C275 C283 1.503 . S
C276 C275 1.410 . S
C276 C277 1.392 . S
C276 C279 1.511 . S
C277 C273 1.376 . S
C277 C276 1.392 . S
C277 H289 0.929 . S
C278 C274 1.531 1_655 S
C278 H290 0.960 1_655 S
C278 H291 0.962 . S
C278 H292 0.960 . S
C279 C276 1.511 . S
C279 H293 0.961 . S
C279 H294 0.961 . S
C279 H295 0.961 . S
C280 C281 1.370 1_655 S
C280 C282 1.363 . S
C280 H296 0.931 . S
C281 C280 1.370 1_455 S
C281 C285 1.408 . S
C282 C280 1.363 . S
C282 C283 1.370 1_655 S
C282 C286 1.524 . S
C283 C275 1.503 . S
C283 C282 1.370 1_455 S
C283 C284 1.403 . S
C284 C283 1.403 . S
C284 C285 1.404 . S
C284 C287 1.539 . S
C285 C281 1.408 . S
C285 C284 1.404 . S
C285 H297 0.930 . S
C286 C282 1.524 . S
C286 H298 0.956 . S
C286 H299 0.961 . S
C286 H300 0.961 . S
C287 C284 1.539 . S
C287 H301 0.958 . S
C287 H302 0.961 . S
C287 H303 0.960 . S
H288 C272 0.931 1_655 S
H289 C277 0.929 . S
H290 C278 0.960 1_455 S
H291 C278 0.962 . S
H292 C278 0.960 . S
H293 C279 0.961 . S
H294 C279 0.961 . S
H295 C279 0.961 . S
H296 C280 0.931 . S
H297 C285 0.930 . S
H298 C286 0.956 . S
H299 C286 0.961 . S
H300 C286 0.961 . S
H301 C287 0.958 . S
H302 C287 0.961 . S
H303 C287 0.960 . S
C304 C305 1.391 1_545 S
C304 C306 1.394 . S
C304 H320 0.931 . S
C305 C304 1.391 1_565 S
C305 C309 1.376 . S
C306 C304 1.394 . S
C306 C307 1.369 1_545 S
C306 C310 1.531 . S
C307 C306 1.369 1_565 S
C307 C308 1.410 . S
C307 C315 1.503 . S
C308 C307 1.410 . S
C308 C309 1.392 . S
C308 C311 1.511 . S
C309 C305 1.376 . S
C309 C308 1.392 . S
C309 H321 0.929 . S
C310 C306 1.531 . S
C310 H322 0.960 . S
C310 H323 0.962 . S
C310 H324 0.960 . S
C311 C308 1.511 . S
C311 H325 0.961 . S
C311 H326 0.961 . S
C311 H327 0.961 . S
C312 C313 1.370 . S
C312 C314 1.363 . S
C312 H328 0.931 . S
C313 C312 1.370 . S
C313 C317 1.408 1_545 S
C314 C312 1.363 . S
C314 C315 1.370 1_545 S
C314 C318 1.524 . S
C315 C307 1.503 . S
C315 C314 1.370 1_565 S
C315 C316 1.403 . S
C316 C315 1.403 . S
C316 C317 1.404 . S
C316 C319 1.539 . S
C317 C313 1.408 1_565 S
C317 C316 1.404 . S
C317 H329 0.930 . S
C318 C314 1.524 . S
C318 H330 0.956 . S
C318 H331 0.961 . S
C318 H332 0.961 . S
C319 C316 1.539 . S
C319 H333 0.958 . S
C319 H334 0.961 . S
C319 H335 0.960 . S
H320 C304 0.931 . S
H321 C309 0.929 . S
H322 C310 0.960 . S
H323 C310 0.962 . S
H324 C310 0.960 . S
H325 C311 0.961 . S
H326 C311 0.961 . S
H327 C311 0.961 . S
H328 C312 0.931 . S
H329 C317 0.930 . S
H330 C318 0.956 . S
H331 C318 0.961 . S
H332 C318 0.961 . S
H333 C319 0.958 . S
H334 C319 0.961 . S
H335 C319 0.960 . S
C336 C337 1.391 . S
C336 C338 1.394 . S
C336 H352 0.931 . S
C337 C336 1.391 . S
C337 C341 1.376 . S
C338 C336 1.394 . S
C338 C339 1.369 . S
C338 C342 1.531 . S
C339 C338 1.369 . S
C339 C340 1.410 . S
C339 C347 1.503 . S
C340 C339 1.410 . S
C340 C341 1.392 . S
C340 C343 1.511 . S
C341 C337 1.376 . S
C341 C340 1.392 . S
C341 H353 0.929 . S
C342 C338 1.531 . S
C342 H354 0.960 . S
C342 H355 0.962 1_655 S
C342 H356 0.960 . S
C343 C340 1.511 . S
C343 H357 0.961 1_655 S
C343 H358 0.958 1_655 S
C343 H359 0.961 . S
C344 C345 1.370 1_455 S
C344 C346 1.363 . S
C344 H360 0.931 . S
C345 C344 1.370 1_655 S
C345 C349 1.408 . S
C346 C344 1.363 . S
C346 C347 1.370 1_455 S
C346 C350 1.524 . S
C347 C339 1.503 . S
C347 C346 1.370 1_655 S
C347 C348 1.403 . S
C348 C347 1.403 . S
C348 C349 1.404 . S
C348 C351 1.539 . S
C349 C345 1.408 . S
C349 C348 1.404 . S
C349 H361 0.930 . S
C350 C346 1.524 . S
C350 H362 0.956 . S
C350 H363 0.961 . S
C350 H364 0.961 . S
C351 C348 1.539 . S
C351 H365 0.958 . S
C351 H366 0.961 . S
C351 H367 0.960 . S
H352 C336 0.931 . S
H353 C341 0.929 . S
H354 C342 0.960 . S
H355 C342 0.962 1_455 S
H356 C342 0.960 . S
H357 C343 0.961 1_455 S
H358 C343 0.958 1_455 S
H359 C343 0.961 . S
H360 C344 0.931 . S
H361 C349 0.930 . S
H362 C350 0.956 . S
H363 C350 0.961 . S
H364 C350 0.961 . S
H365 C351 0.958 . S
H366 C351 0.961 . S
H367 C351 0.960 . S
C368 C369 1.391 . S
C368 C370 1.394 . S
C368 H384 0.931 . S
C369 C368 1.391 . S
C369 C373 1.376 . S
C370 C368 1.394 . S
C370 C371 1.369 . S
C370 C374 1.531 . S
C371 C370 1.369 . S
C371 C372 1.410 . S
C371 C379 1.503 . S
C372 C371 1.410 . S
C372 C373 1.392 . S
C372 C375 1.511 . S
C373 C369 1.376 . S
C373 C372 1.392 . S
C373 H385 0.929 . S
C374 C370 1.531 . S
C374 H386 0.960 . S
C374 H387 0.962 1_545 S
C374 H388 0.960 . S
C375 C372 1.511 . S
C375 H389 0.961 . S
C375 H390 0.961 . S
C375 H391 0.961 . S
C376 C377 1.370 1_565 S
C376 C378 1.363 . S
C376 H392 0.931 . S
C377 C376 1.370 1_545 S
C377 C381 1.408 . S
C378 C376 1.363 . S
C378 C379 1.370 1_565 S
C378 C382 1.524 . S
C379 C371 1.503 . S
C379 C378 1.370 1_545 S
C379 C380 1.403 . S
C380 C379 1.403 . S
C380 C381 1.404 . S
C380 C383 1.539 . S
C381 C377 1.408 . S
C381 C380 1.404 . S
C381 H393 0.930 . S
C382 C378 1.524 . S
C382 H394 0.956 . S
C382 H395 0.961 . S
C382 H396 0.961 . S
C383 C380 1.539 . S
C383 H397 0.958 . S
C383 H398 0.961 . S
C383 H399 0.960 . S
H384 C368 0.931 . S
H385 C373 0.929 . S
H386 C374 0.960 . S
H387 C374 0.962 1_565 S
H388 C374 0.960 . S
H389 C375 0.961 . S
H390 C375 0.961 . S
H391 C375 0.961 . S
H392 C376 0.931 . S
H393 C381 0.930 . S
H394 C382 0.956 . S
H395 C382 0.961 . S
H396 C382 0.961 . S
H397 C383 0.958 . S
H398 C383 0.961 . S
H399 C383 0.960 . S
C400 C401 1.391 . S
C400 C402 1.394 . S
C400 H416 0.931 . S
C401 C400 1.391 . S
C401 C405 1.376 1_455 S
C402 C400 1.394 . S
C402 C403 1.369 . S
C402 C406 1.531 . S
C403 C402 1.369 . S
C403 C404 1.410 1_455 S
C403 C411 1.503 . S
C404 C403 1.410 1_655 S
C404 C405 1.392 . S
C404 C407 1.511 . S
C405 C401 1.376 1_655 S
C405 C404 1.392 . S
C405 H417 0.929 . S
C406 C402 1.531 . S
C406 H418 0.960 . S
C406 H419 0.962 . S
C406 H420 0.960 . S
C407 C404 1.511 . S
C407 H421 0.961 . S
C407 H422 0.961 . S
C407 H423 0.961 . S
C408 C409 1.370 . S
C408 C410 1.363 . S
C408 H424 0.931 . S
C409 C408 1.370 . S
C409 C413 1.408 1_455 S
C410 C408 1.363 . S
C410 C411 1.370 . S
C410 C414 1.524 . S
C411 C403 1.503 . S
C411 C410 1.370 . S
C411 C412 1.403 1_455 S
C412 C411 1.403 1_655 S
C412 C413 1.404 . S
C412 C415 1.539 . S
C413 C409 1.408 1_655 S
C413 C412 1.404 . S
C413 H425 0.930 . S
C414 C410 1.524 . S
C414 H426 0.956 . S
C414 H427 0.961 . S
C414 H428 0.961 . S
C415 C412 1.539 . S
C415 H429 0.958 . S
C415 H430 0.961 . S
C415 H431 0.960 . S
H416 C400 0.931 . S
H417 C405 0.929 . S
H418 C406 0.960 . S
H419 C406 0.962 . S
H420 C406 0.960 . S
H421 C407 0.961 . S
H422 C407 0.961 . S
H423 C407 0.961 . S
H424 C408 0.931 . S
H425 C413 0.930 . S
H426 C414 0.956 . S
H427 C414 0.961 . S
H428 C414 0.961 . S
H429 C415 0.958 . S
H430 C415 0.961 . S
H431 C415 0.960 . S
C432 C433 1.391 . S
C432 C434 1.394 . S
C432 H448 0.931 . S
C433 C432 1.391 . S
C433 C437 1.376 1_565 S
C434 C432 1.394 . S
C434 C435 1.369 . S
C434 C438 1.531 . S
C435 C434 1.369 . S
C435 C436 1.410 1_565 S
C435 C443 1.503 . S
C436 C435 1.410 1_545 S
C436 C437 1.392 . S
C436 C439 1.511 . S
C437 C433 1.376 1_545 S
C437 C436 1.392 . S
C437 H449 0.929 . S
C438 C434 1.531 . S
C438 H450 0.960 . S
C438 H451 0.962 . S
C438 H452 0.960 . S
C439 C436 1.511 . S
C439 H453 0.961 . S
C439 H454 0.961 . S
C439 H455 0.961 . S
C440 C441 1.370 . S
C440 C442 1.363 . S
C440 H456 0.931 . S
C441 C440 1.370 . S
C441 C445 1.408 1_545 S
C442 C440 1.363 . S
C442 C443 1.370 1_545 S
C442 C446 1.524 . S
C443 C435 1.503 . S
C443 C442 1.370 1_565 S
C443 C444 1.403 . S
C444 C443 1.403 . S
C444 C445 1.404 . S
C444 C447 1.539 . S
C445 C441 1.408 1_565 S
C445 C444 1.404 . S
C445 H457 0.930 . S
C446 C442 1.524 . S
C446 H458 0.956 . S
C446 H459 0.961 . S
C446 H460 0.961 . S
C447 C444 1.539 . S
C447 H461 0.958 . S
C447 H462 0.961 . S
C447 H463 0.960 . S
H448 C432 0.931 . S
H449 C437 0.929 . S
H450 C438 0.960 . S
H451 C438 0.962 . S
H452 C438 0.960 . S
H453 C439 0.961 . S
H454 C439 0.961 . S
H455 C439 0.961 . S
H456 C440 0.931 . S
H457 C445 0.930 . S
H458 C446 0.956 . S
H459 C446 0.961 . S
H460 C446 0.961 . S
H461 C447 0.958 . S
H462 C447 0.961 . S
H463 C447 0.960 . S
C464 C465 1.391 . S
C464 C466 1.394 . S
C464 H480 0.931 . S
C465 C464 1.391 . S
C465 C469 1.376 1_655 S
C466 C464 1.394 . S
C466 C467 1.369 . S
C466 C470 1.531 . S
C467 C466 1.369 . S
C467 C468 1.410 1_655 S
C467 C475 1.503 1_655 S
C468 C467 1.410 1_455 S
C468 C469 1.392 . S
C468 C471 1.511 . S
C469 C465 1.376 1_455 S
C469 C468 1.392 . S
C469 H481 0.929 . S
C470 C466 1.531 . S
C470 H482 0.960 . S
C470 H483 0.962 . S
C470 H484 0.960 . S
C471 C468 1.511 . S
C471 H485 0.961 . S
C471 H486 0.961 . S
C471 H487 0.961 . S
C472 C473 1.370 1_655 S
C472 C474 1.363 . S
C472 H488 0.931 . S
C473 C472 1.370 1_455 S
C473 C477 1.408 . S
C474 C472 1.363 . S
C474 C475 1.371 1_655 S
C474 C478 1.524 . S
C475 C467 1.503 1_455 S
C475 C474 1.371 1_455 S
C475 C476 1.402 . S
C476 C475 1.402 . S
C476 C477 1.404 . S
C476 C479 1.539 . S
C477 C473 1.408 . S
C477 C476 1.404 . S
C477 H489 0.930 . S
C478 C474 1.524 . S
C478 H490 0.956 . S
C478 H491 0.961 . S
C478 H492 0.961 . S
C479 C476 1.539 . S
C479 H493 0.958 . S
C479 H494 0.961 . S
C479 H495 0.960 . S
H480 C464 0.931 . S
H481 C469 0.929 . S
H482 C470 0.960 . S
H483 C470 0.962 . S
H484 C470 0.960 . S
H485 C471 0.961 . S
H486 C471 0.961 . S
H487 C471 0.961 . S
H488 C472 0.931 . S
H489 C477 0.930 . S
H490 C478 0.956 . S
H491 C478 0.961 . S
H492 C478 0.961 . S
H493 C479 0.958 . S
H494 C479 0.961 . S
H495 C479 0.960 . S
C496 C497 1.391 . S
C496 C498 1.394 . S
C496 H512 0.931 . S
C497 C496 1.391 . S
C497 C501 1.376 . S
C498 C496 1.394 . S
C498 C499 1.369 . S
C498 C502 1.531 . S
C499 C498 1.369 . S
C499 C500 1.410 . S
C499 C507 1.503 . S
C500 C499 1.410 . S
C500 C501 1.392 . S
C500 C503 1.511 . S
C501 C497 1.376 . S
C501 C500 1.392 . S
C501 H513 0.929 . S
C502 C498 1.531 . S
C502 H514 0.960 . S
C502 H515 0.962 1_545 S
C502 H516 0.960 . S
C503 C500 1.511 . S
C503 H517 0.961 . S
C503 H518 0.961 . S
C503 H519 0.961 . S
C504 C505 1.370 1_565 S
C504 C506 1.363 . S
C504 H520 0.931 . S
C505 C504 1.370 1_545 S
C505 C509 1.408 . S
C506 C504 1.363 . S
C506 C507 1.370 1_565 S
C506 C510 1.524 . S
C507 C499 1.503 . S
C507 C506 1.370 1_545 S
C507 C508 1.403 . S
C508 C507 1.403 . S
C508 C509 1.404 . S
C508 C511 1.539 . S
C509 C505 1.408 . S
C509 C508 1.404 . S
C509 H521 0.930 . S
C510 C506 1.524 . S
C510 H522 0.956 . S
C510 H523 0.961 . S
C510 H524 0.961 . S
C511 C508 1.539 . S
C511 H525 0.958 . S
C511 H526 0.961 . S
C511 H527 0.960 . S
H512 C496 0.931 . S
H513 C501 0.929 . S
H514 C502 0.960 . S
H515 C502 0.962 1_565 S
H516 C502 0.960 . S
H517 C503 0.961 . S
H518 C503 0.961 . S
H519 C503 0.961 . S
H520 C504 0.931 . S
H521 C509 0.930 . S
H522 C510 0.956 . S
H523 C510 0.961 . S
H524 C510 0.961 . S
H525 C511 0.958 . S
H526 C511 0.961 . S
H527 C511 0.960 . S
C528 C529 1.391 1_554 S
C528 C530 1.394 . S
C528 H544 0.931 . S
C529 C528 1.391 1_556 S
C529 C533 1.376 . S
C530 C528 1.394 . S
C530 C531 1.373 . S
C530 C534 1.531 . S
C531 C530 1.373 . S
C531 C532 1.404 1_554 S
C531 C539 1.504 . S
C532 C531 1.404 1_556 S
C532 C533 1.392 . S
C532 C535 1.511 . S
C533 C529 1.376 . S
C533 C532 1.392 . S
C533 H545 0.929 . S
C534 C530 1.531 . S
C534 H546 0.960 . S
C534 H547 0.962 1_554 S
C534 H548 0.960 . S
C535 C532 1.511 . S
C535 H549 0.961 . S
C535 H550 0.961 . S
C535 H551 0.961 1_556 S
C536 C537 1.350 1_556 S
C536 C538 1.363 . S
C536 H552 0.931 . S
C537 C536 1.350 1_554 S
C537 C541 1.429 . S
C538 C536 1.363 . S
C538 C539 1.370 1_556 S
C538 C542 1.524 . S
C539 C531 1.504 . S
C539 C538 1.370 1_554 S
C539 C540 1.403 . S
C540 C539 1.403 . S
C540 C541 1.404 . S
C540 C543 1.539 . S
C541 C537 1.429 . S
C541 C540 1.404 . S
C541 H553 0.930 . S
C542 C538 1.524 . S
C542 H554 0.956 . S
C542 H555 0.961 . S
C542 H556 0.961 . S
C543 C540 1.539 . S
C543 H557 0.958 . S
C543 H558 0.961 . S
C543 H559 0.960 . S
H544 C528 0.931 . S
H545 C533 0.929 . S
H546 C534 0.960 . S
H547 C534 0.962 1_556 S
H548 C534 0.960 . S
H549 C535 0.961 . S
H550 C535 0.961 . S
H551 C535 0.961 1_554 S
H552 C536 0.931 . S
H553 C541 0.930 . S
H554 C542 0.956 . S
H555 C542 0.961 . S
H556 C542 0.961 . S
H557 C543 0.958 . S
H558 C543 0.961 . S
H559 C543 0.960 . S
C560 C561 1.391 . S
C560 C562 1.394 . S
C560 H576 0.931 . S
C561 C560 1.391 . S
C561 C565 1.376 1_554 S
C562 C560 1.394 . S
C562 C563 1.369 . S
C562 C566 1.531 . S
C563 C562 1.369 . S
C563 C564 1.410 1_554 S
C563 C571 1.504 . S
C564 C563 1.410 1_556 S
C564 C565 1.392 . S
C564 C567 1.511 . S
C565 C561 1.376 1_556 S
C565 C564 1.392 . S
C565 H577 0.929 . S
C566 C562 1.531 . S
C566 H578 0.960 . S
C566 H579 0.962 . S
C566 H580 0.960 . S
C567 C564 1.511 . S
C567 H581 0.961 . S
C567 H582 0.961 . S
C567 H583 0.961 . S
C568 C569 1.370 1_554 S
C568 C570 1.363 . S
C568 H584 0.931 . S
C569 C568 1.370 1_556 S
C569 C573 1.408 . S
C570 C568 1.363 . S
C570 C571 1.374 . S
C570 C574 1.524 . S
C571 C563 1.504 . S
C571 C570 1.374 . S
C571 C572 1.399 1_554 S
C572 C571 1.399 1_556 S
C572 C573 1.404 . S
C572 C575 1.539 . S
C573 C569 1.408 . S
C573 C572 1.404 . S
C573 H585 0.930 . S
C574 C570 1.524 . S
C574 H586 0.956 . S
C574 H587 0.961 . S
C574 H588 0.961 . S
C575 C572 1.539 . S
C575 H589 0.958 . S
C575 H590 0.961 . S
C575 H591 0.960 . S
H576 C560 0.931 . S
H577 C565 0.929 . S
H578 C566 0.960 . S
H579 C566 0.962 . S
H580 C566 0.960 . S
H581 C567 0.961 . S
H582 C567 0.961 . S
H583 C567 0.961 . S
H584 C568 0.931 . S
H585 C573 0.930 . S
H586 C574 0.956 . S
H587 C574 0.961 . S
H588 C574 0.961 . S
H589 C575 0.958 . S
H590 C575 0.961 . S
H591 C575 0.960 . S
C592 C593 1.391 . S
C592 C594 1.394 . S
C592 H608 0.931 . S
C593 C592 1.391 . S
C593 C597 1.376 . S
C594 C592 1.394 . S
C594 C595 1.369 . S
C594 C598 1.531 . S
C595 C594 1.369 . S
C595 C596 1.410 . S
C595 C603 1.503 . S
C596 C595 1.410 . S
C596 C597 1.392 . S
C596 C599 1.511 . S
C597 C593 1.376 . S
C597 C596 1.392 . S
C597 H609 0.929 . S
C598 C594 1.531 . S
C598 H610 0.960 . S
C598 H611 0.962 . S
C598 H612 0.960 . S
C599 C596 1.511 . S
C599 H613 0.961 1_554 S
C599 H614 0.961 1_554 S
C599 H615 0.961 . S
C600 C601 1.370 1_556 S
C600 C602 1.363 . S
C600 H616 0.931 . S
C601 C600 1.370 1_554 S
C601 C605 1.408 . S
C602 C600 1.363 . S
C602 C603 1.370 1_556 S
C602 C606 1.524 . S
C603 C595 1.503 . S
C603 C602 1.370 1_554 S
C603 C604 1.403 . S
C604 C603 1.403 . S
C604 C605 1.404 . S
C604 C607 1.539 . S
C605 C601 1.408 . S
C605 C604 1.404 . S
C605 H617 0.930 . S
C606 C602 1.524 . S
C606 H618 0.956 . S
C606 H619 0.961 . S
C606 H620 0.961 . S
C607 C604 1.539 . S
C607 H621 0.958 . S
C607 H622 0.961 . S
C607 H623 0.960 . S
H608 C592 0.931 . S
H609 C597 0.929 . S
H610 C598 0.960 . S
H611 C598 0.962 . S
H612 C598 0.960 . S
H613 C599 0.961 1_556 S
H614 C599 0.961 1_556 S
H615 C599 0.961 . S
H616 C600 0.931 . S
H617 C605 0.930 . S
H618 C606 0.956 . S
H619 C606 0.961 . S
H620 C606 0.961 . S
H621 C607 0.958 . S
H622 C607 0.961 . S
H623 C607 0.960 . S
C624 C625 1.391 . S
C624 C626 1.394 . S
C624 H640 0.931 . S
C625 C624 1.391 . S
C625 C629 1.376 . S
C626 C624 1.394 . S
C626 C627 1.369 . S
C626 C630 1.531 . S
C627 C626 1.369 . S
C627 C628 1.410 . S
C627 C635 1.503 . S
C628 C627 1.410 . S
C628 C629 1.392 . S
C628 C631 1.511 . S
C629 C625 1.376 . S
C629 C628 1.392 . S
C629 H641 0.929 . S
C630 C626 1.531 . S
C630 H642 0.960 . S
C630 H643 0.962 . S
C630 H644 0.960 . S
C631 C628 1.511 . S
C631 H645 0.961 1_556 S
C631 H646 0.961 1_556 S
C631 H647 0.961 . S
C632 C633 1.370 1_554 S
C632 C634 1.363 . S
C632 H648 0.931 . S
C633 C632 1.370 1_556 S
C633 C637 1.408 . S
C634 C632 1.363 . S
C634 C635 1.370 1_554 S
C634 C638 1.524 . S
C635 C627 1.503 . S
C635 C634 1.370 1_556 S
C635 C636 1.403 . S
C636 C635 1.403 . S
C636 C637 1.404 . S
C636 C639 1.539 . S
C637 C633 1.408 . S
C637 C636 1.404 . S
C637 H649 0.930 . S
C638 C634 1.524 . S
C638 H650 0.956 . S
C638 H651 0.961 . S
C638 H652 0.961 . S
C639 C636 1.539 . S
C639 H653 0.958 . S
C639 H654 0.961 . S
C639 H655 0.960 . S
H640 C624 0.931 . S
H641 C629 0.929 . S
H642 C630 0.960 . S
H643 C630 0.962 . S
H644 C630 0.960 . S
H645 C631 0.961 1_554 S
H646 C631 0.961 1_554 S
H647 C631 0.961 . S
H648 C632 0.931 . S
H649 C637 0.930 . S
H650 C638 0.956 . S
H651 C638 0.961 . S
H652 C638 0.961 . S
H653 C639 0.958 . S
H654 C639 0.961 . S
H655 C639 0.960 . S
C281 C223 1.713 . S
C273 C39 1.621 . S
C313 C230 1.724 . S
C305 C113 1.634 . S
C345 C225 2.080 . S
C337 C69 2.075 . S
C377 C231 0.813 . S
C369 C125 0.835 . S
C401 C63 1.593 . S
C409 C224 1.665 . S
C441 C233 1.677 . S
C433 C137 1.606 . S
C465 C51 0.793 . S
C473 C222 0.819 . S
C497 C143 2.093 . S
C505 C232 2.097 . S
C529 C187 1.601 . S
C537 C227 1.718 . S
C561 C217 2.072 . S
C569 C226 2.092 . S
C601 C229 0.807 . S
C593 C199 0.830 . S
C633 C228 1.673 1_556 S
C625 C211 1.590 . S
