# Generated by pormake.
# Topology cml, (3,6)-cn, num edge types: 1
# Building blocks:
#     Node 0, Type 0, BuildingBlock: BETDAH_clean_linker_0, # of connection points: 3
#     Node 1, Type 0, BuildingBlock: BETDAH_clean_linker_0, # of connection points: 3
#     Node 2, Type 0, BuildingBlock: BETDAH_clean_linker_0, # of connection points: 3
#     Node 3, Type 0, BuildingBlock: BETDAH_clean_linker_0, # of connection points: 3
#     Node 4, Type 0, BuildingBlock: BETDAH_clean_linker_0, # of connection points: 3
#     Node 5, Type 0, BuildingBlock: BETDAH_clean_linker_0, # of connection points: 3
#     Node 6, Type 0, BuildingBlock: BETDAH_clean_linker_0, # of connection points: 3
#     Node 7, Type 0, BuildingBlock: BETDAH_clean_linker_0, # of connection points: 3
#     Node 8, Type 1, BuildingBlock: IZENUY_clean_sbu_0, # of connection points: 6
#     Node 9, Type 1, BuildingBlock: IZENUY_clean_sbu_0, # of connection points: 6
#     Node 10, Type 1, BuildingBlock: IZENUY_clean_sbu_0, # of connection points: 6
#     Node 11, Type 1, BuildingBlock: IZENUY_clean_sbu_0, # of connection points: 6
#     Edge 12, Type (0, 1), BuildingBlock: CIFDUS_clean_linker_0, # of connection points: 2
#     Edge 13, Type (0, 1), BuildingBlock: CIFDUS_clean_linker_0, # of connection points: 2
#     Edge 14, Type (0, 1), BuildingBlock: CIFDUS_clean_linker_0, # of connection points: 2
#     Edge 15, Type (0, 1), BuildingBlock: CIFDUS_clean_linker_0, # of connection points: 2
#     Edge 16, Type (0, 1), BuildingBlock: CIFDUS_clean_linker_0, # of connection points: 2
#     Edge 17, Type (0, 1), BuildingBlock: CIFDUS_clean_linker_0, # of connection points: 2
#     Edge 18, Type (0, 1), BuildingBlock: CIFDUS_clean_linker_0, # of connection points: 2
#     Edge 19, Type (0, 1), BuildingBlock: CIFDUS_clean_linker_0, # of connection points: 2
#     Edge 20, Type (0, 1), BuildingBlock: CIFDUS_clean_linker_0, # of connection points: 2
#     Edge 21, Type (0, 1), BuildingBlock: CIFDUS_clean_linker_0, # of connection points: 2
#     Edge 22, Type (0, 1), BuildingBlock: CIFDUS_clean_linker_0, # of connection points: 2
#     Edge 23, Type (0, 1), BuildingBlock: CIFDUS_clean_linker_0, # of connection points: 2
#     Edge 24, Type (0, 1), BuildingBlock: CIFDUS_clean_linker_0, # of connection points: 2
#     Edge 25, Type (0, 1), BuildingBlock: CIFDUS_clean_linker_0, # of connection points: 2
#     Edge 26, Type (0, 1), BuildingBlock: CIFDUS_clean_linker_0, # of connection points: 2
#     Edge 27, Type (0, 1), BuildingBlock: CIFDUS_clean_linker_0, # of connection points: 2
#     Edge 28, Type (0, 1), BuildingBlock: CIFDUS_clean_linker_0, # of connection points: 2
#     Edge 29, Type (0, 1), BuildingBlock: CIFDUS_clean_linker_0, # of connection points: 2
#     Edge 30, Type (0, 1), BuildingBlock: CIFDUS_clean_linker_0, # of connection points: 2
#     Edge 31, Type (0, 1), BuildingBlock: CIFDUS_clean_linker_0, # of connection points: 2
#     Edge 32, Type (0, 1), BuildingBlock: CIFDUS_clean_linker_0, # of connection points: 2
#     Edge 33, Type (0, 1), BuildingBlock: CIFDUS_clean_linker_0, # of connection points: 2
#     Edge 34, Type (0, 1), BuildingBlock: CIFDUS_clean_linker_0, # of connection points: 2
#     Edge 35, Type (0, 1), BuildingBlock: CIFDUS_clean_linker_0, # of connection points: 2
# Relax obj value: 0.003
# Max RMSD: 0.064
# Mean RMSD: 0.050
data_MOF--net-cml--node1-IZENUY_clean_sbu_0--node2-BETDAH_clean_linker_0--edge1-CIFDUS_clean_linker_0
_symmetry_space_group_name_H-M    P1
_symmetry_Int_Tables_number       1
_symmetry_cell_setting            triclinic
loop_
_symmetry_equiv_pos_as_xyz
'x, y, z'
_cell_length_a     32.515136
_cell_length_b     36.184235
_cell_length_c     31.654003
_cell_angle_alpha  89.474189
_cell_angle_beta   90.597215
_cell_angle_gamma 90.873732
loop_
_atom_site_label
_atom_site_type_symbol
_atom_site_fract_x
_atom_site_fract_y
_atom_site_fract_z
_atom_type_partial_charge
H0 H 0.37275 0.42225 0.05514 0.0
H1 H 0.26283 0.43103 0.97912 0.0
H2 H 0.26722 0.35301 0.08235 0.0
C3 C 0.3416 0.41315 0.04763 0.0
C4 C 0.3228 0.38535 0.07225 0.0
C5 C 0.32034 0.42959 0.01375 0.0
C6 C 0.27989 0.41796 1.00464 0.0
C7 C 0.26086 0.39005 0.02882 0.0
C8 C 0.28235 0.37371 0.06274 0.0
N9 N 0.21868 0.3819 0.02161 0.0
C10 C 0.20407 0.34747 0.00874 0.0
H11 H 0.66707 0.57661 0.55947 0.0
H12 H 0.71246 0.62626 0.44469 0.0
H13 H 0.70374 0.69144 0.55641 0.0
C14 C 0.67997 0.60019 0.54268 0.0
C15 C 0.6845 0.63419 0.56375 0.0
C16 C 0.68934 0.59681 0.49957 0.0
C17 C 0.70547 0.62783 0.47801 0.0
C18 C 0.71177 0.66145 0.49894 0.0
C19 C 0.70119 0.66464 0.54156 0.0
N20 N 0.72273 0.69337 0.47535 0.0
C21 C 0.7626 0.70757 0.47475 0.0
H22 H 0.64788 0.41346 0.04066 0.0
H23 H 0.74341 0.40468 0.94952 0.0
H24 H 0.74539 0.33512 0.06031 0.0
C25 C 0.67518 0.3997 0.02999 0.0
C26 C 0.69334 0.37197 0.05527 0.0
C27 C 0.69241 0.41109 0.99153 0.0
C28 C 0.72885 0.39496 0.9783 0.0
C29 C 0.7479 0.36754 1.00276 0.0
C30 C 0.72999 0.3557 0.04109 0.0
N31 N 0.78804 0.35701 0.99116 0.0
C32 C 0.80156 0.32095 0.98697 0.0
H33 H 0.38109 0.58523 0.552 0.0
H34 H 0.32115 0.69058 0.55325 0.0
H35 H 0.32527 0.62953 0.43861 0.0
C36 C 0.36238 0.60585 0.53631 0.0
C37 C 0.35359 0.60258 0.49278 0.0
C38 C 0.35078 0.63749 0.55868 0.0
C39 C 0.32917 0.66544 0.53713 0.0
C40 C 0.3199 0.66236 0.49408 0.0
C41 C 0.33159 0.63088 0.47224 0.0
N42 N 0.30719 0.69393 0.4711 0.0
C43 C 0.2663 0.70163 0.46238 0.0
H44 H 0.87292 0.94131 0.04535 0.0
H45 H 0.76897 0.91872 0.96362 0.0
H46 H 0.77364 0.87197 0.08918 0.0
C47 C 0.8438 0.92714 0.03939 0.0
C48 C 0.82611 0.90548 0.0714 0.0
C49 C 0.82363 0.93197 1.00043 0.0
C50 C 0.78537 0.91426 0.99315 0.0
C51 C 0.76762 0.89206 0.02516 0.0
C52 C 0.78803 0.88801 0.06413 0.0
N53 N 0.72733 0.877 0.02111 0.0
C54 C 0.7131 0.85659 0.98682 0.0
H55 H 0.15039 0.09752 0.55797 0.0
H56 H 0.23758 0.0968 0.45632 0.0
H57 H 0.26891 0.14945 0.5737 0.0
C58 C 0.17937 0.10643 0.5443 0.0
C59 C 0.20746 0.12617 0.56958 0.0
C60 C 0.18951 0.09553 0.50325 0.0
C61 C 0.22852 0.10554 0.48747 0.0
C62 C 0.25682 0.12573 0.51236 0.0
C63 C 0.24628 0.13585 0.55357 0.0
N64 N 0.29807 0.12948 0.49888 0.0
C65 C 0.31407 0.16146 0.48024 0.0
H66 H 0.16301 0.94062 0.03796 0.0
H67 H 0.23641 0.88464 0.94655 0.0
H68 H 0.19959 0.82883 0.06081 0.0
C69 C 0.17996 0.91664 0.02839 0.0
C70 C 0.17947 0.88518 0.0546 0.0
C71 C 0.19978 0.91692 0.98907 0.0
C72 C 0.22137 0.88523 0.97689 0.0
C73 C 0.22174 0.85364 1.00334 0.0
C74 C 0.20051 0.8538 0.04165 0.0
N75 N 0.24003 0.82002 0.99131 0.0
C76 C 0.27274 0.81638 0.96378 0.0
H77 H 0.86143 0.06936 0.54052 0.0
H78 H 0.83365 0.1849 0.55105 0.0
H79 H 0.81493 0.13042 0.43329 0.0
C80 C 0.84959 0.09466 0.52709 0.0
C81 C 0.83943 0.09595 0.48368 0.0
C82 C 0.84737 0.12641 0.55242 0.0
C83 C 0.83335 0.15932 0.53356 0.0
C84 C 0.82033 0.16035 0.49136 0.0
C85 C 0.82301 0.12868 0.46654 0.0
N86 N 0.81085 0.19495 0.4729 0.0
C87 C 0.77365 0.20237 0.45291 0.0
Fe88 Fe 0.01947 0.82811 0.32795 0.0
Fe89 Fe 0.01092 0.87159 0.41065 0.0
O90 O 0.01432 0.87053 0.35481 0.0
Fe91 Fe 0.01253 0.91243 0.32566 0.0
O92 O 0.9659 0.89772 0.2988 0.0
O93 O 0.98828 0.84268 0.28174 0.0
O94 O 0.97229 0.81 0.34983 0.0
C95 C 0.96303 0.80826 0.3883 0.0
C96 C 0.0698 0.87089 0.27932 0.0
O97 O 0.98271 0.82715 0.41557 0.0
C98 C 0.06323 0.93268 0.39042 0.0
O99 O 0.05105 0.80621 0.36964 0.0
O100 O 0.06024 0.84983 0.41697 0.0
O101 O 0.04408 0.89658 0.28201 0.0
O102 O 0.06736 0.84307 0.30341 0.0
C103 C 0.95515 0.9244 0.39074 0.0
O104 O 0.03865 0.91637 0.41562 0.0
O105 O 0.05939 0.92914 0.35098 0.0
C106 C 0.07093 0.81989 0.4006 0.0
O107 O 0.96116 0.89357 0.40836 0.0
O108 O 0.98008 0.93665 0.36335 0.0
C109 C 0.96282 0.86876 0.27696 0.0
Fe110 Fe 0.01934 0.13471 0.90489 0.0
Fe111 Fe 0.03384 0.0932 0.82215 0.0
O112 O 0.02237 0.13476 0.84885 0.0
Fe113 Fe 0.0135 0.17624 0.82002 0.0
O114 O 0.03699 0.20631 0.86045 0.0
O115 O 0.0612 0.16839 0.90917 0.0
O116 O 0.05777 0.09846 0.91317 0.0
C117 C 0.08576 0.08633 0.8897 0.0
C118 C 0.95485 0.18291 0.88082 0.0
O119 O 0.08234 0.08833 0.85012 0.0
C120 C 0.97465 0.12116 0.7691 0.0
O121 O 0.97714 0.10105 0.90376 0.0
O122 O 1.0068 0.06294 0.86004 0.0
O123 O 0.96241 0.18073 0.84195 0.0
O124 O 0.98045 0.17105 0.90789 0.0
C125 C 0.07777 0.14828 0.77528 0.0
O126 O 0.98651 0.09437 0.79157 0.0
O127 O 0.98888 0.15352 0.77459 0.0
C128 C 0.97899 0.06976 0.88651 0.0
O129 O 0.06274 0.11602 0.77966 0.0
O130 O 0.06363 0.17522 0.79526 0.0
C131 C 0.06159 0.19958 0.89088 0.0
Fe132 Fe 0.5187 0.32987 0.32494 0.0
Fe133 Fe 0.52488 0.37668 0.40548 0.0
O134 O 0.51847 0.37361 0.35006 0.0
Fe135 Fe 0.51152 0.41441 0.31972 0.0
O136 O 0.46135 0.39833 0.30197 0.0
O137 O 0.48094 0.34287 0.28345 0.0
O138 O 0.47533 0.31315 0.35596 0.0
C139 C 0.47382 0.31293 0.39578 0.0
C140 C 0.561 0.37049 0.26644 0.0
O141 O 0.49886 0.33241 0.41732 0.0
C142 C 0.57151 0.4381 0.37436 0.0
O143 O 0.55666 0.30923 0.36188 0.0
O144 O 0.57447 0.35551 0.40305 0.0
O145 O 0.53619 0.39663 0.27206 0.0
O146 O 0.56196 0.34337 0.29172 0.0
C147 C 0.4664 0.42895 0.39414 0.0
O148 O 0.55249 0.42131 0.40376 0.0
O149 O 0.56128 0.43335 0.33612 0.0
C150 C 0.58208 0.32465 0.3871 0.0
O151 O 0.47547 0.39871 0.41177 0.0
O152 O 0.48527 0.43975 0.36135 0.0
C153 C 0.45507 0.36883 0.28182 0.0
Fe154 Fe 0.51672 0.64489 0.91722 0.0
Fe155 Fe 0.50682 0.59566 0.8393 0.0
O156 O 0.51282 0.64025 0.86162 0.0
Fe157 Fe 0.51499 0.68027 0.82859 0.0
O158 O 0.55086 0.70641 0.86317 0.0
O159 O 0.56711 0.66654 0.91313 0.0
O160 O 0.54291 0.60115 0.92615 0.0
C161 C 0.56304 0.58071 0.90195 0.0
C162 C 0.46726 0.70543 0.89287 0.0
O163 O 0.55493 0.57981 0.86287 0.0
C164 C 0.45461 0.63439 0.78781 0.0
O165 O 0.46663 0.6231 0.92538 0.0
O166 O 0.47665 0.57631 0.88303 0.0
O167 O 0.47011 0.69973 0.85375 0.0
O168 O 0.49128 0.68971 0.91884 0.0
C169 C 0.5596 0.63315 0.78088 0.0
O170 O 0.45848 0.60786 0.81371 0.0
O171 O 0.47979 0.66147 0.78823 0.0
C172 C 0.45681 0.59123 0.91237 0.0
O173 O 0.53538 0.60707 0.7915 0.0
O174 O 0.55964 0.6636 0.80021 0.0
C175 C 0.57489 0.69576 0.89253 0.0
H176 H 0.1588 0.34624 0.93853 0.0
H177 H 0.20246 0.27754 0.04071 0.0
H178 H 0.16283 0.22459 0.01258 0.0
H179 H 0.11368 0.19884 0.95982 0.0
H180 H 0.06997 0.26921 0.8584 0.0
H181 H 0.11164 0.32036 0.8852 0.0
C182 C 0.1598 0.31951 0.95433 0.0
C183 C 0.18335 0.31539 0.99133 0.0
C184 C 0.13675 0.28961 0.93821 0.0
C185 C 0.1845 0.28099 0.01196 0.0
C186 C 0.16179 0.25087 0.99594 0.0
C187 C 0.11335 0.22531 0.94351 0.0
C188 C 0.08837 0.23005 0.90721 0.0
C189 C 0.13745 0.25496 0.95924 0.0
C190 C 0.08857 0.26464 0.88649 0.0
C191 C 0.11248 0.29403 0.90176 0.0
H192 H 0.80902 0.70142 0.40663 0.0
H193 H 0.8041 0.75258 0.52864 0.0
H194 H 0.86827 0.78695 0.51405 0.0
H195 H 0.92297 0.80549 0.46403 0.0
H196 H 0.92549 0.75485 0.34103 0.0
H197 H 0.8654 0.71717 0.35855 0.0
C198 C 0.82249 0.71973 0.43015 0.0
C199 C 0.80247 0.72459 0.46858 0.0
C200 C 0.85876 0.73966 0.42119 0.0
C201 C 0.81951 0.74847 0.49889 0.0
C202 C 0.85598 0.76815 0.49046 0.0
C203 C 0.91066 0.78589 0.44129 0.0
C204 C 0.92871 0.78326 0.40118 0.0
C205 C 0.87554 0.76445 0.45136 0.0
C206 C 0.91218 0.75776 0.37203 0.0
C207 C 0.87774 0.7361 0.38198 0.0
H208 H 0.80914 0.29332 0.90953 0.0
H209 H 0.84618 0.27738 0.03929 0.0
H210 H 0.89518 0.23022 0.01808 0.0
H211 H 0.93226 0.19846 0.96172 0.0
H212 H 0.89621 0.21621 0.83149 0.0
H213 H 0.84195 0.25734 0.8537 0.0
C214 C 0.82726 0.27874 0.93315 0.0
C215 C 0.82397 0.28825 0.97586 0.0
C216 C 0.85595 0.25238 0.92052 0.0
C217 C 0.84797 0.26995 0.00628 0.0
C218 C 0.87618 0.24326 0.99408 0.0
C219 C 0.91227 0.21095 0.93816 0.0
C220 C 0.91885 0.20448 0.89487 0.0
C221 C 0.88122 0.23498 0.95114 0.0
C222 C 0.89228 0.22082 0.86495 0.0
C223 C 0.86116 0.24444 0.87763 0.0
H224 H 0.23141 0.76197 0.49224 0.0
H225 H 0.21346 0.67274 0.40465 0.0
H226 H 0.14974 0.70086 0.37828 0.0
H227 H 0.1015 0.75291 0.37771 0.0
H228 H 0.12119 0.84265 0.46511 0.0
H229 H 0.18168 0.81232 0.49397 0.0
C230 C 0.21304 0.74851 0.46785 0.0
C231 C 0.22642 0.71539 0.45049 0.0
C232 C 0.17703 0.76513 0.45258 0.0
C233 C 0.20313 0.69817 0.41859 0.0
C234 C 0.16695 0.71435 0.40342 0.0
C235 C 0.11887 0.76575 0.40321 0.0
C236 C 0.10671 0.80015 0.419 0.0
C237 C 0.15393 0.74817 0.41974 0.0
C238 C 0.12968 0.81626 0.45219 0.0
C239 C 0.16439 0.79894 0.4688 0.0
H240 H 0.71377 0.78314 0.99194 0.0
H241 H 0.6643 0.874 0.92005 0.0
H242 H 0.61921 0.83117 0.88065 0.0
H243 H 0.58898 0.76858 0.87236 0.0
H244 H 0.63717 0.67837 0.94715 0.0
H245 H 0.68781 0.72 0.97936 0.0
C246 C 0.69376 0.7933 0.96689 0.0
C247 C 0.69235 0.83134 0.95837 0.0
C248 C 0.66737 0.76864 0.94531 0.0
C249 C 0.66601 0.84461 0.92657 0.0
C250 C 0.6401 0.82017 0.90435 0.0
C251 C 0.61097 0.7579 0.8952 0.0
C252 C 0.60886 0.7204 0.90759 0.0
C253 C 0.63973 0.78221 0.91424 0.0
C254 C 0.63769 0.70713 0.9373 0.0
C255 C 0.66673 0.73093 0.95579 0.0
H256 H 0.36951 0.20737 0.51587 0.0
H257 H 0.30929 0.18093 0.39798 0.0
H258 H 0.35297 0.22636 0.36087 0.0
H259 H 0.4108 0.27138 0.36171 0.0
H260 H 0.47095 0.29736 0.48029 0.0
H261 H 0.42497 0.25457 0.51725 0.0
C262 C 0.36568 0.2121 0.48216 0.0
C263 C 0.33626 0.19133 0.45953 0.0
C264 C 0.39119 0.2379 0.46112 0.0
C265 C 0.33163 0.19706 0.4159 0.0
C266 C 0.35673 0.22283 0.39472 0.0
C267 C 0.41384 0.26774 0.39564 0.0
C268 C 0.44468 0.28746 0.41799 0.0
C269 C 0.38708 0.24304 0.41691 0.0
C270 C 0.44774 0.28255 0.46208 0.0
C271 C 0.42139 0.25804 0.48337 0.0
H272 H 0.34607 0.80262 0.99739 0.0
H273 H 0.27735 0.80003 0.88053 0.0
H274 H 0.33373 0.76757 0.84627 0.0
H275 H 0.3999 0.73454 0.85215 0.0
H276 H 0.46613 0.73558 0.97117 0.0
H277 H 0.41376 0.774 1.00183 0.0
C278 C 0.34402 0.79568 0.96413 0.0
C279 C 0.30821 0.80389 0.94119 0.0
C280 C 0.37592 0.77625 0.94524 0.0
C281 C 0.30514 0.79429 0.89845 0.0
C282 C 0.33718 0.7755 0.87906 0.0
C283 C 0.40311 0.7436 0.8846 0.0
C284 C 0.43684 0.7318 0.90933 0.0
C285 C 0.37235 0.76548 0.90247 0.0
C286 C 0.44039 0.7438 0.95141 0.0
C287 C 0.41044 0.7659 0.96907 0.0
H288 H 0.75081 0.27106 0.46403 0.0
H289 H 0.71394 0.16916 0.40463 0.0
H290 H 0.65072 0.19821 0.3776 0.0
H291 H 0.60577 0.25317 0.37211 0.0
H292 H 0.64497 0.3544 0.43303 0.0
H293 H 0.7073 0.32514 0.45807 0.0
C294 C 0.72883 0.25532 0.44508 0.0
C295 C 0.73649 0.21831 0.43616 0.0
C296 C 0.693 0.27212 0.42999 0.0
C297 C 0.70825 0.19786 0.41172 0.0
C298 C 0.67226 0.21446 0.39636 0.0
C299 C 0.62802 0.26879 0.39074 0.0
C300 C 0.62036 0.30593 0.40077 0.0
C301 C 0.66423 0.25167 0.40541 0.0
C302 C 0.64966 0.32574 0.42498 0.0
C303 C 0.6855 0.30908 0.43937 0.0
H304 H 0.35415 0.49419 0.04132 0.0
H305 H 0.33148 0.43051 0.92885 0.0
H306 H 0.36949 0.47647 0.88675 0.0
H307 H 0.4129 0.53254 0.88297 0.0
H308 H 0.43367 0.59767 0.99488 0.0
H309 H 0.39209 0.55376 0.03611 0.0
C310 C 0.35741 0.49063 0.00754 0.0
C311 C 0.34053 0.45897 0.98812 0.0
C312 C 0.37883 0.5174 0.98353 0.0
C313 C 0.34431 0.45472 0.94432 0.0
C314 C 0.36608 0.48091 0.92034 0.0
C315 C 0.40793 0.53734 0.9163 0.0
C316 C 0.42666 0.56813 0.93591 0.0
C317 C 0.38398 0.51205 0.93973 0.0
C318 C 0.41954 0.57425 0.97899 0.0
C319 C 0.39601 0.549 1.00265 0.0
H320 H 0.65645 0.58964 0.41988 0.0
H321 H 0.69647 0.52527 0.52788 0.0
H322 H 0.66627 0.46969 0.49674 0.0
H323 H 0.62197 0.44071 0.44266 0.0
H324 H 0.58455 0.50396 0.33316 0.0
H325 H 0.62143 0.55836 0.36047 0.0
C326 C 0.65968 0.56336 0.43619 0.0
C327 C 0.678 0.56203 0.47678 0.0
C328 C 0.64253 0.53125 0.41788 0.0
C329 C 0.68152 0.5275 0.49725 0.0
C330 C 0.66441 0.49557 0.47937 0.0
C331 C 0.62254 0.46626 0.42444 0.0
C332 C 0.60023 0.46848 0.38622 0.0
C333 C 0.64372 0.49736 0.44036 0.0
C334 C 0.60157 0.50155 0.36263 0.0
C335 C 0.6224 0.53273 0.37841 0.0
H336 H 0.66931 0.47777 0.01984 0.0
H337 H 0.67257 0.41199 0.90721 0.0
H338 H 0.63529 0.45995 0.86787 0.0
H339 H 0.59724 0.51891 0.86733 0.0
H340 H 0.59495 0.5836 0.98131 0.0
H341 H 0.63634 0.53791 0.01804 0.0
C342 C 0.66189 0.47399 0.98664 0.0
C343 C 0.6731 0.44127 0.96656 0.0
C344 C 0.64046 0.50148 0.96446 0.0
C345 C 0.66414 0.437 0.92333 0.0
C346 C 0.64271 0.46434 0.90092 0.0
C347 C 0.60626 0.5232 0.90001 0.0
C348 C 0.59243 0.55449 0.92157 0.0
C349 C 0.63007 0.49649 0.92136 0.0
C350 C 0.60458 0.5596 0.96397 0.0
C351 C 0.62832 0.53346 0.98513 0.0
H352 H 0.36128 0.52915 0.51403 0.0
H353 H 0.38879 0.60852 0.41511 0.0
H354 H 0.42219 0.56108 0.3747 0.0
H355 H 0.44755 0.49849 0.36886 0.0
H356 H 0.42421 0.41883 0.46844 0.0
H357 H 0.38538 0.46491 0.50696 0.0
C358 C 0.37455 0.53603 0.48361 0.0
C359 C 0.372 0.57244 0.46763 0.0
C360 C 0.39469 0.5086 0.46062 0.0
C361 C 0.38924 0.58069 0.42796 0.0
C362 C 0.4088 0.5536 0.40487 0.0
C363 C 0.43373 0.49093 0.39882 0.0
C364 C 0.4391 0.45521 0.41574 0.0
C365 C 0.41211 0.51763 0.42107 0.0
C366 C 0.42073 0.44611 0.45462 0.0
C367 C 0.39861 0.47251 0.47676 0.0
H368 H 0.89487 0.92477 0.95874 0.0
H369 H 0.79474 0.99921 0.97701 0.0
H370 H 0.83378 0.04921 0.94219 0.0
H371 H 0.89964 0.07309 0.91324 0.0
H372 H 0.99856 0.99733 0.89305 0.0
H373 H 0.957 0.94655 0.92189 0.0
C374 C 0.88126 0.95169 0.95386 0.0
C375 C 0.84204 0.95843 0.96994 0.0
C376 C 0.90404 0.98021 0.93429 0.0
C377 C 0.82468 0.99341 0.96415 0.0
C378 C 0.84722 0.02205 0.94478 0.0
C379 C 0.91188 0.04539 0.91498 0.0
C380 C 0.95228 0.03904 0.90161 0.0
C381 C 0.88745 0.01605 0.9309 0.0
C382 C 0.96759 1.00293 0.90328 0.0
C383 C 0.94387 0.97387 0.91978 0.0
H384 H 0.20805 0.03666 0.45326 0.0
H385 H 0.1054 0.09836 0.49957 0.0
H386 H 0.05756 0.05273 0.47017 0.0
H387 H 0.04467 0.99363 0.43405 0.0
H388 H 0.1462 0.93484 0.38195 0.0
H389 H 0.19475 0.98113 0.41045 0.0
C390 C 0.17524 0.0407 0.45614 0.0
C391 C 0.16058 0.07076 0.47936 0.0
C392 C 0.14768 0.0146 0.43847 0.0
C393 C 0.11777 0.07509 0.48287 0.0
C394 C 0.09028 0.04905 0.46593 0.0
C395 C 0.07747 0.99111 0.42907 0.0
C396 C 0.0922 0.96082 0.40674 0.0
C397 C 0.10489 0.01832 0.44443 0.0
C398 C 0.13449 0.95795 0.39946 0.0
C399 C 0.16212 0.98439 0.41566 0.0
H400 H 0.19788 0.99035 0.00799 0.0
H401 H 0.18377 0.91503 0.90374 0.0
H402 H 0.15327 0.96399 0.86068 0.0
H403 H 0.11894 0.02432 0.85728 0.0
H404 H 0.12406 0.09573 0.96559 0.0
H405 H 0.16879 0.05214 1.00268 0.0
C406 C 0.18847 0.98465 0.9757 0.0
C407 C 0.19237 0.94868 0.95959 0.0
C408 C 0.16839 0.01216 0.95212 0.0
C409 C 0.1813 0.94231 0.91716 0.0
C410 C 0.16323 0.97023 0.89264 0.0
C411 C 0.13068 0.03069 0.88862 0.0
C412 C 0.11817 0.06312 0.90881 0.0
C413 C 0.15485 1.00468 0.91047 0.0
C414 C 0.13313 0.07084 0.94959 0.0
C415 C 0.15865 0.04592 0.97077 0.0
H416 H 0.83645 0.02102 0.49861 0.0
H417 H 0.87397 0.10261 0.40565 0.0
H418 H 0.90839 0.05535 0.36582 0.0
H419 H 0.93622 0.99317 0.3624 0.0
H420 H 0.90333 0.91201 0.45751 0.0
H421 H 0.85926 0.9568 0.49145 0.0
C422 C 0.85187 0.02844 0.46947 0.0
C423 C 0.85276 0.06558 0.45558 0.0
C424 C 0.87316 1.00128 0.44735 0.0
C425 C 0.87215 0.07436 0.41712 0.0
C426 C 0.89243 0.04736 0.39446 0.0
C427 C 0.91907 0.98504 0.39028 0.0
C428 C 0.92374 0.94943 0.40775 0.0
C429 C 0.89439 0.01108 0.41008 0.0
C430 C 0.90073 0.93933 0.44356 0.0
C431 C 0.87554 0.96498 0.46308 0.0
H432 H 0.31169 0.40396 0.15341 0.0
H433 H 0.38534 0.33649 0.07343 0.0
H434 H 0.43039 0.32107 0.13351 0.0
H435 H 0.45307 0.33275 0.20674 0.0
H436 H 0.38238 0.40478 0.28485 0.0
H437 H 0.33165 0.41216 0.22803 0.0
C438 C 0.33704 0.38515 0.14963 0.0
C439 C 0.34515 0.37092 0.10954 0.0
C440 C 0.3635 0.37758 0.18391 0.0
C441 C 0.37849 0.3473 0.10433 0.0
C442 C 0.40429 0.33872 0.13856 0.0
C443 C 0.42606 0.34936 0.21161 0.0
C444 C 0.42147 0.36821 0.24993 0.0
C445 C 0.39773 0.35449 0.17825 0.0
C446 C 0.38664 0.39011 0.25557 0.0
C447 C 0.35768 0.39441 0.22307 0.0
H448 H 0.61494 0.60281 0.59526 0.0
H449 H 0.71518 0.67635 0.62988 0.0
H450 H 0.68534 0.68382 0.70007 0.0
H451 H 0.63019 0.66852 0.75219 0.0
H452 H 0.53415 0.5909 0.71583 0.0
H453 H 0.56373 0.58528 0.64645 0.0
C454 C 0.63112 0.61979 0.61828 0.0
C455 C 0.66769 0.6385 0.60718 0.0
C456 C 0.61451 0.62317 0.65863 0.0
C457 C 0.68689 0.66164 0.6373 0.0
C458 C 0.66994 0.66578 0.67759 0.0
C459 C 0.61601 0.65031 0.72905 0.0
C460 C 0.58016 0.62999 0.73952 0.0
C461 C 0.63366 0.64661 0.6887 0.0
C462 C 0.56207 0.6065 0.70912 0.0
C463 C 0.57881 0.60335 0.66915 0.0
H464 H 0.61201 0.36835 0.07548 0.0
H465 H 0.73289 0.35545 0.13079 0.0
H466 H 0.70248 0.35037 0.20106 0.0
H467 H 0.64154 0.35596 0.24787 0.0
H468 H 0.52307 0.37749 0.19109 0.0
H469 H 0.55259 0.37404 0.12075 0.0
C470 C 0.632 0.36477 0.1028 0.0
C471 C 0.67492 0.36296 0.09748 0.0
C472 C 0.61462 0.36405 0.14321 0.0
C473 C 0.69979 0.35677 0.13349 0.0
C474 C 0.68242 0.35433 0.1739 0.0
C475 C 0.62238 0.35972 0.21996 0.0
C476 C 0.58028 0.36724 0.22454 0.0
C477 C 0.63994 0.35893 0.1793 0.0
C478 C 0.55564 0.37214 0.18828 0.0
C479 C 0.57245 0.37 0.14806 0.0
H480 H 0.35315 0.58809 0.62493 0.0
H481 H 0.38401 0.70092 0.59096 0.0
H482 H 0.41403 0.71092 0.66064 0.0
H483 H 0.43683 0.68665 0.72884 0.0
H484 H 0.40913 0.57336 0.76325 0.0
H485 H 0.37226 0.56477 0.6962 0.0
C486 C 0.36628 0.61489 0.63292 0.0
C487 C 0.3661 0.6437 0.60264 0.0
C488 C 0.38418 0.62043 0.67315 0.0
C489 C 0.38298 0.67837 0.61369 0.0
C490 C 0.4005 0.6841 0.65352 0.0
C491 C 0.42232 0.66015 0.72204 0.0
C492 C 0.42617 0.63063 0.751 0.0
C493 C 0.4019 0.65519 0.68319 0.0
C494 C 0.40675 0.59662 0.74163 0.0
C495 C 0.38588 0.59159 0.7031 0.0
H496 H 0.85454 0.84438 0.11207 0.0
H497 H 0.84385 0.96242 0.12338 0.0
H498 H 0.88235 0.96097 0.19013 0.0
H499 H 0.92252 0.92693 0.24254 0.0
H500 H 0.93787 0.80931 0.22966 0.0
H501 H 0.8939 0.80965 0.16641 0.0
C502 C 0.86035 0.86958 0.12959 0.0
C503 C 0.84654 0.90345 0.11319 0.0
C504 C 0.88345 0.86862 0.16739 0.0
C505 C 0.85441 0.93612 0.13562 0.0
C506 C 0.87638 0.93528 0.17365 0.0
C507 C 0.91594 0.90123 0.22626 0.0
C508 C 0.93353 0.86815 0.24081 0.0
C509 C 0.89158 0.9018 0.18948 0.0
C510 C 0.92485 0.8352 0.21902 0.0
C511 C 0.89974 0.83537 0.18284 0.0
H512 H 0.16841 0.18391 0.60498 0.0
H513 H 0.22109 0.07794 0.63312 0.0
H514 H 0.18853 0.077 0.70246 0.0
H515 H 0.13733 0.10227 0.75033 0.0
H516 H 0.08495 0.20874 0.72339 0.0
H517 H 0.12546 0.21401 0.65874 0.0
C518 C 0.17377 0.16134 0.62705 0.0
C519 C 0.19724 0.13116 0.61446 0.0
C520 C 0.1545 0.16086 0.6667 0.0
C521 C 0.20354 0.10161 0.64267 0.0
C522 C 0.18461 0.10093 0.68205 0.0
C523 C 0.13545 0.12694 0.73069 0.0
C524 C 0.1079 0.15486 0.74124 0.0
C525 C 0.15884 0.12975 0.69372 0.0
C526 C 0.10601 0.18688 0.71589 0.0
C527 C 0.12897 0.18979 0.67879 0.0
H528 H 0.19794 0.85352 0.13172 0.0
H529 H 0.10373 0.91484 0.06554 0.0
H530 H 0.06365 0.9175 0.12961 0.0
H531 H 0.05451 0.90245 0.2038 0.0
H532 H 0.14414 0.83663 0.27031 0.0
H533 H 0.18661 0.83525 0.20655 0.0
C534 C 0.16849 0.86717 0.13123 0.0
C535 C 0.15451 0.8847 0.09387 0.0
C536 C 0.14476 0.86783 0.16821 0.0
C537 C 0.11613 0.90219 0.09398 0.0
C538 C 0.09288 0.90347 0.13058 0.0
C539 C 0.08355 0.88806 0.20458 0.0
C540 C 0.09653 0.87015 0.24185 0.0
C541 C 0.10699 0.88664 0.16784 0.0
C542 C 0.13368 0.85082 0.24199 0.0
C543 C 0.15787 0.85002 0.20557 0.0
H544 H 0.90897 0.08436 0.58774 0.0
H545 H 0.82143 0.16841 0.61915 0.0
H546 H 0.85275 0.17418 0.68893 0.0
H547 H 0.90773 0.15776 0.74002 0.0
H548 H 0.98852 0.06824 0.71151 0.0
H549 H 0.95579 0.06119 0.64209 0.0
C550 C 0.89552 0.1032 0.60989 0.0
C551 C 0.86308 0.1264 0.59714 0.0
C552 C 0.91246 0.10534 0.65079 0.0
C553 C 0.84724 0.15102 0.62697 0.0
C554 C 0.86487 0.15414 0.66727 0.0
C555 C 0.91756 0.13636 0.71875 0.0
C556 C 0.95044 0.11362 0.73052 0.0
C557 C 0.89799 0.13192 0.67925 0.0
C558 C 0.96299 0.08583 0.70306 0.0
C559 C 0.94449 0.08198 0.66331 0.0
loop_
_geom_bond_atom_site_label_1
_geom_bond_atom_site_label_2
_geom_bond_distance
_geom_bond_site_symmetry_2
_ccdc_geom_bond_type
H0 C3 0.929 . S
H1 C6 0.929 . S
H2 C8 0.930 . S
C3 H0 0.929 . S
C3 C4 1.398 . S
C3 C5 1.396 1_554 S
C4 C3 1.398 . S
C4 C8 1.407 . S
C5 C3 1.396 1_556 S
C5 C6 1.394 . S
C6 H1 0.929 . S
C6 C5 1.394 . S
C6 C7 1.382 1_556 S
C7 C6 1.382 1_554 S
C7 C8 1.392 . S
C7 N9 1.420 1_554 S
C8 H2 0.930 . S
C8 C4 1.407 . S
C8 C7 1.392 . S
N9 C7 1.420 1_556 S
N9 C10 1.244 . S
C10 N9 1.244 . S
H11 C14 0.929 . S
H12 C17 0.929 . S
H13 C19 0.930 . S
C14 H11 0.929 . S
C14 C15 1.398 . S
C14 C16 1.396 . S
C15 C14 1.398 . S
C15 C19 1.407 . S
C16 C14 1.396 . S
C16 C17 1.394 . S
C17 H12 0.929 . S
C17 C16 1.394 . S
C17 C18 1.382 . S
C18 C17 1.382 . S
C18 C19 1.392 . S
C18 N20 1.420 . S
C19 H13 0.930 . S
C19 C15 1.407 . S
C19 C18 1.392 . S
N20 C18 1.420 . S
N20 C21 1.244 . S
C21 N20 1.244 . S
H22 C25 0.929 . S
H23 C28 0.929 . S
H24 C30 0.930 . S
C25 H22 0.929 . S
C25 C26 1.398 . S
C25 C27 1.396 1_554 S
C26 C25 1.398 . S
C26 C30 1.407 . S
C27 C25 1.396 1_556 S
C27 C28 1.394 . S
C28 H23 0.929 . S
C28 C27 1.394 . S
C28 C29 1.382 1_556 S
C29 C28 1.382 1_554 S
C29 C30 1.392 . S
C29 N31 1.420 . S
C30 H24 0.930 . S
C30 C26 1.407 . S
C30 C29 1.392 . S
N31 C29 1.420 . S
N31 C32 1.244 1_554 S
C32 N31 1.244 1_556 S
H33 C36 0.929 . S
H34 C39 0.929 . S
H35 C41 0.930 . S
C36 H33 0.929 . S
C36 C37 1.398 . S
C36 C38 1.396 . S
C37 C36 1.398 . S
C37 C41 1.407 . S
C38 C36 1.396 . S
C38 C39 1.394 . S
C39 H34 0.929 . S
C39 C38 1.394 . S
C39 C40 1.382 . S
C40 C39 1.382 . S
C40 C41 1.392 . S
C40 N42 1.420 . S
C41 H35 0.930 . S
C41 C37 1.407 . S
C41 C40 1.392 . S
N42 C40 1.420 . S
N42 C43 1.244 . S
C43 N42 1.244 . S
H44 C47 0.929 . S
H45 C50 0.929 . S
H46 C52 0.930 . S
C47 H44 0.929 . S
C47 C48 1.398 . S
C47 C49 1.396 1_554 S
C48 C47 1.398 . S
C48 C52 1.407 . S
C49 C47 1.396 1_556 S
C49 C50 1.394 . S
C50 H45 0.929 . S
C50 C49 1.394 . S
C50 C51 1.382 1_556 S
C51 C50 1.382 1_554 S
C51 C52 1.392 . S
C51 N53 1.420 1_554 S
C52 H46 0.930 . S
C52 C48 1.407 . S
C52 C51 1.392 . S
N53 C51 1.420 1_556 S
N53 C54 1.244 . S
C54 N53 1.244 . S
H55 C58 0.929 . S
H56 C61 0.929 . S
H57 C63 0.930 . S
C58 H55 0.929 . S
C58 C59 1.398 . S
C58 C60 1.396 . S
C59 C58 1.398 . S
C59 C63 1.407 . S
C60 C58 1.396 . S
C60 C61 1.394 . S
C61 H56 0.929 . S
C61 C60 1.394 . S
C61 C62 1.382 . S
C62 C61 1.382 . S
C62 C63 1.392 . S
C62 N64 1.420 . S
C63 H57 0.930 . S
C63 C59 1.407 . S
C63 C62 1.392 . S
N64 C62 1.420 . S
N64 C65 1.244 . S
C65 N64 1.244 . S
H66 C69 0.929 . S
H67 C72 0.929 . S
H68 C74 0.930 . S
C69 H66 0.929 . S
C69 C70 1.398 . S
C69 C71 1.396 1_554 S
C70 C69 1.398 . S
C70 C74 1.407 . S
C71 C69 1.396 1_556 S
C71 C72 1.394 . S
C72 H67 0.929 . S
C72 C71 1.394 . S
C72 C73 1.382 1_556 S
C73 C72 1.382 1_554 S
C73 C74 1.392 . S
C73 N75 1.420 . S
C74 H68 0.930 . S
C74 C70 1.407 . S
C74 C73 1.392 . S
N75 C73 1.420 . S
N75 C76 1.244 1_554 S
C76 N75 1.244 1_556 S
H77 C80 0.929 . S
H78 C83 0.929 . S
H79 C85 0.930 . S
C80 H77 0.929 . S
C80 C81 1.398 . S
C80 C82 1.396 . S
C81 C80 1.398 . S
C81 C85 1.407 . S
C82 C80 1.396 . S
C82 C83 1.394 . S
C83 H78 0.929 . S
C83 C82 1.394 . S
C83 C84 1.382 . S
C84 C83 1.382 . S
C84 C85 1.392 . S
C84 N86 1.420 . S
C85 H79 0.930 . S
C85 C81 1.407 . S
C85 C84 1.392 . S
N86 C84 1.420 . S
N86 C87 1.244 . S
C87 N86 1.244 . S
Fe88 O90 1.918 . S
Fe88 O93 1.997 1_455 S
Fe88 O94 2.002 1_455 S
Fe88 O99 1.976 . S
Fe88 O102 1.996 . S
Fe89 O90 1.918 . S
Fe89 O97 1.997 1_455 S
Fe89 O100 1.996 . S
Fe89 O104 1.976 . S
Fe89 O107 2.002 1_455 S
O90 Fe88 1.918 . S
O90 Fe89 1.918 . S
O90 Fe91 1.918 . S
Fe91 O90 1.918 . S
Fe91 O92 2.002 1_455 S
Fe91 O101 1.976 . S
Fe91 O105 1.996 . S
Fe91 O108 1.997 1_455 S
O92 Fe91 2.002 1_655 S
O92 C109 1.295 . S
O93 Fe88 1.997 1_655 S
O93 C109 1.235 . S
O94 Fe88 2.002 1_655 S
O94 C95 1.295 . S
C95 O94 1.295 . S
C95 O97 1.235 . S
C96 O101 1.287 . S
C96 O102 1.255 . S
O97 Fe89 1.997 1_655 S
O97 C95 1.235 . S
C98 O104 1.287 . S
C98 O105 1.255 . S
O99 Fe88 1.976 . S
O99 C106 1.287 . S
O100 Fe89 1.996 . S
O100 C106 1.255 . S
O101 Fe91 1.976 . S
O101 C96 1.287 . S
O102 Fe88 1.996 . S
O102 C96 1.255 . S
C103 O107 1.295 . S
C103 O108 1.235 . S
O104 Fe89 1.976 . S
O104 C98 1.287 . S
O105 Fe91 1.996 . S
O105 C98 1.255 . S
C106 O99 1.287 . S
C106 O100 1.255 . S
O107 Fe89 2.002 1_655 S
O107 C103 1.295 . S
O108 Fe91 1.997 1_655 S
O108 C103 1.235 . S
C109 O92 1.295 . S
C109 O93 1.235 . S
Fe110 O112 1.918 1_455 S
Fe110 O115 1.997 . S
Fe110 O116 2.003 . S
Fe110 O121 1.975 1_455 S
Fe110 O124 1.995 1_455 S
Fe111 O112 1.919 . S
Fe111 O119 1.985 1_655 S
Fe111 O122 2.007 . S
Fe111 O126 1.987 . S
Fe111 O129 1.991 1_655 S
O112 Fe110 1.918 1_655 S
O112 Fe111 1.919 . S
O112 Fe113 1.918 . S
Fe113 O112 1.918 . S
Fe113 O114 2.002 1_655 S
Fe113 O123 1.976 . S
Fe113 O127 1.996 . S
Fe113 O130 1.997 1_655 S
O114 Fe113 2.002 1_455 S
O114 C131 1.295 . S
O115 Fe110 1.997 . S
O115 C131 1.235 . S
O116 Fe110 2.003 . S
O116 C117 1.295 . S
C117 O116 1.295 . S
C117 O119 1.235 . S
C118 O123 1.287 . S
C118 O124 1.255 . S
O119 Fe111 1.985 1_455 S
O119 C117 1.235 . S
C120 O126 1.287 . S
C120 O127 1.255 . S
O121 Fe110 1.975 1_655 S
O121 C128 1.287 . S
O122 Fe111 2.007 . S
O122 C128 1.255 . S
O123 Fe113 1.976 . S
O123 C118 1.287 . S
O124 Fe110 1.995 1_655 S
O124 C118 1.255 . S
C125 O129 1.295 . S
C125 O130 1.235 . S
O126 Fe111 1.987 . S
O126 C120 1.287 . S
O127 Fe113 1.996 . S
O127 C120 1.255 . S
C128 O121 1.287 . S
C128 O122 1.255 . S
O129 Fe111 1.991 1_455 S
O129 C125 1.295 . S
O130 Fe113 1.997 1_455 S
O130 C125 1.235 . S
C131 O114 1.295 . S
C131 O115 1.235 . S
Fe132 O134 1.918 . S
Fe132 O137 1.997 . S
Fe132 O138 2.002 . S
Fe132 O143 1.976 . S
Fe132 O146 1.996 . S
Fe133 O134 1.918 . S
Fe133 O141 1.997 . S
Fe133 O144 1.996 . S
Fe133 O148 1.976 . S
Fe133 O151 2.002 . S
O134 Fe132 1.918 . S
O134 Fe133 1.918 . S
O134 Fe135 1.918 . S
Fe135 O134 1.918 . S
Fe135 O136 2.002 . S
Fe135 O145 1.976 . S
Fe135 O149 1.996 . S
Fe135 O152 1.997 . S
O136 Fe135 2.002 . S
O136 C153 1.295 . S
O137 Fe132 1.997 . S
O137 C153 1.235 . S
O138 Fe132 2.002 . S
O138 C139 1.295 . S
C139 O138 1.295 . S
C139 O141 1.235 . S
C140 O145 1.287 . S
C140 O146 1.255 . S
O141 Fe133 1.997 . S
O141 C139 1.235 . S
C142 O148 1.287 . S
C142 O149 1.255 . S
O143 Fe132 1.976 . S
O143 C150 1.287 . S
O144 Fe133 1.996 . S
O144 C150 1.255 . S
O145 Fe135 1.976 . S
O145 C140 1.287 . S
O146 Fe132 1.996 . S
O146 C140 1.255 . S
C147 O151 1.295 . S
C147 O152 1.235 . S
O148 Fe133 1.976 . S
O148 C142 1.287 . S
O149 Fe135 1.996 . S
O149 C142 1.255 . S
C150 O143 1.287 . S
C150 O144 1.255 . S
O151 Fe133 2.002 . S
O151 C147 1.295 . S
O152 Fe135 1.997 . S
O152 C147 1.235 . S
C153 O136 1.295 . S
C153 O137 1.235 . S
Fe154 O156 1.918 . S
Fe154 O159 1.997 . S
Fe154 O160 2.002 . S
Fe154 O165 1.976 . S
Fe154 O168 1.996 . S
Fe155 O156 1.918 . S
Fe155 O163 1.997 . S
Fe155 O166 1.996 . S
Fe155 O170 1.976 . S
Fe155 O173 2.002 . S
O156 Fe154 1.918 . S
O156 Fe155 1.918 . S
O156 Fe157 1.918 . S
Fe157 O156 1.918 . S
Fe157 O158 2.002 . S
Fe157 O167 1.976 . S
Fe157 O171 1.996 . S
Fe157 O174 1.997 . S
O158 Fe157 2.002 . S
O158 C175 1.295 . S
O159 Fe154 1.997 . S
O159 C175 1.235 . S
O160 Fe154 2.002 . S
O160 C161 1.295 . S
C161 O160 1.295 . S
C161 O163 1.235 . S
C162 O167 1.287 . S
C162 O168 1.255 . S
O163 Fe155 1.997 . S
O163 C161 1.235 . S
C164 O170 1.287 . S
C164 O171 1.255 . S
O165 Fe154 1.976 . S
O165 C172 1.287 . S
O166 Fe155 1.996 . S
O166 C172 1.255 . S
O167 Fe157 1.976 . S
O167 C162 1.287 . S
O168 Fe154 1.996 . S
O168 C162 1.255 . S
C169 O173 1.295 . S
C169 O174 1.235 . S
O170 Fe155 1.976 . S
O170 C164 1.287 . S
O171 Fe157 1.996 . S
O171 C164 1.255 . S
C172 O165 1.287 . S
C172 O166 1.255 . S
O173 Fe155 2.002 . S
O173 C169 1.295 . S
O174 Fe157 1.997 . S
O174 C169 1.235 . S
C175 O158 1.295 . S
C175 O159 1.235 . S
H176 C182 0.930 . S
H177 C185 0.930 . S
H178 C186 0.930 . S
H179 C187 0.930 . S
H180 C190 0.930 . S
H181 C191 0.930 . S
C182 H176 0.930 . S
C182 C183 1.355 . S
C182 C184 1.415 . S
C183 C182 1.355 . S
C183 C185 1.419 . S
C184 C182 1.415 . S
C184 C189 1.425 . S
C184 C191 1.409 . S
C185 H177 0.930 . S
C185 C183 1.419 . S
C185 C186 1.362 . S
C186 H178 0.930 . S
C186 C185 1.362 . S
C186 C189 1.409 . S
C187 H179 0.930 . S
C187 C188 1.355 . S
C187 C189 1.415 . S
C188 C187 1.355 . S
C188 C190 1.419 . S
C189 C184 1.425 . S
C189 C186 1.409 . S
C189 C187 1.415 . S
C190 H180 0.930 . S
C190 C188 1.419 . S
C190 C191 1.362 . S
C191 H181 0.930 . S
C191 C184 1.409 . S
C191 C190 1.362 . S
H192 C198 0.930 . S
H193 C201 0.930 . S
H194 C202 0.930 . S
H195 C203 0.930 . S
H196 C206 0.930 . S
H197 C207 0.930 . S
C198 H192 0.930 . S
C198 C199 1.355 . S
C198 C200 1.415 . S
C199 C198 1.355 . S
C199 C201 1.419 . S
C200 C198 1.415 . S
C200 C205 1.425 . S
C200 C207 1.409 . S
C201 H193 0.930 . S
C201 C199 1.419 . S
C201 C202 1.362 . S
C202 H194 0.930 . S
C202 C201 1.362 . S
C202 C205 1.409 . S
C203 H195 0.930 . S
C203 C204 1.355 . S
C203 C205 1.415 . S
C204 C203 1.355 . S
C204 C206 1.419 . S
C205 C200 1.425 . S
C205 C202 1.409 . S
C205 C203 1.415 . S
C206 H196 0.930 . S
C206 C204 1.419 . S
C206 C207 1.362 . S
C207 H197 0.930 . S
C207 C200 1.409 . S
C207 C206 1.362 . S
H208 C214 0.930 . S
H209 C217 0.930 1_554 S
H210 C218 0.930 . S
H211 C219 0.930 . S
H212 C222 0.930 . S
H213 C223 0.930 . S
C214 H208 0.930 . S
C214 C215 1.355 . S
C214 C216 1.415 . S
C215 C214 1.355 . S
C215 C217 1.419 . S
C216 C214 1.415 . S
C216 C221 1.425 . S
C216 C223 1.409 . S
C217 H209 0.930 1_556 S
C217 C215 1.419 . S
C217 C218 1.362 . S
C218 H210 0.930 . S
C218 C217 1.362 . S
C218 C221 1.409 . S
C219 H211 0.930 . S
C219 C220 1.355 . S
C219 C221 1.415 . S
C220 C219 1.355 . S
C220 C222 1.419 . S
C221 C216 1.425 . S
C221 C218 1.409 . S
C221 C219 1.415 . S
C222 H212 0.930 . S
C222 C220 1.419 . S
C222 C223 1.362 . S
C223 H213 0.930 . S
C223 C216 1.409 . S
C223 C222 1.362 . S
H224 C230 0.930 . S
H225 C233 0.930 . S
H226 C234 0.930 . S
H227 C235 0.930 . S
H228 C238 0.930 . S
H229 C239 0.930 . S
C230 H224 0.930 . S
C230 C231 1.355 . S
C230 C232 1.415 . S
C231 C230 1.355 . S
C231 C233 1.419 . S
C232 C230 1.415 . S
C232 C237 1.425 . S
C232 C239 1.409 . S
C233 H225 0.930 . S
C233 C231 1.419 . S
C233 C234 1.362 . S
C234 H226 0.930 . S
C234 C233 1.362 . S
C234 C237 1.409 . S
C235 H227 0.930 . S
C235 C236 1.355 . S
C235 C237 1.415 . S
C236 C235 1.355 . S
C236 C238 1.419 . S
C237 C232 1.425 . S
C237 C234 1.409 . S
C237 C235 1.415 . S
C238 H228 0.930 . S
C238 C236 1.419 . S
C238 C239 1.362 . S
C239 H229 0.930 . S
C239 C232 1.409 . S
C239 C238 1.362 . S
H240 C246 0.930 1_554 S
H241 C249 0.930 . S
H242 C250 0.930 . S
H243 C251 0.930 . S
H244 C254 0.930 . S
H245 C255 0.930 . S
C246 H240 0.930 1_556 S
C246 C247 1.355 . S
C246 C248 1.415 . S
C247 C246 1.355 . S
C247 C249 1.419 . S
C248 C246 1.415 . S
C248 C253 1.425 . S
C248 C255 1.409 . S
C249 H241 0.930 . S
C249 C247 1.419 . S
C249 C250 1.362 . S
C250 H242 0.930 . S
C250 C249 1.362 . S
C250 C253 1.409 . S
C251 H243 0.930 . S
C251 C252 1.355 . S
C251 C253 1.415 . S
C252 C251 1.355 . S
C252 C254 1.419 . S
C253 C248 1.425 . S
C253 C250 1.409 . S
C253 C251 1.415 . S
C254 H244 0.930 . S
C254 C252 1.419 . S
C254 C255 1.362 . S
C255 H245 0.930 . S
C255 C248 1.409 . S
C255 C254 1.362 . S
H256 C262 0.930 . S
H257 C265 0.930 . S
H258 C266 0.930 . S
H259 C267 0.930 . S
H260 C270 0.930 . S
H261 C271 0.930 . S
C262 H256 0.930 . S
C262 C263 1.355 . S
C262 C264 1.415 . S
C263 C262 1.355 . S
C263 C265 1.419 . S
C264 C262 1.415 . S
C264 C269 1.425 . S
C264 C271 1.409 . S
C265 H257 0.930 . S
C265 C263 1.419 . S
C265 C266 1.362 . S
C266 H258 0.930 . S
C266 C265 1.362 . S
C266 C269 1.409 . S
C267 H259 0.930 . S
C267 C268 1.355 . S
C267 C269 1.415 . S
C268 C267 1.355 . S
C268 C270 1.419 . S
C269 C264 1.425 . S
C269 C266 1.409 . S
C269 C267 1.415 . S
C270 H260 0.930 . S
C270 C268 1.419 . S
C270 C271 1.362 . S
C271 H261 0.930 . S
C271 C264 1.409 . S
C271 C270 1.362 . S
H272 C278 0.930 . S
H273 C281 0.930 . S
H274 C282 0.930 . S
H275 C283 0.930 . S
H276 C286 0.930 . S
H277 C287 0.930 . S
C278 H272 0.930 . S
C278 C279 1.355 . S
C278 C280 1.415 . S
C279 C278 1.355 . S
C279 C281 1.419 . S
C280 C278 1.415 . S
C280 C285 1.425 . S
C280 C287 1.409 . S
C281 H273 0.930 . S
C281 C279 1.419 . S
C281 C282 1.362 . S
C282 H274 0.930 . S
C282 C281 1.362 . S
C282 C285 1.409 . S
C283 H275 0.930 . S
C283 C284 1.355 . S
C283 C285 1.415 . S
C284 C283 1.355 . S
C284 C286 1.419 . S
C285 C280 1.425 . S
C285 C282 1.409 . S
C285 C283 1.415 . S
C286 H276 0.930 . S
C286 C284 1.419 . S
C286 C287 1.362 . S
C287 H277 0.930 . S
C287 C280 1.409 . S
C287 C286 1.362 . S
H288 C294 0.930 . S
H289 C297 0.930 . S
H290 C298 0.930 . S
H291 C299 0.930 . S
H292 C302 0.930 . S
H293 C303 0.930 . S
C294 H288 0.930 . S
C294 C295 1.355 . S
C294 C296 1.415 . S
C295 C294 1.355 . S
C295 C297 1.419 . S
C296 C294 1.415 . S
C296 C301 1.425 . S
C296 C303 1.409 . S
C297 H289 0.930 . S
C297 C295 1.419 . S
C297 C298 1.362 . S
C298 H290 0.930 . S
C298 C297 1.362 . S
C298 C301 1.409 . S
C299 H291 0.930 . S
C299 C300 1.355 . S
C299 C301 1.415 . S
C300 C299 1.355 . S
C300 C302 1.419 . S
C301 C296 1.425 . S
C301 C298 1.409 . S
C301 C299 1.415 . S
C302 H292 0.930 . S
C302 C300 1.419 . S
C302 C303 1.362 . S
C303 H293 0.930 . S
C303 C296 1.409 . S
C303 C302 1.362 . S
H304 C310 0.930 . S
H305 C313 0.930 . S
H306 C314 0.930 . S
H307 C315 0.930 . S
H308 C318 0.930 . S
H309 C319 0.930 . S
C310 H304 0.930 . S
C310 C311 1.355 . S
C310 C312 1.415 . S
C311 C310 1.355 . S
C311 C313 1.419 . S
C312 C310 1.415 . S
C312 C317 1.425 . S
C312 C319 1.409 . S
C313 H305 0.930 . S
C313 C311 1.419 . S
C313 C314 1.362 . S
C314 H306 0.930 . S
C314 C313 1.362 . S
C314 C317 1.409 . S
C315 H307 0.930 . S
C315 C316 1.355 . S
C315 C317 1.415 . S
C316 C315 1.355 . S
C316 C318 1.419 . S
C317 C312 1.425 . S
C317 C314 1.409 . S
C317 C315 1.415 . S
C318 H308 0.930 . S
C318 C316 1.419 . S
C318 C319 1.362 . S
C319 H309 0.930 . S
C319 C312 1.409 . S
C319 C318 1.362 . S
H320 C326 0.930 . S
H321 C329 0.930 . S
H322 C330 0.930 . S
H323 C331 0.930 . S
H324 C334 0.930 . S
H325 C335 0.930 . S
C326 H320 0.930 . S
C326 C327 1.355 . S
C326 C328 1.415 . S
C327 C326 1.355 . S
C327 C329 1.419 . S
C328 C326 1.415 . S
C328 C333 1.425 . S
C328 C335 1.409 . S
C329 H321 0.930 . S
C329 C327 1.419 . S
C329 C330 1.362 . S
C330 H322 0.930 . S
C330 C329 1.362 . S
C330 C333 1.409 . S
C331 H323 0.930 . S
C331 C332 1.355 . S
C331 C333 1.415 . S
C332 C331 1.355 . S
C332 C334 1.419 . S
C333 C328 1.425 . S
C333 C330 1.409 . S
C333 C331 1.415 . S
C334 H324 0.930 . S
C334 C332 1.419 . S
C334 C335 1.362 . S
C335 H325 0.930 . S
C335 C328 1.409 . S
C335 C334 1.362 . S
H336 C342 0.930 1_554 S
H337 C345 0.930 . S
H338 C346 0.930 . S
H339 C347 0.930 . S
H340 C350 0.930 . S
H341 C351 0.905 1_554 S
C342 H336 0.930 1_556 S
C342 C343 1.355 . S
C342 C344 1.415 . S
C343 C342 1.355 . S
C343 C345 1.419 . S
C344 C342 1.415 . S
C344 C349 1.425 . S
C344 C351 1.409 . S
C345 H337 0.930 . S
C345 C343 1.419 . S
C345 C346 1.362 . S
C346 H338 0.930 . S
C346 C345 1.362 . S
C346 C349 1.409 . S
C347 H339 0.930 . S
C347 C348 1.355 . S
C347 C349 1.415 . S
C348 C347 1.355 . S
C348 C350 1.419 . S
C349 C344 1.425 . S
C349 C346 1.409 . S
C349 C347 1.415 . S
C350 H340 0.930 . S
C350 C348 1.419 . S
C350 C351 1.362 . S
C351 H341 0.905 1_556 S
C351 C344 1.409 . S
C351 C350 1.362 . S
H352 C358 0.930 . S
H353 C361 0.930 . S
H354 C362 0.930 . S
H355 C363 0.930 . S
H356 C366 0.930 . S
H357 C367 0.930 . S
C358 H352 0.930 . S
C358 C359 1.355 . S
C358 C360 1.415 . S
C359 C358 1.355 . S
C359 C361 1.419 . S
C360 C358 1.415 . S
C360 C365 1.425 . S
C360 C367 1.409 . S
C361 H353 0.930 . S
C361 C359 1.419 . S
C361 C362 1.362 . S
C362 H354 0.930 . S
C362 C361 1.362 . S
C362 C365 1.409 . S
C363 H355 0.930 . S
C363 C364 1.355 . S
C363 C365 1.415 . S
C364 C363 1.355 . S
C364 C366 1.419 . S
C365 C360 1.425 . S
C365 C362 1.409 . S
C365 C363 1.415 . S
C366 H356 0.930 . S
C366 C364 1.419 . S
C366 C367 1.362 . S
C367 H357 0.930 . S
C367 C360 1.409 . S
C367 C366 1.362 . S
H368 C374 0.930 . S
H369 C377 0.930 . S
H370 C378 0.930 . S
H371 C379 0.930 . S
H372 C382 0.930 . S
H373 C383 0.930 . S
C374 H368 0.930 . S
C374 C375 1.355 . S
C374 C376 1.415 . S
C375 C374 1.355 . S
C375 C377 1.419 . S
C376 C374 1.415 . S
C376 C381 1.425 1_565 S
C376 C383 1.409 . S
C377 H369 0.930 . S
C377 C375 1.419 . S
C377 C378 1.362 1_565 S
C378 H370 0.930 . S
C378 C377 1.362 1_545 S
C378 C381 1.409 . S
C379 H371 0.930 . S
C379 C380 1.355 . S
C379 C381 1.415 . S
C380 C379 1.355 . S
C380 C382 1.419 . S
C381 C376 1.425 1_545 S
C381 C378 1.409 . S
C381 C379 1.415 . S
C382 H372 0.930 . S
C382 C380 1.419 . S
C382 C383 1.362 1_545 S
C383 H373 0.930 . S
C383 C376 1.409 . S
C383 C382 1.362 1_565 S
H384 C390 0.930 . S
H385 C393 0.930 . S
H386 C394 0.930 . S
H387 C395 0.930 . S
H388 C398 0.930 . S
H389 C399 0.930 . S
C390 H384 0.930 . S
C390 C391 1.355 . S
C390 C392 1.415 . S
C391 C390 1.355 . S
C391 C393 1.419 . S
C392 C390 1.415 . S
C392 C397 1.425 . S
C392 C399 1.409 1_545 S
C393 H385 0.930 . S
C393 C391 1.419 . S
C393 C394 1.362 . S
C394 H386 0.930 . S
C394 C393 1.362 . S
C394 C397 1.409 . S
C395 H387 0.930 . S
C395 C396 1.355 . S
C395 C397 1.415 1_565 S
C396 C395 1.355 . S
C396 C398 1.419 . S
C397 C392 1.425 . S
C397 C394 1.409 . S
C397 C395 1.415 1_545 S
C398 H388 0.930 . S
C398 C396 1.419 . S
C398 C399 1.362 . S
C399 H389 0.930 . S
C399 C392 1.409 1_565 S
C399 C398 1.362 . S
H400 C406 0.930 1_554 S
H401 C409 0.930 . S
H402 C410 0.930 . S
H403 C411 0.930 . S
H404 C414 0.930 . S
H405 C415 0.930 1_554 S
C406 H400 0.930 1_556 S
C406 C407 1.355 . S
C406 C408 1.415 . S
C407 C406 1.355 . S
C407 C409 1.419 . S
C408 C406 1.415 . S
C408 C413 1.425 . S
C408 C415 1.409 1_565 S
C409 H401 0.930 . S
C409 C407 1.419 . S
C409 C410 1.362 . S
C410 H402 0.930 . S
C410 C409 1.362 . S
C410 C413 1.409 . S
C411 H403 0.930 . S
C411 C412 1.355 . S
C411 C413 1.415 1_545 S
C412 C411 1.355 . S
C412 C414 1.419 . S
C413 C408 1.425 . S
C413 C410 1.409 . S
C413 C411 1.415 1_565 S
C414 H404 0.930 . S
C414 C412 1.419 . S
C414 C415 1.362 . S
C415 H405 0.930 1_556 S
C415 C408 1.409 1_545 S
C415 C414 1.362 . S
H416 C422 0.930 . S
H417 C425 0.930 . S
H418 C426 0.930 . S
H419 C427 0.918 1_545 S
H420 C430 0.930 . S
H421 C431 0.930 . S
C422 H416 0.930 . S
C422 C423 1.355 . S
C422 C424 1.415 1_545 S
C423 C422 1.355 . S
C423 C425 1.419 . S
C424 C422 1.415 1_565 S
C424 C429 1.425 1_565 S
C424 C431 1.409 . S
C425 H417 0.930 . S
C425 C423 1.419 . S
C425 C426 1.362 . S
C426 H418 0.930 . S
C426 C425 1.362 . S
C426 C429 1.409 . S
C427 H419 0.918 1_565 S
C427 C428 1.355 . S
C427 C429 1.415 1_565 S
C428 C427 1.355 . S
C428 C430 1.419 . S
C429 C424 1.425 1_545 S
C429 C426 1.409 . S
C429 C427 1.415 1_545 S
C430 H420 0.930 . S
C430 C428 1.419 . S
C430 C431 1.362 . S
C431 H421 0.930 . S
C431 C424 1.409 . S
C431 C430 1.362 . S
H432 C438 0.930 . S
H433 C441 0.930 . S
H434 C442 0.930 . S
H435 C443 0.930 . S
H436 C446 0.930 . S
H437 C447 0.930 . S
C438 H432 0.930 . S
C438 C439 1.355 . S
C438 C440 1.415 . S
C439 C438 1.355 . S
C439 C441 1.419 . S
C440 C438 1.415 . S
C440 C445 1.425 . S
C440 C447 1.409 . S
C441 H433 0.930 . S
C441 C439 1.419 . S
C441 C442 1.362 . S
C442 H434 0.930 . S
C442 C441 1.362 . S
C442 C445 1.409 . S
C443 H435 0.930 . S
C443 C444 1.355 . S
C443 C445 1.415 . S
C444 C443 1.355 . S
C444 C446 1.419 . S
C445 C440 1.425 . S
C445 C442 1.409 . S
C445 C443 1.415 . S
C446 H436 0.930 . S
C446 C444 1.419 . S
C446 C447 1.362 . S
C447 H437 0.930 . S
C447 C440 1.409 . S
C447 C446 1.362 . S
H448 C454 0.930 . S
H449 C457 0.930 . S
H450 C458 0.930 . S
H451 C459 0.930 . S
H452 C462 0.930 . S
H453 C463 0.930 . S
C454 H448 0.930 . S
C454 C455 1.355 . S
C454 C456 1.415 . S
C455 C454 1.355 . S
C455 C457 1.419 . S
C456 C454 1.415 . S
C456 C461 1.425 . S
C456 C463 1.409 . S
C457 H449 0.930 . S
C457 C455 1.419 . S
C457 C458 1.362 . S
C458 H450 0.930 . S
C458 C457 1.362 . S
C458 C461 1.409 . S
C459 H451 0.930 . S
C459 C460 1.355 . S
C459 C461 1.415 . S
C460 C459 1.355 . S
C460 C462 1.419 . S
C461 C456 1.425 . S
C461 C458 1.409 . S
C461 C459 1.415 . S
C462 H452 0.930 . S
C462 C460 1.419 . S
C462 C463 1.362 . S
C463 H453 0.930 . S
C463 C456 1.409 . S
C463 C462 1.362 . S
H464 C470 0.930 . S
H465 C473 0.930 . S
H466 C474 0.930 . S
H467 C475 0.930 . S
H468 C478 0.930 . S
H469 C479 0.930 . S
C470 H464 0.930 . S
C470 C471 1.355 . S
C470 C472 1.415 . S
C471 C470 1.355 . S
C471 C473 1.419 . S
C472 C470 1.415 . S
C472 C477 1.425 . S
C472 C479 1.409 . S
C473 H465 0.930 . S
C473 C471 1.419 . S
C473 C474 1.362 . S
C474 H466 0.930 . S
C474 C473 1.362 . S
C474 C477 1.409 . S
C475 H467 0.930 . S
C475 C476 1.355 . S
C475 C477 1.415 . S
C476 C475 1.355 . S
C476 C478 1.419 . S
C477 C472 1.425 . S
C477 C474 1.409 . S
C477 C475 1.415 . S
C478 H468 0.930 . S
C478 C476 1.419 . S
C478 C479 1.362 . S
C479 H469 0.930 . S
C479 C472 1.409 . S
C479 C478 1.362 . S
H480 C486 0.930 . S
H481 C489 0.930 . S
H482 C490 0.930 . S
H483 C491 0.930 . S
H484 C494 0.930 . S
H485 C495 0.930 . S
C486 H480 0.930 . S
C486 C487 1.355 . S
C486 C488 1.415 . S
C487 C486 1.355 . S
C487 C489 1.419 . S
C488 C486 1.415 . S
C488 C493 1.425 . S
C488 C495 1.409 . S
C489 H481 0.930 . S
C489 C487 1.419 . S
C489 C490 1.362 . S
C490 H482 0.930 . S
C490 C489 1.362 . S
C490 C493 1.409 . S
C491 H483 0.930 . S
C491 C492 1.355 . S
C491 C493 1.415 . S
C492 C491 1.355 . S
C492 C494 1.419 . S
C493 C488 1.425 . S
C493 C490 1.409 . S
C493 C491 1.415 . S
C494 H484 0.930 . S
C494 C492 1.419 . S
C494 C495 1.362 . S
C495 H485 0.930 . S
C495 C488 1.409 . S
C495 C494 1.362 . S
H496 C502 0.930 . S
H497 C505 0.930 . S
H498 C506 0.930 . S
H499 C507 0.930 . S
H500 C510 0.930 . S
H501 C511 0.930 . S
C502 H496 0.930 . S
C502 C503 1.355 . S
C502 C504 1.415 . S
C503 C502 1.355 . S
C503 C505 1.419 . S
C504 C502 1.415 . S
C504 C509 1.425 . S
C504 C511 1.409 . S
C505 H497 0.930 . S
C505 C503 1.419 . S
C505 C506 1.362 . S
C506 H498 0.930 . S
C506 C505 1.362 . S
C506 C509 1.409 . S
C507 H499 0.930 . S
C507 C508 1.355 . S
C507 C509 1.415 . S
C508 C507 1.355 . S
C508 C510 1.419 . S
C509 C504 1.425 . S
C509 C506 1.409 . S
C509 C507 1.415 . S
C510 H500 0.930 . S
C510 C508 1.419 . S
C510 C511 1.362 . S
C511 H501 0.930 . S
C511 C504 1.409 . S
C511 C510 1.362 . S
H512 C518 0.930 . S
H513 C521 0.930 . S
H514 C522 0.930 . S
H515 C523 0.930 . S
H516 C526 0.930 . S
H517 C527 0.930 . S
C518 H512 0.930 . S
C518 C519 1.355 . S
C518 C520 1.415 . S
C519 C518 1.355 . S
C519 C521 1.419 . S
C520 C518 1.415 . S
C520 C525 1.425 . S
C520 C527 1.409 . S
C521 H513 0.930 . S
C521 C519 1.419 . S
C521 C522 1.362 . S
C522 H514 0.930 . S
C522 C521 1.362 . S
C522 C525 1.409 . S
C523 H515 0.930 . S
C523 C524 1.355 . S
C523 C525 1.415 . S
C524 C523 1.355 . S
C524 C526 1.419 . S
C525 C520 1.425 . S
C525 C522 1.409 . S
C525 C523 1.415 . S
C526 H516 0.930 . S
C526 C524 1.419 . S
C526 C527 1.362 . S
C527 H517 0.930 . S
C527 C520 1.409 . S
C527 C526 1.362 . S
H528 C534 0.930 . S
H529 C537 0.930 . S
H530 C538 0.930 . S
H531 C539 0.930 . S
H532 C542 0.930 . S
H533 C543 0.930 . S
C534 H528 0.930 . S
C534 C535 1.355 . S
C534 C536 1.415 . S
C535 C534 1.355 . S
C535 C537 1.419 . S
C536 C534 1.415 . S
C536 C541 1.425 . S
C536 C543 1.409 . S
C537 H529 0.930 . S
C537 C535 1.419 . S
C537 C538 1.362 . S
C538 H530 0.930 . S
C538 C537 1.362 . S
C538 C541 1.409 . S
C539 H531 0.930 . S
C539 C540 1.355 . S
C539 C541 1.415 . S
C540 C539 1.355 . S
C540 C542 1.419 . S
C541 C536 1.425 . S
C541 C538 1.409 . S
C541 C539 1.415 . S
C542 H532 0.930 . S
C542 C540 1.419 . S
C542 C543 1.362 . S
C543 H533 0.930 . S
C543 C536 1.409 . S
C543 C542 1.362 . S
H544 C550 0.930 . S
H545 C553 0.930 . S
H546 C554 0.930 . S
H547 C555 0.930 . S
H548 C558 0.930 . S
H549 C559 0.930 . S
C550 H544 0.930 . S
C550 C551 1.355 . S
C550 C552 1.415 . S
C551 C550 1.355 . S
C551 C553 1.419 . S
C552 C550 1.415 . S
C552 C557 1.425 . S
C552 C559 1.409 . S
C553 H545 0.930 . S
C553 C551 1.419 . S
C553 C554 1.362 . S
C554 H546 0.930 . S
C554 C553 1.362 . S
C554 C557 1.409 . S
C555 H547 0.930 . S
C555 C556 1.355 . S
C555 C557 1.415 . S
C556 C555 1.355 . S
C556 C558 1.419 . S
C557 C552 1.425 . S
C557 C554 1.409 . S
C557 C555 1.415 . S
C558 H548 0.930 . S
C558 C556 1.419 . S
C558 C559 1.362 . S
C559 H549 0.930 . S
C559 C552 1.409 . S
C559 C558 1.362 . S
C183 C10 1.532 . S
C188 C131 1.508 . S
C204 C95 1.544 . S
C199 C21 1.541 . S
C220 C118 1.588 . S
C215 C32 1.581 . S
C236 C106 1.485 . S
C231 C43 1.493 . S
C252 C175 1.512 . S
C247 C54 1.523 . S
C268 C139 1.508 . S
C263 C65 1.525 . S
C279 C76 1.574 . S
C284 C162 1.586 . S
C300 C150 1.495 . S
C295 C87 1.489 . S
C311 C5 1.487 . S
C316 C172 1.533 . S
C332 C142 1.513 . S
C327 C16 1.458 . S
C343 C27 1.585 . S
C348 C161 1.586 . S
C359 C37 1.428 . S
C364 C147 1.476 . S
C380 C128 1.528 . S
C375 C49 1.521 . S
C391 C60 1.452 . S
C396 C98 1.515 . S
C412 C117 1.587 . S
C407 C71 1.583 . S
C428 C103 1.477 . S
C423 C81 1.429 . S
C444 C153 1.530 . S
C439 C4 1.503 . S
C460 C169 1.498 . S
C455 C15 1.517 . S
C471 C26 1.503 . S
C476 C140 1.494 . S
C492 C164 1.499 . S
C487 C38 1.441 . S
C508 C109 1.506 . S
C503 C48 1.532 . S
C519 C59 1.511 . S
C524 C125 1.501 . S
C535 C70 1.477 . S
C540 C96 1.505 . S
C551 C82 1.489 . S
C556 C120 1.490 . S
