# Generated by pormake.
# Topology zzz, (3,6)-cn, num edge types: 1
# Building blocks:
#     Node 0, Type 0, BuildingBlock: VETTIZ_charged_linker_0, # of connection points: 3
#     Node 1, Type 0, BuildingBlock: VETTIZ_charged_linker_0, # of connection points: 3
#     Node 2, Type 0, BuildingBlock: VETTIZ_charged_linker_0, # of connection points: 3
#     Node 3, Type 0, BuildingBlock: VETTIZ_charged_linker_0, # of connection points: 3
#     Node 4, Type 0, BuildingBlock: VETTIZ_charged_linker_0, # of connection points: 3
#     Node 5, Type 0, BuildingBlock: VETTIZ_charged_linker_0, # of connection points: 3
#     Node 6, Type 0, BuildingBlock: VETTIZ_charged_linker_0, # of connection points: 3
#     Node 7, Type 0, BuildingBlock: VETTIZ_charged_linker_0, # of connection points: 3
#     Node 8, Type 1, BuildingBlock: CIFDUS_clean_sbu_1, # of connection points: 6
#     Node 9, Type 1, BuildingBlock: CIFDUS_clean_sbu_1, # of connection points: 6
#     Node 10, Type 1, BuildingBlock: CIFDUS_clean_sbu_1, # of connection points: 6
#     Node 11, Type 1, BuildingBlock: CIFDUS_clean_sbu_1, # of connection points: 6
#     Edge 12, Type (0, 1), BuildingBlock: MIFKUJ_clean_linker_0, # of connection points: 2
#     Edge 13, Type (0, 1), BuildingBlock: MIFKUJ_clean_linker_0, # of connection points: 2
#     Edge 14, Type (0, 1), BuildingBlock: MIFKUJ_clean_linker_0, # of connection points: 2
#     Edge 15, Type (0, 1), BuildingBlock: MIFKUJ_clean_linker_0, # of connection points: 2
#     Edge 16, Type (0, 1), BuildingBlock: MIFKUJ_clean_linker_0, # of connection points: 2
#     Edge 17, Type (0, 1), BuildingBlock: MIFKUJ_clean_linker_0, # of connection points: 2
#     Edge 18, Type (0, 1), BuildingBlock: MIFKUJ_clean_linker_0, # of connection points: 2
#     Edge 19, Type (0, 1), BuildingBlock: MIFKUJ_clean_linker_0, # of connection points: 2
#     Edge 20, Type (0, 1), BuildingBlock: MIFKUJ_clean_linker_0, # of connection points: 2
#     Edge 21, Type (0, 1), BuildingBlock: MIFKUJ_clean_linker_0, # of connection points: 2
#     Edge 22, Type (0, 1), BuildingBlock: MIFKUJ_clean_linker_0, # of connection points: 2
#     Edge 23, Type (0, 1), BuildingBlock: MIFKUJ_clean_linker_0, # of connection points: 2
#     Edge 24, Type (0, 1), BuildingBlock: MIFKUJ_clean_linker_0, # of connection points: 2
#     Edge 25, Type (0, 1), BuildingBlock: MIFKUJ_clean_linker_0, # of connection points: 2
#     Edge 26, Type (0, 1), BuildingBlock: MIFKUJ_clean_linker_0, # of connection points: 2
#     Edge 27, Type (0, 1), BuildingBlock: MIFKUJ_clean_linker_0, # of connection points: 2
#     Edge 28, Type (0, 1), BuildingBlock: MIFKUJ_clean_linker_0, # of connection points: 2
#     Edge 29, Type (0, 1), BuildingBlock: MIFKUJ_clean_linker_0, # of connection points: 2
#     Edge 30, Type (0, 1), BuildingBlock: MIFKUJ_clean_linker_0, # of connection points: 2
#     Edge 31, Type (0, 1), BuildingBlock: MIFKUJ_clean_linker_0, # of connection points: 2
#     Edge 32, Type (0, 1), BuildingBlock: MIFKUJ_clean_linker_0, # of connection points: 2
#     Edge 33, Type (0, 1), BuildingBlock: MIFKUJ_clean_linker_0, # of connection points: 2
#     Edge 34, Type (0, 1), BuildingBlock: MIFKUJ_clean_linker_0, # of connection points: 2
#     Edge 35, Type (0, 1), BuildingBlock: MIFKUJ_clean_linker_0, # of connection points: 2
# Relax obj value: 0.314
# Max RMSD: 0.222
# Mean RMSD: 0.210
data_MOF--net-zzz--node1-CIFDUS_clean_sbu_1--node2-VETTIZ_charged_linker_0--edge1-MIFKUJ_clean_linker_0
_symmetry_space_group_name_H-M    P1
_symmetry_Int_Tables_number       1
_symmetry_cell_setting            triclinic
loop_
_symmetry_equiv_pos_as_xyz
'x, y, z'
_cell_length_a     67.366893
_cell_length_b     71.610172
_cell_length_c     26.086045
_cell_angle_alpha  89.794613
_cell_angle_beta   90.015522
_cell_angle_gamma 88.383085
loop_
_atom_site_label
_atom_site_type_symbol
_atom_site_fract_x
_atom_site_fract_y
_atom_site_fract_z
_atom_type_partial_charge
C0 C 0.80232 0.58471 0.30097 0.0
C1 C 0.8216 0.59016 0.3161 0.0
C2 C 0.83157 0.603 0.28511 0.0
C3 C 0.80459 0.60385 0.22411 0.0
C4 C 0.79395 0.59203 0.25484 0.0
C5 C 0.77358 0.58869 0.23156 0.0
H6 H 0.71572 0.59614 0.0139 0.0
C7 C 0.79333 0.60766 0.17662 0.0
C8 C 0.77484 0.5991 0.18015 0.0
H9 H 0.69796 0.57195 0.15766 0.0
H10 H 0.72964 0.58038 0.19625 0.0
H11 H 0.7353 0.63331 0.062 0.0
H12 H 0.75568 0.57952 0.01034 0.0
H13 H 0.77635 0.59341 1.00126 0.0
H14 H 0.75361 0.5989 0.96702 0.0
H15 H 0.73563 0.62585 0.99634 0.0
H16 H 0.75672 0.63676 0.02485 0.0
C17 C 0.75771 0.59768 0.26695 0.0
C18 C 0.77112 0.56754 0.2243 0.0
C19 C 0.8323 0.63003 0.02518 0.0
C20 C 0.82862 0.62783 0.97266 0.0
C21 C 0.80883 0.62701 0.95561 0.0
C22 C 0.79333 0.6254 0.99098 0.0
C23 C 0.79783 0.62412 0.04361 0.0
C24 C 0.81688 0.62739 0.05998 0.0
C25 C 0.81964 0.62338 0.11607 0.0
C26 C 0.79943 0.6161 0.13018 0.0
C27 C 0.78672 0.61671 0.08786 0.0
C28 C 0.82363 0.64218 0.14305 0.0
C29 C 0.83644 0.60813 0.1219 0.0
C30 C 0.71854 0.59278 0.05386 0.0
C31 C 0.70453 0.58332 0.08267 0.0
C32 C 0.70867 0.57925 0.1347 0.0
C33 C 0.72702 0.5841 0.1569 0.0
C34 C 0.74118 0.59325 0.12677 0.0
C35 C 0.73644 0.59766 0.07638 0.0
C36 C 0.75269 0.60721 0.04885 0.0
C37 C 0.76788 0.6086 0.09112 0.0
C38 C 0.76156 0.60007 0.137 0.0
C39 C 0.74477 0.62679 0.03164 0.0
C40 C 0.75997 0.59427 0.0044 0.0
H41 H 0.83194 0.61933 0.2183 0.0
H42 H 0.79408 0.57511 0.32435 0.0
H43 H 0.78401 0.5614 0.203 0.0
H44 H 0.75769 0.56437 0.20217 0.0
H45 H 0.7702 0.56033 0.26198 0.0
H46 H 0.76191 0.61206 0.27775 0.0
H47 H 0.75619 0.5894 0.30275 0.0
H48 H 0.74306 0.5991 0.24833 0.0
H49 H 0.84737 0.63053 0.03951 0.0
H50 H 0.80563 0.62562 0.91511 0.0
H51 H 0.77874 0.62365 0.97567 0.0
H52 H 0.81614 0.65412 0.12272 0.0
H53 H 0.83975 0.64498 0.14418 0.0
H54 H 0.8175 0.6428 0.18241 0.0
H55 H 0.83747 0.59907 0.08738 0.0
H56 H 0.83398 0.59809 0.15323 0.0
H57 H 0.85111 0.6145 0.12743 0.0
H58 H 0.84642 0.60728 0.29471 0.0
C59 C 0.82315 0.60997 0.2401 0.0
C60 C 0.01506 0.78879 0.99643 0.0
C61 C 0.01281 0.80821 0.99287 0.0
C62 C 0.01674 0.8194 0.03567 0.0
C63 C 0.02132 0.79188 0.08755 0.0
C64 C 0.01935 0.78087 0.04457 0.0
C65 C 0.02094 0.76045 0.05736 0.0
H66 H 0.98545 0.69555 0.184 0.0
C67 C 0.02152 0.77978 0.13298 0.0
C68 C 0.02244 0.76136 0.1161 0.0
H69 H 0.02891 0.69126 0.06165 0.0
H70 H 0.04146 0.72168 0.08631 0.0
H71 H 0.02704 0.72111 0.25748 0.0
H72 H 0.97113 0.74157 0.19117 0.0
H73 H 0.97548 0.74623 0.25785 0.0
H74 H 0.97113 0.72277 0.23733 0.0
H75 H 1.00409 0.71089 0.27684 0.0
H76 H 0.01042 0.73365 0.29883 0.0
C77 C 0.03977 0.7521 0.03099 0.0
C78 C 1.0018 0.75098 0.03928 0.0
C79 C 1.004 0.81131 0.29935 0.0
C80 C 0.99766 0.80564 0.34783 0.0
C81 C 0.99491 0.78627 0.35608 0.0
C82 C 0.99809 0.77307 0.31582 0.0
C83 C 1.00444 0.77926 0.26726 0.0
C84 C 0.00724 0.79821 0.26052 0.0
C85 C 0.01365 0.80314 0.2077 0.0
C86 C 0.01582 0.78396 0.18401 0.0
C87 C 0.01012 0.76965 0.21801 0.0
C88 C 0.03403 0.81266 0.21112 0.0
C89 C 0.99673 0.81544 0.18271 0.0
C90 C 0.99716 0.70145 0.16127 0.0
C91 C 1.00513 0.69172 0.11779 0.0
C92 C 0.02166 0.69899 0.09237 0.0
C93 C 0.02834 0.71662 0.10446 0.0
C94 C 0.01778 0.7273 0.14015 0.0
C95 C 1.0045 0.71941 0.17289 0.0
C96 C 1.00067 0.73271 0.21819 0.0
C97 C 0.01084 0.75063 0.1999 0.0
C98 C 0.01942 0.74689 0.15175 0.0
C99 C 0.01108 0.72418 0.26566 0.0
C100 C 0.97829 0.73602 0.2267 0.0
H101 H 0.02411 0.82056 0.11396 0.0
H102 H 0.01272 0.7801 0.96322 0.0
H103 H 0.98851 0.75743 0.05817 0.0
H104 H 1.00208 0.73585 0.04785 0.0
H105 H 0.99993 0.75234 0.99712 0.0
H106 H 0.04408 0.76026 0.99661 0.0
H107 H 0.03732 0.73783 0.01637 0.0
H108 H 0.05269 0.75182 0.05751 0.0
H109 H 0.00654 0.82592 0.29145 0.0
H110 H 0.98997 0.78141 0.39317 0.0
H111 H 0.99532 0.75863 0.32327 0.0
H112 H 0.04346 0.80607 0.2416 0.0
H113 H 0.03213 0.82774 0.22032 0.0
H114 H 0.04285 0.81116 0.17554 0.0
H115 H 0.9832 0.81663 0.20708 0.0
H116 H 0.99138 0.80949 0.14623 0.0
H117 H 1.00148 0.82996 0.17572 0.0
H118 H 0.01559 0.83449 0.033 0.0
C119 C 0.02137 0.81133 0.08278 0.0
C120 C 0.79814 0.92717 0.1282 0.0
C121 C 0.80958 0.9202 0.08636 0.0
C122 C 0.80267 0.90489 0.0586 0.0
C123 C 0.77215 0.90582 0.1068 0.0
C124 C 0.77954 0.91922 0.13875 0.0
C125 C 0.76543 0.92286 0.18349 0.0
H126 H 0.67239 0.90764 0.28255 0.0
C127 C 0.75198 0.90153 0.12283 0.0
C128 C 0.74789 0.91062 0.16954 0.0
H129 H 0.71739 0.94112 0.35191 0.0
H130 H 0.74033 0.93265 0.28285 0.0
H131 H 0.67387 0.92264 0.18641 0.0
H132 H 0.70059 0.87283 0.24343 0.0
H133 H 0.69141 0.86786 0.18172 0.0
H134 H 0.67479 0.87749 0.22963 0.0
H135 H 0.66369 0.90089 0.16934 0.0
H136 H 0.68131 0.91233 0.12844 0.0
C137 C 0.75947 0.94378 0.18443 0.0
C138 C 0.77581 0.91603 0.23307 0.0
C139 C 0.70318 0.88547 0.98523 0.0
C140 C 0.68235 0.88502 0.98711 0.0
C141 C 0.67314 0.88094 0.03426 0.0
C142 C 0.68417 0.88046 0.07966 0.0
C143 C 0.70437 0.88459 0.07792 0.0
C144 C 0.71391 0.88554 0.03126 0.0
C145 C 0.7357 0.88904 0.03727 0.0
C146 C 0.73673 0.89292 0.09491 0.0
C147 C 0.71821 0.89066 0.11794 0.0
C148 C 0.74107 0.90632 0.00472 0.0
C149 C 0.74744 0.871 0.02138 0.0
C150 C 0.68714 0.91329 0.28334 0.0
C151 C 0.69281 0.92528 0.32279 0.0
C152 C 0.71247 0.93182 0.32216 0.0
C153 C 0.72577 0.92698 0.28187 0.0
C154 C 0.71938 0.91553 0.24156 0.0
C155 C 0.70027 0.90895 0.24334 0.0
C156 C 0.69493 0.89812 0.19668 0.0
C157 C 0.71427 0.89834 0.16711 0.0
C158 C 0.7288 0.90857 0.19301 0.0
C159 C 0.67758 0.90888 0.16869 0.0
C160 C 0.69002 0.878 0.21347 0.0
H161 H 0.77971 0.88573 0.04761 0.0
H162 H 0.80352 0.93839 0.15168 0.0
H163 H 0.78257 0.90182 0.22756 0.0
H164 H 0.76543 0.9149 0.26551 0.0
H165 H 0.78783 0.92556 0.24401 0.0
H166 H 0.75424 0.94847 0.14592 0.0
H167 H 0.77233 0.95231 0.19531 0.0
H168 H 0.74726 0.94688 0.21151 0.0
H169 H 0.71063 0.88773 0.94908 0.0
H170 H 0.65715 0.88011 0.0371 0.0
H171 H 0.67629 0.87822 0.11468 0.0
H172 H 0.73138 0.91857 0.01505 0.0
H173 H 0.73925 0.90354 0.96318 0.0
H174 H 0.7566 0.91035 0.00995 0.0
H175 H 0.73773 0.86012 0.0055 0.0
H176 H 0.75526 0.86443 0.05465 0.0
H177 H 0.75846 0.87386 0.99088 0.0
H178 H 0.81136 0.89896 0.02739 0.0
C179 C 0.78419 0.89752 0.0692 0.0
C180 C 0.49245 0.71626 0.32438 0.0
C181 C 0.49405 0.69635 0.32716 0.0
C182 C 0.49765 0.68643 0.28154 0.0
C183 C 0.49483 0.71468 0.2313 0.0
C184 C 0.49306 0.72522 0.27536 0.0
C185 C 0.49256 0.74608 0.26163 0.0
H186 H 0.48445 0.80982 0.06063 0.0
C187 C 0.49361 0.72706 0.18627 0.0
C188 C 0.49219 0.74575 0.20257 0.0
H189 H 0.49667 0.82435 0.21728 0.0
H190 H 0.49457 0.79119 0.24259 0.0
H191 H 0.51624 0.7835 0.05861 0.0
H192 H 0.45393 0.77515 0.07629 0.0
H193 H 0.46288 0.75858 0.03153 0.0
H194 H 0.46565 0.78311 0.01869 0.0
H195 H 0.50059 0.78058 0.004 0.0
H196 H 0.51332 0.76101 0.03467 0.0
C197 C 0.51178 0.75455 0.28198 0.0
C198 C 0.47378 0.75568 0.28379 0.0
C199 C 0.49854 0.6972 0.01253 0.0
C200 C 0.50145 0.70461 0.96332 0.0
C201 C 0.49693 0.72355 0.95399 0.0
C202 C 0.49154 0.7353 0.99499 0.0
C203 C 0.49136 0.72797 0.0454 0.0
C204 C 0.49434 0.7091 0.05294 0.0
C205 C 0.49532 0.70362 0.10824 0.0
C206 C 0.49287 0.72251 0.13356 0.0
C207 C 0.4904 0.73655 0.09682 0.0
C208 C 0.51626 0.6945 0.11854 0.0
C209 C 0.47749 0.69091 0.11915 0.0
C210 C 0.48615 0.80604 0.10076 0.0
C211 C 0.49026 0.81959 0.13697 0.0
C212 C 0.49332 0.81401 0.18859 0.0
C213 C 0.49231 0.79487 0.20303 0.0
C214 C 0.48909 0.7813 0.16504 0.0
C215 C 0.48629 0.78732 0.11487 0.0
C216 C 0.4866 0.77192 0.07703 0.0
C217 C 0.48904 0.75534 0.11209 0.0
C218 C 0.49021 0.76035 0.16439 0.0
C219 C 0.50498 0.77431 0.04145 0.0
C220 C 0.46629 0.77216 0.04897 0.0
H221 H 0.49966 0.68636 0.20204 0.0
H222 H 0.4904 0.72446 0.35884 0.0
H223 H 0.46029 0.74853 0.27041 0.0
H224 H 0.47244 0.77047 0.27161 0.0
H225 H 0.47403 0.75524 0.32637 0.0
H226 H 0.52497 0.74604 0.26949 0.0
H227 H 0.51171 0.75491 0.32457 0.0
H228 H 0.51388 0.76883 0.26757 0.0
H229 H 0.50102 0.68244 0.02044 0.0
H230 H 0.49833 0.72933 0.91578 0.0
H231 H 0.48853 0.7497 0.98597 0.0
H232 H 0.5274 0.69894 0.0898 0.0
H233 H 0.51585 0.67902 0.11719 0.0
H234 H 0.52268 0.6988 0.15561 0.0
H235 H 0.46428 0.69535 0.09605 0.0
H236 H 0.47229 0.6916 0.15927 0.0
H237 H 0.48118 0.67614 0.10926 0.0
H238 H 0.50009 0.6714 0.28196 0.0
C239 C 0.49762 0.69529 0.23438 0.0
C240 C 0.30014 0.42629 0.34293 0.0
C241 C 0.3101 0.41974 0.38782 0.0
C242 C 0.30049 0.40702 0.41991 0.0
C243 C 0.27134 0.40836 0.36591 0.0
C244 C 0.28078 0.42004 0.33214 0.0
C245 C 0.26768 0.42434 0.28565 0.0
H246 H 0.17573 0.41322 0.17463 0.0
C247 C 0.25132 0.40478 0.34648 0.0
C248 C 0.24896 0.41353 0.29826 0.0
H249 H 0.22258 0.4464 0.11282 0.0
H250 H 0.24443 0.43631 0.1834 0.0
H251 H 0.20304 0.37757 0.21037 0.0
H252 H 0.17648 0.42663 0.27299 0.0
H253 H 0.18076 0.41367 0.32893 0.0
H254 H 0.16463 0.40482 0.27992 0.0
H255 H 0.17719 0.38122 0.22494 0.0
H256 H 0.1943 0.37094 0.2711 0.0
C257 C 0.27816 0.41662 0.23737 0.0
C258 C 0.26342 0.44557 0.28319 0.0
C259 C 0.19919 0.38241 0.46993 0.0
C260 C 0.17853 0.38094 0.4636 0.0
C261 C 0.17094 0.37888 0.41353 0.0
C262 C 0.18316 0.38089 0.3709 0.0
C263 C 0.203 0.38559 0.37809 0.0
C264 C 0.21111 0.38501 0.42657 0.0
C265 C 0.23276 0.38964 0.42598 0.0
C266 C 0.23532 0.3956 0.37009 0.0
C267 C 0.21773 0.39337 0.34282 0.0
C268 C 0.24497 0.37153 0.43928 0.0
C269 C 0.23596 0.40599 0.46364 0.0
C270 C 0.19067 0.41845 0.17588 0.0
C271 C 0.19717 0.43091 0.13849 0.0
C272 C 0.21703 0.43687 0.1414 0.0
C273 C 0.22963 0.43114 0.18259 0.0
C274 C 0.22231 0.41937 0.22132 0.0
C275 C 0.2031 0.41318 0.21656 0.0
C276 C 0.19673 0.40169 0.26099 0.0
C277 C 0.21525 0.40156 0.29367 0.0
C278 C 0.23053 0.41183 0.27099 0.0
C279 C 0.19241 0.38181 0.24112 0.0
C280 C 0.17873 0.41204 0.28708 0.0
H281 H 0.27497 0.3918 0.43555 0.0
H282 H 0.30728 0.43584 0.31701 0.0
H283 H 0.25825 0.45084 0.3211 0.0
H284 H 0.25167 0.44937 0.25534 0.0
H285 H 0.27705 0.45308 0.2726 0.0
H286 H 0.2831 0.40183 0.2435 0.0
H287 H 0.29144 0.42485 0.22813 0.0
H288 H 0.26827 0.4168 0.20365 0.0
H289 H 0.20563 0.38318 0.50785 0.0
H290 H 0.15521 0.37757 0.40657 0.0
H291 H 0.17625 0.38009 0.33407 0.0
H292 H 0.23573 0.35889 0.43952 0.0
H293 H 0.25188 0.3724 0.47785 0.0
H294 H 0.25676 0.36854 0.41049 0.0
H295 H 0.22478 0.41745 0.45669 0.0
H296 H 0.25063 0.41227 0.45989 0.0
H297 H 0.23447 0.40128 0.50403 0.0
H298 H 0.30764 0.40181 0.45456 0.0
C299 C 0.28138 0.40128 0.40907 0.0
C300 C 0.00985 0.21251 0.46469 0.0
C301 C 0.01404 0.19327 0.46415 0.0
C302 C 0.01016 0.18285 0.41983 0.0
C303 C 1.00107 0.21115 0.3746 0.0
C304 C 1.00345 0.22121 0.41913 0.0
C305 C 0.99869 0.24164 0.41146 0.0
H306 H 0.01385 0.31462 0.27147 0.0
C307 C 0.99719 0.22437 0.3324 0.0
C308 C 0.99533 0.24222 0.35328 0.0
H309 H 0.98539 0.31167 0.42006 0.0
H310 H 0.9777 0.27936 0.40408 0.0
H311 H 0.03639 0.27173 0.25639 0.0
H312 H 0.97381 0.28343 0.22406 0.0
H313 H 0.98766 0.2726 0.17373 0.0
H314 H 0.99267 0.29622 0.19139 0.0
H315 H 0.02915 0.28999 0.2119 0.0
H316 H 0.02796 0.26593 0.19346 0.0
C317 C 0.01692 0.25283 0.42799 0.0
C318 C 0.97972 0.24675 0.44286 0.0
C319 C 0.00585 0.19859 0.1548 0.0
C320 C 0.0091 0.20599 0.10603 0.0
C321 C 0.00908 0.22571 0.10053 0.0
C322 C 0.00651 0.23761 0.14385 0.0
C323 C 1.00368 0.22969 0.19287 0.0
C324 C 1.00337 0.2104 0.19684 0.0
C325 C 1.00147 0.20365 0.25055 0.0
C326 C 0.99937 0.22195 0.27886 0.0
C327 C 1.0007 0.23752 0.24577 0.0
C328 C 0.02095 0.19241 0.26443 0.0
C329 C 0.98221 0.19235 0.25465 0.0
C330 C 0.00648 0.30678 0.30111 0.0
C331 C 1.00134 0.3153 0.34873 0.0
C332 C 0.99039 0.30518 0.38468 0.0
C333 C 0.98654 0.28645 0.37662 0.0
C334 C 0.99444 0.27753 0.3335 0.0
C335 C 1.00218 0.28765 0.29375 0.0
C336 C 1.00427 0.27532 0.24611 0.0
C337 C 0.99924 0.25596 0.26756 0.0
C338 C 0.99467 0.25784 0.32001 0.0
C339 C 0.02565 0.27576 0.22564 0.0
C340 C 0.98882 0.28224 0.20636 0.0
H341 H 1.00049 0.18295 0.34313 0.0
H342 H 0.01177 0.22049 0.49942 0.0
H343 H 0.97534 0.23539 0.46942 0.0
H344 H 0.96674 0.24953 0.41738 0.0
H345 H 0.98194 0.2591 0.4676 0.0
H346 H 0.03023 0.24852 0.40523 0.0
H347 H 0.02033 0.25049 0.46921 0.0
H348 H 0.01452 0.26803 0.42306 0.0
H349 H 0.00557 0.1836 0.16062 0.0
H350 H 0.01153 0.23185 0.06317 0.0
H351 H 0.0072 0.25243 0.13812 0.0
H352 H 0.03282 0.19393 0.23517 0.0
H353 H 0.01832 0.17722 0.2678 0.0
H354 H 0.02782 0.19735 0.3003 0.0
H355 H 0.97005 0.19903 0.23155 0.0
H356 H 0.97634 0.19175 0.29421 0.0
H357 H 0.98463 0.17788 0.24029 0.0
H358 H 0.01231 0.16778 0.4198 0.0
C359 C 1.00339 0.19166 0.37533 0.0
C360 C 0.3019 0.08562 0.15779 0.0
C361 C 0.32088 0.0921 0.14329 0.0
C362 C 0.32823 0.10785 0.16843 0.0
C363 C 0.30134 0.10727 0.22922 0.0
C364 C 0.29217 0.09377 0.20098 0.0
C365 C 0.27185 0.08981 0.22379 0.0
H366 H 0.21161 0.09905 0.43733 0.0
C367 C 0.28998 0.11085 0.27633 0.0
C368 C 0.27203 0.10131 0.27346 0.0
H369 H 0.19612 0.07175 0.29663 0.0
H370 H 0.22794 0.08027 0.25876 0.0
H371 H 0.25076 0.08248 0.4459 0.0
H372 H 0.2317 0.13569 0.38853 0.0
H373 H 0.25293 0.13932 0.42633 0.0
H374 H 0.23168 0.12848 0.45456 0.0
H375 H 0.25084 0.1025 0.48641 0.0
H376 H 0.27256 0.09509 0.4504 0.0
C377 C 0.27043 0.06872 0.23448 0.0
C378 C 0.25588 0.0973 0.18609 0.0
C379 C 0.32937 0.12828 0.43195 0.0
C380 C 0.32476 0.12594 0.48396 0.0
C381 C 0.30476 0.12664 0.49933 0.0
C382 C 0.28961 0.12681 0.4626 0.0
C383 C 0.29465 0.12551 0.41037 0.0
C384 C 0.31416 0.12741 0.39558 0.0
C385 C 0.31699 0.12462 0.33889 0.0
C386 C 0.29621 0.11886 0.32312 0.0
C387 C 0.28336 0.11931 0.36521 0.0
C388 C 0.33279 0.10869 0.33104 0.0
C389 C 0.32282 0.14356 0.31483 0.0
C390 C 0.2149 0.09518 0.39804 0.0
C391 C 0.20138 0.08496 0.36978 0.0
C392 C 0.20635 0.0798 0.31901 0.0
C393 C 0.22476 0.08475 0.29716 0.0
C394 C 0.23832 0.09488 0.32652 0.0
C395 C 0.23302 0.09992 0.37604 0.0
C396 C 0.2491 0.10971 0.40359 0.0
C397 C 0.26453 0.11106 0.36174 0.0
C398 C 0.25861 0.10208 0.31634 0.0
C399 C 0.2562 0.09697 0.44902 0.0
C400 C 0.24101 0.12932 0.41956 0.0
H401 H 0.32486 0.12733 0.22857 0.0
H402 H 0.29532 0.07417 0.13753 0.0
H403 H 0.25921 0.11177 0.17372 0.0
H404 H 0.24096 0.09806 0.20336 0.0
H405 H 0.25539 0.08841 0.15131 0.0
H406 H 0.28333 0.06365 0.25775 0.0
H407 H 0.27036 0.06073 0.19806 0.0
H408 H 0.25689 0.06539 0.25605 0.0
H409 H 0.34472 0.12792 0.41955 0.0
H410 H 0.30093 0.1251 0.53943 0.0
H411 H 0.27468 0.12639 0.47651 0.0
H412 H 0.32931 0.09635 0.3551 0.0
H413 H 0.34776 0.11342 0.34174 0.0
H414 H 0.33397 0.10368 0.2914 0.0
H415 H 0.32249 0.15517 0.34309 0.0
H416 H 0.31235 0.14805 0.28396 0.0
H417 H 0.33811 0.14283 0.29888 0.0
H418 H 0.3421 0.11382 0.15648 0.0
C419 C 0.31839 0.11561 0.21053 0.0
C420 C 0.51004 0.28737 0.12342 0.0
C421 C 0.5096 0.30709 0.11646 0.0
C422 C 0.51015 0.31864 0.15958 0.0
C423 C 0.5108 0.29174 0.21584 0.0
C424 C 0.51076 0.27993 0.1741 0.0
C425 C 0.5111 0.25952 0.19173 0.0
H426 H 0.51556 0.20035 0.40286 0.0
C427 C 0.51128 0.28047 0.26313 0.0
C428 C 0.51197 0.26137 0.25035 0.0
H429 H 0.50775 0.18262 0.24675 0.0
H430 H 0.51037 0.21518 0.21706 0.0
H431 H 0.54812 0.23257 0.38237 0.0
H432 H 0.48514 0.22883 0.39875 0.0
H433 H 0.49003 0.25083 0.42343 0.0
H434 H 0.50112 0.23032 0.45336 0.0
H435 H 0.53587 0.22832 0.44219 0.0
H436 H 0.54055 0.25173 0.4202 0.0
C437 C 0.52977 0.24942 0.1704 0.0
C438 C 0.49172 0.2506 0.17416 0.0
C439 C 0.50431 0.31428 0.43172 0.0
C440 C 0.50592 0.30851 0.48287 0.0
C441 C 0.51047 0.28977 0.49471 0.0
C442 C 0.51286 0.27671 0.45517 0.0
C443 C 0.51096 0.2827 0.40372 0.0
C444 C 0.50718 0.30127 0.393 0.0
C445 C 0.50769 0.30561 0.33688 0.0
C446 C 0.51088 0.2862 0.31496 0.0
C447 C 0.51261 0.27296 0.35412 0.0
C448 C 0.52573 0.31824 0.32675 0.0
C449 C 0.48713 0.31428 0.32181 0.0
C450 C 0.5147 0.20334 0.36209 0.0
C451 C 0.51136 0.18907 0.32731 0.0
C452 C 0.51027 0.19353 0.27444 0.0
C453 C 0.5116 0.21235 0.25741 0.0
C454 C 0.51378 0.22671 0.29378 0.0
C455 C 0.51541 0.22173 0.34509 0.0
C456 C 0.51565 0.23799 0.3802 0.0
C457 C 0.51395 0.25382 0.3423 0.0
C458 C 0.51326 0.24764 0.29096 0.0
C459 C 0.536 0.23769 0.40818 0.0
C460 C 0.4972 0.23703 0.41612 0.0
H461 H 0.51083 0.32101 0.23921 0.0
H462 H 0.50972 0.27815 0.09066 0.0
H463 H 0.47866 0.25952 0.18539 0.0
H464 H 0.48966 0.23677 0.19177 0.0
H465 H 0.49152 0.24901 0.13181 0.0
H466 H 0.54329 0.25714 0.18072 0.0
H467 H 0.52902 0.24848 0.12794 0.0
H468 H 0.53164 0.23513 0.18607 0.0
H469 H 0.50184 0.32889 0.42205 0.0
H470 H 0.51243 0.28537 0.53421 0.0
H471 H 0.51625 0.26255 0.46626 0.0
H472 H 0.53625 0.31841 0.35964 0.0
H473 H 0.5209 0.33293 0.31932 0.0
H474 H 0.53487 0.31321 0.29394 0.0
H475 H 0.47498 0.30653 0.34045 0.0
H476 H 0.48397 0.31366 0.28039 0.0
H477 H 0.48572 0.32905 0.33423 0.0
H478 H 0.50993 0.33372 0.15517 0.0
C479 C 0.51076 0.31116 0.20871 0.0
O480 O 0.00765 0.03105 0.77144 0.0
Mn481 Mn 1.00234 0.00745 0.72504 0.0
O482 O 0.98017 0.04748 0.75479 0.0
Mn483 Mn 0.96718 0.02695 0.72946 0.0
O484 O 0.99793 0.98342 0.67886 0.0
O485 O 0.03127 0.0106 0.69648 0.0
Mn486 Mn 0.041 0.988 0.71301 0.0
O487 O 0.00992 0.9898 0.786 0.0
O488 O 0.02811 0.96934 0.67817 0.0
O489 O 0.99499 0.02427 0.66172 0.0
O490 O 0.96278 0.02608 0.66069 0.0
O491 O 0.06179 -0.00164 0.68274 0.0
O492 O 0.04232 0.98521 0.78278 0.0
C493 C 0.95454 0.00725 0.77278 0.0
C494 C 0.9973 0.04631 0.77471 0.0
C495 C 0.00977 0.96966 0.66632 0.0
C496 C 0.04949 0.01253 0.67854 0.0
C497 C 0.02593 0.9828 0.8049 0.0
C498 C 0.97886 0.02798 0.63764 0.0
O499 O 0.97314 0.00425 0.75648 0.0
O500 O 0.94549 0.0231 0.7634 0.0
O501 O 0.52372 0.00014 0.80037 0.0
Mn502 Mn 0.50587 0.00524 0.73605 0.0
O503 O 0.54177 0.02524 0.81182 0.0
Mn504 Mn 0.54307 0.02859 0.74197 0.0
O505 O 0.48883 0.01129 0.67066 0.0
O506 O 0.49329 0.97947 0.7555 0.0
Mn507 Mn 0.46956 0.98567 0.72777 0.0
O508 O 0.4848 0.01947 0.78276 0.0
O509 O 0.46934 0.98787 0.65794 0.0
O510 O 0.52778 0.99174 0.6904 0.0
O511 O 0.55493 0.00886 0.7053 0.0
O512 O 0.46584 0.96261 0.74934 0.0
O513 O 0.45686 0.00473 0.7647 0.0
C514 C 0.52299 0.04615 0.69926 0.0
C515 C 0.53584 0.00956 0.82727 0.0
C516 C 0.47669 0.00273 0.64213 0.0
C517 C 0.48397 0.96379 0.76543 0.0
C518 C 0.46594 0.01766 0.78747 0.0
C519 C 0.54647 0.99494 0.68468 0.0
O520 O 0.51854 0.03004 0.7188 0.0
O521 O 0.5405 0.05164 0.71139 0.0
O522 O 0.50155 0.51923 0.79767 0.0
Mn523 Mn 0.50646 0.50416 0.73136 0.0
O524 O 0.46961 0.52104 0.80949 0.0
Mn525 Mn 0.46848 0.52281 0.73961 0.0
O526 O 0.51128 0.4895 0.66403 0.0
O527 O 0.53636 0.50701 0.75475 0.0
Mn528 Mn 0.54476 0.48591 0.72418 0.0
O529 O 0.50475 0.47908 0.77404 0.0
O530 O 0.54342 0.48634 0.65405 0.0
O531 O 0.50825 0.52919 0.68905 0.0
O532 O 0.4794 0.54373 0.70858 0.0
O533 O 0.56723 0.49454 0.74849 0.0
O534 O 0.53468 0.46574 0.75967 0.0
C535 C 0.45744 0.50162 0.69577 0.0
C536 C 0.48675 0.52414 0.82529 0.0
C537 C 0.52622 0.48571 0.6357 0.0
C538 C 0.55549 0.50754 0.76673 0.0
C539 C 0.51763 0.46564 0.78089 0.0
C540 C 0.49629 0.54352 0.68658 0.0
O541 O 0.47658 0.50173 0.70781 0.0
O542 O 0.44601 0.51496 0.71349 0.0
O543 O 0.02867 0.49487 0.77628 0.0
Mn544 Mn 0.0053 0.50454 0.72785 0.0
O545 O 0.0535 0.51466 0.75989 0.0
Mn546 Mn 0.03979 0.53113 0.71614 0.0
O547 O 0.98208 0.51425 0.67867 0.0
O548 O 0.99587 0.47797 0.71838 0.0
Mn549 Mn 0.97067 0.47756 0.73646 0.0
O550 O 0.98712 0.50943 0.79114 0.0
O551 O 0.95784 0.49347 0.68971 0.0
O552 O 0.02353 0.49908 0.66534 0.0
O553 O 0.04101 0.52421 0.64823 0.0
O554 O 0.97719 0.45367 0.71565 0.0
O555 O 0.96819 0.48472 0.80412 0.0
C556 C 0.01757 0.54856 0.75121 0.0
C557 C 0.04669 0.50029 0.78238 0.0
C558 C 0.9646 0.50814 0.66854 0.0
C559 C 0.99401 0.46077 0.70341 0.0
C560 C 0.97448 0.50049 0.81787 0.0
C561 C 0.0359 0.50777 0.63752 0.0
O562 O 0.01488 0.53125 0.73771 0.0
O563 O 0.03443 0.55513 0.73719 0.0
H564 H 0.19671 0.05451 0.43027 0.0
H565 H 0.1679 0.04687 0.4831 0.0
H566 H 0.13606 0.09544 0.42418 0.0
H567 H 0.1651 0.10313 0.37146 0.0
H568 H 0.13214 0.09174 0.53073 0.0
H569 H 0.12433 0.05236 0.38181 0.0
H570 H 0.13699 0.0293 0.31893 0.0
H571 H 0.14865 0.98976 0.44018 0.0
H572 H 0.13626 0.01268 0.5038 0.0
H573 H 0.03976 0.02852 0.58592 0.0
H574 H 0.06213 0.04711 0.53329 0.0
H575 H 0.10297 0.04911 0.65998 0.0
H576 H 0.07997 0.03219 0.71315 0.0
H577 H 0.10019 0.03044 0.5157 0.0
H578 H 0.12112 0.07548 0.6613 0.0
H579 H 0.11231 0.10008 0.72387 0.0
H580 H 0.07989 0.13043 0.60717 0.0
H581 H 0.08683 0.10506 0.54563 0.0
C582 C 0.18338 0.06328 0.42777 0.0
C583 C 0.18288 0.07906 0.39561 0.0
C584 C 0.16695 0.05901 0.45824 0.0
C585 C 0.14962 0.07045 0.45744 0.0
C586 C 0.14917 0.08633 0.42546 0.0
C587 C 0.16564 0.09059 0.39484 0.0
C588 C 0.13205 0.06568 0.48984 0.0
C589 C 0.12508 0.07837 0.52712 0.0
C590 C 0.12279 0.04824 0.48586 0.0
C591 C 0.12941 0.03422 0.44748 0.0
C592 C 0.12959 0.03874 0.395 0.0
C593 C 0.13675 0.02571 0.35926 0.0
C594 C 0.14363 0.00808 0.37555 0.0
C595 C 0.14329 0.00341 0.4276 0.0
C596 C 0.13617 0.01639 0.4635 0.0
C597 C 0.0526 0.03441 0.60376 0.0
C598 C 0.0575 0.02962 0.65458 0.0
C599 C 0.06573 0.0447 0.57328 0.0
C600 C 0.08422 0.05017 0.59272 0.0
C601 C 0.08854 0.04621 0.64435 0.0
C602 C 0.07528 0.03634 0.67493 0.0
C603 C 0.10031 0.0564 0.55716 0.0
C604 C 0.10707 0.04389 0.5191 0.0
C605 C 0.10966 0.07384 0.56122 0.0
C606 C 0.10362 0.08793 0.59974 0.0
C607 C 0.11124 0.08692 0.64983 0.0
C608 C 0.10659 0.10102 0.68513 0.0
C609 C 0.09503 0.11659 0.67001 0.0
C610 C 0.08812 0.11804 0.61958 0.0
C611 C 0.09218 0.10368 0.58467 0.0
H612 H 0.09173 0.12767 0.69709 0.0
H613 H 0.14922 -0.00198 0.34784 0.0
H614 H 0.48018 0.18005 0.3864 0.0
H615 H 0.4778 0.15308 0.44365 0.0
H616 H 0.53194 0.12953 0.37995 0.0
H617 H 0.53446 0.15683 0.32266 0.0
H618 H 0.50181 0.10251 0.40158 0.0
H619 H 0.53494 0.15286 0.48495 0.0
H620 H 0.53842 0.18516 0.51536 0.0
H621 H 0.48615 0.18018 0.60802 0.0
H622 H 0.48211 0.14797 0.57729 0.0
H623 H 0.53355 0.04173 0.60119 0.0
H624 H 0.52684 0.06347 0.53119 0.0
H625 H 0.48465 0.0939 0.62606 0.0
H626 H 0.49261 0.07258 0.6978 0.0
H627 H 0.50636 0.11754 0.58663 0.0
H628 H 0.47083 0.06933 0.50088 0.0
H629 H 0.46537 0.03723 0.47036 0.0
H630 H 0.51942 0.03855 0.38333 0.0
H631 H 0.52514 0.07059 0.41351 0.0
C632 C 0.49121 0.16879 0.38332 0.0
C633 C 0.50733 0.17038 0.34941 0.0
C634 C 0.48995 0.15349 0.4165 0.0
C635 C 0.50481 0.13936 0.41668 0.0
C636 C 0.52028 0.14026 0.3805 0.0
C637 C 0.52163 0.15573 0.34737 0.0
C638 C 0.50478 0.12443 0.45685 0.0
C639 C 0.50299 0.10576 0.44204 0.0
C640 C 0.50566 0.12867 0.50985 0.0
C641 C 0.50808 0.14806 0.5283 0.0
C642 C 0.52406 0.15871 0.51136 0.0
C643 C 0.52615 0.177 0.52873 0.0
C644 C 0.51249 0.18473 0.56349 0.0
C645 C 0.4967 0.17419 0.581 0.0
C646 C 0.4945 0.15592 0.5636 0.0
C647 C 0.52221 0.0526 0.60642 0.0
C648 C 0.51318 0.05513 0.65452 0.0
C649 C 0.5183 0.06511 0.56609 0.0
C650 C 0.50492 0.08039 0.5723 0.0
C651 C 0.49501 0.0823 0.61977 0.0
C652 C 0.49928 0.06994 0.66067 0.0
C653 C 0.50324 0.09537 0.53172 0.0
C654 C 0.50487 0.11416 0.54635 0.0
C655 C 0.50191 0.09128 0.47859 0.0
C656 C 0.4985 0.07216 0.46001 0.0
C657 C 0.4816 0.06264 0.47568 0.0
C658 C 0.47844 0.04452 0.45831 0.0
C659 C 0.4921 0.03582 0.42519 0.0
C660 C 0.50887 0.04528 0.40905 0.0
C661 C 0.51203 0.06344 0.42612 0.0
H662 H 0.48965 0.02178 0.41187 0.0
H663 H 0.51415 0.19888 0.57695 0.0
H664 H 0.32227 0.45562 0.40075 0.0
H665 H 0.35218 0.46558 0.44535 0.0
H666 H 0.37252 0.40811 0.45915 0.0
H667 H 0.34241 0.39818 0.4157 0.0
H668 H 0.37767 0.42395 0.54709 0.0
H669 H 0.39545 0.44052 0.37636 0.0
H670 H 0.39082 0.45484 0.29092 0.0
H671 H 0.38443 0.50909 0.35958 0.0
H672 H 0.38877 0.49506 0.44548 0.0
H673 H 0.46554 0.46396 0.66921 0.0
H674 H 0.44611 0.44519 0.60812 0.0
H675 H 0.40895 0.49372 0.57433 0.0
H676 H 0.42807 0.5121 0.63215 0.0
H677 H 0.41838 0.47651 0.48863 0.0
H678 H 0.39503 0.45844 0.65974 0.0
H679 H 0.39938 0.44383 0.74498 0.0
H680 H 0.4172 0.39194 0.67434 0.0
H681 H 0.41313 0.40633 0.58867 0.0
C682 C 0.3334 0.44519 0.41195 0.0
C683 C 0.33003 0.42614 0.40419 0.0
C684 C 0.35052 0.45085 0.43778 0.0
C685 C 0.36487 0.43763 0.45565 0.0
C686 C 0.36179 0.41864 0.44616 0.0
C687 C 0.34463 0.41298 0.4208 0.0
C688 C 0.38262 0.44358 0.48575 0.0
C689 C 0.38678 0.43523 0.53374 0.0
C690 C 0.39475 0.45821 0.46888 0.0
C691 C 0.39235 0.46673 0.41731 0.0
C692 C 0.39297 0.45549 0.37322 0.0
C693 C 0.3904 0.46356 0.32472 0.0
C694 C 0.38731 0.48286 0.31983 0.0
C695 C 0.38683 0.49415 0.36342 0.0
C696 C 0.38937 0.48615 0.41202 0.0
C697 C 0.45343 0.47056 0.64795 0.0
C698 C 0.44839 0.48955 0.65593 0.0
C699 C 0.4422 0.45982 0.61344 0.0
C700 C 0.42588 0.468 0.58657 0.0
C701 C 0.42141 0.48699 0.594 0.0
C702 C 0.43243 0.49752 0.62768 0.0
C703 C 0.41282 0.45752 0.55082 0.0
C704 C 0.40953 0.46496 0.50148 0.0
C705 C 0.40158 0.44209 0.56653 0.0
C706 C 0.40406 0.43352 0.61793 0.0
C707 C 0.40004 0.44397 0.66244 0.0
C708 C 0.40242 0.43572 0.7108 0.0
C709 C 0.40866 0.41699 0.71508 0.0
C710 C 0.41244 0.40646 0.67098 0.0
C711 C 0.4101 0.41465 0.62253 0.0
H712 H 0.4105 0.41063 0.75254 0.0
H713 H 0.38531 0.48908 0.28224 0.0
H714 H 0.98159 0.34904 0.33934 0.0
H715 H 0.98696 0.37674 0.39259 0.0
H716 H 0.03953 0.35008 0.45659 0.0
H717 H 0.03439 0.32264 0.40264 0.0
H718 H 0.00948 0.36198 0.52989 0.0
H719 H 0.04595 0.38693 0.38616 0.0
H720 H 0.04913 0.39564 0.29503 0.0
H721 H 0.99901 0.4337 0.30882 0.0
H722 H 0.99539 0.42503 0.39989 0.0
H723 H 0.02059 0.43154 0.71144 0.0
H724 H 0.03041 0.41006 0.64296 0.0
H725 H 0.997 0.44423 0.53481 0.0
H726 H 0.99007 0.46706 0.60208 0.0
H727 H 0.02046 0.42787 0.48116 0.0
H728 H 0.97891 0.4022 0.6121 0.0
H729 H 0.9695 0.39261 0.69954 0.0
H730 H 0.02056 0.35541 0.70702 0.0
H731 H 0.03037 0.36495 0.61982 0.0
C732 C 0.99485 0.34955 0.36273 0.0
C733 C 0.00796 0.33394 0.36547 0.0
C734 C 0.99778 0.36527 0.39371 0.0
C735 C 0.01367 0.36554 0.42874 0.0
C736 C 0.02724 0.35028 0.42979 0.0
C737 C 0.02447 0.33472 0.39834 0.0
C738 C 0.01506 0.3808 0.46759 0.0
C739 C 0.01222 0.37636 0.51941 0.0
C740 C 0.0178 0.39967 0.4539 0.0
C741 C 0.02035 0.40527 0.39968 0.0
C742 C 0.03557 0.3971 0.36967 0.0
C743 C 0.03745 0.40204 0.31805 0.0
C744 C 0.02427 0.4152 0.29612 0.0
C745 C 0.00922 0.42351 0.32585 0.0
C746 C 0.00727 0.41862 0.37748 0.0
C747 C 0.01674 0.43517 0.67233 0.0
C748 C 0.0055 0.45153 0.66184 0.0
C749 C 0.0216 0.42242 0.63319 0.0
C750 C 0.0137 0.42479 0.58341 0.0
C751 C 1.00334 0.44172 0.57243 0.0
C752 C 0.99946 0.45494 0.61103 0.0
C753 C 0.01464 0.40924 0.54435 0.0
C754 C 0.01787 0.41354 0.49225 0.0
C755 C 0.01138 0.39025 0.55752 0.0
C756 C 0.00548 0.38444 0.60978 0.0
C757 C 0.98816 0.39204 0.63254 0.0
C758 C 0.98276 0.38662 0.68202 0.0
C759 C 0.99446 0.37345 0.70887 0.0
C760 C 0.01154 0.36564 0.68623 0.0
C761 C 0.01703 0.37104 0.63679 0.0
H762 H 0.99026 0.36927 0.74719 0.0
H763 H 0.02572 0.41897 0.25612 0.0
H764 H 0.84669 0.90414 0.07882 0.0
H765 H 0.87462 0.91553 0.02809 0.0
H766 H 0.84126 0.96649 0.99603 0.0
H767 H 0.81347 0.95524 0.04751 0.0
H768 H 0.85572 0.9465 0.9077 0.0
H769 H 0.88005 0.96831 0.07141 0.0
H770 H 0.89055 0.96353 0.16117 0.0
H771 H 0.93603 0.92426 0.11261 0.0
H772 H 0.92561 0.92862 0.02262 0.0
H773 H 0.9148 0.00825 0.78257 0.0
H774 H 0.89424 0.99072 0.83827 0.0
H775 H 0.945 0.95672 0.88523 0.0
H776 H 0.96647 0.97549 0.82987 0.0
H777 H 0.92401 0.96096 0.96283 0.0
H778 H 0.90362 0.94494 0.79435 0.0
H779 H 0.89148 0.94728 0.70606 0.0
H780 H 0.83749 0.97409 0.75852 0.0
H781 H 0.84929 0.97194 0.8476 0.0
C782 C 0.84566 0.91807 0.06248 0.0
C783 C 0.82805 0.92896 0.06791 0.0
C784 C 0.86156 0.9245 0.03318 0.0
C785 C 0.86006 0.94186 0.00803 0.0
C786 C 0.84279 0.95307 0.01511 0.0
C787 C 0.82701 0.94675 0.04508 0.0
C788 C 0.87574 0.94779 0.97131 0.0
C789 C 0.87061 0.94995 0.91954 0.0
C790 C 0.89549 0.95107 0.98643 0.0
C791 C 0.90192 0.94864 0.04037 0.0
C792 C 0.89219 0.95854 0.07993 0.0
C793 C 0.89814 0.95594 0.13084 0.0
C794 C 0.91391 0.94356 0.14261 0.0
C795 C 0.9238 0.93382 0.10345 0.0
C796 C 0.91789 0.93637 0.05248 0.0
C797 C 0.92186 0.99692 0.80408 0.0
C798 C 0.94255 0.99344 0.80157 0.0
C799 C 0.90978 0.98656 0.83571 0.0
C800 C 0.91754 0.97152 0.86451 0.0
C801 C 0.93828 0.96774 0.86214 0.0
C802 C 0.95066 0.97848 0.83048 0.0
C803 C 0.90378 0.9609 0.89866 0.0
C804 C 0.90924 0.95751 0.95007 0.0
C805 C 0.88424 0.95627 0.8828 0.0
C806 C 0.87732 0.95792 0.82849 0.0
C807 C 0.8891 0.95115 0.78763 0.0
C808 C 0.88229 0.95254 0.73713 0.0
C809 C 0.86367 0.96073 0.72667 0.0
C810 C 0.85188 0.96764 0.76669 0.0
C811 C 0.85862 0.96628 0.81728 0.0
H812 H 0.85843 0.96179 0.68752 0.0
H813 H 0.9185 0.94155 0.18205 0.0
H814 H 0.46207 0.84308 0.09696 0.0
H815 H 0.46777 0.86772 0.0339 0.0
H816 H 0.5308 0.86244 0.06103 0.0
H817 H 0.52505 0.83765 0.12441 0.0
H818 H 0.51754 0.89982 0.04197 0.0
H819 H 0.51274 0.83975 0.96527 0.0
H820 H 0.49764 0.80941 0.94864 0.0
H821 H 0.44583 0.83744 0.8863 0.0
H822 H 0.46044 0.86797 0.90349 0.0
H823 H 0.52231 0.95515 0.80409 0.0
H824 H 0.53106 0.9305 0.86806 0.0
H825 H 0.46997 0.91403 0.87068 0.0
H826 H 0.46146 0.93758 0.80871 0.0
H827 H 0.49166 0.88438 0.86985 0.0
H828 H 0.49453 0.94446 0.95793 0.0
H829 H 0.50854 0.97456 0.9827 0.0
H830 H 0.56262 0.9462 0.02977 0.0
H831 H 0.54948 0.91627 1.00203 0.0
C832 C 0.47705 0.84783 0.09138 0.0
C833 C 0.49307 0.83874 0.1166 0.0
C834 C 0.48035 0.86168 0.0546 0.0
C835 C 0.49975 0.86671 0.04189 0.0
C836 C 0.5157 0.85879 0.07006 0.0
C837 C 0.51239 0.84482 0.1069 0.0
C838 C 0.50323 0.87913 0.99676 0.0
C839 C 0.51218 0.89636 0.00405 0.0
C840 C 0.49636 0.87457 0.94715 0.0
C841 C 0.48765 0.85618 0.93605 0.0
C842 C 0.49807 0.83946 0.94838 0.0
C843 C 0.48959 0.82222 0.93885 0.0
C844 C 0.47077 0.82149 0.91658 0.0
C845 C 0.4604 0.83801 0.90363 0.0
C846 C 0.46878 0.8553 0.91323 0.0
C847 C 0.51086 0.94627 0.81873 0.0
C848 C 0.49114 0.94871 0.80148 0.0
C849 C 0.51584 0.93215 0.85516 0.0
C850 C 0.50113 0.92036 0.87485 0.0
C851 C 0.48172 0.92267 0.85636 0.0
C852 C 0.47686 0.93642 0.82049 0.0
C853 C 0.50485 0.90578 0.91554 0.0
C854 C 0.49738 0.88785 0.90742 0.0
C855 C 0.5129 0.90981 0.9644 0.0
C856 C 0.52117 0.92816 0.97693 0.0
C857 C 0.50962 0.94474 0.9722 0.0
C858 C 0.51742 0.96181 0.98676 0.0
C859 C 0.53654 0.96239 0.00734 0.0
C860 C 0.54796 0.94591 0.01298 0.0
C861 C 0.54041 0.9289 0.99745 0.0
H862 H 0.54248 0.97559 0.01909 0.0
H863 H 0.46424 0.80812 0.90925 0.0
H864 H 0.70224 0.55895 0.00396 0.0
H865 H 0.67311 0.55146 0.95286 0.0
H866 H 0.63676 0.58806 0.04737 0.0
H867 H 0.66599 0.59497 0.09989 0.0
H868 H 0.61825 0.55781 0.03055 0.0
H869 H 0.65174 0.59955 0.91857 0.0
H870 H 0.68077 0.61102 0.87159 0.0
H871 H 0.68494 0.55974 0.78692 0.0
H872 H 0.65611 0.54787 0.83385 0.0
H873 H 0.54952 0.54575 0.78967 0.0
H874 H 0.56998 0.56412 0.84931 0.0
H875 H 0.60336 0.51413 0.89024 0.0
H876 H 0.58283 0.49596 0.83475 0.0
H877 H 0.61877 0.55838 0.84056 0.0
H878 H 0.5916 0.51452 0.97251 0.0
H879 H 0.56843 0.50174 0.03509 0.0
H880 H 0.55651 0.55674 0.09455 0.0
H881 H 0.57859 0.57004 0.02943 0.0
C882 C 0.68795 0.56517 0.01417 0.0
C883 C 0.68627 0.5773 0.05628 0.0
C884 C 0.67134 0.56116 0.98438 0.0
C885 C 0.6527 0.56956 0.99511 0.0
C886 C 0.65095 0.58148 0.03788 0.0
C887 C 0.66758 0.5853 0.06822 0.0
C888 C 0.6349 0.56497 0.9636 0.0
C889 C 0.61819 0.55837 0.98896 0.0
C890 C 0.63483 0.56547 0.90923 0.0
C891 C 0.65178 0.57281 0.87982 0.0
C892 C 0.65887 0.59071 0.88999 0.0
C893 C 0.6753 0.59727 0.86339 0.0
C894 C 0.6847 0.58611 0.82631 0.0
C895 C 0.67763 0.56839 0.8156 0.0
C896 C 0.66122 0.56175 0.84211 0.0
C897 C 0.56061 0.53864 0.81324 0.0
C898 C 0.56424 0.51929 0.8078 0.0
C899 C 0.57243 0.54913 0.84702 0.0
C900 C 0.58764 0.54033 0.87653 0.0
C901 C 0.59104 0.52113 0.87073 0.0
C902 C 0.57935 0.51078 0.838 0.0
C903 C 0.60217 0.55091 0.90771 0.0
C904 C 0.61848 0.5585 0.88215 0.0
C905 C 0.60203 0.55111 0.96218 0.0
C906 C 0.586 0.54341 0.99398 0.0
C907 C 0.5832 0.52406 0.9966 0.0
C908 C 0.57047 0.51666 0.03325 0.0
C909 C 0.56095 0.52841 0.06873 0.0
C910 C 0.56387 0.54763 0.06704 0.0
C911 C 0.57622 0.55513 0.02967 0.0
H912 H 0.5513 0.52262 0.0975 0.0
H913 H 0.69744 0.5912 0.80585 0.0
H914 H 0.98166 0.69067 0.03412 0.0
H915 H 0.97762 0.66413 0.97693 0.0
H916 H 0.0071 0.62801 0.08752 0.0
H917 H 0.01186 0.65494 0.14383 0.0
H918 H 0.0237 0.62287 1.00076 0.0
H919 H 0.95437 0.62564 0.04793 0.0
H920 H 0.92149 0.641 0.06024 0.0
H921 H 0.91921 0.65549 0.90045 0.0
H922 H 0.95214 0.64035 0.88725 0.0
H923 H 0.01991 0.5421 0.85281 0.0
H924 H 0.01108 0.564 0.92151 0.0
H925 H 0.98557 0.60225 0.81004 0.0
H926 H 0.99398 0.5799 0.74152 0.0
H927 H 0.965 0.60528 0.89875 0.0
H928 H 0.03336 0.60593 0.85075 0.0
H929 H 0.06669 0.59229 0.83349 0.0
H930 H 0.07139 0.5739 0.99001 0.0
H931 H 0.03792 0.58718 0.00797 0.0
C932 C 0.98641 0.67688 0.04729 0.0
C933 C 0.9965 0.67482 0.09434 0.0
C934 C 0.98419 0.66163 0.01429 0.0
C935 C 0.99182 0.64377 0.02759 0.0
C936 C 1.00095 0.64152 0.07604 0.0
C937 C 1.00338 0.65687 0.10883 0.0
C938 C 0.99237 0.62809 0.98905 0.0
C939 C 0.01067 0.61881 0.97954 0.0
C940 C 0.97572 0.62314 0.95896 0.0
C941 C 0.95582 0.63203 0.96676 0.0
C942 C 0.94691 0.63221 0.0155 0.0
C943 C 0.92827 0.64087 0.02263 0.0
C944 C 0.91836 0.64936 0.98126 0.0
C945 C 0.92697 0.64903 0.93254 0.0
C946 C 0.94559 0.64035 0.92518 0.0
C947 C 0.01145 0.55475 0.84333 0.0
C948 C 0.00653 0.55875 0.79207 0.0
C949 C 0.00673 0.56747 0.88257 0.0
C950 C 0.99779 0.58501 0.87131 0.0
C951 C 0.99226 0.58881 0.8202 0.0
C952 C 0.99684 0.57593 0.78099 0.0
C953 C 0.99619 0.59995 0.91166 0.0
C954 C 0.97786 0.6092 0.92088 0.0
C955 C 0.01286 0.60516 0.94105 0.0
C956 C 0.03306 0.59736 0.93055 0.0
C957 C 0.04145 0.59887 0.88139 0.0
C958 C 0.06037 0.59121 0.87148 0.0
C959 C 0.07113 0.58218 0.91059 0.0
C960 C 0.06302 0.58086 0.95973 0.0
C961 C 0.04408 0.58845 0.9698 0.0
H962 H 0.08577 0.57625 0.90284 0.0
H963 H 0.90391 0.65605 0.98684 0.0
H964 H 0.99394 0.18897 0.55275 0.0
H965 H 0.99566 0.15963 0.60025 0.0
H966 H 0.05034 0.14438 0.52315 0.0
H967 H 0.04865 0.17378 0.47576 0.0
H968 H 0.01479 0.12923 0.48297 0.0
H969 H 0.049 0.13348 0.64212 0.0
H970 H 0.05794 0.14697 0.72552 0.0
H971 H 0.99817 0.14062 0.77835 0.0
H972 H 0.98909 0.12663 0.69549 0.0
H973 H 0.00717 0.0321 0.56478 0.0
H974 H 0.01714 0.0631 0.53602 0.0
H975 H 0.96188 0.08692 0.59247 0.0
H976 H 0.95188 0.05624 0.62075 0.0
H977 H 1.00119 0.0962 0.64602 0.0
H978 H 0.96488 0.09825 0.48836 0.0
H979 H 0.95358 0.08511 0.4065 0.0
H980 H 0.01381 0.08176 0.35262 0.0
H981 H 0.02547 0.09477 0.43454 0.0
C982 C 0.00708 0.18001 0.54896 0.0
C983 C 0.02086 0.18314 0.50992 0.0
C984 C 0.00809 0.16322 0.57614 0.0
C985 C 0.02281 0.14973 0.56376 0.0
C986 C 0.03881 0.15465 0.53272 0.0
C987 C 0.03783 0.17142 0.50567 0.0
C988 C 0.01732 0.13007 0.56567 0.0
C989 C 0.01241 0.12178 0.51865 0.0
C990 C 0.01318 0.12093 0.61222 0.0
C991 C 0.01843 0.12909 0.66246 0.0
C992 C 0.03783 0.13493 0.67156 0.0
C993 C 0.04292 0.1426 0.71878 0.0
C994 C 0.0286 0.14468 0.7572 0.0
C995 C 0.00925 0.13892 0.74858 0.0
C996 C 1.00417 0.131 0.70158 0.0
C997 C 0.99688 0.04386 0.56873 0.0
C998 C 0.97937 0.04207 0.59704 0.0
C999 C 1.00253 0.06147 0.55257 0.0
C1000 C 0.99043 0.0771 0.56414 0.0
C1001 C 0.97144 0.07487 0.58434 0.0
C1002 C 0.96571 0.05727 0.59984 0.0
C1003 C 0.9989 0.09562 0.56353 0.0
C1004 C 1.00408 0.10362 0.61057 0.0
C1005 C 1.00291 0.10475 0.51722 0.0
C1006 C 0.99605 0.09732 0.46757 0.0
C1007 C 0.97572 0.09461 0.45912 0.0
C1008 C 0.96924 0.08722 0.41273 0.0
C1009 C 0.98298 0.08256 0.37441 0.0
C1010 C 1.0032 0.08537 0.38236 0.0
C1011 C 0.00975 0.09279 0.42871 0.0
H1012 H 0.97795 0.0768 0.33854 0.0
H1013 H 0.03253 0.15066 0.79375 0.0
H1014 H 0.36231 0.13719 0.50751 0.0
H1015 H 0.38974 0.11638 0.53575 0.0
H1016 H 0.3487 0.07146 0.55293 0.0
H1017 H 0.32145 0.09246 0.52914 0.0
H1018 H 0.3747 0.06443 0.61345 0.0
H1019 H 0.37749 0.08053 0.43617 0.0
H1020 H 0.37965 0.10007 0.35847 0.0
H1021 H 0.43492 0.12152 0.41093 0.0
H1022 H 0.43322 0.10191 0.48875 0.0
H1023 H 0.44552 0.99124 0.58321 0.0
H1024 H 0.41952 0.01226 0.54892 0.0
H1025 H 0.45582 0.05947 0.58103 0.0
H1026 H 0.48207 0.03859 0.61227 0.0
H1027 H 0.43212 0.06414 0.4945 0.0
H1028 H 0.4265 0.03669 0.66817 0.0
H1029 H 0.42054 0.01001 0.72611 0.0
H1030 H 0.36305 0.00326 0.65984 0.0
H1031 H 0.36904 0.02887 0.59908 0.0
C1032 C 0.35916 0.12311 0.51984 0.0
C1033 C 0.33983 0.11643 0.51646 0.0
C1034 C 0.37484 0.11111 0.53492 0.0
C1035 C 0.37145 0.09211 0.5445 0.0
C1036 C 0.35185 0.08598 0.54557 0.0
C1037 C 0.33617 0.09808 0.53226 0.0
C1038 C 0.38814 0.07821 0.54912 0.0
C1039 C 0.38713 0.06429 0.587 0.0
C1040 C 0.40429 0.07775 0.51428 0.0
C1041 C 0.40506 0.09002 0.46858 0.0
C1042 C 0.38999 0.08958 0.43137 0.0
C1043 C 0.39114 0.10063 0.38728 0.0
C1044 C 0.40727 0.1122 0.38004 0.0
C1045 C 0.42237 0.11264 0.41673 0.0
C1046 C 0.42136 0.10152 0.46075 0.0
C1047 C 0.44837 0.00602 0.58061 0.0
C1048 C 0.46562 0.0134 0.60234 0.0
C1049 C 0.43341 0.018 0.56148 0.0
C1050 C 0.43556 0.03738 0.56431 0.0
C1051 C 0.45381 0.04453 0.57913 0.0
C1052 C 0.46887 0.03257 0.59707 0.0
C1053 C 0.41843 0.05041 0.55819 0.0
C1054 C 0.41955 0.06428 0.52053 0.0
C1055 C 0.4017 0.05002 0.59109 0.0
C1056 C 0.39836 0.03465 0.62846 0.0
C1057 C 0.4127 0.02939 0.66539 0.0
C1058 C 0.40932 0.01444 0.69875 0.0
C1059 C 0.39144 0.00511 0.69694 0.0
C1060 C 0.37692 0.0105 0.66127 0.0
C1061 C 0.38037 0.02512 0.62704 0.0
H1062 H 0.38884 0.99368 0.72312 0.0
H1063 H 0.40813 0.12073 0.34583 0.0
H1064 H 0.47453 0.32967 0.51505 0.0
H1065 H 0.47762 0.36249 0.53861 0.0
H1066 H 0.54112 0.35396 0.55253 0.0
H1067 H 0.53784 0.32108 0.53152 0.0
H1068 H 0.52933 0.38044 0.61271 0.0
H1069 H 0.51954 0.3691 0.42793 0.0
H1070 H 0.50167 0.35779 0.35217 0.0
H1071 H 0.4483 0.38632 0.40237 0.0
H1072 H 0.46614 0.39849 0.47739 0.0
H1073 H 0.55466 0.47147 0.57056 0.0
H1074 H 0.55152 0.44128 0.52879 0.0
H1075 H 0.4885 0.44326 0.55775 0.0
H1076 H 0.49124 0.47383 0.59676 0.0
H1077 H 0.50215 0.42016 0.47131 0.0
H1078 H 0.51154 0.41275 0.67508 0.0
H1079 H 0.52907 0.42099 0.75363 0.0
H1080 H 0.58258 0.42903 0.66781 0.0
H1081 H 0.56563 0.4189 0.58906 0.0
C1082 C 0.48891 0.33462 0.52655 0.0
C1083 C 0.50599 0.32314 0.52144 0.0
C1084 C 0.49075 0.3534 0.53862 0.0
C1085 C 0.50969 0.36071 0.54456 0.0
C1086 C 0.5264 0.34859 0.54706 0.0
C1087 C 0.52451 0.32976 0.5359 0.0
C1088 C 0.5125 0.38098 0.54262 0.0
C1089 C 0.52367 0.38903 0.58128 0.0
C1090 C 0.50493 0.39224 0.50198 0.0
C1091 C 0.49405 0.38447 0.45827 0.0
C1092 C 0.50397 0.37285 0.42285 0.0
C1093 C 0.49388 0.36636 0.37999 0.0
C1094 C 0.4738 0.37107 0.37278 0.0
C1095 C 0.46383 0.38258 0.40809 0.0
C1096 C 0.47395 0.38942 0.45053 0.0
C1097 C 0.53997 0.46596 0.56557 0.0
C1098 C 0.52333 0.47433 0.58972 0.0
C1099 C 0.53827 0.44864 0.54224 0.0
C1100 C 0.52003 0.43979 0.54342 0.0
C1101 C 0.50282 0.4498 0.55799 0.0
C1102 C 0.50443 0.46727 0.58037 0.0
C1103 C 0.51935 0.41942 0.54072 0.0
C1104 C 0.50828 0.4114 0.50178 0.0
C1105 C 0.52716 0.40811 0.5809 0.0
C1106 C 0.53715 0.4158 0.62613 0.0
C1107 C 0.52698 0.41649 0.67297 0.0
C1108 C 0.53688 0.42135 0.71765 0.0
C1109 C 0.55683 0.42614 0.71581 0.0
C1110 C 0.56704 0.42561 0.66916 0.0
C1111 C 0.55734 0.42012 0.6245 0.0
H1112 H 0.56444 0.43 0.75058 0.0
H1113 H 0.46601 0.36591 0.33966 0.0
H1114 H 0.14083 0.3683 0.48151 0.0
H1115 H 0.11449 0.38715 0.52186 0.0
H1116 H 0.15799 0.4237 0.5842 0.0
H1117 H 0.18423 0.40617 0.54075 0.0
H1118 H 0.11636 0.4148 0.64314 0.0
H1119 H 0.14979 0.44167 0.4943 0.0
H1120 H 0.1644 0.43963 0.40772 0.0
H1121 H 0.10907 0.42079 0.34791 0.0
H1122 H 0.09432 0.42225 0.43456 0.0
H1123 H 0.07572 0.50833 0.64481 0.0
H1124 H 0.0986 0.48229 0.6256 0.0
H1125 H 0.05133 0.45329 0.55141 0.0
H1126 H 0.02805 0.47928 0.57202 0.0
H1127 H 0.09252 0.4557 0.50049 0.0
H1128 H 0.05842 0.44293 0.65734 0.0
H1129 H 0.04735 0.44571 0.74711 0.0
H1130 H 0.10741 0.43878 0.79901 0.0
H1131 H 0.11921 0.4381 0.70992 0.0
C1132 C 0.14491 0.38008 0.50477 0.0
C1133 C 0.1646 0.38616 0.50572 0.0
C1134 C 0.12983 0.3907 0.52819 0.0
C1135 C 0.13443 0.40695 0.55473 0.0
C1136 C 0.15428 0.41119 0.56343 0.0
C1137 C 0.16932 0.40097 0.53866 0.0
C1138 C 0.11891 0.42141 0.56337 0.0
C1139 C 0.11114 0.42396 0.61249 0.0
C1140 C 0.11222 0.43298 0.52264 0.0
C1141 C 0.1211 0.43172 0.47088 0.0
C1142 C 0.14087 0.43678 0.46281 0.0
C1143 C 0.14915 0.43579 0.41375 0.0
C1144 C 0.13767 0.43004 0.37239 0.0
C1145 C 0.11795 0.42517 0.38005 0.0
C1146 C 0.10964 0.42603 0.42912 0.0
C1147 C 0.07032 0.49675 0.62262 0.0
C1148 C 0.05013 0.49582 0.60936 0.0
C1149 C 0.08333 0.48175 0.61271 0.0
C1150 C 0.07642 0.4658 0.58847 0.0
C1151 C 0.05674 0.46547 0.57095 0.0
C1152 C 0.04356 0.48031 0.58209 0.0
C1153 C 0.08995 0.44958 0.58106 0.0
C1154 C 0.09747 0.44664 0.53169 0.0
C1155 C 0.09687 0.43819 0.62245 0.0
C1156 C 0.08975 0.44058 0.67622 0.0
C1157 C 0.06938 0.44262 0.68755 0.0
C1158 C 0.06294 0.4437 0.73845 0.0
C1159 C 0.07657 0.44195 0.77851 0.0
C1160 C 0.09681 0.43991 0.76788 0.0
C1161 C 0.10341 0.4395 0.71714 0.0
H1162 H 0.07148 0.44244 0.81784 0.0
H1163 H 0.14398 0.42951 0.33432 0.0
H1164 H 0.03219 0.81098 0.90171 0.0
H1165 H 0.02888 0.83896 0.84784 0.0
H1166 H 0.97585 0.85563 0.93097 0.0
H1167 H 0.97824 0.82712 0.98083 0.0
H1168 H 0.97626 0.87543 0.85496 0.0
H1169 H 0.02658 0.86105 0.98577 0.0
H1170 H 0.05484 0.84246 0.02167 0.0
H1171 H 0.08876 0.85265 0.88548 0.0
H1172 H 0.06057 0.87106 0.84885 0.0
H1173 H 0.9972 0.97366 0.8751 0.0
H1174 H 0.98969 0.9418 0.90267 0.0
H1175 H 0.04181 0.92109 0.82176 0.0
H1176 H 0.05004 0.95229 0.79888 0.0
H1177 H 0.04038 0.9033 0.9002 0.0
H1178 H 0.97355 0.91425 0.77659 0.0
H1179 H 0.93799 0.92366 0.77002 0.0
H1180 H 0.9318 0.91851 0.93319 0.0
H1181 H 0.96725 0.90952 0.9407 0.0
C1182 C 0.01907 0.81998 0.9055 0.0
C1183 C 0.0058 0.81751 0.94609 0.0
C1184 C 0.01732 0.83609 0.87537 0.0
C1185 C 1.00291 0.84991 0.88789 0.0
C1186 C 0.98743 0.84544 0.92136 0.0
C1187 C 0.98878 0.8291 0.95 0.0
C1188 C 0.00649 0.86987 0.87806 0.0
C1189 C 0.99047 0.88153 0.86341 0.0
C1190 C 0.02455 0.878 0.8926 0.0
C1191 C 0.04146 0.86706 0.91444 0.0
C1192 C 0.04004 0.85914 0.96353 0.0
C1193 C 0.05602 0.84868 0.98395 0.0
C1194 C 0.07354 0.84629 0.95574 0.0
C1195 C 0.07515 0.85443 0.90718 0.0
C1196 C 0.05919 0.86486 0.88659 0.0
C1197 C 0.00726 0.96223 0.86488 0.0
C1198 C 0.02418 0.96551 0.835 0.0
C1199 C 1.00272 0.94397 0.8795 0.0
C1200 C 0.01484 0.92882 0.86316 0.0
C1201 C 0.0322 0.9324 0.83544 0.0
C1202 C 0.03704 0.95045 0.82264 0.0
C1203 C 0.01042 0.90904 0.87403 0.0
C1204 C 0.02636 0.8973 0.88952 0.0
C1205 C 0.99194 0.90099 0.86327 0.0
C1206 C 0.97305 0.91169 0.85924 0.0
C1207 C 0.96474 0.91587 0.81111 0.0
C1208 C 0.94456 0.92089 0.80723 0.0
C1209 C 0.93266 0.92144 0.85121 0.0
C1210 C 0.94104 0.918 0.8993 0.0
C1211 C 0.96117 0.91319 0.90341 0.0
H1212 H 0.9169 0.92432 0.84841 0.0
H1213 H 0.0859 0.83819 0.97159 0.0
H1214 H 0.64588 0.87483 0.95042 0.0
H1215 H 0.62163 0.89648 0.91071 0.0
H1216 H 0.66693 0.9373 0.8926 0.0
H1217 H 0.69107 0.91609 0.93236 0.0
H1218 H 0.63707 0.94696 0.9629 0.0
H1219 H 0.64502 0.92908 0.793 0.0
H1220 H 0.6481 0.90993 0.71509 0.0
H1221 H 0.58839 0.89175 0.73477 0.0
H1222 H 0.58501 0.91062 0.8134 0.0
H1223 H 0.57219 0.0194 0.86325 0.0
H1224 H 0.59831 0.99719 0.88819 0.0
H1225 H 0.55565 0.95354 0.89777 0.0
H1226 H 0.52917 0.97587 0.87292 0.0
H1227 H 0.58557 0.9463 0.82734 0.0
H1228 H 0.58017 0.97074 0.99921 0.0
H1229 H 0.58048 0.99479 0.06622 0.0
H1230 H 0.64083 0.00676 0.02832 0.0
H1231 H 0.64075 0.9828 0.96075 0.0
C1232 C 0.65085 0.8881 0.93595 0.0
C1233 C 0.67028 0.89386 0.94564 0.0
C1234 C 0.63702 0.90042 0.91307 0.0
C1235 C 0.64252 0.91854 0.89968 0.0
C1236 C 0.66246 0.92336 0.90294 0.0
C1237 C 0.67629 0.91108 0.92546 0.0
C1238 C 0.6271 0.93341 0.89429 0.0
C1239 C 0.62594 0.94704 0.93279 0.0
C1240 C 0.61267 0.93329 0.85523 0.0
C1241 C 0.61488 0.92103 0.80969 0.0
C1242 C 0.63265 0.92073 0.78133 0.0
C1243 C 0.63442 0.91001 0.73682 0.0
C1244 C 0.61848 0.89956 0.72007 0.0
C1245 C 0.60075 0.8998 0.74788 0.0
C1246 C 0.59889 0.91052 0.79245 0.0
C1247 C 0.56809 0.00528 0.87272 0.0
C1248 C 0.54871 -0.00086 0.86391 0.0
C1249 C 0.58315 0.99256 0.88675 0.0
C1250 C 0.57892 0.97368 0.89364 0.0
C1251 C 0.55918 0.96804 0.89157 0.0
C1252 C 0.54409 0.98078 0.87758 0.0
C1253 C 0.59525 0.95958 0.89671 0.0
C1254 C 0.59661 0.94613 0.85763 0.0
C1255 C 0.61038 0.96039 0.93409 0.0
C1256 C 0.6104 0.97486 0.97487 0.0
C1257 C 0.59348 0.97845 0.00514 0.0
C1258 C 0.59361 0.99211 0.04322 0.0
C1259 C 0.61068 0.0023 0.05159 0.0
C1260 C 0.62762 -0.00116 0.02187 0.0
C1261 C 0.62753 0.98518 0.98372 0.0
H1262 H 0.61077 0.01289 0.08109 0.0
H1263 H 0.61986 0.89135 0.68545 0.0
H1264 H 0.48819 0.69782 0.86459 0.0
H1265 H 0.49047 0.66626 0.82926 0.0
H1266 H 0.53209 0.65088 0.94977 0.0
H1267 H 0.53442 0.68267 0.97196 0.0
H1268 H 0.52684 0.62327 0.93263 0.0
H1269 H 0.46431 0.65781 0.94045 0.0
H1270 H 0.43792 0.68106 0.91802 0.0
H1271 H 0.43493 0.65861 0.76582 0.0
H1272 H 0.46139 0.63534 0.78729 0.0
H1273 H 0.4632 0.53837 0.90272 0.0
H1274 H 0.46202 0.57142 0.93025 0.0
H1275 H 0.51082 0.58263 0.82862 0.0
H1276 H 0.51337 0.55033 0.80523 0.0
H1277 H 0.46145 0.60851 0.85896 0.0
H1278 H 0.54022 0.58551 0.89977 0.0
H1279 H 0.55089 0.55438 0.93247 0.0
H1280 H 0.5039 0.55597 0.04297 0.0
H1281 H 0.49268 0.58687 0.01074 0.0
C1282 C 0.49878 0.68776 0.88063 0.0
C1283 C 0.50983 0.69195 0.92425 0.0
C1284 C 0.49918 0.66936 0.86272 0.0
C1285 C 0.50818 0.65509 0.89308 0.0
C1286 C 0.52308 0.66057 0.92757 0.0
C1287 C 0.52466 0.6792 0.94054 0.0
C1288 C 0.50038 0.63557 0.89493 0.0
C1289 C 0.51209 0.62112 0.91827 0.0
C1290 C 0.48075 0.63106 0.87842 0.0
C1291 C 0.46496 0.64505 0.86527 0.0
C1292 C 0.45802 0.6579 0.90221 0.0
C1293 C 0.44308 0.67107 0.88964 0.0
C1294 C 0.43481 0.67135 0.84048 0.0
C1295 C 0.44139 0.65841 0.80383 0.0
C1296 C 0.45635 0.64523 0.81615 0.0
C1297 C 0.47409 0.54788 0.88809 0.0
C1298 C 0.48874 0.54164 0.85318 0.0
C1299 C 0.47297 0.56669 0.90243 0.0
C1300 C 0.48607 0.57926 0.88041 0.0
C1301 C 0.5005 0.57302 0.84556 0.0
C1302 C 0.50227 0.55438 0.8334 0.0
C1303 C 0.48759 0.5985 0.89791 0.0
C1304 C 0.47529 0.61236 0.87682 0.0
C1305 C 0.50494 0.60321 0.92365 0.0
C1306 C 0.51578 0.58854 0.95327 0.0
C1307 C 0.5327 0.57957 0.93244 0.0
C1308 C 0.53854 0.5618 0.95003 0.0
C1309 C 0.52786 0.55314 0.98886 0.0
C1310 C 0.51203 0.56263 0.0125 0.0
C1311 C 0.50596 0.58027 0.99476 0.0
H1312 H 0.53175 0.539 1.00037 0.0
H1313 H 0.42325 0.68157 0.83082 0.0
H1314 H 0.82798 0.59639 0.91575 0.0
H1315 H 0.85686 0.57681 0.89437 0.0
H1316 H 0.89555 0.62052 0.94043 0.0
H1317 H 0.86656 0.64048 0.96263 0.0
H1318 H 0.90279 0.59234 0.83856 0.0
H1319 H 0.90045 0.59888 0.02452 0.0
H1320 H 0.88521 0.59991 0.11042 0.0
H1321 H 0.85889 0.54688 0.08371 0.0
H1322 H 0.8741 0.54553 0.99762 0.0
H1323 H 0.98606 0.53074 0.87071 0.0
H1324 H 0.96344 0.55558 0.90217 0.0
H1325 H 0.9145 0.51843 0.88802 0.0
H1326 H 0.93684 0.49431 0.85262 0.0
H1327 H 0.91528 0.54617 0.9784 0.0
H1328 H 0.91912 0.53924 0.79467 0.0
H1329 H 0.93526 0.53735 0.7109 0.0
H1330 H 0.95785 0.59232 0.73044 0.0
H1331 H 0.9425 0.59418 0.81621 0.0
C1332 C 0.84255 0.60231 0.91899 0.0
C1333 C 0.84501 0.61999 0.94108 0.0
C1334 C 0.85903 0.59096 0.90748 0.0
C1335 C 0.87813 0.59723 0.91716 0.0
C1336 C 0.88078 0.61558 0.93345 0.0
C1337 C 0.86426 0.62695 0.94554 0.0
C1338 C 0.89497 0.58384 0.91481 0.0
C1339 C 0.90593 0.58254 0.86953 0.0
C1340 C 0.89856 0.57085 0.95486 0.0
C1341 C 0.88815 0.57224 0.00458 0.0
C1342 C 0.89114 0.5876 0.03669 0.0
C1343 C 0.88266 0.58816 0.08554 0.0
C1344 C 0.8711 0.57345 0.10254 0.0
C1345 C 0.86787 0.55823 0.07053 0.0
C1346 C 0.87644 0.55755 0.02176 0.0
C1347 C 0.97056 0.52796 0.87493 0.0
C1348 C 0.96312 0.51113 0.85688 0.0
C1349 C 0.95771 0.54198 0.89326 0.0
C1350 C 0.93733 0.53887 0.89586 0.0
C1351 C 0.93024 0.52105 0.88559 0.0
C1352 C 0.94306 0.50723 0.86574 0.0
C1353 C 0.92323 0.55471 0.90222 0.0
C1354 C 0.91258 0.55629 0.94794 0.0
C1355 C 0.92003 0.56805 0.86264 0.0
C1356 C 0.93019 0.56659 0.81251 0.0
C1357 C 0.92811 0.55066 0.782 0.0
C1358 C 0.93715 0.5496 0.734 0.0
C1359 C 0.94798 0.56454 0.71547 0.0
C1360 C 0.9497 0.58063 0.74505 0.0
C1361 C 0.94095 0.58165 0.79357 0.0
H1362 H 0.95479 0.56379 0.67798 0.0
H1363 H 0.86464 0.57386 0.14051 0.0
H1364 H 0.99058 0.20425 0.01163 0.0
H1365 H 0.99253 0.17824 0.95027 0.0
H1366 H 0.03699 0.15042 0.04449 0.0
H1367 H 0.03551 0.1765 0.10444 0.0
H1368 H 0.04569 0.14292 0.95052 0.0
H1369 H 0.98647 0.13981 0.04955 0.0
H1370 H 0.95433 0.15028 0.08621 0.0
H1371 H 0.92986 0.15647 0.93486 0.0
H1372 H 0.96198 0.14633 0.89727 0.0
H1373 H 0.02508 0.04885 0.85383 0.0
H1374 H 0.03172 0.07672 0.90599 0.0
H1375 H 0.9914 0.10944 0.81123 0.0
H1376 H 0.98502 0.08223 0.7595 0.0
H1377 H 0.98197 0.11378 0.90783 0.0
H1378 H 0.04316 0.11287 0.81141 0.0
H1379 H 0.07581 0.10106 0.78155 0.0
H1380 H 0.0971 0.09926 0.93673 0.0
H1381 H 0.0645 0.11096 0.96758 0.0
C1382 C 1.00116 0.19284 0.01836 0.0
C1383 C 0.01282 0.19247 0.06308 0.0
C1384 C 1.0021 0.1778 0.98363 0.0
C1385 C 0.01462 0.16199 0.99301 0.0
C1386 C 0.02714 0.16225 0.03606 0.0
C1387 C 0.02624 0.17722 0.0705 0.0
C1388 C 0.01395 0.14476 0.96012 0.0
C1389 C 0.03174 0.13648 0.94151 0.0
C1390 C 0.99587 0.1361 0.94819 0.0
C1391 C 0.97668 0.14255 0.97061 0.0
C1392 C 0.97429 0.1436 0.02409 0.0
C1393 C 0.95607 0.14944 0.04503 0.0
C1394 C 0.94008 0.1541 0.01288 0.0
C1395 C 0.94227 0.15291 0.95971 0.0
C1396 C 0.96048 0.14713 0.93857 0.0
C1397 C 0.01802 0.06211 0.84353 0.0
C1398 C 1.00432 0.06316 0.80268 0.0
C1399 C 0.02181 0.07807 0.87342 0.0
C1400 C 0.01206 0.09537 0.86278 0.0
C1401 C 0.99916 0.09644 0.82056 0.0
C1402 C 0.99545 0.0807 0.79097 0.0
C1403 C 0.01365 0.11213 0.89704 0.0
C1404 C 0.99595 0.12026 0.9164 0.0
C1405 C 0.03188 0.1203 0.91043 0.0
C1406 C 0.05128 0.11269 0.89184 0.0
C1407 C 0.05472 0.10984 0.83923 0.0
C1408 C 0.07326 0.10319 0.8221 0.0
C1409 C 0.08852 0.09938 0.85722 0.0
C1410 C 0.08527 0.1022 0.90955 0.0
C1411 C 0.06676 0.10886 0.92686 0.0
H1412 H 0.10287 0.09426 0.84387 0.0
H1413 H 0.92596 0.15857 0.02917 0.0
H1414 H 0.35934 0.08129 0.15712 0.0
H1415 H 0.38346 0.0706 0.09338 0.0
H1416 H 0.33749 0.07078 0.97835 0.0
H1417 H 0.31301 0.08174 0.04287 0.0
H1418 H 0.36336 0.04026 0.9681 0.0
H1419 H 0.36908 0.1057 0.97966 0.0
H1420 H 0.37219 0.13644 0.02062 0.0
H1421 H 0.42862 0.11905 0.08385 0.0
H1422 H 0.4257 0.08807 0.04392 0.0
H1423 H 0.43227 0.03718 0.76263 0.0
H1424 H 0.40757 0.05091 0.82111 0.0
H1425 H 0.44746 0.04079 0.948 0.0
H1426 H 0.47196 0.02615 0.88916 0.0
H1427 H 0.42382 0.07768 0.94729 0.0
H1428 H 0.41514 0.01064 0.93815 0.0
H1429 H 0.41208 0.98149 0.88902 0.0
H1430 H 0.36044 0.00444 0.81246 0.0
H1431 H 0.36333 0.03381 0.86091 0.0
C1432 C 0.35425 0.07891 0.11834 0.0
C1433 C 0.33423 0.08254 0.10505 0.0
C1434 C 0.36813 0.07287 0.08178 0.0
C1435 C 0.36251 0.07024 0.03059 0.0
C1436 C 0.34229 0.07283 0.01751 0.0
C1437 C 0.32826 0.07898 0.05442 0.0
C1438 C 0.37803 0.06518 0.99139 0.0
C1439 C 0.3764 0.04863 0.96319 0.0
C1440 C 0.39527 0.07593 0.98476 0.0
C1441 C 0.39707 0.09448 0.00922 0.0
C1442 C 0.38207 0.10836 0.00272 0.0
C1443 C 0.38381 0.12584 0.02567 0.0
C1444 C 0.40057 0.12968 0.05493 0.0
C1445 C 0.41564 0.11604 0.06124 0.0
C1446 C 0.41395 0.09852 0.03843 0.0
C1447 C 0.43576 0.03787 0.80291 0.0
C1448 C 0.45383 0.0302 0.82132 0.0
C1449 C 0.42171 0.04589 0.83633 0.0
C1450 C 0.42548 0.04667 0.88917 0.0
C1451 C 0.44418 0.04032 0.90739 0.0
C1452 C 0.45823 0.03207 0.87374 0.0
C1453 C 0.40926 0.05264 0.92521 0.0
C1454 C 0.41075 0.06938 0.95251 0.0
C1455 C 0.39177 0.04225 0.93044 0.0
C1456 C 0.3895 0.0244 0.9029 0.0
C1457 C 0.40316 0.00946 0.91077 0.0
C1458 C 0.40146 0.99291 0.88307 0.0
C1459 C 0.38608 0.99112 0.84761 0.0
C1460 C 0.37232 0.00585 0.83999 0.0
C1461 C 0.37395 0.02243 0.86763 0.0
H1462 H 0.38482 0.97833 0.82606 0.0
H1463 H 0.40191 0.14323 0.07262 0.0
H1464 H 0.54026 0.31807 0.05683 0.0
H1465 H 0.53902 0.34402 0.9952 0.0
H1466 H 0.47517 0.34665 0.00674 0.0
H1467 H 0.47647 0.32053 0.0679 0.0
H1468 H 0.48677 0.35613 0.90976 0.0
H1469 H 0.50296 0.37385 0.08102 0.0
H1470 H 0.52172 0.37274 0.16219 0.0
H1471 H 0.57478 0.38747 0.08222 0.0
H1472 H 0.55641 0.38831 1.00038 0.0
H1473 H 0.48174 0.45039 0.81018 0.0
H1474 H 0.47715 0.42277 0.86503 0.0
H1475 H 0.54063 0.41723 0.88534 0.0
H1476 H 0.54507 0.44506 0.83399 0.0
H1477 H 0.52561 0.40966 0.96964 0.0
H1478 H 0.50969 0.3887 0.79636 0.0
H1479 H 0.49036 0.39004 0.71593 0.0
H1480 H 0.43646 0.38275 0.80049 0.0
H1481 H 0.45547 0.38122 0.8814 0.0
C1482 C 0.52593 0.32353 0.04406 0.0
C1483 C 0.50844 0.31686 0.06607 0.0
C1484 C 0.52521 0.33863 0.00953 0.0
C1485 C 0.507 0.34763 0.9968 0.0
C1486 C 0.48941 0.34003 0.01568 0.0
C1487 C 0.49013 0.32491 0.05021 0.0
C1488 C 0.50647 0.36589 0.9682 0.0
C1489 C 0.49517 0.36786 0.92306 0.0
C1490 C 0.51729 0.38139 0.9853 0.0
C1491 C 0.52835 0.38096 0.0345 0.0
C1492 C 0.51866 0.3767 0.08068 0.0
C1493 C 0.52923 0.37614 0.12682 0.0
C1494 C 0.54944 0.37999 0.12734 0.0
C1495 C 0.55913 0.38445 0.08174 0.0
C1496 C 0.54865 0.38497 0.03547 0.0
C1497 C 0.49464 0.44336 0.82692 0.0
C1498 C 0.51379 0.44979 0.81672 0.0
C1499 C 0.49205 0.42738 0.85782 0.0
C1500 C 0.50858 0.4174 0.87868 0.0
C1501 C 0.52756 0.42439 0.86993 0.0
C1502 C 0.53009 0.44038 0.84008 0.0
C1503 C 0.50664 0.39974 0.90968 0.0
C1504 C 0.5173 0.39792 0.9559 0.0
C1505 C 0.49527 0.38444 0.89346 0.0
C1506 C 0.48395 0.38499 0.84484 0.0
C1507 C 0.49371 0.38741 0.79775 0.0
C1508 C 0.48282 0.38822 0.75212 0.0
C1509 C 0.4622 0.38661 0.75314 0.0
C1510 C 0.45243 0.38402 0.79977 0.0
C1511 C 0.46325 0.38312 0.84549 0.0
H1512 H 0.4538 0.3873 0.71778 0.0
H1513 H 0.55759 0.37956 0.16311 0.0
H1514 H 0.15864 0.44238 0.1539 0.0
H1515 H 0.13354 0.45136 0.09063 0.0
H1516 H 0.17685 0.44453 0.96999 0.0
H1517 H 0.20228 0.43542 0.03383 0.0
H1518 H 0.15507 0.47561 0.95551 0.0
H1519 H 0.13932 0.41206 0.99178 0.0
H1520 H 0.13143 0.38499 0.04601 0.0
H1521 H 0.07945 0.41422 0.10266 0.0
H1522 H 0.08717 0.44156 0.04931 0.0
H1523 H 0.08484 0.49102 0.7601 0.0
H1524 H 0.11011 0.47696 0.81562 0.0
H1525 H 0.06701 0.4729 0.93736 0.0
H1526 H 0.04115 0.48578 0.87961 0.0
H1527 H 0.08969 0.44556 0.94869 0.0
H1528 H 0.10692 0.51015 0.92119 0.0
H1529 H 0.11459 0.53774 0.86855 0.0
H1530 H 0.16349 0.50745 0.79927 0.0
H1531 H 0.15598 0.47966 0.85119 0.0
C1532 C 0.16289 0.44265 0.11387 0.0
C1533 C 0.18254 0.43796 0.09905 0.0
C1534 C 0.14841 0.44773 0.07756 0.0
C1535 C 0.15302 0.44823 0.02512 0.0
C1536 C 0.17278 0.44411 0.01013 0.0
C1537 C 0.18738 0.43902 0.04668 0.0
C1538 C 0.13737 0.45379 0.98657 0.0
C1539 C 0.14089 0.46883 0.95357 0.0
C1540 C 0.11855 0.44536 0.98462 0.0
C1541 C 0.11393 0.42893 0.01683 0.0
C1542 C 0.1263 0.41278 0.0161 0.0
C1543 C 0.12183 0.39737 0.04664 0.0
C1544 C 0.10497 0.3979 0.07784 0.0
C1545 C 0.09251 0.41383 0.07851 0.0
C1546 C 0.09692 0.42928 0.04809 0.0
C1547 C 0.08069 0.48699 0.79864 0.0
C1548 C 0.061 0.48961 0.81553 0.0
C1549 C 0.09532 0.47921 0.83093 0.0
C1550 C 0.09097 0.47448 0.88203 0.0
C1551 C 0.07103 0.47647 0.89842 0.0
C1552 C 0.05616 0.4838 0.86538 0.0
C1553 C 0.10719 0.46772 0.91809 0.0
C1554 C 0.10383 0.4524 0.95058 0.0
C1555 C 0.12611 0.47605 0.92018 0.0
C1556 C 0.13082 0.49284 0.88978 0.0
C1557 C 0.11928 0.5094 0.89465 0.0
C1558 C 0.12359 0.52505 0.86493 0.0
C1559 C 0.1395 0.52433 0.83053 0.0
C1560 C 0.15117 0.50799 0.82591 0.0
C1561 C 0.14692 0.4923 0.85552 0.0
H1562 H 0.14279 0.53646 0.8075 0.0
H1563 H 0.10153 0.38595 0.10143 0.0
H1564 H 0.01132 0.807 0.44797 0.0
H1565 H 0.01024 0.83414 0.50574 0.0
H1566 H 0.97568 0.86546 0.39411 0.0
H1567 H 0.9767 0.83857 0.33689 0.0
H1568 H 0.00551 0.88589 0.42642 0.0
H1569 H 0.95589 0.84886 0.50921 0.0
H1570 H 0.94334 0.82069 0.55143 0.0
H1571 H 0.98765 0.82481 0.66891 0.0
H1572 H 1.00068 0.85284 0.62691 0.0
H1573 H 0.98641 0.96734 0.57889 0.0
H1574 H 0.98078 0.93906 0.5277 0.0
H1575 H 0.01266 0.90573 0.64037 0.0
H1576 H 0.01813 0.93368 0.69101 0.0
H1577 H 0.98331 0.88633 0.60756 0.0
H1578 H 0.03443 0.92064 0.5282 0.0
H1579 H 0.05023 0.9476 0.48776 0.0
H1580 H 0.00726 0.94737 0.36614 0.0
H1581 H 0.99097 0.92058 0.40641 0.0
C1582 C 1.00306 0.81951 0.4364 0.0
C1583 C 0.9941 0.82051 0.38767 0.0
C1584 C 1.00254 0.83512 0.46936 0.0
C1585 C 0.99291 0.85207 0.45451 0.0
C1586 C 0.98336 0.85275 0.40666 0.0
C1587 C 0.98387 0.83725 0.37396 0.0
C1588 C 0.99333 0.86937 0.48729 0.0
C1589 C 1.00032 0.88601 0.46578 0.0
C1590 C 0.98725 0.86962 0.53934 0.0
C1591 C 0.97937 0.85283 0.56465 0.0
C1592 C 0.96306 0.84367 0.54382 0.0
C1593 C 0.95584 0.82774 0.56774 0.0
C1594 C 0.96472 0.82093 0.61275 0.0
C1595 C 0.98081 0.83007 0.634 0.0
C1596 C 0.98811 0.84599 0.61017 0.0
C1597 C 0.99175 0.9539 0.5932 0.0
C1598 C 1.00268 0.95278 0.6391 0.0
C1599 C 0.98875 0.93772 0.56364 0.0
C1600 C 0.99654 0.92009 0.57952 0.0
C1601 C 0.00649 0.91898 0.62681 0.0
C1602 C 0.00963 0.93505 0.65585 0.0
C1603 C 0.99529 0.90291 0.54651 0.0
C1604 C 0.98828 0.88628 0.56802 0.0
C1605 C 1.00173 0.90255 0.49473 0.0
C1606 C 0.0113 0.91879 0.47072 0.0
C1607 C 0.02821 0.92647 0.49314 0.0
C1608 C 0.03728 0.9417 0.4702 0.0
C1609 C 0.02971 0.94924 0.42451 0.0
C1610 C 0.01307 0.94155 0.40163 0.0
C1611 C 1.0039 0.92636 0.42451 0.0
H1612 H 0.03678 0.96101 0.40674 0.0
H1613 H 0.95911 0.8086 0.63123 0.0
H1614 H 0.69774 0.93116 0.42712 0.0
H1615 H 0.6722 0.94022 0.49018 0.0
H1616 H 0.6279 0.94141 0.3707 0.0
H1617 H 0.65326 0.93354 0.30777 0.0
H1618 H 0.62087 0.96931 0.42532 0.0
H1619 H 0.63348 0.90526 0.46558 0.0
H1620 H 0.65218 0.87651 0.48999 0.0
H1621 H 0.66884 0.90156 0.63238 0.0
H1622 H 0.65047 0.93059 0.60854 0.0
H1623 H 0.53727 0.97773 0.59339 0.0
H1624 H 0.56088 0.96287 0.53287 0.0
H1625 H 0.60852 0.97051 0.64051 0.0
H1626 H 0.58519 0.98526 0.70051 0.0
H1627 H 0.61252 0.93679 0.59168 0.0
H1628 H 0.59946 0.00172 0.54431 0.0
H1629 H 0.57771 0.02846 0.51887 0.0
H1630 H 0.55888 -0.0015 0.38592 0.0
H1631 H 0.5803 0.97147 0.41105 0.0
C1632 C 0.68259 0.93354 0.41424 0.0
C1633 C 0.67767 0.93137 0.36215 0.0
C1634 C 0.66789 0.93848 0.45054 0.0
C1635 C 0.64787 0.94125 0.43573 0.0
C1636 C 0.64309 0.93932 0.38364 0.0
C1637 C 0.6577 0.93459 0.34752 0.0
C1638 C 0.63192 0.94678 0.4735 0.0
C1639 C 0.61897 0.96192 0.46128 0.0
C1640 C 0.62927 0.93744 0.52103 0.0
C1641 C 0.64085 0.92022 0.53487 0.0
C1642 C 0.64135 0.90474 0.5018 0.0
C1643 C 0.65183 0.88837 0.51562 0.0
C1644 C 0.66175 0.88724 0.56263 0.0
C1645 C 0.6612 0.90248 0.59593 0.0
C1646 C 0.65076 0.9189 0.58227 0.0
C1647 C 0.55268 0.9758 0.60454 0.0
C1648 C 0.55936 0.98274 0.65169 0.0
C1649 C 0.56622 0.96746 0.56977 0.0
C1650 C 0.58662 0.96579 0.58172 0.0
C1651 C 0.59296 0.97165 0.63013 0.0
C1652 C 0.57957 0.98013 0.66443 0.0
C1653 C 0.60168 0.95917 0.54315 0.0
C1654 C 0.61448 0.94396 0.5554 0.0
C1655 C 0.60397 0.96818 0.49519 0.0
C1656 C 0.5913 0.98451 0.47987 0.0
C1657 C 0.59057 0.0008 0.50985 0.0
C1658 C 0.57832 0.01601 0.49547 0.0
C1659 C 0.56687 0.01516 0.45089 0.0
C1660 C 0.56772 -0.00087 0.4205 0.0
C1661 C 0.57991 0.98386 0.43479 0.0
H1662 H 0.55738 0.02694 0.43983 0.0
H1663 H 0.66982 0.87453 0.57332 0.0
H1664 H 0.47299 0.66482 0.33608 0.0
H1665 H 0.47602 0.64085 0.40031 0.0
H1666 H 0.51032 0.67724 0.4952 0.0
H1667 H 0.50993 0.70066 0.42549 0.0
H1668 H 0.52565 0.64599 0.50826 0.0
H1669 H 0.45623 0.66198 0.51631 0.0
H1670 H 0.42255 0.66863 0.48246 0.0
H1671 H 0.42099 0.61333 0.41971 0.0
H1672 H 0.45471 0.60642 0.45262 0.0
H1673 H 0.50059 0.57955 0.71737 0.0
H1674 H 0.5023 0.60756 0.66264 0.0
H1675 H 0.50197 0.57279 0.52821 0.0
H1676 H 0.50112 0.54474 0.5829 0.0
H1677 H 0.46939 0.60481 0.54494 0.0
H1678 H 0.54006 0.59035 0.53648 0.0
H1679 H 0.57318 0.58432 0.57423 0.0
H1680 H 0.57062 0.63819 0.64615 0.0
H1681 H 0.5373 0.64439 0.6095 0.0
C1682 C 0.48122 0.66791 0.37058 0.0
C1683 C 0.49152 0.68471 0.37478 0.0
C1684 C 0.48258 0.65413 0.40835 0.0
C1685 C 0.49286 0.65706 0.45435 0.0
C1686 C 0.50219 0.67439 0.46042 0.0
C1687 C 0.50167 0.68801 0.4209 0.0
C1688 C 0.49458 0.64155 0.49383 0.0
C1689 C 0.51312 0.63733 0.51684 0.0
C1690 C 0.4785 0.62972 0.50551 0.0
C1691 C 0.45801 0.63372 0.48685 0.0
C1692 C 0.4487 0.65125 0.49525 0.0
C1693 C 0.42961 0.65507 0.47617 0.0
C1694 C 0.41964 0.64142 0.44893 0.0
C1695 C 0.42871 0.62389 0.44086 0.0
C1696 C 0.44779 0.62 0.45982 0.0
C1697 C 0.50154 0.5779 0.67616 0.0
C1698 C 0.50108 0.55996 0.65438 0.0
C1699 C 0.50243 0.5939 0.64493 0.0
C1700 C 0.50233 0.59232 0.59124 0.0
C1701 C 0.50226 0.57437 0.56949 0.0
C1702 C 0.50191 0.55834 0.60074 0.0
C1703 C 0.50031 0.60934 0.55794 0.0
C1704 C 0.4817 0.61376 0.53649 0.0
C1705 C 0.51614 0.62148 0.54871 0.0
C1706 C 0.53609 0.61772 0.57086 0.0
C1707 C 0.54645 0.6008 0.56089 0.0
C1708 C 0.56529 0.59738 0.58195 0.0
C1709 C 0.57397 0.61083 0.61273 0.0
C1710 C 0.56386 0.62776 0.62241 0.0
C1711 C 0.545 0.63123 0.6015 0.0
H1712 H 0.58857 0.60817 0.62895 0.0
H1713 H 0.40489 0.64442 0.4341 0.0
H1714 H 0.84348 0.60923 0.3859 0.0
H1715 H 0.86771 0.59633 0.447 0.0
H1716 H 0.84877 0.54077 0.41328 0.0
H1717 H 0.82499 0.55356 0.34961 0.0
H1718 H 0.85989 0.56437 0.53641 0.0
H1719 H 0.88113 0.53465 0.36736 0.0
H1720 H 0.88738 0.53956 0.27513 0.0
H1721 H 0.92642 0.58412 0.31055 0.0
H1722 H 0.91999 0.57971 0.40296 0.0
H1723 H 0.92611 0.50027 0.64758 0.0
H1724 H 0.9027 0.51652 0.59178 0.0
H1725 H 0.94745 0.55541 0.54874 0.0
H1726 H 0.97153 0.539 0.60575 0.0
H1727 H 0.92505 0.54377 0.46396 0.0
H1728 H 0.9099 0.57497 0.6197 0.0
H1729 H 0.90401 0.57891 0.71243 0.0
H1730 H 0.85675 0.54 0.70596 0.0
H1731 H 0.86192 0.53635 0.61271 0.0
C1732 C 0.84429 0.59424 0.39163 0.0
C1733 C 0.83244 0.58242 0.36202 0.0
C1734 C 0.85818 0.58691 0.42671 0.0
C1735 C 0.86038 0.56758 0.43392 0.0
C1736 C 0.84754 0.55574 0.40764 0.0
C1737 C 0.83375 0.56308 0.37175 0.0
C1738 C 0.8767 0.55994 0.46723 0.0
C1739 C 0.87397 0.55949 0.52048 0.0
C1740 C 0.89559 0.55484 0.44701 0.0
C1741 C 0.89991 0.557 0.3918 0.0
C1742 C 0.89089 0.5456 0.35538 0.0
C1743 C 0.89448 0.54828 0.30312 0.0
C1744 C 0.90724 0.56218 0.28697 0.0
C1745 C 0.9165 0.57338 0.32309 0.0
C1746 C 0.91288 0.57081 0.37537 0.0
C1747 C 0.93126 0.51222 0.62638 0.0
C1748 C 0.95092 0.51826 0.63171 0.0
C1749 C 0.91764 0.52163 0.59451 0.0
C1750 C 0.9231 0.53737 0.56639 0.0
C1751 C 0.94282 0.54332 0.57022 0.0
C1752 C 0.95658 0.53392 0.60282 0.0
C1753 C 0.90788 0.54712 0.53319 0.0
C1754 C 0.91088 0.54832 0.48 0.0
C1755 C 0.88941 0.55351 0.55357 0.0
C1756 C 0.88639 0.55528 0.60952 0.0
C1757 C 0.8983 0.56722 0.63815 0.0
C1758 C 0.89502 0.56948 0.69068 0.0
C1759 C 0.88015 0.55958 0.71518 0.0
C1760 C 0.8683 0.54762 0.68697 0.0
C1761 C 0.87127 0.54558 0.6342 0.0
H1762 H 0.87777 0.56123 0.75597 0.0
H1763 H 0.90999 0.56424 0.24649 0.0
loop_
_geom_bond_atom_site_label_1
_geom_bond_atom_site_label_2
_geom_bond_distance
_geom_bond_site_symmetry_2
_ccdc_geom_bond_type
C0 C1 1.391 . S
C0 C4 1.391 . S
C0 H42 0.948 . S
C1 C0 1.391 . S
C1 C2 1.391 . S
C2 C1 1.391 . S
C2 H58 0.947 . S
C2 C59 1.392 . S
C3 C4 1.391 . S
C3 C7 1.397 . S
C3 C59 1.419 . S
C4 C0 1.391 . S
C4 C3 1.391 . S
C4 C5 1.399 . S
C5 C4 1.399 . S
C5 C8 1.396 . S
C5 C17 1.453 . S
C5 C18 1.684 . S
H6 C30 0.948 1_556 S
C7 C3 1.397 . S
C7 C8 1.394 . S
C7 C26 1.723 . S
C8 C5 1.396 . S
C8 C7 1.394 . S
C8 C38 1.723 . S
H9 C32 0.947 . S
H10 C33 0.948 . S
H11 C39 0.982 1_554 S
H12 C40 0.979 . S
H13 C40 0.980 . S
H14 C40 0.983 . S
H15 C39 0.979 . S
H16 C39 0.977 . S
C17 C5 1.453 . S
C17 H46 0.982 . S
C17 H47 0.979 . S
C17 H48 0.977 . S
C18 C5 1.684 . S
C18 H43 0.979 . S
C18 H44 0.980 . S
C18 H45 0.983 . S
C19 C20 1.397 . S
C19 C24 1.387 1_556 S
C19 H49 0.946 1_556 S
C20 C19 1.397 . S
C20 C21 1.391 . S
C21 C20 1.391 . S
C21 C22 1.392 . S
C21 H50 0.947 . S
C22 C21 1.392 . S
C22 C23 1.419 1_556 S
C22 H51 0.948 . S
C23 C22 1.419 1_554 S
C23 C24 1.391 . S
C23 C27 1.397 . S
C24 C19 1.387 1_554 S
C24 C23 1.391 . S
C24 C25 1.399 . S
C25 C24 1.399 . S
C25 C26 1.396 . S
C25 C28 1.453 . S
C25 C29 1.684 . S
C26 C7 1.723 . S
C26 C25 1.396 . S
C26 C27 1.394 . S
C27 C23 1.397 . S
C27 C26 1.394 . S
C27 C37 1.723 . S
C28 C25 1.453 . S
C28 H52 0.982 . S
C28 H53 0.979 . S
C28 H54 0.977 . S
C29 C25 1.684 . S
C29 H55 0.979 . S
C29 H56 0.980 . S
C29 H57 0.983 . S
C30 H6 0.948 1_554 S
C30 C31 1.391 . S
C30 C35 1.391 . S
C31 C30 1.391 . S
C31 C32 1.391 . S
C32 H9 0.947 . S
C32 C31 1.391 . S
C32 C33 1.392 . S
C33 H10 0.948 . S
C33 C32 1.392 . S
C33 C34 1.419 . S
C34 C33 1.419 . S
C34 C35 1.391 . S
C34 C38 1.397 . S
C35 C30 1.391 . S
C35 C34 1.391 . S
C35 C36 1.399 . S
C36 C35 1.399 . S
C36 C37 1.396 . S
C36 C39 1.453 1_554 S
C36 C40 1.684 1_554 S
C37 C27 1.723 . S
C37 C36 1.396 . S
C37 C38 1.394 . S
C38 C8 1.723 . S
C38 C34 1.397 . S
C38 C37 1.394 . S
C39 H11 0.982 1_556 S
C39 H15 0.979 . S
C39 H16 0.977 . S
C39 C36 1.453 1_556 S
C40 H12 0.979 . S
C40 H13 0.980 . S
C40 H14 0.983 . S
C40 C36 1.684 1_556 S
H41 C59 0.948 . S
H42 C0 0.948 . S
H43 C18 0.979 . S
H44 C18 0.980 . S
H45 C18 0.983 . S
H46 C17 0.982 . S
H47 C17 0.979 . S
H48 C17 0.977 . S
H49 C19 0.946 1_554 S
H50 C21 0.947 . S
H51 C22 0.948 . S
H52 C28 0.982 . S
H53 C28 0.979 . S
H54 C28 0.977 . S
H55 C29 0.979 . S
H56 C29 0.980 . S
H57 C29 0.983 . S
H58 C2 0.947 . S
C59 C2 1.392 . S
C59 C3 1.419 . S
C59 H41 0.948 . S
C60 C61 1.391 . S
C60 C64 1.391 1_556 S
C60 H102 0.948 . S
C61 C60 1.391 . S
C61 C62 1.391 1_556 S
C62 C61 1.391 1_554 S
C62 H118 0.947 . S
C62 C119 1.392 . S
C63 C64 1.391 . S
C63 C67 1.397 1_655 S
C63 C119 1.419 . S
C64 C60 1.391 1_554 S
C64 C63 1.391 . S
C64 C65 1.399 . S
C65 C64 1.399 . S
C65 C68 1.389 1_655 S
C65 C77 1.453 1_654 S
C65 C78 1.684 1_554 S
H66 C90 0.948 . S
C67 C63 1.397 1_455 S
C67 C68 1.394 . S
C67 C86 1.722 . S
C68 C65 1.389 1_455 S
C68 C67 1.394 . S
C68 C98 1.720 . S
H69 C92 0.947 1_556 S
H70 C93 0.948 . S
H71 C99 0.982 . S
H72 C100 0.979 . S
H73 C100 0.980 . S
H74 C100 0.983 . S
H75 C99 0.979 . S
H76 C99 0.977 . S
C77 C65 1.453 1_456 S
C77 H106 0.982 1_556 S
C77 H107 0.979 . S
C77 H108 0.977 . S
C78 C65 1.684 1_556 S
C78 H103 0.979 . S
C78 H104 0.980 . S
C78 H105 0.983 . S
C79 C80 1.391 . S
C79 C84 1.391 . S
C79 H109 0.948 . S
C80 C79 1.391 . S
C80 C81 1.391 . S
C81 C80 1.391 . S
C81 C82 1.392 . S
C81 H110 0.947 . S
C82 C81 1.392 . S
C82 C83 1.419 . S
C82 H111 0.948 . S
C83 C82 1.419 . S
C83 C84 1.391 . S
C83 C87 1.397 1_655 S
C84 C79 1.391 . S
C84 C83 1.391 . S
C84 C85 1.399 . S
C85 C84 1.399 . S
C85 C86 1.389 1_655 S
C85 C88 1.453 1_655 S
C85 C89 1.684 . S
C86 C67 1.722 . S
C86 C85 1.389 1_455 S
C86 C87 1.391 . S
C87 C83 1.397 1_455 S
C87 C86 1.391 . S
C87 C97 1.724 . S
C88 C85 1.453 1_455 S
C88 H112 0.982 . S
C88 H113 0.979 . S
C88 H114 0.977 . S
C89 C85 1.684 . S
C89 H115 0.979 . S
C89 H116 0.980 . S
C89 H117 0.983 . S
C90 H66 0.948 . S
C90 C91 1.391 . S
C90 C95 1.391 . S
C91 C90 1.391 . S
C91 C92 1.391 . S
C92 H69 0.947 1_554 S
C92 C91 1.391 . S
C92 C93 1.392 . S
C93 H70 0.948 . S
C93 C92 1.392 . S
C93 C94 1.419 . S
C94 C93 1.419 . S
C94 C95 1.391 . S
C94 C98 1.397 1_655 S
C95 C90 1.391 . S
C95 C94 1.391 . S
C95 C96 1.399 . S
C96 C95 1.399 . S
C96 C97 1.386 1_655 S
C96 C99 1.453 1_655 S
C96 C100 1.684 . S
C97 C87 1.724 . S
C97 C96 1.386 1_455 S
C97 C98 1.393 . S
C98 C68 1.720 . S
C98 C94 1.397 1_455 S
C98 C97 1.393 . S
C99 H71 0.982 . S
C99 H75 0.979 . S
C99 H76 0.977 . S
C99 C96 1.453 1_455 S
C100 H72 0.979 . S
C100 H73 0.980 . S
C100 H74 0.983 . S
C100 C96 1.684 . S
H101 C119 0.948 . S
H102 C60 0.948 . S
H103 C78 0.979 . S
H104 C78 0.980 . S
H105 C78 0.983 . S
H106 C77 0.982 1_554 S
H107 C77 0.979 . S
H108 C77 0.977 . S
H109 C79 0.948 . S
H110 C81 0.947 . S
H111 C82 0.948 . S
H112 C88 0.982 . S
H113 C88 0.979 . S
H114 C88 0.977 . S
H115 C89 0.979 . S
H116 C89 0.980 . S
H117 C89 0.983 . S
H118 C62 0.947 . S
C119 C62 1.392 . S
C119 C63 1.419 . S
C119 H101 0.948 . S
C120 C121 1.391 . S
C120 C124 1.391 . S
C120 H162 0.948 . S
C121 C120 1.391 . S
C121 C122 1.391 . S
C122 C121 1.391 . S
C122 H178 0.947 1_554 S
C122 C179 1.392 . S
C123 C124 1.391 . S
C123 C127 1.397 . S
C123 C179 1.419 . S
C124 C120 1.391 . S
C124 C123 1.391 . S
C124 C125 1.399 . S
C125 C124 1.399 . S
C125 C128 1.396 . S
C125 C137 1.453 . S
C125 C138 1.684 . S
H126 C150 0.948 . S
C127 C123 1.397 . S
C127 C128 1.394 . S
C127 C146 1.723 . S
C128 C125 1.396 . S
C128 C127 1.394 . S
C128 C158 1.723 . S
H129 C152 0.947 . S
H130 C153 0.948 . S
H131 C159 0.982 . S
H132 C160 0.979 . S
H133 C160 0.980 . S
H134 C160 0.983 . S
H135 C159 0.979 . S
H136 C159 0.977 . S
C137 C125 1.453 . S
C137 H166 0.982 . S
C137 H167 0.979 . S
C137 H168 0.977 . S
C138 C125 1.684 . S
C138 H163 0.979 . S
C138 H164 0.980 . S
C138 H165 0.983 . S
C139 C140 1.391 . S
C139 C144 1.407 . S
C139 H169 0.948 . S
C140 C139 1.391 . S
C140 C141 1.391 1_556 S
C141 C140 1.391 1_554 S
C141 C142 1.392 . S
C141 H170 0.947 . S
C142 C141 1.392 . S
C142 C143 1.419 . S
C142 H171 0.948 . S
C143 C142 1.419 . S
C143 C144 1.372 1_554 S
C143 C147 1.397 . S
C144 C139 1.407 . S
C144 C143 1.372 1_556 S
C144 C145 1.398 1_556 S
C145 C144 1.398 1_554 S
C145 C146 1.396 . S
C145 C148 1.453 1_554 S
C145 C149 1.684 1_554 S
C146 C127 1.723 . S
C146 C145 1.396 . S
C146 C147 1.394 . S
C147 C143 1.397 . S
C147 C146 1.394 . S
C147 C157 1.723 . S
C148 C145 1.453 1_556 S
C148 H172 0.982 . S
C148 H173 0.979 . S
C148 H174 0.977 . S
C149 C145 1.684 1_556 S
C149 H175 0.979 . S
C149 H176 0.980 . S
C149 H177 0.983 . S
C150 H126 0.948 . S
C150 C151 1.391 . S
C150 C155 1.391 . S
C151 C150 1.391 . S
C151 C152 1.391 . S
C152 H129 0.947 . S
C152 C151 1.391 . S
C152 C153 1.392 . S
C153 H130 0.948 . S
C153 C152 1.392 . S
C153 C154 1.419 . S
C154 C153 1.419 . S
C154 C155 1.391 . S
C154 C158 1.397 . S
C155 C150 1.391 . S
C155 C154 1.391 . S
C155 C156 1.399 . S
C156 C155 1.399 . S
C156 C157 1.396 . S
C156 C159 1.453 . S
C156 C160 1.684 . S
C157 C147 1.723 . S
C157 C156 1.396 . S
C157 C158 1.394 . S
C158 C128 1.723 . S
C158 C154 1.397 . S
C158 C157 1.394 . S
C159 H131 0.982 . S
C159 H135 0.979 . S
C159 H136 0.977 . S
C159 C156 1.453 . S
C160 H132 0.979 . S
C160 H133 0.980 . S
C160 H134 0.983 . S
C160 C156 1.684 . S
H161 C179 0.948 1_556 S
H162 C120 0.948 . S
H163 C138 0.979 . S
H164 C138 0.980 . S
H165 C138 0.983 . S
H166 C137 0.982 . S
H167 C137 0.979 . S
H168 C137 0.977 . S
H169 C139 0.948 . S
H170 C141 0.947 . S
H171 C142 0.948 . S
H172 C148 0.982 . S
H173 C148 0.979 . S
H174 C148 0.977 . S
H175 C149 0.979 . S
H176 C149 0.980 . S
H177 C149 0.983 . S
H178 C122 0.947 1_556 S
C179 C122 1.392 . S
C179 C123 1.419 . S
C179 H161 0.948 1_554 S
C180 C181 1.391 . S
C180 C184 1.391 . S
C180 H222 0.948 . S
C181 C180 1.391 . S
C181 C182 1.391 . S
C182 C181 1.391 . S
C182 H238 0.947 . S
C182 C239 1.392 . S
C183 C184 1.391 . S
C183 C187 1.397 . S
C183 C239 1.419 . S
C184 C180 1.391 . S
C184 C183 1.391 . S
C184 C185 1.399 . S
C185 C184 1.399 . S
C185 C188 1.396 . S
C185 C197 1.453 . S
C185 C198 1.684 . S
H186 C210 0.948 . S
C187 C183 1.397 . S
C187 C188 1.394 . S
C187 C206 1.723 . S
C188 C185 1.396 . S
C188 C187 1.394 . S
C188 C218 1.723 . S
H189 C212 0.947 . S
H190 C213 0.948 . S
H191 C219 0.982 . S
H192 C220 0.979 1_554 S
H193 C220 0.980 . S
H194 C220 0.983 . S
H195 C219 0.979 1_556 S
H196 C219 0.977 1_556 S
C197 C185 1.453 . S
C197 H226 0.982 . S
C197 H227 0.979 . S
C197 H228 0.977 . S
C198 C185 1.684 . S
C198 H223 0.979 . S
C198 H224 0.980 . S
C198 H225 0.983 . S
C199 C200 1.391 1_554 S
C199 C204 1.391 . S
C199 H229 0.948 . S
C200 C199 1.391 1_556 S
C200 C201 1.391 . S
C201 C200 1.391 . S
C201 C202 1.392 . S
C201 H230 0.947 . S
C202 C201 1.392 . S
C202 C203 1.419 1_556 S
C202 H231 0.948 . S
C203 C202 1.419 1_554 S
C203 C204 1.391 . S
C203 C207 1.397 . S
C204 C199 1.391 . S
C204 C203 1.391 . S
C204 C205 1.399 . S
C205 C204 1.399 . S
C205 C206 1.396 . S
C205 C208 1.453 . S
C205 C209 1.684 . S
C206 C187 1.723 . S
C206 C205 1.396 . S
C206 C207 1.394 . S
C207 C203 1.397 . S
C207 C206 1.394 . S
C207 C217 1.723 . S
C208 C205 1.453 . S
C208 H232 0.982 . S
C208 H233 0.979 . S
C208 H234 0.977 . S
C209 C205 1.684 . S
C209 H235 0.979 . S
C209 H236 0.980 . S
C209 H237 0.983 . S
C210 H186 0.948 . S
C210 C211 1.391 . S
C210 C215 1.391 . S
C211 C210 1.391 . S
C211 C212 1.391 . S
C212 H189 0.947 . S
C212 C211 1.391 . S
C212 C213 1.392 . S
C213 H190 0.948 . S
C213 C212 1.392 . S
C213 C214 1.419 . S
C214 C213 1.419 . S
C214 C215 1.391 . S
C214 C218 1.397 . S
C215 C210 1.391 . S
C215 C214 1.391 . S
C215 C216 1.399 . S
C216 C215 1.399 . S
C216 C217 1.396 . S
C216 C219 1.453 . S
C216 C220 1.684 1_554 S
C217 C207 1.723 . S
C217 C216 1.396 . S
C217 C218 1.394 . S
C218 C188 1.723 . S
C218 C214 1.397 . S
C218 C217 1.394 . S
C219 H191 0.982 . S
C219 H195 0.979 1_554 S
C219 H196 0.977 1_554 S
C219 C216 1.453 . S
C220 H192 0.979 1_556 S
C220 H193 0.980 . S
C220 H194 0.983 . S
C220 C216 1.684 1_556 S
H221 C239 0.948 . S
H222 C180 0.948 . S
H223 C198 0.979 . S
H224 C198 0.980 . S
H225 C198 0.983 . S
H226 C197 0.982 . S
H227 C197 0.979 . S
H228 C197 0.977 . S
H229 C199 0.948 . S
H230 C201 0.947 . S
H231 C202 0.948 . S
H232 C208 0.982 . S
H233 C208 0.979 . S
H234 C208 0.977 . S
H235 C209 0.979 . S
H236 C209 0.980 . S
H237 C209 0.983 . S
H238 C182 0.947 . S
C239 C182 1.392 . S
C239 C183 1.419 . S
C239 H221 0.948 . S
C240 C241 1.391 . S
C240 C244 1.391 . S
C240 H282 0.948 . S
C241 C240 1.391 . S
C241 C242 1.391 . S
C242 C241 1.391 . S
C242 H298 0.947 . S
C242 C299 1.392 . S
C243 C244 1.391 . S
C243 C247 1.397 . S
C243 C299 1.419 . S
C244 C240 1.391 . S
C244 C243 1.391 . S
C244 C245 1.399 . S
C245 C244 1.399 . S
C245 C248 1.396 . S
C245 C257 1.453 . S
C245 C258 1.684 . S
H246 C270 0.948 . S
C247 C243 1.397 . S
C247 C248 1.394 . S
C247 C266 1.723 . S
C248 C245 1.396 . S
C248 C247 1.394 . S
C248 C278 1.723 . S
H249 C272 0.947 . S
H250 C273 0.948 . S
H251 C279 0.982 . S
H252 C280 0.979 . S
H253 C280 0.980 . S
H254 C280 0.983 . S
H255 C279 0.979 . S
H256 C279 0.977 . S
C257 C245 1.453 . S
C257 H286 0.982 . S
C257 H287 0.979 . S
C257 H288 0.977 . S
C258 C245 1.684 . S
C258 H283 0.979 . S
C258 H284 0.980 . S
C258 H285 0.983 . S
C259 C260 1.391 . S
C259 C264 1.391 . S
C259 H289 0.948 . S
C260 C259 1.391 . S
C260 C261 1.391 . S
C261 C260 1.391 . S
C261 C262 1.392 . S
C261 H290 0.947 . S
C262 C261 1.392 . S
C262 C263 1.419 . S
C262 H291 0.948 . S
C263 C262 1.419 . S
C263 C264 1.391 . S
C263 C267 1.397 . S
C264 C259 1.391 . S
C264 C263 1.391 . S
C264 C265 1.399 . S
C265 C264 1.399 . S
C265 C266 1.396 . S
C265 C268 1.453 . S
C265 C269 1.684 . S
C266 C247 1.723 . S
C266 C265 1.396 . S
C266 C267 1.394 . S
C267 C263 1.397 . S
C267 C266 1.394 . S
C267 C277 1.723 . S
C268 C265 1.453 . S
C268 H292 0.982 . S
C268 H293 0.979 . S
C268 H294 0.977 . S
C269 C265 1.684 . S
C269 H295 0.979 . S
C269 H296 0.980 . S
C269 H297 0.983 . S
C270 H246 0.948 . S
C270 C271 1.391 . S
C270 C275 1.391 . S
C271 C270 1.391 . S
C271 C272 1.391 . S
C272 H249 0.947 . S
C272 C271 1.391 . S
C272 C273 1.392 . S
C273 H250 0.948 . S
C273 C272 1.392 . S
C273 C274 1.419 . S
C274 C273 1.419 . S
C274 C275 1.391 . S
C274 C278 1.397 . S
C275 C270 1.391 . S
C275 C274 1.391 . S
C275 C276 1.399 . S
C276 C275 1.399 . S
C276 C277 1.396 . S
C276 C279 1.453 . S
C276 C280 1.684 . S
C277 C267 1.723 . S
C277 C276 1.396 . S
C277 C278 1.394 . S
C278 C248 1.723 . S
C278 C274 1.397 . S
C278 C277 1.394 . S
C279 H251 0.982 . S
C279 H255 0.979 . S
C279 H256 0.977 . S
C279 C276 1.453 . S
C280 H252 0.979 . S
C280 H253 0.980 . S
C280 H254 0.983 . S
C280 C276 1.684 . S
H281 C299 0.948 . S
H282 C240 0.948 . S
H283 C258 0.979 . S
H284 C258 0.980 . S
H285 C258 0.983 . S
H286 C257 0.982 . S
H287 C257 0.979 . S
H288 C257 0.977 . S
H289 C259 0.948 . S
H290 C261 0.947 . S
H291 C262 0.948 . S
H292 C268 0.982 . S
H293 C268 0.979 . S
H294 C268 0.977 . S
H295 C269 0.979 . S
H296 C269 0.980 . S
H297 C269 0.983 . S
H298 C242 0.947 . S
C299 C242 1.392 . S
C299 C243 1.419 . S
C299 H281 0.948 . S
C300 C301 1.391 . S
C300 C304 1.391 . S
C300 H342 0.948 . S
C301 C300 1.391 . S
C301 C302 1.391 . S
C302 C301 1.391 . S
C302 H358 0.947 . S
C302 C359 1.392 . S
C303 C304 1.397 . S
C303 C307 1.393 1_655 S
C303 C359 1.426 . S
C304 C300 1.391 . S
C304 C303 1.397 . S
C304 C305 1.399 . S
C305 C304 1.399 . S
C305 C308 1.396 1_655 S
C305 C317 1.453 1_655 S
C305 C318 1.684 . S
H306 C330 0.948 . S
C307 C303 1.393 1_455 S
C307 C308 1.395 . S
C307 C326 1.723 . S
C308 C305 1.396 1_455 S
C308 C307 1.395 . S
C308 C338 1.723 . S
H309 C332 0.947 . S
H310 C333 0.948 . S
H311 C339 0.982 . S
H312 C340 0.979 . S
H313 C340 0.980 . S
H314 C340 0.983 . S
H315 C339 0.979 . S
H316 C339 0.977 . S
C317 C305 1.453 1_455 S
C317 H346 0.982 . S
C317 H347 0.979 . S
C317 H348 0.977 . S
C318 C305 1.684 . S
C318 H343 0.979 . S
C318 H344 0.980 . S
C318 H345 0.983 . S
C319 C320 1.391 . S
C319 C324 1.391 . S
C319 H349 0.948 . S
C320 C319 1.391 . S
C320 C321 1.391 . S
C321 C320 1.391 . S
C321 C322 1.392 . S
C321 H350 0.947 . S
C322 C321 1.392 . S
C322 C323 1.423 . S
C322 H351 0.948 . S
C323 C322 1.423 . S
C323 C324 1.400 . S
C323 C327 1.395 1_655 S
C324 C319 1.391 . S
C324 C323 1.400 . S
C324 C325 1.399 . S
C325 C324 1.399 . S
C325 C326 1.396 1_655 S
C325 C328 1.453 1_655 S
C325 C329 1.684 . S
C326 C307 1.723 . S
C326 C325 1.396 1_455 S
C326 C327 1.394 . S
C327 C323 1.395 1_455 S
C327 C326 1.394 . S
C327 C337 1.723 . S
C328 C325 1.453 1_455 S
C328 H352 0.982 . S
C328 H353 0.979 . S
C328 H354 0.977 . S
C329 C325 1.684 . S
C329 H355 0.979 . S
C329 H356 0.980 . S
C329 H357 0.983 . S
C330 H306 0.948 . S
C330 C331 1.391 . S
C330 C335 1.391 . S
C331 C330 1.391 . S
C331 C332 1.391 . S
C332 H309 0.947 . S
C332 C331 1.391 . S
C332 C333 1.392 . S
C333 H310 0.948 . S
C333 C332 1.392 . S
C333 C334 1.423 . S
C334 C333 1.423 . S
C334 C335 1.396 . S
C334 C338 1.397 1_655 S
C335 C330 1.391 . S
C335 C334 1.396 . S
C335 C336 1.399 . S
C336 C335 1.399 . S
C336 C337 1.396 1_655 S
C336 C339 1.453 1_655 S
C336 C340 1.684 . S
C337 C327 1.723 . S
C337 C336 1.396 1_455 S
C337 C338 1.395 . S
C338 C308 1.723 . S
C338 C334 1.397 1_455 S
C338 C337 1.395 . S
C339 H311 0.982 . S
C339 H315 0.979 . S
C339 H316 0.977 . S
C339 C336 1.453 1_455 S
C340 H312 0.979 . S
C340 H313 0.980 . S
C340 H314 0.983 . S
C340 C336 1.684 . S
H341 C359 0.948 . S
H342 C300 0.948 . S
H343 C318 0.979 . S
H344 C318 0.980 . S
H345 C318 0.983 . S
H346 C317 0.982 . S
H347 C317 0.979 . S
H348 C317 0.977 . S
H349 C319 0.948 . S
H350 C321 0.947 . S
H351 C322 0.948 . S
H352 C328 0.982 . S
H353 C328 0.979 . S
H354 C328 0.977 . S
H355 C329 0.979 . S
H356 C329 0.980 . S
H357 C329 0.983 . S
H358 C302 0.947 . S
C359 C302 1.392 . S
C359 C303 1.426 . S
C359 H341 0.948 . S
C360 C361 1.391 . S
C360 C364 1.391 . S
C360 H402 0.948 . S
C361 C360 1.391 . S
C361 C362 1.391 . S
C362 C361 1.391 . S
C362 H418 0.947 . S
C362 C419 1.392 . S
C363 C364 1.391 . S
C363 C367 1.397 . S
C363 C419 1.419 . S
C364 C360 1.391 . S
C364 C363 1.391 . S
C364 C365 1.399 . S
C365 C364 1.399 . S
C365 C368 1.396 . S
C365 C377 1.453 . S
C365 C378 1.684 . S
H366 C390 0.948 . S
C367 C363 1.397 . S
C367 C368 1.394 . S
C367 C386 1.723 . S
C368 C365 1.396 . S
C368 C367 1.394 . S
C368 C398 1.723 . S
H369 C392 0.947 . S
H370 C393 0.948 . S
H371 C399 0.982 . S
H372 C400 0.979 . S
H373 C400 0.980 . S
H374 C400 0.983 . S
H375 C399 0.979 . S
H376 C399 0.977 . S
C377 C365 1.453 . S
C377 H406 0.982 . S
C377 H407 0.979 . S
C377 H408 0.977 . S
C378 C365 1.684 . S
C378 H403 0.979 . S
C378 H404 0.980 . S
C378 H405 0.983 . S
C379 C380 1.391 . S
C379 C384 1.391 . S
C379 H409 0.948 . S
C380 C379 1.391 . S
C380 C381 1.391 . S
C381 C380 1.391 . S
C381 C382 1.392 . S
C381 H410 0.947 . S
C382 C381 1.392 . S
C382 C383 1.419 . S
C382 H411 0.948 . S
C383 C382 1.419 . S
C383 C384 1.391 . S
C383 C387 1.397 . S
C384 C379 1.391 . S
C384 C383 1.391 . S
C384 C385 1.399 . S
C385 C384 1.399 . S
C385 C386 1.396 . S
C385 C388 1.453 . S
C385 C389 1.684 . S
C386 C367 1.723 . S
C386 C385 1.396 . S
C386 C387 1.394 . S
C387 C383 1.397 . S
C387 C386 1.394 . S
C387 C397 1.723 . S
C388 C385 1.453 . S
C388 H412 0.982 . S
C388 H413 0.979 . S
C388 H414 0.977 . S
C389 C385 1.684 . S
C389 H415 0.979 . S
C389 H416 0.980 . S
C389 H417 0.983 . S
C390 H366 0.948 . S
C390 C391 1.391 . S
C390 C395 1.391 . S
C391 C390 1.391 . S
C391 C392 1.391 . S
C392 H369 0.947 . S
C392 C391 1.391 . S
C392 C393 1.392 . S
C393 H370 0.948 . S
C393 C392 1.392 . S
C393 C394 1.419 . S
C394 C393 1.419 . S
C394 C395 1.391 . S
C394 C398 1.397 . S
C395 C390 1.391 . S
C395 C394 1.391 . S
C395 C396 1.399 . S
C396 C395 1.399 . S
C396 C397 1.396 . S
C396 C399 1.453 . S
C396 C400 1.684 . S
C397 C387 1.723 . S
C397 C396 1.396 . S
C397 C398 1.394 . S
C398 C368 1.723 . S
C398 C394 1.397 . S
C398 C397 1.394 . S
C399 H371 0.982 . S
C399 H375 0.979 . S
C399 H376 0.977 . S
C399 C396 1.453 . S
C400 H372 0.979 . S
C400 H373 0.980 . S
C400 H374 0.983 . S
C400 C396 1.684 . S
H401 C419 0.948 . S
H402 C360 0.948 . S
H403 C378 0.979 . S
H404 C378 0.980 . S
H405 C378 0.983 . S
H406 C377 0.982 . S
H407 C377 0.979 . S
H408 C377 0.977 . S
H409 C379 0.948 . S
H410 C381 0.947 . S
H411 C382 0.948 . S
H412 C388 0.982 . S
H413 C388 0.979 . S
H414 C388 0.977 . S
H415 C389 0.979 . S
H416 C389 0.980 . S
H417 C389 0.983 . S
H418 C362 0.947 . S
C419 C362 1.392 . S
C419 C363 1.419 . S
C419 H401 0.948 . S
C420 C421 1.391 . S
C420 C424 1.391 . S
C420 H462 0.948 . S
C421 C420 1.391 . S
C421 C422 1.391 . S
C422 C421 1.391 . S
C422 H478 0.947 . S
C422 C479 1.392 . S
C423 C424 1.391 . S
C423 C427 1.397 . S
C423 C479 1.419 . S
C424 C420 1.391 . S
C424 C423 1.391 . S
C424 C425 1.399 . S
C425 C424 1.399 . S
C425 C428 1.396 . S
C425 C437 1.453 . S
C425 C438 1.684 . S
H426 C450 0.948 . S
C427 C423 1.397 . S
C427 C428 1.394 . S
C427 C446 1.723 . S
C428 C425 1.396 . S
C428 C427 1.394 . S
C428 C458 1.723 . S
H429 C452 0.947 . S
H430 C453 0.948 . S
H431 C459 0.982 . S
H432 C460 0.979 . S
H433 C460 0.980 . S
H434 C460 0.983 . S
H435 C459 0.979 . S
H436 C459 0.977 . S
C437 C425 1.453 . S
C437 H466 0.982 . S
C437 H467 0.979 . S
C437 H468 0.977 . S
C438 C425 1.684 . S
C438 H463 0.979 . S
C438 H464 0.980 . S
C438 H465 0.983 . S
C439 C440 1.391 . S
C439 C444 1.391 . S
C439 H469 0.948 . S
C440 C439 1.391 . S
C440 C441 1.391 . S
C441 C440 1.391 . S
C441 C442 1.392 . S
C441 H470 0.947 . S
C442 C441 1.392 . S
C442 C443 1.419 . S
C442 H471 0.948 . S
C443 C442 1.419 . S
C443 C444 1.391 . S
C443 C447 1.397 . S
C444 C439 1.391 . S
C444 C443 1.391 . S
C444 C445 1.399 . S
C445 C444 1.399 . S
C445 C446 1.396 . S
C445 C448 1.453 . S
C445 C449 1.684 . S
C446 C427 1.723 . S
C446 C445 1.396 . S
C446 C447 1.394 . S
C447 C443 1.397 . S
C447 C446 1.394 . S
C447 C457 1.723 . S
C448 C445 1.453 . S
C448 H472 0.982 . S
C448 H473 0.979 . S
C448 H474 0.977 . S
C449 C445 1.684 . S
C449 H475 0.979 . S
C449 H476 0.980 . S
C449 H477 0.983 . S
C450 H426 0.948 . S
C450 C451 1.391 . S
C450 C455 1.391 . S
C451 C450 1.391 . S
C451 C452 1.391 . S
C452 H429 0.947 . S
C452 C451 1.391 . S
C452 C453 1.392 . S
C453 H430 0.948 . S
C453 C452 1.392 . S
C453 C454 1.419 . S
C454 C453 1.419 . S
C454 C455 1.391 . S
C454 C458 1.397 . S
C455 C450 1.391 . S
C455 C454 1.391 . S
C455 C456 1.399 . S
C456 C455 1.399 . S
C456 C457 1.396 . S
C456 C459 1.453 . S
C456 C460 1.684 . S
C457 C447 1.723 . S
C457 C456 1.396 . S
C457 C458 1.394 . S
C458 C428 1.723 . S
C458 C454 1.397 . S
C458 C457 1.394 . S
C459 H431 0.982 . S
C459 H435 0.979 . S
C459 H436 0.977 . S
C459 C456 1.453 . S
C460 H432 0.979 . S
C460 H433 0.980 . S
C460 H434 0.983 . S
C460 C456 1.684 . S
H461 C479 0.948 . S
H462 C420 0.948 . S
H463 C438 0.979 . S
H464 C438 0.980 . S
H465 C438 0.983 . S
H466 C437 0.982 . S
H467 C437 0.979 . S
H468 C437 0.977 . S
H469 C439 0.948 . S
H470 C441 0.947 . S
H471 C442 0.948 . S
H472 C448 0.982 . S
H473 C448 0.979 . S
H474 C448 0.977 . S
H475 C449 0.979 . S
H476 C449 0.980 . S
H477 C449 0.983 . S
H478 C422 0.947 . S
C479 C422 1.392 . S
C479 C423 1.419 . S
C479 H461 0.948 . S
O480 Mn481 2.147 1_455 S
O480 C494 1.244 . S
Mn481 O480 2.147 1_655 S
Mn481 O484 2.172 1_545 S
Mn481 O485 2.173 1_655 S
Mn481 O487 2.161 1_645 S
Mn481 O489 2.168 . S
Mn481 O499 2.270 . S
O482 Mn483 2.087 . S
O482 C494 1.256 1_655 S
Mn483 O482 2.087 . S
Mn483 O490 2.089 . S
Mn483 O499 2.290 . S
Mn483 O500 2.251 . S
O484 Mn481 2.172 1_565 S
O484 C495 1.239 . S
O485 Mn481 2.173 1_455 S
O485 Mn486 2.290 1_545 S
O485 C496 1.278 . S
Mn486 O485 2.290 1_565 S
Mn486 O488 2.089 . S
Mn486 O491 2.251 . S
Mn486 O492 2.087 . S
O487 Mn481 2.161 1_465 S
O487 C497 1.244 . S
O488 Mn486 2.089 . S
O488 C495 1.256 1_455 S
O489 Mn481 2.168 . S
O489 C498 1.239 . S
O490 Mn483 2.089 . S
O490 C498 1.256 . S
O491 Mn486 2.251 . S
O491 C496 1.241 1_565 S
O492 Mn486 2.087 . S
O492 C497 1.256 . S
C493 O499 1.278 . S
C493 O500 1.241 . S
C494 O480 1.244 . S
C494 O482 1.256 1_455 S
C495 O484 1.239 . S
C495 O488 1.256 1_655 S
C496 O485 1.278 . S
C496 O491 1.241 1_545 S
C497 O487 1.244 . S
C497 O492 1.256 . S
C498 O489 1.239 . S
C498 O490 1.256 . S
O499 Mn481 2.270 . S
O499 Mn483 2.290 . S
O499 C493 1.278 . S
O500 Mn483 2.251 . S
O500 C493 1.241 . S
O501 Mn502 2.163 1_565 S
O501 C515 1.244 1_565 S
Mn502 O501 2.163 1_545 S
Mn502 O505 2.160 . S
Mn502 O506 2.221 1_545 S
Mn502 O508 2.163 . S
Mn502 O510 2.160 1_545 S
Mn502 O520 2.221 . S
O503 Mn504 2.087 . S
O503 C515 1.256 . S
Mn504 O503 2.087 . S
Mn504 O511 2.089 . S
Mn504 O520 2.290 . S
Mn504 O521 2.251 . S
O505 Mn502 2.160 . S
O505 C516 1.239 . S
O506 Mn502 2.221 1_565 S
O506 Mn507 2.290 . S
O506 C517 1.278 . S
Mn507 O506 2.290 . S
Mn507 O509 2.089 1_565 S
Mn507 O512 2.251 . S
Mn507 O513 2.087 1_565 S
O508 Mn502 2.163 . S
O508 C518 1.244 . S
O509 Mn507 2.089 1_545 S
O509 C516 1.256 . S
O510 Mn502 2.160 1_565 S
O510 C519 1.239 . S
O511 Mn504 2.089 . S
O511 C519 1.256 1_545 S
O512 Mn507 2.251 . S
O512 C517 1.241 . S
O513 Mn507 2.087 1_545 S
O513 C518 1.256 . S
C514 O520 1.278 . S
C514 O521 1.241 . S
C515 O501 1.244 1_545 S
C515 O503 1.256 . S
C516 O505 1.239 . S
C516 O509 1.256 . S
C517 O506 1.278 . S
C517 O512 1.241 . S
C518 O508 1.244 . S
C518 O513 1.256 . S
C519 O510 1.239 . S
C519 O511 1.256 1_565 S
O520 Mn502 2.221 . S
O520 Mn504 2.290 . S
O520 C514 1.278 . S
O521 Mn504 2.251 . S
O521 C514 1.241 . S
O522 Mn523 2.163 . S
O522 C536 1.244 . S
Mn523 O522 2.163 . S
Mn523 O526 2.160 . S
Mn523 O527 2.221 . S
Mn523 O529 2.163 . S
Mn523 O531 2.160 . S
Mn523 O541 2.221 . S
O524 Mn525 2.087 . S
O524 C536 1.256 . S
Mn525 O524 2.087 . S
Mn525 O532 2.089 . S
Mn525 O541 2.290 . S
Mn525 O542 2.251 . S
O526 Mn523 2.160 . S
O526 C537 1.239 . S
O527 Mn523 2.221 . S
O527 Mn528 2.290 . S
O527 C538 1.278 . S
Mn528 O527 2.290 . S
Mn528 O530 2.089 . S
Mn528 O533 2.251 . S
Mn528 O534 2.087 . S
O529 Mn523 2.163 . S
O529 C539 1.244 . S
O530 Mn528 2.089 . S
O530 C537 1.256 . S
O531 Mn523 2.160 . S
O531 C540 1.239 . S
O532 Mn525 2.089 . S
O532 C540 1.256 . S
O533 Mn528 2.251 . S
O533 C538 1.241 . S
O534 Mn528 2.087 . S
O534 C539 1.256 . S
C535 O541 1.278 . S
C535 O542 1.241 . S
C536 O522 1.244 . S
C536 O524 1.256 . S
C537 O526 1.239 . S
C537 O530 1.256 . S
C538 O527 1.278 . S
C538 O533 1.241 . S
C539 O529 1.244 . S
C539 O534 1.256 . S
C540 O531 1.239 . S
C540 O532 1.256 . S
O541 Mn523 2.221 . S
O541 Mn525 2.290 . S
O541 C535 1.278 . S
O542 Mn525 2.251 . S
O542 C535 1.241 . S
O543 Mn544 2.163 . S
O543 C557 1.244 . S
Mn544 O543 2.163 . S
Mn544 O547 2.160 1_455 S
Mn544 O548 2.221 1_455 S
Mn544 O550 2.163 1_455 S
Mn544 O552 2.160 . S
Mn544 O562 2.221 . S
O545 Mn546 2.087 . S
O545 C557 1.256 . S
Mn546 O545 2.087 . S
Mn546 O553 2.089 . S
Mn546 O562 2.290 . S
Mn546 O563 2.251 . S
O547 Mn544 2.160 1_655 S
O547 C558 1.239 . S
O548 Mn544 2.221 1_655 S
O548 Mn549 2.290 . S
O548 C559 1.278 . S
Mn549 O548 2.290 . S
Mn549 O551 2.089 . S
Mn549 O554 2.251 . S
Mn549 O555 2.087 . S
O550 Mn544 2.163 1_655 S
O550 C560 1.244 . S
O551 Mn549 2.089 . S
O551 C558 1.256 . S
O552 Mn544 2.160 . S
O552 C561 1.239 . S
O553 Mn546 2.089 . S
O553 C561 1.256 . S
O554 Mn549 2.251 . S
O554 C559 1.241 . S
O555 Mn549 2.087 . S
O555 C560 1.256 . S
C556 O562 1.278 . S
C556 O563 1.241 . S
C557 O543 1.244 . S
C557 O545 1.256 . S
C558 O547 1.239 . S
C558 O551 1.256 . S
C559 O548 1.278 . S
C559 O554 1.241 . S
C560 O550 1.244 . S
C560 O555 1.256 . S
C561 O552 1.239 . S
C561 O553 1.256 . S
O562 Mn544 2.221 . S
O562 Mn546 2.290 . S
O562 C556 1.278 . S
O563 Mn546 2.251 . S
O563 C556 1.241 . S
H564 C582 0.951 . S
H565 C584 0.951 . S
H566 C586 0.950 . S
H567 C587 0.950 . S
H568 C589 0.950 . S
H569 C592 0.950 . S
H570 C593 0.950 . S
H571 C595 0.950 1_565 S
H572 C596 0.950 . S
H573 C597 0.951 . S
H574 C599 0.951 . S
H575 C601 0.950 . S
H576 C602 0.950 . S
H577 C604 0.950 . S
H578 C607 0.950 . S
H579 C608 0.950 . S
H580 C610 0.950 . S
H581 C611 0.950 . S
C582 H564 0.951 . S
C582 C583 1.366 . S
C582 C584 1.388 . S
C583 C582 1.366 . S
C583 C587 1.385 . S
C584 H565 0.951 . S
C584 C582 1.388 . S
C584 C585 1.366 . S
C585 C584 1.366 . S
C585 C586 1.414 . S
C585 C588 1.499 . S
C586 H566 0.950 . S
C586 C585 1.414 . S
C586 C587 1.374 . S
C587 H567 0.950 . S
C587 C583 1.385 . S
C587 C586 1.374 . S
C588 C585 1.499 . S
C588 C589 1.373 . S
C588 C590 1.389 . S
C589 H568 0.950 . S
C589 C588 1.373 . S
C589 C605 1.377 . S
C590 C588 1.389 . S
C590 C591 1.524 . S
C590 C604 1.377 . S
C591 C590 1.524 . S
C591 C592 1.397 . S
C591 C596 1.363 . S
C592 H569 0.950 . S
C592 C591 1.397 . S
C592 C593 1.334 . S
C593 H570 0.950 . S
C593 C592 1.334 . S
C593 C594 1.287 . S
C594 C593 1.287 . S
C594 C595 1.524 . S
C594 H613 0.913 . S
C595 H571 0.950 1_545 S
C595 C594 1.524 . S
C595 C596 1.415 . S
C596 H572 0.950 . S
C596 C591 1.363 . S
C596 C595 1.415 . S
C597 H573 0.951 . S
C597 C598 1.366 . S
C597 C599 1.388 . S
C598 C597 1.366 . S
C598 C602 1.385 . S
C599 H574 0.951 . S
C599 C597 1.388 . S
C599 C600 1.366 . S
C600 C599 1.366 . S
C600 C601 1.414 . S
C600 C603 1.499 . S
C601 H575 0.950 . S
C601 C600 1.414 . S
C601 C602 1.374 . S
C602 H576 0.950 . S
C602 C598 1.385 . S
C602 C601 1.374 . S
C603 C600 1.499 . S
C603 C604 1.373 . S
C603 C605 1.389 . S
C604 H577 0.950 . S
C604 C590 1.377 . S
C604 C603 1.373 . S
C605 C589 1.377 . S
C605 C603 1.389 . S
C605 C606 1.524 . S
C606 C605 1.524 . S
C606 C607 1.397 . S
C606 C611 1.363 . S
C607 H578 0.950 . S
C607 C606 1.397 . S
C607 C608 1.334 . S
C608 H579 0.950 . S
C608 C607 1.334 . S
C608 C609 1.287 . S
C609 C608 1.287 . S
C609 C610 1.524 . S
C609 H612 0.999 . S
C610 H580 0.950 . S
C610 C609 1.524 . S
C610 C611 1.415 . S
C611 H581 0.950 . S
C611 C606 1.363 . S
C611 C610 1.415 . S
H612 C609 0.999 . S
H613 C594 0.913 . S
H614 C632 0.951 . S
H615 C634 0.951 . S
H616 C636 0.950 . S
H617 C637 0.950 . S
H618 C639 0.950 . S
H619 C642 0.950 . S
H620 C643 0.950 . S
H621 C645 0.950 . S
H622 C646 0.950 . S
H623 C647 0.951 . S
H624 C649 0.951 . S
H625 C651 0.950 . S
H626 C652 0.950 . S
H627 C654 0.950 . S
H628 C657 0.950 . S
H629 C658 0.950 . S
H630 C660 0.950 . S
H631 C661 0.950 . S
C632 H614 0.951 . S
C632 C633 1.366 . S
C632 C634 1.388 . S
C633 C632 1.366 . S
C633 C637 1.385 . S
C634 H615 0.951 . S
C634 C632 1.388 . S
C634 C635 1.366 . S
C635 C634 1.366 . S
C635 C636 1.414 . S
C635 C638 1.499 . S
C636 H616 0.950 . S
C636 C635 1.414 . S
C636 C637 1.374 . S
C637 H617 0.950 . S
C637 C633 1.385 . S
C637 C636 1.374 . S
C638 C635 1.499 . S
C638 C639 1.373 . S
C638 C640 1.389 . S
C639 H618 0.950 . S
C639 C638 1.373 . S
C639 C655 1.377 . S
C640 C638 1.389 . S
C640 C641 1.524 . S
C640 C654 1.377 . S
C641 C640 1.524 . S
C641 C642 1.397 . S
C641 C646 1.363 . S
C642 H619 0.950 . S
C642 C641 1.397 . S
C642 C643 1.334 . S
C643 H620 0.950 . S
C643 C642 1.334 . S
C643 C644 1.287 . S
C644 C643 1.287 . S
C644 C645 1.524 . S
C644 H663 0.913 . S
C645 H621 0.950 . S
C645 C644 1.524 . S
C645 C646 1.415 . S
C646 H622 0.950 . S
C646 C641 1.363 . S
C646 C645 1.415 . S
C647 H623 0.951 . S
C647 C648 1.366 . S
C647 C649 1.388 . S
C648 C647 1.366 . S
C648 C652 1.385 . S
C649 H624 0.951 . S
C649 C647 1.388 . S
C649 C650 1.366 . S
C650 C649 1.366 . S
C650 C651 1.414 . S
C650 C653 1.499 . S
C651 H625 0.950 . S
C651 C650 1.414 . S
C651 C652 1.374 . S
C652 H626 0.950 . S
C652 C648 1.385 . S
C652 C651 1.374 . S
C653 C650 1.499 . S
C653 C654 1.373 . S
C653 C655 1.389 . S
C654 H627 0.950 . S
C654 C640 1.377 . S
C654 C653 1.373 . S
C655 C639 1.377 . S
C655 C653 1.389 . S
C655 C656 1.524 . S
C656 C655 1.524 . S
C656 C657 1.397 . S
C656 C661 1.363 . S
C657 H628 0.950 . S
C657 C656 1.397 . S
C657 C658 1.334 . S
C658 H629 0.950 . S
C658 C657 1.334 . S
C658 C659 1.287 . S
C659 C658 1.287 . S
C659 C660 1.524 . S
C659 H662 0.999 . S
C660 H630 0.950 . S
C660 C659 1.524 . S
C660 C661 1.415 . S
C661 H631 0.950 . S
C661 C656 1.363 . S
C661 C660 1.415 . S
H662 C659 0.999 . S
H663 C644 0.913 . S
H664 C682 0.951 . S
H665 C684 0.951 . S
H666 C686 0.950 . S
H667 C687 0.950 . S
H668 C689 0.950 . S
H669 C692 0.950 . S
H670 C693 0.950 . S
H671 C695 0.950 . S
H672 C696 0.950 . S
H673 C697 0.951 . S
H674 C699 0.951 . S
H675 C701 0.950 . S
H676 C702 0.950 . S
H677 C704 0.950 . S
H678 C707 0.950 . S
H679 C708 0.950 . S
H680 C710 0.950 . S
H681 C711 0.950 . S
C682 H664 0.951 . S
C682 C683 1.366 . S
C682 C684 1.388 . S
C683 C682 1.366 . S
C683 C687 1.385 . S
C684 H665 0.951 . S
C684 C682 1.388 . S
C684 C685 1.366 . S
C685 C684 1.366 . S
C685 C686 1.414 . S
C685 C688 1.499 . S
C686 H666 0.950 . S
C686 C685 1.414 . S
C686 C687 1.374 . S
C687 H667 0.950 . S
C687 C683 1.385 . S
C687 C686 1.374 . S
C688 C685 1.499 . S
C688 C689 1.373 . S
C688 C690 1.389 . S
C689 H668 0.950 . S
C689 C688 1.373 . S
C689 C705 1.377 . S
C690 C688 1.389 . S
C690 C691 1.524 . S
C690 C704 1.377 . S
C691 C690 1.524 . S
C691 C692 1.397 . S
C691 C696 1.363 . S
C692 H669 0.950 . S
C692 C691 1.397 . S
C692 C693 1.334 . S
C693 H670 0.950 . S
C693 C692 1.334 . S
C693 C694 1.287 . S
C694 C693 1.287 . S
C694 C695 1.524 . S
C694 H713 0.913 . S
C695 H671 0.950 . S
C695 C694 1.524 . S
C695 C696 1.415 . S
C696 H672 0.950 . S
C696 C691 1.363 . S
C696 C695 1.415 . S
C697 H673 0.951 . S
C697 C698 1.366 . S
C697 C699 1.388 . S
C698 C697 1.366 . S
C698 C702 1.385 . S
C699 H674 0.951 . S
C699 C697 1.388 . S
C699 C700 1.366 . S
C700 C699 1.366 . S
C700 C701 1.414 . S
C700 C703 1.499 . S
C701 H675 0.950 . S
C701 C700 1.414 . S
C701 C702 1.374 . S
C702 H676 0.950 . S
C702 C698 1.385 . S
C702 C701 1.374 . S
C703 C700 1.499 . S
C703 C704 1.373 . S
C703 C705 1.389 . S
C704 H677 0.950 . S
C704 C690 1.377 . S
C704 C703 1.373 . S
C705 C689 1.377 . S
C705 C703 1.389 . S
C705 C706 1.524 . S
C706 C705 1.524 . S
C706 C707 1.397 . S
C706 C711 1.363 . S
C707 H678 0.950 . S
C707 C706 1.397 . S
C707 C708 1.334 . S
C708 H679 0.950 . S
C708 C707 1.334 . S
C708 C709 1.287 . S
C709 C708 1.287 . S
C709 C710 1.524 . S
C709 H712 0.999 . S
C710 H680 0.950 . S
C710 C709 1.524 . S
C710 C711 1.415 . S
C711 H681 0.950 . S
C711 C706 1.363 . S
C711 C710 1.415 . S
H712 C709 0.999 . S
H713 C694 0.913 . S
H714 C732 0.951 . S
H715 C734 0.951 . S
H716 C736 0.950 . S
H717 C737 0.950 . S
H718 C739 0.950 . S
H719 C742 0.950 . S
H720 C743 0.950 . S
H721 C745 0.950 . S
H722 C746 0.950 . S
H723 C747 0.951 . S
H724 C749 0.951 . S
H725 C751 0.950 . S
H726 C752 0.950 . S
H727 C754 0.950 . S
H728 C757 0.950 . S
H729 C758 0.950 . S
H730 C760 0.950 . S
H731 C761 0.950 . S
C732 H714 0.951 . S
C732 C733 1.373 . S
C732 C734 1.388 . S
C733 C732 1.373 . S
C733 C737 1.377 1_655 S
C734 H715 0.951 . S
C734 C732 1.388 . S
C734 C735 1.398 . S
C735 C734 1.398 . S
C735 C736 1.384 1_655 S
C735 C738 1.499 . S
C736 H716 0.950 . S
C736 C735 1.384 1_455 S
C736 C737 1.374 . S
C737 H717 0.950 . S
C737 C733 1.377 1_455 S
C737 C736 1.374 . S
C738 C735 1.499 . S
C738 C739 1.376 . S
C738 C740 1.393 . S
C739 H718 0.950 . S
C739 C738 1.376 . S
C739 C755 1.377 . S
C740 C738 1.393 . S
C740 C741 1.528 . S
C740 C754 1.377 . S
C741 C740 1.528 . S
C741 C742 1.372 1_655 S
C741 C746 1.382 . S
C742 H719 0.950 . S
C742 C741 1.372 1_455 S
C742 C743 1.334 . S
C743 H720 0.950 . S
C743 C742 1.334 . S
C743 C744 1.287 . S
C744 C743 1.287 . S
C744 C745 1.524 1_455 S
C744 H763 0.913 . S
C745 H721 0.950 . S
C745 C744 1.524 1_655 S
C745 C746 1.415 . S
C746 H722 0.950 . S
C746 C741 1.382 . S
C746 C745 1.415 . S
C747 H723 0.951 . S
C747 C748 1.366 1_455 S
C747 C749 1.388 . S
C748 C747 1.366 1_655 S
C748 C752 1.385 . S
C749 H724 0.951 . S
C749 C747 1.388 . S
C749 C750 1.366 1_455 S
C750 C749 1.366 1_655 S
C750 C751 1.414 . S
C750 C753 1.499 . S
C751 H725 0.950 . S
C751 C750 1.414 . S
C751 C752 1.374 . S
C752 H726 0.950 . S
C752 C748 1.385 . S
C752 C751 1.374 . S
C753 C750 1.499 . S
C753 C754 1.373 . S
C753 C755 1.389 . S
C754 H727 0.950 . S
C754 C740 1.377 . S
C754 C753 1.373 . S
C755 C739 1.377 . S
C755 C753 1.389 . S
C755 C756 1.524 . S
C756 C755 1.524 . S
C756 C757 1.397 . S
C756 C761 1.363 1_655 S
C757 H728 0.950 . S
C757 C756 1.397 . S
C757 C758 1.334 . S
C758 H729 0.950 . S
C758 C757 1.334 . S
C758 C759 1.287 . S
C759 C758 1.287 . S
C759 C760 1.524 1_655 S
C759 H762 0.999 . S
C760 H730 0.950 . S
C760 C759 1.524 1_455 S
C760 C761 1.415 . S
C761 H731 0.950 . S
C761 C756 1.363 1_455 S
C761 C760 1.415 . S
H762 C759 0.999 . S
H763 C744 0.913 . S
H764 C782 0.951 . S
H765 C784 0.952 . S
H766 C786 0.950 . S
H767 C787 0.950 . S
H768 C789 0.950 . S
H769 C792 0.950 . S
H770 C793 0.950 . S
H771 C795 0.950 . S
H772 C796 0.950 . S
H773 C797 0.951 1_545 S
H774 C799 0.951 . S
H775 C801 0.950 . S
H776 C802 0.950 . S
H777 C804 0.950 . S
H778 C807 0.950 . S
H779 C808 0.950 . S
H780 C810 0.950 . S
H781 C811 0.950 . S
C782 H764 0.951 . S
C782 C783 1.366 . S
C782 C784 1.388 . S
C783 C782 1.366 . S
C783 C787 1.385 . S
C784 H765 0.952 . S
C784 C782 1.388 . S
C784 C785 1.366 1_554 S
C785 C784 1.366 1_556 S
C785 C786 1.414 . S
C785 C788 1.499 . S
C786 H766 0.950 . S
C786 C785 1.414 . S
C786 C787 1.374 1_556 S
C787 H767 0.950 . S
C787 C783 1.385 . S
C787 C786 1.374 1_554 S
C788 C785 1.499 . S
C788 C789 1.373 . S
C788 C790 1.389 . S
C789 H768 0.950 . S
C789 C788 1.373 . S
C789 C805 1.377 . S
C790 C788 1.389 . S
C790 C791 1.524 1_556 S
C790 C804 1.377 . S
C791 C790 1.524 1_554 S
C791 C792 1.397 . S
C791 C796 1.363 . S
C792 H769 0.950 . S
C792 C791 1.397 . S
C792 C793 1.334 . S
C793 H770 0.950 . S
C793 C792 1.334 . S
C793 C794 1.287 . S
C794 C793 1.287 . S
C794 C795 1.524 . S
C794 H813 0.913 . S
C795 H771 0.950 . S
C795 C794 1.524 . S
C795 C796 1.415 . S
C796 H772 0.950 . S
C796 C791 1.363 . S
C796 C795 1.415 . S
C797 H773 0.951 1_565 S
C797 C798 1.366 . S
C797 C799 1.388 . S
C798 C797 1.366 . S
C798 C802 1.385 . S
C799 H774 0.951 . S
C799 C797 1.388 . S
C799 C800 1.366 . S
C800 C799 1.366 . S
C800 C801 1.414 . S
C800 C803 1.499 . S
C801 H775 0.950 . S
C801 C800 1.414 . S
C801 C802 1.374 . S
C802 H776 0.950 . S
C802 C798 1.385 . S
C802 C801 1.374 . S
C803 C800 1.499 . S
C803 C804 1.373 . S
C803 C805 1.389 . S
C804 H777 0.950 . S
C804 C790 1.377 . S
C804 C803 1.373 . S
C805 C789 1.377 . S
C805 C803 1.389 . S
C805 C806 1.524 . S
C806 C805 1.524 . S
C806 C807 1.397 . S
C806 C811 1.363 . S
C807 H778 0.950 . S
C807 C806 1.397 . S
C807 C808 1.334 . S
C808 H779 0.950 . S
C808 C807 1.334 . S
C808 C809 1.287 . S
C809 C808 1.287 . S
C809 C810 1.524 . S
C809 H812 0.999 . S
C810 H780 0.950 . S
C810 C809 1.524 . S
C810 C811 1.415 . S
C811 H781 0.950 . S
C811 C806 1.363 . S
C811 C810 1.415 . S
H812 C809 0.999 . S
H813 C794 0.913 . S
H814 C832 0.951 . S
H815 C834 0.951 1_556 S
H816 C836 0.950 1_556 S
H817 C837 0.950 . S
H818 C839 0.950 . S
H819 C842 0.950 . S
H820 C843 0.950 . S
H821 C845 0.950 . S
H822 C846 0.950 . S
H823 C847 0.951 . S
H824 C849 0.951 . S
H825 C851 0.950 . S
H826 C852 0.950 . S
H827 C854 0.950 . S
H828 C857 0.950 . S
H829 C858 0.950 . S
H830 C860 0.950 . S
H831 C861 0.950 . S
C832 H814 0.951 . S
C832 C833 1.366 . S
C832 C834 1.388 . S
C833 C832 1.366 . S
C833 C837 1.385 . S
C834 H815 0.951 1_554 S
C834 C832 1.388 . S
C834 C835 1.366 1_554 S
C835 C834 1.366 1_556 S
C835 C836 1.414 1_556 S
C835 C838 1.499 . S
C836 H816 0.950 1_554 S
C836 C835 1.414 1_554 S
C836 C837 1.374 . S
C837 H817 0.950 . S
C837 C833 1.385 . S
C837 C836 1.374 . S
C838 C835 1.499 . S
C838 C839 1.373 . S
C838 C840 1.389 . S
C839 H818 0.950 . S
C839 C838 1.373 . S
C839 C855 1.377 . S
C840 C838 1.389 . S
C840 C841 1.524 . S
C840 C854 1.377 . S
C841 C840 1.524 . S
C841 C842 1.397 . S
C841 C846 1.363 . S
C842 H819 0.950 . S
C842 C841 1.397 . S
C842 C843 1.334 . S
C843 H820 0.950 . S
C843 C842 1.334 . S
C843 C844 1.287 . S
C844 C843 1.287 . S
C844 C845 1.524 . S
C844 H863 0.913 . S
C845 H821 0.950 . S
C845 C844 1.524 . S
C845 C846 1.415 . S
C846 H822 0.950 . S
C846 C841 1.363 . S
C846 C845 1.415 . S
C847 H823 0.951 . S
C847 C848 1.366 . S
C847 C849 1.388 . S
C848 C847 1.366 . S
C848 C852 1.385 . S
C849 H824 0.951 . S
C849 C847 1.388 . S
C849 C850 1.366 . S
C850 C849 1.366 . S
C850 C851 1.414 . S
C850 C853 1.499 . S
C851 H825 0.950 . S
C851 C850 1.414 . S
C851 C852 1.374 . S
C852 H826 0.950 . S
C852 C848 1.385 . S
C852 C851 1.374 . S
C853 C850 1.499 . S
C853 C854 1.373 . S
C853 C855 1.389 . S
C854 H827 0.950 . S
C854 C840 1.377 . S
C854 C853 1.373 . S
C855 C839 1.377 . S
C855 C853 1.389 . S
C855 C856 1.524 . S
C856 C855 1.524 . S
C856 C857 1.397 . S
C856 C861 1.363 . S
C857 H828 0.950 . S
C857 C856 1.397 . S
C857 C858 1.334 . S
C858 H829 0.950 . S
C858 C857 1.334 . S
C858 C859 1.287 . S
C859 C858 1.287 . S
C859 C860 1.524 . S
C859 H862 0.999 1_556 S
C860 H830 0.950 . S
C860 C859 1.524 . S
C860 C861 1.415 . S
C861 H831 0.950 . S
C861 C856 1.363 . S
C861 C860 1.415 . S
H862 C859 0.999 1_554 S
H863 C844 0.913 . S
H864 C882 0.951 . S
H865 C884 0.951 . S
H866 C886 0.950 . S
H867 C887 0.950 . S
H868 C889 0.950 . S
H869 C892 0.950 . S
H870 C893 0.950 . S
H871 C895 0.950 . S
H872 C896 0.950 . S
H873 C897 0.951 . S
H874 C899 0.951 . S
H875 C901 0.950 . S
H876 C902 0.950 . S
H877 C904 0.950 . S
H878 C907 0.950 . S
H879 C908 0.950 . S
H880 C910 0.950 . S
H881 C911 0.950 . S
C882 H864 0.951 . S
C882 C883 1.366 . S
C882 C884 1.388 1_554 S
C883 C882 1.366 . S
C883 C887 1.385 . S
C884 H865 0.951 . S
C884 C882 1.388 1_556 S
C884 C885 1.366 . S
C885 C884 1.366 . S
C885 C886 1.414 . S
C885 C888 1.499 . S
C886 H866 0.950 . S
C886 C885 1.414 . S
C886 C887 1.374 1_556 S
C887 H867 0.950 . S
C887 C883 1.385 . S
C887 C886 1.374 1_554 S
C888 C885 1.499 . S
C888 C889 1.373 . S
C888 C890 1.389 . S
C889 H868 0.950 . S
C889 C888 1.373 . S
C889 C905 1.377 . S
C890 C888 1.389 . S
C890 C891 1.524 . S
C890 C904 1.377 . S
C891 C890 1.524 . S
C891 C892 1.397 . S
C891 C896 1.363 . S
C892 H869 0.950 . S
C892 C891 1.397 . S
C892 C893 1.334 . S
C893 H870 0.950 . S
C893 C892 1.334 . S
C893 C894 1.287 . S
C894 C893 1.287 . S
C894 C895 1.524 . S
C894 H913 0.913 . S
C895 H871 0.950 . S
C895 C894 1.524 . S
C895 C896 1.415 . S
C896 H872 0.950 . S
C896 C891 1.363 . S
C896 C895 1.415 . S
C897 H873 0.951 . S
C897 C898 1.366 . S
C897 C899 1.388 . S
C898 C897 1.366 . S
C898 C902 1.385 . S
C899 H874 0.951 . S
C899 C897 1.388 . S
C899 C900 1.366 . S
C900 C899 1.366 . S
C900 C901 1.414 . S
C900 C903 1.499 . S
C901 H875 0.950 . S
C901 C900 1.414 . S
C901 C902 1.374 . S
C902 H876 0.950 . S
C902 C898 1.385 . S
C902 C901 1.374 . S
C903 C900 1.499 . S
C903 C904 1.373 . S
C903 C905 1.389 . S
C904 H877 0.950 . S
C904 C890 1.377 . S
C904 C903 1.373 . S
C905 C889 1.377 . S
C905 C903 1.389 . S
C905 C906 1.524 . S
C906 C905 1.524 . S
C906 C907 1.397 . S
C906 C911 1.363 . S
C907 H878 0.950 . S
C907 C906 1.397 . S
C907 C908 1.334 . S
C908 H879 0.950 . S
C908 C907 1.334 . S
C908 C909 1.287 1_556 S
C909 C908 1.287 1_554 S
C909 C910 1.524 . S
C909 H912 0.999 . S
C910 H880 0.950 . S
C910 C909 1.524 . S
C910 C911 1.415 1_554 S
C911 H881 0.950 . S
C911 C906 1.363 . S
C911 C910 1.415 1_556 S
H912 C909 0.999 . S
H913 C894 0.913 . S
H914 C932 0.951 1_556 S
H915 C934 0.951 . S
H916 C936 0.950 . S
H917 C937 0.950 . S
H918 C939 0.950 . S
H919 C942 0.950 1_554 S
H920 C943 0.950 1_554 S
H921 C945 0.950 . S
H922 C946 0.950 . S
H923 C947 0.951 . S
H924 C949 0.951 . S
H925 C951 0.950 . S
H926 C952 0.950 . S
H927 C954 0.950 . S
H928 C957 0.950 . S
H929 C958 0.950 . S
H930 C960 0.950 . S
H931 C961 0.950 . S
C932 H914 0.951 1_554 S
C932 C933 1.362 1_655 S
C932 C934 1.388 1_554 S
C933 C932 1.362 1_455 S
C933 C937 1.388 . S
C934 H915 0.951 . S
C934 C932 1.388 1_556 S
C934 C935 1.362 1_655 S
C935 C934 1.362 1_455 S
C935 C936 1.419 1_556 S
C935 C938 1.499 . S
C936 H916 0.950 . S
C936 C935 1.419 1_554 S
C936 C937 1.374 . S
C937 H917 0.950 . S
C937 C933 1.388 . S
C937 C936 1.374 . S
C938 C935 1.499 . S
C938 C939 1.373 . S
C938 C940 1.389 1_455 S
C939 H918 0.950 . S
C939 C938 1.373 . S
C939 C955 1.377 . S
C940 C938 1.389 1_655 S
C940 C941 1.524 . S
C940 C954 1.377 . S
C941 C940 1.524 . S
C941 C942 1.397 . S
C941 C946 1.363 . S
C942 H919 0.950 1_556 S
C942 C941 1.397 . S
C942 C943 1.334 . S
C943 H920 0.950 1_556 S
C943 C942 1.334 . S
C943 C944 1.287 . S
C944 C943 1.287 . S
C944 C945 1.524 . S
C944 H963 0.913 . S
C945 H921 0.950 . S
C945 C944 1.524 . S
C945 C946 1.415 . S
C946 H922 0.950 . S
C946 C941 1.363 . S
C946 C945 1.415 . S
C947 H923 0.951 . S
C947 C948 1.366 . S
C947 C949 1.388 . S
C948 C947 1.366 . S
C948 C952 1.385 1_455 S
C949 H924 0.951 . S
C949 C947 1.388 . S
C949 C950 1.366 . S
C950 C949 1.366 . S
C950 C951 1.414 1_455 S
C950 C953 1.499 . S
C951 H925 0.950 . S
C951 C950 1.414 1_655 S
C951 C952 1.374 . S
C952 H926 0.950 . S
C952 C948 1.385 1_655 S
C952 C951 1.374 . S
C953 C950 1.499 . S
C953 C954 1.373 1_455 S
C953 C955 1.389 . S
C954 H927 0.950 . S
C954 C940 1.377 . S
C954 C953 1.373 1_655 S
C955 C939 1.377 . S
C955 C953 1.389 . S
C955 C956 1.524 . S
C956 C955 1.524 . S
C956 C957 1.397 . S
C956 C961 1.363 . S
C957 H928 0.950 . S
C957 C956 1.397 . S
C957 C958 1.334 . S
C958 H929 0.950 . S
C958 C957 1.334 . S
C958 C959 1.287 . S
C959 C958 1.287 . S
C959 C960 1.524 . S
C959 H962 0.999 . S
C960 H930 0.950 . S
C960 C959 1.524 . S
C960 C961 1.415 . S
C961 H931 0.950 . S
C961 C956 1.363 . S
C961 C960 1.415 . S
H962 C959 0.999 . S
H963 C944 0.913 . S
H964 C982 0.951 . S
H965 C984 0.951 . S
H966 C986 0.950 . S
H967 C987 0.950 . S
H968 C989 0.950 . S
H969 C992 0.950 . S
H970 C993 0.950 . S
H971 C995 0.950 . S
H972 C996 0.922 1_655 S
H973 C997 0.951 1_455 S
H974 C999 0.951 1_455 S
H975 C1001 0.950 . S
H976 C1002 0.950 . S
H977 C1004 0.950 . S
H978 C1007 0.950 . S
H979 C1008 0.950 . S
H980 C1010 0.950 . S
H981 C1011 0.950 . S
C982 H964 0.951 . S
C982 C983 1.366 1_655 S
C982 C984 1.388 . S
C983 C982 1.366 1_455 S
C983 C987 1.385 . S
C984 H965 0.951 . S
C984 C982 1.388 . S
C984 C985 1.366 . S
C985 C984 1.366 . S
C985 C986 1.414 1_655 S
C985 C988 1.499 . S
C986 H966 0.950 . S
C986 C985 1.414 1_455 S
C986 C987 1.374 . S
C987 H967 0.950 . S
C987 C983 1.385 . S
C987 C986 1.374 . S
C988 C985 1.499 . S
C988 C989 1.373 . S
C988 C990 1.390 1_655 S
C989 H968 0.950 . S
C989 C988 1.373 . S
C989 C1005 1.377 . S
C990 C988 1.390 1_455 S
C990 C991 1.523 . S
C990 C1004 1.377 1_455 S
C991 C990 1.523 . S
C991 C992 1.397 . S
C991 C996 1.377 . S
C992 H969 0.950 . S
C992 C991 1.397 . S
C992 C993 1.334 . S
C993 H970 0.950 . S
C993 C992 1.334 . S
C993 C994 1.287 . S
C994 C993 1.287 . S
C994 C995 1.524 . S
C994 H1013 0.913 . S
C995 H971 0.950 . S
C995 C994 1.524 . S
C995 C996 1.430 . S
C996 H972 0.922 1_455 S
C996 C991 1.377 . S
C996 C995 1.430 . S
C997 H973 0.951 1_655 S
C997 C998 1.366 . S
C997 C999 1.388 . S
C998 C997 1.366 . S
C998 C1002 1.385 . S
C999 H974 0.951 1_655 S
C999 C997 1.388 . S
C999 C1000 1.366 . S
C1000 C999 1.366 . S
C1000 C1001 1.414 . S
C1000 C1003 1.499 . S
C1001 H975 0.950 . S
C1001 C1000 1.414 . S
C1001 C1002 1.374 . S
C1002 H976 0.950 . S
C1002 C998 1.385 . S
C1002 C1001 1.374 . S
C1003 C1000 1.499 . S
C1003 C1004 1.373 . S
C1003 C1005 1.389 . S
C1004 H977 0.950 . S
C1004 C990 1.377 1_655 S
C1004 C1003 1.373 . S
C1005 C989 1.377 . S
C1005 C1003 1.389 . S
C1005 C1006 1.524 . S
C1006 C1005 1.524 . S
C1006 C1007 1.397 . S
C1006 C1011 1.363 . S
C1007 H978 0.950 . S
C1007 C1006 1.397 . S
C1007 C1008 1.334 . S
C1008 H979 0.950 . S
C1008 C1007 1.334 . S
C1008 C1009 1.287 . S
C1009 C1008 1.287 . S
C1009 C1010 1.524 . S
C1009 H1012 0.999 . S
C1010 H980 0.950 . S
C1010 C1009 1.524 . S
C1010 C1011 1.415 . S
C1011 H981 0.950 . S
C1011 C1006 1.363 . S
C1011 C1010 1.415 . S
H1012 C1009 0.999 . S
H1013 C994 0.913 . S
H1014 C1032 0.951 . S
H1015 C1034 0.951 . S
H1016 C1036 0.950 . S
H1017 C1037 0.950 . S
H1018 C1039 0.950 . S
H1019 C1042 0.950 . S
H1020 C1043 0.950 . S
H1021 C1045 0.950 . S
H1022 C1046 0.950 . S
H1023 C1047 0.951 1_565 S
H1024 C1049 0.951 . S
H1025 C1051 0.950 . S
H1026 C1052 0.950 . S
H1027 C1054 0.950 . S
H1028 C1057 0.950 . S
H1029 C1058 0.950 . S
H1030 C1060 0.950 . S
H1031 C1061 0.950 . S
C1032 H1014 0.951 . S
C1032 C1033 1.366 . S
C1032 C1034 1.388 . S
C1033 C1032 1.366 . S
C1033 C1037 1.385 . S
C1034 H1015 0.951 . S
C1034 C1032 1.388 . S
C1034 C1035 1.366 . S
C1035 C1034 1.366 . S
C1035 C1036 1.414 . S
C1035 C1038 1.499 . S
C1036 H1016 0.950 . S
C1036 C1035 1.414 . S
C1036 C1037 1.374 . S
C1037 H1017 0.950 . S
C1037 C1033 1.385 . S
C1037 C1036 1.374 . S
C1038 C1035 1.499 . S
C1038 C1039 1.373 . S
C1038 C1040 1.389 . S
C1039 H1018 0.950 . S
C1039 C1038 1.373 . S
C1039 C1055 1.377 . S
C1040 C1038 1.389 . S
C1040 C1041 1.524 . S
C1040 C1054 1.377 . S
C1041 C1040 1.524 . S
C1041 C1042 1.397 . S
C1041 C1046 1.363 . S
C1042 H1019 0.950 . S
C1042 C1041 1.397 . S
C1042 C1043 1.334 . S
C1043 H1020 0.950 . S
C1043 C1042 1.334 . S
C1043 C1044 1.287 . S
C1044 C1043 1.287 . S
C1044 C1045 1.524 . S
C1044 H1063 0.913 . S
C1045 H1021 0.950 . S
C1045 C1044 1.524 . S
C1045 C1046 1.415 . S
C1046 H1022 0.950 . S
C1046 C1041 1.363 . S
C1046 C1045 1.415 . S
C1047 H1023 0.951 1_545 S
C1047 C1048 1.366 . S
C1047 C1049 1.388 . S
C1048 C1047 1.366 . S
C1048 C1052 1.385 . S
C1049 H1024 0.951 . S
C1049 C1047 1.388 . S
C1049 C1050 1.366 . S
C1050 C1049 1.366 . S
C1050 C1051 1.414 . S
C1050 C1053 1.499 . S
C1051 H1025 0.950 . S
C1051 C1050 1.414 . S
C1051 C1052 1.374 . S
C1052 H1026 0.950 . S
C1052 C1048 1.385 . S
C1052 C1051 1.374 . S
C1053 C1050 1.499 . S
C1053 C1054 1.373 . S
C1053 C1055 1.389 . S
C1054 H1027 0.950 . S
C1054 C1040 1.377 . S
C1054 C1053 1.373 . S
C1055 C1039 1.377 . S
C1055 C1053 1.389 . S
C1055 C1056 1.524 . S
C1056 C1055 1.524 . S
C1056 C1057 1.397 . S
C1056 C1061 1.363 . S
C1057 H1028 0.950 . S
C1057 C1056 1.397 . S
C1057 C1058 1.334 . S
C1058 H1029 0.950 . S
C1058 C1057 1.334 . S
C1058 C1059 1.287 . S
C1059 C1058 1.287 . S
C1059 C1060 1.524 . S
C1059 H1062 0.999 . S
C1060 H1030 0.950 . S
C1060 C1059 1.524 . S
C1060 C1061 1.415 . S
C1061 H1031 0.950 . S
C1061 C1056 1.363 . S
C1061 C1060 1.415 . S
H1062 C1059 0.999 . S
H1063 C1044 0.913 . S
H1064 C1082 0.951 . S
H1065 C1084 0.951 . S
H1066 C1086 0.950 . S
H1067 C1087 0.950 . S
H1068 C1089 0.950 . S
H1069 C1092 0.950 . S
H1070 C1093 0.950 . S
H1071 C1095 0.950 . S
H1072 C1096 0.950 . S
H1073 C1097 0.951 . S
H1074 C1099 0.951 . S
H1075 C1101 0.950 . S
H1076 C1102 0.950 . S
H1077 C1104 0.950 . S
H1078 C1107 0.950 . S
H1079 C1108 0.950 . S
H1080 C1110 0.950 . S
H1081 C1111 0.950 . S
C1082 H1064 0.951 . S
C1082 C1083 1.366 . S
C1082 C1084 1.388 . S
C1083 C1082 1.366 . S
C1083 C1087 1.385 . S
C1084 H1065 0.951 . S
C1084 C1082 1.388 . S
C1084 C1085 1.366 . S
C1085 C1084 1.366 . S
C1085 C1086 1.414 . S
C1085 C1088 1.499 . S
C1086 H1066 0.950 . S
C1086 C1085 1.414 . S
C1086 C1087 1.374 . S
C1087 H1067 0.950 . S
C1087 C1083 1.385 . S
C1087 C1086 1.374 . S
C1088 C1085 1.499 . S
C1088 C1089 1.373 . S
C1088 C1090 1.389 . S
C1089 H1068 0.950 . S
C1089 C1088 1.373 . S
C1089 C1105 1.377 . S
C1090 C1088 1.389 . S
C1090 C1091 1.524 . S
C1090 C1104 1.377 . S
C1091 C1090 1.524 . S
C1091 C1092 1.397 . S
C1091 C1096 1.363 . S
C1092 H1069 0.950 . S
C1092 C1091 1.397 . S
C1092 C1093 1.334 . S
C1093 H1070 0.950 . S
C1093 C1092 1.334 . S
C1093 C1094 1.287 . S
C1094 C1093 1.287 . S
C1094 C1095 1.524 . S
C1094 H1113 0.913 . S
C1095 H1071 0.950 . S
C1095 C1094 1.524 . S
C1095 C1096 1.415 . S
C1096 H1072 0.950 . S
C1096 C1091 1.363 . S
C1096 C1095 1.415 . S
C1097 H1073 0.951 . S
C1097 C1098 1.366 . S
C1097 C1099 1.388 . S
C1098 C1097 1.366 . S
C1098 C1102 1.385 . S
C1099 H1074 0.951 . S
C1099 C1097 1.388 . S
C1099 C1100 1.366 . S
C1100 C1099 1.366 . S
C1100 C1101 1.414 . S
C1100 C1103 1.499 . S
C1101 H1075 0.950 . S
C1101 C1100 1.414 . S
C1101 C1102 1.374 . S
C1102 H1076 0.950 . S
C1102 C1098 1.385 . S
C1102 C1101 1.374 . S
C1103 C1100 1.499 . S
C1103 C1104 1.373 . S
C1103 C1105 1.389 . S
C1104 H1077 0.950 . S
C1104 C1090 1.377 . S
C1104 C1103 1.373 . S
C1105 C1089 1.377 . S
C1105 C1103 1.389 . S
C1105 C1106 1.524 . S
C1106 C1105 1.524 . S
C1106 C1107 1.397 . S
C1106 C1111 1.363 . S
C1107 H1078 0.950 . S
C1107 C1106 1.397 . S
C1107 C1108 1.334 . S
C1108 H1079 0.950 . S
C1108 C1107 1.334 . S
C1108 C1109 1.287 . S
C1109 C1108 1.287 . S
C1109 C1110 1.524 . S
C1109 H1112 0.999 . S
C1110 H1080 0.950 . S
C1110 C1109 1.524 . S
C1110 C1111 1.415 . S
C1111 H1081 0.950 . S
C1111 C1106 1.363 . S
C1111 C1110 1.415 . S
H1112 C1109 0.999 . S
H1113 C1094 0.913 . S
H1114 C1132 0.951 . S
H1115 C1134 0.951 . S
H1116 C1136 0.950 . S
H1117 C1137 0.950 . S
H1118 C1139 0.950 . S
H1119 C1142 0.950 . S
H1120 C1143 0.950 . S
H1121 C1145 0.950 . S
H1122 C1146 0.950 . S
H1123 C1147 0.951 . S
H1124 C1149 0.951 . S
H1125 C1151 0.950 . S
H1126 C1152 0.950 . S
H1127 C1154 0.950 . S
H1128 C1157 0.950 . S
H1129 C1158 0.950 . S
H1130 C1160 0.950 . S
H1131 C1161 0.950 . S
C1132 H1114 0.951 . S
C1132 C1133 1.366 . S
C1132 C1134 1.388 . S
C1133 C1132 1.366 . S
C1133 C1137 1.385 . S
C1134 H1115 0.951 . S
C1134 C1132 1.388 . S
C1134 C1135 1.366 . S
C1135 C1134 1.366 . S
C1135 C1136 1.414 . S
C1135 C1138 1.499 . S
C1136 H1116 0.950 . S
C1136 C1135 1.414 . S
C1136 C1137 1.374 . S
C1137 H1117 0.950 . S
C1137 C1133 1.385 . S
C1137 C1136 1.374 . S
C1138 C1135 1.499 . S
C1138 C1139 1.373 . S
C1138 C1140 1.389 . S
C1139 H1118 0.950 . S
C1139 C1138 1.373 . S
C1139 C1155 1.377 . S
C1140 C1138 1.389 . S
C1140 C1141 1.524 . S
C1140 C1154 1.377 . S
C1141 C1140 1.524 . S
C1141 C1142 1.397 . S
C1141 C1146 1.363 . S
C1142 H1119 0.950 . S
C1142 C1141 1.397 . S
C1142 C1143 1.334 . S
C1143 H1120 0.950 . S
C1143 C1142 1.334 . S
C1143 C1144 1.287 . S
C1144 C1143 1.287 . S
C1144 C1145 1.524 . S
C1144 H1163 0.913 . S
C1145 H1121 0.950 . S
C1145 C1144 1.524 . S
C1145 C1146 1.415 . S
C1146 H1122 0.950 . S
C1146 C1141 1.363 . S
C1146 C1145 1.415 . S
C1147 H1123 0.951 . S
C1147 C1148 1.366 . S
C1147 C1149 1.388 . S
C1148 C1147 1.366 . S
C1148 C1152 1.385 . S
C1149 H1124 0.951 . S
C1149 C1147 1.388 . S
C1149 C1150 1.366 . S
C1150 C1149 1.366 . S
C1150 C1151 1.414 . S
C1150 C1153 1.499 . S
C1151 H1125 0.950 . S
C1151 C1150 1.414 . S
C1151 C1152 1.374 . S
C1152 H1126 0.950 . S
C1152 C1148 1.385 . S
C1152 C1151 1.374 . S
C1153 C1150 1.499 . S
C1153 C1154 1.373 . S
C1153 C1155 1.389 . S
C1154 H1127 0.950 . S
C1154 C1140 1.377 . S
C1154 C1153 1.373 . S
C1155 C1139 1.377 . S
C1155 C1153 1.389 . S
C1155 C1156 1.524 . S
C1156 C1155 1.524 . S
C1156 C1157 1.397 . S
C1156 C1161 1.363 . S
C1157 H1128 0.950 . S
C1157 C1156 1.397 . S
C1157 C1158 1.334 . S
C1158 H1129 0.950 . S
C1158 C1157 1.334 . S
C1158 C1159 1.287 . S
C1159 C1158 1.287 . S
C1159 C1160 1.524 . S
C1159 H1162 0.999 . S
C1160 H1130 0.950 . S
C1160 C1159 1.524 . S
C1160 C1161 1.415 . S
C1161 H1131 0.950 . S
C1161 C1156 1.363 . S
C1161 C1160 1.415 . S
H1162 C1159 0.999 . S
H1163 C1144 0.913 . S
H1164 C1182 0.951 . S
H1165 C1184 0.951 . S
H1166 C1186 0.950 . S
H1167 C1187 0.950 1_554 S
H1168 C1189 0.950 . S
H1169 C1192 0.950 . S
H1170 C1193 0.950 . S
H1171 C1195 0.950 . S
H1172 C1196 0.950 . S
H1173 C1197 0.951 1_655 S
H1174 C1199 0.929 1_655 S
H1175 C1201 0.950 . S
H1176 C1202 0.950 . S
H1177 C1204 0.950 . S
H1178 C1207 0.950 . S
H1179 C1208 0.950 . S
H1180 C1210 0.950 . S
H1181 C1211 0.950 . S
C1182 H1164 0.951 . S
C1182 C1183 1.366 1_455 S
C1182 C1184 1.388 . S
C1183 C1182 1.366 1_655 S
C1183 C1187 1.385 . S
C1184 H1165 0.951 . S
C1184 C1182 1.388 . S
C1184 C1185 1.366 . S
C1185 C1184 1.366 . S
C1185 C1186 1.414 1_455 S
C1185 C1188 1.499 . S
C1186 H1166 0.950 . S
C1186 C1185 1.414 1_655 S
C1186 C1187 1.374 . S
C1187 H1167 0.950 1_556 S
C1187 C1183 1.385 . S
C1187 C1186 1.374 . S
C1188 C1185 1.499 . S
C1188 C1189 1.373 1_455 S
C1188 C1190 1.389 . S
C1189 H1168 0.950 . S
C1189 C1188 1.373 1_655 S
C1189 C1205 1.377 . S
C1190 C1188 1.389 . S
C1190 C1191 1.524 . S
C1190 C1204 1.377 . S
C1191 C1190 1.524 . S
C1191 C1192 1.397 . S
C1191 C1196 1.363 . S
C1192 H1169 0.950 . S
C1192 C1191 1.397 . S
C1192 C1193 1.334 . S
C1193 H1170 0.950 . S
C1193 C1192 1.334 . S
C1193 C1194 1.287 . S
C1194 C1193 1.287 . S
C1194 C1195 1.524 . S
C1194 H1213 0.913 . S
C1195 H1171 0.950 . S
C1195 C1194 1.524 . S
C1195 C1196 1.415 . S
C1196 H1172 0.950 . S
C1196 C1191 1.363 . S
C1196 C1195 1.415 . S
C1197 H1173 0.951 1_455 S
C1197 C1198 1.366 . S
C1197 C1199 1.395 . S
C1198 C1197 1.366 . S
C1198 C1202 1.385 . S
C1199 H1174 0.929 1_455 S
C1199 C1197 1.395 . S
C1199 C1200 1.383 . S
C1200 C1199 1.383 . S
C1200 C1201 1.414 . S
C1200 C1203 1.499 . S
C1201 H1175 0.950 . S
C1201 C1200 1.414 . S
C1201 C1202 1.374 . S
C1202 H1176 0.950 . S
C1202 C1198 1.385 . S
C1202 C1201 1.374 . S
C1203 C1200 1.499 . S
C1203 C1204 1.373 . S
C1203 C1205 1.389 1_455 S
C1204 H1177 0.950 . S
C1204 C1190 1.377 . S
C1204 C1203 1.373 . S
C1205 C1189 1.377 . S
C1205 C1203 1.389 1_655 S
C1205 C1206 1.524 . S
C1206 C1205 1.524 . S
C1206 C1207 1.397 . S
C1206 C1211 1.363 . S
C1207 H1178 0.950 . S
C1207 C1206 1.397 . S
C1207 C1208 1.334 . S
C1208 H1179 0.950 . S
C1208 C1207 1.334 . S
C1208 C1209 1.287 . S
C1209 C1208 1.287 . S
C1209 C1210 1.524 . S
C1209 H1212 0.999 . S
C1210 H1180 0.950 . S
C1210 C1209 1.524 . S
C1210 C1211 1.415 . S
C1211 H1181 0.950 . S
C1211 C1206 1.363 . S
C1211 C1210 1.415 . S
H1212 C1209 0.999 . S
H1213 C1194 0.913 . S
H1214 C1232 0.951 . S
H1215 C1234 0.951 . S
H1216 C1236 0.950 . S
H1217 C1237 0.950 . S
H1218 C1239 0.950 . S
H1219 C1242 0.950 . S
H1220 C1243 0.950 . S
H1221 C1245 0.950 . S
H1222 C1246 0.950 . S
H1223 C1247 0.951 . S
H1224 C1249 0.951 1_545 S
H1225 C1251 0.950 . S
H1226 C1252 0.950 . S
H1227 C1254 0.950 . S
H1228 C1257 0.950 . S
H1229 C1258 0.950 . S
H1230 C1260 0.950 1_554 S
H1231 C1261 0.950 . S
C1232 H1214 0.951 . S
C1232 C1233 1.366 . S
C1232 C1234 1.388 . S
C1233 C1232 1.366 . S
C1233 C1237 1.385 . S
C1234 H1215 0.951 . S
C1234 C1232 1.388 . S
C1234 C1235 1.366 . S
C1235 C1234 1.366 . S
C1235 C1236 1.414 . S
C1235 C1238 1.499 . S
C1236 H1216 0.950 . S
C1236 C1235 1.414 . S
C1236 C1237 1.374 . S
C1237 H1217 0.950 . S
C1237 C1233 1.385 . S
C1237 C1236 1.374 . S
C1238 C1235 1.499 . S
C1238 C1239 1.373 . S
C1238 C1240 1.389 . S
C1239 H1218 0.950 . S
C1239 C1238 1.373 . S
C1239 C1255 1.377 . S
C1240 C1238 1.389 . S
C1240 C1241 1.524 . S
C1240 C1254 1.377 . S
C1241 C1240 1.524 . S
C1241 C1242 1.397 . S
C1241 C1246 1.363 . S
C1242 H1219 0.950 . S
C1242 C1241 1.397 . S
C1242 C1243 1.334 . S
C1243 H1220 0.950 . S
C1243 C1242 1.334 . S
C1243 C1244 1.287 . S
C1244 C1243 1.287 . S
C1244 C1245 1.524 . S
C1244 H1263 0.913 . S
C1245 H1221 0.950 . S
C1245 C1244 1.524 . S
C1245 C1246 1.415 . S
C1246 H1222 0.950 . S
C1246 C1241 1.363 . S
C1246 C1245 1.415 . S
C1247 H1223 0.951 . S
C1247 C1248 1.366 . S
C1247 C1249 1.388 1_545 S
C1248 C1247 1.366 . S
C1248 C1252 1.385 1_545 S
C1249 H1224 0.951 1_565 S
C1249 C1247 1.388 1_565 S
C1249 C1250 1.366 . S
C1250 C1249 1.366 . S
C1250 C1251 1.414 . S
C1250 C1253 1.499 . S
C1251 H1225 0.950 . S
C1251 C1250 1.414 . S
C1251 C1252 1.374 . S
C1252 H1226 0.950 . S
C1252 C1248 1.385 1_565 S
C1252 C1251 1.374 . S
C1253 C1250 1.499 . S
C1253 C1254 1.373 . S
C1253 C1255 1.389 . S
C1254 H1227 0.950 . S
C1254 C1240 1.377 . S
C1254 C1253 1.373 . S
C1255 C1239 1.377 . S
C1255 C1253 1.389 . S
C1255 C1256 1.524 . S
C1256 C1255 1.524 . S
C1256 C1257 1.397 . S
C1256 C1261 1.363 . S
C1257 H1228 0.950 . S
C1257 C1256 1.397 . S
C1257 C1258 1.334 . S
C1258 H1229 0.950 . S
C1258 C1257 1.334 . S
C1258 C1259 1.287 1_566 S
C1259 C1258 1.287 1_544 S
C1259 C1260 1.524 1_554 S
C1259 H1262 0.999 . S
C1260 H1230 0.950 1_556 S
C1260 C1259 1.524 1_556 S
C1260 C1261 1.415 1_545 S
C1261 H1231 0.950 . S
C1261 C1256 1.363 . S
C1261 C1260 1.415 1_565 S
H1262 C1259 0.999 . S
H1263 C1244 0.913 . S
H1264 C1282 0.951 . S
H1265 C1284 0.951 . S
H1266 C1286 0.950 . S
H1267 C1287 0.950 1_554 S
H1268 C1289 0.950 . S
H1269 C1292 0.950 . S
H1270 C1293 0.950 . S
H1271 C1295 0.950 . S
H1272 C1296 0.950 . S
H1273 C1297 0.951 . S
H1274 C1299 0.951 . S
H1275 C1301 0.950 . S
H1276 C1302 0.950 . S
H1277 C1304 0.950 . S
H1278 C1307 0.950 . S
H1279 C1308 0.950 . S
H1280 C1310 0.950 1_554 S
H1281 C1311 0.950 . S
C1282 H1264 0.951 . S
C1282 C1283 1.366 . S
C1282 C1284 1.388 . S
C1283 C1282 1.366 . S
C1283 C1287 1.385 . S
C1284 H1265 0.951 . S
C1284 C1282 1.388 . S
C1284 C1285 1.366 . S
C1285 C1284 1.366 . S
C1285 C1286 1.414 . S
C1285 C1288 1.499 . S
C1286 H1266 0.950 . S
C1286 C1285 1.414 . S
C1286 C1287 1.374 . S
C1287 H1267 0.950 1_556 S
C1287 C1283 1.385 . S
C1287 C1286 1.374 . S
C1288 C1285 1.499 . S
C1288 C1289 1.373 . S
C1288 C1290 1.389 . S
C1289 H1268 0.950 . S
C1289 C1288 1.373 . S
C1289 C1305 1.377 . S
C1290 C1288 1.389 . S
C1290 C1291 1.524 . S
C1290 C1304 1.377 . S
C1291 C1290 1.524 . S
C1291 C1292 1.397 . S
C1291 C1296 1.363 . S
C1292 H1269 0.950 . S
C1292 C1291 1.397 . S
C1292 C1293 1.334 . S
C1293 H1270 0.950 . S
C1293 C1292 1.334 . S
C1293 C1294 1.287 . S
C1294 C1293 1.287 . S
C1294 C1295 1.524 . S
C1294 H1313 0.913 . S
C1295 H1271 0.950 . S
C1295 C1294 1.524 . S
C1295 C1296 1.415 . S
C1296 H1272 0.950 . S
C1296 C1291 1.363 . S
C1296 C1295 1.415 . S
C1297 H1273 0.951 . S
C1297 C1298 1.366 . S
C1297 C1299 1.388 . S
C1298 C1297 1.366 . S
C1298 C1302 1.385 . S
C1299 H1274 0.951 . S
C1299 C1297 1.388 . S
C1299 C1300 1.366 . S
C1300 C1299 1.366 . S
C1300 C1301 1.414 . S
C1300 C1303 1.499 . S
C1301 H1275 0.950 . S
C1301 C1300 1.414 . S
C1301 C1302 1.374 . S
C1302 H1276 0.950 . S
C1302 C1298 1.385 . S
C1302 C1301 1.374 . S
C1303 C1300 1.499 . S
C1303 C1304 1.373 . S
C1303 C1305 1.389 . S
C1304 H1277 0.950 . S
C1304 C1290 1.377 . S
C1304 C1303 1.373 . S
C1305 C1289 1.377 . S
C1305 C1303 1.389 . S
C1305 C1306 1.524 . S
C1306 C1305 1.524 . S
C1306 C1307 1.397 . S
C1306 C1311 1.363 . S
C1307 H1278 0.950 . S
C1307 C1306 1.397 . S
C1307 C1308 1.334 . S
C1308 H1279 0.950 . S
C1308 C1307 1.334 . S
C1308 C1309 1.287 . S
C1309 C1308 1.287 . S
C1309 C1310 1.524 . S
C1309 H1312 0.999 . S
C1310 H1280 0.950 1_556 S
C1310 C1309 1.524 . S
C1310 C1311 1.415 . S
C1311 H1281 0.950 . S
C1311 C1306 1.363 . S
C1311 C1310 1.415 . S
H1312 C1309 0.999 . S
H1313 C1294 0.913 . S
H1314 C1332 0.951 . S
H1315 C1334 0.951 . S
H1316 C1336 0.950 . S
H1317 C1337 0.950 . S
H1318 C1339 0.950 . S
H1319 C1342 0.950 1_556 S
H1320 C1343 0.950 . S
H1321 C1345 0.950 . S
H1322 C1346 0.950 . S
H1323 C1347 0.951 . S
H1324 C1349 0.951 . S
H1325 C1351 0.950 . S
H1326 C1352 0.950 . S
H1327 C1354 0.950 . S
H1328 C1357 0.950 . S
H1329 C1358 0.950 . S
H1330 C1360 0.950 . S
H1331 C1361 0.950 . S
C1332 H1314 0.951 . S
C1332 C1333 1.366 . S
C1332 C1334 1.388 . S
C1333 C1332 1.366 . S
C1333 C1337 1.385 . S
C1334 H1315 0.951 . S
C1334 C1332 1.388 . S
C1334 C1335 1.366 . S
C1335 C1334 1.366 . S
C1335 C1336 1.414 . S
C1335 C1338 1.499 . S
C1336 H1316 0.950 . S
C1336 C1335 1.414 . S
C1336 C1337 1.374 . S
C1337 H1317 0.950 . S
C1337 C1333 1.385 . S
C1337 C1336 1.374 . S
C1338 C1335 1.499 . S
C1338 C1339 1.373 . S
C1338 C1340 1.389 . S
C1339 H1318 0.950 . S
C1339 C1338 1.373 . S
C1339 C1355 1.377 . S
C1340 C1338 1.389 . S
C1340 C1341 1.524 . S
C1340 C1354 1.377 . S
C1341 C1340 1.524 . S
C1341 C1342 1.397 1_556 S
C1341 C1346 1.363 . S
C1342 H1319 0.950 1_554 S
C1342 C1341 1.397 1_554 S
C1342 C1343 1.334 . S
C1343 H1320 0.950 . S
C1343 C1342 1.334 . S
C1343 C1344 1.287 . S
C1344 C1343 1.287 . S
C1344 C1345 1.524 . S
C1344 H1363 0.913 . S
C1345 H1321 0.950 . S
C1345 C1344 1.524 . S
C1345 C1346 1.415 1_554 S
C1346 H1322 0.950 . S
C1346 C1341 1.363 . S
C1346 C1345 1.415 1_556 S
C1347 H1323 0.951 . S
C1347 C1348 1.366 . S
C1347 C1349 1.388 . S
C1348 C1347 1.366 . S
C1348 C1352 1.385 . S
C1349 H1324 0.951 . S
C1349 C1347 1.388 . S
C1349 C1350 1.366 . S
C1350 C1349 1.366 . S
C1350 C1351 1.414 . S
C1350 C1353 1.499 . S
C1351 H1325 0.950 . S
C1351 C1350 1.414 . S
C1351 C1352 1.374 . S
C1352 H1326 0.950 . S
C1352 C1348 1.385 . S
C1352 C1351 1.374 . S
C1353 C1350 1.499 . S
C1353 C1354 1.373 . S
C1353 C1355 1.389 . S
C1354 H1327 0.950 . S
C1354 C1340 1.377 . S
C1354 C1353 1.373 . S
C1355 C1339 1.377 . S
C1355 C1353 1.389 . S
C1355 C1356 1.524 . S
C1356 C1355 1.524 . S
C1356 C1357 1.397 . S
C1356 C1361 1.363 . S
C1357 H1328 0.950 . S
C1357 C1356 1.397 . S
C1357 C1358 1.334 . S
C1358 H1329 0.950 . S
C1358 C1357 1.334 . S
C1358 C1359 1.287 . S
C1359 C1358 1.287 . S
C1359 C1360 1.524 . S
C1359 H1362 0.999 . S
C1360 H1330 0.950 . S
C1360 C1359 1.524 . S
C1360 C1361 1.415 . S
C1361 H1331 0.950 . S
C1361 C1356 1.363 . S
C1361 C1360 1.415 . S
H1362 C1359 0.999 . S
H1363 C1344 0.913 . S
H1364 C1382 0.951 . S
H1365 C1384 0.955 . S
H1366 C1386 0.950 . S
H1367 C1387 0.950 . S
H1368 C1389 0.950 . S
H1369 C1392 0.950 . S
H1370 C1393 0.950 . S
H1371 C1395 0.950 . S
H1372 C1396 0.950 . S
H1373 C1397 0.951 . S
H1374 C1399 0.951 . S
H1375 C1401 0.950 . S
H1376 C1402 0.950 . S
H1377 C1404 0.950 . S
H1378 C1407 0.950 . S
H1379 C1408 0.950 . S
H1380 C1410 0.950 . S
H1381 C1411 0.950 . S
C1382 H1364 0.951 . S
C1382 C1383 1.342 1_655 S
C1382 C1384 1.385 1_554 S
C1383 C1382 1.342 1_455 S
C1383 C1387 1.410 . S
C1384 H1365 0.955 . S
C1384 C1382 1.385 1_556 S
C1384 C1385 1.364 1_656 S
C1385 C1384 1.364 1_454 S
C1385 C1386 1.414 . S
C1385 C1388 1.499 1_554 S
C1386 H1366 0.950 . S
C1386 C1385 1.414 . S
C1386 C1387 1.374 . S
C1387 H1367 0.950 . S
C1387 C1383 1.410 . S
C1387 C1386 1.374 . S
C1388 C1385 1.499 1_556 S
C1388 C1389 1.373 . S
C1388 C1390 1.389 1_455 S
C1389 H1368 0.950 . S
C1389 C1388 1.373 . S
C1389 C1405 1.377 . S
C1390 C1388 1.389 1_655 S
C1390 C1391 1.524 . S
C1390 C1404 1.377 . S
C1391 C1390 1.524 . S
C1391 C1392 1.397 1_556 S
C1391 C1396 1.363 . S
C1392 H1369 0.950 . S
C1392 C1391 1.397 1_554 S
C1392 C1393 1.334 . S
C1393 H1370 0.950 . S
C1393 C1392 1.334 . S
C1393 C1394 1.287 . S
C1394 C1393 1.287 . S
C1394 C1395 1.524 1_554 S
C1394 H1413 0.913 . S
C1395 H1371 0.950 . S
C1395 C1394 1.524 1_556 S
C1395 C1396 1.415 . S
C1396 H1372 0.950 . S
C1396 C1391 1.363 . S
C1396 C1395 1.415 . S
C1397 H1373 0.951 . S
C1397 C1398 1.366 . S
C1397 C1399 1.388 . S
C1398 C1397 1.366 . S
C1398 C1402 1.385 1_455 S
C1399 H1374 0.951 . S
C1399 C1397 1.388 . S
C1399 C1400 1.366 . S
C1400 C1399 1.366 . S
C1400 C1401 1.414 1_455 S
C1400 C1403 1.499 . S
C1401 H1375 0.950 . S
C1401 C1400 1.414 1_655 S
C1401 C1402 1.374 . S
C1402 H1376 0.950 . S
C1402 C1398 1.385 1_655 S
C1402 C1401 1.374 . S
C1403 C1400 1.499 . S
C1403 C1404 1.373 1_455 S
C1403 C1405 1.389 . S
C1404 H1377 0.950 . S
C1404 C1390 1.377 . S
C1404 C1403 1.373 1_655 S
C1405 C1389 1.377 . S
C1405 C1403 1.389 . S
C1405 C1406 1.524 . S
C1406 C1405 1.524 . S
C1406 C1407 1.397 . S
C1406 C1411 1.363 . S
C1407 H1378 0.950 . S
C1407 C1406 1.397 . S
C1407 C1408 1.334 . S
C1408 H1379 0.950 . S
C1408 C1407 1.334 . S
C1408 C1409 1.287 . S
C1409 C1408 1.287 . S
C1409 C1410 1.524 . S
C1409 H1412 0.999 . S
C1410 H1380 0.950 . S
C1410 C1409 1.524 . S
C1410 C1411 1.415 . S
C1411 H1381 0.950 . S
C1411 C1406 1.363 . S
C1411 C1410 1.415 . S
H1412 C1409 0.999 . S
H1413 C1394 0.913 . S
H1414 C1432 0.951 . S
H1415 C1434 0.951 . S
H1416 C1436 0.950 . S
H1417 C1437 0.950 . S
H1418 C1439 0.950 . S
H1419 C1442 0.950 . S
H1420 C1443 0.950 1_556 S
H1421 C1445 0.950 . S
H1422 C1446 0.950 . S
H1423 C1447 0.951 . S
H1424 C1449 0.951 . S
H1425 C1451 0.950 . S
H1426 C1452 0.950 . S
H1427 C1454 0.950 . S
H1428 C1457 0.950 . S
H1429 C1458 0.971 . S
H1430 C1460 0.950 . S
H1431 C1461 0.950 . S
C1432 H1414 0.951 . S
C1432 C1433 1.366 . S
C1432 C1434 1.388 . S
C1433 C1432 1.366 . S
C1433 C1437 1.385 . S
C1434 H1415 0.951 . S
C1434 C1432 1.388 . S
C1434 C1435 1.366 . S
C1435 C1434 1.366 . S
C1435 C1436 1.414 1_554 S
C1435 C1438 1.499 1_554 S
C1436 H1416 0.950 . S
C1436 C1435 1.414 1_556 S
C1436 C1437 1.374 1_556 S
C1437 H1417 0.950 . S
C1437 C1433 1.385 . S
C1437 C1436 1.374 1_554 S
C1438 C1435 1.499 1_556 S
C1438 C1439 1.373 . S
C1438 C1440 1.389 . S
C1439 H1418 0.950 . S
C1439 C1438 1.373 . S
C1439 C1455 1.377 . S
C1440 C1438 1.389 . S
C1440 C1441 1.524 1_556 S
C1440 C1454 1.377 . S
C1441 C1440 1.524 1_554 S
C1441 C1442 1.397 1_554 S
C1441 C1446 1.363 . S
C1442 H1419 0.950 . S
C1442 C1441 1.397 1_556 S
C1442 C1443 1.334 1_556 S
C1443 H1420 0.950 1_554 S
C1443 C1442 1.334 1_554 S
C1443 C1444 1.287 . S
C1444 C1443 1.287 . S
C1444 C1445 1.524 . S
C1444 H1463 0.913 . S
C1445 H1421 0.950 . S
C1445 C1444 1.524 . S
C1445 C1446 1.415 . S
C1446 H1422 0.950 . S
C1446 C1441 1.363 . S
C1446 C1445 1.415 . S
C1447 H1423 0.951 . S
C1447 C1448 1.366 . S
C1447 C1449 1.388 . S
C1448 C1447 1.366 . S
C1448 C1452 1.385 . S
C1449 H1424 0.951 . S
C1449 C1447 1.388 . S
C1449 C1450 1.366 . S
C1450 C1449 1.366 . S
C1450 C1451 1.414 . S
C1450 C1453 1.499 . S
C1451 H1425 0.950 . S
C1451 C1450 1.414 . S
C1451 C1452 1.374 . S
C1452 H1426 0.950 . S
C1452 C1448 1.385 . S
C1452 C1451 1.374 . S
C1453 C1450 1.499 . S
C1453 C1454 1.373 . S
C1453 C1455 1.389 . S
C1454 H1427 0.950 . S
C1454 C1440 1.377 . S
C1454 C1453 1.373 . S
C1455 C1439 1.377 . S
C1455 C1453 1.389 . S
C1455 C1456 1.524 . S
C1456 C1455 1.524 . S
C1456 C1457 1.397 . S
C1456 C1461 1.363 . S
C1457 H1428 0.950 . S
C1457 C1456 1.397 . S
C1457 C1458 1.306 1_545 S
C1458 H1429 0.971 . S
C1458 C1457 1.306 1_565 S
C1458 C1459 1.294 . S
C1459 C1458 1.294 . S
C1459 C1460 1.524 1_565 S
C1459 H1462 0.999 . S
C1460 H1430 0.950 . S
C1460 C1459 1.524 1_545 S
C1460 C1461 1.415 . S
C1461 H1431 0.950 . S
C1461 C1456 1.363 . S
C1461 C1460 1.415 . S
H1462 C1459 0.999 . S
H1463 C1444 0.913 . S
H1464 C1482 0.951 . S
H1465 C1484 0.951 . S
H1466 C1486 0.950 . S
H1467 C1487 0.950 . S
H1468 C1489 0.950 . S
H1469 C1492 0.950 . S
H1470 C1493 0.950 . S
H1471 C1495 0.950 . S
H1472 C1496 0.951 1_556 S
H1473 C1497 0.951 . S
H1474 C1499 0.951 . S
H1475 C1501 0.950 . S
H1476 C1502 0.950 . S
H1477 C1504 0.950 . S
H1478 C1507 0.950 . S
H1479 C1508 0.950 . S
H1480 C1510 0.950 . S
H1481 C1511 0.950 . S
C1482 H1464 0.951 . S
C1482 C1483 1.366 . S
C1482 C1484 1.388 . S
C1483 C1482 1.366 . S
C1483 C1487 1.385 . S
C1484 H1465 0.951 . S
C1484 C1482 1.388 . S
C1484 C1485 1.366 . S
C1485 C1484 1.366 . S
C1485 C1486 1.414 . S
C1485 C1488 1.499 1_554 S
C1486 H1466 0.950 . S
C1486 C1485 1.414 . S
C1486 C1487 1.374 . S
C1487 H1467 0.950 . S
C1487 C1483 1.385 . S
C1487 C1486 1.374 . S
C1488 C1485 1.499 1_556 S
C1488 C1489 1.373 . S
C1488 C1490 1.389 . S
C1489 H1468 0.950 . S
C1489 C1488 1.373 . S
C1489 C1505 1.377 . S
C1490 C1488 1.389 . S
C1490 C1491 1.524 1_556 S
C1490 C1504 1.377 . S
C1491 C1490 1.524 1_554 S
C1491 C1492 1.397 . S
C1491 C1496 1.363 . S
C1492 H1469 0.950 . S
C1492 C1491 1.397 . S
C1492 C1493 1.334 . S
C1493 H1470 0.950 . S
C1493 C1492 1.334 . S
C1493 C1494 1.287 . S
C1494 C1493 1.287 . S
C1494 C1495 1.524 . S
C1494 H1513 0.913 . S
C1495 H1471 0.950 . S
C1495 C1494 1.524 . S
C1495 C1496 1.415 . S
C1496 H1472 0.951 1_554 S
C1496 C1491 1.363 . S
C1496 C1495 1.415 . S
C1497 H1473 0.951 . S
C1497 C1498 1.366 . S
C1497 C1499 1.388 . S
C1498 C1497 1.366 . S
C1498 C1502 1.385 . S
C1499 H1474 0.951 . S
C1499 C1497 1.388 . S
C1499 C1500 1.366 . S
C1500 C1499 1.366 . S
C1500 C1501 1.414 . S
C1500 C1503 1.499 . S
C1501 H1475 0.950 . S
C1501 C1500 1.414 . S
C1501 C1502 1.374 . S
C1502 H1476 0.950 . S
C1502 C1498 1.385 . S
C1502 C1501 1.374 . S
C1503 C1500 1.499 . S
C1503 C1504 1.373 . S
C1503 C1505 1.389 . S
C1504 H1477 0.950 . S
C1504 C1490 1.377 . S
C1504 C1503 1.373 . S
C1505 C1489 1.377 . S
C1505 C1503 1.389 . S
C1505 C1506 1.524 . S
C1506 C1505 1.524 . S
C1506 C1507 1.397 . S
C1506 C1511 1.363 . S
C1507 H1478 0.950 . S
C1507 C1506 1.397 . S
C1507 C1508 1.334 . S
C1508 H1479 0.950 . S
C1508 C1507 1.334 . S
C1508 C1509 1.287 . S
C1509 C1508 1.287 . S
C1509 C1510 1.524 . S
C1509 H1512 0.999 . S
C1510 H1480 0.950 . S
C1510 C1509 1.524 . S
C1510 C1511 1.415 . S
C1511 H1481 0.950 . S
C1511 C1506 1.363 . S
C1511 C1510 1.415 . S
H1512 C1509 0.999 . S
H1513 C1494 0.913 . S
H1514 C1532 0.951 . S
H1515 C1534 0.951 . S
H1516 C1536 0.950 1_556 S
H1517 C1537 0.950 . S
H1518 C1539 0.950 . S
H1519 C1542 0.950 . S
H1520 C1543 0.950 . S
H1521 C1545 0.950 . S
H1522 C1546 0.950 . S
H1523 C1547 0.951 . S
H1524 C1549 0.951 . S
H1525 C1551 0.950 . S
H1526 C1552 0.950 . S
H1527 C1554 0.950 . S
H1528 C1557 0.950 . S
H1529 C1558 0.950 . S
H1530 C1560 0.950 . S
H1531 C1561 0.950 . S
C1532 H1514 0.951 . S
C1532 C1533 1.366 . S
C1532 C1534 1.388 . S
C1533 C1532 1.366 . S
C1533 C1537 1.385 . S
C1534 H1515 0.951 . S
C1534 C1532 1.388 . S
C1534 C1535 1.366 . S
C1535 C1534 1.366 . S
C1535 C1536 1.414 . S
C1535 C1538 1.499 1_554 S
C1536 H1516 0.950 1_554 S
C1536 C1535 1.414 . S
C1536 C1537 1.374 . S
C1537 H1517 0.950 . S
C1537 C1533 1.385 . S
C1537 C1536 1.374 . S
C1538 C1535 1.499 1_556 S
C1538 C1539 1.373 . S
C1538 C1540 1.389 1_556 S
C1539 H1518 0.950 . S
C1539 C1538 1.373 . S
C1539 C1555 1.377 . S
C1540 C1538 1.389 1_554 S
C1540 C1541 1.524 . S
C1540 C1554 1.377 1_554 S
C1541 C1540 1.524 . S
C1541 C1542 1.397 . S
C1541 C1546 1.363 . S
C1542 H1519 0.950 . S
C1542 C1541 1.397 . S
C1542 C1543 1.334 . S
C1543 H1520 0.950 . S
C1543 C1542 1.334 . S
C1543 C1544 1.287 . S
C1544 C1543 1.287 . S
C1544 C1545 1.524 . S
C1544 H1563 0.913 . S
C1545 H1521 0.950 . S
C1545 C1544 1.524 . S
C1545 C1546 1.415 . S
C1546 H1522 0.950 . S
C1546 C1541 1.363 . S
C1546 C1545 1.415 . S
C1547 H1523 0.951 . S
C1547 C1548 1.366 . S
C1547 C1549 1.388 . S
C1548 C1547 1.366 . S
C1548 C1552 1.385 . S
C1549 H1524 0.951 . S
C1549 C1547 1.388 . S
C1549 C1550 1.366 . S
C1550 C1549 1.366 . S
C1550 C1551 1.414 . S
C1550 C1553 1.499 . S
C1551 H1525 0.950 . S
C1551 C1550 1.414 . S
C1551 C1552 1.374 . S
C1552 H1526 0.950 . S
C1552 C1548 1.385 . S
C1552 C1551 1.374 . S
C1553 C1550 1.499 . S
C1553 C1554 1.373 . S
C1553 C1555 1.389 . S
C1554 H1527 0.950 . S
C1554 C1540 1.377 1_556 S
C1554 C1553 1.373 . S
C1555 C1539 1.377 . S
C1555 C1553 1.389 . S
C1555 C1556 1.524 . S
C1556 C1555 1.524 . S
C1556 C1557 1.397 . S
C1556 C1561 1.363 . S
C1557 H1528 0.950 . S
C1557 C1556 1.397 . S
C1557 C1558 1.334 . S
C1558 H1529 0.950 . S
C1558 C1557 1.334 . S
C1558 C1559 1.287 . S
C1559 C1558 1.287 . S
C1559 C1560 1.524 . S
C1559 H1562 0.999 . S
C1560 H1530 0.950 . S
C1560 C1559 1.524 . S
C1560 C1561 1.415 . S
C1561 H1531 0.950 . S
C1561 C1556 1.363 . S
C1561 C1560 1.415 . S
H1562 C1559 0.999 . S
H1563 C1544 0.913 . S
H1564 C1582 0.951 . S
H1565 C1584 0.951 . S
H1566 C1586 0.950 . S
H1567 C1587 0.950 . S
H1568 C1589 0.950 . S
H1569 C1592 0.950 . S
H1570 C1593 0.950 . S
H1571 C1595 0.950 . S
H1572 C1596 0.950 . S
H1573 C1597 0.951 . S
H1574 C1599 0.951 . S
H1575 C1601 0.950 . S
H1576 C1602 0.950 . S
H1577 C1604 0.950 . S
H1578 C1607 0.950 . S
H1579 C1608 0.950 . S
H1580 C1610 0.950 . S
H1581 C1611 0.950 1_655 S
C1582 H1564 0.951 . S
C1582 C1583 1.350 1_455 S
C1582 C1584 1.388 . S
C1583 C1582 1.350 1_655 S
C1583 C1587 1.403 . S
C1584 H1565 0.951 . S
C1584 C1582 1.388 . S
C1584 C1585 1.366 1_455 S
C1585 C1584 1.366 1_655 S
C1585 C1586 1.414 . S
C1585 C1588 1.499 . S
C1586 H1566 0.950 . S
C1586 C1585 1.414 . S
C1586 C1587 1.374 . S
C1587 H1567 0.950 . S
C1587 C1583 1.403 . S
C1587 C1586 1.374 . S
C1588 C1585 1.499 . S
C1588 C1589 1.373 1_655 S
C1588 C1590 1.389 . S
C1589 H1568 0.950 . S
C1589 C1588 1.373 1_455 S
C1589 C1605 1.377 . S
C1590 C1588 1.389 . S
C1590 C1591 1.524 . S
C1590 C1604 1.377 . S
C1591 C1590 1.524 . S
C1591 C1592 1.397 . S
C1591 C1596 1.363 . S
C1592 H1569 0.950 . S
C1592 C1591 1.397 . S
C1592 C1593 1.334 . S
C1593 H1570 0.950 . S
C1593 C1592 1.334 . S
C1593 C1594 1.287 . S
C1594 C1593 1.287 . S
C1594 C1595 1.524 . S
C1594 H1613 0.913 . S
C1595 H1571 0.950 . S
C1595 C1594 1.524 . S
C1595 C1596 1.415 . S
C1596 H1572 0.950 . S
C1596 C1591 1.363 . S
C1596 C1595 1.415 . S
C1597 H1573 0.951 . S
C1597 C1598 1.366 . S
C1597 C1599 1.388 . S
C1598 C1597 1.366 . S
C1598 C1602 1.385 1_655 S
C1599 H1574 0.951 . S
C1599 C1597 1.388 . S
C1599 C1600 1.366 . S
C1600 C1599 1.366 . S
C1600 C1601 1.414 1_655 S
C1600 C1603 1.499 . S
C1601 H1575 0.950 . S
C1601 C1600 1.414 1_455 S
C1601 C1602 1.374 . S
C1602 H1576 0.950 . S
C1602 C1598 1.385 1_455 S
C1602 C1601 1.374 . S
C1603 C1600 1.499 . S
C1603 C1604 1.373 . S
C1603 C1605 1.389 1_655 S
C1604 H1577 0.950 . S
C1604 C1590 1.377 . S
C1604 C1603 1.373 . S
C1605 C1589 1.377 . S
C1605 C1603 1.389 1_455 S
C1605 C1606 1.524 . S
C1606 C1605 1.524 . S
C1606 C1607 1.397 . S
C1606 C1611 1.363 . S
C1607 H1578 0.950 . S
C1607 C1606 1.397 . S
C1607 C1608 1.334 . S
C1608 H1579 0.950 . S
C1608 C1607 1.334 . S
C1608 C1609 1.287 . S
C1609 C1608 1.287 . S
C1609 C1610 1.524 . S
C1609 H1612 0.999 . S
C1610 H1580 0.950 . S
C1610 C1609 1.524 . S
C1610 C1611 1.415 . S
C1611 H1581 0.950 1_455 S
C1611 C1606 1.363 . S
C1611 C1610 1.415 . S
H1612 C1609 0.999 . S
H1613 C1594 0.913 . S
H1614 C1632 0.951 . S
H1615 C1634 0.951 . S
H1616 C1636 0.950 . S
H1617 C1637 0.950 . S
H1618 C1639 0.950 . S
H1619 C1642 0.950 . S
H1620 C1643 0.950 . S
H1621 C1645 0.950 . S
H1622 C1646 0.950 . S
H1623 C1647 0.951 . S
H1624 C1649 0.951 . S
H1625 C1651 0.950 . S
H1626 C1652 0.950 . S
H1627 C1654 0.950 . S
H1628 C1657 0.950 . S
H1629 C1658 0.950 . S
H1630 C1660 0.950 . S
H1631 C1661 0.950 . S
C1632 H1614 0.951 . S
C1632 C1633 1.366 . S
C1632 C1634 1.388 . S
C1633 C1632 1.366 . S
C1633 C1637 1.385 . S
C1634 H1615 0.951 . S
C1634 C1632 1.388 . S
C1634 C1635 1.366 . S
C1635 C1634 1.366 . S
C1635 C1636 1.414 . S
C1635 C1638 1.499 . S
C1636 H1616 0.950 . S
C1636 C1635 1.414 . S
C1636 C1637 1.374 . S
C1637 H1617 0.950 . S
C1637 C1633 1.385 . S
C1637 C1636 1.374 . S
C1638 C1635 1.499 . S
C1638 C1639 1.373 . S
C1638 C1640 1.389 . S
C1639 H1618 0.950 . S
C1639 C1638 1.373 . S
C1639 C1655 1.377 . S
C1640 C1638 1.389 . S
C1640 C1641 1.524 . S
C1640 C1654 1.377 . S
C1641 C1640 1.524 . S
C1641 C1642 1.397 . S
C1641 C1646 1.363 . S
C1642 H1619 0.950 . S
C1642 C1641 1.397 . S
C1642 C1643 1.334 . S
C1643 H1620 0.950 . S
C1643 C1642 1.334 . S
C1643 C1644 1.287 . S
C1644 C1643 1.287 . S
C1644 C1645 1.524 . S
C1644 H1663 0.913 . S
C1645 H1621 0.950 . S
C1645 C1644 1.524 . S
C1645 C1646 1.415 . S
C1646 H1622 0.950 . S
C1646 C1641 1.363 . S
C1646 C1645 1.415 . S
C1647 H1623 0.951 . S
C1647 C1648 1.366 . S
C1647 C1649 1.388 . S
C1648 C1647 1.366 . S
C1648 C1652 1.385 . S
C1649 H1624 0.951 . S
C1649 C1647 1.388 . S
C1649 C1650 1.366 . S
C1650 C1649 1.366 . S
C1650 C1651 1.414 . S
C1650 C1653 1.499 . S
C1651 H1625 0.950 . S
C1651 C1650 1.414 . S
C1651 C1652 1.374 . S
C1652 H1626 0.950 . S
C1652 C1648 1.385 . S
C1652 C1651 1.374 . S
C1653 C1650 1.499 . S
C1653 C1654 1.373 . S
C1653 C1655 1.389 . S
C1654 H1627 0.950 . S
C1654 C1640 1.377 . S
C1654 C1653 1.373 . S
C1655 C1639 1.377 . S
C1655 C1653 1.389 . S
C1655 C1656 1.524 . S
C1656 C1655 1.524 . S
C1656 C1657 1.397 . S
C1656 C1661 1.363 . S
C1657 H1628 0.950 . S
C1657 C1656 1.397 . S
C1657 C1658 1.334 1_565 S
C1658 H1629 0.950 . S
C1658 C1657 1.334 1_545 S
C1658 C1659 1.287 . S
C1659 C1658 1.287 . S
C1659 C1660 1.524 1_545 S
C1659 H1662 0.999 . S
C1660 H1630 0.950 . S
C1660 C1659 1.524 1_565 S
C1660 C1661 1.415 . S
C1661 H1631 0.950 . S
C1661 C1656 1.363 . S
C1661 C1660 1.415 . S
H1662 C1659 0.999 . S
H1663 C1644 0.913 . S
H1664 C1682 0.951 . S
H1665 C1684 0.951 . S
H1666 C1686 0.950 . S
H1667 C1687 0.950 . S
H1668 C1689 0.950 . S
H1669 C1692 0.950 . S
H1670 C1693 0.950 . S
H1671 C1695 0.950 . S
H1672 C1696 0.950 . S
H1673 C1697 0.951 . S
H1674 C1699 0.951 . S
H1675 C1701 0.950 . S
H1676 C1702 0.950 . S
H1677 C1704 0.950 . S
H1678 C1707 0.950 . S
H1679 C1708 0.950 . S
H1680 C1710 0.950 . S
H1681 C1711 0.950 . S
C1682 H1664 0.951 . S
C1682 C1683 1.366 . S
C1682 C1684 1.388 . S
C1683 C1682 1.366 . S
C1683 C1687 1.385 . S
C1684 H1665 0.951 . S
C1684 C1682 1.388 . S
C1684 C1685 1.366 . S
C1685 C1684 1.366 . S
C1685 C1686 1.414 . S
C1685 C1688 1.499 . S
C1686 H1666 0.950 . S
C1686 C1685 1.414 . S
C1686 C1687 1.374 . S
C1687 H1667 0.950 . S
C1687 C1683 1.385 . S
C1687 C1686 1.374 . S
C1688 C1685 1.499 . S
C1688 C1689 1.373 . S
C1688 C1690 1.389 . S
C1689 H1668 0.950 . S
C1689 C1688 1.373 . S
C1689 C1705 1.377 . S
C1690 C1688 1.389 . S
C1690 C1691 1.524 . S
C1690 C1704 1.377 . S
C1691 C1690 1.524 . S
C1691 C1692 1.397 . S
C1691 C1696 1.363 . S
C1692 H1669 0.950 . S
C1692 C1691 1.397 . S
C1692 C1693 1.334 . S
C1693 H1670 0.950 . S
C1693 C1692 1.334 . S
C1693 C1694 1.287 . S
C1694 C1693 1.287 . S
C1694 C1695 1.524 . S
C1694 H1713 0.913 . S
C1695 H1671 0.950 . S
C1695 C1694 1.524 . S
C1695 C1696 1.415 . S
C1696 H1672 0.950 . S
C1696 C1691 1.363 . S
C1696 C1695 1.415 . S
C1697 H1673 0.951 . S
C1697 C1698 1.366 . S
C1697 C1699 1.388 . S
C1698 C1697 1.366 . S
C1698 C1702 1.385 . S
C1699 H1674 0.951 . S
C1699 C1697 1.388 . S
C1699 C1700 1.366 . S
C1700 C1699 1.366 . S
C1700 C1701 1.414 . S
C1700 C1703 1.499 . S
C1701 H1675 0.950 . S
C1701 C1700 1.414 . S
C1701 C1702 1.374 . S
C1702 H1676 0.950 . S
C1702 C1698 1.385 . S
C1702 C1701 1.374 . S
C1703 C1700 1.499 . S
C1703 C1704 1.373 . S
C1703 C1705 1.389 . S
C1704 H1677 0.950 . S
C1704 C1690 1.377 . S
C1704 C1703 1.373 . S
C1705 C1689 1.377 . S
C1705 C1703 1.389 . S
C1705 C1706 1.524 . S
C1706 C1705 1.524 . S
C1706 C1707 1.397 . S
C1706 C1711 1.363 . S
C1707 H1678 0.950 . S
C1707 C1706 1.397 . S
C1707 C1708 1.334 . S
C1708 H1679 0.950 . S
C1708 C1707 1.334 . S
C1708 C1709 1.287 . S
C1709 C1708 1.287 . S
C1709 C1710 1.524 . S
C1709 H1712 0.999 . S
C1710 H1680 0.950 . S
C1710 C1709 1.524 . S
C1710 C1711 1.415 . S
C1711 H1681 0.950 . S
C1711 C1706 1.363 . S
C1711 C1710 1.415 . S
H1712 C1709 0.999 . S
H1713 C1694 0.913 . S
H1714 C1732 0.951 . S
H1715 C1734 0.951 . S
H1716 C1736 0.950 . S
H1717 C1737 0.950 . S
H1718 C1739 0.950 . S
H1719 C1742 0.950 . S
H1720 C1743 0.950 . S
H1721 C1745 0.950 . S
H1722 C1746 0.950 . S
H1723 C1747 0.951 . S
H1724 C1749 0.951 . S
H1725 C1751 0.950 . S
H1726 C1752 0.950 . S
H1727 C1754 0.950 . S
H1728 C1757 0.950 . S
H1729 C1758 0.950 . S
H1730 C1760 0.950 . S
H1731 C1761 0.950 . S
C1732 H1714 0.951 . S
C1732 C1733 1.366 . S
C1732 C1734 1.388 . S
C1733 C1732 1.366 . S
C1733 C1737 1.385 . S
C1734 H1715 0.951 . S
C1734 C1732 1.388 . S
C1734 C1735 1.366 . S
C1735 C1734 1.366 . S
C1735 C1736 1.414 . S
C1735 C1738 1.499 . S
C1736 H1716 0.950 . S
C1736 C1735 1.414 . S
C1736 C1737 1.374 . S
C1737 H1717 0.950 . S
C1737 C1733 1.385 . S
C1737 C1736 1.374 . S
C1738 C1735 1.499 . S
C1738 C1739 1.373 . S
C1738 C1740 1.389 . S
C1739 H1718 0.950 . S
C1739 C1738 1.373 . S
C1739 C1755 1.377 . S
C1740 C1738 1.389 . S
C1740 C1741 1.524 . S
C1740 C1754 1.377 . S
C1741 C1740 1.524 . S
C1741 C1742 1.397 . S
C1741 C1746 1.363 . S
C1742 H1719 0.950 . S
C1742 C1741 1.397 . S
C1742 C1743 1.334 . S
C1743 H1720 0.950 . S
C1743 C1742 1.334 . S
C1743 C1744 1.287 . S
C1744 C1743 1.287 . S
C1744 C1745 1.524 . S
C1744 H1763 0.913 . S
C1745 H1721 0.950 . S
C1745 C1744 1.524 . S
C1745 C1746 1.415 . S
C1746 H1722 0.950 . S
C1746 C1741 1.363 . S
C1746 C1745 1.415 . S
C1747 H1723 0.951 . S
C1747 C1748 1.366 . S
C1747 C1749 1.388 . S
C1748 C1747 1.366 . S
C1748 C1752 1.385 . S
C1749 H1724 0.951 . S
C1749 C1747 1.388 . S
C1749 C1750 1.366 . S
C1750 C1749 1.366 . S
C1750 C1751 1.414 . S
C1750 C1753 1.499 . S
C1751 H1725 0.950 . S
C1751 C1750 1.414 . S
C1751 C1752 1.374 . S
C1752 H1726 0.950 . S
C1752 C1748 1.385 . S
C1752 C1751 1.374 . S
C1753 C1750 1.499 . S
C1753 C1754 1.373 . S
C1753 C1755 1.389 . S
C1754 H1727 0.950 . S
C1754 C1740 1.377 . S
C1754 C1753 1.373 . S
C1755 C1739 1.377 . S
C1755 C1753 1.389 . S
C1755 C1756 1.524 . S
C1756 C1755 1.524 . S
C1756 C1757 1.397 . S
C1756 C1761 1.363 . S
C1757 H1728 0.950 . S
C1757 C1756 1.397 . S
C1757 C1758 1.334 . S
C1758 H1729 0.950 . S
C1758 C1757 1.334 . S
C1758 C1759 1.287 . S
C1759 C1758 1.287 . S
C1759 C1760 1.524 . S
C1759 H1762 0.999 . S
C1760 H1730 0.950 . S
C1760 C1759 1.524 . S
C1760 C1761 1.415 . S
C1761 H1731 0.950 . S
C1761 C1756 1.363 . S
C1761 C1760 1.415 . S
H1762 C1759 0.999 . S
H1763 C1744 0.913 . S
C583 C391 1.980 . S
C598 C496 1.812 . S
C648 C514 1.308 . S
C633 C451 1.516 . S
C698 C535 1.787 . S
C683 C241 1.763 . S
C748 C559 1.334 . S
C733 C331 1.418 . S
C798 C493 1.715 1_565 S
C783 C121 1.767 . S
C833 C211 1.405 . S
C848 C517 1.215 . S
C883 C31 1.774 . S
C898 C538 1.689 . S
C933 C91 1.320 1_455 S
C948 C556 1.242 . S
C998 C498 0.504 . S
C983 C301 0.683 1_455 S
C1048 C516 0.421 . S
C1033 C380 0.374 . S
C1098 C537 0.495 . S
C1083 C440 0.255 . S
C1133 C260 0.700 . S
C1148 C561 0.421 . S
C1183 C61 0.550 . S
C1198 C497 0.329 . S
C1248 C515 0.375 . S
C1233 C140 0.519 . S
C1298 C536 0.328 . S
C1283 C200 0.162 . S
C1333 C20 0.558 . S
C1348 C560 0.364 . S
C1383 C320 1.889 1_455 S
C1398 C494 1.822 . S
C1433 C361 2.000 . S
C1448 C518 2.114 . S
C1498 C539 1.788 . S
C1483 C421 1.657 . S
C1548 C557 2.144 . S
C1533 C271 2.142 . S
C1583 C80 1.748 . S
C1598 C495 1.679 . S
C1648 C519 1.958 . S
C1633 C151 2.040 . S
C1698 C540 1.640 . S
C1683 C181 1.535 . S
C1733 C1 1.809 . S
C1748 C558 1.986 . S
