# Generated by pormake.
# Topology apo, (3,6)-cn, num edge types: 1
# Building blocks:
#     Node 0, Type 0, BuildingBlock: BELTOD_clean_linker_0, # of connection points: 3
#     Node 1, Type 0, BuildingBlock: BELTOD_clean_linker_0, # of connection points: 3
#     Node 2, Type 0, BuildingBlock: BELTOD_clean_linker_0, # of connection points: 3
#     Node 3, Type 0, BuildingBlock: BELTOD_clean_linker_0, # of connection points: 3
#     Node 4, Type 0, BuildingBlock: BELTOD_clean_linker_0, # of connection points: 3
#     Node 5, Type 0, BuildingBlock: BELTOD_clean_linker_0, # of connection points: 3
#     Node 6, Type 0, BuildingBlock: BELTOD_clean_linker_0, # of connection points: 3
#     Node 7, Type 0, BuildingBlock: BELTOD_clean_linker_0, # of connection points: 3
#     Node 8, Type 1, BuildingBlock: KUMBUR_clean_sbu_1, # of connection points: 6
#     Node 9, Type 1, BuildingBlock: KUMBUR_clean_sbu_1, # of connection points: 6
#     Node 10, Type 1, BuildingBlock: KUMBUR_clean_sbu_1, # of connection points: 6
#     Node 11, Type 1, BuildingBlock: KUMBUR_clean_sbu_1, # of connection points: 6
#     Edge 12, Type (0, 1), BuildingBlock: CIFDUS_clean_linker_0, # of connection points: 2
#     Edge 13, Type (0, 1), BuildingBlock: CIFDUS_clean_linker_0, # of connection points: 2
#     Edge 14, Type (0, 1), BuildingBlock: CIFDUS_clean_linker_0, # of connection points: 2
#     Edge 15, Type (0, 1), BuildingBlock: CIFDUS_clean_linker_0, # of connection points: 2
#     Edge 16, Type (0, 1), BuildingBlock: CIFDUS_clean_linker_0, # of connection points: 2
#     Edge 17, Type (0, 1), BuildingBlock: CIFDUS_clean_linker_0, # of connection points: 2
#     Edge 18, Type (0, 1), BuildingBlock: CIFDUS_clean_linker_0, # of connection points: 2
#     Edge 19, Type (0, 1), BuildingBlock: CIFDUS_clean_linker_0, # of connection points: 2
#     Edge 20, Type (0, 1), BuildingBlock: CIFDUS_clean_linker_0, # of connection points: 2
#     Edge 21, Type (0, 1), BuildingBlock: CIFDUS_clean_linker_0, # of connection points: 2
#     Edge 22, Type (0, 1), BuildingBlock: CIFDUS_clean_linker_0, # of connection points: 2
#     Edge 23, Type (0, 1), BuildingBlock: CIFDUS_clean_linker_0, # of connection points: 2
#     Edge 24, Type (0, 1), BuildingBlock: CIFDUS_clean_linker_0, # of connection points: 2
#     Edge 25, Type (0, 1), BuildingBlock: CIFDUS_clean_linker_0, # of connection points: 2
#     Edge 26, Type (0, 1), BuildingBlock: CIFDUS_clean_linker_0, # of connection points: 2
#     Edge 27, Type (0, 1), BuildingBlock: CIFDUS_clean_linker_0, # of connection points: 2
#     Edge 28, Type (0, 1), BuildingBlock: CIFDUS_clean_linker_0, # of connection points: 2
#     Edge 29, Type (0, 1), BuildingBlock: CIFDUS_clean_linker_0, # of connection points: 2
#     Edge 30, Type (0, 1), BuildingBlock: CIFDUS_clean_linker_0, # of connection points: 2
#     Edge 31, Type (0, 1), BuildingBlock: CIFDUS_clean_linker_0, # of connection points: 2
#     Edge 32, Type (0, 1), BuildingBlock: CIFDUS_clean_linker_0, # of connection points: 2
#     Edge 33, Type (0, 1), BuildingBlock: CIFDUS_clean_linker_0, # of connection points: 2
#     Edge 34, Type (0, 1), BuildingBlock: CIFDUS_clean_linker_0, # of connection points: 2
#     Edge 35, Type (0, 1), BuildingBlock: CIFDUS_clean_linker_0, # of connection points: 2
# Relax obj value: 0.008
# Max RMSD: 0.118
# Mean RMSD: 0.086
data_MOF--net-apo--node1-KUMBUR_clean_sbu_1--node2-BELTOD_clean_linker_0--edge1-CIFDUS_clean_linker_0
_symmetry_space_group_name_H-M    P1
_symmetry_Int_Tables_number       1
_symmetry_cell_setting            triclinic
loop_
_symmetry_equiv_pos_as_xyz
'x, y, z'
_cell_length_a     24.611476
_cell_length_b     42.975145
_cell_length_c     54.196957
_cell_angle_alpha  89.579413
_cell_angle_beta   90.022751
_cell_angle_gamma 90.264249
loop_
_atom_site_label
_atom_site_type_symbol
_atom_site_fract_x
_atom_site_fract_y
_atom_site_fract_z
_atom_type_partial_charge
P0 P 0.34839 0.35313 0.40188 0.0
H1 H 0.33953 0.30322 0.4382 0.0
H2 H 0.33308 0.30314 0.48337 0.0
H3 H 0.32038 0.40331 0.48234 0.0
H4 H 0.32561 0.40329 0.43743 0.0
H5 H 0.35522 0.32905 0.35238 0.0
H6 H 0.29359 0.29861 0.32674 0.0
H7 H 0.1746 0.29843 0.38536 0.0
H8 H 0.23714 0.32887 0.4111 0.0
H9 H 0.42767 0.40175 0.41124 0.0
H10 H 0.28399 0.39054 0.36648 0.0
O11 O 0.40891 0.33626 0.39887 0.0
H12 H 0.44182 0.45382 0.3938 0.0
H13 H 0.29854 0.44242 0.34866 0.0
C14 C 0.33341 0.35319 0.43442 0.0
C15 C 0.33439 0.32509 0.4477 0.0
C16 C 0.33092 0.32508 0.47346 0.0
C17 C 0.3271 0.35326 0.48632 0.0
C18 C 0.32437 0.3813 0.4729 0.0
C19 C 0.3271 0.38125 0.44715 0.0
C20 C 0.30107 0.33082 0.38371 0.0
C21 C 0.31592 0.32238 0.35975 0.0
C22 C 0.28044 0.30518 0.34503 0.0
C23 C 0.22911 0.29608 0.35397 0.0
C24 C 0.2141 0.30478 0.37804 0.0
C25 C 0.24972 0.32222 0.39275 0.0
C26 C 0.35531 0.39214 0.38992 0.0
C27 C 0.39907 0.41058 0.39773 0.0
C28 C 0.40688 0.44037 0.38791 0.0
C29 C 0.37135 0.45207 0.36984 0.0
C30 C 0.32675 0.43382 0.36244 0.0
C31 C 0.3185 0.40415 0.37257 0.0
P32 P 0.29415 0.10107 0.91289 0.0
H33 H 0.31238 0.08237 0.8624 0.0
H34 H 0.26377 0.04759 0.83455 0.0
H35 H 0.14052 0.0326 0.8902 0.0
H36 H 0.18972 0.06736 0.9181 0.0
H37 H 0.39307 0.13789 0.91784 0.0
H38 H 0.43049 0.18153 0.89415 0.0
H39 H 0.28345 0.18523 0.85064 0.0
H40 H 0.24584 0.14179 0.87483 0.0
H41 H 0.2858 0.06682 0.95915 0.0
H42 H 0.22499 0.15293 0.92892 0.0
O43 O 0.34903 0.08011 0.91986 0.0
H44 H 0.24742 0.07948 0.99923 0.0
H45 H 0.18454 0.16544 0.96889 0.0
C46 C 0.25422 0.07787 0.89212 0.0
C47 C 0.27447 0.07196 0.86848 0.0
C48 C 0.24663 0.0521 0.85257 0.0
C49 C 0.19818 0.03746 0.86014 0.0
C50 C 0.17793 0.04341 0.88391 0.0
C51 C 0.20579 0.06347 0.89981 0.0
C52 C 0.31734 0.13612 0.89765 0.0
C53 C 0.36869 0.14825 0.90334 0.0
C54 C 0.39014 0.17311 0.88969 0.0
C55 C 0.36041 0.18646 0.87017 0.0
C56 C 0.30744 0.17545 0.86552 0.0
C57 C 0.28601 0.15051 0.87923 0.0
C58 C 0.25951 0.10935 0.94132 0.0
C59 C 0.2636 0.08836 0.96112 0.0
C60 C 0.24101 0.09549 0.984 0.0
C61 C 0.21324 0.12367 0.98745 0.0
C62 C 0.20663 0.14385 0.96706 0.0
C63 C 0.22955 0.13671 0.94416 0.0
P64 P 0.8497 0.14589 0.61172 0.0
H65 H 0.92691 0.16385 0.57342 0.0
H66 H 0.92251 0.16499 0.52873 0.0
H67 H 0.75859 0.12863 0.53148 0.0
H68 H 0.76308 0.12805 0.57685 0.0
H69 H 0.85303 0.20982 0.62898 0.0
H70 H 0.78895 0.24135 0.65202 0.0
H71 H 0.66877 0.16812 0.64668 0.0
H72 H 0.73365 0.13642 0.62346 0.0
H73 H 0.89697 0.08801 0.5946 0.0
H74 H 0.80611 0.11894 0.65777 0.0
O75 O 0.91009 0.16062 0.6196 0.0
H76 H 0.9127 0.03817 0.61494 0.0
H77 H 0.8176 0.06847 0.67738 0.0
C78 C 0.84521 0.14602 0.57852 0.0
C79 C 0.88992 0.15606 0.56456 0.0
C80 C 0.88752 0.15643 0.53887 0.0
C81 C 0.84037 0.14662 0.52644 0.0
C82 C 0.79541 0.13648 0.54049 0.0
C83 C 0.79793 0.13608 0.56637 0.0
C84 C 0.79858 0.17045 0.62511 0.0
C85 C 0.81277 0.20057 0.63253 0.0
C86 C 0.77595 0.21869 0.64561 0.0
C87 C 0.72406 0.20705 0.65145 0.0
C88 C 0.70884 0.17745 0.64281 0.0
C89 C 0.7457 0.15942 0.62946 0.0
C90 C 0.84894 0.10697 0.62425 0.0
C91 C 0.8785 0.08363 0.61244 0.0
C92 C 0.88737 0.055 0.62415 0.0
C93 C 0.86654 0.04904 0.64795 0.0
C94 C 0.83518 0.07222 0.6593 0.0
C95 C 0.82743 0.10105 0.64778 0.0
P96 P 0.78173 0.40089 0.10261 0.0
H97 H 0.79386 0.42886 0.15069 0.0
H98 H 0.74053 0.46708 0.17309 0.0
H99 H 0.61664 0.46308 0.11659 0.0
H100 H 0.67106 0.42543 0.09398 0.0
H101 H 0.88551 0.37341 0.11655 0.0
H102 H 0.90994 0.32728 0.14039 0.0
H103 H 0.74027 0.30326 0.14802 0.0
H104 H 0.71555 0.35045 0.12461 0.0
H105 H 0.78684 0.43967 0.05906 0.0
H106 H 0.71702 0.35069 0.07878 0.0
O107 O 0.8389 0.42164 0.09959 0.0
H108 H 0.7511 0.43482 0.01753 0.0
H109 H 0.67919 0.34604 0.03708 0.0
C110 C 0.73663 0.42439 0.12068 0.0
C111 C 0.75482 0.43588 0.14333 0.0
C112 C 0.72411 0.4577 0.15615 0.0
C113 C 0.67429 0.46836 0.1466 0.0
C114 C 0.65521 0.45581 0.12427 0.0
C115 C 0.68615 0.43402 0.11141 0.0
C116 C 0.79864 0.36537 0.11871 0.0
C117 C 0.85333 0.35835 0.12328 0.0
C118 C 0.86737 0.332 0.137 0.0
C119 C 0.827 0.31183 0.14611 0.0
C120 C 0.77215 0.31843 0.14109 0.0
C121 C 0.75804 0.34526 0.1277 0.0
C122 C 0.7556 0.39531 0.0719 0.0
C123 C 0.76389 0.41897 0.05441 0.0
C124 C 0.7427 0.41634 0.0307 0.0
C125 C 0.71176 0.39016 0.02397 0.0
C126 C 0.70318 0.3664 0.04161 0.0
C127 C 0.72474 0.36905 0.06548 0.0
P128 P 0.78803 0.60963 0.60301 0.0
H129 H 0.84133 0.62792 0.55781 0.0
H130 H 0.81054 0.63505 0.51555 0.0
H131 H 0.64508 0.61737 0.53863 0.0
H132 H 0.67676 0.61008 0.58132 0.0
H133 H 0.88745 0.64533 0.61074 0.0
H134 H 0.90846 0.69079 0.63553 0.0
H135 H 0.73886 0.69924 0.65486 0.0
H136 H 0.71787 0.6536 0.62939 0.0
H137 H 0.71509 0.55678 0.5924 0.0
H138 H 0.78025 0.60292 0.65641 0.0
O139 O 0.8473 0.59161 0.5991 0.0
H140 H 0.67406 0.51697 0.61915 0.0
H141 H 0.73975 0.5633 0.68307 0.0
C142 C 0.76163 0.61751 0.57256 0.0
C143 C 0.79834 0.62567 0.55386 0.0
C144 C 0.78053 0.63007 0.52966 0.0
C145 C 0.72527 0.6267 0.52358 0.0
C146 C 0.68802 0.61972 0.54262 0.0
C147 C 0.70604 0.6155 0.56701 0.0
C148 C 0.80128 0.64572 0.61867 0.0
C149 C 0.85462 0.657 0.62014 0.0
C150 C 0.86664 0.68294 0.63449 0.0
C151 C 0.82552 0.69823 0.64765 0.0
C152 C 0.77147 0.68791 0.64503 0.0
C153 C 0.75944 0.66184 0.63055 0.0
C154 C 0.74869 0.58373 0.62239 0.0
C155 C 0.71903 0.55901 0.61219 0.0
C156 C 0.69599 0.5361 0.6275 0.0
C157 C 0.70361 0.53705 0.65323 0.0
C158 C 0.7333 0.56185 0.66333 0.0
C159 C 0.75578 0.58483 0.64807 0.0
P160 P 0.83795 0.85814 0.1108 0.0
H161 H 0.85791 0.86595 0.16271 0.0
H162 H 0.87759 0.91138 0.18792 0.0
H163 H 0.84212 0.9716 0.12595 0.0
H164 H 0.82174 0.92579 0.10065 0.0
H165 H 0.86268 0.7979 0.133 0.0
H166 H 0.80946 0.76031 0.15605 0.0
H167 H 0.66531 0.81563 0.14398 0.0
H168 H 0.72055 0.85454 0.12188 0.0
H169 H 0.89556 0.8939 0.07368 0.0
H170 H 0.75071 0.83717 0.07676 0.0
O171 O 0.90163 0.84496 0.11126 0.0
H172 H 0.8849 0.89971 0.02911 0.0
H173 H 0.74005 0.84262 0.03206 0.0
C174 C 0.83873 0.89239 0.12978 0.0
C175 C 0.85298 0.8889 0.15465 0.0
C176 C 0.86451 0.91488 0.16901 0.0
C177 C 0.86206 0.94496 0.15878 0.0
C178 C 0.84423 0.94865 0.13428 0.0
C179 C 0.83286 0.92245 0.11979 0.0
C180 C 0.79553 0.82888 0.12534 0.0
C181 C 0.81958 0.80199 0.13505 0.0
C182 C 0.78874 0.78022 0.14821 0.0
C183 C 0.73263 0.78449 0.15177 0.0
C184 C 0.70842 0.81155 0.14186 0.0
C185 C 0.73976 0.83367 0.12893 0.0
C186 C 0.8236 0.86548 0.07864 0.0
C187 C 0.86101 0.88301 0.06478 0.0
C188 C 0.85527 0.88598 0.03924 0.0
C189 C 0.81192 0.87138 0.02696 0.0
C190 C 0.77371 0.85433 0.04098 0.0
C191 C 0.77965 0.85128 0.06661 0.0
P192 P 0.28401 0.90078 0.41213 0.0
H193 H 0.31524 0.90984 0.46351 0.0
H194 H 0.27116 0.89799 0.50244 0.0
H195 H 0.13866 0.85397 0.46311 0.0
H196 H 0.18093 0.86893 0.42409 0.0
H197 H 0.3851 0.89148 0.38549 0.0
H198 H 0.41641 0.85061 0.35804 0.0
H199 H 0.2714 0.79716 0.3738 0.0
H200 H 0.24004 0.83821 0.40125 0.0
H201 H 0.19404 0.94379 0.4212 0.0
H202 H 0.27784 0.90593 0.35836 0.0
O203 O 0.33553 0.92482 0.41846 0.0
H204 H 0.14028 0.97682 0.39355 0.0
H205 H 0.22577 0.93916 0.33091 0.0
C206 C 0.25167 0.89005 0.44083 0.0
C207 C 0.27658 0.89775 0.46322 0.0
C208 C 0.25142 0.89054 0.48564 0.0
C209 C 0.20121 0.87468 0.48624 0.0
C210 C 0.17678 0.86661 0.46361 0.0
C211 C 0.20141 0.87462 0.44115 0.0
C212 C 0.31069 0.86773 0.3959 0.0
C213 C 0.36049 0.87071 0.38353 0.0
C214 C 0.37807 0.84751 0.36757 0.0
C215 C 0.34616 0.82083 0.36366 0.0
C216 C 0.29699 0.81741 0.37661 0.0
C217 C 0.27914 0.84084 0.39243 0.0
C218 C 0.23901 0.92177 0.39187 0.0
C219 C 0.20024 0.94216 0.40147 0.0
C220 C 0.17 0.96129 0.38565 0.0
C221 C 0.1786 0.96059 0.35996 0.0
C222 C 0.21722 0.93988 0.3505 0.0
C223 C 0.24721 0.92079 0.36629 0.0
P224 P 0.34772 0.64165 0.90304 0.0
H225 H 0.40603 0.6258 0.85848 0.0
H226 H 0.42152 0.57691 0.83719 0.0
H227 H 0.31518 0.52954 0.88875 0.0
H228 H 0.29971 0.57896 0.91007 0.0
H229 H 0.33228 0.70839 0.90533 0.0
H230 H 0.26765 0.74388 0.88606 0.0
H231 H 0.18582 0.66595 0.85223 0.0
H232 H 0.25073 0.6303 0.87191 0.0
H233 H 0.38946 0.59383 0.93669 0.0
H234 H 0.29271 0.67707 0.94189 0.0
O235 O 0.40703 0.66019 0.89979 0.0
H236 H 0.39177 0.58989 0.98179 0.0
H237 H 0.29723 0.67385 0.9868 0.0
C238 C 0.35302 0.6058 0.88623 0.0
C239 C 0.38577 0.60496 0.86515 0.0
C240 C 0.39432 0.57699 0.85289 0.0
C241 C 0.36994 0.5493 0.86142 0.0
C242 C 0.33519 0.55043 0.88201 0.0
C243 C 0.32627 0.57862 0.89416 0.0
C244 C 0.29647 0.66675 0.89001 0.0
C245 C 0.30012 0.69886 0.89398 0.0
C246 C 0.26299 0.71913 0.88302 0.0
C247 C 0.22162 0.70773 0.86761 0.0
C248 C 0.21754 0.67542 0.86386 0.0
C249 C 0.25448 0.65504 0.87516 0.0
C250 C 0.33962 0.63527 0.93575 0.0
C251 C 0.3674 0.61075 0.94741 0.0
C252 C 0.36915 0.60861 0.97316 0.0
C253 C 0.34476 0.6316 0.98759 0.0
C254 C 0.31635 0.65587 0.97596 0.0
C255 C 0.31359 0.6576 0.95025 0.0
Tb256 Tb 0.05376 0.13561 0.23498 0.0
C257 C 0.81801 0.10538 0.26202 0.0
N258 N 0.84288 0.13362 0.2607 0.0
C259 C 0.76783 0.15435 0.23785 0.0
C260 C 0.76757 0.10021 0.25045 0.0
C261 C 0.81816 0.15827 0.24943 0.0
C262 C 0.74255 0.12515 0.23821 0.0
C263 C 0.82077 0.0515 0.27541 0.0
C264 C 0.8445 0.0814 0.27432 0.0
C265 C 0.77076 0.04606 0.26363 0.0
C266 C 0.74416 0.07036 0.25124 0.0
Tb267 Tb 0.92347 0.13778 0.28081 0.0
N268 N 0.89309 0.08751 0.28539 0.0
C269 C 0.84761 0.02808 0.28859 0.0
C270 C 0.9173 0.06522 0.29972 0.0
C271 C 0.89568 0.0351 0.30106 0.0
H272 H 0.83702 0.18099 0.24947 0.0
H273 H 0.91562 0.01746 0.31212 0.0
H274 H 0.13232 0.07803 0.25643 0.0
H275 H 0.10754 0.25266 0.20862 0.0
H276 H 0.95219 0.07045 0.31091 0.0
H277 H 0.83079 0.00478 0.28983 0.0
H278 H 0.05052 0.20501 0.20944 0.0
H279 H 0.74851 0.17385 0.22871 0.0
H280 H 0.75205 0.02319 0.26419 0.0
H281 H 0.70552 0.06584 0.24234 0.0
H282 H 0.21886 0.07316 0.27882 0.0
H283 H 0.7037 0.12214 0.22911 0.0
H284 H 0.19407 0.25411 0.23196 0.0
N285 N 0.13568 0.12755 0.25424 0.0
C286 C 0.16801 0.15303 0.25673 0.0
C287 C 0.20466 0.09589 0.27308 0.0
C288 C 0.21916 0.1512 0.26834 0.0
C289 C 0.15483 0.09886 0.26088 0.0
C290 C 0.23659 0.12227 0.27723 0.0
N291 N 0.10293 0.1807 0.23397 0.0
C292 C 0.08774 0.20577 0.21998 0.0
C293 C 0.18562 0.2069 0.24573 0.0
C294 C 0.15156 0.18048 0.24577 0.0
C295 C 0.16901 0.23332 0.23252 0.0
C296 C 0.12014 0.23261 0.21935 0.0
H297 H 0.27559 0.11984 0.2863 0.0
H298 H 0.29137 0.17708 0.27875 0.0
H299 H 0.26196 0.22592 0.25886 0.0
O300 O 0.0426 0.13883 0.19634 0.0
O301 O 0.0458 0.17482 0.26079 0.0
O302 O 0.00153 0.15476 0.29488 0.0
O303 O 0.10792 0.11234 0.21168 0.0
O304 O 0.9804 0.16058 0.22271 0.0
O305 O 0.93865 0.17936 0.2582 0.0
O306 O 0.88514 0.13173 0.3153 0.0
O307 O 0.91622 0.1196 0.2429 0.0
O308 O 0.99828 0.09626 0.23831 0.0
O309 O 0.8837 0.1759 0.29661 0.0
O310 O 0.99704 0.1154 0.29526 0.0
O311 O 0.04067 0.09626 0.26075 0.0
C312 C 0.03693 0.17393 0.28471 0.0
C313 C 0.12468 0.137 0.17361 0.0
C314 C 0.15714 0.14279 0.13117 0.0
C315 C 0.20041 0.16126 0.13986 0.0
C316 C 0.16864 0.15515 0.18171 0.0
C317 C 0.20588 0.16743 0.16492 0.0
C318 C 0.11908 0.13078 0.14827 0.0
C319 C 0.95091 0.18129 0.23455 0.0
C320 C 0.08639 0.12319 0.19157 0.0
C321 C 0.25213 0.17794 0.2697 0.0
C322 C 0.23546 0.20573 0.25833 0.0
C323 C 0.94632 0.09762 0.23341 0.0
C324 C 0.89431 0.17627 0.3401 0.0
C325 C 0.90362 0.17646 0.38497 0.0
C326 C 0.93773 0.20262 0.38313 0.0
C327 C 0.92875 0.2025 0.33875 0.0
C328 C 0.88145 0.16345 0.36343 0.0
C329 C 0.94996 0.21561 0.36016 0.0
C330 C 0.03348 0.09737 0.28483 0.0
C331 C 0.87454 0.16119 0.31729 0.0
H332 H 0.23108 0.17028 0.12736 0.0
H333 H 0.17511 0.1593 0.20106 0.0
H334 H 0.23977 0.18127 0.17142 0.0
H335 H 0.0855 0.1165 0.14196 0.0
H336 H 0.95528 0.21283 0.39955 0.0
H337 H 0.94007 0.21269 0.32114 0.0
H338 H 0.85577 0.14295 0.36477 0.0
H339 H 0.97666 0.23565 0.35891 0.0
Tb340 Tb 0.43331 0.36225 0.73132 0.0
C341 C 0.68245 0.37761 0.76318 0.0
N342 N 0.64799 0.35284 0.76322 0.0
C343 C 0.71924 0.32039 0.74771 0.0
C344 C 0.7364 0.37498 0.75477 0.0
C345 C 0.66647 0.32409 0.75677 0.0
C346 C 0.75421 0.34603 0.74642 0.0
C347 C 0.69963 0.43101 0.77515 0.0
C348 C 0.66464 0.40509 0.77336 0.0
C349 C 0.75289 0.42892 0.76603 0.0
C350 C 0.77125 0.40095 0.75586 0.0
Tb351 Tb 0.56296 0.36151 0.77883 0.0
N352 N 0.61287 0.40618 0.78186 0.0
C353 C 0.68003 0.45808 0.7862 0.0
C354 C 0.59439 0.43193 0.7938 0.0
C355 C 0.62728 0.45844 0.79574 0.0
H356 H 0.64099 0.30377 0.75908 0.0
H357 H 0.61212 0.47901 0.8048 0.0
H358 H 0.34227 0.40419 0.76052 0.0
H359 H 0.44208 0.23958 0.70805 0.0
H360 H 0.55429 0.43206 0.80178 0.0
H361 H 0.70554 0.47857 0.78785 0.0
H362 H 0.47435 0.2934 0.70752 0.0
H363 H 0.73324 0.29763 0.7422 0.0
H364 H 0.7804 0.44862 0.76708 0.0
H365 H 0.81279 0.39944 0.74938 0.0
H366 H 0.25165 0.39563 0.7792 0.0
H367 H 0.79537 0.343 0.73981 0.0
H368 H 0.35448 0.22618 0.7278 0.0
N369 N 0.352 0.35682 0.75051 0.0
C370 C 0.32958 0.32789 0.74972 0.0
C371 C 0.27326 0.37638 0.77107 0.0
C372 C 0.27817 0.32192 0.7602 0.0
C373 C 0.32461 0.38113 0.76062 0.0
C374 C 0.24994 0.34664 0.77089 0.0
N375 N 0.4096 0.31066 0.72965 0.0
C376 C 0.43802 0.28809 0.71767 0.0
C377 C 0.33856 0.27343 0.73922 0.0
C378 C 0.35975 0.30397 0.73942 0.0
C379 C 0.36929 0.24995 0.72833 0.0
C380 C 0.41894 0.25739 0.7173 0.0
H381 H 0.21029 0.34301 0.77913 0.0
H382 H 0.21771 0.28642 0.76805 0.0
H383 H 0.27044 0.24399 0.74964 0.0
O384 O 0.40193 0.3529 0.69584 0.0
O385 O 0.42487 0.34653 0.76985 0.0
O386 O 0.50608 0.32296 0.77455 0.0
O387 O 0.38538 0.39689 0.71428 0.0
O388 O 0.5095 0.34388 0.71681 0.0
O389 O 0.54957 0.32449 0.75183 0.0
O390 O 0.55261 0.36651 0.81744 0.0
O391 O 0.56433 0.39954 0.75109 0.0
O392 O 0.50586 0.387 0.71844 0.0
O393 O 0.60811 0.3332 0.80277 0.0
O394 O 0.48954 0.38785 0.78882 0.0
O395 O 0.44664 0.40451 0.75262 0.0
C396 C 0.45508 0.32558 0.78075 0.0
C397 C 0.34589 0.39014 0.67349 0.0
C398 C 0.32836 0.3911 0.62925 0.0
C399 C 0.28332 0.41029 0.63326 0.0
C400 C 0.30107 0.40963 0.67715 0.0
C401 C 0.26984 0.41951 0.6571 0.0
C402 C 0.35955 0.38086 0.64942 0.0
C403 C 0.54903 0.32876 0.72783 0.0
C404 C 0.3782 0.37983 0.69482 0.0
C405 C 0.25713 0.29151 0.76004 0.0
C406 C 0.28727 0.26733 0.74963 0.0
C407 C 0.54526 0.40359 0.72847 0.0
C408 C 0.63396 0.35677 0.83989 0.0
C409 C 0.66816 0.36257 0.8818 0.0
C410 C 0.71818 0.37293 0.87239 0.0
C411 C 0.68486 0.36663 0.83091 0.0
C412 C 0.62578 0.35465 0.86555 0.0
C413 C 0.72643 0.37491 0.84704 0.0
C414 C 0.46102 0.40832 0.77589 0.0
C415 C 0.59102 0.34676 0.82257 0.0
H416 H 0.259 0.41843 0.61786 0.0
H417 H 0.28994 0.41701 0.69553 0.0
H418 H 0.23521 0.43446 0.66004 0.0
H419 H 0.39447 0.36609 0.64635 0.0
H420 H 0.75111 0.37911 0.88473 0.0
H421 H 0.6932 0.36724 0.81144 0.0
H422 H 0.58716 0.34653 0.87281 0.0
H423 H 0.7654 0.38244 0.83986 0.0
Tb424 Tb 0.06848 0.86989 0.73323 0.0
C425 C 0.84059 0.82675 0.76256 0.0
N426 N 0.86254 0.85577 0.76157 0.0
C427 C 0.78553 0.87415 0.73872 0.0
C428 C 0.79126 0.81989 0.75055 0.0
C429 C 0.83494 0.87972 0.75071 0.0
C430 C 0.76388 0.84402 0.73838 0.0
C431 C 0.84807 0.77321 0.77624 0.0
C432 C 0.86873 0.80383 0.77521 0.0
C433 C 0.79953 0.76596 0.76381 0.0
C434 C 0.77112 0.78927 0.75104 0.0
Tb435 Tb 0.94314 0.86243 0.78156 0.0
N436 N 0.91576 0.81174 0.78685 0.0
C437 C 0.87636 0.75095 0.79005 0.0
C438 C 0.94132 0.79057 0.80173 0.0
C439 C 0.92272 0.7598 0.80315 0.0
H440 H 0.85081 0.90314 0.7513 0.0
H441 H 0.94375 0.74303 0.81464 0.0
H442 H 0.1568 0.81345 0.74792 0.0
H443 H 0.10429 0.99173 0.71621 0.0
H444 H 0.97524 0.79728 0.81309 0.0
H445 H 0.86191 0.72714 0.7913 0.0
H446 H 0.05381 0.94185 0.71377 0.0
H447 H 0.76413 0.89309 0.7298 0.0
H448 H 0.78326 0.74249 0.76424 0.0
H449 H 0.73352 0.78341 0.74173 0.0
H450 H 0.24561 0.80961 0.76848 0.0
H451 H 0.72579 0.83974 0.72895 0.0
H452 H 0.19237 0.99398 0.7383 0.0
N453 N 0.15314 0.86289 0.75014 0.0
C454 C 0.18228 0.88928 0.75423 0.0
C455 C 0.22786 0.83221 0.76501 0.0
C456 C 0.23455 0.88827 0.76484 0.0
C457 C 0.17667 0.83449 0.75393 0.0
C458 C 0.25655 0.85925 0.77093 0.0
N459 N 0.11153 0.91686 0.73519 0.0
C460 C 0.09185 0.94285 0.72366 0.0
C461 C 0.19161 0.94493 0.7478 0.0
C462 C 0.16129 0.91719 0.74594 0.0
C463 C 0.17028 0.97216 0.73733 0.0
C464 C 0.12052 0.971 0.72488 0.0
H465 H 0.29657 0.85743 0.77913 0.0
H466 H 0.30398 0.91582 0.77637 0.0
H467 H 0.2663 0.96551 0.7614 0.0
O468 O 0.05262 0.87987 0.69599 0.0
O469 O 0.05732 0.9052 0.76197 0.0
O470 O 0.02268 0.8777 0.79483 0.0
O471 O 0.12469 0.85523 0.70633 0.0
O472 O 0.9899 0.89064 0.72391 0.0
O473 O 0.9508 0.90616 0.76064 0.0
O474 O 0.90645 0.85554 0.81678 0.0
O475 O 0.936 0.84637 0.74316 0.0
O476 O 0.01985 0.82734 0.7331 0.0
O477 O 0.9067 0.90085 0.79835 0.0
O478 O 0.01957 0.83926 0.79224 0.0
O479 O 0.06453 0.82683 0.75577 0.0
C480 C 0.05135 0.90094 0.78583 0.0
C481 C 0.0872 0.84494 0.66708 0.0
C482 C 0.10246 0.83391 0.6236 0.0
C483 C 0.06482 0.80929 0.62515 0.0
C484 C 0.05021 0.82005 0.66844 0.0
C485 C 0.03922 0.80228 0.64754 0.0
C486 C 0.11372 0.85155 0.64474 0.0
C487 C 0.96106 0.91031 0.73695 0.0
C488 C 0.09565 0.86571 0.68812 0.0
C489 C 0.26395 0.91608 0.76804 0.0
C490 C 0.24257 0.94437 0.75947 0.0
C491 C 0.96662 0.82496 0.73321 0.0
C492 C 0.86141 0.89861 0.83804 0.0
C493 C 0.83515 0.90079 0.88158 0.0
C494 C 0.80305 0.92698 0.87614 0.0
C495 C 0.82906 0.92477 0.83323 0.0
C496 C 0.86432 0.88657 0.86229 0.0
C497 C 0.8 0.93875 0.85216 0.0
C498 C 0.05427 0.82227 0.7795 0.0
C499 C 0.89225 0.88461 0.81761 0.0
H500 H 0.05558 0.79537 0.60909 0.0
H501 H 0.02927 0.81471 0.68548 0.0
H502 H 0.01037 0.78322 0.64863 0.0
H503 H 0.14184 0.87103 0.6436 0.0
H504 H 0.78103 0.93886 0.89056 0.0
H505 H 0.82611 0.93442 0.81475 0.0
H506 H 0.88929 0.8664 0.86612 0.0
H507 H 0.77531 0.95898 0.84828 0.0
Tb508 Tb 0.43528 0.63892 0.23628 0.0
C509 C 0.65963 0.67665 0.26848 0.0
N510 N 0.641 0.647 0.26651 0.0
C511 C 0.71967 0.63317 0.24306 0.0
C512 C 0.70794 0.68619 0.25672 0.0
C513 C 0.67104 0.62492 0.25483 0.0
C514 C 0.73787 0.66403 0.24373 0.0
C515 C 0.64651 0.72855 0.2843 0.0
C516 C 0.62902 0.69746 0.2819 0.0
C517 C 0.69383 0.73859 0.27201 0.0
C518 C 0.72452 0.71744 0.25826 0.0
Tb519 Tb 0.55995 0.63619 0.28503 0.0
N520 N 0.58314 0.68689 0.29324 0.0
C521 C 0.61662 0.74836 0.29945 0.0
C522 C 0.55723 0.70528 0.30994 0.0
C523 C 0.57247 0.73647 0.31275 0.0
H524 H 0.65719 0.60106 0.25434 0.0
H525 H 0.5507 0.75116 0.32548 0.0
H526 H 0.34975 0.68776 0.26529 0.0
H527 H 0.39727 0.52546 0.19855 0.0
H528 H 0.52566 0.69594 0.32163 0.0
H529 H 0.62857 0.77245 0.30179 0.0
H530 H 0.44653 0.57535 0.20331 0.0
H531 H 0.74296 0.61576 0.23341 0.0
H532 H 0.70758 0.76249 0.2734 0.0
H533 H 0.76122 0.72539 0.24911 0.0
H534 H 0.26601 0.68334 0.28963 0.0
H535 H 0.77527 0.67041 0.2344 0.0
H536 H 0.31347 0.51533 0.22265 0.0
N537 N 0.35492 0.63913 0.25797 0.0
C538 C 0.32624 0.61198 0.25752 0.0
C539 C 0.28316 0.66286 0.28119 0.0
C540 C 0.27644 0.6087 0.27015 0.0
C541 C 0.33188 0.66505 0.268 0.0
C542 C 0.25589 0.63437 0.28275 0.0
N543 N 0.39245 0.59248 0.23053 0.0
C544 C 0.41045 0.57091 0.21411 0.0
C545 C 0.31544 0.5601 0.24073 0.0
C546 C 0.34502 0.58808 0.24288 0.0
C547 C 0.33503 0.53717 0.22485 0.0
C548 C 0.3824 0.54277 0.21125 0.0
H549 H 0.21774 0.63286 0.29266 0.0
H550 H 0.20964 0.57736 0.27869 0.0
H551 H 0.24404 0.5347 0.25303 0.0
O552 O 0.44376 0.64383 0.19693 0.0
O553 O 0.44714 0.59757 0.25944 0.0
O554 O 0.48066 0.61684 0.29569 0.0
O555 O 0.37146 0.65846 0.21681 0.0
O556 O 0.50933 0.61419 0.22398 0.0
O557 O 0.5541 0.59678 0.25974 0.0
O558 O 0.59561 0.63932 0.32052 0.0
O559 O 0.56889 0.6542 0.24715 0.0
O560 O 0.48936 0.67925 0.23916 0.0
O561 O 0.59711 0.59606 0.29977 0.0
O562 O 0.48245 0.65537 0.29751 0.0
O563 O 0.44475 0.67757 0.26252 0.0
C564 C 0.45367 0.59558 0.28339 0.0
C565 C 0.36865 0.66845 0.17335 0.0
C566 C 0.35789 0.67228 0.12877 0.0
C567 C 0.31433 0.69278 0.13206 0.0
C568 C 0.32485 0.68909 0.17616 0.0
C569 C 0.2979 0.70107 0.15564 0.0
C570 C 0.38512 0.65992 0.14946 0.0
C571 C 0.54233 0.59477 0.23593 0.0
C572 C 0.39552 0.65614 0.19568 0.0
C573 C 0.24771 0.5804 0.26891 0.0
C574 C 0.26717 0.55615 0.25422 0.0
C575 C 0.54239 0.67782 0.23775 0.0
C576 C 0.63982 0.59492 0.34033 0.0
C577 C 0.66111 0.58891 0.38412 0.0
C578 C 0.6923 0.56262 0.37859 0.0
C579 C 0.67123 0.56854 0.33527 0.0
C580 C 0.63539 0.6054 0.36488 0.0
C581 C 0.69758 0.55266 0.3543 0.0
C582 C 0.4511 0.67603 0.28663 0.0
C583 C 0.61016 0.61033 0.32002 0.0
H584 H 0.29301 0.7024 0.11627 0.0
H585 H 0.31132 0.69612 0.19429 0.0
H586 H 0.26428 0.71691 0.15803 0.0
H587 H 0.41874 0.64405 0.14695 0.0
H588 H 0.7125 0.54972 0.39317 0.0
H589 H 0.67531 0.56012 0.31657 0.0
H590 H 0.61077 0.62552 0.3691 0.0
H591 H 0.72171 0.53234 0.35023 0.0
H592 H 0.15508 0.0216 0.3676 0.0
H593 H 0.13704 0.94832 0.31413 0.0
H594 H 0.09328 0.9845 0.28553 0.0
H595 H 0.05885 0.03702 0.27586 0.0
H596 H 0.07297 0.10926 0.33026 0.0
H597 H 0.11905 0.07342 0.35844 0.0
C598 C 0.14088 0.01337 0.34986 0.0
C599 C 0.14939 0.98225 0.34308 0.0
C600 C 0.11519 0.03419 0.3336 0.0
C601 C 0.13164 0.97224 0.31975 0.0
C602 C 0.10641 0.99288 0.30339 0.0
C603 C 0.07248 0.04483 0.29382 0.0
C604 C 0.063 0.07564 0.30103 0.0
C605 C 0.09807 0.02393 0.31009 0.0
C606 C 0.07991 0.08555 0.32443 0.0
C607 C 0.10622 0.0651 0.34051 0.0
H608 H 0.37439 0.53794 0.81228 0.0
H609 H 0.39479 0.49357 0.8833 0.0
H610 H 0.42409 0.44569 0.86319 0.0
H611 H 0.44802 0.4173 0.82536 0.0
H612 H 0.42729 0.46228 0.75449 0.0
H613 H 0.39468 0.50912 0.77464 0.0
C614 C 0.38526 0.51778 0.82336 0.0
C615 C 0.38273 0.51937 0.84923 0.0
C616 C 0.40246 0.49051 0.81171 0.0
C617 C 0.39598 0.49288 0.86333 0.0
C618 C 0.41316 0.46558 0.85185 0.0
C619 C 0.43637 0.43736 0.81434 0.0
C620 C 0.44036 0.43632 0.78846 0.0
C621 C 0.41726 0.46427 0.82605 0.0
C622 C 0.42453 0.4624 0.77444 0.0
C623 C 0.40593 0.48925 0.78594 0.0
H624 H 0.60304 0.51075 0.65228 0.0
H625 H 0.75641 0.50674 0.69064 0.0
H626 H 0.72131 0.46537 0.71755 0.0
H627 H 0.64731 0.42954 0.72938 0.0
H628 H 0.49341 0.43474 0.69168 0.0
H629 H 0.52874 0.47586 0.66494 0.0
C630 C 0.62883 0.50069 0.66645 0.0
C631 C 0.68216 0.51182 0.66947 0.0
C632 C 0.60834 0.47702 0.68191 0.0
C633 C 0.71496 0.4988 0.68811 0.0
C634 C 0.69501 0.47506 0.70344 0.0
C635 C 0.62118 0.44006 0.71579 0.0
C636 C 0.56768 0.42912 0.71287 0.0
C637 C 0.64168 0.464 0.70053 0.0
C638 C 0.53496 0.44247 0.69434 0.0
C639 C 0.55502 0.46612 0.67904 0.0
H640 H 0.81492 0.00168 0.16751 0.0
H641 H 0.95936 0.94786 0.18158 0.0
H642 H 0.99751 0.99012 0.20585 0.0
H643 H 0.9901 0.04173 0.22342 0.0
H644 H 0.84727 0.09702 0.20985 0.0
H645 H 0.80773 0.05472 0.18548 0.0
C646 C 0.85475 0.99939 0.17587 0.0
C647 C 0.8841 0.97159 0.17297 0.0
C648 C 0.87648 0.02386 0.19007 0.0
C649 C 0.93566 0.96883 0.18389 0.0
C650 C 0.95761 0.99301 0.19769 0.0
C651 C 0.95036 0.04469 0.21508 0.0
C652 C 0.92149 0.07242 0.21862 0.0
C653 C 0.92835 0.02052 0.20099 0.0
C654 C 0.86995 0.07569 0.20776 0.0
C655 C 0.84754 0.05159 0.19365 0.0
H656 H 0.88437 0.041 0.69747 0.0
H657 H 0.88001 0.99047 0.62882 0.0
H658 H 0.90925 0.94345 0.65027 0.0
H659 H 0.93774 0.91679 0.68832 0.0
H660 H 0.93564 0.96617 0.75732 0.0
H661 H 0.90539 0.01334 0.73595 0.0
C662 C 0.88848 0.01964 0.68716 0.0
C663 C 0.8802 0.01963 0.6614 0.0
C664 C 0.90402 0.99238 0.69969 0.0
C665 C 0.88713 0.99159 0.6485 0.0
C666 C 0.90349 0.96453 0.6608 0.0
C667 C 0.93045 0.93786 0.69868 0.0
C668 C 0.93921 0.93811 0.72432 0.0
C669 C 0.91252 0.96474 0.68633 0.0
C670 C 0.929 0.96541 0.73757 0.0
C671 C 0.91195 0.9924 0.72535 0.0
H672 H 0.65998 0.47522 0.19605 0.0
H673 H 0.62009 0.51785 0.12606 0.0
H674 H 0.57395 0.56012 0.1473 0.0
H675 H 0.54818 0.58624 0.18595 0.0
H676 H 0.59169 0.5438 0.25569 0.0
H677 H 0.63402 0.50078 0.23431 0.0
C678 C 0.64155 0.49384 0.18539 0.0
C679 C 0.64371 0.49327 0.15948 0.0
C680 C 0.61602 0.51837 0.1977 0.0
C681 C 0.61852 0.51737 0.14602 0.0
C682 C 0.59248 0.54174 0.15816 0.0
C683 C 0.56668 0.56751 0.19645 0.0
C684 C 0.5668 0.56847 0.2224 0.0
C685 C 0.59137 0.54265 0.18402 0.0
C686 C 0.5912 0.54396 0.2357 0.0
C687 C 0.6154 0.51919 0.2235 0.0
H688 H 0.37307 0.46416 0.32089 0.0
H689 H 0.39751 0.50739 0.39157 0.0
H690 H 0.42385 0.55619 0.37111 0.0
H691 H 0.44275 0.58593 0.33296 0.0
H692 H 0.42368 0.54071 0.26264 0.0
H693 H 0.39131 0.49369 0.28302 0.0
C694 C 0.38333 0.48443 0.33179 0.0
C695 C 0.38313 0.48231 0.35765 0.0
C696 C 0.3993 0.51209 0.31994 0.0
C697 C 0.39759 0.50852 0.3716 0.0
C698 C 0.41261 0.53637 0.35993 0.0
C699 C 0.43145 0.56578 0.32213 0.0
C700 C 0.43456 0.56713 0.29625 0.0
C701 C 0.41424 0.53832 0.33408 0.0
C702 C 0.42011 0.54074 0.2825 0.0
C703 C 0.40208 0.51363 0.29418 0.0
H704 H 0.15518 0.98062 0.87139 0.0
H705 H 0.17797 0.04536 0.81101 0.0
H706 H 0.13393 0.00905 0.78283 0.0
H707 H 0.08798 0.95929 0.77553 0.0
H708 H 0.06837 0.89346 0.8353 0.0
H709 H 0.11021 0.9303 0.86378 0.0
C710 C 0.14997 0.98689 0.85212 0.0
C711 C 0.1697 0.01568 0.84333 0.0
C712 C 0.12493 0.9658 0.83597 0.0
C713 C 0.1635 0.02325 0.8182 0.0
C714 C 0.13818 0.00255 0.80209 0.0
C715 C 0.09395 0.9527 0.79463 0.0
C716 C 0.07611 0.92342 0.8031 0.0
C717 C 0.11893 0.97374 0.81076 0.0
C718 C 0.08198 0.91581 0.82823 0.0
C719 C 0.10604 0.93682 0.84453 0.0
H720 H 0.1691 0.0869 0.02396 0.0
H721 H 0.21856 0.18149 0.00788 0.0
H722 H 0.19868 0.19629 0.05012 0.0
H723 H 0.17516 0.18177 0.09241 0.0
H724 H 0.13296 0.0866 0.10989 0.0
H725 H 0.14128 0.0728 0.06634 0.0
C726 C 0.17548 0.11077 0.02967 0.0
C727 C 0.19545 0.13298 0.01262 0.0
C728 C 0.16533 0.11905 0.0543 0.0
C729 C 0.20247 0.16393 0.02034 0.0
C730 C 0.19159 0.17241 0.04462 0.0
C731 C 0.1677 0.15799 0.08671 0.0
C732 C 0.1542 0.1352 0.10446 0.0
C733 C 0.17415 0.15005 0.06185 0.0
C734 C 0.1432 0.10467 0.09664 0.0
C735 C 0.14846 0.0967 0.07175 0.0
H736 H 0.38788 0.38929 0.51676 0.0
H737 H 0.26469 0.31762 0.51707 0.0
H738 H 0.25832 0.3206 0.56204 0.0
H739 H 0.28195 0.34707 0.60087 0.0
H740 H 0.4055 0.4183 0.60068 0.0
H741 H 0.4181 0.41202 0.55609 0.0
C742 C 0.35977 0.3743 0.52674 0.0
C743 C 0.3262 0.35358 0.51367 0.0
C744 C 0.3565 0.3761 0.55256 0.0
C745 C 0.2908 0.33379 0.52677 0.0
C746 C 0.28705 0.33555 0.55244 0.0
C747 C 0.31236 0.36065 0.59102 0.0
C748 C 0.34291 0.38302 0.60374 0.0
C749 C 0.31893 0.35702 0.56547 0.0
C750 C 0.38201 0.40078 0.59107 0.0
C751 C 0.38884 0.39734 0.56563 0.0
H752 H 0.7072 0.339 0.99424 0.0
H753 H 0.66642 0.43656 0.99632 0.0
H754 H 0.64285 0.43561 0.9527 0.0
H755 H 0.64346 0.4086 0.91295 0.0
H756 H 0.68359 0.31134 0.91038 0.0
H757 H 0.69613 0.31024 0.95531 0.0
C758 C 0.6919 0.35986 0.98532 0.0
C759 C 0.6897 0.38796 0.99847 0.0
C760 C 0.67813 0.35916 0.96013 0.0
C761 C 0.66997 0.4148 0.98651 0.0
C762 C 0.65612 0.41427 0.96158 0.0
C763 C 0.65327 0.38703 0.92246 0.0
C764 C 0.6621 0.36003 0.90873 0.0
C765 C 0.66143 0.38683 0.94807 0.0
C766 C 0.67587 0.33223 0.92087 0.0
C767 C 0.68355 0.33172 0.94644 0.0
H768 H 0.91969 0.12987 0.49442 0.0
H769 H 0.75699 0.1666 0.49669 0.0
H770 H 0.75921 0.17527 0.45201 0.0
H771 H 0.812 0.1782 0.41301 0.0
H772 H 0.97641 0.14433 0.41198 0.0
H773 H 0.96922 0.12884 0.45538 0.0
C774 C 0.8846 0.13969 0.48515 0.0
C775 C 0.83857 0.14799 0.49898 0.0
C776 C 0.88669 0.14529 0.45964 0.0
C777 C 0.79294 0.15994 0.48654 0.0
C778 C 0.79434 0.16513 0.46099 0.0
C779 C 0.84558 0.16676 0.42226 0.0
C780 C 0.89461 0.16223 0.40951 0.0
C781 C 0.84155 0.15867 0.44744 0.0
C782 C 0.93832 0.14782 0.42157 0.0
C783 C 0.93427 0.13914 0.44635 0.0
H784 H 0.89225 0.86737 0.99236 0.0
H785 H 0.71964 0.88163 1.00015 0.0
H786 H 0.71113 0.8889 0.95562 0.0
H787 H 0.75319 0.89431 0.91486 0.0
H788 H 0.92623 0.88236 0.9069 0.0
H789 H 0.93395 0.87054 0.95101 0.0
C790 C 0.85279 0.87216 0.98431 0.0
C791 C 0.80668 0.87417 0.99965 0.0
C792 C 0.84824 0.87661 0.95865 0.0
C793 C 0.7557 0.87974 0.98883 0.0
C794 C 0.75084 0.88406 0.96336 0.0
C795 C 0.79264 0.8891 0.92276 0.0
C796 C 0.83913 0.88959 0.90761 0.0
C797 C 0.7969 0.88298 0.94816 0.0
C798 C 0.88972 0.88201 0.91806 0.0
C799 C 0.89423 0.87553 0.94334 0.0
H800 H 0.65285 0.58946 0.49947 0.0
H801 H 0.75965 0.66819 0.4882 0.0
H802 H 0.74369 0.66603 0.4438 0.0
H803 H 0.70779 0.63777 0.40765 0.0
H804 H 0.60295 0.5585 0.41906 0.0
H805 H 0.60819 0.5654 0.4638 0.0
C806 C 0.67152 0.60668 0.4874 0.0
C807 C 0.70803 0.62866 0.49721 0.0
C808 C 0.66249 0.60516 0.4618 0.0
C809 C 0.73224 0.65058 0.48115 0.0
C810 C 0.72299 0.64945 0.45572 0.0
C811 C 0.68499 0.62264 0.42001 0.0
C812 C 0.65491 0.59775 0.41028 0.0
C813 C 0.68948 0.62626 0.44574 0.0
C814 C 0.62611 0.5779 0.42632 0.0
C815 C 0.62943 0.58172 0.45185 0.0
H816 H 0.39023 0.67677 0.01487 0.0
H817 H 0.31529 0.58624 0.02051 0.0
H818 H 0.31999 0.58864 0.06572 0.0
H819 H 0.33681 0.61942 0.10352 0.0
H820 H 0.41128 0.71 0.09716 0.0
H821 H 0.41681 0.70455 0.05235 0.0
C822 C 0.37538 0.65751 0.02608 0.0
C823 C 0.35168 0.63161 0.01464 0.0
C824 C 0.3786 0.65904 0.05185 0.0
C825 C 0.33336 0.60648 0.02912 0.0
C826 C 0.33605 0.60787 0.05488 0.0
C827 C 0.35581 0.63739 0.09227 0.0
C828 C 0.37407 0.66495 0.10336 0.0
C829 C 0.35757 0.63434 0.06647 0.0
C830 C 0.39764 0.6885 0.08881 0.0
C831 C 0.40024 0.68551 0.06325 0.0
H832 H 0.24947 0.86081 0.53065 0.0
H833 H 0.09174 0.87174 0.49656 0.0
H834 H 0.04794 0.85894 0.53555 0.0
H835 H 0.05388 0.84547 0.57968 0.0
H836 H 0.21086 0.83981 0.61463 0.0
H837 H 0.25544 0.85099 0.57512 0.0
C838 C 0.20551 0.86102 0.53166 0.0
C839 C 0.17433 0.86711 0.51032 0.0
C840 C 0.18033 0.85481 0.55444 0.0
C841 C 0.11724 0.86643 0.51228 0.0
C842 C 0.09194 0.85943 0.53473 0.0
C843 C 0.09786 0.84661 0.57853 0.0
C844 C 0.1292 0.84152 0.59984 0.0
C845 C 0.12304 0.85358 0.5559 0.0
C846 C 0.18605 0.84361 0.59837 0.0
C847 C 0.21146 0.8499 0.57581 0.0
H848 H 0.16773 0.24563 0.36722 0.0
H849 H 0.20739 0.30459 0.30494 0.0
H850 H 0.15037 0.2727 0.27822 0.0
H851 H 0.0892 0.22794 0.27249 0.0
H852 H 0.05235 0.16784 0.33433 0.0
H853 H 0.10612 0.20099 0.36142 0.0
C854 C 0.16338 0.25171 0.34786 0.0
C855 C 0.19196 0.27745 0.33813 0.0
C856 C 0.13076 0.23312 0.33251 0.0
C857 C 0.18641 0.28471 0.31289 0.0
C858 C 0.15362 0.26654 0.29759 0.0
C859 C 0.094 0.2217 0.29174 0.0
C860 C 0.06807 0.19493 0.30113 0.0
C861 C 0.12596 0.24054 0.30714 0.0
C862 C 0.07238 0.18809 0.32647 0.0
C863 C 0.10327 0.20701 0.34201 0.0
H864 H 0.31501 0.23991 0.85198 0.0
H865 H 0.46336 0.18676 0.8517 0.0
H866 H 0.50598 0.22526 0.82461 0.0
H867 H 0.50077 0.27337 0.80018 0.0
H868 H 0.35388 0.32772 0.80149 0.0
H869 H 0.31076 0.28913 0.82838 0.0
C870 C 0.35657 0.2367 0.84588 0.0
C871 C 0.38593 0.2105 0.85396 0.0
C872 C 0.38097 0.25899 0.83024 0.0
C873 C 0.44001 0.20691 0.8461 0.0
C874 C 0.46437 0.22883 0.83045 0.0
C875 C 0.45939 0.27688 0.80642 0.0
C876 C 0.4302 0.30308 0.79831 0.0
C877 C 0.43523 0.25491 0.82236 0.0
C878 C 0.3768 0.30733 0.80682 0.0
C879 C 0.35222 0.28538 0.82241 0.0
H880 H 0.70157 0.26882 0.64833 0.0
H881 H 0.66487 0.18615 0.69086 0.0
H882 H 0.60888 0.21664 0.71896 0.0
H883 H 0.571 0.26713 0.7317 0.0
H884 H 0.60525 0.34924 0.68826 0.0
H885 H 0.66247 0.31887 0.66049 0.0
C886 C 0.68138 0.25751 0.66378 0.0
C887 C 0.68734 0.22529 0.6675 0.0
C888 C 0.64931 0.27516 0.67982 0.0
C889 C 0.66037 0.21086 0.68742 0.0
C890 C 0.62874 0.22831 0.70361 0.0
C891 C 0.59145 0.27824 0.71622 0.0
C892 C 0.5847 0.31025 0.71199 0.0
C893 C 0.62313 0.26049 0.70006 0.0
C894 C 0.61026 0.32455 0.69173 0.0
C895 C 0.64281 0.30723 0.67591 0.0
H896 H 0.89264 0.31047 0.18618 0.0
H897 H 0.79646 0.2514 0.13918 0.0
H898 H 0.82722 0.20536 0.16213 0.0
H899 H 0.88378 0.18186 0.19508 0.0
H900 H 0.97465 0.24145 0.24371 0.0
H901 H 0.94438 0.28743 0.22055 0.0
C902 C 0.87845 0.28748 0.18103 0.0
C903 C 0.84273 0.28419 0.16095 0.0
C904 C 0.89572 0.2613 0.19449 0.0
C905 C 0.82387 0.25441 0.15463 0.0
C906 C 0.84166 0.22813 0.16765 0.0
C907 C 0.89679 0.205 0.20045 0.0
C908 C 0.93162 0.20858 0.22075 0.0
C909 C 0.87795 0.23127 0.18748 0.0
C910 C 0.94778 0.23844 0.22804 0.0
C911 C 0.93056 0.26462 0.21483 0.0
H912 H 0.91001 0.70014 0.67952 0.0
H913 H 0.77312 0.754 0.65431 0.0
H914 H 0.80181 0.79745 0.68044 0.0
H915 H 0.87086 0.82162 0.70774 0.0
H916 H 0.00849 0.76723 0.73139 0.0
H917 H 0.975 0.7227 0.70825 0.0
C918 C 0.88655 0.72145 0.67959 0.0
C919 C 0.84005 0.72401 0.66464 0.0
C920 C 0.90371 0.74634 0.69424 0.0
C921 C 0.80917 0.75144 0.6656 0.0
C922 C 0.82572 0.77634 0.68042 0.0
C923 C 0.89282 0.79981 0.70812 0.0
C924 C 0.94213 0.79767 0.72113 0.0
C925 C 0.87355 0.77426 0.69448 0.0
C926 C 0.97069 0.76947 0.72129 0.0
C927 C 0.95156 0.74399 0.7081 0.0
H928 H 0.64634 0.79385 0.1831 0.0
H929 H 0.74589 0.72117 0.15237 0.0
H930 H 0.6985 0.68252 0.17733 0.0
H931 H 0.62794 0.66874 0.20747 0.0
H932 H 0.52277 0.74 0.23566 0.0
H933 H 0.57242 0.77964 0.2118 0.0
C934 C 0.65722 0.76955 0.1815 0.0
C935 C 0.70043 0.76077 0.16596 0.0
C936 C 0.62861 0.74705 0.19544 0.0
C937 C 0.71398 0.729 0.16455 0.0
C938 C 0.68655 0.70669 0.1787 0.0
C939 C 0.61602 0.69299 0.20836 0.0
C940 C 0.57197 0.70158 0.22323 0.0
C941 C 0.64392 0.71542 0.19422 0.0
C942 C 0.55643 0.73293 0.22413 0.0
C943 C 0.58488 0.75555 0.21057 0.0
H944 H 0.34801 0.75808 0.36991 0.0
H945 H 0.38376 0.83069 0.31695 0.0
H946 H 0.41587 0.79205 0.28753 0.0
H947 H 0.43726 0.7376 0.27749 0.0
H948 H 0.40573 0.66548 0.33135 0.0
H949 H 0.3676 0.70372 0.35961 0.0
C950 C 0.3623 0.76535 0.35183 0.0
C951 C 0.36372 0.79713 0.34563 0.0
C952 C 0.3813 0.74306 0.33515 0.0
C953 C 0.38292 0.80633 0.32224 0.0
C954 C 0.40103 0.78427 0.30537 0.0
C955 C 0.42126 0.73035 0.29529 0.0
C956 C 0.42397 0.69894 0.30243 0.0
C957 C 0.40086 0.75258 0.3117 0.0
C958 C 0.40408 0.68967 0.32562 0.0
C959 C 0.38238 0.71148 0.34175 0.0
H960 H 0.19028 0.70801 0.81935 0.0
H961 H 0.16987 0.75747 0.88767 0.0
H962 H 0.11537 0.79684 0.86655 0.0
H963 H 0.07699 0.81851 0.82839 0.0
H964 H 0.09652 0.76914 0.75999 0.0
H965 H 0.14788 0.72851 0.78136 0.0
C966 C 0.17318 0.72715 0.82966 0.0
C967 C 0.18432 0.72987 0.85503 0.0
C968 C 0.1422 0.74989 0.81733 0.0
C969 C 0.16241 0.75504 0.86808 0.0
C970 C 0.13118 0.77753 0.85603 0.0
C971 C 0.09212 0.79873 0.81819 0.0
C972 C 0.0835 0.79703 0.7926 0.0
C973 C 0.12144 0.77543 0.83061 0.0
C974 C 0.10339 0.77126 0.77964 0.0
C975 C 0.13253 0.74794 0.79187 0.0
loop_
_geom_bond_atom_site_label_1
_geom_bond_atom_site_label_2
_geom_bond_distance
_geom_bond_site_symmetry_2
_ccdc_geom_bond_type
P0 O11 1.490 . S
P0 C14 1.812 . S
P0 C20 1.803 . S
P0 C26 1.819 . S
H1 C15 0.941 . S
H2 C16 0.939 . S
H3 C18 0.940 . S
H4 C19 0.940 . S
H5 C21 0.939 . S
H6 C22 0.942 . S
H7 C24 0.940 . S
H8 C25 0.939 . S
H9 C27 0.941 . S
H10 C31 0.939 . S
O11 P0 1.490 . S
H12 C28 0.939 . S
H13 C30 0.940 . S
C14 P0 1.812 . S
C14 C15 1.389 . S
C14 C19 1.391 . S
C15 H1 0.941 . S
C15 C14 1.389 . S
C15 C16 1.397 . S
C16 H2 0.939 . S
C16 C15 1.397 . S
C16 C17 1.378 . S
C17 C16 1.378 . S
C17 C18 1.378 . S
C18 H3 0.940 . S
C18 C17 1.378 . S
C18 C19 1.396 . S
C19 H4 0.940 . S
C19 C14 1.391 . S
C19 C18 1.396 . S
C20 P0 1.803 . S
C20 C21 1.378 . S
C20 C25 1.400 . S
C21 H5 0.939 . S
C21 C20 1.378 . S
C21 C22 1.361 . S
C22 H6 0.942 . S
C22 C21 1.361 . S
C22 C23 1.369 . S
C23 C22 1.369 . S
C23 C24 1.404 . S
C24 H7 0.940 . S
C24 C23 1.404 . S
C24 C25 1.389 . S
C25 H8 0.939 . S
C25 C20 1.400 . S
C25 C24 1.389 . S
C26 P0 1.819 . S
C26 C27 1.391 . S
C26 C31 1.391 . S
C27 H9 0.941 . S
C27 C26 1.391 . S
C27 C28 1.396 . S
C28 H12 0.939 . S
C28 C27 1.396 . S
C28 C29 1.397 . S
C29 C28 1.397 . S
C29 C30 1.385 . S
C30 H13 0.940 . S
C30 C29 1.385 . S
C30 C31 1.388 . S
C31 H10 0.939 . S
C31 C26 1.391 . S
C31 C30 1.388 . S
P32 O43 1.490 . S
P32 C46 1.812 . S
P32 C52 1.803 . S
P32 C58 1.819 . S
H33 C47 0.941 . S
H34 C48 0.939 . S
H35 C50 0.940 . S
H36 C51 0.940 . S
H37 C53 0.939 . S
H38 C54 0.942 . S
H39 C56 0.940 . S
H40 C57 0.939 . S
H41 C59 0.941 . S
H42 C63 0.939 . S
O43 P32 1.490 . S
H44 C60 0.939 . S
H45 C62 0.940 . S
C46 P32 1.812 . S
C46 C47 1.389 . S
C46 C51 1.391 . S
C47 H33 0.941 . S
C47 C46 1.389 . S
C47 C48 1.397 . S
C48 H34 0.939 . S
C48 C47 1.397 . S
C48 C49 1.378 . S
C49 C48 1.378 . S
C49 C50 1.378 . S
C50 H35 0.940 . S
C50 C49 1.378 . S
C50 C51 1.396 . S
C51 H36 0.940 . S
C51 C46 1.391 . S
C51 C50 1.396 . S
C52 P32 1.803 . S
C52 C53 1.378 . S
C52 C57 1.400 . S
C53 H37 0.939 . S
C53 C52 1.378 . S
C53 C54 1.361 . S
C54 H38 0.942 . S
C54 C53 1.361 . S
C54 C55 1.369 . S
C55 C54 1.369 . S
C55 C56 1.404 . S
C56 H39 0.940 . S
C56 C55 1.404 . S
C56 C57 1.389 . S
C57 H40 0.939 . S
C57 C52 1.400 . S
C57 C56 1.389 . S
C58 P32 1.819 . S
C58 C59 1.391 . S
C58 C63 1.391 . S
C59 H41 0.941 . S
C59 C58 1.391 . S
C59 C60 1.396 . S
C60 H44 0.939 . S
C60 C59 1.396 . S
C60 C61 1.397 . S
C61 C60 1.397 . S
C61 C62 1.385 . S
C62 H45 0.940 . S
C62 C61 1.385 . S
C62 C63 1.388 . S
C63 H42 0.939 . S
C63 C58 1.391 . S
C63 C62 1.388 . S
P64 O75 1.490 . S
P64 C78 1.812 . S
P64 C84 1.803 . S
P64 C90 1.819 . S
H65 C79 0.941 . S
H66 C80 0.939 . S
H67 C82 0.940 . S
H68 C83 0.940 . S
H69 C85 0.939 . S
H70 C86 0.942 . S
H71 C88 0.940 . S
H72 C89 0.939 . S
H73 C91 0.941 . S
H74 C95 0.939 . S
O75 P64 1.490 . S
H76 C92 0.939 . S
H77 C94 0.940 . S
C78 P64 1.812 . S
C78 C79 1.389 . S
C78 C83 1.391 . S
C79 H65 0.941 . S
C79 C78 1.389 . S
C79 C80 1.397 . S
C80 H66 0.939 . S
C80 C79 1.397 . S
C80 C81 1.378 . S
C81 C80 1.378 . S
C81 C82 1.378 . S
C82 H67 0.940 . S
C82 C81 1.378 . S
C82 C83 1.396 . S
C83 H68 0.940 . S
C83 C78 1.391 . S
C83 C82 1.396 . S
C84 P64 1.803 . S
C84 C85 1.378 . S
C84 C89 1.400 . S
C85 H69 0.939 . S
C85 C84 1.378 . S
C85 C86 1.361 . S
C86 H70 0.942 . S
C86 C85 1.361 . S
C86 C87 1.369 . S
C87 C86 1.369 . S
C87 C88 1.404 . S
C88 H71 0.940 . S
C88 C87 1.404 . S
C88 C89 1.389 . S
C89 H72 0.939 . S
C89 C84 1.400 . S
C89 C88 1.389 . S
C90 P64 1.819 . S
C90 C91 1.391 . S
C90 C95 1.391 . S
C91 H73 0.941 . S
C91 C90 1.391 . S
C91 C92 1.396 . S
C92 H76 0.939 . S
C92 C91 1.396 . S
C92 C93 1.397 . S
C93 C92 1.397 . S
C93 C94 1.385 . S
C94 H77 0.940 . S
C94 C93 1.385 . S
C94 C95 1.388 . S
C95 H74 0.939 . S
C95 C90 1.391 . S
C95 C94 1.388 . S
P96 O107 1.490 . S
P96 C110 1.812 . S
P96 C116 1.803 . S
P96 C122 1.819 . S
H97 C111 0.941 . S
H98 C112 0.939 . S
H99 C114 0.940 . S
H100 C115 0.940 . S
H101 C117 0.939 . S
H102 C118 0.942 . S
H103 C120 0.940 . S
H104 C121 0.939 . S
H105 C123 0.941 . S
H106 C127 0.939 . S
O107 P96 1.490 . S
H108 C124 0.939 . S
H109 C126 0.940 . S
C110 P96 1.812 . S
C110 C111 1.389 . S
C110 C115 1.391 . S
C111 H97 0.941 . S
C111 C110 1.389 . S
C111 C112 1.397 . S
C112 H98 0.939 . S
C112 C111 1.397 . S
C112 C113 1.378 . S
C113 C112 1.378 . S
C113 C114 1.378 . S
C114 H99 0.940 . S
C114 C113 1.378 . S
C114 C115 1.396 . S
C115 H100 0.940 . S
C115 C110 1.391 . S
C115 C114 1.396 . S
C116 P96 1.803 . S
C116 C117 1.378 . S
C116 C121 1.400 . S
C117 H101 0.939 . S
C117 C116 1.378 . S
C117 C118 1.361 . S
C118 H102 0.942 . S
C118 C117 1.361 . S
C118 C119 1.369 . S
C119 C118 1.369 . S
C119 C120 1.404 . S
C120 H103 0.940 . S
C120 C119 1.404 . S
C120 C121 1.389 . S
C121 H104 0.939 . S
C121 C116 1.400 . S
C121 C120 1.389 . S
C122 P96 1.819 . S
C122 C123 1.391 . S
C122 C127 1.391 . S
C123 H105 0.941 . S
C123 C122 1.391 . S
C123 C124 1.396 . S
C124 H108 0.939 . S
C124 C123 1.396 . S
C124 C125 1.397 . S
C125 C124 1.397 . S
C125 C126 1.385 . S
C126 H109 0.940 . S
C126 C125 1.385 . S
C126 C127 1.388 . S
C127 H106 0.939 . S
C127 C122 1.391 . S
C127 C126 1.388 . S
P128 O139 1.490 . S
P128 C142 1.812 . S
P128 C148 1.803 . S
P128 C154 1.819 . S
H129 C143 0.941 . S
H130 C144 0.939 . S
H131 C146 0.940 . S
H132 C147 0.940 . S
H133 C149 0.939 . S
H134 C150 0.942 . S
H135 C152 0.940 . S
H136 C153 0.939 . S
H137 C155 0.941 . S
H138 C159 0.939 . S
O139 P128 1.490 . S
H140 C156 0.939 . S
H141 C158 0.940 . S
C142 P128 1.812 . S
C142 C143 1.389 . S
C142 C147 1.391 . S
C143 H129 0.941 . S
C143 C142 1.389 . S
C143 C144 1.397 . S
C144 H130 0.939 . S
C144 C143 1.397 . S
C144 C145 1.378 . S
C145 C144 1.378 . S
C145 C146 1.378 . S
C146 H131 0.940 . S
C146 C145 1.378 . S
C146 C147 1.396 . S
C147 H132 0.940 . S
C147 C142 1.391 . S
C147 C146 1.396 . S
C148 P128 1.803 . S
C148 C149 1.378 . S
C148 C153 1.400 . S
C149 H133 0.939 . S
C149 C148 1.378 . S
C149 C150 1.361 . S
C150 H134 0.942 . S
C150 C149 1.361 . S
C150 C151 1.369 . S
C151 C150 1.369 . S
C151 C152 1.404 . S
C152 H135 0.940 . S
C152 C151 1.404 . S
C152 C153 1.389 . S
C153 H136 0.939 . S
C153 C148 1.400 . S
C153 C152 1.389 . S
C154 P128 1.819 . S
C154 C155 1.391 . S
C154 C159 1.391 . S
C155 H137 0.941 . S
C155 C154 1.391 . S
C155 C156 1.396 . S
C156 H140 0.939 . S
C156 C155 1.396 . S
C156 C157 1.397 . S
C157 C156 1.397 . S
C157 C158 1.385 . S
C158 H141 0.940 . S
C158 C157 1.385 . S
C158 C159 1.388 . S
C159 H138 0.939 . S
C159 C154 1.391 . S
C159 C158 1.388 . S
P160 O171 1.490 . S
P160 C174 1.812 . S
P160 C180 1.803 . S
P160 C186 1.819 . S
H161 C175 0.941 . S
H162 C176 0.939 . S
H163 C178 0.940 . S
H164 C179 0.940 . S
H165 C181 0.939 . S
H166 C182 0.942 . S
H167 C184 0.940 . S
H168 C185 0.939 . S
H169 C187 0.941 . S
H170 C191 0.939 . S
O171 P160 1.490 . S
H172 C188 0.939 . S
H173 C190 0.940 . S
C174 P160 1.812 . S
C174 C175 1.389 . S
C174 C179 1.391 . S
C175 H161 0.941 . S
C175 C174 1.389 . S
C175 C176 1.397 . S
C176 H162 0.939 . S
C176 C175 1.397 . S
C176 C177 1.378 . S
C177 C176 1.378 . S
C177 C178 1.378 . S
C178 H163 0.940 . S
C178 C177 1.378 . S
C178 C179 1.396 . S
C179 H164 0.940 . S
C179 C174 1.391 . S
C179 C178 1.396 . S
C180 P160 1.803 . S
C180 C181 1.378 . S
C180 C185 1.400 . S
C181 H165 0.939 . S
C181 C180 1.378 . S
C181 C182 1.361 . S
C182 H166 0.942 . S
C182 C181 1.361 . S
C182 C183 1.369 . S
C183 C182 1.369 . S
C183 C184 1.404 . S
C184 H167 0.940 . S
C184 C183 1.404 . S
C184 C185 1.389 . S
C185 H168 0.939 . S
C185 C180 1.400 . S
C185 C184 1.389 . S
C186 P160 1.819 . S
C186 C187 1.391 . S
C186 C191 1.391 . S
C187 H169 0.941 . S
C187 C186 1.391 . S
C187 C188 1.396 . S
C188 H172 0.939 . S
C188 C187 1.396 . S
C188 C189 1.397 . S
C189 C188 1.397 . S
C189 C190 1.385 . S
C190 H173 0.940 . S
C190 C189 1.385 . S
C190 C191 1.388 . S
C191 H170 0.939 . S
C191 C186 1.391 . S
C191 C190 1.388 . S
P192 O203 1.490 . S
P192 C206 1.812 . S
P192 C212 1.803 . S
P192 C218 1.819 . S
H193 C207 0.941 . S
H194 C208 0.939 . S
H195 C210 0.940 . S
H196 C211 0.940 . S
H197 C213 0.939 . S
H198 C214 0.942 . S
H199 C216 0.940 . S
H200 C217 0.939 . S
H201 C219 0.941 . S
H202 C223 0.939 . S
O203 P192 1.490 . S
H204 C220 0.939 . S
H205 C222 0.940 . S
C206 P192 1.812 . S
C206 C207 1.389 . S
C206 C211 1.391 . S
C207 H193 0.941 . S
C207 C206 1.389 . S
C207 C208 1.397 . S
C208 H194 0.939 . S
C208 C207 1.397 . S
C208 C209 1.378 . S
C209 C208 1.378 . S
C209 C210 1.378 . S
C210 H195 0.940 . S
C210 C209 1.378 . S
C210 C211 1.396 . S
C211 H196 0.940 . S
C211 C206 1.391 . S
C211 C210 1.396 . S
C212 P192 1.803 . S
C212 C213 1.378 . S
C212 C217 1.400 . S
C213 H197 0.939 . S
C213 C212 1.378 . S
C213 C214 1.361 . S
C214 H198 0.942 . S
C214 C213 1.361 . S
C214 C215 1.369 . S
C215 C214 1.369 . S
C215 C216 1.404 . S
C216 H199 0.940 . S
C216 C215 1.404 . S
C216 C217 1.389 . S
C217 H200 0.939 . S
C217 C212 1.400 . S
C217 C216 1.389 . S
C218 P192 1.819 . S
C218 C219 1.391 . S
C218 C223 1.391 . S
C219 H201 0.941 . S
C219 C218 1.391 . S
C219 C220 1.396 . S
C220 H204 0.939 . S
C220 C219 1.396 . S
C220 C221 1.397 . S
C221 C220 1.397 . S
C221 C222 1.385 . S
C222 H205 0.940 . S
C222 C221 1.385 . S
C222 C223 1.388 . S
C223 H202 0.939 . S
C223 C218 1.391 . S
C223 C222 1.388 . S
P224 O235 1.490 . S
P224 C238 1.812 . S
P224 C244 1.803 . S
P224 C250 1.819 . S
H225 C239 0.941 . S
H226 C240 0.939 . S
H227 C242 0.940 . S
H228 C243 0.940 . S
H229 C245 0.939 . S
H230 C246 0.942 . S
H231 C248 0.940 . S
H232 C249 0.939 . S
H233 C251 0.941 . S
H234 C255 0.939 . S
O235 P224 1.490 . S
H236 C252 0.939 . S
H237 C254 0.940 . S
C238 P224 1.812 . S
C238 C239 1.389 . S
C238 C243 1.391 . S
C239 H225 0.941 . S
C239 C238 1.389 . S
C239 C240 1.397 . S
C240 H226 0.939 . S
C240 C239 1.397 . S
C240 C241 1.378 . S
C241 C240 1.378 . S
C241 C242 1.378 . S
C242 H227 0.940 . S
C242 C241 1.378 . S
C242 C243 1.396 . S
C243 H228 0.940 . S
C243 C238 1.391 . S
C243 C242 1.396 . S
C244 P224 1.803 . S
C244 C245 1.378 . S
C244 C249 1.400 . S
C245 H229 0.939 . S
C245 C244 1.378 . S
C245 C246 1.361 . S
C246 H230 0.942 . S
C246 C245 1.361 . S
C246 C247 1.369 . S
C247 C246 1.369 . S
C247 C248 1.404 . S
C248 H231 0.940 . S
C248 C247 1.404 . S
C248 C249 1.389 . S
C249 H232 0.939 . S
C249 C244 1.400 . S
C249 C248 1.389 . S
C250 P224 1.819 . S
C250 C251 1.391 . S
C250 C255 1.391 . S
C251 H233 0.941 . S
C251 C250 1.391 . S
C251 C252 1.396 . S
C252 H236 0.939 . S
C252 C251 1.396 . S
C252 C253 1.397 . S
C253 C252 1.397 . S
C253 C254 1.385 . S
C254 H237 0.940 . S
C254 C253 1.385 . S
C254 C255 1.388 . S
C255 H234 0.939 . S
C255 C250 1.391 . S
C255 C254 1.388 . S
Tb256 N285 2.617 . S
Tb256 N291 2.572 . S
Tb256 O300 2.465 . S
Tb256 O301 2.387 . S
Tb256 O303 2.428 . S
Tb256 O304 2.308 . S
Tb256 O308 2.349 . S
Tb256 O311 2.393 . S
Tb256 C320 2.802 . S
C257 N258 1.379 . S
C257 C260 1.416 . S
C257 C264 1.424 . S
N258 C257 1.379 . S
N258 C261 1.334 . S
N258 Tb267 2.617 . S
C259 C261 1.390 . S
C259 C262 1.339 . S
C259 H279 0.930 . S
C260 C257 1.416 . S
C260 C262 1.416 . S
C260 C266 1.448 . S
C261 N258 1.334 . S
C261 C259 1.390 . S
C261 H272 0.930 . S
C262 C259 1.339 . S
C262 C260 1.416 . S
C262 H283 0.930 . S
C263 C264 1.413 . S
C263 C265 1.427 . S
C263 C269 1.416 . S
C264 C257 1.424 . S
C264 C263 1.413 . S
C264 N268 1.361 . S
C265 C263 1.427 . S
C265 C266 1.328 . S
C265 H280 0.929 . S
C266 C260 1.448 . S
C266 C265 1.328 . S
C266 H281 0.930 . S
Tb267 N258 2.617 . S
Tb267 N268 2.572 . S
Tb267 O302 2.349 1_655 S
Tb267 O305 2.393 . S
Tb267 O306 2.465 . S
Tb267 O307 2.387 . S
Tb267 O309 2.428 . S
Tb267 O310 2.308 1_655 S
Tb267 C331 2.802 . S
N268 C264 1.361 . S
N268 Tb267 2.572 . S
N268 C270 1.340 . S
C269 C263 1.416 . S
C269 C271 1.332 . S
C269 H277 0.931 . S
C270 N268 1.340 . S
C270 C271 1.407 . S
C270 H276 0.930 . S
C271 C269 1.332 . S
C271 C270 1.407 . S
C271 H273 0.929 . S
H272 C261 0.930 . S
H273 C271 0.929 . S
H274 C289 0.930 . S
H275 C296 0.929 . S
H276 C270 0.930 . S
H277 C269 0.931 . S
H278 C292 0.930 . S
H279 C259 0.930 . S
H280 C265 0.929 . S
H281 C266 0.930 . S
H282 C287 0.930 . S
H283 C262 0.930 . S
H284 C295 0.931 . S
N285 Tb256 2.617 . S
N285 C286 1.379 . S
N285 C289 1.334 . S
C286 N285 1.379 . S
C286 C288 1.416 . S
C286 C294 1.424 . S
C287 H282 0.930 . S
C287 C289 1.390 . S
C287 C290 1.339 . S
C288 C286 1.416 . S
C288 C290 1.416 . S
C288 C321 1.448 . S
C289 H274 0.930 . S
C289 N285 1.334 . S
C289 C287 1.390 . S
C290 C287 1.339 . S
C290 C288 1.416 . S
C290 H297 0.930 . S
N291 Tb256 2.572 . S
N291 C292 1.340 . S
N291 C294 1.361 . S
C292 H278 0.930 . S
C292 N291 1.340 . S
C292 C296 1.407 . S
C293 C294 1.413 . S
C293 C295 1.416 . S
C293 C322 1.427 . S
C294 C286 1.424 . S
C294 N291 1.361 . S
C294 C293 1.413 . S
C295 H284 0.931 . S
C295 C293 1.416 . S
C295 C296 1.332 . S
C296 H275 0.929 . S
C296 C292 1.407 . S
C296 C295 1.332 . S
H297 C290 0.930 . S
H298 C321 0.930 . S
H299 C322 0.929 . S
O300 Tb256 2.465 . S
O300 C320 1.264 . S
O301 Tb256 2.387 . S
O301 C312 1.264 . S
O302 Tb267 2.349 1_455 S
O302 C312 1.243 . S
O303 Tb256 2.428 . S
O303 C320 1.256 . S
O304 Tb256 2.308 . S
O304 C319 1.266 1_455 S
O305 Tb267 2.393 . S
O305 C319 1.248 . S
O306 Tb267 2.465 . S
O306 C331 1.264 . S
O307 Tb267 2.387 . S
O307 C323 1.264 . S
O308 Tb256 2.349 . S
O308 C323 1.243 1_455 S
O309 Tb267 2.428 . S
O309 C331 1.256 . S
O310 Tb267 2.308 1_455 S
O310 C330 1.266 . S
O311 Tb256 2.393 . S
O311 C330 1.248 . S
C312 O301 1.264 . S
C312 O302 1.243 . S
C313 C316 1.399 . S
C313 C318 1.383 . S
C313 C320 1.496 . S
C314 C315 1.399 . S
C314 C318 1.389 . S
C315 C314 1.399 . S
C315 C317 1.380 . S
C315 H332 0.929 . S
C316 C313 1.399 . S
C316 C317 1.392 . S
C316 H333 0.929 . S
C317 C315 1.380 . S
C317 C316 1.392 . S
C317 H334 0.929 . S
C318 C313 1.383 . S
C318 C314 1.389 . S
C318 H335 0.931 . S
C319 O304 1.266 1_655 S
C319 O305 1.248 . S
C320 Tb256 2.802 . S
C320 O300 1.264 . S
C320 O303 1.256 . S
C320 C313 1.496 . S
C321 C288 1.448 . S
C321 H298 0.930 . S
C321 C322 1.328 . S
C322 C293 1.427 . S
C322 H299 0.929 . S
C322 C321 1.328 . S
C323 O307 1.264 . S
C323 O308 1.243 1_655 S
C324 C327 1.399 . S
C324 C328 1.383 . S
C324 C331 1.496 . S
C325 C326 1.399 . S
C325 C328 1.389 . S
C326 C325 1.399 . S
C326 C329 1.380 . S
C326 H336 0.929 . S
C327 C324 1.399 . S
C327 C329 1.392 . S
C327 H337 0.929 . S
C328 C324 1.383 . S
C328 C325 1.389 . S
C328 H338 0.931 . S
C329 C326 1.380 . S
C329 C327 1.392 . S
C329 H339 0.929 . S
C330 O310 1.266 . S
C330 O311 1.248 . S
C331 Tb267 2.802 . S
C331 O306 1.264 . S
C331 O309 1.256 . S
C331 C324 1.496 . S
H332 C315 0.929 . S
H333 C316 0.929 . S
H334 C317 0.929 . S
H335 C318 0.931 . S
H336 C326 0.929 . S
H337 C327 0.929 . S
H338 C328 0.931 . S
H339 C329 0.929 . S
Tb340 N369 2.617 . S
Tb340 N375 2.572 . S
Tb340 O384 2.465 . S
Tb340 O385 2.387 . S
Tb340 O387 2.428 . S
Tb340 O388 2.308 . S
Tb340 O392 2.349 . S
Tb340 O395 2.393 . S
Tb340 C404 2.802 . S
C341 N342 1.379 . S
C341 C344 1.416 . S
C341 C348 1.424 . S
N342 C341 1.379 . S
N342 C345 1.334 . S
N342 Tb351 2.617 . S
C343 C345 1.390 . S
C343 C346 1.339 . S
C343 H363 0.930 . S
C344 C341 1.416 . S
C344 C346 1.416 . S
C344 C350 1.448 . S
C345 N342 1.334 . S
C345 C343 1.390 . S
C345 H356 0.930 . S
C346 C343 1.339 . S
C346 C344 1.416 . S
C346 H367 0.930 . S
C347 C348 1.413 . S
C347 C349 1.427 . S
C347 C353 1.416 . S
C348 C341 1.424 . S
C348 C347 1.413 . S
C348 N352 1.361 . S
C349 C347 1.427 . S
C349 C350 1.328 . S
C349 H364 0.929 . S
C350 C344 1.448 . S
C350 C349 1.328 . S
C350 H365 0.930 . S
Tb351 N342 2.617 . S
Tb351 N352 2.572 . S
Tb351 O386 2.349 . S
Tb351 O389 2.393 . S
Tb351 O390 2.465 . S
Tb351 O391 2.387 . S
Tb351 O393 2.428 . S
Tb351 O394 2.308 . S
Tb351 C415 2.802 . S
N352 C348 1.361 . S
N352 Tb351 2.572 . S
N352 C354 1.340 . S
C353 C347 1.416 . S
C353 C355 1.332 . S
C353 H361 0.931 . S
C354 N352 1.340 . S
C354 C355 1.407 . S
C354 H360 0.930 . S
C355 C353 1.332 . S
C355 C354 1.407 . S
C355 H357 0.929 . S
H356 C345 0.930 . S
H357 C355 0.929 . S
H358 C373 0.930 . S
H359 C380 0.929 . S
H360 C354 0.930 . S
H361 C353 0.931 . S
H362 C376 0.930 . S
H363 C343 0.930 . S
H364 C349 0.929 . S
H365 C350 0.930 . S
H366 C371 0.930 . S
H367 C346 0.930 . S
H368 C379 0.931 . S
N369 Tb340 2.617 . S
N369 C370 1.379 . S
N369 C373 1.334 . S
C370 N369 1.379 . S
C370 C372 1.416 . S
C370 C378 1.424 . S
C371 H366 0.930 . S
C371 C373 1.390 . S
C371 C374 1.339 . S
C372 C370 1.416 . S
C372 C374 1.416 . S
C372 C405 1.448 . S
C373 H358 0.930 . S
C373 N369 1.334 . S
C373 C371 1.390 . S
C374 C371 1.339 . S
C374 C372 1.416 . S
C374 H381 0.930 . S
N375 Tb340 2.572 . S
N375 C376 1.340 . S
N375 C378 1.361 . S
C376 H362 0.930 . S
C376 N375 1.340 . S
C376 C380 1.407 . S
C377 C378 1.413 . S
C377 C379 1.416 . S
C377 C406 1.427 . S
C378 C370 1.424 . S
C378 N375 1.361 . S
C378 C377 1.413 . S
C379 H368 0.931 . S
C379 C377 1.416 . S
C379 C380 1.332 . S
C380 H359 0.929 . S
C380 C376 1.407 . S
C380 C379 1.332 . S
H381 C374 0.930 . S
H382 C405 0.930 . S
H383 C406 0.929 . S
O384 Tb340 2.465 . S
O384 C404 1.264 . S
O385 Tb340 2.387 . S
O385 C396 1.264 . S
O386 Tb351 2.349 . S
O386 C396 1.243 . S
O387 Tb340 2.428 . S
O387 C404 1.256 . S
O388 Tb340 2.308 . S
O388 C403 1.266 . S
O389 Tb351 2.393 . S
O389 C403 1.248 . S
O390 Tb351 2.465 . S
O390 C415 1.264 . S
O391 Tb351 2.387 . S
O391 C407 1.264 . S
O392 Tb340 2.349 . S
O392 C407 1.243 . S
O393 Tb351 2.428 . S
O393 C415 1.256 . S
O394 Tb351 2.308 . S
O394 C414 1.266 . S
O395 Tb340 2.393 . S
O395 C414 1.248 . S
C396 O385 1.264 . S
C396 O386 1.243 . S
C397 C400 1.399 . S
C397 C402 1.383 . S
C397 C404 1.496 . S
C398 C399 1.399 . S
C398 C402 1.389 . S
C399 C398 1.399 . S
C399 C401 1.380 . S
C399 H416 0.929 . S
C400 C397 1.399 . S
C400 C401 1.392 . S
C400 H417 0.929 . S
C401 C399 1.380 . S
C401 C400 1.392 . S
C401 H418 0.929 . S
C402 C397 1.383 . S
C402 C398 1.389 . S
C402 H419 0.931 . S
C403 O388 1.266 . S
C403 O389 1.248 . S
C404 Tb340 2.802 . S
C404 O384 1.264 . S
C404 O387 1.256 . S
C404 C397 1.496 . S
C405 C372 1.448 . S
C405 H382 0.930 . S
C405 C406 1.328 . S
C406 C377 1.427 . S
C406 H383 0.929 . S
C406 C405 1.328 . S
C407 O391 1.264 . S
C407 O392 1.243 . S
C408 C411 1.399 . S
C408 C412 1.383 . S
C408 C415 1.496 . S
C409 C410 1.399 . S
C409 C412 1.389 . S
C410 C409 1.399 . S
C410 C413 1.380 . S
C410 H420 0.929 . S
C411 C408 1.399 . S
C411 C413 1.392 . S
C411 H421 0.929 . S
C412 C408 1.383 . S
C412 C409 1.389 . S
C412 H422 0.931 . S
C413 C410 1.380 . S
C413 C411 1.392 . S
C413 H423 0.929 . S
C414 O394 1.266 . S
C414 O395 1.248 . S
C415 Tb351 2.802 . S
C415 O390 1.264 . S
C415 O393 1.256 . S
C415 C408 1.496 . S
H416 C399 0.929 . S
H417 C400 0.929 . S
H418 C401 0.929 . S
H419 C402 0.931 . S
H420 C410 0.929 . S
H421 C411 0.929 . S
H422 C412 0.931 . S
H423 C413 0.929 . S
Tb424 N453 2.617 . S
Tb424 N459 2.572 . S
Tb424 O468 2.465 . S
Tb424 O469 2.387 . S
Tb424 O471 2.428 . S
Tb424 O472 2.308 . S
Tb424 O476 2.349 . S
Tb424 O479 2.393 . S
Tb424 C488 2.802 . S
C425 N426 1.379 . S
C425 C428 1.416 . S
C425 C432 1.424 . S
N426 C425 1.379 . S
N426 C429 1.334 . S
N426 Tb435 2.617 . S
C427 C429 1.390 . S
C427 C430 1.339 . S
C427 H447 0.930 . S
C428 C425 1.416 . S
C428 C430 1.416 . S
C428 C434 1.448 . S
C429 N426 1.334 . S
C429 C427 1.390 . S
C429 H440 0.930 . S
C430 C427 1.339 . S
C430 C428 1.416 . S
C430 H451 0.930 . S
C431 C432 1.413 . S
C431 C433 1.427 . S
C431 C437 1.416 . S
C432 C425 1.424 . S
C432 C431 1.413 . S
C432 N436 1.361 . S
C433 C431 1.427 . S
C433 C434 1.328 . S
C433 H448 0.929 . S
C434 C428 1.448 . S
C434 C433 1.328 . S
C434 H449 0.930 . S
Tb435 N426 2.617 . S
Tb435 N436 2.572 . S
Tb435 O470 2.349 1_655 S
Tb435 O473 2.393 . S
Tb435 O474 2.465 . S
Tb435 O475 2.387 . S
Tb435 O477 2.428 . S
Tb435 O478 2.308 1_655 S
Tb435 C499 2.802 . S
N436 C432 1.361 . S
N436 Tb435 2.572 . S
N436 C438 1.340 . S
C437 C431 1.416 . S
C437 C439 1.332 . S
C437 H445 0.931 . S
C438 N436 1.340 . S
C438 C439 1.407 . S
C438 H444 0.930 . S
C439 C437 1.332 . S
C439 C438 1.407 . S
C439 H441 0.929 . S
H440 C429 0.930 . S
H441 C439 0.929 . S
H442 C457 0.930 . S
H443 C464 0.929 . S
H444 C438 0.930 . S
H445 C437 0.931 . S
H446 C460 0.930 . S
H447 C427 0.930 . S
H448 C433 0.929 . S
H449 C434 0.930 . S
H450 C455 0.930 . S
H451 C430 0.930 . S
H452 C463 0.931 . S
N453 Tb424 2.617 . S
N453 C454 1.379 . S
N453 C457 1.334 . S
C454 N453 1.379 . S
C454 C456 1.416 . S
C454 C462 1.424 . S
C455 H450 0.930 . S
C455 C457 1.390 . S
C455 C458 1.339 . S
C456 C454 1.416 . S
C456 C458 1.416 . S
C456 C489 1.448 . S
C457 H442 0.930 . S
C457 N453 1.334 . S
C457 C455 1.390 . S
C458 C455 1.339 . S
C458 C456 1.416 . S
C458 H465 0.930 . S
N459 Tb424 2.572 . S
N459 C460 1.340 . S
N459 C462 1.361 . S
C460 H446 0.930 . S
C460 N459 1.340 . S
C460 C464 1.407 . S
C461 C462 1.413 . S
C461 C463 1.416 . S
C461 C490 1.427 . S
C462 C454 1.424 . S
C462 N459 1.361 . S
C462 C461 1.413 . S
C463 H452 0.931 . S
C463 C461 1.416 . S
C463 C464 1.332 . S
C464 H443 0.929 . S
C464 C460 1.407 . S
C464 C463 1.332 . S
H465 C458 0.930 . S
H466 C489 0.930 . S
H467 C490 0.929 . S
O468 Tb424 2.465 . S
O468 C488 1.264 . S
O469 Tb424 2.387 . S
O469 C480 1.264 . S
O470 Tb435 2.349 1_455 S
O470 C480 1.243 . S
O471 Tb424 2.428 . S
O471 C488 1.256 . S
O472 Tb424 2.308 . S
O472 C487 1.266 1_455 S
O473 Tb435 2.393 . S
O473 C487 1.248 . S
O474 Tb435 2.465 . S
O474 C499 1.264 . S
O475 Tb435 2.387 . S
O475 C491 1.264 . S
O476 Tb424 2.349 . S
O476 C491 1.243 1_455 S
O477 Tb435 2.428 . S
O477 C499 1.256 . S
O478 Tb435 2.308 1_455 S
O478 C498 1.266 . S
O479 Tb424 2.393 . S
O479 C498 1.248 . S
C480 O469 1.264 . S
C480 O470 1.243 . S
C481 C484 1.399 . S
C481 C486 1.383 . S
C481 C488 1.496 . S
C482 C483 1.399 . S
C482 C486 1.389 . S
C483 C482 1.399 . S
C483 C485 1.380 . S
C483 H500 0.929 . S
C484 C481 1.399 . S
C484 C485 1.392 . S
C484 H501 0.929 . S
C485 C483 1.380 . S
C485 C484 1.392 . S
C485 H502 0.929 . S
C486 C481 1.383 . S
C486 C482 1.389 . S
C486 H503 0.931 . S
C487 O472 1.266 1_655 S
C487 O473 1.248 . S
C488 Tb424 2.802 . S
C488 O468 1.264 . S
C488 O471 1.256 . S
C488 C481 1.496 . S
C489 C456 1.448 . S
C489 H466 0.930 . S
C489 C490 1.328 . S
C490 C461 1.427 . S
C490 H467 0.929 . S
C490 C489 1.328 . S
C491 O475 1.264 . S
C491 O476 1.243 1_655 S
C492 C495 1.399 . S
C492 C496 1.383 . S
C492 C499 1.496 . S
C493 C494 1.399 . S
C493 C496 1.389 . S
C494 C493 1.399 . S
C494 C497 1.380 . S
C494 H504 0.929 . S
C495 C492 1.399 . S
C495 C497 1.392 . S
C495 H505 0.929 . S
C496 C492 1.383 . S
C496 C493 1.389 . S
C496 H506 0.931 . S
C497 C494 1.380 . S
C497 C495 1.392 . S
C497 H507 0.929 . S
C498 O478 1.266 . S
C498 O479 1.248 . S
C499 Tb435 2.802 . S
C499 O474 1.264 . S
C499 O477 1.256 . S
C499 C492 1.496 . S
H500 C483 0.929 . S
H501 C484 0.929 . S
H502 C485 0.929 . S
H503 C486 0.931 . S
H504 C494 0.929 . S
H505 C495 0.929 . S
H506 C496 0.931 . S
H507 C497 0.929 . S
Tb508 N537 2.617 . S
Tb508 N543 2.572 . S
Tb508 O552 2.465 . S
Tb508 O553 2.387 . S
Tb508 O555 2.428 . S
Tb508 O556 2.308 . S
Tb508 O560 2.349 . S
Tb508 O563 2.393 . S
Tb508 C572 2.802 . S
C509 N510 1.379 . S
C509 C512 1.416 . S
C509 C516 1.424 . S
N510 C509 1.379 . S
N510 C513 1.334 . S
N510 Tb519 2.617 . S
C511 C513 1.390 . S
C511 C514 1.339 . S
C511 H531 0.930 . S
C512 C509 1.416 . S
C512 C514 1.416 . S
C512 C518 1.448 . S
C513 N510 1.334 . S
C513 C511 1.390 . S
C513 H524 0.930 . S
C514 C511 1.339 . S
C514 C512 1.416 . S
C514 H535 0.930 . S
C515 C516 1.413 . S
C515 C517 1.427 . S
C515 C521 1.416 . S
C516 C509 1.424 . S
C516 C515 1.413 . S
C516 N520 1.361 . S
C517 C515 1.427 . S
C517 C518 1.328 . S
C517 H532 0.929 . S
C518 C512 1.448 . S
C518 C517 1.328 . S
C518 H533 0.930 . S
Tb519 N510 2.617 . S
Tb519 N520 2.572 . S
Tb519 O554 2.349 . S
Tb519 O557 2.393 . S
Tb519 O558 2.465 . S
Tb519 O559 2.387 . S
Tb519 O561 2.428 . S
Tb519 O562 2.308 . S
Tb519 C583 2.802 . S
N520 C516 1.361 . S
N520 Tb519 2.572 . S
N520 C522 1.340 . S
C521 C515 1.416 . S
C521 C523 1.332 . S
C521 H529 0.931 . S
C522 N520 1.340 . S
C522 C523 1.407 . S
C522 H528 0.930 . S
C523 C521 1.332 . S
C523 C522 1.407 . S
C523 H525 0.929 . S
H524 C513 0.930 . S
H525 C523 0.929 . S
H526 C541 0.930 . S
H527 C548 0.929 . S
H528 C522 0.930 . S
H529 C521 0.931 . S
H530 C544 0.930 . S
H531 C511 0.930 . S
H532 C517 0.929 . S
H533 C518 0.930 . S
H534 C539 0.930 . S
H535 C514 0.930 . S
H536 C547 0.931 . S
N537 Tb508 2.617 . S
N537 C538 1.379 . S
N537 C541 1.334 . S
C538 N537 1.379 . S
C538 C540 1.416 . S
C538 C546 1.424 . S
C539 H534 0.930 . S
C539 C541 1.390 . S
C539 C542 1.339 . S
C540 C538 1.416 . S
C540 C542 1.416 . S
C540 C573 1.448 . S
C541 H526 0.930 . S
C541 N537 1.334 . S
C541 C539 1.390 . S
C542 C539 1.339 . S
C542 C540 1.416 . S
C542 H549 0.930 . S
N543 Tb508 2.572 . S
N543 C544 1.340 . S
N543 C546 1.361 . S
C544 H530 0.930 . S
C544 N543 1.340 . S
C544 C548 1.407 . S
C545 C546 1.413 . S
C545 C547 1.416 . S
C545 C574 1.427 . S
C546 C538 1.424 . S
C546 N543 1.361 . S
C546 C545 1.413 . S
C547 H536 0.931 . S
C547 C545 1.416 . S
C547 C548 1.332 . S
C548 H527 0.929 . S
C548 C544 1.407 . S
C548 C547 1.332 . S
H549 C542 0.930 . S
H550 C573 0.930 . S
H551 C574 0.929 . S
O552 Tb508 2.465 . S
O552 C572 1.264 . S
O553 Tb508 2.387 . S
O553 C564 1.264 . S
O554 Tb519 2.349 . S
O554 C564 1.243 . S
O555 Tb508 2.428 . S
O555 C572 1.256 . S
O556 Tb508 2.308 . S
O556 C571 1.266 . S
O557 Tb519 2.393 . S
O557 C571 1.248 . S
O558 Tb519 2.465 . S
O558 C583 1.264 . S
O559 Tb519 2.387 . S
O559 C575 1.264 . S
O560 Tb508 2.349 . S
O560 C575 1.243 . S
O561 Tb519 2.428 . S
O561 C583 1.256 . S
O562 Tb519 2.308 . S
O562 C582 1.266 . S
O563 Tb508 2.393 . S
O563 C582 1.248 . S
C564 O553 1.264 . S
C564 O554 1.243 . S
C565 C568 1.399 . S
C565 C570 1.383 . S
C565 C572 1.496 . S
C566 C567 1.399 . S
C566 C570 1.389 . S
C567 C566 1.399 . S
C567 C569 1.380 . S
C567 H584 0.929 . S
C568 C565 1.399 . S
C568 C569 1.392 . S
C568 H585 0.929 . S
C569 C567 1.380 . S
C569 C568 1.392 . S
C569 H586 0.929 . S
C570 C565 1.383 . S
C570 C566 1.389 . S
C570 H587 0.931 . S
C571 O556 1.266 . S
C571 O557 1.248 . S
C572 Tb508 2.802 . S
C572 O552 1.264 . S
C572 O555 1.256 . S
C572 C565 1.496 . S
C573 C540 1.448 . S
C573 H550 0.930 . S
C573 C574 1.328 . S
C574 C545 1.427 . S
C574 H551 0.929 . S
C574 C573 1.328 . S
C575 O559 1.264 . S
C575 O560 1.243 . S
C576 C579 1.399 . S
C576 C580 1.383 . S
C576 C583 1.496 . S
C577 C578 1.399 . S
C577 C580 1.389 . S
C578 C577 1.399 . S
C578 C581 1.380 . S
C578 H588 0.929 . S
C579 C576 1.399 . S
C579 C581 1.392 . S
C579 H589 0.929 . S
C580 C576 1.383 . S
C580 C577 1.389 . S
C580 H590 0.931 . S
C581 C578 1.380 . S
C581 C579 1.392 . S
C581 H591 0.929 . S
C582 O562 1.266 . S
C582 O563 1.248 . S
C583 Tb519 2.802 . S
C583 O558 1.264 . S
C583 O561 1.256 . S
C583 C576 1.496 . S
H584 C567 0.929 . S
H585 C568 0.929 . S
H586 C569 0.929 . S
H587 C570 0.931 . S
H588 C578 0.929 . S
H589 C579 0.929 . S
H590 C580 0.931 . S
H591 C581 0.929 . S
H592 C598 0.930 . S
H593 C601 0.930 . S
H594 C602 0.930 . S
H595 C603 0.930 . S
H596 C606 0.930 . S
H597 C607 0.930 . S
C598 H592 0.930 . S
C598 C599 1.355 1_545 S
C598 C600 1.415 . S
C599 C598 1.355 1_565 S
C599 C601 1.419 . S
C600 C598 1.415 . S
C600 C605 1.425 . S
C600 C607 1.409 . S
C601 H593 0.930 . S
C601 C599 1.419 . S
C601 C602 1.362 . S
C602 H594 0.930 . S
C602 C601 1.362 . S
C602 C605 1.409 1_565 S
C603 H595 0.930 . S
C603 C604 1.355 . S
C603 C605 1.415 . S
C604 C603 1.355 . S
C604 C606 1.419 . S
C605 C600 1.425 . S
C605 C602 1.409 1_545 S
C605 C603 1.415 . S
C606 H596 0.930 . S
C606 C604 1.419 . S
C606 C607 1.362 . S
C607 H597 0.930 . S
C607 C600 1.409 . S
C607 C606 1.362 . S
H608 C614 0.930 . S
H609 C617 0.930 . S
H610 C618 0.930 . S
H611 C619 0.930 . S
H612 C622 0.930 . S
H613 C623 0.930 . S
C614 H608 0.930 . S
C614 C615 1.355 . S
C614 C616 1.415 . S
C615 C614 1.355 . S
C615 C617 1.419 . S
C616 C614 1.415 . S
C616 C621 1.425 . S
C616 C623 1.409 . S
C617 H609 0.930 . S
C617 C615 1.419 . S
C617 C618 1.362 . S
C618 H610 0.930 . S
C618 C617 1.362 . S
C618 C621 1.409 . S
C619 H611 0.930 . S
C619 C620 1.355 . S
C619 C621 1.415 . S
C620 C619 1.355 . S
C620 C622 1.419 . S
C621 C616 1.425 . S
C621 C618 1.409 . S
C621 C619 1.415 . S
C622 H612 0.930 . S
C622 C620 1.419 . S
C622 C623 1.362 . S
C623 H613 0.930 . S
C623 C616 1.409 . S
C623 C622 1.362 . S
H624 C630 0.930 . S
H625 C633 0.930 . S
H626 C634 0.930 . S
H627 C635 0.930 . S
H628 C638 0.930 . S
H629 C639 0.930 . S
C630 H624 0.930 . S
C630 C631 1.355 . S
C630 C632 1.415 . S
C631 C630 1.355 . S
C631 C633 1.419 . S
C632 C630 1.415 . S
C632 C637 1.425 . S
C632 C639 1.409 . S
C633 H625 0.930 . S
C633 C631 1.419 . S
C633 C634 1.362 . S
C634 H626 0.930 . S
C634 C633 1.362 . S
C634 C637 1.409 . S
C635 H627 0.930 . S
C635 C636 1.355 . S
C635 C637 1.415 . S
C636 C635 1.355 . S
C636 C638 1.419 . S
C637 C632 1.425 . S
C637 C634 1.409 . S
C637 C635 1.415 . S
C638 H628 0.930 . S
C638 C636 1.419 . S
C638 C639 1.362 . S
C639 H629 0.930 . S
C639 C632 1.409 . S
C639 C638 1.362 . S
H640 C646 0.930 . S
H641 C649 0.930 . S
H642 C650 0.930 . S
H643 C651 0.930 . S
H644 C654 0.930 . S
H645 C655 0.930 . S
C646 H640 0.930 . S
C646 C647 1.355 1_545 S
C646 C648 1.415 . S
C647 C646 1.355 1_565 S
C647 C649 1.419 . S
C648 C646 1.415 . S
C648 C653 1.425 . S
C648 C655 1.409 . S
C649 H641 0.930 . S
C649 C647 1.419 . S
C649 C650 1.362 1_565 S
C650 H642 0.930 . S
C650 C649 1.362 1_545 S
C650 C653 1.409 . S
C651 H643 0.930 . S
C651 C652 1.355 . S
C651 C653 1.415 . S
C652 C651 1.355 . S
C652 C654 1.419 . S
C653 C648 1.425 . S
C653 C650 1.409 . S
C653 C651 1.415 . S
C654 H644 0.930 . S
C654 C652 1.419 . S
C654 C655 1.362 . S
C655 H645 0.930 . S
C655 C648 1.409 . S
C655 C654 1.362 . S
H656 C662 0.930 . S
H657 C665 0.930 . S
H658 C666 0.930 . S
H659 C667 0.930 . S
H660 C670 0.930 . S
H661 C671 0.930 1_545 S
C662 H656 0.930 . S
C662 C663 1.355 . S
C662 C664 1.415 1_545 S
C663 C662 1.355 . S
C663 C665 1.419 1_545 S
C664 C662 1.415 1_565 S
C664 C669 1.425 . S
C664 C671 1.409 . S
C665 H657 0.930 . S
C665 C663 1.419 1_565 S
C665 C666 1.362 . S
C666 H658 0.930 . S
C666 C665 1.362 . S
C666 C669 1.409 . S
C667 H659 0.930 . S
C667 C668 1.355 . S
C667 C669 1.415 . S
C668 C667 1.355 . S
C668 C670 1.419 . S
C669 C664 1.425 . S
C669 C666 1.409 . S
C669 C667 1.415 . S
C670 H660 0.930 . S
C670 C668 1.419 . S
C670 C671 1.362 . S
C671 H661 0.930 1_565 S
C671 C664 1.409 . S
C671 C670 1.362 . S
H672 C678 0.930 . S
H673 C681 0.930 . S
H674 C682 0.930 . S
H675 C683 0.930 . S
H676 C686 0.930 . S
H677 C687 0.930 . S
C678 H672 0.930 . S
C678 C679 1.355 . S
C678 C680 1.415 . S
C679 C678 1.355 . S
C679 C681 1.419 . S
C680 C678 1.415 . S
C680 C685 1.425 . S
C680 C687 1.409 . S
C681 H673 0.930 . S
C681 C679 1.419 . S
C681 C682 1.362 . S
C682 H674 0.930 . S
C682 C681 1.362 . S
C682 C685 1.409 . S
C683 H675 0.930 . S
C683 C684 1.355 . S
C683 C685 1.415 . S
C684 C683 1.355 . S
C684 C686 1.419 . S
C685 C680 1.425 . S
C685 C682 1.409 . S
C685 C683 1.415 . S
C686 H676 0.930 . S
C686 C684 1.419 . S
C686 C687 1.362 . S
C687 H677 0.930 . S
C687 C680 1.409 . S
C687 C686 1.362 . S
H688 C694 0.930 . S
H689 C697 0.930 . S
H690 C698 0.930 . S
H691 C699 0.930 . S
H692 C702 0.930 . S
H693 C703 0.930 . S
C694 H688 0.930 . S
C694 C695 1.355 . S
C694 C696 1.415 . S
C695 C694 1.355 . S
C695 C697 1.419 . S
C696 C694 1.415 . S
C696 C701 1.425 . S
C696 C703 1.409 . S
C697 H689 0.930 . S
C697 C695 1.419 . S
C697 C698 1.362 . S
C698 H690 0.930 . S
C698 C697 1.362 . S
C698 C701 1.409 . S
C699 H691 0.930 . S
C699 C700 1.355 . S
C699 C701 1.415 . S
C700 C699 1.355 . S
C700 C702 1.419 . S
C701 C696 1.425 . S
C701 C698 1.409 . S
C701 C699 1.415 . S
C702 H692 0.930 . S
C702 C700 1.419 . S
C702 C703 1.362 . S
C703 H693 0.930 . S
C703 C696 1.409 . S
C703 C702 1.362 . S
H704 C710 0.930 . S
H705 C713 0.930 . S
H706 C714 0.930 . S
H707 C715 0.930 . S
H708 C718 0.930 . S
H709 C719 0.930 . S
C710 H704 0.930 . S
C710 C711 1.355 1_565 S
C710 C712 1.415 . S
C711 C710 1.355 1_545 S
C711 C713 1.419 . S
C712 C710 1.415 . S
C712 C717 1.425 . S
C712 C719 1.409 . S
C713 H705 0.930 . S
C713 C711 1.419 . S
C713 C714 1.362 1_545 S
C714 H706 0.930 . S
C714 C713 1.362 1_565 S
C714 C717 1.409 . S
C715 H707 0.930 . S
C715 C716 1.355 . S
C715 C717 1.415 . S
C716 C715 1.355 . S
C716 C718 1.419 . S
C717 C712 1.425 . S
C717 C714 1.409 . S
C717 C715 1.415 . S
C718 H708 0.930 . S
C718 C716 1.419 . S
C718 C719 1.362 . S
C719 H709 0.930 . S
C719 C712 1.409 . S
C719 C718 1.362 . S
H720 C726 0.930 . S
H721 C729 0.930 1_556 S
H722 C730 0.930 . S
H723 C731 0.930 . S
H724 C734 0.930 . S
H725 C735 0.930 . S
C726 H720 0.930 . S
C726 C727 1.355 . S
C726 C728 1.415 . S
C727 C726 1.355 . S
C727 C729 1.419 . S
C728 C726 1.415 . S
C728 C733 1.425 . S
C728 C735 1.409 . S
C729 H721 0.930 1_554 S
C729 C727 1.419 . S
C729 C730 1.362 . S
C730 H722 0.930 . S
C730 C729 1.362 . S
C730 C733 1.409 . S
C731 H723 0.930 . S
C731 C732 1.355 . S
C731 C733 1.415 . S
C732 C731 1.355 . S
C732 C734 1.419 . S
C733 C728 1.425 . S
C733 C730 1.409 . S
C733 C731 1.415 . S
C734 H724 0.930 . S
C734 C732 1.419 . S
C734 C735 1.362 . S
C735 H725 0.930 . S
C735 C728 1.409 . S
C735 C734 1.362 . S
H736 C742 0.930 . S
H737 C745 0.930 . S
H738 C746 0.930 . S
H739 C747 0.930 . S
H740 C750 0.930 . S
H741 C751 0.930 . S
C742 H736 0.930 . S
C742 C743 1.355 . S
C742 C744 1.415 . S
C743 C742 1.355 . S
C743 C745 1.419 . S
C744 C742 1.415 . S
C744 C749 1.425 . S
C744 C751 1.409 . S
C745 H737 0.930 . S
C745 C743 1.419 . S
C745 C746 1.362 . S
C746 H738 0.930 . S
C746 C745 1.362 . S
C746 C749 1.409 . S
C747 H739 0.930 . S
C747 C748 1.355 . S
C747 C749 1.415 . S
C748 C747 1.355 . S
C748 C750 1.419 . S
C749 C744 1.425 . S
C749 C746 1.409 . S
C749 C747 1.415 . S
C750 H740 0.930 . S
C750 C748 1.419 . S
C750 C751 1.362 . S
C751 H741 0.930 . S
C751 C744 1.409 . S
C751 C750 1.362 . S
H752 C758 0.930 . S
H753 C761 0.930 1_554 S
H754 C762 0.930 . S
H755 C763 0.930 . S
H756 C766 0.930 . S
H757 C767 0.930 . S
C758 H752 0.930 . S
C758 C759 1.355 1_556 S
C758 C760 1.415 . S
C759 C758 1.355 1_554 S
C759 C761 1.419 1_554 S
C760 C758 1.415 . S
C760 C765 1.425 . S
C760 C767 1.409 . S
C761 H753 0.930 1_556 S
C761 C759 1.419 1_556 S
C761 C762 1.362 . S
C762 H754 0.930 . S
C762 C761 1.362 . S
C762 C765 1.409 . S
C763 H755 0.930 . S
C763 C764 1.355 . S
C763 C765 1.415 . S
C764 C763 1.355 . S
C764 C766 1.419 . S
C765 C760 1.425 . S
C765 C762 1.409 . S
C765 C763 1.415 . S
C766 H756 0.930 . S
C766 C764 1.419 . S
C766 C767 1.362 . S
C767 H757 0.930 . S
C767 C760 1.409 . S
C767 C766 1.362 . S
H768 C774 0.930 . S
H769 C777 0.930 . S
H770 C778 0.930 . S
H771 C779 0.930 . S
H772 C782 0.930 . S
H773 C783 0.930 . S
C774 H768 0.930 . S
C774 C775 1.355 . S
C774 C776 1.415 . S
C775 C774 1.355 . S
C775 C777 1.419 . S
C776 C774 1.415 . S
C776 C781 1.425 . S
C776 C783 1.409 . S
C777 H769 0.930 . S
C777 C775 1.419 . S
C777 C778 1.362 . S
C778 H770 0.930 . S
C778 C777 1.362 . S
C778 C781 1.409 . S
C779 H771 0.930 . S
C779 C780 1.355 . S
C779 C781 1.415 . S
C780 C779 1.355 . S
C780 C782 1.419 . S
C781 C776 1.425 . S
C781 C778 1.409 . S
C781 C779 1.415 . S
C782 H772 0.930 . S
C782 C780 1.419 . S
C782 C783 1.362 . S
C783 H773 0.930 . S
C783 C776 1.409 . S
C783 C782 1.362 . S
H784 C790 0.930 1_554 S
H785 C793 0.930 . S
H786 C794 0.930 . S
H787 C795 0.930 . S
H788 C798 0.930 . S
H789 C799 0.930 . S
C790 H784 0.930 1_556 S
C790 C791 1.370 . S
C790 C792 1.415 . S
C791 C790 1.370 . S
C791 C793 1.450 . S
C792 C790 1.415 . S
C792 C797 1.425 . S
C792 C799 1.409 . S
C793 H785 0.930 . S
C793 C791 1.450 . S
C793 C794 1.362 . S
C794 H786 0.930 . S
C794 C793 1.362 . S
C794 C797 1.409 . S
C795 H787 0.930 . S
C795 C796 1.355 . S
C795 C797 1.415 . S
C796 C795 1.355 . S
C796 C798 1.419 . S
C797 C792 1.425 . S
C797 C794 1.409 . S
C797 C795 1.415 . S
C798 H788 0.930 . S
C798 C796 1.419 . S
C798 C799 1.362 . S
C799 H789 0.930 . S
C799 C792 1.409 . S
C799 C798 1.362 . S
H800 C806 0.930 . S
H801 C809 0.930 . S
H802 C810 0.930 . S
H803 C811 0.930 . S
H804 C814 0.930 . S
H805 C815 0.930 . S
C806 H800 0.930 . S
C806 C807 1.355 . S
C806 C808 1.415 . S
C807 C806 1.355 . S
C807 C809 1.419 . S
C808 C806 1.415 . S
C808 C813 1.425 . S
C808 C815 1.409 . S
C809 H801 0.930 . S
C809 C807 1.419 . S
C809 C810 1.362 . S
C810 H802 0.930 . S
C810 C809 1.362 . S
C810 C813 1.409 . S
C811 H803 0.930 . S
C811 C812 1.355 . S
C811 C813 1.415 . S
C812 C811 1.355 . S
C812 C814 1.419 . S
C813 C808 1.425 . S
C813 C810 1.409 . S
C813 C811 1.415 . S
C814 H804 0.930 . S
C814 C812 1.419 . S
C814 C815 1.362 . S
C815 H805 0.930 . S
C815 C808 1.409 . S
C815 C814 1.362 . S
H816 C822 0.930 . S
H817 C825 0.930 1_556 S
H818 C826 0.930 . S
H819 C827 0.930 . S
H820 C830 0.930 . S
H821 C831 0.930 . S
C822 H816 0.930 . S
C822 C823 1.364 . S
C822 C824 1.415 . S
C823 C822 1.364 . S
C823 C825 1.424 . S
C824 C822 1.415 . S
C824 C829 1.425 . S
C824 C831 1.409 . S
C825 H817 0.930 1_554 S
C825 C823 1.424 . S
C825 C826 1.362 . S
C826 H818 0.930 . S
C826 C825 1.362 . S
C826 C829 1.409 . S
C827 H819 0.930 . S
C827 C828 1.355 . S
C827 C829 1.415 . S
C828 C827 1.355 . S
C828 C830 1.419 . S
C829 C824 1.425 . S
C829 C826 1.409 . S
C829 C827 1.415 . S
C830 H820 0.930 . S
C830 C828 1.419 . S
C830 C831 1.362 . S
C831 H821 0.930 . S
C831 C824 1.409 . S
C831 C830 1.362 . S
H832 C838 0.930 . S
H833 C841 0.930 . S
H834 C842 0.930 . S
H835 C843 0.930 . S
H836 C846 0.930 . S
H837 C847 0.930 . S
C838 H832 0.930 . S
C838 C839 1.355 . S
C838 C840 1.415 . S
C839 C838 1.355 . S
C839 C841 1.419 . S
C840 C838 1.415 . S
C840 C845 1.425 . S
C840 C847 1.409 . S
C841 H833 0.930 . S
C841 C839 1.419 . S
C841 C842 1.362 . S
C842 H834 0.930 . S
C842 C841 1.362 . S
C842 C845 1.409 . S
C843 H835 0.930 . S
C843 C844 1.355 . S
C843 C845 1.415 . S
C844 C843 1.355 . S
C844 C846 1.419 . S
C845 C840 1.425 . S
C845 C842 1.409 . S
C845 C843 1.415 . S
C846 H836 0.930 . S
C846 C844 1.419 . S
C846 C847 1.362 . S
C847 H837 0.930 . S
C847 C840 1.409 . S
C847 C846 1.362 . S
H848 C854 0.930 . S
H849 C857 0.930 . S
H850 C858 0.930 . S
H851 C859 0.930 . S
H852 C862 0.930 . S
H853 C863 0.930 . S
C854 H848 0.930 . S
C854 C855 1.355 . S
C854 C856 1.415 . S
C855 C854 1.355 . S
C855 C857 1.419 . S
C856 C854 1.415 . S
C856 C861 1.425 . S
C856 C863 1.409 . S
C857 H849 0.930 . S
C857 C855 1.419 . S
C857 C858 1.362 . S
C858 H850 0.930 . S
C858 C857 1.362 . S
C858 C861 1.409 . S
C859 H851 0.930 . S
C859 C860 1.355 . S
C859 C861 1.415 . S
C860 C859 1.355 . S
C860 C862 1.419 . S
C861 C856 1.425 . S
C861 C858 1.409 . S
C861 C859 1.415 . S
C862 H852 0.930 . S
C862 C860 1.419 . S
C862 C863 1.362 . S
C863 H853 0.930 . S
C863 C856 1.409 . S
C863 C862 1.362 . S
H864 C870 0.930 . S
H865 C873 0.930 . S
H866 C874 0.930 . S
H867 C875 0.930 . S
H868 C878 0.930 . S
H869 C879 0.930 . S
C870 H864 0.930 . S
C870 C871 1.355 . S
C870 C872 1.415 . S
C871 C870 1.355 . S
C871 C873 1.419 . S
C872 C870 1.415 . S
C872 C877 1.425 . S
C872 C879 1.409 . S
C873 H865 0.930 . S
C873 C871 1.419 . S
C873 C874 1.362 . S
C874 H866 0.930 . S
C874 C873 1.362 . S
C874 C877 1.409 . S
C875 H867 0.930 . S
C875 C876 1.355 . S
C875 C877 1.415 . S
C876 C875 1.355 . S
C876 C878 1.419 . S
C877 C872 1.425 . S
C877 C874 1.409 . S
C877 C875 1.415 . S
C878 H868 0.930 . S
C878 C876 1.419 . S
C878 C879 1.362 . S
C879 H869 0.930 . S
C879 C872 1.409 . S
C879 C878 1.362 . S
H880 C886 0.930 . S
H881 C889 0.930 . S
H882 C890 0.930 . S
H883 C891 0.930 . S
H884 C894 0.930 . S
H885 C895 0.930 . S
C886 H880 0.930 . S
C886 C887 1.355 . S
C886 C888 1.415 . S
C887 C886 1.355 . S
C887 C889 1.419 . S
C888 C886 1.415 . S
C888 C893 1.425 . S
C888 C895 1.409 . S
C889 H881 0.930 . S
C889 C887 1.419 . S
C889 C890 1.362 . S
C890 H882 0.930 . S
C890 C889 1.362 . S
C890 C893 1.409 . S
C891 H883 0.930 . S
C891 C892 1.355 . S
C891 C893 1.415 . S
C892 C891 1.355 . S
C892 C894 1.419 . S
C893 C888 1.425 . S
C893 C890 1.409 . S
C893 C891 1.415 . S
C894 H884 0.930 . S
C894 C892 1.419 . S
C894 C895 1.362 . S
C895 H885 0.930 . S
C895 C888 1.409 . S
C895 C894 1.362 . S
H896 C902 0.930 . S
H897 C905 0.930 . S
H898 C906 0.930 . S
H899 C907 0.930 . S
H900 C910 0.930 1_455 S
H901 C911 0.930 1_455 S
C902 H896 0.930 . S
C902 C903 1.355 . S
C902 C904 1.415 . S
C903 C902 1.355 . S
C903 C905 1.419 . S
C904 C902 1.415 . S
C904 C909 1.425 . S
C904 C911 1.409 . S
C905 H897 0.930 . S
C905 C903 1.419 . S
C905 C906 1.362 . S
C906 H898 0.930 . S
C906 C905 1.362 . S
C906 C909 1.409 . S
C907 H899 0.930 . S
C907 C908 1.355 . S
C907 C909 1.415 . S
C908 C907 1.355 . S
C908 C910 1.419 . S
C909 C904 1.425 . S
C909 C906 1.409 . S
C909 C907 1.415 . S
C910 H900 0.930 1_655 S
C910 C908 1.419 . S
C910 C911 1.362 . S
C911 H901 0.930 1_655 S
C911 C904 1.409 . S
C911 C910 1.362 . S
H912 C918 0.930 . S
H913 C921 0.930 . S
H914 C922 0.930 . S
H915 C923 0.930 . S
H916 C926 0.930 . S
H917 C927 0.930 . S
C918 H912 0.930 . S
C918 C919 1.355 . S
C918 C920 1.415 . S
C919 C918 1.355 . S
C919 C921 1.419 . S
C920 C918 1.415 . S
C920 C925 1.425 . S
C920 C927 1.409 . S
C921 H913 0.930 . S
C921 C919 1.419 . S
C921 C922 1.362 . S
C922 H914 0.930 . S
C922 C921 1.362 . S
C922 C925 1.409 . S
C923 H915 0.930 . S
C923 C924 1.355 . S
C923 C925 1.415 . S
C924 C923 1.355 . S
C924 C926 1.419 . S
C925 C920 1.425 . S
C925 C922 1.409 . S
C925 C923 1.415 . S
C926 H916 0.930 . S
C926 C924 1.419 . S
C926 C927 1.362 . S
C927 H917 0.930 . S
C927 C920 1.409 . S
C927 C926 1.362 . S
H928 C934 0.930 . S
H929 C937 0.930 . S
H930 C938 0.930 . S
H931 C939 0.930 . S
H932 C942 0.930 . S
H933 C943 0.930 . S
C934 H928 0.930 . S
C934 C935 1.355 . S
C934 C936 1.415 . S
C935 C934 1.355 . S
C935 C937 1.419 . S
C936 C934 1.415 . S
C936 C941 1.425 . S
C936 C943 1.409 . S
C937 H929 0.930 . S
C937 C935 1.419 . S
C937 C938 1.362 . S
C938 H930 0.930 . S
C938 C937 1.362 . S
C938 C941 1.409 . S
C939 H931 0.930 . S
C939 C940 1.355 . S
C939 C941 1.415 . S
C940 C939 1.355 . S
C940 C942 1.419 . S
C941 C936 1.425 . S
C941 C938 1.409 . S
C941 C939 1.415 . S
C942 H932 0.930 . S
C942 C940 1.419 . S
C942 C943 1.362 . S
C943 H933 0.930 . S
C943 C936 1.409 . S
C943 C942 1.362 . S
H944 C950 0.930 . S
H945 C953 0.930 . S
H946 C954 0.930 . S
H947 C955 0.930 . S
H948 C958 0.930 . S
H949 C959 0.930 . S
C950 H944 0.930 . S
C950 C951 1.355 . S
C950 C952 1.415 . S
C951 C950 1.355 . S
C951 C953 1.419 . S
C952 C950 1.415 . S
C952 C957 1.425 . S
C952 C959 1.409 . S
C953 H945 0.930 . S
C953 C951 1.419 . S
C953 C954 1.362 . S
C954 H946 0.930 . S
C954 C953 1.362 . S
C954 C957 1.409 . S
C955 H947 0.930 . S
C955 C956 1.355 . S
C955 C957 1.415 . S
C956 C955 1.355 . S
C956 C958 1.419 . S
C957 C952 1.425 . S
C957 C954 1.409 . S
C957 C955 1.415 . S
C958 H948 0.930 . S
C958 C956 1.419 . S
C958 C959 1.362 . S
C959 H949 0.930 . S
C959 C952 1.409 . S
C959 C958 1.362 . S
H960 C966 0.930 . S
H961 C969 0.930 . S
H962 C970 0.930 . S
H963 C971 0.930 . S
H964 C974 0.930 . S
H965 C975 0.930 . S
C966 H960 0.930 . S
C966 C967 1.355 . S
C966 C968 1.415 . S
C967 C966 1.355 . S
C967 C969 1.419 . S
C968 C966 1.415 . S
C968 C973 1.425 . S
C968 C975 1.409 . S
C969 H961 0.930 . S
C969 C967 1.419 . S
C969 C970 1.362 . S
C970 H962 0.930 . S
C970 C969 1.362 . S
C970 C973 1.409 . S
C971 H963 0.930 . S
C971 C972 1.355 . S
C971 C973 1.415 . S
C972 C971 1.355 . S
C972 C974 1.419 . S
C973 C968 1.425 . S
C973 C970 1.409 . S
C973 C971 1.415 . S
C974 H964 0.930 . S
C974 C972 1.419 . S
C974 C975 1.362 . S
C975 H965 0.930 . S
C975 C968 1.409 . S
C975 C974 1.362 . S
C599 C221 1.488 . S
C604 C330 1.481 . S
C620 C414 1.467 . S
C615 C241 1.478 . S
C636 C407 1.474 . S
C631 C157 1.448 . S
C647 C177 1.422 . S
C652 C323 1.481 . S
C668 C487 1.449 . S
C663 C93 1.444 . S
C684 C571 1.457 . S
C679 C113 1.496 . S
C695 C29 1.441 . S
C700 C564 1.486 . S
C711 C49 1.461 . S
C716 C480 1.483 . S
C732 C314 1.259 . S
C727 C61 1.517 1_554 S
C748 C398 1.300 . S
C743 C17 1.449 . S
C764 C409 1.355 . S
C759 C125 1.511 . S
C780 C325 1.439 . S
C775 C81 1.478 . S
C796 C493 1.384 . S
C791 C189 1.440 1_556 S
C807 C145 1.487 . S
C812 C577 1.369 . S
C828 C566 1.335 . S
C823 C253 1.452 1_554 S
C839 C209 1.530 . S
C844 C482 1.343 . S
C860 C312 1.540 . S
C855 C23 1.477 . S
C876 C396 1.553 . S
C871 C55 1.529 . S
C887 C87 1.495 . S
C892 C403 1.546 . S
C908 C319 1.530 . S
C903 C119 1.555 . S
C924 C491 1.552 . S
C919 C151 1.558 . S
C935 C183 1.465 . S
C940 C575 1.565 . S
C951 C215 1.515 . S
C956 C582 1.533 . S
C967 C247 1.473 . S
C972 C498 1.528 . S
