# Generated by pormake.
# Topology zzz, (3,6)-cn, num edge types: 1
# Building blocks:
#     Node 0, Type 0, BuildingBlock: BETDAH_clean_linker_0, # of connection points: 3
#     Node 1, Type 0, BuildingBlock: BETDAH_clean_linker_0, # of connection points: 3
#     Node 2, Type 0, BuildingBlock: BETDAH_clean_linker_0, # of connection points: 3
#     Node 3, Type 0, BuildingBlock: BETDAH_clean_linker_0, # of connection points: 3
#     Node 4, Type 0, BuildingBlock: BETDAH_clean_linker_0, # of connection points: 3
#     Node 5, Type 0, BuildingBlock: BETDAH_clean_linker_0, # of connection points: 3
#     Node 6, Type 0, BuildingBlock: BETDAH_clean_linker_0, # of connection points: 3
#     Node 7, Type 0, BuildingBlock: BETDAH_clean_linker_0, # of connection points: 3
#     Node 8, Type 1, BuildingBlock: VOLQOD_clean_sbu_1, # of connection points: 6
#     Node 9, Type 1, BuildingBlock: VOLQOD_clean_sbu_1, # of connection points: 6
#     Node 10, Type 1, BuildingBlock: VOLQOD_clean_sbu_1, # of connection points: 6
#     Node 11, Type 1, BuildingBlock: VOLQOD_clean_sbu_1, # of connection points: 6
#     Edge 12, Type (0, 1), BuildingBlock: AJUNOK_clean_linker_0, # of connection points: 2
#     Edge 13, Type (0, 1), BuildingBlock: AJUNOK_clean_linker_0, # of connection points: 2
#     Edge 14, Type (0, 1), BuildingBlock: AJUNOK_clean_linker_0, # of connection points: 2
#     Edge 15, Type (0, 1), BuildingBlock: AJUNOK_clean_linker_0, # of connection points: 2
#     Edge 16, Type (0, 1), BuildingBlock: AJUNOK_clean_linker_0, # of connection points: 2
#     Edge 17, Type (0, 1), BuildingBlock: AJUNOK_clean_linker_0, # of connection points: 2
#     Edge 18, Type (0, 1), BuildingBlock: AJUNOK_clean_linker_0, # of connection points: 2
#     Edge 19, Type (0, 1), BuildingBlock: AJUNOK_clean_linker_0, # of connection points: 2
#     Edge 20, Type (0, 1), BuildingBlock: AJUNOK_clean_linker_0, # of connection points: 2
#     Edge 21, Type (0, 1), BuildingBlock: AJUNOK_clean_linker_0, # of connection points: 2
#     Edge 22, Type (0, 1), BuildingBlock: AJUNOK_clean_linker_0, # of connection points: 2
#     Edge 23, Type (0, 1), BuildingBlock: AJUNOK_clean_linker_0, # of connection points: 2
#     Edge 24, Type (0, 1), BuildingBlock: AJUNOK_clean_linker_0, # of connection points: 2
#     Edge 25, Type (0, 1), BuildingBlock: AJUNOK_clean_linker_0, # of connection points: 2
#     Edge 26, Type (0, 1), BuildingBlock: AJUNOK_clean_linker_0, # of connection points: 2
#     Edge 27, Type (0, 1), BuildingBlock: AJUNOK_clean_linker_0, # of connection points: 2
#     Edge 28, Type (0, 1), BuildingBlock: AJUNOK_clean_linker_0, # of connection points: 2
#     Edge 29, Type (0, 1), BuildingBlock: AJUNOK_clean_linker_0, # of connection points: 2
#     Edge 30, Type (0, 1), BuildingBlock: AJUNOK_clean_linker_0, # of connection points: 2
#     Edge 31, Type (0, 1), BuildingBlock: AJUNOK_clean_linker_0, # of connection points: 2
#     Edge 32, Type (0, 1), BuildingBlock: AJUNOK_clean_linker_0, # of connection points: 2
#     Edge 33, Type (0, 1), BuildingBlock: AJUNOK_clean_linker_0, # of connection points: 2
#     Edge 34, Type (0, 1), BuildingBlock: AJUNOK_clean_linker_0, # of connection points: 2
#     Edge 35, Type (0, 1), BuildingBlock: AJUNOK_clean_linker_0, # of connection points: 2
# Relax obj value: 0.187
# Max RMSD: 0.232
# Mean RMSD: 0.111
data_MOF--net-zzz--node1-VOLQOD_clean_sbu_1--node2-BETDAH_clean_linker_0--edge1-AJUNOK_clean_linker_0
_symmetry_space_group_name_H-M    P1
_symmetry_Int_Tables_number       1
_symmetry_cell_setting            triclinic
loop_
_symmetry_equiv_pos_as_xyz
'x, y, z'
_cell_length_a     37.782591
_cell_length_b     37.421896
_cell_length_c     13.395362
_cell_angle_alpha  90.451329
_cell_angle_beta   89.63926
_cell_angle_gamma 90.878145
loop_
_atom_site_label
_atom_site_type_symbol
_atom_site_fract_x
_atom_site_fract_y
_atom_site_fract_z
_atom_type_partial_charge
H0 H 0.89303 0.52717 0.11872 0.0
H1 H 0.78862 0.50814 0.00265 0.0
H2 H 0.80383 0.57489 0.2638 0.0
C3 C 0.86478 0.53189 0.12194 0.0
C4 C 0.85137 0.5537 0.19771 0.0
C5 C 0.84251 0.51482 0.05269 0.0
C6 C 0.80591 0.52102 0.05664 0.0
C7 C 0.79187 0.54316 0.13263 0.0
C8 C 0.81471 0.55885 0.20364 0.0
N9 N 0.75501 0.54953 0.14212 0.0
C10 C 0.72962 0.54009 0.07148 0.0
H11 H 0.03432 0.87915 0.11952 0.0
H12 H 0.03898 0.77378 -0.00918 0.0
H13 H 0.9695 0.79492 0.24055 0.0
C14 C 0.0261 0.85128 0.1194 0.0
C15 C 0.99993 0.84017 0.18687 0.0
C16 C 0.04044 0.82775 0.04853 0.0
C17 C 0.02881 0.79184 0.04729 0.0
C18 C 1.00345 0.77979 0.11774 0.0
C19 C 0.98936 0.80407 0.18751 0.0
N20 N 0.99072 0.74386 0.1194 0.0
C21 C 0.99837 0.71789 0.04782 0.0
H22 H 0.65079 0.03227 0.09911 0.0
H23 H 0.75518 0.02465 0.97417 0.0
H24 H 0.73261 0.98377 0.2691 0.0
C25 C 0.67845 0.02553 0.10755 0.0
C26 C 0.68891 1.00809 0.1938 0.0
C27 C 0.70207 0.03222 0.02905 0.0
C28 C 0.73717 0.02068 0.03646 0.0
C29 C 0.74839 1.00337 0.12406 0.0
C30 C 0.72408 0.99718 0.2022 0.0
N31 N 0.7835 0.99111 0.13583 0.0
C32 C 0.81005 0.994 0.06395 0.0
H33 H 0.50795 0.64896 0.14333 0.0
H34 H 0.49051 0.75362 0.02651 0.0
H35 H 0.5586 0.74 0.28054 0.0
C36 C 0.51255 0.67762 0.14676 0.0
C37 C 0.53576 0.69157 0.21835 0.0
C38 C 0.49639 0.69952 0.07679 0.0
C39 C 0.50264 0.73659 0.08115 0.0
C40 C 0.52494 0.75137 0.15545 0.0
C41 C 0.54113 0.72872 0.22429 0.0
N42 N 0.53235 0.78865 0.16148 0.0
C43 C 0.52504 0.81256 0.08561 0.0
H44 H 0.16391 0.52831 0.17865 0.0
H45 H 0.26594 0.53103 0.31839 0.0
H46 H 0.24773 0.46505 0.05773 0.0
C47 C 0.1914 0.52046 0.17966 0.0
C48 C 0.20299 0.49545 0.1093 0.0
C49 C 0.21365 0.53353 0.25527 0.0
C50 C 0.24888 0.5219 0.25842 0.0
C51 C 0.26144 0.49759 0.18566 0.0
C52 C 0.23834 0.48457 0.11148 0.0
N53 N 0.29658 0.48458 0.18629 0.0
C54 C 0.3211 0.49089 0.26172 0.0
H55 H 0.06212 0.15088 0.29837 0.0
H56 H 0.02673 0.25838 0.32777 0.0
H57 H 0.07044 0.22192 0.04805 0.0
C58 C 0.05942 0.17721 0.26616 0.0
C59 C 0.06613 0.18209 0.1644 0.0
C60 C 0.04245 0.20364 0.32189 0.0
C61 C 0.03999 0.2381 0.28391 0.0
C62 C 0.05302 0.24553 0.18727 0.0
C63 C 0.06445 0.21703 0.12599 0.0
N64 N 0.05248 0.28076 0.14828 0.0
C65 C 0.04666 0.31066 0.20845 0.0
H66 H 0.38084 0.02639 0.19782 0.0
H67 H 0.27601 0.02084 0.32282 0.0
H68 H 0.30003 0.09324 0.08124 0.0
C69 C 0.35368 0.03536 0.19916 0.0
C70 C 0.3436 0.06183 0.13277 0.0
C71 C 0.32942 0.01978 0.26595 0.0
C72 C 0.29452 0.03213 0.2692 0.0
C73 C 0.28383 0.05896 0.2027 0.0
C74 C 0.30841 0.07329 0.13395 0.0
N75 N 0.24872 0.07202 0.20219 0.0
C76 C 0.22158 0.05999 0.26471 0.0
H77 H 0.49957 0.37898 0.20601 0.0
H78 H 0.50404 0.27491 0.33827 0.0
H79 H 0.44039 0.2919 0.07661 0.0
C80 C 0.49142 0.35104 0.20711 0.0
C81 C 0.46822 0.33835 0.13406 0.0
C82 C 0.5051 0.32839 0.27953 0.0
C83 C 0.4939 0.29241 0.28155 0.0
C84 C 0.46994 0.27922 0.20907 0.0
C85 C 0.45784 0.3022 0.13433 0.0
N86 N 0.45774 0.24309 0.20808 0.0
C87 C 0.46584 0.21783 0.27985 0.0
O88 O 0.10365 0.02093 0.60458 0.0
Zn89 Zn 0.06881 1.01124 0.71804 0.0
O90 O 0.01938 0.01347 0.66806 0.0
Zn91 Zn 0.99404 0.05056 0.73783 0.0
Zn92 Zn 0.01836 0.02313 0.52533 0.0
Zn93 Zn 0.99331 0.96964 0.69222 0.0
O94 O 0.94702 0.03476 0.79524 0.0
O95 O 0.94977 0.97598 0.77845 0.0
O96 O 0.07763 0.04867 0.82899 0.0
O97 O 0.02284 0.06851 0.8495 0.0
O98 O 0.98896 0.09314 0.65223 0.0
O99 O 0.99726 0.07155 0.49901 0.0
O100 O 0.99535 0.98248 0.44594 0.0
O101 O 0.07825 0.96126 0.77336 0.0
O102 O 0.97973 0.94495 0.56608 0.0
O103 O 0.02514 0.93562 0.75551 0.0
C104 C 0.09934 0.02649 0.51155 0.0
C105 C 0.93409 1.00368 0.81072 0.0
C106 C 0.98973 0.0972 0.55835 0.0
C107 C 0.0551 0.06788 0.87516 0.0
C108 C 0.98223 0.95257 0.47411 0.0
C109 C 0.0574 0.93421 0.78107 0.0
O110 O 0.06846 0.02739 0.47415 0.0
O111 O 0.50942 0.09662 0.60613 0.0
Zn112 Zn 0.51629 0.05789 0.71056 0.0
O113 O 0.50713 1.00977 0.65276 0.0
Zn114 Zn 0.46724 0.9859 0.71497 0.0
Zn115 Zn 0.49753 0.01461 0.5132 0.0
Zn116 Zn 0.54767 0.97887 0.66397 0.0
O117 O 0.48156 0.94252 0.79385 0.0
O118 O 0.53738 0.93508 0.74688 0.0
O119 O 0.47919 0.06859 0.8191 0.0
O120 O 0.44401 0.02049 0.80486 0.0
O121 O 0.42991 0.9725 0.6154 0.0
O122 O 0.45585 0.98441 0.47002 0.0
O123 O 0.5418 1.00435 0.43659 0.0
O124 O 0.56708 0.06144 0.76313 0.0
O125 O 0.57072 0.96683 0.53277 0.0
O126 O 0.58581 1.00654 0.73083 0.0
C127 C 0.49397 0.09505 0.52182 0.0
C128 C 0.51021 0.92498 0.79659 0.0
C129 C 0.4297 0.97221 0.52052 0.0
C130 C 0.45079 0.05131 0.84096 0.0
C131 C 0.56792 0.98406 0.45192 0.0
C132 C 0.59143 0.0381 0.76336 0.0
O133 O 0.48544 0.0653 0.48141 0.0
O134 O 0.43783 0.51084 0.61664 0.0
Zn135 Zn 0.47392 0.51542 0.72753 0.0
O136 O 0.52275 0.51266 0.67156 0.0
Zn137 Zn 0.54829 0.47303 0.72961 0.0
Zn138 Zn 0.52159 0.5071 0.52643 0.0
Zn139 Zn 0.54935 0.55581 0.70273 0.0
O140 O 0.59273 0.4885 0.80468 0.0
O141 O 0.59243 0.54724 0.78618 0.0
O142 O 0.46411 0.47403 0.82338 0.0
O143 O 0.51587 0.44639 0.82036 0.0
O144 O 0.55957 0.43582 0.62707 0.0
O145 O 0.5432 0.46042 0.48455 0.0
O146 O 0.54403 0.54965 0.45569 0.0
O147 O 0.46547 0.56363 0.79581 0.0
O148 O 0.56314 0.58322 0.58196 0.0
O149 O 0.51822 0.58941 0.77322 0.0
C150 C 0.44081 0.50613 0.52274 0.0
C151 C 0.60657 0.51929 0.82075 0.0
C152 C 0.55577 0.43438 0.53299 0.0
C153 C 0.48388 0.44843 0.84954 0.0
C154 C 0.55885 0.57813 0.48906 0.0
C155 C 0.48632 0.59064 0.80313 0.0
O156 O 0.47087 0.50388 0.47983 0.0
O157 O 0.98861 0.5685 0.498 0.0
Zn158 Zn 0.02968 0.55931 0.59376 0.0
O159 O 0.02541 0.51032 0.6506 0.0
Zn160 Zn 0.01987 0.51253 0.79523 0.0
Zn161 Zn 0.9855 0.48393 0.59357 0.0
Zn162 Zn 0.06723 0.48309 0.61983 0.0
O163 O 0.06269 0.49245 0.86473 0.0
O164 O 0.09309 0.46773 0.74064 0.0
O165 O 0.02538 0.59648 0.70417 0.0
O166 O 0.01534 0.56394 0.84017 0.0
O167 O 0.97436 0.48823 0.8384 0.0
O168 O 0.94961 0.46967 0.69685 0.0
O169 O 0.9999 0.44142 0.5079 0.0
O170 O 0.07811 0.56753 0.5267 0.0
O171 O 0.05806 0.4414 0.5271 0.0
O172 O 0.10214 0.51485 0.55494 0.0
C173 C 0.96167 0.54875 0.47801 0.0
C174 C 0.08946 0.47533 0.83261 0.0
C175 C 0.9487 0.47367 0.79109 0.0
C176 C 0.01882 0.59405 0.79728 0.0
C177 C 0.03005 0.42813 0.48841 0.0
C178 C 0.10448 0.54662 0.52289 0.0
O179 O 0.95869 0.51701 0.51009 0.0
C180 C 0.19469 0.04437 0.42767 0.0
C181 C 0.19129 0.04959 0.32467 0.0
C182 C 0.16494 0.03626 0.4873 0.0
C183 C 0.13074 0.03323 0.44587 0.0
H184 H 0.22041 0.04703 0.46258 0.0
H185 H 0.16879 0.03291 0.56671 0.0
S186 S 0.10895 0.04348 0.17705 0.0
N187 N 0.15215 0.05046 0.18228 0.0
N188 N 0.0961 0.03523 0.29274 0.0
C189 C 0.12744 0.03787 0.34172 0.0
C190 C 0.15778 0.04607 0.28157 0.0
C191 C 0.50518 0.18445 0.39191 0.0
C192 C 0.47186 0.18885 0.34815 0.0
C193 C 0.51191 0.15465 0.45201 0.0
C194 C 0.48564 0.12823 0.46831 0.0
H195 H 0.52632 0.20371 0.37804 0.0
H196 H 0.53814 0.15158 0.4827 0.0
S197 S 0.39301 0.12984 0.37885 0.0
N198 N 0.41162 0.16627 0.33156 0.0
N199 N 0.42438 0.10995 0.44225 0.0
C200 C 0.45194 0.1331 0.42726 0.0
C201 C 0.44501 0.16357 0.36763 0.0
C202 C 0.35986 0.52804 0.37033 0.0
C203 C 0.34928 0.49428 0.33378 0.0
C204 C 0.38913 0.53173 0.43417 0.0
C205 C 0.40871 0.50178 0.46197 0.0
H206 H 0.34585 0.55172 0.34813 0.0
H207 H 0.39702 0.55816 0.45993 0.0
S208 S 0.39047 0.40758 0.38998 0.0
N209 N 0.35944 0.43037 0.33316 0.0
N210 N 0.41484 0.43741 0.45126 0.0
C211 C 0.39793 0.46792 0.42719 0.0
C212 C 0.36801 0.46413 0.36345 0.0
C213 C 0.07105 0.35942 0.31286 0.0
C214 C 0.0416 0.34033 0.27654 0.0
C215 C 0.06697 0.38753 0.38169 0.0
C216 C 0.03321 0.39762 0.41672 0.0
H217 H 0.09748 0.3525 0.28824 0.0
H218 H 0.09058 0.40154 0.40708 0.0
S219 S 0.94772 0.35467 0.34389 0.0
N220 N 0.97785 0.33239 0.27999 0.0
N221 N 0.96971 0.38529 0.40905 0.0
C222 C 1.00349 0.37839 0.38034 0.0
C223 C 1.00782 0.34969 0.31037 0.0
C224 C 0.84929 0.02757 0.94931 0.0
C225 C 0.83969 0.99538 -0.00441 0.0
C226 C 0.87953 0.02982 0.8881 0.0
C227 C 0.90106 0.99988 0.87093 0.0
H228 H 0.83369 0.05128 0.96171 0.0
H229 H 0.88619 0.05535 0.85474 0.0
S230 S 0.88645 0.90937 0.97744 0.0
N231 N 0.85329 0.93309 0.02178 0.0
N232 N 0.91002 0.93687 0.90665 0.0
C233 C 0.89113 0.96734 0.91639 0.0
C234 C 0.86045 0.96523 -0.02108 0.0
C235 C 0.49172 0.8623 0.01392 0.0
C236 C 0.51993 0.83848 0.00795 0.0
C237 C 0.48806 0.88943 0.94307 0.0
C238 C 0.51275 0.89383 0.86443 0.0
H239 H 0.47277 0.86043 0.0748 0.0
H240 H 0.46633 0.90776 0.95205 0.0
S241 S 0.59007 0.836 0.81411 0.0
N242 N 0.57182 0.81925 0.91623 0.0
N243 N 0.5654 0.87017 0.78291 0.0
C244 C 0.54056 0.86921 0.85672 0.0
C245 C 0.54404 0.84154 0.92863 0.0
C246 C 0.68201 0.56294 0.96694 0.0
C247 C 0.70039 0.53375 0.00423 0.0
C248 C 0.65206 0.55786 0.90695 0.0
C249 C 0.63922 0.5233 0.88221 0.0
H250 H 0.69053 0.58997 -0.0146 0.0
H251 H 0.63865 0.58138 0.881 0.0
S252 S 0.6792 0.43799 0.96169 0.0
N253 N 0.70469 0.46931 0.0127 0.0
N254 N 0.64836 0.45928 0.8998 0.0
C255 C 0.65791 0.4938 0.9188 0.0
C256 C 0.68851 0.49915 -0.02011 0.0
C257 C 0.03636 0.68093 0.93798 0.0
C258 C 1.00298 0.68821 -0.02053 0.0
C259 C 0.04132 0.65072 0.87651 0.0
C260 C 0.01311 0.62681 0.85648 0.0
H261 H 0.0588 0.69837 0.95413 0.0
H262 H 0.06746 0.64555 0.84654 0.0
S263 S 0.92016 0.63577 0.94128 0.0
N264 N 0.94101 0.67058 -0.00845 0.0
N265 N 0.9505 0.61343 0.87831 0.0
C266 C 0.97956 0.6343 0.89614 0.0
C267 C 0.97444 0.66519 0.95719 0.0
C268 C 0.03537 0.18286 0.49532 0.0
C269 C 0.01969 0.19097 0.40392 0.0
C270 C 0.02187 0.15483 0.55359 0.0
C271 C 0.99313 0.13365 0.51997 0.0
H272 H 0.0604 0.19528 0.51587 0.0
H273 H 0.0367 0.14697 0.61865 0.0
S274 S 0.93877 0.14927 0.29664 0.0
N275 N 0.97005 0.18058 0.29243 0.0
N276 N 0.94611 0.12624 0.39901 0.0
C277 C 0.97485 0.14424 0.43511 0.0
C278 C 0.98772 0.17362 0.37802 0.0
C279 C 0.3414 1.00185 0.44026 0.0
C280 C 0.34303 0.99356 0.33795 0.0
C281 C 0.36721 0.98928 0.50535 0.0
C282 C 0.39555 0.96876 0.46904 0.0
H283 H 0.32312 0.02173 0.46775 0.0
H284 H 0.36765 0.99989 0.58086 0.0
S285 S 0.40435 0.93029 0.21507 0.0
N286 N 0.36884 0.95541 0.20977 0.0
N287 N 0.4187 0.93366 0.33109 0.0
C288 C 0.39391 0.95557 0.37108 0.0
C289 C 0.36708 0.96744 0.30568 0.0
C290 C 0.55572 0.3689 0.32197 0.0
C291 C 0.52931 0.34452 0.35459 0.0
C292 C 0.56807 0.39635 0.38473 0.0
C293 C 0.55564 0.3992 0.4832 0.0
H294 H 0.56361 0.3694 0.24406 0.0
H295 H 0.58481 0.41726 0.35343 0.0
S296 S 0.49381 0.33659 0.61182 0.0
N297 N 0.49605 0.32124 0.4961 0.0
N298 N 0.52102 0.37152 0.61626 0.0
C299 C 0.53381 0.37159 0.52118 0.0
C300 C 0.52031 0.34431 0.45628 0.0
C301 C 0.19763 0.53566 0.43395 0.0
C302 C 0.19655 0.55225 0.34049 0.0
C303 C 0.16894 0.53801 0.49989 0.0
C304 C 0.13834 0.55696 0.47437 0.0
H305 H 0.21821 0.5168 0.4506 0.0
H306 H 0.16918 0.52165 0.56626 0.0
S307 S 0.1288 0.61568 0.25539 0.0
N308 N 0.16765 0.59674 0.23912 0.0
N309 N 0.11296 0.60025 0.36222 0.0
C310 C 0.13989 0.57895 0.39017 0.0
C311 C 0.16945 0.57696 0.32353 0.0
C312 C 0.04677 0.84076 0.86916 0.0
C313 C 0.06115 0.84378 0.96523 0.0
C314 C 0.05039 0.8689 0.80169 0.0
C315 C 0.06847 0.90075 0.82847 0.0
H316 H 0.02836 0.81921 0.85112 0.0
H317 H 0.03526 0.86745 0.73325 0.0
S318 S 0.12202 0.91541 0.05587 0.0
N319 N 0.10314 0.87571 0.07157 0.0
N320 N 0.10895 0.92938 0.94555 0.0
C321 C 0.08868 0.901 0.91584 0.0
C322 C 0.0854 0.87203 -0.01594 0.0
C323 C 0.68339 0.02053 0.85627 0.0
C324 C 0.68644 0.0451 0.9353 0.0
C325 C 0.65395 0.02089 0.79351 0.0
C326 C 0.62663 0.0458 0.80795 0.0
H327 H 0.70115 0.99811 0.85106 0.0
H328 H 0.65111 0.99938 0.73938 0.0
S329 S 0.62877 0.12259 -0.01567 0.0
N330 N 0.66507 0.1003 0.00879 0.0
N331 N 0.60924 0.10081 0.89158 0.0
C332 C 0.63256 0.07405 0.87574 0.0
C333 C 0.66284 0.07386 0.93886 0.0
C334 C 0.45679 0.65134 0.0096 0.0
C335 C 0.47872 0.68152 -0.00879 0.0
C336 C 0.4554 0.62265 0.94165 0.0
C337 C 0.47527 0.62395 0.85296 0.0
H338 H 0.44471 0.64778 0.08251 0.0
H339 H 0.44222 0.59805 0.96403 0.0
S340 S 0.5254 0.7021 0.75402 0.0
N341 N 0.51274 0.71459 0.86703 0.0
N342 N 0.50878 0.66144 0.73751 0.0
C343 C 0.49143 0.65662 0.82577 0.0
C344 C 0.49327 0.6855 0.8953 0.0
C345 C 0.8857 0.46799 0.00627 0.0
C346 C 0.85944 0.49193 0.97586 0.0
C347 C 0.91319 0.45825 0.94157 0.0
C348 C 0.91437 0.47086 0.84334 0.0
H349 H 0.8874 0.4603 0.08392 0.0
H350 H 0.93521 0.44353 0.97113 0.0
S351 S 0.84717 0.52655 0.72055 0.0
N352 N 0.83303 0.52284 0.83697 0.0
N353 N 0.88359 0.50279 0.71317 0.0
C354 C 0.8853 0.49004 0.80773 0.0
C355 C 0.85786 0.50087 0.87459 0.0
C356 C 0.09121 0.14824 0.01571 0.0
C357 C 0.06777 0.14983 0.0979 0.0
C358 C 0.08988 0.11936 0.94744 0.0
C359 C 0.06507 0.09128 0.95958 0.0
H360 H 0.10985 0.16997 0.00226 0.0
H361 H 0.10661 0.12023 0.88151 0.0
S362 S 0.99906 0.08108 0.16306 0.0
N363 N 0.01929 0.11953 0.18667 0.0
N364 N 0.0185 0.06527 0.06185 0.0
C365 C 0.04303 0.0915 0.04389 0.0
C366 C 0.04386 0.12079 0.11204 0.0
C367 C 0.36109 0.06509 0.95445 0.0
C368 C 0.36933 0.07279 0.05436 0.0
C369 C 0.38795 0.06171 0.88277 0.0
C370 C 0.42383 0.06639 0.90831 0.0
H371 H 0.33422 0.05796 0.93357 0.0
H372 H 0.38077 0.05261 0.80847 0.0
S373 S 0.45858 0.09408 0.15507 0.0
N374 N 0.41531 0.09051 0.17189 0.0
N375 N 0.4658 0.08444 0.03614 0.0
C376 C 0.4321 0.07833 0.00479 0.0
C377 C 0.40476 0.08148 0.0782 0.0
C378 C 0.47523 0.35612 0.95764 0.0
C379 C 0.45988 0.36276 0.05141 0.0
C380 C 0.4805 0.38387 0.88944 0.0
C381 C 0.47005 0.419 0.91195 0.0
H382 H 0.48643 0.33026 0.94081 0.0
H383 H 0.49491 0.37824 0.82112 0.0
S384 S 0.42345 0.44885 0.14079 0.0
N385 N 0.43043 0.40589 0.15878 0.0
N386 N 0.43965 0.45795 0.02883 0.0
C387 C 0.45129 0.42518 0.0008 0.0
C388 C 0.44635 0.397 0.07104 0.0
C389 C 0.14261 0.47131 0.06942 0.0
C390 C 0.17693 0.481 0.0362 0.0
C391 C 0.11459 0.46687 0.00237 0.0
C392 C 0.12007 0.47088 0.89937 0.0
H393 H 0.13686 0.46946 0.14859 0.0
H394 H 0.08818 0.46204 0.03172 0.0
S395 S 0.20587 0.491 0.77301 0.0
N396 N 0.21543 0.49109 0.8931 0.0
N397 N 0.1632 0.48114 0.76619 0.0
C398 C 0.15495 0.47699 0.86439 0.0
C399 C 0.18334 0.48231 0.93305 0.0
C400 C 0.98603 0.85996 0.36101 0.0
C401 C 0.98537 0.86684 0.25826 0.0
C402 C 0.98164 0.88762 0.43084 0.0
C403 C 0.9769 0.92326 0.40037 0.0
H404 H 0.9927 0.83367 0.38771 0.0
H405 H 0.98488 0.88135 0.50903 0.0
S406 S 0.96458 0.95348 0.14018 0.0
N407 N 0.97251 0.91032 0.12957 0.0
N408 N 0.96578 0.96263 0.26097 0.0
C409 C 0.97265 0.92978 0.29814 0.0
C410 C 0.97645 0.90147 0.22708 0.0
C411 C 0.63893 0.02912 0.29824 0.0
C412 C 0.66158 1.00115 0.27126 0.0
C413 C 0.6083 0.02274 0.35408 0.0
C414 C 0.59942 0.98826 0.38759 0.0
H415 H 0.64434 0.05611 0.27294 0.0
H416 H 0.59163 0.04524 0.37213 0.0
S417 S 0.65093 0.90613 0.34358 0.0
N418 N 0.67365 0.93771 0.28464 0.0
N419 N 0.61659 0.92605 0.39545 0.0
C420 C 0.62263 0.96024 0.36588 0.0
C421 C 0.65367 0.96662 0.30657 0.0
C422 C 0.54847 0.67141 0.39148 0.0
C423 C 0.55253 0.66638 0.28815 0.0
C424 C 0.55413 0.64326 0.45756 0.0
C425 C 0.56348 0.60904 0.4222 0.0
H426 H 0.53798 0.69618 0.4208 0.0
H427 H 0.54804 0.64755 0.53585 0.0
S428 S 0.58605 0.58493 0.1611 0.0
N429 N 0.57379 0.62706 0.15569 0.0
N430 N 0.58254 0.57359 0.27975 0.0
C431 C 0.57121 0.60481 0.32042 0.0
C432 C 0.56631 0.63369 0.25345 0.0
C433 C 0.86974 0.55296 0.3749 0.0
C434 C 0.87591 0.5655 0.27784 0.0
C435 C 0.89748 0.55092 0.44317 0.0
C436 C 0.9322 0.5617 0.41714 0.0
H437 H 0.84432 0.54119 0.39494 0.0
H438 H 0.89226 0.53823 0.5143 0.0
S439 S 0.96039 0.60358 0.1799 0.0
N440 N 0.91783 0.5944 0.16463 0.0
N441 N 0.97004 0.59055 0.29396 0.0
C442 C 0.9378 0.57835 0.32504 0.0
C443 C 0.90956 0.58026 0.25504 0.0
loop_
_geom_bond_atom_site_label_1
_geom_bond_atom_site_label_2
_geom_bond_distance
_geom_bond_site_symmetry_2
_ccdc_geom_bond_type
H0 C3 0.929 . S
H1 C6 0.929 . S
H2 C8 0.930 . S
C3 H0 0.929 . S
C3 C4 1.398 . S
C3 C5 1.396 1_554 S
C4 C3 1.398 . S
C4 C8 1.407 . S
C5 C3 1.396 1_556 S
C5 C6 1.394 . S
C6 H1 0.929 . S
C6 C5 1.394 . S
C6 C7 1.382 1_556 S
C7 C6 1.382 1_554 S
C7 C8 1.392 . S
C7 N9 1.420 . S
C8 H2 0.930 . S
C8 C4 1.407 . S
C8 C7 1.392 . S
N9 C7 1.420 . S
N9 C10 1.244 1_554 S
C10 N9 1.244 1_556 S
H11 C14 0.929 . S
H12 C17 0.929 1_556 S
H13 C19 0.930 . S
C14 H11 0.929 . S
C14 C15 1.398 1_655 S
C14 C16 1.396 1_655 S
C15 C14 1.398 1_455 S
C15 C19 1.407 . S
C16 C14 1.396 1_455 S
C16 C17 1.394 . S
C17 H12 0.929 1_554 S
C17 C16 1.394 . S
C17 C18 1.382 . S
C18 C17 1.382 . S
C18 C19 1.392 . S
C18 N20 1.420 . S
C19 H13 0.930 . S
C19 C15 1.407 . S
C19 C18 1.392 . S
N20 C18 1.420 . S
N20 C21 1.244 1_455 S
C21 N20 1.244 1_655 S
H22 C25 0.929 . S
H23 C28 0.929 . S
H24 C30 0.930 . S
C25 H22 0.929 . S
C25 C26 1.398 1_565 S
C25 C27 1.396 1_565 S
C26 C25 1.398 1_545 S
C26 C30 1.407 . S
C27 C25 1.396 1_545 S
C27 C28 1.394 1_554 S
C28 H23 0.929 . S
C28 C27 1.394 1_556 S
C28 C29 1.382 1_556 S
C29 C28 1.382 1_554 S
C29 C30 1.392 . S
C29 N31 1.420 . S
C30 H24 0.930 . S
C30 C26 1.407 . S
C30 C29 1.392 . S
N31 C29 1.420 . S
N31 C32 1.244 1_545 S
C32 N31 1.244 1_565 S
H33 C36 0.929 . S
H34 C39 0.929 . S
H35 C41 0.930 . S
C36 H33 0.929 . S
C36 C37 1.398 . S
C36 C38 1.396 1_554 S
C37 C36 1.398 . S
C37 C41 1.407 . S
C38 C36 1.396 1_556 S
C38 C39 1.394 . S
C39 H34 0.929 . S
C39 C38 1.394 . S
C39 C40 1.382 1_556 S
C40 C39 1.382 1_554 S
C40 C41 1.392 . S
C40 N42 1.420 . S
C41 H35 0.930 . S
C41 C37 1.407 . S
C41 C40 1.392 . S
N42 C40 1.420 . S
N42 C43 1.244 1_554 S
C43 N42 1.244 1_556 S
H44 C47 0.929 . S
H45 C50 0.929 . S
H46 C52 0.930 . S
C47 H44 0.929 . S
C47 C48 1.398 . S
C47 C49 1.396 . S
C48 C47 1.398 . S
C48 C52 1.407 . S
C49 C47 1.396 . S
C49 C50 1.394 . S
C50 H45 0.929 . S
C50 C49 1.394 . S
C50 C51 1.382 . S
C51 C50 1.382 . S
C51 C52 1.392 . S
C51 N53 1.420 . S
C52 H46 0.930 . S
C52 C48 1.407 . S
C52 C51 1.392 . S
N53 C51 1.420 . S
N53 C54 1.244 . S
C54 N53 1.244 . S
H55 C58 0.929 . S
H56 C61 0.929 . S
H57 C63 0.930 . S
C58 H55 0.929 . S
C58 C59 1.398 . S
C58 C60 1.396 . S
C59 C58 1.398 . S
C59 C63 1.407 . S
C60 C58 1.396 . S
C60 C61 1.394 . S
C61 H56 0.929 . S
C61 C60 1.394 . S
C61 C62 1.382 . S
C62 C61 1.382 . S
C62 C63 1.392 . S
C62 N64 1.420 . S
C63 H57 0.930 . S
C63 C59 1.407 . S
C63 C62 1.392 . S
N64 C62 1.420 . S
N64 C65 1.244 . S
C65 N64 1.244 . S
H66 C69 0.929 . S
H67 C72 0.929 . S
H68 C74 0.930 . S
C69 H66 0.929 . S
C69 C70 1.398 . S
C69 C71 1.396 . S
C70 C69 1.398 . S
C70 C74 1.407 . S
C71 C69 1.396 . S
C71 C72 1.394 . S
C72 H67 0.929 . S
C72 C71 1.394 . S
C72 C73 1.382 . S
C73 C72 1.382 . S
C73 C74 1.392 . S
C73 N75 1.420 . S
C74 H68 0.930 . S
C74 C70 1.407 . S
C74 C73 1.392 . S
N75 C73 1.420 . S
N75 C76 1.244 . S
C76 N75 1.244 . S
H77 C80 0.929 . S
H78 C83 0.929 . S
H79 C85 0.930 . S
C80 H77 0.929 . S
C80 C81 1.398 . S
C80 C82 1.396 . S
C81 C80 1.398 . S
C81 C85 1.407 . S
C82 C80 1.396 . S
C82 C83 1.394 . S
C83 H78 0.929 . S
C83 C82 1.394 . S
C83 C84 1.382 . S
C84 C83 1.382 . S
C84 C85 1.392 . S
C84 N86 1.420 . S
C85 H79 0.930 . S
C85 C81 1.407 . S
C85 C84 1.392 . S
N86 C84 1.420 . S
N86 C87 1.244 . S
C87 N86 1.244 . S
O88 Zn89 1.955 . S
O88 C104 1.225 1_545 S
Zn89 O88 1.955 . S
Zn89 O90 1.948 1_545 S
Zn89 O96 1.942 . S
Zn89 O101 1.897 1_545 S
O90 Zn89 1.948 1_565 S
O90 Zn91 1.899 1_465 S
O90 Zn92 1.952 . S
O90 Zn93 1.967 1_455 S
Zn91 O90 1.899 1_645 S
Zn91 O94 1.933 . S
Zn91 O97 1.941 1_655 S
Zn91 O98 1.965 . S
Zn92 O90 1.952 . S
Zn92 O99 1.938 1_565 S
Zn92 O100 1.906 . S
Zn92 O110 1.953 . S
Zn93 O90 1.967 1_655 S
Zn93 O95 1.932 . S
Zn93 O102 1.977 . S
Zn93 O103 1.910 1_655 S
O94 Zn91 1.933 . S
O94 C105 1.226 . S
O95 Zn93 1.932 . S
O95 C105 1.307 1_565 S
O96 Zn89 1.942 . S
O96 C107 1.253 . S
O97 Zn91 1.941 1_455 S
O97 C107 1.283 . S
O98 Zn91 1.965 . S
O98 C106 1.303 1_655 S
O99 Zn92 1.938 1_545 S
O99 C106 1.247 . S
O100 Zn92 1.906 . S
O100 C108 1.304 1_455 S
O101 Zn89 1.897 1_565 S
O101 C109 1.311 . S
O102 Zn93 1.977 . S
O102 C108 1.272 . S
O103 Zn93 1.910 1_455 S
O103 C109 1.231 . S
C104 O88 1.225 1_565 S
C104 O110 1.298 . S
C105 O94 1.226 . S
C105 O95 1.307 1_545 S
C106 O98 1.303 1_455 S
C106 O99 1.247 . S
C107 O96 1.253 . S
C107 O97 1.283 . S
C108 O100 1.304 1_655 S
C108 O102 1.272 . S
C109 O101 1.311 . S
C109 O103 1.231 . S
O110 Zn92 1.953 . S
O110 C104 1.298 . S
O111 Zn112 1.953 . S
O111 C127 1.225 . S
Zn112 O111 1.953 . S
Zn112 O113 1.949 . S
Zn112 O119 1.919 . S
Zn112 O124 1.924 . S
O113 Zn112 1.949 . S
O113 Zn114 1.923 1_545 S
O113 Zn115 1.950 . S
O113 Zn116 1.945 1_545 S
Zn114 O113 1.923 1_565 S
Zn114 O117 1.933 . S
Zn114 O120 1.941 . S
Zn114 O121 1.965 . S
Zn115 O113 1.950 . S
Zn115 O122 1.938 . S
Zn115 O123 1.906 . S
Zn115 O133 1.953 . S
Zn116 O113 1.945 1_565 S
Zn116 O118 1.932 . S
Zn116 O125 1.977 . S
Zn116 O126 1.910 1_565 S
O117 Zn114 1.933 . S
O117 C128 1.226 . S
O118 Zn116 1.932 . S
O118 C128 1.307 . S
O119 Zn112 1.919 . S
O119 C130 1.253 . S
O120 Zn114 1.941 . S
O120 C130 1.283 1_565 S
O121 Zn114 1.965 . S
O121 C129 1.303 1_565 S
O122 Zn115 1.938 . S
O122 C129 1.247 . S
O123 Zn115 1.906 . S
O123 C131 1.304 1_545 S
O124 Zn112 1.924 . S
O124 C132 1.311 . S
O125 Zn116 1.977 . S
O125 C131 1.272 . S
O126 Zn116 1.910 1_545 S
O126 C132 1.231 . S
C127 O111 1.225 . S
C127 O133 1.298 . S
C128 O117 1.226 . S
C128 O118 1.307 . S
C129 O121 1.303 1_545 S
C129 O122 1.247 . S
C130 O119 1.253 . S
C130 O120 1.283 1_545 S
C131 O123 1.304 1_565 S
C131 O125 1.272 . S
C132 O124 1.311 . S
C132 O126 1.231 . S
O133 Zn115 1.953 . S
O133 C127 1.298 . S
O134 Zn135 1.953 . S
O134 C150 1.225 . S
Zn135 O134 1.953 . S
Zn135 O136 1.949 . S
Zn135 O142 1.919 . S
Zn135 O147 1.924 . S
O136 Zn135 1.949 . S
O136 Zn137 1.923 . S
O136 Zn138 1.950 . S
O136 Zn139 1.945 . S
Zn137 O136 1.923 . S
Zn137 O140 1.933 . S
Zn137 O143 1.941 . S
Zn137 O144 1.965 . S
Zn138 O136 1.950 . S
Zn138 O145 1.938 . S
Zn138 O146 1.906 . S
Zn138 O156 1.953 . S
Zn139 O136 1.945 . S
Zn139 O141 1.932 . S
Zn139 O148 1.977 . S
Zn139 O149 1.910 . S
O140 Zn137 1.933 . S
O140 C151 1.226 . S
O141 Zn139 1.932 . S
O141 C151 1.307 . S
O142 Zn135 1.919 . S
O142 C153 1.253 . S
O143 Zn137 1.941 . S
O143 C153 1.283 . S
O144 Zn137 1.965 . S
O144 C152 1.303 . S
O145 Zn138 1.938 . S
O145 C152 1.247 . S
O146 Zn138 1.906 . S
O146 C154 1.304 . S
O147 Zn135 1.924 . S
O147 C155 1.311 . S
O148 Zn139 1.977 . S
O148 C154 1.272 . S
O149 Zn139 1.910 . S
O149 C155 1.231 . S
C150 O134 1.225 . S
C150 O156 1.298 . S
C151 O140 1.226 . S
C151 O141 1.307 . S
C152 O144 1.303 . S
C152 O145 1.247 . S
C153 O142 1.253 . S
C153 O143 1.283 . S
C154 O146 1.304 . S
C154 O148 1.272 . S
C155 O147 1.311 . S
C155 O149 1.231 . S
O156 Zn138 1.953 . S
O156 C150 1.298 . S
O157 Zn158 1.953 1_655 S
O157 C173 1.225 . S
Zn158 O157 1.953 1_455 S
Zn158 O159 1.949 . S
Zn158 O165 1.919 . S
Zn158 O170 1.924 . S
O159 Zn158 1.949 . S
O159 Zn160 1.917 1_455 S
O159 Zn161 1.929 1_455 S
O159 Zn162 1.973 . S
Zn160 O159 1.917 1_655 S
Zn160 O163 1.933 1_655 S
Zn160 O166 1.941 . S
Zn160 O167 1.965 . S
Zn161 O159 1.929 1_655 S
Zn161 O168 1.938 . S
Zn161 O169 1.906 . S
Zn161 O179 1.953 . S
Zn162 O159 1.973 . S
Zn162 O164 1.932 . S
Zn162 O171 1.977 . S
Zn162 O172 1.910 . S
O163 Zn160 1.933 1_455 S
O163 C174 1.226 . S
O164 Zn162 1.932 . S
O164 C174 1.307 . S
O165 Zn158 1.919 . S
O165 C176 1.253 . S
O166 Zn160 1.941 . S
O166 C176 1.283 1_655 S
O167 Zn160 1.965 . S
O167 C175 1.303 . S
O168 Zn161 1.938 . S
O168 C175 1.247 . S
O169 Zn161 1.906 . S
O169 C177 1.304 1_655 S
O170 Zn158 1.924 . S
O170 C178 1.311 . S
O171 Zn162 1.977 . S
O171 C177 1.272 . S
O172 Zn162 1.910 . S
O172 C178 1.231 . S
C173 O157 1.225 . S
C173 O179 1.298 . S
C174 O163 1.226 . S
C174 O164 1.307 . S
C175 O167 1.303 . S
C175 O168 1.247 . S
C176 O165 1.253 . S
C176 O166 1.283 1_455 S
C177 O169 1.304 1_455 S
C177 O171 1.272 . S
C178 O170 1.311 . S
C178 O172 1.231 . S
O179 Zn161 1.953 . S
O179 C173 1.298 . S
C180 C181 1.369 1_565 S
C180 C182 1.419 . S
C180 H184 0.930 . S
C181 C180 1.369 1_545 S
C181 C190 1.429 . S
C182 C180 1.419 . S
C182 C183 1.377 . S
C182 H185 0.929 . S
C183 C182 1.377 . S
C183 C189 1.412 1_565 S
H184 C180 0.930 . S
H185 C182 0.929 . S
S186 N187 1.613 . S
S186 N188 1.610 . S
N187 S186 1.613 . S
N187 C190 1.350 . S
N188 S186 1.610 . S
N188 C189 1.351 . S
C189 C183 1.412 1_545 S
C189 N188 1.351 . S
C189 C190 1.434 . S
C190 C181 1.429 . S
C190 N187 1.350 . S
C190 C189 1.434 . S
C191 C192 1.369 . S
C191 C193 1.419 . S
C191 H195 0.930 . S
C192 C191 1.369 . S
C192 C201 1.429 . S
C193 C191 1.419 . S
C193 C194 1.363 . S
C193 H196 0.929 . S
C194 C193 1.363 . S
C194 C200 1.428 . S
H195 C191 0.930 . S
H196 C193 0.929 . S
S197 N198 1.613 . S
S197 N199 1.610 . S
N198 S197 1.613 . S
N198 C201 1.350 . S
N199 S197 1.610 . S
N199 C200 1.351 . S
C200 C194 1.428 . S
C200 N199 1.351 . S
C200 C201 1.434 . S
C201 C192 1.429 . S
C201 N198 1.350 . S
C201 C200 1.434 . S
C202 C203 1.369 . S
C202 C204 1.419 . S
C202 H206 0.930 . S
C203 C202 1.369 . S
C203 C212 1.429 . S
C204 C202 1.419 . S
C204 C205 1.363 . S
C204 H207 0.929 . S
C205 C204 1.363 . S
C205 C211 1.428 . S
H206 C202 0.930 . S
H207 C204 0.929 . S
S208 N209 1.613 . S
S208 N210 1.610 . S
N209 S208 1.613 . S
N209 C212 1.350 . S
N210 S208 1.610 . S
N210 C211 1.351 . S
C211 C205 1.428 . S
C211 N210 1.351 . S
C211 C212 1.434 . S
C212 C203 1.429 . S
C212 N209 1.350 . S
C212 C211 1.434 . S
C213 C214 1.369 . S
C213 C215 1.419 . S
C213 H217 0.930 . S
C214 C213 1.369 . S
C214 C223 1.429 . S
C215 C213 1.419 . S
C215 C216 1.363 . S
C215 H218 0.929 . S
C216 C215 1.363 . S
C216 C222 1.428 . S
H217 C213 0.930 . S
H218 C215 0.929 . S
S219 N220 1.613 . S
S219 N221 1.610 . S
N220 S219 1.613 . S
N220 C223 1.350 . S
N221 S219 1.610 . S
N221 C222 1.351 . S
C222 C216 1.428 . S
C222 N221 1.351 . S
C222 C223 1.434 . S
C223 C214 1.429 . S
C223 N220 1.350 . S
C223 C222 1.434 . S
C224 C225 1.356 1_545 S
C224 C226 1.419 . S
C224 H228 0.930 1_556 S
C225 C224 1.356 1_565 S
C225 C234 1.442 . S
C226 C224 1.419 . S
C226 C227 1.363 . S
C226 H229 0.929 . S
C227 C226 1.363 . S
C227 C233 1.428 1_545 S
H228 C224 0.930 1_554 S
H229 C226 0.929 . S
S230 N231 1.613 . S
S230 N232 1.610 . S
N231 S230 1.613 . S
N231 C234 1.350 . S
N232 S230 1.610 . S
N232 C233 1.351 . S
C233 C227 1.428 1_565 S
C233 N232 1.351 . S
C233 C234 1.434 . S
C234 C225 1.442 . S
C234 N231 1.350 . S
C234 C233 1.434 . S
C235 C236 1.369 . S
C235 C237 1.419 . S
C235 H239 0.930 1_556 S
C236 C235 1.369 . S
C236 C245 1.429 . S
C237 C235 1.419 . S
C237 C238 1.363 . S
C237 H240 0.929 . S
C238 C237 1.363 . S
C238 C244 1.428 . S
H239 C235 0.930 1_554 S
H240 C237 0.929 . S
S241 N242 1.613 . S
S241 N243 1.610 . S
N242 S241 1.613 . S
N242 C245 1.350 . S
N243 S241 1.610 . S
N243 C244 1.351 . S
C244 C238 1.428 . S
C244 N243 1.351 . S
C244 C245 1.434 . S
C245 C236 1.429 . S
C245 N242 1.350 . S
C245 C244 1.434 . S
C246 C247 1.369 . S
C246 C248 1.419 . S
C246 H250 0.927 1_556 S
C247 C246 1.369 . S
C247 C256 1.429 . S
C248 C246 1.419 . S
C248 C249 1.363 . S
C248 H251 0.929 . S
C249 C248 1.363 . S
C249 C255 1.428 . S
H250 C246 0.927 1_554 S
H251 C248 0.929 . S
S252 N253 1.613 . S
S252 N254 1.610 . S
N253 S252 1.613 . S
N253 C256 1.350 . S
N254 S252 1.610 . S
N254 C255 1.351 . S
C255 C249 1.428 . S
C255 N254 1.351 . S
C255 C256 1.434 . S
C256 C247 1.429 . S
C256 N253 1.350 . S
C256 C255 1.434 . S
C257 C258 1.369 1_455 S
C257 C259 1.419 . S
C257 H261 0.930 . S
C258 C257 1.369 1_655 S
C258 C267 1.429 . S
C259 C257 1.419 . S
C259 C260 1.363 . S
C259 H262 0.929 . S
C260 C259 1.363 . S
C260 C266 1.428 1_455 S
H261 C257 0.930 . S
H262 C259 0.929 . S
S263 N264 1.613 . S
S263 N265 1.610 1_554 S
N264 S263 1.613 . S
N264 C267 1.350 1_554 S
N265 S263 1.610 1_556 S
N265 C266 1.351 . S
C266 C260 1.428 1_655 S
C266 N265 1.351 . S
C266 C267 1.434 . S
C267 C258 1.429 . S
C267 N264 1.350 1_556 S
C267 C266 1.434 . S
C268 C269 1.369 . S
C268 C270 1.419 . S
C268 H272 0.930 . S
C269 C268 1.369 . S
C269 C278 1.429 . S
C270 C268 1.419 . S
C270 C271 1.363 . S
C270 H273 0.929 . S
C271 C270 1.363 . S
C271 C277 1.428 . S
H272 C268 0.930 . S
H273 C270 0.929 . S
S274 N275 1.613 1_655 S
S274 N276 1.610 . S
N275 S274 1.613 1_455 S
N275 C278 1.350 . S
N276 S274 1.610 . S
N276 C277 1.351 1_655 S
C277 C271 1.428 . S
C277 N276 1.351 1_455 S
C277 C278 1.434 . S
C278 C269 1.429 . S
C278 N275 1.350 . S
C278 C277 1.434 . S
C279 C280 1.369 . S
C279 C281 1.419 . S
C279 H283 0.930 . S
C280 C279 1.369 . S
C280 C289 1.429 . S
C281 C279 1.419 . S
C281 C282 1.363 . S
C281 H284 0.929 . S
C282 C281 1.363 . S
C282 C288 1.428 . S
H283 C279 0.930 . S
H284 C281 0.929 . S
S285 N286 1.613 . S
S285 N287 1.610 . S
N286 S285 1.613 . S
N286 C289 1.350 1_565 S
N287 S285 1.610 . S
N287 C288 1.351 1_565 S
C288 C282 1.428 . S
C288 N287 1.351 1_545 S
C288 C289 1.434 . S
C289 C280 1.429 . S
C289 N286 1.350 1_545 S
C289 C288 1.434 . S
C290 C291 1.369 . S
C290 C292 1.419 . S
C290 H294 0.930 . S
C291 C290 1.369 . S
C291 C300 1.429 . S
C292 C290 1.419 . S
C292 C293 1.363 . S
C292 H295 0.929 . S
C293 C292 1.363 . S
C293 C299 1.428 . S
H294 C290 0.930 . S
H295 C292 0.929 . S
S296 N297 1.613 . S
S296 N298 1.610 . S
N297 S296 1.613 . S
N297 C300 1.350 . S
N298 S296 1.610 . S
N298 C299 1.351 . S
C299 C293 1.428 . S
C299 N298 1.351 . S
C299 C300 1.434 . S
C300 C291 1.429 . S
C300 N297 1.350 . S
C300 C299 1.434 . S
C301 C302 1.369 . S
C301 C303 1.419 . S
C301 H305 0.930 . S
C302 C301 1.369 . S
C302 C311 1.429 . S
C303 C301 1.419 . S
C303 C304 1.363 . S
C303 H306 0.929 . S
C304 C303 1.363 . S
C304 C310 1.428 . S
H305 C301 0.930 . S
H306 C303 0.929 . S
S307 N308 1.613 . S
S307 N309 1.610 . S
N308 S307 1.613 . S
N308 C311 1.350 . S
N309 S307 1.610 . S
N309 C310 1.351 . S
C310 C304 1.428 . S
C310 N309 1.351 . S
C310 C311 1.434 . S
C311 C302 1.429 . S
C311 N308 1.350 . S
C311 C310 1.434 . S
C312 C313 1.369 1_654 S
C312 C314 1.419 1_654 S
C312 H316 0.930 . S
C313 C312 1.369 1_456 S
C313 C322 1.432 . S
C314 C312 1.419 1_456 S
C314 C315 1.363 . S
C314 H317 0.929 1_455 S
C315 C314 1.363 . S
C315 C321 1.428 . S
H316 C312 0.930 . S
H317 C314 0.929 1_655 S
S318 N319 1.613 . S
S318 N320 1.610 . S
N319 S318 1.613 . S
N319 C322 1.350 . S
N320 S318 1.610 . S
N320 C321 1.351 . S
C321 C315 1.428 . S
C321 N320 1.351 . S
C321 C322 1.434 . S
C322 C313 1.432 . S
C322 N319 1.350 . S
C322 C321 1.434 . S
C323 C324 1.369 1_565 S
C323 C325 1.419 1_565 S
C323 H327 0.930 . S
C324 C323 1.369 1_545 S
C324 C333 1.429 . S
C325 C323 1.419 1_545 S
C325 C326 1.363 . S
C325 H328 0.929 1_545 S
C326 C325 1.363 . S
C326 C332 1.428 . S
H327 C323 0.930 . S
H328 C325 0.929 1_565 S
S329 N330 1.613 . S
S329 N331 1.610 . S
N330 S329 1.613 . S
N330 C333 1.350 . S
N331 S329 1.610 . S
N331 C332 1.351 . S
C332 C326 1.428 . S
C332 N331 1.351 . S
C332 C333 1.434 . S
C333 C324 1.429 . S
C333 N330 1.350 . S
C333 C332 1.434 . S
C334 C335 1.369 . S
C334 C336 1.419 . S
C334 H338 0.930 1_556 S
C335 C334 1.369 . S
C335 C344 1.429 . S
C336 C334 1.419 . S
C336 C337 1.363 . S
C336 H339 0.929 . S
C337 C336 1.363 . S
C337 C343 1.428 . S
H338 C334 0.930 1_554 S
H339 C336 0.929 . S
S340 N341 1.613 . S
S340 N342 1.610 . S
N341 S340 1.613 . S
N341 C344 1.350 . S
N342 S340 1.610 . S
N342 C343 1.351 . S
C343 C337 1.428 . S
C343 N342 1.351 . S
C343 C344 1.434 . S
C344 C335 1.429 . S
C344 N341 1.350 . S
C344 C343 1.434 . S
C345 C346 1.369 . S
C345 C347 1.419 . S
C345 H349 0.930 1_556 S
C346 C345 1.369 . S
C346 C355 1.429 . S
C347 C345 1.419 . S
C347 C348 1.363 . S
C347 H350 0.929 . S
C348 C347 1.363 . S
C348 C354 1.428 . S
H349 C345 0.930 1_554 S
H350 C347 0.929 . S
S351 N352 1.613 . S
S351 N353 1.610 . S
N352 S351 1.613 . S
N352 C355 1.350 . S
N353 S351 1.610 . S
N353 C354 1.351 . S
C354 C348 1.428 . S
C354 N353 1.351 . S
C354 C355 1.434 . S
C355 C346 1.429 . S
C355 N352 1.350 . S
C355 C354 1.434 . S
C356 C357 1.369 . S
C356 C358 1.419 1_554 S
C356 H360 0.930 . S
C357 C356 1.369 . S
C357 C366 1.429 . S
C358 C356 1.419 1_556 S
C358 C359 1.363 1_556 S
C358 H361 0.929 . S
C359 C358 1.363 1_554 S
C359 C365 1.428 . S
H360 C356 0.930 . S
H361 C358 0.929 . S
S362 N363 1.613 1_655 S
S362 N364 1.610 . S
N363 S362 1.613 1_455 S
N363 C366 1.350 . S
N364 S362 1.610 . S
N364 C365 1.351 1_655 S
C365 C359 1.428 . S
C365 N364 1.351 1_455 S
C365 C366 1.434 . S
C366 C357 1.429 . S
C366 N363 1.350 . S
C366 C365 1.434 . S
C367 C368 1.369 1_556 S
C367 C369 1.419 . S
C367 H371 0.930 . S
C368 C367 1.369 1_554 S
C368 C377 1.429 . S
C369 C367 1.419 . S
C369 C370 1.363 . S
C369 H372 0.928 1_545 S
C370 C369 1.363 . S
C370 C376 1.428 1_556 S
H371 C367 0.930 . S
H372 C369 0.928 1_565 S
S373 N374 1.613 . S
S373 N375 1.610 . S
N374 S373 1.613 . S
N374 C377 1.350 . S
N375 S373 1.610 . S
N375 C376 1.351 . S
C376 C370 1.428 1_554 S
C376 N375 1.351 . S
C376 C377 1.434 . S
C377 C368 1.429 . S
C377 N374 1.350 . S
C377 C376 1.434 . S
C378 C379 1.369 . S
C378 C380 1.419 1_554 S
C378 H382 0.930 . S
C379 C378 1.369 . S
C379 C388 1.429 . S
C380 C378 1.419 1_556 S
C380 C381 1.363 . S
C380 H383 0.929 . S
C381 C380 1.363 . S
C381 C387 1.428 . S
H382 C378 0.930 . S
H383 C380 0.929 . S
S384 N385 1.613 1_556 S
S384 N386 1.610 . S
N385 S384 1.613 1_554 S
N385 C388 1.350 . S
N386 S384 1.610 . S
N386 C387 1.351 . S
C387 C381 1.428 . S
C387 N386 1.351 . S
C387 C388 1.434 1_556 S
C388 C379 1.429 . S
C388 N385 1.350 . S
C388 C387 1.434 1_554 S
C389 C390 1.369 . S
C389 C391 1.419 . S
C389 H393 0.930 . S
C390 C389 1.369 . S
C390 C399 1.429 1_554 S
C391 C389 1.419 . S
C391 C392 1.363 1_554 S
C391 H394 0.929 . S
C392 C391 1.363 1_556 S
C392 C398 1.428 . S
H393 C389 0.930 . S
H394 C391 0.929 . S
S395 N396 1.613 . S
S395 N397 1.610 . S
N396 S395 1.613 . S
N396 C399 1.350 . S
N397 S395 1.610 . S
N397 C398 1.351 . S
C398 C392 1.428 . S
C398 N397 1.351 . S
C398 C399 1.434 . S
C399 C390 1.429 1_556 S
C399 N396 1.350 . S
C399 C398 1.434 . S
C400 C401 1.369 . S
C400 C402 1.419 . S
C400 H404 0.930 1_655 S
C401 C400 1.369 . S
C401 C410 1.429 . S
C402 C400 1.419 . S
C402 C403 1.363 . S
C402 H405 0.929 . S
C403 C402 1.363 . S
C403 C409 1.428 . S
H404 C400 0.930 1_455 S
H405 C402 0.929 . S
S406 N407 1.613 . S
S406 N408 1.610 . S
N407 S406 1.613 . S
N407 C410 1.350 . S
N408 S406 1.610 . S
N408 C409 1.351 . S
C409 C403 1.428 . S
C409 N408 1.351 . S
C409 C410 1.434 . S
C410 C401 1.429 . S
C410 N407 1.350 . S
C410 C409 1.434 . S
C411 C412 1.369 1_545 S
C411 C413 1.419 1_545 S
C411 H415 0.930 . S
C412 C411 1.369 1_565 S
C412 C421 1.429 . S
C413 C411 1.419 1_565 S
C413 C414 1.363 . S
C413 H416 0.929 1_565 S
C414 C413 1.363 . S
C414 C420 1.428 . S
H415 C411 0.930 . S
H416 C413 0.929 1_545 S
S417 N418 1.613 . S
S417 N419 1.610 . S
N418 S417 1.613 . S
N418 C421 1.350 . S
N419 S417 1.610 . S
N419 C420 1.351 . S
C420 C414 1.428 . S
C420 N419 1.351 . S
C420 C421 1.434 . S
C421 C412 1.429 . S
C421 N418 1.350 . S
C421 C420 1.434 . S
C422 C423 1.369 . S
C422 C424 1.419 . S
C422 H426 0.930 . S
C423 C422 1.369 . S
C423 C432 1.429 . S
C424 C422 1.419 . S
C424 C425 1.363 . S
C424 H427 0.929 . S
C425 C424 1.363 . S
C425 C431 1.428 . S
H426 C422 0.930 . S
H427 C424 0.929 . S
S428 N429 1.613 . S
S428 N430 1.610 . S
N429 S428 1.613 . S
N429 C432 1.350 . S
N430 S428 1.610 . S
N430 C431 1.351 . S
C431 C425 1.428 . S
C431 N430 1.351 . S
C431 C432 1.434 . S
C432 C423 1.429 . S
C432 N429 1.350 . S
C432 C431 1.434 . S
C433 C434 1.369 . S
C433 C435 1.419 . S
C433 H437 0.930 . S
C434 C433 1.369 . S
C434 C443 1.429 . S
C435 C433 1.419 . S
C435 C436 1.363 . S
C435 H438 0.929 . S
C436 C435 1.363 . S
C436 C442 1.428 . S
H437 C433 0.930 . S
H438 C435 0.929 . S
S439 N440 1.613 . S
S439 N441 1.610 . S
N440 S439 1.613 . S
N440 C443 1.350 . S
N441 S439 1.610 . S
N441 C442 1.351 . S
C442 C436 1.428 . S
C442 N441 1.351 . S
C442 C443 1.434 . S
C443 C434 1.429 . S
C443 N440 1.350 . S
C443 C442 1.434 . S
C181 C76 1.589 . S
C183 C104 1.615 . S
C194 C127 1.641 . S
C192 C87 1.610 . S
C205 C150 1.638 . S
C203 C54 1.611 . S
C216 C177 1.526 . S
C214 C65 1.579 . S
C227 C105 1.566 . S
C225 C32 1.536 1_556 S
C236 C43 1.496 . S
C238 C128 1.532 . S
C247 C10 1.492 . S
C249 C151 1.525 . S
C258 C21 1.574 1_556 S
C260 C176 1.586 . S
C271 C106 0.744 . S
C269 C60 0.756 . S
C282 C129 0.713 . S
C280 C71 0.711 . S
C293 C152 0.739 . S
C291 C82 0.748 . S
C302 C49 0.881 . S
C304 C178 0.870 . S
C313 C16 0.981 1_556 S
C315 C109 0.955 . S
C326 C132 0.945 . S
C324 C27 0.979 1_556 S
C337 C155 0.906 . S
C335 C38 0.968 . S
C346 C5 0.725 . S
C348 C175 0.720 . S
C357 C59 1.565 . S
C359 C107 1.549 1_554 S
C368 C70 1.522 . S
C370 C130 1.533 . S
C381 C153 1.540 . S
C379 C81 1.546 . S
C392 C174 1.457 . S
C390 C48 1.401 . S
C401 C15 1.642 1_655 S
C403 C108 1.568 . S
C414 C131 1.520 . S
C412 C26 1.607 1_565 S
C425 C154 1.509 . S
C423 C37 1.579 . S
C434 C4 1.648 . S
C436 C173 1.698 . S
