# Generated by pormake.
# Topology pyr, (3,6)-cn, num edge types: 1
# Building blocks:
#     Node 0, Type 0, BuildingBlock: BETDIP_clean_linker_0, # of connection points: 3
#     Node 1, Type 0, BuildingBlock: BETDIP_clean_linker_0, # of connection points: 3
#     Node 2, Type 0, BuildingBlock: BETDIP_clean_linker_0, # of connection points: 3
#     Node 3, Type 0, BuildingBlock: BETDIP_clean_linker_0, # of connection points: 3
#     Node 4, Type 0, BuildingBlock: BETDIP_clean_linker_0, # of connection points: 3
#     Node 5, Type 0, BuildingBlock: BETDIP_clean_linker_0, # of connection points: 3
#     Node 6, Type 0, BuildingBlock: BETDIP_clean_linker_0, # of connection points: 3
#     Node 7, Type 0, BuildingBlock: BETDIP_clean_linker_0, # of connection points: 3
#     Node 8, Type 1, BuildingBlock: BETFEN_clean_sbu_0, # of connection points: 6
#     Node 9, Type 1, BuildingBlock: BETFEN_clean_sbu_0, # of connection points: 6
#     Node 10, Type 1, BuildingBlock: BETFEN_clean_sbu_0, # of connection points: 6
#     Node 11, Type 1, BuildingBlock: BETFEN_clean_sbu_0, # of connection points: 6
#     Edge 12, Type (0, 1), BuildingBlock: TEMPAE_clean_linker_10, # of connection points: 2
#     Edge 13, Type (0, 1), BuildingBlock: TEMPAE_clean_linker_10, # of connection points: 2
#     Edge 14, Type (0, 1), BuildingBlock: TEMPAE_clean_linker_10, # of connection points: 2
#     Edge 15, Type (0, 1), BuildingBlock: TEMPAE_clean_linker_10, # of connection points: 2
#     Edge 16, Type (0, 1), BuildingBlock: TEMPAE_clean_linker_10, # of connection points: 2
#     Edge 17, Type (0, 1), BuildingBlock: TEMPAE_clean_linker_10, # of connection points: 2
#     Edge 18, Type (0, 1), BuildingBlock: TEMPAE_clean_linker_10, # of connection points: 2
#     Edge 19, Type (0, 1), BuildingBlock: TEMPAE_clean_linker_10, # of connection points: 2
#     Edge 20, Type (0, 1), BuildingBlock: TEMPAE_clean_linker_10, # of connection points: 2
#     Edge 21, Type (0, 1), BuildingBlock: TEMPAE_clean_linker_10, # of connection points: 2
#     Edge 22, Type (0, 1), BuildingBlock: TEMPAE_clean_linker_10, # of connection points: 2
#     Edge 23, Type (0, 1), BuildingBlock: TEMPAE_clean_linker_10, # of connection points: 2
#     Edge 24, Type (0, 1), BuildingBlock: TEMPAE_clean_linker_10, # of connection points: 2
#     Edge 25, Type (0, 1), BuildingBlock: TEMPAE_clean_linker_10, # of connection points: 2
#     Edge 26, Type (0, 1), BuildingBlock: TEMPAE_clean_linker_10, # of connection points: 2
#     Edge 27, Type (0, 1), BuildingBlock: TEMPAE_clean_linker_10, # of connection points: 2
#     Edge 28, Type (0, 1), BuildingBlock: TEMPAE_clean_linker_10, # of connection points: 2
#     Edge 29, Type (0, 1), BuildingBlock: TEMPAE_clean_linker_10, # of connection points: 2
#     Edge 30, Type (0, 1), BuildingBlock: TEMPAE_clean_linker_10, # of connection points: 2
#     Edge 31, Type (0, 1), BuildingBlock: TEMPAE_clean_linker_10, # of connection points: 2
#     Edge 32, Type (0, 1), BuildingBlock: TEMPAE_clean_linker_10, # of connection points: 2
#     Edge 33, Type (0, 1), BuildingBlock: TEMPAE_clean_linker_10, # of connection points: 2
#     Edge 34, Type (0, 1), BuildingBlock: TEMPAE_clean_linker_10, # of connection points: 2
#     Edge 35, Type (0, 1), BuildingBlock: TEMPAE_clean_linker_10, # of connection points: 2
# Relax obj value: 0.176
# Max RMSD: 0.301
# Mean RMSD: 0.155
data_MOF--net-pyr--node1-BETFEN_clean_sbu_0--node2-BETDIP_clean_linker_0--edge1-TEMPAE_clean_linker_10
_symmetry_space_group_name_H-M    P1
_symmetry_Int_Tables_number       1
_symmetry_cell_setting            triclinic
loop_
_symmetry_equiv_pos_as_xyz
'x, y, z'
_cell_length_a     36.761482
_cell_length_b     40.48763
_cell_length_c     39.726151
_cell_angle_alpha  93.258667
_cell_angle_beta   97.391078
_cell_angle_gamma 116.32916
loop_
_atom_site_label
_atom_site_type_symbol
_atom_site_fract_x
_atom_site_fract_y
_atom_site_fract_z
_atom_type_partial_charge
H0 H 0.34447 0.38966 0.27985 0.0
H1 H 0.43205 0.38419 0.22041 0.0
H2 H 0.3806 0.30256 0.28739 0.0
H3 H 0.40207 0.40653 0.18303 0.0
C4 C 0.38452 0.41793 0.19507 0.0
C5 C 0.36428 0.37757 0.27382 0.0
C6 C 0.36141 0.34572 0.28791 0.0
C7 C 0.38961 0.39166 0.24937 0.0
C8 C 0.41299 0.37425 0.23981 0.0
C9 C 0.40982 0.34219 0.25349 0.0
C10 C 0.38494 0.32861 0.27826 0.0
N11 N 0.38583 0.4193 0.23101 0.0
H12 H 0.23177 0.83416 0.74324 0.0
H13 H 0.24022 0.77365 0.65453 0.0
H14 H 0.31571 0.78648 0.75174 0.0
H15 H 0.23767 0.83862 0.63885 0.0
C16 C 0.20963 0.83255 0.64907 0.0
C17 C 0.24493 0.81795 0.73179 0.0
C18 C 0.2755 0.81215 0.75163 0.0
C19 C 0.23225 0.80447 0.69691 0.0
C20 C 0.24969 0.78379 0.6816 0.0
C21 C 0.27983 0.77682 0.70143 0.0
C22 C 0.29207 0.79097 0.73643 0.0
N23 N 0.20241 0.81285 0.67801 0.0
H24 H 0.69925 0.36942 0.79385 0.0
H25 H 0.57918 0.27815 0.79018 0.0
H26 H 0.68514 0.27982 0.85241 0.0
H27 H 0.56617 0.30154 0.73473 0.0
C28 C 0.5893 0.33036 0.73732 0.0
C29 C 0.68046 0.34243 0.80113 0.0
C30 C 0.69782 0.32729 0.82537 0.0
C31 C 0.63851 0.32436 0.78675 0.0
C32 C 0.61215 0.29087 0.7988 0.0
C33 C 0.62916 0.27563 0.82412 0.0
C34 C 0.6721 0.29276 0.83476 0.0
N35 N 0.62517 0.34373 0.763 0.0
H36 H 0.7964 0.60905 0.30257 0.0
H37 H 0.879 0.71612 0.27686 0.0
H38 H 0.81092 0.70879 0.35891 0.0
H39 H 0.85157 0.67478 0.21961 0.0
C40 C 0.86006 0.65396 0.22881 0.0
C41 C 0.80986 0.63909 0.3065 0.0
C42 C 0.79972 0.65678 0.33272 0.0
C43 C 0.83817 0.66024 0.28577 0.0
C44 C 0.8564 0.69958 0.29185 0.0
C45 C 0.84638 0.71746 0.31815 0.0
C46 C 0.81801 0.69554 0.33797 0.0
N47 N 0.84997 0.6415 0.26088 0.0
H48 H 0.6136 0.67225 0.83658 0.0
H49 H 0.70155 0.66776 0.77821 0.0
H50 H 0.64121 0.73433 0.75092 0.0
H51 H 0.67598 0.60318 0.79933 0.0
C52 C 0.68334 0.62103 0.82325 0.0
C53 C 0.62837 0.6794 0.81434 0.0
C54 C 0.62499 0.70635 0.79523 0.0
C55 C 0.65391 0.66369 0.80695 0.0
C56 C 0.67832 0.67664 0.78146 0.0
C57 C 0.67519 0.7035 0.7622 0.0
C58 C 0.6454 0.71518 0.76708 0.0
N59 N 0.65861 0.63877 0.82865 0.0
H60 H 0.80087 0.19439 0.30883 0.0
H61 H 0.78776 0.25322 0.39634 0.0
H62 H 0.72596 0.25098 0.29593 0.0
H63 H 0.87035 0.22024 0.34625 0.0
C64 C 0.85659 0.20693 0.36754 0.0
C65 C 0.78881 0.2119 0.31951 0.0
C66 C 0.76213 0.22121 0.29802 0.0
C67 C 0.79858 0.22374 0.35499 0.0
C68 C 0.7813 0.24517 0.36892 0.0
C69 C 0.7552 0.25553 0.3477 0.0
C70 C 0.74645 0.24369 0.31235 0.0
N71 N 0.82315 0.212 0.37718 0.0
H72 H 0.36502 0.68419 0.26082 0.0
H73 H 0.47778 0.78391 0.25934 0.0
H74 H 0.36535 0.76144 0.19204 0.0
H75 H 0.40647 0.6608 0.27722 0.0
C76 C 0.43094 0.68255 0.29569 0.0
C77 C 0.38226 0.70989 0.25083 0.0
C78 C 0.3612 0.72013 0.22498 0.0
C79 C 0.42457 0.73224 0.26349 0.0
C80 C 0.44525 0.76638 0.25012 0.0
C81 C 0.42367 0.77759 0.22463 0.0
C82 C 0.38172 0.7541 0.21261 0.0
N83 N 0.44599 0.7206 0.28941 0.0
H84 H 0.15211 0.30786 0.75501 0.0
H85 H 0.24873 0.41657 0.74686 0.0
H86 H 0.22929 0.32078 0.67964 0.0
H87 H 0.24174 0.42838 0.80391 0.0
C88 C 0.20897 0.4125 0.80404 0.0
C89 C 0.17812 0.32546 0.74354 0.0
C90 C 0.18874 0.31003 0.71616 0.0
C91 C 0.20007 0.36376 0.75562 0.0
C92 C 0.23281 0.38684 0.73921 0.0
C93 C 0.243 0.37149 0.71113 0.0
C94 C 0.22147 0.33302 0.70083 0.0
N95 N 0.18597 0.37805 0.78221 0.0
Pr96 Pr 0.98007 0.99285 0.53163 0.0
Pr97 Pr 0.05748 0.02958 0.50194 0.0
C98 C 0.90813 0.93944 0.54227 0.0
C99 C 0.89326 0.91327 0.56733 0.0
C100 C 0.8947 0.92539 0.60159 0.0
C101 C 0.87921 0.89948 0.62435 0.0
C102 C 0.86206 0.86132 0.61304 0.0
C103 C 0.86192 0.84939 0.57921 0.0
C104 C 0.87736 0.87515 0.55654 0.0
C105 C 0.03363 0.05453 0.57987 0.0
C106 C 0.05813 0.97401 0.55689 0.0
C107 C 0.12382 0.07013 0.47404 0.0
C108 C 0.13681 0.09904 0.45107 0.0
C109 C 0.13224 0.08906 0.41574 0.0
C110 C 0.14688 0.11632 0.39417 0.0
C111 C 0.16675 0.15409 0.40757 0.0
C112 C 0.17042 0.16406 0.44276 0.0
C113 C 0.15562 0.1368 0.46432 0.0
C114 C 1.00034 0.96005 0.46809 0.0
C115 C 0.98371 0.05651 0.48313 0.0
O116 O 0.93141 0.93337 0.52302 0.0
O117 O 0.9202 0.97476 0.55186 0.0
O118 O 0.04221 0.04566 0.55202 0.0
O119 O 0.99696 0.0309 0.58369 0.0
O120 O 0.08236 1.00487 0.54568 0.0
O121 O 0.01771 0.96084 0.55055 0.0
O122 O 0.11951 0.07951 0.5048 0.0
O123 O 0.09548 0.03717 0.46025 0.0
O124 O 0.99207 0.98611 0.47688 0.0
O125 O 0.03869 0.96867 0.47853 0.0
O126 O 0.95932 0.02897 0.4982 0.0
O127 O 0.02237 0.06367 0.48236 0.0
H128 H 0.90706 0.95467 0.61065 0.0
H129 H 0.87905 0.90912 0.65032 0.0
H130 H 0.84883 0.82004 0.5701 0.0
H131 H 0.87625 0.86521 0.53034 0.0
H132 H 0.11803 0.06014 0.40478 0.0
H133 H 0.14335 0.10783 0.3671 0.0
H134 H 0.18625 0.19292 0.45394 0.0
H135 H 0.15987 0.14536 0.49146 0.0
Pr136 Pr 0.48725 0.03156 0.03236 0.0
Pr137 Pr 0.54913 0.01883 1.01283 0.0
C138 C 0.43762 0.04706 0.06749 0.0
C139 C 0.44072 0.07952 0.08865 0.0
C140 C 0.44871 0.11299 0.07524 0.0
C141 C 0.45194 0.14348 0.09599 0.0
C142 C 0.44747 0.1411 0.13051 0.0
C143 C 0.44004 0.10776 0.14393 0.0
C144 C 0.43657 0.07723 0.12314 0.0
C145 C 0.51784 0.07406 0.97925 0.0
C146 C 0.58274 0.08306 0.07429 0.0
C147 C 0.59918 1.0014 0.98018 0.0
C148 C 0.59559 0.96725 0.96166 0.0
C149 C 0.59429 0.93757 0.9791 0.0
C150 C 0.58961 0.90501 0.96102 0.0
C151 C 0.58601 0.90149 0.92524 0.0
C152 C 0.58726 0.93109 0.90782 0.0
C153 C 0.59215 0.96373 0.9259 0.0
C154 C 0.51716 0.97694 0.06588 0.0
C155 C 0.45424 0.96707 0.97039 0.0
O156 O 0.46033 0.03204 0.08033 0.0
O157 O 0.43665 0.04852 0.03466 0.0
O158 O 0.54039 0.07105 1.0047 0.0
O159 O 0.4792 0.05511 0.98099 0.0
O160 O 0.5943 0.07405 0.04685 0.0
O161 O 0.54339 0.06705 0.07672 0.0
O162 O 0.57628 0.01546 0.9656 0.0
O163 O 0.60063 1.00271 1.01325 0.0
O164 O 0.49556 0.97888 0.03925 0.0
O165 O 0.55591 0.99805 0.06624 0.0
O166 O 0.44216 0.97689 0.99717 0.0
O167 O 0.49368 0.98281 0.96836 0.0
H168 H 0.45233 0.11565 0.04874 0.0
H169 H 0.45709 0.16865 0.08482 0.0
H170 H 0.43695 0.10528 0.17054 0.0
H171 H 0.43072 0.05178 0.13406 0.0
H172 H 0.59666 0.93932 1.00667 0.0
H173 H 0.58855 0.88248 0.975 0.0
H174 H 0.58523 0.92928 0.88027 0.0
H175 H 0.59316 0.98624 0.9119 0.0
Pr176 Pr 0.53296 0.56138 0.54842 0.0
Pr177 Pr 0.51382 0.48282 0.50344 0.0
C178 C 0.53271 0.62404 0.57563 0.0
C179 C 0.50131 0.63348 0.58809 0.0
C180 C 0.50471 0.64442 0.62308 0.0
C181 C 0.47621 0.65473 0.63475 0.0
C182 C 0.44364 0.65464 0.61169 0.0
C183 C 0.43978 0.6429 0.57679 0.0
C184 C 0.4681 0.63246 0.56516 0.0
C185 C 0.55193 0.51117 0.58398 0.0
C186 C 0.44921 0.4851 0.55325 0.0
C187 C 0.51813 0.42144 0.47825 0.0
C188 C 0.54841 0.41134 0.46488 0.0
C189 C 0.54005 0.39511 0.43071 0.0
C190 C 0.56704 0.38363 0.41799 0.0
C191 C 0.60269 0.38764 0.43931 0.0
C192 C 0.61156 0.40445 0.47327 0.0
C193 C 0.58491 0.41649 0.48585 0.0
C194 C 0.48116 0.52452 0.4657 0.0
C195 C 0.59864 0.56031 0.49739 0.0
O196 O 0.52784 0.61453 0.54276 0.0
O197 O 0.54609 0.60449 0.59389 0.0
O198 O 0.55743 0.51728 0.55354 0.0
O199 O 0.53988 0.53375 0.59745 0.0
O200 O 0.46454 0.46423 0.5399 0.0
O201 O 0.46398 0.52095 0.5502 0.0
O202 O 0.52423 0.43232 0.51108 0.0
O203 O 0.50377 0.43985 0.45935 0.0
O204 O 0.49895 0.53118 0.49631 0.0
O205 O 0.47691 0.49227 0.45358 0.0
O206 O 0.58765 0.58154 0.51628 0.0
O207 O 0.57853 0.52362 0.49301 0.0
H208 H 0.52985 0.64553 0.64144 0.0
H209 H 0.48047 0.66387 0.66176 0.0
H210 H 0.4148 0.64186 0.5583 0.0
H211 H 0.46407 0.6239 0.53805 0.0
H212 H 0.51218 0.39071 0.41395 0.0
H213 H 0.55935 0.37046 0.3918 0.0
H214 H 0.63894 0.40791 0.49016 0.0
H215 H 0.59259 0.42925 0.51214 0.0
Pr216 Pr 0.04345 0.56329 1.00027 0.0
Pr217 Pr 0.02541 0.49856 0.03666 0.0
C218 C 0.03989 0.61796 0.96702 0.0
C219 C 1.00732 0.62946 0.96086 0.0
C220 C 1.01711 0.6671 0.96099 0.0
C221 C 0.98568 0.67779 0.95582 0.0
C222 C 0.94412 0.65087 0.95048 0.0
C223 C 0.93473 0.61323 0.9508 0.0
C224 C 0.96595 0.60269 0.9563 0.0
C225 C 0.10964 0.57487 0.05036 0.0
C226 C 0.98753 0.55167 0.06368 0.0
C227 C 0.02822 0.44339 0.06966 0.0
C228 C 0.05933 0.4301 0.07444 0.0
C229 C 0.04996 0.39546 0.08548 0.0
C230 C 0.08055 0.38381 0.09116 0.0
C231 C 0.12082 0.40677 0.08584 0.0
C232 C 0.12952 0.44108 0.07387 0.0
C233 C 0.09903 0.45255 0.06813 0.0
C234 C 0.96046 0.48779 0.98514 0.0
C235 C 0.08034 0.50936 0.97302 0.0
O236 O 0.03127 0.58536 0.95149 0.0
O237 O 0.0578 0.62366 0.99885 0.0
O238 O 0.07238 0.55955 0.05422 0.0
O239 O 0.11344 0.58484 0.02002 0.0
O240 O 0.9973 0.52535 0.07227 0.0
O241 O 0.99734 0.56707 0.03554 0.0
O242 O 0.03972 0.47677 0.08499 0.0
O243 O 1.00891 0.43782 0.03831 0.0
O244 O 0.99792 0.50224 0.98231 0.0
O245 O 0.95547 0.47794 0.01538 0.0
O246 O 0.06879 0.53447 0.9638 0.0
O247 O 0.0725 0.49556 1.00215 0.0
H248 H 0.04897 0.68812 0.96506 0.0
H249 H 0.99386 0.707 0.95588 0.0
H250 H 0.90314 0.5916 0.9459 0.0
H251 H 0.95767 0.57348 0.95664 0.0
H252 H 0.01926 0.37776 0.09018 0.0
H253 H 0.07286 0.35713 0.10014 0.0
H254 H 0.16033 0.45985 0.07022 0.0
H255 H 0.10677 0.47945 0.05959 0.0
C256 C 0.33779 0.31851 0.34017 0.0
C257 C 0.32823 0.32554 0.30703 0.0
C258 C 0.30704 0.29301 0.35598 0.0
C259 C 0.26621 0.27351 0.33766 0.0
C260 C 0.25611 0.28189 0.30474 0.0
C261 C 0.28737 0.30814 0.28985 0.0
C262 C 0.31878 0.2852 0.39139 0.0
C263 C 0.21312 0.26117 0.28423 0.0
C264 C 0.21038 0.17746 0.3628 0.0
C265 C 0.18702 0.18299 0.3857 0.0
C266 C 0.23455 0.20627 0.34545 0.0
C267 C 0.23565 0.24152 0.35147 0.0
C268 C 0.21032 0.24669 0.37298 0.0
C269 C 0.18615 0.21724 0.38983 0.0
C270 C 0.26068 0.19953 0.32218 0.0
C271 C 0.21044 0.28381 0.37968 0.0
H272 H 0.3696 0.33186 0.35309 0.0
H273 H 0.28039 0.31325 0.26387 0.0
H274 H 0.29692 0.28557 0.40806 0.0
H275 H 0.31706 0.25708 0.38984 0.0
H276 H 0.3505 0.30573 0.40359 0.0
H277 H 0.20898 0.27463 0.26143 0.0
H278 H 0.20698 0.2324 0.27538 0.0
H279 H 0.18978 0.25918 0.30021 0.0
H280 H 0.21149 0.15116 0.35972 0.0
H281 H 0.16749 0.22135 0.40705 0.0
H282 H 0.2937 0.21546 0.33386 0.0
H283 H 0.25655 0.20942 0.29717 0.0
H284 H 0.25307 0.16968 0.31755 0.0
H285 H 0.24039 0.30391 0.39529 0.0
H286 H 0.18537 0.28197 0.39357 0.0
H287 H 0.2071 0.29508 0.35531 0.0
C288 C 0.30528 0.86933 0.79419 0.0
C289 C 0.2933 0.83124 0.78719 0.0
C290 C 0.32738 0.88922 0.82626 0.0
C291 C 0.33758 0.87056 0.85211 0.0
C292 C 0.32336 0.83166 0.84589 0.0
C293 C 0.30166 0.8125 0.81339 0.0
C294 C 0.34199 0.93067 0.83172 0.0
C295 C 0.33277 0.81058 0.87298 0.0
C296 C 0.43765 0.92981 0.91325 0.0
C297 C 0.42387 0.93988 0.94158 0.0
C298 C 0.40979 0.90642 0.88449 0.0
C299 C 0.36691 0.89252 0.88395 0.0
C300 C 0.35264 0.90149 0.9129 0.0
C301 C 0.38131 0.92516 0.94138 0.0
C302 C 0.42639 0.89754 0.85421 0.0
C303 C 0.30715 0.88688 0.9134 0.0
H304 H 0.29927 0.88405 0.77396 0.0
H305 H 0.292 0.78296 0.80822 0.0
H306 H 0.3342 0.93876 0.85589 0.0
H307 H 0.37603 0.94533 0.83401 0.0
H308 H 0.32828 0.94037 0.81032 0.0
H309 H 0.31481 0.78002 0.86586 0.0
H310 H 0.36604 0.81801 0.87678 0.0
H311 H 0.32599 0.81829 0.89783 0.0
H312 H 0.47043 0.9408 0.91316 0.0
H313 H 0.37033 0.93268 0.96319 0.0
H314 H 0.41716 0.90871 0.83159 0.0
H315 H 0.41311 0.86701 0.84754 0.0
H316 H 0.46052 0.90943 0.8592 0.0
H317 H 0.29372 0.89893 0.89406 0.0
H318 H 0.30097 0.89378 0.93884 0.0
H319 H 0.29099 0.85627 0.90643 0.0
C320 C 0.55032 0.34258 0.68631 0.0
C321 C 0.58499 0.35554 0.7123 0.0
C322 C 0.54536 0.36598 0.66293 0.0
C323 C 0.57579 0.40352 0.66535 0.0
C324 C 0.61133 0.4165 0.69109 0.0
C325 C 0.61547 0.39253 0.71412 0.0
C326 C 0.507 0.35072 0.63604 0.0
C327 C 0.64465 0.45613 0.69491 0.0
C328 C 0.57698 0.46201 0.59156 0.0
C329 C 0.55735 0.4823 0.60309 0.0
C330 C 0.58289 0.43602 0.6112 0.0
C331 C 0.56883 0.43005 0.64313 0.0
C332 C 0.54852 0.45018 0.65443 0.0
C333 C 0.54311 0.47581 0.63444 0.0
C334 C 0.60467 0.41528 0.59804 0.0
C335 C 0.53282 0.44502 0.68802 0.0
H336 H 0.52673 0.31409 0.68447 0.0
H337 H 0.64261 0.40306 0.73382 0.0
H338 H 0.48841 0.36534 0.64073 0.0
H339 H 0.51539 0.35575 0.6103 0.0
H340 H 0.48758 0.32045 0.6359 0.0
H341 H 0.67169 0.46132 0.71448 0.0
H342 H 0.65517 0.463 0.67012 0.0
H343 H 0.63215 0.47534 0.70241 0.0
H344 H 0.58831 0.46688 0.56754 0.0
H345 H 0.52766 0.49105 0.64363 0.0
H346 H 0.58488 0.3849 0.59628 0.0
H347 H 0.63332 0.42213 0.61623 0.0
H348 H 0.61281 0.42213 0.5725 0.0
H349 H 0.51097 0.41542 0.68825 0.0
H350 H 0.51695 0.46218 0.69293 0.0
H351 H 0.55886 0.45261 0.70938 0.0
C352 C 0.90297 0.62123 0.217 0.0
C353 C 0.87594 0.6355 0.20493 0.0
C354 C 0.92064 0.60693 0.19417 0.0
C355 C 0.90993 0.6055 0.15823 0.0
C356 C 0.88136 0.61862 0.14603 0.0
C357 C 0.86553 0.63412 0.16944 0.0
C358 C 0.9519 0.59452 0.20856 0.0
C359 C 0.86752 0.61643 0.10815 0.0
C360 C 0.98222 0.60336 0.09728 0.0
C361 C 0.96662 0.56523 0.08674 0.0
C362 C 0.96473 0.61667 0.12098 0.0
C363 C 0.92945 0.59145 0.13346 0.0
C364 C 0.91281 0.55291 0.12193 0.0
C365 C 0.93218 0.54024 0.09948 0.0
C366 C 0.9846 0.65778 0.1332 0.0
C367 C 0.87423 0.52502 0.133 0.0
H368 H 0.91156 0.62256 0.24437 0.0
H369 H 0.84458 0.645 0.1599 0.0
H370 H 0.94131 0.56491 0.19901 0.0
H371 H 0.98152 0.61085 0.19972 0.0
H372 H 0.95753 0.59792 0.23699 0.0
H373 H 0.84241 0.62458 0.10277 0.0
H374 H 0.89383 0.63499 0.09641 0.0
H375 H 0.85655 0.58773 0.09546 0.0
H376 H 1.00911 0.62278 0.08783 0.0
H377 H 0.91988 0.51074 0.09133 0.0
H378 H 0.99204 0.66258 0.16157 0.0
H379 H 0.96288 0.66922 0.12536 0.0
H380 H 1.01331 0.67344 0.12281 0.0
H381 H 0.87995 0.5245 0.16101 0.0
H382 H 0.86346 0.4965 0.11988 0.0
H383 H 0.84921 0.53323 0.12752 0.0
C384 C 0.45038 0.30639 0.25493 0.0
C385 C 0.42432 0.31825 0.23644 0.0
C386 C 0.45987 0.27992 0.23928 0.0
C387 C 0.44165 0.26438 0.20487 0.0
C388 C 0.41595 0.27695 0.186 0.0
C389 C 0.40793 0.30406 0.20199 0.0
C390 C 0.4881 0.26764 0.25984 0.0
C391 C 0.39519 0.26043 0.1495 0.0
C392 C 0.47797 0.20925 0.15028 0.0
C393 C 0.44868 0.17275 0.15201 0.0
C394 C 0.47732 0.23951 0.16869 0.0
C395 C 0.44658 0.23294 0.18911 0.0
C396 C 0.41786 0.19613 0.19189 0.0
C397 C 0.41925 0.16646 0.17327 0.0
C398 C 0.50852 0.27847 0.16534 0.0
C399 C 0.38436 0.18808 0.21321 0.0
H400 H 0.46269 0.31737 0.28168 0.0
H401 H 0.38711 0.31289 0.18802 0.0
H402 H 0.47027 0.23844 0.2645 0.0
H403 H 0.51236 0.26858 0.24536 0.0
H404 H 0.50312 0.28522 0.28494 0.0
H405 H 0.3775 0.27449 0.13806 0.0
H406 H 0.41839 0.26236 0.13341 0.0
H407 H 0.37371 0.23052 0.14868 0.0
H408 H 0.50114 0.21417 0.13423 0.0
H409 H 0.39623 0.13833 0.17435 0.0
H410 H 0.52333 0.29467 0.19101 0.0
H411 H 0.49278 0.29286 0.15147 0.0
H412 H 0.53283 0.27873 0.15124 0.0
H413 H 0.39784 0.20259 0.23963 0.0
H414 H 0.36631 0.15788 0.21454 0.0
H415 H 0.36295 0.19869 0.20208 0.0
C416 C 0.14669 0.84352 0.64756 0.0
C417 C 0.18429 0.85126 0.63679 0.0
C418 C 0.12363 0.8621 0.63615 0.0
C419 C 0.13862 0.8893 0.61365 0.0
C420 C 0.17663 0.89717 0.6029 0.0
C421 C 0.19877 0.878 0.61444 0.0
C422 C 0.08327 0.85271 0.6482 0.0
C423 C 0.19402 0.92598 0.57913 0.0
C424 C 0.06621 0.91601 0.55698 0.0
C425 C 0.07625 0.95139 0.57309 0.0
C426 C 0.0856 0.89517 0.57023 0.0
C427 C 0.11483 0.90953 0.60099 0.0
C428 C 0.12351 0.9446 0.61817 0.0
C429 C 0.10477 0.96545 0.60363 0.0
C430 C 0.07597 0.85843 0.55055 0.0
C431 C 0.15321 0.96044 0.6516 0.0
H432 H 0.13519 0.82288 0.66483 0.0
H433 H 0.22788 0.88426 0.60619 0.0
H434 H 0.08399 0.87814 0.66098 0.0
H435 H 0.05777 0.84189 0.62595 0.0
H436 H 0.07628 0.83162 0.66628 0.0
H437 H 0.2238 0.92873 0.57298 0.0
H438 H 0.17178 0.91854 0.55491 0.0
H439 H 0.19891 0.95343 0.59097 0.0
H440 H 0.0443 0.90527 0.5332 0.0
H441 H 0.11231 0.99273 0.61617 0.0
H442 H 0.06616 0.83615 0.56732 0.0
H443 H 0.10415 0.86008 0.5418 0.0
H444 H 0.05137 0.85045 0.52783 0.0
H445 H 0.14468 0.93979 0.67006 0.0
H446 H 0.15386 0.98634 0.66325 0.0
H447 H 0.18473 0.96664 0.64737 0.0
C448 C 0.75156 0.34573 0.8784 0.0
C449 C 0.74132 0.34932 0.8439 0.0
C450 C 0.79085 0.3682 0.89739 0.0
C451 C 0.82043 0.39654 0.8823 0.0
C452 C 0.81112 0.39999 0.84739 0.0
C453 C 0.77197 0.3759 0.82843 0.0
C454 C 0.80001 0.36258 0.93422 0.0
C455 C 0.84175 0.43021 0.83054 0.0
C456 C 0.89354 0.47553 0.9506 0.0
C457 C 0.92755 0.46841 0.95554 0.0
C458 C 0.85974 0.45415 0.92467 0.0
C459 C 0.8595 0.42411 0.90427 0.0
C460 C 0.8947 0.41784 0.90844 0.0
C461 C 0.92861 0.44047 0.93385 0.0
C462 C 0.8234 0.46251 0.92028 0.0
C463 C 0.89544 0.38562 0.888 0.0
H464 H 0.72849 0.32634 0.89141 0.0
H465 H 0.76522 0.3786 0.80168 0.0
H466 H 0.83 0.36183 0.93943 0.0
H467 H 0.80227 0.38619 0.95147 0.0
H468 H 0.77576 0.33645 0.94072 0.0
H469 H 0.83133 0.42719 0.80252 0.0
H470 H 0.8463 0.45768 0.84208 0.0
H471 H 0.87214 0.4302 0.83505 0.0
H472 H 0.8931 0.49736 0.96742 0.0
H473 H 0.95507 0.43498 0.93805 0.0
H474 H 0.79727 0.44052 0.9298 0.0
H475 H 0.81305 0.4626 0.8928 0.0
H476 H 0.83076 0.48975 0.93453 0.0
H477 H 0.87581 0.35944 0.89768 0.0
H478 H 0.9271 0.3883 0.8901 0.0
H479 H 0.8827 0.38313 0.8606 0.0
C480 C 0.72961 0.61356 0.34498 0.0
C481 C 0.77172 0.63651 0.35662 0.0
C482 C 0.70174 0.60123 0.36827 0.0
C483 C 0.71637 0.61225 0.40399 0.0
C484 C 0.7591 0.63435 0.41574 0.0
C485 C 0.78611 0.64601 0.39202 0.0
C486 C 0.65647 0.57751 0.35463 0.0
C487 C 0.77626 0.64674 0.45341 0.0
C488 C 0.64202 0.61054 0.46419 0.0
C489 C 0.63278 0.57685 0.47742 0.0
C490 C 0.66902 0.62241 0.44017 0.0
C491 C 0.68739 0.60021 0.42929 0.0
C492 C 0.67896 0.56675 0.44336 0.0
C493 C 0.65193 0.55558 0.46711 0.0
C494 C 0.677 0.65819 0.4257 0.0
C495 C 0.69782 0.54223 0.43278 0.0
H496 H 0.71822 0.60675 0.31766 0.0
H497 H 0.81862 0.66403 0.4011 0.0
H498 H 0.64447 0.55182 0.36712 0.0
H499 H 0.63906 0.59286 0.36078 0.0
H500 H 0.65025 0.56963 0.32647 0.0
H501 H 0.81033 0.66337 0.45841 0.0
H502 H 0.76262 0.66378 0.46394 0.0
H503 H 0.76783 0.62223 0.46752 0.0
H504 H 0.6268 0.62679 0.47142 0.0
H505 H 0.64499 0.52944 0.47707 0.0
H506 H 0.66597 0.6523 0.39765 0.0
H507 H 0.71058 0.67704 0.42991 0.0
H508 H 0.66138 0.67282 0.43737 0.0
H509 H 0.68869 0.53325 0.40479 0.0
H510 H 0.68823 0.51709 0.44616 0.0
H511 H 0.73192 0.55804 0.43828 0.0
C512 C 0.33283 0.44028 0.17863 0.0
C513 C 0.34648 0.41348 0.17408 0.0
C514 C 0.29477 0.43481 0.16081 0.0
C515 C 0.26932 0.40103 0.13915 0.0
C516 C 0.28302 0.37373 0.13472 0.0
C517 C 0.32197 0.38062 0.15187 0.0
C518 C 0.28157 0.46494 0.16554 0.0
C519 C 0.25608 0.33693 0.11281 0.0
C520 C 0.15836 0.38298 0.12666 0.0
C521 C 0.1549 0.3972 0.09569 0.0
C522 C 0.19451 0.38109 0.13984 0.0
C523 C 0.22809 0.39441 0.12189 0.0
C524 C 0.22354 0.40587 0.08932 0.0
C525 C 0.18675 0.40673 0.07642 0.0
C526 C 0.19781 0.36753 0.17419 0.0
C527 C 0.25866 0.42025 0.06941 0.0
H528 H 0.35196 0.46547 0.19614 0.0
H529 H 0.33255 0.35965 0.14913 0.0
H530 H 0.27326 0.4725 0.1403 0.0
H531 H 0.25378 0.45465 0.17785 0.0
H532 H 0.30608 0.49039 0.1816 0.0
H533 H 0.27117 0.31848 0.11247 0.0
H534 H 0.22668 0.32245 0.12253 0.0
H535 H 0.24818 0.34145 0.08616 0.0
H536 H 0.13397 0.37559 0.14176 0.0
H537 H 0.18375 0.41678 0.05201 0.0
H538 H 0.21719 0.39164 0.194 0.0
H539 H 0.21281 0.34905 0.17383 0.0
H540 H 0.16717 0.35226 0.18183 0.0
H541 H 0.28256 0.44787 0.08228 0.0
H542 H 0.24841 0.42324 0.0427 0.0
H543 H 0.27332 0.40154 0.06874 0.0
C544 C 0.61376 0.25214 0.88008 0.0
C545 C 0.60444 0.2453 0.84409 0.0
C546 C 0.59892 0.22347 0.90071 0.0
C547 C 0.57296 0.18647 0.88539 0.0
C548 C 0.56164 0.17942 0.84907 0.0
C549 C 0.57764 0.20884 0.82883 0.0
C550 C 0.6122 0.23279 0.93907 0.0
C551 C 0.53377 0.14055 0.83156 0.0
C552 C 0.56925 0.11164 0.94251 0.0
C553 C 0.53247 0.10252 0.95515 0.0
C554 C 0.58178 0.13747 0.91856 0.0
C555 C 0.55778 0.15571 0.90778 0.0
C556 C 0.52078 0.14665 0.92079 0.0
C557 C 0.50833 0.11988 0.94369 0.0
C558 C 0.62091 0.14541 0.90493 0.0
C559 C 0.49475 0.16598 0.91119 0.0
H560 H 0.63444 0.28017 0.89222 0.0
H561 H 0.57063 0.20305 0.80115 0.0
H562 H 0.58478 0.22347 0.95182 0.0
H563 H 0.62979 0.21787 0.94838 0.0
H564 H 0.63183 0.26304 0.94708 0.0
H565 H 0.52621 0.1397 0.80344 0.0
H566 H 0.54889 0.12251 0.83667 0.0
H567 H 0.50468 0.12864 0.84207 0.0
H568 H 0.58782 0.09802 0.95083 0.0
H569 H 0.4799 0.11311 0.95334 0.0
H570 H 0.64406 0.17467 0.91366 0.0
H571 H 0.6148 0.14193 0.87653 0.0
H572 H 0.63432 0.1269 0.91349 0.0
H573 H 0.51281 0.1962 0.92002 0.0
H574 H 0.46623 0.1551 0.92261 0.0
H575 H 0.48605 0.16267 0.88297 0.0
C576 C 0.91036 0.77908 0.33273 0.0
C577 C 0.86735 0.75865 0.32839 0.0
C578 C 0.93097 0.81499 0.35134 0.0
C579 C 0.90818 0.83029 0.36684 0.0
C580 C 0.86463 0.81106 0.36006 0.0
C581 C 0.84485 0.77609 0.34016 0.0
C582 C 0.97736 0.83542 0.35639 0.0
C583 C 0.83884 0.82565 0.37641 0.0
C584 C 0.9637 0.89154 0.45194 0.0
C585 C 0.97298 0.92704 0.44318 0.0
C586 C 0.94139 0.85984 0.42758 0.0
C587 C 0.92973 0.8639 0.39318 0.0
C588 C 0.93895 0.89988 0.38432 0.0
C589 C 0.95994 0.93101 0.40961 0.0
C590 C 0.93074 0.822 0.4386 0.0
C591 C 0.92847 0.90572 0.34787 0.0
H592 H 0.92816 0.76616 0.32365 0.0
H593 H 0.8115 0.76101 0.33604 0.0
H594 H 0.98791 0.86523 0.35351 0.0
H595 H 0.99042 0.83387 0.38268 0.0
H596 H 0.98988 0.82336 0.33792 0.0
H597 H 0.80549 0.80944 0.36574 0.0
H598 H 0.84318 0.8241 0.40435 0.0
H599 H 0.84871 0.85521 0.37302 0.0
H600 H 0.97404 0.88862 0.47792 0.0
H601 H 0.96788 0.95864 0.40278 0.0
H602 H 0.94729 0.80916 0.42577 0.0
H603 H 0.89724 0.80343 0.43077 0.0
H604 H 0.93904 0.82339 0.46672 0.0
H605 H 0.94763 0.89913 0.33191 0.0
H606 H 0.9341 0.93479 0.34576 0.0
H607 H 0.8958 0.88674 0.33705 0.0
C608 C 0.27819 0.72228 0.66546 0.0
C609 C 0.3007 0.75663 0.68619 0.0
C610 C 0.29811 0.70229 0.65321 0.0
C611 C 0.34163 0.71721 0.66151 0.0
C612 C 0.36435 0.75194 0.68232 0.0
C613 C 0.34372 0.77109 0.69429 0.0
C614 C 0.27257 0.6651 0.63165 0.0
C615 C 0.41069 0.76914 0.69183 0.0
C616 C 0.40007 0.65956 0.65445 0.0
C617 C 0.41498 0.66832 0.6236 0.0
C618 C 0.37464 0.67382 0.66639 0.0
C619 C 0.36408 0.69783 0.6473 0.0
C620 C 0.37821 0.70601 0.6158 0.0
C621 C 0.40327 0.69119 0.60436 0.0
C622 C 0.35983 0.66385 0.69985 0.0
C623 C 0.36812 0.73166 0.5947 0.0
H624 H 0.24493 0.71064 0.65947 0.0
H625 H 0.36147 0.79774 0.71004 0.0
H626 H 0.28211 0.6658 0.60621 0.0
H627 H 0.27789 0.64333 0.64395 0.0
H628 H 0.23909 0.65702 0.62789 0.0
H629 H 0.42378 0.79605 0.70864 0.0
H630 H 0.41975 0.74994 0.70525 0.0
H631 H 0.42473 0.77385 0.66833 0.0
H632 H 0.40832 0.64152 0.66933 0.0
H633 H 0.41488 0.6986 0.58074 0.0
H634 H 0.32593 0.65321 0.69643 0.0
H635 H 0.37385 0.68904 0.71903 0.0
H636 H 0.36783 0.64256 0.71024 0.0
H637 H 0.33433 0.72187 0.5895 0.0
H638 H 0.37941 0.73364 0.5699 0.0
H639 H 0.38232 0.75991 0.60923 0.0
C640 C 0.72426 0.7062 0.72227 0.0
C641 C 0.70692 0.72401 0.74131 0.0
C642 C 0.75464 0.72626 0.70308 0.0
C643 C 0.76685 0.76459 0.70223 0.0
C644 C 0.75029 0.78285 0.72206 0.0
C645 C 0.72129 0.76254 0.74187 0.0
C646 C 0.77301 0.70639 0.68315 0.0
C647 C 0.76193 0.82361 0.72138 0.0
C648 C 0.85861 0.83315 0.66764 0.0
C649 C 0.83966 0.83383 0.63498 0.0
C650 C 0.83594 0.80842 0.68917 0.0
C651 C 0.79331 0.78509 0.67793 0.0
C652 C 0.7745 0.78513 0.64456 0.0
C653 C 0.7981 0.80928 0.62335 0.0
C654 C 0.85716 0.80832 0.72429 0.0
C655 C 0.72885 0.76158 0.63203 0.0
H656 H 0.71374 0.67658 0.72193 0.0
H657 H 0.70971 0.77705 0.75776 0.0
H658 H 0.76309 0.70499 0.65532 0.0
H659 H 0.80714 0.72202 0.68849 0.0
H660 H 0.7636 0.67765 0.68945 0.0
H661 H 0.74604 0.83351 0.73836 0.0
H662 H 0.79563 0.84066 0.72946 0.0
H663 H 0.75391 0.82861 0.69489 0.0
H664 H 0.89092 0.85213 0.67637 0.0
H665 H 0.78355 0.81025 0.59814 0.0
H666 H 0.84773 0.77942 0.73001 0.0
H667 H 0.84801 0.82235 0.74392 0.0
H668 H 0.89125 0.82301 0.72674 0.0
H669 H 0.71975 0.73206 0.63516 0.0
H670 H 0.71964 0.76334 0.6047 0.0
H671 H 0.71129 0.77089 0.64757 0.0
C672 C 0.73472 0.1668 0.25195 0.0
C673 C 0.74672 0.2046 0.26137 0.0
C674 C 0.71302 0.14902 0.21908 0.0
C675 C 0.70256 0.16936 0.19514 0.0
C676 C 0.71709 0.20804 0.20363 0.0
C677 C 0.73923 0.22522 0.23652 0.0
C678 C 0.69883 0.10786 0.21087 0.0
C679 C 0.7069 0.23085 0.17884 0.0
C680 C 0.6562 0.12277 0.10322 0.0
C681 C 0.61381 0.10793 0.10398 0.0
C682 C 0.68563 0.14348 0.13245 0.0
C683 C 0.67233 0.14938 0.16314 0.0
C684 C 0.62963 0.13521 0.16375 0.0
C685 C 0.60098 0.11478 0.13423 0.0
C686 C 0.73086 0.15826 0.13077 0.0
C687 C 0.61405 0.14085 0.1959 0.0
H688 H 0.74004 0.15046 0.27087 0.0
H689 H 0.74924 0.25464 0.24322 0.0
H690 H 0.66509 0.09262 0.21024 0.0
H691 H 0.70486 0.1015 0.18525 0.0
H692 H 0.7143 0.09726 0.23012 0.0
H693 H 0.7248 0.26115 0.18753 0.0
H694 H 0.71302 0.22497 0.15312 0.0
H695 H 0.6736 0.22318 0.17615 0.0
H696 H 0.66645 0.11759 0.08 0.0
H697 H 0.56837 0.10346 0.13516 0.0
H698 H 0.74474 0.14523 0.14863 0.0
H699 H 0.74726 0.18866 0.13903 0.0
H700 H 0.73625 0.15275 0.10461 0.0
H701 H 0.62382 0.1275 0.2164 0.0
H702 H 0.57994 0.12902 0.19185 0.0
H703 H 0.62761 0.17093 0.20519 0.0
C704 C 0.48284 0.67421 0.33799 0.0
C705 C 0.44287 0.66997 0.328 0.0
C706 C 0.4911 0.6538 0.36312 0.0
C707 C 0.45875 0.62896 0.37895 0.0
C708 C 0.41899 0.6267 0.37039 0.0
C709 C 0.41148 0.64666 0.34475 0.0
C710 C 0.53387 0.65703 0.37109 0.0
C711 C 0.38362 0.60147 0.38686 0.0
C712 C 0.46211 0.5417 0.40861 0.0
C713 C 0.47424 0.5512 0.44423 0.0
C714 C 0.45743 0.56677 0.38729 0.0
C715 C 0.4651 0.60263 0.40168 0.0
C716 C 0.47703 0.6123 0.43769 0.0
C717 C 0.48124 0.58647 0.4584 0.0
C718 C 0.44419 0.55476 0.34921 0.0
C719 C 0.48528 0.64992 0.4544 0.0
H720 H 0.50701 0.69148 0.32458 0.0
H721 H 0.3804 0.64292 0.33679 0.0
H722 H 0.54446 0.66162 0.39916 0.0
H723 H 0.53338 0.63063 0.36114 0.0
H724 H 0.55649 0.68004 0.35945 0.0
H725 H 0.35613 0.60625 0.38065 0.0
H726 H 0.37481 0.57206 0.37782 0.0
H727 H 0.3929 0.60566 0.41508 0.0
H728 H 0.45655 0.51456 0.39721 0.0
H729 H 0.48981 0.59384 0.48569 0.0
H730 H 0.4673 0.57448 0.33535 0.0
H731 H 0.41452 0.55524 0.34056 0.0
H732 H 0.44032 0.52636 0.34186 0.0
H733 H 0.51049 0.67207 0.44414 0.0
H734 H 0.49403 0.6532 0.48267 0.0
H735 H 0.4575 0.65423 0.44825 0.0
C736 C 0.21569 0.45377 0.85661 0.0
C737 C 0.19018 0.42541 0.82994 0.0
C738 C 0.19916 0.46707 0.88117 0.0
C739 C 0.15583 0.45224 0.87882 0.0
C740 C 0.12989 0.42349 0.85192 0.0
C741 C 0.14731 0.41026 0.82804 0.0
C742 C 0.22816 0.49726 0.90952 0.0
C743 C 0.08362 0.40709 0.84802 0.0
C744 C 0.10996 0.46602 0.95699 0.0
C745 C 0.10138 0.49572 0.94986 0.0
C746 C 0.12786 0.45181 0.93439 0.0
C747 C 0.13767 0.46758 0.90376 0.0
C748 C 0.12974 0.49798 0.89676 0.0
C749 C 0.11173 0.51154 0.91971 0.0
C750 C 0.13589 0.4196 0.94318 0.0
C751 C 0.13995 0.51604 0.86474 0.0
H752 H 0.24883 0.46555 0.85836 0.0
H753 H 0.12725 0.38848 0.80749 0.0
H754 H 0.22373 0.5225 0.90758 0.0
H755 H 0.22126 0.48817 0.93477 0.0
H756 H 0.26098 0.50478 0.9087 0.0
H757 H 0.06763 0.38454 0.82619 0.0
H758 H 0.07337 0.39578 0.87179 0.0
H759 H 0.07394 0.42912 0.84399 0.0
H760 H 0.10219 0.45345 0.98009 0.0
H761 H 0.10548 0.53452 0.91381 0.0
H762 H 0.16888 0.42706 0.94367 0.0
H763 H 0.11771 0.3954 0.9232 0.0
H764 H 0.12773 0.41112 0.96838 0.0
H765 H 0.17324 0.5264 0.86396 0.0
H766 H 0.13236 0.53964 0.86309 0.0
H767 H 0.12268 0.49525 0.84181 0.0
C768 C 0.57616 0.71726 0.82803 0.0
C769 C 0.6079 0.73061 0.80858 0.0
C770 C 0.56597 0.7418 0.84625 0.0
C771 C 0.58726 0.7803 0.84409 0.0
C772 C 0.61695 0.79361 0.82247 0.0
C773 C 0.62741 0.76879 0.80553 0.0
C774 C 0.53438 0.72685 0.86941 0.0
C775 C 0.63997 0.83452 0.81909 0.0
C776 C 0.55468 0.85118 0.87561 0.0
C777 C 0.58285 0.86769 0.90619 0.0
C778 C 0.55401 0.82105 0.85588 0.0
C779 C 0.58229 0.80745 0.86708 0.0
C780 C 0.60965 0.82308 0.89864 0.0
C781 C 0.60957 0.85307 0.91783 0.0
C782 C 0.52463 0.8051 0.82226 0.0
C783 C 0.6406 0.80953 0.91121 0.0
H784 H 0.56036 0.68784 0.83015 0.0
H785 H 0.65281 0.78006 0.79157 0.0
H786 H 0.54999 0.73592 0.8965 0.0
H787 H 0.51187 0.73813 0.8652 0.0
H788 H 0.51744 0.69601 0.86541 0.0
H789 H 0.65813 0.8396 0.79796 0.0
H790 H 0.61826 0.84661 0.81437 0.0
H791 H 0.66144 0.84955 0.84331 0.0
H792 H 0.53368 0.86227 0.86683 0.0
H793 H 0.63168 0.8661 0.94128 0.0
H794 H 0.5082 0.77434 0.82013 0.0
H795 H 0.54224 0.81232 0.80083 0.0
H796 H 0.50154 0.81587 0.81913 0.0
H797 H 0.62521 0.77886 0.91035 0.0
H798 H 0.65674 0.82212 0.93777 0.0
H799 H 0.66403 0.81667 0.89423 0.0
C800 C 0.85315 0.15817 0.40569 0.0
C801 C 0.87581 0.18682 0.38735 0.0
C802 C 0.87076 0.1372 0.42185 0.0
C803 C 0.91238 0.14576 0.42048 0.0
C804 C 0.93565 0.17553 0.40288 0.0
C805 C 0.9169 0.1952 0.3861 0.0
C806 C 0.84448 0.10523 0.43961 0.0
C807 C 0.98032 0.1864 0.40143 0.0
C808 C 0.96838 0.11077 0.48609 0.0
C809 C 0.96704 0.08006 0.46683 0.0
C810 C 0.95094 0.13249 0.47137 0.0
C811 C 0.93129 0.12303 0.4366 0.0
C812 C 0.93005 0.09194 0.4171 0.0
C813 C 0.94798 0.07088 0.43245 0.0
C814 C 0.95358 0.16559 0.49303 0.0
C815 C 0.90946 0.08071 0.38006 0.0
H816 H 0.82123 0.15127 0.40641 0.0
H817 H 0.93452 0.21736 0.37195 0.0
H818 H 0.8424 0.07894 0.42744 0.0
H819 H 0.85889 0.10919 0.4668 0.0
H820 H 0.8128 0.10222 0.43861 0.0
H821 H 0.99491 0.21173 0.38873 0.0
H822 H 0.99793 0.19152 0.42766 0.0
H823 H 0.98285 0.16334 0.38721 0.0
H824 H 0.98295 0.11768 0.51277 0.0
H825 H 0.94675 0.04694 0.41767 0.0
H826 H 0.92216 0.16206 0.49454 0.0
H827 H 0.96942 0.19116 0.48102 0.0
H828 H 0.97043 0.16961 0.51943 0.0
H829 H 0.87685 0.07536 0.37775 0.0
H830 H 0.91031 0.05543 0.36863 0.0
H831 H 0.92487 0.10368 0.36493 0.0
C832 C 0.31154 0.65839 0.193 0.0
C833 C 0.31903 0.69352 0.20786 0.0
C834 C 0.27439 0.6353 0.1711 0.0
C835 C 0.24387 0.6475 0.16438 0.0
C836 C 0.24995 0.68162 0.18167 0.0
C837 C 0.28779 0.70451 0.20291 0.0
C838 C 0.26933 0.59936 0.15293 0.0
C839 C 0.21777 0.69521 0.17581 0.0
C840 C 0.18219 0.61962 0.07459 0.0
C841 C 0.14425 0.59152 0.07938 0.0
C842 C 0.21458 0.63809 0.10217 0.0
C843 C 0.20915 0.62781 0.13534 0.0
C844 C 0.17115 0.59892 0.14028 0.0
C845 C 0.13897 0.58118 0.11218 0.0
C846 C 0.25451 0.66901 0.09585 0.0
C847 C 0.16439 0.58707 0.17522 0.0
H848 H 0.33586 0.65002 0.19668 0.0
H849 H 0.29355 0.7316 0.21467 0.0
H850 H 0.23832 0.57645 0.1534 0.0
H851 H 0.27224 0.60253 0.12569 0.0
H852 H 0.29294 0.59133 0.16448 0.0
H853 H 0.22397 0.71859 0.19543 0.0
H854 H 0.2175 0.70491 0.15026 0.0
H855 H 0.18663 0.6724 0.17611 0.0
H856 H 0.18635 0.62785 0.04931 0.0
H857 H 0.1096 0.55942 0.11588 0.0
H858 H 0.28044 0.66262 0.1041 0.0
H859 H 0.26102 0.69537 0.11121 0.0
H860 H 0.25377 0.67344 0.06848 0.0
H861 H 0.18749 0.57792 0.18543 0.0
H862 H 0.13308 0.56403 0.1747 0.0
H863 H 0.16875 0.61097 0.19327 0.0
C864 C 0.26275 0.38678 0.65405 0.0
C865 C 0.27344 0.39447 0.68989 0.0
C866 C 0.2919 0.40274 0.63274 0.0
C867 C 0.33294 0.42808 0.64734 0.0
C868 C 0.34365 0.4377 0.68345 0.0
C869 C 0.31376 0.42066 0.70438 0.0
C870 C 0.27893 0.3914 0.59453 0.0
C871 C 0.38695 0.46504 0.69997 0.0
C872 C 0.41272 0.43735 0.5909 0.0
C873 C 0.41791 0.46938 0.57589 0.0
C874 C 0.38641 0.42442 0.61514 0.0
C875 C 0.36429 0.44369 0.62442 0.0
C876 C 0.36957 0.47611 0.60945 0.0
C877 C 0.39634 0.4886 0.58554 0.0
C878 C 0.38214 0.38999 0.63071 0.0
C879 C 0.34664 0.49749 0.61849 0.0
H880 H 0.23147 0.36712 0.64257 0.0
H881 H 0.32232 0.42671 0.73199 0.0
H882 H 0.28557 0.41627 0.58118 0.0
H883 H 0.29689 0.3779 0.58521 0.0
H884 H 0.24562 0.37178 0.5872 0.0
H885 H 0.38976 0.47149 0.72803 0.0
H886 H 0.40848 0.45356 0.69534 0.0
H887 H 0.39687 0.49129 0.68834 0.0
H888 H 0.42996 0.42278 0.58432 0.0
H889 H 0.40044 0.51361 0.57444 0.0
H890 H 0.34993 0.36779 0.62354 0.0
H891 H 0.38897 0.39596 0.65904 0.0
H892 H 0.40306 0.37935 0.62223 0.0
H893 H 0.31301 0.47978 0.61042 0.0
H894 H 0.35579 0.52326 0.60607 0.0
H895 H 0.35235 0.5051 0.64662 0.0
C896 C 0.74865 0.61713 0.83793 0.0
C897 C 0.72363 0.63336 0.84533 0.0
C898 C 0.78697 0.62786 0.85841 0.0
C899 C 0.80061 0.65577 0.88681 0.0
C900 C 0.77617 0.67336 0.89367 0.0
C901 C 0.73764 0.66169 0.87296 0.0
C902 C 0.81236 0.60859 0.85012 0.0
C903 C 0.79026 0.70387 0.92318 0.0
C904 C 0.87256 0.6409 0.95287 0.0
C905 C 0.91013 0.66083 0.94169 0.0
C906 C 0.83668 0.64161 0.93718 0.0
C907 C 0.83888 0.66381 0.91055 0.0
C908 C 0.87766 0.68816 0.90275 0.0
C909 C 0.91295 0.68602 0.91813 0.0
C910 C 0.79594 0.61536 0.94644 0.0
C911 C 0.88153 0.71371 0.87576 0.0
H912 H 0.73796 0.59561 0.81629 0.0
H913 H 0.71859 0.67476 0.87851 0.0
H914 H 0.84312 0.62932 0.84605 0.0
H915 H 0.81724 0.59423 0.87195 0.0
H916 H 0.79748 0.58782 0.82685 0.0
H917 H 0.77132 0.71899 0.9214 0.0
H918 H 0.78793 0.69176 0.94763 0.0
H919 H 0.82301 0.72409 0.92417 0.0
H920 H 0.87057 0.62248 0.9721 0.0
H921 H 0.94195 0.70193 0.9096 0.0
H922 H 0.77901 0.59187 0.92555 0.0
H923 H 0.77651 0.62952 0.94923 0.0
H924 H 0.79999 0.60385 0.97057 0.0
H925 H 0.87568 0.69804 0.85017 0.0
H926 H 0.91295 0.73746 0.87965 0.0
H927 H 0.85872 0.72468 0.87576 0.0
C928 C 0.47489 0.81726 0.18901 0.0
C929 C 0.44355 0.81217 0.20797 0.0
C930 C 0.4871 0.845 0.16685 0.0
C931 C 0.46794 0.86869 0.16375 0.0
C932 C 0.43765 0.86474 0.18415 0.0
C933 C 0.42567 0.8365 0.20564 0.0
C934 C 0.51921 0.84781 0.14551 0.0
C935 C 0.4168 0.88955 0.18247 0.0
C936 C 0.52411 0.95859 0.12465 0.0
C937 C 0.50211 0.94993 0.0911 0.0
C938 C 0.51262 0.93301 0.14868 0.0
C939 C 0.47904 0.89708 0.13881 0.0
C940 C 0.45642 0.88829 0.10494 0.0
C941 C 0.46779 0.91497 0.08171 0.0
C942 C 0.53662 0.94446 0.1847 0.0
C943 C 0.42082 0.8503 0.09293 0.0
H944 H 0.48825 0.79817 0.19003 0.0
H945 H 0.40112 0.83256 0.21991 0.0
H946 H 0.50546 0.84192 0.11795 0.0
H947 H 0.54491 0.87645 0.14988 0.0
H948 H 0.53196 0.82812 0.15135 0.0
H949 H 0.39695 0.88542 0.20229 0.0
H950 H 0.44011 0.91917 0.18581 0.0
H951 H 0.39737 0.88366 0.15695 0.0
H952 H 0.55046 0.98566 0.1322 0.0
H953 H 0.45077 0.90796 0.0558 0.0
H954 H 0.55195 0.92669 0.19026 0.0
H955 H 0.51539 0.94042 0.20332 0.0
H956 H 0.56046 0.97397 0.18889 0.0
H957 H 0.43152 0.82875 0.09564 0.0
H958 H 0.40667 0.84754 0.06581 0.0
H959 H 0.39677 0.84456 0.10911 0.0
C960 C 0.13923 0.26331 0.66809 0.0
C961 C 0.16375 0.27082 0.70033 0.0
C962 C 0.11958 0.22741 0.64986 0.0
C963 C 0.12494 0.19816 0.66399 0.0
C964 C 0.14966 0.20563 0.69674 0.0
C965 C 0.16873 0.24192 0.71459 0.0
C966 C 0.09343 0.22089 0.61523 0.0
C967 C 0.15673 0.1755 0.71252 0.0
C968 C 0.04178 0.10036 0.62868 0.0
C969 C 0.05904 0.08991 0.6031 0.0
C970 C 0.06333 0.13497 0.64924 0.0
C971 C 0.1036 0.15976 0.64465 0.0
C972 C 0.12192 0.14878 0.61975 0.0
C973 C 0.09928 0.11413 0.59903 0.0
C974 C 0.04227 0.14558 0.67499 0.0
C975 C 0.16504 0.17404 0.61439 0.0
H976 H 0.1361 0.28591 0.65683 0.0
H977 H 0.18856 0.24799 0.73916 0.0
H978 H 0.1062 0.21104 0.59531 0.0
H979 H 0.06169 0.19887 0.61507 0.0
H980 H 0.09179 0.2464 0.60813 0.0
H981 H 0.17649 0.18566 0.7382 0.0
H982 H 0.12685 0.15205 0.71495 0.0
H983 H 0.17163 0.16441 0.69561 0.0
H984 H 1.01067 0.08189 0.63197 0.0
H985 H 0.11289 0.10622 0.57941 0.0
H986 H 0.03816 0.16999 0.66791 0.0
H987 H 0.06166 0.15374 0.70076 0.0
H988 H 1.01159 0.12261 0.67651 0.0
H989 H 0.16576 0.19913 0.60398 0.0
H990 H 0.17631 0.16017 0.5964 0.0
H991 H 0.1866 0.18355 0.63917 0.0
C992 C 0.69407 0.26811 0.34866 0.0
C993 C 0.73519 0.27716 0.36195 0.0
C994 C 0.67483 0.28859 0.36055 0.0
C995 C 0.69677 0.3187 0.38697 0.0
C996 C 0.73829 0.32816 0.40054 0.0
C997 C 0.75698 0.3073 0.38791 0.0
C998 C 0.63061 0.27748 0.34515 0.0
C999 C 0.76293 0.36027 0.4285 0.0
C1000 C 0.64971 0.385 0.39958 0.0
C1001 C 0.62886 0.37182 0.4269 0.0
C1002 C 0.67336 0.36905 0.38714 0.0
C1003 C 0.67516 0.3385 0.40173 0.0
C1004 C 0.65409 0.32526 0.42937 0.0
C1005 C 0.63168 0.34236 0.44185 0.0
C1006 C 0.6959 0.3845 0.3581 0.0
C1007 C 0.65421 0.29224 0.44513 0.0
H1008 H 0.6765 0.24449 0.32909 0.0
H1009 H 0.78885 0.31491 0.39808 0.0
H1010 H 0.61091 0.26854 0.36509 0.0
H1011 H 0.6279 0.30159 0.33546 0.0
H1012 H 0.61844 0.25447 0.32372 0.0
H1013 H 0.79522 0.36489 0.43557 0.0
H1014 H 0.7633 0.3861 0.42016 0.0
H1015 H 0.74821 0.35503 0.45163 0.0
H1016 H 0.64758 0.40787 0.38806 0.0
H1017 H 0.61522 0.33197 0.46276 0.0
H1018 H 0.68303 0.36322 0.33523 0.0
H1019 H 0.72892 0.39151 0.36521 0.0
H1020 H 0.69361 0.40977 0.35107 0.0
H1021 H 0.63989 0.26738 0.42552 0.0
H1022 H 0.63712 0.28588 0.46695 0.0
H1023 H 0.68632 0.29743 0.45426 0.0
loop_
_geom_bond_atom_site_label_1
_geom_bond_atom_site_label_2
_geom_bond_distance
_geom_bond_site_symmetry_2
_ccdc_geom_bond_type
H0 C5 0.930 . S
H1 C8 0.930 . S
H2 C10 0.930 . S
H3 C4 1.016 . S
C4 H3 1.016 . S
C4 N11 1.286 . S
C5 H0 0.930 . S
C5 C6 1.397 . S
C5 C7 1.361 . S
C6 C5 1.397 . S
C6 C10 1.390 . S
C7 C5 1.361 . S
C7 C8 1.393 . S
C7 N11 1.413 . S
C8 H1 0.930 . S
C8 C7 1.393 . S
C8 C9 1.399 . S
C9 C8 1.399 . S
C9 C10 1.381 . S
C10 H2 0.930 . S
C10 C6 1.390 . S
C10 C9 1.381 . S
N11 C4 1.286 . S
N11 C7 1.413 . S
H12 C17 0.930 . S
H13 C20 0.930 . S
H14 C22 0.930 . S
H15 C16 1.016 . S
C16 H15 1.016 . S
C16 N23 1.286 . S
C17 H12 0.930 . S
C17 C18 1.397 . S
C17 C19 1.361 . S
C18 C17 1.397 . S
C18 C22 1.390 . S
C19 C17 1.361 . S
C19 C20 1.393 . S
C19 N23 1.413 . S
C20 H13 0.930 . S
C20 C19 1.393 . S
C20 C21 1.399 . S
C21 C20 1.399 . S
C21 C22 1.381 . S
C22 H14 0.930 . S
C22 C18 1.390 . S
C22 C21 1.381 . S
N23 C16 1.286 . S
N23 C19 1.413 . S
H24 C29 0.930 . S
H25 C32 0.930 . S
H26 C34 0.930 . S
H27 C28 1.016 . S
C28 H27 1.016 . S
C28 N35 1.286 . S
C29 H24 0.930 . S
C29 C30 1.397 . S
C29 C31 1.361 . S
C30 C29 1.397 . S
C30 C34 1.390 . S
C31 C29 1.361 . S
C31 C32 1.393 . S
C31 N35 1.413 . S
C32 H25 0.930 . S
C32 C31 1.393 . S
C32 C33 1.399 . S
C33 C32 1.399 . S
C33 C34 1.381 . S
C34 H26 0.930 . S
C34 C30 1.390 . S
C34 C33 1.381 . S
N35 C28 1.286 . S
N35 C31 1.413 . S
H36 C41 0.930 . S
H37 C44 0.930 . S
H38 C46 0.930 . S
H39 C40 1.016 . S
C40 H39 1.016 . S
C40 N47 1.286 . S
C41 H36 0.930 . S
C41 C42 1.397 . S
C41 C43 1.361 . S
C42 C41 1.397 . S
C42 C46 1.390 . S
C43 C41 1.361 . S
C43 C44 1.393 . S
C43 N47 1.413 . S
C44 H37 0.930 . S
C44 C43 1.393 . S
C44 C45 1.399 . S
C45 C44 1.399 . S
C45 C46 1.381 . S
C46 H38 0.930 . S
C46 C42 1.390 . S
C46 C45 1.381 . S
N47 C40 1.286 . S
N47 C43 1.413 . S
H48 C53 0.930 . S
H49 C56 0.930 . S
H50 C58 0.930 . S
H51 C52 1.016 . S
C52 H51 1.016 . S
C52 N59 1.286 . S
C53 H48 0.930 . S
C53 C54 1.397 . S
C53 C55 1.361 . S
C54 C53 1.397 . S
C54 C58 1.390 . S
C55 C53 1.361 . S
C55 C56 1.393 . S
C55 N59 1.413 . S
C56 H49 0.930 . S
C56 C55 1.393 . S
C56 C57 1.399 . S
C57 C56 1.399 . S
C57 C58 1.381 . S
C58 H50 0.930 . S
C58 C54 1.390 . S
C58 C57 1.381 . S
N59 C52 1.286 . S
N59 C55 1.413 . S
H60 C65 0.930 . S
H61 C68 0.930 . S
H62 C70 0.930 . S
H63 C64 1.016 . S
C64 H63 1.016 . S
C64 N71 1.286 . S
C65 H60 0.930 . S
C65 C66 1.397 . S
C65 C67 1.361 . S
C66 C65 1.397 . S
C66 C70 1.390 . S
C67 C65 1.361 . S
C67 C68 1.393 . S
C67 N71 1.413 . S
C68 H61 0.930 . S
C68 C67 1.393 . S
C68 C69 1.399 . S
C69 C68 1.399 . S
C69 C70 1.381 . S
C70 H62 0.930 . S
C70 C66 1.390 . S
C70 C69 1.381 . S
N71 C64 1.286 . S
N71 C67 1.413 . S
H72 C77 0.930 . S
H73 C80 0.930 . S
H74 C82 0.930 . S
H75 C76 1.016 . S
C76 H75 1.016 . S
C76 N83 1.286 . S
C77 H72 0.930 . S
C77 C78 1.397 . S
C77 C79 1.361 . S
C78 C77 1.397 . S
C78 C82 1.390 . S
C79 C77 1.361 . S
C79 C80 1.393 . S
C79 N83 1.413 . S
C80 H73 0.930 . S
C80 C79 1.393 . S
C80 C81 1.399 . S
C81 C80 1.399 . S
C81 C82 1.381 . S
C82 H74 0.930 . S
C82 C78 1.390 . S
C82 C81 1.381 . S
N83 C76 1.286 . S
N83 C79 1.413 . S
H84 C89 0.930 . S
H85 C92 0.930 . S
H86 C94 0.930 . S
H87 C88 1.016 . S
C88 H87 1.016 . S
C88 N95 1.286 . S
C89 H84 0.930 . S
C89 C90 1.397 . S
C89 C91 1.361 . S
C90 C89 1.397 . S
C90 C94 1.390 . S
C91 C89 1.361 . S
C91 C92 1.393 . S
C91 N95 1.413 . S
C92 H85 0.930 . S
C92 C91 1.393 . S
C92 C93 1.399 . S
C93 C92 1.399 . S
C93 C94 1.381 . S
C94 H86 0.930 . S
C94 C90 1.390 . S
C94 C93 1.381 . S
N95 C88 1.286 . S
N95 C91 1.413 . S
Pr96 C98 2.880 . S
Pr96 O116 2.562 . S
Pr96 O117 2.490 . S
Pr96 O118 2.695 1_665 S
Pr96 O119 2.512 1_665 S
Pr96 O121 2.437 1_655 S
Pr96 O124 2.436 . S
Pr96 O126 2.438 1_565 S
Pr97 C107 2.880 . S
Pr97 O118 2.436 . S
Pr97 O120 2.438 1_545 S
Pr97 O122 2.562 . S
Pr97 O123 2.490 . S
Pr97 O124 2.695 1_445 S
Pr97 O125 2.512 1_445 S
Pr97 O127 2.437 1_455 S
C98 Pr96 2.880 . S
C98 C99 1.491 . S
C98 O116 1.254 . S
C98 O117 1.225 . S
C99 C98 1.491 . S
C99 C100 1.392 . S
C99 C104 1.356 . S
C100 C99 1.392 . S
C100 C101 1.368 . S
C100 H128 0.929 . S
C101 C100 1.368 . S
C101 C102 1.386 . S
C101 H129 0.929 . S
C102 C101 1.386 . S
C102 C103 1.373 . S
C103 C102 1.373 . S
C103 C104 1.409 . S
C103 H130 0.931 . S
C104 C99 1.356 . S
C104 C103 1.409 . S
C104 H131 0.930 . S
C105 O118 1.270 . S
C105 O119 1.248 . S
C106 O120 1.267 . S
C106 O121 1.278 . S
C107 Pr97 2.880 . S
C107 C108 1.491 . S
C107 O122 1.254 . S
C107 O123 1.225 . S
C108 C107 1.491 . S
C108 C109 1.392 . S
C108 C113 1.356 . S
C109 C108 1.392 . S
C109 C110 1.368 . S
C109 H132 0.929 . S
C110 C109 1.368 . S
C110 C111 1.386 . S
C110 H133 0.929 . S
C111 C110 1.386 . S
C111 C112 1.373 . S
C112 C111 1.373 . S
C112 C113 1.409 . S
C112 H134 0.931 . S
C113 C108 1.356 . S
C113 C112 1.409 . S
C113 H135 0.930 . S
C114 O124 1.270 . S
C114 O125 1.251 . S
C115 O126 1.267 . S
C115 O127 1.278 . S
O116 Pr96 2.562 . S
O116 C98 1.254 . S
O117 Pr96 2.490 . S
O117 C98 1.225 . S
O118 Pr96 2.695 1_445 S
O118 Pr97 2.436 . S
O118 C105 1.270 . S
O119 Pr96 2.512 1_445 S
O119 C105 1.248 . S
O120 Pr97 2.438 1_565 S
O120 C106 1.267 . S
O121 Pr96 2.437 1_455 S
O121 C106 1.278 . S
O122 Pr97 2.562 . S
O122 C107 1.254 . S
O123 Pr97 2.490 . S
O123 C107 1.225 . S
O124 Pr96 2.436 . S
O124 Pr97 2.695 1_665 S
O124 C114 1.270 . S
O125 Pr97 2.512 1_665 S
O125 C114 1.251 . S
O126 Pr96 2.438 1_545 S
O126 C115 1.267 . S
O127 Pr97 2.437 1_655 S
O127 C115 1.278 . S
H128 C100 0.929 . S
H129 C101 0.929 . S
H130 C103 0.931 . S
H131 C104 0.930 . S
H132 C109 0.929 . S
H133 C110 0.929 . S
H134 C112 0.931 . S
H135 C113 0.930 . S
Pr136 C138 2.880 . S
Pr136 O156 2.562 . S
Pr136 O157 2.490 . S
Pr136 O158 2.695 1_554 S
Pr136 O159 2.512 1_554 S
Pr136 O161 2.437 . S
Pr136 O164 2.436 1_545 S
Pr136 O166 2.438 1_544 S
Pr137 C147 2.880 1_554 S
Pr137 O158 2.436 1_564 S
Pr137 O160 2.438 1_565 S
Pr137 O162 2.562 1_554 S
Pr137 O163 2.490 1_554 S
Pr137 O164 2.695 . S
Pr137 O165 2.512 . S
Pr137 O167 2.437 1_554 S
C138 Pr136 2.880 . S
C138 C139 1.491 . S
C138 O156 1.254 . S
C138 O157 1.225 . S
C139 C138 1.491 . S
C139 C140 1.392 . S
C139 C144 1.356 . S
C140 C139 1.392 . S
C140 C141 1.368 . S
C140 H168 0.929 . S
C141 C140 1.368 . S
C141 C142 1.386 . S
C141 H169 0.929 . S
C142 C141 1.386 . S
C142 C143 1.373 . S
C143 C142 1.373 . S
C143 C144 1.409 . S
C143 H170 0.931 . S
C144 C139 1.356 . S
C144 C143 1.409 . S
C144 H171 0.930 . S
C145 O158 1.270 . S
C145 O159 1.248 . S
C146 O160 1.267 . S
C146 O161 1.278 . S
C147 Pr137 2.880 1_556 S
C147 C148 1.491 . S
C147 O162 1.254 . S
C147 O163 1.225 . S
C148 C147 1.491 . S
C148 C149 1.392 . S
C148 C153 1.356 . S
C149 C148 1.392 . S
C149 C150 1.368 . S
C149 H172 0.929 . S
C150 C149 1.368 . S
C150 C151 1.386 . S
C150 H173 0.929 . S
C151 C150 1.386 . S
C151 C152 1.373 . S
C152 C151 1.373 . S
C152 C153 1.409 . S
C152 H174 0.931 . S
C153 C148 1.356 . S
C153 C152 1.409 . S
C153 H175 0.930 . S
C154 O164 1.270 . S
C154 O165 1.248 . S
C155 O166 1.267 . S
C155 O167 1.278 . S
O156 Pr136 2.562 . S
O156 C138 1.254 . S
O157 Pr136 2.490 . S
O157 C138 1.225 . S
O158 Pr136 2.695 1_556 S
O158 Pr137 2.436 1_546 S
O158 C145 1.270 . S
O159 Pr136 2.512 1_556 S
O159 C145 1.248 . S
O160 Pr137 2.438 1_545 S
O160 C146 1.267 . S
O161 Pr136 2.437 . S
O161 C146 1.278 . S
O162 Pr137 2.562 1_556 S
O162 C147 1.254 . S
O163 Pr137 2.490 1_556 S
O163 C147 1.225 . S
O164 Pr136 2.436 1_565 S
O164 Pr137 2.695 . S
O164 C154 1.270 . S
O165 Pr137 2.512 . S
O165 C154 1.248 . S
O166 Pr136 2.438 1_566 S
O166 C155 1.267 . S
O167 Pr137 2.437 1_556 S
O167 C155 1.278 . S
H168 C140 0.929 . S
H169 C141 0.929 . S
H170 C143 0.931 . S
H171 C144 0.930 . S
H172 C149 0.929 . S
H173 C150 0.929 . S
H174 C152 0.931 . S
H175 C153 0.930 . S
Pr176 C178 2.880 . S
Pr176 O196 2.562 . S
Pr176 O197 2.490 . S
Pr176 O198 2.695 . S
Pr176 O199 2.512 . S
Pr176 O201 2.437 . S
Pr176 O204 2.436 . S
Pr176 O206 2.438 . S
Pr177 C187 2.880 . S
Pr177 O198 2.436 . S
Pr177 O200 2.438 . S
Pr177 O202 2.562 . S
Pr177 O203 2.490 . S
Pr177 O204 2.695 . S
Pr177 O205 2.512 . S
Pr177 O207 2.437 . S
C178 Pr176 2.880 . S
C178 C179 1.491 . S
C178 O196 1.254 . S
C178 O197 1.225 . S
C179 C178 1.491 . S
C179 C180 1.392 . S
C179 C184 1.356 . S
C180 C179 1.392 . S
C180 C181 1.368 . S
C180 H208 0.929 . S
C181 C180 1.368 . S
C181 C182 1.386 . S
C181 H209 0.929 . S
C182 C181 1.386 . S
C182 C183 1.373 . S
C183 C182 1.373 . S
C183 C184 1.409 . S
C183 H210 0.931 . S
C184 C179 1.356 . S
C184 C183 1.409 . S
C184 H211 0.930 . S
C185 O198 1.270 . S
C185 O199 1.248 . S
C186 O200 1.267 . S
C186 O201 1.278 . S
C187 Pr177 2.880 . S
C187 C188 1.491 . S
C187 O202 1.254 . S
C187 O203 1.225 . S
C188 C187 1.491 . S
C188 C189 1.392 . S
C188 C193 1.356 . S
C189 C188 1.392 . S
C189 C190 1.368 . S
C189 H212 0.929 . S
C190 C189 1.368 . S
C190 C191 1.386 . S
C190 H213 0.929 . S
C191 C190 1.386 . S
C191 C192 1.373 . S
C192 C191 1.373 . S
C192 C193 1.409 . S
C192 H214 0.931 . S
C193 C188 1.356 . S
C193 C192 1.409 . S
C193 H215 0.930 . S
C194 O204 1.270 . S
C194 O205 1.248 . S
C195 O206 1.267 . S
C195 O207 1.278 . S
O196 Pr176 2.562 . S
O196 C178 1.254 . S
O197 Pr176 2.490 . S
O197 C178 1.225 . S
O198 Pr176 2.695 . S
O198 Pr177 2.436 . S
O198 C185 1.270 . S
O199 Pr176 2.512 . S
O199 C185 1.248 . S
O200 Pr177 2.438 . S
O200 C186 1.267 . S
O201 Pr176 2.437 . S
O201 C186 1.278 . S
O202 Pr177 2.562 . S
O202 C187 1.254 . S
O203 Pr177 2.490 . S
O203 C187 1.225 . S
O204 Pr176 2.436 . S
O204 Pr177 2.695 . S
O204 C194 1.270 . S
O205 Pr177 2.512 . S
O205 C194 1.248 . S
O206 Pr176 2.438 . S
O206 C195 1.267 . S
O207 Pr177 2.437 . S
O207 C195 1.278 . S
H208 C180 0.929 . S
H209 C181 0.929 . S
H210 C183 0.931 . S
H211 C184 0.930 . S
H212 C189 0.929 . S
H213 C190 0.929 . S
H214 C192 0.931 . S
H215 C193 0.930 . S
Pr216 C218 2.880 1_455 S
Pr216 O236 2.562 1_455 S
Pr216 O237 2.490 . S
Pr216 O238 2.695 1_556 S
Pr216 O239 2.512 1_556 S
Pr216 O241 2.437 1_456 S
Pr216 O244 2.436 1_455 S
Pr216 O246 2.438 . S
Pr217 C227 2.880 . S
Pr217 O238 2.436 . S
Pr217 O240 2.438 1_455 S
Pr217 O242 2.562 . S
Pr217 O243 2.490 . S
Pr217 O244 2.695 1_454 S
Pr217 O245 2.512 1_454 S
Pr217 O247 2.437 1_554 S
C218 Pr216 2.880 1_655 S
C218 C219 1.491 . S
C218 O236 1.254 . S
C218 O237 1.225 1_655 S
C219 C218 1.491 . S
C219 C220 1.392 . S
C219 C224 1.356 . S
C220 C219 1.392 . S
C220 C221 1.368 . S
C220 H248 0.929 1_655 S
C221 C220 1.368 . S
C221 C222 1.386 . S
C221 H249 0.929 . S
C222 C221 1.386 . S
C222 C223 1.373 . S
C223 C222 1.373 . S
C223 C224 1.409 . S
C223 H250 0.931 . S
C224 C219 1.356 . S
C224 C223 1.409 . S
C224 H251 0.930 . S
C225 O238 1.270 . S
C225 O239 1.248 . S
C226 O240 1.267 . S
C226 O241 1.278 . S
C227 Pr217 2.880 . S
C227 C228 1.491 . S
C227 O242 1.254 . S
C227 O243 1.225 . S
C228 C227 1.491 . S
C228 C229 1.392 . S
C228 C233 1.356 . S
C229 C228 1.392 . S
C229 C230 1.368 . S
C229 H252 0.929 . S
C230 C229 1.368 . S
C230 C231 1.386 . S
C230 H253 0.929 . S
C231 C230 1.386 . S
C231 C232 1.373 . S
C232 C231 1.373 . S
C232 C233 1.409 . S
C232 H254 0.931 . S
C233 C228 1.356 . S
C233 C232 1.409 . S
C233 H255 0.930 . S
C234 O244 1.270 . S
C234 O245 1.248 . S
C235 O246 1.267 . S
C235 O247 1.278 . S
O236 Pr216 2.562 1_655 S
O236 C218 1.254 . S
O237 Pr216 2.490 . S
O237 C218 1.225 1_455 S
O238 Pr216 2.695 1_554 S
O238 Pr217 2.436 . S
O238 C225 1.270 . S
O239 Pr216 2.512 1_554 S
O239 C225 1.248 . S
O240 Pr217 2.438 1_655 S
O240 C226 1.267 . S
O241 Pr216 2.437 1_654 S
O241 C226 1.278 . S
O242 Pr217 2.562 . S
O242 C227 1.254 . S
O243 Pr217 2.490 . S
O243 C227 1.225 . S
O244 Pr216 2.436 1_655 S
O244 Pr217 2.695 1_656 S
O244 C234 1.270 . S
O245 Pr217 2.512 1_656 S
O245 C234 1.248 . S
O246 Pr216 2.438 . S
O246 C235 1.267 . S
O247 Pr217 2.437 1_556 S
O247 C235 1.278 . S
H248 C220 0.929 1_455 S
H249 C221 0.929 . S
H250 C223 0.931 . S
H251 C224 0.930 . S
H252 C229 0.929 . S
H253 C230 0.929 . S
H254 C232 0.931 . S
H255 C233 0.930 . S
C256 C257 1.391 . S
C256 C258 1.394 . S
C256 H272 0.931 . S
C257 C256 1.391 . S
C257 C261 1.376 . S
C258 C256 1.394 . S
C258 C259 1.369 . S
C258 C262 1.531 . S
C259 C258 1.369 . S
C259 C260 1.410 . S
C259 C267 1.503 . S
C260 C259 1.410 . S
C260 C261 1.392 . S
C260 C263 1.511 . S
C261 C257 1.376 . S
C261 C260 1.392 . S
C261 H273 0.929 . S
C262 C258 1.531 . S
C262 H274 0.960 . S
C262 H275 0.962 . S
C262 H276 0.960 . S
C263 C260 1.511 . S
C263 H277 0.961 . S
C263 H278 0.961 . S
C263 H279 0.961 . S
C264 C265 1.370 . S
C264 C266 1.363 . S
C264 H280 0.931 . S
C265 C264 1.370 . S
C265 C269 1.408 . S
C266 C264 1.363 . S
C266 C267 1.370 . S
C266 C270 1.524 . S
C267 C259 1.503 . S
C267 C266 1.370 . S
C267 C268 1.403 . S
C268 C267 1.403 . S
C268 C269 1.404 . S
C268 C271 1.539 . S
C269 C265 1.408 . S
C269 C268 1.404 . S
C269 H281 0.930 . S
C270 C266 1.524 . S
C270 H282 0.956 . S
C270 H283 0.961 . S
C270 H284 0.961 . S
C271 C268 1.539 . S
C271 H285 0.958 . S
C271 H286 0.961 . S
C271 H287 0.960 . S
H272 C256 0.931 . S
H273 C261 0.929 . S
H274 C262 0.960 . S
H275 C262 0.962 . S
H276 C262 0.960 . S
H277 C263 0.961 . S
H278 C263 0.961 . S
H279 C263 0.961 . S
H280 C264 0.931 . S
H281 C269 0.930 . S
H282 C270 0.956 . S
H283 C270 0.961 . S
H284 C270 0.961 . S
H285 C271 0.958 . S
H286 C271 0.961 . S
H287 C271 0.960 . S
C288 C289 1.391 . S
C288 C290 1.394 . S
C288 H304 0.931 . S
C289 C288 1.391 . S
C289 C293 1.376 . S
C290 C288 1.394 . S
C290 C291 1.369 . S
C290 C294 1.531 . S
C291 C290 1.369 . S
C291 C292 1.410 . S
C291 C299 1.503 . S
C292 C291 1.410 . S
C292 C293 1.392 . S
C292 C295 1.511 . S
C293 C289 1.376 . S
C293 C292 1.392 . S
C293 H305 0.929 . S
C294 C290 1.531 . S
C294 H306 0.960 . S
C294 H307 0.962 . S
C294 H308 0.960 . S
C295 C292 1.511 . S
C295 H309 0.961 . S
C295 H310 0.961 . S
C295 H311 0.961 . S
C296 C297 1.370 . S
C296 C298 1.363 . S
C296 H312 0.931 . S
C297 C296 1.370 . S
C297 C301 1.408 . S
C298 C296 1.363 . S
C298 C299 1.370 . S
C298 C302 1.524 . S
C299 C291 1.503 . S
C299 C298 1.370 . S
C299 C300 1.403 . S
C300 C299 1.403 . S
C300 C301 1.404 . S
C300 C303 1.539 . S
C301 C297 1.408 . S
C301 C300 1.404 . S
C301 H313 0.930 . S
C302 C298 1.524 . S
C302 H314 0.956 . S
C302 H315 0.961 . S
C302 H316 0.961 . S
C303 C300 1.539 . S
C303 H317 0.958 . S
C303 H318 0.961 . S
C303 H319 0.960 . S
H304 C288 0.931 . S
H305 C293 0.929 . S
H306 C294 0.960 . S
H307 C294 0.962 . S
H308 C294 0.960 . S
H309 C295 0.961 . S
H310 C295 0.961 . S
H311 C295 0.961 . S
H312 C296 0.931 . S
H313 C301 0.930 . S
H314 C302 0.956 . S
H315 C302 0.961 . S
H316 C302 0.961 . S
H317 C303 0.958 . S
H318 C303 0.961 . S
H319 C303 0.960 . S
C320 C321 1.391 . S
C320 C322 1.394 . S
C320 H336 0.931 . S
C321 C320 1.391 . S
C321 C325 1.376 . S
C322 C320 1.394 . S
C322 C323 1.369 . S
C322 C326 1.531 . S
C323 C322 1.369 . S
C323 C324 1.410 . S
C323 C331 1.503 . S
C324 C323 1.410 . S
C324 C325 1.392 . S
C324 C327 1.511 . S
C325 C321 1.376 . S
C325 C324 1.392 . S
C325 H337 0.929 . S
C326 C322 1.531 . S
C326 H338 0.960 . S
C326 H339 0.962 . S
C326 H340 0.960 . S
C327 C324 1.511 . S
C327 H341 0.961 . S
C327 H342 0.961 . S
C327 H343 0.961 . S
C328 C329 1.370 . S
C328 C330 1.363 . S
C328 H344 0.931 . S
C329 C328 1.370 . S
C329 C333 1.408 . S
C330 C328 1.363 . S
C330 C331 1.370 . S
C330 C334 1.524 . S
C331 C323 1.503 . S
C331 C330 1.370 . S
C331 C332 1.403 . S
C332 C331 1.403 . S
C332 C333 1.404 . S
C332 C335 1.539 . S
C333 C329 1.408 . S
C333 C332 1.404 . S
C333 H345 0.930 . S
C334 C330 1.524 . S
C334 H346 0.956 . S
C334 H347 0.961 . S
C334 H348 0.961 . S
C335 C332 1.539 . S
C335 H349 0.958 . S
C335 H350 0.961 . S
C335 H351 0.960 . S
H336 C320 0.931 . S
H337 C325 0.929 . S
H338 C326 0.960 . S
H339 C326 0.962 . S
H340 C326 0.960 . S
H341 C327 0.961 . S
H342 C327 0.961 . S
H343 C327 0.961 . S
H344 C328 0.931 . S
H345 C333 0.930 . S
H346 C334 0.956 . S
H347 C334 0.961 . S
H348 C334 0.961 . S
H349 C335 0.958 . S
H350 C335 0.961 . S
H351 C335 0.960 . S
C352 C353 1.391 . S
C352 C354 1.394 . S
C352 H368 0.931 . S
C353 C352 1.391 . S
C353 C357 1.376 . S
C354 C352 1.394 . S
C354 C355 1.369 . S
C354 C358 1.531 . S
C355 C354 1.369 . S
C355 C356 1.410 . S
C355 C363 1.503 . S
C356 C355 1.410 . S
C356 C357 1.392 . S
C356 C359 1.511 . S
C357 C353 1.376 . S
C357 C356 1.392 . S
C357 H369 0.929 . S
C358 C354 1.531 . S
C358 H370 0.960 . S
C358 H371 0.962 . S
C358 H372 0.960 . S
C359 C356 1.511 . S
C359 H373 0.961 . S
C359 H374 0.961 . S
C359 H375 0.961 . S
C360 C361 1.370 . S
C360 C362 1.363 . S
C360 H376 0.931 . S
C361 C360 1.370 . S
C361 C365 1.408 . S
C362 C360 1.363 . S
C362 C363 1.370 . S
C362 C366 1.524 . S
C363 C355 1.503 . S
C363 C362 1.370 . S
C363 C364 1.403 . S
C364 C363 1.403 . S
C364 C365 1.404 . S
C364 C367 1.539 . S
C365 C361 1.408 . S
C365 C364 1.404 . S
C365 H377 0.930 . S
C366 C362 1.524 . S
C366 H378 0.956 . S
C366 H379 0.961 . S
C366 H380 0.961 . S
C367 C364 1.539 . S
C367 H381 0.958 . S
C367 H382 0.961 . S
C367 H383 0.960 . S
H368 C352 0.931 . S
H369 C357 0.929 . S
H370 C358 0.960 . S
H371 C358 0.962 . S
H372 C358 0.960 . S
H373 C359 0.961 . S
H374 C359 0.961 . S
H375 C359 0.961 . S
H376 C360 0.931 . S
H377 C365 0.930 . S
H378 C366 0.956 . S
H379 C366 0.961 . S
H380 C366 0.961 . S
H381 C367 0.958 . S
H382 C367 0.961 . S
H383 C367 0.960 . S
C384 C385 1.391 . S
C384 C386 1.394 . S
C384 H400 0.931 . S
C385 C384 1.391 . S
C385 C389 1.376 . S
C386 C384 1.394 . S
C386 C387 1.369 . S
C386 C390 1.531 . S
C387 C386 1.369 . S
C387 C388 1.410 . S
C387 C395 1.503 . S
C388 C387 1.410 . S
C388 C389 1.392 . S
C388 C391 1.511 . S
C389 C385 1.376 . S
C389 C388 1.392 . S
C389 H401 0.929 . S
C390 C386 1.531 . S
C390 H402 0.960 . S
C390 H403 0.962 . S
C390 H404 0.960 . S
C391 C388 1.511 . S
C391 H405 0.961 . S
C391 H406 0.961 . S
C391 H407 0.961 . S
C392 C393 1.370 . S
C392 C394 1.363 . S
C392 H408 0.931 . S
C393 C392 1.370 . S
C393 C397 1.408 . S
C394 C392 1.363 . S
C394 C395 1.370 . S
C394 C398 1.524 . S
C395 C387 1.503 . S
C395 C394 1.370 . S
C395 C396 1.403 . S
C396 C395 1.403 . S
C396 C397 1.404 . S
C396 C399 1.539 . S
C397 C393 1.408 . S
C397 C396 1.404 . S
C397 H409 0.930 . S
C398 C394 1.524 . S
C398 H410 0.956 . S
C398 H411 0.961 . S
C398 H412 0.961 . S
C399 C396 1.539 . S
C399 H413 0.958 . S
C399 H414 0.961 . S
C399 H415 0.960 . S
H400 C384 0.931 . S
H401 C389 0.929 . S
H402 C390 0.960 . S
H403 C390 0.962 . S
H404 C390 0.960 . S
H405 C391 0.961 . S
H406 C391 0.961 . S
H407 C391 0.961 . S
H408 C392 0.931 . S
H409 C397 0.930 . S
H410 C398 0.956 . S
H411 C398 0.961 . S
H412 C398 0.961 . S
H413 C399 0.958 . S
H414 C399 0.961 . S
H415 C399 0.960 . S
C416 C417 1.391 . S
C416 C418 1.394 . S
C416 H432 0.931 . S
C417 C416 1.391 . S
C417 C421 1.376 . S
C418 C416 1.394 . S
C418 C419 1.369 . S
C418 C422 1.531 . S
C419 C418 1.369 . S
C419 C420 1.410 . S
C419 C427 1.503 . S
C420 C419 1.410 . S
C420 C421 1.392 . S
C420 C423 1.511 . S
C421 C417 1.376 . S
C421 C420 1.392 . S
C421 H433 0.929 . S
C422 C418 1.531 . S
C422 H434 0.960 . S
C422 H435 0.969 . S
C422 H436 0.960 . S
C423 C420 1.511 . S
C423 H437 0.961 . S
C423 H438 0.961 . S
C423 H439 0.961 . S
C424 C425 1.370 . S
C424 C426 1.363 . S
C424 H440 0.931 . S
C425 C424 1.370 . S
C425 C429 1.408 . S
C426 C424 1.363 . S
C426 C427 1.370 . S
C426 C430 1.524 . S
C427 C419 1.503 . S
C427 C426 1.370 . S
C427 C428 1.403 . S
C428 C427 1.403 . S
C428 C429 1.404 . S
C428 C431 1.539 . S
C429 C425 1.408 . S
C429 C428 1.404 . S
C429 H441 0.930 . S
C430 C426 1.524 . S
C430 H442 0.956 . S
C430 H443 0.961 . S
C430 H444 0.961 . S
C431 C428 1.539 . S
C431 H445 0.958 . S
C431 H446 0.961 . S
C431 H447 0.960 . S
H432 C416 0.931 . S
H433 C421 0.929 . S
H434 C422 0.960 . S
H435 C422 0.969 . S
H436 C422 0.960 . S
H437 C423 0.961 . S
H438 C423 0.961 . S
H439 C423 0.961 . S
H440 C424 0.931 . S
H441 C429 0.930 . S
H442 C430 0.956 . S
H443 C430 0.961 . S
H444 C430 0.961 . S
H445 C431 0.958 . S
H446 C431 0.961 . S
H447 C431 0.960 . S
C448 C449 1.391 . S
C448 C450 1.394 . S
C448 H464 0.931 . S
C449 C448 1.391 . S
C449 C453 1.376 . S
C450 C448 1.394 . S
C450 C451 1.369 . S
C450 C454 1.531 . S
C451 C450 1.369 . S
C451 C452 1.410 . S
C451 C459 1.503 . S
C452 C451 1.410 . S
C452 C453 1.392 . S
C452 C455 1.511 . S
C453 C449 1.376 . S
C453 C452 1.392 . S
C453 H465 0.929 . S
C454 C450 1.531 . S
C454 H466 0.960 . S
C454 H467 0.962 . S
C454 H468 0.960 . S
C455 C452 1.511 . S
C455 H469 0.961 . S
C455 H470 0.961 . S
C455 H471 0.961 . S
C456 C457 1.370 . S
C456 C458 1.363 . S
C456 H472 0.931 . S
C457 C456 1.370 . S
C457 C461 1.408 . S
C458 C456 1.363 . S
C458 C459 1.370 . S
C458 C462 1.524 . S
C459 C451 1.503 . S
C459 C458 1.370 . S
C459 C460 1.403 . S
C460 C459 1.403 . S
C460 C461 1.404 . S
C460 C463 1.539 . S
C461 C457 1.408 . S
C461 C460 1.404 . S
C461 H473 0.930 . S
C462 C458 1.524 . S
C462 H474 0.956 . S
C462 H475 0.961 . S
C462 H476 0.961 . S
C463 C460 1.539 . S
C463 H477 0.958 . S
C463 H478 0.961 . S
C463 H479 0.960 . S
H464 C448 0.931 . S
H465 C453 0.929 . S
H466 C454 0.960 . S
H467 C454 0.962 . S
H468 C454 0.960 . S
H469 C455 0.961 . S
H470 C455 0.961 . S
H471 C455 0.961 . S
H472 C456 0.931 . S
H473 C461 0.930 . S
H474 C462 0.956 . S
H475 C462 0.961 . S
H476 C462 0.961 . S
H477 C463 0.958 . S
H478 C463 0.961 . S
H479 C463 0.960 . S
C480 C481 1.391 . S
C480 C482 1.394 . S
C480 H496 0.931 . S
C481 C480 1.391 . S
C481 C485 1.376 . S
C482 C480 1.394 . S
C482 C483 1.369 . S
C482 C486 1.531 . S
C483 C482 1.369 . S
C483 C484 1.410 . S
C483 C491 1.503 . S
C484 C483 1.410 . S
C484 C485 1.392 . S
C484 C487 1.511 . S
C485 C481 1.376 . S
C485 C484 1.392 . S
C485 H497 0.929 . S
C486 C482 1.531 . S
C486 H498 0.960 . S
C486 H499 0.962 . S
C486 H500 0.960 . S
C487 C484 1.511 . S
C487 H501 0.961 . S
C487 H502 0.961 . S
C487 H503 0.961 . S
C488 C489 1.370 . S
C488 C490 1.363 . S
C488 H504 0.931 . S
C489 C488 1.370 . S
C489 C493 1.408 . S
C490 C488 1.363 . S
C490 C491 1.370 . S
C490 C494 1.524 . S
C491 C483 1.503 . S
C491 C490 1.370 . S
C491 C492 1.403 . S
C492 C491 1.403 . S
C492 C493 1.404 . S
C492 C495 1.539 . S
C493 C489 1.408 . S
C493 C492 1.404 . S
C493 H505 0.930 . S
C494 C490 1.524 . S
C494 H506 0.956 . S
C494 H507 0.961 . S
C494 H508 0.961 . S
C495 C492 1.539 . S
C495 H509 0.958 . S
C495 H510 0.961 . S
C495 H511 0.960 . S
H496 C480 0.931 . S
H497 C485 0.929 . S
H498 C486 0.960 . S
H499 C486 0.962 . S
H500 C486 0.960 . S
H501 C487 0.961 . S
H502 C487 0.961 . S
H503 C487 0.961 . S
H504 C488 0.931 . S
H505 C493 0.930 . S
H506 C494 0.956 . S
H507 C494 0.961 . S
H508 C494 0.961 . S
H509 C495 0.958 . S
H510 C495 0.961 . S
H511 C495 0.960 . S
C512 C513 1.391 . S
C512 C514 1.394 . S
C512 H528 0.931 . S
C513 C512 1.391 . S
C513 C517 1.376 . S
C514 C512 1.394 . S
C514 C515 1.369 . S
C514 C518 1.531 . S
C515 C514 1.369 . S
C515 C516 1.410 . S
C515 C523 1.503 . S
C516 C515 1.410 . S
C516 C517 1.392 . S
C516 C519 1.511 . S
C517 C513 1.376 . S
C517 C516 1.392 . S
C517 H529 0.929 . S
C518 C514 1.531 . S
C518 H530 0.960 . S
C518 H531 0.962 . S
C518 H532 0.960 . S
C519 C516 1.511 . S
C519 H533 0.961 . S
C519 H534 0.961 . S
C519 H535 0.961 . S
C520 C521 1.370 . S
C520 C522 1.363 . S
C520 H536 0.931 . S
C521 C520 1.370 . S
C521 C525 1.408 . S
C522 C520 1.363 . S
C522 C523 1.370 . S
C522 C526 1.524 . S
C523 C515 1.503 . S
C523 C522 1.370 . S
C523 C524 1.403 . S
C524 C523 1.403 . S
C524 C525 1.404 . S
C524 C527 1.539 . S
C525 C521 1.408 . S
C525 C524 1.404 . S
C525 H537 0.930 . S
C526 C522 1.524 . S
C526 H538 0.956 . S
C526 H539 0.961 . S
C526 H540 0.961 . S
C527 C524 1.539 . S
C527 H541 0.958 . S
C527 H542 0.961 . S
C527 H543 0.960 . S
H528 C512 0.931 . S
H529 C517 0.929 . S
H530 C518 0.960 . S
H531 C518 0.962 . S
H532 C518 0.960 . S
H533 C519 0.961 . S
H534 C519 0.961 . S
H535 C519 0.961 . S
H536 C520 0.931 . S
H537 C525 0.930 . S
H538 C526 0.956 . S
H539 C526 0.961 . S
H540 C526 0.961 . S
H541 C527 0.958 . S
H542 C527 0.961 . S
H543 C527 0.960 . S
C544 C545 1.391 . S
C544 C546 1.394 . S
C544 H560 0.931 . S
C545 C544 1.391 . S
C545 C549 1.376 . S
C546 C544 1.394 . S
C546 C547 1.369 . S
C546 C550 1.531 . S
C547 C546 1.369 . S
C547 C548 1.410 . S
C547 C555 1.503 . S
C548 C547 1.410 . S
C548 C549 1.392 . S
C548 C551 1.511 . S
C549 C545 1.376 . S
C549 C548 1.392 . S
C549 H561 0.929 . S
C550 C546 1.531 . S
C550 H562 0.960 . S
C550 H563 0.962 . S
C550 H564 0.960 . S
C551 C548 1.511 . S
C551 H565 0.961 . S
C551 H566 0.961 . S
C551 H567 0.961 . S
C552 C553 1.370 . S
C552 C554 1.363 . S
C552 H568 0.931 . S
C553 C552 1.370 . S
C553 C557 1.408 . S
C554 C552 1.363 . S
C554 C555 1.370 . S
C554 C558 1.524 . S
C555 C547 1.503 . S
C555 C554 1.370 . S
C555 C556 1.403 . S
C556 C555 1.403 . S
C556 C557 1.404 . S
C556 C559 1.539 . S
C557 C553 1.408 . S
C557 C556 1.404 . S
C557 H569 0.930 . S
C558 C554 1.524 . S
C558 H570 0.956 . S
C558 H571 0.961 . S
C558 H572 0.961 . S
C559 C556 1.539 . S
C559 H573 0.958 . S
C559 H574 0.961 . S
C559 H575 0.960 . S
H560 C544 0.931 . S
H561 C549 0.929 . S
H562 C550 0.960 . S
H563 C550 0.962 . S
H564 C550 0.960 . S
H565 C551 0.961 . S
H566 C551 0.961 . S
H567 C551 0.961 . S
H568 C552 0.931 . S
H569 C557 0.930 . S
H570 C558 0.956 . S
H571 C558 0.961 . S
H572 C558 0.961 . S
H573 C559 0.958 . S
H574 C559 0.961 . S
H575 C559 0.960 . S
C576 C577 1.391 . S
C576 C578 1.394 . S
C576 H592 0.931 . S
C577 C576 1.391 . S
C577 C581 1.376 . S
C578 C576 1.394 . S
C578 C579 1.369 . S
C578 C582 1.531 . S
C579 C578 1.369 . S
C579 C580 1.410 . S
C579 C587 1.503 . S
C580 C579 1.410 . S
C580 C581 1.392 . S
C580 C583 1.511 . S
C581 C577 1.376 . S
C581 C580 1.392 . S
C581 H593 0.929 . S
C582 C578 1.531 . S
C582 H594 0.960 . S
C582 H595 0.962 . S
C582 H596 0.960 . S
C583 C580 1.511 . S
C583 H597 0.961 . S
C583 H598 0.961 . S
C583 H599 0.961 . S
C584 C585 1.370 . S
C584 C586 1.363 . S
C584 H600 0.931 . S
C585 C584 1.370 . S
C585 C589 1.408 . S
C586 C584 1.363 . S
C586 C587 1.370 . S
C586 C590 1.524 . S
C587 C579 1.503 . S
C587 C586 1.370 . S
C587 C588 1.403 . S
C588 C587 1.403 . S
C588 C589 1.404 . S
C588 C591 1.539 . S
C589 C585 1.408 . S
C589 C588 1.404 . S
C589 H601 0.930 . S
C590 C586 1.524 . S
C590 H602 0.956 . S
C590 H603 0.961 . S
C590 H604 0.961 . S
C591 C588 1.539 . S
C591 H605 0.958 . S
C591 H606 0.961 . S
C591 H607 0.960 . S
H592 C576 0.931 . S
H593 C581 0.929 . S
H594 C582 0.960 . S
H595 C582 0.962 . S
H596 C582 0.960 . S
H597 C583 0.961 . S
H598 C583 0.961 . S
H599 C583 0.961 . S
H600 C584 0.931 . S
H601 C589 0.930 . S
H602 C590 0.956 . S
H603 C590 0.961 . S
H604 C590 0.961 . S
H605 C591 0.958 . S
H606 C591 0.961 . S
H607 C591 0.960 . S
C608 C609 1.391 . S
C608 C610 1.394 . S
C608 H624 0.931 . S
C609 C608 1.391 . S
C609 C613 1.376 . S
C610 C608 1.394 . S
C610 C611 1.369 . S
C610 C614 1.531 . S
C611 C610 1.369 . S
C611 C612 1.410 . S
C611 C619 1.503 . S
C612 C611 1.410 . S
C612 C613 1.392 . S
C612 C615 1.511 . S
C613 C609 1.376 . S
C613 C612 1.392 . S
C613 H625 0.929 . S
C614 C610 1.531 . S
C614 H626 0.960 . S
C614 H627 0.962 . S
C614 H628 0.960 . S
C615 C612 1.511 . S
C615 H629 0.961 . S
C615 H630 0.961 . S
C615 H631 0.961 . S
C616 C617 1.370 . S
C616 C618 1.363 . S
C616 H632 0.931 . S
C617 C616 1.370 . S
C617 C621 1.408 . S
C618 C616 1.363 . S
C618 C619 1.370 . S
C618 C622 1.524 . S
C619 C611 1.503 . S
C619 C618 1.370 . S
C619 C620 1.403 . S
C620 C619 1.403 . S
C620 C621 1.404 . S
C620 C623 1.539 . S
C621 C617 1.408 . S
C621 C620 1.404 . S
C621 H633 0.930 . S
C622 C618 1.524 . S
C622 H634 0.956 . S
C622 H635 0.961 . S
C622 H636 0.961 . S
C623 C620 1.539 . S
C623 H637 0.958 . S
C623 H638 0.961 . S
C623 H639 0.960 . S
H624 C608 0.931 . S
H625 C613 0.929 . S
H626 C614 0.960 . S
H627 C614 0.962 . S
H628 C614 0.960 . S
H629 C615 0.961 . S
H630 C615 0.961 . S
H631 C615 0.961 . S
H632 C616 0.931 . S
H633 C621 0.930 . S
H634 C622 0.956 . S
H635 C622 0.961 . S
H636 C622 0.961 . S
H637 C623 0.958 . S
H638 C623 0.961 . S
H639 C623 0.960 . S
C640 C641 1.391 . S
C640 C642 1.394 . S
C640 H656 0.931 . S
C641 C640 1.391 . S
C641 C645 1.376 . S
C642 C640 1.394 . S
C642 C643 1.369 . S
C642 C646 1.531 . S
C643 C642 1.369 . S
C643 C644 1.410 . S
C643 C651 1.503 . S
C644 C643 1.410 . S
C644 C645 1.392 . S
C644 C647 1.511 . S
C645 C641 1.376 . S
C645 C644 1.392 . S
C645 H657 0.929 . S
C646 C642 1.531 . S
C646 H658 0.960 . S
C646 H659 0.962 . S
C646 H660 0.960 . S
C647 C644 1.511 . S
C647 H661 0.961 . S
C647 H662 0.961 . S
C647 H663 0.961 . S
C648 C649 1.370 . S
C648 C650 1.363 . S
C648 H664 0.931 . S
C649 C648 1.370 . S
C649 C653 1.408 . S
C650 C648 1.363 . S
C650 C651 1.370 . S
C650 C654 1.524 . S
C651 C643 1.503 . S
C651 C650 1.370 . S
C651 C652 1.403 . S
C652 C651 1.403 . S
C652 C653 1.404 . S
C652 C655 1.539 . S
C653 C649 1.408 . S
C653 C652 1.404 . S
C653 H665 0.930 . S
C654 C650 1.524 . S
C654 H666 0.956 . S
C654 H667 0.961 . S
C654 H668 0.961 . S
C655 C652 1.539 . S
C655 H669 0.958 . S
C655 H670 0.961 . S
C655 H671 0.960 . S
H656 C640 0.931 . S
H657 C645 0.929 . S
H658 C646 0.960 . S
H659 C646 0.962 . S
H660 C646 0.960 . S
H661 C647 0.961 . S
H662 C647 0.961 . S
H663 C647 0.961 . S
H664 C648 0.931 . S
H665 C653 0.930 . S
H666 C654 0.956 . S
H667 C654 0.961 . S
H668 C654 0.961 . S
H669 C655 0.958 . S
H670 C655 0.961 . S
H671 C655 0.960 . S
C672 C673 1.391 . S
C672 C674 1.394 . S
C672 H688 0.931 . S
C673 C672 1.391 . S
C673 C677 1.376 . S
C674 C672 1.394 . S
C674 C675 1.369 . S
C674 C678 1.531 . S
C675 C674 1.369 . S
C675 C676 1.410 . S
C675 C683 1.503 . S
C676 C675 1.410 . S
C676 C677 1.392 . S
C676 C679 1.511 . S
C677 C673 1.376 . S
C677 C676 1.392 . S
C677 H689 0.929 . S
C678 C674 1.531 . S
C678 H690 0.960 . S
C678 H691 0.962 . S
C678 H692 0.960 . S
C679 C676 1.511 . S
C679 H693 0.961 . S
C679 H694 0.961 . S
C679 H695 0.961 . S
C680 C681 1.370 . S
C680 C682 1.363 . S
C680 H696 0.931 . S
C681 C680 1.370 . S
C681 C685 1.408 . S
C682 C680 1.363 . S
C682 C683 1.370 . S
C682 C686 1.524 . S
C683 C675 1.503 . S
C683 C682 1.370 . S
C683 C684 1.403 . S
C684 C683 1.403 . S
C684 C685 1.404 . S
C684 C687 1.539 . S
C685 C681 1.408 . S
C685 C684 1.404 . S
C685 H697 0.930 . S
C686 C682 1.524 . S
C686 H698 0.956 . S
C686 H699 0.961 . S
C686 H700 0.961 . S
C687 C684 1.539 . S
C687 H701 0.958 . S
C687 H702 0.961 . S
C687 H703 0.960 . S
H688 C672 0.931 . S
H689 C677 0.929 . S
H690 C678 0.960 . S
H691 C678 0.962 . S
H692 C678 0.960 . S
H693 C679 0.961 . S
H694 C679 0.961 . S
H695 C679 0.961 . S
H696 C680 0.931 . S
H697 C685 0.930 . S
H698 C686 0.956 . S
H699 C686 0.961 . S
H700 C686 0.961 . S
H701 C687 0.958 . S
H702 C687 0.961 . S
H703 C687 0.960 . S
C704 C705 1.391 . S
C704 C706 1.394 . S
C704 H720 0.931 . S
C705 C704 1.391 . S
C705 C709 1.376 . S
C706 C704 1.394 . S
C706 C707 1.369 . S
C706 C710 1.531 . S
C707 C706 1.369 . S
C707 C708 1.410 . S
C707 C715 1.503 . S
C708 C707 1.410 . S
C708 C709 1.392 . S
C708 C711 1.511 . S
C709 C705 1.376 . S
C709 C708 1.392 . S
C709 H721 0.929 . S
C710 C706 1.531 . S
C710 H722 0.960 . S
C710 H723 0.962 . S
C710 H724 0.960 . S
C711 C708 1.511 . S
C711 H725 0.961 . S
C711 H726 0.961 . S
C711 H727 0.961 . S
C712 C713 1.370 . S
C712 C714 1.363 . S
C712 H728 0.931 . S
C713 C712 1.370 . S
C713 C717 1.408 . S
C714 C712 1.363 . S
C714 C715 1.370 . S
C714 C718 1.524 . S
C715 C707 1.503 . S
C715 C714 1.370 . S
C715 C716 1.403 . S
C716 C715 1.403 . S
C716 C717 1.404 . S
C716 C719 1.539 . S
C717 C713 1.408 . S
C717 C716 1.404 . S
C717 H729 0.930 . S
C718 C714 1.524 . S
C718 H730 0.956 . S
C718 H731 0.961 . S
C718 H732 0.961 . S
C719 C716 1.539 . S
C719 H733 0.958 . S
C719 H734 0.961 . S
C719 H735 0.960 . S
H720 C704 0.931 . S
H721 C709 0.929 . S
H722 C710 0.960 . S
H723 C710 0.962 . S
H724 C710 0.960 . S
H725 C711 0.961 . S
H726 C711 0.961 . S
H727 C711 0.961 . S
H728 C712 0.931 . S
H729 C717 0.930 . S
H730 C718 0.956 . S
H731 C718 0.961 . S
H732 C718 0.961 . S
H733 C719 0.958 . S
H734 C719 0.961 . S
H735 C719 0.960 . S
C736 C737 1.391 . S
C736 C738 1.394 . S
C736 H752 0.931 . S
C737 C736 1.391 . S
C737 C741 1.376 . S
C738 C736 1.394 . S
C738 C739 1.369 . S
C738 C742 1.531 . S
C739 C738 1.369 . S
C739 C740 1.410 . S
C739 C747 1.503 . S
C740 C739 1.410 . S
C740 C741 1.392 . S
C740 C743 1.511 . S
C741 C737 1.376 . S
C741 C740 1.392 . S
C741 H753 0.929 . S
C742 C738 1.531 . S
C742 H754 0.960 . S
C742 H755 0.962 . S
C742 H756 0.960 . S
C743 C740 1.511 . S
C743 H757 0.961 . S
C743 H758 0.961 . S
C743 H759 0.961 . S
C744 C745 1.370 . S
C744 C746 1.363 . S
C744 H760 0.931 . S
C745 C744 1.370 . S
C745 C749 1.408 . S
C746 C744 1.363 . S
C746 C747 1.370 . S
C746 C750 1.524 . S
C747 C739 1.503 . S
C747 C746 1.370 . S
C747 C748 1.403 . S
C748 C747 1.403 . S
C748 C749 1.404 . S
C748 C751 1.539 . S
C749 C745 1.408 . S
C749 C748 1.404 . S
C749 H761 0.930 . S
C750 C746 1.524 . S
C750 H762 0.956 . S
C750 H763 0.961 . S
C750 H764 0.961 . S
C751 C748 1.539 . S
C751 H765 0.958 . S
C751 H766 0.961 . S
C751 H767 0.960 . S
H752 C736 0.931 . S
H753 C741 0.929 . S
H754 C742 0.960 . S
H755 C742 0.962 . S
H756 C742 0.960 . S
H757 C743 0.961 . S
H758 C743 0.961 . S
H759 C743 0.961 . S
H760 C744 0.931 . S
H761 C749 0.930 . S
H762 C750 0.956 . S
H763 C750 0.961 . S
H764 C750 0.961 . S
H765 C751 0.958 . S
H766 C751 0.961 . S
H767 C751 0.960 . S
C768 C769 1.391 . S
C768 C770 1.394 . S
C768 H784 0.931 . S
C769 C768 1.391 . S
C769 C773 1.376 . S
C770 C768 1.394 . S
C770 C771 1.369 . S
C770 C774 1.531 . S
C771 C770 1.369 . S
C771 C772 1.410 . S
C771 C779 1.503 . S
C772 C771 1.410 . S
C772 C773 1.392 . S
C772 C775 1.511 . S
C773 C769 1.376 . S
C773 C772 1.392 . S
C773 H785 0.929 . S
C774 C770 1.531 . S
C774 H786 0.960 . S
C774 H787 0.962 . S
C774 H788 0.960 . S
C775 C772 1.511 . S
C775 H789 0.961 . S
C775 H790 0.961 . S
C775 H791 0.961 . S
C776 C777 1.370 . S
C776 C778 1.363 . S
C776 H792 0.931 . S
C777 C776 1.370 . S
C777 C781 1.408 . S
C778 C776 1.363 . S
C778 C779 1.370 . S
C778 C782 1.524 . S
C779 C771 1.503 . S
C779 C778 1.370 . S
C779 C780 1.403 . S
C780 C779 1.403 . S
C780 C781 1.404 . S
C780 C783 1.539 . S
C781 C777 1.408 . S
C781 C780 1.404 . S
C781 H793 0.930 . S
C782 C778 1.524 . S
C782 H794 0.956 . S
C782 H795 0.961 . S
C782 H796 0.961 . S
C783 C780 1.539 . S
C783 H797 0.958 . S
C783 H798 0.961 . S
C783 H799 0.960 . S
H784 C768 0.931 . S
H785 C773 0.929 . S
H786 C774 0.960 . S
H787 C774 0.962 . S
H788 C774 0.960 . S
H789 C775 0.961 . S
H790 C775 0.961 . S
H791 C775 0.961 . S
H792 C776 0.931 . S
H793 C781 0.930 . S
H794 C782 0.956 . S
H795 C782 0.961 . S
H796 C782 0.961 . S
H797 C783 0.958 . S
H798 C783 0.961 . S
H799 C783 0.960 . S
C800 C801 1.391 . S
C800 C802 1.394 . S
C800 H816 0.931 . S
C801 C800 1.391 . S
C801 C805 1.376 . S
C802 C800 1.394 . S
C802 C803 1.369 . S
C802 C806 1.531 . S
C803 C802 1.369 . S
C803 C804 1.410 . S
C803 C811 1.503 . S
C804 C803 1.410 . S
C804 C805 1.392 . S
C804 C807 1.511 . S
C805 C801 1.376 . S
C805 C804 1.392 . S
C805 H817 0.929 . S
C806 C802 1.531 . S
C806 H818 0.960 . S
C806 H819 0.962 . S
C806 H820 0.960 . S
C807 C804 1.511 . S
C807 H821 0.961 1_655 S
C807 H822 0.961 . S
C807 H823 0.961 . S
C808 C809 1.370 . S
C808 C810 1.363 . S
C808 H824 0.931 . S
C809 C808 1.370 . S
C809 C813 1.408 . S
C810 C808 1.363 . S
C810 C811 1.370 . S
C810 C814 1.524 . S
C811 C803 1.503 . S
C811 C810 1.370 . S
C811 C812 1.403 . S
C812 C811 1.403 . S
C812 C813 1.404 . S
C812 C815 1.539 . S
C813 C809 1.408 . S
C813 C812 1.404 . S
C813 H825 0.930 . S
C814 C810 1.524 . S
C814 H826 0.956 . S
C814 H827 0.961 . S
C814 H828 0.961 . S
C815 C812 1.539 . S
C815 H829 0.958 . S
C815 H830 0.961 . S
C815 H831 0.960 . S
H816 C800 0.931 . S
H817 C805 0.929 . S
H818 C806 0.960 . S
H819 C806 0.962 . S
H820 C806 0.960 . S
H821 C807 0.961 1_455 S
H822 C807 0.961 . S
H823 C807 0.961 . S
H824 C808 0.931 . S
H825 C813 0.930 . S
H826 C814 0.956 . S
H827 C814 0.961 . S
H828 C814 0.961 . S
H829 C815 0.958 . S
H830 C815 0.961 . S
H831 C815 0.960 . S
C832 C833 1.391 . S
C832 C834 1.394 . S
C832 H848 0.931 . S
C833 C832 1.391 . S
C833 C837 1.376 . S
C834 C832 1.394 . S
C834 C835 1.369 . S
C834 C838 1.531 . S
C835 C834 1.369 . S
C835 C836 1.410 . S
C835 C843 1.503 . S
C836 C835 1.410 . S
C836 C837 1.392 . S
C836 C839 1.511 . S
C837 C833 1.376 . S
C837 C836 1.392 . S
C837 H849 0.929 . S
C838 C834 1.531 . S
C838 H850 0.960 . S
C838 H851 0.962 . S
C838 H852 0.960 . S
C839 C836 1.511 . S
C839 H853 0.961 . S
C839 H854 0.961 . S
C839 H855 0.961 . S
C840 C841 1.370 . S
C840 C842 1.363 . S
C840 H856 0.931 . S
C841 C840 1.370 . S
C841 C845 1.408 . S
C842 C840 1.363 . S
C842 C843 1.370 . S
C842 C846 1.524 . S
C843 C835 1.503 . S
C843 C842 1.370 . S
C843 C844 1.403 . S
C844 C843 1.403 . S
C844 C845 1.404 . S
C844 C847 1.539 . S
C845 C841 1.408 . S
C845 C844 1.404 . S
C845 H857 0.930 . S
C846 C842 1.524 . S
C846 H858 0.956 . S
C846 H859 0.961 . S
C846 H860 0.961 . S
C847 C844 1.539 . S
C847 H861 0.958 . S
C847 H862 0.961 . S
C847 H863 0.960 . S
H848 C832 0.931 . S
H849 C837 0.929 . S
H850 C838 0.960 . S
H851 C838 0.962 . S
H852 C838 0.960 . S
H853 C839 0.961 . S
H854 C839 0.961 . S
H855 C839 0.961 . S
H856 C840 0.931 . S
H857 C845 0.930 . S
H858 C846 0.956 . S
H859 C846 0.961 . S
H860 C846 0.961 . S
H861 C847 0.958 . S
H862 C847 0.961 . S
H863 C847 0.960 . S
C864 C865 1.391 . S
C864 C866 1.394 . S
C864 H880 0.931 . S
C865 C864 1.391 . S
C865 C869 1.376 . S
C866 C864 1.394 . S
C866 C867 1.369 . S
C866 C870 1.531 . S
C867 C866 1.369 . S
C867 C868 1.410 . S
C867 C875 1.503 . S
C868 C867 1.410 . S
C868 C869 1.392 . S
C868 C871 1.511 . S
C869 C865 1.376 . S
C869 C868 1.392 . S
C869 H881 0.929 . S
C870 C866 1.531 . S
C870 H882 0.960 . S
C870 H883 0.962 . S
C870 H884 0.960 . S
C871 C868 1.511 . S
C871 H885 0.961 . S
C871 H886 0.961 . S
C871 H887 0.961 . S
C872 C873 1.370 . S
C872 C874 1.363 . S
C872 H888 0.931 . S
C873 C872 1.370 . S
C873 C877 1.408 . S
C874 C872 1.363 . S
C874 C875 1.370 . S
C874 C878 1.524 . S
C875 C867 1.503 . S
C875 C874 1.370 . S
C875 C876 1.403 . S
C876 C875 1.403 . S
C876 C877 1.404 . S
C876 C879 1.539 . S
C877 C873 1.408 . S
C877 C876 1.404 . S
C877 H889 0.930 . S
C878 C874 1.524 . S
C878 H890 0.956 . S
C878 H891 0.961 . S
C878 H892 0.961 . S
C879 C876 1.539 . S
C879 H893 0.958 . S
C879 H894 0.961 . S
C879 H895 0.960 . S
H880 C864 0.931 . S
H881 C869 0.929 . S
H882 C870 0.960 . S
H883 C870 0.962 . S
H884 C870 0.960 . S
H885 C871 0.961 . S
H886 C871 0.961 . S
H887 C871 0.961 . S
H888 C872 0.931 . S
H889 C877 0.930 . S
H890 C878 0.956 . S
H891 C878 0.961 . S
H892 C878 0.961 . S
H893 C879 0.958 . S
H894 C879 0.961 . S
H895 C879 0.960 . S
C896 C897 1.391 . S
C896 C898 1.394 . S
C896 H912 0.931 . S
C897 C896 1.391 . S
C897 C901 1.376 . S
C898 C896 1.394 . S
C898 C899 1.369 . S
C898 C902 1.531 . S
C899 C898 1.369 . S
C899 C900 1.410 . S
C899 C907 1.503 . S
C900 C899 1.410 . S
C900 C901 1.392 . S
C900 C903 1.511 . S
C901 C897 1.376 . S
C901 C900 1.392 . S
C901 H913 0.929 . S
C902 C898 1.531 . S
C902 H914 0.960 . S
C902 H915 0.962 . S
C902 H916 0.960 . S
C903 C900 1.511 . S
C903 H917 0.961 . S
C903 H918 0.961 . S
C903 H919 0.961 . S
C904 C905 1.370 . S
C904 C906 1.363 . S
C904 H920 0.931 . S
C905 C904 1.370 . S
C905 C909 1.408 . S
C906 C904 1.363 . S
C906 C907 1.370 . S
C906 C910 1.524 . S
C907 C899 1.503 . S
C907 C906 1.370 . S
C907 C908 1.403 . S
C908 C907 1.403 . S
C908 C909 1.404 . S
C908 C911 1.539 . S
C909 C905 1.408 . S
C909 C908 1.404 . S
C909 H921 0.930 . S
C910 C906 1.524 . S
C910 H922 0.956 . S
C910 H923 0.961 . S
C910 H924 0.961 . S
C911 C908 1.539 . S
C911 H925 0.958 . S
C911 H926 0.961 . S
C911 H927 0.960 . S
H912 C896 0.931 . S
H913 C901 0.929 . S
H914 C902 0.960 . S
H915 C902 0.962 . S
H916 C902 0.960 . S
H917 C903 0.961 . S
H918 C903 0.961 . S
H919 C903 0.961 . S
H920 C904 0.931 . S
H921 C909 0.930 . S
H922 C910 0.956 . S
H923 C910 0.961 . S
H924 C910 0.961 . S
H925 C911 0.958 . S
H926 C911 0.961 . S
H927 C911 0.960 . S
C928 C929 1.391 . S
C928 C930 1.394 . S
C928 H944 0.931 . S
C929 C928 1.391 . S
C929 C933 1.376 . S
C930 C928 1.394 . S
C930 C931 1.369 . S
C930 C934 1.531 . S
C931 C930 1.369 . S
C931 C932 1.410 . S
C931 C939 1.503 . S
C932 C931 1.410 . S
C932 C933 1.392 . S
C932 C935 1.511 . S
C933 C929 1.376 . S
C933 C932 1.392 . S
C933 H945 0.929 . S
C934 C930 1.531 . S
C934 H946 0.960 . S
C934 H947 0.962 . S
C934 H948 0.960 . S
C935 C932 1.511 . S
C935 H949 0.961 . S
C935 H950 0.961 . S
C935 H951 0.961 . S
C936 C937 1.370 . S
C936 C938 1.363 . S
C936 H952 0.931 . S
C937 C936 1.370 . S
C937 C941 1.408 . S
C938 C936 1.363 . S
C938 C939 1.370 . S
C938 C942 1.524 . S
C939 C931 1.503 . S
C939 C938 1.370 . S
C939 C940 1.403 . S
C940 C939 1.403 . S
C940 C941 1.404 . S
C940 C943 1.539 . S
C941 C937 1.408 . S
C941 C940 1.404 . S
C941 H953 0.930 . S
C942 C938 1.524 . S
C942 H954 0.956 . S
C942 H955 0.961 . S
C942 H956 0.961 . S
C943 C940 1.539 . S
C943 H957 0.958 . S
C943 H958 0.961 . S
C943 H959 0.960 . S
H944 C928 0.931 . S
H945 C933 0.929 . S
H946 C934 0.960 . S
H947 C934 0.962 . S
H948 C934 0.960 . S
H949 C935 0.961 . S
H950 C935 0.961 . S
H951 C935 0.961 . S
H952 C936 0.931 . S
H953 C941 0.930 . S
H954 C942 0.956 . S
H955 C942 0.961 . S
H956 C942 0.961 . S
H957 C943 0.958 . S
H958 C943 0.961 . S
H959 C943 0.960 . S
C960 C961 1.391 . S
C960 C962 1.394 . S
C960 H976 0.931 . S
C961 C960 1.391 . S
C961 C965 1.376 . S
C962 C960 1.394 . S
C962 C963 1.369 . S
C962 C966 1.531 . S
C963 C962 1.369 . S
C963 C964 1.410 . S
C963 C971 1.503 . S
C964 C963 1.410 . S
C964 C965 1.392 . S
C964 C967 1.511 . S
C965 C961 1.376 . S
C965 C964 1.392 . S
C965 H977 0.929 . S
C966 C962 1.531 . S
C966 H978 0.960 . S
C966 H979 0.962 . S
C966 H980 0.960 . S
C967 C964 1.511 . S
C967 H981 0.961 . S
C967 H982 0.961 . S
C967 H983 0.961 . S
C968 C969 1.370 . S
C968 C970 1.363 . S
C968 H984 0.931 . S
C969 C968 1.370 . S
C969 C973 1.408 . S
C970 C968 1.363 . S
C970 C971 1.370 . S
C970 C974 1.524 . S
C971 C963 1.503 . S
C971 C970 1.370 . S
C971 C972 1.403 . S
C972 C971 1.403 . S
C972 C973 1.404 . S
C972 C975 1.539 . S
C973 C969 1.408 . S
C973 C972 1.404 . S
C973 H985 0.930 . S
C974 C970 1.524 . S
C974 H986 0.956 . S
C974 H987 0.961 . S
C974 H988 0.961 . S
C975 C972 1.539 . S
C975 H989 0.958 . S
C975 H990 0.961 . S
C975 H991 0.960 . S
H976 C960 0.931 . S
H977 C965 0.929 . S
H978 C966 0.960 . S
H979 C966 0.962 . S
H980 C966 0.960 . S
H981 C967 0.961 . S
H982 C967 0.961 . S
H983 C967 0.961 . S
H984 C968 0.931 . S
H985 C973 0.930 . S
H986 C974 0.956 . S
H987 C974 0.961 . S
H988 C974 0.961 . S
H989 C975 0.958 . S
H990 C975 0.961 . S
H991 C975 0.960 . S
C992 C993 1.391 . S
C992 C994 1.394 . S
C992 H1008 0.931 . S
C993 C992 1.391 . S
C993 C997 1.376 . S
C994 C992 1.394 . S
C994 C995 1.369 . S
C994 C998 1.531 . S
C995 C994 1.369 . S
C995 C996 1.410 . S
C995 C1003 1.503 . S
C996 C995 1.410 . S
C996 C997 1.392 . S
C996 C999 1.511 . S
C997 C993 1.376 . S
C997 C996 1.392 . S
C997 H1009 0.929 . S
C998 C994 1.531 . S
C998 H1010 0.960 . S
C998 H1011 0.962 . S
C998 H1012 0.960 . S
C999 C996 1.511 . S
C999 H1013 0.961 . S
C999 H1014 0.961 . S
C999 H1015 0.961 . S
C1000 C1001 1.370 . S
C1000 C1002 1.363 . S
C1000 H1016 0.931 . S
C1001 C1000 1.370 . S
C1001 C1005 1.408 . S
C1002 C1000 1.363 . S
C1002 C1003 1.370 . S
C1002 C1006 1.524 . S
C1003 C995 1.503 . S
C1003 C1002 1.370 . S
C1003 C1004 1.403 . S
C1004 C1003 1.403 . S
C1004 C1005 1.404 . S
C1004 C1007 1.539 . S
C1005 C1001 1.408 . S
C1005 C1004 1.404 . S
C1005 H1017 0.930 . S
C1006 C1002 1.524 . S
C1006 H1018 0.956 . S
C1006 H1019 0.961 . S
C1006 H1020 0.961 . S
C1007 C1004 1.539 . S
C1007 H1021 0.958 . S
C1007 H1022 0.961 . S
C1007 H1023 0.960 . S
H1008 C992 0.931 . S
H1009 C997 0.929 . S
H1010 C998 0.960 . S
H1011 C998 0.962 . S
H1012 C998 0.960 . S
H1013 C999 0.961 . S
H1014 C999 0.961 . S
H1015 C999 0.961 . S
H1016 C1000 0.931 . S
H1017 C1005 0.930 . S
H1018 C1006 0.956 . S
H1019 C1006 0.961 . S
H1020 C1006 0.961 . S
H1021 C1007 0.958 . S
H1022 C1007 0.961 . S
H1023 C1007 0.960 . S
C257 C6 1.013 . S
C265 C111 1.051 . S
C289 C18 1.681 . S
C297 C155 1.671 . S
C329 C185 2.252 . S
C321 C28 2.253 . S
C353 C40 2.130 . S
C361 C226 2.109 . S
C393 C142 1.074 . S
C385 C9 1.001 . S
C425 C106 2.447 . S
C417 C16 2.398 . S
C457 C234 1.095 . S
C449 C30 1.109 . S
C489 C195 1.801 . S
C481 C42 1.825 . S
C513 C4 1.111 . S
C521 C231 1.111 . S
C553 C145 2.121 . S
C545 C33 2.157 . S
C577 C45 1.837 . S
C585 C114 1.805 . S
C609 C21 2.133 . S
C617 C182 2.141 . S
C649 C102 1.045 . S
C641 C57 1.077 . S
C673 C66 1.592 . S
C681 C146 1.660 . S
C705 C76 2.318 . S
C713 C194 2.319 . S
C737 C88 2.017 . S
C745 C235 1.998 . S
C769 C54 1.033 . S
C777 C151 1.073 . S
C809 C115 2.532 . S
C801 C64 2.504 . S
C841 C225 0.996 . S
C833 C78 1.007 . S
C873 C186 1.852 . S
C865 C93 1.861 . S
C897 C52 1.104 . S
C905 C222 1.198 . S
C937 C154 2.108 . S
C929 C81 2.120 . S
C969 C105 1.782 . S
C961 C90 1.790 . S
C993 C69 2.109 . S
C1001 C191 2.141 . S
