# Generated by pormake.
# Topology anh, (6,3)-cn, num edge types: 1
# Building blocks:
#     Node 0, Type 0, BuildingBlock: BETDIP_clean_sbu_0, # of connection points: 6
#     Node 1, Type 0, BuildingBlock: BETDIP_clean_sbu_0, # of connection points: 6
#     Node 2, Type 0, BuildingBlock: BETDIP_clean_sbu_0, # of connection points: 6
#     Node 3, Type 1, BuildingBlock: BETDIP_clean_linker_0, # of connection points: 3
#     Node 4, Type 1, BuildingBlock: BETDIP_clean_linker_0, # of connection points: 3
#     Node 5, Type 1, BuildingBlock: BETDIP_clean_linker_0, # of connection points: 3
#     Node 6, Type 1, BuildingBlock: BETDIP_clean_linker_0, # of connection points: 3
#     Node 7, Type 1, BuildingBlock: BETDIP_clean_linker_0, # of connection points: 3
#     Node 8, Type 1, BuildingBlock: BETDIP_clean_linker_0, # of connection points: 3
#     Edge 9, Type (0, 1), BuildingBlock: KIFKEQ_clean_linker_1, # of connection points: 2
#     Edge 10, Type (0, 1), BuildingBlock: KIFKEQ_clean_linker_1, # of connection points: 2
#     Edge 11, Type (0, 1), BuildingBlock: KIFKEQ_clean_linker_1, # of connection points: 2
#     Edge 12, Type (0, 1), BuildingBlock: KIFKEQ_clean_linker_1, # of connection points: 2
#     Edge 13, Type (0, 1), BuildingBlock: KIFKEQ_clean_linker_1, # of connection points: 2
#     Edge 14, Type (0, 1), BuildingBlock: KIFKEQ_clean_linker_1, # of connection points: 2
#     Edge 15, Type (0, 1), BuildingBlock: KIFKEQ_clean_linker_1, # of connection points: 2
#     Edge 16, Type (0, 1), BuildingBlock: KIFKEQ_clean_linker_1, # of connection points: 2
#     Edge 17, Type (0, 1), BuildingBlock: KIFKEQ_clean_linker_1, # of connection points: 2
#     Edge 18, Type (0, 1), BuildingBlock: KIFKEQ_clean_linker_1, # of connection points: 2
#     Edge 19, Type (0, 1), BuildingBlock: KIFKEQ_clean_linker_1, # of connection points: 2
#     Edge 20, Type (0, 1), BuildingBlock: KIFKEQ_clean_linker_1, # of connection points: 2
#     Edge 21, Type (0, 1), BuildingBlock: KIFKEQ_clean_linker_1, # of connection points: 2
#     Edge 22, Type (0, 1), BuildingBlock: KIFKEQ_clean_linker_1, # of connection points: 2
#     Edge 23, Type (0, 1), BuildingBlock: KIFKEQ_clean_linker_1, # of connection points: 2
#     Edge 24, Type (0, 1), BuildingBlock: KIFKEQ_clean_linker_1, # of connection points: 2
#     Edge 25, Type (0, 1), BuildingBlock: KIFKEQ_clean_linker_1, # of connection points: 2
#     Edge 26, Type (0, 1), BuildingBlock: KIFKEQ_clean_linker_1, # of connection points: 2
# Relax obj value: 0.256
# Max RMSD: 0.185
# Mean RMSD: 0.131
data_MOF--net-anh--node1-BETDIP_clean_sbu_0--node2-BETDIP_clean_linker_0--edge1-KIFKEQ_clean_linker_1
_symmetry_space_group_name_H-M    P1
_symmetry_Int_Tables_number       1
_symmetry_cell_setting            triclinic
loop_
_symmetry_equiv_pos_as_xyz
'x, y, z'
_cell_length_a     32.127116
_cell_length_b     31.883413
_cell_length_c     50.820484
_cell_angle_alpha  93.052367
_cell_angle_beta   89.353991
_cell_angle_gamma 120.10072
loop_
_atom_site_label
_atom_site_type_symbol
_atom_site_fract_x
_atom_site_fract_y
_atom_site_fract_z
_atom_type_partial_charge
Tb0 Tb 0.16529 0.63678 0.15401 0.0
Tb1 Tb 0.11728 0.53392 0.15645 0.0
C2 C 0.21919 0.72679 0.16211 0.0
C3 C 0.26592 0.76629 0.15337 0.0
C4 C 0.30733 0.78439 0.16942 0.0
C5 C 0.34908 0.82741 0.16366 0.0
C6 C 0.34984 0.85327 0.14193 0.0
C7 C 0.30969 0.83333 0.12484 0.0
C8 C 0.26813 0.7903 0.13049 0.0
C9 C 0.13936 0.59025 0.10758 0.0
C10 C 0.23192 0.58396 0.14983 0.0
C11 C 1.05846 0.44453 0.15009 0.0
C12 C 1.00627 0.41903 0.154 0.0
C13 C 0.97538 0.37704 0.1385 0.0
C14 C 0.92541 0.35731 0.13975 0.0
C15 C 0.9063 0.38009 0.15616 0.0
C16 C 0.93722 0.42108 0.17221 0.0
C17 C 0.98674 0.44027 0.17123 0.0
C18 C 0.14385 0.58015 0.20362 0.0
C19 C 1.05111 0.58668 0.15337 0.0
O20 O 0.21926 0.69491 0.17735 0.0
O21 O 0.18458 0.70684 0.14438 0.0
O22 O 0.15669 0.58012 0.12653 0.0
O23 O 0.13934 0.63012 0.11347 0.0
O24 O 0.23008 0.62515 0.15311 0.0
O25 O 0.19003 0.54201 0.1484 0.0
O26 O 1.07295 0.47409 0.13088 0.0
O27 O 1.08503 0.46455 0.17138 0.0
O28 O 0.12513 0.59062 0.18506 0.0
O29 O 0.14752 0.54289 0.19584 0.0
O30 O 1.0537 0.54604 0.15017 0.0
O31 O 1.09204 0.62792 0.15891 0.0
H32 H 0.30665 0.76687 0.18724 0.0
H33 H 0.37939 0.84236 0.17735 0.0
H34 H 0.30947 0.85259 0.10796 0.0
H35 H 0.2369 0.77747 0.11767 0.0
H36 H 0.98991 0.36053 0.1249 0.0
H37 H 0.90189 0.32558 0.12725 0.0
H38 H 0.92303 0.43891 0.18511 0.0
H39 H 1.00985 0.47282 0.18329 0.0
Tb40 Tb 0.62626 0.08591 0.48715 0.0
Tb41 Tb 0.57596 0.13977 0.49075 0.0
C42 C 0.68228 1.05425 0.49556 0.0
C43 C 0.68527 1.0106 0.50023 0.0
C44 C 0.66912 0.98604 0.52363 0.0
C45 C 0.68043 0.95047 0.52948 0.0
C46 C 0.70821 0.93905 0.51212 0.0
C47 C 0.72189 0.96182 0.48808 0.0
C48 C 0.71061 0.99725 0.48226 0.0
C49 C 0.60011 0.10126 0.44169 0.0
C50 C 0.5121 1.01941 0.48467 0.0
C51 C 0.52517 0.17772 0.4832 0.0
C52 C 0.53686 0.22773 0.47846 0.0
C53 C 0.55916 0.25013 0.45518 0.0
C54 C 0.5766 0.29969 0.45289 0.0
C55 C 0.57216 0.32778 0.47383 0.0
C56 C 0.54693 0.30441 0.49632 0.0
C57 C 0.52924 0.25494 0.49851 0.0
C58 C 0.60535 0.12889 0.53714 0.0
C59 C 0.69046 0.20603 0.48582 0.0
O60 O 0.66546 0.07128 0.51426 0.0
O61 O 0.66848 1.05747 0.47204 0.0
O62 O 0.61722 0.13058 0.46132 0.0
O63 O 0.59899 1.06115 0.44647 0.0
O64 O 0.55327 1.01959 0.4884 0.0
O65 O 0.51388 1.06229 0.48378 0.0
O66 O 0.53569 0.1548 0.46457 0.0
O67 O 0.53699 0.1714 0.50659 0.0
O68 O 0.58631 0.0966 0.51845 0.0
O69 O 0.60626 0.16776 0.53016 0.0
O70 O 0.64832 0.20453 0.48358 0.0
O71 O 0.68937 0.16403 0.48938 0.0
H72 H 0.64951 0.99559 0.53788 0.0
H73 H 0.66882 0.93308 0.54801 0.0
H74 H 0.74387 0.95448 0.47442 0.0
H75 H 0.72392 1.01604 0.46422 0.0
H76 H 0.56482 0.22996 0.43912 0.0
H77 H 0.59499 0.31628 0.43509 0.0
H78 H 0.54327 0.32474 0.51305 0.0
H79 H 0.51174 0.23846 0.51653 0.0
Tb80 Tb 0.5631 0.58038 0.82635 0.0
Tb81 Tb 0.667 0.63755 0.82326 0.0
C82 C 0.47685 0.54135 0.84037 0.0
C83 C 0.43016 0.53711 0.83398 0.0
C84 C 0.41936 0.57383 0.84095 0.0
C85 C 0.37248 0.5654 0.83728 0.0
C86 C 0.33581 0.52015 0.82667 0.0
C87 C 0.34753 0.48439 0.81896 0.0
C88 C 0.39394 0.49275 0.8226 0.0
C89 C 0.59508 0.59378 0.77792 0.0
C90 C 0.61284 0.69927 0.82141 0.0
C91 C 0.75391 0.67396 0.81052 0.0
C92 C 0.78918 0.65748 0.80957 0.0
C93 C 0.83644 0.68923 0.8185 0.0
C94 C 0.86864 0.67229 0.82113 0.0
C95 C 0.85383 0.62313 0.81509 0.0
C96 C 0.80727 0.59223 0.80455 0.0
C97 C 0.77533 0.60934 0.80171 0.0
C98 C 0.63486 0.62692 0.8723 0.0
C99 C 0.61659 0.51856 0.82112 0.0
O100 O 0.51122 0.58178 0.85169 0.0
O101 O 0.49302 0.52246 0.82248 0.0
O102 O 0.61065 0.62367 0.79728 0.0
O103 O 0.5565 0.55519 0.78454 0.0
O104 O 0.57321 0.65697 0.82661 0.0
O105 O 0.65378 0.69893 0.81724 0.0
O106 O 0.71777 0.65208 0.79374 0.0
O107 O 0.74012 0.6796 0.83408 0.0
O108 O 0.6194 0.59424 0.85379 0.0
O109 O 0.67 0.66629 0.86357 0.0
O110 O 0.65528 0.56132 0.81628 0.0
O111 O 0.57705 0.51865 0.8292 0.0
H112 H 0.44658 0.60836 0.84988 0.0
H113 H 0.36468 0.59377 0.84336 0.0
H114 H 0.32025 0.44866 0.81141 0.0
H115 H 0.40101 0.46351 0.81743 0.0
H116 H 0.8479 0.72668 0.8244 0.0
H117 H 0.90452 0.69721 0.82887 0.0
H118 H 0.79438 0.55408 0.79993 0.0
H119 H 0.73926 0.5844 0.79436 0.0
H120 H 0.54753 0.2311 0.19247 0.0
H121 H 0.55934 0.26835 0.27557 0.0
H122 H 0.53473 0.12801 0.24801 0.0
H123 H 0.57312 0.3511 0.19845 0.0
C124 C 0.58491 0.32786 0.20653 0.0
C125 C 0.54748 0.22126 0.21253 0.0
C126 C 0.54052 0.17522 0.21743 0.0
C127 C 0.55406 0.25476 0.2335 0.0
C128 C 0.55399 0.2423 0.2595 0.0
C129 C 0.54796 0.19683 0.26475 0.0
C130 C 0.54061 0.16346 0.24371 0.0
N131 N 0.56074 0.30126 0.22879 0.0
H132 H 0.83785 0.6889 0.5395 0.0
H133 H 0.83515 0.72064 0.62241 0.0
H134 H 0.71077 0.60082 0.58302 0.0
H135 H 0.93764 0.80312 0.55379 0.0
C136 C 0.90148 0.78568 0.56153 0.0
C137 C 0.81872 0.68085 0.55792 0.0
C138 C 0.77145 0.6421 0.5587 0.0
C139 C 0.84154 0.70899 0.58101 0.0
C140 C 0.8172 0.69784 0.60492 0.0
C141 C 0.76923 0.65963 0.60588 0.0
C142 C 0.74689 0.6318 0.58257 0.0
N143 N 0.88864 0.74965 0.58017 0.0
H144 H 0.95489 0.37097 0.86403 0.0
H145 H 0.99581 0.33588 0.93633 0.0
H146 H 0.98615 0.46531 0.93355 0.0
H147 H 0.97427 0.27891 0.84616 0.0
C148 C 0.993 0.30953 0.8603 0.0
C149 C 0.96566 0.37995 0.88462 0.0
C150 C 0.96846 0.4215 0.8972 0.0
C151 C 0.97538 0.34898 0.8987 0.0
C152 C 0.98795 0.3596 0.92556 0.0
C153 C 0.99171 0.40161 0.93821 0.0
C154 C 0.98197 0.4322 0.92391 0.0
N155 N 0.97333 0.30748 0.88571 0.0
H156 H 0.14392 0.65342 0.48012 0.0
H157 H 1.07554 0.57302 0.40676 0.0
H158 H 0.20799 0.70869 0.40526 0.0
H159 H 1.00579 0.54664 0.42928 0.0
C160 C 1.0135 0.53504 0.44738 0.0
C161 C 0.14323 0.64985 0.45881 0.0
C162 C 0.18244 0.68807 0.44443 0.0
C163 C 0.10231 0.60767 0.4454 0.0
C164 C 0.10359 0.60465 0.41754 0.0
C165 C 0.14157 0.64037 0.40311 0.0
C166 C 0.17961 0.68128 0.41669 0.0
N167 N 1.06161 0.56818 0.45922 0.0
H168 H 0.61156 0.14971 0.81467 0.0
H169 H 0.60586 0.06899 0.74206 0.0
H170 H 0.61184 0.20582 0.73886 0.0
H171 H 0.64697 1.04305 0.76592 0.0
C172 C 0.6251 1.03067 0.78334 0.0
C173 C 0.61085 0.14624 0.79336 0.0
C174 C 0.61242 0.18506 0.77852 0.0
C175 C 0.61002 0.10366 0.78041 0.0
C176 C 0.60884 0.10083 0.75255 0.0
C177 C 0.60926 0.1371 0.73763 0.0
C178 C 0.61116 0.17824 0.75073 0.0
N179 N 0.60895 1.06362 0.79458 0.0
H180 H 0.59782 0.58188 0.1481 0.0
H181 H 0.67206 0.58918 0.07511 0.0
H182 H 0.54171 0.5953 0.07399 0.0
H183 H 0.74016 0.62494 0.10118 0.0
C184 C 0.73022 0.60052 0.11713 0.0
C185 C 0.60047 0.5849 0.12697 0.0
C186 C 0.56319 0.58895 0.1128 0.0
C187 C 0.64204 0.58632 0.11368 0.0
C188 C 0.64307 0.58948 0.08598 0.0
C189 C 0.60738 0.59288 0.07174 0.0
C190 C 0.56885 0.59306 0.08532 0.0
N191 N 0.68117 0.5832 0.12732 0.0
H192 H 0.25237 0.50722 0.14454 0.0
H193 H 0.32692 0.66312 0.14696 0.0
H194 H 0.329 0.50871 0.13858 0.0
H195 H 0.40357 0.66496 0.14118 0.0
H196 H 0.538 0.66023 0.10911 0.0
H197 H 0.4627 0.65901 0.11807 0.0
H198 H 0.40452 0.51778 0.14928 0.0
H199 H 0.48072 0.51929 0.13993 0.0
C200 C 0.28491 0.54221 0.1439 0.0
C201 C 0.28134 0.58501 0.14635 0.0
C202 C 0.33 0.54315 0.14053 0.0
C203 C 0.37513 0.58699 0.13912 0.0
C204 C 0.37131 0.62978 0.14163 0.0
C205 C 0.32629 0.62882 0.14519 0.0
C206 C 0.50986 0.62911 0.11855 0.0
C207 C 0.51809 0.59057 0.12426 0.0
C208 C 0.46542 0.62825 0.12373 0.0
C209 C 0.42483 0.58827 0.13468 0.0
C210 C 0.43314 0.54969 0.14072 0.0
C211 C 0.4781 0.55081 0.13572 0.0
H212 H 0.70704 0.29758 0.47267 0.0
H213 H 0.78742 0.22808 0.49113 0.0
H214 H 0.78196 0.37332 0.46641 0.0
H215 H 0.86314 0.3043 0.48473 0.0
H216 H 1.00194 0.46399 0.48501 0.0
H217 H 0.92779 0.38758 0.495 0.0
H218 H 0.84731 0.42114 0.44125 0.0
H219 H 0.9199 0.49579 0.43163 0.0
C220 C 0.74058 0.29793 0.47548 0.0
C221 C 0.73919 0.25474 0.48252 0.0
C222 C 0.78468 0.34232 0.47162 0.0
C223 C 0.83104 0.34723 0.47465 0.0
C224 C 0.82966 0.30409 0.48214 0.0
C225 C 0.78533 0.25939 0.48578 0.0
C226 C 0.96841 0.45565 0.47559 0.0
C227 C 0.96855 0.48833 0.45754 0.0
C228 C 0.92507 0.41076 0.48116 0.0
C229 C 0.87915 0.39604 0.46931 0.0
C230 C 0.87999 0.42937 0.45161 0.0
C231 C 0.9228 0.47329 0.4459 0.0
H232 H 0.53733 0.72152 0.82768 0.0
H233 H 0.68681 0.78968 0.80757 0.0
H234 H 0.53833 0.79826 0.82123 0.0
H235 H 0.68817 0.86544 0.80149 0.0
H236 H 0.67578 0.98756 0.76645 0.0
H237 H 0.67099 0.91177 0.77588 0.0
H238 H 0.55868 0.88326 0.83135 0.0
H239 H 0.56347 0.96095 0.82137 0.0
C240 C 0.57067 0.75256 0.82195 0.0
C241 C 0.61195 0.74749 0.81817 0.0
C242 C 0.57135 0.79749 0.81829 0.0
C243 C 0.61324 0.84018 0.81035 0.0
C244 C 0.65437 0.83476 0.80694 0.0
C245 C 0.65374 0.79031 0.81071 0.0
C246 C 0.65011 0.96592 0.78101 0.0
C247 C 0.62069 0.98272 0.79312 0.0
C248 C 0.64746 0.92136 0.78664 0.0
C249 C 0.61477 0.88923 0.80486 0.0
C250 C 0.58467 0.90558 0.81713 0.0
C251 C 0.58768 0.95112 0.81155 0.0
H252 H 1.03332 0.66462 0.15417 0.0
H253 H 0.95462 0.50887 0.14494 0.0
H254 H 0.95881 0.66635 0.14836 0.0
H255 H 0.87927 0.5105 0.13918 0.0
H256 H 0.73747 0.52492 0.14319 0.0
H257 H 0.81063 0.52019 0.15233 0.0
H258 H 0.89807 0.6613 0.12171 0.0
H259 H 0.82622 0.66552 0.11268 0.0
C260 C 1.00026 0.63027 0.15098 0.0
C261 C 1.00217 0.58661 0.15026 0.0
C262 C 0.95639 0.63123 0.14738 0.0
C263 C 0.91054 0.58853 0.14298 0.0
C264 C 0.9123 0.54467 0.14264 0.0
C265 C 0.95647 0.54374 0.14595 0.0
C266 C 0.77222 0.55552 0.13888 0.0
C267 C 0.77412 0.59629 0.12748 0.0
C268 C 0.81511 0.55262 0.14388 0.0
C269 C 0.86275 0.59048 0.13816 0.0
C270 C 0.86393 0.63111 0.12718 0.0
C271 C 0.82156 0.63359 0.12187 0.0
H272 H 0.41919 1.00278 0.47349 0.0
H273 H 0.49016 0.92177 0.48698 0.0
H274 H 0.34252 0.9271 0.46696 0.0
H275 H 0.41334 0.84552 0.48018 0.0
H276 H 0.25936 0.70541 0.47925 0.0
H277 H 0.33546 0.78153 0.48955 0.0
H278 H 0.28665 0.85856 0.4434 0.0
H279 H 0.21145 0.78325 0.43361 0.0
C280 C 0.41897 0.96895 0.47511 0.0
C281 C 0.46286 0.97041 0.48093 0.0
C282 C 0.374 0.92439 0.4711 0.0
C283 C 0.36924 0.87764 0.47269 0.0
C284 C 0.41323 0.8792 0.4788 0.0
C285 C 0.45836 0.9239 0.48267 0.0
C286 C 0.26403 0.7387 0.47185 0.0
C287 C 0.22684 0.73655 0.45593 0.0
C288 C 0.30891 0.7832 0.47745 0.0
C289 C 0.31967 0.82871 0.46758 0.0
C290 C 0.28177 0.82624 0.45214 0.0
C291 C 0.23746 0.782 0.44643 0.0
H292 H 0.54353 0.42196 0.82834 0.0
H293 H 0.69095 0.50096 0.80461 0.0
H294 H 0.54352 0.34532 0.82085 0.0
H295 H 0.69155 0.42498 0.79744 0.0
H296 H 0.67524 0.27926 0.76443 0.0
H297 H 0.67602 0.3549 0.77479 0.0
H298 H 0.55868 0.28179 0.82791 0.0
H299 H 0.55758 0.20496 0.81684 0.0
C300 C 0.57638 0.42358 0.82164 0.0
C301 C 0.61724 0.46966 0.8172 0.0
C302 C 0.57648 0.37865 0.81734 0.0
C303 C 0.61742 0.37638 0.80815 0.0
C304 C 0.65838 0.42273 0.80397 0.0
C305 C 0.65827 0.46756 0.80834 0.0
C306 C 0.64971 0.27879 0.77868 0.0
C307 C 0.6167 0.2341 0.78973 0.0
C308 C 0.65022 0.32336 0.78484 0.0
C309 C 0.61744 0.32707 0.80248 0.0
C310 C 0.58473 0.28244 0.81402 0.0
C311 C 0.58447 0.23753 0.80792 0.0
H312 H 0.71773 0.87059 0.48172 0.0
H313 H 0.74409 0.9383 0.56036 0.0
H314 H 0.76054 0.82871 0.49341 0.0
H315 H 0.7864 0.89645 0.572 0.0
H316 H 0.83156 0.78922 0.59143 0.0
H317 H 0.7776 0.81782 0.57904 0.0
H318 H 0.84532 0.85384 0.50322 0.0
H319 H 0.89814 0.82291 0.51536 0.0
C320 C 0.73225 0.87619 0.50155 0.0
C321 C 0.7276 0.90791 0.52008 0.0
C322 C 0.75685 0.85232 0.5082 0.0
C323 C 0.77715 0.85955 0.53355 0.0
C324 C 0.77069 0.88962 0.55239 0.0
C325 C 0.74623 0.91352 0.54573 0.0
C326 C 0.83402 0.80184 0.57183 0.0
C327 C 0.86818 0.80265 0.55403 0.0
C328 C 0.80356 0.81897 0.56488 0.0
C329 C 0.80701 0.83792 0.54011 0.0
C330 C 0.8412 0.83868 0.52229 0.0
C331 C 0.8717 0.82144 0.52927 0.0
H332 H 0.90804 0.64576 0.86003 0.0
H333 H 0.8665 0.55281 0.78871 0.0
H334 H 0.94373 0.60146 0.87755 0.0
H335 H 0.90071 0.50701 0.80695 0.0
H336 H 0.91629 0.46252 0.91502 0.0
H337 H 0.89868 0.51745 0.89278 0.0
H338 H 0.97504 0.50763 0.82439 0.0
H339 H 0.99359 0.45269 0.84701 0.0
C340 C 0.9076 0.61673 0.84775 0.0
C341 C 0.88382 0.60246 0.82307 0.0
C342 C 0.92757 0.59095 0.85797 0.0
C343 C 0.92402 0.55021 0.84384 0.0
C344 C 0.90379 0.53821 0.81829 0.0
C345 C 0.88384 0.56415 0.80798 0.0
C346 C 0.92996 0.47252 0.89539 0.0
C347 C 0.95674 0.45367 0.88288 0.0
C348 C 0.91995 0.50407 0.88266 0.0
C349 C 0.9362 0.51742 0.85703 0.0
C350 C 0.9622 0.49794 0.84419 0.0
C351 C 0.97256 0.4664 0.85706 0.0
H352 H 0.44791 0.89215 0.14397 0.0
H353 H 0.33718 0.92996 0.13713 0.0
H354 H 0.50826 0.97807 0.15081 0.0
H355 H 0.39554 1.01435 0.14564 0.0
H356 H 0.49042 0.16018 0.17092 0.0
H357 H 0.45862 0.08938 0.1407 0.0
H358 H 0.53054 1.03218 0.18591 0.0
H359 H 0.56732 0.10569 0.21377 0.0
C360 C 0.43674 0.91901 0.14349 0.0
C361 C 0.38797 0.90454 0.14026 0.0
C362 C 0.47114 0.96824 0.14763 0.0
C363 C 0.45706 1.00369 0.1495 0.0
C364 C 0.40859 0.98896 0.14408 0.0
C365 C 0.37464 0.94012 0.13931 0.0
C366 C 0.50117 0.13354 0.17381 0.0
C367 C 0.52981 0.13784 0.19564 0.0
C368 C 0.48211 0.09223 0.15664 0.0
C369 C 0.4897 1.05345 0.16149 0.0
C370 C 0.52295 1.0605 0.18146 0.0
C371 C 0.54335 0.10253 0.19801 0.0
H372 H 0.66141 0.3878 0.45406 0.0
H373 H 0.54329 0.39031 0.49419 0.0
H374 H 0.71182 0.47444 0.46381 0.0
H375 H 0.59474 0.47566 0.50609 0.0
H376 H 0.69018 0.62484 0.53291 0.0
H377 H 0.64244 0.55766 0.50094 0.0
H378 H 0.75145 0.51582 0.50255 0.0
H379 H 0.79982 0.58469 0.53292 0.0
C380 C 0.64572 0.40692 0.46444 0.0
C381 C 0.59858 0.3817 0.474 0.0
C382 C 0.675 0.45667 0.47042 0.0
C383 C 0.65815 0.48206 0.48655 0.0
C384 C 0.60943 0.45775 0.49369 0.0
C385 C 0.57991 0.4083 0.48724 0.0
C386 C 0.70433 0.60203 0.52555 0.0
C387 C 0.74825 0.60934 0.53531 0.0
C388 C 0.67692 0.5633 0.50747 0.0
C389 C 0.69232 0.53035 0.49951 0.0
C390 C 0.7383 0.54038 0.50783 0.0
C391 C 0.76612 0.57975 0.52542 0.0
H392 H 0.28847 0.54507 0.86397 0.0
H393 H 0.26617 0.46494 0.78921 0.0
H394 H 0.20194 0.50589 0.86949 0.0
H395 H 0.18008 0.42265 0.79577 0.0
H396 H 1.02347 0.34632 0.81221 0.0
H397 H 0.10334 0.41184 0.80088 0.0
H398 H 0.14921 0.42788 0.88235 0.0
H399 H 1.06968 0.36448 0.89344 0.0
C400 C 0.26519 0.51997 0.84839 0.0
C401 C 0.28436 0.50703 0.82653 0.0
C402 C 0.21543 0.49679 0.85177 0.0
C403 C 0.18386 0.45956 0.83363 0.0
C404 C 0.20294 0.45073 0.81034 0.0
C405 C 0.25258 0.4746 0.80672 0.0
C406 C 1.05072 0.36462 0.82761 0.0
C407 C 1.04043 0.35076 0.85367 0.0
C408 C 0.09645 0.40204 0.82119 0.0
C409 C 0.13303 0.42553 0.84067 0.0
C410 C 0.12196 0.41193 0.86686 0.0
C411 C 1.07624 0.37516 0.87327 0.0
H412 H 0.86349 0.42914 0.14088 0.0
H413 H 0.83356 0.29413 0.17236 0.0
H414 H 0.781 0.41014 0.14939 0.0
H415 H 0.75039 0.27432 0.18073 0.0
H416 H 0.64978 0.31107 0.23209 0.0
H417 H 0.72163 0.31427 0.21431 0.0
H418 H 0.69334 0.35437 0.13955 0.0
H419 H 0.61997 0.34987 0.15733 0.0
C420 C 0.83862 0.39485 0.14906 0.0
C421 C 0.85447 0.36324 0.15622 0.0
C422 C 0.79144 0.38377 0.15377 0.0
C423 C 0.75943 0.34093 0.16593 0.0
C424 C 0.77456 0.30782 0.17157 0.0
C425 C 0.82181 0.31885 0.16664 0.0
C426 C 0.6578 0.31898 0.21161 0.0
C427 C 0.62848 0.3289 0.19582 0.0
C428 C 0.69916 0.32093 0.20143 0.0
C429 C 0.71269 0.33382 0.17542 0.0
C430 C 0.68358 0.34408 0.15964 0.0
C431 C 0.6418 0.34163 0.16979 0.0
H432 H 0.14405 0.50987 0.09115 0.0
H433 H 1.08696 0.6007 0.06977 0.0
H434 H 0.10467 0.4558 0.05217 0.0
H435 H 1.04859 0.5476 0.03069 0.0
H436 H 0.94737 0.42424 0.97747 0.0
H437 H 0.98219 0.46548 0.02009 0.0
H438 H 0.10945 0.45589 0.00341 0.0
H439 H 1.0739 0.4137 0.96082 0.0
C440 C 0.12321 0.51828 0.07803 0.0
C441 C 0.11818 0.55917 0.08345 0.0
C442 C 0.10084 0.48748 0.05573 0.0
C443 C 1.07303 0.49709 0.03856 0.0
C444 C 1.06888 0.53859 0.04386 0.0
C445 C 1.09124 0.56931 0.06606 0.0
C446 C 0.9823 0.42998 0.98325 0.0
C447 C 1.00818 0.41618 0.96593 0.0
C448 C 1.00242 0.45394 0.00749 0.0
C449 C 1.04898 0.46487 0.01483 0.0
C450 C 1.07347 0.44791 -0.0017 0.0
C451 C 1.05315 0.42366 0.974 0.0
H452 H 0.61276 0.18848 0.42971 0.0
H453 H 0.56446 1.04372 0.39632 0.0
H454 H 0.59587 0.2116 0.38813 0.0
H455 H 0.54948 0.06743 0.35397 0.0
H456 H 0.48737 0.1131 0.28861 0.0
H457 H 0.49762 0.08936 0.33189 0.0
H458 H 0.6278 0.22809 0.345 0.0
H459 H 0.61685 0.25193 0.302 0.0
C460 C 0.5984 0.16154 0.41341 0.0
C461 C 0.58957 0.11421 0.41623 0.0
C462 C 0.58919 0.17495 0.38947 0.0
C463 C 0.57149 0.14149 0.36763 0.0
C464 C 0.56249 0.09393 0.3705 0.0
C465 C 0.57139 0.08039 0.39463 0.0
C466 C 0.51795 0.13855 0.3009 0.0
C467 C 0.55133 0.18436 0.292 0.0
C468 C 0.524 0.12488 0.32558 0.0
C469 C 0.56368 0.15666 0.34186 0.0
C470 C 0.59643 0.20294 0.33315 0.0
C471 C 0.5902 0.2167 0.30853 0.0
H472 H 0.56964 0.53043 0.73472 0.0
H473 H 0.66983 0.67801 0.76217 0.0
H474 H 0.61063 0.54546 0.6922 0.0
H475 H 0.71161 0.69217 0.72035 0.0
H476 H 0.80374 0.66656 0.65614 0.0
H477 H 0.7594 0.65041 0.69717 0.0
H478 H 0.62883 0.60945 0.65369 0.0
H479 H 0.6732 0.62818 0.61268 0.0
C480 C 0.60028 0.56595 0.73164 0.0
C481 C 0.61714 0.60282 0.75178 0.0
C482 C 0.62365 0.57448 0.70744 0.0
C483 C 0.66451 0.61973 0.70333 0.0
C484 C 0.68062 0.65679 0.72329 0.0
C485 C 0.65676 0.6486 0.74717 0.0
C486 C 0.76578 0.65485 0.65524 0.0
C487 C 0.74223 0.64882 0.63097 0.0
C488 C 0.7404 0.64524 0.67872 0.0
C489 C 0.69084 0.62855 0.6784 0.0
C490 C 0.66698 0.62176 0.6543 0.0
C491 C 0.69248 0.63228 0.63084 0.0
H492 H 0.52737 0.08538 0.56882 0.0
H493 H 0.68198 0.15527 0.56995 0.0
H494 H 0.52724 0.08441 0.6171 0.0
H495 H 0.68223 0.15401 0.61818 0.0
H496 H 0.66083 0.10912 0.70469 0.0
H497 H 0.65873 0.10132 0.65646 0.0
H498 H 0.55215 0.1457 0.65475 0.0
H499 H 0.5541 0.15326 0.70294 0.0
C500 C 0.56125 0.0993 0.57939 0.0
C501 C 0.60462 0.11943 0.56557 0.0
C502 C 0.56131 0.09938 0.60711 0.0
C503 C 0.60476 0.11933 0.62177 0.0
C504 C 0.64803 0.13789 0.60771 0.0
C505 C 0.64795 0.13847 0.58003 0.0
C506 C 0.6367 0.11694 0.69406 0.0
C507 C 0.6077 0.13193 0.70791 0.0
C508 C 0.63573 0.11277 0.66632 0.0
C509 C 0.60519 0.12273 0.65149 0.0
C510 C 0.57578 0.13718 0.66536 0.0
C511 C 0.57725 0.14201 0.69308 0.0
H512 H 0.66318 0.69639 0.91208 0.0
H513 H 0.5882 0.54084 0.898 0.0
H514 H 0.65543 0.68696 0.95946 0.0
H515 H 0.58039 0.53115 0.94585 0.0
H516 H 0.62751 0.53973 0.03427 0.0
H517 H 0.63096 0.54566 0.98629 0.0
H518 H 0.59597 0.65983 -0.00575 0.0
H519 H 0.59311 0.6543 0.04202 0.0
C520 C 0.64465 0.66002 0.91912 0.0
C521 C 0.62627 0.6194 0.90113 0.0
C522 C 0.64004 0.65459 0.9464 0.0
C523 C 0.61727 0.60827 0.95675 0.0
C524 C 0.59853 0.56743 0.93872 0.0
C525 C 0.60264 0.57291 0.91126 0.0
C526 C 0.62082 0.5663 0.02579 0.0
C527 C 0.61012 0.59659 0.04222 0.0
C528 C 0.62227 0.56933 -0.00181 0.0
C529 C 0.61373 0.60323 0.98616 0.0
C530 C 0.60315 0.63353 0.00264 0.0
C531 C 0.60117 0.63012 0.03014 0.0
H532 H 0.19044 0.56491 0.24275 0.0
H533 H 0.10147 0.62784 0.22951 0.0
H534 H 0.19003 0.58149 0.29005 0.0
H535 H 0.1009 0.64463 0.27736 0.0
H536 H 1.06695 0.61075 0.36693 0.0
H537 H 1.0687 0.60047 0.31884 0.0
H538 H 0.21996 0.64739 0.32387 0.0
H539 H 0.21805 0.65689 0.37172 0.0
C540 C 0.1711 0.58281 0.24995 0.0
C541 C 0.14612 0.59512 0.23223 0.0
C542 C 0.171 0.59251 0.27719 0.0
C543 C 0.14544 0.61448 0.2878 0.0
C544 C 0.12069 0.62732 0.27003 0.0
C545 C 0.12134 0.61811 0.24256 0.0
C546 C 0.10057 0.61874 0.35779 0.0
C547 C 0.14234 0.63462 0.37345 0.0
C548 C 0.10169 0.61333 0.33011 0.0
C549 C 0.14447 0.62301 0.31723 0.0
C550 C 0.1862 0.63912 0.33292 0.0
C551 C 0.1852 0.64498 0.36048 0.0
loop_
_geom_bond_atom_site_label_1
_geom_bond_atom_site_label_2
_geom_bond_distance
_geom_bond_site_symmetry_2
_ccdc_geom_bond_type
Tb0 C2 2.809 . S
Tb0 O20 2.484 . S
Tb0 O21 2.440 . S
Tb0 O22 2.658 . S
Tb0 O23 2.409 . S
Tb0 O24 2.378 . S
Tb0 O28 2.325 . S
Tb0 O31 2.341 1_455 S
Tb1 C11 2.809 1_455 S
Tb1 O22 2.325 . S
Tb1 O25 2.341 . S
Tb1 O26 2.484 1_455 S
Tb1 O27 2.440 1_455 S
Tb1 O28 2.658 . S
Tb1 O29 2.409 . S
Tb1 O30 2.378 1_455 S
C2 Tb0 2.809 . S
C2 C3 1.514 . S
C2 O20 1.248 . S
C2 O21 1.266 . S
C3 C2 1.514 . S
C3 C4 1.359 . S
C3 C8 1.348 . S
C4 C3 1.359 . S
C4 C5 1.380 . S
C4 H32 0.929 . S
C5 C4 1.380 . S
C5 C6 1.347 . S
C5 H33 0.931 . S
C6 C5 1.347 . S
C6 C7 1.369 . S
C7 C6 1.369 . S
C7 C8 1.408 . S
C7 H34 0.930 . S
C8 C3 1.348 . S
C8 C7 1.408 . S
C8 H35 0.930 . S
C9 O22 1.281 . S
C9 O23 1.254 . S
C10 O24 1.236 . S
C10 O25 1.266 . S
C11 Tb1 2.809 1_655 S
C11 C12 1.514 . S
C11 O26 1.248 . S
C11 O27 1.266 . S
C12 C11 1.514 . S
C12 C13 1.359 . S
C12 C17 1.348 . S
C13 C12 1.359 . S
C13 C14 1.380 . S
C13 H36 0.929 . S
C14 C13 1.380 . S
C14 C15 1.347 . S
C14 H37 0.931 . S
C15 C14 1.347 . S
C15 C16 1.369 . S
C16 C15 1.369 . S
C16 C17 1.408 . S
C16 H38 0.930 . S
C17 C12 1.348 . S
C17 C16 1.408 . S
C17 H39 0.930 . S
C18 O28 1.281 . S
C18 O29 1.254 . S
C19 O30 1.236 . S
C19 O31 1.266 . S
O20 Tb0 2.484 . S
O20 C2 1.248 . S
O21 Tb0 2.440 . S
O21 C2 1.266 . S
O22 Tb0 2.658 . S
O22 Tb1 2.325 . S
O22 C9 1.281 . S
O23 Tb0 2.409 . S
O23 C9 1.254 . S
O24 Tb0 2.378 . S
O24 C10 1.236 . S
O25 Tb1 2.341 . S
O25 C10 1.266 . S
O26 Tb1 2.484 1_655 S
O26 C11 1.248 . S
O27 Tb1 2.440 1_655 S
O27 C11 1.266 . S
O28 Tb0 2.325 . S
O28 Tb1 2.658 . S
O28 C18 1.281 . S
O29 Tb1 2.409 . S
O29 C18 1.254 . S
O30 Tb1 2.378 1_655 S
O30 C19 1.236 . S
O31 Tb0 2.341 1_655 S
O31 C19 1.266 . S
H32 C4 0.929 . S
H33 C5 0.931 . S
H34 C7 0.930 . S
H35 C8 0.930 . S
H36 C13 0.929 . S
H37 C14 0.931 . S
H38 C16 0.930 . S
H39 C17 0.930 . S
Tb40 C42 2.809 1_545 S
Tb40 O60 2.484 1_545 S
Tb40 O61 2.440 1_545 S
Tb40 O62 2.658 . S
Tb40 O63 2.409 . S
Tb40 O64 2.378 1_545 S
Tb40 O68 2.325 . S
Tb40 O71 2.341 . S
Tb41 C51 2.809 . S
Tb41 O62 2.325 . S
Tb41 O65 2.341 1_545 S
Tb41 O66 2.484 . S
Tb41 O67 2.440 . S
Tb41 O68 2.658 . S
Tb41 O69 2.409 . S
Tb41 O70 2.378 . S
C42 Tb40 2.809 1_565 S
C42 C43 1.514 . S
C42 O60 1.248 . S
C42 O61 1.266 . S
C43 C42 1.514 . S
C43 C44 1.359 . S
C43 C48 1.348 . S
C44 C43 1.359 . S
C44 C45 1.380 . S
C44 H72 0.929 . S
C45 C44 1.380 . S
C45 C46 1.347 . S
C45 H73 0.931 . S
C46 C45 1.347 . S
C46 C47 1.369 . S
C47 C46 1.369 . S
C47 C48 1.408 . S
C47 H74 0.930 . S
C48 C43 1.348 . S
C48 C47 1.408 . S
C48 H75 0.930 . S
C49 O62 1.281 . S
C49 O63 1.254 . S
C50 O64 1.236 . S
C50 O65 1.266 . S
C51 Tb41 2.809 . S
C51 C52 1.514 . S
C51 O66 1.248 . S
C51 O67 1.266 . S
C52 C51 1.514 . S
C52 C53 1.359 . S
C52 C57 1.348 . S
C53 C52 1.359 . S
C53 C54 1.380 . S
C53 H76 0.929 . S
C54 C53 1.380 . S
C54 C55 1.347 . S
C54 H77 0.931 . S
C55 C54 1.347 . S
C55 C56 1.369 . S
C56 C55 1.369 . S
C56 C57 1.408 . S
C56 H78 0.930 . S
C57 C52 1.348 . S
C57 C56 1.408 . S
C57 H79 0.930 . S
C58 O68 1.281 . S
C58 O69 1.254 . S
C59 O70 1.236 . S
C59 O71 1.266 . S
O60 Tb40 2.484 1_565 S
O60 C42 1.248 . S
O61 Tb40 2.440 1_565 S
O61 C42 1.266 . S
O62 Tb40 2.658 . S
O62 Tb41 2.325 . S
O62 C49 1.281 . S
O63 Tb40 2.409 . S
O63 C49 1.254 . S
O64 Tb40 2.378 1_565 S
O64 C50 1.236 . S
O65 Tb41 2.341 1_565 S
O65 C50 1.266 . S
O66 Tb41 2.484 . S
O66 C51 1.248 . S
O67 Tb41 2.440 . S
O67 C51 1.266 . S
O68 Tb40 2.325 . S
O68 Tb41 2.658 . S
O68 C58 1.281 . S
O69 Tb41 2.409 . S
O69 C58 1.254 . S
O70 Tb41 2.378 . S
O70 C59 1.236 . S
O71 Tb40 2.341 . S
O71 C59 1.266 . S
H72 C44 0.929 . S
H73 C45 0.931 . S
H74 C47 0.930 . S
H75 C48 0.930 . S
H76 C53 0.929 . S
H77 C54 0.931 . S
H78 C56 0.930 . S
H79 C57 0.930 . S
Tb80 C82 2.809 . S
Tb80 O100 2.484 . S
Tb80 O101 2.440 . S
Tb80 O102 2.658 . S
Tb80 O103 2.409 . S
Tb80 O104 2.378 . S
Tb80 O108 2.325 . S
Tb80 O111 2.341 . S
Tb81 C91 2.809 . S
Tb81 O102 2.325 . S
Tb81 O105 2.341 . S
Tb81 O106 2.484 . S
Tb81 O107 2.440 . S
Tb81 O108 2.658 . S
Tb81 O109 2.409 . S
Tb81 O110 2.378 . S
C82 Tb80 2.809 . S
C82 C83 1.514 . S
C82 O100 1.248 . S
C82 O101 1.266 . S
C83 C82 1.514 . S
C83 C84 1.359 . S
C83 C88 1.348 . S
C84 C83 1.359 . S
C84 C85 1.380 . S
C84 H112 0.929 . S
C85 C84 1.380 . S
C85 C86 1.347 . S
C85 H113 0.931 . S
C86 C85 1.347 . S
C86 C87 1.369 . S
C87 C86 1.369 . S
C87 C88 1.408 . S
C87 H114 0.930 . S
C88 C83 1.348 . S
C88 C87 1.408 . S
C88 H115 0.930 . S
C89 O102 1.281 . S
C89 O103 1.254 . S
C90 O104 1.236 . S
C90 O105 1.266 . S
C91 Tb81 2.809 . S
C91 C92 1.514 . S
C91 O106 1.248 . S
C91 O107 1.266 . S
C92 C91 1.514 . S
C92 C93 1.359 . S
C92 C97 1.348 . S
C93 C92 1.359 . S
C93 C94 1.380 . S
C93 H116 0.929 . S
C94 C93 1.380 . S
C94 C95 1.347 . S
C94 H117 0.931 . S
C95 C94 1.347 . S
C95 C96 1.369 . S
C96 C95 1.369 . S
C96 C97 1.408 . S
C96 H118 0.930 . S
C97 C92 1.348 . S
C97 C96 1.408 . S
C97 H119 0.930 . S
C98 O108 1.281 . S
C98 O109 1.254 . S
C99 O110 1.236 . S
C99 O111 1.266 . S
O100 Tb80 2.484 . S
O100 C82 1.248 . S
O101 Tb80 2.440 . S
O101 C82 1.266 . S
O102 Tb80 2.658 . S
O102 Tb81 2.325 . S
O102 C89 1.281 . S
O103 Tb80 2.409 . S
O103 C89 1.254 . S
O104 Tb80 2.378 . S
O104 C90 1.236 . S
O105 Tb81 2.341 . S
O105 C90 1.266 . S
O106 Tb81 2.484 . S
O106 C91 1.248 . S
O107 Tb81 2.440 . S
O107 C91 1.266 . S
O108 Tb80 2.325 . S
O108 Tb81 2.658 . S
O108 C98 1.281 . S
O109 Tb81 2.409 . S
O109 C98 1.254 . S
O110 Tb81 2.378 . S
O110 C99 1.236 . S
O111 Tb80 2.341 . S
O111 C99 1.266 . S
H112 C84 0.929 . S
H113 C85 0.931 . S
H114 C87 0.930 . S
H115 C88 0.930 . S
H116 C93 0.929 . S
H117 C94 0.931 . S
H118 C96 0.930 . S
H119 C97 0.930 . S
H120 C125 0.930 . S
H121 C128 0.930 . S
H122 C130 0.930 . S
H123 C124 1.016 . S
C124 H123 1.016 . S
C124 N131 1.286 . S
C125 H120 0.930 . S
C125 C126 1.397 . S
C125 C127 1.361 . S
C126 C125 1.397 . S
C126 C130 1.390 . S
C127 C125 1.361 . S
C127 C128 1.393 . S
C127 N131 1.413 . S
C128 H121 0.930 . S
C128 C127 1.393 . S
C128 C129 1.399 . S
C129 C128 1.399 . S
C129 C130 1.381 . S
C130 H122 0.930 . S
C130 C126 1.390 . S
C130 C129 1.381 . S
N131 C124 1.286 . S
N131 C127 1.413 . S
H132 C137 0.930 . S
H133 C140 0.930 . S
H134 C142 0.930 . S
H135 C136 1.016 . S
C136 H135 1.016 . S
C136 N143 1.286 . S
C137 H132 0.930 . S
C137 C138 1.397 . S
C137 C139 1.361 . S
C138 C137 1.397 . S
C138 C142 1.390 . S
C139 C137 1.361 . S
C139 C140 1.393 . S
C139 N143 1.413 . S
C140 H133 0.930 . S
C140 C139 1.393 . S
C140 C141 1.399 . S
C141 C140 1.399 . S
C141 C142 1.381 . S
C142 H134 0.930 . S
C142 C138 1.390 . S
C142 C141 1.381 . S
N143 C136 1.286 . S
N143 C139 1.413 . S
H144 C149 0.930 . S
H145 C152 0.930 . S
H146 C154 0.930 . S
H147 C148 1.016 . S
C148 H147 1.016 . S
C148 N155 1.286 . S
C149 H144 0.930 . S
C149 C150 1.397 . S
C149 C151 1.361 1_655 S
C150 C149 1.397 . S
C150 C154 1.390 . S
C151 C149 1.361 1_455 S
C151 C152 1.393 . S
C151 N155 1.413 . S
C152 H145 0.930 . S
C152 C151 1.393 . S
C152 C153 1.399 . S
C153 C152 1.399 . S
C153 C154 1.381 1_455 S
C154 H146 0.930 . S
C154 C150 1.390 . S
C154 C153 1.381 1_655 S
N155 C148 1.286 . S
N155 C151 1.413 . S
H156 C161 0.930 . S
H157 C164 0.930 1_655 S
H158 C166 0.930 . S
H159 C160 1.016 . S
C160 H159 1.016 . S
C160 N167 1.286 . S
C161 H156 0.930 . S
C161 C162 1.397 . S
C161 C163 1.361 . S
C162 C161 1.397 . S
C162 C166 1.390 . S
C163 C161 1.361 . S
C163 C164 1.393 . S
C163 N167 1.413 1_455 S
C164 H157 0.930 1_455 S
C164 C163 1.393 . S
C164 C165 1.399 . S
C165 C164 1.399 . S
C165 C166 1.381 . S
C166 H158 0.930 . S
C166 C162 1.390 . S
C166 C165 1.381 . S
N167 C160 1.286 . S
N167 C163 1.413 1_655 S
H168 C173 0.930 . S
H169 C176 0.930 . S
H170 C178 0.930 . S
H171 C172 1.016 . S
C172 H171 1.016 . S
C172 N179 1.286 . S
C173 H168 0.930 . S
C173 C174 1.397 . S
C173 C175 1.349 1_545 S
C174 C173 1.397 . S
C174 C178 1.390 . S
C175 C173 1.349 1_565 S
C175 C176 1.394 . S
C175 N179 1.424 . S
C176 H169 0.930 . S
C176 C175 1.394 . S
C176 C177 1.399 1_565 S
C177 C176 1.399 1_545 S
C177 C178 1.381 . S
C178 H170 0.930 . S
C178 C174 1.390 . S
C178 C177 1.381 . S
N179 C172 1.286 . S
N179 C175 1.424 . S
H180 C185 0.930 . S
H181 C188 0.930 . S
H182 C190 0.930 . S
H183 C184 1.016 . S
C184 H183 1.016 . S
C184 N191 1.286 . S
C185 H180 0.930 . S
C185 C186 1.397 . S
C185 C187 1.361 . S
C186 C185 1.397 . S
C186 C190 1.390 . S
C187 C185 1.361 . S
C187 C188 1.393 . S
C187 N191 1.413 . S
C188 H181 0.930 . S
C188 C187 1.393 . S
C188 C189 1.399 . S
C189 C188 1.399 . S
C189 C190 1.381 . S
C190 H182 0.930 . S
C190 C186 1.390 . S
C190 C189 1.381 . S
N191 C184 1.286 . S
N191 C187 1.413 . S
H192 C200 0.950 . S
H193 C205 0.950 . S
H194 C202 0.950 . S
H195 C204 0.950 . S
H196 C206 0.950 . S
H197 C208 0.950 . S
H198 C210 0.950 . S
H199 C211 0.950 . S
C200 H192 0.950 . S
C200 C201 1.386 . S
C200 C202 1.391 . S
C201 C200 1.386 . S
C201 C205 1.393 . S
C202 H194 0.950 . S
C202 C200 1.391 . S
C202 C203 1.400 . S
C203 C202 1.400 . S
C203 C204 1.398 . S
C203 C209 1.491 . S
C204 H195 0.950 . S
C204 C203 1.398 . S
C204 C205 1.391 . S
C205 H193 0.950 . S
C205 C201 1.393 . S
C205 C204 1.391 . S
C206 H196 0.950 . S
C206 C207 1.386 . S
C206 C208 1.391 . S
C207 C206 1.386 . S
C207 C211 1.393 . S
C208 H197 0.950 . S
C208 C206 1.391 . S
C208 C209 1.400 . S
C209 C203 1.491 . S
C209 C208 1.400 . S
C209 C210 1.398 . S
C210 H198 0.950 . S
C210 C209 1.398 . S
C210 C211 1.391 . S
C211 H199 0.950 . S
C211 C207 1.393 . S
C211 C210 1.391 . S
H212 C220 0.950 . S
H213 C225 0.950 . S
H214 C222 0.950 . S
H215 C224 0.950 . S
H216 C226 0.950 . S
H217 C228 0.950 . S
H218 C230 0.950 . S
H219 C231 0.950 . S
C220 H212 0.950 . S
C220 C221 1.386 . S
C220 C222 1.391 . S
C221 C220 1.386 . S
C221 C225 1.393 . S
C222 H214 0.950 . S
C222 C220 1.391 . S
C222 C223 1.400 . S
C223 C222 1.400 . S
C223 C224 1.398 . S
C223 C229 1.491 . S
C224 H215 0.950 . S
C224 C223 1.398 . S
C224 C225 1.391 . S
C225 H213 0.950 . S
C225 C221 1.393 . S
C225 C224 1.391 . S
C226 H216 0.950 . S
C226 C227 1.386 . S
C226 C228 1.391 . S
C227 C226 1.386 . S
C227 C231 1.393 . S
C228 H217 0.950 . S
C228 C226 1.391 . S
C228 C229 1.400 . S
C229 C223 1.491 . S
C229 C228 1.400 . S
C229 C230 1.398 . S
C230 H218 0.950 . S
C230 C229 1.398 . S
C230 C231 1.391 . S
C231 H219 0.950 . S
C231 C227 1.393 . S
C231 C230 1.391 . S
H232 C240 0.950 . S
H233 C245 0.950 . S
H234 C242 0.950 . S
H235 C244 0.950 . S
H236 C246 0.950 . S
H237 C248 0.950 . S
H238 C250 0.950 . S
H239 C251 0.950 . S
C240 H232 0.950 . S
C240 C241 1.386 . S
C240 C242 1.391 . S
C241 C240 1.386 . S
C241 C245 1.393 . S
C242 H234 0.950 . S
C242 C240 1.391 . S
C242 C243 1.400 . S
C243 C242 1.400 . S
C243 C244 1.398 . S
C243 C249 1.491 . S
C244 H235 0.950 . S
C244 C243 1.398 . S
C244 C245 1.391 . S
C245 H233 0.950 . S
C245 C241 1.393 . S
C245 C244 1.391 . S
C246 H236 0.950 . S
C246 C247 1.386 . S
C246 C248 1.391 . S
C247 C246 1.386 . S
C247 C251 1.393 . S
C248 H237 0.950 . S
C248 C246 1.391 . S
C248 C249 1.400 . S
C249 C243 1.491 . S
C249 C248 1.400 . S
C249 C250 1.398 . S
C250 H238 0.950 . S
C250 C249 1.398 . S
C250 C251 1.391 . S
C251 H239 0.950 . S
C251 C247 1.393 . S
C251 C250 1.391 . S
H252 C260 0.950 . S
H253 C265 0.950 . S
H254 C262 0.950 . S
H255 C264 0.950 . S
H256 C266 0.950 . S
H257 C268 0.950 . S
H258 C270 0.950 . S
H259 C271 0.950 . S
C260 H252 0.950 . S
C260 C261 1.386 . S
C260 C262 1.391 . S
C261 C260 1.386 . S
C261 C265 1.393 . S
C262 H254 0.950 . S
C262 C260 1.391 . S
C262 C263 1.400 . S
C263 C262 1.400 . S
C263 C264 1.398 . S
C263 C269 1.491 . S
C264 H255 0.950 . S
C264 C263 1.398 . S
C264 C265 1.391 . S
C265 H253 0.950 . S
C265 C261 1.393 . S
C265 C264 1.391 . S
C266 H256 0.950 . S
C266 C267 1.386 . S
C266 C268 1.391 . S
C267 C266 1.386 . S
C267 C271 1.393 . S
C268 H257 0.950 . S
C268 C266 1.391 . S
C268 C269 1.400 . S
C269 C263 1.491 . S
C269 C268 1.400 . S
C269 C270 1.398 . S
C270 H258 0.950 . S
C270 C269 1.398 . S
C270 C271 1.391 . S
C271 H259 0.950 . S
C271 C267 1.393 . S
C271 C270 1.391 . S
H272 C280 0.950 . S
H273 C285 0.950 . S
H274 C282 0.950 . S
H275 C284 0.950 . S
H276 C286 0.950 . S
H277 C288 0.950 . S
H278 C290 0.950 . S
H279 C291 0.950 . S
C280 H272 0.950 . S
C280 C281 1.386 . S
C280 C282 1.391 . S
C281 C280 1.386 . S
C281 C285 1.393 . S
C282 H274 0.950 . S
C282 C280 1.391 . S
C282 C283 1.400 . S
C283 C282 1.400 . S
C283 C284 1.398 . S
C283 C289 1.491 . S
C284 H275 0.950 . S
C284 C283 1.398 . S
C284 C285 1.391 . S
C285 H273 0.950 . S
C285 C281 1.393 . S
C285 C284 1.391 . S
C286 H276 0.950 . S
C286 C287 1.386 . S
C286 C288 1.391 . S
C287 C286 1.386 . S
C287 C291 1.393 . S
C288 H277 0.950 . S
C288 C286 1.391 . S
C288 C289 1.400 . S
C289 C283 1.491 . S
C289 C288 1.400 . S
C289 C290 1.398 . S
C290 H278 0.950 . S
C290 C289 1.398 . S
C290 C291 1.391 . S
C291 H279 0.950 . S
C291 C287 1.393 . S
C291 C290 1.391 . S
H292 C300 0.950 . S
H293 C305 0.950 . S
H294 C302 0.950 . S
H295 C304 0.950 . S
H296 C306 0.950 . S
H297 C308 0.950 . S
H298 C310 0.950 . S
H299 C311 0.950 . S
C300 H292 0.950 . S
C300 C301 1.386 . S
C300 C302 1.391 . S
C301 C300 1.386 . S
C301 C305 1.393 . S
C302 H294 0.950 . S
C302 C300 1.391 . S
C302 C303 1.400 . S
C303 C302 1.400 . S
C303 C304 1.398 . S
C303 C309 1.491 . S
C304 H295 0.950 . S
C304 C303 1.398 . S
C304 C305 1.391 . S
C305 H293 0.950 . S
C305 C301 1.393 . S
C305 C304 1.391 . S
C306 H296 0.950 . S
C306 C307 1.386 . S
C306 C308 1.391 . S
C307 C306 1.386 . S
C307 C311 1.393 . S
C308 H297 0.950 . S
C308 C306 1.391 . S
C308 C309 1.400 . S
C309 C303 1.491 . S
C309 C308 1.400 . S
C309 C310 1.398 . S
C310 H298 0.950 . S
C310 C309 1.398 . S
C310 C311 1.391 . S
C311 H299 0.950 . S
C311 C307 1.393 . S
C311 C310 1.391 . S
H312 C320 0.950 . S
H313 C325 0.950 . S
H314 C322 0.950 . S
H315 C324 0.950 . S
H316 C326 0.950 . S
H317 C328 0.950 . S
H318 C330 0.950 . S
H319 C331 0.950 . S
C320 H312 0.950 . S
C320 C321 1.386 . S
C320 C322 1.391 . S
C321 C320 1.386 . S
C321 C325 1.393 . S
C322 H314 0.950 . S
C322 C320 1.391 . S
C322 C323 1.400 . S
C323 C322 1.400 . S
C323 C324 1.398 . S
C323 C329 1.491 . S
C324 H315 0.950 . S
C324 C323 1.398 . S
C324 C325 1.391 . S
C325 H313 0.950 . S
C325 C321 1.393 . S
C325 C324 1.391 . S
C326 H316 0.950 . S
C326 C327 1.386 . S
C326 C328 1.391 . S
C327 C326 1.386 . S
C327 C331 1.393 . S
C328 H317 0.950 . S
C328 C326 1.391 . S
C328 C329 1.400 . S
C329 C323 1.491 . S
C329 C328 1.400 . S
C329 C330 1.398 . S
C330 H318 0.950 . S
C330 C329 1.398 . S
C330 C331 1.391 . S
C331 H319 0.950 . S
C331 C327 1.393 . S
C331 C330 1.391 . S
H332 C340 0.950 . S
H333 C345 0.950 . S
H334 C342 0.950 . S
H335 C344 0.950 . S
H336 C346 0.950 . S
H337 C348 0.950 . S
H338 C350 0.950 . S
H339 C351 0.950 . S
C340 H332 0.950 . S
C340 C341 1.386 . S
C340 C342 1.391 . S
C341 C340 1.386 . S
C341 C345 1.393 . S
C342 H334 0.950 . S
C342 C340 1.391 . S
C342 C343 1.400 . S
C343 C342 1.400 . S
C343 C344 1.398 . S
C343 C349 1.491 . S
C344 H335 0.950 . S
C344 C343 1.398 . S
C344 C345 1.391 . S
C345 H333 0.950 . S
C345 C341 1.393 . S
C345 C344 1.391 . S
C346 H336 0.950 . S
C346 C347 1.386 . S
C346 C348 1.391 . S
C347 C346 1.386 . S
C347 C351 1.393 . S
C348 H337 0.950 . S
C348 C346 1.391 . S
C348 C349 1.400 . S
C349 C343 1.491 . S
C349 C348 1.400 . S
C349 C350 1.398 . S
C350 H338 0.950 . S
C350 C349 1.398 . S
C350 C351 1.391 . S
C351 H339 0.950 . S
C351 C347 1.393 . S
C351 C350 1.391 . S
H352 C360 0.950 . S
H353 C365 0.950 . S
H354 C362 0.950 . S
H355 C364 0.950 . S
H356 C366 0.950 . S
H357 C368 0.950 . S
H358 C370 0.950 . S
H359 C371 0.950 . S
C360 H352 0.950 . S
C360 C361 1.386 . S
C360 C362 1.391 . S
C361 C360 1.386 . S
C361 C365 1.393 . S
C362 H354 0.950 . S
C362 C360 1.391 . S
C362 C363 1.400 . S
C363 C362 1.400 . S
C363 C364 1.398 . S
C363 C369 1.491 . S
C364 H355 0.950 . S
C364 C363 1.398 . S
C364 C365 1.391 . S
C365 H353 0.950 . S
C365 C361 1.393 . S
C365 C364 1.391 . S
C366 H356 0.950 . S
C366 C367 1.386 . S
C366 C368 1.391 1_545 S
C367 C366 1.386 . S
C367 C371 1.393 1_545 S
C368 H357 0.950 . S
C368 C366 1.391 1_565 S
C368 C369 1.400 . S
C369 C363 1.491 . S
C369 C368 1.400 . S
C369 C370 1.398 . S
C370 H358 0.950 . S
C370 C369 1.398 . S
C370 C371 1.391 . S
C371 H359 0.950 . S
C371 C367 1.393 1_565 S
C371 C370 1.391 . S
H372 C380 0.950 . S
H373 C385 0.950 . S
H374 C382 0.950 . S
H375 C384 0.950 . S
H376 C386 0.950 . S
H377 C388 0.950 . S
H378 C390 0.950 . S
H379 C391 0.950 . S
C380 H372 0.950 . S
C380 C381 1.386 . S
C380 C382 1.391 . S
C381 C380 1.386 . S
C381 C385 1.393 . S
C382 H374 0.950 . S
C382 C380 1.391 . S
C382 C383 1.400 . S
C383 C382 1.400 . S
C383 C384 1.398 . S
C383 C389 1.491 . S
C384 H375 0.950 . S
C384 C383 1.398 . S
C384 C385 1.391 . S
C385 H373 0.950 . S
C385 C381 1.393 . S
C385 C384 1.391 . S
C386 H376 0.950 . S
C386 C387 1.386 . S
C386 C388 1.391 . S
C387 C386 1.386 . S
C387 C391 1.393 . S
C388 H377 0.950 . S
C388 C386 1.391 . S
C388 C389 1.400 . S
C389 C383 1.491 . S
C389 C388 1.400 . S
C389 C390 1.398 . S
C390 H378 0.950 . S
C390 C389 1.398 . S
C390 C391 1.391 . S
C391 H379 0.950 . S
C391 C387 1.393 . S
C391 C390 1.391 . S
H392 C400 0.950 . S
H393 C405 0.950 . S
H394 C402 0.950 . S
H395 C404 0.950 . S
H396 C406 0.950 . S
H397 C408 0.950 . S
H398 C410 0.950 . S
H399 C411 0.950 . S
C400 H392 0.950 . S
C400 C401 1.386 . S
C400 C402 1.391 . S
C401 C400 1.386 . S
C401 C405 1.393 . S
C402 H394 0.950 . S
C402 C400 1.391 . S
C402 C403 1.400 . S
C403 C402 1.400 . S
C403 C404 1.398 . S
C403 C409 1.491 . S
C404 H395 0.950 . S
C404 C403 1.398 . S
C404 C405 1.391 . S
C405 H393 0.950 . S
C405 C401 1.393 . S
C405 C404 1.391 . S
C406 H396 0.950 . S
C406 C407 1.386 . S
C406 C408 1.391 . S
C407 C406 1.386 . S
C407 C411 1.393 . S
C408 H397 0.950 . S
C408 C406 1.391 . S
C408 C409 1.400 . S
C409 C403 1.491 . S
C409 C408 1.400 . S
C409 C410 1.398 . S
C410 H398 0.950 . S
C410 C409 1.398 . S
C410 C411 1.391 . S
C411 H399 0.950 . S
C411 C407 1.393 . S
C411 C410 1.391 . S
H412 C420 0.950 . S
H413 C425 0.950 . S
H414 C422 0.950 . S
H415 C424 0.950 . S
H416 C426 0.950 . S
H417 C428 0.950 . S
H418 C430 0.950 . S
H419 C431 0.950 . S
C420 H412 0.950 . S
C420 C421 1.386 . S
C420 C422 1.391 . S
C421 C420 1.386 . S
C421 C425 1.393 . S
C422 H414 0.950 . S
C422 C420 1.391 . S
C422 C423 1.400 . S
C423 C422 1.400 . S
C423 C424 1.398 . S
C423 C429 1.491 . S
C424 H415 0.950 . S
C424 C423 1.398 . S
C424 C425 1.391 . S
C425 H413 0.950 . S
C425 C421 1.393 . S
C425 C424 1.391 . S
C426 H416 0.950 . S
C426 C427 1.386 . S
C426 C428 1.391 . S
C427 C426 1.386 . S
C427 C431 1.393 . S
C428 H417 0.950 . S
C428 C426 1.391 . S
C428 C429 1.400 . S
C429 C423 1.491 . S
C429 C428 1.400 . S
C429 C430 1.398 . S
C430 H418 0.950 . S
C430 C429 1.398 . S
C430 C431 1.391 . S
C431 H419 0.950 . S
C431 C427 1.393 . S
C431 C430 1.391 . S
H432 C440 0.950 . S
H433 C445 0.950 . S
H434 C442 0.950 . S
H435 C444 0.950 . S
H436 C446 0.950 . S
H437 C448 0.950 1_554 S
H438 C450 0.933 1_554 S
H439 C451 0.950 . S
C440 H432 0.950 . S
C440 C441 1.386 . S
C440 C442 1.391 . S
C441 C440 1.386 . S
C441 C445 1.393 1_455 S
C442 H434 0.950 . S
C442 C440 1.391 . S
C442 C443 1.400 . S
C443 C442 1.400 . S
C443 C444 1.398 1_455 S
C443 C449 1.491 . S
C444 H435 0.950 . S
C444 C443 1.398 1_655 S
C444 C445 1.391 . S
C445 H433 0.950 . S
C445 C441 1.393 1_655 S
C445 C444 1.391 . S
C446 H436 0.950 . S
C446 C447 1.386 1_655 S
C446 C448 1.391 . S
C447 C446 1.386 1_455 S
C447 C451 1.393 . S
C448 H437 0.950 1_556 S
C448 C446 1.391 . S
C448 C449 1.400 1_656 S
C449 C443 1.491 . S
C449 C448 1.400 1_454 S
C449 C450 1.398 1_554 S
C450 H438 0.933 1_556 S
C450 C449 1.398 1_556 S
C450 C451 1.391 . S
C451 H439 0.950 . S
C451 C447 1.393 . S
C451 C450 1.391 . S
H452 C460 0.950 . S
H453 C465 0.950 . S
H454 C462 0.950 . S
H455 C464 0.950 . S
H456 C466 0.950 . S
H457 C468 0.950 . S
H458 C470 0.950 . S
H459 C471 0.950 . S
C460 H452 0.950 . S
C460 C461 1.386 . S
C460 C462 1.391 . S
C461 C460 1.386 . S
C461 C465 1.393 . S
C462 H454 0.950 . S
C462 C460 1.391 . S
C462 C463 1.400 . S
C463 C462 1.400 . S
C463 C464 1.398 . S
C463 C469 1.491 . S
C464 H455 0.950 . S
C464 C463 1.398 . S
C464 C465 1.391 . S
C465 H453 0.950 . S
C465 C461 1.393 . S
C465 C464 1.391 . S
C466 H456 0.950 . S
C466 C467 1.386 . S
C466 C468 1.391 . S
C467 C466 1.386 . S
C467 C471 1.393 . S
C468 H457 0.950 . S
C468 C466 1.391 . S
C468 C469 1.400 . S
C469 C463 1.491 . S
C469 C468 1.400 . S
C469 C470 1.398 . S
C470 H458 0.950 . S
C470 C469 1.398 . S
C470 C471 1.391 . S
C471 H459 0.950 . S
C471 C467 1.393 . S
C471 C470 1.391 . S
H472 C480 0.950 . S
H473 C485 0.950 . S
H474 C482 0.950 . S
H475 C484 0.950 . S
H476 C486 0.950 . S
H477 C488 0.950 . S
H478 C490 0.950 . S
H479 C491 0.950 . S
C480 H472 0.950 . S
C480 C481 1.386 . S
C480 C482 1.391 . S
C481 C480 1.386 . S
C481 C485 1.393 . S
C482 H474 0.950 . S
C482 C480 1.391 . S
C482 C483 1.400 . S
C483 C482 1.400 . S
C483 C484 1.398 . S
C483 C489 1.491 . S
C484 H475 0.950 . S
C484 C483 1.398 . S
C484 C485 1.391 . S
C485 H473 0.950 . S
C485 C481 1.393 . S
C485 C484 1.391 . S
C486 H476 0.950 . S
C486 C487 1.386 . S
C486 C488 1.391 . S
C487 C486 1.386 . S
C487 C491 1.393 . S
C488 H477 0.950 . S
C488 C486 1.391 . S
C488 C489 1.400 . S
C489 C483 1.491 . S
C489 C488 1.400 . S
C489 C490 1.398 . S
C490 H478 0.950 . S
C490 C489 1.398 . S
C490 C491 1.391 . S
C491 H479 0.950 . S
C491 C487 1.393 . S
C491 C490 1.391 . S
H492 C500 0.950 . S
H493 C505 0.950 . S
H494 C502 0.950 . S
H495 C504 0.950 . S
H496 C506 0.950 . S
H497 C508 0.950 . S
H498 C510 0.950 . S
H499 C511 0.950 . S
C500 H492 0.950 . S
C500 C501 1.386 . S
C500 C502 1.391 . S
C501 C500 1.386 . S
C501 C505 1.393 . S
C502 H494 0.950 . S
C502 C500 1.391 . S
C502 C503 1.400 . S
C503 C502 1.400 . S
C503 C504 1.398 . S
C503 C509 1.491 . S
C504 H495 0.950 . S
C504 C503 1.398 . S
C504 C505 1.391 . S
C505 H493 0.950 . S
C505 C501 1.393 . S
C505 C504 1.391 . S
C506 H496 0.950 . S
C506 C507 1.386 . S
C506 C508 1.391 . S
C507 C506 1.386 . S
C507 C511 1.393 . S
C508 H497 0.950 . S
C508 C506 1.391 . S
C508 C509 1.400 . S
C509 C503 1.491 . S
C509 C508 1.400 . S
C509 C510 1.398 . S
C510 H498 0.950 . S
C510 C509 1.398 . S
C510 C511 1.391 . S
C511 H499 0.950 . S
C511 C507 1.393 . S
C511 C510 1.391 . S
H512 C520 0.950 . S
H513 C525 0.950 . S
H514 C522 0.950 . S
H515 C524 0.950 . S
H516 C526 0.950 . S
H517 C528 0.950 . S
H518 C530 0.950 . S
H519 C531 0.950 . S
C520 H512 0.950 . S
C520 C521 1.386 . S
C520 C522 1.391 . S
C521 C520 1.386 . S
C521 C525 1.393 . S
C522 H514 0.950 . S
C522 C520 1.391 . S
C522 C523 1.400 . S
C523 C522 1.400 . S
C523 C524 1.398 . S
C523 C529 1.450 1_556 S
C524 H515 0.950 . S
C524 C523 1.398 . S
C524 C525 1.391 . S
C525 H513 0.950 . S
C525 C521 1.393 . S
C525 C524 1.391 . S
C526 H516 0.950 . S
C526 C527 1.386 . S
C526 C528 1.391 . S
C527 C526 1.386 . S
C527 C531 1.393 . S
C528 H517 0.950 . S
C528 C526 1.391 . S
C528 C529 1.428 . S
C529 C523 1.450 1_554 S
C529 C528 1.428 . S
C529 C530 1.413 . S
C530 H518 0.950 . S
C530 C529 1.413 . S
C530 C531 1.391 . S
C531 H519 0.950 . S
C531 C527 1.393 . S
C531 C530 1.391 . S
H532 C540 0.950 . S
H533 C545 0.950 1_655 S
H534 C542 0.950 . S
H535 C544 0.950 1_655 S
H536 C546 0.950 1_655 S
H537 C548 0.950 1_655 S
H538 C550 0.950 . S
H539 C551 0.950 . S
C540 H532 0.950 . S
C540 C541 1.386 . S
C540 C542 1.391 . S
C541 C540 1.386 . S
C541 C545 1.393 . S
C542 H534 0.950 . S
C542 C540 1.391 . S
C542 C543 1.400 . S
C543 C542 1.400 . S
C543 C544 1.398 . S
C543 C549 1.491 . S
C544 H535 0.950 1_455 S
C544 C543 1.398 . S
C544 C545 1.391 . S
C545 H533 0.950 1_455 S
C545 C541 1.393 . S
C545 C544 1.391 . S
C546 H536 0.950 1_455 S
C546 C547 1.386 . S
C546 C548 1.391 . S
C547 C546 1.386 . S
C547 C551 1.393 . S
C548 H537 0.950 1_455 S
C548 C546 1.391 . S
C548 C549 1.400 . S
C549 C543 1.491 . S
C549 C548 1.400 . S
C549 C550 1.398 . S
C550 H538 0.950 . S
C550 C549 1.398 . S
C550 C551 1.391 . S
C551 H539 0.950 . S
C551 C547 1.393 . S
C551 C550 1.391 . S
C201 C10 3.253 . S
C207 C186 3.268 . S
C221 C59 3.151 . S
C227 C160 3.061 . S
C241 C90 3.066 . S
C247 C172 2.995 . S
C261 C19 2.857 . S
C267 C184 2.750 . S
C287 C162 2.908 . S
C281 C50 2.931 . S
C307 C174 2.962 . S
C301 C99 2.996 . S
C321 C46 0.566 . S
C327 C136 0.549 . S
C341 C95 0.540 . S
C347 C150 0.533 . S
C361 C6 0.278 . S
C367 C126 0.233 . S
C387 C138 0.188 . S
C381 C55 0.345 . S
C407 C148 0.384 . S
C401 C86 0.245 . S
C421 C15 0.452 . S
C427 C124 0.371 . S
C447 C153 1.248 . S
C441 C9 1.235 . S
C461 C49 1.174 . S
C467 C129 1.226 . S
C481 C89 1.234 . S
C487 C141 1.254 . S
C507 C177 1.736 . S
C501 C58 1.699 . S
C527 C189 1.813 . S
C521 C98 1.745 . S
C541 C18 1.692 . S
C547 C165 1.787 . S
