# Generated by pormake.
# Topology tsx, (6,3)-cn, num edge types: 1
# Building blocks:
#     Node 0, Type 0, BuildingBlock: VOLQOD_clean_sbu_1, # of connection points: 6
#     Node 1, Type 0, BuildingBlock: VOLQOD_clean_sbu_1, # of connection points: 6
#     Node 2, Type 1, BuildingBlock: VETTIZ_charged_linker_0, # of connection points: 3
#     Node 3, Type 1, BuildingBlock: VETTIZ_charged_linker_0, # of connection points: 3
#     Node 4, Type 1, BuildingBlock: VETTIZ_charged_linker_0, # of connection points: 3
#     Node 5, Type 1, BuildingBlock: VETTIZ_charged_linker_0, # of connection points: 3
#     Edge 6, Type (0, 1), BuildingBlock: UVAHIK_clean_linker_0, # of connection points: 2
#     Edge 7, Type (0, 1), BuildingBlock: UVAHIK_clean_linker_0, # of connection points: 2
#     Edge 8, Type (0, 1), BuildingBlock: UVAHIK_clean_linker_0, # of connection points: 2
#     Edge 9, Type (0, 1), BuildingBlock: UVAHIK_clean_linker_0, # of connection points: 2
#     Edge 10, Type (0, 1), BuildingBlock: UVAHIK_clean_linker_0, # of connection points: 2
#     Edge 11, Type (0, 1), BuildingBlock: UVAHIK_clean_linker_0, # of connection points: 2
#     Edge 12, Type (0, 1), BuildingBlock: UVAHIK_clean_linker_0, # of connection points: 2
#     Edge 13, Type (0, 1), BuildingBlock: UVAHIK_clean_linker_0, # of connection points: 2
#     Edge 14, Type (0, 1), BuildingBlock: UVAHIK_clean_linker_0, # of connection points: 2
#     Edge 15, Type (0, 1), BuildingBlock: UVAHIK_clean_linker_0, # of connection points: 2
#     Edge 16, Type (0, 1), BuildingBlock: UVAHIK_clean_linker_0, # of connection points: 2
#     Edge 17, Type (0, 1), BuildingBlock: UVAHIK_clean_linker_0, # of connection points: 2
# Relax obj value: 0.078
# Max RMSD: 0.110
# Mean RMSD: 0.086
data_MOF--net-tsx--node1-VOLQOD_clean_sbu_1--node2-VETTIZ_charged_linker_0--edge1-UVAHIK_clean_linker_0
_symmetry_space_group_name_H-M    P1
_symmetry_Int_Tables_number       1
_symmetry_cell_setting            triclinic
loop_
_symmetry_equiv_pos_as_xyz
'x, y, z'
_cell_length_a     30.611012
_cell_length_b     31.709227
_cell_length_c     60.663411
_cell_angle_alpha  90.335411
_cell_angle_beta   89.914584
_cell_angle_gamma 90.018188
loop_
_atom_site_label
_atom_site_type_symbol
_atom_site_fract_x
_atom_site_fract_y
_atom_site_fract_z
_atom_type_partial_charge
O0 O 0.03713 -0.00424 0.06294 0.0
Zn1 Zn 0.05599 0.99329 0.03108 0.0
O2 O 0.00658 0.00079 0.01113 0.0
Zn3 Zn 0.00018 0.95025 0.99281 0.0
Zn4 Zn 0.95354 0.00972 0.0285 0.0
Zn5 Zn 0.01647 0.04971 0.99221 0.0
O6 O 0.00295 0.96427 0.96057 0.0
O7 O 0.01599 0.0331 0.96007 0.0
O8 O 0.08575 0.93763 0.02608 0.0
O9 O 0.04757 0.90804 -0.00094 0.0
O10 O 0.94275 0.9217 -0.00151 0.0
O11 O 0.91028 0.96301 0.0232 0.0
O12 O 0.9243 0.06421 0.02074 0.0
O13 O 0.10098 0.03841 0.0261 0.0
O14 O 0.96883 0.0929 0.99614 0.0
O15 O 0.07412 0.07748 -0.00096 0.0
C16 C 0.00075 0.00399 0.07221 0.0
C17 C 0.00969 -0.00175 0.95002 0.0
C18 C 0.91037 0.93033 0.0109 0.0
C19 C 0.07898 0.90714 0.01279 0.0
C20 C 0.93422 0.09417 0.0078 0.0
C21 C 0.10412 0.06937 0.01291 0.0
O22 O 0.96646 0.01107 0.06098 0.0
O23 O 0.53912 0.50234 0.56111 0.0
Zn24 Zn 0.55779 0.49699 0.5292 0.0
O25 O 0.50741 0.50391 0.50945 0.0
Zn26 Zn 0.49931 0.45308 0.49174 0.0
Zn27 Zn 0.45426 0.51444 0.52665 0.0
Zn28 Zn 0.51784 0.55114 0.48972 0.0
O29 O 0.50289 0.46477 0.45922 0.0
O30 O 0.51528 0.5336 0.45782 0.0
O31 O 0.58613 0.43975 0.52495 0.0
O32 O 0.54473 0.41026 0.49908 0.0
O33 O 0.44134 0.42614 0.4976 0.0
O34 O 0.40935 0.46877 0.52181 0.0
O35 O 0.42698 0.57039 0.51903 0.0
O36 O 0.60365 0.54154 0.5234 0.0
O37 O 0.47282 0.5962 0.49415 0.0
O38 O 0.57622 0.5775 0.49535 0.0
C39 C 0.5024 0.50958 0.57033 0.0
C40 C 0.50915 0.49829 0.44822 0.0
C41 C 0.409 0.43565 0.50984 0.0
C42 C 0.57676 0.40869 0.51239 0.0
C43 C 0.43864 0.59965 0.50599 0.0
C44 C 0.60653 0.57099 0.50926 0.0
O45 O 0.46787 0.51497 0.55901 0.0
C46 C 0.09644 0.92498 0.44715 0.0
C47 C 0.13094 0.90442 0.43619 0.0
C48 C 0.13155 0.90338 0.41297 0.0
C49 C 0.06386 0.94259 0.41191 0.0
C50 C 0.06345 0.94403 0.43469 0.0
C51 C 0.02509 0.96856 0.44354 0.0
H52 H 0.84668 0.08755 0.42273 0.0
C53 C 0.02478 0.96484 0.40388 0.0
C54 C 0.00185 0.98017 0.42231 0.0
H55 H 0.90709 0.06373 0.48581 0.0
H56 H 0.95862 0.01618 0.46835 0.0
H57 H 0.93566 0.09973 0.3961 0.0
H58 H 0.85052 0.99301 0.40459 0.0
H59 H 0.8719 0.98879 0.37779 0.0
H60 H 0.83848 0.03373 0.38513 0.0
H61 H 0.88109 0.09706 0.38534 0.0
H62 H 0.92666 0.07629 0.37013 0.0
C63 C 0.04282 0.00788 0.45596 0.0
C64 C -0.00289 0.93874 0.45792 0.0
C65 C -0.00208 0.97675 0.32154 0.0
C66 C 0.96341 0.99352 0.309 0.0
C67 C 0.92686 0.01046 0.32019 0.0
C68 C 0.92536 0.01188 0.34328 0.0
C69 C 0.96064 -0.00397 0.35545 0.0
C70 C -0.00442 0.97788 0.34457 0.0
C71 C 0.02888 0.96029 0.36022 0.0
C72 C 0.00862 0.97186 0.3823 0.0
C73 C 0.96906 0.99337 0.37938 0.0
C74 C 0.07267 0.98368 0.35635 0.0
C75 C 0.03103 0.91185 0.35663 0.0
C76 C 0.87109 0.07218 0.4328 0.0
C77 C 0.87337 0.07994 0.4556 0.0
C78 C 0.90476 0.05834 0.4682 0.0
C79 C 0.93488 0.0311 0.45799 0.0
C80 C 0.93363 0.02559 0.43496 0.0
C81 C 0.90155 0.04541 0.42285 0.0
C82 C 0.90552 0.03682 0.39854 0.0
C83 C 0.94626 0.00971 0.39793 0.0
C84 C 0.96252 0.0031 0.41929 0.0
C85 C 0.91237 0.07954 0.38673 0.0
C86 C 0.86448 0.01206 0.39093 0.0
H87 H 0.10051 0.92017 0.38318 0.0
H88 H 0.09544 0.92661 0.46499 0.0
H89 H -0.00594 0.90721 0.44993 0.0
H90 H 0.9633 0.95005 0.46022 0.0
H91 H 0.01223 0.93418 0.47437 0.0
H92 H 0.07451 0.01854 0.4489 0.0
H93 H 0.04829 0.00104 0.47368 0.0
H94 H 0.02116 0.03559 0.45451 0.0
H95 H 0.02668 0.9636 0.3137 0.0
H96 H 0.89914 0.02252 0.31114 0.0
H97 H 0.89686 0.0255 0.35075 0.0
H98 H 0.06686 0.01759 0.35276 0.0
H99 H 0.09071 0.9699 0.34214 0.0
H100 H 0.09417 0.98371 0.37095 0.0
H101 H -0.00121 0.89905 0.35139 0.0
H102 H 0.03885 0.89449 0.37187 0.0
H103 H 0.05517 0.90341 0.34366 0.0
H104 H 0.15756 0.88727 0.4042 0.0
C105 C 0.0982 0.92223 0.4008 0.0
C106 C 0.09016 0.09221 0.5747 0.0
C107 C 0.11671 0.12185 0.58561 0.0
C108 C 0.11706 0.12297 0.60883 0.0
C109 C 0.06499 0.06561 0.60996 0.0
C110 C 0.0648 0.06433 0.58718 0.0
C111 C 0.03555 0.03008 0.57831 0.0
H112 H 0.8894 0.8746 0.59823 0.0
C113 C 0.03498 0.03268 0.61798 0.0
C114 C 0.01767 0.01164 0.59955 0.0
H115 H 0.94039 0.91431 0.53522 0.0
H116 H 0.98604 0.96623 0.55341 0.0
H117 H 0.98102 0.87435 0.62253 0.0
H118 H 0.87876 0.96725 0.6196 0.0
H119 H 0.89735 0.96574 0.64698 0.0
H120 H 0.87342 0.91914 0.63482 0.0
H121 H 0.93076 0.86876 0.63749 0.0
H122 H 0.9768 0.89681 0.64895 0.0
C123 C 0.06413 -0.00205 0.56541 0.0
C124 C -0.00071 0.05105 0.56439 0.0
C125 C 0.0117 0.01463 0.7003 0.0
C126 C 0.98538 0.98733 0.7128 0.0
C127 C 0.95819 0.95823 0.70172 0.0
C128 C 0.95751 0.95611 0.67865 0.0
C129 C 0.98428 0.98338 0.66642 0.0
C130 C 0.01058 0.01215 0.67727 0.0
C131 C 0.03664 0.03881 0.66162 0.0
C132 C 0.02199 0.02097 0.63957 0.0
C133 C 0.9914 0.98853 0.64248 0.0
C134 C 0.08582 0.03055 0.66589 0.0
C135 C 0.02226 0.08534 0.66479 0.0
C136 C 0.91015 0.89477 0.58836 0.0
C137 C 0.9111 0.89082 0.5653 0.0
C138 C 0.93925 0.91687 0.55303 0.0
C139 C 0.96554 0.94703 0.56362 0.0
C140 C 0.96389 0.95088 0.58672 0.0
C141 C 0.93683 0.92465 0.59868 0.0
C142 C 0.94043 0.93194 0.62311 0.0
C143 C 0.97382 0.96721 0.62388 0.0
C144 C 0.98717 0.97843 0.60254 0.0
C145 C 0.95785 0.89093 0.63376 0.0
C146 C 0.89521 0.94652 0.63178 0.0
H147 H 0.09304 0.09764 0.63866 0.0
H148 H 0.08969 0.0903 0.55687 0.0
H149 H 0.98698 0.08007 0.57272 0.0
H150 H 0.97033 0.03079 0.56211 0.0
H151 H 0.0119 0.06024 0.54792 0.0
H152 H 0.09772 -0.00366 0.57234 0.0
H153 H 0.06709 0.00679 0.54778 0.0
H154 H 0.05164 0.96532 0.56654 0.0
H155 H 0.03336 0.03704 0.70824 0.0
H156 H 0.93709 0.93726 0.71092 0.0
H157 H 0.93613 0.93329 0.67123 0.0
H158 H 0.09151 -0.00287 0.67059 0.0
H159 H 0.09827 0.0508 0.6795 0.0
H160 H 0.10633 0.0353 0.65112 0.0
H161 H 0.98682 0.08739 0.66876 0.0
H162 H 0.02621 0.10442 0.64975 0.0
H163 H 0.04042 0.1006 0.67853 0.0
H164 H 0.13697 0.14582 0.61757 0.0
C165 C 0.09135 0.0951 0.62104 0.0
C166 C 0.58123 0.40554 0.94329 0.0
C167 C 0.61134 0.37995 0.9319 0.0
C168 C 0.60984 0.37825 0.90869 0.0
C169 C 0.55056 0.4287 0.90852 0.0
C170 C 0.55132 0.42966 0.9313 0.0
C171 C 0.51816 0.45978 0.94073 0.0
H172 H 0.36693 0.61147 0.92362 0.0
C173 C 0.51719 0.45894 0.90105 0.0
C174 C 0.49804 0.47727 0.91982 0.0
H175 H 0.41044 0.56103 0.98589 0.0
H176 H 0.4575 0.51173 0.96671 0.0
H177 H 0.46035 0.61392 0.90039 0.0
H178 H 0.35729 0.5215 0.89936 0.0
H179 H 0.37801 0.52493 0.87242 0.0
H180 H 0.35324 0.57072 0.88504 0.0
H181 H 0.4101 0.622 0.8858 0.0
H182 H 0.45583 0.59534 0.87316 0.0
C183 C 0.54289 0.49413 0.95403 0.0
C184 C 0.48472 0.43413 0.95441 0.0
C185 C 0.49539 0.48286 0.81911 0.0
C186 C 0.46907 0.51081 0.8071 0.0
C187 C 0.44108 0.53858 0.81858 0.0
C188 C 0.43931 0.53849 0.84168 0.0
C189 C 0.46603 0.51051 0.85347 0.0
C190 C 0.49346 0.48336 0.84215 0.0
C191 C 0.52043 0.4567 0.85736 0.0
C192 C 0.50426 0.47192 0.87968 0.0
C193 C 0.4724 0.50335 0.8773 0.0
C194 C 0.56927 0.46763 0.85352 0.0
C195 C 0.50855 0.40984 0.85313 0.0
C196 C 0.38689 0.59 0.93311 0.0
C197 C 0.38546 0.59037 0.95627 0.0
C198 C 0.41103 0.56125 0.96803 0.0
C199 C 0.43844 0.53283 0.95686 0.0
C200 C 0.44017 0.53348 0.93369 0.0
C201 C 0.41418 0.56135 0.92222 0.0
C202 C 0.41929 0.5569 0.89767 0.0
C203 C 0.45304 0.52201 0.89626 0.0
C204 C 0.46543 0.50869 0.91739 0.0
C205 C 0.43702 0.59918 0.88858 0.0
C206 C 0.37473 0.54308 0.88792 0.0
H207 H 0.58036 0.39986 0.87933 0.0
H208 H 0.5817 0.40767 0.96111 0.0
H209 H 0.48022 0.40191 0.9474 0.0
H210 H 0.45168 0.44817 0.95427 0.0
H211 H 0.49572 0.43059 0.97174 0.0
H212 H 0.57334 0.5036 0.94531 0.0
H213 H 0.55228 0.48237 0.97057 0.0
H214 H 0.52409 0.52355 0.95609 0.0
H215 H 0.51775 0.46161 0.81077 0.0
H216 H 0.42025 0.56018 0.80967 0.0
H217 H 0.41733 0.56035 0.84945 0.0
H218 H 0.57331 0.50112 0.84853 0.0
H219 H 0.58364 0.44764 0.84028 0.0
H220 H 0.58927 0.46469 0.86857 0.0
H221 H 0.47298 0.40631 0.84985 0.0
H222 H 0.51496 0.38951 0.86748 0.0
H223 H 0.52642 0.3971 0.8386 0.0
H224 H 0.63214 0.35816 0.89956 0.0
C225 C 0.57961 0.40238 0.89696 0.0
C226 C 0.57956 0.59709 0.07303 0.0
C227 C 0.60393 0.62831 0.08403 0.0
C228 C 0.60223 0.63075 0.10721 0.0
C229 C 0.55425 0.57017 0.10819 0.0
C230 C 0.55521 0.56826 0.08542 0.0
C231 C 0.52921 0.53169 0.07652 0.0
H232 H 0.41086 0.35574 0.09659 0.0
C233 C 0.52762 0.53463 0.11618 0.0
C234 C 0.51284 0.51189 0.09772 0.0
H235 H 0.44513 0.40813 0.03327 0.0
H236 H 0.48175 0.46648 0.0514 0.0
H237 H 0.50392 0.37409 0.12083 0.0
H238 H 0.38183 0.44099 0.11788 0.0
H239 H 0.40231 0.44909 0.14456 0.0
H240 H 0.38916 0.39626 0.13545 0.0
H241 H 0.45463 0.35561 0.13363 0.0
H242 H 0.49097 0.39143 0.14765 0.0
C243 C 0.56083 0.50213 0.06379 0.0
C244 C 0.49131 0.54939 0.06243 0.0
C245 C 0.50918 0.51231 0.19851 0.0
C246 C 0.48692 0.48183 0.21101 0.0
C247 C 0.46365 0.44973 0.1999 0.0
C248 C 0.46292 0.44779 0.17682 0.0
C249 C 0.48566 0.47829 0.16461 0.0
C250 C 0.50796 0.51003 0.17548 0.0
C251 C 0.52991 0.53994 0.15984 0.0
C252 C 0.51697 0.52097 0.13777 0.0
C253 C 0.49137 0.48474 0.14067 0.0
C254 C 0.5799 0.5375 0.16378 0.0
C255 C 0.5098 0.58433 0.16337 0.0
C256 C 0.42684 0.37947 0.08664 0.0
C257 C 0.42585 0.37711 0.06352 0.0
C258 C 0.44572 0.4093 0.05112 0.0
C259 C 0.46697 0.44302 0.06169 0.0
C260 C 0.46808 0.44464 0.08487 0.0
C261 C 0.4478 0.41337 0.09691 0.0
C262 C 0.45067 0.42085 0.12133 0.0
C263 C 0.47672 0.46146 0.12206 0.0
C264 C 0.48711 0.47511 0.10069 0.0
C265 C 0.4761 0.38358 0.1316 0.0
C266 C 0.4037 0.42686 0.13047 0.0
H267 H 0.57783 0.60533 0.13693 0.0
H268 H 0.58057 0.59429 0.05523 0.0
H269 H 0.47914 0.57977 0.06935 0.0
H270 H 0.46243 0.5285 0.06218 0.0
H271 H 0.50207 0.55532 0.04522 0.0
H272 H 0.59274 0.49984 0.07247 0.0
H273 H 0.56728 0.51413 0.04693 0.0
H274 H 0.54892 0.46938 0.06255 0.0
H275 H 0.52784 0.53712 0.20644 0.0
H276 H 0.44561 0.42622 0.20906 0.0
H277 H 0.44472 0.42255 0.16939 0.0
H278 H 0.5899 0.50504 0.16849 0.0
H279 H 0.59011 0.55916 0.17728 0.0
H280 H 0.59928 0.54445 0.14887 0.0
H281 H 0.47439 0.58206 0.16739 0.0
H282 H 0.51122 0.60411 0.14847 0.0
H283 H 0.52601 0.60125 0.17721 0.0
H284 H 0.62034 0.65492 0.11599 0.0
C285 C 0.57746 0.60197 0.11933 0.0
C286 C 0.17893 0.08545 0.02724 0.0
C287 C 0.14311 0.09688 0.0141 0.0
C288 C 0.21476 0.11233 0.02941 0.0
C289 C 0.26885 0.20665 0.00576 0.0
H290 H 0.31096 0.22087 0.06558 0.0
C291 C 0.37162 0.34912 0.03621 0.0
C292 C 0.40276 0.34164 0.0527 0.0
C293 C 0.34512 0.31626 0.02851 0.0
C294 C 0.30022 0.21678 0.0487 0.0
H295 H 0.11752 0.14502 0.99236 0.0
H296 H 0.17974 0.19239 0.99655 0.0
H297 H 0.25465 0.16909 0.05788 0.0
H298 H 0.43335 0.29364 0.07272 0.0
H299 H 0.3876 0.23621 0.05911 0.0
H300 H 0.31397 0.25544 0.99681 0.0
C301 C 0.18036 0.16232 0.00491 0.0
C302 C 0.26786 0.18704 0.04427 0.0
C303 C 0.14455 0.13528 0.00264 0.0
C304 C 0.40898 0.30034 0.06029 0.0
C305 C 0.38275 0.26754 0.05253 0.0
C306 C 0.30131 0.23659 0.01021 0.0
C307 C 0.21553 0.15143 0.01862 0.0
C308 C 0.25159 0.18174 0.0228 0.0
C309 C 0.34953 0.2754 0.03714 0.0
C310 C 0.31717 0.24208 0.03177 0.0
H311 H 0.17917 0.05586 0.03607 0.0
H312 H 0.24172 0.10264 0.03975 0.0
H313 H 0.25728 0.203 0.98899 0.0
H314 H 0.36608 0.38075 0.03017 0.0
H315 H 0.31965 0.32336 0.01673 0.0
C316 C 0.10243 0.83659 0.99821 0.0
C317 C 0.1091 0.87063 0.01277 0.0
C318 C 0.1324 0.80347 0.99715 0.0
C319 C 0.24804 0.7821 0.00667 0.0
H320 H 0.21351 0.66628 0.99537 0.0
C321 C 0.32987 0.60887 0.98519 0.0
C322 C 0.35753 0.62139 0.96793 0.0
C323 C 0.3013 0.63788 0.99499 0.0
C324 C 0.22374 0.69833 -0.00114 0.0
H325 H 0.15173 0.89565 0.03827 0.0
H326 H 0.20397 0.83772 0.03639 0.0
H327 H 0.15814 0.71855 0.00521 0.0
H328 H 0.37863 0.67426 0.94808 0.0
H329 H 0.32873 0.72472 0.96502 0.0
H330 H 0.31348 0.76209 -8e-05 0.0
C331 C 0.17575 0.83698 0.02565 0.0
C332 C 0.192 0.72833 0.00426 0.0
C333 C 0.14572 0.87009 0.02675 0.0
C334 C 0.35728 0.66367 0.96119 0.0
C335 C 0.32906 0.69265 0.97106 0.0
C336 C 0.27972 0.75216 0.00121 0.0
C337 C 0.16974 0.80364 0.0106 0.0
C338 C 0.20371 0.77072 0.0077 0.0
C339 C 0.30033 0.67997 0.98785 0.0
C340 C 0.26776 0.71021 0.99671 0.0
H341 H 0.07454 0.83591 0.98724 0.0
H342 H 0.12712 0.77851 0.98518 0.0
H343 H 0.2581 0.81454 0.00909 0.0
H344 H 0.32935 0.5764 0.99064 0.0
H345 H 0.27967 0.62733 0.00799 0.0
C346 C 0.87398 0.86265 -0.00016 0.0
C347 C 0.87311 0.90066 0.0119 0.0
C348 C 0.84087 0.83279 0.00245 0.0
C349 C 0.72976 0.81584 0.02522 0.0
H350 H 0.77302 0.70337 0.03727 0.0
C351 C 0.67566 0.66412 0.07875 0.0
C352 C 0.63265 0.65721 0.0716 0.0
C353 C 0.70289 0.69183 0.06747 0.0
C354 C 0.76043 0.73456 0.03382 0.0
H355 H 0.83548 0.93801 0.03526 0.0
H356 H 0.77807 0.88573 0.03996 0.0
H357 H 0.82326 0.75726 0.02416 0.0
H358 H 0.58438 0.67344 0.04697 0.0
H359 H 0.63224 0.72253 0.02721 0.0
H360 H 0.66721 0.79336 0.03587 0.0
C361 C 0.80418 0.87915 0.02837 0.0
C362 C 0.78908 0.76532 0.0261 0.0
C363 C 0.83732 0.90898 0.0258 0.0
C364 C 0.61749 0.67819 0.05276 0.0
C365 C 0.6447 0.70635 0.04156 0.0
C366 C 0.701 0.78494 0.03286 0.0
C367 C 0.80613 0.84035 0.0171 0.0
C368 C 0.7743 0.80657 0.02225 0.0
C369 C 0.68765 0.71341 0.04885 0.0
C370 C 0.71638 0.74435 0.0378 0.0
H371 H 0.90087 0.85535 0.98883 0.0
H372 H 0.84293 0.80336 0.99334 0.0
H373 H 0.7174 0.84727 0.02218 0.0
H374 H 0.68832 0.64798 0.09307 0.0
H375 H 0.73566 0.69706 0.07363 0.0
C376 C 0.86489 0.13173 0.01781 0.0
C377 C 0.9036 0.12994 0.00532 0.0
C378 C 0.83405 0.16331 0.01404 0.0
C379 C 0.81726 0.26634 0.98666 0.0
H380 H 0.6978 0.22719 0.9806 0.0
C381 C 0.68818 0.35469 0.93627 0.0
C382 C 0.64493 0.35578 0.94401 0.0
C383 C 0.71975 0.33096 0.94715 0.0
C384 C 0.73082 0.23886 0.98262 0.0
H385 H 0.94104 0.16104 0.97971 0.0
H386 H 0.88704 0.21569 0.97295 0.0
H387 H 0.75369 0.1791 0.9939 0.0
H388 H 0.60094 0.33348 0.96945 0.0
H389 H 0.65636 0.29205 0.98862 0.0
H390 H 0.79447 0.32579 0.97473 0.0
C391 C 0.8807 0.19296 0.98582 0.0
C392 C 0.76288 0.21131 0.99026 0.0
C393 C 0.91156 0.16142 0.98961 0.0
C394 C 0.63407 0.33333 0.96316 0.0
C395 C 0.66568 0.30941 0.97402 0.0
C396 C 0.78519 0.29389 0.979 0.0
C397 C 0.84124 0.19378 0.99771 0.0
C398 C 0.80661 0.22449 0.99195 0.0
C399 C 0.70878 0.30773 0.96602 0.0
C400 C 0.7418 0.28017 0.97647 0.0
H401 H 0.85786 0.10819 0.03019 0.0
H402 H 0.80425 0.16349 0.02369 0.0
H403 H 0.85053 0.27763 0.98815 0.0
H404 H 0.69766 0.37216 0.92174 0.0
H405 H 0.75253 0.32992 0.94042 0.0
C406 C 0.64769 0.63281 0.49431 0.0
C407 C 0.64453 0.59991 0.50969 0.0
C408 C 0.68095 0.66276 0.49596 0.0
C409 C 0.78702 0.68689 0.52247 0.0
H410 H 0.74571 0.80243 0.52012 0.0
C411 C 0.8383 0.85688 0.56021 0.0
C412 C 0.88255 0.85957 0.55429 0.0
C413 C 0.81164 0.8258 0.55103 0.0
C414 C 0.75777 0.77034 0.52071 0.0
H415 H 0.67529 0.57153 0.53819 0.0
H416 H 0.73313 0.62414 0.54117 0.0
H417 H 0.69613 0.74491 0.51088 0.0
H418 H 0.93361 0.83244 0.53391 0.0
H419 H 0.88677 0.77747 0.51787 0.0
H420 H 0.8483 0.71256 0.53313 0.0
C421 C 0.70998 0.62653 0.52775 0.0
C422 C 0.72953 0.7374 0.51523 0.0
C423 C 0.67665 0.59653 0.52612 0.0
C424 C 0.8995 0.8311 0.53865 0.0
C425 C 0.87287 0.79957 0.52962 0.0
C426 C 0.81542 0.71994 0.52783 0.0
C427 C 0.71185 0.66051 0.51299 0.0
C428 C 0.74355 0.69528 0.51648 0.0
C429 C 0.82875 0.79651 0.53586 0.0
C430 C 0.8007 0.76191 0.52748 0.0
H431 H 0.6238 0.63617 0.48128 0.0
H432 H 0.68195 0.68824 0.48415 0.0
H433 H 0.79882 0.65475 0.5234 0.0
H434 H 0.82439 0.87866 0.57213 0.0
H435 H 0.77788 0.82393 0.55632 0.0
C436 C 0.58948 0.33358 0.50174 0.0
C437 C 0.60425 0.37033 0.51244 0.0
C438 C 0.61673 0.29864 0.49952 0.0
C439 C 0.69147 0.24927 0.48052 0.0
H440 H 0.77346 0.20693 0.52378 0.0
C441 C 0.83767 0.15053 0.45451 0.0
C442 C 0.84462 0.1124 0.46565 0.0
C443 C 0.80856 0.18034 0.4628 0.0
C444 C 0.75044 0.21829 0.51164 0.0
H445 H 0.65834 0.39829 0.53038 0.0
H446 H 0.70648 0.3372 0.52609 0.0
H447 H 0.71979 0.26088 0.53458 0.0
H448 H 0.82813 0.07652 0.49481 0.0
H449 H 0.77685 0.12929 0.50948 0.0
H450 H 0.72197 0.20735 0.45756 0.0
C451 C 0.67357 0.33545 0.51962 0.0
C452 C 0.72004 0.24928 0.51775 0.0
C453 C 0.6461 0.3705 0.52196 0.0
C454 C 0.82332 0.10561 0.48587 0.0
C455 C 0.79408 0.13572 0.49426 0.0
C456 C 0.72183 0.21871 0.47444 0.0
C457 C 0.65953 0.29966 0.5078 0.0
C458 C 0.69042 0.26522 0.50217 0.0
C459 C 0.78577 0.17291 0.48248 0.0
C460 C 0.752 0.2033 0.48981 0.0
H461 H 0.55713 0.33208 0.49456 0.0
H462 H 0.60468 0.27117 0.49074 0.0
H463 H 0.66954 0.26127 0.46804 0.0
H464 H 0.85457 0.15725 0.43922 0.0
H465 H 0.80351 0.20918 0.45365 0.0
C466 C 0.33783 0.41292 0.52654 0.0
C467 C 0.37187 0.40587 0.51138 0.0
C468 C 0.30576 0.38225 0.52988 0.0
C469 C 0.29342 0.26799 0.52659 0.0
H470 H 0.17219 0.29181 0.54052 0.0
C471 C 0.1269 0.17426 0.55522 0.0
C472 C 0.14426 0.15154 0.573 0.0
C473 C 0.15248 0.20403 0.54421 0.0
C474 C 0.20581 0.28459 0.53637 0.0
H475 H 0.39723 0.36218 0.4868 0.0
H476 H 0.34117 0.3089 0.4926 0.0
H477 H 0.21912 0.34814 0.52656 0.0
H478 H 0.20218 0.1409 0.59269 0.0
H479 H 0.24677 0.1928 0.57353 0.0
H480 H 0.28045 0.20475 0.5368 0.0
C481 C 0.33974 0.33785 0.50215 0.0
C482 C 0.23273 0.31688 0.52858 0.0
C483 C 0.37176 0.36848 0.49879 0.0
C484 C 0.18789 0.15828 0.57918 0.0
C485 C 0.2135 0.18767 0.56807 0.0
C486 C 0.26662 0.23585 0.53447 0.0
C487 C 0.30708 0.34393 0.51813 0.0
C488 C 0.27702 0.30906 0.52399 0.0
C489 C 0.19597 0.21114 0.55062 0.0
C490 C 0.22281 0.24401 0.53987 0.0
H491 H 0.33684 0.44142 0.53646 0.0
H492 H 0.2812 0.38772 0.54245 0.0
H493 H 0.3275 0.26102 0.52341 0.0
H494 H 0.09325 0.16977 0.55022 0.0
H495 H 0.13825 0.22156 0.53073 0.0
C496 C 0.36929 0.63971 0.51319 0.0
C497 C 0.41124 0.6378 0.50375 0.0
C498 C 0.34211 0.6743 0.50928 0.0
C499 C 0.32495 0.75548 0.4675 0.0
H500 H 0.2444 0.80356 0.51017 0.0
C501 C 0.20972 0.88812 0.44247 0.0
C502 C 0.16586 0.88294 0.44865 0.0
C503 C 0.24231 0.86387 0.45222 0.0
C504 C 0.26664 0.79032 0.49808 0.0
H505 H 0.4585 0.67193 0.48395 0.0
H506 H 0.41137 0.73224 0.4774 0.0
H507 H 0.29706 0.75011 0.52186 0.0
H508 H 0.12176 0.85001 0.47059 0.0
H509 H 0.1787 0.80693 0.48743 0.0
H510 H 0.29416 0.79448 0.4436 0.0
C511 C 0.3991 0.70662 0.4874 0.0
C512 C 0.29673 0.75975 0.50476 0.0
C513 C 0.42615 0.67207 0.49121 0.0
C514 C 0.15541 0.85469 0.46561 0.0
C515 C 0.18803 0.83014 0.47527 0.0
C516 C 0.29497 0.78586 0.46084 0.0
C517 C 0.35642 0.70767 0.49592 0.0
C518 C 0.32602 0.74185 0.48948 0.0
C519 C 0.23167 0.83364 0.46822 0.0
C520 C 0.26527 0.80347 0.47599 0.0
H521 H 0.35686 0.61388 0.52297 0.0
H522 H 0.30928 0.67404 0.51595 0.0
H523 H 0.34639 0.74168 0.45521 0.0
H524 H 0.21869 0.91026 0.4297 0.0
H525 H 0.27576 0.86802 0.4468 0.0
C526 C 0.96472 0.02722 0.10726 0.0
C527 C -0.00211 0.00441 0.09653 0.0
C528 C 0.96135 0.02687 0.13022 0.0
C529 C 0.0231 -0.00212 0.18106 0.0
H530 H 0.90796 0.00336 0.20772 0.0
C531 C 0.98719 0.96134 0.27281 0.0
C532 C 0.96582 0.99393 0.28444 0.0
C533 C 0.99106 0.96275 0.24987 0.0
C534 C 0.94027 0.00195 0.20043 0.0
H535 H 0.05333 0.96303 0.10136 0.0
H536 H 0.04636 0.96071 0.14128 0.0
H537 H 0.91506 0.00503 0.1677 0.0
H538 H 0.9317 0.0536 0.28071 0.0
H539 H 0.93674 0.05471 0.24061 0.0
H540 H 0.04782 0.99306 0.21401 0.0
C541 C 0.02376 0.98016 0.13215 0.0
C542 C 0.94449 0.00324 0.17751 0.0
C543 C 0.02766 0.98124 0.10921 0.0
C544 C 0.94761 0.02747 0.27241 0.0
C545 C 0.95073 0.02837 0.24944 0.0
C546 C 0.01874 -0.00428 0.20395 0.0
C547 C 0.99052 0.00295 0.14301 0.0
C548 C 0.98601 0.00143 0.16748 0.0
C549 C 0.97285 -0.00375 0.23803 0.0
C550 C 0.97733 -0.00207 0.21381 0.0
H551 H 0.94156 0.04571 0.09791 0.0
H552 H 0.93597 0.04565 0.13791 0.0
H553 H 0.05566 -0.00271 0.17408 0.0
H554 H 0.00078 0.9345 0.28134 0.0
H555 H 0.00788 0.93739 0.24134 0.0
C556 C 0.01177 0.03494 0.91349 0.0
C557 C 0.00896 -0.00264 0.9256 0.0
C558 C 0.00944 0.03414 0.89048 0.0
C559 C 0.97111 0.96774 0.8441 0.0
H560 H 0.04536 0.0405 0.8091 0.0
C561 C 0.9861 0.95143 0.74958 0.0
C562 C 0.98673 0.98886 0.73727 0.0
C563 C 0.98833 0.95281 0.77257 0.0
C564 C 0.02408 0.02032 0.81867 0.0
H565 H 0.00235 0.92935 0.92294 0.0
H566 H -0.00099 0.92796 0.88286 0.0
H567 H 0.05109 0.04208 0.8492 0.0
H568 H 0.98923 0.05713 0.73954 0.0
H569 H 0.99341 0.05946 0.77967 0.0
H570 H 0.94433 0.9458 0.81354 0.0
C571 C 0.00218 0.95813 0.89116 0.0
C572 C 0.02735 0.02123 0.84164 0.0
C573 C 0.00438 0.95893 0.91415 0.0
C574 C 0.98939 0.0277 0.7485 0.0
C575 C 0.99176 0.02905 0.77149 0.0
C576 C 0.96795 0.96674 0.82114 0.0
C577 C 0.00437 -0.00426 0.87906 0.0
C578 C 0.00093 -0.0051 0.85463 0.0
C579 C 0.99136 0.99162 0.78377 0.0
C580 C -0.00557 0.99299 0.80817 0.0
H581 H 0.01514 0.06512 0.92176 0.0
H582 H 0.01073 0.06373 0.88168 0.0
H583 H 0.94972 0.9476 0.85362 0.0
H584 H 0.9848 0.92097 0.74144 0.0
H585 H 0.98855 0.92339 0.78156 0.0
C586 C 0.53721 0.51018 0.60781 0.0
C587 C 0.49938 0.51108 0.5947 0.0
C588 C 0.53399 0.51101 0.63082 0.0
C589 C 0.45851 0.48623 0.67601 0.0
H590 H 0.53368 0.55867 0.71104 0.0
C591 C 0.47392 0.54966 0.77129 0.0
C592 C 0.47133 0.51129 0.78269 0.0
C593 C 0.47736 0.55 0.74831 0.0
C594 C 0.51234 0.53845 0.70145 0.0
H595 H 0.42849 0.51371 0.59554 0.0
H596 H 0.42304 0.51501 0.63557 0.0
H597 H 0.53996 0.55895 0.67085 0.0
H598 H 0.46948 0.44327 0.779 0.0
H599 H 0.47545 0.44387 0.73885 0.0
H600 H 0.43077 0.46582 0.70656 0.0
C601 C 0.45513 0.51345 0.62806 0.0
C602 C 0.51622 0.53831 0.67849 0.0
C603 C 0.45832 0.51296 0.60511 0.0
C604 C 0.47175 0.4733 0.77065 0.0
C605 C 0.47481 0.47365 0.74768 0.0
C606 C 0.45489 0.4861 0.69896 0.0
C607 C 0.49289 0.51238 0.64116 0.0
C608 C 0.48924 0.51229 0.66554 0.0
C609 C 0.47787 0.512 0.73628 0.0
C610 C 0.4817 0.51226 0.71192 0.0
H611 H 0.56933 0.50877 0.60034 0.0
H612 H 0.56364 0.50983 0.64052 0.0
H613 H 0.43754 0.46557 0.66645 0.0
H614 H 0.47404 0.5794 0.78016 0.0
H615 H 0.47929 0.58003 0.73994 0.0
C616 C 0.50633 0.45729 0.41277 0.0
C617 C 0.50836 0.49633 0.42382 0.0
C618 C 0.50457 0.45551 0.38977 0.0
C619 C 0.52608 0.51896 0.33978 0.0
H620 H 0.45023 0.43668 0.31175 0.0
C621 C 0.48661 0.5221 0.24681 0.0
C622 C 0.48833 0.48329 0.23549 0.0
C623 C 0.48903 0.52354 0.26979 0.0
C624 C 0.47184 0.45957 0.31935 0.0
H625 H 0.51013 0.56417 0.4193 0.0
H626 H 0.50623 0.56106 0.37927 0.0
H627 H 0.45487 0.43956 0.35186 0.0
H628 H 0.4942 0.41557 0.23955 0.0
H629 H 0.49775 0.41813 0.27969 0.0
H630 H 0.54254 0.53927 0.30721 0.0
C631 C 0.50682 0.53175 0.38834 0.0
C632 C 0.47461 0.46117 0.34232 0.0
C633 C 0.50883 0.53354 0.41133 0.0
C634 C 0.49206 0.44594 0.24774 0.0
C635 C 0.4942 0.44738 0.27073 0.0
C636 C 0.52309 0.51752 0.31682 0.0
C637 C 0.50455 0.49272 0.37728 0.0
C638 C 0.50179 0.49087 0.35283 0.0
C639 C 0.49293 0.48621 0.28198 0.0
C640 C 0.49596 0.4878 0.30637 0.0
H641 H 0.50616 0.428 0.42187 0.0
H642 H 0.50358 0.42489 0.38178 0.0
H643 H 0.54788 0.54176 0.34729 0.0
H644 H 0.48297 0.55141 0.23793 0.0
H645 H 0.48732 0.55388 0.27805 0.0
loop_
_geom_bond_atom_site_label_1
_geom_bond_atom_site_label_2
_geom_bond_distance
_geom_bond_site_symmetry_2
_ccdc_geom_bond_type
O0 Zn1 1.953 . S
O0 C16 1.225 1_565 S
Zn1 O0 1.953 . S
Zn1 O2 1.949 1_565 S
Zn1 O8 1.919 . S
Zn1 O13 1.924 1_565 S
O2 Zn1 1.949 1_545 S
O2 Zn3 1.923 1_444 S
O2 Zn4 1.950 1_455 S
O2 Zn5 1.945 1_554 S
Zn3 O2 1.923 1_666 S
Zn3 O6 1.934 . S
Zn3 O9 1.941 1_655 S
Zn3 O10 1.964 1_556 S
Zn4 O2 1.950 1_655 S
Zn4 O11 1.938 1_545 S
Zn4 O12 1.906 . S
Zn4 O22 1.953 . S
Zn5 O2 1.945 1_556 S
Zn5 O7 1.932 . S
Zn5 O14 1.977 1_455 S
Zn5 O15 1.910 1_556 S
O6 Zn3 1.934 . S
O6 C17 1.224 1_665 S
O7 Zn5 1.932 . S
O7 C17 1.307 . S
O8 Zn1 1.919 . S
O8 C19 1.253 . S
O9 Zn3 1.941 1_455 S
O9 C19 1.283 1_556 S
O10 Zn3 1.964 1_554 S
O10 C18 1.309 . S
O11 Zn4 1.938 1_565 S
O11 C18 1.247 . S
O12 Zn4 1.906 . S
O12 C20 1.304 . S
O13 Zn1 1.924 1_545 S
O13 C21 1.311 . S
O14 Zn5 1.977 1_655 S
O14 C20 1.272 1_556 S
O15 Zn5 1.910 1_554 S
O15 C21 1.231 . S
C16 O0 1.225 1_545 S
C16 O22 1.298 1_455 S
C17 O6 1.224 1_445 S
C17 O7 1.307 . S
C18 O10 1.309 . S
C18 O11 1.247 . S
C19 O8 1.253 . S
C19 O9 1.283 1_554 S
C20 O12 1.304 . S
C20 O14 1.272 1_554 S
C21 O13 1.311 . S
C21 O15 1.231 . S
O22 Zn4 1.953 . S
O22 C16 1.298 1_655 S
O23 Zn24 1.953 . S
O23 C39 1.225 . S
Zn24 O23 1.953 . S
Zn24 O25 1.949 . S
Zn24 O31 1.919 . S
Zn24 O36 1.924 . S
O25 Zn24 1.949 . S
O25 Zn26 1.923 . S
O25 Zn27 1.950 . S
O25 Zn28 1.945 . S
Zn26 O25 1.923 . S
Zn26 O29 1.933 . S
Zn26 O32 1.941 . S
Zn26 O33 1.965 . S
Zn27 O25 1.950 . S
Zn27 O34 1.938 . S
Zn27 O35 1.906 . S
Zn27 O45 1.953 . S
Zn28 O25 1.945 . S
Zn28 O30 1.932 . S
Zn28 O37 1.977 . S
Zn28 O38 1.910 . S
O29 Zn26 1.933 . S
O29 C40 1.226 . S
O30 Zn28 1.932 . S
O30 C40 1.307 . S
O31 Zn24 1.919 . S
O31 C42 1.253 . S
O32 Zn26 1.941 . S
O32 C42 1.283 . S
O33 Zn26 1.965 . S
O33 C41 1.303 . S
O34 Zn27 1.938 . S
O34 C41 1.247 . S
O35 Zn27 1.906 . S
O35 C43 1.304 . S
O36 Zn24 1.924 . S
O36 C44 1.311 . S
O37 Zn28 1.977 . S
O37 C43 1.272 . S
O38 Zn28 1.910 . S
O38 C44 1.231 . S
C39 O23 1.225 . S
C39 O45 1.298 . S
C40 O29 1.226 . S
C40 O30 1.307 . S
C41 O33 1.303 . S
C41 O34 1.247 . S
C42 O31 1.253 . S
C42 O32 1.283 . S
C43 O35 1.304 . S
C43 O37 1.272 . S
C44 O36 1.311 . S
C44 O38 1.231 . S
O45 Zn27 1.953 . S
O45 C39 1.298 . S
C46 C47 1.391 . S
C46 C50 1.391 . S
C46 H88 0.948 . S
C47 C46 1.391 . S
C47 C48 1.391 . S
C48 C47 1.391 . S
C48 H104 0.947 . S
C48 C105 1.392 . S
C49 C50 1.391 . S
C49 C53 1.397 . S
C49 C105 1.419 . S
C50 C46 1.391 . S
C50 C49 1.391 . S
C50 C51 1.399 . S
C51 C50 1.399 . S
C51 C54 1.396 . S
C51 C63 1.453 1_565 S
C51 C64 1.684 1_455 S
H52 C76 0.948 . S
C53 C49 1.397 . S
C53 C54 1.394 . S
C53 C72 1.723 . S
C54 C51 1.396 . S
C54 C53 1.394 . S
C54 C84 1.723 1_465 S
H55 C78 0.947 . S
H56 C79 0.948 . S
H57 C85 0.982 . S
H58 C86 0.979 . S
H59 C86 0.980 . S
H60 C86 0.983 . S
H61 C85 0.979 . S
H62 C85 0.977 . S
C63 C51 1.453 1_545 S
C63 H92 0.982 . S
C63 H93 0.979 1_545 S
C63 H94 0.977 . S
C64 C51 1.684 1_655 S
C64 H89 0.979 . S
C64 H90 0.980 . S
C64 H91 0.983 1_655 S
C65 C66 1.391 1_465 S
C65 C70 1.391 . S
C65 H95 0.948 . S
C66 C65 1.391 1_645 S
C66 C67 1.391 . S
C67 C66 1.391 . S
C67 C68 1.392 . S
C67 H96 0.947 . S
C68 C67 1.392 . S
C68 C69 1.419 . S
C68 H97 0.948 . S
C69 C68 1.419 . S
C69 C70 1.391 1_645 S
C69 C73 1.397 . S
C70 C65 1.391 . S
C70 C69 1.391 1_465 S
C70 C71 1.399 . S
C71 C70 1.399 . S
C71 C72 1.396 . S
C71 C74 1.453 . S
C71 C75 1.684 . S
C72 C53 1.723 . S
C72 C71 1.396 . S
C72 C73 1.394 1_465 S
C73 C69 1.397 . S
C73 C72 1.394 1_645 S
C73 C83 1.723 . S
C74 C71 1.453 . S
C74 H98 0.982 . S
C74 H99 0.979 . S
C74 H100 0.977 . S
C75 C71 1.684 . S
C75 H101 0.979 . S
C75 H102 0.980 . S
C75 H103 0.983 . S
C76 H52 0.948 . S
C76 C77 1.391 . S
C76 C81 1.391 . S
C77 C76 1.391 . S
C77 C78 1.391 . S
C78 H55 0.947 . S
C78 C77 1.391 . S
C78 C79 1.392 . S
C79 H56 0.948 . S
C79 C78 1.392 . S
C79 C80 1.419 . S
C80 C79 1.419 . S
C80 C81 1.391 . S
C80 C84 1.397 . S
C81 C76 1.391 . S
C81 C80 1.391 . S
C81 C82 1.399 . S
C82 C81 1.399 . S
C82 C83 1.396 . S
C82 C85 1.453 . S
C82 C86 1.684 . S
C83 C73 1.723 . S
C83 C82 1.396 . S
C83 C84 1.394 . S
C84 C54 1.723 1_645 S
C84 C80 1.397 . S
C84 C83 1.394 . S
C85 H57 0.982 . S
C85 H61 0.979 . S
C85 H62 0.977 . S
C85 C82 1.453 . S
C86 H58 0.979 . S
C86 H59 0.980 . S
C86 H60 0.983 . S
C86 C82 1.684 . S
H87 C105 0.948 . S
H88 C46 0.948 . S
H89 C64 0.979 . S
H90 C64 0.980 . S
H91 C64 0.983 1_455 S
H92 C63 0.982 . S
H93 C63 0.979 1_565 S
H94 C63 0.977 . S
H95 C65 0.948 . S
H96 C67 0.947 . S
H97 C68 0.948 . S
H98 C74 0.982 . S
H99 C74 0.979 . S
H100 C74 0.977 . S
H101 C75 0.979 . S
H102 C75 0.980 . S
H103 C75 0.983 . S
H104 C48 0.947 . S
C105 C48 1.392 . S
C105 C49 1.419 . S
C105 H87 0.948 . S
C106 C107 1.391 . S
C106 C110 1.391 . S
C106 H148 0.948 . S
C107 C106 1.391 . S
C107 C108 1.391 . S
C108 C107 1.391 . S
C108 H164 0.947 . S
C108 C165 1.392 . S
C109 C110 1.391 . S
C109 C113 1.397 . S
C109 C165 1.419 . S
C110 C106 1.391 . S
C110 C109 1.391 . S
C110 C111 1.399 . S
C111 C110 1.399 . S
C111 C114 1.396 . S
C111 C123 1.469 . S
C111 C124 1.684 . S
H112 C136 0.948 . S
C113 C109 1.397 . S
C113 C114 1.394 . S
C113 C132 1.723 . S
C114 C111 1.396 . S
C114 C113 1.394 . S
C114 C144 1.723 1_445 S
H115 C138 0.947 . S
H116 C139 0.948 . S
H117 C145 0.982 . S
H118 C146 0.979 . S
H119 C146 0.980 . S
H120 C146 0.983 . S
H121 C145 0.979 . S
H122 C145 0.977 . S
C123 C111 1.469 . S
C123 H152 0.972 1_545 S
C123 H153 0.988 . S
C123 H154 0.963 1_545 S
C124 C111 1.684 . S
C124 H149 0.979 1_455 S
C124 H150 0.980 1_455 S
C124 H151 0.983 . S
C125 C126 1.391 . S
C125 C130 1.391 . S
C125 H155 0.948 . S
C126 C125 1.391 . S
C126 C127 1.391 1_445 S
C127 C126 1.391 1_665 S
C127 C128 1.392 . S
C127 H156 0.947 . S
C128 C127 1.392 . S
C128 C129 1.419 1_655 S
C128 H157 0.948 . S
C129 C128 1.419 1_455 S
C129 C130 1.391 1_565 S
C129 C133 1.397 . S
C130 C125 1.391 . S
C130 C129 1.391 1_545 S
C130 C131 1.399 . S
C131 C130 1.399 . S
C131 C132 1.396 . S
C131 C134 1.453 . S
C131 C135 1.684 . S
C132 C113 1.723 . S
C132 C131 1.396 . S
C132 C133 1.394 1_545 S
C133 C129 1.397 . S
C133 C132 1.394 1_565 S
C133 C143 1.723 1_455 S
C134 C131 1.453 . S
C134 H158 0.982 . S
C134 H159 0.979 . S
C134 H160 0.977 . S
C135 C131 1.684 . S
C135 H161 0.979 . S
C135 H162 0.980 . S
C135 H163 0.983 . S
C136 H112 0.948 . S
C136 C137 1.391 . S
C136 C141 1.391 . S
C137 C136 1.391 . S
C137 C138 1.391 . S
C138 H115 0.947 . S
C138 C137 1.391 . S
C138 C139 1.392 . S
C139 H116 0.948 . S
C139 C138 1.392 . S
C139 C140 1.419 . S
C140 C139 1.419 . S
C140 C141 1.391 . S
C140 C144 1.397 . S
C141 C136 1.391 . S
C141 C140 1.391 . S
C141 C142 1.399 . S
C142 C141 1.399 . S
C142 C143 1.396 . S
C142 C145 1.453 . S
C142 C146 1.684 . S
C143 C133 1.723 1_655 S
C143 C142 1.396 . S
C143 C144 1.394 . S
C144 C114 1.723 1_665 S
C144 C140 1.397 . S
C144 C143 1.394 . S
C145 H117 0.982 . S
C145 H121 0.979 . S
C145 H122 0.977 . S
C145 C142 1.453 . S
C146 H118 0.979 . S
C146 H119 0.980 . S
C146 H120 0.983 . S
C146 C142 1.684 . S
H147 C165 0.948 . S
H148 C106 0.948 . S
H149 C124 0.979 1_655 S
H150 C124 0.980 1_655 S
H151 C124 0.983 . S
H152 C123 0.972 1_565 S
H153 C123 0.988 . S
H154 C123 0.963 1_565 S
H155 C125 0.948 . S
H156 C127 0.947 . S
H157 C128 0.948 . S
H158 C134 0.982 . S
H159 C134 0.979 . S
H160 C134 0.977 . S
H161 C135 0.979 . S
H162 C135 0.980 . S
H163 C135 0.983 . S
H164 C108 0.947 . S
C165 C108 1.392 . S
C165 C109 1.419 . S
C165 H147 0.948 . S
C166 C167 1.391 . S
C166 C170 1.391 . S
C166 H208 0.948 . S
C167 C166 1.391 . S
C167 C168 1.391 . S
C168 C167 1.391 . S
C168 H224 0.947 . S
C168 C225 1.392 . S
C169 C170 1.391 . S
C169 C173 1.397 . S
C169 C225 1.419 . S
C170 C166 1.391 . S
C170 C169 1.391 . S
C170 C171 1.399 . S
C171 C170 1.399 . S
C171 C174 1.396 . S
C171 C183 1.453 . S
C171 C184 1.684 . S
H172 C196 0.948 . S
C173 C169 1.397 . S
C173 C174 1.394 . S
C173 C192 1.723 . S
C174 C171 1.396 . S
C174 C173 1.394 . S
C174 C204 1.723 . S
H175 C198 0.947 . S
H176 C199 0.948 . S
H177 C205 0.982 . S
H178 C206 0.979 . S
H179 C206 0.980 . S
H180 C206 0.983 . S
H181 C205 0.979 . S
H182 C205 0.977 . S
C183 C171 1.453 . S
C183 H212 0.982 . S
C183 H213 0.979 . S
C183 H214 0.977 . S
C184 C171 1.684 . S
C184 H209 0.979 . S
C184 H210 0.980 . S
C184 H211 0.983 . S
C185 C186 1.391 . S
C185 C190 1.391 . S
C185 H215 0.948 . S
C186 C185 1.391 . S
C186 C187 1.391 . S
C187 C186 1.391 . S
C187 C188 1.392 . S
C187 H216 0.947 . S
C188 C187 1.392 . S
C188 C189 1.419 . S
C188 H217 0.948 . S
C189 C188 1.419 . S
C189 C190 1.391 . S
C189 C193 1.397 . S
C190 C185 1.391 . S
C190 C189 1.391 . S
C190 C191 1.399 . S
C191 C190 1.399 . S
C191 C192 1.396 . S
C191 C194 1.453 . S
C191 C195 1.684 . S
C192 C173 1.723 . S
C192 C191 1.396 . S
C192 C193 1.394 . S
C193 C189 1.397 . S
C193 C192 1.394 . S
C193 C203 1.723 . S
C194 C191 1.453 . S
C194 H218 0.982 . S
C194 H219 0.979 . S
C194 H220 0.977 . S
C195 C191 1.684 . S
C195 H221 0.979 . S
C195 H222 0.980 . S
C195 H223 0.983 . S
C196 H172 0.948 . S
C196 C197 1.391 . S
C196 C201 1.391 . S
C197 C196 1.391 . S
C197 C198 1.391 . S
C198 H175 0.947 . S
C198 C197 1.391 . S
C198 C199 1.392 . S
C199 H176 0.948 . S
C199 C198 1.392 . S
C199 C200 1.419 . S
C200 C199 1.419 . S
C200 C201 1.391 . S
C200 C204 1.397 . S
C201 C196 1.391 . S
C201 C200 1.391 . S
C201 C202 1.399 . S
C202 C201 1.399 . S
C202 C203 1.396 . S
C202 C205 1.453 . S
C202 C206 1.684 . S
C203 C193 1.723 . S
C203 C202 1.396 . S
C203 C204 1.394 . S
C204 C174 1.723 . S
C204 C200 1.397 . S
C204 C203 1.394 . S
C205 H177 0.982 . S
C205 H181 0.979 . S
C205 H182 0.977 . S
C205 C202 1.453 . S
C206 H178 0.979 . S
C206 H179 0.980 . S
C206 H180 0.983 . S
C206 C202 1.684 . S
H207 C225 0.948 . S
H208 C166 0.948 . S
H209 C184 0.979 . S
H210 C184 0.980 . S
H211 C184 0.983 . S
H212 C183 0.982 . S
H213 C183 0.979 . S
H214 C183 0.977 . S
H215 C185 0.948 . S
H216 C187 0.947 . S
H217 C188 0.948 . S
H218 C194 0.982 . S
H219 C194 0.979 . S
H220 C194 0.977 . S
H221 C195 0.979 . S
H222 C195 0.980 . S
H223 C195 0.983 . S
H224 C168 0.947 . S
C225 C168 1.392 . S
C225 C169 1.419 . S
C225 H207 0.948 . S
C226 C227 1.391 . S
C226 C230 1.391 . S
C226 H268 0.948 . S
C227 C226 1.391 . S
C227 C228 1.391 . S
C228 C227 1.391 . S
C228 H284 0.947 . S
C228 C285 1.392 . S
C229 C230 1.391 . S
C229 C233 1.397 . S
C229 C285 1.419 . S
C230 C226 1.391 . S
C230 C229 1.391 . S
C230 C231 1.399 . S
C231 C230 1.399 . S
C231 C234 1.396 . S
C231 C243 1.453 . S
C231 C244 1.684 . S
H232 C256 0.948 . S
C233 C229 1.397 . S
C233 C234 1.394 . S
C233 C252 1.723 . S
C234 C231 1.396 . S
C234 C233 1.394 . S
C234 C264 1.723 . S
H235 C258 0.947 . S
H236 C259 0.948 . S
H237 C265 0.982 . S
H238 C266 0.979 . S
H239 C266 0.980 . S
H240 C266 0.983 . S
H241 C265 0.979 . S
H242 C265 0.977 . S
C243 C231 1.453 . S
C243 H272 0.982 . S
C243 H273 0.979 . S
C243 H274 0.977 . S
C244 C231 1.684 . S
C244 H269 0.979 . S
C244 H270 0.980 . S
C244 H271 0.983 . S
C245 C246 1.391 . S
C245 C250 1.391 . S
C245 H275 0.948 . S
C246 C245 1.391 . S
C246 C247 1.391 . S
C247 C246 1.391 . S
C247 C248 1.392 . S
C247 H276 0.947 . S
C248 C247 1.392 . S
C248 C249 1.419 . S
C248 H277 0.948 . S
C249 C248 1.419 . S
C249 C250 1.391 . S
C249 C253 1.397 . S
C250 C245 1.391 . S
C250 C249 1.391 . S
C250 C251 1.399 . S
C251 C250 1.399 . S
C251 C252 1.396 . S
C251 C254 1.453 . S
C251 C255 1.684 . S
C252 C233 1.723 . S
C252 C251 1.396 . S
C252 C253 1.394 . S
C253 C249 1.397 . S
C253 C252 1.394 . S
C253 C263 1.723 . S
C254 C251 1.453 . S
C254 H278 0.982 . S
C254 H279 0.979 . S
C254 H280 0.977 . S
C255 C251 1.684 . S
C255 H281 0.979 . S
C255 H282 0.980 . S
C255 H283 0.983 . S
C256 H232 0.948 . S
C256 C257 1.391 . S
C256 C261 1.391 . S
C257 C256 1.391 . S
C257 C258 1.391 . S
C258 H235 0.947 . S
C258 C257 1.391 . S
C258 C259 1.392 . S
C259 H236 0.948 . S
C259 C258 1.392 . S
C259 C260 1.419 . S
C260 C259 1.419 . S
C260 C261 1.391 . S
C260 C264 1.397 . S
C261 C256 1.391 . S
C261 C260 1.391 . S
C261 C262 1.399 . S
C262 C261 1.399 . S
C262 C263 1.396 . S
C262 C265 1.453 . S
C262 C266 1.684 . S
C263 C253 1.723 . S
C263 C262 1.396 . S
C263 C264 1.394 . S
C264 C234 1.723 . S
C264 C260 1.397 . S
C264 C263 1.394 . S
C265 H237 0.982 . S
C265 H241 0.979 . S
C265 H242 0.977 . S
C265 C262 1.453 . S
C266 H238 0.979 . S
C266 H239 0.980 . S
C266 H240 0.983 . S
C266 C262 1.684 . S
H267 C285 0.948 . S
H268 C226 0.948 . S
H269 C244 0.979 . S
H270 C244 0.980 . S
H271 C244 0.983 . S
H272 C243 0.982 . S
H273 C243 0.979 . S
H274 C243 0.977 . S
H275 C245 0.948 . S
H276 C247 0.947 . S
H277 C248 0.948 . S
H278 C254 0.982 . S
H279 C254 0.979 . S
H280 C254 0.977 . S
H281 C255 0.979 . S
H282 C255 0.980 . S
H283 C255 0.983 . S
H284 C228 0.947 . S
C285 C228 1.392 . S
C285 C229 1.419 . S
C285 H267 0.948 . S
C286 C287 1.349 . S
C286 C288 1.327 . S
C286 H311 0.950 . S
C287 C286 1.349 . S
C287 C303 1.349 . S
C288 C286 1.327 . S
C288 C307 1.429 . S
C288 H312 0.950 . S
C289 C306 1.574 . S
C289 C308 1.368 . S
C289 H313 0.949 . S
H290 C294 0.949 . S
C291 C292 1.349 . S
C291 C293 1.327 . S
C291 H314 0.950 . S
C292 C291 1.349 . S
C292 C304 1.349 . S
C293 C291 1.327 . S
C293 C309 1.429 . S
C293 H315 0.950 . S
C294 H290 0.949 . S
C294 C302 1.574 . S
C294 C310 1.368 . S
H295 C303 0.950 . S
H296 C301 0.950 . S
H297 C302 0.949 . S
H298 C304 0.950 . S
H299 C305 0.950 . S
H300 C306 0.949 . S
C301 H296 0.950 . S
C301 C303 1.327 . S
C301 C307 1.429 . S
C302 C294 1.574 . S
C302 H297 0.949 . S
C302 C308 1.368 . S
C303 C287 1.349 . S
C303 H295 0.950 . S
C303 C301 1.327 . S
C304 C292 1.349 . S
C304 H298 0.950 . S
C304 C305 1.327 . S
C305 H299 0.950 . S
C305 C304 1.327 . S
C305 C309 1.429 . S
C306 C289 1.574 . S
C306 H300 0.949 . S
C306 C310 1.368 . S
C307 C288 1.429 . S
C307 C301 1.429 . S
C307 C308 1.523 . S
C308 C289 1.368 . S
C308 C302 1.368 . S
C308 C307 1.523 . S
C309 C293 1.429 . S
C309 C305 1.429 . S
C309 C310 1.523 . S
C310 C294 1.368 . S
C310 C306 1.368 . S
C310 C309 1.523 . S
H311 C286 0.950 . S
H312 C288 0.950 . S
H313 C289 0.949 . S
H314 C291 0.950 . S
H315 C293 0.950 . S
C316 C317 1.349 . S
C316 C318 1.327 . S
C316 H341 0.950 . S
C317 C316 1.349 . S
C317 C333 1.349 1_556 S
C318 C316 1.327 . S
C318 C337 1.429 . S
C318 H342 0.950 . S
C319 C336 1.574 . S
C319 C338 1.368 . S
C319 H343 0.949 1_556 S
H320 C324 0.949 . S
C321 C322 1.349 . S
C321 C323 1.327 . S
C321 H344 0.950 . S
C322 C321 1.349 . S
C322 C334 1.349 . S
C323 C321 1.327 . S
C323 C339 1.429 . S
C323 H345 0.950 . S
C324 H320 0.949 . S
C324 C332 1.574 . S
C324 C340 1.368 . S
H325 C333 0.950 . S
H326 C331 0.950 . S
H327 C332 0.949 . S
H328 C334 0.950 . S
H329 C335 0.950 . S
H330 C336 0.956 . S
C331 H326 0.950 . S
C331 C333 1.327 . S
C331 C337 1.429 1_554 S
C332 C324 1.574 . S
C332 H327 0.949 . S
C332 C338 1.368 . S
C333 C317 1.349 1_554 S
C333 H325 0.950 . S
C333 C331 1.327 . S
C334 C322 1.349 . S
C334 H328 0.950 . S
C334 C335 1.327 . S
C335 H329 0.950 . S
C335 C334 1.327 . S
C335 C339 1.429 . S
C336 C319 1.574 . S
C336 H330 0.956 . S
C336 C340 1.368 . S
C337 C318 1.429 . S
C337 C331 1.429 1_556 S
C337 C338 1.523 . S
C338 C319 1.368 . S
C338 C332 1.368 . S
C338 C337 1.523 . S
C339 C323 1.429 . S
C339 C335 1.429 . S
C339 C340 1.523 . S
C340 C324 1.368 . S
C340 C336 1.368 . S
C340 C339 1.523 . S
H341 C316 0.950 . S
H342 C318 0.950 . S
H343 C319 0.949 1_554 S
H344 C321 0.950 . S
H345 C323 0.950 . S
C346 C347 1.349 . S
C346 C348 1.327 . S
C346 H371 0.914 1_554 S
C347 C346 1.349 . S
C347 C363 1.349 . S
C348 C346 1.327 . S
C348 C367 1.429 . S
C348 H372 0.950 . S
C349 C366 1.574 . S
C349 C368 1.368 . S
C349 H373 0.949 . S
H350 C354 0.949 . S
C351 C352 1.349 . S
C351 C353 1.327 . S
C351 H374 0.950 . S
C352 C351 1.349 . S
C352 C364 1.349 . S
C353 C351 1.327 . S
C353 C369 1.429 . S
C353 H375 0.950 . S
C354 H350 0.949 . S
C354 C362 1.574 . S
C354 C370 1.368 . S
H355 C363 0.950 . S
H356 C361 0.950 . S
H357 C362 0.949 . S
H358 C364 0.950 . S
H359 C365 0.950 . S
H360 C366 0.949 . S
C361 H356 0.950 . S
C361 C363 1.327 . S
C361 C367 1.429 . S
C362 C354 1.574 . S
C362 H357 0.949 . S
C362 C368 1.368 . S
C363 C347 1.349 . S
C363 H355 0.950 . S
C363 C361 1.327 . S
C364 C352 1.349 . S
C364 H358 0.950 . S
C364 C365 1.327 . S
C365 H359 0.950 . S
C365 C364 1.327 . S
C365 C369 1.429 . S
C366 C349 1.574 . S
C366 H360 0.949 . S
C366 C370 1.368 . S
C367 C348 1.429 . S
C367 C361 1.429 . S
C367 C368 1.523 . S
C368 C349 1.368 . S
C368 C362 1.368 . S
C368 C367 1.523 . S
C369 C353 1.429 . S
C369 C365 1.429 . S
C369 C370 1.523 . S
C370 C354 1.368 . S
C370 C366 1.368 . S
C370 C369 1.523 . S
H371 C346 0.914 1_556 S
H372 C348 0.950 . S
H373 C349 0.949 . S
H374 C351 0.950 . S
H375 C353 0.950 . S
C376 C377 1.349 . S
C376 C378 1.327 . S
C376 H401 0.950 . S
C377 C376 1.349 . S
C377 C393 1.349 1_556 S
C378 C376 1.327 . S
C378 C397 1.429 . S
C378 H402 0.950 . S
C379 C396 1.574 . S
C379 C398 1.368 . S
C379 H403 0.949 . S
H380 C384 0.949 . S
C381 C382 1.349 . S
C381 C383 1.327 . S
C381 H404 0.950 . S
C382 C381 1.349 . S
C382 C394 1.349 . S
C383 C381 1.327 . S
C383 C399 1.429 . S
C383 H405 0.950 . S
C384 H380 0.949 . S
C384 C392 1.574 . S
C384 C400 1.368 . S
H385 C393 0.950 . S
H386 C391 0.948 1_554 S
H387 C392 0.949 . S
H388 C394 0.950 . S
H389 C395 0.950 . S
H390 C396 0.949 . S
C391 H386 0.948 1_556 S
C391 C393 1.326 1_556 S
C391 C397 1.430 . S
C392 C384 1.574 . S
C392 H387 0.949 . S
C392 C398 1.368 . S
C393 C377 1.349 1_554 S
C393 H385 0.950 . S
C393 C391 1.326 1_554 S
C394 C382 1.349 . S
C394 H388 0.950 . S
C394 C395 1.327 . S
C395 H389 0.950 . S
C395 C394 1.327 . S
C395 C399 1.429 . S
C396 C379 1.574 . S
C396 H390 0.949 . S
C396 C400 1.368 . S
C397 C378 1.429 . S
C397 C391 1.430 . S
C397 C398 1.523 . S
C398 C379 1.368 . S
C398 C392 1.368 . S
C398 C397 1.523 . S
C399 C383 1.429 . S
C399 C395 1.429 . S
C399 C400 1.523 . S
C400 C384 1.368 . S
C400 C396 1.368 . S
C400 C399 1.523 . S
H401 C376 0.950 . S
H402 C378 0.950 . S
H403 C379 0.949 . S
H404 C381 0.950 . S
H405 C383 0.950 . S
C406 C407 1.349 . S
C406 C408 1.327 . S
C406 H431 0.950 . S
C407 C406 1.349 . S
C407 C423 1.349 . S
C408 C406 1.327 . S
C408 C427 1.429 . S
C408 H432 0.950 . S
C409 C426 1.574 . S
C409 C428 1.368 . S
C409 H433 0.949 . S
H410 C414 0.949 . S
C411 C412 1.349 . S
C411 C413 1.327 . S
C411 H434 0.950 . S
C412 C411 1.349 . S
C412 C424 1.349 . S
C413 C411 1.327 . S
C413 C429 1.429 . S
C413 H435 0.950 . S
C414 H410 0.949 . S
C414 C422 1.574 . S
C414 C430 1.368 . S
H415 C423 0.950 . S
H416 C421 0.950 . S
H417 C422 0.949 . S
H418 C424 0.950 . S
H419 C425 0.950 . S
H420 C426 0.949 . S
C421 H416 0.950 . S
C421 C423 1.327 . S
C421 C427 1.429 . S
C422 C414 1.574 . S
C422 H417 0.949 . S
C422 C428 1.368 . S
C423 C407 1.349 . S
C423 H415 0.950 . S
C423 C421 1.327 . S
C424 C412 1.349 . S
C424 H418 0.950 . S
C424 C425 1.327 . S
C425 H419 0.950 . S
C425 C424 1.327 . S
C425 C429 1.429 . S
C426 C409 1.574 . S
C426 H420 0.949 . S
C426 C430 1.368 . S
C427 C408 1.429 . S
C427 C421 1.429 . S
C427 C428 1.523 . S
C428 C409 1.368 . S
C428 C422 1.368 . S
C428 C427 1.523 . S
C429 C413 1.429 . S
C429 C425 1.429 . S
C429 C430 1.523 . S
C430 C414 1.368 . S
C430 C426 1.368 . S
C430 C429 1.523 . S
H431 C406 0.950 . S
H432 C408 0.950 . S
H433 C409 0.949 . S
H434 C411 0.950 . S
H435 C413 0.950 . S
C436 C437 1.349 . S
C436 C438 1.327 . S
C436 H461 0.950 . S
C437 C436 1.349 . S
C437 C453 1.349 . S
C438 C436 1.327 . S
C438 C457 1.429 . S
C438 H462 0.950 . S
C439 C456 1.574 . S
C439 C458 1.368 . S
C439 H463 0.949 . S
H440 C444 0.949 . S
C441 C442 1.349 . S
C441 C443 1.327 . S
C441 H464 0.950 . S
C442 C441 1.349 . S
C442 C454 1.349 . S
C443 C441 1.327 . S
C443 C459 1.429 . S
C443 H465 0.950 . S
C444 H440 0.949 . S
C444 C452 1.574 . S
C444 C460 1.368 . S
H445 C453 0.950 . S
H446 C451 0.950 . S
H447 C452 0.949 . S
H448 C454 0.950 . S
H449 C455 0.950 . S
H450 C456 0.949 . S
C451 H446 0.950 . S
C451 C453 1.327 . S
C451 C457 1.429 . S
C452 C444 1.574 . S
C452 H447 0.949 . S
C452 C458 1.368 . S
C453 C437 1.349 . S
C453 H445 0.950 . S
C453 C451 1.327 . S
C454 C442 1.349 . S
C454 H448 0.950 . S
C454 C455 1.327 . S
C455 H449 0.950 . S
C455 C454 1.327 . S
C455 C459 1.429 . S
C456 C439 1.574 . S
C456 H450 0.949 . S
C456 C460 1.368 . S
C457 C438 1.429 . S
C457 C451 1.429 . S
C457 C458 1.523 . S
C458 C439 1.368 . S
C458 C452 1.368 . S
C458 C457 1.523 . S
C459 C443 1.429 . S
C459 C455 1.429 . S
C459 C460 1.523 . S
C460 C444 1.368 . S
C460 C456 1.368 . S
C460 C459 1.523 . S
H461 C436 0.950 . S
H462 C438 0.950 . S
H463 C439 0.949 . S
H464 C441 0.950 . S
H465 C443 0.950 . S
C466 C467 1.349 . S
C466 C468 1.327 . S
C466 H491 0.950 . S
C467 C466 1.349 . S
C467 C483 1.349 . S
C468 C466 1.327 . S
C468 C487 1.429 . S
C468 H492 0.950 . S
C469 C486 1.574 . S
C469 C488 1.368 . S
C469 H493 0.949 . S
H470 C474 0.949 . S
C471 C472 1.349 . S
C471 C473 1.327 . S
C471 H494 0.950 . S
C472 C471 1.349 . S
C472 C484 1.349 . S
C473 C471 1.327 . S
C473 C489 1.429 . S
C473 H495 0.950 . S
C474 H470 0.949 . S
C474 C482 1.574 . S
C474 C490 1.368 . S
H475 C483 0.950 . S
H476 C481 0.950 . S
H477 C482 0.949 . S
H478 C484 0.950 . S
H479 C485 0.950 . S
H480 C486 0.949 . S
C481 H476 0.950 . S
C481 C483 1.327 . S
C481 C487 1.429 . S
C482 C474 1.574 . S
C482 H477 0.949 . S
C482 C488 1.368 . S
C483 C467 1.349 . S
C483 H475 0.950 . S
C483 C481 1.327 . S
C484 C472 1.349 . S
C484 H478 0.950 . S
C484 C485 1.327 . S
C485 H479 0.950 . S
C485 C484 1.327 . S
C485 C489 1.429 . S
C486 C469 1.574 . S
C486 H480 0.949 . S
C486 C490 1.368 . S
C487 C468 1.429 . S
C487 C481 1.429 . S
C487 C488 1.523 . S
C488 C469 1.368 . S
C488 C482 1.368 . S
C488 C487 1.523 . S
C489 C473 1.429 . S
C489 C485 1.429 . S
C489 C490 1.523 . S
C490 C474 1.368 . S
C490 C486 1.368 . S
C490 C489 1.523 . S
H491 C466 0.950 . S
H492 C468 0.950 . S
H493 C469 0.949 . S
H494 C471 0.950 . S
H495 C473 0.950 . S
C496 C497 1.349 . S
C496 C498 1.327 . S
C496 H521 0.950 . S
C497 C496 1.349 . S
C497 C513 1.349 . S
C498 C496 1.327 . S
C498 C517 1.429 . S
C498 H522 0.950 . S
C499 C516 1.574 . S
C499 C518 1.368 . S
C499 H523 0.949 . S
H500 C504 0.949 . S
C501 C502 1.349 . S
C501 C503 1.327 . S
C501 H524 0.950 . S
C502 C501 1.349 . S
C502 C514 1.349 . S
C503 C501 1.327 . S
C503 C519 1.429 . S
C503 H525 0.950 . S
C504 H500 0.949 . S
C504 C512 1.574 . S
C504 C520 1.368 . S
H505 C513 0.950 . S
H506 C511 0.950 . S
H507 C512 0.949 . S
H508 C514 0.950 . S
H509 C515 0.950 . S
H510 C516 0.949 . S
C511 H506 0.950 . S
C511 C513 1.327 . S
C511 C517 1.429 . S
C512 C504 1.574 . S
C512 H507 0.949 . S
C512 C518 1.368 . S
C513 C497 1.349 . S
C513 H505 0.950 . S
C513 C511 1.327 . S
C514 C502 1.349 . S
C514 H508 0.950 . S
C514 C515 1.327 . S
C515 H509 0.950 . S
C515 C514 1.327 . S
C515 C519 1.429 . S
C516 C499 1.574 . S
C516 H510 0.949 . S
C516 C520 1.368 . S
C517 C498 1.429 . S
C517 C511 1.429 . S
C517 C518 1.523 . S
C518 C499 1.368 . S
C518 C512 1.368 . S
C518 C517 1.523 . S
C519 C503 1.429 . S
C519 C515 1.429 . S
C519 C520 1.523 . S
C520 C504 1.368 . S
C520 C516 1.368 . S
C520 C519 1.523 . S
H521 C496 0.950 . S
H522 C498 0.950 . S
H523 C499 0.949 . S
H524 C501 0.950 . S
H525 C503 0.950 . S
C526 C527 1.349 1_655 S
C526 C528 1.327 . S
C526 H551 0.950 . S
C527 C526 1.349 1_455 S
C527 C543 1.349 1_545 S
C528 C526 1.327 . S
C528 C547 1.429 1_655 S
C528 H552 0.950 . S
C529 C546 1.574 . S
C529 C548 1.368 1_565 S
C529 H553 0.949 . S
H530 C534 0.949 . S
C531 C532 1.360 1_565 S
C531 C533 1.327 . S
C531 H554 0.950 . S
C532 C531 1.360 1_545 S
C532 C544 1.339 1_455 S
C533 C531 1.327 . S
C533 C549 1.429 1_565 S
C533 H555 0.950 . S
C534 H530 0.949 . S
C534 C542 1.574 . S
C534 C550 1.368 1_655 S
H535 C543 0.950 . S
H536 C541 0.950 . S
H537 C542 0.949 . S
H538 C544 0.950 . S
H539 C545 0.950 . S
H540 C546 0.949 . S
C541 H536 0.950 . S
C541 C543 1.327 . S
C541 C547 1.429 1_565 S
C542 C534 1.574 . S
C542 H537 0.949 . S
C542 C548 1.368 1_655 S
C543 C527 1.349 1_565 S
C543 H535 0.950 . S
C543 C541 1.327 . S
C544 C532 1.339 1_655 S
C544 H538 0.950 . S
C544 C545 1.327 . S
C545 H539 0.950 . S
C545 C544 1.327 . S
C545 C549 1.429 1_655 S
C546 C529 1.574 . S
C546 H540 0.949 . S
C546 C550 1.368 1_565 S
C547 C528 1.429 1_455 S
C547 C541 1.429 1_545 S
C547 C548 1.523 . S
C548 C529 1.368 1_545 S
C548 C542 1.368 1_455 S
C548 C547 1.523 . S
C549 C533 1.429 1_545 S
C549 C545 1.429 1_455 S
C549 C550 1.523 . S
C550 C534 1.368 1_455 S
C550 C546 1.368 1_545 S
C550 C549 1.523 . S
H551 C526 0.950 . S
H552 C528 0.950 . S
H553 C529 0.949 . S
H554 C531 0.950 . S
H555 C533 0.950 . S
C556 C557 1.349 . S
C556 C558 1.327 . S
C556 H581 0.950 . S
C557 C556 1.349 . S
C557 C573 1.349 1_445 S
C558 C556 1.327 . S
C558 C577 1.429 . S
C558 H582 0.950 . S
C559 C576 1.574 . S
C559 C578 1.368 1_665 S
C559 H583 0.949 . S
H560 C564 0.949 . S
C561 C562 1.349 1_665 S
C561 C563 1.327 . S
C561 H584 0.950 . S
C562 C561 1.349 1_445 S
C562 C574 1.349 . S
C563 C561 1.327 . S
C563 C579 1.429 1_665 S
C563 H585 0.950 . S
C564 H560 0.949 . S
C564 C572 1.574 . S
C564 C580 1.368 . S
H565 C573 0.950 . S
H566 C571 0.950 . S
H567 C572 0.949 . S
H568 C574 0.950 . S
H569 C575 0.950 . S
H570 C576 0.949 . S
C571 H566 0.950 . S
C571 C573 1.327 . S
C571 C577 1.429 1_665 S
C572 C564 1.574 . S
C572 H567 0.949 . S
C572 C578 1.368 . S
C573 C557 1.349 1_665 S
C573 H565 0.950 . S
C573 C571 1.327 . S
C574 C562 1.349 . S
C574 H568 0.950 . S
C574 C575 1.327 . S
C575 H569 0.950 . S
C575 C574 1.327 . S
C575 C579 1.429 . S
C576 C559 1.574 . S
C576 H570 0.949 . S
C576 C580 1.368 1_665 S
C577 C558 1.429 . S
C577 C571 1.429 1_445 S
C577 C578 1.523 . S
C578 C559 1.368 1_445 S
C578 C572 1.368 . S
C578 C577 1.523 . S
C579 C563 1.429 1_445 S
C579 C575 1.429 . S
C579 C580 1.523 . S
C580 C564 1.368 . S
C580 C576 1.368 1_445 S
C580 C579 1.523 . S
H581 C556 0.950 . S
H582 C558 0.950 . S
H583 C559 0.949 . S
H584 C561 0.950 . S
H585 C563 0.950 . S
C586 C587 1.349 . S
C586 C588 1.327 . S
C586 H611 0.950 . S
C587 C586 1.349 . S
C587 C603 1.349 . S
C588 C586 1.327 . S
C588 C607 1.429 . S
C588 H612 0.950 . S
C589 C606 1.574 . S
C589 C608 1.368 . S
C589 H613 0.949 . S
H590 C594 0.949 . S
C591 C592 1.349 . S
C591 C593 1.327 . S
C591 H614 0.950 . S
C592 C591 1.349 . S
C592 C604 1.349 . S
C593 C591 1.327 . S
C593 C609 1.429 . S
C593 H615 0.950 . S
C594 H590 0.949 . S
C594 C602 1.574 . S
C594 C610 1.368 . S
H595 C603 0.950 . S
H596 C601 0.950 . S
H597 C602 0.949 . S
H598 C604 0.950 . S
H599 C605 0.950 . S
H600 C606 0.949 . S
C601 H596 0.950 . S
C601 C603 1.327 . S
C601 C607 1.429 . S
C602 C594 1.574 . S
C602 H597 0.949 . S
C602 C608 1.368 . S
C603 C587 1.349 . S
C603 H595 0.950 . S
C603 C601 1.327 . S
C604 C592 1.349 . S
C604 H598 0.950 . S
C604 C605 1.327 . S
C605 H599 0.950 . S
C605 C604 1.327 . S
C605 C609 1.429 . S
C606 C589 1.574 . S
C606 H600 0.949 . S
C606 C610 1.368 . S
C607 C588 1.429 . S
C607 C601 1.429 . S
C607 C608 1.523 . S
C608 C589 1.368 . S
C608 C602 1.368 . S
C608 C607 1.523 . S
C609 C593 1.429 . S
C609 C605 1.429 . S
C609 C610 1.523 . S
C610 C594 1.368 . S
C610 C606 1.368 . S
C610 C609 1.523 . S
H611 C586 0.950 . S
H612 C588 0.950 . S
H613 C589 0.949 . S
H614 C591 0.950 . S
H615 C593 0.950 . S
C616 C617 1.349 . S
C616 C618 1.327 . S
C616 H641 0.950 . S
C617 C616 1.349 . S
C617 C633 1.349 . S
C618 C616 1.327 . S
C618 C637 1.429 . S
C618 H642 0.950 . S
C619 C636 1.574 . S
C619 C638 1.368 . S
C619 H643 0.949 . S
H620 C624 0.949 . S
C621 C622 1.349 . S
C621 C623 1.327 . S
C621 H644 0.950 . S
C622 C621 1.349 . S
C622 C634 1.349 . S
C623 C621 1.327 . S
C623 C639 1.429 . S
C623 H645 0.950 . S
C624 H620 0.949 . S
C624 C632 1.574 . S
C624 C640 1.368 . S
H625 C633 0.950 . S
H626 C631 0.950 . S
H627 C632 0.949 . S
H628 C634 0.950 . S
H629 C635 0.950 . S
H630 C636 0.949 . S
C631 H626 0.950 . S
C631 C633 1.327 . S
C631 C637 1.429 . S
C632 C624 1.574 . S
C632 H627 0.949 . S
C632 C638 1.368 . S
C633 C617 1.349 . S
C633 H625 0.950 . S
C633 C631 1.327 . S
C634 C622 1.349 . S
C634 H628 0.950 . S
C634 C635 1.327 . S
C635 H629 0.950 . S
C635 C634 1.327 . S
C635 C639 1.429 . S
C636 C619 1.574 . S
C636 H630 0.949 . S
C636 C640 1.368 . S
C637 C618 1.429 . S
C637 C631 1.429 . S
C637 C638 1.523 . S
C638 C619 1.368 . S
C638 C632 1.368 . S
C638 C637 1.523 . S
C639 C623 1.429 . S
C639 C635 1.429 . S
C639 C640 1.523 . S
C640 C624 1.368 . S
C640 C636 1.368 . S
C640 C639 1.523 . S
H641 C616 0.950 . S
H642 C618 0.950 . S
H643 C619 0.949 . S
H644 C621 0.950 . S
H645 C623 0.950 . S
C292 C257 1.414 . S
C287 C21 1.411 . S
C317 C19 1.400 1_556 S
C322 C197 1.409 . S
C347 C18 1.367 . S
C352 C227 1.320 . S
C377 C20 1.393 1_556 S
C382 C167 1.338 . S
C407 C44 1.411 . S
C412 C137 1.414 . S
C437 C42 1.400 . S
C442 C77 1.408 . S
C472 C107 1.320 . S
C467 C41 1.367 . S
C502 C47 1.338 . S
C497 C43 1.393 . S
C527 C16 1.488 . S
C532 C66 1.463 1_455 S
C557 C17 1.448 . S
C562 C126 1.425 . S
C592 C186 1.467 . S
C587 C39 1.488 . S
C617 C40 1.448 . S
C622 C246 1.425 . S
