# Generated by pormake.
# Topology ptr, (4,4)-cn, num edge types: 1
# Building blocks:
#     Node 0, Type 0, BuildingBlock: CEKHIL_clean_sbu_0, # of connection points: 4
#     Node 1, Type 0, BuildingBlock: CEKHIL_clean_sbu_0, # of connection points: 4
#     Node 2, Type 0, BuildingBlock: CEKHIL_clean_sbu_0, # of connection points: 4
#     Node 3, Type 0, BuildingBlock: CEKHIL_clean_sbu_0, # of connection points: 4
#     Node 4, Type 0, BuildingBlock: CEKHIL_clean_sbu_0, # of connection points: 4
#     Node 5, Type 0, BuildingBlock: CEKHIL_clean_sbu_0, # of connection points: 4
#     Node 6, Type 0, BuildingBlock: CEKHIL_clean_sbu_0, # of connection points: 4
#     Node 7, Type 0, BuildingBlock: CEKHIL_clean_sbu_0, # of connection points: 4
#     Node 8, Type 0, BuildingBlock: CEKHIL_clean_sbu_0, # of connection points: 4
#     Node 9, Type 0, BuildingBlock: CEKHIL_clean_sbu_0, # of connection points: 4
#     Node 10, Type 0, BuildingBlock: CEKHIL_clean_sbu_0, # of connection points: 4
#     Node 11, Type 0, BuildingBlock: CEKHIL_clean_sbu_0, # of connection points: 4
#     Node 12, Type 0, BuildingBlock: CEKHIL_clean_sbu_0, # of connection points: 4
#     Node 13, Type 0, BuildingBlock: CEKHIL_clean_sbu_0, # of connection points: 4
#     Node 14, Type 0, BuildingBlock: CEKHIL_clean_sbu_0, # of connection points: 4
#     Node 15, Type 0, BuildingBlock: CEKHIL_clean_sbu_0, # of connection points: 4
#     Node 16, Type 0, BuildingBlock: CEKHIL_clean_sbu_0, # of connection points: 4
#     Node 17, Type 0, BuildingBlock: CEKHIL_clean_sbu_0, # of connection points: 4
#     Node 18, Type 1, BuildingBlock: MUDLON_clean_linker_0, # of connection points: 4
#     Node 19, Type 1, BuildingBlock: MUDLON_clean_linker_0, # of connection points: 4
#     Node 20, Type 1, BuildingBlock: MUDLON_clean_linker_0, # of connection points: 4
#     Node 21, Type 1, BuildingBlock: MUDLON_clean_linker_0, # of connection points: 4
#     Node 22, Type 1, BuildingBlock: MUDLON_clean_linker_0, # of connection points: 4
#     Node 23, Type 1, BuildingBlock: MUDLON_clean_linker_0, # of connection points: 4
#     Node 24, Type 1, BuildingBlock: MUDLON_clean_linker_0, # of connection points: 4
#     Node 25, Type 1, BuildingBlock: MUDLON_clean_linker_0, # of connection points: 4
#     Node 26, Type 1, BuildingBlock: MUDLON_clean_linker_0, # of connection points: 4
#     Node 27, Type 1, BuildingBlock: MUDLON_clean_linker_0, # of connection points: 4
#     Node 28, Type 1, BuildingBlock: MUDLON_clean_linker_0, # of connection points: 4
#     Node 29, Type 1, BuildingBlock: MUDLON_clean_linker_0, # of connection points: 4
#     Node 30, Type 1, BuildingBlock: MUDLON_clean_linker_0, # of connection points: 4
#     Node 31, Type 1, BuildingBlock: MUDLON_clean_linker_0, # of connection points: 4
#     Node 32, Type 1, BuildingBlock: MUDLON_clean_linker_0, # of connection points: 4
#     Node 33, Type 1, BuildingBlock: MUDLON_clean_linker_0, # of connection points: 4
#     Node 34, Type 1, BuildingBlock: MUDLON_clean_linker_0, # of connection points: 4
#     Node 35, Type 1, BuildingBlock: MUDLON_clean_linker_0, # of connection points: 4
#     Edge 36, Type (0, 1), BuildingBlock: CIFDUS_clean_linker_0, # of connection points: 2
#     Edge 37, Type (0, 1), BuildingBlock: CIFDUS_clean_linker_0, # of connection points: 2
#     Edge 38, Type (0, 1), BuildingBlock: CIFDUS_clean_linker_0, # of connection points: 2
#     Edge 39, Type (0, 1), BuildingBlock: CIFDUS_clean_linker_0, # of connection points: 2
#     Edge 40, Type (0, 1), BuildingBlock: CIFDUS_clean_linker_0, # of connection points: 2
#     Edge 41, Type (0, 1), BuildingBlock: CIFDUS_clean_linker_0, # of connection points: 2
#     Edge 42, Type (0, 1), BuildingBlock: CIFDUS_clean_linker_0, # of connection points: 2
#     Edge 43, Type (0, 1), BuildingBlock: CIFDUS_clean_linker_0, # of connection points: 2
#     Edge 44, Type (0, 1), BuildingBlock: CIFDUS_clean_linker_0, # of connection points: 2
#     Edge 45, Type (0, 1), BuildingBlock: CIFDUS_clean_linker_0, # of connection points: 2
#     Edge 46, Type (0, 1), BuildingBlock: CIFDUS_clean_linker_0, # of connection points: 2
#     Edge 47, Type (0, 1), BuildingBlock: CIFDUS_clean_linker_0, # of connection points: 2
#     Edge 48, Type (0, 1), BuildingBlock: CIFDUS_clean_linker_0, # of connection points: 2
#     Edge 49, Type (0, 1), BuildingBlock: CIFDUS_clean_linker_0, # of connection points: 2
#     Edge 50, Type (0, 1), BuildingBlock: CIFDUS_clean_linker_0, # of connection points: 2
#     Edge 51, Type (0, 1), BuildingBlock: CIFDUS_clean_linker_0, # of connection points: 2
#     Edge 52, Type (0, 1), BuildingBlock: CIFDUS_clean_linker_0, # of connection points: 2
#     Edge 53, Type (0, 1), BuildingBlock: CIFDUS_clean_linker_0, # of connection points: 2
#     Edge 54, Type (0, 1), BuildingBlock: CIFDUS_clean_linker_0, # of connection points: 2
#     Edge 55, Type (0, 1), BuildingBlock: CIFDUS_clean_linker_0, # of connection points: 2
#     Edge 56, Type (0, 1), BuildingBlock: CIFDUS_clean_linker_0, # of connection points: 2
#     Edge 57, Type (0, 1), BuildingBlock: CIFDUS_clean_linker_0, # of connection points: 2
#     Edge 58, Type (0, 1), BuildingBlock: CIFDUS_clean_linker_0, # of connection points: 2
#     Edge 59, Type (0, 1), BuildingBlock: CIFDUS_clean_linker_0, # of connection points: 2
#     Edge 60, Type (0, 1), BuildingBlock: CIFDUS_clean_linker_0, # of connection points: 2
#     Edge 61, Type (0, 1), BuildingBlock: CIFDUS_clean_linker_0, # of connection points: 2
#     Edge 62, Type (0, 1), BuildingBlock: CIFDUS_clean_linker_0, # of connection points: 2
#     Edge 63, Type (0, 1), BuildingBlock: CIFDUS_clean_linker_0, # of connection points: 2
#     Edge 64, Type (0, 1), BuildingBlock: CIFDUS_clean_linker_0, # of connection points: 2
#     Edge 65, Type (0, 1), BuildingBlock: CIFDUS_clean_linker_0, # of connection points: 2
#     Edge 66, Type (0, 1), BuildingBlock: CIFDUS_clean_linker_0, # of connection points: 2
#     Edge 67, Type (0, 1), BuildingBlock: CIFDUS_clean_linker_0, # of connection points: 2
#     Edge 68, Type (0, 1), BuildingBlock: CIFDUS_clean_linker_0, # of connection points: 2
#     Edge 69, Type (0, 1), BuildingBlock: CIFDUS_clean_linker_0, # of connection points: 2
#     Edge 70, Type (0, 1), BuildingBlock: CIFDUS_clean_linker_0, # of connection points: 2
#     Edge 71, Type (0, 1), BuildingBlock: CIFDUS_clean_linker_0, # of connection points: 2
#     Edge 72, Type (0, 1), BuildingBlock: CIFDUS_clean_linker_0, # of connection points: 2
#     Edge 73, Type (0, 1), BuildingBlock: CIFDUS_clean_linker_0, # of connection points: 2
#     Edge 74, Type (0, 1), BuildingBlock: CIFDUS_clean_linker_0, # of connection points: 2
#     Edge 75, Type (0, 1), BuildingBlock: CIFDUS_clean_linker_0, # of connection points: 2
#     Edge 76, Type (0, 1), BuildingBlock: CIFDUS_clean_linker_0, # of connection points: 2
#     Edge 77, Type (0, 1), BuildingBlock: CIFDUS_clean_linker_0, # of connection points: 2
#     Edge 78, Type (0, 1), BuildingBlock: CIFDUS_clean_linker_0, # of connection points: 2
#     Edge 79, Type (0, 1), BuildingBlock: CIFDUS_clean_linker_0, # of connection points: 2
#     Edge 80, Type (0, 1), BuildingBlock: CIFDUS_clean_linker_0, # of connection points: 2
#     Edge 81, Type (0, 1), BuildingBlock: CIFDUS_clean_linker_0, # of connection points: 2
#     Edge 82, Type (0, 1), BuildingBlock: CIFDUS_clean_linker_0, # of connection points: 2
#     Edge 83, Type (0, 1), BuildingBlock: CIFDUS_clean_linker_0, # of connection points: 2
#     Edge 84, Type (0, 1), BuildingBlock: CIFDUS_clean_linker_0, # of connection points: 2
#     Edge 85, Type (0, 1), BuildingBlock: CIFDUS_clean_linker_0, # of connection points: 2
#     Edge 86, Type (0, 1), BuildingBlock: CIFDUS_clean_linker_0, # of connection points: 2
#     Edge 87, Type (0, 1), BuildingBlock: CIFDUS_clean_linker_0, # of connection points: 2
#     Edge 88, Type (0, 1), BuildingBlock: CIFDUS_clean_linker_0, # of connection points: 2
#     Edge 89, Type (0, 1), BuildingBlock: CIFDUS_clean_linker_0, # of connection points: 2
#     Edge 90, Type (0, 1), BuildingBlock: CIFDUS_clean_linker_0, # of connection points: 2
#     Edge 91, Type (0, 1), BuildingBlock: CIFDUS_clean_linker_0, # of connection points: 2
#     Edge 92, Type (0, 1), BuildingBlock: CIFDUS_clean_linker_0, # of connection points: 2
#     Edge 93, Type (0, 1), BuildingBlock: CIFDUS_clean_linker_0, # of connection points: 2
#     Edge 94, Type (0, 1), BuildingBlock: CIFDUS_clean_linker_0, # of connection points: 2
#     Edge 95, Type (0, 1), BuildingBlock: CIFDUS_clean_linker_0, # of connection points: 2
#     Edge 96, Type (0, 1), BuildingBlock: CIFDUS_clean_linker_0, # of connection points: 2
#     Edge 97, Type (0, 1), BuildingBlock: CIFDUS_clean_linker_0, # of connection points: 2
#     Edge 98, Type (0, 1), BuildingBlock: CIFDUS_clean_linker_0, # of connection points: 2
#     Edge 99, Type (0, 1), BuildingBlock: CIFDUS_clean_linker_0, # of connection points: 2
#     Edge 100, Type (0, 1), BuildingBlock: CIFDUS_clean_linker_0, # of connection points: 2
#     Edge 101, Type (0, 1), BuildingBlock: CIFDUS_clean_linker_0, # of connection points: 2
#     Edge 102, Type (0, 1), BuildingBlock: CIFDUS_clean_linker_0, # of connection points: 2
#     Edge 103, Type (0, 1), BuildingBlock: CIFDUS_clean_linker_0, # of connection points: 2
#     Edge 104, Type (0, 1), BuildingBlock: CIFDUS_clean_linker_0, # of connection points: 2
#     Edge 105, Type (0, 1), BuildingBlock: CIFDUS_clean_linker_0, # of connection points: 2
#     Edge 106, Type (0, 1), BuildingBlock: CIFDUS_clean_linker_0, # of connection points: 2
#     Edge 107, Type (0, 1), BuildingBlock: CIFDUS_clean_linker_0, # of connection points: 2
# Relax obj value: 0.033
# Max RMSD: 0.099
# Mean RMSD: 0.065
data_MOF--net-ptr--node1-CEKHIL_clean_sbu_0--node2-MUDLON_clean_linker_0--edge1-CIFDUS_clean_linker_0
_symmetry_space_group_name_H-M    P1
_symmetry_Int_Tables_number       1
_symmetry_cell_setting            triclinic
loop_
_symmetry_equiv_pos_as_xyz
'x, y, z'
_cell_length_a     95.846838
_cell_length_b     94.859243
_cell_length_c     58.32226
_cell_angle_alpha  90.97673
_cell_angle_beta   89.479463
_cell_angle_gamma 120.92206
loop_
_atom_site_label
_atom_site_type_symbol
_atom_site_fract_x
_atom_site_fract_y
_atom_site_fract_z
_atom_type_partial_charge
Co0 Co 0.00503 0.35548 0.01604 0.0
O1 O 0.0124 0.34521 0.03691 0.0
O2 O 0.02849 0.3664 0.01491 0.0
C3 C 0.98505 0.33197 0.00041 0.0
O4 O 0.00199 0.36873 0.99159 0.0
Co5 Co 0.97066 0.35046 0.01979 0.0
O6 O 0.97589 0.36208 0.99017 0.0
C7 C 0.99582 0.37262 0.05264 0.0
C8 C 0.02695 0.35568 0.02985 0.0
C9 C 0.99038 0.36975 0.98242 0.0
O10 O 0.00645 0.37121 0.04085 0.0
O11 O 0.98057 0.36425 0.04826 0.0
O12 O 0.99997 0.33821 0.99355 0.0
O13 O 0.98276 0.33919 0.01781 0.0
Co14 Co 0.648 0.65398 0.01478 0.0
O15 O 0.66373 0.66517 0.99113 0.0
O16 O 0.66108 0.6439 0.00998 0.0
C17 C 0.65274 0.677 0.03352 0.0
O18 O 0.63347 0.6398 0.04101 0.0
Co19 Co 0.61841 0.65869 0.02009 0.0
O20 O 0.61648 0.64875 0.05035 0.0
C21 C 0.6184 0.63692 0.98333 0.0
C22 C 0.66878 0.65507 0.99453 0.0
C23 C 0.62281 0.64008 0.05438 0.0
O24 O 0.6318 0.63884 0.99109 0.0
O25 O 0.61153 0.6444 0.99173 0.0
O26 O 0.66196 0.6709 0.03693 0.0
O27 O 0.64186 0.66981 0.01769 0.0
Co28 Co 0.35346 0.00327 0.01016 0.0
O29 O 0.34425 0.01121 0.9883 0.0
O30 O 0.36531 0.02709 0.01076 0.0
C31 C 0.32952 0.98433 0.02544 0.0
O32 O 0.36582 0.9997 0.03564 0.0
Co33 Co 0.3462 0.96755 0.00834 0.0
O34 O 0.35442 0.97248 0.04026 0.0
C35 C 0.36969 0.9916 0.97563 0.0
C36 C 0.35506 0.02587 0.99528 0.0
C37 C 0.36376 0.98725 0.04704 0.0
O38 O 0.36849 0.00304 0.98594 0.0
O39 O 0.3612 0.97645 0.98117 0.0
O40 O 0.3365 0.99962 0.03194 0.0
O41 O 0.33642 0.98109 0.00867 0.0
Co42 Co 0.00289 0.64895 0.00944 0.0
O43 O 0.99776 0.66056 0.98797 0.0
O44 O 0.9793 0.63912 0.00728 0.0
C45 C 0.0223 0.67169 0.02766 0.0
O46 O 0.00448 0.6344 0.03363 0.0
Co47 Co 0.03737 0.65405 0.00623 0.0
O48 O 0.03071 0.6412 0.03475 0.0
C49 C 0.01276 0.63215 0.97287 0.0
C50 C 0.98257 0.65058 0.99248 0.0
C51 C 0.01614 0.63306 0.04215 0.0
O52 O 0.00218 0.63386 0.98427 0.0
O53 O 0.02796 0.64027 0.97761 0.0
O54 O 0.00708 0.66543 0.0329 0.0
O55 O 0.02522 0.66509 0.01009 0.0
Co56 Co 0.35343 0.35166 0.01252 0.0
O57 O 0.33771 0.3409 0.03649 0.0
O58 O 0.34419 0.36488 0.02165 0.0
C59 C 0.34416 0.32888 0.99029 0.0
O60 O 0.36818 0.36617 0.98687 0.0
Co61 Co 0.37853 0.34167 -0.00096 0.0
O62 O 0.38225 0.35529 0.97173 0.0
C63 C 0.38425 0.36261 0.04026 0.0
C64 C 0.3352 0.35309 0.03568 0.0
C65 C 0.37776 0.36581 0.97156 0.0
O66 O 0.37155 0.3634 0.03565 0.0
O67 O 0.38842 0.35381 0.02858 0.0
O68 O 0.33711 0.33748 0.98994 0.0
O69 O 0.35578 0.33362 0.005 0.0
Co70 Co 0.64623 0.00232 0.01356 0.0
O71 O 0.65625 0.99459 0.03424 0.0
O72 O 0.63398 0.97848 0.01416 0.0
C73 C 0.66949 0.02052 0.99591 0.0
O74 O 0.63286 0.00586 0.98973 0.0
Co75 Co 0.65478 0.03847 0.01639 0.0
O76 O 0.64054 0.03263 0.98919 0.0
C77 C 0.63349 0.01532 0.05137 0.0
C78 C 0.64494 0.97981 0.0285 0.0
C79 C 0.63195 0.01792 0.98163 0.0
O80 O 0.63257 0.00339 0.03932 0.0
O81 O 0.64299 0.03044 0.04635 0.0
O82 O 0.66185 0.0051 0.98995 0.0
O83 O 0.66373 0.02427 0.01357 0.0
Co84 Co 0.67607 0.68963 0.33808 0.0
O85 O 0.68373 0.67955 0.3588 0.0
O86 O 0.69954 0.70277 0.34055 0.0
C87 C 0.65907 0.66641 0.31843 0.0
O88 O 0.67269 0.70339 0.31473 0.0
Co89 Co 0.64014 0.68019 0.3383 0.0
O90 O 0.64588 0.69242 0.30917 0.0
C91 C 0.66189 0.70228 0.37457 0.0
C92 C 0.69829 0.69167 0.35462 0.0
C93 C 0.66063 0.70256 0.30389 0.0
O94 O 0.67386 0.70241 0.36425 0.0
O95 O 0.64714 0.6934 0.36777 0.0
O96 O 0.67449 0.67476 0.31363 0.0
O97 O 0.65461 0.67154 0.33617 0.0
Co98 Co 0.31569 0.98393 0.34688 0.0
O99 O 0.33035 0.9954 0.32216 0.0
O100 O 0.32726 0.97288 0.33785 0.0
C101 C 0.32276 0.00648 0.36873 0.0
O102 O 0.30221 0.96911 0.37318 0.0
Co103 Co 0.28796 0.9906 0.35895 0.0
O104 O 0.28354 0.97546 0.38456 0.0
C105 C 0.28428 0.96937 0.31913 0.0
C106 C 0.33462 0.98447 0.32286 0.0
C107 C 0.29057 0.96723 0.38644 0.0
O108 O 0.29775 0.97024 0.3242 0.0
O109 O 0.27887 0.97744 0.32996 0.0
O110 O 0.33133 0.99943 0.36908 0.0
O111 O 0.31112 1.0006 0.35386 0.0
Co112 Co 0.02596 0.33749 0.34397 0.0
O113 O 0.0175 0.34337 0.31853 0.0
O114 O 0.0388 0.36111 0.33914 0.0
C115 C 1.00155 0.32143 0.3607 0.0
O116 O 0.03775 0.33576 0.37203 0.0
Co117 Co 0.01571 0.30102 0.35083 0.0
O118 O 0.02531 0.3091 0.38158 0.0
C119 C 0.04025 0.32058 0.31561 0.0
C120 C 0.02875 0.3585 0.32248 0.0
C121 C 0.03545 0.32423 0.38578 0.0
O122 O 0.04033 0.3336 0.32248 0.0
O123 O 0.03061 0.3063 0.32376 0.0
O124 O 0.00941 0.33725 0.3639 0.0
O125 O 0.00799 0.31597 0.34619 0.0
Co126 Co 0.66138 0.97967 0.35044 0.0
O127 O 0.65372 0.98916 0.32865 0.0
O128 O 0.63794 0.96646 0.34803 0.0
C129 C 0.67838 0.00318 0.3695 0.0
O130 O 0.66468 0.96655 0.37474 0.0
Co131 Co 0.69752 0.98934 0.35099 0.0
O132 O 0.69127 0.97552 0.37877 0.0
C133 C 0.67607 0.96742 0.31455 0.0
C134 C 0.63917 0.97713 0.33319 0.0
C135 C 0.67646 0.96627 0.3847 0.0
O136 O 0.66376 0.9662 0.32537 0.0
O137 O 0.69081 0.97734 0.32059 0.0
O138 O 0.66292 0.9951 0.37406 0.0
O139 O 0.68282 0.99772 0.35215 0.0
Co140 Co 0.02367 0.68077 0.35138 0.0
O141 O 0.00697 0.67088 0.37433 0.0
O142 O 0.01237 0.6928 0.35453 0.0
C143 C 0.01721 0.65695 0.33335 0.0
O144 O 0.03937 0.69392 0.32554 0.0
Co145 Co 0.0511 0.67268 0.34762 0.0
O146 O 0.05411 0.68227 0.31674 0.0
C147 C 0.05302 0.69608 0.38343 0.0
C148 C 0.00334 0.68194 0.36971 0.0
C149 C 0.04926 0.69217 0.31237 0.0
O150 O 0.04012 0.6952 0.37537 0.0
O151 O 0.05879 0.68741 0.37555 0.0
O152 O 0.00927 0.66431 0.32898 0.0
O153 O 0.02784 0.66347 0.34961 0.0
Co154 Co 0.31844 0.34273 0.35466 0.0
O155 O 0.32912 0.33586 0.37559 0.0
O156 O 0.30688 0.31899 0.35587 0.0
C157 C 0.34116 0.36137 0.33626 0.0
O158 O 0.30447 0.34495 0.33066 0.0
Co159 Co 0.32503 0.37824 0.35513 0.0
O160 O 0.31195 0.37141 0.32652 0.0
C161 C 0.30476 0.35554 0.39134 0.0
C162 C 0.31807 0.32087 0.37015 0.0
C163 C 0.30352 0.35633 0.32043 0.0
O164 O 0.30462 0.34363 0.38025 0.0
O165 O 0.3134 0.37057 0.38532 0.0
O166 O 0.33409 0.34584 0.33093 0.0
O167 O 0.33515 0.365 0.35377 0.0
Co168 Co 0.34001 0.02196 0.68024 0.0
O169 O 0.34421 0.01002 0.70267 0.0
O170 O 0.36313 0.03315 0.68691 0.0
C171 C 0.3235 0.99976 0.65828 0.0
O172 O 0.34028 0.03735 0.65586 0.0
Co173 Co 0.30505 0.01514 0.6736 0.0
O174 O 0.31458 0.03032 0.64758 0.0
C175 C 0.32421 0.03495 0.71338 0.0
C176 C 0.35946 0.02122 0.70099 0.0
C177 C 0.32987 0.03907 0.64426 0.0
O178 O 0.3367 0.03477 0.70547 0.0
O179 O 0.31015 0.02695 0.70401 0.0
O180 O 0.3392 0.00711 0.65611 0.0
O181 O 0.31835 0.0052 0.67476 0.0
Co182 Co 0.98617 0.31667 0.6742 0.0
O183 O 0.00234 0.32704 0.65068 0.0
O184 O 0.99748 0.30481 0.66927 0.0
C185 C 0.99285 0.34013 0.69335 0.0
O186 O 0.97107 0.30298 0.70016 0.0
Co187 Co 0.95857 0.3244 0.68051 0.0
O188 O 0.95479 0.31272 0.70985 0.0
C189 C 0.95671 0.30236 0.64265 0.0
C190 C 0.00614 0.31596 0.65422 0.0
C191 C 0.96038 0.30332 0.71335 0.0
O192 O 0.96925 0.30247 0.65061 0.0
O193 O 0.95138 0.31128 0.65107 0.0
O194 O 1.00107 0.33291 0.69645 0.0
O195 O 0.9818 0.33377 0.67763 0.0
Co196 Co 0.69253 0.66637 0.67536 0.0
O197 O 0.68341 0.67346 0.65212 0.0
O198 O 0.70595 0.68987 0.67154 0.0
C199 C 0.66895 0.65048 0.69396 0.0
O200 O 0.70529 0.66404 0.70133 0.0
Co201 Co 0.68264 0.6301 0.68032 0.0
O202 O 0.69432 0.63745 0.70999 0.0
C203 C 0.70514 0.64958 0.64326 0.0
C204 C 0.69534 0.68827 0.65639 0.0
C205 C 0.70425 0.65262 0.71415 0.0
O206 O 0.70562 0.66249 0.65152 0.0
O207 O 0.69588 0.63521 0.65139 0.0
O208 O 0.67727 0.66625 0.69757 0.0
O209 O 0.67435 0.64489 0.67798 0.0
Co210 Co 0.33979 0.31795 0.67339 0.0
O211 O 0.33331 0.32799 0.65084 0.0
O212 O 0.31666 0.30405 0.6668 0.0
C213 C 0.35394 0.34087 0.69529 0.0
O214 O 0.34229 0.30411 0.69781 0.0
Co215 Co 0.37665 0.33081 0.6803 0.0
O216 O 0.36884 0.3157 0.70655 0.0
C217 C 0.35921 0.30907 0.6407 0.0
C218 C 0.31869 0.31546 0.65271 0.0
C219 C 0.35395 0.30479 0.70963 0.0
O220 O 0.34556 0.30681 0.64833 0.0
O221 O 0.37292 0.31914 0.65002 0.0
O222 O 0.33828 0.33164 0.69755 0.0
O223 O 0.36023 0.33674 0.67877 0.0
Co224 Co 0.68967 0.0166 0.67897 0.0
O225 O 0.67437 0.00468 0.70284 0.0
O226 O 0.67572 0.02558 0.68454 0.0
C227 C 0.68589 0.99415 0.65958 0.0
O228 O 0.70348 0.03135 0.65275 0.0
Co229 Co 0.72028 0.01354 0.67285 0.0
O230 O 0.72391 0.02676 0.64515 0.0
C231 C 0.71888 0.03358 0.71096 0.0
C232 C 0.6685 0.01414 0.69977 0.0
C233 C 0.71594 0.0338 0.64088 0.0
O234 O 0.70589 0.0322 0.7024 0.0
O235 O 0.72556 0.02582 0.70291 0.0
O236 O 0.67593 0.99943 0.65686 0.0
O237 O 0.69684 0.00163 0.6752 0.0
Co238 Co 0.97972 0.66848 0.68318 0.0
O239 O 0.99187 0.66328 0.70398 0.0
O240 O 0.96904 0.64494 0.68653 0.0
C241 C 1.00141 0.68675 0.66265 0.0
O242 O 0.96446 0.66883 0.65943 0.0
Co243 Co 0.98477 0.70328 0.68072 0.0
O244 O 0.97061 0.69474 0.65329 0.0
C245 C 0.96585 0.68187 0.71899 0.0
C246 C 0.98103 0.64797 0.7 0.0
C247 C 0.96261 0.67943 0.64849 0.0
O248 O 0.96655 0.66991 0.70944 0.0
O249 O 0.97333 0.69646 0.71106 0.0
O250 O 0.99464 0.67108 0.65858 0.0
O251 O 0.99576 0.69085 0.68012 0.0
H252 H 0.24553 0.36038 0.16233 0.0
N253 N 0.21969 0.32992 0.152 0.0
H254 H 0.26134 0.36857 0.19774 0.0
H255 H 0.21257 0.31272 0.19029 0.0
H256 H 0.22805 0.32095 0.22622 0.0
H257 H 0.22773 0.3076 0.14318 0.0
H258 H 0.24848 0.30964 0.11682 0.0
H259 H 0.2358 0.35416 0.12045 0.0
H260 H 0.25623 0.35609 0.09296 0.0
H261 H 0.21663 0.35622 0.16595 0.0
H262 H 0.19402 0.3114 0.12555 0.0
H263 H 0.19278 0.35848 0.16142 0.0
H264 H 0.1705 0.31429 0.11928 0.0
H265 H 0.13014 0.36275 0.17271 0.0
H266 H 0.11743 0.36336 0.20917 0.0
H267 H 0.08199 0.31158 0.20054 0.0
H268 H 0.09511 0.31115 0.16471 0.0
H269 H 0.09411 0.31694 0.11765 0.0
H270 H 0.0795 0.325 0.09228 0.0
H271 H 0.11653 0.37611 0.10305 0.0
H272 H 0.13025 0.36777 0.12984 0.0
H273 H 0.15016 0.36344 0.14266 0.0
H274 H 0.17554 0.36336 0.14008 0.0
H275 H 0.14808 0.31015 0.13972 0.0
N276 N 0.11946 0.33647 0.14369 0.0
H277 H 0.12288 0.31056 0.14057 0.0
C278 C 0.22792 0.33586 0.1737 0.0
C279 C 0.24156 0.35177 0.17627 0.0
C280 C 0.25052 0.35647 0.1966 0.0
C281 C 0.24603 0.34536 0.21475 0.0
C282 C 0.23199 0.32969 0.21243 0.0
C283 C 0.22305 0.32501 0.19206 0.0
C284 C 0.23015 0.3306 0.13363 0.0
C285 C 0.23372 0.31806 0.13193 0.0
C286 C 0.24557 0.31926 0.11675 0.0
C287 C 0.25408 0.33303 0.1026 0.0
C288 C 0.2501 0.34542 0.10377 0.0
C289 C 0.23828 0.34426 0.11925 0.0
C290 C 0.20704 0.33334 0.14649 0.0
C291 C 0.2067 0.34699 0.15568 0.0
C292 C 0.19298 0.34838 0.15284 0.0
C293 C 0.17944 0.33641 0.1403 0.0
C294 C 0.18039 0.32348 0.1297 0.0
C295 C 0.19394 0.32189 0.133 0.0
C296 C 0.11355 0.33684 0.16624 0.0
C297 C 0.11984 0.35153 0.17902 0.0
C298 C 0.11246 0.35186 0.19971 0.0
C299 C 0.09866 0.33752 0.20784 0.0
C300 C 0.09275 0.32279 0.19513 0.0
C301 C 0.10017 0.32249 0.1746 0.0
C302 C 0.11333 0.34168 0.12535 0.0
C303 C 0.09923 0.32985 0.11404 0.0
C304 C 0.09094 0.33455 0.09943 0.0
C305 C 0.09676 0.35129 0.09548 0.0
C306 C 0.11149 0.36313 0.10591 0.0
C307 C 0.11958 0.35837 0.12095 0.0
C308 C 0.13463 0.33696 0.1414 0.0
C309 C 0.14963 0.3518 0.14144 0.0
C310 C 0.16418 0.3517 0.14029 0.0
C311 C 0.16402 0.33674 0.13962 0.0
C312 C 0.14885 0.32194 0.13958 0.0
C313 C 0.13438 0.3221 0.1403 0.0
H314 H 0.71564 0.79668 0.17173 0.0
N315 N 0.69236 0.79918 0.15148 0.0
H316 H 0.7131 0.78105 0.20602 0.0
H317 H 0.66703 0.7873 0.18247 0.0
H318 H 0.66458 0.77212 0.21686 0.0
H319 H 0.66274 0.77094 0.14574 0.0
H320 H 0.65691 0.74801 0.12014 0.0
H321 H 0.71137 0.79875 0.11847 0.0
H322 H 0.7056 0.77569 0.09266 0.0
H323 H 0.71268 0.83117 0.14707 0.0
H324 H 0.66161 0.79451 0.14759 0.0
H325 H 0.7061 0.85255 0.14124 0.0
H326 H 0.65485 0.8157 0.14354 0.0
H327 H 0.68905 0.91197 0.1535 0.0
H328 H 0.69485 0.92993 0.18658 0.0
H329 H 0.645 0.89923 0.20928 0.0
H330 H 0.64006 0.88035 0.17736 0.0
H331 H 0.63419 0.88406 0.12797 0.0
H332 H 0.63376 0.90281 0.10031 0.0
H333 H 0.68447 0.92134 0.08506 0.0
H334 H 0.68477 0.90267 0.11334 0.0
H335 H 0.68887 0.88778 0.1603 0.0
H336 H 0.69642 0.86727 0.16042 0.0
H337 H 0.65388 0.83468 0.12003 0.0
N338 N 0.6601 0.88406 0.14319 0.0
H339 H 0.64569 0.85519 0.12127 0.0
C340 C 0.69161 0.79323 0.17435 0.0
C341 C 0.70463 0.79172 0.1819 0.0
C342 C 0.70315 0.78276 0.20149 0.0
C343 C 0.68853 0.77511 0.214 0.0
C344 C 0.67588 0.77757 0.20732 0.0
C345 C 0.67735 0.78646 0.18767 0.0
C346 C 0.68753 0.78668 0.13388 0.0
C347 C 0.67202 0.77237 0.13373 0.0
C348 C 0.66869 0.75919 0.1191 0.0
C349 C 0.68084 0.76001 0.10453 0.0
C350 C 0.69606 0.77465 0.10391 0.0
C351 C 0.69934 0.78785 0.11844 0.0
C352 C 0.68775 0.81129 0.14824 0.0
C353 C 0.70004 0.82778 0.14622 0.0
C354 C 0.69622 0.83998 0.14302 0.0
C355 C 0.6799 0.83599 0.14212 0.0
C356 C 0.66756 0.81934 0.14382 0.0
C357 C 0.67143 0.80712 0.14657 0.0
C358 C 0.66423 0.89443 0.16341 0.0
C359 C 0.67954 0.90882 0.16603 0.0
C360 C 0.68272 0.91934 0.18484 0.0
C361 C 0.67043 0.91625 0.20091 0.0
C362 C 0.65502 0.90194 0.19789 0.0
C363 C 0.65207 0.8911 0.17953 0.0
C364 C 0.65948 0.89206 0.1228 0.0
C365 C 0.64505 0.89181 0.11809 0.0
C366 C 0.64485 0.90255 0.10222 0.0
C367 C 0.65914 0.91379 0.09064 0.0
C368 C 0.67332 0.91308 0.09402 0.0
C369 C 0.6735 0.90232 0.11002 0.0
C370 C 0.66641 0.8731 0.14095 0.0
C371 C 0.68105 0.8764 0.15128 0.0
C372 C 0.68554 0.86452 0.15119 0.0
C373 C 0.67574 0.84912 0.14043 0.0
C374 C 0.66157 0.84619 0.12904 0.0
C375 C 0.65695 0.85799 0.12947 0.0
H376 H 0.1193 0.76485 0.17289 0.0
N377 N 0.11107 0.78542 0.15304 0.0
H378 H 0.10816 0.74989 0.20846 0.0
H379 H 0.0921 0.78913 0.18286 0.0
H380 H 0.08021 0.77367 0.21793 0.0
H381 H 0.08147 0.77337 0.1364 0.0
H382 H 0.06726 0.7509 0.10892 0.0
H383 H 0.12472 0.77061 0.12808 0.0
H384 H 0.11107 0.74893 0.09929 0.0
H385 H 0.1411 0.78853 0.15666 0.0
H386 H 0.1167 0.81511 0.14388 0.0
H387 H 0.16735 0.81348 0.15118 0.0
H388 H 0.14288 0.84049 0.14009 0.0
H389 H 0.23939 0.88781 0.16479 0.0
H390 H 0.25427 0.90069 0.20026 0.0
H391 H 0.22642 0.92465 0.2092 0.0
H392 H 0.21106 0.91088 0.17455 0.0
H393 H 0.22763 0.92213 0.12894 0.0
H394 H 0.24977 0.93673 0.10219 0.0
H395 H 0.25204 0.89266 0.09117 0.0
H396 H 0.2306 0.87864 0.11993 0.0
H397 H 0.21119 0.86462 0.16722 0.0
H398 H 0.18601 0.83831 0.16783 0.0
H399 H 0.16554 0.85572 0.11769 0.0
N400 N 0.21635 0.89244 0.14526 0.0
H401 H 0.19051 0.88257 0.11866 0.0
C402 C 0.10666 0.77827 0.17543 0.0
C403 C 0.11119 0.76723 0.18302 0.0
C404 C 0.10456 0.75846 0.20319 0.0
C405 C 0.0931 0.76039 0.21601 0.0
C406 C 0.08912 0.77196 0.20874 0.0
C407 C 0.09587 0.78081 0.18869 0.0
C408 C 0.10417 0.77386 0.13418 0.0
C409 C 0.08804 0.76823 0.12806 0.0
C410 C 0.07998 0.7554 0.11217 0.0
C411 C 0.08798 0.74803 0.10161 0.0
C412 C 0.10439 0.75409 0.10723 0.0
C413 C 0.11235 0.76674 0.12356 0.0
C414 C 0.12688 0.79991 0.15027 0.0
C415 C 0.14137 0.79973 0.15261 0.0
C416 C 0.15646 0.81415 0.14974 0.0
C417 C 0.15741 0.82916 0.14504 0.0
C418 C 0.1428 0.82921 0.14304 0.0
C419 C 0.12776 0.81474 0.14545 0.0
C420 C 0.22394 0.89823 0.16735 0.0
C421 C 0.23624 0.89549 0.17482 0.0
C422 C 0.24489 0.90307 0.19493 0.0
C423 C 0.24164 0.9138 0.20769 0.0
C424 C 0.22908 0.91622 0.20024 0.0
C425 C 0.2203 0.90842 0.18038 0.0
C426 C 0.22739 0.89934 0.12623 0.0
C427 C 0.23275 0.91558 0.12041 0.0
C428 C 0.24541 0.92386 0.10486 0.0
C429 C 0.25283 0.91596 0.09409 0.0
C430 C 0.2469 0.89932 0.09926 0.0
C431 C 0.23444 0.89115 0.11545 0.0
C432 C 0.20269 0.87583 0.1432 0.0
C433 C 0.20137 0.86288 0.1563 0.0
C434 C 0.18687 0.84763 0.15646 0.0
C435 C 0.17346 0.84482 0.14312 0.0
C436 C 0.17531 0.85749 0.12881 0.0
C437 C 0.18968 0.87282 0.12906 0.0
H438 H 0.34277 0.23609 0.85575 0.0
N439 N 0.31352 0.21008 0.86882 0.0
H440 H 0.34786 0.25222 0.8214 0.0
H441 H 0.29424 0.20156 0.83227 0.0
H442 H 0.29941 0.21722 0.79705 0.0
H443 H 0.29921 0.2275 0.87468 0.0
H444 H 0.30726 0.25087 0.90016 0.0
H445 H 0.3355 0.21955 0.90492 0.0
H446 H 0.34253 0.24181 0.9319 0.0
H447 H 0.34286 0.21148 0.86679 0.0
H448 H 0.29162 0.17929 0.87883 0.0
H449 H 0.34753 0.18891 0.87367 0.0
H450 H 0.29588 0.15636 0.88437 0.0
H451 H 0.35021 0.11755 0.85486 0.0
H452 H 0.34791 0.1035 0.81844 0.0
H453 H 0.29565 0.07506 0.82659 0.0
H454 H 0.29813 0.08976 0.86263 0.0
H455 H 0.30885 0.08719 0.91174 0.0
H456 H 0.31974 0.07459 0.93633 0.0
H457 H 0.36861 0.11301 0.91937 0.0
H458 H 0.35738 0.1255 0.89457 0.0
H459 H 0.3465 0.14023 0.86099 0.0
H460 H 0.34448 0.1647 0.85853 0.0
H461 H 0.30561 0.14438 0.90855 0.0
N462 N 0.32532 0.11198 0.88362 0.0
H463 H 0.30696 0.11939 0.90943 0.0
C464 C 0.31807 0.21762 0.84658 0.0
C465 C 0.3334 0.23165 0.84275 0.0
C466 C 0.33627 0.24089 0.82299 0.0
C467 C 0.32397 0.23617 0.80644 0.0
C468 C 0.30904 0.22146 0.80963 0.0
C469 C 0.30613 0.21234 0.82955 0.0
C470 C 0.31675 0.22174 0.88738 0.0
C471 C 0.30858 0.23048 0.8873 0.0
C472 C 0.31318 0.24386 0.90212 0.0
C473 C 0.32576 0.24855 0.91818 0.0
C474 C 0.33319 0.23904 0.91934 0.0
C475 C 0.32896 0.22599 0.90392 0.0
C476 C 0.31684 0.19706 0.87251 0.0
C477 C 0.33258 0.1995 0.87077 0.0
C478 C 0.33521 0.1865 0.8746 0.0
C479 C 0.32212 0.17069 0.87977 0.0
C480 C 0.30638 0.16836 0.88111 0.0
C481 C 0.30384 0.18142 0.8777 0.0
C482 C 0.32427 0.10478 0.86131 0.0
C483 C 0.33825 0.10851 0.84862 0.0
C484 C 0.33692 0.10031 0.82788 0.0
C485 C 0.3216 0.08807 0.81957 0.0
C486 C 0.30763 0.08457 0.83223 0.0
C487 C 0.30899 0.09289 0.85286 0.0
C488 C 0.33228 0.10717 0.90136 0.0
C489 C 0.3219 0.09313 0.91389 0.0
C490 C 0.32818 0.08597 0.92795 0.0
C491 C 0.34508 0.09273 0.92977 0.0
C492 C 0.35554 0.10738 0.91812 0.0
C493 C 0.34917 0.1146 0.90407 0.0
C494 C 0.32659 0.12777 0.88505 0.0
C495 C 0.33758 0.14104 0.87148 0.0
C496 C 0.33649 0.15518 0.87025 0.0
C497 C 0.32462 0.15651 0.88296 0.0
C498 C 0.31452 0.14366 0.89786 0.0
C499 C 0.31541 0.12943 0.89869 0.0
H500 H 0.76222 0.1063 0.86366 0.0
N501 N 0.7895 0.1101 0.8843 0.0
H502 H 0.75037 0.09141 0.82791 0.0
H503 H 0.80409 0.10144 0.85288 0.0
H504 H 0.79309 0.08781 0.816 0.0
H505 H 0.77577 0.07967 0.89904 0.0
H506 H 0.75202 0.06523 0.92328 0.0
H507 H 0.77486 0.12434 0.90799 0.0
H508 H 0.75184 0.11042 0.93425 0.0
H509 H 0.79136 0.13781 0.86777 0.0
H510 H 0.81699 0.12001 0.90674 0.0
H511 H 0.8155 0.16562 0.86876 0.0
H512 H 0.84108 0.14761 0.90791 0.0
H513 H 0.88155 0.23435 0.85906 0.0
H514 H 0.8931 0.25195 0.82576 0.0
H515 H 0.92976 0.23832 0.82056 0.0
H516 H 0.91731 0.21993 0.85283 0.0
H517 H 0.92219 0.2274 0.8988 0.0
H518 H 0.93675 0.25022 0.92559 0.0
H519 H 0.89474 0.25584 0.93021 0.0
H520 H 0.88072 0.23356 0.90197 0.0
H521 H 0.86955 0.20221 0.84635 0.0
H522 H 0.84299 0.17791 0.85056 0.0
H523 H 0.85246 0.17588 0.92223 0.0
N524 N 0.89352 0.21706 0.87968 0.0
H525 H 0.87926 0.20029 0.91822 0.0
C526 C 0.78385 0.10452 0.86121 0.0
C527 C 0.76905 0.10236 0.85327 0.0
C528 C 0.76235 0.09395 0.83262 0.0
C529 C 0.77055 0.08797 0.81916 0.0
C530 C 0.78609 0.09162 0.82624 0.0
C531 C 0.79255 0.09962 0.84716 0.0
C532 C 0.77721 0.10305 0.90188 0.0
C533 C 0.77073 0.08648 0.907 0.0
C534 C 0.75714 0.07828 0.9211 0.0
C535 C 0.74988 0.08658 0.93112 0.0
C536 C 0.75684 0.10347 0.92666 0.0
C537 C 0.77023 0.11158 0.91191 0.0
C538 C 0.80253 0.12688 0.88706 0.0
C539 C 0.80212 0.13996 0.87681 0.0
C540 C 0.81592 0.1558 0.87732 0.0
C541 C 0.83023 0.15881 0.88834 0.0
C542 C 0.83023 0.14579 0.89952 0.0
C543 C 0.81652 0.13 0.89882 0.0
C544 C 0.89847 0.22564 0.85818 0.0
C545 C 0.89181 0.23487 0.85032 0.0
C546 C 0.89862 0.24512 0.83144 0.0
C547 C 0.91256 0.2468 0.82046 0.0
C548 C 0.9189 0.23722 0.82815 0.0
C549 C 0.91184 0.2267 0.84667 0.0
C550 C 0.90042 0.22872 0.8985 0.0
C551 C 0.91606 0.23341 0.90593 0.0
C552 C 0.92431 0.24644 0.92143 0.0
C553 C 0.91697 0.25498 0.9303 0.0
C554 C 0.90093 0.24979 0.92353 0.0
C555 C 0.89279 0.23691 0.90758 0.0
C556 C 0.8766 0.20397 0.88226 0.0
C557 C 0.86595 0.19715 0.86331 0.0
C558 C 0.85058 0.18305 0.86565 0.0
C559 C 0.84553 0.17503 0.88676 0.0
C560 C 0.85597 0.18179 0.90572 0.0
C561 C 0.8713 0.19593 0.90344 0.0
H562 H 0.7762 0.69132 0.86631 0.0
N563 N 0.78325 0.67128 0.88767 0.0
H564 H 0.75993 0.68553 0.83159 0.0
H565 H 0.77257 0.64425 0.85947 0.0
H566 H 0.7571 0.63868 0.82425 0.0
H567 H 0.75943 0.64024 0.89927 0.0
H568 H 0.73727 0.63348 0.92649 0.0
H569 H 0.782 0.69138 0.91851 0.0
H570 H 0.76004 0.68476 0.94591 0.0
H571 H 0.8131 0.69705 0.88912 0.0
H572 H 0.78632 0.64422 0.89177 0.0
H573 H 0.83862 0.69734 0.89135 0.0
H574 H 0.81177 0.64416 0.89209 0.0
H575 H 0.91762 0.70072 0.87975 0.0
H576 H 0.93277 0.70414 0.84426 0.0
H577 H 0.89529 0.65576 0.82136 0.0
H578 H 0.88025 0.65248 0.85723 0.0
H579 H 0.88244 0.64315 0.89584 0.0
H580 H 0.89564 0.63353 0.92211 0.0
H581 H 0.92024 0.68125 0.95537 0.0
H582 H 0.90708 0.69074 0.92907 0.0
H583 H 0.88177 0.69423 0.87057 0.0
H584 H 0.8556 0.69239 0.86917 0.0
H585 H 0.83504 0.64957 0.91221 0.0
N586 N 0.88961 0.67486 0.89237 0.0
H587 H 0.86102 0.65077 0.91205 0.0
C588 C 0.77573 0.66835 0.86545 0.0
C589 C 0.77225 0.67992 0.85694 0.0
C590 C 0.76299 0.67659 0.83704 0.0
C591 C 0.75708 0.66157 0.8251 0.0
C592 C 0.76116 0.65024 0.8332 0.0
C593 C 0.77025 0.65351 0.85327 0.0
C594 C 0.7723 0.66637 0.90687 0.0
C595 C 0.7599 0.64993 0.9099 0.0
C596 C 0.74724 0.64608 0.92546 0.0
C597 C 0.74682 0.65864 0.93804 0.0
C598 C 0.75994 0.67487 0.93619 0.0
C599 C 0.77253 0.67867 0.92073 0.0
C600 C 0.79788 0.67068 0.88977 0.0
C601 C 0.81279 0.68549 0.88991 0.0
C602 C 0.82737 0.68557 0.89092 0.0
C603 C 0.8274 0.67074 0.89134 0.0
C604 C 0.81232 0.65584 0.89182 0.0
C605 C 0.79769 0.65582 0.8913 0.0
C606 C 0.89789 0.67643 0.87099 0.0
C607 C 0.91269 0.69091 0.86699 0.0
C608 C 0.92126 0.69284 0.8467 0.0
C609 C 0.91519 0.68025 0.82993 0.0
C610 C 0.90034 0.66562 0.83403 0.0
C611 C 0.89171 0.66374 0.85441 0.0
C612 C 0.89391 0.66771 0.91053 0.0
C613 C 0.89028 0.65134 0.90925 0.0
C614 C 0.89775 0.64584 0.92431 0.0
C615 C 0.90902 0.65671 0.94061 0.0
C616 C 0.91163 0.67266 0.9429 0.0
C617 C 0.90411 0.67808 0.92799 0.0
C618 C 0.87354 0.67266 0.89123 0.0
C619 C 0.87156 0.68427 0.87941 0.0
C620 C 0.85657 0.68333 0.87894 0.0
C621 C 0.84312 0.67098 0.89091 0.0
C622 C 0.84501 0.65917 0.90259 0.0
C623 C 0.86001 0.65992 0.90262 0.0
H624 H 0.76815 0.65583 0.48857 0.0
N625 N 0.79606 0.68451 0.47769 0.0
H626 H 0.7516 0.65106 0.5228 0.0
H627 H 0.80402 0.70361 0.51486 0.0
H628 H 0.78785 0.69873 0.54973 0.0
H629 H 0.79316 0.70945 0.46443 0.0
H630 H 0.77363 0.70865 0.43698 0.0
H631 H 0.77744 0.65901 0.44764 0.0
H632 H 0.75825 0.65821 0.41991 0.0
H633 H 0.79062 0.65313 0.47497 0.0
H634 H 0.82791 0.70434 0.47396 0.0
H635 H 0.8111 0.64546 0.4704 0.0
H636 H 0.84875 0.69691 0.47141 0.0
H637 H 0.88227 0.633 0.5049 0.0
H638 H 0.89498 0.6385 0.5427 0.0
H639 H 0.91053 0.68994 0.53627 0.0
H640 H 0.89658 0.68391 0.49955 0.0
H641 H 0.90918 0.68402 0.46521 0.0
H642 H 0.93182 0.68744 0.44183 0.0
H643 H 0.90465 0.63574 0.42399 0.0
H644 H 0.88215 0.63231 0.4482 0.0
H645 H 0.85189 0.63713 0.49181 0.0
H646 H 0.83061 0.64385 0.49048 0.0
H647 H 0.86219 0.68676 0.45038 0.0
N648 N 0.88205 0.65448 0.47647 0.0
H649 H 0.88371 0.68052 0.45329 0.0
C650 C 0.7873 0.6802 0.4991 0.0
C651 C 0.77266 0.66516 0.50194 0.0
C652 C 0.76321 0.66242 0.52164 0.0
C653 C 0.76826 0.67461 0.53895 0.0
C654 C 0.78338 0.68923 0.53654 0.0
C655 C 0.79274 0.69199 0.51678 0.0
C656 C 0.78684 0.68437 0.45821 0.0
C657 C 0.78585 0.69837 0.45431 0.0
C658 C 0.77469 0.69789 0.43858 0.0
C659 C 0.76424 0.68331 0.4264 0.0
C660 C 0.76593 0.66956 0.42931 0.0
C661 C 0.77707 0.67005 0.44509 0.0
C662 C 0.80773 0.67939 0.47435 0.0
C663 C 0.80322 0.66276 0.47355 0.0
C664 C 0.81507 0.65839 0.47133 0.0
C665 C 0.83175 0.67052 0.4706 0.0
C666 C 0.83612 0.68715 0.47137 0.0
C667 C 0.82423 0.69147 0.47305 0.0
C668 C 0.88873 0.65804 0.49931 0.0
C669 C 0.88826 0.64539 0.51192 0.0
C670 C 0.8957 0.64864 0.53341 0.0
C671 C 0.90409 0.66475 0.54256 0.0
C672 C 0.9041 0.67735 0.53005 0.0
C673 C 0.89632 0.67399 0.5088 0.0
C674 C 0.8939 0.65778 0.45867 0.0
C675 C 0.90787 0.67345 0.45594 0.0
C676 C 0.92087 0.67543 0.44241 0.0
C677 C 0.9202 0.66181 0.43132 0.0
C678 C 0.90572 0.64643 0.43269 0.0
C679 C 0.89276 0.64446 0.44628 0.0
C680 C 0.86941 0.65819 0.4727 0.0
C681 C 0.85414 0.64792 0.48258 0.0
C682 C 0.84191 0.65176 0.48161 0.0
C683 C 0.84453 0.66591 0.47029 0.0
C684 C 0.85974 0.67594 0.45968 0.0
C685 C 0.87211 0.67226 0.4611 0.0
H686 H 0.37423 0.13248 0.51575 0.0
N687 N 0.35313 0.12709 0.48249 0.0
H688 H 0.36873 0.11771 0.55199 0.0
H689 H 0.32311 0.10475 0.49952 0.0
H690 H 0.31758 0.08984 0.53501 0.0
H691 H 0.32417 0.11016 0.45952 0.0
H692 H 0.31614 0.08696 0.43305 0.0
H693 H 0.37228 0.11746 0.46408 0.0
H694 H 0.3647 0.09486 0.43673 0.0
H695 H 0.37404 0.15393 0.46033 0.0
H696 H 0.32755 0.13136 0.49445 0.0
H697 H 0.3724 0.17832 0.45334 0.0
H698 H 0.32621 0.156 0.48876 0.0
H699 H 0.37292 0.25875 0.48582 0.0
H700 H 0.37133 0.27231 0.52081 0.0
H701 H 0.324 0.23005 0.53525 0.0
H702 H 0.32557 0.21689 0.49951 0.0
H703 H 0.32006 0.22552 0.46025 0.0
H704 H 0.31478 0.24322 0.43631 0.0
H705 H 0.36366 0.26573 0.40942 0.0
H706 H 0.36896 0.24843 0.43414 0.0
H707 H 0.37531 0.22639 0.47281 0.0
H708 H 0.37522 0.20071 0.47473 0.0
H709 H 0.32325 0.17357 0.46302 0.0
N710 N 0.35012 0.23028 0.46822 0.0
H711 H 0.32355 0.19963 0.46211 0.0
C712 C 0.34915 0.11989 0.50497 0.0
C713 C 0.36181 0.12343 0.5202 0.0
C714 C 0.35866 0.11486 0.54073 0.0
C715 C 0.34271 0.10254 0.54641 0.0
C716 C 0.32998 0.09941 0.53142 0.0
C717 C 0.33314 0.10796 0.51097 0.0
C718 C 0.3488 0.11535 0.46397 0.0
C719 C 0.33309 0.10695 0.45446 0.0
C720 C 0.32855 0.09374 0.43921 0.0
C721 C 0.33969 0.08884 0.43305 0.0
C722 C 0.35568 0.09799 0.44156 0.0
C723 C 0.36012 0.11103 0.45695 0.0
C724 C 0.35119 0.14094 0.47831 0.0
C725 C 0.36353 0.1543 0.46644 0.0
C726 C 0.36259 0.16827 0.46261 0.0
C727 C 0.3493 0.16932 0.47085 0.0
C728 C 0.33659 0.15565 0.48205 0.0
C729 C 0.33745 0.14154 0.4856 0.0
C730 C 0.34949 0.23684 0.49031 0.0
C731 C 0.36234 0.25237 0.49678 0.0
C732 C 0.36139 0.26004 0.51682 0.0
C733 C 0.34755 0.25224 0.53098 0.0
C734 C 0.33475 0.23646 0.52465 0.0
C735 C 0.33569 0.22884 0.5044 0.0
C736 C 0.34501 0.23589 0.44913 0.0
C737 C 0.32941 0.23385 0.44857 0.0
C738 C 0.32642 0.244 0.43487 0.0
C739 C 0.33896 0.25619 0.42144 0.0
C740 C 0.35389 0.25674 0.42003 0.0
C741 C 0.35689 0.24673 0.43386 0.0
C742 C 0.34952 0.21485 0.46716 0.0
C743 C 0.36396 0.21487 0.47043 0.0
C744 C 0.36385 0.20015 0.47137 0.0
C745 C 0.34923 0.18496 0.46886 0.0
C746 C 0.33471 0.18499 0.46524 0.0
C747 C 0.33485 0.19984 0.4645 0.0
H748 H 0.78531 0.10252 0.49127 0.0
N749 N 0.77608 0.12383 0.47687 0.0
H750 H 0.77591 0.08584 0.52554 0.0
H751 H 0.75817 0.1256 0.51072 0.0
H752 H 0.7492 0.10941 0.54587 0.0
H753 H 0.74697 0.11522 0.46065 0.0
H754 H 0.73042 0.09286 0.43361 0.0
H755 H 0.78666 0.10669 0.45109 0.0
H756 H 0.76999 0.0838 0.42471 0.0
H757 H 0.8033 0.13513 0.50483 0.0
H758 H 0.78694 0.14333 0.44023 0.0
H759 H 0.82948 0.15962 0.49946 0.0
H760 H 0.81359 0.16774 0.43459 0.0
H761 H 0.90726 0.23228 0.48926 0.0
H762 H 0.92008 0.24598 0.52533 0.0
H763 H 0.87868 0.25106 0.54132 0.0
H764 H 0.86671 0.23861 0.50422 0.0
H765 H 0.89545 0.26188 0.46035 0.0
H766 H 0.91931 0.27701 0.43661 0.0
H767 H 0.91619 0.23134 0.4162 0.0
H768 H 0.89324 0.21658 0.44214 0.0
H769 H 0.87905 0.20177 0.48065 0.0
H770 H 0.85483 0.17408 0.47869 0.0
H771 H 0.82724 0.19454 0.45161 0.0
N772 N 0.88027 0.23041 0.47065 0.0
H773 H 0.85155 0.22191 0.4532 0.0
C774 C 0.77239 0.11531 0.49841 0.0
C775 C 0.77745 0.10412 0.50306 0.0
C776 C 0.77216 0.09468 0.52285 0.0
C777 C 0.76175 0.09624 0.53852 0.0
C778 C 0.75701 0.10772 0.53405 0.0
C779 C 0.76226 0.11711 0.51415 0.0
C780 C 0.76791 0.11249 0.45806 0.0
C781 C 0.75216 0.10863 0.45243 0.0
C782 C 0.74269 0.09574 0.43719 0.0
C783 C 0.74876 0.0863 0.42738 0.0
C784 C 0.76494 0.09081 0.43196 0.0
C785 C 0.77446 0.10382 0.44715 0.0
C786 C 0.7928 0.13682 0.47265 0.0
C787 C 0.80529 0.14172 0.48906 0.0
C788 C 0.82051 0.1559 0.48598 0.0
C789 C 0.82371 0.16573 0.46661 0.0
C790 C 0.81152 0.16058 0.44986 0.0
C791 C 0.79628 0.14646 0.45296 0.0
C792 C 0.88623 0.23488 0.49383 0.0
C793 C 0.9009 0.23622 0.50066 0.0
C794 C 0.90817 0.24398 0.52147 0.0
C795 C 0.90066 0.25009 0.53613 0.0
C796 C 0.88516 0.24714 0.53015 0.0
C797 C 0.87814 0.23979 0.50911 0.0
C798 C 0.89245 0.23813 0.45299 0.0
C799 C 0.89981 0.25514 0.45046 0.0
C800 C 0.91348 0.26377 0.43661 0.0
C801 C 0.9199 0.25554 0.42411 0.0
C802 C 0.91196 0.23827 0.42581 0.0
C803 C 0.89856 0.22969 0.44041 0.0
C804 C 0.86699 0.21384 0.46706 0.0
C805 C 0.86783 0.20016 0.4739 0.0
C806 C 0.85395 0.18439 0.4729 0.0
C807 C 0.83902 0.18204 0.46508 0.0
C808 C 0.83852 0.19576 0.45739 0.0
C809 C 0.85237 0.21145 0.45837 0.0
H810 H 0.01238 0.5656 0.18613 0.0
N811 N 0.9839 0.54107 0.2044 0.0
H812 H 0.01507 0.58246 0.15364 0.0
H813 H 0.96075 0.53576 0.17446 0.0
H814 H 0.96342 0.55211 0.14078 0.0
H815 H 0.96087 0.54483 0.22421 0.0
H816 H 0.96462 0.56662 0.25106 0.0
H817 H 0.01232 0.563 0.22622 0.0
H818 H 0.01633 0.58521 0.25211 0.0
H819 H 1.00098 0.53353 0.17247 0.0
H820 H 0.98347 0.52517 0.24245 0.0
H821 H 0.01251 0.51646 0.17823 0.0
H822 H 0.99539 0.50818 0.24821 0.0
H823 H 0.04651 0.45751 0.19268 0.0
H824 H 0.0375 0.4375 0.16118 0.0
H825 H 0.98993 0.43225 0.16426 0.0
H826 H 0.99869 0.45121 0.19671 0.0
H827 H 0.00296 0.43894 0.23579 0.0
H828 H 0.00471 0.42096 0.26352 0.0
H829 H 0.05619 0.45547 0.27113 0.0
H830 H 0.05426 0.47361 0.24355 0.0
H831 H 0.04383 0.49623 0.19971 0.0
H832 H 0.03408 0.51548 0.19785 0.0
H833 H 0.99144 0.48185 0.23664 0.0
N834 N 0.02881 0.46642 0.21735 0.0
H835 H 1.00146 0.46295 0.23887 0.0
C836 C 0.9863 0.54935 0.18281 0.0
C837 C 1.00164 0.56248 0.1763 0.0
C838 C 0.00316 0.57206 0.15747 0.0
C839 C 0.98945 0.56871 0.14447 0.0
C840 C 0.97421 0.55522 0.15055 0.0
C841 C 0.97268 0.5457 0.16957 0.0
C842 C 0.98625 0.55231 0.22308 0.0
C843 C 0.97293 0.55339 0.23073 0.0
C844 C 0.97515 0.56597 0.24583 0.0
C845 C 0.99082 0.57785 0.25347 0.0
C846 C 0.00408 0.57625 0.24672 0.0
C847 C 0.00182 0.56359 0.23174 0.0
C848 C 0.99188 0.53162 0.20743 0.0
C849 C 0.99994 0.52857 0.18935 0.0
C850 C 0.0066 0.51863 0.19261 0.0
C851 C 0.00516 0.51114 0.21381 0.0
C852 C 0.99679 0.51378 0.23166 0.0
C853 C 0.99012 0.52371 0.22843 0.0
C854 C 0.02346 0.4561 0.19696 0.0
C855 C 0.0342 0.45213 0.18634 0.0
C856 C 0.029 0.44073 0.16823 0.0
C857 C 0.01293 0.43317 0.16002 0.0
C858 C 0.00229 0.43752 0.17031 0.0
C859 C 0.0074 0.44866 0.18876 0.0
C860 C 0.02853 0.45774 0.23762 0.0
C861 C 0.0145 0.44299 0.24404 0.0
C862 C 0.01557 0.43258 0.25969 0.0
C863 C 0.03065 0.43665 0.26921 0.0
C864 C 0.04439 0.45199 0.26418 0.0
C865 C 0.04331 0.4624 0.24848 0.0
C866 C 0.0235 0.47817 0.21942 0.0
C867 C 0.03253 0.49318 0.20817 0.0
C868 C 0.02684 0.50408 0.20692 0.0
C869 C 0.01187 0.50016 0.21688 0.0
C870 C 0.00309 0.48536 0.22894 0.0
C871 C 0.00883 0.47447 0.23022 0.0
H872 H 0.59395 0.55034 0.19055 0.0
N873 N 0.56678 0.54444 0.21145 0.0
H874 H 0.606 0.5664 0.15584 0.0
H875 H 0.55203 0.55529 0.18275 0.0
H876 H 0.56394 0.57136 0.14804 0.0
H877 H 0.55986 0.56875 0.2202 0.0
H878 H 0.5741 0.59158 0.24741 0.0
H879 H 0.58755 0.54759 0.24371 0.0
H880 H 0.60218 0.57075 0.2707 0.0
H881 H 0.55852 0.51427 0.19861 0.0
H882 H 0.53824 0.54235 0.22623 0.0
H883 H 0.53164 0.4895 0.19896 0.0
H884 H 0.51155 0.51757 0.22792 0.0
H885 H 0.45616 0.41639 0.18892 0.0
H886 H 0.4405 0.40237 0.1545 0.0
H887 H 0.42607 0.43857 0.14935 0.0
H888 H 0.44116 0.45193 0.18444 0.0
H889 H 0.4347 0.44886 0.22639 0.0
H890 H 0.41239 0.43226 0.25305 0.0
H891 H 0.43335 0.40226 0.26583 0.0
H892 H 0.45526 0.41865 0.23876 0.0
H893 H 0.4855 0.44471 0.22131 0.0
H894 H 0.51202 0.47004 0.22314 0.0
H895 H 0.48928 0.49786 0.20626 0.0
N896 N 0.45707 0.44149 0.21119 0.0
H897 H 0.46272 0.47245 0.20603 0.0
C898 C 0.57219 0.55171 0.18923 0.0
C899 C 0.58723 0.55463 0.18102 0.0
C900 C 0.59406 0.56377 0.16122 0.0
C901 C 0.58599 0.57027 0.14935 0.0
C902 C 0.57055 0.5667 0.15704 0.0
C903 C 0.56369 0.55747 0.17679 0.0
C904 C 0.5725 0.55625 0.23013 0.0
C905 C 0.5686 0.56868 0.23172 0.0
C906 C 0.5768 0.5818 0.24723 0.0
C907 C 0.58925 0.58293 0.26104 0.0
C908 C 0.59263 0.57016 0.26017 0.0
C909 C 0.58425 0.55691 0.24493 0.0
C910 C 0.55059 0.53018 0.21258 0.0
C911 C 0.54829 0.51504 0.20503 0.0
C912 C 0.53289 0.50086 0.20545 0.0
C913 C 0.51933 0.50139 0.21376 0.0
C914 C 0.52162 0.51664 0.22121 0.0
C915 C 0.53704 0.53091 0.22045 0.0
C916 C 0.44997 0.43525 0.18902 0.0
C917 C 0.44985 0.42142 0.18004 0.0
C918 C 0.44091 0.41347 0.16033 0.0
C919 C 0.43195 0.4193 0.14907 0.0
C920 C 0.4326 0.43358 0.15772 0.0
C921 C 0.44144 0.44142 0.17761 0.0
C922 C 0.44649 0.43483 0.23061 0.0
C923 C 0.43466 0.43898 0.23545 0.0
C924 C 0.42195 0.42949 0.25068 0.0
C925 C 0.42096 0.41576 0.2612 0.0
C926 C 0.43361 0.41255 0.25764 0.0
C927 C 0.44622 0.42198 0.24243 0.0
C928 C 0.47227 0.45672 0.21323 0.0
C929 C 0.48631 0.45634 0.21824 0.0
C930 C 0.50146 0.47084 0.21902 0.0
C931 C 0.50295 0.48608 0.21444 0.0
C932 C 0.48868 0.48643 0.21001 0.0
C933 C 0.47346 0.47188 0.2096 0.0
H934 H 0.53897 0.95313 0.18336 0.0
N935 N 0.53686 0.9753 0.20904 0.0
H936 H 0.55567 0.95795 0.14915 0.0
H937 H 0.55327 0.00427 0.18543 0.0
H938 H 0.56925 0.00904 0.15084 0.0
H939 H 0.56205 0.00452 0.2256 0.0
H940 H 0.58254 0.00781 0.25281 0.0
H941 H 0.53648 0.95205 0.23406 0.0
H942 H 0.55765 0.95505 0.26015 0.0
H943 H 0.50516 0.95391 0.20816 0.0
H944 H 0.54 0.0056 0.21694 0.0
H945 H 0.48297 0.95949 0.21104 0.0
H946 H 0.51823 0.01143 0.2182 0.0
H947 H 0.42459 0.97641 0.18783 0.0
H948 H 0.41128 0.97655 0.15277 0.0
H949 H 0.44326 0.02924 0.14892 0.0
H950 H 0.45728 0.02873 0.18353 0.0
H951 H 0.44385 0.02389 0.23437 0.0
H952 H 0.42163 0.01709 0.26128 0.0
H953 H 0.4059 0.96561 0.25426 0.0
H954 H 0.42853 0.97264 0.22774 0.0
H955 H 0.44885 0.97678 0.18882 0.0
H956 H 0.47002 0.97013 0.1903 0.0
H957 H 0.49678 0.01021 0.2386 0.0
N958 N 0.44913 0.00319 0.21031 0.0
H959 H 0.47584 0.01748 0.23576 0.0
C960 C 0.54467 0.9782 0.18694 0.0
C961 C 0.54534 0.96529 0.17605 0.0
C962 C 0.55489 0.96808 0.15647 0.0
C963 C 0.56394 0.98393 0.14726 0.0
C964 C 0.56271 0.99674 0.15768 0.0
C965 C 0.55331 0.99396 0.17742 0.0
C966 C 0.54746 0.97798 0.22808 0.0
C967 C 0.56052 0.99371 0.23381 0.0
C968 C 0.57251 0.99554 0.24908 0.0
C969 C 0.57198 0.98169 0.25848 0.0
C970 C 0.55845 0.96604 0.25356 0.0
C971 C 0.54631 0.96426 0.2386 0.0
C972 C 0.52427 0.97924 0.21201 0.0
C973 C 0.50802 0.96647 0.21061 0.0
C974 C 0.49537 0.96973 0.21203 0.0
C975 C 0.49871 0.98597 0.2146 0.0
C976 C 0.51506 0.99874 0.21651 0.0
C977 C 0.52768 0.99541 0.21547 0.0
C978 C 0.44221 0.00258 0.18816 0.0
C979 C 0.42909 0.98794 0.17917 0.0
C980 C 0.42125 0.9881 0.15922 0.0
C981 C 0.42597 0.00295 0.14808 0.0
C982 C 0.43935 0.01754 0.15682 0.0
C983 C 0.44739 0.0173 0.17662 0.0
C984 C 0.43775 0.99882 0.22896 0.0
C985 C 0.43582 0.01119 0.23908 0.0
C986 C 0.42304 0.00725 0.25424 0.0
C987 C 0.41181 0.99077 0.25952 0.0
C988 C 0.41434 0.9784 0.2505 0.0
C989 C 0.42722 0.98239 0.2353 0.0
C990 C 0.46083 0.99795 0.21189 0.0
C991 C 0.45922 0.98426 0.19967 0.0
C992 C 0.47138 0.9803 0.20075 0.0
C993 C 0.4853 0.98967 0.21446 0.0
C994 C 0.48651 0.00292 0.22739 0.0
C995 C 0.47447 0.00704 0.22597 0.0
H996 H 0.44003 0.98771 0.82734 0.0
N997 N 0.46267 0.01927 0.81587 0.0
H998 H 0.4217 0.97935 0.86024 0.0
H999 H 0.46385 0.03808 0.85082 0.0
H1000 H 0.44628 0.0298 0.88463 0.0
H1001 H 0.46727 0.04704 0.79856 0.0
H1002 H 0.45029 0.05007 0.77024 0.0
H1003 H 0.43891 0.99443 0.7895 0.0
H1004 H 0.42225 0.99732 0.76096 0.0
H1005 H 0.46018 0.99116 0.79761 0.0
H1006 H 0.4935 0.03853 0.82766 0.0
H1007 H 0.48209 0.98538 0.79368 0.0
H1008 H 0.5154 0.03258 0.82499 0.0
H1009 H 0.55139 0.96901 0.82892 0.0
H1010 H 0.56497 0.96978 0.86459 0.0
H1011 H 0.58261 0.02179 0.87171 0.0
H1012 H 0.56787 0.02043 0.83724 0.0
H1013 H 0.57885 0.02486 0.80063 0.0
H1014 H 0.60065 0.03169 0.77336 0.0
H1015 H 0.57505 0.98175 0.74746 0.0
H1016 H 0.55285 0.97498 0.77465 0.0
H1017 H 0.52075 0.9731 0.81418 0.0
H1018 H 0.49864 0.97885 0.81519 0.0
H1019 H 0.53308 0.02975 0.80004 0.0
N1020 N 0.5522 0.99405 0.80794 0.0
H1021 H 0.555 0.02406 0.8003 0.0
C1022 C 0.45313 0.0136 0.8365 0.0
C1023 C 0.44144 0.99695 0.83973 0.0
C1024 C 0.43105 0.99217 0.85874 0.0
C1025 C 0.43231 0.00392 0.87503 0.0
C1026 C 0.44462 0.02045 0.87219 0.0
C1027 C 0.45481 0.02521 0.85305 0.0
C1028 C 0.45446 0.02058 0.79618 0.0
C1029 C 0.4577 0.03619 0.78995 0.0
C1030 C 0.448 0.03788 0.77376 0.0
C1031 C 0.43479 0.02392 0.76352 0.0
C1032 C 0.43216 0.00831 0.76882 0.0
C1033 C 0.44185 0.00665 0.78503 0.0
C1034 C 0.47528 0.01545 0.81264 0.0
C1035 C 0.47221 1.00038 0.80327 0.0
C1036 C 0.48479 0.997 0.80129 0.0
C1037 C 0.50063 0.00851 0.80895 0.0
C1038 C 0.50353 0.02354 0.8184 0.0
C1039 C 0.49101 0.02695 0.82011 0.0
C1040 C 0.55878 0.99464 0.83028 0.0
C1041 C 0.55794 0.98046 0.83854 0.0
C1042 C 0.56592 0.98101 0.85878 0.0
C1043 C 0.5752 0.99591 0.87103 0.0
C1044 C 0.5755 0.01002 0.86305 0.0
C1045 C 0.56722 0.00934 0.84306 0.0
C1046 C 0.56394 0.99934 0.78954 0.0
C1047 C 0.57747 0.01546 0.78862 0.0
C1048 C 0.59006 0.01939 0.773 0.0
C1049 C 0.58956 0.00725 0.75836 0.0
C1050 C 0.57576 0.99134 0.75863 0.0
C1051 C 0.56305 0.98748 0.77401 0.0
C1052 C 0.53954 0.998 0.80702 0.0
C1053 C 0.52346 0.98547 0.811 0.0
C1054 C 0.51082 0.98879 0.81139 0.0
C1055 C 0.51399 0.00479 0.80766 0.0
C1056 C 0.53015 0.01732 0.80336 0.0
C1057 C 0.5428 0.01402 0.80326 0.0
H1058 H 0.96055 0.54908 0.83194 0.0
N1059 N 0.97712 0.53859 0.80775 0.0
H1060 H 0.97015 0.56835 0.86433 0.0
H1061 H 0.00583 0.5496 0.83159 0.0
H1062 H 0.01503 0.56787 0.86466 0.0
H1063 H 0.0026 0.56904 0.79675 0.0
H1064 H 1.00123 0.58784 0.77081 0.0
H1065 H 0.95535 0.53031 0.77441 0.0
H1066 H 0.95457 0.5485 0.74607 0.0
H1067 H 0.95708 0.50697 0.81547 0.0
H1068 H 0.00534 0.54142 0.79161 0.0
H1069 H 0.96309 0.48493 0.81355 0.0
H1070 H 0.0121 0.51982 0.79142 0.0
H1071 H 0.9786 0.42574 0.82694 0.0
H1072 H 0.97264 0.40975 0.86181 0.0
H1073 H 0.02101 0.44398 0.88699 0.0
H1074 H 0.02699 0.45974 0.85161 0.0
H1075 H 0.02698 0.44108 0.80509 0.0
H1076 H 0.02162 0.41878 0.77891 0.0
H1077 H 0.97834 0.41764 0.7551 0.0
H1078 H 0.98293 0.43868 0.78343 0.0
H1079 H 0.98451 0.45597 0.84003 0.0
H1080 H 0.97719 0.47633 0.83496 0.0
H1081 H 0.0097 0.49567 0.77687 0.0
N1082 N 0.00769 0.45264 0.81526 0.0
H1083 H 0.018 0.47561 0.78303 0.0
C1084 C 0.98226 0.54767 0.82925 0.0
C1085 C 0.97234 0.55294 0.83929 0.0
C1086 C 0.97787 0.56395 0.85788 0.0
C1087 C 0.99345 0.56979 0.86716 0.0
C1088 C 0.00311 0.56394 0.85772 0.0
C1089 C 0.99769 0.55317 0.83885 0.0
C1090 C 0.97875 0.54838 0.78811 0.0
C1091 C 0.99212 0.56441 0.78564 0.0
C1092 C 0.99135 0.5752 0.77042 0.0
C1093 C 0.97751 0.57001 0.75653 0.0
C1094 C 0.9651 0.55331 0.75713 0.0
C1095 C 0.96562 0.54272 0.77302 0.0
C1096 C 0.98083 0.5258 0.8042 0.0
C1097 C 0.96901 0.50972 0.80986 0.0
C1098 C 0.97258 0.4972 0.80899 0.0
C1099 C 0.98826 0.50058 0.80296 0.0
C1100 C 0.99988 0.51664 0.7961 0.0
C1101 C 0.99611 0.52909 0.7964 0.0
C1102 C 0.00331 0.44394 0.8367 0.0
C1103 C 0.98788 0.42985 0.84002 0.0
C1104 C 0.98446 0.42079 0.86004 0.0
C1105 C 0.99637 0.42557 0.87714 0.0
C1106 C 0.01165 0.43987 0.874 0.0
C1107 C 0.01505 0.44896 0.85395 0.0
C1108 C 0.00553 0.44171 0.79622 0.0
C1109 C 0.01647 0.43614 0.79395 0.0
C1110 C 0.01337 0.42337 0.77871 0.0
C1111 C 0.99945 0.41614 0.76459 0.0
C1112 C 0.98896 0.42244 0.76597 0.0
C1113 C 0.99175 0.43482 0.78192 0.0
C1114 C 0.00192 0.46395 0.81174 0.0
C1115 C 0.99015 0.46435 0.82601 0.0
C1116 C 0.98575 0.4761 0.82294 0.0
C1117 C 0.99267 0.48768 0.80532 0.0
C1118 C 0.00421 0.48713 0.79082 0.0
C1119 C 0.00887 0.47554 0.79417 0.0
H1120 H 0.45542 0.44414 0.8312 0.0
N1121 N 0.4418 0.4606 0.81238 0.0
H1122 H 0.44443 0.42502 0.86292 0.0
H1123 H 0.41737 0.45524 0.83989 0.0
H1124 H 0.40569 0.43546 0.87089 0.0
H1125 H 0.41399 0.4521 0.79153 0.0
H1126 H 0.39939 0.42984 0.76342 0.0
H1127 H 0.45394 0.44344 0.79033 0.0
H1128 H 0.43925 0.42083 0.76278 0.0
H1129 H 0.4659 0.4752 0.84554 0.0
H1130 H 0.45588 0.47791 0.77402 0.0
H1131 H 0.49283 0.49894 0.84108 0.0
H1132 H 0.48296 0.50198 0.76994 0.0
H1133 H 0.56962 0.56034 0.83378 0.0
H1134 H 0.57941 0.57058 0.87264 0.0
H1135 H 0.54895 0.59195 0.87542 0.0
H1136 H 0.5387 0.58089 0.83712 0.0
H1137 H 0.56565 0.59665 0.79894 0.0
H1138 H 0.58971 0.61044 0.77521 0.0
H1139 H 0.58448 0.56342 0.75743 0.0
H1140 H 0.56125 0.54997 0.78337 0.0
H1141 H 0.54507 0.53594 0.82194 0.0
H1142 H 0.51993 0.50908 0.82046 0.0
H1143 H 0.49585 0.53076 0.78622 0.0
N1144 N 0.5484 0.56522 0.80926 0.0
H1145 H 0.52099 0.55765 0.78812 0.0
C1146 C 0.43729 0.45129 0.83332 0.0
C1147 C 0.44478 0.44258 0.84012 0.0
C1148 C 0.43833 0.43149 0.85813 0.0
C1149 C 0.424 0.42847 0.86937 0.0
C1150 C 0.41685 0.43758 0.86295 0.0
C1151 C 0.42348 0.4489 0.8452 0.0
C1152 C 0.43494 0.44936 0.79309 0.0
C1153 C 0.41969 0.44553 0.78489 0.0
C1154 C 0.41132 0.43272 0.76907 0.0
C1155 C 0.41805 0.42339 0.76117 0.0
C1156 C 0.43375 0.4278 0.76848 0.0
C1157 C 0.44213 0.44067 0.78431 0.0
C1158 C 0.45872 0.47372 0.80974 0.0
C1159 C 0.46949 0.48029 0.82859 0.0
C1160 C 0.48504 0.4941 0.82614 0.0
C1161 C 0.49012 0.50216 0.80507 0.0
C1162 C 0.47944 0.49591 0.78633 0.0
C1163 C 0.46396 0.48198 0.78867 0.0
C1164 C 0.55332 0.56977 0.83277 0.0
C1165 C 0.56478 0.56686 0.84307 0.0
C1166 C 0.57051 0.57292 0.86517 0.0
C1167 C 0.56504 0.58218 0.87721 0.0
C1168 C 0.55325 0.58465 0.86693 0.0
C1169 C 0.54742 0.57844 0.84499 0.0
C1170 C 0.56151 0.57232 0.79282 0.0
C1171 C 0.56966 0.58933 0.78978 0.0
C1172 C 0.5834 0.59717 0.77589 0.0
C1173 C 0.58912 0.58814 0.76385 0.0
C1174 C 0.58068 0.57092 0.76654 0.0
C1175 C 0.56717 0.56311 0.78118 0.0
C1176 C 0.5348 0.54885 0.80535 0.0
C1177 C 0.53446 0.5349 0.81389 0.0
C1178 C 0.52008 0.51955 0.81307 0.0
C1179 C 0.5059 0.51786 0.80339 0.0
C1180 C 0.5066 0.53165 0.79364 0.0
C1181 C 0.52091 0.547 0.79472 0.0
H1182 H 0.68459 0.9033 0.53422 0.0
N1183 N 0.65529 0.87533 0.54219 0.0
H1184 H 0.69183 0.92068 0.50073 0.0
H1185 H 0.63854 0.86857 0.50332 0.0
H1186 H 0.64582 0.8859 0.46935 0.0
H1187 H 0.63368 0.88404 0.55144 0.0
H1188 H 0.63645 0.90519 0.57831 0.0
H1189 H 0.67871 0.88988 0.57567 0.0
H1190 H 0.68111 0.91031 0.60386 0.0
H1191 H 0.68515 0.87828 0.53463 0.0
H1192 H 0.63656 0.8456 0.55943 0.0
H1193 H 0.69154 0.85687 0.5384 0.0
H1194 H 0.64321 0.8242 0.56483 0.0
H1195 H 0.70041 0.79565 0.50366 0.0
H1196 H 0.69255 0.77893 0.46833 0.0
H1197 H 0.64733 0.74326 0.50011 0.0
H1198 H 0.65513 0.76003 0.535 0.0
H1199 H 0.66076 0.77059 0.57502 0.0
H1200 H 0.66073 0.75057 0.60101 0.0
H1201 H 0.70922 0.76468 0.57837 0.0
H1202 H 0.70914 0.78474 0.55274 0.0
H1203 H 0.70365 0.81923 0.55723 0.0
H1204 H 0.69697 0.84076 0.56174 0.0
H1205 H 0.64705 0.80557 0.54353 0.0
N1206 N 0.68428 0.78842 0.54315 0.0
H1207 H 0.65363 0.7841 0.54076 0.0
C1208 C 0.66097 0.88453 0.52123 0.0
C1209 C 0.67618 0.8992 0.51997 0.0
C1210 C 0.68033 0.90915 0.50075 0.0
C1211 C 0.66936 0.90473 0.48243 0.0
C1212 C 0.65444 0.88975 0.48333 0.0
C1213 C 0.65032 0.87976 0.50257 0.0
C1214 C 0.65586 0.88528 0.56156 0.0
C1215 C 0.64387 0.8895 0.56321 0.0
C1216 C 0.64549 0.90161 0.5787 0.0
C1217 C 0.65908 0.90964 0.59332 0.0
C1218 C 0.67066 0.90469 0.59258 0.0
C1219 C 0.66917 0.89277 0.57668 0.0
C1220 C 0.66014 0.86345 0.54622 0.0
C1221 C 0.67584 0.86656 0.54113 0.0
C1222 C 0.67959 0.85424 0.54364 0.0
C1223 C 0.66788 0.83863 0.5518 0.0
C1224 C 0.65245 0.83588 0.55797 0.0
C1225 C 0.64863 0.84813 0.55508 0.0
C1226 C 0.67845 0.77916 0.52195 0.0
C1227 C 0.68871 0.78435 0.50279 0.0
C1228 C 0.68424 0.77473 0.48275 0.0
C1229 C 0.66936 0.75971 0.4815 0.0
C1230 C 0.6588 0.75483 0.50044 0.0
C1231 C 0.6633 0.76442 0.52049 0.0
C1232 C 0.68499 0.77912 0.5619 0.0
C1233 C 0.67152 0.76966 0.57612 0.0
C1234 C 0.67148 0.75812 0.59082 0.0
C1235 C 0.68491 0.75589 0.59158 0.0
C1236 C 0.69874 0.76616 0.57841 0.0
C1237 C 0.69873 0.77763 0.56374 0.0
C1238 C 0.67931 0.80014 0.54821 0.0
C1239 C 0.69122 0.81617 0.55466 0.0
C1240 C 0.68738 0.82849 0.55695 0.0
C1241 C 0.67152 0.82509 0.55251 0.0
C1242 C 0.65939 0.80875 0.54724 0.0
C1243 C 0.66319 0.79638 0.54536 0.0
H1244 H 0.25124 0.88169 0.52365 0.0
N1245 N 0.2269 0.87913 0.54912 0.0
H1246 H 0.2607 0.8952 0.48664 0.0
H1247 H 0.2118 0.8911 0.52307 0.0
H1248 H 0.22172 0.90565 0.48723 0.0
H1249 H 0.22315 0.90571 0.55734 0.0
H1250 H 0.23909 0.92852 0.5836 0.0
H1251 H 0.24872 0.88191 0.57948 0.0
H1252 H 0.2652 0.90524 0.60557 0.0
H1253 H 0.21435 0.84779 0.53733 0.0
H1254 H 0.20114 0.88115 0.56764 0.0
H1255 H 0.18584 0.82568 0.53839 0.0
H1256 H 0.17306 0.85921 0.56953 0.0
H1257 H 0.11478 0.76666 0.53207 0.0
H1258 H 0.1019 0.74871 0.49895 0.0
H1259 H 0.07963 0.77689 0.48163 0.0
H1260 H 0.09184 0.79414 0.5158 0.0
H1261 H 0.08783 0.79604 0.56912 0.0
H1262 H 0.06788 0.77867 0.598 0.0
H1263 H 0.0896 0.74852 0.59967 0.0
H1264 H 0.10936 0.76583 0.57094 0.0
H1265 H 0.13451 0.78618 0.55881 0.0
H1266 H 0.16319 0.80752 0.56179 0.0
H1267 H 0.15111 0.84405 0.54394 0.0
N1268 N 0.10931 0.79074 0.54782 0.0
H1269 H 0.12241 0.82264 0.5419 0.0
C1270 C 0.23095 0.88551 0.5262 0.0
C1271 C 0.2446 0.88664 0.51543 0.0
C1272 C 0.25009 0.89455 0.49443 0.0
C1273 C 0.24215 0.90178 0.48392 0.0
C1274 C 0.22809 0.90011 0.49448 0.0
C1275 C 0.22246 0.89192 0.51523 0.0
C1276 C 0.23447 0.89176 0.56669 0.0
C1277 C 0.23187 0.9051 0.56822 0.0
C1278 C 0.24107 0.91826 0.58323 0.0
C1279 C 0.25334 0.91862 0.59659 0.0
C1280 C 0.25579 0.90524 0.59541 0.0
C1281 C 0.24634 0.89189 0.58069 0.0
C1282 C 0.21013 0.86622 0.5523 0.0
C1283 C 0.20539 0.85029 0.54456 0.0
C1284 C 0.18908 0.83765 0.5453 0.0
C1285 C 0.17707 0.84065 0.55393 0.0
C1286 C 0.1819 0.8565 0.56234 0.0
C1287 C 0.19818 0.86916 0.56141 0.0
C1288 C 0.10406 0.78162 0.52655 0.0
C1289 C 0.10718 0.76901 0.52115 0.0
C1290 C 0.09988 0.75881 0.50199 0.0
C1291 C 0.08952 0.76117 0.48766 0.0
C1292 C 0.08718 0.7744 0.49254 0.0
C1293 C 0.0943 0.78442 0.51186 0.0
C1294 C 0.10004 0.78227 0.56778 0.0
C1295 C 0.08852 0.78594 0.57621 0.0
C1296 C 0.07715 0.77601 0.59268 0.0
C1297 C 0.07707 0.76212 0.60089 0.0
C1298 C 0.08923 0.75901 0.5934 0.0
C1299 C 0.10064 0.76901 0.57703 0.0
C1300 C 0.12628 0.80289 0.55032 0.0
C1301 C 0.13798 0.79877 0.55581 0.0
C1302 C 0.15445 0.81102 0.55732 0.0
C1303 C 0.15953 0.82757 0.5532 0.0
C1304 C 0.14769 0.83154 0.54771 0.0
C1305 C 0.13128 0.81932 0.54636 0.0
H1306 H 0.21232 0.28956 0.52401 0.0
N1307 N 0.20753 0.31 0.54975 0.0
H1308 H 0.22972 0.29604 0.49027 0.0
H1309 H 0.22374 0.33977 0.52841 0.0
H1310 H 0.2405 0.34626 0.49399 0.0
H1311 H 0.23484 0.33703 0.567 0.0
H1312 H 0.2538 0.33663 0.5942 0.0
H1313 H 0.20216 0.28511 0.57602 0.0
H1314 H 0.22132 0.28444 0.60279 0.0
H1315 H 0.17743 0.29331 0.53387 0.0
H1316 H 0.21098 0.33828 0.5694 0.0
H1317 H 0.1574 0.30188 0.53274 0.0
H1318 H 0.19086 0.34675 0.56913 0.0
H1319 H 0.11155 0.3212 0.51162 0.0
H1320 H 0.09694 0.3207 0.47716 0.0
H1321 H 0.11347 0.37211 0.48758 0.0
H1322 H 0.12789 0.37245 0.52233 0.0
H1323 H 0.12771 0.36628 0.57665 0.0
H1324 H 0.10539 0.36196 0.60209 0.0
H1325 H 0.07497 0.31361 0.5722 0.0
H1326 H 0.09717 0.31794 0.5471 0.0
H1327 H 0.11953 0.31523 0.55004 0.0
H1328 H 0.13909 0.30641 0.55437 0.0
H1329 H 0.17841 0.3562 0.54333 0.0
N1330 N 0.12647 0.34682 0.54245 0.0
H1331 H 0.15862 0.36504 0.53994 0.0
C1332 C 0.21657 0.31406 0.52856 0.0
C1333 C 0.21833 0.3019 0.51733 0.0
C1334 C 0.22824 0.30565 0.49799 0.0
C1335 C 0.23654 0.32169 0.48927 0.0
C1336 C 0.23451 0.33384 0.50036 0.0
C1337 C 0.22473 0.3301 0.51992 0.0
C1338 C 0.21694 0.31106 0.56958 0.0
C1339 C 0.23147 0.32563 0.57539 0.0
C1340 C 0.24246 0.32532 0.59071 0.0
C1341 C 0.23925 0.31044 0.60039 0.0
C1342 C 0.22418 0.29613 0.59579 0.0
C1343 C 0.21317 0.29648 0.58054 0.0
C1344 C 0.19565 0.31499 0.55183 0.0
C1345 C 0.18033 0.3049 0.54185 0.0
C1346 C 0.16888 0.30982 0.5413 0.0
C1347 C 0.17244 0.32504 0.55086 0.0
C1348 C 0.18774 0.33505 0.56131 0.0
C1349 C 0.19925 0.33013 0.56172 0.0
C1350 C 0.12076 0.34689 0.51967 0.0
C1351 C 0.11232 0.33244 0.5063 0.0
C1352 C 0.10389 0.33215 0.48667 0.0
C1353 C 0.1039 0.34632 0.47987 0.0
C1354 C 0.11328 0.36102 0.49235 0.0
C1355 C 0.12155 0.36125 0.51214 0.0
C1356 C 0.11427 0.34251 0.56002 0.0
C1357 C 0.11637 0.35459 0.57609 0.0
C1358 C 0.10357 0.35214 0.59043 0.0
C1359 C 0.08836 0.33749 0.58898 0.0
C1360 C 0.08656 0.32496 0.57389 0.0
C1361 C 0.09935 0.32746 0.55948 0.0
C1362 C 0.13759 0.34092 0.54478 0.0
C1363 C 0.13231 0.32432 0.54869 0.0
C1364 C 0.14359 0.31924 0.55102 0.0
C1365 C 0.16042 0.33057 0.54925 0.0
C1366 C 0.16562 0.34715 0.54524 0.0
C1367 C 0.15432 0.35222 0.54307 0.0
H1368 H 0.97831 0.37396 0.08876 0.0
H1369 H 0.02635 0.39914 0.05887 0.0
H1370 H 0.03571 0.42025 0.08893 0.0
H1371 H 0.03013 0.4319 0.12309 0.0
H1372 H 0.98267 0.40552 0.15481 0.0
H1373 H 0.97316 0.38486 0.12426 0.0
C1374 C 0.99083 0.38406 0.08883 0.0
C1375 C 1.00157 0.38498 0.07152 0.0
C1376 C 0.99622 0.39608 0.10634 0.0
C1377 C 0.01781 0.39807 0.07201 0.0
C1378 C 0.02317 0.4102 0.08915 0.0
C1379 C 0.01777 0.42154 0.12361 0.0
C1380 C 0.00716 0.42048 0.1413 0.0
C1381 C 0.01247 0.40935 0.10637 0.0
C1382 C 0.99108 0.40701 0.14122 0.0
C1383 C 0.98563 0.39503 0.12385 0.0
H1384 H 0.62364 0.6121 0.0623 0.0
H1385 H 0.60797 0.64375 0.09192 0.0
H1386 H 0.59529 0.62499 0.12362 0.0
H1387 H 0.5878 0.59927 0.14245 0.0
H1388 H 0.60285 0.5671 0.11332 0.0
H1389 H 0.61666 0.58638 0.08205 0.0
C1390 C 0.61761 0.61497 0.07584 0.0
C1391 C 0.6167 0.62928 0.07462 0.0
C1392 C 0.61009 0.60396 0.09403 0.0
C1393 C 0.60876 0.63276 0.09227 0.0
C1394 C 0.60147 0.62203 0.11044 0.0
C1395 C 0.59395 0.59639 0.12912 0.0
C1396 C 0.59413 0.5817 0.13005 0.0
C1397 C 0.60184 0.60749 0.11131 0.0
C1398 C 0.60253 0.57834 0.11298 0.0
C1399 C 0.61041 0.58935 0.09509 0.0
H1400 H 0.39566 0.00968 0.05547 0.0
H1401 H 0.3523 0.97028 0.08624 0.0
H1402 H 0.36754 0.97242 0.12077 0.0
H1403 H 0.39323 0.98454 0.14143 0.0
H1404 H 0.43739 0.02207 0.10953 0.0
H1405 H 0.42178 0.02187 0.0765 0.0
C1406 C 0.38957 0.00175 0.06991 0.0
C1407 C 0.3729 0.98989 0.06845 0.0
C1408 C 0.39856 0.00266 0.08943 0.0
C1409 C 0.36514 0.97948 0.08704 0.0
C1410 C 0.37384 0.98068 0.10674 0.0
C1411 C 0.39955 0.99254 0.12716 0.0
C1412 C 0.41654 0.00318 0.128 0.0
C1413 C 0.3906 0.99201 0.10795 0.0
C1414 C 0.42433 0.01382 0.10955 0.0
C1415 C 0.41542 0.01365 0.09054 0.0
H1416 H 0.38212 0.97375 0.9571 0.0
H1417 H 0.38381 0.01992 0.95111 0.0
H1418 H 0.4031 0.02762 0.91949 0.0
H1419 H 0.41917 0.02117 0.89327 0.0
H1420 H 0.41878 0.97573 0.90044 0.0
H1421 H 0.39903 0.96771 0.93156 0.0
C1422 C 0.38667 0.98548 0.94885 0.0
C1423 C 0.38147 0.99621 0.95648 0.0
C1424 C 0.39793 0.98994 0.93081 0.0
C1425 C 0.38763 0.01143 0.94569 0.0
C1426 C 0.39865 0.01584 0.92756 0.0
C1427 C 0.41501 0.00962 0.90183 0.0
C1428 C 0.42055 0.99912 0.89443 0.0
C1429 C 0.4039 0.00521 0.92 0.0
C1430 C 0.41462 0.984 0.90548 0.0
C1431 C 0.40338 0.97944 0.92341 0.0
H1432 H 0.9706 0.37877 0.9625 0.0
H1433 H 0.01858 0.38532 0.95749 0.0
H1434 H 0.02475 0.40343 0.92491 0.0
H1435 H 0.0164 0.41706 0.89745 0.0
H1436 H 0.96864 0.41088 0.90299 0.0
H1437 H 0.96251 0.39287 0.9357 0.0
C1438 C 0.98241 0.3841 0.95429 0.0
C1439 C 0.99407 0.38061 0.96246 0.0
C1440 C 0.98593 0.39458 0.93564 0.0
C1441 C 0.00935 0.38777 0.95162 0.0
C1442 C 0.0129 0.39814 0.93297 0.0
C1443 C 0.00473 0.41195 0.90601 0.0
C1444 C 0.993 0.41531 0.89776 0.0
C1445 C 1.00129 0.40163 0.92484 0.0
C1446 C 0.97783 0.40835 0.90882 0.0
C1447 C 0.97432 0.39809 0.92757 0.0
H1448 H 0.58636 0.62003 0.97234 0.0
H1449 H 0.6331 0.62868 0.94982 0.0
H1450 H 0.62057 0.61176 0.9155 0.0
H1451 H 0.59669 0.59616 0.89075 0.0
H1452 H 0.54968 0.58624 0.91441 0.0
H1453 H 0.56205 0.60215 0.94937 0.0
C1454 C 0.59379 0.61816 0.95994 0.0
C1455 C 0.61065 0.62575 0.96345 0.0
C1456 C 0.5865 0.6083 0.94041 0.0
C1457 C 0.62009 0.62299 0.94748 0.0
C1458 C 0.61295 0.61336 0.92783 0.0
C1459 C 0.58904 0.59713 0.90373 0.0
C1460 C 0.57227 0.59015 0.89971 0.0
C1461 C 0.59619 0.60613 0.92398 0.0
C1462 C 0.56267 0.59178 0.91673 0.0
C1463 C 0.56971 0.60082 0.93681 0.0
H1464 H 0.03031 0.62879 0.93827 0.0
H1465 H 0.98167 0.60703 0.9658 0.0
H1466 H 0.97164 0.58561 0.93627 0.0
H1467 H 0.97658 0.57279 0.90302 0.0
H1468 H 0.02472 0.59552 0.87353 0.0
H1469 H 0.03504 0.61646 0.9038 0.0
C1470 C 0.01752 0.61937 0.93779 0.0
C1471 C 0.0068 0.61957 0.95426 0.0
C1472 C 0.01172 0.60711 0.92056 0.0
C1473 C 0.99022 0.6073 0.95328 0.0
C1474 C 0.98445 0.59496 0.93645 0.0
C1475 C 0.98929 0.58241 0.90296 0.0
C1476 C 0.9998 0.58242 0.88595 0.0
C1477 C 0.99508 0.59475 0.92001 0.0
C1478 C 0.01634 0.5949 0.8866 0.0
C1479 C 0.02225 0.60702 0.9038 0.0
H1480 H 0.39363 0.36606 0.93258 0.0
H1481 H 0.37765 0.39463 0.97074 0.0
H1482 H 0.39078 0.41664 0.94284 0.0
H1483 H 0.40758 0.42814 0.90832 0.0
H1484 H 0.42218 0.3987 0.86928 0.0
H1485 H 0.40918 0.37692 0.89723 0.0
C1486 C 0.39296 0.37707 0.93481 0.0
C1487 C 0.38471 0.37868 0.95383 0.0
C1488 C 0.4005 0.38966 0.91872 0.0
C1489 C 0.38387 0.39301 0.95626 0.0
C1490 C 0.39145 0.40565 0.94036 0.0
C1491 C 0.40779 0.41691 0.90573 0.0
C1492 C 0.41608 0.41526 0.88674 0.0
C1493 C 0.3999 0.40416 0.92161 0.0
C1494 C 0.41632 0.40061 0.88397 0.0
C1495 C 0.40871 0.38801 0.89984 0.0
H1496 H 0.6219 0.99515 0.94687 0.0
H1497 H 0.61543 0.03369 0.97533 0.0
H1498 H 0.59641 0.02943 0.94473 0.0
H1499 H 0.58218 0.01536 0.90948 0.0
H1500 H 0.59082 0.97883 0.87847 0.0
H1501 H 0.60793 0.98135 0.91074 0.0
C1502 C 0.61623 0.00251 0.94639 0.0
C1503 C 0.62008 0.01472 0.96329 0.0
C1504 C 0.60559 1.00031 0.92835 0.0
C1505 C 0.61276 0.0243 0.96239 0.0
C1506 C 0.60185 0.02185 0.94494 0.0
C1507 C 0.58792 0.00806 0.90952 0.0
C1508 C 0.58509 0.99692 0.89136 0.0
C1509 C 0.59832 0.01003 0.92768 0.0
C1510 C 0.59241 0.9873 0.89228 0.0
C1511 C 0.60239 0.98885 0.91067 0.0
H1512 H 0.60435 0.98742 0.05874 0.0
H1513 H 0.63804 0.03482 0.08881 0.0
H1514 H 0.61962 0.02917 0.12113 0.0
H1515 H 0.59398 0.01094 0.14071 0.0
H1516 H 0.55938 0.96427 0.10953 0.0
H1517 H 0.57825 0.96939 0.07799 0.0
C1518 C 0.60771 0.99645 0.07246 0.0
C1519 C 0.62258 0.01149 0.0714 0.0
C1520 C 0.5969 0.99328 0.09079 0.0
C1521 C 0.62665 0.02316 0.08917 0.0
C1522 C 0.61613 0.01995 0.10766 0.0
C1523 C 0.5904 0.00197 0.12687 0.0
C1524 C 0.57521 0.98725 0.12757 0.0
C1525 C 0.60118 0.00511 0.10856 0.0
C1526 C 0.57105 0.97563 0.10966 0.0
C1527 C 0.58181 0.97858 0.09153 0.0
H1528 H 0.98909 0.6167 0.06996 0.0
H1529 H 0.03574 0.62182 0.0551 0.0
H1530 H 0.03113 0.60195 0.08413 0.0
H1531 H 0.01429 0.58321 0.11387 0.0
H1532 H 0.96837 0.57877 0.13139 0.0
H1533 H 0.97207 0.59777 0.10087 0.0
C1534 C 0.99822 0.61345 0.0731 0.0
C1535 C 0.01278 0.62091 0.06034 0.0
C1536 C 0.9956 0.60197 0.0902 0.0
C1537 C 0.02448 0.6165 0.0647 0.0
C1538 C 0.02185 0.60503 0.0813 0.0
C1539 C 0.00513 0.5865 0.11128 0.0
C1540 C 0.99113 0.57958 0.1251 0.0
C1541 C 0.00753 0.59776 0.09421 0.0
C1542 C 0.97922 0.58371 0.1209 0.0
C1543 C 0.98139 0.59472 0.10355 0.0
H1544 H 0.37837 0.37992 0.07305 0.0
H1545 H 0.41448 0.36834 0.05056 0.0
H1546 H 0.43253 0.38535 0.08137 0.0
H1547 H 0.43822 0.40349 0.11465 0.0
H1548 H 0.40175 0.41405 0.13865 0.0
H1549 H 0.38398 0.39787 0.10695 0.0
C1550 C 0.39018 0.3811 0.07487 0.0
C1551 C 0.39497 0.37278 0.05946 0.0
C1552 C 0.40056 0.39088 0.09278 0.0
C1553 C 0.41035 0.37448 0.06219 0.0
C1554 C 0.42075 0.38427 0.07979 0.0
C1555 C 0.42633 0.40216 0.11313 0.0
C1556 C 0.42141 0.41004 0.12911 0.0
C1557 C 0.41598 0.39249 0.0952 0.0
C1558 C 0.40605 0.40839 0.12646 0.0
C1559 C 0.39577 0.39899 0.10843 0.0
H1560 H 0.64136 0.70955 0.39778 0.0
H1561 H 0.69088 0.71996 0.39701 0.0
H1562 H 0.6975 0.73877 0.42949 0.0
H1563 H 0.68937 0.75221 0.45828 0.0
H1564 H 0.6401 0.74224 0.45926 0.0
H1565 H 0.63325 0.72324 0.42664 0.0
C1566 C 0.65359 0.71587 0.40475 0.0
C1567 C 0.66557 0.71329 0.39486 0.0
C1568 C 0.65739 0.72679 0.42347 0.0
C1569 C 0.68138 0.72169 0.40415 0.0
C1570 C 0.68521 0.73248 0.42276 0.0
C1571 C 0.67719 0.74606 0.45117 0.0
C1572 C 0.66529 0.74871 0.4611 0.0
C1573 C 0.67335 0.73517 0.43249 0.0
C1574 C 0.64946 0.74034 0.452 0.0
C1575 C 0.64555 0.72951 0.43333 0.0
H1576 H 0.25928 0.94545 0.39579 0.0
H1577 H 0.30812 0.96063 0.41653 0.0
H1578 H 0.29743 0.94115 0.4483 0.0
H1579 H 0.27416 0.92139 0.47155 0.0
H1580 H 0.22528 0.90458 0.44824 0.0
H1581 H 0.23609 0.9233 0.41617 0.0
C1582 C 0.26756 0.94438 0.40722 0.0
C1583 C 0.28441 0.95453 0.40416 0.0
C1584 C 0.26133 0.93302 0.42504 0.0
C1585 C 0.29508 0.95291 0.41869 0.0
C1586 C 0.28897 0.94184 0.43685 0.0
C1587 C 0.26581 0.92148 0.45923 0.0
C1588 C 0.24886 0.91172 0.46276 0.0
C1589 C 0.2721 0.932 0.44037 0.0
C1590 C 0.23835 0.91225 0.44653 0.0
C1591 C 0.24451 0.92288 0.42802 0.0
H1592 H 0.06643 0.35013 0.39331 0.0
H1593 H 0.02754 0.30652 0.42468 0.0
H1594 H 0.04524 0.30967 0.45646 0.0
H1595 H 0.07209 0.32366 0.4743 0.0
H1596 H 0.11137 0.36721 0.44372 0.0
H1597 H 0.09326 0.36528 0.41277 0.0
C1598 C 0.06178 0.34152 0.40732 0.0
C1599 C 0.0457 0.32805 0.40651 0.0
C1600 C 0.07216 0.34324 0.42553 0.0
C1601 C 0.03989 0.31692 0.42475 0.0
C1602 C 0.05002 0.31867 0.44293 0.0
C1603 C 0.07672 0.33267 0.46077 0.0
C1604 C 0.09309 0.34538 0.46106 0.0
C1605 C 0.06625 0.33153 0.44323 0.0
C1606 C 0.09881 0.35724 0.44377 0.0
C1607 C 0.08846 0.35614 0.4261 0.0
H1608 H 0.05778 0.34623 0.28665 0.0
H1609 H 0.04884 0.29814 0.30373 0.0
H1610 H 0.06706 0.29977 0.27318 0.0
H1611 H 0.08472 0.31426 0.24079 0.0
H1612 H 0.09258 0.36161 0.22193 0.0
H1613 H 0.07602 0.36104 0.25438 0.0
C1614 C 0.05989 0.33615 0.28379 0.0
C1615 C 0.05184 0.32204 0.29744 0.0
C1616 C 0.07028 0.33706 0.26593 0.0
C1617 C 0.05472 0.30908 0.2934 0.0
C1618 C 0.06519 0.31001 0.27595 0.0
C1619 C 0.08277 0.32444 0.24367 0.0
C1620 C 0.08984 0.3379 0.22879 0.0
C1621 C 0.07287 0.32384 0.26194 0.0
C1622 C 0.08747 0.35116 0.2332 0.0
C1623 C 0.07785 0.35078 0.25165 0.0
H1624 H 0.68851 0.73182 0.2956 0.0
H1625 H 0.63972 0.69966 0.27033 0.0
H1626 H 0.64406 0.71931 0.24071 0.0
H1627 H 0.66149 0.74553 0.222 0.0
H1628 H 0.71 0.77834 0.24754 0.0
H1629 H 0.70601 0.75846 0.27689 0.0
C1630 C 0.67887 0.72906 0.28351 0.0
C1631 C 0.66381 0.71426 0.28523 0.0
C1632 C 0.68136 0.74055 0.26661 0.0
C1633 C 0.65141 0.71097 0.26951 0.0
C1634 C 0.65387 0.72221 0.25254 0.0
C1635 C 0.67113 0.74849 0.23421 0.0
C1636 C 0.68598 0.76349 0.23265 0.0
C1637 C 0.66872 0.73707 0.25105 0.0
C1638 C 0.69847 0.76687 0.24826 0.0
C1639 C 0.69618 0.75552 0.26508 0.0
H1640 H 0.29406 0.95804 0.28277 0.0
H1641 H 0.25164 0.95536 0.31359 0.0
H1642 H 0.23463 0.93699 0.28286 0.0
H1643 H 0.23179 0.92217 0.24699 0.0
H1644 H 0.2744 0.92662 0.21409 0.0
H1645 H 0.29117 0.9433 0.24624 0.0
C1646 C 0.28109 0.95338 0.28278 0.0
C1647 C 0.27416 0.95814 0.30039 0.0
C1648 C 0.27136 0.94301 0.26479 0.0
C1649 C 0.25733 0.95205 0.30011 0.0
C1650 C 0.24756 0.94148 0.28259 0.0
C1651 C 0.24476 0.9269 0.24664 0.0
C1652 C 0.25173 0.92311 0.22798 0.0
C1653 C 0.25446 0.937 0.26475 0.0
C1654 C 0.26856 0.92905 0.2283 0.0
C1655 C 0.27824 0.93878 0.2466 0.0
H1656 H 0.69163 0.97439 0.27354 0.0
H1657 H 0.65353 0.93495 0.31244 0.0
H1658 H 0.64897 0.91546 0.28128 0.0
H1659 H 0.65623 0.90963 0.24357 0.0
H1660 H 0.69163 0.94985 0.20229 0.0
H1661 H 0.69716 0.96886 0.23406 0.0
C1662 C 0.68232 0.96152 0.27508 0.0
C1663 C 0.67298 0.95603 0.29518 0.0
C1664 C 0.67942 0.95049 0.25682 0.0
C1665 C 0.66081 0.93941 0.29701 0.0
C1666 C 0.65825 0.92827 0.27926 0.0
C1667 C 0.66493 0.92256 0.24113 0.0
C1668 C 0.67357 0.92804 0.22033 0.0
C1669 C 0.6675 0.93368 0.25909 0.0
C1670 C 0.68507 0.94495 0.21814 0.0
C1671 C 0.68813 0.95598 0.23627 0.0
H1672 H 0.05685 0.72384 0.30719 0.0
H1673 H 0.05739 0.68379 0.27192 0.0
H1674 H 0.0707 0.70124 0.23894 0.0
H1675 H 0.08271 0.72792 0.22049 0.0
H1676 H 0.08412 0.76875 0.25656 0.0
H1677 H 0.0694 0.75094 0.28869 0.0
C1678 C 0.05974 0.71893 0.29215 0.0
C1679 C 0.05611 0.70255 0.29192 0.0
C1680 C 0.06782 0.72919 0.27346 0.0
C1681 C 0.06011 0.69638 0.2725 0.0
C1682 C 0.06774 0.70635 0.25366 0.0
C1683 C 0.08005 0.73305 0.23549 0.0
C1684 C 0.08463 0.74972 0.23603 0.0
C1685 C 0.07184 0.72282 0.25407 0.0
C1686 C 0.08064 0.75595 0.25548 0.0
C1687 C 0.07226 0.74577 0.27394 0.0
H1688 H 0.29421 0.37548 0.29885 0.0
H1689 H 0.28695 0.32659 0.2982 0.0
H1690 H 0.26825 0.31885 0.266 0.0
H1691 H 0.25452 0.32609 0.23739 0.0
H1692 H 0.26124 0.37471 0.23836 0.0
H1693 H 0.27972 0.38244 0.27097 0.0
C1694 C 0.28857 0.36313 0.29168 0.0
C1695 C 0.29207 0.35167 0.30095 0.0
C1696 C 0.27775 0.3587 0.27318 0.0
C1697 C 0.28451 0.33568 0.29148 0.0
C1698 C 0.2738 0.33123 0.27303 0.0
C1699 C 0.25981 0.3383 0.24495 0.0
C1700 C 0.25648 0.34979 0.23543 0.0
C1701 C 0.27037 0.34264 0.26372 0.0
C1702 C 0.26373 0.36567 0.24519 0.0
C1703 C 0.27425 0.37008 0.26389 0.0
H1704 H 0.27639 0.32715 0.39937 0.0
H1705 H 0.30872 0.37535 0.42824 0.0
H1706 H 0.29055 0.36914 0.4611 0.0
H1707 H 0.2656 0.34995 0.4817 0.0
H1708 H 0.23229 0.30252 0.45121 0.0
H1709 H 0.25084 0.30846 0.4191 0.0
C1710 C 0.2795 0.33626 0.41293 0.0
C1711 C 0.29393 0.35164 0.41146 0.0
C1712 C 0.26883 0.33275 0.4315 0.0
C1713 C 0.29768 0.36342 0.42897 0.0
C1714 C 0.28729 0.35988 0.44776 0.0
C1715 C 0.26223 0.34098 0.4679 0.0
C1716 C 0.24755 0.32574 0.46909 0.0
C1717 C 0.27281 0.3446 0.44916 0.0
C1718 C 0.24362 0.31422 0.4511 0.0
C1719 C 0.25419 0.31764 0.4326 0.0
H1720 H 0.69677 0.95784 0.4045 0.0
H1721 H 0.64732 0.94753 0.4065 0.0
H1722 H 0.64071 0.9273 0.43631 0.0
H1723 H 0.64901 0.91279 0.46218 0.0
H1724 H 0.69827 0.92272 0.45975 0.0
H1725 H 0.7049 0.94291 0.42979 0.0
C1726 C 0.68455 0.95124 0.41149 0.0
C1727 C 0.67259 0.95429 0.40326 0.0
C1728 C 0.68077 0.93952 0.42853 0.0
C1729 C 0.65679 0.94547 0.41246 0.0
C1730 C 0.65298 0.93387 0.42952 0.0
C1731 C 0.66113 0.91918 0.45486 0.0
C1732 C 0.67311 0.91622 0.46318 0.0
C1733 C 0.66486 0.93077 0.43765 0.0
C1734 C 0.68885 0.92487 0.4538 0.0
C1735 C 0.69265 0.93639 0.43663 0.0
H1736 H 0.04237 0.7122 0.41097 0.0
H1737 H 0.08387 0.70677 0.39839 0.0
H1738 H 0.09888 0.72665 0.42889 0.0
H1739 H 0.10042 0.74578 0.45892 0.0
H1740 H 0.0584 0.75003 0.47303 0.0
H1741 H 0.04366 0.73076 0.44183 0.0
C1742 C 0.05471 0.71536 0.41487 0.0
C1743 C 0.06193 0.70796 0.40234 0.0
C1744 C 0.06328 0.72674 0.4326 0.0
C1745 C 0.07792 0.71217 0.40778 0.0
C1746 C 0.08657 0.7236 0.4252 0.0
C1747 C 0.08798 0.74239 0.45538 0.0
C1748 C 0.08065 0.74952 0.46833 0.0
C1749 C 0.07937 0.73096 0.43774 0.0
C1750 C 0.06457 0.74509 0.46312 0.0
C1751 C 0.05602 0.73391 0.44538 0.0
H1752 H 0.30463 0.04628 0.72761 0.0
H1753 H 0.34843 0.04663 0.74548 0.0
H1754 H 0.35157 0.06323 0.77971 0.0
H1755 H 0.34152 0.07705 0.80499 0.0
H1756 H 0.29843 0.07776 0.786 0.0
H1757 H 0.29529 0.06112 0.75193 0.0
C1758 C 0.31485 0.04993 0.73902 0.0
C1759 C 0.32621 0.04511 0.73406 0.0
C1760 C 0.31668 0.05961 0.75851 0.0
C1761 C 0.3395 0.05017 0.74888 0.0
C1762 C 0.3413 0.05964 0.76848 0.0
C1763 C 0.33157 0.0738 0.79324 0.0
C1764 C 0.32019 0.07862 0.7982 0.0
C1765 C 0.32994 0.06441 0.77348 0.0
C1766 C 0.30723 0.07401 0.7829 0.0
C1767 C 0.30546 0.06456 0.76331 0.0
H1768 H 0.94481 0.30572 0.75093 0.0
H1769 H 0.96003 0.27451 0.71869 0.0
H1770 H 0.94625 0.2541 0.74859 0.0
H1771 H 0.92892 0.24465 0.78289 0.0
H1772 H 0.9155 0.27699 0.81645 0.0
H1773 H 0.9291 0.29712 0.78654 0.0
C1774 C 0.94518 0.29448 0.75047 0.0
C1775 C 0.95336 0.29162 0.73251 0.0
C1776 C 0.93732 0.28285 0.76773 0.0
C1777 C 0.95388 0.27707 0.73235 0.0
C1778 C 0.94591 0.26534 0.74937 0.0
C1779 C 0.92912 0.25617 0.78394 0.0
C1780 C 0.92092 0.25907 0.80194 0.0
C1781 C 0.93746 0.26803 0.76703 0.0
C1782 C 0.92122 0.27407 0.80258 0.0
C1783 C 0.9292 0.28575 0.78559 0.0
H1784 H 0.70342 0.63255 0.74757 0.0
H1785 H 0.7303 0.68295 0.72545 0.0
H1786 H 0.74917 0.6901 0.75742 0.0
H1787 H 0.75832 0.68192 0.79129 0.0
H1788 H 0.73053 0.63169 0.81404 0.0
H1789 H 0.71203 0.62459 0.78183 0.0
C1790 C 0.71339 0.64512 0.74968 0.0
C1791 C 0.71541 0.65716 0.73401 0.0
C1792 C 0.72418 0.64917 0.7681 0.0
C1793 C 0.72839 0.67341 0.73722 0.0
C1794 C 0.73923 0.67751 0.75548 0.0
C1795 C 0.74815 0.66945 0.78936 0.0
C1796 C 0.74599 0.65736 0.80508 0.0
C1797 C 0.73727 0.66547 0.77099 0.0
C1798 C 0.7328 0.64121 0.80201 0.0
C1799 C 0.72207 0.63714 0.78369 0.0
H1800 H 0.72504 0.67739 0.61941 0.0
H1801 H 0.70992 0.62603 0.62321 0.0
H1802 H 0.72823 0.62927 0.59174 0.0
H1803 H 0.74875 0.64671 0.56328 0.0
H1804 H 0.76311 0.69783 0.5589 0.0
H1805 H 0.74513 0.69465 0.5907 0.0
C1806 C 0.72571 0.66687 0.61341 0.0
C1807 C 0.71606 0.65149 0.62378 0.0
C1808 C 0.73626 0.66878 0.59527 0.0
C1809 C 0.71713 0.63802 0.61561 0.0
C1810 C 0.72765 0.63986 0.5976 0.0
C1811 C 0.74788 0.65714 0.56916 0.0
C1812 C 0.75743 0.67252 0.55873 0.0
C1813 C 0.73728 0.65518 0.5873 0.0
C1814 C 0.75622 0.68592 0.56684 0.0
C1815 C 0.7458 0.68409 0.58493 0.0
H1816 H 0.3145 0.0545 0.63 0.0
H1817 H 0.35824 0.05287 0.6194 0.0
H1818 H 0.36662 0.07315 0.58889 0.0
H1819 H 0.36052 0.09002 0.56372 0.0
H1820 H 0.3171 0.0921 0.57591 0.0
H1821 H 0.30956 0.07288 0.6073 0.0
C1822 C 0.32588 0.05857 0.62103 0.0
C1823 C 0.33562 0.05201 0.62672 0.0
C1824 C 0.33064 0.07027 0.60375 0.0
C1825 C 0.3505 0.05768 0.61527 0.0
C1826 C 0.35526 0.06925 0.59781 0.0
C1827 C 0.34957 0.08652 0.57351 0.0
C1828 C 0.33928 0.09237 0.56721 0.0
C1829 C 0.34532 0.07548 0.59172 0.0
C1830 C 0.32506 0.08755 0.58002 0.0
C1831 C 0.32077 0.0766 0.59805 0.0
H1832 H 0.93436 0.30319 0.61538 0.0
H1833 H 0.95868 0.27616 0.62625 0.0
H1834 H 0.94299 0.25713 0.59506 0.0
H1835 H 0.92215 0.24805 0.56492 0.0
H1836 H 0.89953 0.27664 0.55275 0.0
H1837 H 0.91439 0.29475 0.58471 0.0
C1838 C 0.93625 0.29313 0.61099 0.0
C1839 C 0.94767 0.29112 0.62322 0.0
C1840 C 0.92731 0.28233 0.59296 0.0
C1841 C 0.95003 0.27807 0.61709 0.0
C1842 C 0.941 0.26713 0.5993 0.0
C1843 C 0.92054 0.2583 0.56907 0.0
C1844 C 0.90948 0.26071 0.55641 0.0
C1845 C 0.92959 0.26914 0.58711 0.0
C1846 C 0.90751 0.27404 0.56243 0.0
C1847 C 0.9162 0.28461 0.58059 0.0
H1848 H 0.33371 0.2882 0.61277 0.0
H1849 H 0.38498 0.30746 0.62391 0.0
H1850 H 0.38552 0.29096 0.59207 0.0
H1851 H 0.37175 0.27123 0.56101 0.0
H1852 H 0.32094 0.25272 0.54793 0.0
H1853 H 0.31985 0.26835 0.58097 0.0
C1854 C 0.345 0.2888 0.60822 0.0
C1855 C 0.35928 0.29916 0.62078 0.0
C1856 C 0.34531 0.27928 0.58967 0.0
C1857 C 0.37379 0.29973 0.61457 0.0
C1858 C 0.37414 0.29023 0.59636 0.0
C1859 C 0.36045 0.2707 0.5652 0.0
C1860 C 0.34649 0.26087 0.55187 0.0
C1861 C 0.36001 0.28002 0.58378 0.0
C1862 C 0.33185 0.26004 0.558 0.0
C1863 C 0.33125 0.2691 0.57678 0.0
H1864 H 0.74628 0.04991 0.62311 0.0
H1865 H 0.69907 0.04476 0.61634 0.0
H1866 H 0.70918 0.06401 0.58437 0.0
H1867 H 0.73127 0.08148 0.5575 0.0
H1868 H 0.77866 0.08723 0.56608 0.0
H1869 H 0.76852 0.06839 0.5981 0.0
C1870 C 0.73814 0.05293 0.61463 0.0
C1871 C 0.72188 0.04575 0.62194 0.0
C1872 C 0.74405 0.06407 0.59654 0.0
C1873 C 0.71163 0.05008 0.61101 0.0
C1874 C 0.7174 0.06106 0.59273 0.0
C1875 C 0.73946 0.07882 0.56658 0.0
C1876 C 0.75569 0.08567 0.55913 0.0
C1877 C 0.73359 0.06806 0.58525 0.0
C1878 C 0.76604 0.0819 0.57103 0.0
C1879 C 0.76028 0.07118 0.58947 0.0
H1880 H 0.94489 0.69251 0.63413 0.0
H1881 H 0.95443 0.65351 0.61951 0.0
H1882 H 0.9369 0.6453 0.58569 0.0
H1883 H 0.9203 0.65031 0.55918 0.0
H1884 H 0.90881 0.68781 0.57567 0.0
H1885 H 0.92594 0.69567 0.60965 0.0
C1886 C 0.94306 0.68217 0.62357 0.0
C1887 C 0.95104 0.67372 0.62914 0.0
C1888 C 0.93277 0.67736 0.60439 0.0
C1889 C 0.94839 0.66019 0.61556 0.0
C1890 C 0.93843 0.65554 0.59619 0.0
C1891 C 0.92118 0.65996 0.57039 0.0
C1892 C 0.91335 0.66856 0.56449 0.0
C1893 C 0.9307 0.66415 0.59031 0.0
C1894 C 0.91499 0.68122 0.57926 0.0
C1895 C 0.92469 0.68566 0.59887 0.0
H1896 H 0.9585 0.70285 0.74067 0.0
H1897 H 0.95007 0.65362 0.7442 0.0
H1898 H 0.93324 0.64855 0.77835 0.0
H1899 H 0.92133 0.65836 0.80776 0.0
H1900 H 0.92977 0.70752 0.80344 0.0
H1901 H 0.94622 0.71232 0.7691 0.0
C1902 C 0.95304 0.69099 0.74887 0.0
C1903 C 0.95566 0.67867 0.73983 0.0
C1904 C 0.94336 0.68814 0.76842 0.0
C1905 C 0.94832 0.66336 0.75072 0.0
C1906 C 0.93867 0.66044 0.77028 0.0
C1907 C 0.92663 0.67004 0.79914 0.0
C1908 C 0.9244 0.6826 0.80827 0.0
C1909 C 0.93612 0.67275 0.77931 0.0
C1910 C 0.93149 0.69774 0.79701 0.0
C1911 C 0.94085 0.70048 0.77731 0.0
H1912 H 0.32475 0.28353 0.73019 0.0
H1913 H 0.37521 0.2971 0.72767 0.0
H1914 H 0.37013 0.27648 0.75591 0.0
H1915 H 0.35173 0.25497 0.78191 0.0
H1916 H 0.30166 0.24236 0.78695 0.0
H1917 H 0.30614 0.26176 0.75678 0.0
C1918 C 0.3346 0.28194 0.7358 0.0
C1919 C 0.35035 0.29199 0.72685 0.0
C1920 C 0.33167 0.27009 0.7524 0.0
C1921 C 0.36299 0.28973 0.73437 0.0
C1922 C 0.3601 0.27786 0.7505 0.0
C1923 C 0.34179 0.25651 0.7766 0.0
C1924 C 0.3264 0.24715 0.78685 0.0
C1925 C 0.34455 0.26806 0.75976 0.0
C1926 C 0.31361 0.24914 0.77922 0.0
C1927 C 0.31619 0.26039 0.76208 0.0
H1928 H 0.74073 0.03391 0.74044 0.0
H1929 H 0.71497 0.05896 0.72565 0.0
H1930 H 0.72916 0.07846 0.75713 0.0
H1931 H 0.74923 0.0886 0.78845 0.0
H1932 H 0.77317 0.06184 0.80459 0.0
H1933 H 0.75972 0.04321 0.77249 0.0
C1934 C 0.7382 0.04364 0.74405 0.0
C1935 C 0.72685 0.04499 0.73062 0.0
C1936 C 0.74626 0.05468 0.76224 0.0
C1937 C 0.72361 0.05758 0.73576 0.0
C1938 C 0.73177 0.06879 0.7537 0.0
C1939 C 0.75142 0.07862 0.78516 0.0
C1940 C 0.76247 0.07691 0.79894 0.0
C1941 C 0.74316 0.06747 0.76703 0.0
C1942 C 0.76519 0.06392 0.79403 0.0
C1943 C 0.75732 0.05305 0.77578 0.0
H1944 H 0.05144 0.37626 0.05835 0.0
H1945 H 0.03284 0.33173 0.01804 0.0
H1946 H 0.0543 0.32753 0.03257 0.0
H1947 H 0.07706 0.33552 0.0586 0.0
H1948 H 0.09349 0.37819 0.10282 0.0
H1949 H 0.07473 0.38449 0.08431 0.0
C1950 C 0.05233 0.36581 0.0526 0.0
C1951 C 0.04081 0.35435 0.03713 0.0
C1952 C 0.06434 0.36318 0.06166 0.0
C1953 C 0.04173 0.34069 0.02992 0.0
C1954 C 0.05395 0.33829 0.03823 0.0
C1955 C 0.07653 0.34616 0.06437 0.0
C1956 C 0.0867 0.35624 0.0823 0.0
C1957 C 0.06512 0.34928 0.05447 0.0
C1958 C 0.08607 0.37026 0.0889 0.0
C1959 C 0.07515 0.3738 0.0785 0.0
H1960 H 0.67892 0.69831 0.05877 0.0
H1961 H 0.6322 0.68894 0.03583 0.0
H1962 H 0.63678 0.71393 0.05561 0.0
H1963 H 0.65425 0.7386 0.07925 0.0
H1964 H 0.7012 0.74806 0.10122 0.0
H1965 H 0.69646 0.72302 0.0817 0.0
C1966 C 0.6697 0.7017 0.0582 0.0
C1967 C 0.65521 0.69178 0.04599 0.0
C1968 C 0.67254 0.71619 0.06924 0.0
C1969 C 0.64345 0.69639 0.04516 0.0
C1970 C 0.64607 0.71068 0.05643 0.0
C1971 C 0.66341 0.73515 0.07974 0.0
C1972 C 0.67808 0.74521 0.09156 0.0
C1973 C 0.6606 0.7207 0.06847 0.0
C1974 C 0.68992 0.74067 0.09193 0.0
C1975 C 0.68716 0.72628 0.08094 0.0
H1976 H 0.32104 0.95465 0.04337 0.0
H1977 H 0.30279 0.98666 0.02886 0.0
H1978 H 0.27657 0.9671 0.04596 0.0
H1979 H 0.25944 0.94175 0.06645 0.0
H1980 H 0.27914 0.9119 0.08712 0.0
H1981 H 0.30382 0.92929 0.06537 0.0
C1982 C 0.31123 0.9572 0.04386 0.0
C1983 C 0.31369 0.97195 0.03487 0.0
C1984 C 0.29642 0.94623 0.05467 0.0
C1985 C 0.30107 0.97534 0.03577 0.0
C1986 C 0.28611 0.96417 0.0455 0.0
C1987 C 0.26915 0.93908 0.06664 0.0
C1988 C 0.26728 0.9255 0.07883 0.0
C1989 C 0.28375 0.94972 0.05533 0.0
C1990 C 0.27993 0.92205 0.07778 0.0
C1991 C 0.29423 0.93215 0.06554 0.0
H1992 H 0.37164 0.04733 0.9611 0.0
H1993 H 0.33548 0.03549 0.01352 0.0
H1994 H 0.33041 0.05663 -0.00053 0.0
H1995 H 0.3346 0.07674 0.97036 0.0
H1996 H 0.36973 0.08774 0.91647 0.0
H1997 H 0.37726 0.06917 0.93333 0.0
C1998 C 0.3629 0.04968 0.9696 0.0
C1999 C 0.35398 0.04008 0.98833 0.0
C2000 C 0.35988 0.06169 0.96116 0.0
C2001 C 0.34252 0.04292 -0.00085 0.0
C2002 C 0.33959 0.05493 0.99109 0.0
C2003 C 0.34397 0.07515 0.96236 0.0
C2004 C 0.35146 0.08353 0.94205 0.0
C2005 C 0.34794 0.06413 0.9718 0.0
C2006 C 0.36383 0.08157 0.9322 0.0
C2007 C 0.36804 0.07081 0.94171 0.0
H2008 H 0.95764 0.32527 0.97781 0.0
H2009 H 0.98417 0.30329 0.00275 0.0
H2010 H 0.96408 0.27678 0.98578 0.0
H2011 H 0.94008 0.26043 0.96203 0.0
H2012 H 0.91556 0.28327 0.93228 0.0
H2013 H 0.93325 0.30858 0.95361 0.0
C2014 C 0.95881 0.31457 0.97966 0.0
C2015 C 0.97219 0.31602 0.99149 0.0
C2016 C 0.94755 0.29953 0.96908 0.0
C2017 C 0.97388 0.30229 0.99366 0.0
C2018 C 0.96243 0.28718 0.98398 0.0
C2019 C 0.93863 0.27094 0.95995 0.0
C2020 C 0.92652 0.26984 0.94527 0.0
C2021 C 0.9494 0.28575 0.97128 0.0
C2022 C 0.92458 0.28354 0.94359 0.0
C2023 C 0.93485 0.29815 0.95561 0.0
H2024 H 0.68341 0.63668 0.99778 0.0
H2025 H 0.68638 0.67788 0.96263 0.0
H2026 H 0.71065 0.68253 0.94257 0.0
H2027 H 0.73124 0.67534 0.93506 0.0
H2028 H 0.72885 0.63414 0.96892 0.0
H2029 H 0.70413 0.62897 0.98929 0.0
C2030 C 0.68935 0.64661 0.98566 0.0
C2031 C 0.68307 0.65693 0.98182 0.0
C2032 C 0.70344 0.64927 0.974 0.0
C2033 C 0.69091 0.66974 0.96601 0.0
C2034 C 0.70484 0.67246 0.9545 0.0
C2035 C 0.72542 0.66534 0.9471 0.0
C2036 C 0.73198 0.65531 0.95079 0.0
C2037 C 0.71127 0.6624 0.95847 0.0
C2038 C 0.72404 0.64208 0.96591 0.0
C2039 C 0.70994 0.63914 0.97755 0.0
H2040 H 0.94899 0.63159 0.99525 0.0
H2041 H 0.98833 0.67531 0.96449 0.0
H2042 H 0.96912 0.68087 0.94638 0.0
H2043 H 0.94144 0.67386 0.93915 0.0
H2044 H 0.90127 0.63008 0.96771 0.0
H2045 H 0.92039 0.62398 0.9867 0.0
C2046 C 0.95329 0.64229 0.98457 0.0
C2047 C 0.97012 0.65302 0.9814 0.0
C2048 C 0.94204 0.64547 0.97384 0.0
C2049 C 0.9755 0.6668 0.96736 0.0
C2050 C 0.96451 0.67007 0.95694 0.0
C2051 C 0.93687 0.66305 0.94972 0.0
C2052 C 0.92006 0.65259 0.95242 0.0
C2053 C 0.94782 0.65958 0.96014 0.0
C2054 C 0.91423 0.63837 0.96559 0.0
C2055 C 0.92515 0.63491 0.97641 0.0
H2056 H 0.36143 0.31486 0.97663 0.0
H2057 H 0.31393 0.30924 0.9725 0.0
H2058 H 0.30376 0.28336 0.95118 0.0
H2059 H 0.30824 0.26218 0.93458 0.0
H2060 H 0.35672 0.26963 0.93451 0.0
H2061 H 0.3664 0.29456 0.95739 0.0
C2062 C 0.34887 0.30797 0.97097 0.0
C2063 C 0.33842 0.31387 0.97615 0.0
C2064 C 0.3432 0.2933 0.95831 0.0
C2065 C 0.32222 0.30496 0.96858 0.0
C2066 C 0.31638 0.29013 0.95651 0.0
C2067 C 0.321 0.26931 0.9391 0.0
C2068 C 0.3316 0.26371 0.93274 0.0
C2069 C 0.32676 0.28417 0.95133 0.0
C2070 C 0.34803 0.27316 0.93953 0.0
C2071 C 0.3537 0.28764 0.95241 0.0
H2072 H 0.67976 0.05031 0.977 0.0
H2073 H 0.69505 0.01623 0.99379 0.0
H2074 H 0.72202 0.03472 0.97784 0.0
H2075 H 0.74078 0.05993 0.95819 0.0
H2076 H 0.72433 0.09212 0.93552 0.0
H2077 H 0.69864 0.07548 0.95553 0.0
C2078 C 0.68909 0.04707 0.97717 0.0
C2079 C 0.6856 0.03205 0.98649 0.0
C2080 C 0.70438 0.05749 0.96713 0.0
C2081 C 0.69758 0.02776 0.98655 0.0
C2082 C 0.71297 0.03832 0.97751 0.0
C2083 C 0.73156 0.06327 0.95716 0.0
C2084 C 0.73466 0.0773 0.945 0.0
C2085 C 0.71643 0.05311 0.96749 0.0
C2086 C 0.72259 0.0816 0.94491 0.0
C2087 C 0.70773 0.07194 0.95615 0.0
H2088 H 0.66918 0.98003 0.05208 0.0
H2089 H 0.6213 0.9472 0.02454 0.0
H2090 H 0.62192 0.92362 0.03986 0.0
H2091 H 0.63582 0.91253 0.06224 0.0
H2092 H 0.68351 0.94594 0.09018 0.0
H2093 H 0.68336 0.96901 0.0729 0.0
C2094 C 0.65884 0.96773 0.04941 0.0
C2095 C 0.64513 0.96539 0.03739 0.0
C2096 C 0.65933 0.9543 0.05811 0.0
C2097 C 0.63196 0.94933 0.03385 0.0
C2098 C 0.63233 0.93586 0.04258 0.0
C2099 C 0.6462 0.92485 0.06451 0.0
C2100 C 0.65966 0.92741 0.07753 0.0
C2101 C 0.64591 0.93821 0.0549 0.0
C2102 C 0.6731 0.94347 0.07996 0.0
C2103 C 0.67295 0.95675 0.07031 0.0
H2104 H 0.05063 0.67941 0.04874 0.0
H2105 H 0.02104 0.69929 0.02895 0.0
H2106 H 0.03992 0.72547 0.04775 0.0
H2107 H 0.06376 0.74203 0.07162 0.0
H2108 H 0.09154 0.72111 0.09613 0.0
H2109 H 0.07491 0.69636 0.0731 0.0
C2110 C 0.04853 0.6896 0.04839 0.0
C2111 C 0.03461 0.6876 0.03752 0.0
C2112 C 0.05913 0.70443 0.06004 0.0
C2113 C 0.03174 0.70068 0.03732 0.0
C2114 C 0.0425 0.71561 0.04804 0.0
C2115 C 0.06615 0.73205 0.0722 0.0
C2116 C 0.07887 0.73353 0.08589 0.0
C2117 C 0.05605 0.71751 0.05984 0.0
C2118 C 0.082 0.72054 0.08562 0.0
C2119 C 0.07236 0.70624 0.07262 0.0
H2120 H 0.30633 0.32625 0.04465 0.0
H2121 H 0.33349 0.37882 0.05444 0.0
H2122 H 0.31054 0.37742 0.07563 0.0
H2123 H 0.28308 0.36092 0.09237 0.0
H2124 H 0.2553 0.30859 0.07875 0.0
H2125 H 0.27822 0.31024 0.05808 0.0
C2126 C 0.30724 0.33739 0.05154 0.0
C2127 C 0.32161 0.35258 0.04843 0.0
C2128 C 0.2939 0.33652 0.06297 0.0
C2129 C 0.32254 0.36698 0.05685 0.0
C2130 C 0.30944 0.36617 0.0689 0.0
C2131 C 0.28188 0.34991 0.08454 0.0
C2132 C 0.26748 0.33459 0.0876 0.0
C2133 C 0.29505 0.35097 0.07213 0.0
C2134 C 0.26632 0.32048 0.07733 0.0
C2135 C 0.27941 0.3214 0.06536 0.0
H2136 H 0.69868 0.66847 0.38041 0.0
H2137 H 0.73008 0.71687 0.35319 0.0
H2138 H 0.75349 0.71833 0.37217 0.0
H2139 H 0.76484 0.706 0.39735 0.0
H2140 H 0.73293 0.65772 0.42474 0.0
H2141 H 0.70999 0.65597 0.40445 0.0
C2142 C 0.71064 0.67936 0.37858 0.0
C2143 C 0.71262 0.69258 0.36551 0.0
C2144 C 0.72399 0.68008 0.38945 0.0
C2145 C 0.72822 0.70653 0.36319 0.0
C2146 C 0.74161 0.70736 0.37405 0.0
C2147 C 0.75287 0.69511 0.39886 0.0
C2148 C 0.75067 0.68199 0.4125 0.0
C2149 C 0.73961 0.69424 0.38735 0.0
C2150 C 0.73508 0.66788 0.41406 0.0
C2151 C 0.72189 0.66692 0.40264 0.0
H2152 H 0.31207 0.02788 0.36446 0.0
H2153 H 0.3423 0.01716 0.4063 0.0
H2154 H 0.34987 0.04148 0.43008 0.0
H2155 H 0.34823 0.06588 0.43866 0.0
H2156 H 0.31928 0.07768 0.39573 0.0
H2157 H 0.31069 0.05269 0.3729 0.0
C2158 C 0.32023 0.03083 0.37887 0.0
C2159 C 0.32661 0.02075 0.38364 0.0
C2160 C 0.32477 0.04501 0.39224 0.0
C2161 C 0.33726 0.02476 0.40226 0.0
C2162 C 0.3416 0.03866 0.41585 0.0
C2163 C 0.34023 0.06316 0.42411 0.0
C2164 C 0.33452 0.07376 0.41886 0.0
C2165 C 0.33555 0.04894 0.41087 0.0
C2166 C 0.32378 0.06971 0.4003 0.0
C2167 C 0.31891 0.05546 0.38717 0.0
H2168 H 0.98909 0.29014 0.37544 0.0
H2169 H 0.97831 0.32881 0.36959 0.0
H2170 H 0.95144 0.31117 0.38635 0.0
H2171 H 0.93127 0.28507 0.40276 0.0
H2172 H 0.9436 0.24787 0.41458 0.0
H2173 H 0.96922 0.2643 0.39445 0.0
C2174 C 0.98081 0.29463 0.37786 0.0
C2175 C 0.98557 0.31068 0.3713 0.0
C2176 C 0.96558 0.28462 0.38828 0.0
C2177 C 0.97488 0.3165 0.37468 0.0
C2178 C 0.95951 0.30641 0.38415 0.0
C2179 C 0.93958 0.28055 0.40149 0.0
C2180 C 0.93525 0.26512 0.4105 0.0
C2181 C 0.95478 0.29049 0.39115 0.0
C2182 C 0.9462 0.25946 0.40759 0.0
C2183 C 0.96106 0.26898 0.39629 0.0
H2184 H 0.04432 0.39147 0.3331 0.0
H2185 H 0.01363 0.35542 0.28218 0.0
H2186 H 0.01151 0.37631 0.26157 0.0
H2187 H 0.01762 0.40449 0.25829 0.0
H2188 H 0.04789 0.44099 0.30885 0.0
H2189 H 0.05098 0.42034 0.32921 0.0
C2190 C 0.03734 0.38827 0.31736 0.0
C2191 C 0.02913 0.37188 0.30924 0.0
C2192 C 0.03595 0.40039 0.30562 0.0
C2193 C 0.02003 0.3679 0.28889 0.0
C2194 C 0.01876 0.37984 0.27708 0.0
C2195 C 0.02472 0.40791 0.27394 0.0
C2196 C 0.03231 0.42421 0.28221 0.0
C2197 C 0.02647 0.39604 0.28544 0.0
C2198 C 0.04188 0.42851 0.30215 0.0
C2199 C 0.04365 0.41671 0.31379 0.0
H2200 H 0.62592 0.64795 0.32161 0.0
H2201 H 0.66706 0.65059 0.28659 0.0
H2202 H 0.64914 0.62479 0.26656 0.0
H2203 H 0.62189 0.60138 0.25895 0.0
H2204 H 0.58033 0.59885 0.29213 0.0
H2205 H 0.59824 0.62466 0.31295 0.0
C2206 C 0.63092 0.64287 0.30955 0.0
C2207 C 0.64781 0.65116 0.30567 0.0
C2208 C 0.62048 0.62801 0.29786 0.0
C2209 C 0.65412 0.64449 0.28989 0.0
C2210 C 0.64388 0.62969 0.27846 0.0
C2211 C 0.61679 0.60641 0.27094 0.0
C2212 C 0.5999 0.59818 0.27432 0.0
C2213 C 0.62708 0.62132 0.28239 0.0
C2214 C 0.59335 0.60499 0.28941 0.0
C2215 C 0.60357 0.61972 0.30126 0.0
H2216 H 0.35157 0.9685 0.32617 0.0
H2217 H 0.34729 0.00381 0.28575 0.0
H2218 H 0.37036 0.00837 0.2624 0.0
H2219 H 0.39236 0.00329 0.25421 0.0
H2220 H 0.39769 0.96867 0.29453 0.0
H2221 H 0.37352 0.96272 0.31696 0.0
C2222 C 0.35562 0.97705 0.31211 0.0
C2223 C 0.34775 0.98585 0.30779 0.0
C2224 C 0.36912 0.97982 0.2988 0.0
C2225 C 0.35316 0.99695 0.28956 0.0
C2226 C 0.36638 0.99959 0.27617 0.0
C2227 C 0.38833 0.99454 0.26804 0.0
C2228 C 0.39695 0.98663 0.27293 0.0
C2229 C 0.37458 0.9913 0.28085 0.0
C2230 C 0.39128 0.97495 0.29046 0.0
C2231 C 0.37749 0.97159 0.30331 0.0
H2232 H 0.639 0.99599 0.29904 0.0
H2233 H 0.60699 0.95544 0.34222 0.0
H2234 H 0.58332 0.95372 0.32372 0.0
H2235 H 0.5718 0.96375 0.29511 0.0
H2236 H 0.60427 0.00334 0.25067 0.0
H2237 H 0.62761 0.00567 0.27031 0.0
C2238 C 0.62685 0.98678 0.30446 0.0
C2239 C 0.62477 0.97586 0.32198 0.0
C2240 C 0.61335 0.9858 0.29368 0.0
C2241 C 0.60893 0.96397 0.32872 0.0
C2242 C 0.5954 0.963 0.31818 0.0
C2243 C 0.58396 0.97284 0.28961 0.0
C2244 C 0.58614 0.98345 0.27149 0.0
C2245 C 0.59747 0.97384 0.30059 0.0
C2246 C 0.60208 0.99526 0.26488 0.0
C2247 C 0.61551 0.9965 0.27594 0.0
H2248 H 0.99565 0.64118 0.29885 0.0
H2249 H 0.03212 0.63931 0.3393 0.0
H2250 H 0.02687 0.6144 0.31868 0.0
H2251 H 0.01182 0.5931 0.28924 0.0
H2252 H 0.97596 0.59562 0.24807 0.0
H2253 H 0.98083 0.62009 0.26925 0.0
C2254 C 0.00247 0.63534 0.30313 0.0
C2255 C 0.01426 0.64208 0.32056 0.0
C2256 C 0.99938 0.62103 0.29124 0.0
C2257 C 0.02298 0.63437 0.32593 0.0
C2258 C 0.01997 0.62011 0.31417 0.0
C2259 C 0.00513 0.59905 0.2848 0.0
C2260 C 0.99347 0.59241 0.26714 0.0
C2261 C 0.00819 0.61333 0.29679 0.0
C2262 C 0.98477 0.60021 0.26186 0.0
C2263 C 0.98766 0.61432 0.27382 0.0
H2264 H 0.35817 0.35588 0.30384 0.0
H2265 H 0.3568 0.39489 0.3409 0.0
H2266 H 0.38139 0.41534 0.32091 0.0
H2267 H 0.40361 0.42202 0.29317 0.0
H2268 H 0.40464 0.38253 0.25689 0.0
H2269 H 0.37999 0.36241 0.27648 0.0
C2270 C 0.3632 0.36886 0.3075 0.0
C2271 C 0.35567 0.37386 0.32379 0.0
C2272 C 0.37738 0.38047 0.29621 0.0
C2273 C 0.36239 0.39072 0.32842 0.0
C2274 C 0.37645 0.40241 0.31701 0.0
C2275 C 0.39839 0.40901 0.28956 0.0
C2276 C 0.40608 0.4038 0.27378 0.0
C2277 C 0.38411 0.39742 0.30093 0.0
C2278 C 0.39919 0.38688 0.26931 0.0
C2279 C 0.385 0.37535 0.28036 0.0
H2280 H 0.34326 0.32197 0.39216 0.0
H2281 H 0.29493 0.28808 0.36701 0.0
H2282 H 0.29708 0.26487 0.38023 0.0
H2283 H 0.31296 0.25428 0.3989 0.0
H2284 H 0.36141 0.28879 0.42331 0.0
H2285 H 0.35902 0.31161 0.41006 0.0
C2286 C 0.33314 0.30951 0.38967 0.0
C2287 C 0.31892 0.30676 0.37877 0.0
C2288 C 0.33456 0.2963 0.39694 0.0
C2289 C 0.306 0.29053 0.37543 0.0
C2290 C 0.30724 0.27726 0.38294 0.0
C2291 C 0.32298 0.2668 0.40125 0.0
C2292 C 0.33742 0.26976 0.41183 0.0
C2293 C 0.3215 0.28 0.39368 0.0
C2294 C 0.35031 0.28608 0.41473 0.0
C2295 C 0.3489 0.29919 0.40738 0.0
H2296 H 0.71043 0.02484 0.36045 0.0
H2297 H 0.67219 0.01441 0.40909 0.0
H2298 H 0.69063 0.03903 0.4312 0.0
H2299 H 0.71737 0.06356 0.43666 0.0
H2300 H 0.75569 0.07487 0.38782 0.0
H2301 H 0.73752 0.04976 0.36602 0.0
C2302 C 0.70618 0.02795 0.37594 0.0
C2303 C 0.68995 0.01783 0.38309 0.0
C2304 C 0.71683 0.04227 0.38852 0.0
C2305 C 0.68459 0.02201 0.40316 0.0
C2306 C 0.69513 0.0361 0.41583 0.0
C2307 C 0.72172 0.06069 0.42106 0.0
C2308 C 0.73783 0.07119 0.41377 0.0
C2309 C 0.71121 0.04636 0.40858 0.0
C2310 C 0.74337 0.06698 0.39388 0.0
C2311 C 0.73297 0.05266 0.38136 0.0
H2312 H 0.98073 0.65801 0.39651 0.0
H2313 H 0.99324 0.70418 0.36603 0.0
H2314 H 0.96847 0.70201 0.38206 0.0
H2315 H 0.94299 0.68663 0.40441 0.0
H2316 H 0.93101 0.64042 0.43444 0.0
H2317 H 0.95568 0.64286 0.41851 0.0
C2318 C 0.97813 0.66768 0.39344 0.0
C2319 C 0.98887 0.68128 0.38018 0.0
C2320 C 0.96382 0.66623 0.4024 0.0
C2321 C 0.9852 0.69361 0.37625 0.0
C2322 C 0.97102 0.69234 0.38536 0.0
C2323 C 0.9458 0.67712 0.40749 0.0
C2324 C 0.93501 0.66327 0.42044 0.0
C2325 C 0.96018 0.67865 0.3984 0.0
C2326 C 0.93884 0.65102 0.42413 0.0
C2327 C 0.95306 0.65248 0.41522 0.0
H2328 H 0.39267 0.04059 0.69843 0.0
H2329 H 0.354 0.99893 0.73362 0.0
H2330 H 0.37381 0.99594 0.75541 0.0
H2331 H 0.40195 0.00516 0.76496 0.0
H2332 H 0.44105 0.04651 0.73005 0.0
H2333 H 0.42128 0.04967 0.70783 0.0
C2334 C 0.38861 0.0309 0.71091 0.0
C2335 C 0.37186 0.02002 0.71437 0.0
C2336 C 0.40014 0.02916 0.72343 0.0
C2337 C 0.3668 0.00749 0.73056 0.0
C2338 C 0.37812 0.00574 0.74306 0.0
C2339 C 0.40619 0.01471 0.75223 0.0
C2340 C 0.42296 0.02549 0.74906 0.0
C2341 C 0.3948 0.01646 0.7396 0.0
C2342 C 0.4282 0.03807 0.7329 0.0
C2343 C 0.4169 0.03987 0.72016 0.0
H2344 H 0.97165 0.34931 0.7078 0.0
H2345 H 0.02251 0.3647 0.70705 0.0
H2346 H 0.02921 0.39031 0.72699 0.0
H2347 H 0.02061 0.40815 0.74446 0.0
H2348 H 0.96924 0.39069 0.75086 0.0
H2349 H 0.96286 0.36649 0.72801 0.0
C2350 C 0.98418 0.35831 0.71205 0.0
C2351 C 0.9966 0.35524 0.70597 0.0
C2352 C 0.98787 0.37274 0.72421 0.0
C2353 C 0.01277 0.36683 0.71172 0.0
C2354 C 0.0166 0.38148 0.723 0.0
C2355 C 0.00796 0.399 0.7414 0.0
C2356 C 0.99552 0.40155 0.74961 0.0
C2357 C 0.00423 0.38452 0.72943 0.0
C2358 C 0.97925 0.38955 0.74448 0.0
C2359 C 0.9755 0.37547 0.73161 0.0
H2360 H 0.65667 0.61968 0.71081 0.0
H2361 H 0.64606 0.65829 0.70237 0.0
H2362 H 0.61971 0.64164 0.72099 0.0
H2363 H 0.60003 0.61655 0.74 0.0
H2364 H 0.61217 0.57954 0.75434 0.0
H2365 H 0.63717 0.59475 0.73224 0.0
C2366 C 0.6485 0.62434 0.71305 0.0
C2367 C 0.65317 0.6401 0.70525 0.0
C2368 C 0.63359 0.61493 0.7246 0.0
C2369 C 0.64268 0.64619 0.70839 0.0
C2370 C 0.62761 0.63667 0.71895 0.0
C2371 C 0.6082 0.61184 0.73885 0.0
C2372 C 0.60405 0.59686 0.74921 0.0
C2373 C 0.62302 0.6211 0.7273 0.0
C2374 C 0.61471 0.59085 0.74641 0.0
C2375 C 0.62919 0.59966 0.73395 0.0
H2376 H 0.67159 0.68887 0.63243 0.0
H2377 H 0.72084 0.72003 0.65641 0.0
H2378 H 0.72178 0.74389 0.63933 0.0
H2379 H 0.70858 0.75583 0.61736 0.0
H2380 H 0.65926 0.72442 0.59364 0.0
H2381 H 0.65826 0.70082 0.61134 0.0
C2382 C 0.68257 0.70086 0.63382 0.0
C2383 C 0.69618 0.70265 0.6455 0.0
C2384 C 0.68294 0.71453 0.62427 0.0
C2385 C 0.71022 0.71832 0.64743 0.0
C2386 C 0.71075 0.73197 0.63771 0.0
C2387 C 0.69761 0.74382 0.61608 0.0
C2388 C 0.68401 0.74195 0.60422 0.0
C2389 C 0.69717 0.73022 0.62608 0.0
C2390 C 0.66983 0.72631 0.60297 0.0
C2391 C 0.66929 0.71275 0.61288 0.0
H2392 H 0.2904 0.98241 0.65908 0.0
H2393 H 0.33178 0.98404 0.62639 0.0
H2394 H 0.31374 0.95877 0.60512 0.0
H2395 H 0.28622 0.93602 0.596 0.0
H2396 H 0.24475 0.93468 0.62761 0.0
H2397 H 0.26278 0.95997 0.64922 0.0
C2398 C 0.29546 0.97727 0.64723 0.0
C2399 C 0.3124 0.98507 0.64437 0.0
C2400 C 0.285 0.96272 0.635 0.0
C2401 C 0.31878 0.97829 0.62889 0.0
C2402 C 0.30847 0.96379 0.61678 0.0
C2403 C 0.28118 0.9412 0.60782 0.0
C2404 C 0.26424 0.93346 0.61046 0.0
C2405 C 0.29159 0.95584 0.61982 0.0
C2406 C 0.25778 0.94045 0.6254 0.0
C2407 C 0.26807 0.95489 0.63771 0.0
H2408 H 0.02984 0.34173 0.63127 0.0
H2409 H 0.01471 0.29245 0.65196 0.0
H2410 H 0.03899 0.29476 0.6339 0.0
H2411 H 0.06466 0.31101 0.61225 0.0
H2412 H 0.0796 0.3605 0.59271 0.0
H2413 H 0.05537 0.35796 0.61064 0.0
C2414 C 0.03177 0.33143 0.63173 0.0
C2415 C 0.02042 0.31688 0.64276 0.0
C2416 C 0.04583 0.33296 0.62173 0.0
C2417 C 0.02324 0.30376 0.64348 0.0
C2418 C 0.03714 0.30509 0.6332 0.0
C2419 C 0.06259 0.32122 0.61196 0.0
C2420 C 0.074 0.33596 0.60128 0.0
C2421 C 0.04855 0.31967 0.62231 0.0
C2422 C 0.0712 0.34913 0.60116 0.0
C2423 C 0.05726 0.34764 0.61123 0.0
H2424 H 0.28606 0.29819 0.66254 0.0
H2425 H 0.32117 0.33201 0.61415 0.0
H2426 H 0.29984 0.33352 0.59404 0.0
H2427 H 0.27143 0.32569 0.59032 0.0
H2428 H 0.236 0.29274 0.63909 0.0
H2429 H 0.25715 0.29038 0.65879 0.0
C2430 C 0.28896 0.30573 0.64746 0.0
C2431 C 0.30518 0.31494 0.63983 0.0
C2432 C 0.2766 0.30681 0.63612 0.0
C2433 C 0.3088 0.32482 0.62041 0.0
C2434 C 0.29661 0.32573 0.60891 0.0
C2435 C 0.26833 0.31819 0.60548 0.0
C2436 C 0.25214 0.30954 0.61329 0.0
C2437 C 0.28052 0.31694 0.61674 0.0
C2438 C 0.24834 0.29951 0.63262 0.0
C2439 C 0.26044 0.29816 0.64392 0.0
H2440 H 0.65762 0.96661 0.64918 0.0
H2441 H 0.70957 0.98902 0.64296 0.0
H2442 H 0.70594 0.96467 0.62212 0.0
H2443 H 0.68787 0.93749 0.60473 0.0
H2444 H 0.63594 0.9139 0.61514 0.0
H2445 H 0.6397 0.93832 0.63516 0.0
C2446 C 0.66811 0.96613 0.64317 0.0
C2447 C 0.68381 0.97957 0.64719 0.0
C2448 C 0.66593 0.95193 0.63198 0.0
C2449 C 0.69737 0.97877 0.63987 0.0
C2450 C 0.69529 0.96488 0.62801 0.0
C2451 C 0.67735 0.93745 0.61178 0.0
C2452 C 0.6616 0.92382 0.60799 0.0
C2453 C 0.6796 0.95139 0.62393 0.0
C2454 C 0.64818 0.92429 0.61713 0.0
C2455 C 0.65031 0.93824 0.62875 0.0
H2456 H 0.01875 0.72002 0.6687 0.0
H2457 H 0.01512 0.68084 0.62554 0.0
H2458 H 0.03848 0.70065 0.60323 0.0
H2459 H 0.05982 0.72904 0.59574 0.0
H2460 H 0.06365 0.76844 0.63846 0.0
H2461 H 0.04032 0.74862 0.66118 0.0
C2462 C 0.02306 0.71584 0.65438 0.0
C2463 C 0.01521 0.69898 0.6488 0.0
C2464 C 0.03656 0.72732 0.6416 0.0
C2465 C 0.02093 0.69375 0.6302 0.0
C2466 C 0.03432 0.70506 0.61745 0.0
C2467 C 0.0557 0.73327 0.61024 0.0
C2468 C 0.06352 0.75015 0.61554 0.0
C2469 C 0.04225 0.72185 0.62304 0.0
C2470 C 0.05779 0.75549 0.63402 0.0
C2471 C 0.04448 0.74417 0.64701 0.0
H2472 H 0.95713 0.61715 0.71124 0.0
H2473 H 0.00923 0.64916 0.70943 0.0
H2474 H 0.01278 0.62724 0.72416 0.0
H2475 H 1.00113 0.59928 0.73805 0.0
H2476 H 0.94891 0.56871 0.7455 0.0
H2477 H 0.94544 0.58939 0.72707 0.0
C2478 C 0.96923 0.61926 0.71407 0.0
C2479 C 0.98289 0.63468 0.70931 0.0
C2480 C 0.97119 0.60676 0.72322 0.0
C2481 C 0.99853 0.63738 0.71318 0.0
C2482 C 1.00057 0.62484 0.72148 0.0
C2483 C 0.98894 0.5971 0.73607 0.0
C2484 C 0.97538 0.58221 0.74335 0.0
C2485 C 0.98697 0.60952 0.72674 0.0
C2486 C 0.95971 0.5797 0.73971 0.0
C2487 C 0.95765 0.5917 0.72943 0.0
H2488 H 0.38614 0.36334 0.69123 0.0
H2489 H 0.34396 0.35085 0.73283 0.0
H2490 H 0.36013 0.37527 0.75683 0.0
H2491 H 0.38613 0.40019 0.76583 0.0
H2492 H 0.42822 0.41315 0.72378 0.0
H2493 H 0.41221 0.3884 0.70021 0.0
C2494 C 0.3805 0.36594 0.7056 0.0
C2495 C 0.36388 0.35532 0.71025 0.0
C2496 C 0.38984 0.38007 0.7192 0.0
C2497 C 0.35673 0.35885 0.72888 0.0
C2498 C 0.36596 0.37281 0.74259 0.0
C2499 C 0.39177 0.39773 0.75132 0.0
C2500 C 0.40833 0.40857 0.74648 0.0
C2501 C 0.38249 0.38356 0.73782 0.0
C2502 C 0.41553 0.40496 0.72796 0.0
C2503 C 0.40637 0.39085 0.71444 0.0
H2504 H 0.65357 0.03225 0.69909 0.0
H2505 H 0.65013 0.9891 0.72853 0.0
H2506 H 0.62518 0.98288 0.74819 0.0
H2507 H 0.60432 0.98957 0.75737 0.0
H2508 H 0.60769 0.03303 0.72966 0.0
H2509 H 0.6326 0.03925 0.70898 0.0
C2510 C 0.64737 0.02153 0.70987 0.0
C2511 C 0.65374 0.01117 0.71229 0.0
C2512 C 0.63295 0.01802 0.72135 0.0
C2513 C 0.64556 0.99733 0.72636 0.0
C2514 C 0.63123 0.99371 0.73759 0.0
C2515 C 0.6104 1.00028 0.74655 0.0
C2516 C 0.60411 0.01071 0.74476 0.0
C2517 C 0.62479 0.00391 0.73516 0.0
C2518 C 0.61231 0.02479 0.73119 0.0
C2519 C 0.62654 0.02835 0.71941 0.0
loop_
_geom_bond_atom_site_label_1
_geom_bond_atom_site_label_2
_geom_bond_distance
_geom_bond_site_symmetry_2
_ccdc_geom_bond_type
Co0 O1 2.216 . S
Co0 O2 2.091 . S
Co0 O4 2.004 1_554 S
Co0 O10 2.021 . S
Co0 O12 2.137 1_454 S
Co0 O13 2.244 1_455 S
O1 Co0 2.216 . S
O1 C8 1.247 . S
O2 Co0 2.091 . S
O2 C8 1.261 . S
C3 O12 1.247 . S
C3 O13 1.272 1_556 S
O4 Co0 2.004 1_556 S
O4 C9 1.184 1_455 S
Co5 O6 2.061 1_554 S
Co5 O11 2.052 . S
Co5 O13 2.135 . S
O6 Co5 2.061 1_556 S
O6 C9 1.308 . S
C7 O10 1.238 1_655 S
C7 O11 1.241 . S
C8 O1 1.247 . S
C8 O2 1.261 . S
C9 O4 1.184 1_655 S
C9 O6 1.308 . S
O10 Co0 2.021 . S
O10 C7 1.238 1_455 S
O11 Co5 2.052 . S
O11 C7 1.241 . S
O12 Co0 2.137 1_656 S
O12 C3 1.247 . S
O13 Co0 2.244 1_655 S
O13 C3 1.272 1_554 S
O13 Co5 2.135 . S
Co14 O15 2.216 1_554 S
Co14 O16 2.091 . S
Co14 O18 2.004 . S
Co14 O24 2.021 1_554 S
Co14 O26 2.137 . S
Co14 O27 2.244 . S
O15 Co14 2.216 1_556 S
O15 C22 1.247 . S
O16 Co14 2.091 . S
O16 C22 1.261 1_554 S
C17 O26 1.247 . S
C17 O27 1.272 . S
O18 Co14 2.004 . S
O18 C23 1.259 . S
Co19 O20 2.061 . S
Co19 O25 2.052 1_554 S
Co19 O27 2.135 . S
O20 Co19 2.061 . S
O20 C23 1.235 . S
C21 O24 1.238 . S
C21 O25 1.241 . S
C22 O15 1.247 . S
C22 O16 1.261 1_556 S
C23 O18 1.259 . S
C23 O20 1.235 . S
O24 Co14 2.021 1_556 S
O24 C21 1.238 . S
O25 Co19 2.052 1_556 S
O25 C21 1.241 . S
O26 Co14 2.137 . S
O26 C17 1.247 . S
O27 Co14 2.244 . S
O27 C17 1.272 . S
O27 Co19 2.135 . S
Co28 O29 2.216 1_554 S
Co28 O30 2.091 . S
Co28 O32 2.004 . S
Co28 O38 2.021 1_554 S
Co28 O40 2.137 1_545 S
Co28 O41 2.244 1_545 S
O29 Co28 2.216 1_556 S
O29 C36 1.247 . S
O30 Co28 2.091 . S
O30 C36 1.261 1_554 S
C31 O40 1.247 . S
C31 O41 1.272 . S
O32 Co28 2.004 . S
O32 C37 1.259 . S
Co33 O34 2.061 . S
Co33 O39 2.052 1_554 S
Co33 O41 2.135 . S
O34 Co33 2.061 . S
O34 C37 1.235 1_565 S
C35 O38 1.238 1_565 S
C35 O39 1.241 . S
C36 O29 1.247 . S
C36 O30 1.261 1_556 S
C37 O32 1.259 . S
C37 O34 1.235 1_545 S
O38 Co28 2.021 1_556 S
O38 C35 1.238 1_545 S
O39 Co33 2.052 1_556 S
O39 C35 1.241 . S
O40 Co28 2.137 1_565 S
O40 C31 1.247 . S
O41 Co28 2.244 1_565 S
O41 C31 1.272 . S
O41 Co33 2.135 . S
Co42 O43 2.216 1_554 S
Co42 O44 2.091 . S
Co42 O46 2.004 . S
Co42 O52 2.021 1_554 S
Co42 O54 2.137 1_655 S
Co42 O55 2.244 1_655 S
O43 Co42 2.216 1_556 S
O43 C50 1.247 . S
O44 Co42 2.091 . S
O44 C50 1.261 1_554 S
C45 O54 1.247 . S
C45 O55 1.272 . S
O46 Co42 2.004 . S
O46 C51 1.259 1_655 S
Co47 O48 2.061 . S
Co47 O53 2.052 1_554 S
Co47 O55 2.135 . S
O48 Co47 2.061 . S
O48 C51 1.235 . S
C49 O52 1.238 1_455 S
C49 O53 1.241 . S
C50 O43 1.247 . S
C50 O44 1.261 1_556 S
C51 O46 1.259 1_455 S
C51 O48 1.235 . S
O52 Co42 2.021 1_556 S
O52 C49 1.238 1_655 S
O53 Co47 2.052 1_556 S
O53 C49 1.241 . S
O54 Co42 2.137 1_455 S
O54 C45 1.247 . S
O55 Co42 2.244 1_455 S
O55 C45 1.272 . S
O55 Co47 2.135 . S
Co56 O57 2.216 . S
Co56 O58 2.091 . S
Co56 O60 2.004 1_554 S
Co56 O66 2.021 . S
Co56 O68 2.137 1_554 S
Co56 O69 2.244 . S
O57 Co56 2.216 . S
O57 C64 1.247 . S
O58 Co56 2.091 . S
O58 C64 1.261 . S
C59 O68 1.247 . S
C59 O69 1.272 1_556 S
O60 Co56 2.004 1_556 S
O60 C65 1.259 . S
Co61 O62 2.061 1_554 S
Co61 O67 2.052 . S
Co61 O69 2.135 . S
O62 Co61 2.061 1_556 S
O62 C65 1.235 . S
C63 O66 1.238 . S
C63 O67 1.241 . S
C64 O57 1.247 . S
C64 O58 1.261 . S
C65 O60 1.259 . S
C65 O62 1.235 . S
O66 Co56 2.021 . S
O66 C63 1.238 . S
O67 Co61 2.052 . S
O67 C63 1.241 . S
O68 Co56 2.137 1_556 S
O68 C59 1.247 . S
O69 Co56 2.244 . S
O69 C59 1.272 1_554 S
O69 Co61 2.135 . S
Co70 O71 2.216 . S
Co70 O72 2.091 . S
Co70 O74 2.004 1_554 S
Co70 O80 2.021 . S
Co70 O82 2.137 1_564 S
Co70 O83 2.244 1_565 S
O71 Co70 2.216 . S
O71 C78 1.247 . S
O72 Co70 2.091 . S
O72 C78 1.261 . S
C73 O82 1.247 . S
C73 O83 1.272 1_556 S
O74 Co70 2.004 1_556 S
O74 C79 1.259 1_565 S
Co75 O76 2.061 1_554 S
Co75 O81 2.052 . S
Co75 O83 2.135 . S
O76 Co75 2.061 1_556 S
O76 C79 1.235 . S
C77 O80 1.238 1_545 S
C77 O81 1.241 . S
C78 O71 1.247 . S
C78 O72 1.261 . S
C79 O74 1.259 1_545 S
C79 O76 1.235 . S
O80 Co70 2.021 . S
O80 C77 1.238 1_565 S
O81 Co75 2.052 . S
O81 C77 1.241 . S
O82 Co70 2.137 1_546 S
O82 C73 1.247 . S
O83 Co70 2.244 1_545 S
O83 C73 1.272 1_554 S
O83 Co75 2.135 . S
Co84 O85 2.216 . S
Co84 O86 2.091 . S
Co84 O88 2.004 . S
Co84 O94 2.021 . S
Co84 O96 2.137 . S
Co84 O97 2.244 . S
O85 Co84 2.216 . S
O85 C92 1.247 . S
O86 Co84 2.091 . S
O86 C92 1.261 . S
C87 O96 1.247 . S
C87 O97 1.272 . S
O88 Co84 2.004 . S
O88 C93 1.259 . S
Co89 O90 2.061 . S
Co89 O95 2.052 . S
Co89 O97 2.135 . S
O90 Co89 2.061 . S
O90 C93 1.235 . S
C91 O94 1.238 . S
C91 O95 1.241 . S
C92 O85 1.247 . S
C92 O86 1.261 . S
C93 O88 1.259 . S
C93 O90 1.235 . S
O94 Co84 2.021 . S
O94 C91 1.238 . S
O95 Co89 2.052 . S
O95 C91 1.241 . S
O96 Co84 2.137 . S
O96 C87 1.247 . S
O97 Co84 2.244 . S
O97 C87 1.272 . S
O97 Co89 2.135 . S
Co98 O99 2.216 . S
Co98 O100 2.091 . S
Co98 O102 2.004 . S
Co98 O108 2.021 . S
Co98 O110 2.137 . S
Co98 O111 2.244 . S
O99 Co98 2.216 . S
O99 C106 1.247 . S
O100 Co98 2.091 . S
O100 C106 1.261 . S
C101 O110 1.247 1_545 S
C101 O111 1.272 1_545 S
O102 Co98 2.004 . S
O102 C107 1.259 . S
Co103 O104 2.061 . S
Co103 O109 2.052 . S
Co103 O111 2.135 . S
O104 Co103 2.061 . S
O104 C107 1.235 . S
C105 O108 1.238 . S
C105 O109 1.241 . S
C106 O99 1.247 . S
C106 O100 1.261 . S
C107 O102 1.259 . S
C107 O104 1.235 . S
O108 Co98 2.021 . S
O108 C105 1.238 . S
O109 Co103 2.052 . S
O109 C105 1.241 . S
O110 Co98 2.137 . S
O110 C101 1.247 1_565 S
O111 Co98 2.244 . S
O111 C101 1.272 1_565 S
O111 Co103 2.135 . S
Co112 O113 2.216 . S
Co112 O114 2.091 . S
Co112 O116 2.004 . S
Co112 O122 2.021 . S
Co112 O124 2.137 . S
Co112 O125 2.244 . S
O113 Co112 2.216 . S
O113 C120 1.247 . S
O114 Co112 2.091 . S
O114 C120 1.261 . S
C115 O124 1.247 . S
C115 O125 1.272 . S
O116 Co112 2.004 . S
O116 C121 1.259 . S
Co117 O118 2.061 . S
Co117 O123 2.052 . S
Co117 O125 2.135 . S
O118 Co117 2.061 . S
O118 C121 1.235 . S
C119 O122 1.238 . S
C119 O123 1.241 . S
C120 O113 1.247 . S
C120 O114 1.261 . S
C121 O116 1.259 . S
C121 O118 1.235 . S
O122 Co112 2.021 . S
O122 C119 1.238 . S
O123 Co117 2.052 . S
O123 C119 1.241 . S
O124 Co112 2.137 . S
O124 C115 1.247 . S
O125 Co112 2.244 . S
O125 C115 1.272 . S
O125 Co117 2.135 . S
Co126 O127 2.216 . S
Co126 O128 2.091 . S
Co126 O130 2.004 . S
Co126 O136 2.021 . S
Co126 O138 2.137 . S
Co126 O139 2.244 . S
O127 Co126 2.216 . S
O127 C134 1.247 . S
O128 Co126 2.091 . S
O128 C134 1.261 . S
C129 O138 1.247 1_545 S
C129 O139 1.272 1_545 S
O130 Co126 2.004 . S
O130 C135 1.259 . S
Co131 O132 2.061 . S
Co131 O137 2.052 . S
Co131 O139 2.135 . S
O132 Co131 2.061 . S
O132 C135 1.235 . S
C133 O136 1.238 . S
C133 O137 1.241 . S
C134 O127 1.247 . S
C134 O128 1.261 . S
C135 O130 1.259 . S
C135 O132 1.235 . S
O136 Co126 2.021 . S
O136 C133 1.238 . S
O137 Co131 2.052 . S
O137 C133 1.241 . S
O138 Co126 2.137 . S
O138 C129 1.247 1_565 S
O139 Co126 2.244 . S
O139 C129 1.272 1_565 S
O139 Co131 2.135 . S
Co140 O141 2.250 . S
Co140 O142 2.091 1_455 S
Co140 O144 2.004 . S
Co140 O150 2.021 . S
Co140 O152 2.137 . S
Co140 O153 2.244 . S
O141 Co140 2.250 . S
O141 C148 1.186 1_455 S
O142 Co140 2.091 1_655 S
O142 C148 1.261 . S
C143 O152 1.247 . S
C143 O153 1.272 . S
O144 Co140 2.004 . S
O144 C149 1.259 . S
Co145 O146 2.061 . S
Co145 O151 2.052 . S
Co145 O153 2.135 . S
O146 Co145 2.061 . S
O146 C149 1.235 . S
C147 O150 1.238 . S
C147 O151 1.241 . S
C148 O141 1.186 1_655 S
C148 O142 1.261 . S
C149 O144 1.259 . S
C149 O146 1.235 . S
O150 Co140 2.021 . S
O150 C147 1.238 . S
O151 Co145 2.052 . S
O151 C147 1.241 . S
O152 Co140 2.137 . S
O152 C143 1.247 . S
O153 Co140 2.244 . S
O153 C143 1.272 . S
O153 Co145 2.135 . S
Co154 O155 2.216 . S
Co154 O156 2.091 . S
Co154 O158 2.004 . S
Co154 O164 2.021 . S
Co154 O166 2.137 . S
Co154 O167 2.244 . S
O155 Co154 2.216 . S
O155 C162 1.247 . S
O156 Co154 2.091 . S
O156 C162 1.261 . S
C157 O166 1.247 . S
C157 O167 1.272 . S
O158 Co154 2.004 . S
O158 C163 1.259 . S
Co159 O160 2.061 . S
Co159 O165 2.052 . S
Co159 O167 2.135 . S
O160 Co159 2.061 . S
O160 C163 1.235 . S
C161 O164 1.238 . S
C161 O165 1.241 . S
C162 O155 1.247 . S
C162 O156 1.261 . S
C163 O158 1.259 . S
C163 O160 1.235 . S
O164 Co154 2.021 . S
O164 C161 1.238 . S
O165 Co159 2.052 . S
O165 C161 1.241 . S
O166 Co154 2.137 . S
O166 C157 1.247 . S
O167 Co154 2.244 . S
O167 C157 1.272 . S
O167 Co159 2.135 . S
Co168 O169 2.216 . S
Co168 O170 2.091 . S
Co168 O172 2.004 . S
Co168 O178 2.021 . S
Co168 O180 2.137 . S
Co168 O181 2.244 . S
O169 Co168 2.216 . S
O169 C176 1.247 . S
O170 Co168 2.091 . S
O170 C176 1.261 . S
C171 O180 1.235 . S
C171 O181 1.308 . S
O172 Co168 2.004 . S
O172 C177 1.259 . S
Co173 O174 2.061 . S
Co173 O179 2.052 . S
Co173 O181 2.135 . S
O174 Co173 2.061 . S
O174 C177 1.235 . S
C175 O178 1.238 . S
C175 O179 1.241 . S
C176 O169 1.247 . S
C176 O170 1.261 . S
C177 O172 1.259 . S
C177 O174 1.235 . S
O178 Co168 2.021 . S
O178 C175 1.238 . S
O179 Co173 2.052 . S
O179 C175 1.241 . S
O180 Co168 2.137 . S
O180 C171 1.235 . S
O181 Co168 2.244 . S
O181 C171 1.308 . S
O181 Co173 2.135 . S
Co182 O183 2.251 . S
Co182 O184 2.091 1_655 S
Co182 O186 2.004 . S
Co182 O192 2.021 . S
Co182 O194 2.137 . S
Co182 O195 2.244 . S
O183 Co182 2.251 . S
O183 C190 1.185 1_655 S
O184 Co182 2.091 1_455 S
O184 C190 1.261 . S
C185 O194 1.247 . S
C185 O195 1.272 . S
O186 Co182 2.004 . S
O186 C191 1.259 . S
Co187 O188 2.061 . S
Co187 O193 2.052 . S
Co187 O195 2.135 . S
O188 Co187 2.061 . S
O188 C191 1.235 . S
C189 O192 1.238 . S
C189 O193 1.241 . S
C190 O183 1.185 1_455 S
C190 O184 1.261 . S
C191 O186 1.259 . S
C191 O188 1.235 . S
O192 Co182 2.021 . S
O192 C189 1.238 . S
O193 Co187 2.052 . S
O193 C189 1.241 . S
O194 Co182 2.137 . S
O194 C185 1.247 . S
O195 Co182 2.244 . S
O195 C185 1.272 . S
O195 Co187 2.135 . S
Co196 O197 2.216 . S
Co196 O198 2.091 . S
Co196 O200 2.004 . S
Co196 O206 2.021 . S
Co196 O208 2.137 . S
Co196 O209 2.244 . S
O197 Co196 2.216 . S
O197 C204 1.247 . S
O198 Co196 2.091 . S
O198 C204 1.261 . S
C199 O208 1.247 . S
C199 O209 1.272 . S
O200 Co196 2.004 . S
O200 C205 1.259 . S
Co201 O202 2.061 . S
Co201 O207 2.052 . S
Co201 O209 2.135 . S
O202 Co201 2.061 . S
O202 C205 1.235 . S
C203 O206 1.238 . S
C203 O207 1.241 . S
C204 O197 1.247 . S
C204 O198 1.261 . S
C205 O200 1.259 . S
C205 O202 1.235 . S
O206 Co196 2.021 . S
O206 C203 1.238 . S
O207 Co201 2.052 . S
O207 C203 1.241 . S
O208 Co196 2.137 . S
O208 C199 1.247 . S
O209 Co196 2.244 . S
O209 C199 1.272 . S
O209 Co201 2.135 . S
Co210 O211 2.216 . S
Co210 O212 2.091 . S
Co210 O214 2.004 . S
Co210 O220 2.021 . S
Co210 O222 2.137 . S
Co210 O223 2.244 . S
O211 Co210 2.216 . S
O211 C218 1.247 . S
O212 Co210 2.091 . S
O212 C218 1.261 . S
C213 O222 1.247 . S
C213 O223 1.272 . S
O214 Co210 2.004 . S
O214 C219 1.259 . S
Co215 O216 2.061 . S
Co215 O221 2.052 . S
Co215 O223 2.135 . S
O216 Co215 2.061 . S
O216 C219 1.235 . S
C217 O220 1.238 . S
C217 O221 1.241 . S
C218 O211 1.247 . S
C218 O212 1.261 . S
C219 O214 1.259 . S
C219 O216 1.235 . S
O220 Co210 2.021 . S
O220 C217 1.238 . S
O221 Co215 2.052 . S
O221 C217 1.241 . S
O222 Co210 2.137 . S
O222 C213 1.247 . S
O223 Co210 2.244 . S
O223 C213 1.272 . S
O223 Co215 2.135 . S
Co224 O225 2.216 . S
Co224 O226 2.091 . S
Co224 O228 2.004 . S
Co224 O234 2.021 . S
Co224 O236 2.137 . S
Co224 O237 2.244 . S
O225 Co224 2.216 . S
O225 C232 1.247 . S
O226 Co224 2.091 . S
O226 C232 1.261 . S
C227 O236 1.304 . S
C227 O237 1.293 . S
O228 Co224 2.004 . S
O228 C233 1.259 . S
Co229 O230 2.061 . S
Co229 O235 2.052 . S
Co229 O237 2.135 . S
O230 Co229 2.061 . S
O230 C233 1.235 . S
C231 O234 1.238 . S
C231 O235 1.241 . S
C232 O225 1.247 . S
C232 O226 1.261 . S
C233 O228 1.259 . S
C233 O230 1.235 . S
O234 Co224 2.021 . S
O234 C231 1.238 . S
O235 Co229 2.052 . S
O235 C231 1.241 . S
O236 Co224 2.137 . S
O236 C227 1.304 . S
O237 Co224 2.244 . S
O237 C227 1.293 . S
O237 Co229 2.135 . S
Co238 O239 2.216 . S
Co238 O240 2.091 . S
Co238 O242 2.004 . S
Co238 O248 2.021 . S
Co238 O250 2.137 . S
Co238 O251 2.244 . S
O239 Co238 2.216 . S
O239 C246 1.247 . S
O240 Co238 2.091 . S
O240 C246 1.261 . S
C241 O250 1.247 . S
C241 O251 1.272 . S
O242 Co238 2.004 . S
O242 C247 1.259 . S
Co243 O244 2.061 . S
Co243 O249 2.052 . S
Co243 O251 2.135 . S
O244 Co243 2.061 . S
O244 C247 1.235 . S
C245 O248 1.238 . S
C245 O249 1.241 . S
C246 O239 1.247 . S
C246 O240 1.261 . S
C247 O242 1.259 . S
C247 O244 1.235 . S
O248 Co238 2.021 . S
O248 C245 1.238 . S
O249 Co243 2.052 . S
O249 C245 1.241 . S
O250 Co238 2.137 . S
O250 C241 1.247 . S
O251 Co238 2.244 . S
O251 C241 1.272 . S
O251 Co243 2.135 . S
H252 C279 0.929 . S
N253 C278 1.433 . S
N253 C284 1.435 . S
N253 C290 1.423 . S
H254 C280 0.930 . S
H255 C283 0.931 . S
H256 C282 0.929 . S
H257 C285 0.930 . S
H258 C286 0.932 . S
H259 C289 0.929 . S
H260 C288 0.931 . S
H261 C291 0.929 . S
H262 C295 0.932 . S
H263 C292 0.931 . S
H264 C294 0.929 . S
H265 C297 0.929 . S
H266 C298 0.930 . S
H267 C300 0.929 . S
H268 C301 0.931 . S
H269 C303 0.930 . S
H270 C304 0.932 . S
H271 C306 0.931 . S
H272 C307 0.929 . S
H273 C309 0.929 . S
H274 C310 0.931 . S
H275 C312 0.929 . S
N276 C296 1.433 . S
N276 C302 1.435 . S
N276 C308 1.423 . S
H277 C313 0.932 . S
C278 N253 1.433 . S
C278 C279 1.363 . S
C278 C283 1.370 . S
C279 H252 0.929 . S
C279 C278 1.363 . S
C279 C280 1.385 . S
C280 H254 0.930 . S
C280 C279 1.385 . S
C280 C281 1.357 . S
C281 C280 1.357 . S
C281 C282 1.406 . S
C282 H256 0.929 . S
C282 C281 1.406 . S
C282 C283 1.391 . S
C283 H255 0.931 . S
C283 C278 1.370 . S
C283 C282 1.391 . S
C284 N253 1.435 . S
C284 C285 1.358 . S
C284 C289 1.371 . S
C285 H257 0.930 . S
C285 C284 1.358 . S
C285 C286 1.405 . S
C286 H258 0.932 . S
C286 C285 1.405 . S
C286 C287 1.383 . S
C287 C286 1.383 . S
C287 C288 1.393 . S
C288 H260 0.931 . S
C288 C287 1.393 . S
C288 C289 1.382 . S
C289 H259 0.929 . S
C289 C284 1.371 . S
C289 C288 1.382 . S
C290 N253 1.423 . S
C290 C291 1.362 . S
C290 C295 1.388 . S
C291 H261 0.929 . S
C291 C290 1.362 . S
C291 C292 1.376 . S
C292 H263 0.931 . S
C292 C291 1.376 . S
C292 C293 1.396 . S
C293 C292 1.396 . S
C293 C294 1.348 . S
C293 C311 1.472 . S
C294 H264 0.929 . S
C294 C293 1.348 . S
C294 C295 1.443 . S
C295 H262 0.932 . S
C295 C290 1.388 . S
C295 C294 1.443 . S
C296 N276 1.433 . S
C296 C297 1.363 . S
C296 C301 1.370 . S
C297 H265 0.929 . S
C297 C296 1.363 . S
C297 C298 1.385 . S
C298 H266 0.930 . S
C298 C297 1.385 . S
C298 C299 1.357 . S
C299 C298 1.357 . S
C299 C300 1.406 . S
C300 H267 0.929 . S
C300 C299 1.406 . S
C300 C301 1.391 . S
C301 H268 0.931 . S
C301 C296 1.370 . S
C301 C300 1.391 . S
C302 N276 1.435 . S
C302 C303 1.358 . S
C302 C307 1.371 . S
C303 H269 0.930 . S
C303 C302 1.358 . S
C303 C304 1.405 . S
C304 H270 0.932 . S
C304 C303 1.405 . S
C304 C305 1.383 . S
C305 C304 1.383 . S
C305 C306 1.393 . S
C306 H271 0.931 . S
C306 C305 1.393 . S
C306 C307 1.382 . S
C307 H272 0.929 . S
C307 C302 1.371 . S
C307 C306 1.382 . S
C308 N276 1.423 . S
C308 C309 1.362 . S
C308 C313 1.388 . S
C309 H273 0.929 . S
C309 C308 1.362 . S
C309 C310 1.376 . S
C310 H274 0.931 . S
C310 C309 1.376 . S
C310 C311 1.396 . S
C311 C293 1.472 . S
C311 C310 1.396 . S
C311 C312 1.348 . S
C312 H275 0.929 . S
C312 C311 1.348 . S
C312 C313 1.443 . S
C313 H277 0.932 . S
C313 C308 1.388 . S
C313 C312 1.443 . S
H314 C341 0.929 . S
N315 C340 1.433 . S
N315 C346 1.435 . S
N315 C352 1.423 . S
H316 C342 0.930 . S
H317 C345 0.931 . S
H318 C344 0.929 . S
H319 C347 0.930 . S
H320 C348 0.932 . S
H321 C351 0.929 . S
H322 C350 0.931 . S
H323 C353 0.929 . S
H324 C357 0.932 . S
H325 C354 0.931 . S
H326 C356 0.929 . S
H327 C359 0.929 . S
H328 C360 0.930 . S
H329 C362 0.929 . S
H330 C363 0.931 . S
H331 C365 0.930 . S
H332 C366 0.932 . S
H333 C368 0.931 . S
H334 C369 0.929 . S
H335 C371 0.929 . S
H336 C372 0.931 . S
H337 C374 0.929 . S
N338 C358 1.433 . S
N338 C364 1.435 . S
N338 C370 1.423 . S
H339 C375 0.932 . S
C340 N315 1.433 . S
C340 C341 1.363 . S
C340 C345 1.370 . S
C341 H314 0.929 . S
C341 C340 1.363 . S
C341 C342 1.385 . S
C342 H316 0.930 . S
C342 C341 1.385 . S
C342 C343 1.357 . S
C343 C342 1.357 . S
C343 C344 1.406 . S
C344 H318 0.929 . S
C344 C343 1.406 . S
C344 C345 1.391 . S
C345 H317 0.931 . S
C345 C340 1.370 . S
C345 C344 1.391 . S
C346 N315 1.435 . S
C346 C347 1.358 . S
C346 C351 1.371 . S
C347 H319 0.930 . S
C347 C346 1.358 . S
C347 C348 1.405 . S
C348 H320 0.932 . S
C348 C347 1.405 . S
C348 C349 1.383 . S
C349 C348 1.383 . S
C349 C350 1.393 . S
C350 H322 0.931 . S
C350 C349 1.393 . S
C350 C351 1.382 . S
C351 H321 0.929 . S
C351 C346 1.371 . S
C351 C350 1.382 . S
C352 N315 1.423 . S
C352 C353 1.362 . S
C352 C357 1.388 . S
C353 H323 0.929 . S
C353 C352 1.362 . S
C353 C354 1.376 . S
C354 H325 0.931 . S
C354 C353 1.376 . S
C354 C355 1.396 . S
C355 C354 1.396 . S
C355 C356 1.348 . S
C355 C373 1.472 . S
C356 H326 0.929 . S
C356 C355 1.348 . S
C356 C357 1.443 . S
C357 H324 0.932 . S
C357 C352 1.388 . S
C357 C356 1.443 . S
C358 N338 1.433 . S
C358 C359 1.363 . S
C358 C363 1.370 . S
C359 H327 0.929 . S
C359 C358 1.363 . S
C359 C360 1.385 . S
C360 H328 0.930 . S
C360 C359 1.385 . S
C360 C361 1.357 . S
C361 C360 1.357 . S
C361 C362 1.406 . S
C362 H329 0.929 . S
C362 C361 1.406 . S
C362 C363 1.391 . S
C363 H330 0.931 . S
C363 C358 1.370 . S
C363 C362 1.391 . S
C364 N338 1.435 . S
C364 C365 1.358 . S
C364 C369 1.371 . S
C365 H331 0.930 . S
C365 C364 1.358 . S
C365 C366 1.405 . S
C366 H332 0.932 . S
C366 C365 1.405 . S
C366 C367 1.383 . S
C367 C366 1.383 . S
C367 C368 1.393 . S
C368 H333 0.931 . S
C368 C367 1.393 . S
C368 C369 1.382 . S
C369 H334 0.929 . S
C369 C364 1.371 . S
C369 C368 1.382 . S
C370 N338 1.423 . S
C370 C371 1.362 . S
C370 C375 1.388 . S
C371 H335 0.929 . S
C371 C370 1.362 . S
C371 C372 1.376 . S
C372 H336 0.931 . S
C372 C371 1.376 . S
C372 C373 1.396 . S
C373 C355 1.472 . S
C373 C372 1.396 . S
C373 C374 1.348 . S
C374 H337 0.929 . S
C374 C373 1.348 . S
C374 C375 1.443 . S
C375 H339 0.932 . S
C375 C370 1.388 . S
C375 C374 1.443 . S
H376 C403 0.929 . S
N377 C402 1.433 . S
N377 C408 1.435 . S
N377 C414 1.423 . S
H378 C404 0.930 . S
H379 C407 0.931 . S
H380 C406 0.929 . S
H381 C409 0.930 . S
H382 C410 0.932 . S
H383 C413 0.929 . S
H384 C412 0.931 . S
H385 C415 0.929 . S
H386 C419 0.932 . S
H387 C416 0.931 . S
H388 C418 0.929 . S
H389 C421 0.929 . S
H390 C422 0.930 . S
H391 C424 0.929 . S
H392 C425 0.931 . S
H393 C427 0.930 . S
H394 C428 0.932 . S
H395 C430 0.931 . S
H396 C431 0.929 . S
H397 C433 0.929 . S
H398 C434 0.931 . S
H399 C436 0.929 . S
N400 C420 1.433 . S
N400 C426 1.435 . S
N400 C432 1.423 . S
H401 C437 0.932 . S
C402 N377 1.433 . S
C402 C403 1.363 . S
C402 C407 1.370 . S
C403 H376 0.929 . S
C403 C402 1.363 . S
C403 C404 1.385 . S
C404 H378 0.930 . S
C404 C403 1.385 . S
C404 C405 1.357 . S
C405 C404 1.357 . S
C405 C406 1.406 . S
C406 H380 0.929 . S
C406 C405 1.406 . S
C406 C407 1.391 . S
C407 H379 0.931 . S
C407 C402 1.370 . S
C407 C406 1.391 . S
C408 N377 1.435 . S
C408 C409 1.358 . S
C408 C413 1.371 . S
C409 H381 0.930 . S
C409 C408 1.358 . S
C409 C410 1.405 . S
C410 H382 0.932 . S
C410 C409 1.405 . S
C410 C411 1.383 . S
C411 C410 1.383 . S
C411 C412 1.393 . S
C412 H384 0.931 . S
C412 C411 1.393 . S
C412 C413 1.382 . S
C413 H383 0.929 . S
C413 C408 1.371 . S
C413 C412 1.382 . S
C414 N377 1.423 . S
C414 C415 1.362 . S
C414 C419 1.388 . S
C415 H385 0.929 . S
C415 C414 1.362 . S
C415 C416 1.376 . S
C416 H387 0.931 . S
C416 C415 1.376 . S
C416 C417 1.396 . S
C417 C416 1.396 . S
C417 C418 1.348 . S
C417 C435 1.472 . S
C418 H388 0.929 . S
C418 C417 1.348 . S
C418 C419 1.443 . S
C419 H386 0.932 . S
C419 C414 1.388 . S
C419 C418 1.443 . S
C420 N400 1.433 . S
C420 C421 1.363 . S
C420 C425 1.370 . S
C421 H389 0.929 . S
C421 C420 1.363 . S
C421 C422 1.385 . S
C422 H390 0.930 . S
C422 C421 1.385 . S
C422 C423 1.357 . S
C423 C422 1.357 . S
C423 C424 1.406 . S
C424 H391 0.929 . S
C424 C423 1.406 . S
C424 C425 1.391 . S
C425 H392 0.931 . S
C425 C420 1.370 . S
C425 C424 1.391 . S
C426 N400 1.435 . S
C426 C427 1.358 . S
C426 C431 1.371 . S
C427 H393 0.930 . S
C427 C426 1.358 . S
C427 C428 1.405 . S
C428 H394 0.932 . S
C428 C427 1.405 . S
C428 C429 1.383 . S
C429 C428 1.383 . S
C429 C430 1.393 . S
C430 H395 0.931 . S
C430 C429 1.393 . S
C430 C431 1.382 . S
C431 H396 0.929 . S
C431 C426 1.371 . S
C431 C430 1.382 . S
C432 N400 1.423 . S
C432 C433 1.362 . S
C432 C437 1.388 . S
C433 H397 0.929 . S
C433 C432 1.362 . S
C433 C434 1.376 . S
C434 H398 0.931 . S
C434 C433 1.376 . S
C434 C435 1.396 . S
C435 C417 1.472 . S
C435 C434 1.396 . S
C435 C436 1.348 . S
C436 H399 0.929 . S
C436 C435 1.348 . S
C436 C437 1.443 . S
C437 H401 0.932 . S
C437 C432 1.388 . S
C437 C436 1.443 . S
H438 C465 0.929 . S
N439 C464 1.433 . S
N439 C470 1.435 . S
N439 C476 1.423 . S
H440 C466 0.930 . S
H441 C469 0.931 . S
H442 C468 0.929 . S
H443 C471 0.930 . S
H444 C472 0.932 . S
H445 C475 0.929 . S
H446 C474 0.931 . S
H447 C477 0.929 . S
H448 C481 0.932 . S
H449 C478 0.931 . S
H450 C480 0.929 . S
H451 C483 0.929 . S
H452 C484 0.930 . S
H453 C486 0.929 . S
H454 C487 0.931 . S
H455 C489 0.930 . S
H456 C490 0.932 . S
H457 C492 0.931 . S
H458 C493 0.929 . S
H459 C495 0.929 . S
H460 C496 0.931 . S
H461 C498 0.929 . S
N462 C482 1.433 . S
N462 C488 1.435 . S
N462 C494 1.423 . S
H463 C499 0.932 . S
C464 N439 1.433 . S
C464 C465 1.363 . S
C464 C469 1.370 . S
C465 H438 0.929 . S
C465 C464 1.363 . S
C465 C466 1.385 . S
C466 H440 0.930 . S
C466 C465 1.385 . S
C466 C467 1.357 . S
C467 C466 1.357 . S
C467 C468 1.406 . S
C468 H442 0.929 . S
C468 C467 1.406 . S
C468 C469 1.391 . S
C469 H441 0.931 . S
C469 C464 1.370 . S
C469 C468 1.391 . S
C470 N439 1.435 . S
C470 C471 1.358 . S
C470 C475 1.371 . S
C471 H443 0.930 . S
C471 C470 1.358 . S
C471 C472 1.405 . S
C472 H444 0.932 . S
C472 C471 1.405 . S
C472 C473 1.383 . S
C473 C472 1.383 . S
C473 C474 1.393 . S
C474 H446 0.931 . S
C474 C473 1.393 . S
C474 C475 1.382 . S
C475 H445 0.929 . S
C475 C470 1.371 . S
C475 C474 1.382 . S
C476 N439 1.423 . S
C476 C477 1.362 . S
C476 C481 1.388 . S
C477 H447 0.929 . S
C477 C476 1.362 . S
C477 C478 1.376 . S
C478 H449 0.931 . S
C478 C477 1.376 . S
C478 C479 1.396 . S
C479 C478 1.396 . S
C479 C480 1.348 . S
C479 C497 1.472 . S
C480 H450 0.929 . S
C480 C479 1.348 . S
C480 C481 1.443 . S
C481 H448 0.932 . S
C481 C476 1.388 . S
C481 C480 1.443 . S
C482 N462 1.433 . S
C482 C483 1.363 . S
C482 C487 1.370 . S
C483 H451 0.929 . S
C483 C482 1.363 . S
C483 C484 1.385 . S
C484 H452 0.930 . S
C484 C483 1.385 . S
C484 C485 1.357 . S
C485 C484 1.357 . S
C485 C486 1.406 . S
C486 H453 0.929 . S
C486 C485 1.406 . S
C486 C487 1.391 . S
C487 H454 0.931 . S
C487 C482 1.370 . S
C487 C486 1.391 . S
C488 N462 1.435 . S
C488 C489 1.358 . S
C488 C493 1.371 . S
C489 H455 0.930 . S
C489 C488 1.358 . S
C489 C490 1.405 . S
C490 H456 0.932 . S
C490 C489 1.405 . S
C490 C491 1.383 . S
C491 C490 1.383 . S
C491 C492 1.393 . S
C492 H457 0.931 . S
C492 C491 1.393 . S
C492 C493 1.382 . S
C493 H458 0.929 . S
C493 C488 1.371 . S
C493 C492 1.382 . S
C494 N462 1.423 . S
C494 C495 1.362 . S
C494 C499 1.388 . S
C495 H459 0.929 . S
C495 C494 1.362 . S
C495 C496 1.376 . S
C496 H460 0.931 . S
C496 C495 1.376 . S
C496 C497 1.396 . S
C497 C479 1.472 . S
C497 C496 1.396 . S
C497 C498 1.348 . S
C498 H461 0.929 . S
C498 C497 1.348 . S
C498 C499 1.443 . S
C499 H463 0.932 . S
C499 C494 1.388 . S
C499 C498 1.443 . S
H500 C527 0.929 . S
N501 C526 1.433 . S
N501 C532 1.435 . S
N501 C538 1.423 . S
H502 C528 0.930 . S
H503 C531 0.931 . S
H504 C530 0.929 . S
H505 C533 0.930 . S
H506 C534 0.932 . S
H507 C537 0.929 . S
H508 C536 0.931 . S
H509 C539 0.929 . S
H510 C543 0.932 . S
H511 C540 0.931 . S
H512 C542 0.929 . S
H513 C545 0.929 . S
H514 C546 0.930 . S
H515 C548 0.929 . S
H516 C549 0.931 . S
H517 C551 0.930 . S
H518 C552 0.932 . S
H519 C554 0.931 . S
H520 C555 0.929 . S
H521 C557 0.929 . S
H522 C558 0.931 . S
H523 C560 0.929 . S
N524 C544 1.433 . S
N524 C550 1.435 . S
N524 C556 1.423 . S
H525 C561 0.932 . S
C526 N501 1.433 . S
C526 C527 1.363 . S
C526 C531 1.370 . S
C527 H500 0.929 . S
C527 C526 1.363 . S
C527 C528 1.385 . S
C528 H502 0.930 . S
C528 C527 1.385 . S
C528 C529 1.357 . S
C529 C528 1.357 . S
C529 C530 1.406 . S
C530 H504 0.929 . S
C530 C529 1.406 . S
C530 C531 1.391 . S
C531 H503 0.931 . S
C531 C526 1.370 . S
C531 C530 1.391 . S
C532 N501 1.435 . S
C532 C533 1.358 . S
C532 C537 1.371 . S
C533 H505 0.930 . S
C533 C532 1.358 . S
C533 C534 1.405 . S
C534 H506 0.932 . S
C534 C533 1.405 . S
C534 C535 1.383 . S
C535 C534 1.383 . S
C535 C536 1.393 . S
C536 H508 0.931 . S
C536 C535 1.393 . S
C536 C537 1.382 . S
C537 H507 0.929 . S
C537 C532 1.371 . S
C537 C536 1.382 . S
C538 N501 1.423 . S
C538 C539 1.362 . S
C538 C543 1.388 . S
C539 H509 0.929 . S
C539 C538 1.362 . S
C539 C540 1.376 . S
C540 H511 0.931 . S
C540 C539 1.376 . S
C540 C541 1.396 . S
C541 C540 1.396 . S
C541 C542 1.348 . S
C541 C559 1.472 . S
C542 H512 0.929 . S
C542 C541 1.348 . S
C542 C543 1.443 . S
C543 H510 0.932 . S
C543 C538 1.388 . S
C543 C542 1.443 . S
C544 N524 1.433 . S
C544 C545 1.363 . S
C544 C549 1.370 . S
C545 H513 0.929 . S
C545 C544 1.363 . S
C545 C546 1.385 . S
C546 H514 0.930 . S
C546 C545 1.385 . S
C546 C547 1.357 . S
C547 C546 1.357 . S
C547 C548 1.406 . S
C548 H515 0.929 . S
C548 C547 1.406 . S
C548 C549 1.391 . S
C549 H516 0.931 . S
C549 C544 1.370 . S
C549 C548 1.391 . S
C550 N524 1.435 . S
C550 C551 1.358 . S
C550 C555 1.371 . S
C551 H517 0.930 . S
C551 C550 1.358 . S
C551 C552 1.405 . S
C552 H518 0.932 . S
C552 C551 1.405 . S
C552 C553 1.383 . S
C553 C552 1.383 . S
C553 C554 1.393 . S
C554 H519 0.931 . S
C554 C553 1.393 . S
C554 C555 1.382 . S
C555 H520 0.929 . S
C555 C550 1.371 . S
C555 C554 1.382 . S
C556 N524 1.423 . S
C556 C557 1.362 . S
C556 C561 1.388 . S
C557 H521 0.929 . S
C557 C556 1.362 . S
C557 C558 1.376 . S
C558 H522 0.931 . S
C558 C557 1.376 . S
C558 C559 1.396 . S
C559 C541 1.472 . S
C559 C558 1.396 . S
C559 C560 1.348 . S
C560 H523 0.929 . S
C560 C559 1.348 . S
C560 C561 1.443 . S
C561 H525 0.932 . S
C561 C556 1.388 . S
C561 C560 1.443 . S
H562 C589 0.929 . S
N563 C588 1.433 . S
N563 C594 1.435 . S
N563 C600 1.423 . S
H564 C590 0.930 . S
H565 C593 0.931 . S
H566 C592 0.929 . S
H567 C595 0.930 . S
H568 C596 0.932 . S
H569 C599 0.929 . S
H570 C598 0.931 . S
H571 C601 0.929 . S
H572 C605 0.932 . S
H573 C602 0.931 . S
H574 C604 0.929 . S
H575 C607 0.929 . S
H576 C608 0.930 . S
H577 C610 0.929 . S
H578 C611 0.931 . S
H579 C613 0.930 . S
H580 C614 0.932 . S
H581 C616 0.931 . S
H582 C617 0.929 . S
H583 C619 0.929 . S
H584 C620 0.931 . S
H585 C622 0.929 . S
N586 C606 1.433 . S
N586 C612 1.435 . S
N586 C618 1.423 . S
H587 C623 0.932 . S
C588 N563 1.433 . S
C588 C589 1.363 . S
C588 C593 1.370 . S
C589 H562 0.929 . S
C589 C588 1.363 . S
C589 C590 1.385 . S
C590 H564 0.930 . S
C590 C589 1.385 . S
C590 C591 1.357 . S
C591 C590 1.357 . S
C591 C592 1.406 . S
C592 H566 0.929 . S
C592 C591 1.406 . S
C592 C593 1.391 . S
C593 H565 0.931 . S
C593 C588 1.370 . S
C593 C592 1.391 . S
C594 N563 1.435 . S
C594 C595 1.358 . S
C594 C599 1.371 . S
C595 H567 0.930 . S
C595 C594 1.358 . S
C595 C596 1.405 . S
C596 H568 0.932 . S
C596 C595 1.405 . S
C596 C597 1.383 . S
C597 C596 1.383 . S
C597 C598 1.393 . S
C598 H570 0.931 . S
C598 C597 1.393 . S
C598 C599 1.382 . S
C599 H569 0.929 . S
C599 C594 1.371 . S
C599 C598 1.382 . S
C600 N563 1.423 . S
C600 C601 1.362 . S
C600 C605 1.388 . S
C601 H571 0.929 . S
C601 C600 1.362 . S
C601 C602 1.376 . S
C602 H573 0.931 . S
C602 C601 1.376 . S
C602 C603 1.396 . S
C603 C602 1.396 . S
C603 C604 1.348 . S
C603 C621 1.472 . S
C604 H574 0.929 . S
C604 C603 1.348 . S
C604 C605 1.443 . S
C605 H572 0.932 . S
C605 C600 1.388 . S
C605 C604 1.443 . S
C606 N586 1.433 . S
C606 C607 1.363 . S
C606 C611 1.370 . S
C607 H575 0.929 . S
C607 C606 1.363 . S
C607 C608 1.385 . S
C608 H576 0.930 . S
C608 C607 1.385 . S
C608 C609 1.357 . S
C609 C608 1.357 . S
C609 C610 1.406 . S
C610 H577 0.929 . S
C610 C609 1.406 . S
C610 C611 1.391 . S
C611 H578 0.931 . S
C611 C606 1.370 . S
C611 C610 1.391 . S
C612 N586 1.435 . S
C612 C613 1.358 . S
C612 C617 1.371 . S
C613 H579 0.930 . S
C613 C612 1.358 . S
C613 C614 1.405 . S
C614 H580 0.932 . S
C614 C613 1.405 . S
C614 C615 1.383 . S
C615 C614 1.383 . S
C615 C616 1.393 . S
C616 H581 0.931 . S
C616 C615 1.393 . S
C616 C617 1.382 . S
C617 H582 0.929 . S
C617 C612 1.371 . S
C617 C616 1.382 . S
C618 N586 1.423 . S
C618 C619 1.362 . S
C618 C623 1.388 . S
C619 H583 0.929 . S
C619 C618 1.362 . S
C619 C620 1.376 . S
C620 H584 0.931 . S
C620 C619 1.376 . S
C620 C621 1.396 . S
C621 C603 1.472 . S
C621 C620 1.396 . S
C621 C622 1.348 . S
C622 H585 0.929 . S
C622 C621 1.348 . S
C622 C623 1.443 . S
C623 H587 0.932 . S
C623 C618 1.388 . S
C623 C622 1.443 . S
H624 C651 0.929 . S
N625 C650 1.433 . S
N625 C656 1.435 . S
N625 C662 1.423 . S
H626 C652 0.930 . S
H627 C655 0.931 . S
H628 C654 0.929 . S
H629 C657 0.930 . S
H630 C658 0.932 . S
H631 C661 0.929 . S
H632 C660 0.931 . S
H633 C663 0.929 . S
H634 C667 0.932 . S
H635 C664 0.931 . S
H636 C666 0.929 . S
H637 C669 0.929 . S
H638 C670 0.930 . S
H639 C672 0.929 . S
H640 C673 0.931 . S
H641 C675 0.930 . S
H642 C676 0.932 . S
H643 C678 0.931 . S
H644 C679 0.929 . S
H645 C681 0.929 . S
H646 C682 0.931 . S
H647 C684 0.929 . S
N648 C668 1.433 . S
N648 C674 1.435 . S
N648 C680 1.423 . S
H649 C685 0.932 . S
C650 N625 1.433 . S
C650 C651 1.363 . S
C650 C655 1.370 . S
C651 H624 0.929 . S
C651 C650 1.363 . S
C651 C652 1.385 . S
C652 H626 0.930 . S
C652 C651 1.385 . S
C652 C653 1.357 . S
C653 C652 1.357 . S
C653 C654 1.406 . S
C654 H628 0.929 . S
C654 C653 1.406 . S
C654 C655 1.391 . S
C655 H627 0.931 . S
C655 C650 1.370 . S
C655 C654 1.391 . S
C656 N625 1.435 . S
C656 C657 1.358 . S
C656 C661 1.371 . S
C657 H629 0.930 . S
C657 C656 1.358 . S
C657 C658 1.405 . S
C658 H630 0.932 . S
C658 C657 1.405 . S
C658 C659 1.383 . S
C659 C658 1.383 . S
C659 C660 1.393 . S
C660 H632 0.931 . S
C660 C659 1.393 . S
C660 C661 1.382 . S
C661 H631 0.929 . S
C661 C656 1.371 . S
C661 C660 1.382 . S
C662 N625 1.423 . S
C662 C663 1.362 . S
C662 C667 1.388 . S
C663 H633 0.929 . S
C663 C662 1.362 . S
C663 C664 1.376 . S
C664 H635 0.931 . S
C664 C663 1.376 . S
C664 C665 1.396 . S
C665 C664 1.396 . S
C665 C666 1.348 . S
C665 C683 1.472 . S
C666 H636 0.929 . S
C666 C665 1.348 . S
C666 C667 1.443 . S
C667 H634 0.932 . S
C667 C662 1.388 . S
C667 C666 1.443 . S
C668 N648 1.433 . S
C668 C669 1.363 . S
C668 C673 1.370 . S
C669 H637 0.929 . S
C669 C668 1.363 . S
C669 C670 1.385 . S
C670 H638 0.930 . S
C670 C669 1.385 . S
C670 C671 1.357 . S
C671 C670 1.357 . S
C671 C672 1.406 . S
C672 H639 0.929 . S
C672 C671 1.406 . S
C672 C673 1.391 . S
C673 H640 0.931 . S
C673 C668 1.370 . S
C673 C672 1.391 . S
C674 N648 1.435 . S
C674 C675 1.358 . S
C674 C679 1.371 . S
C675 H641 0.930 . S
C675 C674 1.358 . S
C675 C676 1.405 . S
C676 H642 0.932 . S
C676 C675 1.405 . S
C676 C677 1.383 . S
C677 C676 1.383 . S
C677 C678 1.393 . S
C678 H643 0.931 . S
C678 C677 1.393 . S
C678 C679 1.382 . S
C679 H644 0.929 . S
C679 C674 1.371 . S
C679 C678 1.382 . S
C680 N648 1.423 . S
C680 C681 1.362 . S
C680 C685 1.388 . S
C681 H645 0.929 . S
C681 C680 1.362 . S
C681 C682 1.376 . S
C682 H646 0.931 . S
C682 C681 1.376 . S
C682 C683 1.396 . S
C683 C665 1.472 . S
C683 C682 1.396 . S
C683 C684 1.348 . S
C684 H647 0.929 . S
C684 C683 1.348 . S
C684 C685 1.443 . S
C685 H649 0.932 . S
C685 C680 1.388 . S
C685 C684 1.443 . S
H686 C713 0.929 . S
N687 C712 1.433 . S
N687 C718 1.435 . S
N687 C724 1.423 . S
H688 C714 0.930 . S
H689 C717 0.931 . S
H690 C716 0.929 . S
H691 C719 0.930 . S
H692 C720 0.932 . S
H693 C723 0.929 . S
H694 C722 0.931 . S
H695 C725 0.929 . S
H696 C729 0.932 . S
H697 C726 0.931 . S
H698 C728 0.929 . S
H699 C731 0.929 . S
H700 C732 0.930 . S
H701 C734 0.929 . S
H702 C735 0.931 . S
H703 C737 0.930 . S
H704 C738 0.932 . S
H705 C740 0.931 . S
H706 C741 0.929 . S
H707 C743 0.929 . S
H708 C744 0.931 . S
H709 C746 0.929 . S
N710 C730 1.433 . S
N710 C736 1.435 . S
N710 C742 1.423 . S
H711 C747 0.932 . S
C712 N687 1.433 . S
C712 C713 1.363 . S
C712 C717 1.370 . S
C713 H686 0.929 . S
C713 C712 1.363 . S
C713 C714 1.385 . S
C714 H688 0.930 . S
C714 C713 1.385 . S
C714 C715 1.357 . S
C715 C714 1.357 . S
C715 C716 1.406 . S
C716 H690 0.929 . S
C716 C715 1.406 . S
C716 C717 1.391 . S
C717 H689 0.931 . S
C717 C712 1.370 . S
C717 C716 1.391 . S
C718 N687 1.435 . S
C718 C719 1.358 . S
C718 C723 1.371 . S
C719 H691 0.930 . S
C719 C718 1.358 . S
C719 C720 1.405 . S
C720 H692 0.932 . S
C720 C719 1.405 . S
C720 C721 1.383 . S
C721 C720 1.383 . S
C721 C722 1.393 . S
C722 H694 0.931 . S
C722 C721 1.393 . S
C722 C723 1.382 . S
C723 H693 0.929 . S
C723 C718 1.371 . S
C723 C722 1.382 . S
C724 N687 1.423 . S
C724 C725 1.362 . S
C724 C729 1.388 . S
C725 H695 0.929 . S
C725 C724 1.362 . S
C725 C726 1.376 . S
C726 H697 0.931 . S
C726 C725 1.376 . S
C726 C727 1.396 . S
C727 C726 1.396 . S
C727 C728 1.348 . S
C727 C745 1.472 . S
C728 H698 0.929 . S
C728 C727 1.348 . S
C728 C729 1.443 . S
C729 H696 0.932 . S
C729 C724 1.388 . S
C729 C728 1.443 . S
C730 N710 1.433 . S
C730 C731 1.363 . S
C730 C735 1.370 . S
C731 H699 0.929 . S
C731 C730 1.363 . S
C731 C732 1.385 . S
C732 H700 0.930 . S
C732 C731 1.385 . S
C732 C733 1.357 . S
C733 C732 1.357 . S
C733 C734 1.406 . S
C734 H701 0.929 . S
C734 C733 1.406 . S
C734 C735 1.391 . S
C735 H702 0.931 . S
C735 C730 1.370 . S
C735 C734 1.391 . S
C736 N710 1.435 . S
C736 C737 1.358 . S
C736 C741 1.371 . S
C737 H703 0.930 . S
C737 C736 1.358 . S
C737 C738 1.405 . S
C738 H704 0.932 . S
C738 C737 1.405 . S
C738 C739 1.383 . S
C739 C738 1.383 . S
C739 C740 1.393 . S
C740 H705 0.931 . S
C740 C739 1.393 . S
C740 C741 1.382 . S
C741 H706 0.929 . S
C741 C736 1.371 . S
C741 C740 1.382 . S
C742 N710 1.423 . S
C742 C743 1.362 . S
C742 C747 1.388 . S
C743 H707 0.929 . S
C743 C742 1.362 . S
C743 C744 1.376 . S
C744 H708 0.931 . S
C744 C743 1.376 . S
C744 C745 1.396 . S
C745 C727 1.472 . S
C745 C744 1.396 . S
C745 C746 1.348 . S
C746 H709 0.929 . S
C746 C745 1.348 . S
C746 C747 1.443 . S
C747 H711 0.932 . S
C747 C742 1.388 . S
C747 C746 1.443 . S
H748 C775 0.929 . S
N749 C774 1.433 . S
N749 C780 1.435 . S
N749 C786 1.423 . S
H750 C776 0.930 . S
H751 C779 0.931 . S
H752 C778 0.929 . S
H753 C781 0.930 . S
H754 C782 0.932 . S
H755 C785 0.929 . S
H756 C784 0.931 . S
H757 C787 0.929 . S
H758 C791 0.932 . S
H759 C788 0.931 . S
H760 C790 0.929 . S
H761 C793 0.929 . S
H762 C794 0.930 . S
H763 C796 0.929 . S
H764 C797 0.931 . S
H765 C799 0.930 . S
H766 C800 0.932 . S
H767 C802 0.931 . S
H768 C803 0.929 . S
H769 C805 0.929 . S
H770 C806 0.931 . S
H771 C808 0.929 . S
N772 C792 1.433 . S
N772 C798 1.435 . S
N772 C804 1.423 . S
H773 C809 0.932 . S
C774 N749 1.433 . S
C774 C775 1.363 . S
C774 C779 1.370 . S
C775 H748 0.929 . S
C775 C774 1.363 . S
C775 C776 1.385 . S
C776 H750 0.930 . S
C776 C775 1.385 . S
C776 C777 1.357 . S
C777 C776 1.357 . S
C777 C778 1.406 . S
C778 H752 0.929 . S
C778 C777 1.406 . S
C778 C779 1.391 . S
C779 H751 0.931 . S
C779 C774 1.370 . S
C779 C778 1.391 . S
C780 N749 1.435 . S
C780 C781 1.358 . S
C780 C785 1.371 . S
C781 H753 0.930 . S
C781 C780 1.358 . S
C781 C782 1.405 . S
C782 H754 0.932 . S
C782 C781 1.405 . S
C782 C783 1.383 . S
C783 C782 1.383 . S
C783 C784 1.393 . S
C784 H756 0.931 . S
C784 C783 1.393 . S
C784 C785 1.382 . S
C785 H755 0.929 . S
C785 C780 1.371 . S
C785 C784 1.382 . S
C786 N749 1.423 . S
C786 C787 1.362 . S
C786 C791 1.388 . S
C787 H757 0.929 . S
C787 C786 1.362 . S
C787 C788 1.376 . S
C788 H759 0.931 . S
C788 C787 1.376 . S
C788 C789 1.396 . S
C789 C788 1.396 . S
C789 C790 1.348 . S
C789 C807 1.472 . S
C790 H760 0.929 . S
C790 C789 1.348 . S
C790 C791 1.443 . S
C791 H758 0.932 . S
C791 C786 1.388 . S
C791 C790 1.443 . S
C792 N772 1.433 . S
C792 C793 1.363 . S
C792 C797 1.370 . S
C793 H761 0.929 . S
C793 C792 1.363 . S
C793 C794 1.385 . S
C794 H762 0.930 . S
C794 C793 1.385 . S
C794 C795 1.357 . S
C795 C794 1.357 . S
C795 C796 1.406 . S
C796 H763 0.929 . S
C796 C795 1.406 . S
C796 C797 1.391 . S
C797 H764 0.931 . S
C797 C792 1.370 . S
C797 C796 1.391 . S
C798 N772 1.435 . S
C798 C799 1.358 . S
C798 C803 1.371 . S
C799 H765 0.930 . S
C799 C798 1.358 . S
C799 C800 1.405 . S
C800 H766 0.932 . S
C800 C799 1.405 . S
C800 C801 1.383 . S
C801 C800 1.383 . S
C801 C802 1.393 . S
C802 H767 0.931 . S
C802 C801 1.393 . S
C802 C803 1.382 . S
C803 H768 0.929 . S
C803 C798 1.371 . S
C803 C802 1.382 . S
C804 N772 1.423 . S
C804 C805 1.362 . S
C804 C809 1.388 . S
C805 H769 0.929 . S
C805 C804 1.362 . S
C805 C806 1.376 . S
C806 H770 0.931 . S
C806 C805 1.376 . S
C806 C807 1.396 . S
C807 C789 1.472 . S
C807 C806 1.396 . S
C807 C808 1.348 . S
C808 H771 0.929 . S
C808 C807 1.348 . S
C808 C809 1.443 . S
C809 H773 0.932 . S
C809 C804 1.388 . S
C809 C808 1.443 . S
H810 C837 0.929 . S
N811 C836 1.433 . S
N811 C842 1.435 . S
N811 C848 1.423 . S
H812 C838 0.930 . S
H813 C841 0.931 . S
H814 C840 0.929 . S
H815 C843 0.930 . S
H816 C844 0.932 . S
H817 C847 0.929 . S
H818 C846 0.931 . S
H819 C849 0.929 . S
H820 C853 0.932 1_655 S
H821 C850 0.931 . S
H822 C852 0.937 . S
H823 C855 0.929 . S
H824 C856 0.930 . S
H825 C858 0.929 . S
H826 C859 0.931 . S
H827 C861 0.930 . S
H828 C862 0.932 . S
H829 C864 0.931 . S
H830 C865 0.929 . S
H831 C867 0.929 . S
H832 C868 0.931 . S
H833 C870 0.929 . S
N834 C854 1.433 . S
N834 C860 1.435 . S
N834 C866 1.423 . S
H835 C871 0.932 1_655 S
C836 N811 1.433 . S
C836 C837 1.363 . S
C836 C841 1.370 1_455 S
C837 H810 0.929 . S
C837 C836 1.363 . S
C837 C838 1.385 . S
C838 H812 0.930 . S
C838 C837 1.385 . S
C838 C839 1.357 1_455 S
C839 C838 1.357 1_655 S
C839 C840 1.406 . S
C840 H814 0.929 . S
C840 C839 1.406 . S
C840 C841 1.391 . S
C841 H813 0.931 . S
C841 C836 1.370 1_655 S
C841 C840 1.391 . S
C842 N811 1.435 . S
C842 C843 1.358 1_455 S
C842 C847 1.371 . S
C843 H815 0.930 . S
C843 C842 1.358 1_655 S
C843 C844 1.405 . S
C844 H816 0.932 . S
C844 C843 1.405 . S
C844 C845 1.383 1_655 S
C845 C844 1.383 1_455 S
C845 C846 1.393 . S
C846 H818 0.931 . S
C846 C845 1.393 . S
C846 C847 1.382 . S
C847 H817 0.929 . S
C847 C842 1.371 . S
C847 C846 1.382 . S
C848 N811 1.423 . S
C848 C849 1.362 . S
C848 C853 1.388 . S
C849 H819 0.929 . S
C849 C848 1.362 . S
C849 C850 1.376 . S
C850 H821 0.931 . S
C850 C849 1.376 . S
C850 C851 1.396 . S
C851 C850 1.396 . S
C851 C852 1.348 . S
C851 C869 1.472 . S
C852 H822 0.937 . S
C852 C851 1.348 . S
C852 C853 1.443 . S
C853 H820 0.932 1_455 S
C853 C848 1.388 . S
C853 C852 1.443 . S
C854 N834 1.433 . S
C854 C855 1.363 . S
C854 C859 1.370 1_455 S
C855 H823 0.929 . S
C855 C854 1.363 . S
C855 C856 1.385 . S
C856 H824 0.930 . S
C856 C855 1.385 . S
C856 C857 1.357 1_455 S
C857 C856 1.357 1_655 S
C857 C858 1.406 . S
C858 H825 0.929 . S
C858 C857 1.406 . S
C858 C859 1.391 . S
C859 H826 0.931 . S
C859 C854 1.370 1_655 S
C859 C858 1.391 . S
C860 N834 1.435 . S
C860 C861 1.358 1_455 S
C860 C865 1.371 . S
C861 H827 0.930 . S
C861 C860 1.358 1_655 S
C861 C862 1.405 . S
C862 H828 0.932 . S
C862 C861 1.405 . S
C862 C863 1.383 1_655 S
C863 C862 1.383 1_455 S
C863 C864 1.393 . S
C864 H829 0.931 . S
C864 C863 1.393 . S
C864 C865 1.382 . S
C865 H830 0.929 . S
C865 C860 1.371 . S
C865 C864 1.382 . S
C866 N834 1.423 . S
C866 C867 1.362 . S
C866 C871 1.388 . S
C867 H831 0.929 . S
C867 C866 1.362 . S
C867 C868 1.376 . S
C868 H832 0.931 . S
C868 C867 1.376 . S
C868 C869 1.396 . S
C869 C851 1.472 . S
C869 C868 1.396 . S
C869 C870 1.348 . S
C870 H833 0.929 . S
C870 C869 1.348 . S
C870 C871 1.443 . S
C871 H835 0.932 1_455 S
C871 C866 1.388 . S
C871 C870 1.443 . S
H872 C899 0.929 . S
N873 C898 1.433 . S
N873 C904 1.435 . S
N873 C910 1.423 . S
H874 C900 0.930 . S
H875 C903 0.931 . S
H876 C902 0.929 . S
H877 C905 0.930 . S
H878 C906 0.932 . S
H879 C909 0.929 . S
H880 C908 0.931 . S
H881 C911 0.929 . S
H882 C915 0.932 . S
H883 C912 0.931 . S
H884 C914 0.929 . S
H885 C917 0.929 . S
H886 C918 0.930 . S
H887 C920 0.929 . S
H888 C921 0.931 . S
H889 C923 0.930 . S
H890 C924 0.932 . S
H891 C926 0.931 . S
H892 C927 0.929 . S
H893 C929 0.929 . S
H894 C930 0.931 . S
H895 C932 0.929 . S
N896 C916 1.433 . S
N896 C922 1.435 . S
N896 C928 1.423 . S
H897 C933 0.932 . S
C898 N873 1.433 . S
C898 C899 1.363 . S
C898 C903 1.370 . S
C899 H872 0.929 . S
C899 C898 1.363 . S
C899 C900 1.385 . S
C900 H874 0.930 . S
C900 C899 1.385 . S
C900 C901 1.357 . S
C901 C900 1.357 . S
C901 C902 1.406 . S
C902 H876 0.929 . S
C902 C901 1.406 . S
C902 C903 1.391 . S
C903 H875 0.931 . S
C903 C898 1.370 . S
C903 C902 1.391 . S
C904 N873 1.435 . S
C904 C905 1.358 . S
C904 C909 1.371 . S
C905 H877 0.930 . S
C905 C904 1.358 . S
C905 C906 1.405 . S
C906 H878 0.932 . S
C906 C905 1.405 . S
C906 C907 1.383 . S
C907 C906 1.383 . S
C907 C908 1.393 . S
C908 H880 0.931 . S
C908 C907 1.393 . S
C908 C909 1.382 . S
C909 H879 0.929 . S
C909 C904 1.371 . S
C909 C908 1.382 . S
C910 N873 1.423 . S
C910 C911 1.362 . S
C910 C915 1.388 . S
C911 H881 0.929 . S
C911 C910 1.362 . S
C911 C912 1.376 . S
C912 H883 0.931 . S
C912 C911 1.376 . S
C912 C913 1.396 . S
C913 C912 1.396 . S
C913 C914 1.348 . S
C913 C931 1.472 . S
C914 H884 0.929 . S
C914 C913 1.348 . S
C914 C915 1.443 . S
C915 H882 0.932 . S
C915 C910 1.388 . S
C915 C914 1.443 . S
C916 N896 1.433 . S
C916 C917 1.363 . S
C916 C921 1.370 . S
C917 H885 0.929 . S
C917 C916 1.363 . S
C917 C918 1.385 . S
C918 H886 0.930 . S
C918 C917 1.385 . S
C918 C919 1.357 . S
C919 C918 1.357 . S
C919 C920 1.406 . S
C920 H887 0.929 . S
C920 C919 1.406 . S
C920 C921 1.391 . S
C921 H888 0.931 . S
C921 C916 1.370 . S
C921 C920 1.391 . S
C922 N896 1.435 . S
C922 C923 1.358 . S
C922 C927 1.371 . S
C923 H889 0.930 . S
C923 C922 1.358 . S
C923 C924 1.405 . S
C924 H890 0.932 . S
C924 C923 1.405 . S
C924 C925 1.383 . S
C925 C924 1.383 . S
C925 C926 1.393 . S
C926 H891 0.931 . S
C926 C925 1.393 . S
C926 C927 1.382 . S
C927 H892 0.929 . S
C927 C922 1.371 . S
C927 C926 1.382 . S
C928 N896 1.423 . S
C928 C929 1.362 . S
C928 C933 1.388 . S
C929 H893 0.929 . S
C929 C928 1.362 . S
C929 C930 1.376 . S
C930 H894 0.931 . S
C930 C929 1.376 . S
C930 C931 1.396 . S
C931 C913 1.472 . S
C931 C930 1.396 . S
C931 C932 1.348 . S
C932 H895 0.929 . S
C932 C931 1.348 . S
C932 C933 1.443 . S
C933 H897 0.932 . S
C933 C928 1.388 . S
C933 C932 1.443 . S
H934 C961 0.929 . S
N935 C960 1.433 . S
N935 C966 1.435 . S
N935 C972 1.423 . S
H936 C962 0.930 . S
H937 C965 0.931 . S
H938 C964 0.929 . S
H939 C967 0.930 . S
H940 C968 0.932 . S
H941 C971 0.929 . S
H942 C970 0.931 . S
H943 C973 0.929 . S
H944 C977 0.932 1_545 S
H945 C974 0.931 . S
H946 C976 0.929 . S
H947 C979 0.929 . S
H948 C980 0.930 . S
H949 C982 0.929 . S
H950 C983 0.931 . S
H951 C985 0.930 . S
H952 C986 0.932 . S
H953 C988 0.931 . S
H954 C989 0.929 . S
H955 C991 0.929 . S
H956 C992 0.931 . S
H957 C994 0.929 . S
N958 C978 1.433 . S
N958 C984 1.435 . S
N958 C990 1.423 . S
H959 C995 0.932 1_545 S
C960 N935 1.433 . S
C960 C961 1.363 . S
C960 C965 1.370 1_565 S
C961 H934 0.929 . S
C961 C960 1.363 . S
C961 C962 1.385 . S
C962 H936 0.930 . S
C962 C961 1.385 . S
C962 C963 1.357 1_565 S
C963 C962 1.357 1_545 S
C963 C964 1.406 . S
C964 H938 0.929 . S
C964 C963 1.406 . S
C964 C965 1.391 . S
C965 H937 0.931 . S
C965 C960 1.370 1_545 S
C965 C964 1.391 . S
C966 N935 1.435 . S
C966 C967 1.358 1_565 S
C966 C971 1.371 . S
C967 H939 0.930 . S
C967 C966 1.358 1_545 S
C967 C968 1.405 . S
C968 H940 0.932 . S
C968 C967 1.405 . S
C968 C969 1.383 1_545 S
C969 C968 1.383 1_565 S
C969 C970 1.393 . S
C970 H942 0.931 . S
C970 C969 1.393 . S
C970 C971 1.382 . S
C971 H941 0.929 . S
C971 C966 1.371 . S
C971 C970 1.382 . S
C972 N935 1.423 . S
C972 C973 1.362 . S
C972 C977 1.388 . S
C973 H943 0.929 . S
C973 C972 1.362 . S
C973 C974 1.376 . S
C974 H945 0.931 . S
C974 C973 1.376 . S
C974 C975 1.396 . S
C975 C974 1.396 . S
C975 C976 1.348 . S
C975 C993 1.472 . S
C976 H946 0.929 . S
C976 C975 1.348 . S
C976 C977 1.443 . S
C977 H944 0.932 1_565 S
C977 C972 1.388 . S
C977 C976 1.443 . S
C978 N958 1.433 . S
C978 C979 1.363 . S
C978 C983 1.370 1_565 S
C979 H947 0.929 . S
C979 C978 1.363 . S
C979 C980 1.385 . S
C980 H948 0.930 . S
C980 C979 1.385 . S
C980 C981 1.357 1_565 S
C981 C980 1.357 1_545 S
C981 C982 1.406 . S
C982 H949 0.929 . S
C982 C981 1.406 . S
C982 C983 1.391 . S
C983 H950 0.931 . S
C983 C978 1.370 1_545 S
C983 C982 1.391 . S
C984 N958 1.435 . S
C984 C985 1.358 1_565 S
C984 C989 1.371 . S
C985 H951 0.930 . S
C985 C984 1.358 1_545 S
C985 C986 1.405 . S
C986 H952 0.932 . S
C986 C985 1.405 . S
C986 C987 1.383 1_545 S
C987 C986 1.383 1_565 S
C987 C988 1.393 . S
C988 H953 0.931 . S
C988 C987 1.393 . S
C988 C989 1.382 . S
C989 H954 0.929 . S
C989 C984 1.371 . S
C989 C988 1.382 . S
C990 N958 1.423 . S
C990 C991 1.362 . S
C990 C995 1.388 . S
C991 H955 0.929 . S
C991 C990 1.362 . S
C991 C992 1.376 . S
C992 H956 0.931 . S
C992 C991 1.376 . S
C992 C993 1.396 . S
C993 C975 1.472 . S
C993 C992 1.396 . S
C993 C994 1.348 . S
C994 H957 0.929 . S
C994 C993 1.348 . S
C994 C995 1.443 . S
C995 H959 0.932 1_565 S
C995 C990 1.388 . S
C995 C994 1.443 . S
H996 C1023 0.929 . S
N997 C1022 1.433 . S
N997 C1028 1.435 . S
N997 C1034 1.423 . S
H998 C1024 0.930 . S
H999 C1027 0.931 . S
H1000 C1026 0.929 . S
H1001 C1029 0.930 . S
H1002 C1030 0.932 . S
H1003 C1033 0.929 . S
H1004 C1032 0.931 . S
H1005 C1035 0.929 . S
H1006 C1039 0.932 . S
H1007 C1036 0.931 . S
H1008 C1038 0.918 1_545 S
H1009 C1041 0.929 . S
H1010 C1042 0.930 . S
H1011 C1044 0.929 . S
H1012 C1045 0.986 . S
H1013 C1047 0.930 . S
H1014 C1048 0.932 . S
H1015 C1050 0.931 . S
H1016 C1051 0.929 . S
H1017 C1053 0.929 . S
H1018 C1054 0.931 . S
H1019 C1056 0.877 1_545 S
N1020 C1040 1.433 . S
N1020 C1046 1.435 . S
N1020 C1052 1.423 . S
H1021 C1057 0.959 . S
C1022 N997 1.433 . S
C1022 C1023 1.363 . S
C1022 C1027 1.370 1_565 S
C1023 H996 0.929 . S
C1023 C1022 1.363 . S
C1023 C1024 1.385 . S
C1024 H998 0.930 . S
C1024 C1023 1.385 . S
C1024 C1025 1.357 . S
C1025 C1024 1.357 . S
C1025 C1026 1.406 1_565 S
C1026 H1000 0.929 . S
C1026 C1025 1.406 1_545 S
C1026 C1027 1.391 . S
C1027 H999 0.931 . S
C1027 C1022 1.370 1_545 S
C1027 C1026 1.391 . S
C1028 N997 1.435 . S
C1028 C1029 1.358 1_565 S
C1028 C1033 1.371 . S
C1029 H1001 0.930 . S
C1029 C1028 1.358 1_545 S
C1029 C1030 1.405 . S
C1030 H1002 0.932 . S
C1030 C1029 1.405 . S
C1030 C1031 1.383 . S
C1031 C1030 1.383 . S
C1031 C1032 1.393 1_545 S
C1032 H1004 0.931 . S
C1032 C1031 1.393 1_565 S
C1032 C1033 1.382 . S
C1033 H1003 0.929 . S
C1033 C1028 1.371 . S
C1033 C1032 1.382 . S
C1034 N997 1.423 . S
C1034 C1035 1.362 . S
C1034 C1039 1.388 1_565 S
C1035 H1005 0.929 . S
C1035 C1034 1.362 . S
C1035 C1036 1.376 . S
C1036 H1007 0.931 . S
C1036 C1035 1.376 . S
C1036 C1037 1.396 . S
C1037 C1036 1.396 . S
C1037 C1038 1.396 . S
C1037 C1055 1.472 . S
C1038 H1008 0.918 1_565 S
C1038 C1037 1.396 . S
C1038 C1039 1.408 1_565 S
C1039 H1006 0.932 . S
C1039 C1034 1.388 1_545 S
C1039 C1038 1.408 1_545 S
C1040 N1020 1.433 . S
C1040 C1041 1.363 . S
C1040 C1045 1.328 1_565 S
C1041 H1009 0.929 . S
C1041 C1040 1.363 . S
C1041 C1042 1.385 . S
C1042 H1010 0.930 . S
C1042 C1041 1.385 . S
C1042 C1043 1.357 . S
C1043 C1042 1.357 . S
C1043 C1044 1.406 1_565 S
C1044 H1011 0.929 . S
C1044 C1043 1.406 1_545 S
C1044 C1045 1.381 . S
C1045 H1012 0.986 . S
C1045 C1040 1.328 1_545 S
C1045 C1044 1.381 . S
C1046 N1020 1.435 . S
C1046 C1047 1.358 1_565 S
C1046 C1051 1.371 . S
C1047 H1013 0.930 . S
C1047 C1046 1.358 1_545 S
C1047 C1048 1.405 . S
C1048 H1014 0.932 . S
C1048 C1047 1.405 . S
C1048 C1049 1.383 . S
C1049 C1048 1.383 . S
C1049 C1050 1.393 1_545 S
C1050 H1015 0.931 . S
C1050 C1049 1.393 1_565 S
C1050 C1051 1.382 . S
C1051 H1016 0.929 . S
C1051 C1046 1.371 . S
C1051 C1050 1.382 . S
C1052 N1020 1.423 . S
C1052 C1053 1.362 . S
C1052 C1057 1.333 1_565 S
C1053 H1017 0.929 . S
C1053 C1052 1.362 . S
C1053 C1054 1.376 . S
C1054 H1018 0.931 . S
C1054 C1053 1.376 . S
C1054 C1055 1.396 . S
C1055 C1037 1.472 . S
C1055 C1054 1.396 . S
C1055 C1056 1.369 . S
C1056 H1019 0.877 1_565 S
C1056 C1055 1.369 . S
C1056 C1057 1.511 1_565 S
C1057 H1021 0.959 . S
C1057 C1052 1.333 1_545 S
C1057 C1056 1.511 1_545 S
H1058 C1085 0.929 . S
N1059 C1084 1.433 . S
N1059 C1090 1.435 . S
N1059 C1096 1.423 . S
H1060 C1086 0.930 . S
H1061 C1089 0.931 . S
H1062 C1088 0.929 . S
H1063 C1091 0.930 . S
H1064 C1092 0.932 . S
H1065 C1095 0.929 . S
H1066 C1094 0.931 . S
H1067 C1097 0.929 . S
H1068 C1101 0.932 1_455 S
H1069 C1098 0.931 . S
H1070 C1100 0.929 . S
H1071 C1103 0.929 . S
H1072 C1104 0.930 . S
H1073 C1106 0.929 . S
H1074 C1107 0.931 . S
H1075 C1109 0.930 . S
H1076 C1110 0.932 . S
H1077 C1112 0.931 . S
H1078 C1113 0.929 . S
H1079 C1115 0.929 . S
H1080 C1116 0.931 . S
H1081 C1118 0.939 . S
N1082 C1102 1.433 . S
N1082 C1108 1.435 . S
N1082 C1114 1.423 . S
H1083 C1119 0.932 1_455 S
C1084 N1059 1.433 . S
C1084 C1085 1.363 . S
C1084 C1089 1.370 1_655 S
C1085 H1058 0.929 . S
C1085 C1084 1.363 . S
C1085 C1086 1.385 . S
C1086 H1060 0.930 . S
C1086 C1085 1.385 . S
C1086 C1087 1.357 1_655 S
C1087 C1086 1.357 1_455 S
C1087 C1088 1.406 . S
C1088 H1062 0.929 . S
C1088 C1087 1.406 . S
C1088 C1089 1.391 . S
C1089 H1061 0.931 . S
C1089 C1084 1.370 1_455 S
C1089 C1088 1.391 . S
C1090 N1059 1.435 . S
C1090 C1091 1.358 1_655 S
C1090 C1095 1.371 . S
C1091 H1063 0.930 . S
C1091 C1090 1.358 1_455 S
C1091 C1092 1.405 . S
C1092 H1064 0.932 . S
C1092 C1091 1.405 . S
C1092 C1093 1.383 1_455 S
C1093 C1092 1.383 1_655 S
C1093 C1094 1.393 . S
C1094 H1066 0.931 . S
C1094 C1093 1.393 . S
C1094 C1095 1.382 . S
C1095 H1065 0.929 . S
C1095 C1090 1.371 . S
C1095 C1094 1.382 . S
C1096 N1059 1.423 . S
C1096 C1097 1.362 . S
C1096 C1101 1.388 . S
C1097 H1067 0.929 . S
C1097 C1096 1.362 . S
C1097 C1098 1.376 . S
C1098 H1069 0.931 . S
C1098 C1097 1.376 . S
C1098 C1099 1.396 . S
C1099 C1098 1.396 . S
C1099 C1100 1.348 . S
C1099 C1117 1.472 . S
C1100 H1070 0.929 . S
C1100 C1099 1.348 . S
C1100 C1101 1.443 . S
C1101 H1068 0.932 1_655 S
C1101 C1096 1.388 . S
C1101 C1100 1.443 . S
C1102 N1082 1.433 . S
C1102 C1103 1.363 . S
C1102 C1107 1.370 1_655 S
C1103 H1071 0.929 . S
C1103 C1102 1.363 . S
C1103 C1104 1.385 . S
C1104 H1072 0.930 . S
C1104 C1103 1.385 . S
C1104 C1105 1.357 1_655 S
C1105 C1104 1.357 1_455 S
C1105 C1106 1.406 . S
C1106 H1073 0.929 . S
C1106 C1105 1.406 . S
C1106 C1107 1.391 . S
C1107 H1074 0.931 . S
C1107 C1102 1.370 1_455 S
C1107 C1106 1.391 . S
C1108 N1082 1.435 . S
C1108 C1109 1.358 1_655 S
C1108 C1113 1.371 . S
C1109 H1075 0.930 . S
C1109 C1108 1.358 1_455 S
C1109 C1110 1.405 . S
C1110 H1076 0.932 . S
C1110 C1109 1.405 . S
C1110 C1111 1.383 1_455 S
C1111 C1110 1.383 1_655 S
C1111 C1112 1.393 . S
C1112 H1077 0.931 . S
C1112 C1111 1.393 . S
C1112 C1113 1.382 . S
C1113 H1078 0.929 . S
C1113 C1108 1.371 . S
C1113 C1112 1.382 . S
C1114 N1082 1.423 . S
C1114 C1115 1.362 . S
C1114 C1119 1.388 . S
C1115 H1079 0.929 . S
C1115 C1114 1.362 . S
C1115 C1116 1.376 . S
C1116 H1080 0.931 . S
C1116 C1115 1.376 . S
C1116 C1117 1.396 . S
C1117 C1099 1.472 . S
C1117 C1116 1.396 . S
C1117 C1118 1.348 . S
C1118 H1081 0.939 . S
C1118 C1117 1.348 . S
C1118 C1119 1.443 . S
C1119 H1083 0.932 1_655 S
C1119 C1114 1.388 . S
C1119 C1118 1.443 . S
H1120 C1147 0.929 . S
N1121 C1146 1.433 . S
N1121 C1152 1.435 . S
N1121 C1158 1.423 . S
H1122 C1148 0.930 . S
H1123 C1151 0.931 . S
H1124 C1150 0.929 . S
H1125 C1153 0.930 . S
H1126 C1154 0.932 . S
H1127 C1157 0.929 . S
H1128 C1156 0.931 . S
H1129 C1159 0.929 . S
H1130 C1163 0.932 . S
H1131 C1160 0.931 . S
H1132 C1162 0.929 . S
H1133 C1165 0.929 . S
H1134 C1166 0.930 . S
H1135 C1168 0.929 . S
H1136 C1169 0.931 . S
H1137 C1171 0.930 . S
H1138 C1172 0.932 . S
H1139 C1174 0.931 . S
H1140 C1175 0.929 . S
H1141 C1177 0.929 . S
H1142 C1178 0.931 . S
H1143 C1180 0.929 . S
N1144 C1164 1.433 . S
N1144 C1170 1.435 . S
N1144 C1176 1.423 . S
H1145 C1181 0.932 . S
C1146 N1121 1.433 . S
C1146 C1147 1.363 . S
C1146 C1151 1.370 . S
C1147 H1120 0.929 . S
C1147 C1146 1.363 . S
C1147 C1148 1.385 . S
C1148 H1122 0.930 . S
C1148 C1147 1.385 . S
C1148 C1149 1.357 . S
C1149 C1148 1.357 . S
C1149 C1150 1.406 . S
C1150 H1124 0.929 . S
C1150 C1149 1.406 . S
C1150 C1151 1.391 . S
C1151 H1123 0.931 . S
C1151 C1146 1.370 . S
C1151 C1150 1.391 . S
C1152 N1121 1.435 . S
C1152 C1153 1.358 . S
C1152 C1157 1.371 . S
C1153 H1125 0.930 . S
C1153 C1152 1.358 . S
C1153 C1154 1.405 . S
C1154 H1126 0.932 . S
C1154 C1153 1.405 . S
C1154 C1155 1.383 . S
C1155 C1154 1.383 . S
C1155 C1156 1.393 . S
C1156 H1128 0.931 . S
C1156 C1155 1.393 . S
C1156 C1157 1.382 . S
C1157 H1127 0.929 . S
C1157 C1152 1.371 . S
C1157 C1156 1.382 . S
C1158 N1121 1.423 . S
C1158 C1159 1.362 . S
C1158 C1163 1.388 . S
C1159 H1129 0.929 . S
C1159 C1158 1.362 . S
C1159 C1160 1.376 . S
C1160 H1131 0.931 . S
C1160 C1159 1.376 . S
C1160 C1161 1.396 . S
C1161 C1160 1.396 . S
C1161 C1162 1.348 . S
C1161 C1179 1.472 . S
C1162 H1132 0.929 . S
C1162 C1161 1.348 . S
C1162 C1163 1.443 . S
C1163 H1130 0.932 . S
C1163 C1158 1.388 . S
C1163 C1162 1.443 . S
C1164 N1144 1.433 . S
C1164 C1165 1.363 . S
C1164 C1169 1.370 . S
C1165 H1133 0.929 . S
C1165 C1164 1.363 . S
C1165 C1166 1.385 . S
C1166 H1134 0.930 . S
C1166 C1165 1.385 . S
C1166 C1167 1.357 . S
C1167 C1166 1.357 . S
C1167 C1168 1.406 . S
C1168 H1135 0.929 . S
C1168 C1167 1.406 . S
C1168 C1169 1.391 . S
C1169 H1136 0.931 . S
C1169 C1164 1.370 . S
C1169 C1168 1.391 . S
C1170 N1144 1.435 . S
C1170 C1171 1.358 . S
C1170 C1175 1.371 . S
C1171 H1137 0.930 . S
C1171 C1170 1.358 . S
C1171 C1172 1.405 . S
C1172 H1138 0.932 . S
C1172 C1171 1.405 . S
C1172 C1173 1.383 . S
C1173 C1172 1.383 . S
C1173 C1174 1.393 . S
C1174 H1139 0.931 . S
C1174 C1173 1.393 . S
C1174 C1175 1.382 . S
C1175 H1140 0.929 . S
C1175 C1170 1.371 . S
C1175 C1174 1.382 . S
C1176 N1144 1.423 . S
C1176 C1177 1.362 . S
C1176 C1181 1.388 . S
C1177 H1141 0.929 . S
C1177 C1176 1.362 . S
C1177 C1178 1.376 . S
C1178 H1142 0.931 . S
C1178 C1177 1.376 . S
C1178 C1179 1.396 . S
C1179 C1161 1.472 . S
C1179 C1178 1.396 . S
C1179 C1180 1.348 . S
C1180 H1143 0.929 . S
C1180 C1179 1.348 . S
C1180 C1181 1.443 . S
C1181 H1145 0.932 . S
C1181 C1176 1.388 . S
C1181 C1180 1.443 . S
H1182 C1209 0.929 . S
N1183 C1208 1.433 . S
N1183 C1214 1.435 . S
N1183 C1220 1.423 . S
H1184 C1210 0.930 . S
H1185 C1213 0.931 . S
H1186 C1212 0.929 . S
H1187 C1215 0.930 . S
H1188 C1216 0.932 . S
H1189 C1219 0.929 . S
H1190 C1218 0.931 . S
H1191 C1221 0.929 . S
H1192 C1225 0.932 . S
H1193 C1222 0.931 . S
H1194 C1224 0.929 . S
H1195 C1227 0.929 . S
H1196 C1228 0.930 . S
H1197 C1230 0.929 . S
H1198 C1231 0.931 . S
H1199 C1233 0.930 . S
H1200 C1234 0.932 . S
H1201 C1236 0.931 . S
H1202 C1237 0.929 . S
H1203 C1239 0.929 . S
H1204 C1240 0.931 . S
H1205 C1242 0.929 . S
N1206 C1226 1.433 . S
N1206 C1232 1.435 . S
N1206 C1238 1.423 . S
H1207 C1243 0.932 . S
C1208 N1183 1.433 . S
C1208 C1209 1.363 . S
C1208 C1213 1.370 . S
C1209 H1182 0.929 . S
C1209 C1208 1.363 . S
C1209 C1210 1.385 . S
C1210 H1184 0.930 . S
C1210 C1209 1.385 . S
C1210 C1211 1.357 . S
C1211 C1210 1.357 . S
C1211 C1212 1.406 . S
C1212 H1186 0.929 . S
C1212 C1211 1.406 . S
C1212 C1213 1.391 . S
C1213 H1185 0.931 . S
C1213 C1208 1.370 . S
C1213 C1212 1.391 . S
C1214 N1183 1.435 . S
C1214 C1215 1.358 . S
C1214 C1219 1.371 . S
C1215 H1187 0.930 . S
C1215 C1214 1.358 . S
C1215 C1216 1.405 . S
C1216 H1188 0.932 . S
C1216 C1215 1.405 . S
C1216 C1217 1.383 . S
C1217 C1216 1.383 . S
C1217 C1218 1.393 . S
C1218 H1190 0.931 . S
C1218 C1217 1.393 . S
C1218 C1219 1.382 . S
C1219 H1189 0.929 . S
C1219 C1214 1.371 . S
C1219 C1218 1.382 . S
C1220 N1183 1.423 . S
C1220 C1221 1.362 . S
C1220 C1225 1.388 . S
C1221 H1191 0.929 . S
C1221 C1220 1.362 . S
C1221 C1222 1.376 . S
C1222 H1193 0.931 . S
C1222 C1221 1.376 . S
C1222 C1223 1.396 . S
C1223 C1222 1.396 . S
C1223 C1224 1.348 . S
C1223 C1241 1.472 . S
C1224 H1194 0.929 . S
C1224 C1223 1.348 . S
C1224 C1225 1.443 . S
C1225 H1192 0.932 . S
C1225 C1220 1.388 . S
C1225 C1224 1.443 . S
C1226 N1206 1.433 . S
C1226 C1227 1.363 . S
C1226 C1231 1.370 . S
C1227 H1195 0.929 . S
C1227 C1226 1.363 . S
C1227 C1228 1.385 . S
C1228 H1196 0.930 . S
C1228 C1227 1.385 . S
C1228 C1229 1.357 . S
C1229 C1228 1.357 . S
C1229 C1230 1.406 . S
C1230 H1197 0.929 . S
C1230 C1229 1.406 . S
C1230 C1231 1.391 . S
C1231 H1198 0.931 . S
C1231 C1226 1.370 . S
C1231 C1230 1.391 . S
C1232 N1206 1.435 . S
C1232 C1233 1.358 . S
C1232 C1237 1.371 . S
C1233 H1199 0.930 . S
C1233 C1232 1.358 . S
C1233 C1234 1.405 . S
C1234 H1200 0.932 . S
C1234 C1233 1.405 . S
C1234 C1235 1.383 . S
C1235 C1234 1.383 . S
C1235 C1236 1.393 . S
C1236 H1201 0.931 . S
C1236 C1235 1.393 . S
C1236 C1237 1.382 . S
C1237 H1202 0.929 . S
C1237 C1232 1.371 . S
C1237 C1236 1.382 . S
C1238 N1206 1.423 . S
C1238 C1239 1.362 . S
C1238 C1243 1.388 . S
C1239 H1203 0.929 . S
C1239 C1238 1.362 . S
C1239 C1240 1.376 . S
C1240 H1204 0.931 . S
C1240 C1239 1.376 . S
C1240 C1241 1.396 . S
C1241 C1223 1.472 . S
C1241 C1240 1.396 . S
C1241 C1242 1.348 . S
C1242 H1205 0.929 . S
C1242 C1241 1.348 . S
C1242 C1243 1.443 . S
C1243 H1207 0.932 . S
C1243 C1238 1.388 . S
C1243 C1242 1.443 . S
H1244 C1271 0.929 . S
N1245 C1270 1.433 . S
N1245 C1276 1.435 . S
N1245 C1282 1.423 . S
H1246 C1272 0.930 . S
H1247 C1275 0.931 . S
H1248 C1274 0.929 . S
H1249 C1277 0.930 . S
H1250 C1278 0.932 . S
H1251 C1281 0.929 . S
H1252 C1280 0.931 . S
H1253 C1283 0.929 . S
H1254 C1287 0.932 . S
H1255 C1284 0.931 . S
H1256 C1286 0.929 . S
H1257 C1289 0.929 . S
H1258 C1290 0.930 . S
H1259 C1292 0.929 . S
H1260 C1293 0.931 . S
H1261 C1295 0.930 . S
H1262 C1296 0.932 . S
H1263 C1298 0.931 . S
H1264 C1299 0.929 . S
H1265 C1301 0.929 . S
H1266 C1302 0.931 . S
H1267 C1304 0.929 . S
N1268 C1288 1.433 . S
N1268 C1294 1.435 . S
N1268 C1300 1.423 . S
H1269 C1305 0.932 . S
C1270 N1245 1.433 . S
C1270 C1271 1.363 . S
C1270 C1275 1.370 . S
C1271 H1244 0.929 . S
C1271 C1270 1.363 . S
C1271 C1272 1.385 . S
C1272 H1246 0.930 . S
C1272 C1271 1.385 . S
C1272 C1273 1.357 . S
C1273 C1272 1.357 . S
C1273 C1274 1.406 . S
C1274 H1248 0.929 . S
C1274 C1273 1.406 . S
C1274 C1275 1.391 . S
C1275 H1247 0.931 . S
C1275 C1270 1.370 . S
C1275 C1274 1.391 . S
C1276 N1245 1.435 . S
C1276 C1277 1.358 . S
C1276 C1281 1.371 . S
C1277 H1249 0.930 . S
C1277 C1276 1.358 . S
C1277 C1278 1.405 . S
C1278 H1250 0.932 . S
C1278 C1277 1.405 . S
C1278 C1279 1.383 . S
C1279 C1278 1.383 . S
C1279 C1280 1.393 . S
C1280 H1252 0.931 . S
C1280 C1279 1.393 . S
C1280 C1281 1.382 . S
C1281 H1251 0.929 . S
C1281 C1276 1.371 . S
C1281 C1280 1.382 . S
C1282 N1245 1.423 . S
C1282 C1283 1.362 . S
C1282 C1287 1.388 . S
C1283 H1253 0.929 . S
C1283 C1282 1.362 . S
C1283 C1284 1.376 . S
C1284 H1255 0.931 . S
C1284 C1283 1.376 . S
C1284 C1285 1.396 . S
C1285 C1284 1.396 . S
C1285 C1286 1.348 . S
C1285 C1303 1.472 . S
C1286 H1256 0.929 . S
C1286 C1285 1.348 . S
C1286 C1287 1.443 . S
C1287 H1254 0.932 . S
C1287 C1282 1.388 . S
C1287 C1286 1.443 . S
C1288 N1268 1.433 . S
C1288 C1289 1.363 . S
C1288 C1293 1.370 . S
C1289 H1257 0.929 . S
C1289 C1288 1.363 . S
C1289 C1290 1.385 . S
C1290 H1258 0.930 . S
C1290 C1289 1.385 . S
C1290 C1291 1.357 . S
C1291 C1290 1.357 . S
C1291 C1292 1.406 . S
C1292 H1259 0.929 . S
C1292 C1291 1.406 . S
C1292 C1293 1.391 . S
C1293 H1260 0.931 . S
C1293 C1288 1.370 . S
C1293 C1292 1.391 . S
C1294 N1268 1.435 . S
C1294 C1295 1.358 . S
C1294 C1299 1.371 . S
C1295 H1261 0.930 . S
C1295 C1294 1.358 . S
C1295 C1296 1.405 . S
C1296 H1262 0.932 . S
C1296 C1295 1.405 . S
C1296 C1297 1.383 . S
C1297 C1296 1.383 . S
C1297 C1298 1.393 . S
C1298 H1263 0.931 . S
C1298 C1297 1.393 . S
C1298 C1299 1.382 . S
C1299 H1264 0.929 . S
C1299 C1294 1.371 . S
C1299 C1298 1.382 . S
C1300 N1268 1.423 . S
C1300 C1301 1.362 . S
C1300 C1305 1.388 . S
C1301 H1265 0.929 . S
C1301 C1300 1.362 . S
C1301 C1302 1.376 . S
C1302 H1266 0.931 . S
C1302 C1301 1.376 . S
C1302 C1303 1.396 . S
C1303 C1285 1.472 . S
C1303 C1302 1.396 . S
C1303 C1304 1.348 . S
C1304 H1267 0.929 . S
C1304 C1303 1.348 . S
C1304 C1305 1.443 . S
C1305 H1269 0.932 . S
C1305 C1300 1.388 . S
C1305 C1304 1.443 . S
H1306 C1333 0.929 . S
N1307 C1332 1.433 . S
N1307 C1338 1.435 . S
N1307 C1344 1.423 . S
H1308 C1334 0.930 . S
H1309 C1337 0.931 . S
H1310 C1336 0.929 . S
H1311 C1339 0.930 . S
H1312 C1340 0.932 . S
H1313 C1343 0.929 . S
H1314 C1342 0.931 . S
H1315 C1345 0.929 . S
H1316 C1349 0.932 . S
H1317 C1346 0.931 . S
H1318 C1348 0.929 . S
H1319 C1351 0.929 . S
H1320 C1352 0.930 . S
H1321 C1354 0.929 . S
H1322 C1355 0.931 . S
H1323 C1357 0.930 . S
H1324 C1358 0.932 . S
H1325 C1360 0.931 . S
H1326 C1361 0.929 . S
H1327 C1363 0.929 . S
H1328 C1364 0.931 . S
H1329 C1366 0.929 . S
N1330 C1350 1.433 . S
N1330 C1356 1.435 . S
N1330 C1362 1.423 . S
H1331 C1367 0.932 . S
C1332 N1307 1.433 . S
C1332 C1333 1.363 . S
C1332 C1337 1.370 . S
C1333 H1306 0.929 . S
C1333 C1332 1.363 . S
C1333 C1334 1.385 . S
C1334 H1308 0.930 . S
C1334 C1333 1.385 . S
C1334 C1335 1.357 . S
C1335 C1334 1.357 . S
C1335 C1336 1.406 . S
C1336 H1310 0.929 . S
C1336 C1335 1.406 . S
C1336 C1337 1.391 . S
C1337 H1309 0.931 . S
C1337 C1332 1.370 . S
C1337 C1336 1.391 . S
C1338 N1307 1.435 . S
C1338 C1339 1.358 . S
C1338 C1343 1.371 . S
C1339 H1311 0.930 . S
C1339 C1338 1.358 . S
C1339 C1340 1.405 . S
C1340 H1312 0.932 . S
C1340 C1339 1.405 . S
C1340 C1341 1.383 . S
C1341 C1340 1.383 . S
C1341 C1342 1.393 . S
C1342 H1314 0.931 . S
C1342 C1341 1.393 . S
C1342 C1343 1.382 . S
C1343 H1313 0.929 . S
C1343 C1338 1.371 . S
C1343 C1342 1.382 . S
C1344 N1307 1.423 . S
C1344 C1345 1.362 . S
C1344 C1349 1.388 . S
C1345 H1315 0.929 . S
C1345 C1344 1.362 . S
C1345 C1346 1.376 . S
C1346 H1317 0.931 . S
C1346 C1345 1.376 . S
C1346 C1347 1.396 . S
C1347 C1346 1.396 . S
C1347 C1348 1.348 . S
C1347 C1365 1.472 . S
C1348 H1318 0.929 . S
C1348 C1347 1.348 . S
C1348 C1349 1.443 . S
C1349 H1316 0.932 . S
C1349 C1344 1.388 . S
C1349 C1348 1.443 . S
C1350 N1330 1.433 . S
C1350 C1351 1.363 . S
C1350 C1355 1.370 . S
C1351 H1319 0.929 . S
C1351 C1350 1.363 . S
C1351 C1352 1.385 . S
C1352 H1320 0.930 . S
C1352 C1351 1.385 . S
C1352 C1353 1.357 . S
C1353 C1352 1.357 . S
C1353 C1354 1.406 . S
C1354 H1321 0.929 . S
C1354 C1353 1.406 . S
C1354 C1355 1.391 . S
C1355 H1322 0.931 . S
C1355 C1350 1.370 . S
C1355 C1354 1.391 . S
C1356 N1330 1.435 . S
C1356 C1357 1.358 . S
C1356 C1361 1.371 . S
C1357 H1323 0.930 . S
C1357 C1356 1.358 . S
C1357 C1358 1.405 . S
C1358 H1324 0.932 . S
C1358 C1357 1.405 . S
C1358 C1359 1.383 . S
C1359 C1358 1.383 . S
C1359 C1360 1.393 . S
C1360 H1325 0.931 . S
C1360 C1359 1.393 . S
C1360 C1361 1.382 . S
C1361 H1326 0.929 . S
C1361 C1356 1.371 . S
C1361 C1360 1.382 . S
C1362 N1330 1.423 . S
C1362 C1363 1.362 . S
C1362 C1367 1.388 . S
C1363 H1327 0.929 . S
C1363 C1362 1.362 . S
C1363 C1364 1.376 . S
C1364 H1328 0.931 . S
C1364 C1363 1.376 . S
C1364 C1365 1.396 . S
C1365 C1347 1.472 . S
C1365 C1364 1.396 . S
C1365 C1366 1.348 . S
C1366 H1329 0.929 . S
C1366 C1365 1.348 . S
C1366 C1367 1.443 . S
C1367 H1331 0.932 . S
C1367 C1362 1.388 . S
C1367 C1366 1.443 . S
H1368 C1374 0.930 . S
H1369 C1377 0.930 . S
H1370 C1378 0.930 . S
H1371 C1379 0.930 . S
H1372 C1382 0.930 . S
H1373 C1383 0.930 . S
C1374 H1368 0.930 . S
C1374 C1375 1.355 . S
C1374 C1376 1.415 . S
C1375 C1374 1.355 . S
C1375 C1377 1.419 1_655 S
C1376 C1374 1.415 . S
C1376 C1381 1.425 1_655 S
C1376 C1383 1.409 . S
C1377 H1369 0.930 . S
C1377 C1375 1.419 1_455 S
C1377 C1378 1.362 . S
C1378 H1370 0.930 . S
C1378 C1377 1.362 . S
C1378 C1381 1.409 . S
C1379 H1371 0.930 . S
C1379 C1380 1.355 1_455 S
C1379 C1381 1.415 . S
C1380 C1379 1.355 1_655 S
C1380 C1382 1.419 . S
C1381 C1376 1.425 1_455 S
C1381 C1378 1.409 . S
C1381 C1379 1.415 . S
C1382 H1372 0.930 . S
C1382 C1380 1.419 . S
C1382 C1383 1.362 . S
C1383 H1373 0.930 . S
C1383 C1376 1.409 . S
C1383 C1382 1.362 . S
H1384 C1390 0.930 . S
H1385 C1393 0.930 . S
H1386 C1394 0.930 . S
H1387 C1395 0.930 . S
H1388 C1398 0.930 . S
H1389 C1399 0.930 . S
C1390 H1384 0.930 . S
C1390 C1391 1.355 . S
C1390 C1392 1.415 . S
C1391 C1390 1.355 . S
C1391 C1393 1.419 . S
C1392 C1390 1.415 . S
C1392 C1397 1.425 . S
C1392 C1399 1.409 . S
C1393 H1385 0.930 . S
C1393 C1391 1.419 . S
C1393 C1394 1.362 . S
C1394 H1386 0.930 . S
C1394 C1393 1.362 . S
C1394 C1397 1.409 . S
C1395 H1387 0.930 . S
C1395 C1396 1.355 . S
C1395 C1397 1.415 . S
C1396 C1395 1.355 . S
C1396 C1398 1.419 . S
C1397 C1392 1.425 . S
C1397 C1394 1.409 . S
C1397 C1395 1.415 . S
C1398 H1388 0.930 . S
C1398 C1396 1.419 . S
C1398 C1399 1.362 . S
C1399 H1389 0.930 . S
C1399 C1392 1.409 . S
C1399 C1398 1.362 . S
H1400 C1406 0.930 . S
H1401 C1409 0.930 . S
H1402 C1410 0.930 . S
H1403 C1411 0.930 . S
H1404 C1414 0.930 . S
H1405 C1415 0.930 . S
C1406 H1400 0.930 . S
C1406 C1407 1.355 . S
C1406 C1408 1.415 . S
C1407 C1406 1.355 . S
C1407 C1409 1.419 1_545 S
C1408 C1406 1.415 . S
C1408 C1413 1.421 1_545 S
C1408 C1415 1.409 . S
C1409 H1401 0.930 . S
C1409 C1407 1.419 1_565 S
C1409 C1410 1.362 . S
C1410 H1402 0.930 . S
C1410 C1409 1.362 . S
C1410 C1413 1.409 . S
C1411 H1403 0.930 . S
C1411 C1412 1.355 1_565 S
C1411 C1413 1.418 . S
C1412 C1411 1.355 1_545 S
C1412 C1414 1.419 . S
C1413 C1408 1.421 1_565 S
C1413 C1410 1.409 . S
C1413 C1411 1.418 . S
C1414 H1404 0.930 . S
C1414 C1412 1.419 . S
C1414 C1415 1.362 . S
C1415 H1405 0.930 . S
C1415 C1408 1.409 . S
C1415 C1414 1.362 . S
H1416 C1422 0.930 . S
H1417 C1425 0.930 . S
H1418 C1426 0.930 . S
H1419 C1427 0.930 . S
H1420 C1430 0.930 . S
H1421 C1431 0.930 . S
C1422 H1416 0.930 . S
C1422 C1423 1.355 1_565 S
C1422 C1424 1.415 . S
C1423 C1422 1.355 1_545 S
C1423 C1425 1.419 . S
C1424 C1422 1.415 . S
C1424 C1429 1.425 1_565 S
C1424 C1431 1.409 . S
C1425 H1417 0.930 . S
C1425 C1423 1.419 . S
C1425 C1426 1.362 . S
C1426 H1418 0.930 . S
C1426 C1425 1.362 . S
C1426 C1429 1.409 . S
C1427 H1419 0.930 . S
C1427 C1428 1.355 1_545 S
C1427 C1429 1.415 . S
C1428 C1427 1.355 1_565 S
C1428 C1430 1.419 . S
C1429 C1424 1.425 1_545 S
C1429 C1426 1.409 . S
C1429 C1427 1.415 . S
C1430 H1420 0.930 . S
C1430 C1428 1.419 . S
C1430 C1431 1.362 . S
C1431 H1421 0.930 . S
C1431 C1424 1.409 . S
C1431 C1430 1.362 . S
H1432 C1438 0.930 . S
H1433 C1441 0.930 . S
H1434 C1442 0.930 . S
H1435 C1443 0.930 . S
H1436 C1446 0.930 . S
H1437 C1447 0.930 . S
C1438 H1432 0.930 . S
C1438 C1439 1.355 1_655 S
C1438 C1440 1.415 . S
C1439 C1438 1.355 1_455 S
C1439 C1441 1.419 . S
C1440 C1438 1.415 . S
C1440 C1445 1.425 1_655 S
C1440 C1447 1.409 . S
C1441 H1433 0.930 . S
C1441 C1439 1.419 . S
C1441 C1442 1.362 . S
C1442 H1434 0.930 . S
C1442 C1441 1.362 . S
C1442 C1445 1.409 . S
C1443 H1435 0.930 . S
C1443 C1444 1.355 . S
C1443 C1445 1.415 . S
C1444 C1443 1.355 . S
C1444 C1446 1.419 1_455 S
C1445 C1440 1.425 1_455 S
C1445 C1442 1.409 . S
C1445 C1443 1.415 . S
C1446 H1436 0.930 . S
C1446 C1444 1.419 1_655 S
C1446 C1447 1.362 . S
C1447 H1437 0.930 . S
C1447 C1440 1.409 . S
C1447 C1446 1.362 . S
H1448 C1454 0.930 . S
H1449 C1457 0.930 . S
H1450 C1458 0.930 . S
H1451 C1459 0.930 . S
H1452 C1462 0.930 . S
H1453 C1463 0.930 . S
C1454 H1448 0.930 . S
C1454 C1455 1.355 . S
C1454 C1456 1.415 . S
C1455 C1454 1.355 . S
C1455 C1457 1.419 . S
C1456 C1454 1.415 . S
C1456 C1461 1.425 . S
C1456 C1463 1.409 . S
C1457 H1449 0.930 . S
C1457 C1455 1.419 . S
C1457 C1458 1.362 . S
C1458 H1450 0.930 . S
C1458 C1457 1.362 . S
C1458 C1461 1.409 . S
C1459 H1451 0.930 . S
C1459 C1460 1.355 . S
C1459 C1461 1.415 . S
C1460 C1459 1.355 . S
C1460 C1462 1.419 . S
C1461 C1456 1.425 . S
C1461 C1458 1.409 . S
C1461 C1459 1.415 . S
C1462 H1452 0.930 . S
C1462 C1460 1.419 . S
C1462 C1463 1.362 . S
C1463 H1453 0.930 . S
C1463 C1456 1.409 . S
C1463 C1462 1.362 . S
H1464 C1470 0.930 . S
H1465 C1473 0.930 . S
H1466 C1474 0.930 . S
H1467 C1475 0.930 . S
H1468 C1478 0.930 . S
H1469 C1479 0.930 . S
C1470 H1464 0.930 . S
C1470 C1471 1.390 . S
C1470 C1472 1.415 . S
C1471 C1470 1.390 . S
C1471 C1473 1.402 1_455 S
C1472 C1470 1.415 . S
C1472 C1477 1.425 1_455 S
C1472 C1479 1.409 . S
C1473 H1465 0.930 . S
C1473 C1471 1.402 1_655 S
C1473 C1474 1.362 . S
C1474 H1466 0.930 . S
C1474 C1473 1.362 . S
C1474 C1477 1.409 . S
C1475 H1467 0.930 . S
C1475 C1476 1.355 1_655 S
C1475 C1477 1.415 . S
C1476 C1475 1.355 1_455 S
C1476 C1478 1.419 . S
C1477 C1472 1.425 1_655 S
C1477 C1474 1.409 . S
C1477 C1475 1.415 . S
C1478 H1468 0.930 . S
C1478 C1476 1.419 . S
C1478 C1479 1.362 . S
C1479 H1469 0.930 . S
C1479 C1472 1.409 . S
C1479 C1478 1.362 . S
H1480 C1486 0.930 . S
H1481 C1489 0.930 . S
H1482 C1490 0.930 . S
H1483 C1491 0.930 . S
H1484 C1494 0.930 . S
H1485 C1495 0.930 . S
C1486 H1480 0.930 . S
C1486 C1487 1.355 . S
C1486 C1488 1.415 . S
C1487 C1486 1.355 . S
C1487 C1489 1.419 . S
C1488 C1486 1.415 . S
C1488 C1493 1.425 . S
C1488 C1495 1.409 . S
C1489 H1481 0.930 . S
C1489 C1487 1.419 . S
C1489 C1490 1.362 . S
C1490 H1482 0.930 . S
C1490 C1489 1.362 . S
C1490 C1493 1.409 . S
C1491 H1483 0.930 . S
C1491 C1492 1.355 . S
C1491 C1493 1.415 . S
C1492 C1491 1.355 . S
C1492 C1494 1.419 . S
C1493 C1488 1.425 . S
C1493 C1490 1.409 . S
C1493 C1491 1.415 . S
C1494 H1484 0.930 . S
C1494 C1492 1.419 . S
C1494 C1495 1.362 . S
C1495 H1485 0.930 . S
C1495 C1488 1.409 . S
C1495 C1494 1.362 . S
H1496 C1502 0.930 . S
H1497 C1505 0.930 . S
H1498 C1506 0.930 . S
H1499 C1507 0.909 1_545 S
H1500 C1510 0.930 . S
H1501 C1511 0.930 . S
C1502 H1496 0.930 . S
C1502 C1503 1.366 . S
C1502 C1504 1.415 . S
C1503 C1502 1.366 . S
C1503 C1505 1.393 1_565 S
C1504 C1502 1.415 . S
C1504 C1509 1.425 . S
C1504 C1511 1.409 . S
C1505 H1497 0.930 . S
C1505 C1503 1.393 1_545 S
C1505 C1506 1.362 . S
C1506 H1498 0.930 . S
C1506 C1505 1.362 . S
C1506 C1509 1.409 1_545 S
C1507 H1499 0.909 1_565 S
C1507 C1508 1.364 . S
C1507 C1509 1.427 . S
C1508 C1507 1.364 . S
C1508 C1510 1.419 . S
C1509 C1504 1.425 . S
C1509 C1506 1.409 1_565 S
C1509 C1507 1.427 . S
C1510 H1500 0.930 . S
C1510 C1508 1.419 . S
C1510 C1511 1.362 . S
C1511 H1501 0.930 . S
C1511 C1504 1.409 . S
C1511 C1510 1.362 . S
H1512 C1518 0.930 . S
H1513 C1521 0.930 . S
H1514 C1522 0.930 . S
H1515 C1523 0.930 . S
H1516 C1526 0.930 . S
H1517 C1527 0.930 . S
C1518 H1512 0.930 . S
C1518 C1519 1.355 1_565 S
C1518 C1520 1.415 . S
C1519 C1518 1.355 1_545 S
C1519 C1521 1.419 . S
C1520 C1518 1.415 . S
C1520 C1525 1.425 1_565 S
C1520 C1527 1.409 . S
C1521 H1513 0.930 . S
C1521 C1519 1.419 . S
C1521 C1522 1.362 . S
C1522 H1514 0.930 . S
C1522 C1521 1.362 . S
C1522 C1525 1.409 . S
C1523 H1515 0.930 . S
C1523 C1524 1.355 . S
C1523 C1525 1.415 . S
C1524 C1523 1.355 . S
C1524 C1526 1.419 1_545 S
C1525 C1520 1.425 1_545 S
C1525 C1522 1.409 . S
C1525 C1523 1.415 . S
C1526 H1516 0.930 . S
C1526 C1524 1.419 1_565 S
C1526 C1527 1.362 . S
C1527 H1517 0.930 . S
C1527 C1520 1.409 . S
C1527 C1526 1.362 . S
H1528 C1534 0.930 . S
H1529 C1537 0.930 . S
H1530 C1538 0.930 . S
H1531 C1539 0.930 . S
H1532 C1542 0.930 . S
H1533 C1543 0.930 . S
C1534 H1528 0.930 . S
C1534 C1535 1.359 1_655 S
C1534 C1536 1.415 . S
C1535 C1534 1.359 1_455 S
C1535 C1537 1.412 . S
C1536 C1534 1.415 . S
C1536 C1541 1.425 1_655 S
C1536 C1543 1.409 . S
C1537 H1529 0.930 . S
C1537 C1535 1.412 . S
C1537 C1538 1.362 . S
C1538 H1530 0.930 . S
C1538 C1537 1.362 . S
C1538 C1541 1.409 . S
C1539 H1531 0.930 . S
C1539 C1540 1.355 1_455 S
C1539 C1541 1.415 . S
C1540 C1539 1.355 1_655 S
C1540 C1542 1.419 . S
C1541 C1536 1.425 1_455 S
C1541 C1538 1.409 . S
C1541 C1539 1.415 . S
C1542 H1532 0.930 . S
C1542 C1540 1.419 . S
C1542 C1543 1.362 . S
C1543 H1533 0.930 . S
C1543 C1536 1.409 . S
C1543 C1542 1.362 . S
H1544 C1550 0.930 . S
H1545 C1553 0.930 . S
H1546 C1554 0.930 . S
H1547 C1555 0.930 . S
H1548 C1558 0.930 . S
H1549 C1559 0.930 . S
C1550 H1544 0.930 . S
C1550 C1551 1.355 . S
C1550 C1552 1.415 . S
C1551 C1550 1.355 . S
C1551 C1553 1.419 . S
C1552 C1550 1.415 . S
C1552 C1557 1.425 . S
C1552 C1559 1.409 . S
C1553 H1545 0.930 . S
C1553 C1551 1.419 . S
C1553 C1554 1.362 . S
C1554 H1546 0.930 . S
C1554 C1553 1.362 . S
C1554 C1557 1.409 . S
C1555 H1547 0.930 . S
C1555 C1556 1.355 . S
C1555 C1557 1.415 . S
C1556 C1555 1.355 . S
C1556 C1558 1.419 . S
C1557 C1552 1.425 . S
C1557 C1554 1.409 . S
C1557 C1555 1.415 . S
C1558 H1548 0.930 . S
C1558 C1556 1.419 . S
C1558 C1559 1.362 . S
C1559 H1549 0.930 . S
C1559 C1552 1.409 . S
C1559 C1558 1.362 . S
H1560 C1566 0.930 . S
H1561 C1569 0.930 . S
H1562 C1570 0.930 . S
H1563 C1571 0.930 . S
H1564 C1574 0.930 . S
H1565 C1575 0.930 . S
C1566 H1560 0.930 . S
C1566 C1567 1.355 . S
C1566 C1568 1.415 . S
C1567 C1566 1.355 . S
C1567 C1569 1.419 . S
C1568 C1566 1.415 . S
C1568 C1573 1.425 . S
C1568 C1575 1.409 . S
C1569 H1561 0.930 . S
C1569 C1567 1.419 . S
C1569 C1570 1.362 . S
C1570 H1562 0.930 . S
C1570 C1569 1.362 . S
C1570 C1573 1.409 . S
C1571 H1563 0.930 . S
C1571 C1572 1.355 . S
C1571 C1573 1.415 . S
C1572 C1571 1.355 . S
C1572 C1574 1.419 . S
C1573 C1568 1.425 . S
C1573 C1570 1.409 . S
C1573 C1571 1.415 . S
C1574 H1564 0.930 . S
C1574 C1572 1.419 . S
C1574 C1575 1.362 . S
C1575 H1565 0.930 . S
C1575 C1568 1.409 . S
C1575 C1574 1.362 . S
H1576 C1582 0.930 . S
H1577 C1585 0.930 . S
H1578 C1586 0.930 . S
H1579 C1587 0.930 . S
H1580 C1590 0.930 . S
H1581 C1591 0.930 . S
C1582 H1576 0.930 . S
C1582 C1583 1.355 . S
C1582 C1584 1.415 . S
C1583 C1582 1.355 . S
C1583 C1585 1.419 . S
C1584 C1582 1.415 . S
C1584 C1589 1.425 . S
C1584 C1591 1.409 . S
C1585 H1577 0.930 . S
C1585 C1583 1.419 . S
C1585 C1586 1.362 . S
C1586 H1578 0.930 . S
C1586 C1585 1.362 . S
C1586 C1589 1.409 . S
C1587 H1579 0.930 . S
C1587 C1588 1.355 . S
C1587 C1589 1.415 . S
C1588 C1587 1.355 . S
C1588 C1590 1.419 . S
C1589 C1584 1.425 . S
C1589 C1586 1.409 . S
C1589 C1587 1.415 . S
C1590 H1580 0.930 . S
C1590 C1588 1.419 . S
C1590 C1591 1.362 . S
C1591 H1581 0.930 . S
C1591 C1584 1.409 . S
C1591 C1590 1.362 . S
H1592 C1598 0.930 . S
H1593 C1601 0.930 . S
H1594 C1602 0.930 . S
H1595 C1603 0.930 . S
H1596 C1606 0.930 . S
H1597 C1607 0.930 . S
C1598 H1592 0.930 . S
C1598 C1599 1.355 . S
C1598 C1600 1.415 . S
C1599 C1598 1.355 . S
C1599 C1601 1.419 . S
C1600 C1598 1.415 . S
C1600 C1605 1.425 . S
C1600 C1607 1.409 . S
C1601 H1593 0.930 . S
C1601 C1599 1.419 . S
C1601 C1602 1.362 . S
C1602 H1594 0.930 . S
C1602 C1601 1.362 . S
C1602 C1605 1.409 . S
C1603 H1595 0.930 . S
C1603 C1604 1.355 . S
C1603 C1605 1.415 . S
C1604 C1603 1.355 . S
C1604 C1606 1.419 . S
C1605 C1600 1.425 . S
C1605 C1602 1.409 . S
C1605 C1603 1.415 . S
C1606 H1596 0.930 . S
C1606 C1604 1.419 . S
C1606 C1607 1.362 . S
C1607 H1597 0.930 . S
C1607 C1600 1.409 . S
C1607 C1606 1.362 . S
H1608 C1614 0.930 . S
H1609 C1617 0.930 . S
H1610 C1618 0.930 . S
H1611 C1619 0.930 . S
H1612 C1622 0.930 . S
H1613 C1623 0.930 . S
C1614 H1608 0.930 . S
C1614 C1615 1.355 . S
C1614 C1616 1.415 . S
C1615 C1614 1.355 . S
C1615 C1617 1.419 . S
C1616 C1614 1.415 . S
C1616 C1621 1.425 . S
C1616 C1623 1.409 . S
C1617 H1609 0.930 . S
C1617 C1615 1.419 . S
C1617 C1618 1.362 . S
C1618 H1610 0.930 . S
C1618 C1617 1.362 . S
C1618 C1621 1.409 . S
C1619 H1611 0.930 . S
C1619 C1620 1.355 . S
C1619 C1621 1.415 . S
C1620 C1619 1.355 . S
C1620 C1622 1.419 . S
C1621 C1616 1.425 . S
C1621 C1618 1.409 . S
C1621 C1619 1.415 . S
C1622 H1612 0.930 . S
C1622 C1620 1.419 . S
C1622 C1623 1.362 . S
C1623 H1613 0.930 . S
C1623 C1616 1.409 . S
C1623 C1622 1.362 . S
H1624 C1630 0.930 . S
H1625 C1633 0.930 . S
H1626 C1634 0.930 . S
H1627 C1635 0.930 . S
H1628 C1638 0.930 . S
H1629 C1639 0.930 . S
C1630 H1624 0.930 . S
C1630 C1631 1.355 . S
C1630 C1632 1.415 . S
C1631 C1630 1.355 . S
C1631 C1633 1.419 . S
C1632 C1630 1.415 . S
C1632 C1637 1.425 . S
C1632 C1639 1.409 . S
C1633 H1625 0.930 . S
C1633 C1631 1.419 . S
C1633 C1634 1.362 . S
C1634 H1626 0.930 . S
C1634 C1633 1.362 . S
C1634 C1637 1.409 . S
C1635 H1627 0.930 . S
C1635 C1636 1.355 . S
C1635 C1637 1.415 . S
C1636 C1635 1.355 . S
C1636 C1638 1.419 . S
C1637 C1632 1.425 . S
C1637 C1634 1.409 . S
C1637 C1635 1.415 . S
C1638 H1628 0.930 . S
C1638 C1636 1.419 . S
C1638 C1639 1.362 . S
C1639 H1629 0.930 . S
C1639 C1632 1.409 . S
C1639 C1638 1.362 . S
H1640 C1646 0.930 . S
H1641 C1649 0.930 . S
H1642 C1650 0.930 . S
H1643 C1651 0.930 . S
H1644 C1654 0.930 . S
H1645 C1655 0.930 . S
C1646 H1640 0.930 . S
C1646 C1647 1.355 . S
C1646 C1648 1.415 . S
C1647 C1646 1.355 . S
C1647 C1649 1.419 . S
C1648 C1646 1.415 . S
C1648 C1653 1.425 . S
C1648 C1655 1.409 . S
C1649 H1641 0.930 . S
C1649 C1647 1.419 . S
C1649 C1650 1.362 . S
C1650 H1642 0.930 . S
C1650 C1649 1.362 . S
C1650 C1653 1.409 . S
C1651 H1643 0.930 . S
C1651 C1652 1.355 . S
C1651 C1653 1.415 . S
C1652 C1651 1.355 . S
C1652 C1654 1.419 . S
C1653 C1648 1.425 . S
C1653 C1650 1.409 . S
C1653 C1651 1.415 . S
C1654 H1644 0.930 . S
C1654 C1652 1.419 . S
C1654 C1655 1.362 . S
C1655 H1645 0.930 . S
C1655 C1648 1.409 . S
C1655 C1654 1.362 . S
H1656 C1662 0.930 . S
H1657 C1665 0.930 . S
H1658 C1666 0.930 . S
H1659 C1667 0.930 . S
H1660 C1670 0.930 . S
H1661 C1671 0.930 . S
C1662 H1656 0.930 . S
C1662 C1663 1.355 . S
C1662 C1664 1.415 . S
C1663 C1662 1.355 . S
C1663 C1665 1.419 . S
C1664 C1662 1.415 . S
C1664 C1669 1.425 . S
C1664 C1671 1.409 . S
C1665 H1657 0.930 . S
C1665 C1663 1.419 . S
C1665 C1666 1.362 . S
C1666 H1658 0.930 . S
C1666 C1665 1.362 . S
C1666 C1669 1.409 . S
C1667 H1659 0.930 . S
C1667 C1668 1.355 . S
C1667 C1669 1.415 . S
C1668 C1667 1.355 . S
C1668 C1670 1.419 . S
C1669 C1664 1.425 . S
C1669 C1666 1.409 . S
C1669 C1667 1.415 . S
C1670 H1660 0.930 . S
C1670 C1668 1.419 . S
C1670 C1671 1.362 . S
C1671 H1661 0.930 . S
C1671 C1664 1.409 . S
C1671 C1670 1.362 . S
H1672 C1678 0.930 . S
H1673 C1681 0.930 . S
H1674 C1682 0.930 . S
H1675 C1683 0.930 . S
H1676 C1686 0.930 . S
H1677 C1687 0.930 . S
C1678 H1672 0.930 . S
C1678 C1679 1.355 . S
C1678 C1680 1.415 . S
C1679 C1678 1.355 . S
C1679 C1681 1.419 . S
C1680 C1678 1.415 . S
C1680 C1685 1.425 . S
C1680 C1687 1.409 . S
C1681 H1673 0.930 . S
C1681 C1679 1.419 . S
C1681 C1682 1.362 . S
C1682 H1674 0.930 . S
C1682 C1681 1.362 . S
C1682 C1685 1.409 . S
C1683 H1675 0.930 . S
C1683 C1684 1.355 . S
C1683 C1685 1.415 . S
C1684 C1683 1.355 . S
C1684 C1686 1.419 . S
C1685 C1680 1.425 . S
C1685 C1682 1.409 . S
C1685 C1683 1.415 . S
C1686 H1676 0.930 . S
C1686 C1684 1.419 . S
C1686 C1687 1.362 . S
C1687 H1677 0.930 . S
C1687 C1680 1.409 . S
C1687 C1686 1.362 . S
H1688 C1694 0.930 . S
H1689 C1697 0.930 . S
H1690 C1698 0.930 . S
H1691 C1699 0.930 . S
H1692 C1702 0.930 . S
H1693 C1703 0.930 . S
C1694 H1688 0.930 . S
C1694 C1695 1.355 . S
C1694 C1696 1.415 . S
C1695 C1694 1.355 . S
C1695 C1697 1.419 . S
C1696 C1694 1.415 . S
C1696 C1701 1.425 . S
C1696 C1703 1.409 . S
C1697 H1689 0.930 . S
C1697 C1695 1.419 . S
C1697 C1698 1.362 . S
C1698 H1690 0.930 . S
C1698 C1697 1.362 . S
C1698 C1701 1.409 . S
C1699 H1691 0.930 . S
C1699 C1700 1.355 . S
C1699 C1701 1.415 . S
C1700 C1699 1.355 . S
C1700 C1702 1.419 . S
C1701 C1696 1.425 . S
C1701 C1698 1.409 . S
C1701 C1699 1.415 . S
C1702 H1692 0.930 . S
C1702 C1700 1.419 . S
C1702 C1703 1.362 . S
C1703 H1693 0.930 . S
C1703 C1696 1.409 . S
C1703 C1702 1.362 . S
H1704 C1710 0.930 . S
H1705 C1713 0.930 . S
H1706 C1714 0.930 . S
H1707 C1715 0.930 . S
H1708 C1718 0.930 . S
H1709 C1719 0.930 . S
C1710 H1704 0.930 . S
C1710 C1711 1.355 . S
C1710 C1712 1.415 . S
C1711 C1710 1.355 . S
C1711 C1713 1.419 . S
C1712 C1710 1.415 . S
C1712 C1717 1.425 . S
C1712 C1719 1.409 . S
C1713 H1705 0.930 . S
C1713 C1711 1.419 . S
C1713 C1714 1.362 . S
C1714 H1706 0.930 . S
C1714 C1713 1.362 . S
C1714 C1717 1.409 . S
C1715 H1707 0.930 . S
C1715 C1716 1.355 . S
C1715 C1717 1.415 . S
C1716 C1715 1.355 . S
C1716 C1718 1.419 . S
C1717 C1712 1.425 . S
C1717 C1714 1.409 . S
C1717 C1715 1.415 . S
C1718 H1708 0.930 . S
C1718 C1716 1.419 . S
C1718 C1719 1.362 . S
C1719 H1709 0.930 . S
C1719 C1712 1.409 . S
C1719 C1718 1.362 . S
H1720 C1726 0.930 . S
H1721 C1729 0.930 . S
H1722 C1730 0.930 . S
H1723 C1731 0.930 . S
H1724 C1734 0.930 . S
H1725 C1735 0.930 . S
C1726 H1720 0.930 . S
C1726 C1727 1.355 . S
C1726 C1728 1.415 . S
C1727 C1726 1.355 . S
C1727 C1729 1.419 . S
C1728 C1726 1.415 . S
C1728 C1733 1.425 . S
C1728 C1735 1.409 . S
C1729 H1721 0.930 . S
C1729 C1727 1.419 . S
C1729 C1730 1.362 . S
C1730 H1722 0.930 . S
C1730 C1729 1.362 . S
C1730 C1733 1.409 . S
C1731 H1723 0.930 . S
C1731 C1732 1.355 . S
C1731 C1733 1.415 . S
C1732 C1731 1.355 . S
C1732 C1734 1.419 . S
C1733 C1728 1.425 . S
C1733 C1730 1.409 . S
C1733 C1731 1.415 . S
C1734 H1724 0.930 . S
C1734 C1732 1.419 . S
C1734 C1735 1.362 . S
C1735 H1725 0.930 . S
C1735 C1728 1.409 . S
C1735 C1734 1.362 . S
H1736 C1742 0.930 . S
H1737 C1745 0.930 . S
H1738 C1746 0.930 . S
H1739 C1747 0.930 . S
H1740 C1750 0.930 . S
H1741 C1751 0.930 . S
C1742 H1736 0.930 . S
C1742 C1743 1.355 . S
C1742 C1744 1.415 . S
C1743 C1742 1.355 . S
C1743 C1745 1.419 . S
C1744 C1742 1.415 . S
C1744 C1749 1.425 . S
C1744 C1751 1.409 . S
C1745 H1737 0.930 . S
C1745 C1743 1.419 . S
C1745 C1746 1.362 . S
C1746 H1738 0.930 . S
C1746 C1745 1.362 . S
C1746 C1749 1.409 . S
C1747 H1739 0.930 . S
C1747 C1748 1.355 . S
C1747 C1749 1.415 . S
C1748 C1747 1.355 . S
C1748 C1750 1.419 . S
C1749 C1744 1.425 . S
C1749 C1746 1.409 . S
C1749 C1747 1.415 . S
C1750 H1740 0.930 . S
C1750 C1748 1.419 . S
C1750 C1751 1.362 . S
C1751 H1741 0.930 . S
C1751 C1744 1.409 . S
C1751 C1750 1.362 . S
H1752 C1758 0.930 . S
H1753 C1761 0.930 . S
H1754 C1762 0.930 . S
H1755 C1763 0.930 . S
H1756 C1766 0.930 . S
H1757 C1767 0.930 . S
C1758 H1752 0.930 . S
C1758 C1759 1.355 . S
C1758 C1760 1.415 . S
C1759 C1758 1.355 . S
C1759 C1761 1.419 . S
C1760 C1758 1.415 . S
C1760 C1765 1.425 . S
C1760 C1767 1.409 . S
C1761 H1753 0.930 . S
C1761 C1759 1.419 . S
C1761 C1762 1.362 . S
C1762 H1754 0.930 . S
C1762 C1761 1.362 . S
C1762 C1765 1.409 . S
C1763 H1755 0.930 . S
C1763 C1764 1.355 . S
C1763 C1765 1.415 . S
C1764 C1763 1.355 . S
C1764 C1766 1.419 . S
C1765 C1760 1.425 . S
C1765 C1762 1.409 . S
C1765 C1763 1.415 . S
C1766 H1756 0.930 . S
C1766 C1764 1.419 . S
C1766 C1767 1.362 . S
C1767 H1757 0.930 . S
C1767 C1760 1.409 . S
C1767 C1766 1.362 . S
H1768 C1774 0.930 . S
H1769 C1777 0.930 . S
H1770 C1778 0.930 . S
H1771 C1779 0.930 . S
H1772 C1782 0.930 . S
H1773 C1783 0.930 . S
C1774 H1768 0.930 . S
C1774 C1775 1.355 . S
C1774 C1776 1.415 . S
C1775 C1774 1.355 . S
C1775 C1777 1.419 . S
C1776 C1774 1.415 . S
C1776 C1781 1.425 . S
C1776 C1783 1.409 . S
C1777 H1769 0.930 . S
C1777 C1775 1.419 . S
C1777 C1778 1.362 . S
C1778 H1770 0.930 . S
C1778 C1777 1.362 . S
C1778 C1781 1.409 . S
C1779 H1771 0.930 . S
C1779 C1780 1.355 . S
C1779 C1781 1.415 . S
C1780 C1779 1.355 . S
C1780 C1782 1.419 . S
C1781 C1776 1.425 . S
C1781 C1778 1.409 . S
C1781 C1779 1.415 . S
C1782 H1772 0.930 . S
C1782 C1780 1.419 . S
C1782 C1783 1.362 . S
C1783 H1773 0.930 . S
C1783 C1776 1.409 . S
C1783 C1782 1.362 . S
H1784 C1790 0.930 . S
H1785 C1793 0.930 . S
H1786 C1794 0.930 . S
H1787 C1795 0.930 . S
H1788 C1798 0.930 . S
H1789 C1799 0.930 . S
C1790 H1784 0.930 . S
C1790 C1791 1.355 . S
C1790 C1792 1.415 . S
C1791 C1790 1.355 . S
C1791 C1793 1.419 . S
C1792 C1790 1.415 . S
C1792 C1797 1.425 . S
C1792 C1799 1.409 . S
C1793 H1785 0.930 . S
C1793 C1791 1.419 . S
C1793 C1794 1.362 . S
C1794 H1786 0.930 . S
C1794 C1793 1.362 . S
C1794 C1797 1.409 . S
C1795 H1787 0.930 . S
C1795 C1796 1.355 . S
C1795 C1797 1.415 . S
C1796 C1795 1.355 . S
C1796 C1798 1.419 . S
C1797 C1792 1.425 . S
C1797 C1794 1.409 . S
C1797 C1795 1.415 . S
C1798 H1788 0.930 . S
C1798 C1796 1.419 . S
C1798 C1799 1.362 . S
C1799 H1789 0.930 . S
C1799 C1792 1.409 . S
C1799 C1798 1.362 . S
H1800 C1806 0.930 . S
H1801 C1809 0.930 . S
H1802 C1810 0.930 . S
H1803 C1811 0.930 . S
H1804 C1814 0.930 . S
H1805 C1815 0.930 . S
C1806 H1800 0.930 . S
C1806 C1807 1.355 . S
C1806 C1808 1.415 . S
C1807 C1806 1.355 . S
C1807 C1809 1.419 . S
C1808 C1806 1.415 . S
C1808 C1813 1.425 . S
C1808 C1815 1.409 . S
C1809 H1801 0.930 . S
C1809 C1807 1.419 . S
C1809 C1810 1.362 . S
C1810 H1802 0.930 . S
C1810 C1809 1.362 . S
C1810 C1813 1.409 . S
C1811 H1803 0.930 . S
C1811 C1812 1.355 . S
C1811 C1813 1.415 . S
C1812 C1811 1.355 . S
C1812 C1814 1.419 . S
C1813 C1808 1.425 . S
C1813 C1810 1.409 . S
C1813 C1811 1.415 . S
C1814 H1804 0.930 . S
C1814 C1812 1.419 . S
C1814 C1815 1.362 . S
C1815 H1805 0.930 . S
C1815 C1808 1.409 . S
C1815 C1814 1.362 . S
H1816 C1822 0.930 . S
H1817 C1825 0.930 . S
H1818 C1826 0.930 . S
H1819 C1827 0.930 . S
H1820 C1830 0.930 . S
H1821 C1831 0.930 . S
C1822 H1816 0.930 . S
C1822 C1823 1.355 . S
C1822 C1824 1.415 . S
C1823 C1822 1.355 . S
C1823 C1825 1.419 . S
C1824 C1822 1.415 . S
C1824 C1829 1.425 . S
C1824 C1831 1.409 . S
C1825 H1817 0.930 . S
C1825 C1823 1.419 . S
C1825 C1826 1.362 . S
C1826 H1818 0.930 . S
C1826 C1825 1.362 . S
C1826 C1829 1.409 . S
C1827 H1819 0.930 . S
C1827 C1828 1.355 . S
C1827 C1829 1.415 . S
C1828 C1827 1.355 . S
C1828 C1830 1.419 . S
C1829 C1824 1.425 . S
C1829 C1826 1.409 . S
C1829 C1827 1.415 . S
C1830 H1820 0.930 . S
C1830 C1828 1.419 . S
C1830 C1831 1.362 . S
C1831 H1821 0.930 . S
C1831 C1824 1.409 . S
C1831 C1830 1.362 . S
H1832 C1838 0.930 . S
H1833 C1841 0.930 . S
H1834 C1842 0.930 . S
H1835 C1843 0.930 . S
H1836 C1846 0.930 . S
H1837 C1847 0.930 . S
C1838 H1832 0.930 . S
C1838 C1839 1.355 . S
C1838 C1840 1.415 . S
C1839 C1838 1.355 . S
C1839 C1841 1.419 . S
C1840 C1838 1.415 . S
C1840 C1845 1.425 . S
C1840 C1847 1.409 . S
C1841 H1833 0.930 . S
C1841 C1839 1.419 . S
C1841 C1842 1.362 . S
C1842 H1834 0.930 . S
C1842 C1841 1.362 . S
C1842 C1845 1.409 . S
C1843 H1835 0.930 . S
C1843 C1844 1.355 . S
C1843 C1845 1.415 . S
C1844 C1843 1.355 . S
C1844 C1846 1.419 . S
C1845 C1840 1.425 . S
C1845 C1842 1.409 . S
C1845 C1843 1.415 . S
C1846 H1836 0.930 . S
C1846 C1844 1.419 . S
C1846 C1847 1.362 . S
C1847 H1837 0.930 . S
C1847 C1840 1.409 . S
C1847 C1846 1.362 . S
H1848 C1854 0.930 . S
H1849 C1857 0.930 . S
H1850 C1858 0.930 . S
H1851 C1859 0.930 . S
H1852 C1862 0.930 . S
H1853 C1863 0.930 . S
C1854 H1848 0.930 . S
C1854 C1855 1.355 . S
C1854 C1856 1.415 . S
C1855 C1854 1.355 . S
C1855 C1857 1.419 . S
C1856 C1854 1.415 . S
C1856 C1861 1.425 . S
C1856 C1863 1.409 . S
C1857 H1849 0.930 . S
C1857 C1855 1.419 . S
C1857 C1858 1.362 . S
C1858 H1850 0.930 . S
C1858 C1857 1.362 . S
C1858 C1861 1.409 . S
C1859 H1851 0.930 . S
C1859 C1860 1.355 . S
C1859 C1861 1.415 . S
C1860 C1859 1.355 . S
C1860 C1862 1.419 . S
C1861 C1856 1.425 . S
C1861 C1858 1.409 . S
C1861 C1859 1.415 . S
C1862 H1852 0.930 . S
C1862 C1860 1.419 . S
C1862 C1863 1.362 . S
C1863 H1853 0.930 . S
C1863 C1856 1.409 . S
C1863 C1862 1.362 . S
H1864 C1870 0.930 . S
H1865 C1873 0.930 . S
H1866 C1874 0.930 . S
H1867 C1875 0.930 . S
H1868 C1878 0.930 . S
H1869 C1879 0.930 . S
C1870 H1864 0.930 . S
C1870 C1871 1.355 . S
C1870 C1872 1.415 . S
C1871 C1870 1.355 . S
C1871 C1873 1.419 . S
C1872 C1870 1.415 . S
C1872 C1877 1.425 . S
C1872 C1879 1.409 . S
C1873 H1865 0.930 . S
C1873 C1871 1.419 . S
C1873 C1874 1.362 . S
C1874 H1866 0.930 . S
C1874 C1873 1.362 . S
C1874 C1877 1.409 . S
C1875 H1867 0.930 . S
C1875 C1876 1.355 . S
C1875 C1877 1.415 . S
C1876 C1875 1.355 . S
C1876 C1878 1.419 . S
C1877 C1872 1.425 . S
C1877 C1874 1.409 . S
C1877 C1875 1.415 . S
C1878 H1868 0.930 . S
C1878 C1876 1.419 . S
C1878 C1879 1.362 . S
C1879 H1869 0.930 . S
C1879 C1872 1.409 . S
C1879 C1878 1.362 . S
H1880 C1886 0.930 . S
H1881 C1889 0.930 . S
H1882 C1890 0.930 . S
H1883 C1891 0.930 . S
H1884 C1894 0.930 . S
H1885 C1895 0.930 . S
C1886 H1880 0.930 . S
C1886 C1887 1.355 . S
C1886 C1888 1.415 . S
C1887 C1886 1.355 . S
C1887 C1889 1.419 . S
C1888 C1886 1.415 . S
C1888 C1893 1.425 . S
C1888 C1895 1.409 . S
C1889 H1881 0.930 . S
C1889 C1887 1.419 . S
C1889 C1890 1.362 . S
C1890 H1882 0.930 . S
C1890 C1889 1.362 . S
C1890 C1893 1.409 . S
C1891 H1883 0.930 . S
C1891 C1892 1.355 . S
C1891 C1893 1.415 . S
C1892 C1891 1.355 . S
C1892 C1894 1.419 . S
C1893 C1888 1.425 . S
C1893 C1890 1.409 . S
C1893 C1891 1.415 . S
C1894 H1884 0.930 . S
C1894 C1892 1.419 . S
C1894 C1895 1.362 . S
C1895 H1885 0.930 . S
C1895 C1888 1.409 . S
C1895 C1894 1.362 . S
H1896 C1902 0.930 . S
H1897 C1905 0.930 . S
H1898 C1906 0.930 . S
H1899 C1907 0.930 . S
H1900 C1910 0.930 . S
H1901 C1911 0.930 . S
C1902 H1896 0.930 . S
C1902 C1903 1.355 . S
C1902 C1904 1.415 . S
C1903 C1902 1.355 . S
C1903 C1905 1.419 . S
C1904 C1902 1.415 . S
C1904 C1909 1.425 . S
C1904 C1911 1.409 . S
C1905 H1897 0.930 . S
C1905 C1903 1.419 . S
C1905 C1906 1.362 . S
C1906 H1898 0.930 . S
C1906 C1905 1.362 . S
C1906 C1909 1.409 . S
C1907 H1899 0.930 . S
C1907 C1908 1.355 . S
C1907 C1909 1.415 . S
C1908 C1907 1.355 . S
C1908 C1910 1.419 . S
C1909 C1904 1.425 . S
C1909 C1906 1.409 . S
C1909 C1907 1.415 . S
C1910 H1900 0.930 . S
C1910 C1908 1.419 . S
C1910 C1911 1.362 . S
C1911 H1901 0.930 . S
C1911 C1904 1.409 . S
C1911 C1910 1.362 . S
H1912 C1918 0.930 . S
H1913 C1921 0.930 . S
H1914 C1922 0.930 . S
H1915 C1923 0.930 . S
H1916 C1926 0.930 . S
H1917 C1927 0.930 . S
C1918 H1912 0.930 . S
C1918 C1919 1.355 . S
C1918 C1920 1.415 . S
C1919 C1918 1.355 . S
C1919 C1921 1.419 . S
C1920 C1918 1.415 . S
C1920 C1925 1.425 . S
C1920 C1927 1.409 . S
C1921 H1913 0.930 . S
C1921 C1919 1.419 . S
C1921 C1922 1.362 . S
C1922 H1914 0.930 . S
C1922 C1921 1.362 . S
C1922 C1925 1.409 . S
C1923 H1915 0.930 . S
C1923 C1924 1.355 . S
C1923 C1925 1.415 . S
C1924 C1923 1.355 . S
C1924 C1926 1.419 . S
C1925 C1920 1.425 . S
C1925 C1922 1.409 . S
C1925 C1923 1.415 . S
C1926 H1916 0.930 . S
C1926 C1924 1.419 . S
C1926 C1927 1.362 . S
C1927 H1917 0.930 . S
C1927 C1920 1.409 . S
C1927 C1926 1.362 . S
H1928 C1934 0.930 . S
H1929 C1937 0.930 . S
H1930 C1938 0.930 . S
H1931 C1939 0.930 . S
H1932 C1942 0.930 . S
H1933 C1943 0.930 . S
C1934 H1928 0.930 . S
C1934 C1935 1.355 . S
C1934 C1936 1.415 . S
C1935 C1934 1.355 . S
C1935 C1937 1.419 . S
C1936 C1934 1.415 . S
C1936 C1941 1.425 . S
C1936 C1943 1.409 . S
C1937 H1929 0.930 . S
C1937 C1935 1.419 . S
C1937 C1938 1.362 . S
C1938 H1930 0.930 . S
C1938 C1937 1.362 . S
C1938 C1941 1.409 . S
C1939 H1931 0.930 . S
C1939 C1940 1.355 . S
C1939 C1941 1.415 . S
C1940 C1939 1.355 . S
C1940 C1942 1.419 . S
C1941 C1936 1.425 . S
C1941 C1938 1.409 . S
C1941 C1939 1.415 . S
C1942 H1932 0.930 . S
C1942 C1940 1.419 . S
C1942 C1943 1.362 . S
C1943 H1933 0.930 . S
C1943 C1936 1.409 . S
C1943 C1942 1.362 . S
H1944 C1950 0.930 . S
H1945 C1953 0.930 . S
H1946 C1954 0.930 . S
H1947 C1955 0.930 . S
H1948 C1958 0.930 . S
H1949 C1959 0.930 . S
C1950 H1944 0.930 . S
C1950 C1951 1.355 . S
C1950 C1952 1.415 . S
C1951 C1950 1.355 . S
C1951 C1953 1.419 . S
C1952 C1950 1.415 . S
C1952 C1957 1.425 . S
C1952 C1959 1.409 . S
C1953 H1945 0.930 . S
C1953 C1951 1.419 . S
C1953 C1954 1.362 . S
C1954 H1946 0.930 . S
C1954 C1953 1.362 . S
C1954 C1957 1.409 . S
C1955 H1947 0.930 . S
C1955 C1956 1.355 . S
C1955 C1957 1.415 . S
C1956 C1955 1.355 . S
C1956 C1958 1.419 . S
C1957 C1952 1.425 . S
C1957 C1954 1.409 . S
C1957 C1955 1.415 . S
C1958 H1948 0.930 . S
C1958 C1956 1.419 . S
C1958 C1959 1.362 . S
C1959 H1949 0.930 . S
C1959 C1952 1.409 . S
C1959 C1958 1.362 . S
H1960 C1966 0.930 . S
H1961 C1969 0.930 . S
H1962 C1970 0.930 . S
H1963 C1971 0.930 . S
H1964 C1974 0.930 . S
H1965 C1975 0.930 . S
C1966 H1960 0.930 . S
C1966 C1967 1.355 . S
C1966 C1968 1.415 . S
C1967 C1966 1.355 . S
C1967 C1969 1.419 . S
C1968 C1966 1.415 . S
C1968 C1973 1.425 . S
C1968 C1975 1.409 . S
C1969 H1961 0.930 . S
C1969 C1967 1.419 . S
C1969 C1970 1.362 . S
C1970 H1962 0.930 . S
C1970 C1969 1.362 . S
C1970 C1973 1.409 . S
C1971 H1963 0.930 . S
C1971 C1972 1.355 . S
C1971 C1973 1.415 . S
C1972 C1971 1.355 . S
C1972 C1974 1.419 . S
C1973 C1968 1.425 . S
C1973 C1970 1.409 . S
C1973 C1971 1.415 . S
C1974 H1964 0.930 . S
C1974 C1972 1.419 . S
C1974 C1975 1.362 . S
C1975 H1965 0.930 . S
C1975 C1968 1.409 . S
C1975 C1974 1.362 . S
H1976 C1982 0.930 . S
H1977 C1985 0.930 . S
H1978 C1986 0.930 . S
H1979 C1987 0.930 . S
H1980 C1990 0.930 . S
H1981 C1991 0.930 . S
C1982 H1976 0.930 . S
C1982 C1983 1.355 . S
C1982 C1984 1.415 . S
C1983 C1982 1.355 . S
C1983 C1985 1.419 . S
C1984 C1982 1.415 . S
C1984 C1989 1.425 . S
C1984 C1991 1.409 . S
C1985 H1977 0.930 . S
C1985 C1983 1.419 . S
C1985 C1986 1.362 . S
C1986 H1978 0.930 . S
C1986 C1985 1.362 . S
C1986 C1989 1.409 . S
C1987 H1979 0.930 . S
C1987 C1988 1.355 . S
C1987 C1989 1.415 . S
C1988 C1987 1.355 . S
C1988 C1990 1.419 . S
C1989 C1984 1.425 . S
C1989 C1986 1.409 . S
C1989 C1987 1.415 . S
C1990 H1980 0.930 . S
C1990 C1988 1.419 . S
C1990 C1991 1.362 . S
C1991 H1981 0.930 . S
C1991 C1984 1.409 . S
C1991 C1990 1.362 . S
H1992 C1998 0.930 . S
H1993 C2001 0.930 . S
H1994 C2002 0.930 . S
H1995 C2003 0.930 . S
H1996 C2006 0.930 . S
H1997 C2007 0.930 . S
C1998 H1992 0.930 . S
C1998 C1999 1.355 . S
C1998 C2000 1.415 . S
C1999 C1998 1.355 . S
C1999 C2001 1.419 . S
C2000 C1998 1.415 . S
C2000 C2005 1.425 . S
C2000 C2007 1.409 . S
C2001 H1993 0.930 . S
C2001 C1999 1.419 . S
C2001 C2002 1.362 . S
C2002 H1994 0.930 . S
C2002 C2001 1.362 . S
C2002 C2005 1.409 . S
C2003 H1995 0.930 . S
C2003 C2004 1.355 . S
C2003 C2005 1.415 . S
C2004 C2003 1.355 . S
C2004 C2006 1.419 . S
C2005 C2000 1.425 . S
C2005 C2002 1.409 . S
C2005 C2003 1.415 . S
C2006 H1996 0.930 . S
C2006 C2004 1.419 . S
C2006 C2007 1.362 . S
C2007 H1997 0.930 . S
C2007 C2000 1.409 . S
C2007 C2006 1.362 . S
H2008 C2014 0.930 . S
H2009 C2017 0.930 . S
H2010 C2018 0.930 . S
H2011 C2019 0.930 . S
H2012 C2022 0.930 . S
H2013 C2023 0.930 . S
C2014 H2008 0.930 . S
C2014 C2015 1.355 . S
C2014 C2016 1.415 . S
C2015 C2014 1.355 . S
C2015 C2017 1.419 . S
C2016 C2014 1.415 . S
C2016 C2021 1.425 . S
C2016 C2023 1.409 . S
C2017 H2009 0.930 . S
C2017 C2015 1.419 . S
C2017 C2018 1.362 . S
C2018 H2010 0.930 . S
C2018 C2017 1.362 . S
C2018 C2021 1.409 . S
C2019 H2011 0.930 . S
C2019 C2020 1.355 . S
C2019 C2021 1.415 . S
C2020 C2019 1.355 . S
C2020 C2022 1.419 . S
C2021 C2016 1.425 . S
C2021 C2018 1.409 . S
C2021 C2019 1.415 . S
C2022 H2012 0.930 . S
C2022 C2020 1.419 . S
C2022 C2023 1.362 . S
C2023 H2013 0.930 . S
C2023 C2016 1.409 . S
C2023 C2022 1.362 . S
H2024 C2030 0.898 1_554 S
H2025 C2033 0.930 . S
H2026 C2034 0.930 . S
H2027 C2035 0.930 . S
H2028 C2038 0.930 . S
H2029 C2039 0.930 . S
C2030 H2024 0.898 1_556 S
C2030 C2031 1.355 . S
C2030 C2032 1.415 . S
C2031 C2030 1.355 . S
C2031 C2033 1.419 . S
C2032 C2030 1.415 . S
C2032 C2037 1.425 . S
C2032 C2039 1.409 . S
C2033 H2025 0.930 . S
C2033 C2031 1.419 . S
C2033 C2034 1.362 . S
C2034 H2026 0.930 . S
C2034 C2033 1.362 . S
C2034 C2037 1.409 . S
C2035 H2027 0.930 . S
C2035 C2036 1.355 . S
C2035 C2037 1.415 . S
C2036 C2035 1.355 . S
C2036 C2038 1.419 . S
C2037 C2032 1.425 . S
C2037 C2034 1.409 . S
C2037 C2035 1.415 . S
C2038 H2028 0.930 . S
C2038 C2036 1.419 . S
C2038 C2039 1.362 . S
C2039 H2029 0.930 . S
C2039 C2032 1.409 . S
C2039 C2038 1.362 . S
H2040 C2046 0.930 . S
H2041 C2049 0.930 . S
H2042 C2050 0.930 . S
H2043 C2051 0.930 . S
H2044 C2054 0.930 . S
H2045 C2055 0.930 . S
C2046 H2040 0.930 . S
C2046 C2047 1.355 . S
C2046 C2048 1.415 . S
C2047 C2046 1.355 . S
C2047 C2049 1.419 . S
C2048 C2046 1.415 . S
C2048 C2053 1.425 . S
C2048 C2055 1.409 . S
C2049 H2041 0.930 . S
C2049 C2047 1.419 . S
C2049 C2050 1.362 . S
C2050 H2042 0.930 . S
C2050 C2049 1.362 . S
C2050 C2053 1.409 . S
C2051 H2043 0.930 . S
C2051 C2052 1.355 . S
C2051 C2053 1.415 . S
C2052 C2051 1.355 . S
C2052 C2054 1.419 . S
C2053 C2048 1.425 . S
C2053 C2050 1.409 . S
C2053 C2051 1.415 . S
C2054 H2044 0.930 . S
C2054 C2052 1.419 . S
C2054 C2055 1.362 . S
C2055 H2045 0.930 . S
C2055 C2048 1.409 . S
C2055 C2054 1.362 . S
H2056 C2062 0.930 . S
H2057 C2065 0.930 . S
H2058 C2066 0.930 . S
H2059 C2067 0.930 . S
H2060 C2070 0.930 . S
H2061 C2071 0.930 . S
C2062 H2056 0.930 . S
C2062 C2063 1.355 . S
C2062 C2064 1.415 . S
C2063 C2062 1.355 . S
C2063 C2065 1.419 . S
C2064 C2062 1.415 . S
C2064 C2069 1.425 . S
C2064 C2071 1.409 . S
C2065 H2057 0.930 . S
C2065 C2063 1.419 . S
C2065 C2066 1.362 . S
C2066 H2058 0.930 . S
C2066 C2065 1.362 . S
C2066 C2069 1.409 . S
C2067 H2059 0.930 . S
C2067 C2068 1.355 . S
C2067 C2069 1.415 . S
C2068 C2067 1.355 . S
C2068 C2070 1.419 . S
C2069 C2064 1.425 . S
C2069 C2066 1.409 . S
C2069 C2067 1.415 . S
C2070 H2060 0.930 . S
C2070 C2068 1.419 . S
C2070 C2071 1.362 . S
C2071 H2061 0.930 . S
C2071 C2064 1.409 . S
C2071 C2070 1.362 . S
H2072 C2078 0.930 . S
H2073 C2081 0.930 . S
H2074 C2082 0.930 . S
H2075 C2083 0.930 . S
H2076 C2086 0.930 . S
H2077 C2087 0.930 . S
C2078 H2072 0.930 . S
C2078 C2079 1.355 . S
C2078 C2080 1.415 . S
C2079 C2078 1.355 . S
C2079 C2081 1.419 . S
C2080 C2078 1.415 . S
C2080 C2085 1.425 . S
C2080 C2087 1.409 . S
C2081 H2073 0.930 . S
C2081 C2079 1.419 . S
C2081 C2082 1.362 . S
C2082 H2074 0.930 . S
C2082 C2081 1.362 . S
C2082 C2085 1.409 . S
C2083 H2075 0.930 . S
C2083 C2084 1.355 . S
C2083 C2085 1.415 . S
C2084 C2083 1.355 . S
C2084 C2086 1.419 . S
C2085 C2080 1.425 . S
C2085 C2082 1.409 . S
C2085 C2083 1.415 . S
C2086 H2076 0.930 . S
C2086 C2084 1.419 . S
C2086 C2087 1.362 . S
C2087 H2077 0.930 . S
C2087 C2080 1.409 . S
C2087 C2086 1.362 . S
H2088 C2094 0.930 . S
H2089 C2097 0.930 . S
H2090 C2098 0.930 . S
H2091 C2099 0.930 . S
H2092 C2102 0.930 . S
H2093 C2103 0.930 . S
C2094 H2088 0.930 . S
C2094 C2095 1.355 . S
C2094 C2096 1.415 . S
C2095 C2094 1.355 . S
C2095 C2097 1.419 . S
C2096 C2094 1.415 . S
C2096 C2101 1.425 . S
C2096 C2103 1.409 . S
C2097 H2089 0.930 . S
C2097 C2095 1.419 . S
C2097 C2098 1.362 . S
C2098 H2090 0.930 . S
C2098 C2097 1.362 . S
C2098 C2101 1.409 . S
C2099 H2091 0.930 . S
C2099 C2100 1.355 . S
C2099 C2101 1.415 . S
C2100 C2099 1.355 . S
C2100 C2102 1.419 . S
C2101 C2096 1.425 . S
C2101 C2098 1.409 . S
C2101 C2099 1.415 . S
C2102 H2092 0.930 . S
C2102 C2100 1.419 . S
C2102 C2103 1.362 . S
C2103 H2093 0.930 . S
C2103 C2096 1.409 . S
C2103 C2102 1.362 . S
H2104 C2110 0.930 . S
H2105 C2113 0.930 . S
H2106 C2114 0.930 . S
H2107 C2115 0.930 . S
H2108 C2118 0.930 . S
H2109 C2119 0.930 . S
C2110 H2104 0.930 . S
C2110 C2111 1.355 . S
C2110 C2112 1.415 . S
C2111 C2110 1.355 . S
C2111 C2113 1.419 . S
C2112 C2110 1.415 . S
C2112 C2117 1.425 . S
C2112 C2119 1.409 . S
C2113 H2105 0.930 . S
C2113 C2111 1.419 . S
C2113 C2114 1.362 . S
C2114 H2106 0.930 . S
C2114 C2113 1.362 . S
C2114 C2117 1.409 . S
C2115 H2107 0.930 . S
C2115 C2116 1.355 . S
C2115 C2117 1.415 . S
C2116 C2115 1.355 . S
C2116 C2118 1.419 . S
C2117 C2112 1.425 . S
C2117 C2114 1.409 . S
C2117 C2115 1.415 . S
C2118 H2108 0.930 . S
C2118 C2116 1.419 . S
C2118 C2119 1.362 . S
C2119 H2109 0.930 . S
C2119 C2112 1.409 . S
C2119 C2118 1.362 . S
H2120 C2126 0.930 . S
H2121 C2129 0.930 . S
H2122 C2130 0.930 . S
H2123 C2131 0.930 . S
H2124 C2134 0.930 . S
H2125 C2135 0.930 . S
C2126 H2120 0.930 . S
C2126 C2127 1.355 . S
C2126 C2128 1.415 . S
C2127 C2126 1.355 . S
C2127 C2129 1.419 . S
C2128 C2126 1.415 . S
C2128 C2133 1.425 . S
C2128 C2135 1.409 . S
C2129 H2121 0.930 . S
C2129 C2127 1.419 . S
C2129 C2130 1.362 . S
C2130 H2122 0.930 . S
C2130 C2129 1.362 . S
C2130 C2133 1.409 . S
C2131 H2123 0.930 . S
C2131 C2132 1.355 . S
C2131 C2133 1.415 . S
C2132 C2131 1.355 . S
C2132 C2134 1.419 . S
C2133 C2128 1.425 . S
C2133 C2130 1.409 . S
C2133 C2131 1.415 . S
C2134 H2124 0.930 . S
C2134 C2132 1.419 . S
C2134 C2135 1.362 . S
C2135 H2125 0.930 . S
C2135 C2128 1.409 . S
C2135 C2134 1.362 . S
H2136 C2142 0.930 . S
H2137 C2145 0.930 . S
H2138 C2146 0.930 . S
H2139 C2147 0.930 . S
H2140 C2150 0.930 . S
H2141 C2151 0.930 . S
C2142 H2136 0.930 . S
C2142 C2143 1.355 . S
C2142 C2144 1.415 . S
C2143 C2142 1.355 . S
C2143 C2145 1.419 . S
C2144 C2142 1.415 . S
C2144 C2149 1.425 . S
C2144 C2151 1.409 . S
C2145 H2137 0.930 . S
C2145 C2143 1.419 . S
C2145 C2146 1.362 . S
C2146 H2138 0.930 . S
C2146 C2145 1.362 . S
C2146 C2149 1.409 . S
C2147 H2139 0.930 . S
C2147 C2148 1.355 . S
C2147 C2149 1.415 . S
C2148 C2147 1.355 . S
C2148 C2150 1.419 . S
C2149 C2144 1.425 . S
C2149 C2146 1.409 . S
C2149 C2147 1.415 . S
C2150 H2140 0.930 . S
C2150 C2148 1.419 . S
C2150 C2151 1.362 . S
C2151 H2141 0.930 . S
C2151 C2144 1.409 . S
C2151 C2150 1.362 . S
H2152 C2158 0.930 . S
H2153 C2161 0.930 . S
H2154 C2162 0.930 . S
H2155 C2163 0.930 . S
H2156 C2166 0.930 . S
H2157 C2167 0.930 . S
C2158 H2152 0.930 . S
C2158 C2159 1.355 . S
C2158 C2160 1.415 . S
C2159 C2158 1.355 . S
C2159 C2161 1.419 . S
C2160 C2158 1.415 . S
C2160 C2165 1.425 . S
C2160 C2167 1.409 . S
C2161 H2153 0.930 . S
C2161 C2159 1.419 . S
C2161 C2162 1.362 . S
C2162 H2154 0.930 . S
C2162 C2161 1.362 . S
C2162 C2165 1.409 . S
C2163 H2155 0.930 . S
C2163 C2164 1.355 . S
C2163 C2165 1.415 . S
C2164 C2163 1.355 . S
C2164 C2166 1.419 . S
C2165 C2160 1.425 . S
C2165 C2162 1.409 . S
C2165 C2163 1.415 . S
C2166 H2156 0.930 . S
C2166 C2164 1.419 . S
C2166 C2167 1.362 . S
C2167 H2157 0.930 . S
C2167 C2160 1.409 . S
C2167 C2166 1.362 . S
H2168 C2174 0.930 . S
H2169 C2177 0.930 . S
H2170 C2178 0.930 . S
H2171 C2179 0.930 . S
H2172 C2182 0.930 . S
H2173 C2183 0.930 . S
C2174 H2168 0.930 . S
C2174 C2175 1.355 . S
C2174 C2176 1.415 . S
C2175 C2174 1.355 . S
C2175 C2177 1.419 . S
C2176 C2174 1.415 . S
C2176 C2181 1.425 . S
C2176 C2183 1.409 . S
C2177 H2169 0.930 . S
C2177 C2175 1.419 . S
C2177 C2178 1.362 . S
C2178 H2170 0.930 . S
C2178 C2177 1.362 . S
C2178 C2181 1.409 . S
C2179 H2171 0.930 . S
C2179 C2180 1.355 . S
C2179 C2181 1.415 . S
C2180 C2179 1.355 . S
C2180 C2182 1.419 . S
C2181 C2176 1.425 . S
C2181 C2178 1.409 . S
C2181 C2179 1.415 . S
C2182 H2172 0.930 . S
C2182 C2180 1.419 . S
C2182 C2183 1.362 . S
C2183 H2173 0.930 . S
C2183 C2176 1.409 . S
C2183 C2182 1.362 . S
H2184 C2190 0.930 . S
H2185 C2193 0.930 . S
H2186 C2194 0.930 . S
H2187 C2195 0.930 . S
H2188 C2198 0.930 . S
H2189 C2199 0.930 . S
C2190 H2184 0.930 . S
C2190 C2191 1.355 . S
C2190 C2192 1.415 . S
C2191 C2190 1.355 . S
C2191 C2193 1.419 . S
C2192 C2190 1.415 . S
C2192 C2197 1.425 . S
C2192 C2199 1.409 . S
C2193 H2185 0.930 . S
C2193 C2191 1.419 . S
C2193 C2194 1.362 . S
C2194 H2186 0.930 . S
C2194 C2193 1.362 . S
C2194 C2197 1.409 . S
C2195 H2187 0.930 . S
C2195 C2196 1.355 . S
C2195 C2197 1.415 . S
C2196 C2195 1.355 . S
C2196 C2198 1.419 . S
C2197 C2192 1.425 . S
C2197 C2194 1.409 . S
C2197 C2195 1.415 . S
C2198 H2188 0.930 . S
C2198 C2196 1.419 . S
C2198 C2199 1.362 . S
C2199 H2189 0.930 . S
C2199 C2192 1.409 . S
C2199 C2198 1.362 . S
H2200 C2206 0.930 . S
H2201 C2209 0.930 . S
H2202 C2210 0.930 . S
H2203 C2211 0.930 . S
H2204 C2214 0.930 . S
H2205 C2215 0.930 . S
C2206 H2200 0.930 . S
C2206 C2207 1.355 . S
C2206 C2208 1.415 . S
C2207 C2206 1.355 . S
C2207 C2209 1.419 . S
C2208 C2206 1.415 . S
C2208 C2213 1.425 . S
C2208 C2215 1.409 . S
C2209 H2201 0.930 . S
C2209 C2207 1.419 . S
C2209 C2210 1.362 . S
C2210 H2202 0.930 . S
C2210 C2209 1.362 . S
C2210 C2213 1.409 . S
C2211 H2203 0.930 . S
C2211 C2212 1.355 . S
C2211 C2213 1.415 . S
C2212 C2211 1.355 . S
C2212 C2214 1.419 . S
C2213 C2208 1.425 . S
C2213 C2210 1.409 . S
C2213 C2211 1.415 . S
C2214 H2204 0.930 . S
C2214 C2212 1.419 . S
C2214 C2215 1.362 . S
C2215 H2205 0.930 . S
C2215 C2208 1.409 . S
C2215 C2214 1.362 . S
H2216 C2222 0.930 . S
H2217 C2225 0.930 . S
H2218 C2226 0.930 . S
H2219 C2227 0.930 . S
H2220 C2230 0.930 . S
H2221 C2231 0.930 . S
C2222 H2216 0.930 . S
C2222 C2223 1.355 . S
C2222 C2224 1.415 . S
C2223 C2222 1.355 . S
C2223 C2225 1.419 . S
C2224 C2222 1.415 . S
C2224 C2229 1.425 . S
C2224 C2231 1.409 . S
C2225 H2217 0.930 . S
C2225 C2223 1.419 . S
C2225 C2226 1.362 . S
C2226 H2218 0.930 . S
C2226 C2225 1.362 . S
C2226 C2229 1.409 . S
C2227 H2219 0.930 . S
C2227 C2228 1.355 . S
C2227 C2229 1.415 . S
C2228 C2227 1.355 . S
C2228 C2230 1.419 . S
C2229 C2224 1.425 . S
C2229 C2226 1.409 . S
C2229 C2227 1.415 . S
C2230 H2220 0.930 . S
C2230 C2228 1.419 . S
C2230 C2231 1.362 . S
C2231 H2221 0.930 . S
C2231 C2224 1.409 . S
C2231 C2230 1.362 . S
H2232 C2238 0.930 . S
H2233 C2241 0.930 . S
H2234 C2242 0.930 . S
H2235 C2243 0.930 . S
H2236 C2246 0.930 . S
H2237 C2247 0.930 . S
C2238 H2232 0.930 . S
C2238 C2239 1.355 . S
C2238 C2240 1.415 . S
C2239 C2238 1.355 . S
C2239 C2241 1.419 . S
C2240 C2238 1.415 . S
C2240 C2245 1.425 . S
C2240 C2247 1.409 . S
C2241 H2233 0.930 . S
C2241 C2239 1.419 . S
C2241 C2242 1.362 . S
C2242 H2234 0.930 . S
C2242 C2241 1.362 . S
C2242 C2245 1.409 . S
C2243 H2235 0.930 . S
C2243 C2244 1.355 . S
C2243 C2245 1.415 . S
C2244 C2243 1.355 . S
C2244 C2246 1.419 . S
C2245 C2240 1.425 . S
C2245 C2242 1.409 . S
C2245 C2243 1.415 . S
C2246 H2236 0.930 . S
C2246 C2244 1.419 . S
C2246 C2247 1.362 . S
C2247 H2237 0.930 . S
C2247 C2240 1.409 . S
C2247 C2246 1.362 . S
H2248 C2254 0.941 . S
H2249 C2257 0.930 . S
H2250 C2258 0.930 . S
H2251 C2259 0.930 . S
H2252 C2262 0.930 . S
H2253 C2263 0.930 . S
C2254 H2248 0.941 . S
C2254 C2255 1.355 . S
C2254 C2256 1.415 . S
C2255 C2254 1.355 . S
C2255 C2257 1.419 . S
C2256 C2254 1.415 . S
C2256 C2261 1.425 . S
C2256 C2263 1.409 1_455 S
C2257 H2249 0.930 . S
C2257 C2255 1.419 . S
C2257 C2258 1.362 . S
C2258 H2250 0.930 . S
C2258 C2257 1.362 . S
C2258 C2261 1.409 . S
C2259 H2251 0.930 . S
C2259 C2260 1.355 . S
C2259 C2261 1.415 . S
C2260 C2259 1.355 . S
C2260 C2262 1.419 1_455 S
C2261 C2256 1.425 . S
C2261 C2258 1.409 . S
C2261 C2259 1.415 . S
C2262 H2252 0.930 . S
C2262 C2260 1.419 1_655 S
C2262 C2263 1.362 . S
C2263 H2253 0.930 . S
C2263 C2256 1.409 1_655 S
C2263 C2262 1.362 . S
H2264 C2270 0.930 . S
H2265 C2273 0.930 . S
H2266 C2274 0.930 . S
H2267 C2275 0.930 . S
H2268 C2278 0.930 . S
H2269 C2279 0.930 . S
C2270 H2264 0.930 . S
C2270 C2271 1.355 . S
C2270 C2272 1.415 . S
C2271 C2270 1.355 . S
C2271 C2273 1.419 . S
C2272 C2270 1.415 . S
C2272 C2277 1.425 . S
C2272 C2279 1.409 . S
C2273 H2265 0.930 . S
C2273 C2271 1.419 . S
C2273 C2274 1.362 . S
C2274 H2266 0.930 . S
C2274 C2273 1.362 . S
C2274 C2277 1.409 . S
C2275 H2267 0.930 . S
C2275 C2276 1.355 . S
C2275 C2277 1.415 . S
C2276 C2275 1.355 . S
C2276 C2278 1.419 . S
C2277 C2272 1.425 . S
C2277 C2274 1.409 . S
C2277 C2275 1.415 . S
C2278 H2268 0.930 . S
C2278 C2276 1.419 . S
C2278 C2279 1.362 . S
C2279 H2269 0.930 . S
C2279 C2272 1.409 . S
C2279 C2278 1.362 . S
H2280 C2286 0.930 . S
H2281 C2289 0.930 . S
H2282 C2290 0.930 . S
H2283 C2291 0.930 . S
H2284 C2294 0.930 . S
H2285 C2295 0.930 . S
C2286 H2280 0.930 . S
C2286 C2287 1.355 . S
C2286 C2288 1.415 . S
C2287 C2286 1.355 . S
C2287 C2289 1.419 . S
C2288 C2286 1.415 . S
C2288 C2293 1.425 . S
C2288 C2295 1.409 . S
C2289 H2281 0.930 . S
C2289 C2287 1.419 . S
C2289 C2290 1.362 . S
C2290 H2282 0.930 . S
C2290 C2289 1.362 . S
C2290 C2293 1.409 . S
C2291 H2283 0.930 . S
C2291 C2292 1.355 . S
C2291 C2293 1.415 . S
C2292 C2291 1.355 . S
C2292 C2294 1.419 . S
C2293 C2288 1.425 . S
C2293 C2290 1.409 . S
C2293 C2291 1.415 . S
C2294 H2284 0.930 . S
C2294 C2292 1.419 . S
C2294 C2295 1.362 . S
C2295 H2285 0.930 . S
C2295 C2288 1.409 . S
C2295 C2294 1.362 . S
H2296 C2302 0.930 . S
H2297 C2305 0.930 . S
H2298 C2306 0.930 . S
H2299 C2307 0.930 . S
H2300 C2310 0.930 . S
H2301 C2311 0.930 . S
C2302 H2296 0.930 . S
C2302 C2303 1.355 . S
C2302 C2304 1.415 . S
C2303 C2302 1.355 . S
C2303 C2305 1.419 . S
C2304 C2302 1.415 . S
C2304 C2309 1.425 . S
C2304 C2311 1.409 . S
C2305 H2297 0.930 . S
C2305 C2303 1.419 . S
C2305 C2306 1.362 . S
C2306 H2298 0.930 . S
C2306 C2305 1.362 . S
C2306 C2309 1.409 . S
C2307 H2299 0.930 . S
C2307 C2308 1.355 . S
C2307 C2309 1.415 . S
C2308 C2307 1.355 . S
C2308 C2310 1.419 . S
C2309 C2304 1.425 . S
C2309 C2306 1.409 . S
C2309 C2307 1.415 . S
C2310 H2300 0.930 . S
C2310 C2308 1.419 . S
C2310 C2311 1.362 . S
C2311 H2301 0.930 . S
C2311 C2304 1.409 . S
C2311 C2310 1.362 . S
H2312 C2318 0.930 . S
H2313 C2321 0.930 . S
H2314 C2322 0.930 . S
H2315 C2323 0.930 . S
H2316 C2326 0.930 . S
H2317 C2327 0.930 . S
C2318 H2312 0.930 . S
C2318 C2319 1.355 . S
C2318 C2320 1.415 . S
C2319 C2318 1.355 . S
C2319 C2321 1.419 . S
C2320 C2318 1.415 . S
C2320 C2325 1.425 . S
C2320 C2327 1.409 . S
C2321 H2313 0.930 . S
C2321 C2319 1.419 . S
C2321 C2322 1.362 . S
C2322 H2314 0.930 . S
C2322 C2321 1.362 . S
C2322 C2325 1.409 . S
C2323 H2315 0.930 . S
C2323 C2324 1.355 . S
C2323 C2325 1.415 . S
C2324 C2323 1.355 . S
C2324 C2326 1.419 . S
C2325 C2320 1.425 . S
C2325 C2322 1.409 . S
C2325 C2323 1.415 . S
C2326 H2316 0.930 . S
C2326 C2324 1.419 . S
C2326 C2327 1.362 . S
C2327 H2317 0.930 . S
C2327 C2320 1.409 . S
C2327 C2326 1.362 . S
H2328 C2334 0.930 . S
H2329 C2337 0.929 . S
H2330 C2338 0.928 . S
H2331 C2339 0.930 1_565 S
H2332 C2342 0.930 . S
H2333 C2343 0.930 . S
C2334 H2328 0.930 . S
C2334 C2335 1.355 . S
C2334 C2336 1.415 . S
C2335 C2334 1.355 . S
C2335 C2337 1.419 . S
C2336 C2334 1.415 . S
C2336 C2341 1.425 . S
C2336 C2343 1.409 . S
C2337 H2329 0.929 . S
C2337 C2335 1.419 . S
C2337 C2338 1.364 1_545 S
C2338 H2330 0.928 . S
C2338 C2337 1.364 1_565 S
C2338 C2341 1.409 1_565 S
C2339 H2331 0.930 1_545 S
C2339 C2340 1.355 . S
C2339 C2341 1.415 . S
C2340 C2339 1.355 . S
C2340 C2342 1.419 . S
C2341 C2336 1.425 . S
C2341 C2338 1.409 1_545 S
C2341 C2339 1.415 . S
C2342 H2332 0.930 . S
C2342 C2340 1.419 . S
C2342 C2343 1.362 . S
C2343 H2333 0.930 . S
C2343 C2336 1.409 . S
C2343 C2342 1.362 . S
H2344 C2350 0.930 . S
H2345 C2353 0.930 . S
H2346 C2354 0.930 . S
H2347 C2355 0.930 . S
H2348 C2358 0.930 . S
H2349 C2359 0.930 . S
C2350 H2344 0.930 . S
C2350 C2351 1.355 . S
C2350 C2352 1.415 . S
C2351 C2350 1.355 . S
C2351 C2353 1.419 1_655 S
C2352 C2350 1.415 . S
C2352 C2357 1.425 . S
C2352 C2359 1.409 . S
C2353 H2345 0.930 . S
C2353 C2351 1.419 1_455 S
C2353 C2354 1.362 . S
C2354 H2346 0.930 . S
C2354 C2353 1.362 . S
C2354 C2357 1.409 1_455 S
C2355 H2347 0.930 . S
C2355 C2356 1.355 1_455 S
C2355 C2357 1.415 1_455 S
C2356 C2355 1.355 1_655 S
C2356 C2358 1.419 . S
C2357 C2352 1.425 . S
C2357 C2354 1.409 1_655 S
C2357 C2355 1.415 1_655 S
C2358 H2348 0.930 . S
C2358 C2356 1.419 . S
C2358 C2359 1.362 . S
C2359 H2349 0.930 . S
C2359 C2352 1.409 . S
C2359 C2358 1.362 . S
H2360 C2366 0.930 . S
H2361 C2369 0.930 . S
H2362 C2370 0.930 . S
H2363 C2371 0.930 . S
H2364 C2374 0.930 . S
H2365 C2375 0.930 . S
C2366 H2360 0.930 . S
C2366 C2367 1.355 . S
C2366 C2368 1.415 . S
C2367 C2366 1.355 . S
C2367 C2369 1.419 . S
C2368 C2366 1.415 . S
C2368 C2373 1.425 . S
C2368 C2375 1.409 . S
C2369 H2361 0.930 . S
C2369 C2367 1.419 . S
C2369 C2370 1.362 . S
C2370 H2362 0.930 . S
C2370 C2369 1.362 . S
C2370 C2373 1.409 . S
C2371 H2363 0.930 . S
C2371 C2372 1.355 . S
C2371 C2373 1.415 . S
C2372 C2371 1.355 . S
C2372 C2374 1.419 . S
C2373 C2368 1.425 . S
C2373 C2370 1.409 . S
C2373 C2371 1.415 . S
C2374 H2364 0.930 . S
C2374 C2372 1.419 . S
C2374 C2375 1.362 . S
C2375 H2365 0.930 . S
C2375 C2368 1.409 . S
C2375 C2374 1.362 . S
H2376 C2382 0.930 . S
H2377 C2385 0.930 . S
H2378 C2386 0.930 . S
H2379 C2387 0.930 . S
H2380 C2390 0.930 . S
H2381 C2391 0.930 . S
C2382 H2376 0.930 . S
C2382 C2383 1.355 . S
C2382 C2384 1.415 . S
C2383 C2382 1.355 . S
C2383 C2385 1.419 . S
C2384 C2382 1.415 . S
C2384 C2389 1.425 . S
C2384 C2391 1.409 . S
C2385 H2377 0.930 . S
C2385 C2383 1.419 . S
C2385 C2386 1.362 . S
C2386 H2378 0.930 . S
C2386 C2385 1.362 . S
C2386 C2389 1.409 . S
C2387 H2379 0.930 . S
C2387 C2388 1.355 . S
C2387 C2389 1.415 . S
C2388 C2387 1.355 . S
C2388 C2390 1.419 . S
C2389 C2384 1.425 . S
C2389 C2386 1.409 . S
C2389 C2387 1.415 . S
C2390 H2380 0.930 . S
C2390 C2388 1.419 . S
C2390 C2391 1.362 . S
C2391 H2381 0.930 . S
C2391 C2384 1.409 . S
C2391 C2390 1.362 . S
H2392 C2398 0.930 . S
H2393 C2401 0.930 . S
H2394 C2402 0.930 . S
H2395 C2403 0.930 . S
H2396 C2406 0.930 . S
H2397 C2407 0.930 . S
C2398 H2392 0.930 . S
C2398 C2399 1.355 . S
C2398 C2400 1.415 . S
C2399 C2398 1.355 . S
C2399 C2401 1.419 . S
C2400 C2398 1.415 . S
C2400 C2405 1.425 . S
C2400 C2407 1.409 . S
C2401 H2393 0.930 . S
C2401 C2399 1.419 . S
C2401 C2402 1.362 . S
C2402 H2394 0.930 . S
C2402 C2401 1.362 . S
C2402 C2405 1.409 . S
C2403 H2395 0.930 . S
C2403 C2404 1.355 . S
C2403 C2405 1.415 . S
C2404 C2403 1.355 . S
C2404 C2406 1.419 . S
C2405 C2400 1.425 . S
C2405 C2402 1.409 . S
C2405 C2403 1.415 . S
C2406 H2396 0.930 . S
C2406 C2404 1.419 . S
C2406 C2407 1.362 . S
C2407 H2397 0.930 . S
C2407 C2400 1.409 . S
C2407 C2406 1.362 . S
H2408 C2414 0.930 . S
H2409 C2417 0.930 . S
H2410 C2418 0.930 . S
H2411 C2419 0.930 . S
H2412 C2422 0.930 . S
H2413 C2423 0.930 . S
C2414 H2408 0.930 . S
C2414 C2415 1.355 . S
C2414 C2416 1.415 . S
C2415 C2414 1.355 . S
C2415 C2417 1.419 . S
C2416 C2414 1.415 . S
C2416 C2421 1.425 . S
C2416 C2423 1.409 . S
C2417 H2409 0.930 . S
C2417 C2415 1.419 . S
C2417 C2418 1.362 . S
C2418 H2410 0.930 . S
C2418 C2417 1.362 . S
C2418 C2421 1.409 . S
C2419 H2411 0.930 . S
C2419 C2420 1.355 . S
C2419 C2421 1.415 . S
C2420 C2419 1.355 . S
C2420 C2422 1.419 . S
C2421 C2416 1.425 . S
C2421 C2418 1.409 . S
C2421 C2419 1.415 . S
C2422 H2412 0.930 . S
C2422 C2420 1.419 . S
C2422 C2423 1.362 . S
C2423 H2413 0.930 . S
C2423 C2416 1.409 . S
C2423 C2422 1.362 . S
H2424 C2430 0.930 . S
H2425 C2433 0.930 . S
H2426 C2434 0.930 . S
H2427 C2435 0.930 . S
H2428 C2438 0.930 . S
H2429 C2439 0.930 . S
C2430 H2424 0.930 . S
C2430 C2431 1.355 . S
C2430 C2432 1.415 . S
C2431 C2430 1.355 . S
C2431 C2433 1.419 . S
C2432 C2430 1.415 . S
C2432 C2437 1.425 . S
C2432 C2439 1.409 . S
C2433 H2425 0.930 . S
C2433 C2431 1.419 . S
C2433 C2434 1.362 . S
C2434 H2426 0.930 . S
C2434 C2433 1.362 . S
C2434 C2437 1.409 . S
C2435 H2427 0.930 . S
C2435 C2436 1.355 . S
C2435 C2437 1.415 . S
C2436 C2435 1.355 . S
C2436 C2438 1.419 . S
C2437 C2432 1.425 . S
C2437 C2434 1.409 . S
C2437 C2435 1.415 . S
C2438 H2428 0.930 . S
C2438 C2436 1.419 . S
C2438 C2439 1.362 . S
C2439 H2429 0.930 . S
C2439 C2432 1.409 . S
C2439 C2438 1.362 . S
H2440 C2446 0.930 . S
H2441 C2449 0.930 . S
H2442 C2450 0.930 . S
H2443 C2451 0.930 . S
H2444 C2454 0.930 . S
H2445 C2455 0.930 . S
C2446 H2440 0.930 . S
C2446 C2447 1.355 . S
C2446 C2448 1.415 . S
C2447 C2446 1.355 . S
C2447 C2449 1.419 . S
C2448 C2446 1.415 . S
C2448 C2453 1.425 . S
C2448 C2455 1.409 . S
C2449 H2441 0.930 . S
C2449 C2447 1.419 . S
C2449 C2450 1.362 . S
C2450 H2442 0.930 . S
C2450 C2449 1.362 . S
C2450 C2453 1.409 . S
C2451 H2443 0.930 . S
C2451 C2452 1.355 . S
C2451 C2453 1.415 . S
C2452 C2451 1.355 . S
C2452 C2454 1.419 . S
C2453 C2448 1.425 . S
C2453 C2450 1.409 . S
C2453 C2451 1.415 . S
C2454 H2444 0.930 . S
C2454 C2452 1.419 . S
C2454 C2455 1.362 . S
C2455 H2445 0.930 . S
C2455 C2448 1.409 . S
C2455 C2454 1.362 . S
H2456 C2462 0.930 . S
H2457 C2465 0.930 . S
H2458 C2466 0.930 . S
H2459 C2467 0.930 . S
H2460 C2470 0.930 . S
H2461 C2471 0.930 . S
C2462 H2456 0.930 . S
C2462 C2463 1.355 . S
C2462 C2464 1.415 . S
C2463 C2462 1.355 . S
C2463 C2465 1.419 . S
C2464 C2462 1.415 . S
C2464 C2469 1.425 . S
C2464 C2471 1.409 . S
C2465 H2457 0.930 . S
C2465 C2463 1.419 . S
C2465 C2466 1.362 . S
C2466 H2458 0.930 . S
C2466 C2465 1.362 . S
C2466 C2469 1.409 . S
C2467 H2459 0.930 . S
C2467 C2468 1.355 . S
C2467 C2469 1.415 . S
C2468 C2467 1.355 . S
C2468 C2470 1.419 . S
C2469 C2464 1.425 . S
C2469 C2466 1.409 . S
C2469 C2467 1.415 . S
C2470 H2460 0.930 . S
C2470 C2468 1.419 . S
C2470 C2471 1.362 . S
C2471 H2461 0.930 . S
C2471 C2464 1.409 . S
C2471 C2470 1.362 . S
H2472 C2478 0.930 . S
H2473 C2481 0.923 1_455 S
H2474 C2482 0.930 . S
H2475 C2483 0.952 . S
H2476 C2486 0.930 . S
H2477 C2487 0.930 . S
C2478 H2472 0.930 . S
C2478 C2479 1.355 . S
C2478 C2480 1.415 . S
C2479 C2478 1.355 . S
C2479 C2481 1.457 . S
C2480 C2478 1.415 . S
C2480 C2485 1.425 . S
C2480 C2487 1.409 . S
C2481 H2473 0.923 1_655 S
C2481 C2479 1.457 . S
C2481 C2482 1.332 1_655 S
C2482 H2474 0.930 . S
C2482 C2481 1.332 1_455 S
C2482 C2485 1.409 1_455 S
C2483 H2475 0.952 . S
C2483 C2484 1.350 1_455 S
C2483 C2485 1.397 1_455 S
C2484 C2483 1.350 1_655 S
C2484 C2486 1.419 . S
C2485 C2480 1.425 . S
C2485 C2482 1.409 1_655 S
C2485 C2483 1.397 1_655 S
C2486 H2476 0.930 . S
C2486 C2484 1.419 . S
C2486 C2487 1.362 . S
C2487 H2477 0.930 . S
C2487 C2480 1.409 . S
C2487 C2486 1.362 . S
H2488 C2494 0.930 . S
H2489 C2497 0.930 . S
H2490 C2498 0.930 . S
H2491 C2499 0.930 . S
H2492 C2502 0.930 . S
H2493 C2503 0.930 . S
C2494 H2488 0.930 . S
C2494 C2495 1.355 . S
C2494 C2496 1.415 . S
C2495 C2494 1.355 . S
C2495 C2497 1.419 . S
C2496 C2494 1.415 . S
C2496 C2501 1.425 . S
C2496 C2503 1.409 . S
C2497 H2489 0.930 . S
C2497 C2495 1.419 . S
C2497 C2498 1.362 . S
C2498 H2490 0.930 . S
C2498 C2497 1.362 . S
C2498 C2501 1.409 . S
C2499 H2491 0.930 . S
C2499 C2500 1.355 . S
C2499 C2501 1.415 . S
C2500 C2499 1.355 . S
C2500 C2502 1.419 . S
C2501 C2496 1.425 . S
C2501 C2498 1.409 . S
C2501 C2499 1.415 . S
C2502 H2492 0.930 . S
C2502 C2500 1.419 . S
C2502 C2503 1.362 . S
C2503 H2493 0.930 . S
C2503 C2496 1.409 . S
C2503 C2502 1.362 . S
H2504 C2510 0.930 . S
H2505 C2513 0.930 . S
H2506 C2514 0.930 . S
H2507 C2515 0.910 1_565 S
H2508 C2518 0.930 . S
H2509 C2519 0.930 . S
C2510 H2504 0.930 . S
C2510 C2511 1.355 . S
C2510 C2512 1.415 . S
C2511 C2510 1.355 . S
C2511 C2513 1.419 . S
C2512 C2510 1.415 . S
C2512 C2517 1.425 . S
C2512 C2519 1.409 . S
C2513 H2505 0.930 . S
C2513 C2511 1.419 . S
C2513 C2514 1.362 . S
C2514 H2506 0.930 . S
C2514 C2513 1.362 . S
C2514 C2517 1.409 . S
C2515 H2507 0.910 1_545 S
C2515 C2516 1.355 . S
C2515 C2517 1.415 . S
C2516 C2515 1.355 . S
C2516 C2518 1.419 . S
C2517 C2512 1.425 . S
C2517 C2514 1.409 . S
C2517 C2515 1.415 . S
C2518 H2508 0.930 . S
C2518 C2516 1.419 . S
C2518 C2519 1.362 . S
C2519 H2509 0.930 . S
C2519 C2512 1.409 . S
C2519 C2518 1.362 . S
C1375 C7 1.538 . S
C1380 C857 1.502 . S
C1391 C23 1.614 . S
C1396 C901 1.575 . S
C1412 C981 1.559 . S
C1407 C37 1.562 . S
C1423 C35 1.592 1_545 S
C1428 C1025 1.576 . S
C1439 C9 1.615 1_455 S
C1444 C1105 1.531 . S
C1455 C21 1.631 . S
C1460 C1167 1.613 . S
C1471 C49 1.555 . S
C1476 C1087 1.534 . S
C1492 C1149 1.526 . S
C1487 C65 1.624 . S
C1508 C1043 1.540 . S
C1503 C79 1.587 1_565 S
C1519 C77 1.521 . S
C1524 C963 1.481 . S
C1540 C839 1.566 . S
C1535 C51 1.580 . S
C1551 C63 1.577 . S
C1556 C919 1.583 . S
C1567 C91 1.647 . S
C1572 C1229 1.626 . S
C1583 C107 1.670 . S
C1588 C1273 1.660 . S
C1604 C1353 1.645 . S
C1599 C121 1.695 . S
C1615 C119 1.623 . S
C1620 C299 1.575 . S
C1631 C93 1.686 . S
C1636 C343 1.667 . S
C1647 C105 1.610 . S
C1652 C423 1.571 . S
C1663 C133 1.608 . S
C1668 C361 1.595 . S
C1679 C149 1.667 . S
C1684 C405 1.614 . S
C1700 C281 1.569 . S
C1695 C163 1.687 . S
C1716 C1335 1.607 . S
C1711 C161 1.652 . S
C1732 C1211 1.565 . S
C1727 C135 1.685 . S
C1748 C1291 1.654 . S
C1743 C147 1.621 . S
C1759 C175 1.633 . S
C1764 C485 1.613 . S
C1775 C191 1.658 . S
C1780 C547 1.550 . S
C1791 C205 1.690 . S
C1796 C591 1.625 . S
C1807 C203 1.668 . S
C1812 C653 1.699 . S
C1828 C715 1.679 . S
C1823 C177 1.694 . S
C1844 C795 1.618 . S
C1839 C189 1.651 . S
C1860 C733 1.633 . S
C1855 C217 1.619 . S
C1876 C777 1.622 . S
C1871 C233 1.682 . S
C1887 C247 1.700 . S
C1892 C671 1.674 . S
C1908 C609 1.674 . S
C1903 C245 1.650 . S
C1919 C219 1.677 . S
C1924 C467 1.610 . S
C1940 C529 1.613 . S
C1935 C231 1.647 . S
C1956 C305 1.460 . S
C1951 C8 1.571 . S
C1967 C17 1.555 . S
C1972 C349 1.488 . S
C1988 C429 1.462 . S
C1983 C31 1.571 . S
C2004 C491 1.497 . S
C1999 C36 1.583 . S
C2020 C553 1.457 . S
C2015 C3 1.551 . S
C2036 C597 1.499 . S
C2031 C22 1.550 . S
C2047 C50 1.586 . S
C2052 C615 1.560 . S
C2063 C59 1.525 . S
C2068 C473 1.453 . S
C2079 C73 1.546 . S
C2084 C535 1.481 . S
C2095 C78 1.608 . S
C2100 C367 1.531 . S
C2116 C411 1.454 . S
C2111 C45 1.549 . S
C2127 C64 1.563 . S
C2132 C287 1.487 . S
C2148 C659 1.485 . S
C2143 C92 1.571 . S
C2159 C101 1.596 . S
C2164 C721 1.530 . S
C2175 C115 1.605 1_655 S
C2180 C801 1.522 . S
C2196 C863 1.459 . S
C2191 C120 1.502 . S
C2207 C87 1.550 . S
C2212 C907 1.481 . S
C2223 C106 1.467 . S
C2228 C987 1.434 . S
C2239 C134 1.464 . S
C2244 C969 1.367 . S
C2255 C143 1.485 . S
C2260 C845 1.383 . S
C2276 C925 1.500 . S
C2271 C157 1.578 . S
C2287 C162 1.599 . S
C2292 C739 1.541 . S
C2303 C129 1.609 . S
C2308 C783 1.547 . S
C2324 C677 1.506 . S
C2319 C148 1.598 . S
C2340 C1031 1.397 . S
C2335 C176 1.471 . S
C2351 C185 1.477 . S
C2356 C1111 1.383 . S
C2367 C199 1.562 . S
C2372 C1173 1.448 . S
C2388 C1235 1.483 . S
C2383 C204 1.576 . S
C2404 C1279 1.521 . S
C2399 C171 1.574 1_565 S
C2415 C190 1.606 . S
C2420 C1359 1.505 . S
C2431 C218 1.588 . S
C2436 C1341 1.527 . S
C2447 C227 1.534 1_565 S
C2452 C1217 1.514 . S
C2468 C1297 1.518 . S
C2463 C241 1.597 1_455 S
C2484 C1093 1.422 . S
C2479 C246 1.489 . S
C2500 C1155 1.525 . S
C2495 C213 1.568 . S
C2511 C232 1.480 . S
C2516 C1049 1.455 . S
