# Generated by pormake.
# Topology rtl, (3,6)-cn, num edge types: 1
# Building blocks:
#     Node 0, Type 0, BuildingBlock: INOVEN_clean_linker_0, # of connection points: 3
#     Node 1, Type 0, BuildingBlock: INOVEN_clean_linker_0, # of connection points: 3
#     Node 2, Type 0, BuildingBlock: INOVEN_clean_linker_0, # of connection points: 3
#     Node 3, Type 0, BuildingBlock: INOVEN_clean_linker_0, # of connection points: 3
#     Node 4, Type 1, BuildingBlock: CIFDUS_clean_sbu_1, # of connection points: 6
#     Node 5, Type 1, BuildingBlock: CIFDUS_clean_sbu_1, # of connection points: 6
#     Edge 6, Type (0, 1), BuildingBlock: KIFKEQ_clean_linker_1, # of connection points: 2
#     Edge 7, Type (0, 1), BuildingBlock: KIFKEQ_clean_linker_1, # of connection points: 2
#     Edge 8, Type (0, 1), BuildingBlock: KIFKEQ_clean_linker_1, # of connection points: 2
#     Edge 9, Type (0, 1), BuildingBlock: KIFKEQ_clean_linker_1, # of connection points: 2
#     Edge 10, Type (0, 1), BuildingBlock: KIFKEQ_clean_linker_1, # of connection points: 2
#     Edge 11, Type (0, 1), BuildingBlock: KIFKEQ_clean_linker_1, # of connection points: 2
#     Edge 12, Type (0, 1), BuildingBlock: KIFKEQ_clean_linker_1, # of connection points: 2
#     Edge 13, Type (0, 1), BuildingBlock: KIFKEQ_clean_linker_1, # of connection points: 2
#     Edge 14, Type (0, 1), BuildingBlock: KIFKEQ_clean_linker_1, # of connection points: 2
#     Edge 15, Type (0, 1), BuildingBlock: KIFKEQ_clean_linker_1, # of connection points: 2
#     Edge 16, Type (0, 1), BuildingBlock: KIFKEQ_clean_linker_1, # of connection points: 2
#     Edge 17, Type (0, 1), BuildingBlock: KIFKEQ_clean_linker_1, # of connection points: 2
# Relax obj value: 0.015
# Max RMSD: 0.113
# Mean RMSD: 0.083
data_MOF--net-rtl--node1-CIFDUS_clean_sbu_1--node2-INOVEN_clean_linker_0--edge1-KIFKEQ_clean_linker_1
_symmetry_space_group_name_H-M    P1
_symmetry_Int_Tables_number       1
_symmetry_cell_setting            triclinic
loop_
_symmetry_equiv_pos_as_xyz
'x, y, z'
_cell_length_a     35.064217
_cell_length_b     35.152987
_cell_length_c     22.419864
_cell_angle_alpha  91.199877
_cell_angle_beta   99.846897
_cell_angle_gamma 89.983007
loop_
_atom_site_label
_atom_site_type_symbol
_atom_site_fract_x
_atom_site_fract_y
_atom_site_fract_z
_atom_type_partial_charge
H0 H 0.19951 0.80709 0.97876 0.0
H1 H 0.11755 0.87408 0.0586 0.0
H2 H 0.20715 0.81314 0.17224 0.0
N3 N 0.23711 0.77952 0.0791 0.0
N4 N 0.25829 0.77088 0.1276 0.0
C5 C 0.18814 0.81769 0.01786 0.0
C6 C 0.15638 0.84281 0.01052 0.0
C7 C 0.2064 0.80647 0.07559 0.0
C8 C 0.19326 0.82134 0.12745 0.0
C9 C 0.16107 0.84581 0.12111 0.0
C10 C 0.1427 0.8558 0.06281 0.0
H11 H 0.75491 0.72102 0.71529 0.0
H12 H 0.68655 0.63584 0.60497 0.0
H13 H 0.74946 0.71908 0.52186 0.0
N14 N 0.78179 0.75502 0.62745 0.0
N15 N 0.80131 0.76381 0.5881 0.0
C16 C 0.74417 0.70822 0.67122 0.0
C17 C 0.71975 0.67618 0.6665 0.0
C18 C 0.75584 0.72337 0.61971 0.0
C19 C 0.74135 0.70714 0.56208 0.0
C20 C 0.71627 0.67544 0.55645 0.0
C21 C 0.70626 0.65989 0.60903 0.0
H22 H 0.84281 0.25643 0.90541 0.0
H23 H 0.92739 0.19917 0.03464 0.0
H24 H 0.84448 0.2737 0.09669 0.0
N25 N 0.80872 0.2945 0.9849 0.0
N26 N 0.8 0.31776 0.02327 0.0
C27 C 0.85537 0.25053 0.95188 0.0
C28 C 0.88737 0.22596 0.96418 0.0
C29 C 0.84026 0.26867 0.99924 0.0
C30 C 0.85645 0.26065 0.05979 0.0
C31 C 0.88797 0.23556 0.07291 0.0
C32 C 0.90349 0.21892 0.02482 0.0
H33 H 0.29149 0.35821 0.38205 0.0
H34 H 0.3568 0.44291 0.49837 0.0
H35 H 0.29138 0.35858 0.57383 0.0
N36 N 0.26179 0.32373 0.46621 0.0
N37 N 0.24158 0.31412 0.50421 0.0
C38 C 0.30083 0.37112 0.42642 0.0
C39 C 0.32577 0.40293 0.43344 0.0
C40 C 0.2877 0.35539 0.47637 0.0
C41 C 0.30086 0.37089 0.53493 0.0
C42 C 0.32623 0.40236 0.54318 0.0
C43 C 0.33785 0.41833 0.49209 0.0
O44 O 1.00614 0.0822 0.47965 0.0
Mn45 Mn 0.02302 0.0368 0.53969 0.0
O46 O 0.94707 0.06795 0.42884 0.0
Mn47 Mn 0.95438 0.01667 0.44048 0.0
O48 O 0.03966 0.9914 0.59974 0.0
O49 O 0.07496 0.06391 0.561 0.0
Mn50 Mn 0.09221 0.05545 0.63822 0.0
O51 O 1.0028 0.06746 0.60947 0.0
O52 O 0.09986 1.004 0.6468 0.0
O53 O 0.04357 1.00593 0.47031 0.0
O54 O 0.99074 0.99355 0.40007 0.0
O55 O 0.1293 0.08513 0.61387 0.0
O56 O 0.05594 0.07711 0.68052 0.0
C57 C 0.94006 0.9893 0.51738 0.0
C58 C 0.97481 0.09125 0.4438 0.0
C59 C 0.07138 0.98139 0.63363 0.0
C60 C 0.10582 0.08469 0.56259 0.0
C61 C 0.01953 0.08031 0.66174 0.0
C62 C 0.02719 0.99135 0.41904 0.0
O63 O 0.97103 1.00982 0.51837 0.0
O64 O 0.91691 0.98795 0.4658 0.0
O65 O 0.55358 0.5595 0.13187 0.0
Mn66 Mn 0.52099 0.53894 0.05003 0.0
O67 O 0.56433 0.50762 0.18956 0.0
Mn68 Mn 0.54186 0.47189 0.13154 0.0
O69 O 0.48804 0.51764 0.96862 0.0
O70 O 0.49287 0.58988 0.03991 0.0
Mn71 Mn 0.49511 0.60489 0.96585 0.0
O72 O 0.56539 0.55669 1.0034 0.0
O73 O 0.46734 0.56898 0.914 0.0
O74 O 0.47605 0.52182 0.09622 0.0
O75 O 0.48991 0.46287 0.12736 0.0
O76 O 0.46877 0.64254 0.99851 0.0
O77 O 0.54625 0.6118 0.95933 0.0
C78 C 0.57067 0.45755 0.05887 0.0
C79 C 0.56746 0.54338 0.18206 0.0
C80 C 0.46805 0.5331 0.92177 0.0
C81 C 0.47262 0.62054 0.04472 0.0
C82 C 0.57171 0.58645 0.97393 0.0
C83 C 0.46642 0.49028 0.11773 0.0
O84 O 0.54982 0.4882 0.06055 0.0
O85 O 0.5716 0.43519 0.10426 0.0
H86 H 0.1886 0.29741 0.57073 0.0
H87 H 0.23714 0.25817 0.41647 0.0
H88 H 0.14663 0.24123 0.56151 0.0
H89 H 0.1954 0.2016 0.40723 0.0
H90 H 0.16635 0.08648 0.50321 0.0
H91 H 0.19448 0.14478 0.47257 0.0
H92 H 0.09149 0.20625 0.49702 0.0
H93 H 0.06328 0.14738 0.52717 0.0
C94 C 0.18983 0.27689 0.53439 0.0
C95 C 0.21605 0.28214 0.49465 0.0
C96 C 0.16558 0.2449 0.52862 0.0
C97 C 0.16735 0.21697 0.48326 0.0
C98 C 0.19322 0.22258 0.44256 0.0
C99 C 0.21714 0.25497 0.44787 0.0
C100 C 0.14877 0.11196 0.49834 0.0
C101 C 0.11248 0.1123 0.51687 0.0
C102 C 0.16507 0.14556 0.48139 0.0
C103 C 0.14562 0.18041 0.48364 0.0
C104 C 0.10746 0.17995 0.49569 0.0
C105 C 0.09093 0.1461 0.5118 0.0
H106 H 0.26704 0.7184 0.03986 0.0
H107 H 0.31718 0.76022 0.21816 0.0
H108 H 0.32039 0.67363 0.04154 0.0
H109 H 0.37137 0.71549 0.21973 0.0
H110 H 0.48073 0.67946 0.12498 0.0
H111 H 0.42623 0.7116 0.15854 0.0
H112 H 0.35273 0.61569 0.09421 0.0
H113 H 0.40778 0.58335 0.06158 0.0
C114 C 0.2894 0.71786 0.07964 0.0
C115 C 0.28823 0.74317 0.12881 0.0
C116 C 0.31981 0.69186 0.08093 0.0
C117 C 0.35011 0.69074 0.13096 0.0
C118 C 0.3485 0.71557 0.18057 0.0
C119 C 0.31761 0.74116 0.1797 0.0
C120 C 0.45357 0.66421 0.1217 0.0
C121 C 0.44867 0.62868 0.09142 0.0
C122 C 0.42211 0.68286 0.14022 0.0
C123 C 0.38488 0.66661 0.12781 0.0
C124 C 0.38094 0.62921 0.10366 0.0
C125 C 0.41265 0.6103 0.08607 0.0
H126 H 0.80676 0.82151 0.67305 0.0
H127 H 0.85369 0.77848 0.51946 0.0
H128 H 0.84906 0.87756 0.67895 0.0
H129 H 0.89627 0.8341 0.52546 0.0
H130 H 0.98155 0.92661 0.55599 0.0
H131 H 0.95238 0.86905 0.58885 0.0
H132 H 0.85033 0.93307 0.61013 0.0
H133 H 0.87939 0.99008 0.57668 0.0
C134 C 0.82651 0.82379 0.64109 0.0
C135 C 0.82701 0.79568 0.59548 0.0
C136 C 0.85076 0.85586 0.64449 0.0
C137 C 0.87639 0.86021 0.60308 0.0
C138 C 0.87751 0.8314 0.55884 0.0
C139 C 0.85292 0.79974 0.55492 0.0
C140 C 0.9539 0.92879 0.5712 0.0
C141 C 0.93289 0.96289 0.56445 0.0
C142 C 0.93682 0.89567 0.58889 0.0
C143 C 0.89865 0.89627 0.60089 0.0
C144 C 0.87974 0.93151 0.60139 0.0
C145 C 0.89657 0.96438 0.58284 0.0
H146 H 0.78541 0.37471 0.09466 0.0
H147 H 0.7422 0.31833 0.92402 0.0
H148 H 0.72924 0.41679 0.08106 0.0
H149 H 0.6856 0.36041 0.90997 0.0
H150 H 0.6348 0.49796 0.04631 0.0
H151 H 0.69369 0.46822 0.02238 0.0
H152 H 0.62855 0.36652 0.96045 0.0
H153 H 0.5702 0.39633 0.98446 0.0
C154 C 0.76404 0.37182 0.05377 0.0
C155 C 0.76816 0.34335 0.01074 0.0
C156 C 0.73201 0.39612 0.04555 0.0
C157 C 0.70286 0.39231 0.99412 0.0
C158 C 0.70744 0.3642 0.95009 0.0
C159 C 0.73987 0.34009 0.95809 0.0
C160 C 0.63268 0.47018 0.02409 0.0
C161 C 0.59783 0.44959 0.01671 0.0
C162 C 0.66659 0.45276 0.01154 0.0
C163 C 0.66613 0.41455 0.99088 0.0
C164 C 0.63017 0.3959 0.97621 0.0
C165 C 0.59648 0.41317 0.98936 0.0
H166 H 0.19845 0.8897 0.21617 0.0
H167 H 0.08826 0.83787 0.14479 0.0
H168 H 0.16876 0.92456 0.29258 0.0
H169 H 0.05887 0.87125 0.22162 0.0
H170 H 1.00573 0.9724 0.29976 0.0
H171 H 0.04059 0.93535 0.23483 0.0
H172 H 0.13677 0.92441 0.38203 0.0
H173 H 0.10171 0.96287 0.44767 0.0
C174 C 0.16813 0.88504 0.21794 0.0
C175 C 0.14554 0.86135 0.17436 0.0
C176 C 0.15108 0.90499 0.26162 0.0
C177 C 0.11114 0.90145 0.26262 0.0
C178 C 0.08939 0.87569 0.22128 0.0
C179 C 0.10626 0.8562 0.17753 0.0
C180 C 0.0343 0.96221 0.31873 0.0
C181 C 0.05062 0.97041 0.37942 0.0
C182 C 0.0543 0.94057 0.28135 0.0
C183 C 0.09127 0.92599 0.30329 0.0
C184 C 0.10832 0.93508 0.36353 0.0
C185 C 0.08822 0.95711 0.4012 0.0
H186 H 0.68975 0.71474 0.75456 0.0
H187 H 0.7204 0.60185 0.70097 0.0
H188 H 0.6629 0.68872 0.83803 0.0
H189 H 0.69532 0.57548 0.78653 0.0
H190 H 0.59512 0.54157 0.8874 0.0
H191 H 0.63773 0.56129 0.81845 0.0
H192 H 0.67036 0.66131 0.93142 0.0
H193 H 0.62551 0.64246 0.99747 0.0
C194 C 0.69156 0.68436 0.76163 0.0
C195 C 0.707 0.66036 0.72104 0.0
C196 C 0.67638 0.66927 0.80994 0.0
C197 C 0.6768 0.62973 0.81978 0.0
C198 C 0.69368 0.60591 0.7802 0.0
C199 C 0.70827 0.62101 0.73121 0.0
C200 C 0.61262 0.56697 0.89853 0.0
C201 C 0.60731 0.59038 0.94786 0.0
C202 C 0.63702 0.57854 0.85878 0.0
C203 C 0.65704 0.61359 0.86806 0.0
C204 C 0.65454 0.63487 0.92124 0.0
C205 C 0.62948 0.62372 0.96004 0.0
H206 H 0.84786 0.21044 0.15851 0.0
H207 H 0.96364 0.23539 0.12997 0.0
H208 H 0.87355 0.18458 0.25681 0.0
H209 H 0.98979 0.2115 0.23011 0.0
H210 H 0.02145 0.11359 0.36607 0.0
H211 H 1.00268 0.15575 0.28133 0.0
H212 H 0.90185 0.1902 0.35619 0.0
H213 H 0.9196 0.14573 0.43815 0.0
C214 C 0.87885 0.21135 0.17416 0.0
C215 C 0.90368 0.2248 0.13637 0.0
C216 C 0.89379 0.19668 0.231 0.0
C217 C 0.93408 0.19565 0.25235 0.0
C218 C 0.95875 0.21088 0.21533 0.0
C219 C 0.94378 0.2249 0.15794 0.0
C220 C 0.99612 0.13135 0.36546 0.0
C221 C 0.97209 0.12658 0.40878 0.0
C222 C 0.98506 0.15553 0.3165 0.0
C223 C 0.94996 0.17598 0.31031 0.0
C224 C 0.92826 0.17405 0.35764 0.0
C225 C 0.93884 0.14918 0.40561 0.0
H226 H 0.33292 0.47741 0.5769 0.0
H227 H 0.35489 0.36494 0.64829 0.0
H228 H 0.36544 0.50529 0.67162 0.0
H229 H 0.38607 0.39309 0.74548 0.0
H230 H 0.48172 0.46063 0.88016 0.0
H231 H 0.44407 0.42646 0.79284 0.0
H232 H 0.36046 0.51769 0.77232 0.0
H233 H 0.39876 0.55206 0.85667 0.0
C234 C 0.34434 0.45857 0.61323 0.0
C235 C 0.34154 0.41889 0.6046 0.0
C236 C 0.36269 0.47461 0.66815 0.0
C237 C 0.37848 0.45158 0.71684 0.0
C238 C 0.37469 0.41179 0.70896 0.0
C239 C 0.35633 0.39563 0.65351 0.0
C240 C 0.45509 0.47304 0.8571 0.0
C241 C 0.4436 0.50933 0.87453 0.0
C242 C 0.43338 0.45344 0.80719 0.0
C243 C 0.39947 0.46958 0.77438 0.0
C244 C 0.38697 0.5048 0.7948 0.0
C245 C 0.40887 0.52449 0.84358 0.0
H246 H 0.71606 0.60099 0.52075 0.0
H247 H 0.67763 0.71166 0.45658 0.0
H248 H 0.68179 0.57158 0.42768 0.0
H249 H 0.6418 0.68215 0.36358 0.0
H250 H 0.60266 0.61395 0.18236 0.0
H251 H 0.64161 0.64755 0.26901 0.0
H252 H 0.61704 0.55812 0.38637 0.0
H253 H 0.57977 0.52449 0.30066 0.0
C254 C 0.70031 0.61904 0.48645 0.0
C255 C 0.69931 0.65858 0.49619 0.0
C256 C 0.68031 0.60219 0.43317 0.0
C257 C 0.6581 0.62429 0.3883 0.0
C258 C 0.65857 0.66414 0.39683 0.0
C259 C 0.67909 0.6811 0.45014 0.0
C260 C 0.60555 0.60167 0.22681 0.0
C261 C 0.58846 0.56624 0.23425 0.0
C262 C 0.62785 0.62093 0.27656 0.0
C263 C 0.6333 0.60528 0.33484 0.0
C264 C 0.61479 0.57061 0.34216 0.0
C265 C 0.59301 0.55135 0.29278 0.0
H266 H 0.84997 0.18736 0.86277 0.0
H267 H 0.96341 0.22248 0.95327 0.0
H268 H 0.87935 0.15168 0.78716 0.0
H269 H 0.99268 0.18819 0.87742 0.0
H270 H 0.03871 0.08947 0.7838 0.0
H271 H 1.00494 0.12474 0.85246 0.0
H272 H 0.91467 0.15265 0.70337 0.0
H273 H 0.94834 0.11574 0.63413 0.0
C274 C 0.88113 0.18794 0.8659 0.0
C275 C 0.90441 0.20733 0.91443 0.0
C276 C 0.89801 0.16753 0.82253 0.0
C277 C 0.93855 0.16634 0.82651 0.0
C278 C 0.96149 0.18732 0.87366 0.0
C279 C 0.94472 0.20725 0.91711 0.0
C280 C 1.01162 0.10302 0.76535 0.0
C281 C 0.99653 0.10005 0.70314 0.0
C282 C 0.99229 0.12361 0.80489 0.0
C283 C 0.95737 0.14246 0.7836 0.0
C284 C 0.94146 0.13854 0.72157 0.0
C285 C 0.96078 0.11744 0.68178 0.0
H286 H 0.28731 0.40877 0.31526 0.0
H287 H 0.39665 0.43571 0.4299 0.0
H288 H 0.3115 0.43599 0.22914 0.0
H289 H 0.41911 0.46494 0.34517 0.0
H290 H 0.41543 0.43153 0.10464 0.0
H291 H 0.37303 0.41514 0.17631 0.0
H292 H 0.39891 0.52316 0.26923 0.0
H293 H 0.44049 0.54007 0.19618 0.0
C294 C 0.31629 0.42053 0.32251 0.0
C295 C 0.33976 0.42005 0.38028 0.0
C296 C 0.32987 0.43656 0.27321 0.0
C297 C 0.36682 0.45328 0.28087 0.0
C298 C 0.39008 0.45319 0.33835 0.0
C299 C 0.377 0.43643 0.3871 0.0
C300 C 0.41045 0.45254 0.13851 0.0
C301 C 0.43106 0.48711 0.1448 0.0
C302 C 0.38634 0.44309 0.17967 0.0
C303 C 0.38314 0.46768 0.22868 0.0
C304 C 0.40105 0.50367 0.23188 0.0
C305 C 0.42448 0.51351 0.18975 0.0
H306 H 0.12254 0.91224 0.9807 0.0
H307 H 0.14871 0.80479 0.89913 0.0
H308 H 0.09353 0.93477 0.88185 0.0
H309 H 0.12185 0.82904 0.79926 0.0
H310 H 0.12972 0.92995 0.65193 0.0
H311 H 0.14471 0.88857 0.73914 0.0
H312 H 0.03515 0.91702 0.79123 0.0
H313 H 0.01962 0.95755 0.70263 0.0
C314 C 0.12164 0.89297 0.94222 0.0
C315 C 0.13801 0.85631 0.94899 0.0
C316 C 0.10503 0.90613 0.88524 0.0
C317 C 0.10501 0.88353 0.8329 0.0
C318 C 0.12132 0.84701 0.83896 0.0
C319 C 0.13716 0.83336 0.89632 0.0
C320 C 0.10801 0.92579 0.68027 0.0
C321 C 0.07341 0.94674 0.6703 0.0
C322 C 0.11668 0.90227 0.7304 0.0
C323 C 0.09132 0.89998 0.77236 0.0
C324 C 0.05528 0.91842 0.75967 0.0
C325 C 0.04618 0.94124 0.70859 0.0
loop_
_geom_bond_atom_site_label_1
_geom_bond_atom_site_label_2
_geom_bond_distance
_geom_bond_site_symmetry_2
_ccdc_geom_bond_type
H0 C5 0.929 1_556 S
H1 C10 0.931 . S
H2 C8 0.930 . S
N3 N4 1.234 . S
N3 C7 1.453 . S
N4 N3 1.234 . S
C5 H0 0.929 1_554 S
C5 C6 1.373 . S
C5 C7 1.368 . S
C6 C5 1.373 . S
C6 C10 1.397 . S
C7 N3 1.453 . S
C7 C5 1.368 . S
C7 C8 1.373 . S
C8 H2 0.930 . S
C8 C7 1.373 . S
C8 C9 1.371 . S
C9 C8 1.371 . S
C9 C10 1.383 . S
C10 H1 0.931 . S
C10 C6 1.397 . S
C10 C9 1.383 . S
H11 C16 0.929 . S
H12 C21 0.931 . S
H13 C19 0.930 . S
N14 N15 1.234 . S
N14 C18 1.453 . S
N15 N14 1.234 . S
C16 H11 0.929 . S
C16 C17 1.373 . S
C16 C18 1.368 . S
C17 C16 1.373 . S
C17 C21 1.397 . S
C18 N14 1.453 . S
C18 C16 1.368 . S
C18 C19 1.373 . S
C19 H13 0.930 . S
C19 C18 1.373 . S
C19 C20 1.371 . S
C20 C19 1.371 . S
C20 C21 1.383 . S
C21 H12 0.931 . S
C21 C17 1.397 . S
C21 C20 1.383 . S
H22 C27 0.929 . S
H23 C32 0.931 . S
H24 C30 0.930 . S
N25 N26 1.234 1_556 S
N25 C29 1.453 . S
N26 N25 1.234 1_554 S
C27 H22 0.929 . S
C27 C28 1.373 . S
C27 C29 1.368 . S
C28 C27 1.373 . S
C28 C32 1.397 1_556 S
C29 N25 1.453 . S
C29 C27 1.368 . S
C29 C30 1.373 1_556 S
C30 H24 0.930 . S
C30 C29 1.373 1_554 S
C30 C31 1.371 . S
C31 C30 1.371 . S
C31 C32 1.383 . S
C32 H23 0.931 . S
C32 C28 1.397 1_554 S
C32 C31 1.383 . S
H33 C38 0.929 . S
H34 C43 0.931 . S
H35 C41 0.930 . S
N36 N37 1.234 . S
N36 C40 1.453 . S
N37 N36 1.234 . S
C38 H33 0.929 . S
C38 C39 1.373 . S
C38 C40 1.368 . S
C39 C38 1.373 . S
C39 C43 1.397 . S
C40 N36 1.453 . S
C40 C38 1.368 . S
C40 C41 1.373 . S
C41 H35 0.930 . S
C41 C40 1.373 . S
C41 C42 1.371 . S
C42 C41 1.371 . S
C42 C43 1.383 . S
C43 H34 0.931 . S
C43 C39 1.397 . S
C43 C42 1.383 . S
O44 Mn45 2.163 1_655 S
O44 C58 1.244 . S
Mn45 O44 2.163 1_455 S
Mn45 O48 2.160 1_545 S
Mn45 O49 2.221 . S
Mn45 O51 2.163 1_455 S
Mn45 O53 2.160 1_545 S
Mn45 O63 2.221 1_445 S
O46 Mn47 2.087 1_545 S
O46 C58 1.256 . S
Mn47 O46 2.087 1_565 S
Mn47 O54 2.089 1_655 S
Mn47 O63 2.290 . S
Mn47 O64 2.251 . S
O48 Mn45 2.160 1_565 S
O48 C59 1.239 . S
O49 Mn45 2.221 . S
O49 Mn50 2.290 . S
O49 C60 1.278 . S
Mn50 O49 2.290 . S
Mn50 O52 2.089 . S
Mn50 O55 2.251 . S
Mn50 O56 2.087 . S
O51 Mn45 2.163 1_655 S
O51 C61 1.244 . S
O52 Mn50 2.089 . S
O52 C59 1.256 1_545 S
O53 Mn45 2.160 1_565 S
O53 C62 1.239 . S
O54 Mn47 2.089 1_455 S
O54 C62 1.256 . S
O55 Mn50 2.251 . S
O55 C60 1.241 . S
O56 Mn50 2.087 . S
O56 C61 1.256 1_455 S
C57 O63 1.278 . S
C57 O64 1.241 . S
C58 O44 1.244 . S
C58 O46 1.256 . S
C59 O48 1.239 . S
C59 O52 1.256 1_565 S
C60 O49 1.278 . S
C60 O55 1.241 . S
C61 O51 1.244 . S
C61 O56 1.256 1_655 S
C62 O53 1.239 . S
C62 O54 1.256 . S
O63 Mn45 2.221 1_665 S
O63 Mn47 2.290 . S
O63 C57 1.278 . S
O64 Mn47 2.251 . S
O64 C57 1.241 . S
O65 Mn66 2.163 . S
O65 C79 1.244 . S
Mn66 O65 2.163 . S
Mn66 O69 2.160 1_554 S
Mn66 O70 2.221 . S
Mn66 O72 2.163 1_554 S
Mn66 O74 2.160 . S
Mn66 O84 2.221 . S
O67 Mn68 2.087 . S
O67 C79 1.256 . S
Mn68 O67 2.087 . S
Mn68 O75 2.089 . S
Mn68 O84 2.290 . S
Mn68 O85 2.251 . S
O69 Mn66 2.160 1_556 S
O69 C80 1.239 . S
O70 Mn66 2.221 . S
O70 Mn71 2.290 1_554 S
O70 C81 1.278 . S
Mn71 O70 2.290 1_556 S
Mn71 O73 2.089 . S
Mn71 O76 2.251 . S
Mn71 O77 2.087 . S
O72 Mn66 2.163 1_556 S
O72 C82 1.244 . S
O73 Mn71 2.089 . S
O73 C80 1.256 . S
O74 Mn66 2.160 . S
O74 C83 1.239 . S
O75 Mn68 2.089 . S
O75 C83 1.256 . S
O76 Mn71 2.251 . S
O76 C81 1.241 1_556 S
O77 Mn71 2.087 . S
O77 C82 1.256 . S
C78 O84 1.278 . S
C78 O85 1.241 . S
C79 O65 1.244 . S
C79 O67 1.256 . S
C80 O69 1.239 . S
C80 O73 1.256 . S
C81 O70 1.278 . S
C81 O76 1.241 1_554 S
C82 O72 1.244 . S
C82 O77 1.256 . S
C83 O74 1.239 . S
C83 O75 1.256 . S
O84 Mn66 2.221 . S
O84 Mn68 2.290 . S
O84 C78 1.278 . S
O85 Mn68 2.251 . S
O85 C78 1.241 . S
H86 C94 0.950 . S
H87 C99 0.950 . S
H88 C96 0.950 . S
H89 C98 0.950 . S
H90 C100 0.950 . S
H91 C102 0.950 . S
H92 C104 0.950 . S
H93 C105 0.950 . S
C94 H86 0.950 . S
C94 C95 1.386 . S
C94 C96 1.391 . S
C95 C94 1.386 . S
C95 C99 1.393 . S
C96 H88 0.950 . S
C96 C94 1.391 . S
C96 C97 1.400 . S
C97 C96 1.400 . S
C97 C98 1.398 . S
C97 C103 1.491 . S
C98 H89 0.950 . S
C98 C97 1.398 . S
C98 C99 1.391 . S
C99 H87 0.950 . S
C99 C95 1.393 . S
C99 C98 1.391 . S
C100 H90 0.950 . S
C100 C101 1.386 . S
C100 C102 1.391 . S
C101 C100 1.386 . S
C101 C105 1.393 . S
C102 H91 0.950 . S
C102 C100 1.391 . S
C102 C103 1.400 . S
C103 C97 1.491 . S
C103 C102 1.400 . S
C103 C104 1.398 . S
C104 H92 0.950 . S
C104 C103 1.398 . S
C104 C105 1.391 . S
C105 H93 0.950 . S
C105 C101 1.393 . S
C105 C104 1.391 . S
H106 C114 0.950 . S
H107 C119 0.950 . S
H108 C116 0.950 1_556 S
H109 C118 0.950 . S
H110 C120 0.950 . S
H111 C122 0.950 . S
H112 C124 0.950 1_556 S
H113 C125 0.950 1_556 S
C114 H106 0.950 . S
C114 C115 1.386 . S
C114 C116 1.391 . S
C115 C114 1.386 . S
C115 C119 1.393 . S
C116 H108 0.950 1_554 S
C116 C114 1.391 . S
C116 C117 1.400 . S
C117 C116 1.400 . S
C117 C118 1.398 . S
C117 C123 1.491 . S
C118 H109 0.950 . S
C118 C117 1.398 . S
C118 C119 1.391 . S
C119 H107 0.950 . S
C119 C115 1.393 . S
C119 C118 1.391 . S
C120 H110 0.950 . S
C120 C121 1.386 . S
C120 C122 1.391 . S
C121 C120 1.386 . S
C121 C125 1.393 . S
C122 H111 0.950 . S
C122 C120 1.391 . S
C122 C123 1.400 . S
C123 C117 1.491 . S
C123 C122 1.400 . S
C123 C124 1.398 . S
C124 H112 0.950 1_554 S
C124 C123 1.398 . S
C124 C125 1.391 . S
C125 H113 0.950 1_554 S
C125 C121 1.393 . S
C125 C124 1.391 . S
H126 C134 0.950 . S
H127 C139 0.950 . S
H128 C136 0.950 . S
H129 C138 0.950 . S
H130 C140 0.950 . S
H131 C142 0.950 . S
H132 C144 0.950 . S
H133 C145 0.950 . S
C134 H126 0.950 . S
C134 C135 1.386 . S
C134 C136 1.391 . S
C135 C134 1.386 . S
C135 C139 1.393 . S
C136 H128 0.950 . S
C136 C134 1.391 . S
C136 C137 1.400 . S
C137 C136 1.400 . S
C137 C138 1.398 . S
C137 C143 1.491 . S
C138 H129 0.950 . S
C138 C137 1.398 . S
C138 C139 1.391 . S
C139 H127 0.950 . S
C139 C135 1.393 . S
C139 C138 1.391 . S
C140 H130 0.950 . S
C140 C141 1.386 . S
C140 C142 1.391 . S
C141 C140 1.386 . S
C141 C145 1.393 . S
C142 H131 0.950 . S
C142 C140 1.391 . S
C142 C143 1.400 . S
C143 C137 1.491 . S
C143 C142 1.400 . S
C143 C144 1.398 . S
C144 H132 0.950 . S
C144 C143 1.398 . S
C144 C145 1.391 . S
C145 H133 0.950 . S
C145 C141 1.393 . S
C145 C144 1.391 . S
H146 C154 0.950 . S
H147 C159 0.950 . S
H148 C156 0.950 . S
H149 C158 0.950 . S
H150 C160 0.950 . S
H151 C162 0.950 . S
H152 C164 0.950 . S
H153 C165 0.950 . S
C154 H146 0.950 . S
C154 C155 1.386 . S
C154 C156 1.391 . S
C155 C154 1.386 . S
C155 C159 1.393 1_554 S
C156 H148 0.950 . S
C156 C154 1.391 . S
C156 C157 1.400 . S
C157 C156 1.400 . S
C157 C158 1.398 1_554 S
C157 C163 1.491 . S
C158 H149 0.950 . S
C158 C157 1.398 1_556 S
C158 C159 1.391 . S
C159 H147 0.950 . S
C159 C155 1.393 1_556 S
C159 C158 1.391 . S
C160 H150 0.950 . S
C160 C161 1.386 1_556 S
C160 C162 1.391 . S
C161 C160 1.386 1_554 S
C161 C165 1.393 . S
C162 H151 0.950 . S
C162 C160 1.391 . S
C162 C163 1.400 1_556 S
C163 C157 1.491 . S
C163 C162 1.400 1_554 S
C163 C164 1.398 . S
C164 H152 0.950 . S
C164 C163 1.398 . S
C164 C165 1.391 . S
C165 H153 0.950 . S
C165 C161 1.393 . S
C165 C164 1.391 . S
H166 C174 0.950 . S
H167 C179 0.950 . S
H168 C176 0.950 . S
H169 C178 0.950 . S
H170 C180 0.950 . S
H171 C182 0.950 . S
H172 C184 0.950 . S
H173 C185 0.950 . S
C174 H166 0.950 . S
C174 C175 1.386 . S
C174 C176 1.391 . S
C175 C174 1.386 . S
C175 C179 1.393 . S
C176 H168 0.950 . S
C176 C174 1.391 . S
C176 C177 1.400 . S
C177 C176 1.400 . S
C177 C178 1.398 . S
C177 C183 1.491 . S
C178 H169 0.950 . S
C178 C177 1.398 . S
C178 C179 1.391 . S
C179 H167 0.950 . S
C179 C175 1.393 . S
C179 C178 1.391 . S
C180 H170 0.950 . S
C180 C181 1.386 . S
C180 C182 1.391 . S
C181 C180 1.386 . S
C181 C185 1.393 . S
C182 H171 0.950 . S
C182 C180 1.391 . S
C182 C183 1.400 . S
C183 C177 1.491 . S
C183 C182 1.400 . S
C183 C184 1.398 . S
C184 H172 0.950 . S
C184 C183 1.398 . S
C184 C185 1.391 . S
C185 H173 0.950 . S
C185 C181 1.393 . S
C185 C184 1.391 . S
H186 C194 0.950 . S
H187 C199 0.950 . S
H188 C196 0.950 . S
H189 C198 0.950 . S
H190 C200 0.950 . S
H191 C202 0.950 . S
H192 C204 0.950 . S
H193 C205 0.950 . S
C194 H186 0.950 . S
C194 C195 1.386 . S
C194 C196 1.391 . S
C195 C194 1.386 . S
C195 C199 1.393 . S
C196 H188 0.950 . S
C196 C194 1.391 . S
C196 C197 1.400 . S
C197 C196 1.400 . S
C197 C198 1.398 . S
C197 C203 1.491 . S
C198 H189 0.950 . S
C198 C197 1.398 . S
C198 C199 1.391 . S
C199 H187 0.950 . S
C199 C195 1.393 . S
C199 C198 1.391 . S
C200 H190 0.950 . S
C200 C201 1.386 . S
C200 C202 1.391 . S
C201 C200 1.386 . S
C201 C205 1.393 . S
C202 H191 0.950 . S
C202 C200 1.391 . S
C202 C203 1.400 . S
C203 C197 1.491 . S
C203 C202 1.400 . S
C203 C204 1.398 . S
C204 H192 0.950 . S
C204 C203 1.398 . S
C204 C205 1.391 . S
C205 H193 0.950 . S
C205 C201 1.393 . S
C205 C204 1.391 . S
H206 C214 0.950 . S
H207 C219 0.950 . S
H208 C216 0.950 . S
H209 C218 0.950 . S
H210 C220 0.972 . S
H211 C222 0.950 . S
H212 C224 0.950 . S
H213 C225 0.950 . S
C214 H206 0.950 . S
C214 C215 1.386 . S
C214 C216 1.391 . S
C215 C214 1.386 . S
C215 C219 1.393 . S
C216 H208 0.950 . S
C216 C214 1.391 . S
C216 C217 1.400 . S
C217 C216 1.400 . S
C217 C218 1.398 . S
C217 C223 1.491 . S
C218 H209 0.950 . S
C218 C217 1.398 . S
C218 C219 1.391 . S
C219 H207 0.950 . S
C219 C215 1.393 . S
C219 C218 1.391 . S
C220 H210 0.972 . S
C220 C221 1.386 . S
C220 C222 1.391 . S
C221 C220 1.386 . S
C221 C225 1.393 . S
C222 H211 0.950 . S
C222 C220 1.391 . S
C222 C223 1.400 . S
C223 C217 1.491 . S
C223 C222 1.400 . S
C223 C224 1.398 . S
C224 H212 0.950 . S
C224 C223 1.398 . S
C224 C225 1.391 . S
C225 H213 0.950 . S
C225 C221 1.393 . S
C225 C224 1.391 . S
H226 C234 0.950 . S
H227 C239 0.950 . S
H228 C236 0.950 . S
H229 C238 0.950 . S
H230 C240 0.950 . S
H231 C242 0.950 . S
H232 C244 0.950 . S
H233 C245 0.950 . S
C234 H226 0.950 . S
C234 C235 1.386 . S
C234 C236 1.391 . S
C235 C234 1.386 . S
C235 C239 1.393 . S
C236 H228 0.950 . S
C236 C234 1.391 . S
C236 C237 1.400 . S
C237 C236 1.400 . S
C237 C238 1.398 . S
C237 C243 1.491 . S
C238 H229 0.950 . S
C238 C237 1.398 . S
C238 C239 1.391 . S
C239 H227 0.950 . S
C239 C235 1.393 . S
C239 C238 1.391 . S
C240 H230 0.950 . S
C240 C241 1.386 . S
C240 C242 1.391 . S
C241 C240 1.386 . S
C241 C245 1.393 . S
C242 H231 0.950 . S
C242 C240 1.391 . S
C242 C243 1.400 . S
C243 C237 1.491 . S
C243 C242 1.400 . S
C243 C244 1.398 . S
C244 H232 0.950 . S
C244 C243 1.398 . S
C244 C245 1.391 . S
C245 H233 0.950 . S
C245 C241 1.393 . S
C245 C244 1.391 . S
H246 C254 0.950 . S
H247 C259 0.950 . S
H248 C256 0.950 . S
H249 C258 0.950 . S
H250 C260 0.950 . S
H251 C262 0.950 . S
H252 C264 0.950 . S
H253 C265 0.950 . S
C254 H246 0.950 . S
C254 C255 1.386 . S
C254 C256 1.391 . S
C255 C254 1.386 . S
C255 C259 1.393 . S
C256 H248 0.950 . S
C256 C254 1.391 . S
C256 C257 1.400 . S
C257 C256 1.400 . S
C257 C258 1.398 . S
C257 C263 1.491 . S
C258 H249 0.950 . S
C258 C257 1.398 . S
C258 C259 1.391 . S
C259 H247 0.950 . S
C259 C255 1.393 . S
C259 C258 1.391 . S
C260 H250 0.950 . S
C260 C261 1.386 . S
C260 C262 1.391 . S
C261 C260 1.386 . S
C261 C265 1.393 . S
C262 H251 0.950 . S
C262 C260 1.391 . S
C262 C263 1.400 . S
C263 C257 1.491 . S
C263 C262 1.400 . S
C263 C264 1.398 . S
C264 H252 0.950 . S
C264 C263 1.398 . S
C264 C265 1.391 . S
C265 H253 0.950 . S
C265 C261 1.393 . S
C265 C264 1.391 . S
H266 C274 0.950 . S
H267 C279 0.950 . S
H268 C276 0.950 . S
H269 C278 0.950 . S
H270 C280 0.950 . S
H271 C282 0.950 . S
H272 C284 0.950 . S
H273 C285 0.950 . S
C274 H266 0.950 . S
C274 C275 1.386 . S
C274 C276 1.391 . S
C275 C274 1.386 . S
C275 C279 1.393 . S
C276 H268 0.950 . S
C276 C274 1.391 . S
C276 C277 1.400 . S
C277 C276 1.400 . S
C277 C278 1.398 . S
C277 C283 1.491 . S
C278 H269 0.950 . S
C278 C277 1.398 . S
C278 C279 1.391 . S
C279 H267 0.950 . S
C279 C275 1.393 . S
C279 C278 1.391 . S
C280 H270 0.950 . S
C280 C281 1.386 . S
C280 C282 1.391 . S
C281 C280 1.386 . S
C281 C285 1.393 . S
C282 H271 0.950 . S
C282 C280 1.391 . S
C282 C283 1.400 . S
C283 C277 1.491 . S
C283 C282 1.400 . S
C283 C284 1.398 . S
C284 H272 0.950 . S
C284 C283 1.398 . S
C284 C285 1.391 . S
C285 H273 0.950 . S
C285 C281 1.393 . S
C285 C284 1.391 . S
H286 C294 0.950 . S
H287 C299 0.950 . S
H288 C296 0.950 . S
H289 C298 0.950 . S
H290 C300 0.950 . S
H291 C302 0.950 . S
H292 C304 0.950 . S
H293 C305 0.950 . S
C294 H286 0.950 . S
C294 C295 1.386 . S
C294 C296 1.391 . S
C295 C294 1.386 . S
C295 C299 1.393 . S
C296 H288 0.950 . S
C296 C294 1.391 . S
C296 C297 1.400 . S
C297 C296 1.400 . S
C297 C298 1.398 . S
C297 C303 1.491 . S
C298 H289 0.950 . S
C298 C297 1.398 . S
C298 C299 1.391 . S
C299 H287 0.950 . S
C299 C295 1.393 . S
C299 C298 1.391 . S
C300 H290 0.950 . S
C300 C301 1.386 . S
C300 C302 1.391 . S
C301 C300 1.386 . S
C301 C305 1.393 . S
C302 H291 0.950 . S
C302 C300 1.391 . S
C302 C303 1.400 . S
C303 C297 1.491 . S
C303 C302 1.400 . S
C303 C304 1.398 . S
C304 H292 0.950 . S
C304 C303 1.398 . S
C304 C305 1.391 . S
C305 H293 0.950 . S
C305 C301 1.393 . S
C305 C304 1.391 . S
H306 C314 0.961 . S
H307 C319 0.950 . S
H308 C316 0.950 . S
H309 C318 0.950 . S
H310 C320 0.950 . S
H311 C322 0.950 . S
H312 C324 0.950 . S
H313 C325 0.950 1_545 S
C314 H306 0.961 . S
C314 C315 1.386 . S
C314 C316 1.391 . S
C315 C314 1.386 . S
C315 C319 1.393 . S
C316 H308 0.950 . S
C316 C314 1.391 . S
C316 C317 1.400 . S
C317 C316 1.400 . S
C317 C318 1.398 . S
C317 C323 1.491 . S
C318 H309 0.950 . S
C318 C317 1.398 . S
C318 C319 1.391 . S
C319 H307 0.950 . S
C319 C315 1.393 . S
C319 C318 1.391 . S
C320 H310 0.950 . S
C320 C321 1.386 . S
C320 C322 1.391 . S
C321 C320 1.386 . S
C321 C325 1.393 . S
C322 H311 0.950 . S
C322 C320 1.391 . S
C322 C323 1.400 . S
C323 C317 1.491 . S
C323 C322 1.400 . S
C323 C324 1.398 . S
C324 H312 0.950 . S
C324 C323 1.398 . S
C324 C325 1.391 . S
C325 H313 0.950 1_565 S
C325 C321 1.393 . S
C325 C324 1.391 . S
C101 C60 1.219 . S
C95 N37 1.433 . S
C115 N4 1.464 . S
C121 C81 1.280 . S
C135 N15 1.597 . S
C141 C57 1.396 . S
C155 N26 1.594 . S
C161 C78 1.388 . S
C181 C62 1.498 . S
C175 C9 1.511 . S
C201 C82 1.549 . S
C195 C17 1.602 . S
C215 C31 1.581 . S
C221 C58 1.560 . S
C235 C42 1.523 . S
C241 C80 1.458 . S
C261 C79 1.464 . S
C255 C20 1.499 . S
C281 C61 1.477 . S
C275 C28 1.518 . S
C301 C83 1.422 . S
C295 C39 1.447 . S
C315 C6 1.454 1_556 S
C321 C59 1.401 . S
