# Generated by pormake.
# Topology pyr, (3,6)-cn, num edge types: 1
# Building blocks:
#     Node 0, Type 0, BuildingBlock: BETDAH_clean_linker_0, # of connection points: 3
#     Node 1, Type 0, BuildingBlock: BETDAH_clean_linker_0, # of connection points: 3
#     Node 2, Type 0, BuildingBlock: BETDAH_clean_linker_0, # of connection points: 3
#     Node 3, Type 0, BuildingBlock: BETDAH_clean_linker_0, # of connection points: 3
#     Node 4, Type 0, BuildingBlock: BETDAH_clean_linker_0, # of connection points: 3
#     Node 5, Type 0, BuildingBlock: BETDAH_clean_linker_0, # of connection points: 3
#     Node 6, Type 0, BuildingBlock: BETDAH_clean_linker_0, # of connection points: 3
#     Node 7, Type 0, BuildingBlock: BETDAH_clean_linker_0, # of connection points: 3
#     Node 8, Type 1, BuildingBlock: BETDAH_clean_sbu_0, # of connection points: 6
#     Node 9, Type 1, BuildingBlock: BETDAH_clean_sbu_0, # of connection points: 6
#     Node 10, Type 1, BuildingBlock: BETDAH_clean_sbu_0, # of connection points: 6
#     Node 11, Type 1, BuildingBlock: BETDAH_clean_sbu_0, # of connection points: 6
#     Edge 12, Type (0, 1), BuildingBlock: TEMPAE_clean_linker_10, # of connection points: 2
#     Edge 13, Type (0, 1), BuildingBlock: TEMPAE_clean_linker_10, # of connection points: 2
#     Edge 14, Type (0, 1), BuildingBlock: TEMPAE_clean_linker_10, # of connection points: 2
#     Edge 15, Type (0, 1), BuildingBlock: TEMPAE_clean_linker_10, # of connection points: 2
#     Edge 16, Type (0, 1), BuildingBlock: TEMPAE_clean_linker_10, # of connection points: 2
#     Edge 17, Type (0, 1), BuildingBlock: TEMPAE_clean_linker_10, # of connection points: 2
#     Edge 18, Type (0, 1), BuildingBlock: TEMPAE_clean_linker_10, # of connection points: 2
#     Edge 19, Type (0, 1), BuildingBlock: TEMPAE_clean_linker_10, # of connection points: 2
#     Edge 20, Type (0, 1), BuildingBlock: TEMPAE_clean_linker_10, # of connection points: 2
#     Edge 21, Type (0, 1), BuildingBlock: TEMPAE_clean_linker_10, # of connection points: 2
#     Edge 22, Type (0, 1), BuildingBlock: TEMPAE_clean_linker_10, # of connection points: 2
#     Edge 23, Type (0, 1), BuildingBlock: TEMPAE_clean_linker_10, # of connection points: 2
#     Edge 24, Type (0, 1), BuildingBlock: TEMPAE_clean_linker_10, # of connection points: 2
#     Edge 25, Type (0, 1), BuildingBlock: TEMPAE_clean_linker_10, # of connection points: 2
#     Edge 26, Type (0, 1), BuildingBlock: TEMPAE_clean_linker_10, # of connection points: 2
#     Edge 27, Type (0, 1), BuildingBlock: TEMPAE_clean_linker_10, # of connection points: 2
#     Edge 28, Type (0, 1), BuildingBlock: TEMPAE_clean_linker_10, # of connection points: 2
#     Edge 29, Type (0, 1), BuildingBlock: TEMPAE_clean_linker_10, # of connection points: 2
#     Edge 30, Type (0, 1), BuildingBlock: TEMPAE_clean_linker_10, # of connection points: 2
#     Edge 31, Type (0, 1), BuildingBlock: TEMPAE_clean_linker_10, # of connection points: 2
#     Edge 32, Type (0, 1), BuildingBlock: TEMPAE_clean_linker_10, # of connection points: 2
#     Edge 33, Type (0, 1), BuildingBlock: TEMPAE_clean_linker_10, # of connection points: 2
#     Edge 34, Type (0, 1), BuildingBlock: TEMPAE_clean_linker_10, # of connection points: 2
#     Edge 35, Type (0, 1), BuildingBlock: TEMPAE_clean_linker_10, # of connection points: 2
# Relax obj value: 0.144
# Max RMSD: 0.192
# Mean RMSD: 0.141
data_MOF--net-pyr--node1-BETDAH_clean_sbu_0--node2-BETDAH_clean_linker_0--edge1-TEMPAE_clean_linker_10
_symmetry_space_group_name_H-M    P1
_symmetry_Int_Tables_number       1
_symmetry_cell_setting            triclinic
loop_
_symmetry_equiv_pos_as_xyz
'x, y, z'
_cell_length_a     37.499093
_cell_length_b     41.641367
_cell_length_c     38.551141
_cell_angle_alpha  91.933184
_cell_angle_beta   89.674733
_cell_angle_gamma 106.64909
loop_
_atom_site_label
_atom_site_type_symbol
_atom_site_fract_x
_atom_site_fract_y
_atom_site_fract_z
_atom_type_partial_charge
H0 H 0.36013 0.23994 0.28053 0.0
H1 H 0.41672 0.30498 0.20015 0.0
H2 H 0.32797 0.32773 0.257 0.0
C3 C 0.3643 0.26228 0.26561 0.0
C4 C 0.3408 0.28281 0.27152 0.0
C5 C 0.39167 0.26946 0.23954 0.0
C6 C 0.39662 0.29899 0.22095 0.0
C7 C 0.37405 0.32012 0.22716 0.0
C8 C 0.34592 0.31178 0.2523 0.0
N9 N 0.3794 0.34887 0.20675 0.0
C10 C 0.3522 0.36514 0.20262 0.0
H11 H 0.2974 0.84405 0.72781 0.0
H12 H 0.26994 0.9303 0.69036 0.0
H13 H 0.30926 0.86646 0.61963 0.0
C14 C 0.29397 0.85931 0.70657 0.0
C15 C 0.30338 0.85106 0.67285 0.0
C16 C 0.28243 0.88816 0.71335 0.0
C17 C 0.27874 0.90796 0.68549 0.0
C18 C 0.28829 0.89986 0.65165 0.0
C19 C 0.3008 0.87174 0.64564 0.0
N20 N 0.2873 0.92035 0.62334 0.0
C21 C 0.2641 0.94083 0.62262 0.0
H22 H 0.70656 0.35377 0.95779 0.0
H23 H 0.70414 0.42032 0.87455 0.0
H24 H 0.62121 0.32451 0.87956 0.0
C25 C 0.69362 0.35921 0.93452 0.0
C26 C 0.66165 0.33512 0.92117 0.0
C27 C 0.70941 0.39017 0.91833 0.0
C28 C 0.69234 0.397 0.88752 0.0
C29 C 0.66004 0.37336 0.87359 0.0
C30 C 0.64538 0.34282 0.89072 0.0
N31 N 0.64189 0.37731 0.84178 0.0
C32 C 0.64384 0.40529 0.82136 0.0
H33 H 0.82755 0.74377 0.45466 0.0
H34 H 0.91603 0.76711 0.38019 0.0
H35 H 0.83406 0.67063 0.37423 0.0
C36 C 0.84096 0.73683 0.43183 0.0
C37 C 0.82583 0.70463 0.4158 0.0
C38 C 0.87355 0.75987 0.41957 0.0
C39 C 0.89138 0.74973 0.39067 0.0
C40 C 0.87791 0.71775 0.3742 0.0
C41 C 0.845 0.69504 0.38696 0.0
N42 N 0.89879 0.71102 0.3448 0.0
C43 C 0.8948 0.68248 0.32289 0.0
H44 H 0.76172 0.78258 0.87095 0.0
H45 H 0.6714 0.7459 0.94178 0.0
H46 H 0.67295 0.82876 0.8774 0.0
C47 C 0.73502 0.7832 0.88144 0.0
C48 C 0.71872 0.80744 0.87012 0.0
C49 C 0.71844 0.76093 0.90731 0.0
C50 C 0.68473 0.76298 0.92185 0.0
C51 C 0.66853 0.78765 0.91163 0.0
C52 C 0.68566 0.81 0.88579 0.0
N53 N 0.63496 0.78918 0.9278 0.0
C54 C 0.62455 0.81852 0.93206 0.0
H55 H 0.8397 0.21039 0.41041 0.0
H56 H 0.89588 0.28704 0.48483 0.0
H57 H 0.82611 0.30944 0.40676 0.0
C58 C 0.84575 0.23599 0.42054 0.0
C59 C 0.83022 0.25872 0.40459 0.0
C60 C 0.86905 0.24584 0.44963 0.0
C61 C 0.87844 0.27926 0.46197 0.0
C62 C 0.86272 0.30207 0.44683 0.0
C63 C 0.83867 0.2918 0.4181 0.0
N64 N 0.86883 0.33437 0.46262 0.0
C65 C 0.83921 0.34766 0.46755 0.0
H66 H 0.34383 0.75827 0.18159 0.0
H67 H 0.34744 0.68916 0.26194 0.0
H68 H 0.42989 0.78545 0.25933 0.0
C69 C 0.35704 0.75222 0.2044 0.0
C70 C 0.38902 0.77606 0.21814 0.0
C71 C 0.34157 0.72071 0.21962 0.0
C72 C 0.35898 0.71295 0.24976 0.0
C73 C 0.39136 0.73625 0.26401 0.0
C74 C 0.40567 0.76742 0.2479 0.0
N75 N 0.41004 0.73118 0.29511 0.0
C76 C 0.408 0.70258 0.31462 0.0
H77 H 0.21644 0.37066 0.67451 0.0
H78 H 0.21583 0.44306 0.75754 0.0
H79 H 0.12857 0.34987 0.74967 0.0
C80 C 0.20384 0.37783 0.69774 0.0
C81 C 0.17029 0.356 0.7097 0.0
C82 C 0.22113 0.40916 0.71468 0.0
C83 C 0.20319 0.41928 0.74412 0.0
C84 C 0.16938 0.3977 0.75664 0.0
C85 C 0.15382 0.36646 0.7393 0.0
N86 N 0.14972 0.40452 0.78687 0.0
C87 C 0.15464 0.43287 0.80924 0.0
Ho88 Ho 0.02034 0.07383 0.52688 0.0
Ho89 Ho 1.00572 0.04665 0.59986 0.0
C90 C 0.04972 0.12401 0.59469 0.0
C91 C 0.02676 0.10762 0.471 0.0
C92 C 0.059 0.12908 0.45277 0.0
C93 C 0.05642 0.15828 0.43713 0.0
C94 C 0.08685 0.17833 0.41919 0.0
C95 C 0.12011 0.16922 0.4164 0.0
C96 C 0.12277 0.14034 0.43269 0.0
C97 C 0.09262 0.12058 0.4509 0.0
C98 C 0.07353 0.04878 0.55152 0.0
C99 C 0.97865 0.99571 0.53221 0.0
C100 C 0.99785 1.01469 0.65701 0.0
C101 C 0.96573 0.99364 0.67571 0.0
C102 C 0.96942 0.96619 0.69384 0.0
C103 C 0.93955 0.94688 0.71289 0.0
C104 C 0.9055 0.95487 0.71438 0.0
C105 C 0.90178 0.98209 0.69557 0.0
C106 C 0.93152 1.00116 0.67627 0.0
C107 C 0.95286 0.07194 0.57355 0.0
O108 O 0.03715 0.12107 0.56222 0.0
O109 O 0.0469 0.09689 0.61279 0.0
O110 O 0.02466 0.07576 0.47116 0.0
O111 O 0.01903 0.11912 0.50121 0.0
O112 O 0.06585 0.04902 0.5189 0.0
O113 O 0.05606 0.06528 0.56884 0.0
O114 O 0.99034 0.99913 0.565 0.0
O115 O 0.98116 0.02254 0.51366 0.0
O116 O 0.9994 0.04634 0.65542 0.0
O117 O 1.00641 1.00226 0.62757 0.0
O118 O 0.96097 0.07328 0.6062 0.0
O119 O 0.9706 0.0548 0.5578 0.0
H120 H 0.0308 0.16537 0.43857 0.0
H121 H 0.08412 0.20047 0.40679 0.0
H122 H 0.14827 0.13304 0.43137 0.0
H123 H 0.09555 0.09849 0.46325 0.0
H124 H 0.99549 0.95984 0.69348 0.0
H125 H 0.94317 0.92566 0.72644 0.0
H126 H 0.87617 0.9892 0.69635 0.0
H127 H 0.92792 0.02213 0.66224 0.0
Ho128 Ho 0.55548 0.06308 0.09314 0.0
Ho129 Ho 0.49092 0.05249 0.05243 0.0
C130 C 0.50029 0.10093 0.12133 0.0
C131 C 0.62229 0.07708 0.11831 0.0
C132 C 0.64487 0.10193 0.14323 0.0
C133 C 0.63877 0.13343 0.14888 0.0
C134 C 0.65934 0.15595 0.17417 0.0
C135 C 0.68608 0.14718 0.19436 0.0
C136 C 0.69201 0.11557 0.18836 0.0
C137 C 0.67167 0.09325 0.16297 0.0
C138 C 0.49971 1.00935 0.11536 0.0
C139 C 0.54601 1.01442 0.02439 0.0
C140 C 0.42376 0.04015 0.02834 0.0
C141 C 0.39862 1.01655 1.00411 0.0
C142 C 0.4022 0.98439 0.9969 0.0
C143 C 0.38008 0.96371 0.97117 0.0
C144 C 0.35444 0.9751 0.95203 0.0
C145 C 0.35026 1.00697 0.96035 0.0
C146 C 0.37211 0.02743 0.98621 0.0
C147 C 0.54695 0.10552 0.02984 0.0
O148 O 0.53552 0.1018 0.12202 0.0
O149 O 0.47707 0.08073 0.09919 0.0
O150 O 0.59378 0.05517 0.13141 0.0
O151 O 0.61437 0.08829 0.08897 0.0
O152 O 0.52044 0.03296 0.13526 0.0
O153 O 0.50871 1.01605 0.08407 0.0
O154 O 0.51052 1.01289 0.02485 0.0
O155 O 0.56954 0.03557 0.04568 0.0
O156 O 0.45274 0.06073 1.01433 0.0
O157 O 0.43184 0.02826 0.05724 0.0
O158 O 0.52618 0.08177 1.0101 0.0
O159 O 0.5378 0.09938 0.06125 0.0
H160 H 0.6179 0.14046 0.13402 0.0
H161 H 0.65428 0.18015 0.17795 0.0
H162 H 0.71173 0.10764 0.2039 0.0
H163 H 0.67638 0.06888 0.1592 0.0
H164 H 0.42267 0.97563 1.01048 0.0
H165 H 0.3837 0.93916 0.96568 0.0
H166 H 0.33139 1.01685 0.94578 0.0
H167 H 0.3692 0.0523 0.99139 0.0
Ho168 Ho 0.51931 0.52098 0.54455 0.0
Ho169 Ho 0.53272 0.58047 0.58608 0.0
C170 C 0.55969 0.52348 0.6205 0.0
C171 C 0.52417 0.46843 0.5091 0.0
C172 C 0.5518 0.44973 0.50852 0.0
C173 C 0.58535 0.46248 0.52684 0.0
C174 C 0.61279 0.44598 0.52469 0.0
C175 C 0.60727 0.41657 0.50393 0.0
C176 C 0.57331 0.40349 0.48608 0.0
C177 C 0.54568 0.41998 0.48845 0.0
C178 C 0.45708 0.52287 0.58111 0.0
C179 C 0.49148 0.57835 0.51101 0.0
C180 C 0.52961 0.63352 0.62119 0.0
C181 C 0.50344 0.65357 0.62148 0.0
C182 C 0.46665 0.6394 0.61 0.0
C183 C 0.44149 0.65839 0.61133 0.0
C184 C 0.45299 0.69183 0.62376 0.0
C185 C 0.4901 0.70615 0.63442 0.0
C186 C 0.51517 0.68706 0.63336 0.0
C187 C 0.59472 0.57854 0.5492 0.0
O188 O 0.55512 0.51004 0.58852 0.0
O189 O 0.54972 0.55086 0.62738 0.0
O190 O 0.5049 0.46691 0.53757 0.0
O191 O 0.53623 0.49892 0.49815 0.0
O192 O 0.45731 0.51281 0.54897 0.0
O193 O 0.49026 0.5316 0.59238 0.0
O194 O 0.49616 0.59155 0.54306 0.0
O195 O 0.50149 0.55097 0.50377 0.0
O196 O 0.5491 0.63454 0.59293 0.0
O197 O 0.51632 0.60315 0.63224 0.0
O198 O 0.59453 0.58786 0.58156 0.0
O199 O 0.56149 0.56996 0.53808 0.0
H200 H 0.5908 0.48573 0.542 0.0
H201 H 0.63891 0.45696 0.53823 0.0
H202 H 0.56832 0.38077 0.47004 0.0
H203 H 0.5199 0.4099 0.47412 0.0
H204 H 0.45729 0.61358 0.60041 0.0
H205 H 0.41308 0.64697 0.60272 0.0
H206 H 0.49946 0.73183 0.6444 0.0
H207 H 0.54356 0.69829 0.64214 0.0
Ho208 Ho 0.02482 0.5248 0.08402 0.0
Ho209 Ho 0.02651 0.58673 0.05218 0.0
C210 C 0.09649 0.59036 0.0998 0.0
C211 C 0.03878 0.47146 0.10594 0.0
C212 C 0.07051 0.46293 0.12133 0.0
C213 C 0.07463 0.43096 0.11455 0.0
C214 C 0.10528 0.42251 0.12756 0.0
C215 C 0.13244 0.44589 0.14775 0.0
C216 C 0.12812 0.47799 0.15463 0.0
C217 C 0.0974 0.48645 0.14149 0.0
C218 C 0.98638 0.56094 0.12149 0.0
C219 C 0.9548 0.52138 0.03679 0.0
C220 C 1.01137 0.63913 0.02937 0.0
C221 C 0.9778 0.64638 1.01631 0.0
C222 C 0.94254 0.63128 0.03034 0.0
C223 C 0.91118 0.6394 1.01834 0.0
C224 C 0.91449 0.6626 0.99194 0.0
C225 C 0.94976 0.6768 0.9773 0.0
C226 C 0.98109 0.66886 0.98948 0.0
C227 C 0.06491 0.55071 1.01471 0.0
O228 O 0.08362 0.55718 0.09832 0.0
O229 O 0.07706 0.6086 0.0859 0.0
O230 O 0.02307 0.49007 0.12494 0.0
O231 O 0.04301 0.48058 0.07378 0.0
O232 O 0.97523 0.52872 0.11576 0.0
O233 O 0.01766 0.57249 0.10694 0.0
O234 O 0.96726 0.55455 0.03922 0.0
O235 O 0.97476 0.50314 0.0497 0.0
O236 O 0.02465 0.61916 1.00979 0.0
O237 O 1.01146 0.63249 0.06222 0.0
O238 O 0.07614 0.58289 1.02068 0.0
O239 O 0.03356 0.53906 0.02918 0.0
H240 H 0.05433 0.41262 0.09874 0.0
H241 H 0.10808 0.39783 0.12114 0.0
H242 H 0.14838 0.49651 0.17026 0.0
H243 H 0.09477 0.51136 0.14693 0.0
H244 H 0.93928 0.61357 0.05091 0.0
H245 H 0.88456 0.62814 0.03036 0.0
H246 H 0.95322 0.69416 0.9564 0.0
H247 H 1.00799 0.68045 0.97807 0.0
C248 C 0.31364 0.26071 0.32849 0.0
C249 C 0.30886 0.27219 0.29557 0.0
C250 C 0.28293 0.24715 0.34984 0.0
C251 C 0.24661 0.24464 0.33774 0.0
C252 C 0.24178 0.25745 0.30509 0.0
C253 C 0.273 0.2712 0.28446 0.0
C254 C 0.28925 0.23421 0.38471 0.0
C255 C 0.20351 0.25496 0.29111 0.0
C256 C 0.16885 0.17268 0.37131 0.0
C257 C 0.15178 0.18903 0.39578 0.0
C258 C 0.19944 0.19061 0.35204 0.0
C259 C 0.21361 0.22575 0.35765 0.0
C260 C 0.19638 0.24247 0.38223 0.0
C261 C 0.1654 0.2239 0.40086 0.0
C262 C 0.21666 0.17189 0.3257 0.0
C263 C 0.211 0.27984 0.38917 0.0
H264 H 0.34139 0.26179 0.33726 0.0
H265 H 0.26917 0.27975 0.25886 0.0
H266 H 0.27405 0.24415 0.40525 0.0
H267 H 0.2782 0.20647 0.38421 0.0
H268 H 0.31923 0.24119 0.39183 0.0
H269 H 0.20471 0.26889 0.26685 0.0
H270 H 0.18827 0.22823 0.28559 0.0
H271 H 0.18718 0.26484 0.31065 0.0
H272 H 0.15803 0.14575 0.36708 0.0
H273 H 0.15234 0.2365 0.41997 0.0
H274 H 0.24611 0.17489 0.33271 0.0
H275 H 0.21654 0.1825 0.2997 0.0
H276 H 0.20171 0.14468 0.32389 0.0
H277 H 0.24024 0.28631 0.39843 0.0
H278 H 0.19424 0.2891 0.40887 0.0
H279 H 0.21102 0.29331 0.36482 0.0
C280 C 0.26507 0.87657 0.77565 0.0
C281 C 0.27962 0.89973 0.74987 0.0
C282 C 0.27012 0.88601 0.81097 0.0
C283 C 0.28983 0.91944 0.82059 0.0
C284 C 0.30147 0.94357 0.79476 0.0
C285 C 0.29639 0.93339 0.7597 0.0
C286 C 0.25699 0.85963 0.83777 0.0
C287 C 0.32214 0.97963 0.80399 0.0
C288 C 0.2986 0.95565 0.91273 0.0
C289 C 0.335 0.95567 0.92118 0.0
C290 C 0.28246 0.94225 0.8807 0.0
C291 C 0.30316 0.92836 0.85679 0.0
C292 C 0.33882 0.92619 0.86617 0.0
C293 C 0.35437 0.94001 0.89815 0.0
C294 C 0.24429 0.94483 0.87168 0.0
C295 C 0.36164 0.91118 0.84151 0.0
H296 H 0.25138 0.85063 0.76821 0.0
H297 H 0.30799 0.95146 0.74008 0.0
H298 H 0.28123 0.85246 0.84778 0.0
H299 H 0.24411 0.86946 0.86015 0.0
H300 H 0.23658 0.83672 0.82675 0.0
H301 H 0.32497 0.99602 0.78138 0.0
H302 H 0.30767 0.98958 0.82512 0.0
H303 H 0.35043 0.98106 0.81354 0.0
H304 H 0.28316 0.96713 0.93068 0.0
H305 H 0.38262 0.9402 0.90418 0.0
H306 H 0.22692 0.92094 0.85964 0.0
H307 H 0.24699 0.9646 0.85243 0.0
H308 H 0.22962 0.95132 0.89482 0.0
H309 H 0.34486 0.88619 0.8314 0.0
H310 H 0.38715 0.90839 0.85403 0.0
H311 H 0.37009 0.9275 0.81895 0.0
C312 C 0.6616 0.44663 0.77305 0.0
C313 C 0.63446 0.4259 0.79413 0.0
C314 C 0.65159 0.46337 0.74466 0.0
C315 C 0.61344 0.45913 0.73654 0.0
C316 C 0.58611 0.43828 0.75805 0.0
C317 C 0.59689 0.42211 0.7863 0.0
C318 C 0.68195 0.48535 0.72304 0.0
C319 C 0.5452 0.43251 0.7509 0.0
C320 C 0.5823 0.52324 0.68268 0.0
C321 C 0.57547 0.50757 0.6494 0.0
C322 C 0.59539 0.50831 0.71064 0.0
C323 C 0.60187 0.47645 0.70595 0.0
C324 C 0.59555 0.46068 0.67229 0.0
C325 C 0.58266 0.47631 0.64465 0.0
C326 C 0.60179 0.52659 0.74554 0.0
C327 C 0.60168 0.42677 0.66556 0.0
H328 H 0.69069 0.44939 0.7784 0.0
H329 H 0.57563 0.40577 0.80198 0.0
H330 H 0.67962 0.47534 0.69585 0.0
H331 H 0.67874 0.51101 0.72254 0.0
H332 H 0.71017 0.48702 0.73303 0.0
H333 H 0.52728 0.41575 0.76988 0.0
H334 H 0.53847 0.45679 0.75174 0.0
H335 H 0.53822 0.42119 0.72443 0.0
H336 H 0.57712 0.54734 0.68713 0.0
H337 H 0.57761 0.46367 0.61935 0.0
H338 H 0.63054 0.52937 0.75472 0.0
H339 H 0.58248 0.51176 0.76489 0.0
H340 H 0.59747 0.55186 0.74477 0.0
H341 H 0.63039 0.4275 0.67318 0.0
H342 H 0.59724 0.41833 0.63786 0.0
H343 H 0.5823 0.40792 0.68168 0.0
C344 C 0.92871 0.6428 0.29961 0.0
C345 C 0.90234 0.66036 0.29483 0.0
C346 C 0.94137 0.62618 0.27148 0.0
C347 C 0.92771 0.62717 0.23731 0.0
C348 C 0.90044 0.64439 0.23258 0.0
C349 C 0.8883 0.66081 0.26121 0.0
C350 C 0.97028 0.60831 0.27824 0.0
C351 C 0.8848 0.6463 0.197 0.0
C352 C 0.98772 0.61242 0.15971 0.0
C353 C 0.97075 0.57865 0.15 0.0
C354 C 0.97391 0.62851 0.1876 0.0
C355 C 0.94223 0.61061 0.20666 0.0
C356 C 0.9248 0.57662 0.1966 0.0
C357 C 0.93911 0.56122 0.16861 0.0
C358 C 0.99356 0.66471 0.19692 0.0
C359 C 0.89111 0.55626 0.21573 0.0
H360 H 0.94039 0.64293 0.32529 0.0
H361 H 0.86859 0.67494 0.25705 0.0
H362 H 0.96026 0.58185 0.26855 0.0
H363 H 0.99613 0.62035 0.2639 0.0
H364 H 0.97717 0.60864 0.30626 0.0
H365 H 0.86274 0.6593 0.19765 0.0
H366 H 0.90743 0.65991 0.17967 0.0
H367 H 0.87302 0.62071 0.1854 0.0
H368 H 1.01211 0.62627 0.14568 0.0
H369 H 0.92559 0.53517 0.16152 0.0
H370 H 1.00426 0.66691 0.22394 0.0
H371 H 0.97369 0.67992 0.19582 0.0
H372 H 0.01722 0.67548 0.17932 0.0
H373 H 0.89831 0.55476 0.24339 0.0
H374 H 0.88021 0.53038 0.20451 0.0
H375 H 0.86864 0.56872 0.2151 0.0
C376 C 0.3952 0.21012 0.23131 0.0
C377 C 0.41245 0.24479 0.22939 0.0
C378 C 0.41251 0.18655 0.21824 0.0
C379 C 0.44729 0.19771 0.20145 0.0
C380 C 0.46565 0.23247 0.20057 0.0
C381 C 0.44836 0.25553 0.21516 0.0
C382 C 0.39248 0.14964 0.22065 0.0
C383 C 0.5024 0.24545 0.18221 0.0
C384 C 0.50077 0.13528 0.17603 0.0
C385 C 0.48714 0.12542 0.1424 0.0
C386 C 0.48788 0.15864 0.1959 0.0
C387 C 0.46195 0.17326 0.18112 0.0
C388 C 0.44899 0.16393 0.14677 0.0
C389 C 0.46124 0.1397 0.1281 0.0
C390 C 0.50131 0.16709 0.23283 0.0
C391 C 0.42225 0.17964 0.1296 0.0
H392 H 0.36731 0.20108 0.24157 0.0
H393 H 0.46264 0.28207 0.21434 0.0
H394 H 0.38111 0.13934 0.1948 0.0
H395 H 0.41199 0.13562 0.22867 0.0
H396 H 0.36907 0.14503 0.23938 0.0
H397 H 0.51467 0.27292 0.18654 0.0
H398 H 0.52264 0.23254 0.191 0.0
H399 H 0.49822 0.24004 0.15389 0.0
H400 H 0.5208 0.12415 0.18704 0.0
H401 H 0.45117 0.13245 0.10185 0.0
H402 H 0.47727 0.16007 0.25077 0.0
H403 H 0.51426 0.19448 0.23647 0.0
H404 H 0.52185 0.15388 0.24028 0.0
H405 H 0.39532 0.17305 0.14356 0.0
H406 H 0.41688 0.17125 0.10197 0.0
H407 H 0.43349 0.20738 0.1309 0.0
C408 C 0.19961 0.94218 0.62223 0.0
C409 C 0.23739 0.9592 0.6198 0.0
C410 C 0.17266 0.95836 0.61504 0.0
C411 C 0.18418 0.99224 0.60524 0.0
C412 C 0.22254 1.00998 0.60464 0.0
C413 C 0.24888 0.99305 0.61183 0.0
C414 C 0.13202 0.93865 0.61586 0.0
C415 C 0.23575 0.04617 0.59452 0.0
C416 C 0.12052 1.01791 0.5432 0.0
C417 C 0.1021 0.03497 0.56552 0.0
C418 C 0.14759 1.00417 0.55588 0.0
C419 C 0.15639 1.00773 0.59173 0.0
C420 C 0.13802 0.02517 0.61439 0.0
C421 C 0.11087 0.03855 0.60097 0.0
C422 C 0.16648 0.98553 0.53096 0.0
C423 C 0.14688 0.02944 0.65272 0.0
H424 H 0.19116 0.91585 0.62844 0.0
H425 H 0.27837 1.00592 0.61005 0.0
H426 H 0.11579 0.95277 0.63089 0.0
H427 H 0.12068 0.93472 0.58903 0.0
H428 H 0.12767 0.91374 0.62744 0.0
H429 H 0.26603 0.05737 0.59936 0.0
H430 H 0.23021 0.04789 0.56651 0.0
H431 H 0.22028 0.06129 0.60911 0.0
H432 H 0.1136 1.01511 0.51578 0.0
H433 H 0.09648 0.05175 0.6182 0.0
H434 H 0.16111 0.95919 0.53883 0.0
H435 H 0.19704 0.99718 0.53172 0.0
H436 H 0.15667 0.9854 0.5038 0.0
H437 H 0.14056 1.00452 0.66454 0.0
H438 H 0.1308 0.0445 0.66662 0.0
H439 H 0.17701 0.0419 0.65674 0.0
C440 C 0.74695 0.42067 0.97024 0.0
C441 C 0.74412 0.41437 0.93409 0.0
C442 C 0.78039 0.44002 0.98628 0.0
C443 C 0.81257 0.45355 0.966 0.0
C444 C 0.80963 0.44823 0.92934 0.0
C445 C 0.77559 0.42898 0.9139 0.0
C446 C 0.78151 0.44518 0.02525 0.0
C447 C 0.84293 0.46183 0.90646 0.0
C448 C 0.89454 0.52265 1.00736 0.0
C449 C 0.91833 0.50434 1.01865 0.0
C450 C 0.86043 0.50672 0.99008 0.0
C451 C 0.84953 0.47144 0.98341 0.0
C452 C 0.87363 0.45295 0.99448 0.0
C453 C 0.90734 0.46944 1.01193 0.0
C454 C 0.83586 0.52769 0.97924 0.0
C455 C 0.86374 0.41548 0.98796 0.0
H456 H 0.72289 0.40999 0.98624 0.0
H457 H 0.77409 0.42422 0.88606 0.0
H458 H 0.80082 0.43251 0.03656 0.0
H459 H 0.79227 0.47228 0.03237 0.0
H460 H 0.75367 0.43512 0.03719 0.0
H461 H 0.83579 0.45752 0.87843 0.0
H462 H 0.85503 0.48914 0.91178 0.0
H463 H 0.86477 0.44959 0.91238 0.0
H464 H 0.90244 0.54956 1.0122 0.0
H465 H 0.92528 0.45483 1.02016 0.0
H466 H 0.8085 0.51914 0.99234 0.0
H467 H 0.83054 0.52443 0.95088 0.0
H468 H 0.84837 0.5548 0.98567 0.0
H469 H 0.83744 0.40308 1.00146 0.0
H470 H 0.88582 0.40474 0.99706 0.0
H471 H 0.85903 0.40937 0.95981 0.0
C472 C 0.76131 0.69561 0.44113 0.0
C473 C 0.78992 0.68198 0.42995 0.0
C474 C 0.72928 0.6763 0.45816 0.0
C475 C 0.72485 0.64197 0.4642 0.0
C476 C 0.75273 0.62754 0.45163 0.0
C477 C 0.78477 0.64759 0.43473 0.0
C478 C 0.70063 0.69309 0.47073 0.0
C479 C 0.74932 0.59109 0.45703 0.0
C480 C 0.6634 0.60687 0.54222 0.0
C481 C 0.62857 0.59122 0.52683 0.0
C482 C 0.69497 0.62228 0.52216 0.0
C483 C 0.6922 0.62216 0.48544 0.0
C484 C 0.65741 0.60523 0.46963 0.0
C485 C 0.62615 0.59009 0.4904 0.0
C486 C 0.73109 0.63987 0.5405 0.0
C487 C 0.65287 0.60406 0.43072 0.0
H488 H 0.76422 0.72185 0.43703 0.0
H489 H 0.80644 0.63657 0.42643 0.0
H490 H 0.6727 0.67916 0.4605 0.0
H491 H 0.69907 0.69275 0.49947 0.0
H492 H 0.70717 0.71953 0.46275 0.0
H493 H 0.77128 0.58274 0.44309 0.0
H494 H 0.75149 0.58698 0.48513 0.0
H495 H 0.72166 0.57513 0.44804 0.0
H496 H 0.66584 0.60789 0.57026 0.0
H497 H 0.59953 0.5781 0.47809 0.0
H498 H 0.7384 0.66718 0.5361 0.0
H499 H 0.75401 0.63068 0.52975 0.0
H500 H 0.7295 0.63606 0.56892 0.0
H501 H 0.65567 0.62966 0.42165 0.0
H502 H 0.62536 0.58736 0.42212 0.0
H503 H 0.6751 0.5952 0.41799 0.0
C504 C 0.30774 0.37848 0.1634 0.0
C505 C 0.32262 0.38 0.19672 0.0
C506 C 0.27763 0.3912 0.15722 0.0
C507 C 0.26224 0.40573 0.18517 0.0
C508 C 0.27779 0.40776 0.21888 0.0
C509 C 0.30788 0.39469 0.22429 0.0
C510 C 0.26175 0.3884 0.12096 0.0
C511 C 0.26222 0.42314 0.24925 0.0
C512 C 0.20116 0.45971 0.15916 0.0
C513 C 0.16552 0.43684 0.16058 0.0
C514 C 0.23288 0.45038 0.16844 0.0
C515 C 0.22886 0.41734 0.17914 0.0
C516 C 0.19289 0.39455 0.18184 0.0
C517 C 0.16168 0.40462 0.17269 0.0
C518 C 0.27077 0.47547 0.16551 0.0
C519 C 0.18741 0.35909 0.1932 0.0
H520 H 0.31933 0.3669 0.14224 0.0
H521 H 0.31959 0.39559 0.25009 0.0
H522 H 0.23241 0.3725 0.12084 0.0
H523 H 0.26175 0.41352 0.11224 0.0
H524 H 0.27767 0.37736 0.10195 0.0
H525 H 0.27871 0.42439 0.27337 0.0
H526 H 0.2616 0.44886 0.24326 0.0
H527 H 0.2331 0.40818 0.2541 0.0
H528 H 0.20444 0.48457 0.14959 0.0
H529 H 0.13418 0.38703 0.17458 0.0
H530 H 0.28662 0.46727 0.14429 0.0
H531 H 0.28687 0.47685 0.18985 0.0
H532 H 0.26894 0.50098 0.16002 0.0
H533 H 0.20025 0.34538 0.17398 0.0
H534 H 0.15753 0.34508 0.1958 0.0
H535 H 0.2015 0.35924 0.21845 0.0
C536 C 0.60691 0.2874 0.94177 0.0
C537 C 0.64563 0.30184 0.93872 0.0
C538 C 0.59166 0.25637 0.95798 0.0
C539 C 0.61536 0.23853 0.97148 0.0
C540 C 0.65444 0.25298 0.96857 0.0
C541 C 0.66896 0.28421 0.95254 0.0
C542 C 0.54992 0.24256 0.96056 0.0
C543 C 0.6811 0.23511 0.98193 0.0
C544 C 0.57608 0.16885 0.03736 0.0
C545 C 0.56679 0.13953 1.01604 0.0
C546 C 0.59194 0.201 0.02343 0.0
C547 C 0.59929 0.20429 0.98724 0.0
C548 C 0.59071 0.1746 0.96587 0.0
C549 C 0.57453 0.14294 0.98037 0.0
C550 C 0.60015 0.2316 0.04744 0.0
C551 C 0.59824 0.17624 0.92737 0.0
H552 H 0.58833 0.30062 0.9318 0.0
H553 H 0.69884 0.29449 0.95016 0.0
H554 H 0.54045 0.21818 0.94597 0.0
H555 H 0.54174 0.23783 0.98805 0.0
H556 H 0.53517 0.25983 0.95015 0.0
H557 H 0.71066 0.24984 0.97869 0.0
H558 H 0.67592 0.22999 1.00984 0.0
H559 H 0.67645 0.21054 0.9679 0.0
H560 H 0.57014 0.16678 0.06487 0.0
H561 H 0.56763 0.12065 0.96351 0.0
H562 H 0.58366 0.24837 0.03939 0.0
H563 H 0.62996 0.24596 0.04569 0.0
H564 H 0.59356 0.22507 0.07491 0.0
H565 H 0.58156 0.19092 0.91508 0.0
H566 H 0.59138 0.15098 0.9144 0.0
H567 H 0.62799 0.18936 0.92268 0.0
C568 C 0.86485 0.81229 0.45051 0.0
C569 C 0.88879 0.7945 0.4367 0.0
C570 C 0.87867 0.84464 0.46637 0.0
C571 C 0.9176 0.86031 0.46851 0.0
C572 C 0.94195 0.84261 0.45465 0.0
C573 C 0.9274 0.81017 0.43918 0.0
C574 C 0.85144 0.86218 0.48076 0.0
C575 C 0.98359 0.858 0.45612 0.0
C576 C 0.95322 0.9565 0.48053 0.0
C577 C 0.96229 0.96109 0.51608 0.0
C578 C 0.93879 0.92414 0.46486 0.0
C579 C 0.93282 0.89516 0.48503 0.0
C580 C 0.94164 0.89962 0.52098 0.0
C581 C 0.95629 0.93227 0.53593 0.0
C582 C 0.93019 0.92096 0.42649 0.0
C583 C 0.93565 0.86978 0.54376 0.0
H584 H 0.83503 0.80115 0.44849 0.0
H585 H 0.94652 0.7969 0.42935 0.0
H586 H 0.8573 0.8688 0.50869 0.0
H587 H 0.85474 0.88595 0.46723 0.0
H588 H 0.82209 0.84651 0.4779 0.0
H589 H 0.9989 0.84136 0.44393 0.0
H590 H 0.99133 0.88217 0.44269 0.0
H591 H 0.99287 0.86353 0.48351 0.0
H592 H 0.95775 0.97831 0.46468 0.0
H593 H 0.96304 0.93516 0.56337 0.0
H594 H 0.90042 0.90729 0.4221 0.0
H595 H 0.94684 0.90611 0.41319 0.0
H596 H 0.93624 0.94574 0.41431 0.0
H597 H 0.90604 0.85459 0.54258 0.0
H598 H 0.94324 0.87727 0.57128 0.0
H599 H 0.95256 0.85342 0.53417 0.0
C600 C 0.34647 0.81806 0.68875 0.0
C601 C 0.31923 0.82275 0.66634 0.0
C602 C 0.36466 0.79371 0.6811 0.0
C603 C 0.35564 0.77391 0.65009 0.0
C604 C 0.32719 0.77757 0.62802 0.0
C605 C 0.30917 0.80195 0.63649 0.0
C606 C 0.39475 0.79029 0.70538 0.0
C607 C 0.31693 0.75681 0.59475 0.0
C608 C 0.43529 0.74419 0.61512 0.0
C609 C 0.42609 0.71149 0.62707 0.0
C610 C 0.41159 0.7643 0.62106 0.0
C611 C 0.37818 0.75136 0.63966 0.0
C612 C 0.36805 0.71788 0.6506 0.0
C613 C 0.39218 0.69823 0.64404 0.0
C614 C 0.42303 0.79983 0.60866 0.0
C615 C 0.33272 0.70341 0.67068 0.0
H616 H 0.35474 0.83438 0.71158 0.0
H617 H 0.28775 0.80525 0.61937 0.0
H618 H 0.38995 0.76367 0.71203 0.0
H619 H 0.42218 0.7985 0.69236 0.0
H620 H 0.39611 0.80554 0.72981 0.0
H621 H 0.292 0.76065 0.58209 0.0
H622 H 0.34057 0.76365 0.57636 0.0
H623 H 0.31148 0.72977 0.59983 0.0
H624 H 0.46136 0.75419 0.60161 0.0
H625 H 0.38527 0.67295 0.65348 0.0
H626 H 0.42874 0.81771 0.63134 0.0
H627 H 0.40012 0.80468 0.59357 0.0
H628 H 0.44834 0.80508 0.59222 0.0
H629 H 0.33501 0.71612 0.69668 0.0
H630 H 0.32709 0.67603 0.67419 0.0
H631 H 0.30857 0.70789 0.6573 0.0
C632 C 0.75322 0.81777 0.81416 0.0
C633 C 0.73775 0.83049 0.84284 0.0
C634 C 0.77709 0.83924 0.79134 0.0
C635 C 0.78532 0.87434 0.79703 0.0
C636 C 0.76752 0.88737 0.82432 0.0
C637 C 0.74397 0.86523 0.84706 0.0
C638 C 0.79543 0.82427 0.76256 0.0
C639 C 0.77508 0.92467 0.83079 0.0
C640 C 0.88156 0.92416 0.76843 0.0
C641 C 0.87429 0.93527 0.73598 0.0
C642 C 0.85271 0.90496 0.78881 0.0
C643 C 0.81551 0.897 0.77675 0.0
C644 C 0.80775 0.90891 0.74453 0.0
C645 C 0.83726 0.9277 0.7244 0.0
C646 C 0.86218 0.89255 0.82297 0.0
C647 C 0.7684 0.90118 0.73098 0.0
H648 H 0.74784 0.79088 0.8104 0.0
H649 H 0.7321 0.8752 0.86918 0.0
H650 H 0.79244 0.83549 0.73746 0.0
H651 H 0.82567 0.82999 0.76807 0.0
H652 H 0.78355 0.79662 0.75975 0.0
H653 H 0.75511 0.93065 0.84955 0.0
H654 H 0.80364 0.93529 0.8414 0.0
H655 H 0.7736 0.93728 0.80617 0.0
H656 H 0.90993 0.93051 0.778 0.0
H657 H 0.83133 0.93588 0.69925 0.0
H658 H 0.85355 0.86472 0.82226 0.0
H659 H 0.84671 0.90091 0.84438 0.0
H660 H 0.89242 0.90163 0.82901 0.0
H661 H 0.75722 0.87388 0.72509 0.0
H662 H 0.76672 0.91483 0.70706 0.0
H663 H 0.75016 0.9079 0.75101 0.0
C664 C 0.80747 0.26775 0.34552 0.0
C665 C 0.80492 0.24739 0.37424 0.0
C666 C 0.78627 0.25574 0.3154 0.0
C667 C 0.7625 0.22248 0.31387 0.0
C668 C 0.75851 0.20243 0.34336 0.0
C669 C 0.77944 0.21527 0.37327 0.0
C670 C 0.79056 0.2781 0.28472 0.0
C671 C 0.73351 0.16678 0.34279 0.0
C672 C 0.6888 0.18795 0.24454 0.0
C673 C 0.70687 0.17009 0.22253 0.0
C674 C 0.70722 0.20679 0.27342 0.0
C675 C 0.74434 0.20732 0.2807 0.0
C676 C 0.76321 0.1906 0.25774 0.0
C677 C 0.74437 0.17248 0.22879 0.0
C678 C 0.68642 0.22481 0.29699 0.0
C679 C 0.80277 0.19042 0.26468 0.0
H680 H 0.82707 0.29259 0.34602 0.0
H681 H 0.77645 0.19975 0.39573 0.0
H682 H 0.80592 0.2689 0.26378 0.0
H683 H 0.76289 0.27738 0.2741 0.0
H684 H 0.80599 0.30453 0.29163 0.0
H685 H 0.7321 0.15514 0.36845 0.0
H686 H 0.70492 0.16599 0.33476 0.0
H687 H 0.74399 0.15136 0.32344 0.0
H688 H 0.65977 0.18612 0.24006 0.0
H689 H 0.75881 0.15945 0.21144 0.0
H690 H 0.70386 0.2507 0.30345 0.0
H691 H 0.67983 0.21152 0.32171 0.0
H692 H 0.65994 0.22606 0.28511 0.0
H693 H 0.82109 0.21644 0.2683 0.0
H694 H 0.81411 0.17774 0.24331 0.0
H695 H 0.80386 0.17727 0.28905 0.0
C696 C 0.39017 0.65947 0.36135 0.0
C697 C 0.41734 0.68101 0.34094 0.0
C698 C 0.40011 0.6417 0.38892 0.0
C699 C 0.43824 0.64567 0.39691 0.0
C700 C 0.46561 0.66731 0.37606 0.0
C701 C 0.45489 0.68451 0.34862 0.0
C702 C 0.3697 0.61895 0.40986 0.0
C703 C 0.50651 0.67287 0.38312 0.0
C704 C 0.46856 0.626 0.48807 0.0
C705 C 0.4758 0.59484 0.48247 0.0
C706 C 0.45585 0.64237 0.46095 0.0
C707 C 0.44974 0.62749 0.42689 0.0
C708 C 0.45631 0.59574 0.4213 0.0
C709 C 0.46924 0.58004 0.44879 0.0
C710 C 0.44965 0.67611 0.46868 0.0
C711 C 0.45019 0.57841 0.38592 0.0
H712 H 0.36109 0.65687 0.35613 0.0
H713 H 0.4762 0.70143 0.33347 0.0
H714 H 0.37304 0.59331 0.4095 0.0
H715 H 0.37181 0.62816 0.43733 0.0
H716 H 0.34151 0.61748 0.39992 0.0
H717 H 0.52446 0.69015 0.36457 0.0
H718 H 0.51343 0.6835 0.40985 0.0
H719 H 0.51323 0.6486 0.38151 0.0
H720 H 0.47343 0.63802 0.51368 0.0
H721 H 0.47452 0.55607 0.44367 0.0
H722 H 0.42091 0.6755 0.46129 0.0
H723 H 0.46897 0.69538 0.45295 0.0
H724 H 0.4541 0.6839 0.49654 0.0
H725 H 0.42148 0.5758 0.37673 0.0
H726 H 0.45459 0.55314 0.38592 0.0
H727 H 0.46958 0.59381 0.36699 0.0
C728 C 0.16205 0.45366 0.87122 0.0
C729 C 0.1475 0.45457 0.8379 0.0
C730 C 0.15015 0.4695 0.90042 0.0
C731 C 0.12259 0.48655 0.8966 0.0
C732 C 0.10841 0.48803 0.86274 0.0
C733 C 0.12086 0.472 0.83402 0.0
C734 C 0.16635 0.46711 0.93564 0.0
C735 C 0.07919 0.50578 0.85693 0.0
C736 C 0.06339 0.49977 0.97549 0.0
C737 C 0.08031 0.53343 0.98566 0.0
C738 C 0.07699 0.48419 0.94706 0.0
C739 C 0.10835 0.50252 0.92786 0.0
C740 C 0.12572 0.53639 0.93837 0.0
C741 C 0.11167 0.55126 0.96692 0.0
C742 C 0.05745 0.44806 0.93729 0.0
C743 C 0.15904 0.55722 0.91909 0.0
H744 H 0.18197 0.4396 0.87468 0.0
H745 H 0.10876 0.47219 0.80858 0.0
H746 H 0.1781 0.49254 0.94762 0.0
H747 H 0.14404 0.45308 0.95304 0.0
H748 H 0.18856 0.45429 0.93428 0.0
H749 H 0.07189 0.50586 0.82905 0.0
H750 H 0.05359 0.49334 0.87144 0.0
H751 H 0.08914 0.53209 0.86706 0.0
H752 H 0.03921 0.48561 0.98959 0.0
H753 H 0.12514 0.57724 0.97432 0.0
H754 H 0.07751 0.43299 0.93766 0.0
H755 H 0.04632 0.44622 0.91047 0.0
H756 H 0.03412 0.43689 0.9551 0.0
H757 H 0.18165 0.5449 0.91904 0.0
H758 H 0.16993 0.58295 0.93069 0.0
H759 H 0.15141 0.5591 0.89163 0.0
C760 C 0.6177 0.8739 0.91787 0.0
C761 C 0.61289 0.84785 0.94098 0.0
C762 C 0.607 0.90276 0.92722 0.0
C763 C 0.59139 0.90536 0.96043 0.0
C764 C 0.58632 0.87872 0.98361 0.0
C765 C 0.59716 0.85025 0.97353 0.0
C766 C 0.61268 0.93055 0.90181 0.0
C767 C 0.56992 0.88048 1.01927 0.0
C768 C 0.596 0.9887 1.00571 0.0
C769 C 0.55891 0.98944 1.00337 0.0
C770 C 0.60745 0.96235 0.9902 0.0
C771 C 0.58124 0.93613 0.97175 0.0
C772 C 0.54433 0.93778 0.96747 0.0
C773 C 0.53357 0.96439 0.98339 0.0
C774 C 0.64708 0.96156 0.99536 0.0
C775 C 0.51563 0.91049 0.94774 0.0
H776 H 0.62999 0.87179 0.89268 0.0
H777 H 0.5936 0.82989 0.99126 0.0
H778 H 0.5859 0.93601 0.89692 0.0
H779 H 0.63218 0.95386 0.91296 0.0
H780 H 0.62399 0.92418 0.87664 0.0
H781 H 0.56733 0.8574 0.03391 0.0
H782 H 0.58766 0.90224 0.03449 0.0
H783 H 0.54193 0.88429 1.01705 0.0
H784 H 0.61587 1.00802 1.02089 0.0
H785 H 0.5049 0.96481 0.98124 0.0
H786 H 0.65943 0.95663 0.97024 0.0
H787 H 0.6474 0.94083 1.0126 0.0
H788 H 0.66492 0.98541 1.0072 0.0
H789 H 0.52693 0.90464 0.92241 0.0
H790 H 0.48968 0.91752 0.94304 0.0
H791 H 0.50849 0.88724 0.96274 0.0
C792 C 0.85438 0.19053 0.47735 0.0
C793 C 0.88088 0.22042 0.46867 0.0
C794 C 0.86461 0.16597 0.49546 0.0
C795 C 0.90232 0.17141 0.50486 0.0
C796 C 0.92924 0.20163 0.49635 0.0
C797 C 0.91811 0.22597 0.47849 0.0
C798 C 0.83514 0.13415 0.50435 0.0
C799 C 0.9698 0.20799 0.50567 0.0
C800 C 0.92601 0.12017 0.57598 0.0
C801 C 0.93673 0.09556 0.55648 0.0
C802 C 0.91429 0.14492 0.5595 0.0
C803 C 0.91368 0.145 0.52278 0.0
C804 C 0.92379 0.11974 0.50305 0.0
C805 C 0.93482 0.09507 0.52021 0.0
C806 C 0.90323 0.17131 0.5813 0.0
C807 C 0.92387 0.11923 0.46385 0.0
H808 H 0.82545 0.18651 0.47024 0.0
H809 H 0.93856 0.24908 0.47166 0.0
H810 H 0.84165 0.11219 0.49167 0.0
H811 H 0.83485 0.13066 0.53277 0.0
H812 H 0.80688 0.13429 0.49601 0.0
H813 H 0.9871 0.23302 0.49767 0.0
H814 H 0.97291 0.20626 0.53409 0.0
H815 H 0.9808 0.1885 0.49296 0.0
H816 H 0.92751 0.1205 0.60407 0.0
H817 H 0.94303 0.07591 0.50514 0.0
H818 H 0.8747 0.17164 0.57425 0.0
H819 H 0.92224 0.19646 0.57606 0.0
H820 H 0.90406 0.16701 0.60953 0.0
H821 H 0.89585 0.11823 0.45392 0.0
H822 H 0.93204 0.09753 0.45244 0.0
H823 H 0.94359 0.14264 0.45461 0.0
C824 C 0.30409 0.69109 0.16731 0.0
C825 C 0.30684 0.69685 0.20354 0.0
C826 C 0.27068 0.67195 0.15106 0.0
C827 C 0.23842 0.65821 0.17118 0.0
C828 C 0.24125 0.66313 0.20788 0.0
C829 C 0.27529 0.68207 0.22355 0.0
C830 C 0.2697 0.66715 0.11206 0.0
C831 C 0.20783 0.6494 0.23059 0.0
C832 C 0.14379 0.64234 0.12489 0.0
C833 C 0.13287 0.60746 0.11809 0.0
C834 C 0.17742 0.65883 0.1425 0.0
C835 C 0.20153 0.64035 0.15359 0.0
C836 C 0.1907 0.6051 0.14682 0.0
C837 C 0.15666 0.58917 0.12943 0.0
C838 C 0.18718 0.69627 0.1492 0.0
C839 C 0.21531 0.58414 0.15761 0.0
H840 H 0.32821 0.702 0.15146 0.0
H841 H 0.27674 0.68647 0.25144 0.0
H842 H 0.25899 0.6401 0.10468 0.0
H843 H 0.25042 0.67991 0.10085 0.0
H844 H 0.29758 0.67733 0.10024 0.0
H845 H 0.21481 0.65362 0.25866 0.0
H846 H 0.18599 0.66161 0.22461 0.0
H847 H 0.1958 0.6221 0.22516 0.0
H848 H 0.12584 0.65694 0.11664 0.0
H849 H 0.14887 0.56229 0.12446 0.0
H850 H 0.21348 0.7088 0.13576 0.0
H851 H 0.19185 0.70225 0.17738 0.0
H852 H 0.16506 0.70698 0.14016 0.0
H853 H 0.24263 0.5927 0.14445 0.0
H854 H 0.2028 0.55702 0.15121 0.0
H855 H 0.2207 0.58741 0.18596 0.0
C856 C 0.28527 0.41455 0.69015 0.0
C857 C 0.2581 0.43012 0.70088 0.0
C858 C 0.31813 0.43216 0.67311 0.0
C859 C 0.32481 0.46667 0.66643 0.0
C860 C 0.29835 0.48302 0.67852 0.0
C861 C 0.2655 0.46467 0.69558 0.0
C862 C 0.3452 0.41338 0.66116 0.0
C863 C 0.30411 0.51972 0.67233 0.0
C864 C 0.42517 0.51374 0.6399 0.0
C865 C 0.42294 0.51187 0.60345 0.0
C866 C 0.39341 0.50037 0.66074 0.0
C867 C 0.35825 0.48464 0.64499 0.0
C868 C 0.35574 0.48383 0.60822 0.0
C869 C 0.38784 0.49735 0.58808 0.0
C870 C 0.39777 0.50211 0.69968 0.0
C871 C 0.31922 0.46754 0.58994 0.0
H872 H 0.28048 0.38808 0.69455 0.0
H873 H 0.24492 0.47713 0.70352 0.0
H874 H 0.34669 0.41295 0.6324 0.0
H875 H 0.37353 0.42633 0.67115 0.0
H876 H 0.33711 0.38711 0.66984 0.0
H877 H 0.28308 0.52961 0.68595 0.0
H878 H 0.33229 0.53462 0.68114 0.0
H879 H 0.30229 0.52346 0.64411 0.0
H880 H 0.45199 0.5249 0.65219 0.0
H881 H 0.38555 0.49582 0.56002 0.0
H882 H 0.39319 0.47646 0.70936 0.0
H883 H 0.37653 0.5126 0.71198 0.0
H884 H 0.42584 0.5177 0.70815 0.0
H885 H 0.31025 0.4403 0.59489 0.0
H886 H 0.32115 0.4708 0.56144 0.0
H887 H 0.29727 0.47825 0.6003 0.0
C888 C 0.75696 0.72131 0.89736 0.0
C889 C 0.73835 0.73763 0.92052 0.0
C890 C 0.78194 0.70475 0.90941 0.0
C891 C 0.78812 0.70414 0.94553 0.0
C892 C 0.76709 0.71811 0.96912 0.0
C893 C 0.74253 0.73484 0.95632 0.0
C894 C 0.80376 0.69018 0.88337 0.0
C895 C 0.7725 0.71755 1.00784 0.0
C896 C 0.84642 0.64943 0.97683 0.0
C897 C 0.88168 0.67288 0.98042 0.0
C898 C 0.81545 0.6592 0.966 0.0
C899 C 0.81995 0.69311 0.95826 0.0
C900 C 0.85539 0.71687 0.96195 0.0
C901 C 0.88567 0.70652 0.9732 0.0
C902 C 0.77801 0.63325 0.96263 0.0
C903 C 0.86145 0.75328 0.95379 0.0
H904 H 0.75326 0.72281 0.86965 0.0
H905 H 0.72837 0.74747 0.97439 0.0
H906 H 0.83317 0.70592 0.88345 0.0
H907 H 0.80369 0.66457 0.89045 0.0
H908 H 0.79251 0.68903 0.85661 0.0
H909 H 0.75025 0.72473 0.02258 0.0
H910 H 0.773 0.69227 1.01561 0.0
H911 H 0.79969 0.73542 1.01535 0.0
H912 H 0.84311 0.62332 0.98204 0.0
H913 H 0.91255 0.72497 0.97663 0.0
H914 H 0.76831 0.63099 0.93529 0.0
H915 H 0.75711 0.6412 0.97858 0.0
H916 H 0.77888 0.60818 0.97087 0.0
H917 H 0.85362 0.75534 0.92641 0.0
H918 H 0.89082 0.76852 0.95781 0.0
H919 H 0.84337 0.76421 0.97044 0.0
C920 C 0.38091 0.82772 0.18869 0.0
C921 C 0.4046 0.81001 0.20166 0.0
C922 C 0.39497 0.85947 0.17357 0.0
C923 C 0.43398 0.87446 0.17078 0.0
C924 C 0.45806 0.8566 0.18347 0.0
C925 C 0.44325 0.82501 0.19876 0.0
C926 C 0.36791 0.87728 0.161 0.0
C927 C 0.49974 0.87097 0.18098 0.0
C928 C 0.47189 0.94599 0.10656 0.0
C929 C 0.48068 0.97487 0.12854 0.0
C930 C 0.45674 0.91342 0.11974 0.0
C931 C 0.44954 0.90919 0.15587 0.0
C932 C 0.45766 0.93841 0.17794 0.0
C933 C 0.47317 0.97054 0.16416 0.0
C934 C 0.44906 0.88339 0.09498 0.0
C935 C 0.45029 0.93578 0.21641 0.0
H936 H 0.35107 0.81705 0.19098 0.0
H937 H 0.46214 0.81178 0.20807 0.0
H938 H 0.3723 0.90152 0.17564 0.0
H939 H 0.37291 0.88306 0.13321 0.0
H940 H 0.33847 0.8622 0.16414 0.0
H941 H 0.51484 0.85374 0.19084 0.0
H942 H 0.50785 0.87636 0.15359 0.0
H943 H 0.50886 0.89508 0.1961 0.0
H944 H 0.47768 0.94876 0.07907 0.0
H945 H 0.47972 0.99247 0.18154 0.0
H946 H 0.41933 0.86872 0.09639 0.0
H947 H 0.46578 0.86665 0.10256 0.0
H948 H 0.45574 0.89061 0.0677 0.0
H949 H 0.42064 0.92225 0.22103 0.0
H950 H 0.45687 0.96074 0.23003 0.0
H951 H 0.46729 0.92105 0.22809 0.0
C952 C 0.11373 0.30847 0.68983 0.0
C953 C 0.15269 0.32219 0.69167 0.0
C954 C 0.09695 0.27666 0.67384 0.0
C955 C 0.11935 0.2577 0.65865 0.0
C956 C 0.15862 0.27149 0.65995 0.0
C957 C 0.17469 0.30319 0.67647 0.0
C958 C 0.05505 0.26321 0.67339 0.0
C959 C 0.18382 0.25256 0.64404 0.0
C960 C 0.07837 0.1621 0.64607 0.0
C961 C 0.06793 0.15824 0.61083 0.0
C962 C 0.09493 0.19406 0.66181 0.0
C963 C 0.10175 0.22333 0.642 0.0
C964 C 0.09149 0.2196 0.60636 0.0
C965 C 0.07466 0.18733 0.59133 0.0
C966 C 0.1049 0.1965 0.69987 0.0
C967 C 0.09834 0.24978 0.58396 0.0
H968 H 0.09606 0.32274 0.70068 0.0
H969 H 0.20473 0.31279 0.67796 0.0
H970 H 0.0448 0.25834 0.64623 0.0
H971 H 0.04632 0.23894 0.68661 0.0
H972 H 0.04141 0.28077 0.68638 0.0
H973 H 0.21367 0.26707 0.64594 0.0
H974 H 0.1798 0.22853 0.65724 0.0
H975 H 0.17653 0.24633 0.61628 0.0
H976 H 0.07331 0.14006 0.66162 0.0
H977 H 0.06685 0.18495 0.56414 0.0
H978 H 0.09002 0.21238 0.71406 0.0
H979 H 0.13515 0.20872 0.70339 0.0
H980 H 0.09776 0.17156 0.71182 0.0
H981 H 0.0832 0.26721 0.5946 0.0
H982 H 0.0893 0.24282 0.55666 0.0
H983 H 0.12842 0.26362 0.58419 0.0
C984 C 0.80451 0.38946 0.47329 0.0
C985 C 0.80508 0.35611 0.47302 0.0
C986 C 0.771 0.39752 0.47861 0.0
C987 C 0.7377 0.37147 0.48375 0.0
C988 C 0.73843 0.33768 0.48347 0.0
C989 C 0.7723 0.33039 0.47803 0.0
C990 C 0.77119 0.43383 0.47868 0.0
C991 C 0.70352 0.3093 0.48892 0.0
C992 C 0.65947 0.39771 0.52779 0.0
C993 C 0.63806 0.4012 0.49924 0.0
C994 C 0.69141 0.387 0.52323 0.0
C995 C 0.70213 0.37972 0.4893 0.0
C996 C 0.67978 0.38187 0.4605 0.0
C997 C 0.64794 0.39258 0.46583 0.0
C998 C 0.71433 0.38457 0.55459 0.0
C999 C 0.69034 0.37419 0.42394 0.0
H1000 H 0.83018 0.40914 0.46933 0.0
H1001 H 0.7732 0.30457 0.47769 0.0
H1002 H 0.75221 0.43747 0.45817 0.0
H1003 H 0.76072 0.44099 0.5039 0.0
H1004 H 0.79942 0.45101 0.47425 0.0
H1005 H 0.70898 0.28443 0.48812 0.0
H1006 H 0.69098 0.3129 0.51436 0.0
H1007 H 0.68264 0.30924 0.46863 0.0
H1008 H 0.65157 0.40397 0.55369 0.0
H1009 H 0.63165 0.39558 0.44368 0.0
H1010 H 0.74206 0.40334 0.55322 0.0
H1011 H 0.719 0.35946 0.55495 0.0
H1012 H 0.70086 0.38902 0.57932 0.0
H1013 H 0.71686 0.39272 0.41683 0.0
H1014 H 0.66869 0.37493 0.40468 0.0
H1015 H 0.69496 0.34903 0.42219 0.0
loop_
_geom_bond_atom_site_label_1
_geom_bond_atom_site_label_2
_geom_bond_distance
_geom_bond_site_symmetry_2
_ccdc_geom_bond_type
H0 C3 0.929 . S
H1 C6 0.929 . S
H2 C8 0.930 . S
C3 H0 0.929 . S
C3 C4 1.398 . S
C3 C5 1.396 . S
C4 C3 1.398 . S
C4 C8 1.407 . S
C5 C3 1.396 . S
C5 C6 1.394 . S
C6 H1 0.929 . S
C6 C5 1.394 . S
C6 C7 1.382 . S
C7 C6 1.382 . S
C7 C8 1.392 . S
C7 N9 1.420 . S
C8 H2 0.930 . S
C8 C4 1.407 . S
C8 C7 1.392 . S
N9 C7 1.420 . S
N9 C10 1.244 . S
C10 N9 1.244 . S
H11 C14 0.929 . S
H12 C17 0.929 . S
H13 C19 0.930 . S
C14 H11 0.929 . S
C14 C15 1.398 . S
C14 C16 1.396 . S
C15 C14 1.398 . S
C15 C19 1.407 . S
C16 C14 1.396 . S
C16 C17 1.394 . S
C17 H12 0.929 . S
C17 C16 1.394 . S
C17 C18 1.382 . S
C18 C17 1.382 . S
C18 C19 1.392 . S
C18 N20 1.420 . S
C19 H13 0.930 . S
C19 C15 1.407 . S
C19 C18 1.392 . S
N20 C18 1.420 . S
N20 C21 1.244 . S
C21 N20 1.244 . S
H22 C25 0.929 . S
H23 C28 0.929 . S
H24 C30 0.930 . S
C25 H22 0.929 . S
C25 C26 1.398 . S
C25 C27 1.396 . S
C26 C25 1.398 . S
C26 C30 1.407 . S
C27 C25 1.396 . S
C27 C28 1.394 . S
C28 H23 0.929 . S
C28 C27 1.394 . S
C28 C29 1.382 . S
C29 C28 1.382 . S
C29 C30 1.392 . S
C29 N31 1.420 . S
C30 H24 0.930 . S
C30 C26 1.407 . S
C30 C29 1.392 . S
N31 C29 1.420 . S
N31 C32 1.244 . S
C32 N31 1.244 . S
H33 C36 0.929 . S
H34 C39 0.929 . S
H35 C41 0.930 . S
C36 H33 0.929 . S
C36 C37 1.398 . S
C36 C38 1.396 . S
C37 C36 1.398 . S
C37 C41 1.407 . S
C38 C36 1.396 . S
C38 C39 1.394 . S
C39 H34 0.929 . S
C39 C38 1.394 . S
C39 C40 1.382 . S
C40 C39 1.382 . S
C40 C41 1.392 . S
C40 N42 1.420 . S
C41 H35 0.930 . S
C41 C37 1.407 . S
C41 C40 1.392 . S
N42 C40 1.420 . S
N42 C43 1.244 . S
C43 N42 1.244 . S
H44 C47 0.929 . S
H45 C50 0.929 . S
H46 C52 0.930 . S
C47 H44 0.929 . S
C47 C48 1.398 . S
C47 C49 1.396 . S
C48 C47 1.398 . S
C48 C52 1.407 . S
C49 C47 1.396 . S
C49 C50 1.394 . S
C50 H45 0.929 . S
C50 C49 1.394 . S
C50 C51 1.382 . S
C51 C50 1.382 . S
C51 C52 1.392 . S
C51 N53 1.420 . S
C52 H46 0.930 . S
C52 C48 1.407 . S
C52 C51 1.392 . S
N53 C51 1.420 . S
N53 C54 1.244 . S
C54 N53 1.244 . S
H55 C58 0.929 . S
H56 C61 0.929 . S
H57 C63 0.930 . S
C58 H55 0.929 . S
C58 C59 1.398 . S
C58 C60 1.396 . S
C59 C58 1.398 . S
C59 C63 1.407 . S
C60 C58 1.396 . S
C60 C61 1.394 . S
C61 H56 0.929 . S
C61 C60 1.394 . S
C61 C62 1.382 . S
C62 C61 1.382 . S
C62 C63 1.392 . S
C62 N64 1.420 . S
C63 H57 0.930 . S
C63 C59 1.407 . S
C63 C62 1.392 . S
N64 C62 1.420 . S
N64 C65 1.244 . S
C65 N64 1.244 . S
H66 C69 0.929 . S
H67 C72 0.929 . S
H68 C74 0.930 . S
C69 H66 0.929 . S
C69 C70 1.398 . S
C69 C71 1.396 . S
C70 C69 1.398 . S
C70 C74 1.407 . S
C71 C69 1.396 . S
C71 C72 1.394 . S
C72 H67 0.929 . S
C72 C71 1.394 . S
C72 C73 1.382 . S
C73 C72 1.382 . S
C73 C74 1.392 . S
C73 N75 1.420 . S
C74 H68 0.930 . S
C74 C70 1.407 . S
C74 C73 1.392 . S
N75 C73 1.420 . S
N75 C76 1.244 . S
C76 N75 1.244 . S
H77 C80 0.929 . S
H78 C83 0.929 . S
H79 C85 0.930 . S
C80 H77 0.929 . S
C80 C81 1.398 . S
C80 C82 1.396 . S
C81 C80 1.398 . S
C81 C85 1.407 . S
C82 C80 1.396 . S
C82 C83 1.394 . S
C83 H78 0.929 . S
C83 C82 1.394 . S
C83 C84 1.382 . S
C84 C83 1.382 . S
C84 C85 1.392 . S
C84 N86 1.420 . S
C85 H79 0.930 . S
C85 C81 1.407 . S
C85 C84 1.392 . S
N86 C84 1.420 . S
N86 C87 1.244 . S
C87 N86 1.244 . S
Ho88 C91 2.811 . S
Ho88 O108 2.322 . S
Ho88 O110 2.378 . S
Ho88 O111 2.524 . S
Ho88 O112 2.381 . S
Ho88 O113 2.669 . S
Ho88 O115 2.346 1_445 S
Ho88 O119 2.305 1_455 S
Ho89 C100 2.811 1_545 S
Ho89 O109 2.346 1_655 S
Ho89 O113 2.305 1_655 S
Ho89 O114 2.322 1_545 S
Ho89 O116 2.378 1_545 S
Ho89 O117 2.524 1_545 S
Ho89 O118 2.381 . S
Ho89 O119 2.669 . S
C90 O108 1.259 . S
C90 O109 1.268 . S
C91 Ho88 2.811 . S
C91 C92 1.488 . S
C91 O110 1.215 . S
C91 O111 1.289 . S
C92 C91 1.488 . S
C92 C93 1.348 . S
C92 C97 1.413 . S
C93 C92 1.348 . S
C93 C94 1.442 . S
C93 H120 0.930 . S
C94 C93 1.442 . S
C94 C95 1.381 . S
C94 H121 0.931 . S
C95 C94 1.381 . S
C95 C96 1.321 . S
C96 C95 1.321 . S
C96 C97 1.403 . S
C96 H122 0.934 . S
C97 C92 1.413 . S
C97 C96 1.403 . S
C97 H123 0.930 . S
C98 O112 1.275 1_565 S
C98 O113 1.256 1_565 S
C99 O114 1.259 . S
C99 O115 1.268 . S
C100 Ho89 2.811 1_565 S
C100 C101 1.488 . S
C100 O116 1.215 . S
C100 O117 1.289 . S
C101 C100 1.488 . S
C101 C102 1.348 . S
C101 C106 1.413 . S
C102 C101 1.348 . S
C102 C103 1.442 . S
C102 H124 0.930 . S
C103 C102 1.442 . S
C103 C104 1.381 . S
C103 H125 0.931 . S
C104 C103 1.381 . S
C104 C105 1.321 . S
C105 C104 1.321 . S
C105 C106 1.403 . S
C105 H126 0.934 . S
C106 C101 1.413 . S
C106 C105 1.403 . S
C106 H127 0.930 . S
C107 O118 1.275 . S
C107 O119 1.256 . S
O108 Ho88 2.322 . S
O108 C90 1.259 . S
O109 Ho89 2.346 1_455 S
O109 C90 1.268 . S
O110 Ho88 2.378 . S
O110 C91 1.215 . S
O111 Ho88 2.524 . S
O111 C91 1.289 . S
O112 Ho88 2.381 . S
O112 C98 1.275 1_545 S
O113 Ho88 2.669 . S
O113 Ho89 2.305 1_455 S
O113 C98 1.256 1_545 S
O114 Ho89 2.322 1_565 S
O114 C99 1.259 . S
O115 Ho88 2.346 1_665 S
O115 C99 1.268 . S
O116 Ho89 2.378 1_565 S
O116 C100 1.215 . S
O117 Ho89 2.524 1_565 S
O117 C100 1.289 . S
O118 Ho89 2.381 . S
O118 C107 1.275 . S
O119 Ho88 2.305 1_655 S
O119 Ho89 2.669 . S
O119 C107 1.256 . S
H120 C93 0.930 . S
H121 C94 0.931 . S
H122 C96 0.934 . S
H123 C97 0.930 . S
H124 C102 0.930 . S
H125 C103 0.931 . S
H126 C105 0.934 . S
H127 C106 0.930 . S
Ho128 C131 2.811 . S
Ho128 O148 2.322 . S
Ho128 O150 2.378 . S
Ho128 O151 2.524 . S
Ho128 O152 2.381 1_545 S
Ho128 O153 2.669 1_545 S
Ho128 O155 2.346 1_545 S
Ho128 O159 2.305 . S
Ho129 C140 2.811 1_544 S
Ho129 O149 2.346 . S
Ho129 O153 2.305 1_545 S
Ho129 O154 2.322 . S
Ho129 O156 2.378 1_554 S
Ho129 O157 2.524 1_544 S
Ho129 O158 2.381 . S
Ho129 O159 2.669 . S
C130 O148 1.259 . S
C130 O149 1.268 . S
C131 Ho128 2.811 . S
C131 C132 1.488 . S
C131 O150 1.215 . S
C131 O151 1.289 . S
C132 C131 1.488 . S
C132 C133 1.348 . S
C132 C137 1.413 . S
C133 C132 1.348 . S
C133 C134 1.442 . S
C133 H160 0.930 . S
C134 C133 1.442 . S
C134 C135 1.381 . S
C134 H161 0.931 . S
C135 C134 1.381 . S
C135 C136 1.321 . S
C136 C135 1.321 . S
C136 C137 1.403 . S
C136 H162 0.934 . S
C137 C132 1.413 . S
C137 C136 1.403 . S
C137 H163 0.930 . S
C138 O152 1.275 . S
C138 O153 1.256 . S
C139 O154 1.259 1_565 S
C139 O155 1.268 . S
C140 Ho129 2.811 1_566 S
C140 C141 1.488 . S
C140 O156 1.215 1_565 S
C140 O157 1.289 . S
C141 C140 1.488 . S
C141 C142 1.348 . S
C141 C146 1.413 . S
C142 C141 1.348 . S
C142 C143 1.442 . S
C142 H164 0.930 . S
C143 C142 1.442 . S
C143 C144 1.381 . S
C143 H165 0.931 . S
C144 C143 1.381 . S
C144 C145 1.321 . S
C145 C144 1.321 . S
C145 C146 1.403 . S
C145 H166 0.934 . S
C146 C141 1.413 . S
C146 C145 1.403 . S
C146 H167 0.959 . S
C147 O158 1.275 . S
C147 O159 1.256 . S
O148 Ho128 2.322 . S
O148 C130 1.259 . S
O149 Ho129 2.346 . S
O149 C130 1.268 . S
O150 Ho128 2.378 . S
O150 C131 1.215 . S
O151 Ho128 2.524 . S
O151 C131 1.289 . S
O152 Ho128 2.381 1_565 S
O152 C138 1.275 . S
O153 Ho128 2.669 1_565 S
O153 Ho129 2.305 1_565 S
O153 C138 1.256 . S
O154 Ho129 2.322 . S
O154 C139 1.259 1_545 S
O155 Ho128 2.346 1_565 S
O155 C139 1.268 . S
O156 Ho129 2.378 1_556 S
O156 C140 1.215 1_545 S
O157 Ho129 2.524 1_566 S
O157 C140 1.289 . S
O158 Ho129 2.381 . S
O158 C147 1.275 . S
O159 Ho128 2.305 . S
O159 Ho129 2.669 . S
O159 C147 1.256 . S
H160 C133 0.930 . S
H161 C134 0.931 . S
H162 C136 0.934 . S
H163 C137 0.930 . S
H164 C142 0.930 . S
H165 C143 0.931 . S
H166 C145 0.934 . S
H167 C146 0.959 . S
Ho168 C171 2.811 . S
Ho168 O188 2.322 . S
Ho168 O190 2.378 . S
Ho168 O191 2.524 . S
Ho168 O192 2.381 . S
Ho168 O193 2.669 . S
Ho168 O195 2.346 . S
Ho168 O199 2.305 . S
Ho169 C180 2.811 . S
Ho169 O189 2.346 . S
Ho169 O193 2.305 . S
Ho169 O194 2.322 . S
Ho169 O196 2.378 . S
Ho169 O197 2.524 . S
Ho169 O198 2.381 . S
Ho169 O199 2.669 . S
C170 O188 1.259 . S
C170 O189 1.268 . S
C171 Ho168 2.811 . S
C171 C172 1.488 . S
C171 O190 1.215 . S
C171 O191 1.289 . S
C172 C171 1.488 . S
C172 C173 1.348 . S
C172 C177 1.413 . S
C173 C172 1.348 . S
C173 C174 1.442 . S
C173 H200 0.930 . S
C174 C173 1.442 . S
C174 C175 1.381 . S
C174 H201 0.931 . S
C175 C174 1.381 . S
C175 C176 1.321 . S
C176 C175 1.321 . S
C176 C177 1.403 . S
C176 H202 0.934 . S
C177 C172 1.413 . S
C177 C176 1.403 . S
C177 H203 0.930 . S
C178 O192 1.275 . S
C178 O193 1.256 . S
C179 O194 1.259 . S
C179 O195 1.268 . S
C180 Ho169 2.811 . S
C180 C181 1.488 . S
C180 O196 1.215 . S
C180 O197 1.289 . S
C181 C180 1.488 . S
C181 C182 1.348 . S
C181 C186 1.413 . S
C182 C181 1.348 . S
C182 C183 1.442 . S
C182 H204 0.930 . S
C183 C182 1.442 . S
C183 C184 1.381 . S
C183 H205 0.931 . S
C184 C183 1.381 . S
C184 C185 1.321 . S
C185 C184 1.321 . S
C185 C186 1.403 . S
C185 H206 0.934 . S
C186 C181 1.413 . S
C186 C185 1.403 . S
C186 H207 0.930 . S
C187 O198 1.275 . S
C187 O199 1.256 . S
O188 Ho168 2.322 . S
O188 C170 1.259 . S
O189 Ho169 2.346 . S
O189 C170 1.268 . S
O190 Ho168 2.378 . S
O190 C171 1.215 . S
O191 Ho168 2.524 . S
O191 C171 1.289 . S
O192 Ho168 2.381 . S
O192 C178 1.275 . S
O193 Ho168 2.669 . S
O193 Ho169 2.305 . S
O193 C178 1.256 . S
O194 Ho169 2.322 . S
O194 C179 1.259 . S
O195 Ho168 2.346 . S
O195 C179 1.268 . S
O196 Ho169 2.378 . S
O196 C180 1.215 . S
O197 Ho169 2.524 . S
O197 C180 1.289 . S
O198 Ho169 2.381 . S
O198 C187 1.275 . S
O199 Ho168 2.305 . S
O199 Ho169 2.669 . S
O199 C187 1.256 . S
H200 C173 0.930 . S
H201 C174 0.931 . S
H202 C176 0.934 . S
H203 C177 0.930 . S
H204 C182 0.930 . S
H205 C183 0.931 . S
H206 C185 0.934 . S
H207 C186 0.930 . S
Ho208 C211 2.811 . S
Ho208 O228 2.322 . S
Ho208 O230 2.378 . S
Ho208 O231 2.524 . S
Ho208 O232 2.381 . S
Ho208 O233 2.669 . S
Ho208 O235 2.346 1_455 S
Ho208 O239 2.305 1_554 S
Ho209 C220 2.811 1_454 S
Ho209 O229 2.346 . S
Ho209 O233 2.305 . S
Ho209 O234 2.322 1_454 S
Ho209 O236 2.365 1_454 S
Ho209 O237 2.524 1_455 S
Ho209 O238 2.381 1_554 S
Ho209 O239 2.669 1_554 S
C210 O228 1.259 . S
C210 O229 1.268 . S
C211 Ho208 2.811 . S
C211 C212 1.488 . S
C211 O230 1.215 . S
C211 O231 1.289 . S
C212 C211 1.488 . S
C212 C213 1.348 . S
C212 C217 1.413 . S
C213 C212 1.348 . S
C213 C214 1.442 . S
C213 H240 0.930 . S
C214 C213 1.442 . S
C214 C215 1.381 . S
C214 H241 0.931 . S
C215 C214 1.381 . S
C215 C216 1.321 . S
C216 C215 1.321 . S
C216 C217 1.403 . S
C216 H242 0.934 . S
C217 C212 1.413 . S
C217 C216 1.403 . S
C217 H243 0.930 . S
C218 O232 1.275 1_655 S
C218 O233 1.256 1_655 S
C219 O234 1.259 . S
C219 O235 1.268 1_556 S
C220 Ho209 2.811 1_656 S
C220 C221 1.488 . S
C220 O236 1.237 . S
C220 O237 1.285 1_556 S
C221 C220 1.488 . S
C221 C222 1.348 . S
C221 C226 1.413 . S
C222 C221 1.348 . S
C222 C223 1.442 . S
C222 H244 0.930 . S
C223 C222 1.442 . S
C223 C224 1.381 . S
C223 H245 0.931 . S
C224 C223 1.381 . S
C224 C225 1.321 . S
C225 C224 1.321 . S
C225 C226 1.403 . S
C225 H246 0.934 . S
C226 C221 1.413 . S
C226 C225 1.403 . S
C226 H247 0.930 . S
C227 O238 1.275 . S
C227 O239 1.256 . S
O228 Ho208 2.322 . S
O228 C210 1.259 . S
O229 Ho209 2.346 . S
O229 C210 1.268 . S
O230 Ho208 2.378 . S
O230 C211 1.215 . S
O231 Ho208 2.524 . S
O231 C211 1.289 . S
O232 Ho208 2.381 . S
O232 C218 1.275 1_455 S
O233 Ho208 2.669 . S
O233 Ho209 2.305 . S
O233 C218 1.256 1_455 S
O234 Ho209 2.322 1_656 S
O234 C219 1.259 . S
O235 Ho208 2.346 1_655 S
O235 C219 1.268 1_554 S
O236 Ho209 2.365 1_656 S
O236 C220 1.237 . S
O237 Ho209 2.524 1_655 S
O237 C220 1.285 1_554 S
O238 Ho209 2.381 1_556 S
O238 C227 1.275 . S
O239 Ho208 2.305 1_556 S
O239 Ho209 2.669 1_556 S
O239 C227 1.256 . S
H240 C213 0.930 . S
H241 C214 0.931 . S
H242 C216 0.934 . S
H243 C217 0.930 . S
H244 C222 0.930 . S
H245 C223 0.931 . S
H246 C225 0.934 . S
H247 C226 0.930 . S
C248 C249 1.391 . S
C248 C250 1.394 . S
C248 H264 0.931 . S
C249 C248 1.391 . S
C249 C253 1.376 . S
C250 C248 1.394 . S
C250 C251 1.369 . S
C250 C254 1.531 . S
C251 C250 1.369 . S
C251 C252 1.410 . S
C251 C259 1.503 . S
C252 C251 1.410 . S
C252 C253 1.392 . S
C252 C255 1.511 . S
C253 C249 1.376 . S
C253 C252 1.392 . S
C253 H265 0.929 . S
C254 C250 1.531 . S
C254 H266 0.960 . S
C254 H267 0.962 . S
C254 H268 0.960 . S
C255 C252 1.511 . S
C255 H269 0.961 . S
C255 H270 0.961 . S
C255 H271 0.961 . S
C256 C257 1.370 . S
C256 C258 1.363 . S
C256 H272 0.931 . S
C257 C256 1.370 . S
C257 C261 1.408 . S
C258 C256 1.363 . S
C258 C259 1.370 . S
C258 C262 1.524 . S
C259 C251 1.503 . S
C259 C258 1.370 . S
C259 C260 1.403 . S
C260 C259 1.403 . S
C260 C261 1.404 . S
C260 C263 1.539 . S
C261 C257 1.408 . S
C261 C260 1.404 . S
C261 H273 0.930 . S
C262 C258 1.524 . S
C262 H274 0.956 . S
C262 H275 0.961 . S
C262 H276 0.961 . S
C263 C260 1.539 . S
C263 H277 0.958 . S
C263 H278 0.961 . S
C263 H279 0.960 . S
H264 C248 0.931 . S
H265 C253 0.929 . S
H266 C254 0.960 . S
H267 C254 0.962 . S
H268 C254 0.960 . S
H269 C255 0.961 . S
H270 C255 0.961 . S
H271 C255 0.961 . S
H272 C256 0.931 . S
H273 C261 0.930 . S
H274 C262 0.956 . S
H275 C262 0.961 . S
H276 C262 0.961 . S
H277 C263 0.958 . S
H278 C263 0.961 . S
H279 C263 0.960 . S
C280 C281 1.391 . S
C280 C282 1.394 . S
C280 H296 0.931 . S
C281 C280 1.391 . S
C281 C285 1.376 . S
C282 C280 1.394 . S
C282 C283 1.369 . S
C282 C286 1.531 . S
C283 C282 1.369 . S
C283 C284 1.410 . S
C283 C291 1.503 . S
C284 C283 1.410 . S
C284 C285 1.392 . S
C284 C287 1.511 . S
C285 C281 1.376 . S
C285 C284 1.392 . S
C285 H297 0.929 . S
C286 C282 1.531 . S
C286 H298 0.960 . S
C286 H299 0.962 . S
C286 H300 0.960 . S
C287 C284 1.511 . S
C287 H301 0.961 . S
C287 H302 0.961 . S
C287 H303 0.961 . S
C288 C289 1.370 . S
C288 C290 1.363 . S
C288 H304 0.931 . S
C289 C288 1.370 . S
C289 C293 1.408 . S
C290 C288 1.363 . S
C290 C291 1.370 . S
C290 C294 1.524 . S
C291 C283 1.503 . S
C291 C290 1.370 . S
C291 C292 1.403 . S
C292 C291 1.403 . S
C292 C293 1.404 . S
C292 C295 1.539 . S
C293 C289 1.408 . S
C293 C292 1.404 . S
C293 H305 0.930 . S
C294 C290 1.524 . S
C294 H306 0.956 . S
C294 H307 0.961 . S
C294 H308 0.961 . S
C295 C292 1.539 . S
C295 H309 0.958 . S
C295 H310 0.961 . S
C295 H311 0.960 . S
H296 C280 0.931 . S
H297 C285 0.929 . S
H298 C286 0.960 . S
H299 C286 0.962 . S
H300 C286 0.960 . S
H301 C287 0.961 . S
H302 C287 0.961 . S
H303 C287 0.961 . S
H304 C288 0.931 . S
H305 C293 0.930 . S
H306 C294 0.956 . S
H307 C294 0.961 . S
H308 C294 0.961 . S
H309 C295 0.958 . S
H310 C295 0.961 . S
H311 C295 0.960 . S
C312 C313 1.391 . S
C312 C314 1.394 . S
C312 H328 0.931 . S
C313 C312 1.391 . S
C313 C317 1.376 . S
C314 C312 1.394 . S
C314 C315 1.369 . S
C314 C318 1.531 . S
C315 C314 1.369 . S
C315 C316 1.410 . S
C315 C323 1.503 . S
C316 C315 1.410 . S
C316 C317 1.392 . S
C316 C319 1.511 . S
C317 C313 1.376 . S
C317 C316 1.392 . S
C317 H329 0.929 . S
C318 C314 1.531 . S
C318 H330 0.960 . S
C318 H331 0.962 . S
C318 H332 0.960 . S
C319 C316 1.511 . S
C319 H333 0.961 . S
C319 H334 0.961 . S
C319 H335 0.961 . S
C320 C321 1.370 . S
C320 C322 1.363 . S
C320 H336 0.931 . S
C321 C320 1.370 . S
C321 C325 1.408 . S
C322 C320 1.363 . S
C322 C323 1.370 . S
C322 C326 1.524 . S
C323 C315 1.503 . S
C323 C322 1.370 . S
C323 C324 1.403 . S
C324 C323 1.403 . S
C324 C325 1.404 . S
C324 C327 1.539 . S
C325 C321 1.408 . S
C325 C324 1.404 . S
C325 H337 0.930 . S
C326 C322 1.524 . S
C326 H338 0.956 . S
C326 H339 0.961 . S
C326 H340 0.961 . S
C327 C324 1.539 . S
C327 H341 0.958 . S
C327 H342 0.961 . S
C327 H343 0.960 . S
H328 C312 0.931 . S
H329 C317 0.929 . S
H330 C318 0.960 . S
H331 C318 0.962 . S
H332 C318 0.960 . S
H333 C319 0.961 . S
H334 C319 0.961 . S
H335 C319 0.961 . S
H336 C320 0.931 . S
H337 C325 0.930 . S
H338 C326 0.956 . S
H339 C326 0.961 . S
H340 C326 0.961 . S
H341 C327 0.958 . S
H342 C327 0.961 . S
H343 C327 0.960 . S
C344 C345 1.391 . S
C344 C346 1.394 . S
C344 H360 0.931 . S
C345 C344 1.391 . S
C345 C349 1.376 . S
C346 C344 1.394 . S
C346 C347 1.369 . S
C346 C350 1.531 . S
C347 C346 1.369 . S
C347 C348 1.410 . S
C347 C355 1.503 . S
C348 C347 1.410 . S
C348 C349 1.392 . S
C348 C351 1.511 . S
C349 C345 1.376 . S
C349 C348 1.392 . S
C349 H361 0.929 . S
C350 C346 1.531 . S
C350 H362 0.960 . S
C350 H363 0.962 . S
C350 H364 0.960 1_655 S
C351 C348 1.511 . S
C351 H365 0.961 . S
C351 H366 0.961 . S
C351 H367 0.961 . S
C352 C353 1.370 . S
C352 C354 1.363 . S
C352 H368 0.931 . S
C353 C352 1.370 . S
C353 C357 1.408 . S
C354 C352 1.363 . S
C354 C355 1.370 . S
C354 C358 1.524 . S
C355 C347 1.503 . S
C355 C354 1.370 . S
C355 C356 1.403 . S
C356 C355 1.403 . S
C356 C357 1.404 . S
C356 C359 1.539 . S
C357 C353 1.408 . S
C357 C356 1.404 . S
C357 H369 0.930 . S
C358 C354 1.524 . S
C358 H370 0.956 . S
C358 H371 0.961 . S
C358 H372 0.961 . S
C359 C356 1.539 . S
C359 H373 0.958 . S
C359 H374 0.961 . S
C359 H375 0.960 . S
H360 C344 0.931 . S
H361 C349 0.929 . S
H362 C350 0.960 . S
H363 C350 0.962 . S
H364 C350 0.960 1_455 S
H365 C351 0.961 . S
H366 C351 0.961 . S
H367 C351 0.961 . S
H368 C352 0.931 . S
H369 C357 0.930 . S
H370 C358 0.956 . S
H371 C358 0.961 . S
H372 C358 0.961 . S
H373 C359 0.958 . S
H374 C359 0.961 . S
H375 C359 0.960 . S
C376 C377 1.391 . S
C376 C378 1.394 . S
C376 H392 0.931 . S
C377 C376 1.391 . S
C377 C381 1.376 . S
C378 C376 1.394 . S
C378 C379 1.369 . S
C378 C382 1.531 . S
C379 C378 1.369 . S
C379 C380 1.410 . S
C379 C387 1.503 . S
C380 C379 1.410 . S
C380 C381 1.392 . S
C380 C383 1.511 . S
C381 C377 1.376 . S
C381 C380 1.392 . S
C381 H393 0.929 . S
C382 C378 1.531 . S
C382 H394 0.960 . S
C382 H395 0.962 . S
C382 H396 0.960 . S
C383 C380 1.511 . S
C383 H397 0.961 . S
C383 H398 0.961 . S
C383 H399 0.961 . S
C384 C385 1.370 . S
C384 C386 1.363 . S
C384 H400 0.931 . S
C385 C384 1.370 . S
C385 C389 1.408 . S
C386 C384 1.363 . S
C386 C387 1.370 . S
C386 C390 1.524 . S
C387 C379 1.503 . S
C387 C386 1.370 . S
C387 C388 1.403 . S
C388 C387 1.403 . S
C388 C389 1.404 . S
C388 C391 1.539 . S
C389 C385 1.408 . S
C389 C388 1.404 . S
C389 H401 0.930 . S
C390 C386 1.524 . S
C390 H402 0.956 . S
C390 H403 0.961 . S
C390 H404 0.961 . S
C391 C388 1.539 . S
C391 H405 0.958 . S
C391 H406 0.961 . S
C391 H407 0.960 . S
H392 C376 0.931 . S
H393 C381 0.929 . S
H394 C382 0.960 . S
H395 C382 0.962 . S
H396 C382 0.960 . S
H397 C383 0.961 . S
H398 C383 0.961 . S
H399 C383 0.961 . S
H400 C384 0.931 . S
H401 C389 0.930 . S
H402 C390 0.956 . S
H403 C390 0.961 . S
H404 C390 0.961 . S
H405 C391 0.958 . S
H406 C391 0.961 . S
H407 C391 0.960 . S
C408 C409 1.391 . S
C408 C410 1.394 . S
C408 H424 0.931 . S
C409 C408 1.391 . S
C409 C413 1.376 . S
C410 C408 1.394 . S
C410 C411 1.369 . S
C410 C414 1.531 . S
C411 C410 1.369 . S
C411 C412 1.410 . S
C411 C419 1.503 . S
C412 C411 1.410 . S
C412 C413 1.392 . S
C412 C415 1.511 . S
C413 C409 1.376 . S
C413 C412 1.392 . S
C413 H425 0.929 . S
C414 C410 1.531 . S
C414 H426 0.960 . S
C414 H427 0.962 . S
C414 H428 0.960 . S
C415 C412 1.511 . S
C415 H429 0.961 . S
C415 H430 0.961 . S
C415 H431 0.961 . S
C416 C417 1.370 . S
C416 C418 1.363 . S
C416 H432 0.931 . S
C417 C416 1.370 . S
C417 C421 1.408 1_565 S
C418 C416 1.363 . S
C418 C419 1.370 . S
C418 C422 1.524 . S
C419 C411 1.503 . S
C419 C418 1.370 . S
C419 C420 1.403 . S
C420 C419 1.403 . S
C420 C421 1.404 1_565 S
C420 C423 1.539 1_565 S
C421 C417 1.408 1_545 S
C421 C420 1.404 1_545 S
C421 H433 0.930 . S
C422 C418 1.524 . S
C422 H434 0.956 . S
C422 H435 0.961 . S
C422 H436 0.961 . S
C423 C420 1.539 1_545 S
C423 H437 0.958 . S
C423 H438 0.961 . S
C423 H439 0.943 1_545 S
H424 C408 0.931 . S
H425 C413 0.929 . S
H426 C414 0.960 . S
H427 C414 0.962 . S
H428 C414 0.960 . S
H429 C415 0.961 . S
H430 C415 0.961 . S
H431 C415 0.961 . S
H432 C416 0.931 . S
H433 C421 0.930 . S
H434 C422 0.956 . S
H435 C422 0.961 . S
H436 C422 0.961 . S
H437 C423 0.958 . S
H438 C423 0.961 . S
H439 C423 0.943 1_565 S
C440 C441 1.391 . S
C440 C442 1.394 . S
C440 H456 0.931 . S
C441 C440 1.391 . S
C441 C445 1.376 . S
C442 C440 1.394 . S
C442 C443 1.369 . S
C442 C446 1.531 . S
C443 C442 1.369 . S
C443 C444 1.410 . S
C443 C451 1.503 . S
C444 C443 1.410 . S
C444 C445 1.392 . S
C444 C447 1.511 . S
C445 C441 1.376 . S
C445 C444 1.392 . S
C445 H457 0.929 . S
C446 C442 1.531 . S
C446 H458 0.960 . S
C446 H459 0.962 . S
C446 H460 0.960 . S
C447 C444 1.511 . S
C447 H461 0.961 . S
C447 H462 0.961 . S
C447 H463 0.961 . S
C448 C449 1.370 . S
C448 C450 1.363 . S
C448 H464 0.931 . S
C449 C448 1.370 . S
C449 C453 1.408 1_556 S
C450 C448 1.363 . S
C450 C451 1.370 . S
C450 C454 1.524 . S
C451 C443 1.503 . S
C451 C450 1.370 . S
C451 C452 1.403 . S
C452 C451 1.403 . S
C452 C453 1.404 1_556 S
C452 C455 1.539 1_556 S
C453 C449 1.408 1_554 S
C453 C452 1.404 1_554 S
C453 H465 0.930 . S
C454 C450 1.524 . S
C454 H466 0.956 . S
C454 H467 0.961 . S
C454 H468 0.961 . S
C455 C452 1.539 1_554 S
C455 H469 0.958 . S
C455 H470 0.961 . S
C455 H471 0.960 . S
H456 C440 0.931 . S
H457 C445 0.929 . S
H458 C446 0.960 . S
H459 C446 0.962 . S
H460 C446 0.960 . S
H461 C447 0.961 . S
H462 C447 0.961 . S
H463 C447 0.961 . S
H464 C448 0.931 . S
H465 C453 0.930 . S
H466 C454 0.956 . S
H467 C454 0.961 . S
H468 C454 0.961 . S
H469 C455 0.958 . S
H470 C455 0.961 . S
H471 C455 0.960 . S
C472 C473 1.391 . S
C472 C474 1.394 . S
C472 H488 0.931 . S
C473 C472 1.391 . S
C473 C477 1.376 . S
C474 C472 1.394 . S
C474 C475 1.369 . S
C474 C478 1.531 . S
C475 C474 1.369 . S
C475 C476 1.410 . S
C475 C483 1.503 . S
C476 C475 1.410 . S
C476 C477 1.392 . S
C476 C479 1.511 . S
C477 C473 1.376 . S
C477 C476 1.392 . S
C477 H489 0.929 . S
C478 C474 1.531 . S
C478 H490 0.960 . S
C478 H491 0.962 . S
C478 H492 0.960 . S
C479 C476 1.511 . S
C479 H493 0.961 . S
C479 H494 0.961 . S
C479 H495 0.961 . S
C480 C481 1.370 . S
C480 C482 1.363 . S
C480 H496 0.931 . S
C481 C480 1.370 . S
C481 C485 1.408 . S
C482 C480 1.363 . S
C482 C483 1.370 . S
C482 C486 1.524 . S
C483 C475 1.503 . S
C483 C482 1.370 . S
C483 C484 1.403 . S
C484 C483 1.403 . S
C484 C485 1.404 . S
C484 C487 1.539 . S
C485 C481 1.408 . S
C485 C484 1.404 . S
C485 H497 0.930 . S
C486 C482 1.524 . S
C486 H498 0.956 . S
C486 H499 0.961 . S
C486 H500 0.961 . S
C487 C484 1.539 . S
C487 H501 0.958 . S
C487 H502 0.961 . S
C487 H503 0.960 . S
H488 C472 0.931 . S
H489 C477 0.929 . S
H490 C478 0.960 . S
H491 C478 0.962 . S
H492 C478 0.960 . S
H493 C479 0.961 . S
H494 C479 0.961 . S
H495 C479 0.961 . S
H496 C480 0.931 . S
H497 C485 0.930 . S
H498 C486 0.956 . S
H499 C486 0.961 . S
H500 C486 0.961 . S
H501 C487 0.958 . S
H502 C487 0.961 . S
H503 C487 0.960 . S
C504 C505 1.391 . S
C504 C506 1.394 . S
C504 H520 0.931 . S
C505 C504 1.391 . S
C505 C509 1.376 . S
C506 C504 1.394 . S
C506 C507 1.369 . S
C506 C510 1.531 . S
C507 C506 1.369 . S
C507 C508 1.410 . S
C507 C515 1.503 . S
C508 C507 1.410 . S
C508 C509 1.392 . S
C508 C511 1.511 . S
C509 C505 1.376 . S
C509 C508 1.392 . S
C509 H521 0.929 . S
C510 C506 1.531 . S
C510 H522 0.960 . S
C510 H523 0.962 . S
C510 H524 0.960 . S
C511 C508 1.511 . S
C511 H525 0.961 . S
C511 H526 0.961 . S
C511 H527 0.961 . S
C512 C513 1.370 . S
C512 C514 1.363 . S
C512 H528 0.931 . S
C513 C512 1.370 . S
C513 C517 1.408 . S
C514 C512 1.363 . S
C514 C515 1.370 . S
C514 C518 1.524 . S
C515 C507 1.503 . S
C515 C514 1.370 . S
C515 C516 1.403 . S
C516 C515 1.403 . S
C516 C517 1.404 . S
C516 C519 1.539 . S
C517 C513 1.408 . S
C517 C516 1.404 . S
C517 H529 0.930 . S
C518 C514 1.524 . S
C518 H530 0.956 . S
C518 H531 0.961 . S
C518 H532 0.961 . S
C519 C516 1.539 . S
C519 H533 0.958 . S
C519 H534 0.961 . S
C519 H535 0.960 . S
H520 C504 0.931 . S
H521 C509 0.929 . S
H522 C510 0.960 . S
H523 C510 0.962 . S
H524 C510 0.960 . S
H525 C511 0.961 . S
H526 C511 0.961 . S
H527 C511 0.961 . S
H528 C512 0.931 . S
H529 C517 0.930 . S
H530 C518 0.956 . S
H531 C518 0.961 . S
H532 C518 0.961 . S
H533 C519 0.958 . S
H534 C519 0.961 . S
H535 C519 0.960 . S
C536 C537 1.391 . S
C536 C538 1.394 . S
C536 H552 0.931 . S
C537 C536 1.391 . S
C537 C541 1.376 . S
C538 C536 1.394 . S
C538 C539 1.369 . S
C538 C542 1.531 . S
C539 C538 1.369 . S
C539 C540 1.410 . S
C539 C547 1.503 . S
C540 C539 1.410 . S
C540 C541 1.392 . S
C540 C543 1.511 . S
C541 C537 1.376 . S
C541 C540 1.392 . S
C541 H553 0.929 . S
C542 C538 1.531 . S
C542 H554 0.960 . S
C542 H555 0.957 1_556 S
C542 H556 0.960 . S
C543 C540 1.511 . S
C543 H557 0.961 . S
C543 H558 0.961 . S
C543 H559 0.961 . S
C544 C545 1.371 1_554 S
C544 C546 1.363 1_554 S
C544 H560 0.931 . S
C545 C544 1.371 1_556 S
C545 C549 1.406 . S
C546 C544 1.363 1_556 S
C546 C547 1.370 . S
C546 C550 1.524 1_556 S
C547 C539 1.503 . S
C547 C546 1.370 . S
C547 C548 1.403 . S
C548 C547 1.403 . S
C548 C549 1.404 . S
C548 C551 1.539 . S
C549 C545 1.406 . S
C549 C548 1.404 . S
C549 H561 0.930 . S
C550 C546 1.524 1_554 S
C550 H562 0.956 . S
C550 H563 0.961 1_554 S
C550 H564 0.961 . S
C551 C548 1.539 . S
C551 H565 0.958 . S
C551 H566 0.961 . S
C551 H567 0.960 . S
H552 C536 0.931 . S
H553 C541 0.929 . S
H554 C542 0.960 . S
H555 C542 0.957 1_554 S
H556 C542 0.960 . S
H557 C543 0.961 . S
H558 C543 0.961 . S
H559 C543 0.961 . S
H560 C544 0.931 . S
H561 C549 0.930 . S
H562 C550 0.956 . S
H563 C550 0.961 1_556 S
H564 C550 0.961 . S
H565 C551 0.958 . S
H566 C551 0.961 . S
H567 C551 0.960 . S
C568 C569 1.391 . S
C568 C570 1.394 . S
C568 H584 0.931 . S
C569 C568 1.391 . S
C569 C573 1.376 . S
C570 C568 1.394 . S
C570 C571 1.369 . S
C570 C574 1.531 . S
C571 C570 1.369 . S
C571 C572 1.410 . S
C571 C579 1.503 . S
C572 C571 1.410 . S
C572 C573 1.392 . S
C572 C575 1.511 . S
C573 C569 1.376 . S
C573 C572 1.392 . S
C573 H585 0.929 . S
C574 C570 1.531 . S
C574 H586 0.960 . S
C574 H587 0.962 . S
C574 H588 0.960 . S
C575 C572 1.511 . S
C575 H589 0.961 . S
C575 H590 0.961 . S
C575 H591 0.961 . S
C576 C577 1.370 . S
C576 C578 1.363 . S
C576 H592 0.931 . S
C577 C576 1.370 . S
C577 C581 1.408 . S
C578 C576 1.363 . S
C578 C579 1.370 . S
C578 C582 1.524 . S
C579 C571 1.503 . S
C579 C578 1.370 . S
C579 C580 1.403 . S
C580 C579 1.403 . S
C580 C581 1.404 . S
C580 C583 1.539 . S
C581 C577 1.408 . S
C581 C580 1.404 . S
C581 H593 0.930 . S
C582 C578 1.524 . S
C582 H594 0.956 . S
C582 H595 0.961 . S
C582 H596 0.961 . S
C583 C580 1.539 . S
C583 H597 0.958 . S
C583 H598 0.961 . S
C583 H599 0.960 . S
H584 C568 0.931 . S
H585 C573 0.929 . S
H586 C574 0.960 . S
H587 C574 0.962 . S
H588 C574 0.960 . S
H589 C575 0.961 . S
H590 C575 0.961 . S
H591 C575 0.961 . S
H592 C576 0.931 . S
H593 C581 0.930 . S
H594 C582 0.956 . S
H595 C582 0.961 . S
H596 C582 0.961 . S
H597 C583 0.958 . S
H598 C583 0.961 . S
H599 C583 0.960 . S
C600 C601 1.391 . S
C600 C602 1.394 . S
C600 H616 0.931 . S
C601 C600 1.391 . S
C601 C605 1.376 . S
C602 C600 1.394 . S
C602 C603 1.369 . S
C602 C606 1.531 . S
C603 C602 1.369 . S
C603 C604 1.410 . S
C603 C611 1.503 . S
C604 C603 1.410 . S
C604 C605 1.392 . S
C604 C607 1.511 . S
C605 C601 1.376 . S
C605 C604 1.392 . S
C605 H617 0.929 . S
C606 C602 1.531 . S
C606 H618 0.960 . S
C606 H619 0.962 . S
C606 H620 0.960 . S
C607 C604 1.511 . S
C607 H621 0.961 . S
C607 H622 0.961 . S
C607 H623 0.961 . S
C608 C609 1.370 . S
C608 C610 1.363 . S
C608 H624 0.931 . S
C609 C608 1.370 . S
C609 C613 1.408 . S
C610 C608 1.363 . S
C610 C611 1.370 . S
C610 C614 1.524 . S
C611 C603 1.503 . S
C611 C610 1.370 . S
C611 C612 1.403 . S
C612 C611 1.403 . S
C612 C613 1.404 . S
C612 C615 1.539 . S
C613 C609 1.408 . S
C613 C612 1.404 . S
C613 H625 0.930 . S
C614 C610 1.524 . S
C614 H626 0.956 . S
C614 H627 0.961 . S
C614 H628 0.961 . S
C615 C612 1.539 . S
C615 H629 0.958 . S
C615 H630 0.961 . S
C615 H631 0.960 . S
H616 C600 0.931 . S
H617 C605 0.929 . S
H618 C606 0.960 . S
H619 C606 0.962 . S
H620 C606 0.960 . S
H621 C607 0.961 . S
H622 C607 0.961 . S
H623 C607 0.961 . S
H624 C608 0.931 . S
H625 C613 0.930 . S
H626 C614 0.956 . S
H627 C614 0.961 . S
H628 C614 0.961 . S
H629 C615 0.958 . S
H630 C615 0.961 . S
H631 C615 0.960 . S
C632 C633 1.391 . S
C632 C634 1.394 . S
C632 H648 0.931 . S
C633 C632 1.391 . S
C633 C637 1.376 . S
C634 C632 1.394 . S
C634 C635 1.369 . S
C634 C638 1.531 . S
C635 C634 1.369 . S
C635 C636 1.410 . S
C635 C643 1.503 . S
C636 C635 1.410 . S
C636 C637 1.392 . S
C636 C639 1.511 . S
C637 C633 1.376 . S
C637 C636 1.392 . S
C637 H649 0.929 . S
C638 C634 1.531 . S
C638 H650 0.960 . S
C638 H651 0.962 . S
C638 H652 0.960 . S
C639 C636 1.511 . S
C639 H653 0.961 . S
C639 H654 0.961 . S
C639 H655 0.961 . S
C640 C641 1.370 . S
C640 C642 1.363 . S
C640 H656 0.931 . S
C641 C640 1.370 . S
C641 C645 1.408 . S
C642 C640 1.363 . S
C642 C643 1.370 . S
C642 C646 1.524 . S
C643 C635 1.503 . S
C643 C642 1.370 . S
C643 C644 1.403 . S
C644 C643 1.403 . S
C644 C645 1.404 . S
C644 C647 1.539 . S
C645 C641 1.408 . S
C645 C644 1.404 . S
C645 H657 0.930 . S
C646 C642 1.524 . S
C646 H658 0.956 . S
C646 H659 0.961 . S
C646 H660 0.961 . S
C647 C644 1.539 . S
C647 H661 0.958 . S
C647 H662 0.961 . S
C647 H663 0.960 . S
H648 C632 0.931 . S
H649 C637 0.929 . S
H650 C638 0.960 . S
H651 C638 0.962 . S
H652 C638 0.960 . S
H653 C639 0.961 . S
H654 C639 0.961 . S
H655 C639 0.961 . S
H656 C640 0.931 . S
H657 C645 0.930 . S
H658 C646 0.956 . S
H659 C646 0.961 . S
H660 C646 0.961 . S
H661 C647 0.958 . S
H662 C647 0.961 . S
H663 C647 0.960 . S
C664 C665 1.391 . S
C664 C666 1.394 . S
C664 H680 0.931 . S
C665 C664 1.391 . S
C665 C669 1.376 . S
C666 C664 1.394 . S
C666 C667 1.369 . S
C666 C670 1.531 . S
C667 C666 1.369 . S
C667 C668 1.410 . S
C667 C675 1.503 . S
C668 C667 1.410 . S
C668 C669 1.392 . S
C668 C671 1.511 . S
C669 C665 1.376 . S
C669 C668 1.392 . S
C669 H681 0.929 . S
C670 C666 1.531 . S
C670 H682 0.960 . S
C670 H683 0.962 . S
C670 H684 0.960 . S
C671 C668 1.511 . S
C671 H685 0.961 . S
C671 H686 0.961 . S
C671 H687 0.961 . S
C672 C673 1.370 . S
C672 C674 1.363 . S
C672 H688 0.931 . S
C673 C672 1.370 . S
C673 C677 1.408 . S
C674 C672 1.363 . S
C674 C675 1.370 . S
C674 C678 1.524 . S
C675 C667 1.503 . S
C675 C674 1.370 . S
C675 C676 1.403 . S
C676 C675 1.403 . S
C676 C677 1.404 . S
C676 C679 1.539 . S
C677 C673 1.408 . S
C677 C676 1.404 . S
C677 H689 0.930 . S
C678 C674 1.524 . S
C678 H690 0.956 . S
C678 H691 0.961 . S
C678 H692 0.961 . S
C679 C676 1.539 . S
C679 H693 0.958 . S
C679 H694 0.961 . S
C679 H695 0.960 . S
H680 C664 0.931 . S
H681 C669 0.929 . S
H682 C670 0.960 . S
H683 C670 0.962 . S
H684 C670 0.960 . S
H685 C671 0.961 . S
H686 C671 0.961 . S
H687 C671 0.961 . S
H688 C672 0.931 . S
H689 C677 0.930 . S
H690 C678 0.956 . S
H691 C678 0.961 . S
H692 C678 0.961 . S
H693 C679 0.958 . S
H694 C679 0.961 . S
H695 C679 0.960 . S
C696 C697 1.391 . S
C696 C698 1.394 . S
C696 H712 0.931 . S
C697 C696 1.391 . S
C697 C701 1.376 . S
C698 C696 1.394 . S
C698 C699 1.369 . S
C698 C702 1.531 . S
C699 C698 1.369 . S
C699 C700 1.410 . S
C699 C707 1.503 . S
C700 C699 1.410 . S
C700 C701 1.392 . S
C700 C703 1.511 . S
C701 C697 1.376 . S
C701 C700 1.392 . S
C701 H713 0.929 . S
C702 C698 1.531 . S
C702 H714 0.960 . S
C702 H715 0.962 . S
C702 H716 0.960 . S
C703 C700 1.511 . S
C703 H717 0.961 . S
C703 H718 0.961 . S
C703 H719 0.961 . S
C704 C705 1.370 . S
C704 C706 1.363 . S
C704 H720 0.931 . S
C705 C704 1.370 . S
C705 C709 1.408 . S
C706 C704 1.363 . S
C706 C707 1.370 . S
C706 C710 1.524 . S
C707 C699 1.503 . S
C707 C706 1.370 . S
C707 C708 1.403 . S
C708 C707 1.403 . S
C708 C709 1.404 . S
C708 C711 1.539 . S
C709 C705 1.408 . S
C709 C708 1.404 . S
C709 H721 0.930 . S
C710 C706 1.524 . S
C710 H722 0.956 . S
C710 H723 0.961 . S
C710 H724 0.961 . S
C711 C708 1.539 . S
C711 H725 0.958 . S
C711 H726 0.961 . S
C711 H727 0.960 . S
H712 C696 0.931 . S
H713 C701 0.929 . S
H714 C702 0.960 . S
H715 C702 0.962 . S
H716 C702 0.960 . S
H717 C703 0.961 . S
H718 C703 0.961 . S
H719 C703 0.961 . S
H720 C704 0.931 . S
H721 C709 0.930 . S
H722 C710 0.956 . S
H723 C710 0.961 . S
H724 C710 0.961 . S
H725 C711 0.958 . S
H726 C711 0.961 . S
H727 C711 0.960 . S
C728 C729 1.391 . S
C728 C730 1.394 . S
C728 H744 0.931 . S
C729 C728 1.391 . S
C729 C733 1.376 . S
C730 C728 1.394 . S
C730 C731 1.369 . S
C730 C734 1.531 . S
C731 C730 1.369 . S
C731 C732 1.410 . S
C731 C739 1.503 . S
C732 C731 1.410 . S
C732 C733 1.392 . S
C732 C735 1.511 . S
C733 C729 1.376 . S
C733 C732 1.392 . S
C733 H745 0.929 . S
C734 C730 1.531 . S
C734 H746 0.960 . S
C734 H747 0.962 . S
C734 H748 0.960 . S
C735 C732 1.511 . S
C735 H749 0.961 . S
C735 H750 0.961 . S
C735 H751 0.961 . S
C736 C737 1.370 . S
C736 C738 1.363 . S
C736 H752 0.931 . S
C737 C736 1.370 . S
C737 C741 1.408 . S
C738 C736 1.363 . S
C738 C739 1.370 . S
C738 C742 1.524 . S
C739 C731 1.503 . S
C739 C738 1.370 . S
C739 C740 1.403 . S
C740 C739 1.403 . S
C740 C741 1.404 . S
C740 C743 1.539 . S
C741 C737 1.408 . S
C741 C740 1.404 . S
C741 H753 0.930 . S
C742 C738 1.524 . S
C742 H754 0.956 . S
C742 H755 0.961 . S
C742 H756 0.961 . S
C743 C740 1.539 . S
C743 H757 0.958 . S
C743 H758 0.961 . S
C743 H759 0.960 . S
H744 C728 0.931 . S
H745 C733 0.929 . S
H746 C734 0.960 . S
H747 C734 0.962 . S
H748 C734 0.960 . S
H749 C735 0.961 . S
H750 C735 0.961 . S
H751 C735 0.961 . S
H752 C736 0.931 . S
H753 C741 0.930 . S
H754 C742 0.956 . S
H755 C742 0.961 . S
H756 C742 0.961 . S
H757 C743 0.958 . S
H758 C743 0.961 . S
H759 C743 0.960 . S
C760 C761 1.391 . S
C760 C762 1.394 . S
C760 H776 0.931 . S
C761 C760 1.391 . S
C761 C765 1.376 . S
C762 C760 1.394 . S
C762 C763 1.369 . S
C762 C766 1.531 . S
C763 C762 1.369 . S
C763 C764 1.410 . S
C763 C771 1.503 . S
C764 C763 1.410 . S
C764 C765 1.392 . S
C764 C767 1.511 . S
C765 C761 1.376 . S
C765 C764 1.392 . S
C765 H777 0.929 . S
C766 C762 1.531 . S
C766 H778 0.960 . S
C766 H779 0.962 . S
C766 H780 0.960 . S
C767 C764 1.511 . S
C767 H781 0.961 . S
C767 H782 0.961 . S
C767 H783 0.961 . S
C768 C769 1.370 . S
C768 C770 1.363 . S
C768 H784 0.931 1_556 S
C769 C768 1.370 . S
C769 C773 1.408 . S
C770 C768 1.363 . S
C770 C771 1.370 . S
C770 C774 1.524 . S
C771 C763 1.503 . S
C771 C770 1.370 . S
C771 C772 1.403 . S
C772 C771 1.403 . S
C772 C773 1.404 . S
C772 C775 1.539 . S
C773 C769 1.408 . S
C773 C772 1.404 . S
C773 H785 0.930 . S
C774 C770 1.524 . S
C774 H786 0.956 . S
C774 H787 0.961 . S
C774 H788 0.961 1_556 S
C775 C772 1.539 . S
C775 H789 0.958 . S
C775 H790 0.961 . S
C775 H791 0.960 . S
H776 C760 0.931 . S
H777 C765 0.929 . S
H778 C766 0.960 . S
H779 C766 0.962 . S
H780 C766 0.960 . S
H781 C767 0.961 . S
H782 C767 0.961 . S
H783 C767 0.961 . S
H784 C768 0.931 1_554 S
H785 C773 0.930 . S
H786 C774 0.956 . S
H787 C774 0.961 . S
H788 C774 0.961 1_554 S
H789 C775 0.958 . S
H790 C775 0.961 . S
H791 C775 0.960 . S
C792 C793 1.391 . S
C792 C794 1.394 . S
C792 H808 0.931 . S
C793 C792 1.391 . S
C793 C797 1.376 . S
C794 C792 1.394 . S
C794 C795 1.369 . S
C794 C798 1.531 . S
C795 C794 1.369 . S
C795 C796 1.410 . S
C795 C803 1.503 . S
C796 C795 1.410 . S
C796 C797 1.392 . S
C796 C799 1.511 . S
C797 C793 1.376 . S
C797 C796 1.392 . S
C797 H809 0.929 . S
C798 C794 1.531 . S
C798 H810 0.960 . S
C798 H811 0.962 . S
C798 H812 0.960 . S
C799 C796 1.511 . S
C799 H813 0.961 . S
C799 H814 0.961 . S
C799 H815 0.961 . S
C800 C801 1.370 . S
C800 C802 1.363 . S
C800 H816 0.931 . S
C801 C800 1.370 . S
C801 C805 1.408 . S
C802 C800 1.363 . S
C802 C803 1.370 . S
C802 C806 1.524 . S
C803 C795 1.503 . S
C803 C802 1.370 . S
C803 C804 1.403 . S
C804 C803 1.403 . S
C804 C805 1.404 . S
C804 C807 1.539 . S
C805 C801 1.408 . S
C805 C804 1.404 . S
C805 H817 0.930 . S
C806 C802 1.524 . S
C806 H818 0.956 . S
C806 H819 0.961 . S
C806 H820 0.961 . S
C807 C804 1.539 . S
C807 H821 0.958 . S
C807 H822 0.961 . S
C807 H823 0.960 . S
H808 C792 0.931 . S
H809 C797 0.929 . S
H810 C798 0.960 . S
H811 C798 0.962 . S
H812 C798 0.960 . S
H813 C799 0.961 . S
H814 C799 0.961 . S
H815 C799 0.961 . S
H816 C800 0.931 . S
H817 C805 0.930 . S
H818 C806 0.956 . S
H819 C806 0.961 . S
H820 C806 0.961 . S
H821 C807 0.958 . S
H822 C807 0.961 . S
H823 C807 0.960 . S
C824 C825 1.391 . S
C824 C826 1.394 . S
C824 H840 0.931 . S
C825 C824 1.391 . S
C825 C829 1.376 . S
C826 C824 1.394 . S
C826 C827 1.369 . S
C826 C830 1.531 . S
C827 C826 1.369 . S
C827 C828 1.410 . S
C827 C835 1.503 . S
C828 C827 1.410 . S
C828 C829 1.392 . S
C828 C831 1.511 . S
C829 C825 1.376 . S
C829 C828 1.392 . S
C829 H841 0.929 . S
C830 C826 1.531 . S
C830 H842 0.960 . S
C830 H843 0.962 . S
C830 H844 0.960 . S
C831 C828 1.511 . S
C831 H845 0.961 . S
C831 H846 0.961 . S
C831 H847 0.961 . S
C832 C833 1.370 . S
C832 C834 1.363 . S
C832 H848 0.931 . S
C833 C832 1.370 . S
C833 C837 1.408 . S
C834 C832 1.363 . S
C834 C835 1.370 . S
C834 C838 1.524 . S
C835 C827 1.503 . S
C835 C834 1.370 . S
C835 C836 1.403 . S
C836 C835 1.403 . S
C836 C837 1.404 . S
C836 C839 1.539 . S
C837 C833 1.408 . S
C837 C836 1.404 . S
C837 H849 0.930 . S
C838 C834 1.524 . S
C838 H850 0.956 . S
C838 H851 0.961 . S
C838 H852 0.961 . S
C839 C836 1.539 . S
C839 H853 0.958 . S
C839 H854 0.961 . S
C839 H855 0.960 . S
H840 C824 0.931 . S
H841 C829 0.929 . S
H842 C830 0.960 . S
H843 C830 0.962 . S
H844 C830 0.960 . S
H845 C831 0.961 . S
H846 C831 0.961 . S
H847 C831 0.961 . S
H848 C832 0.931 . S
H849 C837 0.930 . S
H850 C838 0.956 . S
H851 C838 0.961 . S
H852 C838 0.961 . S
H853 C839 0.958 . S
H854 C839 0.961 . S
H855 C839 0.960 . S
C856 C857 1.391 . S
C856 C858 1.394 . S
C856 H872 0.931 . S
C857 C856 1.391 . S
C857 C861 1.376 . S
C858 C856 1.394 . S
C858 C859 1.369 . S
C858 C862 1.531 . S
C859 C858 1.369 . S
C859 C860 1.410 . S
C859 C867 1.503 . S
C860 C859 1.410 . S
C860 C861 1.392 . S
C860 C863 1.511 . S
C861 C857 1.376 . S
C861 C860 1.392 . S
C861 H873 0.929 . S
C862 C858 1.531 . S
C862 H874 0.960 . S
C862 H875 0.962 . S
C862 H876 0.960 . S
C863 C860 1.511 . S
C863 H877 0.961 . S
C863 H878 0.961 . S
C863 H879 0.961 . S
C864 C865 1.370 . S
C864 C866 1.363 . S
C864 H880 0.931 . S
C865 C864 1.370 . S
C865 C869 1.408 . S
C866 C864 1.363 . S
C866 C867 1.370 . S
C866 C870 1.524 . S
C867 C859 1.503 . S
C867 C866 1.370 . S
C867 C868 1.403 . S
C868 C867 1.403 . S
C868 C869 1.404 . S
C868 C871 1.539 . S
C869 C865 1.408 . S
C869 C868 1.404 . S
C869 H881 0.930 . S
C870 C866 1.524 . S
C870 H882 0.956 . S
C870 H883 0.961 . S
C870 H884 0.961 . S
C871 C868 1.539 . S
C871 H885 0.958 . S
C871 H886 0.961 . S
C871 H887 0.960 . S
H872 C856 0.931 . S
H873 C861 0.929 . S
H874 C862 0.960 . S
H875 C862 0.962 . S
H876 C862 0.960 . S
H877 C863 0.961 . S
H878 C863 0.961 . S
H879 C863 0.961 . S
H880 C864 0.931 . S
H881 C869 0.930 . S
H882 C870 0.956 . S
H883 C870 0.961 . S
H884 C870 0.961 . S
H885 C871 0.958 . S
H886 C871 0.961 . S
H887 C871 0.960 . S
C888 C889 1.391 . S
C888 C890 1.394 . S
C888 H904 0.931 . S
C889 C888 1.391 . S
C889 C893 1.376 . S
C890 C888 1.394 . S
C890 C891 1.369 . S
C890 C894 1.531 . S
C891 C890 1.369 . S
C891 C892 1.410 . S
C891 C899 1.503 . S
C892 C891 1.410 . S
C892 C893 1.392 . S
C892 C895 1.511 . S
C893 C889 1.376 . S
C893 C892 1.392 . S
C893 H905 0.929 . S
C894 C890 1.531 . S
C894 H906 0.960 . S
C894 H907 0.962 . S
C894 H908 0.960 . S
C895 C892 1.511 . S
C895 H909 0.961 . S
C895 H910 0.961 . S
C895 H911 0.961 . S
C896 C897 1.370 . S
C896 C898 1.363 . S
C896 H912 0.931 . S
C897 C896 1.370 . S
C897 C901 1.408 . S
C898 C896 1.363 . S
C898 C899 1.370 . S
C898 C902 1.524 . S
C899 C891 1.503 . S
C899 C898 1.370 . S
C899 C900 1.403 . S
C900 C899 1.403 . S
C900 C901 1.404 . S
C900 C903 1.539 . S
C901 C897 1.408 . S
C901 C900 1.404 . S
C901 H913 0.930 . S
C902 C898 1.524 . S
C902 H914 0.956 . S
C902 H915 0.961 . S
C902 H916 0.961 . S
C903 C900 1.539 . S
C903 H917 0.958 . S
C903 H918 0.961 . S
C903 H919 0.960 . S
H904 C888 0.931 . S
H905 C893 0.929 . S
H906 C894 0.960 . S
H907 C894 0.962 . S
H908 C894 0.960 . S
H909 C895 0.961 . S
H910 C895 0.961 . S
H911 C895 0.961 . S
H912 C896 0.931 . S
H913 C901 0.930 . S
H914 C902 0.956 . S
H915 C902 0.961 . S
H916 C902 0.961 . S
H917 C903 0.958 . S
H918 C903 0.961 . S
H919 C903 0.960 . S
C920 C921 1.391 . S
C920 C922 1.394 . S
C920 H936 0.931 . S
C921 C920 1.391 . S
C921 C925 1.376 . S
C922 C920 1.394 . S
C922 C923 1.369 . S
C922 C926 1.531 . S
C923 C922 1.369 . S
C923 C924 1.410 . S
C923 C931 1.503 . S
C924 C923 1.410 . S
C924 C925 1.392 . S
C924 C927 1.511 . S
C925 C921 1.376 . S
C925 C924 1.392 . S
C925 H937 0.929 . S
C926 C922 1.531 . S
C926 H938 0.960 . S
C926 H939 0.962 . S
C926 H940 0.960 . S
C927 C924 1.511 . S
C927 H941 0.961 . S
C927 H942 0.961 . S
C927 H943 0.961 . S
C928 C929 1.370 . S
C928 C930 1.363 . S
C928 H944 0.931 . S
C929 C928 1.370 . S
C929 C933 1.408 . S
C930 C928 1.363 . S
C930 C931 1.370 . S
C930 C934 1.524 . S
C931 C923 1.503 . S
C931 C930 1.370 . S
C931 C932 1.403 . S
C932 C931 1.403 . S
C932 C933 1.404 . S
C932 C935 1.539 . S
C933 C929 1.408 . S
C933 C932 1.404 . S
C933 H945 0.930 . S
C934 C930 1.524 . S
C934 H946 0.956 . S
C934 H947 0.961 . S
C934 H948 0.961 . S
C935 C932 1.539 . S
C935 H949 0.958 . S
C935 H950 0.961 . S
C935 H951 0.960 . S
H936 C920 0.931 . S
H937 C925 0.929 . S
H938 C926 0.960 . S
H939 C926 0.962 . S
H940 C926 0.960 . S
H941 C927 0.961 . S
H942 C927 0.961 . S
H943 C927 0.961 . S
H944 C928 0.931 . S
H945 C933 0.930 . S
H946 C934 0.956 . S
H947 C934 0.961 . S
H948 C934 0.961 . S
H949 C935 0.958 . S
H950 C935 0.961 . S
H951 C935 0.960 . S
C952 C953 1.391 . S
C952 C954 1.394 . S
C952 H968 0.931 . S
C953 C952 1.391 . S
C953 C957 1.376 . S
C954 C952 1.394 . S
C954 C955 1.369 . S
C954 C958 1.531 . S
C955 C954 1.369 . S
C955 C956 1.410 . S
C955 C963 1.503 . S
C956 C955 1.410 . S
C956 C957 1.392 . S
C956 C959 1.511 . S
C957 C953 1.376 . S
C957 C956 1.392 . S
C957 H969 0.929 . S
C958 C954 1.531 . S
C958 H970 0.960 . S
C958 H971 0.962 . S
C958 H972 0.960 . S
C959 C956 1.511 . S
C959 H973 0.961 . S
C959 H974 0.961 . S
C959 H975 0.961 . S
C960 C961 1.370 . S
C960 C962 1.363 . S
C960 H976 0.931 . S
C961 C960 1.370 . S
C961 C965 1.408 . S
C962 C960 1.363 . S
C962 C963 1.370 . S
C962 C966 1.524 . S
C963 C955 1.503 . S
C963 C962 1.370 . S
C963 C964 1.403 . S
C964 C963 1.403 . S
C964 C965 1.404 . S
C964 C967 1.539 . S
C965 C961 1.408 . S
C965 C964 1.404 . S
C965 H977 0.930 . S
C966 C962 1.524 . S
C966 H978 0.956 . S
C966 H979 0.961 . S
C966 H980 0.961 . S
C967 C964 1.539 . S
C967 H981 0.958 . S
C967 H982 0.961 . S
C967 H983 0.960 . S
H968 C952 0.931 . S
H969 C957 0.929 . S
H970 C958 0.960 . S
H971 C958 0.962 . S
H972 C958 0.960 . S
H973 C959 0.961 . S
H974 C959 0.961 . S
H975 C959 0.961 . S
H976 C960 0.931 . S
H977 C965 0.930 . S
H978 C966 0.956 . S
H979 C966 0.961 . S
H980 C966 0.961 . S
H981 C967 0.958 . S
H982 C967 0.961 . S
H983 C967 0.960 . S
C984 C985 1.391 . S
C984 C986 1.394 . S
C984 H1000 0.931 . S
C985 C984 1.391 . S
C985 C989 1.376 . S
C986 C984 1.394 . S
C986 C987 1.369 . S
C986 C990 1.531 . S
C987 C986 1.369 . S
C987 C988 1.410 . S
C987 C995 1.503 . S
C988 C987 1.410 . S
C988 C989 1.392 . S
C988 C991 1.511 . S
C989 C985 1.376 . S
C989 C988 1.392 . S
C989 H1001 0.929 . S
C990 C986 1.531 . S
C990 H1002 0.960 . S
C990 H1003 0.962 . S
C990 H1004 0.960 . S
C991 C988 1.511 . S
C991 H1005 0.961 . S
C991 H1006 0.961 . S
C991 H1007 0.961 . S
C992 C993 1.370 . S
C992 C994 1.363 . S
C992 H1008 0.931 . S
C993 C992 1.370 . S
C993 C997 1.408 . S
C994 C992 1.363 . S
C994 C995 1.370 . S
C994 C998 1.524 . S
C995 C987 1.503 . S
C995 C994 1.370 . S
C995 C996 1.403 . S
C996 C995 1.403 . S
C996 C997 1.404 . S
C996 C999 1.539 . S
C997 C993 1.408 . S
C997 C996 1.404 . S
C997 H1009 0.930 . S
C998 C994 1.524 . S
C998 H1010 0.956 . S
C998 H1011 0.961 . S
C998 H1012 0.961 . S
C999 C996 1.539 . S
C999 H1013 0.958 . S
C999 H1014 0.961 . S
C999 H1015 0.960 . S
H1000 C984 0.931 . S
H1001 C989 0.929 . S
H1002 C990 0.960 . S
H1003 C990 0.962 . S
H1004 C990 0.960 . S
H1005 C991 0.961 . S
H1006 C991 0.961 . S
H1007 C991 0.961 . S
H1008 C992 0.931 . S
H1009 C997 0.930 . S
H1010 C998 0.956 . S
H1011 C998 0.961 . S
H1012 C998 0.961 . S
H1013 C999 0.958 . S
H1014 C999 0.961 . S
H1015 C999 0.960 . S
C249 C4 1.112 . S
C257 C95 1.129 . S
C281 C16 1.219 . S
C289 C144 1.260 . S
C321 C170 2.047 . S
C313 C32 2.081 . S
C345 C43 2.273 . S
C353 C218 2.219 . S
C385 C130 2.651 . S
C377 C5 2.547 . S
C417 C98 0.491 . S
C409 C21 0.403 . S
C449 C219 1.884 . S
C441 C27 1.913 . S
C481 C187 1.577 . S
C473 C37 1.587 . S
C505 C10 1.444 . S
C513 C215 1.486 . S
C545 C147 2.513 1_556 S
C537 C26 2.587 . S
C569 C38 2.079 . S
C577 C99 2.085 . S
C601 C15 1.059 . S
C609 C184 1.033 . S
C641 C104 1.280 . S
C633 C48 1.292 . S
C665 C59 1.079 . S
C673 C135 1.048 . S
C697 C76 2.459 . S
C705 C179 2.420 . S
C729 C87 2.108 . S
C737 C227 2.085 . S
C761 C54 1.920 . S
C769 C139 2.012 1_556 S
C801 C107 1.422 . S
C793 C60 1.418 . S
C833 C210 1.750 . S
C825 C71 1.805 . S
C865 C178 1.534 . S
C857 C82 1.586 . S
C889 C49 1.687 . S
C897 C224 1.812 . S
C929 C138 1.974 . S
C921 C70 2.049 . S
C961 C90 2.534 . S
C953 C81 2.537 . S
C985 C65 0.863 . S
C993 C175 0.874 . S
