# Generated by pormake.
# Topology pyr, (3,6)-cn, num edge types: 1
# Building blocks:
#     Node 0, Type 0, BuildingBlock: PAMTOO_clean_linker_0, # of connection points: 3
#     Node 1, Type 0, BuildingBlock: PAMTOO_clean_linker_0, # of connection points: 3
#     Node 2, Type 0, BuildingBlock: PAMTOO_clean_linker_0, # of connection points: 3
#     Node 3, Type 0, BuildingBlock: PAMTOO_clean_linker_0, # of connection points: 3
#     Node 4, Type 0, BuildingBlock: PAMTOO_clean_linker_0, # of connection points: 3
#     Node 5, Type 0, BuildingBlock: PAMTOO_clean_linker_0, # of connection points: 3
#     Node 6, Type 0, BuildingBlock: PAMTOO_clean_linker_0, # of connection points: 3
#     Node 7, Type 0, BuildingBlock: PAMTOO_clean_linker_0, # of connection points: 3
#     Node 8, Type 1, BuildingBlock: INOVEN_clean_sbu_0, # of connection points: 6
#     Node 9, Type 1, BuildingBlock: INOVEN_clean_sbu_0, # of connection points: 6
#     Node 10, Type 1, BuildingBlock: INOVEN_clean_sbu_0, # of connection points: 6
#     Node 11, Type 1, BuildingBlock: INOVEN_clean_sbu_0, # of connection points: 6
#     Edge 12, Type (0, 1), BuildingBlock: TEMPAE_clean_linker_10, # of connection points: 2
#     Edge 13, Type (0, 1), BuildingBlock: TEMPAE_clean_linker_10, # of connection points: 2
#     Edge 14, Type (0, 1), BuildingBlock: TEMPAE_clean_linker_10, # of connection points: 2
#     Edge 15, Type (0, 1), BuildingBlock: TEMPAE_clean_linker_10, # of connection points: 2
#     Edge 16, Type (0, 1), BuildingBlock: TEMPAE_clean_linker_10, # of connection points: 2
#     Edge 17, Type (0, 1), BuildingBlock: TEMPAE_clean_linker_10, # of connection points: 2
#     Edge 18, Type (0, 1), BuildingBlock: TEMPAE_clean_linker_10, # of connection points: 2
#     Edge 19, Type (0, 1), BuildingBlock: TEMPAE_clean_linker_10, # of connection points: 2
#     Edge 20, Type (0, 1), BuildingBlock: TEMPAE_clean_linker_10, # of connection points: 2
#     Edge 21, Type (0, 1), BuildingBlock: TEMPAE_clean_linker_10, # of connection points: 2
#     Edge 22, Type (0, 1), BuildingBlock: TEMPAE_clean_linker_10, # of connection points: 2
#     Edge 23, Type (0, 1), BuildingBlock: TEMPAE_clean_linker_10, # of connection points: 2
#     Edge 24, Type (0, 1), BuildingBlock: TEMPAE_clean_linker_10, # of connection points: 2
#     Edge 25, Type (0, 1), BuildingBlock: TEMPAE_clean_linker_10, # of connection points: 2
#     Edge 26, Type (0, 1), BuildingBlock: TEMPAE_clean_linker_10, # of connection points: 2
#     Edge 27, Type (0, 1), BuildingBlock: TEMPAE_clean_linker_10, # of connection points: 2
#     Edge 28, Type (0, 1), BuildingBlock: TEMPAE_clean_linker_10, # of connection points: 2
#     Edge 29, Type (0, 1), BuildingBlock: TEMPAE_clean_linker_10, # of connection points: 2
#     Edge 30, Type (0, 1), BuildingBlock: TEMPAE_clean_linker_10, # of connection points: 2
#     Edge 31, Type (0, 1), BuildingBlock: TEMPAE_clean_linker_10, # of connection points: 2
#     Edge 32, Type (0, 1), BuildingBlock: TEMPAE_clean_linker_10, # of connection points: 2
#     Edge 33, Type (0, 1), BuildingBlock: TEMPAE_clean_linker_10, # of connection points: 2
#     Edge 34, Type (0, 1), BuildingBlock: TEMPAE_clean_linker_10, # of connection points: 2
#     Edge 35, Type (0, 1), BuildingBlock: TEMPAE_clean_linker_10, # of connection points: 2
# Relax obj value: 0.170
# Max RMSD: 0.224
# Mean RMSD: 0.149
data_MOF--net-pyr--node1-INOVEN_clean_sbu_0--node2-PAMTOO_clean_linker_0--edge1-TEMPAE_clean_linker_10
_symmetry_space_group_name_H-M    P1
_symmetry_Int_Tables_number       1
_symmetry_cell_setting            triclinic
loop_
_symmetry_equiv_pos_as_xyz
'x, y, z'
_cell_length_a     37.531186
_cell_length_b     41.341316
_cell_length_c     36.942547
_cell_angle_alpha  91.699687
_cell_angle_beta   89.375889
_cell_angle_gamma 105.46474
loop_
_atom_site_label
_atom_site_type_symbol
_atom_site_fract_x
_atom_site_fract_y
_atom_site_fract_z
_atom_type_partial_charge
H0 H 0.35316 0.32977 0.29106 0.0
H1 H 0.40919 0.25414 0.26618 0.0
H2 H 0.40014 0.32316 0.18497 0.0
H3 H 0.4773 0.28592 0.22874 0.0
C4 C 0.46589 0.27938 0.20094 0.0
O5 O 0.42807 0.27379 0.20084 0.0
H6 H 0.47853 0.30084 0.18339 0.0
C7 C 0.37005 0.31937 0.27245 0.0
C8 C 0.37464 0.32995 0.23664 0.0
C9 C 0.38113 0.29135 0.28271 0.0
C10 C 0.40187 0.27677 0.25894 0.0
C11 C 0.41032 0.28955 0.2244 0.0
C12 C 0.39644 0.31586 0.21296 0.0
H13 H 0.29793 0.91951 0.67105 0.0
H14 H 0.23168 0.85102 0.59231 0.0
H15 H 0.31752 0.82304 0.64875 0.0
H16 H 0.28959 0.82618 0.55053 0.0
C17 C 0.28456 0.80248 0.56574 0.0
O18 O 0.26688 0.80537 0.59814 0.0
H19 H 0.26614 0.78243 0.54876 0.0
C20 C 0.29117 0.8957 0.65609 0.0
C21 C 0.31095 0.87219 0.66277 0.0
C22 C 0.2622 0.88832 0.63102 0.0
C23 C 0.25404 0.85748 0.61174 0.0
C24 C 0.27437 0.83439 0.61769 0.0
C25 C 0.30238 0.84139 0.64367 0.0
H26 H 0.74944 0.33412 0.9344 0.0
H27 H 0.66691 0.32274 0.85095 0.0
H28 H 0.75592 0.41315 0.85979 0.0
H29 H 0.68817 0.42691 0.84189 0.0
C30 C 0.6742 0.40467 0.82475 0.0
O31 O 0.69643 0.3825 0.8225 0.0
H32 H 0.64798 0.39201 0.83867 0.0
C33 C 0.73848 0.34338 0.91101 0.0
C34 C 0.75682 0.37544 0.89893 0.0
C35 C 0.70621 0.32352 0.89409 0.0
C36 C 0.69142 0.33742 0.86482 0.0
C37 C 0.70915 0.36997 0.85236 0.0
C38 C 0.74184 0.38861 0.86966 0.0
H39 H 0.88606 0.74919 0.44547 0.0
H40 H 0.8836 0.66704 0.3702 0.0
H41 H 0.97235 0.75788 0.36538 0.0
H42 H 0.94758 0.722 0.2919 0.0
C43 C 0.9385 0.6957 0.30111 0.0
O44 O 0.94677 0.69552 0.33778 0.0
H45 H 0.90799 0.68682 0.29769 0.0
C46 C 0.89825 0.73857 0.42285 0.0
C47 C 0.93104 0.75784 0.40696 0.0
C48 C 0.88049 0.70611 0.40945 0.0
C49 C 0.89662 0.69228 0.38019 0.0
C50 C 0.93005 0.71051 0.36425 0.0
C51 C 0.94676 0.74362 0.37745 0.0
H52 H 0.69678 0.83451 0.83211 0.0
H53 H 0.69017 0.78961 0.93653 0.0
H54 H 0.74498 0.75299 0.84897 0.0
H55 H 0.70218 0.70406 0.88899 0.0
C56 C 0.71464 0.71326 0.91585 0.0
O57 O 0.7283 0.74771 0.91711 0.0
H58 H 0.69266 0.70588 0.93673 0.0
C59 C 0.70185 0.81553 0.84935 0.0
C60 C 0.72273 0.79419 0.83602 0.0
C61 C 0.69007 0.81454 0.88562 0.0
C62 C 0.69744 0.79018 0.90806 0.0
C63 C 0.71716 0.76811 0.89459 0.0
C64 C 0.72927 0.76991 0.85871 0.0
H65 H 0.84 0.19189 0.40276 0.0
H66 H 0.80633 0.27944 0.43746 0.0
H67 H 0.88132 0.24447 0.5026 0.0
H68 H 0.84501 0.30133 0.54977 0.0
C69 C 0.82746 0.28696 0.52758 0.0
O70 O 0.84793 0.29081 0.49605 0.0
H71 H 0.81911 0.26024 0.53578 0.0
C72 C 0.84148 0.21219 0.42246 0.0
C73 C 0.86301 0.21473 0.45362 0.0
C74 C 0.82086 0.23519 0.41676 0.0
C75 C 0.82248 0.2617 0.44163 0.0
C76 C 0.84544 0.26531 0.47189 0.0
C77 C 0.86537 0.24192 0.47793 0.0
H78 H 0.38231 0.75735 0.15816 0.0
H79 H 0.37504 0.68327 0.23974 0.0
H80 H 0.46661 0.77185 0.23986 0.0
H81 H 0.48288 0.70435 0.25849 0.0
C82 C 0.45746 0.69357 0.27456 0.0
O83 O 0.43542 0.71584 0.27457 0.0
H84 H 0.44249 0.66964 0.26068 0.0
C85 C 0.39361 0.74845 0.18161 0.0
C86 C 0.4267 0.76839 0.19696 0.0
C87 C 0.37474 0.71743 0.19638 0.0
C88 C 0.3893 0.7068 0.2277 0.0
C89 C 0.42259 0.72605 0.24343 0.0
C90 C 0.44132 0.75669 0.22762 0.0
H91 H 0.13183 0.34213 0.77938 0.0
H92 H 0.21972 0.43394 0.77331 0.0
H93 H 0.21566 0.35424 0.69582 0.0
H94 H 0.28899 0.38991 0.73007 0.0
C95 C 0.28714 0.416 0.72604 0.0
O96 O 0.25144 0.41503 0.71573 0.0
H97 H 0.29337 0.4301 0.75232 0.0
C98 C 0.1564 0.35718 0.76629 0.0
C99 C 0.17172 0.34347 0.73593 0.0
C100 C 0.17391 0.38981 0.78073 0.0
C101 C 0.20614 0.4088 0.76334 0.0
C102 C 0.22102 0.39597 0.73285 0.0
C103 C 0.20388 0.36356 0.71955 0.0
Gd104 Gd 0.06751 0.07027 0.53017 0.0
Gd105 Gd 0.02896 1.03579 0.6015 0.0
C106 C 0.07591 0.11561 0.60446 0.0
C107 C 0.08298 0.10219 0.47139 0.0
C108 C 0.11895 0.12163 0.45862 0.0
C109 C 0.15098 0.11236 0.46793 0.0
C110 C 0.12189 0.15122 0.44016 0.0
C111 C 0.18873 0.16191 0.43984 0.0
C112 C 0.15662 0.1712 0.43056 0.0
C113 C 0.18561 0.13243 0.45875 0.0
C114 C 0.11486 0.04639 0.56975 0.0
C115 C 0.02374 0.98996 0.52892 0.0
C116 C 1.00972 1.01138 0.66343 0.0
C117 C 0.9766 0.98586 0.67474 0.0
C118 C 0.94623 0.99597 0.68874 0.0
C119 C 0.97382 0.9515 0.66926 0.0
C120 C 0.91094 0.93792 0.69192 0.0
C121 C 0.94123 0.92768 0.67792 0.0
C122 C 0.91359 0.97224 0.69687 0.0
C123 C 0.98456 0.05208 0.55264 0.0
O124 O 0.08047 0.11521 0.5688 0.0
O125 O 0.05997 0.08802 0.62233 0.0
O126 O 0.07865 0.06971 0.47279 0.0
O127 O 0.07082 0.11508 0.50025 0.0
O128 O 0.12467 0.06226 0.54004 0.0
O129 O 0.08211 0.04591 0.57601 0.0
O130 O 0.02294 0.99009 0.56482 0.0
O131 O 0.03485 1.01799 0.51031 0.0
O132 O 1.00378 0.03965 0.65329 0.0
O133 O 0.03316 1.00089 0.64246 0.0
O134 O 0.97272 1.02839 0.57558 0.0
O135 O 1.0169 0.06807 0.56048 0.0
H136 H 0.14937 0.08971 0.48242 0.0
H137 H 0.0974 0.1589 0.43335 0.0
H138 H 0.15829 0.1936 0.41541 0.0
H139 H 0.20993 0.12489 0.46647 0.0
H140 H 0.94748 1.0223 0.69299 0.0
H141 H 0.99671 0.94296 0.65826 0.0
H142 H 0.94003 0.90131 0.67438 0.0
H143 H 0.89043 0.98078 0.70717 0.0
Gd144 Gd 0.6048 0.05151 0.06508 0.0
Gd145 Gd 0.53773 0.0403 1.02217 0.0
C146 C 0.53789 0.0802 0.09493 0.0
C147 C 0.66773 0.08217 0.09204 0.0
C148 C 0.67995 0.09628 0.12779 0.0
C149 C 0.66783 0.07839 0.15937 0.0
C150 C 0.70113 0.12966 0.13031 0.0
C151 C 0.69776 0.12767 0.1956 0.0
C152 C 0.70992 0.14532 0.164 0.0
C153 C 0.67704 0.094 0.1932 0.0
C154 C 0.5575 0.99628 0.094 0.0
C155 C 0.59899 1.00112 0.99951 0.0
C156 C 0.48197 1.02264 0.97951 0.0
C157 C 0.47105 0.99934 0.94864 0.0
C158 C 0.49124 1.00418 0.91601 0.0
C159 C 0.43875 0.97305 0.95107 0.0
C160 C 0.44482 0.95885 0.88785 0.0
C161 C 0.42563 0.95289 0.92075 0.0
C162 C 0.47811 0.98398 0.88573 0.0
C163 C 0.5875 0.09997 1.01137 0.0
O164 O 0.5738 0.08364 0.09453 0.0
O165 O 0.51581 0.05959 0.07203 0.0
O166 O 0.65659 0.04938 0.08855 0.0
O167 O 0.64648 0.09762 0.07573 0.0
O168 O 0.59 1.01108 0.10646 0.0
O169 O 0.55022 1.01239 0.06766 0.0
O170 O 0.5645 1.00259 0.99619 0.0
O171 O 0.6221 1.0213 1.02174 0.0
O172 O 0.51007 0.04851 0.97419 0.0
O173 O 0.48231 1.0094 1.01118 0.0
O174 O 0.55296 0.09651 1.01847 0.0
O175 O 0.59472 0.07171 1.01227 0.0
H176 H 0.65077 0.05273 0.15795 0.0
H177 H 0.71017 0.14385 0.10614 0.0
H178 H 0.72636 0.17121 0.16537 0.0
H179 H 0.66739 0.08009 0.21742 0.0
H180 H 0.5164 1.02423 0.91339 0.0
H181 H 0.42302 0.96886 0.97607 0.0
H182 H 0.39986 0.93343 0.92259 0.0
H183 H 0.49291 0.98904 0.86027 0.0
Gd184 Gd 0.56873 0.53237 0.52976 0.0
Gd185 Gd 0.57831 0.589 0.57674 0.0
C186 C 0.60395 0.5288 0.61033 0.0
C187 C 0.57713 0.48256 0.49019 0.0
C188 C 0.59484 0.45584 0.49618 0.0
C189 C 0.58265 0.42521 0.47711 0.0
C190 C 0.62397 0.46077 0.52094 0.0
C191 C 0.62985 0.40495 0.50626 0.0
C192 C 0.64131 0.43548 0.52601 0.0
C193 C 0.60015 0.39986 0.48202 0.0
C194 C 0.50557 0.53097 0.56722 0.0
C195 C 0.54076 0.59066 0.4969 0.0
C196 C 0.56912 0.63967 0.6143 0.0
C197 C 0.54356 0.66055 0.60973 0.0
C198 C 0.55657 0.69556 0.61293 0.0
C199 C 0.50666 0.64582 0.59979 0.0
C200 C 0.49594 0.70103 0.59652 0.0
C201 C 0.48302 0.66587 0.59355 0.0
C202 C 0.53293 0.71571 0.60637 0.0
C203 C 0.64152 0.5901 0.53918 0.0
O204 O 0.59858 0.516 0.57691 0.0
O205 O 0.5961 0.55746 0.61836 0.0
O206 O 0.54747 0.48123 0.50946 0.0
O207 O 0.59946 0.51276 0.48899 0.0
O208 O 0.507 0.52378 0.53293 0.0
O209 O 0.53799 0.53925 0.5801 0.0
O210 O 0.54393 0.60243 0.53086 0.0
O211 O 0.55218 0.56401 0.48827 0.0
O212 O 0.59449 0.64247 0.5893 0.0
O213 O 0.55408 0.60855 0.6229 0.0
O214 O 0.64007 0.59796 0.57329 0.0
O215 O 0.60903 0.58219 0.52643 0.0
H216 H 0.55999 0.42111 0.4581 0.0
H217 H 0.63397 0.4844 0.53571 0.0
H218 H 0.66456 0.44031 0.54438 0.0
H219 H 0.59077 0.37646 0.46663 0.0
H220 H 0.58513 0.70729 0.62 0.0
H221 H 0.49607 0.61882 0.5966 0.0
H222 H 0.45451 0.65377 0.58664 0.0
H223 H 0.54373 0.74273 0.60848 0.0
Gd224 Gd 0.06851 0.50811 0.07209 0.0
Gd225 Gd 0.06506 0.56792 1.02762 0.0
C226 C 0.136 0.57746 0.07799 0.0
C227 C 0.09121 0.45627 0.08655 0.0
C228 C 0.12328 0.44845 0.10337 0.0
C229 C 0.13022 0.45237 0.14077 0.0
C230 C 0.14769 0.43665 0.08082 0.0
C231 C 0.18495 0.43165 0.13258 0.0
C232 C 0.17827 0.42865 0.09515 0.0
C233 C 0.16081 0.44394 0.15527 0.0
C234 C 0.04146 0.55025 0.11683 0.0
C235 C 0.99388 0.5013 1.02772 0.0
C236 C 0.04374 0.61538 0.99813 0.0
C237 C 1.00751 0.6212 0.98973 0.0
C238 C 0.99384 0.6164 0.95415 0.0
C239 C 0.98659 0.63219 1.01692 0.0
C240 C 0.93982 0.63473 0.97283 0.0
C241 C 0.95312 0.63886 1.00854 0.0
C242 C 0.96025 0.62298 0.9458 0.0
C243 C 0.09884 0.52477 0.99276 0.0
O244 O 0.12492 0.54463 0.08276 0.0
O245 O 0.11608 0.59305 0.05935 0.0
O246 O 0.06722 0.46626 0.1071 0.0
O247 O 0.09883 0.47276 0.0566 0.0
O248 O 0.04487 0.52112 0.12599 0.0
O249 O 0.05098 0.55446 0.08382 0.0
O250 O 1.00779 0.53306 1.01913 0.0
O251 O 1.01214 0.48519 0.04789 0.0
O252 O 0.05302 0.59157 0.97933 0.0
O253 O 0.0525 0.61592 0.03238 0.0
O254 O 0.1102 0.55737 0.99178 0.0
O255 O 0.07025 0.51701 1.01282 0.0
H256 H 0.11193 0.46158 0.15878 0.0
H257 H 0.14308 0.43354 0.05185 0.0
H258 H 0.19666 0.41997 0.07678 0.0
H259 H 0.16506 0.4463 0.18429 0.0
H260 H 1.00936 0.60799 0.93263 0.0
H261 H 0.99614 0.636 0.04467 0.0
H262 H 0.9377 0.64742 1.03003 0.0
H263 H 0.95081 0.61981 0.91799 0.0
C264 C 0.37428 0.27013 0.34562 0.0
C265 C 0.35973 0.27131 0.31124 0.0
C266 C 0.35152 0.253 0.37316 0.0
C267 C 0.31392 0.23722 0.36548 0.0
C268 C 0.29955 0.23809 0.3304 0.0
C269 C 0.3228 0.25508 0.30366 0.0
C270 C 0.36726 0.25228 0.41042 0.0
C271 C 0.25951 0.22155 0.32114 0.0
C272 C 0.25022 0.16572 0.41209 0.0
C273 C 0.22521 0.18187 0.42781 0.0
C274 C 0.28224 0.18418 0.39506 0.0
C275 C 0.28882 0.21938 0.39347 0.0
C276 C 0.26546 0.23604 0.41213 0.0
C277 C 0.23378 0.21696 0.42924 0.0
C278 C 0.3066 0.16569 0.37523 0.0
C279 C 0.27163 0.27359 0.41077 0.0
H280 H 0.40295 0.28306 0.35103 0.0
H281 H 0.31199 0.25636 0.27675 0.0
H282 H 0.35303 0.26526 0.43025 0.0
H283 H 0.3623 0.22598 0.41909 0.0
H284 H 0.39742 0.26458 0.41147 0.0
H285 H 0.2531 0.2247 0.29237 0.0
H286 H 0.25278 0.19429 0.32635 0.0
H287 H 0.24108 0.23241 0.33851 0.0
H288 H 0.24356 0.13854 0.41082 0.0
H289 H 0.21478 0.22942 0.44218 0.0
H290 H 0.33623 0.17909 0.37866 0.0
H291 H 0.30038 0.16439 0.34584 0.0
H292 H 0.30199 0.13965 0.38475 0.0
H293 H 0.30135 0.28676 0.41393 0.0
H294 H 0.2556 0.2831 0.43209 0.0
H295 H 0.26267 0.28005 0.38401 0.0
C296 C 0.36592 0.90986 0.6927 0.0
C297 C 0.33849 0.87935 0.6918 0.0
C298 C 0.38745 0.92023 0.72364 0.0
C299 C 0.38087 0.89957 0.75414 0.0
C300 C 0.35493 0.86773 0.75246 0.0
C301 C 0.334 0.85787 0.72103 0.0
C302 C 0.41492 0.95442 0.72474 0.0
C303 C 0.34712 0.8454 0.78483 0.0
C304 C 0.44705 0.92412 0.83252 0.0
C305 C 0.42792 0.9417 0.85479 0.0
C306 C 0.43167 0.90943 0.79975 0.0
C307 C 0.397 0.91334 0.78918 0.0
C308 C 0.37767 0.93119 0.81177 0.0
C309 C 0.39336 0.945 0.8446 0.0
C310 C 0.45258 0.89019 0.77629 0.0
C311 C 0.34087 0.93635 0.80095 0.0
H312 H 0.36923 0.92629 0.66985 0.0
H313 H 0.31239 0.83445 0.72026 0.0
H314 H 0.40404 0.97183 0.74235 0.0
H315 H 0.44153 0.95302 0.73648 0.0
H316 H 0.42028 0.96522 0.6974 0.0
H317 H 0.32995 0.81975 0.77759 0.0
H318 H 0.37329 0.8435 0.79712 0.0
H319 H 0.33216 0.85653 0.80576 0.0
H320 H 0.47394 0.92198 0.84079 0.0
H321 H 0.37917 0.95926 0.86189 0.0
H322 H 0.45974 0.90272 0.75005 0.0
H323 H 0.43494 0.86448 0.77026 0.0
H324 H 0.47845 0.88828 0.78934 0.0
H325 H 0.34396 0.95019 0.77532 0.0
H326 H 0.3295 0.95067 0.82195 0.0
H327 H 0.32049 0.91175 0.796 0.0
C328 C 0.62896 0.41616 0.77876 0.0
C329 C 0.66569 0.41756 0.78788 0.0
C330 C 0.62026 0.43302 0.74865 0.0
C331 C 0.64884 0.45225 0.72648 0.0
C332 C 0.68599 0.45292 0.73483 0.0
C333 C 0.69393 0.43585 0.76534 0.0
C334 C 0.58028 0.43124 0.74136 0.0
C335 C 0.71757 0.47278 0.71229 0.0
C336 C 0.62125 0.47724 0.63275 0.0
C337 C 0.61748 0.5099 0.63946 0.0
C338 C 0.63204 0.45859 0.6603 0.0
C339 C 0.63967 0.47266 0.69587 0.0
C340 C 0.6366 0.50586 0.70259 0.0
C341 C 0.62551 0.52385 0.67463 0.0
C342 C 0.63447 0.42339 0.65142 0.0
C343 C 0.64449 0.52234 0.73969 0.0
H344 H 0.6068 0.40271 0.79611 0.0
H345 H 0.72241 0.43779 0.77233 0.0
H346 H 0.57575 0.45658 0.74508 0.0
H347 H 0.57319 0.4229 0.7129 0.0
H348 H 0.5611 0.41381 0.75962 0.0
H349 H 0.74452 0.46882 0.72028 0.0
H350 H 0.71275 0.46571 0.68319 0.0
H351 H 0.71925 0.49992 0.71535 0.0
H352 H 0.61508 0.46583 0.60597 0.0
H353 H 0.62286 0.54894 0.68052 0.0
H354 H 0.61368 0.40525 0.66757 0.0
H355 H 0.66208 0.42072 0.65887 0.0
H356 H 0.62959 0.41652 0.62224 0.0
H357 H 0.62445 0.50805 0.75958 0.0
H358 H 0.64272 0.54874 0.74034 0.0
H359 H 0.67252 0.52197 0.74859 0.0
C360 C 0.97999 0.65498 0.28689 0.0
C361 C 0.95608 0.67384 0.27568 0.0
C362 C 0.99514 0.63548 0.26159 0.0
C363 C 0.98623 0.63446 0.22404 0.0
C364 C 0.96211 0.65347 0.21295 0.0
C365 C 0.94768 0.67273 0.23858 0.0
C366 C 0.02064 0.61583 0.27507 0.0
C367 C 0.95095 0.65318 0.1738 0.0
C368 C 0.04519 0.60678 0.14826 0.0
C369 C 0.0263 0.5729 0.14185 0.0
C370 C 0.03333 0.62665 0.17556 0.0
C371 C 1.00089 0.61295 0.19635 0.0
C372 C 0.98137 0.57891 0.18921 0.0
C373 C 0.9947 0.55931 0.16291 0.0
C374 C 0.05603 0.66223 0.1827 0.0
C375 C 0.94613 0.56308 0.20935 0.0
H376 H 0.98688 0.65538 0.31533 0.0
H377 H 0.92929 0.68708 0.22952 0.0
H378 H 1.00748 0.58856 0.27127 0.0
H379 H 0.04669 0.6217 0.25911 0.0
H380 H 0.02745 0.62121 0.3042 0.0
H381 H 0.93196 0.66921 0.1694 0.0
H382 H 0.97582 0.66217 0.15659 0.0
H383 H 0.93704 0.62713 0.16456 0.0
H384 H 0.07016 0.6174 0.13292 0.0
H385 H 0.98007 0.5331 0.15857 0.0
H386 H 0.06403 0.6658 0.21168 0.0
H387 H 0.03933 0.67997 0.17711 0.0
H388 H 0.0815 0.66879 0.16584 0.0
H389 H 0.95189 0.56286 0.23871 0.0
H390 H 0.93319 0.53691 0.19968 0.0
H391 H 0.92595 0.57812 0.20612 0.0
C392 C 0.46977 0.22046 0.21041 0.0
C393 C 0.47501 0.24791 0.18767 0.0
C394 C 0.47744 0.1906 0.19814 0.0
C395 C 0.49045 0.18833 0.16233 0.0
C396 C 0.49493 0.21573 0.13904 0.0
C397 C 0.48684 0.24516 0.15197 0.0
C398 C 0.47208 0.16164 0.22345 0.0
C399 C 0.50882 0.21417 0.10067 0.0
C400 C 0.54852 0.12916 0.13773 0.0
C401 C 0.52369 0.1043 0.11708 0.0
C402 C 0.53764 0.15605 0.15373 0.0
C403 C 0.50086 0.15787 0.14942 0.0
C404 C 0.47498 0.13185 0.13048 0.0
C405 C 0.48677 0.10535 0.11428 0.0
C406 C 0.56616 0.18346 0.17347 0.0
C407 C 0.43536 0.13287 0.12589 0.0
H408 H 0.45978 0.22251 0.23781 0.0
H409 H 0.49005 0.2662 0.13425 0.0
H410 H 0.45347 0.13866 0.21095 0.0
H411 H 0.49897 0.15614 0.22827 0.0
H412 H 0.46027 0.16693 0.24997 0.0
H413 H 0.51019 0.23751 0.08594 0.0
H414 H 0.53685 0.21003 0.10086 0.0
H415 H 0.49051 0.19267 0.08548 0.0
H416 H 0.5771 0.12855 0.14008 0.0
H417 H 0.46742 0.08625 0.09831 0.0
H418 H 0.55583 0.18851 0.20072 0.0
H419 H 0.57138 0.20703 0.15827 0.0
H420 H 0.59284 0.17698 0.1766 0.0
H421 H 0.42329 0.13759 0.15243 0.0
H422 H 0.41789 0.10916 0.11361 0.0
H423 H 0.43437 0.15387 0.10823 0.0
C424 C 0.23035 0.93047 0.65509 0.0
C425 C 0.24016 0.91252 0.62549 0.0
C426 C 0.20977 0.95365 0.65014 0.0
C427 C 0.19809 0.95827 0.61492 0.0
C428 C 0.20743 0.93995 0.58501 0.0
C429 C 0.22879 0.91757 0.59062 0.0
C430 C 0.2008 0.97337 0.68242 0.0
C431 C 0.19499 0.94405 0.54705 0.0
C432 C 0.11758 0.99487 0.60038 0.0
C433 C 0.13588 1.02648 0.58758 0.0
C434 C 0.13759 0.97254 0.61062 0.0
C435 C 0.17666 0.98278 0.60895 0.0
C436 C 0.19522 1.01564 0.59848 0.0
C437 C 0.17447 1.03699 0.58719 0.0
C438 C 0.11692 0.93731 0.62058 0.0
C439 C 0.23691 1.0276 0.5974 0.0
H440 H 0.23853 0.92625 0.68222 0.0
H441 H 0.23685 0.90422 0.5676 0.0
H442 H 0.21186 1.00067 0.67804 0.0
H443 H 0.17041 0.96834 0.68562 0.0
H444 H 0.21249 0.96713 0.70798 0.0
H445 H 0.20296 0.92654 0.52713 0.0
H446 H 0.1645 0.93961 0.54642 0.0
H447 H 0.20735 0.97012 0.53838 0.0
H448 H 0.08765 0.98671 0.59991 0.0
H449 H 0.18836 0.06155 0.57715 0.0
H450 H 0.12764 0.93037 0.64625 0.0
H451 H 0.12128 0.91933 0.59917 0.0
H452 H 0.08673 0.93433 0.62357 0.0
H453 H 0.24879 1.02182 0.62303 0.0
H454 H 0.24688 0.05502 0.59305 0.0
H455 H 0.24762 1.01422 0.57509 0.0
C456 C 0.81995 0.37861 0.92389 0.0
C457 C 0.79196 0.39448 0.91716 0.0
C458 C 0.85259 0.39555 0.94231 0.0
C459 C 0.85728 0.42907 0.95516 0.0
C460 C 0.82899 0.44513 0.94863 0.0
C461 C 0.79694 0.4278 0.92943 0.0
C462 C 0.88231 0.37767 0.9476 0.0
C463 C 0.83238 0.48056 0.96231 0.0
C464 C 0.92971 0.46184 1.0295 0.0
C465 C 0.95875 0.48255 1.00999 0.0
C466 C 0.89621 0.44492 1.01225 0.0
C467 C 0.89226 0.44761 0.97433 0.0
C468 C 0.92212 0.46777 0.95448 0.0
C469 C 0.95456 0.48548 0.97263 0.0
C470 C 0.86486 0.42447 0.03468 0.0
C471 C 0.92007 0.47025 0.9139 0.0
H472 H 0.81644 0.3529 0.91437 0.0
H473 H 0.77528 0.44005 0.92479 0.0
H474 H 0.90865 0.39219 0.93538 0.0
H475 H 0.88741 0.37594 0.97689 0.0
H476 H 0.87486 0.35191 0.93528 0.0
H477 H 0.80738 0.48902 0.95637 0.0
H478 H 0.83698 0.48235 0.99201 0.0
H479 H 0.85665 0.49803 0.94964 0.0
H480 H 0.93285 0.45956 0.05837 0.0
H481 H 0.97719 0.50111 0.95735 0.0
H482 H 0.85817 0.39772 1.02566 0.0
H483 H 0.83968 0.43319 0.03076 0.0
H484 H 0.87155 0.42623 0.06402 0.0
H485 H 0.9139 0.44479 0.90096 0.0
H486 H 0.94621 0.48585 0.90223 0.0
H487 H 0.89726 0.48128 0.90681 0.0
C488 C 0.84475 0.67728 0.46281 0.0
C489 C 0.84523 0.68679 0.42664 0.0
C490 C 0.81154 0.6602 0.47997 0.0
C491 C 0.77752 0.65329 0.46096 0.0
C492 C 0.77794 0.66315 0.42441 0.0
C493 C 0.81175 0.67933 0.4076 0.0
C494 C 0.81288 0.64967 0.51857 0.0
C495 C 0.7425 0.65731 0.40331 0.0
C496 C 0.6932 0.58636 0.49624 0.0
C497 C 0.67491 0.60582 0.51723 0.0
C498 C 0.72654 0.60137 0.47781 0.0
C499 C 0.74154 0.6368 0.47968 0.0
C500 C 0.72237 0.65649 0.5001 0.0
C501 C 0.68972 0.64078 0.51891 0.0
C502 C 0.74626 0.57927 0.4571 0.0
C503 C 0.73649 0.69425 0.50238 0.0
H504 H 0.87054 0.68311 0.47767 0.0
H505 H 0.81193 0.68705 0.37979 0.0
H506 H 0.79735 0.66319 0.53641 0.0
H507 H 0.7994 0.62242 0.52067 0.0
H508 H 0.84164 0.65489 0.52881 0.0
H509 H 0.74735 0.66641 0.37521 0.0
H510 H 0.728 0.63016 0.40213 0.0
H511 H 0.72375 0.67041 0.41724 0.0
H512 H 0.68201 0.55931 0.49507 0.0
H513 H 0.67561 0.65592 0.53505 0.0
H514 H 0.7743 0.58272 0.46852 0.0
H515 H 0.74986 0.58663 0.42839 0.0
H516 H 0.73112 0.55227 0.45804 0.0
H517 H 0.7637 0.70156 0.51615 0.0
H518 H 0.71726 0.7061 0.51745 0.0
H519 H 0.74066 0.70451 0.47477 0.0
C520 C 0.31371 0.34337 0.23484 0.0
C521 C 0.35061 0.35013 0.22288 0.0
C522 C 0.28948 0.36038 0.2212 0.0
C523 C 0.30193 0.38404 0.19394 0.0
C524 C 0.3391 0.39131 0.18182 0.0
C525 C 0.36312 0.3743 0.19657 0.0
C526 C 0.25004 0.35189 0.23492 0.0
C527 C 0.35311 0.41612 0.15243 0.0
C528 C 0.22433 0.39154 0.13341 0.0
C529 C 0.21626 0.42068 0.14757 0.0
C530 C 0.25346 0.3804 0.14708 0.0
C531 C 0.27475 0.3985 0.17608 0.0
C532 C 0.26715 0.42813 0.19033 0.0
C533 C 0.23799 0.43894 0.17583 0.0
C534 C 0.26049 0.34848 0.13139 0.0
C535 C 0.28903 0.44771 0.22164 0.0
H536 H 0.30315 0.32384 0.25414 0.0
H537 H 0.39151 0.37959 0.1872 0.0
H538 H 0.24211 0.37513 0.24283 0.0
H539 H 0.23103 0.33899 0.21304 0.0
H540 H 0.2458 0.33531 0.25859 0.0
H541 H 0.38341 0.42098 0.14816 0.0
H542 H 0.33891 0.4063 0.12661 0.0
H543 H 0.34663 0.44025 0.15922 0.0
H544 H 0.20725 0.37686 0.11209 0.0
H545 H 0.23218 0.46167 0.18664 0.0
H546 H 0.25367 0.32863 0.15185 0.0
H547 H 0.29014 0.35262 0.12434 0.0
H548 H 0.24372 0.33911 0.10677 0.0
H549 H 0.28369 0.43236 0.24624 0.0
H550 H 0.28176 0.47166 0.22761 0.0
H551 H 0.31909 0.45333 0.2158 0.0
C552 C 0.65064 0.27448 0.90866 0.0
C553 C 0.68914 0.28847 0.90759 0.0
C554 C 0.63491 0.24283 0.92405 0.0
C555 C 0.658 0.22465 0.93943 0.0
C556 C 0.69679 0.23826 0.93775 0.0
C557 C 0.71174 0.2694 0.92145 0.0
C558 C 0.59343 0.2291 0.9244 0.0
C559 C 0.72268 0.22033 0.95409 0.0
C560 C 0.61579 0.16182 1.01273 0.0
C561 C 0.61034 0.13081 0.99424 0.0
C562 C 0.63201 0.19229 0.99556 0.0
C563 C 0.64178 0.19206 0.95834 0.0
C564 C 0.63636 0.16063 0.93953 0.0
C565 C 0.62115 0.1304 0.9578 0.0
C566 C 0.63823 0.2248 1.01725 0.0
C567 C 0.6453 0.15899 0.89972 0.0
H568 H 0.63264 0.28862 0.89835 0.0
H569 H 0.74152 0.27895 0.91993 0.0
H570 H 0.58554 0.20318 0.91261 0.0
H571 H 0.58312 0.22778 0.95271 0.0
H572 H 0.57939 0.24481 0.909 0.0
H573 H 0.7522 0.23416 0.95066 0.0
H574 H 0.71676 0.21706 0.98346 0.0
H575 H 0.71824 0.1949 0.94147 0.0
H576 H 0.60687 0.16223 0.04073 0.0
H577 H 0.61598 0.10653 0.94308 0.0
H578 H 0.62132 0.2404 1.00603 0.0
H579 H 0.66765 0.23933 1.01528 0.0
H580 H 0.63094 0.22066 0.04629 0.0
H581 H 0.62848 0.17217 0.88426 0.0
H582 H 0.63982 0.13275 0.88897 0.0
H583 H 0.67475 0.17204 0.89479 0.0
C584 C 0.96311 0.79693 0.45738 0.0
C585 C 0.9484 0.79251 0.42223 0.0
C586 C 0.97651 0.82923 0.47371 0.0
C587 C 0.97417 0.85814 0.45505 0.0
C588 C 0.95919 0.85374 0.4195 0.0
C589 C 0.94691 0.82114 0.40344 0.0
C590 C 0.99289 0.83234 0.51119 0.0
C591 C 0.95504 0.88344 0.39882 0.0
C592 C 0.97493 0.9365 0.51429 0.0
C593 C 1.01078 0.95704 0.50886 0.0
C594 C 0.96235 0.90495 0.49615 0.0
C595 C 0.98666 0.89272 0.47304 0.0
C596 C 0.02314 0.91337 0.46787 0.0
C597 C 0.03447 0.94545 0.4852 0.0
C598 C 0.92294 0.88471 0.50182 0.0
C599 C 0.05059 0.90119 0.44477 0.0
H600 H 0.96394 0.77493 0.47226 0.0
H601 H 0.93491 0.81792 0.37658 0.0
H602 H 0.02066 0.8505 0.51142 0.0
H603 H 0.97528 0.84218 0.53054 0.0
H604 H 0.99548 0.80791 0.52093 0.0
H605 H 0.94274 0.876 0.37161 0.0
H606 H 0.93719 0.89645 0.41434 0.0
H607 H 0.98235 0.90179 0.39549 0.0
H608 H 0.95648 0.94538 0.53246 0.0
H609 H 0.06234 0.96108 0.48117 0.0
H610 H 0.92253 0.86135 0.51601 0.0
H611 H 0.90913 0.87723 0.4753 0.0
H612 H 0.90667 0.89884 0.51804 0.0
H613 H 0.05412 0.87744 0.45549 0.0
H614 H 0.07806 0.91982 0.44395 0.0
H615 H 0.0401 0.89567 0.4167 0.0
C616 C 0.35247 0.80896 0.55405 0.0
C617 C 0.31992 0.79304 0.57237 0.0
C618 C 0.38476 0.79844 0.55809 0.0
C619 C 0.38421 0.77145 0.58094 0.0
C620 C 0.35174 0.75615 0.60049 0.0
C621 C 0.31985 0.76692 0.59565 0.0
C622 C 0.41895 0.81524 0.53686 0.0
C623 C 0.35021 0.72742 0.62531 0.0
C624 C 0.44477 0.71327 0.56156 0.0
C625 C 0.47041 0.722 0.58987 0.0
C626 C 0.41744 0.73018 0.55748 0.0
C627 C 0.41616 0.75684 0.58194 0.0
C628 C 0.4434 0.76723 0.60913 0.0
C629 C 0.47014 0.74949 0.61295 0.0
C630 C 0.38882 0.71836 0.52813 0.0
C631 C 0.44321 0.79594 0.63528 0.0
H632 H 0.35242 0.82911 0.53596 0.0
H633 H 0.29458 0.75458 0.60968 0.0
H634 H 0.44344 0.82226 0.55486 0.0
H635 H 0.42436 0.79744 0.51579 0.0
H636 H 0.41611 0.83809 0.52339 0.0
H637 H 0.32371 0.71997 0.64051 0.0
H638 H 0.35354 0.70533 0.60919 0.0
H639 H 0.37325 0.73439 0.64505 0.0
H640 H 0.4455 0.6926 0.54306 0.0
H641 H 0.48984 0.75629 0.63495 0.0
H642 H 0.38674 0.73977 0.51165 0.0
H643 H 0.36132 0.70778 0.54064 0.0
H644 H 0.39524 0.69883 0.50984 0.0
H645 H 0.43989 0.81794 0.62053 0.0
H646 H 0.46896 0.80371 0.65155 0.0
H647 H 0.41937 0.78828 0.65407 0.0
C648 C 0.72929 0.81656 0.77323 0.0
C649 C 0.74352 0.8019 0.80159 0.0
C650 C 0.75279 0.83412 0.74657 0.0
C651 C 0.79082 0.83581 0.74789 0.0
C652 C 0.80413 0.81663 0.77283 0.0
C653 C 0.78043 0.80033 0.79984 0.0
C654 C 0.73779 0.8542 0.72003 0.0
C655 C 0.84452 0.81718 0.77428 0.0
C656 C 0.86298 0.88338 0.68328 0.0
C657 C 0.87752 0.91293 0.70381 0.0
C658 C 0.83305 0.85841 0.69624 0.0
C659 C 0.81772 0.86342 0.73034 0.0
C660 C 0.8312 0.89392 0.75032 0.0
C661 C 0.8612 0.91818 0.73691 0.0
C662 C 0.81938 0.82613 0.67439 0.0
C663 C 0.81539 0.90027 0.78688 0.0
H664 H 0.70048 0.81677 0.77351 0.0
H665 H 0.79213 0.78929 0.82142 0.0
H666 H 0.74388 0.88069 0.73004 0.0
H667 H 0.75113 0.85406 0.6931 0.0
H668 H 0.70737 0.84445 0.71689 0.0
H669 H 0.84897 0.79635 0.79043 0.0
H670 H 0.85578 0.81532 0.74666 0.0
H671 H 0.8605 0.84128 0.78699 0.0
H672 H 0.87539 0.87954 0.65742 0.0
H673 H 0.87283 0.94076 0.75313 0.0
H674 H 0.789 0.81592 0.67693 0.0
H675 H 0.8325 0.80713 0.68463 0.0
H676 H 0.82665 0.82969 0.64528 0.0
H677 H 0.78491 0.89533 0.78529 0.0
H678 H 0.82701 0.92645 0.79721 0.0
H679 H 0.82153 0.88299 0.80687 0.0
C680 C 0.75909 0.21452 0.38913 0.0
C681 C 0.79688 0.22973 0.38507 0.0
C682 C 0.73768 0.20005 0.35908 0.0
C683 C 0.75489 0.20107 0.32474 0.0
C684 C 0.79248 0.21865 0.32028 0.0
C685 C 0.81316 0.2327 0.35073 0.0
C686 C 0.69769 0.18121 0.36457 0.0
C687 C 0.81165 0.22016 0.28394 0.0
C688 C 0.72475 0.12975 0.25672 0.0
C689 C 0.70766 0.14453 0.23089 0.0
C690 C 0.73873 0.14744 0.28852 0.0
C691 C 0.73524 0.18048 0.29428 0.0
C692 C 0.71619 0.19475 0.26915 0.0
C693 C 0.70263 0.17653 0.23752 0.0
C694 C 0.75902 0.13152 0.3149 0.0
C695 C 0.71188 0.22983 0.27473 0.0
H696 H 0.747 0.21176 0.41604 0.0
H697 H 0.84263 0.24407 0.34813 0.0
H698 H 0.6801 0.18675 0.34292 0.0
H699 H 0.69501 0.15381 0.36311 0.0
H700 H 0.687 0.18749 0.39128 0.0
H701 H 0.83973 0.23784 0.2845 0.0
H702 H 0.81428 0.19483 0.27586 0.0
H703 H 0.79514 0.228 0.26281 0.0
H704 H 0.72875 0.10504 0.25123 0.0
H705 H 0.68893 0.1876 0.21748 0.0
H706 H 0.74802 0.13306 0.34271 0.0
H707 H 0.78874 0.14536 0.31535 0.0
H708 H 0.75672 0.10476 0.30769 0.0
H709 H 0.70146 0.2332 0.30242 0.0
H710 H 0.6927 0.23564 0.25475 0.0
H711 H 0.73924 0.24829 0.27201 0.0
C712 C 0.44091 0.66938 0.33777 0.0
C713 C 0.46794 0.68516 0.31266 0.0
C714 C 0.45052 0.65593 0.37006 0.0
C715 C 0.48815 0.65783 0.37762 0.0
C716 C 0.51553 0.67483 0.35291 0.0
C717 C 0.50518 0.68811 0.32103 0.0
C718 C 0.42016 0.63824 0.39527 0.0
C719 C 0.55592 0.6777 0.35927 0.0
C720 C 0.52061 0.64014 0.47238 0.0
C721 C 0.52486 0.60746 0.46764 0.0
C722 C 0.50807 0.65657 0.44383 0.0
C723 C 0.49892 0.64001 0.40954 0.0
C724 C 0.50211 0.60666 0.40508 0.0
C725 C 0.51516 0.59106 0.4338 0.0
C726 C 0.50561 0.69212 0.45011 0.0
C727 C 0.49237 0.58751 0.36954 0.0
H728 H 0.41206 0.6664 0.33144 0.0
H729 H 0.52638 0.69974 0.30178 0.0
H730 H 0.41823 0.61098 0.3946 0.0
H731 H 0.42653 0.64763 0.42354 0.0
H732 H 0.39285 0.64168 0.38773 0.0
H733 H 0.5741 0.6938 0.33921 0.0
H734 H 0.56405 0.68823 0.38686 0.0
H735 H 0.56079 0.65237 0.35754 0.0
H736 H 0.528 0.65328 0.49817 0.0
H737 H 0.51795 0.5658 0.42954 0.0
H738 H 0.47771 0.69414 0.44279 0.0
H739 H 0.52579 0.70914 0.43236 0.0
H740 H 0.51136 0.70091 0.47869 0.0
H741 H 0.46391 0.58723 0.36143 0.0
H742 H 0.49415 0.56118 0.3709 0.0
H743 H 0.51138 0.60018 0.34799 0.0
C744 C 0.18457 0.41972 0.84202 0.0
C745 C 0.15989 0.40466 0.81417 0.0
C746 C 0.17347 0.43675 0.87206 0.0
C747 C 0.13668 0.43971 0.87459 0.0
C748 C 0.11132 0.42391 0.84691 0.0
C749 C 0.12305 0.40634 0.81741 0.0
C750 C 0.20158 0.45221 0.90083 0.0
C751 C 0.07208 0.42671 0.84767 0.0
C752 C 0.1002 0.46722 0.96585 0.0
C753 C 0.10795 0.5023 0.96292 0.0
C754 C 0.10967 0.44666 0.9378 0.0
C755 C 0.12567 0.46099 0.90491 0.0
C756 C 0.13227 0.49621 0.90141 0.0
C757 C 0.1241 0.51627 0.93041 0.0
C758 C 0.10304 0.40956 0.94361 0.0
C759 C 0.14795 0.51287 0.86678 0.0
H760 H 0.213 0.41841 0.84014 0.0
H761 H 0.10371 0.39512 0.79607 0.0
H762 H 0.20744 0.47996 0.90065 0.0
H763 H 0.19046 0.44408 0.92801 0.0
H764 H 0.22803 0.44531 0.89669 0.0
H765 H 0.05534 0.41231 0.82497 0.0
H766 H 0.05854 0.41746 0.8736 0.0
H767 H 0.07208 0.45347 0.846 0.0
H768 H 0.08721 0.45575 0.99027 0.0
H769 H 0.12978 0.54314 0.92723 0.0
H770 H 0.12924 0.40223 0.93969 0.0
H771 H 0.08311 0.39504 0.92329 0.0
H772 H 0.09211 0.40233 0.97111 0.0
H773 H 0.17625 0.51009 0.8622 0.0
H774 H 0.14921 0.54003 0.86723 0.0
H775 H 0.13082 0.50044 0.84341 0.0
C776 C 0.64694 0.83427 0.92807 0.0
C777 C 0.6738 0.8412 0.90062 0.0
C778 C 0.63304 0.85981 0.94353 0.0
C779 C 0.6454 0.8927 0.93033 0.0
C780 C 0.67159 0.89974 0.90198 0.0
C781 C 0.68615 0.87415 0.88812 0.0
C782 C 0.60604 0.85187 0.9747 0.0
C783 C 0.68508 0.93454 0.88698 0.0
C784 C 0.59027 0.95523 0.95253 0.0
C785 C 0.61145 0.97438 0.98046 0.0
C786 C 0.60095 0.92841 0.93585 0.0
C787 C 0.63318 0.92045 0.9479 0.0
C788 C 0.65463 0.93965 0.97616 0.0
C789 C 0.64365 0.96659 0.99193 0.0
C790 C 0.57792 0.90878 0.90524 0.0
C791 C 0.68899 0.93158 0.98994 0.0
H792 H 0.63699 0.80895 0.93774 0.0
H793 H 0.7079 0.88037 0.86797 0.0
H794 H 0.61831 0.86669 0.99919 0.0
H795 H 0.58048 0.85916 0.96834 0.0
H796 H 0.59848 0.82481 0.98117 0.0
H797 H 0.70231 0.93492 0.86227 0.0
H798 H 0.6613 0.94445 0.88028 0.0
H799 H 0.70181 0.95187 0.90768 0.0
H800 H 0.56537 0.9612 0.94368 0.0
H801 H 0.65995 0.98106 1.01386 0.0
H802 H 0.5679 0.88193 0.91213 0.0
H803 H 0.59513 0.91013 0.88043 0.0
H804 H 0.55367 0.91831 0.89915 0.0
H805 H 0.68221 0.90514 0.99858 0.0
H806 H 0.70171 0.94821 1.01314 0.0
H807 H 0.70983 0.9342 0.96794 0.0
C808 C 0.91468 0.19591 0.48048 0.0
C809 C 0.88095 0.18801 0.46194 0.0
C810 C 0.9298 0.17061 0.49213 0.0
C811 C 0.91154 0.1367 0.48356 0.0
C812 C 0.87869 0.12855 0.46306 0.0
C813 C 0.8633 0.15427 0.45315 0.0
C814 C 0.9645 0.18011 0.51483 0.0
C815 C 0.85922 0.09264 0.45257 0.0
C816 C 0.97256 0.07919 0.4974 0.0
C817 C 0.96086 0.06707 0.53165 0.0
C818 C 0.95475 0.10003 0.47995 0.0
C819 C 0.92581 0.10984 0.49814 0.0
C820 C 0.91298 0.09648 0.53218 0.0
C821 C 0.93041 0.07464 0.54834 0.0
C822 C 0.96828 0.11306 0.44313 0.0
C823 C 0.88308 0.10746 0.5529 0.0
H824 H 0.92898 0.2219 0.4866 0.0
H825 H 0.83686 0.1477 0.43946 0.0
H826 H 0.95891 0.1682 0.54158 0.0
H827 H 0.98658 0.17073 0.50156 0.0
H828 H 0.97501 0.2077 0.51935 0.0
H829 H 0.83664 0.09097 0.43282 0.0
H830 H 0.87919 0.07978 0.4406 0.0
H831 H 0.84718 0.07883 0.47701 0.0
H832 H 0.9964 0.07326 0.48487 0.0
H833 H 0.92214 0.06566 0.57525 0.0
H834 H 0.98398 0.13984 0.44576 0.0
H835 H 0.94459 0.11154 0.42484 0.0
H836 H 0.98666 0.09886 0.43038 0.0
H837 H 0.89315 0.13453 0.56051 0.0
H838 H 0.8748 0.09311 0.57797 0.0
H839 H 0.85826 0.10437 0.53577 0.0
C840 C 0.33747 0.691 0.14132 0.0
C841 C 0.33977 0.69642 0.17908 0.0
C842 C 0.30487 0.67134 0.12462 0.0
C843 C 0.27323 0.65707 0.14596 0.0
C844 C 0.27529 0.66271 0.18406 0.0
C845 C 0.30848 0.68196 0.20011 0.0
C846 C 0.3044 0.6656 0.08408 0.0
C847 C 0.24224 0.64862 0.20793 0.0
C848 C 0.17884 0.63271 0.09886 0.0
C849 C 0.17145 0.59762 0.0949 0.0
C850 C 0.21144 0.65217 0.11565 0.0
C851 C 0.23802 0.63646 0.12841 0.0
C852 C 0.23088 0.60106 0.12426 0.0
C853 C 0.19767 0.58211 0.10794 0.0
C854 C 0.21722 0.68962 0.12002 0.0
C855 C 0.25851 0.5832 0.13691 0.0
H856 H 0.36149 0.70175 0.12476 0.0
H857 H 0.30971 0.68627 0.22921 0.0
H858 H 0.29739 0.63827 0.07748 0.0
H859 H 0.28274 0.67553 0.07186 0.0
H860 H 0.33139 0.6778 0.07132 0.0
H861 H 0.24792 0.65586 0.23693 0.0
H862 H 0.21846 0.65764 0.19917 0.0
H863 H 0.23385 0.62083 0.20525 0.0
H864 H 0.15876 0.64506 0.08933 0.0
H865 H 0.19243 0.55507 0.1051 0.0
H866 H 0.2426 0.70295 0.10538 0.0
H867 H 0.22123 0.69731 0.14905 0.0
H868 H 0.19354 0.69793 0.1096 0.0
H869 H 0.28552 0.59346 0.12334 0.0
H870 H 0.24931 0.55569 0.13124 0.0
H871 H 0.2631 0.58762 0.16646 0.0
C872 C 0.34765 0.42127 0.69283 0.0
C873 C 0.31618 0.43307 0.69851 0.0
C874 C 0.37733 0.4385 0.6711 0.0
C875 C 0.376 0.46867 0.65459 0.0
C876 C 0.34416 0.48066 0.65996 0.0
C877 C 0.31482 0.46291 0.68204 0.0
C878 C 0.41048 0.42459 0.66628 0.0
C879 C 0.34142 0.51266 0.64302 0.0
C880 C 0.47026 0.52547 0.62645 0.0
C881 C 0.47147 0.51757 0.58932 0.0
C882 C 0.43879 0.51094 0.64768 0.0
C883 C 0.40799 0.48729 0.63169 0.0
C884 C 0.40897 0.47968 0.59409 0.0
C885 C 0.44036 0.49511 0.57341 0.0
C886 C 0.43882 0.52032 0.68746 0.0
C887 C 0.37736 0.4542 0.57588 0.0
H888 H 0.34938 0.39869 0.70607 0.0
H889 H 0.29107 0.47267 0.68694 0.0
H890 H 0.41553 0.42056 0.63705 0.0
H891 H 0.43551 0.4429 0.67725 0.0
H892 H 0.40693 0.40045 0.68014 0.0
H893 H 0.31451 0.51818 0.64887 0.0
H894 H 0.36399 0.53403 0.65334 0.0
H895 H 0.34496 0.51097 0.61323 0.0
H896 H 0.49407 0.54283 0.63899 0.0
H897 H 0.44096 0.48865 0.54481 0.0
H898 H 0.43873 0.49819 0.70377 0.0
H899 H 0.41341 0.52801 0.69461 0.0
H900 H 0.46331 0.54109 0.69521 0.0
H901 H 0.37429 0.4292 0.58762 0.0
H902 H 0.38158 0.45205 0.54619 0.0
H903 H 0.35106 0.46104 0.58082 0.0
C904 C 0.77693 0.70508 0.899 0.0
C905 C 0.7461 0.69793 0.92214 0.0
C906 C 0.80773 0.6931 0.90589 0.0
C907 C 0.8074 0.67314 0.93641 0.0
C908 C 0.7758 0.66486 0.95911 0.0
C909 C 0.74557 0.67756 0.95181 0.0
C910 C 0.84103 0.70267 0.88122 0.0
C911 C 0.77429 0.64334 0.99166 0.0
C912 C 0.87893 0.62334 0.94074 0.0
C913 C 0.90554 0.64406 0.96367 0.0
C914 C 0.84663 0.63231 0.93178 0.0
C915 C 0.84104 0.66279 0.94592 0.0
C916 C 0.86785 0.68381 0.96899 0.0
C917 C 0.89973 0.67416 0.97762 0.0
C918 C 0.81852 0.60925 0.90722 0.0
C919 C 0.86306 0.7167 0.98425 0.0
H920 H 0.77736 0.72074 0.87598 0.0
H921 H 0.72171 0.67197 0.96963 0.0
H922 H 0.86513 0.71811 0.89663 0.0
H923 H 0.8485 0.67986 0.87092 0.0
H924 H 0.83623 0.71715 0.85774 0.0
H925 H 0.74673 0.63727 1.00502 0.0
H926 H 0.78092 0.61954 0.98356 0.0
H927 H 0.79535 0.6566 1.0117 0.0
H928 H 0.88321 0.59993 0.93013 0.0
H929 H 0.9205 0.69053 0.99485 0.0
H930 H 0.8151 0.6225 0.88234 0.0
H931 H 0.7912 0.60206 0.92093 0.0
H932 H 0.82658 0.58606 0.89922 0.0
H933 H 0.86089 0.73335 0.96183 0.0
H934 H 0.88638 0.73002 1.00202 0.0
H935 H 0.83703 0.71224 1.00012 0.0
C936 C 0.42658 0.82739 0.1816 0.0
C937 C 0.44493 0.80189 0.18129 0.0
C938 C 0.44295 0.85902 0.16668 0.0
C939 C 0.47819 0.86521 0.14977 0.0
C940 C 0.49641 0.83913 0.14862 0.0
C941 C 0.47987 0.80808 0.16482 0.0
C942 C 0.42286 0.8861 0.16982 0.0
C943 C 0.53346 0.84397 0.13017 0.0
C944 C 0.5088 0.94043 0.08655 0.0
C945 C 0.5343 0.96383 0.10827 0.0
C946 C 0.49044 0.90825 0.09946 0.0
C947 C 0.4969 0.89948 0.13531 0.0
C948 C 0.52174 0.92359 0.15754 0.0
C949 C 0.54038 0.95502 0.14365 0.0
C950 C 0.46503 0.88323 0.07437 0.0
C951 C 0.52895 0.91616 0.19613 0.0
H952 H 0.39952 0.82273 0.19419 0.0
H953 H 0.49398 0.78835 0.16403 0.0
H954 H 0.44012 0.90822 0.18501 0.0
H955 H 0.41807 0.8946 0.14255 0.0
H956 H 0.3958 0.87747 0.18387 0.0
H957 H 0.54269 0.82057 0.12903 0.0
H958 H 0.53207 0.85255 0.10216 0.0
H959 H 0.55462 0.86375 0.14484 0.0
H960 H 0.50428 0.94677 0.05902 0.0
H961 H 0.56002 0.97286 0.16067 0.0
H962 H 0.43697 0.87506 0.08638 0.0
H963 H 0.47531 0.86053 0.07074 0.0
H964 H 0.4629 0.89367 0.04736 0.0
H965 H 0.50245 0.90817 0.21119 0.0
H966 H 0.54722 0.93823 0.21061 0.0
H967 H 0.54215 0.89516 0.19653 0.0
C968 C 0.11719 0.2957 0.71436 0.0
C969 C 0.15531 0.30837 0.7207 0.0
C970 C 0.10265 0.2642 0.69641 0.0
C971 C 0.12661 0.24447 0.68471 0.0
C972 C 0.16491 0.25673 0.69204 0.0
C973 C 0.17865 0.28822 0.7098 0.0
C974 C 0.0617 0.25241 0.68905 0.0
C975 C 0.19168 0.23679 0.68052 0.0
C976 C 0.08885 0.14992 0.66327 0.0
C977 C 0.08854 0.14851 0.62517 0.0
C978 C 0.10063 0.18079 0.68289 0.0
C979 C 0.11208 0.21139 0.66423 0.0
C980 C 0.11129 0.21013 0.62579 0.0
C981 C 0.09979 0.17893 0.60687 0.0
C982 C 0.10136 0.18062 0.72371 0.0
C983 C 0.1229 0.24184 0.60449 0.0
H984 H 0.09883 0.31096 0.72228 0.0
H985 H 0.20806 0.29729 0.71493 0.0
H986 H 0.05686 0.2499 0.6594 0.0
H987 H 0.05001 0.22725 0.70046 0.0
H988 H 0.04652 0.26996 0.70075 0.0
H989 H 0.22044 0.24917 0.68925 0.0
H990 H 0.18309 0.21139 0.69203 0.0
H991 H 0.19142 0.23346 0.65061 0.0
H992 H 0.08022 0.12678 0.67792 0.0
H993 H 0.09946 0.17846 0.57753 0.0
H994 H 0.08426 0.19658 0.73521 0.0
H995 H 0.13005 0.19148 0.73345 0.0
H996 H 0.09098 0.15494 0.73433 0.0
H997 H 0.1066 0.25947 0.61332 0.0
H998 H 0.11917 0.23686 0.57487 0.0
H999 H 0.15242 0.25457 0.60979 0.0
C1000 C 0.80018 0.33477 0.51775 0.0
C1001 C 0.79462 0.30042 0.5228 0.0
C1002 C 0.77017 0.34833 0.51369 0.0
C1003 C 0.73385 0.32687 0.51483 0.0
C1004 C 0.72807 0.29196 0.51896 0.0
C1005 C 0.75872 0.27902 0.5227 0.0
C1006 C 0.77731 0.38569 0.50889 0.0
C1007 C 0.6896 0.26854 0.52017 0.0
C1008 C 0.66339 0.37287 0.54271 0.0
C1009 C 0.65112 0.37992 0.50893 0.0
C1010 C 0.68891 0.35384 0.54516 0.0
C1011 C 0.70212 0.34152 0.51302 0.0
C1012 C 0.68786 0.34656 0.479 0.0
C1013 C 0.66251 0.36588 0.47735 0.0
C1014 C 0.70349 0.34882 0.58193 0.0
C1015 C 0.70126 0.33363 0.44421 0.0
H1016 H 0.82813 0.35101 0.51728 0.0
H1017 H 0.75466 0.25232 0.526 0.0
H1018 H 0.76386 0.39058 0.4838 0.0
H1019 H 0.76509 0.39694 0.53191 0.0
H1020 H 0.80729 0.39861 0.50737 0.0
H1021 H 0.6899 0.24184 0.52196 0.0
H1022 H 0.67441 0.27522 0.54394 0.0
H1023 H 0.67394 0.27131 0.49567 0.0
H1024 H 0.65409 0.38336 0.56716 0.0
H1025 H 0.65329 0.37159 0.45116 0.0
H1026 H 0.73286 0.36345 0.58422 0.0
H1027 H 0.70245 0.32202 0.58534 0.0
H1028 H 0.68766 0.35705 0.60434 0.0
H1029 H 0.72999 0.34845 0.4386 0.0
H1030 H 0.68372 0.33555 0.42076 0.0
H1031 H 0.70167 0.30705 0.44659 0.0
loop_
_geom_bond_atom_site_label_1
_geom_bond_atom_site_label_2
_geom_bond_distance
_geom_bond_site_symmetry_2
_ccdc_geom_bond_type
H0 C7 0.929 . S
H1 C10 0.930 . S
H2 C12 0.929 . S
H3 C4 0.969 . S
C4 H3 0.969 . S
C4 O5 1.550 . S
C4 H6 0.973 . S
O5 C4 1.550 . S
O5 C11 1.412 . S
H6 C4 0.973 . S
C7 H0 0.929 . S
C7 C8 1.400 . S
C7 C9 1.364 . S
C8 C7 1.400 . S
C8 C12 1.377 . S
C9 C7 1.364 . S
C9 C10 1.374 . S
C10 H1 0.930 . S
C10 C9 1.374 . S
C10 C11 1.383 . S
C11 O5 1.412 . S
C11 C10 1.383 . S
C11 C12 1.394 . S
C12 H2 0.929 . S
C12 C8 1.377 . S
C12 C11 1.394 . S
H13 C20 0.929 . S
H14 C23 0.930 . S
H15 C25 0.929 . S
H16 C17 0.969 . S
C17 H16 0.969 . S
C17 O18 1.550 . S
C17 H19 0.973 . S
O18 C17 1.550 . S
O18 C24 1.412 . S
H19 C17 0.973 . S
C20 H13 0.929 . S
C20 C21 1.400 . S
C20 C22 1.364 . S
C21 C20 1.400 . S
C21 C25 1.377 . S
C22 C20 1.364 . S
C22 C23 1.374 . S
C23 H14 0.930 . S
C23 C22 1.374 . S
C23 C24 1.383 . S
C24 O18 1.412 . S
C24 C23 1.383 . S
C24 C25 1.394 . S
C25 H15 0.929 . S
C25 C21 1.377 . S
C25 C24 1.394 . S
H26 C33 0.929 . S
H27 C36 0.930 . S
H28 C38 0.929 . S
H29 C30 0.969 . S
C30 H29 0.969 . S
C30 O31 1.550 . S
C30 H32 0.973 . S
O31 C30 1.550 . S
O31 C37 1.412 . S
H32 C30 0.973 . S
C33 H26 0.929 . S
C33 C34 1.400 . S
C33 C35 1.364 . S
C34 C33 1.400 . S
C34 C38 1.377 . S
C35 C33 1.364 . S
C35 C36 1.374 . S
C36 H27 0.930 . S
C36 C35 1.374 . S
C36 C37 1.383 . S
C37 O31 1.412 . S
C37 C36 1.383 . S
C37 C38 1.394 . S
C38 H28 0.929 . S
C38 C34 1.377 . S
C38 C37 1.394 . S
H39 C46 0.929 . S
H40 C49 0.930 . S
H41 C51 0.929 . S
H42 C43 0.969 . S
C43 H42 0.969 . S
C43 O44 1.550 . S
C43 H45 0.973 . S
O44 C43 1.550 . S
O44 C50 1.412 . S
H45 C43 0.973 . S
C46 H39 0.929 . S
C46 C47 1.400 . S
C46 C48 1.364 . S
C47 C46 1.400 . S
C47 C51 1.377 . S
C48 C46 1.364 . S
C48 C49 1.374 . S
C49 H40 0.930 . S
C49 C48 1.374 . S
C49 C50 1.383 . S
C50 O44 1.412 . S
C50 C49 1.383 . S
C50 C51 1.394 . S
C51 H41 0.929 . S
C51 C47 1.377 . S
C51 C50 1.394 . S
H52 C59 0.929 . S
H53 C62 0.930 . S
H54 C64 0.929 . S
H55 C56 0.969 . S
C56 H55 0.969 . S
C56 O57 1.550 . S
C56 H58 0.973 . S
O57 C56 1.550 . S
O57 C63 1.412 . S
H58 C56 0.973 . S
C59 H52 0.929 . S
C59 C60 1.400 . S
C59 C61 1.364 . S
C60 C59 1.400 . S
C60 C64 1.377 . S
C61 C59 1.364 . S
C61 C62 1.374 . S
C62 H53 0.930 . S
C62 C61 1.374 . S
C62 C63 1.383 . S
C63 O57 1.412 . S
C63 C62 1.383 . S
C63 C64 1.394 . S
C64 H54 0.929 . S
C64 C60 1.377 . S
C64 C63 1.394 . S
H65 C72 0.929 . S
H66 C75 0.930 . S
H67 C77 0.929 . S
H68 C69 0.969 . S
C69 H68 0.969 . S
C69 O70 1.550 . S
C69 H71 0.973 . S
O70 C69 1.550 . S
O70 C76 1.412 . S
H71 C69 0.973 . S
C72 H65 0.929 . S
C72 C73 1.400 . S
C72 C74 1.364 . S
C73 C72 1.400 . S
C73 C77 1.377 . S
C74 C72 1.364 . S
C74 C75 1.374 . S
C75 H66 0.930 . S
C75 C74 1.374 . S
C75 C76 1.383 . S
C76 O70 1.412 . S
C76 C75 1.383 . S
C76 C77 1.394 . S
C77 H67 0.929 . S
C77 C73 1.377 . S
C77 C76 1.394 . S
H78 C85 0.929 . S
H79 C88 0.930 . S
H80 C90 0.929 . S
H81 C82 0.969 . S
C82 H81 0.969 . S
C82 O83 1.550 . S
C82 H84 0.973 . S
O83 C82 1.550 . S
O83 C89 1.412 . S
H84 C82 0.973 . S
C85 H78 0.929 . S
C85 C86 1.400 . S
C85 C87 1.364 . S
C86 C85 1.400 . S
C86 C90 1.377 . S
C87 C85 1.364 . S
C87 C88 1.374 . S
C88 H79 0.930 . S
C88 C87 1.374 . S
C88 C89 1.383 . S
C89 O83 1.412 . S
C89 C88 1.383 . S
C89 C90 1.394 . S
C90 H80 0.929 . S
C90 C86 1.377 . S
C90 C89 1.394 . S
H91 C98 0.929 . S
H92 C101 0.930 . S
H93 C103 0.929 . S
H94 C95 0.969 . S
C95 H94 0.969 . S
C95 O96 1.550 . S
C95 H97 0.973 . S
O96 C95 1.550 . S
O96 C102 1.412 . S
H97 C95 0.973 . S
C98 H91 0.929 . S
C98 C99 1.400 . S
C98 C100 1.364 . S
C99 C98 1.400 . S
C99 C103 1.377 . S
C100 C98 1.364 . S
C100 C101 1.374 . S
C101 H92 0.930 . S
C101 C100 1.374 . S
C101 C102 1.383 . S
C102 O96 1.412 . S
C102 C101 1.383 . S
C102 C103 1.394 . S
C103 H93 0.929 . S
C103 C99 1.377 . S
C103 C102 1.394 . S
Gd104 C107 2.818 . S
Gd104 O124 2.377 . S
Gd104 O126 2.448 . S
Gd104 O127 2.506 . S
Gd104 O128 2.435 . S
Gd104 O129 2.717 1_545 S
Gd104 O131 2.395 1_545 S
Gd104 O135 2.327 . S
Gd105 C116 2.818 1_545 S
Gd105 O125 2.395 1_655 S
Gd105 O129 2.327 1_645 S
Gd105 O130 2.377 1_545 S
Gd105 O132 2.448 1_545 S
Gd105 O133 2.506 1_545 S
Gd105 O134 2.435 . S
Gd105 O135 2.717 1_655 S
C106 O124 1.240 . S
C106 O125 1.240 . S
C107 Gd104 2.818 . S
C107 C108 1.510 . S
C107 O126 1.249 . S
C107 O127 1.252 . S
C108 C107 1.510 . S
C108 C109 1.404 . S
C108 C110 1.352 . S
C109 C108 1.404 . S
C109 C113 1.389 . S
C109 H136 0.930 . S
C110 C108 1.352 . S
C110 C112 1.374 . S
C110 H137 0.931 . S
C111 C112 1.359 . S
C111 C113 1.364 . S
C112 C110 1.374 . S
C112 C111 1.359 . S
C112 H138 0.931 . S
C113 C109 1.389 . S
C113 C111 1.364 . S
C113 H139 0.931 . S
C114 O128 1.256 1_565 S
C114 O129 1.257 . S
C115 O130 1.240 . S
C115 O131 1.240 1_655 S
C116 Gd105 2.818 1_565 S
C116 C117 1.510 . S
C116 O132 1.249 . S
C116 O133 1.252 . S
C117 C116 1.510 . S
C117 C118 1.404 . S
C117 C119 1.352 . S
C118 C117 1.404 . S
C118 C122 1.389 . S
C118 H140 0.930 . S
C119 C117 1.352 . S
C119 C121 1.374 . S
C119 H141 0.931 . S
C120 C121 1.359 . S
C120 C122 1.364 . S
C121 C119 1.374 . S
C121 C120 1.359 . S
C121 H142 0.931 . S
C122 C118 1.389 . S
C122 C120 1.364 . S
C122 H143 0.931 . S
C123 O134 1.256 . S
C123 O135 1.257 1_655 S
O124 Gd104 2.377 . S
O124 C106 1.240 . S
O125 Gd105 2.395 1_455 S
O125 C106 1.240 . S
O126 Gd104 2.448 . S
O126 C107 1.249 . S
O127 Gd104 2.506 . S
O127 C107 1.252 . S
O128 Gd104 2.435 . S
O128 C114 1.256 1_545 S
O129 Gd104 2.717 1_565 S
O129 Gd105 2.327 1_465 S
O129 C114 1.257 . S
O130 Gd105 2.377 1_565 S
O130 C115 1.240 . S
O131 Gd104 2.395 1_565 S
O131 C115 1.240 1_455 S
O132 Gd105 2.448 1_565 S
O132 C116 1.249 . S
O133 Gd105 2.506 1_565 S
O133 C116 1.252 . S
O134 Gd105 2.435 . S
O134 C123 1.256 . S
O135 Gd104 2.327 . S
O135 Gd105 2.717 1_455 S
O135 C123 1.257 1_455 S
H136 C109 0.930 . S
H137 C110 0.931 . S
H138 C112 0.931 . S
H139 C113 0.931 . S
H140 C118 0.930 . S
H141 C119 0.931 . S
H142 C121 0.931 . S
H143 C122 0.931 . S
Gd144 C147 2.818 . S
Gd144 O164 2.377 . S
Gd144 O166 2.448 . S
Gd144 O167 2.506 . S
Gd144 O168 2.435 1_545 S
Gd144 O169 2.717 1_545 S
Gd144 O171 2.395 1_544 S
Gd144 O175 2.327 1_554 S
Gd145 C156 2.818 1_545 S
Gd145 O165 2.395 1_556 S
Gd145 O169 2.327 1_546 S
Gd145 O170 2.377 1_545 S
Gd145 O172 2.448 1_545 S
Gd145 O173 2.506 1_545 S
Gd145 O174 2.435 . S
Gd145 O175 2.717 . S
C146 O164 1.240 . S
C146 O165 1.240 . S
C147 Gd144 2.818 . S
C147 C148 1.510 . S
C147 O166 1.249 . S
C147 O167 1.252 . S
C148 C147 1.510 . S
C148 C149 1.404 . S
C148 C150 1.352 . S
C149 C148 1.404 . S
C149 C153 1.389 . S
C149 H176 0.930 . S
C150 C148 1.352 . S
C150 C152 1.374 . S
C150 H177 0.931 . S
C151 C152 1.359 . S
C151 C153 1.364 . S
C152 C150 1.374 . S
C152 C151 1.359 . S
C152 H178 0.931 . S
C153 C149 1.389 . S
C153 C151 1.364 . S
C153 H179 0.931 . S
C154 O168 1.256 . S
C154 O169 1.257 . S
C155 O170 1.240 . S
C155 O171 1.240 . S
C156 Gd145 2.818 1_565 S
C156 C157 1.510 . S
C156 O172 1.249 . S
C156 O173 1.252 . S
C157 C156 1.510 . S
C157 C158 1.404 . S
C157 C159 1.352 . S
C158 C157 1.404 . S
C158 C162 1.389 . S
C158 H180 0.930 . S
C159 C157 1.352 . S
C159 C161 1.374 . S
C159 H181 0.931 . S
C160 C161 1.359 . S
C160 C162 1.364 . S
C161 C159 1.374 . S
C161 C160 1.359 . S
C161 H182 0.931 . S
C162 C158 1.389 . S
C162 C160 1.364 . S
C162 H183 0.931 . S
C163 O174 1.256 . S
C163 O175 1.257 . S
O164 Gd144 2.377 . S
O164 C146 1.240 . S
O165 Gd145 2.395 1_554 S
O165 C146 1.240 . S
O166 Gd144 2.448 . S
O166 C147 1.249 . S
O167 Gd144 2.506 . S
O167 C147 1.252 . S
O168 Gd144 2.435 1_565 S
O168 C154 1.256 . S
O169 Gd144 2.717 1_565 S
O169 Gd145 2.327 1_564 S
O169 C154 1.257 . S
O170 Gd145 2.377 1_565 S
O170 C155 1.240 . S
O171 Gd144 2.395 1_566 S
O171 C155 1.240 . S
O172 Gd145 2.448 1_565 S
O172 C156 1.249 . S
O173 Gd145 2.506 1_565 S
O173 C156 1.252 . S
O174 Gd145 2.435 . S
O174 C163 1.256 . S
O175 Gd144 2.327 1_556 S
O175 Gd145 2.717 . S
O175 C163 1.257 . S
H176 C149 0.930 . S
H177 C150 0.931 . S
H178 C152 0.931 . S
H179 C153 0.931 . S
H180 C158 0.930 . S
H181 C159 0.931 . S
H182 C161 0.931 . S
H183 C162 0.931 . S
Gd184 C187 2.818 . S
Gd184 O204 2.377 . S
Gd184 O206 2.448 . S
Gd184 O207 2.506 . S
Gd184 O208 2.435 . S
Gd184 O209 2.717 . S
Gd184 O211 2.395 . S
Gd184 O215 2.327 . S
Gd185 C196 2.818 . S
Gd185 O205 2.395 . S
Gd185 O209 2.327 . S
Gd185 O210 2.377 . S
Gd185 O212 2.448 . S
Gd185 O213 2.506 . S
Gd185 O214 2.435 . S
Gd185 O215 2.717 . S
C186 O204 1.240 . S
C186 O205 1.240 . S
C187 Gd184 2.818 . S
C187 C188 1.510 . S
C187 O206 1.249 . S
C187 O207 1.252 . S
C188 C187 1.510 . S
C188 C189 1.404 . S
C188 C190 1.352 . S
C189 C188 1.404 . S
C189 C193 1.389 . S
C189 H216 0.930 . S
C190 C188 1.352 . S
C190 C192 1.374 . S
C190 H217 0.931 . S
C191 C192 1.359 . S
C191 C193 1.364 . S
C192 C190 1.374 . S
C192 C191 1.359 . S
C192 H218 0.931 . S
C193 C189 1.389 . S
C193 C191 1.364 . S
C193 H219 0.931 . S
C194 O208 1.256 . S
C194 O209 1.257 . S
C195 O210 1.240 . S
C195 O211 1.240 . S
C196 Gd185 2.818 . S
C196 C197 1.510 . S
C196 O212 1.249 . S
C196 O213 1.252 . S
C197 C196 1.510 . S
C197 C198 1.404 . S
C197 C199 1.352 . S
C198 C197 1.404 . S
C198 C202 1.389 . S
C198 H220 0.930 . S
C199 C197 1.352 . S
C199 C201 1.374 . S
C199 H221 0.931 . S
C200 C201 1.359 . S
C200 C202 1.364 . S
C201 C199 1.374 . S
C201 C200 1.359 . S
C201 H222 0.931 . S
C202 C198 1.389 . S
C202 C200 1.364 . S
C202 H223 0.931 . S
C203 O214 1.256 . S
C203 O215 1.257 . S
O204 Gd184 2.377 . S
O204 C186 1.240 . S
O205 Gd185 2.395 . S
O205 C186 1.240 . S
O206 Gd184 2.448 . S
O206 C187 1.249 . S
O207 Gd184 2.506 . S
O207 C187 1.252 . S
O208 Gd184 2.435 . S
O208 C194 1.256 . S
O209 Gd184 2.717 . S
O209 Gd185 2.327 . S
O209 C194 1.257 . S
O210 Gd185 2.377 . S
O210 C195 1.240 . S
O211 Gd184 2.395 . S
O211 C195 1.240 . S
O212 Gd185 2.448 . S
O212 C196 1.249 . S
O213 Gd185 2.506 . S
O213 C196 1.252 . S
O214 Gd185 2.435 . S
O214 C203 1.256 . S
O215 Gd184 2.327 . S
O215 Gd185 2.717 . S
O215 C203 1.257 . S
H216 C189 0.930 . S
H217 C190 0.931 . S
H218 C192 0.931 . S
H219 C193 0.931 . S
H220 C198 0.930 . S
H221 C199 0.931 . S
H222 C201 0.931 . S
H223 C202 0.931 . S
Gd224 C227 2.818 . S
Gd224 O244 2.377 . S
Gd224 O246 2.448 . S
Gd224 O247 2.506 . S
Gd224 O248 2.435 . S
Gd224 O249 2.717 . S
Gd224 O251 2.395 1_455 S
Gd224 O255 2.327 . S
Gd225 C236 2.818 1_454 S
Gd225 O245 2.395 . S
Gd225 O249 2.327 . S
Gd225 O250 2.371 1_454 S
Gd225 O252 2.448 1_554 S
Gd225 O253 2.506 1_455 S
Gd225 O254 2.435 1_554 S
Gd225 O255 2.717 . S
C226 O244 1.240 . S
C226 O245 1.240 . S
C227 Gd224 2.818 . S
C227 C228 1.510 . S
C227 O246 1.249 . S
C227 O247 1.252 . S
C228 C227 1.510 . S
C228 C229 1.404 . S
C228 C230 1.352 . S
C229 C228 1.404 . S
C229 C233 1.389 . S
C229 H256 0.930 . S
C230 C228 1.352 . S
C230 C232 1.374 . S
C230 H257 0.931 . S
C231 C232 1.359 . S
C231 C233 1.364 . S
C232 C230 1.374 . S
C232 C231 1.359 . S
C232 H258 0.931 . S
C233 C229 1.389 . S
C233 C231 1.364 . S
C233 H259 0.931 . S
C234 O248 1.256 . S
C234 O249 1.257 . S
C235 O250 1.227 1_554 S
C235 O251 1.240 . S
C236 Gd225 2.818 1_656 S
C236 C237 1.510 . S
C236 O252 1.249 1_655 S
C236 O253 1.252 1_556 S
C237 C236 1.510 . S
C237 C238 1.404 . S
C237 C239 1.352 . S
C238 C237 1.404 . S
C238 C242 1.389 . S
C238 H260 0.930 . S
C239 C237 1.352 . S
C239 C241 1.374 . S
C239 H261 0.931 1_556 S
C240 C241 1.359 . S
C240 C242 1.364 . S
C241 C239 1.374 . S
C241 C240 1.359 . S
C241 H262 0.931 . S
C242 C238 1.389 . S
C242 C240 1.364 . S
C242 H263 0.931 . S
C243 O254 1.256 . S
C243 O255 1.257 1_556 S
O244 Gd224 2.377 . S
O244 C226 1.240 . S
O245 Gd225 2.395 . S
O245 C226 1.240 . S
O246 Gd224 2.448 . S
O246 C227 1.249 . S
O247 Gd224 2.506 . S
O247 C227 1.252 . S
O248 Gd224 2.435 . S
O248 C234 1.256 . S
O249 Gd224 2.717 . S
O249 Gd225 2.327 . S
O249 C234 1.257 . S
O250 Gd225 2.371 1_656 S
O250 C235 1.227 1_556 S
O251 Gd224 2.395 1_655 S
O251 C235 1.240 . S
O252 Gd225 2.448 1_556 S
O252 C236 1.249 1_455 S
O253 Gd225 2.506 1_655 S
O253 C236 1.252 1_554 S
O254 Gd225 2.435 1_556 S
O254 C243 1.256 . S
O255 Gd224 2.327 . S
O255 Gd225 2.717 . S
O255 C243 1.257 1_554 S
H256 C229 0.930 . S
H257 C230 0.931 . S
H258 C232 0.931 . S
H259 C233 0.931 . S
H260 C238 0.930 . S
H261 C239 0.931 1_554 S
H262 C241 0.931 . S
H263 C242 0.931 . S
C264 C265 1.391 . S
C264 C266 1.394 . S
C264 H280 0.931 . S
C265 C264 1.391 . S
C265 C269 1.376 . S
C266 C264 1.394 . S
C266 C267 1.369 . S
C266 C270 1.531 . S
C267 C266 1.369 . S
C267 C268 1.410 . S
C267 C275 1.503 . S
C268 C267 1.410 . S
C268 C269 1.392 . S
C268 C271 1.511 . S
C269 C265 1.376 . S
C269 C268 1.392 . S
C269 H281 0.929 . S
C270 C266 1.531 . S
C270 H282 0.960 . S
C270 H283 0.962 . S
C270 H284 0.960 . S
C271 C268 1.511 . S
C271 H285 0.961 . S
C271 H286 0.961 . S
C271 H287 0.961 . S
C272 C273 1.370 . S
C272 C274 1.363 . S
C272 H288 0.931 . S
C273 C272 1.370 . S
C273 C277 1.408 . S
C274 C272 1.363 . S
C274 C275 1.370 . S
C274 C278 1.524 . S
C275 C267 1.503 . S
C275 C274 1.370 . S
C275 C276 1.403 . S
C276 C275 1.403 . S
C276 C277 1.404 . S
C276 C279 1.539 . S
C277 C273 1.408 . S
C277 C276 1.404 . S
C277 H289 0.930 . S
C278 C274 1.524 . S
C278 H290 0.956 . S
C278 H291 0.961 . S
C278 H292 0.961 . S
C279 C276 1.539 . S
C279 H293 0.958 . S
C279 H294 0.961 . S
C279 H295 0.960 . S
H280 C264 0.931 . S
H281 C269 0.929 . S
H282 C270 0.960 . S
H283 C270 0.962 . S
H284 C270 0.960 . S
H285 C271 0.961 . S
H286 C271 0.961 . S
H287 C271 0.961 . S
H288 C272 0.931 . S
H289 C277 0.930 . S
H290 C278 0.956 . S
H291 C278 0.961 . S
H292 C278 0.961 . S
H293 C279 0.958 . S
H294 C279 0.961 . S
H295 C279 0.960 . S
C296 C297 1.391 . S
C296 C298 1.394 . S
C296 H312 0.931 . S
C297 C296 1.391 . S
C297 C301 1.376 . S
C298 C296 1.394 . S
C298 C299 1.369 . S
C298 C302 1.531 . S
C299 C298 1.369 . S
C299 C300 1.410 . S
C299 C307 1.503 . S
C300 C299 1.410 . S
C300 C301 1.392 . S
C300 C303 1.511 . S
C301 C297 1.376 . S
C301 C300 1.392 . S
C301 H313 0.929 . S
C302 C298 1.531 . S
C302 H314 0.960 . S
C302 H315 0.962 . S
C302 H316 0.960 . S
C303 C300 1.511 . S
C303 H317 0.961 . S
C303 H318 0.961 . S
C303 H319 0.961 . S
C304 C305 1.370 . S
C304 C306 1.363 . S
C304 H320 0.931 . S
C305 C304 1.370 . S
C305 C309 1.408 . S
C306 C304 1.363 . S
C306 C307 1.370 . S
C306 C310 1.524 . S
C307 C299 1.503 . S
C307 C306 1.370 . S
C307 C308 1.403 . S
C308 C307 1.403 . S
C308 C309 1.404 . S
C308 C311 1.539 . S
C309 C305 1.408 . S
C309 C308 1.404 . S
C309 H321 0.930 . S
C310 C306 1.524 . S
C310 H322 0.956 . S
C310 H323 0.961 . S
C310 H324 0.961 . S
C311 C308 1.539 . S
C311 H325 0.958 . S
C311 H326 0.961 . S
C311 H327 0.960 . S
H312 C296 0.931 . S
H313 C301 0.929 . S
H314 C302 0.960 . S
H315 C302 0.962 . S
H316 C302 0.960 . S
H317 C303 0.961 . S
H318 C303 0.961 . S
H319 C303 0.961 . S
H320 C304 0.931 . S
H321 C309 0.930 . S
H322 C310 0.956 . S
H323 C310 0.961 . S
H324 C310 0.961 . S
H325 C311 0.958 . S
H326 C311 0.961 . S
H327 C311 0.960 . S
C328 C329 1.391 . S
C328 C330 1.394 . S
C328 H344 0.931 . S
C329 C328 1.391 . S
C329 C333 1.376 . S
C330 C328 1.394 . S
C330 C331 1.369 . S
C330 C334 1.531 . S
C331 C330 1.369 . S
C331 C332 1.410 . S
C331 C339 1.503 . S
C332 C331 1.410 . S
C332 C333 1.392 . S
C332 C335 1.511 . S
C333 C329 1.376 . S
C333 C332 1.392 . S
C333 H345 0.929 . S
C334 C330 1.531 . S
C334 H346 0.960 . S
C334 H347 0.962 . S
C334 H348 0.960 . S
C335 C332 1.511 . S
C335 H349 0.961 . S
C335 H350 0.961 . S
C335 H351 0.961 . S
C336 C337 1.370 . S
C336 C338 1.363 . S
C336 H352 0.931 . S
C337 C336 1.370 . S
C337 C341 1.408 . S
C338 C336 1.363 . S
C338 C339 1.370 . S
C338 C342 1.524 . S
C339 C331 1.503 . S
C339 C338 1.370 . S
C339 C340 1.403 . S
C340 C339 1.403 . S
C340 C341 1.404 . S
C340 C343 1.539 . S
C341 C337 1.408 . S
C341 C340 1.404 . S
C341 H353 0.930 . S
C342 C338 1.524 . S
C342 H354 0.956 . S
C342 H355 0.961 . S
C342 H356 0.961 . S
C343 C340 1.539 . S
C343 H357 0.958 . S
C343 H358 0.961 . S
C343 H359 0.960 . S
H344 C328 0.931 . S
H345 C333 0.929 . S
H346 C334 0.960 . S
H347 C334 0.962 . S
H348 C334 0.960 . S
H349 C335 0.961 . S
H350 C335 0.961 . S
H351 C335 0.961 . S
H352 C336 0.931 . S
H353 C341 0.930 . S
H354 C342 0.956 . S
H355 C342 0.961 . S
H356 C342 0.961 . S
H357 C343 0.958 . S
H358 C343 0.961 . S
H359 C343 0.960 . S
C360 C361 1.391 . S
C360 C362 1.394 . S
C360 H376 0.931 . S
C361 C360 1.391 . S
C361 C365 1.376 . S
C362 C360 1.394 . S
C362 C363 1.369 . S
C362 C366 1.531 . S
C363 C362 1.369 . S
C363 C364 1.410 . S
C363 C371 1.503 . S
C364 C363 1.410 . S
C364 C365 1.392 . S
C364 C367 1.511 . S
C365 C361 1.376 . S
C365 C364 1.392 . S
C365 H377 0.929 . S
C366 C362 1.531 . S
C366 H378 0.960 . S
C366 H379 0.962 . S
C366 H380 0.960 . S
C367 C364 1.511 . S
C367 H381 0.961 . S
C367 H382 0.961 . S
C367 H383 0.961 . S
C368 C369 1.360 1_455 S
C368 C370 1.351 1_455 S
C368 H384 0.955 . S
C369 C368 1.360 1_655 S
C369 C373 1.408 . S
C370 C368 1.351 1_655 S
C370 C371 1.370 . S
C370 C374 1.524 1_655 S
C371 C363 1.503 . S
C371 C370 1.370 . S
C371 C372 1.403 . S
C372 C371 1.403 . S
C372 C373 1.404 . S
C372 C375 1.539 . S
C373 C369 1.408 . S
C373 C372 1.404 . S
C373 H385 0.930 . S
C374 C370 1.524 1_455 S
C374 H386 0.956 . S
C374 H387 0.979 . S
C374 H388 0.961 . S
C375 C372 1.539 . S
C375 H389 0.958 . S
C375 H390 0.961 . S
C375 H391 0.960 . S
H376 C360 0.931 . S
H377 C365 0.929 . S
H378 C366 0.960 . S
H379 C366 0.962 . S
H380 C366 0.960 . S
H381 C367 0.961 . S
H382 C367 0.961 . S
H383 C367 0.961 . S
H384 C368 0.955 . S
H385 C373 0.930 . S
H386 C374 0.956 . S
H387 C374 0.979 . S
H388 C374 0.961 . S
H389 C375 0.958 . S
H390 C375 0.961 . S
H391 C375 0.960 . S
C392 C393 1.391 . S
C392 C394 1.394 . S
C392 H408 0.931 . S
C393 C392 1.391 . S
C393 C397 1.376 . S
C394 C392 1.394 . S
C394 C395 1.369 . S
C394 C398 1.531 . S
C395 C394 1.369 . S
C395 C396 1.410 . S
C395 C403 1.503 . S
C396 C395 1.410 . S
C396 C397 1.392 . S
C396 C399 1.511 . S
C397 C393 1.376 . S
C397 C396 1.392 . S
C397 H409 0.929 . S
C398 C394 1.531 . S
C398 H410 0.960 . S
C398 H411 0.962 . S
C398 H412 0.960 . S
C399 C396 1.511 . S
C399 H413 0.961 . S
C399 H414 0.961 . S
C399 H415 0.961 . S
C400 C401 1.370 . S
C400 C402 1.363 . S
C400 H416 0.931 . S
C401 C400 1.370 . S
C401 C405 1.408 . S
C402 C400 1.363 . S
C402 C403 1.370 . S
C402 C406 1.524 . S
C403 C395 1.503 . S
C403 C402 1.370 . S
C403 C404 1.403 . S
C404 C403 1.403 . S
C404 C405 1.404 . S
C404 C407 1.539 . S
C405 C401 1.408 . S
C405 C404 1.404 . S
C405 H417 0.930 . S
C406 C402 1.524 . S
C406 H418 0.956 . S
C406 H419 0.961 . S
C406 H420 0.961 . S
C407 C404 1.539 . S
C407 H421 0.958 . S
C407 H422 0.961 . S
C407 H423 0.960 . S
H408 C392 0.931 . S
H409 C397 0.929 . S
H410 C398 0.960 . S
H411 C398 0.962 . S
H412 C398 0.960 . S
H413 C399 0.961 . S
H414 C399 0.961 . S
H415 C399 0.961 . S
H416 C400 0.931 . S
H417 C405 0.930 . S
H418 C406 0.956 . S
H419 C406 0.961 . S
H420 C406 0.961 . S
H421 C407 0.958 . S
H422 C407 0.961 . S
H423 C407 0.960 . S
C424 C425 1.391 . S
C424 C426 1.394 . S
C424 H440 0.931 . S
C425 C424 1.391 . S
C425 C429 1.376 . S
C426 C424 1.394 . S
C426 C427 1.369 . S
C426 C430 1.531 . S
C427 C426 1.369 . S
C427 C428 1.410 . S
C427 C435 1.503 . S
C428 C427 1.410 . S
C428 C429 1.392 . S
C428 C431 1.511 . S
C429 C425 1.376 . S
C429 C428 1.392 . S
C429 H441 0.929 . S
C430 C426 1.531 . S
C430 H442 0.960 . S
C430 H443 0.962 . S
C430 H444 0.960 . S
C431 C428 1.511 . S
C431 H445 0.961 . S
C431 H446 0.961 . S
C431 H447 0.961 . S
C432 C433 1.370 . S
C432 C434 1.363 . S
C432 H448 0.931 . S
C433 C432 1.370 . S
C433 C437 1.408 . S
C434 C432 1.363 . S
C434 C435 1.370 . S
C434 C438 1.524 . S
C435 C427 1.503 . S
C435 C434 1.370 . S
C435 C436 1.403 . S
C436 C435 1.403 . S
C436 C437 1.404 . S
C436 C439 1.539 . S
C437 C433 1.408 . S
C437 C436 1.404 . S
C437 H449 0.930 1_565 S
C438 C434 1.524 . S
C438 H450 0.956 . S
C438 H451 0.961 . S
C438 H452 0.961 . S
C439 C436 1.539 . S
C439 H453 0.958 . S
C439 H454 0.961 1_565 S
C439 H455 0.960 . S
H440 C424 0.931 . S
H441 C429 0.929 . S
H442 C430 0.960 . S
H443 C430 0.962 . S
H444 C430 0.960 . S
H445 C431 0.961 . S
H446 C431 0.961 . S
H447 C431 0.961 . S
H448 C432 0.931 . S
H449 C437 0.930 1_545 S
H450 C438 0.956 . S
H451 C438 0.961 . S
H452 C438 0.961 . S
H453 C439 0.958 . S
H454 C439 0.961 1_545 S
H455 C439 0.960 . S
C456 C457 1.391 . S
C456 C458 1.394 . S
C456 H472 0.931 . S
C457 C456 1.391 . S
C457 C461 1.376 . S
C458 C456 1.394 . S
C458 C459 1.369 . S
C458 C462 1.531 . S
C459 C458 1.369 . S
C459 C460 1.410 . S
C459 C467 1.503 . S
C460 C459 1.410 . S
C460 C461 1.392 . S
C460 C463 1.511 . S
C461 C457 1.376 . S
C461 C460 1.392 . S
C461 H473 0.929 . S
C462 C458 1.531 . S
C462 H474 0.960 . S
C462 H475 0.962 . S
C462 H476 0.960 . S
C463 C460 1.511 . S
C463 H477 0.961 . S
C463 H478 0.961 . S
C463 H479 0.961 . S
C464 C465 1.370 1_554 S
C464 C466 1.363 1_554 S
C464 H480 0.931 . S
C465 C464 1.370 1_556 S
C465 C469 1.408 . S
C466 C464 1.363 1_556 S
C466 C467 1.370 . S
C466 C470 1.524 . S
C467 C459 1.503 . S
C467 C466 1.370 . S
C467 C468 1.403 . S
C468 C467 1.403 . S
C468 C469 1.404 . S
C468 C471 1.539 . S
C469 C465 1.408 . S
C469 C468 1.404 . S
C469 H481 0.930 . S
C470 C466 1.524 . S
C470 H482 0.956 . S
C470 H483 0.961 . S
C470 H484 0.961 1_556 S
C471 C468 1.539 . S
C471 H485 0.958 . S
C471 H486 0.961 . S
C471 H487 0.960 . S
H472 C456 0.931 . S
H473 C461 0.929 . S
H474 C462 0.960 . S
H475 C462 0.962 . S
H476 C462 0.960 . S
H477 C463 0.961 . S
H478 C463 0.961 . S
H479 C463 0.961 . S
H480 C464 0.931 . S
H481 C469 0.930 . S
H482 C470 0.956 . S
H483 C470 0.961 . S
H484 C470 0.961 1_554 S
H485 C471 0.958 . S
H486 C471 0.961 . S
H487 C471 0.960 . S
C488 C489 1.391 . S
C488 C490 1.394 . S
C488 H504 0.931 . S
C489 C488 1.391 . S
C489 C493 1.376 . S
C490 C488 1.394 . S
C490 C491 1.369 . S
C490 C494 1.531 . S
C491 C490 1.369 . S
C491 C492 1.410 . S
C491 C499 1.503 . S
C492 C491 1.410 . S
C492 C493 1.392 . S
C492 C495 1.511 . S
C493 C489 1.376 . S
C493 C492 1.392 . S
C493 H505 0.929 . S
C494 C490 1.531 . S
C494 H506 0.960 . S
C494 H507 0.962 . S
C494 H508 0.960 . S
C495 C492 1.511 . S
C495 H509 0.961 . S
C495 H510 0.961 . S
C495 H511 0.961 . S
C496 C497 1.370 . S
C496 C498 1.363 . S
C496 H512 0.931 . S
C497 C496 1.370 . S
C497 C501 1.408 . S
C498 C496 1.363 . S
C498 C499 1.370 . S
C498 C502 1.524 . S
C499 C491 1.503 . S
C499 C498 1.370 . S
C499 C500 1.403 . S
C500 C499 1.403 . S
C500 C501 1.404 . S
C500 C503 1.539 . S
C501 C497 1.408 . S
C501 C500 1.404 . S
C501 H513 0.930 . S
C502 C498 1.524 . S
C502 H514 0.956 . S
C502 H515 0.961 . S
C502 H516 0.961 . S
C503 C500 1.539 . S
C503 H517 0.958 . S
C503 H518 0.961 . S
C503 H519 0.960 . S
H504 C488 0.931 . S
H505 C493 0.929 . S
H506 C494 0.960 . S
H507 C494 0.962 . S
H508 C494 0.960 . S
H509 C495 0.961 . S
H510 C495 0.961 . S
H511 C495 0.961 . S
H512 C496 0.931 . S
H513 C501 0.930 . S
H514 C502 0.956 . S
H515 C502 0.961 . S
H516 C502 0.961 . S
H517 C503 0.958 . S
H518 C503 0.961 . S
H519 C503 0.960 . S
C520 C521 1.391 . S
C520 C522 1.394 . S
C520 H536 0.931 . S
C521 C520 1.391 . S
C521 C525 1.376 . S
C522 C520 1.394 . S
C522 C523 1.369 . S
C522 C526 1.531 . S
C523 C522 1.369 . S
C523 C524 1.410 . S
C523 C531 1.503 . S
C524 C523 1.410 . S
C524 C525 1.392 . S
C524 C527 1.511 . S
C525 C521 1.376 . S
C525 C524 1.392 . S
C525 H537 0.929 . S
C526 C522 1.531 . S
C526 H538 0.960 . S
C526 H539 0.962 . S
C526 H540 0.960 . S
C527 C524 1.511 . S
C527 H541 0.961 . S
C527 H542 0.961 . S
C527 H543 0.961 . S
C528 C529 1.370 . S
C528 C530 1.363 . S
C528 H544 0.931 . S
C529 C528 1.370 . S
C529 C533 1.408 . S
C530 C528 1.363 . S
C530 C531 1.370 . S
C530 C534 1.524 . S
C531 C523 1.503 . S
C531 C530 1.370 . S
C531 C532 1.403 . S
C532 C531 1.403 . S
C532 C533 1.404 . S
C532 C535 1.539 . S
C533 C529 1.408 . S
C533 C532 1.404 . S
C533 H545 0.930 . S
C534 C530 1.524 . S
C534 H546 0.956 . S
C534 H547 0.961 . S
C534 H548 0.961 . S
C535 C532 1.539 . S
C535 H549 0.958 . S
C535 H550 0.961 . S
C535 H551 0.960 . S
H536 C520 0.931 . S
H537 C525 0.929 . S
H538 C526 0.960 . S
H539 C526 0.962 . S
H540 C526 0.960 . S
H541 C527 0.961 . S
H542 C527 0.961 . S
H543 C527 0.961 . S
H544 C528 0.931 . S
H545 C533 0.930 . S
H546 C534 0.956 . S
H547 C534 0.961 . S
H548 C534 0.961 . S
H549 C535 0.958 . S
H550 C535 0.961 . S
H551 C535 0.960 . S
C552 C553 1.391 . S
C552 C554 1.394 . S
C552 H568 0.931 . S
C553 C552 1.391 . S
C553 C557 1.376 . S
C554 C552 1.394 . S
C554 C555 1.369 . S
C554 C558 1.531 . S
C555 C554 1.369 . S
C555 C556 1.410 . S
C555 C563 1.503 . S
C556 C555 1.410 . S
C556 C557 1.392 . S
C556 C559 1.511 . S
C557 C553 1.376 . S
C557 C556 1.392 . S
C557 H569 0.929 . S
C558 C554 1.531 . S
C558 H570 0.960 . S
C558 H571 0.962 . S
C558 H572 0.960 . S
C559 C556 1.511 . S
C559 H573 0.961 . S
C559 H574 0.961 . S
C559 H575 0.961 . S
C560 C561 1.370 . S
C560 C562 1.363 . S
C560 H576 0.931 . S
C561 C560 1.370 . S
C561 C565 1.408 . S
C562 C560 1.363 . S
C562 C563 1.370 . S
C562 C566 1.524 . S
C563 C555 1.503 . S
C563 C562 1.370 . S
C563 C564 1.403 . S
C564 C563 1.403 . S
C564 C565 1.404 . S
C564 C567 1.539 . S
C565 C561 1.408 . S
C565 C564 1.404 . S
C565 H577 0.930 . S
C566 C562 1.524 . S
C566 H578 0.956 . S
C566 H579 0.961 . S
C566 H580 0.961 . S
C567 C564 1.539 . S
C567 H581 0.958 . S
C567 H582 0.961 . S
C567 H583 0.960 . S
H568 C552 0.931 . S
H569 C557 0.929 . S
H570 C558 0.960 . S
H571 C558 0.962 . S
H572 C558 0.960 . S
H573 C559 0.961 . S
H574 C559 0.961 . S
H575 C559 0.961 . S
H576 C560 0.931 . S
H577 C565 0.930 . S
H578 C566 0.956 . S
H579 C566 0.961 . S
H580 C566 0.961 . S
H581 C567 0.958 . S
H582 C567 0.961 . S
H583 C567 0.960 . S
C584 C585 1.391 . S
C584 C586 1.394 . S
C584 H600 0.931 . S
C585 C584 1.391 . S
C585 C589 1.376 . S
C586 C584 1.394 . S
C586 C587 1.369 . S
C586 C590 1.531 . S
C587 C586 1.369 . S
C587 C588 1.410 . S
C587 C595 1.503 . S
C588 C587 1.410 . S
C588 C589 1.392 . S
C588 C591 1.511 . S
C589 C585 1.376 . S
C589 C588 1.392 . S
C589 H601 0.929 . S
C590 C586 1.531 . S
C590 H602 0.960 . S
C590 H603 0.962 . S
C590 H604 0.960 . S
C591 C588 1.511 . S
C591 H605 0.961 . S
C591 H606 0.961 . S
C591 H607 0.961 . S
C592 C593 1.370 . S
C592 C594 1.363 . S
C592 H608 0.931 . S
C593 C592 1.370 . S
C593 C597 1.408 . S
C594 C592 1.363 . S
C594 C595 1.370 . S
C594 C598 1.524 . S
C595 C587 1.503 . S
C595 C594 1.370 . S
C595 C596 1.403 . S
C596 C595 1.403 . S
C596 C597 1.404 . S
C596 C599 1.539 1_655 S
C597 C593 1.408 . S
C597 C596 1.404 . S
C597 H609 0.930 1_655 S
C598 C594 1.524 . S
C598 H610 0.956 . S
C598 H611 0.961 . S
C598 H612 0.961 . S
C599 C596 1.539 1_455 S
C599 H613 0.958 . S
C599 H614 0.961 . S
C599 H615 0.960 . S
H600 C584 0.931 . S
H601 C589 0.929 . S
H602 C590 0.960 . S
H603 C590 0.962 . S
H604 C590 0.960 . S
H605 C591 0.961 . S
H606 C591 0.961 . S
H607 C591 0.961 . S
H608 C592 0.931 . S
H609 C597 0.930 1_455 S
H610 C598 0.956 . S
H611 C598 0.961 . S
H612 C598 0.961 . S
H613 C599 0.958 . S
H614 C599 0.961 . S
H615 C599 0.960 . S
C616 C617 1.391 . S
C616 C618 1.394 . S
C616 H632 0.931 . S
C617 C616 1.391 . S
C617 C621 1.376 . S
C618 C616 1.394 . S
C618 C619 1.369 . S
C618 C622 1.531 . S
C619 C618 1.369 . S
C619 C620 1.410 . S
C619 C627 1.503 . S
C620 C619 1.410 . S
C620 C621 1.392 . S
C620 C623 1.511 . S
C621 C617 1.376 . S
C621 C620 1.392 . S
C621 H633 0.929 . S
C622 C618 1.531 . S
C622 H634 0.960 . S
C622 H635 0.962 . S
C622 H636 0.960 . S
C623 C620 1.511 . S
C623 H637 0.961 . S
C623 H638 0.961 . S
C623 H639 0.961 . S
C624 C625 1.370 . S
C624 C626 1.363 . S
C624 H640 0.931 . S
C625 C624 1.370 . S
C625 C629 1.408 . S
C626 C624 1.363 . S
C626 C627 1.370 . S
C626 C630 1.524 . S
C627 C619 1.503 . S
C627 C626 1.370 . S
C627 C628 1.403 . S
C628 C627 1.403 . S
C628 C629 1.404 . S
C628 C631 1.539 . S
C629 C625 1.408 . S
C629 C628 1.404 . S
C629 H641 0.930 . S
C630 C626 1.524 . S
C630 H642 0.956 . S
C630 H643 0.961 . S
C630 H644 0.961 . S
C631 C628 1.539 . S
C631 H645 0.958 . S
C631 H646 0.961 . S
C631 H647 0.960 . S
H632 C616 0.931 . S
H633 C621 0.929 . S
H634 C622 0.960 . S
H635 C622 0.962 . S
H636 C622 0.960 . S
H637 C623 0.961 . S
H638 C623 0.961 . S
H639 C623 0.961 . S
H640 C624 0.931 . S
H641 C629 0.930 . S
H642 C630 0.956 . S
H643 C630 0.961 . S
H644 C630 0.961 . S
H645 C631 0.958 . S
H646 C631 0.961 . S
H647 C631 0.960 . S
C648 C649 1.391 . S
C648 C650 1.394 . S
C648 H664 0.931 . S
C649 C648 1.391 . S
C649 C653 1.376 . S
C650 C648 1.394 . S
C650 C651 1.369 . S
C650 C654 1.531 . S
C651 C650 1.369 . S
C651 C652 1.410 . S
C651 C659 1.503 . S
C652 C651 1.410 . S
C652 C653 1.392 . S
C652 C655 1.511 . S
C653 C649 1.376 . S
C653 C652 1.392 . S
C653 H665 0.929 . S
C654 C650 1.531 . S
C654 H666 0.960 . S
C654 H667 0.962 . S
C654 H668 0.960 . S
C655 C652 1.511 . S
C655 H669 0.961 . S
C655 H670 0.961 . S
C655 H671 0.961 . S
C656 C657 1.370 . S
C656 C658 1.363 . S
C656 H672 0.931 . S
C657 C656 1.370 . S
C657 C661 1.408 . S
C658 C656 1.363 . S
C658 C659 1.370 . S
C658 C662 1.524 . S
C659 C651 1.503 . S
C659 C658 1.370 . S
C659 C660 1.403 . S
C660 C659 1.403 . S
C660 C661 1.404 . S
C660 C663 1.539 . S
C661 C657 1.408 . S
C661 C660 1.404 . S
C661 H673 0.930 . S
C662 C658 1.524 . S
C662 H674 0.956 . S
C662 H675 0.961 . S
C662 H676 0.961 . S
C663 C660 1.539 . S
C663 H677 0.958 . S
C663 H678 0.961 . S
C663 H679 0.960 . S
H664 C648 0.931 . S
H665 C653 0.929 . S
H666 C654 0.960 . S
H667 C654 0.962 . S
H668 C654 0.960 . S
H669 C655 0.961 . S
H670 C655 0.961 . S
H671 C655 0.961 . S
H672 C656 0.931 . S
H673 C661 0.930 . S
H674 C662 0.956 . S
H675 C662 0.961 . S
H676 C662 0.961 . S
H677 C663 0.958 . S
H678 C663 0.961 . S
H679 C663 0.960 . S
C680 C681 1.391 . S
C680 C682 1.394 . S
C680 H696 0.931 . S
C681 C680 1.391 . S
C681 C685 1.376 . S
C682 C680 1.394 . S
C682 C683 1.369 . S
C682 C686 1.531 . S
C683 C682 1.369 . S
C683 C684 1.410 . S
C683 C691 1.503 . S
C684 C683 1.410 . S
C684 C685 1.392 . S
C684 C687 1.511 . S
C685 C681 1.376 . S
C685 C684 1.392 . S
C685 H697 0.929 . S
C686 C682 1.531 . S
C686 H698 0.960 . S
C686 H699 0.962 . S
C686 H700 0.960 . S
C687 C684 1.511 . S
C687 H701 0.961 . S
C687 H702 0.961 . S
C687 H703 0.961 . S
C688 C689 1.370 . S
C688 C690 1.363 . S
C688 H704 0.931 . S
C689 C688 1.370 . S
C689 C693 1.408 . S
C690 C688 1.363 . S
C690 C691 1.370 . S
C690 C694 1.524 . S
C691 C683 1.503 . S
C691 C690 1.370 . S
C691 C692 1.403 . S
C692 C691 1.403 . S
C692 C693 1.404 . S
C692 C695 1.539 . S
C693 C689 1.408 . S
C693 C692 1.404 . S
C693 H705 0.930 . S
C694 C690 1.524 . S
C694 H706 0.956 . S
C694 H707 0.961 . S
C694 H708 0.961 . S
C695 C692 1.539 . S
C695 H709 0.958 . S
C695 H710 0.961 . S
C695 H711 0.960 . S
H696 C680 0.931 . S
H697 C685 0.929 . S
H698 C686 0.960 . S
H699 C686 0.962 . S
H700 C686 0.960 . S
H701 C687 0.961 . S
H702 C687 0.961 . S
H703 C687 0.961 . S
H704 C688 0.931 . S
H705 C693 0.930 . S
H706 C694 0.956 . S
H707 C694 0.961 . S
H708 C694 0.961 . S
H709 C695 0.958 . S
H710 C695 0.961 . S
H711 C695 0.960 . S
C712 C713 1.391 . S
C712 C714 1.394 . S
C712 H728 0.931 . S
C713 C712 1.391 . S
C713 C717 1.376 . S
C714 C712 1.394 . S
C714 C715 1.369 . S
C714 C718 1.531 . S
C715 C714 1.369 . S
C715 C716 1.410 . S
C715 C723 1.503 . S
C716 C715 1.410 . S
C716 C717 1.392 . S
C716 C719 1.511 . S
C717 C713 1.376 . S
C717 C716 1.392 . S
C717 H729 0.929 . S
C718 C714 1.531 . S
C718 H730 0.960 . S
C718 H731 0.962 . S
C718 H732 0.960 . S
C719 C716 1.511 . S
C719 H733 0.961 . S
C719 H734 0.961 . S
C719 H735 0.961 . S
C720 C721 1.370 . S
C720 C722 1.363 . S
C720 H736 0.931 . S
C721 C720 1.370 . S
C721 C725 1.408 . S
C722 C720 1.363 . S
C722 C723 1.370 . S
C722 C726 1.524 . S
C723 C715 1.503 . S
C723 C722 1.370 . S
C723 C724 1.403 . S
C724 C723 1.403 . S
C724 C725 1.404 . S
C724 C727 1.539 . S
C725 C721 1.408 . S
C725 C724 1.404 . S
C725 H737 0.930 . S
C726 C722 1.524 . S
C726 H738 0.956 . S
C726 H739 0.961 . S
C726 H740 0.961 . S
C727 C724 1.539 . S
C727 H741 0.958 . S
C727 H742 0.961 . S
C727 H743 0.960 . S
H728 C712 0.931 . S
H729 C717 0.929 . S
H730 C718 0.960 . S
H731 C718 0.962 . S
H732 C718 0.960 . S
H733 C719 0.961 . S
H734 C719 0.961 . S
H735 C719 0.961 . S
H736 C720 0.931 . S
H737 C725 0.930 . S
H738 C726 0.956 . S
H739 C726 0.961 . S
H740 C726 0.961 . S
H741 C727 0.958 . S
H742 C727 0.961 . S
H743 C727 0.960 . S
C744 C745 1.391 . S
C744 C746 1.394 . S
C744 H760 0.931 . S
C745 C744 1.391 . S
C745 C749 1.376 . S
C746 C744 1.394 . S
C746 C747 1.369 . S
C746 C750 1.531 . S
C747 C746 1.369 . S
C747 C748 1.410 . S
C747 C755 1.503 . S
C748 C747 1.410 . S
C748 C749 1.392 . S
C748 C751 1.511 . S
C749 C745 1.376 . S
C749 C748 1.392 . S
C749 H761 0.929 . S
C750 C746 1.531 . S
C750 H762 0.960 . S
C750 H763 0.962 . S
C750 H764 0.960 . S
C751 C748 1.511 . S
C751 H765 0.961 . S
C751 H766 0.961 . S
C751 H767 0.961 . S
C752 C753 1.370 . S
C752 C754 1.363 . S
C752 H768 0.931 . S
C753 C752 1.370 . S
C753 C757 1.408 . S
C754 C752 1.363 . S
C754 C755 1.370 . S
C754 C758 1.524 . S
C755 C747 1.503 . S
C755 C754 1.370 . S
C755 C756 1.403 . S
C756 C755 1.403 . S
C756 C757 1.404 . S
C756 C759 1.539 . S
C757 C753 1.408 . S
C757 C756 1.404 . S
C757 H769 0.930 . S
C758 C754 1.524 . S
C758 H770 0.956 . S
C758 H771 0.961 . S
C758 H772 0.961 . S
C759 C756 1.539 . S
C759 H773 0.958 . S
C759 H774 0.961 . S
C759 H775 0.960 . S
H760 C744 0.931 . S
H761 C749 0.929 . S
H762 C750 0.960 . S
H763 C750 0.962 . S
H764 C750 0.960 . S
H765 C751 0.961 . S
H766 C751 0.961 . S
H767 C751 0.961 . S
H768 C752 0.931 . S
H769 C757 0.930 . S
H770 C758 0.956 . S
H771 C758 0.961 . S
H772 C758 0.961 . S
H773 C759 0.958 . S
H774 C759 0.961 . S
H775 C759 0.960 . S
C776 C777 1.391 . S
C776 C778 1.394 . S
C776 H792 0.931 . S
C777 C776 1.391 . S
C777 C781 1.376 . S
C778 C776 1.394 . S
C778 C779 1.369 . S
C778 C782 1.531 . S
C779 C778 1.369 . S
C779 C780 1.410 . S
C779 C787 1.503 . S
C780 C779 1.410 . S
C780 C781 1.392 . S
C780 C783 1.511 . S
C781 C777 1.376 . S
C781 C780 1.392 . S
C781 H793 0.929 . S
C782 C778 1.531 . S
C782 H794 0.960 . S
C782 H795 0.962 . S
C782 H796 0.960 . S
C783 C780 1.511 . S
C783 H797 0.961 . S
C783 H798 0.961 . S
C783 H799 0.961 . S
C784 C785 1.370 . S
C784 C786 1.363 . S
C784 H800 0.931 . S
C785 C784 1.370 . S
C785 C789 1.408 . S
C786 C784 1.363 . S
C786 C787 1.370 . S
C786 C790 1.524 . S
C787 C779 1.503 . S
C787 C786 1.370 . S
C787 C788 1.403 . S
C788 C787 1.403 . S
C788 C789 1.404 . S
C788 C791 1.539 . S
C789 C785 1.408 . S
C789 C788 1.404 . S
C789 H801 0.930 . S
C790 C786 1.524 . S
C790 H802 0.956 . S
C790 H803 0.961 . S
C790 H804 0.961 . S
C791 C788 1.539 . S
C791 H805 0.958 . S
C791 H806 0.961 . S
C791 H807 0.960 . S
H792 C776 0.931 . S
H793 C781 0.929 . S
H794 C782 0.960 . S
H795 C782 0.962 . S
H796 C782 0.960 . S
H797 C783 0.961 . S
H798 C783 0.961 . S
H799 C783 0.961 . S
H800 C784 0.931 . S
H801 C789 0.930 . S
H802 C790 0.956 . S
H803 C790 0.961 . S
H804 C790 0.961 . S
H805 C791 0.958 . S
H806 C791 0.961 . S
H807 C791 0.960 . S
C808 C809 1.391 . S
C808 C810 1.394 . S
C808 H824 0.931 . S
C809 C808 1.391 . S
C809 C813 1.376 . S
C810 C808 1.394 . S
C810 C811 1.369 . S
C810 C814 1.531 . S
C811 C810 1.369 . S
C811 C812 1.410 . S
C811 C819 1.503 . S
C812 C811 1.410 . S
C812 C813 1.392 . S
C812 C815 1.511 . S
C813 C809 1.376 . S
C813 C812 1.392 . S
C813 H825 0.929 . S
C814 C810 1.531 . S
C814 H826 0.960 . S
C814 H827 0.962 . S
C814 H828 0.960 . S
C815 C812 1.511 . S
C815 H829 0.961 . S
C815 H830 0.961 . S
C815 H831 0.961 . S
C816 C817 1.370 . S
C816 C818 1.363 . S
C816 H832 0.931 . S
C817 C816 1.370 . S
C817 C821 1.408 . S
C818 C816 1.363 . S
C818 C819 1.370 . S
C818 C822 1.524 . S
C819 C811 1.503 . S
C819 C818 1.370 . S
C819 C820 1.403 . S
C820 C819 1.403 . S
C820 C821 1.404 . S
C820 C823 1.539 . S
C821 C817 1.408 . S
C821 C820 1.404 . S
C821 H833 0.930 . S
C822 C818 1.524 . S
C822 H834 0.956 . S
C822 H835 0.961 . S
C822 H836 0.961 . S
C823 C820 1.539 . S
C823 H837 0.958 . S
C823 H838 0.961 . S
C823 H839 0.960 . S
H824 C808 0.931 . S
H825 C813 0.929 . S
H826 C814 0.960 . S
H827 C814 0.962 . S
H828 C814 0.960 . S
H829 C815 0.961 . S
H830 C815 0.961 . S
H831 C815 0.961 . S
H832 C816 0.931 . S
H833 C821 0.930 . S
H834 C822 0.956 . S
H835 C822 0.961 . S
H836 C822 0.961 . S
H837 C823 0.958 . S
H838 C823 0.961 . S
H839 C823 0.960 . S
C840 C841 1.391 . S
C840 C842 1.394 . S
C840 H856 0.931 . S
C841 C840 1.391 . S
C841 C845 1.376 . S
C842 C840 1.394 . S
C842 C843 1.369 . S
C842 C846 1.531 . S
C843 C842 1.369 . S
C843 C844 1.410 . S
C843 C851 1.503 . S
C844 C843 1.410 . S
C844 C845 1.392 . S
C844 C847 1.511 . S
C845 C841 1.376 . S
C845 C844 1.392 . S
C845 H857 0.929 . S
C846 C842 1.531 . S
C846 H858 0.960 . S
C846 H859 0.962 . S
C846 H860 0.960 . S
C847 C844 1.511 . S
C847 H861 0.961 . S
C847 H862 0.961 . S
C847 H863 0.961 . S
C848 C849 1.370 . S
C848 C850 1.363 . S
C848 H864 0.931 . S
C849 C848 1.370 . S
C849 C853 1.408 . S
C850 C848 1.363 . S
C850 C851 1.370 . S
C850 C854 1.524 . S
C851 C843 1.503 . S
C851 C850 1.370 . S
C851 C852 1.403 . S
C852 C851 1.403 . S
C852 C853 1.404 . S
C852 C855 1.539 . S
C853 C849 1.408 . S
C853 C852 1.404 . S
C853 H865 0.930 . S
C854 C850 1.524 . S
C854 H866 0.956 . S
C854 H867 0.961 . S
C854 H868 0.961 . S
C855 C852 1.539 . S
C855 H869 0.958 . S
C855 H870 0.961 . S
C855 H871 0.960 . S
H856 C840 0.931 . S
H857 C845 0.929 . S
H858 C846 0.960 . S
H859 C846 0.962 . S
H860 C846 0.960 . S
H861 C847 0.961 . S
H862 C847 0.961 . S
H863 C847 0.961 . S
H864 C848 0.931 . S
H865 C853 0.930 . S
H866 C854 0.956 . S
H867 C854 0.961 . S
H868 C854 0.961 . S
H869 C855 0.958 . S
H870 C855 0.961 . S
H871 C855 0.960 . S
C872 C873 1.391 . S
C872 C874 1.394 . S
C872 H888 0.931 . S
C873 C872 1.391 . S
C873 C877 1.376 . S
C874 C872 1.394 . S
C874 C875 1.369 . S
C874 C878 1.531 . S
C875 C874 1.369 . S
C875 C876 1.410 . S
C875 C883 1.503 . S
C876 C875 1.410 . S
C876 C877 1.392 . S
C876 C879 1.511 . S
C877 C873 1.376 . S
C877 C876 1.392 . S
C877 H889 0.929 . S
C878 C874 1.531 . S
C878 H890 0.960 . S
C878 H891 0.962 . S
C878 H892 0.960 . S
C879 C876 1.511 . S
C879 H893 0.961 . S
C879 H894 0.961 . S
C879 H895 0.961 . S
C880 C881 1.370 . S
C880 C882 1.363 . S
C880 H896 0.931 . S
C881 C880 1.370 . S
C881 C885 1.408 . S
C882 C880 1.363 . S
C882 C883 1.370 . S
C882 C886 1.524 . S
C883 C875 1.503 . S
C883 C882 1.370 . S
C883 C884 1.403 . S
C884 C883 1.403 . S
C884 C885 1.404 . S
C884 C887 1.539 . S
C885 C881 1.408 . S
C885 C884 1.404 . S
C885 H897 0.930 . S
C886 C882 1.524 . S
C886 H898 0.956 . S
C886 H899 0.961 . S
C886 H900 0.961 . S
C887 C884 1.539 . S
C887 H901 0.958 . S
C887 H902 0.961 . S
C887 H903 0.960 . S
H888 C872 0.931 . S
H889 C877 0.929 . S
H890 C878 0.960 . S
H891 C878 0.962 . S
H892 C878 0.960 . S
H893 C879 0.961 . S
H894 C879 0.961 . S
H895 C879 0.961 . S
H896 C880 0.931 . S
H897 C885 0.930 . S
H898 C886 0.956 . S
H899 C886 0.961 . S
H900 C886 0.961 . S
H901 C887 0.958 . S
H902 C887 0.961 . S
H903 C887 0.960 . S
C904 C905 1.391 . S
C904 C906 1.394 . S
C904 H920 0.931 . S
C905 C904 1.391 . S
C905 C909 1.376 . S
C906 C904 1.394 . S
C906 C907 1.369 . S
C906 C910 1.531 . S
C907 C906 1.369 . S
C907 C908 1.410 . S
C907 C915 1.503 . S
C908 C907 1.410 . S
C908 C909 1.392 . S
C908 C911 1.511 . S
C909 C905 1.376 . S
C909 C908 1.392 . S
C909 H921 0.929 . S
C910 C906 1.531 . S
C910 H922 0.960 . S
C910 H923 0.962 . S
C910 H924 0.960 . S
C911 C908 1.511 . S
C911 H925 0.961 . S
C911 H926 0.961 . S
C911 H927 0.961 . S
C912 C913 1.370 . S
C912 C914 1.363 . S
C912 H928 0.931 . S
C913 C912 1.370 . S
C913 C917 1.408 . S
C914 C912 1.363 . S
C914 C915 1.370 . S
C914 C918 1.524 . S
C915 C907 1.503 . S
C915 C914 1.370 . S
C915 C916 1.403 . S
C916 C915 1.403 . S
C916 C917 1.404 . S
C916 C919 1.539 . S
C917 C913 1.408 . S
C917 C916 1.404 . S
C917 H929 0.930 . S
C918 C914 1.524 . S
C918 H930 0.956 . S
C918 H931 0.961 . S
C918 H932 0.961 . S
C919 C916 1.539 . S
C919 H933 0.958 . S
C919 H934 0.961 . S
C919 H935 0.960 . S
H920 C904 0.931 . S
H921 C909 0.929 . S
H922 C910 0.960 . S
H923 C910 0.962 . S
H924 C910 0.960 . S
H925 C911 0.961 . S
H926 C911 0.961 . S
H927 C911 0.961 . S
H928 C912 0.931 . S
H929 C917 0.930 . S
H930 C918 0.956 . S
H931 C918 0.961 . S
H932 C918 0.961 . S
H933 C919 0.958 . S
H934 C919 0.961 . S
H935 C919 0.960 . S
C936 C937 1.391 . S
C936 C938 1.394 . S
C936 H952 0.931 . S
C937 C936 1.391 . S
C937 C941 1.376 . S
C938 C936 1.394 . S
C938 C939 1.369 . S
C938 C942 1.531 . S
C939 C938 1.369 . S
C939 C940 1.410 . S
C939 C947 1.503 . S
C940 C939 1.410 . S
C940 C941 1.392 . S
C940 C943 1.511 . S
C941 C937 1.376 . S
C941 C940 1.392 . S
C941 H953 0.929 . S
C942 C938 1.531 . S
C942 H954 0.960 . S
C942 H955 0.962 . S
C942 H956 0.960 . S
C943 C940 1.511 . S
C943 H957 0.961 . S
C943 H958 0.961 . S
C943 H959 0.961 . S
C944 C945 1.370 . S
C944 C946 1.363 . S
C944 H960 0.931 . S
C945 C944 1.370 . S
C945 C949 1.408 . S
C946 C944 1.363 . S
C946 C947 1.370 . S
C946 C950 1.524 . S
C947 C939 1.503 . S
C947 C946 1.370 . S
C947 C948 1.403 . S
C948 C947 1.403 . S
C948 C949 1.404 . S
C948 C951 1.539 . S
C949 C945 1.408 . S
C949 C948 1.404 . S
C949 H961 0.930 . S
C950 C946 1.524 . S
C950 H962 0.956 . S
C950 H963 0.961 . S
C950 H964 0.961 . S
C951 C948 1.539 . S
C951 H965 0.958 . S
C951 H966 0.961 . S
C951 H967 0.960 . S
H952 C936 0.931 . S
H953 C941 0.929 . S
H954 C942 0.960 . S
H955 C942 0.962 . S
H956 C942 0.960 . S
H957 C943 0.961 . S
H958 C943 0.961 . S
H959 C943 0.961 . S
H960 C944 0.931 . S
H961 C949 0.930 . S
H962 C950 0.956 . S
H963 C950 0.961 . S
H964 C950 0.961 . S
H965 C951 0.958 . S
H966 C951 0.961 . S
H967 C951 0.960 . S
C968 C969 1.391 . S
C968 C970 1.394 . S
C968 H984 0.931 . S
C969 C968 1.391 . S
C969 C973 1.376 . S
C970 C968 1.394 . S
C970 C971 1.369 . S
C970 C974 1.531 . S
C971 C970 1.369 . S
C971 C972 1.410 . S
C971 C979 1.503 . S
C972 C971 1.410 . S
C972 C973 1.392 . S
C972 C975 1.511 . S
C973 C969 1.376 . S
C973 C972 1.392 . S
C973 H985 0.929 . S
C974 C970 1.531 . S
C974 H986 0.960 . S
C974 H987 0.962 . S
C974 H988 0.960 . S
C975 C972 1.511 . S
C975 H989 0.961 . S
C975 H990 0.961 . S
C975 H991 0.961 . S
C976 C977 1.370 . S
C976 C978 1.363 . S
C976 H992 0.931 . S
C977 C976 1.370 . S
C977 C981 1.408 . S
C978 C976 1.363 . S
C978 C979 1.370 . S
C978 C982 1.524 . S
C979 C971 1.503 . S
C979 C978 1.370 . S
C979 C980 1.403 . S
C980 C979 1.403 . S
C980 C981 1.404 . S
C980 C983 1.539 . S
C981 C977 1.408 . S
C981 C980 1.404 . S
C981 H993 0.930 . S
C982 C978 1.524 . S
C982 H994 0.956 . S
C982 H995 0.961 . S
C982 H996 0.961 . S
C983 C980 1.539 . S
C983 H997 0.958 . S
C983 H998 0.961 . S
C983 H999 0.960 . S
H984 C968 0.931 . S
H985 C973 0.929 . S
H986 C974 0.960 . S
H987 C974 0.962 . S
H988 C974 0.960 . S
H989 C975 0.961 . S
H990 C975 0.961 . S
H991 C975 0.961 . S
H992 C976 0.931 . S
H993 C981 0.930 . S
H994 C982 0.956 . S
H995 C982 0.961 . S
H996 C982 0.961 . S
H997 C983 0.958 . S
H998 C983 0.961 . S
H999 C983 0.960 . S
C1000 C1001 1.391 . S
C1000 C1002 1.394 . S
C1000 H1016 0.931 . S
C1001 C1000 1.391 . S
C1001 C1005 1.376 . S
C1002 C1000 1.394 . S
C1002 C1003 1.369 . S
C1002 C1006 1.531 . S
C1003 C1002 1.369 . S
C1003 C1004 1.410 . S
C1003 C1011 1.503 . S
C1004 C1003 1.410 . S
C1004 C1005 1.392 . S
C1004 C1007 1.511 . S
C1005 C1001 1.376 . S
C1005 C1004 1.392 . S
C1005 H1017 0.929 . S
C1006 C1002 1.531 . S
C1006 H1018 0.960 . S
C1006 H1019 0.962 . S
C1006 H1020 0.960 . S
C1007 C1004 1.511 . S
C1007 H1021 0.961 . S
C1007 H1022 0.961 . S
C1007 H1023 0.961 . S
C1008 C1009 1.370 . S
C1008 C1010 1.363 . S
C1008 H1024 0.931 . S
C1009 C1008 1.370 . S
C1009 C1013 1.408 . S
C1010 C1008 1.363 . S
C1010 C1011 1.370 . S
C1010 C1014 1.524 . S
C1011 C1003 1.503 . S
C1011 C1010 1.370 . S
C1011 C1012 1.403 . S
C1012 C1011 1.403 . S
C1012 C1013 1.404 . S
C1012 C1015 1.539 . S
C1013 C1009 1.408 . S
C1013 C1012 1.404 . S
C1013 H1025 0.930 . S
C1014 C1010 1.524 . S
C1014 H1026 0.956 . S
C1014 H1027 0.961 . S
C1014 H1028 0.961 . S
C1015 C1012 1.539 . S
C1015 H1029 0.958 . S
C1015 H1030 0.961 . S
C1015 H1031 0.960 . S
H1016 C1000 0.931 . S
H1017 C1005 0.929 . S
H1018 C1006 0.960 . S
H1019 C1006 0.962 . S
H1020 C1006 0.960 . S
H1021 C1007 0.961 . S
H1022 C1007 0.961 . S
H1023 C1007 0.961 . S
H1024 C1008 0.931 . S
H1025 C1013 0.930 . S
H1026 C1014 0.956 . S
H1027 C1014 0.961 . S
H1028 C1014 0.961 . S
H1029 C1015 0.958 . S
H1030 C1015 0.961 . S
H1031 C1015 0.960 . S
C265 C9 1.419 . S
C273 C111 1.482 . S
C297 C21 1.151 . S
C305 C160 1.104 . S
C337 C186 2.185 . S
C329 C30 2.180 . S
C361 C43 2.140 . S
C369 C234 2.244 1_655 S
C401 C146 2.107 . S
C393 C4 1.800 . S
C433 C114 1.564 . S
C425 C22 1.588 . S
C465 C235 1.566 1_556 S
C457 C34 1.613 . S
C497 C203 1.501 . S
C489 C48 1.513 . S
C521 C8 1.589 . S
C529 C231 1.620 . S
C561 C163 2.267 . S
C553 C35 2.337 . S
C585 C47 2.551 . S
C593 C115 2.543 . S
C617 C17 0.862 . S
C625 C200 0.909 . S
C657 C120 1.034 . S
C649 C60 0.994 . S
C681 C74 1.108 . S
C689 C151 1.125 . S
C713 C82 1.875 . S
C721 C195 1.963 . S
C745 C100 2.743 . S
C753 C243 2.670 . S
C777 C61 2.402 . S
C785 C155 2.529 . S
C817 C123 0.768 . S
C809 C73 0.797 . S
C849 C226 2.139 . S
C841 C87 2.169 . S
C881 C194 1.292 . S
C873 C95 1.304 . S
C905 C56 1.513 . S
C913 C240 1.512 . S
C945 C154 2.459 . S
C937 C86 2.516 . S
C977 C106 2.354 . S
C969 C99 2.343 . S
C1001 C69 0.704 . S
C1009 C191 0.758 . S
