# Generated by pormake.
# Topology pyr, (3,6)-cn, num edge types: 1
# Building blocks:
#     Node 0, Type 0, BuildingBlock: KAKCAD_clean_linker_0, # of connection points: 3
#     Node 1, Type 0, BuildingBlock: KAKCAD_clean_linker_0, # of connection points: 3
#     Node 2, Type 0, BuildingBlock: KAKCAD_clean_linker_0, # of connection points: 3
#     Node 3, Type 0, BuildingBlock: KAKCAD_clean_linker_0, # of connection points: 3
#     Node 4, Type 0, BuildingBlock: KAKCAD_clean_linker_0, # of connection points: 3
#     Node 5, Type 0, BuildingBlock: KAKCAD_clean_linker_0, # of connection points: 3
#     Node 6, Type 0, BuildingBlock: KAKCAD_clean_linker_0, # of connection points: 3
#     Node 7, Type 0, BuildingBlock: KAKCAD_clean_linker_0, # of connection points: 3
#     Node 8, Type 1, BuildingBlock: GEDQOX_clean_sbu_0, # of connection points: 6
#     Node 9, Type 1, BuildingBlock: GEDQOX_clean_sbu_0, # of connection points: 6
#     Node 10, Type 1, BuildingBlock: GEDQOX_clean_sbu_0, # of connection points: 6
#     Node 11, Type 1, BuildingBlock: GEDQOX_clean_sbu_0, # of connection points: 6
#     Edge 12, Type (0, 1), BuildingBlock: CIFDUS_clean_linker_0, # of connection points: 2
#     Edge 13, Type (0, 1), BuildingBlock: CIFDUS_clean_linker_0, # of connection points: 2
#     Edge 14, Type (0, 1), BuildingBlock: CIFDUS_clean_linker_0, # of connection points: 2
#     Edge 15, Type (0, 1), BuildingBlock: CIFDUS_clean_linker_0, # of connection points: 2
#     Edge 16, Type (0, 1), BuildingBlock: CIFDUS_clean_linker_0, # of connection points: 2
#     Edge 17, Type (0, 1), BuildingBlock: CIFDUS_clean_linker_0, # of connection points: 2
#     Edge 18, Type (0, 1), BuildingBlock: CIFDUS_clean_linker_0, # of connection points: 2
#     Edge 19, Type (0, 1), BuildingBlock: CIFDUS_clean_linker_0, # of connection points: 2
#     Edge 20, Type (0, 1), BuildingBlock: CIFDUS_clean_linker_0, # of connection points: 2
#     Edge 21, Type (0, 1), BuildingBlock: CIFDUS_clean_linker_0, # of connection points: 2
#     Edge 22, Type (0, 1), BuildingBlock: CIFDUS_clean_linker_0, # of connection points: 2
#     Edge 23, Type (0, 1), BuildingBlock: CIFDUS_clean_linker_0, # of connection points: 2
#     Edge 24, Type (0, 1), BuildingBlock: CIFDUS_clean_linker_0, # of connection points: 2
#     Edge 25, Type (0, 1), BuildingBlock: CIFDUS_clean_linker_0, # of connection points: 2
#     Edge 26, Type (0, 1), BuildingBlock: CIFDUS_clean_linker_0, # of connection points: 2
#     Edge 27, Type (0, 1), BuildingBlock: CIFDUS_clean_linker_0, # of connection points: 2
#     Edge 28, Type (0, 1), BuildingBlock: CIFDUS_clean_linker_0, # of connection points: 2
#     Edge 29, Type (0, 1), BuildingBlock: CIFDUS_clean_linker_0, # of connection points: 2
#     Edge 30, Type (0, 1), BuildingBlock: CIFDUS_clean_linker_0, # of connection points: 2
#     Edge 31, Type (0, 1), BuildingBlock: CIFDUS_clean_linker_0, # of connection points: 2
#     Edge 32, Type (0, 1), BuildingBlock: CIFDUS_clean_linker_0, # of connection points: 2
#     Edge 33, Type (0, 1), BuildingBlock: CIFDUS_clean_linker_0, # of connection points: 2
#     Edge 34, Type (0, 1), BuildingBlock: CIFDUS_clean_linker_0, # of connection points: 2
#     Edge 35, Type (0, 1), BuildingBlock: CIFDUS_clean_linker_0, # of connection points: 2
# Relax obj value: 0.116
# Max RMSD: 0.157
# Mean RMSD: 0.063
data_MOF--net-pyr--node1-GEDQOX_clean_sbu_0--node2-KAKCAD_clean_linker_0--edge1-CIFDUS_clean_linker_0
_symmetry_space_group_name_H-M    P1
_symmetry_Int_Tables_number       1
_symmetry_cell_setting            triclinic
loop_
_symmetry_equiv_pos_as_xyz
'x, y, z'
_cell_length_a     43.279187
_cell_length_b     44.159381
_cell_length_c     37.764144
_cell_angle_alpha  86.697564
_cell_angle_beta   89.07524
_cell_angle_gamma 84.883602
loop_
_atom_site_label
_atom_site_type_symbol
_atom_site_fract_x
_atom_site_fract_y
_atom_site_fract_z
_atom_type_partial_charge
C0 C 0.14016 0.1444 0.26838 0.0
C1 C 0.15834 0.12634 0.29349 0.0
C2 C 0.15387 0.15845 0.23847 0.0
C3 C 0.18631 0.1553 0.2329 0.0
C4 C 0.20446 0.13739 0.25833 0.0
C5 C 0.19069 0.12301 0.28797 0.0
C6 C 0.20107 0.17066 0.20094 0.0
C7 C 0.18819 0.19913 0.18651 0.0
C8 C 0.20138 0.21381 0.15648 0.0
C9 C 0.22854 0.19961 0.14104 0.0
C10 C 0.24229 0.17123 0.15499 0.0
C11 C 0.2281 0.15703 0.18474 0.0
C12 C 0.27145 0.15624 0.13874 0.0
C13 C 0.27589 0.15621 0.10167 0.0
C14 C 0.29506 0.14135 0.16035 0.0
C15 C 0.32206 0.12686 0.14549 0.0
C16 C 0.32643 0.12655 0.10843 0.0
C17 C 0.1867 0.24407 0.14174 0.0
C18 C 0.15417 0.24987 0.14003 0.0
C19 C 0.20486 0.26768 0.12999 0.0
C20 C 0.19096 0.2962 0.11735 0.0
C21 C 0.15838 0.30208 0.1158 0.0
C22 C 0.14027 0.27832 0.12727 0.0
C23 C 0.30285 0.14147 0.08677 0.0
H24 H 0.11516 0.14718 0.27145 0.0
H25 H 0.13882 0.17142 0.21942 0.0
H26 H 0.22948 0.13475 0.25574 0.0
H27 H 0.20551 0.10961 0.30694 0.0
H28 H 0.16815 0.21045 0.19931 0.0
H29 H 0.2378 0.1348 0.19475 0.0
H30 H 0.23904 0.21071 0.11814 0.0
H31 H 0.25826 0.16716 0.08405 0.0
H32 H 0.29281 0.14105 0.18897 0.0
H33 H 0.33935 0.11543 0.1632 0.0
H34 H 0.1393 0.23223 0.14825 0.0
H35 H 0.22992 0.26439 0.1313 0.0
H36 H 0.30532 0.14204 0.05817 0.0
H37 H 0.11522 0.28146 0.12594 0.0
H38 H 0.20589 0.31385 0.1094 0.0
C39 C 0.40505 0.84871 0.87371 0.0
C40 C 0.43407 0.85829 0.86326 0.0
C41 C 0.392 0.82632 0.8556 0.0
C42 C 0.40796 0.8127 0.8271 0.0
C43 C 0.43739 0.82163 0.81727 0.0
C44 C 0.45022 0.84442 0.835 0.0
C45 C 0.39304 0.79057 0.80643 0.0
C46 C 0.36322 0.79848 0.79271 0.0
C47 C 0.34889 0.7785 0.77185 0.0
C48 C 0.36425 0.74971 0.76659 0.0
C49 C 0.39454 0.74196 0.77866 0.0
C50 C 0.40897 0.76256 0.7985 0.0
C51 C 0.4118 0.71414 0.76589 0.0
C52 C 0.39814 0.68639 0.76766 0.0
C53 C 0.43937 0.71649 0.74628 0.0
C54 C 0.45178 0.69232 0.72664 0.0
C55 C 0.43702 0.66515 0.72648 0.0
C56 C 0.31986 0.78878 0.75215 0.0
C57 C 0.29705 0.80967 0.76613 0.0
C58 C 0.31576 0.7791 0.71779 0.0
C59 C 0.29005 0.79028 0.69783 0.0
C60 C 0.26808 0.8123 0.711 0.0
C61 C 0.27159 0.82148 0.74569 0.0
C62 C 0.41071 0.66209 0.74832 0.0
H63 H 0.39207 0.85914 0.89529 0.0
H64 H 0.36929 0.81978 0.86369 0.0
H65 H 0.45005 0.81164 0.7952 0.0
H66 H 0.47273 0.85128 0.82659 0.0
H67 H 0.35209 0.82101 0.79668 0.0
H68 H 0.43249 0.75681 0.80766 0.0
H69 H 0.35338 0.73379 0.7511 0.0
H70 H 0.3769 0.684 0.78273 0.0
H71 H 0.4501 0.73778 0.74404 0.0
H72 H 0.47186 0.69573 0.7099 0.0
H73 H 0.29908 0.81735 0.79263 0.0
H74 H 0.33292 0.7636 0.70549 0.0
H75 H 0.39916 0.64128 0.74954 0.0
H76 H 0.25525 0.83852 0.75674 0.0
H77 H 0.28781 0.78201 0.67163 0.0
C78 C 0.84626 0.42108 0.92076 0.0
C79 C 0.87249 0.42652 0.89971 0.0
C80 C 0.81953 0.41222 0.90547 0.0
C81 C 0.81836 0.40883 0.86875 0.0
C82 C 0.8445 0.41448 0.84765 0.0
C83 C 0.87133 0.4231 0.86299 0.0
C84 C 0.79014 0.39897 0.85256 0.0
C85 C 0.77831 0.41361 0.82085 0.0
C86 C 0.7522 0.40364 0.80509 0.0
C87 C 0.73762 0.37934 0.82133 0.0
C88 C 0.74858 0.36492 0.8533 0.0
C89 C 0.77506 0.37466 0.86866 0.0
C90 C 0.73223 0.3395 0.86993 0.0
C91 C 0.69965 0.34182 0.87147 0.0
C92 C 0.74874 0.31214 0.88207 0.0
C93 C 0.73289 0.28711 0.89387 0.0
C94 C 0.70025 0.28904 0.89389 0.0
C95 C 0.7391 0.41855 0.772 0.0
C96 C 0.72593 0.44876 0.77132 0.0
C97 C 0.73583 0.40121 0.74254 0.0
C98 C 0.71824 0.41331 0.7136 0.0
C99 C 0.70302 0.44281 0.71382 0.0
C100 C 0.7079 0.46078 0.74252 0.0
C101 C 0.68385 0.3169 0.88324 0.0
H102 H 0.84654 0.42334 0.94917 0.0
H103 H 0.79966 0.40825 0.92236 0.0
H104 H 0.84437 0.4118 0.81932 0.0
H105 H 0.89107 0.42741 0.84604 0.0
H106 H 0.78937 0.43263 0.8084 0.0
H107 H 0.78393 0.36329 0.89309 0.0
H108 H 0.71749 0.37168 0.80892 0.0
H109 H 0.68631 0.36277 0.86274 0.0
H110 H 0.77386 0.30968 0.8811 0.0
H111 H 0.74619 0.26607 0.90233 0.0
H112 H 0.72795 0.46239 0.79399 0.0
H113 H 0.74595 0.37786 0.74255 0.0
H114 H 0.65874 0.31915 0.88257 0.0
H115 H 0.69639 0.4835 0.74374 0.0
H116 H 0.71569 0.3991 0.69158 0.0
C117 C 0.83541 0.77335 0.20637 0.0
C118 C 0.86584 0.76091 0.20008 0.0
C119 C 0.82949 0.79516 0.2315 0.0
C120 C 0.85384 0.80464 0.25121 0.0
C121 C 0.88453 0.79408 0.24272 0.0
C122 C 0.89047 0.77245 0.21728 0.0
C123 C 0.84693 0.8214 0.28382 0.0
C124 C 0.82368 0.81187 0.3072 0.0
C125 C 0.81879 0.82432 0.34034 0.0
C126 C 0.83686 0.84735 0.34973 0.0
C127 C 0.86028 0.85724 0.32679 0.0
C128 C 0.86532 0.84409 0.29389 0.0
C129 C 0.88099 0.87932 0.33905 0.0
C130 C 0.86843 0.90599 0.35438 0.0
C131 C 0.91331 0.87239 0.33882 0.0
C132 C 0.93259 0.89102 0.35525 0.0
C133 C 0.9199 0.9171 0.37176 0.0
C134 C 0.79766 0.81022 0.36647 0.0
C135 C 0.76888 0.80169 0.35576 0.0
C136 C 0.80787 0.80167 0.40105 0.0
C137 C 0.79069 0.78316 0.42355 0.0
C138 C 0.76296 0.77289 0.41194 0.0
C139 C 0.75168 0.78322 0.37828 0.0
C140 C 0.88771 0.9248 0.37039 0.0
H141 H 0.81607 0.76512 0.19307 0.0
H142 H 0.80564 0.80335 0.23696 0.0
H143 H 0.90379 0.80075 0.25755 0.0
H144 H 0.91416 0.76311 0.21304 0.0
H145 H 0.81081 0.79301 0.30067 0.0
H146 H 0.88371 0.8513 0.27641 0.0
H147 H 0.8336 0.85666 0.37561 0.0
H148 H 0.84358 0.91183 0.35482 0.0
H149 H 0.92353 0.85181 0.32743 0.0
H150 H 0.95735 0.88469 0.35575 0.0
H151 H 0.76034 0.80817 0.32935 0.0
H152 H 0.83006 0.80769 0.40999 0.0
H153 H 0.87727 0.94463 0.38313 0.0
H154 H 0.7305 0.77557 0.36845 0.0
H155 H 0.79975 0.77586 0.44953 0.0
C156 C 0.92384 0.88357 0.75345 0.0
C157 C 0.93059 0.91428 0.75271 0.0
C158 C 0.90832 0.87028 0.78245 0.0
C159 C 0.89842 0.8873 0.81154 0.0
C160 C 0.90413 0.91821 0.81056 0.0
C161 C 0.92018 0.93145 0.78172 0.0
C162 C 0.88319 0.87228 0.84306 0.0
C163 C 0.89647 0.8442 0.85785 0.0
C164 C 0.88239 0.8287 0.88664 0.0
C165 C 0.85403 0.84182 0.90043 0.0
C166 C 0.84009 0.87003 0.88614 0.0
C167 C 0.85525 0.88525 0.8578 0.0
C168 C 0.80903 0.88296 0.89961 0.0
C169 C 0.78416 0.86456 0.90411 0.0
C170 C 0.80358 0.91396 0.90687 0.0
C171 C 0.77407 0.9262 0.91804 0.0
C172 C 0.749 0.90795 0.92149 0.0
C173 C 0.89763 0.79884 0.90181 0.0
C174 C 0.91216 0.77737 0.87932 0.0
C175 C 0.89903 0.79195 0.93869 0.0
C176 C 0.91525 0.76488 0.95259 0.0
C177 C 0.93051 0.74381 0.93002 0.0
C178 C 0.92825 0.75038 0.89314 0.0
C179 C 0.75456 0.87692 0.91453 0.0
H180 H 0.93041 0.86957 0.73149 0.0
H181 H 0.90388 0.84654 0.78202 0.0
H182 H 0.89699 0.93194 0.83261 0.0
H183 H 0.92506 0.95499 0.78272 0.0
H184 H 0.91837 0.83466 0.84718 0.0
H185 H 0.84461 0.90659 0.84618 0.0
H186 H 0.84262 0.82996 0.92214 0.0
H187 H 0.78734 0.84069 0.89855 0.0
H188 H 0.82218 0.92881 0.90386 0.0
H189 H 0.77064 0.9502 0.92293 0.0
H190 H 0.91109 0.78138 0.85079 0.0
H191 H 0.8884 0.80794 0.95694 0.0
H192 H 0.73587 0.86214 0.91701 0.0
H193 H 0.93887 0.73456 0.87472 0.0
H194 H 0.91654 0.76093 0.9811 0.0
C195 C 0.66755 0.15958 0.21657 0.0
C196 C 0.6451 0.16787 0.19054 0.0
C197 C 0.67896 0.18153 0.23663 0.0
C198 C 0.66858 0.21251 0.23093 0.0
C199 C 0.64629 0.22095 0.20468 0.0
C200 C 0.63467 0.19885 0.18466 0.0
C201 C 0.6805 0.23543 0.2533 0.0
C202 C 0.71173 0.23204 0.26384 0.0
C203 C 0.7224 0.2502 0.28949 0.0
C204 C 0.70198 0.27315 0.3031 0.0
C205 C 0.67085 0.27718 0.29275 0.0
C206 C 0.66023 0.25857 0.26745 0.0
C207 C 0.64928 0.29865 0.31182 0.0
C208 C 0.64965 0.29747 0.34905 0.0
C209 C 0.63026 0.32166 0.29358 0.0
C210 C 0.61349 0.34433 0.31236 0.0
C211 C 0.61565 0.34415 0.3495 0.0
C212 C 0.75269 0.24196 0.30691 0.0
C213 C 0.7611 0.21141 0.31777 0.0
C214 C 0.77083 0.2646 0.3177 0.0
C215 C 0.79545 0.25707 0.34104 0.0
C216 C 0.80216 0.2268 0.35402 0.0
C217 C 0.78558 0.20393 0.34108 0.0
C218 C 0.63308 0.31997 0.36766 0.0
H219 H 0.67642 0.13602 0.22151 0.0
H220 H 0.6956 0.17404 0.25713 0.0
H221 H 0.63787 0.24461 0.19958 0.0
H222 H 0.61714 0.20597 0.16503 0.0
H223 H 0.72756 0.21434 0.25319 0.0
H224 H 0.63585 0.26075 0.26075 0.0
H225 H 0.70978 0.28677 0.32364 0.0
H226 H 0.66359 0.27955 0.36378 0.0
H227 H 0.62957 0.32292 0.26487 0.0
H228 H 0.6001 0.36274 0.2978 0.0
H229 H 0.74747 0.19343 0.31027 0.0
H230 H 0.76503 0.28831 0.30948 0.0
H231 H 0.63455 0.31892 0.39633 0.0
H232 H 0.79066 0.18034 0.35027 0.0
H233 H 0.80797 0.2751 0.35055 0.0
C234 C 0.21826 0.60311 0.20325 0.0
C235 C 0.21901 0.59861 0.16668 0.0
C236 C 0.24232 0.61642 0.21903 0.0
C237 C 0.26744 0.62584 0.19848 0.0
C238 C 0.26855 0.6207 0.16206 0.0
C239 C 0.24466 0.60702 0.14636 0.0
C240 C 0.2914 0.64258 0.21463 0.0
C241 C 0.30487 0.63206 0.24731 0.0
C242 C 0.32634 0.64892 0.26328 0.0
C243 C 0.33419 0.67631 0.24644 0.0
C244 C 0.32133 0.68692 0.21376 0.0
C245 C 0.30012 0.66987 0.1978 0.0
C246 C 0.33125 0.7154 0.19634 0.0
C247 C 0.33307 0.74106 0.21625 0.0
C248 C 0.342 0.71618 0.16104 0.0
C249 C 0.35617 0.74147 0.1467 0.0
C250 C 0.35957 0.76646 0.16735 0.0
C251 C 0.34235 0.63777 0.29652 0.0
C252 C 0.34467 0.65756 0.32399 0.0
C253 C 0.35894 0.60896 0.29897 0.0
C254 C 0.37907 0.60089 0.32725 0.0
C255 C 0.38279 0.6214 0.35379 0.0
C256 C 0.36455 0.64942 0.35239 0.0
C257 C 0.34705 0.76632 0.20192 0.0
H258 H 0.19888 0.59659 0.21959 0.0
H259 H 0.24076 0.62028 0.24709 0.0
H260 H 0.28776 0.62755 0.14565 0.0
H261 H 0.24578 0.60393 0.1181 0.0
H262 H 0.29873 0.61084 0.26024 0.0
H263 H 0.28976 0.6783 0.17279 0.0
H264 H 0.35141 0.68891 0.25824 0.0
H265 H 0.3247 0.74113 0.24344 0.0
H266 H 0.34094 0.69663 0.14518 0.0
H267 H 0.36528 0.7411 0.11983 0.0
H268 H 0.3319 0.67984 0.32281 0.0
H269 H 0.35781 0.59345 0.27791 0.0
H270 H 0.3495 0.78505 0.21866 0.0
H271 H 0.36626 0.66547 0.37275 0.0
H272 H 0.39293 0.57923 0.32724 0.0
C273 C 0.21079 0.11449 0.72225 0.0
C274 C 0.17827 0.11819 0.72068 0.0
C275 C 0.22692 0.13515 0.73979 0.0
C276 C 0.21073 0.15946 0.75655 0.0
C277 C 0.17814 0.16216 0.7565 0.0
C278 C 0.16207 0.14184 0.7385 0.0
C279 C 0.2275 0.18382 0.77078 0.0
C280 C 0.24898 0.19839 0.74891 0.0
C281 C 0.26124 0.22469 0.75953 0.0
C282 C 0.25331 0.23533 0.79296 0.0
C283 C 0.23194 0.22122 0.81524 0.0
C284 C 0.21913 0.19531 0.80395 0.0
C285 C 0.21968 0.2372 0.84681 0.0
C286 C 0.23952 0.25298 0.86675 0.0
C287 C 0.18752 0.24206 0.85257 0.0
C288 C 0.17545 0.26496 0.87425 0.0
C289 C 0.19527 0.28385 0.88997 0.0
C290 C 0.279 0.24369 0.73445 0.0
C291 C 0.30493 0.23129 0.71565 0.0
C292 C 0.27022 0.27507 0.73014 0.0
C293 C 0.28775 0.29395 0.70885 0.0
C294 C 0.31451 0.28195 0.69127 0.0
C295 C 0.32262 0.25033 0.69421 0.0
C296 C 0.22748 0.2763 0.88775 0.0
H297 H 0.22376 0.09652 0.70849 0.0
H298 H 0.25205 0.13262 0.73948 0.0
H299 H 0.1651 0.1809 0.76886 0.0
H300 H 0.13697 0.14505 0.73771 0.0
H301 H 0.2542 0.19073 0.72253 0.0
H302 H 0.20196 0.18462 0.82041 0.0
H303 H 0.26231 0.25614 0.80052 0.0
H304 H 0.26447 0.24915 0.86363 0.0
H305 H 0.17151 0.23018 0.83791 0.0
H306 H 0.15049 0.26932 0.87649 0.0
H307 H 0.31203 0.20713 0.71845 0.0
H308 H 0.24983 0.28511 0.74356 0.0
H309 H 0.24364 0.29003 0.89954 0.0
H310 H 0.34313 0.24049 0.68086 0.0
H311 H 0.28043 0.31808 0.70631 0.0
Nd312 Nd 0.05897 1.00879 0.52556 0.0
Nd313 Nd 1.02142 0.06834 0.5368 0.0
C314 C 0.0902 0.95833 0.50567 0.0
C315 C 0.11241 0.93512 0.52334 0.0
C316 C 0.10236 0.91258 0.54758 0.0
C317 C 0.12392 0.89296 0.56684 0.0
C318 C 0.15593 0.89555 0.56234 0.0
C319 C 0.16586 0.91733 0.53704 0.0
C320 C 0.14438 0.93669 0.5176 0.0
C321 C 0.08256 0.04202 0.57646 0.0
C322 C 1.0115 1.00937 0.59229 0.0
C323 C 0.99245 0.12017 0.55564 0.0
C324 C 0.97738 0.14608 0.53455 0.0
C325 C 0.95117 0.16261 0.54815 0.0
C326 C 0.93272 0.18275 0.52577 0.0
C327 C 0.94024 0.18648 0.48949 0.0
C328 C 0.96783 0.17159 0.47661 0.0
C329 C 0.98617 0.15139 0.49895 0.0
C330 C 0.99852 0.03548 0.48503 0.0
C331 C 0.06676 0.06774 0.46872 0.0
O332 O 0.06121 0.95941 0.51633 0.0
O333 O 0.09997 0.98538 0.50011 0.0
O334 O 0.084 1.01257 0.57832 0.0
O335 O 0.07118 0.05268 0.54745 0.0
O336 O 1.02581 0.99156 0.56905 0.0
O337 O 1.01116 0.03936 0.58802 0.0
O338 O 1.02264 0.11581 0.5525 0.0
O339 O 0.97882 0.09499 0.55458 0.0
O340 O 0.99732 0.06495 0.48346 0.0
O341 O 1.00931 0.02453 0.51425 0.0
O342 O 0.05314 0.08537 0.49246 0.0
O343 O 0.06779 0.03768 0.47324 0.0
H344 H 0.07787 0.91052 0.55233 0.0
H345 H 0.11549 0.87602 0.58558 0.0
H346 H 0.19027 0.92028 0.53311 0.0
H347 H 0.15285 0.95365 0.49889 0.0
H348 H 0.94399 0.15863 0.57552 0.0
H349 H 0.91164 0.19412 0.53636 0.0
H350 H 0.97399 0.17371 0.44872 0.0
H351 H 1.00615 0.13852 0.48785 0.0
Nd352 Nd 0.54263 0.99755 0.05337 0.0
Nd353 Nd 0.53624 0.03647 0.99116 0.0
C354 C 0.5489 0.95001 0.09922 0.0
C355 C 0.53118 0.92307 0.10503 0.0
C356 C 0.52683 0.90387 0.07738 0.0
C357 C 0.50716 0.88051 0.08214 0.0
C358 C 0.49126 0.87612 0.11447 0.0
C359 C 0.49621 0.89482 0.14235 0.0
C360 C 0.5161 0.91799 0.13771 0.0
C361 C 0.494 0.04175 0.06047 0.0
C362 C 0.50299 0.97628 0.98653 0.0
C363 C 0.53044 0.08405 0.94512 0.0
C364 C 0.54573 0.11263 0.94145 0.0
C365 C 0.54869 0.13044 0.9707 0.0
C366 C 0.56596 0.15574 0.96772 0.0
C367 C 0.58071 0.16364 0.93552 0.0
C368 C 0.57708 0.14622 0.90608 0.0
C369 C 0.55972 0.12097 0.90903 0.0
C370 C 0.58735 0.99399 0.98726 0.0
C371 C 0.57548 0.05769 0.05799 0.0
O372 O 0.5652 0.95199 0.06984 0.0
O373 O 0.53406 0.97595 0.10668 0.0
O374 O 0.51476 0.03362 0.08427 0.0
O375 O 0.49917 0.02675 1.03284 0.0
O376 O 0.51864 0.96802 1.0156 0.0
O377 O 0.50278 1.00413 0.97236 0.0
O378 O 0.5119 0.08066 0.97244 0.0
O379 O 0.54818 0.05931 0.93947 0.0
O380 O 0.56717 1.00001 0.96226 0.0
O381 O 0.57973 1.00952 1.01366 0.0
O382 O 0.55825 0.06653 1.0302 0.0
O383 O 0.5776 0.02914 0.07019 0.0
H384 H 0.53789 0.90736 0.05172 0.0
H385 H 0.50358 0.86654 0.06017 0.0
H386 H 0.4845 0.89163 0.16769 0.0
H387 H 0.51905 0.93251 0.15936 0.0
H388 H 0.53835 0.12443 0.99616 0.0
H389 H 0.56856 0.16856 0.99095 0.0
H390 H 0.58782 0.15203 0.88077 0.0
H391 H 0.55779 0.10753 0.88618 0.0
Nd392 Nd 0.51385 0.49676 0.53585 0.0
Nd393 Nd 0.56934 0.53456 0.52496 0.0
C394 C 0.45911 0.47442 0.53674 0.0
C395 C 0.4395 0.45687 0.5605 0.0
C396 C 0.41495 0.4432 0.54612 0.0
C397 C 0.39831 0.42318 0.56717 0.0
C398 C 0.40601 0.41656 0.60296 0.0
C399 C 0.43007 0.4311 0.61759 0.0
C400 C 0.44684 0.45104 0.59641 0.0
C401 C 0.56386 0.47506 0.57667 0.0
C402 C 0.51943 0.55638 0.58408 0.0
C403 C 0.62292 0.55843 0.51553 0.0
C404 C 0.63403 0.58863 0.50734 0.0
C405 C 0.65832 0.59787 0.52707 0.0
C406 C 0.67021 0.62582 0.51867 0.0
C407 C 0.65817 0.64496 0.49014 0.0
C408 C 0.63323 0.63592 0.47103 0.0
C409 C 0.62119 0.6081 0.47964 0.0
C410 C 0.51747 0.55472 0.48591 0.0
C411 C 0.56675 0.47396 0.48278 0.0
O412 O 0.46278 0.5024 0.54443 0.0
O413 O 0.48479 0.45954 0.52646 0.0
O414 O 0.54375 0.45785 0.5655 0.0
O415 O 0.55519 0.50266 0.56977 0.0
O416 O 0.50073 0.5377 0.57092 0.0
O417 O 0.54841 0.55726 0.57312 0.0
O418 O 0.60852 0.54651 0.49026 0.0
O419 O 0.61016 0.55398 0.54679 0.0
O420 O 0.53542 0.57316 0.49903 0.0
O421 O 0.52841 0.52773 0.4915 0.0
O422 O 0.5848 0.4882 0.50276 0.0
O423 O 0.53641 0.47962 0.48478 0.0
H424 H 0.40919 0.44736 0.51834 0.0
H425 H 0.37961 0.41264 0.55536 0.0
H426 H 0.43661 0.42625 0.64503 0.0
H427 H 0.46604 0.46118 0.60772 0.0
H428 H 0.66836 0.58328 0.54874 0.0
H429 H 0.68904 0.6323 0.53434 0.0
H430 H 0.62362 0.64987 0.44864 0.0
H431 H 0.60223 0.6016 0.46417 0.0
Nd432 Nd 1.00864 0.52297 0.07431 0.0
Nd433 Nd 0.0585 0.5268 1.01798 0.0
C434 C 0.95943 0.51628 0.11488 0.0
C435 C 0.93359 0.53926 0.12179 0.0
C436 C 0.92354 0.56096 0.09476 0.0
C437 C 0.90529 0.58735 0.10291 0.0
C438 C 0.89666 0.59243 0.13818 0.0
C439 C 0.90458 0.56957 0.1648 0.0
C440 C 0.92308 0.54322 0.15666 0.0
C441 C 0.05867 0.5518 0.09385 0.0
C442 C 1.00565 0.58546 1.02382 0.0
C443 C 0.10806 0.53281 0.97803 0.0
C444 C 0.13295 0.50874 0.97135 0.0
C445 C 0.14438 0.48874 0.99946 0.0
C446 C 0.16006 0.46064 0.99261 0.0
C447 C 0.16437 0.45195 0.95758 0.0
C448 C 0.15574 0.47325 0.92952 0.0
C449 C 0.14011 0.50141 0.93637 0.0
C450 C 1.00758 0.49905 0.99848 0.0
C451 C 0.06048 0.46367 0.06716 0.0
O452 O 0.96179 0.50691 0.0826 0.0
O453 O 0.98608 0.52225 0.12741 0.0
O454 O 1.03019 0.56094 0.10164 0.0
O455 O 0.06008 0.52776 0.07719 0.0
O456 O 0.9899 0.56756 0.04514 0.0
O457 O 1.0339 0.5762 1.01232 0.0
O458 O 0.10574 0.54215 1.01036 0.0
O459 O 0.08118 0.52814 0.96498 0.0
O460 O 1.0358 0.48937 0.99006 0.0
O461 O 1.00717 0.52283 1.01532 0.0
O462 O 0.07673 0.48118 0.04592 0.0
O463 O 1.03251 0.47359 0.07874 0.0
H464 H 0.93135 0.55852 0.0676 0.0
H465 H 0.8992 0.60448 0.08188 0.0
H466 H 0.89838 0.57304 0.19227 0.0
H467 H 0.93084 0.52693 0.17793 0.0
H468 H 0.13911 0.49366 1.02678 0.0
H469 H 0.16651 0.44481 1.01478 0.0
H470 H 0.15942 0.46742 0.90221 0.0
H471 H 0.13148 0.51641 0.91431 0.0
H472 H 0.11276 0.14987 0.33799 0.0
H473 H 0.17098 0.06761 0.3203 0.0
H474 H 0.14751 0.04192 0.37177 0.0
H475 H 0.11051 0.04278 0.42258 0.0
H476 H 0.05392 0.12593 0.44128 0.0
H477 H 0.07634 0.15094 0.38892 0.0
C478 C 0.12019 0.12626 0.34524 0.0
C479 C 0.14368 0.11078 0.32508 0.0
C480 C 0.10679 0.11165 0.37525 0.0
C481 C 0.15322 0.08026 0.33536 0.0
C482 C 0.13967 0.06547 0.36478 0.0
C483 C 0.10298 0.06633 0.41511 0.0
C484 C 0.08042 0.08232 0.43605 0.0
C485 C 0.11645 0.08092 0.38505 0.0
C486 C 0.07126 0.11296 0.42596 0.0
C487 C 0.08408 0.12736 0.39587 0.0
H488 H 0.44049 0.86334 0.93405 0.0
H489 H 0.45665 0.90917 0.83243 0.0
H490 H 0.4775 0.95088 0.86167 0.0
H491 H 0.49211 0.97384 0.91619 0.0
H492 H 0.47896 0.92633 1.01758 0.0
H493 H 0.45571 0.88596 0.98856 0.0
C494 C 0.44847 0.88256 0.9184 0.0
C495 C 0.44706 0.88325 0.8812 0.0
C496 C 0.46085 0.90619 0.93538 0.0
C497 C 0.45778 0.90807 0.86112 0.0
C498 C 0.46954 0.93196 0.87782 0.0
C499 C 0.48379 0.95481 0.93189 0.0
C500 C 0.487 0.95315 0.96894 0.0
C501 C 0.47126 0.93124 0.91493 0.0
C502 C 0.47671 0.9281 0.98899 0.0
C503 C 0.46345 0.905 0.97242 0.0
H504 H 0.66183 0.40973 0.6832 0.0
H505 H 0.69195 0.50039 0.68218 0.0
H506 H 0.65159 0.51839 0.63944 0.0
H507 H 0.60685 0.50846 0.60346 0.0
H508 H 0.5784 0.41728 0.60348 0.0
H509 H 0.61951 0.39924 0.64509 0.0
C510 C 0.66011 0.43331 0.67315 0.0
C511 C 0.68005 0.45362 0.68591 0.0
C512 C 0.63707 0.44342 0.64846 0.0
C513 C 0.67676 0.48429 0.67315 0.0
C514 C 0.65376 0.49458 0.64859 0.0
C515 C 0.6098 0.48464 0.61249 0.0
C516 C 0.58956 0.46424 0.60066 0.0
C517 C 0.63361 0.47439 0.63631 0.0
C518 C 0.59364 0.43341 0.61236 0.0
C519 C 0.61712 0.42309 0.63614 0.0
H520 H 0.83638 0.70962 0.20828 0.0
H521 H 0.90891 0.74993 0.14745 0.0
H522 H 0.92255 0.7016 0.11979 0.0
H523 H 0.91701 0.64686 0.11752 0.0
H524 H 0.84671 0.60589 0.18147 0.0
H525 H 0.82872 0.65568 0.20321 0.0
C526 C 0.85471 0.70798 0.18835 0.0
C527 C 0.87156 0.73325 0.17972 0.0
C528 C 0.86293 0.67999 0.17346 0.0
C529 C 0.8957 0.73071 0.15448 0.0
C530 C 0.90349 0.70312 0.13876 0.0
C531 C 0.89731 0.64899 0.13563 0.0
C532 C 0.88309 0.62284 0.14788 0.0
C533 C 0.88773 0.67746 0.14869 0.0
C534 C 0.85802 0.62573 0.17184 0.0
C535 C 0.84779 0.65414 0.18425 0.0
H536 H 0.38641 0.12527 0.13114 0.0
H537 H 0.33184 0.09155 0.04996 0.0
H538 H 0.37842 0.06395 1.02596 0.0
H539 H 0.43521 0.04703 1.02979 0.0
H540 H 0.48824 0.08113 0.11225 0.0
H541 H 0.44221 0.11047 0.1336 0.0
C542 C 0.38454 0.11179 0.10829 0.0
C543 C 0.3553 0.11053 0.09272 0.0
C544 C 0.41147 0.09581 0.09466 0.0
C545 C 0.35386 0.0933 0.06256 0.0
C546 C 0.38059 0.0773 0.04884 0.0
C547 C 0.43669 0.06118 0.05212 0.0
C548 C 0.46537 0.06161 0.06941 0.0
C549 C 0.40963 0.07811 0.06481 0.0
C550 C 0.46662 0.08005 0.09848 0.0
C551 C 0.4402 0.09692 0.11084 0.0
H552 H 0.27118 0.82626 0.64 0.0
H553 H 0.20792 0.83119 0.72957 0.0
H554 H 0.16747 0.85679 0.69134 0.0
H555 H 0.15075 0.87909 0.63284 0.0
H556 H 0.21317 0.87004 0.54288 0.0
H557 H 0.25316 0.84407 0.5811 0.0
C558 C 0.24838 0.8322 0.65122 0.0
C559 C 0.24275 0.82668 0.68776 0.0
C560 C 0.22507 0.84622 0.62903 0.0
C561 C 0.21319 0.83552 0.70171 0.0
C562 C 0.18993 0.84996 0.6798 0.0
C563 C 0.17285 0.8709 0.62139 0.0
C564 C 0.17897 0.87684 0.58502 0.0
C565 C 0.19569 0.85557 0.64345 0.0
C566 C 0.20798 0.86639 0.57087 0.0
C567 C 0.23085 0.85139 0.59267 0.0
H568 H 0.87605 0.46919 0.94812 0.0
H569 H 0.93266 0.40501 0.88752 0.0
H570 H 0.97953 0.42103 0.91356 0.0
H571 H 1.00448 0.45389 0.95303 0.0
H572 H 0.94763 0.51906 1.01212 0.0
H573 H 0.90083 0.5017 0.98773 0.0
C574 C 0.89864 0.45851 0.94089 0.0
C575 C 0.90088 0.43595 0.91596 0.0
C576 C 0.92545 0.46795 0.9558 0.0
C577 C 0.93035 0.42265 0.90641 0.0
C578 C 0.95713 0.43169 0.9214 0.0
C579 C 0.98182 0.46415 0.96065 0.0
C580 C 0.97948 0.48757 0.98447 0.0
C581 C 0.95498 0.45442 0.94602 0.0
C582 C 0.95002 0.50082 0.99401 0.0
C583 C 0.92324 0.491 0.97998 0.0
H584 H 0.70102 0.76937 0.42419 0.0
H585 H 0.79085 0.72199 0.44606 0.0
H586 H 0.76629 0.67923 0.47448 0.0
H587 H 0.71962 0.65335 0.48803 0.0
H588 H 0.62946 0.70021 0.46651 0.0
H589 H 0.65388 0.74484 0.44235 0.0
C590 C 0.71517 0.74975 0.43541 0.0
C591 C 0.7477 0.74888 0.43296 0.0
C592 C 0.70088 0.72497 0.45129 0.0
C593 C 0.76577 0.72346 0.44798 0.0
C594 C 0.75175 0.69884 0.46396 0.0
C595 C 0.70521 0.67353 0.47884 0.0
C596 C 0.67273 0.67327 0.47889 0.0
C597 C 0.71936 0.69911 0.46514 0.0
C598 C 0.65453 0.69954 0.46622 0.0
C599 C 0.66847 0.72514 0.45256 0.0
H600 H 0.10413 0.33314 0.13847 0.0
H601 H 0.17867 0.34053 0.06193 0.0
H602 H 0.15542 0.3904 0.04047 0.0
H603 H 0.11392 0.43251 0.04334 0.0
H604 H 0.03853 0.42429 0.11844 0.0
H605 H 0.06177 0.3743 0.13982 0.0
C606 C 0.11523 0.34538 0.11682 0.0
C607 C 0.14347 0.3327 0.10223 0.0
C608 C 0.10147 0.37417 0.10417 0.0
C609 C 0.1574 0.34958 0.07443 0.0
C610 C 0.14394 0.37819 0.06186 0.0
C611 C 0.10252 0.41984 0.06439 0.0
C612 C 0.07442 0.43252 0.07923 0.0
C613 C 0.11604 0.39083 0.07661 0.0
C614 C 0.06005 0.41538 0.10634 0.0
C615 C 0.07342 0.38668 0.11871 0.0
H616 H 0.6467 0.28571 0.93243 0.0
H617 H 0.7153 0.23103 0.87402 0.0
H618 H 0.68493 0.18721 0.88292 0.0
H619 H 0.63758 0.16514 0.90443 0.0
H620 H 0.56804 0.22016 0.96101 0.0
H621 H 0.59999 0.26318 0.95549 0.0
C622 C 0.65499 0.26421 0.92163 0.0
C623 C 0.6832 0.26174 0.90248 0.0
C624 C 0.63713 0.23923 0.92626 0.0
C625 C 0.69389 0.23353 0.88924 0.0
C626 C 0.67638 0.2085 0.89401 0.0
C627 C 0.62934 0.18662 0.91535 0.0
C628 C 0.60037 0.18956 0.9328 0.0
C629 C 0.64775 0.21124 0.91196 0.0
C630 C 0.59031 0.2173 0.94754 0.0
C631 C 0.60851 0.24192 0.9443 0.0
H632 H 0.92062 0.97866 0.37017 0.0
H633 H 0.96311 0.89554 0.42071 0.0
H634 H 0.99207 0.92484 0.45964 0.0
H635 H 1.00292 0.97413 0.48167 0.0
H636 H 0.96124 0.05727 0.43037 0.0
H637 H 0.93423 0.028 0.38951 0.0
C638 C 0.93635 0.96703 0.38961 0.0
C639 C 0.93965 0.93504 0.39268 0.0
C640 C 0.95285 0.98401 0.41194 0.0
C641 C 0.96039 0.92017 0.41765 0.0
C642 C 0.97677 0.93689 0.44009 0.0
C643 C 0.98803 0.98577 0.46142 0.0
C644 C 0.98376 1.01772 0.45922 0.0
C645 C 0.97282 0.96881 0.43783 0.0
C646 C 0.96473 0.03264 0.43266 0.0
C647 C 0.94927 1.01593 0.40932 0.0
H648 H 0.49642 0.64622 0.70759 0.0
H649 H 0.4012 0.63065 0.68847 0.0
H650 H 0.41811 0.59456 0.6441 0.0
H651 H 0.4599 0.56943 0.60806 0.0
H652 H 0.5547 0.5878 0.6254 0.0
H653 H 0.53785 0.6211 0.67231 0.0
C654 C 0.4793 0.63508 0.69365 0.0
C655 C 0.44758 0.64129 0.70152 0.0
C656 C 0.48907 0.61499 0.66739 0.0
C657 C 0.42583 0.62606 0.68353 0.0
C658 C 0.43545 0.60559 0.6578 0.0
C659 C 0.47685 0.58065 0.62218 0.0
C660 C 0.50848 0.5762 0.61293 0.0
C661 C 0.467 0.60017 0.64914 0.0
C662 C 0.53014 0.59095 0.63159 0.0
C663 C 0.52058 0.60999 0.6586 0.0
H664 H 0.9263 0.97362 0.72402 0.0
H665 H 0.97687 0.88587 0.71205 0.0
H666 H 1.0052 0.90676 0.66157 0.0
H667 H 1.01629 0.95009 0.62021 0.0
H668 H 0.96831 0.03846 0.63495 0.0
H669 H 0.93923 1.01732 0.68491 0.0
C670 C 0.94376 0.95899 0.71084 0.0
C671 C 0.94877 0.92787 0.72214 0.0
C672 C 0.96079 0.97136 0.68202 0.0
C673 C 0.9715 0.90961 0.70386 0.0
C674 C 0.98811 0.92165 0.67496 0.0
C675 C 0.9995 0.96475 0.63435 0.0
C676 C 0.99461 0.99592 0.62351 0.0
C677 C 0.98293 0.95248 0.66364 0.0
C678 C 0.97281 1.01446 0.64253 0.0
C679 C 0.95601 1.00235 0.67119 0.0
H680 H 0.63152 0.17032 0.11999 0.0
H681 H 0.62995 0.11177 0.21551 0.0
H682 H 0.61057 0.07186 0.18236 0.0
H683 H 0.59277 0.05388 0.12673 0.0
H684 H 0.59144 0.11305 1.03174 0.0
H685 H 0.61297 0.15249 0.06422 0.0
C686 C 0.62665 0.14895 0.13362 0.0
C687 C 0.63241 0.14405 0.17017 0.0
C688 C 0.61502 0.12616 0.11449 0.0
C689 C 0.62631 0.11602 0.18729 0.0
C690 C 0.61504 0.09319 0.1684 0.0
C691 C 0.59752 0.07528 0.11306 0.0
C692 C 0.59061 0.08056 0.07692 0.0
C693 C 0.60933 0.098 0.13203 0.0
C694 C 0.59644 0.10855 0.05964 0.0
C695 C 0.60876 0.13109 0.07818 0.0
H696 H 0.39949 0.56687 0.38908 0.0
H697 H 0.42129 0.66053 0.37996 0.0
H698 H 0.46347 0.64884 0.42194 0.0
H699 H 0.49648 0.61124 0.45866 0.0
H700 H 0.47606 0.51722 0.4649 0.0
H701 H 0.43145 0.52975 0.42652 0.0
C702 C 0.41351 0.58473 0.39616 0.0
C703 C 0.40711 0.61451 0.38127 0.0
C704 C 0.43822 0.57775 0.41972 0.0
C705 C 0.42527 0.63746 0.39133 0.0
C706 C 0.44964 0.63076 0.41515 0.0
C707 C 0.48208 0.59362 0.45176 0.0
C708 C 0.4896 0.56338 0.46438 0.0
C709 C 0.45662 0.6009 0.42917 0.0
C710 C 0.47083 0.54068 0.45529 0.0
C711 C 0.4453 0.54781 0.43335 0.0
H712 H 0.21664 0.31454 0.94478 0.0
H713 H 0.14655 0.32156 0.86367 0.0
H714 H 0.13065 0.37334 0.87837 0.0
H715 H 0.13858 0.41791 0.91094 0.0
H716 H 0.21035 0.41322 0.9895 0.0
H717 H 0.22396 0.35948 0.97859 0.0
C718 C 0.19788 0.32734 0.9303 0.0
C719 C 0.18291 0.3138 0.90314 0.0
C720 C 0.18948 0.35779 0.93793 0.0
C721 C 0.15821 0.33079 0.88523 0.0
C722 C 0.14933 0.36073 0.89321 0.0
C723 C 0.15757 0.40531 0.9253 0.0
C724 C 0.17387 0.41973 0.95042 0.0
C725 C 0.16525 0.37464 0.91887 0.0
C726 C 0.19761 0.40271 0.96978 0.0
C727 C 0.20535 0.37199 0.96359 0.0
H728 H 0.7299 0.94454 0.97595 0.0
H729 H 0.69545 0.90154 0.88674 0.0
H730 H 0.64289 0.92372 0.89918 0.0
H731 H 0.60639 0.95629 0.9347 0.0
H732 H 0.6399 0.99719 1.02591 0.0
H733 H 0.69263 0.97497 1.01363 0.0
C734 C 0.71087 0.94006 0.95925 0.0
C735 C 0.71682 0.92138 0.93031 0.0
C736 C 0.68034 0.95255 0.96699 0.0
C737 C 0.69169 0.9156 0.90926 0.0
C738 C 0.66155 0.92839 0.91631 0.0
C739 C 0.62521 0.96022 0.952 0.0
C740 C 0.61907 0.97859 0.98112 0.0
C741 C 0.65554 0.94699 0.94503 0.0
C742 C 0.64381 0.98318 1.00336 0.0
C743 C 0.67408 0.97053 0.99625 0.0
H744 H 0.86075 0.24425 0.35996 0.0
H745 H 0.79228 0.19288 0.41442 0.0
H746 H 0.82814 0.17854 0.46282 0.0
H747 H 0.87966 0.17777 0.48777 0.0
H748 H 0.94952 0.22727 0.43348 0.0
H749 H 0.91233 0.24553 0.38702 0.0
C750 C 0.85373 0.23012 0.3826 0.0
C751 C 0.82415 0.21924 0.38344 0.0
C752 C 0.87461 0.22173 0.41031 0.0
C753 C 0.81521 0.20096 0.41286 0.0
C754 C 0.83558 0.19293 0.44064 0.0
C755 C 0.88655 0.19318 0.46625 0.0
C756 C 0.91714 0.20141 0.46416 0.0
C757 C 0.86542 0.20284 0.43942 0.0
C758 C 0.92601 0.22071 0.4356 0.0
C759 C 0.90482 0.23103 0.40904 0.0
H760 H 0.15808 0.61693 0.1746 0.0
H761 H 0.22053 0.55333 0.11997 0.0
H762 H 0.17646 0.53339 0.09192 0.0
H763 H 0.11989 0.53354 0.08393 0.0
H764 H 0.058 0.59838 0.13771 0.0
H765 H 0.10208 0.61825 0.16519 0.0
C766 C 0.162 0.59855 0.15675 0.0
C767 C 0.19243 0.58641 0.1496 0.0
C768 C 0.13665 0.58746 0.14055 0.0
C769 C 0.19727 0.56305 0.12584 0.0
C770 C 0.1721 0.55161 0.10988 0.0
C771 C 0.11613 0.55212 0.10152 0.0
C772 C 0.08575 0.56441 0.10889 0.0
C773 C 0.14166 0.5636 0.11712 0.0
C774 C 0.08117 0.58849 0.13167 0.0
C775 C 0.10635 0.59985 0.14745 0.0
H776 H 0.33242 0.33541 0.71156 0.0
H777 H 0.34041 0.27523 0.62523 0.0
H778 H 0.37005 0.31147 0.59048 0.0
H779 H 0.39214 0.36098 0.58414 0.0
H780 H 0.38321 0.42129 0.67037 0.0
H781 H 0.35527 0.38423 0.70576 0.0
C782 C 0.34052 0.3303 0.68505 0.0
C783 C 0.33401 0.30285 0.67081 0.0
C784 C 0.35724 0.35126 0.66526 0.0
C785 C 0.34526 0.29616 0.63679 0.0
C786 C 0.36201 0.31694 0.61687 0.0
C787 C 0.38388 0.36606 0.6106 0.0
C788 C 0.3895 0.39389 0.62458 0.0
C789 C 0.36784 0.34468 0.63073 0.0
C790 C 0.37927 0.39995 0.65914 0.0
C791 C 0.36323 0.37884 0.6793 0.0
H792 H 0.91801 0.70634 0.98853 0.0
H793 H 0.98553 0.71694 0.90441 0.0
H794 H 1.01505 0.67008 0.92599 0.0
H795 H 1.02151 0.62484 0.96817 0.0
H796 H 0.95403 0.61497 0.05247 0.0
H797 H 0.92548 0.66252 1.03189 0.0
C798 C 0.93935 0.69868 0.97506 0.0
C799 C 0.94911 0.71539 0.94451 0.0
C800 C 0.9565 0.67155 0.98775 0.0
C801 C 0.97682 0.70453 0.92747 0.0
C802 C 0.99398 0.67769 0.93998 0.0
C803 C 1.00071 0.6332 0.98221 0.0
C804 C 0.99003 0.61594 1.01182 0.0
C805 C 0.98399 0.6608 0.96998 0.0
C806 C 0.96285 0.62735 1.02945 0.0
C807 C 0.94639 0.65471 1.01768 0.0
H808 H 0.41488 0.76106 0.13223 0.0
H809 H 0.3472 0.82766 0.17448 0.0
H810 H 0.38187 0.86762 0.16108 0.0
H811 H 0.4326 0.88302 0.14059 0.0
H812 H 0.50009 0.81663 0.09788 0.0
H813 H 0.46406 0.7772 0.10767 0.0
C814 C 0.4074 0.78443 0.13778 0.0
C815 C 0.37856 0.79133 0.15452 0.0
C816 C 0.42751 0.80724 0.13018 0.0
C817 C 0.36945 0.82168 0.16201 0.0
C818 C 0.38924 0.84454 0.15434 0.0
C819 C 0.43937 0.85988 0.13349 0.0
C820 C 0.46901 0.85258 0.11895 0.0
C821 C 0.41857 0.83744 0.13914 0.0
C822 C 0.47735 0.82273 0.10914 0.0
C823 C 0.45682 0.80021 0.1148 0.0
H824 H 0.13801 0.13788 0.66897 0.0
H825 H 0.18159 0.05607 0.7211 0.0
H826 H 0.15466 0.02495 0.68183 0.0
H827 H 0.11948 0.02135 0.63176 0.0
H828 H 0.07915 0.10364 0.57733 0.0
H829 H 0.10375 0.13435 0.61859 0.0
C830 C 0.1413 0.11322 0.6719 0.0
C831 C 0.16141 0.09917 0.69797 0.0
C832 C 0.12635 0.09566 0.64884 0.0
C833 C 0.16612 0.06726 0.70116 0.0
C834 C 0.15074 0.04954 0.67878 0.0
C835 C 0.11602 0.046 0.62908 0.0
C836 C 0.09731 0.06027 0.60179 0.0
C837 C 0.13093 0.06352 0.65238 0.0
C838 C 0.09322 0.09219 0.59833 0.0
C839 C 0.10736 0.10974 0.62184 0.0
H840 H 0.64426 0.37463 0.39717 0.0
H841 H 0.55623 0.37144 0.34637 0.0
H842 H 0.53322 0.41208 0.3828 0.0
H843 H 0.538 0.44692 0.43086 0.0
H844 H 0.62675 0.44975 0.48072 0.0
H845 H 0.64963 0.41062 0.44294 0.0
C846 C 0.61999 0.3828 0.39417 0.0
C847 C 0.60179 0.36989 0.36956 0.0
C848 C 0.6071 0.40596 0.41508 0.0
C849 C 0.57062 0.38109 0.36523 0.0
C850 C 0.55749 0.40417 0.38613 0.0
C851 C 0.56235 0.439 0.4334 0.0
C852 C 0.58059 0.45111 0.45873 0.0
C853 C 0.57546 0.41653 0.41143 0.0
C854 C 0.61218 0.44083 0.46147 0.0
C855 C 0.62529 0.41841 0.43992 0.0
loop_
_geom_bond_atom_site_label_1
_geom_bond_atom_site_label_2
_geom_bond_distance
_geom_bond_site_symmetry_2
_ccdc_geom_bond_type
C0 C1 1.386 . S
C0 C2 1.397 . S
C0 H24 0.931 . S
C1 C0 1.386 . S
C1 C5 1.397 . S
C2 C0 1.397 . S
C2 C3 1.384 . S
C2 H25 0.930 . S
C3 C2 1.384 . S
C3 C4 1.377 . S
C3 C6 1.481 . S
C4 C3 1.377 . S
C4 C5 1.389 . S
C4 H26 0.929 . S
C5 C1 1.397 . S
C5 C4 1.389 . S
C5 H27 0.931 . S
C6 C3 1.481 . S
C6 C7 1.387 . S
C6 C11 1.390 . S
C7 C6 1.387 . S
C7 C8 1.401 . S
C7 H28 0.930 . S
C8 C7 1.401 . S
C8 C9 1.376 . S
C8 C17 1.511 . S
C9 C8 1.376 . S
C9 C10 1.392 . S
C9 H30 0.931 . S
C10 C9 1.392 . S
C10 C11 1.361 . S
C10 C12 1.500 . S
C11 C6 1.390 . S
C11 C10 1.361 . S
C11 H29 0.931 . S
C12 C10 1.500 . S
C12 C13 1.371 . S
C12 C14 1.365 . S
C13 C12 1.371 . S
C13 C23 1.386 . S
C13 H31 0.931 . S
C14 C12 1.365 . S
C14 C15 1.409 . S
C14 H32 0.929 . S
C15 C14 1.409 . S
C15 C16 1.380 . S
C15 H33 0.930 . S
C16 C15 1.380 . S
C16 C23 1.357 . S
C17 C8 1.511 . S
C17 C18 1.341 . S
C17 C19 1.371 . S
C18 C17 1.341 . S
C18 C22 1.394 . S
C18 H34 0.930 . S
C19 C17 1.371 . S
C19 C20 1.392 . S
C19 H35 0.931 . S
C20 C19 1.392 . S
C20 C21 1.331 . S
C20 H38 0.932 . S
C21 C20 1.331 . S
C21 C22 1.336 . S
C22 C18 1.394 . S
C22 C21 1.336 . S
C22 H37 0.929 . S
C23 C13 1.386 . S
C23 C16 1.357 . S
C23 H36 0.928 . S
H24 C0 0.931 . S
H25 C2 0.930 . S
H26 C4 0.929 . S
H27 C5 0.931 . S
H28 C7 0.930 . S
H29 C11 0.931 . S
H30 C9 0.931 . S
H31 C13 0.931 . S
H32 C14 0.929 . S
H33 C15 0.930 . S
H34 C18 0.930 . S
H35 C19 0.931 . S
H36 C23 0.928 . S
H37 C22 0.929 . S
H38 C20 0.932 . S
C39 C40 1.386 . S
C39 C41 1.397 . S
C39 H63 0.931 . S
C40 C39 1.386 . S
C40 C44 1.397 . S
C41 C39 1.397 . S
C41 C42 1.384 . S
C41 H64 0.930 . S
C42 C41 1.384 . S
C42 C43 1.377 . S
C42 C45 1.481 . S
C43 C42 1.377 . S
C43 C44 1.389 . S
C43 H65 0.929 . S
C44 C40 1.397 . S
C44 C43 1.389 . S
C44 H66 0.931 . S
C45 C42 1.481 . S
C45 C46 1.387 . S
C45 C50 1.390 . S
C46 C45 1.387 . S
C46 C47 1.401 . S
C46 H67 0.930 . S
C47 C46 1.401 . S
C47 C48 1.376 . S
C47 C56 1.511 . S
C48 C47 1.376 . S
C48 C49 1.392 . S
C48 H69 0.931 . S
C49 C48 1.392 . S
C49 C50 1.361 . S
C49 C51 1.500 . S
C50 C45 1.390 . S
C50 C49 1.361 . S
C50 H68 0.931 . S
C51 C49 1.500 . S
C51 C52 1.371 . S
C51 C53 1.365 . S
C52 C51 1.371 . S
C52 C62 1.386 . S
C52 H70 0.931 . S
C53 C51 1.365 . S
C53 C54 1.409 . S
C53 H71 0.929 . S
C54 C53 1.409 . S
C54 C55 1.380 . S
C54 H72 0.930 . S
C55 C54 1.380 . S
C55 C62 1.357 . S
C56 C47 1.511 . S
C56 C57 1.341 . S
C56 C58 1.371 . S
C57 C56 1.341 . S
C57 C61 1.394 . S
C57 H73 0.930 . S
C58 C56 1.371 . S
C58 C59 1.392 . S
C58 H74 0.931 . S
C59 C58 1.392 . S
C59 C60 1.331 . S
C59 H77 0.932 . S
C60 C59 1.331 . S
C60 C61 1.336 . S
C61 C57 1.394 . S
C61 C60 1.336 . S
C61 H76 0.929 . S
C62 C52 1.386 . S
C62 C55 1.357 . S
C62 H75 0.928 . S
H63 C39 0.931 . S
H64 C41 0.930 . S
H65 C43 0.929 . S
H66 C44 0.931 . S
H67 C46 0.930 . S
H68 C50 0.931 . S
H69 C48 0.931 . S
H70 C52 0.931 . S
H71 C53 0.929 . S
H72 C54 0.930 . S
H73 C57 0.930 . S
H74 C58 0.931 . S
H75 C62 0.928 . S
H76 C61 0.929 . S
H77 C59 0.932 . S
C78 C79 1.386 . S
C78 C80 1.397 . S
C78 H102 0.931 . S
C79 C78 1.386 . S
C79 C83 1.397 . S
C80 C78 1.397 . S
C80 C81 1.384 . S
C80 H103 0.930 . S
C81 C80 1.384 . S
C81 C82 1.377 . S
C81 C84 1.481 . S
C82 C81 1.377 . S
C82 C83 1.389 . S
C82 H104 0.929 . S
C83 C79 1.397 . S
C83 C82 1.389 . S
C83 H105 0.931 . S
C84 C81 1.481 . S
C84 C85 1.387 . S
C84 C89 1.390 . S
C85 C84 1.387 . S
C85 C86 1.401 . S
C85 H106 0.930 . S
C86 C85 1.401 . S
C86 C87 1.376 . S
C86 C95 1.511 . S
C87 C86 1.376 . S
C87 C88 1.392 . S
C87 H108 0.931 . S
C88 C87 1.392 . S
C88 C89 1.361 . S
C88 C90 1.500 . S
C89 C84 1.390 . S
C89 C88 1.361 . S
C89 H107 0.931 . S
C90 C88 1.500 . S
C90 C91 1.371 . S
C90 C92 1.365 . S
C91 C90 1.371 . S
C91 C101 1.386 . S
C91 H109 0.931 . S
C92 C90 1.365 . S
C92 C93 1.409 . S
C92 H110 0.929 . S
C93 C92 1.409 . S
C93 C94 1.380 . S
C93 H111 0.930 . S
C94 C93 1.380 . S
C94 C101 1.357 . S
C95 C86 1.511 . S
C95 C96 1.341 . S
C95 C97 1.371 . S
C96 C95 1.341 . S
C96 C100 1.394 . S
C96 H112 0.930 . S
C97 C95 1.371 . S
C97 C98 1.392 . S
C97 H113 0.931 . S
C98 C97 1.392 . S
C98 C99 1.331 . S
C98 H116 0.932 . S
C99 C98 1.331 . S
C99 C100 1.336 . S
C100 C96 1.394 . S
C100 C99 1.336 . S
C100 H115 0.929 . S
C101 C91 1.386 . S
C101 C94 1.357 . S
C101 H114 0.928 . S
H102 C78 0.931 . S
H103 C80 0.930 . S
H104 C82 0.929 . S
H105 C83 0.931 . S
H106 C85 0.930 . S
H107 C89 0.931 . S
H108 C87 0.931 . S
H109 C91 0.931 . S
H110 C92 0.929 . S
H111 C93 0.930 . S
H112 C96 0.930 . S
H113 C97 0.931 . S
H114 C101 0.928 . S
H115 C100 0.929 . S
H116 C98 0.932 . S
C117 C118 1.386 . S
C117 C119 1.397 . S
C117 H141 0.931 . S
C118 C117 1.386 . S
C118 C122 1.397 . S
C119 C117 1.397 . S
C119 C120 1.384 . S
C119 H142 0.930 . S
C120 C119 1.384 . S
C120 C121 1.377 . S
C120 C123 1.481 . S
C121 C120 1.377 . S
C121 C122 1.389 . S
C121 H143 0.929 . S
C122 C118 1.397 . S
C122 C121 1.389 . S
C122 H144 0.931 . S
C123 C120 1.481 . S
C123 C124 1.387 . S
C123 C128 1.390 . S
C124 C123 1.387 . S
C124 C125 1.401 . S
C124 H145 0.930 . S
C125 C124 1.401 . S
C125 C126 1.376 . S
C125 C134 1.511 . S
C126 C125 1.376 . S
C126 C127 1.392 . S
C126 H147 0.931 . S
C127 C126 1.392 . S
C127 C128 1.361 . S
C127 C129 1.500 . S
C128 C123 1.390 . S
C128 C127 1.361 . S
C128 H146 0.931 . S
C129 C127 1.500 . S
C129 C130 1.371 . S
C129 C131 1.365 . S
C130 C129 1.371 . S
C130 C140 1.386 . S
C130 H148 0.931 . S
C131 C129 1.365 . S
C131 C132 1.409 . S
C131 H149 0.929 . S
C132 C131 1.409 . S
C132 C133 1.380 . S
C132 H150 0.930 . S
C133 C132 1.380 . S
C133 C140 1.357 . S
C134 C125 1.511 . S
C134 C135 1.341 . S
C134 C136 1.371 . S
C135 C134 1.341 . S
C135 C139 1.394 . S
C135 H151 0.930 . S
C136 C134 1.371 . S
C136 C137 1.392 . S
C136 H152 0.931 . S
C137 C136 1.392 . S
C137 C138 1.331 . S
C137 H155 0.932 . S
C138 C137 1.331 . S
C138 C139 1.336 . S
C139 C135 1.394 . S
C139 C138 1.336 . S
C139 H154 0.929 . S
C140 C130 1.386 . S
C140 C133 1.357 . S
C140 H153 0.928 . S
H141 C117 0.931 . S
H142 C119 0.930 . S
H143 C121 0.929 . S
H144 C122 0.931 . S
H145 C124 0.930 . S
H146 C128 0.931 . S
H147 C126 0.931 . S
H148 C130 0.931 . S
H149 C131 0.929 . S
H150 C132 0.930 . S
H151 C135 0.930 . S
H152 C136 0.931 . S
H153 C140 0.928 . S
H154 C139 0.929 . S
H155 C137 0.932 . S
C156 C157 1.386 . S
C156 C158 1.397 . S
C156 H180 0.931 . S
C157 C156 1.386 . S
C157 C161 1.397 . S
C158 C156 1.397 . S
C158 C159 1.384 . S
C158 H181 0.930 . S
C159 C158 1.384 . S
C159 C160 1.377 . S
C159 C162 1.481 . S
C160 C159 1.377 . S
C160 C161 1.389 . S
C160 H182 0.929 . S
C161 C157 1.397 . S
C161 C160 1.389 . S
C161 H183 0.931 . S
C162 C159 1.481 . S
C162 C163 1.387 . S
C162 C167 1.390 . S
C163 C162 1.387 . S
C163 C164 1.401 . S
C163 H184 0.930 . S
C164 C163 1.401 . S
C164 C165 1.376 . S
C164 C173 1.511 . S
C165 C164 1.376 . S
C165 C166 1.392 . S
C165 H186 0.931 . S
C166 C165 1.392 . S
C166 C167 1.361 . S
C166 C168 1.500 . S
C167 C162 1.390 . S
C167 C166 1.361 . S
C167 H185 0.931 . S
C168 C166 1.500 . S
C168 C169 1.371 . S
C168 C170 1.365 . S
C169 C168 1.371 . S
C169 C179 1.386 . S
C169 H187 0.931 . S
C170 C168 1.365 . S
C170 C171 1.409 . S
C170 H188 0.929 . S
C171 C170 1.409 . S
C171 C172 1.380 . S
C171 H189 0.930 . S
C172 C171 1.380 . S
C172 C179 1.357 . S
C173 C164 1.511 . S
C173 C174 1.341 . S
C173 C175 1.371 . S
C174 C173 1.341 . S
C174 C178 1.394 . S
C174 H190 0.930 . S
C175 C173 1.371 . S
C175 C176 1.392 . S
C175 H191 0.931 . S
C176 C175 1.392 . S
C176 C177 1.331 . S
C176 H194 0.932 . S
C177 C176 1.331 . S
C177 C178 1.336 . S
C178 C174 1.394 . S
C178 C177 1.336 . S
C178 H193 0.929 . S
C179 C169 1.386 . S
C179 C172 1.357 . S
C179 H192 0.928 . S
H180 C156 0.931 . S
H181 C158 0.930 . S
H182 C160 0.929 . S
H183 C161 0.931 . S
H184 C163 0.930 . S
H185 C167 0.931 . S
H186 C165 0.931 . S
H187 C169 0.931 . S
H188 C170 0.929 . S
H189 C171 0.930 . S
H190 C174 0.930 . S
H191 C175 0.931 . S
H192 C179 0.928 . S
H193 C178 0.929 . S
H194 C176 0.932 . S
C195 C196 1.386 . S
C195 C197 1.397 . S
C195 H219 0.931 . S
C196 C195 1.386 . S
C196 C200 1.397 . S
C197 C195 1.397 . S
C197 C198 1.384 . S
C197 H220 0.930 . S
C198 C197 1.384 . S
C198 C199 1.377 . S
C198 C201 1.481 . S
C199 C198 1.377 . S
C199 C200 1.389 . S
C199 H221 0.929 . S
C200 C196 1.397 . S
C200 C199 1.389 . S
C200 H222 0.931 . S
C201 C198 1.481 . S
C201 C202 1.387 . S
C201 C206 1.390 . S
C202 C201 1.387 . S
C202 C203 1.401 . S
C202 H223 0.930 . S
C203 C202 1.401 . S
C203 C204 1.376 . S
C203 C212 1.511 . S
C204 C203 1.376 . S
C204 C205 1.392 . S
C204 H225 0.931 . S
C205 C204 1.392 . S
C205 C206 1.361 . S
C205 C207 1.500 . S
C206 C201 1.390 . S
C206 C205 1.361 . S
C206 H224 0.931 . S
C207 C205 1.500 . S
C207 C208 1.371 . S
C207 C209 1.365 . S
C208 C207 1.371 . S
C208 C218 1.386 . S
C208 H226 0.931 . S
C209 C207 1.365 . S
C209 C210 1.409 . S
C209 H227 0.929 . S
C210 C209 1.409 . S
C210 C211 1.380 . S
C210 H228 0.930 . S
C211 C210 1.380 . S
C211 C218 1.357 . S
C212 C203 1.511 . S
C212 C213 1.341 . S
C212 C214 1.371 . S
C213 C212 1.341 . S
C213 C217 1.394 . S
C213 H229 0.930 . S
C214 C212 1.371 . S
C214 C215 1.392 . S
C214 H230 0.931 . S
C215 C214 1.392 . S
C215 C216 1.331 . S
C215 H233 0.932 . S
C216 C215 1.331 . S
C216 C217 1.336 . S
C217 C213 1.394 . S
C217 C216 1.336 . S
C217 H232 0.929 . S
C218 C208 1.386 . S
C218 C211 1.357 . S
C218 H231 0.928 . S
H219 C195 0.931 . S
H220 C197 0.930 . S
H221 C199 0.929 . S
H222 C200 0.931 . S
H223 C202 0.930 . S
H224 C206 0.931 . S
H225 C204 0.931 . S
H226 C208 0.931 . S
H227 C209 0.929 . S
H228 C210 0.930 . S
H229 C213 0.930 . S
H230 C214 0.931 . S
H231 C218 0.928 . S
H232 C217 0.929 . S
H233 C215 0.932 . S
C234 C235 1.386 . S
C234 C236 1.397 . S
C234 H258 0.931 . S
C235 C234 1.386 . S
C235 C239 1.397 . S
C236 C234 1.397 . S
C236 C237 1.384 . S
C236 H259 0.930 . S
C237 C236 1.384 . S
C237 C238 1.377 . S
C237 C240 1.481 . S
C238 C237 1.377 . S
C238 C239 1.389 . S
C238 H260 0.929 . S
C239 C235 1.397 . S
C239 C238 1.389 . S
C239 H261 0.931 . S
C240 C237 1.481 . S
C240 C241 1.387 . S
C240 C245 1.390 . S
C241 C240 1.387 . S
C241 C242 1.401 . S
C241 H262 0.930 . S
C242 C241 1.401 . S
C242 C243 1.376 . S
C242 C251 1.511 . S
C243 C242 1.376 . S
C243 C244 1.392 . S
C243 H264 0.931 . S
C244 C243 1.392 . S
C244 C245 1.361 . S
C244 C246 1.500 . S
C245 C240 1.390 . S
C245 C244 1.361 . S
C245 H263 0.931 . S
C246 C244 1.500 . S
C246 C247 1.371 . S
C246 C248 1.365 . S
C247 C246 1.371 . S
C247 C257 1.386 . S
C247 H265 0.931 . S
C248 C246 1.365 . S
C248 C249 1.409 . S
C248 H266 0.929 . S
C249 C248 1.409 . S
C249 C250 1.380 . S
C249 H267 0.930 . S
C250 C249 1.380 . S
C250 C257 1.357 . S
C251 C242 1.511 . S
C251 C252 1.341 . S
C251 C253 1.371 . S
C252 C251 1.341 . S
C252 C256 1.394 . S
C252 H268 0.930 . S
C253 C251 1.371 . S
C253 C254 1.392 . S
C253 H269 0.931 . S
C254 C253 1.392 . S
C254 C255 1.331 . S
C254 H272 0.932 . S
C255 C254 1.331 . S
C255 C256 1.336 . S
C256 C252 1.394 . S
C256 C255 1.336 . S
C256 H271 0.929 . S
C257 C247 1.386 . S
C257 C250 1.357 . S
C257 H270 0.928 . S
H258 C234 0.931 . S
H259 C236 0.930 . S
H260 C238 0.929 . S
H261 C239 0.931 . S
H262 C241 0.930 . S
H263 C245 0.931 . S
H264 C243 0.931 . S
H265 C247 0.931 . S
H266 C248 0.929 . S
H267 C249 0.930 . S
H268 C252 0.930 . S
H269 C253 0.931 . S
H270 C257 0.928 . S
H271 C256 0.929 . S
H272 C254 0.932 . S
C273 C274 1.386 . S
C273 C275 1.397 . S
C273 H297 0.931 . S
C274 C273 1.386 . S
C274 C278 1.397 . S
C275 C273 1.397 . S
C275 C276 1.384 . S
C275 H298 0.930 . S
C276 C275 1.384 . S
C276 C277 1.377 . S
C276 C279 1.481 . S
C277 C276 1.377 . S
C277 C278 1.389 . S
C277 H299 0.929 . S
C278 C274 1.397 . S
C278 C277 1.389 . S
C278 H300 0.931 . S
C279 C276 1.481 . S
C279 C280 1.387 . S
C279 C284 1.390 . S
C280 C279 1.387 . S
C280 C281 1.401 . S
C280 H301 0.930 . S
C281 C280 1.401 . S
C281 C282 1.376 . S
C281 C290 1.511 . S
C282 C281 1.376 . S
C282 C283 1.392 . S
C282 H303 0.931 . S
C283 C282 1.392 . S
C283 C284 1.361 . S
C283 C285 1.500 . S
C284 C279 1.390 . S
C284 C283 1.361 . S
C284 H302 0.931 . S
C285 C283 1.500 . S
C285 C286 1.371 . S
C285 C287 1.365 . S
C286 C285 1.371 . S
C286 C296 1.386 . S
C286 H304 0.931 . S
C287 C285 1.365 . S
C287 C288 1.409 . S
C287 H305 0.929 . S
C288 C287 1.409 . S
C288 C289 1.380 . S
C288 H306 0.930 . S
C289 C288 1.380 . S
C289 C296 1.357 . S
C290 C281 1.511 . S
C290 C291 1.341 . S
C290 C292 1.371 . S
C291 C290 1.341 . S
C291 C295 1.394 . S
C291 H307 0.930 . S
C292 C290 1.371 . S
C292 C293 1.392 . S
C292 H308 0.931 . S
C293 C292 1.392 . S
C293 C294 1.331 . S
C293 H311 0.932 . S
C294 C293 1.331 . S
C294 C295 1.336 . S
C295 C291 1.394 . S
C295 C294 1.336 . S
C295 H310 0.929 . S
C296 C286 1.386 . S
C296 C289 1.357 . S
C296 H309 0.928 . S
H297 C273 0.931 . S
H298 C275 0.930 . S
H299 C277 0.929 . S
H300 C278 0.931 . S
H301 C280 0.930 . S
H302 C284 0.931 . S
H303 C282 0.931 . S
H304 C286 0.931 . S
H305 C287 0.929 . S
H306 C288 0.930 . S
H307 C291 0.930 . S
H308 C292 0.931 . S
H309 C296 0.928 . S
H310 C295 0.929 . S
H311 C293 0.932 . S
Nd312 C314 2.836 . S
Nd312 O332 2.500 . S
Nd312 O333 2.492 . S
Nd312 O334 2.487 1_565 S
Nd312 O335 2.682 1_565 S
Nd312 O336 2.410 . S
Nd312 O341 2.414 1_455 S
Nd312 O343 2.424 1_565 S
Nd313 C323 2.836 . S
Nd313 O335 2.414 1_655 S
Nd313 O337 2.424 1_545 S
Nd313 O338 2.500 . S
Nd313 O339 2.492 . S
Nd313 O340 2.487 1_545 S
Nd313 O341 2.682 1_545 S
Nd313 O342 2.410 . S
C314 Nd312 2.836 . S
C314 C315 1.498 . S
C314 O332 1.258 . S
C314 O333 1.239 . S
C315 C314 1.498 . S
C315 C316 1.366 . S
C315 C320 1.407 . S
C316 C315 1.366 . S
C316 C317 1.392 . S
C316 H344 0.930 . S
C317 C316 1.392 . S
C317 C318 1.398 . S
C317 H345 0.929 . S
C318 C317 1.398 . S
C318 C319 1.352 . S
C319 C318 1.352 . S
C319 C320 1.384 . S
C319 H346 0.930 . S
C320 C315 1.407 . S
C320 C319 1.384 . S
C320 H347 0.929 . S
C321 O334 1.241 . S
C321 O335 1.273 . S
C322 O336 1.251 1_655 S
C322 O337 1.268 . S
C323 Nd313 2.836 . S
C323 C324 1.498 . S
C323 O338 1.258 . S
C323 O339 1.239 . S
C324 C323 1.498 . S
C324 C325 1.366 . S
C324 C329 1.407 . S
C325 C324 1.366 . S
C325 C326 1.392 . S
C325 H348 0.930 . S
C326 C325 1.392 . S
C326 C327 1.398 . S
C326 H349 0.929 . S
C327 C326 1.398 . S
C327 C328 1.352 . S
C328 C327 1.352 . S
C328 C329 1.384 . S
C328 H350 0.930 . S
C329 C324 1.407 . S
C329 C328 1.384 . S
C329 H351 0.929 . S
C330 O340 1.241 . S
C330 O341 1.273 . S
C331 O342 1.251 1_455 S
C331 O343 1.268 . S
O332 Nd312 2.500 . S
O332 C314 1.258 . S
O333 Nd312 2.492 . S
O333 C314 1.239 . S
O334 Nd312 2.487 1_545 S
O334 C321 1.241 . S
O335 Nd312 2.682 1_545 S
O335 Nd313 2.414 1_455 S
O335 C321 1.273 . S
O336 Nd312 2.410 . S
O336 C322 1.251 1_455 S
O337 Nd313 2.424 1_565 S
O337 C322 1.268 . S
O338 Nd313 2.500 . S
O338 C323 1.258 . S
O339 Nd313 2.492 . S
O339 C323 1.239 . S
O340 Nd313 2.487 1_565 S
O340 C330 1.241 . S
O341 Nd312 2.414 1_655 S
O341 Nd313 2.682 1_565 S
O341 C330 1.273 . S
O342 Nd313 2.410 . S
O342 C331 1.251 1_655 S
O343 Nd312 2.424 1_545 S
O343 C331 1.268 . S
H344 C316 0.930 . S
H345 C317 0.929 . S
H346 C319 0.930 . S
H347 C320 0.929 . S
H348 C325 0.930 . S
H349 C326 0.929 . S
H350 C328 0.930 . S
H351 C329 0.929 . S
Nd352 C354 2.836 . S
Nd352 O372 2.500 . S
Nd352 O373 2.492 . S
Nd352 O374 2.487 1_565 S
Nd352 O375 2.682 1_565 S
Nd352 O376 2.410 1_554 S
Nd352 O381 2.414 1_554 S
Nd352 O383 2.424 1_565 S
Nd353 C363 2.836 . S
Nd353 O375 2.414 1_556 S
Nd353 O377 2.424 1_545 S
Nd353 O378 2.500 . S
Nd353 O379 2.492 . S
Nd353 O380 2.467 1_545 S
Nd353 O381 2.682 1_545 S
Nd353 O382 2.410 1_556 S
C354 Nd352 2.836 . S
C354 C355 1.498 . S
C354 O372 1.258 . S
C354 O373 1.239 . S
C355 C354 1.498 . S
C355 C356 1.366 . S
C355 C360 1.407 . S
C356 C355 1.366 . S
C356 C357 1.392 . S
C356 H384 0.930 . S
C357 C356 1.392 . S
C357 C358 1.398 . S
C357 H385 0.929 . S
C358 C357 1.398 . S
C358 C359 1.352 . S
C359 C358 1.352 . S
C359 C360 1.384 . S
C359 H386 0.930 . S
C360 C355 1.407 . S
C360 C359 1.384 . S
C360 H387 0.929 . S
C361 O374 1.241 . S
C361 O375 1.273 . S
C362 O376 1.251 . S
C362 O377 1.268 . S
C363 Nd353 2.836 . S
C363 C364 1.498 . S
C363 O378 1.258 . S
C363 O379 1.239 . S
C364 C363 1.498 . S
C364 C365 1.366 . S
C364 C369 1.407 . S
C365 C364 1.366 . S
C365 C366 1.392 . S
C365 H388 0.930 . S
C366 C365 1.392 . S
C366 C367 1.398 . S
C366 H389 0.929 . S
C367 C366 1.398 . S
C367 C368 1.352 . S
C368 C367 1.352 . S
C368 C369 1.384 . S
C368 H390 0.930 . S
C369 C364 1.407 . S
C369 C368 1.384 . S
C369 H391 0.929 . S
C370 O380 1.269 . S
C370 O381 1.273 . S
C371 O382 1.251 . S
C371 O383 1.268 . S
O372 Nd352 2.500 . S
O372 C354 1.258 . S
O373 Nd352 2.492 . S
O373 C354 1.239 . S
O374 Nd352 2.487 1_545 S
O374 C361 1.241 . S
O375 Nd352 2.682 1_545 S
O375 Nd353 2.414 1_554 S
O375 C361 1.273 . S
O376 Nd352 2.410 1_556 S
O376 C362 1.251 . S
O377 Nd353 2.424 1_565 S
O377 C362 1.268 . S
O378 Nd353 2.500 . S
O378 C363 1.258 . S
O379 Nd353 2.492 . S
O379 C363 1.239 . S
O380 Nd353 2.467 1_565 S
O380 C370 1.269 . S
O381 Nd352 2.414 1_556 S
O381 Nd353 2.682 1_565 S
O381 C370 1.273 . S
O382 Nd353 2.410 1_554 S
O382 C371 1.251 . S
O383 Nd352 2.424 1_545 S
O383 C371 1.268 . S
H384 C356 0.930 . S
H385 C357 0.929 . S
H386 C359 0.930 . S
H387 C360 0.929 . S
H388 C365 0.930 . S
H389 C366 0.929 . S
H390 C368 0.930 . S
H391 C369 0.929 . S
Nd392 C394 2.836 . S
Nd392 O412 2.500 . S
Nd392 O413 2.492 . S
Nd392 O414 2.487 . S
Nd392 O415 2.682 . S
Nd392 O416 2.410 . S
Nd392 O421 2.414 . S
Nd392 O423 2.424 . S
Nd393 C403 2.836 . S
Nd393 O415 2.414 . S
Nd393 O417 2.424 . S
Nd393 O418 2.500 . S
Nd393 O419 2.492 . S
Nd393 O420 2.487 . S
Nd393 O421 2.682 . S
Nd393 O422 2.410 . S
C394 Nd392 2.836 . S
C394 C395 1.498 . S
C394 O412 1.258 . S
C394 O413 1.239 . S
C395 C394 1.498 . S
C395 C396 1.366 . S
C395 C400 1.407 . S
C396 C395 1.366 . S
C396 C397 1.392 . S
C396 H424 0.930 . S
C397 C396 1.392 . S
C397 C398 1.398 . S
C397 H425 0.929 . S
C398 C397 1.398 . S
C398 C399 1.352 . S
C399 C398 1.352 . S
C399 C400 1.384 . S
C399 H426 0.930 . S
C400 C395 1.407 . S
C400 C399 1.384 . S
C400 H427 0.929 . S
C401 O414 1.241 . S
C401 O415 1.273 . S
C402 O416 1.251 . S
C402 O417 1.268 . S
C403 Nd393 2.836 . S
C403 C404 1.498 . S
C403 O418 1.258 . S
C403 O419 1.239 . S
C404 C403 1.498 . S
C404 C405 1.366 . S
C404 C409 1.407 . S
C405 C404 1.366 . S
C405 C406 1.392 . S
C405 H428 0.930 . S
C406 C405 1.392 . S
C406 C407 1.398 . S
C406 H429 0.929 . S
C407 C406 1.398 . S
C407 C408 1.352 . S
C408 C407 1.352 . S
C408 C409 1.384 . S
C408 H430 0.930 . S
C409 C404 1.407 . S
C409 C408 1.384 . S
C409 H431 0.929 . S
C410 O420 1.241 . S
C410 O421 1.273 . S
C411 O422 1.251 . S
C411 O423 1.268 . S
O412 Nd392 2.500 . S
O412 C394 1.258 . S
O413 Nd392 2.492 . S
O413 C394 1.239 . S
O414 Nd392 2.487 . S
O414 C401 1.241 . S
O415 Nd392 2.682 . S
O415 Nd393 2.414 . S
O415 C401 1.273 . S
O416 Nd392 2.410 . S
O416 C402 1.251 . S
O417 Nd393 2.424 . S
O417 C402 1.268 . S
O418 Nd393 2.500 . S
O418 C403 1.258 . S
O419 Nd393 2.492 . S
O419 C403 1.239 . S
O420 Nd393 2.487 . S
O420 C410 1.241 . S
O421 Nd392 2.414 . S
O421 Nd393 2.682 . S
O421 C410 1.273 . S
O422 Nd393 2.410 . S
O422 C411 1.251 . S
O423 Nd392 2.424 . S
O423 C411 1.268 . S
H424 C396 0.930 . S
H425 C397 0.929 . S
H426 C399 0.930 . S
H427 C400 0.929 . S
H428 C405 0.930 . S
H429 C406 0.929 . S
H430 C408 0.930 . S
H431 C409 0.929 . S
Nd432 C434 2.836 . S
Nd432 O452 2.500 . S
Nd432 O453 2.492 . S
Nd432 O454 2.487 1_655 S
Nd432 O455 2.682 1_655 S
Nd432 O456 2.410 . S
Nd432 O461 2.414 1_554 S
Nd432 O463 2.424 1_655 S
Nd433 C443 2.836 . S
Nd433 O455 2.414 1_556 S
Nd433 O457 2.424 1_455 S
Nd433 O458 2.500 . S
Nd433 O459 2.492 . S
Nd433 O460 2.487 1_455 S
Nd433 O461 2.682 1_455 S
Nd433 O462 2.410 . S
C434 Nd432 2.836 . S
C434 C435 1.498 . S
C434 O452 1.258 . S
C434 O453 1.239 . S
C435 C434 1.498 . S
C435 C436 1.366 . S
C435 C440 1.407 . S
C436 C435 1.366 . S
C436 C437 1.392 . S
C436 H464 0.930 . S
C437 C436 1.392 . S
C437 C438 1.398 . S
C437 H465 0.929 . S
C438 C437 1.398 . S
C438 C439 1.352 . S
C439 C438 1.352 . S
C439 C440 1.384 . S
C439 H466 0.930 . S
C440 C435 1.407 . S
C440 C439 1.384 . S
C440 H467 0.929 . S
C441 O454 1.241 . S
C441 O455 1.273 . S
C442 O456 1.251 1_556 S
C442 O457 1.268 . S
C443 Nd433 2.836 . S
C443 C444 1.498 . S
C443 O458 1.258 . S
C443 O459 1.239 . S
C444 C443 1.498 . S
C444 C445 1.366 . S
C444 C449 1.407 . S
C445 C444 1.366 . S
C445 C446 1.392 . S
C445 H468 0.930 . S
C446 C445 1.392 . S
C446 C447 1.398 . S
C446 H469 0.929 . S
C447 C446 1.398 . S
C447 C448 1.352 . S
C448 C447 1.352 . S
C448 C449 1.384 . S
C448 H470 0.930 . S
C449 C444 1.407 . S
C449 C448 1.384 . S
C449 H471 0.929 . S
C450 O460 1.241 . S
C450 O461 1.273 . S
C451 O462 1.251 1_554 S
C451 O463 1.268 . S
O452 Nd432 2.500 . S
O452 C434 1.258 . S
O453 Nd432 2.492 . S
O453 C434 1.239 . S
O454 Nd432 2.487 1_455 S
O454 C441 1.241 . S
O455 Nd432 2.682 1_455 S
O455 Nd433 2.414 1_554 S
O455 C441 1.273 . S
O456 Nd432 2.410 . S
O456 C442 1.251 1_554 S
O457 Nd433 2.424 1_655 S
O457 C442 1.268 . S
O458 Nd433 2.500 . S
O458 C443 1.258 . S
O459 Nd433 2.492 . S
O459 C443 1.239 . S
O460 Nd433 2.487 1_655 S
O460 C450 1.241 . S
O461 Nd432 2.414 1_556 S
O461 Nd433 2.682 1_655 S
O461 C450 1.273 . S
O462 Nd433 2.410 . S
O462 C451 1.251 1_556 S
O463 Nd432 2.424 1_455 S
O463 C451 1.268 . S
H464 C436 0.930 . S
H465 C437 0.929 . S
H466 C439 0.930 . S
H467 C440 0.929 . S
H468 C445 0.930 . S
H469 C446 0.929 . S
H470 C448 0.930 . S
H471 C449 0.929 . S
H472 C478 0.930 . S
H473 C481 0.930 . S
H474 C482 0.930 . S
H475 C483 0.930 . S
H476 C486 0.930 . S
H477 C487 0.930 . S
C478 H472 0.930 . S
C478 C479 1.355 . S
C478 C480 1.415 . S
C479 C478 1.355 . S
C479 C481 1.419 . S
C480 C478 1.415 . S
C480 C485 1.425 . S
C480 C487 1.409 . S
C481 H473 0.930 . S
C481 C479 1.419 . S
C481 C482 1.362 . S
C482 H474 0.930 . S
C482 C481 1.362 . S
C482 C485 1.409 . S
C483 H475 0.930 . S
C483 C484 1.355 . S
C483 C485 1.415 . S
C484 C483 1.355 . S
C484 C486 1.419 . S
C485 C480 1.425 . S
C485 C482 1.409 . S
C485 C483 1.415 . S
C486 H476 0.930 . S
C486 C484 1.419 . S
C486 C487 1.362 . S
C487 H477 0.930 . S
C487 C480 1.409 . S
C487 C486 1.362 . S
H488 C494 0.930 . S
H489 C497 0.930 . S
H490 C498 0.930 . S
H491 C499 0.930 . S
H492 C502 0.930 . S
H493 C503 0.930 . S
C494 H488 0.930 . S
C494 C495 1.355 . S
C494 C496 1.415 . S
C495 C494 1.355 . S
C495 C497 1.419 . S
C496 C494 1.415 . S
C496 C501 1.425 . S
C496 C503 1.409 . S
C497 H489 0.930 . S
C497 C495 1.419 . S
C497 C498 1.362 . S
C498 H490 0.930 . S
C498 C497 1.362 . S
C498 C501 1.409 . S
C499 H491 0.930 . S
C499 C500 1.355 . S
C499 C501 1.415 . S
C500 C499 1.355 . S
C500 C502 1.419 . S
C501 C496 1.425 . S
C501 C498 1.409 . S
C501 C499 1.415 . S
C502 H492 0.930 . S
C502 C500 1.419 . S
C502 C503 1.362 . S
C503 H493 0.930 . S
C503 C496 1.409 . S
C503 C502 1.362 . S
H504 C510 0.930 . S
H505 C513 0.930 . S
H506 C514 0.930 . S
H507 C515 0.930 . S
H508 C518 0.930 . S
H509 C519 0.930 . S
C510 H504 0.930 . S
C510 C511 1.355 . S
C510 C512 1.415 . S
C511 C510 1.355 . S
C511 C513 1.419 . S
C512 C510 1.415 . S
C512 C517 1.425 . S
C512 C519 1.409 . S
C513 H505 0.930 . S
C513 C511 1.419 . S
C513 C514 1.362 . S
C514 H506 0.930 . S
C514 C513 1.362 . S
C514 C517 1.409 . S
C515 H507 0.930 . S
C515 C516 1.355 . S
C515 C517 1.415 . S
C516 C515 1.355 . S
C516 C518 1.419 . S
C517 C512 1.425 . S
C517 C514 1.409 . S
C517 C515 1.415 . S
C518 H508 0.930 . S
C518 C516 1.419 . S
C518 C519 1.362 . S
C519 H509 0.930 . S
C519 C512 1.409 . S
C519 C518 1.362 . S
H520 C526 0.930 . S
H521 C529 0.930 . S
H522 C530 0.930 . S
H523 C531 0.930 . S
H524 C534 0.930 . S
H525 C535 0.930 . S
C526 H520 0.930 . S
C526 C527 1.355 . S
C526 C528 1.415 . S
C527 C526 1.355 . S
C527 C529 1.419 . S
C528 C526 1.415 . S
C528 C533 1.425 . S
C528 C535 1.409 . S
C529 H521 0.930 . S
C529 C527 1.419 . S
C529 C530 1.362 . S
C530 H522 0.930 . S
C530 C529 1.362 . S
C530 C533 1.409 . S
C531 H523 0.930 . S
C531 C532 1.355 . S
C531 C533 1.415 . S
C532 C531 1.355 . S
C532 C534 1.419 . S
C533 C528 1.425 . S
C533 C530 1.409 . S
C533 C531 1.415 . S
C534 H524 0.930 . S
C534 C532 1.419 . S
C534 C535 1.362 . S
C535 H525 0.930 . S
C535 C528 1.409 . S
C535 C534 1.362 . S
H536 C542 0.930 . S
H537 C545 0.930 . S
H538 C546 0.930 1_556 S
H539 C547 0.930 . S
H540 C550 0.930 . S
H541 C551 0.930 . S
C542 H536 0.930 . S
C542 C543 1.355 . S
C542 C544 1.415 . S
C543 C542 1.355 . S
C543 C545 1.419 . S
C544 C542 1.415 . S
C544 C549 1.425 . S
C544 C551 1.409 . S
C545 H537 0.930 . S
C545 C543 1.419 . S
C545 C546 1.362 . S
C546 H538 0.930 1_554 S
C546 C545 1.362 . S
C546 C549 1.409 . S
C547 H539 0.930 . S
C547 C548 1.355 . S
C547 C549 1.415 . S
C548 C547 1.355 . S
C548 C550 1.419 . S
C549 C544 1.425 . S
C549 C546 1.409 . S
C549 C547 1.415 . S
C550 H540 0.930 . S
C550 C548 1.419 . S
C550 C551 1.362 . S
C551 H541 0.930 . S
C551 C544 1.409 . S
C551 C550 1.362 . S
H552 C558 0.930 . S
H553 C561 0.930 . S
H554 C562 0.930 . S
H555 C563 0.930 . S
H556 C566 0.930 . S
H557 C567 0.930 . S
C558 H552 0.930 . S
C558 C559 1.355 . S
C558 C560 1.415 . S
C559 C558 1.355 . S
C559 C561 1.419 . S
C560 C558 1.415 . S
C560 C565 1.425 . S
C560 C567 1.409 . S
C561 H553 0.930 . S
C561 C559 1.419 . S
C561 C562 1.362 . S
C562 H554 0.930 . S
C562 C561 1.362 . S
C562 C565 1.409 . S
C563 H555 0.930 . S
C563 C564 1.355 . S
C563 C565 1.415 . S
C564 C563 1.355 . S
C564 C566 1.419 . S
C565 C560 1.425 . S
C565 C562 1.409 . S
C565 C563 1.415 . S
C566 H556 0.930 . S
C566 C564 1.419 . S
C566 C567 1.362 . S
C567 H557 0.930 . S
C567 C560 1.409 . S
C567 C566 1.362 . S
H568 C574 0.930 . S
H569 C577 0.930 . S
H570 C578 0.930 . S
H571 C579 0.930 . S
H572 C582 0.930 . S
H573 C583 0.930 . S
C574 H568 0.930 . S
C574 C575 1.355 . S
C574 C576 1.415 . S
C575 C574 1.355 . S
C575 C577 1.419 . S
C576 C574 1.415 . S
C576 C581 1.425 . S
C576 C583 1.409 . S
C577 H569 0.930 . S
C577 C575 1.419 . S
C577 C578 1.362 . S
C578 H570 0.930 . S
C578 C577 1.362 . S
C578 C581 1.409 . S
C579 H571 0.930 . S
C579 C580 1.355 . S
C579 C581 1.415 . S
C580 C579 1.355 . S
C580 C582 1.419 . S
C581 C576 1.425 . S
C581 C578 1.409 . S
C581 C579 1.415 . S
C582 H572 0.930 . S
C582 C580 1.419 . S
C582 C583 1.362 . S
C583 H573 0.930 . S
C583 C576 1.409 . S
C583 C582 1.362 . S
H584 C590 0.930 . S
H585 C593 0.930 . S
H586 C594 0.930 . S
H587 C595 0.930 . S
H588 C598 0.930 . S
H589 C599 0.930 . S
C590 H584 0.930 . S
C590 C591 1.355 . S
C590 C592 1.415 . S
C591 C590 1.355 . S
C591 C593 1.419 . S
C592 C590 1.415 . S
C592 C597 1.425 . S
C592 C599 1.409 . S
C593 H585 0.930 . S
C593 C591 1.419 . S
C593 C594 1.362 . S
C594 H586 0.930 . S
C594 C593 1.362 . S
C594 C597 1.409 . S
C595 H587 0.930 . S
C595 C596 1.355 . S
C595 C597 1.415 . S
C596 C595 1.355 . S
C596 C598 1.419 . S
C597 C592 1.425 . S
C597 C594 1.409 . S
C597 C595 1.415 . S
C598 H588 0.930 . S
C598 C596 1.419 . S
C598 C599 1.362 . S
C599 H589 0.930 . S
C599 C592 1.409 . S
C599 C598 1.362 . S
H600 C606 0.930 . S
H601 C609 0.930 . S
H602 C610 0.930 . S
H603 C611 0.930 . S
H604 C614 0.930 . S
H605 C615 0.930 . S
C606 H600 0.930 . S
C606 C607 1.355 . S
C606 C608 1.415 . S
C607 C606 1.355 . S
C607 C609 1.419 . S
C608 C606 1.415 . S
C608 C613 1.425 . S
C608 C615 1.409 . S
C609 H601 0.930 . S
C609 C607 1.419 . S
C609 C610 1.362 . S
C610 H602 0.930 . S
C610 C609 1.362 . S
C610 C613 1.409 . S
C611 H603 0.930 . S
C611 C612 1.355 . S
C611 C613 1.415 . S
C612 C611 1.355 . S
C612 C614 1.419 . S
C613 C608 1.425 . S
C613 C610 1.409 . S
C613 C611 1.415 . S
C614 H604 0.930 . S
C614 C612 1.419 . S
C614 C615 1.362 . S
C615 H605 0.930 . S
C615 C608 1.409 . S
C615 C614 1.362 . S
H616 C622 0.930 . S
H617 C625 0.930 . S
H618 C626 0.930 . S
H619 C627 0.930 . S
H620 C630 0.930 . S
H621 C631 0.930 . S
C622 H616 0.930 . S
C622 C623 1.355 . S
C622 C624 1.415 . S
C623 C622 1.355 . S
C623 C625 1.419 . S
C624 C622 1.415 . S
C624 C629 1.425 . S
C624 C631 1.409 . S
C625 H617 0.930 . S
C625 C623 1.419 . S
C625 C626 1.362 . S
C626 H618 0.930 . S
C626 C625 1.362 . S
C626 C629 1.409 . S
C627 H619 0.930 . S
C627 C628 1.355 . S
C627 C629 1.415 . S
C628 C627 1.355 . S
C628 C630 1.419 . S
C629 C624 1.425 . S
C629 C626 1.409 . S
C629 C627 1.415 . S
C630 H620 0.930 . S
C630 C628 1.419 . S
C630 C631 1.362 . S
C631 H621 0.930 . S
C631 C624 1.409 . S
C631 C630 1.362 . S
H632 C638 0.930 . S
H633 C641 0.930 . S
H634 C642 0.930 . S
H635 C643 0.930 . S
H636 C646 0.930 . S
H637 C647 0.930 . S
C638 H632 0.930 . S
C638 C639 1.355 . S
C638 C640 1.415 . S
C639 C638 1.355 . S
C639 C641 1.419 . S
C640 C638 1.415 . S
C640 C645 1.425 . S
C640 C647 1.409 . S
C641 H633 0.930 . S
C641 C639 1.419 . S
C641 C642 1.362 . S
C642 H634 0.930 . S
C642 C641 1.362 . S
C642 C645 1.409 . S
C643 H635 0.930 . S
C643 C644 1.355 . S
C643 C645 1.415 . S
C644 C643 1.355 . S
C644 C646 1.419 . S
C645 C640 1.425 . S
C645 C642 1.409 . S
C645 C643 1.415 . S
C646 H636 0.930 . S
C646 C644 1.419 . S
C646 C647 1.362 . S
C647 H637 0.930 . S
C647 C640 1.409 . S
C647 C646 1.362 . S
H648 C654 0.930 . S
H649 C657 0.930 . S
H650 C658 0.930 . S
H651 C659 0.930 . S
H652 C662 0.930 . S
H653 C663 0.930 . S
C654 H648 0.930 . S
C654 C655 1.355 . S
C654 C656 1.415 . S
C655 C654 1.355 . S
C655 C657 1.419 . S
C656 C654 1.415 . S
C656 C661 1.425 . S
C656 C663 1.409 . S
C657 H649 0.930 . S
C657 C655 1.419 . S
C657 C658 1.362 . S
C658 H650 0.930 . S
C658 C657 1.362 . S
C658 C661 1.409 . S
C659 H651 0.930 . S
C659 C660 1.355 . S
C659 C661 1.415 . S
C660 C659 1.355 . S
C660 C662 1.419 . S
C661 C656 1.425 . S
C661 C658 1.409 . S
C661 C659 1.415 . S
C662 H652 0.930 . S
C662 C660 1.419 . S
C662 C663 1.362 . S
C663 H653 0.930 . S
C663 C656 1.409 . S
C663 C662 1.362 . S
H664 C670 0.930 . S
H665 C673 0.930 . S
H666 C674 0.930 . S
H667 C675 0.930 . S
H668 C678 0.930 . S
H669 C679 0.930 . S
C670 H664 0.930 . S
C670 C671 1.355 . S
C670 C672 1.415 . S
C671 C670 1.355 . S
C671 C673 1.419 . S
C672 C670 1.415 . S
C672 C677 1.425 . S
C672 C679 1.409 . S
C673 H665 0.930 . S
C673 C671 1.419 . S
C673 C674 1.362 . S
C674 H666 0.930 . S
C674 C673 1.362 . S
C674 C677 1.409 . S
C675 H667 0.930 . S
C675 C676 1.355 . S
C675 C677 1.415 . S
C676 C675 1.355 . S
C676 C678 1.419 . S
C677 C672 1.425 . S
C677 C674 1.409 . S
C677 C675 1.415 . S
C678 H668 0.930 . S
C678 C676 1.419 . S
C678 C679 1.362 . S
C679 H669 0.930 . S
C679 C672 1.409 . S
C679 C678 1.362 . S
H680 C686 0.930 . S
H681 C689 0.930 . S
H682 C690 0.930 . S
H683 C691 0.930 . S
H684 C694 0.930 . S
H685 C695 0.930 . S
C686 H680 0.930 . S
C686 C687 1.355 . S
C686 C688 1.415 . S
C687 C686 1.355 . S
C687 C689 1.419 . S
C688 C686 1.415 . S
C688 C693 1.425 . S
C688 C695 1.409 . S
C689 H681 0.930 . S
C689 C687 1.419 . S
C689 C690 1.362 . S
C690 H682 0.930 . S
C690 C689 1.362 . S
C690 C693 1.409 . S
C691 H683 0.930 . S
C691 C692 1.355 . S
C691 C693 1.415 . S
C692 C691 1.355 . S
C692 C694 1.419 . S
C693 C688 1.425 . S
C693 C690 1.409 . S
C693 C691 1.415 . S
C694 H684 0.930 . S
C694 C692 1.419 . S
C694 C695 1.362 . S
C695 H685 0.930 . S
C695 C688 1.409 . S
C695 C694 1.362 . S
H696 C702 0.930 . S
H697 C705 0.930 . S
H698 C706 0.930 . S
H699 C707 0.930 . S
H700 C710 0.930 . S
H701 C711 0.930 . S
C702 H696 0.930 . S
C702 C703 1.355 . S
C702 C704 1.415 . S
C703 C702 1.355 . S
C703 C705 1.419 . S
C704 C702 1.415 . S
C704 C709 1.425 . S
C704 C711 1.409 . S
C705 H697 0.930 . S
C705 C703 1.419 . S
C705 C706 1.362 . S
C706 H698 0.930 . S
C706 C705 1.362 . S
C706 C709 1.409 . S
C707 H699 0.930 . S
C707 C708 1.355 . S
C707 C709 1.415 . S
C708 C707 1.355 . S
C708 C710 1.419 . S
C709 C704 1.425 . S
C709 C706 1.409 . S
C709 C707 1.415 . S
C710 H700 0.930 . S
C710 C708 1.419 . S
C710 C711 1.362 . S
C711 H701 0.930 . S
C711 C704 1.409 . S
C711 C710 1.362 . S
H712 C718 0.930 . S
H713 C721 0.930 . S
H714 C722 0.930 . S
H715 C723 0.930 . S
H716 C726 0.930 . S
H717 C727 0.930 . S
C718 H712 0.930 . S
C718 C719 1.355 . S
C718 C720 1.415 . S
C719 C718 1.355 . S
C719 C721 1.419 . S
C720 C718 1.415 . S
C720 C725 1.425 . S
C720 C727 1.409 . S
C721 H713 0.930 . S
C721 C719 1.419 . S
C721 C722 1.362 . S
C722 H714 0.930 . S
C722 C721 1.362 . S
C722 C725 1.409 . S
C723 H715 0.930 . S
C723 C724 1.355 . S
C723 C725 1.415 . S
C724 C723 1.355 . S
C724 C726 1.419 . S
C725 C720 1.425 . S
C725 C722 1.409 . S
C725 C723 1.415 . S
C726 H716 0.930 . S
C726 C724 1.419 . S
C726 C727 1.362 . S
C727 H717 0.930 . S
C727 C720 1.409 . S
C727 C726 1.362 . S
H728 C734 0.930 . S
H729 C737 0.930 . S
H730 C738 0.930 . S
H731 C739 0.930 . S
H732 C742 0.930 . S
H733 C743 0.930 . S
C734 H728 0.930 . S
C734 C735 1.355 . S
C734 C736 1.415 . S
C735 C734 1.355 . S
C735 C737 1.419 . S
C736 C734 1.415 . S
C736 C741 1.425 . S
C736 C743 1.409 . S
C737 H729 0.930 . S
C737 C735 1.419 . S
C737 C738 1.362 . S
C738 H730 0.930 . S
C738 C737 1.362 . S
C738 C741 1.409 . S
C739 H731 0.930 . S
C739 C740 1.355 . S
C739 C741 1.415 . S
C740 C739 1.355 . S
C740 C742 1.419 . S
C741 C736 1.425 . S
C741 C738 1.409 . S
C741 C739 1.415 . S
C742 H732 0.930 . S
C742 C740 1.419 . S
C742 C743 1.362 . S
C743 H733 0.930 . S
C743 C736 1.409 . S
C743 C742 1.362 . S
H744 C750 0.930 . S
H745 C753 0.930 . S
H746 C754 0.930 . S
H747 C755 0.930 . S
H748 C758 0.930 . S
H749 C759 0.930 . S
C750 H744 0.930 . S
C750 C751 1.355 . S
C750 C752 1.415 . S
C751 C750 1.355 . S
C751 C753 1.419 . S
C752 C750 1.415 . S
C752 C757 1.425 . S
C752 C759 1.409 . S
C753 H745 0.930 . S
C753 C751 1.419 . S
C753 C754 1.362 . S
C754 H746 0.930 . S
C754 C753 1.362 . S
C754 C757 1.409 . S
C755 H747 0.930 . S
C755 C756 1.355 . S
C755 C757 1.415 . S
C756 C755 1.355 . S
C756 C758 1.419 . S
C757 C752 1.425 . S
C757 C754 1.409 . S
C757 C755 1.415 . S
C758 H748 0.930 . S
C758 C756 1.419 . S
C758 C759 1.362 . S
C759 H749 0.930 . S
C759 C752 1.409 . S
C759 C758 1.362 . S
H760 C766 0.930 . S
H761 C769 0.930 . S
H762 C770 0.930 . S
H763 C771 0.930 . S
H764 C774 0.930 . S
H765 C775 0.930 . S
C766 H760 0.930 . S
C766 C767 1.355 . S
C766 C768 1.415 . S
C767 C766 1.355 . S
C767 C769 1.419 . S
C768 C766 1.415 . S
C768 C773 1.425 . S
C768 C775 1.409 . S
C769 H761 0.930 . S
C769 C767 1.419 . S
C769 C770 1.362 . S
C770 H762 0.930 . S
C770 C769 1.362 . S
C770 C773 1.409 . S
C771 H763 0.930 . S
C771 C772 1.355 . S
C771 C773 1.415 . S
C772 C771 1.355 . S
C772 C774 1.419 . S
C773 C768 1.425 . S
C773 C770 1.409 . S
C773 C771 1.415 . S
C774 H764 0.930 . S
C774 C772 1.419 . S
C774 C775 1.362 . S
C775 H765 0.930 . S
C775 C768 1.409 . S
C775 C774 1.362 . S
H776 C782 0.930 . S
H777 C785 0.930 . S
H778 C786 0.930 . S
H779 C787 0.930 . S
H780 C790 0.930 . S
H781 C791 0.930 . S
C782 H776 0.930 . S
C782 C783 1.355 . S
C782 C784 1.415 . S
C783 C782 1.355 . S
C783 C785 1.419 . S
C784 C782 1.415 . S
C784 C789 1.425 . S
C784 C791 1.409 . S
C785 H777 0.930 . S
C785 C783 1.419 . S
C785 C786 1.362 . S
C786 H778 0.930 . S
C786 C785 1.362 . S
C786 C789 1.409 . S
C787 H779 0.930 . S
C787 C788 1.355 . S
C787 C789 1.415 . S
C788 C787 1.355 . S
C788 C790 1.419 . S
C789 C784 1.425 . S
C789 C786 1.409 . S
C789 C787 1.415 . S
C790 H780 0.930 . S
C790 C788 1.419 . S
C790 C791 1.362 . S
C791 H781 0.930 . S
C791 C784 1.409 . S
C791 C790 1.362 . S
H792 C798 0.930 . S
H793 C801 0.930 . S
H794 C802 0.930 . S
H795 C803 0.930 . S
H796 C806 0.930 1_554 S
H797 C807 0.930 1_554 S
C798 H792 0.930 . S
C798 C799 1.355 . S
C798 C800 1.415 . S
C799 C798 1.355 . S
C799 C801 1.419 . S
C800 C798 1.415 . S
C800 C805 1.425 . S
C800 C807 1.409 . S
C801 H793 0.930 . S
C801 C799 1.419 . S
C801 C802 1.362 . S
C802 H794 0.930 . S
C802 C801 1.362 . S
C802 C805 1.409 . S
C803 H795 0.930 . S
C803 C804 1.355 . S
C803 C805 1.415 . S
C804 C803 1.355 . S
C804 C806 1.419 . S
C805 C800 1.425 . S
C805 C802 1.409 . S
C805 C803 1.415 . S
C806 H796 0.930 1_556 S
C806 C804 1.419 . S
C806 C807 1.362 . S
C807 H797 0.930 1_556 S
C807 C800 1.409 . S
C807 C806 1.362 . S
H808 C814 0.930 . S
H809 C817 0.930 . S
H810 C818 0.930 . S
H811 C819 0.930 . S
H812 C822 0.930 . S
H813 C823 0.930 . S
C814 H808 0.930 . S
C814 C815 1.355 . S
C814 C816 1.415 . S
C815 C814 1.355 . S
C815 C817 1.419 . S
C816 C814 1.415 . S
C816 C821 1.425 . S
C816 C823 1.409 . S
C817 H809 0.930 . S
C817 C815 1.419 . S
C817 C818 1.362 . S
C818 H810 0.930 . S
C818 C817 1.362 . S
C818 C821 1.409 . S
C819 H811 0.930 . S
C819 C820 1.355 . S
C819 C821 1.415 . S
C820 C819 1.355 . S
C820 C822 1.419 . S
C821 C816 1.425 . S
C821 C818 1.409 . S
C821 C819 1.415 . S
C822 H812 0.930 . S
C822 C820 1.419 . S
C822 C823 1.362 . S
C823 H813 0.930 . S
C823 C816 1.409 . S
C823 C822 1.362 . S
H824 C830 0.930 . S
H825 C833 0.930 . S
H826 C834 0.930 . S
H827 C835 0.930 . S
H828 C838 0.930 1_655 S
H829 C839 0.930 . S
C830 H824 0.930 . S
C830 C831 1.355 . S
C830 C832 1.415 . S
C831 C830 1.355 . S
C831 C833 1.419 . S
C832 C830 1.415 . S
C832 C837 1.425 . S
C832 C839 1.409 . S
C833 H825 0.930 . S
C833 C831 1.419 . S
C833 C834 1.362 . S
C834 H826 0.930 . S
C834 C833 1.362 . S
C834 C837 1.409 . S
C835 H827 0.930 . S
C835 C836 1.355 . S
C835 C837 1.415 . S
C836 C835 1.355 . S
C836 C838 1.419 . S
C837 C832 1.425 . S
C837 C834 1.409 . S
C837 C835 1.415 . S
C838 H828 0.930 1_455 S
C838 C836 1.419 . S
C838 C839 1.362 . S
C839 H829 0.930 . S
C839 C832 1.409 . S
C839 C838 1.362 . S
H840 C846 0.930 . S
H841 C849 0.930 . S
H842 C850 0.930 . S
H843 C851 0.930 . S
H844 C854 0.930 . S
H845 C855 0.930 . S
C846 H840 0.930 . S
C846 C847 1.355 . S
C846 C848 1.415 . S
C847 C846 1.355 . S
C847 C849 1.419 . S
C848 C846 1.415 . S
C848 C853 1.425 . S
C848 C855 1.409 . S
C849 H841 0.930 . S
C849 C847 1.419 . S
C849 C850 1.362 . S
C850 H842 0.930 . S
C850 C849 1.362 . S
C850 C853 1.409 . S
C851 H843 0.930 . S
C851 C852 1.355 . S
C851 C853 1.415 . S
C852 C851 1.355 . S
C852 C854 1.419 . S
C853 C848 1.425 . S
C853 C850 1.409 . S
C853 C851 1.415 . S
C854 H844 0.930 . S
C854 C852 1.419 . S
C854 C855 1.362 . S
C855 H845 0.930 . S
C855 C848 1.409 . S
C855 C854 1.362 . S
C479 C1 2.887 . S
C484 C331 2.855 . S
C495 C40 2.416 . S
C500 C362 2.535 . S
C516 C401 1.383 . S
C511 C99 1.442 . S
C527 C118 0.642 . S
C532 C438 0.615 . S
C548 C361 2.799 . S
C543 C16 2.895 . S
C564 C318 1.483 . S
C559 C60 1.495 . S
C580 C450 1.477 . S
C575 C79 1.506 . S
C596 C407 1.099 . S
C591 C138 1.134 . S
C607 C21 2.305 . S
C612 C451 2.295 . S
C628 C367 1.325 . S
C623 C94 1.317 . S
C639 C133 0.524 . S
C644 C330 0.589 . S
C655 C55 2.483 . S
C660 C402 2.519 . S
C676 C322 2.862 . S
C671 C157 2.893 . S
C687 C196 2.390 . S
C692 C371 2.536 . S
C703 C255 1.421 . S
C708 C410 1.383 . S
C719 C289 0.641 . S
C724 C447 0.633 . S
C735 C172 2.886 . S
C740 C370 2.789 . S
C756 C327 1.494 . S
C751 C216 1.437 . S
C772 C441 1.442 . S
C767 C235 1.531 . S
C788 C398 1.108 . S
C783 C294 1.134 . S
C799 C177 2.289 . S
C804 C442 2.301 . S
C820 C358 1.322 . S
C815 C250 1.306 . S
C836 C321 0.704 . S
C831 C274 0.583 . S
C847 C211 2.467 . S
C852 C411 2.528 . S
