# Generated by pormake.
# Topology zzz, (3,6)-cn, num edge types: 1
# Building blocks:
#     Node 0, Type 0, BuildingBlock: CUQRIR_clean_linker_1, # of connection points: 3
#     Node 1, Type 0, BuildingBlock: CUQRIR_clean_linker_1, # of connection points: 3
#     Node 2, Type 0, BuildingBlock: CUQRIR_clean_linker_1, # of connection points: 3
#     Node 3, Type 0, BuildingBlock: CUQRIR_clean_linker_1, # of connection points: 3
#     Node 4, Type 0, BuildingBlock: CUQRIR_clean_linker_1, # of connection points: 3
#     Node 5, Type 0, BuildingBlock: CUQRIR_clean_linker_1, # of connection points: 3
#     Node 6, Type 0, BuildingBlock: CUQRIR_clean_linker_1, # of connection points: 3
#     Node 7, Type 0, BuildingBlock: CUQRIR_clean_linker_1, # of connection points: 3
#     Node 8, Type 1, BuildingBlock: KUMBUR_clean_sbu_0, # of connection points: 6
#     Node 9, Type 1, BuildingBlock: KUMBUR_clean_sbu_0, # of connection points: 6
#     Node 10, Type 1, BuildingBlock: KUMBUR_clean_sbu_0, # of connection points: 6
#     Node 11, Type 1, BuildingBlock: KUMBUR_clean_sbu_0, # of connection points: 6
#     Edge 12, Type (0, 1), BuildingBlock: XIVTED_clean_linker_0, # of connection points: 2
#     Edge 13, Type (0, 1), BuildingBlock: XIVTED_clean_linker_0, # of connection points: 2
#     Edge 14, Type (0, 1), BuildingBlock: XIVTED_clean_linker_0, # of connection points: 2
#     Edge 15, Type (0, 1), BuildingBlock: XIVTED_clean_linker_0, # of connection points: 2
#     Edge 16, Type (0, 1), BuildingBlock: XIVTED_clean_linker_0, # of connection points: 2
#     Edge 17, Type (0, 1), BuildingBlock: XIVTED_clean_linker_0, # of connection points: 2
#     Edge 18, Type (0, 1), BuildingBlock: XIVTED_clean_linker_0, # of connection points: 2
#     Edge 19, Type (0, 1), BuildingBlock: XIVTED_clean_linker_0, # of connection points: 2
#     Edge 20, Type (0, 1), BuildingBlock: XIVTED_clean_linker_0, # of connection points: 2
#     Edge 21, Type (0, 1), BuildingBlock: XIVTED_clean_linker_0, # of connection points: 2
#     Edge 22, Type (0, 1), BuildingBlock: XIVTED_clean_linker_0, # of connection points: 2
#     Edge 23, Type (0, 1), BuildingBlock: XIVTED_clean_linker_0, # of connection points: 2
#     Edge 24, Type (0, 1), BuildingBlock: XIVTED_clean_linker_0, # of connection points: 2
#     Edge 25, Type (0, 1), BuildingBlock: XIVTED_clean_linker_0, # of connection points: 2
#     Edge 26, Type (0, 1), BuildingBlock: XIVTED_clean_linker_0, # of connection points: 2
#     Edge 27, Type (0, 1), BuildingBlock: XIVTED_clean_linker_0, # of connection points: 2
#     Edge 28, Type (0, 1), BuildingBlock: XIVTED_clean_linker_0, # of connection points: 2
#     Edge 29, Type (0, 1), BuildingBlock: XIVTED_clean_linker_0, # of connection points: 2
#     Edge 30, Type (0, 1), BuildingBlock: XIVTED_clean_linker_0, # of connection points: 2
#     Edge 31, Type (0, 1), BuildingBlock: XIVTED_clean_linker_0, # of connection points: 2
#     Edge 32, Type (0, 1), BuildingBlock: XIVTED_clean_linker_0, # of connection points: 2
#     Edge 33, Type (0, 1), BuildingBlock: XIVTED_clean_linker_0, # of connection points: 2
#     Edge 34, Type (0, 1), BuildingBlock: XIVTED_clean_linker_0, # of connection points: 2
#     Edge 35, Type (0, 1), BuildingBlock: XIVTED_clean_linker_0, # of connection points: 2
# Relax obj value: 0.207
# Max RMSD: 0.170
# Mean RMSD: 0.120
data_MOF--net-zzz--node1-KUMBUR_clean_sbu_0--node2-CUQRIR_clean_linker_1--edge1-XIVTED_clean_linker_0
_symmetry_space_group_name_H-M    P1
_symmetry_Int_Tables_number       1
_symmetry_cell_setting            triclinic
loop_
_symmetry_equiv_pos_as_xyz
'x, y, z'
_cell_length_a     46.957523
_cell_length_b     47.013953
_cell_length_c     13.314814
_cell_angle_alpha  91.447216
_cell_angle_beta   89.748628
_cell_angle_gamma 90.055091
loop_
_atom_site_label
_atom_site_type_symbol
_atom_site_fract_x
_atom_site_fract_y
_atom_site_fract_z
_atom_type_partial_charge
C0 C 0.75301 0.52825 0.2802 0.0
N1 N 0.77924 0.53979 0.29845 0.0
N2 N 0.73822 0.54374 0.21205 0.0
C3 C 0.74207 0.5018 0.32755 0.0
C4 C 0.75677 0.56482 0.189 0.0
N5 N 0.78132 0.56251 0.24135 0.0
C6 C 0.75124 0.58699 0.11171 0.0
H7 H 0.7482 0.48314 0.27956 0.0
H8 H 0.7185 0.50235 0.33368 0.0
H9 H 0.7516 0.49925 0.40292 0.0
H10 H 0.73613 0.60298 0.14339 0.0
H11 H 0.74132 0.577 0.044 0.0
H12 H 0.77087 0.59838 0.08976 0.0
C13 C 1.01267 0.75569 0.28861 0.0
N14 N 0.9977 0.78048 0.30411 0.0
N15 N 0.99756 0.73611 0.23172 0.0
C16 C 0.04199 0.75074 0.32822 0.0
C17 C 0.97304 0.75033 0.21279 0.0
N18 N 0.97315 0.77691 0.25536 0.0
C19 C 0.9496 0.73895 0.14559 0.0
H20 H 0.05778 0.75874 0.27346 0.0
H21 H 0.04581 0.7277 0.33828 0.0
H22 H 0.04506 0.76256 0.40059 0.0
H23 H 0.9374 0.72256 0.18589 0.0
H24 H 0.95881 0.72889 0.0765 0.0
H25 H 0.93419 0.75557 0.12457 0.0
C26 C 0.79169 1.00462 0.31938 0.0
N27 N 0.76531 1.01691 0.32459 0.0
N28 N 0.8069 1.0142 0.23886 0.0
C29 C 0.80265 0.9837 0.3928 0.0
C30 C 0.78869 0.03252 0.19558 0.0
N31 N 0.76382 0.03414 0.2471 0.0
C32 C 0.79502 0.0484 0.10132 0.0
H33 H 0.79443 0.9889 0.46935 0.0
H34 H 0.82629 0.98345 0.39305 0.0
H35 H 0.7949 0.96216 0.37062 0.0
H36 H 0.81058 0.03674 0.05282 0.0
H37 H 0.80434 0.06939 0.12245 0.0
H38 H 0.77526 0.05204 0.05812 0.0
C39 C 0.53511 0.80139 0.31335 0.0
N40 N 0.54895 0.77657 0.33026 0.0
N41 N 0.55202 0.81963 0.26187 0.0
C42 C 0.5045 0.80691 0.33953 0.0
C43 C 0.5765 0.80479 0.24753 0.0
N44 N 0.57469 0.77877 0.2886 0.0
C45 C 0.60126 0.81491 0.18578 0.0
H46 H 0.49086 0.79657 0.28135 0.0
H47 H 0.49994 0.83007 0.34215 0.0
H48 H 0.49912 0.79755 0.4129 0.0
H49 H 0.60726 0.83684 0.20991 0.0
H50 H 0.59482 0.8155 0.10575 0.0
H51 H 0.62008 0.80089 0.1929 0.0
C52 C 0.29589 0.51536 0.10799 0.0
N53 N 0.26925 0.50488 0.08938 0.0
N54 N 0.30963 0.49979 0.17867 0.0
C55 C 0.30833 0.5407 0.05775 0.0
C56 C 0.28999 0.47975 0.20262 0.0
N57 N 0.26588 0.4827 0.14827 0.0
C58 C 0.29398 0.45794 0.28235 0.0
H59 H 0.33183 0.53872 0.05164 0.0
H60 H 0.30331 0.56008 0.1037 0.0
H61 H 0.29897 0.54314 0.98205 0.0
H62 H 0.30547 0.46743 0.34773 0.0
H63 H 0.30695 0.44012 0.25092 0.0
H64 H 0.2735 0.44892 0.30809 0.0
C65 C 0.0393 0.28955 0.10164 0.0
N66 N 0.05434 0.26481 0.0861 0.0
N67 N 0.05442 0.30927 0.15784 0.0
C68 C 1.00985 0.29429 0.0627 0.0
C69 C 0.07904 0.29517 0.17645 0.0
N70 N 0.07896 0.26852 0.13435 0.0
C71 C 0.10265 0.30681 0.24233 0.0
H72 H 1.00592 0.31729 0.05206 0.0
H73 H 0.99422 0.28636 0.11813 0.0
H74 H 1.00667 0.2823 0.99075 0.0
H75 H 0.09363 0.31698 0.31153 0.0
H76 H 0.11464 0.32316 0.20104 0.0
H77 H 0.11824 0.29033 0.26309 0.0
C78 C 0.26004 0.04068 0.06508 0.0
N79 N 0.28426 0.05576 0.04545 0.0
N80 N 0.24039 0.05707 0.11596 0.0
C81 C 0.25661 1.00951 0.04272 0.0
C82 C 0.25382 0.08246 0.12668 0.0
N83 N 0.28034 0.08172 0.08573 0.0
C84 C 0.24133 0.10776 0.18253 0.0
H85 H 0.23375 1.00351 0.04114 0.0
H86 H 0.26733 0.99747 0.10237 0.0
H87 H 0.26689 1.0037 0.96985 0.0
H88 H 0.21839 0.10979 0.1643 0.0
H89 H 0.25265 0.12765 0.16331 0.0
H90 H 0.24298 0.10457 0.26457 0.0
C91 C 0.50159 0.25865 0.06088 0.0
N92 N 0.49256 0.28594 0.05267 0.0
N93 N 0.48785 0.2456 0.13748 0.0
C94 C 0.52476 0.24528 0.99801 0.0
C95 C 0.47058 0.26625 0.17629 0.0
N96 N 0.47338 0.29064 0.125 0.0
C97 C 0.45301 0.26329 0.27023 0.0
H98 H 0.52239 0.22178 0.99447 0.0
H99 H 0.54563 0.25056 0.03255 0.0
H100 H 0.52455 0.25384 0.92109 0.0
H101 H 0.46736 0.25973 0.33471 0.0
H102 H 0.43885 0.24449 0.26248 0.0
H103 H 0.43972 0.28238 0.28603 0.0
Tb104 Tb 0.05495 1.01635 0.77626 0.0
C105 C 0.94023 0.99669 0.58097 0.0
C106 C 0.94692 0.9629 0.44306 0.0
C107 C 0.90046 0.96755 0.52275 0.0
C108 C 0.95797 0.98344 0.51141 0.0
C109 C 0.91119 0.98912 0.58693 0.0
C110 C 0.91827 0.95457 0.45049 0.0
C111 C 0.9048 0.02674 0.71167 0.0
N112 N 0.95118 1.01803 0.63952 0.0
C113 C 0.93359 0.03383 0.70182 0.0
C114 C 0.89359 1.00412 0.65466 0.0
Tb115 Tb 0.99831 0.029 0.6119 0.0
N116 N 0.98548 0.99224 0.50557 0.0
C117 C 1.00244 0.9827 0.42807 0.0
C118 C 0.96453 0.9525 0.36581 0.0
C119 C 0.9923 0.96276 0.3576 0.0
H120 H 0.94185 0.05143 0.74633 0.0
H121 H 1.00586 0.95595 0.29599 0.0
H122 H 0.90949 0.93868 0.39898 0.0
H123 H 0.89125 0.03883 0.76296 0.0
H124 H 0.02386 0.99059 0.4194 0.0
H125 H 0.04519 0.08827 0.09511 0.0
H126 H 0.95641 0.93755 0.30997 0.0
H127 H 0.11223 0.99511 0.64491 0.0
H128 H 0.02827 0.05369 0.97039 0.0
H129 H 0.16272 1.00853 0.63111 0.0
H130 H 0.87824 0.96139 0.52622 0.0
H131 H 0.09411 0.10813 0.08277 0.0
H132 H 0.14146 0.10785 0.99592 0.0
H133 H 0.87121 0.99889 0.66164 0.0
H134 H 0.17352 0.08594 0.86951 0.0
N135 N 0.0669 0.05286 0.88537 0.0
C136 C 0.04955 0.06191 0.96253 0.0
C137 C 0.08658 0.0929 0.02666 0.0
C138 C 0.10464 0.08295 0.94994 0.0
C139 C 0.05907 0.08192 0.03381 0.0
C140 C 0.09421 0.06228 0.88071 0.0
H141 H 0.1817 0.04872 0.73388 0.0
N142 N 0.10198 0.02822 0.75166 0.0
C143 C 0.14878 0.02033 0.68189 0.0
C144 C 0.11237 0.0496 0.81129 0.0
C145 C 0.12006 1.01279 0.69006 0.0
C146 C 0.15939 0.04309 0.73971 0.0
C147 C 0.14128 0.0577 0.80682 0.0
O148 O 0.081 0.98263 0.82037 0.0
O149 O 0.0238 0.99566 0.6759 0.0
O150 O 0.98111 1.00344 0.73407 0.0
O151 O 1.01304 1.01662 0.85833 0.0
O152 O 0.06345 0.97933 0.67426 0.0
O153 O 0.05192 1.00324 0.92523 0.0
O154 O 0.9725 0.06265 0.56514 0.0
O155 O 0.02941 0.04951 0.71216 0.0
O156 O 0.07193 0.04206 0.65453 0.0
O157 O 0.04027 0.0289 0.52925 0.0
O158 O 0.9902 0.06662 0.71182 0.0
O159 O 1.00135 0.04108 0.46182 0.0
C160 C 0.03882 0.97599 0.63479 0.0
C161 C 0.06595 0.95602 0.95815 0.0
C162 C 0.03561 0.92316 0.04664 0.0
C163 C 0.03884 0.94811 0.99251 0.0
C164 C 0.05939 0.9058 0.06371 0.0
C165 C 0.08948 0.93846 0.9754 0.0
C166 C 0.08615 0.91336 0.02755 0.0
C167 C 0.98739 1.00737 0.83019 0.0
C168 C 0.071 0.98341 0.91163 0.0
C169 C 0.1514 0.07937 0.87189 0.0
C170 C 0.13314 0.09188 0.94371 0.0
C171 C 1.01472 0.06955 0.7524 0.0
C172 C 0.98709 0.08777 0.42286 0.0
C173 C 1.01432 0.09608 0.39095 0.0
C174 C 1.01748 0.12038 0.33314 0.0
C175 C 0.99335 0.13665 0.30972 0.0
C176 C 0.96326 0.10422 0.3991 0.0
C177 C 0.96644 0.12864 0.34308 0.0
C178 C 0.06583 0.03833 0.55814 0.0
C179 C 0.98227 0.06097 0.4736 0.0
H180 H 0.02054 0.96159 0.97998 0.0
H181 H 0.05719 0.88623 0.10439 0.0
H182 H 0.11055 0.94444 0.94984 0.0
H183 H 0.10437 0.89992 0.0409 0.0
H184 H 0.03283 0.0834 0.40868 0.0
H185 H 0.99538 0.1558 0.26663 0.0
H186 H 0.94211 0.09791 0.42268 0.0
H187 H 0.94799 0.14127 0.32486 0.0
Tb188 Tb 0.53432 0.05444 0.77381 0.0
C189 C 0.56175 0.95788 0.51418 0.0
C190 C 0.59479 0.98021 0.40008 0.0
C191 C 0.59942 0.92988 0.43352 0.0
C192 C 0.57118 0.98183 0.46607 0.0
C193 C 0.57518 0.93139 0.49561 0.0
C194 C 0.60925 0.95427 0.38599 0.0
C195 C 0.53706 0.90913 0.58691 0.0
N196 N 0.53797 0.96005 0.57212 0.0
C197 C 0.52432 0.9358 0.60131 0.0
C198 C 0.56295 0.90698 0.53552 0.0
Tb199 Tb 0.51741 1.00433 0.58473 0.0
N200 N 0.55657 1.00649 0.48105 0.0
C201 C 0.56378 0.03002 0.42793 0.0
C202 C 0.60284 1.00456 0.34883 0.0
C203 C 0.58705 0.02947 0.3621 0.0
H204 H 0.50363 0.9372 0.63679 0.0
H205 H 0.59271 0.0483 0.32154 0.0
H206 H 0.62758 0.95269 0.33648 0.0
H207 H 0.52661 0.89022 0.6136 0.0
H208 H 0.55173 0.04932 0.43547 0.0
H209 H 0.57843 0.03523 0.13889 0.0
H210 H 0.62088 1.00423 0.29775 0.0
H211 H 0.47674 0.08823 0.70201 0.0
H212 H 0.57735 0.0335 0.95432 0.0
H213 H 0.43733 0.11505 0.78289 0.0
H214 H 0.61015 0.90978 0.41916 0.0
H215 H 0.53813 0.05648 0.23478 0.0
H216 H 0.49225 0.08311 0.23214 0.0
H217 H 0.57255 0.88624 0.5227 0.0
H218 H 0.45559 0.10768 0.13557 0.0
N219 N 0.53542 0.05057 0.94459 0.0
C220 C 0.55908 0.0417 0.99492 0.0
C221 C 0.53713 0.0548 0.15357 0.0
C222 C 0.514 0.06583 0.10145 0.0
C223 C 0.55991 0.04288 0.09984 0.0
C224 C 0.51361 0.06312 0.99577 0.0
H225 H 0.43381 0.11817 0.96822 0.0
N226 N 0.4936 0.07379 0.83961 0.0
C227 C 0.45249 0.10387 0.82841 0.0
C228 C 0.49208 0.0754 0.94137 0.0
C229 C 0.47465 0.08837 0.78276 0.0
C230 C 0.45052 0.1055 0.93302 0.0
C231 C 0.47076 0.09161 0.99092 0.0
O232 O 0.57185 0.07659 0.81197 0.0
O233 O 0.55136 0.03119 0.64328 0.0
O234 O 0.53107 0.98075 0.71863 0.0
O235 O 0.52788 1.01406 0.85205 0.0
O236 O 0.57521 0.0321 0.77106 0.0
O237 O 0.53398 0.0992 0.77287 0.0
O238 O 0.48308 0.97924 0.53119 0.0
O239 O 0.4988 0.03444 0.69403 0.0
O240 O 0.53007 0.07694 0.63246 0.0
O241 O 0.50381 0.04634 0.53035 0.0
O242 O 0.48096 0.9945 0.68154 0.0
O243 O 0.50845 1.00397 0.43086 0.0
C244 C 0.57498 0.02276 0.67969 0.0
C245 C 0.56142 0.11841 0.9068 0.0
C246 C 0.58847 0.12968 0.05806 0.0
C247 C 0.58677 0.11746 0.96131 0.0
C248 C 0.56483 0.14382 0.09992 0.0
C249 C 0.53806 0.13353 0.9479 0.0
C250 C 0.53986 0.1462 0.04391 0.0
C251 C 0.53037 0.98751 0.81636 0.0
C252 C 0.55909 0.10118 0.81279 0.0
C253 C 0.47123 0.09463 0.09611 0.0
C254 C 0.49229 0.08102 0.15126 0.0
C255 C 0.47903 0.01861 0.72913 0.0
C256 C 0.4625 0.99138 0.37621 0.0
C257 C 0.45408 0.01897 0.35153 0.0
C258 C 0.43234 0.02273 0.28141 0.0
C259 C 0.41878 0.99879 0.23769 0.0
C260 C 0.44868 0.96771 0.3326 0.0
C261 C 0.42684 0.97144 0.26372 0.0
C262 C 0.51437 0.07188 0.5522 0.0
C263 C 0.48737 0.98633 0.43878 0.0
H264 H 0.60481 0.10563 0.93087 0.0
H265 H 0.56572 0.15274 0.17558 0.0
H266 H 0.51816 0.13486 0.90751 0.0
H267 H 0.52161 0.15724 0.07578 0.0
H268 H 0.46482 0.03732 0.38427 0.0
H269 H 0.40163 1.00127 0.18443 0.0
H270 H 0.4552 0.94632 0.35038 0.0
H271 H 0.41629 0.95312 0.22992 0.0
Tb272 Tb 0.54822 0.52242 0.60531 0.0
C273 C 0.44058 0.50713 0.82054 0.0
C274 C 0.40515 0.52585 0.70901 0.0
C275 C 0.39363 0.48534 0.81114 0.0
C276 C 0.43309 0.52606 0.74786 0.0
C277 C 0.42047 0.48752 0.85675 0.0
C278 C 0.38599 0.50447 0.737 0.0
C279 C 0.45267 0.47776 0.99222 0.0
N280 N 0.46646 0.51034 0.8642 0.0
C281 C 0.47201 0.49731 0.95318 0.0
C282 C 0.42719 0.47216 0.94203 0.0
Tb283 Tb 0.49733 0.54134 0.7883 0.0
N284 N 0.45192 0.54697 0.72557 0.0
C285 C 0.44239 0.57054 0.67721 0.0
C286 C 0.39659 0.54831 0.64952 0.0
C287 C 0.41495 0.57125 0.63675 0.0
H288 H 0.49176 0.50127 0.99238 0.0
H289 H 0.40798 0.58957 0.59584 0.0
H290 H 0.36465 0.50365 0.70642 0.0
H291 H 0.45724 0.46718 0.06142 0.0
H292 H 0.45538 0.58918 0.66882 0.0
H293 H 0.57115 0.41448 0.47813 0.0
H294 H 0.37532 0.549 0.61847 0.0
H295 H 0.59299 0.57431 0.69092 0.0
H296 H 0.54295 0.45841 0.49104 0.0
H297 H 0.64179 0.57742 0.75112 0.0
H298 H 0.37809 0.47004 0.83659 0.0
H299 H 0.61827 0.41213 0.55963 0.0
H300 H 0.6575 0.4374 0.65312 0.0
H301 H 0.4122 0.45713 0.97288 0.0
H302 H 0.67689 0.48193 0.72559 0.0
N303 N 0.57277 0.48051 0.5847 0.0
C304 C 0.56322 0.45771 0.5281 0.0
C305 C 0.6058 0.43147 0.56649 0.0
C306 C 0.61655 0.45563 0.61681 0.0
C307 C 0.57924 0.43271 0.52032 0.0
C308 C 0.59946 0.48028 0.62369 0.0
H309 H 0.67149 0.53426 0.75983 0.0
N310 N 0.59373 0.52913 0.66474 0.0
C311 C 0.63318 0.557 0.72722 0.0
C312 C 0.61033 0.5054 0.66454 0.0
C313 C 0.60518 0.55499 0.69233 0.0
C314 C 0.64986 0.53259 0.73229 0.0
C315 C 0.63869 0.50645 0.69935 0.0
O316 O 0.53484 0.53862 0.46697 0.0
O317 O 0.50324 0.53232 0.63046 0.0
O318 O 0.49992 0.49409 0.7817 0.0
O319 O 0.54174 0.4836 0.69296 0.0
O320 O 0.51259 0.4964 0.54768 0.0
O321 O 0.57808 0.52665 0.48755 0.0
O322 O 0.47471 0.56092 0.90869 0.0
O323 O 0.54291 0.53901 0.75672 0.0
O324 O 0.54801 0.56893 0.62732 0.0
O325 O 0.50168 0.5757 0.67887 0.0
O326 O 0.52903 0.52396 0.89113 0.0
O327 O 0.51316 0.57922 0.85437 0.0
C328 C 0.49184 0.51189 0.58099 0.0
C329 C 0.55833 0.51624 0.32951 0.0
C330 C 0.53631 0.47838 0.22701 0.0
C331 C 0.53535 0.49791 0.30866 0.0
C332 C 0.56011 0.47881 0.16231 0.0
C333 C 0.58177 0.51631 0.26425 0.0
C334 C 0.58252 0.49776 0.1809 0.0
C335 C 0.5201 0.47607 0.7509 0.0
C336 C 0.559 0.53365 0.42298 0.0
C337 C 0.65523 0.48158 0.69779 0.0
C338 C 0.64418 0.45621 0.65667 0.0
C339 C 0.5514 0.52759 0.83709 0.0
C340 C 0.50728 0.57988 0.02872 0.0
C341 C 0.53032 0.59814 0.04921 0.0
C342 C 0.54522 0.59703 0.14066 0.0
C343 C 0.53595 0.5775 0.21245 0.0
C344 C 0.49803 0.56121 0.10278 0.0
C345 C 0.51225 0.56021 0.1942 0.0
C346 C 0.52542 0.58548 0.6382 0.0
C347 C 0.49483 0.57919 0.9271 0.0
H348 H 0.51688 0.49848 0.35729 0.0
H349 H 0.56216 0.46373 0.09995 0.0
H350 H 0.59976 0.53021 0.27912 0.0
H351 H 0.60111 0.49719 0.13307 0.0
H352 H 0.53632 0.61335 0.99319 0.0
H353 H 0.5467 0.57571 0.28347 0.0
H354 H 0.48005 0.54719 0.09001 0.0
H355 H 0.50484 0.54594 0.25115 0.0
Tb356 Tb 0.03027 0.55152 0.61042 0.0
C357 C 0.05666 0.43911 0.77623 0.0
C358 C 0.0357 0.40467 0.66041 0.0
C359 C 0.0799 0.39352 0.74458 0.0
C360 C 0.03566 0.43194 0.70756 0.0
C361 C 0.07822 0.41944 0.79893 0.0
C362 C 0.05865 0.38615 0.67524 0.0
C363 C 0.09151 0.44991 0.93958 0.0
N364 N 0.054 0.46403 0.82912 0.0
C365 C 0.06985 0.4688 0.91434 0.0
C366 C 0.09628 0.42556 0.87989 0.0
Tb367 Tb 0.01922 0.49426 0.77457 0.0
N368 N 1.01345 0.45019 0.6968 0.0
C369 C 0.98883 0.44034 0.65292 0.0
C370 C 1.01182 0.39607 0.6053 0.0
C371 C 0.98794 0.4136 0.60454 0.0
H372 H 0.06644 0.48773 0.96035 0.0
H373 H 0.9687 0.40645 0.56716 0.0
H374 H 0.0593 0.36541 0.63784 0.0
H375 H 0.10444 0.45396 1.00523 0.0
H376 H 0.96943 0.45244 0.65466 0.0
H377 H 0.08509 0.63807 0.80994 0.0
H378 H 1.01099 0.37532 0.5681 0.0
H379 H 0.98204 0.56069 0.42958 0.0
H380 H 0.08247 0.59259 0.71894 0.0
H381 H 0.94416 0.59553 0.39251 0.0
H382 H 0.09663 0.37837 0.75959 0.0
H383 H 0.04294 0.66937 0.82175 0.0
H384 H 0.9935 0.67997 0.76363 0.0
H385 H 0.11297 0.4109 0.90017 0.0
H386 H 0.95447 0.66825 0.64724 0.0
N387 N 0.03766 0.59517 0.68936 0.0
C388 C 0.06316 0.60469 0.72736 0.0
C389 C 0.0413 0.6488 0.78358 0.0
C390 C 1.01641 0.64064 0.73352 0.0
C391 C 0.06511 0.63118 0.77719 0.0
C392 C 1.01544 0.61363 0.68465 0.0
H393 H 0.93659 0.6373 0.50466 0.0
N394 N 0.9954 0.58269 0.5631 0.0
C395 C 0.95742 0.59855 0.45782 0.0
C396 C 0.99348 0.60713 0.61913 0.0
C397 C 0.97904 0.57913 0.47844 0.0
C398 C 0.95323 0.62221 0.52147 0.0
C399 C 0.97196 0.62728 0.60127 0.0
O400 O 0.04105 0.57882 0.49344 0.0
O401 O 0.03155 0.50546 0.62408 0.0
O402 O 0.06561 0.49951 0.75428 0.0
O403 O 0.06917 0.54626 0.70442 0.0
O404 O 1.01582 0.52022 0.49315 0.0
O405 O 0.06736 0.54297 0.52561 0.0
O406 O 1.00783 0.46751 0.89262 0.0
O407 O 1.01818 0.54031 0.76082 0.0
O408 O 0.98382 0.54564 0.62923 0.0
O409 O 0.98043 0.49894 0.67997 0.0
O410 O 0.03355 0.52562 0.89188 0.0
O411 O 0.9814 0.50279 0.85492 0.0
C412 C 0.0221 0.49721 0.53891 0.0
C413 C 0.06072 0.55341 0.35427 0.0
C414 C 0.07848 0.52216 0.21899 0.0
C415 C 0.07871 0.53151 0.31996 0.0
C416 C 0.06026 0.5354 0.15127 0.0
C417 C 0.04214 0.56609 0.28596 0.0
C418 C 0.04191 0.557 0.18524 0.0
C419 C 0.08057 0.52306 0.74286 0.0
C420 C 0.06155 0.56249 0.4613 0.0
C421 C 0.97118 0.65278 0.65836 0.0
C422 C 0.99341 0.65946 0.72461 0.0
C423 C 0.02763 0.54864 0.84585 0.0
C424 C 0.98715 0.494 0.02758 0.0
C425 C 0.96844 0.51573 0.05798 0.0
C426 C 0.96864 0.52688 0.15684 0.0
C427 C 0.98747 0.51534 0.22667 0.0
C428 C 1.00612 0.48292 0.09809 0.0
C429 C 1.00619 0.49358 0.19698 0.0
C430 C 0.96894 0.52204 0.64115 0.0
C431 C 0.98699 0.48386 0.92162 0.0
H432 H 0.09352 0.52212 0.37188 0.0
H433 H 0.05999 0.52884 0.07287 0.0
H434 H 0.02774 0.58292 0.3101 0.0
H435 H 0.02717 0.56654 0.13382 0.0
H436 H 0.95324 0.5236 1.00435 0.0
H437 H 0.98796 0.52327 0.30358 0.0
H438 H 0.021 0.4662 0.07699 0.0
H439 H 0.02114 0.48524 0.2503 0.0
H440 H 0.23766 0.04746 0.31427 0.0
H441 H 0.11411 0.07033 0.5841 0.0
H442 H 0.18542 0.05031 0.0505 0.0
H443 H 0.07242 1.0174 0.36031 0.0
H444 H 0.15606 0.07258 0.47616 0.0
H445 H 0.19462 0.04339 0.41821 0.0
C446 C 0.21705 0.04658 0.27812 0.0
C447 C 0.21528 0.0488 0.17339 0.0
C448 C 0.13788 0.06031 0.45031 0.0
C449 C 0.16524 0.04522 0.29287 0.0
C450 C 0.11365 0.05914 0.51202 0.0
C451 C 0.0896 0.04305 0.48325 0.0
C452 C 0.13848 0.04563 0.35693 0.0
C453 C 0.09041 0.02983 0.38678 0.0
C454 C 0.19238 0.04475 0.33758 0.0
C455 C 0.18783 0.04817 0.13074 0.0
N456 N 0.11439 0.03135 0.32739 0.0
N457 N 0.16394 0.04641 0.19038 0.0
H458 H 0.53682 0.22804 0.22272 0.0
H459 H 0.4662 0.08655 0.44698 0.0
H460 H 0.45113 0.20151 0.15668 0.0
H461 H 0.55301 0.11222 0.49996 0.0
H462 H 0.46016 0.12759 0.33772 0.0
H463 H 0.54361 0.18468 0.31926 0.0
C464 C 0.51965 0.21274 0.22709 0.0
C465 C 0.49344 0.21827 0.18155 0.0
C466 C 0.4806 0.12418 0.37277 0.0
C467 C 0.50075 0.16862 0.29305 0.0
C468 C 0.48408 0.10059 0.43454 0.0
C469 C 0.5102 0.09577 0.48204 0.0
C470 C 0.50357 0.14289 0.35697 0.0
C471 C 0.53248 0.11509 0.46494 0.0
C472 C 0.52337 0.18809 0.28287 0.0
C473 C 0.47164 0.19799 0.1909 0.0
N474 N 0.52871 0.13759 0.40383 0.0
N475 N 0.47571 0.17418 0.24569 0.0
H476 H 0.35087 0.45976 0.1965 0.0
H477 H 0.46652 0.5566 0.48386 0.0
H478 H 0.3332 0.54792 0.26523 0.0
H479 H 0.45602 0.46746 0.53929 0.0
H480 H 0.42292 0.55523 0.38064 0.0
H481 H 0.39476 0.46348 0.29523 0.0
C482 C 0.35625 0.47998 0.23209 0.0
C483 C 0.33786 0.5034 0.22346 0.0
C484 C 0.42994 0.53606 0.41644 0.0
C485 C 0.38894 0.50807 0.33591 0.0
C486 C 0.45466 0.53689 0.4764 0.0
C487 C 0.46418 0.51243 0.5249 0.0
C488 C 0.41514 0.51027 0.40118 0.0
C489 C 0.44895 0.48707 0.5066 0.0
C490 C 0.38139 0.48209 0.28856 0.0
C491 C 0.34663 0.52931 0.26922 0.0
N492 N 0.42536 0.48665 0.44663 0.0
N493 N 0.37143 0.53095 0.32333 0.0
H494 H 1.00567 0.32499 0.2611 0.0
H495 H 0.07 0.46293 0.5267 0.0
H496 H 0.08503 0.35885 0.15357 0.0
H497 H 0.98372 0.46742 0.42099 0.0
H498 H 0.07657 0.41844 0.42624 0.0
H499 H 0.99669 0.37081 0.35169 0.0
C500 C 0.02108 0.342 0.2553 0.0
C501 C 0.04642 0.33749 0.19985 0.0
C502 C 0.0561 0.42902 0.42581 0.0
C503 C 0.03678 0.38989 0.30809 0.0
C504 C 0.05227 0.45435 0.48386 0.0
C505 C 0.02601 0.46877 0.48476 0.0
C506 C 0.03335 0.41734 0.36955 0.0
C507 C 1.00413 0.45684 0.42464 0.0
C508 C 1.01605 0.36813 0.308 0.0
C509 C 0.06567 0.36063 0.19741 0.0
N510 N 1.00808 0.43175 0.37132 0.0
N511 N 0.06076 0.38531 0.25171 0.0
H512 H 0.82116 0.97303 0.10195 0.0
H513 H 0.98099 0.03271 0.01969 0.0
H514 H 0.85681 0.04103 0.28267 0.0
H515 H 0.93906 0.9743 0.81419 0.0
H516 H 0.939 0.03115 0.13095 0.0
H517 H 0.86685 0.96819 1.01142 0.0
C518 C 0.83897 0.98632 0.12467 0.0
C519 C 0.83532 1.00697 0.20176 0.0
C520 C 0.93906 0.01848 0.0619 0.0
C521 C 0.88784 1.00228 0.09594 0.0
C522 C 0.96322 0.0192 0.99841 0.0
C523 C 0.96377 1.00377 0.90633 0.0
C524 C 0.91509 1.00199 0.03425 0.0
C525 C 0.93975 0.98679 0.88355 0.0
C526 C 0.865 0.98385 0.07213 0.0
C527 C 0.85887 0.0244 0.22544 0.0
N528 N 0.91659 0.98649 0.94622 0.0
N529 N 0.88395 0.02174 0.17291 0.0
H530 H 0.57374 0.87229 0.29825 0.0
H531 H 0.50122 0.93705 0.8077 0.0
H532 H 0.51447 0.82611 0.11048 0.0
H533 H 0.56084 0.98375 0.99278 0.0
H534 H 0.5039 0.89736 0.92245 0.0
H535 H 0.56677 0.91461 0.19592 0.0
C536 C 0.5589 0.87129 0.23623 0.0
C537 C 0.54455 0.84577 0.2129 0.0
C538 C 0.51642 0.91628 0.93835 0.0
C539 C 0.53678 0.89389 0.09375 0.0
C540 C 0.51517 0.93889 0.87179 0.0
C541 C 0.5312 0.96375 0.88905 0.0
C542 C 0.53388 0.91833 0.02379 0.0
C543 C 0.54793 0.96523 0.97639 0.0
C544 C 0.55501 0.89536 0.17744 0.0
C545 C 0.52568 0.84547 0.13147 0.0
N546 N 0.54899 0.94286 0.03988 0.0
N547 N 0.52251 0.86901 0.07453 0.0
H548 H 0.71838 0.49622 0.11194 0.0
H549 H 0.57671 0.5751 0.91912 0.0
H550 H 0.69398 0.58089 0.20698 0.0
H551 H 0.59017 0.48525 0.87356 0.0
H552 H 0.6212 0.57812 0.01565 0.0
H553 H 0.67324 0.49167 0.01809 0.0
C554 C 0.70337 0.51368 0.11433 0.0
C555 C 0.71015 0.53902 0.1675 0.0
C556 C 0.61472 0.55775 0.98364 0.0
C557 C 0.65854 0.53431 0.05773 0.0
C558 C 0.58932 0.55609 0.92807 0.0
C559 C 0.58009 0.53007 0.88543 0.0
C560 C 0.63133 0.53318 0.99713 0.0
C561 C 0.59687 0.5059 0.9025 0.0
C562 C 0.67768 0.5112 0.05993 0.0
C563 C 0.68993 0.56112 0.16622 0.0
N564 N 0.62179 0.50809 0.9553 0.0
N565 N 0.66537 0.55834 0.11213 0.0
H566 H 0.0461 0.72031 0.12738 0.0
H567 H 0.97941 0.58214 0.86638 0.0
H568 H 0.96676 0.68672 0.2359 0.0
H569 H 0.0673 0.57931 0.95524 0.0
H570 H 0.97349 0.62647 0.96813 0.0
H571 H 0.05458 0.67467 0.03496 0.0
C572 C 0.03061 0.70337 0.13308 0.0
C573 C 1.00542 0.7079 0.18935 0.0
C574 C 0.99417 0.61631 0.96452 0.0
C575 C 1.01446 0.65573 0.07905 0.0
C576 C 0.99761 0.59108 0.90566 0.0
C577 C 0.02412 0.57718 0.89959 0.0
C578 C 1.01752 0.62842 0.01649 0.0
C579 C 0.04666 0.58952 0.95541 0.0
C580 C 0.03534 0.67735 0.07931 0.0
C581 C 0.98603 0.68488 0.19163 0.0
N582 N 0.04303 0.61451 1.00962 0.0
N583 N 0.99065 0.66032 0.13636 0.0
H584 H 0.1118 0.23121 0.02442 0.0
H585 H 0.06595 0.12784 0.44443 0.0
H586 H 0.0847 0.25276 0.32581 0.0
H587 H 0.0328 0.13479 0.14472 0.0
H588 H 0.10676 0.15736 0.39629 0.0
H589 H 0.11885 0.18179 0.07477 0.0
C590 C 0.10841 0.22573 0.10192 0.0
C591 C 0.09567 0.24519 0.16952 0.0
C592 C 0.09137 0.1509 0.33977 0.0
C593 C 0.10553 0.19008 0.22884 0.0
C594 C 0.06799 0.13439 0.36729 0.0
C595 C 0.04576 0.12972 0.29882 0.0
C596 C 0.09231 0.16231 0.24336 0.0
C597 C 0.04929 0.13853 0.20005 0.0
C598 C 0.11312 0.19783 0.13114 0.0
C599 C 0.09358 0.23794 0.27064 0.0
N600 N 0.07191 0.15479 0.17559 0.0
N601 N 0.09789 0.21069 0.29711 0.0
H602 H 0.29419 0.09636 0.27618 0.0
H603 H 0.42856 0.04458 0.09606 0.0
H604 H 0.32002 0.10784 0.96945 0.0
H605 H 0.4143 0.06592 0.40782 0.0
H606 H 0.39761 0.08351 0.04908 0.0
H607 H 0.34225 0.10605 0.33067 0.0
C608 C 0.30976 0.10227 0.22032 0.0
C609 C 0.30356 0.09976 0.1176 0.0
C610 C 0.40183 0.08049 0.12797 0.0
C611 C 0.35924 0.1085 0.17884 0.0
C612 C 0.4191 0.05791 0.15433 0.0
C613 C 0.42256 0.05133 0.25518 0.0
C614 C 0.38715 0.0959 0.20358 0.0
C615 C 0.41148 0.07002 0.32884 0.0
C616 C 0.33751 0.10755 0.25145 0.0
C617 C 0.32452 0.10791 0.04903 0.0
N618 N 0.39345 0.09104 0.30165 0.0
N619 N 0.35191 0.11067 0.08029 0.0
H620 H 0.44236 0.32969 0.0266 0.0
H621 H 0.50604 0.4526 0.37757 0.0
H622 H 0.48793 0.3158 0.30063 0.0
H623 H 0.51604 0.45135 0.05425 0.0
H624 H 0.4772 0.41002 0.36356 0.0
H625 H 0.44767 0.3814 0.05485 0.0
C626 C 0.45248 0.33763 0.09456 0.0
C627 C 0.46556 0.31876 0.15992 0.0
C628 C 0.48522 0.41954 0.29575 0.0
C629 C 0.47046 0.37706 0.19481 0.0
C630 C 0.50181 0.44399 0.30321 0.0
C631 C 0.51438 0.45552 0.21704 0.0
C632 C 0.48086 0.40651 0.20163 0.0
C633 C 0.50773 0.44283 0.12322 0.0
C634 C 0.45546 0.36694 0.11051 0.0
C635 C 0.47771 0.32977 0.24844 0.0
N636 N 0.4917 0.41874 0.11807 0.0
N637 N 0.48026 0.3583 0.26275 0.0
H638 H 0.23458 0.48581 0.31704 0.0
H639 H 0.09083 0.47197 0.30785 0.0
H640 H 0.23515 0.45106 0.01511 0.0
H641 H 0.11418 0.52331 0.05637 0.0
H642 H 0.13571 0.44578 0.28784 0.0
H643 H 0.18299 0.47909 0.32405 0.0
C644 C 0.22392 0.4755 0.25399 0.0
C645 C 0.23881 0.46929 0.16498 0.0
C646 C 0.13034 0.46201 0.23479 0.0
C647 C 0.18007 0.463 0.17026 0.0
C648 C 0.10493 0.47701 0.24621 0.0
C649 C 0.09936 0.50038 0.18562 0.0
C650 C 0.14989 0.47029 0.16147 0.0
C651 C 0.11793 0.50575 0.10563 0.0
C652 C 0.19454 0.47183 0.2576 0.0
C653 C 0.22403 0.45665 0.08411 0.0
N654 N 0.14282 0.49118 0.09718 0.0
N655 N 0.19513 0.45516 0.08664 0.0
H656 H 0.93935 0.81396 0.36276 0.0
H657 H 0.02232 0.91033 0.23786 0.0
H658 H 0.96927 0.79307 0.06415 0.0
H659 H 0.9859 0.91582 0.94258 0.0
H660 H 0.98064 0.88449 0.29272 0.0
H661 H 0.93196 0.86334 0.31209 0.0
C662 C 0.94338 0.81959 0.28577 0.0
C663 C 0.95682 0.80034 0.21918 0.0
C664 C 0.98102 0.89222 0.2169 0.0
C665 C 0.94763 0.85554 0.1603 0.0
C666 C 1.00497 0.90684 0.18554 0.0
C667 C 1.00761 0.91464 0.08542 0.0
C668 C 0.96058 0.88353 0.14587 0.0
C669 C 0.98466 0.90967 0.02031 0.0
C670 C 0.93864 0.84749 0.25639 0.0
C671 C 0.9599 0.80779 0.1186 0.0
N672 N 0.96254 0.89323 0.05047 0.0
N673 N 0.95596 0.8351 0.09248 0.0
H674 H 0.7114 1.01329 0.21288 0.0
H675 H 0.59239 0.097 0.222 0.0
H676 H 0.7599 0.09106 0.22447 0.0
H677 H 0.64242 0.14774 0.02173 0.0
H678 H 0.63646 0.07523 0.28278 0.0
H679 H 0.66771 0.04099 0.19366 0.0
C680 C 0.71269 0.03626 0.21091 0.0
C681 C 0.73895 0.0501 0.22115 0.0
C682 C 0.63769 0.09154 0.22691 0.0
C683 C 0.68953 0.08179 0.19934 0.0
C684 C 0.61276 0.10425 0.19374 0.0
C685 C 0.61409 0.12401 0.11698 0.0
C686 C 0.66382 0.09874 0.1825 0.0
C687 C 0.64081 0.13251 0.08116 0.0
C688 C 0.68788 0.05202 0.2013 0.0
C689 C 0.73989 0.07982 0.2163 0.0
N690 N 0.66478 0.11957 0.11357 0.0
N691 N 0.71542 0.09481 0.20472 0.0
H692 H 0.59991 0.74485 0.42276 0.0
H693 H 0.58281 0.62359 1.01044 0.0
H694 H 0.58943 0.75742 0.10621 0.0
H695 H 0.56161 0.6187 0.32512 0.0
H696 H 0.60923 0.66728 0.04728 0.0
H697 H 0.61153 0.69476 0.38692 0.0
C698 C 0.60155 0.73733 0.34541 0.0
C699 C 0.59299 0.7548 0.26742 0.0
C700 C 0.5994 0.65608 0.10852 0.0
C701 C 0.6058 0.698 0.22582 0.0
C702 C 0.58386 0.63131 0.08756 0.0
C703 C 0.56825 0.61814 0.16411 0.0
C704 C 0.59968 0.66751 0.20683 0.0
C705 C 0.57237 0.62829 0.26307 0.0
C706 C 0.60801 0.70879 0.3249 0.0
C707 C 0.59557 0.74438 0.16831 0.0
N708 N 0.58711 0.65267 0.28132 0.0
N709 N 0.60097 0.71636 0.15029 0.0
H710 H 0.81073 0.56126 0.0682 0.0
H711 H 0.93726 0.5306 0.33089 0.0
H712 H 0.81251 0.59466 0.37183 0.0
H713 H 0.9508 0.5727 0.05006 0.0
H714 H 0.89338 0.55779 0.35467 0.0
H715 H 0.86188 0.56997 0.05384 0.0
C716 C 0.82178 0.5716 0.13031 0.0
C717 C 0.8078 0.57675 0.22192 0.0
C718 C 0.90642 0.5615 0.28933 0.0
C719 C 0.86613 0.58534 0.20815 0.0
C720 C 0.93153 0.5461 0.27567 0.0
C721 C 0.94724 0.5487 0.18661 0.0
C722 C 0.89666 0.5788 0.21252 0.0
C723 C 0.93871 0.5693 0.11806 0.0
C724 C 0.85093 0.57647 0.12244 0.0
C725 C 0.82298 0.58971 0.30104 0.0
N726 N 0.91335 0.58279 0.1304 0.0
N727 N 0.85172 0.59246 0.29409 0.0
H728 H 1.01623 0.22437 0.14799 0.0
H729 H 0.06367 0.10403 0.73238 0.0
H730 H 0.07386 0.24283 0.90675 0.0
H731 H 0.98419 0.09988 0.89337 0.0
H732 H 0.07233 0.15161 0.81103 0.0
H733 H 1.00742 0.17687 0.06983 0.0
C734 C 0.02677 0.21863 0.07794 0.0
C735 C 0.04571 0.23804 0.03403 0.0
C736 C 0.05306 0.14022 0.82974 0.0
C737 C 0.03683 0.18242 0.94543 0.0
C738 C 0.04823 0.11278 0.78527 0.0
C739 C 0.02323 0.09732 0.8066 0.0
C740 C 0.03296 0.15261 0.89738 0.0
C741 C 1.00386 0.11059 0.87465 0.0
C742 C 0.02201 0.19125 0.0336 0.0
C743 C 0.05907 0.2288 0.9436 0.0
N744 N 1.00917 0.13694 0.91752 0.0
N745 N 0.05475 0.20187 0.90359 0.0
H746 H 0.29937 0.06033 0.8498 0.0
H747 H 0.46016 1.0018 0.91387 0.0
H748 H 0.33094 0.03151 0.13189 0.0
H749 H 0.43361 0.0502 0.66121 0.0
H750 H 0.41218 1.00742 0.98759 0.0
H751 H 0.34682 0.05225 0.77432 0.0
C752 C 0.31612 0.05154 0.89515 0.0
C753 C 0.31079 0.04601 0.99689 0.0
C754 C 0.41703 1.01765 0.91764 0.0
C755 C 0.36597 0.03704 0.91101 0.0
C756 C 0.44457 1.01449 0.87546 0.0
C757 C 0.45168 0.02674 0.78322 0.0
C758 C 0.39593 0.03317 0.86778 0.0
C759 C 0.42975 0.04149 0.73454 0.0
C760 C 0.34341 0.04725 0.85237 0.0
C761 C 0.33376 0.03545 0.05275 0.0
N762 N 0.40322 0.04446 0.7774 0.0
N763 N 0.36009 0.03126 1.00933 0.0
H764 H 0.47022 0.30178 0.8767 0.0
H765 H 0.5643 0.44042 0.79755 0.0
H766 H 0.53678 0.32211 0.087 0.0
H767 H 0.47266 0.44336 0.78482 0.0
H768 H 0.56118 0.39181 0.86246 0.0
H769 H 0.47816 0.34781 0.79626 0.0
C770 C 0.48735 0.31544 0.90297 0.0
C771 C 0.50316 0.30795 0.98751 0.0
C772 C 0.54182 0.40311 0.84482 0.0
C773 C 0.51225 0.36074 0.89673 0.0
C774 C 0.54355 0.43078 0.80747 0.0
C775 C 0.51868 0.4461 0.78581 0.0
C776 C 0.51509 0.39017 0.85722 0.0
C777 C 0.49237 0.43248 0.80081 0.0
C778 C 0.49153 0.34187 0.85836 0.0
C779 C 0.52454 0.32686 0.02085 0.0
N780 N 0.49128 0.40528 0.8344 0.0
N781 N 0.52847 0.35238 0.97557 0.0
H782 H 0.22687 0.54153 0.1435 0.0
H783 H 0.12006 0.47991 0.73795 0.0
H784 H 0.25789 0.49009 0.8954 0.0
H785 H 0.10954 0.5666 0.84369 0.0
H786 H 0.16786 0.47947 0.8129 0.0
H787 H 0.18179 0.54861 0.0523 0.0
C788 C 0.22461 0.53265 0.06814 0.0
C789 C 0.24662 0.51586 0.02598 0.0
C790 C 0.15524 0.49872 0.81874 0.0
C791 C 0.19422 0.52239 0.92322 0.0
C792 C 0.12786 0.499 0.77599 0.0
C793 C 0.11067 0.52352 0.78247 0.0
C794 C 0.16556 0.52283 0.87177 0.0
C795 C 0.12205 0.5474 0.83456 0.0
C796 C 0.19871 0.53637 0.01662 0.0
C797 C 0.24189 0.50381 0.92961 0.0
N798 N 0.14845 0.54634 0.87813 0.0
N799 N 0.21618 0.50678 0.88271 0.0
H800 H 0.9772 0.80161 0.48281 0.0
H801 H 0.06924 0.94692 0.49081 0.0
H802 H 0.03621 0.82141 0.24723 0.0
H803 H 0.99099 0.93985 0.65759 0.0
H804 H 0.06034 0.89994 0.41199 0.0
H805 H 0.98516 0.84932 0.55952 0.0
C806 C 0.99225 0.81581 0.44798 0.0
C807 C 1.00609 0.80705 0.35814 0.0
C808 C 0.04495 0.90855 0.46533 0.0
C809 C 1.01567 0.86253 0.44717 0.0
C810 C 0.04998 0.93561 0.51058 0.0
C811 C 0.03072 0.94808 0.58051 0.0
C812 C 0.02078 0.8926 0.49172 0.0
C813 C 1.00635 0.93172 0.60325 0.0
C814 C 0.99664 0.84327 0.49161 0.0
C815 C 0.02525 0.82678 0.31676 0.0
N816 N 1.00228 0.90501 0.56002 0.0
N817 N 0.0295 0.85322 0.36143 0.0
H818 H 0.73426 0.96959 0.37188 0.0
H819 H 0.60424 0.06403 0.58007 0.0
H820 H 0.74217 0.05911 0.44001 0.0
H821 H 0.6111 0.9765 0.66339 0.0
H822 H 0.65228 0.06117 0.50573 0.0
H823 H 0.68783 0.96958 0.46106 0.0
C824 C 0.72674 0.98901 0.40843 0.0
C825 C 0.74247 1.01434 0.39919 0.0
C826 C 0.64327 0.04247 0.53959 0.0
C827 C 0.68851 1.01485 0.49713 0.0
C828 C 0.61567 0.04404 0.58121 0.0
C829 C 0.60306 0.02019 0.62498 0.0
C830 C 0.65878 1.01683 0.54139 0.0
C831 C 0.61957 0.99518 0.62785 0.0
C832 C 0.7 0.98911 0.45807 0.0
C833 C 0.73101 0.03907 0.44577 0.0
N834 N 0.64625 0.994 0.58544 0.0
N835 N 0.70477 0.03881 0.49056 0.0
H836 H 0.538 0.72625 0.23386 0.0
H837 H 0.48965 0.63114 0.68148 0.0
H838 H 0.53579 0.76736 0.52607 0.0
H839 H 0.56352 0.60774 0.50478 0.0
H840 H 0.49133 0.67901 0.60917 0.0
H841 H 0.53087 0.68 0.31308 0.0
C842 C 0.53525 0.72559 0.31453 0.0
C843 C 0.53767 0.75069 0.37351 0.0
C844 C 0.50708 0.66329 0.58651 0.0
C845 C 0.52905 0.69784 0.46458 0.0
C846 C 0.50613 0.63593 0.62731 0.0
C847 C 0.52634 0.61508 0.59861 0.0
C848 C 0.52788 0.66966 0.51431 0.0
C849 C 0.54738 0.62288 0.529 0.0
C850 C 0.53143 0.69921 0.35965 0.0
C851 C 0.5339 0.74856 0.47795 0.0
N852 N 0.54736 0.64927 0.48852 0.0
N853 N 0.52983 0.72262 0.52033 0.0
H854 H 0.82206 0.50359 0.24333 0.0
H855 H 0.92851 0.56424 0.65385 0.0
H856 H 0.79131 0.55525 0.4913 0.0
H857 H 0.94064 0.47909 0.53496 0.0
H858 H 0.88038 0.56443 0.5814 0.0
H859 H 0.86708 0.49624 0.33475 0.0
C860 C 0.8244 0.51254 0.31854 0.0
C861 C 0.80247 0.52944 0.3607 0.0
C862 C 0.8934 0.54553 0.57222 0.0
C863 C 0.85475 0.52244 0.46412 0.0
C864 C 0.92099 0.54543 0.61343 0.0
C865 C 0.93873 0.52141 0.6025 0.0
C866 C 0.88345 0.52183 0.51583 0.0
C867 C 0.9277 0.49787 0.54746 0.0
C868 C 0.85023 0.50861 0.37038 0.0
C869 C 0.80727 0.54152 0.457 0.0
N870 N 0.90112 0.49883 0.50513 0.0
N871 N 0.8329 0.53827 0.50426 0.0
loop_
_geom_bond_atom_site_label_1
_geom_bond_atom_site_label_2
_geom_bond_distance
_geom_bond_site_symmetry_2
_ccdc_geom_bond_type
C0 N1 1.317 . S
C0 N2 1.348 . S
C0 C3 1.485 . S
N1 C0 1.317 . S
N1 N5 1.370 . S
N2 C0 1.348 . S
N2 C4 1.346 . S
C3 C0 1.485 . S
C3 H7 0.960 . S
C3 H8 0.961 . S
C3 H9 0.960 . S
C4 N2 1.346 . S
C4 N5 1.307 . S
C4 C6 1.486 . S
N5 N1 1.370 . S
N5 C4 1.307 . S
C6 C4 1.486 . S
C6 H10 0.960 . S
C6 H11 0.960 . S
C6 H12 0.959 . S
H7 C3 0.960 . S
H8 C3 0.961 . S
H9 C3 0.960 . S
H10 C6 0.960 . S
H11 C6 0.960 . S
H12 C6 0.959 . S
C13 N14 1.317 . S
C13 N15 1.348 . S
C13 C16 1.485 . S
N14 C13 1.317 . S
N14 N18 1.370 . S
N15 C13 1.348 . S
N15 C17 1.346 . S
C16 C13 1.485 . S
C16 H20 0.960 . S
C16 H21 0.961 . S
C16 H22 0.960 . S
C17 N15 1.346 . S
C17 N18 1.307 . S
C17 C19 1.486 . S
N18 N14 1.370 . S
N18 C17 1.307 . S
C19 C17 1.486 . S
C19 H23 0.960 . S
C19 H24 0.960 . S
C19 H25 0.959 . S
H20 C16 0.960 . S
H21 C16 0.961 . S
H22 C16 0.960 . S
H23 C19 0.960 . S
H24 C19 0.960 . S
H25 C19 0.959 . S
C26 N27 1.317 . S
C26 N28 1.348 . S
C26 C29 1.485 . S
N27 C26 1.317 . S
N27 N31 1.370 . S
N28 C26 1.348 . S
N28 C30 1.346 . S
C29 C26 1.485 . S
C29 H33 0.960 . S
C29 H34 0.961 . S
C29 H35 0.960 . S
C30 N28 1.346 . S
C30 N31 1.307 . S
C30 C32 1.486 . S
N31 N27 1.370 . S
N31 C30 1.307 . S
C32 C30 1.486 . S
C32 H36 0.960 . S
C32 H37 0.960 . S
C32 H38 0.959 . S
H33 C29 0.960 . S
H34 C29 0.961 . S
H35 C29 0.960 . S
H36 C32 0.960 . S
H37 C32 0.960 . S
H38 C32 0.959 . S
C39 N40 1.317 . S
C39 N41 1.348 . S
C39 C42 1.485 . S
N40 C39 1.317 . S
N40 N44 1.370 . S
N41 C39 1.348 . S
N41 C43 1.346 . S
C42 C39 1.485 . S
C42 H46 0.960 . S
C42 H47 0.961 . S
C42 H48 0.960 . S
C43 N41 1.346 . S
C43 N44 1.307 . S
C43 C45 1.486 . S
N44 N40 1.370 . S
N44 C43 1.307 . S
C45 C43 1.486 . S
C45 H49 0.960 . S
C45 H50 0.960 . S
C45 H51 0.959 . S
H46 C42 0.960 . S
H47 C42 0.961 . S
H48 C42 0.960 . S
H49 C45 0.960 . S
H50 C45 0.960 . S
H51 C45 0.959 . S
C52 N53 1.317 . S
C52 N54 1.348 1_556 S
C52 C55 1.485 . S
N53 C52 1.317 . S
N53 N57 1.370 1_556 S
N54 C52 1.348 1_554 S
N54 C56 1.346 . S
C55 C52 1.485 . S
C55 H59 0.960 . S
C55 H60 0.961 . S
C55 H61 0.960 . S
C56 N54 1.346 . S
C56 N57 1.307 . S
C56 C58 1.486 . S
N57 N53 1.370 1_554 S
N57 C56 1.307 . S
C58 C56 1.486 . S
C58 H62 0.960 . S
C58 H63 0.960 . S
C58 H64 0.959 . S
H59 C55 0.960 . S
H60 C55 0.961 . S
H61 C55 0.960 . S
H62 C58 0.960 . S
H63 C58 0.960 . S
H64 C58 0.959 . S
C65 N66 1.317 . S
C65 N67 1.348 1_556 S
C65 C68 1.485 . S
N66 C65 1.317 . S
N66 N70 1.370 1_556 S
N67 C65 1.348 1_554 S
N67 C69 1.346 . S
C68 C65 1.485 . S
C68 H72 0.960 . S
C68 H73 0.961 . S
C68 H74 0.960 . S
C69 N67 1.346 . S
C69 N70 1.307 . S
C69 C71 1.486 . S
N70 N66 1.370 1_554 S
N70 C69 1.307 . S
C71 C69 1.486 . S
C71 H75 0.960 . S
C71 H76 0.960 . S
C71 H77 0.959 . S
H72 C68 0.960 . S
H73 C68 0.961 . S
H74 C68 0.960 . S
H75 C71 0.960 . S
H76 C71 0.960 . S
H77 C71 0.959 . S
C78 N79 1.317 . S
C78 N80 1.348 1_556 S
C78 C81 1.485 . S
N79 C78 1.317 . S
N79 N83 1.370 1_556 S
N80 C78 1.348 1_554 S
N80 C82 1.346 . S
C81 C78 1.485 . S
C81 H85 0.960 . S
C81 H86 0.961 . S
C81 H87 0.960 . S
C82 N80 1.346 . S
C82 N83 1.307 . S
C82 C84 1.486 . S
N83 N79 1.370 1_554 S
N83 C82 1.307 . S
C84 C82 1.486 . S
C84 H88 0.960 . S
C84 H89 0.960 . S
C84 H90 0.959 . S
H85 C81 0.960 . S
H86 C81 0.961 . S
H87 C81 0.960 . S
H88 C84 0.960 . S
H89 C84 0.960 . S
H90 C84 0.959 . S
C91 N92 1.317 . S
C91 N93 1.348 1_556 S
C91 C94 1.485 . S
N92 C91 1.317 . S
N92 N96 1.370 1_556 S
N93 C91 1.348 1_554 S
N93 C95 1.346 . S
C94 C91 1.485 . S
C94 H98 0.960 . S
C94 H99 0.961 . S
C94 H100 0.960 . S
C95 N93 1.346 . S
C95 N96 1.307 . S
C95 C97 1.486 . S
N96 N92 1.370 1_554 S
N96 C95 1.307 . S
C97 C95 1.486 . S
C97 H101 0.960 . S
C97 H102 0.960 . S
C97 H103 0.959 . S
H98 C94 0.960 . S
H99 C94 0.961 . S
H100 C94 0.960 . S
H101 C97 0.960 . S
H102 C97 0.960 . S
H103 C97 0.959 . S
Tb104 N135 2.660 1_565 S
Tb104 N142 2.600 1_565 S
Tb104 O148 2.546 . S
Tb104 O149 2.610 1_455 S
Tb104 O151 2.320 1_455 S
Tb104 O152 2.552 . S
Tb104 O153 2.413 . S
Tb104 O155 2.362 1_565 S
Tb104 O156 2.421 . S
Tb104 C168 2.833 . S
C105 C108 1.432 1_545 S
C105 C109 1.414 1_545 S
C105 N112 1.359 . S
C106 C108 1.417 . S
C106 C110 1.432 . S
C106 C118 1.410 . S
C107 C109 1.444 . S
C107 C110 1.317 . S
C107 H130 0.929 . S
C108 C105 1.432 1_565 S
C108 C106 1.417 . S
C108 N116 1.360 . S
C109 C105 1.414 1_565 S
C109 C107 1.444 . S
C109 C114 1.385 1_565 S
C110 C106 1.432 . S
C110 C107 1.317 . S
C110 H122 0.930 . S
C111 C113 1.392 . S
C111 C114 1.370 . S
C111 H123 0.931 . S
N112 C105 1.359 . S
N112 C113 1.327 . S
N112 Tb115 2.600 . S
C113 C111 1.392 . S
C113 N112 1.327 . S
C113 H120 0.930 . S
C114 C109 1.385 1_545 S
C114 C111 1.370 . S
C114 H133 0.930 . S
Tb115 N112 2.600 . S
Tb115 N116 2.660 1_545 S
Tb115 O149 2.362 1_545 S
Tb115 O150 2.421 . S
Tb115 O154 2.546 . S
Tb115 O155 2.610 1_655 S
Tb115 O157 2.320 1_655 S
Tb115 O158 2.552 1_655 S
Tb115 O159 2.413 . S
Tb115 C179 2.833 . S
N116 C108 1.360 . S
N116 Tb115 2.660 1_565 S
N116 C117 1.305 1_655 S
C117 N116 1.305 1_455 S
C117 C119 1.407 . S
C117 H124 0.930 . S
C118 C106 1.410 . S
C118 C119 1.345 1_655 S
C118 H126 0.930 . S
C119 C117 1.407 . S
C119 C118 1.345 1_455 S
C119 H121 0.930 . S
H120 C113 0.930 . S
H121 C119 0.930 . S
H122 C110 0.930 . S
H123 C111 0.931 . S
H124 C117 0.930 . S
H125 C139 0.930 1_655 S
H126 C118 0.930 . S
H127 C145 0.930 . S
H128 C136 0.930 1_655 S
H129 C143 0.931 . S
H130 C107 0.929 . S
H131 C137 0.930 . S
H132 C170 0.930 . S
H133 C114 0.930 . S
H134 C169 0.929 . S
N135 Tb104 2.660 1_545 S
N135 C136 1.305 . S
N135 C140 1.360 . S
C136 H128 0.930 1_455 S
C136 N135 1.305 . S
C136 C139 1.407 1_556 S
C137 H131 0.930 . S
C137 C138 1.410 . S
C137 C139 1.345 . S
C138 C137 1.410 . S
C138 C140 1.417 1_554 S
C138 C170 1.432 . S
C139 H125 0.930 1_455 S
C139 C136 1.407 1_554 S
C139 C137 1.345 . S
C140 N135 1.360 . S
C140 C138 1.417 1_556 S
C140 C144 1.432 . S
H141 C146 0.930 . S
N142 Tb104 2.600 1_545 S
N142 C144 1.359 . S
N142 C145 1.327 1_545 S
C143 H129 0.931 . S
C143 C145 1.392 . S
C143 C146 1.370 1_565 S
C144 C140 1.432 . S
C144 N142 1.359 . S
C144 C147 1.414 . S
C145 H127 0.930 . S
C145 N142 1.327 1_565 S
C145 C143 1.392 . S
C146 H141 0.930 . S
C146 C143 1.370 1_545 S
C146 C147 1.385 . S
C147 C144 1.414 . S
C147 C146 1.385 . S
C147 C169 1.444 1_556 S
O148 Tb104 2.546 . S
O148 C168 1.251 . S
O149 Tb104 2.610 1_655 S
O149 Tb115 2.362 1_565 S
O149 C160 1.283 . S
O150 Tb115 2.421 . S
O150 C167 1.262 . S
O151 Tb104 2.320 1_655 S
O151 C167 1.260 1_565 S
O152 Tb104 2.552 . S
O152 C160 1.243 1_455 S
O153 Tb104 2.413 . S
O153 C168 1.256 . S
O154 Tb115 2.546 . S
O154 C179 1.251 . S
O155 Tb104 2.362 1_545 S
O155 Tb115 2.610 1_455 S
O155 C171 1.283 . S
O156 Tb104 2.421 . S
O156 C178 1.262 1_565 S
O157 Tb115 2.320 1_455 S
O157 C178 1.260 . S
O158 Tb115 2.552 1_455 S
O158 C171 1.243 . S
O159 Tb115 2.413 . S
O159 C179 1.256 . S
C160 O149 1.283 . S
C160 O152 1.243 1_655 S
C161 C163 1.380 1_556 S
C161 C165 1.393 . S
C161 C168 1.500 . S
C162 C163 1.403 . S
C162 C164 1.384 . S
C163 C161 1.380 1_554 S
C163 C162 1.403 . S
C163 H180 0.929 1_554 S
C164 C162 1.384 . S
C164 C166 1.392 . S
C164 H181 0.931 . S
C165 C161 1.393 . S
C165 C166 1.401 1_556 S
C165 H182 0.930 . S
C166 C164 1.392 . S
C166 C165 1.401 1_554 S
C166 H183 0.930 . S
C167 O150 1.262 . S
C167 O151 1.260 1_545 S
C168 Tb104 2.833 . S
C168 O148 1.251 . S
C168 O153 1.256 . S
C168 C161 1.500 . S
C169 H134 0.929 . S
C169 C147 1.444 1_554 S
C169 C170 1.317 . S
C170 H132 0.930 . S
C170 C138 1.432 . S
C170 C169 1.317 . S
C171 O155 1.283 . S
C171 O158 1.243 . S
C172 C173 1.382 . S
C172 C176 1.393 . S
C172 C179 1.500 . S
C173 C172 1.382 . S
C173 C174 1.400 . S
C173 H184 0.930 1_655 S
C174 C173 1.400 . S
C174 C175 1.384 . S
C175 C174 1.384 . S
C175 C177 1.392 . S
C175 H185 0.931 . S
C176 C172 1.393 . S
C176 C177 1.401 . S
C176 H186 0.930 . S
C177 C175 1.392 . S
C177 C176 1.401 . S
C177 H187 0.930 . S
C178 O156 1.262 1_545 S
C178 O157 1.260 . S
C179 Tb115 2.833 . S
C179 O154 1.251 . S
C179 O159 1.256 . S
C179 C172 1.500 . S
H180 C163 0.929 1_556 S
H181 C164 0.931 . S
H182 C165 0.930 . S
H183 C166 0.930 . S
H184 C173 0.930 1_455 S
H185 C175 0.931 . S
H186 C176 0.930 . S
H187 C177 0.930 . S
Tb188 N219 2.660 . S
Tb188 N226 2.600 . S
Tb188 O232 2.546 . S
Tb188 O233 2.610 1_545 S
Tb188 O235 2.320 1_545 S
Tb188 O236 2.552 . S
Tb188 O237 2.413 . S
Tb188 O239 2.362 . S
Tb188 O240 2.421 . S
Tb188 C252 2.833 . S
C189 C192 1.432 . S
C189 C193 1.414 . S
C189 N196 1.359 . S
C190 C192 1.417 . S
C190 C194 1.432 . S
C190 C202 1.410 . S
C191 C193 1.444 . S
C191 C194 1.317 . S
C191 H214 0.929 . S
C192 C189 1.432 . S
C192 C190 1.417 . S
C192 N200 1.360 . S
C193 C189 1.414 . S
C193 C191 1.444 . S
C193 C198 1.385 . S
C194 C190 1.432 . S
C194 C191 1.317 . S
C194 H206 0.930 . S
C195 C197 1.392 . S
C195 C198 1.370 . S
C195 H207 0.931 . S
N196 C189 1.359 . S
N196 C197 1.327 . S
N196 Tb199 2.600 . S
C197 C195 1.392 . S
C197 N196 1.327 . S
C197 H204 0.930 . S
C198 C193 1.385 . S
C198 C195 1.370 . S
C198 H217 0.930 . S
Tb199 N196 2.600 . S
Tb199 N200 2.660 . S
Tb199 O233 2.362 . S
Tb199 O234 2.421 . S
Tb199 O238 2.546 . S
Tb199 O239 2.610 1_565 S
Tb199 O241 2.320 1_565 S
Tb199 O242 2.552 1_565 S
Tb199 O243 2.413 . S
Tb199 C263 2.833 . S
N200 C192 1.360 . S
N200 Tb199 2.660 . S
N200 C201 1.305 1_565 S
C201 N200 1.305 1_545 S
C201 C203 1.407 . S
C201 H208 0.930 . S
C202 C190 1.410 . S
C202 C203 1.345 1_565 S
C202 H210 0.930 . S
C203 C201 1.407 . S
C203 C202 1.345 1_545 S
C203 H205 0.930 . S
H204 C197 0.930 . S
H205 C203 0.930 . S
H206 C194 0.930 . S
H207 C195 0.931 . S
H208 C201 0.930 . S
H209 C223 0.930 1_565 S
H210 C202 0.930 . S
H211 C229 0.930 . S
H212 C220 0.930 1_565 S
H213 C227 0.931 . S
H214 C191 0.929 . S
H215 C221 0.930 . S
H216 C254 0.930 . S
H217 C198 0.930 . S
H218 C253 0.929 . S
N219 Tb188 2.660 . S
N219 C220 1.305 . S
N219 C224 1.360 . S
C220 H212 0.930 1_545 S
C220 N219 1.305 . S
C220 C223 1.407 1_556 S
C221 H215 0.930 . S
C221 C222 1.410 . S
C221 C223 1.345 . S
C222 C221 1.410 . S
C222 C224 1.417 1_554 S
C222 C254 1.432 . S
C223 H209 0.930 1_545 S
C223 C220 1.407 1_554 S
C223 C221 1.345 . S
C224 N219 1.360 . S
C224 C222 1.417 1_556 S
C224 C228 1.432 . S
H225 C230 0.930 . S
N226 Tb188 2.600 . S
N226 C228 1.359 . S
N226 C229 1.327 . S
C227 H213 0.931 . S
C227 C229 1.392 . S
C227 C230 1.370 . S
C228 C224 1.432 . S
C228 N226 1.359 . S
C228 C231 1.414 . S
C229 H211 0.930 . S
C229 N226 1.327 . S
C229 C227 1.392 . S
C230 H225 0.930 . S
C230 C227 1.370 . S
C230 C231 1.385 . S
C231 C228 1.414 . S
C231 C230 1.385 . S
C231 C253 1.444 1_556 S
O232 Tb188 2.546 . S
O232 C252 1.251 . S
O233 Tb188 2.610 1_565 S
O233 Tb199 2.362 . S
O233 C244 1.284 . S
O234 Tb199 2.421 . S
O234 C251 1.262 . S
O235 Tb188 2.320 1_565 S
O235 C251 1.260 . S
O236 Tb188 2.552 . S
O236 C244 1.226 1_545 S
O237 Tb188 2.413 . S
O237 C252 1.256 . S
O238 Tb199 2.546 . S
O238 C263 1.251 . S
O239 Tb188 2.362 . S
O239 Tb199 2.610 1_545 S
O239 C255 1.283 . S
O240 Tb188 2.421 . S
O240 C262 1.262 . S
O241 Tb199 2.320 1_545 S
O241 C262 1.260 . S
O242 Tb199 2.552 1_545 S
O242 C255 1.243 . S
O243 Tb199 2.413 . S
O243 C263 1.256 . S
C244 O233 1.284 . S
C244 O236 1.226 1_565 S
C245 C247 1.382 1_556 S
C245 C249 1.393 . S
C245 C252 1.500 . S
C246 C247 1.400 . S
C246 C248 1.384 . S
C247 C245 1.382 1_554 S
C247 C246 1.400 . S
C247 H264 0.930 1_554 S
C248 C246 1.384 . S
C248 C250 1.392 . S
C248 H265 0.931 . S
C249 C245 1.393 . S
C249 C250 1.401 1_556 S
C249 H266 0.930 . S
C250 C248 1.392 . S
C250 C249 1.401 1_554 S
C250 H267 0.930 . S
C251 O234 1.262 . S
C251 O235 1.260 . S
C252 Tb188 2.833 . S
C252 O232 1.251 . S
C252 O237 1.256 . S
C252 C245 1.500 . S
C253 H218 0.929 . S
C253 C231 1.444 1_554 S
C253 C254 1.317 . S
C254 H216 0.930 . S
C254 C222 1.432 . S
C254 C253 1.317 . S
C255 O239 1.283 . S
C255 O242 1.243 . S
C256 C257 1.382 . S
C256 C260 1.393 . S
C256 C263 1.500 . S
C257 C256 1.382 . S
C257 C258 1.400 . S
C257 H268 0.930 1_565 S
C258 C257 1.400 . S
C258 C259 1.384 . S
C259 C258 1.384 . S
C259 C261 1.392 . S
C259 H269 0.931 . S
C260 C256 1.393 . S
C260 C261 1.401 . S
C260 H270 0.930 . S
C261 C259 1.392 . S
C261 C260 1.401 . S
C261 H271 0.930 . S
C262 O240 1.262 . S
C262 O241 1.260 . S
C263 Tb199 2.833 . S
C263 O238 1.251 . S
C263 O243 1.256 . S
C263 C256 1.500 . S
H264 C247 0.930 1_556 S
H265 C248 0.931 . S
H266 C249 0.930 . S
H267 C250 0.930 . S
H268 C257 0.930 1_545 S
H269 C259 0.931 . S
H270 C260 0.930 . S
H271 C261 0.930 . S
Tb272 N303 2.660 . S
Tb272 N310 2.600 . S
Tb272 O316 2.546 . S
Tb272 O317 2.610 . S
Tb272 O319 2.320 . S
Tb272 O320 2.552 . S
Tb272 O321 2.413 . S
Tb272 O323 2.362 . S
Tb272 O324 2.421 . S
Tb272 C336 2.833 . S
C273 C276 1.432 . S
C273 C277 1.414 . S
C273 N280 1.359 . S
C274 C276 1.417 . S
C274 C278 1.432 . S
C274 C286 1.410 . S
C275 C277 1.444 . S
C275 C278 1.317 . S
C275 H298 0.929 . S
C276 C273 1.432 . S
C276 C274 1.417 . S
C276 N284 1.360 . S
C277 C273 1.414 . S
C277 C275 1.444 . S
C277 C282 1.385 . S
C278 C274 1.432 . S
C278 C275 1.317 . S
C278 H290 0.930 . S
C279 C281 1.392 . S
C279 C282 1.370 . S
C279 H291 0.931 1_556 S
N280 C273 1.359 . S
N280 C281 1.327 . S
N280 Tb283 2.600 . S
C281 C279 1.392 . S
C281 N280 1.327 . S
C281 H288 0.930 . S
C282 C277 1.385 . S
C282 C279 1.370 . S
C282 H301 0.930 . S
Tb283 N280 2.600 . S
Tb283 N284 2.660 . S
Tb283 O317 2.362 . S
Tb283 O318 2.421 . S
Tb283 O322 2.546 . S
Tb283 O323 2.610 . S
Tb283 O325 2.320 . S
Tb283 O326 2.552 . S
Tb283 O327 2.413 . S
Tb283 C347 2.833 . S
N284 C276 1.360 . S
N284 Tb283 2.660 . S
N284 C285 1.305 . S
C285 N284 1.305 . S
C285 C287 1.407 . S
C285 H292 0.930 . S
C286 C274 1.410 . S
C286 C287 1.345 . S
C286 H294 0.930 . S
C287 C285 1.407 . S
C287 C286 1.345 . S
C287 H289 0.930 . S
H288 C281 0.930 . S
H289 C287 0.930 . S
H290 C278 0.930 . S
H291 C279 0.931 1_554 S
H292 C285 0.930 . S
H293 C307 0.930 . S
H294 C286 0.930 . S
H295 C313 0.930 . S
H296 C304 0.930 . S
H297 C311 0.931 . S
H298 C275 0.929 . S
H299 C305 0.930 . S
H300 C338 0.930 . S
H301 C282 0.930 . S
H302 C337 0.929 . S
N303 Tb272 2.660 . S
N303 C304 1.305 . S
N303 C308 1.360 . S
C304 H296 0.930 . S
C304 N303 1.305 . S
C304 C307 1.407 . S
C305 H299 0.930 . S
C305 C306 1.410 . S
C305 C307 1.345 . S
C306 C305 1.410 . S
C306 C308 1.417 . S
C306 C338 1.432 . S
C307 H293 0.930 . S
C307 C304 1.407 . S
C307 C305 1.345 . S
C308 N303 1.360 . S
C308 C306 1.417 . S
C308 C312 1.432 . S
H309 C314 0.930 . S
N310 Tb272 2.600 . S
N310 C312 1.359 . S
N310 C313 1.327 . S
C311 H297 0.931 . S
C311 C313 1.392 . S
C311 C314 1.370 . S
C312 C308 1.432 . S
C312 N310 1.359 . S
C312 C315 1.414 . S
C313 H295 0.930 . S
C313 N310 1.327 . S
C313 C311 1.392 . S
C314 H309 0.930 . S
C314 C311 1.370 . S
C314 C315 1.385 . S
C315 C312 1.414 . S
C315 C314 1.385 . S
C315 C337 1.444 . S
O316 Tb272 2.546 . S
O316 C336 1.251 . S
O317 Tb272 2.610 . S
O317 Tb283 2.362 . S
O317 C328 1.283 . S
O318 Tb283 2.421 . S
O318 C335 1.262 . S
O319 Tb272 2.320 . S
O319 C335 1.260 . S
O320 Tb272 2.552 . S
O320 C328 1.243 . S
O321 Tb272 2.413 . S
O321 C336 1.256 . S
O322 Tb283 2.546 . S
O322 C347 1.251 . S
O323 Tb272 2.362 . S
O323 Tb283 2.610 . S
O323 C339 1.283 . S
O324 Tb272 2.421 . S
O324 C346 1.262 . S
O325 Tb283 2.320 . S
O325 C346 1.260 . S
O326 Tb283 2.552 . S
O326 C339 1.243 . S
O327 Tb283 2.413 . S
O327 C347 1.256 . S
C328 O317 1.283 . S
C328 O320 1.243 . S
C329 C331 1.382 . S
C329 C333 1.393 . S
C329 C336 1.500 . S
C330 C331 1.400 . S
C330 C332 1.384 . S
C331 C329 1.382 . S
C331 C330 1.400 . S
C331 H348 0.930 . S
C332 C330 1.384 . S
C332 C334 1.392 . S
C332 H349 0.931 . S
C333 C329 1.393 . S
C333 C334 1.401 . S
C333 H350 0.930 . S
C334 C332 1.392 . S
C334 C333 1.401 . S
C334 H351 0.930 . S
C335 O318 1.262 . S
C335 O319 1.260 . S
C336 Tb272 2.833 . S
C336 O316 1.251 . S
C336 O321 1.256 . S
C336 C329 1.500 . S
C337 H302 0.929 . S
C337 C315 1.444 . S
C337 C338 1.317 . S
C338 H300 0.930 . S
C338 C306 1.432 . S
C338 C337 1.317 . S
C339 O323 1.283 . S
C339 O326 1.243 . S
C340 C341 1.382 . S
C340 C344 1.393 . S
C340 C347 1.500 1_554 S
C341 C340 1.382 . S
C341 C342 1.400 . S
C341 H352 0.930 1_554 S
C342 C341 1.400 . S
C342 C343 1.384 . S
C343 C342 1.384 . S
C343 C345 1.392 . S
C343 H353 0.931 . S
C344 C340 1.393 . S
C344 C345 1.401 . S
C344 H354 0.930 . S
C345 C343 1.392 . S
C345 C344 1.401 . S
C345 H355 0.930 . S
C346 O324 1.262 . S
C346 O325 1.260 . S
C347 Tb283 2.833 . S
C347 O322 1.251 . S
C347 O327 1.256 . S
C347 C340 1.500 1_556 S
H348 C331 0.930 . S
H349 C332 0.931 . S
H350 C333 0.930 . S
H351 C334 0.930 . S
H352 C341 0.930 1_556 S
H353 C343 0.931 . S
H354 C344 0.930 . S
H355 C345 0.930 . S
Tb356 N387 2.660 . S
Tb356 N394 2.600 . S
Tb356 O400 2.546 . S
Tb356 O401 2.610 . S
Tb356 O403 2.320 . S
Tb356 O404 2.552 . S
Tb356 O405 2.413 . S
Tb356 O407 2.362 . S
Tb356 O408 2.421 1_455 S
Tb356 C420 2.833 . S
C357 C360 1.432 . S
C357 C361 1.414 . S
C357 N364 1.359 . S
C358 C360 1.417 . S
C358 C362 1.432 . S
C358 C370 1.410 . S
C359 C361 1.444 . S
C359 C362 1.317 . S
C359 H382 0.929 . S
C360 C357 1.432 . S
C360 C358 1.417 . S
C360 N368 1.360 . S
C361 C357 1.414 . S
C361 C359 1.444 . S
C361 C366 1.385 1_655 S
C362 C358 1.432 . S
C362 C359 1.317 . S
C362 H374 0.930 . S
C363 C365 1.392 . S
C363 C366 1.370 . S
C363 H375 0.931 1_556 S
N364 C357 1.359 . S
N364 C365 1.327 1_655 S
N364 Tb367 2.600 . S
C365 C363 1.392 . S
C365 N364 1.327 1_455 S
C365 H372 0.930 . S
C366 C361 1.385 1_455 S
C366 C363 1.370 . S
C366 H385 0.930 . S
Tb367 N364 2.600 . S
Tb367 N368 2.660 . S
Tb367 O401 2.362 1_655 S
Tb367 O402 2.421 1_655 S
Tb367 O406 2.546 . S
Tb367 O407 2.610 1_655 S
Tb367 O409 2.320 . S
Tb367 O410 2.552 . S
Tb367 O411 2.413 . S
Tb367 C431 2.833 . S
N368 C360 1.360 . S
N368 Tb367 2.660 . S
N368 C369 1.305 . S
C369 N368 1.305 . S
C369 C371 1.407 . S
C369 H376 0.930 . S
C370 C358 1.410 . S
C370 C371 1.345 . S
C370 H378 0.930 . S
C371 C369 1.407 . S
C371 C370 1.345 . S
C371 H373 0.930 . S
H372 C365 0.930 . S
H373 C371 0.930 . S
H374 C362 0.930 . S
H375 C363 0.931 1_554 S
H376 C369 0.930 . S
H377 C391 0.930 . S
H378 C370 0.930 . S
H379 C397 0.930 . S
H380 C388 0.930 . S
H381 C395 0.931 . S
H382 C359 0.929 . S
H383 C389 0.930 . S
H384 C422 0.930 . S
H385 C366 0.930 . S
H386 C421 0.929 . S
N387 Tb356 2.660 . S
N387 C388 1.305 . S
N387 C392 1.360 . S
C388 H380 0.930 . S
C388 N387 1.305 . S
C388 C391 1.407 . S
C389 H383 0.930 . S
C389 C390 1.410 . S
C389 C391 1.345 . S
C390 C389 1.410 . S
C390 C392 1.417 . S
C390 C422 1.432 . S
C391 H377 0.930 . S
C391 C388 1.407 . S
C391 C389 1.345 . S
C392 N387 1.360 . S
C392 C390 1.417 . S
C392 C396 1.432 . S
H393 C398 0.930 . S
N394 Tb356 2.600 . S
N394 C396 1.359 . S
N394 C397 1.327 1_455 S
C395 H381 0.931 . S
C395 C397 1.392 . S
C395 C398 1.370 1_655 S
C396 C392 1.432 . S
C396 N394 1.359 . S
C396 C399 1.414 . S
C397 H379 0.930 . S
C397 N394 1.327 1_655 S
C397 C395 1.392 . S
C398 H393 0.930 . S
C398 C395 1.370 1_455 S
C398 C399 1.385 . S
C399 C396 1.414 . S
C399 C398 1.385 . S
C399 C421 1.444 . S
O400 Tb356 2.546 . S
O400 C420 1.251 . S
O401 Tb356 2.610 . S
O401 Tb367 2.362 1_455 S
O401 C412 1.283 . S
O402 Tb367 2.421 1_455 S
O402 C419 1.262 . S
O403 Tb356 2.320 . S
O403 C419 1.260 . S
O404 Tb356 2.552 . S
O404 C412 1.243 . S
O405 Tb356 2.413 . S
O405 C420 1.256 . S
O406 Tb367 2.546 . S
O406 C431 1.251 . S
O407 Tb356 2.362 . S
O407 Tb367 2.610 1_455 S
O407 C423 1.283 1_455 S
O408 Tb356 2.421 1_655 S
O408 C430 1.262 . S
O409 Tb367 2.320 . S
O409 C430 1.260 . S
O410 Tb367 2.552 . S
O410 C423 1.243 . S
O411 Tb367 2.413 . S
O411 C431 1.256 . S
C412 O401 1.283 . S
C412 O404 1.243 . S
C413 C415 1.382 . S
C413 C417 1.393 . S
C413 C420 1.500 . S
C414 C415 1.400 . S
C414 C416 1.384 . S
C415 C413 1.382 . S
C415 C414 1.400 . S
C415 H432 0.930 . S
C416 C414 1.384 . S
C416 C418 1.392 . S
C416 H433 0.931 . S
C417 C413 1.393 . S
C417 C418 1.401 . S
C417 H434 0.930 . S
C418 C416 1.392 . S
C418 C417 1.401 . S
C418 H435 0.930 . S
C419 O402 1.262 . S
C419 O403 1.260 . S
C420 Tb356 2.833 . S
C420 O400 1.251 . S
C420 O405 1.256 . S
C420 C413 1.500 . S
C421 H386 0.929 . S
C421 C399 1.444 . S
C421 C422 1.317 . S
C422 H384 0.930 . S
C422 C390 1.432 . S
C422 C421 1.317 . S
C423 O407 1.283 1_655 S
C423 O410 1.243 . S
C424 C425 1.382 . S
C424 C428 1.393 . S
C424 C431 1.500 1_554 S
C425 C424 1.382 . S
C425 C426 1.400 . S
C425 H436 0.930 1_554 S
C426 C425 1.400 . S
C426 C427 1.384 . S
C427 C426 1.384 . S
C427 C429 1.392 . S
C427 H437 0.931 . S
C428 C424 1.393 . S
C428 C429 1.401 . S
C428 H438 0.930 . S
C429 C427 1.392 . S
C429 C428 1.401 . S
C429 H439 0.930 . S
C430 O408 1.262 . S
C430 O409 1.260 . S
C431 Tb367 2.833 . S
C431 O406 1.251 . S
C431 O411 1.256 . S
C431 C424 1.500 1_556 S
H432 C415 0.930 . S
H433 C416 0.931 . S
H434 C417 0.930 . S
H435 C418 0.930 . S
H436 C425 0.930 1_556 S
H437 C427 0.931 . S
H438 C428 0.930 . S
H439 C429 0.930 . S
H440 C446 0.930 . S
H441 C450 0.930 . S
H442 C455 0.929 . S
H443 C453 0.929 . S
H444 C448 0.929 . S
H445 C454 0.929 . S
C446 H440 0.930 . S
C446 C447 1.367 . S
C446 C454 1.378 . S
C447 C446 1.367 . S
C447 C455 1.433 . S
C448 H444 0.929 . S
C448 C450 1.378 . S
C448 C452 1.350 . S
C449 C452 1.463 . S
C449 C454 1.350 . S
C449 N457 1.427 . S
C450 H441 0.930 . S
C450 C448 1.378 . S
C450 C451 1.367 . S
C451 C450 1.367 . S
C451 C453 1.433 . S
C452 C448 1.350 . S
C452 C449 1.463 . S
C452 N456 1.427 . S
C453 H443 0.929 . S
C453 C451 1.433 . S
C453 N456 1.384 . S
C454 H445 0.929 . S
C454 C446 1.378 . S
C454 C449 1.350 . S
C455 H442 0.929 . S
C455 C447 1.433 . S
C455 N457 1.384 . S
N456 C452 1.427 . S
N456 C453 1.384 . S
N457 C449 1.427 . S
N457 C455 1.384 . S
H458 C464 0.930 . S
H459 C468 0.930 . S
H460 C473 0.929 . S
H461 C471 0.929 . S
H462 C466 0.929 . S
H463 C472 0.929 . S
C464 H458 0.930 . S
C464 C465 1.367 . S
C464 C472 1.378 . S
C465 C464 1.367 . S
C465 C473 1.433 . S
C466 H462 0.929 . S
C466 C468 1.378 . S
C466 C470 1.350 . S
C467 C470 1.463 . S
C467 C472 1.350 . S
C467 N475 1.427 . S
C468 H459 0.930 . S
C468 C466 1.378 . S
C468 C469 1.367 . S
C469 C468 1.367 . S
C469 C471 1.433 . S
C470 C466 1.350 . S
C470 C467 1.463 . S
C470 N474 1.427 . S
C471 H461 0.929 . S
C471 C469 1.433 . S
C471 N474 1.384 . S
C472 H463 0.929 . S
C472 C464 1.378 . S
C472 C467 1.350 . S
C473 H460 0.929 . S
C473 C465 1.433 . S
C473 N475 1.384 . S
N474 C470 1.427 . S
N474 C471 1.384 . S
N475 C467 1.427 . S
N475 C473 1.384 . S
H476 C482 0.930 . S
H477 C486 0.930 . S
H478 C491 0.929 . S
H479 C489 0.929 . S
H480 C484 0.929 . S
H481 C490 0.929 . S
C482 H476 0.930 . S
C482 C483 1.367 . S
C482 C490 1.378 . S
C483 C482 1.367 . S
C483 C491 1.433 . S
C484 H480 0.929 . S
C484 C486 1.378 . S
C484 C488 1.350 . S
C485 C488 1.463 . S
C485 C490 1.350 . S
C485 N493 1.427 . S
C486 H477 0.930 . S
C486 C484 1.378 . S
C486 C487 1.367 . S
C487 C486 1.367 . S
C487 C489 1.433 . S
C488 C484 1.350 . S
C488 C485 1.463 . S
C488 N492 1.427 . S
C489 H479 0.929 . S
C489 C487 1.433 . S
C489 N492 1.384 . S
C490 H481 0.929 . S
C490 C482 1.378 . S
C490 C485 1.350 . S
C491 H478 0.929 . S
C491 C483 1.433 . S
C491 N493 1.384 . S
N492 C488 1.427 . S
N492 C489 1.384 . S
N493 C485 1.427 . S
N493 C491 1.384 . S
H494 C500 0.930 . S
H495 C504 0.930 . S
H496 C509 0.929 . S
H497 C507 0.929 1_655 S
H498 C502 0.929 . S
H499 C508 0.929 . S
C500 H494 0.930 . S
C500 C501 1.367 . S
C500 C508 1.378 . S
C501 C500 1.367 . S
C501 C509 1.433 . S
C502 H498 0.929 . S
C502 C504 1.378 . S
C502 C506 1.350 . S
C503 C506 1.463 . S
C503 C508 1.350 . S
C503 N511 1.427 . S
C504 H495 0.930 . S
C504 C502 1.378 . S
C504 C505 1.367 . S
C505 C504 1.367 . S
C505 C507 1.433 . S
C506 C502 1.350 . S
C506 C503 1.463 . S
C506 N510 1.427 . S
C507 H497 0.929 1_455 S
C507 C505 1.433 . S
C507 N510 1.384 . S
C508 H499 0.929 . S
C508 C500 1.378 . S
C508 C503 1.350 . S
C509 H496 0.929 . S
C509 C501 1.433 . S
C509 N511 1.384 . S
N510 C506 1.427 . S
N510 C507 1.384 . S
N511 C503 1.427 . S
N511 C509 1.384 . S
H512 C518 0.930 . S
H513 C522 0.930 . S
H514 C527 0.929 1_545 S
H515 C525 0.929 . S
H516 C520 0.929 . S
H517 C526 0.929 . S
C518 H512 0.930 . S
C518 C519 1.367 . S
C518 C526 1.378 . S
C519 C518 1.367 . S
C519 C527 1.433 . S
C520 H516 0.929 . S
C520 C522 1.378 1_554 S
C520 C524 1.350 1_545 S
C521 C524 1.463 . S
C521 C526 1.350 . S
C521 N529 1.450 . S
C522 H513 0.930 . S
C522 C520 1.378 1_556 S
C522 C523 1.367 1_545 S
C523 C522 1.367 1_565 S
C523 C525 1.433 . S
C524 C520 1.350 1_565 S
C524 C521 1.463 . S
C524 N528 1.427 1_554 S
C525 H515 0.929 . S
C525 C523 1.433 . S
C525 N528 1.384 . S
C526 H517 0.929 . S
C526 C518 1.378 . S
C526 C521 1.350 . S
C527 H514 0.929 1_565 S
C527 C519 1.433 . S
C527 N529 1.389 . S
N528 C524 1.427 1_556 S
N528 C525 1.384 . S
N529 C521 1.450 . S
N529 C527 1.389 . S
H530 C536 0.930 . S
H531 C540 0.930 . S
H532 C545 0.929 . S
H533 C543 0.929 . S
H534 C538 0.929 . S
H535 C544 0.929 . S
C536 H530 0.930 . S
C536 C537 1.367 . S
C536 C544 1.378 . S
C537 C536 1.367 . S
C537 C545 1.433 . S
C538 H534 0.929 . S
C538 C540 1.378 . S
C538 C542 1.350 1_556 S
C539 C542 1.463 . S
C539 C544 1.350 . S
C539 N547 1.427 . S
C540 H531 0.930 . S
C540 C538 1.378 . S
C540 C541 1.367 . S
C541 C540 1.367 . S
C541 C543 1.433 . S
C542 C538 1.350 1_554 S
C542 C539 1.463 . S
C542 N546 1.427 . S
C543 H533 0.929 . S
C543 C541 1.433 . S
C543 N546 1.384 1_556 S
C544 H535 0.929 . S
C544 C536 1.378 . S
C544 C539 1.350 . S
C545 H532 0.929 . S
C545 C537 1.433 . S
C545 N547 1.384 . S
N546 C542 1.427 . S
N546 C543 1.384 1_554 S
N547 C539 1.427 . S
N547 C545 1.384 . S
H548 C554 0.930 . S
H549 C558 0.930 . S
H550 C563 0.929 . S
H551 C561 0.929 . S
H552 C556 0.929 . S
H553 C562 0.929 . S
C554 H548 0.930 . S
C554 C555 1.367 . S
C554 C562 1.378 . S
C555 C554 1.367 . S
C555 C563 1.433 . S
C556 H552 0.929 . S
C556 C558 1.378 . S
C556 C560 1.350 1_556 S
C557 C560 1.463 . S
C557 C562 1.350 . S
C557 N565 1.427 . S
C558 H549 0.930 . S
C558 C556 1.378 . S
C558 C559 1.367 . S
C559 C558 1.367 . S
C559 C561 1.433 . S
C560 C556 1.350 1_554 S
C560 C557 1.463 . S
C560 N564 1.427 . S
C561 H551 0.929 . S
C561 C559 1.433 . S
C561 N564 1.384 1_556 S
C562 H553 0.929 . S
C562 C554 1.378 . S
C562 C557 1.350 . S
C563 H550 0.929 . S
C563 C555 1.433 . S
C563 N565 1.384 . S
N564 C560 1.427 . S
N564 C561 1.384 1_554 S
N565 C557 1.427 . S
N565 C563 1.384 . S
H566 C572 0.930 . S
H567 C576 0.930 . S
H568 C581 0.929 . S
H569 C579 0.929 1_455 S
H570 C574 0.929 . S
H571 C580 0.929 . S
C572 H566 0.930 . S
C572 C573 1.367 . S
C572 C580 1.378 . S
C573 C572 1.367 . S
C573 C581 1.433 . S
C574 H570 0.929 . S
C574 C576 1.378 . S
C574 C578 1.350 1_556 S
C575 C578 1.463 . S
C575 C580 1.350 . S
C575 N583 1.427 . S
C576 H567 0.930 . S
C576 C574 1.378 . S
C576 C577 1.367 . S
C577 C576 1.367 . S
C577 C579 1.433 . S
C578 C574 1.350 1_554 S
C578 C575 1.463 . S
C578 N582 1.427 . S
C579 H569 0.929 1_655 S
C579 C577 1.433 . S
C579 N582 1.384 1_556 S
C580 H571 0.929 . S
C580 C572 1.378 . S
C580 C575 1.350 . S
C581 H568 0.929 . S
C581 C573 1.433 . S
C581 N583 1.384 . S
N582 C578 1.427 . S
N582 C579 1.384 1_554 S
N583 C575 1.427 . S
N583 C581 1.384 . S
H584 C590 0.930 1_556 S
H585 C594 0.933 . S
H586 C599 0.929 . S
H587 C597 0.929 . S
H588 C592 0.929 . S
H589 C598 0.929 . S
C590 H584 0.930 1_554 S
C590 C591 1.367 . S
C590 C598 1.378 . S
C591 C590 1.367 . S
C591 C599 1.433 . S
C592 H588 0.929 . S
C592 C594 1.376 1_455 S
C592 C596 1.350 . S
C593 C596 1.463 . S
C593 C598 1.350 . S
C593 N601 1.427 . S
C594 H585 0.933 . S
C594 C592 1.376 1_655 S
C594 C595 1.366 1_655 S
C595 C594 1.366 1_455 S
C595 C597 1.442 . S
C596 C592 1.350 . S
C596 C593 1.463 . S
C596 N600 1.427 . S
C597 H587 0.929 . S
C597 C595 1.442 . S
C597 N600 1.384 . S
C598 H589 0.929 . S
C598 C590 1.378 . S
C598 C593 1.350 . S
C599 H586 0.929 . S
C599 C591 1.433 . S
C599 N601 1.384 . S
N600 C596 1.427 . S
N600 C597 1.384 . S
N601 C593 1.427 . S
N601 C599 1.384 . S
H602 C608 0.930 . S
H603 C612 0.930 1_565 S
H604 C617 0.929 1_556 S
H605 C615 0.929 . S
H606 C610 0.929 . S
H607 C616 0.929 . S
C608 H602 0.930 . S
C608 C609 1.367 . S
C608 C616 1.378 . S
C609 C608 1.367 . S
C609 C617 1.433 . S
C610 H606 0.929 . S
C610 C612 1.378 . S
C610 C614 1.350 . S
C611 C614 1.463 . S
C611 C616 1.350 . S
C611 N619 1.427 . S
C612 H603 0.930 1_545 S
C612 C610 1.378 . S
C612 C613 1.367 . S
C613 C612 1.367 . S
C613 C615 1.433 . S
C614 C610 1.350 . S
C614 C611 1.463 . S
C614 N618 1.427 . S
C615 H605 0.929 . S
C615 C613 1.433 . S
C615 N618 1.384 . S
C616 H607 0.929 . S
C616 C608 1.378 . S
C616 C611 1.350 . S
C617 H604 0.929 1_554 S
C617 C609 1.433 . S
C617 N619 1.384 . S
N618 C614 1.427 . S
N618 C615 1.384 . S
N619 C611 1.427 . S
N619 C617 1.384 . S
H620 C626 0.930 . S
H621 C630 0.930 . S
H622 C635 0.929 . S
H623 C633 0.929 . S
H624 C628 0.929 . S
H625 C634 0.929 . S
C626 H620 0.930 . S
C626 C627 1.367 . S
C626 C634 1.378 . S
C627 C626 1.367 . S
C627 C635 1.433 . S
C628 H624 0.929 . S
C628 C630 1.378 . S
C628 C632 1.350 . S
C629 C632 1.463 . S
C629 C634 1.350 . S
C629 N637 1.427 . S
C630 H621 0.930 . S
C630 C628 1.378 . S
C630 C631 1.367 . S
C631 C630 1.367 . S
C631 C633 1.433 . S
C632 C628 1.350 . S
C632 C629 1.463 . S
C632 N636 1.427 . S
C633 H623 0.929 . S
C633 C631 1.433 . S
C633 N636 1.384 . S
C634 H625 0.929 . S
C634 C626 1.378 . S
C634 C629 1.350 . S
C635 H622 0.929 . S
C635 C627 1.433 . S
C635 N637 1.384 . S
N636 C632 1.427 . S
N636 C633 1.384 . S
N637 C629 1.427 . S
N637 C635 1.384 . S
H638 C644 0.930 1_556 S
H639 C648 0.930 . S
H640 C653 0.929 . S
H641 C651 0.929 . S
H642 C646 0.929 . S
H643 C652 0.929 . S
C644 H638 0.930 1_554 S
C644 C645 1.367 . S
C644 C652 1.378 . S
C645 C644 1.367 . S
C645 C653 1.433 . S
C646 H642 0.929 . S
C646 C648 1.378 . S
C646 C650 1.350 . S
C647 C650 1.463 . S
C647 C652 1.350 . S
C647 N655 1.427 . S
C648 H639 0.930 . S
C648 C646 1.378 . S
C648 C649 1.367 . S
C649 C648 1.367 . S
C649 C651 1.433 . S
C650 C646 1.350 . S
C650 C647 1.463 . S
C650 N654 1.427 . S
C651 H641 0.929 . S
C651 C649 1.433 . S
C651 N654 1.384 . S
C652 H643 0.929 . S
C652 C644 1.378 . S
C652 C647 1.350 . S
C653 H640 0.929 . S
C653 C645 1.433 . S
C653 N655 1.384 . S
N654 C650 1.427 . S
N654 C651 1.384 . S
N655 C647 1.427 . S
N655 C653 1.384 . S
H656 C662 0.930 . S
H657 C666 0.930 . S
H658 C671 0.929 . S
H659 C669 0.929 1_556 S
H660 C664 0.929 . S
H661 C670 0.929 . S
C662 H656 0.930 . S
C662 C663 1.367 . S
C662 C670 1.378 . S
C663 C662 1.367 . S
C663 C671 1.433 . S
C664 H660 0.929 . S
C664 C666 1.378 . S
C664 C668 1.350 1_455 S
C665 C668 1.463 . S
C665 C670 1.350 . S
C665 N673 1.427 . S
C666 H657 0.930 . S
C666 C664 1.378 . S
C666 C667 1.367 . S
C667 C666 1.367 . S
C667 C669 1.433 1_455 S
C668 C664 1.350 1_655 S
C668 C665 1.463 . S
C668 N672 1.427 . S
C669 H659 0.929 1_554 S
C669 C667 1.433 1_655 S
C669 N672 1.384 . S
C670 H661 0.929 . S
C670 C662 1.378 . S
C670 C665 1.350 . S
C671 H658 0.929 . S
C671 C663 1.433 . S
C671 N673 1.384 . S
N672 C668 1.427 . S
N672 C669 1.384 . S
N673 C665 1.427 . S
N673 C671 1.384 . S
H674 C680 0.930 . S
H675 C684 0.930 . S
H676 C689 0.929 . S
H677 C687 0.929 1_556 S
H678 C682 0.929 . S
H679 C688 0.929 . S
C680 H674 0.930 . S
C680 C681 1.367 . S
C680 C688 1.378 . S
C681 C680 1.367 . S
C681 C689 1.433 . S
C682 H678 0.929 . S
C682 C684 1.378 . S
C682 C686 1.350 1_545 S
C683 C686 1.463 . S
C683 C688 1.350 . S
C683 N691 1.427 . S
C684 H675 0.930 . S
C684 C682 1.378 . S
C684 C685 1.367 . S
C685 C684 1.367 . S
C685 C687 1.433 1_545 S
C686 C682 1.350 1_565 S
C686 C683 1.463 . S
C686 N690 1.427 . S
C687 H677 0.929 1_554 S
C687 C685 1.433 1_565 S
C687 N690 1.384 . S
C688 H679 0.929 . S
C688 C680 1.378 . S
C688 C683 1.350 . S
C689 H676 0.929 . S
C689 C681 1.433 . S
C689 N691 1.384 . S
N690 C686 1.427 . S
N690 C687 1.384 . S
N691 C683 1.427 . S
N691 C689 1.384 . S
H692 C698 0.930 . S
H693 C702 0.930 1_556 S
H694 C707 0.929 . S
H695 C705 0.929 . S
H696 C700 0.929 . S
H697 C706 0.929 . S
C698 H692 0.930 . S
C698 C699 1.367 . S
C698 C706 1.378 . S
C699 C698 1.367 . S
C699 C707 1.433 . S
C700 H696 0.929 . S
C700 C702 1.378 . S
C700 C704 1.350 . S
C701 C704 1.463 . S
C701 C706 1.350 . S
C701 N709 1.427 . S
C702 H693 0.930 1_554 S
C702 C700 1.378 . S
C702 C703 1.367 . S
C703 C702 1.367 . S
C703 C705 1.433 . S
C704 C700 1.350 . S
C704 C701 1.463 . S
C704 N708 1.427 . S
C705 H695 0.929 . S
C705 C703 1.433 . S
C705 N708 1.384 . S
C706 H697 0.929 . S
C706 C698 1.378 . S
C706 C701 1.350 . S
C707 H694 0.929 . S
C707 C699 1.433 . S
C707 N709 1.384 . S
N708 C704 1.427 . S
N708 C705 1.384 . S
N709 C701 1.427 . S
N709 C707 1.384 . S
H710 C716 0.930 . S
H711 C720 0.930 . S
H712 C725 0.929 . S
H713 C723 0.929 . S
H714 C718 0.929 . S
H715 C724 0.929 . S
C716 H710 0.930 . S
C716 C717 1.367 . S
C716 C724 1.378 . S
C717 C716 1.367 . S
C717 C725 1.433 . S
C718 H714 0.929 . S
C718 C720 1.378 . S
C718 C722 1.350 . S
C719 C722 1.463 . S
C719 C724 1.350 . S
C719 N727 1.427 . S
C720 H711 0.930 . S
C720 C718 1.378 . S
C720 C721 1.367 . S
C721 C720 1.367 . S
C721 C723 1.433 . S
C722 C718 1.350 . S
C722 C719 1.463 . S
C722 N726 1.427 . S
C723 H713 0.929 . S
C723 C721 1.433 . S
C723 N726 1.384 . S
C724 H715 0.929 . S
C724 C716 1.378 . S
C724 C719 1.350 . S
C725 H712 0.929 . S
C725 C717 1.433 . S
C725 N727 1.384 . S
N726 C722 1.427 . S
N726 C723 1.384 . S
N727 C719 1.427 . S
N727 C725 1.384 . S
H728 C734 0.930 . S
H729 C738 0.930 . S
H730 C743 0.929 . S
H731 C741 0.929 1_655 S
H732 C736 0.929 . S
H733 C742 0.929 . S
C734 H728 0.930 . S
C734 C735 1.367 . S
C734 C742 1.378 . S
C735 C734 1.367 . S
C735 C743 1.433 . S
C736 H732 0.929 . S
C736 C738 1.378 . S
C736 C740 1.350 . S
C737 C740 1.463 . S
C737 C742 1.350 . S
C737 N745 1.427 . S
C738 H729 0.930 . S
C738 C736 1.378 . S
C738 C739 1.367 . S
C739 C738 1.367 . S
C739 C741 1.433 . S
C740 C736 1.350 . S
C740 C737 1.463 . S
C740 N744 1.427 . S
C741 H731 0.929 1_455 S
C741 C739 1.433 . S
C741 N744 1.384 . S
C742 H733 0.929 . S
C742 C734 1.378 . S
C742 C737 1.350 . S
C743 H730 0.929 . S
C743 C735 1.433 . S
C743 N745 1.384 . S
N744 C740 1.427 . S
N744 C741 1.384 . S
N745 C737 1.427 . S
N745 C743 1.384 . S
H746 C752 0.930 . S
H747 C756 0.930 1_565 S
H748 C761 0.929 . S
H749 C759 0.929 . S
H750 C754 0.929 . S
H751 C760 0.929 . S
C752 H746 0.930 . S
C752 C753 1.367 . S
C752 C760 1.378 . S
C753 C752 1.367 . S
C753 C761 1.433 . S
C754 H750 0.929 . S
C754 C756 1.378 . S
C754 C758 1.350 . S
C755 C758 1.463 . S
C755 C760 1.350 . S
C755 N763 1.427 . S
C756 H747 0.930 1_545 S
C756 C754 1.378 . S
C756 C757 1.367 . S
C757 C756 1.367 . S
C757 C759 1.433 . S
C758 C754 1.350 . S
C758 C755 1.463 . S
C758 N762 1.427 . S
C759 H749 0.929 . S
C759 C757 1.433 . S
C759 N762 1.384 . S
C760 H751 0.929 . S
C760 C752 1.378 . S
C760 C755 1.350 . S
C761 H748 0.929 . S
C761 C753 1.433 . S
C761 N763 1.384 . S
N762 C758 1.427 . S
N762 C759 1.384 . S
N763 C755 1.427 . S
N763 C761 1.384 . S
H764 C770 0.930 . S
H765 C774 0.930 . S
H766 C779 0.929 1_554 S
H767 C777 0.929 . S
H768 C772 0.929 . S
H769 C778 0.929 . S
C770 H764 0.930 . S
C770 C771 1.367 . S
C770 C778 1.378 . S
C771 C770 1.367 . S
C771 C779 1.433 . S
C772 H768 0.929 . S
C772 C774 1.378 . S
C772 C776 1.350 . S
C773 C776 1.463 . S
C773 C778 1.350 . S
C773 N781 1.427 . S
C774 H765 0.930 . S
C774 C772 1.378 . S
C774 C775 1.367 . S
C775 C774 1.367 . S
C775 C777 1.433 . S
C776 C772 1.350 . S
C776 C773 1.463 . S
C776 N780 1.427 . S
C777 H767 0.929 . S
C777 C775 1.433 . S
C777 N780 1.384 . S
C778 H769 0.929 . S
C778 C770 1.378 . S
C778 C773 1.350 . S
C779 H766 0.929 1_556 S
C779 C771 1.433 . S
C779 N781 1.384 . S
N780 C776 1.427 . S
N780 C777 1.384 . S
N781 C773 1.427 . S
N781 C779 1.384 . S
H782 C788 0.930 . S
H783 C792 0.930 . S
H784 C797 0.929 . S
H785 C795 0.929 . S
H786 C790 0.929 . S
H787 C796 0.929 . S
C788 H782 0.930 . S
C788 C789 1.367 . S
C788 C796 1.378 . S
C789 C788 1.367 . S
C789 C797 1.433 . S
C790 H786 0.929 . S
C790 C792 1.378 . S
C790 C794 1.350 . S
C791 C794 1.463 . S
C791 C796 1.350 . S
C791 N799 1.427 . S
C792 H783 0.930 . S
C792 C790 1.378 . S
C792 C793 1.367 . S
C793 C792 1.367 . S
C793 C795 1.433 . S
C794 C790 1.350 . S
C794 C791 1.463 . S
C794 N798 1.427 . S
C795 H785 0.929 . S
C795 C793 1.433 . S
C795 N798 1.384 . S
C796 H787 0.929 . S
C796 C788 1.378 . S
C796 C791 1.350 . S
C797 H784 0.929 . S
C797 C789 1.433 . S
C797 N799 1.384 . S
N798 C794 1.427 . S
N798 C795 1.384 . S
N799 C791 1.427 . S
N799 C797 1.384 . S
H800 C806 0.930 . S
H801 C810 0.930 . S
H802 C815 0.929 . S
H803 C813 0.929 . S
H804 C808 0.929 . S
H805 C814 0.929 . S
C806 H800 0.930 . S
C806 C807 1.367 . S
C806 C814 1.378 . S
C807 C806 1.367 . S
C807 C815 1.433 . S
C808 H804 0.929 . S
C808 C810 1.378 . S
C808 C812 1.350 . S
C809 C812 1.463 . S
C809 C814 1.350 . S
C809 N817 1.427 . S
C810 H801 0.930 . S
C810 C808 1.378 . S
C810 C811 1.367 . S
C811 C810 1.367 . S
C811 C813 1.433 . S
C812 C808 1.350 . S
C812 C809 1.463 . S
C812 N816 1.427 . S
C813 H803 0.929 . S
C813 C811 1.433 . S
C813 N816 1.384 . S
C814 H805 0.929 . S
C814 C806 1.378 . S
C814 C809 1.350 . S
C815 H802 0.929 . S
C815 C807 1.433 . S
C815 N817 1.384 . S
N816 C812 1.427 . S
N816 C813 1.384 . S
N817 C809 1.427 . S
N817 C815 1.384 . S
H818 C824 0.930 . S
H819 C828 0.930 . S
H820 C833 0.929 1_545 S
H821 C831 0.929 . S
H822 C826 0.929 . S
H823 C832 0.929 . S
C824 H818 0.930 . S
C824 C825 1.367 . S
C824 C832 1.378 . S
C825 C824 1.367 . S
C825 C833 1.433 . S
C826 H822 0.929 . S
C826 C828 1.378 . S
C826 C830 1.350 1_545 S
C827 C830 1.463 . S
C827 C832 1.350 . S
C827 N835 1.427 . S
C828 H819 0.930 . S
C828 C826 1.378 . S
C828 C829 1.367 1_545 S
C829 C828 1.367 1_565 S
C829 C831 1.433 . S
C830 C826 1.350 1_565 S
C830 C827 1.463 . S
C830 N834 1.427 . S
C831 H821 0.929 . S
C831 C829 1.433 . S
C831 N834 1.384 . S
C832 H823 0.929 . S
C832 C824 1.378 . S
C832 C827 1.350 . S
C833 H820 0.929 1_565 S
C833 C825 1.433 . S
C833 N835 1.384 . S
N834 C830 1.427 . S
N834 C831 1.384 . S
N835 C827 1.427 . S
N835 C833 1.384 . S
H836 C842 0.930 . S
H837 C846 0.930 . S
H838 C851 0.929 . S
H839 C849 0.929 . S
H840 C844 0.929 . S
H841 C850 0.929 . S
C842 H836 0.930 . S
C842 C843 1.367 . S
C842 C850 1.378 . S
C843 C842 1.367 . S
C843 C851 1.433 . S
C844 H840 0.929 . S
C844 C846 1.378 . S
C844 C848 1.350 . S
C845 C848 1.463 . S
C845 C850 1.350 . S
C845 N853 1.427 . S
C846 H837 0.930 . S
C846 C844 1.378 . S
C846 C847 1.367 . S
C847 C846 1.367 . S
C847 C849 1.433 . S
C848 C844 1.350 . S
C848 C845 1.463 . S
C848 N852 1.427 . S
C849 H839 0.929 . S
C849 C847 1.433 . S
C849 N852 1.384 . S
C850 H841 0.929 . S
C850 C842 1.378 . S
C850 C845 1.350 . S
C851 H838 0.929 . S
C851 C843 1.433 . S
C851 N853 1.384 . S
N852 C848 1.427 . S
N852 C849 1.384 . S
N853 C845 1.427 . S
N853 C851 1.384 . S
H854 C860 0.930 . S
H855 C864 0.930 . S
H856 C869 0.929 . S
H857 C867 0.929 . S
H858 C862 0.929 . S
H859 C868 0.929 . S
C860 H854 0.930 . S
C860 C861 1.367 . S
C860 C868 1.378 . S
C861 C860 1.367 . S
C861 C869 1.433 . S
C862 H858 0.929 . S
C862 C864 1.378 . S
C862 C866 1.350 . S
C863 C866 1.463 . S
C863 C868 1.350 . S
C863 N871 1.427 . S
C864 H855 0.930 . S
C864 C862 1.378 . S
C864 C865 1.367 . S
C865 C864 1.367 . S
C865 C867 1.433 . S
C866 C862 1.350 . S
C866 C863 1.463 . S
C866 N870 1.427 . S
C867 H857 0.929 . S
C867 C865 1.433 . S
C867 N870 1.384 . S
C868 H859 0.929 . S
C868 C860 1.378 . S
C868 C863 1.350 . S
C869 H856 0.929 . S
C869 C861 1.433 . S
C869 N871 1.384 . S
N870 C866 1.427 . S
N870 C867 1.384 . S
N871 C863 1.427 . S
N871 C869 1.384 . S
C447 N80 1.912 . S
C451 C178 1.935 . S
C469 C262 1.946 . S
C465 N93 1.915 . S
C487 C328 1.940 . S
C483 N54 2.018 . S
C505 C412 1.921 . S
C501 N67 1.998 . S
C523 C167 1.924 1_565 S
C519 N28 1.913 . S
C537 N41 1.934 . S
C541 C251 1.943 . S
C555 N2 2.025 . S
C559 C339 1.938 . S
C573 N15 2.014 . S
C577 C423 1.928 . S
C595 C174 0.578 1_455 S
C591 N70 0.598 . S
C613 C258 0.576 1_545 S
C609 N83 0.561 . S
C631 C330 0.544 . S
C627 N96 0.549 . S
C645 N57 0.557 . S
C649 C414 0.597 . S
C663 N18 0.589 . S
C667 C162 0.594 . S
C685 C246 0.567 . S
C681 N31 0.565 . S
C703 C342 0.569 . S
C699 N44 0.538 . S
C717 N5 0.549 . S
C721 C426 0.573 . S
C735 N66 2.092 . S
C739 C171 2.046 . S
C753 N79 2.074 . S
C757 C255 2.013 . S
C775 C335 2.026 . S
C771 N92 1.981 . S
C793 C419 2.058 . S
C789 N53 1.999 . S
C807 N14 2.115 . S
C811 C160 2.044 . S
C829 C244 2.021 . S
C825 N27 2.084 . S
C847 C346 2.031 . S
C843 N40 1.994 . S
C861 N1 2.010 . S
C865 C430 2.059 . S
