# Generated by pormake.
# Topology pyr, (3,6)-cn, num edge types: 1
# Building blocks:
#     Node 0, Type 0, BuildingBlock: VETTIZ_charged_linker_0, # of connection points: 3
#     Node 1, Type 0, BuildingBlock: VETTIZ_charged_linker_0, # of connection points: 3
#     Node 2, Type 0, BuildingBlock: VETTIZ_charged_linker_0, # of connection points: 3
#     Node 3, Type 0, BuildingBlock: VETTIZ_charged_linker_0, # of connection points: 3
#     Node 4, Type 0, BuildingBlock: VETTIZ_charged_linker_0, # of connection points: 3
#     Node 5, Type 0, BuildingBlock: VETTIZ_charged_linker_0, # of connection points: 3
#     Node 6, Type 0, BuildingBlock: VETTIZ_charged_linker_0, # of connection points: 3
#     Node 7, Type 0, BuildingBlock: VETTIZ_charged_linker_0, # of connection points: 3
#     Node 8, Type 1, BuildingBlock: FUNLAD_clean_sbu_0, # of connection points: 6
#     Node 9, Type 1, BuildingBlock: FUNLAD_clean_sbu_0, # of connection points: 6
#     Node 10, Type 1, BuildingBlock: FUNLAD_clean_sbu_0, # of connection points: 6
#     Node 11, Type 1, BuildingBlock: FUNLAD_clean_sbu_0, # of connection points: 6
#     Edge 12, Type (0, 1), BuildingBlock: XIVTED_clean_linker_0, # of connection points: 2
#     Edge 13, Type (0, 1), BuildingBlock: XIVTED_clean_linker_0, # of connection points: 2
#     Edge 14, Type (0, 1), BuildingBlock: XIVTED_clean_linker_0, # of connection points: 2
#     Edge 15, Type (0, 1), BuildingBlock: XIVTED_clean_linker_0, # of connection points: 2
#     Edge 16, Type (0, 1), BuildingBlock: XIVTED_clean_linker_0, # of connection points: 2
#     Edge 17, Type (0, 1), BuildingBlock: XIVTED_clean_linker_0, # of connection points: 2
#     Edge 18, Type (0, 1), BuildingBlock: XIVTED_clean_linker_0, # of connection points: 2
#     Edge 19, Type (0, 1), BuildingBlock: XIVTED_clean_linker_0, # of connection points: 2
#     Edge 20, Type (0, 1), BuildingBlock: XIVTED_clean_linker_0, # of connection points: 2
#     Edge 21, Type (0, 1), BuildingBlock: XIVTED_clean_linker_0, # of connection points: 2
#     Edge 22, Type (0, 1), BuildingBlock: XIVTED_clean_linker_0, # of connection points: 2
#     Edge 23, Type (0, 1), BuildingBlock: XIVTED_clean_linker_0, # of connection points: 2
#     Edge 24, Type (0, 1), BuildingBlock: XIVTED_clean_linker_0, # of connection points: 2
#     Edge 25, Type (0, 1), BuildingBlock: XIVTED_clean_linker_0, # of connection points: 2
#     Edge 26, Type (0, 1), BuildingBlock: XIVTED_clean_linker_0, # of connection points: 2
#     Edge 27, Type (0, 1), BuildingBlock: XIVTED_clean_linker_0, # of connection points: 2
#     Edge 28, Type (0, 1), BuildingBlock: XIVTED_clean_linker_0, # of connection points: 2
#     Edge 29, Type (0, 1), BuildingBlock: XIVTED_clean_linker_0, # of connection points: 2
#     Edge 30, Type (0, 1), BuildingBlock: XIVTED_clean_linker_0, # of connection points: 2
#     Edge 31, Type (0, 1), BuildingBlock: XIVTED_clean_linker_0, # of connection points: 2
#     Edge 32, Type (0, 1), BuildingBlock: XIVTED_clean_linker_0, # of connection points: 2
#     Edge 33, Type (0, 1), BuildingBlock: XIVTED_clean_linker_0, # of connection points: 2
#     Edge 34, Type (0, 1), BuildingBlock: XIVTED_clean_linker_0, # of connection points: 2
#     Edge 35, Type (0, 1), BuildingBlock: XIVTED_clean_linker_0, # of connection points: 2
# Relax obj value: 0.056
# Max RMSD: 0.063
# Mean RMSD: 0.027
data_MOF--net-pry--node1-FUNLAD_clean_sbu_0--node2-VETTIZ_charged_linker_0--edge1-XIVTED_clean_linker_0
_symmetry_space_group_name_H-M    P1
_symmetry_Int_Tables_number       1
_symmetry_cell_setting            triclinic
loop_
_symmetry_equiv_pos_as_xyz
'x, y, z'
_cell_length_a     44.032184
_cell_length_b     46.50871
_cell_length_c     46.686078
_cell_angle_alpha  90.092087
_cell_angle_beta   90.031727
_cell_angle_gamma 85.486635
loop_
_atom_site_label
_atom_site_type_symbol
_atom_site_fract_x
_atom_site_fract_y
_atom_site_fract_z
_atom_type_partial_charge
C0 C 0.12495 0.11593 0.2667 0.0
C1 C 0.0973 0.12493 0.28023 0.0
C2 C 0.07915 0.14836 0.26846 0.0
C3 C 0.11635 0.15353 0.23057 0.0
C4 C 0.13376 0.13015 0.24187 0.0
C5 C 0.16155 0.12192 0.22405 0.0
H6 H 0.24715 0.14321 0.10661 0.0
C7 C 0.13199 0.16322 0.20441 0.0
C8 C 0.15835 0.14438 0.20044 0.0
H9 H 0.26253 0.07728 0.17143 0.0
H10 H 0.21775 0.09645 0.19685 0.0
H11 H 0.23219 0.19408 0.15033 0.0
H12 H 0.17552 0.14084 0.10196 0.0
H13 H 0.15808 0.17607 0.10041 0.0
H14 H 0.19593 0.16869 0.08611 0.0
H15 H 0.2242 0.20043 0.11311 0.0
H16 H 0.19999 0.21664 0.14093 0.0
C17 C 0.19009 0.12536 0.24276 0.0
C18 C 0.15893 0.09098 0.21238 0.0
C19 C 0.0908 0.25288 0.14799 0.0
C20 C 0.10114 0.26602 0.12287 0.0
C21 C 0.12784 0.25375 0.10957 0.0
C22 C 0.14377 0.22901 0.12057 0.0
C23 C 0.13317 0.21597 0.14535 0.0
C24 C 0.1071 0.22779 0.15875 0.0
C25 C 0.09929 0.21021 0.18465 0.0
C26 C 0.12538 0.18651 0.18482 0.0
C27 C 0.145 0.19013 0.16156 0.0
C28 C 0.09985 0.2297 0.21144 0.0
C29 C 0.06817 0.1979 0.17916 0.0
C30 C 0.24116 0.13297 0.1264 0.0
C31 C 0.25858 0.10846 0.13675 0.0
C32 C 0.24939 0.09581 0.16252 0.0
C33 C 0.22339 0.1071 0.17741 0.0
C34 C 0.20613 0.13143 0.16658 0.0
C35 C 0.21531 0.14402 0.14159 0.0
C36 C 0.19463 0.16998 0.13341 0.0
C37 C 0.17115 0.17064 0.15731 0.0
C38 C 0.17791 0.148 0.17668 0.0
C39 C 0.21355 0.19676 0.13422 0.0
C40 C 0.18033 0.1639 0.10386 0.0
H41 H 0.07394 0.18065 0.23617 0.0
H42 H 0.13915 0.0977 0.27491 0.0
H43 H 0.13475 0.08701 0.20806 0.0
H44 H 0.17055 0.08711 0.19162 0.0
H45 H 0.16804 0.0745 0.228 0.0
H46 H 0.18671 0.14482 0.25665 0.0
H47 H 0.19489 0.10638 0.25694 0.0
H48 H 0.21064 0.12865 0.23002 0.0
H49 H 0.07029 0.26161 0.15869 0.0
H50 H 0.13674 0.26354 0.09062 0.0
H51 H 0.16383 0.22099 0.10922 0.0
H52 H 0.12051 0.24201 0.21134 0.0
H53 H 0.07957 0.2455 0.21196 0.0
H54 H 0.10073 0.21741 0.23163 0.0
H55 H 0.06574 0.19196 0.15623 0.0
H56 H 0.06548 0.17781 0.19112 0.0
H57 H 0.04905 0.21399 0.18462 0.0
H58 H 0.05776 0.1557 0.27852 0.0
C59 C 0.08862 0.16283 0.24391 0.0
C60 C 0.27019 0.88448 0.62259 0.0
C61 C 0.25264 0.90902 0.63272 0.0
C62 C 0.26203 0.92236 0.6581 0.0
C63 C 0.30545 0.88698 0.6625 0.0
C64 C 0.29619 0.87389 0.63775 0.0
C65 C 0.31693 0.84788 0.62983 0.0
H66 H 0.44108 0.75662 0.65611 0.0
C67 C 0.33347 0.87039 0.67297 0.0
C68 C 0.34018 0.84742 0.65392 0.0
H69 H 0.37641 0.75559 0.58634 0.0
H70 H 0.34853 0.79753 0.60531 0.0
H71 H 0.44479 0.82752 0.65672 0.0
H72 H 0.38943 0.77337 0.70664 0.0
H73 H 0.40491 0.7989 0.72916 0.0
H74 H 0.43004 0.77237 0.711 0.0
H75 H 0.46104 0.80225 0.68265 0.0
H76 H 0.44558 0.83771 0.69307 0.0
C77 C 0.33143 0.85374 0.60033 0.0
C78 C 0.298 0.82113 0.63066 0.0
C79 C 0.38615 0.90341 0.76291 0.0
C80 C 0.41197 0.89263 0.77848 0.0
C81 C 0.42833 0.86718 0.76858 0.0
C82 C 0.41933 0.85296 0.74367 0.0
C83 C 0.39353 0.86411 0.72834 0.0
C84 C 0.37736 0.88888 0.7382 0.0
C85 C 0.3501 0.89742 0.71978 0.0
C86 C 0.35269 0.87402 0.69701 0.0
C87 C 0.37825 0.85444 0.70193 0.0
C88 C 0.35425 0.92759 0.70704 0.0
C89 C 0.32105 0.89589 0.73829 0.0
C90 C 0.42083 0.76545 0.64506 0.0
C91 C 0.41129 0.75278 0.61933 0.0
C92 C 0.3848 0.76509 0.60571 0.0
C93 C 0.36839 0.78948 0.61694 0.0
C94 C 0.37827 0.8021 0.64227 0.0
C95 C 0.40405 0.79019 0.65604 0.0
C96 C 0.41087 0.8071 0.68273 0.0
C97 C 0.38495 0.83096 0.68252 0.0
C98 C 0.36598 0.82767 0.65869 0.0
C99 C 0.4423 0.81924 0.67888 0.0
C100 C 0.40896 0.78699 0.7089 0.0
H101 H 0.29403 0.92268 0.6921 0.0
H102 H 0.26409 0.8738 0.60302 0.0
H103 H 0.28021 0.82345 0.64761 0.0
H104 H 0.31176 0.80101 0.63619 0.0
H105 H 0.28626 0.81813 0.60992 0.0
H106 H 0.33484 0.87704 0.59768 0.0
H107 H 0.31668 0.84738 0.58246 0.0
H108 H 0.35443 0.84273 0.59772 0.0
H109 H 0.37265 0.92255 0.77005 0.0
H110 H 0.44842 0.85841 0.77994 0.0
H111 H 0.43282 0.83381 0.73728 0.0
H112 H 0.37843 0.92953 0.70096 0.0
H113 H 0.34775 0.9449 0.72281 0.0
H114 H 0.34116 0.93191 0.68714 0.0
H115 H 0.32407 0.87822 0.75432 0.0
H116 H 0.30096 0.89081 0.72562 0.0
H117 H 0.31562 0.91636 0.75017 0.0
H118 H 0.24885 0.941 0.66677 0.0
C119 C 0.28824 0.91153 0.67296 0.0
C120 C 0.57876 0.35048 0.99024 0.0
C121 C 0.5533 0.33855 0.97793 0.0
C122 C 0.53576 0.35501 0.95759 0.0
C123 C 0.57148 0.39189 0.95883 0.0
C124 C 0.58761 0.37694 0.98016 0.0
C125 C 0.6162 0.39092 0.98813 0.0
H126 H 0.71985 0.48406 0.95156 0.0
C127 C 0.58869 0.41637 0.95019 0.0
C128 C 0.61478 0.41628 0.9675 0.0
H129 H 0.72529 0.42255 0.02097 0.0
H130 H 0.67322 0.41161 0.01193 0.0
H131 H 0.6525 0.5111 0.96495 0.0
H132 H 0.68776 0.44435 0.90737 0.0
H133 H 0.66131 0.46727 0.8884 0.0
H134 H 0.69445 0.48172 0.90331 0.0
H135 H 0.66878 0.51941 0.93104 0.0
H136 H 0.62883 0.51365 0.93461 0.0
C137 C 0.61347 0.40098 0.01969 0.0
C138 C 0.64376 0.36893 0.98205 0.0
C139 C 0.56009 0.46826 0.85768 0.0
C140 C 0.5746 0.48857 0.84143 0.0
C141 C 0.59848 0.50271 0.85398 0.0
C142 C 0.60943 0.4949 0.88128 0.0
C143 C 0.59664 0.47247 0.896 0.0
C144 C 0.57147 0.46055 0.88479 0.0
C145 C 0.56093 0.4369 0.90329 0.0
C146 C 0.58456 0.43598 0.92703 0.0
C147 C 0.60574 0.45645 0.92232 0.0
C148 C 0.5286 0.44658 0.91456 0.0
C149 C 0.56291 0.40872 0.88524 0.0
C150 C 0.70981 0.46821 0.9648 0.0
C151 C 0.72679 0.45369 0.98656 0.0
C152 C 0.71267 0.43387 1.00393 0.0
C153 C 0.68257 0.42739 0.9985 0.0
C154 C 0.66661 0.44071 0.97534 0.0
C155 C 0.67996 0.46144 0.95958 0.0
C156 C 0.65981 0.47357 0.93587 0.0
C157 C 0.63222 0.45638 0.93965 0.0
C158 C 0.6365 0.43678 0.96247 0.0
C159 C 0.65213 0.50617 0.94163 0.0
C160 C 0.67653 0.46664 0.90714 0.0
H161 H 0.53069 0.39256 0.93214 0.0
H162 H 0.59238 0.33893 1.00646 0.0
H163 H 0.64055 0.35745 0.96147 0.0
H164 H 0.66545 0.37893 0.97965 0.0
H165 H 0.64645 0.35247 0.99927 0.0
H166 H 0.58948 0.40826 0.02511 0.0
H167 H 0.62097 0.38322 0.03459 0.0
H168 H 0.62654 0.41983 0.02414 0.0
H169 H 0.54175 0.4569 0.84871 0.0
H170 H 0.60955 0.51898 0.84218 0.0
H171 H 0.62839 0.50565 0.88925 0.0
H172 H 0.52517 0.47048 0.91638 0.0
H173 H 0.51068 0.43945 0.90001 0.0
H174 H 0.52461 0.43864 0.93648 0.0
H175 H 0.58324 0.40757 0.871 0.0
H176 H 0.56577 0.38891 0.89818 0.0
H177 H 0.54247 0.40761 0.87144 0.0
H178 H 0.51622 0.34664 0.94737 0.0
C179 C 0.54446 0.3817 0.94835 0.0
C180 C 0.94799 0.66796 0.47046 0.0
C181 C 0.9311 0.68751 0.48836 0.0
C182 C 0.90452 0.67891 0.5016 0.0
C183 C 0.90981 0.63351 0.47586 0.0
C184 C 0.93682 0.64134 0.46429 0.0
C185 C 0.94984 0.62002 0.44251 0.0
H186 H 0.9226 0.51702 0.34817 0.0
C187 C 0.90258 0.60619 0.46218 0.0
C188 C 0.92603 0.59813 0.44273 0.0
H189 H 0.99712 0.57225 0.35081 0.0
H190 H 0.98262 0.58761 0.39833 0.0
H191 H 0.92723 0.49643 0.41497 0.0
H192 H 0.8719 0.56313 0.37144 0.0
H193 H 0.84883 0.54219 0.39272 0.0
H194 H 0.87106 0.52512 0.36469 0.0
H195 H 0.89184 0.48919 0.39852 0.0
H196 H 0.89349 0.50194 0.43506 0.0
C197 C 0.98081 0.60671 0.45397 0.0
C198 C 0.95173 0.63571 0.41317 0.0
C199 C 0.79908 0.56782 0.47823 0.0
C200 C 0.78566 0.54353 0.46766 0.0
C201 C 0.80314 0.52332 0.45075 0.0
C202 C 0.83312 0.52806 0.44317 0.0
C203 C 0.8456 0.55335 0.45245 0.0
C204 C 0.82917 0.57206 0.47072 0.0
C205 C 0.84704 0.59669 0.48004 0.0
C206 C 0.87664 0.58997 0.46379 0.0
C207 C 0.8752 0.56507 0.44694 0.0
C208 C 0.85177 0.59476 0.5129 0.0
C209 C 0.82968 0.62507 0.4697 0.0
C210 C 0.93588 0.53228 0.35914 0.0
C211 C 0.96048 0.54403 0.34532 0.0
C212 C 0.97797 0.56293 0.36073 0.0
C213 C 0.96922 0.57223 0.38822 0.0
C214 C 0.94239 0.56306 0.4002 0.0
C215 C 0.92698 0.54235 0.38639 0.0
C216 C 0.89857 0.53567 0.40223 0.0
C217 C 0.89846 0.55741 0.42664 0.0
C218 C 0.92406 0.57351 0.42506 0.0
C219 C 0.90274 0.50416 0.41318 0.0
C220 C 0.87101 0.54171 0.38184 0.0
H221 H 0.87311 0.64688 0.50572 0.0
H222 H 0.96822 0.6741 0.45958 0.0
H223 H 0.93786 0.65676 0.41281 0.0
H224 H 0.94242 0.62346 0.3953 0.0
H225 H 0.97552 0.64017 0.40797 0.0
H226 H 0.97938 0.60211 0.47729 0.0
H227 H 0.99895 0.62172 0.45087 0.0
H228 H 0.98799 0.58578 0.44384 0.0
H229 H 0.78632 0.58329 0.49187 0.0
H230 H 0.79324 0.50433 0.4426 0.0
H231 H 0.8452 0.51233 0.42973 0.0
H232 H 0.85307 0.57196 0.52031 0.0
H233 H 0.83269 0.60665 0.52454 0.0
H234 H 0.87355 0.60287 0.51982 0.0
H235 H 0.82049 0.62241 0.44773 0.0
H236 H 0.84417 0.64326 0.46812 0.0
H237 H 0.81016 0.63144 0.48403 0.0
H238 H 0.89135 0.69353 0.51577 0.0
C239 C 0.89394 0.65188 0.49565 0.0
C240 C 0.89365 0.76415 0.89365 0.0
C241 C 0.92028 0.74842 0.88397 0.0
C242 C 0.93495 0.7585 0.8594 0.0
C243 C 0.89699 0.79938 0.85538 0.0
C244 C 0.88257 0.78928 0.87925 0.0
C245 C 0.85462 0.8081 0.88731 0.0
H246 H 0.76198 0.92933 0.86836 0.0
C247 C 0.87953 0.8265 0.84587 0.0
C248 C 0.85474 0.83154 0.86475 0.0
H249 H 0.75361 0.86067 0.92975 0.0
H250 H 0.79841 0.83504 0.91068 0.0
H251 H 0.77622 0.8862 0.8155 0.0
H252 H 0.83454 0.93081 0.87124 0.0
H253 H 0.84915 0.93308 0.83637 0.0
H254 H 0.81132 0.94888 0.84412 0.0
H255 H 0.78048 0.92408 0.81212 0.0
H256 H 0.80579 0.89747 0.79413 0.0
C257 C 0.82658 0.79008 0.88426 0.0
C258 C 0.85954 0.82005 0.91784 0.0
C259 C 0.91273 0.88354 0.75872 0.0
C260 C 0.90118 0.9099 0.74629 0.0
C261 C 0.87536 0.92477 0.75884 0.0
C262 C 0.86133 0.91391 0.78302 0.0
C263 C 0.87306 0.88775 0.7952 0.0
C264 C 0.89845 0.873 0.78322 0.0
C265 C 0.90795 0.84582 0.79981 0.0
C266 C 0.88371 0.84647 0.8232 0.0
C267 C 0.86332 0.8712 0.82025 0.0
C268 C 0.90608 0.81968 0.77958 0.0
C269 C 0.94009 0.84879 0.81229 0.0
C270 C 0.76959 0.90869 0.87764 0.0
C271 C 0.75416 0.89751 0.90115 0.0
C272 C 0.76526 0.87048 0.91233 0.0
C273 C 0.79128 0.85534 0.90097 0.0
C274 C 0.80661 0.86698 0.87787 0.0
C275 C 0.79549 0.89302 0.86631 0.0
C276 C 0.81412 0.90137 0.84099 0.0
C277 C 0.83845 0.87623 0.83959 0.0
C278 C 0.83403 0.85633 0.86144 0.0
C279 C 0.79324 0.90262 0.8142 0.0
C280 C 0.82795 0.93013 0.84825 0.0
H281 H 0.93574 0.79032 0.82667 0.0
H282 H 0.88127 0.7569 0.91197 0.0
H283 H 0.88348 0.82561 0.9207 0.0
H284 H 0.8455 0.84024 0.92238 0.0
H285 H 0.85488 0.80386 0.93441 0.0
H286 H 0.83043 0.77306 0.86758 0.0
H287 H 0.82158 0.77919 0.90468 0.0
H288 H 0.80592 0.80312 0.87702 0.0
H289 H 0.93267 0.87163 0.74984 0.0
H290 H 0.8656 0.94478 0.74965 0.0
H291 H 0.84176 0.92639 0.79129 0.0
H292 H 0.88488 0.8221 0.76654 0.0
H293 H 0.92575 0.81775 0.76463 0.0
H294 H 0.90515 0.79914 0.79121 0.0
H295 H 0.94221 0.87112 0.82021 0.0
H296 H 0.94517 0.83474 0.83097 0.0
H297 H 0.95792 0.84404 0.79575 0.0
H298 H 0.95559 0.74706 0.85141 0.0
C299 C 0.92349 0.7838 0.84512 0.0
C300 C 0.74024 0.13269 0.39754 0.0
C301 C 0.75756 0.10791 0.38767 0.0
C302 C 0.74814 0.09447 0.36236 0.0
C303 C 0.70512 0.13022 0.35751 0.0
C304 C 0.7144 0.14341 0.3822 0.0
C305 C 0.69386 0.16964 0.38985 0.0
H306 H 0.5703 0.26131 0.36234 0.0
C307 C 0.6773 0.14696 0.3468 0.0
C308 C 0.67071 0.17012 0.36567 0.0
H309 H 0.63469 0.26288 0.4323 0.0
H310 H 0.66249 0.22061 0.41383 0.0
H311 H 0.56616 0.19075 0.36231 0.0
H312 H 0.62199 0.24442 0.31245 0.0
H313 H 0.60723 0.21854 0.28987 0.0
H314 H 0.5815 0.24502 0.30743 0.0
H315 H 0.55026 0.21572 0.33595 0.0
H316 H 0.56564 0.18006 0.32611 0.0
C317 C 0.67914 0.16416 0.41933 0.0
C318 C 0.71305 0.19621 0.38891 0.0
C319 C 0.62461 0.11394 0.25681 0.0
C320 C 0.59899 0.12496 0.24109 0.0
C321 C 0.58288 0.15061 0.25081 0.0
C322 C 0.59194 0.1648 0.27569 0.0
C323 C 0.61755 0.15343 0.29116 0.0
C324 C 0.63349 0.12846 0.28148 0.0
C325 C 0.66059 0.11977 0.30006 0.0
C326 C 0.65816 0.14332 0.3227 0.0
C327 C 0.63281 0.16308 0.31756 0.0
C328 C 0.65605 0.08974 0.31295 0.0
C329 C 0.68976 0.12088 0.28166 0.0
C330 C 0.59047 0.25255 0.37355 0.0
C331 C 0.59994 0.26546 0.39917 0.0
C332 C 0.62633 0.2532 0.41301 0.0
C333 C 0.6427 0.22863 0.40208 0.0
C334 C 0.63288 0.21579 0.37683 0.0
C335 C 0.60721 0.22769 0.36287 0.0
C336 C 0.60044 0.21066 0.33627 0.0
C337 C 0.62622 0.1867 0.33678 0.0
C338 C 0.64509 0.19003 0.36066 0.0
C339 C 0.5689 0.19871 0.34007 0.0
C340 C 0.60265 0.23059 0.30999 0.0
H341 H 0.71629 0.09419 0.32823 0.0
H342 H 0.74637 0.14345 0.41705 0.0
H343 H 0.73087 0.19363 0.372 0.0
H344 H 0.69947 0.21639 0.38324 0.0
H345 H 0.72476 0.19922 0.40965 0.0
H346 H 0.67529 0.14096 0.42204 0.0
H347 H 0.69398 0.17033 0.4372 0.0
H348 H 0.65632 0.17555 0.42185 0.0
H349 H 0.63789 0.09462 0.24979 0.0
H350 H 0.56295 0.15954 0.23934 0.0
H351 H 0.57863 0.1841 0.28195 0.0
H352 H 0.63179 0.0881 0.31897 0.0
H353 H 0.6624 0.0723 0.29729 0.0
H354 H 0.66903 0.08541 0.33291 0.0
H355 H 0.68705 0.13854 0.26558 0.0
H356 H 0.70989 0.12574 0.29438 0.0
H357 H 0.69496 0.10034 0.26983 0.0
H358 H 0.76115 0.07563 0.35389 0.0
C359 C 0.72211 0.10543 0.34731 0.0
C360 C 0.44915 0.54033 0.16372 0.0
C361 C 0.43315 0.52034 0.179 0.0
C362 C 0.40814 0.50853 0.16576 0.0
C363 C 0.4119 0.54078 0.12547 0.0
C364 C 0.43803 0.55043 0.13725 0.0
C365 C 0.44967 0.57488 0.12055 0.0
H366 H 0.417 0.68755 0.03449 0.0
C367 C 0.40297 0.55957 0.10091 0.0
C368 C 0.42511 0.57944 0.09778 0.0
H369 H 0.50131 0.66397 0.07942 0.0
H370 H 0.48333 0.61791 0.09141 0.0
H371 H 0.37202 0.66464 0.07836 0.0
H372 H 0.41428 0.62199 1.00489 0.0
H373 H 0.37657 0.61226 1.00655 0.0
H374 H 0.38369 0.64963 1.0015 0.0
H375 H 0.36189 0.67457 0.04225 0.0
H376 H 0.34421 0.64622 0.06053 0.0
C377 C 0.45045 0.60122 0.14092 0.0
C378 C 0.48104 0.56451 0.10749 0.0
C379 C 0.29865 0.55337 0.05622 0.0
C380 C 0.28098 0.57165 0.03775 0.0
C381 C 0.29355 0.596 0.02616 0.0
C382 C 0.32334 0.60219 0.03311 0.0
C383 C 0.34047 0.58415 0.05232 0.0
C384 C 0.32807 0.56016 0.06344 0.0
C385 C 0.34855 0.54461 0.08511 0.0
C386 C 0.37577 0.56269 0.08448 0.0
C387 C 0.37093 0.58581 0.06525 0.0
C388 C 0.33202 0.54593 0.11458 0.0
C389 C 0.3571 0.51367 0.07401 0.0
C390 C 0.43184 0.67232 0.04651 0.0
C391 C 0.46027 0.67983 0.05679 0.0
C392 C 0.47892 0.65915 0.07209 0.0
C393 C 0.46851 0.6324 0.079 0.0
C394 C 0.43901 0.62635 0.07088 0.0
C395 C 0.42181 0.6454 0.05363 0.0
C396 C 0.39168 0.63427 0.04577 0.0
C397 C 0.3933 0.60599 0.06219 0.0
C398 C 0.42074 0.60202 0.07748 0.0
C399 C 0.36593 0.656 0.05706 0.0
C400 C 0.3912 0.6294 0.01297 0.0
H401 H 0.37772 0.50958 0.13047 0.0
H402 H 0.46837 0.54991 0.17325 0.0
H403 H 0.48439 0.54057 0.10638 0.0
H404 H 0.4833 0.57177 0.08503 0.0
H405 H 0.50007 0.57208 0.12038 0.0
H406 H 0.42899 0.60417 0.15353 0.0
H407 H 0.46973 0.5982 0.15624 0.0
H408 H 0.45247 0.62179 0.12979 0.0
H409 H 0.28924 0.53486 0.06591 0.0
H410 H 0.28021 0.61032 0.01186 0.0
H411 H 0.33161 0.62115 0.0238 0.0
H412 H 0.31297 0.56313 0.11525 0.0
H413 H 0.32221 0.52523 0.11957 0.0
H414 H 0.34713 0.55146 0.13237 0.0
H415 H 0.36288 0.514 0.05082 0.0
H416 H 0.3774 0.50323 0.08479 0.0
H417 H 0.3378 0.4999 0.0767 0.0
H418 H 0.39585 0.49255 0.17676 0.0
C419 C 0.39755 0.51853 0.13898 0.0
C420 C 0.05918 0.35344 0.55055 0.0
C421 C 0.07576 0.33379 0.53254 0.0
C422 C 0.10246 0.34209 0.51929 0.0
C423 C 0.09793 0.38734 0.5453 0.0
C424 C 0.07081 0.37981 0.55689 0.0
C425 C 0.05828 0.40104 0.57897 0.0
H426 H 0.08802 0.5023 0.67439 0.0
C427 C 0.10572 0.41435 0.55925 0.0
C428 C 0.0825 0.42252 0.5789 0.0
H429 H 0.01236 0.44843 0.67148 0.0
H430 H 0.02632 0.4334 0.62373 0.0
H431 H 0.0833 0.52381 0.60805 0.0
H432 H 0.13786 0.45568 0.65024 0.0
H433 H 0.16113 0.47658 0.62914 0.0
H434 H 0.13937 0.49352 0.65753 0.0
H435 H 0.11912 0.53017 0.62416 0.0
H436 H 0.1167 0.51795 0.5875 0.0
C437 C 0.02744 0.41496 0.56783 0.0
C438 C 0.05628 0.38505 0.60815 0.0
C439 C 0.20981 0.45137 0.54297 0.0
C440 C 0.2237 0.47533 0.55371 0.0
C441 C 0.20668 0.49554 0.57098 0.0
C442 C 0.17667 0.49111 0.57873 0.0
C443 C 0.1637 0.46615 0.56925 0.0
C444 C 0.1797 0.44746 0.55066 0.0
C445 C 0.16135 0.42321 0.54118 0.0
C446 C 0.13196 0.43016 0.55769 0.0
C447 C 0.13393 0.4548 0.57481 0.0
C448 C 0.15639 0.4256 0.50838 0.0
C449 C 0.17837 0.39451 0.55112 0.0
C450 C 0.07438 0.48739 0.66332 0.0
C451 C 0.0496 0.47594 0.6771 0.0
C452 C 0.03166 0.45753 0.66158 0.0
C453 C 0.04008 0.44841 0.63395 0.0
C454 C 0.06704 0.45726 0.62195 0.0
C455 C 0.08295 0.47751 0.63592 0.0
C456 C 0.11138 0.48395 0.62 0.0
C457 C 0.11093 0.46256 0.59533 0.0
C458 C 0.08503 0.44686 0.59685 0.0
C459 C 0.10769 0.51562 0.60946 0.0
C460 C 0.13902 0.47722 0.64015 0.0
H461 H 0.13437 0.37367 0.51528 0.0
H462 H 0.03888 0.34749 0.56145 0.0
H463 H 0.0698 0.36381 0.6082 0.0
H464 H 0.06594 0.39692 0.62611 0.0
H465 H 0.03241 0.38093 0.61341 0.0
H466 H 0.02883 0.41986 0.54456 0.0
H467 H 0.00904 0.40021 0.57079 0.0
H468 H 0.02066 0.43583 0.57827 0.0
H469 H 0.22223 0.43591 0.52907 0.0
H470 H 0.21695 0.51427 0.57926 0.0
H471 H 0.16495 0.50682 0.59244 0.0
H472 H 0.15521 0.44848 0.50127 0.0
H473 H 0.17531 0.41373 0.49649 0.0
H474 H 0.13449 0.41772 0.50148 0.0
H475 H 0.18797 0.39684 0.57298 0.0
H476 H 0.16354 0.37658 0.55281 0.0
H477 H 0.19756 0.38793 0.53648 0.0
H478 H 0.11542 0.32735 0.50507 0.0
C479 C 0.11347 0.36891 0.52535 0.0
C480 C 0.03065 0.02716 0.45981 0.0
N481 N 0.01564 0.07104 0.53719 0.0
C482 C 0.044 0.07969 0.5325 0.0
C483 C 0.05012 0.10814 0.53737 0.0
C484 C 0.02682 0.12809 0.54706 0.0
C485 C 0.99806 0.11837 0.55301 0.0
C486 C 0.99293 0.0895 0.54793 0.0
Zn487 Zn 0.00765 0.03133 0.52193 0.0
C488 C 0.94854 0.0318 0.49071 0.0
N489 N 0.99464 0.94954 0.4857 0.0
C490 C 0.0171 0.93127 0.47427 0.0
C491 C 0.96654 0.94065 0.49121 0.0
C492 C 0.96046 0.91219 0.4864 0.0
C493 C 0.98352 0.89243 0.47591 0.0
C494 C 0.01201 0.90238 0.46921 0.0
Zn495 Zn 1.00259 0.98932 0.50081 0.0
O496 O 0.02821 0.04279 0.48219 0.0
C497 C 0.06171 0.98892 0.53201 0.0
O498 O 0.02143 1.00189 0.46059 0.0
H499 H 0.94917 0.95526 0.50087 0.0
H500 H 0.06158 0.0649 0.52342 0.0
H501 H 0.03934 0.93878 0.47024 0.0
O502 O 0.05066 0.01429 0.53791 0.0
O503 O 0.04664 0.97314 0.51591 0.0
H504 H 0.97051 0.08217 0.55134 0.0
O505 O 0.98382 0.97729 0.54114 0.0
O506 O 0.98715 0.01932 0.56161 0.0
O507 O 0.95885 1.00595 0.48596 0.0
O508 O 0.96434 0.04797 0.50566 0.0
C509 C 0.97986 0.99339 0.56309 0.0
H510 H 0.07246 0.11473 0.53197 0.0
H511 H 0.97955 0.13307 0.56071 0.0
H512 H 0.93837 0.90543 0.49244 0.0
H513 H 0.03034 0.88785 0.4609 0.0
C514 C 0.56088 0.98877 0.98898 0.0
N515 N 0.5113 0.0699 0.98279 0.0
C516 C 0.53979 0.07921 0.98393 0.0
C517 C 0.54419 0.1083 0.98039 0.0
C518 C 0.51894 0.12837 0.97666 0.0
C519 C 0.48998 0.11791 0.97363 0.0
C520 C 0.48671 0.0884 0.97653 0.0
Zn521 Zn 0.50581 0.02968 0.99871 0.0
C522 C 0.47825 0.98988 0.95972 0.0
N523 N 0.49722 0.9485 0.03787 0.0
C524 C 0.52111 0.93193 0.04918 0.0
C525 C 0.47009 0.93744 0.03255 0.0
C526 C 0.46675 0.90829 0.03686 0.0
C527 C 0.4916 0.89024 0.04663 0.0
C528 C 0.51874 0.9025 0.05386 0.0
Zn529 Zn 0.50248 0.98846 0.02184 0.0
O530 O 0.54905 0.01345 0.98151 0.0
C531 C 0.53028 0.02826 0.06063 0.0
O532 O 0.54656 0.97384 1.00642 0.0
H533 H 0.45146 0.95089 0.02334 0.0
H534 H 0.55908 0.06445 0.9894 0.0
H535 H 0.54253 0.94116 0.05306 0.0
O536 O 0.52684 0.04291 0.03768 0.0
O537 O 0.52196 1.00265 0.06097 0.0
H538 H 0.46421 0.08066 0.97563 0.0
O539 O 0.45848 1.0035 0.03753 0.0
O540 O 0.46247 0.04489 0.01619 0.0
O541 O 0.48326 0.97473 0.98217 0.0
O542 O 0.48467 0.01611 0.96002 0.0
C543 C 0.44747 0.02899 0.03212 0.0
H544 H 0.56711 0.11504 0.98189 0.0
H545 H 0.46975 0.13241 0.97081 0.0
H546 H 0.44526 0.89974 0.03155 0.0
H547 H 0.53843 0.88924 0.06141 0.0
C548 C 0.5184 0.45212 0.4907 0.0
N549 N 0.52336 0.48975 0.57248 0.0
C550 C 0.51151 0.46826 0.58757 0.0
C551 C 0.51816 0.46478 0.61674 0.0
C552 C 0.53739 0.48343 0.63015 0.0
C553 C 0.54989 0.50481 0.6138 0.0
C554 C 0.54242 0.5077 0.585 0.0
Zn555 Zn 0.51062 0.49962 0.53154 0.0
C556 C 0.56419 0.51941 0.49859 0.0
N557 N 0.48607 0.52672 0.44738 0.0
C558 C 0.46674 0.50865 0.43544 0.0
C559 C 0.49844 0.54737 0.43151 0.0
C560 C 0.49209 0.54975 0.40217 0.0
C561 C 0.47265 0.53088 0.38938 0.0
C562 C 0.45955 0.51049 0.40652 0.0
Zn563 Zn 0.49888 0.51726 0.48849 0.0
O564 O 0.52092 0.45628 0.51752 0.0
C565 C 0.44531 0.49752 0.52153 0.0
O566 O 0.5096 0.47335 0.47479 0.0
H567 H 0.514 0.56132 0.44135 0.0
H568 H 0.49625 0.45437 0.57722 0.0
H569 H 0.45782 0.49179 0.44807 0.0
O570 O 0.46521 0.49061 0.54051 0.0
O571 O 0.45344 0.50876 0.49829 0.0
H572 H 0.55107 0.52508 0.57289 0.0
O573 O 0.48862 0.56075 0.50262 0.0
O574 O 0.49995 0.54339 0.54527 0.0
O575 O 0.54432 0.52621 0.47954 0.0
O576 O 0.55606 0.50822 0.52186 0.0
C577 C 0.49121 0.56475 0.52949 0.0
H578 H 0.50817 0.44798 0.62871 0.0
H579 H 0.56433 0.51997 0.62345 0.0
H580 H 0.50259 0.5658 0.38956 0.0
H581 H 0.44497 0.49514 0.39741 0.0
C582 C 0.98839 0.5642 0.98903 0.0
N583 N 0.99073 0.53141 0.07375 0.0
C584 C 1.00302 0.5542 0.08643 0.0
C585 C 0.9988 0.55935 0.11577 0.0
C586 C 0.98143 0.5411 0.13184 0.0
C587 C 0.9684 0.51834 0.11798 0.0
C588 C 0.97354 0.51374 0.08894 0.0
Zn589 Zn 1.00038 0.51911 0.03262 0.0
C590 C 0.94593 0.49513 1.00519 0.0
N591 N 0.01992 0.48743 0.94876 0.0
C592 C 0.03789 0.50458 0.93381 0.0
C593 C 0.00688 0.46519 0.93586 0.0
C594 C 0.0111 0.4601 0.90652 0.0
C595 C 0.0292 0.47788 0.89066 0.0
C596 C 0.04304 0.50003 0.90475 0.0
Zn597 Zn 0.01012 0.49979 0.98983 0.0
O598 O 0.98665 0.56138 0.01612 0.0
C599 C 0.06458 0.52367 0.01735 0.0
O600 O 0.9976 0.54237 0.97405 0.0
H601 H 0.99249 0.45196 0.9481 0.0
H602 H 0.01681 0.56784 0.07401 0.0
H603 H 0.04741 0.52263 0.94416 0.0
O604 O 0.04563 0.53095 0.03704 0.0
O605 O 0.0558 0.51006 0.99566 0.0
H606 H 0.96463 0.49527 0.07878 0.0
O607 O 0.02237 0.45744 1.00598 0.0
O608 O 0.01437 0.47654 0.04852 0.0
O609 O 0.96445 0.48939 0.98475 0.0
O610 O 0.95514 0.50739 0.02753 0.0
C611 C 0.02217 0.45459 0.0331 0.0
H612 H 0.00918 0.57716 0.12582 0.0
H613 H 0.95535 0.50347 0.12974 0.0
H614 H 1.0001 0.44276 0.89629 0.0
H615 H 0.05668 0.51453 0.89316 0.0
H616 H 0.04322 0.10091 0.2899 0.0
H617 H 0.07162 0.06803 0.45484 0.0
H618 H 0.12916 0.11424 0.33001 0.0
H619 H 0.01659 0.0148 0.40384 0.0
H620 H 0.08853 0.09083 0.41092 0.0
H621 H 0.02811 0.07513 0.33303 0.0
C622 C 0.05882 0.09853 0.30784 0.0
C623 C 0.08748 0.10974 0.30639 0.0
C624 C 0.07292 0.07403 0.40933 0.0
C625 C 0.07022 0.08064 0.35583 0.0
C626 C 0.06323 0.06101 0.43437 0.0
C627 C 0.04279 0.03932 0.43303 0.0
C628 C 0.06146 0.06597 0.38267 0.0
C629 C 0.03259 0.0312 0.40586 0.0
C630 C 0.05028 0.08367 0.33232 0.0
C631 C 0.10691 0.10585 0.3302 0.0
N632 N 0.0417 0.04479 0.38179 0.0
N633 N 0.09782 0.09193 0.35401 0.0
H634 H 0.41307 0.95104 0.78814 0.0
H635 H 0.46703 0.93334 0.9518 0.0
H636 H 0.43258 0.86883 0.82958 0.0
H637 H 0.46345 0.01474 0.9072 0.0
H638 H 0.4508 0.91016 0.9081 0.0
H639 H 0.42797 0.97525 0.83205 0.0
C640 C 0.42037 0.93804 0.80648 0.0
C641 C 0.42153 0.90774 0.80501 0.0
C642 C 0.4535 0.9331 0.9078 0.0
C643 C 0.43873 0.93549 0.85556 0.0
C644 C 0.46268 0.94646 0.93286 0.0
C645 C 0.4667 0.97616 0.93333 0.0
C646 C 0.44801 0.94943 0.88278 0.0
C647 C 0.46069 0.99183 0.90794 0.0
C648 C 0.42904 0.95192 0.83153 0.0
C649 C 0.4316 0.89215 0.82946 0.0
N650 N 0.45166 0.97831 0.88375 0.0
N651 N 0.43965 0.90616 0.85364 0.0
H652 H 0.51875 0.49071 0.81463 0.0
H653 H 0.59176 0.4864 0.6576 0.0
H654 H 0.61496 0.4925 0.79757 0.0
H655 H 0.49629 0.47825 0.67346 0.0
H656 H 0.60025 0.48992 0.70906 0.0
H657 H 0.50936 0.48855 0.76303 0.0
C658 C 0.53785 0.49092 0.80005 0.0
C659 C 0.56769 0.49178 0.81047 0.0
C660 C 0.57744 0.48723 0.70136 0.0
C661 C 0.55714 0.48916 0.75152 0.0
C662 C 0.57261 0.48519 0.67199 0.0
C663 C 0.54328 0.4821 0.66131 0.0
C664 C 0.55274 0.4863 0.72025 0.0
C665 C 0.51932 0.48035 0.68087 0.0
C666 C 0.53248 0.48964 0.77062 0.0
C667 C 0.59153 0.49231 0.79058 0.0
N668 N 0.52454 0.48265 0.70945 0.0
N669 N 0.58574 0.49083 0.76211 0.0
H670 H 0.01426 0.53837 0.3147 0.0
H671 H 0.92932 0.54026 0.16308 0.0
H672 H 0.91652 0.54275 0.30425 0.0
H673 H 0.02581 0.54836 0.17172 0.0
H674 H 0.92474 0.53941 0.21512 0.0
H675 H 0.01973 0.53922 0.2625 0.0
C676 C 0.99399 0.53926 0.30149 0.0
C677 C 0.96489 0.54039 0.31397 0.0
C678 C 0.94692 0.54155 0.20572 0.0
C679 C 0.971 0.54146 0.25435 0.0
C680 C 0.94951 0.54208 0.17603 0.0
C681 C 0.97797 0.54433 0.16318 0.0
C682 C 0.97305 0.54307 0.22275 0.0
C683 C 1.0034 0.54684 0.18087 0.0
C684 C 0.99713 0.53981 0.27172 0.0
C685 C 0.93945 0.54127 0.29574 0.0
N686 N 1.00039 0.54593 0.20983 0.0
N687 N 0.94311 0.54188 0.26693 0.0
H688 H 0.27919 0.05135 0.12973 0.0
H689 H 0.42086 0.08436 0.03039 0.0
H690 H 0.30091 0.13733 0.10701 0.0
H691 H 0.40792 1.00013 0.06485 0.0
H692 H 0.37463 0.10355 0.05511 0.0
H693 H 0.32424 0.0318 0.10356 0.0
C694 C 0.29346 0.06619 0.11944 0.0
C695 C 0.28606 0.09614 0.12076 0.0
C696 C 0.38185 0.08085 0.05721 0.0
C697 C 0.33765 0.07369 0.09016 0.0
C698 C 0.40821 0.06983 0.04299 0.0
C699 C 0.4184 0.04055 0.04554 0.0
C700 C 0.36534 0.06249 0.07405 0.0
C701 C 0.40102 0.02284 0.06227 0.0
C702 C 0.31913 0.05495 0.1043 0.0
C703 C 0.30528 0.11411 0.10635 0.0
N704 N 0.37542 0.03407 0.07587 0.0
N705 N 0.33008 0.10263 0.0917 0.0
H706 H 0.21019 0.87873 0.60469 0.0
H707 H 0.10195 0.01872 0.56274 0.0
H708 H 0.23114 0.96569 0.6246 0.0
H709 H 0.08833 0.93338 0.53124 0.0
H710 H 0.14868 0.99949 0.58638 0.0
H711 H 0.16501 0.89807 0.57866 0.0
C712 C 0.20549 0.9019 0.60347 0.0
C713 C 0.22473 0.92054 0.61695 0.0
C714 C 0.13558 0.98496 0.5742 0.0
C715 C 0.17247 0.94287 0.58737 0.0
C716 C 0.10884 0.99593 0.56066 0.0
C717 C 0.09108 0.97765 0.54496 0.0
C718 C 0.14467 0.95539 0.57229 0.0
C719 C 0.10128 0.94831 0.54305 0.0
C720 C 0.17953 0.91292 0.58867 0.0
C721 C 0.21689 0.95038 0.615 0.0
N722 N 0.12728 0.93808 0.55667 0.0
N723 N 0.19142 0.96056 0.60056 0.0
H724 H 0.7692 0.45479 0.94428 0.0
H725 H 0.90269 0.49865 0.04737 0.0
H726 H 0.75891 0.46238 0.03593 0.0
H727 H 0.91639 0.47461 0.95866 0.0
H728 H 0.84969 0.48704 0.04356 0.0
H729 H 0.82283 0.46363 0.94907 0.0
C730 C 0.77827 0.45844 0.96544 0.0
C731 C 0.75956 0.45814 0.98974 0.0
C732 C 0.86432 0.48421 0.02497 0.0
C733 C 0.82103 0.46811 0.99541 0.0
C734 C 0.89456 0.49092 0.02708 0.0
C735 C 0.91398 0.48771 1.00323 0.0
C736 C 0.85331 0.47443 0.99878 0.0
C737 C 0.90224 0.47746 0.97756 0.0
C738 C 0.80893 0.4633 0.96818 0.0
C739 C 0.7726 0.4624 0.01668 0.0
N740 N 0.87262 0.47132 0.97599 0.0
N741 N 0.80254 0.46743 0.01879 0.0
H742 H 0.76043 0.4962 0.48902 0.0
H743 H 0.58891 0.5554 0.46006 0.0
H744 H 0.73729 0.58252 0.45822 0.0
H745 H 0.61326 0.49288 0.52608 0.0
H746 H 0.64322 0.56169 0.4528 0.0
H747 H 0.70607 0.49046 0.49663 0.0
C748 C 0.74384 0.51389 0.4839 0.0
C749 C 0.75317 0.5399 0.47315 0.0
C750 C 0.63655 0.54667 0.46889 0.0
C751 C 0.69133 0.53339 0.48131 0.0
C752 C 0.60567 0.54299 0.47296 0.0
C753 C 0.59664 0.52366 0.49374 0.0
C754 C 0.65844 0.53045 0.48531 0.0
C755 C 0.61925 0.50814 0.50993 0.0
C756 C 0.71296 0.51067 0.48831 0.0
C757 C 0.7309 0.56224 0.46683 0.0
N758 N 0.64913 0.51171 0.50523 0.0
N759 N 0.70092 0.55841 0.47079 0.0
H760 H 0.08895 0.2771 0.06623 0.0
H761 H 0.02468 0.4416 0.09052 0.0
H762 H 0.07649 0.31537 0.15002 0.0
H763 H 0.04034 0.40278 1.00728 0.0
H764 H 0.04071 0.39527 0.11283 0.0
H765 H 0.06802 0.32214 0.0447 0.0
C766 C 0.08171 0.29498 0.08017 0.0
C767 C 0.08488 0.29242 0.11005 0.0
C768 C 0.04056 0.39684 0.08969 0.0
C769 C 0.06063 0.34447 0.08531 0.0
C770 C 0.03142 0.42334 0.07687 0.0
C771 C 0.03122 0.42626 0.04687 0.0
C772 C 0.04962 0.37288 0.07248 0.0
C773 C 0.04016 0.4017 0.03044 0.0
C774 C 0.06968 0.32075 0.0678 0.0
C775 C 0.07446 0.31625 0.12693 0.0
N776 N 0.04902 0.37617 0.04343 0.0
N777 N 0.06306 0.34131 0.11433 0.0
H778 H 0.59453 0.29246 0.98932 0.0
H779 H 0.48613 0.17315 0.94875 0.0
H780 H 0.49791 0.31426 0.97827 0.0
H781 H 0.55989 0.15599 1.00908 0.0
H782 H 0.49248 0.22477 0.95329 0.0
H783 H 0.58478 0.24178 0.99165 0.0
C784 C 0.57119 0.28685 0.98794 0.0
C785 C 0.54705 0.308 0.9834 0.0
C786 C 0.50714 0.20953 0.96551 0.0
C787 C 0.53611 0.24961 0.98478 0.0
C788 C 0.50356 0.18006 0.96298 0.0
C789 C 0.5227 0.15989 0.97828 0.0
C790 C 0.53034 0.21886 0.983 0.0
C791 C 0.54516 0.1704 0.9961 0.0
C792 C 0.56574 0.25777 0.98898 0.0
C793 C 0.51741 0.29887 0.98103 0.0
N794 N 0.54854 0.19909 0.99773 0.0
N795 N 0.51283 0.27031 0.98128 0.0
H796 H 0.89268 0.73602 0.48332 0.0
H797 H 0.02249 0.84615 0.49152 0.0
H798 H 0.98757 0.70785 0.49531 0.0
H799 H 0.9322 0.86798 0.45806 0.0
H800 H 0.01041 0.79586 0.49564 0.0
H801 H 0.90644 0.78558 0.47903 0.0
C802 C 0.91637 0.74035 0.48561 0.0
C803 C 0.93902 0.71782 0.48979 0.0
C804 C 0.99336 0.81166 0.48721 0.0
C805 C 0.95503 0.77444 0.48418 0.0
C806 C 1.00033 0.84031 0.48456 0.0
C807 C 0.97824 0.86137 0.47461 0.0
C808 C 0.96405 0.80412 0.48005 0.0
C809 C 0.94974 0.85259 0.46633 0.0
C810 C 0.92427 0.7686 0.48274 0.0
C811 C 0.96945 0.72462 0.49195 0.0
N812 N 0.94339 0.82471 0.46947 0.0
N813 N 0.9766 0.75237 0.48909 0.0
H814 H 0.424 0.74228 0.5626 0.0
H815 H 0.49255 0.5792 0.58642 0.0
H816 H 0.43674 0.70365 0.64612 0.0
H817 H 0.47104 0.61589 0.50331 0.0
H818 H 0.47665 0.6256 0.60855 0.0
H819 H 0.44575 0.69761 0.54077 0.0
C820 C 0.43144 0.7244 0.57642 0.0
C821 C 0.42807 0.72672 0.60632 0.0
C822 C 0.47552 0.62358 0.58547 0.0
C823 C 0.45336 0.6752 0.58124 0.0
C824 C 0.48464 0.59704 0.57274 0.0
C825 C 0.48307 0.59346 0.54285 0.0
C826 C 0.46474 0.64696 0.56829 0.0
C827 C 0.47262 0.61751 0.52639 0.0
C828 C 0.44395 0.69886 0.56388 0.0
C829 C 0.43888 0.70296 0.62303 0.0
N830 N 0.46381 0.64313 0.53931 0.0
N831 N 0.4508 0.67816 0.61027 0.0
H832 H 0.91194 0.96631 0.73561 0.0
H833 H 0.96643 0.9378 0.57342 0.0
H834 H 0.92247 0.88165 0.69735 0.0
H835 H 0.96693 0.0208 0.61479 0.0
H836 H 0.94908 0.9173 0.61808 0.0
H837 H 0.93112 0.98674 0.69156 0.0
C838 C 0.9183 0.95195 0.71795 0.0
C839 C 0.91533 0.92214 0.72027 0.0
C840 C 0.95297 0.94 0.61746 0.0
C841 C 0.93747 0.94559 0.66943 0.0
C842 C 0.9628 0.95182 0.59186 0.0
C843 C 0.96818 0.9812 0.59017 0.0
C844 C 0.94822 0.95758 0.64179 0.0
C845 C 0.96309 0.99809 0.61496 0.0
C846 C 0.92938 0.96368 0.69278 0.0
C847 C 0.92449 0.90468 0.69671 0.0
N848 N 0.95337 0.98608 0.63965 0.0
N849 N 0.9349 0.91667 0.67229 0.0
H850 H 0.59661 0.06665 0.23181 0.0
H851 H 0.54412 0.08421 0.06776 0.0
H852 H 0.57938 0.14883 0.18976 0.0
H853 H 0.54345 1.00373 0.11356 0.0
H854 H 0.56112 0.10727 0.11127 0.0
H855 H 0.58115 0.04253 0.18802 0.0
C856 C 0.5897 0.07965 0.21336 0.0
C857 C 0.58931 0.10991 0.2146 0.0
C858 C 0.55733 0.08455 0.11186 0.0
C859 C 0.57151 0.0823 0.16423 0.0
C860 C 0.5477 0.07126 0.08692 0.0
C861 C 0.54226 0.04187 0.08686 0.0
C862 C 0.56183 0.06843 0.13713 0.0
C863 C 0.5473 0.0264 0.11251 0.0
C864 C 0.58072 0.06584 0.18839 0.0
C865 C 0.57975 0.12554 0.19002 0.0
N866 N 0.55681 0.03983 0.13656 0.0
N867 N 0.57139 0.11159 0.16592 0.0
H868 H 0.39188 0.51715 0.22229 0.0
H869 H 0.51455 0.53332 0.34631 0.0
H870 H 0.48869 0.51475 0.20652 0.0
H871 H 0.41862 0.52719 0.36145 0.0
H872 H 0.50573 0.52739 0.2949 0.0
H873 H 0.40169 0.51906 0.27346 0.0
C874 C 0.41529 0.51632 0.22956 0.0
C875 C 0.43949 0.51587 0.20996 0.0
C876 C 0.48662 0.5274 0.30948 0.0
C877 C 0.45082 0.51913 0.26875 0.0
C878 C 0.49158 0.53114 0.33875 0.0
C879 C 0.46726 0.53073 0.3581 0.0
C880 C 0.45711 0.52336 0.29957 0.0
C881 C 0.43804 0.52737 0.34725 0.0
C882 C 0.42085 0.51783 0.25886 0.0
C883 C 0.4693 0.5155 0.22081 0.0
N884 N 0.43379 0.52378 0.31873 0.0
N885 N 0.47411 0.51743 0.24948 0.0
H886 H 0.99597 0.48236 0.70788 0.0
H887 H 0.08138 0.47771 0.85933 0.0
H888 H 0.09378 0.47601 0.71808 0.0
H889 H 0.98449 0.47206 0.85078 0.0
H890 H 0.08588 0.47877 0.80728 0.0
H891 H 0.99062 0.4813 0.76008 0.0
C892 C 0.01629 0.48099 0.72104 0.0
C893 C 0.04536 0.47938 0.7085 0.0
C894 C 0.06362 0.47712 0.81671 0.0
C895 C 0.03939 0.47807 0.76811 0.0
C896 C 0.06108 0.47647 0.8464 0.0
C897 C 0.03253 0.47484 0.85928 0.0
C898 C 0.03738 0.47634 0.79971 0.0
C899 C 0.00695 0.47308 0.84161 0.0
C900 C 0.01321 0.48033 0.75081 0.0
C901 C 0.07088 0.47789 0.72666 0.0
N902 N 0.00994 0.47409 0.81265 0.0
N903 N 0.06728 0.47717 0.75547 0.0
H904 H 0.70894 0.93254 0.87435 0.0
H905 H 0.59906 0.9444 1.00969 0.0
H906 H 0.73608 0.89936 0.95769 0.0
H907 H 0.59005 1.00608 0.94066 0.0
H908 H 0.64686 0.92395 0.98866 0.0
H909 H 0.66314 0.95666 0.89606 0.0
C910 C 0.70556 0.93044 0.89719 0.0
C911 C 0.72658 0.9135 0.91404 0.0
C912 C 0.63452 0.94206 0.97819 0.0
C913 C 0.67359 0.94063 0.93886 0.0
C914 C 0.60717 0.9537 0.99013 0.0
C915 C 0.59052 0.97704 0.97695 0.0
C916 C 0.64512 0.95341 0.95253 0.0
C917 C 0.60221 0.98819 0.95163 0.0
C918 C 0.67925 0.94414 0.90952 0.0
C919 C 0.72038 0.91142 0.94352 0.0
N920 N 0.62865 0.97612 0.94009 0.0
N921 N 0.69443 0.92454 0.95487 0.0
H922 H 0.77819 0.05112 0.39641 0.0
H923 H 0.92273 0.08757 0.49065 0.0
H924 H 0.80034 0.13788 0.41562 0.0
H925 H 0.9076 1.00202 0.46069 0.0
H926 H 0.87587 0.10609 0.46645 0.0
H927 H 0.82373 0.03255 0.42239 0.0
C928 C 0.79266 0.06632 0.40591 0.0
C929 C 0.78526 0.09619 0.40365 0.0
C930 C 0.88276 0.08325 0.46524 0.0
C931 C 0.83743 0.07492 0.43398 0.0
C932 C 0.90948 0.07264 0.47916 0.0
C933 C 0.91923 0.04318 0.47769 0.0
C934 C 0.8655 0.06429 0.44981 0.0
C935 C 0.90108 0.0249 0.46238 0.0
C936 C 0.81861 0.05566 0.42093 0.0
C937 C 0.80473 0.1147 0.41703 0.0
N938 N 0.87519 0.03574 0.44905 0.0
N939 N 0.82985 0.10379 0.43157 0.0
H940 H 0.23032 0.60865 0.04462 0.0
H941 H 0.1137 0.499 0.98829 0.0
H942 H 0.25917 0.52177 0.01863 0.0
H943 H 0.08803 0.56514 0.05062 0.0
H944 H 0.16655 0.51154 0.99153 0.0
H945 H 0.17701 0.59762 0.03884 0.0
C946 C 0.22536 0.58739 0.03733 0.0
C947 C 0.24899 0.56605 0.03204 0.0
C948 C 0.14931 0.52327 1.00448 0.0
C949 C 0.18849 0.55338 0.0254 0.0
C950 C 0.11918 0.5162 1.00262 0.0
C951 C 0.09652 0.53099 0.01933 0.0
C952 C 0.15671 0.54564 0.02275 0.0
C953 C 0.10488 0.55308 0.03753 0.0
C954 C 0.19506 0.58107 0.03428 0.0
C955 C 0.2415 0.53873 0.02299 0.0
N956 N 0.13433 0.55988 0.03864 0.0
N957 N 0.21185 0.53319 0.01982 0.0
H958 H 0.24935 0.52247 0.53247 0.0
H959 H 0.42051 0.46151 0.55999 0.0
H960 H 0.2717 0.43574 0.56247 0.0
H961 H 0.39631 0.52442 0.49429 0.0
H962 H 0.36614 0.45562 0.56749 0.0
H963 H 0.30376 0.52765 0.52447 0.0
C964 C 0.26577 0.50457 0.53734 0.0
C965 C 0.25622 0.47861 0.54797 0.0
C966 C 0.37286 0.47063 0.55141 0.0
C967 C 0.3181 0.48447 0.53937 0.0
C968 C 0.40377 0.47408 0.54721 0.0
C969 C 0.41285 0.49341 0.52645 0.0
C970 C 0.35101 0.48709 0.53516 0.0
C971 C 0.39028 0.50915 0.51041 0.0
C972 C 0.29668 0.50747 0.5327 0.0
C973 C 0.27827 0.45598 0.55396 0.0
N974 N 0.36037 0.50582 0.51526 0.0
N975 N 0.30828 0.4595 0.54979 0.0
H976 H 0.94642 0.69745 0.86132 0.0
H977 H 0.96566 0.61593 0.01294 0.0
H978 H 0.92164 0.73793 0.94213 0.0
H979 H 0.99075 0.57646 0.93174 0.0
H980 H 0.95037 0.66108 0.98777 0.0
H981 H 0.9641 0.65349 0.88702 0.0
C982 C 0.9449 0.69727 0.88446 0.0
C983 C 0.93232 0.72162 0.89943 0.0
C984 C 0.95928 0.64254 0.97548 0.0
C985 C 0.95232 0.67087 0.92919 0.0
C986 C 0.96804 0.61672 0.98987 0.0
C987 C 0.9795 0.59221 0.97453 0.0
C988 C 0.96196 0.64397 0.94547 0.0
C989 C 0.98201 0.59467 0.94458 0.0
C990 C 0.95484 0.672 0.89916 0.0
C991 C 0.93064 0.71967 0.9295 0.0
N992 N 0.97331 0.61994 0.93113 0.0
N993 N 0.94043 0.69484 0.9433 0.0
H994 H 0.48823 0.71191 0.09664 0.0
H995 H 0.46771 0.85701 1.00555 0.0
H996 H 0.45228 0.71623 1.01054 0.0
H997 H 0.51163 0.8515 0.08823 0.0
H998 H 0.46323 0.80515 1.00658 0.0
H999 H 0.49913 0.76232 0.0932 0.0
C1000 C 0.48307 0.7233 0.0768 0.0
C1001 C 0.46929 0.70974 0.05381 0.0
C1002 C 0.47393 0.8152 0.02449 0.0
C1003 C 0.48111 0.7678 0.05004 0.0
C1004 C 0.47627 0.84486 0.02403 0.0
C1005 C 0.48967 0.85862 0.04706 0.0
C1006 C 0.48496 0.79909 0.0482 0.0
C1007 C 0.50111 0.84172 0.07007 0.0
C1008 C 0.4891 0.7522 0.07496 0.0
C1009 C 0.46253 0.72587 0.02892 0.0
N1010 N 0.49829 0.81282 0.07017 0.0
N1011 N 0.46836 0.75409 0.02776 0.0
H1012 H 0.01918 0.31394 0.52503 0.0
H1013 H 0.07756 0.15251 0.56644 0.0
H1014 H 0.11364 0.2851 0.53855 0.0
H1015 H 0.98866 0.17431 0.52985 0.0
H1016 H 0.08909 0.20268 0.56145 0.0
H1017 H 0.00579 0.264 0.53025 0.0
C1018 C 0.0371 0.29703 0.52874 0.0
C1019 C 0.06757 0.30358 0.53121 0.0
C1020 C 0.06701 0.19652 0.5546 0.0
C1021 C 0.05243 0.24678 0.53775 0.0
C1022 C 0.06039 0.1679 0.55751 0.0
C1023 C 0.03221 0.15913 0.54829 0.0
C1024 C 0.04527 0.21663 0.54254 0.0
C1025 C 0.01059 0.18014 0.53742 0.0
C1026 C 0.02946 0.26863 0.53178 0.0
C1027 C 0.08993 0.28095 0.53605 0.0
N1028 N 0.01763 0.20794 0.5347 0.0
N1029 N 0.08188 0.2536 0.5394 0.0
H1030 H 0.57411 0.31387 0.37152 0.0
H1031 H 0.53809 0.40142 0.51763 0.0
H1032 H 0.58748 0.2771 0.4558 0.0
H1033 H 0.51835 0.43714 0.43379 0.0
H1034 H 0.55452 0.35518 0.49521 0.0
H1035 H 0.55133 0.3584 0.39358 0.0
C1036 C 0.57195 0.31498 0.39461 0.0
C1037 C 0.58313 0.29171 0.41177 0.0
C1038 C 0.54645 0.37308 0.4817 0.0
C1039 C 0.55737 0.34285 0.43726 0.0
C1040 C 0.53704 0.39954 0.49453 0.0
C1041 C 0.52688 0.42334 0.47765 0.0
C1042 C 0.54588 0.3703 0.45168 0.0
C1043 C 0.52605 0.41947 0.44775 0.0
C1044 C 0.55911 0.34051 0.40722 0.0
C1045 C 0.57984 0.29461 0.44165 0.0
N1046 N 0.53555 0.39359 0.43576 0.0
N1047 N 0.56751 0.31966 0.45337 0.0
loop_
_geom_bond_atom_site_label_1
_geom_bond_atom_site_label_2
_geom_bond_distance
_geom_bond_site_symmetry_2
_ccdc_geom_bond_type
C0 C1 1.391 . S
C0 C4 1.391 . S
C0 H42 0.948 . S
C1 C0 1.391 . S
C1 C2 1.391 . S
C2 C1 1.391 . S
C2 H58 0.947 . S
C2 C59 1.392 . S
C3 C4 1.391 . S
C3 C7 1.397 . S
C3 C59 1.419 . S
C4 C0 1.391 . S
C4 C3 1.391 . S
C4 C5 1.399 . S
C5 C4 1.399 . S
C5 C8 1.396 . S
C5 C17 1.453 . S
C5 C18 1.684 . S
H6 C30 0.948 . S
C7 C3 1.397 . S
C7 C8 1.394 . S
C7 C26 1.723 . S
C8 C5 1.396 . S
C8 C7 1.394 . S
C8 C38 1.723 . S
H9 C32 0.947 . S
H10 C33 0.948 . S
H11 C39 0.982 . S
H12 C40 0.979 . S
H13 C40 0.980 . S
H14 C40 0.983 . S
H15 C39 0.979 . S
H16 C39 0.977 . S
C17 C5 1.453 . S
C17 H46 0.982 . S
C17 H47 0.979 . S
C17 H48 0.977 . S
C18 C5 1.684 . S
C18 H43 0.979 . S
C18 H44 0.980 . S
C18 H45 0.983 . S
C19 C20 1.391 . S
C19 C24 1.391 . S
C19 H49 0.948 . S
C20 C19 1.391 . S
C20 C21 1.391 . S
C21 C20 1.391 . S
C21 C22 1.392 . S
C21 H50 0.947 . S
C22 C21 1.392 . S
C22 C23 1.419 . S
C22 H51 0.948 . S
C23 C22 1.419 . S
C23 C24 1.391 . S
C23 C27 1.397 . S
C24 C19 1.391 . S
C24 C23 1.391 . S
C24 C25 1.399 . S
C25 C24 1.399 . S
C25 C26 1.396 . S
C25 C28 1.453 . S
C25 C29 1.684 . S
C26 C7 1.723 . S
C26 C25 1.396 . S
C26 C27 1.394 . S
C27 C23 1.397 . S
C27 C26 1.394 . S
C27 C37 1.723 . S
C28 C25 1.453 . S
C28 H52 0.982 . S
C28 H53 0.979 . S
C28 H54 0.977 . S
C29 C25 1.684 . S
C29 H55 0.979 . S
C29 H56 0.980 . S
C29 H57 0.983 . S
C30 H6 0.948 . S
C30 C31 1.391 . S
C30 C35 1.391 . S
C31 C30 1.391 . S
C31 C32 1.391 . S
C32 H9 0.947 . S
C32 C31 1.391 . S
C32 C33 1.392 . S
C33 H10 0.948 . S
C33 C32 1.392 . S
C33 C34 1.419 . S
C34 C33 1.419 . S
C34 C35 1.391 . S
C34 C38 1.397 . S
C35 C30 1.391 . S
C35 C34 1.391 . S
C35 C36 1.399 . S
C36 C35 1.399 . S
C36 C37 1.396 . S
C36 C39 1.453 . S
C36 C40 1.684 . S
C37 C27 1.723 . S
C37 C36 1.396 . S
C37 C38 1.394 . S
C38 C8 1.723 . S
C38 C34 1.397 . S
C38 C37 1.394 . S
C39 H11 0.982 . S
C39 H15 0.979 . S
C39 H16 0.977 . S
C39 C36 1.453 . S
C40 H12 0.979 . S
C40 H13 0.980 . S
C40 H14 0.983 . S
C40 C36 1.684 . S
H41 C59 0.948 . S
H42 C0 0.948 . S
H43 C18 0.979 . S
H44 C18 0.980 . S
H45 C18 0.983 . S
H46 C17 0.982 . S
H47 C17 0.979 . S
H48 C17 0.977 . S
H49 C19 0.948 . S
H50 C21 0.947 . S
H51 C22 0.948 . S
H52 C28 0.982 . S
H53 C28 0.979 . S
H54 C28 0.977 . S
H55 C29 0.979 . S
H56 C29 0.980 . S
H57 C29 0.983 . S
H58 C2 0.947 . S
C59 C2 1.392 . S
C59 C3 1.419 . S
C59 H41 0.948 . S
C60 C61 1.391 . S
C60 C64 1.391 . S
C60 H102 0.948 . S
C61 C60 1.391 . S
C61 C62 1.391 . S
C62 C61 1.391 . S
C62 H118 0.947 . S
C62 C119 1.392 . S
C63 C64 1.391 . S
C63 C67 1.397 . S
C63 C119 1.419 . S
C64 C60 1.391 . S
C64 C63 1.391 . S
C64 C65 1.399 . S
C65 C64 1.399 . S
C65 C68 1.396 . S
C65 C77 1.453 . S
C65 C78 1.684 . S
H66 C90 0.948 . S
C67 C63 1.397 . S
C67 C68 1.394 . S
C67 C86 1.723 . S
C68 C65 1.396 . S
C68 C67 1.394 . S
C68 C98 1.723 . S
H69 C92 0.947 . S
H70 C93 0.948 . S
H71 C99 0.982 . S
H72 C100 0.979 . S
H73 C100 0.980 . S
H74 C100 0.983 . S
H75 C99 0.979 . S
H76 C99 0.977 . S
C77 C65 1.453 . S
C77 H106 0.982 . S
C77 H107 0.979 . S
C77 H108 0.977 . S
C78 C65 1.684 . S
C78 H103 0.979 . S
C78 H104 0.980 . S
C78 H105 0.983 . S
C79 C80 1.391 . S
C79 C84 1.391 . S
C79 H109 0.948 . S
C80 C79 1.391 . S
C80 C81 1.391 . S
C81 C80 1.391 . S
C81 C82 1.392 . S
C81 H110 0.947 . S
C82 C81 1.392 . S
C82 C83 1.419 . S
C82 H111 0.948 . S
C83 C82 1.419 . S
C83 C84 1.391 . S
C83 C87 1.397 . S
C84 C79 1.391 . S
C84 C83 1.391 . S
C84 C85 1.399 . S
C85 C84 1.399 . S
C85 C86 1.396 . S
C85 C88 1.453 . S
C85 C89 1.684 . S
C86 C67 1.723 . S
C86 C85 1.396 . S
C86 C87 1.394 . S
C87 C83 1.397 . S
C87 C86 1.394 . S
C87 C97 1.723 . S
C88 C85 1.453 . S
C88 H112 0.982 . S
C88 H113 0.979 . S
C88 H114 0.977 . S
C89 C85 1.684 . S
C89 H115 0.979 . S
C89 H116 0.980 . S
C89 H117 0.983 . S
C90 H66 0.948 . S
C90 C91 1.391 . S
C90 C95 1.391 . S
C91 C90 1.391 . S
C91 C92 1.391 . S
C92 H69 0.947 . S
C92 C91 1.391 . S
C92 C93 1.392 . S
C93 H70 0.948 . S
C93 C92 1.392 . S
C93 C94 1.419 . S
C94 C93 1.419 . S
C94 C95 1.391 . S
C94 C98 1.397 . S
C95 C90 1.391 . S
C95 C94 1.391 . S
C95 C96 1.399 . S
C96 C95 1.399 . S
C96 C97 1.396 . S
C96 C99 1.453 . S
C96 C100 1.684 . S
C97 C87 1.723 . S
C97 C96 1.396 . S
C97 C98 1.394 . S
C98 C68 1.723 . S
C98 C94 1.397 . S
C98 C97 1.394 . S
C99 H71 0.982 . S
C99 H75 0.979 . S
C99 H76 0.977 . S
C99 C96 1.453 . S
C100 H72 0.979 . S
C100 H73 0.980 . S
C100 H74 0.983 . S
C100 C96 1.684 . S
H101 C119 0.948 . S
H102 C60 0.948 . S
H103 C78 0.979 . S
H104 C78 0.980 . S
H105 C78 0.983 . S
H106 C77 0.982 . S
H107 C77 0.979 . S
H108 C77 0.977 . S
H109 C79 0.948 . S
H110 C81 0.947 . S
H111 C82 0.948 . S
H112 C88 0.982 . S
H113 C88 0.979 . S
H114 C88 0.977 . S
H115 C89 0.979 . S
H116 C89 0.980 . S
H117 C89 0.983 . S
H118 C62 0.947 . S
C119 C62 1.392 . S
C119 C63 1.419 . S
C119 H101 0.948 . S
C120 C121 1.391 . S
C120 C124 1.391 . S
C120 H162 0.948 . S
C121 C120 1.391 . S
C121 C122 1.391 . S
C122 C121 1.391 . S
C122 H178 0.947 . S
C122 C179 1.392 . S
C123 C124 1.391 . S
C123 C127 1.397 . S
C123 C179 1.419 . S
C124 C120 1.391 . S
C124 C123 1.391 . S
C124 C125 1.399 . S
C125 C124 1.399 . S
C125 C128 1.396 . S
C125 C137 1.453 . S
C125 C138 1.684 . S
H126 C150 0.948 . S
C127 C123 1.397 . S
C127 C128 1.394 . S
C127 C146 1.723 . S
C128 C125 1.396 . S
C128 C127 1.394 . S
C128 C158 1.723 . S
H129 C152 0.947 . S
H130 C153 0.948 . S
H131 C159 0.982 . S
H132 C160 0.979 . S
H133 C160 0.980 . S
H134 C160 0.983 . S
H135 C159 0.979 . S
H136 C159 0.977 . S
C137 C125 1.453 . S
C137 H166 0.982 . S
C137 H167 0.979 . S
C137 H168 0.977 . S
C138 C125 1.684 . S
C138 H163 0.979 . S
C138 H164 0.980 . S
C138 H165 0.983 . S
C139 C140 1.391 . S
C139 C144 1.391 . S
C139 H169 0.948 . S
C140 C139 1.391 . S
C140 C141 1.391 . S
C141 C140 1.391 . S
C141 C142 1.392 . S
C141 H170 0.947 . S
C142 C141 1.392 . S
C142 C143 1.419 . S
C142 H171 0.948 . S
C143 C142 1.419 . S
C143 C144 1.391 . S
C143 C147 1.397 . S
C144 C139 1.391 . S
C144 C143 1.391 . S
C144 C145 1.399 . S
C145 C144 1.399 . S
C145 C146 1.396 . S
C145 C148 1.453 . S
C145 C149 1.684 . S
C146 C127 1.723 . S
C146 C145 1.396 . S
C146 C147 1.394 . S
C147 C143 1.397 . S
C147 C146 1.394 . S
C147 C157 1.723 . S
C148 C145 1.453 . S
C148 H172 0.982 . S
C148 H173 0.979 . S
C148 H174 0.977 . S
C149 C145 1.684 . S
C149 H175 0.979 . S
C149 H176 0.980 . S
C149 H177 0.983 . S
C150 H126 0.948 . S
C150 C151 1.391 . S
C150 C155 1.391 . S
C151 C150 1.391 . S
C151 C152 1.391 . S
C152 H129 0.947 . S
C152 C151 1.391 . S
C152 C153 1.392 . S
C153 H130 0.948 . S
C153 C152 1.392 . S
C153 C154 1.419 . S
C154 C153 1.419 . S
C154 C155 1.391 . S
C154 C158 1.397 . S
C155 C150 1.391 . S
C155 C154 1.391 . S
C155 C156 1.399 . S
C156 C155 1.399 . S
C156 C157 1.396 . S
C156 C159 1.453 . S
C156 C160 1.684 . S
C157 C147 1.723 . S
C157 C156 1.396 . S
C157 C158 1.394 . S
C158 C128 1.723 . S
C158 C154 1.397 . S
C158 C157 1.394 . S
C159 H131 0.982 . S
C159 H135 0.979 . S
C159 H136 0.977 . S
C159 C156 1.453 . S
C160 H132 0.979 . S
C160 H133 0.980 . S
C160 H134 0.983 . S
C160 C156 1.684 . S
H161 C179 0.948 . S
H162 C120 0.948 . S
H163 C138 0.979 . S
H164 C138 0.980 . S
H165 C138 0.983 . S
H166 C137 0.982 . S
H167 C137 0.979 . S
H168 C137 0.977 . S
H169 C139 0.948 . S
H170 C141 0.947 . S
H171 C142 0.948 . S
H172 C148 0.982 . S
H173 C148 0.979 . S
H174 C148 0.977 . S
H175 C149 0.979 . S
H176 C149 0.980 . S
H177 C149 0.983 . S
H178 C122 0.947 . S
C179 C122 1.392 . S
C179 C123 1.419 . S
C179 H161 0.948 . S
C180 C181 1.391 . S
C180 C184 1.391 . S
C180 H222 0.948 . S
C181 C180 1.391 . S
C181 C182 1.391 . S
C182 C181 1.391 . S
C182 H238 0.947 . S
C182 C239 1.392 . S
C183 C184 1.391 . S
C183 C187 1.397 . S
C183 C239 1.419 . S
C184 C180 1.391 . S
C184 C183 1.391 . S
C184 C185 1.399 . S
C185 C184 1.399 . S
C185 C188 1.396 . S
C185 C197 1.453 . S
C185 C198 1.684 . S
H186 C210 0.948 . S
C187 C183 1.397 . S
C187 C188 1.394 . S
C187 C206 1.723 . S
C188 C185 1.396 . S
C188 C187 1.394 . S
C188 C218 1.723 . S
H189 C212 0.947 . S
H190 C213 0.948 . S
H191 C219 0.982 . S
H192 C220 0.979 . S
H193 C220 0.980 . S
H194 C220 0.983 . S
H195 C219 0.979 . S
H196 C219 0.977 . S
C197 C185 1.453 . S
C197 H226 0.982 . S
C197 H227 0.979 . S
C197 H228 0.977 . S
C198 C185 1.684 . S
C198 H223 0.979 . S
C198 H224 0.980 . S
C198 H225 0.983 . S
C199 C200 1.391 . S
C199 C204 1.391 . S
C199 H229 0.948 . S
C200 C199 1.391 . S
C200 C201 1.391 . S
C201 C200 1.391 . S
C201 C202 1.392 . S
C201 H230 0.947 . S
C202 C201 1.392 . S
C202 C203 1.419 . S
C202 H231 0.948 . S
C203 C202 1.419 . S
C203 C204 1.391 . S
C203 C207 1.397 . S
C204 C199 1.391 . S
C204 C203 1.391 . S
C204 C205 1.399 . S
C205 C204 1.399 . S
C205 C206 1.396 . S
C205 C208 1.453 . S
C205 C209 1.684 . S
C206 C187 1.723 . S
C206 C205 1.396 . S
C206 C207 1.394 . S
C207 C203 1.397 . S
C207 C206 1.394 . S
C207 C217 1.723 . S
C208 C205 1.453 . S
C208 H232 0.982 . S
C208 H233 0.979 . S
C208 H234 0.977 . S
C209 C205 1.684 . S
C209 H235 0.979 . S
C209 H236 0.980 . S
C209 H237 0.983 . S
C210 H186 0.948 . S
C210 C211 1.391 . S
C210 C215 1.391 . S
C211 C210 1.391 . S
C211 C212 1.391 . S
C212 H189 0.947 . S
C212 C211 1.391 . S
C212 C213 1.392 . S
C213 H190 0.948 . S
C213 C212 1.392 . S
C213 C214 1.419 . S
C214 C213 1.419 . S
C214 C215 1.391 . S
C214 C218 1.397 . S
C215 C210 1.391 . S
C215 C214 1.391 . S
C215 C216 1.399 . S
C216 C215 1.399 . S
C216 C217 1.396 . S
C216 C219 1.453 . S
C216 C220 1.684 . S
C217 C207 1.723 . S
C217 C216 1.396 . S
C217 C218 1.394 . S
C218 C188 1.723 . S
C218 C214 1.397 . S
C218 C217 1.394 . S
C219 H191 0.982 . S
C219 H195 0.979 . S
C219 H196 0.977 . S
C219 C216 1.453 . S
C220 H192 0.979 . S
C220 H193 0.980 . S
C220 H194 0.983 . S
C220 C216 1.684 . S
H221 C239 0.948 . S
H222 C180 0.948 . S
H223 C198 0.979 . S
H224 C198 0.980 . S
H225 C198 0.983 . S
H226 C197 0.982 . S
H227 C197 0.979 . S
H228 C197 0.977 . S
H229 C199 0.948 . S
H230 C201 0.947 . S
H231 C202 0.948 . S
H232 C208 0.982 . S
H233 C208 0.979 . S
H234 C208 0.977 . S
H235 C209 0.979 . S
H236 C209 0.980 . S
H237 C209 0.983 . S
H238 C182 0.947 . S
C239 C182 1.392 . S
C239 C183 1.419 . S
C239 H221 0.948 . S
C240 C241 1.391 . S
C240 C244 1.391 . S
C240 H282 0.948 . S
C241 C240 1.391 . S
C241 C242 1.391 . S
C242 C241 1.391 . S
C242 H298 0.947 . S
C242 C299 1.392 . S
C243 C244 1.391 . S
C243 C247 1.397 . S
C243 C299 1.419 . S
C244 C240 1.391 . S
C244 C243 1.391 . S
C244 C245 1.399 . S
C245 C244 1.399 . S
C245 C248 1.396 . S
C245 C257 1.453 . S
C245 C258 1.684 . S
H246 C270 0.948 . S
C247 C243 1.397 . S
C247 C248 1.394 . S
C247 C266 1.723 . S
C248 C245 1.396 . S
C248 C247 1.394 . S
C248 C278 1.723 . S
H249 C272 0.947 . S
H250 C273 0.948 . S
H251 C279 0.982 . S
H252 C280 0.979 . S
H253 C280 0.980 . S
H254 C280 0.983 . S
H255 C279 0.979 . S
H256 C279 0.977 . S
C257 C245 1.453 . S
C257 H286 0.982 . S
C257 H287 0.979 . S
C257 H288 0.977 . S
C258 C245 1.684 . S
C258 H283 0.979 . S
C258 H284 0.980 . S
C258 H285 0.983 . S
C259 C260 1.391 . S
C259 C264 1.391 . S
C259 H289 0.948 . S
C260 C259 1.391 . S
C260 C261 1.391 . S
C261 C260 1.391 . S
C261 C262 1.392 . S
C261 H290 0.947 . S
C262 C261 1.392 . S
C262 C263 1.419 . S
C262 H291 0.948 . S
C263 C262 1.419 . S
C263 C264 1.391 . S
C263 C267 1.397 . S
C264 C259 1.391 . S
C264 C263 1.391 . S
C264 C265 1.399 . S
C265 C264 1.399 . S
C265 C266 1.396 . S
C265 C268 1.453 . S
C265 C269 1.684 . S
C266 C247 1.723 . S
C266 C265 1.396 . S
C266 C267 1.394 . S
C267 C263 1.397 . S
C267 C266 1.394 . S
C267 C277 1.723 . S
C268 C265 1.453 . S
C268 H292 0.982 . S
C268 H293 0.979 . S
C268 H294 0.977 . S
C269 C265 1.684 . S
C269 H295 0.979 . S
C269 H296 0.980 . S
C269 H297 0.983 . S
C270 H246 0.948 . S
C270 C271 1.391 . S
C270 C275 1.391 . S
C271 C270 1.391 . S
C271 C272 1.391 . S
C272 H249 0.947 . S
C272 C271 1.391 . S
C272 C273 1.392 . S
C273 H250 0.948 . S
C273 C272 1.392 . S
C273 C274 1.419 . S
C274 C273 1.419 . S
C274 C275 1.391 . S
C274 C278 1.397 . S
C275 C270 1.391 . S
C275 C274 1.391 . S
C275 C276 1.399 . S
C276 C275 1.399 . S
C276 C277 1.396 . S
C276 C279 1.453 . S
C276 C280 1.684 . S
C277 C267 1.723 . S
C277 C276 1.396 . S
C277 C278 1.394 . S
C278 C248 1.723 . S
C278 C274 1.397 . S
C278 C277 1.394 . S
C279 H251 0.982 . S
C279 H255 0.979 . S
C279 H256 0.977 . S
C279 C276 1.453 . S
C280 H252 0.979 . S
C280 H253 0.980 . S
C280 H254 0.983 . S
C280 C276 1.684 . S
H281 C299 0.948 . S
H282 C240 0.948 . S
H283 C258 0.979 . S
H284 C258 0.980 . S
H285 C258 0.983 . S
H286 C257 0.982 . S
H287 C257 0.979 . S
H288 C257 0.977 . S
H289 C259 0.948 . S
H290 C261 0.947 . S
H291 C262 0.948 . S
H292 C268 0.982 . S
H293 C268 0.979 . S
H294 C268 0.977 . S
H295 C269 0.979 . S
H296 C269 0.980 . S
H297 C269 0.983 . S
H298 C242 0.947 . S
C299 C242 1.392 . S
C299 C243 1.419 . S
C299 H281 0.948 . S
C300 C301 1.391 . S
C300 C304 1.391 . S
C300 H342 0.948 . S
C301 C300 1.391 . S
C301 C302 1.391 . S
C302 C301 1.391 . S
C302 H358 0.947 . S
C302 C359 1.392 . S
C303 C304 1.391 . S
C303 C307 1.397 . S
C303 C359 1.419 . S
C304 C300 1.391 . S
C304 C303 1.391 . S
C304 C305 1.399 . S
C305 C304 1.399 . S
C305 C308 1.396 . S
C305 C317 1.453 . S
C305 C318 1.684 . S
H306 C330 0.948 . S
C307 C303 1.397 . S
C307 C308 1.394 . S
C307 C326 1.723 . S
C308 C305 1.396 . S
C308 C307 1.394 . S
C308 C338 1.723 . S
H309 C332 0.947 . S
H310 C333 0.948 . S
H311 C339 0.982 . S
H312 C340 0.979 . S
H313 C340 0.980 . S
H314 C340 0.983 . S
H315 C339 0.979 . S
H316 C339 0.977 . S
C317 C305 1.453 . S
C317 H346 0.982 . S
C317 H347 0.979 . S
C317 H348 0.977 . S
C318 C305 1.684 . S
C318 H343 0.979 . S
C318 H344 0.980 . S
C318 H345 0.983 . S
C319 C320 1.391 . S
C319 C324 1.391 . S
C319 H349 0.948 . S
C320 C319 1.391 . S
C320 C321 1.391 . S
C321 C320 1.391 . S
C321 C322 1.392 . S
C321 H350 0.947 . S
C322 C321 1.392 . S
C322 C323 1.419 . S
C322 H351 0.948 . S
C323 C322 1.419 . S
C323 C324 1.391 . S
C323 C327 1.397 . S
C324 C319 1.391 . S
C324 C323 1.391 . S
C324 C325 1.399 . S
C325 C324 1.399 . S
C325 C326 1.396 . S
C325 C328 1.453 . S
C325 C329 1.684 . S
C326 C307 1.723 . S
C326 C325 1.396 . S
C326 C327 1.394 . S
C327 C323 1.397 . S
C327 C326 1.394 . S
C327 C337 1.723 . S
C328 C325 1.453 . S
C328 H352 0.982 . S
C328 H353 0.979 . S
C328 H354 0.977 . S
C329 C325 1.684 . S
C329 H355 0.979 . S
C329 H356 0.980 . S
C329 H357 0.983 . S
C330 H306 0.948 . S
C330 C331 1.391 . S
C330 C335 1.391 . S
C331 C330 1.391 . S
C331 C332 1.391 . S
C332 H309 0.947 . S
C332 C331 1.391 . S
C332 C333 1.392 . S
C333 H310 0.948 . S
C333 C332 1.392 . S
C333 C334 1.419 . S
C334 C333 1.419 . S
C334 C335 1.391 . S
C334 C338 1.397 . S
C335 C330 1.391 . S
C335 C334 1.391 . S
C335 C336 1.399 . S
C336 C335 1.399 . S
C336 C337 1.396 . S
C336 C339 1.453 . S
C336 C340 1.684 . S
C337 C327 1.723 . S
C337 C336 1.396 . S
C337 C338 1.394 . S
C338 C308 1.723 . S
C338 C334 1.397 . S
C338 C337 1.394 . S
C339 H311 0.982 . S
C339 H315 0.979 . S
C339 H316 0.977 . S
C339 C336 1.453 . S
C340 H312 0.979 . S
C340 H313 0.980 . S
C340 H314 0.983 . S
C340 C336 1.684 . S
H341 C359 0.948 . S
H342 C300 0.948 . S
H343 C318 0.979 . S
H344 C318 0.980 . S
H345 C318 0.983 . S
H346 C317 0.982 . S
H347 C317 0.979 . S
H348 C317 0.977 . S
H349 C319 0.948 . S
H350 C321 0.947 . S
H351 C322 0.948 . S
H352 C328 0.982 . S
H353 C328 0.979 . S
H354 C328 0.977 . S
H355 C329 0.979 . S
H356 C329 0.980 . S
H357 C329 0.983 . S
H358 C302 0.947 . S
C359 C302 1.392 . S
C359 C303 1.419 . S
C359 H341 0.948 . S
C360 C361 1.391 . S
C360 C364 1.391 . S
C360 H402 0.948 . S
C361 C360 1.391 . S
C361 C362 1.391 . S
C362 C361 1.391 . S
C362 H418 0.947 . S
C362 C419 1.392 . S
C363 C364 1.391 . S
C363 C367 1.397 . S
C363 C419 1.419 . S
C364 C360 1.391 . S
C364 C363 1.391 . S
C364 C365 1.399 . S
C365 C364 1.399 . S
C365 C368 1.396 . S
C365 C377 1.453 . S
C365 C378 1.684 . S
H366 C390 0.948 . S
C367 C363 1.397 . S
C367 C368 1.394 . S
C367 C386 1.723 . S
C368 C365 1.396 . S
C368 C367 1.394 . S
C368 C398 1.723 . S
H369 C392 0.947 . S
H370 C393 0.948 . S
H371 C399 0.982 . S
H372 C400 0.979 . S
H373 C400 0.980 . S
H374 C400 0.983 . S
H375 C399 0.979 . S
H376 C399 0.977 . S
C377 C365 1.453 . S
C377 H406 0.982 . S
C377 H407 0.979 . S
C377 H408 0.977 . S
C378 C365 1.684 . S
C378 H403 0.979 . S
C378 H404 0.980 . S
C378 H405 0.983 . S
C379 C380 1.391 . S
C379 C384 1.391 . S
C379 H409 0.948 . S
C380 C379 1.391 . S
C380 C381 1.391 . S
C381 C380 1.391 . S
C381 C382 1.392 . S
C381 H410 0.947 . S
C382 C381 1.392 . S
C382 C383 1.419 . S
C382 H411 0.948 . S
C383 C382 1.419 . S
C383 C384 1.391 . S
C383 C387 1.397 . S
C384 C379 1.391 . S
C384 C383 1.391 . S
C384 C385 1.399 . S
C385 C384 1.399 . S
C385 C386 1.396 . S
C385 C388 1.453 . S
C385 C389 1.684 . S
C386 C367 1.723 . S
C386 C385 1.396 . S
C386 C387 1.394 . S
C387 C383 1.397 . S
C387 C386 1.394 . S
C387 C397 1.723 . S
C388 C385 1.453 . S
C388 H412 0.982 . S
C388 H413 0.979 . S
C388 H414 0.977 . S
C389 C385 1.684 . S
C389 H415 0.979 . S
C389 H416 0.980 . S
C389 H417 0.983 . S
C390 H366 0.948 . S
C390 C391 1.391 . S
C390 C395 1.391 . S
C391 C390 1.391 . S
C391 C392 1.391 . S
C392 H369 0.947 . S
C392 C391 1.391 . S
C392 C393 1.392 . S
C393 H370 0.948 . S
C393 C392 1.392 . S
C393 C394 1.419 . S
C394 C393 1.419 . S
C394 C395 1.391 . S
C394 C398 1.397 . S
C395 C390 1.391 . S
C395 C394 1.391 . S
C395 C396 1.399 . S
C396 C395 1.399 . S
C396 C397 1.396 . S
C396 C399 1.453 . S
C396 C400 1.684 . S
C397 C387 1.723 . S
C397 C396 1.396 . S
C397 C398 1.394 . S
C398 C368 1.723 . S
C398 C394 1.397 . S
C398 C397 1.394 . S
C399 H371 0.982 . S
C399 H375 0.979 . S
C399 H376 0.977 . S
C399 C396 1.453 . S
C400 H372 0.979 . S
C400 H373 0.980 . S
C400 H374 0.983 . S
C400 C396 1.684 . S
H401 C419 0.948 . S
H402 C360 0.948 . S
H403 C378 0.979 . S
H404 C378 0.980 . S
H405 C378 0.983 . S
H406 C377 0.982 . S
H407 C377 0.979 . S
H408 C377 0.977 . S
H409 C379 0.948 . S
H410 C381 0.947 . S
H411 C382 0.948 . S
H412 C388 0.982 . S
H413 C388 0.979 . S
H414 C388 0.977 . S
H415 C389 0.979 . S
H416 C389 0.980 . S
H417 C389 0.983 . S
H418 C362 0.947 . S
C419 C362 1.392 . S
C419 C363 1.419 . S
C419 H401 0.948 . S
C420 C421 1.391 . S
C420 C424 1.391 . S
C420 H462 0.948 . S
C421 C420 1.391 . S
C421 C422 1.391 . S
C422 C421 1.391 . S
C422 H478 0.947 . S
C422 C479 1.392 . S
C423 C424 1.391 . S
C423 C427 1.397 . S
C423 C479 1.419 . S
C424 C420 1.391 . S
C424 C423 1.391 . S
C424 C425 1.399 . S
C425 C424 1.399 . S
C425 C428 1.396 . S
C425 C437 1.453 . S
C425 C438 1.684 . S
H426 C450 0.948 . S
C427 C423 1.397 . S
C427 C428 1.394 . S
C427 C446 1.723 . S
C428 C425 1.396 . S
C428 C427 1.394 . S
C428 C458 1.723 . S
H429 C452 0.947 . S
H430 C453 0.948 . S
H431 C459 0.982 . S
H432 C460 0.979 . S
H433 C460 0.980 . S
H434 C460 0.983 . S
H435 C459 0.979 . S
H436 C459 0.977 . S
C437 C425 1.453 . S
C437 H466 0.982 . S
C437 H467 0.979 . S
C437 H468 0.977 . S
C438 C425 1.684 . S
C438 H463 0.979 . S
C438 H464 0.980 . S
C438 H465 0.983 . S
C439 C440 1.391 . S
C439 C444 1.391 . S
C439 H469 0.948 . S
C440 C439 1.391 . S
C440 C441 1.391 . S
C441 C440 1.391 . S
C441 C442 1.392 . S
C441 H470 0.947 . S
C442 C441 1.392 . S
C442 C443 1.419 . S
C442 H471 0.948 . S
C443 C442 1.419 . S
C443 C444 1.391 . S
C443 C447 1.397 . S
C444 C439 1.391 . S
C444 C443 1.391 . S
C444 C445 1.399 . S
C445 C444 1.399 . S
C445 C446 1.396 . S
C445 C448 1.453 . S
C445 C449 1.684 . S
C446 C427 1.723 . S
C446 C445 1.396 . S
C446 C447 1.394 . S
C447 C443 1.397 . S
C447 C446 1.394 . S
C447 C457 1.723 . S
C448 C445 1.453 . S
C448 H472 0.982 . S
C448 H473 0.979 . S
C448 H474 0.977 . S
C449 C445 1.684 . S
C449 H475 0.979 . S
C449 H476 0.980 . S
C449 H477 0.983 . S
C450 H426 0.948 . S
C450 C451 1.391 . S
C450 C455 1.391 . S
C451 C450 1.391 . S
C451 C452 1.391 . S
C452 H429 0.947 . S
C452 C451 1.391 . S
C452 C453 1.392 . S
C453 H430 0.948 . S
C453 C452 1.392 . S
C453 C454 1.419 . S
C454 C453 1.419 . S
C454 C455 1.391 . S
C454 C458 1.397 . S
C455 C450 1.391 . S
C455 C454 1.391 . S
C455 C456 1.399 . S
C456 C455 1.399 . S
C456 C457 1.396 . S
C456 C459 1.453 . S
C456 C460 1.684 . S
C457 C447 1.723 . S
C457 C456 1.396 . S
C457 C458 1.394 . S
C458 C428 1.723 . S
C458 C454 1.397 . S
C458 C457 1.394 . S
C459 H431 0.982 . S
C459 H435 0.979 . S
C459 H436 0.977 . S
C459 C456 1.453 . S
C460 H432 0.979 . S
C460 H433 0.980 . S
C460 H434 0.983 . S
C460 C456 1.684 . S
H461 C479 0.948 . S
H462 C420 0.948 . S
H463 C438 0.979 . S
H464 C438 0.980 . S
H465 C438 0.983 . S
H466 C437 0.982 . S
H467 C437 0.979 . S
H468 C437 0.977 . S
H469 C439 0.948 . S
H470 C441 0.947 . S
H471 C442 0.948 . S
H472 C448 0.982 . S
H473 C448 0.979 . S
H474 C448 0.977 . S
H475 C449 0.979 . S
H476 C449 0.980 . S
H477 C449 0.983 . S
H478 C422 0.947 . S
C479 C422 1.392 . S
C479 C423 1.419 . S
C479 H461 0.948 . S
C480 O496 1.251 . S
C480 O498 1.254 1_545 S
N481 C482 1.333 . S
N481 C486 1.307 . S
N481 Zn487 2.020 . S
C482 N481 1.333 . S
C482 C483 1.379 . S
C482 H500 0.952 . S
C483 C482 1.379 . S
C483 C484 1.390 . S
C483 H510 0.949 . S
C484 C483 1.390 . S
C484 C485 1.357 . S
C485 C484 1.357 . S
C485 C486 1.370 . S
C485 H511 0.950 . S
C486 N481 1.307 . S
C486 C485 1.370 . S
C486 H504 0.948 1_455 S
Zn487 N481 2.020 . S
Zn487 O496 2.039 . S
Zn487 O502 2.034 . S
Zn487 O506 2.025 1_455 S
Zn487 O508 2.024 1_455 S
C488 O507 1.246 1_545 S
C488 O508 1.249 . S
N489 C490 1.307 . S
N489 C491 1.333 . S
N489 Zn495 2.020 . S
C490 N489 1.307 . S
C490 C494 1.370 . S
C490 H501 0.948 1_655 S
C491 N489 1.333 . S
C491 C492 1.379 . S
C491 H499 0.952 . S
C492 C491 1.379 . S
C492 C493 1.390 . S
C492 H512 0.949 . S
C493 C492 1.390 . S
C493 C494 1.357 . S
C494 C490 1.370 . S
C494 C493 1.357 . S
C494 H513 0.950 . S
Zn495 N489 2.020 . S
Zn495 O498 2.025 1_655 S
Zn495 O503 2.024 1_655 S
Zn495 O505 2.039 . S
Zn495 O507 2.034 . S
O496 C480 1.251 . S
O496 Zn487 2.039 . S
C497 O502 1.246 1_565 S
C497 O503 1.249 . S
O498 C480 1.254 1_565 S
O498 Zn495 2.025 1_455 S
H499 C491 0.952 . S
H500 C482 0.952 . S
H501 C490 0.948 1_455 S
O502 Zn487 2.034 . S
O502 C497 1.246 1_545 S
O503 Zn495 2.024 1_455 S
O503 C497 1.249 . S
H504 C486 0.948 1_655 S
O505 Zn495 2.039 . S
O505 C509 1.251 . S
O506 Zn487 2.025 1_655 S
O506 C509 1.254 1_545 S
O507 C488 1.246 1_565 S
O507 Zn495 2.034 . S
O508 Zn487 2.024 1_655 S
O508 C488 1.249 . S
C509 O505 1.251 . S
C509 O506 1.254 1_565 S
H510 C483 0.949 . S
H511 C485 0.950 . S
H512 C492 0.949 . S
H513 C494 0.950 . S
C514 O530 1.251 1_565 S
C514 O532 1.254 . S
N515 C516 1.333 . S
N515 C520 1.307 . S
N515 Zn521 2.020 . S
C516 N515 1.333 . S
C516 C517 1.379 . S
C516 H534 0.952 . S
C517 C516 1.379 . S
C517 C518 1.390 . S
C517 H544 0.949 . S
C518 C517 1.390 . S
C518 C519 1.357 . S
C519 C518 1.357 . S
C519 C520 1.370 . S
C519 H545 0.950 . S
C520 N515 1.307 . S
C520 C519 1.370 . S
C520 H538 0.948 . S
Zn521 N515 2.020 . S
Zn521 O530 2.039 . S
Zn521 O536 2.034 1_556 S
Zn521 O540 2.025 1_556 S
Zn521 O542 2.024 . S
C522 O541 1.246 . S
C522 O542 1.249 1_565 S
N523 C524 1.307 . S
N523 C525 1.333 . S
N523 Zn529 2.020 . S
C524 N523 1.307 . S
C524 C528 1.370 . S
C524 H535 0.948 . S
C525 N523 1.333 . S
C525 C526 1.379 . S
C525 H533 0.952 . S
C526 C525 1.379 . S
C526 C527 1.390 . S
C526 H546 0.949 . S
C527 C526 1.390 . S
C527 C528 1.357 . S
C528 C524 1.370 . S
C528 C527 1.357 . S
C528 H547 0.950 . S
Zn529 N523 2.020 . S
Zn529 O532 2.025 1_554 S
Zn529 O537 2.024 . S
Zn529 O539 2.039 . S
Zn529 O541 2.034 1_554 S
O530 C514 1.251 1_545 S
O530 Zn521 2.039 . S
C531 O536 1.246 . S
C531 O537 1.249 1_545 S
O532 C514 1.254 . S
O532 Zn529 2.025 1_556 S
H533 C525 0.952 . S
H534 C516 0.952 . S
H535 C524 0.948 . S
O536 Zn521 2.034 1_554 S
O536 C531 1.246 . S
O537 Zn529 2.024 . S
O537 C531 1.249 1_565 S
H538 C520 0.948 . S
O539 Zn529 2.039 . S
O539 C543 1.251 1_565 S
O540 Zn521 2.025 1_554 S
O540 C543 1.254 . S
O541 C522 1.246 . S
O541 Zn529 2.034 1_556 S
O542 Zn521 2.024 . S
O542 C522 1.249 1_545 S
C543 O539 1.251 1_545 S
C543 O540 1.254 . S
H544 C517 0.949 . S
H545 C519 0.950 . S
H546 C526 0.949 . S
H547 C528 0.950 . S
C548 O564 1.251 . S
C548 O566 1.254 . S
N549 C550 1.333 . S
N549 C554 1.307 . S
N549 Zn555 2.020 . S
C550 N549 1.333 . S
C550 C551 1.379 . S
C550 H568 0.952 . S
C551 C550 1.379 . S
C551 C552 1.390 . S
C551 H578 0.949 . S
C552 C551 1.390 . S
C552 C553 1.357 . S
C553 C552 1.357 . S
C553 C554 1.370 . S
C553 H579 0.950 . S
C554 N549 1.307 . S
C554 C553 1.370 . S
C554 H572 0.948 . S
Zn555 N549 2.020 . S
Zn555 O564 2.039 . S
Zn555 O570 2.034 . S
Zn555 O574 2.025 . S
Zn555 O576 2.024 . S
C556 O575 1.246 . S
C556 O576 1.249 . S
N557 C558 1.307 . S
N557 C559 1.333 . S
N557 Zn563 2.020 . S
C558 N557 1.307 . S
C558 C562 1.370 . S
C558 H569 0.948 . S
C559 N557 1.333 . S
C559 C560 1.379 . S
C559 H567 0.952 . S
C560 C559 1.379 . S
C560 C561 1.390 . S
C560 H580 0.949 . S
C561 C560 1.390 . S
C561 C562 1.357 . S
C562 C558 1.370 . S
C562 C561 1.357 . S
C562 H581 0.950 . S
Zn563 N557 2.020 . S
Zn563 O566 2.025 . S
Zn563 O571 2.024 . S
Zn563 O573 2.039 . S
Zn563 O575 2.034 . S
O564 C548 1.251 . S
O564 Zn555 2.039 . S
C565 O570 1.246 . S
C565 O571 1.249 . S
O566 C548 1.254 . S
O566 Zn563 2.025 . S
H567 C559 0.952 . S
H568 C550 0.952 . S
H569 C558 0.948 . S
O570 Zn555 2.034 . S
O570 C565 1.246 . S
O571 Zn563 2.024 . S
O571 C565 1.249 . S
H572 C554 0.948 . S
O573 Zn563 2.039 . S
O573 C577 1.251 . S
O574 Zn555 2.025 . S
O574 C577 1.254 . S
O575 C556 1.246 . S
O575 Zn563 2.034 . S
O576 Zn555 2.024 . S
O576 C556 1.249 . S
C577 O573 1.251 . S
C577 O574 1.254 . S
H578 C551 0.949 . S
H579 C553 0.950 . S
H580 C560 0.949 . S
H581 C562 0.950 . S
C582 O598 1.251 1_556 S
C582 O600 1.254 . S
N583 C584 1.333 . S
N583 C588 1.307 . S
N583 Zn589 2.020 . S
C584 N583 1.333 . S
C584 C585 1.379 . S
C584 H602 0.952 . S
C585 C584 1.379 . S
C585 C586 1.390 . S
C585 H612 0.949 . S
C586 C585 1.390 . S
C586 C587 1.357 . S
C587 C586 1.357 . S
C587 C588 1.370 . S
C587 H613 0.950 . S
C588 N583 1.307 . S
C588 C587 1.370 . S
C588 H606 0.948 . S
Zn589 N583 2.020 . S
Zn589 O598 2.039 . S
Zn589 O604 2.034 1_655 S
Zn589 O608 2.025 1_655 S
Zn589 O610 2.024 . S
C590 O609 1.246 . S
C590 O610 1.249 1_556 S
N591 C592 1.307 . S
N591 C593 1.333 . S
N591 Zn597 2.020 . S
C592 N591 1.307 . S
C592 C596 1.370 . S
C592 H603 0.948 . S
C593 N591 1.333 . S
C593 C594 1.379 . S
C593 H601 0.952 . S
C594 C593 1.379 . S
C594 C595 1.390 . S
C594 H614 0.949 . S
C595 C594 1.390 . S
C595 C596 1.357 . S
C596 C592 1.370 . S
C596 C595 1.357 . S
C596 H615 0.950 . S
Zn597 N591 2.020 . S
Zn597 O600 2.025 1_455 S
Zn597 O605 2.024 . S
Zn597 O607 2.039 . S
Zn597 O609 2.034 1_455 S
O598 C582 1.251 1_554 S
O598 Zn589 2.039 . S
C599 O604 1.246 . S
C599 O605 1.249 1_554 S
O600 C582 1.254 . S
O600 Zn597 2.025 1_655 S
H601 C593 0.952 . S
H602 C584 0.952 . S
H603 C592 0.948 . S
O604 Zn589 2.034 1_455 S
O604 C599 1.246 . S
O605 Zn597 2.024 . S
O605 C599 1.249 1_556 S
H606 C588 0.948 . S
O607 Zn597 2.039 . S
O607 C611 1.251 1_556 S
O608 Zn589 2.025 1_455 S
O608 C611 1.254 . S
O609 C590 1.246 . S
O609 Zn597 2.034 1_655 S
O610 Zn589 2.024 . S
O610 C590 1.249 1_554 S
C611 O607 1.251 1_554 S
C611 O608 1.254 . S
H612 C585 0.949 . S
H613 C587 0.950 . S
H614 C594 0.949 . S
H615 C596 0.950 . S
H616 C622 0.930 . S
H617 C626 0.930 . S
H618 C631 0.929 . S
H619 C629 0.929 1_655 S
H620 C624 0.929 . S
H621 C630 0.929 . S
C622 H616 0.930 . S
C622 C623 1.367 . S
C622 C630 1.378 . S
C623 C622 1.367 . S
C623 C631 1.433 . S
C624 H620 0.929 . S
C624 C626 1.378 . S
C624 C628 1.350 . S
C625 C628 1.463 . S
C625 C630 1.350 . S
C625 N633 1.427 . S
C626 H617 0.930 . S
C626 C624 1.378 . S
C626 C627 1.367 . S
C627 C626 1.367 . S
C627 C629 1.433 . S
C628 C624 1.350 . S
C628 C625 1.463 . S
C628 N632 1.427 . S
C629 H619 0.929 1_455 S
C629 C627 1.433 . S
C629 N632 1.384 . S
C630 H621 0.929 . S
C630 C622 1.378 . S
C630 C625 1.350 . S
C631 H618 0.929 . S
C631 C623 1.433 . S
C631 N633 1.384 . S
N632 C628 1.427 . S
N632 C629 1.384 . S
N633 C625 1.427 . S
N633 C631 1.384 . S
H634 C640 0.930 . S
H635 C644 0.930 . S
H636 C649 0.929 . S
H637 C647 0.929 1_545 S
H638 C642 0.929 . S
H639 C648 0.929 . S
C640 H634 0.930 . S
C640 C641 1.367 . S
C640 C648 1.378 . S
C641 C640 1.367 . S
C641 C649 1.433 . S
C642 H638 0.929 . S
C642 C644 1.378 . S
C642 C646 1.350 . S
C643 C646 1.463 . S
C643 C648 1.350 . S
C643 N651 1.427 . S
C644 H635 0.930 . S
C644 C642 1.378 . S
C644 C645 1.367 . S
C645 C644 1.367 . S
C645 C647 1.433 . S
C646 C642 1.350 . S
C646 C643 1.463 . S
C646 N650 1.427 . S
C647 H637 0.929 1_565 S
C647 C645 1.433 . S
C647 N650 1.384 . S
C648 H639 0.929 . S
C648 C640 1.378 . S
C648 C643 1.350 . S
C649 H636 0.929 . S
C649 C641 1.433 . S
C649 N651 1.384 . S
N650 C646 1.427 . S
N650 C647 1.384 . S
N651 C643 1.427 . S
N651 C649 1.384 . S
H652 C658 0.930 . S
H653 C662 0.930 . S
H654 C667 0.929 . S
H655 C665 0.929 . S
H656 C660 0.929 . S
H657 C666 0.929 . S
C658 H652 0.930 . S
C658 C659 1.367 . S
C658 C666 1.378 . S
C659 C658 1.367 . S
C659 C667 1.433 . S
C660 H656 0.929 . S
C660 C662 1.378 . S
C660 C664 1.350 . S
C661 C664 1.463 . S
C661 C666 1.350 . S
C661 N669 1.427 . S
C662 H653 0.930 . S
C662 C660 1.378 . S
C662 C663 1.367 . S
C663 C662 1.367 . S
C663 C665 1.433 . S
C664 C660 1.350 . S
C664 C661 1.463 . S
C664 N668 1.427 . S
C665 H655 0.929 . S
C665 C663 1.433 . S
C665 N668 1.384 . S
C666 H657 0.929 . S
C666 C658 1.378 . S
C666 C661 1.350 . S
C667 H654 0.929 . S
C667 C659 1.433 . S
C667 N669 1.384 . S
N668 C664 1.427 . S
N668 C665 1.384 . S
N669 C661 1.427 . S
N669 C667 1.384 . S
H670 C676 0.930 . S
H671 C680 0.930 . S
H672 C685 0.929 . S
H673 C683 0.929 . S
H674 C678 0.929 . S
H675 C684 0.929 . S
C676 H670 0.930 . S
C676 C677 1.367 . S
C676 C684 1.378 . S
C677 C676 1.367 . S
C677 C685 1.433 . S
C678 H674 0.929 . S
C678 C680 1.378 . S
C678 C682 1.350 . S
C679 C682 1.463 . S
C679 C684 1.350 . S
C679 N687 1.427 . S
C680 H671 0.930 . S
C680 C678 1.378 . S
C680 C681 1.367 . S
C681 C680 1.367 . S
C681 C683 1.433 . S
C682 C678 1.350 . S
C682 C679 1.463 . S
C682 N686 1.427 . S
C683 H673 0.929 . S
C683 C681 1.433 . S
C683 N686 1.384 . S
C684 H675 0.929 . S
C684 C676 1.378 . S
C684 C679 1.350 . S
C685 H672 0.929 . S
C685 C677 1.433 . S
C685 N687 1.384 . S
N686 C682 1.427 . S
N686 C683 1.384 . S
N687 C679 1.427 . S
N687 C685 1.384 . S
H688 C694 0.930 . S
H689 C698 0.930 . S
H690 C703 0.929 . S
H691 C701 0.956 . S
H692 C696 0.929 . S
H693 C702 0.929 . S
C694 H688 0.930 . S
C694 C695 1.367 . S
C694 C702 1.378 . S
C695 C694 1.367 . S
C695 C703 1.433 . S
C696 H692 0.929 . S
C696 C698 1.378 . S
C696 C700 1.350 . S
C697 C700 1.463 . S
C697 C702 1.350 . S
C697 N705 1.427 . S
C698 H689 0.930 . S
C698 C696 1.378 . S
C698 C699 1.367 . S
C699 C698 1.367 . S
C699 C701 1.433 . S
C700 C696 1.350 . S
C700 C697 1.463 . S
C700 N704 1.427 . S
C701 H691 0.956 . S
C701 C699 1.433 . S
C701 N704 1.384 . S
C702 H693 0.929 . S
C702 C694 1.378 . S
C702 C697 1.350 . S
C703 H690 0.929 . S
C703 C695 1.433 . S
C703 N705 1.384 . S
N704 C700 1.427 . S
N704 C701 1.384 . S
N705 C697 1.427 . S
N705 C703 1.384 . S
H706 C712 0.930 . S
H707 C716 0.930 1_545 S
H708 C721 0.929 . S
H709 C719 0.929 . S
H710 C714 0.929 . S
H711 C720 0.929 . S
C712 H706 0.930 . S
C712 C713 1.367 . S
C712 C720 1.378 . S
C713 C712 1.367 . S
C713 C721 1.433 . S
C714 H710 0.929 . S
C714 C716 1.378 . S
C714 C718 1.350 . S
C715 C718 1.463 . S
C715 C720 1.350 . S
C715 N723 1.427 . S
C716 H707 0.930 1_565 S
C716 C714 1.378 . S
C716 C717 1.367 . S
C717 C716 1.367 . S
C717 C719 1.433 . S
C718 C714 1.350 . S
C718 C715 1.463 . S
C718 N722 1.427 . S
C719 H709 0.929 . S
C719 C717 1.433 . S
C719 N722 1.384 . S
C720 H711 0.929 . S
C720 C712 1.378 . S
C720 C715 1.350 . S
C721 H708 0.929 . S
C721 C713 1.433 . S
C721 N723 1.384 . S
N722 C718 1.427 . S
N722 C719 1.384 . S
N723 C715 1.427 . S
N723 C721 1.384 . S
H724 C730 0.930 . S
H725 C734 0.919 1_554 S
H726 C739 0.929 . S
H727 C737 0.929 . S
H728 C732 0.929 1_554 S
H729 C738 0.929 . S
C730 H724 0.930 . S
C730 C731 1.367 . S
C730 C738 1.378 . S
C731 C730 1.367 . S
C731 C739 1.433 . S
C732 H728 0.929 1_556 S
C732 C734 1.380 . S
C732 C736 1.350 . S
C733 C736 1.463 . S
C733 C738 1.350 . S
C733 N741 1.427 . S
C734 H725 0.919 1_556 S
C734 C732 1.380 . S
C734 C735 1.376 . S
C735 C734 1.376 . S
C735 C737 1.433 . S
C736 C732 1.350 . S
C736 C733 1.463 . S
C736 N740 1.427 . S
C737 H727 0.929 . S
C737 C735 1.433 . S
C737 N740 1.384 . S
C738 H729 0.929 . S
C738 C730 1.378 . S
C738 C733 1.350 . S
C739 H726 0.929 . S
C739 C731 1.433 . S
C739 N741 1.384 . S
N740 C736 1.427 . S
N740 C737 1.384 . S
N741 C733 1.427 . S
N741 C739 1.384 . S
H742 C748 0.930 . S
H743 C752 0.930 . S
H744 C757 0.929 . S
H745 C755 0.929 . S
H746 C750 0.929 . S
H747 C756 0.929 . S
C748 H742 0.930 . S
C748 C749 1.367 . S
C748 C756 1.378 . S
C749 C748 1.367 . S
C749 C757 1.433 . S
C750 H746 0.929 . S
C750 C752 1.378 . S
C750 C754 1.350 . S
C751 C754 1.463 . S
C751 C756 1.350 . S
C751 N759 1.427 . S
C752 H743 0.930 . S
C752 C750 1.378 . S
C752 C753 1.367 . S
C753 C752 1.367 . S
C753 C755 1.433 . S
C754 C750 1.350 . S
C754 C751 1.463 . S
C754 N758 1.427 . S
C755 H745 0.929 . S
C755 C753 1.433 . S
C755 N758 1.384 . S
C756 H747 0.929 . S
C756 C748 1.378 . S
C756 C751 1.350 . S
C757 H744 0.929 . S
C757 C749 1.433 . S
C757 N759 1.384 . S
N758 C754 1.427 . S
N758 C755 1.384 . S
N759 C751 1.427 . S
N759 C757 1.384 . S
H760 C766 0.930 . S
H761 C770 0.930 . S
H762 C775 0.929 . S
H763 C773 0.929 1_556 S
H764 C768 0.929 . S
H765 C774 0.929 . S
C766 H760 0.930 . S
C766 C767 1.367 . S
C766 C774 1.378 . S
C767 C766 1.367 . S
C767 C775 1.433 . S
C768 H764 0.929 . S
C768 C770 1.378 . S
C768 C772 1.350 . S
C769 C772 1.463 . S
C769 C774 1.350 . S
C769 N777 1.427 . S
C770 H761 0.930 . S
C770 C768 1.378 . S
C770 C771 1.367 . S
C771 C770 1.367 . S
C771 C773 1.433 . S
C772 C768 1.350 . S
C772 C769 1.463 . S
C772 N776 1.427 . S
C773 H763 0.929 1_554 S
C773 C771 1.433 . S
C773 N776 1.384 . S
C774 H765 0.929 . S
C774 C766 1.378 . S
C774 C769 1.350 . S
C775 H762 0.929 . S
C775 C767 1.433 . S
C775 N777 1.384 . S
N776 C772 1.427 . S
N776 C773 1.384 . S
N777 C769 1.427 . S
N777 C775 1.384 . S
H778 C784 0.930 . S
H779 C788 0.930 . S
H780 C793 0.929 . S
H781 C791 0.929 . S
H782 C786 0.929 . S
H783 C792 0.929 . S
C784 H778 0.930 . S
C784 C785 1.367 . S
C784 C792 1.378 . S
C785 C784 1.367 . S
C785 C793 1.433 . S
C786 H782 0.929 . S
C786 C788 1.378 . S
C786 C790 1.350 . S
C787 C790 1.463 . S
C787 C792 1.350 . S
C787 N795 1.427 . S
C788 H779 0.930 . S
C788 C786 1.378 . S
C788 C789 1.367 . S
C789 C788 1.367 . S
C789 C791 1.433 . S
C790 C786 1.350 . S
C790 C787 1.463 . S
C790 N794 1.427 . S
C791 H781 0.929 . S
C791 C789 1.433 . S
C791 N794 1.384 . S
C792 H783 0.929 . S
C792 C784 1.378 . S
C792 C787 1.350 . S
C793 H780 0.929 . S
C793 C785 1.433 . S
C793 N795 1.384 . S
N794 C790 1.427 . S
N794 C791 1.384 . S
N795 C787 1.427 . S
N795 C793 1.384 . S
H796 C802 0.930 . S
H797 C806 0.930 1_455 S
H798 C811 0.929 . S
H799 C809 0.929 . S
H800 C804 0.929 . S
H801 C810 0.929 . S
C802 H796 0.930 . S
C802 C803 1.367 . S
C802 C810 1.378 . S
C803 C802 1.367 . S
C803 C811 1.433 . S
C804 H800 0.929 . S
C804 C806 1.378 . S
C804 C808 1.350 . S
C805 C808 1.463 . S
C805 C810 1.350 . S
C805 N813 1.427 . S
C806 H797 0.930 1_655 S
C806 C804 1.378 . S
C806 C807 1.367 . S
C807 C806 1.367 . S
C807 C809 1.433 . S
C808 C804 1.350 . S
C808 C805 1.463 . S
C808 N812 1.427 . S
C809 H799 0.929 . S
C809 C807 1.433 . S
C809 N812 1.384 . S
C810 H801 0.929 . S
C810 C802 1.378 . S
C810 C805 1.350 . S
C811 H798 0.929 . S
C811 C803 1.433 . S
C811 N813 1.384 . S
N812 C808 1.427 . S
N812 C809 1.384 . S
N813 C805 1.427 . S
N813 C811 1.384 . S
H814 C820 0.930 . S
H815 C824 0.930 . S
H816 C829 0.929 . S
H817 C827 0.929 . S
H818 C822 0.929 . S
H819 C828 0.929 . S
C820 H814 0.930 . S
C820 C821 1.367 . S
C820 C828 1.378 . S
C821 C820 1.367 . S
C821 C829 1.433 . S
C822 H818 0.929 . S
C822 C824 1.378 . S
C822 C826 1.350 . S
C823 C826 1.463 . S
C823 C828 1.350 . S
C823 N831 1.427 . S
C824 H815 0.930 . S
C824 C822 1.378 . S
C824 C825 1.367 . S
C825 C824 1.367 . S
C825 C827 1.433 . S
C826 C822 1.350 . S
C826 C823 1.463 . S
C826 N830 1.427 . S
C827 H817 0.929 . S
C827 C825 1.433 . S
C827 N830 1.384 . S
C828 H819 0.929 . S
C828 C820 1.378 . S
C828 C823 1.350 . S
C829 H816 0.929 . S
C829 C821 1.433 . S
C829 N831 1.384 . S
N830 C826 1.427 . S
N830 C827 1.384 . S
N831 C823 1.427 . S
N831 C829 1.384 . S
H832 C838 0.930 . S
H833 C842 0.930 . S
H834 C847 0.929 . S
H835 C845 0.929 1_545 S
H836 C840 0.929 . S
H837 C846 0.929 . S
C838 H832 0.930 . S
C838 C839 1.367 . S
C838 C846 1.378 . S
C839 C838 1.367 . S
C839 C847 1.433 . S
C840 H836 0.929 . S
C840 C842 1.378 . S
C840 C844 1.350 . S
C841 C844 1.463 . S
C841 C846 1.350 . S
C841 N849 1.427 . S
C842 H833 0.930 . S
C842 C840 1.378 . S
C842 C843 1.367 . S
C843 C842 1.367 . S
C843 C845 1.433 . S
C844 C840 1.350 . S
C844 C841 1.463 . S
C844 N848 1.427 . S
C845 H835 0.929 1_565 S
C845 C843 1.433 . S
C845 N848 1.384 . S
C846 H837 0.929 . S
C846 C838 1.378 . S
C846 C841 1.350 . S
C847 H834 0.929 . S
C847 C839 1.433 . S
C847 N849 1.384 . S
N848 C844 1.427 . S
N848 C845 1.384 . S
N849 C841 1.427 . S
N849 C847 1.384 . S
H850 C856 0.930 . S
H851 C860 0.930 . S
H852 C865 0.929 . S
H853 C863 0.929 1_565 S
H854 C858 0.929 . S
H855 C864 0.929 . S
C856 H850 0.930 . S
C856 C857 1.367 . S
C856 C864 1.378 . S
C857 C856 1.367 . S
C857 C865 1.433 . S
C858 H854 0.929 . S
C858 C860 1.378 . S
C858 C862 1.350 . S
C859 C862 1.463 . S
C859 C864 1.350 . S
C859 N867 1.427 . S
C860 H851 0.930 . S
C860 C858 1.378 . S
C860 C861 1.367 . S
C861 C860 1.367 . S
C861 C863 1.433 . S
C862 C858 1.350 . S
C862 C859 1.463 . S
C862 N866 1.427 . S
C863 H853 0.929 1_545 S
C863 C861 1.433 . S
C863 N866 1.384 . S
C864 H855 0.929 . S
C864 C856 1.378 . S
C864 C859 1.350 . S
C865 H852 0.929 . S
C865 C857 1.433 . S
C865 N867 1.384 . S
N866 C862 1.427 . S
N866 C863 1.384 . S
N867 C859 1.427 . S
N867 C865 1.384 . S
H868 C874 0.930 . S
H869 C878 0.930 . S
H870 C883 0.929 . S
H871 C881 0.929 . S
H872 C876 0.929 . S
H873 C882 0.929 . S
C874 H868 0.930 . S
C874 C875 1.367 . S
C874 C882 1.378 . S
C875 C874 1.367 . S
C875 C883 1.433 . S
C876 H872 0.929 . S
C876 C878 1.378 . S
C876 C880 1.350 . S
C877 C880 1.463 . S
C877 C882 1.350 . S
C877 N885 1.427 . S
C878 H869 0.930 . S
C878 C876 1.378 . S
C878 C879 1.367 . S
C879 C878 1.367 . S
C879 C881 1.433 . S
C880 C876 1.350 . S
C880 C877 1.463 . S
C880 N884 1.427 . S
C881 H871 0.929 . S
C881 C879 1.433 . S
C881 N884 1.384 . S
C882 H873 0.929 . S
C882 C874 1.378 . S
C882 C877 1.350 . S
C883 H870 0.929 . S
C883 C875 1.433 . S
C883 N885 1.384 . S
N884 C880 1.427 . S
N884 C881 1.384 . S
N885 C877 1.427 . S
N885 C883 1.384 . S
H886 C892 0.930 . S
H887 C896 0.930 . S
H888 C901 0.929 . S
H889 C899 0.929 . S
H890 C894 0.929 . S
H891 C900 0.929 . S
C892 H886 0.930 . S
C892 C893 1.367 . S
C892 C900 1.378 . S
C893 C892 1.367 . S
C893 C901 1.433 . S
C894 H890 0.929 . S
C894 C896 1.378 . S
C894 C898 1.350 . S
C895 C898 1.463 . S
C895 C900 1.350 . S
C895 N903 1.427 . S
C896 H887 0.930 . S
C896 C894 1.378 . S
C896 C897 1.367 . S
C897 C896 1.367 . S
C897 C899 1.433 . S
C898 C894 1.350 . S
C898 C895 1.463 . S
C898 N902 1.427 . S
C899 H889 0.929 . S
C899 C897 1.433 . S
C899 N902 1.384 . S
C900 H891 0.929 . S
C900 C892 1.378 . S
C900 C895 1.350 . S
C901 H888 0.929 . S
C901 C893 1.433 . S
C901 N903 1.384 . S
N902 C898 1.427 . S
N902 C899 1.384 . S
N903 C895 1.427 . S
N903 C901 1.384 . S
H904 C910 0.930 . S
H905 C914 0.930 1_554 S
H906 C919 0.929 . S
H907 C917 0.929 . S
H908 C912 0.929 . S
H909 C918 0.929 . S
C910 H904 0.930 . S
C910 C911 1.367 . S
C910 C918 1.378 . S
C911 C910 1.367 . S
C911 C919 1.433 . S
C912 H908 0.929 . S
C912 C914 1.378 . S
C912 C916 1.350 . S
C913 C916 1.463 . S
C913 C918 1.350 . S
C913 N921 1.427 . S
C914 H905 0.930 1_556 S
C914 C912 1.378 . S
C914 C915 1.367 . S
C915 C914 1.367 . S
C915 C917 1.433 . S
C916 C912 1.350 . S
C916 C913 1.463 . S
C916 N920 1.427 . S
C917 H907 0.929 . S
C917 C915 1.433 . S
C917 N920 1.384 . S
C918 H909 0.929 . S
C918 C910 1.378 . S
C918 C913 1.350 . S
C919 H906 0.929 . S
C919 C911 1.433 . S
C919 N921 1.384 . S
N920 C916 1.427 . S
N920 C917 1.384 . S
N921 C913 1.427 . S
N921 C919 1.384 . S
H922 C928 0.930 . S
H923 C932 0.930 . S
H924 C937 0.929 . S
H925 C935 0.929 1_565 S
H926 C930 0.929 . S
H927 C936 0.929 . S
C928 H922 0.930 . S
C928 C929 1.367 . S
C928 C936 1.378 . S
C929 C928 1.367 . S
C929 C937 1.433 . S
C930 H926 0.929 . S
C930 C932 1.378 . S
C930 C934 1.350 . S
C931 C934 1.463 . S
C931 C936 1.350 . S
C931 N939 1.427 . S
C932 H923 0.930 . S
C932 C930 1.378 . S
C932 C933 1.367 . S
C933 C932 1.367 . S
C933 C935 1.433 . S
C934 C930 1.350 . S
C934 C931 1.463 . S
C934 N938 1.427 . S
C935 H925 0.929 1_545 S
C935 C933 1.433 . S
C935 N938 1.384 . S
C936 H927 0.929 . S
C936 C928 1.378 . S
C936 C931 1.350 . S
C937 H924 0.929 . S
C937 C929 1.433 . S
C937 N939 1.384 . S
N938 C934 1.427 . S
N938 C935 1.384 . S
N939 C931 1.427 . S
N939 C937 1.384 . S
H940 C946 0.930 . S
H941 C950 0.930 . S
H942 C955 0.929 . S
H943 C953 0.929 . S
H944 C948 0.929 . S
H945 C954 0.929 . S
C946 H940 0.930 . S
C946 C947 1.367 . S
C946 C954 1.378 . S
C947 C946 1.367 . S
C947 C955 1.433 . S
C948 H944 0.929 . S
C948 C950 1.378 . S
C948 C952 1.350 . S
C949 C952 1.463 . S
C949 C954 1.350 . S
C949 N957 1.427 . S
C950 H941 0.930 . S
C950 C948 1.378 . S
C950 C951 1.367 . S
C951 C950 1.367 . S
C951 C953 1.433 . S
C952 C948 1.350 . S
C952 C949 1.463 . S
C952 N956 1.427 . S
C953 H943 0.929 . S
C953 C951 1.433 . S
C953 N956 1.384 . S
C954 H945 0.929 . S
C954 C946 1.378 . S
C954 C949 1.350 . S
C955 H942 0.929 . S
C955 C947 1.433 . S
C955 N957 1.384 . S
N956 C952 1.427 . S
N956 C953 1.384 . S
N957 C949 1.427 . S
N957 C955 1.384 . S
H958 C964 0.930 . S
H959 C968 0.930 . S
H960 C973 0.929 . S
H961 C971 0.929 . S
H962 C966 0.929 . S
H963 C972 0.929 . S
C964 H958 0.930 . S
C964 C965 1.367 . S
C964 C972 1.378 . S
C965 C964 1.367 . S
C965 C973 1.433 . S
C966 H962 0.929 . S
C966 C968 1.378 . S
C966 C970 1.350 . S
C967 C970 1.463 . S
C967 C972 1.350 . S
C967 N975 1.427 . S
C968 H959 0.930 . S
C968 C966 1.378 . S
C968 C969 1.367 . S
C969 C968 1.367 . S
C969 C971 1.433 . S
C970 C966 1.350 . S
C970 C967 1.463 . S
C970 N974 1.427 . S
C971 H961 0.929 . S
C971 C969 1.433 . S
C971 N974 1.384 . S
C972 H963 0.929 . S
C972 C964 1.378 . S
C972 C967 1.350 . S
C973 H960 0.929 . S
C973 C965 1.433 . S
C973 N975 1.384 . S
N974 C970 1.427 . S
N974 C971 1.384 . S
N975 C967 1.427 . S
N975 C973 1.384 . S
H976 C982 0.930 . S
H977 C986 0.930 1_554 S
H978 C991 0.929 . S
H979 C989 0.929 . S
H980 C984 0.929 . S
H981 C990 0.929 . S
C982 H976 0.930 . S
C982 C983 1.367 . S
C982 C990 1.378 . S
C983 C982 1.367 . S
C983 C991 1.433 . S
C984 H980 0.929 . S
C984 C986 1.378 . S
C984 C988 1.350 . S
C985 C988 1.463 . S
C985 C990 1.350 . S
C985 N993 1.427 . S
C986 H977 0.930 1_556 S
C986 C984 1.378 . S
C986 C987 1.367 . S
C987 C986 1.367 . S
C987 C989 1.433 . S
C988 C984 1.350 . S
C988 C985 1.463 . S
C988 N992 1.427 . S
C989 H979 0.929 . S
C989 C987 1.433 . S
C989 N992 1.384 . S
C990 H981 0.929 . S
C990 C982 1.378 . S
C990 C985 1.350 . S
C991 H978 0.929 . S
C991 C983 1.433 . S
C991 N993 1.384 . S
N992 C988 1.427 . S
N992 C989 1.384 . S
N993 C985 1.427 . S
N993 C991 1.384 . S
H994 C1000 0.930 . S
H995 C1004 0.930 . S
H996 C1009 0.929 . S
H997 C1007 0.929 . S
H998 C1002 0.929 . S
H999 C1008 0.929 . S
C1000 H994 0.930 . S
C1000 C1001 1.367 . S
C1000 C1008 1.378 . S
C1001 C1000 1.367 . S
C1001 C1009 1.433 . S
C1002 H998 0.929 . S
C1002 C1004 1.378 . S
C1002 C1006 1.350 . S
C1003 C1006 1.463 . S
C1003 C1008 1.350 . S
C1003 N1011 1.427 . S
C1004 H995 0.930 . S
C1004 C1002 1.378 . S
C1004 C1005 1.367 . S
C1005 C1004 1.367 . S
C1005 C1007 1.433 . S
C1006 C1002 1.350 . S
C1006 C1003 1.463 . S
C1006 N1010 1.427 . S
C1007 H997 0.929 . S
C1007 C1005 1.433 . S
C1007 N1010 1.384 . S
C1008 H999 0.929 . S
C1008 C1000 1.378 . S
C1008 C1003 1.350 . S
C1009 H996 0.929 . S
C1009 C1001 1.433 . S
C1009 N1011 1.384 . S
N1010 C1006 1.427 . S
N1010 C1007 1.384 . S
N1011 C1003 1.427 . S
N1011 C1009 1.384 . S
H1012 C1018 0.930 . S
H1013 C1022 0.930 . S
H1014 C1027 0.929 . S
H1015 C1025 0.929 . S
H1016 C1020 0.929 . S
H1017 C1026 0.929 . S
C1018 H1012 0.930 . S
C1018 C1019 1.367 . S
C1018 C1026 1.378 . S
C1019 C1018 1.367 . S
C1019 C1027 1.433 . S
C1020 H1016 0.929 . S
C1020 C1022 1.378 . S
C1020 C1024 1.350 . S
C1021 C1024 1.463 . S
C1021 C1026 1.350 . S
C1021 N1029 1.427 . S
C1022 H1013 0.930 . S
C1022 C1020 1.378 . S
C1022 C1023 1.367 . S
C1023 C1022 1.367 . S
C1023 C1025 1.433 . S
C1024 C1020 1.350 . S
C1024 C1021 1.463 . S
C1024 N1028 1.427 . S
C1025 H1015 0.929 . S
C1025 C1023 1.433 . S
C1025 N1028 1.384 . S
C1026 H1017 0.929 . S
C1026 C1018 1.378 . S
C1026 C1021 1.350 . S
C1027 H1014 0.929 . S
C1027 C1019 1.433 . S
C1027 N1029 1.384 . S
N1028 C1024 1.427 . S
N1028 C1025 1.384 . S
N1029 C1021 1.427 . S
N1029 C1027 1.384 . S
H1030 C1036 0.930 . S
H1031 C1040 0.930 . S
H1032 C1045 0.929 . S
H1033 C1043 0.929 . S
H1034 C1038 0.929 . S
H1035 C1044 0.929 . S
C1036 H1030 0.930 . S
C1036 C1037 1.367 . S
C1036 C1044 1.378 . S
C1037 C1036 1.367 . S
C1037 C1045 1.433 . S
C1038 H1034 0.929 . S
C1038 C1040 1.378 . S
C1038 C1042 1.350 . S
C1039 C1042 1.463 . S
C1039 C1044 1.350 . S
C1039 N1047 1.427 . S
C1040 H1031 0.930 . S
C1040 C1038 1.378 . S
C1040 C1041 1.367 . S
C1041 C1040 1.367 . S
C1041 C1043 1.433 . S
C1042 C1038 1.350 . S
C1042 C1039 1.463 . S
C1042 N1046 1.427 . S
C1043 H1033 0.929 . S
C1043 C1041 1.433 . S
C1043 N1046 1.384 . S
C1044 H1035 0.929 . S
C1044 C1036 1.378 . S
C1044 C1039 1.350 . S
C1045 H1032 0.929 . S
C1045 C1037 1.433 . S
C1045 N1047 1.384 . S
N1046 C1042 1.427 . S
N1046 C1043 1.384 . S
N1047 C1039 1.427 . S
N1047 C1045 1.384 . S
C623 C1 2.314 . S
C627 C480 2.331 . S
C641 C80 2.238 . S
C645 C522 2.305 . S
C663 C552 1.023 . S
C659 C140 1.004 . S
C677 C211 1.022 . S
C681 C586 1.075 . S
C699 C543 1.874 . S
C695 C31 1.859 . S
C717 C497 1.871 . S
C713 C61 1.814 . S
C735 C590 1.378 . S
C731 C151 1.323 . S
C753 C556 1.442 . S
C749 C200 1.370 . S
C767 C20 2.192 . S
C771 C611 2.224 . S
C789 C518 1.157 . S
C785 C121 1.101 . S
C803 C181 1.120 . S
C807 C493 1.172 . S
C821 C91 2.123 . S
C825 C577 2.201 . S
C843 C509 2.333 . S
C839 C260 2.305 . S
C857 C320 2.239 . S
C861 C531 2.298 . S
C875 C361 1.017 . S
C879 C561 1.010 . S
C893 C451 1.042 . S
C897 C595 1.086 . S
C911 C271 1.848 . S
C915 C514 1.874 . S
C933 C488 1.872 . S
C929 C301 1.817 . S
C951 C599 1.381 . S
C947 C380 1.358 . S
C969 C565 1.440 . S
C965 C440 1.364 . S
C983 C241 2.214 . S
C987 C582 2.227 . S
C1005 C527 1.151 . S
C1001 C391 1.130 . S
C1023 C484 1.166 . S
C1019 C421 1.129 . S
C1037 C331 2.121 . S
C1041 C548 2.201 . S
