# Generated by pormake.
# Topology csq, (4,8)-cn, num edge types: 1
# Building blocks:
#     Node 0, Type 0, BuildingBlock: KUFVIS_clean_linker_0, # of connection points: 4
#     Node 1, Type 0, BuildingBlock: KUFVIS_clean_linker_0, # of connection points: 4
#     Node 2, Type 0, BuildingBlock: KUFVIS_clean_linker_0, # of connection points: 4
#     Node 3, Type 0, BuildingBlock: KUFVIS_clean_linker_0, # of connection points: 4
#     Node 4, Type 0, BuildingBlock: KUFVIS_clean_linker_0, # of connection points: 4
#     Node 5, Type 0, BuildingBlock: KUFVIS_clean_linker_0, # of connection points: 4
#     Node 6, Type 1, BuildingBlock: TAGTUT_clean_sbu_3, # of connection points: 8
#     Node 7, Type 1, BuildingBlock: TAGTUT_clean_sbu_3, # of connection points: 8
#     Node 8, Type 1, BuildingBlock: TAGTUT_clean_sbu_3, # of connection points: 8
#     Edge 9, Type (0, 1), BuildingBlock: UVAHIK_clean_linker_0, # of connection points: 2
#     Edge 10, Type (0, 1), BuildingBlock: UVAHIK_clean_linker_0, # of connection points: 2
#     Edge 11, Type (0, 1), BuildingBlock: UVAHIK_clean_linker_0, # of connection points: 2
#     Edge 12, Type (0, 1), BuildingBlock: UVAHIK_clean_linker_0, # of connection points: 2
#     Edge 13, Type (0, 1), BuildingBlock: UVAHIK_clean_linker_0, # of connection points: 2
#     Edge 14, Type (0, 1), BuildingBlock: UVAHIK_clean_linker_0, # of connection points: 2
#     Edge 15, Type (0, 1), BuildingBlock: UVAHIK_clean_linker_0, # of connection points: 2
#     Edge 16, Type (0, 1), BuildingBlock: UVAHIK_clean_linker_0, # of connection points: 2
#     Edge 17, Type (0, 1), BuildingBlock: UVAHIK_clean_linker_0, # of connection points: 2
#     Edge 18, Type (0, 1), BuildingBlock: UVAHIK_clean_linker_0, # of connection points: 2
#     Edge 19, Type (0, 1), BuildingBlock: UVAHIK_clean_linker_0, # of connection points: 2
#     Edge 20, Type (0, 1), BuildingBlock: UVAHIK_clean_linker_0, # of connection points: 2
#     Edge 21, Type (0, 1), BuildingBlock: UVAHIK_clean_linker_0, # of connection points: 2
#     Edge 22, Type (0, 1), BuildingBlock: UVAHIK_clean_linker_0, # of connection points: 2
#     Edge 23, Type (0, 1), BuildingBlock: UVAHIK_clean_linker_0, # of connection points: 2
#     Edge 24, Type (0, 1), BuildingBlock: UVAHIK_clean_linker_0, # of connection points: 2
#     Edge 25, Type (0, 1), BuildingBlock: UVAHIK_clean_linker_0, # of connection points: 2
#     Edge 26, Type (0, 1), BuildingBlock: UVAHIK_clean_linker_0, # of connection points: 2
#     Edge 27, Type (0, 1), BuildingBlock: UVAHIK_clean_linker_0, # of connection points: 2
#     Edge 28, Type (0, 1), BuildingBlock: UVAHIK_clean_linker_0, # of connection points: 2
#     Edge 29, Type (0, 1), BuildingBlock: UVAHIK_clean_linker_0, # of connection points: 2
#     Edge 30, Type (0, 1), BuildingBlock: UVAHIK_clean_linker_0, # of connection points: 2
#     Edge 31, Type (0, 1), BuildingBlock: UVAHIK_clean_linker_0, # of connection points: 2
#     Edge 32, Type (0, 1), BuildingBlock: UVAHIK_clean_linker_0, # of connection points: 2
# Relax obj value: 0.035
# Max RMSD: 0.115
# Mean RMSD: 0.087
data_MOF--net-csq--node1-TAGTUT_clean_sbu_3--node2-KUFVIS_clean_linker_0--edge1-UVAHIK_clean_linker_0
_symmetry_space_group_name_H-M    P1
_symmetry_Int_Tables_number       1
_symmetry_cell_setting            triclinic
loop_
_symmetry_equiv_pos_as_xyz
'x, y, z'
_cell_length_a     69.132302
_cell_length_b     68.270271
_cell_length_c     22.621174
_cell_angle_alpha  92.124028
_cell_angle_beta   92.240523
_cell_angle_gamma 119.84344
loop_
_atom_site_label
_atom_site_type_symbol
_atom_site_fract_x
_atom_site_fract_y
_atom_site_fract_z
_atom_type_partial_charge
H0 H 0.32546 0.52569 0.14481 0.0
H1 H 0.26354 0.50663 0.22268 0.0
H2 H 0.2675 0.50796 0.03169 0.0
H3 H 0.2322 0.48046 0.03334 0.0
H4 H 0.17419 0.47903 0.09632 0.0
H5 H 0.23628 0.5151 0.20192 0.0
C6 C 0.30803 0.52123 0.1399 0.0
C7 C 0.29781 0.51733 0.08304 0.0
C8 C 0.29594 0.51776 0.19033 0.0
C9 C 0.27294 0.51016 0.18349 0.0
C10 C 0.26218 0.50676 0.12632 0.0
C11 C 0.275 0.5104 0.07618 0.0
C12 C 0.23764 0.49887 0.11885 0.0
C13 C 0.22478 0.48557 0.0675 0.0
C14 C 0.202 0.47846 0.0599 0.0
C15 C 0.19171 0.48412 0.10386 0.0
C16 C 0.20376 0.49699 0.15576 0.0
C17 C 0.22684 0.50464 0.16261 0.0
H18 H 0.68831 0.21084 0.08032 0.0
H19 H 0.75173 0.24374 0.17861 0.0
H20 H 0.74452 0.26313 0.00196 0.0
H21 H 0.77975 0.27434 0.00018 0.0
H22 H 0.83955 0.31918 0.10598 0.0
H23 H 0.77945 0.27923 0.192 0.0
C24 C 0.70573 0.22411 0.08438 0.0
C25 C 0.71518 0.23667 0.03571 0.0
C26 C 0.71874 0.22681 0.13611 0.0
C27 C 0.74172 0.24265 0.13932 0.0
C28 C 0.75159 0.25655 0.09175 0.0
C29 C 0.73787 0.2532 0.03981 0.0
C30 C 0.77609 0.2739 0.0956 0.0
C31 C 0.78791 0.28131 0.04369 0.0
C32 C 0.81065 0.29784 0.04712 0.0
C33 C 0.82204 0.30617 0.1028 0.0
C34 C 0.8109 0.29914 0.15473 0.0
C35 C 0.78791 0.28354 0.15123 0.0
H36 H 0.54097 0.845 0.0881 0.0
H37 H 0.53021 0.78232 0.14954 0.0
H38 H 0.52684 0.79072 0.96086 0.0
H39 H 0.53534 0.76395 0.95217 0.0
H40 H 0.51187 0.69748 0.01007 0.0
H41 H 0.50893 0.74686 0.12535 0.0
C42 C 0.5379 0.82799 0.07805 0.0
C43 C 0.53529 0.81977 0.01887 0.0
C44 C 0.53543 0.81425 0.12464 0.0
C45 C 0.53096 0.79208 0.11229 0.0
C46 C 0.52786 0.78297 0.05318 0.0
C47 C 0.5297 0.7971 0.00667 0.0
C48 C 0.5228 0.75896 0.04054 0.0
C49 C 0.52764 0.7521 0.9859 0.0
C50 C 0.52269 0.7297 0.97411 0.0
C51 C 0.51423 0.7143 0.01829 0.0
C52 C 0.51002 0.72067 0.07368 0.0
C53 C 0.51355 0.74271 0.08366 0.0
H54 H 0.84671 0.54773 0.04221 0.0
H55 H 0.79788 0.55726 0.12919 0.0
H56 H 0.77824 0.50966 0.97582 0.0
H57 H 0.75278 0.5218 0.96222 0.0
H58 H 0.69915 0.51258 0.06771 0.0
H59 H 0.76306 0.53231 0.15365 0.0
C60 C 0.8295 0.54381 0.0446 0.0
C61 C 0.81318 0.52777 0.00364 0.0
C62 C 0.82403 0.55425 0.08992 0.0
C63 C 0.80175 0.54883 0.09404 0.0
C64 C 0.78481 0.53292 0.05265 0.0
C65 C 0.79083 0.52243 0.0072 0.0
C66 C 0.76099 0.52714 0.05733 0.0
C67 C 0.74659 0.52139 0.00566 0.0
C68 C 0.72418 0.51558 0.00957 0.0
C69 C 0.71619 0.51602 0.06508 0.0
C70 C 0.7302 0.52251 0.11685 0.0
C71 C 0.75253 0.52786 0.11307 0.0
H72 H 0.31402 0.8483 0.08903 0.0
H73 H 0.26741 0.79228 0.18388 0.0
H74 H 0.24524 0.81155 0.02642 0.0
H75 H 0.22255 0.77232 0.01826 0.0
H76 H 0.16964 0.731 0.12667 0.0
H77 H 0.232 0.78392 0.20899 0.0
C78 C 0.29732 0.8343 0.09355 0.0
C79 C 0.28036 0.83073 0.05152 0.0
C80 C 0.29282 0.82083 0.14217 0.0
C81 C 0.27083 0.80325 0.14767 0.0
C82 C 0.25335 0.7996 0.10635 0.0
C83 C 0.25834 0.81371 0.0584 0.0
C84 C 0.23006 0.78089 0.11275 0.0
C85 C 0.21626 0.76858 0.06197 0.0
C86 C 0.19437 0.75104 0.06707 0.0
C87 C 0.18626 0.74532 0.12325 0.0
C88 C 0.19985 0.75674 0.17483 0.0
C89 C 0.22168 0.77472 0.16926 0.0
H90 H 0.45593 0.30435 0.14244 0.0
H91 H 0.46443 0.25708 0.24337 0.0
H92 H 0.49299 0.27531 0.07272 0.0
H93 H 0.49054 0.24298 0.06717 0.0
H94 H 0.51161 0.20515 0.16967 0.0
H95 H 0.48555 0.24276 0.25797 0.0
C96 C 0.46193 0.29246 0.14627 0.0
C97 C 0.47368 0.28994 0.10059 0.0
C98 C 0.4594 0.28128 0.19856 0.0
C99 C 0.4675 0.26613 0.20353 0.0
C100 C 0.47925 0.26291 0.15781 0.0
C101 C 0.48293 0.27586 0.10737 0.0
C102 C 0.48782 0.24645 0.16233 0.0
C103 C 0.49349 0.23862 0.11072 0.0
C104 C 0.50284 0.22462 0.11392 0.0
C105 C 0.50539 0.21693 0.16827 0.0
C106 C 0.49832 0.22274 0.21977 0.0
C107 C 0.49003 0.23787 0.21707 0.0
C108 C 0.04598 0.50727 0.51668 0.0
C109 C 0.0343 0.46584 0.71509 0.0
C110 C 0.97021 0.46346 0.70435 0.0
Mg111 Mg 0.02355 0.53722 0.46926 0.0
Mg112 Mg 0.01316 0.56666 0.56936 0.0
O113 O 0.00725 0.53798 0.54 0.0
Mg114 Mg 0.01526 0.52062 0.59476 0.0
O115 O 0.02338 0.50201 0.64521 0.0
Mg116 Mg 0.00656 0.47209 0.59801 0.0
Mg117 Mg 0.01854 0.50146 0.7261 0.0
C118 C 0.98437 0.53599 0.67019 0.0
O119 O 0.0406 0.55186 0.65444 0.0
O120 O 1.00436 0.55313 0.42052 0.0
O121 O 0.03657 0.53804 0.74516 0.0
O122 O 0.05331 0.57329 0.49147 0.0
O123 O 0.99834 0.5727 0.49304 0.0
O124 O 0.04835 0.59098 0.56904 0.0
O125 O 0.99042 0.48838 0.54134 0.0
O126 O 0.99415 0.50064 0.4502 0.0
C127 C 0.98495 0.48471 0.48569 0.0
C128 C 0.99669 0.56597 0.43852 0.0
O129 O 0.98871 0.52028 0.65499 0.0
O130 O 0.02548 0.45998 0.66162 0.0
O131 O 0.99387 0.55546 0.6479 0.0
O132 O 0.97659 0.45772 0.65775 0.0
O133 O 0.03351 0.48128 0.74724 0.0
O134 O 0.98327 0.4816 0.7358 0.0
O135 O 0.04068 0.52238 0.52981 0.0
O136 O 0.03616 0.48788 0.53885 0.0
C137 C 0.06047 0.59041 0.52858 0.0
C138 C 0.04475 0.5546 0.71105 0.0
C139 C 0.49981 0.0449 0.50639 0.0
C140 C 0.5656 0.03561 0.42892 0.0
C141 C 0.53269 0.9715 0.51434 0.0
Mg142 Mg 0.47125 0.02446 0.6212 0.0
Mg143 Mg 0.49275 0.01326 0.73965 0.0
O144 O 0.48611 0.00842 0.65757 0.0
Mg145 Mg 0.5104 0.01637 0.60222 0.0
O146 O 0.53295 0.02415 0.54205 0.0
Mg147 Mg 0.51268 0.00588 0.4714 0.0
Mg148 Mg 0.55809 0.02104 0.5586 0.0
C149 C 0.51889 0.98743 0.70476 0.0
O150 O 0.53902 0.04464 0.66365 0.0
O151 O 0.44293 0.00545 0.68632 0.0
O152 O 0.56944 0.04248 0.64065 0.0
O153 O 0.48963 0.05547 0.68834 0.0
O154 O 0.4587 0.99759 0.76411 0.0
O155 O 0.50811 0.04886 0.76071 0.0
O156 O 0.48429 0.98933 0.53592 0.0
O157 O 0.45522 0.99413 0.55297 0.0
C158 C 0.46386 0.98397 0.52512 0.0
C159 C 0.44167 0.99663 0.73642 0.0
O160 O 0.5184 0.99128 0.64956 0.0
O161 O 0.54431 0.0258 0.41711 0.0
O162 O 0.5119 0.99576 0.74499 0.0
O163 O 0.52041 0.97674 0.48256 0.0
O164 O 0.57427 0.03548 0.47989 0.0
O165 O 0.54785 0.98571 0.55215 0.0
O166 O 0.50091 0.04075 0.56083 0.0
O167 O 0.50427 0.03457 0.46531 0.0
C168 C 0.50293 0.06207 0.73491 0.0
C169 C 0.55997 0.05114 0.6715 0.0
C170 C 0.52729 0.55995 0.67464 0.0
C171 C 0.46099 0.49317 0.7798 0.0
C172 C 0.48774 0.45284 0.70588 0.0
Mg173 Mg 0.54909 0.55647 0.55232 0.0
Mg174 Mg 0.51855 0.5166 0.44751 0.0
O175 O 0.52967 0.52348 0.52717 0.0
Mg176 Mg 0.50878 0.51348 0.59228 0.0
O177 O 0.48934 0.50476 0.65997 0.0
Mg178 Mg 0.5117 0.5103 0.72668 0.0
Mg179 Mg 0.46369 0.47575 0.65249 0.0
C180 C 0.48964 0.46842 0.50123 0.0
O181 O 0.47903 0.5116 0.5379 0.0
O182 O 0.57271 0.5566 0.48 0.0
O183 O 0.44969 0.47999 0.56864 0.0
O184 O 0.53089 0.56783 0.48599 0.0
O185 O 0.55094 0.52744 0.41405 0.0
O186 O 0.50684 0.53944 0.42302 0.0
O187 O 0.53649 0.51454 0.65407 0.0
O188 O 0.5656 0.54466 0.62015 0.0
C189 C 0.55753 0.52868 0.65565 0.0
C190 C 0.5702 0.54368 0.43384 0.0
O191 O 0.49516 0.47678 0.55514 0.0
O192 O 0.48252 0.50494 0.78731 0.0
O193 O 0.49503 0.48063 0.45617 0.0
O194 O 0.50137 0.47247 0.73022 0.0
O195 O 0.45085 0.48079 0.73236 0.0
O196 O 0.47226 0.44982 0.66769 0.0
O197 O 0.52322 0.55068 0.62202 0.0
O198 O 0.5231 0.54806 0.71996 0.0
C199 C 0.51571 0.55996 0.44354 0.0
C200 C 0.45815 0.49655 0.53458 0.0
C201 C 0.16974 0.48629 0.21213 0.0
C202 C 0.19176 0.50256 0.20095 0.0
C203 C 0.15694 0.492 0.24729 0.0
C204 C 0.1567 0.52632 0.36878 0.0
H205 H 0.09999 0.51482 0.29517 0.0
C206 C 0.07802 0.50201 0.49335 0.0
C207 C 0.06554 0.51276 0.48183 0.0
C208 C 0.09631 0.50636 0.46086 0.0
C209 C 0.11592 0.51852 0.31606 0.0
H210 H 0.21799 0.53733 0.22159 0.0
H211 H 0.19567 0.54698 0.28598 0.0
H212 H 0.12695 0.51128 0.23504 0.0
H213 H 0.06272 0.53687 0.42776 0.0
H214 H 0.09445 0.54378 0.36846 0.0
H215 H 0.14498 0.53199 0.45062 0.0
C216 C 0.18835 0.52997 0.26572 0.0
C217 C 0.13125 0.51637 0.28182 0.0
C218 C 0.20114 0.52437 0.22934 0.0
C219 C 0.072 0.5283 0.43741 0.0
C220 C 0.0901 0.53225 0.40366 0.0
C221 C 0.14115 0.52804 0.4033 0.0
C222 C 0.16595 0.51395 0.27349 0.0
C223 C 0.15153 0.51974 0.30814 0.0
C224 C 0.10238 0.52127 0.4152 0.0
C225 C 0.12041 0.52364 0.37745 0.0
H226 H 0.16214 0.46916 0.19249 0.0
H227 H 0.13986 0.47922 0.25375 0.0
H228 H 0.17217 0.52889 0.39003 0.0
H229 H 0.07366 0.49015 0.52774 0.0
H230 H 0.10529 0.49747 0.47023 0.0
C231 C 0.71584 0.197 0.20264 0.0
C232 C 0.7079 0.21119 0.1834 0.0
C233 C 0.70238 0.17831 0.23483 0.0
C234 C 0.64869 0.15076 0.31108 0.0
H235 H 0.64752 0.0953 0.25975 0.0
C236 C 0.57484 0.06372 0.35212 0.0
C237 C 0.581 0.05073 0.38648 0.0
C238 C 0.59109 0.08239 0.3248 0.0
C239 C 0.64774 0.1107 0.27441 0.0
H240 H 0.68066 0.2182 0.18671 0.0
H241 H 0.65713 0.18567 0.24127 0.0
H242 H 0.67604 0.13138 0.22566 0.0
H243 H 0.6085 0.04577 0.41484 0.0
H244 H 0.63673 0.07794 0.3652 0.0
H245 H 0.61981 0.12985 0.35786 0.0
C246 C 0.67368 0.18879 0.23254 0.0
C247 C 0.66422 0.13142 0.25557 0.0
C248 C 0.68714 0.20746 0.20095 0.0
C249 C 0.60331 0.05552 0.38859 0.0
C250 C 0.61945 0.07391 0.36031 0.0
C251 C 0.63203 0.13005 0.32894 0.0
C252 C 0.68075 0.17347 0.24809 0.0
C253 C 0.66477 0.15173 0.27316 0.0
C254 C 0.61364 0.08806 0.33039 0.0
C255 C 0.63126 0.10982 0.31031 0.0
H256 H 0.73175 0.19945 0.18941 0.0
H257 H 0.70859 0.16717 0.24724 0.0
H258 H 0.64884 0.16602 0.32673 0.0
H259 H 0.55784 0.06056 0.35015 0.0
H260 H 0.5862 0.09297 0.3014 0.0
C261 C 0.48949 0.68134 0.10974 0.0
C262 C 0.50385 0.70473 0.12206 0.0
C263 C 0.48705 0.66595 0.152 0.0
C264 C 0.5189 0.6619 0.28095 0.0
H265 H 0.46544 0.60383 0.29348 0.0
C266 C 0.51871 0.59803 0.4394 0.0
C267 C 0.5095 0.5756 0.41561 0.0
C268 C 0.51509 0.61365 0.40987 0.0
C269 C 0.48052 0.61995 0.2903 0.0
H270 H 0.52568 0.7303 0.19028 0.0
H271 H 0.52083 0.70356 0.26463 0.0
H272 H 0.46393 0.63181 0.23199 0.0
H273 H 0.48818 0.55179 0.3435 0.0
H274 H 0.48203 0.57917 0.29165 0.0
H275 H 0.53559 0.65001 0.33826 0.0
C276 C 0.51191 0.69705 0.22163 0.0
C277 C 0.47966 0.636 0.25505 0.0
C278 C 0.51444 0.71244 0.17923 0.0
C279 C 0.49562 0.56893 0.36301 0.0
C280 C 0.492 0.58461 0.33339 0.0
C281 C 0.51972 0.64593 0.31624 0.0
C282 C 0.4988 0.67356 0.20788 0.0
C283 C 0.49893 0.65711 0.2494 0.0
C284 C 0.50216 0.60731 0.35573 0.0
C285 C 0.50062 0.62466 0.32094 0.0
H286 H 0.48079 0.67483 0.06647 0.0
H287 H 0.47686 0.64804 0.13959 0.0
H288 H 0.5342 0.67771 0.27676 0.0
H289 H 0.52925 0.60375 0.48022 0.0
H290 H 0.52279 0.63087 0.42898 0.0
C291 C 0.8624 0.58583 0.1184 0.0
C292 C 0.84181 0.56864 0.13581 0.0
C293 C 0.88182 0.5934 0.155 0.0
C294 C 0.91722 0.58426 0.20697 0.0
H295 H 0.92393 0.5892 0.37858 0.0
C296 C 0.97364 0.55977 0.34354 0.0
C297 C 0.98442 0.57268 0.39659 0.0
C298 C 0.95912 0.56435 0.30966 0.0
C299 C 0.92248 0.58816 0.33057 0.0
H300 H 0.8248 0.54785 0.20737 0.0
H301 H 0.85867 0.56118 0.27181 0.0
H302 H 0.89283 0.59078 0.32866 0.0
H303 H 0.98995 0.6017 0.45306 0.0
H304 H 0.96492 0.60968 0.3939 0.0
H305 H 0.9465 0.58101 0.20889 0.0
C306 C 0.85992 0.56882 0.22998 0.0
C307 C 0.90461 0.58894 0.3021 0.0
C308 C 0.84046 0.56125 0.19329 0.0
C309 C 0.98158 0.59114 0.41293 0.0
C310 C 0.96718 0.59571 0.37919 0.0
C311 C 0.93501 0.58335 0.23545 0.0
C312 C 0.88091 0.58389 0.20954 0.0
C313 C 0.90157 0.58662 0.24002 0.0
C314 C 0.95525 0.58195 0.32827 0.0
C315 C 0.93761 0.58491 0.29755 0.0
H316 H 0.86377 0.59179 0.07418 0.0
H317 H 0.89772 0.6054 0.13871 0.0
H318 H 0.91514 0.58204 0.15904 0.0
H319 H 0.97549 0.54544 0.32988 0.0
H320 H 0.95007 0.55339 0.27061 0.0
C321 C 0.33322 0.83595 0.17439 0.0
C322 C 0.31089 0.82671 0.18915 0.0
C323 C 0.35072 0.84701 0.2179 0.0
C324 C 0.35959 0.87786 0.36237 0.0
H325 H 0.42123 0.8944 0.34263 0.0
C326 C 0.42974 0.96299 0.45721 0.0
C327 C 0.44917 0.96451 0.48353 0.0
C328 C 0.41404 0.94336 0.42451 0.0
C329 C 0.40409 0.88976 0.34938 0.0
H330 H 0.28948 0.81896 0.26266 0.0
H331 H 0.3199 0.83671 0.33882 0.0
H332 H 0.39122 0.86144 0.2858 0.0
H333 H 0.46798 0.9471 0.49436 0.0
H334 H 0.44016 0.91235 0.43798 0.0
H335 H 0.37228 0.90574 0.42666 0.0
C336 C 0.32397 0.83667 0.2931 0.0
C337 C 0.38685 0.87098 0.31633 0.0
C338 C 0.30644 0.82611 0.24935 0.0
C339 C 0.45313 0.94636 0.47428 0.0
C340 C 0.4372 0.92648 0.44209 0.0
C341 C 0.37671 0.89631 0.39586 0.0
C342 C 0.34631 0.84857 0.27754 0.0
C343 C 0.36439 0.86529 0.3208 0.0
C344 C 0.41718 0.92457 0.41822 0.0
C345 C 0.39919 0.90308 0.38803 0.0
H346 H 0.33726 0.83596 0.12861 0.0
H347 H 0.36761 0.85577 0.20376 0.0
H348 H 0.34266 0.87437 0.36703 0.0
H349 H 0.42641 0.97685 0.46288 0.0
H350 H 0.39922 0.94281 0.40492 0.0
C351 C 0.46389 0.2963 0.30353 0.0
C352 C 0.45075 0.28797 0.24981 0.0
C353 C 0.45989 0.30938 0.34499 0.0
C354 C 0.44198 0.35035 0.33396 0.0
H355 H 0.45361 0.35958 0.5046 0.0
C356 C 0.45944 0.43387 0.4459 0.0
C357 C 0.47711 0.44369 0.48965 0.0
C358 C 0.44953 0.41093 0.42829 0.0
C359 C 0.45043 0.35731 0.45691 0.0
H360 H 0.42136 0.28406 0.20079 0.0
H361 H 0.41424 0.30672 0.27334 0.0
H362 H 0.44758 0.32446 0.45399 0.0
H363 H 0.49749 0.43727 0.55213 0.0
H364 H 0.48132 0.39749 0.51877 0.0
H365 H 0.44649 0.38347 0.33502 0.0
C366 C 0.4279 0.30358 0.28295 0.0
C367 C 0.44681 0.33711 0.42808 0.0
C368 C 0.43193 0.29057 0.24153 0.0
C369 C 0.48389 0.42999 0.51806 0.0
C370 C 0.47446 0.40712 0.49912 0.0
C371 C 0.44592 0.37055 0.36239 0.0
C372 C 0.44266 0.31426 0.33326 0.0
C373 C 0.4429 0.33361 0.36614 0.0
C374 C 0.45767 0.39747 0.45241 0.0
C375 C 0.45061 0.37458 0.42418 0.0
H376 H 0.47856 0.29462 0.31093 0.0
H377 H 0.47158 0.31742 0.38328 0.0
H378 H 0.43956 0.34846 0.28603 0.0
H379 H 0.45365 0.44409 0.42428 0.0
H380 H 0.43606 0.40401 0.39396 0.0
C381 C 0.52194 0.82806 0.92229 0.0
C382 C 0.53775 0.83513 0.97099 0.0
C383 C 0.52239 0.84385 0.88344 0.0
C384 C 0.53449 0.90102 0.89213 0.0
H385 H 0.53811 0.90268 0.72165 0.0
C386 C 0.53822 0.97576 0.77847 0.0
C387 C 0.52638 0.97163 0.72344 0.0
C388 C 0.54214 0.95931 0.80167 0.0
C389 C 0.5368 0.90234 0.76916 0.0
H390 H 0.5676 0.86383 0.01361 0.0
H391 H 0.5679 0.89126 0.94711 0.0
H392 H 0.53941 0.87223 0.77296 0.0
H393 H 0.51028 0.94753 0.64788 0.0
H394 H 0.51611 0.91817 0.6896 0.0
H395 H 0.53079 0.9301 0.88944 0.0
C396 C 0.55515 0.87362 0.93921 0.0
C397 C 0.53762 0.88494 0.7984 0.0
C398 C 0.55488 0.85792 0.97739 0.0
C399 C 0.51952 0.95113 0.69046 0.0
C400 C 0.52292 0.93433 0.71445 0.0
C401 C 0.53323 0.91804 0.86308 0.0
C402 C 0.53855 0.86688 0.89302 0.0
C403 C 0.53678 0.88438 0.86027 0.0
C404 C 0.53366 0.93793 0.77138 0.0
C405 C 0.53474 0.91926 0.80126 0.0
H406 H 0.5085 0.81067 0.91624 0.0
H407 H 0.50936 0.83831 0.84817 0.0
H408 H 0.53343 0.90072 0.93979 0.0
H409 H 0.54397 0.99157 0.80439 0.0
H410 H 0.55131 0.9632 0.8444 0.0
C411 C 0.71507 0.5284 0.91618 0.0
C412 C 0.7092 0.5115 0.95644 0.0
C413 C 0.69874 0.52793 0.87679 0.0
C414 C 0.65843 0.53323 0.85124 0.0
H415 H 0.60949 0.4818 0.76109 0.0
C416 C 0.59607 0.54305 0.70014 0.0
C417 C 0.57347 0.52598 0.69532 0.0
C418 C 0.61195 0.54008 0.73189 0.0
C419 C 0.62288 0.49621 0.78682 0.0
H420 H 0.68242 0.47975 0.9834 0.0
H421 H 0.65391 0.47879 0.91416 0.0
H422 H 0.63971 0.47792 0.80901 0.0
H423 H 0.54973 0.4926 0.72171 0.0
H424 H 0.57767 0.48753 0.77874 0.0
H425 H 0.6416 0.55144 0.83078 0.0
C426 C 0.671 0.49243 0.91307 0.0
C427 C 0.64025 0.49403 0.81373 0.0
C428 C 0.68729 0.49298 0.95268 0.0
C429 C 0.567 0.50607 0.72475 0.0
C430 C 0.58302 0.50309 0.75683 0.0
C431 C 0.64106 0.53535 0.82492 0.0
C432 C 0.67635 0.51048 0.87688 0.0
C433 C 0.65831 0.51263 0.84566 0.0
C434 C 0.60573 0.52003 0.76022 0.0
C435 C 0.6232 0.51697 0.79182 0.0
H436 H 0.73181 0.54292 0.91851 0.0
H437 H 0.70336 0.54189 0.84862 0.0
H438 H 0.67177 0.54767 0.87707 0.0
H439 H 0.6017 0.55864 0.67814 0.0
H440 H 0.62929 0.55334 0.73272 0.0
C441 C 0.15887 0.73423 0.0033 0.0
C442 C 0.1803 0.7372 0.01431 0.0
C443 C 0.14422 0.71845 0.95891 0.0
C444 C 0.11162 0.67239 0.90285 0.0
H445 H 0.13051 0.65224 0.76562 0.0
C446 C 0.06011 0.58195 0.80001 0.0
C447 C 0.05949 0.5777 0.73854 0.0
C448 C 0.07411 0.60357 0.82651 0.0
C449 C 0.12481 0.65782 0.80314 0.0
H450 H 0.20369 0.7269 0.98677 0.0
H451 H 0.17792 0.69864 0.91095 0.0
H452 H 0.15666 0.6878 0.82028 0.0
H453 H 0.07366 0.59279 0.65708 0.0
H454 H 0.09736 0.63086 0.70282 0.0
H455 H 0.07969 0.64275 0.88515 0.0
C456 C 0.17248 0.70886 0.93493 0.0
C457 C 0.13993 0.6781 0.83503 0.0
C458 C 0.18727 0.72497 0.97857 0.0
C459 C 0.07326 0.59563 0.70421 0.0
C460 C 0.08714 0.61738 0.73065 0.0
C461 C 0.09646 0.65235 0.87056 0.0
C462 C 0.15053 0.70493 0.92567 0.0
C463 C 0.13372 0.6853 0.88634 0.0
C464 C 0.08775 0.62161 0.79222 0.0
C465 C 0.10305 0.64442 0.82147 0.0
H466 H 0.15327 0.74367 0.03023 0.0
H467 H 0.12769 0.71635 0.95207 0.0
H468 H 0.10618 0.67714 0.94236 0.0
H469 H 0.04983 0.56853 0.82793 0.0
H470 H 0.07452 0.606 0.87421 0.0
C471 C 0.49131 0.20139 0.01842 0.0
C472 C 0.5084 0.21635 0.05983 0.0
C473 C 0.49602 0.19078 0.97179 0.0
C474 C 0.50919 0.17279 0.86725 0.0
H475 H 0.55137 0.15328 0.91145 0.0
C476 C 0.51055 0.1018 0.7281 0.0
C477 C 0.51157 0.08528 0.76119 0.0
C478 C 0.51627 0.12289 0.75511 0.0
C479 C 0.53946 0.15849 0.89837 0.0
H480 H 0.54387 0.23326 0.08391 0.0
H481 H 0.55248 0.2157 0.00057 0.0
H482 H 0.54853 0.18073 0.97582 0.0
H483 H 0.52063 0.07836 0.84755 0.0
H484 H 0.52952 0.11445 0.89525 0.0
H485 H 0.49856 0.14889 0.79285 0.0
C486 C 0.53529 0.21141 0.00492 0.0
C487 C 0.53809 0.17462 0.93491 0.0
C488 C 0.53047 0.22163 0.0523 0.0
C489 C 0.51958 0.0907 0.8209 0.0
C490 C 0.52491 0.11159 0.84815 0.0
C491 C 0.5102 0.15628 0.8314 0.0
C492 C 0.51802 0.19526 0.96512 0.0
C493 C 0.52235 0.18139 0.92095 0.0
C494 C 0.52274 0.12775 0.81604 0.0
C495 C 0.52478 0.1483 0.84765 0.0
H496 H 0.47414 0.19697 0.02399 0.0
H497 H 0.48215 0.17819 0.94304 0.0
H498 H 0.49734 0.17806 0.85401 0.0
H499 H 0.50483 0.09826 0.68165 0.0
H500 H 0.51497 0.13509 0.72853 0.0
C501 C 0.30531 0.49799 -0.00102 0.0
C502 C 0.31114 0.51805 0.03263 0.0
C503 C 0.3213 0.49621 0.96667 0.0
C504 C 0.37876 0.52817 0.91399 0.0
H505 H 0.38026 0.47365 0.94787 0.0
C506 C 0.453 0.51627 0.85335 0.0
C507 C 0.44669 0.49535 0.82346 0.0
C508 C 0.43716 0.51951 0.8825 0.0
C509 C 0.38003 0.48891 0.93762 0.0
H510 H 0.33736 0.55261 0.05446 0.0
H511 H 0.36516 0.54968 -0.00237 0.0
H512 H 0.34979 0.47859 0.98086 0.0
H513 H 0.41943 0.46102 0.80427 0.0
H514 H 0.39208 0.46653 0.8551 0.0
H515 H 0.40905 0.53844 0.8706 0.0
C516 C 0.34839 0.53527 0.9961 0.0
C517 C 0.36244 0.49167 0.95615 0.0
C518 C 0.33245 0.537 0.02849 0.0
C519 C 0.42479 0.47734 0.82695 0.0
C520 C 0.40909 0.48051 0.85624 0.0
C521 C 0.39636 0.52538 0.89526 0.0
C522 C 0.34333 0.5145 0.96736 0.0
C523 C 0.36151 0.51127 0.94433 0.0
C524 C 0.41484 0.50181 0.88272 0.0
C525 C 0.39715 0.50565 0.90663 0.0
H526 H 0.28907 0.48308 0.0019 0.0
H527 H 0.31676 0.48012 0.94389 0.0
H528 H 0.37852 0.54345 0.9041 0.0
H529 H 0.46971 0.53051 0.85092 0.0
H530 H 0.4422 0.53605 0.90329 0.0
C531 C 0.81329 0.31733 0.95355 0.0
C532 C 0.82244 0.30838 0.99365 0.0
C533 C 0.82658 0.33221 0.91212 0.0
C534 C 0.8851 0.37437 0.90293 0.0
H535 H 0.86911 0.3787 0.73964 0.0
C536 C 0.93476 0.42585 0.69658 0.0
C537 C 0.9482 0.44733 0.72609 0.0
C538 C 0.91629 0.40903 0.72301 0.0
C539 C 0.87373 0.37769 0.78526 0.0
H540 H 0.85181 0.30603 0.01786 0.0
H541 H 0.87492 0.33183 0.94548 0.0
H542 H 0.84314 0.34662 0.79477 0.0
H543 H 0.95135 0.46866 0.80369 0.0
H544 H 0.91913 0.43934 0.8495 0.0
H545 H 0.9156 0.40514 0.89397 0.0
C546 C 0.85768 0.32779 0.94685 0.0
C547 C 0.85888 0.3594 0.81674 0.0
C548 C 0.84444 0.31295 0.98805 0.0
C549 C 0.94163 0.45219 0.78016 0.0
C550 C 0.92321 0.43538 0.80657 0.0
C551 C 0.89974 0.39267 0.87186 0.0
C552 C 0.84919 0.33836 0.91031 0.0
C553 C 0.86458 0.35745 0.87572 0.0
C554 C 0.9109 0.41337 0.77939 0.0
C555 C 0.89432 0.39453 0.81263 0.0
H556 H 0.79642 0.31421 0.95714 0.0
H557 H 0.8196 0.3401 0.88449 0.0
H558 H 0.8898 0.37357 0.94864 0.0
H559 H 0.93918 0.42157 0.65457 0.0
H560 H 0.90713 0.39225 0.70094 0.0
C561 C 0.82066 0.52184 0.89902 0.0
C562 C 0.82056 0.51697 0.95871 0.0
C563 C 0.83427 0.51828 0.86074 0.0
C564 C 0.87378 0.4953 0.85149 0.0
H565 H 0.90632 0.54723 0.75884 0.0
C566 C 0.94864 0.50845 0.71409 0.0
C567 C 0.96587 0.53086 0.70929 0.0
C568 C 0.92929 0.50396 0.7424 0.0
C569 C 0.89759 0.5327 0.78493 0.0
H570 H 0.83285 0.50275 0.02405 0.0
H571 H 0.85662 0.49677 0.95835 0.0
H572 H 0.87372 0.54246 0.80705 0.0
H573 H 0.97694 0.566 0.73418 0.0
H574 H 0.94379 0.55823 0.78516 0.0
H575 H 0.89857 0.48633 0.83187 0.0
C576 C 0.84622 0.50309 0.9401 0.0
C577 C 0.87849 0.52967 0.81168 0.0
C578 C 0.83256 0.50651 0.978 0.0
C579 C 0.96388 0.54856 0.73644 0.0
C580 C 0.9447 0.54409 0.76514 0.0
C581 C 0.89307 0.49845 0.82508 0.0
C582 C 0.84813 0.50995 0.88171 0.0
C583 C 0.8665 0.51116 0.8463 0.0
C584 C 0.92681 0.5218 0.76688 0.0
C585 C 0.90551 0.51748 0.79245 0.0
H586 H 0.81169 0.53008 0.88323 0.0
H587 H 0.83485 0.52323 0.81564 0.0
H588 H 0.86486 0.48065 0.87703 0.0
H589 H 0.94954 0.49441 0.69325 0.0
H590 H 0.91592 0.48658 0.74273 0.0
C591 C 0.29938 0.84328 0.9581 0.0
C592 C 0.2864 0.84541 0.00121 0.0
C593 C 0.31001 0.86021 0.91875 0.0
C594 C 0.32785 0.89668 0.83035 0.0
H595 H 0.3615 0.95556 0.91534 0.0
C596 C 0.39966 0.97334 0.72588 0.0
C597 C 0.41968 0.98356 0.76201 0.0
C598 C 0.37933 0.95841 0.74933 0.0
C599 C 0.35209 0.93928 0.89077 0.0
H600 H 0.27344 0.86621 0.03591 0.0
H601 H 0.29199 0.89599 0.96669 0.0
H602 H 0.33183 0.92419 0.96316 0.0
H603 H 0.43385 0.98716 0.85171 0.0
H604 H 0.39861 0.96147 0.89243 0.0
H605 H 0.34903 0.91156 0.7592 0.0
C606 C 0.29393 0.88121 0.96319 0.0
C607 C 0.3349 0.92133 0.91794 0.0
C608 C 0.28314 0.86412 0.00234 0.0
C609 C 0.41876 0.97949 0.82258 0.0
C610 C 0.3985 0.96487 0.84606 0.0
C611 C 0.34498 0.91469 0.80304 0.0
C612 C 0.30809 0.87979 0.92225 0.0
C613 C 0.32309 0.89962 0.88885 0.0
C614 C 0.37861 0.95374 0.80953 0.0
C615 C 0.35781 0.93598 0.83379 0.0
H616 H 0.30238 0.82913 0.95723 0.0
H617 H 0.32099 0.85866 0.88844 0.0
H618 H 0.31891 0.88022 0.80652 0.0
H619 H 0.39983 0.97607 0.67899 0.0
H620 H 0.36426 0.95018 0.72017 0.0
C621 C 0.49831 0.31775 0.02928 0.0
C622 C 0.47682 0.30294 0.04705 0.0
C623 C 0.50121 0.33203 0.98335 0.0
C624 C 0.47239 0.34122 0.85533 0.0
H625 H 0.51339 0.40491 0.8955 0.0
C626 C 0.46931 0.41187 0.72812 0.0
C627 C 0.48876 0.43315 0.72794 0.0
C628 C 0.46944 0.39451 0.75905 0.0
C629 C 0.50223 0.3872 0.88251 0.0
H630 H 0.4415 0.29067 0.02918 0.0
H631 H 0.4465 0.31523 0.94827 0.0
H632 H 0.51101 0.37707 0.96304 0.0
H633 H 0.52401 0.45228 0.75591 0.0
H634 H 0.52457 0.42182 0.80696 0.0
H635 H 0.46362 0.35123 0.77465 0.0
C636 C 0.46111 0.31593 0.96987 0.0
C637 C 0.50082 0.37121 0.92163 0.0
C638 C 0.45825 0.30196 0.01634 0.0
C639 C 0.50867 0.43616 0.75578 0.0
C640 C 0.50891 0.41871 0.78569 0.0
C641 C 0.47402 0.35719 0.81566 0.0
C642 C 0.48264 0.33148 0.95368 0.0
C643 C 0.48563 0.34808 0.909 0.0
C644 C 0.48913 0.39788 0.78973 0.0
C645 C 0.4887 0.3805 0.8291 0.0
H646 H 0.5129 0.31894 0.0525 0.0
H647 H 0.51799 0.34377 0.97164 0.0
H648 H 0.46065 0.32347 0.84417 0.0
H649 H 0.45366 0.40905 0.70743 0.0
H650 H 0.45379 0.37889 0.7613 0.0
C651 C 0.17061 0.44442 0.00544 0.0
C652 C 0.18861 0.46656 0.00448 0.0
C653 C 0.15365 0.43556 0.95992 0.0
C654 C 0.11255 0.43231 0.90004 0.0
H655 H 0.11794 0.45497 0.74343 0.0
C656 C 0.05219 0.45776 0.80138 0.0
C657 C 0.04731 0.45582 0.73988 0.0
C658 C 0.06703 0.45143 0.8251 0.0
C659 C 0.116 0.44802 0.78649 0.0
H660 H 0.20404 0.49628 0.9541 0.0
H661 H 0.1743 0.4813 0.8755 0.0
H662 H 0.15042 0.45692 0.79588 0.0
H663 H 0.05336 0.44464 0.65514 0.0
H664 H 0.0795 0.43356 0.6969 0.0
H665 H 0.0783 0.42379 0.89114 0.0
C666 C 0.1733 0.47034 0.91005 0.0
C667 C 0.13471 0.4494 0.81692 0.0
C668 C 0.19043 0.47902 0.95513 0.0
C669 C 0.05677 0.44631 0.70276 0.0
C670 C 0.07184 0.44011 0.72659 0.0
C671 C 0.09387 0.43077 0.86949 0.0
C672 C 0.15412 0.44894 0.91346 0.0
C673 C 0.13348 0.44253 0.87524 0.0
C674 C 0.07747 0.44304 0.78798 0.0
C675 C 0.09563 0.43962 0.81361 0.0
H676 H 0.16888 0.4346 0.04345 0.0
H677 H 0.13946 0.41881 0.9633 0.0
H678 H 0.1108 0.42693 0.94488 0.0
H679 H 0.04512 0.46491 0.83128 0.0
H680 H 0.07118 0.45425 0.87246 0.0
C681 C 0.68018 0.22651 0.97524 0.0
C682 C 0.70168 0.22917 0.97864 0.0
C683 C 0.66419 0.2118 0.93137 0.0
C684 C 0.65491 0.1723 0.79968 0.0
H685 H 0.6001 0.1333 0.874 0.0
C686 C 0.56631 0.08508 0.7348 0.0
C687 C 0.57453 0.07149 0.71138 0.0
C688 C 0.58077 0.1061 0.76437 0.0
C689 C 0.61519 0.14416 0.85238 0.0
H690 H 0.72409 0.22046 0.93597 0.0
H691 H 0.69629 0.19455 0.86013 0.0
H692 H 0.62759 0.16921 0.92449 0.0
H693 H 0.60451 0.06912 0.70281 0.0
H694 H 0.62968 0.10578 0.75408 0.0
H695 H 0.64279 0.14645 0.72895 0.0
C696 C 0.69162 0.20392 0.89038 0.0
C697 C 0.63092 0.16489 0.881 0.0
C698 C 0.70768 0.21888 0.93378 0.0
C699 C 0.59752 0.0791 0.72009 0.0
C700 C 0.612 0.1002 0.749 0.0
C701 C 0.63928 0.15142 0.77143 0.0
C702 C 0.66934 0.1992 0.89079 0.0
C703 C 0.65122 0.17905 0.85563 0.0
C704 C 0.60384 0.11409 0.77038 0.0
C705 C 0.6195 0.13695 0.79813 0.0
H706 H 0.67522 0.23431 0.00952 0.0
H707 H 0.64738 0.20912 0.93189 0.0
H708 H 0.67012 0.18289 0.77828 0.0
H709 H 0.54887 0.08001 0.7279 0.0
H710 H 0.57402 0.11648 0.78039 0.0
C711 C 0.54848 0.73201 0.89612 0.0
C712 C 0.5269 0.72189 0.91664 0.0
C713 C 0.55319 0.72142 0.84907 0.0
C714 C 0.56047 0.68416 0.79601 0.0
H715 H 0.51565 0.6435 0.67482 0.0
C716 C 0.54394 0.59526 0.74087 0.0
C717 C 0.53541 0.58447 0.68421 0.0
C718 C 0.54864 0.61742 0.75314 0.0
C719 C 0.52868 0.65507 0.70733 0.0
H720 H 0.49298 0.69406 0.90149 0.0
H721 H 0.50104 0.67558 0.82016 0.0
H722 H 0.51229 0.67428 0.72163 0.0
H723 H 0.52641 0.58896 0.59485 0.0
H724 H 0.5346 0.62787 0.61648 0.0
H725 H 0.57644 0.6645 0.78312 0.0
C726 C 0.51441 0.69164 0.8395 0.0
C727 C 0.52661 0.67259 0.73465 0.0
C728 C 0.50977 0.70212 0.88648 0.0
C729 C 0.53293 0.59681 0.63902 0.0
C730 C 0.53751 0.61904 0.65146 0.0
C731 C 0.56259 0.66672 0.7685 0.0
C732 C 0.53635 0.70066 0.82167 0.0
C733 C 0.54182 0.68657 0.78153 0.0
C734 C 0.54489 0.62938 0.70913 0.0
C735 C 0.54607 0.65123 0.72615 0.0
H736 H 0.56196 0.74724 0.91887 0.0
H737 H 0.57021 0.72892 0.836 0.0
H738 H 0.57252 0.69456 0.83189 0.0
H739 H 0.5462 0.5863 0.77658 0.0
H740 H 0.554 0.62465 0.79824 0.0
C741 C 0.51666 0.20963 0.29356 0.0
C742 C 0.49774 0.21079 0.27387 0.0
C743 C 0.51484 0.19373 0.3335 0.0
C744 C 0.50767 0.16121 0.43048 0.0
H745 H 0.45914 0.1012 0.37943 0.0
C746 C 0.49771 0.07996 0.53266 0.0
C747 C 0.49488 0.06296 0.49032 0.0
C748 C 0.49553 0.09837 0.51559 0.0
C749 C 0.47271 0.11785 0.3945 0.0
H750 H 0.46237 0.19719 0.28335 0.0
H751 H 0.45914 0.16937 0.35356 0.0
H752 H 0.46086 0.13424 0.33652 0.0
H753 H 0.48663 0.05153 0.3973 0.0
H754 H 0.48257 0.0833 0.36785 0.0
H755 H 0.51996 0.14465 0.48681 0.0
C756 C 0.47538 0.18072 0.33783 0.0
C757 C 0.47358 0.13684 0.37036 0.0
C758 C 0.47727 0.19683 0.29825 0.0
C759 C 0.48895 0.06432 0.43107 0.0
C760 C 0.4865 0.0825 0.41421 0.0
C761 C 0.50669 0.1422 0.45505 0.0
C762 C 0.49399 0.17843 0.35426 0.0
C763 C 0.49137 0.15873 0.38691 0.0
C764 C 0.49014 0.09997 0.45598 0.0
C765 C 0.48951 0.12026 0.43617 0.0
H766 H 0.53261 0.22012 0.27518 0.0
H767 H 0.52949 0.19239 0.34479 0.0
H768 H 0.52151 0.17783 0.4445 0.0
H769 H 0.50239 0.07949 0.57859 0.0
H770 H 0.49831 0.11147 0.54891 0.0
C771 C 0.30003 0.50236 0.28618 0.0
C772 C 0.30785 0.5203 0.24862 0.0
C773 C 0.31456 0.50178 0.33023 0.0
C774 C 0.37487 0.53465 0.39319 0.0
H775 H 0.36476 0.47423 0.41168 0.0
C776 C 0.44268 0.52121 0.51022 0.0
C777 C 0.44252 0.50081 0.49917 0.0
C778 C 0.42554 0.5242 0.48592 0.0
C779 C 0.36826 0.49131 0.4059 0.0
H780 H 0.3359 0.55298 0.23244 0.0
H781 H 0.36133 0.55152 0.30513 0.0
H782 H 0.33585 0.47903 0.3639 0.0
H783 H 0.42514 0.46787 0.45223 0.0
H784 H 0.39646 0.47378 0.40412 0.0
H785 H 0.40809 0.547 0.42863 0.0
C786 C 0.34417 0.5379 0.30275 0.0
C787 C 0.35119 0.49411 0.37979 0.0
C788 C 0.32954 0.53875 0.26023 0.0
C789 C 0.42557 0.48379 0.46106 0.0
C790 C 0.40887 0.48712 0.43455 0.0
C791 C 0.39225 0.53187 0.41686 0.0
C792 C 0.33729 0.51887 0.33653 0.0
C793 C 0.3543 0.51585 0.37208 0.0
C794 C 0.40816 0.50715 0.44789 0.0
C795 C 0.38937 0.51013 0.42324 0.0
H796 H 0.28331 0.48796 0.27853 0.0
H797 H 0.30818 0.48727 0.35693 0.0
H798 H 0.37797 0.55174 0.39033 0.0
H799 H 0.45539 0.53439 0.54066 0.0
H800 H 0.42568 0.53964 0.49917 0.0
C801 C 0.8421 0.30709 0.22774 0.0
C802 C 0.82376 0.30973 0.21173 0.0
C803 C 0.85824 0.32174 0.27133 0.0
C804 C 0.89769 0.36666 0.3141 0.0
H805 H 0.88897 0.39718 0.44966 0.0
C806 C 0.96338 0.45668 0.40044 0.0
C807 C 0.96729 0.46193 0.46192 0.0
C808 C 0.94601 0.43567 0.37763 0.0
C809 C 0.89171 0.38863 0.4124 0.0
H810 H 0.80696 0.32856 0.23075 0.0
H811 H 0.83533 0.3545 0.30662 0.0
H812 H 0.85704 0.36317 0.40112 0.0
H813 H 0.95599 0.44906 0.5477 0.0
H814 H 0.92564 0.41225 0.5077 0.0
H815 H 0.93219 0.3922 0.3246 0.0
C816 C 0.83714 0.34092 0.28645 0.0
C817 C 0.87339 0.36927 0.38432 0.0
C818 C 0.82085 0.32607 0.24311 0.0
C819 C 0.95354 0.44552 0.50014 0.0
C820 C 0.93604 0.4245 0.47725 0.0
C821 C 0.9159 0.38597 0.34199 0.0
C822 C 0.85654 0.33956 0.29904 0.0
C823 C 0.87611 0.35829 0.33415 0.0
C824 C 0.93204 0.41939 0.4157 0.0
C825 C 0.91306 0.39747 0.39059 0.0
H826 H 0.84467 0.29461 0.20378 0.0
H827 H 0.87272 0.31991 0.28089 0.0
H828 H 0.90042 0.3589 0.2751 0.0
H829 H 0.9736 0.46891 0.3697 0.0
H830 H 0.94319 0.43238 0.32996 0.0
C831 C 0.51643 0.81266 0.21724 0.0
C832 C 0.53583 0.8229 0.18584 0.0
C833 C 0.51491 0.82351 0.26906 0.0
C834 C 0.54548 0.86825 0.38706 0.0
H835 H 0.49921 0.88374 0.3589 0.0
C836 C 0.55021 0.94756 0.49976 0.0
C837 C 0.53085 0.94928 0.50143 0.0
C838 C 0.54911 0.9279 0.47524 0.0
C839 C 0.51183 0.87919 0.36909 0.0
H840 H 0.56935 0.8515 0.18552 0.0
H841 H 0.56698 0.87019 0.27734 0.0
H842 H 0.50085 0.8561 0.29234 0.0
H843 H 0.4949 0.93117 0.48463 0.0
H844 H 0.49263 0.89627 0.44597 0.0
H845 H 0.55648 0.89119 0.46403 0.0
C846 C 0.55294 0.85389 0.26177 0.0
C847 C 0.5128 0.86335 0.33039 0.0
C848 C 0.55428 0.84328 0.2093 0.0
C849 C 0.51012 0.93034 0.48306 0.0
C850 C 0.50892 0.91043 0.46022 0.0
C851 C 0.54421 0.88374 0.42681 0.0
C852 C 0.53295 0.84452 0.29083 0.0
C853 C 0.52999 0.85823 0.338 0.0
C854 C 0.52851 0.90928 0.45318 0.0
C855 C 0.52779 0.89003 0.4173 0.0
H856 H 0.50192 0.79706 0.19956 0.0
H857 H 0.49932 0.81601 0.29071 0.0
H858 H 0.55884 0.86446 0.39391 0.0
H859 H 0.56643 0.96199 0.51332 0.0
H860 H 0.56466 0.928 0.47033 0.0
C861 C 0.7005 0.50752 0.18885 0.0
C862 C 0.72111 0.52515 0.17306 0.0
C863 C 0.68836 0.51153 0.23071 0.0
C864 C 0.68099 0.55844 0.28893 0.0
H865 H 0.63694 0.51096 0.37848 0.0
C866 C 0.61193 0.56363 0.42298 0.0
C867 C 0.59027 0.54556 0.40662 0.0
C868 C 0.63079 0.56361 0.40199 0.0
C869 C 0.64925 0.52443 0.35394 0.0
H870 H 0.74598 0.56042 0.1918 0.0
H871 H 0.72503 0.56742 0.26667 0.0
H872 H 0.66617 0.5061 0.33535 0.0
H873 H 0.57164 0.5136 0.35401 0.0
H874 H 0.60434 0.51352 0.31879 0.0
H875 H 0.66371 0.57662 0.30776 0.0
C876 C 0.71802 0.55054 0.24573 0.0
C877 C 0.66596 0.52164 0.32897 0.0
C878 C 0.73021 0.54648 0.20359 0.0
C879 C 0.58797 0.52785 0.36765 0.0
C880 C 0.60672 0.52766 0.34772 0.0
C881 C 0.6644 0.56136 0.31479 0.0
C882 C 0.69653 0.53331 0.25814 0.0
C883 C 0.68158 0.53822 0.2942 0.0
C884 C 0.62832 0.54532 0.36533 0.0
C885 C 0.64793 0.54404 0.34577 0.0
H886 H 0.69305 0.49096 0.16567 0.0
H887 H 0.67185 0.49784 0.23828 0.0
H888 H 0.69253 0.57152 0.26208 0.0
H889 H 0.61434 0.57752 0.45292 0.0
H890 H 0.6473 0.57748 0.41598 0.0
C891 C 0.16908 0.74119 0.24484 0.0
C892 C 0.19141 0.74834 0.23359 0.0
C893 C 0.15967 0.72914 0.29443 0.0
C894 C 0.14317 0.70735 0.40951 0.0
H895 H 0.15817 0.66052 0.43512 0.0
C896 C 0.08814 0.63207 0.54699 0.0
C897 C 0.08208 0.61091 0.51872 0.0
C898 C 0.10607 0.65195 0.52823 0.0
C899 C 0.15378 0.67351 0.42872 0.0
H900 H 0.22185 0.74988 0.26822 0.0
H901 H 0.2056 0.72937 0.35592 0.0
H902 H 0.18038 0.69076 0.37186 0.0
H903 H 0.09144 0.59398 0.45214 0.0
H904 H 0.12216 0.62828 0.41923 0.0
H905 H 0.11556 0.68914 0.46281 0.0
C906 C 0.19519 0.73262 0.32551 0.0
C907 C 0.16675 0.6911 0.39295 0.0
C908 C 0.2046 0.74465 0.27561 0.0
C909 C 0.09545 0.60997 0.47465 0.0
C910 C 0.11328 0.62975 0.45598 0.0
C911 C 0.13009 0.68965 0.44492 0.0
C912 C 0.17238 0.72402 0.33448 0.0
C913 C 0.16116 0.70784 0.38116 0.0
C914 C 0.11838 0.65109 0.48101 0.0
C915 C 0.13475 0.67205 0.45329 0.0
H916 H 0.15855 0.74403 0.21373 0.0
H917 H 0.14204 0.72273 0.29927 0.0
H918 H 0.13862 0.72018 0.40252 0.0
H919 H 0.07833 0.63342 0.58142 0.0
H920 H 0.10978 0.66805 0.54933 0.0
loop_
_geom_bond_atom_site_label_1
_geom_bond_atom_site_label_2
_geom_bond_distance
_geom_bond_site_symmetry_2
_ccdc_geom_bond_type
H0 C6 0.930 . S
H1 C9 0.931 . S
H2 C11 0.931 . S
H3 C13 0.930 . S
H4 C15 0.930 . S
H5 C17 0.931 . S
C6 H0 0.930 . S
C6 C7 1.380 . S
C6 C8 1.394 . S
C7 C6 1.380 . S
C7 C11 1.382 . S
C8 C6 1.394 . S
C8 C9 1.400 . S
C9 H1 0.931 . S
C9 C8 1.400 . S
C9 C10 1.375 . S
C10 C9 1.375 . S
C10 C11 1.415 . S
C10 C12 1.501 . S
C11 H2 0.931 . S
C11 C7 1.382 . S
C11 C10 1.415 . S
C12 C10 1.501 . S
C12 C13 1.384 . S
C12 C17 1.408 . S
C13 H3 0.930 . S
C13 C12 1.384 . S
C13 C14 1.389 . S
C14 C13 1.389 . S
C14 C15 1.405 . S
C15 H4 0.930 . S
C15 C14 1.405 . S
C15 C16 1.364 . S
C16 C15 1.364 . S
C16 C17 1.400 . S
C17 H5 0.931 . S
C17 C12 1.408 . S
C17 C16 1.400 . S
H18 C24 0.930 . S
H19 C27 0.931 . S
H20 C29 0.931 . S
H21 C31 0.930 . S
H22 C33 0.930 . S
H23 C35 0.931 . S
C24 H18 0.930 . S
C24 C25 1.380 . S
C24 C26 1.394 . S
C25 C24 1.380 . S
C25 C29 1.382 . S
C26 C24 1.394 . S
C26 C27 1.400 . S
C27 H19 0.931 . S
C27 C26 1.400 . S
C27 C28 1.375 . S
C28 C27 1.375 . S
C28 C29 1.415 . S
C28 C30 1.501 . S
C29 H20 0.931 . S
C29 C25 1.382 . S
C29 C28 1.415 . S
C30 C28 1.501 . S
C30 C31 1.384 . S
C30 C35 1.408 . S
C31 H21 0.930 . S
C31 C30 1.384 . S
C31 C32 1.389 . S
C32 C31 1.389 . S
C32 C33 1.405 . S
C33 H22 0.930 . S
C33 C32 1.405 . S
C33 C34 1.364 . S
C34 C33 1.364 . S
C34 C35 1.400 . S
C35 H23 0.931 . S
C35 C30 1.408 . S
C35 C34 1.400 . S
H36 C42 0.930 . S
H37 C45 0.931 . S
H38 C47 0.931 . S
H39 C49 0.930 . S
H40 C51 0.930 . S
H41 C53 0.931 . S
C42 H36 0.930 . S
C42 C43 1.380 1_554 S
C42 C44 1.394 . S
C43 C42 1.380 1_556 S
C43 C47 1.382 . S
C44 C42 1.394 . S
C44 C45 1.400 . S
C45 H37 0.931 . S
C45 C44 1.400 . S
C45 C46 1.375 . S
C46 C45 1.375 . S
C46 C47 1.415 1_554 S
C46 C48 1.501 . S
C47 H38 0.931 . S
C47 C43 1.382 . S
C47 C46 1.415 1_556 S
C48 C46 1.501 . S
C48 C49 1.384 1_554 S
C48 C53 1.408 . S
C49 H39 0.930 . S
C49 C48 1.384 1_556 S
C49 C50 1.389 . S
C50 C49 1.389 . S
C50 C51 1.405 1_556 S
C51 H40 0.930 . S
C51 C50 1.405 1_554 S
C51 C52 1.364 . S
C52 C51 1.364 . S
C52 C53 1.400 . S
C53 H41 0.931 . S
C53 C48 1.408 . S
C53 C52 1.400 . S
H54 C60 0.930 . S
H55 C63 0.931 . S
H56 C65 0.931 . S
H57 C67 0.930 . S
H58 C69 0.930 . S
H59 C71 0.931 . S
C60 H54 0.930 . S
C60 C61 1.380 1_554 S
C60 C62 1.394 . S
C61 C60 1.380 1_556 S
C61 C65 1.382 . S
C62 C60 1.394 . S
C62 C63 1.400 . S
C63 H55 0.931 . S
C63 C62 1.400 . S
C63 C64 1.375 . S
C64 C63 1.375 . S
C64 C65 1.415 1_554 S
C64 C66 1.501 . S
C65 H56 0.931 . S
C65 C61 1.382 . S
C65 C64 1.415 1_556 S
C66 C64 1.501 . S
C66 C67 1.384 1_554 S
C66 C71 1.408 . S
C67 H57 0.930 . S
C67 C66 1.384 1_556 S
C67 C68 1.389 . S
C68 C67 1.389 . S
C68 C69 1.405 1_556 S
C69 H58 0.930 . S
C69 C68 1.405 1_554 S
C69 C70 1.364 . S
C70 C69 1.364 . S
C70 C71 1.400 . S
C71 H59 0.931 . S
C71 C66 1.408 . S
C71 C70 1.400 . S
H72 C78 0.930 . S
H73 C81 0.931 . S
H74 C83 0.931 . S
H75 C85 0.930 . S
H76 C87 0.930 . S
H77 C89 0.931 . S
C78 H72 0.930 . S
C78 C79 1.380 . S
C78 C80 1.394 . S
C79 C78 1.380 . S
C79 C83 1.382 . S
C80 C78 1.394 . S
C80 C81 1.400 . S
C81 H73 0.931 . S
C81 C80 1.400 . S
C81 C82 1.375 . S
C82 C81 1.375 . S
C82 C83 1.415 . S
C82 C84 1.501 . S
C83 H74 0.931 . S
C83 C79 1.382 . S
C83 C82 1.415 . S
C84 C82 1.501 . S
C84 C85 1.384 . S
C84 C89 1.408 . S
C85 H75 0.930 . S
C85 C84 1.384 . S
C85 C86 1.389 . S
C86 C85 1.389 . S
C86 C87 1.405 . S
C87 H76 0.930 . S
C87 C86 1.405 . S
C87 C88 1.364 . S
C88 C87 1.364 . S
C88 C89 1.400 . S
C89 H77 0.931 . S
C89 C84 1.408 . S
C89 C88 1.400 . S
H90 C96 0.930 . S
H91 C99 0.931 . S
H92 C101 0.931 . S
H93 C103 0.930 . S
H94 C105 0.930 . S
H95 C107 0.931 . S
C96 H90 0.930 . S
C96 C97 1.380 . S
C96 C98 1.394 . S
C97 C96 1.380 . S
C97 C101 1.382 . S
C98 C96 1.394 . S
C98 C99 1.400 . S
C99 H91 0.931 . S
C99 C98 1.400 . S
C99 C100 1.375 . S
C100 C99 1.375 . S
C100 C101 1.415 . S
C100 C102 1.501 . S
C101 H92 0.931 . S
C101 C97 1.382 . S
C101 C100 1.415 . S
C102 C100 1.501 . S
C102 C103 1.384 . S
C102 C107 1.408 . S
C103 H93 0.930 . S
C103 C102 1.384 . S
C103 C104 1.389 . S
C104 C103 1.389 . S
C104 C105 1.405 . S
C105 H94 0.930 . S
C105 C104 1.405 . S
C105 C106 1.364 . S
C106 C105 1.364 . S
C106 C107 1.400 . S
C107 H95 0.931 . S
C107 C102 1.408 . S
C107 C106 1.400 . S
C108 O135 1.312 . S
C108 O136 1.208 . S
C109 O130 1.331 . S
C109 O133 1.244 . S
C110 O132 1.264 . S
C110 O134 1.273 . S
Mg111 O113 1.936 1_455 S
Mg111 O120 2.081 1_455 S
Mg111 O122 2.023 . S
Mg111 O126 2.031 1_455 S
Mg111 O135 2.291 . S
Mg112 O113 1.963 . S
Mg112 O123 1.942 . S
Mg112 O124 1.955 1_655 S
Mg112 O131 1.986 . S
O113 Mg111 1.936 1_655 S
O113 Mg112 1.963 . S
O113 Mg114 1.915 1_655 S
Mg114 O113 1.915 1_455 S
Mg114 O115 1.915 . S
Mg114 O119 2.013 . S
Mg114 O125 2.114 1_455 S
Mg114 O129 2.013 1_455 S
Mg114 O135 2.114 . S
O115 Mg114 1.915 . S
O115 Mg116 1.936 . S
O115 Mg117 1.963 . S
Mg116 O115 1.936 . S
Mg116 O125 2.291 1_455 S
Mg116 O130 2.081 . S
Mg116 O132 2.023 1_455 S
Mg116 O136 2.031 . S
Mg117 O115 1.963 . S
Mg117 O121 1.986 . S
Mg117 O133 1.942 . S
Mg117 O134 1.955 1_455 S
C118 O129 1.191 . S
C118 O131 1.307 . S
O119 Mg114 2.013 . S
O119 C138 1.191 . S
O120 Mg111 2.081 1_655 S
O120 C128 1.331 . S
O121 Mg117 1.986 . S
O121 C138 1.307 . S
O122 Mg111 2.023 . S
O122 C137 1.264 . S
O123 Mg112 1.942 . S
O123 C128 1.244 . S
O124 Mg112 1.955 1_455 S
O124 C137 1.273 . S
O125 Mg114 2.114 1_655 S
O125 Mg116 2.291 1_655 S
O125 C127 1.312 . S
O126 Mg111 2.031 1_655 S
O126 C127 1.208 . S
C127 O125 1.312 . S
C127 O126 1.208 . S
C128 O120 1.331 . S
C128 O123 1.244 . S
O129 Mg114 2.013 1_655 S
O129 C118 1.191 . S
O130 C109 1.331 . S
O130 Mg116 2.081 . S
O131 Mg112 1.986 . S
O131 C118 1.307 . S
O132 C110 1.264 . S
O132 Mg116 2.023 1_655 S
O133 C109 1.244 . S
O133 Mg117 1.942 . S
O134 C110 1.273 . S
O134 Mg117 1.955 1_655 S
O135 C108 1.312 . S
O135 Mg111 2.291 . S
O135 Mg114 2.114 . S
O136 C108 1.208 . S
O136 Mg116 2.031 . S
C137 O122 1.264 . S
C137 O124 1.273 . S
C138 O119 1.191 . S
C138 O121 1.307 . S
C139 O166 1.312 . S
C139 O167 1.208 . S
C140 O161 1.331 . S
C140 O164 1.244 . S
C141 O163 1.264 . S
C141 O165 1.273 . S
Mg142 O144 1.936 . S
Mg142 O151 2.081 1_545 S
Mg142 O153 2.023 . S
Mg142 O157 2.031 1_545 S
Mg142 O166 2.291 . S
Mg143 O144 1.963 . S
Mg143 O154 1.942 1_545 S
Mg143 O155 1.955 . S
Mg143 O162 1.986 1_545 S
O144 Mg142 1.936 . S
O144 Mg143 1.963 . S
O144 Mg145 1.915 . S
Mg145 O144 1.915 . S
Mg145 O146 1.915 . S
Mg145 O150 2.013 . S
Mg145 O156 2.114 1_545 S
Mg145 O160 2.013 1_545 S
Mg145 O166 2.114 . S
O146 Mg145 1.915 . S
O146 Mg147 1.936 . S
O146 Mg148 1.963 . S
Mg147 O146 1.936 . S
Mg147 O156 2.291 1_545 S
Mg147 O161 2.081 . S
Mg147 O163 2.023 1_545 S
Mg147 O167 2.031 . S
Mg148 O146 1.963 . S
Mg148 O152 1.986 . S
Mg148 O164 1.942 . S
Mg148 O165 1.955 1_545 S
C149 O160 1.191 . S
C149 O162 1.307 . S
O150 Mg145 2.013 . S
O150 C169 1.191 . S
O151 Mg142 2.081 1_565 S
O151 C159 1.331 . S
O152 Mg148 1.986 . S
O152 C169 1.307 . S
O153 Mg142 2.023 . S
O153 C168 1.264 . S
O154 Mg143 1.942 1_565 S
O154 C159 1.244 . S
O155 Mg143 1.955 . S
O155 C168 1.273 . S
O156 Mg145 2.114 1_565 S
O156 Mg147 2.291 1_565 S
O156 C158 1.312 . S
O157 Mg142 2.031 1_565 S
O157 C158 1.208 . S
C158 O156 1.312 . S
C158 O157 1.208 . S
C159 O151 1.331 . S
C159 O154 1.244 . S
O160 Mg145 2.013 1_565 S
O160 C149 1.191 . S
O161 C140 1.331 . S
O161 Mg147 2.081 . S
O162 Mg143 1.986 1_565 S
O162 C149 1.307 . S
O163 C141 1.264 . S
O163 Mg147 2.023 1_565 S
O164 C140 1.244 . S
O164 Mg148 1.942 . S
O165 C141 1.273 . S
O165 Mg148 1.955 1_565 S
O166 C139 1.312 . S
O166 Mg142 2.291 . S
O166 Mg145 2.114 . S
O167 C139 1.208 . S
O167 Mg147 2.031 . S
C168 O153 1.264 . S
C168 O155 1.273 . S
C169 O150 1.191 . S
C169 O152 1.307 . S
C170 O197 1.312 . S
C170 O198 1.208 . S
C171 O192 1.331 . S
C171 O195 1.244 . S
C172 O194 1.264 . S
C172 O196 1.273 . S
Mg173 O175 1.936 . S
Mg173 O182 2.081 . S
Mg173 O184 2.023 . S
Mg173 O188 2.031 . S
Mg173 O197 2.291 . S
Mg174 O175 1.963 . S
Mg174 O185 1.942 . S
Mg174 O186 1.955 . S
Mg174 O193 1.986 . S
O175 Mg173 1.936 . S
O175 Mg174 1.963 . S
O175 Mg176 1.915 . S
Mg176 O175 1.915 . S
Mg176 O177 1.915 . S
Mg176 O181 2.013 . S
Mg176 O187 2.114 . S
Mg176 O191 2.013 . S
Mg176 O197 2.114 . S
O177 Mg176 1.915 . S
O177 Mg178 1.936 . S
O177 Mg179 1.963 . S
Mg178 O177 1.936 . S
Mg178 O187 2.291 . S
Mg178 O192 2.081 . S
Mg178 O194 2.023 . S
Mg178 O198 2.031 . S
Mg179 O177 1.963 . S
Mg179 O183 1.986 . S
Mg179 O195 1.942 . S
Mg179 O196 1.955 . S
C180 O191 1.191 . S
C180 O193 1.307 . S
O181 Mg176 2.013 . S
O181 C200 1.191 . S
O182 Mg173 2.081 . S
O182 C190 1.331 . S
O183 Mg179 1.986 . S
O183 C200 1.307 . S
O184 Mg173 2.023 . S
O184 C199 1.264 . S
O185 Mg174 1.942 . S
O185 C190 1.244 . S
O186 Mg174 1.955 . S
O186 C199 1.273 . S
O187 Mg176 2.114 . S
O187 Mg178 2.291 . S
O187 C189 1.312 . S
O188 Mg173 2.031 . S
O188 C189 1.208 . S
C189 O187 1.312 . S
C189 O188 1.208 . S
C190 O182 1.331 . S
C190 O185 1.244 . S
O191 Mg176 2.013 . S
O191 C180 1.191 . S
O192 C171 1.331 . S
O192 Mg178 2.081 . S
O193 Mg174 1.986 . S
O193 C180 1.307 . S
O194 C172 1.264 . S
O194 Mg178 2.023 . S
O195 C171 1.244 . S
O195 Mg179 1.942 . S
O196 C172 1.273 . S
O196 Mg179 1.955 . S
O197 C170 1.312 . S
O197 Mg173 2.291 . S
O197 Mg176 2.114 . S
O198 C170 1.208 . S
O198 Mg178 2.031 . S
C199 O184 1.264 . S
C199 O186 1.273 . S
C200 O181 1.191 . S
C200 O183 1.307 . S
C201 C202 1.349 . S
C201 C203 1.327 . S
C201 H226 0.950 . S
C202 C201 1.349 . S
C202 C218 1.349 . S
C203 C201 1.327 . S
C203 C222 1.429 . S
C203 H227 0.950 . S
C204 C221 1.574 . S
C204 C223 1.368 . S
C204 H228 0.949 . S
H205 C209 0.949 . S
C206 C207 1.349 . S
C206 C208 1.327 . S
C206 H229 0.950 . S
C207 C206 1.349 . S
C207 C219 1.349 . S
C208 C206 1.327 . S
C208 C224 1.429 . S
C208 H230 0.950 . S
C209 H205 0.949 . S
C209 C217 1.574 . S
C209 C225 1.368 . S
H210 C218 0.950 . S
H211 C216 0.950 . S
H212 C217 0.949 . S
H213 C219 0.950 . S
H214 C220 0.950 . S
H215 C221 0.949 . S
C216 H211 0.950 . S
C216 C218 1.327 . S
C216 C222 1.429 . S
C217 C209 1.574 . S
C217 H212 0.949 . S
C217 C223 1.368 . S
C218 C202 1.349 . S
C218 H210 0.950 . S
C218 C216 1.327 . S
C219 C207 1.349 . S
C219 H213 0.950 . S
C219 C220 1.327 . S
C220 H214 0.950 . S
C220 C219 1.327 . S
C220 C224 1.429 . S
C221 C204 1.574 . S
C221 H215 0.949 . S
C221 C225 1.368 . S
C222 C203 1.429 . S
C222 C216 1.429 . S
C222 C223 1.523 . S
C223 C204 1.368 . S
C223 C217 1.368 . S
C223 C222 1.523 . S
C224 C208 1.429 . S
C224 C220 1.429 . S
C224 C225 1.523 . S
C225 C209 1.368 . S
C225 C221 1.368 . S
C225 C224 1.523 . S
H226 C201 0.950 . S
H227 C203 0.950 . S
H228 C204 0.949 . S
H229 C206 0.950 . S
H230 C208 0.950 . S
C231 C232 1.349 . S
C231 C233 1.327 . S
C231 H256 0.950 . S
C232 C231 1.349 . S
C232 C248 1.349 . S
C233 C231 1.327 . S
C233 C252 1.429 . S
C233 H257 0.950 . S
C234 C251 1.574 . S
C234 C253 1.368 . S
C234 H258 0.949 . S
H235 C239 0.949 . S
C236 C237 1.349 . S
C236 C238 1.327 . S
C236 H259 0.950 . S
C237 C236 1.349 . S
C237 C249 1.349 . S
C238 C236 1.327 . S
C238 C254 1.429 . S
C238 H260 0.950 . S
C239 H235 0.949 . S
C239 C247 1.574 . S
C239 C255 1.368 . S
H240 C248 0.950 . S
H241 C246 0.950 . S
H242 C247 0.949 . S
H243 C249 0.950 . S
H244 C250 0.950 . S
H245 C251 0.949 . S
C246 H241 0.950 . S
C246 C248 1.327 . S
C246 C252 1.429 . S
C247 C239 1.574 . S
C247 H242 0.949 . S
C247 C253 1.368 . S
C248 C232 1.349 . S
C248 H240 0.950 . S
C248 C246 1.327 . S
C249 C237 1.349 . S
C249 H243 0.950 . S
C249 C250 1.327 . S
C250 H244 0.950 . S
C250 C249 1.327 . S
C250 C254 1.429 . S
C251 C234 1.574 . S
C251 H245 0.949 . S
C251 C255 1.368 . S
C252 C233 1.429 . S
C252 C246 1.429 . S
C252 C253 1.523 . S
C253 C234 1.368 . S
C253 C247 1.368 . S
C253 C252 1.523 . S
C254 C238 1.429 . S
C254 C250 1.429 . S
C254 C255 1.523 . S
C255 C239 1.368 . S
C255 C251 1.368 . S
C255 C254 1.523 . S
H256 C231 0.950 . S
H257 C233 0.950 . S
H258 C234 0.949 . S
H259 C236 0.950 . S
H260 C238 0.950 . S
C261 C262 1.349 . S
C261 C263 1.327 . S
C261 H286 0.950 . S
C262 C261 1.349 . S
C262 C278 1.349 . S
C263 C261 1.327 . S
C263 C282 1.429 . S
C263 H287 0.950 . S
C264 C281 1.574 . S
C264 C283 1.368 . S
C264 H288 0.949 . S
H265 C269 0.949 . S
C266 C267 1.349 . S
C266 C268 1.327 . S
C266 H289 0.950 . S
C267 C266 1.349 . S
C267 C279 1.349 . S
C268 C266 1.327 . S
C268 C284 1.429 . S
C268 H290 0.950 . S
C269 H265 0.949 . S
C269 C277 1.574 . S
C269 C285 1.368 . S
H270 C278 0.950 . S
H271 C276 0.950 . S
H272 C277 0.949 . S
H273 C279 0.950 . S
H274 C280 0.950 . S
H275 C281 0.949 . S
C276 H271 0.950 . S
C276 C278 1.327 . S
C276 C282 1.429 . S
C277 C269 1.574 . S
C277 H272 0.949 . S
C277 C283 1.368 . S
C278 C262 1.349 . S
C278 H270 0.950 . S
C278 C276 1.327 . S
C279 C267 1.349 . S
C279 H273 0.950 . S
C279 C280 1.327 . S
C280 H274 0.950 . S
C280 C279 1.327 . S
C280 C284 1.429 . S
C281 C264 1.574 . S
C281 H275 0.949 . S
C281 C285 1.368 . S
C282 C263 1.429 . S
C282 C276 1.429 . S
C282 C283 1.523 . S
C283 C264 1.368 . S
C283 C277 1.368 . S
C283 C282 1.523 . S
C284 C268 1.429 . S
C284 C280 1.429 . S
C284 C285 1.523 . S
C285 C269 1.368 . S
C285 C281 1.368 . S
C285 C284 1.523 . S
H286 C261 0.950 . S
H287 C263 0.950 . S
H288 C264 0.949 . S
H289 C266 0.950 . S
H290 C268 0.950 . S
C291 C292 1.349 . S
C291 C293 1.327 . S
C291 H316 0.950 . S
C292 C291 1.349 . S
C292 C308 1.349 . S
C293 C291 1.327 . S
C293 C312 1.429 . S
C293 H317 0.950 . S
C294 C311 1.574 . S
C294 C313 1.368 . S
C294 H318 0.949 . S
H295 C299 0.949 . S
C296 C297 1.349 . S
C296 C298 1.327 . S
C296 H319 0.950 . S
C297 C296 1.349 . S
C297 C309 1.349 . S
C298 C296 1.327 . S
C298 C314 1.429 . S
C298 H320 0.950 . S
C299 H295 0.949 . S
C299 C307 1.574 . S
C299 C315 1.368 . S
H300 C308 0.950 . S
H301 C306 0.950 . S
H302 C307 0.949 . S
H303 C309 0.950 . S
H304 C310 0.950 . S
H305 C311 0.949 . S
C306 H301 0.950 . S
C306 C308 1.327 . S
C306 C312 1.429 . S
C307 C299 1.574 . S
C307 H302 0.949 . S
C307 C313 1.368 . S
C308 C292 1.349 . S
C308 H300 0.950 . S
C308 C306 1.327 . S
C309 C297 1.349 . S
C309 H303 0.950 . S
C309 C310 1.327 . S
C310 H304 0.950 . S
C310 C309 1.327 . S
C310 C314 1.429 . S
C311 C294 1.574 . S
C311 H305 0.949 . S
C311 C315 1.368 . S
C312 C293 1.429 . S
C312 C306 1.429 . S
C312 C313 1.523 . S
C313 C294 1.368 . S
C313 C307 1.368 . S
C313 C312 1.523 . S
C314 C298 1.429 . S
C314 C310 1.429 . S
C314 C315 1.523 . S
C315 C299 1.368 . S
C315 C311 1.368 . S
C315 C314 1.523 . S
H316 C291 0.950 . S
H317 C293 0.950 . S
H318 C294 0.949 . S
H319 C296 0.950 . S
H320 C298 0.950 . S
C321 C322 1.349 . S
C321 C323 1.327 . S
C321 H346 0.950 . S
C322 C321 1.349 . S
C322 C338 1.349 . S
C323 C321 1.327 . S
C323 C342 1.429 . S
C323 H347 0.950 . S
C324 C341 1.574 . S
C324 C343 1.368 . S
C324 H348 0.949 . S
H325 C329 0.949 . S
C326 C327 1.349 . S
C326 C328 1.327 . S
C326 H349 0.950 . S
C327 C326 1.349 . S
C327 C339 1.349 . S
C328 C326 1.327 . S
C328 C344 1.429 . S
C328 H350 0.950 . S
C329 H325 0.949 . S
C329 C337 1.574 . S
C329 C345 1.368 . S
H330 C338 0.950 . S
H331 C336 0.950 . S
H332 C337 0.949 . S
H333 C339 0.950 . S
H334 C340 0.950 . S
H335 C341 0.949 . S
C336 H331 0.950 . S
C336 C338 1.327 . S
C336 C342 1.429 . S
C337 C329 1.574 . S
C337 H332 0.949 . S
C337 C343 1.368 . S
C338 C322 1.349 . S
C338 H330 0.950 . S
C338 C336 1.327 . S
C339 C327 1.349 . S
C339 H333 0.950 . S
C339 C340 1.327 . S
C340 H334 0.950 . S
C340 C339 1.327 . S
C340 C344 1.429 . S
C341 C324 1.574 . S
C341 H335 0.949 . S
C341 C345 1.368 . S
C342 C323 1.429 . S
C342 C336 1.429 . S
C342 C343 1.523 . S
C343 C324 1.368 . S
C343 C337 1.368 . S
C343 C342 1.523 . S
C344 C328 1.429 . S
C344 C340 1.429 . S
C344 C345 1.523 . S
C345 C329 1.368 . S
C345 C341 1.368 . S
C345 C344 1.523 . S
H346 C321 0.950 . S
H347 C323 0.950 . S
H348 C324 0.949 . S
H349 C326 0.950 . S
H350 C328 0.950 . S
C351 C352 1.349 . S
C351 C353 1.327 . S
C351 H376 0.950 . S
C352 C351 1.349 . S
C352 C368 1.349 . S
C353 C351 1.327 . S
C353 C372 1.429 . S
C353 H377 0.950 . S
C354 C371 1.574 . S
C354 C373 1.368 . S
C354 H378 0.949 . S
H355 C359 0.949 . S
C356 C357 1.349 . S
C356 C358 1.327 . S
C356 H379 0.950 . S
C357 C356 1.349 . S
C357 C369 1.349 . S
C358 C356 1.327 . S
C358 C374 1.429 . S
C358 H380 0.950 . S
C359 H355 0.949 . S
C359 C367 1.574 . S
C359 C375 1.368 . S
H360 C368 0.950 . S
H361 C366 0.950 . S
H362 C367 0.949 . S
H363 C369 0.950 . S
H364 C370 0.950 . S
H365 C371 0.949 . S
C366 H361 0.950 . S
C366 C368 1.327 . S
C366 C372 1.429 . S
C367 C359 1.574 . S
C367 H362 0.949 . S
C367 C373 1.368 . S
C368 C352 1.349 . S
C368 H360 0.950 . S
C368 C366 1.327 . S
C369 C357 1.349 . S
C369 H363 0.950 . S
C369 C370 1.327 . S
C370 H364 0.950 . S
C370 C369 1.327 . S
C370 C374 1.429 . S
C371 C354 1.574 . S
C371 H365 0.949 . S
C371 C375 1.368 . S
C372 C353 1.429 . S
C372 C366 1.429 . S
C372 C373 1.523 . S
C373 C354 1.368 . S
C373 C367 1.368 . S
C373 C372 1.523 . S
C374 C358 1.429 . S
C374 C370 1.429 . S
C374 C375 1.523 . S
C375 C359 1.368 . S
C375 C371 1.368 . S
C375 C374 1.523 . S
H376 C351 0.950 . S
H377 C353 0.950 . S
H378 C354 0.949 . S
H379 C356 0.950 . S
H380 C358 0.950 . S
C381 C382 1.349 . S
C381 C383 1.327 . S
C381 H406 0.950 . S
C382 C381 1.349 . S
C382 C398 1.349 . S
C383 C381 1.327 . S
C383 C402 1.429 . S
C383 H407 0.950 . S
C384 C401 1.574 . S
C384 C403 1.368 . S
C384 H408 0.949 . S
H385 C389 0.949 . S
C386 C387 1.349 . S
C386 C388 1.327 . S
C386 H409 0.950 . S
C387 C386 1.349 . S
C387 C399 1.349 . S
C388 C386 1.327 . S
C388 C404 1.429 . S
C388 H410 0.950 . S
C389 H385 0.949 . S
C389 C397 1.574 . S
C389 C405 1.368 . S
H390 C398 0.950 . S
H391 C396 0.950 . S
H392 C397 0.949 . S
H393 C399 0.950 . S
H394 C400 0.950 . S
H395 C401 0.949 . S
C396 H391 0.950 . S
C396 C398 1.327 . S
C396 C402 1.429 . S
C397 C389 1.574 . S
C397 H392 0.949 . S
C397 C403 1.368 . S
C398 C382 1.349 . S
C398 H390 0.950 . S
C398 C396 1.327 . S
C399 C387 1.349 . S
C399 H393 0.950 . S
C399 C400 1.327 . S
C400 H394 0.950 . S
C400 C399 1.327 . S
C400 C404 1.429 . S
C401 C384 1.574 . S
C401 H395 0.949 . S
C401 C405 1.368 . S
C402 C383 1.429 . S
C402 C396 1.429 . S
C402 C403 1.523 . S
C403 C384 1.368 . S
C403 C397 1.368 . S
C403 C402 1.523 . S
C404 C388 1.429 . S
C404 C400 1.429 . S
C404 C405 1.523 . S
C405 C389 1.368 . S
C405 C401 1.368 . S
C405 C404 1.523 . S
H406 C381 0.950 . S
H407 C383 0.950 . S
H408 C384 0.949 . S
H409 C386 0.950 . S
H410 C388 0.950 . S
C411 C412 1.349 . S
C411 C413 1.327 . S
C411 H436 0.950 . S
C412 C411 1.349 . S
C412 C428 1.349 . S
C413 C411 1.327 . S
C413 C432 1.429 . S
C413 H437 0.950 . S
C414 C431 1.574 . S
C414 C433 1.368 . S
C414 H438 0.949 . S
H415 C419 0.949 . S
C416 C417 1.349 . S
C416 C418 1.327 . S
C416 H439 0.950 . S
C417 C416 1.349 . S
C417 C429 1.349 . S
C418 C416 1.327 . S
C418 C434 1.429 . S
C418 H440 0.950 . S
C419 H415 0.949 . S
C419 C427 1.574 . S
C419 C435 1.368 . S
H420 C428 0.950 . S
H421 C426 0.950 . S
H422 C427 0.949 . S
H423 C429 0.950 . S
H424 C430 0.950 . S
H425 C431 0.949 . S
C426 H421 0.950 . S
C426 C428 1.327 . S
C426 C432 1.429 . S
C427 C419 1.574 . S
C427 H422 0.949 . S
C427 C433 1.368 . S
C428 C412 1.349 . S
C428 H420 0.950 . S
C428 C426 1.327 . S
C429 C417 1.349 . S
C429 H423 0.950 . S
C429 C430 1.327 . S
C430 H424 0.950 . S
C430 C429 1.327 . S
C430 C434 1.429 . S
C431 C414 1.574 . S
C431 H425 0.949 . S
C431 C435 1.368 . S
C432 C413 1.429 . S
C432 C426 1.429 . S
C432 C433 1.523 . S
C433 C414 1.368 . S
C433 C427 1.368 . S
C433 C432 1.523 . S
C434 C418 1.429 . S
C434 C430 1.429 . S
C434 C435 1.523 . S
C435 C419 1.368 . S
C435 C431 1.368 . S
C435 C434 1.523 . S
H436 C411 0.950 . S
H437 C413 0.950 . S
H438 C414 0.949 . S
H439 C416 0.950 . S
H440 C418 0.950 . S
C441 C442 1.349 . S
C441 C443 1.327 . S
C441 H466 0.950 . S
C442 C441 1.349 . S
C442 C458 1.349 1_556 S
C443 C441 1.327 . S
C443 C462 1.429 . S
C443 H467 0.950 . S
C444 C461 1.574 . S
C444 C463 1.368 . S
C444 H468 0.949 . S
H445 C449 0.949 . S
C446 C447 1.349 . S
C446 C448 1.327 . S
C446 H469 0.950 . S
C447 C446 1.349 . S
C447 C459 1.349 . S
C448 C446 1.327 . S
C448 C464 1.429 . S
C448 H470 0.950 . S
C449 H445 0.949 . S
C449 C457 1.574 . S
C449 C465 1.368 . S
H450 C458 0.950 . S
H451 C456 0.950 1_554 S
H452 C457 0.949 . S
H453 C459 0.950 . S
H454 C460 0.950 . S
H455 C461 0.949 . S
C456 H451 0.950 1_556 S
C456 C458 1.327 1_556 S
C456 C462 1.429 . S
C457 C449 1.574 . S
C457 H452 0.949 . S
C457 C463 1.368 . S
C458 C442 1.349 1_554 S
C458 H450 0.950 . S
C458 C456 1.327 1_554 S
C459 C447 1.349 . S
C459 H453 0.950 . S
C459 C460 1.327 . S
C460 H454 0.950 . S
C460 C459 1.327 . S
C460 C464 1.429 . S
C461 C444 1.574 . S
C461 H455 0.949 . S
C461 C465 1.368 . S
C462 C443 1.429 . S
C462 C456 1.429 . S
C462 C463 1.523 . S
C463 C444 1.368 . S
C463 C457 1.368 . S
C463 C462 1.523 . S
C464 C448 1.429 . S
C464 C460 1.429 . S
C464 C465 1.523 . S
C465 C449 1.368 . S
C465 C461 1.368 . S
C465 C464 1.523 . S
H466 C441 0.950 . S
H467 C443 0.950 . S
H468 C444 0.949 . S
H469 C446 0.950 . S
H470 C448 0.950 . S
C471 C472 1.349 . S
C471 C473 1.327 . S
C471 H496 0.950 . S
C472 C471 1.349 . S
C472 C488 1.349 . S
C473 C471 1.327 . S
C473 C492 1.429 1_554 S
C473 H497 0.950 . S
C474 C491 1.574 . S
C474 C493 1.368 . S
C474 H498 0.949 . S
H475 C479 0.949 . S
C476 C477 1.349 . S
C476 C478 1.327 . S
C476 H499 0.950 . S
C477 C476 1.349 . S
C477 C489 1.349 . S
C478 C476 1.327 . S
C478 C494 1.429 . S
C478 H500 0.950 . S
C479 H475 0.949 . S
C479 C487 1.574 . S
C479 C495 1.368 . S
H480 C488 0.950 . S
H481 C486 0.950 1_556 S
H482 C487 0.949 . S
H483 C489 0.950 . S
H484 C490 0.950 . S
H485 C491 0.949 . S
C486 H481 0.950 1_554 S
C486 C488 1.327 . S
C486 C492 1.429 1_554 S
C487 C479 1.574 . S
C487 H482 0.949 . S
C487 C493 1.368 . S
C488 C472 1.349 . S
C488 H480 0.950 . S
C488 C486 1.327 . S
C489 C477 1.349 . S
C489 H483 0.950 . S
C489 C490 1.327 . S
C490 H484 0.950 . S
C490 C489 1.327 . S
C490 C494 1.429 . S
C491 C474 1.574 . S
C491 H485 0.949 . S
C491 C495 1.368 . S
C492 C473 1.429 1_556 S
C492 C486 1.429 1_556 S
C492 C493 1.523 . S
C493 C474 1.368 . S
C493 C487 1.368 . S
C493 C492 1.523 . S
C494 C478 1.429 . S
C494 C490 1.429 . S
C494 C495 1.523 . S
C495 C479 1.368 . S
C495 C491 1.368 . S
C495 C494 1.523 . S
H496 C471 0.950 . S
H497 C473 0.950 . S
H498 C474 0.949 . S
H499 C476 0.950 . S
H500 C478 0.950 . S
C501 C502 1.349 . S
C501 C503 1.327 . S
C501 H526 0.950 . S
C502 C501 1.349 . S
C502 C518 1.349 . S
C503 C501 1.327 . S
C503 C522 1.429 . S
C503 H527 0.950 1_554 S
C504 C521 1.574 . S
C504 C523 1.368 . S
C504 H528 0.949 . S
H505 C509 0.949 . S
C506 C507 1.349 . S
C506 C508 1.327 . S
C506 H529 0.950 . S
C507 C506 1.349 . S
C507 C519 1.349 . S
C508 C506 1.327 . S
C508 C524 1.429 . S
C508 H530 0.950 . S
C509 H505 0.949 . S
C509 C517 1.574 . S
C509 C525 1.368 . S
H510 C518 0.950 . S
H511 C516 0.950 . S
H512 C517 0.949 . S
H513 C519 0.950 . S
H514 C520 0.950 . S
H515 C521 0.949 . S
C516 H511 0.950 . S
C516 C518 1.327 . S
C516 C522 1.429 . S
C517 C509 1.574 . S
C517 H512 0.949 . S
C517 C523 1.368 . S
C518 C502 1.349 . S
C518 H510 0.950 . S
C518 C516 1.327 . S
C519 C507 1.349 . S
C519 H513 0.950 . S
C519 C520 1.327 . S
C520 H514 0.950 . S
C520 C519 1.327 . S
C520 C524 1.429 . S
C521 C504 1.574 . S
C521 H515 0.949 . S
C521 C525 1.368 . S
C522 C503 1.429 . S
C522 C516 1.429 . S
C522 C523 1.523 1_554 S
C523 C504 1.368 . S
C523 C517 1.368 . S
C523 C522 1.523 1_556 S
C524 C508 1.429 . S
C524 C520 1.429 . S
C524 C525 1.523 . S
C525 C509 1.368 . S
C525 C521 1.368 . S
C525 C524 1.523 . S
H526 C501 0.950 . S
H527 C503 0.950 1_556 S
H528 C504 0.949 . S
H529 C506 0.950 . S
H530 C508 0.950 . S
C531 C532 1.349 . S
C531 C533 1.327 . S
C531 H556 0.950 . S
C532 C531 1.349 . S
C532 C548 1.349 . S
C533 C531 1.327 . S
C533 C552 1.429 . S
C533 H557 0.950 . S
C534 C551 1.574 . S
C534 C553 1.368 . S
C534 H558 0.949 . S
H535 C539 0.949 . S
C536 C537 1.349 . S
C536 C538 1.327 . S
C536 H559 0.950 . S
C537 C536 1.349 . S
C537 C549 1.349 . S
C538 C536 1.327 . S
C538 C554 1.429 . S
C538 H560 0.950 . S
C539 H535 0.949 . S
C539 C547 1.574 . S
C539 C555 1.368 . S
H540 C548 0.954 . S
H541 C546 0.950 . S
H542 C547 0.949 . S
H543 C549 0.950 . S
H544 C550 0.950 . S
H545 C551 0.949 . S
C546 H541 0.950 . S
C546 C548 1.327 . S
C546 C552 1.429 . S
C547 C539 1.574 . S
C547 H542 0.949 . S
C547 C553 1.368 . S
C548 C532 1.349 . S
C548 H540 0.954 . S
C548 C546 1.327 . S
C549 C537 1.349 . S
C549 H543 0.950 . S
C549 C550 1.327 . S
C550 H544 0.950 . S
C550 C549 1.327 . S
C550 C554 1.429 . S
C551 C534 1.574 . S
C551 H545 0.949 . S
C551 C555 1.368 . S
C552 C533 1.429 . S
C552 C546 1.429 . S
C552 C553 1.523 . S
C553 C534 1.368 . S
C553 C547 1.368 . S
C553 C552 1.523 . S
C554 C538 1.429 . S
C554 C550 1.429 . S
C554 C555 1.523 . S
C555 C539 1.368 . S
C555 C551 1.368 . S
C555 C554 1.523 . S
H556 C531 0.950 . S
H557 C533 0.950 . S
H558 C534 0.949 . S
H559 C536 0.950 . S
H560 C538 0.950 . S
C561 C562 1.349 . S
C561 C563 1.327 . S
C561 H586 0.950 . S
C562 C561 1.349 . S
C562 C578 1.349 . S
C563 C561 1.327 . S
C563 C582 1.429 . S
C563 H587 0.950 . S
C564 C581 1.574 . S
C564 C583 1.368 . S
C564 H588 0.949 . S
H565 C569 0.949 . S
C566 C567 1.349 . S
C566 C568 1.327 . S
C566 H589 0.950 . S
C567 C566 1.349 . S
C567 C579 1.349 . S
C568 C566 1.327 . S
C568 C584 1.429 . S
C568 H590 0.950 . S
C569 H565 0.949 . S
C569 C577 1.574 . S
C569 C585 1.368 . S
H570 C578 0.950 . S
H571 C576 0.950 . S
H572 C577 0.949 . S
H573 C579 0.950 . S
H574 C580 0.950 . S
H575 C581 0.949 . S
C576 H571 0.950 . S
C576 C578 1.327 . S
C576 C582 1.429 . S
C577 C569 1.574 . S
C577 H572 0.949 . S
C577 C583 1.368 . S
C578 C562 1.349 . S
C578 H570 0.950 . S
C578 C576 1.327 . S
C579 C567 1.349 . S
C579 H573 0.950 . S
C579 C580 1.327 . S
C580 H574 0.950 . S
C580 C579 1.327 . S
C580 C584 1.429 . S
C581 C564 1.574 . S
C581 H575 0.949 . S
C581 C585 1.368 . S
C582 C563 1.429 . S
C582 C576 1.429 . S
C582 C583 1.523 . S
C583 C564 1.368 . S
C583 C577 1.368 . S
C583 C582 1.523 . S
C584 C568 1.429 . S
C584 C580 1.429 . S
C584 C585 1.523 . S
C585 C569 1.368 . S
C585 C581 1.368 . S
C585 C584 1.523 . S
H586 C561 0.950 . S
H587 C563 0.950 . S
H588 C564 0.949 . S
H589 C566 0.950 . S
H590 C568 0.950 . S
C591 C592 1.349 . S
C591 C593 1.327 . S
C591 H616 0.950 . S
C592 C591 1.349 . S
C592 C608 1.349 1_554 S
C593 C591 1.327 . S
C593 C612 1.429 1_554 S
C593 H617 0.950 . S
C594 C611 1.574 . S
C594 C613 1.368 . S
C594 H618 0.949 . S
H595 C599 0.949 . S
C596 C597 1.349 . S
C596 C598 1.327 . S
C596 H619 0.950 . S
C597 C596 1.349 . S
C597 C609 1.349 . S
C598 C596 1.327 . S
C598 C614 1.429 . S
C598 H620 0.950 . S
C599 H595 0.949 . S
C599 C607 1.574 . S
C599 C615 1.368 . S
H600 C608 0.950 . S
H601 C606 0.950 . S
H602 C607 0.949 . S
H603 C609 0.950 . S
H604 C610 0.950 . S
H605 C611 0.949 . S
C606 H601 0.950 . S
C606 C608 1.327 . S
C606 C612 1.429 . S
C607 C599 1.574 . S
C607 H602 0.949 . S
C607 C613 1.368 . S
C608 C592 1.349 1_556 S
C608 H600 0.950 . S
C608 C606 1.327 . S
C609 C597 1.349 . S
C609 H603 0.950 . S
C609 C610 1.327 . S
C610 H604 0.950 . S
C610 C609 1.327 . S
C610 C614 1.429 . S
C611 C594 1.574 . S
C611 H605 0.949 . S
C611 C615 1.368 . S
C612 C593 1.429 1_556 S
C612 C606 1.429 . S
C612 C613 1.523 . S
C613 C594 1.368 . S
C613 C607 1.368 . S
C613 C612 1.523 . S
C614 C598 1.429 . S
C614 C610 1.429 . S
C614 C615 1.523 . S
C615 C599 1.368 . S
C615 C611 1.368 . S
C615 C614 1.523 . S
H616 C591 0.950 . S
H617 C593 0.950 . S
H618 C594 0.949 . S
H619 C596 0.950 . S
H620 C598 0.950 . S
C621 C622 1.349 . S
C621 C623 1.327 . S
C621 H646 0.950 . S
C622 C621 1.349 . S
C622 C638 1.349 . S
C623 C621 1.327 . S
C623 C642 1.429 1_554 S
C623 H647 0.950 . S
C624 C641 1.574 . S
C624 C643 1.368 . S
C624 H648 0.949 . S
H625 C629 0.949 . S
C626 C627 1.349 . S
C626 C628 1.327 . S
C626 H649 0.950 . S
C627 C626 1.349 . S
C627 C639 1.349 . S
C628 C626 1.327 . S
C628 C644 1.429 . S
C628 H650 0.950 . S
C629 H625 0.949 . S
C629 C637 1.574 . S
C629 C645 1.368 . S
H630 C638 0.948 1_556 S
H631 C636 0.950 . S
H632 C637 0.949 1_554 S
H633 C639 0.950 . S
H634 C640 0.950 . S
H635 C641 0.949 . S
C636 H631 0.950 . S
C636 C638 1.327 1_556 S
C636 C642 1.429 . S
C637 C629 1.574 . S
C637 H632 0.949 1_556 S
C637 C643 1.368 . S
C638 C622 1.349 . S
C638 H630 0.948 1_554 S
C638 C636 1.327 1_554 S
C639 C627 1.349 . S
C639 H633 0.950 . S
C639 C640 1.327 . S
C640 H634 0.950 . S
C640 C639 1.327 . S
C640 C644 1.429 . S
C641 C624 1.574 . S
C641 H635 0.949 . S
C641 C645 1.368 . S
C642 C623 1.429 1_556 S
C642 C636 1.429 . S
C642 C643 1.523 . S
C643 C624 1.368 . S
C643 C637 1.368 . S
C643 C642 1.523 . S
C644 C628 1.429 . S
C644 C640 1.429 . S
C644 C645 1.523 . S
C645 C629 1.368 . S
C645 C641 1.368 . S
C645 C644 1.523 . S
H646 C621 0.950 . S
H647 C623 0.950 . S
H648 C624 0.949 . S
H649 C626 0.950 . S
H650 C628 0.950 . S
C651 C652 1.349 . S
C651 C653 1.327 1_554 S
C651 H676 0.950 . S
C652 C651 1.349 . S
C652 C668 1.349 . S
C653 C651 1.327 1_556 S
C653 C672 1.429 1_556 S
C653 H677 0.950 . S
C654 C671 1.574 . S
C654 C673 1.368 . S
C654 H678 0.949 1_556 S
H655 C659 0.949 . S
C656 C657 1.349 . S
C656 C658 1.327 . S
C656 H679 0.950 . S
C657 C656 1.349 . S
C657 C669 1.349 . S
C658 C656 1.327 . S
C658 C674 1.429 . S
C658 H680 0.950 . S
C659 H655 0.949 . S
C659 C667 1.574 . S
C659 C675 1.368 . S
H660 C668 0.950 . S
H661 C666 0.950 . S
H662 C667 0.949 . S
H663 C669 0.950 . S
H664 C670 0.950 . S
H665 C671 0.949 . S
C666 H661 0.950 . S
C666 C668 1.327 . S
C666 C672 1.429 . S
C667 C659 1.574 . S
C667 H662 0.949 . S
C667 C673 1.368 . S
C668 C652 1.349 . S
C668 H660 0.950 . S
C668 C666 1.327 . S
C669 C657 1.349 . S
C669 H663 0.950 . S
C669 C670 1.327 . S
C670 H664 0.950 . S
C670 C669 1.327 . S
C670 C674 1.429 . S
C671 C654 1.574 . S
C671 H665 0.949 . S
C671 C675 1.368 . S
C672 C653 1.429 1_554 S
C672 C666 1.429 . S
C672 C673 1.523 1_554 S
C673 C654 1.368 . S
C673 C667 1.368 . S
C673 C672 1.523 1_556 S
C674 C658 1.429 . S
C674 C670 1.429 . S
C674 C675 1.523 . S
C675 C659 1.368 . S
C675 C671 1.368 . S
C675 C674 1.523 . S
H676 C651 0.950 . S
H677 C653 0.950 . S
H678 C654 0.949 1_554 S
H679 C656 0.950 . S
H680 C658 0.950 . S
C681 C682 1.349 1_554 S
C681 C683 1.327 1_554 S
C681 H706 0.950 . S
C682 C681 1.349 1_556 S
C682 C698 1.349 . S
C683 C681 1.327 1_556 S
C683 C702 1.429 . S
C683 H707 0.950 . S
C684 C701 1.574 . S
C684 C703 1.368 . S
C684 H708 0.949 . S
H685 C689 0.949 . S
C686 C687 1.349 . S
C686 C688 1.327 . S
C686 H709 0.950 . S
C687 C686 1.349 . S
C687 C699 1.349 . S
C688 C686 1.327 . S
C688 C704 1.429 . S
C688 H710 0.950 . S
C689 H685 0.949 . S
C689 C697 1.574 . S
C689 C705 1.368 . S
H690 C698 0.950 . S
H691 C696 0.950 . S
H692 C697 0.949 . S
H693 C699 0.950 . S
H694 C700 0.950 . S
H695 C701 0.949 . S
C696 H691 0.950 . S
C696 C698 1.327 . S
C696 C702 1.429 . S
C697 C689 1.574 . S
C697 H692 0.949 . S
C697 C703 1.368 . S
C698 C682 1.349 . S
C698 H690 0.950 . S
C698 C696 1.327 . S
C699 C687 1.349 . S
C699 H693 0.950 . S
C699 C700 1.327 . S
C700 H694 0.950 . S
C700 C699 1.327 . S
C700 C704 1.429 . S
C701 C684 1.574 . S
C701 H695 0.949 . S
C701 C705 1.368 . S
C702 C683 1.429 . S
C702 C696 1.429 . S
C702 C703 1.523 . S
C703 C684 1.368 . S
C703 C697 1.368 . S
C703 C702 1.523 . S
C704 C688 1.429 . S
C704 C700 1.429 . S
C704 C705 1.523 . S
C705 C689 1.368 . S
C705 C701 1.368 . S
C705 C704 1.523 . S
H706 C681 0.950 . S
H707 C683 0.950 . S
H708 C684 0.949 . S
H709 C686 0.950 . S
H710 C688 0.950 . S
C711 C712 1.349 . S
C711 C713 1.327 . S
C711 H736 0.950 . S
C712 C711 1.349 . S
C712 C728 1.349 . S
C713 C711 1.327 . S
C713 C732 1.429 . S
C713 H737 0.950 . S
C714 C731 1.574 . S
C714 C733 1.368 . S
C714 H738 0.949 . S
H715 C719 0.949 . S
C716 C717 1.349 . S
C716 C718 1.327 . S
C716 H739 0.950 . S
C717 C716 1.349 . S
C717 C729 1.349 . S
C718 C716 1.327 . S
C718 C734 1.429 . S
C718 H740 0.950 . S
C719 H715 0.949 . S
C719 C727 1.574 . S
C719 C735 1.368 . S
H720 C728 0.950 1_554 S
H721 C726 0.950 . S
H722 C727 0.949 . S
H723 C729 0.950 . S
H724 C730 0.950 . S
H725 C731 0.949 . S
C726 H721 0.950 . S
C726 C728 1.327 . S
C726 C732 1.429 . S
C727 C719 1.574 . S
C727 H722 0.949 . S
C727 C733 1.368 . S
C728 C712 1.349 . S
C728 H720 0.950 1_556 S
C728 C726 1.327 . S
C729 C717 1.349 . S
C729 H723 0.950 . S
C729 C730 1.327 . S
C730 H724 0.950 . S
C730 C729 1.327 . S
C730 C734 1.429 . S
C731 C714 1.574 . S
C731 H725 0.949 . S
C731 C735 1.368 . S
C732 C713 1.429 . S
C732 C726 1.429 . S
C732 C733 1.523 . S
C733 C714 1.368 . S
C733 C727 1.368 . S
C733 C732 1.523 . S
C734 C718 1.429 . S
C734 C730 1.429 . S
C734 C735 1.523 . S
C735 C719 1.368 . S
C735 C731 1.368 . S
C735 C734 1.523 . S
H736 C711 0.950 . S
H737 C713 0.950 . S
H738 C714 0.949 . S
H739 C716 0.950 . S
H740 C718 0.950 . S
C741 C742 1.349 . S
C741 C743 1.327 . S
C741 H766 0.950 . S
C742 C741 1.349 . S
C742 C758 1.349 . S
C743 C741 1.327 . S
C743 C762 1.429 . S
C743 H767 0.950 . S
C744 C761 1.574 . S
C744 C763 1.368 . S
C744 H768 0.949 . S
H745 C749 0.949 . S
C746 C747 1.349 . S
C746 C748 1.327 . S
C746 H769 0.950 . S
C747 C746 1.349 . S
C747 C759 1.349 . S
C748 C746 1.327 . S
C748 C764 1.429 . S
C748 H770 0.950 . S
C749 H745 0.949 . S
C749 C757 1.574 . S
C749 C765 1.368 . S
H750 C758 0.950 . S
H751 C756 0.950 . S
H752 C757 0.949 . S
H753 C759 0.950 . S
H754 C760 0.950 . S
H755 C761 0.949 . S
C756 H751 0.950 . S
C756 C758 1.327 . S
C756 C762 1.429 . S
C757 C749 1.574 . S
C757 H752 0.949 . S
C757 C763 1.368 . S
C758 C742 1.349 . S
C758 H750 0.950 . S
C758 C756 1.327 . S
C759 C747 1.349 . S
C759 H753 0.950 . S
C759 C760 1.327 . S
C760 H754 0.950 . S
C760 C759 1.327 . S
C760 C764 1.429 . S
C761 C744 1.574 . S
C761 H755 0.949 . S
C761 C765 1.368 . S
C762 C743 1.429 . S
C762 C756 1.429 . S
C762 C763 1.523 . S
C763 C744 1.368 . S
C763 C757 1.368 . S
C763 C762 1.523 . S
C764 C748 1.429 . S
C764 C760 1.429 . S
C764 C765 1.523 . S
C765 C749 1.368 . S
C765 C761 1.368 . S
C765 C764 1.523 . S
H766 C741 0.950 . S
H767 C743 0.950 . S
H768 C744 0.949 . S
H769 C746 0.950 . S
H770 C748 0.950 . S
C771 C772 1.349 . S
C771 C773 1.327 . S
C771 H796 0.950 . S
C772 C771 1.349 . S
C772 C788 1.349 . S
C773 C771 1.327 . S
C773 C792 1.429 . S
C773 H797 0.950 . S
C774 C791 1.574 . S
C774 C793 1.368 . S
C774 H798 0.949 . S
H775 C779 0.949 . S
C776 C777 1.349 . S
C776 C778 1.327 . S
C776 H799 0.950 . S
C777 C776 1.349 . S
C777 C789 1.349 . S
C778 C776 1.327 . S
C778 C794 1.429 . S
C778 H800 0.950 . S
C779 H775 0.949 . S
C779 C787 1.574 . S
C779 C795 1.368 . S
H780 C788 0.950 . S
H781 C786 0.950 . S
H782 C787 0.949 . S
H783 C789 0.950 . S
H784 C790 0.950 . S
H785 C791 0.949 . S
C786 H781 0.950 . S
C786 C788 1.327 . S
C786 C792 1.429 . S
C787 C779 1.574 . S
C787 H782 0.949 . S
C787 C793 1.368 . S
C788 C772 1.349 . S
C788 H780 0.950 . S
C788 C786 1.327 . S
C789 C777 1.349 . S
C789 H783 0.950 . S
C789 C790 1.327 . S
C790 H784 0.950 . S
C790 C789 1.327 . S
C790 C794 1.429 . S
C791 C774 1.574 . S
C791 H785 0.949 . S
C791 C795 1.368 . S
C792 C773 1.429 . S
C792 C786 1.429 . S
C792 C793 1.523 . S
C793 C774 1.368 . S
C793 C787 1.368 . S
C793 C792 1.523 . S
C794 C778 1.429 . S
C794 C790 1.429 . S
C794 C795 1.523 . S
C795 C779 1.368 . S
C795 C791 1.368 . S
C795 C794 1.523 . S
H796 C771 0.950 . S
H797 C773 0.950 . S
H798 C774 0.949 . S
H799 C776 0.950 . S
H800 C778 0.950 . S
C801 C802 1.349 . S
C801 C803 1.327 . S
C801 H826 0.950 . S
C802 C801 1.349 . S
C802 C818 1.349 . S
C803 C801 1.327 . S
C803 C822 1.429 . S
C803 H827 0.950 . S
C804 C821 1.574 . S
C804 C823 1.368 . S
C804 H828 0.949 . S
H805 C809 0.949 . S
C806 C807 1.349 . S
C806 C808 1.327 . S
C806 H829 0.950 . S
C807 C806 1.349 . S
C807 C819 1.349 . S
C808 C806 1.327 . S
C808 C824 1.429 . S
C808 H830 0.950 . S
C809 H805 0.949 . S
C809 C817 1.574 . S
C809 C825 1.368 . S
H810 C818 0.950 . S
H811 C816 0.950 . S
H812 C817 0.949 . S
H813 C819 0.950 . S
H814 C820 0.950 . S
H815 C821 0.949 . S
C816 H811 0.950 . S
C816 C818 1.327 . S
C816 C822 1.429 . S
C817 C809 1.574 . S
C817 H812 0.949 . S
C817 C823 1.368 . S
C818 C802 1.349 . S
C818 H810 0.950 . S
C818 C816 1.327 . S
C819 C807 1.349 . S
C819 H813 0.950 . S
C819 C820 1.327 . S
C820 H814 0.950 . S
C820 C819 1.327 . S
C820 C824 1.429 . S
C821 C804 1.574 . S
C821 H815 0.949 . S
C821 C825 1.368 . S
C822 C803 1.429 . S
C822 C816 1.429 . S
C822 C823 1.523 . S
C823 C804 1.368 . S
C823 C817 1.368 . S
C823 C822 1.523 . S
C824 C808 1.429 . S
C824 C820 1.429 . S
C824 C825 1.523 . S
C825 C809 1.368 . S
C825 C821 1.368 . S
C825 C824 1.523 . S
H826 C801 0.950 . S
H827 C803 0.950 . S
H828 C804 0.949 . S
H829 C806 0.950 . S
H830 C808 0.950 . S
C831 C832 1.349 . S
C831 C833 1.327 . S
C831 H856 0.950 . S
C832 C831 1.349 . S
C832 C848 1.349 . S
C833 C831 1.327 . S
C833 C852 1.429 . S
C833 H857 0.950 . S
C834 C851 1.574 . S
C834 C853 1.368 . S
C834 H858 0.949 . S
H835 C839 0.949 . S
C836 C837 1.349 . S
C836 C838 1.327 . S
C836 H859 0.950 . S
C837 C836 1.349 . S
C837 C849 1.349 . S
C838 C836 1.327 . S
C838 C854 1.429 . S
C838 H860 0.950 . S
C839 H835 0.949 . S
C839 C847 1.574 . S
C839 C855 1.368 . S
H840 C848 0.950 . S
H841 C846 0.950 . S
H842 C847 0.949 . S
H843 C849 0.950 . S
H844 C850 0.950 . S
H845 C851 0.949 . S
C846 H841 0.950 . S
C846 C848 1.327 . S
C846 C852 1.429 . S
C847 C839 1.574 . S
C847 H842 0.949 . S
C847 C853 1.368 . S
C848 C832 1.349 . S
C848 H840 0.950 . S
C848 C846 1.327 . S
C849 C837 1.349 . S
C849 H843 0.950 . S
C849 C850 1.327 . S
C850 H844 0.950 . S
C850 C849 1.327 . S
C850 C854 1.429 . S
C851 C834 1.574 . S
C851 H845 0.949 . S
C851 C855 1.368 . S
C852 C833 1.429 . S
C852 C846 1.429 . S
C852 C853 1.523 . S
C853 C834 1.368 . S
C853 C847 1.368 . S
C853 C852 1.523 . S
C854 C838 1.429 . S
C854 C850 1.429 . S
C854 C855 1.523 . S
C855 C839 1.368 . S
C855 C851 1.368 . S
C855 C854 1.523 . S
H856 C831 0.950 . S
H857 C833 0.950 . S
H858 C834 0.949 . S
H859 C836 0.950 . S
H860 C838 0.950 . S
C861 C862 1.349 . S
C861 C863 1.327 . S
C861 H886 0.950 . S
C862 C861 1.349 . S
C862 C878 1.349 . S
C863 C861 1.327 . S
C863 C882 1.429 . S
C863 H887 0.950 . S
C864 C881 1.574 . S
C864 C883 1.368 . S
C864 H888 0.949 . S
H865 C869 0.949 . S
C866 C867 1.349 . S
C866 C868 1.327 . S
C866 H889 0.950 . S
C867 C866 1.349 . S
C867 C879 1.349 . S
C868 C866 1.327 . S
C868 C884 1.429 . S
C868 H890 0.950 . S
C869 H865 0.949 . S
C869 C877 1.574 . S
C869 C885 1.368 . S
H870 C878 0.950 . S
H871 C876 0.950 . S
H872 C877 0.949 . S
H873 C879 0.950 . S
H874 C880 0.950 . S
H875 C881 0.949 . S
C876 H871 0.950 . S
C876 C878 1.327 . S
C876 C882 1.429 . S
C877 C869 1.574 . S
C877 H872 0.949 . S
C877 C883 1.368 . S
C878 C862 1.349 . S
C878 H870 0.950 . S
C878 C876 1.327 . S
C879 C867 1.349 . S
C879 H873 0.950 . S
C879 C880 1.327 . S
C880 H874 0.950 . S
C880 C879 1.327 . S
C880 C884 1.429 . S
C881 C864 1.574 . S
C881 H875 0.949 . S
C881 C885 1.368 . S
C882 C863 1.429 . S
C882 C876 1.429 . S
C882 C883 1.523 . S
C883 C864 1.368 . S
C883 C877 1.368 . S
C883 C882 1.523 . S
C884 C868 1.429 . S
C884 C880 1.429 . S
C884 C885 1.523 . S
C885 C869 1.368 . S
C885 C881 1.368 . S
C885 C884 1.523 . S
H886 C861 0.950 . S
H887 C863 0.950 . S
H888 C864 0.949 . S
H889 C866 0.950 . S
H890 C868 0.950 . S
C891 C892 1.349 . S
C891 C893 1.327 . S
C891 H916 0.950 . S
C892 C891 1.349 . S
C892 C908 1.349 . S
C893 C891 1.327 . S
C893 C912 1.429 . S
C893 H917 0.950 . S
C894 C911 1.574 . S
C894 C913 1.368 . S
C894 H918 0.949 . S
H895 C899 0.949 . S
C896 C897 1.349 . S
C896 C898 1.327 . S
C896 H919 0.950 . S
C897 C896 1.349 . S
C897 C909 1.349 . S
C898 C896 1.327 . S
C898 C914 1.429 . S
C898 H920 0.950 . S
C899 H895 0.949 . S
C899 C907 1.574 . S
C899 C915 1.368 . S
H900 C908 0.950 . S
H901 C906 0.950 . S
H902 C907 0.949 . S
H903 C909 0.950 . S
H904 C910 0.950 . S
H905 C911 0.949 . S
C906 H901 0.950 . S
C906 C908 1.327 . S
C906 C912 1.429 . S
C907 C899 1.574 . S
C907 H902 0.949 . S
C907 C913 1.368 . S
C908 C892 1.349 . S
C908 H900 0.950 . S
C908 C906 1.327 . S
C909 C897 1.349 . S
C909 H903 0.950 . S
C909 C910 1.327 . S
C910 H904 0.950 . S
C910 C909 1.327 . S
C910 C914 1.429 . S
C911 C894 1.574 . S
C911 H905 0.949 . S
C911 C915 1.368 . S
C912 C893 1.429 . S
C912 C906 1.429 . S
C912 C913 1.523 . S
C913 C894 1.368 . S
C913 C907 1.368 . S
C913 C912 1.523 . S
C914 C898 1.429 . S
C914 C910 1.429 . S
C914 C915 1.523 . S
C915 C899 1.368 . S
C915 C911 1.368 . S
C915 C914 1.523 . S
H916 C891 0.950 . S
H917 C893 0.950 . S
H918 C894 0.949 . S
H919 C896 0.950 . S
H920 C898 0.950 . S
C202 C16 1.712 . S
C207 C108 1.724 . S
C232 C26 1.581 . S
C237 C140 1.611 . S
C267 C199 1.987 . S
C262 C52 1.969 . S
C297 C128 1.487 . S
C292 C62 1.480 . S
C322 C80 1.623 . S
C327 C158 1.588 . S
C357 C180 1.227 . S
C352 C98 1.194 . S
C387 C149 1.714 . S
C382 C43 1.663 . S
C412 C68 1.272 . S
C417 C189 1.272 . S
C447 C138 1.579 . S
C442 C86 1.567 1_556 S
C472 C104 1.564 . S
C477 C168 1.567 . S
C502 C7 1.899 . S
C507 C171 1.913 . S
C537 C110 1.689 . S
C532 C32 1.659 1_556 S
C567 C118 1.630 . S
C562 C61 1.612 . S
C597 C159 1.574 . S
C592 C79 1.555 . S
C627 C172 1.982 . S
C622 C97 1.987 . S
C657 C109 1.497 . S
C652 C14 1.494 . S
C687 C169 1.519 . S
C682 C25 1.523 1_556 S
C712 C50 1.190 . S
C717 C170 1.199 . S
C747 C139 1.619 . S
C742 C106 1.630 . S
C777 C200 1.195 . S
C772 C8 1.179 . S
C807 C127 1.514 . S
C802 C34 1.547 . S
C837 C141 1.577 . S
C832 C44 1.578 . S
C862 C70 1.893 . S
C867 C190 1.883 . S
C892 C88 1.650 . S
C897 C137 1.666 . S
