# Generated by pormake.
# Topology pts, (4,4)-cn, num edge types: 1
# Building blocks:
#     Node 0, Type 0, BuildingBlock: KUFVIS_clean_linker_0, # of connection points: 4
#     Node 1, Type 0, BuildingBlock: KUFVIS_clean_linker_0, # of connection points: 4
#     Node 2, Type 1, BuildingBlock: QUQFOY_clean_sbu_1, # of connection points: 4
#     Node 3, Type 1, BuildingBlock: QUQFOY_clean_sbu_1, # of connection points: 4
#     Edge 4, Type (0, 1), BuildingBlock: FUNLAD_clean_linker_1, # of connection points: 2
#     Edge 5, Type (0, 1), BuildingBlock: FUNLAD_clean_linker_1, # of connection points: 2
#     Edge 6, Type (0, 1), BuildingBlock: FUNLAD_clean_linker_1, # of connection points: 2
#     Edge 7, Type (0, 1), BuildingBlock: FUNLAD_clean_linker_1, # of connection points: 2
#     Edge 8, Type (0, 1), BuildingBlock: FUNLAD_clean_linker_1, # of connection points: 2
#     Edge 9, Type (0, 1), BuildingBlock: FUNLAD_clean_linker_1, # of connection points: 2
#     Edge 10, Type (0, 1), BuildingBlock: FUNLAD_clean_linker_1, # of connection points: 2
#     Edge 11, Type (0, 1), BuildingBlock: FUNLAD_clean_linker_1, # of connection points: 2
# Relax obj value: 0.103
# Max RMSD: 0.274
# Mean RMSD: 0.186
data_MOF--net-pts--node1-QUQFOY_clean_sbu_1--node2-KUFVIS_clean_linker_0--edge1-FUNLAD_clean_linker_1
_symmetry_space_group_name_H-M    P1
_symmetry_Int_Tables_number       1
_symmetry_cell_setting            triclinic
loop_
_symmetry_equiv_pos_as_xyz
'x, y, z'
_cell_length_a     24.733107
_cell_length_b     27.3254
_cell_length_c     38.800233
_cell_angle_alpha  90.404271
_cell_angle_beta   90.114342
_cell_angle_gamma 91.23775
loop_
_atom_site_label
_atom_site_type_symbol
_atom_site_fract_x
_atom_site_fract_y
_atom_site_fract_z
_atom_type_partial_charge
H0 H 0.32918 1.0243 -0.01424 0.0
H1 H 0.4778 0.04467 0.9309 0.0
H2 H 0.47949 1.01502 0.04002 0.0
H3 H 0.55551 0.05835 0.03849 0.0
H4 H 0.70432 0.04676 -0.01521 0.0
H5 H 0.55638 1.00783 0.93251 0.0
C6 C 0.37308 1.02574 -0.01432 0.0
C7 C 0.40102 1.02127 0.01678 0.0
C8 C 0.40026 0.03232 0.95448 0.0
C9 C 0.45703 0.03601 0.9546 0.0
C10 C 0.48674 0.03002 -0.01456 0.0
C11 C 0.45788 1.0217 0.0164 0.0
C12 C 0.54748 0.03307 -0.01464 0.0
C13 C 0.57646 0.04807 0.01517 0.0
C14 C 0.63307 0.04985 0.01538 0.0
C15 C 0.66111 0.04089 -0.01528 0.0
C16 C 0.63375 1.02604 0.95452 0.0
C17 C 0.5771 1.02111 0.95543 0.0
H18 H 0.99496 0.70074 0.48558 0.0
H19 H 0.97812 0.56469 0.53797 0.0
H20 H 1.01072 0.56752 0.42827 0.0
H21 H 0.96793 0.49663 0.4277 0.0
H22 H 0.98299 0.36024 0.47899 0.0
H23 H 1.0155 0.49301 0.53534 0.0
C24 C 0.99741 0.66127 0.48497 0.0
C25 C 1.00456 0.63697 0.45345 0.0
C26 C 0.99064 0.6352 0.51565 0.0
C27 C 0.9869 0.58394 0.51431 0.0
C28 C 0.9941 0.55811 0.48295 0.0
C29 C 1.00361 0.58559 0.45268 0.0
C30 C 0.99127 0.503 0.48188 0.0
C31 C 0.97734 0.47741 0.45114 0.0
C32 C 0.97472 0.42614 0.45045 0.0
C33 C 0.98381 0.39987 0.48046 0.0
C34 C 0.99696 0.42396 0.51142 0.0
C35 C 1.00238 0.47523 0.51168 0.0
O36 O 0.95851 0.99931 0.2094 0.0
Cd37 Cd 0.02464 0.98929 0.24127 0.0
Cd38 Cd 0.03462 0.09442 0.22906 0.0
O39 O 0.96519 0.07932 0.20134 0.0
O40 O 1.01913 0.9186 0.25328 0.0
O41 O 1.01476 0.9779 0.29219 0.0
C42 C 1.01488 0.93169 0.28507 0.0
C43 C 0.03276 0.16427 0.26377 0.0
C44 C 0.94084 0.03845 0.19642 0.0
C45 C 0.12828 0.03072 0.20978 0.0
O46 O 0.10826 0.07317 0.2095 0.0
O47 O 0.10202 0.99435 0.22183 0.0
O48 O 0.04009 0.16727 0.23102 0.0
O49 O 0.02734 0.1213 0.27721 0.0
O50 O 0.96565 0.07418 0.76483 0.0
Cd51 Cd 0.0293 0.08075 0.73041 0.0
Cd52 Cd 0.02715 0.97964 0.7368 0.0
O53 O 0.95808 0.99348 0.76434 0.0
O54 O 0.02981 0.1505 0.71601 0.0
O55 O 1.0141 0.08878 0.67982 0.0
C56 C 1.01959 0.13532 0.68512 0.0
C57 C 1.02004 0.92162 0.69291 0.0
C58 C 0.94124 0.03498 0.7739 0.0
C59 C 0.12812 0.03316 0.75949 0.0
O60 O 0.1019 0.99262 0.75964 0.0
O61 O 0.10729 0.07138 0.74735 0.0
O62 O 0.02246 0.90874 0.72479 0.0
O63 O 0.02231 0.96774 0.68583 0.0
H64 H 0.3243 1.01392 0.04497 0.0
C65 C 0.36792 1.01705 0.04861 0.0
H66 H 0.42902 1.02612 0.08674 0.0
H67 H 0.25986 0.12513 0.18731 0.0
H68 H 0.33206 0.18646 0.1843 0.0
H69 H 0.41133 0.17396 0.14703 0.0
H70 H 0.41932 0.09978 0.11296 0.0
C71 C 0.38638 1.02049 0.08122 0.0
C72 C 0.34641 1.02295 0.10997 0.0
C73 C 0.34261 0.06643 0.12984 0.0
C74 C 0.29629 0.07408 0.15076 0.0
C75 C 0.29361 0.1178 0.17047 0.0
C76 C 0.33485 0.15325 0.16907 0.0
C77 C 0.3795 0.1462 0.14811 0.0
C78 C 0.38352 0.10343 0.12862 0.0
H79 H 0.20294 0.98939 0.20224 0.0
C80 C 0.18191 1.0222 0.19475 0.0
H81 H 0.18129 0.08319 0.16186 0.0
H82 H 0.3498 0.93009 0.08404 0.0
H83 H 0.27695 0.86888 0.08517 0.0
H84 H 0.19057 0.88646 0.11395 0.0
H85 H 0.17728 0.96388 0.14275 0.0
C86 C 0.20221 0.05039 0.16949 0.0
C87 C 0.25341 0.03872 0.15121 0.0
C88 C 0.25862 0.99403 0.13258 0.0
C89 C 0.30652 0.9853 0.11353 0.0
C90 C 0.31286 0.93921 0.09732 0.0
C91 C 0.27159 0.90379 0.09793 0.0
C92 C 0.22312 0.91359 0.1143 0.0
C93 C 0.21633 0.95817 0.13124 0.0
H94 H 0.03503 0.41147 0.56249 0.0
C95 C 1.00774 0.39569 0.54321 0.0
H96 H 0.95573 0.33538 0.53074 0.0
H97 H 0.09829 0.18778 0.61506 0.0
H98 H 0.14118 0.1788 0.55933 0.0
H99 H 0.11956 0.2341 0.51148 0.0
H100 H 0.05559 0.2993 0.51933 0.0
C101 C 0.98475 0.35137 0.5488 0.0
C102 C 1.00015 0.32055 0.57837 0.0
C103 C 0.03661 0.28195 0.5731 0.0
C104 C 0.04772 0.2491 0.60034 0.0
C105 C 0.08649 0.21245 0.59487 0.0
C106 C 0.11185 0.20718 0.56306 0.0
C107 C 0.09977 0.23837 0.53615 0.0
C108 C 0.06282 0.27553 0.54099 0.0
H109 H 0.99856 0.15679 0.63203 0.0
C110 C 1.0142 0.17024 0.65661 0.0
H111 H 0.0438 0.23134 0.68502 0.0
H112 H 0.93051 0.39233 0.59712 0.0
H113 H 0.88759 0.40191 0.65289 0.0
H114 H 0.90469 0.34378 0.69983 0.0
H115 H 0.96472 0.27585 0.69138 0.0
C116 C 0.02864 0.21775 0.66037 0.0
C117 C 1.02065 0.25393 0.63239 0.0
C118 C 0.98562 0.2937 0.63797 0.0
C119 C 0.97547 0.32711 0.61089 0.0
C120 C 0.93968 0.366 0.61687 0.0
C121 C 0.91474 0.3719 0.64874 0.0
C122 C 0.9244 0.33919 0.67517 0.0
C123 C 0.95917 0.30039 0.66997 0.0
H124 H 0.64569 0.08718 0.0661 0.0
C125 C 0.6631 0.06191 0.04766 0.0
H126 H 0.72784 1.0149 0.03691 0.0
H127 H 0.91099 0.12717 0.11573 0.0
H128 H 0.92491 0.16113 0.05886 0.0
H129 H 0.85671 0.14844 0.013 0.0
H130 H 0.77417 0.10149 0.0238 0.0
C131 C 0.71085 0.04142 0.0546 0.0
C132 C 0.74552 0.05682 0.08413 0.0
C133 C 0.79291 0.08531 0.0777 0.0
C134 C 0.83181 0.09315 0.10427 0.0
C135 C 0.87963 0.1205 0.09671 0.0
C136 C 0.88823 0.14018 0.0641 0.0
C137 C 0.84989 0.13298 0.03827 0.0
C138 C 0.80277 0.10583 0.0448 0.0
H139 H 0.87774 0.99971 0.16583 0.0
C140 C 0.89234 0.03567 0.17426 0.0
H141 H 0.88168 0.112 0.17148 0.0
H142 H 0.65725 1.00312 0.10542 0.0
H143 H 0.64028 0.97343 0.16332 0.0
H144 H 0.70564 0.99049 0.21025 0.0
H145 H 0.78878 0.03672 0.19944 0.0
C146 C 0.867 0.07588 0.16353 0.0
C147 C 0.82306 0.07252 0.13728 0.0
C148 C 0.77369 0.04716 0.14441 0.0
C149 C 0.73518 0.03867 0.11763 0.0
C150 C 0.6874 1.0113 0.12498 0.0
C151 C 0.67718 0.99405 0.15809 0.0
C152 C 0.71404 1.00357 0.18449 0.0
C153 C 0.76177 0.02984 0.1779 0.0
H154 H 0.96178 0.6451 0.56954 0.0
C155 C 0.98589 0.66157 0.54911 0.0
H156 H 0.03879 0.72036 0.53568 0.0
H157 H 0.9152 0.85896 0.64203 0.0
H158 H 0.84835 0.86283 0.59635 0.0
H159 H 0.85287 0.80796 0.54571 0.0
H160 H 0.92379 0.74831 0.54076 0.0
C161 C 1.01177 0.70469 0.55488 0.0
C162 C 1.00512 0.73331 0.58714 0.0
C163 C 0.96396 0.76842 0.58935 0.0
C164 C 0.96241 0.80111 0.61798 0.0
C165 C 0.9196 0.83457 0.62019 0.0
C166 C 0.88067 0.83689 0.59429 0.0
C167 C 0.88314 0.80593 0.56581 0.0
C168 C 0.92412 0.77193 0.56326 0.0
H169 H 1.01843 0.8969 0.63863 0.0
C170 C 1.01491 0.88471 0.66515 0.0
H171 H 1.00289 0.82446 0.6983 0.0
H172 H 0.0858 0.66704 0.59203 0.0
H173 H 0.15231 0.66218 0.63798 0.0
H174 H 0.15145 0.7202 0.68697 0.0
H175 H 0.08423 0.78331 0.69042 0.0
C176 C 1.00568 0.837 0.67183 0.0
C177 C 1.0032 0.7996 0.64373 0.0
C178 C 0.04262 0.76266 0.64239 0.0
C179 C 0.0435 0.72945 0.61402 0.0
C180 C 0.08366 0.69334 0.61295 0.0
C181 C 0.12197 0.6901 0.63915 0.0
C182 C 0.12144 0.72275 0.66675 0.0
C183 C 0.08249 0.75877 0.66844 0.0
H184 H 0.32319 0.03943 0.92679 0.0
C185 C 0.36653 0.03589 0.92291 0.0
H186 H 0.42636 1.02522 0.88463 0.0
H187 H 0.24774 0.93029 0.78477 0.0
H188 H 0.31366 0.8661 0.78882 0.0
H189 H 0.39371 0.87596 0.82646 0.0
H190 H 0.40878 0.95034 0.85988 0.0
C191 C 0.3842 0.03174 0.89026 0.0
C192 C 0.34368 0.0301 0.86167 0.0
C193 C 0.33569 0.98649 0.84219 0.0
C194 C 0.28892 0.98042 0.82102 0.0
C195 C 0.28203 0.93653 0.80172 0.0
C196 C 0.31963 0.89942 0.80373 0.0
C197 C 0.36473 0.90499 0.8249 0.0
C198 C 0.37284 0.94788 0.84401 0.0
H199 H 0.20782 0.06881 0.76777 0.0
C200 C 0.18241 0.03757 0.77498 0.0
H201 H 0.17298 0.97723 0.80812 0.0
H202 H 0.35551 0.12292 0.88733 0.0
H203 H 0.28864 0.18679 0.88539 0.0
H204 H 0.20112 0.17234 0.85601 0.0
H205 H 0.18084 0.0953 0.82744 0.0
C206 C 0.19821 1.00842 0.80062 0.0
C207 C 0.24976 1.01759 0.81987 0.0
C208 C 0.25902 0.06213 0.83839 0.0
C209 C 0.30742 0.06915 0.85776 0.0
C210 C 0.31793 0.11507 0.87383 0.0
C211 C 0.28013 0.15203 0.87274 0.0
C212 C 0.23102 0.14398 0.85604 0.0
C213 C 0.22022 0.0996 0.83924 0.0
H214 H 0.93099 0.37297 0.41739 0.0
C215 C 0.9657 0.39806 0.41836 0.0
H216 H 0.04428 0.41262 0.40005 0.0
H217 H 0.081 0.19083 0.36415 0.0
H218 H 0.13617 0.20197 0.41542 0.0
H219 H 0.1334 0.27861 0.44927 0.0
H220 H 0.07605 0.34476 0.43185 0.0
C221 C 1.00704 0.3912 0.39667 0.0
C222 C 1.00893 0.34573 0.37544 0.0
C223 C 0.04274 0.30729 0.38606 0.0
C224 C 0.04351 0.26271 0.36696 0.0
C225 C 0.07817 0.22521 0.37795 0.0
C226 C 0.11016 0.23112 0.40733 0.0
C227 C 0.10867 0.27429 0.42636 0.0
C228 C 0.07555 0.31205 0.41597 0.0
H229 H 0.04153 0.24378 0.27232 0.0
C230 C 0.03017 0.20943 0.28461 0.0
H231 H 1.00137 0.17581 0.32999 0.0
H232 H 0.94125 0.41266 0.34766 0.0
H233 H 0.88139 0.39981 0.29858 0.0
H234 H 0.87803 0.32058 0.26767 0.0
H235 H 0.93498 0.25409 0.28523 0.0
C236 C 1.01227 0.20989 0.31723 0.0
C237 C 1.01012 0.25641 0.33745 0.0
C238 C 0.97508 0.29438 0.32744 0.0
C239 C 0.97532 0.33942 0.3461 0.0
C240 C 0.94154 0.37734 0.33489 0.0
C241 C 0.90713 0.37049 0.30673 0.0
C242 C 0.90538 0.32594 0.28926 0.0
C243 C 0.9387 0.28817 0.29943 0.0
H244 H 0.63847 1.00955 0.8984 0.0
C245 C 0.6627 1.01666 0.92139 0.0
H246 H 0.74328 1.02146 0.94039 0.0
H247 H 0.87874 0.91975 0.83096 0.0
H248 H 0.87589 0.85775 0.87515 0.0
H249 H 0.81229 0.86338 0.92383 0.0
H250 H 0.7515 0.93157 0.92871 0.0
C251 C 0.71699 1.01755 0.9182 0.0
C252 C 0.74514 1.00919 0.88491 0.0
C253 C 0.77904 0.96826 0.88167 0.0
C254 C 0.81472 0.96445 0.85315 0.0
C255 C 0.84996 0.92425 0.85161 0.0
C256 C 0.84888 0.88832 0.8769 0.0
C257 C 0.81317 0.89153 0.90434 0.0
C258 C 0.77866 0.93097 0.90688 0.0
H259 H 0.8898 0.07107 0.81236 0.0
C260 C 0.89434 0.03787 0.79713 0.0
H261 H 0.8628 0.96755 0.78504 0.0
H262 H 0.68516 0.09273 0.8827 0.0
H263 H 0.68133 0.15025 0.83568 0.0
H264 H 0.73601 0.13855 0.78327 0.0
H265 H 0.79614 0.06983 0.77817 0.0
C266 C 0.85832 1.00059 0.80042 0.0
C267 C 0.81558 1.00119 0.82748 0.0
C268 C 0.77776 0.0395 0.82898 0.0
C269 C 0.74375 0.04449 0.85828 0.0
C270 C 0.71009 0.08569 0.86048 0.0
C271 C 0.70768 0.11924 0.83368 0.0
C272 C 0.73863 0.11277 0.80424 0.0
C273 C 0.77331 0.07344 0.80177 0.0
H274 H 0.99399 0.64814 0.39719 0.0
C275 C 1.00917 0.66506 0.42085 0.0
H276 H 0.04784 0.72796 0.44262 0.0
H277 H 0.11891 0.82726 0.30399 0.0
H278 H 0.20371 0.79051 0.31998 0.0
H279 H 0.20761 0.73111 0.36748 0.0
H280 H 0.12663 0.70811 0.39932 0.0
C281 C 0.02877 0.71139 0.42004 0.0
C282 C 0.02494 0.74243 0.38892 0.0
C283 C 0.07239 0.75501 0.37034 0.0
C284 C 0.07002 0.78894 0.34279 0.0
C285 C 0.11827 0.80138 0.32497 0.0
C286 C 0.16725 0.78061 0.33391 0.0
C287 C 0.16946 0.7472 0.36068 0.0
C288 C 0.12273 0.73442 0.37878 0.0
H289 H 1.00604 0.90723 0.33902 0.0
C290 C 1.01189 0.89486 0.31263 0.0
H291 H 0.0267 0.83447 0.27985 0.0
H292 H 0.92638 0.72762 0.42007 0.0
H293 H 0.84124 0.7622 0.40281 0.0
H294 H 0.83647 0.81796 0.35323 0.0
H295 H 0.91716 0.84006 0.32094 0.0
C296 C 1.01848 0.84699 0.30593 0.0
C297 C 1.02016 0.81031 0.33399 0.0
C298 C 0.97233 0.79655 0.35185 0.0
C299 C 0.97482 0.76309 0.3797 0.0
C300 C 0.92679 0.75175 0.39811 0.0
C301 C 0.87756 0.77151 0.38856 0.0
C302 C 0.8749 0.803 0.3607 0.0
C303 C 0.92158 0.81553 0.34248 0.0
loop_
_geom_bond_atom_site_label_1
_geom_bond_atom_site_label_2
_geom_bond_distance
_geom_bond_site_symmetry_2
_ccdc_geom_bond_type
H0 C6 0.931 . S
H1 C9 0.931 . S
H2 C11 0.931 1_565 S
H3 C13 0.930 . S
H4 C15 0.930 . S
H5 C17 0.931 1_565 S
C6 H0 0.931 . S
C6 C7 1.380 . S
C6 C8 1.394 1_554 S
C7 C6 1.380 . S
C7 C11 1.382 . S
C8 C6 1.394 1_556 S
C8 C9 1.400 . S
C9 H1 0.931 . S
C9 C8 1.400 . S
C9 C10 1.375 1_556 S
C10 C9 1.375 1_554 S
C10 C11 1.415 . S
C10 C12 1.501 . S
C11 H2 0.931 1_545 S
C11 C7 1.382 . S
C11 C10 1.415 . S
C12 C10 1.501 . S
C12 C13 1.384 . S
C12 C17 1.408 1_554 S
C13 H3 0.930 . S
C13 C12 1.384 . S
C13 C14 1.389 . S
C14 C13 1.389 . S
C14 C15 1.405 . S
C15 H4 0.930 . S
C15 C14 1.405 . S
C15 C16 1.364 1_554 S
C16 C15 1.364 1_556 S
C16 C17 1.400 . S
C17 H5 0.931 1_545 S
C17 C12 1.408 1_556 S
C17 C16 1.400 . S
H18 C24 0.930 . S
H19 C27 0.931 . S
H20 C29 0.931 . S
H21 C31 0.930 . S
H22 C33 0.930 . S
H23 C35 0.931 . S
C24 H18 0.930 . S
C24 C25 1.380 . S
C24 C26 1.394 1_455 S
C25 C24 1.380 . S
C25 C29 1.382 . S
C26 C24 1.394 1_655 S
C26 C27 1.400 . S
C27 H19 0.931 . S
C27 C26 1.400 . S
C27 C28 1.375 . S
C28 C27 1.375 . S
C28 C29 1.415 1_655 S
C28 C30 1.501 . S
C29 H20 0.931 . S
C29 C25 1.382 . S
C29 C28 1.415 1_455 S
C30 C28 1.501 . S
C30 C31 1.384 . S
C30 C35 1.408 1_655 S
C31 H21 0.930 . S
C31 C30 1.384 . S
C31 C32 1.389 . S
C32 C31 1.389 . S
C32 C33 1.405 . S
C33 H22 0.930 . S
C33 C32 1.405 . S
C33 C34 1.364 1_655 S
C34 C33 1.364 1_455 S
C34 C35 1.400 . S
C35 H23 0.931 . S
C35 C30 1.408 1_455 S
C35 C34 1.400 . S
O36 Cd37 2.223 1_655 S
O36 C44 1.315 . S
Cd37 O36 2.223 1_455 S
Cd37 O40 2.297 1_455 S
Cd37 O41 2.439 1_455 S
Cd37 O47 2.240 1_565 S
Cd38 O39 2.240 1_545 S
Cd38 O46 2.223 1_655 S
Cd38 O48 2.297 1_655 S
Cd38 O49 2.439 1_655 S
O39 Cd38 2.240 1_565 S
O39 C44 1.279 . S
O40 Cd37 2.297 1_655 S
O40 C42 1.247 . S
O41 Cd37 2.439 1_655 S
O41 C42 1.208 . S
C42 O40 1.247 . S
C42 O41 1.208 . S
C43 O48 1.247 . S
C43 O49 1.208 . S
C44 O36 1.315 . S
C44 O39 1.279 . S
C45 O46 1.315 . S
C45 O47 1.279 . S
O46 Cd38 2.223 1_455 S
O46 C45 1.315 . S
O47 Cd37 2.240 1_545 S
O47 C45 1.279 . S
O48 Cd38 2.297 1_455 S
O48 C43 1.247 . S
O49 Cd38 2.439 1_455 S
O49 C43 1.208 . S
O50 Cd51 2.223 1_655 S
O50 C58 1.315 . S
Cd51 O50 2.223 1_455 S
Cd51 O54 2.297 1_455 S
Cd51 O55 2.439 1_455 S
Cd51 O61 2.240 1_545 S
Cd52 O53 2.240 1_565 S
Cd52 O60 2.223 1_655 S
Cd52 O62 2.297 1_655 S
Cd52 O63 2.439 1_655 S
O53 Cd52 2.240 1_545 S
O53 C58 1.279 . S
O54 Cd51 2.297 1_655 S
O54 C56 1.247 . S
O55 Cd51 2.439 1_655 S
O55 C56 1.208 . S
C56 O54 1.247 . S
C56 O55 1.208 . S
C57 O62 1.247 . S
C57 O63 1.208 . S
C58 O50 1.315 . S
C58 O53 1.279 . S
C59 O60 1.315 . S
C59 O61 1.279 . S
O60 Cd52 2.223 1_455 S
O60 C59 1.315 . S
O61 Cd51 2.240 1_565 S
O61 C59 1.279 . S
O62 Cd52 2.297 1_455 S
O62 C57 1.247 . S
O63 Cd52 2.439 1_455 S
O63 C57 1.208 . S
H64 C65 0.950 1_565 S
C65 H64 0.950 1_545 S
C65 C71 1.267 . S
H66 C71 0.950 . S
H67 C75 0.949 . S
H68 C76 0.950 . S
H69 C77 0.951 . S
H70 C78 0.951 . S
C71 C65 1.267 . S
C71 H66 0.950 . S
C71 C72 1.478 . S
C72 C71 1.478 . S
C72 C73 1.397 . S
C72 C89 1.394 1_545 S
C73 C72 1.397 . S
C73 C74 1.438 . S
C73 C78 1.429 . S
C74 C73 1.438 . S
C74 C75 1.428 . S
C74 C87 1.394 . S
C75 H67 0.949 . S
C75 C74 1.428 . S
C75 C76 1.345 . S
C76 H68 0.950 . S
C76 C75 1.345 . S
C76 C77 1.424 . S
C77 H69 0.951 . S
C77 C76 1.424 . S
C77 C78 1.347 . S
C78 H70 0.951 . S
C78 C73 1.429 . S
C78 C77 1.347 . S
H79 C80 0.951 . S
C80 H79 0.951 . S
C80 C86 1.265 . S
H81 C86 0.950 . S
H82 C90 0.949 . S
H83 C91 0.950 . S
H84 C92 0.951 . S
H85 C93 0.951 . S
C86 C80 1.265 . S
C86 H81 0.950 . S
C86 C87 1.478 . S
C87 C74 1.394 . S
C87 C86 1.478 . S
C87 C88 1.397 1_545 S
C88 C87 1.397 1_565 S
C88 C89 1.438 . S
C88 C93 1.429 . S
C89 C72 1.394 1_565 S
C89 C88 1.438 . S
C89 C90 1.428 . S
C90 H82 0.949 . S
C90 C89 1.428 . S
C90 C91 1.345 . S
C91 H83 0.950 . S
C91 C90 1.345 . S
C91 C92 1.424 . S
C92 H84 0.951 . S
C92 C91 1.424 . S
C92 C93 1.347 . S
C93 H85 0.951 . S
C93 C88 1.429 . S
C93 C92 1.347 . S
H94 C95 0.951 . S
C95 H94 0.951 . S
C95 C101 1.265 1_455 S
H96 C101 0.950 . S
H97 C105 0.949 . S
H98 C106 0.950 . S
H99 C107 0.951 . S
H100 C108 0.951 . S
C101 C95 1.265 1_655 S
C101 H96 0.950 . S
C101 C102 1.478 . S
C102 C101 1.478 . S
C102 C103 1.397 . S
C102 C119 1.394 1_655 S
C103 C102 1.397 . S
C103 C104 1.438 . S
C103 C108 1.429 . S
C104 C103 1.438 . S
C104 C105 1.428 . S
C104 C117 1.394 . S
C105 H97 0.949 . S
C105 C104 1.428 . S
C105 C106 1.345 . S
C106 H98 0.950 . S
C106 C105 1.345 . S
C106 C107 1.424 . S
C107 H99 0.951 . S
C107 C106 1.424 . S
C107 C108 1.347 . S
C108 H100 0.951 . S
C108 C103 1.429 . S
C108 C107 1.347 . S
H109 C110 0.951 . S
C110 H109 0.951 . S
C110 C116 1.265 . S
H111 C116 0.950 1_455 S
H112 C120 0.949 . S
H113 C121 0.950 . S
H114 C122 0.951 . S
H115 C123 0.951 . S
C116 C110 1.265 . S
C116 H111 0.950 1_655 S
C116 C117 1.478 . S
C117 C104 1.394 . S
C117 C116 1.478 . S
C117 C118 1.397 1_655 S
C118 C117 1.397 1_455 S
C118 C119 1.438 . S
C118 C123 1.429 . S
C119 C102 1.394 1_455 S
C119 C118 1.438 . S
C119 C120 1.428 . S
C120 H112 0.949 . S
C120 C119 1.428 . S
C120 C121 1.345 . S
C121 H113 0.950 . S
C121 C120 1.345 . S
C121 C122 1.424 . S
C122 H114 0.951 . S
C122 C121 1.424 . S
C122 C123 1.347 . S
C123 H115 0.951 . S
C123 C118 1.429 . S
C123 C122 1.347 . S
H124 C125 0.951 . S
C125 H124 0.951 . S
C125 C131 1.265 . S
H126 C131 0.950 . S
H127 C135 0.949 . S
H128 C136 0.950 . S
H129 C137 0.951 . S
H130 C138 0.951 . S
C131 C125 1.265 . S
C131 H126 0.950 . S
C131 C132 1.476 1_545 S
C132 C131 1.476 1_565 S
C132 C133 1.381 1_565 S
C132 C149 1.411 . S
C133 C132 1.381 1_545 S
C133 C134 1.438 . S
C133 C138 1.429 . S
C134 C133 1.438 . S
C134 C135 1.428 . S
C134 C147 1.394 1_545 S
C135 H127 0.949 . S
C135 C134 1.428 . S
C135 C136 1.345 . S
C136 H128 0.950 . S
C136 C135 1.345 . S
C136 C137 1.424 . S
C137 H129 0.951 . S
C137 C136 1.424 . S
C137 C138 1.347 . S
C138 H130 0.951 . S
C138 C133 1.429 . S
C138 C137 1.347 . S
H139 C140 0.951 . S
C140 H139 0.951 . S
C140 C146 1.265 . S
H141 C146 0.950 . S
H142 C150 0.949 . S
H143 C151 0.950 . S
H144 C152 0.951 . S
H145 C153 0.951 . S
C146 C140 1.265 . S
C146 H141 0.950 . S
C146 C147 1.478 . S
C147 C134 1.394 1_565 S
C147 C146 1.478 . S
C147 C148 1.397 . S
C148 C147 1.397 . S
C148 C149 1.438 . S
C148 C153 1.429 . S
C149 C132 1.411 . S
C149 C148 1.438 . S
C149 C150 1.428 . S
C150 H142 0.949 . S
C150 C149 1.428 . S
C150 C151 1.345 . S
C151 H143 0.950 . S
C151 C150 1.345 . S
C151 C152 1.424 . S
C152 H144 0.951 . S
C152 C151 1.424 . S
C152 C153 1.347 . S
C153 H145 0.951 . S
C153 C148 1.429 . S
C153 C152 1.347 . S
H154 C155 0.951 . S
C155 H154 0.951 . S
C155 C161 1.265 1_655 S
H156 C161 0.950 . S
H157 C165 0.949 . S
H158 C166 0.950 . S
H159 C167 0.951 . S
H160 C168 0.951 . S
C161 C155 1.265 1_455 S
C161 H156 0.950 . S
C161 C162 1.478 . S
C162 C161 1.478 . S
C162 C163 1.397 . S
C162 C179 1.394 1_455 S
C163 C162 1.397 . S
C163 C164 1.438 . S
C163 C168 1.429 . S
C164 C163 1.438 . S
C164 C165 1.428 . S
C164 C177 1.394 . S
C165 H157 0.949 . S
C165 C164 1.428 . S
C165 C166 1.345 . S
C166 H158 0.950 . S
C166 C165 1.345 . S
C166 C167 1.424 . S
C167 H159 0.951 . S
C167 C166 1.424 . S
C167 C168 1.347 . S
C168 H160 0.951 . S
C168 C163 1.429 . S
C168 C167 1.347 . S
H169 C170 0.951 . S
C170 H169 0.951 . S
C170 C176 1.265 . S
H171 C176 0.950 1_655 S
H172 C180 0.949 . S
H173 C181 0.950 . S
H174 C182 0.951 . S
H175 C183 0.951 . S
C176 C170 1.265 . S
C176 H171 0.950 1_455 S
C176 C177 1.478 . S
C177 C164 1.394 . S
C177 C176 1.478 . S
C177 C178 1.397 1_455 S
C178 C177 1.397 1_655 S
C178 C179 1.438 . S
C178 C183 1.429 . S
C179 C162 1.394 1_655 S
C179 C178 1.438 . S
C179 C180 1.428 . S
C180 H172 0.949 . S
C180 C179 1.428 . S
C180 C181 1.345 . S
C181 H173 0.950 . S
C181 C180 1.345 . S
C181 C182 1.424 . S
C182 H174 0.951 . S
C182 C181 1.424 . S
C182 C183 1.347 . S
C183 H175 0.951 . S
C183 C178 1.429 . S
C183 C182 1.347 . S
H184 C185 0.951 . S
C185 H184 0.951 . S
C185 C191 1.268 . S
H186 C191 0.947 1_565 S
H187 C195 0.949 . S
H188 C196 0.950 . S
H189 C197 0.951 . S
H190 C198 0.951 . S
C191 C185 1.268 . S
C191 H186 0.947 1_545 S
C191 C192 1.477 1_545 S
C192 C191 1.477 1_565 S
C192 C193 1.397 . S
C192 C209 1.394 1_565 S
C193 C192 1.397 . S
C193 C194 1.438 . S
C193 C198 1.429 . S
C194 C193 1.438 . S
C194 C195 1.428 . S
C194 C207 1.394 . S
C195 H187 0.949 . S
C195 C194 1.428 . S
C195 C196 1.345 . S
C196 H188 0.950 . S
C196 C195 1.345 . S
C196 C197 1.424 . S
C197 H189 0.951 . S
C197 C196 1.424 . S
C197 C198 1.347 . S
C198 H190 0.951 . S
C198 C193 1.429 . S
C198 C197 1.347 . S
H199 C200 0.951 . S
C200 H199 0.951 . S
C200 C206 1.265 . S
H201 C206 0.950 . S
H202 C210 0.949 . S
H203 C211 0.950 . S
H204 C212 0.951 . S
H205 C213 0.951 . S
C206 C200 1.265 . S
C206 H201 0.950 . S
C206 C207 1.478 . S
C207 C194 1.394 . S
C207 C206 1.478 . S
C207 C208 1.397 1_565 S
C208 C207 1.397 1_545 S
C208 C209 1.438 . S
C208 C213 1.429 . S
C209 C192 1.394 1_545 S
C209 C208 1.438 . S
C209 C210 1.428 . S
C210 H202 0.949 . S
C210 C209 1.428 . S
C210 C211 1.345 . S
C211 H203 0.950 . S
C211 C210 1.345 . S
C211 C212 1.424 . S
C212 H204 0.951 . S
C212 C211 1.424 . S
C212 C213 1.347 . S
C213 H205 0.951 . S
C213 C208 1.429 . S
C213 C212 1.347 . S
H214 C215 0.951 . S
C215 H214 0.951 . S
C215 C221 1.265 1_655 S
H216 C221 0.950 . S
H217 C225 0.949 . S
H218 C226 0.950 . S
H219 C227 0.951 . S
H220 C228 0.951 . S
C221 C215 1.265 1_455 S
C221 H216 0.950 . S
C221 C222 1.478 . S
C222 C221 1.478 . S
C222 C223 1.397 . S
C222 C239 1.394 1_455 S
C223 C222 1.397 . S
C223 C224 1.438 . S
C223 C228 1.429 . S
C224 C223 1.438 . S
C224 C225 1.428 . S
C224 C237 1.394 . S
C225 H217 0.949 . S
C225 C224 1.428 . S
C225 C226 1.345 . S
C226 H218 0.950 . S
C226 C225 1.345 . S
C226 C227 1.424 . S
C227 H219 0.951 . S
C227 C226 1.424 . S
C227 C228 1.347 . S
C228 H220 0.951 . S
C228 C223 1.429 . S
C228 C227 1.347 . S
H229 C230 0.951 . S
C230 H229 0.951 . S
C230 C236 1.265 . S
H231 C236 0.950 1_655 S
H232 C240 0.949 . S
H233 C241 0.950 . S
H234 C242 0.951 . S
H235 C243 0.951 . S
C236 C230 1.265 . S
C236 H231 0.950 1_455 S
C236 C237 1.478 . S
C237 C224 1.394 . S
C237 C236 1.478 . S
C237 C238 1.397 1_455 S
C238 C237 1.397 1_655 S
C238 C239 1.438 . S
C238 C243 1.429 . S
C239 C222 1.394 1_655 S
C239 C238 1.438 . S
C239 C240 1.428 . S
C240 H232 0.949 . S
C240 C239 1.428 . S
C240 C241 1.345 . S
C241 H233 0.950 . S
C241 C240 1.345 . S
C241 C242 1.424 . S
C242 H234 0.951 . S
C242 C241 1.424 . S
C242 C243 1.347 . S
C243 H235 0.951 . S
C243 C238 1.429 . S
C243 C242 1.347 . S
H244 C245 0.951 . S
C245 H244 0.951 . S
C245 C251 1.265 1_545 S
H246 C251 0.950 . S
H247 C255 0.949 . S
H248 C256 0.950 . S
H249 C257 0.951 . S
H250 C258 0.951 . S
C251 C245 1.265 1_565 S
C251 H246 0.950 . S
C251 C252 1.478 1_565 S
C252 C251 1.478 1_545 S
C252 C253 1.397 1_545 S
C252 C269 1.394 . S
C253 C252 1.397 1_565 S
C253 C254 1.438 . S
C253 C258 1.429 . S
C254 C253 1.438 . S
C254 C255 1.428 . S
C254 C267 1.394 1_565 S
C255 H247 0.949 . S
C255 C254 1.428 . S
C255 C256 1.345 . S
C256 H248 0.950 . S
C256 C255 1.345 . S
C256 C257 1.424 . S
C257 H249 0.951 . S
C257 C256 1.424 . S
C257 C258 1.347 . S
C258 H250 0.951 . S
C258 C253 1.429 . S
C258 C257 1.347 . S
H259 C260 0.951 . S
C260 H259 0.951 . S
C260 C266 1.265 . S
H261 C266 0.950 . S
H262 C270 0.949 . S
H263 C271 0.950 . S
H264 C272 0.951 . S
H265 C273 0.951 . S
C266 C260 1.265 . S
C266 H261 0.950 . S
C266 C267 1.478 . S
C267 C254 1.394 1_545 S
C267 C266 1.478 . S
C267 C268 1.397 . S
C268 C267 1.397 . S
C268 C269 1.438 . S
C268 C273 1.429 . S
C269 C252 1.394 . S
C269 C268 1.438 . S
C269 C270 1.428 . S
C270 H262 0.949 . S
C270 C269 1.428 . S
C270 C271 1.345 . S
C271 H263 0.950 . S
C271 C270 1.345 . S
C271 C272 1.424 . S
C272 H264 0.951 . S
C272 C271 1.424 . S
C272 C273 1.347 . S
C273 H265 0.951 . S
C273 C268 1.429 . S
C273 C272 1.347 . S
H274 C275 0.951 1_655 S
C275 H274 0.951 1_455 S
C275 C281 1.265 . S
H276 C281 0.950 . S
H277 C285 0.949 . S
H278 C286 0.950 . S
H279 C287 0.951 . S
H280 C288 0.951 . S
C281 C275 1.265 . S
C281 H276 0.950 . S
C281 C282 1.478 1_455 S
C282 C281 1.478 1_655 S
C282 C283 1.397 1_655 S
C282 C299 1.394 . S
C283 C282 1.397 1_455 S
C283 C284 1.438 . S
C283 C288 1.429 . S
C284 C283 1.438 . S
C284 C285 1.428 . S
C284 C297 1.394 1_455 S
C285 H277 0.949 . S
C285 C284 1.428 . S
C285 C286 1.345 . S
C286 H278 0.950 . S
C286 C285 1.345 . S
C286 C287 1.424 . S
C287 H279 0.951 . S
C287 C286 1.424 . S
C287 C288 1.347 . S
C288 H280 0.951 . S
C288 C283 1.429 . S
C288 C287 1.347 . S
H289 C290 0.951 . S
C290 H289 0.951 . S
C290 C296 1.265 . S
H291 C296 0.950 . S
H292 C300 0.949 . S
H293 C301 0.950 . S
H294 C302 0.951 . S
H295 C303 0.951 . S
C296 C290 1.265 . S
C296 H291 0.950 . S
C296 C297 1.478 . S
C297 C284 1.394 1_655 S
C297 C296 1.478 . S
C297 C298 1.397 . S
C298 C297 1.397 . S
C298 C299 1.438 . S
C298 C303 1.429 . S
C299 C282 1.394 . S
C299 C298 1.438 . S
C299 C300 1.428 . S
C300 H292 0.949 . S
C300 C299 1.428 . S
C300 C301 1.345 . S
C301 H293 0.950 . S
C301 C300 1.345 . S
C301 C302 1.424 . S
C302 H294 0.951 . S
C302 C301 1.424 . S
C302 C303 1.347 . S
C303 H295 0.951 . S
C303 C298 1.429 . S
C303 C302 1.347 . S
C80 C45 1.650 . S
C65 C7 1.582 . S
C110 C56 1.597 . S
C95 C34 1.598 . S
C140 C44 1.675 . S
C125 C14 1.662 . S
C170 C57 1.591 . S
C155 C26 1.593 . S
C200 C59 1.644 . S
C185 C8 1.587 . S
C230 C43 1.581 . S
C215 C32 1.581 . S
C260 C58 1.670 . S
C245 C16 1.640 . S
C275 C25 1.624 . S
C290 C42 1.589 . S
