# Generated by pormake.
# Topology pyr, (3,6)-cn, num edge types: 1
# Building blocks:
#     Node 0, Type 0, BuildingBlock: VETTIZ_charged_linker_0, # of connection points: 3
#     Node 1, Type 0, BuildingBlock: VETTIZ_charged_linker_0, # of connection points: 3
#     Node 2, Type 0, BuildingBlock: VETTIZ_charged_linker_0, # of connection points: 3
#     Node 3, Type 0, BuildingBlock: VETTIZ_charged_linker_0, # of connection points: 3
#     Node 4, Type 0, BuildingBlock: VETTIZ_charged_linker_0, # of connection points: 3
#     Node 5, Type 0, BuildingBlock: VETTIZ_charged_linker_0, # of connection points: 3
#     Node 6, Type 0, BuildingBlock: VETTIZ_charged_linker_0, # of connection points: 3
#     Node 7, Type 0, BuildingBlock: VETTIZ_charged_linker_0, # of connection points: 3
#     Node 8, Type 1, BuildingBlock: PAMTOO_clean_sbu_0, # of connection points: 6
#     Node 9, Type 1, BuildingBlock: PAMTOO_clean_sbu_0, # of connection points: 6
#     Node 10, Type 1, BuildingBlock: PAMTOO_clean_sbu_0, # of connection points: 6
#     Node 11, Type 1, BuildingBlock: PAMTOO_clean_sbu_0, # of connection points: 6
#     Edge 12, Type (0, 1), BuildingBlock: ZUJKAS_clean_linker_0, # of connection points: 2
#     Edge 13, Type (0, 1), BuildingBlock: ZUJKAS_clean_linker_0, # of connection points: 2
#     Edge 14, Type (0, 1), BuildingBlock: ZUJKAS_clean_linker_0, # of connection points: 2
#     Edge 15, Type (0, 1), BuildingBlock: ZUJKAS_clean_linker_0, # of connection points: 2
#     Edge 16, Type (0, 1), BuildingBlock: ZUJKAS_clean_linker_0, # of connection points: 2
#     Edge 17, Type (0, 1), BuildingBlock: ZUJKAS_clean_linker_0, # of connection points: 2
#     Edge 18, Type (0, 1), BuildingBlock: ZUJKAS_clean_linker_0, # of connection points: 2
#     Edge 19, Type (0, 1), BuildingBlock: ZUJKAS_clean_linker_0, # of connection points: 2
#     Edge 20, Type (0, 1), BuildingBlock: ZUJKAS_clean_linker_0, # of connection points: 2
#     Edge 21, Type (0, 1), BuildingBlock: ZUJKAS_clean_linker_0, # of connection points: 2
#     Edge 22, Type (0, 1), BuildingBlock: ZUJKAS_clean_linker_0, # of connection points: 2
#     Edge 23, Type (0, 1), BuildingBlock: ZUJKAS_clean_linker_0, # of connection points: 2
#     Edge 24, Type (0, 1), BuildingBlock: ZUJKAS_clean_linker_0, # of connection points: 2
#     Edge 25, Type (0, 1), BuildingBlock: ZUJKAS_clean_linker_0, # of connection points: 2
#     Edge 26, Type (0, 1), BuildingBlock: ZUJKAS_clean_linker_0, # of connection points: 2
#     Edge 27, Type (0, 1), BuildingBlock: ZUJKAS_clean_linker_0, # of connection points: 2
#     Edge 28, Type (0, 1), BuildingBlock: ZUJKAS_clean_linker_0, # of connection points: 2
#     Edge 29, Type (0, 1), BuildingBlock: ZUJKAS_clean_linker_0, # of connection points: 2
#     Edge 30, Type (0, 1), BuildingBlock: ZUJKAS_clean_linker_0, # of connection points: 2
#     Edge 31, Type (0, 1), BuildingBlock: ZUJKAS_clean_linker_0, # of connection points: 2
#     Edge 32, Type (0, 1), BuildingBlock: ZUJKAS_clean_linker_0, # of connection points: 2
#     Edge 33, Type (0, 1), BuildingBlock: ZUJKAS_clean_linker_0, # of connection points: 2
#     Edge 34, Type (0, 1), BuildingBlock: ZUJKAS_clean_linker_0, # of connection points: 2
#     Edge 35, Type (0, 1), BuildingBlock: ZUJKAS_clean_linker_0, # of connection points: 2
# Relax obj value: 0.071
# Max RMSD: 0.145
# Mean RMSD: 0.065
data_MOF--net-pyr--node1-PAMTOO_clean_sbu_0--node2-VETTIZ_charged_linker_0--edge1-ZUJKAS_clean_linker_0
_symmetry_space_group_name_H-M    P1
_symmetry_Int_Tables_number       1
_symmetry_cell_setting            triclinic
loop_
_symmetry_equiv_pos_as_xyz
'x, y, z'
_cell_length_a     55.928819
_cell_length_b     58.186341
_cell_length_c     58.355813
_cell_angle_alpha  90.010636
_cell_angle_beta   89.975324
_cell_angle_gamma 101.24454
loop_
_atom_site_label
_atom_site_type_symbol
_atom_site_fract_x
_atom_site_fract_y
_atom_site_fract_z
_atom_type_partial_charge
C0 C 0.27585 0.23166 0.2863 0.0
C1 C 0.25741 0.24148 0.29659 0.0
C2 C 0.24944 0.26016 0.28553 0.0
C3 C 0.27607 0.25716 0.25337 0.0
C4 C 0.28483 0.2397 0.26475 0.0
C5 C 0.30309 0.22996 0.25066 0.0
H6 H 0.35636 0.22095 0.14805 0.0
C7 C 0.28727 0.25973 0.23034 0.0
C8 C 0.30328 0.244 0.2287 0.0
H9 H 0.36657 0.18538 0.21134 0.0
H10 H 0.34063 0.20736 0.23115 0.0
H11 H 0.36075 0.2732 0.17164 0.0
H12 H 0.30002 0.21854 0.15348 0.0
H13 H 0.29236 0.24539 0.14591 0.0
H14 H 0.31808 0.23653 0.13235 0.0
H15 H 0.35197 0.26654 0.14244 0.0
H16 H 0.33822 0.28652 0.15927 0.0
C17 C 0.32802 0.23547 0.26314 0.0
C18 C 0.29294 0.20349 0.2468 0.0
C19 C 0.2567 0.31148 0.17179 0.0
C20 C 0.26084 0.31504 0.14819 0.0
C21 C 0.2786 0.30464 0.13736 0.0
C22 C 0.29157 0.2904 0.14976 0.0
C23 C 0.28649 0.28628 0.17318 0.0
C24 C 0.26955 0.29704 0.18384 0.0
C25 C 0.26562 0.28994 0.20851 0.0
C26 C 0.28305 0.27315 0.21098 0.0
C27 C 0.29519 0.27099 0.19025 0.0
C28 C 0.27337 0.31207 0.22357 0.0
C29 C 0.2386 0.27746 0.2114 0.0
C30 C 0.3533 0.21814 0.16624 0.0
C31 C 0.36332 0.20117 0.17806 0.0
C32 C 0.35868 0.19797 0.20172 0.0
C33 C 0.34368 0.21083 0.21324 0.0
C34 C 0.33302 0.22702 0.20101 0.0
C35 C 0.3383 0.23084 0.17803 0.0
C36 C 0.32544 0.2489 0.16791 0.0
C37 C 0.31152 0.25517 0.1886 0.0
C38 C 0.31581 0.24205 0.20784 0.0
C39 C 0.34497 0.26991 0.15968 0.0
C40 C 0.30814 0.23695 0.14878 0.0
H41 H 0.25154 0.28205 0.25632 0.0
H42 H 0.28225 0.21717 0.29425 0.0
H43 H 0.27303 0.20034 0.24319 0.0
H44 H 0.30104 0.19621 0.23191 0.0
H45 H 0.2957 0.19312 0.26221 0.0
H46 H 0.32988 0.25174 0.27357 0.0
H47 H 0.33024 0.22102 0.27489 0.0
H48 H 0.3436 0.23895 0.25111 0.0
H49 H 0.24283 0.31882 0.18054 0.0
H50 H 0.28221 0.30726 0.11921 0.0
H51 H 0.30463 0.28272 0.14051 0.0
H52 H 0.28933 0.32409 0.21599 0.0
H53 H 0.25835 0.32196 0.22518 0.0
H54 H 0.27942 0.308 0.24087 0.0
H55 H 0.23173 0.26754 0.19565 0.0
H56 H 0.23585 0.26417 0.22511 0.0
H57 H 0.22668 0.2903 0.21473 0.0
H58 H 0.23554 0.26827 0.29328 0.0
C59 C 0.25875 0.26813 0.26406 0.0
C60 C 0.15144 0.80322 0.65974 0.0
C61 C 0.13984 0.81939 0.67111 0.0
C62 C 0.14455 0.82374 0.69461 0.0
C63 C 0.17317 0.79743 0.69462 0.0
C64 C 0.16796 0.79247 0.6718 0.0
C65 C 0.18257 0.77551 0.6622 0.0
H66 H 0.27294 0.71454 0.67697 0.0
C67 C 0.19221 0.78458 0.70178 0.0
C68 C 0.19767 0.77149 0.68292 0.0
H69 H 0.2299 0.71805 0.616 0.0
H70 H 0.20623 0.74242 0.63602 0.0
H71 H 0.28016 0.7668 0.6892 0.0
H72 H 0.22752 0.7077 0.71296 0.0
H73 H 0.23675 0.72546 0.73696 0.0
H74 H 0.25897 0.71288 0.72139 0.0
H75 H 0.28772 0.74635 0.70966 0.0
H76 H 0.2759 0.7717 0.7184 0.0
C77 C 0.19861 0.78787 0.64244 0.0
C78 C 0.16466 0.7529 0.65498 0.0
C79 C 0.23138 0.80009 0.78024 0.0
C80 C 0.25131 0.7928 0.79074 0.0
C81 C 0.262 0.77574 0.77968 0.0
C82 C 0.25367 0.76684 0.75821 0.0
C83 C 0.23458 0.77522 0.74746 0.0
C84 C 0.22348 0.79123 0.75865 0.0
C85 C 0.20388 0.79859 0.74436 0.0
C86 C 0.20536 0.78461 0.72259 0.0
C87 C 0.22343 0.77106 0.72451 0.0
C88 C 0.21122 0.82537 0.74019 0.0
C89 C 0.17916 0.79074 0.75682 0.0
C90 C 0.25812 0.72012 0.668 0.0
C91 C 0.25325 0.71425 0.64488 0.0
C92 C 0.23415 0.72248 0.63376 0.0
C93 C 0.2204 0.73657 0.64543 0.0
C94 C 0.22592 0.74269 0.66843 0.0
C95 C 0.24434 0.73422 0.67934 0.0
C96 C 0.24813 0.74275 0.70359 0.0
C97 C 0.22885 0.75767 0.70557 0.0
C98 C 0.21596 0.75773 0.68492 0.0
C99 C 0.27433 0.75755 0.70556 0.0
C100 C 0.24277 0.72119 0.71971 0.0
H101 H 0.16407 0.81717 0.72416 0.0
H102 H 0.14799 0.79922 0.64178 0.0
H103 H 0.14895 0.74899 0.66701 0.0
H104 H 0.173 0.73719 0.6555 0.0
H105 H 0.15727 0.7547 0.63755 0.0
H106 H 0.20594 0.80654 0.64679 0.0
H107 H 0.18791 0.78754 0.62637 0.0
H108 H 0.21481 0.78023 0.63902 0.0
H109 H 0.22248 0.81291 0.78837 0.0
H110 H 0.27752 0.76994 0.78715 0.0
H111 H 0.26295 0.7543 0.75052 0.0
H112 H 0.23125 0.83066 0.73756 0.0
H113 H 0.20627 0.83538 0.75509 0.0
H114 H 0.20308 0.83126 0.72459 0.0
H115 H 0.17881 0.77429 0.76665 0.0
H116 H 0.16362 0.7865 0.74484 0.0
H117 H 0.17572 0.80431 0.76912 0.0
H118 H 0.13614 0.83628 0.70377 0.0
C119 C 0.16102 0.81279 0.70641 0.0
C120 C 0.62674 0.27645 0.87999 0.0
C121 C 0.60621 0.26146 0.87083 0.0
C122 C 0.5952 0.2688 0.85104 0.0
C123 C 0.62542 0.30517 0.84992 0.0
C124 C 0.63594 0.29792 0.86938 0.0
C125 C 0.65778 0.31534 0.87723 0.0
H126 H 0.73758 0.4175 0.86369 0.0
C127 C 0.6398 0.32859 0.84335 0.0
C128 C 0.65872 0.33446 0.85944 0.0
H129 H 0.73666 0.36412 0.91545 0.0
H130 H 0.70021 0.34147 0.89927 0.0
H131 H 0.67997 0.41695 0.86526 0.0
H132 H 0.72205 0.38101 0.82077 0.0
H133 H 0.70156 0.39328 0.80398 0.0
H134 H 0.72443 0.41225 0.82055 0.0
H135 H 0.6979 0.43174 0.8422 0.0
H136 H 0.66693 0.41631 0.83785 0.0
C137 C 0.65228 0.32388 0.90152 0.0
C138 C 0.68033 0.30348 0.8758 0.0
C139 C 0.61769 0.37182 0.77243 0.0
C140 C 0.62739 0.39399 0.76279 0.0
C141 C 0.64715 0.40837 0.77416 0.0
C142 C 0.65734 0.40078 0.79406 0.0
C143 C 0.64772 0.37857 0.80317 0.0
C144 C 0.62797 0.3646 0.79259 0.0
C145 C 0.61953 0.34192 0.80544 0.0
C146 C 0.63771 0.34446 0.82514 0.0
C147 C 0.65435 0.36598 0.82358 0.0
C148 C 0.59324 0.34133 0.814 0.0
C149 C 0.62203 0.32135 0.78941 0.0
C150 C 0.72938 0.40097 0.87154 0.0
C151 C 0.7403 0.39247 0.89076 0.0
C152 C 0.72901 0.37087 0.90041 0.0
C153 C 0.70768 0.35774 0.89101 0.0
C154 C 0.69726 0.36609 0.87158 0.0
C155 C 0.70796 0.38742 0.86218 0.0
C156 C 0.69407 0.39324 0.84145 0.0
C157 C 0.67357 0.37173 0.83991 0.0
C158 C 0.67564 0.35601 0.85767 0.0
C159 C 0.68427 0.41581 0.84673 0.0
C160 C 0.71132 0.39523 0.82049 0.0
H161 H 0.59566 0.29499 0.82543 0.0
H162 H 0.63547 0.27174 0.89539 0.0
H163 H 0.67827 0.29026 0.86179 0.0
H164 H 0.69734 0.31592 0.87155 0.0
H165 H 0.68295 0.29432 0.89203 0.0
H166 H 0.63266 0.32471 0.90332 0.0
H167 H 0.65667 0.31185 0.91497 0.0
H168 H 0.66208 0.34188 0.90527 0.0
H169 H 0.6026 0.36015 0.76438 0.0
H170 H 0.65468 0.42577 0.76787 0.0
H171 H 0.67234 0.41261 0.80168 0.0
H172 H 0.59106 0.35899 0.81988 0.0
H173 H 0.57977 0.33574 0.80012 0.0
H174 H 0.58837 0.32976 0.82895 0.0
H175 H 0.63951 0.32539 0.77975 0.0
H176 H 0.62245 0.30498 0.79878 0.0
H177 H 0.60693 0.31801 0.77674 0.0
H178 H 0.57944 0.25761 0.84347 0.0
C179 C 0.60471 0.2905 0.84053 0.0
C180 C 0.90059 0.7533 0.36142 0.0
C181 C 0.89185 0.76425 0.38045 0.0
C182 C 0.87106 0.75222 0.3921 0.0
C183 C 0.86764 0.71945 0.36592 0.0
C184 C 0.88809 0.73095 0.35439 0.0
C185 C 0.89416 0.71669 0.33427 0.0
H186 H 0.86597 0.61708 0.26992 0.0
C187 C 0.85869 0.6967 0.35451 0.0
C188 C 0.87405 0.69484 0.33585 0.0
H189 H 0.92538 0.67598 0.25968 0.0
H190 H 0.91281 0.69508 0.29309 0.0
H191 H 0.87181 0.6146 0.32458 0.0
H192 H 0.82494 0.6482 0.28286 0.0
H193 H 0.80764 0.63335 0.30549 0.0
H194 H 0.82139 0.61691 0.28484 0.0
H195 H 0.84618 0.59816 0.30937 0.0
H196 H 0.84289 0.60997 0.33753 0.0
C197 C 0.91969 0.71098 0.33838 0.0
C198 C 0.89216 0.73076 0.31209 0.0
C199 C 0.78399 0.64291 0.38705 0.0
C200 C 0.77109 0.62043 0.38123 0.0
C201 C 0.77901 0.60907 0.36206 0.0
C202 C 0.79938 0.61986 0.34912 0.0
C203 C 0.81212 0.64231 0.35534 0.0
C204 C 0.8043 0.65333 0.37409 0.0
C205 C 0.81998 0.67692 0.37858 0.0
C206 C 0.83863 0.67835 0.35948 0.0
C207 C 0.83398 0.65813 0.34579 0.0
C208 C 0.83176 0.6762 0.40259 0.0
C209 C 0.80387 0.69566 0.37584 0.0
C210 C 0.87615 0.6342 0.27469 0.0
C211 C 0.89673 0.64495 0.26194 0.0
C212 C 0.90965 0.66708 0.2692 0.0
C213 C 0.90222 0.67827 0.28858 0.0
C214 C 0.8816 0.66731 0.30104 0.0
C215 C 0.86899 0.64558 0.29404 0.0
C216 C 0.84769 0.63636 0.30948 0.0
C217 C 0.84938 0.65617 0.32673 0.0
C218 C 0.86932 0.67437 0.32175 0.0
C219 C 0.85211 0.61348 0.3208 0.0
C220 C 0.82407 0.63334 0.29503 0.0
H221 H 0.84333 0.72209 0.39474 0.0
H222 H 0.91648 0.76206 0.35204 0.0
H223 H 0.87636 0.73976 0.31306 0.0
H224 H 0.88884 0.71958 0.2967 0.0
H225 H 0.90883 0.74437 0.30938 0.0
H226 H 0.922 0.70658 0.35669 0.0
H227 H 0.93429 0.72619 0.33398 0.0
H228 H 0.92271 0.69553 0.32866 0.0
H229 H 0.77832 0.65246 0.40134 0.0
H230 H 0.76967 0.59167 0.35722 0.0
H231 H 0.80449 0.61027 0.33481 0.0
H232 H 0.83511 0.65838 0.40652 0.0
H233 H 0.81976 0.6809 0.41628 0.0
H234 H 0.84992 0.68771 0.40392 0.0
H235 H 0.78964 0.69037 0.36251 0.0
H236 H 0.81422 0.71276 0.3699 0.0
H237 H 0.79442 0.6982 0.39212 0.0
H238 H 0.86418 0.7599 0.40704 0.0
C239 C 0.859 0.73007 0.38499 0.0
C240 C 0.74296 0.72537 0.88658 0.0
C241 C 0.762 0.71594 0.87693 0.0
C242 C 0.76653 0.71838 0.85323 0.0
C243 C 0.73521 0.74152 0.84956 0.0
C244 C 0.72989 0.73818 0.8726 0.0
C245 C 0.71029 0.75097 0.8802 0.0
H246 H 0.64137 0.83158 0.85683 0.0
C247 C 0.72013 0.7575 0.84029 0.0
C248 C 0.70531 0.763 0.85806 0.0
H249 H 0.64472 0.7936 0.92009 0.0
H250 H 0.67177 0.77118 0.90237 0.0
H251 H 0.63753 0.78557 0.82309 0.0
H252 H 0.69659 0.83976 0.84569 0.0
H253 H 0.7018 0.83463 0.81668 0.0
H254 H 0.67471 0.84506 0.82484 0.0
H255 H 0.64153 0.81525 0.81309 0.0
H256 H 0.6565 0.79412 0.79932 0.0
C257 C 0.6879 0.73259 0.88806 0.0
C258 C 0.72118 0.7688 0.89897 0.0
C259 C 0.73689 0.78961 0.75989 0.0
C260 C 0.72888 0.80749 0.74763 0.0
C261 C 0.7099 0.81743 0.75689 0.0
C262 C 0.69997 0.81047 0.77846 0.0
C263 C 0.70924 0.79357 0.79105 0.0
C264 C 0.72707 0.78314 0.78151 0.0
C265 C 0.73557 0.76629 0.79764 0.0
C266 C 0.72 0.7684 0.81855 0.0
C267 C 0.70466 0.78442 0.81463 0.0
C268 C 0.72927 0.74148 0.78693 0.0
C269 C 0.76314 0.77536 0.80232 0.0
C270 C 0.64754 0.81814 0.86678 0.0
C271 C 0.64099 0.8145 0.88996 0.0
C272 C 0.64979 0.79704 0.90232 0.0
C273 C 0.66546 0.78399 0.89199 0.0
C274 C 0.6726 0.78853 0.86909 0.0
C275 C 0.66323 0.80502 0.85675 0.0
C276 C 0.67283 0.80758 0.83263 0.0
C277 C 0.68954 0.78994 0.83253 0.0
C278 C 0.68957 0.77903 0.85401 0.0
C279 C 0.65107 0.80045 0.81601 0.0
C280 C 0.68712 0.83306 0.82955 0.0
H281 H 0.75784 0.73253 0.82167 0.0
H282 H 0.73912 0.72374 0.90477 0.0
H283 H 0.74008 0.77756 0.8944 0.0
H284 H 0.7111 0.78315 0.90116 0.0
H285 H 0.72192 0.75997 0.91575 0.0
H286 H 0.68629 0.71606 0.87808 0.0
H287 H 0.68932 0.72816 0.90646 0.0
H288 H 0.67047 0.73839 0.8851 0.0
H289 H 0.75117 0.78133 0.75318 0.0
H290 H 0.70346 0.83136 0.74797 0.0
H291 H 0.68602 0.81911 0.78481 0.0
H292 H 0.71182 0.73905 0.77724 0.0
H293 H 0.74369 0.73852 0.77481 0.0
H294 H 0.72633 0.72738 0.79992 0.0
H295 H 0.76779 0.79484 0.8018 0.0
H296 H 0.76891 0.77084 0.81954 0.0
H297 H 0.77457 0.76869 0.78928 0.0
H298 H 0.78082 0.71088 0.84539 0.0
C299 C 0.75315 0.73095 0.83949 0.0
C300 C 0.85525 0.21395 0.3807 0.0
C301 C 0.86751 0.19858 0.36889 0.0
C302 C 0.86512 0.19674 0.34487 0.0
C303 C 0.83723 0.22376 0.34505 0.0
C304 C 0.84033 0.22639 0.36845 0.0
C305 C 0.82557 0.24309 0.37831 0.0
H306 H 0.74267 0.31231 0.3615 0.0
C307 C 0.81961 0.2381 0.33763 0.0
C308 C 0.81293 0.24978 0.35697 0.0
H309 H 0.7763 0.29842 0.42534 0.0
H310 H 0.80024 0.27417 0.40539 0.0
H311 H 0.7321 0.26199 0.34545 0.0
H312 H 0.79189 0.31792 0.32905 0.0
H313 H 0.78216 0.30311 0.30337 0.0
H314 H 0.76121 0.31684 0.31942 0.0
H315 H 0.72933 0.28363 0.32428 0.0
H316 H 0.73973 0.25706 0.31702 0.0
C317 C 0.8072 0.22949 0.39576 0.0
C318 C 0.8434 0.26429 0.38859 0.0
C319 C 0.78623 0.2298 0.25653 0.0
C320 C 0.76752 0.23865 0.24554 0.0
C321 C 0.75744 0.25606 0.25669 0.0
C322 C 0.76489 0.26355 0.27883 0.0
C323 C 0.78243 0.25338 0.29013 0.0
C324 C 0.79321 0.23722 0.27878 0.0
C325 C 0.8111 0.22788 0.29366 0.0
C326 C 0.80862 0.24052 0.31606 0.0
C327 C 0.79178 0.25535 0.31387 0.0
C328 C 0.80224 0.20101 0.29589 0.0
C329 C 0.83687 0.23539 0.28307 0.0
C330 C 0.75558 0.30445 0.37112 0.0
C331 C 0.75786 0.30746 0.39494 0.0
C332 C 0.77427 0.29632 0.40695 0.0
C333 C 0.78814 0.28229 0.39533 0.0
C334 C 0.78529 0.27912 0.3715 0.0
C335 C 0.76924 0.29019 0.35985 0.0
C336 C 0.76738 0.28389 0.33488 0.0
C337 C 0.78537 0.26756 0.33327 0.0
C338 C 0.79584 0.26479 0.35473 0.0
C339 C 0.74081 0.27112 0.32993 0.0
C340 C 0.77592 0.30655 0.32077 0.0
H341 H 0.84888 0.20685 0.31472 0.0
H342 H 0.8566 0.21577 0.39915 0.0
H343 H 0.85996 0.2691 0.3777 0.0
H344 H 0.8356 0.28029 0.38943 0.0
H345 H 0.84942 0.2602 0.406 0.0
H346 H 0.80025 0.21124 0.38979 0.0
H347 H 0.8159 0.22847 0.41274 0.0
H348 H 0.79077 0.23712 0.39797 0.0
H349 H 0.79467 0.21671 0.24831 0.0
H350 H 0.74289 0.26309 0.2488 0.0
H351 H 0.75605 0.27637 0.28659 0.0
H352 H 0.78212 0.19661 0.29823 0.0
H353 H 0.80676 0.19182 0.28026 0.0
H354 H 0.80981 0.19341 0.31089 0.0
H355 H 0.83846 0.25194 0.27313 0.0
H356 H 0.85133 0.2393 0.29623 0.0
H357 H 0.84111 0.22178 0.27122 0.0
H358 H 0.87479 0.18549 0.33526 0.0
C359 C 0.85013 0.20925 0.33292 0.0
C360 C 0.39892 0.64692 0.28021 0.0
C361 C 0.38835 0.62528 0.29038 0.0
C362 C 0.36647 0.61253 0.28097 0.0
C363 C 0.36632 0.64235 0.25191 0.0
C364 C 0.38763 0.65509 0.26109 0.0
C365 C 0.39633 0.67766 0.24813 0.0
H366 H 0.37549 0.75284 0.16415 0.0
C367 C 0.35908 0.6556 0.23223 0.0
C368 C 0.37654 0.67648 0.22999 0.0
H369 H 0.43793 0.76094 0.20896 0.0
H370 H 0.42142 0.72348 0.22693 0.0
H371 H 0.33437 0.73138 0.20119 0.0
H372 H 0.37622 0.70142 0.15179 0.0
H373 H 0.34771 0.68255 0.15248 0.0
H374 H 0.34976 0.71266 0.14378 0.0
H375 H 0.32942 0.73235 0.17085 0.0
H376 H 0.3143 0.7081 0.18809 0.0
C377 C 0.39672 0.69834 0.26485 0.0
C378 C 0.42142 0.67677 0.23735 0.0
C379 C 0.28314 0.62157 0.18531 0.0
C380 C 0.27209 0.63005 0.16617 0.0
C381 C 0.28217 0.65258 0.15773 0.0
C382 C 0.30298 0.66615 0.16767 0.0
C383 C 0.31409 0.65731 0.18641 0.0
C384 C 0.3041 0.63546 0.19509 0.0
C385 C 0.31841 0.62924 0.21532 0.0
C386 C 0.33889 0.65072 0.2169 0.0
C387 C 0.33615 0.66705 0.19991 0.0
C388 C 0.3016 0.6267 0.23667 0.0
C389 C 0.32817 0.60687 0.20918 0.0
C390 C 0.38547 0.74668 0.17803 0.0
C391 C 0.40782 0.75997 0.1854 0.0
C392 C 0.42061 0.75101 0.20306 0.0
C393 C 0.41096 0.7293 0.21347 0.0
C394 C 0.38845 0.71622 0.20591 0.0
C395 C 0.37635 0.72495 0.18823 0.0
C396 C 0.35355 0.70832 0.18121 0.0
C397 C 0.3535 0.6883 0.19785 0.0
C398 C 0.37379 0.69298 0.21255 0.0
C399 C 0.33165 0.72056 0.18533 0.0
C400 C 0.35671 0.70087 0.15599 0.0
H401 H 0.33893 0.61024 0.2557 0.0
H402 H 0.41578 0.65716 0.28677 0.0
H403 H 0.4221 0.65873 0.23144 0.0
H404 H 0.42527 0.68784 0.22192 0.0
H405 H 0.43636 0.68208 0.24995 0.0
H406 H 0.37987 0.69544 0.27546 0.0
H407 H 0.41257 0.70021 0.27664 0.0
H408 H 0.39726 0.71518 0.25602 0.0
H409 H 0.27593 0.60437 0.19229 0.0
H410 H 0.2738 0.65989 0.14345 0.0
H411 H 0.30959 0.68307 0.1603 0.0
H412 H 0.28835 0.63866 0.2356 0.0
H413 H 0.29098 0.60854 0.23832 0.0
H414 H 0.31171 0.63173 0.25275 0.0
H415 H 0.3347 0.60765 0.19113 0.0
H416 H 0.34401 0.60467 0.21961 0.0
H417 H 0.31366 0.59096 0.21099 0.0
H418 H 0.35752 0.59612 0.28856 0.0
C419 C 0.35551 0.62088 0.2619 0.0
C420 C 0.10709 0.28403 0.69047 0.0
C421 C 0.11528 0.2734 0.67094 0.0
C422 C 0.13724 0.28445 0.66045 0.0
C423 C 0.14191 0.31636 0.68776 0.0
C424 C 0.12067 0.30553 0.69852 0.0
C425 C 0.1148 0.31969 0.71879 0.0
H426 H 0.14571 0.41747 0.78535 0.0
C427 C 0.15161 0.33857 0.69985 0.0
C428 C 0.1359 0.34076 0.71816 0.0
H429 H 0.08322 0.36104 0.79292 0.0
H430 H 0.09618 0.34145 0.76002 0.0
H431 H 0.14151 0.42126 0.73036 0.0
H432 H 0.18472 0.38497 0.77336 0.0
H433 H 0.20341 0.39877 0.75111 0.0
H434 H 0.19026 0.41634 0.77116 0.0
H435 H 0.16707 0.43649 0.7465 0.0
H436 H 0.1708 0.42493 0.71832 0.0
C437 C 0.09001 0.32686 0.71423 0.0
C438 C 0.11531 0.30483 0.74069 0.0
C439 C 0.22879 0.39064 0.6697 0.0
C440 C 0.24239 0.41258 0.67633 0.0
C441 C 0.23459 0.42374 0.69568 0.0
C442 C 0.21363 0.41332 0.70799 0.0
C443 C 0.20017 0.39145 0.70095 0.0
C444 C 0.20791 0.38055 0.68209 0.0
C445 C 0.19147 0.35752 0.67684 0.0
C446 C 0.17246 0.35633 0.6956 0.0
C447 C 0.17758 0.37618 0.70975 0.0
C448 C 0.18042 0.35933 0.65266 0.0
C449 C 0.20655 0.33793 0.67942 0.0
C450 C 0.13462 0.40101 0.77987 0.0
C451 C 0.11336 0.3909 0.79201 0.0
C452 C 0.09985 0.36918 0.78426 0.0
C453 C 0.10732 0.35784 0.765 0.0
C454 C 0.12859 0.36821 0.75314 0.0
C455 C 0.14181 0.38949 0.76065 0.0
C456 C 0.16386 0.39807 0.74593 0.0
C457 C 0.16184 0.37845 0.72845 0.0
C458 C 0.14111 0.36089 0.73268 0.0
C459 C 0.16092 0.4215 0.73473 0.0
C460 C 0.18688 0.39984 0.76106 0.0
H461 H 0.16692 0.31303 0.65971 0.0
H462 H 0.09033 0.27603 0.69901 0.0
H463 H 0.13058 0.29512 0.73997 0.0
H464 H 0.1185 0.31552 0.75641 0.0
H465 H 0.09808 0.29175 0.74262 0.0
H466 H 0.08853 0.33187 0.69596 0.0
H467 H 0.07463 0.31215 0.718 0.0
H468 H 0.08757 0.34236 0.72418 0.0
H469 H 0.23435 0.38127 0.65522 0.0
H470 H 0.2445 0.44073 0.70114 0.0
H471 H 0.20866 0.42276 0.72247 0.0
H472 H 0.17743 0.37739 0.64932 0.0
H473 H 0.19274 0.35503 0.63906 0.0
H474 H 0.16223 0.34807 0.65057 0.0
H475 H 0.22082 0.34248 0.69285 0.0
H476 H 0.19547 0.32107 0.68517 0.0
H477 H 0.2159 0.33514 0.66314 0.0
H478 H 0.14442 0.27651 0.64584 0.0
C479 C 0.15047 0.30571 0.66867 0.0
Dy480 Dy 0.03139 0.02108 0.51416 0.0
Dy481 Dy 0.98059 1.01174 0.54394 0.0
C482 C 0.02352 0.05561 0.55453 0.0
O483 O 0.03822 1.00208 0.54605 0.0
O484 O 0.99934 0.98268 0.55346 0.0
O485 O 0.07054 0.03143 0.51319 0.0
O486 O 0.05051 0.01972 0.48215 0.0
O487 O 0.97335 0.98827 0.51312 0.0
O488 O 0.01257 0.9847 0.50518 0.0
O489 O 0.98029 0.0438 0.52326 0.0
O490 O 1.00465 0.03659 0.49367 0.0
O491 O 0.94151 1.00896 0.54518 0.0
O492 O 0.96188 1.00604 0.57634 0.0
C493 C 0.02299 0.98484 0.55583 0.0
O494 O 0.03159 0.0543 0.53352 0.0
O495 O 0.00748 0.03836 0.56344 0.0
C496 C 0.08663 0.04793 0.47823 0.0
C497 C 0.11592 0.08419 0.45318 0.0
C498 C 0.09992 0.0894 0.47016 0.0
C499 C 0.08528 0.07137 0.48254 0.0
C500 C 0.10254 0.04268 0.46136 0.0
C501 C 0.11704 0.06064 0.44891 0.0
C502 C 0.07165 0.02869 0.49105 0.0
C503 C 0.98895 0.97735 0.50296 0.0
C504 C 0.98804 0.04736 0.50212 0.0
C505 C 0.92156 0.98458 0.57438 0.0
C506 C 0.88541 0.94754 0.59057 0.0
C507 C 0.90873 0.94363 0.58481 0.0
C508 C 0.92666 0.96201 0.57668 0.0
C509 C 0.89822 0.98841 0.57959 0.0
C510 C 0.88027 0.97006 0.58759 0.0
C511 C 0.94038 1.00444 0.56708 0.0
H512 H 0.09849 0.10737 0.47365 0.0
H513 H 0.07294 0.07571 0.49544 0.0
H514 H 0.10378 0.02466 0.45785 0.0
H515 H 0.1294 0.0561 0.43614 0.0
H516 H 0.91313 0.92642 0.58673 0.0
H517 H 0.94457 0.95871 0.57252 0.0
H518 H 0.894 1.00574 0.57787 0.0
H519 H 0.8626 0.9737 0.59216 0.0
Dy520 Dy 0.47903 1.0061 1.01394 0.0
Dy521 Dy 0.52877 0.01823 0.04517 0.0
C522 C 0.48736 0.97286 0.05502 0.0
O523 O 0.47021 0.02485 0.04534 0.0
O524 O 0.5081 0.04627 0.05313 0.0
O525 O 0.44002 0.99494 1.01222 0.0
O526 O 0.46072 1.00569 0.98125 0.0
O527 O 0.53627 0.04139 1.01417 0.0
O528 O 0.49687 0.04262 1.00432 0.0
O529 O 0.53198 0.98647 1.02508 0.0
O530 O 0.50694 0.9908 0.99493 0.0
O531 O 0.56791 0.02392 0.04844 0.0
O532 O 0.54529 0.02431 0.07859 0.0
C533 C 0.48434 0.04285 0.05512 0.0
O534 O 0.47998 0.97337 0.0337 0.0
O535 O 0.502 0.99097 0.06415 0.0
C536 C 0.4247 0.97701 0.97733 0.0
C537 C 0.39408 0.94074 0.95326 0.0
C538 C 0.40363 0.93639 0.97478 0.0
C539 C 0.41887 0.95437 0.98671 0.0
C540 C 0.41561 0.98126 0.95571 0.0
C541 C 0.40054 0.96332 0.94374 0.0
C542 C 0.43947 0.99666 0.98994 0.0
C543 C 0.52039 0.05104 1.00289 0.0
C544 C 0.5243 0.98149 1.00408 0.0
C545 C 0.584 0.04877 0.07902 0.0
C546 C 0.61474 0.08863 0.0973 0.0
C547 C 0.60178 0.09029 0.07692 0.0
C548 C 0.58638 0.07049 0.06789 0.0
C549 C 0.59712 0.04702 0.09914 0.0
C550 C 0.61235 0.06676 0.10823 0.0
C551 C 0.56741 0.02788 0.07043 0.0
H552 H 0.39891 0.91926 0.98266 0.0
H553 H 0.42577 0.95063 1.00336 0.0
H554 H 0.42001 0.99859 0.94815 0.0
H555 H 0.39397 0.96716 0.927 0.0
H556 H 0.60316 0.10696 0.06825 0.0
H557 H 0.57618 0.07217 0.0524 0.0
H558 H 0.59546 0.03037 0.10793 0.0
H559 H 0.62237 0.06489 0.12378 0.0
Dy560 Dy 0.50464 0.48683 0.51437 0.0
Dy561 Dy 0.51015 0.53711 0.54141 0.0
C562 C 0.53112 0.4943 0.56318 0.0
O563 O 0.47394 0.48172 0.53956 0.0
O564 O 0.47076 0.52011 0.54415 0.0
O565 O 0.50127 0.44918 0.51509 0.0
O566 O 0.50316 0.46745 0.4827 0.0
O567 O 0.4985 0.5433 0.50557 0.0
O568 O 0.47944 0.5061 0.4958 0.0
O569 O 0.54781 0.53638 0.52874 0.0
O570 O 0.53649 0.51102 0.49892 0.0
O571 O 0.5197 0.57494 0.54165 0.0
O572 O 0.50538 0.55621 0.57226 0.0
C573 C 0.46197 0.49763 0.54679 0.0
O574 O 0.53153 0.48531 0.54256 0.0
O575 O 0.52058 0.51221 0.56708 0.0
C576 C 0.52468 0.43684 0.48596 0.0
C577 C 0.56412 0.41588 0.47344 0.0
C578 C 0.56808 0.43964 0.47974 0.0
C579 C 0.54856 0.44998 0.48603 0.0
C580 C 0.52057 0.41314 0.47977 0.0
C581 C 0.54017 0.4027 0.47358 0.0
C582 C 0.50438 0.44786 0.49304 0.0
C583 C 0.48374 0.52886 0.49219 0.0
C584 C 0.55265 0.52717 0.50912 0.0
C585 C 0.49184 0.59082 0.56411 0.0
C586 C 0.45249 0.61379 0.57093 0.0
C587 C 0.45361 0.60025 0.55116 0.0
C588 C 0.47304 0.58875 0.54784 0.0
C589 C 0.49118 0.60484 0.58352 0.0
C590 C 0.47164 0.61624 0.58693 0.0
C591 C 0.51063 0.57648 0.56206 0.0
H592 H 0.58633 0.45016 0.48013 0.0
H593 H 0.55211 0.46826 0.49106 0.0
H594 H 0.50226 0.40273 0.47975 0.0
H595 H 0.53656 0.3844 0.46863 0.0
H596 H 0.43898 0.59778 0.53869 0.0
H597 H 0.47302 0.57766 0.53291 0.0
H598 H 0.50541 0.60644 0.59634 0.0
H599 H 0.47136 0.62673 0.60222 0.0
Dy600 Dy 0.00717 0.54019 1.01506 0.0
Dy601 Dy 1.00298 0.49025 0.04227 0.0
C602 C 0.98185 0.53283 0.06409 0.0
O603 O 0.03813 0.5456 0.03996 0.0
O604 O 0.04232 0.50749 0.04414 0.0
O605 O 0.01283 0.57795 1.01576 0.0
O606 O 0.00563 0.55942 0.98357 0.0
O607 O 0.01431 0.48394 1.00638 0.0
O608 O 0.03217 0.52125 0.99576 0.0
O609 O 0.96501 0.49001 0.02989 0.0
O610 O 0.97519 0.51576 1.00014 0.0
O611 O 0.99466 0.45236 0.04266 0.0
O612 O 0.0076 0.47155 0.07338 0.0
C613 C 0.05072 0.53002 0.04675 0.0
O614 O 0.9801 0.54095 0.04328 0.0
O615 O 0.99366 0.5158 0.06792 0.0
C616 C 0.98734 0.59196 0.98921 0.0
C617 C 0.94761 0.61299 0.97767 0.0
C618 C 0.94775 0.60078 0.99845 0.0
C619 C 0.96735 0.59025 1.0041 0.0
C620 C 0.98754 0.60443 0.96867 0.0
C621 C 0.96784 0.61485 0.96292 0.0
C622 C 0.00708 0.57933 0.99422 0.0
C623 C 0.02839 0.49845 0.99253 0.0
C624 C 0.9596 0.49917 1.01042 0.0
C625 C 0.02274 0.43773 0.06558 0.0
C626 C 0.06161 0.41406 0.07217 0.0
C627 C 0.0645 0.43402 0.05807 0.0
C628 C 0.04523 0.44569 0.05478 0.0
C629 C 0.01952 0.41766 0.07935 0.0
C630 C 0.0388 0.40586 0.08259 0.0
C631 C 1.00327 0.45119 0.06329 0.0
H632 H 0.93266 0.59927 1.01035 0.0
H633 H 0.9667 0.5805 1.01996 0.0
H634 H 1.00268 0.60567 0.95685 0.0
H635 H 0.96819 0.6238 0.94662 0.0
H636 H 0.08186 0.44105 0.05008 0.0
H637 H 0.04803 0.46124 0.04413 0.0
H638 H 1.00225 0.41132 0.0878 0.0
H639 H 0.03587 0.39038 0.09331 0.0
H640 H 0.2086 0.23151 0.30503 0.0
H641 H 0.18756 0.20945 0.33706 0.0
H642 H 0.2567 0.20435 0.36731 0.0
H643 H 0.27798 0.2264 0.33506 0.0
H644 H 0.22715 0.1624 0.36388 0.0
H645 H 0.17567 0.22431 0.40303 0.0
H646 H 0.1703 0.22162 0.37277 0.0
H647 H 0.20046 0.23365 0.3832 0.0
C648 C 0.21937 0.2263 0.31881 0.0
C649 C 0.24496 0.23077 0.31756 0.0
C650 C 0.20729 0.21372 0.33717 0.0
C651 C 0.22054 0.20557 0.35478 0.0
C652 C 0.24613 0.21061 0.35395 0.0
H653 H 0.14255 0.12563 0.4692 0.0
H654 H 0.16962 0.15599 0.44719 0.0
C655 C 0.25825 0.22312 0.33551 0.0
C656 C 0.20759 0.18966 0.37256 0.0
H657 H 0.16031 0.1832 0.41056 0.0
C658 C 0.21282 0.1671 0.37437 0.0
C659 C 0.18909 0.19585 0.38646 0.0
C660 C 0.18373 0.22027 0.38645 0.0
C661 C 0.19924 0.1502 0.38883 0.0
C662 C 0.17957 0.15587 0.40142 0.0
C663 C 0.17515 0.17878 0.40058 0.0
C664 C 0.16278 0.13794 0.41473 0.0
C665 C 0.20597 0.12635 0.39029 0.0
C666 C 0.14954 0.11808 0.40364 0.0
C667 C 0.13414 0.10079 0.41611 0.0
C668 C 0.13147 0.10314 0.43989 0.0
C669 C 0.14417 0.1234 0.45087 0.0
C670 C 0.15969 0.14068 0.43836 0.0
H671 H 0.22536 0.12711 0.38557 0.0
H672 H 0.20286 0.1189 0.4078 0.0
H673 H 0.19453 0.11429 0.37812 0.0
H674 H 0.15114 0.11594 0.3853 0.0
H675 H 0.12421 0.0856 0.40711 0.0
H676 H 0.2574 0.83913 0.80225 0.0
H677 H 0.27881 0.85881 0.83537 0.0
H678 H 0.2927 0.79288 0.86012 0.0
H679 H 0.27054 0.77272 0.82731 0.0
H680 H 0.27127 0.8464 0.88709 0.0
H681 H 0.36129 0.84036 0.84887 0.0
H682 H 0.33431 0.83851 0.83143 0.0
H683 H 0.33752 0.81454 0.84968 0.0
C684 C 0.2644 0.82863 0.81498 0.0
C685 C 0.26226 0.8043 0.81205 0.0
C686 C 0.27677 0.83996 0.83383 0.0
C687 C 0.28739 0.82727 0.85 0.0
C688 C 0.2847 0.80293 0.84766 0.0
H689 H 0.39645 0.89419 0.94938 0.0
H690 H 0.36909 0.86384 0.92779 0.0
C691 C 0.27217 0.7915 0.82885 0.0
C692 C 0.30251 0.83994 0.86846 0.0
H693 H 0.3616 0.8625 0.88246 0.0
C694 C 0.29103 0.84971 0.88632 0.0
C695 C 0.32821 0.84401 0.86738 0.0
C696 C 0.34124 0.83393 0.84832 0.0
C697 C 0.30469 0.86404 0.90293 0.0
C698 C 0.33043 0.8692 0.90114 0.0
C699 C 0.34188 0.85858 0.88378 0.0
C700 C 0.34576 0.88697 0.91586 0.0
C701 C 0.29138 0.87359 0.92211 0.0
C702 C 0.34179 0.91004 0.91625 0.0
C703 C 0.35718 0.92731 0.92874 0.0
C704 C 0.37717 0.92199 0.94081 0.0
C705 C 0.38106 0.89882 0.94051 0.0
C706 C 0.36552 0.88148 0.92809 0.0
H707 H 0.27361 0.86185 0.92574 0.0
H708 H 0.30236 0.87589 0.93809 0.0
H709 H 0.28758 0.89088 0.91696 0.0
H710 H 0.32706 0.91485 0.90647 0.0
H711 H 0.35344 0.94488 0.92883 0.0
H712 H 0.57966 0.38498 0.74728 0.0
H713 H 0.56336 0.3992 0.71236 0.0
H714 H 0.63494 0.43788 0.69514 0.0
H715 H 0.65171 0.42231 0.72883 0.0
H716 H 0.55931 0.44049 0.69917 0.0
H717 H 0.61749 0.40851 0.63498 0.0
H718 H 0.6169 0.39949 0.66456 0.0
H719 H 0.6358 0.42677 0.65563 0.0
C720 C 0.59213 0.39603 0.73584 0.0
C721 C 0.61715 0.40234 0.74116 0.0
C722 C 0.58267 0.4044 0.71588 0.0
C723 C 0.5979 0.41938 0.70069 0.0
C724 C 0.62279 0.42586 0.70606 0.0
H725 H 0.54512 0.51377 0.60503 0.0
H726 H 0.56125 0.49548 0.63775 0.0
C727 C 0.63232 0.41724 0.72576 0.0
C728 C 0.58764 0.42903 0.67983 0.0
H729 H 0.59665 0.43855 0.6223 0.0
C730 C 0.56739 0.43984 0.68234 0.0
C731 C 0.59771 0.42791 0.65762 0.0
C732 C 0.61798 0.41481 0.65299 0.0
C733 C 0.55739 0.44997 0.66359 0.0
C734 C 0.56847 0.45021 0.64169 0.0
C735 C 0.58832 0.43886 0.63906 0.0
C736 C 0.55964 0.46184 0.62128 0.0
C737 C 0.53465 0.45978 0.6675 0.0
C738 C 0.55454 0.44965 0.60046 0.0
C739 C 0.54594 0.46036 0.58143 0.0
C740 C 0.542 0.48349 0.58278 0.0
C741 C 0.54762 0.49585 0.60343 0.0
C742 C 0.55664 0.48528 0.62231 0.0
H743 H 0.52409 0.45131 0.6824 0.0
H744 H 0.53987 0.47879 0.67128 0.0
H745 H 0.52261 0.45738 0.65221 0.0
H746 H 0.55682 0.43164 0.59901 0.0
H747 H 0.54177 0.45028 0.56583 0.0
H748 H 0.86822 0.62013 0.22837 0.0
H749 H 0.88136 0.60095 0.19461 0.0
H750 H 0.95642 0.6239 0.21456 0.0
H751 H 0.94344 0.64316 0.24835 0.0
H752 H 0.95006 0.63084 0.16904 0.0
H753 H 0.90598 0.54003 0.19211 0.0
H754 H 0.88521 0.55994 0.1912 0.0
H755 H 0.90915 0.56397 0.21224 0.0
C756 C 0.88753 0.6209 0.22575 0.0
C757 C 0.90473 0.63317 0.24125 0.0
C758 C 0.89503 0.60987 0.20639 0.0
C759 C 0.9199 0.61059 0.20213 0.0
C760 C 0.93712 0.62301 0.21742 0.0
H761 H 0.98394 0.52207 0.10971 0.0
H762 H 0.9686 0.54118 0.14233 0.0
C763 C 0.92965 0.63412 0.23674 0.0
C764 C 0.92806 0.59878 0.18158 0.0
H765 H 0.92294 0.54572 0.15477 0.0
C766 C 0.94412 0.61222 0.16594 0.0
C767 C 0.92061 0.57441 0.17758 0.0
C768 C 0.90448 0.55867 0.19426 0.0
C769 C 0.95274 0.60207 0.14645 0.0
C770 C 0.94477 0.57781 0.14213 0.0
C771 C 0.92887 0.56434 0.15786 0.0
C772 C 0.95346 0.5659 0.12191 0.0
C773 C 0.97086 0.61735 0.13101 0.0
C774 C 0.94972 0.57303 0.09938 0.0
C775 C 0.95858 0.56214 0.08059 0.0
C776 C 0.97122 0.54369 0.08387 0.0
C777 C 0.97436 0.53621 0.10643 0.0
C778 C 0.96556 0.54714 0.12518 0.0
H779 H 0.97992 0.63368 0.13979 0.0
H780 H 0.9851 0.60786 0.125 0.0
H781 H 0.96119 0.62241 0.11579 0.0
H782 H 0.93995 0.58707 0.0963 0.0
H783 H 0.95566 0.56832 0.06351 0.0
H784 H 0.39803 0.21406 0.14478 0.0
H785 H 0.42056 0.18865 0.12372 0.0
H786 H 0.38352 0.129 0.16228 0.0
H787 H 0.36084 0.15413 0.18322 0.0
H788 H 0.43428 0.13187 0.15868 0.0
H789 H 0.39129 0.1409 0.07409 0.0
H790 H 0.40496 0.16795 0.08778 0.0
H791 H 0.37888 0.14952 0.1006 0.0
C792 C 0.39459 0.19551 0.14866 0.0
C793 C 0.37764 0.18611 0.16567 0.0
C794 C 0.40747 0.18104 0.13663 0.0
C795 C 0.40349 0.15693 0.1413 0.0
C796 C 0.38686 0.14758 0.15846 0.0
H797 H 0.43583 0.04197 0.0622 0.0
H798 H 0.4174 0.07026 0.08344 0.0
C799 C 0.37402 0.16199 0.17048 0.0
C800 C 0.41652 0.14128 0.12835 0.0
H801 H 0.42247 0.11876 0.0751 0.0
C802 C 0.4318 0.12905 0.14039 0.0
C803 C 0.41298 0.13749 0.10455 0.0
C804 C 0.396 0.14948 0.09095 0.0
C805 C 0.44365 0.11304 0.12926 0.0
C806 C 0.44031 0.10943 0.10541 0.0
C807 C 0.42508 0.12171 0.09336 0.0
C808 C 0.45176 0.09235 0.09278 0.0
C809 C 0.45909 0.09963 0.14318 0.0
C810 C 0.4772 0.09551 0.0909 0.0
C811 C 0.48783 0.07934 0.07881 0.0
C812 C 0.47317 0.05978 0.06829 0.0
C813 C 0.44767 0.05677 0.07014 0.0
C814 C 0.43709 0.07295 0.08222 0.0
H815 H 0.45541 0.10055 0.16184 0.0
H816 H 0.4558 0.08094 0.13792 0.0
H817 H 0.47863 0.10722 0.14022 0.0
H818 H 0.48882 0.11059 0.09862 0.0
H819 H 0.50751 0.08226 0.07761 0.0
H820 H 0.14727 0.83854 0.62825 0.0
H821 H 0.12378 0.86424 0.60909 0.0
H822 H 0.07387 0.85713 0.66611 0.0
H823 H 0.09697 0.83104 0.68529 0.0
H824 H 0.072 0.85763 0.59729 0.0
H825 H 0.10266 0.92894 0.66049 0.0
H826 H 0.1176 0.90428 0.65732 0.0
H827 H 0.089 0.90083 0.67215 0.0
C828 C 0.131 0.842 0.63653 0.0
C829 C 0.12411 0.83287 0.6584 0.0
C830 C 0.11769 0.8568 0.62559 0.0
C831 C 0.09735 0.86281 0.63636 0.0
C832 C 0.08977 0.85296 0.65771 0.0
H833 H 0.99774 0.94411 0.5747 0.0
H834 H 0.01452 0.91386 0.59477 0.0
C835 C 0.10302 0.83812 0.66865 0.0
C836 C 0.08484 0.88027 0.6257 0.0
H837 H 0.07552 0.93623 0.63171 0.0
C838 C 0.0726 0.87477 0.60484 0.0
C839 C 0.08597 0.90268 0.63553 0.0
C840 C 0.09965 0.90973 0.65752 0.0
C841 C 0.06142 0.89117 0.5935 0.0
C842 C 0.06244 0.91352 0.60342 0.0
C843 C 0.07464 0.91899 0.62429 0.0
C844 C 0.05204 0.93194 0.59181 0.0
C845 C 0.0492 0.88475 0.57071 0.0
C846 C 0.06756 0.95232 0.58401 0.0
C847 C 0.05808 0.96964 0.5726 0.0
C848 C 0.03284 0.96697 0.56892 0.0
C849 C 0.01727 0.94671 0.57721 0.0
C850 C 0.02681 0.92934 0.58856 0.0
H851 H 0.05397 0.86858 0.56343 0.0
H852 H 0.02913 0.8817 0.57299 0.0
H853 H 0.05441 0.89925 0.55821 0.0
H854 H 0.08709 0.95467 0.58647 0.0
H855 H 0.0706 0.98502 0.56651 0.0
H856 H 0.7797 0.37481 0.90454 0.0
H857 H 0.81608 0.39509 0.92454 0.0
H858 H 0.79025 0.46006 0.91977 0.0
H859 H 0.75332 0.43966 0.90005 0.0
H860 H 0.85212 0.43277 0.91109 0.0
H861 H 0.80339 0.45416 0.9889 0.0
H862 H 0.78919 0.43313 0.96784 0.0
H863 H 0.79283 0.46396 0.96222 0.0
C864 C 0.78167 0.39342 0.9078 0.0
C865 C 0.76343 0.40556 0.90095 0.0
C866 C 0.80256 0.405 0.91915 0.0
C867 C 0.80572 0.42901 0.92405 0.0
C868 C 0.78798 0.44143 0.91657 0.0
H869 H 0.9424 0.51486 0.9707 0.0
H870 H 0.9049 0.4986 0.95025 0.0
C871 C 0.76702 0.42982 0.90508 0.0
C872 C 0.82762 0.44074 0.93705 0.0
H873 H 0.84601 0.4682 0.9877 0.0
C874 C 0.85078 0.44061 0.92779 0.0
C875 C 0.82587 0.45063 0.95901 0.0
C876 C 0.80153 0.45038 0.97025 0.0
C877 C 0.87218 0.4502 0.93981 0.0
C878 C 0.87044 0.46045 0.9616 0.0
C879 C 0.84731 0.46046 0.97094 0.0
C880 C 0.89252 0.47111 0.9749 0.0
C881 C 0.89651 0.4488 0.92929 0.0
C882 C 0.89771 0.46154 0.99601 0.0
C883 C 0.91923 0.47086 1.00788 0.0
C884 C 0.93591 0.49002 0.9989 0.0
C885 C 0.93017 0.49998 0.9781 0.0
C886 C 0.90873 0.49066 0.96628 0.0
H887 H 0.89467 0.43563 0.91529 0.0
H888 H 0.9048 0.46612 0.92196 0.0
H889 H 0.90919 0.44425 0.94242 0.0
H890 H 0.88537 0.44651 1.00303 0.0
H891 H 0.92299 0.46278 1.02385 0.0
H892 H 0.72811 0.59289 0.36636 0.0
H893 H 0.6923 0.57594 0.38934 0.0
H894 H 0.72897 0.60582 0.45045 0.0
H895 H 0.76509 0.62218 0.42789 0.0
H896 H 0.69071 0.54494 0.43191 0.0
H897 H 0.66199 0.6302 0.44615 0.0
H898 H 0.68146 0.62551 0.42258 0.0
H899 H 0.69356 0.62928 0.45109 0.0
C900 C 0.72876 0.59559 0.38473 0.0
C901 C 0.74953 0.60912 0.39517 0.0
C902 C 0.70819 0.586 0.39781 0.0
C903 C 0.70789 0.5899 0.42154 0.0
C904 C 0.7287 0.60292 0.4321 0.0
H905 H 0.59231 0.55917 0.5246 0.0
H906 H 0.63081 0.57343 0.5044 0.0
C907 C 0.7493 0.61236 0.41911 0.0
C908 C 0.68579 0.58053 0.43529 0.0
H909 H 0.63915 0.59714 0.46474 0.0
C910 C 0.67938 0.5563 0.43908 0.0
C911 C 0.67124 0.59544 0.44481 0.0
C912 C 0.67719 0.62157 0.44093 0.0
C913 C 0.65886 0.54658 0.45231 0.0
C914 C 0.64392 0.56144 0.46145 0.0
C915 C 0.65054 0.58573 0.45779 0.0
C916 C 0.62094 0.55214 0.47416 0.0
C917 C 0.65373 0.52053 0.45674 0.0
C918 C 0.60245 0.53557 0.46389 0.0
C919 C 0.58057 0.52727 0.47544 0.0
C920 C 0.57641 0.5356 0.49746 0.0
C921 C 0.59488 0.55232 0.50771 0.0
C922 C 0.6169 0.56052 0.49616 0.0
H923 H 0.67057 0.51316 0.4553 0.0
H924 H 0.64574 0.51635 0.47401 0.0
H925 H 0.6406 0.51166 0.44376 0.0
H926 H 0.60474 0.5293 0.44671 0.0
H927 H 0.56675 0.51453 0.46687 0.0
H928 H 0.2384 0.30241 0.1073 0.0
H929 H 0.20742 0.32025 0.08843 0.0
H930 H 0.21571 0.37361 0.14071 0.0
H931 H 0.24702 0.35617 0.15939 0.0
H932 H 0.16403 0.32399 0.11044 0.0
H933 H 0.21343 0.4111 0.0814 0.0
H934 H 0.22882 0.38743 0.08838 0.0
H935 H 0.21922 0.40483 0.11078 0.0
C936 C 0.23416 0.31836 0.11437 0.0
C937 C 0.2451 0.32789 0.13484 0.0
C938 C 0.21636 0.32843 0.10365 0.0
C939 C 0.20942 0.34833 0.11308 0.0
C940 C 0.22109 0.35848 0.13294 0.0
H941 H 0.07457 0.39636 0.11277 0.0
H942 H 0.11017 0.37904 0.12052 0.0
C943 C 0.23881 0.34839 0.1437 0.0
C944 C 0.18819 0.35693 0.10375 0.0
H945 H 0.16988 0.40584 0.08373 0.0
C946 C 0.16534 0.34179 0.1043 0.0
C947 C 0.19 0.3801 0.09565 0.0
C948 C 0.21422 0.39677 0.09378 0.0
C949 C 0.14409 0.34949 0.0978 0.0
C950 C 0.14576 0.37299 0.09079 0.0
C951 C 0.16869 0.38788 0.08933 0.0
C952 C 0.12377 0.38265 0.08573 0.0
C953 C 0.11999 0.33252 0.0987 0.0
C954 C 0.11976 0.39052 0.06363 0.0
C955 C 0.09929 0.40024 0.05908 0.0
C956 C 0.08262 0.40249 0.07663 0.0
C957 C 0.08674 0.39448 0.09876 0.0
C958 C 0.10713 0.38467 0.10325 0.0
H959 H 0.12245 0.31403 0.0989 0.0
H960 H 0.11017 0.33568 0.11457 0.0
H961 H 0.10839 0.33506 0.08383 0.0
H962 H 0.13245 0.3891 0.04992 0.0
H963 H 0.09654 0.40598 0.0418 0.0
H964 H 0.55838 0.23992 0.87822 0.0
H965 H 0.54326 0.20364 0.89959 0.0
H966 H 0.6171 0.1948 0.91065 0.0
H967 H 0.63232 0.23065 0.88914 0.0
H968 H 0.55121 0.15653 0.89284 0.0
H969 H 0.58841 0.19371 0.97602 0.0
H970 H 0.58513 0.2118 0.95153 0.0
H971 H 0.61024 0.19673 0.95309 0.0
C972 C 0.57139 0.2301 0.88494 0.0
C973 C 0.59661 0.23845 0.88218 0.0
C974 C 0.56272 0.20942 0.89727 0.0
C975 C 0.57907 0.19676 0.90716 0.0
C976 C 0.60416 0.20456 0.90368 0.0
H977 H 0.56757 0.07374 0.99473 0.0
H978 H 0.58139 0.10848 0.97094 0.0
C979 C 0.61282 0.22513 0.89137 0.0
C980 C 0.57006 0.17548 0.92127 0.0
H981 H 0.57245 0.15289 0.97514 0.0
C982 C 0.55572 0.15575 0.91087 0.0
C983 C 0.57604 0.17444 0.94478 0.0
C984 C 0.59062 0.19534 0.95713 0.0
C985 C 0.54766 0.13486 0.92319 0.0
C986 C 0.55365 0.1338 0.94672 0.0
C987 C 0.56791 0.15361 0.95712 0.0
C988 C 0.54515 0.11244 0.96094 0.0
C989 C 0.5334 0.1139 0.91068 0.0
C990 C 0.52017 0.10321 0.96357 0.0
C991 C 0.5122 0.0833 0.97709 0.0
C992 C 0.52903 0.07222 0.98853 0.0
C993 C 0.55407 0.08169 0.98613 0.0
C994 C 0.56201 0.1016 0.97253 0.0
H995 H 0.53643 0.11533 0.89187 0.0
H996 H 0.53842 0.09739 0.91676 0.0
H997 H 0.51365 0.11282 0.91388 0.0
H998 H 0.50674 0.11155 0.95534 0.0
H999 H 0.49279 0.07669 0.97864 0.0
H1000 H 0.87004 0.80024 0.39349 0.0
H1001 H 0.88871 0.8369 0.41216 0.0
H1002 H 0.95956 0.8189 0.40518 0.0
H1003 H 0.94086 0.78185 0.38653 0.0
H1004 H 0.91543 0.83913 0.45355 0.0
H1005 H 0.9707 0.88802 0.38351 0.0
H1006 H 0.94611 0.86349 0.37806 0.0
H1007 H 0.97491 0.85855 0.38838 0.0
C1008 C 0.88964 0.80411 0.39575 0.0
C1009 C 0.90393 0.78797 0.3887 0.0
C1010 C 0.90029 0.82514 0.40638 0.0
C1011 C 0.92553 0.83072 0.41007 0.0
C1012 C 0.94007 0.81513 0.40225 0.0
H1013 H 0.01563 0.94839 0.48211 0.0
H1014 H 1.00063 0.91281 0.46 0.0
C1015 C 0.92937 0.79397 0.39156 0.0
C1016 C 0.9361 0.85206 0.42353 0.0
H1017 H 0.97437 0.90551 0.42024 0.0
C1018 C 0.92831 0.85366 0.44626 0.0
C1019 C 0.95304 0.87093 0.41408 0.0
C1020 C 0.96163 0.87038 0.38962 0.0
C1021 C 0.93698 0.87352 0.4598 0.0
C1022 C 0.9535 0.89267 0.45022 0.0
C1023 C 0.96161 0.89092 0.42757 0.0
C1024 C 0.96253 0.91461 0.46343 0.0
C1025 C 0.92869 0.87356 0.48442 0.0
C1026 C 0.94617 0.92777 0.47251 0.0
C1027 C 0.95468 0.94811 0.48531 0.0
C1028 C 0.9798 0.95592 0.48912 0.0
C1029 C 0.99617 0.94293 0.47961 0.0
C1030 C 0.98762 0.92256 0.46689 0.0
H1031 H 0.92211 0.85548 0.49091 0.0
H1032 H 0.94365 0.88245 0.49571 0.0
H1033 H 0.91337 0.88307 0.48564 0.0
H1034 H 0.92676 0.92236 0.46964 0.0
H1035 H 0.94154 0.95771 0.49218 0.0
H1036 H 0.27187 0.72171 0.60148 0.0
H1037 H 0.30194 0.70234 0.58302 0.0
H1038 H 0.30149 0.65786 0.64221 0.0
H1039 H 0.27077 0.67636 0.66027 0.0
H1040 H 0.34716 0.70329 0.59899 0.0
H1041 H 0.29978 0.61095 0.59146 0.0
H1042 H 0.2837 0.6344 0.59721 0.0
H1043 H 0.29824 0.62159 0.62015 0.0
C1044 C 0.27762 0.70732 0.61025 0.0
C1045 C 0.26899 0.70063 0.63238 0.0
C1046 C 0.29494 0.69638 0.59975 0.0
C1047 C 0.30379 0.67848 0.61111 0.0
C1048 C 0.29458 0.67126 0.63287 0.0
H1049 H 0.42734 0.61341 0.61103 0.0
H1050 H 0.3908 0.62957 0.61828 0.0
C1051 C 0.27723 0.68209 0.64331 0.0
C1052 C 0.32438 0.66895 0.60144 0.0
H1053 H 0.34382 0.61786 0.59079 0.0
C1054 C 0.3463 0.68464 0.59676 0.0
C1055 C 0.32323 0.64461 0.59854 0.0
C1056 C 0.29988 0.62696 0.60188 0.0
C1057 C 0.3674 0.67657 0.59035 0.0
C1058 C 0.36649 0.65222 0.58852 0.0
C1059 C 0.34443 0.63654 0.5924 0.0
C1060 C 0.38861 0.64266 0.58383 0.0
C1061 C 0.39082 0.69401 0.58653 0.0
C1062 C 0.39937 0.64472 0.56203 0.0
C1063 C 0.42028 0.63554 0.55783 0.0
C1064 C 0.43079 0.62427 0.57542 0.0
C1065 C 0.41991 0.62232 0.59724 0.0
C1066 C 0.39895 0.63135 0.60137 0.0
H1067 H 0.38914 0.71213 0.59124 0.0
H1068 H 0.40579 0.68903 0.59672 0.0
H1069 H 0.39601 0.69387 0.56818 0.0
H1070 H 0.39152 0.65331 0.54827 0.0
H1071 H 0.42831 0.63736 0.54087 0.0
H1072 H 0.70942 0.82251 0.70831 0.0
H1073 H 0.73172 0.84162 0.67505 0.0
H1074 H 0.79964 0.83365 0.70595 0.0
H1075 H 0.77779 0.81516 0.73925 0.0
H1076 H 0.76735 0.8831 0.67751 0.0
H1077 H 0.80606 0.81094 0.64001 0.0
H1078 H 0.78053 0.80587 0.6596 0.0
H1079 H 0.81116 0.81415 0.67031 0.0
C1080 C 0.72909 0.8247 0.70794 0.0
C1081 C 0.74178 0.81716 0.72642 0.0
C1082 C 0.74176 0.83546 0.68887 0.0
C1083 C 0.76727 0.83862 0.68788 0.0
C1084 C 0.7799 0.83078 0.70608 0.0
H1085 H 0.89242 0.91673 0.62398 0.0
H1086 H 0.86136 0.88864 0.64419 0.0
C1087 C 0.76733 0.82017 0.72513 0.0
C1088 C 0.78111 0.85211 0.66903 0.0
H1089 H 0.82599 0.8501 0.62987 0.0
C1090 C 0.77981 0.87582 0.66671 0.0
C1091 C 0.79738 0.84252 0.6551 0.0
C1092 C 0.79873 0.8169 0.65619 0.0
C1093 C 0.79545 0.8906 0.6518 0.0
C1094 C 0.81245 0.88121 0.63852 0.0
C1095 C 0.81297 0.85724 0.6401 0.0
C1096 C 0.83116 0.89639 0.62444 0.0
C1097 C 0.79462 0.91638 0.65139 0.0
C1098 C 0.82452 0.90953 0.60619 0.0
C1099 C 0.84224 0.92564 0.59463 0.0
C1100 C 0.86692 0.92869 0.601 0.0
C1101 C 0.87361 0.91465 0.61854 0.0
C1102 C 0.85588 0.89865 0.63015 0.0
H1103 H 0.78401 0.9215 0.66598 0.0
H1104 H 0.81331 0.92719 0.65195 0.0
H1105 H 0.78584 0.92052 0.63527 0.0
H1106 H 0.80559 0.90767 0.60121 0.0
H1107 H 0.83661 0.93595 0.58093 0.0
H1108 H 0.75863 0.19243 0.23364 0.0
H1109 H 0.7366 0.17413 0.20039 0.0
H1110 H 0.72846 0.24189 0.17534 0.0
H1111 H 0.75105 0.26059 0.2086 0.0
H1112 H 0.68493 0.21012 0.17823 0.0
H1113 H 0.75314 0.17003 0.13271 0.0
H1114 H 0.75227 0.1632 0.16271 0.0
H1115 H 0.76155 0.19317 0.15355 0.0
C1116 C 0.75292 0.20361 0.22075 0.0
C1117 C 0.75674 0.22804 0.22379 0.0
C1118 C 0.74028 0.19307 0.2017 0.0
C1119 C 0.73122 0.20667 0.18521 0.0
C1120 C 0.73548 0.23111 0.18781 0.0
H1121 H 0.64821 0.12228 0.07558 0.0
H1122 H 0.67612 0.15537 0.09327 0.0
C1123 C 0.74825 0.24173 0.20688 0.0
C1124 C 0.71506 0.1949 0.16687 0.0
H1125 H 0.71077 0.15145 0.12695 0.0
C1126 C 0.6907 0.1977 0.16661 0.0
C1127 C 0.72266 0.17896 0.15148 0.0
C1128 C 0.74892 0.17634 0.14993 0.0
C1129 C 0.67334 0.18362 0.15266 0.0
C1130 C 0.68052 0.16616 0.13889 0.0
C1131 C 0.70523 0.16466 0.13777 0.0
C1132 C 0.66242 0.14765 0.12766 0.0
C1133 C 0.64729 0.18702 0.15339 0.0
C1134 C 0.64559 0.13241 0.14116 0.0
C1135 C 0.62978 0.11359 0.13117 0.0
C1136 C 0.63055 0.10956 0.10747 0.0
C1137 C 0.6471 0.1251 0.09386 0.0
C1138 C 0.66307 0.14392 0.10392 0.0
H1139 H 0.64628 0.20525 0.15833 0.0
H1140 H 0.63818 0.18302 0.13655 0.0
H1141 H 0.63708 0.17507 0.1664 0.0
H1142 H 0.64512 0.1347 0.15957 0.0
H1143 H 0.61708 0.10204 0.14206 0.0
H1144 H 0.4111 0.64942 0.32761 0.0
H1145 H 0.4281 0.63344 0.36142 0.0
H1146 H 0.4072 0.56373 0.33373 0.0
H1147 H 0.39119 0.57956 0.29959 0.0
H1148 H 0.40529 0.60261 0.39343 0.0
H1149 H 0.477 0.56434 0.35099 0.0
H1150 H 0.46134 0.58452 0.33658 0.0
H1151 H 0.44734 0.55401 0.33898 0.0
C1152 C 0.41053 0.63073 0.32848 0.0
C1153 C 0.39971 0.61585 0.31072 0.0
C1154 C 0.42009 0.62158 0.34796 0.0
C1155 C 0.41928 0.59736 0.3501 0.0
C1156 C 0.40856 0.5825 0.33239 0.0
H1157 H 0.45791 0.5051 0.45636 0.0
H1158 H 0.44159 0.52176 0.42252 0.0
C1159 C 0.39907 0.59161 0.31293 0.0
C1160 C 0.42875 0.58749 0.37115 0.0
H1161 H 0.46784 0.55289 0.38972 0.0
C1162 C 0.4191 0.59189 0.3926 0.0
C1163 C 0.44676 0.5734 0.3702 0.0
C1164 C 0.4589 0.56896 0.34798 0.0
C1165 C 0.42652 0.58225 0.41293 0.0
C1166 C 0.44434 0.568 0.41193 0.0
C1167 C 0.45406 0.56365 0.39052 0.0
C1168 C 0.45354 0.55786 0.43292 0.0
C1169 C 0.41481 0.58698 0.43529 0.0
C1170 C 0.46579 0.57255 0.45006 0.0
C1171 C 0.47517 0.56309 0.46939 0.0
C1172 C 0.47259 0.53866 0.4721 0.0
C1173 C 0.46015 0.52396 0.45497 0.0
C1174 C 0.45086 0.53347 0.43555 0.0
H1175 H 0.39732 0.59292 0.43252 0.0
H1176 H 0.41134 0.57109 0.44626 0.0
H1177 H 0.42728 0.60101 0.44468 0.0
H1178 H 0.46849 0.59141 0.4483 0.0
H1179 H 0.48466 0.57502 0.48214 0.0
H1180 H 0.09279 0.371 0.832 0.0
H1181 H 0.07943 0.3906 0.86536 0.0
H1182 H 0.10342 0.45763 0.83283 0.0
H1183 H 0.11588 0.43816 0.79901 0.0
H1184 H 0.10547 0.42254 0.89471 0.0
H1185 H 0.0349 0.4621 0.8516 0.0
H1186 H 0.0485 0.43982 0.83821 0.0
H1187 H 0.06449 0.4698 0.83868 0.0
C1188 C 0.09489 0.38989 0.83171 0.0
C1189 C 0.10532 0.40289 0.81258 0.0
C1190 C 0.08741 0.40111 0.85095 0.0
C1191 C 0.09002 0.42562 0.85157 0.0
C1192 C 0.10069 0.43869 0.83266 0.0
H1193 H 0.05367 0.52201 0.95623 0.0
H1194 H 0.06998 0.50511 0.92247 0.0
C1195 C 0.10813 0.42749 0.81339 0.0
C1196 C 0.08207 0.43744 0.8722 0.0
H1197 H 0.04433 0.47371 0.89003 0.0
C1198 C 0.09205 0.43368 0.89366 0.0
C1199 C 0.06461 0.45209 0.87093 0.0
C1200 C 0.05231 0.45606 0.84867 0.0
C1201 C 0.08524 0.44422 0.91373 0.0
C1202 C 0.06766 0.45871 0.91249 0.0
C1203 C 0.05787 0.4627 0.89102 0.0
C1204 C 0.05848 0.46911 0.93335 0.0
C1205 C 0.0972 0.43998 0.93609 0.0
C1206 C 0.04644 0.45456 0.95069 0.0
C1207 C 0.0371 0.46414 0.96996 0.0
C1208 C 0.03945 0.48858 0.9724 0.0
C1209 C 0.05161 0.50316 0.95504 0.0
C1210 C 0.0609 0.49351 0.93567 0.0
H1211 H 0.1148 0.43425 0.93329 0.0
H1212 H 0.10056 0.45602 0.94687 0.0
H1213 H 0.08499 0.42593 0.9457 0.0
H1214 H 0.04389 0.43569 0.94916 0.0
H1215 H 0.0278 0.45229 0.98287 0.0
H1216 H 0.60121 0.83016 0.87319 0.0
H1217 H 0.57976 0.85852 0.89094 0.0
H1218 H 0.62582 0.86154 0.95053 0.0
H1219 H 0.64782 0.83385 0.93271 0.0
H1220 H 0.55453 0.85723 0.93343 0.0
H1221 H 0.63472 0.93028 0.92977 0.0
H1222 H 0.63306 0.90352 0.91366 0.0
H1223 H 0.64065 0.90442 0.94363 0.0
C1224 C 0.6068 0.83691 0.89006 0.0
C1225 C 0.62635 0.82987 0.90147 0.0
C1226 C 0.59445 0.853 0.90021 0.0
C1227 C 0.60151 0.8624 0.92185 0.0
C1228 C 0.62038 0.85477 0.93363 0.0
H1229 H 0.56124 0.95985 1.01713 0.0
H1230 H 0.57856 0.93097 0.99581 0.0
C1231 C 0.63274 0.83872 0.92353 0.0
C1232 C 0.5895 0.88051 0.93203 0.0
H1233 H 0.60099 0.9367 0.95203 0.0
C1234 C 0.56458 0.87469 0.93733 0.0
C1235 C 0.60269 0.90328 0.93692 0.0
C1236 C 0.6292 0.91089 0.93051 0.0
C1237 C 0.55268 0.89082 0.94827 0.0
C1238 C 0.56606 0.91338 0.9537 0.0
C1239 C 0.59083 0.91934 0.9479 0.0
C1240 C 0.55506 0.93075 0.96637 0.0
C1241 C 0.52616 0.88337 0.95467 0.0
C1242 C 0.53623 0.94038 0.95673 0.0
C1243 C 0.52624 0.95699 0.96888 0.0
C1244 C 0.53499 0.96426 0.99084 0.0
C1245 C 0.554 0.95465 1.00029 0.0
C1246 C 0.56396 0.93813 0.98814 0.0
H1247 H 0.51984 0.86408 0.95338 0.0
H1248 H 0.52293 0.88898 0.9724 0.0
H1249 H 0.51493 0.89185 0.9429 0.0
H1250 H 0.5294 0.93518 0.93976 0.0
H1251 H 0.51166 0.96406 0.96108 0.0
H1252 H 0.89811 0.21081 0.4056 0.0
H1253 H 0.92051 0.18564 0.42704 0.0
H1254 H 0.8924 0.12798 0.38194 0.0
H1255 H 0.86927 0.15266 0.36101 0.0
H1256 H 0.8876 0.11581 0.4271 0.0
H1257 H 0.9821 0.16219 0.40883 0.0
H1258 H 0.9629 0.18063 0.4206 0.0
H1259 H 0.95612 0.16759 0.39284 0.0
C1260 C 0.89667 0.19276 0.40028 0.0
C1261 C 0.88199 0.18379 0.38151 0.0
C1262 C 0.90972 0.17849 0.41237 0.0
C1263 C 0.90844 0.15506 0.40583 0.0
C1264 C 0.89382 0.14608 0.38713 0.0
H1265 H 0.99692 0.05782 0.45663 0.0
H1266 H 0.97799 0.08397 0.43273 0.0
C1267 C 0.88075 0.16028 0.37509 0.0
C1268 C 0.92124 0.13946 0.41916 0.0
H1269 H 0.97738 0.13237 0.43738 0.0
C1270 C 0.90724 0.11938 0.42926 0.0
C1271 C 0.94689 0.14399 0.42169 0.0
C1272 C 0.96295 0.16465 0.41024 0.0
C1273 C 0.91813 0.10393 0.44221 0.0
C1274 C 0.94367 0.10893 0.44549 0.0
C1275 C 0.95777 0.12873 0.435 0.0
C1276 C 0.95594 0.09392 0.46007 0.0
C1277 C 0.9022 0.08224 0.45207 0.0
C1278 C 0.95016 0.09129 0.48342 0.0
C1279 C 0.96082 0.07637 0.49706 0.0
C1280 C 0.97764 0.06388 0.48766 0.0
C1281 C 0.98395 0.06708 0.46438 0.0
C1282 C 0.9732 0.08203 0.45071 0.0
H1283 H 0.88445 0.07773 0.44298 0.0
H1284 H 0.9114 0.06699 0.45114 0.0
H1285 H 0.89841 0.08539 0.47035 0.0
H1286 H 0.93726 0.10069 0.49108 0.0
H1287 H 0.9557 0.07453 0.51497 0.0
H1288 H 0.26246 0.6256 0.12023 0.0
H1289 H 0.22512 0.60571 0.10156 0.0
H1290 H 0.19498 0.58138 0.16722 0.0
H1291 H 0.23206 0.60215 0.18622 0.0
H1292 H 0.20174 0.56017 0.09967 0.0
H1293 H 0.14289 0.61422 0.142 0.0
H1294 H 0.17572 0.62151 0.14333 0.0
H1295 H 0.15913 0.59884 0.16139 0.0
C1296 C 0.24785 0.61619 0.13079 0.0
C1297 C 0.25016 0.61587 0.15481 0.0
C1298 C 0.22655 0.60463 0.12003 0.0
C1299 C 0.207 0.59241 0.13298 0.0
C1300 C 0.20959 0.59113 0.15689 0.0
H1301 H 0.07931 0.5034 0.06857 0.0
H1302 H 0.11712 0.51717 0.08981 0.0
C1303 C 0.23094 0.60279 0.16771 0.0
C1304 C 0.18384 0.58161 0.12128 0.0
H1305 H 0.12338 0.58401 0.11759 0.0
C1306 C 0.18457 0.56529 0.10366 0.0
C1307 C 0.16149 0.58855 0.12624 0.0
C1308 C 0.15968 0.60689 0.14411 0.0
C1309 C 0.16368 0.55587 0.09079 0.0
C1310 C 0.14127 0.56259 0.09595 0.0
C1311 C 0.14051 0.57875 0.1137 0.0
C1312 C 0.11859 0.55391 0.08259 0.0
C1313 C 0.16603 0.53944 0.07126 0.0
C1314 C 0.10652 0.56994 0.07175 0.0
C1315 C 0.08477 0.56215 0.05979 0.0
C1316 C 0.07453 0.5381 0.05839 0.0
C1317 C 0.08676 0.52203 0.0691 0.0
C1318 C 0.10848 0.52987 0.08119 0.0
H1319 H 0.1853 0.54092 0.06578 0.0
H1320 H 0.1592 0.52113 0.07689 0.0
H1321 H 0.1551 0.54297 0.05625 0.0
H1322 H 0.11391 0.58857 0.07259 0.0
H1323 H 0.07589 0.57505 0.0518 0.0
H1324 H 0.28595 0.43743 0.69277 0.0
H1325 H 0.32247 0.45445 0.67089 0.0
H1326 H 0.28607 0.42871 0.6082 0.0
H1327 H 0.24922 0.41259 0.62974 0.0
H1328 H 0.35087 0.43263 0.64454 0.0
H1329 H 0.31345 0.49585 0.59114 0.0
H1330 H 0.29748 0.48159 0.61573 0.0
H1331 H 0.29617 0.46656 0.58866 0.0
C1332 C 0.28552 0.43577 0.67428 0.0
C1333 C 0.26454 0.42362 0.66307 0.0
C1334 C 0.30651 0.44538 0.6618 0.0
C1335 C 0.30698 0.44318 0.63783 0.0
C1336 C 0.28607 0.4311 0.6266 0.0
H1337 H 0.43618 0.45289 0.55284 0.0
H1338 H 0.3987 0.44032 0.57479 0.0
C1339 C 0.26507 0.42158 0.63903 0.0
C1340 C 0.32963 0.45254 0.62467 0.0
H1341 H 0.35197 0.48776 0.57954 0.0
C1342 C 0.35113 0.44481 0.63043 0.0
C1343 C 0.33013 0.4687 0.60643 0.0
C1344 C 0.30814 0.47886 0.60026 0.0
C1345 C 0.37289 0.4523 0.61815 0.0
C1346 C 0.37309 0.46757 0.59922 0.0
C1347 C 0.35177 0.4758 0.59383 0.0
C1348 C 0.39529 0.47532 0.58493 0.0
C1349 C 0.39555 0.44403 0.62584 0.0
C1350 C 0.40537 0.49926 0.58246 0.0
C1351 C 0.42669 0.50656 0.56965 0.0
C1352 C 0.43839 0.49005 0.55899 0.0
C1353 C 0.42783 0.46611 0.56096 0.0
C1354 C 0.40646 0.45885 0.57367 0.0
H1355 H 0.39421 0.43831 0.64404 0.0
H1356 H 0.39796 0.42881 0.61524 0.0
H1357 H 0.41201 0.45803 0.62381 0.0
H1358 H 0.397 0.51232 0.59084 0.0
H1359 H 0.43425 0.52514 0.56851 0.0
H1360 H 0.74945 0.68193 0.90972 0.0
H1361 H 0.77732 0.66318 0.93261 0.0
H1362 H 0.83893 0.70694 0.89981 0.0
H1363 H 0.81139 0.72555 0.87699 0.0
H1364 H 0.81657 0.64034 0.91108 0.0
H1365 H 0.85134 0.71281 0.97161 0.0
H1366 H 0.82218 0.70983 0.95737 0.0
H1367 H 0.84981 0.72126 0.94207 0.0
C1368 C 0.76895 0.68761 0.90761 0.0
C1369 C 0.77832 0.70502 0.89151 0.0
C1370 C 0.78478 0.67692 0.92061 0.0
C1371 C 0.8101 0.68389 0.91796 0.0
C1372 C 0.81943 0.70152 0.90221 0.0
H1373 H 0.94741 0.65484 0.95622 0.0
H1374 H 0.91208 0.67049 0.94372 0.0
C1375 C 0.8037 0.71198 0.88908 0.0
C1376 C 0.82713 0.67206 0.93057 0.0
H1377 H 0.8745 0.68266 0.96835 0.0
C1378 C 0.82898 0.64933 0.92393 0.0
C1379 C 0.8433 0.68403 0.94714 0.0
C1380 C 0.84153 0.70828 0.95517 0.0
C1381 C 0.84755 0.63866 0.93258 0.0
C1382 C 0.86426 0.65093 0.94867 0.0
C1383 C 0.86172 0.67332 0.95597 0.0
C1384 C 0.88544 0.64151 0.95701 0.0
C1385 C 0.8499 0.61492 0.92344 0.0
C1386 C 0.88217 0.62019 0.96891 0.0
C1387 C 0.90233 0.61101 0.97576 0.0
C1388 C 0.92617 0.62314 0.97109 0.0
C1389 C 0.92933 0.64483 0.95972 0.0
C1390 C 0.90916 0.65391 0.95275 0.0
H1391 H 0.83928 0.61044 0.90742 0.0
H1392 H 0.86927 0.61422 0.91997 0.0
H1393 H 0.84286 0.60133 0.9364 0.0
H1394 H 0.86402 0.61055 0.97275 0.0
H1395 H 0.8992 0.59417 0.9843 0.0
H1396 H 0.38477 0.79668 0.17927 0.0
H1397 H 0.39937 0.8331 0.15826 0.0
H1398 H 0.46709 0.81083 0.14407 0.0
H1399 H 0.45286 0.7748 0.1661 0.0
H1400 H 0.47627 0.85553 0.15262 0.0
H1401 H 0.40014 0.83949 0.0907 0.0
H1402 H 0.38916 0.84063 0.11943 0.0
H1403 H 0.40496 0.8177 0.11121 0.0
C1404 C 0.40283 0.79966 0.17177 0.0
C1405 C 0.41763 0.78285 0.17419 0.0
C1406 C 0.41109 0.82039 0.15955 0.0
C1407 C 0.43407 0.82452 0.14885 0.0
C1408 C 0.44921 0.80806 0.15193 0.0
H1409 H 0.47042 0.92825 0.03957 0.0
H1410 H 0.45898 0.89244 0.06223 0.0
C1411 C 0.44111 0.78749 0.16457 0.0
C1412 C 0.44225 0.84593 0.13451 0.0
H1413 H 0.42463 0.87795 0.09069 0.0
C1414 C 0.46502 0.86033 0.13898 0.0
C1415 C 0.42792 0.85209 0.11629 0.0
C1416 C 0.40433 0.83652 0.10895 0.0
C1417 C 0.47361 0.88079 0.12616 0.0
C1418 C 0.45863 0.88767 0.10885 0.0
C1419 C 0.43606 0.87303 0.10412 0.0
C1420 C 0.46607 0.90965 0.09514 0.0
C1421 C 0.49896 0.89438 0.13096 0.0
C1422 C 0.47364 0.93149 0.10591 0.0
C1423 C 0.48066 0.95197 0.09293 0.0
C1424 C 0.47961 0.95122 0.06885 0.0
C1425 C 0.47139 0.92949 0.05808 0.0
C1426 C 0.46484 0.90896 0.07106 0.0
H1427 H 0.51063 0.88302 0.13868 0.0
H1428 H 0.50794 0.90235 0.1151 0.0
H1429 H 0.49787 0.90857 0.14339 0.0
H1430 H 0.47396 0.93279 0.12442 0.0
H1431 H 0.48662 0.96846 0.10178 0.0
H1432 H 0.10712 0.26219 0.62576 0.0
H1433 H 0.08965 0.2241 0.60922 0.0
H1434 H 0.07438 0.19537 0.6769 0.0
H1435 H 0.09249 0.23355 0.69378 0.0
H1436 H 0.10856 0.18061 0.62142 0.0
H1437 H 0.00931 0.17466 0.63727 0.0
H1438 H 0.03028 0.2025 0.63566 0.0
H1439 H 0.03038 0.18416 0.66032 0.0
C1440 C 0.10004 0.24783 0.63722 0.0
C1441 C 0.10155 0.25091 0.66116 0.0
C1442 C 0.08994 0.22607 0.62769 0.0
C1443 C 0.08075 0.20689 0.64179 0.0
C1444 C 0.08123 0.21001 0.66569 0.0
H1445 H 0.01482 0.06346 0.59995 0.0
H1446 H 0.02914 0.09918 0.62222 0.0
C1447 C 0.0915 0.23186 0.67531 0.0
C1448 C 0.07218 0.18345 0.63125 0.0
H1449 H 0.02102 0.14321 0.61771 0.0
C1450 C 0.08943 0.17235 0.6207 0.0
C1451 C 0.04727 0.17263 0.63051 0.0
C1452 C 0.02808 0.18401 0.64142 0.0
C1453 C 0.08246 0.15083 0.60925 0.0
C1454 C 0.05741 0.14038 0.60766 0.0
C1455 C 0.04019 0.15122 0.61875 0.0
C1456 C 0.04873 0.11857 0.59411 0.0
C1457 C 0.10211 0.13939 0.59921 0.0
C1458 C 0.05464 0.11757 0.57076 0.0
C1459 C 0.04667 0.0971 0.55803 0.0
C1460 C 0.03224 0.07721 0.56824 0.0
C1461 C 0.02596 0.07838 0.59152 0.0
C1462 C 0.03411 0.09883 0.6043 0.0
H1463 H 0.11982 0.14528 0.60809 0.0
H1464 H 0.09711 0.12 0.60033 0.0
H1465 H 0.10475 0.14439 0.5809 0.0
H1466 H 0.06529 0.13272 0.56228 0.0
H1467 H 0.05165 0.097 0.5401 0.0
H1468 H 0.74895 0.35041 0.38351 0.0
H1469 H 0.71828 0.37028 0.40005 0.0
H1470 H 0.69934 0.31458 0.4495 0.0
H1471 H 0.73031 0.29483 0.43321 0.0
H1472 H 0.67002 0.35185 0.40016 0.0
H1473 H 0.70151 0.37194 0.48938 0.0
H1474 H 0.7211 0.36393 0.4674 0.0
H1475 H 0.69925 0.34174 0.48163 0.0
C1476 C 0.73853 0.34264 0.39817 0.0
C1477 C 0.74196 0.32109 0.40708 0.0
C1478 C 0.72105 0.354 0.40761 0.0
C1479 C 0.70663 0.34402 0.42611 0.0
C1480 C 0.71061 0.32289 0.43557 0.0
H1481 H 0.57328 0.37318 0.48634 0.0
H1482 H 0.60796 0.35553 0.4751 0.0
C1483 C 0.72827 0.31159 0.42623 0.0
C1484 C 0.68595 0.35456 0.43391 0.0
H1485 H 0.66103 0.37646 0.48059 0.0
C1486 C 0.66817 0.35738 0.41772 0.0
C1487 C 0.68346 0.3616 0.45686 0.0
C1488 C 0.70245 0.35987 0.47479 0.0
C1489 C 0.6479 0.36688 0.42386 0.0
C1490 C 0.64542 0.3739 0.44676 0.0
C1491 C 0.66304 0.37097 0.46305 0.0
C1492 C 0.6248 0.38472 0.45393 0.0
C1493 C 0.62907 0.36908 0.4059 0.0
C1494 C 0.623 0.407 0.44582 0.0
C1495 C 0.60328 0.41708 0.45214 0.0
C1496 C 0.58498 0.40503 0.46668 0.0
C1497 C 0.58693 0.38274 0.47488 0.0
C1498 C 0.60678 0.37272 0.46864 0.0
H1499 H 0.63102 0.35853 0.39037 0.0
H1500 H 0.61036 0.3634 0.41286 0.0
H1501 H 0.63121 0.3877 0.40067 0.0
H1502 H 0.63686 0.41656 0.43456 0.0
H1503 H 0.60219 0.43419 0.44541 0.0
loop_
_geom_bond_atom_site_label_1
_geom_bond_atom_site_label_2
_geom_bond_distance
_geom_bond_site_symmetry_2
_ccdc_geom_bond_type
C0 C1 1.391 . S
C0 C4 1.391 . S
C0 H42 0.948 . S
C1 C0 1.391 . S
C1 C2 1.391 . S
C2 C1 1.391 . S
C2 H58 0.947 . S
C2 C59 1.392 . S
C3 C4 1.391 . S
C3 C7 1.397 . S
C3 C59 1.419 . S
C4 C0 1.391 . S
C4 C3 1.391 . S
C4 C5 1.399 . S
C5 C4 1.399 . S
C5 C8 1.396 . S
C5 C17 1.453 . S
C5 C18 1.684 . S
H6 C30 0.948 . S
C7 C3 1.397 . S
C7 C8 1.394 . S
C7 C26 1.723 . S
C8 C5 1.396 . S
C8 C7 1.394 . S
C8 C38 1.723 . S
H9 C32 0.947 . S
H10 C33 0.948 . S
H11 C39 0.982 . S
H12 C40 0.979 . S
H13 C40 0.980 . S
H14 C40 0.983 . S
H15 C39 0.979 . S
H16 C39 0.977 . S
C17 C5 1.453 . S
C17 H46 0.982 . S
C17 H47 0.979 . S
C17 H48 0.977 . S
C18 C5 1.684 . S
C18 H43 0.979 . S
C18 H44 0.980 . S
C18 H45 0.983 . S
C19 C20 1.391 . S
C19 C24 1.391 . S
C19 H49 0.948 . S
C20 C19 1.391 . S
C20 C21 1.391 . S
C21 C20 1.391 . S
C21 C22 1.392 . S
C21 H50 0.947 . S
C22 C21 1.392 . S
C22 C23 1.419 . S
C22 H51 0.948 . S
C23 C22 1.419 . S
C23 C24 1.391 . S
C23 C27 1.397 . S
C24 C19 1.391 . S
C24 C23 1.391 . S
C24 C25 1.399 . S
C25 C24 1.399 . S
C25 C26 1.396 . S
C25 C28 1.453 . S
C25 C29 1.684 . S
C26 C7 1.723 . S
C26 C25 1.396 . S
C26 C27 1.394 . S
C27 C23 1.397 . S
C27 C26 1.394 . S
C27 C37 1.723 . S
C28 C25 1.453 . S
C28 H52 0.982 . S
C28 H53 0.979 . S
C28 H54 0.977 . S
C29 C25 1.684 . S
C29 H55 0.979 . S
C29 H56 0.980 . S
C29 H57 0.983 . S
C30 H6 0.948 . S
C30 C31 1.391 . S
C30 C35 1.391 . S
C31 C30 1.391 . S
C31 C32 1.391 . S
C32 H9 0.947 . S
C32 C31 1.391 . S
C32 C33 1.392 . S
C33 H10 0.948 . S
C33 C32 1.392 . S
C33 C34 1.419 . S
C34 C33 1.419 . S
C34 C35 1.391 . S
C34 C38 1.397 . S
C35 C30 1.391 . S
C35 C34 1.391 . S
C35 C36 1.399 . S
C36 C35 1.399 . S
C36 C37 1.396 . S
C36 C39 1.453 . S
C36 C40 1.684 . S
C37 C27 1.723 . S
C37 C36 1.396 . S
C37 C38 1.394 . S
C38 C8 1.723 . S
C38 C34 1.397 . S
C38 C37 1.394 . S
C39 H11 0.982 . S
C39 H15 0.979 . S
C39 H16 0.977 . S
C39 C36 1.453 . S
C40 H12 0.979 . S
C40 H13 0.980 . S
C40 H14 0.983 . S
C40 C36 1.684 . S
H41 C59 0.948 . S
H42 C0 0.948 . S
H43 C18 0.979 . S
H44 C18 0.980 . S
H45 C18 0.983 . S
H46 C17 0.982 . S
H47 C17 0.979 . S
H48 C17 0.977 . S
H49 C19 0.948 . S
H50 C21 0.947 . S
H51 C22 0.948 . S
H52 C28 0.982 . S
H53 C28 0.979 . S
H54 C28 0.977 . S
H55 C29 0.979 . S
H56 C29 0.980 . S
H57 C29 0.983 . S
H58 C2 0.947 . S
C59 C2 1.392 . S
C59 C3 1.419 . S
C59 H41 0.948 . S
C60 C61 1.391 . S
C60 C64 1.391 . S
C60 H102 0.948 . S
C61 C60 1.391 . S
C61 C62 1.391 . S
C62 C61 1.391 . S
C62 H118 0.947 . S
C62 C119 1.392 . S
C63 C64 1.391 . S
C63 C67 1.397 . S
C63 C119 1.419 . S
C64 C60 1.391 . S
C64 C63 1.391 . S
C64 C65 1.399 . S
C65 C64 1.399 . S
C65 C68 1.396 . S
C65 C77 1.453 . S
C65 C78 1.684 . S
H66 C90 0.948 . S
C67 C63 1.397 . S
C67 C68 1.394 . S
C67 C86 1.723 . S
C68 C65 1.396 . S
C68 C67 1.394 . S
C68 C98 1.723 . S
H69 C92 0.947 . S
H70 C93 0.948 . S
H71 C99 0.982 . S
H72 C100 0.979 . S
H73 C100 0.980 . S
H74 C100 0.983 . S
H75 C99 0.979 . S
H76 C99 0.977 . S
C77 C65 1.453 . S
C77 H106 0.982 . S
C77 H107 0.979 . S
C77 H108 0.977 . S
C78 C65 1.684 . S
C78 H103 0.979 . S
C78 H104 0.980 . S
C78 H105 0.983 . S
C79 C80 1.391 . S
C79 C84 1.391 . S
C79 H109 0.948 . S
C80 C79 1.391 . S
C80 C81 1.391 . S
C81 C80 1.391 . S
C81 C82 1.392 . S
C81 H110 0.947 . S
C82 C81 1.392 . S
C82 C83 1.419 . S
C82 H111 0.948 . S
C83 C82 1.419 . S
C83 C84 1.391 . S
C83 C87 1.397 . S
C84 C79 1.391 . S
C84 C83 1.391 . S
C84 C85 1.399 . S
C85 C84 1.399 . S
C85 C86 1.396 . S
C85 C88 1.453 . S
C85 C89 1.684 . S
C86 C67 1.723 . S
C86 C85 1.396 . S
C86 C87 1.394 . S
C87 C83 1.397 . S
C87 C86 1.394 . S
C87 C97 1.723 . S
C88 C85 1.453 . S
C88 H112 0.982 . S
C88 H113 0.979 . S
C88 H114 0.977 . S
C89 C85 1.684 . S
C89 H115 0.979 . S
C89 H116 0.980 . S
C89 H117 0.983 . S
C90 H66 0.948 . S
C90 C91 1.391 . S
C90 C95 1.391 . S
C91 C90 1.391 . S
C91 C92 1.391 . S
C92 H69 0.947 . S
C92 C91 1.391 . S
C92 C93 1.392 . S
C93 H70 0.948 . S
C93 C92 1.392 . S
C93 C94 1.419 . S
C94 C93 1.419 . S
C94 C95 1.391 . S
C94 C98 1.397 . S
C95 C90 1.391 . S
C95 C94 1.391 . S
C95 C96 1.399 . S
C96 C95 1.399 . S
C96 C97 1.396 . S
C96 C99 1.453 . S
C96 C100 1.684 . S
C97 C87 1.723 . S
C97 C96 1.396 . S
C97 C98 1.394 . S
C98 C68 1.723 . S
C98 C94 1.397 . S
C98 C97 1.394 . S
C99 H71 0.982 . S
C99 H75 0.979 . S
C99 H76 0.977 . S
C99 C96 1.453 . S
C100 H72 0.979 . S
C100 H73 0.980 . S
C100 H74 0.983 . S
C100 C96 1.684 . S
H101 C119 0.948 . S
H102 C60 0.948 . S
H103 C78 0.979 . S
H104 C78 0.980 . S
H105 C78 0.983 . S
H106 C77 0.982 . S
H107 C77 0.979 . S
H108 C77 0.977 . S
H109 C79 0.948 . S
H110 C81 0.947 . S
H111 C82 0.948 . S
H112 C88 0.982 . S
H113 C88 0.979 . S
H114 C88 0.977 . S
H115 C89 0.979 . S
H116 C89 0.980 . S
H117 C89 0.983 . S
H118 C62 0.947 . S
C119 C62 1.392 . S
C119 C63 1.419 . S
C119 H101 0.948 . S
C120 C121 1.391 . S
C120 C124 1.391 . S
C120 H162 0.948 . S
C121 C120 1.391 . S
C121 C122 1.391 . S
C122 C121 1.391 . S
C122 H178 0.947 . S
C122 C179 1.392 . S
C123 C124 1.391 . S
C123 C127 1.397 . S
C123 C179 1.419 . S
C124 C120 1.391 . S
C124 C123 1.391 . S
C124 C125 1.399 . S
C125 C124 1.399 . S
C125 C128 1.396 . S
C125 C137 1.453 . S
C125 C138 1.684 . S
H126 C150 0.948 . S
C127 C123 1.397 . S
C127 C128 1.394 . S
C127 C146 1.723 . S
C128 C125 1.396 . S
C128 C127 1.394 . S
C128 C158 1.723 . S
H129 C152 0.947 . S
H130 C153 0.948 . S
H131 C159 0.982 . S
H132 C160 0.979 . S
H133 C160 0.980 . S
H134 C160 0.983 . S
H135 C159 0.979 . S
H136 C159 0.977 . S
C137 C125 1.453 . S
C137 H166 0.982 . S
C137 H167 0.979 . S
C137 H168 0.977 . S
C138 C125 1.684 . S
C138 H163 0.979 . S
C138 H164 0.980 . S
C138 H165 0.983 . S
C139 C140 1.391 . S
C139 C144 1.391 . S
C139 H169 0.948 . S
C140 C139 1.391 . S
C140 C141 1.391 . S
C141 C140 1.391 . S
C141 C142 1.392 . S
C141 H170 0.947 . S
C142 C141 1.392 . S
C142 C143 1.419 . S
C142 H171 0.948 . S
C143 C142 1.419 . S
C143 C144 1.391 . S
C143 C147 1.397 . S
C144 C139 1.391 . S
C144 C143 1.391 . S
C144 C145 1.399 . S
C145 C144 1.399 . S
C145 C146 1.396 . S
C145 C148 1.453 . S
C145 C149 1.684 . S
C146 C127 1.723 . S
C146 C145 1.396 . S
C146 C147 1.394 . S
C147 C143 1.397 . S
C147 C146 1.394 . S
C147 C157 1.723 . S
C148 C145 1.453 . S
C148 H172 0.982 . S
C148 H173 0.979 . S
C148 H174 0.977 . S
C149 C145 1.684 . S
C149 H175 0.979 . S
C149 H176 0.980 . S
C149 H177 0.983 . S
C150 H126 0.948 . S
C150 C151 1.391 . S
C150 C155 1.391 . S
C151 C150 1.391 . S
C151 C152 1.391 . S
C152 H129 0.947 . S
C152 C151 1.391 . S
C152 C153 1.392 . S
C153 H130 0.948 . S
C153 C152 1.392 . S
C153 C154 1.419 . S
C154 C153 1.419 . S
C154 C155 1.391 . S
C154 C158 1.397 . S
C155 C150 1.391 . S
C155 C154 1.391 . S
C155 C156 1.399 . S
C156 C155 1.399 . S
C156 C157 1.396 . S
C156 C159 1.453 . S
C156 C160 1.684 . S
C157 C147 1.723 . S
C157 C156 1.396 . S
C157 C158 1.394 . S
C158 C128 1.723 . S
C158 C154 1.397 . S
C158 C157 1.394 . S
C159 H131 0.982 . S
C159 H135 0.979 . S
C159 H136 0.977 . S
C159 C156 1.453 . S
C160 H132 0.979 . S
C160 H133 0.980 . S
C160 H134 0.983 . S
C160 C156 1.684 . S
H161 C179 0.948 . S
H162 C120 0.948 . S
H163 C138 0.979 . S
H164 C138 0.980 . S
H165 C138 0.983 . S
H166 C137 0.982 . S
H167 C137 0.979 . S
H168 C137 0.977 . S
H169 C139 0.948 . S
H170 C141 0.947 . S
H171 C142 0.948 . S
H172 C148 0.982 . S
H173 C148 0.979 . S
H174 C148 0.977 . S
H175 C149 0.979 . S
H176 C149 0.980 . S
H177 C149 0.983 . S
H178 C122 0.947 . S
C179 C122 1.392 . S
C179 C123 1.419 . S
C179 H161 0.948 . S
C180 C181 1.391 . S
C180 C184 1.391 . S
C180 H222 0.948 . S
C181 C180 1.391 . S
C181 C182 1.391 . S
C182 C181 1.391 . S
C182 H238 0.947 . S
C182 C239 1.392 . S
C183 C184 1.391 . S
C183 C187 1.397 . S
C183 C239 1.419 . S
C184 C180 1.391 . S
C184 C183 1.391 . S
C184 C185 1.399 . S
C185 C184 1.399 . S
C185 C188 1.396 . S
C185 C197 1.453 . S
C185 C198 1.684 . S
H186 C210 0.948 . S
C187 C183 1.397 . S
C187 C188 1.394 . S
C187 C206 1.723 . S
C188 C185 1.396 . S
C188 C187 1.394 . S
C188 C218 1.723 . S
H189 C212 0.947 . S
H190 C213 0.948 . S
H191 C219 0.982 . S
H192 C220 0.979 . S
H193 C220 0.980 . S
H194 C220 0.983 . S
H195 C219 0.979 . S
H196 C219 0.977 . S
C197 C185 1.453 . S
C197 H226 0.982 . S
C197 H227 0.979 . S
C197 H228 0.977 . S
C198 C185 1.684 . S
C198 H223 0.979 . S
C198 H224 0.980 . S
C198 H225 0.983 . S
C199 C200 1.391 . S
C199 C204 1.391 . S
C199 H229 0.948 . S
C200 C199 1.391 . S
C200 C201 1.391 . S
C201 C200 1.391 . S
C201 C202 1.392 . S
C201 H230 0.947 . S
C202 C201 1.392 . S
C202 C203 1.419 . S
C202 H231 0.948 . S
C203 C202 1.419 . S
C203 C204 1.391 . S
C203 C207 1.397 . S
C204 C199 1.391 . S
C204 C203 1.391 . S
C204 C205 1.399 . S
C205 C204 1.399 . S
C205 C206 1.396 . S
C205 C208 1.453 . S
C205 C209 1.684 . S
C206 C187 1.723 . S
C206 C205 1.396 . S
C206 C207 1.394 . S
C207 C203 1.397 . S
C207 C206 1.394 . S
C207 C217 1.723 . S
C208 C205 1.453 . S
C208 H232 0.982 . S
C208 H233 0.979 . S
C208 H234 0.977 . S
C209 C205 1.684 . S
C209 H235 0.979 . S
C209 H236 0.980 . S
C209 H237 0.983 . S
C210 H186 0.948 . S
C210 C211 1.391 . S
C210 C215 1.391 . S
C211 C210 1.391 . S
C211 C212 1.391 . S
C212 H189 0.947 . S
C212 C211 1.391 . S
C212 C213 1.392 . S
C213 H190 0.948 . S
C213 C212 1.392 . S
C213 C214 1.419 . S
C214 C213 1.419 . S
C214 C215 1.391 . S
C214 C218 1.397 . S
C215 C210 1.391 . S
C215 C214 1.391 . S
C215 C216 1.399 . S
C216 C215 1.399 . S
C216 C217 1.396 . S
C216 C219 1.453 . S
C216 C220 1.684 . S
C217 C207 1.723 . S
C217 C216 1.396 . S
C217 C218 1.394 . S
C218 C188 1.723 . S
C218 C214 1.397 . S
C218 C217 1.394 . S
C219 H191 0.982 . S
C219 H195 0.979 . S
C219 H196 0.977 . S
C219 C216 1.453 . S
C220 H192 0.979 . S
C220 H193 0.980 . S
C220 H194 0.983 . S
C220 C216 1.684 . S
H221 C239 0.948 . S
H222 C180 0.948 . S
H223 C198 0.979 . S
H224 C198 0.980 . S
H225 C198 0.983 . S
H226 C197 0.982 . S
H227 C197 0.979 . S
H228 C197 0.977 . S
H229 C199 0.948 . S
H230 C201 0.947 . S
H231 C202 0.948 . S
H232 C208 0.982 . S
H233 C208 0.979 . S
H234 C208 0.977 . S
H235 C209 0.979 . S
H236 C209 0.980 . S
H237 C209 0.983 . S
H238 C182 0.947 . S
C239 C182 1.392 . S
C239 C183 1.419 . S
C239 H221 0.948 . S
C240 C241 1.391 . S
C240 C244 1.391 . S
C240 H282 0.948 . S
C241 C240 1.391 . S
C241 C242 1.391 . S
C242 C241 1.391 . S
C242 H298 0.947 . S
C242 C299 1.392 . S
C243 C244 1.391 . S
C243 C247 1.397 . S
C243 C299 1.419 . S
C244 C240 1.391 . S
C244 C243 1.391 . S
C244 C245 1.399 . S
C245 C244 1.399 . S
C245 C248 1.396 . S
C245 C257 1.453 . S
C245 C258 1.684 . S
H246 C270 0.948 . S
C247 C243 1.397 . S
C247 C248 1.394 . S
C247 C266 1.723 . S
C248 C245 1.396 . S
C248 C247 1.394 . S
C248 C278 1.723 . S
H249 C272 0.947 . S
H250 C273 0.948 . S
H251 C279 0.982 . S
H252 C280 0.979 . S
H253 C280 0.980 . S
H254 C280 0.983 . S
H255 C279 0.979 . S
H256 C279 0.977 . S
C257 C245 1.453 . S
C257 H286 0.982 . S
C257 H287 0.979 . S
C257 H288 0.977 . S
C258 C245 1.684 . S
C258 H283 0.979 . S
C258 H284 0.980 . S
C258 H285 0.983 . S
C259 C260 1.391 . S
C259 C264 1.391 . S
C259 H289 0.948 . S
C260 C259 1.391 . S
C260 C261 1.391 . S
C261 C260 1.391 . S
C261 C262 1.392 . S
C261 H290 0.947 . S
C262 C261 1.392 . S
C262 C263 1.419 . S
C262 H291 0.948 . S
C263 C262 1.419 . S
C263 C264 1.391 . S
C263 C267 1.397 . S
C264 C259 1.391 . S
C264 C263 1.391 . S
C264 C265 1.399 . S
C265 C264 1.399 . S
C265 C266 1.396 . S
C265 C268 1.453 . S
C265 C269 1.684 . S
C266 C247 1.723 . S
C266 C265 1.396 . S
C266 C267 1.394 . S
C267 C263 1.397 . S
C267 C266 1.394 . S
C267 C277 1.723 . S
C268 C265 1.453 . S
C268 H292 0.982 . S
C268 H293 0.979 . S
C268 H294 0.977 . S
C269 C265 1.684 . S
C269 H295 0.979 . S
C269 H296 0.980 . S
C269 H297 0.983 . S
C270 H246 0.948 . S
C270 C271 1.391 . S
C270 C275 1.391 . S
C271 C270 1.391 . S
C271 C272 1.391 . S
C272 H249 0.947 . S
C272 C271 1.391 . S
C272 C273 1.392 . S
C273 H250 0.948 . S
C273 C272 1.392 . S
C273 C274 1.419 . S
C274 C273 1.419 . S
C274 C275 1.391 . S
C274 C278 1.397 . S
C275 C270 1.391 . S
C275 C274 1.391 . S
C275 C276 1.399 . S
C276 C275 1.399 . S
C276 C277 1.396 . S
C276 C279 1.453 . S
C276 C280 1.684 . S
C277 C267 1.723 . S
C277 C276 1.396 . S
C277 C278 1.394 . S
C278 C248 1.723 . S
C278 C274 1.397 . S
C278 C277 1.394 . S
C279 H251 0.982 . S
C279 H255 0.979 . S
C279 H256 0.977 . S
C279 C276 1.453 . S
C280 H252 0.979 . S
C280 H253 0.980 . S
C280 H254 0.983 . S
C280 C276 1.684 . S
H281 C299 0.948 . S
H282 C240 0.948 . S
H283 C258 0.979 . S
H284 C258 0.980 . S
H285 C258 0.983 . S
H286 C257 0.982 . S
H287 C257 0.979 . S
H288 C257 0.977 . S
H289 C259 0.948 . S
H290 C261 0.947 . S
H291 C262 0.948 . S
H292 C268 0.982 . S
H293 C268 0.979 . S
H294 C268 0.977 . S
H295 C269 0.979 . S
H296 C269 0.980 . S
H297 C269 0.983 . S
H298 C242 0.947 . S
C299 C242 1.392 . S
C299 C243 1.419 . S
C299 H281 0.948 . S
C300 C301 1.391 . S
C300 C304 1.391 . S
C300 H342 0.948 . S
C301 C300 1.391 . S
C301 C302 1.391 . S
C302 C301 1.391 . S
C302 H358 0.947 . S
C302 C359 1.392 . S
C303 C304 1.391 . S
C303 C307 1.397 . S
C303 C359 1.419 . S
C304 C300 1.391 . S
C304 C303 1.391 . S
C304 C305 1.399 . S
C305 C304 1.399 . S
C305 C308 1.396 . S
C305 C317 1.453 . S
C305 C318 1.684 . S
H306 C330 0.948 . S
C307 C303 1.397 . S
C307 C308 1.394 . S
C307 C326 1.723 . S
C308 C305 1.396 . S
C308 C307 1.394 . S
C308 C338 1.723 . S
H309 C332 0.947 . S
H310 C333 0.948 . S
H311 C339 0.982 . S
H312 C340 0.979 . S
H313 C340 0.980 . S
H314 C340 0.983 . S
H315 C339 0.979 . S
H316 C339 0.977 . S
C317 C305 1.453 . S
C317 H346 0.982 . S
C317 H347 0.979 . S
C317 H348 0.977 . S
C318 C305 1.684 . S
C318 H343 0.979 . S
C318 H344 0.980 . S
C318 H345 0.983 . S
C319 C320 1.391 . S
C319 C324 1.391 . S
C319 H349 0.948 . S
C320 C319 1.391 . S
C320 C321 1.391 . S
C321 C320 1.391 . S
C321 C322 1.392 . S
C321 H350 0.947 . S
C322 C321 1.392 . S
C322 C323 1.419 . S
C322 H351 0.948 . S
C323 C322 1.419 . S
C323 C324 1.391 . S
C323 C327 1.397 . S
C324 C319 1.391 . S
C324 C323 1.391 . S
C324 C325 1.399 . S
C325 C324 1.399 . S
C325 C326 1.396 . S
C325 C328 1.453 . S
C325 C329 1.684 . S
C326 C307 1.723 . S
C326 C325 1.396 . S
C326 C327 1.394 . S
C327 C323 1.397 . S
C327 C326 1.394 . S
C327 C337 1.723 . S
C328 C325 1.453 . S
C328 H352 0.982 . S
C328 H353 0.979 . S
C328 H354 0.977 . S
C329 C325 1.684 . S
C329 H355 0.979 . S
C329 H356 0.980 . S
C329 H357 0.983 . S
C330 H306 0.948 . S
C330 C331 1.391 . S
C330 C335 1.391 . S
C331 C330 1.391 . S
C331 C332 1.391 . S
C332 H309 0.947 . S
C332 C331 1.391 . S
C332 C333 1.392 . S
C333 H310 0.948 . S
C333 C332 1.392 . S
C333 C334 1.419 . S
C334 C333 1.419 . S
C334 C335 1.391 . S
C334 C338 1.397 . S
C335 C330 1.391 . S
C335 C334 1.391 . S
C335 C336 1.399 . S
C336 C335 1.399 . S
C336 C337 1.396 . S
C336 C339 1.453 . S
C336 C340 1.684 . S
C337 C327 1.723 . S
C337 C336 1.396 . S
C337 C338 1.394 . S
C338 C308 1.723 . S
C338 C334 1.397 . S
C338 C337 1.394 . S
C339 H311 0.982 . S
C339 H315 0.979 . S
C339 H316 0.977 . S
C339 C336 1.453 . S
C340 H312 0.979 . S
C340 H313 0.980 . S
C340 H314 0.983 . S
C340 C336 1.684 . S
H341 C359 0.948 . S
H342 C300 0.948 . S
H343 C318 0.979 . S
H344 C318 0.980 . S
H345 C318 0.983 . S
H346 C317 0.982 . S
H347 C317 0.979 . S
H348 C317 0.977 . S
H349 C319 0.948 . S
H350 C321 0.947 . S
H351 C322 0.948 . S
H352 C328 0.982 . S
H353 C328 0.979 . S
H354 C328 0.977 . S
H355 C329 0.979 . S
H356 C329 0.980 . S
H357 C329 0.983 . S
H358 C302 0.947 . S
C359 C302 1.392 . S
C359 C303 1.419 . S
C359 H341 0.948 . S
C360 C361 1.391 . S
C360 C364 1.391 . S
C360 H402 0.948 . S
C361 C360 1.391 . S
C361 C362 1.391 . S
C362 C361 1.391 . S
C362 H418 0.947 . S
C362 C419 1.392 . S
C363 C364 1.391 . S
C363 C367 1.397 . S
C363 C419 1.419 . S
C364 C360 1.391 . S
C364 C363 1.391 . S
C364 C365 1.399 . S
C365 C364 1.399 . S
C365 C368 1.396 . S
C365 C377 1.453 . S
C365 C378 1.684 . S
H366 C390 0.948 . S
C367 C363 1.397 . S
C367 C368 1.394 . S
C367 C386 1.723 . S
C368 C365 1.396 . S
C368 C367 1.394 . S
C368 C398 1.723 . S
H369 C392 0.947 . S
H370 C393 0.948 . S
H371 C399 0.982 . S
H372 C400 0.979 . S
H373 C400 0.980 . S
H374 C400 0.983 . S
H375 C399 0.979 . S
H376 C399 0.977 . S
C377 C365 1.453 . S
C377 H406 0.982 . S
C377 H407 0.979 . S
C377 H408 0.977 . S
C378 C365 1.684 . S
C378 H403 0.979 . S
C378 H404 0.980 . S
C378 H405 0.983 . S
C379 C380 1.391 . S
C379 C384 1.391 . S
C379 H409 0.948 . S
C380 C379 1.391 . S
C380 C381 1.391 . S
C381 C380 1.391 . S
C381 C382 1.392 . S
C381 H410 0.947 . S
C382 C381 1.392 . S
C382 C383 1.419 . S
C382 H411 0.948 . S
C383 C382 1.419 . S
C383 C384 1.391 . S
C383 C387 1.397 . S
C384 C379 1.391 . S
C384 C383 1.391 . S
C384 C385 1.399 . S
C385 C384 1.399 . S
C385 C386 1.396 . S
C385 C388 1.453 . S
C385 C389 1.684 . S
C386 C367 1.723 . S
C386 C385 1.396 . S
C386 C387 1.394 . S
C387 C383 1.397 . S
C387 C386 1.394 . S
C387 C397 1.723 . S
C388 C385 1.453 . S
C388 H412 0.982 . S
C388 H413 0.979 . S
C388 H414 0.977 . S
C389 C385 1.684 . S
C389 H415 0.979 . S
C389 H416 0.980 . S
C389 H417 0.983 . S
C390 H366 0.948 . S
C390 C391 1.391 . S
C390 C395 1.391 . S
C391 C390 1.391 . S
C391 C392 1.391 . S
C392 H369 0.947 . S
C392 C391 1.391 . S
C392 C393 1.392 . S
C393 H370 0.948 . S
C393 C392 1.392 . S
C393 C394 1.419 . S
C394 C393 1.419 . S
C394 C395 1.391 . S
C394 C398 1.397 . S
C395 C390 1.391 . S
C395 C394 1.391 . S
C395 C396 1.399 . S
C396 C395 1.399 . S
C396 C397 1.396 . S
C396 C399 1.453 . S
C396 C400 1.684 . S
C397 C387 1.723 . S
C397 C396 1.396 . S
C397 C398 1.394 . S
C398 C368 1.723 . S
C398 C394 1.397 . S
C398 C397 1.394 . S
C399 H371 0.982 . S
C399 H375 0.979 . S
C399 H376 0.977 . S
C399 C396 1.453 . S
C400 H372 0.979 . S
C400 H373 0.980 . S
C400 H374 0.983 . S
C400 C396 1.684 . S
H401 C419 0.948 . S
H402 C360 0.948 . S
H403 C378 0.979 . S
H404 C378 0.980 . S
H405 C378 0.983 . S
H406 C377 0.982 . S
H407 C377 0.979 . S
H408 C377 0.977 . S
H409 C379 0.948 . S
H410 C381 0.947 . S
H411 C382 0.948 . S
H412 C388 0.982 . S
H413 C388 0.979 . S
H414 C388 0.977 . S
H415 C389 0.979 . S
H416 C389 0.980 . S
H417 C389 0.983 . S
H418 C362 0.947 . S
C419 C362 1.392 . S
C419 C363 1.419 . S
C419 H401 0.948 . S
C420 C421 1.391 . S
C420 C424 1.391 . S
C420 H462 0.948 . S
C421 C420 1.391 . S
C421 C422 1.391 . S
C422 C421 1.391 . S
C422 H478 0.947 . S
C422 C479 1.392 . S
C423 C424 1.391 . S
C423 C427 1.397 . S
C423 C479 1.419 . S
C424 C420 1.391 . S
C424 C423 1.391 . S
C424 C425 1.399 . S
C425 C424 1.399 . S
C425 C428 1.396 . S
C425 C437 1.453 . S
C425 C438 1.684 . S
H426 C450 0.948 . S
C427 C423 1.397 . S
C427 C428 1.394 . S
C427 C446 1.723 . S
C428 C425 1.396 . S
C428 C427 1.394 . S
C428 C458 1.723 . S
H429 C452 0.947 . S
H430 C453 0.948 . S
H431 C459 0.982 . S
H432 C460 0.979 . S
H433 C460 0.980 . S
H434 C460 0.983 . S
H435 C459 0.979 . S
H436 C459 0.977 . S
C437 C425 1.453 . S
C437 H466 0.982 . S
C437 H467 0.979 . S
C437 H468 0.977 . S
C438 C425 1.684 . S
C438 H463 0.979 . S
C438 H464 0.980 . S
C438 H465 0.983 . S
C439 C440 1.391 . S
C439 C444 1.391 . S
C439 H469 0.948 . S
C440 C439 1.391 . S
C440 C441 1.391 . S
C441 C440 1.391 . S
C441 C442 1.392 . S
C441 H470 0.947 . S
C442 C441 1.392 . S
C442 C443 1.419 . S
C442 H471 0.948 . S
C443 C442 1.419 . S
C443 C444 1.391 . S
C443 C447 1.397 . S
C444 C439 1.391 . S
C444 C443 1.391 . S
C444 C445 1.399 . S
C445 C444 1.399 . S
C445 C446 1.396 . S
C445 C448 1.453 . S
C445 C449 1.684 . S
C446 C427 1.723 . S
C446 C445 1.396 . S
C446 C447 1.394 . S
C447 C443 1.397 . S
C447 C446 1.394 . S
C447 C457 1.723 . S
C448 C445 1.453 . S
C448 H472 0.982 . S
C448 H473 0.979 . S
C448 H474 0.977 . S
C449 C445 1.684 . S
C449 H475 0.979 . S
C449 H476 0.980 . S
C449 H477 0.983 . S
C450 H426 0.948 . S
C450 C451 1.391 . S
C450 C455 1.391 . S
C451 C450 1.391 . S
C451 C452 1.391 . S
C452 H429 0.947 . S
C452 C451 1.391 . S
C452 C453 1.392 . S
C453 H430 0.948 . S
C453 C452 1.392 . S
C453 C454 1.419 . S
C454 C453 1.419 . S
C454 C455 1.391 . S
C454 C458 1.397 . S
C455 C450 1.391 . S
C455 C454 1.391 . S
C455 C456 1.399 . S
C456 C455 1.399 . S
C456 C457 1.396 . S
C456 C459 1.453 . S
C456 C460 1.684 . S
C457 C447 1.723 . S
C457 C456 1.396 . S
C457 C458 1.394 . S
C458 C428 1.723 . S
C458 C454 1.397 . S
C458 C457 1.394 . S
C459 H431 0.982 . S
C459 H435 0.979 . S
C459 H436 0.977 . S
C459 C456 1.453 . S
C460 H432 0.979 . S
C460 H433 0.980 . S
C460 H434 0.983 . S
C460 C456 1.684 . S
H461 C479 0.948 . S
H462 C420 0.948 . S
H463 C438 0.979 . S
H464 C438 0.980 . S
H465 C438 0.983 . S
H466 C437 0.982 . S
H467 C437 0.979 . S
H468 C437 0.977 . S
H469 C439 0.948 . S
H470 C441 0.947 . S
H471 C442 0.948 . S
H472 C448 0.982 . S
H473 C448 0.979 . S
H474 C448 0.977 . S
H475 C449 0.979 . S
H476 C449 0.980 . S
H477 C449 0.983 . S
H478 C422 0.947 . S
C479 C422 1.392 . S
C479 C423 1.419 . S
C479 H461 0.948 . S
Dy480 O483 2.307 1_545 S
Dy480 O485 2.395 . S
Dy480 O486 2.379 . S
Dy480 O488 2.339 1_545 S
Dy480 O490 2.298 1_455 S
Dy480 O494 2.275 . S
Dy480 C502 2.738 . S
Dy481 O484 2.298 1_655 S
Dy481 O487 2.275 . S
Dy481 O489 2.307 1_565 S
Dy481 O491 2.395 . S
Dy481 O492 2.379 . S
Dy481 O495 2.339 1_565 S
Dy481 C511 2.738 . S
C482 O494 1.254 . S
C482 O495 1.257 1_455 S
O483 Dy480 2.307 1_565 S
O483 C493 1.266 . S
O484 Dy481 2.298 1_455 S
O484 C493 1.236 . S
O485 Dy480 2.395 . S
O485 C502 1.255 . S
O486 Dy480 2.379 . S
O486 C502 1.249 . S
O487 Dy481 2.275 . S
O487 C503 1.254 . S
O488 Dy480 2.339 1_565 S
O488 C503 1.257 1_455 S
O489 Dy481 2.307 1_545 S
O489 C504 1.266 . S
O490 Dy480 2.298 1_655 S
O490 C504 1.236 . S
O491 Dy481 2.395 . S
O491 C511 1.255 . S
O492 Dy481 2.379 . S
O492 C511 1.249 . S
C493 O483 1.266 . S
C493 O484 1.236 . S
O494 Dy480 2.275 . S
O494 C482 1.254 . S
O495 Dy481 2.339 1_545 S
O495 C482 1.257 1_655 S
C496 C499 1.344 . S
C496 C500 1.328 . S
C496 C502 1.516 . S
C497 C498 1.304 . S
C497 C501 1.323 . S
C498 C497 1.304 . S
C498 C499 1.371 . S
C498 H512 0.930 . S
C499 C496 1.344 . S
C499 C498 1.371 . S
C499 H513 0.931 . S
C500 C496 1.328 . S
C500 C501 1.433 . S
C500 H514 0.931 . S
C501 C497 1.323 . S
C501 C500 1.433 . S
C501 H515 0.933 . S
C502 Dy480 2.738 . S
C502 O485 1.255 . S
C502 O486 1.249 . S
C502 C496 1.516 . S
C503 O487 1.254 . S
C503 O488 1.257 1_655 S
C504 O489 1.266 . S
C504 O490 1.236 . S
C505 C508 1.344 . S
C505 C509 1.328 . S
C505 C511 1.516 . S
C506 C507 1.304 . S
C506 C510 1.323 . S
C507 C506 1.304 . S
C507 C508 1.371 . S
C507 H516 0.930 . S
C508 C505 1.344 . S
C508 C507 1.371 . S
C508 H517 0.931 . S
C509 C505 1.328 . S
C509 C510 1.433 . S
C509 H518 0.931 . S
C510 C506 1.323 . S
C510 C509 1.433 . S
C510 H519 0.933 . S
C511 Dy481 2.738 . S
C511 O491 1.255 . S
C511 O492 1.249 . S
C511 C505 1.516 . S
H512 C498 0.930 . S
H513 C499 0.931 . S
H514 C500 0.931 . S
H515 C501 0.933 . S
H516 C507 0.930 . S
H517 C508 0.931 . S
H518 C509 0.931 . S
H519 C510 0.933 . S
Dy520 O523 2.307 1_566 S
Dy520 O525 2.395 . S
Dy520 O526 2.379 . S
Dy520 O528 2.339 1_565 S
Dy520 O530 2.298 . S
Dy520 O534 2.275 1_556 S
Dy520 C542 2.738 . S
Dy521 O524 2.298 . S
Dy521 O527 2.275 1_554 S
Dy521 O529 2.307 1_544 S
Dy521 O531 2.395 . S
Dy521 O532 2.379 . S
Dy521 O535 2.339 1_545 S
Dy521 C551 2.738 . S
C522 O534 1.254 . S
C522 O535 1.257 . S
O523 Dy520 2.307 1_544 S
O523 C533 1.266 . S
O524 Dy521 2.298 . S
O524 C533 1.236 . S
O525 Dy520 2.395 . S
O525 C542 1.255 . S
O526 Dy520 2.379 . S
O526 C542 1.249 . S
O527 Dy521 2.275 1_556 S
O527 C543 1.254 . S
O528 Dy520 2.339 1_545 S
O528 C543 1.257 . S
O529 Dy521 2.307 1_566 S
O529 C544 1.266 . S
O530 Dy520 2.298 . S
O530 C544 1.236 . S
O531 Dy521 2.395 . S
O531 C551 1.255 . S
O532 Dy521 2.379 . S
O532 C551 1.249 . S
C533 O523 1.266 . S
C533 O524 1.236 . S
O534 Dy520 2.275 1_554 S
O534 C522 1.254 . S
O535 Dy521 2.339 1_565 S
O535 C522 1.257 . S
C536 C539 1.344 . S
C536 C540 1.328 . S
C536 C542 1.516 . S
C537 C538 1.304 . S
C537 C541 1.323 . S
C538 C537 1.304 . S
C538 C539 1.371 . S
C538 H552 0.930 . S
C539 C536 1.344 . S
C539 C538 1.371 . S
C539 H553 0.931 . S
C540 C536 1.328 . S
C540 C541 1.433 . S
C540 H554 0.931 . S
C541 C537 1.323 . S
C541 C540 1.433 . S
C541 H555 0.933 . S
C542 Dy520 2.738 . S
C542 O525 1.255 . S
C542 O526 1.249 . S
C542 C536 1.516 . S
C543 O527 1.254 . S
C543 O528 1.257 . S
C544 O529 1.266 . S
C544 O530 1.236 . S
C545 C548 1.344 . S
C545 C549 1.328 . S
C545 C551 1.516 . S
C546 C547 1.304 . S
C546 C550 1.323 . S
C547 C546 1.304 . S
C547 C548 1.371 . S
C547 H556 0.930 . S
C548 C545 1.344 . S
C548 C547 1.371 . S
C548 H557 0.931 . S
C549 C545 1.328 . S
C549 C550 1.433 . S
C549 H558 0.931 . S
C550 C546 1.323 . S
C550 C549 1.433 . S
C550 H559 0.933 . S
C551 Dy521 2.738 . S
C551 O531 1.255 . S
C551 O532 1.249 . S
C551 C545 1.516 . S
H552 C538 0.930 . S
H553 C539 0.931 . S
H554 C540 0.931 . S
H555 C541 0.933 . S
H556 C547 0.930 . S
H557 C548 0.931 . S
H558 C549 0.931 . S
H559 C550 0.933 . S
Dy560 O563 2.307 . S
Dy560 O565 2.395 . S
Dy560 O566 2.379 . S
Dy560 O568 2.339 . S
Dy560 O570 2.298 . S
Dy560 O574 2.275 . S
Dy560 C582 2.738 . S
Dy561 O564 2.298 . S
Dy561 O567 2.275 . S
Dy561 O569 2.307 . S
Dy561 O571 2.395 . S
Dy561 O572 2.379 . S
Dy561 O575 2.339 . S
Dy561 C591 2.738 . S
C562 O574 1.254 . S
C562 O575 1.257 . S
O563 Dy560 2.307 . S
O563 C573 1.266 . S
O564 Dy561 2.298 . S
O564 C573 1.236 . S
O565 Dy560 2.395 . S
O565 C582 1.255 . S
O566 Dy560 2.379 . S
O566 C582 1.249 . S
O567 Dy561 2.275 . S
O567 C583 1.254 . S
O568 Dy560 2.339 . S
O568 C583 1.257 . S
O569 Dy561 2.307 . S
O569 C584 1.266 . S
O570 Dy560 2.298 . S
O570 C584 1.236 . S
O571 Dy561 2.395 . S
O571 C591 1.255 . S
O572 Dy561 2.379 . S
O572 C591 1.249 . S
C573 O563 1.266 . S
C573 O564 1.236 . S
O574 Dy560 2.275 . S
O574 C562 1.254 . S
O575 Dy561 2.339 . S
O575 C562 1.257 . S
C576 C579 1.344 . S
C576 C580 1.328 . S
C576 C582 1.516 . S
C577 C578 1.304 . S
C577 C581 1.323 . S
C578 C577 1.304 . S
C578 C579 1.371 . S
C578 H592 0.930 . S
C579 C576 1.344 . S
C579 C578 1.371 . S
C579 H593 0.931 . S
C580 C576 1.328 . S
C580 C581 1.433 . S
C580 H594 0.931 . S
C581 C577 1.323 . S
C581 C580 1.433 . S
C581 H595 0.933 . S
C582 Dy560 2.738 . S
C582 O565 1.255 . S
C582 O566 1.249 . S
C582 C576 1.516 . S
C583 O567 1.254 . S
C583 O568 1.257 . S
C584 O569 1.266 . S
C584 O570 1.236 . S
C585 C588 1.344 . S
C585 C589 1.328 . S
C585 C591 1.516 . S
C586 C587 1.304 . S
C586 C590 1.323 . S
C587 C586 1.304 . S
C587 C588 1.371 . S
C587 H596 0.930 . S
C588 C585 1.344 . S
C588 C587 1.371 . S
C588 H597 0.931 . S
C589 C585 1.328 . S
C589 C590 1.433 . S
C589 H598 0.931 . S
C590 C586 1.323 . S
C590 C589 1.433 . S
C590 H599 0.933 . S
C591 Dy561 2.738 . S
C591 O571 1.255 . S
C591 O572 1.249 . S
C591 C585 1.516 . S
H592 C578 0.930 . S
H593 C579 0.931 . S
H594 C580 0.931 . S
H595 C581 0.933 . S
H596 C587 0.930 . S
H597 C588 0.931 . S
H598 C589 0.931 . S
H599 C590 0.933 . S
Dy600 O603 2.305 1_656 S
Dy600 O605 2.395 . S
Dy600 O606 2.379 . S
Dy600 O608 2.339 1_655 S
Dy600 O610 2.298 . S
Dy600 O614 2.275 1_556 S
Dy600 C622 2.738 . S
Dy601 O604 2.298 . S
Dy601 O607 2.275 1_554 S
Dy601 O609 2.307 1_455 S
Dy601 O611 2.395 . S
Dy601 O612 2.379 . S
Dy601 O615 2.339 1_455 S
Dy601 C631 2.738 . S
C602 O614 1.254 . S
C602 O615 1.257 . S
O603 Dy600 2.305 1_454 S
O603 C613 1.269 . S
O604 Dy601 2.298 . S
O604 C613 1.236 . S
O605 Dy600 2.395 . S
O605 C622 1.255 . S
O606 Dy600 2.379 . S
O606 C622 1.249 . S
O607 Dy601 2.275 1_556 S
O607 C623 1.254 . S
O608 Dy600 2.339 1_455 S
O608 C623 1.257 . S
O609 Dy601 2.307 1_655 S
O609 C624 1.267 1_554 S
O610 Dy600 2.298 . S
O610 C624 1.236 . S
O611 Dy601 2.395 . S
O611 C631 1.255 . S
O612 Dy601 2.379 . S
O612 C631 1.249 . S
C613 O603 1.269 . S
C613 O604 1.236 . S
O614 Dy600 2.275 1_554 S
O614 C602 1.254 . S
O615 Dy601 2.339 1_655 S
O615 C602 1.257 . S
C616 C619 1.344 . S
C616 C620 1.328 . S
C616 C622 1.516 . S
C617 C618 1.304 . S
C617 C621 1.323 . S
C618 C617 1.304 . S
C618 C619 1.371 . S
C618 H632 0.930 . S
C619 C616 1.344 . S
C619 C618 1.371 . S
C619 H633 0.931 . S
C620 C616 1.328 . S
C620 C621 1.433 . S
C620 H634 0.931 . S
C621 C617 1.323 . S
C621 C620 1.433 . S
C621 H635 0.933 . S
C622 Dy600 2.738 . S
C622 O605 1.255 . S
C622 O606 1.249 . S
C622 C616 1.516 . S
C623 O607 1.254 . S
C623 O608 1.257 . S
C624 O609 1.267 1_556 S
C624 O610 1.236 . S
C625 C628 1.344 . S
C625 C629 1.328 . S
C625 C631 1.516 . S
C626 C627 1.304 . S
C626 C630 1.323 . S
C627 C626 1.304 . S
C627 C628 1.371 . S
C627 H636 0.930 . S
C628 C625 1.344 . S
C628 C627 1.371 . S
C628 H637 0.931 . S
C629 C625 1.328 . S
C629 C630 1.433 . S
C629 H638 0.931 . S
C630 C626 1.323 . S
C630 C629 1.433 . S
C630 H639 0.933 . S
C631 Dy601 2.738 . S
C631 O611 1.255 . S
C631 O612 1.249 . S
C631 C625 1.516 . S
H632 C618 0.930 . S
H633 C619 0.931 . S
H634 C620 0.931 . S
H635 C621 0.933 . S
H636 C627 0.930 . S
H637 C628 0.931 . S
H638 C629 0.931 . S
H639 C630 0.933 . S
H640 C648 0.929 . S
H641 C650 0.930 . S
H642 C652 0.930 . S
H643 C655 0.929 . S
H644 C658 0.930 . S
H645 C660 0.960 . S
H646 C660 0.960 . S
H647 C660 0.960 . S
C648 H640 0.929 . S
C648 C649 1.377 . S
C648 C650 1.384 . S
C649 C648 1.377 . S
C649 C655 1.390 . S
C650 H641 0.930 . S
C650 C648 1.384 . S
C650 C651 1.372 . S
C651 C650 1.372 . S
C651 C652 1.400 . S
C651 C656 1.490 . S
C652 H642 0.930 . S
C652 C651 1.400 . S
C652 C655 1.386 . S
H653 C669 0.930 . S
H654 C670 0.931 . S
C655 H643 0.929 . S
C655 C649 1.390 . S
C655 C652 1.386 . S
C656 C651 1.490 . S
C656 C658 1.395 . S
C656 C659 1.403 . S
H657 C663 0.930 . S
C658 H644 0.930 . S
C658 C656 1.395 . S
C658 C661 1.403 . S
C659 C656 1.403 . S
C659 C660 1.524 . S
C659 C663 1.400 . S
C660 H645 0.960 . S
C660 H646 0.960 . S
C660 H647 0.960 . S
C660 C659 1.524 . S
C661 C658 1.403 . S
C661 C662 1.392 . S
C661 C665 1.495 . S
C662 C661 1.392 . S
C662 C663 1.385 . S
C662 C664 1.478 . S
C663 H657 0.930 . S
C663 C659 1.400 . S
C663 C662 1.385 . S
C664 C662 1.478 . S
C664 C666 1.381 . S
C664 C670 1.383 . S
C665 C661 1.495 . S
C665 H671 0.959 . S
C665 H672 0.961 . S
C665 H673 0.960 . S
C666 C664 1.381 . S
C666 C667 1.394 . S
C666 H674 0.930 . S
C667 C666 1.394 . S
C667 C668 1.383 . S
C667 H675 0.929 . S
C668 C667 1.383 . S
C668 C669 1.377 . S
C669 H653 0.930 . S
C669 C668 1.377 . S
C669 C670 1.379 . S
C670 H654 0.931 . S
C670 C664 1.383 . S
C670 C669 1.379 . S
H671 C665 0.959 . S
H672 C665 0.961 . S
H673 C665 0.960 . S
H674 C666 0.930 . S
H675 C667 0.929 . S
H676 C684 0.929 . S
H677 C686 0.930 . S
H678 C688 0.930 . S
H679 C691 0.929 . S
H680 C694 0.930 . S
H681 C696 0.960 . S
H682 C696 0.960 . S
H683 C696 0.960 . S
C684 H676 0.929 . S
C684 C685 1.377 . S
C684 C686 1.384 . S
C685 C684 1.377 . S
C685 C691 1.390 . S
C686 H677 0.930 . S
C686 C684 1.384 . S
C686 C687 1.372 . S
C687 C686 1.372 . S
C687 C688 1.400 . S
C687 C692 1.490 . S
C688 H678 0.930 . S
C688 C687 1.400 . S
C688 C691 1.386 . S
H689 C705 0.930 . S
H690 C706 0.931 . S
C691 H679 0.929 . S
C691 C685 1.390 . S
C691 C688 1.386 . S
C692 C687 1.490 . S
C692 C694 1.395 . S
C692 C695 1.403 . S
H693 C699 0.930 . S
C694 H680 0.930 . S
C694 C692 1.395 . S
C694 C697 1.403 . S
C695 C692 1.403 . S
C695 C696 1.524 . S
C695 C699 1.400 . S
C696 H681 0.960 . S
C696 H682 0.960 . S
C696 H683 0.960 . S
C696 C695 1.524 . S
C697 C694 1.403 . S
C697 C698 1.392 . S
C697 C701 1.495 . S
C698 C697 1.392 . S
C698 C699 1.385 . S
C698 C700 1.478 . S
C699 H693 0.930 . S
C699 C695 1.400 . S
C699 C698 1.385 . S
C700 C698 1.478 . S
C700 C702 1.381 . S
C700 C706 1.383 . S
C701 C697 1.495 . S
C701 H707 0.959 . S
C701 H708 0.961 . S
C701 H709 0.960 . S
C702 C700 1.381 . S
C702 C703 1.394 . S
C702 H710 0.930 . S
C703 C702 1.394 . S
C703 C704 1.383 . S
C703 H711 0.929 . S
C704 C703 1.383 . S
C704 C705 1.377 . S
C705 H689 0.930 . S
C705 C704 1.377 . S
C705 C706 1.379 . S
C706 H690 0.931 . S
C706 C700 1.383 . S
C706 C705 1.379 . S
H707 C701 0.959 . S
H708 C701 0.961 . S
H709 C701 0.960 . S
H710 C702 0.930 . S
H711 C703 0.929 . S
H712 C720 0.929 . S
H713 C722 0.930 . S
H714 C724 0.930 . S
H715 C727 0.929 . S
H716 C730 0.930 . S
H717 C732 0.960 . S
H718 C732 0.960 . S
H719 C732 0.960 . S
C720 H712 0.929 . S
C720 C721 1.377 . S
C720 C722 1.384 . S
C721 C720 1.377 . S
C721 C727 1.390 . S
C722 H713 0.930 . S
C722 C720 1.384 . S
C722 C723 1.372 . S
C723 C722 1.372 . S
C723 C724 1.400 . S
C723 C728 1.490 . S
C724 H714 0.930 . S
C724 C723 1.400 . S
C724 C727 1.386 . S
H725 C741 0.930 . S
H726 C742 0.931 . S
C727 H715 0.929 . S
C727 C721 1.390 . S
C727 C724 1.386 . S
C728 C723 1.490 . S
C728 C730 1.395 . S
C728 C731 1.403 . S
H729 C735 0.930 . S
C730 H716 0.930 . S
C730 C728 1.395 . S
C730 C733 1.403 . S
C731 C728 1.403 . S
C731 C732 1.524 . S
C731 C735 1.400 . S
C732 H717 0.960 . S
C732 H718 0.960 . S
C732 H719 0.960 . S
C732 C731 1.524 . S
C733 C730 1.403 . S
C733 C734 1.392 . S
C733 C737 1.495 . S
C734 C733 1.392 . S
C734 C735 1.385 . S
C734 C736 1.478 . S
C735 H729 0.930 . S
C735 C731 1.400 . S
C735 C734 1.385 . S
C736 C734 1.478 . S
C736 C738 1.381 . S
C736 C742 1.383 . S
C737 C733 1.495 . S
C737 H743 0.959 . S
C737 H744 0.961 . S
C737 H745 0.960 . S
C738 C736 1.381 . S
C738 C739 1.394 . S
C738 H746 0.930 . S
C739 C738 1.394 . S
C739 C740 1.383 . S
C739 H747 0.929 . S
C740 C739 1.383 . S
C740 C741 1.377 . S
C741 H725 0.930 . S
C741 C740 1.377 . S
C741 C742 1.379 . S
C742 H726 0.931 . S
C742 C736 1.383 . S
C742 C741 1.379 . S
H743 C737 0.959 . S
H744 C737 0.961 . S
H745 C737 0.960 . S
H746 C738 0.930 . S
H747 C739 0.929 . S
H748 C756 0.929 . S
H749 C758 0.930 . S
H750 C760 0.930 . S
H751 C763 0.929 . S
H752 C766 0.930 . S
H753 C768 0.960 . S
H754 C768 0.960 . S
H755 C768 0.960 . S
C756 H748 0.929 . S
C756 C757 1.377 . S
C756 C758 1.384 . S
C757 C756 1.377 . S
C757 C763 1.390 . S
C758 H749 0.930 . S
C758 C756 1.384 . S
C758 C759 1.372 . S
C759 C758 1.372 . S
C759 C760 1.400 . S
C759 C764 1.490 . S
C760 H750 0.930 . S
C760 C759 1.400 . S
C760 C763 1.386 . S
H761 C777 0.930 . S
H762 C778 0.931 . S
C763 H751 0.929 . S
C763 C757 1.390 . S
C763 C760 1.386 . S
C764 C759 1.490 . S
C764 C766 1.395 . S
C764 C767 1.403 . S
H765 C771 0.930 . S
C766 H752 0.930 . S
C766 C764 1.395 . S
C766 C769 1.403 . S
C767 C764 1.403 . S
C767 C768 1.524 . S
C767 C771 1.400 . S
C768 H753 0.960 . S
C768 H754 0.960 . S
C768 H755 0.960 . S
C768 C767 1.524 . S
C769 C766 1.403 . S
C769 C770 1.392 . S
C769 C773 1.495 . S
C770 C769 1.392 . S
C770 C771 1.385 . S
C770 C772 1.478 . S
C771 H765 0.930 . S
C771 C767 1.400 . S
C771 C770 1.385 . S
C772 C770 1.478 . S
C772 C774 1.381 . S
C772 C778 1.383 . S
C773 C769 1.495 . S
C773 H779 0.959 . S
C773 H780 0.961 . S
C773 H781 0.960 . S
C774 C772 1.381 . S
C774 C775 1.394 . S
C774 H782 0.930 . S
C775 C774 1.394 . S
C775 C776 1.383 . S
C775 H783 0.929 . S
C776 C775 1.383 . S
C776 C777 1.377 . S
C777 H761 0.930 . S
C777 C776 1.377 . S
C777 C778 1.379 . S
C778 H762 0.931 . S
C778 C772 1.383 . S
C778 C777 1.379 . S
H779 C773 0.959 . S
H780 C773 0.961 . S
H781 C773 0.960 . S
H782 C774 0.930 . S
H783 C775 0.929 . S
H784 C792 0.929 . S
H785 C794 0.930 . S
H786 C796 0.930 . S
H787 C799 0.929 . S
H788 C802 0.930 . S
H789 C804 0.960 . S
H790 C804 0.960 . S
H791 C804 0.960 . S
C792 H784 0.929 . S
C792 C793 1.377 . S
C792 C794 1.384 . S
C793 C792 1.377 . S
C793 C799 1.390 . S
C794 H785 0.930 . S
C794 C792 1.384 . S
C794 C795 1.372 . S
C795 C794 1.372 . S
C795 C796 1.400 . S
C795 C800 1.490 . S
C796 H786 0.930 . S
C796 C795 1.400 . S
C796 C799 1.386 . S
H797 C813 0.930 . S
H798 C814 0.931 . S
C799 H787 0.929 . S
C799 C793 1.390 . S
C799 C796 1.386 . S
C800 C795 1.490 . S
C800 C802 1.395 . S
C800 C803 1.403 . S
H801 C807 0.930 . S
C802 H788 0.930 . S
C802 C800 1.395 . S
C802 C805 1.403 . S
C803 C800 1.403 . S
C803 C804 1.524 . S
C803 C807 1.400 . S
C804 H789 0.960 . S
C804 H790 0.960 . S
C804 H791 0.960 . S
C804 C803 1.524 . S
C805 C802 1.403 . S
C805 C806 1.392 . S
C805 C809 1.495 . S
C806 C805 1.392 . S
C806 C807 1.385 . S
C806 C808 1.478 . S
C807 H801 0.930 . S
C807 C803 1.400 . S
C807 C806 1.385 . S
C808 C806 1.478 . S
C808 C810 1.381 . S
C808 C814 1.383 . S
C809 C805 1.495 . S
C809 H815 0.959 . S
C809 H816 0.961 . S
C809 H817 0.960 . S
C810 C808 1.381 . S
C810 C811 1.394 . S
C810 H818 0.930 . S
C811 C810 1.394 . S
C811 C812 1.383 . S
C811 H819 0.929 . S
C812 C811 1.383 . S
C812 C813 1.377 . S
C813 H797 0.930 . S
C813 C812 1.377 . S
C813 C814 1.379 . S
C814 H798 0.931 . S
C814 C808 1.383 . S
C814 C813 1.379 . S
H815 C809 0.959 . S
H816 C809 0.961 . S
H817 C809 0.960 . S
H818 C810 0.930 . S
H819 C811 0.929 . S
H820 C828 0.929 . S
H821 C830 0.930 . S
H822 C832 0.930 . S
H823 C835 0.929 . S
H824 C838 0.930 . S
H825 C840 0.960 . S
H826 C840 0.960 . S
H827 C840 0.960 . S
C828 H820 0.929 . S
C828 C829 1.377 . S
C828 C830 1.384 . S
C829 C828 1.377 . S
C829 C835 1.390 . S
C830 H821 0.930 . S
C830 C828 1.384 . S
C830 C831 1.372 . S
C831 C830 1.372 . S
C831 C832 1.400 . S
C831 C836 1.490 . S
C832 H822 0.930 . S
C832 C831 1.400 . S
C832 C835 1.386 . S
H833 C849 0.930 . S
H834 C850 0.931 . S
C835 H823 0.929 . S
C835 C829 1.390 . S
C835 C832 1.386 . S
C836 C831 1.490 . S
C836 C838 1.395 . S
C836 C839 1.403 . S
H837 C843 0.930 . S
C838 H824 0.930 . S
C838 C836 1.395 . S
C838 C841 1.403 . S
C839 C836 1.403 . S
C839 C840 1.524 . S
C839 C843 1.400 . S
C840 H825 0.960 . S
C840 H826 0.960 . S
C840 H827 0.960 . S
C840 C839 1.524 . S
C841 C838 1.403 . S
C841 C842 1.392 . S
C841 C845 1.495 . S
C842 C841 1.392 . S
C842 C843 1.385 . S
C842 C844 1.478 . S
C843 H837 0.930 . S
C843 C839 1.400 . S
C843 C842 1.385 . S
C844 C842 1.478 . S
C844 C846 1.381 . S
C844 C850 1.383 . S
C845 C841 1.495 . S
C845 H851 0.959 . S
C845 H852 0.961 . S
C845 H853 0.960 . S
C846 C844 1.381 . S
C846 C847 1.394 . S
C846 H854 0.930 . S
C847 C846 1.394 . S
C847 C848 1.383 . S
C847 H855 0.929 . S
C848 C847 1.383 . S
C848 C849 1.377 . S
C849 H833 0.930 . S
C849 C848 1.377 . S
C849 C850 1.379 . S
C850 H834 0.931 . S
C850 C844 1.383 . S
C850 C849 1.379 . S
H851 C845 0.959 . S
H852 C845 0.961 . S
H853 C845 0.960 . S
H854 C846 0.930 . S
H855 C847 0.929 . S
H856 C864 0.929 . S
H857 C866 0.930 . S
H858 C868 0.930 . S
H859 C871 0.929 . S
H860 C874 0.930 . S
H861 C876 0.960 . S
H862 C876 0.960 . S
H863 C876 0.960 . S
C864 H856 0.929 . S
C864 C865 1.377 . S
C864 C866 1.384 . S
C865 C864 1.377 . S
C865 C871 1.390 . S
C866 H857 0.930 . S
C866 C864 1.384 . S
C866 C867 1.372 . S
C867 C866 1.372 . S
C867 C868 1.400 . S
C867 C872 1.490 . S
C868 H858 0.930 . S
C868 C867 1.400 . S
C868 C871 1.386 . S
H869 C885 0.930 . S
H870 C886 0.931 . S
C871 H859 0.929 . S
C871 C865 1.390 . S
C871 C868 1.386 . S
C872 C867 1.490 . S
C872 C874 1.395 . S
C872 C875 1.403 . S
H873 C879 0.930 . S
C874 H860 0.930 . S
C874 C872 1.395 . S
C874 C877 1.403 . S
C875 C872 1.403 . S
C875 C876 1.524 . S
C875 C879 1.400 . S
C876 H861 0.960 . S
C876 H862 0.960 . S
C876 H863 0.960 . S
C876 C875 1.524 . S
C877 C874 1.403 . S
C877 C878 1.392 . S
C877 C881 1.495 . S
C878 C877 1.392 . S
C878 C879 1.385 . S
C878 C880 1.478 . S
C879 H873 0.930 . S
C879 C875 1.400 . S
C879 C878 1.385 . S
C880 C878 1.478 . S
C880 C882 1.381 . S
C880 C886 1.383 . S
C881 C877 1.495 . S
C881 H887 0.959 . S
C881 H888 0.961 . S
C881 H889 0.960 . S
C882 C880 1.381 . S
C882 C883 1.394 . S
C882 H890 0.930 . S
C883 C882 1.394 . S
C883 C884 1.383 . S
C883 H891 0.929 . S
C884 C883 1.383 . S
C884 C885 1.377 . S
C885 H869 0.930 . S
C885 C884 1.377 . S
C885 C886 1.379 . S
C886 H870 0.931 . S
C886 C880 1.383 . S
C886 C885 1.379 . S
H887 C881 0.959 . S
H888 C881 0.961 . S
H889 C881 0.960 . S
H890 C882 0.930 . S
H891 C883 0.929 . S
H892 C900 0.929 . S
H893 C902 0.930 . S
H894 C904 0.930 . S
H895 C907 0.929 . S
H896 C910 0.930 . S
H897 C912 0.960 . S
H898 C912 0.960 . S
H899 C912 0.960 . S
C900 H892 0.929 . S
C900 C901 1.377 . S
C900 C902 1.384 . S
C901 C900 1.377 . S
C901 C907 1.390 . S
C902 H893 0.930 . S
C902 C900 1.384 . S
C902 C903 1.372 . S
C903 C902 1.372 . S
C903 C904 1.400 . S
C903 C908 1.490 . S
C904 H894 0.930 . S
C904 C903 1.400 . S
C904 C907 1.386 . S
H905 C921 0.930 . S
H906 C922 0.931 . S
C907 H895 0.929 . S
C907 C901 1.390 . S
C907 C904 1.386 . S
C908 C903 1.490 . S
C908 C910 1.395 . S
C908 C911 1.403 . S
H909 C915 0.930 . S
C910 H896 0.930 . S
C910 C908 1.395 . S
C910 C913 1.403 . S
C911 C908 1.403 . S
C911 C912 1.524 . S
C911 C915 1.400 . S
C912 H897 0.960 . S
C912 H898 0.960 . S
C912 H899 0.960 . S
C912 C911 1.524 . S
C913 C910 1.403 . S
C913 C914 1.392 . S
C913 C917 1.495 . S
C914 C913 1.392 . S
C914 C915 1.385 . S
C914 C916 1.478 . S
C915 H909 0.930 . S
C915 C911 1.400 . S
C915 C914 1.385 . S
C916 C914 1.478 . S
C916 C918 1.381 . S
C916 C922 1.383 . S
C917 C913 1.495 . S
C917 H923 0.959 . S
C917 H924 0.961 . S
C917 H925 0.960 . S
C918 C916 1.381 . S
C918 C919 1.394 . S
C918 H926 0.930 . S
C919 C918 1.394 . S
C919 C920 1.383 . S
C919 H927 0.929 . S
C920 C919 1.383 . S
C920 C921 1.377 . S
C921 H905 0.930 . S
C921 C920 1.377 . S
C921 C922 1.379 . S
C922 H906 0.931 . S
C922 C916 1.383 . S
C922 C921 1.379 . S
H923 C917 0.959 . S
H924 C917 0.961 . S
H925 C917 0.960 . S
H926 C918 0.930 . S
H927 C919 0.929 . S
H928 C936 0.929 . S
H929 C938 0.930 . S
H930 C940 0.930 . S
H931 C943 0.929 . S
H932 C946 0.930 . S
H933 C948 0.960 . S
H934 C948 0.960 . S
H935 C948 0.960 . S
C936 H928 0.929 . S
C936 C937 1.377 . S
C936 C938 1.384 . S
C937 C936 1.377 . S
C937 C943 1.390 . S
C938 H929 0.930 . S
C938 C936 1.384 . S
C938 C939 1.372 . S
C939 C938 1.372 . S
C939 C940 1.400 . S
C939 C944 1.490 . S
C940 H930 0.930 . S
C940 C939 1.400 . S
C940 C943 1.386 . S
H941 C957 0.930 . S
H942 C958 0.931 . S
C943 H931 0.929 . S
C943 C937 1.390 . S
C943 C940 1.386 . S
C944 C939 1.490 . S
C944 C946 1.395 . S
C944 C947 1.403 . S
H945 C951 0.930 . S
C946 H932 0.930 . S
C946 C944 1.395 . S
C946 C949 1.403 . S
C947 C944 1.403 . S
C947 C948 1.524 . S
C947 C951 1.400 . S
C948 H933 0.960 . S
C948 H934 0.960 . S
C948 H935 0.960 . S
C948 C947 1.524 . S
C949 C946 1.403 . S
C949 C950 1.392 . S
C949 C953 1.495 . S
C950 C949 1.392 . S
C950 C951 1.385 . S
C950 C952 1.478 . S
C951 H945 0.930 . S
C951 C947 1.400 . S
C951 C950 1.385 . S
C952 C950 1.478 . S
C952 C954 1.381 . S
C952 C958 1.383 . S
C953 C949 1.495 . S
C953 H959 0.959 . S
C953 H960 0.961 . S
C953 H961 0.960 . S
C954 C952 1.381 . S
C954 C955 1.394 . S
C954 H962 0.930 . S
C955 C954 1.394 . S
C955 C956 1.383 . S
C955 H963 0.929 . S
C956 C955 1.383 . S
C956 C957 1.377 . S
C957 H941 0.930 . S
C957 C956 1.377 . S
C957 C958 1.379 . S
C958 H942 0.931 . S
C958 C952 1.383 . S
C958 C957 1.379 . S
H959 C953 0.959 . S
H960 C953 0.961 . S
H961 C953 0.960 . S
H962 C954 0.930 . S
H963 C955 0.929 . S
H964 C972 0.929 . S
H965 C974 0.930 . S
H966 C976 0.930 . S
H967 C979 0.929 . S
H968 C982 0.930 . S
H969 C984 0.960 . S
H970 C984 0.960 . S
H971 C984 0.960 . S
C972 H964 0.929 . S
C972 C973 1.377 . S
C972 C974 1.384 . S
C973 C972 1.377 . S
C973 C979 1.390 . S
C974 H965 0.930 . S
C974 C972 1.384 . S
C974 C975 1.372 . S
C975 C974 1.372 . S
C975 C976 1.400 . S
C975 C980 1.490 . S
C976 H966 0.930 . S
C976 C975 1.400 . S
C976 C979 1.386 . S
H977 C993 0.930 . S
H978 C994 0.931 . S
C979 H967 0.929 . S
C979 C973 1.390 . S
C979 C976 1.386 . S
C980 C975 1.490 . S
C980 C982 1.395 . S
C980 C983 1.403 . S
H981 C987 0.930 . S
C982 H968 0.930 . S
C982 C980 1.395 . S
C982 C985 1.403 . S
C983 C980 1.403 . S
C983 C984 1.524 . S
C983 C987 1.400 . S
C984 H969 0.960 . S
C984 H970 0.960 . S
C984 H971 0.960 . S
C984 C983 1.524 . S
C985 C982 1.403 . S
C985 C986 1.392 . S
C985 C989 1.495 . S
C986 C985 1.392 . S
C986 C987 1.385 . S
C986 C988 1.478 . S
C987 H981 0.930 . S
C987 C983 1.400 . S
C987 C986 1.385 . S
C988 C986 1.478 . S
C988 C990 1.381 . S
C988 C994 1.383 . S
C989 C985 1.495 . S
C989 H995 0.959 . S
C989 H996 0.961 . S
C989 H997 0.960 . S
C990 C988 1.381 . S
C990 C991 1.394 . S
C990 H998 0.930 . S
C991 C990 1.394 . S
C991 C992 1.383 . S
C991 H999 0.929 . S
C992 C991 1.383 . S
C992 C993 1.377 . S
C993 H977 0.930 . S
C993 C992 1.377 . S
C993 C994 1.379 . S
C994 H978 0.931 . S
C994 C988 1.383 . S
C994 C993 1.379 . S
H995 C989 0.959 . S
H996 C989 0.961 . S
H997 C989 0.960 . S
H998 C990 0.930 . S
H999 C991 0.929 . S
H1000 C1008 0.929 . S
H1001 C1010 0.930 . S
H1002 C1012 0.930 . S
H1003 C1015 0.929 . S
H1004 C1018 0.930 . S
H1005 C1020 0.960 . S
H1006 C1020 0.960 . S
H1007 C1020 0.960 . S
C1008 H1000 0.929 . S
C1008 C1009 1.377 . S
C1008 C1010 1.384 . S
C1009 C1008 1.377 . S
C1009 C1015 1.390 . S
C1010 H1001 0.930 . S
C1010 C1008 1.384 . S
C1010 C1011 1.372 . S
C1011 C1010 1.372 . S
C1011 C1012 1.400 . S
C1011 C1016 1.490 . S
C1012 H1002 0.930 . S
C1012 C1011 1.400 . S
C1012 C1015 1.386 . S
H1013 C1029 0.930 . S
H1014 C1030 0.931 . S
C1015 H1003 0.929 . S
C1015 C1009 1.390 . S
C1015 C1012 1.386 . S
C1016 C1011 1.490 . S
C1016 C1018 1.395 . S
C1016 C1019 1.403 . S
H1017 C1023 0.930 . S
C1018 H1004 0.930 . S
C1018 C1016 1.395 . S
C1018 C1021 1.403 . S
C1019 C1016 1.403 . S
C1019 C1020 1.524 . S
C1019 C1023 1.400 . S
C1020 H1005 0.960 . S
C1020 H1006 0.960 . S
C1020 H1007 0.960 . S
C1020 C1019 1.524 . S
C1021 C1018 1.403 . S
C1021 C1022 1.392 . S
C1021 C1025 1.495 . S
C1022 C1021 1.392 . S
C1022 C1023 1.385 . S
C1022 C1024 1.478 . S
C1023 H1017 0.930 . S
C1023 C1019 1.400 . S
C1023 C1022 1.385 . S
C1024 C1022 1.478 . S
C1024 C1026 1.381 . S
C1024 C1030 1.383 . S
C1025 C1021 1.495 . S
C1025 H1031 0.959 . S
C1025 H1032 0.961 . S
C1025 H1033 0.960 . S
C1026 C1024 1.381 . S
C1026 C1027 1.394 . S
C1026 H1034 0.930 . S
C1027 C1026 1.394 . S
C1027 C1028 1.383 . S
C1027 H1035 0.929 . S
C1028 C1027 1.383 . S
C1028 C1029 1.377 . S
C1029 H1013 0.930 . S
C1029 C1028 1.377 . S
C1029 C1030 1.379 . S
C1030 H1014 0.931 . S
C1030 C1024 1.383 . S
C1030 C1029 1.379 . S
H1031 C1025 0.959 . S
H1032 C1025 0.961 . S
H1033 C1025 0.960 . S
H1034 C1026 0.930 . S
H1035 C1027 0.929 . S
H1036 C1044 0.929 . S
H1037 C1046 0.930 . S
H1038 C1048 0.930 . S
H1039 C1051 0.929 . S
H1040 C1054 0.930 . S
H1041 C1056 0.960 . S
H1042 C1056 0.960 . S
H1043 C1056 0.960 . S
C1044 H1036 0.929 . S
C1044 C1045 1.377 . S
C1044 C1046 1.384 . S
C1045 C1044 1.377 . S
C1045 C1051 1.390 . S
C1046 H1037 0.930 . S
C1046 C1044 1.384 . S
C1046 C1047 1.372 . S
C1047 C1046 1.372 . S
C1047 C1048 1.400 . S
C1047 C1052 1.490 . S
C1048 H1038 0.930 . S
C1048 C1047 1.400 . S
C1048 C1051 1.386 . S
H1049 C1065 0.930 . S
H1050 C1066 0.931 . S
C1051 H1039 0.929 . S
C1051 C1045 1.390 . S
C1051 C1048 1.386 . S
C1052 C1047 1.490 . S
C1052 C1054 1.395 . S
C1052 C1055 1.403 . S
H1053 C1059 0.930 . S
C1054 H1040 0.930 . S
C1054 C1052 1.395 . S
C1054 C1057 1.403 . S
C1055 C1052 1.403 . S
C1055 C1056 1.524 . S
C1055 C1059 1.400 . S
C1056 H1041 0.960 . S
C1056 H1042 0.960 . S
C1056 H1043 0.960 . S
C1056 C1055 1.524 . S
C1057 C1054 1.403 . S
C1057 C1058 1.392 . S
C1057 C1061 1.495 . S
C1058 C1057 1.392 . S
C1058 C1059 1.385 . S
C1058 C1060 1.478 . S
C1059 H1053 0.930 . S
C1059 C1055 1.400 . S
C1059 C1058 1.385 . S
C1060 C1058 1.478 . S
C1060 C1062 1.381 . S
C1060 C1066 1.383 . S
C1061 C1057 1.495 . S
C1061 H1067 0.959 . S
C1061 H1068 0.961 . S
C1061 H1069 0.960 . S
C1062 C1060 1.381 . S
C1062 C1063 1.394 . S
C1062 H1070 0.930 . S
C1063 C1062 1.394 . S
C1063 C1064 1.383 . S
C1063 H1071 0.929 . S
C1064 C1063 1.383 . S
C1064 C1065 1.377 . S
C1065 H1049 0.930 . S
C1065 C1064 1.377 . S
C1065 C1066 1.379 . S
C1066 H1050 0.931 . S
C1066 C1060 1.383 . S
C1066 C1065 1.379 . S
H1067 C1061 0.959 . S
H1068 C1061 0.961 . S
H1069 C1061 0.960 . S
H1070 C1062 0.930 . S
H1071 C1063 0.929 . S
H1072 C1080 0.929 . S
H1073 C1082 0.930 . S
H1074 C1084 0.930 . S
H1075 C1087 0.929 . S
H1076 C1090 0.930 . S
H1077 C1092 0.960 . S
H1078 C1092 0.960 . S
H1079 C1092 0.960 . S
C1080 H1072 0.929 . S
C1080 C1081 1.377 . S
C1080 C1082 1.384 . S
C1081 C1080 1.377 . S
C1081 C1087 1.390 . S
C1082 H1073 0.930 . S
C1082 C1080 1.384 . S
C1082 C1083 1.372 . S
C1083 C1082 1.372 . S
C1083 C1084 1.400 . S
C1083 C1088 1.490 . S
C1084 H1074 0.930 . S
C1084 C1083 1.400 . S
C1084 C1087 1.386 . S
H1085 C1101 0.930 . S
H1086 C1102 0.931 . S
C1087 H1075 0.929 . S
C1087 C1081 1.390 . S
C1087 C1084 1.386 . S
C1088 C1083 1.490 . S
C1088 C1090 1.395 . S
C1088 C1091 1.403 . S
H1089 C1095 0.930 . S
C1090 H1076 0.930 . S
C1090 C1088 1.395 . S
C1090 C1093 1.403 . S
C1091 C1088 1.403 . S
C1091 C1092 1.524 . S
C1091 C1095 1.400 . S
C1092 H1077 0.960 . S
C1092 H1078 0.960 . S
C1092 H1079 0.960 . S
C1092 C1091 1.524 . S
C1093 C1090 1.403 . S
C1093 C1094 1.392 . S
C1093 C1097 1.495 . S
C1094 C1093 1.392 . S
C1094 C1095 1.385 . S
C1094 C1096 1.478 . S
C1095 H1089 0.930 . S
C1095 C1091 1.400 . S
C1095 C1094 1.385 . S
C1096 C1094 1.478 . S
C1096 C1098 1.381 . S
C1096 C1102 1.383 . S
C1097 C1093 1.495 . S
C1097 H1103 0.959 . S
C1097 H1104 0.961 . S
C1097 H1105 0.960 . S
C1098 C1096 1.381 . S
C1098 C1099 1.394 . S
C1098 H1106 0.930 . S
C1099 C1098 1.394 . S
C1099 C1100 1.383 . S
C1099 H1107 0.929 . S
C1100 C1099 1.383 . S
C1100 C1101 1.377 . S
C1101 H1085 0.930 . S
C1101 C1100 1.377 . S
C1101 C1102 1.379 . S
C1102 H1086 0.931 . S
C1102 C1096 1.383 . S
C1102 C1101 1.379 . S
H1103 C1097 0.959 . S
H1104 C1097 0.961 . S
H1105 C1097 0.960 . S
H1106 C1098 0.930 . S
H1107 C1099 0.929 . S
H1108 C1116 0.929 . S
H1109 C1118 0.930 . S
H1110 C1120 0.930 . S
H1111 C1123 0.929 . S
H1112 C1126 0.930 . S
H1113 C1128 0.960 . S
H1114 C1128 0.960 . S
H1115 C1128 0.960 . S
C1116 H1108 0.929 . S
C1116 C1117 1.377 . S
C1116 C1118 1.384 . S
C1117 C1116 1.377 . S
C1117 C1123 1.390 . S
C1118 H1109 0.930 . S
C1118 C1116 1.384 . S
C1118 C1119 1.372 . S
C1119 C1118 1.372 . S
C1119 C1120 1.400 . S
C1119 C1124 1.490 . S
C1120 H1110 0.930 . S
C1120 C1119 1.400 . S
C1120 C1123 1.386 . S
H1121 C1137 0.930 . S
H1122 C1138 0.931 . S
C1123 H1111 0.929 . S
C1123 C1117 1.390 . S
C1123 C1120 1.386 . S
C1124 C1119 1.490 . S
C1124 C1126 1.395 . S
C1124 C1127 1.403 . S
H1125 C1131 0.930 . S
C1126 H1112 0.930 . S
C1126 C1124 1.395 . S
C1126 C1129 1.403 . S
C1127 C1124 1.403 . S
C1127 C1128 1.524 . S
C1127 C1131 1.400 . S
C1128 H1113 0.960 . S
C1128 H1114 0.960 . S
C1128 H1115 0.960 . S
C1128 C1127 1.524 . S
C1129 C1126 1.403 . S
C1129 C1130 1.392 . S
C1129 C1133 1.495 . S
C1130 C1129 1.392 . S
C1130 C1131 1.385 . S
C1130 C1132 1.478 . S
C1131 H1125 0.930 . S
C1131 C1127 1.400 . S
C1131 C1130 1.385 . S
C1132 C1130 1.478 . S
C1132 C1134 1.381 . S
C1132 C1138 1.383 . S
C1133 C1129 1.495 . S
C1133 H1139 0.959 . S
C1133 H1140 0.961 . S
C1133 H1141 0.960 . S
C1134 C1132 1.381 . S
C1134 C1135 1.394 . S
C1134 H1142 0.930 . S
C1135 C1134 1.394 . S
C1135 C1136 1.383 . S
C1135 H1143 0.929 . S
C1136 C1135 1.383 . S
C1136 C1137 1.377 . S
C1137 H1121 0.930 . S
C1137 C1136 1.377 . S
C1137 C1138 1.379 . S
C1138 H1122 0.931 . S
C1138 C1132 1.383 . S
C1138 C1137 1.379 . S
H1139 C1133 0.959 . S
H1140 C1133 0.961 . S
H1141 C1133 0.960 . S
H1142 C1134 0.930 . S
H1143 C1135 0.929 . S
H1144 C1152 0.929 . S
H1145 C1154 0.930 . S
H1146 C1156 0.930 . S
H1147 C1159 0.929 . S
H1148 C1162 0.930 . S
H1149 C1164 0.960 . S
H1150 C1164 0.960 . S
H1151 C1164 0.960 . S
C1152 H1144 0.929 . S
C1152 C1153 1.377 . S
C1152 C1154 1.384 . S
C1153 C1152 1.377 . S
C1153 C1159 1.390 . S
C1154 H1145 0.930 . S
C1154 C1152 1.384 . S
C1154 C1155 1.372 . S
C1155 C1154 1.372 . S
C1155 C1156 1.400 . S
C1155 C1160 1.490 . S
C1156 H1146 0.930 . S
C1156 C1155 1.400 . S
C1156 C1159 1.386 . S
H1157 C1173 0.930 . S
H1158 C1174 0.931 . S
C1159 H1147 0.929 . S
C1159 C1153 1.390 . S
C1159 C1156 1.386 . S
C1160 C1155 1.490 . S
C1160 C1162 1.395 . S
C1160 C1163 1.403 . S
H1161 C1167 0.930 . S
C1162 H1148 0.930 . S
C1162 C1160 1.395 . S
C1162 C1165 1.403 . S
C1163 C1160 1.403 . S
C1163 C1164 1.524 . S
C1163 C1167 1.400 . S
C1164 H1149 0.960 . S
C1164 H1150 0.960 . S
C1164 H1151 0.960 . S
C1164 C1163 1.524 . S
C1165 C1162 1.403 . S
C1165 C1166 1.392 . S
C1165 C1169 1.495 . S
C1166 C1165 1.392 . S
C1166 C1167 1.385 . S
C1166 C1168 1.478 . S
C1167 H1161 0.930 . S
C1167 C1163 1.400 . S
C1167 C1166 1.385 . S
C1168 C1166 1.478 . S
C1168 C1170 1.381 . S
C1168 C1174 1.383 . S
C1169 C1165 1.495 . S
C1169 H1175 0.959 . S
C1169 H1176 0.961 . S
C1169 H1177 0.960 . S
C1170 C1168 1.381 . S
C1170 C1171 1.394 . S
C1170 H1178 0.930 . S
C1171 C1170 1.394 . S
C1171 C1172 1.383 . S
C1171 H1179 0.929 . S
C1172 C1171 1.383 . S
C1172 C1173 1.377 . S
C1173 H1157 0.930 . S
C1173 C1172 1.377 . S
C1173 C1174 1.379 . S
C1174 H1158 0.931 . S
C1174 C1168 1.383 . S
C1174 C1173 1.379 . S
H1175 C1169 0.959 . S
H1176 C1169 0.961 . S
H1177 C1169 0.960 . S
H1178 C1170 0.930 . S
H1179 C1171 0.929 . S
H1180 C1188 0.929 . S
H1181 C1190 0.930 . S
H1182 C1192 0.930 . S
H1183 C1195 0.929 . S
H1184 C1198 0.930 . S
H1185 C1200 0.960 . S
H1186 C1200 0.960 . S
H1187 C1200 0.960 . S
C1188 H1180 0.929 . S
C1188 C1189 1.377 . S
C1188 C1190 1.384 . S
C1189 C1188 1.377 . S
C1189 C1195 1.390 . S
C1190 H1181 0.930 . S
C1190 C1188 1.384 . S
C1190 C1191 1.372 . S
C1191 C1190 1.372 . S
C1191 C1192 1.400 . S
C1191 C1196 1.490 . S
C1192 H1182 0.930 . S
C1192 C1191 1.400 . S
C1192 C1195 1.386 . S
H1193 C1209 0.930 . S
H1194 C1210 0.931 . S
C1195 H1183 0.929 . S
C1195 C1189 1.390 . S
C1195 C1192 1.386 . S
C1196 C1191 1.490 . S
C1196 C1198 1.395 . S
C1196 C1199 1.403 . S
H1197 C1203 0.930 . S
C1198 H1184 0.930 . S
C1198 C1196 1.395 . S
C1198 C1201 1.403 . S
C1199 C1196 1.403 . S
C1199 C1200 1.524 . S
C1199 C1203 1.400 . S
C1200 H1185 0.960 . S
C1200 H1186 0.960 . S
C1200 H1187 0.960 . S
C1200 C1199 1.524 . S
C1201 C1198 1.403 . S
C1201 C1202 1.392 . S
C1201 C1205 1.495 . S
C1202 C1201 1.392 . S
C1202 C1203 1.385 . S
C1202 C1204 1.478 . S
C1203 H1197 0.930 . S
C1203 C1199 1.400 . S
C1203 C1202 1.385 . S
C1204 C1202 1.478 . S
C1204 C1206 1.381 . S
C1204 C1210 1.383 . S
C1205 C1201 1.495 . S
C1205 H1211 0.959 . S
C1205 H1212 0.961 . S
C1205 H1213 0.960 . S
C1206 C1204 1.381 . S
C1206 C1207 1.394 . S
C1206 H1214 0.930 . S
C1207 C1206 1.394 . S
C1207 C1208 1.383 . S
C1207 H1215 0.929 . S
C1208 C1207 1.383 . S
C1208 C1209 1.377 . S
C1209 H1193 0.930 . S
C1209 C1208 1.377 . S
C1209 C1210 1.379 . S
C1210 H1194 0.931 . S
C1210 C1204 1.383 . S
C1210 C1209 1.379 . S
H1211 C1205 0.959 . S
H1212 C1205 0.961 . S
H1213 C1205 0.960 . S
H1214 C1206 0.930 . S
H1215 C1207 0.929 . S
H1216 C1224 0.929 . S
H1217 C1226 0.930 . S
H1218 C1228 0.930 . S
H1219 C1231 0.929 . S
H1220 C1234 0.930 . S
H1221 C1236 0.960 . S
H1222 C1236 0.960 . S
H1223 C1236 0.960 . S
C1224 H1216 0.929 . S
C1224 C1225 1.377 . S
C1224 C1226 1.384 . S
C1225 C1224 1.377 . S
C1225 C1231 1.390 . S
C1226 H1217 0.930 . S
C1226 C1224 1.384 . S
C1226 C1227 1.372 . S
C1227 C1226 1.372 . S
C1227 C1228 1.400 . S
C1227 C1232 1.490 . S
C1228 H1218 0.930 . S
C1228 C1227 1.400 . S
C1228 C1231 1.386 . S
H1229 C1245 0.930 . S
H1230 C1246 0.931 . S
C1231 H1219 0.929 . S
C1231 C1225 1.390 . S
C1231 C1228 1.386 . S
C1232 C1227 1.490 . S
C1232 C1234 1.395 . S
C1232 C1235 1.403 . S
H1233 C1239 0.930 . S
C1234 H1220 0.930 . S
C1234 C1232 1.395 . S
C1234 C1237 1.403 . S
C1235 C1232 1.403 . S
C1235 C1236 1.524 . S
C1235 C1239 1.400 . S
C1236 H1221 0.960 . S
C1236 H1222 0.960 . S
C1236 H1223 0.960 . S
C1236 C1235 1.524 . S
C1237 C1234 1.403 . S
C1237 C1238 1.392 . S
C1237 C1241 1.495 . S
C1238 C1237 1.392 . S
C1238 C1239 1.385 . S
C1238 C1240 1.478 . S
C1239 H1233 0.930 . S
C1239 C1235 1.400 . S
C1239 C1238 1.385 . S
C1240 C1238 1.478 . S
C1240 C1242 1.381 . S
C1240 C1246 1.383 . S
C1241 C1237 1.495 . S
C1241 H1247 0.959 . S
C1241 H1248 0.961 . S
C1241 H1249 0.960 . S
C1242 C1240 1.381 . S
C1242 C1243 1.394 . S
C1242 H1250 0.930 . S
C1243 C1242 1.394 . S
C1243 C1244 1.383 . S
C1243 H1251 0.929 . S
C1244 C1243 1.383 . S
C1244 C1245 1.377 . S
C1245 H1229 0.930 . S
C1245 C1244 1.377 . S
C1245 C1246 1.379 . S
C1246 H1230 0.931 . S
C1246 C1240 1.383 . S
C1246 C1245 1.379 . S
H1247 C1241 0.959 . S
H1248 C1241 0.961 . S
H1249 C1241 0.960 . S
H1250 C1242 0.930 . S
H1251 C1243 0.929 . S
H1252 C1260 0.929 . S
H1253 C1262 0.930 . S
H1254 C1264 0.930 . S
H1255 C1267 0.929 . S
H1256 C1270 0.930 . S
H1257 C1272 0.960 . S
H1258 C1272 0.960 . S
H1259 C1272 0.960 . S
C1260 H1252 0.929 . S
C1260 C1261 1.377 . S
C1260 C1262 1.384 . S
C1261 C1260 1.377 . S
C1261 C1267 1.390 . S
C1262 H1253 0.930 . S
C1262 C1260 1.384 . S
C1262 C1263 1.372 . S
C1263 C1262 1.372 . S
C1263 C1264 1.400 . S
C1263 C1268 1.490 . S
C1264 H1254 0.930 . S
C1264 C1263 1.400 . S
C1264 C1267 1.386 . S
H1265 C1281 0.930 . S
H1266 C1282 0.931 . S
C1267 H1255 0.929 . S
C1267 C1261 1.390 . S
C1267 C1264 1.386 . S
C1268 C1263 1.490 . S
C1268 C1270 1.395 . S
C1268 C1271 1.403 . S
H1269 C1275 0.930 . S
C1270 H1256 0.930 . S
C1270 C1268 1.395 . S
C1270 C1273 1.403 . S
C1271 C1268 1.403 . S
C1271 C1272 1.524 . S
C1271 C1275 1.400 . S
C1272 H1257 0.960 . S
C1272 H1258 0.960 . S
C1272 H1259 0.960 . S
C1272 C1271 1.524 . S
C1273 C1270 1.403 . S
C1273 C1274 1.392 . S
C1273 C1277 1.495 . S
C1274 C1273 1.392 . S
C1274 C1275 1.385 . S
C1274 C1276 1.478 . S
C1275 H1269 0.930 . S
C1275 C1271 1.400 . S
C1275 C1274 1.385 . S
C1276 C1274 1.478 . S
C1276 C1278 1.381 . S
C1276 C1282 1.383 . S
C1277 C1273 1.495 . S
C1277 H1283 0.959 . S
C1277 H1284 0.961 . S
C1277 H1285 0.960 . S
C1278 C1276 1.381 . S
C1278 C1279 1.394 . S
C1278 H1286 0.930 . S
C1279 C1278 1.394 . S
C1279 C1280 1.383 . S
C1279 H1287 0.929 . S
C1280 C1279 1.383 . S
C1280 C1281 1.377 . S
C1281 H1265 0.930 . S
C1281 C1280 1.377 . S
C1281 C1282 1.379 . S
C1282 H1266 0.931 . S
C1282 C1276 1.383 . S
C1282 C1281 1.379 . S
H1283 C1277 0.959 . S
H1284 C1277 0.961 . S
H1285 C1277 0.960 . S
H1286 C1278 0.930 . S
H1287 C1279 0.929 . S
H1288 C1296 0.929 . S
H1289 C1298 0.930 . S
H1290 C1300 0.930 . S
H1291 C1303 0.929 . S
H1292 C1306 0.930 . S
H1293 C1308 0.960 . S
H1294 C1308 0.960 . S
H1295 C1308 0.960 . S
C1296 H1288 0.929 . S
C1296 C1297 1.377 . S
C1296 C1298 1.384 . S
C1297 C1296 1.377 . S
C1297 C1303 1.390 . S
C1298 H1289 0.930 . S
C1298 C1296 1.384 . S
C1298 C1299 1.372 . S
C1299 C1298 1.372 . S
C1299 C1300 1.400 . S
C1299 C1304 1.490 . S
C1300 H1290 0.930 . S
C1300 C1299 1.400 . S
C1300 C1303 1.386 . S
H1301 C1317 0.930 . S
H1302 C1318 0.931 . S
C1303 H1291 0.929 . S
C1303 C1297 1.390 . S
C1303 C1300 1.386 . S
C1304 C1299 1.490 . S
C1304 C1306 1.395 . S
C1304 C1307 1.403 . S
H1305 C1311 0.930 . S
C1306 H1292 0.930 . S
C1306 C1304 1.395 . S
C1306 C1309 1.403 . S
C1307 C1304 1.403 . S
C1307 C1308 1.524 . S
C1307 C1311 1.400 . S
C1308 H1293 0.960 . S
C1308 H1294 0.960 . S
C1308 H1295 0.960 . S
C1308 C1307 1.524 . S
C1309 C1306 1.403 . S
C1309 C1310 1.392 . S
C1309 C1313 1.495 . S
C1310 C1309 1.392 . S
C1310 C1311 1.385 . S
C1310 C1312 1.478 . S
C1311 H1305 0.930 . S
C1311 C1307 1.400 . S
C1311 C1310 1.385 . S
C1312 C1310 1.478 . S
C1312 C1314 1.381 . S
C1312 C1318 1.383 . S
C1313 C1309 1.495 . S
C1313 H1319 0.959 . S
C1313 H1320 0.961 . S
C1313 H1321 0.960 . S
C1314 C1312 1.381 . S
C1314 C1315 1.394 . S
C1314 H1322 0.930 . S
C1315 C1314 1.394 . S
C1315 C1316 1.383 . S
C1315 H1323 0.910 1_554 S
C1316 C1315 1.383 . S
C1316 C1317 1.377 . S
C1317 H1301 0.930 . S
C1317 C1316 1.377 . S
C1317 C1318 1.379 . S
C1318 H1302 0.931 . S
C1318 C1312 1.383 . S
C1318 C1317 1.379 . S
H1319 C1313 0.959 . S
H1320 C1313 0.961 . S
H1321 C1313 0.960 . S
H1322 C1314 0.930 . S
H1323 C1315 0.910 1_556 S
H1324 C1332 0.929 . S
H1325 C1334 0.930 . S
H1326 C1336 0.930 . S
H1327 C1339 0.929 . S
H1328 C1342 0.930 . S
H1329 C1344 0.960 . S
H1330 C1344 0.960 . S
H1331 C1344 0.960 . S
C1332 H1324 0.929 . S
C1332 C1333 1.377 . S
C1332 C1334 1.384 . S
C1333 C1332 1.377 . S
C1333 C1339 1.390 . S
C1334 H1325 0.930 . S
C1334 C1332 1.384 . S
C1334 C1335 1.372 . S
C1335 C1334 1.372 . S
C1335 C1336 1.400 . S
C1335 C1340 1.490 . S
C1336 H1326 0.930 . S
C1336 C1335 1.400 . S
C1336 C1339 1.386 . S
H1337 C1353 0.930 . S
H1338 C1354 0.931 . S
C1339 H1327 0.929 . S
C1339 C1333 1.390 . S
C1339 C1336 1.386 . S
C1340 C1335 1.490 . S
C1340 C1342 1.395 . S
C1340 C1343 1.403 . S
H1341 C1347 0.930 . S
C1342 H1328 0.930 . S
C1342 C1340 1.395 . S
C1342 C1345 1.403 . S
C1343 C1340 1.403 . S
C1343 C1344 1.524 . S
C1343 C1347 1.400 . S
C1344 H1329 0.960 . S
C1344 H1330 0.960 . S
C1344 H1331 0.960 . S
C1344 C1343 1.524 . S
C1345 C1342 1.403 . S
C1345 C1346 1.392 . S
C1345 C1349 1.495 . S
C1346 C1345 1.392 . S
C1346 C1347 1.385 . S
C1346 C1348 1.478 . S
C1347 H1341 0.930 . S
C1347 C1343 1.400 . S
C1347 C1346 1.385 . S
C1348 C1346 1.478 . S
C1348 C1350 1.381 . S
C1348 C1354 1.383 . S
C1349 C1345 1.495 . S
C1349 H1355 0.959 . S
C1349 H1356 0.961 . S
C1349 H1357 0.960 . S
C1350 C1348 1.381 . S
C1350 C1351 1.394 . S
C1350 H1358 0.930 . S
C1351 C1350 1.394 . S
C1351 C1352 1.383 . S
C1351 H1359 0.929 . S
C1352 C1351 1.383 . S
C1352 C1353 1.377 . S
C1353 H1337 0.930 . S
C1353 C1352 1.377 . S
C1353 C1354 1.379 . S
C1354 H1338 0.931 . S
C1354 C1348 1.383 . S
C1354 C1353 1.379 . S
H1355 C1349 0.959 . S
H1356 C1349 0.961 . S
H1357 C1349 0.960 . S
H1358 C1350 0.930 . S
H1359 C1351 0.929 . S
H1360 C1368 0.929 . S
H1361 C1370 0.930 . S
H1362 C1372 0.930 . S
H1363 C1375 0.929 . S
H1364 C1378 0.930 . S
H1365 C1380 0.960 . S
H1366 C1380 0.960 . S
H1367 C1380 0.960 . S
C1368 H1360 0.929 . S
C1368 C1369 1.377 . S
C1368 C1370 1.384 . S
C1369 C1368 1.377 . S
C1369 C1375 1.390 . S
C1370 H1361 0.930 . S
C1370 C1368 1.384 . S
C1370 C1371 1.372 . S
C1371 C1370 1.372 . S
C1371 C1372 1.400 . S
C1371 C1376 1.490 . S
C1372 H1362 0.930 . S
C1372 C1371 1.400 . S
C1372 C1375 1.386 . S
H1373 C1389 0.930 . S
H1374 C1390 0.931 . S
C1375 H1363 0.929 . S
C1375 C1369 1.390 . S
C1375 C1372 1.386 . S
C1376 C1371 1.490 . S
C1376 C1378 1.395 . S
C1376 C1379 1.403 . S
H1377 C1383 0.930 . S
C1378 H1364 0.930 . S
C1378 C1376 1.395 . S
C1378 C1381 1.403 . S
C1379 C1376 1.403 . S
C1379 C1380 1.524 . S
C1379 C1383 1.400 . S
C1380 H1365 0.960 . S
C1380 H1366 0.960 . S
C1380 H1367 0.960 . S
C1380 C1379 1.524 . S
C1381 C1378 1.403 . S
C1381 C1382 1.392 . S
C1381 C1385 1.495 . S
C1382 C1381 1.392 . S
C1382 C1383 1.385 . S
C1382 C1384 1.478 . S
C1383 H1377 0.930 . S
C1383 C1379 1.400 . S
C1383 C1382 1.385 . S
C1384 C1382 1.478 . S
C1384 C1386 1.381 . S
C1384 C1390 1.383 . S
C1385 C1381 1.495 . S
C1385 H1391 0.959 . S
C1385 H1392 0.961 . S
C1385 H1393 0.960 . S
C1386 C1384 1.381 . S
C1386 C1387 1.394 . S
C1386 H1394 0.930 . S
C1387 C1386 1.394 . S
C1387 C1388 1.383 . S
C1387 H1395 0.929 . S
C1388 C1387 1.383 . S
C1388 C1389 1.377 . S
C1389 H1373 0.930 . S
C1389 C1388 1.377 . S
C1389 C1390 1.379 . S
C1390 H1374 0.931 . S
C1390 C1384 1.383 . S
C1390 C1389 1.379 . S
H1391 C1385 0.959 . S
H1392 C1385 0.961 . S
H1393 C1385 0.960 . S
H1394 C1386 0.930 . S
H1395 C1387 0.929 . S
H1396 C1404 0.929 . S
H1397 C1406 0.930 . S
H1398 C1408 0.930 . S
H1399 C1411 0.929 . S
H1400 C1414 0.930 . S
H1401 C1416 0.960 . S
H1402 C1416 0.960 . S
H1403 C1416 0.960 . S
C1404 H1396 0.929 . S
C1404 C1405 1.377 . S
C1404 C1406 1.384 . S
C1405 C1404 1.377 . S
C1405 C1411 1.390 . S
C1406 H1397 0.930 . S
C1406 C1404 1.384 . S
C1406 C1407 1.372 . S
C1407 C1406 1.372 . S
C1407 C1408 1.400 . S
C1407 C1412 1.490 . S
C1408 H1398 0.930 . S
C1408 C1407 1.400 . S
C1408 C1411 1.386 . S
H1409 C1425 0.930 . S
H1410 C1426 0.931 . S
C1411 H1399 0.929 . S
C1411 C1405 1.390 . S
C1411 C1408 1.386 . S
C1412 C1407 1.490 . S
C1412 C1414 1.395 . S
C1412 C1415 1.403 . S
H1413 C1419 0.930 . S
C1414 H1400 0.930 . S
C1414 C1412 1.395 . S
C1414 C1417 1.403 . S
C1415 C1412 1.403 . S
C1415 C1416 1.524 . S
C1415 C1419 1.400 . S
C1416 H1401 0.960 . S
C1416 H1402 0.960 . S
C1416 H1403 0.960 . S
C1416 C1415 1.524 . S
C1417 C1414 1.403 . S
C1417 C1418 1.392 . S
C1417 C1421 1.495 . S
C1418 C1417 1.392 . S
C1418 C1419 1.385 . S
C1418 C1420 1.478 . S
C1419 H1413 0.930 . S
C1419 C1415 1.400 . S
C1419 C1418 1.385 . S
C1420 C1418 1.478 . S
C1420 C1422 1.381 . S
C1420 C1426 1.383 . S
C1421 C1417 1.495 . S
C1421 H1427 0.959 . S
C1421 H1428 0.961 . S
C1421 H1429 0.960 . S
C1422 C1420 1.381 . S
C1422 C1423 1.394 . S
C1422 H1430 0.930 . S
C1423 C1422 1.394 . S
C1423 C1424 1.383 . S
C1423 H1431 0.929 . S
C1424 C1423 1.383 . S
C1424 C1425 1.377 . S
C1425 H1409 0.930 . S
C1425 C1424 1.377 . S
C1425 C1426 1.379 . S
C1426 H1410 0.931 . S
C1426 C1420 1.383 . S
C1426 C1425 1.379 . S
H1427 C1421 0.959 . S
H1428 C1421 0.961 . S
H1429 C1421 0.960 . S
H1430 C1422 0.930 . S
H1431 C1423 0.929 . S
H1432 C1440 0.929 . S
H1433 C1442 0.930 . S
H1434 C1444 0.930 . S
H1435 C1447 0.929 . S
H1436 C1450 0.930 . S
H1437 C1452 0.960 . S
H1438 C1452 0.960 . S
H1439 C1452 0.960 . S
C1440 H1432 0.929 . S
C1440 C1441 1.377 . S
C1440 C1442 1.384 . S
C1441 C1440 1.377 . S
C1441 C1447 1.390 . S
C1442 H1433 0.930 . S
C1442 C1440 1.384 . S
C1442 C1443 1.372 . S
C1443 C1442 1.372 . S
C1443 C1444 1.400 . S
C1443 C1448 1.490 . S
C1444 H1434 0.930 . S
C1444 C1443 1.400 . S
C1444 C1447 1.386 . S
H1445 C1461 0.930 . S
H1446 C1462 0.931 . S
C1447 H1435 0.929 . S
C1447 C1441 1.390 . S
C1447 C1444 1.386 . S
C1448 C1443 1.490 . S
C1448 C1450 1.395 . S
C1448 C1451 1.403 . S
H1449 C1455 0.930 . S
C1450 H1436 0.930 . S
C1450 C1448 1.395 . S
C1450 C1453 1.403 . S
C1451 C1448 1.403 . S
C1451 C1452 1.524 . S
C1451 C1455 1.400 . S
C1452 H1437 0.960 . S
C1452 H1438 0.960 . S
C1452 H1439 0.960 . S
C1452 C1451 1.524 . S
C1453 C1450 1.403 . S
C1453 C1454 1.392 . S
C1453 C1457 1.495 . S
C1454 C1453 1.392 . S
C1454 C1455 1.385 . S
C1454 C1456 1.478 . S
C1455 H1449 0.930 . S
C1455 C1451 1.400 . S
C1455 C1454 1.385 . S
C1456 C1454 1.478 . S
C1456 C1458 1.381 . S
C1456 C1462 1.383 . S
C1457 C1453 1.495 . S
C1457 H1463 0.959 . S
C1457 H1464 0.961 . S
C1457 H1465 0.960 . S
C1458 C1456 1.381 . S
C1458 C1459 1.394 . S
C1458 H1466 0.930 . S
C1459 C1458 1.394 . S
C1459 C1460 1.383 . S
C1459 H1467 0.929 . S
C1460 C1459 1.383 . S
C1460 C1461 1.377 . S
C1461 H1445 0.930 . S
C1461 C1460 1.377 . S
C1461 C1462 1.379 . S
C1462 H1446 0.931 . S
C1462 C1456 1.383 . S
C1462 C1461 1.379 . S
H1463 C1457 0.959 . S
H1464 C1457 0.961 . S
H1465 C1457 0.960 . S
H1466 C1458 0.930 . S
H1467 C1459 0.929 . S
H1468 C1476 0.929 . S
H1469 C1478 0.930 . S
H1470 C1480 0.930 . S
H1471 C1483 0.929 . S
H1472 C1486 0.930 . S
H1473 C1488 0.960 . S
H1474 C1488 0.960 . S
H1475 C1488 0.960 . S
C1476 H1468 0.929 . S
C1476 C1477 1.377 . S
C1476 C1478 1.384 . S
C1477 C1476 1.377 . S
C1477 C1483 1.390 . S
C1478 H1469 0.930 . S
C1478 C1476 1.384 . S
C1478 C1479 1.372 . S
C1479 C1478 1.372 . S
C1479 C1480 1.400 . S
C1479 C1484 1.490 . S
C1480 H1470 0.930 . S
C1480 C1479 1.400 . S
C1480 C1483 1.386 . S
H1481 C1497 0.930 . S
H1482 C1498 0.931 . S
C1483 H1471 0.929 . S
C1483 C1477 1.390 . S
C1483 C1480 1.386 . S
C1484 C1479 1.490 . S
C1484 C1486 1.395 . S
C1484 C1487 1.403 . S
H1485 C1491 0.930 . S
C1486 H1472 0.930 . S
C1486 C1484 1.395 . S
C1486 C1489 1.403 . S
C1487 C1484 1.403 . S
C1487 C1488 1.524 . S
C1487 C1491 1.400 . S
C1488 H1473 0.960 . S
C1488 H1474 0.960 . S
C1488 H1475 0.960 . S
C1488 C1487 1.524 . S
C1489 C1486 1.403 . S
C1489 C1490 1.392 . S
C1489 C1493 1.495 . S
C1490 C1489 1.392 . S
C1490 C1491 1.385 . S
C1490 C1492 1.478 . S
C1491 H1485 0.930 . S
C1491 C1487 1.400 . S
C1491 C1490 1.385 . S
C1492 C1490 1.478 . S
C1492 C1494 1.381 . S
C1492 C1498 1.383 . S
C1493 C1489 1.495 . S
C1493 H1499 0.959 . S
C1493 H1500 0.961 . S
C1493 H1501 0.960 . S
C1494 C1492 1.381 . S
C1494 C1495 1.394 . S
C1494 H1502 0.930 . S
C1495 C1494 1.394 . S
C1495 C1496 1.383 . S
C1495 H1503 0.929 . S
C1496 C1495 1.383 . S
C1496 C1497 1.377 . S
C1497 H1481 0.930 . S
C1497 C1496 1.377 . S
C1497 C1498 1.379 . S
C1498 H1482 0.931 . S
C1498 C1492 1.383 . S
C1498 C1497 1.379 . S
H1499 C1493 0.959 . S
H1500 C1493 0.961 . S
H1501 C1493 0.960 . S
H1502 C1494 0.930 . S
H1503 C1495 0.929 . S
C649 C1 1.105 . S
C668 C497 1.192 . S
C685 C80 1.158 . S
C704 C537 1.166 . S
C740 C562 2.316 . S
C721 C140 2.349 . S
C757 C211 2.364 . S
C776 C602 2.343 . S
C812 C533 1.782 . S
C793 C31 1.663 . S
C848 C493 1.783 . S
C829 C61 1.731 . S
C884 C624 1.569 . S
C865 C151 1.552 . S
C920 C584 1.584 . S
C901 C200 1.599 . S
C937 C20 1.252 . S
C956 C626 1.291 . S
C992 C543 2.089 . S
C973 C121 2.131 . S
C1009 C181 2.084 . S
C1028 C503 2.116 . S
C1045 C91 1.295 . S
C1064 C586 1.301 . S
C1100 C506 1.193 . S
C1081 C260 1.149 . S
C1117 C320 1.164 . S
C1136 C546 1.197 . S
C1153 C361 2.361 . S
C1172 C583 2.345 . S
C1189 C451 2.363 . S
C1208 C623 2.340 . S
C1225 C271 1.693 . S
C1244 C544 1.782 . S
C1280 C504 1.783 . S
C1261 C301 1.735 . S
C1316 C613 1.598 . S
C1297 C380 1.555 . S
C1352 C573 1.582 . S
C1333 C440 1.600 . S
C1369 C241 1.200 . S
C1388 C617 1.274 . S
C1424 C522 2.090 . S
C1405 C391 2.141 . S
C1460 C482 2.117 . S
C1441 C421 2.085 . S
C1477 C331 1.296 . S
C1496 C577 1.292 . S
