# Generated by pormake.
# Topology pyr, (3,6)-cn, num edge types: 1
# Building blocks:
#     Node 0, Type 0, BuildingBlock: KAKCAD_clean_linker_0, # of connection points: 3
#     Node 1, Type 0, BuildingBlock: KAKCAD_clean_linker_0, # of connection points: 3
#     Node 2, Type 0, BuildingBlock: KAKCAD_clean_linker_0, # of connection points: 3
#     Node 3, Type 0, BuildingBlock: KAKCAD_clean_linker_0, # of connection points: 3
#     Node 4, Type 0, BuildingBlock: KAKCAD_clean_linker_0, # of connection points: 3
#     Node 5, Type 0, BuildingBlock: KAKCAD_clean_linker_0, # of connection points: 3
#     Node 6, Type 0, BuildingBlock: KAKCAD_clean_linker_0, # of connection points: 3
#     Node 7, Type 0, BuildingBlock: KAKCAD_clean_linker_0, # of connection points: 3
#     Node 8, Type 1, BuildingBlock: FUNLAD_clean_sbu_0, # of connection points: 6
#     Node 9, Type 1, BuildingBlock: FUNLAD_clean_sbu_0, # of connection points: 6
#     Node 10, Type 1, BuildingBlock: FUNLAD_clean_sbu_0, # of connection points: 6
#     Node 11, Type 1, BuildingBlock: FUNLAD_clean_sbu_0, # of connection points: 6
#     Edge 12, Type (0, 1), BuildingBlock: KIFKEQ_clean_linker_1, # of connection points: 2
#     Edge 13, Type (0, 1), BuildingBlock: KIFKEQ_clean_linker_1, # of connection points: 2
#     Edge 14, Type (0, 1), BuildingBlock: KIFKEQ_clean_linker_1, # of connection points: 2
#     Edge 15, Type (0, 1), BuildingBlock: KIFKEQ_clean_linker_1, # of connection points: 2
#     Edge 16, Type (0, 1), BuildingBlock: KIFKEQ_clean_linker_1, # of connection points: 2
#     Edge 17, Type (0, 1), BuildingBlock: KIFKEQ_clean_linker_1, # of connection points: 2
#     Edge 18, Type (0, 1), BuildingBlock: KIFKEQ_clean_linker_1, # of connection points: 2
#     Edge 19, Type (0, 1), BuildingBlock: KIFKEQ_clean_linker_1, # of connection points: 2
#     Edge 20, Type (0, 1), BuildingBlock: KIFKEQ_clean_linker_1, # of connection points: 2
#     Edge 21, Type (0, 1), BuildingBlock: KIFKEQ_clean_linker_1, # of connection points: 2
#     Edge 22, Type (0, 1), BuildingBlock: KIFKEQ_clean_linker_1, # of connection points: 2
#     Edge 23, Type (0, 1), BuildingBlock: KIFKEQ_clean_linker_1, # of connection points: 2
#     Edge 24, Type (0, 1), BuildingBlock: KIFKEQ_clean_linker_1, # of connection points: 2
#     Edge 25, Type (0, 1), BuildingBlock: KIFKEQ_clean_linker_1, # of connection points: 2
#     Edge 26, Type (0, 1), BuildingBlock: KIFKEQ_clean_linker_1, # of connection points: 2
#     Edge 27, Type (0, 1), BuildingBlock: KIFKEQ_clean_linker_1, # of connection points: 2
#     Edge 28, Type (0, 1), BuildingBlock: KIFKEQ_clean_linker_1, # of connection points: 2
#     Edge 29, Type (0, 1), BuildingBlock: KIFKEQ_clean_linker_1, # of connection points: 2
#     Edge 30, Type (0, 1), BuildingBlock: KIFKEQ_clean_linker_1, # of connection points: 2
#     Edge 31, Type (0, 1), BuildingBlock: KIFKEQ_clean_linker_1, # of connection points: 2
#     Edge 32, Type (0, 1), BuildingBlock: KIFKEQ_clean_linker_1, # of connection points: 2
#     Edge 33, Type (0, 1), BuildingBlock: KIFKEQ_clean_linker_1, # of connection points: 2
#     Edge 34, Type (0, 1), BuildingBlock: KIFKEQ_clean_linker_1, # of connection points: 2
#     Edge 35, Type (0, 1), BuildingBlock: KIFKEQ_clean_linker_1, # of connection points: 2
# Relax obj value: 0.054
# Max RMSD: 0.061
# Mean RMSD: 0.029
data_MOF--net-pry--node1-FUNLAD_clean_sbu_0--node2-KAKCAD_clean_linker_0--edge1-KIFKEQ_clean_linker_1
_symmetry_space_group_name_H-M    P1
_symmetry_Int_Tables_number       1
_symmetry_cell_setting            triclinic
loop_
_symmetry_equiv_pos_as_xyz
'x, y, z'
_cell_length_a     44.831645
_cell_length_b     47.218479
_cell_length_c     47.443531
_cell_angle_alpha  90.3354
_cell_angle_beta   89.995358
_cell_angle_gamma 84.955544
loop_
_atom_site_label
_atom_site_type_symbol
_atom_site_fract_x
_atom_site_fract_y
_atom_site_fract_z
_atom_type_partial_charge
C0 C 0.09061 0.13742 0.26477 0.0
C1 C 0.11052 0.12529 0.28529 0.0
C2 C 0.1013 0.15053 0.24066 0.0
C3 C 0.13224 0.1517 0.2362 0.0
C4 C 0.15207 0.13972 0.25682 0.0
C5 C 0.14142 0.12677 0.28092 0.0
C6 C 0.14401 0.16468 0.21001 0.0
C7 C 0.12996 0.19005 0.19849 0.0
C8 C 0.14184 0.20256 0.17443 0.0
C9 C 0.16751 0.18891 0.16149 0.0
C10 C 0.18166 0.16348 0.17221 0.0
C11 C 0.16984 0.15168 0.19654 0.0
C12 C 0.20887 0.14942 0.15792 0.0
C13 C 0.21011 0.147 0.12836 0.0
C14 C 0.23401 0.13883 0.17358 0.0
C15 C 0.25986 0.12655 0.16002 0.0
C16 C 0.26124 0.12428 0.13039 0.0
C17 C 0.1282 0.23016 0.16273 0.0
C18 C 0.0972 0.23494 0.15786 0.0
C19 C 0.14658 0.25154 0.15501 0.0
C20 C 0.13447 0.27676 0.14242 0.0
C21 C 0.10359 0.28136 0.1369 0.0
C22 C 0.08508 0.26012 0.14491 0.0
C23 C 0.23583 0.13453 0.11482 0.0
H24 H 0.06667 0.13704 0.26744 0.0
H25 H 0.08529 0.1593 0.22524 0.0
H26 H 0.17602 0.14045 0.25444 0.0
H27 H 0.15756 0.11751 0.29596 0.0
H28 H 0.11044 0.20061 0.20879 0.0
H29 H 0.18042 0.13186 0.20461 0.0
H30 H 0.17668 0.19827 0.14294 0.0
H31 H 0.19101 0.15453 0.11564 0.0
H32 H 0.23398 0.14064 0.19635 0.0
H33 H 0.279 0.11938 0.17283 0.0
H34 H 0.08242 0.21889 0.1634 0.0
H35 H 0.17051 0.24872 0.15863 0.0
H36 H 0.2356 0.13269 0.09207 0.0
H37 H 0.06117 0.26302 0.14124 0.0
H38 H 0.14949 0.29243 0.1364 0.0
C39 C 0.37226 0.90534 0.78067 0.0
C40 C 0.40315 0.9068 0.78509 0.0
C41 C 0.36163 0.89297 0.75611 0.0
C42 C 0.3815 0.88158 0.73512 0.0
C43 C 0.41243 0.88267 0.73965 0.0
C44 C 0.42308 0.89517 0.76422 0.0
C45 C 0.36984 0.86944 0.70836 0.0
C46 C 0.34414 0.88286 0.69526 0.0
C47 C 0.3329 0.87212 0.67007 0.0
C48 C 0.34741 0.84737 0.65806 0.0
C49 C 0.37275 0.83307 0.67083 0.0
C50 C 0.38408 0.84454 0.69582 0.0
C51 C 0.3867 0.80598 0.65795 0.0
C52 C 0.36852 0.78579 0.64681 0.0
C53 C 0.41797 0.8004 0.65572 0.0
C54 C 0.43062 0.77568 0.64206 0.0
C55 C 0.41234 0.75583 0.63032 0.0
C56 C 0.30581 0.8865 0.65625 0.0
C57 C 0.27958 0.89399 0.67183 0.0
C58 C 0.30572 0.89209 0.62715 0.0
C59 C 0.28 0.90476 0.61393 0.0
C60 C 0.25357 0.91173 0.62939 0.0
C61 C 0.25369 0.90623 0.65851 0.0
C62 C 0.3811 0.76116 0.63324 0.0
H63 H 0.35612 0.91424 0.79601 0.0
H64 H 0.33769 0.89226 0.75364 0.0
H65 H 0.42845 0.87435 0.72394 0.0
H66 H 0.44703 0.89554 0.76693 0.0
H67 H 0.33323 0.90224 0.70423 0.0
H68 H 0.40336 0.83357 0.70601 0.0
H69 H 0.33871 0.83908 0.63866 0.0
H70 H 0.34437 0.78897 0.64865 0.0
H71 H 0.43268 0.81552 0.66384 0.0
H72 H 0.45475 0.77251 0.6401 0.0
H73 H 0.27891 0.8898 0.69424 0.0
H74 H 0.32562 0.8867 0.61461 0.0
H75 H 0.36624 0.74615 0.62519 0.0
H76 H 0.23375 0.91154 0.67104 0.0
H77 H 0.28059 0.90855 0.59145 0.0
C78 C 0.7139 0.48883 0.97554 0.0
C79 C 0.73569 0.46798 0.98532 0.0
C80 C 0.685 0.48181 0.96921 0.0
C81 C 0.67736 0.45373 0.97232 0.0
C82 C 0.699 0.43311 0.98288 0.0
C83 C 0.72777 0.44019 0.98942 0.0
C84 C 0.64792 0.44532 0.96243 0.0
C85 C 0.63612 0.45558 0.93655 0.0
C86 C 0.61089 0.44448 0.92478 0.0
C87 C 0.59664 0.42391 0.93957 0.0
C88 C 0.60827 0.41313 0.96512 0.0
C89 C 0.63357 0.42427 0.97672 0.0
C90 C 0.59763 0.38648 0.97589 0.0
C91 C 0.56682 0.38315 0.97755 0.0
C92 C 0.61827 0.36258 0.9791 0.0
C93 C 0.60831 0.33554 0.98132 0.0
C94 C 0.57757 0.33201 0.98077 0.0
C95 C 0.60229 0.45069 0.8952 0.0
C96 C 0.59828 0.47872 0.88525 0.0
C97 C 0.59897 0.42805 0.87645 0.0
C98 C 0.59175 0.43324 0.84831 0.0
C99 C 0.58761 0.46119 0.83828 0.0
C100 C 0.59073 0.48395 0.857 0.0
C101 C 0.55684 0.35606 0.98018 0.0
H102 H 0.71932 0.51051 0.97252 0.0
H103 H 0.66876 0.49826 0.96143 0.0
H104 H 0.69419 0.41115 0.98497 0.0
H105 H 0.74421 0.42358 0.99654 0.0
H106 H 0.64796 0.47042 0.92441 0.0
H107 H 0.64279 0.41557 0.99627 0.0
H108 H 0.57783 0.41458 0.92995 0.0
H109 H 0.5505 0.40129 0.97507 0.0
H110 H 0.64213 0.36447 0.97755 0.0
H111 H 0.62464 0.31722 0.98196 0.0
H112 H 0.60084 0.49649 0.89932 0.0
H113 H 0.60243 0.40621 0.88345 0.0
H114 H 0.53301 0.35374 0.97971 0.0
H115 H 0.5878 0.5057 0.84969 0.0
H116 H 0.58923 0.41533 0.8344 0.0
C117 C 0.91158 0.5688 0.34385 0.0
C118 C 0.94178 0.56942 0.33625 0.0
C119 C 0.90295 0.57066 0.37203 0.0
C120 C 0.92435 0.5729 0.39341 0.0
C121 C 0.95481 0.57172 0.38594 0.0
C122 C 0.96345 0.57002 0.3576 0.0
C123 C 0.9143 0.58025 0.4226 0.0
C124 C 0.88857 0.56947 0.43364 0.0
C125 C 0.8744 0.58166 0.45775 0.0
C126 C 0.88735 0.60366 0.47201 0.0
C127 C 0.91358 0.61415 0.46168 0.0
C128 C 0.92711 0.60206 0.43725 0.0
C129 C 0.92369 0.64112 0.47262 0.0
C130 C 0.90302 0.66508 0.47526 0.0
C131 C 0.95431 0.64425 0.47633 0.0
C132 C 0.96419 0.67113 0.48107 0.0
C133 C 0.94364 0.69543 0.48186 0.0
C134 C 0.84371 0.57482 0.46504 0.0
C135 C 0.82212 0.57405 0.44363 0.0
C136 C 0.83514 0.57095 0.49315 0.0
C137 C 0.80545 0.56654 0.49968 0.0
C138 C 0.78382 0.56639 0.47823 0.0
C139 C 0.79254 0.56992 0.45015 0.0
C140 C 0.91287 0.69194 0.4797 0.0
H141 H 0.89441 0.56771 0.32791 0.0
H142 H 0.87925 0.5719 0.37684 0.0
H143 H 0.97186 0.57314 0.40193 0.0
H144 H 0.98693 0.57047 0.35239 0.0
H145 H 0.87843 0.55269 0.42245 0.0
H146 H 0.94591 0.61167 0.42809 0.0
H147 H 0.87592 0.61398 0.48994 0.0
H148 H 0.87933 0.66339 0.47196 0.0
H149 H 0.97067 0.62603 0.47448 0.0
H150 H 0.98799 0.67296 0.48322 0.0
H151 H 0.8279 0.57746 0.42181 0.0
H152 H 0.85135 0.57152 0.51003 0.0
H153 H 0.89638 0.71012 0.47974 0.0
H154 H 0.77641 0.56959 0.43318 0.0
H155 H 0.79923 0.56395 0.52152 0.0
C156 C 0.90537 0.87862 0.74359 0.0
C157 C 0.9058 0.90841 0.74166 0.0
C158 C 0.89477 0.86593 0.76794 0.0
C159 C 0.88396 0.88259 0.79107 0.0
C160 C 0.88448 0.91231 0.78924 0.0
C161 C 0.89531 0.92498 0.76504 0.0
C162 C 0.87173 0.86925 0.81681 0.0
C163 C 0.88628 0.84429 0.82861 0.0
C164 C 0.87515 0.83217 0.85322 0.0
C165 C 0.84877 0.84515 0.86558 0.0
C166 C 0.83349 0.86975 0.85407 0.0
C167 C 0.84534 0.88165 0.82975 0.0
C168 C 0.8052 0.88283 0.86758 0.0
C169 C 0.78446 0.86565 0.87957 0.0
C170 C 0.79884 0.91255 0.86908 0.0
C171 C 0.77274 0.92466 0.88238 0.0
C172 C 0.7522 0.90744 0.89472 0.0
C173 C 0.89079 0.80606 0.86638 0.0
C174 C 0.90257 0.78287 0.84983 0.0
C175 C 0.89297 0.80368 0.89592 0.0
C176 C 0.90581 0.77874 0.90853 0.0
C177 C 0.91705 0.75528 0.89207 0.0
C178 C 0.91544 0.75784 0.86248 0.0
C179 C 0.75851 0.87773 0.89302 0.0
H180 H 0.91269 0.86499 0.72604 0.0
H181 H 0.89441 0.84303 0.76838 0.0
H182 H 0.8768 0.92585 0.80676 0.0
H183 H 0.89577 0.94786 0.76489 0.0
H184 H 0.9068 0.83481 0.81914 0.0
H185 H 0.83353 0.90025 0.82035 0.0
H186 H 0.84005 0.83596 0.8844 0.0
H187 H 0.78815 0.8427 0.87851 0.0
H188 H 0.81428 0.92658 0.86038 0.0
H189 H 0.76862 0.94759 0.8828 0.0
H190 H 0.90121 0.78378 0.82706 0.0
H191 H 0.8846 0.82116 0.90944 0.0
H192 H 0.74362 0.86363 0.90247 0.0
H193 H 0.92417 0.74046 0.849 0.0
H194 H 0.90628 0.77769 0.93131 0.0
C195 C 0.6418 0.12699 0.24527 0.0
C196 C 0.61102 0.12444 0.24132 0.0
C197 C 0.65236 0.1395 0.2698 0.0
C198 C 0.63251 0.14989 0.29124 0.0
C199 C 0.60168 0.14767 0.28719 0.0
C200 C 0.59111 0.13508 0.26264 0.0
C201 C 0.64412 0.1622 0.31794 0.0
C202 C 0.67044 0.14949 0.33061 0.0
C203 C 0.68187 0.16055 0.35563 0.0
C204 C 0.66641 0.18466 0.3681 0.0
C205 C 0.64008 0.19789 0.35609 0.0
C206 C 0.62914 0.18648 0.33091 0.0
C207 C 0.6247 0.22386 0.36993 0.0
C208 C 0.62248 0.22576 0.39952 0.0
C209 C 0.61361 0.24753 0.35399 0.0
C210 C 0.60154 0.27263 0.3673 0.0
C211 C 0.60012 0.27479 0.39694 0.0
C212 C 0.70993 0.14706 0.36892 0.0
C213 C 0.71605 0.11729 0.3695 0.0
C214 C 0.73063 0.16391 0.38166 0.0
C215 C 0.7563 0.15142 0.39505 0.0
C216 C 0.76224 0.1217 0.39589 0.0
C217 C 0.74191 0.10479 0.38271 0.0
C218 C 0.61046 0.2508 0.4128 0.0
H219 H 0.65795 0.11887 0.22959 0.0
H220 H 0.67621 0.14109 0.27188 0.0
H221 H 0.58569 0.15519 0.30325 0.0
H222 H 0.56723 0.13387 0.2603 0.0
H223 H 0.68212 0.13088 0.32091 0.0
H224 H 0.60898 0.19654 0.32139 0.0
H225 H 0.675 0.19329 0.38737 0.0
H226 H 0.63034 0.20789 0.41256 0.0
H227 H 0.61505 0.24698 0.33121 0.0
H228 H 0.5934 0.29042 0.35428 0.0
H229 H 0.70053 0.10354 0.3603 0.0
H230 H 0.72717 0.18689 0.38115 0.0
H231 H 0.61006 0.25153 0.43561 0.0
H232 H 0.74563 0.08182 0.38318 0.0
H233 H 0.77173 0.16512 0.40452 0.0
C234 C 0.29662 0.55253 0.0773 0.0
C235 C 0.28516 0.56317 0.0516 0.0
C236 C 0.32534 0.55783 0.08594 0.0
C237 C 0.34355 0.57344 0.0688 0.0
C238 C 0.33221 0.58345 0.04267 0.0
C239 C 0.30317 0.5786 0.03429 0.0
C240 C 0.37347 0.58051 0.07898 0.0
C241 C 0.39092 0.56149 0.09636 0.0
C242 C 0.41715 0.5695 0.10913 0.0
C243 C 0.42696 0.59615 0.10293 0.0
C244 C 0.41004 0.61547 0.08568 0.0
C245 C 0.38338 0.60746 0.07367 0.0
C246 C 0.41885 0.64487 0.08259 0.0
C247 C 0.42976 0.6592 0.10601 0.0
C248 C 0.41621 0.65896 0.05657 0.0
C249 C 0.42454 0.68669 0.05403 0.0
C250 C 0.43582 0.70072 0.07741 0.0
C251 C 0.43148 0.55275 0.13265 0.0
C252 C 0.4135 0.54251 0.1539 0.0
C253 C 0.46266 0.55133 0.13669 0.0
C254 C 0.47518 0.54254 0.1625 0.0
C255 C 0.45678 0.53477 0.18461 0.0
C256 C 0.42603 0.53357 0.1796 0.0
C257 C 0.43832 0.68671 0.10339 0.0
H258 H 0.28295 0.54088 0.09116 0.0
H259 H 0.33281 0.55039 0.10652 0.0
H260 H 0.34567 0.59519 0.02872 0.0
H261 H 0.29479 0.58685 0.01427 0.0
H262 H 0.38363 0.5407 0.10081 0.0
H263 H 0.36947 0.62293 0.06164 0.0
H264 H 0.44703 0.60259 0.11292 0.0
H265 H 0.43128 0.64933 0.12656 0.0
H266 H 0.40803 0.64844 0.03814 0.0
H267 H 0.42252 0.69703 0.03371 0.0
H268 H 0.38938 0.54359 0.15166 0.0
H269 H 0.47716 0.55861 0.1205 0.0
H270 H 0.44637 0.69726 0.12188 0.0
H271 H 0.4112 0.52789 0.19628 0.0
H272 H 0.49905 0.54315 0.16563 0.0
C273 C 0.10155 0.33802 0.54232 0.0
C274 C 0.07047 0.3358 0.54233 0.0
C275 C 0.11299 0.364 0.54784 0.0
C276 C 0.09363 0.38833 0.55367 0.0
C277 C 0.06255 0.3865 0.55237 0.0
C278 C 0.05107 0.3605 0.54666 0.0
C279 C 0.10597 0.41432 0.5646 0.0
C280 C 0.13172 0.42416 0.5526 0.0
C281 C 0.14643 0.44569 0.56589 0.0
C282 C 0.13444 0.45794 0.59098 0.0
C283 C 0.10875 0.44824 0.60329 0.0
C284 C 0.09445 0.42672 0.58969 0.0
C285 C 0.0992 0.45747 0.63214 0.0
C286 C 0.12075 0.46022 0.65329 0.0
C287 C 0.06868 0.46075 0.63947 0.0
C288 C 0.05998 0.46537 0.66753 0.0
C289 C 0.08163 0.46708 0.68872 0.0
C290 C 0.17614 0.45299 0.55569 0.0
C291 C 0.19767 0.43139 0.54661 0.0
C292 C 0.18414 0.4811 0.55723 0.0
C293 C 0.21334 0.48724 0.55099 0.0
C294 C 0.23505 0.46546 0.54285 0.0
C295 C 0.22676 0.43758 0.54017 0.0
C296 C 0.11204 0.46508 0.68123 0.0
H297 H 0.11719 0.3194 0.53953 0.0
H298 H 0.13705 0.36464 0.54919 0.0
H299 H 0.04714 0.40502 0.5566 0.0
H300 H 0.02701 0.35962 0.54631 0.0
H301 H 0.14082 0.41438 0.53337 0.0
H302 H 0.0757 0.41792 0.59986 0.0
H303 H 0.14604 0.47399 0.6018 0.0
H304 H 0.14445 0.45721 0.64856 0.0
H305 H 0.05154 0.45909 0.62361 0.0
H306 H 0.03636 0.4672 0.67272 0.0
H307 H 0.1925 0.40943 0.5457 0.0
H308 H 0.16798 0.49828 0.56376 0.0
H309 H 0.12923 0.46594 0.69718 0.0
H310 H 0.24312 0.42031 0.53426 0.0
H311 H 0.21904 0.509 0.55283 0.0
C312 C 0.03334 0.03281 0.46212 0.0
N313 N 0.0163 0.07505 0.53888 0.0
C314 C 0.04296 0.08527 0.53268 0.0
C315 C 0.04653 0.11405 0.53593 0.0
C316 C 0.02259 0.13239 0.54596 0.0
C317 C 0.99612 0.12109 0.55439 0.0
C318 C 0.99334 0.09205 0.55044 0.0
Zn319 Zn 0.01 0.03579 0.52325 0.0
C320 C 0.95196 0.03643 0.49174 0.0
N321 N 0.99895 0.95567 0.48564 0.0
C322 C 0.02151 0.9388 0.47334 0.0
C323 C 0.97188 0.94587 0.49086 0.0
C324 C 0.96708 0.91776 0.48495 0.0
C325 C 0.9903 0.89938 0.4734 0.0
C326 C 0.01763 0.91039 0.46696 0.0
Zn327 Zn 1.00545 0.99474 0.50159 0.0
O328 O 0.02976 0.04806 0.48425 0.0
C329 C 0.0635 0.99414 0.5331 0.0
O330 O 0.0253 1.00759 0.46264 0.0
H331 H 0.95436 0.9595 0.50095 0.0
H332 H 0.06085 0.07146 0.52338 0.0
H333 H 0.04289 0.94705 0.46949 0.0
O334 O 0.05297 0.01943 0.53879 0.0
O335 O 0.04841 0.97877 0.51741 0.0
H336 H 0.97228 0.08347 0.55496 0.0
O337 O 0.98588 0.98236 0.54071 0.0
O338 O 0.98996 0.02308 0.56206 0.0
O339 O 0.96247 1.01114 0.48607 0.0
O340 O 0.9671 0.05175 0.50741 0.0
C341 C 0.98215 0.99778 0.56274 0.0
H342 H 0.06731 0.12217 0.52941 0.0
H343 H 0.97722 0.13481 0.56214 0.0
H344 H 0.94584 0.91021 0.49081 0.0
H345 H 0.03603 0.89705 0.45777 0.0
C346 C 0.56249 0.99272 0.9924 0.0
N347 N 0.5169 0.0741 0.98549 0.0
C348 C 0.54422 0.08363 0.99016 0.0
C349 C 0.54949 0.11134 0.98332 0.0
C350 C 0.52648 0.12955 0.97143 0.0
C351 C 0.49885 0.11879 0.96566 0.0
C352 C 0.4945 0.09079 0.97294 0.0
Zn353 Zn 0.50969 0.03584 1.00237 0.0
C354 C 0.4808 0.99727 0.96349 0.0
N355 N 0.49704 0.95717 0.04123 0.0
C356 C 0.51906 0.94085 0.05474 0.0
C357 C 0.46956 0.94782 0.03691 0.0
C358 C 0.46358 0.92081 0.04554 0.0
C359 C 0.48605 0.9031 0.05884 0.0
C360 C 0.51401 0.91355 0.06378 0.0
Zn361 Zn 0.50449 0.99524 0.02406 0.0
O362 O 0.55233 0.01807 0.98684 0.0
C363 C 0.53338 0.03383 0.06294 0.0
O364 O 0.54715 0.97778 1.00816 0.0
H365 H 0.45245 0.96102 0.02592 0.0
H366 H 0.56161 0.07014 1.00046 0.0
H367 H 0.54074 0.94876 0.05788 0.0
O368 O 0.52989 0.04896 0.0409 0.0
O369 O 0.52498 1.00876 0.06241 0.0
H370 H 0.47293 0.08275 0.96953 0.0
O371 O 0.46192 0.01307 0.03968 0.0
O372 O 0.46702 0.05324 0.01817 0.0
O373 O 0.48417 0.98215 0.98556 0.0
O374 O 0.48932 0.0223 0.96399 0.0
C375 C 0.45172 0.03838 0.03402 0.0
H376 H 0.57096 0.11878 0.98868 0.0
H377 H 0.4806 0.13203 0.95625 0.0
H378 H 0.4419 0.9135 0.04079 0.0
H379 H 0.53186 0.90066 0.07418 0.0
C380 C 0.52785 0.4617 0.49381 0.0
N381 N 0.52509 0.49748 0.57571 0.0
C382 C 0.51512 0.47423 0.5882 0.0
C383 C 0.52067 0.46908 0.61682 0.0
C384 C 0.53663 0.48807 0.63256 0.0
C385 C 0.54719 0.51145 0.61883 0.0
C386 C 0.54102 0.51585 0.5904 0.0
Zn387 Zn 0.51497 0.50794 0.53503 0.0
C388 C 0.56758 0.53082 0.50675 0.0
N389 N 0.49501 0.53467 0.45124 0.0
C390 C 0.47924 0.5158 0.43704 0.0
C391 C 0.50739 0.55603 0.43755 0.0
C392 C 0.50538 0.55802 0.40815 0.0
C393 C 0.49065 0.53772 0.39298 0.0
C394 C 0.47667 0.51704 0.40789 0.0
Zn395 Zn 0.50455 0.52489 0.4923 0.0
O396 O 0.52885 0.46548 0.52039 0.0
C397 C 0.4519 0.50209 0.52067 0.0
O398 O 0.51869 0.48258 0.47836 0.0
H399 H 0.52006 0.57064 0.44921 0.0
H400 H 0.50237 0.46 0.57612 0.0
H401 H 0.46993 0.4987 0.44812 0.0
O402 O 0.47058 0.49684 0.5405 0.0
O403 O 0.46035 0.51364 0.49828 0.0
H404 H 0.54862 0.53431 0.58017 0.0
O405 O 0.49059 0.56723 0.50682 0.0
O406 O 0.50088 0.55039 0.54901 0.0
O407 O 0.54884 0.53603 0.48698 0.0
O408 O 0.55924 0.51918 0.52911 0.0
C409 C 0.49163 0.57116 0.53339 0.0
H410 H 0.51194 0.45088 0.62662 0.0
H411 H 0.56011 0.52632 0.62994 0.0
H412 H 0.51647 0.57432 0.39737 0.0
H413 H 0.46459 0.50134 0.39704 0.0
C414 C 0.99402 0.57082 0.98934 0.0
N415 N 0.99604 0.54192 0.07336 0.0
C416 C 0.00703 0.56576 0.08394 0.0
C417 C 1.00154 0.57378 0.11202 0.0
C418 C 0.98424 0.55727 0.12899 0.0
C419 C 0.97281 0.53313 0.11734 0.0
C420 C 0.97917 0.5257 0.08945 0.0
Zn421 Zn 0.00615 0.5275 0.0337 0.0
C422 C 0.9529 0.50376 1.00679 0.0
N423 N 0.02647 0.49326 0.95232 0.0
C424 C 0.04416 0.50932 0.93692 0.0
C425 C 0.01508 0.46993 0.94101 0.0
C426 C 0.02105 0.46232 0.91288 0.0
C427 C 0.03922 0.47868 0.89664 0.0
C428 C 0.051 0.50227 0.90905 0.0
Zn429 Zn 0.01604 0.50754 0.992 0.0
O430 O 0.99251 0.56836 0.016 0.0
C431 C 0.06928 0.53132 0.01892 0.0
O432 O 1.00348 0.54915 0.97475 0.0
H433 H 1.00095 0.45756 0.95362 0.0
H434 H 0.02047 0.57828 0.07077 0.0
H435 H 0.05249 0.52811 0.94605 0.0
O436 O 0.05043 0.53907 0.03803 0.0
O437 O 0.06085 0.51763 0.99769 0.0
H438 H 0.97111 0.50655 0.08084 0.0
O439 O 0.02821 0.46617 1.00972 0.0
O440 O 0.02006 0.48637 0.05103 0.0
O441 O 0.97133 0.49746 0.98692 0.0
O442 O 0.96178 0.51597 0.02877 0.0
C443 C 0.02808 0.46424 0.0365 0.0
H444 H 0.01066 0.59259 0.12038 0.0
H445 H 0.95978 0.51963 0.12993 0.0
H446 H 0.01157 0.44396 0.90392 0.0
H447 H 0.06463 0.51573 0.89704 0.0
H448 H 0.13174 0.12728 0.33964 0.0
H449 H 0.06385 0.09109 0.28982 0.0
H450 H 0.11444 0.1038 0.38139 0.0
H451 H 0.04585 0.0683 0.33191 0.0
H452 H 0.0395 1.00919 0.40875 0.0
H453 H 0.05828 0.03075 0.36614 0.0
H454 H 0.07328 0.10636 0.41382 0.0
H455 H 0.05506 0.0848 0.45617 0.0
C456 C 0.11314 0.11426 0.33749 0.0
C457 C 0.09931 0.11118 0.31112 0.0
C458 C 0.10296 0.10098 0.36162 0.0
C459 C 0.07861 0.08408 0.36026 0.0
C460 C 0.06483 0.08086 0.33387 0.0
C461 C 0.07495 0.09428 0.30971 0.0
C462 C 0.04698 0.03034 0.41015 0.0
C463 C 0.04577 0.04512 0.43605 0.0
C464 C 0.05756 0.04284 0.38563 0.0
C465 C 0.06741 0.07041 0.38634 0.0
C466 C 0.06637 0.085 0.41234 0.0
C467 C 0.05571 0.07261 0.43673 0.0
H468 H 0.44964 0.94101 0.79042 0.0
H469 H 0.38208 0.90379 0.83938 0.0
H470 H 0.46773 0.96314 0.83304 0.0
H471 H 0.39943 0.92669 0.88172 0.0
H472 H 0.45907 0.94526 0.9568 0.0
H473 H 0.44063 0.92401 0.91409 0.0
H474 H 0.45512 1.00014 0.86789 0.0
H475 H 0.47415 0.02131 0.91075 0.0
C476 C 0.43864 0.93746 0.81024 0.0
C477 C 0.41436 0.92046 0.81127 0.0
C478 C 0.4488 0.9505 0.83471 0.0
C479 C 0.4351 0.94684 0.86101 0.0
C480 C 0.41083 0.92984 0.86201 0.0
C481 C 0.40062 0.9169 0.83756 0.0
C482 C 0.45825 0.9576 0.9376 0.0
C483 C 0.46815 0.98509 0.93737 0.0
C484 C 0.44748 0.94541 0.91302 0.0
C485 C 0.44627 0.96026 0.88734 0.0
C486 C 0.45601 0.98785 0.88712 0.0
C487 C 0.46673 1.00012 0.9118 0.0
H488 H 0.61458 0.43503 0.79256 0.0
H489 H 0.54375 0.49851 0.81644 0.0
H490 H 0.60108 0.44145 0.74314 0.0
H491 H 0.52965 0.50457 0.76696 0.0
H492 H 0.53421 0.52873 0.67392 0.0
H493 H 0.54676 0.52272 0.72347 0.0
H494 H 0.56233 0.43192 0.71052 0.0
H495 H 0.5514 0.43815 0.6605 0.0
C496 C 0.59599 0.45025 0.78717 0.0
C497 C 0.58015 0.46624 0.80826 0.0
C498 C 0.58813 0.45382 0.7589 0.0
C499 C 0.56411 0.47333 0.75109 0.0
C500 C 0.54848 0.48958 0.77222 0.0
C501 C 0.55651 0.48615 0.80054 0.0
C502 C 0.54059 0.50749 0.68157 0.0
C503 C 0.54215 0.48394 0.66316 0.0
C504 C 0.54739 0.50401 0.71009 0.0
C505 C 0.55569 0.47686 0.72097 0.0
C506 C 0.55649 0.4532 0.70272 0.0
C507 C 0.54984 0.45671 0.67412 0.0
H508 H 0.98983 0.54142 0.30902 0.0
H509 H 0.91283 0.6015 0.29546 0.0
H510 H 1.00158 0.54262 0.25869 0.0
H511 H 0.92438 0.6024 0.24536 0.0
H512 H 0.93102 0.56047 0.15663 0.0
H513 H 0.92248 0.56624 0.20716 0.0
H514 H 0.01664 0.57515 0.21979 0.0
H515 H 0.02522 0.56907 0.16898 0.0
C516 C 0.97564 0.55508 0.29537 0.0
C517 C 0.95013 0.57098 0.3061 0.0
C518 C 0.9824 0.55583 0.26662 0.0
C519 C 0.96374 0.57245 0.24815 0.0
C520 C 0.93886 0.58905 0.25906 0.0
C521 C 0.93218 0.5884 0.28771 0.0
C522 C 0.94982 0.56395 0.1702 0.0
C523 C 0.97877 0.56426 0.15903 0.0
C524 C 0.94493 0.56741 0.19906 0.0
C525 C 0.96894 0.57105 0.21736 0.0
C526 C 0.99781 0.57215 0.20612 0.0
C527 C 1.00266 0.56896 0.17712 0.0
H528 H 0.30068 0.0796 0.1476 0.0
H529 H 0.28519 0.13985 0.07986 0.0
H530 H 0.34612 0.05955 0.12433 0.0
H531 H 0.32956 0.11862 0.05574 0.0
H532 H 0.42773 0.09389 0.03332 0.0
H533 H 0.38226 0.11444 0.05645 0.0
H534 H 0.36469 0.03117 0.08616 0.0
H535 H 0.41072 1.01088 0.06389 0.0
C536 C 0.30687 0.08863 0.12775 0.0
C537 C 0.289 0.11149 0.11578 0.0
C538 C 0.33283 0.07678 0.11411 0.0
C539 C 0.34173 0.08727 0.08795 0.0
C540 C 0.32382 0.11008 0.07596 0.0
C541 C 0.29796 0.12204 0.08968 0.0
C542 C 0.4141 0.07994 0.0447 0.0
C543 C 0.42301 0.0507 0.04674 0.0
C544 C 0.38784 0.09173 0.05791 0.0
C545 C 0.36956 0.07459 0.07338 0.0
C546 C 0.37832 0.04524 0.07498 0.0
C547 C 0.40468 0.0335 0.06196 0.0
H548 H 0.24804 0.95577 0.59182 0.0
H549 H 0.19653 0.89589 0.63443 0.0
H550 H 0.20268 0.97581 0.56782 0.0
H551 H 0.15124 0.91583 0.61034 0.0
H552 H 0.08533 0.93827 0.53685 0.0
H553 H 0.13129 0.91862 0.55991 0.0
H554 H 0.15292 1.00342 0.58112 0.0
H555 H 0.10676 0.02314 0.55835 0.0
C556 C 0.22704 0.94685 0.596 0.0
C557 C 0.22589 0.92425 0.61506 0.0
C558 C 0.20105 0.95844 0.58239 0.0
C559 C 0.17336 0.94737 0.58712 0.0
C560 C 0.17225 0.92469 0.60607 0.0
C561 C 0.19814 0.91342 0.62004 0.0
C562 C 0.09994 0.95276 0.54628 0.0
C563 C 0.0923 0.9823 0.54574 0.0
C564 C 0.12619 0.94147 0.55966 0.0
C565 C 0.14572 0.95945 0.57242 0.0
C566 C 0.13843 0.98902 0.57135 0.0
C567 C 0.11193 1.0003 0.55838 0.0
H568 H 0.77256 0.45261 0.02957 0.0
H569 H 0.76971 0.49788 0.95064 0.0
H570 H 0.82536 0.46076 0.03499 0.0
H571 H 0.82231 0.50645 0.95629 0.0
H572 H 0.92434 0.48505 0.96022 0.0
H573 H 0.8715 0.47692 0.95569 0.0
H574 H 0.85696 0.50113 0.04287 0.0
H575 H 0.90974 0.50913 0.04753 0.0
C576 C 0.7832 0.46442 0.01348 0.0
C577 C 0.76705 0.47463 0.9897 0.0
C578 C 0.81333 0.46923 0.01665 0.0
C579 C 0.82795 0.48412 0.99599 0.0
C580 C 0.81169 0.49463 0.97239 0.0
C581 C 0.78152 0.49002 0.96933 0.0
C582 C 0.9099 0.48852 0.97844 0.0
C583 C 0.9212 0.49777 1.00421 0.0
C584 C 0.87963 0.48406 0.97579 0.0
C585 C 0.86012 0.48853 0.9989 0.0
C586 C 0.87152 0.49734 0.02477 0.0
C587 C 0.90172 0.50202 0.02737 0.0
H588 H 0.73469 0.59819 0.45871 0.0
H589 H 0.76143 0.527 0.51247 0.0
H590 H 0.68223 0.59115 0.46694 0.0
H591 H 0.70886 0.5194 0.52028 0.0
H592 H 0.61107 0.52841 0.54717 0.0
H593 H 0.66307 0.53873 0.54196 0.0
H594 H 0.64721 0.55804 0.45399 0.0
H595 H 0.59501 0.5486 0.45943 0.0
C596 C 0.72927 0.58095 0.47223 0.0
C597 C 0.75207 0.563 0.48481 0.0
C598 C 0.69924 0.57684 0.47687 0.0
C599 C 0.69131 0.55453 0.49404 0.0
C600 C 0.71416 0.53698 0.50718 0.0
C601 C 0.74426 0.54126 0.5027 0.0
C602 C 0.61867 0.53497 0.52674 0.0
C603 C 0.59894 0.53767 0.50369 0.0
C604 C 0.64853 0.54072 0.52372 0.0
C605 C 0.65936 0.54916 0.49756 0.0
C606 C 0.63952 0.55202 0.47456 0.0
C607 C 0.60962 0.54645 0.47762 0.0
H608 H 0.11739 0.33607 0.14659 0.0
H609 H 0.06157 0.28731 0.09448 0.0
H610 H 0.09876 0.37936 0.12213 0.0
H611 H 0.04252 0.33083 0.07019 0.0
H612 H 0.04228 0.41116 0.013 0.0
H613 H 0.05941 0.36699 0.0372 0.0
H614 H 0.05298 0.4113 0.11709 0.0
H615 H 0.03603 0.45525 0.09306 0.0
C616 C 0.10112 0.33455 0.12991 0.0
C617 C 0.09106 0.30807 0.12257 0.0
C618 C 0.09021 0.35948 0.11599 0.0
C619 C 0.06907 0.35873 0.09411 0.0
C620 C 0.05896 0.33225 0.08675 0.0
C621 C 0.06965 0.30731 0.1009 0.0
C622 C 0.04444 0.41146 0.03573 0.0
C623 C 0.0378 0.43691 0.05098 0.0
C624 C 0.05413 0.38607 0.04965 0.0
C625 C 0.05774 0.38549 0.07916 0.0
C626 C 0.05088 0.41092 0.09435 0.0
C627 C 0.04096 0.43618 0.08051 0.0
H628 H 0.59418 0.2941 0.93971 0.0
H629 H 0.53781 0.30591 0.01326 0.0
H630 H 0.57845 0.2465 0.93306 0.0
H631 H 0.52302 0.25752 1.00768 0.0
H632 H 0.48651 0.17581 0.98164 0.0
H633 H 0.49615 0.22578 0.98076 0.0
H634 H 0.58702 0.20183 0.9536 0.0
H635 H 0.5767 0.15233 0.95254 0.0
C636 C 0.57862 0.28624 0.95464 0.0
C637 C 0.5675 0.30332 0.97723 0.0
C638 C 0.56963 0.25897 0.9509 0.0
C639 C 0.54971 0.24795 0.97 0.0
C640 C 0.5381 0.26539 0.99234 0.0
C641 C 0.54673 0.29296 0.99576 0.0
C642 C 0.50827 0.18131 0.97469 0.0
C643 C 0.53092 0.16004 0.96736 0.0
C644 C 0.51396 0.20995 0.97465 0.0
C645 C 0.54248 0.2179 0.96747 0.0
C646 C 0.56469 0.19665 0.95901 0.0
C647 C 0.5589 0.16814 0.95874 0.0
H648 H 0.99271 0.71399 0.4554 0.0
H649 H 0.91801 0.74288 0.50909 0.0
H650 H 0.00643 0.76276 0.45191 0.0
H651 H 0.93114 0.79165 0.50441 0.0
H652 H 0.94023 0.87466 0.4565 0.0
H653 H 0.93122 0.82461 0.45956 0.0
H654 H 0.02254 0.80395 0.48607 0.0
H655 H 0.03146 0.85424 0.48421 0.0
C656 C 0.9795 0.73057 0.46686 0.0
C657 C 0.95408 0.72446 0.4824 0.0
C658 C 0.98728 0.75849 0.46463 0.0
C659 C 0.96954 0.78084 0.47753 0.0
C660 C 0.94482 0.77474 0.49384 0.0
C661 C 0.9373 0.74683 0.49645 0.0
C662 C 0.95844 0.85952 0.46301 0.0
C663 C 0.98644 0.86857 0.47052 0.0
C664 C 0.95325 0.8309 0.46471 0.0
C665 C 0.97608 0.81065 0.47347 0.0
C666 C 1.00461 0.81926 0.47929 0.0
C667 C 0.00971 0.84802 0.478 0.0
H668 H 0.39126 0.73084 0.58261 0.0
H669 H 0.46345 0.72148 0.64303 0.0
H670 H 0.41113 0.6873 0.55896 0.0
H671 H 0.48407 0.67855 0.61862 0.0
H672 H 0.49189 0.58546 0.58932 0.0
H673 H 0.47392 0.6302 0.61162 0.0
H674 H 0.45097 0.66577 0.52998 0.0
H675 H 0.46845 0.62051 0.50759 0.0
C676 C 0.41141 0.71955 0.5909 0.0
C677 C 0.42552 0.72974 0.615 0.0
C678 C 0.42308 0.69468 0.57703 0.0
C679 C 0.44926 0.67916 0.58679 0.0
C680 C 0.46366 0.68961 0.61062 0.0
C681 C 0.45199 0.71451 0.62449 0.0
C682 C 0.48311 0.6028 0.57601 0.0
C683 C 0.48161 0.59922 0.54656 0.0
C684 C 0.47295 0.62865 0.58886 0.0
C685 C 0.46096 0.65184 0.57272 0.0
C686 C 0.4597 0.64836 0.5432 0.0
C687 C 0.46991 0.62242 0.5303 0.0
H688 H 0.95125 0.88814 0.70553 0.0
H689 H 0.88599 0.96008 0.71792 0.0
H690 H 0.9688 0.90997 0.66294 0.0
H691 H 0.90421 0.98216 0.67567 0.0
H692 H 0.96662 0.02487 0.6131 0.0
H693 H 0.94826 1.00387 0.65621 0.0
H694 H 0.9519 0.92196 0.61492 0.0
H695 H 0.97017 0.94277 0.57208 0.0
C696 C 0.9404 0.90849 0.6992 0.0
C697 C 0.91699 0.92211 0.7155 0.0
C698 C 0.95061 0.92111 0.67469 0.0
C699 C 0.93797 0.9479 0.6657 0.0
C700 C 0.9148 0.96171 0.68206 0.0
C701 C 0.90438 0.94897 0.70645 0.0
C702 C 0.96341 1.0024 0.61319 0.0
C703 C 0.96996 0.9856 0.58898 0.0
C704 C 0.95276 0.99035 0.63791 0.0
C705 C 0.94869 0.96111 0.63922 0.0
C706 C 0.95512 0.94442 0.61494 0.0
C707 C 0.96544 0.95647 0.59022 0.0
H708 H 0.56571 0.08881 0.23623 0.0
H709 H 0.63105 0.12866 0.18677 0.0
H710 H 0.54763 0.06669 0.19363 0.0
H711 H 0.6138 0.10569 0.14445 0.0
H712 H 0.55397 0.0863 0.06988 0.0
H713 H 0.57243 0.10754 0.11257 0.0
H714 H 0.56031 0.03052 0.15823 0.0
H715 H 0.54119 1.00937 0.1154 0.0
C716 C 0.57623 0.09294 0.21631 0.0
C717 C 0.59988 0.11069 0.21515 0.0
C718 C 0.56609 0.0799 0.19184 0.0
C719 C 0.57918 0.08427 0.16539 0.0
C720 C 0.60285 0.10198 0.16427 0.0
C721 C 0.61302 0.11496 0.18871 0.0
C722 C 0.55531 0.07376 0.08896 0.0
C723 C 0.54604 0.04603 0.08905 0.0
C724 C 0.56611 0.08595 0.11353 0.0
C725 C 0.56799 0.07085 0.13906 0.0
C726 C 0.55888 0.04301 0.13913 0.0
C727 C 0.54811 0.03075 0.11447 0.0
H728 H 0.49402 0.56864 0.21157 0.0
H729 H 0.44511 0.49479 0.2237 0.0
H730 H 0.50695 0.56851 0.26149 0.0
H731 H 0.45731 0.49516 0.27379 0.0
H732 H 0.50127 0.49115 0.35919 0.0
H733 H 0.49817 0.48864 0.30801 0.0
H734 H 0.47793 0.57974 0.30491 0.0
H735 H 0.48109 0.58224 0.3563 0.0
C736 C 0.48659 0.55199 0.22477 0.0
C737 C 0.46852 0.53171 0.21373 0.0
C738 C 0.49365 0.55218 0.25343 0.0
C739 C 0.4829 0.53202 0.2716 0.0
C740 C 0.46609 0.51088 0.26029 0.0
C741 C 0.45894 0.51075 0.23166 0.0
C742 C 0.4961 0.51065 0.34758 0.0
C743 C 0.49094 0.53687 0.36175 0.0
C744 C 0.4944 0.5092 0.31828 0.0
C745 C 0.48758 0.53393 0.30246 0.0
C746 C 0.48353 0.56032 0.31653 0.0
C747 C 0.48525 0.56178 0.34593 0.0
H748 H 0.10221 0.50191 0.72894 0.0
H749 H 0.0417 0.43669 0.71632 0.0
H750 H 0.09121 0.5025 0.77923 0.0
H751 H 0.03097 0.4369 0.7668 0.0
H752 H 0.99858 0.46854 0.85576 0.0
H753 H 0.00741 0.46544 0.80491 0.0
H754 H 0.10186 0.47174 0.81903 0.0
H755 H 0.09284 0.47541 0.86961 0.0
C756 C 0.08655 0.4877 0.73698 0.0
C757 C 0.07288 0.4692 0.71878 0.0
C758 C 0.08037 0.48789 0.76578 0.0
C759 C 0.06054 0.46944 0.77707 0.0
C760 C 0.0462 0.45149 0.75874 0.0
C761 C 0.05229 0.45141 0.72985 0.0
C762 C 0.02126 0.46873 0.84792 0.0
C763 C 0.04501 0.47244 0.86648 0.0
C764 C 0.02632 0.46702 0.81885 0.0
C765 C 0.05526 0.46885 0.80792 0.0
C766 C 0.07919 0.47106 0.82672 0.0
C767 C 0.0741 0.47294 0.85566 0.0
H768 H 0.69615 0.88762 0.89629 0.0
H769 H 0.74499 0.95658 0.92673 0.0
H770 H 0.65154 0.90791 0.92094 0.0
H771 H 0.70003 0.97717 0.95075 0.0
H772 H 0.60374 0.02047 0.96306 0.0
H773 H 0.64949 1.00011 0.94005 0.0
H774 H 0.63213 0.91677 0.96941 0.0
H775 H 0.58629 0.9371 0.99242 0.0
C776 C 0.69758 0.90697 0.90838 0.0
C777 C 0.72449 0.92029 0.90942 0.0
C778 C 0.67186 0.91866 0.92251 0.0
C779 C 0.67212 0.94418 0.93792 0.0
C780 C 0.69888 0.95767 0.93883 0.0
C781 C 0.7247 0.94585 0.9249 0.0
C782 C 0.60972 0.99781 0.96476 0.0
C783 C 0.59123 0.98046 0.97962 0.0
C784 C 0.63607 0.98614 0.95164 0.0
C785 C 0.64453 0.95675 0.95275 0.0
C786 C 0.62616 0.93943 0.96783 0.0
C787 C 0.59996 0.95114 0.9812 0.0
H788 H 0.80122 0.07705 0.37817 0.0
H789 H 0.78478 0.13643 0.44707 0.0
H790 H 0.84621 0.0563 0.40179 0.0
H791 H 0.82927 0.11534 0.4711 0.0
H792 H 0.91116 1.00822 0.46195 0.0
H793 H 0.86489 0.02805 0.4399 0.0
H794 H 0.88195 0.11173 0.46988 0.0
H795 H 0.92755 0.09168 0.49274 0.0
C796 C 0.80703 0.08547 0.39853 0.0
C797 C 0.78941 0.1085 0.41063 0.0
C798 C 0.83284 0.0735 0.41219 0.0
C799 C 0.84163 0.08407 0.43847 0.0
C800 C 0.82371 0.10691 0.45068 0.0
C801 C 0.79808 0.11901 0.43691 0.0
C802 C 0.90492 0.03083 0.46399 0.0
C803 C 0.92312 0.04832 0.47919 0.0
C804 C 0.87844 0.04229 0.45112 0.0
C805 C 0.8695 0.07162 0.45289 0.0
C806 C 0.88767 0.08901 0.46833 0.0
C807 C 0.91401 0.07752 0.48138 0.0
H808 H 0.24101 0.60362 0.03678 0.0
H809 H 0.25927 0.51324 0.04895 0.0
H810 H 0.18831 0.59694 0.02717 0.0
H811 H 0.20676 0.50651 0.03896 0.0
H812 H 0.11726 0.5061 0.99026 0.0
H813 H 0.16992 0.51449 0.99604 0.0
H814 H 0.14551 0.57868 0.05903 0.0
H815 H 0.09275 0.57005 0.05367 0.0
C816 C 0.23377 0.58233 0.03698 0.0
C817 C 0.25403 0.55892 0.04356 0.0
C818 C 0.2037 0.57855 0.0317 0.0
C819 C 0.19361 0.55124 0.03238 0.0
C820 C 0.21408 0.52775 0.03816 0.0
C821 C 0.24399 0.53159 0.04396 0.0
C822 C 0.12308 0.5221 1.00525 0.0
C823 C 0.10091 0.53736 0.02161 0.0
C824 C 0.15319 0.5268 1.00858 0.0
C825 C 0.16164 0.5472 0.02795 0.0
C826 C 0.13946 0.56296 0.04382 0.0
C827 C 0.10936 0.55791 0.04086 0.0
H828 H 0.27286 0.4467 0.50016 0.0
H829 H 0.26864 0.4972 0.57649 0.0
H830 H 0.32575 0.45456 0.49483 0.0
H831 H 0.32133 0.50541 0.57092 0.0
H832 H 0.42363 0.48551 0.56815 0.0
H833 H 0.37104 0.47651 0.5731 0.0
H834 H 0.35652 0.49512 0.4849 0.0
H835 H 0.40898 0.504 0.47983 0.0
C836 C 0.28324 0.45953 0.51572 0.0
C837 C 0.26665 0.4714 0.53869 0.0
C838 C 0.31341 0.46416 0.51259 0.0
C839 C 0.32764 0.48051 0.53252 0.0
C840 C 0.31101 0.49248 0.55541 0.0
C841 C 0.28079 0.48806 0.5584 0.0
C842 C 0.40924 0.48755 0.5498 0.0
C843 C 0.42043 0.49553 0.52363 0.0
C844 C 0.37912 0.48257 0.55268 0.0
C845 C 0.35971 0.48522 0.52939 0.0
C846 C 0.37102 0.49272 0.50314 0.0
C847 C 0.40104 0.49793 0.50031 0.0
H848 H 0.95147 0.74894 0.94018 0.0
H849 H 0.91149 0.69996 0.87541 0.0
H850 H 0.97048 0.70513 0.96343 0.0
H851 H 0.93065 0.65615 0.89861 0.0
H852 H 0.99303 0.58232 0.93272 0.0
H853 H 0.9757 0.62651 0.90924 0.0
H854 H 0.95442 0.66575 0.99005 0.0
H855 H 0.97225 0.62159 0.0136 0.0
C856 C 0.94652 0.72887 0.93092 0.0
C857 C 0.92977 0.72824 0.90581 0.0
C858 C 0.95748 0.70364 0.94433 0.0
C859 C 0.95213 0.6769 0.93306 0.0
C860 C 0.93567 0.67624 0.90779 0.0
C861 C 0.92466 0.70148 0.8944 0.0
C862 C 0.98476 0.60037 0.94556 0.0
C863 C 0.9841 0.59825 0.97514 0.0
C864 C 0.97459 0.62576 0.93202 0.0
C865 C 0.96348 0.64988 0.94762 0.0
C866 C 0.96311 0.64783 0.97726 0.0
C867 C 0.97322 0.62239 0.99081 0.0
H868 H 0.40433 0.74598 0.05277 0.0
H869 H 0.48673 0.72168 0.09701 0.0
H870 H 0.41771 0.79499 0.05061 0.0
H871 H 0.49997 0.7708 0.09512 0.0
H872 H 0.52441 0.85515 0.05209 0.0
H873 H 0.51316 0.80586 0.05784 0.0
H874 H 0.42385 0.83449 0.08577 0.0
H875 H 0.43518 0.88376 0.08064 0.0
C876 C 0.42537 0.75112 0.06185 0.0
C877 C 0.4445 0.73011 0.07506 0.0
C878 C 0.43287 0.77917 0.06089 0.0
C879 C 0.45976 0.78666 0.07289 0.0
C880 C 0.47915 0.76555 0.08566 0.0
C881 C 0.4715 0.73755 0.08687 0.0
C882 C 0.50261 0.85096 0.06009 0.0
C883 C 0.4806 0.87338 0.06567 0.0
C884 C 0.49615 0.82274 0.06324 0.0
C885 C 0.46752 0.81643 0.07186 0.0
C886 C 0.44592 0.8388 0.07854 0.0
C887 C 0.45243 0.86697 0.07561 0.0
H888 H 0.02386 0.31592 0.57141 0.0
H889 H 0.09075 0.29131 0.50821 0.0
H890 H 0.00772 0.26801 0.5707 0.0
H891 H 0.07608 0.2431 0.5089 0.0
H892 H 0.03223 0.16287 0.49951 0.0
H893 H 0.03889 0.21338 0.4965 0.0
H894 H 0.02517 0.22174 0.58655 0.0
H895 H 0.01703 0.17119 0.58904 0.0
C896 C 0.0349 0.3004 0.55711 0.0
C897 C 0.05869 0.30746 0.53992 0.0
C898 C 0.02595 0.27279 0.55705 0.0
C899 C 0.04071 0.25157 0.53992 0.0
C900 C 0.0639 0.2589 0.52213 0.0
C901 C 0.07263 0.28652 0.52199 0.0
C902 C 0.0304 0.17568 0.51856 0.0
C903 C 0.02448 0.16333 0.54455 0.0
C904 C 0.03437 0.20455 0.51691 0.0
C905 C 0.03304 0.22161 0.54134 0.0
C906 C 0.02607 0.20932 0.56727 0.0
C907 C 0.02159 0.18041 0.56881 0.0
H908 H 0.56632 0.2821 0.44551 0.0
H909 H 0.60828 0.32962 0.38136 0.0
H910 H 0.54902 0.32643 0.4694 0.0
H911 H 0.59077 0.37383 0.4051 0.0
H912 H 0.5288 0.44847 0.43768 0.0
H913 H 0.54545 0.40361 0.41494 0.0
H914 H 0.56632 0.3663 0.49624 0.0
H915 H 0.54915 0.41142 0.51922 0.0
C916 C 0.57206 0.30193 0.43652 0.0
C917 C 0.58872 0.30205 0.41132 0.0
C918 C 0.56211 0.32744 0.4503 0.0
C919 C 0.56839 0.35386 0.43925 0.0
C920 C 0.58501 0.35399 0.41405 0.0
C921 C 0.59503 0.32852 0.40034 0.0
C922 C 0.53688 0.43075 0.45084 0.0
C923 C 0.53764 0.43372 0.48039 0.0
C924 C 0.54666 0.40497 0.4377 0.0
C925 C 0.55748 0.38122 0.45363 0.0
C926 C 0.55792 0.38401 0.48324 0.0
C927 C 0.54819 0.40995 0.49645 0.0
loop_
_geom_bond_atom_site_label_1
_geom_bond_atom_site_label_2
_geom_bond_distance
_geom_bond_site_symmetry_2
_ccdc_geom_bond_type
C0 C1 1.386 . S
C0 C2 1.397 . S
C0 H24 0.931 . S
C1 C0 1.386 . S
C1 C5 1.397 . S
C2 C0 1.397 . S
C2 C3 1.384 . S
C2 H25 0.930 . S
C3 C2 1.384 . S
C3 C4 1.377 . S
C3 C6 1.481 . S
C4 C3 1.377 . S
C4 C5 1.389 . S
C4 H26 0.929 . S
C5 C1 1.397 . S
C5 C4 1.389 . S
C5 H27 0.931 . S
C6 C3 1.481 . S
C6 C7 1.387 . S
C6 C11 1.390 . S
C7 C6 1.387 . S
C7 C8 1.401 . S
C7 H28 0.930 . S
C8 C7 1.401 . S
C8 C9 1.376 . S
C8 C17 1.511 . S
C9 C8 1.376 . S
C9 C10 1.392 . S
C9 H30 0.931 . S
C10 C9 1.392 . S
C10 C11 1.361 . S
C10 C12 1.500 . S
C11 C6 1.390 . S
C11 C10 1.361 . S
C11 H29 0.931 . S
C12 C10 1.500 . S
C12 C13 1.371 . S
C12 C14 1.365 . S
C13 C12 1.371 . S
C13 C23 1.386 . S
C13 H31 0.931 . S
C14 C12 1.365 . S
C14 C15 1.409 . S
C14 H32 0.929 . S
C15 C14 1.409 . S
C15 C16 1.380 . S
C15 H33 0.930 . S
C16 C15 1.380 . S
C16 C23 1.357 . S
C17 C8 1.511 . S
C17 C18 1.341 . S
C17 C19 1.371 . S
C18 C17 1.341 . S
C18 C22 1.394 . S
C18 H34 0.930 . S
C19 C17 1.371 . S
C19 C20 1.392 . S
C19 H35 0.931 . S
C20 C19 1.392 . S
C20 C21 1.331 . S
C20 H38 0.932 . S
C21 C20 1.331 . S
C21 C22 1.336 . S
C22 C18 1.394 . S
C22 C21 1.336 . S
C22 H37 0.929 . S
C23 C13 1.386 . S
C23 C16 1.357 . S
C23 H36 0.928 . S
H24 C0 0.931 . S
H25 C2 0.930 . S
H26 C4 0.929 . S
H27 C5 0.931 . S
H28 C7 0.930 . S
H29 C11 0.931 . S
H30 C9 0.931 . S
H31 C13 0.931 . S
H32 C14 0.929 . S
H33 C15 0.930 . S
H34 C18 0.930 . S
H35 C19 0.931 . S
H36 C23 0.928 . S
H37 C22 0.929 . S
H38 C20 0.932 . S
C39 C40 1.386 . S
C39 C41 1.397 . S
C39 H63 0.931 . S
C40 C39 1.386 . S
C40 C44 1.397 . S
C41 C39 1.397 . S
C41 C42 1.384 . S
C41 H64 0.930 . S
C42 C41 1.384 . S
C42 C43 1.377 . S
C42 C45 1.481 . S
C43 C42 1.377 . S
C43 C44 1.389 . S
C43 H65 0.929 . S
C44 C40 1.397 . S
C44 C43 1.389 . S
C44 H66 0.931 . S
C45 C42 1.481 . S
C45 C46 1.387 . S
C45 C50 1.390 . S
C46 C45 1.387 . S
C46 C47 1.401 . S
C46 H67 0.930 . S
C47 C46 1.401 . S
C47 C48 1.376 . S
C47 C56 1.511 . S
C48 C47 1.376 . S
C48 C49 1.392 . S
C48 H69 0.931 . S
C49 C48 1.392 . S
C49 C50 1.361 . S
C49 C51 1.500 . S
C50 C45 1.390 . S
C50 C49 1.361 . S
C50 H68 0.931 . S
C51 C49 1.500 . S
C51 C52 1.371 . S
C51 C53 1.365 . S
C52 C51 1.371 . S
C52 C62 1.386 . S
C52 H70 0.931 . S
C53 C51 1.365 . S
C53 C54 1.409 . S
C53 H71 0.929 . S
C54 C53 1.409 . S
C54 C55 1.380 . S
C54 H72 0.930 . S
C55 C54 1.380 . S
C55 C62 1.357 . S
C56 C47 1.511 . S
C56 C57 1.341 . S
C56 C58 1.371 . S
C57 C56 1.341 . S
C57 C61 1.394 . S
C57 H73 0.930 . S
C58 C56 1.371 . S
C58 C59 1.392 . S
C58 H74 0.931 . S
C59 C58 1.392 . S
C59 C60 1.331 . S
C59 H77 0.932 . S
C60 C59 1.331 . S
C60 C61 1.336 . S
C61 C57 1.394 . S
C61 C60 1.336 . S
C61 H76 0.929 . S
C62 C52 1.386 . S
C62 C55 1.357 . S
C62 H75 0.928 . S
H63 C39 0.931 . S
H64 C41 0.930 . S
H65 C43 0.929 . S
H66 C44 0.931 . S
H67 C46 0.930 . S
H68 C50 0.931 . S
H69 C48 0.931 . S
H70 C52 0.931 . S
H71 C53 0.929 . S
H72 C54 0.930 . S
H73 C57 0.930 . S
H74 C58 0.931 . S
H75 C62 0.928 . S
H76 C61 0.929 . S
H77 C59 0.932 . S
C78 C79 1.386 . S
C78 C80 1.397 . S
C78 H102 0.931 . S
C79 C78 1.386 . S
C79 C83 1.397 . S
C80 C78 1.397 . S
C80 C81 1.384 . S
C80 H103 0.930 . S
C81 C80 1.384 . S
C81 C82 1.377 . S
C81 C84 1.481 . S
C82 C81 1.377 . S
C82 C83 1.389 . S
C82 H104 0.929 . S
C83 C79 1.397 . S
C83 C82 1.389 . S
C83 H105 0.931 . S
C84 C81 1.481 . S
C84 C85 1.387 . S
C84 C89 1.390 . S
C85 C84 1.387 . S
C85 C86 1.401 . S
C85 H106 0.930 . S
C86 C85 1.401 . S
C86 C87 1.376 . S
C86 C95 1.511 . S
C87 C86 1.376 . S
C87 C88 1.392 . S
C87 H108 0.931 . S
C88 C87 1.392 . S
C88 C89 1.361 . S
C88 C90 1.500 . S
C89 C84 1.390 . S
C89 C88 1.361 . S
C89 H107 0.931 . S
C90 C88 1.500 . S
C90 C91 1.371 . S
C90 C92 1.365 . S
C91 C90 1.371 . S
C91 C101 1.386 . S
C91 H109 0.931 . S
C92 C90 1.365 . S
C92 C93 1.409 . S
C92 H110 0.929 . S
C93 C92 1.409 . S
C93 C94 1.380 . S
C93 H111 0.930 . S
C94 C93 1.380 . S
C94 C101 1.357 . S
C95 C86 1.511 . S
C95 C96 1.341 . S
C95 C97 1.371 . S
C96 C95 1.341 . S
C96 C100 1.394 . S
C96 H112 0.930 . S
C97 C95 1.371 . S
C97 C98 1.392 . S
C97 H113 0.931 . S
C98 C97 1.392 . S
C98 C99 1.331 . S
C98 H116 0.932 . S
C99 C98 1.331 . S
C99 C100 1.336 . S
C100 C96 1.394 . S
C100 C99 1.336 . S
C100 H115 0.929 . S
C101 C91 1.386 . S
C101 C94 1.357 . S
C101 H114 0.928 . S
H102 C78 0.931 . S
H103 C80 0.930 . S
H104 C82 0.929 . S
H105 C83 0.931 . S
H106 C85 0.930 . S
H107 C89 0.931 . S
H108 C87 0.931 . S
H109 C91 0.931 . S
H110 C92 0.929 . S
H111 C93 0.930 . S
H112 C96 0.930 . S
H113 C97 0.931 . S
H114 C101 0.928 . S
H115 C100 0.929 . S
H116 C98 0.932 . S
C117 C118 1.386 . S
C117 C119 1.397 . S
C117 H141 0.931 . S
C118 C117 1.386 . S
C118 C122 1.397 . S
C119 C117 1.397 . S
C119 C120 1.384 . S
C119 H142 0.930 . S
C120 C119 1.384 . S
C120 C121 1.377 . S
C120 C123 1.481 . S
C121 C120 1.377 . S
C121 C122 1.389 . S
C121 H143 0.929 . S
C122 C118 1.397 . S
C122 C121 1.389 . S
C122 H144 0.931 . S
C123 C120 1.481 . S
C123 C124 1.387 . S
C123 C128 1.390 . S
C124 C123 1.387 . S
C124 C125 1.401 . S
C124 H145 0.930 . S
C125 C124 1.401 . S
C125 C126 1.376 . S
C125 C134 1.511 . S
C126 C125 1.376 . S
C126 C127 1.392 . S
C126 H147 0.931 . S
C127 C126 1.392 . S
C127 C128 1.361 . S
C127 C129 1.500 . S
C128 C123 1.390 . S
C128 C127 1.361 . S
C128 H146 0.931 . S
C129 C127 1.500 . S
C129 C130 1.371 . S
C129 C131 1.365 . S
C130 C129 1.371 . S
C130 C140 1.386 . S
C130 H148 0.931 . S
C131 C129 1.365 . S
C131 C132 1.409 . S
C131 H149 0.929 . S
C132 C131 1.409 . S
C132 C133 1.380 . S
C132 H150 0.930 . S
C133 C132 1.380 . S
C133 C140 1.357 . S
C134 C125 1.511 . S
C134 C135 1.341 . S
C134 C136 1.371 . S
C135 C134 1.341 . S
C135 C139 1.394 . S
C135 H151 0.930 . S
C136 C134 1.371 . S
C136 C137 1.392 . S
C136 H152 0.931 . S
C137 C136 1.392 . S
C137 C138 1.331 . S
C137 H155 0.932 . S
C138 C137 1.331 . S
C138 C139 1.336 . S
C139 C135 1.394 . S
C139 C138 1.336 . S
C139 H154 0.929 . S
C140 C130 1.386 . S
C140 C133 1.357 . S
C140 H153 0.928 . S
H141 C117 0.931 . S
H142 C119 0.930 . S
H143 C121 0.929 . S
H144 C122 0.931 . S
H145 C124 0.930 . S
H146 C128 0.931 . S
H147 C126 0.931 . S
H148 C130 0.931 . S
H149 C131 0.929 . S
H150 C132 0.930 . S
H151 C135 0.930 . S
H152 C136 0.931 . S
H153 C140 0.928 . S
H154 C139 0.929 . S
H155 C137 0.932 . S
C156 C157 1.386 . S
C156 C158 1.397 . S
C156 H180 0.931 . S
C157 C156 1.386 . S
C157 C161 1.397 . S
C158 C156 1.397 . S
C158 C159 1.384 . S
C158 H181 0.930 . S
C159 C158 1.384 . S
C159 C160 1.377 . S
C159 C162 1.481 . S
C160 C159 1.377 . S
C160 C161 1.389 . S
C160 H182 0.929 . S
C161 C157 1.397 . S
C161 C160 1.389 . S
C161 H183 0.931 . S
C162 C159 1.481 . S
C162 C163 1.387 . S
C162 C167 1.390 . S
C163 C162 1.387 . S
C163 C164 1.401 . S
C163 H184 0.930 . S
C164 C163 1.401 . S
C164 C165 1.376 . S
C164 C173 1.511 . S
C165 C164 1.376 . S
C165 C166 1.392 . S
C165 H186 0.931 . S
C166 C165 1.392 . S
C166 C167 1.361 . S
C166 C168 1.500 . S
C167 C162 1.390 . S
C167 C166 1.361 . S
C167 H185 0.931 . S
C168 C166 1.500 . S
C168 C169 1.371 . S
C168 C170 1.365 . S
C169 C168 1.371 . S
C169 C179 1.386 . S
C169 H187 0.931 . S
C170 C168 1.365 . S
C170 C171 1.409 . S
C170 H188 0.929 . S
C171 C170 1.409 . S
C171 C172 1.380 . S
C171 H189 0.930 . S
C172 C171 1.380 . S
C172 C179 1.357 . S
C173 C164 1.511 . S
C173 C174 1.341 . S
C173 C175 1.371 . S
C174 C173 1.341 . S
C174 C178 1.394 . S
C174 H190 0.930 . S
C175 C173 1.371 . S
C175 C176 1.392 . S
C175 H191 0.931 . S
C176 C175 1.392 . S
C176 C177 1.331 . S
C176 H194 0.932 . S
C177 C176 1.331 . S
C177 C178 1.336 . S
C178 C174 1.394 . S
C178 C177 1.336 . S
C178 H193 0.929 . S
C179 C169 1.386 . S
C179 C172 1.357 . S
C179 H192 0.928 . S
H180 C156 0.931 . S
H181 C158 0.930 . S
H182 C160 0.929 . S
H183 C161 0.931 . S
H184 C163 0.930 . S
H185 C167 0.931 . S
H186 C165 0.931 . S
H187 C169 0.931 . S
H188 C170 0.929 . S
H189 C171 0.930 . S
H190 C174 0.930 . S
H191 C175 0.931 . S
H192 C179 0.928 . S
H193 C178 0.929 . S
H194 C176 0.932 . S
C195 C196 1.386 . S
C195 C197 1.397 . S
C195 H219 0.931 . S
C196 C195 1.386 . S
C196 C200 1.397 . S
C197 C195 1.397 . S
C197 C198 1.384 . S
C197 H220 0.930 . S
C198 C197 1.384 . S
C198 C199 1.377 . S
C198 C201 1.481 . S
C199 C198 1.377 . S
C199 C200 1.389 . S
C199 H221 0.929 . S
C200 C196 1.397 . S
C200 C199 1.389 . S
C200 H222 0.931 . S
C201 C198 1.481 . S
C201 C202 1.387 . S
C201 C206 1.390 . S
C202 C201 1.387 . S
C202 C203 1.401 . S
C202 H223 0.930 . S
C203 C202 1.401 . S
C203 C204 1.376 . S
C203 C212 1.511 . S
C204 C203 1.376 . S
C204 C205 1.392 . S
C204 H225 0.931 . S
C205 C204 1.392 . S
C205 C206 1.361 . S
C205 C207 1.500 . S
C206 C201 1.390 . S
C206 C205 1.361 . S
C206 H224 0.931 . S
C207 C205 1.500 . S
C207 C208 1.371 . S
C207 C209 1.365 . S
C208 C207 1.371 . S
C208 C218 1.386 . S
C208 H226 0.931 . S
C209 C207 1.365 . S
C209 C210 1.409 . S
C209 H227 0.929 . S
C210 C209 1.409 . S
C210 C211 1.380 . S
C210 H228 0.930 . S
C211 C210 1.380 . S
C211 C218 1.357 . S
C212 C203 1.511 . S
C212 C213 1.341 . S
C212 C214 1.371 . S
C213 C212 1.341 . S
C213 C217 1.394 . S
C213 H229 0.930 . S
C214 C212 1.371 . S
C214 C215 1.392 . S
C214 H230 0.931 . S
C215 C214 1.392 . S
C215 C216 1.331 . S
C215 H233 0.932 . S
C216 C215 1.331 . S
C216 C217 1.336 . S
C217 C213 1.394 . S
C217 C216 1.336 . S
C217 H232 0.929 . S
C218 C208 1.386 . S
C218 C211 1.357 . S
C218 H231 0.928 . S
H219 C195 0.931 . S
H220 C197 0.930 . S
H221 C199 0.929 . S
H222 C200 0.931 . S
H223 C202 0.930 . S
H224 C206 0.931 . S
H225 C204 0.931 . S
H226 C208 0.931 . S
H227 C209 0.929 . S
H228 C210 0.930 . S
H229 C213 0.930 . S
H230 C214 0.931 . S
H231 C218 0.928 . S
H232 C217 0.929 . S
H233 C215 0.932 . S
C234 C235 1.386 . S
C234 C236 1.397 . S
C234 H258 0.931 . S
C235 C234 1.386 . S
C235 C239 1.397 . S
C236 C234 1.397 . S
C236 C237 1.384 . S
C236 H259 0.930 . S
C237 C236 1.384 . S
C237 C238 1.377 . S
C237 C240 1.481 . S
C238 C237 1.377 . S
C238 C239 1.389 . S
C238 H260 0.929 . S
C239 C235 1.397 . S
C239 C238 1.389 . S
C239 H261 0.931 . S
C240 C237 1.481 . S
C240 C241 1.387 . S
C240 C245 1.390 . S
C241 C240 1.387 . S
C241 C242 1.401 . S
C241 H262 0.930 . S
C242 C241 1.401 . S
C242 C243 1.376 . S
C242 C251 1.511 . S
C243 C242 1.376 . S
C243 C244 1.392 . S
C243 H264 0.931 . S
C244 C243 1.392 . S
C244 C245 1.361 . S
C244 C246 1.500 . S
C245 C240 1.390 . S
C245 C244 1.361 . S
C245 H263 0.931 . S
C246 C244 1.500 . S
C246 C247 1.371 . S
C246 C248 1.365 . S
C247 C246 1.371 . S
C247 C257 1.386 . S
C247 H265 0.931 . S
C248 C246 1.365 . S
C248 C249 1.409 . S
C248 H266 0.929 . S
C249 C248 1.409 . S
C249 C250 1.380 . S
C249 H267 0.930 . S
C250 C249 1.380 . S
C250 C257 1.357 . S
C251 C242 1.511 . S
C251 C252 1.341 . S
C251 C253 1.371 . S
C252 C251 1.341 . S
C252 C256 1.394 . S
C252 H268 0.930 . S
C253 C251 1.371 . S
C253 C254 1.392 . S
C253 H269 0.931 . S
C254 C253 1.392 . S
C254 C255 1.331 . S
C254 H272 0.932 . S
C255 C254 1.331 . S
C255 C256 1.336 . S
C256 C252 1.394 . S
C256 C255 1.336 . S
C256 H271 0.929 . S
C257 C247 1.386 . S
C257 C250 1.357 . S
C257 H270 0.928 . S
H258 C234 0.931 . S
H259 C236 0.930 . S
H260 C238 0.929 . S
H261 C239 0.931 . S
H262 C241 0.930 . S
H263 C245 0.931 . S
H264 C243 0.931 . S
H265 C247 0.931 . S
H266 C248 0.929 . S
H267 C249 0.930 . S
H268 C252 0.930 . S
H269 C253 0.931 . S
H270 C257 0.928 . S
H271 C256 0.929 . S
H272 C254 0.932 . S
C273 C274 1.386 . S
C273 C275 1.397 . S
C273 H297 0.931 . S
C274 C273 1.386 . S
C274 C278 1.397 . S
C275 C273 1.397 . S
C275 C276 1.384 . S
C275 H298 0.930 . S
C276 C275 1.384 . S
C276 C277 1.377 . S
C276 C279 1.481 . S
C277 C276 1.377 . S
C277 C278 1.389 . S
C277 H299 0.929 . S
C278 C274 1.397 . S
C278 C277 1.389 . S
C278 H300 0.931 . S
C279 C276 1.481 . S
C279 C280 1.387 . S
C279 C284 1.390 . S
C280 C279 1.387 . S
C280 C281 1.401 . S
C280 H301 0.930 . S
C281 C280 1.401 . S
C281 C282 1.376 . S
C281 C290 1.511 . S
C282 C281 1.376 . S
C282 C283 1.392 . S
C282 H303 0.931 . S
C283 C282 1.392 . S
C283 C284 1.361 . S
C283 C285 1.500 . S
C284 C279 1.390 . S
C284 C283 1.361 . S
C284 H302 0.931 . S
C285 C283 1.500 . S
C285 C286 1.371 . S
C285 C287 1.365 . S
C286 C285 1.371 . S
C286 C296 1.386 . S
C286 H304 0.931 . S
C287 C285 1.365 . S
C287 C288 1.409 . S
C287 H305 0.929 . S
C288 C287 1.409 . S
C288 C289 1.380 . S
C288 H306 0.930 . S
C289 C288 1.380 . S
C289 C296 1.357 . S
C290 C281 1.511 . S
C290 C291 1.341 . S
C290 C292 1.371 . S
C291 C290 1.341 . S
C291 C295 1.394 . S
C291 H307 0.930 . S
C292 C290 1.371 . S
C292 C293 1.392 . S
C292 H308 0.931 . S
C293 C292 1.392 . S
C293 C294 1.331 . S
C293 H311 0.932 . S
C294 C293 1.331 . S
C294 C295 1.336 . S
C295 C291 1.394 . S
C295 C294 1.336 . S
C295 H310 0.929 . S
C296 C286 1.386 . S
C296 C289 1.357 . S
C296 H309 0.928 . S
H297 C273 0.931 . S
H298 C275 0.930 . S
H299 C277 0.929 . S
H300 C278 0.931 . S
H301 C280 0.930 . S
H302 C284 0.931 . S
H303 C282 0.931 . S
H304 C286 0.931 . S
H305 C287 0.929 . S
H306 C288 0.930 . S
H307 C291 0.930 . S
H308 C292 0.931 . S
H309 C296 0.928 . S
H310 C295 0.929 . S
H311 C293 0.932 . S
C312 O328 1.251 . S
C312 O330 1.254 1_545 S
N313 C314 1.333 . S
N313 C318 1.307 . S
N313 Zn319 2.020 . S
C314 N313 1.333 . S
C314 C315 1.379 . S
C314 H332 0.952 . S
C315 C314 1.379 . S
C315 C316 1.390 . S
C315 H342 0.949 . S
C316 C315 1.390 . S
C316 C317 1.357 . S
C317 C316 1.357 . S
C317 C318 1.370 . S
C317 H343 0.950 . S
C318 N313 1.307 . S
C318 C317 1.370 . S
C318 H336 0.948 1_455 S
Zn319 N313 2.020 . S
Zn319 O328 2.039 . S
Zn319 O334 2.034 . S
Zn319 O338 2.025 1_455 S
Zn319 O340 2.024 1_455 S
C320 O339 1.246 1_545 S
C320 O340 1.249 . S
N321 C322 1.323 . S
N321 C323 1.333 . S
N321 Zn327 2.020 . S
C322 N321 1.323 . S
C322 C326 1.381 . S
C322 H333 0.921 1_655 S
C323 N321 1.333 . S
C323 C324 1.379 . S
C323 H331 0.952 . S
C324 C323 1.379 . S
C324 C325 1.390 . S
C324 H344 0.949 . S
C325 C324 1.390 . S
C325 C326 1.357 . S
C326 C322 1.381 . S
C326 C325 1.357 . S
C326 H345 0.950 1_655 S
Zn327 N321 2.020 . S
Zn327 O330 2.025 1_655 S
Zn327 O335 2.024 1_655 S
Zn327 O337 2.039 . S
Zn327 O339 2.034 . S
O328 C312 1.251 . S
O328 Zn319 2.039 . S
C329 O334 1.246 1_565 S
C329 O335 1.249 . S
O330 C312 1.254 1_565 S
O330 Zn327 2.025 1_455 S
H331 C323 0.952 . S
H332 C314 0.952 . S
H333 C322 0.921 1_455 S
O334 Zn319 2.034 . S
O334 C329 1.246 1_545 S
O335 Zn327 2.024 1_455 S
O335 C329 1.249 . S
H336 C318 0.948 1_655 S
O337 Zn327 2.039 . S
O337 C341 1.251 . S
O338 Zn319 2.025 1_655 S
O338 C341 1.254 1_545 S
O339 C320 1.246 1_565 S
O339 Zn327 2.034 . S
O340 Zn319 2.024 1_655 S
O340 C320 1.249 . S
C341 O337 1.251 . S
C341 O338 1.254 1_565 S
H342 C315 0.949 . S
H343 C317 0.950 . S
H344 C324 0.949 . S
H345 C326 0.950 1_455 S
C346 O362 1.251 1_565 S
C346 O364 1.254 . S
N347 C348 1.333 . S
N347 C352 1.307 . S
N347 Zn353 2.020 . S
C348 N347 1.333 . S
C348 C349 1.379 . S
C348 H366 0.952 . S
C349 C348 1.379 . S
C349 C350 1.390 . S
C349 H376 0.949 . S
C350 C349 1.390 . S
C350 C351 1.357 . S
C351 C350 1.357 . S
C351 C352 1.370 . S
C351 H377 0.950 . S
C352 N347 1.307 . S
C352 C351 1.370 . S
C352 H370 0.948 . S
Zn353 N347 2.020 . S
Zn353 O362 2.039 . S
Zn353 O368 2.034 1_556 S
Zn353 O372 2.025 1_556 S
Zn353 O374 2.024 . S
C354 O373 1.246 . S
C354 O374 1.249 1_565 S
N355 C356 1.307 . S
N355 C357 1.333 . S
N355 Zn361 2.020 . S
C356 N355 1.307 . S
C356 C360 1.370 . S
C356 H367 0.948 . S
C357 N355 1.333 . S
C357 C358 1.379 . S
C357 H365 0.952 . S
C358 C357 1.379 . S
C358 C359 1.390 . S
C358 H378 0.949 . S
C359 C358 1.390 . S
C359 C360 1.357 . S
C360 C356 1.370 . S
C360 C359 1.357 . S
C360 H379 0.950 . S
Zn361 N355 2.020 . S
Zn361 O364 2.025 1_554 S
Zn361 O369 2.024 . S
Zn361 O371 2.039 . S
Zn361 O373 2.034 1_554 S
O362 C346 1.251 1_545 S
O362 Zn353 2.039 . S
C363 O368 1.246 . S
C363 O369 1.249 1_545 S
O364 C346 1.254 . S
O364 Zn361 2.025 1_556 S
H365 C357 0.952 . S
H366 C348 0.952 . S
H367 C356 0.948 . S
O368 Zn353 2.034 1_554 S
O368 C363 1.246 . S
O369 Zn361 2.024 . S
O369 C363 1.249 1_565 S
H370 C352 0.948 . S
O371 Zn361 2.039 . S
O371 C375 1.251 1_565 S
O372 Zn353 2.025 1_554 S
O372 C375 1.254 . S
O373 C354 1.246 . S
O373 Zn361 2.034 1_556 S
O374 Zn353 2.024 . S
O374 C354 1.249 1_545 S
C375 O371 1.251 1_545 S
C375 O372 1.254 . S
H376 C349 0.949 . S
H377 C351 0.950 . S
H378 C358 0.949 . S
H379 C360 0.950 . S
C380 O396 1.251 . S
C380 O398 1.254 . S
N381 C382 1.333 . S
N381 C386 1.307 . S
N381 Zn387 2.020 . S
C382 N381 1.333 . S
C382 C383 1.379 . S
C382 H400 0.952 . S
C383 C382 1.379 . S
C383 C384 1.390 . S
C383 H410 0.949 . S
C384 C383 1.390 . S
C384 C385 1.357 . S
C385 C384 1.357 . S
C385 C386 1.370 . S
C385 H411 0.950 . S
C386 N381 1.307 . S
C386 C385 1.370 . S
C386 H404 0.948 . S
Zn387 N381 2.020 . S
Zn387 O396 2.039 . S
Zn387 O402 2.034 . S
Zn387 O406 2.025 . S
Zn387 O408 2.024 . S
C388 O407 1.246 . S
C388 O408 1.249 . S
N389 C390 1.307 . S
N389 C391 1.333 . S
N389 Zn395 2.020 . S
C390 N389 1.307 . S
C390 C394 1.370 . S
C390 H401 0.948 . S
C391 N389 1.333 . S
C391 C392 1.379 . S
C391 H399 0.952 . S
C392 C391 1.379 . S
C392 C393 1.390 . S
C392 H412 0.949 . S
C393 C392 1.390 . S
C393 C394 1.357 . S
C394 C390 1.370 . S
C394 C393 1.357 . S
C394 H413 0.950 . S
Zn395 N389 2.020 . S
Zn395 O398 2.025 . S
Zn395 O403 2.024 . S
Zn395 O405 2.039 . S
Zn395 O407 2.034 . S
O396 C380 1.251 . S
O396 Zn387 2.039 . S
C397 O402 1.246 . S
C397 O403 1.249 . S
O398 C380 1.254 . S
O398 Zn395 2.025 . S
H399 C391 0.952 . S
H400 C382 0.952 . S
H401 C390 0.948 . S
O402 Zn387 2.034 . S
O402 C397 1.246 . S
O403 Zn395 2.024 . S
O403 C397 1.249 . S
H404 C386 0.948 . S
O405 Zn395 2.039 . S
O405 C409 1.251 . S
O406 Zn387 2.025 . S
O406 C409 1.254 . S
O407 C388 1.246 . S
O407 Zn395 2.034 . S
O408 Zn387 2.024 . S
O408 C388 1.249 . S
C409 O405 1.251 . S
C409 O406 1.254 . S
H410 C383 0.949 . S
H411 C385 0.950 . S
H412 C392 0.949 . S
H413 C394 0.950 . S
C414 O430 1.251 1_556 S
C414 O432 1.268 . S
N415 C416 1.333 . S
N415 C420 1.307 . S
N415 Zn421 2.020 . S
C416 N415 1.333 . S
C416 C417 1.379 . S
C416 H434 0.952 . S
C417 C416 1.379 . S
C417 C418 1.390 . S
C417 H444 0.949 . S
C418 C417 1.390 . S
C418 C419 1.357 . S
C419 C418 1.357 . S
C419 C420 1.370 . S
C419 H445 0.950 . S
C420 N415 1.307 . S
C420 C419 1.370 . S
C420 H438 0.948 . S
Zn421 N415 2.020 . S
Zn421 O430 2.039 . S
Zn421 O436 2.034 1_655 S
Zn421 O440 2.025 1_655 S
Zn421 O442 2.024 . S
C422 O441 1.246 . S
C422 O442 1.249 1_556 S
N423 C424 1.307 . S
N423 C425 1.333 . S
N423 Zn429 2.020 . S
C424 N423 1.307 . S
C424 C428 1.370 . S
C424 H435 0.948 . S
C425 N423 1.333 . S
C425 C426 1.379 . S
C425 H433 0.952 . S
C426 C425 1.379 . S
C426 C427 1.390 . S
C426 H446 0.949 . S
C427 C426 1.390 . S
C427 C428 1.357 . S
C428 C424 1.370 . S
C428 C427 1.357 . S
C428 H447 0.950 . S
Zn429 N423 2.020 . S
Zn429 O432 2.016 1_455 S
Zn429 O437 2.024 . S
Zn429 O439 2.039 . S
Zn429 O441 2.034 1_455 S
O430 C414 1.251 1_554 S
O430 Zn421 2.039 . S
C431 O436 1.246 . S
C431 O437 1.249 1_554 S
O432 C414 1.268 . S
O432 Zn429 2.016 1_655 S
H433 C425 0.952 . S
H434 C416 0.952 . S
H435 C424 0.948 . S
O436 Zn421 2.034 1_455 S
O436 C431 1.246 . S
O437 Zn429 2.024 . S
O437 C431 1.249 1_556 S
H438 C420 0.948 . S
O439 Zn429 2.039 . S
O439 C443 1.251 1_556 S
O440 Zn421 2.025 1_455 S
O440 C443 1.254 . S
O441 C422 1.246 . S
O441 Zn429 2.034 1_655 S
O442 Zn421 2.024 . S
O442 C422 1.249 1_554 S
C443 O439 1.251 1_554 S
C443 O440 1.254 . S
H444 C417 0.949 . S
H445 C419 0.950 . S
H446 C426 0.949 . S
H447 C428 0.950 . S
H448 C456 0.950 . S
H449 C461 0.950 . S
H450 C458 0.950 . S
H451 C460 0.950 . S
H452 C462 0.950 1_565 S
H453 C464 0.950 . S
H454 C466 0.950 . S
H455 C467 0.950 . S
C456 H448 0.950 . S
C456 C457 1.386 . S
C456 C458 1.391 . S
C457 C456 1.386 . S
C457 C461 1.393 . S
C458 H450 0.950 . S
C458 C456 1.391 . S
C458 C459 1.400 . S
C459 C458 1.400 . S
C459 C460 1.398 . S
C459 C465 1.491 . S
C460 H451 0.950 . S
C460 C459 1.398 . S
C460 C461 1.391 . S
C461 H449 0.950 . S
C461 C457 1.393 . S
C461 C460 1.391 . S
C462 H452 0.950 1_545 S
C462 C463 1.386 . S
C462 C464 1.391 . S
C463 C462 1.386 . S
C463 C467 1.393 . S
C464 H453 0.950 . S
C464 C462 1.391 . S
C464 C465 1.400 . S
C465 C459 1.491 . S
C465 C464 1.400 . S
C465 C466 1.398 . S
C466 H454 0.950 . S
C466 C465 1.398 . S
C466 C467 1.391 . S
C467 H455 0.950 . S
C467 C463 1.393 . S
C467 C466 1.391 . S
H468 C476 0.950 . S
H469 C481 0.950 . S
H470 C478 0.950 . S
H471 C480 0.950 . S
H472 C482 0.950 . S
H473 C484 0.950 . S
H474 C486 0.950 . S
H475 C487 0.950 . S
C476 H468 0.950 . S
C476 C477 1.386 . S
C476 C478 1.391 . S
C477 C476 1.386 . S
C477 C481 1.393 . S
C478 H470 0.950 . S
C478 C476 1.391 . S
C478 C479 1.400 . S
C479 C478 1.400 . S
C479 C480 1.398 . S
C479 C485 1.491 . S
C480 H471 0.950 . S
C480 C479 1.398 . S
C480 C481 1.391 . S
C481 H469 0.950 . S
C481 C477 1.393 . S
C481 C480 1.391 . S
C482 H472 0.950 . S
C482 C483 1.386 . S
C482 C484 1.391 . S
C483 C482 1.386 . S
C483 C487 1.393 . S
C484 H473 0.950 . S
C484 C482 1.391 . S
C484 C485 1.400 . S
C485 C479 1.491 . S
C485 C484 1.400 . S
C485 C486 1.398 . S
C486 H474 0.950 . S
C486 C485 1.398 . S
C486 C487 1.391 . S
C487 H475 0.950 . S
C487 C483 1.393 . S
C487 C486 1.391 . S
H488 C496 0.950 . S
H489 C501 0.950 . S
H490 C498 0.950 . S
H491 C500 0.950 . S
H492 C502 0.950 . S
H493 C504 0.950 . S
H494 C506 0.950 . S
H495 C507 0.950 . S
C496 H488 0.950 . S
C496 C497 1.386 . S
C496 C498 1.391 . S
C497 C496 1.386 . S
C497 C501 1.393 . S
C498 H490 0.950 . S
C498 C496 1.391 . S
C498 C499 1.400 . S
C499 C498 1.400 . S
C499 C500 1.398 . S
C499 C505 1.491 . S
C500 H491 0.950 . S
C500 C499 1.398 . S
C500 C501 1.391 . S
C501 H489 0.950 . S
C501 C497 1.393 . S
C501 C500 1.391 . S
C502 H492 0.950 . S
C502 C503 1.386 . S
C502 C504 1.391 . S
C503 C502 1.386 . S
C503 C507 1.393 . S
C504 H493 0.950 . S
C504 C502 1.391 . S
C504 C505 1.400 . S
C505 C499 1.491 . S
C505 C504 1.400 . S
C505 C506 1.398 . S
C506 H494 0.950 . S
C506 C505 1.398 . S
C506 C507 1.391 . S
C507 H495 0.950 . S
C507 C503 1.393 . S
C507 C506 1.391 . S
H508 C516 0.950 . S
H509 C521 0.950 . S
H510 C518 0.950 . S
H511 C520 0.950 . S
H512 C522 0.950 . S
H513 C524 0.950 . S
H514 C526 0.950 . S
H515 C527 0.950 . S
C516 H508 0.950 . S
C516 C517 1.386 . S
C516 C518 1.391 . S
C517 C516 1.386 . S
C517 C521 1.393 . S
C518 H510 0.950 . S
C518 C516 1.391 . S
C518 C519 1.400 . S
C519 C518 1.400 . S
C519 C520 1.398 . S
C519 C525 1.491 . S
C520 H511 0.950 . S
C520 C519 1.398 . S
C520 C521 1.391 . S
C521 H509 0.950 . S
C521 C517 1.393 . S
C521 C520 1.391 . S
C522 H512 0.950 . S
C522 C523 1.386 . S
C522 C524 1.391 . S
C523 C522 1.386 . S
C523 C527 1.393 . S
C524 H513 0.950 . S
C524 C522 1.391 . S
C524 C525 1.400 . S
C525 C519 1.491 . S
C525 C524 1.400 . S
C525 C526 1.398 . S
C526 H514 0.950 . S
C526 C525 1.398 . S
C526 C527 1.391 . S
C527 H515 0.950 . S
C527 C523 1.393 . S
C527 C526 1.391 . S
H528 C536 0.950 . S
H529 C541 0.950 . S
H530 C538 0.950 . S
H531 C540 0.950 . S
H532 C542 0.950 . S
H533 C544 0.950 . S
H534 C546 0.950 . S
H535 C547 0.950 1_565 S
C536 H528 0.950 . S
C536 C537 1.386 . S
C536 C538 1.391 . S
C537 C536 1.386 . S
C537 C541 1.393 . S
C538 H530 0.950 . S
C538 C536 1.391 . S
C538 C539 1.400 . S
C539 C538 1.400 . S
C539 C540 1.398 . S
C539 C545 1.491 . S
C540 H531 0.950 . S
C540 C539 1.398 . S
C540 C541 1.391 . S
C541 H529 0.950 . S
C541 C537 1.393 . S
C541 C540 1.391 . S
C542 H532 0.950 . S
C542 C543 1.386 . S
C542 C544 1.391 . S
C543 C542 1.386 . S
C543 C547 1.393 . S
C544 H533 0.950 . S
C544 C542 1.391 . S
C544 C545 1.400 . S
C545 C539 1.491 . S
C545 C544 1.400 . S
C545 C546 1.398 . S
C546 H534 0.950 . S
C546 C545 1.398 . S
C546 C547 1.391 . S
C547 H535 0.950 1_545 S
C547 C543 1.393 . S
C547 C546 1.391 . S
H548 C556 0.950 . S
H549 C561 0.950 . S
H550 C558 0.950 . S
H551 C560 0.950 . S
H552 C562 0.950 . S
H553 C564 0.950 . S
H554 C566 0.950 . S
H555 C567 0.950 . S
C556 H548 0.950 . S
C556 C557 1.386 . S
C556 C558 1.391 . S
C557 C556 1.386 . S
C557 C561 1.393 . S
C558 H550 0.950 . S
C558 C556 1.391 . S
C558 C559 1.400 . S
C559 C558 1.400 . S
C559 C560 1.398 . S
C559 C565 1.491 . S
C560 H551 0.950 . S
C560 C559 1.398 . S
C560 C561 1.391 . S
C561 H549 0.950 . S
C561 C557 1.393 . S
C561 C560 1.391 . S
C562 H552 0.950 . S
C562 C563 1.386 . S
C562 C564 1.391 . S
C563 C562 1.386 . S
C563 C567 1.393 . S
C564 H553 0.950 . S
C564 C562 1.391 . S
C564 C565 1.400 . S
C565 C559 1.491 . S
C565 C564 1.400 . S
C565 C566 1.398 . S
C566 H554 0.950 . S
C566 C565 1.398 . S
C566 C567 1.391 . S
C567 H555 0.950 . S
C567 C563 1.393 . S
C567 C566 1.391 . S
H568 C576 0.950 . S
H569 C581 0.950 . S
H570 C578 0.973 . S
H571 C580 0.950 . S
H572 C582 0.950 . S
H573 C584 0.950 . S
H574 C586 0.950 1_554 S
H575 C587 0.940 1_554 S
C576 H568 0.950 . S
C576 C577 1.386 . S
C576 C578 1.391 . S
C577 C576 1.386 . S
C577 C581 1.393 . S
C578 H570 0.973 . S
C578 C576 1.391 . S
C578 C579 1.400 . S
C579 C578 1.400 . S
C579 C580 1.398 . S
C579 C585 1.491 . S
C580 H571 0.950 . S
C580 C579 1.398 . S
C580 C581 1.391 . S
C581 H569 0.950 . S
C581 C577 1.393 . S
C581 C580 1.391 . S
C582 H572 0.950 . S
C582 C583 1.386 . S
C582 C584 1.391 . S
C583 C582 1.386 . S
C583 C587 1.400 . S
C584 H573 0.950 . S
C584 C582 1.391 . S
C584 C585 1.400 . S
C585 C579 1.491 . S
C585 C584 1.400 . S
C585 C586 1.398 . S
C586 H574 0.950 1_556 S
C586 C585 1.398 . S
C586 C587 1.393 . S
C587 H575 0.940 1_556 S
C587 C583 1.400 . S
C587 C586 1.393 . S
H588 C596 0.950 . S
H589 C601 0.950 . S
H590 C598 0.950 . S
H591 C600 0.950 . S
H592 C602 0.950 . S
H593 C604 0.950 . S
H594 C606 0.950 . S
H595 C607 0.950 . S
C596 H588 0.950 . S
C596 C597 1.386 . S
C596 C598 1.391 . S
C597 C596 1.386 . S
C597 C601 1.393 . S
C598 H590 0.950 . S
C598 C596 1.391 . S
C598 C599 1.400 . S
C599 C598 1.400 . S
C599 C600 1.398 . S
C599 C605 1.491 . S
C600 H591 0.950 . S
C600 C599 1.398 . S
C600 C601 1.391 . S
C601 H589 0.950 . S
C601 C597 1.393 . S
C601 C600 1.391 . S
C602 H592 0.950 . S
C602 C603 1.386 . S
C602 C604 1.391 . S
C603 C602 1.386 . S
C603 C607 1.393 . S
C604 H593 0.950 . S
C604 C602 1.391 . S
C604 C605 1.400 . S
C605 C599 1.491 . S
C605 C604 1.400 . S
C605 C606 1.398 . S
C606 H594 0.950 . S
C606 C605 1.398 . S
C606 C607 1.391 . S
C607 H595 0.950 . S
C607 C603 1.393 . S
C607 C606 1.391 . S
H608 C616 0.950 . S
H609 C621 0.950 . S
H610 C618 0.950 . S
H611 C620 0.950 . S
H612 C622 0.950 1_655 S
H613 C624 0.950 . S
H614 C626 0.950 . S
H615 C627 0.950 . S
C616 H608 0.950 . S
C616 C617 1.386 . S
C616 C618 1.391 . S
C617 C616 1.386 . S
C617 C621 1.393 . S
C618 H610 0.950 . S
C618 C616 1.391 . S
C618 C619 1.400 . S
C619 C618 1.400 . S
C619 C620 1.398 . S
C619 C625 1.491 . S
C620 H611 0.950 . S
C620 C619 1.398 . S
C620 C621 1.391 . S
C621 H609 0.950 . S
C621 C617 1.393 . S
C621 C620 1.391 . S
C622 H612 0.950 1_455 S
C622 C623 1.386 . S
C622 C624 1.391 . S
C623 C622 1.386 . S
C623 C627 1.393 . S
C624 H613 0.950 . S
C624 C622 1.391 . S
C624 C625 1.400 . S
C625 C619 1.491 . S
C625 C624 1.400 . S
C625 C626 1.398 . S
C626 H614 0.950 . S
C626 C625 1.398 . S
C626 C627 1.391 . S
C627 H615 0.950 . S
C627 C623 1.393 . S
C627 C626 1.391 . S
H628 C636 0.950 . S
H629 C641 0.950 . S
H630 C638 0.950 . S
H631 C640 0.950 . S
H632 C642 0.950 . S
H633 C644 0.950 . S
H634 C646 0.950 . S
H635 C647 0.950 . S
C636 H628 0.950 . S
C636 C637 1.386 . S
C636 C638 1.391 . S
C637 C636 1.386 . S
C637 C641 1.393 . S
C638 H630 0.950 . S
C638 C636 1.391 . S
C638 C639 1.400 . S
C639 C638 1.400 . S
C639 C640 1.398 . S
C639 C645 1.491 . S
C640 H631 0.950 . S
C640 C639 1.398 . S
C640 C641 1.391 . S
C641 H629 0.950 . S
C641 C637 1.393 . S
C641 C640 1.391 . S
C642 H632 0.950 . S
C642 C643 1.386 . S
C642 C644 1.391 . S
C643 C642 1.386 . S
C643 C647 1.393 . S
C644 H633 0.950 . S
C644 C642 1.391 . S
C644 C645 1.400 . S
C645 C639 1.491 . S
C645 C644 1.400 . S
C645 C646 1.398 . S
C646 H634 0.950 . S
C646 C645 1.398 . S
C646 C647 1.391 . S
C647 H635 0.950 . S
C647 C643 1.393 . S
C647 C646 1.391 . S
H648 C656 0.950 . S
H649 C661 0.950 . S
H650 C658 0.950 . S
H651 C660 0.950 . S
H652 C662 0.950 . S
H653 C664 0.950 . S
H654 C666 0.950 . S
H655 C667 0.922 1_455 S
C656 H648 0.950 . S
C656 C657 1.386 . S
C656 C658 1.391 . S
C657 C656 1.386 . S
C657 C661 1.393 . S
C658 H650 0.950 . S
C658 C656 1.391 . S
C658 C659 1.400 . S
C659 C658 1.400 . S
C659 C660 1.398 . S
C659 C665 1.491 . S
C660 H651 0.950 . S
C660 C659 1.398 . S
C660 C661 1.391 . S
C661 H649 0.950 . S
C661 C657 1.393 . S
C661 C660 1.391 . S
C662 H652 0.950 . S
C662 C663 1.386 . S
C662 C664 1.391 . S
C663 C662 1.386 . S
C663 C667 1.393 . S
C664 H653 0.950 . S
C664 C662 1.391 . S
C664 C665 1.400 . S
C665 C659 1.491 . S
C665 C664 1.400 . S
C665 C666 1.398 . S
C666 H654 0.950 . S
C666 C665 1.398 . S
C666 C667 1.391 . S
C667 H655 0.922 1_655 S
C667 C663 1.393 . S
C667 C666 1.391 . S
H668 C676 0.950 . S
H669 C681 0.950 . S
H670 C678 0.950 . S
H671 C680 0.950 . S
H672 C682 0.950 . S
H673 C684 0.950 . S
H674 C686 0.950 . S
H675 C687 0.950 . S
C676 H668 0.950 . S
C676 C677 1.386 . S
C676 C678 1.391 . S
C677 C676 1.386 . S
C677 C681 1.393 . S
C678 H670 0.950 . S
C678 C676 1.391 . S
C678 C679 1.400 . S
C679 C678 1.400 . S
C679 C680 1.398 . S
C679 C685 1.491 . S
C680 H671 0.950 . S
C680 C679 1.398 . S
C680 C681 1.391 . S
C681 H669 0.950 . S
C681 C677 1.393 . S
C681 C680 1.391 . S
C682 H672 0.950 . S
C682 C683 1.386 . S
C682 C684 1.391 . S
C683 C682 1.386 . S
C683 C687 1.393 . S
C684 H673 0.950 . S
C684 C682 1.391 . S
C684 C685 1.400 . S
C685 C679 1.491 . S
C685 C684 1.400 . S
C685 C686 1.398 . S
C686 H674 0.950 . S
C686 C685 1.398 . S
C686 C687 1.391 . S
C687 H675 0.950 . S
C687 C683 1.393 . S
C687 C686 1.391 . S
H688 C696 0.950 . S
H689 C701 0.950 . S
H690 C698 0.950 . S
H691 C700 0.950 . S
H692 C702 0.950 1_545 S
H693 C704 0.950 . S
H694 C706 0.950 1_455 S
H695 C707 0.950 1_455 S
C696 H688 0.950 . S
C696 C697 1.386 . S
C696 C698 1.391 . S
C697 C696 1.386 . S
C697 C701 1.393 . S
C698 H690 0.950 . S
C698 C696 1.391 . S
C698 C699 1.400 . S
C699 C698 1.400 . S
C699 C700 1.398 . S
C699 C705 1.491 . S
C700 H691 0.950 . S
C700 C699 1.398 . S
C700 C701 1.391 . S
C701 H689 0.950 . S
C701 C697 1.393 . S
C701 C700 1.391 . S
C702 H692 0.950 1_565 S
C702 C703 1.386 . S
C702 C704 1.391 . S
C703 C702 1.386 . S
C703 C707 1.393 . S
C704 H693 0.950 . S
C704 C702 1.391 . S
C704 C705 1.400 . S
C705 C699 1.491 . S
C705 C704 1.400 . S
C705 C706 1.398 . S
C706 H694 0.950 1_655 S
C706 C705 1.398 . S
C706 C707 1.391 . S
C707 H695 0.950 1_655 S
C707 C703 1.393 . S
C707 C706 1.391 . S
H708 C716 0.950 . S
H709 C721 0.950 . S
H710 C718 0.950 . S
H711 C720 0.950 . S
H712 C722 0.950 . S
H713 C724 0.950 . S
H714 C726 0.950 . S
H715 C727 0.950 . S
C716 H708 0.950 . S
C716 C717 1.386 . S
C716 C718 1.391 . S
C717 C716 1.386 . S
C717 C721 1.393 . S
C718 H710 0.950 . S
C718 C716 1.391 . S
C718 C719 1.400 . S
C719 C718 1.400 . S
C719 C720 1.398 . S
C719 C725 1.491 . S
C720 H711 0.950 . S
C720 C719 1.398 . S
C720 C721 1.391 . S
C721 H709 0.950 . S
C721 C717 1.393 . S
C721 C720 1.391 . S
C722 H712 0.950 . S
C722 C723 1.386 . S
C722 C724 1.391 . S
C723 C722 1.386 . S
C723 C727 1.393 . S
C724 H713 0.950 . S
C724 C722 1.391 . S
C724 C725 1.400 . S
C725 C719 1.491 . S
C725 C724 1.400 . S
C725 C726 1.398 . S
C726 H714 0.950 . S
C726 C725 1.398 . S
C726 C727 1.391 . S
C727 H715 0.950 . S
C727 C723 1.393 . S
C727 C726 1.391 . S
H728 C736 0.950 . S
H729 C741 0.950 . S
H730 C738 0.950 . S
H731 C740 0.950 . S
H732 C742 0.950 . S
H733 C744 0.950 . S
H734 C746 0.950 . S
H735 C747 0.950 . S
C736 H728 0.950 . S
C736 C737 1.386 . S
C736 C738 1.391 . S
C737 C736 1.386 . S
C737 C741 1.393 . S
C738 H730 0.950 . S
C738 C736 1.391 . S
C738 C739 1.400 . S
C739 C738 1.400 . S
C739 C740 1.398 . S
C739 C745 1.491 . S
C740 H731 0.950 . S
C740 C739 1.398 . S
C740 C741 1.391 . S
C741 H729 0.950 . S
C741 C737 1.393 . S
C741 C740 1.391 . S
C742 H732 0.950 . S
C742 C743 1.386 . S
C742 C744 1.391 . S
C743 C742 1.386 . S
C743 C747 1.393 . S
C744 H733 0.950 . S
C744 C742 1.391 . S
C744 C745 1.400 . S
C745 C739 1.491 . S
C745 C744 1.400 . S
C745 C746 1.398 . S
C746 H734 0.950 . S
C746 C745 1.398 . S
C746 C747 1.391 . S
C747 H735 0.950 . S
C747 C743 1.393 . S
C747 C746 1.391 . S
H748 C756 0.950 . S
H749 C761 0.950 . S
H750 C758 0.950 . S
H751 C760 0.950 . S
H752 C762 0.950 . S
H753 C764 0.950 . S
H754 C766 0.950 . S
H755 C767 0.950 . S
C756 H748 0.950 . S
C756 C757 1.386 . S
C756 C758 1.391 . S
C757 C756 1.386 . S
C757 C761 1.393 . S
C758 H750 0.950 . S
C758 C756 1.391 . S
C758 C759 1.400 . S
C759 C758 1.400 . S
C759 C760 1.398 . S
C759 C765 1.491 . S
C760 H751 0.950 . S
C760 C759 1.398 . S
C760 C761 1.391 . S
C761 H749 0.950 . S
C761 C757 1.393 . S
C761 C760 1.391 . S
C762 H752 0.950 . S
C762 C763 1.386 . S
C762 C764 1.391 . S
C763 C762 1.386 . S
C763 C767 1.393 . S
C764 H753 0.950 . S
C764 C762 1.391 . S
C764 C765 1.400 . S
C765 C759 1.491 . S
C765 C764 1.400 . S
C765 C766 1.398 . S
C766 H754 0.950 . S
C766 C765 1.398 . S
C766 C767 1.391 . S
C767 H755 0.950 . S
C767 C763 1.393 . S
C767 C766 1.391 . S
H768 C776 0.950 . S
H769 C781 0.950 . S
H770 C778 0.950 . S
H771 C780 0.950 . S
H772 C782 0.950 1_545 S
H773 C784 0.950 1_545 S
H774 C786 0.950 . S
H775 C787 0.950 . S
C776 H768 0.950 . S
C776 C777 1.386 . S
C776 C778 1.391 . S
C777 C776 1.386 . S
C777 C781 1.393 . S
C778 H770 0.950 . S
C778 C776 1.391 . S
C778 C779 1.400 . S
C779 C778 1.400 . S
C779 C780 1.398 . S
C779 C785 1.491 . S
C780 H771 0.950 . S
C780 C779 1.398 . S
C780 C781 1.391 . S
C781 H769 0.950 . S
C781 C777 1.393 . S
C781 C780 1.391 . S
C782 H772 0.950 1_565 S
C782 C783 1.386 . S
C782 C784 1.391 . S
C783 C782 1.386 . S
C783 C787 1.393 . S
C784 H773 0.950 1_565 S
C784 C782 1.391 . S
C784 C785 1.400 . S
C785 C779 1.491 . S
C785 C784 1.400 . S
C785 C786 1.398 . S
C786 H774 0.950 . S
C786 C785 1.398 . S
C786 C787 1.391 . S
C787 H775 0.950 . S
C787 C783 1.393 . S
C787 C786 1.391 . S
H788 C796 0.950 . S
H789 C801 0.950 . S
H790 C798 0.950 . S
H791 C800 0.950 . S
H792 C802 0.950 . S
H793 C804 0.950 . S
H794 C806 0.950 . S
H795 C807 0.950 . S
C796 H788 0.950 . S
C796 C797 1.386 . S
C796 C798 1.391 . S
C797 C796 1.386 . S
C797 C801 1.393 . S
C798 H790 0.950 . S
C798 C796 1.391 . S
C798 C799 1.400 . S
C799 C798 1.400 . S
C799 C800 1.398 . S
C799 C805 1.491 . S
C800 H791 0.950 . S
C800 C799 1.398 . S
C800 C801 1.391 . S
C801 H789 0.950 . S
C801 C797 1.393 . S
C801 C800 1.391 . S
C802 H792 0.950 . S
C802 C803 1.386 . S
C802 C804 1.391 . S
C803 C802 1.386 . S
C803 C807 1.393 . S
C804 H793 0.950 . S
C804 C802 1.391 . S
C804 C805 1.400 . S
C805 C799 1.491 . S
C805 C804 1.400 . S
C805 C806 1.398 . S
C806 H794 0.950 . S
C806 C805 1.398 . S
C806 C807 1.391 . S
C807 H795 0.950 . S
C807 C803 1.393 . S
C807 C806 1.391 . S
H808 C816 0.950 . S
H809 C821 0.950 . S
H810 C818 0.950 . S
H811 C820 0.950 . S
H812 C822 0.950 . S
H813 C824 0.950 . S
H814 C826 0.950 . S
H815 C827 0.950 . S
C816 H808 0.950 . S
C816 C817 1.386 . S
C816 C818 1.391 . S
C817 C816 1.386 . S
C817 C821 1.393 . S
C818 H810 0.950 . S
C818 C816 1.391 . S
C818 C819 1.400 . S
C819 C818 1.400 . S
C819 C820 1.398 . S
C819 C825 1.491 . S
C820 H811 0.950 . S
C820 C819 1.398 . S
C820 C821 1.391 . S
C821 H809 0.950 . S
C821 C817 1.393 . S
C821 C820 1.391 . S
C822 H812 0.950 . S
C822 C823 1.386 . S
C822 C824 1.391 . S
C823 C822 1.386 . S
C823 C827 1.393 . S
C824 H813 0.950 . S
C824 C822 1.391 . S
C824 C825 1.400 . S
C825 C819 1.491 . S
C825 C824 1.400 . S
C825 C826 1.398 . S
C826 H814 0.950 . S
C826 C825 1.398 . S
C826 C827 1.391 . S
C827 H815 0.950 . S
C827 C823 1.393 . S
C827 C826 1.391 . S
H828 C836 0.950 . S
H829 C841 0.950 . S
H830 C838 0.950 . S
H831 C840 0.950 . S
H832 C842 0.950 . S
H833 C844 0.950 . S
H834 C846 0.950 . S
H835 C847 0.950 . S
C836 H828 0.950 . S
C836 C837 1.386 . S
C836 C838 1.391 . S
C837 C836 1.386 . S
C837 C841 1.393 . S
C838 H830 0.950 . S
C838 C836 1.391 . S
C838 C839 1.400 . S
C839 C838 1.400 . S
C839 C840 1.398 . S
C839 C845 1.491 . S
C840 H831 0.950 . S
C840 C839 1.398 . S
C840 C841 1.391 . S
C841 H829 0.950 . S
C841 C837 1.393 . S
C841 C840 1.391 . S
C842 H832 0.950 . S
C842 C843 1.386 . S
C842 C844 1.391 . S
C843 C842 1.386 . S
C843 C847 1.393 . S
C844 H833 0.950 . S
C844 C842 1.391 . S
C844 C845 1.400 . S
C845 C839 1.491 . S
C845 C844 1.400 . S
C845 C846 1.398 . S
C846 H834 0.950 . S
C846 C845 1.398 . S
C846 C847 1.391 . S
C847 H835 0.950 . S
C847 C843 1.393 . S
C847 C846 1.391 . S
H848 C856 0.950 . S
H849 C861 0.950 . S
H850 C858 0.950 . S
H851 C860 0.950 . S
H852 C862 0.950 . S
H853 C864 0.950 . S
H854 C866 0.979 . S
H855 C867 0.950 1_554 S
C856 H848 0.950 . S
C856 C857 1.386 . S
C856 C858 1.391 . S
C857 C856 1.386 . S
C857 C861 1.393 . S
C858 H850 0.950 . S
C858 C856 1.391 . S
C858 C859 1.400 . S
C859 C858 1.400 . S
C859 C860 1.398 . S
C859 C865 1.491 . S
C860 H851 0.950 . S
C860 C859 1.398 . S
C860 C861 1.391 . S
C861 H849 0.950 . S
C861 C857 1.393 . S
C861 C860 1.391 . S
C862 H852 0.950 . S
C862 C863 1.386 . S
C862 C864 1.391 . S
C863 C862 1.386 . S
C863 C867 1.393 . S
C864 H853 0.950 . S
C864 C862 1.391 . S
C864 C865 1.400 . S
C865 C859 1.491 . S
C865 C864 1.400 . S
C865 C866 1.398 . S
C866 H854 0.979 . S
C866 C865 1.398 . S
C866 C867 1.391 . S
C867 H855 0.950 1_556 S
C867 C863 1.393 . S
C867 C866 1.391 . S
H868 C876 0.950 . S
H869 C881 0.950 . S
H870 C878 0.950 . S
H871 C880 0.950 . S
H872 C882 0.950 . S
H873 C884 0.950 . S
H874 C886 0.950 . S
H875 C887 0.950 . S
C876 H868 0.950 . S
C876 C877 1.386 . S
C876 C878 1.391 . S
C877 C876 1.386 . S
C877 C881 1.393 . S
C878 H870 0.950 . S
C878 C876 1.391 . S
C878 C879 1.400 . S
C879 C878 1.400 . S
C879 C880 1.398 . S
C879 C885 1.491 . S
C880 H871 0.950 . S
C880 C879 1.398 . S
C880 C881 1.391 . S
C881 H869 0.950 . S
C881 C877 1.393 . S
C881 C880 1.391 . S
C882 H872 0.950 . S
C882 C883 1.386 . S
C882 C884 1.391 . S
C883 C882 1.386 . S
C883 C887 1.393 . S
C884 H873 0.950 . S
C884 C882 1.391 . S
C884 C885 1.400 . S
C885 C879 1.491 . S
C885 C884 1.400 . S
C885 C886 1.398 . S
C886 H874 0.950 . S
C886 C885 1.398 . S
C886 C887 1.391 . S
C887 H875 0.950 . S
C887 C883 1.393 . S
C887 C886 1.391 . S
H888 C896 0.950 . S
H889 C901 0.950 . S
H890 C898 0.950 . S
H891 C900 0.950 . S
H892 C902 0.950 . S
H893 C904 0.950 . S
H894 C906 0.950 . S
H895 C907 0.950 . S
C896 H888 0.950 . S
C896 C897 1.386 . S
C896 C898 1.391 . S
C897 C896 1.386 . S
C897 C901 1.393 . S
C898 H890 0.950 . S
C898 C896 1.391 . S
C898 C899 1.400 . S
C899 C898 1.400 . S
C899 C900 1.398 . S
C899 C905 1.491 . S
C900 H891 0.950 . S
C900 C899 1.398 . S
C900 C901 1.391 . S
C901 H889 0.950 . S
C901 C897 1.393 . S
C901 C900 1.391 . S
C902 H892 0.950 . S
C902 C903 1.386 . S
C902 C904 1.391 . S
C903 C902 1.386 . S
C903 C907 1.393 . S
C904 H893 0.950 . S
C904 C902 1.391 . S
C904 C905 1.400 . S
C905 C899 1.491 . S
C905 C904 1.400 . S
C905 C906 1.398 . S
C906 H894 0.950 . S
C906 C905 1.398 . S
C906 C907 1.391 . S
C907 H895 0.950 . S
C907 C903 1.393 . S
C907 C906 1.391 . S
H908 C916 0.950 . S
H909 C921 0.950 . S
H910 C918 0.950 . S
H911 C920 0.950 . S
H912 C922 0.950 . S
H913 C924 0.950 . S
H914 C926 0.950 . S
H915 C927 0.950 . S
C916 H908 0.950 . S
C916 C917 1.386 . S
C916 C918 1.391 . S
C917 C916 1.386 . S
C917 C921 1.393 . S
C918 H910 0.950 . S
C918 C916 1.391 . S
C918 C919 1.400 . S
C919 C918 1.400 . S
C919 C920 1.398 . S
C919 C925 1.491 . S
C920 H911 0.950 . S
C920 C919 1.398 . S
C920 C921 1.391 . S
C921 H909 0.950 . S
C921 C917 1.393 . S
C921 C920 1.391 . S
C922 H912 0.950 . S
C922 C923 1.386 . S
C922 C924 1.391 . S
C923 C922 1.386 . S
C923 C927 1.393 . S
C924 H913 0.950 . S
C924 C922 1.391 . S
C924 C925 1.400 . S
C925 C919 1.491 . S
C925 C924 1.400 . S
C925 C926 1.398 . S
C926 H914 0.950 . S
C926 C925 1.398 . S
C926 C927 1.391 . S
C927 H915 0.950 . S
C927 C923 1.393 . S
C927 C926 1.391 . S
C457 C1 2.338 . S
C463 C312 2.351 . S
C477 C40 2.283 . S
C483 C354 2.302 . S
C503 C384 1.015 . S
C497 C99 1.011 . S
C517 C118 1.064 . S
C523 C418 1.072 . S
C543 C375 1.890 . S
C537 C16 1.875 . S
C563 C329 1.871 . S
C557 C60 1.850 . S
C583 C422 1.393 . S
C577 C79 1.368 . S
C603 C388 1.412 . S
C597 C138 1.387 . S
C617 C21 2.218 . S
C623 C443 2.228 . S
C643 C350 1.176 . S
C637 C94 1.169 . S
C657 C133 1.120 . S
C663 C325 1.145 . S
C677 C55 2.192 . S
C683 C409 2.203 . S
C703 C341 2.353 . S
C697 C157 2.331 . S
C717 C196 2.284 . S
C723 C363 2.300 . S
C737 C255 0.996 . S
C743 C393 1.007 . S
C757 C289 1.075 . S
C763 C427 1.078 . S
C777 C172 1.875 . S
C783 C346 1.888 . S
C803 C320 1.874 . S
C797 C216 1.864 . S
C823 C431 1.402 . S
C817 C235 1.383 . S
C843 C397 1.412 . S
C837 C294 1.386 . S
C857 C177 2.202 . S
C863 C414 2.226 . S
C883 C359 1.160 . S
C877 C250 1.149 . S
C903 C316 1.154 . S
C897 C274 1.139 . S
C917 C211 2.178 . S
C923 C380 2.195 . S
