# Generated by pormake.
# Topology eea, (3,6)-cn, num edge types: 1
# Building blocks:
#     Node 0, Type 0, BuildingBlock: ESEHIV_clean_linker_0, # of connection points: 3
#     Node 1, Type 0, BuildingBlock: ESEHIV_clean_linker_0, # of connection points: 3
#     Node 2, Type 0, BuildingBlock: ESEHIV_clean_linker_0, # of connection points: 3
#     Node 3, Type 0, BuildingBlock: ESEHIV_clean_linker_0, # of connection points: 3
#     Node 4, Type 0, BuildingBlock: ESEHIV_clean_linker_0, # of connection points: 3
#     Node 5, Type 0, BuildingBlock: ESEHIV_clean_linker_0, # of connection points: 3
#     Node 6, Type 0, BuildingBlock: ESEHIV_clean_linker_0, # of connection points: 3
#     Node 7, Type 0, BuildingBlock: ESEHIV_clean_linker_0, # of connection points: 3
#     Node 8, Type 0, BuildingBlock: ESEHIV_clean_linker_0, # of connection points: 3
#     Node 9, Type 0, BuildingBlock: ESEHIV_clean_linker_0, # of connection points: 3
#     Node 10, Type 0, BuildingBlock: ESEHIV_clean_linker_0, # of connection points: 3
#     Node 11, Type 0, BuildingBlock: ESEHIV_clean_linker_0, # of connection points: 3
#     Node 12, Type 0, BuildingBlock: ESEHIV_clean_linker_0, # of connection points: 3
#     Node 13, Type 0, BuildingBlock: ESEHIV_clean_linker_0, # of connection points: 3
#     Node 14, Type 0, BuildingBlock: ESEHIV_clean_linker_0, # of connection points: 3
#     Node 15, Type 0, BuildingBlock: ESEHIV_clean_linker_0, # of connection points: 3
#     Node 16, Type 0, BuildingBlock: ESEHIV_clean_linker_0, # of connection points: 3
#     Node 17, Type 0, BuildingBlock: ESEHIV_clean_linker_0, # of connection points: 3
#     Node 18, Type 1, BuildingBlock: CUWYAW_clean_sbu_0, # of connection points: 6
#     Node 19, Type 1, BuildingBlock: CUWYAW_clean_sbu_0, # of connection points: 6
#     Node 20, Type 1, BuildingBlock: CUWYAW_clean_sbu_0, # of connection points: 6
#     Node 21, Type 1, BuildingBlock: CUWYAW_clean_sbu_0, # of connection points: 6
#     Node 22, Type 1, BuildingBlock: CUWYAW_clean_sbu_0, # of connection points: 6
#     Node 23, Type 1, BuildingBlock: CUWYAW_clean_sbu_0, # of connection points: 6
#     Node 24, Type 1, BuildingBlock: CUWYAW_clean_sbu_0, # of connection points: 6
#     Node 25, Type 1, BuildingBlock: CUWYAW_clean_sbu_0, # of connection points: 6
#     Node 26, Type 1, BuildingBlock: CUWYAW_clean_sbu_0, # of connection points: 6
#     Edge 27, Type (0, 1), BuildingBlock: MIFKUJ_clean_linker_0, # of connection points: 2
#     Edge 28, Type (0, 1), BuildingBlock: MIFKUJ_clean_linker_0, # of connection points: 2
#     Edge 29, Type (0, 1), BuildingBlock: MIFKUJ_clean_linker_0, # of connection points: 2
#     Edge 30, Type (0, 1), BuildingBlock: MIFKUJ_clean_linker_0, # of connection points: 2
#     Edge 31, Type (0, 1), BuildingBlock: MIFKUJ_clean_linker_0, # of connection points: 2
#     Edge 32, Type (0, 1), BuildingBlock: MIFKUJ_clean_linker_0, # of connection points: 2
#     Edge 33, Type (0, 1), BuildingBlock: MIFKUJ_clean_linker_0, # of connection points: 2
#     Edge 34, Type (0, 1), BuildingBlock: MIFKUJ_clean_linker_0, # of connection points: 2
#     Edge 35, Type (0, 1), BuildingBlock: MIFKUJ_clean_linker_0, # of connection points: 2
#     Edge 36, Type (0, 1), BuildingBlock: MIFKUJ_clean_linker_0, # of connection points: 2
#     Edge 37, Type (0, 1), BuildingBlock: MIFKUJ_clean_linker_0, # of connection points: 2
#     Edge 38, Type (0, 1), BuildingBlock: MIFKUJ_clean_linker_0, # of connection points: 2
#     Edge 39, Type (0, 1), BuildingBlock: MIFKUJ_clean_linker_0, # of connection points: 2
#     Edge 40, Type (0, 1), BuildingBlock: MIFKUJ_clean_linker_0, # of connection points: 2
#     Edge 41, Type (0, 1), BuildingBlock: MIFKUJ_clean_linker_0, # of connection points: 2
#     Edge 42, Type (0, 1), BuildingBlock: MIFKUJ_clean_linker_0, # of connection points: 2
#     Edge 43, Type (0, 1), BuildingBlock: MIFKUJ_clean_linker_0, # of connection points: 2
#     Edge 44, Type (0, 1), BuildingBlock: MIFKUJ_clean_linker_0, # of connection points: 2
#     Edge 45, Type (0, 1), BuildingBlock: MIFKUJ_clean_linker_0, # of connection points: 2
#     Edge 46, Type (0, 1), BuildingBlock: MIFKUJ_clean_linker_0, # of connection points: 2
#     Edge 47, Type (0, 1), BuildingBlock: MIFKUJ_clean_linker_0, # of connection points: 2
#     Edge 48, Type (0, 1), BuildingBlock: MIFKUJ_clean_linker_0, # of connection points: 2
#     Edge 49, Type (0, 1), BuildingBlock: MIFKUJ_clean_linker_0, # of connection points: 2
#     Edge 50, Type (0, 1), BuildingBlock: MIFKUJ_clean_linker_0, # of connection points: 2
#     Edge 51, Type (0, 1), BuildingBlock: MIFKUJ_clean_linker_0, # of connection points: 2
#     Edge 52, Type (0, 1), BuildingBlock: MIFKUJ_clean_linker_0, # of connection points: 2
#     Edge 53, Type (0, 1), BuildingBlock: MIFKUJ_clean_linker_0, # of connection points: 2
#     Edge 54, Type (0, 1), BuildingBlock: MIFKUJ_clean_linker_0, # of connection points: 2
#     Edge 55, Type (0, 1), BuildingBlock: MIFKUJ_clean_linker_0, # of connection points: 2
#     Edge 56, Type (0, 1), BuildingBlock: MIFKUJ_clean_linker_0, # of connection points: 2
#     Edge 57, Type (0, 1), BuildingBlock: MIFKUJ_clean_linker_0, # of connection points: 2
#     Edge 58, Type (0, 1), BuildingBlock: MIFKUJ_clean_linker_0, # of connection points: 2
#     Edge 59, Type (0, 1), BuildingBlock: MIFKUJ_clean_linker_0, # of connection points: 2
#     Edge 60, Type (0, 1), BuildingBlock: MIFKUJ_clean_linker_0, # of connection points: 2
#     Edge 61, Type (0, 1), BuildingBlock: MIFKUJ_clean_linker_0, # of connection points: 2
#     Edge 62, Type (0, 1), BuildingBlock: MIFKUJ_clean_linker_0, # of connection points: 2
#     Edge 63, Type (0, 1), BuildingBlock: MIFKUJ_clean_linker_0, # of connection points: 2
#     Edge 64, Type (0, 1), BuildingBlock: MIFKUJ_clean_linker_0, # of connection points: 2
#     Edge 65, Type (0, 1), BuildingBlock: MIFKUJ_clean_linker_0, # of connection points: 2
#     Edge 66, Type (0, 1), BuildingBlock: MIFKUJ_clean_linker_0, # of connection points: 2
#     Edge 67, Type (0, 1), BuildingBlock: MIFKUJ_clean_linker_0, # of connection points: 2
#     Edge 68, Type (0, 1), BuildingBlock: MIFKUJ_clean_linker_0, # of connection points: 2
#     Edge 69, Type (0, 1), BuildingBlock: MIFKUJ_clean_linker_0, # of connection points: 2
#     Edge 70, Type (0, 1), BuildingBlock: MIFKUJ_clean_linker_0, # of connection points: 2
#     Edge 71, Type (0, 1), BuildingBlock: MIFKUJ_clean_linker_0, # of connection points: 2
#     Edge 72, Type (0, 1), BuildingBlock: MIFKUJ_clean_linker_0, # of connection points: 2
#     Edge 73, Type (0, 1), BuildingBlock: MIFKUJ_clean_linker_0, # of connection points: 2
#     Edge 74, Type (0, 1), BuildingBlock: MIFKUJ_clean_linker_0, # of connection points: 2
#     Edge 75, Type (0, 1), BuildingBlock: MIFKUJ_clean_linker_0, # of connection points: 2
#     Edge 76, Type (0, 1), BuildingBlock: MIFKUJ_clean_linker_0, # of connection points: 2
#     Edge 77, Type (0, 1), BuildingBlock: MIFKUJ_clean_linker_0, # of connection points: 2
#     Edge 78, Type (0, 1), BuildingBlock: MIFKUJ_clean_linker_0, # of connection points: 2
#     Edge 79, Type (0, 1), BuildingBlock: MIFKUJ_clean_linker_0, # of connection points: 2
#     Edge 80, Type (0, 1), BuildingBlock: MIFKUJ_clean_linker_0, # of connection points: 2
# Relax obj value: 0.035
# Max RMSD: 0.133
# Mean RMSD: 0.075
data_MOF--net-eea--node1-CUWYAW_clean_sbu_0--node2-ESEHIV_clean_linker_0--edge1-MIFKUJ_clean_linker_0
_symmetry_space_group_name_H-M    P1
_symmetry_Int_Tables_number       1
_symmetry_cell_setting            triclinic
loop_
_symmetry_equiv_pos_as_xyz
'x, y, z'
_cell_length_a     63.35665
_cell_length_b     63.055042
_cell_length_c     91.788814
_cell_angle_alpha  93.486607
_cell_angle_beta   93.419605
_cell_angle_gamma 119.84683
loop_
_atom_site_label
_atom_site_type_symbol
_atom_site_fract_x
_atom_site_fract_y
_atom_site_fract_z
_atom_type_partial_charge
H0 H 0.27102 0.17451 0.42795 0.0
H1 H 0.26853 0.10499 0.42691 0.0
H2 H 0.24144 0.12379 0.38875 0.0
C3 C 0.26669 0.15719 0.42203 0.0
C4 C 0.25554 0.15112 0.40752 0.0
C5 C 0.2717 0.14076 0.42906 0.0
C6 C 0.26562 0.11817 0.42138 0.0
C7 C 0.25446 0.11182 0.40691 0.0
C8 C 0.24968 0.12847 0.40003 0.0
H9 H 0.84971 0.10203 0.43131 0.0
H10 H 0.91707 0.17132 0.43481 0.0
H11 H 0.89224 0.12322 0.39458 0.0
C12 C 0.86546 0.11543 0.42639 0.0
C13 C 0.86868 0.11014 0.41189 0.0
C14 C 0.88285 0.13739 0.4348 0.0
C15 C 0.90376 0.15416 0.42851 0.0
C16 C 0.90726 0.14923 0.41398 0.0
C17 C 0.8896 0.12719 0.40576 0.0
H18 H 0.85591 0.76546 0.44238 0.0
H19 H 0.92055 0.7592 0.44295 0.0
H20 H 0.89925 0.7861 0.40608 0.0
C21 C 0.87167 0.7675 0.43721 0.0
C22 C 0.87557 0.77616 0.42335 0.0
C23 C 0.88773 0.76124 0.44437 0.0
C24 C 0.9083 0.76434 0.4376 0.0
C25 C 0.91263 0.7732 0.42372 0.0
C26 C 0.896 0.7789 0.41665 0.0
H27 H 0.0791 0.24299 0.56023 0.0
H28 H 0.14558 0.24017 0.56104 0.0
H29 H 0.10243 0.21861 0.59751 0.0
C30 C 0.09214 0.23905 0.5658 0.0
C31 C 0.08823 0.23039 0.57971 0.0
C32 C 0.11273 0.24251 0.55897 0.0
C33 C 0.12965 0.2375 0.56626 0.0
C34 C 0.12612 0.22899 0.58018 0.0
C35 C 0.10532 0.22538 0.58681 0.0
H36 H 0.72941 0.88738 0.57486 0.0
H37 H 0.7298 0.81962 0.57609 0.0
H38 H 0.76199 0.87454 0.61325 0.0
C39 C 0.73395 0.87555 0.58074 0.0
C40 C 0.74556 0.8834 0.59514 0.0
C41 C 0.7288 0.85284 0.57369 0.0
C42 C 0.73451 0.83748 0.58137 0.0
C43 C 0.74624 0.84498 0.59574 0.0
C44 C 0.75185 0.86806 0.60246 0.0
H45 H 0.08544 0.83427 0.56805 0.0
H46 H 0.15209 0.90408 0.57297 0.0
H47 H 0.10725 0.88105 0.60868 0.0
C48 C 0.09835 0.85117 0.57474 0.0
C49 C 0.09407 0.85528 0.58921 0.0
C50 C 0.11903 0.86891 0.56875 0.0
C51 C 0.13579 0.89072 0.57748 0.0
C52 C 0.13192 0.89521 0.59198 0.0
C53 C 0.11093 0.87738 0.59772 0.0
H54 H 0.93798 0.50817 0.75827 0.0
H55 H 0.93615 0.43916 0.75957 0.0
H56 H 0.90999 0.45541 0.71997 0.0
C57 C 0.93409 0.49069 0.7528 0.0
C58 C 0.92357 0.48379 0.73816 0.0
C59 C 0.93892 0.47479 0.76057 0.0
C60 C 0.93314 0.45186 0.75355 0.0
C61 C 0.92277 0.44483 0.73892 0.0
C62 C 0.9183 0.46097 0.73124 0.0
H63 H 0.52738 0.42332 0.77163 0.0
H64 H 0.59252 0.49447 0.77473 0.0
H65 H 0.56481 0.44915 0.73341 0.0
C66 C 0.54233 0.43745 0.76653 0.0
C67 C 0.54398 0.43365 0.75152 0.0
C68 C 0.5598 0.45927 0.77504 0.0
C69 C 0.57903 0.47758 0.76827 0.0
C70 C 0.581 0.47412 0.75321 0.0
C71 C 0.56338 0.45207 0.74498 0.0
H72 H 0.52842 0.10375 0.77895 0.0
H73 H 0.59344 0.09844 0.77809 0.0
H74 H 0.56842 0.12224 0.74119 0.0
C75 C 0.544 0.10605 0.77346 0.0
C76 C 0.54644 0.11347 0.75927 0.0
C77 C 0.56087 0.10057 0.78034 0.0
C78 C 0.58051 0.10282 0.77285 0.0
C79 C 0.5835 0.11061 0.75867 0.0
C80 C 0.56624 0.11582 0.75198 0.0
H81 H 0.74727 0.58124 0.89465 0.0
H82 H 0.81208 0.57574 0.89464 0.0
H83 H 0.77305 0.56151 0.93304 0.0
C84 C 0.76063 0.57787 0.90037 0.0
C85 C 0.75754 0.57061 0.91462 0.0
C86 C 0.7803 0.57973 0.89317 0.0
C87 C 0.79716 0.57461 0.90038 0.0
C88 C 0.79496 0.56819 0.91484 0.0
C89 C 0.77495 0.56615 0.92184 0.0
H90 H 0.3986 0.22609 0.90727 0.0
H91 H 0.39326 0.15567 0.90881 0.0
H92 H 0.42547 0.2097 0.94652 0.0
C93 C 0.40138 0.21327 0.91329 0.0
C94 C 0.41193 0.22022 0.92791 0.0
C95 C 0.39502 0.19017 0.90626 0.0
C96 C 0.39881 0.17374 0.91413 0.0
C97 C 0.40974 0.18048 0.92871 0.0
C98 C 0.41616 0.2038 0.93551 0.0
H99 H 0.74044 0.1665 0.89499 0.0
H100 H 0.80841 0.23497 0.89887 0.0
H101 H 0.76887 0.21125 0.93659 0.0
C102 C 0.75455 0.18267 0.90175 0.0
C103 C 0.75187 0.18666 0.91663 0.0
C104 C 0.77495 0.19996 0.89533 0.0
C105 C 0.7928 0.22147 0.90385 0.0
C106 C 0.79056 0.22577 0.9187 0.0
C107 C 0.7702 0.2082 0.92502 0.0
H108 H 0.59901 0.84209 0.09522 0.0
H109 H 0.6044 0.77669 0.09457 0.0
H110 H 0.56876 0.78852 0.05727 0.0
C111 C 0.59576 0.82502 0.08948 0.0
C112 C 0.58329 0.81731 0.0753 0.0
C113 C 0.60351 0.81052 0.09648 0.0
C114 C 0.59906 0.78831 0.08909 0.0
C115 C 0.58624 0.78016 0.07504 0.0
C116 C 0.57843 0.79472 0.0682 0.0
H117 H 0.18563 0.76261 0.10201 0.0
H118 H 0.25111 0.83346 0.10521 0.0
H119 H 0.22557 0.78644 0.06445 0.0
C120 C 0.20095 0.77647 0.09699 0.0
C121 C 0.20348 0.772 0.08223 0.0
C122 C 0.21812 0.79849 0.10541 0.0
C123 C 0.23786 0.8164 0.09879 0.0
C124 C 0.2407 0.81227 0.08398 0.0
C125 C 0.22342 0.78996 0.07582 0.0
H126 H 0.18932 0.42864 0.10854 0.0
H127 H 0.25647 0.42737 0.10923 0.0
H128 H 0.22771 0.44273 0.07006 0.0
C129 C 0.20472 0.43053 0.10301 0.0
C130 C 0.2067 0.43664 0.08851 0.0
C131 C 0.22239 0.42675 0.11045 0.0
C132 C 0.24243 0.42944 0.10328 0.0
C133 C 0.24481 0.43549 0.08871 0.0
C134 C 0.22666 0.43887 0.08141 0.0
H135 H 0.41546 0.92122 0.23016 0.0
H136 H 0.4845 0.92368 0.22982 0.0
H137 H 0.44299 0.89922 0.26676 0.0
C138 C 0.42941 0.91821 0.23539 0.0
C139 C 0.42675 0.90975 0.24937 0.0
C140 C 0.45028 0.92345 0.22829 0.0
C141 C 0.46847 0.91993 0.23529 0.0
C142 C 0.4661 0.91134 0.24919 0.0
C143 C 0.44524 0.90645 0.2562 0.0
H144 H 0.06561 0.55883 0.24382 0.0
H145 H 0.06094 0.48845 0.24333 0.0
H146 H 0.09403 0.54069 0.2817 0.0
C147 C 0.06876 0.54582 0.24935 0.0
C148 C 0.07961 0.55209 0.26392 0.0
C149 C 0.06258 0.52315 0.24171 0.0
C150 C 0.06653 0.50629 0.24901 0.0
C151 C 0.07769 0.51231 0.26351 0.0
C152 C 0.08431 0.53534 0.2708 0.0
H153 H 0.42304 0.49731 0.23425 0.0
H154 H 0.49256 0.56431 0.23984 0.0
H155 H 0.44795 0.54273 0.27564 0.0
C156 C 0.43666 0.51362 0.24114 0.0
C157 C 0.43299 0.51762 0.25581 0.0
C158 C 0.45821 0.53032 0.2354 0.0
C159 C 0.47604 0.5513 0.24433 0.0
C160 C 0.47248 0.5559 0.25886 0.0
C161 C 0.45104 0.53888 0.26455 0.0
C162 C 0.5297 0.02264 0.04252 0.0
Eu163 Eu 0.51097 0.01141 0.01521 0.0
C164 C 0.52169 0.01366 0.05673 0.0
C165 C 0.53091 0.03031 0.06942 0.0
C166 C 0.5231 0.02238 0.08299 0.0
C167 C 0.50591 0.99758 0.08414 0.0
C168 C 0.49663 0.98092 0.07134 0.0
C169 C 0.50444 0.9889 0.05774 0.0
C170 C 0.49609 0.03712 0.99935 0.0
C171 C 0.45243 0.97033 0.01291 0.0
C172 C 0.4658 0.97171 0.95798 0.0
Eu173 Eu 0.48291 0.98456 0.98555 0.0
C174 C 0.47423 0.98299 0.94437 0.0
C175 C 0.46862 0.96796 0.93119 0.0
C176 C 0.47778 0.97832 0.91833 0.0
C177 C 0.49265 0.00394 0.91845 0.0
C178 C 0.49811 0.01898 0.93168 0.0
C179 C 0.48909 0.00858 0.94455 0.0
C180 C 0.49802 0.95961 0.00199 0.0
C181 C 0.54066 0.02717 0.9876 0.0
O182 O 0.53277 0.00808 0.03321 0.0
O183 O 0.51873 0.03315 0.03627 0.0
O184 O 0.51613 0.04717 0.00817 0.0
O185 O 0.48381 0.01424 1.00015 0.0
O186 O 0.47386 0.98205 0.02098 0.0
O187 O 0.45055 0.97087 0.99855 0.0
O188 O 0.45856 0.9829 0.96715 0.0
O189 O 0.47954 0.9644 0.96457 0.0
O190 O 0.47718 0.94928 0.99395 0.0
O191 O 0.51027 0.98218 0.00045 0.0
O192 O 0.51913 0.0152 0.97969 0.0
O193 O 0.543 0.02643 0.00192 0.0
H194 H 0.54404 0.04953 0.06881 0.0
H195 H 0.53028 0.0358 0.09256 0.0
H196 H 0.48355 0.96167 0.07185 0.0
H197 H 0.49701 0.97575 0.04804 0.0
H198 H 0.45735 0.94817 0.93088 0.0
H199 H 0.47309 0.96631 0.90827 0.0
H200 H 0.50973 0.03873 0.93214 0.0
H201 H 0.49399 0.02051 0.95467 0.0
C202 C 0.98614 0.51717 0.04205 0.0
Eu203 Eu 0.98953 0.50257 0.0156 0.0
C204 C 0.99208 0.51485 0.05737 0.0
C205 C 0.97553 0.51214 0.06753 0.0
C206 C 0.98074 0.51034 0.08222 0.0
C207 C 0.00277 0.51143 0.08709 0.0
C208 C 0.01917 0.51367 0.07677 0.0
C209 C 0.01385 0.51533 0.06201 0.0
C210 C 0.95946 0.45793 0.00073 0.0
C211 C 0.02734 0.48144 0.01546 0.0
C212 C 0.00962 0.47879 0.96024 0.0
Eu213 Eu 0.00623 0.49312 0.98675 0.0
C214 C 0.00569 0.48318 0.94498 0.0
C215 C 0.02525 0.49179 0.93631 0.0
C216 C 0.02187 0.49509 0.92164 0.0
C217 C 0.99874 0.4896 0.91527 0.0
C218 C 0.97923 0.48139 0.92407 0.0
C219 C 0.98267 0.47827 0.93879 0.0
C220 C 0.03641 0.53768 0.00168 0.0
C221 C 0.96806 0.51401 0.9869 0.0
O222 O 0.00447 0.53012 0.03453 0.0
O223 O 0.96872 0.4972 0.03446 0.0
O224 O 0.95176 0.47043 0.00816 0.0
O225 O 0.98248 0.46876 0.00215 0.0
O226 O 0.01892 0.49368 0.02302 0.0
O227 O 0.02164 0.47553 0.00115 0.0
O228 O 0.99026 0.46687 0.96723 0.0
O229 O 0.02797 0.49705 0.96851 0.0
O230 O 0.04404 0.52515 0.99422 0.0
O231 O 0.01338 0.52694 1.00019 0.0
O232 O 0.97771 0.50317 0.97918 0.0
O233 O 0.97252 0.51874 0.0013 0.0
H234 H 0.95853 0.51149 0.0641 0.0
H235 H 0.9674 0.50801 0.08976 0.0
H236 H 0.03642 0.51482 0.08014 0.0
H237 H 0.02687 0.51734 0.05431 0.0
H238 H 0.04318 0.49576 0.94087 0.0
H239 H 0.0374 0.50186 0.91527 0.0
H240 H 0.9611 0.47672 0.91948 0.0
H241 H 0.96723 0.47165 0.94523 0.0
C242 C 0.46648 0.48202 0.96096 0.0
Eu243 Eu 0.48626 0.49622 0.98798 0.0
C244 C 0.47585 0.48022 0.94693 0.0
C245 C 0.46649 0.48496 0.9341 0.0
C246 C 0.47589 0.48426 0.92079 0.0
C247 C 0.49472 0.47867 0.92012 0.0
C248 C 0.50421 0.47412 0.93301 0.0
C249 C 0.49486 0.47489 0.94631 0.0
C250 C 0.50399 0.54094 0.00275 0.0
C251 C 0.54491 0.51493 0.98834 0.0
C252 C 0.53955 0.52156 0.0437 0.0
Eu253 Eu 0.51756 0.50574 0.01711 0.0
C254 C 0.53255 0.52239 0.0586 0.0
C255 C 0.50788 0.51049 0.0612 0.0
C256 C 0.50136 0.51145 0.07541 0.0
C257 C 0.51948 0.52436 0.08729 0.0
C258 C 0.54423 0.53637 0.08457 0.0
C259 C 0.55069 0.53538 0.07034 0.0
C260 C 0.50073 0.46129 0.0021 0.0
C261 C 0.45844 0.48684 0.01652 0.0
O262 O 0.46559 0.46681 0.97034 0.0
O263 O 0.47486 0.50435 0.96717 0.0
O264 O 0.48233 0.52884 0.99556 0.0
O265 O 0.51542 0.52951 0.00126 0.0
O266 O 0.52286 0.50317 0.98099 0.0
O267 O 0.54813 0.52093 0.00266 0.0
O268 O 0.53608 0.53536 0.03489 0.0
O269 O 0.5329 0.49974 0.03727 0.0
O270 O 0.52213 0.47352 0.00959 0.0
O271 O 0.48886 0.47229 0.00362 0.0
O272 O 0.48026 0.49701 0.02416 0.0
O273 O 0.45542 0.48227 0.00209 0.0
H274 H 0.45197 0.48929 0.93438 0.0
H275 H 0.46825 0.48776 0.91097 0.0
H276 H 0.51884 0.46994 0.93277 0.0
H277 H 0.50247 0.4713 0.9561 0.0
H278 H 0.49369 0.50035 0.05227 0.0
H279 H 0.48214 0.50174 0.07709 0.0
H280 H 0.55863 0.5468 0.09341 0.0
H281 H 0.56985 0.54483 0.0685 0.0
C282 C 0.2006 0.35695 0.37731 0.0
Eu283 Eu 0.18307 0.34645 0.34975 0.0
C284 C 0.19104 0.34769 0.39119 0.0
C285 C 0.20099 0.36321 0.40433 0.0
C286 C 0.1917 0.35474 0.41756 0.0
C287 C 0.17219 0.33061 0.41781 0.0
C288 C 0.16199 0.31527 0.40455 0.0
C289 C 0.1715 0.32366 0.39138 0.0
C290 C 0.16754 0.37181 0.33408 0.0
C291 C 0.12479 0.30411 0.34633 0.0
C292 C 0.1397 0.30765 0.29192 0.0
Eu293 Eu 0.15655 0.3205 0.31956 0.0
C294 C 0.14684 0.31864 0.27811 0.0
C295 C 0.13911 0.30335 0.26488 0.0
C296 C 0.14682 0.31329 0.25171 0.0
C297 C 0.16238 0.33875 0.25155 0.0
C298 C 0.16988 0.35409 0.26484 0.0
C299 C 0.16225 0.34409 0.27803 0.0
C300 C 0.17261 0.29596 0.33575 0.0
C301 C 0.2138 0.36418 0.32265 0.0
O302 O 0.2033 0.34193 0.36817 0.0
O303 O 0.19094 0.36841 0.37076 0.0
O304 O 0.18728 0.38215 0.34317 0.0
O305 O 0.15584 0.34882 0.33454 0.0
O306 O 0.14585 0.31605 0.35477 0.0
O307 O 0.12354 0.30527 0.33202 0.0
O308 O 0.13181 0.3181 0.30115 0.0
O309 O 0.15468 0.30171 0.29839 0.0
O310 O 0.15199 0.2853 0.32749 0.0
O311 O 0.18413 0.31868 0.3346 0.0
O312 O 0.19241 0.3529 0.31455 0.0
O313 O 0.2156 0.36186 0.33681 0.0
H314 H 0.21604 0.38185 0.40438 0.0
H315 H 0.2001 0.3669 0.42761 0.0
H316 H 0.14676 0.29671 0.40437 0.0
H317 H 0.16368 0.31136 0.38135 0.0
H318 H 0.1273 0.28366 0.26476 0.0
H319 H 0.1405 0.30106 0.24162 0.0
H320 H 0.18206 0.37373 0.26508 0.0
H321 H 0.16864 0.35617 0.28817 0.0
C322 C 0.65683 0.85838 0.37675 0.0
Eu323 Eu 0.65681 0.84047 0.35044 0.0
C324 C 0.66074 0.85335 0.39173 0.0
C325 C 0.66431 0.83359 0.39429 0.0
C326 C 0.66784 0.82889 0.40865 0.0
C327 C 0.66786 0.84392 0.42064 0.0
C328 C 0.66452 0.86385 0.41793 0.0
C329 C 0.66096 0.86848 0.40358 0.0
C330 C 0.62799 0.79284 0.33909 0.0
C331 C 0.69681 0.82218 0.35038 0.0
C332 C 0.67101 0.80968 0.29526 0.0
Eu333 Eu 0.6705 0.82745 0.32151 0.0
C334 C 0.66831 0.81446 0.27988 0.0
C335 C 0.68918 0.828 0.2726 0.0
C336 C 0.68686 0.83191 0.25793 0.0
C337 C 0.66362 0.82216 0.25016 0.0
C338 C 0.64273 0.80869 0.25746 0.0
C339 C 0.64505 0.80484 0.27216 0.0
C340 C 0.70015 0.87448 0.33336 0.0
C341 C 0.63178 0.84764 0.32154 0.0
O342 O 0.67604 0.86744 0.36943 0.0
O343 O 0.63707 0.84121 0.36888 0.0
O344 O 0.62 0.80511 0.34646 0.0
O345 O 0.65078 0.8055 0.33898 0.0
O346 O 0.68896 0.83542 0.35743 0.0
O347 O 0.68859 0.81296 0.33657 0.0
O348 O 0.65147 0.80087 0.30232 0.0
O349 O 0.69075 0.82621 0.30346 0.0
O350 O 0.70778 0.8619 0.32598 0.0
O351 O 0.67723 0.86247 0.33314 0.0
O352 O 0.6397 0.83462 0.31427 0.0
O353 O 0.63892 0.85537 0.33561 0.0
H354 H 0.66424 0.82177 0.38519 0.0
H355 H 0.6702 0.81333 0.41037 0.0
H356 H 0.66494 0.87608 0.4269 0.0
H357 H 0.65841 0.88391 0.40175 0.0
H358 H 0.70735 0.83548 0.27822 0.0
H359 H 0.7033 0.84259 0.25267 0.0
H360 H 0.62456 0.80058 0.25173 0.0
H361 H 0.62859 0.79408 0.27738 0.0
C362 C 0.13239 0.80635 0.29548 0.0
Eu363 Eu 0.15233 0.82447 0.32223 0.0
C364 C 0.14132 0.80828 0.28093 0.0
C365 C 0.16347 0.82871 0.27822 0.0
C366 C 0.17202 0.82996 0.26441 0.0
C367 C 0.15869 0.81066 0.25318 0.0
C368 C 0.13657 0.79021 0.256 0.0
C369 C 0.12796 0.78907 0.26976 0.0
C370 C 0.16939 0.87083 0.33433 0.0
C371 C 0.21165 0.84529 0.3236 0.0
C372 C 0.20318 0.8557 0.37867 0.0
Eu373 Eu 0.18328 0.83825 0.35186 0.0
C374 C 0.19425 0.85525 0.39319 0.0
C375 C 0.20419 0.84874 0.40498 0.0
C376 C 0.19568 0.84768 0.41876 0.0
C377 C 0.17716 0.85326 0.42104 0.0
C378 C 0.16723 0.85983 0.40922 0.0
C379 C 0.17563 0.86072 0.39539 0.0
C380 C 0.16619 0.79189 0.33962 0.0
C381 C 0.12425 0.81826 0.35051 0.0
O382 O 0.13907 0.79492 0.30444 0.0
O383 O 0.13389 0.82621 0.30193 0.0
O384 O 0.14811 0.85776 0.32683 0.0
O385 O 0.18109 0.85952 0.33431 0.0
O386 O 0.18979 0.83262 0.31602 0.0
O387 O 0.2143 0.85258 0.33773 0.0
O388 O 0.19915 0.86846 0.36931 0.0
O389 O 0.19944 0.83466 0.37257 0.0
O390 O 0.18761 0.80507 0.34695 0.0
O391 O 0.15447 0.80318 0.33979 0.0
O392 O 0.14619 0.83131 0.35795 0.0
O393 O 0.12144 0.8102 0.3365 0.0
H394 H 0.1742 0.84361 0.28679 0.0
H395 H 0.18925 0.8458 0.2626 0.0
H396 H 0.12579 0.77519 0.24752 0.0
H397 H 0.11091 0.77311 0.27171 0.0
H398 H 0.21853 0.84443 0.4035 0.0
H399 H 0.20385 0.84282 0.42771 0.0
H400 H 0.15277 0.86398 0.41062 0.0
H401 H 0.16747 0.86559 0.38645 0.0
C402 C 0.86802 0.68663 0.7098 0.0
Eu403 Eu 0.84793 0.67652 0.68279 0.0
C404 C 0.86002 0.67834 0.7241 0.0
C405 C 0.87254 0.69401 0.73695 0.0
C406 C 0.86491 0.68646 0.75064 0.0
C407 C 0.84459 0.66311 0.75164 0.0
C408 C 0.83188 0.64763 0.7387 0.0
C409 C 0.83965 0.65511 0.72505 0.0
C410 C 0.83233 0.70271 0.66812 0.0
C411 C 0.78937 0.63526 0.68052 0.0
C412 C 0.80052 0.63952 0.62536 0.0
Eu413 Eu 0.81921 0.65129 0.65273 0.0
C414 C 0.80754 0.65026 0.61144 0.0
C415 C 0.79659 0.63544 0.59813 0.0
C416 C 0.80391 0.64505 0.58481 0.0
C417 C 0.82238 0.6697 0.58456 0.0
C418 C 0.83322 0.68453 0.59798 0.0
C419 C 0.82588 0.67487 0.61128 0.0
C420 C 0.83563 0.62595 0.66778 0.0
C421 C 0.87704 0.69379 0.65503 0.0
O422 O 0.8685 0.67056 0.70031 0.0
O423 O 0.85879 0.69896 0.70386 0.0
O424 O 0.8524 0.71268 0.6769 0.0
O425 O 0.82034 0.67973 0.66848 0.0
O426 O 0.81086 0.64701 0.68855 0.0
O427 O 0.78728 0.63627 0.6662 0.0
O428 O 0.79467 0.65133 0.63503 0.0
O429 O 0.81441 0.6318 0.63127 0.0
O430 O 0.8146 0.61564 0.65994 0.0
O431 O 0.84728 0.64872 0.66678 0.0
O432 O 0.85535 0.68289 0.64724 0.0
O433 O 0.87943 0.69128 0.6691 0.0
H434 H 0.88827 0.71204 0.7364 0.0
H435 H 0.87516 0.69869 0.76044 0.0
H436 H 0.81599 0.62966 0.73914 0.0
H437 H 0.82985 0.64273 0.71524 0.0
H438 H 0.78256 0.61633 0.59805 0.0
H439 H 0.79543 0.633 0.57472 0.0
H440 H 0.84726 0.70365 0.5982 0.0
H441 H 0.83466 0.68658 0.62144 0.0
C442 C 0.33083 0.19845 0.70831 0.0
Eu443 Eu 0.32954 0.17768 0.68262 0.0
C444 C 0.33356 0.19347 0.72345 0.0
C445 C 0.3353 0.1728 0.72641 0.0
C446 C 0.33791 0.16814 0.74089 0.0
C447 C 0.33893 0.18416 0.75264 0.0
C448 C 0.3373 0.20493 0.74953 0.0
C449 C 0.33456 0.20948 0.73505 0.0
C450 C 0.29851 0.12985 0.67269 0.0
C451 C 0.36735 0.15655 0.6839 0.0
C452 C 0.3409 0.13982 0.62863 0.0
Eu453 Eu 0.34154 0.16025 0.65429 0.0
C454 C 0.33724 0.1431 0.61307 0.0
C455 C 0.3568 0.15058 0.60443 0.0
C456 C 0.35379 0.15361 0.58966 0.0
C457 C 0.33102 0.14894 0.58314 0.0
C458 C 0.31144 0.1415 0.59183 0.0
C459 C 0.31451 0.13865 0.60665 0.0
C460 C 0.37267 0.20796 0.6645 0.0
C461 C 0.30402 0.1818 0.65308 0.0
O462 O 0.35008 0.20526 0.70117 0.0
O463 O 0.31053 0.1822 0.70047 0.0
O464 O 0.29175 0.14374 0.67947 0.0
O465 O 0.32135 0.1411 0.67248 0.0
O466 O 0.36046 0.17118 0.69028 0.0
O467 O 0.35882 0.14623 0.67029 0.0
O468 O 0.32188 0.13161 0.63612 0.0
O469 O 0.36091 0.15725 0.63617 0.0
O470 O 0.3795 0.194 0.65787 0.0
O471 O 0.3498 0.19672 0.66447 0.0
O472 O 0.31063 0.16695 0.64665 0.0
O473 O 0.31276 0.19213 0.66666 0.0
H474 H 0.33457 0.16026 0.71751 0.0
H475 H 0.33884 0.15185 0.74286 0.0
H476 H 0.3386 0.21797 0.75829 0.0
H477 H 0.33346 0.22563 0.7329 0.0
H478 H 0.3745 0.15411 0.60912 0.0
H479 H 0.36936 0.15971 0.58337 0.0
H480 H 0.29355 0.13739 0.58713 0.0
H481 H 0.29903 0.13281 0.61301 0.0
C482 C 0.79537 0.14185 0.62446 0.0
Eu483 Eu 0.81541 0.15823 0.65136 0.0
C484 C 0.80431 0.14458 0.6099 0.0
C485 C 0.82713 0.1645 0.60766 0.0
C486 C 0.83557 0.16668 0.59378 0.0
C487 C 0.82136 0.1489 0.58192 0.0
C488 C 0.7986 0.12886 0.58432 0.0
C489 C 0.79017 0.12675 0.59819 0.0
C490 C 0.83141 0.20359 0.66484 0.0
C491 C 0.87487 0.17958 0.65229 0.0
C492 C 0.86626 0.1868 0.7077 0.0
Eu493 Eu 0.84685 0.17068 0.6807 0.0
C494 C 0.8563 0.18603 0.72186 0.0
C495 C 0.86754 0.18267 0.73443 0.0
C496 C 0.85785 0.18114 0.74787 0.0
C497 C 0.83677 0.18299 0.74895 0.0
C498 C 0.8254 0.18611 0.73632 0.0
C499 C 0.83511 0.18768 0.72289 0.0
C500 C 0.83079 0.12531 0.66723 0.0
C501 C 0.78755 0.14904 0.67981 0.0
O502 O 0.8017 0.12962 0.63297 0.0
O503 O 0.79732 0.16156 0.63144 0.0
O504 O 0.81007 0.19046 0.65742 0.0
O505 O 0.84368 0.1929 0.66407 0.0
O506 O 0.85293 0.1673 0.64477 0.0
O507 O 0.87773 0.18601 0.66655 0.0
O508 O 0.86347 0.20043 0.69844 0.0
O509 O 0.86184 0.16565 0.70137 0.0
O510 O 0.8522 0.13848 0.67459 0.0
O511 O 0.81853 0.13601 0.66802 0.0
O512 O 0.80953 0.1621 0.68716 0.0
O513 O 0.78459 0.14211 0.66561 0.0
H514 H 0.83839 0.17839 0.61663 0.0
H515 H 0.85306 0.18246 0.59232 0.0
H516 H 0.7874 0.11457 0.57554 0.0
H517 H 0.77264 0.11111 0.59978 0.0
H518 H 0.88382 0.18123 0.73384 0.0
H519 H 0.86705 0.17889 0.75748 0.0
H520 H 0.80901 0.18738 0.73684 0.0
H521 H 0.82609 0.19026 0.71334 0.0
H522 H 0.28857 0.83962 0.09574 0.0
H523 H 0.32374 0.8685 0.08378 0.0
H524 H 0.27626 0.85546 0.0445 0.0
H525 H 0.24097 0.82679 0.05644 0.0
H526 H 0.31603 0.85238 0.03849 0.0
H527 H 0.30035 0.909 0.06653 0.0
H528 H 0.29361 0.92757 0.0889 0.0
H529 H 0.36477 0.94663 0.10871 0.0
H530 H 0.37181 0.92786 0.08652 0.0
H531 H 0.40462 0.9463 0.00086 0.0
H532 H 0.3681 0.92132 0.01303 0.0
H533 H 0.41321 0.9358 0.05364 0.0
H534 H 0.4497 0.96118 0.04169 0.0
H535 H 0.37395 0.93869 0.05874 0.0
H536 H 0.38942 0.88108 0.03182 0.0
H537 H 0.39682 0.862 0.00994 0.0
H538 H 0.32686 0.84403 0.98869 0.0
H539 H 0.31918 0.86334 0.01037 0.0
C540 C 0.28554 0.84321 0.08464 0.0
C541 C 0.26195 0.83086 0.07704 0.0
C542 C 0.30568 0.85968 0.07781 0.0
C543 C 0.30261 0.86423 0.06327 0.0
C544 C 0.27906 0.85216 0.05571 0.0
C545 C 0.25893 0.83572 0.06253 0.0
C546 C 0.32405 0.88086 0.05575 0.0
C547 C 0.32848 0.87138 0.04279 0.0
C548 C 0.34067 0.90543 0.06158 0.0
C549 C 0.33651 0.91681 0.07491 0.0
C550 C 0.31449 0.91697 0.0757 0.0
C551 C 0.31063 0.92757 0.08834 0.0
C552 C 0.32873 0.93822 0.10023 0.0
C553 C 0.35076 0.93835 0.09949 0.0
C554 C 0.3547 0.92775 0.08688 0.0
C555 C 0.40678 0.94422 0.01239 0.0
C556 C 0.43013 0.95564 0.02026 0.0
C557 C 0.38587 0.92987 0.01932 0.0
C558 C 0.38792 0.9264 0.03421 0.0
C559 C 0.41116 0.93818 0.04215 0.0
C560 C 0.43204 0.95264 0.03526 0.0
C561 C 0.36592 0.91021 0.04148 0.0
C562 C 0.36142 0.91973 0.0544 0.0
C563 C 0.34933 0.8856 0.03569 0.0
C564 C 0.35384 0.87388 0.02266 0.0
C565 C 0.37569 0.87323 0.02244 0.0
C566 C 0.37992 0.86234 0.01008 0.0
C567 C 0.36235 0.85187 0.99792 0.0
C568 C 0.34047 0.85219 0.99811 0.0
C569 C 0.33616 0.86309 0.01043 0.0
H570 H 0.36565 0.84345 0.98836 0.0
H571 H 0.3257 0.94641 0.11001 0.0
H572 H 0.15692 0.40955 0.08853 0.0
H573 H 0.12612 0.41688 0.07634 0.0
H574 H 0.18293 0.47983 0.05865 0.0
H575 H 0.21394 0.47306 0.07119 0.0
H576 H 0.14952 0.4899 0.06894 0.0
H577 H 0.14877 0.42616 0.03724 0.0
H578 H 0.14606 0.38625 0.03092 0.0
H579 H 0.07367 0.34857 0.04453 0.0
H580 H 0.07608 0.3883 0.05112 0.0
H581 H 0.05386 0.46297 0.0032 0.0
H582 H 0.08361 0.45466 0.01575 0.0
H583 H 0.06785 0.4755 0.05758 0.0
H584 H 0.03849 0.48451 0.04509 0.0
H585 H 0.08162 0.42418 0.03467 0.0
H586 H 0.11936 0.50379 0.08099 0.0
H587 H 0.12241 0.54426 0.08556 0.0
H588 H 0.12395 0.55231 0.03946 0.0
H589 H 0.12126 0.51207 0.03464 0.0
C590 C 0.16289 0.42508 0.08214 0.0
C591 C 0.18789 0.44071 0.08082 0.0
C592 C 0.14524 0.42913 0.07509 0.0
C593 C 0.15221 0.44879 0.06649 0.0
C594 C 0.17715 0.46455 0.06523 0.0
C595 C 0.19482 0.4605 0.07228 0.0
C596 C 0.13345 0.45277 0.05871 0.0
C597 C 0.13467 0.47553 0.06146 0.0
C598 C 0.11424 0.43414 0.0488 0.0
C599 C 0.1127 0.41022 0.0448 0.0
C600 C 0.13235 0.40937 0.03899 0.0
C601 C 0.13085 0.38678 0.03534 0.0
C602 C 0.10973 0.36489 0.03735 0.0
C603 C 0.09003 0.36555 0.04299 0.0
C604 C 0.09144 0.38809 0.04667 0.0
C605 C 0.05659 0.46567 0.01508 0.0
C606 C 0.04394 0.47461 0.02314 0.0
C607 C 0.07359 0.46085 0.02224 0.0
C608 C 0.07823 0.46479 0.03759 0.0
C609 C 0.06492 0.47279 0.04571 0.0
C610 C 0.04808 0.47786 0.03855 0.0
C611 C 0.09753 0.4612 0.045 0.0
C612 C 0.09642 0.43852 0.0422 0.0
C613 C 0.1171 0.48008 0.05462 0.0
C614 C 0.1199 0.50483 0.05746 0.0
C615 C 0.12055 0.5143 0.07185 0.0
C616 C 0.12216 0.53717 0.07448 0.0
C617 C 0.12329 0.55081 0.0628 0.0
C618 C 0.12301 0.5417 0.04849 0.0
C619 C 0.12144 0.51886 0.0458 0.0
H620 H 0.12441 0.56845 0.06485 0.0
H621 H 0.10861 0.34742 0.03452 0.0
H622 H 0.61686 0.76232 0.07012 0.0
H623 H 0.60573 0.72141 0.05852 0.0
H624 H 0.52998 0.70211 0.05286 0.0
H625 H 0.54106 0.74307 0.06414 0.0
H626 H 0.54189 0.66619 0.06611 0.0
H627 H 0.55577 0.7153 0.02477 0.0
H628 H 0.58087 0.75089 0.01142 0.0
H629 H 0.63609 0.73039 0.01055 0.0
H630 H 0.61145 0.69486 0.0241 0.0
H631 H 0.4795 0.56313 0.01278 0.0
H632 H 0.49708 0.60394 0.02642 0.0
H633 H 0.5696 0.61475 0.0244 0.0
H634 H 0.55207 0.57369 0.01107 0.0
H635 H 0.56402 0.65517 0.01636 0.0
H636 H 0.55155 0.60522 0.05442 0.0
H637 H 0.53029 0.57005 0.06873 0.0
H638 H 0.47814 0.59236 0.07792 0.0
H639 H 0.4986 0.62729 0.06321 0.0
C640 C 0.59787 0.7493 0.06636 0.0
C641 C 0.5798 0.75577 0.06789 0.0
C642 C 0.59156 0.72604 0.05977 0.0
C643 C 0.56706 0.70886 0.0549 0.0
C644 C 0.54897 0.71518 0.05661 0.0
C645 C 0.55532 0.73855 0.06292 0.0
C646 C 0.56019 0.68435 0.04777 0.0
C647 C 0.54646 0.66368 0.05517 0.0
C648 C 0.5672 0.68136 0.03381 0.0
C649 C 0.58191 0.70262 0.0256 0.0
C650 C 0.57337 0.71853 0.02186 0.0
C651 C 0.58749 0.73865 0.01423 0.0
C652 C 0.6101 0.74295 0.01018 0.0
C653 C 0.6186 0.72707 0.01372 0.0
C654 C 0.60456 0.70693 0.02136 0.0
C655 C 0.49917 0.57423 0.01527 0.0
C656 C 0.51447 0.5654 0.01091 0.0
C657 C 0.50917 0.59743 0.02307 0.0
C658 C 0.5346 0.61224 0.0264 0.0
C659 C 0.54994 0.60355 0.0219 0.0
C660 C 0.53991 0.58014 0.01435 0.0
C661 C 0.54502 0.63688 0.0345 0.0
C662 C 0.5595 0.6576 0.02732 0.0
C663 C 0.53918 0.63993 0.04881 0.0
C664 C 0.52643 0.61873 0.0575 0.0
C665 C 0.5353 0.60243 0.05927 0.0
C666 C 0.52342 0.58254 0.06747 0.0
C667 C 0.50281 0.57888 0.07415 0.0
C668 C 0.49403 0.59513 0.07265 0.0
C669 C 0.50575 0.61498 0.06435 0.0
H670 H 0.49375 0.56352 0.08054 0.0
H671 H 0.621 0.75853 0.00427 0.0
H672 H 0.78252 0.25569 0.93745 0.0
H673 H 0.81292 0.29475 0.95119 0.0
H674 H 0.87087 0.28766 0.9334 0.0
H675 H 0.84049 0.24827 0.91976 0.0
H676 H 0.88084 0.3036 0.96329 0.0
H677 H 0.85498 0.32486 0.91914 0.0
H678 H 0.82504 0.32399 0.90032 0.0
H679 H 0.79851 0.35417 0.93282 0.0
H680 H 0.82806 0.35488 0.95189 0.0
H681 H 0.97266 0.42859 0.98537 0.0
H682 H 0.94546 0.38891 0.971 0.0
H683 H 0.88271 0.39307 0.98308 0.0
H684 H 0.90981 0.433 0.99704 0.0
H685 H 0.87695 0.37864 0.95489 0.0
H686 H 0.90126 0.35579 0.99925 0.0
H687 H 0.93067 0.35626 0.01831 0.0
H688 H 0.9597 0.32893 0.9858 0.0
H689 H 0.93066 0.32861 0.96651 0.0
C690 C 0.80174 0.26229 0.93659 0.0
C691 C 0.80912 0.24896 0.92749 0.0
C692 C 0.81907 0.28469 0.94436 0.0
C693 C 0.84412 0.2942 0.94317 0.0
C694 C 0.85162 0.28066 0.93441 0.0
C695 C 0.83426 0.25828 0.92656 0.0
C696 C 0.86235 0.31856 0.95086 0.0
C697 C 0.88026 0.32011 0.96132 0.0
C698 C 0.86128 0.33996 0.94843 0.0
C699 C 0.84359 0.33971 0.93697 0.0
C700 C 0.84263 0.33113 0.9223 0.0
C701 C 0.82576 0.3307 0.91158 0.0
C702 C 0.80985 0.33897 0.91538 0.0
C703 C 0.81083 0.34775 0.9299 0.0
C704 C 0.82765 0.34819 0.94066 0.0
C705 C 0.95306 0.42102 0.9849 0.0
C706 C 0.9433 0.43383 0.99228 0.0
C707 C 0.93754 0.3983 0.97678 0.0
C708 C 0.91201 0.38787 0.97608 0.0
C709 C 0.90232 0.40074 0.98344 0.0
C710 C 0.91781 0.4235 0.99146 0.0
C711 C 0.89527 0.36371 0.96756 0.0
C712 C 0.87765 0.3622 0.95686 0.0
C713 C 0.89658 0.34236 0.96983 0.0
C714 C 0.91396 0.34242 0.98142 0.0
C715 C 0.91404 0.35005 0.99615 0.0
C716 C 0.93062 0.35027 0.007 0.0
C717 C 0.94709 0.3427 0.00326 0.0
C718 C 0.94696 0.33483 0.98867 0.0
C719 C 0.93043 0.33461 0.97778 0.0
H720 H 0.95992 0.34288 0.01167 0.0
H721 H 0.79679 0.33862 0.90706 0.0
H722 H 0.72789 0.53194 0.9293 0.0
H723 H 0.69115 0.52486 0.94049 0.0
H724 H 0.7007 0.59325 0.92711 0.0
H725 H 0.73771 0.60057 0.91598 0.0
H726 H 0.68906 0.58738 0.95534 0.0
H727 H 0.65922 0.54248 0.90866 0.0
H728 H 0.65333 0.51347 0.88749 0.0
H729 H 0.62251 0.45355 0.91416 0.0
H730 H 0.62855 0.48228 0.93558 0.0
H731 H 0.54646 0.51506 0.95865 0.0
H732 H 0.582 0.5273 0.94503 0.0
H733 H 0.62747 0.54235 0.98559 0.0
H734 H 0.5921 0.53083 0.99933 0.0
H735 H 0.61029 0.51003 0.94107 0.0
H736 H 0.68496 0.58766 0.98365 0.0
H737 H 0.68844 0.61931 0.00238 0.0
H738 H 0.62671 0.61858 0.97981 0.0
H739 H 0.62307 0.58721 0.96083 0.0
C740 C 0.7223 0.54559 0.92886 0.0
C741 C 0.73568 0.56682 0.92177 0.0
C742 C 0.70121 0.54143 0.93515 0.0
C743 C 0.6931 0.55843 0.93451 0.0
C744 C 0.70664 0.57988 0.92769 0.0
C745 C 0.72766 0.58396 0.92127 0.0
C746 C 0.67042 0.55363 0.94098 0.0
C747 C 0.67182 0.57049 0.95224 0.0
C748 C 0.64776 0.53196 0.93657 0.0
C749 C 0.64459 0.51462 0.9238 0.0
C750 C 0.65151 0.52318 0.91008 0.0
C751 C 0.64806 0.50676 0.89801 0.0
C752 C 0.63762 0.48169 0.89949 0.0
C753 C 0.63061 0.47299 0.91304 0.0
C754 C 0.63402 0.48933 0.92515 0.0
C755 C 0.56402 0.521 0.96469 0.0
C756 C 0.56646 0.52204 0.9801 0.0
C757 C 0.58435 0.52799 0.95687 0.0
C758 C 0.60754 0.53609 0.96427 0.0
C759 C 0.60992 0.53674 0.97964 0.0
C760 C 0.58964 0.53002 0.98749 0.0
C761 C 0.62911 0.54332 0.9559 0.0
C762 C 0.6275 0.52695 0.94421 0.0
C763 C 0.65137 0.56579 0.95962 0.0
C764 C 0.65362 0.58491 0.97089 0.0
C765 C 0.6722 0.59434 0.98265 0.0
C766 C 0.67419 0.61222 0.99332 0.0
C767 C 0.65776 0.6209 0.99231 0.0
C768 C 0.63937 0.61178 0.9806 0.0
C769 C 0.63732 0.59393 0.9699 0.0
H770 H 0.65932 0.63472 0.00059 0.0
H771 H 0.63491 0.46899 0.89012 0.0
H772 H 0.40884 0.17376 0.9581 0.0
H773 H 0.42192 0.14875 0.97102 0.0
H774 H 0.43596 0.12338 0.93008 0.0
H775 H 0.42461 0.14944 0.91714 0.0
H776 H 0.4044 0.08673 0.95539 0.0
H777 H 0.48234 0.1567 0.94231 0.0
H778 H 0.50966 0.2014 0.94222 0.0
H779 H 0.51013 0.21156 0.98895 0.0
H780 H 0.48252 0.1669 0.98926 0.0
H781 H 0.46788 0.02546 0.97341 0.0
H782 H 0.45177 0.04927 0.96218 0.0
H783 H 0.48475 0.10424 0.99961 0.0
H784 H 0.50233 0.08109 0.01025 0.0
H785 H 0.49051 0.12677 0.97762 0.0
H786 H 0.42003 0.05916 0.99288 0.0
H787 H 0.39046 0.01574 0.99536 0.0
H788 H 0.37191 0.0017 0.94867 0.0
H789 H 0.40162 0.04498 0.94588 0.0
C790 C 0.41491 0.16306 0.95181 0.0
C791 C 0.41572 0.16378 0.93653 0.0
C792 C 0.42211 0.1486 0.95921 0.0
C793 C 0.42979 0.1343 0.95144 0.0
C794 C 0.42988 0.13424 0.9362 0.0
C795 C 0.42319 0.14905 0.92882 0.0
C796 C 0.43902 0.12035 0.95928 0.0
C797 C 0.42324 0.09528 0.96018 0.0
C798 C 0.46327 0.13191 0.96595 0.0
C799 C 0.48022 0.15858 0.96578 0.0
C800 C 0.48813 0.16851 0.95254 0.0
C801 C 0.50369 0.19381 0.95245 0.0
C802 C 0.51157 0.20932 0.96556 0.0
C803 C 0.50399 0.19953 0.9788 0.0
C804 C 0.48841 0.17424 0.97894 0.0
C805 C 0.47157 0.04253 0.97921 0.0
C806 C 0.48611 0.05133 0.99269 0.0
C807 C 0.46223 0.05612 0.97286 0.0
C808 C 0.46644 0.07833 0.9802 0.0
C809 C 0.48114 0.08717 0.99371 0.0
C810 C 0.49113 0.07393 0.99981 0.0
C811 C 0.45605 0.09258 0.97362 0.0
C812 C 0.47158 0.11791 0.97297 0.0
C813 C 0.43128 0.08129 0.96753 0.0
C814 C 0.4132 0.05529 0.96916 0.0
C815 C 0.40974 0.04679 0.98313 0.0
C816 C 0.39295 0.0222 0.9846 0.0
C817 C 0.37935 0.00596 0.97218 0.0
C818 C 0.38247 0.0143 0.95828 0.0
C819 C 0.39926 0.03886 0.95675 0.0
H820 H 0.36637 0.98693 0.97334 0.0
H821 H 0.5236 0.22891 0.96548 0.0
H822 H 0.72739 0.19637 0.93734 0.0
H823 H 0.69198 0.167 0.9488 0.0
H824 H 0.68946 0.10708 0.92207 0.0
H825 H 0.72593 0.13612 0.91112 0.0
H826 H 0.64163 0.11753 0.92651 0.0
H827 H 0.70319 0.09844 0.94765 0.0
H828 H 0.74403 0.11162 0.96012 0.0
H829 H 0.73086 0.14963 0.99566 0.0
H830 H 0.69006 0.13695 0.98326 0.0
H831 H 0.54694 0.02069 0.95892 0.0
H832 H 0.58274 0.04569 0.94628 0.0
H833 H 0.61891 0.0935 0.98638 0.0
H834 H 0.58363 0.06756 0.99927 0.0
H835 H 0.65059 0.08834 0.97423 0.0
H836 H 0.59042 0.10751 0.95599 0.0
H837 H 0.55096 0.10027 0.94439 0.0
H838 H 0.56149 0.06861 0.9047 0.0
H839 H 0.60086 0.07532 0.91614 0.0
C840 C 0.71972 0.17695 0.93405 0.0
C841 C 0.72981 0.16871 0.92335 0.0
C842 C 0.69929 0.16023 0.94053 0.0
C843 C 0.68829 0.13499 0.9363 0.0
C844 C 0.69783 0.12657 0.92546 0.0
C845 C 0.71856 0.14325 0.91915 0.0
C846 C 0.66677 0.11753 0.94329 0.0
C847 C 0.6434 0.11067 0.9368 0.0
C848 C 0.66937 0.10957 0.95696 0.0
C849 C 0.69376 0.11702 0.96445 0.0
C850 C 0.70913 0.10984 0.95804 0.0
C851 C 0.73223 0.11716 0.96512 0.0
C852 C 0.74007 0.13153 0.97865 0.0
C853 C 0.72479 0.13854 0.98516 0.0
C854 C 0.70167 0.13128 0.97812 0.0
C855 C 0.56258 0.0365 0.96505 0.0
C856 C 0.56251 0.04222 0.98008 0.0
C857 C 0.58299 0.05092 0.95778 0.0
C858 C 0.60344 0.07188 0.96526 0.0
C859 C 0.60342 0.07746 0.98033 0.0
C860 C 0.58323 0.06266 0.9877 0.0
C861 C 0.62492 0.08787 0.95745 0.0
C862 C 0.64846 0.09474 0.96384 0.0
C863 C 0.62242 0.09626 0.94379 0.0
C864 C 0.5985 0.09173 0.93698 0.0
C865 C 0.58422 0.09879 0.94484 0.0
C866 C 0.56189 0.09482 0.93828 0.0
C867 C 0.55375 0.08402 0.92382 0.0
C868 C 0.56783 0.077 0.9159 0.0
C869 C 0.59016 0.08088 0.92241 0.0
H870 H 0.53656 0.08119 0.91875 0.0
H871 H 0.75796 0.13717 0.98412 0.0
H872 H 0.84452 0.59158 0.91268 0.0
H873 H 0.87455 0.58283 0.92444 0.0
H874 H 0.81847 0.52717 0.94693 0.0
H875 H 0.78781 0.53449 0.93452 0.0
H876 H 0.87115 0.57114 0.96353 0.0
H877 H 0.82816 0.50157 0.92477 0.0
H878 H 0.81298 0.48522 0.89886 0.0
H879 H 0.88578 0.52788 0.8865 0.0
H880 H 0.9013 0.54477 0.91233 0.0
H881 H 0.92888 0.51403 0.99721 0.0
H882 H 0.90051 0.52409 0.98466 0.0
H883 H 0.94206 0.54054 0.94714 0.0
H884 H 0.9695 0.52865 0.95936 0.0
H885 H 0.89823 0.51912 0.93729 0.0
H886 H 0.94369 0.58659 0.97372 0.0
H887 H 0.96259 0.60823 0.99834 0.0
H888 H 0.89161 0.57772 0.01385 0.0
H889 H 0.87228 0.55561 0.98936 0.0
C890 C 0.83835 0.57715 0.91991 0.0
C891 C 0.81355 0.56362 0.92251 0.0
C892 C 0.85565 0.57239 0.92673 0.0
C893 C 0.84862 0.55437 0.93648 0.0
C894 C 0.82415 0.54121 0.93943 0.0
C895 C 0.8067 0.54558 0.93239 0.0
C896 C 0.86687 0.54916 0.94354 0.0
C897 C 0.87693 0.55953 0.95793 0.0
C898 C 0.87513 0.53503 0.9359 0.0
C899 C 0.86582 0.52464 0.92043 0.0
C900 C 0.84087 0.50765 0.9165 0.0
C901 C 0.83222 0.49824 0.90184 0.0
C902 C 0.84839 0.50557 0.89103 0.0
C903 C 0.87327 0.52226 0.89488 0.0
C904 C 0.882 0.53173 0.90952 0.0
C905 C 0.93199 0.51989 0.9863 0.0
C906 C 0.95148 0.52082 0.97929 0.0
C907 C 0.91586 0.52583 0.97915 0.0
C908 C 0.91943 0.5338 0.96507 0.0
C909 C 0.9389 0.53458 0.95802 0.0
C910 C 0.95463 0.52788 0.96501 0.0
C911 C 0.90246 0.54066 0.95762 0.0
C912 C 0.89266 0.53078 0.94305 0.0
C913 C 0.89502 0.55593 0.96498 0.0
C914 C 0.90655 0.56927 0.97973 0.0
C915 C 0.93212 0.58436 0.98241 0.0
C916 C 0.94291 0.59673 0.99634 0.0
C917 C 0.92831 0.59431 0.00766 0.0
C918 C 0.90289 0.57956 0.00507 0.0
C919 C 0.892 0.56713 0.99116 0.0
H920 H 0.9367 0.6039 0.01844 0.0
H921 H 0.84166 0.49827 0.87969 0.0
H922 H 0.43609 0.26411 0.9163 0.0
H923 H 0.45018 0.30522 0.92838 0.0
H924 H 0.41947 0.27376 0.96771 0.0
H925 H 0.40535 0.23255 0.95568 0.0
H926 H 0.42761 0.32738 0.93986 0.0
H927 H 0.4568 0.31223 0.99741 0.0
H928 H 0.47087 0.28621 0.00859 0.0
H929 H 0.49985 0.27908 0.96865 0.0
H930 H 0.48628 0.30535 0.95732 0.0
H931 H 0.45361 0.42892 0.991 0.0
H932 H 0.43782 0.38829 0.97765 0.0
H933 H 0.51095 0.39937 0.98004 0.0
H934 H 0.52659 0.4396 0.99387 0.0
H935 H 0.48191 0.356 0.9866 0.0
H936 H 0.47973 0.39908 0.94471 0.0
H937 H 0.46916 0.42516 0.9306 0.0
H938 H 0.39345 0.37956 0.93683 0.0
H939 H 0.40342 0.35255 0.95047 0.0
C940 C 0.43208 0.26593 0.92746 0.0
C941 C 0.41966 0.24511 0.93506 0.0
C942 C 0.44018 0.28943 0.93436 0.0
C943 C 0.43609 0.29257 0.94898 0.0
C944 C 0.42318 0.27178 0.95649 0.0
C945 C 0.41515 0.24827 0.94962 0.0
C946 C 0.44587 0.31767 0.95645 0.0
C947 C 0.43944 0.33362 0.9501 0.0
C948 C 0.46163 0.32598 0.96968 0.0
C949 C 0.47028 0.31053 0.97648 0.0
C950 C 0.46627 0.30519 0.99104 0.0
C951 C 0.47415 0.29039 0.9974 0.0
C952 C 0.48617 0.28093 0.98932 0.0
C953 C 0.49045 0.28635 0.97488 0.0
C954 C 0.48265 0.30117 0.96848 0.0
C955 C 0.46629 0.42269 0.98858 0.0
C956 C 0.49128 0.43729 0.99348 0.0
C957 C 0.45729 0.39955 0.98086 0.0
C958 C 0.47321 0.39081 0.97766 0.0
C959 C 0.49827 0.40564 0.9824 0.0
C960 C 0.50721 0.42862 0.99028 0.0
C961 C 0.4637 0.36582 0.96999 0.0
C962 C 0.47005 0.34979 0.97637 0.0
C963 C 0.44836 0.35763 0.9566 0.0
C964 C 0.44234 0.37403 0.94873 0.0
C965 C 0.46085 0.39473 0.94314 0.0
C966 C 0.45498 0.40964 0.93521 0.0
C967 C 0.43075 0.40431 0.93303 0.0
C968 C 0.41224 0.38377 0.93858 0.0
C969 C 0.41795 0.36852 0.9463 0.0
H970 H 0.4263 0.41599 0.92694 0.0
H971 H 0.49222 0.26944 0.99425 0.0
H972 H 0.2129 0.74238 0.0641 0.0
H973 H 0.1834 0.70296 0.05036 0.0
H974 H 0.12406 0.70861 0.06722 0.0
H975 H 0.15355 0.74801 0.0811 0.0
H976 H 0.11664 0.66352 0.06853 0.0
H977 H 0.1375 0.71923 0.03175 0.0
H978 H 0.16496 0.75186 0.01724 0.0
H979 H 0.1934 0.70656 0.00147 0.0
H980 H 0.16635 0.67377 0.01605 0.0
H981 H 0.02357 0.56763 0.01674 0.0
H982 H 0.05113 0.60761 0.0308 0.0
H983 H 0.11342 0.60212 0.01936 0.0
H984 H 0.08603 0.5621 0.0055 0.0
H985 H 0.11782 0.64746 0.01508 0.0
H986 H 0.09727 0.59225 0.05283 0.0
H987 H 0.06958 0.56012 0.06753 0.0
H988 H 0.03936 0.60495 0.08108 0.0
H989 H 0.06673 0.63727 0.06634 0.0
C990 C 0.19355 0.73534 0.06475 0.0
C991 C 0.18553 0.74833 0.07362 0.0
C992 C 0.17671 0.71281 0.05691 0.0
C993 C 0.15148 0.70295 0.05762 0.0
C994 C 0.14342 0.71584 0.06652 0.0
C995 C 0.16028 0.73832 0.07444 0.0
C996 C 0.13357 0.67905 0.04921 0.0
C997 C 0.11666 0.66015 0.0568 0.0
C998 C 0.13382 0.67449 0.03395 0.0
C999 C 0.15005 0.69413 0.0251 0.0
C1000 C 0.14974 0.71629 0.02527 0.0
C1001 C 0.16521 0.73481 0.01702 0.0
C1002 C 0.18095 0.73131 0.00847 0.0
C1003 C 0.18121 0.70925 0.00811 0.0
C1004 C 0.1658 0.69069 0.01636 0.0
C1005 C 0.04313 0.5749 0.01733 0.0
C1006 C 0.0527 0.56177 0.01011 0.0
C1007 C 0.05883 0.59769 0.02535 0.0
C1008 C 0.08429 0.60772 0.02616 0.0
C1009 C 0.09383 0.59469 0.01885 0.0
C1010 C 0.07817 0.57185 0.01096 0.0
C1011 C 0.10111 0.63199 0.03443 0.0
C1012 C 0.11778 0.65094 0.0268 0.0
C1013 C 0.10051 0.63662 0.04962 0.0
C1014 C 0.08389 0.61708 0.05837 0.0
C1015 C 0.08456 0.59516 0.05883 0.0
C1016 C 0.06895 0.57693 0.0672 0.0
C1017 C 0.05268 0.58048 0.07521 0.0
C1018 C 0.05196 0.60223 0.07486 0.0
C1019 C 0.06754 0.62052 0.06652 0.0
H1020 H 0.0407 0.56647 0.08176 0.0
H1021 H 0.19292 0.74567 0.00209 0.0
H1022 H 0.26925 0.46811 0.06886 0.0
H1023 H 0.30443 0.47312 0.05668 0.0
H1024 H 0.30572 0.41643 0.07994 0.0
H1025 H 0.26947 0.40996 0.09152 0.0
H1026 H 0.35341 0.47427 0.07888 0.0
H1027 H 0.29297 0.39401 0.05283 0.0
H1028 H 0.25304 0.36601 0.0387 0.0
H1029 H 0.26995 0.41673 0.00614 0.0
H1030 H 0.30985 0.44521 0.02022 0.0
H1031 H 0.45128 0.47434 0.04459 0.0
H1032 H 0.41505 0.46365 0.05737 0.0
H1033 H 0.38046 0.4751 0.01907 0.0
H1034 H 0.41628 0.48484 0.00613 0.0
H1035 H 0.34841 0.43725 0.02864 0.0
H1036 H 0.40608 0.51703 0.05208 0.0
H1037 H 0.44306 0.55112 0.06611 0.0
H1038 H 0.43083 0.50855 0.10273 0.0
H1039 H 0.3939 0.474 0.08882 0.0
C1040 C 0.27654 0.45624 0.07119 0.0
C1041 C 0.26629 0.43854 0.0812 0.0
C1042 C 0.29681 0.45932 0.06428 0.0
C1043 C 0.30748 0.44506 0.06739 0.0
C1044 C 0.2976 0.42754 0.0774 0.0
C1045 C 0.27701 0.42408 0.08411 0.0
C1046 C 0.32957 0.44927 0.06052 0.0
C1047 C 0.3525 0.46584 0.06802 0.0
C1048 C 0.32809 0.43898 0.04616 0.0
C1049 C 0.30422 0.42184 0.03767 0.0
C1050 C 0.28804 0.39931 0.04275 0.0
C1051 C 0.26545 0.38332 0.03472 0.0
C1052 C 0.25892 0.38962 0.02155 0.0
C1053 C 0.27501 0.41189 0.01636 0.0
C1054 C 0.29761 0.42795 0.02435 0.0
C1055 C 0.43602 0.47476 0.03896 0.0
C1056 C 0.43668 0.48056 0.02439 0.0
C1057 C 0.41529 0.46869 0.04629 0.0
C1058 C 0.39501 0.46887 0.0393 0.0
C1059 C 0.39574 0.47471 0.02473 0.0
C1060 C 0.41626 0.48032 0.01733 0.0
C1061 C 0.37281 0.46248 0.04697 0.0
C1062 C 0.34968 0.44553 0.0396 0.0
C1063 C 0.37413 0.47293 0.06138 0.0
C1064 C 0.39736 0.49285 0.06934 0.0
C1065 C 0.4115 0.51477 0.06303 0.0
C1066 C 0.4324 0.53423 0.071 0.0
C1067 C 0.43924 0.53205 0.08534 0.0
C1068 C 0.42547 0.51023 0.09164 0.0
C1069 C 0.40456 0.4907 0.08371 0.0
H1070 H 0.45512 0.54733 0.09161 0.0
H1071 H 0.24143 0.37722 0.01535 0.0
H1072 H 0.60853 0.86709 0.07428 0.0
H1073 H 0.59437 0.89219 0.0625 0.0
H1074 H 0.52481 0.82713 0.04831 0.0
H1075 H 0.53887 0.80195 0.06004 0.0
H1076 H 0.54147 0.85541 0.02654 0.0
H1077 H 0.53117 0.86755 0.07715 0.0
H1078 H 0.54394 0.87839 0.10371 0.0
H1079 H 0.59766 0.9516 0.09603 0.0
H1080 H 0.58545 0.94109 0.06938 0.0
H1081 H 0.47296 0.91133 0.00637 0.0
H1082 H 0.48819 0.88824 0.01951 0.0
H1083 H 0.55846 0.95421 0.02993 0.0
H1084 H 0.54332 0.97744 0.01669 0.0
H1085 H 0.54248 0.92654 0.05361 0.0
H1086 H 0.5522 0.91408 0.0029 0.0
H1087 H 0.53878 0.90301 0.9764 0.0
H1088 H 0.48533 0.82994 0.98451 0.0
H1089 H 0.4982 0.84068 0.01109 0.0
C1090 C 0.59015 0.85818 0.06874 0.0
C1091 C 0.5748 0.83256 0.06809 0.0
C1092 C 0.58209 0.87253 0.06203 0.0
C1093 C 0.55844 0.86156 0.05467 0.0
C1094 C 0.54314 0.83597 0.05392 0.0
C1095 C 0.55122 0.8216 0.06058 0.0
C1096 C 0.54974 0.87666 0.04751 0.0
C1097 C 0.54139 0.87076 0.03251 0.0
C1098 C 0.55022 0.89707 0.05523 0.0
C1099 C 0.55757 0.90345 0.07125 0.0
C1100 C 0.54585 0.8859 0.08111 0.0
C1101 C 0.55296 0.89199 0.09619 0.0
C1102 C 0.57165 0.91565 0.10155 0.0
C1103 C 0.58322 0.93328 0.09185 0.0
C1104 C 0.5762 0.92726 0.07676 0.0
C1105 C 0.49164 0.92092 0.01149 0.0
C1106 C 0.50702 0.94613 0.01049 0.0
C1107 C 0.5003 0.90772 0.01898 0.0
C1108 C 0.52452 0.91949 0.02554 0.0
C1109 C 0.53972 0.94483 0.02491 0.0
C1110 C 0.53107 0.95804 0.01737 0.0
C1111 C 0.53407 0.90512 0.03271 0.0
C1112 C 0.5426 0.9112 0.04767 0.0
C1113 C 0.5337 0.88481 0.02499 0.0
C1114 C 0.52601 0.87826 0.009 0.0
C1115 C 0.53745 0.89571 0.99904 0.0
C1116 C 0.52997 0.88948 0.98401 0.0
C1117 C 0.51117 0.86581 0.97878 0.0
C1118 C 0.49986 0.84828 0.98858 0.0
C1119 C 0.50726 0.85442 0.00363 0.0
H1120 H 0.5054 0.86102 0.96713 0.0
H1121 H 0.57712 0.92033 0.11323 0.0
H1122 H 0.90989 0.16461 0.38658 0.0
H1123 H 0.94658 0.19201 0.37526 0.0
H1124 H 0.99142 0.20115 0.41504 0.0
H1125 H 0.95473 0.17381 0.42646 0.0
H1126 H 0.00726 0.24413 0.40388 0.0
H1127 H 0.98574 0.16238 0.38556 0.0
H1128 H 0.95852 0.12019 0.37378 0.0
H1129 H 0.94914 0.14867 0.33411 0.0
H1130 H 0.97603 0.19107 0.34573 0.0
H1131 H 0.12083 0.29126 0.37437 0.0
H1132 H 0.08373 0.26599 0.38573 0.0
H1133 H 0.04004 0.25718 0.34549 0.0
H1134 H 0.07731 0.28208 0.33387 0.0
H1135 H 0.02338 0.21449 0.35683 0.0
H1136 H 0.04606 0.29691 0.37569 0.0
H1137 H 0.07453 0.33862 0.38776 0.0
H1138 H 0.08313 0.30825 0.42679 0.0
H1139 H 0.05485 0.26633 0.4149 0.0
C1140 C 0.92758 0.1724 0.3929 0.0
C1141 C 0.92944 0.16688 0.40737 0.0
C1142 C 0.94853 0.18807 0.38643 0.0
C1143 C 0.97179 0.19833 0.39422 0.0
C1144 C 0.97366 0.19342 0.40881 0.0
C1145 C 0.95269 0.17783 0.41533 0.0
C1146 C 0.99417 0.21379 0.38706 0.0
C1147 C 0.01091 0.23756 0.39367 0.0
C1148 C 0.99877 0.20537 0.37361 0.0
C1149 C 0.9827 0.1799 0.36657 0.0
C1150 C 0.97772 0.15965 0.37436 0.0
C1151 C 0.96237 0.1357 0.36771 0.0
C1152 C 0.95205 0.13175 0.35322 0.0
C1153 C 0.95711 0.15176 0.34534 0.0
C1154 C 0.97242 0.17575 0.35195 0.0
C1155 C 0.10339 0.28407 0.36791 0.0
C1156 C 0.1021 0.28883 0.35321 0.0
C1157 C 0.08213 0.26966 0.37447 0.0
C1158 C 0.05905 0.26001 0.36656 0.0
C1159 C 0.05766 0.26451 0.35183 0.0
C1160 C 0.07898 0.27878 0.34521 0.0
C1161 C 0.03642 0.24489 0.3736 0.0
C1162 C 0.01966 0.22114 0.36699 0.0
C1163 C 0.0319 0.25327 0.38709 0.0
C1164 C 0.04846 0.27848 0.39437 0.0
C1165 C 0.05409 0.29912 0.38683 0.0
C1166 C 0.07018 0.3228 0.39364 0.0
C1167 C 0.08066 0.32608 0.40803 0.0
C1168 C 0.07499 0.30568 0.41565 0.0
C1169 C 0.05889 0.28196 0.40889 0.0
H1170 H 0.09316 0.34442 0.41327 0.0
H1171 H 0.94017 0.1132 0.34809 0.0
H1172 H 0.85342 0.76066 0.39534 0.0
H1173 H 0.82314 0.76894 0.38332 0.0
H1174 H 0.82822 0.81361 0.4224 0.0
H1175 H 0.85788 0.80461 0.4346 0.0
H1176 H 0.78283 0.78683 0.41241 0.0
H1177 H 0.85544 0.83871 0.39063 0.0
H1178 H 0.8921 0.84933 0.3779 0.0
H1179 H 0.84696 0.79986 0.34032 0.0
H1180 H 0.81003 0.78868 0.35291 0.0
H1181 H 0.72101 0.84168 0.37779 0.0
H1182 H 0.75174 0.83476 0.39039 0.0
H1183 H 0.74405 0.78473 0.35352 0.0
H1184 H 0.71374 0.79205 0.34066 0.0
H1185 H 0.79117 0.81557 0.36284 0.0
H1186 H 0.71802 0.76447 0.38604 0.0
H1187 H 0.68258 0.75757 0.39912 0.0
H1188 H 0.73078 0.8101 0.43478 0.0
H1189 H 0.76652 0.81754 0.42183 0.0
C1190 C 0.84818 0.7724 0.4013 0.0
C1191 C 0.85804 0.78209 0.41586 0.0
C1192 C 0.83092 0.77718 0.39442 0.0
C1193 C 0.82361 0.79223 0.40186 0.0
C1194 C 0.83351 0.80194 0.41643 0.0
C1195 C 0.85048 0.79684 0.42338 0.0
C1196 C 0.80541 0.79757 0.39453 0.0
C1197 C 0.78485 0.79342 0.40165 0.0
C1198 C 0.80782 0.80594 0.38041 0.0
C1199 C 0.82998 0.81269 0.37277 0.0
C1200 C 0.85334 0.82996 0.37969 0.0
C1201 C 0.87417 0.8361 0.37249 0.0
C1202 C 0.87187 0.82523 0.35832 0.0
C1203 C 0.84872 0.80824 0.35131 0.0
C1204 C 0.82783 0.80201 0.35846 0.0
C1205 C 0.72577 0.82913 0.37236 0.0
C1206 C 0.71485 0.81736 0.35822 0.0
C1207 C 0.74329 0.82512 0.37962 0.0
C1208 C 0.74998 0.80897 0.37299 0.0
C1209 C 0.73915 0.79724 0.35886 0.0
C1210 C 0.72176 0.80139 0.35154 0.0
C1211 C 0.76855 0.80455 0.38064 0.0
C1212 C 0.78919 0.80895 0.37359 0.0
C1213 C 0.7664 0.7968 0.39491 0.0
C1214 C 0.74494 0.79169 0.40291 0.0
C1215 C 0.72106 0.7746 0.39665 0.0
C1216 C 0.70092 0.77061 0.40404 0.0
C1217 C 0.70442 0.78344 0.41775 0.0
C1218 C 0.72809 0.80019 0.42415 0.0
C1219 C 0.7483 0.80427 0.4168 0.0
H1220 H 0.68881 0.7804 0.42343 0.0
H1221 H 0.88801 0.83 0.35277 0.0
H1222 H 0.2109 0.08043 0.39079 0.0
H1223 H 0.19756 0.03951 0.37868 0.0
H1224 H 0.26673 0.04655 0.39387 0.0
H1225 H 0.28041 0.08779 0.40581 0.0
H1226 H 0.25221 0.02775 0.3649 0.0
H1227 H 0.21779 0.01251 0.41077 0.0
H1228 H 0.19418 0.01556 0.43037 0.0
H1229 H 0.12909 0.98227 0.4001 0.0
H1230 H 0.1524 0.9794 0.38025 0.0
H1231 H 0.21491 0.90163 0.34833 0.0
H1232 H 0.23019 0.94265 0.36099 0.0
H1233 H 0.16062 0.93736 0.34919 0.0
H1234 H 0.14504 0.89602 0.33688 0.0
H1235 H 0.17645 0.95524 0.37714 0.0
H1236 H 0.21099 0.9719 0.33106 0.0
H1237 H 0.23442 0.96862 0.3114 0.0
H1238 H 0.29897 0.99902 0.34195 0.0
H1239 H 0.27583 0.00217 0.36185 0.0
C1240 C 0.22337 0.07338 0.39141 0.0
C1241 C 0.2467 0.08729 0.39924 0.0
C1242 C 0.21564 0.04993 0.38461 0.0
C1243 C 0.23107 0.03993 0.38553 0.0
C1244 C 0.25454 0.05393 0.39309 0.0
C1245 C 0.26226 0.07738 0.39997 0.0
C1246 C 0.22261 0.01484 0.37857 0.0
C1247 C 0.23584 0.01182 0.36771 0.0
C1248 C 0.20098 0.9942 0.38206 0.0
C1249 C 0.18692 0.99599 0.39398 0.0
C1250 C 0.1985 0.00606 0.40825 0.0
C1251 C 0.18515 0.00772 0.41942 0.0
C1252 C 0.16016 0.99918 0.41647 0.0
C1253 C 0.14846 0.98892 0.40236 0.0
C1254 C 0.16173 0.98727 0.39115 0.0
C1255 C 0.20287 0.90921 0.34849 0.0
C1256 C 0.1788 0.89571 0.34167 0.0
C1257 C 0.21166 0.93269 0.35564 0.0
C1258 C 0.19663 0.94317 0.35589 0.0
C1259 C 0.17253 0.92962 0.34911 0.0
C1260 C 0.1637 0.90609 0.34204 0.0
C1261 C 0.20588 0.96816 0.36334 0.0
C1262 C 0.19283 0.97116 0.37433 0.0
C1263 C 0.22764 0.98878 0.35994 0.0
C1264 C 0.24162 0.98704 0.34797 0.0
C1265 C 0.23014 0.97771 0.33361 0.0
C1266 C 0.24337 0.97591 0.32242 0.0
C1267 C 0.26815 0.98355 0.32543 0.0
C1268 C 0.27976 0.99308 0.33963 0.0
C1269 C 0.26661 0.9949 0.35087 0.0
H1270 H 0.27836 0.98213 0.31675 0.0
H1271 H 0.14986 0.00046 0.42514 0.0
H1272 H 0.49415 0.60223 0.25045 0.0
H1273 H 0.52211 0.64088 0.26543 0.0
H1274 H 0.51905 0.60104 0.30257 0.0
H1275 H 0.49111 0.56213 0.28755 0.0
H1276 H 0.5118 0.65885 0.29046 0.0
H1277 H 0.57703 0.63602 0.32313 0.0
H1278 H 0.5942 0.60858 0.32051 0.0
H1279 H 0.5867 0.60771 0.27364 0.0
H1280 H 0.56982 0.6354 0.27599 0.0
H1281 H 0.58139 0.75977 0.34423 0.0
H1282 H 0.556 0.71726 0.33316 0.0
H1283 H 0.6149 0.7255 0.30825 0.0
H1284 H 0.64096 0.7671 0.32039 0.0
H1285 H 0.59329 0.68191 0.31503 0.0
H1286 H 0.56247 0.73335 0.29578 0.0
H1287 H 0.54484 0.76036 0.29824 0.0
H1288 H 0.48296 0.7038 0.31639 0.0
H1289 H 0.5006 0.67675 0.31446 0.0
C1290 C 0.49971 0.60165 0.26174 0.0
C1291 C 0.49048 0.57915 0.26783 0.0
C1292 C 0.51555 0.62375 0.27031 0.0
C1293 C 0.52269 0.6238 0.28508 0.0
C1294 C 0.51389 0.60136 0.29115 0.0
C1295 C 0.49784 0.57921 0.2826 0.0
C1296 C 0.53836 0.64751 0.29423 0.0
C1297 C 0.52964 0.66392 0.29585 0.0
C1298 C 0.56152 0.65399 0.30131 0.0
C1299 C 0.57189 0.63755 0.29975 0.0
C1300 C 0.57911 0.63002 0.31227 0.0
C1301 C 0.58879 0.61443 0.31083 0.0
C1302 C 0.59145 0.60633 0.29691 0.0
C1303 C 0.58453 0.6139 0.28441 0.0
C1304 C 0.57486 0.62951 0.28579 0.0
C1305 C 0.58892 0.75238 0.33648 0.0
C1306 C 0.61292 0.7669 0.33287 0.0
C1307 C 0.57436 0.72812 0.33007 0.0
C1308 C 0.58316 0.7183 0.31945 0.0
C1309 C 0.6075 0.7326 0.31629 0.0
C1310 C 0.62232 0.75652 0.32309 0.0
C1311 C 0.56693 0.69365 0.31113 0.0
C1312 C 0.57545 0.67692 0.30971 0.0
C1313 C 0.54353 0.68685 0.30415 0.0
C1314 C 0.53295 0.70314 0.3051 0.0
C1315 C 0.54517 0.72675 0.30036 0.0
C1316 C 0.53517 0.74206 0.30168 0.0
C1317 C 0.51274 0.73376 0.30745 0.0
C1318 C 0.50032 0.71019 0.31194 0.0
C1319 C 0.51034 0.6949 0.31078 0.0
H1320 H 0.50487 0.74548 0.30844 0.0
H1321 H 0.59894 0.59425 0.29582 0.0
H1322 H 0.37901 0.88505 0.23731 0.0
H1323 H 0.34243 0.87465 0.24968 0.0
H1324 H 0.38755 0.91075 0.29053 0.0
H1325 H 0.42419 0.92112 0.27822 0.0
H1326 H 0.3497 0.86742 0.29461 0.0
H1327 H 0.36053 0.93718 0.27039 0.0
H1328 H 0.36586 0.96125 0.24932 0.0
H1329 H 0.29674 0.90407 0.2279 0.0
H1330 H 0.29114 0.8795 0.24876 0.0
H1331 H 0.25973 0.8716 0.33504 0.0
H1332 H 0.29591 0.88274 0.32216 0.0
H1333 H 0.24981 0.84542 0.28178 0.0
H1334 H 0.21353 0.83448 0.29451 0.0
H1335 H 0.2878 0.88904 0.27725 0.0
H1336 H 0.27676 0.81928 0.30115 0.0
H1337 H 0.27112 0.79472 0.322 0.0
H1338 H 0.34031 0.85125 0.34372 0.0
H1339 H 0.34621 0.87632 0.32308 0.0
C1340 C 0.38116 0.89102 0.24889 0.0
C1341 C 0.40452 0.90396 0.25678 0.0
C1342 C 0.36023 0.88505 0.25596 0.0
C1343 C 0.36223 0.89213 0.27102 0.0
C1344 C 0.38553 0.90505 0.27891 0.0
C1345 C 0.40646 0.91092 0.27187 0.0
C1346 C 0.34005 0.88564 0.27863 0.0
C1347 C 0.33635 0.87247 0.29093 0.0
C1348 C 0.32225 0.8916 0.2736 0.0
C1349 C 0.32553 0.9064 0.26108 0.0
C1350 C 0.34655 0.92966 0.26114 0.0
C1351 C 0.3496 0.94341 0.24924 0.0
C1352 C 0.33168 0.93417 0.23726 0.0
C1353 C 0.31062 0.91119 0.23718 0.0
C1354 C 0.30749 0.89736 0.24904 0.0
C1355 C 0.25724 0.86572 0.32342 0.0
C1356 C 0.23368 0.85204 0.31584 0.0
C1357 C 0.27797 0.87204 0.31608 0.0
C1358 C 0.27558 0.86467 0.30103 0.0
C1359 C 0.25211 0.85128 0.2934 0.0
C1360 C 0.23136 0.84496 0.30072 0.0
C1361 C 0.29756 0.87096 0.29326 0.0
C1362 C 0.30118 0.88404 0.28093 0.0
C1363 C 0.31526 0.86485 0.29823 0.0
C1364 C 0.31181 0.84978 0.31063 0.0
C1365 C 0.29069 0.82656 0.31042 0.0
C1366 C 0.28745 0.81253 0.3222 0.0
C1367 C 0.30531 0.82144 0.33419 0.0
C1368 C 0.32648 0.84438 0.33443 0.0
C1369 C 0.32978 0.8585 0.32269 0.0
H1370 H 0.30278 0.81055 0.3433 0.0
H1371 H 0.33408 0.94484 0.22806 0.0
H1372 H 0.07677 0.50416 0.29262 0.0
H1373 H 0.09044 0.47909 0.30487 0.0
H1374 H 0.10439 0.45547 0.26333 0.0
H1375 H 0.09238 0.48166 0.25103 0.0
H1376 H 0.07532 0.41714 0.28653 0.0
H1377 H 0.15051 0.4923 0.27776 0.0
H1378 H 0.17609 0.53746 0.27938 0.0
H1379 H 0.17499 0.54199 0.32618 0.0
H1380 H 0.14906 0.49684 0.32478 0.0
H1381 H 0.1439 0.36175 0.30678 0.0
H1382 H 0.12702 0.38455 0.29504 0.0
H1383 H 0.15063 0.43528 0.33434 0.0
H1384 H 0.16886 0.41313 0.34564 0.0
H1385 H 0.15886 0.46008 0.31298 0.0
H1386 H 0.08815 0.3874 0.32371 0.0
H1387 H 0.06039 0.34287 0.32408 0.0
H1388 H 0.04935 0.33352 0.27699 0.0
H1389 H 0.07732 0.37796 0.27632 0.0
C1390 C 0.08292 0.49383 0.28606 0.0
C1391 C 0.08364 0.49518 0.27081 0.0
C1392 C 0.09046 0.47932 0.29307 0.0
C1393 C 0.09836 0.46554 0.28495 0.0
C1394 C 0.09816 0.46593 0.26971 0.0
C1395 C 0.09113 0.48083 0.26271 0.0
C1396 C 0.10825 0.45189 0.29249 0.0
C1397 C 0.09365 0.42635 0.29221 0.0
C1398 C 0.13177 0.4642 0.30029 0.0
C1399 C 0.14763 0.49127 0.30114 0.0
C1400 C 0.15553 0.50295 0.28837 0.0
C1401 C 0.17013 0.52854 0.28926 0.0
C1402 C 0.1771 0.5426 0.30287 0.0
C1403 C 0.16955 0.53109 0.31564 0.0
C1404 C 0.15491 0.5055 0.3148 0.0
C1405 C 0.14526 0.37761 0.31288 0.0
C1406 C 0.1573 0.38551 0.32711 0.0
C1407 C 0.13555 0.39064 0.30623 0.0
C1408 C 0.13692 0.41132 0.31392 0.0
C1409 C 0.14921 0.41935 0.32816 0.0
C1410 C 0.15956 0.40669 0.33463 0.0
C1411 C 0.12606 0.4249 0.307 0.0
C1412 C 0.14046 0.45059 0.30739 0.0
C1413 C 0.10205 0.4127 0.29962 0.0
C1414 C 0.085 0.38599 0.29997 0.0
C1415 C 0.07991 0.37583 0.31343 0.0
C1416 C 0.06413 0.3506 0.31369 0.0
C1417 C 0.05315 0.33537 0.30057 0.0
C1418 C 0.05788 0.34534 0.28715 0.0
C1419 C 0.07368 0.37055 0.28682 0.0
H1420 H 0.04095 0.31585 0.30079 0.0
H1421 H 0.1884 0.5624 0.30354 0.0
H1422 H 0.3859 0.49335 0.24239 0.0
H1423 H 0.34845 0.46587 0.25302 0.0
H1424 H 0.39079 0.47549 0.294 0.0
H1425 H 0.42838 0.50204 0.28325 0.0
H1426 H 0.35616 0.42896 0.28797 0.0
H1427 H 0.3595 0.50695 0.28861 0.0
H1428 H 0.36253 0.54317 0.27787 0.0
H1429 H 0.29686 0.49651 0.24925 0.0
H1430 H 0.29362 0.45997 0.25968 0.0
H1431 H 0.26142 0.38879 0.33505 0.0
H1432 H 0.29817 0.41379 0.32307 0.0
H1433 H 0.25369 0.39963 0.28226 0.0
H1434 H 0.21686 0.37484 0.29413 0.0
H1435 H 0.28871 0.44757 0.28757 0.0
H1436 H 0.28482 0.36964 0.28758 0.0
H1437 H 0.28173 0.33362 0.2986 0.0
H1438 H 0.34846 0.38041 0.32631 0.0
H1439 H 0.35177 0.41677 0.3156 0.0
C1440 C 0.3873 0.48933 0.25359 0.0
C1441 C 0.41018 0.50007 0.26199 0.0
C1442 C 0.36582 0.47382 0.25971 0.0
C1443 C 0.36674 0.46894 0.2744 0.0
C1444 C 0.38959 0.47909 0.28267 0.0
C1445 C 0.41106 0.49447 0.27655 0.0
C1446 C 0.34395 0.45357 0.28125 0.0
C1447 C 0.34154 0.43321 0.28802 0.0
C1448 C 0.3246 0.45876 0.28106 0.0
C1449 C 0.32646 0.48071 0.27482 0.0
C1450 C 0.3458 0.5044 0.27995 0.0
C1451 C 0.34755 0.52499 0.27393 0.0
C1452 C 0.32994 0.52214 0.26286 0.0
C1453 C 0.31051 0.49869 0.25781 0.0
C1454 C 0.3087 0.47804 0.26378 0.0
C1455 C 0.25942 0.39101 0.32353 0.0
C1456 C 0.23616 0.37973 0.31556 0.0
C1457 C 0.28047 0.40522 0.31668 0.0
C1458 C 0.2787 0.40835 0.30173 0.0
C1459 C 0.2555 0.39743 0.2938 0.0
C1460 C 0.23445 0.3832 0.30062 0.0
C1461 C 0.30102 0.42308 0.29435 0.0
C1462 C 0.30332 0.4433 0.28748 0.0
C1463 C 0.32028 0.4178 0.29448 0.0
C1464 C 0.31842 0.39595 0.30088 0.0
C1465 C 0.29874 0.37227 0.2961 0.0
C1466 C 0.29696 0.35179 0.30228 0.0
C1467 C 0.31486 0.35473 0.31318 0.0
C1468 C 0.3346 0.37816 0.31788 0.0
C1469 C 0.33645 0.39871 0.31175 0.0
H1470 H 0.31345 0.33885 0.31795 0.0
H1471 H 0.33132 0.5381 0.25821 0.0
H1472 H 0.48584 0.92274 0.27793 0.0
H1473 H 0.5162 0.91399 0.28939 0.0
H1474 H 0.51988 0.88135 0.24763 0.0
H1475 H 0.48909 0.88939 0.23621 0.0
H1476 H 0.51488 0.85253 0.26885 0.0
H1477 H 0.56646 0.93758 0.26251 0.0
H1478 H 0.57945 0.98166 0.26475 0.0
H1479 H 0.58557 0.98389 0.31173 0.0
H1480 H 0.57227 0.93971 0.30977 0.0
H1481 H 0.61528 0.83785 0.29223 0.0
H1482 H 0.58917 0.85046 0.27925 0.0
H1483 H 0.58562 0.88638 0.31979 0.0
H1484 H 0.61202 0.87425 0.33281 0.0
H1485 H 0.59199 0.91469 0.29829 0.0
H1486 H 0.53748 0.83065 0.30514 0.0
H1487 H 0.52165 0.78622 0.3039 0.0
H1488 H 0.51916 0.78179 0.25688 0.0
H1489 H 0.5353 0.82652 0.25789 0.0
C1490 C 0.49309 0.91365 0.2712 0.0
C1491 C 0.48508 0.90679 0.25615 0.0
C1492 C 0.51063 0.90891 0.27773 0.0
C1493 C 0.52053 0.89728 0.26933 0.0
C1494 C 0.51261 0.89048 0.2543 0.0
C1495 C 0.49512 0.89523 0.24777 0.0
C1496 C 0.53814 0.89095 0.27632 0.0
C1497 C 0.53198 0.86621 0.27505 0.0
C1498 C 0.56008 0.90868 0.28477 0.0
C1499 C 0.56815 0.93527 0.28599 0.0
C1500 C 0.57038 0.94742 0.27332 0.0
C1501 C 0.57784 0.97243 0.27454 0.0
C1502 C 0.58328 0.98556 0.28837 0.0
C1503 C 0.58132 0.9737 0.30102 0.0
C1504 C 0.57385 0.94867 0.29986 0.0
C1505 C 0.60894 0.84842 0.29841 0.0
C1506 C 0.6157 0.85495 0.31359 0.0
C1507 C 0.59395 0.85557 0.29096 0.0
C1508 C 0.58524 0.86921 0.29856 0.0
C1509 C 0.59215 0.87593 0.31368 0.0
C1510 C 0.60717 0.86885 0.32112 0.0
C1511 C 0.56868 0.87623 0.29082 0.0
C1512 C 0.57502 0.90107 0.29196 0.0
C1513 C 0.54677 0.8586 0.2823 0.0
C1514 C 0.53785 0.83192 0.28161 0.0
C1515 C 0.53383 0.82025 0.29455 0.0
C1516 C 0.52469 0.79496 0.29387 0.0
C1517 C 0.51938 0.78108 0.2803 0.0
C1518 C 0.52329 0.79254 0.26738 0.0
C1519 C 0.53242 0.81787 0.268 0.0
H1520 H 0.51215 0.76144 0.27978 0.0
H1521 H 0.58905 0.00492 0.2893 0.0
H1522 H 0.09903 0.5969 0.25289 0.0
H1523 H 0.11195 0.63682 0.2661 0.0
H1524 H 0.09156 0.60288 0.30627 0.0
H1525 H 0.07689 0.56262 0.29293 0.0
H1526 H 0.07958 0.63609 0.30572 0.0
H1527 H 0.15233 0.63409 0.29773 0.0
H1528 H 0.1813 0.62861 0.28341 0.0
H1529 H 0.1905 0.68752 0.25842 0.0
H1530 H 0.16131 0.69313 0.27247 0.0
H1531 H 0.18888 0.76492 0.33941 0.0
H1532 H 0.17312 0.72333 0.32754 0.0
H1533 H 0.10669 0.72133 0.31129 0.0
H1534 H 0.12176 0.76221 0.32399 0.0
H1535 H 0.16274 0.7053 0.30099 0.0
H1536 H 0.05896 0.66396 0.30642 0.0
H1537 H 0.03223 0.66789 0.32354 0.0
H1538 H 0.08926 0.69286 0.35899 0.0
H1539 H 0.11621 0.68877 0.34213 0.0
C1540 C 0.0968 0.59779 0.26447 0.0
C1541 C 0.08699 0.57646 0.27184 0.0
C1542 C 0.10454 0.62073 0.27206 0.0
C1543 C 0.1032 0.62296 0.28725 0.0
C1544 C 0.09292 0.60168 0.29458 0.0
C1545 C 0.0848 0.57867 0.28695 0.0
C1546 C 0.11287 0.64748 0.29555 0.0
C1547 C 0.09777 0.65122 0.30469 0.0
C1548 C 0.13681 0.66711 0.2945 0.0
C1549 C 0.15446 0.66387 0.28606 0.0
C1550 C 0.1604 0.64576 0.28912 0.0
C1551 C 0.17688 0.64265 0.28106 0.0
C1552 C 0.18769 0.65767 0.26999 0.0
C1553 C 0.18209 0.67588 0.26699 0.0
C1554 C 0.16559 0.67905 0.275 0.0
C1555 C 0.17082 0.75547 0.33341 0.0
C1556 C 0.15657 0.76678 0.33253 0.0
C1557 C 0.16187 0.73177 0.32657 0.0
C1558 C 0.13861 0.71904 0.3186 0.0
C1559 C 0.12447 0.7305 0.31761 0.0
C1560 C 0.13321 0.75399 0.32472 0.0
C1561 C 0.12941 0.69401 0.31111 0.0
C1562 C 0.14456 0.69018 0.30207 0.0
C1563 C 0.10586 0.67408 0.31269 0.0
C1564 C 0.08967 0.67628 0.32297 0.0
C1565 C 0.06575 0.67019 0.31788 0.0
C1566 C 0.05057 0.67246 0.32753 0.0
C1567 C 0.05907 0.6807 0.34233 0.0
C1568 C 0.08273 0.68657 0.34751 0.0
C1569 C 0.09798 0.6843 0.33791 0.0
H1570 H 0.0473 0.68247 0.34978 0.0
H1571 H 0.20044 0.65523 0.26376 0.0
H1572 H 0.81872 0.08761 0.41012 0.0
H1573 H 0.78872 0.04831 0.3964 0.0
H1574 H 0.84724 0.04015 0.38044 0.0
H1575 H 0.87731 0.07937 0.39415 0.0
H1576 H 0.8116 0.02825 0.35879 0.0
H1577 H 0.8164 0.00869 0.40829 0.0
H1578 H 0.81476 0.01277 0.43503 0.0
H1579 H 0.73987 0.99503 0.42807 0.0
H1580 H 0.74118 0.99119 0.40127 0.0
H1581 H 0.74972 0.90119 0.33516 0.0
H1582 H 0.7767 0.94212 0.348 0.0
H1583 H 0.71397 0.94497 0.36144 0.0
H1584 H 0.68681 0.90379 0.34864 0.0
H1585 H 0.74975 0.96035 0.384 0.0
H1586 H 0.74449 0.97785 0.33437 0.0
H1587 H 0.74629 0.97341 0.30767 0.0
H1588 H 0.82217 0.99472 0.31487 0.0
H1589 H 0.82074 0.99896 0.34164 0.0
C1590 C 0.82519 0.07737 0.40375 0.0
C1591 C 0.8504 0.08658 0.40326 0.0
C1592 C 0.80803 0.05493 0.39591 0.0
C1593 C 0.81574 0.04116 0.38752 0.0
C1594 C 0.84087 0.05049 0.38682 0.0
C1595 C 0.85804 0.07294 0.39463 0.0
C1596 C 0.79767 0.01697 0.3795 0.0
C1597 C 0.79825 0.01332 0.36433 0.0
C1598 C 0.77981 0.9977 0.38666 0.0
C1599 C 0.77897 0.99993 0.40277 0.0
C1600 C 0.79964 0.00587 0.41246 0.0
C1601 C 0.79876 0.0081 0.42763 0.0
C1602 C 0.77725 0.00423 0.43324 0.0
C1603 C 0.75654 0.99806 0.4237 0.0
C1604 C 0.75733 0.99584 0.40852 0.0
C1605 C 0.74167 0.91059 0.34079 0.0
C1606 C 0.7162 0.8994 0.34088 0.0
C1607 C 0.7571 0.934 0.34808 0.0
C1608 C 0.74734 0.94673 0.35553 0.0
C1609 C 0.72187 0.9355 0.35572 0.0
C1610 C 0.7064 0.91204 0.34839 0.0
C1611 C 0.76386 0.97157 0.36332 0.0
C1612 C 0.76299 0.97534 0.37844 0.0
C1613 C 0.78148 0.99094 0.35612 0.0
C1614 C 0.78245 0.98853 0.34002 0.0
C1615 C 0.76152 0.98141 0.33027 0.0
C1616 C 0.76248 0.97896 0.31512 0.0
C1617 C 0.78432 0.98373 0.30958 0.0
C1618 C 0.80526 0.99102 0.31918 0.0
C1619 C 0.80439 0.99348 0.33434 0.0
H1620 H 0.78503 0.98182 0.29785 0.0
H1621 H 0.7766 0.00596 0.44499 0.0
H1622 H 0.91529 0.76253 0.39471 0.0
H1623 H 0.95139 0.76955 0.38285 0.0
H1624 H 0.99543 0.79784 0.42463 0.0
H1625 H 0.95952 0.79173 0.4365 0.0
H1626 H 0.01843 0.82647 0.40395 0.0
H1627 H 0.97799 0.74014 0.40852 0.0
H1628 H 0.94351 0.69745 0.40586 0.0
H1629 H 0.93848 0.69738 0.359 0.0
H1630 H 0.97272 0.74021 0.36138 0.0
H1631 H 0.12249 0.82619 0.37993 0.0
H1632 H 0.08678 0.81746 0.39268 0.0
H1633 H 0.04085 0.78884 0.35155 0.0
H1634 H 0.0765 0.79704 0.3387 0.0
H1635 H 0.01928 0.76013 0.37248 0.0
H1636 H 0.05935 0.84714 0.36818 0.0
H1637 H 0.09449 0.8895 0.37104 0.0
H1638 H 0.10069 0.88794 0.41775 0.0
H1639 H 0.06577 0.84544 0.41515 0.0
C1640 C 0.93268 0.77041 0.40138 0.0
C1641 C 0.93447 0.77658 0.41658 0.0
C1642 C 0.95328 0.77417 0.3946 0.0
C1643 C 0.97612 0.78397 0.40286 0.0
C1644 C 0.978 0.79018 0.41803 0.0
C1645 C 0.95739 0.78646 0.42482 0.0
C1646 C 0.99808 0.78815 0.39562 0.0
C1647 C 0.01873 0.81187 0.39725 0.0
C1648 C 0.99835 0.76924 0.38661 0.0
C1649 C 0.97777 0.74347 0.38514 0.0
C1650 C 0.9694 0.73109 0.39765 0.0
C1651 C 0.94993 0.70686 0.39619 0.0
C1652 C 0.93877 0.69473 0.38227 0.0
C1653 C 0.94712 0.7068 0.36977 0.0
C1654 C 0.96657 0.73105 0.37117 0.0
C1655 C 0.10482 0.81805 0.37356 0.0
C1656 C 0.10241 0.81247 0.35826 0.0
C1657 C 0.08439 0.81313 0.38088 0.0
C1658 C 0.06115 0.80285 0.37305 0.0
C1659 C 0.0586 0.79684 0.35782 0.0
C1660 C 0.07902 0.8016 0.35048 0.0
C1661 C 0.03953 0.79846 0.38074 0.0
C1662 C 0.01896 0.77471 0.3792 0.0
C1663 C 0.03935 0.81733 0.38985 0.0
C1664 C 0.06007 0.84304 0.39146 0.0
C1665 C 0.06829 0.85579 0.37905 0.0
C1666 C 0.08816 0.87983 0.38063 0.0
C1667 C 0.09984 0.89139 0.39457 0.0
C1668 C 0.09163 0.87896 0.40696 0.0
C1669 C 0.07178 0.85491 0.40545 0.0
H1670 H 0.11524 0.90999 0.39576 0.0
H1671 H 0.9237 0.67597 0.38116 0.0
H1672 H 0.21318 0.13883 0.39088 0.0
H1673 H 0.20248 0.16607 0.37877 0.0
H1674 H 0.2721 0.2286 0.39604 0.0
H1675 H 0.28311 0.2013 0.40813 0.0
H1676 H 0.2339 0.23701 0.39904 0.0
H1677 H 0.2635 0.20757 0.36069 0.0
H1678 H 0.26668 0.17643 0.3449 0.0
H1679 H 0.19086 0.14325 0.32867 0.0
H1680 H 0.18712 0.17397 0.34453 0.0
H1681 H 0.21741 0.31522 0.35138 0.0
H1682 H 0.23391 0.29282 0.36425 0.0
H1683 H 0.16681 0.22463 0.35085 0.0
H1684 H 0.15011 0.24694 0.33817 0.0
H1685 H 0.20811 0.22219 0.34553 0.0
H1686 H 0.17692 0.24688 0.38568 0.0
H1687 H 0.17172 0.27579 0.40215 0.0
H1688 H 0.24919 0.31707 0.4148 0.0
H1689 H 0.2548 0.2881 0.39839 0.0
C1690 C 0.22637 0.15834 0.39197 0.0
C1691 C 0.2491 0.16789 0.40034 0.0
C1692 C 0.2202 0.17389 0.38507 0.0
C1693 C 0.23665 0.19929 0.38634 0.0
C1694 C 0.25919 0.20901 0.3949 0.0
C1695 C 0.26541 0.19343 0.40182 0.0
C1696 C 0.22998 0.21556 0.37881 0.0
C1697 C 0.22876 0.23413 0.38729 0.0
C1698 C 0.22279 0.21142 0.36353 0.0
C1699 C 0.22499 0.19298 0.35389 0.0
C1700 C 0.24746 0.19353 0.35384 0.0
C1701 C 0.24936 0.17596 0.34486 0.0
C1702 C 0.22897 0.15784 0.33581 0.0
C1703 C 0.20664 0.15729 0.33569 0.0
C1704 C 0.20462 0.17479 0.34466 0.0
C1705 C 0.2061 0.2955 0.35135 0.0
C1706 C 0.18245 0.28279 0.34387 0.0
C1707 C 0.21554 0.28274 0.35867 0.0
C1708 C 0.20153 0.2571 0.35851 0.0
C1709 C 0.17791 0.24442 0.35106 0.0
C1710 C 0.16839 0.25717 0.34386 0.0
C1711 C 0.21165 0.2433 0.3658 0.0
C1712 C 0.21358 0.22527 0.35724 0.0
C1713 C 0.21943 0.24788 0.38099 0.0
C1714 C 0.2163 0.26553 0.3907 0.0
C1715 C 0.19287 0.26225 0.39188 0.0
C1716 C 0.18985 0.27863 0.40123 0.0
C1717 C 0.21014 0.29844 0.40946 0.0
C1718 C 0.2335 0.30177 0.40839 0.0
C1719 C 0.2366 0.28532 0.3991 0.0
H1720 H 0.20777 0.31111 0.4167 0.0
H1721 H 0.23048 0.14426 0.32887 0.0
H1722 H 0.62931 0.50197 0.76413 0.0
H1723 H 0.66347 0.53132 0.75168 0.0
H1724 H 0.61387 0.51813 0.71348 0.0
H1725 H 0.57951 0.48918 0.72594 0.0
H1726 H 0.65447 0.51553 0.70665 0.0
H1727 H 0.63797 0.57256 0.7338 0.0
H1728 H 0.62993 0.58984 0.75623 0.0
H1729 H 0.69931 0.60626 0.77753 0.0
H1730 H 0.70785 0.5892 0.75516 0.0
H1731 H 0.74146 0.61003 0.66849 0.0
H1732 H 0.70516 0.5847 0.68075 0.0
H1733 H 0.7506 0.60087 0.72145 0.0
H1734 H 0.78678 0.62668 0.70942 0.0
H1735 H 0.71084 0.60236 0.72663 0.0
H1736 H 0.72776 0.5458 0.69955 0.0
H1737 H 0.7354 0.52709 0.6776 0.0
H1738 H 0.66476 0.50759 0.65666 0.0
H1739 H 0.65684 0.5265 0.67843 0.0
C1740 C 0.62557 0.50564 0.75319 0.0
C1741 C 0.60164 0.49313 0.74604 0.0
C1742 C 0.64514 0.52235 0.74606 0.0
C1743 C 0.64119 0.52694 0.73166 0.0
C1744 C 0.61733 0.51476 0.72456 0.0
C1745 C 0.59774 0.49815 0.7317 0.0
C1746 C 0.66207 0.54389 0.72387 0.0
C1747 C 0.66658 0.53464 0.71087 0.0
C1748 C 0.67816 0.5686 0.72957 0.0
C1749 C 0.67351 0.57958 0.74285 0.0
C1750 C 0.65152 0.5799 0.74327 0.0
C1751 C 0.64691 0.58969 0.75595 0.0
C1752 C 0.66416 0.59923 0.76827 0.0
C1753 C 0.6861 0.59906 0.76792 0.0
C1754 C 0.69087 0.58942 0.75524 0.0
C1755 C 0.74375 0.60826 0.68006 0.0
C1756 C 0.76714 0.62027 0.68792 0.0
C1757 C 0.72296 0.59369 0.68705 0.0
C1758 C 0.72515 0.59056 0.70199 0.0
C1759 C 0.74841 0.60294 0.70992 0.0
C1760 C 0.76915 0.61763 0.70297 0.0
C1761 C 0.70334 0.57404 0.70934 0.0
C1762 C 0.69867 0.58333 0.72231 0.0
C1763 C 0.68714 0.54927 0.70363 0.0
C1764 C 0.69182 0.53779 0.69056 0.0
C1765 C 0.71393 0.53768 0.69022 0.0
C1766 C 0.7183 0.52702 0.67782 0.0
C1767 C 0.7006 0.51622 0.66573 0.0
C1768 C 0.67847 0.516 0.66603 0.0
C1769 C 0.67402 0.52667 0.6784 0.0
H1770 H 0.70402 0.50798 0.65613 0.0
H1771 H 0.66052 0.6067 0.77811 0.0
H1772 H 0.52207 0.09517 0.73195 0.0
H1773 H 0.49122 0.10261 0.71992 0.0
H1774 H 0.49875 0.1506 0.75793 0.0
H1775 H 0.52897 0.14236 0.7702 0.0
H1776 H 0.45298 0.12429 0.74855 0.0
H1777 H 0.52497 0.17268 0.72536 0.0
H1778 H 0.56101 0.18134 0.71243 0.0
H1779 H 0.51432 0.12954 0.67607 0.0
H1780 H 0.478 0.12031 0.68887 0.0
H1781 H 0.39152 0.17745 0.71116 0.0
H1782 H 0.42187 0.17082 0.72451 0.0
H1783 H 0.41297 0.11767 0.68923 0.0
H1784 H 0.38311 0.12475 0.67558 0.0
H1785 H 0.46013 0.14851 0.69786 0.0
H1786 H 0.38769 0.1008 0.72255 0.0
H1787 H 0.35293 0.09561 0.73581 0.0
H1788 H 0.40262 0.15081 0.76996 0.0
H1789 H 0.43767 0.15651 0.75682 0.0
C1790 C 0.51719 0.10739 0.73769 0.0
C1791 C 0.52801 0.11835 0.75194 0.0
C1792 C 0.49961 0.11169 0.73081 0.0
C1793 C 0.49294 0.12757 0.73789 0.0
C1794 C 0.50358 0.13832 0.75222 0.0
C1795 C 0.52087 0.13367 0.75921 0.0
C1796 C 0.47488 0.13288 0.73034 0.0
C1797 C 0.45474 0.12989 0.73754 0.0
C1798 C 0.47698 0.14003 0.71591 0.0
C1799 C 0.49877 0.14565 0.70814 0.0
C1800 C 0.5224 0.16301 0.71465 0.0
C1801 C 0.54288 0.16804 0.70734 0.0
C1802 C 0.53996 0.15596 0.69346 0.0
C1803 C 0.51655 0.13887 0.68683 0.0
C1804 C 0.49601 0.13375 0.6941 0.0
C1805 C 0.39595 0.16429 0.70624 0.0
C1806 C 0.38489 0.15164 0.69228 0.0
C1807 C 0.41323 0.16042 0.71394 0.0
C1808 C 0.41951 0.14352 0.70796 0.0
C1809 C 0.4084 0.13079 0.69406 0.0
C1810 C 0.39127 0.1348 0.6863 0.0
C1811 C 0.4381 0.1395 0.71597 0.0
C1812 C 0.4584 0.14286 0.70887 0.0
C1813 C 0.43634 0.13312 0.73055 0.0
C1814 C 0.41529 0.12919 0.73865 0.0
C1815 C 0.39119 0.11188 0.73286 0.0
C1816 C 0.37145 0.10885 0.74035 0.0
C1817 C 0.37557 0.1229 0.7537 0.0
C1818 C 0.39946 0.13994 0.75962 0.0
C1819 C 0.41927 0.14305 0.75216 0.0
H1820 H 0.36025 0.12055 0.75947 0.0
H1821 H 0.55584 0.15987 0.68782 0.0
H1822 H 0.93312 0.43239 0.71239 0.0
H1823 H 0.91785 0.39094 0.70028 0.0
H1824 H 0.87835 0.35993 0.7374 0.0
H1825 H 0.89437 0.40128 0.74971 0.0
H1826 H 0.89608 0.33362 0.72867 0.0
H1827 H 0.85028 0.36518 0.70478 0.0
H1828 H 0.84398 0.39496 0.69173 0.0
H1829 H 0.87994 0.38529 0.65586 0.0
H1830 H 0.88679 0.3557 0.6688 0.0
H1831 H 0.80569 0.22702 0.66936 0.0
H1832 H 0.82048 0.26751 0.68276 0.0
H1833 H 0.89183 0.27543 0.69169 0.0
H1834 H 0.87715 0.23504 0.67831 0.0
H1835 H 0.85555 0.31225 0.67773 0.0
H1836 H 0.91612 0.30279 0.72348 0.0
H1837 H 0.91474 0.27166 0.73913 0.0
H1838 H 0.83622 0.23476 0.73465 0.0
H1839 H 0.83718 0.26509 0.71865 0.0
C1840 C 0.92131 0.41666 0.71795 0.0
C1841 C 0.91487 0.41992 0.73194 0.0
C1842 C 0.9125 0.39302 0.71103 0.0
C1843 C 0.89658 0.37229 0.71781 0.0
C1844 C 0.89061 0.3756 0.73194 0.0
C1845 C 0.89976 0.39921 0.73897 0.0
C1846 C 0.88575 0.34716 0.71013 0.0
C1847 C 0.88733 0.32906 0.71751 0.0
C1848 C 0.87357 0.34084 0.69573 0.0
C1849 C 0.86925 0.35841 0.68783 0.0
C1850 C 0.85698 0.36952 0.69415 0.0
C1851 C 0.8533 0.38635 0.68677 0.0
C1852 C 0.86162 0.39206 0.673 0.0
C1853 C 0.87355 0.38087 0.66655 0.0
C1854 C 0.87732 0.36406 0.67389 0.0
C1855 C 0.82452 0.23743 0.6742 0.0
C1856 C 0.84027 0.22792 0.67288 0.0
C1857 C 0.83293 0.26052 0.68183 0.0
C1858 C 0.85718 0.27438 0.68832 0.0
C1859 C 0.87294 0.26488 0.68697 0.0
C1860 C 0.86456 0.24185 0.6793 0.0
C1861 C 0.86628 0.29902 0.69623 0.0
C1862 C 0.86443 0.31698 0.68886 0.0
C1863 C 0.87726 0.30499 0.71085 0.0
C1864 C 0.87674 0.28604 0.71981 0.0
C1865 C 0.8986 0.28786 0.72575 0.0
C1866 C 0.89788 0.27029 0.73462 0.0
C1867 C 0.87541 0.25109 0.7378 0.0
C1868 C 0.85362 0.24934 0.73202 0.0
C1869 C 0.85422 0.2666 0.72297 0.0
H1870 H 0.8749 0.23768 0.7448 0.0
H1871 H 0.85877 0.40511 0.66731 0.0
H1872 H 0.14732 0.90233 0.6214 0.0
H1873 H 0.17482 0.94119 0.6363 0.0
H1874 H 0.185 0.97993 0.59782 0.0
H1875 H 0.15643 0.94147 0.58304 0.0
H1876 H 0.22081 0.9741 0.63678 0.0
H1877 H 0.19297 0.036 0.60625 0.0
H1878 H 0.1565 0.03251 0.59253 0.0
H1879 H 0.1099 0.97143 0.61557 0.0
H1880 H 0.14606 0.97477 0.62957 0.0
H1881 H 0.3097 0.09953 0.65664 0.0
H1882 H 0.28116 0.05883 0.64393 0.0
H1883 H 0.22089 0.06197 0.66146 0.0
H1884 H 0.24927 0.10323 0.67344 0.0
H1885 H 0.20821 0.0455 0.63466 0.0
H1886 H 0.24446 0.02507 0.6744 0.0
H1887 H 0.27799 0.02709 0.69065 0.0
H1888 H 0.3023 0.00251 0.65402 0.0
H1889 H 0.2691 0.00066 0.63751 0.0
C1890 C 0.15513 0.91916 0.61613 0.0
C1891 C 0.14946 0.91872 0.60101 0.0
C1892 C 0.17109 0.94134 0.62465 0.0
C1893 C 0.18176 0.96355 0.61823 0.0
C1894 C 0.17667 0.9631 0.60308 0.0
C1895 C 0.16053 0.941 0.59459 0.0
C1896 C 0.19803 0.98724 0.62738 0.0
C1897 C 0.21805 0.98971 0.63634 0.0
C1898 C 0.19414 0.00746 0.6271 0.0
C1899 C 0.17225 0.0055 0.61885 0.0
C1900 C 0.17494 0.02189 0.60843 0.0
C1901 C 0.15432 0.01993 0.60059 0.0
C1902 C 0.13091 0.00171 0.60314 0.0
C1903 C 0.12805 0.98548 0.61357 0.0
C1904 C 0.1486 0.98738 0.62144 0.0
C1905 C 0.29035 0.09152 0.65773 0.0
C1906 C 0.28164 0.10458 0.6659 0.0
C1907 C 0.27405 0.06815 0.65059 0.0
C1908 C 0.24882 0.05712 0.65184 0.0
C1909 C 0.24023 0.07005 0.66026 0.0
C1910 C 0.25646 0.09359 0.66717 0.0
C1911 C 0.23125 0.03255 0.64395 0.0
C1912 C 0.21099 0.02991 0.63517 0.0
C1913 C 0.23451 0.01198 0.64479 0.0
C1914 C 0.25441 0.01293 0.6547 0.0
C1915 C 0.25706 0.02025 0.66979 0.0
C1916 C 0.27599 0.02134 0.67905 0.0
C1917 C 0.29229 0.01499 0.67336 0.0
C1918 C 0.28966 0.00745 0.65841 0.0
C1919 C 0.27078 0.00635 0.6491 0.0
H1920 H 0.30694 0.01585 0.68055 0.0
H1921 H 0.11497 0.00021 0.59705 0.0
H1922 H 0.0409 0.20829 0.56716 0.0
H1923 H 0.00454 0.20063 0.57904 0.0
H1924 H 0.04936 0.23556 0.62012 0.0
H1925 H 0.08575 0.24312 0.60831 0.0
H1926 H 0.00975 0.19367 0.62412 0.0
H1927 H 0.02581 0.2643 0.59903 0.0
H1928 H 0.0331 0.288 0.57763 0.0
H1929 H 0.96284 0.23327 0.55618 0.0
H1930 H 0.95526 0.20906 0.57737 0.0
H1931 H 0.923 0.20507 0.66362 0.0
H1932 H 0.95885 0.21447 0.65079 0.0
H1933 H 0.91231 0.17805 0.61044 0.0
H1934 H 0.87634 0.16885 0.62312 0.0
H1935 H 0.95221 0.22018 0.60569 0.0
H1936 H 0.93587 0.14955 0.63028 0.0
H1937 H 0.92808 0.12508 0.65134 0.0
H1938 H 0.99834 0.17883 0.67328 0.0
H1939 H 0.0064 0.20381 0.65243 0.0
C1940 C 0.04303 0.21458 0.57869 0.0
C1941 C 0.0662 0.22634 0.5868 0.0
C1942 C 0.02224 0.21019 0.58547 0.0
C1943 C 0.02423 0.21774 0.60045 0.0
C1944 C 0.04736 0.22953 0.60855 0.0
C1945 C 0.06813 0.2338 0.6018 0.0
C1946 C 0.00219 0.21282 0.6078 0.0
C1947 C 0.99737 0.1998 0.62021 0.0
C1948 C 0.98561 0.22014 0.60244 0.0
C1949 C 0.99008 0.23475 0.58973 0.0
C1950 C 0.01199 0.25723 0.5897 0.0
C1951 C 0.01616 0.27077 0.57762 0.0
C1952 C 0.99847 0.26212 0.56554 0.0
C1953 C 0.97654 0.23993 0.56554 0.0
C1954 C 0.97229 0.22631 0.57759 0.0
C1955 C 0.92034 0.19911 0.65201 0.0
C1956 C 0.89674 0.18607 0.64444 0.0
C1957 C 0.94088 0.20443 0.6447 0.0
C1958 C 0.93825 0.19666 0.6297 0.0
C1959 C 0.91478 0.18417 0.62202 0.0
C1960 C 0.89422 0.17887 0.62932 0.0
C1961 C 0.95995 0.20127 0.62208 0.0
C1962 C 0.96464 0.21413 0.6096 0.0
C1963 C 0.97638 0.19371 0.62732 0.0
C1964 C 0.97164 0.17867 0.63985 0.0
C1965 C 0.94958 0.15625 0.63965 0.0
C1966 C 0.94513 0.14227 0.65154 0.0
C1967 C 0.96268 0.15043 0.66366 0.0
C1968 C 0.98475 0.17255 0.6639 0.0
C1969 C 0.98928 0.18662 0.65204 0.0
H1970 H 0.9592 0.13958 0.67286 0.0
H1971 H 0.00174 0.27262 0.5562 0.0
H1972 H 0.76322 0.81581 0.58413 0.0
H1973 H 0.77573 0.79049 0.59704 0.0
H1974 H 0.76 0.81418 0.63795 0.0
H1975 H 0.74608 0.83854 0.62508 0.0
H1976 H 0.80937 0.81832 0.63659 0.0
H1977 H 0.72219 0.76129 0.62624 0.0
H1978 H 0.68368 0.73839 0.60989 0.0
H1979 H 0.71501 0.704 0.58416 0.0
H1980 H 0.75385 0.72699 0.60024 0.0
H1981 H 0.8284 0.74031 0.68087 0.0
H1982 H 0.8121 0.76381 0.66916 0.0
H1983 H 0.8001 0.72128 0.62764 0.0
H1984 H 0.81513 0.69709 0.63966 0.0
H1985 H 0.76382 0.72713 0.62954 0.0
H1986 H 0.85008 0.78265 0.63738 0.0
H1987 H 0.89085 0.80636 0.65137 0.0
H1988 H 0.86514 0.84463 0.67871 0.0
H1989 H 0.82412 0.82091 0.665 0.0
C1990 C 0.76188 0.8153 0.59582 0.0
C1991 C 0.75354 0.82923 0.60353 0.0
C1992 C 0.76925 0.80097 0.60318 0.0
C1993 C 0.76875 0.80056 0.6184 0.0
C1994 C 0.76058 0.81442 0.62618 0.0
C1995 C 0.75278 0.82843 0.61881 0.0
C1996 C 0.77719 0.78593 0.6262 0.0
C1997 C 0.79931 0.79837 0.63528 0.0
C1998 C 0.7644 0.76001 0.62395 0.0
C1999 C 0.74099 0.74604 0.61436 0.0
C2000 C 0.72094 0.74901 0.61702 0.0
C2001 C 0.69904 0.73598 0.60782 0.0
C2002 C 0.69692 0.71979 0.59597 0.0
C2003 C 0.71669 0.71656 0.59333 0.0
C2004 C 0.73863 0.72957 0.60249 0.0
C2005 C 0.82213 0.73602 0.66926 0.0
C2006 C 0.82266 0.71681 0.6611 0.0
C2007 C 0.813 0.74952 0.66255 0.0
C2008 C 0.80519 0.74463 0.64743 0.0
C2009 C 0.80584 0.72536 0.63932 0.0
C2010 C 0.81434 0.71147 0.64615 0.0
C2011 C 0.79625 0.75943 0.64006 0.0
C2012 C 0.774 0.74707 0.63099 0.0
C2013 C 0.8093 0.78549 0.642 0.0
C2014 C 0.83397 0.79983 0.65026 0.0
C2015 C 0.85308 0.796 0.64644 0.0
C2016 C 0.87624 0.80945 0.65431 0.0
C2017 C 0.88057 0.82694 0.66595 0.0
C2018 C 0.86176 0.83105 0.66971 0.0
C2019 C 0.83855 0.81762 0.66189 0.0
H2020 H 0.89851 0.83734 0.67203 0.0
H2021 H 0.67995 0.70972 0.58886 0.0
H2022 H 0.04731 0.82877 0.57556 0.0
H2023 H 0.01034 0.79968 0.58599 0.0
H2024 H 0.05288 0.81184 0.62731 0.0
H2025 H 0.09009 0.84026 0.61679 0.0
H2026 H 0.02004 0.764 0.62068 0.0
H2027 H 0.01909 0.83987 0.62197 0.0
H2028 H 0.02042 0.87563 0.61161 0.0
H2029 H 0.95595 0.82755 0.5824 0.0
H2030 H 0.95444 0.79146 0.59246 0.0
H2031 H 0.92468 0.71908 0.66723 0.0
H2032 H 0.96107 0.74496 0.65526 0.0
H2033 H 0.91615 0.72969 0.61447 0.0
H2034 H 0.87961 0.70395 0.62637 0.0
H2035 H 0.94958 0.77806 0.62009 0.0
H2036 H 0.9498 0.70214 0.61949 0.0
H2037 H 0.94841 0.66655 0.63015 0.0
H2038 H 0.01416 0.71483 0.6583 0.0
H2039 H 0.01576 0.75076 0.64796 0.0
C2040 C 0.04887 0.82499 0.5868 0.0
C2041 C 0.07166 0.83693 0.59536 0.0
C2042 C 0.02768 0.80854 0.59279 0.0
C2043 C 0.02879 0.80386 0.6075 0.0
C2044 C 0.05157 0.81526 0.61596 0.0
C2045 C 0.07279 0.83166 0.60997 0.0
C2046 C 0.00617 0.7874 0.61415 0.0
C2047 C 0.00474 0.76723 0.6207 0.0
C2048 C 0.98599 0.79129 0.61389 0.0
C2049 C 0.98681 0.81296 0.60786 0.0
C2050 C 0.00531 0.83692 0.61326 0.0
C2051 C 0.00608 0.85725 0.60745 0.0
C2052 C 0.98832 0.85387 0.59633 0.0
C2053 C 0.96972 0.83014 0.59101 0.0
C2054 C 0.96889 0.80974 0.59676 0.0
C2055 C 0.92249 0.72116 0.65571 0.0
C2056 C 0.89917 0.70938 0.64777 0.0
C2057 C 0.94335 0.73589 0.64886 0.0
C2058 C 0.94135 0.73904 0.63393 0.0
C2059 C 0.91811 0.72748 0.626 0.0
C2060 C 0.89723 0.71272 0.63283 0.0
C2061 C 0.96349 0.75473 0.62667 0.0
C2062 C 0.96484 0.77476 0.62001 0.0
C2063 C 0.9836 0.75074 0.62686 0.0
C2064 C 0.98277 0.72916 0.63304 0.0
C2065 C 0.96386 0.70519 0.62804 0.0
C2066 C 0.96305 0.68495 0.634 0.0
C2067 C 0.98115 0.68843 0.64492 0.0
C2068 C 1.00014 0.71216 0.64986 0.0
C2069 C 0.00102 0.73247 0.64394 0.0
H2070 H 0.98049 0.67274 0.64953 0.0
H2071 H 0.98894 0.86963 0.59185 0.0
H2072 H 0.1759 0.25779 0.58357 0.0
H2073 H 0.20566 0.24877 0.59552 0.0
H2074 H 0.14683 0.1791 0.60549 0.0
H2075 H 0.11698 0.18831 0.59378 0.0
H2076 H 0.17928 0.19931 0.62815 0.0
H2077 H 0.18224 0.18356 0.57702 0.0
H2078 H 0.18627 0.19252 0.55123 0.0
H2079 H 0.25918 0.25289 0.56337 0.0
H2080 H 0.25546 0.24451 0.58928 0.0
H2081 H 0.27869 0.16071 0.62605 0.0
H2082 H 0.24794 0.16754 0.61329 0.0
H2083 H 0.25922 0.22161 0.64864 0.0
H2084 H 0.28954 0.21452 0.66161 0.0
H2085 H 0.24865 0.20561 0.60251 0.0
H2086 H 0.20591 0.2193 0.65394 0.0
H2087 H 0.19926 0.20564 0.67873 0.0
H2088 H 0.20101 0.14061 0.66405 0.0
H2089 H 0.20731 0.1537 0.63914 0.0
C2090 C 0.16935 0.24052 0.58827 0.0
C2091 C 0.14414 0.2237 0.58769 0.0
C2092 C 0.18636 0.23535 0.59507 0.0
C2093 C 0.17853 0.21307 0.60121 0.0
C2094 C 0.15333 0.1964 0.60083 0.0
C2095 C 0.13629 0.20168 0.59416 0.0
C2096 C 0.19661 0.20723 0.60812 0.0
C2097 C 0.19444 0.20069 0.62253 0.0
C2098 C 0.21613 0.2085 0.6007 0.0
C2099 C 0.21848 0.21353 0.58511 0.0
C2100 C 0.19907 0.19885 0.57421 0.0
C2101 C 0.2013 0.20382 0.55957 0.0
C2102 C 0.22294 0.2233 0.55567 0.0
C2103 C 0.24242 0.23782 0.56641 0.0
C2104 C 0.24026 0.23296 0.58107 0.0
C2105 C 0.27469 0.17411 0.6311 0.0
C2106 C 0.28646 0.18694 0.64491 0.0
C2107 C 0.25713 0.17803 0.62377 0.0
C2108 C 0.251 0.19482 0.6301 0.0
C2109 C 0.26328 0.2082 0.64367 0.0
C2110 C 0.28071 0.20419 0.65105 0.0
C2111 C 0.23156 0.19817 0.62262 0.0
C2112 C 0.23349 0.20424 0.60811 0.0
C2113 C 0.21144 0.19582 0.6298 0.0
C2114 C 0.20732 0.18762 0.64471 0.0
C2115 C 0.20477 0.20204 0.65599 0.0
C2116 C 0.20108 0.1944 0.67007 0.0
C2117 C 0.1998 0.17231 0.67298 0.0
C2118 C 0.2021 0.15776 0.6618 0.0
C2119 C 0.20576 0.16529 0.6477 0.0
H2120 H 0.19697 0.16645 0.68388 0.0
H2121 H 0.22464 0.22711 0.54433 0.0
H2122 H 0.76212 0.92676 0.58265 0.0
H2123 H 0.77447 0.96726 0.5948 0.0
H2124 H 0.75818 0.93683 0.63627 0.0
H2125 H 0.74405 0.89593 0.62403 0.0
H2126 H 0.74489 0.96903 0.63518 0.0
H2127 H 0.81787 0.96811 0.62581 0.0
H2128 H 0.84617 0.96244 0.61091 0.0
H2129 H 0.85153 0.01872 0.58468 0.0
H2130 H 0.82299 0.0245 0.59931 0.0
H2131 H 0.85415 0.09901 0.66627 0.0
H2132 H 0.83842 0.05739 0.65446 0.0
H2133 H 0.77104 0.05436 0.63929 0.0
H2134 H 0.78617 0.09536 0.65186 0.0
H2135 H 0.82658 0.03847 0.62792 0.0
H2136 H 0.72365 0.99656 0.63586 0.0
H2137 H 0.69792 0.00104 0.65354 0.0
H2138 H 0.7571 0.02816 0.68782 0.0
H2139 H 0.78307 0.02354 0.6704 0.0
C2140 C 0.76063 0.92851 0.5943 0.0
C2141 C 0.7522 0.90801 0.60236 0.0
C2142 C 0.76805 0.95181 0.60128 0.0
C2143 C 0.76776 0.95522 0.61651 0.0
C2144 C 0.75872 0.93471 0.62452 0.0
C2145 C 0.75092 0.91135 0.61752 0.0
C2146 C 0.77737 0.9802 0.62417 0.0
C2147 C 0.76275 0.98422 0.63358 0.0
C2148 C 0.80089 0.99993 0.62236 0.0
C2149 C 0.81811 0.99656 0.61356 0.0
C2150 C 0.82495 0.97916 0.6168 0.0
C2151 C 0.84105 0.97594 0.60841 0.0
C2152 C 0.85059 0.99017 0.59683 0.0
C2153 C 0.8441 0.00769 0.59364 0.0
C2154 C 0.82797 0.01095 0.60198 0.0
C2155 C 0.83593 0.08936 0.66049 0.0
C2156 C 0.82138 0.10037 0.65993 0.0
C2157 C 0.82699 0.06564 0.65368 0.0
C2158 C 0.80344 0.05259 0.64609 0.0
C2159 C 0.78907 0.06381 0.64532 0.0
C2160 C 0.79782 0.08735 0.65237 0.0
C2161 C 0.79408 0.02735 0.63889 0.0
C2162 C 0.80872 0.0233 0.62952 0.0
C2163 C 0.77095 0.0074 0.64116 0.0
C2164 C 0.75537 0.00993 0.65178 0.0
C2165 C 0.73113 0.00339 0.64719 0.0
C2166 C 0.71651 0.00597 0.65716 0.0
C2167 C 0.7259 0.01496 0.67178 0.0
C2168 C 0.74989 0.02129 0.67647 0.0
C2169 C 0.76457 0.01872 0.66655 0.0
H2170 H 0.71456 0.01697 0.67948 0.0
H2171 H 0.86305 0.98765 0.59035 0.0
H2172 H 0.55208 0.40616 0.73079 0.0
H2173 H 0.52179 0.36854 0.71578 0.0
H2174 H 0.464 0.37042 0.73733 0.0
H2175 H 0.4942 0.40836 0.75227 0.0
H2176 H 0.45826 0.32402 0.73443 0.0
H2177 H 0.47326 0.38791 0.7037 0.0
H2178 H 0.49857 0.42447 0.69115 0.0
H2179 H 0.52652 0.38489 0.6671 0.0
H2180 H 0.50164 0.34817 0.67968 0.0
H2181 H 0.36114 0.23755 0.68098 0.0
H2182 H 0.38964 0.27635 0.69589 0.0
H2183 H 0.45065 0.27266 0.68017 0.0
H2184 H 0.4223 0.23342 0.6657 0.0
H2185 H 0.45328 0.32025 0.68007 0.0
H2186 H 0.44054 0.25756 0.71127 0.0
H2187 H 0.41656 0.2209 0.72404 0.0
H2188 H 0.38511 0.25789 0.74713 0.0
H2189 H 0.40865 0.29471 0.73431 0.0
C2190 C 0.53292 0.39873 0.73225 0.0
C2191 C 0.52556 0.41039 0.74265 0.0
C2192 C 0.51563 0.37718 0.7237 0.0
C2193 C 0.49063 0.36685 0.72533 0.0
C2194 C 0.48321 0.3781 0.7359 0.0
C2195 C 0.5005 0.39973 0.74445 0.0
C2196 C 0.47228 0.3444 0.7159 0.0
C2197 C 0.45688 0.32331 0.72255 0.0
C2198 C 0.47087 0.34335 0.70039 0.0
C2199 C 0.48575 0.36536 0.69273 0.0
C2200 C 0.48495 0.38706 0.69582 0.0
C2201 C 0.4992 0.4078 0.68869 0.0
C2202 C 0.51419 0.40702 0.67836 0.0
C2203 C 0.51492 0.38547 0.67511 0.0
C2204 C 0.50073 0.36468 0.68223 0.0
C2205 C 0.38063 0.245 0.68075 0.0
C2206 C 0.38957 0.23236 0.67239 0.0
C2207 C 0.39684 0.26714 0.68922 0.0
C2208 C 0.42218 0.27718 0.68917 0.0
C2209 C 0.43112 0.26512 0.68034 0.0
C2210 C 0.41494 0.24275 0.67211 0.0
C2211 C 0.43941 0.29998 0.69862 0.0
C2212 C 0.45456 0.32108 0.69195 0.0
C2213 C 0.44063 0.30101 0.7141 0.0
C2214 C 0.42613 0.27879 0.72168 0.0
C2215 C 0.42826 0.25778 0.71892 0.0
C2216 C 0.41479 0.23698 0.72619 0.0
C2217 C 0.39927 0.23703 0.73635 0.0
C2218 C 0.39713 0.25787 0.73924 0.0
C2219 C 0.41053 0.27871 0.73197 0.0
H2220 H 0.38901 0.22097 0.74204 0.0
H2221 H 0.52521 0.4231 0.67284 0.0
H2222 H 0.58414 0.10004 0.72927 0.0
H2223 H 0.61881 0.10566 0.71642 0.0
H2224 H 0.66509 0.13145 0.75746 0.0
H2225 H 0.63087 0.12755 0.77027 0.0
H2226 H 0.6894 0.15854 0.738 0.0
H2227 H 0.64251 0.07211 0.73945 0.0
H2228 H 0.60599 0.03065 0.7363 0.0
H2229 H 0.5994 0.03421 0.6898 0.0
H2230 H 0.6357 0.07586 0.69269 0.0
H2231 H 0.78584 0.14912 0.70941 0.0
H2232 H 0.75109 0.14047 0.72308 0.0
H2233 H 0.70554 0.12469 0.68249 0.0
H2234 H 0.74033 0.13304 0.66864 0.0
H2235 H 0.68185 0.09199 0.70246 0.0
H2236 H 0.7305 0.18108 0.70287 0.0
H2237 H 0.76997 0.22001 0.70735 0.0
H2238 H 0.77575 0.20828 0.75266 0.0
H2239 H 0.73639 0.16918 0.74841 0.0
C2240 C 0.60173 0.10723 0.73558 0.0
C2241 C 0.60458 0.11331 0.75086 0.0
C2242 C 0.62153 0.11009 0.72822 0.0
C2243 C 0.64456 0.11857 0.73598 0.0
C2244 C 0.64751 0.12475 0.75121 0.0
C2245 C 0.62779 0.12222 0.75856 0.0
C2246 C 0.66557 0.12132 0.72814 0.0
C2247 C 0.68776 0.14383 0.73038 0.0
C2248 C 0.66359 0.10224 0.71811 0.0
C2249 C 0.64169 0.07722 0.71631 0.0
C2250 C 0.63315 0.06414 0.72856 0.0
C2251 C 0.61252 0.04059 0.72682 0.0
C2252 C 0.60035 0.02983 0.71287 0.0
C2253 C 0.60883 0.04258 0.70061 0.0
C2254 C 0.62944 0.06616 0.70229 0.0
C2255 C 0.76847 0.14386 0.70336 0.0
C2256 C 0.76594 0.14216 0.68793 0.0
C2257 C 0.74859 0.13888 0.71121 0.0
C2258 C 0.72585 0.13242 0.70382 0.0
C2259 C 0.72298 0.12978 0.68841 0.0
C2260 C 0.74287 0.13459 0.68051 0.0
C2261 C 0.7053 0.12919 0.7122 0.0
C2262 C 0.68331 0.10662 0.71008 0.0
C2263 C 0.70763 0.14799 0.72257 0.0
C2264 C 0.73055 0.17219 0.72531 0.0
C2265 C 0.74017 0.18684 0.71379 0.0
C2266 C 0.76253 0.20891 0.71628 0.0
C2267 C 0.77536 0.2166 0.73028 0.0
C2268 C 0.76577 0.20232 0.74183 0.0
C2269 C 0.7434 0.18024 0.7394 0.0
H2270 H 0.79272 0.23363 0.73217 0.0
H2271 H 0.58438 0.01158 0.71154 0.0
H2272 H 0.88054 0.46971 0.72181 0.0
H2273 H 0.86833 0.4956 0.70938 0.0
H2274 H 0.93819 0.55957 0.72461 0.0
H2275 H 0.95052 0.53363 0.73721 0.0
H2276 H 0.90129 0.56801 0.72853 0.0
H2277 H 0.92521 0.53485 0.68872 0.0
H2278 H 0.92578 0.502 0.67305 0.0
H2279 H 0.84868 0.46892 0.6605 0.0
H2280 H 0.84757 0.50139 0.67626 0.0
H2281 H 0.88142 0.64445 0.6818 0.0
H2282 H 0.89824 0.62166 0.69382 0.0
H2283 H 0.82956 0.5542 0.6824 0.0
H2284 H 0.81257 0.57695 0.6705 0.0
H2285 H 0.86901 0.54963 0.67591 0.0
H2286 H 0.8436 0.57788 0.71761 0.0
H2287 H 0.84081 0.60802 0.73447 0.0
H2288 H 0.9191 0.64911 0.74339 0.0
H2289 H 0.92228 0.61886 0.72665 0.0
C2290 C 0.89345 0.48924 0.72234 0.0
C2291 C 0.91658 0.49963 0.73036 0.0
C2292 C 0.88644 0.50402 0.71524 0.0
C2293 C 0.90251 0.52946 0.71587 0.0
C2294 C 0.92557 0.53995 0.72395 0.0
C2295 C 0.93256 0.52516 0.73114 0.0
C2296 C 0.89477 0.54507 0.70846 0.0
C2297 C 0.89472 0.56432 0.71695 0.0
C2298 C 0.8856 0.53983 0.69344 0.0
C2299 C 0.88628 0.52048 0.68376 0.0
C2300 C 0.90835 0.5205 0.68268 0.0
C2301 C 0.90877 0.50195 0.67378 0.0
C2302 C 0.88727 0.48335 0.66581 0.0
C2303 C 0.86532 0.48333 0.66669 0.0
C2304 C 0.86479 0.50182 0.67559 0.0
C2305 C 0.86984 0.62481 0.68202 0.0
C2306 C 0.84567 0.61245 0.67533 0.0
C2307 C 0.87947 0.61182 0.68886 0.0
C2308 C 0.86509 0.58628 0.68905 0.0
C2309 C 0.84095 0.57391 0.68234 0.0
C2310 C 0.83127 0.58691 0.67559 0.0
C2311 C 0.87534 0.57234 0.69602 0.0
C2312 C 0.87588 0.55347 0.68744 0.0
C2313 C 0.88488 0.57783 0.71095 0.0
C2314 C 0.88318 0.5963 0.72078 0.0
C2315 C 0.86022 0.59346 0.72307 0.0
C2316 C 0.85858 0.61054 0.73265 0.0
C2317 C 0.87979 0.63063 0.73994 0.0
C2318 C 0.90269 0.63358 0.73772 0.0
C2319 C 0.90442 0.61642 0.72824 0.0
H2320 H 0.8785 0.64383 0.74737 0.0
H2321 H 0.88763 0.46899 0.65894 0.0
H2322 H 0.41563 0.90668 0.20456 0.0
H2323 H 0.42132 0.9195 0.17975 0.0
H2324 H 0.49714 0.97223 0.19366 0.0
H2325 H 0.49139 0.9601 0.21852 0.0
H2326 H 0.47733 0.99146 0.17607 0.0
H2327 H 0.4799 0.91616 0.17541 0.0
H2328 H 0.46388 0.87247 0.17889 0.0
H2329 H 0.40178 0.85192 0.14779 0.0
H2330 H 0.41729 0.89555 0.14428 0.0
H2331 H 0.53388 0.0115 0.11059 0.0
H2332 H 0.52052 0.99901 0.13457 0.0
H2333 H 0.44648 0.95197 0.11471 0.0
H2334 H 0.45962 0.96473 0.09061 0.0
H2335 H 0.46078 0.92926 0.13453 0.0
H2336 H 0.46077 0.00488 0.13353 0.0
H2337 H 0.47768 0.04863 0.12996 0.0
H2338 H 0.53566 0.06875 0.16412 0.0
H2339 H 0.5193 0.02506 0.16775 0.0
C2340 C 0.43341 0.92127 0.20238 0.0
C2341 C 0.45312 0.93223 0.21348 0.0
C2342 C 0.43668 0.92843 0.18817 0.0
C2343 C 0.45975 0.94657 0.1848 0.0
C2344 C 0.47921 0.95812 0.19598 0.0
C2345 C 0.47595 0.95101 0.21016 0.0
C2346 C 0.464 0.95315 0.16956 0.0
C2347 C 0.47387 0.97788 0.16701 0.0
C2348 C 0.45889 0.93534 0.15766 0.0
C2349 C 0.4496 0.90912 0.15972 0.0
C2350 C 0.46273 0.90234 0.16941 0.0
C2351 C 0.45376 0.87759 0.17136 0.0
C2352 C 0.43179 0.85944 0.1636 0.0
C2353 C 0.41878 0.866 0.15382 0.0
C2354 C 0.42765 0.89073 0.15184 0.0
C2355 C 0.51469 0.9987 0.11131 0.0
C2356 C 0.4978 0.98928 0.09867 0.0
C2357 C 0.5071 0.99153 0.12503 0.0
C2358 C 0.48245 0.97482 0.12644 0.0
C2359 C 0.46558 0.96494 0.11385 0.0
C2360 C 0.47316 0.97217 0.10008 0.0
C2361 C 0.47452 0.96761 0.14112 0.0
C2362 C 0.46396 0.94278 0.14356 0.0
C2363 C 0.47906 0.98534 0.15293 0.0
C2364 C 0.4889 0.01166 0.15084 0.0
C2365 C 0.47723 0.01861 0.14021 0.0
C2366 C 0.4867 0.04341 0.13818 0.0
C2367 C 0.50776 0.06146 0.14678 0.0
C2368 C 0.51936 0.05475 0.15745 0.0
C2369 C 0.50997 0.02997 0.15951 0.0
H2370 H 0.51506 0.08065 0.1452 0.0
H2371 H 0.42488 0.84029 0.16513 0.0
H2372 H 0.07524 0.50115 0.22008 0.0
H2373 H 0.06317 0.49528 0.19377 0.0
H2374 H 0.01885 0.52852 0.20088 0.0
H2375 H 0.02985 0.53331 0.22735 0.0
H2376 H 0.99627 0.49072 0.1802 0.0
H2377 H 0.07662 0.56155 0.19025 0.0
H2378 H 0.1201 0.58463 0.20013 0.0
H2379 H 0.13441 0.53662 0.17261 0.0
H2380 H 0.09091 0.51302 0.16272 0.0
H2381 H 0.99333 0.53286 0.11071 0.0
H2382 H 0.00174 0.53069 0.13667 0.0
H2383 H 0.03504 0.48744 0.12551 0.0
H2384 H 0.02585 0.48864 0.09938 0.0
H2385 H 0.0628 0.52756 0.14773 0.0
H2386 H 0.98157 0.45861 0.13652 0.0
H2387 H 0.93817 0.43751 0.12655 0.0
H2388 H 0.92572 0.48455 0.15622 0.0
H2389 H 0.96916 0.5062 0.16622 0.0
C2390 C 0.06248 0.50672 0.21611 0.0
C2391 C 0.05362 0.51784 0.22584 0.0
C2392 C 0.05584 0.50361 0.20103 0.0
C2393 C 0.04051 0.51191 0.19534 0.0
C2394 C 0.03085 0.52214 0.20503 0.0
C2395 C 0.03733 0.52507 0.22014 0.0
C2396 C 0.03527 0.51077 0.17926 0.0
C2397 C 0.01082 0.49897 0.17313 0.0
C2398 C 0.05427 0.52115 0.16998 0.0
C2399 C 0.08046 0.53536 0.17587 0.0
C2400 C 0.089 0.5558 0.18639 0.0
C2401 C 0.11365 0.56899 0.19198 0.0
C2402 C 0.13 0.56205 0.18703 0.0
C2403 C 0.12172 0.54194 0.17645 0.0
C2404 C 0.09707 0.52866 0.17085 0.0
C2405 C 0.00208 0.52252 0.11371 0.0
C2406 C 0.00866 0.51069 0.10291 0.0
C2407 C 0.00699 0.52143 0.12857 0.0
C2408 C 0.01876 0.50869 0.13296 0.0
C2409 C 0.02588 0.49731 0.12229 0.0
C2410 C 0.02073 0.49815 0.10738 0.0
C2411 C 0.02386 0.50766 0.14875 0.0
C2412 C 0.04829 0.51912 0.15481 0.0
C2413 C 0.00485 0.49723 0.15797 0.0
C2414 C 0.97868 0.48417 0.15203 0.0
C2415 C 0.96963 0.4646 0.14083 0.0
C2416 C 0.94501 0.45251 0.13519 0.0
C2417 C 0.92921 0.45972 0.14072 0.0
C2418 C 0.93799 0.479 0.15193 0.0
C2419 C 0.96261 0.49117 0.1576 0.0
H2420 H 0.91016 0.45034 0.13634 0.0
H2421 H 0.14908 0.57229 0.19137 0.0
H2422 H 0.49669 0.52821 0.22538 0.0
H2423 H 0.50517 0.52566 0.19988 0.0
H2424 H 0.43766 0.52273 0.18518 0.0
H2425 H 0.42864 0.52408 0.21074 0.0
H2426 H 0.44411 0.49443 0.1668 0.0
H2427 H 0.49471 0.57706 0.18789 0.0
H2428 H 0.52436 0.61092 0.20609 0.0
H2429 H 0.57923 0.59213 0.19746 0.0
H2430 H 0.54979 0.55788 0.17936 0.0
H2431 H 0.48148 0.52928 0.09601 0.0
H2432 H 0.46975 0.53002 0.12086 0.0
H2433 H 0.52999 0.52178 0.1377 0.0
H2434 H 0.54184 0.52111 0.11289 0.0
H2435 H 0.52593 0.55702 0.15439 0.0
H2436 H 0.47156 0.47279 0.13269 0.0
H2437 H 0.441 0.44223 0.11331 0.0
H2438 H 0.39181 0.46869 0.12197 0.0
H2439 H 0.42221 0.49961 0.1413 0.0
C2440 C 0.48357 0.52674 0.21666 0.0
C2441 C 0.46211 0.52648 0.21996 0.0
C2442 C 0.48848 0.52545 0.20211 0.0
C2443 C 0.47238 0.52468 0.19057 0.0
C2444 C 0.45043 0.52345 0.19385 0.0
C2445 C 0.44528 0.52422 0.20844 0.0
C2446 C 0.47891 0.52593 0.17521 0.0
C2447 C 0.4619 0.50831 0.16409 0.0
C2448 C 0.50211 0.54405 0.17156 0.0
C2449 C 0.51996 0.56476 0.18236 0.0
C2450 C 0.51305 0.58004 0.18994 0.0
C2451 C 0.52982 0.59931 0.20023 0.0
C2452 C 0.55365 0.60364 0.20295 0.0
C2453 C 0.56076 0.58873 0.19535 0.0
C2454 C 0.54404 0.5694 0.18507 0.0
C2455 C 0.49215 0.52753 0.10499 0.0
C2456 C 0.51257 0.52514 0.10244 0.0
C2457 C 0.48542 0.52794 0.11918 0.0
C2458 C 0.49882 0.52566 0.13111 0.0
C2459 C 0.51941 0.5236 0.12865 0.0
C2460 C 0.5262 0.52329 0.11446 0.0
C2461 C 0.49137 0.52527 0.14616 0.0
C2462 C 0.50817 0.54316 0.15717 0.0
C2463 C 0.46781 0.5078 0.14961 0.0
C2464 C 0.44921 0.4886 0.13837 0.0
C2465 C 0.45424 0.47212 0.13044 0.0
C2466 C 0.43696 0.45475 0.11946 0.0
C2467 C 0.4145 0.45354 0.1164 0.0
C2468 C 0.40921 0.46962 0.12437 0.0
C2469 C 0.42645 0.48706 0.13535 0.0
H2470 H 0.40118 0.44015 0.10785 0.0
H2471 H 0.56661 0.61857 0.21093 0.0
H2472 H 0.97556 0.47005 0.77425 0.0
H2473 H 0.98835 0.47654 0.80059 0.0
H2474 H 0.93648 0.50019 0.80872 0.0
H2475 H 0.92373 0.4939 0.78236 0.0
H2476 H 0.97922 0.52762 0.82643 0.0
H2477 H 0.92176 0.44191 0.81243 0.0
H2478 H 0.90573 0.40193 0.79773 0.0
H2479 H 0.97053 0.40006 0.81198 0.0
H2480 H 0.98713 0.44024 0.82659 0.0
H2481 H 0.97032 0.50592 0.90186 0.0
H2482 H 0.96227 0.50663 0.87556 0.0
H2483 H 0.01076 0.47901 0.86651 0.0
H2484 H 0.01792 0.47705 0.89264 0.0
H2485 H 0.96978 0.45439 0.84921 0.0
H2486 H 0.02703 0.54001 0.86368 0.0
H2487 H 0.04296 0.5801 0.87823 0.0
H2488 H 0.97854 0.58216 0.8633 0.0
H2489 H 0.96207 0.54192 0.84881 0.0
C2490 C 0.96702 0.47681 0.78166 0.0
C2491 C 0.94851 0.48126 0.77629 0.0
C2492 C 0.97435 0.48053 0.79668 0.0
C2493 C 0.96305 0.48845 0.80661 0.0
C2494 C 0.9454 0.49405 0.80123 0.0
C2495 C 0.93816 0.49047 0.78618 0.0
C2496 C 0.96856 0.48939 0.82262 0.0
C2497 C 0.97695 0.51158 0.83146 0.0
C2498 C 0.96588 0.46851 0.82911 0.0
C2499 C 0.95578 0.44419 0.8205 0.0
C2500 C 0.93266 0.43305 0.81235 0.0
C2501 C 0.92347 0.41035 0.80405 0.0
C2502 C 0.93713 0.39849 0.80389 0.0
C2503 C 0.95998 0.40928 0.81209 0.0
C2504 C 0.96929 0.43201 0.82039 0.0
C2505 C 0.97919 0.49989 0.89427 0.0
C2506 C 0.99479 0.49145 0.89938 0.0
C2507 C 0.97479 0.50059 0.87925 0.0
C2508 C 0.98614 0.49314 0.86907 0.0
C2509 C 0.00189 0.48494 0.87416 0.0
C2510 C 0.00614 0.48407 0.88914 0.0
C2511 C 0.98078 0.49273 0.85308 0.0
C2512 C 0.97222 0.47053 0.84422 0.0
C2513 C 0.98329 0.51359 0.84661 0.0
C2514 C 0.99322 0.53784 0.85527 0.0
C2515 C 0.01618 0.54893 0.86359 0.0
C2516 C 0.02532 0.5717 0.87181 0.0
C2517 C 0.01174 0.58364 0.87172 0.0
C2518 C 0.98902 0.57288 0.86337 0.0
C2519 C 0.97978 0.5501 0.85514 0.0
H2520 H 0.01885 0.60127 0.87809 0.0
H2521 H 0.92998 0.38092 0.79745 0.0
H2522 H 0.54834 0.4257 0.79503 0.0
H2523 H 0.54075 0.42993 0.82052 0.0
H2524 H 0.55907 0.50489 0.81675 0.0
H2525 H 0.56639 0.5007 0.79109 0.0
H2526 H 0.57762 0.49857 0.84388 0.0
H2527 H 0.50125 0.46231 0.81304 0.0
H2528 H 0.46938 0.43214 0.79408 0.0
H2529 H 0.45784 0.37355 0.82002 0.0
H2530 H 0.48994 0.40336 0.83904 0.0
H2531 H 0.51174 0.51325 0.90079 0.0
H2532 H 0.52649 0.51037 0.87702 0.0
H2533 H 0.51297 0.43769 0.88367 0.0
H2534 H 0.49865 0.4407 0.90758 0.0
H2535 H 0.49311 0.44237 0.85561 0.0
H2536 H 0.56724 0.47834 0.88722 0.0
H2537 H 0.5982 0.50817 0.9066 0.0
H2538 H 0.61443 0.56671 0.87966 0.0
H2539 H 0.58284 0.5373 0.86028 0.0
C2540 C 0.55077 0.44311 0.7996 0.0
C2541 C 0.55762 0.46275 0.79095 0.0
C2542 C 0.54656 0.44553 0.8142 0.0
C2543 C 0.54906 0.46762 0.82047 0.0
C2544 C 0.55706 0.48769 0.81212 0.0
C2545 C 0.56125 0.48526 0.79746 0.0
C2546 C 0.5417 0.46914 0.83537 0.0
C2547 C 0.5591 0.4865 0.84642 0.0
C2548 C 0.51765 0.45298 0.83874 0.0
C2549 C 0.49817 0.43504 0.82739 0.0
C2550 C 0.49205 0.44298 0.81465 0.0
C2551 C 0.47392 0.42594 0.8039 0.0
C2552 C 0.46164 0.40093 0.80582 0.0
C2553 C 0.4674 0.39292 0.81853 0.0
C2554 C 0.48555 0.40988 0.8293 0.0
C2555 C 0.51202 0.49673 0.89716 0.0
C2556 C 0.50413 0.47721 0.90596 0.0
C2557 C 0.52051 0.49513 0.88366 0.0
C2558 C 0.52086 0.47385 0.87865 0.0
C2559 C 0.51286 0.45427 0.88738 0.0
C2560 C 0.50481 0.45605 0.90102 0.0
C2561 C 0.52897 0.47182 0.8641 0.0
C2562 C 0.51167 0.45439 0.8531 0.0
C2563 C 0.55309 0.48787 0.86082 0.0
C2564 C 0.5724 0.50562 0.87235 0.0
C2565 C 0.57718 0.49761 0.88547 0.0
C2566 C 0.59487 0.51445 0.89647 0.0
C2567 C 0.60829 0.53934 0.89437 0.0
C2568 C 0.604 0.54743 0.88127 0.0
C2569 C 0.58614 0.53068 0.87029 0.0
H2570 H 0.62203 0.55234 0.90289 0.0
H2571 H 0.44761 0.38777 0.79749 0.0
H2572 H 0.54808 0.11853 0.80401 0.0
H2573 H 0.54016 0.10286 0.82797 0.0
H2574 H 0.55864 0.04789 0.81446 0.0
H2575 H 0.56584 0.063 0.79027 0.0
H2576 H 0.51728 0.02792 0.82718 0.0
H2577 H 0.59727 0.09719 0.8391 0.0
H2578 H 0.63011 0.14048 0.84018 0.0
H2579 H 0.5886 0.16289 0.8657 0.0
H2580 H 0.55534 0.11975 0.8646 0.0
H2581 H 0.51396 0.98879 0.89846 0.0
H2582 H 0.52902 0.0061 0.87558 0.0
H2583 H 0.50868 0.06108 0.88479 0.0
H2584 H 0.49352 0.04378 0.90767 0.0
H2585 H 0.55365 0.08059 0.87448 0.0
H2586 H 0.47259 0.01095 0.8609 0.0
H2587 H 0.44031 0.96742 0.85987 0.0
H2588 H 0.48514 0.94562 0.83744 0.0
H2589 H 0.51784 0.98902 0.83852 0.0
C2590 C 0.55043 0.10309 0.80613 0.0
C2591 C 0.55755 0.09199 0.79522 0.0
C2592 C 0.54615 0.09431 0.81989 0.0
C2593 C 0.54905 0.07435 0.82308 0.0
C2594 C 0.55638 0.06337 0.81227 0.0
C2595 C 0.56068 0.07215 0.79849 0.0
C2596 C 0.54326 0.06425 0.83745 0.0
C2597 C 0.52558 0.03936 0.83752 0.0
C2598 C 0.55373 0.07925 0.85095 0.0
C2599 C 0.5737 0.10524 0.85165 0.0
C2600 C 0.59505 0.11136 0.84484 0.0
C2601 C 0.61376 0.13587 0.84548 0.0
C2602 C 0.61142 0.15443 0.85297 0.0
C2603 C 0.59038 0.1485 0.85988 0.0
C2604 C 0.5716 0.12402 0.85927 0.0
C2605 C 0.51262 0.00451 0.89557 0.0
C2606 C 0.50245 0.01486 0.9048 0.0
C2607 C 0.52128 0.01442 0.88252 0.0
C2608 C 0.51973 0.03472 0.87841 0.0
C2609 C 0.51006 0.04541 0.88776 0.0
C2610 C 0.50143 0.03553 0.90082 0.0
C2611 C 0.52753 0.0444 0.86416 0.0
C2612 C 0.54555 0.06918 0.86412 0.0
C2613 C 0.51746 0.02928 0.85068 0.0
C2614 C 0.49775 0.00321 0.84993 0.0
C2615 C 0.47563 0.99686 0.85585 0.0
C2616 C 0.45725 0.97221 0.85524 0.0
C2617 C 0.4607 0.95376 0.84863 0.0
C2618 C 0.48251 0.95992 0.84258 0.0
C2619 C 0.50096 0.98454 0.84318 0.0
H2620 H 0.44645 0.93469 0.84817 0.0
H2621 H 0.62592 0.17339 0.85346 0.0
H2622 H 0.11063 0.28162 0.54926 0.0
H2623 H 0.11895 0.29683 0.52512 0.0
H2624 H 0.13146 0.23772 0.51118 0.0
H2625 H 0.12383 0.22295 0.5354 0.0
H2626 H 0.16555 0.27819 0.50313 0.0
H2627 H 0.07797 0.23894 0.49963 0.0
H2628 H 0.03809 0.23061 0.50723 0.0
H2629 H 0.05792 0.30566 0.50338 0.0
H2630 H 0.09807 0.31453 0.49594 0.0
H2631 H 0.16176 0.28632 0.42691 0.0
H2632 H 0.14945 0.27158 0.45069 0.0
H2633 H 0.15051 0.33872 0.46458 0.0
H2634 H 0.16261 0.35353 0.44065 0.0
H2635 H 0.10979 0.2958 0.47269 0.0
H2636 H 0.19751 0.33396 0.47562 0.0
H2637 H 0.2364 0.34075 0.46714 0.0
H2638 H 0.21479 0.26535 0.47137 0.0
H2639 H 0.17557 0.25801 0.47966 0.0
C2640 C 0.11495 0.2718 0.54098 0.0
C2641 C 0.11662 0.25114 0.54418 0.0
C2642 C 0.11964 0.28045 0.52718 0.0
C2643 C 0.12559 0.26828 0.51624 0.0
C2644 C 0.12699 0.24748 0.51942 0.0
C2645 C 0.12263 0.23905 0.53326 0.0
C2646 C 0.13114 0.27757 0.50163 0.0
C2647 C 0.15315 0.2817 0.49642 0.0
C2648 C 0.1153 0.28277 0.49297 0.0
C2649 C 0.09113 0.27746 0.49738 0.0
C2650 C 0.0739 0.25372 0.50051 0.0
C2651 C 0.05124 0.24889 0.50477 0.0
C2652 C 0.0455 0.26761 0.50583 0.0
C2653 C 0.0624 0.29119 0.50258 0.0
C2654 C 0.08511 0.29612 0.49833 0.0
C2655 C 0.15905 0.29782 0.43493 0.0
C2656 C 0.16327 0.32114 0.43194 0.0
C2657 C 0.15215 0.28943 0.44855 0.0
C2658 C 0.14932 0.30417 0.45943 0.0
C2659 C 0.15268 0.3271 0.45633 0.0
C2660 C 0.15976 0.3356 0.44272 0.0
C2661 C 0.14392 0.29602 0.47424 0.0
C2662 C 0.12208 0.29224 0.47947 0.0
C2663 C 0.15976 0.2909 0.48288 0.0
C2664 C 0.18351 0.29538 0.47814 0.0
C2665 C 0.20097 0.31878 0.47465 0.0
C2666 C 0.22309 0.32274 0.46989 0.0
C2667 C 0.22804 0.30348 0.46868 0.0
C2668 C 0.21092 0.28024 0.47229 0.0
C2669 C 0.18875 0.27618 0.47703 0.0
H2670 H 0.24516 0.30657 0.46499 0.0
H2671 H 0.02794 0.26384 0.50913 0.0
H2672 H 0.74395 0.83319 0.55227 0.0
H2673 H 0.73075 0.82531 0.52599 0.0
H2674 H 0.67933 0.84989 0.53312 0.0
H2675 H 0.69202 0.85727 0.55955 0.0
H2676 H 0.6605 0.80895 0.51239 0.0
H2677 H 0.73328 0.88886 0.52289 0.0
H2678 H 0.77596 0.91764 0.533 0.0
H2679 H 0.80066 0.87872 0.50537 0.0
H2680 H 0.75804 0.84947 0.49525 0.0
H2681 H 0.64423 0.84683 0.44397 0.0
H2682 H 0.65244 0.84223 0.46951 0.0
H2683 H 0.70713 0.82449 0.45753 0.0
H2684 H 0.69978 0.8302 0.43197 0.0
H2685 H 0.72436 0.85802 0.48039 0.0
H2686 H 0.65181 0.78041 0.46794 0.0
H2687 H 0.60913 0.75169 0.4578 0.0
H2688 H 0.5838 0.78558 0.48876 0.0
H2689 H 0.62636 0.81476 0.49895 0.0
C2690 C 0.72945 0.83643 0.5483 0.0
C2691 C 0.71909 0.84597 0.55797 0.0
C2692 C 0.72207 0.83208 0.53327 0.0
C2693 C 0.70429 0.83731 0.52762 0.0
C2694 C 0.69313 0.8458 0.53729 0.0
C2695 C 0.70053 0.8502 0.55234 0.0
C2696 C 0.69852 0.83546 0.51158 0.0
C2697 C 0.67437 0.81977 0.50537 0.0
C2698 C 0.71682 0.84914 0.50243 0.0
C2699 C 0.74246 0.86682 0.50843 0.0
C2700 C 0.74779 0.88632 0.51905 0.0
C2701 C 0.77197 0.90274 0.52478 0.0
C2702 C 0.79101 0.89997 0.51987 0.0
C2703 C 0.78589 0.88081 0.50919 0.0
C2704 C 0.76173 0.86432 0.50345 0.0
C2705 C 0.65805 0.842 0.44676 0.0
C2706 C 0.67149 0.83908 0.43595 0.0
C2707 C 0.66249 0.83904 0.46134 0.0
C2708 C 0.6802 0.83274 0.46541 0.0
C2709 C 0.69329 0.82925 0.45461 0.0
C2710 C 0.68895 0.83235 0.44 0.0
C2711 C 0.68621 0.8316 0.4811 0.0
C2712 C 0.71046 0.84686 0.48731 0.0
C2713 C 0.66798 0.81748 0.49021 0.0
C2714 C 0.64232 0.7999 0.48414 0.0
C2715 C 0.63716 0.78187 0.47252 0.0
C2716 C 0.61298 0.76548 0.46677 0.0
C2717 C 0.59377 0.76684 0.47262 0.0
C2718 C 0.5987 0.78456 0.48424 0.0
C2719 C 0.62285 0.801 0.49002 0.0
H2720 H 0.57506 0.75414 0.46815 0.0
H2721 H 0.80972 0.9127 0.52431 0.0
H2722 H 0.13105 0.90129 0.54815 0.0
H2723 H 0.138 0.89532 0.52267 0.0
H2724 H 0.12267 0.82191 0.52885 0.0
H2725 H 0.1158 0.82783 0.55445 0.0
H2726 H 0.16502 0.8491 0.51502 0.0
H2727 H 0.08103 0.82807 0.50985 0.0
H2728 H 0.04604 0.83408 0.51347 0.0
H2729 H 0.07899 0.89937 0.49126 0.0
H2730 H 0.11438 0.89396 0.4877 0.0
H2731 H 0.16543 0.81756 0.43958 0.0
H2732 H 0.15274 0.81721 0.46427 0.0
H2733 H 0.1571 0.88715 0.4605 0.0
H2734 H 0.16931 0.88731 0.43571 0.0
H2735 H 0.11803 0.8584 0.47315 0.0
H2736 H 0.20305 0.88177 0.47986 0.0
H2737 H 0.23899 0.8772 0.4766 0.0
H2738 H 0.20535 0.80932 0.49626 0.0
H2739 H 0.16904 0.81332 0.49946 0.0
C2740 C 0.12924 0.8839 0.54409 0.0
C2741 C 0.12293 0.86503 0.55327 0.0
C2742 C 0.13303 0.88046 0.52952 0.0
C2743 C 0.13066 0.85811 0.52386 0.0
C2744 C 0.1245 0.83925 0.53301 0.0
C2745 C 0.12047 0.84261 0.54758 0.0
C2746 C 0.13516 0.85476 0.50846 0.0
C2747 C 0.15449 0.85069 0.50582 0.0
C2748 C 0.12176 0.85744 0.49654 0.0
C2749 C 0.10046 0.86072 0.49862 0.0
C2750 C 0.08092 0.84383 0.50585 0.0
C2751 C 0.06099 0.8471 0.50787 0.0
C2752 C 0.06032 0.86713 0.50263 0.0
C2753 C 0.07955 0.88388 0.49532 0.0
C2754 C 0.09953 0.8807 0.49329 0.0
C2755 C 0.1637 0.83286 0.44404 0.0
C2756 C 0.16852 0.85255 0.43577 0.0
C2757 C 0.15647 0.83266 0.45815 0.0
C2758 C 0.15437 0.85236 0.46436 0.0
C2759 C 0.15862 0.87175 0.45596 0.0
C2760 C 0.16558 0.87183 0.44179 0.0
C2761 C 0.14814 0.85303 0.47967 0.0
C2762 C 0.12848 0.85662 0.48231 0.0
C2763 C 0.16138 0.8501 0.49161 0.0
C2764 C 0.18323 0.84772 0.48975 0.0
C2765 C 0.20324 0.86578 0.48339 0.0
C2766 C 0.22369 0.86331 0.48157 0.0
C2767 C 0.22442 0.84295 0.48619 0.0
C2768 C 0.20473 0.82505 0.49267 0.0
C2769 C 0.18422 0.82742 0.4945 0.0
H2770 H 0.24027 0.84107 0.48477 0.0
H2771 H 0.04487 0.86963 0.5042 0.0
H2772 H 0.64446 0.81116 0.10831 0.0
H2773 H 0.65985 0.81851 0.13432 0.0
H2774 H 0.60193 0.83186 0.14545 0.0
H2775 H 0.5869 0.82511 0.11948 0.0
H2776 H 0.64282 0.86233 0.16234 0.0
H2777 H 0.59728 0.77509 0.14723 0.0
H2778 H 0.5876 0.73721 0.13193 0.0
H2779 H 0.65921 0.74899 0.14488 0.0
H2780 H 0.66943 0.78715 0.1601 0.0
H2781 H 0.63073 0.83184 0.23572 0.0
H2782 H 0.62518 0.83448 0.20945 0.0
H2783 H 0.68569 0.82295 0.20269 0.0
H2784 H 0.69072 0.81928 0.22883 0.0
H2785 H 0.64733 0.79391 0.18343 0.0
H2786 H 0.69101 0.87974 0.20067 0.0
H2787 H 0.69934 0.91692 0.2162 0.0
H2788 H 0.62986 0.90711 0.19969 0.0
H2789 H 0.62096 0.86966 0.1842 0.0
C2790 C 0.63523 0.81593 0.11633 0.0
C2791 C 0.61444 0.81745 0.11193 0.0
C2792 C 0.64398 0.82009 0.13116 0.0
C2793 C 0.63176 0.8253 0.14184 0.0
C2794 C 0.61165 0.82787 0.1374 0.0
C2795 C 0.60308 0.82402 0.12257 0.0
C2796 C 0.63888 0.82656 0.15769 0.0
C2797 C 0.64366 0.84732 0.16698 0.0
C2798 C 0.64041 0.80716 0.1637 0.0
C2799 C 0.6342 0.78409 0.15467 0.0
C2800 C 0.61101 0.76968 0.14673 0.0
C2801 C 0.60542 0.74816 0.13809 0.0
C2802 C 0.6228 0.74074 0.1374 0.0
C2803 C 0.64578 0.75479 0.1454 0.0
C2804 C 0.65148 0.77635 0.15404 0.0
C2805 C 0.64282 0.82982 0.22864 0.0
C2806 C 0.66114 0.82532 0.23437 0.0
C2807 C 0.63982 0.83162 0.21365 0.0
C2808 C 0.65522 0.8292 0.20414 0.0
C2809 C 0.67369 0.825 0.20985 0.0
C2810 C 0.67666 0.82311 0.22482 0.0
C2811 C 0.65114 0.82962 0.18812 0.0
C2812 C 0.64682 0.8091 0.17879 0.0
C2813 C 0.64986 0.84915 0.18213 0.0
C2814 C 0.65525 0.87178 0.19135 0.0
C2815 C 0.67743 0.88541 0.20042 0.0
C2816 C 0.68227 0.90655 0.20921 0.0
C2817 C 0.66512 0.91434 0.20895 0.0
C2818 C 0.64312 0.90104 0.19988 0.0
C2819 C 0.63819 0.87988 0.19108 0.0
H2820 H 0.66889 0.93071 0.21577 0.0
H2821 H 0.61845 0.72407 0.1307 0.0
H2822 H 0.22314 0.83988 0.12061 0.0
H2823 H 0.21586 0.84486 0.14621 0.0
H2824 H 0.19965 0.77081 0.15125 0.0
H2825 H 0.20692 0.76577 0.1258 0.0
H2826 H 0.165 0.77887 0.16096 0.0
H2827 H 0.25325 0.82104 0.16667 0.0
H2828 H 0.2947 0.85218 0.16169 0.0
H2829 H 0.28067 0.90982 0.17569 0.0
H2830 H 0.23899 0.879 0.18056 0.0
H2831 H 0.16071 0.77427 0.2368 0.0
H2832 H 0.17339 0.77508 0.21213 0.0
H2833 H 0.18957 0.85008 0.21171 0.0
H2834 H 0.17719 0.84946 0.23656 0.0
H2835 H 0.22378 0.84395 0.19939 0.0
H2836 H 0.13635 0.80271 0.19406 0.0
H2837 H 0.09466 0.77214 0.19902 0.0
H2838 H 0.10663 0.71356 0.1839 0.0
H2839 H 0.14853 0.74378 0.17904 0.0
C2840 C 0.21837 0.82481 0.12726 0.0
C2841 C 0.2154 0.80236 0.12116 0.0
C2842 C 0.21421 0.82767 0.14187 0.0
C2843 C 0.20724 0.80821 0.15065 0.0
C2844 C 0.20485 0.78602 0.14466 0.0
C2845 C 0.20894 0.78314 0.1301 0.0
C2846 C 0.20123 0.8103 0.16586 0.0
C2847 C 0.17798 0.79293 0.1694 0.0
C2848 C 0.21784 0.82917 0.17674 0.0
C2849 C 0.2429 0.8477 0.17382 0.0
C2850 C 0.25892 0.84035 0.16856 0.0
C2851 C 0.28247 0.85794 0.16578 0.0
C2852 C 0.29029 0.88296 0.16833 0.0
C2853 C 0.27458 0.89044 0.1737 0.0
C2854 C 0.251 0.87291 0.17648 0.0
C2855 C 0.16694 0.79092 0.23144 0.0
C2856 C 0.16769 0.81171 0.23853 0.0
C2857 C 0.1742 0.79138 0.21735 0.0
C2858 C 0.18198 0.81249 0.20995 0.0
C2859 C 0.18355 0.83357 0.21719 0.0
C2860 C 0.17649 0.83319 0.23137 0.0
C2861 C 0.18775 0.81218 0.19452 0.0
C2862 C 0.21082 0.82994 0.19092 0.0
C2863 C 0.17093 0.79375 0.18351 0.0
C2864 C 0.14565 0.77552 0.1863 0.0
C2865 C 0.13015 0.7833 0.19189 0.0
C2866 C 0.10647 0.76604 0.19467 0.0
C2867 C 0.09802 0.74093 0.19181 0.0
C2868 C 0.11321 0.73302 0.18612 0.0
C2869 C 0.13692 0.75021 0.18334 0.0
H2870 H 0.07969 0.72759 0.19398 0.0
H2871 H 0.30853 0.89656 0.16618 0.0
H2872 H 0.20979 0.44639 0.13343 0.0
H2873 H 0.20249 0.43265 0.15794 0.0
H2874 H 0.22144 0.37733 0.14633 0.0
H2875 H 0.22835 0.39071 0.1217 0.0
H2876 H 0.17884 0.35862 0.15905 0.0
H2877 H 0.26026 0.42737 0.16931 0.0
H2878 H 0.29317 0.47042 0.16939 0.0
H2879 H 0.25309 0.49481 0.19486 0.0
H2880 H 0.21976 0.45191 0.19475 0.0
H2881 H 0.17933 0.32121 0.23001 0.0
H2882 H 0.19209 0.33747 0.2066 0.0
H2883 H 0.17739 0.39593 0.21799 0.0
H2884 H 0.16484 0.37987 0.24154 0.0
H2885 H 0.21896 0.41314 0.20541 0.0
H2886 H 0.137 0.34522 0.1944 0.0
H2887 H 0.10351 0.3024 0.19423 0.0
H2888 H 0.14382 0.27679 0.16997 0.0
H2889 H 0.17772 0.31946 0.17018 0.0
C2890 C 0.21243 0.43132 0.13612 0.0
C2891 C 0.21959 0.41958 0.12564 0.0
C2892 C 0.20845 0.42362 0.15015 0.0
C2893 C 0.21158 0.40407 0.15399 0.0
C2894 C 0.21899 0.3925 0.14361 0.0
C2895 C 0.22309 0.40027 0.12958 0.0
C2896 C 0.20603 0.39499 0.1686 0.0
C2897 C 0.1879 0.37043 0.1692 0.0
C2898 C 0.21737 0.4106 0.18181 0.0
C2899 C 0.2374 0.43643 0.1819 0.0
C2900 C 0.25836 0.44193 0.17482 0.0
C2901 C 0.27712 0.4663 0.1749 0.0
C2902 C 0.2752 0.48535 0.1821 0.0
C2903 C 0.25454 0.48004 0.18927 0.0
C2904 C 0.23572 0.4557 0.18922 0.0
C2905 C 0.17872 0.33747 0.2275 0.0
C2906 C 0.17087 0.34914 0.23755 0.0
C2907 C 0.18604 0.34676 0.21412 0.0
C2908 C 0.18532 0.3677 0.21043 0.0
C2909 C 0.17806 0.37974 0.2206 0.0
C2910 C 0.17091 0.37056 0.23404 0.0
C2911 C 0.19175 0.37676 0.19587 0.0
C2912 C 0.20998 0.40131 0.19527 0.0
C2913 C 0.18041 0.36118 0.18263 0.0
C2914 C 0.16 0.33552 0.18243 0.0
C2915 C 0.1388 0.33044 0.18913 0.0
C2916 C 0.11973 0.3062 0.18901 0.0
C2917 C 0.12156 0.28688 0.18213 0.0
C2918 C 0.14245 0.29177 0.17532 0.0
C2919 C 0.16158 0.31598 0.17542 0.0
H2920 H 0.10678 0.26813 0.18205 0.0
H2921 H 0.28974 0.50421 0.18215 0.0
H2922 H 0.78652 0.55608 0.86948 0.0
H2923 H 0.79536 0.56998 0.84512 0.0
H2924 H 0.79111 0.63438 0.85873 0.0
H2925 H 0.7814 0.61999 0.88301 0.0
H2926 H 0.77169 0.61849 0.83145 0.0
H2927 H 0.84665 0.63615 0.85819 0.0
H2928 H 0.87425 0.62703 0.87313 0.0
H2929 H 0.86769 0.57483 0.83828 0.0
H2930 H 0.83973 0.58337 0.82321 0.0
H2931 H 0.83961 0.68851 0.77514 0.0
H2932 H 0.82748 0.67436 0.79917 0.0
H2933 H 0.82064 0.60456 0.7849 0.0
H2934 H 0.83298 0.61866 0.76094 0.0
H2935 H 0.84618 0.62458 0.81267 0.0
H2936 H 0.7714 0.60932 0.78576 0.0
H2937 H 0.74634 0.62182 0.77112 0.0
H2938 H 0.75474 0.67304 0.80715 0.0
H2939 H 0.78055 0.66141 0.82187 0.0
C2940 C 0.7873 0.5731 0.8672 0.0
C2941 C 0.78353 0.58711 0.87811 0.0
C2942 C 0.79243 0.58108 0.85332 0.0
C2943 C 0.79449 0.60353 0.8502 0.0
C2944 C 0.78973 0.61707 0.86091 0.0
C2945 C 0.7842 0.60887 0.87475 0.0
C2946 C 0.80248 0.61326 0.83597 0.0
C2947 C 0.78814 0.6201 0.82743 0.0
C2948 C 0.82386 0.61521 0.83065 0.0
C2949 C 0.84091 0.61024 0.83962 0.0
C2950 C 0.85097 0.62262 0.85375 0.0
C2951 C 0.86669 0.61756 0.86224 0.0
C2952 C 0.87267 0.60032 0.85667 0.0
C2953 C 0.86301 0.58816 0.84258 0.0
C2954 C 0.84724 0.59311 0.83406 0.0
C2955 C 0.83561 0.6702 0.77717 0.0
C2956 C 0.83711 0.65463 0.76616 0.0
C2957 C 0.82858 0.66211 0.79084 0.0
C2958 C 0.82301 0.63836 0.79374 0.0
C2959 C 0.8248 0.62292 0.78284 0.0
C2960 C 0.83166 0.63092 0.76914 0.0
C2961 C 0.81528 0.62953 0.80814 0.0
C2962 C 0.82973 0.62294 0.81671 0.0
C2963 C 0.79424 0.62819 0.81356 0.0
C2964 C 0.77814 0.63468 0.80486 0.0
C2965 C 0.76809 0.6234 0.79053 0.0
C2966 C 0.75375 0.63034 0.78221 0.0
C2967 C 0.74898 0.64824 0.78819 0.0
C2968 C 0.7585 0.65921 0.80252 0.0
C2969 C 0.77302 0.65248 0.81085 0.0
H2970 H 0.73784 0.65356 0.78173 0.0
H2971 H 0.88484 0.59642 0.86326 0.0
H2972 H 0.361 0.19796 0.89151 0.0
H2973 H 0.34899 0.19084 0.86505 0.0
H2974 H 0.39637 0.1609 0.85883 0.0
H2975 H 0.40897 0.1686 0.8852 0.0
H2976 H 0.40365 0.19469 0.84036 0.0
H2977 H 0.33468 0.12353 0.85459 0.0
H2978 H 0.29984 0.1004 0.86883 0.0
H2979 H 0.26563 0.13983 0.85294 0.0
H2980 H 0.30043 0.16347 0.83876 0.0
H2981 H 0.36718 0.16629 0.76423 0.0
H2982 H 0.37335 0.16022 0.7898 0.0
H2983 H 0.32514 0.18685 0.80172 0.0
H2984 H 0.31753 0.19131 0.77606 0.0
H2985 H 0.31808 0.15027 0.81696 0.0
H2986 H 0.38895 0.22464 0.80541 0.0
H2987 H 0.42359 0.2482 0.79109 0.0
H2988 H 0.45405 0.20306 0.80217 0.0
H2989 H 0.41941 0.17906 0.81642 0.0
C2990 C 0.36877 0.18977 0.8845 0.0
C2991 C 0.38594 0.18385 0.89043 0.0
C2992 C 0.36173 0.1855 0.86941 0.0
C2993 C 0.37164 0.17514 0.85999 0.0
C2994 C 0.38843 0.16881 0.86591 0.0
C2995 C 0.39546 0.17305 0.88099 0.0
C2996 C 0.3657 0.17244 0.84388 0.0
C2997 C 0.38496 0.18458 0.83521 0.0
C2998 C 0.34129 0.15966 0.83722 0.0
C2999 C 0.32028 0.14542 0.8457 0.0
C3000 C 0.31982 0.12741 0.85422 0.0
C3001 C 0.30006 0.11418 0.86226 0.0
C3002 C 0.28056 0.11867 0.86181 0.0
C3003 C 0.28076 0.13638 0.85329 0.0
C3004 C 0.30048 0.14968 0.84523 0.0
C3005 C 0.35745 0.17033 0.77222 0.0
C3006 C 0.34201 0.1795 0.76808 0.0
C3007 C 0.36122 0.16712 0.78688 0.0
C3008 C 0.35008 0.17354 0.79773 0.0
C3009 C 0.33404 0.18189 0.79356 0.0
C3010 C 0.32997 0.18476 0.77889 0.0
C3011 C 0.356 0.17283 0.81351 0.0
C3012 C 0.33677 0.16011 0.82211 0.0
C3013 C 0.38043 0.18519 0.82016 0.0
C3014 C 0.40151 0.19994 0.81186 0.0
C3015 C 0.403 0.21969 0.80474 0.0
C3016 C 0.42262 0.23312 0.79664 0.0
C3017 C 0.44098 0.2271 0.7957 0.0
C3018 C 0.4398 0.20769 0.8029 0.0
C3019 C 0.4202 0.19419 0.811 0.0
H3020 H 0.45615 0.23749 0.78941 0.0
H3021 H 0.26528 0.10841 0.86805 0.0
H3022 H 0.78515 0.23177 0.87445 0.0
H3023 H 0.79181 0.22565 0.84888 0.0
H3024 H 0.77791 0.1528 0.85537 0.0
H3025 H 0.77108 0.15879 0.88098 0.0
H3026 H 0.82165 0.18244 0.84243 0.0
H3027 H 0.73623 0.15695 0.83582 0.0
H3028 H 0.70001 0.16124 0.83852 0.0
H3029 H 0.73141 0.22583 0.81562 0.0
H3030 H 0.768 0.22213 0.81296 0.0
H3031 H 0.82737 0.1494 0.7686 0.0
H3032 H 0.81312 0.14927 0.79281 0.0
H3033 H 0.81089 0.21532 0.78601 0.0
H3034 H 0.82426 0.2149 0.76156 0.0
H3035 H 0.77355 0.18691 0.79925 0.0
H3036 H 0.85946 0.21542 0.80716 0.0
H3037 H 0.89725 0.2138 0.80495 0.0
H3038 H 0.86729 0.14727 0.82601 0.0
H3039 H 0.82918 0.14832 0.82818 0.0
C3040 C 0.78341 0.21442 0.87038 0.0
C3041 C 0.77765 0.19575 0.87966 0.0
C3042 C 0.78708 0.2109 0.85578 0.0
C3043 C 0.78523 0.18874 0.85025 0.0
C3044 C 0.77933 0.17 0.85946 0.0
C3045 C 0.77534 0.17339 0.87402 0.0
C3046 C 0.79058 0.18564 0.83503 0.0
C3047 C 0.81091 0.18297 0.83295 0.0
C3048 C 0.77698 0.18715 0.82276 0.0
C3049 C 0.75496 0.18938 0.82431 0.0
C3050 C 0.73552 0.17219 0.83147 0.0
C3051 C 0.71489 0.17449 0.83297 0.0
C3052 C 0.71343 0.19383 0.82727 0.0
C3053 C 0.73257 0.21087 0.82004 0.0
C3054 C 0.75325 0.20866 0.81852 0.0
C3055 C 0.82375 0.16382 0.77229 0.0
C3056 C 0.82708 0.18227 0.7633 0.0
C3057 C 0.8157 0.1638 0.78613 0.0
C3058 C 0.81144 0.1826 0.7914 0.0
C3059 C 0.81411 0.20066 0.78223 0.0
C3060 C 0.82176 0.20044 0.76828 0.0
C3061 C 0.80478 0.18379 0.80658 0.0
C3062 C 0.78425 0.18619 0.80869 0.0
C3063 C 0.81844 0.18244 0.81893 0.0
C3064 C 0.84138 0.18182 0.81769 0.0
C3065 C 0.86087 0.20035 0.81123 0.0
C3066 C 0.88235 0.19955 0.81 0.0
C3067 C 0.88464 0.18041 0.8153 0.0
C3068 C 0.86547 0.16206 0.82189 0.0
C3069 C 0.84394 0.16276 0.82313 0.0
H3070 H 0.90129 0.17981 0.81434 0.0
H3071 H 0.69745 0.19557 0.82845 0.0
H3072 H 0.25863 0.16035 0.45181 0.0
H3073 H 0.27259 0.16582 0.47788 0.0
H3074 H 0.32109 0.13866 0.46782 0.0
H3075 H 0.30734 0.1333 0.44169 0.0
H3076 H 0.29296 0.11524 0.48892 0.0
H3077 H 0.34365 0.19899 0.47931 0.0
H3078 H 0.35242 0.23831 0.47026 0.0
H3079 H 0.3062 0.24538 0.5002 0.0
H3080 H 0.29687 0.20591 0.50929 0.0
H3081 H 0.34998 0.13597 0.5605 0.0
H3082 H 0.34346 0.13864 0.5344 0.0
H3083 H 0.2968 0.16846 0.54351 0.0
H3084 H 0.30428 0.16709 0.56979 0.0
H3085 H 0.32532 0.19154 0.52279 0.0
H3086 H 0.27277 0.10755 0.53147 0.0
H3087 H 0.26266 0.06781 0.54045 0.0
H3088 H 0.31075 0.06072 0.51204 0.0
H3089 H 0.3214 0.10059 0.50304 0.0
C3090 C 0.27267 0.15606 0.45511 0.0
C3091 C 0.28186 0.14634 0.4447 0.0
C3092 C 0.2806 0.15917 0.47002 0.0
C3093 C 0.29796 0.15275 0.47477 0.0
C3094 C 0.30764 0.14367 0.46437 0.0
C3095 C 0.29972 0.14056 0.44947 0.0
C3096 C 0.3047 0.15384 0.49064 0.0
C3097 C 0.30045 0.13203 0.49629 0.0
C3098 C 0.31372 0.17557 0.5003 0.0
C3099 C 0.31939 0.19937 0.49489 0.0
C3100 C 0.3352 0.20883 0.48389 0.0
C3101 C 0.3403 0.23117 0.47877 0.0
C3102 C 0.32983 0.24431 0.48463 0.0
C3103 C 0.31428 0.23517 0.49566 0.0
C3104 C 0.3091 0.21283 0.50081 0.0
C3105 C 0.33868 0.14352 0.55702 0.0
C3106 C 0.32756 0.15121 0.56727 0.0
C3107 C 0.33475 0.14478 0.54206 0.0
C3108 C 0.31931 0.15335 0.53699 0.0
C3109 C 0.30869 0.16166 0.54718 0.0
C3110 C 0.31276 0.1606 0.56218 0.0
C3111 C 0.31367 0.15295 0.52103 0.0
C3112 C 0.318 0.17481 0.51539 0.0
C3113 C 0.30453 0.13121 0.51135 0.0
C3114 C 0.29806 0.10717 0.5167 0.0
C3115 C 0.28133 0.0976 0.52722 0.0
C3116 C 0.27548 0.07504 0.5323 0.0
C3117 C 0.2861 0.06178 0.52685 0.0
C3118 C 0.30255 0.07102 0.51627 0.0
C3119 C 0.30849 0.09359 0.51117 0.0
H3120 H 0.28155 0.04432 0.53079 0.0
H3121 H 0.33381 0.2616 0.48065 0.0
H3122 H 0.84045 0.12964 0.44544 0.0
H3123 H 0.83375 0.13592 0.47086 0.0
H3124 H 0.91011 0.16358 0.48438 0.0
H3125 H 0.9168 0.15655 0.45896 0.0
H3126 H 0.88165 0.13108 0.50208 0.0
H3127 H 0.88734 0.20253 0.48346 0.0
H3128 H 0.87804 0.22603 0.46625 0.0
H3129 H 0.80285 0.18803 0.47513 0.0
H3130 H 0.81162 0.16404 0.49223 0.0
H3131 H 0.86812 0.16453 0.57496 0.0
H3132 H 0.88213 0.16741 0.55053 0.0
H3133 H 0.8085 0.14039 0.53094 0.0
H3134 H 0.79458 0.1386 0.55528 0.0
H3135 H 0.84015 0.17685 0.51698 0.0
H3136 H 0.83382 0.10264 0.53354 0.0
H3137 H 0.84294 0.07885 0.55063 0.0
H3138 H 0.91948 0.12228 0.54554 0.0
H3139 H 0.91083 0.14652 0.52855 0.0
C3140 C 0.85582 0.13699 0.45382 0.0
C3141 C 0.87915 0.14253 0.45017 0.0
C3142 C 0.85202 0.14083 0.46833 0.0
C3143 C 0.87149 0.1505 0.47952 0.0
C3144 C 0.89485 0.15621 0.47592 0.0
C3145 C 0.89868 0.15236 0.46138 0.0
C3146 C 0.86711 0.15365 0.49501 0.0
C3147 C 0.873 0.14148 0.50541 0.0
C3148 C 0.85545 0.16687 0.49929 0.0
C3149 C 0.85011 0.18135 0.48905 0.0
C3150 C 0.86878 0.19905 0.48166 0.0
C3151 C 0.86361 0.21249 0.47194 0.0
C3152 C 0.83986 0.20849 0.46958 0.0
C3153 C 0.82124 0.1911 0.47696 0.0
C3154 C 0.82631 0.1776 0.48669 0.0
C3155 C 0.85496 0.15953 0.56546 0.0
C3156 C 0.83016 0.15115 0.5671 0.0
C3157 C 0.86297 0.16095 0.55149 0.0
C3158 C 0.8463 0.15376 0.53888 0.0
C3159 C 0.82168 0.14593 0.5405 0.0
C3160 C 0.8137 0.14465 0.55444 0.0
C3161 C 0.85425 0.15389 0.52397 0.0
C3162 C 0.84905 0.16668 0.51368 0.0
C3163 C 0.86653 0.14123 0.51978 0.0
C3164 C 0.87171 0.12654 0.5299 0.0
C3165 C 0.85261 0.10721 0.53614 0.0
C3166 C 0.85769 0.09364 0.5458 0.0
C3167 C 0.88178 0.09909 0.5492 0.0
C3168 C 0.90083 0.11809 0.54291 0.0
C3169 C 0.89585 0.13174 0.53326 0.0
H3170 H 0.88568 0.08857 0.55668 0.0
H3171 H 0.83589 0.21891 0.46205 0.0
H3172 H 0.92018 0.7725 0.46876 0.0
H3173 H 0.91099 0.7574 0.49289 0.0
H3174 H 0.83463 0.71254 0.4768 0.0
H3175 H 0.84367 0.72729 0.4527 0.0
H3176 H 0.84078 0.73852 0.50276 0.0
H3177 H 0.87032 0.68711 0.48235 0.0
H3178 H 0.9001 0.67874 0.47101 0.0
H3179 H 0.95307 0.71872 0.5082 0.0
H3180 H 0.92369 0.72762 0.51968 0.0
H3181 H 0.79382 0.66121 0.55884 0.0
H3182 H 0.80694 0.67735 0.5355 0.0
H3183 H 0.88194 0.7179 0.55481 0.0
H3184 H 0.86905 0.701 0.57809 0.0
H3185 H 0.8788 0.69655 0.52803 0.0
H3186 H 0.8493 0.74687 0.54893 0.0
H3187 H 0.81992 0.75565 0.56045 0.0
H3188 H 0.76764 0.71883 0.52257 0.0
H3189 H 0.79659 0.70951 0.5109 0.0
C3190 C 0.90149 0.75917 0.47032 0.0
C3191 C 0.88263 0.75123 0.45883 0.0
C3192 C 0.89626 0.75059 0.48412 0.0
C3193 C 0.87211 0.73382 0.48664 0.0
C3194 C 0.85336 0.72561 0.47513 0.0
C3195 C 0.85856 0.73413 0.46137 0.0
C3196 C 0.8661 0.72525 0.50135 0.0
C3197 C 0.84889 0.7291 0.50821 0.0
C3198 C 0.87725 0.71364 0.50867 0.0
C3199 C 0.8949 0.70826 0.5018 0.0
C3200 C 0.88838 0.69429 0.48805 0.0
C3201 C 0.90518 0.68942 0.48161 0.0
C3202 C 0.92848 0.69825 0.48886 0.0
C3203 C 0.93502 0.71192 0.50259 0.0
C3204 C 0.9183 0.71687 0.50907 0.0
C3205 C 0.81314 0.67336 0.55811 0.0
C3206 C 0.83036 0.67984 0.57038 0.0
C3207 C 0.8206 0.68279 0.54478 0.0
C3208 C 0.8454 0.69912 0.54345 0.0
C3209 C 0.86269 0.70542 0.5556 0.0
C3210 C 0.85526 0.69593 0.56895 0.0
C3211 C 0.8532 0.7095 0.52933 0.0
C3212 C 0.87077 0.70607 0.52261 0.0
C3213 C 0.84247 0.72161 0.52215 0.0
C3214 C 0.82505 0.72731 0.52909 0.0
C3215 C 0.83148 0.74049 0.5431 0.0
C3216 C 0.81491 0.74558 0.54965 0.0
C3217 C 0.79191 0.73775 0.54226 0.0
C3218 C 0.78545 0.72486 0.52829 0.0
C3219 C 0.80195 0.71969 0.52169 0.0
H3220 H 0.7791 0.74171 0.54735 0.0
H3221 H 0.94146 0.69446 0.48386 0.0
loop_
_geom_bond_atom_site_label_1
_geom_bond_atom_site_label_2
_geom_bond_distance
_geom_bond_site_symmetry_2
_ccdc_geom_bond_type
H0 C3 0.931 . S
H1 C6 0.928 . S
H2 C8 0.930 . S
C3 H0 0.931 . S
C3 C4 1.413 . S
C3 C5 1.360 . S
C4 C3 1.413 . S
C4 C8 1.429 . S
C5 C3 1.360 . S
C5 C6 1.372 . S
C6 H1 0.928 . S
C6 C5 1.372 . S
C6 C7 1.404 . S
C7 C6 1.404 . S
C7 C8 1.391 . S
C8 H2 0.930 . S
C8 C4 1.429 . S
C8 C7 1.391 . S
H9 C12 0.931 . S
H10 C15 0.928 . S
H11 C17 0.930 . S
C12 H9 0.931 . S
C12 C13 1.413 . S
C12 C14 1.360 . S
C13 C12 1.413 . S
C13 C17 1.429 . S
C14 C12 1.360 . S
C14 C15 1.372 . S
C15 H10 0.928 . S
C15 C14 1.372 . S
C15 C16 1.404 . S
C16 C15 1.404 . S
C16 C17 1.391 . S
C17 H11 0.930 . S
C17 C13 1.429 . S
C17 C16 1.391 . S
H18 C21 0.931 . S
H19 C24 0.928 . S
H20 C26 0.930 . S
C21 H18 0.931 . S
C21 C22 1.413 . S
C21 C23 1.360 . S
C22 C21 1.413 . S
C22 C26 1.429 . S
C23 C21 1.360 . S
C23 C24 1.372 . S
C24 H19 0.928 . S
C24 C23 1.372 . S
C24 C25 1.404 . S
C25 C24 1.404 . S
C25 C26 1.391 . S
C26 H20 0.930 . S
C26 C22 1.429 . S
C26 C25 1.391 . S
H27 C30 0.931 . S
H28 C33 0.928 . S
H29 C35 0.930 . S
C30 H27 0.931 . S
C30 C31 1.413 . S
C30 C32 1.360 . S
C31 C30 1.413 . S
C31 C35 1.429 . S
C32 C30 1.360 . S
C32 C33 1.372 . S
C33 H28 0.928 . S
C33 C32 1.372 . S
C33 C34 1.404 . S
C34 C33 1.404 . S
C34 C35 1.391 . S
C35 H29 0.930 . S
C35 C31 1.429 . S
C35 C34 1.391 . S
H36 C39 0.931 . S
H37 C42 0.928 . S
H38 C44 0.930 . S
C39 H36 0.931 . S
C39 C40 1.413 . S
C39 C41 1.360 . S
C40 C39 1.413 . S
C40 C44 1.429 . S
C41 C39 1.360 . S
C41 C42 1.372 . S
C42 H37 0.928 . S
C42 C41 1.372 . S
C42 C43 1.404 . S
C43 C42 1.404 . S
C43 C44 1.391 . S
C44 H38 0.930 . S
C44 C40 1.429 . S
C44 C43 1.391 . S
H45 C48 0.931 . S
H46 C51 0.928 . S
H47 C53 0.930 . S
C48 H45 0.931 . S
C48 C49 1.413 . S
C48 C50 1.360 . S
C49 C48 1.413 . S
C49 C53 1.429 . S
C50 C48 1.360 . S
C50 C51 1.372 . S
C51 H46 0.928 . S
C51 C50 1.372 . S
C51 C52 1.404 . S
C52 C51 1.404 . S
C52 C53 1.391 . S
C53 H47 0.930 . S
C53 C49 1.429 . S
C53 C52 1.391 . S
H54 C57 0.931 . S
H55 C60 0.928 . S
H56 C62 0.930 . S
C57 H54 0.931 . S
C57 C58 1.413 . S
C57 C59 1.360 . S
C58 C57 1.413 . S
C58 C62 1.429 . S
C59 C57 1.360 . S
C59 C60 1.372 . S
C60 H55 0.928 . S
C60 C59 1.372 . S
C60 C61 1.404 . S
C61 C60 1.404 . S
C61 C62 1.391 . S
C62 H56 0.930 . S
C62 C58 1.429 . S
C62 C61 1.391 . S
H63 C66 0.931 . S
H64 C69 0.928 . S
H65 C71 0.930 . S
C66 H63 0.931 . S
C66 C67 1.413 . S
C66 C68 1.360 . S
C67 C66 1.413 . S
C67 C71 1.429 . S
C68 C66 1.360 . S
C68 C69 1.372 . S
C69 H64 0.928 . S
C69 C68 1.372 . S
C69 C70 1.404 . S
C70 C69 1.404 . S
C70 C71 1.391 . S
C71 H65 0.930 . S
C71 C67 1.429 . S
C71 C70 1.391 . S
H72 C75 0.931 . S
H73 C78 0.928 . S
H74 C80 0.930 . S
C75 H72 0.931 . S
C75 C76 1.413 . S
C75 C77 1.360 . S
C76 C75 1.413 . S
C76 C80 1.429 . S
C77 C75 1.360 . S
C77 C78 1.372 . S
C78 H73 0.928 . S
C78 C77 1.372 . S
C78 C79 1.404 . S
C79 C78 1.404 . S
C79 C80 1.391 . S
C80 H74 0.930 . S
C80 C76 1.429 . S
C80 C79 1.391 . S
H81 C84 0.931 . S
H82 C87 0.928 . S
H83 C89 0.930 . S
C84 H81 0.931 . S
C84 C85 1.413 . S
C84 C86 1.360 . S
C85 C84 1.413 . S
C85 C89 1.429 . S
C86 C84 1.360 . S
C86 C87 1.372 . S
C87 H82 0.928 . S
C87 C86 1.372 . S
C87 C88 1.404 . S
C88 C87 1.404 . S
C88 C89 1.391 . S
C89 H83 0.930 . S
C89 C85 1.429 . S
C89 C88 1.391 . S
H90 C93 0.931 . S
H91 C96 0.928 . S
H92 C98 0.930 . S
C93 H90 0.931 . S
C93 C94 1.413 . S
C93 C95 1.360 . S
C94 C93 1.413 . S
C94 C98 1.429 . S
C95 C93 1.360 . S
C95 C96 1.372 . S
C96 H91 0.928 . S
C96 C95 1.372 . S
C96 C97 1.404 . S
C97 C96 1.404 . S
C97 C98 1.391 . S
C98 H92 0.930 . S
C98 C94 1.429 . S
C98 C97 1.391 . S
H99 C102 0.931 . S
H100 C105 0.928 . S
H101 C107 0.930 . S
C102 H99 0.931 . S
C102 C103 1.413 . S
C102 C104 1.360 . S
C103 C102 1.413 . S
C103 C107 1.429 . S
C104 C102 1.360 . S
C104 C105 1.372 . S
C105 H100 0.928 . S
C105 C104 1.372 . S
C105 C106 1.404 . S
C106 C105 1.404 . S
C106 C107 1.391 . S
C107 H101 0.930 . S
C107 C103 1.429 . S
C107 C106 1.391 . S
H108 C111 0.931 . S
H109 C114 0.928 . S
H110 C116 0.930 . S
C111 H108 0.931 . S
C111 C112 1.413 . S
C111 C113 1.360 . S
C112 C111 1.413 . S
C112 C116 1.429 . S
C113 C111 1.360 . S
C113 C114 1.372 . S
C114 H109 0.928 . S
C114 C113 1.372 . S
C114 C115 1.404 . S
C115 C114 1.404 . S
C115 C116 1.391 . S
C116 H110 0.930 . S
C116 C112 1.429 . S
C116 C115 1.391 . S
H117 C120 0.931 . S
H118 C123 0.928 . S
H119 C125 0.930 . S
C120 H117 0.931 . S
C120 C121 1.413 . S
C120 C122 1.360 . S
C121 C120 1.413 . S
C121 C125 1.429 . S
C122 C120 1.360 . S
C122 C123 1.372 . S
C123 H118 0.928 . S
C123 C122 1.372 . S
C123 C124 1.404 . S
C124 C123 1.404 . S
C124 C125 1.391 . S
C125 H119 0.930 . S
C125 C121 1.429 . S
C125 C124 1.391 . S
H126 C129 0.931 . S
H127 C132 0.928 . S
H128 C134 0.930 . S
C129 H126 0.931 . S
C129 C130 1.413 . S
C129 C131 1.360 . S
C130 C129 1.413 . S
C130 C134 1.429 . S
C131 C129 1.360 . S
C131 C132 1.372 . S
C132 H127 0.928 . S
C132 C131 1.372 . S
C132 C133 1.404 . S
C133 C132 1.404 . S
C133 C134 1.391 . S
C134 H128 0.930 . S
C134 C130 1.429 . S
C134 C133 1.391 . S
H135 C138 0.931 . S
H136 C141 0.928 . S
H137 C143 0.930 . S
C138 H135 0.931 . S
C138 C139 1.413 . S
C138 C140 1.360 . S
C139 C138 1.413 . S
C139 C143 1.429 . S
C140 C138 1.360 . S
C140 C141 1.372 . S
C141 H136 0.928 . S
C141 C140 1.372 . S
C141 C142 1.404 . S
C142 C141 1.404 . S
C142 C143 1.391 . S
C143 H137 0.930 . S
C143 C139 1.429 . S
C143 C142 1.391 . S
H144 C147 0.931 . S
H145 C150 0.928 . S
H146 C152 0.930 . S
C147 H144 0.931 . S
C147 C148 1.413 . S
C147 C149 1.360 . S
C148 C147 1.413 . S
C148 C152 1.429 . S
C149 C147 1.360 . S
C149 C150 1.372 . S
C150 H145 0.928 . S
C150 C149 1.372 . S
C150 C151 1.404 . S
C151 C150 1.404 . S
C151 C152 1.391 . S
C152 H146 0.930 . S
C152 C148 1.429 . S
C152 C151 1.391 . S
H153 C156 0.931 . S
H154 C159 0.928 . S
H155 C161 0.930 . S
C156 H153 0.931 . S
C156 C157 1.413 . S
C156 C158 1.360 . S
C157 C156 1.413 . S
C157 C161 1.429 . S
C158 C156 1.360 . S
C158 C159 1.372 . S
C159 H154 0.928 . S
C159 C158 1.372 . S
C159 C160 1.404 . S
C160 C159 1.404 . S
C160 C161 1.391 . S
C161 H155 0.930 . S
C161 C157 1.429 . S
C161 C160 1.391 . S
C162 Eu163 2.835 . S
C162 C164 1.500 . S
C162 O182 1.257 1_545 S
C162 O183 1.260 . S
Eu163 C162 2.835 . S
Eu163 O182 2.473 1_545 S
Eu163 O183 2.480 . S
Eu163 O184 2.430 . S
Eu163 O185 2.670 1_554 S
Eu163 O186 2.394 1_545 S
Eu163 O191 2.355 1_545 S
Eu163 O193 2.374 . S
C164 C162 1.500 . S
C164 C165 1.377 . S
C164 C169 1.377 1_545 S
C165 C164 1.377 . S
C165 C166 1.395 . S
C165 H194 0.931 . S
C166 C165 1.395 . S
C166 C167 1.383 1_545 S
C166 H195 0.931 . S
C167 C166 1.383 1_565 S
C167 C168 1.394 . S
C168 C167 1.394 . S
C168 C169 1.378 . S
C168 H196 0.931 . S
C169 C164 1.377 1_565 S
C169 C168 1.378 . S
C169 H197 0.931 . S
C170 O184 1.213 1_556 S
C170 O185 1.288 . S
C171 O186 1.251 . S
C171 O187 1.251 1_554 S
C172 Eu173 2.835 . S
C172 C174 1.500 . S
C172 O188 1.257 1_565 S
C172 O189 1.260 . S
Eu173 C172 2.835 . S
Eu173 O185 2.355 1_565 S
Eu173 O187 2.374 . S
Eu173 O188 2.473 1_565 S
Eu173 O189 2.480 . S
Eu173 O190 2.430 . S
Eu173 O191 2.670 1_556 S
Eu173 O192 2.394 1_565 S
C174 C172 1.500 . S
C174 C175 1.377 . S
C174 C179 1.377 1_565 S
C175 C174 1.377 . S
C175 C176 1.395 . S
C175 H198 0.931 . S
C176 C175 1.395 . S
C176 C177 1.383 1_565 S
C176 H199 0.931 . S
C177 C176 1.383 1_545 S
C177 C178 1.394 . S
C178 C177 1.394 . S
C178 C179 1.378 . S
C178 H200 0.931 . S
C179 C174 1.377 1_545 S
C179 C178 1.378 . S
C179 H201 0.931 . S
C180 O190 1.259 1_554 S
C180 O191 1.270 . S
C181 O192 1.251 . S
C181 O193 1.251 1_556 S
O182 C162 1.257 1_565 S
O182 Eu163 2.473 1_565 S
O183 C162 1.260 . S
O183 Eu163 2.480 . S
O184 Eu163 2.430 . S
O184 C170 1.213 1_554 S
O185 Eu163 2.670 1_556 S
O185 C170 1.288 . S
O185 Eu173 2.355 1_545 S
O186 Eu163 2.394 1_565 S
O186 C171 1.251 . S
O187 C171 1.251 1_556 S
O187 Eu173 2.374 . S
O188 C172 1.257 1_545 S
O188 Eu173 2.473 1_545 S
O189 C172 1.260 . S
O189 Eu173 2.480 . S
O190 Eu173 2.430 . S
O190 C180 1.259 1_556 S
O191 Eu163 2.355 1_565 S
O191 Eu173 2.670 1_554 S
O191 C180 1.270 . S
O192 Eu173 2.394 1_545 S
O192 C181 1.251 . S
O193 Eu163 2.374 . S
O193 C181 1.251 1_554 S
H194 C165 0.931 . S
H195 C166 0.931 . S
H196 C168 0.931 . S
H197 C169 0.931 . S
H198 C175 0.931 . S
H199 C176 0.931 . S
H200 C178 0.931 . S
H201 C179 0.931 . S
C202 Eu203 2.835 . S
C202 C204 1.500 1_655 S
C202 O222 1.257 1_655 S
C202 O223 1.260 . S
Eu203 C202 2.835 . S
Eu203 O222 2.473 1_655 S
Eu203 O223 2.480 . S
Eu203 O224 2.430 . S
Eu203 O225 2.670 1_554 S
Eu203 O226 2.394 1_655 S
Eu203 O231 2.355 1_655 S
Eu203 O233 2.374 . S
C204 C202 1.500 1_455 S
C204 C205 1.377 1_455 S
C204 C209 1.377 . S
C205 C204 1.377 1_655 S
C205 C206 1.395 . S
C205 H234 0.931 . S
C206 C205 1.395 . S
C206 C207 1.383 1_655 S
C206 H235 0.931 . S
C207 C206 1.383 1_455 S
C207 C208 1.394 . S
C208 C207 1.394 . S
C208 C209 1.378 . S
C208 H236 0.931 . S
C209 C204 1.377 . S
C209 C208 1.378 . S
C209 H237 0.931 . S
C210 O224 1.259 1_556 S
C210 O225 1.270 . S
C211 O226 1.251 . S
C211 O227 1.251 . S
C212 Eu213 2.835 . S
C212 C214 1.500 1_455 S
C212 O228 1.257 1_455 S
C212 O229 1.260 . S
Eu213 C212 2.835 . S
Eu213 O225 2.355 1_455 S
Eu213 O227 2.374 1_556 S
Eu213 O228 2.473 1_455 S
Eu213 O229 2.480 . S
Eu213 O230 2.430 . S
Eu213 O231 2.670 1_556 S
Eu213 O232 2.394 1_455 S
C214 C212 1.500 1_655 S
C214 C215 1.377 1_655 S
C214 C219 1.377 . S
C215 C214 1.377 1_455 S
C215 C216 1.395 . S
C215 H238 0.931 . S
C216 C215 1.395 . S
C216 C217 1.383 1_455 S
C216 H239 0.931 . S
C217 C216 1.383 1_655 S
C217 C218 1.394 . S
C218 C217 1.394 . S
C218 C219 1.378 . S
C218 H240 0.931 . S
C219 C214 1.377 . S
C219 C218 1.378 . S
C219 H241 0.931 . S
C220 O230 1.259 1_554 S
C220 O231 1.270 . S
C221 O232 1.251 . S
C221 O233 1.251 1_556 S
O222 C202 1.257 1_455 S
O222 Eu203 2.473 1_455 S
O223 C202 1.260 . S
O223 Eu203 2.480 . S
O224 Eu203 2.430 . S
O224 C210 1.259 1_554 S
O225 Eu203 2.670 1_556 S
O225 C210 1.270 . S
O225 Eu213 2.355 1_655 S
O226 Eu203 2.394 1_455 S
O226 C211 1.251 . S
O227 C211 1.251 . S
O227 Eu213 2.374 1_554 S
O228 C212 1.257 1_655 S
O228 Eu213 2.473 1_655 S
O229 C212 1.260 . S
O229 Eu213 2.480 . S
O230 Eu213 2.430 . S
O230 C220 1.259 1_556 S
O231 Eu203 2.355 1_455 S
O231 Eu213 2.670 1_554 S
O231 C220 1.270 . S
O232 Eu213 2.394 1_655 S
O232 C221 1.251 . S
O233 Eu203 2.374 . S
O233 C221 1.251 1_554 S
H234 C205 0.931 . S
H235 C206 0.931 . S
H236 C208 0.931 . S
H237 C209 0.931 . S
H238 C215 0.931 . S
H239 C216 0.931 . S
H240 C218 0.931 . S
H241 C219 0.931 . S
C242 Eu243 2.835 . S
C242 C244 1.500 . S
C242 O262 1.257 . S
C242 O263 1.260 . S
Eu243 C242 2.835 . S
Eu243 O262 2.473 . S
Eu243 O263 2.480 . S
Eu243 O264 2.430 . S
Eu243 O265 2.670 1_556 S
Eu243 O266 2.394 . S
Eu243 O271 2.355 . S
Eu243 O273 2.396 . S
C244 C242 1.500 . S
C244 C245 1.377 . S
C244 C249 1.377 . S
C245 C244 1.377 . S
C245 C246 1.395 . S
C245 H274 0.931 . S
C246 C245 1.395 . S
C246 C247 1.383 . S
C246 H275 0.931 . S
C247 C246 1.383 . S
C247 C248 1.394 . S
C248 C247 1.394 . S
C248 C249 1.378 . S
C248 H276 0.931 . S
C249 C244 1.377 . S
C249 C248 1.378 . S
C249 H277 0.931 . S
C250 O264 1.259 1_554 S
C250 O265 1.270 . S
C251 O266 1.251 . S
C251 O267 1.251 1_556 S
C252 Eu253 2.835 . S
C252 C254 1.500 . S
C252 O268 1.257 . S
C252 O269 1.260 . S
Eu253 C252 2.835 . S
Eu253 O265 2.355 . S
Eu253 O267 2.374 . S
Eu253 O268 2.473 . S
Eu253 O269 2.480 . S
Eu253 O270 2.430 . S
Eu253 O271 2.670 1_554 S
Eu253 O272 2.394 . S
C254 C252 1.500 . S
C254 C255 1.377 . S
C254 C259 1.377 . S
C255 C254 1.377 . S
C255 C256 1.395 . S
C255 H278 0.931 . S
C256 C255 1.395 . S
C256 C257 1.383 . S
C256 H279 0.931 . S
C257 C256 1.383 . S
C257 C258 1.394 . S
C258 C257 1.394 . S
C258 C259 1.378 . S
C258 H280 0.931 . S
C259 C254 1.377 . S
C259 C258 1.378 . S
C259 H281 0.931 . S
C260 O270 1.259 1_556 S
C260 O271 1.270 . S
C261 O272 1.251 . S
C261 O273 1.223 1_554 S
O262 C242 1.257 . S
O262 Eu243 2.473 . S
O263 C242 1.260 . S
O263 Eu243 2.480 . S
O264 Eu243 2.430 . S
O264 C250 1.259 1_556 S
O265 Eu243 2.670 1_554 S
O265 C250 1.270 . S
O265 Eu253 2.355 . S
O266 Eu243 2.394 . S
O266 C251 1.251 . S
O267 C251 1.251 1_554 S
O267 Eu253 2.374 . S
O268 C252 1.257 . S
O268 Eu253 2.473 . S
O269 C252 1.260 . S
O269 Eu253 2.480 . S
O270 Eu253 2.430 . S
O270 C260 1.259 1_554 S
O271 Eu243 2.355 . S
O271 Eu253 2.670 1_556 S
O271 C260 1.270 . S
O272 Eu253 2.394 . S
O272 C261 1.251 . S
O273 Eu243 2.396 . S
O273 C261 1.223 1_556 S
H274 C245 0.931 . S
H275 C246 0.931 . S
H276 C248 0.931 . S
H277 C249 0.931 . S
H278 C255 0.931 . S
H279 C256 0.931 . S
H280 C258 0.931 . S
H281 C259 0.931 . S
C282 Eu283 2.835 . S
C282 C284 1.500 . S
C282 O302 1.257 . S
C282 O303 1.260 . S
Eu283 C282 2.835 . S
Eu283 O302 2.473 . S
Eu283 O303 2.480 . S
Eu283 O304 2.430 . S
Eu283 O305 2.670 . S
Eu283 O306 2.394 . S
Eu283 O311 2.355 . S
Eu283 O313 2.374 . S
C284 C282 1.500 . S
C284 C285 1.377 . S
C284 C289 1.377 . S
C285 C284 1.377 . S
C285 C286 1.395 . S
C285 H314 0.931 . S
C286 C285 1.395 . S
C286 C287 1.383 . S
C286 H315 0.931 . S
C287 C286 1.383 . S
C287 C288 1.394 . S
C288 C287 1.394 . S
C288 C289 1.378 . S
C288 H316 0.931 . S
C289 C284 1.377 . S
C289 C288 1.378 . S
C289 H317 0.931 . S
C290 O304 1.259 . S
C290 O305 1.270 . S
C291 O306 1.251 . S
C291 O307 1.251 . S
C292 Eu293 2.835 . S
C292 C294 1.500 . S
C292 O308 1.257 . S
C292 O309 1.260 . S
Eu293 C292 2.835 . S
Eu293 O305 2.355 . S
Eu293 O307 2.374 . S
Eu293 O308 2.473 . S
Eu293 O309 2.480 . S
Eu293 O310 2.430 . S
Eu293 O311 2.670 . S
Eu293 O312 2.394 . S
C294 C292 1.500 . S
C294 C295 1.377 . S
C294 C299 1.377 . S
C295 C294 1.377 . S
C295 C296 1.395 . S
C295 H318 0.931 . S
C296 C295 1.395 . S
C296 C297 1.383 . S
C296 H319 0.931 . S
C297 C296 1.383 . S
C297 C298 1.394 . S
C298 C297 1.394 . S
C298 C299 1.378 . S
C298 H320 0.931 . S
C299 C294 1.377 . S
C299 C298 1.378 . S
C299 H321 0.931 . S
C300 O310 1.259 . S
C300 O311 1.270 . S
C301 O312 1.251 . S
C301 O313 1.251 . S
O302 C282 1.257 . S
O302 Eu283 2.473 . S
O303 C282 1.260 . S
O303 Eu283 2.480 . S
O304 Eu283 2.430 . S
O304 C290 1.259 . S
O305 Eu283 2.670 . S
O305 C290 1.270 . S
O305 Eu293 2.355 . S
O306 Eu283 2.394 . S
O306 C291 1.251 . S
O307 C291 1.251 . S
O307 Eu293 2.374 . S
O308 C292 1.257 . S
O308 Eu293 2.473 . S
O309 C292 1.260 . S
O309 Eu293 2.480 . S
O310 Eu293 2.430 . S
O310 C300 1.259 . S
O311 Eu283 2.355 . S
O311 Eu293 2.670 . S
O311 C300 1.270 . S
O312 Eu293 2.394 . S
O312 C301 1.251 . S
O313 Eu283 2.374 . S
O313 C301 1.251 . S
H314 C285 0.931 . S
H315 C286 0.931 . S
H316 C288 0.931 . S
H317 C289 0.931 . S
H318 C295 0.931 . S
H319 C296 0.931 . S
H320 C298 0.931 . S
H321 C299 0.931 . S
C322 Eu323 2.835 . S
C322 C324 1.500 . S
C322 O342 1.257 . S
C322 O343 1.260 . S
Eu323 C322 2.835 . S
Eu323 O342 2.473 . S
Eu323 O343 2.480 . S
Eu323 O344 2.430 . S
Eu323 O345 2.670 . S
Eu323 O346 2.394 . S
Eu323 O351 2.355 . S
Eu323 O353 2.374 . S
C324 C322 1.500 . S
C324 C325 1.377 . S
C324 C329 1.377 . S
C325 C324 1.377 . S
C325 C326 1.395 . S
C325 H354 0.931 . S
C326 C325 1.395 . S
C326 C327 1.383 . S
C326 H355 0.931 . S
C327 C326 1.383 . S
C327 C328 1.394 . S
C328 C327 1.394 . S
C328 C329 1.378 . S
C328 H356 0.931 . S
C329 C324 1.377 . S
C329 C328 1.378 . S
C329 H357 0.931 . S
C330 O344 1.259 . S
C330 O345 1.270 . S
C331 O346 1.251 . S
C331 O347 1.251 . S
C332 Eu333 2.835 . S
C332 C334 1.500 . S
C332 O348 1.257 . S
C332 O349 1.260 . S
Eu333 C332 2.835 . S
Eu333 O345 2.355 . S
Eu333 O347 2.374 . S
Eu333 O348 2.473 . S
Eu333 O349 2.480 . S
Eu333 O350 2.430 . S
Eu333 O351 2.670 . S
Eu333 O352 2.394 . S
C334 C332 1.500 . S
C334 C335 1.377 . S
C334 C339 1.377 . S
C335 C334 1.377 . S
C335 C336 1.395 . S
C335 H358 0.931 . S
C336 C335 1.395 . S
C336 C337 1.383 . S
C336 H359 0.931 . S
C337 C336 1.383 . S
C337 C338 1.394 . S
C338 C337 1.394 . S
C338 C339 1.378 . S
C338 H360 0.931 . S
C339 C334 1.377 . S
C339 C338 1.378 . S
C339 H361 0.931 . S
C340 O350 1.259 . S
C340 O351 1.270 . S
C341 O352 1.251 . S
C341 O353 1.251 . S
O342 C322 1.257 . S
O342 Eu323 2.473 . S
O343 C322 1.260 . S
O343 Eu323 2.480 . S
O344 Eu323 2.430 . S
O344 C330 1.259 . S
O345 Eu323 2.670 . S
O345 C330 1.270 . S
O345 Eu333 2.355 . S
O346 Eu323 2.394 . S
O346 C331 1.251 . S
O347 C331 1.251 . S
O347 Eu333 2.374 . S
O348 C332 1.257 . S
O348 Eu333 2.473 . S
O349 C332 1.260 . S
O349 Eu333 2.480 . S
O350 Eu333 2.430 . S
O350 C340 1.259 . S
O351 Eu323 2.355 . S
O351 Eu333 2.670 . S
O351 C340 1.270 . S
O352 Eu333 2.394 . S
O352 C341 1.251 . S
O353 Eu323 2.374 . S
O353 C341 1.251 . S
H354 C325 0.931 . S
H355 C326 0.931 . S
H356 C328 0.931 . S
H357 C329 0.931 . S
H358 C335 0.931 . S
H359 C336 0.931 . S
H360 C338 0.931 . S
H361 C339 0.931 . S
C362 Eu363 2.835 . S
C362 C364 1.500 . S
C362 O382 1.257 . S
C362 O383 1.260 . S
Eu363 C362 2.835 . S
Eu363 O382 2.473 . S
Eu363 O383 2.480 . S
Eu363 O384 2.430 . S
Eu363 O385 2.670 . S
Eu363 O386 2.394 . S
Eu363 O391 2.355 . S
Eu363 O393 2.374 . S
C364 C362 1.500 . S
C364 C365 1.377 . S
C364 C369 1.377 . S
C365 C364 1.377 . S
C365 C366 1.395 . S
C365 H394 0.931 . S
C366 C365 1.395 . S
C366 C367 1.383 . S
C366 H395 0.931 . S
C367 C366 1.383 . S
C367 C368 1.394 . S
C368 C367 1.394 . S
C368 C369 1.378 . S
C368 H396 0.931 . S
C369 C364 1.377 . S
C369 C368 1.378 . S
C369 H397 0.931 . S
C370 O384 1.259 . S
C370 O385 1.270 . S
C371 O386 1.251 . S
C371 O387 1.251 . S
C372 Eu373 2.835 . S
C372 C374 1.500 . S
C372 O388 1.257 . S
C372 O389 1.260 . S
Eu373 C372 2.835 . S
Eu373 O385 2.355 . S
Eu373 O387 2.374 . S
Eu373 O388 2.473 . S
Eu373 O389 2.480 . S
Eu373 O390 2.430 . S
Eu373 O391 2.670 . S
Eu373 O392 2.394 . S
C374 C372 1.500 . S
C374 C375 1.377 . S
C374 C379 1.377 . S
C375 C374 1.377 . S
C375 C376 1.395 . S
C375 H398 0.931 . S
C376 C375 1.395 . S
C376 C377 1.383 . S
C376 H399 0.931 . S
C377 C376 1.383 . S
C377 C378 1.394 . S
C378 C377 1.394 . S
C378 C379 1.378 . S
C378 H400 0.931 . S
C379 C374 1.377 . S
C379 C378 1.378 . S
C379 H401 0.931 . S
C380 O390 1.259 . S
C380 O391 1.270 . S
C381 O392 1.251 . S
C381 O393 1.251 . S
O382 C362 1.257 . S
O382 Eu363 2.473 . S
O383 C362 1.260 . S
O383 Eu363 2.480 . S
O384 Eu363 2.430 . S
O384 C370 1.259 . S
O385 Eu363 2.670 . S
O385 C370 1.270 . S
O385 Eu373 2.355 . S
O386 Eu363 2.394 . S
O386 C371 1.251 . S
O387 C371 1.251 . S
O387 Eu373 2.374 . S
O388 C372 1.257 . S
O388 Eu373 2.473 . S
O389 C372 1.260 . S
O389 Eu373 2.480 . S
O390 Eu373 2.430 . S
O390 C380 1.259 . S
O391 Eu363 2.355 . S
O391 Eu373 2.670 . S
O391 C380 1.270 . S
O392 Eu373 2.394 . S
O392 C381 1.251 . S
O393 Eu363 2.374 . S
O393 C381 1.251 . S
H394 C365 0.931 . S
H395 C366 0.931 . S
H396 C368 0.931 . S
H397 C369 0.931 . S
H398 C375 0.931 . S
H399 C376 0.931 . S
H400 C378 0.931 . S
H401 C379 0.931 . S
C402 Eu403 2.835 . S
C402 C404 1.500 . S
C402 O422 1.257 . S
C402 O423 1.260 . S
Eu403 C402 2.835 . S
Eu403 O422 2.473 . S
Eu403 O423 2.480 . S
Eu403 O424 2.430 . S
Eu403 O425 2.670 . S
Eu403 O426 2.394 . S
Eu403 O431 2.355 . S
Eu403 O433 2.374 . S
C404 C402 1.500 . S
C404 C405 1.377 . S
C404 C409 1.377 . S
C405 C404 1.377 . S
C405 C406 1.395 . S
C405 H434 0.931 . S
C406 C405 1.395 . S
C406 C407 1.383 . S
C406 H435 0.931 . S
C407 C406 1.383 . S
C407 C408 1.394 . S
C408 C407 1.394 . S
C408 C409 1.378 . S
C408 H436 0.931 . S
C409 C404 1.377 . S
C409 C408 1.378 . S
C409 H437 0.931 . S
C410 O424 1.259 . S
C410 O425 1.270 . S
C411 O426 1.251 . S
C411 O427 1.251 . S
C412 Eu413 2.835 . S
C412 C414 1.500 . S
C412 O428 1.257 . S
C412 O429 1.260 . S
Eu413 C412 2.835 . S
Eu413 O425 2.355 . S
Eu413 O427 2.374 . S
Eu413 O428 2.473 . S
Eu413 O429 2.480 . S
Eu413 O430 2.430 . S
Eu413 O431 2.670 . S
Eu413 O432 2.394 . S
C414 C412 1.500 . S
C414 C415 1.377 . S
C414 C419 1.377 . S
C415 C414 1.377 . S
C415 C416 1.395 . S
C415 H438 0.931 . S
C416 C415 1.395 . S
C416 C417 1.383 . S
C416 H439 0.931 . S
C417 C416 1.383 . S
C417 C418 1.394 . S
C418 C417 1.394 . S
C418 C419 1.378 . S
C418 H440 0.931 . S
C419 C414 1.377 . S
C419 C418 1.378 . S
C419 H441 0.931 . S
C420 O430 1.259 . S
C420 O431 1.270 . S
C421 O432 1.251 . S
C421 O433 1.251 . S
O422 C402 1.257 . S
O422 Eu403 2.473 . S
O423 C402 1.260 . S
O423 Eu403 2.480 . S
O424 Eu403 2.430 . S
O424 C410 1.259 . S
O425 Eu403 2.670 . S
O425 C410 1.270 . S
O425 Eu413 2.355 . S
O426 Eu403 2.394 . S
O426 C411 1.251 . S
O427 C411 1.251 . S
O427 Eu413 2.374 . S
O428 C412 1.257 . S
O428 Eu413 2.473 . S
O429 C412 1.260 . S
O429 Eu413 2.480 . S
O430 Eu413 2.430 . S
O430 C420 1.259 . S
O431 Eu403 2.355 . S
O431 Eu413 2.670 . S
O431 C420 1.270 . S
O432 Eu413 2.394 . S
O432 C421 1.251 . S
O433 Eu403 2.374 . S
O433 C421 1.251 . S
H434 C405 0.931 . S
H435 C406 0.931 . S
H436 C408 0.931 . S
H437 C409 0.931 . S
H438 C415 0.931 . S
H439 C416 0.931 . S
H440 C418 0.931 . S
H441 C419 0.931 . S
C442 Eu443 2.835 . S
C442 C444 1.500 . S
C442 O462 1.257 . S
C442 O463 1.260 . S
Eu443 C442 2.835 . S
Eu443 O462 2.473 . S
Eu443 O463 2.480 . S
Eu443 O464 2.430 . S
Eu443 O465 2.670 . S
Eu443 O466 2.394 . S
Eu443 O471 2.355 . S
Eu443 O473 2.374 . S
C444 C442 1.500 . S
C444 C445 1.377 . S
C444 C449 1.377 . S
C445 C444 1.377 . S
C445 C446 1.395 . S
C445 H474 0.931 . S
C446 C445 1.395 . S
C446 C447 1.383 . S
C446 H475 0.931 . S
C447 C446 1.383 . S
C447 C448 1.394 . S
C448 C447 1.394 . S
C448 C449 1.378 . S
C448 H476 0.931 . S
C449 C444 1.377 . S
C449 C448 1.378 . S
C449 H477 0.931 . S
C450 O464 1.259 . S
C450 O465 1.270 . S
C451 O466 1.251 . S
C451 O467 1.251 . S
C452 Eu453 2.835 . S
C452 C454 1.500 . S
C452 O468 1.257 . S
C452 O469 1.260 . S
Eu453 C452 2.835 . S
Eu453 O465 2.355 . S
Eu453 O467 2.374 . S
Eu453 O468 2.473 . S
Eu453 O469 2.480 . S
Eu453 O470 2.430 . S
Eu453 O471 2.670 . S
Eu453 O472 2.394 . S
C454 C452 1.500 . S
C454 C455 1.377 . S
C454 C459 1.377 . S
C455 C454 1.377 . S
C455 C456 1.395 . S
C455 H478 0.931 . S
C456 C455 1.395 . S
C456 C457 1.383 . S
C456 H479 0.931 . S
C457 C456 1.383 . S
C457 C458 1.394 . S
C458 C457 1.394 . S
C458 C459 1.378 . S
C458 H480 0.931 . S
C459 C454 1.377 . S
C459 C458 1.378 . S
C459 H481 0.931 . S
C460 O470 1.259 . S
C460 O471 1.270 . S
C461 O472 1.251 . S
C461 O473 1.251 . S
O462 C442 1.257 . S
O462 Eu443 2.473 . S
O463 C442 1.260 . S
O463 Eu443 2.480 . S
O464 Eu443 2.430 . S
O464 C450 1.259 . S
O465 Eu443 2.670 . S
O465 C450 1.270 . S
O465 Eu453 2.355 . S
O466 Eu443 2.394 . S
O466 C451 1.251 . S
O467 C451 1.251 . S
O467 Eu453 2.374 . S
O468 C452 1.257 . S
O468 Eu453 2.473 . S
O469 C452 1.260 . S
O469 Eu453 2.480 . S
O470 Eu453 2.430 . S
O470 C460 1.259 . S
O471 Eu443 2.355 . S
O471 Eu453 2.670 . S
O471 C460 1.270 . S
O472 Eu453 2.394 . S
O472 C461 1.251 . S
O473 Eu443 2.374 . S
O473 C461 1.251 . S
H474 C445 0.931 . S
H475 C446 0.931 . S
H476 C448 0.931 . S
H477 C449 0.931 . S
H478 C455 0.931 . S
H479 C456 0.931 . S
H480 C458 0.931 . S
H481 C459 0.931 . S
C482 Eu483 2.835 . S
C482 C484 1.500 . S
C482 O502 1.257 . S
C482 O503 1.260 . S
Eu483 C482 2.835 . S
Eu483 O502 2.473 . S
Eu483 O503 2.480 . S
Eu483 O504 2.430 . S
Eu483 O505 2.670 . S
Eu483 O506 2.394 . S
Eu483 O511 2.355 . S
Eu483 O513 2.374 . S
C484 C482 1.500 . S
C484 C485 1.377 . S
C484 C489 1.377 . S
C485 C484 1.377 . S
C485 C486 1.395 . S
C485 H514 0.931 . S
C486 C485 1.395 . S
C486 C487 1.383 . S
C486 H515 0.931 . S
C487 C486 1.383 . S
C487 C488 1.394 . S
C488 C487 1.394 . S
C488 C489 1.378 . S
C488 H516 0.931 . S
C489 C484 1.377 . S
C489 C488 1.378 . S
C489 H517 0.931 . S
C490 O504 1.259 . S
C490 O505 1.270 . S
C491 O506 1.251 . S
C491 O507 1.251 . S
C492 Eu493 2.835 . S
C492 C494 1.500 . S
C492 O508 1.257 . S
C492 O509 1.260 . S
Eu493 C492 2.835 . S
Eu493 O505 2.355 . S
Eu493 O507 2.374 . S
Eu493 O508 2.473 . S
Eu493 O509 2.480 . S
Eu493 O510 2.430 . S
Eu493 O511 2.670 . S
Eu493 O512 2.394 . S
C494 C492 1.500 . S
C494 C495 1.377 . S
C494 C499 1.377 . S
C495 C494 1.377 . S
C495 C496 1.395 . S
C495 H518 0.931 . S
C496 C495 1.395 . S
C496 C497 1.383 . S
C496 H519 0.931 . S
C497 C496 1.383 . S
C497 C498 1.394 . S
C498 C497 1.394 . S
C498 C499 1.378 . S
C498 H520 0.931 . S
C499 C494 1.377 . S
C499 C498 1.378 . S
C499 H521 0.931 . S
C500 O510 1.259 . S
C500 O511 1.270 . S
C501 O512 1.251 . S
C501 O513 1.251 . S
O502 C482 1.257 . S
O502 Eu483 2.473 . S
O503 C482 1.260 . S
O503 Eu483 2.480 . S
O504 Eu483 2.430 . S
O504 C490 1.259 . S
O505 Eu483 2.670 . S
O505 C490 1.270 . S
O505 Eu493 2.355 . S
O506 Eu483 2.394 . S
O506 C491 1.251 . S
O507 C491 1.251 . S
O507 Eu493 2.374 . S
O508 C492 1.257 . S
O508 Eu493 2.473 . S
O509 C492 1.260 . S
O509 Eu493 2.480 . S
O510 Eu493 2.430 . S
O510 C500 1.259 . S
O511 Eu483 2.355 . S
O511 Eu493 2.670 . S
O511 C500 1.270 . S
O512 Eu493 2.394 . S
O512 C501 1.251 . S
O513 Eu483 2.374 . S
O513 C501 1.251 . S
H514 C485 0.931 . S
H515 C486 0.931 . S
H516 C488 0.931 . S
H517 C489 0.931 . S
H518 C495 0.931 . S
H519 C496 0.931 . S
H520 C498 0.931 . S
H521 C499 0.931 . S
H522 C540 0.951 . S
H523 C542 0.951 . S
H524 C544 0.950 . S
H525 C545 0.950 . S
H526 C547 0.950 . S
H527 C550 0.950 . S
H528 C551 0.950 . S
H529 C553 0.950 . S
H530 C554 0.950 . S
H531 C555 0.951 . S
H532 C557 0.951 . S
H533 C559 0.950 . S
H534 C560 0.950 . S
H535 C562 0.950 . S
H536 C565 0.950 . S
H537 C566 0.950 . S
H538 C568 0.950 . S
H539 C569 0.954 . S
C540 H522 0.951 . S
C540 C541 1.366 . S
C540 C542 1.388 . S
C541 C540 1.366 . S
C541 C545 1.385 . S
C542 H523 0.951 . S
C542 C540 1.388 . S
C542 C543 1.366 . S
C543 C542 1.366 . S
C543 C544 1.414 . S
C543 C546 1.499 . S
C544 H524 0.950 . S
C544 C543 1.414 . S
C544 C545 1.374 . S
C545 H525 0.950 . S
C545 C541 1.385 . S
C545 C544 1.374 . S
C546 C543 1.499 . S
C546 C547 1.373 . S
C546 C548 1.389 . S
C547 H526 0.950 . S
C547 C546 1.373 . S
C547 C563 1.377 . S
C548 C546 1.389 . S
C548 C549 1.524 . S
C548 C562 1.377 . S
C549 C548 1.524 . S
C549 C550 1.397 . S
C549 C554 1.363 . S
C550 H527 0.950 . S
C550 C549 1.397 . S
C550 C551 1.334 . S
C551 H528 0.950 . S
C551 C550 1.334 . S
C551 C552 1.287 . S
C552 C551 1.287 . S
C552 C553 1.524 . S
C552 H571 0.913 . S
C553 H529 0.950 . S
C553 C552 1.524 . S
C553 C554 1.415 . S
C554 H530 0.950 . S
C554 C549 1.363 . S
C554 C553 1.415 . S
C555 H531 0.951 . S
C555 C556 1.366 . S
C555 C557 1.388 . S
C556 C555 1.366 . S
C556 C560 1.385 . S
C557 H532 0.951 . S
C557 C555 1.388 . S
C557 C558 1.366 . S
C558 C557 1.366 . S
C558 C559 1.414 . S
C558 C561 1.499 . S
C559 H533 0.950 . S
C559 C558 1.414 . S
C559 C560 1.374 . S
C560 H534 0.950 . S
C560 C556 1.385 . S
C560 C559 1.374 . S
C561 C558 1.499 . S
C561 C562 1.373 . S
C561 C563 1.389 . S
C562 H535 0.950 . S
C562 C548 1.377 . S
C562 C561 1.373 . S
C563 C547 1.377 . S
C563 C561 1.389 . S
C563 C564 1.524 . S
C564 C563 1.524 . S
C564 C565 1.397 . S
C564 C569 1.363 1_554 S
C565 H536 0.950 . S
C565 C564 1.397 . S
C565 C566 1.334 1_554 S
C566 H537 0.950 . S
C566 C565 1.334 1_556 S
C566 C567 1.287 . S
C567 C566 1.287 . S
C567 C568 1.524 . S
C567 H570 0.999 . S
C568 H538 0.950 . S
C568 C567 1.524 . S
C568 C569 1.415 . S
C569 H539 0.954 . S
C569 C564 1.363 1_556 S
C569 C568 1.415 . S
H570 C567 0.999 . S
H571 C552 0.913 . S
H572 C590 0.951 . S
H573 C592 0.951 . S
H574 C594 0.950 . S
H575 C595 0.950 . S
H576 C597 0.950 . S
H577 C600 0.950 . S
H578 C601 0.950 . S
H579 C603 0.950 . S
H580 C604 0.950 . S
H581 C605 0.951 . S
H582 C607 0.951 . S
H583 C609 0.950 . S
H584 C610 0.950 . S
H585 C612 0.950 . S
H586 C615 0.950 . S
H587 C616 0.950 . S
H588 C618 0.950 . S
H589 C619 0.950 . S
C590 H572 0.951 . S
C590 C591 1.366 . S
C590 C592 1.388 . S
C591 C590 1.366 . S
C591 C595 1.385 . S
C592 H573 0.951 . S
C592 C590 1.388 . S
C592 C593 1.366 . S
C593 C592 1.366 . S
C593 C594 1.414 . S
C593 C596 1.499 . S
C594 H574 0.950 . S
C594 C593 1.414 . S
C594 C595 1.374 . S
C595 H575 0.950 . S
C595 C591 1.385 . S
C595 C594 1.374 . S
C596 C593 1.499 . S
C596 C597 1.373 . S
C596 C598 1.389 . S
C597 H576 0.950 . S
C597 C596 1.373 . S
C597 C613 1.377 . S
C598 C596 1.389 . S
C598 C599 1.524 . S
C598 C612 1.377 . S
C599 C598 1.524 . S
C599 C600 1.397 . S
C599 C604 1.363 . S
C600 H577 0.950 . S
C600 C599 1.397 . S
C600 C601 1.334 . S
C601 H578 0.950 . S
C601 C600 1.334 . S
C601 C602 1.287 . S
C602 C601 1.287 . S
C602 C603 1.524 . S
C602 H621 0.913 . S
C603 H579 0.950 . S
C603 C602 1.524 . S
C603 C604 1.415 . S
C604 H580 0.950 . S
C604 C599 1.363 . S
C604 C603 1.415 . S
C605 H581 0.951 . S
C605 C606 1.366 . S
C605 C607 1.388 . S
C606 C605 1.366 . S
C606 C610 1.385 . S
C607 H582 0.951 . S
C607 C605 1.388 . S
C607 C608 1.366 . S
C608 C607 1.366 . S
C608 C609 1.414 . S
C608 C611 1.499 . S
C609 H583 0.950 . S
C609 C608 1.414 . S
C609 C610 1.374 . S
C610 H584 0.950 . S
C610 C606 1.385 . S
C610 C609 1.374 . S
C611 C608 1.499 . S
C611 C612 1.373 . S
C611 C613 1.389 . S
C612 H585 0.950 . S
C612 C598 1.377 . S
C612 C611 1.373 . S
C613 C597 1.377 . S
C613 C611 1.389 . S
C613 C614 1.524 . S
C614 C613 1.524 . S
C614 C615 1.397 . S
C614 C619 1.363 . S
C615 H586 0.950 . S
C615 C614 1.397 . S
C615 C616 1.334 . S
C616 H587 0.950 . S
C616 C615 1.334 . S
C616 C617 1.287 . S
C617 C616 1.287 . S
C617 C618 1.524 . S
C617 H620 0.999 . S
C618 H588 0.950 . S
C618 C617 1.524 . S
C618 C619 1.415 . S
C619 H589 0.950 . S
C619 C614 1.363 . S
C619 C618 1.415 . S
H620 C617 0.999 . S
H621 C602 0.913 . S
H622 C640 0.951 . S
H623 C642 0.951 . S
H624 C644 0.950 . S
H625 C645 0.950 . S
H626 C647 0.950 . S
H627 C650 0.950 . S
H628 C651 0.950 . S
H629 C653 0.950 . S
H630 C654 0.950 . S
H631 C655 0.951 . S
H632 C657 0.951 . S
H633 C659 0.950 . S
H634 C660 0.950 . S
H635 C662 0.950 . S
H636 C665 0.950 . S
H637 C666 0.950 . S
H638 C668 0.950 . S
H639 C669 0.950 . S
C640 H622 0.951 . S
C640 C641 1.366 . S
C640 C642 1.388 . S
C641 C640 1.366 . S
C641 C645 1.385 . S
C642 H623 0.951 . S
C642 C640 1.388 . S
C642 C643 1.366 . S
C643 C642 1.366 . S
C643 C644 1.414 . S
C643 C646 1.499 . S
C644 H624 0.950 . S
C644 C643 1.414 . S
C644 C645 1.374 . S
C645 H625 0.950 . S
C645 C641 1.385 . S
C645 C644 1.374 . S
C646 C643 1.499 . S
C646 C647 1.373 . S
C646 C648 1.389 . S
C647 H626 0.950 . S
C647 C646 1.373 . S
C647 C663 1.377 . S
C648 C646 1.389 . S
C648 C649 1.524 . S
C648 C662 1.377 . S
C649 C648 1.524 . S
C649 C650 1.397 . S
C649 C654 1.363 . S
C650 H627 0.950 . S
C650 C649 1.397 . S
C650 C651 1.334 1_554 S
C651 H628 0.950 . S
C651 C650 1.334 1_556 S
C651 C652 1.287 . S
C652 C651 1.287 . S
C652 C653 1.524 . S
C652 H671 0.913 . S
C653 H629 0.950 . S
C653 C652 1.524 . S
C653 C654 1.415 1_556 S
C654 H630 0.950 . S
C654 C649 1.363 . S
C654 C653 1.415 1_554 S
C655 H631 0.951 . S
C655 C656 1.366 . S
C655 C657 1.388 . S
C656 C655 1.366 . S
C656 C660 1.385 . S
C657 H632 0.951 . S
C657 C655 1.388 . S
C657 C658 1.366 . S
C658 C657 1.366 . S
C658 C659 1.414 . S
C658 C661 1.499 . S
C659 H633 0.950 . S
C659 C658 1.414 . S
C659 C660 1.374 . S
C660 H634 0.950 . S
C660 C656 1.385 . S
C660 C659 1.374 . S
C661 C658 1.499 . S
C661 C662 1.373 . S
C661 C663 1.389 . S
C662 H635 0.950 . S
C662 C648 1.377 . S
C662 C661 1.373 . S
C663 C647 1.377 . S
C663 C661 1.389 . S
C663 C664 1.524 . S
C664 C663 1.524 . S
C664 C665 1.397 . S
C664 C669 1.363 . S
C665 H636 0.950 . S
C665 C664 1.397 . S
C665 C666 1.334 . S
C666 H637 0.950 . S
C666 C665 1.334 . S
C666 C667 1.287 . S
C667 C666 1.287 . S
C667 C668 1.524 . S
C667 H670 0.999 . S
C668 H638 0.950 . S
C668 C667 1.524 . S
C668 C669 1.415 . S
C669 H639 0.950 . S
C669 C664 1.363 . S
C669 C668 1.415 . S
H670 C667 0.999 . S
H671 C652 0.913 . S
H672 C690 0.951 . S
H673 C692 0.951 . S
H674 C694 0.950 . S
H675 C695 0.950 . S
H676 C697 0.950 . S
H677 C700 0.950 . S
H678 C701 0.950 . S
H679 C703 0.950 . S
H680 C704 0.950 . S
H681 C705 0.951 . S
H682 C707 0.951 . S
H683 C709 0.950 . S
H684 C710 0.950 . S
H685 C712 0.950 . S
H686 C715 0.950 . S
H687 C716 0.950 . S
H688 C718 0.950 . S
H689 C719 0.950 . S
C690 H672 0.951 . S
C690 C691 1.366 . S
C690 C692 1.388 . S
C691 C690 1.366 . S
C691 C695 1.385 . S
C692 H673 0.951 . S
C692 C690 1.388 . S
C692 C693 1.366 . S
C693 C692 1.366 . S
C693 C694 1.414 . S
C693 C696 1.499 . S
C694 H674 0.950 . S
C694 C693 1.414 . S
C694 C695 1.374 . S
C695 H675 0.950 . S
C695 C691 1.385 . S
C695 C694 1.374 . S
C696 C693 1.499 . S
C696 C697 1.373 . S
C696 C698 1.389 . S
C697 H676 0.950 . S
C697 C696 1.373 . S
C697 C713 1.377 . S
C698 C696 1.389 . S
C698 C699 1.524 . S
C698 C712 1.377 . S
C699 C698 1.524 . S
C699 C700 1.397 . S
C699 C704 1.363 . S
C700 H677 0.950 . S
C700 C699 1.397 . S
C700 C701 1.334 . S
C701 H678 0.950 . S
C701 C700 1.334 . S
C701 C702 1.287 . S
C702 C701 1.287 . S
C702 C703 1.524 . S
C702 H721 0.913 . S
C703 H679 0.950 . S
C703 C702 1.524 . S
C703 C704 1.415 . S
C704 H680 0.950 . S
C704 C699 1.363 . S
C704 C703 1.415 . S
C705 H681 0.951 . S
C705 C706 1.366 . S
C705 C707 1.388 . S
C706 C705 1.366 . S
C706 C710 1.385 . S
C707 H682 0.951 . S
C707 C705 1.388 . S
C707 C708 1.366 . S
C708 C707 1.366 . S
C708 C709 1.414 . S
C708 C711 1.499 . S
C709 H683 0.950 . S
C709 C708 1.414 . S
C709 C710 1.374 . S
C710 H684 0.950 . S
C710 C706 1.385 . S
C710 C709 1.374 . S
C711 C708 1.499 . S
C711 C712 1.373 . S
C711 C713 1.389 . S
C712 H685 0.950 . S
C712 C698 1.377 . S
C712 C711 1.373 . S
C713 C697 1.377 . S
C713 C711 1.389 . S
C713 C714 1.524 . S
C714 C713 1.524 . S
C714 C715 1.397 1_556 S
C714 C719 1.363 . S
C715 H686 0.950 . S
C715 C714 1.397 1_554 S
C715 C716 1.334 . S
C716 H687 0.950 . S
C716 C715 1.334 . S
C716 C717 1.287 . S
C717 C716 1.287 . S
C717 C718 1.524 . S
C717 H720 0.999 . S
C718 H688 0.950 . S
C718 C717 1.524 . S
C718 C719 1.415 1_554 S
C719 H689 0.950 . S
C719 C714 1.363 . S
C719 C718 1.415 1_556 S
H720 C717 0.999 . S
H721 C702 0.913 . S
H722 C740 0.951 . S
H723 C742 0.951 . S
H724 C744 0.950 . S
H725 C745 0.950 . S
H726 C747 0.950 . S
H727 C750 0.950 . S
H728 C751 0.950 . S
H729 C753 0.950 . S
H730 C754 0.950 . S
H731 C755 0.951 . S
H732 C757 0.951 . S
H733 C759 0.950 . S
H734 C760 0.950 . S
H735 C762 0.950 . S
H736 C765 0.950 . S
H737 C766 0.950 . S
H738 C768 0.950 . S
H739 C769 0.950 . S
C740 H722 0.951 . S
C740 C741 1.366 . S
C740 C742 1.388 . S
C741 C740 1.366 . S
C741 C745 1.385 . S
C742 H723 0.951 . S
C742 C740 1.388 . S
C742 C743 1.366 . S
C743 C742 1.366 . S
C743 C744 1.414 . S
C743 C746 1.499 . S
C744 H724 0.950 . S
C744 C743 1.414 . S
C744 C745 1.374 . S
C745 H725 0.950 . S
C745 C741 1.385 . S
C745 C744 1.374 . S
C746 C743 1.499 . S
C746 C747 1.373 . S
C746 C748 1.389 . S
C747 H726 0.950 . S
C747 C746 1.373 . S
C747 C763 1.377 . S
C748 C746 1.389 . S
C748 C749 1.524 . S
C748 C762 1.377 . S
C749 C748 1.524 . S
C749 C750 1.397 . S
C749 C754 1.363 . S
C750 H727 0.950 . S
C750 C749 1.397 . S
C750 C751 1.334 . S
C751 H728 0.950 . S
C751 C750 1.334 . S
C751 C752 1.287 . S
C752 C751 1.287 . S
C752 C753 1.524 . S
C752 H771 0.913 . S
C753 H729 0.950 . S
C753 C752 1.524 . S
C753 C754 1.415 . S
C754 H730 0.950 . S
C754 C749 1.363 . S
C754 C753 1.415 . S
C755 H731 0.951 . S
C755 C756 1.366 . S
C755 C757 1.388 . S
C756 C755 1.366 . S
C756 C760 1.385 . S
C757 H732 0.951 . S
C757 C755 1.388 . S
C757 C758 1.366 . S
C758 C757 1.366 . S
C758 C759 1.414 . S
C758 C761 1.499 . S
C759 H733 0.950 . S
C759 C758 1.414 . S
C759 C760 1.374 . S
C760 H734 0.950 . S
C760 C756 1.385 . S
C760 C759 1.374 . S
C761 C758 1.499 . S
C761 C762 1.373 . S
C761 C763 1.389 . S
C762 H735 0.950 . S
C762 C748 1.377 . S
C762 C761 1.373 . S
C763 C747 1.377 . S
C763 C761 1.389 . S
C763 C764 1.524 . S
C764 C763 1.524 . S
C764 C765 1.397 . S
C764 C769 1.363 . S
C765 H736 0.950 . S
C765 C764 1.397 . S
C765 C766 1.334 . S
C766 H737 0.950 . S
C766 C765 1.334 . S
C766 C767 1.287 . S
C767 C766 1.287 . S
C767 C768 1.524 . S
C767 H770 0.999 . S
C768 H738 0.950 . S
C768 C767 1.524 . S
C768 C769 1.415 . S
C769 H739 0.950 . S
C769 C764 1.363 . S
C769 C768 1.415 . S
H770 C767 0.999 . S
H771 C752 0.913 . S
H772 C790 0.951 . S
H773 C792 0.951 . S
H774 C794 0.950 . S
H775 C795 0.950 . S
H776 C797 0.950 . S
H777 C800 0.950 . S
H778 C801 0.950 . S
H779 C803 0.950 . S
H780 C804 0.950 . S
H781 C805 0.951 . S
H782 C807 0.951 . S
H783 C809 0.950 1_554 S
H784 C810 0.950 . S
H785 C812 0.950 . S
H786 C815 0.950 . S
H787 C816 0.950 1_565 S
H788 C818 0.950 1_565 S
H789 C819 0.950 . S
C790 H772 0.951 . S
C790 C791 1.366 . S
C790 C792 1.388 . S
C791 C790 1.366 . S
C791 C795 1.385 . S
C792 H773 0.951 . S
C792 C790 1.388 . S
C792 C793 1.366 . S
C793 C792 1.366 . S
C793 C794 1.414 . S
C793 C796 1.499 . S
C794 H774 0.950 . S
C794 C793 1.414 . S
C794 C795 1.374 . S
C795 H775 0.950 . S
C795 C791 1.385 . S
C795 C794 1.374 . S
C796 C793 1.499 . S
C796 C797 1.373 . S
C796 C798 1.389 . S
C797 H776 0.950 . S
C797 C796 1.373 . S
C797 C813 1.377 . S
C798 C796 1.389 . S
C798 C799 1.524 . S
C798 C812 1.377 . S
C799 C798 1.524 . S
C799 C800 1.397 . S
C799 C804 1.363 . S
C800 H777 0.950 . S
C800 C799 1.397 . S
C800 C801 1.334 . S
C801 H778 0.950 . S
C801 C800 1.334 . S
C801 C802 1.287 . S
C802 C801 1.287 . S
C802 C803 1.524 . S
C802 H821 0.913 . S
C803 H779 0.950 . S
C803 C802 1.524 . S
C803 C804 1.415 . S
C804 H780 0.950 . S
C804 C799 1.363 . S
C804 C803 1.415 . S
C805 H781 0.951 . S
C805 C806 1.366 . S
C805 C807 1.388 . S
C806 C805 1.366 . S
C806 C810 1.385 1_556 S
C807 H782 0.951 . S
C807 C805 1.388 . S
C807 C808 1.366 . S
C808 C807 1.366 . S
C808 C809 1.414 . S
C808 C811 1.499 . S
C809 H783 0.950 1_556 S
C809 C808 1.414 . S
C809 C810 1.374 1_556 S
C810 H784 0.950 . S
C810 C806 1.385 1_554 S
C810 C809 1.374 1_554 S
C811 C808 1.499 . S
C811 C812 1.373 . S
C811 C813 1.389 . S
C812 H785 0.950 . S
C812 C798 1.377 . S
C812 C811 1.373 . S
C813 C797 1.377 . S
C813 C811 1.389 . S
C813 C814 1.524 . S
C814 C813 1.524 . S
C814 C815 1.397 . S
C814 C819 1.363 . S
C815 H786 0.950 . S
C815 C814 1.397 . S
C815 C816 1.334 . S
C816 H787 0.950 1_545 S
C816 C815 1.334 . S
C816 C817 1.287 1_545 S
C817 C816 1.287 1_565 S
C817 C818 1.524 1_565 S
C817 H820 0.999 . S
C818 H788 0.950 1_545 S
C818 C817 1.524 1_545 S
C818 C819 1.415 . S
C819 H789 0.950 . S
C819 C814 1.363 . S
C819 C818 1.415 . S
H820 C817 0.999 . S
H821 C802 0.913 . S
H822 C840 0.951 . S
H823 C842 0.951 . S
H824 C844 0.950 . S
H825 C845 0.950 . S
H826 C847 0.950 . S
H827 C850 0.950 . S
H828 C851 0.950 . S
H829 C853 0.950 . S
H830 C854 0.950 1_554 S
H831 C855 0.951 . S
H832 C857 0.951 . S
H833 C859 0.950 . S
H834 C860 0.950 1_554 S
H835 C862 0.950 . S
H836 C865 0.950 . S
H837 C866 0.950 . S
H838 C868 0.950 . S
H839 C869 0.950 . S
C840 H822 0.951 . S
C840 C841 1.366 . S
C840 C842 1.388 . S
C841 C840 1.366 . S
C841 C845 1.385 . S
C842 H823 0.951 . S
C842 C840 1.388 . S
C842 C843 1.366 . S
C843 C842 1.366 . S
C843 C844 1.414 . S
C843 C846 1.499 . S
C844 H824 0.950 . S
C844 C843 1.414 . S
C844 C845 1.374 . S
C845 H825 0.950 . S
C845 C841 1.385 . S
C845 C844 1.374 . S
C846 C843 1.499 . S
C846 C847 1.373 . S
C846 C848 1.389 . S
C847 H826 0.950 . S
C847 C846 1.373 . S
C847 C863 1.377 . S
C848 C846 1.389 . S
C848 C849 1.524 . S
C848 C862 1.377 . S
C849 C848 1.524 . S
C849 C850 1.397 . S
C849 C854 1.363 . S
C850 H827 0.950 . S
C850 C849 1.397 . S
C850 C851 1.334 . S
C851 H828 0.950 . S
C851 C850 1.334 . S
C851 C852 1.287 1_556 S
C852 C851 1.287 1_554 S
C852 C853 1.524 . S
C852 H871 0.913 . S
C853 H829 0.950 . S
C853 C852 1.524 . S
C853 C854 1.415 1_554 S
C854 H830 0.950 1_556 S
C854 C849 1.363 . S
C854 C853 1.415 1_556 S
C855 H831 0.951 . S
C855 C856 1.366 . S
C855 C857 1.388 . S
C856 C855 1.366 . S
C856 C860 1.385 . S
C857 H832 0.951 . S
C857 C855 1.388 . S
C857 C858 1.366 . S
C858 C857 1.366 . S
C858 C859 1.414 . S
C858 C861 1.499 . S
C859 H833 0.950 . S
C859 C858 1.414 . S
C859 C860 1.374 . S
C860 H834 0.950 1_556 S
C860 C856 1.385 . S
C860 C859 1.374 . S
C861 C858 1.499 . S
C861 C862 1.373 . S
C861 C863 1.389 . S
C862 H835 0.950 . S
C862 C848 1.377 . S
C862 C861 1.373 . S
C863 C847 1.377 . S
C863 C861 1.389 . S
C863 C864 1.524 . S
C864 C863 1.524 . S
C864 C865 1.397 . S
C864 C869 1.363 . S
C865 H836 0.950 . S
C865 C864 1.397 . S
C865 C866 1.334 . S
C866 H837 0.950 . S
C866 C865 1.334 . S
C866 C867 1.287 . S
C867 C866 1.287 . S
C867 C868 1.524 . S
C867 H870 0.999 . S
C868 H838 0.950 . S
C868 C867 1.524 . S
C868 C869 1.415 . S
C869 H839 0.950 . S
C869 C864 1.363 . S
C869 C868 1.415 . S
H870 C867 0.999 . S
H871 C852 0.913 . S
H872 C890 0.951 . S
H873 C892 0.951 . S
H874 C894 0.950 . S
H875 C895 0.950 . S
H876 C897 0.950 . S
H877 C900 0.950 . S
H878 C901 0.950 . S
H879 C903 0.950 . S
H880 C904 0.950 . S
H881 C905 0.951 . S
H882 C907 0.951 . S
H883 C909 0.950 . S
H884 C910 0.950 . S
H885 C912 0.950 . S
H886 C915 0.950 . S
H887 C916 0.950 . S
H888 C918 0.950 . S
H889 C919 0.950 . S
C890 H872 0.951 . S
C890 C891 1.366 . S
C890 C892 1.388 . S
C891 C890 1.366 . S
C891 C895 1.385 . S
C892 H873 0.951 . S
C892 C890 1.388 . S
C892 C893 1.366 . S
C893 C892 1.366 . S
C893 C894 1.414 . S
C893 C896 1.499 . S
C894 H874 0.950 . S
C894 C893 1.414 . S
C894 C895 1.374 . S
C895 H875 0.950 . S
C895 C891 1.385 . S
C895 C894 1.374 . S
C896 C893 1.499 . S
C896 C897 1.373 . S
C896 C898 1.389 . S
C897 H876 0.950 . S
C897 C896 1.373 . S
C897 C913 1.377 . S
C898 C896 1.389 . S
C898 C899 1.524 . S
C898 C912 1.377 . S
C899 C898 1.524 . S
C899 C900 1.397 . S
C899 C904 1.363 . S
C900 H877 0.950 . S
C900 C899 1.397 . S
C900 C901 1.334 . S
C901 H878 0.950 . S
C901 C900 1.334 . S
C901 C902 1.287 . S
C902 C901 1.287 . S
C902 C903 1.524 . S
C902 H921 0.913 . S
C903 H879 0.950 . S
C903 C902 1.524 . S
C903 C904 1.415 . S
C904 H880 0.950 . S
C904 C899 1.363 . S
C904 C903 1.415 . S
C905 H881 0.951 . S
C905 C906 1.366 . S
C905 C907 1.388 . S
C906 C905 1.366 . S
C906 C910 1.385 . S
C907 H882 0.951 . S
C907 C905 1.388 . S
C907 C908 1.366 . S
C908 C907 1.366 . S
C908 C909 1.414 . S
C908 C911 1.499 . S
C909 H883 0.950 . S
C909 C908 1.414 . S
C909 C910 1.374 . S
C910 H884 0.950 . S
C910 C906 1.385 . S
C910 C909 1.374 . S
C911 C908 1.499 . S
C911 C912 1.373 . S
C911 C913 1.389 . S
C912 H885 0.950 . S
C912 C898 1.377 . S
C912 C911 1.373 . S
C913 C897 1.377 . S
C913 C911 1.389 . S
C913 C914 1.524 . S
C914 C913 1.524 . S
C914 C915 1.397 . S
C914 C919 1.363 . S
C915 H886 0.950 . S
C915 C914 1.397 . S
C915 C916 1.334 1_556 S
C916 H887 0.950 . S
C916 C915 1.334 1_554 S
C916 C917 1.287 . S
C917 C916 1.287 . S
C917 C918 1.524 . S
C917 H920 0.999 . S
C918 H888 0.950 . S
C918 C917 1.524 . S
C918 C919 1.415 1_554 S
C919 H889 0.950 . S
C919 C914 1.363 . S
C919 C918 1.415 1_556 S
H920 C917 0.999 . S
H921 C902 0.913 . S
H922 C940 0.951 . S
H923 C942 0.951 . S
H924 C944 0.950 . S
H925 C945 0.950 . S
H926 C947 0.950 . S
H927 C950 0.950 . S
H928 C951 0.950 . S
H929 C953 0.950 . S
H930 C954 0.950 . S
H931 C955 0.951 1_554 S
H932 C957 1.004 . S
H933 C959 0.950 . S
H934 C960 0.950 . S
H935 C962 0.950 . S
H936 C965 0.950 . S
H937 C966 0.950 . S
H938 C968 0.950 . S
H939 C969 0.950 . S
C940 H922 0.951 . S
C940 C941 1.366 . S
C940 C942 1.388 . S
C941 C940 1.366 . S
C941 C945 1.385 . S
C942 H923 0.951 . S
C942 C940 1.388 . S
C942 C943 1.366 . S
C943 C942 1.366 . S
C943 C944 1.414 . S
C943 C946 1.499 . S
C944 H924 0.950 . S
C944 C943 1.414 . S
C944 C945 1.374 . S
C945 H925 0.950 . S
C945 C941 1.385 . S
C945 C944 1.374 . S
C946 C943 1.499 . S
C946 C947 1.373 . S
C946 C948 1.389 . S
C947 H926 0.950 . S
C947 C946 1.373 . S
C947 C963 1.377 . S
C948 C946 1.389 . S
C948 C949 1.524 . S
C948 C962 1.377 . S
C949 C948 1.524 . S
C949 C950 1.397 . S
C949 C954 1.363 . S
C950 H927 0.950 . S
C950 C949 1.397 . S
C950 C951 1.334 . S
C951 H928 0.950 . S
C951 C950 1.334 . S
C951 C952 1.287 . S
C952 C951 1.287 . S
C952 C953 1.524 . S
C952 H971 0.913 . S
C953 H929 0.950 . S
C953 C952 1.524 . S
C953 C954 1.415 . S
C954 H930 0.950 . S
C954 C949 1.363 . S
C954 C953 1.415 . S
C955 H931 0.951 1_556 S
C955 C956 1.366 . S
C955 C957 1.388 . S
C956 C955 1.366 . S
C956 C960 1.385 . S
C957 H932 1.004 . S
C957 C955 1.388 . S
C957 C958 1.366 . S
C958 C957 1.366 . S
C958 C959 1.414 . S
C958 C961 1.499 . S
C959 H933 0.950 . S
C959 C958 1.414 . S
C959 C960 1.374 . S
C960 H934 0.950 . S
C960 C956 1.385 . S
C960 C959 1.374 . S
C961 C958 1.499 . S
C961 C962 1.373 . S
C961 C963 1.389 . S
C962 H935 0.950 . S
C962 C948 1.377 . S
C962 C961 1.373 . S
C963 C947 1.377 . S
C963 C961 1.389 . S
C963 C964 1.524 . S
C964 C963 1.524 . S
C964 C965 1.397 . S
C964 C969 1.363 . S
C965 H936 0.950 . S
C965 C964 1.397 . S
C965 C966 1.334 . S
C966 H937 0.950 . S
C966 C965 1.334 . S
C966 C967 1.287 . S
C967 C966 1.287 . S
C967 C968 1.524 . S
C967 H970 0.999 . S
C968 H938 0.950 . S
C968 C967 1.524 . S
C968 C969 1.415 . S
C969 H939 0.950 . S
C969 C964 1.363 . S
C969 C968 1.415 . S
H970 C967 0.999 . S
H971 C952 0.913 . S
H972 C990 0.951 . S
H973 C992 0.951 . S
H974 C994 0.950 . S
H975 C995 0.950 . S
H976 C997 0.950 . S
H977 C1000 0.950 . S
H978 C1001 0.950 . S
H979 C1003 0.950 . S
H980 C1004 0.950 . S
H981 C1005 0.951 . S
H982 C1007 0.951 . S
H983 C1009 0.950 . S
H984 C1010 0.950 . S
H985 C1012 0.950 . S
H986 C1015 0.950 . S
H987 C1016 0.950 . S
H988 C1018 0.950 . S
H989 C1019 0.950 . S
C990 H972 0.951 . S
C990 C991 1.366 . S
C990 C992 1.388 . S
C991 C990 1.366 . S
C991 C995 1.385 . S
C992 H973 0.951 . S
C992 C990 1.388 . S
C992 C993 1.366 . S
C993 C992 1.366 . S
C993 C994 1.414 . S
C993 C996 1.499 . S
C994 H974 0.950 . S
C994 C993 1.414 . S
C994 C995 1.374 . S
C995 H975 0.950 . S
C995 C991 1.385 . S
C995 C994 1.374 . S
C996 C993 1.499 . S
C996 C997 1.373 . S
C996 C998 1.389 . S
C997 H976 0.950 . S
C997 C996 1.373 . S
C997 C1013 1.377 . S
C998 C996 1.389 . S
C998 C999 1.524 . S
C998 C1012 1.377 . S
C999 C998 1.524 . S
C999 C1000 1.397 . S
C999 C1004 1.363 . S
C1000 H977 0.950 . S
C1000 C999 1.397 . S
C1000 C1001 1.334 . S
C1001 H978 0.950 . S
C1001 C1000 1.334 . S
C1001 C1002 1.287 1_554 S
C1002 C1001 1.287 1_556 S
C1002 C1003 1.524 . S
C1002 H1021 0.913 . S
C1003 H979 0.950 . S
C1003 C1002 1.524 . S
C1003 C1004 1.415 1_556 S
C1004 H980 0.950 . S
C1004 C999 1.363 . S
C1004 C1003 1.415 1_554 S
C1005 H981 0.951 . S
C1005 C1006 1.366 . S
C1005 C1007 1.388 . S
C1006 C1005 1.366 . S
C1006 C1010 1.385 . S
C1007 H982 0.951 . S
C1007 C1005 1.388 . S
C1007 C1008 1.366 . S
C1008 C1007 1.366 . S
C1008 C1009 1.414 . S
C1008 C1011 1.499 . S
C1009 H983 0.950 . S
C1009 C1008 1.414 . S
C1009 C1010 1.374 . S
C1010 H984 0.950 . S
C1010 C1006 1.385 . S
C1010 C1009 1.374 . S
C1011 C1008 1.499 . S
C1011 C1012 1.373 . S
C1011 C1013 1.389 . S
C1012 H985 0.950 . S
C1012 C998 1.377 . S
C1012 C1011 1.373 . S
C1013 C997 1.377 . S
C1013 C1011 1.389 . S
C1013 C1014 1.524 . S
C1014 C1013 1.524 . S
C1014 C1015 1.397 . S
C1014 C1019 1.363 . S
C1015 H986 0.950 . S
C1015 C1014 1.397 . S
C1015 C1016 1.334 . S
C1016 H987 0.950 . S
C1016 C1015 1.334 . S
C1016 C1017 1.287 . S
C1017 C1016 1.287 . S
C1017 C1018 1.524 . S
C1017 H1020 0.999 . S
C1018 H988 0.950 . S
C1018 C1017 1.524 . S
C1018 C1019 1.415 . S
C1019 H989 0.950 . S
C1019 C1014 1.363 . S
C1019 C1018 1.415 . S
H1020 C1017 0.999 . S
H1021 C1002 0.913 . S
H1022 C1040 0.951 . S
H1023 C1042 0.951 . S
H1024 C1044 0.950 . S
H1025 C1045 0.950 . S
H1026 C1047 0.950 . S
H1027 C1050 0.950 . S
H1028 C1051 0.950 . S
H1029 C1053 0.950 1_556 S
H1030 C1054 0.950 . S
H1031 C1055 0.951 . S
H1032 C1057 0.951 . S
H1033 C1059 0.950 . S
H1034 C1060 0.950 . S
H1035 C1062 0.950 . S
H1036 C1065 0.950 . S
H1037 C1066 0.950 . S
H1038 C1068 0.950 . S
H1039 C1069 0.950 . S
C1040 H1022 0.951 . S
C1040 C1041 1.366 . S
C1040 C1042 1.388 . S
C1041 C1040 1.366 . S
C1041 C1045 1.385 . S
C1042 H1023 0.951 . S
C1042 C1040 1.388 . S
C1042 C1043 1.366 . S
C1043 C1042 1.366 . S
C1043 C1044 1.414 . S
C1043 C1046 1.499 . S
C1044 H1024 0.950 . S
C1044 C1043 1.414 . S
C1044 C1045 1.374 . S
C1045 H1025 0.950 . S
C1045 C1041 1.385 . S
C1045 C1044 1.374 . S
C1046 C1043 1.499 . S
C1046 C1047 1.373 . S
C1046 C1048 1.389 . S
C1047 H1026 0.950 . S
C1047 C1046 1.373 . S
C1047 C1063 1.377 . S
C1048 C1046 1.389 . S
C1048 C1049 1.524 . S
C1048 C1062 1.377 . S
C1049 C1048 1.524 . S
C1049 C1050 1.397 . S
C1049 C1054 1.363 . S
C1050 H1027 0.950 . S
C1050 C1049 1.397 . S
C1050 C1051 1.334 . S
C1051 H1028 0.950 . S
C1051 C1050 1.334 . S
C1051 C1052 1.287 . S
C1052 C1051 1.287 . S
C1052 C1053 1.524 . S
C1052 H1071 0.910 1_554 S
C1053 H1029 0.950 1_554 S
C1053 C1052 1.524 . S
C1053 C1054 1.415 . S
C1054 H1030 0.950 . S
C1054 C1049 1.363 . S
C1054 C1053 1.415 . S
C1055 H1031 0.951 . S
C1055 C1056 1.366 . S
C1055 C1057 1.388 . S
C1056 C1055 1.366 . S
C1056 C1060 1.385 . S
C1057 H1032 0.951 . S
C1057 C1055 1.388 . S
C1057 C1058 1.366 . S
C1058 C1057 1.366 . S
C1058 C1059 1.414 . S
C1058 C1061 1.499 . S
C1059 H1033 0.950 . S
C1059 C1058 1.414 . S
C1059 C1060 1.374 . S
C1060 H1034 0.950 . S
C1060 C1056 1.385 . S
C1060 C1059 1.374 . S
C1061 C1058 1.499 . S
C1061 C1062 1.373 . S
C1061 C1063 1.389 . S
C1062 H1035 0.950 . S
C1062 C1048 1.377 . S
C1062 C1061 1.373 . S
C1063 C1047 1.377 . S
C1063 C1061 1.389 . S
C1063 C1064 1.524 . S
C1064 C1063 1.524 . S
C1064 C1065 1.397 . S
C1064 C1069 1.363 . S
C1065 H1036 0.950 . S
C1065 C1064 1.397 . S
C1065 C1066 1.334 . S
C1066 H1037 0.950 . S
C1066 C1065 1.334 . S
C1066 C1067 1.287 . S
C1067 C1066 1.287 . S
C1067 C1068 1.524 . S
C1067 H1070 0.999 . S
C1068 H1038 0.950 . S
C1068 C1067 1.524 . S
C1068 C1069 1.415 . S
C1069 H1039 0.950 . S
C1069 C1064 1.363 . S
C1069 C1068 1.415 . S
H1070 C1067 0.999 . S
H1071 C1052 0.910 1_556 S
H1072 C1090 0.951 . S
H1073 C1092 0.951 . S
H1074 C1094 0.950 . S
H1075 C1095 0.950 . S
H1076 C1097 0.950 . S
H1077 C1100 0.950 . S
H1078 C1101 0.950 . S
H1079 C1103 0.950 . S
H1080 C1104 0.950 . S
H1081 C1105 0.951 . S
H1082 C1107 0.951 . S
H1083 C1109 0.950 . S
H1084 C1110 0.950 . S
H1085 C1112 0.950 . S
H1086 C1115 0.950 . S
H1087 C1116 0.950 . S
H1088 C1118 0.950 . S
H1089 C1119 0.950 1_554 S
C1090 H1072 0.951 . S
C1090 C1091 1.366 . S
C1090 C1092 1.388 . S
C1091 C1090 1.366 . S
C1091 C1095 1.385 . S
C1092 H1073 0.951 . S
C1092 C1090 1.388 . S
C1092 C1093 1.366 . S
C1093 C1092 1.366 . S
C1093 C1094 1.414 . S
C1093 C1096 1.499 . S
C1094 H1074 0.950 . S
C1094 C1093 1.414 . S
C1094 C1095 1.374 . S
C1095 H1075 0.950 . S
C1095 C1091 1.385 . S
C1095 C1094 1.374 . S
C1096 C1093 1.499 . S
C1096 C1097 1.373 . S
C1096 C1098 1.389 . S
C1097 H1076 0.950 . S
C1097 C1096 1.373 . S
C1097 C1113 1.377 . S
C1098 C1096 1.389 . S
C1098 C1099 1.524 . S
C1098 C1112 1.377 . S
C1099 C1098 1.524 . S
C1099 C1100 1.397 . S
C1099 C1104 1.363 . S
C1100 H1077 0.950 . S
C1100 C1099 1.397 . S
C1100 C1101 1.334 . S
C1101 H1078 0.950 . S
C1101 C1100 1.334 . S
C1101 C1102 1.287 . S
C1102 C1101 1.287 . S
C1102 C1103 1.524 . S
C1102 H1121 0.913 . S
C1103 H1079 0.950 . S
C1103 C1102 1.524 . S
C1103 C1104 1.415 . S
C1104 H1080 0.950 . S
C1104 C1099 1.363 . S
C1104 C1103 1.415 . S
C1105 H1081 0.951 . S
C1105 C1106 1.366 . S
C1105 C1107 1.388 . S
C1106 C1105 1.366 . S
C1106 C1110 1.385 . S
C1107 H1082 0.951 . S
C1107 C1105 1.388 . S
C1107 C1108 1.366 . S
C1108 C1107 1.366 . S
C1108 C1109 1.414 . S
C1108 C1111 1.499 . S
C1109 H1083 0.950 . S
C1109 C1108 1.414 . S
C1109 C1110 1.374 . S
C1110 H1084 0.950 . S
C1110 C1106 1.385 . S
C1110 C1109 1.374 . S
C1111 C1108 1.499 . S
C1111 C1112 1.373 . S
C1111 C1113 1.389 . S
C1112 H1085 0.950 . S
C1112 C1098 1.377 . S
C1112 C1111 1.373 . S
C1113 C1097 1.377 . S
C1113 C1111 1.389 . S
C1113 C1114 1.566 . S
C1114 C1113 1.566 . S
C1114 C1115 1.368 1_554 S
C1114 C1119 1.351 1_554 S
C1115 H1086 0.950 . S
C1115 C1114 1.368 1_556 S
C1115 C1116 1.334 . S
C1116 H1087 0.950 . S
C1116 C1115 1.334 . S
C1116 C1117 1.287 . S
C1117 C1116 1.287 . S
C1117 C1118 1.524 . S
C1117 H1120 0.999 . S
C1118 H1088 0.950 . S
C1118 C1117 1.524 . S
C1118 C1119 1.415 . S
C1119 H1089 0.950 1_556 S
C1119 C1114 1.351 1_556 S
C1119 C1118 1.415 . S
H1120 C1117 0.999 . S
H1121 C1102 0.913 . S
H1122 C1140 0.951 . S
H1123 C1142 0.951 . S
H1124 C1144 0.950 . S
H1125 C1145 0.950 . S
H1126 C1147 0.950 . S
H1127 C1150 0.950 . S
H1128 C1151 0.950 . S
H1129 C1153 0.950 . S
H1130 C1154 0.950 . S
H1131 C1155 0.951 . S
H1132 C1157 0.951 . S
H1133 C1159 0.950 . S
H1134 C1160 0.950 . S
H1135 C1162 0.950 . S
H1136 C1165 0.950 . S
H1137 C1166 0.950 . S
H1138 C1168 0.950 . S
H1139 C1169 0.950 . S
C1140 H1122 0.951 . S
C1140 C1141 1.366 . S
C1140 C1142 1.388 . S
C1141 C1140 1.366 . S
C1141 C1145 1.385 . S
C1142 H1123 0.951 . S
C1142 C1140 1.388 . S
C1142 C1143 1.366 . S
C1143 C1142 1.366 . S
C1143 C1144 1.414 . S
C1143 C1146 1.499 . S
C1144 H1124 0.950 . S
C1144 C1143 1.414 . S
C1144 C1145 1.374 . S
C1145 H1125 0.950 . S
C1145 C1141 1.385 . S
C1145 C1144 1.374 . S
C1146 C1143 1.499 . S
C1146 C1147 1.373 . S
C1146 C1148 1.389 . S
C1147 H1126 0.950 . S
C1147 C1146 1.373 . S
C1147 C1163 1.377 1_655 S
C1148 C1146 1.389 . S
C1148 C1149 1.524 . S
C1148 C1162 1.377 1_655 S
C1149 C1148 1.524 . S
C1149 C1150 1.397 . S
C1149 C1154 1.363 . S
C1150 H1127 0.950 . S
C1150 C1149 1.397 . S
C1150 C1151 1.334 . S
C1151 H1128 0.950 . S
C1151 C1150 1.334 . S
C1151 C1152 1.287 . S
C1152 C1151 1.287 . S
C1152 C1153 1.524 . S
C1152 H1171 0.913 . S
C1153 H1129 0.950 . S
C1153 C1152 1.524 . S
C1153 C1154 1.415 . S
C1154 H1130 0.950 . S
C1154 C1149 1.363 . S
C1154 C1153 1.415 . S
C1155 H1131 0.951 . S
C1155 C1156 1.366 . S
C1155 C1157 1.388 . S
C1156 C1155 1.366 . S
C1156 C1160 1.385 . S
C1157 H1132 0.951 . S
C1157 C1155 1.388 . S
C1157 C1158 1.366 . S
C1158 C1157 1.366 . S
C1158 C1159 1.414 . S
C1158 C1161 1.499 . S
C1159 H1133 0.950 . S
C1159 C1158 1.414 . S
C1159 C1160 1.374 . S
C1160 H1134 0.950 . S
C1160 C1156 1.385 . S
C1160 C1159 1.374 . S
C1161 C1158 1.499 . S
C1161 C1162 1.373 . S
C1161 C1163 1.389 . S
C1162 H1135 0.950 . S
C1162 C1148 1.377 1_455 S
C1162 C1161 1.373 . S
C1163 C1147 1.377 1_455 S
C1163 C1161 1.389 . S
C1163 C1164 1.524 . S
C1164 C1163 1.524 . S
C1164 C1165 1.397 . S
C1164 C1169 1.363 . S
C1165 H1136 0.950 . S
C1165 C1164 1.397 . S
C1165 C1166 1.334 . S
C1166 H1137 0.950 . S
C1166 C1165 1.334 . S
C1166 C1167 1.287 . S
C1167 C1166 1.287 . S
C1167 C1168 1.524 . S
C1167 H1170 0.999 . S
C1168 H1138 0.950 . S
C1168 C1167 1.524 . S
C1168 C1169 1.415 . S
C1169 H1139 0.950 . S
C1169 C1164 1.363 . S
C1169 C1168 1.415 . S
H1170 C1167 0.999 . S
H1171 C1152 0.913 . S
H1172 C1190 0.951 . S
H1173 C1192 0.951 . S
H1174 C1194 0.950 . S
H1175 C1195 0.950 . S
H1176 C1197 0.950 . S
H1177 C1200 0.950 . S
H1178 C1201 0.950 . S
H1179 C1203 0.950 . S
H1180 C1204 0.950 . S
H1181 C1205 0.951 . S
H1182 C1207 0.951 . S
H1183 C1209 0.950 . S
H1184 C1210 0.950 . S
H1185 C1212 0.950 . S
H1186 C1215 0.950 . S
H1187 C1216 0.950 . S
H1188 C1218 0.950 . S
H1189 C1219 0.950 . S
C1190 H1172 0.951 . S
C1190 C1191 1.366 . S
C1190 C1192 1.388 . S
C1191 C1190 1.366 . S
C1191 C1195 1.385 . S
C1192 H1173 0.951 . S
C1192 C1190 1.388 . S
C1192 C1193 1.366 . S
C1193 C1192 1.366 . S
C1193 C1194 1.414 . S
C1193 C1196 1.499 . S
C1194 H1174 0.950 . S
C1194 C1193 1.414 . S
C1194 C1195 1.374 . S
C1195 H1175 0.950 . S
C1195 C1191 1.385 . S
C1195 C1194 1.374 . S
C1196 C1193 1.499 . S
C1196 C1197 1.373 . S
C1196 C1198 1.389 . S
C1197 H1176 0.950 . S
C1197 C1196 1.373 . S
C1197 C1213 1.377 . S
C1198 C1196 1.389 . S
C1198 C1199 1.524 . S
C1198 C1212 1.377 . S
C1199 C1198 1.524 . S
C1199 C1200 1.397 . S
C1199 C1204 1.363 . S
C1200 H1177 0.950 . S
C1200 C1199 1.397 . S
C1200 C1201 1.334 . S
C1201 H1178 0.950 . S
C1201 C1200 1.334 . S
C1201 C1202 1.287 . S
C1202 C1201 1.287 . S
C1202 C1203 1.524 . S
C1202 H1221 0.913 . S
C1203 H1179 0.950 . S
C1203 C1202 1.524 . S
C1203 C1204 1.415 . S
C1204 H1180 0.950 . S
C1204 C1199 1.363 . S
C1204 C1203 1.415 . S
C1205 H1181 0.951 . S
C1205 C1206 1.366 . S
C1205 C1207 1.388 . S
C1206 C1205 1.366 . S
C1206 C1210 1.385 . S
C1207 H1182 0.951 . S
C1207 C1205 1.388 . S
C1207 C1208 1.366 . S
C1208 C1207 1.366 . S
C1208 C1209 1.414 . S
C1208 C1211 1.499 . S
C1209 H1183 0.950 . S
C1209 C1208 1.414 . S
C1209 C1210 1.374 . S
C1210 H1184 0.950 . S
C1210 C1206 1.385 . S
C1210 C1209 1.374 . S
C1211 C1208 1.499 . S
C1211 C1212 1.373 . S
C1211 C1213 1.389 . S
C1212 H1185 0.950 . S
C1212 C1198 1.377 . S
C1212 C1211 1.373 . S
C1213 C1197 1.377 . S
C1213 C1211 1.389 . S
C1213 C1214 1.524 . S
C1214 C1213 1.524 . S
C1214 C1215 1.397 . S
C1214 C1219 1.363 . S
C1215 H1186 0.950 . S
C1215 C1214 1.397 . S
C1215 C1216 1.334 . S
C1216 H1187 0.950 . S
C1216 C1215 1.334 . S
C1216 C1217 1.287 . S
C1217 C1216 1.287 . S
C1217 C1218 1.524 . S
C1217 H1220 0.999 . S
C1218 H1188 0.950 . S
C1218 C1217 1.524 . S
C1218 C1219 1.415 . S
C1219 H1189 0.950 . S
C1219 C1214 1.363 . S
C1219 C1218 1.415 . S
H1220 C1217 0.999 . S
H1221 C1202 0.913 . S
H1222 C1240 0.951 . S
H1223 C1242 0.951 . S
H1224 C1244 0.950 . S
H1225 C1245 0.950 . S
H1226 C1247 0.950 . S
H1227 C1250 0.950 . S
H1228 C1251 0.950 . S
H1229 C1253 0.950 . S
H1230 C1254 0.950 . S
H1231 C1255 0.951 . S
H1232 C1257 0.951 . S
H1233 C1259 0.950 . S
H1234 C1260 0.950 . S
H1235 C1262 0.950 . S
H1236 C1265 0.950 . S
H1237 C1266 0.950 . S
H1238 C1268 0.950 . S
H1239 C1269 0.950 1_545 S
C1240 H1222 0.951 . S
C1240 C1241 1.366 . S
C1240 C1242 1.388 . S
C1241 C1240 1.366 . S
C1241 C1245 1.385 . S
C1242 H1223 0.951 . S
C1242 C1240 1.388 . S
C1242 C1243 1.366 . S
C1243 C1242 1.366 . S
C1243 C1244 1.414 . S
C1243 C1246 1.499 . S
C1244 H1224 0.950 . S
C1244 C1243 1.414 . S
C1244 C1245 1.374 . S
C1245 H1225 0.950 . S
C1245 C1241 1.385 . S
C1245 C1244 1.374 . S
C1246 C1243 1.499 . S
C1246 C1247 1.373 . S
C1246 C1248 1.389 . S
C1247 H1226 0.950 . S
C1247 C1246 1.373 . S
C1247 C1263 1.377 1_545 S
C1248 C1246 1.389 . S
C1248 C1249 1.524 . S
C1248 C1262 1.377 1_545 S
C1249 C1248 1.524 . S
C1249 C1250 1.397 . S
C1249 C1254 1.363 . S
C1250 H1227 0.950 . S
C1250 C1249 1.397 . S
C1250 C1251 1.334 . S
C1251 H1228 0.950 . S
C1251 C1250 1.334 . S
C1251 C1252 1.287 . S
C1252 C1251 1.287 . S
C1252 C1253 1.524 . S
C1252 H1271 0.913 . S
C1253 H1229 0.950 . S
C1253 C1252 1.524 . S
C1253 C1254 1.415 . S
C1254 H1230 0.950 . S
C1254 C1249 1.363 . S
C1254 C1253 1.415 . S
C1255 H1231 0.951 . S
C1255 C1256 1.366 . S
C1255 C1257 1.388 . S
C1256 C1255 1.366 . S
C1256 C1260 1.385 . S
C1257 H1232 0.951 . S
C1257 C1255 1.388 . S
C1257 C1258 1.366 . S
C1258 C1257 1.366 . S
C1258 C1259 1.414 . S
C1258 C1261 1.499 . S
C1259 H1233 0.950 . S
C1259 C1258 1.414 . S
C1259 C1260 1.374 . S
C1260 H1234 0.950 . S
C1260 C1256 1.385 . S
C1260 C1259 1.374 . S
C1261 C1258 1.499 . S
C1261 C1262 1.373 . S
C1261 C1263 1.389 . S
C1262 H1235 0.950 . S
C1262 C1248 1.377 1_565 S
C1262 C1261 1.373 . S
C1263 C1247 1.377 1_565 S
C1263 C1261 1.389 . S
C1263 C1264 1.524 . S
C1264 C1263 1.524 . S
C1264 C1265 1.397 . S
C1264 C1269 1.363 . S
C1265 H1236 0.950 . S
C1265 C1264 1.397 . S
C1265 C1266 1.334 . S
C1266 H1237 0.950 . S
C1266 C1265 1.334 . S
C1266 C1267 1.287 . S
C1267 C1266 1.287 . S
C1267 C1268 1.524 . S
C1267 H1270 0.999 . S
C1268 H1238 0.950 . S
C1268 C1267 1.524 . S
C1268 C1269 1.415 . S
C1269 H1239 0.950 1_565 S
C1269 C1264 1.363 . S
C1269 C1268 1.415 . S
H1270 C1267 0.999 . S
H1271 C1252 0.913 . S
H1272 C1290 0.951 . S
H1273 C1292 0.951 . S
H1274 C1294 0.950 . S
H1275 C1295 0.950 . S
H1276 C1297 0.950 . S
H1277 C1300 0.950 . S
H1278 C1301 0.950 . S
H1279 C1303 0.950 . S
H1280 C1304 0.950 . S
H1281 C1305 0.951 . S
H1282 C1307 0.951 . S
H1283 C1309 0.950 . S
H1284 C1310 0.950 . S
H1285 C1312 0.950 . S
H1286 C1315 0.950 . S
H1287 C1316 0.950 . S
H1288 C1318 0.950 . S
H1289 C1319 0.950 . S
C1290 H1272 0.951 . S
C1290 C1291 1.366 . S
C1290 C1292 1.388 . S
C1291 C1290 1.366 . S
C1291 C1295 1.385 . S
C1292 H1273 0.951 . S
C1292 C1290 1.388 . S
C1292 C1293 1.366 . S
C1293 C1292 1.366 . S
C1293 C1294 1.414 . S
C1293 C1296 1.499 . S
C1294 H1274 0.950 . S
C1294 C1293 1.414 . S
C1294 C1295 1.374 . S
C1295 H1275 0.950 . S
C1295 C1291 1.385 . S
C1295 C1294 1.374 . S
C1296 C1293 1.499 . S
C1296 C1297 1.373 . S
C1296 C1298 1.389 . S
C1297 H1276 0.950 . S
C1297 C1296 1.373 . S
C1297 C1313 1.377 . S
C1298 C1296 1.389 . S
C1298 C1299 1.524 . S
C1298 C1312 1.377 . S
C1299 C1298 1.524 . S
C1299 C1300 1.397 . S
C1299 C1304 1.363 . S
C1300 H1277 0.950 . S
C1300 C1299 1.397 . S
C1300 C1301 1.334 . S
C1301 H1278 0.950 . S
C1301 C1300 1.334 . S
C1301 C1302 1.287 . S
C1302 C1301 1.287 . S
C1302 C1303 1.524 . S
C1302 H1321 0.913 . S
C1303 H1279 0.950 . S
C1303 C1302 1.524 . S
C1303 C1304 1.415 . S
C1304 H1280 0.950 . S
C1304 C1299 1.363 . S
C1304 C1303 1.415 . S
C1305 H1281 0.951 . S
C1305 C1306 1.366 . S
C1305 C1307 1.388 . S
C1306 C1305 1.366 . S
C1306 C1310 1.385 . S
C1307 H1282 0.951 . S
C1307 C1305 1.388 . S
C1307 C1308 1.366 . S
C1308 C1307 1.366 . S
C1308 C1309 1.414 . S
C1308 C1311 1.499 . S
C1309 H1283 0.950 . S
C1309 C1308 1.414 . S
C1309 C1310 1.374 . S
C1310 H1284 0.950 . S
C1310 C1306 1.385 . S
C1310 C1309 1.374 . S
C1311 C1308 1.499 . S
C1311 C1312 1.373 . S
C1311 C1313 1.389 . S
C1312 H1285 0.950 . S
C1312 C1298 1.377 . S
C1312 C1311 1.373 . S
C1313 C1297 1.377 . S
C1313 C1311 1.389 . S
C1313 C1314 1.524 . S
C1314 C1313 1.524 . S
C1314 C1315 1.397 . S
C1314 C1319 1.363 . S
C1315 H1286 0.950 . S
C1315 C1314 1.397 . S
C1315 C1316 1.334 . S
C1316 H1287 0.950 . S
C1316 C1315 1.334 . S
C1316 C1317 1.287 . S
C1317 C1316 1.287 . S
C1317 C1318 1.524 . S
C1317 H1320 0.999 . S
C1318 H1288 0.950 . S
C1318 C1317 1.524 . S
C1318 C1319 1.415 . S
C1319 H1289 0.950 . S
C1319 C1314 1.363 . S
C1319 C1318 1.415 . S
H1320 C1317 0.999 . S
H1321 C1302 0.913 . S
H1322 C1340 0.951 . S
H1323 C1342 0.951 . S
H1324 C1344 0.950 . S
H1325 C1345 0.950 . S
H1326 C1347 0.950 . S
H1327 C1350 0.950 . S
H1328 C1351 0.950 . S
H1329 C1353 0.950 . S
H1330 C1354 0.950 . S
H1331 C1355 0.951 . S
H1332 C1357 0.951 . S
H1333 C1359 0.950 . S
H1334 C1360 0.950 . S
H1335 C1362 0.950 . S
H1336 C1365 0.950 . S
H1337 C1366 0.950 . S
H1338 C1368 0.950 . S
H1339 C1369 0.950 . S
C1340 H1322 0.951 . S
C1340 C1341 1.366 . S
C1340 C1342 1.388 . S
C1341 C1340 1.366 . S
C1341 C1345 1.385 . S
C1342 H1323 0.951 . S
C1342 C1340 1.388 . S
C1342 C1343 1.366 . S
C1343 C1342 1.366 . S
C1343 C1344 1.414 . S
C1343 C1346 1.499 . S
C1344 H1324 0.950 . S
C1344 C1343 1.414 . S
C1344 C1345 1.374 . S
C1345 H1325 0.950 . S
C1345 C1341 1.385 . S
C1345 C1344 1.374 . S
C1346 C1343 1.499 . S
C1346 C1347 1.373 . S
C1346 C1348 1.389 . S
C1347 H1326 0.950 . S
C1347 C1346 1.373 . S
C1347 C1363 1.377 . S
C1348 C1346 1.389 . S
C1348 C1349 1.524 . S
C1348 C1362 1.377 . S
C1349 C1348 1.524 . S
C1349 C1350 1.397 . S
C1349 C1354 1.363 . S
C1350 H1327 0.950 . S
C1350 C1349 1.397 . S
C1350 C1351 1.334 . S
C1351 H1328 0.950 . S
C1351 C1350 1.334 . S
C1351 C1352 1.287 . S
C1352 C1351 1.287 . S
C1352 C1353 1.524 . S
C1352 H1371 0.913 . S
C1353 H1329 0.950 . S
C1353 C1352 1.524 . S
C1353 C1354 1.415 . S
C1354 H1330 0.950 . S
C1354 C1349 1.363 . S
C1354 C1353 1.415 . S
C1355 H1331 0.951 . S
C1355 C1356 1.366 . S
C1355 C1357 1.388 . S
C1356 C1355 1.366 . S
C1356 C1360 1.385 . S
C1357 H1332 0.951 . S
C1357 C1355 1.388 . S
C1357 C1358 1.366 . S
C1358 C1357 1.366 . S
C1358 C1359 1.414 . S
C1358 C1361 1.499 . S
C1359 H1333 0.950 . S
C1359 C1358 1.414 . S
C1359 C1360 1.374 . S
C1360 H1334 0.950 . S
C1360 C1356 1.385 . S
C1360 C1359 1.374 . S
C1361 C1358 1.499 . S
C1361 C1362 1.373 . S
C1361 C1363 1.389 . S
C1362 H1335 0.950 . S
C1362 C1348 1.377 . S
C1362 C1361 1.373 . S
C1363 C1347 1.377 . S
C1363 C1361 1.389 . S
C1363 C1364 1.524 . S
C1364 C1363 1.524 . S
C1364 C1365 1.397 . S
C1364 C1369 1.363 . S
C1365 H1336 0.950 . S
C1365 C1364 1.397 . S
C1365 C1366 1.334 . S
C1366 H1337 0.950 . S
C1366 C1365 1.334 . S
C1366 C1367 1.287 . S
C1367 C1366 1.287 . S
C1367 C1368 1.524 . S
C1367 H1370 0.999 . S
C1368 H1338 0.950 . S
C1368 C1367 1.524 . S
C1368 C1369 1.415 . S
C1369 H1339 0.950 . S
C1369 C1364 1.363 . S
C1369 C1368 1.415 . S
H1370 C1367 0.999 . S
H1371 C1352 0.913 . S
H1372 C1390 0.951 . S
H1373 C1392 0.951 . S
H1374 C1394 0.950 . S
H1375 C1395 0.950 . S
H1376 C1397 0.950 . S
H1377 C1400 0.950 . S
H1378 C1401 0.950 . S
H1379 C1403 0.950 . S
H1380 C1404 0.950 . S
H1381 C1405 0.951 . S
H1382 C1407 0.951 . S
H1383 C1409 0.950 . S
H1384 C1410 0.950 . S
H1385 C1412 0.950 . S
H1386 C1415 0.950 . S
H1387 C1416 0.950 . S
H1388 C1418 0.950 . S
H1389 C1419 0.950 . S
C1390 H1372 0.951 . S
C1390 C1391 1.366 . S
C1390 C1392 1.388 . S
C1391 C1390 1.366 . S
C1391 C1395 1.385 . S
C1392 H1373 0.951 . S
C1392 C1390 1.388 . S
C1392 C1393 1.366 . S
C1393 C1392 1.366 . S
C1393 C1394 1.414 . S
C1393 C1396 1.499 . S
C1394 H1374 0.950 . S
C1394 C1393 1.414 . S
C1394 C1395 1.374 . S
C1395 H1375 0.950 . S
C1395 C1391 1.385 . S
C1395 C1394 1.374 . S
C1396 C1393 1.499 . S
C1396 C1397 1.373 . S
C1396 C1398 1.389 . S
C1397 H1376 0.950 . S
C1397 C1396 1.373 . S
C1397 C1413 1.377 . S
C1398 C1396 1.389 . S
C1398 C1399 1.524 . S
C1398 C1412 1.377 . S
C1399 C1398 1.524 . S
C1399 C1400 1.397 . S
C1399 C1404 1.363 . S
C1400 H1377 0.950 . S
C1400 C1399 1.397 . S
C1400 C1401 1.334 . S
C1401 H1378 0.950 . S
C1401 C1400 1.334 . S
C1401 C1402 1.287 . S
C1402 C1401 1.287 . S
C1402 C1403 1.524 . S
C1402 H1421 0.913 . S
C1403 H1379 0.950 . S
C1403 C1402 1.524 . S
C1403 C1404 1.415 . S
C1404 H1380 0.950 . S
C1404 C1399 1.363 . S
C1404 C1403 1.415 . S
C1405 H1381 0.951 . S
C1405 C1406 1.366 . S
C1405 C1407 1.388 . S
C1406 C1405 1.366 . S
C1406 C1410 1.385 . S
C1407 H1382 0.951 . S
C1407 C1405 1.388 . S
C1407 C1408 1.366 . S
C1408 C1407 1.366 . S
C1408 C1409 1.414 . S
C1408 C1411 1.499 . S
C1409 H1383 0.950 . S
C1409 C1408 1.414 . S
C1409 C1410 1.374 . S
C1410 H1384 0.950 . S
C1410 C1406 1.385 . S
C1410 C1409 1.374 . S
C1411 C1408 1.499 . S
C1411 C1412 1.373 . S
C1411 C1413 1.389 . S
C1412 H1385 0.950 . S
C1412 C1398 1.377 . S
C1412 C1411 1.373 . S
C1413 C1397 1.377 . S
C1413 C1411 1.389 . S
C1413 C1414 1.524 . S
C1414 C1413 1.524 . S
C1414 C1415 1.397 . S
C1414 C1419 1.363 . S
C1415 H1386 0.950 . S
C1415 C1414 1.397 . S
C1415 C1416 1.334 . S
C1416 H1387 0.950 . S
C1416 C1415 1.334 . S
C1416 C1417 1.287 . S
C1417 C1416 1.287 . S
C1417 C1418 1.524 . S
C1417 H1420 0.999 . S
C1418 H1388 0.950 . S
C1418 C1417 1.524 . S
C1418 C1419 1.415 . S
C1419 H1389 0.950 . S
C1419 C1414 1.363 . S
C1419 C1418 1.415 . S
H1420 C1417 0.999 . S
H1421 C1402 0.913 . S
H1422 C1440 0.951 . S
H1423 C1442 0.951 . S
H1424 C1444 0.950 . S
H1425 C1445 0.950 . S
H1426 C1447 0.950 . S
H1427 C1450 0.950 . S
H1428 C1451 0.950 . S
H1429 C1453 0.950 . S
H1430 C1454 0.950 . S
H1431 C1455 0.951 . S
H1432 C1457 0.951 . S
H1433 C1459 0.950 . S
H1434 C1460 0.950 . S
H1435 C1462 0.950 . S
H1436 C1465 0.950 . S
H1437 C1466 0.950 . S
H1438 C1468 0.950 . S
H1439 C1469 0.950 . S
C1440 H1422 0.951 . S
C1440 C1441 1.366 . S
C1440 C1442 1.388 . S
C1441 C1440 1.366 . S
C1441 C1445 1.385 . S
C1442 H1423 0.951 . S
C1442 C1440 1.388 . S
C1442 C1443 1.366 . S
C1443 C1442 1.366 . S
C1443 C1444 1.414 . S
C1443 C1446 1.499 . S
C1444 H1424 0.950 . S
C1444 C1443 1.414 . S
C1444 C1445 1.374 . S
C1445 H1425 0.950 . S
C1445 C1441 1.385 . S
C1445 C1444 1.374 . S
C1446 C1443 1.499 . S
C1446 C1447 1.373 . S
C1446 C1448 1.389 . S
C1447 H1426 0.950 . S
C1447 C1446 1.373 . S
C1447 C1463 1.377 . S
C1448 C1446 1.389 . S
C1448 C1449 1.524 . S
C1448 C1462 1.377 . S
C1449 C1448 1.524 . S
C1449 C1450 1.397 . S
C1449 C1454 1.363 . S
C1450 H1427 0.950 . S
C1450 C1449 1.397 . S
C1450 C1451 1.334 . S
C1451 H1428 0.950 . S
C1451 C1450 1.334 . S
C1451 C1452 1.287 . S
C1452 C1451 1.287 . S
C1452 C1453 1.524 . S
C1452 H1471 0.913 . S
C1453 H1429 0.950 . S
C1453 C1452 1.524 . S
C1453 C1454 1.415 . S
C1454 H1430 0.950 . S
C1454 C1449 1.363 . S
C1454 C1453 1.415 . S
C1455 H1431 0.951 . S
C1455 C1456 1.366 . S
C1455 C1457 1.388 . S
C1456 C1455 1.366 . S
C1456 C1460 1.385 . S
C1457 H1432 0.951 . S
C1457 C1455 1.388 . S
C1457 C1458 1.366 . S
C1458 C1457 1.366 . S
C1458 C1459 1.414 . S
C1458 C1461 1.499 . S
C1459 H1433 0.950 . S
C1459 C1458 1.414 . S
C1459 C1460 1.374 . S
C1460 H1434 0.950 . S
C1460 C1456 1.385 . S
C1460 C1459 1.374 . S
C1461 C1458 1.499 . S
C1461 C1462 1.373 . S
C1461 C1463 1.389 . S
C1462 H1435 0.950 . S
C1462 C1448 1.377 . S
C1462 C1461 1.373 . S
C1463 C1447 1.377 . S
C1463 C1461 1.389 . S
C1463 C1464 1.524 . S
C1464 C1463 1.524 . S
C1464 C1465 1.397 . S
C1464 C1469 1.363 . S
C1465 H1436 0.950 . S
C1465 C1464 1.397 . S
C1465 C1466 1.334 . S
C1466 H1437 0.950 . S
C1466 C1465 1.334 . S
C1466 C1467 1.287 . S
C1467 C1466 1.287 . S
C1467 C1468 1.524 . S
C1467 H1470 0.999 . S
C1468 H1438 0.950 . S
C1468 C1467 1.524 . S
C1468 C1469 1.415 . S
C1469 H1439 0.950 . S
C1469 C1464 1.363 . S
C1469 C1468 1.415 . S
H1470 C1467 0.999 . S
H1471 C1452 0.913 . S
H1472 C1490 0.951 . S
H1473 C1492 0.951 . S
H1474 C1494 0.950 . S
H1475 C1495 0.950 . S
H1476 C1497 0.950 . S
H1477 C1500 0.950 . S
H1478 C1501 0.950 . S
H1479 C1503 0.950 . S
H1480 C1504 0.950 . S
H1481 C1505 0.951 . S
H1482 C1507 0.951 . S
H1483 C1509 0.950 . S
H1484 C1510 0.950 . S
H1485 C1512 0.950 . S
H1486 C1515 0.950 . S
H1487 C1516 0.950 . S
H1488 C1518 0.950 . S
H1489 C1519 0.950 . S
C1490 H1472 0.951 . S
C1490 C1491 1.366 . S
C1490 C1492 1.388 . S
C1491 C1490 1.366 . S
C1491 C1495 1.385 . S
C1492 H1473 0.951 . S
C1492 C1490 1.388 . S
C1492 C1493 1.366 . S
C1493 C1492 1.366 . S
C1493 C1494 1.414 . S
C1493 C1496 1.499 . S
C1494 H1474 0.950 . S
C1494 C1493 1.414 . S
C1494 C1495 1.374 . S
C1495 H1475 0.950 . S
C1495 C1491 1.385 . S
C1495 C1494 1.374 . S
C1496 C1493 1.499 . S
C1496 C1497 1.373 . S
C1496 C1498 1.389 . S
C1497 H1476 0.950 . S
C1497 C1496 1.373 . S
C1497 C1513 1.377 . S
C1498 C1496 1.389 . S
C1498 C1499 1.524 . S
C1498 C1512 1.377 . S
C1499 C1498 1.524 . S
C1499 C1500 1.397 . S
C1499 C1504 1.363 . S
C1500 H1477 0.950 . S
C1500 C1499 1.397 . S
C1500 C1501 1.334 . S
C1501 H1478 0.950 . S
C1501 C1500 1.334 . S
C1501 C1502 1.287 . S
C1502 C1501 1.287 . S
C1502 C1503 1.524 . S
C1502 H1521 0.883 1_565 S
C1503 H1479 0.950 . S
C1503 C1502 1.524 . S
C1503 C1504 1.415 . S
C1504 H1480 0.950 . S
C1504 C1499 1.363 . S
C1504 C1503 1.415 . S
C1505 H1481 0.951 . S
C1505 C1506 1.366 . S
C1505 C1507 1.388 . S
C1506 C1505 1.366 . S
C1506 C1510 1.385 . S
C1507 H1482 0.951 . S
C1507 C1505 1.388 . S
C1507 C1508 1.366 . S
C1508 C1507 1.366 . S
C1508 C1509 1.414 . S
C1508 C1511 1.499 . S
C1509 H1483 0.950 . S
C1509 C1508 1.414 . S
C1509 C1510 1.374 . S
C1510 H1484 0.950 . S
C1510 C1506 1.385 . S
C1510 C1509 1.374 . S
C1511 C1508 1.499 . S
C1511 C1512 1.373 . S
C1511 C1513 1.389 . S
C1512 H1485 0.950 . S
C1512 C1498 1.377 . S
C1512 C1511 1.373 . S
C1513 C1497 1.377 . S
C1513 C1511 1.389 . S
C1513 C1514 1.524 . S
C1514 C1513 1.524 . S
C1514 C1515 1.397 . S
C1514 C1519 1.363 . S
C1515 H1486 0.950 . S
C1515 C1514 1.397 . S
C1515 C1516 1.334 . S
C1516 H1487 0.950 . S
C1516 C1515 1.334 . S
C1516 C1517 1.287 . S
C1517 C1516 1.287 . S
C1517 C1518 1.524 . S
C1517 H1520 0.999 . S
C1518 H1488 0.950 . S
C1518 C1517 1.524 . S
C1518 C1519 1.415 . S
C1519 H1489 0.950 . S
C1519 C1514 1.363 . S
C1519 C1518 1.415 . S
H1520 C1517 0.999 . S
H1521 C1502 0.883 1_545 S
H1522 C1540 0.951 . S
H1523 C1542 0.951 . S
H1524 C1544 0.950 . S
H1525 C1545 0.950 . S
H1526 C1547 0.950 . S
H1527 C1550 0.950 . S
H1528 C1551 0.950 . S
H1529 C1553 0.950 . S
H1530 C1554 0.950 . S
H1531 C1555 0.951 . S
H1532 C1557 0.951 . S
H1533 C1559 0.950 . S
H1534 C1560 0.950 . S
H1535 C1562 0.950 . S
H1536 C1565 0.950 . S
H1537 C1566 0.950 . S
H1538 C1568 0.950 . S
H1539 C1569 0.950 . S
C1540 H1522 0.951 . S
C1540 C1541 1.366 . S
C1540 C1542 1.388 . S
C1541 C1540 1.366 . S
C1541 C1545 1.385 . S
C1542 H1523 0.951 . S
C1542 C1540 1.388 . S
C1542 C1543 1.366 . S
C1543 C1542 1.366 . S
C1543 C1544 1.414 . S
C1543 C1546 1.499 . S
C1544 H1524 0.950 . S
C1544 C1543 1.414 . S
C1544 C1545 1.374 . S
C1545 H1525 0.950 . S
C1545 C1541 1.385 . S
C1545 C1544 1.374 . S
C1546 C1543 1.499 . S
C1546 C1547 1.373 . S
C1546 C1548 1.389 . S
C1547 H1526 0.950 . S
C1547 C1546 1.373 . S
C1547 C1563 1.377 . S
C1548 C1546 1.389 . S
C1548 C1549 1.524 . S
C1548 C1562 1.377 . S
C1549 C1548 1.524 . S
C1549 C1550 1.397 . S
C1549 C1554 1.363 . S
C1550 H1527 0.950 . S
C1550 C1549 1.397 . S
C1550 C1551 1.334 . S
C1551 H1528 0.950 . S
C1551 C1550 1.334 . S
C1551 C1552 1.287 . S
C1552 C1551 1.287 . S
C1552 C1553 1.524 . S
C1552 H1571 0.913 . S
C1553 H1529 0.950 . S
C1553 C1552 1.524 . S
C1553 C1554 1.415 . S
C1554 H1530 0.950 . S
C1554 C1549 1.363 . S
C1554 C1553 1.415 . S
C1555 H1531 0.951 . S
C1555 C1556 1.366 . S
C1555 C1557 1.388 . S
C1556 C1555 1.366 . S
C1556 C1560 1.385 . S
C1557 H1532 0.951 . S
C1557 C1555 1.388 . S
C1557 C1558 1.366 . S
C1558 C1557 1.366 . S
C1558 C1559 1.414 . S
C1558 C1561 1.499 . S
C1559 H1533 0.950 . S
C1559 C1558 1.414 . S
C1559 C1560 1.374 . S
C1560 H1534 0.950 . S
C1560 C1556 1.385 . S
C1560 C1559 1.374 . S
C1561 C1558 1.499 . S
C1561 C1562 1.373 . S
C1561 C1563 1.389 . S
C1562 H1535 0.950 . S
C1562 C1548 1.377 . S
C1562 C1561 1.373 . S
C1563 C1547 1.377 . S
C1563 C1561 1.389 . S
C1563 C1564 1.524 . S
C1564 C1563 1.524 . S
C1564 C1565 1.397 . S
C1564 C1569 1.363 . S
C1565 H1536 0.950 . S
C1565 C1564 1.397 . S
C1565 C1566 1.334 . S
C1566 H1537 0.950 . S
C1566 C1565 1.334 . S
C1566 C1567 1.287 . S
C1567 C1566 1.287 . S
C1567 C1568 1.524 . S
C1567 H1570 0.999 . S
C1568 H1538 0.950 . S
C1568 C1567 1.524 . S
C1568 C1569 1.415 . S
C1569 H1539 0.950 . S
C1569 C1564 1.363 . S
C1569 C1568 1.415 . S
H1570 C1567 0.999 . S
H1571 C1552 0.913 . S
H1572 C1590 0.951 . S
H1573 C1592 0.951 . S
H1574 C1594 0.950 . S
H1575 C1595 0.950 . S
H1576 C1597 0.950 . S
H1577 C1600 0.950 . S
H1578 C1601 0.950 . S
H1579 C1603 0.950 . S
H1580 C1604 0.950 . S
H1581 C1605 0.951 . S
H1582 C1607 0.951 . S
H1583 C1609 0.950 . S
H1584 C1610 0.950 . S
H1585 C1612 0.950 . S
H1586 C1615 0.950 . S
H1587 C1616 0.950 . S
H1588 C1618 0.950 . S
H1589 C1619 0.950 . S
C1590 H1572 0.951 . S
C1590 C1591 1.366 . S
C1590 C1592 1.388 . S
C1591 C1590 1.366 . S
C1591 C1595 1.385 . S
C1592 H1573 0.951 . S
C1592 C1590 1.388 . S
C1592 C1593 1.366 . S
C1593 C1592 1.366 . S
C1593 C1594 1.414 . S
C1593 C1596 1.499 . S
C1594 H1574 0.950 . S
C1594 C1593 1.414 . S
C1594 C1595 1.374 . S
C1595 H1575 0.950 . S
C1595 C1591 1.385 . S
C1595 C1594 1.374 . S
C1596 C1593 1.499 . S
C1596 C1597 1.373 . S
C1596 C1598 1.389 . S
C1597 H1576 0.950 . S
C1597 C1596 1.373 . S
C1597 C1613 1.377 1_545 S
C1598 C1596 1.389 . S
C1598 C1599 1.524 . S
C1598 C1612 1.377 1_545 S
C1599 C1598 1.524 . S
C1599 C1600 1.397 . S
C1599 C1604 1.363 . S
C1600 H1577 0.950 . S
C1600 C1599 1.397 . S
C1600 C1601 1.334 . S
C1601 H1578 0.950 . S
C1601 C1600 1.334 . S
C1601 C1602 1.287 . S
C1602 C1601 1.287 . S
C1602 C1603 1.524 . S
C1602 H1621 0.913 . S
C1603 H1579 0.950 . S
C1603 C1602 1.524 . S
C1603 C1604 1.415 . S
C1604 H1580 0.950 . S
C1604 C1599 1.363 . S
C1604 C1603 1.415 . S
C1605 H1581 0.951 . S
C1605 C1606 1.366 . S
C1605 C1607 1.388 . S
C1606 C1605 1.366 . S
C1606 C1610 1.385 . S
C1607 H1582 0.951 . S
C1607 C1605 1.388 . S
C1607 C1608 1.366 . S
C1608 C1607 1.366 . S
C1608 C1609 1.414 . S
C1608 C1611 1.499 . S
C1609 H1583 0.950 . S
C1609 C1608 1.414 . S
C1609 C1610 1.374 . S
C1610 H1584 0.950 . S
C1610 C1606 1.385 . S
C1610 C1609 1.374 . S
C1611 C1608 1.499 . S
C1611 C1612 1.373 . S
C1611 C1613 1.389 . S
C1612 H1585 0.950 . S
C1612 C1598 1.377 1_565 S
C1612 C1611 1.373 . S
C1613 C1597 1.377 1_565 S
C1613 C1611 1.389 . S
C1613 C1614 1.524 . S
C1614 C1613 1.524 . S
C1614 C1615 1.397 . S
C1614 C1619 1.363 . S
C1615 H1586 0.950 . S
C1615 C1614 1.397 . S
C1615 C1616 1.334 . S
C1616 H1587 0.950 . S
C1616 C1615 1.334 . S
C1616 C1617 1.287 . S
C1617 C1616 1.287 . S
C1617 C1618 1.524 . S
C1617 H1620 0.999 . S
C1618 H1588 0.950 . S
C1618 C1617 1.524 . S
C1618 C1619 1.415 . S
C1619 H1589 0.950 . S
C1619 C1614 1.363 . S
C1619 C1618 1.415 . S
H1620 C1617 0.999 . S
H1621 C1602 0.913 . S
H1622 C1640 0.951 . S
H1623 C1642 0.951 . S
H1624 C1644 0.950 . S
H1625 C1645 0.950 . S
H1626 C1647 0.950 . S
H1627 C1650 0.950 . S
H1628 C1651 0.950 . S
H1629 C1653 0.950 . S
H1630 C1654 0.950 . S
H1631 C1655 0.951 . S
H1632 C1657 0.951 . S
H1633 C1659 0.950 . S
H1634 C1660 0.950 . S
H1635 C1662 0.950 . S
H1636 C1665 0.950 . S
H1637 C1666 0.950 . S
H1638 C1668 0.950 . S
H1639 C1669 0.950 . S
C1640 H1622 0.951 . S
C1640 C1641 1.366 . S
C1640 C1642 1.388 . S
C1641 C1640 1.366 . S
C1641 C1645 1.385 . S
C1642 H1623 0.951 . S
C1642 C1640 1.388 . S
C1642 C1643 1.366 . S
C1643 C1642 1.366 . S
C1643 C1644 1.414 . S
C1643 C1646 1.499 . S
C1644 H1624 0.950 . S
C1644 C1643 1.414 . S
C1644 C1645 1.374 . S
C1645 H1625 0.950 . S
C1645 C1641 1.385 . S
C1645 C1644 1.374 . S
C1646 C1643 1.499 . S
C1646 C1647 1.373 1_655 S
C1646 C1648 1.389 . S
C1647 H1626 0.950 . S
C1647 C1646 1.373 1_455 S
C1647 C1663 1.377 . S
C1648 C1646 1.389 . S
C1648 C1649 1.524 . S
C1648 C1662 1.377 1_655 S
C1649 C1648 1.524 . S
C1649 C1650 1.397 . S
C1649 C1654 1.363 . S
C1650 H1627 0.950 . S
C1650 C1649 1.397 . S
C1650 C1651 1.334 . S
C1651 H1628 0.950 . S
C1651 C1650 1.334 . S
C1651 C1652 1.287 . S
C1652 C1651 1.287 . S
C1652 C1653 1.524 . S
C1652 H1671 0.913 . S
C1653 H1629 0.950 . S
C1653 C1652 1.524 . S
C1653 C1654 1.415 . S
C1654 H1630 0.950 . S
C1654 C1649 1.363 . S
C1654 C1653 1.415 . S
C1655 H1631 0.951 . S
C1655 C1656 1.366 . S
C1655 C1657 1.388 . S
C1656 C1655 1.366 . S
C1656 C1660 1.385 . S
C1657 H1632 0.951 . S
C1657 C1655 1.388 . S
C1657 C1658 1.366 . S
C1658 C1657 1.366 . S
C1658 C1659 1.414 . S
C1658 C1661 1.499 . S
C1659 H1633 0.950 . S
C1659 C1658 1.414 . S
C1659 C1660 1.374 . S
C1660 H1634 0.950 . S
C1660 C1656 1.385 . S
C1660 C1659 1.374 . S
C1661 C1658 1.499 . S
C1661 C1662 1.373 . S
C1661 C1663 1.389 . S
C1662 H1635 0.950 . S
C1662 C1648 1.377 1_455 S
C1662 C1661 1.373 . S
C1663 C1647 1.377 . S
C1663 C1661 1.389 . S
C1663 C1664 1.524 . S
C1664 C1663 1.524 . S
C1664 C1665 1.397 . S
C1664 C1669 1.363 . S
C1665 H1636 0.950 . S
C1665 C1664 1.397 . S
C1665 C1666 1.334 . S
C1666 H1637 0.950 . S
C1666 C1665 1.334 . S
C1666 C1667 1.287 . S
C1667 C1666 1.287 . S
C1667 C1668 1.524 . S
C1667 H1670 0.999 . S
C1668 H1638 0.950 . S
C1668 C1667 1.524 . S
C1668 C1669 1.415 . S
C1669 H1639 0.950 . S
C1669 C1664 1.363 . S
C1669 C1668 1.415 . S
H1670 C1667 0.999 . S
H1671 C1652 0.913 . S
H1672 C1690 0.951 . S
H1673 C1692 0.951 . S
H1674 C1694 0.950 . S
H1675 C1695 0.950 . S
H1676 C1697 0.950 . S
H1677 C1700 0.950 . S
H1678 C1701 0.950 . S
H1679 C1703 0.950 . S
H1680 C1704 0.950 . S
H1681 C1705 0.951 . S
H1682 C1707 0.951 . S
H1683 C1709 0.950 . S
H1684 C1710 0.950 . S
H1685 C1712 0.950 . S
H1686 C1715 0.950 . S
H1687 C1716 0.950 . S
H1688 C1718 0.950 . S
H1689 C1719 0.950 . S
C1690 H1672 0.951 . S
C1690 C1691 1.366 . S
C1690 C1692 1.388 . S
C1691 C1690 1.366 . S
C1691 C1695 1.385 . S
C1692 H1673 0.951 . S
C1692 C1690 1.388 . S
C1692 C1693 1.366 . S
C1693 C1692 1.366 . S
C1693 C1694 1.414 . S
C1693 C1696 1.499 . S
C1694 H1674 0.950 . S
C1694 C1693 1.414 . S
C1694 C1695 1.374 . S
C1695 H1675 0.950 . S
C1695 C1691 1.385 . S
C1695 C1694 1.374 . S
C1696 C1693 1.499 . S
C1696 C1697 1.373 . S
C1696 C1698 1.389 . S
C1697 H1676 0.950 . S
C1697 C1696 1.373 . S
C1697 C1713 1.377 . S
C1698 C1696 1.389 . S
C1698 C1699 1.524 . S
C1698 C1712 1.377 . S
C1699 C1698 1.524 . S
C1699 C1700 1.397 . S
C1699 C1704 1.363 . S
C1700 H1677 0.950 . S
C1700 C1699 1.397 . S
C1700 C1701 1.334 . S
C1701 H1678 0.950 . S
C1701 C1700 1.334 . S
C1701 C1702 1.287 . S
C1702 C1701 1.287 . S
C1702 C1703 1.524 . S
C1702 H1721 0.913 . S
C1703 H1679 0.950 . S
C1703 C1702 1.524 . S
C1703 C1704 1.415 . S
C1704 H1680 0.950 . S
C1704 C1699 1.363 . S
C1704 C1703 1.415 . S
C1705 H1681 0.951 . S
C1705 C1706 1.366 . S
C1705 C1707 1.388 . S
C1706 C1705 1.366 . S
C1706 C1710 1.385 . S
C1707 H1682 0.951 . S
C1707 C1705 1.388 . S
C1707 C1708 1.366 . S
C1708 C1707 1.366 . S
C1708 C1709 1.414 . S
C1708 C1711 1.499 . S
C1709 H1683 0.950 . S
C1709 C1708 1.414 . S
C1709 C1710 1.374 . S
C1710 H1684 0.950 . S
C1710 C1706 1.385 . S
C1710 C1709 1.374 . S
C1711 C1708 1.499 . S
C1711 C1712 1.373 . S
C1711 C1713 1.389 . S
C1712 H1685 0.950 . S
C1712 C1698 1.377 . S
C1712 C1711 1.373 . S
C1713 C1697 1.377 . S
C1713 C1711 1.389 . S
C1713 C1714 1.524 . S
C1714 C1713 1.524 . S
C1714 C1715 1.397 . S
C1714 C1719 1.363 . S
C1715 H1686 0.950 . S
C1715 C1714 1.397 . S
C1715 C1716 1.334 . S
C1716 H1687 0.950 . S
C1716 C1715 1.334 . S
C1716 C1717 1.287 . S
C1717 C1716 1.287 . S
C1717 C1718 1.524 . S
C1717 H1720 0.999 . S
C1718 H1688 0.950 . S
C1718 C1717 1.524 . S
C1718 C1719 1.415 . S
C1719 H1689 0.950 . S
C1719 C1714 1.363 . S
C1719 C1718 1.415 . S
H1720 C1717 0.999 . S
H1721 C1702 0.913 . S
H1722 C1740 0.951 . S
H1723 C1742 0.951 . S
H1724 C1744 0.950 . S
H1725 C1745 0.950 . S
H1726 C1747 0.950 . S
H1727 C1750 0.950 . S
H1728 C1751 0.950 . S
H1729 C1753 0.950 . S
H1730 C1754 0.950 . S
H1731 C1755 0.951 . S
H1732 C1757 0.951 . S
H1733 C1759 0.950 . S
H1734 C1760 0.950 . S
H1735 C1762 0.950 . S
H1736 C1765 0.950 . S
H1737 C1766 0.950 . S
H1738 C1768 0.950 . S
H1739 C1769 0.950 . S
C1740 H1722 0.951 . S
C1740 C1741 1.366 . S
C1740 C1742 1.388 . S
C1741 C1740 1.366 . S
C1741 C1745 1.385 . S
C1742 H1723 0.951 . S
C1742 C1740 1.388 . S
C1742 C1743 1.366 . S
C1743 C1742 1.366 . S
C1743 C1744 1.414 . S
C1743 C1746 1.499 . S
C1744 H1724 0.950 . S
C1744 C1743 1.414 . S
C1744 C1745 1.374 . S
C1745 H1725 0.950 . S
C1745 C1741 1.385 . S
C1745 C1744 1.374 . S
C1746 C1743 1.499 . S
C1746 C1747 1.373 . S
C1746 C1748 1.389 . S
C1747 H1726 0.950 . S
C1747 C1746 1.373 . S
C1747 C1763 1.377 . S
C1748 C1746 1.389 . S
C1748 C1749 1.524 . S
C1748 C1762 1.377 . S
C1749 C1748 1.524 . S
C1749 C1750 1.397 . S
C1749 C1754 1.363 . S
C1750 H1727 0.950 . S
C1750 C1749 1.397 . S
C1750 C1751 1.334 . S
C1751 H1728 0.950 . S
C1751 C1750 1.334 . S
C1751 C1752 1.287 . S
C1752 C1751 1.287 . S
C1752 C1753 1.524 . S
C1752 H1771 0.913 . S
C1753 H1729 0.950 . S
C1753 C1752 1.524 . S
C1753 C1754 1.415 . S
C1754 H1730 0.950 . S
C1754 C1749 1.363 . S
C1754 C1753 1.415 . S
C1755 H1731 0.951 . S
C1755 C1756 1.366 . S
C1755 C1757 1.388 . S
C1756 C1755 1.366 . S
C1756 C1760 1.385 . S
C1757 H1732 0.951 . S
C1757 C1755 1.388 . S
C1757 C1758 1.366 . S
C1758 C1757 1.366 . S
C1758 C1759 1.414 . S
C1758 C1761 1.499 . S
C1759 H1733 0.950 . S
C1759 C1758 1.414 . S
C1759 C1760 1.374 . S
C1760 H1734 0.950 . S
C1760 C1756 1.385 . S
C1760 C1759 1.374 . S
C1761 C1758 1.499 . S
C1761 C1762 1.373 . S
C1761 C1763 1.389 . S
C1762 H1735 0.950 . S
C1762 C1748 1.377 . S
C1762 C1761 1.373 . S
C1763 C1747 1.377 . S
C1763 C1761 1.389 . S
C1763 C1764 1.524 . S
C1764 C1763 1.524 . S
C1764 C1765 1.397 . S
C1764 C1769 1.363 . S
C1765 H1736 0.950 . S
C1765 C1764 1.397 . S
C1765 C1766 1.334 . S
C1766 H1737 0.950 . S
C1766 C1765 1.334 . S
C1766 C1767 1.287 . S
C1767 C1766 1.287 . S
C1767 C1768 1.524 . S
C1767 H1770 0.999 . S
C1768 H1738 0.950 . S
C1768 C1767 1.524 . S
C1768 C1769 1.415 . S
C1769 H1739 0.950 . S
C1769 C1764 1.363 . S
C1769 C1768 1.415 . S
H1770 C1767 0.999 . S
H1771 C1752 0.913 . S
H1772 C1790 0.951 . S
H1773 C1792 0.951 . S
H1774 C1794 0.950 . S
H1775 C1795 0.950 . S
H1776 C1797 0.950 . S
H1777 C1800 0.950 . S
H1778 C1801 0.950 . S
H1779 C1803 0.950 . S
H1780 C1804 0.950 . S
H1781 C1805 0.951 . S
H1782 C1807 0.951 . S
H1783 C1809 0.950 . S
H1784 C1810 0.950 . S
H1785 C1812 0.950 . S
H1786 C1815 0.950 . S
H1787 C1816 0.950 . S
H1788 C1818 0.950 . S
H1789 C1819 0.950 . S
C1790 H1772 0.951 . S
C1790 C1791 1.366 . S
C1790 C1792 1.388 . S
C1791 C1790 1.366 . S
C1791 C1795 1.385 . S
C1792 H1773 0.951 . S
C1792 C1790 1.388 . S
C1792 C1793 1.366 . S
C1793 C1792 1.366 . S
C1793 C1794 1.414 . S
C1793 C1796 1.499 . S
C1794 H1774 0.950 . S
C1794 C1793 1.414 . S
C1794 C1795 1.374 . S
C1795 H1775 0.950 . S
C1795 C1791 1.385 . S
C1795 C1794 1.374 . S
C1796 C1793 1.499 . S
C1796 C1797 1.373 . S
C1796 C1798 1.389 . S
C1797 H1776 0.950 . S
C1797 C1796 1.373 . S
C1797 C1813 1.377 . S
C1798 C1796 1.389 . S
C1798 C1799 1.524 . S
C1798 C1812 1.377 . S
C1799 C1798 1.524 . S
C1799 C1800 1.397 . S
C1799 C1804 1.363 . S
C1800 H1777 0.950 . S
C1800 C1799 1.397 . S
C1800 C1801 1.334 . S
C1801 H1778 0.950 . S
C1801 C1800 1.334 . S
C1801 C1802 1.287 . S
C1802 C1801 1.287 . S
C1802 C1803 1.524 . S
C1802 H1821 0.913 . S
C1803 H1779 0.950 . S
C1803 C1802 1.524 . S
C1803 C1804 1.415 . S
C1804 H1780 0.950 . S
C1804 C1799 1.363 . S
C1804 C1803 1.415 . S
C1805 H1781 0.951 . S
C1805 C1806 1.366 . S
C1805 C1807 1.388 . S
C1806 C1805 1.366 . S
C1806 C1810 1.385 . S
C1807 H1782 0.951 . S
C1807 C1805 1.388 . S
C1807 C1808 1.366 . S
C1808 C1807 1.366 . S
C1808 C1809 1.414 . S
C1808 C1811 1.499 . S
C1809 H1783 0.950 . S
C1809 C1808 1.414 . S
C1809 C1810 1.374 . S
C1810 H1784 0.950 . S
C1810 C1806 1.385 . S
C1810 C1809 1.374 . S
C1811 C1808 1.499 . S
C1811 C1812 1.373 . S
C1811 C1813 1.389 . S
C1812 H1785 0.950 . S
C1812 C1798 1.377 . S
C1812 C1811 1.373 . S
C1813 C1797 1.377 . S
C1813 C1811 1.389 . S
C1813 C1814 1.524 . S
C1814 C1813 1.524 . S
C1814 C1815 1.397 . S
C1814 C1819 1.363 . S
C1815 H1786 0.950 . S
C1815 C1814 1.397 . S
C1815 C1816 1.334 . S
C1816 H1787 0.950 . S
C1816 C1815 1.334 . S
C1816 C1817 1.287 . S
C1817 C1816 1.287 . S
C1817 C1818 1.524 . S
C1817 H1820 0.999 . S
C1818 H1788 0.950 . S
C1818 C1817 1.524 . S
C1818 C1819 1.415 . S
C1819 H1789 0.950 . S
C1819 C1814 1.363 . S
C1819 C1818 1.415 . S
H1820 C1817 0.999 . S
H1821 C1802 0.913 . S
H1822 C1840 0.951 . S
H1823 C1842 0.951 . S
H1824 C1844 0.950 . S
H1825 C1845 0.950 . S
H1826 C1847 0.950 . S
H1827 C1850 0.950 . S
H1828 C1851 0.950 . S
H1829 C1853 0.950 . S
H1830 C1854 0.950 . S
H1831 C1855 0.951 . S
H1832 C1857 0.951 . S
H1833 C1859 0.950 . S
H1834 C1860 0.950 . S
H1835 C1862 0.950 . S
H1836 C1865 0.950 . S
H1837 C1866 0.950 . S
H1838 C1868 0.950 . S
H1839 C1869 0.950 . S
C1840 H1822 0.951 . S
C1840 C1841 1.366 . S
C1840 C1842 1.388 . S
C1841 C1840 1.366 . S
C1841 C1845 1.385 . S
C1842 H1823 0.951 . S
C1842 C1840 1.388 . S
C1842 C1843 1.366 . S
C1843 C1842 1.366 . S
C1843 C1844 1.414 . S
C1843 C1846 1.499 . S
C1844 H1824 0.950 . S
C1844 C1843 1.414 . S
C1844 C1845 1.374 . S
C1845 H1825 0.950 . S
C1845 C1841 1.385 . S
C1845 C1844 1.374 . S
C1846 C1843 1.499 . S
C1846 C1847 1.373 . S
C1846 C1848 1.389 . S
C1847 H1826 0.950 . S
C1847 C1846 1.373 . S
C1847 C1863 1.377 . S
C1848 C1846 1.389 . S
C1848 C1849 1.524 . S
C1848 C1862 1.377 . S
C1849 C1848 1.524 . S
C1849 C1850 1.397 . S
C1849 C1854 1.363 . S
C1850 H1827 0.950 . S
C1850 C1849 1.397 . S
C1850 C1851 1.334 . S
C1851 H1828 0.950 . S
C1851 C1850 1.334 . S
C1851 C1852 1.287 . S
C1852 C1851 1.287 . S
C1852 C1853 1.524 . S
C1852 H1871 0.913 . S
C1853 H1829 0.950 . S
C1853 C1852 1.524 . S
C1853 C1854 1.415 . S
C1854 H1830 0.950 . S
C1854 C1849 1.363 . S
C1854 C1853 1.415 . S
C1855 H1831 0.951 . S
C1855 C1856 1.366 . S
C1855 C1857 1.388 . S
C1856 C1855 1.366 . S
C1856 C1860 1.385 . S
C1857 H1832 0.951 . S
C1857 C1855 1.388 . S
C1857 C1858 1.366 . S
C1858 C1857 1.366 . S
C1858 C1859 1.414 . S
C1858 C1861 1.499 . S
C1859 H1833 0.950 . S
C1859 C1858 1.414 . S
C1859 C1860 1.374 . S
C1860 H1834 0.950 . S
C1860 C1856 1.385 . S
C1860 C1859 1.374 . S
C1861 C1858 1.499 . S
C1861 C1862 1.373 . S
C1861 C1863 1.389 . S
C1862 H1835 0.950 . S
C1862 C1848 1.377 . S
C1862 C1861 1.373 . S
C1863 C1847 1.377 . S
C1863 C1861 1.389 . S
C1863 C1864 1.524 . S
C1864 C1863 1.524 . S
C1864 C1865 1.397 . S
C1864 C1869 1.363 . S
C1865 H1836 0.950 . S
C1865 C1864 1.397 . S
C1865 C1866 1.334 . S
C1866 H1837 0.950 . S
C1866 C1865 1.334 . S
C1866 C1867 1.287 . S
C1867 C1866 1.287 . S
C1867 C1868 1.524 . S
C1867 H1870 0.999 . S
C1868 H1838 0.950 . S
C1868 C1867 1.524 . S
C1868 C1869 1.415 . S
C1869 H1839 0.950 . S
C1869 C1864 1.363 . S
C1869 C1868 1.415 . S
H1870 C1867 0.999 . S
H1871 C1852 0.913 . S
H1872 C1890 0.951 . S
H1873 C1892 0.951 . S
H1874 C1894 0.950 . S
H1875 C1895 0.950 . S
H1876 C1897 0.950 . S
H1877 C1900 0.950 . S
H1878 C1901 0.950 . S
H1879 C1903 0.950 . S
H1880 C1904 0.950 . S
H1881 C1905 0.951 . S
H1882 C1907 0.951 . S
H1883 C1909 0.950 . S
H1884 C1910 0.950 . S
H1885 C1912 0.950 . S
H1886 C1915 0.950 . S
H1887 C1916 0.950 . S
H1888 C1918 0.950 . S
H1889 C1919 0.950 . S
C1890 H1872 0.951 . S
C1890 C1891 1.366 . S
C1890 C1892 1.388 . S
C1891 C1890 1.366 . S
C1891 C1895 1.385 . S
C1892 H1873 0.951 . S
C1892 C1890 1.388 . S
C1892 C1893 1.366 . S
C1893 C1892 1.366 . S
C1893 C1894 1.414 . S
C1893 C1896 1.499 . S
C1894 H1874 0.950 . S
C1894 C1893 1.414 . S
C1894 C1895 1.374 . S
C1895 H1875 0.950 . S
C1895 C1891 1.385 . S
C1895 C1894 1.374 . S
C1896 C1893 1.499 . S
C1896 C1897 1.373 . S
C1896 C1898 1.389 . S
C1897 H1876 0.950 . S
C1897 C1896 1.373 . S
C1897 C1913 1.377 1_565 S
C1898 C1896 1.389 . S
C1898 C1899 1.524 . S
C1898 C1912 1.377 1_565 S
C1899 C1898 1.524 . S
C1899 C1900 1.397 . S
C1899 C1904 1.363 . S
C1900 H1877 0.950 . S
C1900 C1899 1.397 . S
C1900 C1901 1.334 . S
C1901 H1878 0.950 . S
C1901 C1900 1.334 . S
C1901 C1902 1.287 . S
C1902 C1901 1.287 . S
C1902 C1903 1.524 . S
C1902 H1921 0.913 . S
C1903 H1879 0.950 . S
C1903 C1902 1.524 . S
C1903 C1904 1.415 . S
C1904 H1880 0.950 . S
C1904 C1899 1.363 . S
C1904 C1903 1.415 . S
C1905 H1881 0.951 . S
C1905 C1906 1.366 . S
C1905 C1907 1.388 . S
C1906 C1905 1.366 . S
C1906 C1910 1.385 . S
C1907 H1882 0.951 . S
C1907 C1905 1.388 . S
C1907 C1908 1.366 . S
C1908 C1907 1.366 . S
C1908 C1909 1.414 . S
C1908 C1911 1.499 . S
C1909 H1883 0.950 . S
C1909 C1908 1.414 . S
C1909 C1910 1.374 . S
C1910 H1884 0.950 . S
C1910 C1906 1.385 . S
C1910 C1909 1.374 . S
C1911 C1908 1.499 . S
C1911 C1912 1.373 . S
C1911 C1913 1.389 . S
C1912 H1885 0.950 . S
C1912 C1898 1.377 1_545 S
C1912 C1911 1.373 . S
C1913 C1897 1.377 1_545 S
C1913 C1911 1.389 . S
C1913 C1914 1.524 . S
C1914 C1913 1.524 . S
C1914 C1915 1.397 . S
C1914 C1919 1.363 . S
C1915 H1886 0.950 . S
C1915 C1914 1.397 . S
C1915 C1916 1.334 . S
C1916 H1887 0.950 . S
C1916 C1915 1.334 . S
C1916 C1917 1.287 . S
C1917 C1916 1.287 . S
C1917 C1918 1.524 . S
C1917 H1920 0.999 . S
C1918 H1888 0.950 . S
C1918 C1917 1.524 . S
C1918 C1919 1.415 . S
C1919 H1889 0.950 . S
C1919 C1914 1.363 . S
C1919 C1918 1.415 . S
H1920 C1917 0.999 . S
H1921 C1902 0.913 . S
H1922 C1940 0.951 . S
H1923 C1942 0.951 . S
H1924 C1944 0.950 . S
H1925 C1945 0.950 . S
H1926 C1947 0.950 . S
H1927 C1950 0.950 . S
H1928 C1951 0.950 . S
H1929 C1953 0.950 . S
H1930 C1954 0.950 . S
H1931 C1955 0.951 . S
H1932 C1957 0.951 . S
H1933 C1959 0.950 . S
H1934 C1960 0.950 . S
H1935 C1962 0.950 . S
H1936 C1965 0.950 . S
H1937 C1966 0.950 . S
H1938 C1968 0.950 1_455 S
H1939 C1969 0.937 1_455 S
C1940 H1922 0.951 . S
C1940 C1941 1.366 . S
C1940 C1942 1.388 . S
C1941 C1940 1.366 . S
C1941 C1945 1.385 . S
C1942 H1923 0.951 . S
C1942 C1940 1.388 . S
C1942 C1943 1.366 . S
C1943 C1942 1.366 . S
C1943 C1944 1.414 . S
C1943 C1946 1.499 . S
C1944 H1924 0.950 . S
C1944 C1943 1.414 . S
C1944 C1945 1.374 . S
C1945 H1925 0.950 . S
C1945 C1941 1.385 . S
C1945 C1944 1.374 . S
C1946 C1943 1.499 . S
C1946 C1947 1.373 . S
C1946 C1948 1.389 1_455 S
C1947 H1926 0.950 . S
C1947 C1946 1.373 . S
C1947 C1963 1.377 1_455 S
C1948 C1946 1.389 1_655 S
C1948 C1949 1.524 . S
C1948 C1962 1.377 . S
C1949 C1948 1.524 . S
C1949 C1950 1.397 1_655 S
C1949 C1954 1.363 . S
C1950 H1927 0.950 . S
C1950 C1949 1.397 1_455 S
C1950 C1951 1.334 . S
C1951 H1928 0.950 . S
C1951 C1950 1.334 . S
C1951 C1952 1.287 1_455 S
C1952 C1951 1.287 1_655 S
C1952 C1953 1.524 . S
C1952 H1971 0.914 1_655 S
C1953 H1929 0.950 . S
C1953 C1952 1.524 . S
C1953 C1954 1.415 . S
C1954 H1930 0.950 . S
C1954 C1949 1.363 . S
C1954 C1953 1.415 . S
C1955 H1931 0.951 . S
C1955 C1956 1.366 . S
C1955 C1957 1.388 . S
C1956 C1955 1.366 . S
C1956 C1960 1.385 . S
C1957 H1932 0.951 . S
C1957 C1955 1.388 . S
C1957 C1958 1.366 . S
C1958 C1957 1.366 . S
C1958 C1959 1.414 . S
C1958 C1961 1.499 . S
C1959 H1933 0.950 . S
C1959 C1958 1.414 . S
C1959 C1960 1.374 . S
C1960 H1934 0.950 . S
C1960 C1956 1.385 . S
C1960 C1959 1.374 . S
C1961 C1958 1.499 . S
C1961 C1962 1.373 . S
C1961 C1963 1.389 . S
C1962 H1935 0.950 . S
C1962 C1948 1.377 . S
C1962 C1961 1.373 . S
C1963 C1947 1.377 1_655 S
C1963 C1961 1.389 . S
C1963 C1964 1.524 . S
C1964 C1963 1.524 . S
C1964 C1965 1.397 . S
C1964 C1969 1.385 . S
C1965 H1936 0.950 . S
C1965 C1964 1.397 . S
C1965 C1966 1.334 . S
C1966 H1937 0.950 . S
C1966 C1965 1.334 . S
C1966 C1967 1.287 . S
C1967 C1966 1.287 . S
C1967 C1968 1.524 . S
C1967 H1970 0.999 . S
C1968 H1938 0.950 1_655 S
C1968 C1967 1.524 . S
C1968 C1969 1.407 . S
C1969 H1939 0.937 1_655 S
C1969 C1964 1.385 . S
C1969 C1968 1.407 . S
H1970 C1967 0.999 . S
H1971 C1952 0.914 1_455 S
H1972 C1990 0.951 . S
H1973 C1992 0.951 . S
H1974 C1994 0.950 . S
H1975 C1995 0.950 . S
H1976 C1997 0.950 . S
H1977 C2000 0.950 . S
H1978 C2001 0.950 . S
H1979 C2003 0.950 . S
H1980 C2004 0.950 . S
H1981 C2005 0.951 . S
H1982 C2007 0.951 . S
H1983 C2009 0.950 . S
H1984 C2010 0.950 . S
H1985 C2012 0.950 . S
H1986 C2015 0.950 . S
H1987 C2016 0.950 . S
H1988 C2018 0.950 . S
H1989 C2019 0.950 . S
C1990 H1972 0.951 . S
C1990 C1991 1.366 . S
C1990 C1992 1.388 . S
C1991 C1990 1.366 . S
C1991 C1995 1.385 . S
C1992 H1973 0.951 . S
C1992 C1990 1.388 . S
C1992 C1993 1.366 . S
C1993 C1992 1.366 . S
C1993 C1994 1.414 . S
C1993 C1996 1.499 . S
C1994 H1974 0.950 . S
C1994 C1993 1.414 . S
C1994 C1995 1.374 . S
C1995 H1975 0.950 . S
C1995 C1991 1.385 . S
C1995 C1994 1.374 . S
C1996 C1993 1.499 . S
C1996 C1997 1.373 . S
C1996 C1998 1.389 . S
C1997 H1976 0.950 . S
C1997 C1996 1.373 . S
C1997 C2013 1.377 . S
C1998 C1996 1.389 . S
C1998 C1999 1.524 . S
C1998 C2012 1.377 . S
C1999 C1998 1.524 . S
C1999 C2000 1.397 . S
C1999 C2004 1.363 . S
C2000 H1977 0.950 . S
C2000 C1999 1.397 . S
C2000 C2001 1.334 . S
C2001 H1978 0.950 . S
C2001 C2000 1.334 . S
C2001 C2002 1.287 . S
C2002 C2001 1.287 . S
C2002 C2003 1.524 . S
C2002 H2021 0.913 . S
C2003 H1979 0.950 . S
C2003 C2002 1.524 . S
C2003 C2004 1.415 . S
C2004 H1980 0.950 . S
C2004 C1999 1.363 . S
C2004 C2003 1.415 . S
C2005 H1981 0.951 . S
C2005 C2006 1.366 . S
C2005 C2007 1.388 . S
C2006 C2005 1.366 . S
C2006 C2010 1.385 . S
C2007 H1982 0.951 . S
C2007 C2005 1.388 . S
C2007 C2008 1.366 . S
C2008 C2007 1.366 . S
C2008 C2009 1.414 . S
C2008 C2011 1.499 . S
C2009 H1983 0.950 . S
C2009 C2008 1.414 . S
C2009 C2010 1.374 . S
C2010 H1984 0.950 . S
C2010 C2006 1.385 . S
C2010 C2009 1.374 . S
C2011 C2008 1.499 . S
C2011 C2012 1.373 . S
C2011 C2013 1.389 . S
C2012 H1985 0.950 . S
C2012 C1998 1.377 . S
C2012 C2011 1.373 . S
C2013 C1997 1.377 . S
C2013 C2011 1.389 . S
C2013 C2014 1.524 . S
C2014 C2013 1.524 . S
C2014 C2015 1.397 . S
C2014 C2019 1.363 . S
C2015 H1986 0.950 . S
C2015 C2014 1.397 . S
C2015 C2016 1.334 . S
C2016 H1987 0.950 . S
C2016 C2015 1.334 . S
C2016 C2017 1.287 . S
C2017 C2016 1.287 . S
C2017 C2018 1.524 . S
C2017 H2020 0.999 . S
C2018 H1988 0.950 . S
C2018 C2017 1.524 . S
C2018 C2019 1.415 . S
C2019 H1989 0.950 . S
C2019 C2014 1.363 . S
C2019 C2018 1.415 . S
H2020 C2017 0.999 . S
H2021 C2002 0.913 . S
H2022 C2040 0.951 . S
H2023 C2042 0.951 . S
H2024 C2044 0.950 . S
H2025 C2045 0.950 . S
H2026 C2047 0.950 . S
H2027 C2050 0.950 . S
H2028 C2051 0.950 . S
H2029 C2053 0.950 . S
H2030 C2054 0.950 . S
H2031 C2055 0.951 . S
H2032 C2057 0.951 . S
H2033 C2059 0.950 . S
H2034 C2060 0.950 . S
H2035 C2062 0.950 . S
H2036 C2065 0.950 . S
H2037 C2066 0.950 . S
H2038 C2068 0.950 1_455 S
H2039 C2069 0.950 . S
C2040 H2022 0.951 . S
C2040 C2041 1.366 . S
C2040 C2042 1.388 . S
C2041 C2040 1.366 . S
C2041 C2045 1.385 . S
C2042 H2023 0.951 . S
C2042 C2040 1.388 . S
C2042 C2043 1.366 . S
C2043 C2042 1.366 . S
C2043 C2044 1.414 . S
C2043 C2046 1.499 . S
C2044 H2024 0.950 . S
C2044 C2043 1.414 . S
C2044 C2045 1.374 . S
C2045 H2025 0.950 . S
C2045 C2041 1.385 . S
C2045 C2044 1.374 . S
C2046 C2043 1.499 . S
C2046 C2047 1.373 . S
C2046 C2048 1.440 . S
C2047 H2026 0.950 . S
C2047 C2046 1.373 . S
C2047 C2063 1.377 1_455 S
C2048 C2046 1.440 . S
C2048 C2049 1.512 . S
C2048 C2062 1.336 1_455 S
C2049 C2048 1.512 . S
C2049 C2050 1.397 . S
C2049 C2054 1.363 1_455 S
C2050 H2027 0.950 . S
C2050 C2049 1.397 . S
C2050 C2051 1.334 . S
C2051 H2028 0.950 . S
C2051 C2050 1.334 . S
C2051 C2052 1.287 . S
C2052 C2051 1.287 . S
C2052 C2053 1.524 1_455 S
C2052 H2071 0.913 . S
C2053 H2029 0.950 . S
C2053 C2052 1.524 1_655 S
C2053 C2054 1.415 . S
C2054 H2030 0.950 . S
C2054 C2049 1.363 1_655 S
C2054 C2053 1.415 . S
C2055 H2031 0.951 . S
C2055 C2056 1.366 . S
C2055 C2057 1.388 . S
C2056 C2055 1.366 . S
C2056 C2060 1.385 . S
C2057 H2032 0.951 . S
C2057 C2055 1.388 . S
C2057 C2058 1.366 . S
C2058 C2057 1.366 . S
C2058 C2059 1.414 . S
C2058 C2061 1.499 . S
C2059 H2033 0.950 . S
C2059 C2058 1.414 . S
C2059 C2060 1.374 . S
C2060 H2034 0.950 . S
C2060 C2056 1.385 . S
C2060 C2059 1.374 . S
C2061 C2058 1.499 . S
C2061 C2062 1.373 . S
C2061 C2063 1.389 . S
C2062 H2035 0.950 . S
C2062 C2048 1.336 1_655 S
C2062 C2061 1.373 . S
C2063 C2047 1.377 1_655 S
C2063 C2061 1.389 . S
C2063 C2064 1.524 . S
C2064 C2063 1.524 . S
C2064 C2065 1.397 . S
C2064 C2069 1.363 1_655 S
C2065 H2036 0.950 . S
C2065 C2064 1.397 . S
C2065 C2066 1.334 . S
C2066 H2037 0.950 . S
C2066 C2065 1.334 . S
C2066 C2067 1.287 . S
C2067 C2066 1.287 . S
C2067 C2068 1.524 . S
C2067 H2070 0.999 . S
C2068 H2038 0.950 1_655 S
C2068 C2067 1.524 . S
C2068 C2069 1.415 1_655 S
C2069 H2039 0.950 . S
C2069 C2064 1.363 1_455 S
C2069 C2068 1.415 1_455 S
H2070 C2067 0.999 . S
H2071 C2052 0.913 . S
H2072 C2090 0.951 . S
H2073 C2092 0.951 . S
H2074 C2094 0.950 . S
H2075 C2095 0.950 . S
H2076 C2097 0.950 . S
H2077 C2100 0.950 . S
H2078 C2101 0.950 . S
H2079 C2103 0.950 . S
H2080 C2104 0.950 . S
H2081 C2105 0.951 . S
H2082 C2107 0.951 . S
H2083 C2109 0.950 . S
H2084 C2110 0.950 . S
H2085 C2112 0.950 . S
H2086 C2115 0.950 . S
H2087 C2116 0.950 . S
H2088 C2118 0.950 . S
H2089 C2119 0.950 . S
C2090 H2072 0.951 . S
C2090 C2091 1.366 . S
C2090 C2092 1.388 . S
C2091 C2090 1.366 . S
C2091 C2095 1.385 . S
C2092 H2073 0.951 . S
C2092 C2090 1.388 . S
C2092 C2093 1.366 . S
C2093 C2092 1.366 . S
C2093 C2094 1.414 . S
C2093 C2096 1.499 . S
C2094 H2074 0.950 . S
C2094 C2093 1.414 . S
C2094 C2095 1.374 . S
C2095 H2075 0.950 . S
C2095 C2091 1.385 . S
C2095 C2094 1.374 . S
C2096 C2093 1.499 . S
C2096 C2097 1.373 . S
C2096 C2098 1.389 . S
C2097 H2076 0.950 . S
C2097 C2096 1.373 . S
C2097 C2113 1.377 . S
C2098 C2096 1.389 . S
C2098 C2099 1.524 . S
C2098 C2112 1.377 . S
C2099 C2098 1.524 . S
C2099 C2100 1.397 . S
C2099 C2104 1.363 . S
C2100 H2077 0.950 . S
C2100 C2099 1.397 . S
C2100 C2101 1.334 . S
C2101 H2078 0.950 . S
C2101 C2100 1.334 . S
C2101 C2102 1.287 . S
C2102 C2101 1.287 . S
C2102 C2103 1.524 . S
C2102 H2121 0.913 . S
C2103 H2079 0.950 . S
C2103 C2102 1.524 . S
C2103 C2104 1.415 . S
C2104 H2080 0.950 . S
C2104 C2099 1.363 . S
C2104 C2103 1.415 . S
C2105 H2081 0.951 . S
C2105 C2106 1.366 . S
C2105 C2107 1.388 . S
C2106 C2105 1.366 . S
C2106 C2110 1.385 . S
C2107 H2082 0.951 . S
C2107 C2105 1.388 . S
C2107 C2108 1.366 . S
C2108 C2107 1.366 . S
C2108 C2109 1.414 . S
C2108 C2111 1.499 . S
C2109 H2083 0.950 . S
C2109 C2108 1.414 . S
C2109 C2110 1.374 . S
C2110 H2084 0.950 . S
C2110 C2106 1.385 . S
C2110 C2109 1.374 . S
C2111 C2108 1.499 . S
C2111 C2112 1.373 . S
C2111 C2113 1.389 . S
C2112 H2085 0.950 . S
C2112 C2098 1.377 . S
C2112 C2111 1.373 . S
C2113 C2097 1.377 . S
C2113 C2111 1.389 . S
C2113 C2114 1.524 . S
C2114 C2113 1.524 . S
C2114 C2115 1.397 . S
C2114 C2119 1.363 . S
C2115 H2086 0.950 . S
C2115 C2114 1.397 . S
C2115 C2116 1.334 . S
C2116 H2087 0.950 . S
C2116 C2115 1.334 . S
C2116 C2117 1.287 . S
C2117 C2116 1.287 . S
C2117 C2118 1.524 . S
C2117 H2120 0.999 . S
C2118 H2088 0.950 . S
C2118 C2117 1.524 . S
C2118 C2119 1.415 . S
C2119 H2089 0.950 . S
C2119 C2114 1.363 . S
C2119 C2118 1.415 . S
H2120 C2117 0.999 . S
H2121 C2102 0.913 . S
H2122 C2140 0.951 . S
H2123 C2142 0.951 . S
H2124 C2144 0.950 . S
H2125 C2145 0.950 . S
H2126 C2147 0.950 . S
H2127 C2150 0.950 . S
H2128 C2151 0.950 . S
H2129 C2153 0.950 . S
H2130 C2154 0.948 . S
H2131 C2155 0.951 . S
H2132 C2157 0.951 . S
H2133 C2159 0.950 . S
H2134 C2160 0.950 . S
H2135 C2162 0.950 . S
H2136 C2165 0.950 . S
H2137 C2166 0.950 . S
H2138 C2168 0.946 1_565 S
H2139 C2169 0.950 . S
C2140 H2122 0.951 . S
C2140 C2141 1.366 . S
C2140 C2142 1.388 . S
C2141 C2140 1.366 . S
C2141 C2145 1.385 . S
C2142 H2123 0.951 . S
C2142 C2140 1.388 . S
C2142 C2143 1.366 . S
C2143 C2142 1.366 . S
C2143 C2144 1.414 . S
C2143 C2146 1.499 . S
C2144 H2124 0.950 . S
C2144 C2143 1.414 . S
C2144 C2145 1.374 . S
C2145 H2125 0.950 . S
C2145 C2141 1.385 . S
C2145 C2144 1.374 . S
C2146 C2143 1.499 . S
C2146 C2147 1.373 . S
C2146 C2148 1.389 . S
C2147 H2126 0.950 . S
C2147 C2146 1.373 . S
C2147 C2163 1.404 . S
C2148 C2146 1.389 . S
C2148 C2149 1.524 . S
C2148 C2162 1.377 1_565 S
C2149 C2148 1.524 . S
C2149 C2150 1.397 . S
C2149 C2154 1.363 . S
C2150 H2127 0.950 . S
C2150 C2149 1.397 . S
C2150 C2151 1.334 . S
C2151 H2128 0.950 . S
C2151 C2150 1.334 . S
C2151 C2152 1.287 . S
C2152 C2151 1.287 . S
C2152 C2153 1.524 . S
C2152 H2171 0.913 . S
C2153 H2129 0.950 . S
C2153 C2152 1.524 . S
C2153 C2154 1.415 . S
C2154 H2130 0.948 . S
C2154 C2149 1.363 . S
C2154 C2153 1.415 . S
C2155 H2131 0.951 . S
C2155 C2156 1.366 . S
C2155 C2157 1.388 . S
C2156 C2155 1.366 . S
C2156 C2160 1.385 . S
C2157 H2132 0.951 . S
C2157 C2155 1.388 . S
C2157 C2158 1.366 . S
C2158 C2157 1.366 . S
C2158 C2159 1.414 . S
C2158 C2161 1.499 . S
C2159 H2133 0.950 . S
C2159 C2158 1.414 . S
C2159 C2160 1.374 . S
C2160 H2134 0.950 . S
C2160 C2156 1.385 . S
C2160 C2159 1.374 . S
C2161 C2158 1.499 . S
C2161 C2162 1.373 . S
C2161 C2163 1.377 1_545 S
C2162 H2135 0.950 . S
C2162 C2148 1.377 1_545 S
C2162 C2161 1.373 . S
C2163 C2147 1.404 . S
C2163 C2161 1.377 1_565 S
C2163 C2164 1.510 1_565 S
C2164 C2163 1.510 1_545 S
C2164 C2165 1.397 . S
C2164 C2169 1.363 1_545 S
C2165 H2136 0.950 . S
C2165 C2164 1.397 . S
C2165 C2166 1.334 . S
C2166 H2137 0.950 . S
C2166 C2165 1.334 . S
C2166 C2167 1.287 . S
C2167 C2166 1.287 . S
C2167 C2168 1.532 . S
C2167 H2170 0.999 . S
C2168 H2138 0.946 1_545 S
C2168 C2167 1.532 . S
C2168 C2169 1.411 1_545 S
C2169 H2139 0.950 . S
C2169 C2164 1.363 1_565 S
C2169 C2168 1.411 1_565 S
H2170 C2167 0.999 . S
H2171 C2152 0.913 . S
H2172 C2190 0.951 . S
H2173 C2192 0.951 . S
H2174 C2194 0.950 . S
H2175 C2195 0.950 . S
H2176 C2197 0.950 . S
H2177 C2200 0.950 . S
H2178 C2201 0.950 . S
H2179 C2203 0.950 . S
H2180 C2204 0.950 . S
H2181 C2205 0.951 . S
H2182 C2207 0.951 . S
H2183 C2209 0.950 . S
H2184 C2210 0.950 . S
H2185 C2212 0.950 . S
H2186 C2215 0.950 . S
H2187 C2216 0.950 . S
H2188 C2218 0.950 . S
H2189 C2219 0.950 . S
C2190 H2172 0.951 . S
C2190 C2191 1.366 . S
C2190 C2192 1.388 . S
C2191 C2190 1.366 . S
C2191 C2195 1.385 . S
C2192 H2173 0.951 . S
C2192 C2190 1.388 . S
C2192 C2193 1.366 . S
C2193 C2192 1.366 . S
C2193 C2194 1.414 . S
C2193 C2196 1.499 . S
C2194 H2174 0.950 . S
C2194 C2193 1.414 . S
C2194 C2195 1.374 . S
C2195 H2175 0.950 . S
C2195 C2191 1.385 . S
C2195 C2194 1.374 . S
C2196 C2193 1.499 . S
C2196 C2197 1.373 . S
C2196 C2198 1.389 . S
C2197 H2176 0.950 . S
C2197 C2196 1.373 . S
C2197 C2213 1.377 . S
C2198 C2196 1.389 . S
C2198 C2199 1.524 . S
C2198 C2212 1.377 . S
C2199 C2198 1.524 . S
C2199 C2200 1.397 . S
C2199 C2204 1.363 . S
C2200 H2177 0.950 . S
C2200 C2199 1.397 . S
C2200 C2201 1.334 . S
C2201 H2178 0.950 . S
C2201 C2200 1.334 . S
C2201 C2202 1.287 . S
C2202 C2201 1.287 . S
C2202 C2203 1.524 . S
C2202 H2221 0.913 . S
C2203 H2179 0.950 . S
C2203 C2202 1.524 . S
C2203 C2204 1.415 . S
C2204 H2180 0.950 . S
C2204 C2199 1.363 . S
C2204 C2203 1.415 . S
C2205 H2181 0.951 . S
C2205 C2206 1.366 . S
C2205 C2207 1.388 . S
C2206 C2205 1.366 . S
C2206 C2210 1.385 . S
C2207 H2182 0.951 . S
C2207 C2205 1.388 . S
C2207 C2208 1.366 . S
C2208 C2207 1.366 . S
C2208 C2209 1.414 . S
C2208 C2211 1.499 . S
C2209 H2183 0.950 . S
C2209 C2208 1.414 . S
C2209 C2210 1.374 . S
C2210 H2184 0.950 . S
C2210 C2206 1.385 . S
C2210 C2209 1.374 . S
C2211 C2208 1.499 . S
C2211 C2212 1.373 . S
C2211 C2213 1.389 . S
C2212 H2185 0.950 . S
C2212 C2198 1.377 . S
C2212 C2211 1.373 . S
C2213 C2197 1.377 . S
C2213 C2211 1.389 . S
C2213 C2214 1.524 . S
C2214 C2213 1.524 . S
C2214 C2215 1.397 . S
C2214 C2219 1.363 . S
C2215 H2186 0.950 . S
C2215 C2214 1.397 . S
C2215 C2216 1.334 . S
C2216 H2187 0.950 . S
C2216 C2215 1.334 . S
C2216 C2217 1.287 . S
C2217 C2216 1.287 . S
C2217 C2218 1.524 . S
C2217 H2220 0.999 . S
C2218 H2188 0.950 . S
C2218 C2217 1.524 . S
C2218 C2219 1.415 . S
C2219 H2189 0.950 . S
C2219 C2214 1.363 . S
C2219 C2218 1.415 . S
H2220 C2217 0.999 . S
H2221 C2202 0.913 . S
H2222 C2240 0.951 . S
H2223 C2242 0.951 . S
H2224 C2244 0.950 . S
H2225 C2245 0.950 . S
H2226 C2247 0.950 . S
H2227 C2250 0.950 . S
H2228 C2251 0.950 . S
H2229 C2253 0.950 . S
H2230 C2254 0.950 . S
H2231 C2255 0.951 . S
H2232 C2257 0.951 . S
H2233 C2259 0.950 . S
H2234 C2260 0.950 . S
H2235 C2262 0.950 . S
H2236 C2265 0.950 . S
H2237 C2266 0.950 . S
H2238 C2268 0.950 . S
H2239 C2269 0.950 . S
C2240 H2222 0.951 . S
C2240 C2241 1.366 . S
C2240 C2242 1.388 . S
C2241 C2240 1.366 . S
C2241 C2245 1.385 . S
C2242 H2223 0.951 . S
C2242 C2240 1.388 . S
C2242 C2243 1.366 . S
C2243 C2242 1.366 . S
C2243 C2244 1.414 . S
C2243 C2246 1.499 . S
C2244 H2224 0.950 . S
C2244 C2243 1.414 . S
C2244 C2245 1.374 . S
C2245 H2225 0.950 . S
C2245 C2241 1.385 . S
C2245 C2244 1.374 . S
C2246 C2243 1.499 . S
C2246 C2247 1.373 . S
C2246 C2248 1.389 . S
C2247 H2226 0.950 . S
C2247 C2246 1.373 . S
C2247 C2263 1.377 . S
C2248 C2246 1.389 . S
C2248 C2249 1.524 . S
C2248 C2262 1.377 . S
C2249 C2248 1.524 . S
C2249 C2250 1.397 . S
C2249 C2254 1.363 . S
C2250 H2227 0.950 . S
C2250 C2249 1.397 . S
C2250 C2251 1.334 . S
C2251 H2228 0.950 . S
C2251 C2250 1.334 . S
C2251 C2252 1.287 . S
C2252 C2251 1.287 . S
C2252 C2253 1.524 . S
C2252 H2271 0.913 1_545 S
C2253 H2229 0.950 . S
C2253 C2252 1.524 . S
C2253 C2254 1.415 . S
C2254 H2230 0.950 . S
C2254 C2249 1.363 . S
C2254 C2253 1.415 . S
C2255 H2231 0.951 . S
C2255 C2256 1.366 . S
C2255 C2257 1.388 . S
C2256 C2255 1.366 . S
C2256 C2260 1.385 . S
C2257 H2232 0.951 . S
C2257 C2255 1.388 . S
C2257 C2258 1.366 . S
C2258 C2257 1.366 . S
C2258 C2259 1.414 . S
C2258 C2261 1.499 . S
C2259 H2233 0.950 . S
C2259 C2258 1.414 . S
C2259 C2260 1.374 . S
C2260 H2234 0.950 . S
C2260 C2256 1.385 . S
C2260 C2259 1.374 . S
C2261 C2258 1.499 . S
C2261 C2262 1.373 . S
C2261 C2263 1.389 . S
C2262 H2235 0.950 . S
C2262 C2248 1.377 . S
C2262 C2261 1.373 . S
C2263 C2247 1.377 . S
C2263 C2261 1.389 . S
C2263 C2264 1.524 . S
C2264 C2263 1.524 . S
C2264 C2265 1.397 . S
C2264 C2269 1.363 . S
C2265 H2236 0.950 . S
C2265 C2264 1.397 . S
C2265 C2266 1.334 . S
C2266 H2237 0.950 . S
C2266 C2265 1.334 . S
C2266 C2267 1.287 . S
C2267 C2266 1.287 . S
C2267 C2268 1.524 . S
C2267 H2270 0.999 . S
C2268 H2238 0.950 . S
C2268 C2267 1.524 . S
C2268 C2269 1.415 . S
C2269 H2239 0.950 . S
C2269 C2264 1.363 . S
C2269 C2268 1.415 . S
H2270 C2267 0.999 . S
H2271 C2252 0.913 1_565 S
H2272 C2290 0.951 . S
H2273 C2292 0.951 . S
H2274 C2294 0.950 . S
H2275 C2295 0.950 . S
H2276 C2297 0.950 . S
H2277 C2300 0.950 . S
H2278 C2301 0.950 . S
H2279 C2303 0.950 . S
H2280 C2304 0.950 . S
H2281 C2305 0.951 . S
H2282 C2307 0.951 . S
H2283 C2309 0.950 . S
H2284 C2310 0.950 . S
H2285 C2312 0.950 . S
H2286 C2315 0.950 . S
H2287 C2316 0.950 . S
H2288 C2318 0.950 . S
H2289 C2319 0.950 . S
C2290 H2272 0.951 . S
C2290 C2291 1.366 . S
C2290 C2292 1.388 . S
C2291 C2290 1.366 . S
C2291 C2295 1.385 . S
C2292 H2273 0.951 . S
C2292 C2290 1.388 . S
C2292 C2293 1.366 . S
C2293 C2292 1.366 . S
C2293 C2294 1.414 . S
C2293 C2296 1.499 . S
C2294 H2274 0.950 . S
C2294 C2293 1.414 . S
C2294 C2295 1.374 . S
C2295 H2275 0.950 . S
C2295 C2291 1.385 . S
C2295 C2294 1.374 . S
C2296 C2293 1.499 . S
C2296 C2297 1.373 . S
C2296 C2298 1.389 . S
C2297 H2276 0.950 . S
C2297 C2296 1.373 . S
C2297 C2313 1.377 . S
C2298 C2296 1.389 . S
C2298 C2299 1.524 . S
C2298 C2312 1.377 . S
C2299 C2298 1.524 . S
C2299 C2300 1.397 . S
C2299 C2304 1.363 . S
C2300 H2277 0.950 . S
C2300 C2299 1.397 . S
C2300 C2301 1.334 . S
C2301 H2278 0.950 . S
C2301 C2300 1.334 . S
C2301 C2302 1.287 . S
C2302 C2301 1.287 . S
C2302 C2303 1.524 . S
C2302 H2321 0.913 . S
C2303 H2279 0.950 . S
C2303 C2302 1.524 . S
C2303 C2304 1.415 . S
C2304 H2280 0.950 . S
C2304 C2299 1.363 . S
C2304 C2303 1.415 . S
C2305 H2281 0.951 . S
C2305 C2306 1.366 . S
C2305 C2307 1.388 . S
C2306 C2305 1.366 . S
C2306 C2310 1.385 . S
C2307 H2282 0.951 . S
C2307 C2305 1.388 . S
C2307 C2308 1.366 . S
C2308 C2307 1.366 . S
C2308 C2309 1.414 . S
C2308 C2311 1.499 . S
C2309 H2283 0.950 . S
C2309 C2308 1.414 . S
C2309 C2310 1.374 . S
C2310 H2284 0.950 . S
C2310 C2306 1.385 . S
C2310 C2309 1.374 . S
C2311 C2308 1.499 . S
C2311 C2312 1.373 . S
C2311 C2313 1.389 . S
C2312 H2285 0.950 . S
C2312 C2298 1.377 . S
C2312 C2311 1.373 . S
C2313 C2297 1.377 . S
C2313 C2311 1.389 . S
C2313 C2314 1.524 . S
C2314 C2313 1.524 . S
C2314 C2315 1.397 . S
C2314 C2319 1.363 . S
C2315 H2286 0.950 . S
C2315 C2314 1.397 . S
C2315 C2316 1.334 . S
C2316 H2287 0.950 . S
C2316 C2315 1.334 . S
C2316 C2317 1.287 . S
C2317 C2316 1.287 . S
C2317 C2318 1.524 . S
C2317 H2320 0.999 . S
C2318 H2288 0.950 . S
C2318 C2317 1.524 . S
C2318 C2319 1.415 . S
C2319 H2289 0.950 . S
C2319 C2314 1.363 . S
C2319 C2318 1.415 . S
H2320 C2317 0.999 . S
H2321 C2302 0.913 . S
H2322 C2340 0.951 . S
H2323 C2342 0.951 . S
H2324 C2344 0.950 . S
H2325 C2345 0.950 . S
H2326 C2347 0.950 . S
H2327 C2350 0.950 . S
H2328 C2351 0.950 . S
H2329 C2353 0.950 . S
H2330 C2354 0.950 . S
H2331 C2355 0.951 . S
H2332 C2357 0.951 . S
H2333 C2359 0.950 . S
H2334 C2360 0.950 . S
H2335 C2362 0.950 . S
H2336 C2365 0.950 1_565 S
H2337 C2366 0.950 . S
H2338 C2368 0.950 . S
H2339 C2369 0.950 . S
C2340 H2322 0.951 . S
C2340 C2341 1.366 . S
C2340 C2342 1.388 . S
C2341 C2340 1.366 . S
C2341 C2345 1.385 . S
C2342 H2323 0.951 . S
C2342 C2340 1.388 . S
C2342 C2343 1.366 . S
C2343 C2342 1.366 . S
C2343 C2344 1.414 . S
C2343 C2346 1.499 . S
C2344 H2324 0.950 . S
C2344 C2343 1.414 . S
C2344 C2345 1.374 . S
C2345 H2325 0.950 . S
C2345 C2341 1.385 . S
C2345 C2344 1.374 . S
C2346 C2343 1.499 . S
C2346 C2347 1.373 . S
C2346 C2348 1.389 . S
C2347 H2326 0.950 . S
C2347 C2346 1.373 . S
C2347 C2363 1.377 . S
C2348 C2346 1.389 . S
C2348 C2349 1.524 . S
C2348 C2362 1.377 . S
C2349 C2348 1.524 . S
C2349 C2350 1.397 . S
C2349 C2354 1.363 . S
C2350 H2327 0.950 . S
C2350 C2349 1.397 . S
C2350 C2351 1.334 . S
C2351 H2328 0.950 . S
C2351 C2350 1.334 . S
C2351 C2352 1.287 . S
C2352 C2351 1.287 . S
C2352 C2353 1.524 . S
C2352 H2371 0.913 . S
C2353 H2329 0.950 . S
C2353 C2352 1.524 . S
C2353 C2354 1.415 . S
C2354 H2330 0.950 . S
C2354 C2349 1.363 . S
C2354 C2353 1.415 . S
C2355 H2331 0.951 . S
C2355 C2356 1.366 1_545 S
C2355 C2357 1.388 . S
C2356 C2355 1.366 1_565 S
C2356 C2360 1.385 . S
C2357 H2332 0.951 . S
C2357 C2355 1.388 . S
C2357 C2358 1.366 1_545 S
C2358 C2357 1.366 1_565 S
C2358 C2359 1.414 . S
C2358 C2361 1.499 . S
C2359 H2333 0.950 . S
C2359 C2358 1.414 . S
C2359 C2360 1.374 . S
C2360 H2334 0.950 . S
C2360 C2356 1.385 . S
C2360 C2359 1.374 . S
C2361 C2358 1.499 . S
C2361 C2362 1.373 . S
C2361 C2363 1.389 . S
C2362 H2335 0.950 . S
C2362 C2348 1.377 . S
C2362 C2361 1.373 . S
C2363 C2347 1.377 . S
C2363 C2361 1.389 . S
C2363 C2364 1.524 1_565 S
C2364 C2363 1.524 1_545 S
C2364 C2365 1.397 . S
C2364 C2369 1.363 . S
C2365 H2336 0.950 1_545 S
C2365 C2364 1.397 . S
C2365 C2366 1.334 . S
C2366 H2337 0.950 . S
C2366 C2365 1.334 . S
C2366 C2367 1.287 . S
C2367 C2366 1.287 . S
C2367 C2368 1.524 . S
C2367 H2370 0.999 . S
C2368 H2338 0.950 . S
C2368 C2367 1.524 . S
C2368 C2369 1.415 . S
C2369 H2339 0.950 . S
C2369 C2364 1.363 . S
C2369 C2368 1.415 . S
H2370 C2367 0.999 . S
H2371 C2352 0.913 . S
H2372 C2390 0.951 . S
H2373 C2392 0.951 . S
H2374 C2394 0.950 1_655 S
H2375 C2395 0.950 1_655 S
H2376 C2397 0.950 1_655 S
H2377 C2400 0.950 . S
H2378 C2401 0.950 . S
H2379 C2403 0.950 . S
H2380 C2404 0.950 . S
H2381 C2405 0.951 . S
H2382 C2407 0.951 . S
H2383 C2409 0.950 . S
H2384 C2410 0.950 . S
H2385 C2412 0.950 . S
H2386 C2415 0.950 . S
H2387 C2416 0.950 . S
H2388 C2418 0.950 . S
H2389 C2419 0.950 . S
C2390 H2372 0.951 . S
C2390 C2391 1.366 . S
C2390 C2392 1.388 . S
C2391 C2390 1.366 . S
C2391 C2395 1.385 . S
C2392 H2373 0.951 . S
C2392 C2390 1.388 . S
C2392 C2393 1.366 . S
C2393 C2392 1.366 . S
C2393 C2394 1.414 . S
C2393 C2396 1.499 . S
C2394 H2374 0.950 1_455 S
C2394 C2393 1.414 . S
C2394 C2395 1.374 . S
C2395 H2375 0.950 1_455 S
C2395 C2391 1.385 . S
C2395 C2394 1.374 . S
C2396 C2393 1.499 . S
C2396 C2397 1.373 . S
C2396 C2398 1.389 . S
C2397 H2376 0.950 1_455 S
C2397 C2396 1.373 . S
C2397 C2413 1.375 . S
C2398 C2396 1.389 . S
C2398 C2399 1.524 . S
C2398 C2412 1.377 . S
C2399 C2398 1.524 . S
C2399 C2400 1.397 . S
C2399 C2404 1.363 . S
C2400 H2377 0.950 . S
C2400 C2399 1.397 . S
C2400 C2401 1.334 . S
C2401 H2378 0.950 . S
C2401 C2400 1.334 . S
C2401 C2402 1.287 . S
C2402 C2401 1.287 . S
C2402 C2403 1.524 . S
C2402 H2421 0.913 . S
C2403 H2379 0.950 . S
C2403 C2402 1.524 . S
C2403 C2404 1.415 . S
C2404 H2380 0.950 . S
C2404 C2399 1.363 . S
C2404 C2403 1.415 . S
C2405 H2381 0.951 . S
C2405 C2406 1.366 1_655 S
C2405 C2407 1.388 . S
C2406 C2405 1.366 1_455 S
C2406 C2410 1.385 . S
C2407 H2382 0.951 . S
C2407 C2405 1.388 . S
C2407 C2408 1.366 1_655 S
C2408 C2407 1.366 1_455 S
C2408 C2409 1.414 . S
C2408 C2411 1.499 . S
C2409 H2383 0.950 . S
C2409 C2408 1.414 . S
C2409 C2410 1.374 . S
C2410 H2384 0.950 . S
C2410 C2406 1.385 . S
C2410 C2409 1.374 . S
C2411 C2408 1.499 . S
C2411 C2412 1.373 . S
C2411 C2413 1.407 . S
C2412 H2385 0.950 . S
C2412 C2398 1.377 . S
C2412 C2411 1.373 . S
C2413 C2397 1.375 . S
C2413 C2411 1.407 . S
C2413 C2414 1.510 1_455 S
C2414 C2413 1.510 1_655 S
C2414 C2415 1.397 . S
C2414 C2419 1.363 . S
C2415 H2386 0.950 . S
C2415 C2414 1.397 . S
C2415 C2416 1.334 . S
C2416 H2387 0.950 . S
C2416 C2415 1.334 . S
C2416 C2417 1.287 . S
C2417 C2416 1.287 . S
C2417 C2418 1.524 . S
C2417 H2420 0.999 . S
C2418 H2388 0.950 . S
C2418 C2417 1.524 . S
C2418 C2419 1.415 . S
C2419 H2389 0.950 . S
C2419 C2414 1.363 . S
C2419 C2418 1.415 . S
H2420 C2417 0.999 . S
H2421 C2402 0.913 . S
H2422 C2440 0.951 . S
H2423 C2442 0.951 . S
H2424 C2444 0.950 . S
H2425 C2445 0.950 . S
H2426 C2447 0.950 . S
H2427 C2450 0.950 . S
H2428 C2451 0.950 . S
H2429 C2453 0.950 . S
H2430 C2454 0.950 . S
H2431 C2455 0.951 . S
H2432 C2457 0.951 . S
H2433 C2459 0.950 . S
H2434 C2460 0.950 . S
H2435 C2462 0.950 . S
H2436 C2465 0.950 . S
H2437 C2466 0.950 . S
H2438 C2468 0.950 . S
H2439 C2469 0.950 . S
C2440 H2422 0.951 . S
C2440 C2441 1.366 . S
C2440 C2442 1.388 . S
C2441 C2440 1.366 . S
C2441 C2445 1.385 . S
C2442 H2423 0.951 . S
C2442 C2440 1.388 . S
C2442 C2443 1.366 . S
C2443 C2442 1.366 . S
C2443 C2444 1.414 . S
C2443 C2446 1.499 . S
C2444 H2424 0.950 . S
C2444 C2443 1.414 . S
C2444 C2445 1.374 . S
C2445 H2425 0.950 . S
C2445 C2441 1.385 . S
C2445 C2444 1.374 . S
C2446 C2443 1.499 . S
C2446 C2447 1.373 . S
C2446 C2448 1.389 . S
C2447 H2426 0.950 . S
C2447 C2446 1.373 . S
C2447 C2463 1.377 . S
C2448 C2446 1.389 . S
C2448 C2449 1.524 . S
C2448 C2462 1.377 . S
C2449 C2448 1.524 . S
C2449 C2450 1.397 . S
C2449 C2454 1.363 . S
C2450 H2427 0.950 . S
C2450 C2449 1.397 . S
C2450 C2451 1.334 . S
C2451 H2428 0.950 . S
C2451 C2450 1.334 . S
C2451 C2452 1.287 . S
C2452 C2451 1.287 . S
C2452 C2453 1.524 . S
C2452 H2471 0.913 . S
C2453 H2429 0.950 . S
C2453 C2452 1.524 . S
C2453 C2454 1.415 . S
C2454 H2430 0.950 . S
C2454 C2449 1.363 . S
C2454 C2453 1.415 . S
C2455 H2431 0.951 . S
C2455 C2456 1.366 . S
C2455 C2457 1.388 . S
C2456 C2455 1.366 . S
C2456 C2460 1.385 . S
C2457 H2432 0.951 . S
C2457 C2455 1.388 . S
C2457 C2458 1.366 . S
C2458 C2457 1.366 . S
C2458 C2459 1.414 . S
C2458 C2461 1.499 . S
C2459 H2433 0.950 . S
C2459 C2458 1.414 . S
C2459 C2460 1.374 . S
C2460 H2434 0.950 . S
C2460 C2456 1.385 . S
C2460 C2459 1.374 . S
C2461 C2458 1.499 . S
C2461 C2462 1.373 . S
C2461 C2463 1.389 . S
C2462 H2435 0.950 . S
C2462 C2448 1.377 . S
C2462 C2461 1.373 . S
C2463 C2447 1.377 . S
C2463 C2461 1.389 . S
C2463 C2464 1.524 . S
C2464 C2463 1.524 . S
C2464 C2465 1.397 . S
C2464 C2469 1.363 . S
C2465 H2436 0.950 . S
C2465 C2464 1.397 . S
C2465 C2466 1.334 . S
C2466 H2437 0.950 . S
C2466 C2465 1.334 . S
C2466 C2467 1.287 . S
C2467 C2466 1.287 . S
C2467 C2468 1.524 . S
C2467 H2470 0.999 . S
C2468 H2438 0.950 . S
C2468 C2467 1.524 . S
C2468 C2469 1.415 . S
C2469 H2439 0.950 . S
C2469 C2464 1.363 . S
C2469 C2468 1.415 . S
H2470 C2467 0.999 . S
H2471 C2452 0.913 . S
H2472 C2490 0.951 1_455 S
H2473 C2492 0.951 1_455 S
H2474 C2494 0.950 . S
H2475 C2495 0.950 . S
H2476 C2497 0.950 . S
H2477 C2500 0.950 . S
H2478 C2501 0.950 . S
H2479 C2503 0.950 . S
H2480 C2504 0.950 . S
H2481 C2505 0.951 . S
H2482 C2507 0.951 . S
H2483 C2509 0.950 . S
H2484 C2510 0.950 . S
H2485 C2512 0.950 . S
H2486 C2515 0.950 1_455 S
H2487 C2516 0.950 1_455 S
H2488 C2518 0.950 . S
H2489 C2519 0.950 . S
C2490 H2472 0.951 1_655 S
C2490 C2491 1.366 . S
C2490 C2492 1.388 . S
C2491 C2490 1.366 . S
C2491 C2495 1.385 . S
C2492 H2473 0.951 1_655 S
C2492 C2490 1.388 . S
C2492 C2493 1.366 . S
C2493 C2492 1.366 . S
C2493 C2494 1.414 . S
C2493 C2496 1.499 . S
C2494 H2474 0.950 . S
C2494 C2493 1.414 . S
C2494 C2495 1.374 . S
C2495 H2475 0.950 . S
C2495 C2491 1.385 . S
C2495 C2494 1.374 . S
C2496 C2493 1.499 . S
C2496 C2497 1.373 . S
C2496 C2498 1.389 . S
C2497 H2476 0.950 . S
C2497 C2496 1.373 . S
C2497 C2513 1.377 . S
C2498 C2496 1.389 . S
C2498 C2499 1.524 . S
C2498 C2512 1.377 . S
C2499 C2498 1.524 . S
C2499 C2500 1.397 . S
C2499 C2504 1.363 1_655 S
C2500 H2477 0.950 . S
C2500 C2499 1.397 . S
C2500 C2501 1.334 . S
C2501 H2478 0.950 . S
C2501 C2500 1.334 . S
C2501 C2502 1.287 . S
C2502 C2501 1.287 . S
C2502 C2503 1.524 1_655 S
C2502 H2521 0.913 . S
C2503 H2479 0.950 . S
C2503 C2502 1.524 1_455 S
C2503 C2504 1.415 . S
C2504 H2480 0.950 . S
C2504 C2499 1.363 1_455 S
C2504 C2503 1.415 . S
C2505 H2481 0.951 . S
C2505 C2506 1.366 . S
C2505 C2507 1.388 . S
C2506 C2505 1.366 . S
C2506 C2510 1.385 1_655 S
C2507 H2482 0.951 . S
C2507 C2505 1.388 . S
C2507 C2508 1.366 . S
C2508 C2507 1.366 . S
C2508 C2509 1.414 1_655 S
C2508 C2511 1.499 . S
C2509 H2483 0.950 . S
C2509 C2508 1.414 1_455 S
C2509 C2510 1.374 . S
C2510 H2484 0.950 . S
C2510 C2506 1.385 1_455 S
C2510 C2509 1.374 . S
C2511 C2508 1.499 . S
C2511 C2512 1.373 . S
C2511 C2513 1.389 . S
C2512 H2485 0.950 . S
C2512 C2498 1.377 . S
C2512 C2511 1.373 . S
C2513 C2497 1.377 . S
C2513 C2511 1.389 . S
C2513 C2514 1.524 . S
C2514 C2513 1.524 . S
C2514 C2515 1.397 . S
C2514 C2519 1.363 . S
C2515 H2486 0.950 1_655 S
C2515 C2514 1.397 . S
C2515 C2516 1.334 . S
C2516 H2487 0.950 1_655 S
C2516 C2515 1.334 . S
C2516 C2517 1.287 . S
C2517 C2516 1.287 . S
C2517 C2518 1.524 . S
C2517 H2520 0.999 . S
C2518 H2488 0.950 . S
C2518 C2517 1.524 . S
C2518 C2519 1.415 . S
C2519 H2489 0.950 . S
C2519 C2514 1.363 . S
C2519 C2518 1.415 . S
H2520 C2517 0.999 . S
H2521 C2502 0.913 . S
H2522 C2540 0.951 . S
H2523 C2542 0.951 . S
H2524 C2544 0.950 . S
H2525 C2545 0.950 . S
H2526 C2547 0.950 . S
H2527 C2550 0.950 . S
H2528 C2551 0.950 . S
H2529 C2553 0.950 . S
H2530 C2554 0.950 . S
H2531 C2555 0.951 . S
H2532 C2557 0.951 . S
H2533 C2559 0.950 . S
H2534 C2560 0.950 . S
H2535 C2562 0.950 . S
H2536 C2565 0.950 . S
H2537 C2566 0.950 . S
H2538 C2568 0.950 . S
H2539 C2569 0.950 . S
C2540 H2522 0.951 . S
C2540 C2541 1.366 . S
C2540 C2542 1.388 . S
C2541 C2540 1.366 . S
C2541 C2545 1.385 . S
C2542 H2523 0.951 . S
C2542 C2540 1.388 . S
C2542 C2543 1.366 . S
C2543 C2542 1.366 . S
C2543 C2544 1.414 . S
C2543 C2546 1.499 . S
C2544 H2524 0.950 . S
C2544 C2543 1.414 . S
C2544 C2545 1.374 . S
C2545 H2525 0.950 . S
C2545 C2541 1.385 . S
C2545 C2544 1.374 . S
C2546 C2543 1.499 . S
C2546 C2547 1.373 . S
C2546 C2548 1.389 . S
C2547 H2526 0.950 . S
C2547 C2546 1.373 . S
C2547 C2563 1.377 . S
C2548 C2546 1.389 . S
C2548 C2549 1.524 . S
C2548 C2562 1.377 . S
C2549 C2548 1.524 . S
C2549 C2550 1.397 . S
C2549 C2554 1.363 . S
C2550 H2527 0.950 . S
C2550 C2549 1.397 . S
C2550 C2551 1.334 . S
C2551 H2528 0.950 . S
C2551 C2550 1.334 . S
C2551 C2552 1.287 . S
C2552 C2551 1.287 . S
C2552 C2553 1.524 . S
C2552 H2571 0.913 . S
C2553 H2529 0.950 . S
C2553 C2552 1.524 . S
C2553 C2554 1.415 . S
C2554 H2530 0.950 . S
C2554 C2549 1.363 . S
C2554 C2553 1.415 . S
C2555 H2531 0.951 . S
C2555 C2556 1.366 . S
C2555 C2557 1.388 . S
C2556 C2555 1.366 . S
C2556 C2560 1.385 . S
C2557 H2532 0.951 . S
C2557 C2555 1.388 . S
C2557 C2558 1.366 . S
C2558 C2557 1.366 . S
C2558 C2559 1.414 . S
C2558 C2561 1.499 . S
C2559 H2533 0.950 . S
C2559 C2558 1.414 . S
C2559 C2560 1.374 . S
C2560 H2534 0.950 . S
C2560 C2556 1.385 . S
C2560 C2559 1.374 . S
C2561 C2558 1.499 . S
C2561 C2562 1.373 . S
C2561 C2563 1.389 . S
C2562 H2535 0.950 . S
C2562 C2548 1.377 . S
C2562 C2561 1.373 . S
C2563 C2547 1.377 . S
C2563 C2561 1.389 . S
C2563 C2564 1.524 . S
C2564 C2563 1.524 . S
C2564 C2565 1.397 . S
C2564 C2569 1.363 . S
C2565 H2536 0.950 . S
C2565 C2564 1.397 . S
C2565 C2566 1.334 . S
C2566 H2537 0.950 . S
C2566 C2565 1.334 . S
C2566 C2567 1.287 . S
C2567 C2566 1.287 . S
C2567 C2568 1.524 . S
C2567 H2570 0.999 . S
C2568 H2538 0.950 . S
C2568 C2567 1.524 . S
C2568 C2569 1.415 . S
C2569 H2539 0.950 . S
C2569 C2564 1.363 . S
C2569 C2568 1.415 . S
H2570 C2567 0.999 . S
H2571 C2552 0.913 . S
H2572 C2590 0.951 . S
H2573 C2592 0.951 . S
H2574 C2594 0.950 . S
H2575 C2595 0.950 . S
H2576 C2597 0.950 . S
H2577 C2600 0.950 . S
H2578 C2601 0.950 . S
H2579 C2603 0.950 . S
H2580 C2604 0.950 . S
H2581 C2605 0.951 . S
H2582 C2607 0.951 . S
H2583 C2609 0.950 . S
H2584 C2610 0.950 . S
H2585 C2612 0.950 . S
H2586 C2615 0.950 . S
H2587 C2616 0.950 . S
H2588 C2618 0.950 . S
H2589 C2619 0.950 . S
C2590 H2572 0.951 . S
C2590 C2591 1.366 . S
C2590 C2592 1.388 . S
C2591 C2590 1.366 . S
C2591 C2595 1.385 . S
C2592 H2573 0.951 . S
C2592 C2590 1.388 . S
C2592 C2593 1.366 . S
C2593 C2592 1.366 . S
C2593 C2594 1.414 . S
C2593 C2596 1.499 . S
C2594 H2574 0.950 . S
C2594 C2593 1.414 . S
C2594 C2595 1.374 . S
C2595 H2575 0.950 . S
C2595 C2591 1.385 . S
C2595 C2594 1.374 . S
C2596 C2593 1.499 . S
C2596 C2597 1.373 . S
C2596 C2598 1.389 . S
C2597 H2576 0.950 . S
C2597 C2596 1.373 . S
C2597 C2613 1.377 . S
C2598 C2596 1.389 . S
C2598 C2599 1.524 . S
C2598 C2612 1.377 . S
C2599 C2598 1.524 . S
C2599 C2600 1.397 . S
C2599 C2604 1.363 . S
C2600 H2577 0.950 . S
C2600 C2599 1.397 . S
C2600 C2601 1.334 . S
C2601 H2578 0.950 . S
C2601 C2600 1.334 . S
C2601 C2602 1.287 . S
C2602 C2601 1.287 . S
C2602 C2603 1.524 . S
C2602 H2621 0.913 . S
C2603 H2579 0.950 . S
C2603 C2602 1.524 . S
C2603 C2604 1.415 . S
C2604 H2580 0.950 . S
C2604 C2599 1.363 . S
C2604 C2603 1.415 . S
C2605 H2581 0.951 . S
C2605 C2606 1.366 . S
C2605 C2607 1.388 . S
C2606 C2605 1.366 . S
C2606 C2610 1.385 . S
C2607 H2582 0.951 . S
C2607 C2605 1.388 . S
C2607 C2608 1.366 . S
C2608 C2607 1.366 . S
C2608 C2609 1.414 . S
C2608 C2611 1.499 . S
C2609 H2583 0.950 . S
C2609 C2608 1.414 . S
C2609 C2610 1.374 . S
C2610 H2584 0.950 . S
C2610 C2606 1.385 . S
C2610 C2609 1.374 . S
C2611 C2608 1.499 . S
C2611 C2612 1.373 . S
C2611 C2613 1.389 . S
C2612 H2585 0.950 . S
C2612 C2598 1.377 . S
C2612 C2611 1.373 . S
C2613 C2597 1.377 . S
C2613 C2611 1.389 . S
C2613 C2614 1.524 1_545 S
C2614 C2613 1.524 1_565 S
C2614 C2615 1.397 . S
C2614 C2619 1.363 . S
C2615 H2586 0.950 . S
C2615 C2614 1.397 . S
C2615 C2616 1.334 . S
C2616 H2587 0.950 . S
C2616 C2615 1.334 . S
C2616 C2617 1.287 . S
C2617 C2616 1.287 . S
C2617 C2618 1.524 . S
C2617 H2620 0.999 . S
C2618 H2588 0.950 . S
C2618 C2617 1.524 . S
C2618 C2619 1.415 . S
C2619 H2589 0.950 . S
C2619 C2614 1.363 . S
C2619 C2618 1.415 . S
H2620 C2617 0.999 . S
H2621 C2602 0.913 . S
H2622 C2640 0.951 . S
H2623 C2642 0.951 . S
H2624 C2644 0.950 . S
H2625 C2645 0.950 . S
H2626 C2647 0.950 . S
H2627 C2650 0.950 . S
H2628 C2651 0.950 . S
H2629 C2653 0.950 . S
H2630 C2654 0.950 . S
H2631 C2655 0.951 . S
H2632 C2657 0.951 . S
H2633 C2659 0.950 . S
H2634 C2660 0.950 . S
H2635 C2662 0.950 . S
H2636 C2665 0.950 . S
H2637 C2666 0.950 . S
H2638 C2668 0.950 . S
H2639 C2669 0.950 . S
C2640 H2622 0.951 . S
C2640 C2641 1.366 . S
C2640 C2642 1.388 . S
C2641 C2640 1.366 . S
C2641 C2645 1.385 . S
C2642 H2623 0.951 . S
C2642 C2640 1.388 . S
C2642 C2643 1.366 . S
C2643 C2642 1.366 . S
C2643 C2644 1.414 . S
C2643 C2646 1.499 . S
C2644 H2624 0.950 . S
C2644 C2643 1.414 . S
C2644 C2645 1.374 . S
C2645 H2625 0.950 . S
C2645 C2641 1.385 . S
C2645 C2644 1.374 . S
C2646 C2643 1.499 . S
C2646 C2647 1.373 . S
C2646 C2648 1.389 . S
C2647 H2626 0.950 . S
C2647 C2646 1.373 . S
C2647 C2663 1.377 . S
C2648 C2646 1.389 . S
C2648 C2649 1.524 . S
C2648 C2662 1.377 . S
C2649 C2648 1.524 . S
C2649 C2650 1.397 . S
C2649 C2654 1.363 . S
C2650 H2627 0.950 . S
C2650 C2649 1.397 . S
C2650 C2651 1.334 . S
C2651 H2628 0.950 . S
C2651 C2650 1.334 . S
C2651 C2652 1.287 . S
C2652 C2651 1.287 . S
C2652 C2653 1.524 . S
C2652 H2671 0.913 . S
C2653 H2629 0.950 . S
C2653 C2652 1.524 . S
C2653 C2654 1.415 . S
C2654 H2630 0.950 . S
C2654 C2649 1.363 . S
C2654 C2653 1.415 . S
C2655 H2631 0.951 . S
C2655 C2656 1.366 . S
C2655 C2657 1.388 . S
C2656 C2655 1.366 . S
C2656 C2660 1.385 . S
C2657 H2632 0.951 . S
C2657 C2655 1.388 . S
C2657 C2658 1.366 . S
C2658 C2657 1.366 . S
C2658 C2659 1.414 . S
C2658 C2661 1.499 . S
C2659 H2633 0.950 . S
C2659 C2658 1.414 . S
C2659 C2660 1.374 . S
C2660 H2634 0.950 . S
C2660 C2656 1.385 . S
C2660 C2659 1.374 . S
C2661 C2658 1.499 . S
C2661 C2662 1.373 . S
C2661 C2663 1.389 . S
C2662 H2635 0.950 . S
C2662 C2648 1.377 . S
C2662 C2661 1.373 . S
C2663 C2647 1.377 . S
C2663 C2661 1.389 . S
C2663 C2664 1.524 . S
C2664 C2663 1.524 . S
C2664 C2665 1.397 . S
C2664 C2669 1.363 . S
C2665 H2636 0.950 . S
C2665 C2664 1.397 . S
C2665 C2666 1.334 . S
C2666 H2637 0.950 . S
C2666 C2665 1.334 . S
C2666 C2667 1.287 . S
C2667 C2666 1.287 . S
C2667 C2668 1.524 . S
C2667 H2670 0.999 . S
C2668 H2638 0.950 . S
C2668 C2667 1.524 . S
C2668 C2669 1.415 . S
C2669 H2639 0.950 . S
C2669 C2664 1.363 . S
C2669 C2668 1.415 . S
H2670 C2667 0.999 . S
H2671 C2652 0.913 . S
H2672 C2690 0.951 . S
H2673 C2692 0.951 . S
H2674 C2694 0.950 . S
H2675 C2695 0.950 . S
H2676 C2697 0.950 . S
H2677 C2700 0.950 . S
H2678 C2701 0.950 . S
H2679 C2703 0.950 . S
H2680 C2704 0.950 . S
H2681 C2705 0.951 . S
H2682 C2707 0.951 . S
H2683 C2709 0.950 . S
H2684 C2710 0.950 . S
H2685 C2712 0.950 . S
H2686 C2715 0.950 . S
H2687 C2716 0.950 . S
H2688 C2718 0.950 . S
H2689 C2719 0.950 . S
C2690 H2672 0.951 . S
C2690 C2691 1.366 . S
C2690 C2692 1.388 . S
C2691 C2690 1.366 . S
C2691 C2695 1.385 . S
C2692 H2673 0.951 . S
C2692 C2690 1.388 . S
C2692 C2693 1.366 . S
C2693 C2692 1.366 . S
C2693 C2694 1.414 . S
C2693 C2696 1.499 . S
C2694 H2674 0.950 . S
C2694 C2693 1.414 . S
C2694 C2695 1.374 . S
C2695 H2675 0.950 . S
C2695 C2691 1.385 . S
C2695 C2694 1.374 . S
C2696 C2693 1.499 . S
C2696 C2697 1.373 . S
C2696 C2698 1.389 . S
C2697 H2676 0.950 . S
C2697 C2696 1.373 . S
C2697 C2713 1.377 . S
C2698 C2696 1.389 . S
C2698 C2699 1.524 . S
C2698 C2712 1.377 . S
C2699 C2698 1.524 . S
C2699 C2700 1.397 . S
C2699 C2704 1.363 . S
C2700 H2677 0.950 . S
C2700 C2699 1.397 . S
C2700 C2701 1.334 . S
C2701 H2678 0.950 . S
C2701 C2700 1.334 . S
C2701 C2702 1.287 . S
C2702 C2701 1.287 . S
C2702 C2703 1.524 . S
C2702 H2721 0.913 . S
C2703 H2679 0.950 . S
C2703 C2702 1.524 . S
C2703 C2704 1.415 . S
C2704 H2680 0.950 . S
C2704 C2699 1.363 . S
C2704 C2703 1.415 . S
C2705 H2681 0.951 . S
C2705 C2706 1.366 . S
C2705 C2707 1.388 . S
C2706 C2705 1.366 . S
C2706 C2710 1.385 . S
C2707 H2682 0.951 . S
C2707 C2705 1.388 . S
C2707 C2708 1.366 . S
C2708 C2707 1.366 . S
C2708 C2709 1.414 . S
C2708 C2711 1.499 . S
C2709 H2683 0.950 . S
C2709 C2708 1.414 . S
C2709 C2710 1.374 . S
C2710 H2684 0.950 . S
C2710 C2706 1.385 . S
C2710 C2709 1.374 . S
C2711 C2708 1.499 . S
C2711 C2712 1.373 . S
C2711 C2713 1.389 . S
C2712 H2685 0.950 . S
C2712 C2698 1.377 . S
C2712 C2711 1.373 . S
C2713 C2697 1.377 . S
C2713 C2711 1.389 . S
C2713 C2714 1.524 . S
C2714 C2713 1.524 . S
C2714 C2715 1.397 . S
C2714 C2719 1.363 . S
C2715 H2686 0.950 . S
C2715 C2714 1.397 . S
C2715 C2716 1.334 . S
C2716 H2687 0.950 . S
C2716 C2715 1.334 . S
C2716 C2717 1.287 . S
C2717 C2716 1.287 . S
C2717 C2718 1.524 . S
C2717 H2720 0.999 . S
C2718 H2688 0.950 . S
C2718 C2717 1.524 . S
C2718 C2719 1.415 . S
C2719 H2689 0.950 . S
C2719 C2714 1.363 . S
C2719 C2718 1.415 . S
H2720 C2717 0.999 . S
H2721 C2702 0.913 . S
H2722 C2740 0.951 . S
H2723 C2742 0.951 . S
H2724 C2744 0.950 . S
H2725 C2745 0.950 . S
H2726 C2747 0.950 . S
H2727 C2750 0.950 . S
H2728 C2751 0.950 . S
H2729 C2753 0.950 . S
H2730 C2754 0.950 . S
H2731 C2755 0.951 . S
H2732 C2757 0.951 . S
H2733 C2759 0.950 . S
H2734 C2760 0.950 . S
H2735 C2762 0.950 . S
H2736 C2765 0.950 . S
H2737 C2766 0.950 . S
H2738 C2768 0.950 . S
H2739 C2769 0.950 . S
C2740 H2722 0.951 . S
C2740 C2741 1.366 . S
C2740 C2742 1.388 . S
C2741 C2740 1.366 . S
C2741 C2745 1.385 . S
C2742 H2723 0.951 . S
C2742 C2740 1.388 . S
C2742 C2743 1.366 . S
C2743 C2742 1.366 . S
C2743 C2744 1.414 . S
C2743 C2746 1.499 . S
C2744 H2724 0.950 . S
C2744 C2743 1.414 . S
C2744 C2745 1.374 . S
C2745 H2725 0.950 . S
C2745 C2741 1.385 . S
C2745 C2744 1.374 . S
C2746 C2743 1.499 . S
C2746 C2747 1.373 . S
C2746 C2748 1.389 . S
C2747 H2726 0.950 . S
C2747 C2746 1.373 . S
C2747 C2763 1.377 . S
C2748 C2746 1.389 . S
C2748 C2749 1.524 . S
C2748 C2762 1.377 . S
C2749 C2748 1.524 . S
C2749 C2750 1.397 . S
C2749 C2754 1.363 . S
C2750 H2727 0.950 . S
C2750 C2749 1.397 . S
C2750 C2751 1.334 . S
C2751 H2728 0.950 . S
C2751 C2750 1.334 . S
C2751 C2752 1.287 . S
C2752 C2751 1.287 . S
C2752 C2753 1.524 . S
C2752 H2771 0.913 . S
C2753 H2729 0.950 . S
C2753 C2752 1.524 . S
C2753 C2754 1.415 . S
C2754 H2730 0.950 . S
C2754 C2749 1.363 . S
C2754 C2753 1.415 . S
C2755 H2731 0.951 . S
C2755 C2756 1.366 . S
C2755 C2757 1.388 . S
C2756 C2755 1.366 . S
C2756 C2760 1.385 . S
C2757 H2732 0.951 . S
C2757 C2755 1.388 . S
C2757 C2758 1.366 . S
C2758 C2757 1.366 . S
C2758 C2759 1.414 . S
C2758 C2761 1.499 . S
C2759 H2733 0.950 . S
C2759 C2758 1.414 . S
C2759 C2760 1.374 . S
C2760 H2734 0.950 . S
C2760 C2756 1.385 . S
C2760 C2759 1.374 . S
C2761 C2758 1.499 . S
C2761 C2762 1.373 . S
C2761 C2763 1.389 . S
C2762 H2735 0.950 . S
C2762 C2748 1.377 . S
C2762 C2761 1.373 . S
C2763 C2747 1.377 . S
C2763 C2761 1.389 . S
C2763 C2764 1.524 . S
C2764 C2763 1.524 . S
C2764 C2765 1.397 . S
C2764 C2769 1.363 . S
C2765 H2736 0.950 . S
C2765 C2764 1.397 . S
C2765 C2766 1.334 . S
C2766 H2737 0.950 . S
C2766 C2765 1.334 . S
C2766 C2767 1.287 . S
C2767 C2766 1.287 . S
C2767 C2768 1.524 . S
C2767 H2770 0.999 . S
C2768 H2738 0.950 . S
C2768 C2767 1.524 . S
C2768 C2769 1.415 . S
C2769 H2739 0.950 . S
C2769 C2764 1.363 . S
C2769 C2768 1.415 . S
H2770 C2767 0.999 . S
H2771 C2752 0.913 . S
H2772 C2790 0.951 . S
H2773 C2792 0.951 . S
H2774 C2794 0.950 . S
H2775 C2795 0.950 . S
H2776 C2797 0.950 . S
H2777 C2800 0.950 . S
H2778 C2801 0.950 . S
H2779 C2803 0.950 . S
H2780 C2804 0.950 . S
H2781 C2805 0.951 . S
H2782 C2807 0.951 . S
H2783 C2809 0.950 . S
H2784 C2810 0.950 . S
H2785 C2812 0.950 . S
H2786 C2815 0.950 . S
H2787 C2816 0.950 . S
H2788 C2818 0.950 . S
H2789 C2819 0.950 . S
C2790 H2772 0.951 . S
C2790 C2791 1.366 . S
C2790 C2792 1.388 . S
C2791 C2790 1.366 . S
C2791 C2795 1.385 . S
C2792 H2773 0.951 . S
C2792 C2790 1.388 . S
C2792 C2793 1.366 . S
C2793 C2792 1.366 . S
C2793 C2794 1.414 . S
C2793 C2796 1.499 . S
C2794 H2774 0.950 . S
C2794 C2793 1.414 . S
C2794 C2795 1.374 . S
C2795 H2775 0.950 . S
C2795 C2791 1.385 . S
C2795 C2794 1.374 . S
C2796 C2793 1.499 . S
C2796 C2797 1.373 . S
C2796 C2798 1.389 . S
C2797 H2776 0.950 . S
C2797 C2796 1.373 . S
C2797 C2813 1.377 . S
C2798 C2796 1.389 . S
C2798 C2799 1.524 . S
C2798 C2812 1.377 . S
C2799 C2798 1.524 . S
C2799 C2800 1.397 . S
C2799 C2804 1.363 . S
C2800 H2777 0.950 . S
C2800 C2799 1.397 . S
C2800 C2801 1.334 . S
C2801 H2778 0.950 . S
C2801 C2800 1.334 . S
C2801 C2802 1.287 . S
C2802 C2801 1.287 . S
C2802 C2803 1.524 . S
C2802 H2821 0.913 . S
C2803 H2779 0.950 . S
C2803 C2802 1.524 . S
C2803 C2804 1.415 . S
C2804 H2780 0.950 . S
C2804 C2799 1.363 . S
C2804 C2803 1.415 . S
C2805 H2781 0.951 . S
C2805 C2806 1.366 . S
C2805 C2807 1.388 . S
C2806 C2805 1.366 . S
C2806 C2810 1.385 . S
C2807 H2782 0.951 . S
C2807 C2805 1.388 . S
C2807 C2808 1.366 . S
C2808 C2807 1.366 . S
C2808 C2809 1.414 . S
C2808 C2811 1.499 . S
C2809 H2783 0.950 . S
C2809 C2808 1.414 . S
C2809 C2810 1.374 . S
C2810 H2784 0.950 . S
C2810 C2806 1.385 . S
C2810 C2809 1.374 . S
C2811 C2808 1.499 . S
C2811 C2812 1.373 . S
C2811 C2813 1.389 . S
C2812 H2785 0.950 . S
C2812 C2798 1.377 . S
C2812 C2811 1.373 . S
C2813 C2797 1.377 . S
C2813 C2811 1.389 . S
C2813 C2814 1.524 . S
C2814 C2813 1.524 . S
C2814 C2815 1.397 . S
C2814 C2819 1.363 . S
C2815 H2786 0.950 . S
C2815 C2814 1.397 . S
C2815 C2816 1.334 . S
C2816 H2787 0.950 . S
C2816 C2815 1.334 . S
C2816 C2817 1.287 . S
C2817 C2816 1.287 . S
C2817 C2818 1.524 . S
C2817 H2820 0.999 . S
C2818 H2788 0.950 . S
C2818 C2817 1.524 . S
C2818 C2819 1.415 . S
C2819 H2789 0.950 . S
C2819 C2814 1.363 . S
C2819 C2818 1.415 . S
H2820 C2817 0.999 . S
H2821 C2802 0.913 . S
H2822 C2840 0.951 . S
H2823 C2842 0.951 . S
H2824 C2844 0.950 . S
H2825 C2845 0.950 . S
H2826 C2847 0.950 . S
H2827 C2850 0.950 . S
H2828 C2851 0.950 . S
H2829 C2853 0.950 . S
H2830 C2854 0.950 . S
H2831 C2855 0.951 . S
H2832 C2857 0.951 . S
H2833 C2859 0.950 . S
H2834 C2860 0.950 . S
H2835 C2862 0.950 . S
H2836 C2865 0.950 . S
H2837 C2866 0.950 . S
H2838 C2868 0.950 . S
H2839 C2869 0.950 . S
C2840 H2822 0.951 . S
C2840 C2841 1.366 . S
C2840 C2842 1.388 . S
C2841 C2840 1.366 . S
C2841 C2845 1.385 . S
C2842 H2823 0.951 . S
C2842 C2840 1.388 . S
C2842 C2843 1.366 . S
C2843 C2842 1.366 . S
C2843 C2844 1.414 . S
C2843 C2846 1.499 . S
C2844 H2824 0.950 . S
C2844 C2843 1.414 . S
C2844 C2845 1.374 . S
C2845 H2825 0.950 . S
C2845 C2841 1.385 . S
C2845 C2844 1.374 . S
C2846 C2843 1.499 . S
C2846 C2847 1.373 . S
C2846 C2848 1.389 . S
C2847 H2826 0.950 . S
C2847 C2846 1.373 . S
C2847 C2863 1.377 . S
C2848 C2846 1.389 . S
C2848 C2849 1.524 . S
C2848 C2862 1.377 . S
C2849 C2848 1.524 . S
C2849 C2850 1.397 . S
C2849 C2854 1.363 . S
C2850 H2827 0.950 . S
C2850 C2849 1.397 . S
C2850 C2851 1.334 . S
C2851 H2828 0.950 . S
C2851 C2850 1.334 . S
C2851 C2852 1.287 . S
C2852 C2851 1.287 . S
C2852 C2853 1.524 . S
C2852 H2871 0.913 . S
C2853 H2829 0.950 . S
C2853 C2852 1.524 . S
C2853 C2854 1.415 . S
C2854 H2830 0.950 . S
C2854 C2849 1.363 . S
C2854 C2853 1.415 . S
C2855 H2831 0.951 . S
C2855 C2856 1.366 . S
C2855 C2857 1.388 . S
C2856 C2855 1.366 . S
C2856 C2860 1.385 . S
C2857 H2832 0.951 . S
C2857 C2855 1.388 . S
C2857 C2858 1.366 . S
C2858 C2857 1.366 . S
C2858 C2859 1.414 . S
C2858 C2861 1.499 . S
C2859 H2833 0.950 . S
C2859 C2858 1.414 . S
C2859 C2860 1.374 . S
C2860 H2834 0.950 . S
C2860 C2856 1.385 . S
C2860 C2859 1.374 . S
C2861 C2858 1.499 . S
C2861 C2862 1.373 . S
C2861 C2863 1.389 . S
C2862 H2835 0.950 . S
C2862 C2848 1.377 . S
C2862 C2861 1.373 . S
C2863 C2847 1.377 . S
C2863 C2861 1.389 . S
C2863 C2864 1.524 . S
C2864 C2863 1.524 . S
C2864 C2865 1.397 . S
C2864 C2869 1.363 . S
C2865 H2836 0.950 . S
C2865 C2864 1.397 . S
C2865 C2866 1.334 . S
C2866 H2837 0.950 . S
C2866 C2865 1.334 . S
C2866 C2867 1.287 . S
C2867 C2866 1.287 . S
C2867 C2868 1.524 . S
C2867 H2870 0.999 . S
C2868 H2838 0.950 . S
C2868 C2867 1.524 . S
C2868 C2869 1.415 . S
C2869 H2839 0.950 . S
C2869 C2864 1.363 . S
C2869 C2868 1.415 . S
H2870 C2867 0.999 . S
H2871 C2852 0.913 . S
H2872 C2890 0.951 . S
H2873 C2892 0.951 . S
H2874 C2894 0.950 . S
H2875 C2895 0.950 . S
H2876 C2897 0.950 . S
H2877 C2900 0.950 . S
H2878 C2901 0.950 . S
H2879 C2903 0.950 . S
H2880 C2904 0.950 . S
H2881 C2905 0.951 . S
H2882 C2907 0.951 . S
H2883 C2909 0.950 . S
H2884 C2910 0.950 . S
H2885 C2912 0.950 . S
H2886 C2915 0.950 . S
H2887 C2916 0.950 . S
H2888 C2918 0.950 . S
H2889 C2919 0.950 . S
C2890 H2872 0.951 . S
C2890 C2891 1.366 . S
C2890 C2892 1.388 . S
C2891 C2890 1.366 . S
C2891 C2895 1.385 . S
C2892 H2873 0.951 . S
C2892 C2890 1.388 . S
C2892 C2893 1.366 . S
C2893 C2892 1.366 . S
C2893 C2894 1.414 . S
C2893 C2896 1.499 . S
C2894 H2874 0.950 . S
C2894 C2893 1.414 . S
C2894 C2895 1.374 . S
C2895 H2875 0.950 . S
C2895 C2891 1.385 . S
C2895 C2894 1.374 . S
C2896 C2893 1.499 . S
C2896 C2897 1.373 . S
C2896 C2898 1.389 . S
C2897 H2876 0.950 . S
C2897 C2896 1.373 . S
C2897 C2913 1.377 . S
C2898 C2896 1.389 . S
C2898 C2899 1.524 . S
C2898 C2912 1.377 . S
C2899 C2898 1.524 . S
C2899 C2900 1.397 . S
C2899 C2904 1.363 . S
C2900 H2877 0.950 . S
C2900 C2899 1.397 . S
C2900 C2901 1.334 . S
C2901 H2878 0.950 . S
C2901 C2900 1.334 . S
C2901 C2902 1.287 . S
C2902 C2901 1.287 . S
C2902 C2903 1.524 . S
C2902 H2921 0.913 . S
C2903 H2879 0.950 . S
C2903 C2902 1.524 . S
C2903 C2904 1.415 . S
C2904 H2880 0.950 . S
C2904 C2899 1.363 . S
C2904 C2903 1.415 . S
C2905 H2881 0.951 . S
C2905 C2906 1.366 . S
C2905 C2907 1.388 . S
C2906 C2905 1.366 . S
C2906 C2910 1.385 . S
C2907 H2882 0.951 . S
C2907 C2905 1.388 . S
C2907 C2908 1.366 . S
C2908 C2907 1.366 . S
C2908 C2909 1.414 . S
C2908 C2911 1.499 . S
C2909 H2883 0.950 . S
C2909 C2908 1.414 . S
C2909 C2910 1.374 . S
C2910 H2884 0.950 . S
C2910 C2906 1.385 . S
C2910 C2909 1.374 . S
C2911 C2908 1.499 . S
C2911 C2912 1.373 . S
C2911 C2913 1.389 . S
C2912 H2885 0.950 . S
C2912 C2898 1.377 . S
C2912 C2911 1.373 . S
C2913 C2897 1.377 . S
C2913 C2911 1.389 . S
C2913 C2914 1.524 . S
C2914 C2913 1.524 . S
C2914 C2915 1.397 . S
C2914 C2919 1.363 . S
C2915 H2886 0.950 . S
C2915 C2914 1.397 . S
C2915 C2916 1.334 . S
C2916 H2887 0.950 . S
C2916 C2915 1.334 . S
C2916 C2917 1.287 . S
C2917 C2916 1.287 . S
C2917 C2918 1.524 . S
C2917 H2920 0.999 . S
C2918 H2888 0.950 . S
C2918 C2917 1.524 . S
C2918 C2919 1.415 . S
C2919 H2889 0.950 . S
C2919 C2914 1.363 . S
C2919 C2918 1.415 . S
H2920 C2917 0.999 . S
H2921 C2902 0.913 . S
H2922 C2940 0.951 . S
H2923 C2942 0.951 . S
H2924 C2944 0.950 . S
H2925 C2945 0.950 . S
H2926 C2947 0.950 . S
H2927 C2950 0.950 . S
H2928 C2951 0.950 . S
H2929 C2953 0.950 . S
H2930 C2954 0.950 . S
H2931 C2955 0.951 . S
H2932 C2957 0.951 . S
H2933 C2959 0.950 . S
H2934 C2960 0.950 . S
H2935 C2962 0.950 . S
H2936 C2965 0.950 . S
H2937 C2966 0.950 . S
H2938 C2968 0.950 . S
H2939 C2969 0.950 . S
C2940 H2922 0.951 . S
C2940 C2941 1.366 . S
C2940 C2942 1.388 . S
C2941 C2940 1.366 . S
C2941 C2945 1.385 . S
C2942 H2923 0.951 . S
C2942 C2940 1.388 . S
C2942 C2943 1.366 . S
C2943 C2942 1.366 . S
C2943 C2944 1.414 . S
C2943 C2946 1.499 . S
C2944 H2924 0.950 . S
C2944 C2943 1.414 . S
C2944 C2945 1.374 . S
C2945 H2925 0.950 . S
C2945 C2941 1.385 . S
C2945 C2944 1.374 . S
C2946 C2943 1.499 . S
C2946 C2947 1.373 . S
C2946 C2948 1.389 . S
C2947 H2926 0.950 . S
C2947 C2946 1.373 . S
C2947 C2963 1.377 . S
C2948 C2946 1.389 . S
C2948 C2949 1.524 . S
C2948 C2962 1.377 . S
C2949 C2948 1.524 . S
C2949 C2950 1.397 . S
C2949 C2954 1.363 . S
C2950 H2927 0.950 . S
C2950 C2949 1.397 . S
C2950 C2951 1.334 . S
C2951 H2928 0.950 . S
C2951 C2950 1.334 . S
C2951 C2952 1.287 . S
C2952 C2951 1.287 . S
C2952 C2953 1.524 . S
C2952 H2971 0.913 . S
C2953 H2929 0.950 . S
C2953 C2952 1.524 . S
C2953 C2954 1.415 . S
C2954 H2930 0.950 . S
C2954 C2949 1.363 . S
C2954 C2953 1.415 . S
C2955 H2931 0.951 . S
C2955 C2956 1.366 . S
C2955 C2957 1.388 . S
C2956 C2955 1.366 . S
C2956 C2960 1.385 . S
C2957 H2932 0.951 . S
C2957 C2955 1.388 . S
C2957 C2958 1.366 . S
C2958 C2957 1.366 . S
C2958 C2959 1.414 . S
C2958 C2961 1.499 . S
C2959 H2933 0.950 . S
C2959 C2958 1.414 . S
C2959 C2960 1.374 . S
C2960 H2934 0.950 . S
C2960 C2956 1.385 . S
C2960 C2959 1.374 . S
C2961 C2958 1.499 . S
C2961 C2962 1.373 . S
C2961 C2963 1.389 . S
C2962 H2935 0.950 . S
C2962 C2948 1.377 . S
C2962 C2961 1.373 . S
C2963 C2947 1.377 . S
C2963 C2961 1.389 . S
C2963 C2964 1.524 . S
C2964 C2963 1.524 . S
C2964 C2965 1.397 . S
C2964 C2969 1.363 . S
C2965 H2936 0.950 . S
C2965 C2964 1.397 . S
C2965 C2966 1.334 . S
C2966 H2937 0.950 . S
C2966 C2965 1.334 . S
C2966 C2967 1.287 . S
C2967 C2966 1.287 . S
C2967 C2968 1.524 . S
C2967 H2970 0.999 . S
C2968 H2938 0.950 . S
C2968 C2967 1.524 . S
C2968 C2969 1.415 . S
C2969 H2939 0.950 . S
C2969 C2964 1.363 . S
C2969 C2968 1.415 . S
H2970 C2967 0.999 . S
H2971 C2952 0.913 . S
H2972 C2990 0.951 . S
H2973 C2992 0.951 . S
H2974 C2994 0.950 . S
H2975 C2995 0.950 . S
H2976 C2997 0.950 . S
H2977 C3000 0.950 . S
H2978 C3001 0.950 . S
H2979 C3003 0.950 . S
H2980 C3004 0.950 . S
H2981 C3005 0.951 . S
H2982 C3007 0.951 . S
H2983 C3009 0.950 . S
H2984 C3010 0.950 . S
H2985 C3012 0.950 . S
H2986 C3015 0.950 . S
H2987 C3016 0.950 . S
H2988 C3018 0.950 . S
H2989 C3019 0.950 . S
C2990 H2972 0.951 . S
C2990 C2991 1.366 . S
C2990 C2992 1.388 . S
C2991 C2990 1.366 . S
C2991 C2995 1.385 . S
C2992 H2973 0.951 . S
C2992 C2990 1.388 . S
C2992 C2993 1.366 . S
C2993 C2992 1.366 . S
C2993 C2994 1.414 . S
C2993 C2996 1.499 . S
C2994 H2974 0.950 . S
C2994 C2993 1.414 . S
C2994 C2995 1.374 . S
C2995 H2975 0.950 . S
C2995 C2991 1.385 . S
C2995 C2994 1.374 . S
C2996 C2993 1.499 . S
C2996 C2997 1.373 . S
C2996 C2998 1.389 . S
C2997 H2976 0.950 . S
C2997 C2996 1.373 . S
C2997 C3013 1.377 . S
C2998 C2996 1.389 . S
C2998 C2999 1.524 . S
C2998 C3012 1.377 . S
C2999 C2998 1.524 . S
C2999 C3000 1.397 . S
C2999 C3004 1.363 . S
C3000 H2977 0.950 . S
C3000 C2999 1.397 . S
C3000 C3001 1.334 . S
C3001 H2978 0.950 . S
C3001 C3000 1.334 . S
C3001 C3002 1.287 . S
C3002 C3001 1.287 . S
C3002 C3003 1.524 . S
C3002 H3021 0.913 . S
C3003 H2979 0.950 . S
C3003 C3002 1.524 . S
C3003 C3004 1.415 . S
C3004 H2980 0.950 . S
C3004 C2999 1.363 . S
C3004 C3003 1.415 . S
C3005 H2981 0.951 . S
C3005 C3006 1.366 . S
C3005 C3007 1.388 . S
C3006 C3005 1.366 . S
C3006 C3010 1.385 . S
C3007 H2982 0.951 . S
C3007 C3005 1.388 . S
C3007 C3008 1.366 . S
C3008 C3007 1.366 . S
C3008 C3009 1.414 . S
C3008 C3011 1.499 . S
C3009 H2983 0.950 . S
C3009 C3008 1.414 . S
C3009 C3010 1.374 . S
C3010 H2984 0.950 . S
C3010 C3006 1.385 . S
C3010 C3009 1.374 . S
C3011 C3008 1.499 . S
C3011 C3012 1.373 . S
C3011 C3013 1.389 . S
C3012 H2985 0.950 . S
C3012 C2998 1.377 . S
C3012 C3011 1.373 . S
C3013 C2997 1.377 . S
C3013 C3011 1.389 . S
C3013 C3014 1.524 . S
C3014 C3013 1.524 . S
C3014 C3015 1.397 . S
C3014 C3019 1.363 . S
C3015 H2986 0.950 . S
C3015 C3014 1.397 . S
C3015 C3016 1.334 . S
C3016 H2987 0.950 . S
C3016 C3015 1.334 . S
C3016 C3017 1.287 . S
C3017 C3016 1.287 . S
C3017 C3018 1.524 . S
C3017 H3020 0.999 . S
C3018 H2988 0.950 . S
C3018 C3017 1.524 . S
C3018 C3019 1.415 . S
C3019 H2989 0.950 . S
C3019 C3014 1.363 . S
C3019 C3018 1.415 . S
H3020 C3017 0.999 . S
H3021 C3002 0.913 . S
H3022 C3040 0.951 . S
H3023 C3042 0.951 . S
H3024 C3044 0.950 . S
H3025 C3045 0.950 . S
H3026 C3047 0.950 . S
H3027 C3050 0.950 . S
H3028 C3051 0.950 . S
H3029 C3053 0.950 . S
H3030 C3054 0.950 . S
H3031 C3055 0.951 . S
H3032 C3057 0.951 . S
H3033 C3059 0.950 . S
H3034 C3060 0.950 . S
H3035 C3062 0.950 . S
H3036 C3065 0.950 . S
H3037 C3066 0.950 . S
H3038 C3068 0.950 . S
H3039 C3069 0.950 . S
C3040 H3022 0.951 . S
C3040 C3041 1.366 . S
C3040 C3042 1.388 . S
C3041 C3040 1.366 . S
C3041 C3045 1.385 . S
C3042 H3023 0.951 . S
C3042 C3040 1.388 . S
C3042 C3043 1.366 . S
C3043 C3042 1.366 . S
C3043 C3044 1.414 . S
C3043 C3046 1.499 . S
C3044 H3024 0.950 . S
C3044 C3043 1.414 . S
C3044 C3045 1.374 . S
C3045 H3025 0.950 . S
C3045 C3041 1.385 . S
C3045 C3044 1.374 . S
C3046 C3043 1.499 . S
C3046 C3047 1.373 . S
C3046 C3048 1.389 . S
C3047 H3026 0.950 . S
C3047 C3046 1.373 . S
C3047 C3063 1.377 . S
C3048 C3046 1.389 . S
C3048 C3049 1.524 . S
C3048 C3062 1.377 . S
C3049 C3048 1.524 . S
C3049 C3050 1.397 . S
C3049 C3054 1.363 . S
C3050 H3027 0.950 . S
C3050 C3049 1.397 . S
C3050 C3051 1.334 . S
C3051 H3028 0.950 . S
C3051 C3050 1.334 . S
C3051 C3052 1.287 . S
C3052 C3051 1.287 . S
C3052 C3053 1.524 . S
C3052 H3071 0.913 . S
C3053 H3029 0.950 . S
C3053 C3052 1.524 . S
C3053 C3054 1.415 . S
C3054 H3030 0.950 . S
C3054 C3049 1.363 . S
C3054 C3053 1.415 . S
C3055 H3031 0.951 . S
C3055 C3056 1.366 . S
C3055 C3057 1.388 . S
C3056 C3055 1.366 . S
C3056 C3060 1.385 . S
C3057 H3032 0.951 . S
C3057 C3055 1.388 . S
C3057 C3058 1.366 . S
C3058 C3057 1.366 . S
C3058 C3059 1.414 . S
C3058 C3061 1.499 . S
C3059 H3033 0.950 . S
C3059 C3058 1.414 . S
C3059 C3060 1.374 . S
C3060 H3034 0.950 . S
C3060 C3056 1.385 . S
C3060 C3059 1.374 . S
C3061 C3058 1.499 . S
C3061 C3062 1.373 . S
C3061 C3063 1.389 . S
C3062 H3035 0.950 . S
C3062 C3048 1.377 . S
C3062 C3061 1.373 . S
C3063 C3047 1.377 . S
C3063 C3061 1.389 . S
C3063 C3064 1.524 . S
C3064 C3063 1.524 . S
C3064 C3065 1.397 . S
C3064 C3069 1.363 . S
C3065 H3036 0.950 . S
C3065 C3064 1.397 . S
C3065 C3066 1.334 . S
C3066 H3037 0.950 . S
C3066 C3065 1.334 . S
C3066 C3067 1.287 . S
C3067 C3066 1.287 . S
C3067 C3068 1.524 . S
C3067 H3070 0.999 . S
C3068 H3038 0.950 . S
C3068 C3067 1.524 . S
C3068 C3069 1.415 . S
C3069 H3039 0.950 . S
C3069 C3064 1.363 . S
C3069 C3068 1.415 . S
H3070 C3067 0.999 . S
H3071 C3052 0.913 . S
H3072 C3090 0.951 . S
H3073 C3092 0.951 . S
H3074 C3094 0.950 . S
H3075 C3095 0.950 . S
H3076 C3097 0.950 . S
H3077 C3100 0.950 . S
H3078 C3101 0.950 . S
H3079 C3103 0.950 . S
H3080 C3104 0.950 . S
H3081 C3105 0.951 . S
H3082 C3107 0.951 . S
H3083 C3109 0.950 . S
H3084 C3110 0.950 . S
H3085 C3112 0.950 . S
H3086 C3115 0.950 . S
H3087 C3116 0.950 . S
H3088 C3118 0.950 . S
H3089 C3119 0.950 . S
C3090 H3072 0.951 . S
C3090 C3091 1.366 . S
C3090 C3092 1.388 . S
C3091 C3090 1.366 . S
C3091 C3095 1.385 . S
C3092 H3073 0.951 . S
C3092 C3090 1.388 . S
C3092 C3093 1.366 . S
C3093 C3092 1.366 . S
C3093 C3094 1.414 . S
C3093 C3096 1.499 . S
C3094 H3074 0.950 . S
C3094 C3093 1.414 . S
C3094 C3095 1.374 . S
C3095 H3075 0.950 . S
C3095 C3091 1.385 . S
C3095 C3094 1.374 . S
C3096 C3093 1.499 . S
C3096 C3097 1.373 . S
C3096 C3098 1.389 . S
C3097 H3076 0.950 . S
C3097 C3096 1.373 . S
C3097 C3113 1.377 . S
C3098 C3096 1.389 . S
C3098 C3099 1.524 . S
C3098 C3112 1.377 . S
C3099 C3098 1.524 . S
C3099 C3100 1.397 . S
C3099 C3104 1.363 . S
C3100 H3077 0.950 . S
C3100 C3099 1.397 . S
C3100 C3101 1.334 . S
C3101 H3078 0.950 . S
C3101 C3100 1.334 . S
C3101 C3102 1.287 . S
C3102 C3101 1.287 . S
C3102 C3103 1.524 . S
C3102 H3121 0.913 . S
C3103 H3079 0.950 . S
C3103 C3102 1.524 . S
C3103 C3104 1.415 . S
C3104 H3080 0.950 . S
C3104 C3099 1.363 . S
C3104 C3103 1.415 . S
C3105 H3081 0.951 . S
C3105 C3106 1.366 . S
C3105 C3107 1.388 . S
C3106 C3105 1.366 . S
C3106 C3110 1.385 . S
C3107 H3082 0.951 . S
C3107 C3105 1.388 . S
C3107 C3108 1.366 . S
C3108 C3107 1.366 . S
C3108 C3109 1.414 . S
C3108 C3111 1.499 . S
C3109 H3083 0.950 . S
C3109 C3108 1.414 . S
C3109 C3110 1.374 . S
C3110 H3084 0.950 . S
C3110 C3106 1.385 . S
C3110 C3109 1.374 . S
C3111 C3108 1.499 . S
C3111 C3112 1.373 . S
C3111 C3113 1.389 . S
C3112 H3085 0.950 . S
C3112 C3098 1.377 . S
C3112 C3111 1.373 . S
C3113 C3097 1.377 . S
C3113 C3111 1.389 . S
C3113 C3114 1.524 . S
C3114 C3113 1.524 . S
C3114 C3115 1.397 . S
C3114 C3119 1.363 . S
C3115 H3086 0.950 . S
C3115 C3114 1.397 . S
C3115 C3116 1.334 . S
C3116 H3087 0.950 . S
C3116 C3115 1.334 . S
C3116 C3117 1.287 . S
C3117 C3116 1.287 . S
C3117 C3118 1.524 . S
C3117 H3120 0.999 . S
C3118 H3088 0.950 . S
C3118 C3117 1.524 . S
C3118 C3119 1.415 . S
C3119 H3089 0.950 . S
C3119 C3114 1.363 . S
C3119 C3118 1.415 . S
H3120 C3117 0.999 . S
H3121 C3102 0.913 . S
H3122 C3140 0.951 . S
H3123 C3142 0.951 . S
H3124 C3144 0.950 . S
H3125 C3145 0.950 . S
H3126 C3147 0.950 . S
H3127 C3150 0.950 . S
H3128 C3151 0.950 . S
H3129 C3153 0.950 . S
H3130 C3154 0.950 . S
H3131 C3155 0.951 . S
H3132 C3157 0.951 . S
H3133 C3159 0.950 . S
H3134 C3160 0.950 . S
H3135 C3162 0.950 . S
H3136 C3165 0.950 . S
H3137 C3166 0.950 . S
H3138 C3168 0.950 . S
H3139 C3169 0.950 . S
C3140 H3122 0.951 . S
C3140 C3141 1.366 . S
C3140 C3142 1.388 . S
C3141 C3140 1.366 . S
C3141 C3145 1.385 . S
C3142 H3123 0.951 . S
C3142 C3140 1.388 . S
C3142 C3143 1.366 . S
C3143 C3142 1.366 . S
C3143 C3144 1.414 . S
C3143 C3146 1.499 . S
C3144 H3124 0.950 . S
C3144 C3143 1.414 . S
C3144 C3145 1.374 . S
C3145 H3125 0.950 . S
C3145 C3141 1.385 . S
C3145 C3144 1.374 . S
C3146 C3143 1.499 . S
C3146 C3147 1.373 . S
C3146 C3148 1.389 . S
C3147 H3126 0.950 . S
C3147 C3146 1.373 . S
C3147 C3163 1.377 . S
C3148 C3146 1.389 . S
C3148 C3149 1.524 . S
C3148 C3162 1.377 . S
C3149 C3148 1.524 . S
C3149 C3150 1.397 . S
C3149 C3154 1.363 . S
C3150 H3127 0.950 . S
C3150 C3149 1.397 . S
C3150 C3151 1.334 . S
C3151 H3128 0.950 . S
C3151 C3150 1.334 . S
C3151 C3152 1.287 . S
C3152 C3151 1.287 . S
C3152 C3153 1.524 . S
C3152 H3171 0.913 . S
C3153 H3129 0.950 . S
C3153 C3152 1.524 . S
C3153 C3154 1.415 . S
C3154 H3130 0.950 . S
C3154 C3149 1.363 . S
C3154 C3153 1.415 . S
C3155 H3131 0.951 . S
C3155 C3156 1.366 . S
C3155 C3157 1.388 . S
C3156 C3155 1.366 . S
C3156 C3160 1.385 . S
C3157 H3132 0.951 . S
C3157 C3155 1.388 . S
C3157 C3158 1.366 . S
C3158 C3157 1.366 . S
C3158 C3159 1.414 . S
C3158 C3161 1.499 . S
C3159 H3133 0.950 . S
C3159 C3158 1.414 . S
C3159 C3160 1.374 . S
C3160 H3134 0.950 . S
C3160 C3156 1.385 . S
C3160 C3159 1.374 . S
C3161 C3158 1.499 . S
C3161 C3162 1.373 . S
C3161 C3163 1.389 . S
C3162 H3135 0.950 . S
C3162 C3148 1.377 . S
C3162 C3161 1.373 . S
C3163 C3147 1.377 . S
C3163 C3161 1.389 . S
C3163 C3164 1.524 . S
C3164 C3163 1.524 . S
C3164 C3165 1.397 . S
C3164 C3169 1.363 . S
C3165 H3136 0.950 . S
C3165 C3164 1.397 . S
C3165 C3166 1.334 . S
C3166 H3137 0.950 . S
C3166 C3165 1.334 . S
C3166 C3167 1.287 . S
C3167 C3166 1.287 . S
C3167 C3168 1.524 . S
C3167 H3170 0.999 . S
C3168 H3138 0.950 . S
C3168 C3167 1.524 . S
C3168 C3169 1.415 . S
C3169 H3139 0.950 . S
C3169 C3164 1.363 . S
C3169 C3168 1.415 . S
H3170 C3167 0.999 . S
H3171 C3152 0.913 . S
H3172 C3190 0.951 . S
H3173 C3192 0.951 . S
H3174 C3194 0.950 . S
H3175 C3195 0.950 . S
H3176 C3197 0.950 . S
H3177 C3200 0.950 . S
H3178 C3201 0.950 . S
H3179 C3203 0.950 . S
H3180 C3204 0.950 . S
H3181 C3205 0.951 . S
H3182 C3207 0.951 . S
H3183 C3209 0.950 . S
H3184 C3210 0.950 . S
H3185 C3212 0.950 . S
H3186 C3215 0.950 . S
H3187 C3216 0.950 . S
H3188 C3218 0.950 . S
H3189 C3219 0.950 . S
C3190 H3172 0.951 . S
C3190 C3191 1.366 . S
C3190 C3192 1.388 . S
C3191 C3190 1.366 . S
C3191 C3195 1.385 . S
C3192 H3173 0.951 . S
C3192 C3190 1.388 . S
C3192 C3193 1.366 . S
C3193 C3192 1.366 . S
C3193 C3194 1.414 . S
C3193 C3196 1.499 . S
C3194 H3174 0.950 . S
C3194 C3193 1.414 . S
C3194 C3195 1.374 . S
C3195 H3175 0.950 . S
C3195 C3191 1.385 . S
C3195 C3194 1.374 . S
C3196 C3193 1.499 . S
C3196 C3197 1.373 . S
C3196 C3198 1.389 . S
C3197 H3176 0.950 . S
C3197 C3196 1.373 . S
C3197 C3213 1.377 . S
C3198 C3196 1.389 . S
C3198 C3199 1.524 . S
C3198 C3212 1.377 . S
C3199 C3198 1.524 . S
C3199 C3200 1.397 . S
C3199 C3204 1.363 . S
C3200 H3177 0.950 . S
C3200 C3199 1.397 . S
C3200 C3201 1.334 . S
C3201 H3178 0.950 . S
C3201 C3200 1.334 . S
C3201 C3202 1.287 . S
C3202 C3201 1.287 . S
C3202 C3203 1.524 . S
C3202 H3221 0.913 . S
C3203 H3179 0.950 . S
C3203 C3202 1.524 . S
C3203 C3204 1.415 . S
C3204 H3180 0.950 . S
C3204 C3199 1.363 . S
C3204 C3203 1.415 . S
C3205 H3181 0.951 . S
C3205 C3206 1.366 . S
C3205 C3207 1.388 . S
C3206 C3205 1.366 . S
C3206 C3210 1.385 . S
C3207 H3182 0.951 . S
C3207 C3205 1.388 . S
C3207 C3208 1.366 . S
C3208 C3207 1.366 . S
C3208 C3209 1.414 . S
C3208 C3211 1.499 . S
C3209 H3183 0.950 . S
C3209 C3208 1.414 . S
C3209 C3210 1.374 . S
C3210 H3184 0.950 . S
C3210 C3206 1.385 . S
C3210 C3209 1.374 . S
C3211 C3208 1.499 . S
C3211 C3212 1.373 . S
C3211 C3213 1.389 . S
C3212 H3185 0.950 . S
C3212 C3198 1.377 . S
C3212 C3211 1.373 . S
C3213 C3197 1.377 . S
C3213 C3211 1.389 . S
C3213 C3214 1.524 . S
C3214 C3213 1.524 . S
C3214 C3215 1.397 . S
C3214 C3219 1.363 . S
C3215 H3186 0.950 . S
C3215 C3214 1.397 . S
C3215 C3216 1.334 . S
C3216 H3187 0.950 . S
C3216 C3215 1.334 . S
C3216 C3217 1.287 . S
C3217 C3216 1.287 . S
C3217 C3218 1.524 . S
C3217 H3220 0.999 . S
C3218 H3188 0.950 . S
C3218 C3217 1.524 . S
C3218 C3219 1.415 . S
C3219 H3189 0.950 . S
C3219 C3214 1.363 . S
C3219 C3218 1.415 . S
H3220 C3217 0.999 . S
H3221 C3202 0.913 . S
C541 C124 1.542 . S
C556 C171 1.527 . S
C591 C130 1.745 . S
C606 C211 1.728 . S
C641 C115 1.563 . S
C656 C250 1.552 . S
C691 C106 1.457 . S
C706 C210 1.438 . S
C756 C251 1.412 . S
C741 C85 1.422 . S
C791 C97 1.248 . S
C806 C170 1.273 . S
C856 C181 1.554 . S
C841 C103 1.568 . S
C906 C221 1.703 . S
C891 C88 1.717 . S
C941 C94 1.563 . S
C956 C260 1.550 . S
C991 C121 1.456 . S
C1006 C220 1.435 . S
C1041 C133 1.394 . S
C1056 C261 1.383 . S
C1106 C180 1.274 . S
C1091 C112 1.274 . S
C1156 C291 1.528 . S
C1141 C16 1.543 . S
C1191 C22 1.745 . S
C1206 C331 1.728 . S
C1241 C7 1.563 . S
C1256 C370 1.553 . S
C1291 C160 1.456 . S
C1306 C330 1.437 . S
C1341 C139 1.422 . S
C1356 C371 1.411 . S
C1391 C151 1.248 . S
C1406 C290 1.248 . S
C1441 C157 1.568 . S
C1456 C301 1.554 . S
C1491 C142 1.717 . S
C1506 C341 1.702 . S
C1556 C380 1.551 . S
C1541 C148 1.564 . S
C1591 C13 1.456 . S
C1606 C340 1.436 . S
C1656 C381 1.384 . S
C1641 C25 1.394 . S
C1691 C4 1.274 . S
C1706 C300 1.273 . S
C1756 C411 1.527 . S
C1741 C70 1.542 . S
C1791 C76 1.745 . S
C1806 C451 1.728 . S
C1856 C490 1.553 . S
C1841 C61 1.564 . S
C1906 C450 1.437 . S
C1891 C52 1.456 . S
C1956 C491 1.411 . S
C1941 C31 1.422 . S
C1991 C43 1.248 . S
C2006 C410 1.248 . S
C2041 C49 1.569 . S
C2056 C421 1.555 . S
C2091 C34 1.717 . S
C2106 C461 1.703 . S
C2156 C500 1.551 . S
C2141 C40 1.564 . S
C2191 C67 1.456 . S
C2206 C460 1.435 . S
C2241 C79 1.394 . S
C2256 C501 1.384 . S
C2291 C58 1.274 . S
C2306 C420 1.273 . S
C2341 C140 1.327 . S
C2356 C167 1.321 . S
C2406 C207 1.773 . S
C2391 C149 1.768 . S
C2441 C158 1.548 . S
C2456 C257 1.551 . S
C2491 C59 1.791 . S
C2506 C217 1.797 . S
C2541 C68 1.523 . S
C2556 C247 1.527 . S
C2606 C177 1.320 . S
C2591 C77 1.326 . S
C2641 C32 1.327 . S
C2656 C287 1.321 . S
C2691 C41 1.768 . S
C2706 C327 1.773 . S
C2741 C50 1.548 . S
C2756 C377 1.551 . S
C2791 C113 1.791 . S
C2806 C337 1.797 . S
C2856 C367 1.527 . S
C2841 C122 1.523 . S
C2891 C131 1.326 . S
C2906 C297 1.320 . S
C2941 C86 1.327 . S
C2956 C407 1.321 . S
C2991 C95 1.767 . S
C3006 C447 1.773 . S
C3056 C497 1.551 . S
C3041 C104 1.547 . S
C3091 C5 1.791 . S
C3106 C457 1.797 . S
C3141 C14 1.523 . S
C3156 C487 1.527 . S
C3191 C23 1.326 . S
C3206 C417 1.320 . S
