# Generated by pormake.
# Topology zzz, (3,6)-cn, num edge types: 1
# Building blocks:
#     Node 0, Type 0, BuildingBlock: PAMTOO_clean_linker_0, # of connection points: 3
#     Node 1, Type 0, BuildingBlock: PAMTOO_clean_linker_0, # of connection points: 3
#     Node 2, Type 0, BuildingBlock: PAMTOO_clean_linker_0, # of connection points: 3
#     Node 3, Type 0, BuildingBlock: PAMTOO_clean_linker_0, # of connection points: 3
#     Node 4, Type 0, BuildingBlock: PAMTOO_clean_linker_0, # of connection points: 3
#     Node 5, Type 0, BuildingBlock: PAMTOO_clean_linker_0, # of connection points: 3
#     Node 6, Type 0, BuildingBlock: PAMTOO_clean_linker_0, # of connection points: 3
#     Node 7, Type 0, BuildingBlock: PAMTOO_clean_linker_0, # of connection points: 3
#     Node 8, Type 1, BuildingBlock: FUNLAD_clean_sbu_0, # of connection points: 6
#     Node 9, Type 1, BuildingBlock: FUNLAD_clean_sbu_0, # of connection points: 6
#     Node 10, Type 1, BuildingBlock: FUNLAD_clean_sbu_0, # of connection points: 6
#     Node 11, Type 1, BuildingBlock: FUNLAD_clean_sbu_0, # of connection points: 6
#     Edge 12, Type (0, 1), BuildingBlock: EZIPEK_clean_linker_0, # of connection points: 2
#     Edge 13, Type (0, 1), BuildingBlock: EZIPEK_clean_linker_0, # of connection points: 2
#     Edge 14, Type (0, 1), BuildingBlock: EZIPEK_clean_linker_0, # of connection points: 2
#     Edge 15, Type (0, 1), BuildingBlock: EZIPEK_clean_linker_0, # of connection points: 2
#     Edge 16, Type (0, 1), BuildingBlock: EZIPEK_clean_linker_0, # of connection points: 2
#     Edge 17, Type (0, 1), BuildingBlock: EZIPEK_clean_linker_0, # of connection points: 2
#     Edge 18, Type (0, 1), BuildingBlock: EZIPEK_clean_linker_0, # of connection points: 2
#     Edge 19, Type (0, 1), BuildingBlock: EZIPEK_clean_linker_0, # of connection points: 2
#     Edge 20, Type (0, 1), BuildingBlock: EZIPEK_clean_linker_0, # of connection points: 2
#     Edge 21, Type (0, 1), BuildingBlock: EZIPEK_clean_linker_0, # of connection points: 2
#     Edge 22, Type (0, 1), BuildingBlock: EZIPEK_clean_linker_0, # of connection points: 2
#     Edge 23, Type (0, 1), BuildingBlock: EZIPEK_clean_linker_0, # of connection points: 2
#     Edge 24, Type (0, 1), BuildingBlock: EZIPEK_clean_linker_0, # of connection points: 2
#     Edge 25, Type (0, 1), BuildingBlock: EZIPEK_clean_linker_0, # of connection points: 2
#     Edge 26, Type (0, 1), BuildingBlock: EZIPEK_clean_linker_0, # of connection points: 2
#     Edge 27, Type (0, 1), BuildingBlock: EZIPEK_clean_linker_0, # of connection points: 2
#     Edge 28, Type (0, 1), BuildingBlock: EZIPEK_clean_linker_0, # of connection points: 2
#     Edge 29, Type (0, 1), BuildingBlock: EZIPEK_clean_linker_0, # of connection points: 2
#     Edge 30, Type (0, 1), BuildingBlock: EZIPEK_clean_linker_0, # of connection points: 2
#     Edge 31, Type (0, 1), BuildingBlock: EZIPEK_clean_linker_0, # of connection points: 2
#     Edge 32, Type (0, 1), BuildingBlock: EZIPEK_clean_linker_0, # of connection points: 2
#     Edge 33, Type (0, 1), BuildingBlock: EZIPEK_clean_linker_0, # of connection points: 2
#     Edge 34, Type (0, 1), BuildingBlock: EZIPEK_clean_linker_0, # of connection points: 2
#     Edge 35, Type (0, 1), BuildingBlock: EZIPEK_clean_linker_0, # of connection points: 2
# Relax obj value: 0.110
# Max RMSD: 0.175
# Mean RMSD: 0.092
data_MOF--net-zzz--node1-FUNLAD_clean_sbu_0--node2-PAMTOO_clean_linker_0--edge1-EZIPEK_clean_linker_0
_symmetry_space_group_name_H-M    P1
_symmetry_Int_Tables_number       1
_symmetry_cell_setting            triclinic
loop_
_symmetry_equiv_pos_as_xyz
'x, y, z'
_cell_length_a     37.046843
_cell_length_b     43.256721
_cell_length_c     13.230797
_cell_angle_alpha  83.37262
_cell_angle_beta   82.818679
_cell_angle_gamma 89.795361
loop_
_atom_site_label
_atom_site_type_symbol
_atom_site_fract_x
_atom_site_fract_y
_atom_site_fract_z
_atom_type_partial_charge
H0 H 0.92254 0.49705 0.31255 0.0
H1 H 0.82528 0.49316 0.1696 0.0
H2 H 0.82379 0.53659 0.44717 0.0
H3 H 0.80341 0.56291 0.19158 0.0
C4 C 0.7783 0.55134 0.23308 0.0
O5 O 0.78578 0.52499 0.29699 0.0
H6 H 0.76728 0.56949 0.28087 0.0
C7 C 0.89357 0.50119 0.31364 0.0
C8 C 0.87498 0.51611 0.39217 0.0
C9 C 0.87607 0.49374 0.23241 0.0
C10 C 0.83879 0.49901 0.23291 0.0
C11 C 0.82013 0.51556 0.30771 0.0
C12 C 0.83812 0.52393 0.38871 0.0
H13 H 0.0533 0.86539 0.27308 0.0
H14 H 0.04774 0.82923 -0.01286 0.0
H15 H 0.02856 0.76835 0.27129 0.0
H16 H 0.08743 0.7575 0.05423 0.0
C17 C 0.06272 0.75777 0.01437 0.0
O18 O 0.03392 0.77138 0.06921 0.0
H19 H 0.07087 0.77258 0.9407 0.0
C20 C 0.0493 0.84577 0.23114 0.0
C21 C 0.03984 0.81664 0.28474 0.0
C22 C 0.05195 0.85067 0.12491 0.0
C23 C 0.04603 0.82562 0.07002 0.0
C24 C 0.03864 0.79565 0.12253 0.0
C25 C 0.03533 0.79116 0.23047 0.0
H26 H 0.68225 0.01506 0.20754 0.0
H27 H 0.78061 0.01604 -0.0023 0.0
H28 H 0.78374 0.99215 0.32217 0.0
H29 H 0.86151 0.01511 0.21152 0.0
C30 C 0.85108 0.01838 0.13591 0.0
O31 O 0.82264 0.99758 0.13731 0.0
H32 H 0.84148 0.0428 0.13012 0.0
C33 C 0.71162 0.01274 0.19403 0.0
C34 C 0.73076 1.00424 0.27687 0.0
C35 C 0.72907 0.01662 0.09381 0.0
C36 C 0.76699 0.01351 0.07561 0.0
C37 C 0.78692 1.00465 0.15765 0.0
C38 C 0.76871 0.99987 0.25891 0.0
H39 H 0.51343 0.61237 0.30281 0.0
H40 H 0.52573 0.67718 0.02876 0.0
H41 H 0.55475 0.70471 0.31056 0.0
H42 H 0.49446 0.74363 0.15108 0.0
C43 C 0.51737 0.7439 0.08827 0.0
O44 O 0.54488 0.72457 0.11868 0.0
H45 H 0.50523 0.73428 0.02562 0.0
C46 C 0.51991 0.63564 0.26474 0.0
C47 C 0.53575 0.65713 0.31743 0.0
C48 C 0.5178 0.64196 0.15964 0.0
C49 C 0.52703 0.67194 0.11031 0.0
C50 C 0.53782 0.69532 0.16626 0.0
C51 C 0.54319 0.68764 0.26972 0.0
H52 H 0.17053 0.50325 0.25315 0.0
H53 H 0.27203 0.53554 0.32862 0.0
H54 H 0.26568 0.50774 0.02918 0.0
H55 H 0.36088 0.50976 0.12326 0.0
C56 C 0.33645 0.50504 0.18079 0.0
O57 O 0.30966 0.52575 0.155 0.0
H58 H 0.32871 0.4809 0.17101 0.0
C59 C 0.19957 0.50733 0.23249 0.0
C60 C 0.21531 0.50428 0.13259 0.0
C61 C 0.21936 0.51975 0.30146 0.0
C62 C 0.25658 0.52573 0.27544 0.0
C63 C 0.27375 0.51953 0.17952 0.0
C64 C 0.25297 0.5097 0.10644 0.0
H65 H 0.0417 0.1521 0.22398 0.0
H66 H 0.02575 0.19374 0.50501 0.0
H67 H 0.05767 0.25078 0.21864 0.0
H68 H 0.09381 0.25602 0.42659 0.0
C69 C 0.06687 0.25841 0.4721 0.0
O70 O 0.03912 0.25106 0.41796 0.0
H71 H 0.06758 0.24098 0.54046 0.0
C72 C 0.04028 0.17279 0.26363 0.0
C73 C 0.05017 0.2017 0.20876 0.0
C74 C 0.03272 0.16953 0.37006 0.0
C75 C 0.03153 0.19607 0.42214 0.0
C76 C 0.03991 0.22555 0.36739 0.0
C77 C 0.04982 0.22831 0.26047 0.0
H78 H 0.42462 1.00926 0.29257 0.0
H79 H 0.32572 0.99905 0.5011 0.0
H80 H 0.32365 0.99345 0.17809 0.0
H81 H 0.24246 1.00366 0.28381 0.0
C82 C 0.2558 1.00922 0.35027 0.0
O83 O 0.28417 0.98871 0.36219 0.0
H84 H 0.26604 0.03341 0.32672 0.0
C85 C 0.39523 1.00624 0.3059 0.0
C86 C 0.37645 1.00292 0.22298 0.0
C87 C 0.37763 1.00424 0.40591 0.0
C88 C 0.33967 1.00054 0.42365 0.0
C89 C 0.31998 0.99662 0.34171 0.0
C90 C 0.33849 0.99753 0.24088 0.0
H91 H 0.55987 0.40768 0.24632 0.0
H92 H 0.58549 0.33094 0.46039 0.0
H93 H 0.53733 0.31386 0.19184 0.0
H94 H 0.5081 0.27749 0.40981 0.0
C95 C 0.53536 0.27409 0.43572 0.0
O96 O 0.56194 0.28755 0.36078 0.0
H97 H 0.53371 0.28659 0.50502 0.0
C98 C 0.56161 0.38276 0.26748 0.0
C99 C 0.54806 0.36222 0.20683 0.0
C100 C 0.57469 0.37174 0.35914 0.0
C101 C 0.57634 0.33953 0.38783 0.0
C102 C 0.56255 0.31851 0.32835 0.0
C103 C 0.5482 0.32992 0.23768 0.0
C104 C 0.07313 0.97166 0.91725 0.0
N105 N 0.03646 0.94989 0.64897 0.0
C106 C 0.05259 0.92385 0.6915 0.0
C107 C 0.04851 0.89505 0.65755 0.0
C108 C 0.03083 0.89292 0.57168 0.0
C109 C 1.01433 0.91971 0.52775 0.0
C110 C 1.01698 0.94803 0.56896 0.0
Zn111 Zn 0.04549 0.99195 0.70756 0.0
C112 C 0.98445 0.01021 0.8546 0.0
N113 N 0.07595 0.06791 0.85884 0.0
C114 C 0.06312 0.07147 0.95767 0.0
C115 C 0.09173 0.0922 0.79356 0.0
C116 C 0.09404 0.12168 0.82582 0.0
C117 C 0.07982 0.12607 0.92604 0.0
C118 C 0.06485 0.10056 -0.00694 0.0
Zn119 Zn 0.06496 0.02755 0.80036 0.0
O120 O 0.05973 0.96591 0.83832 0.0
C121 C 0.12617 1.0087 0.65194 0.0
O122 O 0.08063 0.99948 0.929 0.0
H123 H 0.10104 0.08914 0.71482 0.0
H124 H 0.07016 0.92475 0.74975 0.0
H125 H 0.05021 0.05205 0.00785 0.0
O126 O 0.10016 0.99219 0.63192 0.0
O127 O 0.11985 0.02616 0.72332 0.0
H128 H 1.00441 0.9686 0.53492 0.0
O129 O 0.04895 0.05525 0.67273 0.0
O130 O 0.0306 0.02072 0.5795 0.0
O131 O 1.00982 0.02728 0.87578 0.0
O132 O 0.99104 0.99266 0.78352 0.0
C133 C 0.036 0.04889 0.59319 0.0
H134 H 0.06151 0.87492 0.6935 0.0
H135 H 1.0002 0.91884 0.46123 0.0
H136 H 0.10564 0.14102 0.77247 0.0
H137 H 0.05366 0.10337 0.0711 0.0
C138 C 0.49968 1.00022 0.63155 0.0
N139 N 0.55211 0.08099 0.67898 0.0
C140 C 0.55792 0.08889 0.57542 0.0
C141 C 0.55695 0.11994 0.53303 0.0
C142 C 0.54907 0.14332 0.59724 0.0
C143 C 0.54291 0.13473 0.70381 0.0
C144 C 0.54482 0.10329 0.74333 0.0
Zn145 Zn 0.55374 0.03391 0.73264 0.0
C146 C 0.4975 0.01269 0.90358 0.0
N147 N 0.5541 0.93432 0.8193 0.0
C148 C 0.54238 0.91229 0.76462 0.0
C149 C 0.56348 0.92604 0.91518 0.0
C150 C 0.56155 0.89502 0.95887 0.0
C151 C 0.54823 0.87212 0.90599 0.0
C152 C 0.5388 0.88102 0.8072 0.0
Zn153 Zn 0.55447 0.98172 0.76454 0.0
O154 O 0.51152 0.02617 0.64989 0.0
C155 C 0.61065 1.00058 0.59481 0.0
O156 O 0.51519 0.97528 0.66338 0.0
H157 H 0.57168 0.94347 0.96004 0.0
H158 H 0.56312 0.07108 0.5248 0.0
H159 H 0.53498 0.91893 0.68874 0.0
O160 O 0.59553 0.02667 0.60711 0.0
O161 O 0.59813 0.9762 0.65099 0.0
H162 H 0.54027 0.09671 0.82532 0.0
O163 O 0.59416 0.99114 0.8622 0.0
O164 O 0.59584 0.04165 0.81658 0.0
O165 O 0.51066 0.98736 0.87654 0.0
O166 O 0.5123 0.03838 0.86134 0.0
C167 C 0.60847 0.01775 0.86444 0.0
H168 H 0.56185 0.12567 0.45054 0.0
H169 H 0.53679 0.15219 0.75571 0.0
H170 H 0.56911 0.8891 0.03517 0.0
H171 H 0.52846 0.86398 0.76386 0.0
C172 C 0.56736 0.47016 0.62123 0.0
N173 N 0.4634 0.50663 0.66836 0.0
C174 C 0.47202 0.51071 0.56436 0.0
C175 C 0.44537 0.51071 0.49953 0.0
C176 C 0.40881 0.50744 0.54045 0.0
C177 C 0.39992 0.50396 0.64792 0.0
C178 C 0.42797 0.5033 0.71114 0.0
Zn179 Zn 0.50947 0.50798 0.74336 0.0
C180 C 0.52245 0.45539 0.89281 0.0
N181 N 0.61454 0.5143 0.84773 0.0
C182 C 0.64448 0.5309 0.80087 0.0
C183 C 0.61259 0.50256 0.94862 0.0
C184 C 0.64099 0.50694 0.00537 0.0
C185 C 0.67129 0.52507 0.96067 0.0
C186 C 0.67306 0.53698 0.85661 0.0
Zn187 Zn 0.56739 0.51072 0.7774 0.0
O188 O 0.53523 0.48034 0.63481 0.0
C189 C 0.55512 0.56383 0.63057 0.0
O190 O 0.59143 0.48031 0.67064 0.0
H191 H 0.58839 0.49078 -0.01195 0.0
H192 H 0.49989 0.51445 0.53013 0.0
H193 H 0.64574 0.54048 0.72134 0.0
O194 O 0.52425 0.55024 0.64691 0.0
O195 O 0.58138 0.55177 0.67404 0.0
H196 H 0.42141 0.50054 0.7937 0.0
O197 O 0.54158 0.53925 0.88231 0.0
O198 O 0.4845 0.53487 0.85561 0.0
O199 O 0.55225 0.47046 0.87788 0.0
O200 O 0.49604 0.46554 0.84515 0.0
C201 C 0.50823 0.5461 0.90318 0.0
H202 H 0.45328 0.51387 0.41727 0.0
H203 H 0.37179 0.50183 0.68213 0.0
H204 H 0.63847 0.49748 0.08547 0.0
H205 H 0.69598 0.55125 0.8195 0.0
C206 C 0.10247 0.5249 0.60752 0.0
N207 N 0.05136 0.43801 0.69866 0.0
C208 C 0.04946 0.43569 0.59764 0.0
C209 C 0.05109 0.40674 0.5606 0.0
C210 C 0.05588 0.37984 0.62721 0.0
C211 C 0.05858 0.38277 0.73071 0.0
C212 C 0.05585 0.41224 0.76528 0.0
Zn213 Zn 0.04717 0.482 0.74475 0.0
C214 C 0.09808 0.49507 0.88727 0.0
N215 N 0.04182 0.57681 0.81483 0.0
C216 C 0.05105 0.60247 0.74659 0.0
C217 C 0.03238 0.57957 0.91637 0.0
C218 C 0.03209 0.60865 0.95257 0.0
C219 C 0.04295 0.63521 0.88466 0.0
C220 C 0.05226 0.63196 0.78025 0.0
Zn221 Zn 0.04477 0.53248 0.76824 0.0
O222 O 0.0914 0.49694 0.63251 0.0
C223 C 0.99215 0.51989 0.63032 0.0
O224 O 0.08591 0.54681 0.64905 0.0
H225 H 0.0257 0.5592 0.97062 0.0
H226 H 0.04664 0.45636 0.54512 0.0
H227 H 0.05821 0.60012 0.66613 0.0
O228 O 1.00794 0.49374 0.64078 0.0
O229 O 1.00291 0.54234 0.67373 0.0
H230 H 0.05732 0.4145 0.84522 0.0
O231 O 1.00442 0.51664 0.88776 0.0
O232 O 1.00339 0.46787 0.857 0.0
O233 O 0.08573 0.52183 0.8608 0.0
O234 O 0.08526 0.47155 0.85364 0.0
C235 C 0.99049 0.48952 0.90736 0.0
H236 H 0.04899 0.40536 0.4803 0.0
H237 H 0.06234 0.36244 0.78417 0.0
H238 H 0.02459 0.61028 0.03358 0.0
H239 H 0.0606 0.65201 0.72553 0.0
C240 C 0.20457 0.9795 0.47231 0.0
C241 C 0.2272 1.00647 0.4456 0.0
C242 C 0.18512 0.03488 0.55898 0.0
C243 C 0.16302 1.00765 0.58945 0.0
N244 N 0.16065 0.95147 0.60115 0.0
N245 N 0.24616 0.05447 0.5008 0.0
C246 C 0.1755 0.97912 0.55415 0.0
C247 C 0.21991 0.03238 0.50135 0.0
N248 N 0.21007 0.95442 0.41853 0.0
N249 N 0.17239 0.06359 0.5775 0.0
H250 H 0.27281 0.05213 0.46661 0.0
H251 H 0.24272 0.07267 0.54628 0.0
H252 H 0.14606 0.06742 0.6103 0.0
H253 H 0.18662 0.08408 0.54813 0.0
H254 H 0.19166 0.93585 0.42701 0.0
H255 H 0.23168 0.95298 0.36081 0.0
H256 H 0.17078 0.92993 0.58391 0.0
H257 H 0.14129 0.94997 0.66596 0.0
C258 C 0.52245 0.21626 0.43209 0.0
C259 C 0.54323 0.2397 0.46582 0.0
C260 C 0.57319 0.19877 0.57044 0.0
C261 C 0.54727 0.1766 0.55201 0.0
N262 N 0.4934 0.1657 0.47597 0.0
N263 N 0.5899 0.2531 0.56606 0.0
C264 C 0.5209 0.18573 0.48547 0.0
C265 C 0.5692 0.23086 0.53441 0.0
N266 N 0.50523 0.22276 0.34677 0.0
N267 N 0.60252 0.18901 0.61842 0.0
H268 H 0.59052 0.27634 0.53473 0.0
H269 H 0.60541 0.24872 0.6265 0.0
H270 H 0.60678 0.16572 0.64395 0.0
H271 H 0.62438 0.20345 0.62451 0.0
H272 H 0.49215 0.20578 0.3143 0.0
H273 H 0.50816 0.24408 0.30073 0.0
H274 H 0.47148 0.17234 0.4364 0.0
H275 H 0.49049 0.14345 0.51607 0.0
C276 C 0.36633 0.53575 0.30302 0.0
C277 C 0.34694 0.50873 0.28711 0.0
C278 C 0.361 0.48278 0.45255 0.0
C279 C 0.38109 0.50943 0.46703 0.0
N280 N 0.39225 0.56441 0.42445 0.0
N281 N 0.3136 0.4625 0.36723 0.0
C282 C 0.38 0.53702 0.39828 0.0
C283 C 0.3402 0.48416 0.36862 0.0
N284 N 0.37316 0.55968 0.22596 0.0
N285 N 0.36332 0.45558 0.5149 0.0
H286 H 0.29609 0.46392 0.31108 0.0
H287 H 0.30579 0.44561 0.42874 0.0
H288 H 0.3781 0.45352 0.57731 0.0
H289 H 0.3527 0.43453 0.50001 0.0
H290 H 0.39118 0.57791 0.22871 0.0
H291 H 0.3626 0.56058 0.15634 0.0
H292 H 0.38934 0.5859 0.38202 0.0
H293 H 0.40193 0.56592 0.49454 0.0
C294 C 0.03448 0.29558 0.5901 0.0
C295 C 0.06121 0.29077 0.50628 0.0
C296 C 0.08565 0.34324 0.50772 0.0
C297 C 0.05791 0.34882 0.58751 0.0
N298 N 1.00043 0.33293 0.68642 0.0
N299 N 0.1021 0.3149 0.36216 0.0
C300 C 0.03075 0.3257 0.62383 0.0
C301 C 0.08373 0.31607 0.45781 0.0
N302 N 1.01266 0.27146 0.63796 0.0
N303 N 0.11454 0.36335 0.48141 0.0
H304 H 0.09882 0.29675 0.31855 0.0
H305 H 0.11658 0.33386 0.32075 0.0
H306 H 0.11773 0.38299 0.5185 0.0
H307 H 0.13713 0.35869 0.43033 0.0
H308 H 0.9964 0.2725 0.70764 0.0
H309 H 1.01193 0.24979 0.61101 0.0
H310 H 0.97792 0.31813 0.70647 0.0
H311 H 0.99613 0.35491 0.71049 0.0
C312 C 0.90529 0.98695 0.06316 0.0
C313 C 0.8821 0.01313 0.05128 0.0
C314 C 0.92459 0.03603 0.90392 0.0
C315 C 0.9478 0.01006 0.91614 0.0
N316 N 0.95559 0.95719 -0.01039 0.0
N317 N 0.86328 0.05551 0.93466 0.0
C318 C 0.93656 0.98431 -0.01017 0.0
C319 C 0.88975 0.03555 0.9637 0.0
N320 N 0.89824 0.96502 0.14636 0.0
N321 N 0.93588 0.06134 0.83584 0.0
H322 H 0.83659 0.0541 0.97084 0.0
H323 H 0.86646 0.07065 0.86689 0.0
H324 H 0.96058 0.06214 0.78811 0.0
H325 H 0.9219 0.0823 0.83198 0.0
H326 H 0.9167 0.94792 0.16684 0.0
H327 H 0.87463 0.96468 0.19834 0.0
H328 H 0.94594 0.93638 0.0316 0.0
H329 H 0.97954 0.95469 0.9409 0.0
C330 C 0.51986 0.80206 0.10371 0.0
C331 C 0.53156 0.7768 0.04874 0.0
C332 C 0.56171 0.81444 0.91011 0.0
C333 C 0.54321 0.8392 0.95575 0.0
N334 N 0.49881 0.85506 0.08962 0.0
N335 N 0.56403 0.75905 0.89632 0.0
C336 C 0.52076 0.83262 0.0511 0.0
C337 C 0.55283 0.78302 0.95108 0.0
N338 N 0.50887 0.79714 0.20674 0.0
N339 N 0.58874 0.8209 0.83021 0.0
H340 H 0.56019 0.7357 0.92538 0.0
H341 H 0.57548 0.7624 0.81978 0.0
H342 H 0.5968 0.84354 0.80039 0.0
H343 H 0.60562 0.80395 0.80048 0.0
H344 H 0.50261 0.81527 0.25126 0.0
H345 H 0.51093 0.77555 0.24964 0.0
H346 H 0.47957 0.85041 0.15415 0.0
H347 H 0.49689 0.87733 0.05119 0.0
C348 C 0.71343 0.5462 0.19165 0.0
C349 C 0.75132 0.54363 0.1605 0.0
C350 C 0.73655 0.52464 0.00147 0.0
C351 C 0.6996 0.53267 0.02584 0.0
N352 N 0.65568 0.55967 0.1335 0.0
N353 N 0.79896 0.53429 0.02358 0.0
C354 C 0.68887 0.54602 0.11781 0.0
C355 C 0.76299 0.53403 0.06179 0.0
N356 N 0.7004 0.54779 0.29209 0.0
N357 N 0.74637 0.50678 0.92401 0.0
H358 H 0.81974 0.54022 0.0636 0.0
H359 H 0.80803 0.53095 0.94785 0.0
H360 H 0.72776 0.49849 0.88037 0.0
H361 H 0.77229 0.49749 0.91036 0.0
H362 H 0.67267 0.54642 0.31829 0.0
H363 H 0.71689 0.5463 0.35074 0.0
H364 H 0.64799 0.5719 0.19609 0.0
H365 H 0.63791 0.56198 0.07793 0.0
C366 C 0.06743 0.69871 0.0432 0.0
C367 C 0.05225 0.72537 -0.00775 0.0
C368 C 1.02362 0.69129 0.88774 0.0
C369 C 0.04529 0.66616 0.92354 0.0
N370 N 0.09285 0.64792 0.02473 0.0
N371 N 1.01469 0.74707 0.86534 0.0
C372 C 0.06849 0.67035 -0.00123 0.0
C373 C 0.02979 0.72165 0.91456 0.0
N374 N 0.07981 0.70008 0.1356 0.0
N375 N 0.99617 0.68593 0.83165 0.0
H376 H 1.01601 0.76936 0.88742 0.0
H377 H 1.00225 0.74628 0.79928 0.0
H378 H 0.99011 0.66388 0.81331 0.0
H379 H 0.97714 0.70263 0.81212 0.0
H380 H 0.08857 0.68051 0.17921 0.0
H381 H 0.07665 0.71967 0.17486 0.0
H382 H 0.11261 0.65128 0.07215 0.0
H383 H 0.09597 0.62735 -0.00937 0.0
C384 C 0.06524 0.12063 0.42181 0.0
C385 C 0.03229 0.13765 0.42477 0.0
C386 C 0.99916 0.09156 0.51493 0.0
C387 C 0.03233 0.0751 0.51409 0.0
N388 N 0.09671 0.07343 0.45227 0.0
N389 N 0.96696 0.13843 0.46748 0.0
C390 C 0.06485 0.08925 0.46206 0.0
C391 C 0.999 0.1228 0.46883 0.0
N392 N 0.09816 0.13385 0.38287 0.0
N393 N 0.9672 0.07806 0.56053 0.0
H394 H 0.96544 0.16141 0.4343 0.0
H395 H 0.94202 0.12815 0.49925 0.0
H396 H 0.96491 0.05499 0.59427 0.0
H397 H 0.96491 0.05499 0.59427 0.0
H398 H 0.10211 0.15732 0.35492 0.0
H399 H 0.10211 0.15732 0.35492 0.0
H400 H 0.09898 0.0498 0.47741 0.0
H401 H 0.09898 0.0498 0.47741 0.0
C402 C 0.40794 0.97804 0.55363 0.0
C403 C 0.40128 1.0053 0.48812 0.0
C404 C 0.46066 0.026 0.5064 0.0
C405 C 0.46641 1.00025 0.57937 0.0
N406 N 0.43846 0.95723 0.69719 0.0
N407 N 0.41587 0.05921 0.43271 0.0
C408 C 0.43799 0.97779 0.61088 0.0
C409 C 0.42559 0.03087 0.47717 0.0
N410 N 0.38696 0.95192 0.55811 0.0
N411 N 0.48906 0.04451 0.459 0.0
H412 H 0.39005 0.06308 0.41008 0.0
H413 H 0.43201 0.07914 0.42856 0.0
H414 H 0.51607 0.03941 0.4682 0.0
H415 H 0.48619 0.06226 0.40027 0.0
H416 H 0.39357 0.93058 0.59612 0.0
H417 H 0.36456 0.95096 0.51821 0.0
H418 H 0.41663 0.94234 0.72647 0.0
H419 H 0.45827 0.95752 0.74637 0.0
C420 C 0.54558 0.39698 0.50685 0.0
C421 C 0.57665 0.39405 0.43524 0.0
C422 C 0.60338 0.44125 0.48457 0.0
C423 C 0.57325 0.4428 0.56177 0.0
N424 N 0.52062 0.41598 0.6628 0.0
N425 N 0.63754 0.41001 0.36442 0.0
C426 C 0.54598 0.4188 0.5779 0.0
C427 C 0.60648 0.41507 0.42723 0.0
N428 N 0.51455 0.3801 0.50404 0.0
N429 N 0.62765 0.4655 0.46143 0.0
H430 H 0.64012 0.39126 0.32104 0.0
H431 H 0.66152 0.42273 0.36181 0.0
H432 H 0.62579 0.48531 0.49964 0.0
H433 H 0.64791 0.46719 0.39891 0.0
H434 H 0.48958 0.38481 0.54473 0.0
H435 H 0.51249 0.36331 0.45452 0.0
H436 H 0.50362 0.39656 0.68411 0.0
H437 H 0.51894 0.431 0.71841 0.0
C438 C 0.17279 0.55324 0.38217 0.0
C439 C 0.19865 0.52937 0.39501 0.0
C440 C 0.16802 0.51308 0.56582 0.0
C441 C 0.13731 0.53077 0.54079 0.0
N442 N 0.1103 0.5685 0.42403 0.0
N443 N 0.22237 0.48697 0.50063 0.0
C444 C 0.13983 0.55176 0.44971 0.0
C445 C 0.1972 0.50978 0.48829 0.0
N446 N 0.17961 0.57658 0.30347 0.0
N447 N 0.16947 0.50004 0.66408 0.0
H448 H 0.24481 0.4847 0.44618 0.0
H449 H 0.21994 0.46952 0.5624 0.0
H450 H 0.14922 0.50368 0.72327 0.0
H451 H 0.19245 0.48904 0.68846 0.0
H452 H 0.16293 0.59585 0.29352 0.0
H453 H 0.20416 0.57803 0.25483 0.0
H454 H 0.10971 0.58149 0.35291 0.0
H455 H 0.08542 0.56768 0.47072 0.0
C456 C 0.09406 0.89034 0.01608 0.0
C457 C 0.05987 0.88287 0.07512 0.0
C458 C 0.04556 0.93839 0.06909 0.0
C459 C 0.07617 0.94506 -0.00492 0.0
N460 N 0.13014 0.92846 0.89661 0.0
N461 N 1.00124 0.89946 0.15089 0.0
C462 C 0.10091 0.92134 0.96933 0.0
C463 C 0.03519 0.9069 0.10062 0.0
N464 N 0.12024 0.86813 0.00711 0.0
N465 N 0.02589 0.96233 0.10617 0.0
H466 H 0.99179 0.87658 0.16967 0.0
H467 H 0.98126 0.9158 0.16653 0.0
H468 H 0.03319 0.98558 0.08283 0.0
H469 H 1.00475 0.95927 0.16627 0.0
H470 H 0.14684 0.87301 0.9735 0.0
H471 H 0.11626 0.84516 0.04045 0.0
H472 H 0.14663 0.91178 0.86384 0.0
H473 H 0.13681 0.95138 0.86616 0.0
C474 C 0.68191 0.04692 0.00915 0.0
C475 C 0.70547 0.02105 0.0109 0.0
C476 C 0.6707 0.99824 0.89268 0.0
C477 C 0.64259 0.02016 0.91103 0.0
N478 N 0.62022 0.06399 -0.00192 0.0
N479 N 0.71944 0.96956 0.96292 0.0
C480 C 0.64801 0.04453 0.97105 0.0
C481 C 0.69945 0.99614 0.95401 0.0
N482 N 0.69161 0.0733 0.04714 0.0
N483 N 0.67078 0.98008 0.81476 0.0
H484 H 0.74076 0.96654 0.0073 0.0
H485 H 0.71281 0.94948 0.93228 0.0
H486 H 0.6515 0.98202 0.76366 0.0
H487 H 0.69253 0.96588 0.79322 0.0
H488 H 0.67687 0.09384 0.04073 0.0
H489 H 0.71646 0.07537 0.07547 0.0
H490 H 0.62198 0.08019 0.04979 0.0
H491 H 0.59413 0.06187 0.97784 0.0
C492 C 0.48163 0.6176 0.03775 0.0
C493 C 0.51013 0.61581 0.10087 0.0
C494 C 0.52001 0.56192 0.06807 0.0
C495 C 0.4992 0.56651 -0.01463 0.0
N496 N 0.4581 0.59906 0.89257 0.0
N497 N 0.56163 0.58702 0.15832 0.0
C498 C 0.47882 0.59425 0.97114 0.0
C499 C 0.53055 0.58802 0.11227 0.0
N500 N 0.45686 0.64099 0.04323 0.0
N501 N 0.53083 0.53269 0.10129 0.0
H502 H 0.57339 0.60667 0.18003 0.0
H503 H 0.57799 0.56743 0.16363 0.0
H504 H 0.5227 0.51306 0.07032 0.0
H505 H 0.54413 0.52782 0.16619 0.0
H506 H 0.43365 0.6418 0.00594 0.0
H507 H 0.45756 0.65786 0.0933 0.0
H508 H 0.44653 0.62045 0.87146 0.0
H509 H 0.45382 0.58222 0.84507 0.0
C510 C 0.91961 0.46081 0.133 0.0
C511 C 0.89915 0.48846 0.13732 0.0
C512 C 0.93053 0.50971 0.97213 0.0
C513 C 0.95635 0.48548 0.97839 0.0
N514 N 0.97678 0.43824 0.07 0.0
N515 N 0.89158 0.54244 0.071 0.0
C516 C 0.95099 0.46062 0.05913 0.0
C517 C 0.90589 0.51369 0.05903 0.0
N518 N 0.90946 0.43523 0.20097 0.0
N519 N 0.92972 0.52931 0.88377 0.0
H520 H 0.87504 0.54753 0.13647 0.0
H521 H 0.89931 0.56216 0.01985 0.0
H522 H 0.94714 0.5272 0.81704 0.0
H523 H 0.90907 0.54543 0.87397 0.0
H524 H 0.92149 0.41355 0.19639 0.0
H525 H 0.88669 0.43516 0.25616 0.0
H526 H 0.97589 0.42163 0.13386 0.0
H527 H 1.00061 0.4376 0.01946 0.0
C528 C 0.10027 0.19058 0.07951 0.0
C529 C 0.06435 0.20135 0.09931 0.0
C530 C 0.04634 0.1748 0.96011 0.0
C531 C 0.07881 0.15736 0.96168 0.0
N532 N 0.13961 0.15154 0.00666 0.0
N533 N 1.00586 0.21109 0.04521 0.0
C534 C 0.10721 0.1668 0.0142 0.0
C535 C 0.03864 0.19666 0.03218 0.0
N536 N 0.12662 0.20177 0.1294 0.0
N537 N 1.02264 0.16935 0.89278 0.0
H538 H 1.00086 0.22744 0.09744 0.0
H539 H 0.98399 0.20698 0.00616 0.0
H540 H 0.02803 0.15326 0.83998 0.0
H541 H 0.99904 0.18196 0.88426 0.0
H542 H 0.15398 0.19607 0.11673 0.0
H543 H 0.12097 0.21892 0.17841 0.0
H544 H 0.16035 0.15504 0.05047 0.0
H545 H 0.14543 0.13465 0.95686 0.0
C546 C 0.4263 0.97863 0.11867 0.0
C547 C 0.39956 1.00202 0.12239 0.0
C548 C 0.43394 0.0309 0.96971 0.0
C549 C 0.46421 0.01085 0.98122 0.0
N550 N 0.49061 0.96934 0.08659 0.0
N551 N 0.37908 0.05218 0.05485 0.0
C552 C 0.46069 0.98553 0.0608 0.0
C553 C 0.40354 0.02863 0.04833 0.0
N554 N 0.41934 0.95038 0.17525 0.0
N555 N 0.43314 0.05101 0.88253 0.0
H556 H 0.35592 0.05067 0.10894 0.0
H557 H 0.38296 0.07369 0.0103 0.0
H558 H 0.45355 0.05229 0.82044 0.0
H559 H 0.41028 0.06399 0.86739 0.0
H560 H 0.43696 0.93162 0.16987 0.0
H561 H 0.3942 0.94504 0.21898 0.0
H562 H 0.48962 0.95224 0.14924 0.0
H563 H 0.51705 0.9757 0.0543 0.0
C564 C 0.55847 0.38074 0.02014 0.0
C565 C 0.53403 0.37615 0.11148 0.0
C566 C 0.49566 0.41866 0.04741 0.0
C567 C 0.52155 0.42485 0.95856 0.0
N568 N 0.57257 0.40676 0.84834 0.0
N569 N 0.47492 0.38361 0.20124 0.0
C570 C 0.55108 0.40401 0.94078 0.0
C571 C 0.50085 0.3926 0.12054 0.0
N572 N 0.59026 0.36451 0.01279 0.0
N573 N 0.46796 0.43897 0.06632 0.0
H574 H 0.47867 0.36472 0.25549 0.0
H575 H 0.44884 0.39278 0.20923 0.0
H576 H 0.4632 0.45828 0.01523 0.0
H577 H 0.45085 0.43782 0.13534 0.0
H578 H 0.61198 0.36988 0.95553 0.0
H579 H 0.59566 0.34627 0.06736 0.0
H580 H 0.59127 0.39007 0.82594 0.0
H581 H 0.5701 0.42466 0.79036 0.0
C582 C 0.18659 0.47455 0.00683 0.0
C583 C 0.18973 0.50181 0.05536 0.0
C584 C 0.12927 0.51721 0.01825 0.0
C585 C 0.12791 0.49319 0.95434 0.0
N586 N 0.16009 0.45103 0.8756 0.0
N587 N 0.1687 0.55391 0.07467 0.0
C588 C 0.15784 0.47221 0.94501 0.0
C589 C 0.16269 0.52484 0.04916 0.0
N590 N 0.21025 0.45069 0.02153 0.0
N591 N 0.09832 0.53185 0.05386 0.0
H592 H 0.19389 0.56066 0.09291 0.0
H593 H 0.15014 0.57192 0.06578 0.0
H594 H 0.07248 0.52441 0.04285 0.0
H595 H 0.09818 0.54832 0.10568 0.0
H596 H 0.20678 0.42894 -0.00274 0.0
H597 H 0.23186 0.45203 0.06444 0.0
H598 H 0.18327 0.43786 0.8596 0.0
H599 H 0.14063 0.44834 0.82711 0.0
C600 C 0.99979 0.82601 0.44005 0.0
C601 C 0.03389 0.81548 0.3977 0.0
C602 C 0.06558 0.84948 0.49101 0.0
C603 C 0.03171 0.86317 0.52459 0.0
N604 N 0.96657 0.85661 0.56311 0.0
N605 N 0.09556 0.80497 0.42186 0.0
C606 C 0.99865 0.84864 0.51035 0.0
C607 C 0.06519 0.82222 0.44122 0.0
N608 N 0.9691 0.81646 0.405 0.0
N609 N 0.09791 0.86408 0.49545 0.0
H610 H 0.0952 0.78606 0.37937 0.0
H611 H 0.11917 0.80767 0.45548 0.0
H612 H 0.09985 0.88588 0.52056 0.0
H613 H 0.12285 0.85609 0.46355 0.0
H614 H 0.94355 0.82601 0.4224 0.0
H615 H 0.97001 0.79932 0.35524 0.0
H616 H 0.94197 0.84527 0.56104 0.0
H617 H 0.9653 0.8727 0.61642 0.0
C618 C 0.70403 0.0219 0.44454 0.0
C619 C 0.70838 0.99815 0.37901 0.0
C620 C 0.6493 0.9754 0.45585 0.0
C621 C 0.64487 0.999 0.52264 0.0
N622 N 0.67397 0.0383 0.60221 0.0
N623 N 0.69111 0.94748 0.34339 0.0
C624 C 0.67406 0.02033 0.52375 0.0
C625 C 0.68309 0.97306 0.39318 0.0
N626 N 0.72753 0.04673 0.42822 0.0
N627 N 0.62058 0.95666 0.44629 0.0
H628 H 0.71573 0.94556 0.29668 0.0
H629 H 0.67527 0.92722 0.35664 0.0
H630 H 0.59467 0.95875 0.48568 0.0
H631 H 0.62139 0.94118 0.39135 0.0
H632 H 0.72305 0.06673 0.46478 0.0
H633 H 0.75058 0.04793 0.3738 0.0
H634 H 0.69615 0.05194 0.61169 0.0
H635 H 0.6535 0.03706 0.66411 0.0
C636 C 0.52536 0.64092 0.50657 0.0
C637 C 0.54947 0.64436 0.41447 0.0
C638 C 0.58438 0.59936 0.47638 0.0
C639 C 0.55861 0.59445 0.56564 0.0
N640 N 0.51367 0.61691 0.68252 0.0
N641 N 0.60849 0.63471 0.32711 0.0
C642 C 0.5321 0.61748 0.58633 0.0
C643 C 0.58156 0.62643 0.40575 0.0
N644 N 0.49502 0.65889 0.51512 0.0
N645 N 0.60953 0.57718 0.45435 0.0
H646 H 0.60649 0.65429 0.27416 0.0
H647 H 0.63386 0.62416 0.32044 0.0
H648 H 0.61253 0.5569 0.50306 0.0
H649 H 0.62583 0.57793 0.38416 0.0
H650 H 0.47391 0.65501 0.57512 0.0
H651 H 0.49056 0.67704 0.45898 0.0
H652 H 0.49596 0.63435 0.70464 0.0
H653 H 0.5193 0.60063 0.74289 0.0
C654 C 0.92186 0.54821 0.45214 0.0
C655 C 0.89631 0.52332 0.47446 0.0
C656 C 0.9292 0.50066 0.61398 0.0
C657 C 0.95823 0.52251 0.57996 0.0
N658 N 0.98302 0.56641 0.4628 0.0
N659 N 0.87475 0.47579 0.57554 0.0
C660 C 0.9545 0.54656 0.49927 0.0
C661 C 0.89936 0.49989 0.55655 0.0
N662 N 0.91501 0.57299 0.38369 0.0
N663 N 0.92966 0.48098 0.70236 0.0
H664 H 0.8514 0.47554 0.5389 0.0
H665 H 0.87822 0.45547 0.62362 0.0
H666 H 0.95103 0.48005 0.74635 0.0
H667 H 0.90742 0.4674 0.73744 0.0
H668 H 0.93079 0.59325 0.36936 0.0
H669 H 0.89131 0.57429 0.34824 0.0
H670 H 0.98342 0.58232 0.39738 0.0
H671 H 1.00772 0.56539 0.49302 0.0
loop_
_geom_bond_atom_site_label_1
_geom_bond_atom_site_label_2
_geom_bond_distance
_geom_bond_site_symmetry_2
_ccdc_geom_bond_type
H0 C7 0.929 . S
H1 C10 0.930 . S
H2 C12 0.929 . S
H3 C4 0.969 . S
C4 H3 0.969 . S
C4 O5 1.550 . S
C4 H6 0.973 . S
O5 C4 1.550 . S
O5 C11 1.412 . S
H6 C4 0.973 . S
C7 H0 0.929 . S
C7 C8 1.400 . S
C7 C9 1.364 . S
C8 C7 1.400 . S
C8 C12 1.377 . S
C9 C7 1.364 . S
C9 C10 1.374 . S
C10 H1 0.930 . S
C10 C9 1.374 . S
C10 C11 1.383 . S
C11 O5 1.412 . S
C11 C10 1.383 . S
C11 C12 1.394 . S
C12 H2 0.929 . S
C12 C8 1.377 . S
C12 C11 1.394 . S
H13 C20 0.929 . S
H14 C23 0.930 . S
H15 C25 0.929 . S
H16 C17 0.969 1_455 S
C17 H16 0.969 1_655 S
C17 O18 1.550 1_556 S
C17 H19 0.973 . S
O18 C17 1.550 1_554 S
O18 C24 1.412 . S
H19 C17 0.973 . S
C20 H13 0.929 . S
C20 C21 1.400 . S
C20 C22 1.364 1_554 S
C21 C20 1.400 . S
C21 C25 1.377 . S
C22 C20 1.364 1_556 S
C22 C23 1.374 . S
C23 H14 0.930 . S
C23 C22 1.374 . S
C23 C24 1.383 1_556 S
C24 O18 1.412 . S
C24 C23 1.383 1_554 S
C24 C25 1.394 . S
C25 H15 0.929 . S
C25 C21 1.377 . S
C25 C24 1.394 . S
H26 C33 0.929 1_565 S
H27 C36 0.932 1_556 S
H28 C38 0.930 1_565 S
H29 C30 0.969 . S
C30 H29 0.969 . S
C30 O31 1.550 1_545 S
C30 H32 0.973 1_544 S
O31 C30 1.550 1_565 S
O31 C37 1.404 1_565 S
H32 C30 0.973 1_566 S
C33 H26 0.929 1_545 S
C33 C34 1.398 . S
C33 C35 1.364 . S
C34 C33 1.398 . S
C34 C38 1.377 . S
C35 C33 1.364 . S
C35 C36 1.374 1_545 S
C36 H27 0.932 1_554 S
C36 C35 1.374 1_565 S
C36 C37 1.379 1_565 S
C37 O31 1.404 1_545 S
C37 C36 1.379 1_545 S
C37 C38 1.397 . S
C38 H28 0.930 1_545 S
C38 C34 1.377 . S
C38 C37 1.397 . S
H39 C46 0.929 . S
H40 C49 0.930 1_556 S
H41 C51 0.929 . S
H42 C43 0.969 . S
C43 H42 0.969 . S
C43 O44 1.550 . S
C43 H45 0.973 1_554 S
O44 C43 1.550 . S
O44 C50 1.412 . S
H45 C43 0.973 1_556 S
C46 H39 0.929 . S
C46 C47 1.400 . S
C46 C48 1.364 . S
C47 C46 1.400 . S
C47 C51 1.377 . S
C48 C46 1.364 . S
C48 C49 1.374 . S
C49 H40 0.930 1_554 S
C49 C48 1.374 . S
C49 C50 1.383 . S
C50 O44 1.412 . S
C50 C49 1.383 . S
C50 C51 1.394 . S
C51 H41 0.929 . S
C51 C47 1.377 . S
C51 C50 1.394 . S
H52 C59 0.929 . S
H53 C62 0.930 . S
H54 C64 0.929 . S
H55 C56 0.969 . S
C56 H55 0.969 . S
C56 O57 1.550 . S
C56 H58 0.973 . S
O57 C56 1.550 . S
O57 C63 1.412 . S
H58 C56 0.973 . S
C59 H52 0.929 . S
C59 C60 1.400 . S
C59 C61 1.364 . S
C60 C59 1.400 . S
C60 C64 1.377 . S
C61 C59 1.364 . S
C61 C62 1.374 . S
C62 H53 0.930 . S
C62 C61 1.374 . S
C62 C63 1.383 . S
C63 O57 1.412 . S
C63 C62 1.383 . S
C63 C64 1.394 . S
C64 H54 0.929 . S
C64 C60 1.377 . S
C64 C63 1.394 . S
H65 C72 0.929 . S
H66 C75 0.930 . S
H67 C77 0.929 . S
H68 C69 0.969 . S
C69 H68 0.969 . S
C69 O70 1.550 . S
C69 H71 0.973 . S
O70 C69 1.550 . S
O70 C76 1.412 . S
H71 C69 0.973 . S
C72 H65 0.929 . S
C72 C73 1.400 . S
C72 C74 1.364 . S
C73 C72 1.400 . S
C73 C77 1.377 . S
C74 C72 1.364 . S
C74 C75 1.374 . S
C75 H66 0.930 . S
C75 C74 1.374 . S
C75 C76 1.383 . S
C76 O70 1.412 . S
C76 C75 1.383 . S
C76 C77 1.394 . S
C77 H67 0.929 . S
C77 C73 1.377 . S
C77 C76 1.394 . S
H78 C85 0.928 1_565 S
H79 C88 0.934 . S
H80 C90 0.927 1_565 S
H81 C82 0.969 . S
C82 H81 0.969 . S
C82 O83 1.550 1_545 S
C82 H84 0.973 1_545 S
O83 C82 1.550 1_565 S
O83 C89 1.402 1_565 S
H84 C82 0.973 1_565 S
C85 H78 0.928 1_545 S
C85 C86 1.401 . S
C85 C87 1.363 . S
C86 C85 1.401 . S
C86 C90 1.377 . S
C87 C85 1.363 . S
C87 C88 1.374 1_545 S
C88 H79 0.934 . S
C88 C87 1.374 1_565 S
C88 C89 1.386 1_565 S
C89 O83 1.402 1_545 S
C89 C88 1.386 1_545 S
C89 C90 1.391 . S
C90 H80 0.927 1_545 S
C90 C86 1.377 . S
C90 C89 1.391 . S
H91 C98 0.929 . S
H92 C101 0.930 . S
H93 C103 0.929 . S
H94 C95 0.969 . S
C95 H94 0.969 . S
C95 O96 1.550 . S
C95 H97 0.973 . S
O96 C95 1.550 . S
O96 C102 1.412 . S
H97 C95 0.973 . S
C98 H91 0.929 . S
C98 C99 1.400 . S
C98 C100 1.364 . S
C99 C98 1.400 . S
C99 C103 1.377 . S
C100 C98 1.364 . S
C100 C101 1.374 . S
C101 H92 0.930 . S
C101 C100 1.374 . S
C101 C102 1.383 . S
C102 O96 1.412 . S
C102 C101 1.383 . S
C102 C103 1.394 . S
C103 H93 0.929 . S
C103 C99 1.377 . S
C103 C102 1.394 . S
C104 O120 1.251 . S
C104 O122 1.254 . S
N105 C106 1.333 . S
N105 C110 1.307 1_455 S
N105 Zn111 2.020 . S
C106 N105 1.333 . S
C106 C107 1.379 . S
C106 H124 0.952 . S
C107 C106 1.379 . S
C107 C108 1.390 1_455 S
C107 H134 0.949 . S
C108 C107 1.390 1_655 S
C108 C109 1.357 . S
C109 C108 1.357 . S
C109 C110 1.370 . S
C109 H135 0.950 . S
C110 N105 1.307 1_655 S
C110 C109 1.370 . S
C110 H128 0.948 1_565 S
Zn111 N105 2.020 . S
Zn111 O120 2.039 . S
Zn111 O126 2.034 . S
Zn111 O130 2.025 1_565 S
Zn111 O132 2.024 1_455 S
C112 O131 1.246 . S
C112 O132 1.249 1_545 S
N113 C114 1.307 . S
N113 C115 1.333 . S
N113 Zn119 2.020 1_554 S
C114 N113 1.307 . S
C114 C118 1.370 . S
C114 H125 0.948 1_545 S
C115 N113 1.333 . S
C115 C116 1.379 . S
C115 H123 0.952 1_554 S
C116 C115 1.379 . S
C116 C117 1.390 . S
C116 H136 0.949 . S
C117 C116 1.390 . S
C117 C118 1.357 . S
C118 C114 1.370 . S
C118 C117 1.357 . S
C118 H137 0.950 . S
Zn119 N113 2.020 1_556 S
Zn119 O122 2.025 1_545 S
Zn119 O127 2.024 . S
Zn119 O129 2.039 . S
Zn119 O131 2.034 1_455 S
O120 C104 1.251 . S
O120 Zn111 2.039 . S
C121 O126 1.246 . S
C121 O127 1.249 1_565 S
O122 C104 1.254 . S
O122 Zn119 2.025 1_565 S
H123 C115 0.952 1_556 S
H124 C106 0.952 . S
H125 C114 0.948 1_565 S
O126 Zn111 2.034 . S
O126 C121 1.246 . S
O127 Zn119 2.024 . S
O127 C121 1.249 1_545 S
H128 C110 0.948 1_545 S
O129 Zn119 2.039 . S
O129 C133 1.251 . S
O130 Zn111 2.025 1_545 S
O130 C133 1.254 . S
O131 C112 1.246 . S
O131 Zn119 2.034 1_655 S
O132 Zn111 2.024 1_655 S
O132 C112 1.249 1_565 S
C133 O129 1.251 . S
C133 O130 1.254 . S
H134 C107 0.949 . S
H135 C109 0.950 . S
H136 C116 0.949 . S
H137 C118 0.950 . S
C138 O154 1.251 1_565 S
C138 O156 1.254 . S
N139 C140 1.333 . S
N139 C144 1.307 . S
N139 Zn145 2.020 . S
C140 N139 1.333 . S
C140 C141 1.379 . S
C140 H158 0.952 . S
C141 C140 1.379 . S
C141 C142 1.390 . S
C141 H168 0.949 . S
C142 C141 1.390 . S
C142 C143 1.357 . S
C143 C142 1.357 . S
C143 C144 1.370 . S
C143 H169 0.950 . S
C144 N139 1.307 . S
C144 C143 1.370 . S
C144 H162 0.948 . S
Zn145 N139 2.020 . S
Zn145 O154 2.039 . S
Zn145 O160 2.034 . S
Zn145 O164 2.025 . S
Zn145 O166 2.024 . S
C146 O165 1.246 1_545 S
C146 O166 1.249 . S
N147 C148 1.307 . S
N147 C149 1.333 . S
N147 Zn153 2.020 . S
C148 N147 1.307 . S
C148 C152 1.370 . S
C148 H159 0.948 . S
C149 N147 1.333 . S
C149 C150 1.379 . S
C149 H157 0.952 . S
C150 C149 1.379 . S
C150 C151 1.390 . S
C150 H170 0.949 1_556 S
C151 C150 1.390 . S
C151 C152 1.357 . S
C152 C148 1.370 . S
C152 C151 1.357 . S
C152 H171 0.950 . S
Zn153 N147 2.020 . S
Zn153 O156 2.025 . S
Zn153 O161 2.024 . S
Zn153 O163 2.039 . S
Zn153 O165 2.034 . S
O154 C138 1.251 1_545 S
O154 Zn145 2.039 . S
C155 O160 1.246 1_565 S
C155 O161 1.249 . S
O156 C138 1.254 . S
O156 Zn153 2.025 . S
H157 C149 0.952 . S
H158 C140 0.952 . S
H159 C148 0.948 . S
O160 Zn145 2.034 . S
O160 C155 1.246 1_545 S
O161 Zn153 2.024 . S
O161 C155 1.249 . S
H162 C144 0.948 . S
O163 Zn153 2.039 . S
O163 C167 1.251 1_565 S
O164 Zn145 2.025 . S
O164 C167 1.254 . S
O165 C146 1.246 1_565 S
O165 Zn153 2.034 . S
O166 Zn145 2.024 . S
O166 C146 1.249 . S
C167 O163 1.251 1_545 S
C167 O164 1.254 . S
H168 C141 0.949 . S
H169 C143 0.950 . S
H170 C150 0.949 1_554 S
H171 C152 0.950 . S
C172 O188 1.251 . S
C172 O190 1.254 . S
N173 C174 1.333 . S
N173 C178 1.307 . S
N173 Zn179 2.020 . S
C174 N173 1.333 . S
C174 C175 1.379 . S
C174 H192 0.952 . S
C175 C174 1.379 . S
C175 C176 1.390 . S
C175 H202 0.949 . S
C176 C175 1.390 . S
C176 C177 1.357 . S
C177 C176 1.357 . S
C177 C178 1.370 . S
C177 H203 0.950 . S
C178 N173 1.307 . S
C178 C177 1.370 . S
C178 H196 0.948 . S
Zn179 N173 2.020 . S
Zn179 O188 2.039 . S
Zn179 O194 2.034 . S
Zn179 O198 2.025 . S
Zn179 O200 2.024 . S
C180 O199 1.246 . S
C180 O200 1.249 . S
N181 C182 1.307 . S
N181 C183 1.333 . S
N181 Zn187 2.020 . S
C182 N181 1.307 . S
C182 C186 1.370 . S
C182 H193 0.948 . S
C183 N181 1.333 . S
C183 C184 1.379 . S
C183 H191 0.952 . S
C184 C183 1.379 . S
C184 C185 1.390 . S
C184 H204 0.949 . S
C185 C184 1.390 . S
C185 C186 1.357 . S
C186 C182 1.370 . S
C186 C185 1.357 . S
C186 H205 0.950 . S
Zn187 N181 2.020 . S
Zn187 O190 2.025 . S
Zn187 O195 2.024 . S
Zn187 O197 2.039 . S
Zn187 O199 2.034 . S
O188 C172 1.251 . S
O188 Zn179 2.039 . S
C189 O194 1.246 . S
C189 O195 1.249 . S
O190 C172 1.254 . S
O190 Zn187 2.025 . S
H191 C183 0.952 . S
H192 C174 0.952 . S
H193 C182 0.948 . S
O194 Zn179 2.034 . S
O194 C189 1.246 . S
O195 Zn187 2.024 . S
O195 C189 1.249 . S
H196 C178 0.948 . S
O197 Zn187 2.039 . S
O197 C201 1.251 . S
O198 Zn179 2.025 . S
O198 C201 1.254 . S
O199 C180 1.246 . S
O199 Zn187 2.034 . S
O200 Zn179 2.024 . S
O200 C180 1.249 . S
C201 O197 1.251 . S
C201 O198 1.254 . S
H202 C175 0.949 . S
H203 C177 0.950 . S
H204 C184 0.949 . S
H205 C186 0.950 . S
C206 O222 1.251 . S
C206 O224 1.254 . S
N207 C208 1.333 . S
N207 C212 1.307 . S
N207 Zn213 2.020 . S
C208 N207 1.333 . S
C208 C209 1.379 . S
C208 H226 0.952 . S
C209 C208 1.379 . S
C209 C210 1.390 . S
C209 H236 0.949 . S
C210 C209 1.390 . S
C210 C211 1.357 . S
C211 C210 1.357 . S
C211 C212 1.370 . S
C211 H237 0.950 . S
C212 N207 1.307 . S
C212 C211 1.370 . S
C212 H230 0.948 . S
Zn213 N207 2.020 . S
Zn213 O222 2.039 . S
Zn213 O228 2.034 1_455 S
Zn213 O232 2.025 1_455 S
Zn213 O234 2.024 . S
C214 O233 1.246 . S
C214 O234 1.249 . S
N215 C216 1.307 . S
N215 C217 1.333 . S
N215 Zn221 2.020 . S
C216 N215 1.307 . S
C216 C220 1.370 . S
C216 H227 0.948 . S
C217 N215 1.333 . S
C217 C218 1.377 1_455 S
C217 H225 0.952 1_455 S
C218 C217 1.377 1_655 S
C218 C219 1.382 1_655 S
C218 H238 0.960 . S
C219 C218 1.382 1_455 S
C219 C220 1.357 . S
C220 C216 1.370 . S
C220 C219 1.357 . S
C220 H239 0.950 . S
Zn221 N215 2.020 . S
Zn221 O224 2.025 . S
Zn221 O229 2.024 1_455 S
Zn221 O231 2.039 1_455 S
Zn221 O233 2.034 . S
O222 C206 1.251 . S
O222 Zn213 2.039 . S
C223 O228 1.246 . S
C223 O229 1.249 . S
O224 C206 1.254 . S
O224 Zn221 2.025 . S
H225 C217 0.952 1_655 S
H226 C208 0.952 . S
H227 C216 0.948 . S
O228 Zn213 2.034 1_655 S
O228 C223 1.246 . S
O229 Zn221 2.024 1_655 S
O229 C223 1.249 . S
H230 C212 0.948 . S
O231 Zn221 2.039 1_655 S
O231 C235 1.251 . S
O232 Zn213 2.025 1_655 S
O232 C235 1.254 . S
O233 C214 1.246 . S
O233 Zn221 2.034 . S
O234 Zn213 2.024 . S
O234 C214 1.249 . S
C235 O231 1.251 . S
C235 O232 1.254 . S
H236 C209 0.949 . S
H237 C211 0.950 . S
H238 C218 0.960 . S
H239 C220 0.950 . S
C240 C241 1.390 . S
C240 C246 1.379 . S
C240 N248 1.356 . S
C241 C240 1.390 . S
C241 C247 1.336 1_565 S
C242 C243 1.363 1_545 S
C242 C247 1.379 . S
C242 N249 1.356 . S
C243 C242 1.363 1_565 S
C243 C246 1.363 . S
N244 C246 1.356 . S
N244 H256 0.984 . S
N244 H257 0.985 . S
N245 C247 1.356 . S
N245 H250 0.984 . S
N245 H251 0.985 . S
C246 C240 1.379 . S
C246 C243 1.363 . S
C246 N244 1.356 . S
C247 C241 1.336 1_545 S
C247 C242 1.379 . S
C247 N245 1.356 . S
N248 C240 1.356 . S
N248 H254 0.984 . S
N248 H255 0.984 . S
N249 C242 1.356 . S
N249 H252 0.984 . S
N249 H253 0.985 . S
H250 N245 0.984 . S
H251 N245 0.985 . S
H252 N249 0.984 . S
H253 N249 0.985 . S
H254 N248 0.984 . S
H255 N248 0.984 . S
H256 N244 0.984 . S
H257 N244 0.985 . S
C258 C259 1.363 . S
C258 C264 1.379 . S
C258 N266 1.356 . S
C259 C258 1.363 . S
C259 C265 1.363 . S
C260 C261 1.363 . S
C260 C265 1.379 . S
C260 N267 1.356 . S
C261 C260 1.363 . S
C261 C264 1.363 . S
N262 C264 1.356 . S
N262 H274 0.984 . S
N262 H275 0.985 . S
N263 C265 1.356 . S
N263 H268 0.984 . S
N263 H269 0.985 . S
C264 C258 1.379 . S
C264 C261 1.363 . S
C264 N262 1.356 . S
C265 C259 1.363 . S
C265 C260 1.379 . S
C265 N263 1.356 . S
N266 C258 1.356 . S
N266 H272 0.984 . S
N266 H273 0.984 . S
N267 C260 1.356 . S
N267 H270 0.984 . S
N267 H271 0.985 . S
H268 N263 0.984 . S
H269 N263 0.985 . S
H270 N267 0.984 . S
H271 N267 0.985 . S
H272 N266 0.984 . S
H273 N266 0.984 . S
H274 N262 0.984 . S
H275 N262 0.985 . S
C276 C277 1.363 . S
C276 C282 1.379 . S
C276 N284 1.356 . S
C277 C276 1.363 . S
C277 C283 1.363 . S
C278 C279 1.363 . S
C278 C283 1.379 . S
C278 N285 1.356 . S
C279 C278 1.363 . S
C279 C282 1.363 . S
N280 C282 1.356 . S
N280 H292 0.984 . S
N280 H293 0.985 . S
N281 C283 1.356 . S
N281 H286 0.984 . S
N281 H287 0.985 . S
C282 C276 1.379 . S
C282 C279 1.363 . S
C282 N280 1.356 . S
C283 C277 1.363 . S
C283 C278 1.379 . S
C283 N281 1.356 . S
N284 C276 1.356 . S
N284 H290 0.984 . S
N284 H291 0.984 . S
N285 C278 1.356 . S
N285 H288 0.984 . S
N285 H289 0.985 . S
H286 N281 0.984 . S
H287 N281 0.985 . S
H288 N285 0.984 . S
H289 N285 0.985 . S
H290 N284 0.984 . S
H291 N284 0.984 . S
H292 N280 0.984 . S
H293 N280 0.985 . S
C294 C295 1.363 . S
C294 C300 1.379 . S
C294 N302 1.356 . S
C295 C294 1.363 . S
C295 C301 1.363 . S
C296 C297 1.363 . S
C296 C301 1.379 . S
C296 N303 1.356 . S
C297 C296 1.363 . S
C297 C300 1.363 . S
N298 C300 1.356 . S
N298 H310 0.984 . S
N298 H311 0.985 . S
N299 C301 1.356 . S
N299 H304 0.984 . S
N299 H305 0.985 . S
C300 C294 1.379 . S
C300 C297 1.363 . S
C300 N298 1.356 . S
C301 C295 1.363 . S
C301 C296 1.379 . S
C301 N299 1.356 . S
N302 C294 1.356 . S
N302 H308 0.984 . S
N302 H309 0.984 . S
N303 C296 1.356 . S
N303 H306 0.984 . S
N303 H307 0.985 . S
H304 N299 0.984 . S
H305 N299 0.985 . S
H306 N303 0.984 . S
H307 N303 0.985 . S
H308 N302 0.984 . S
H309 N302 0.984 . S
H310 N298 0.984 . S
H311 N298 0.985 . S
C312 C313 1.363 1_564 S
C312 C318 1.379 1_554 S
C312 N320 1.356 . S
C313 C312 1.363 1_546 S
C313 C319 1.363 . S
C314 C315 1.363 . S
C314 C319 1.379 . S
C314 N321 1.356 . S
C315 C314 1.363 . S
C315 C318 1.363 1_545 S
N316 C318 1.356 . S
N316 H328 0.984 1_556 S
N316 H329 0.985 . S
N317 C319 1.356 . S
N317 H322 0.984 . S
N317 H323 0.985 . S
C318 C312 1.379 1_556 S
C318 C315 1.363 1_565 S
C318 N316 1.356 . S
C319 C313 1.363 . S
C319 C314 1.379 . S
C319 N317 1.356 . S
N320 C312 1.356 . S
N320 H326 0.984 . S
N320 H327 0.984 . S
N321 C314 1.356 . S
N321 H324 0.984 . S
N321 H325 0.985 . S
H322 N317 0.984 . S
H323 N317 0.985 . S
H324 N321 0.984 . S
H325 N321 0.985 . S
H326 N320 0.984 . S
H327 N320 0.984 . S
H328 N316 0.984 1_554 S
H329 N316 0.985 . S
C330 C331 1.363 . S
C330 C336 1.379 . S
C330 N338 1.356 . S
C331 C330 1.363 . S
C331 C337 1.363 1_554 S
C332 C333 1.363 . S
C332 C337 1.379 . S
C332 N339 1.356 . S
C333 C332 1.363 . S
C333 C336 1.363 1_556 S
N334 C336 1.356 . S
N334 H346 0.984 . S
N334 H347 0.985 1_554 S
N335 C337 1.356 . S
N335 H340 0.984 . S
N335 H341 0.985 . S
C336 C330 1.379 . S
C336 C333 1.363 1_554 S
C336 N334 1.356 . S
C337 C331 1.363 1_556 S
C337 C332 1.379 . S
C337 N335 1.356 . S
N338 C330 1.356 . S
N338 H344 0.984 . S
N338 H345 0.984 . S
N339 C332 1.356 . S
N339 H342 0.984 . S
N339 H343 0.985 . S
H340 N335 0.984 . S
H341 N335 0.985 . S
H342 N339 0.984 . S
H343 N339 0.985 . S
H344 N338 0.984 . S
H345 N338 0.984 . S
H346 N334 0.984 . S
H347 N334 0.985 1_556 S
C348 C349 1.363 . S
C348 C354 1.379 1_554 S
C348 N356 1.356 . S
C349 C348 1.363 . S
C349 C355 1.363 . S
C350 C351 1.363 . S
C350 C355 1.379 1_556 S
C350 N357 1.356 . S
C351 C350 1.363 . S
C351 C354 1.363 . S
N352 C354 1.356 . S
N352 H364 0.984 . S
N352 H365 0.985 . S
N353 C355 1.356 . S
N353 H358 0.984 . S
N353 H359 0.985 . S
C354 C348 1.379 1_556 S
C354 C351 1.363 . S
C354 N352 1.356 . S
C355 C349 1.363 . S
C355 C350 1.379 1_554 S
C355 N353 1.356 . S
N356 C348 1.356 . S
N356 H362 0.984 . S
N356 H363 0.984 . S
N357 C350 1.356 . S
N357 H360 0.984 . S
N357 H361 0.985 . S
H358 N353 0.984 . S
H359 N353 0.985 . S
H360 N357 0.984 . S
H361 N357 0.985 . S
H362 N356 0.984 . S
H363 N356 0.984 . S
H364 N352 0.984 . S
H365 N352 0.985 . S
C366 C367 1.363 1_455 S
C366 C372 1.379 . S
C366 N374 1.356 1_556 S
C367 C366 1.363 1_655 S
C367 C373 1.363 . S
C368 C369 1.363 1_655 S
C368 C373 1.379 . S
C368 N375 1.356 . S
C369 C368 1.363 1_455 S
C369 C372 1.363 . S
N370 C372 1.356 . S
N370 H382 0.984 . S
N370 H383 0.985 . S
N371 C373 1.356 . S
N371 H376 0.984 . S
N371 H377 0.985 . S
C372 C366 1.379 . S
C372 C369 1.363 . S
C372 N370 1.356 . S
C373 C367 1.363 . S
C373 C368 1.379 . S
C373 N371 1.356 . S
N374 C366 1.356 1_554 S
N374 H380 0.984 . S
N374 H381 0.984 . S
N375 C368 1.356 . S
N375 H378 0.984 . S
N375 H379 0.985 . S
H376 N371 0.984 . S
H377 N371 0.985 . S
H378 N375 0.984 . S
H379 N375 0.985 . S
H380 N374 0.984 . S
H381 N374 0.984 . S
H382 N370 0.984 . S
H383 N370 0.985 . S
C384 C385 1.363 . S
C384 C390 1.379 . S
C384 N392 1.356 . S
C385 C384 1.363 . S
C385 C391 1.363 . S
C386 C387 1.363 . S
C386 C391 1.379 . S
C386 N393 1.356 . S
C387 C386 1.363 . S
C387 C390 1.363 . S
N388 C390 1.356 . S
N388 H400 0.984 . S
N388 H401 0.985 . S
N389 C391 1.356 . S
N389 H394 0.984 . S
N389 H395 0.985 . S
C390 C384 1.379 . S
C390 C387 1.363 . S
C390 N388 1.356 . S
C391 C385 1.363 . S
C391 C386 1.379 . S
C391 N389 1.356 . S
N392 C384 1.356 . S
N392 H398 0.984 . S
N392 H399 0.984 . S
N393 C386 1.356 . S
N393 H396 0.984 . S
N393 H397 0.985 . S
H394 N389 0.984 . S
H395 N389 0.985 . S
H396 N393 0.984 . S
H397 N393 0.985 . S
H398 N392 0.984 . S
H399 N392 0.984 . S
H400 N388 0.984 . S
H401 N388 0.985 . S
C402 C403 1.377 . S
C402 C408 1.379 . S
C402 N410 1.356 . S
C403 C402 1.377 . S
C403 C409 1.349 1_565 S
C404 C405 1.363 1_545 S
C404 C409 1.379 . S
C404 N411 1.356 . S
C405 C404 1.363 1_565 S
C405 C408 1.363 . S
N406 C408 1.356 . S
N406 H418 0.984 . S
N406 H419 0.985 . S
N407 C409 1.356 . S
N407 H412 0.984 . S
N407 H413 0.985 . S
C408 C402 1.379 . S
C408 C405 1.363 . S
C408 N406 1.356 . S
C409 C403 1.349 1_545 S
C409 C404 1.379 . S
C409 N407 1.356 . S
N410 C402 1.356 . S
N410 H416 0.984 . S
N410 H417 0.984 . S
N411 C404 1.356 . S
N411 H414 0.984 . S
N411 H415 0.985 . S
H412 N407 0.984 . S
H413 N407 0.985 . S
H414 N411 0.984 . S
H415 N411 0.985 . S
H416 N410 0.984 . S
H417 N410 0.984 . S
H418 N406 0.984 . S
H419 N406 0.985 . S
C420 C421 1.363 . S
C420 C426 1.379 . S
C420 N428 1.356 . S
C421 C420 1.363 . S
C421 C427 1.363 . S
C422 C423 1.363 . S
C422 C427 1.379 . S
C422 N429 1.356 . S
C423 C422 1.363 . S
C423 C426 1.363 . S
N424 C426 1.356 . S
N424 H436 0.984 . S
N424 H437 0.985 . S
N425 C427 1.356 . S
N425 H430 0.984 . S
N425 H431 0.985 . S
C426 C420 1.379 . S
C426 C423 1.363 . S
C426 N424 1.356 . S
C427 C421 1.363 . S
C427 C422 1.379 . S
C427 N425 1.356 . S
N428 C420 1.356 . S
N428 H434 0.984 . S
N428 H435 0.984 . S
N429 C422 1.356 . S
N429 H432 0.984 . S
N429 H433 0.985 . S
H430 N425 0.984 . S
H431 N425 0.985 . S
H432 N429 0.984 . S
H433 N429 0.985 . S
H434 N428 0.984 . S
H435 N428 0.984 . S
H436 N424 0.984 . S
H437 N424 0.985 . S
C438 C439 1.363 . S
C438 C444 1.379 . S
C438 N446 1.356 . S
C439 C438 1.363 . S
C439 C445 1.363 . S
C440 C441 1.363 . S
C440 C445 1.379 . S
C440 N447 1.356 . S
C441 C440 1.363 . S
C441 C444 1.363 . S
N442 C444 1.356 . S
N442 H454 0.984 . S
N442 H455 0.985 . S
N443 C445 1.356 . S
N443 H448 0.984 . S
N443 H449 0.985 . S
C444 C438 1.379 . S
C444 C441 1.363 . S
C444 N442 1.356 . S
C445 C439 1.363 . S
C445 C440 1.379 . S
C445 N443 1.356 . S
N446 C438 1.356 . S
N446 H452 0.984 . S
N446 H453 0.984 . S
N447 C440 1.356 . S
N447 H450 0.984 . S
N447 H451 0.985 . S
H448 N443 0.984 . S
H449 N443 0.985 . S
H450 N447 0.984 . S
H451 N447 0.985 . S
H452 N446 0.984 . S
H453 N446 0.984 . S
H454 N442 0.984 . S
H455 N442 0.985 . S
C456 C457 1.363 1_455 S
C456 C462 1.379 . S
C456 N464 1.356 . S
C457 C456 1.363 1_655 S
C457 C463 1.363 . S
C458 C459 1.363 1_655 S
C458 C463 1.379 . S
C458 N465 1.356 1_556 S
C459 C458 1.363 1_455 S
C459 C462 1.363 . S
N460 C462 1.356 . S
N460 H472 0.984 . S
N460 H473 0.985 . S
N461 C463 1.356 1_554 S
N461 H466 0.984 1_554 S
N461 H467 0.985 . S
C462 C456 1.379 . S
C462 C459 1.363 . S
C462 N460 1.356 . S
C463 C457 1.363 . S
C463 C458 1.379 . S
C463 N461 1.356 1_556 S
N464 C456 1.356 . S
N464 H470 0.984 . S
N464 H471 0.984 1_455 S
N465 C458 1.356 1_554 S
N465 H468 0.984 . S
N465 H469 0.985 . S
H466 N461 0.984 1_556 S
H467 N461 0.985 . S
H468 N465 0.984 . S
H469 N465 0.985 . S
H470 N464 0.984 . S
H471 N464 0.984 1_655 S
H472 N460 0.984 . S
H473 N460 0.985 . S
C474 C475 1.378 . S
C474 C480 1.379 . S
C474 N482 1.356 . S
C475 C474 1.378 . S
C475 C481 1.348 1_544 S
C476 C477 1.363 1_565 S
C476 C481 1.379 . S
C476 N483 1.356 . S
C477 C476 1.363 1_545 S
C477 C480 1.363 1_556 S
N478 C480 1.356 . S
N478 H490 0.984 . S
N478 H491 0.985 1_554 S
N479 C481 1.356 . S
N479 H484 0.984 . S
N479 H485 0.985 . S
C480 C474 1.379 . S
C480 C477 1.363 1_554 S
C480 N478 1.356 . S
C481 C475 1.348 1_566 S
C481 C476 1.379 . S
C481 N479 1.356 . S
N482 C474 1.356 . S
N482 H488 0.984 . S
N482 H489 0.984 . S
N483 C476 1.356 . S
N483 H486 0.984 . S
N483 H487 0.985 . S
H484 N479 0.984 . S
H485 N479 0.985 . S
H486 N483 0.984 . S
H487 N483 0.985 . S
H488 N482 0.984 . S
H489 N482 0.984 . S
H490 N478 0.984 . S
H491 N478 0.985 1_556 S
C492 C493 1.363 1_556 S
C492 C498 1.379 . S
C492 N500 1.356 . S
C493 C492 1.363 1_554 S
C493 C499 1.363 . S
C494 C495 1.363 1_554 S
C494 C499 1.379 . S
C494 N501 1.356 . S
C495 C494 1.363 1_556 S
C495 C498 1.363 . S
N496 C498 1.356 . S
N496 H508 0.984 . S
N496 H509 0.985 . S
N497 C499 1.356 . S
N497 H502 0.984 . S
N497 H503 0.985 . S
C498 C492 1.379 . S
C498 C495 1.363 . S
C498 N496 1.356 . S
C499 C493 1.363 . S
C499 C494 1.379 . S
C499 N497 1.356 . S
N500 C492 1.356 . S
N500 H506 0.984 . S
N500 H507 0.984 . S
N501 C494 1.356 . S
N501 H504 0.984 1_554 S
N501 H505 0.985 . S
H502 N497 0.984 . S
H503 N497 0.985 . S
H504 N501 0.984 1_556 S
H505 N501 0.985 . S
H506 N500 0.984 . S
H507 N500 0.984 . S
H508 N496 0.984 . S
H509 N496 0.985 . S
C510 C511 1.363 . S
C510 C516 1.379 . S
C510 N518 1.356 . S
C511 C510 1.363 . S
C511 C517 1.363 1_554 S
C512 C513 1.363 . S
C512 C517 1.379 . S
C512 N519 1.356 . S
C513 C512 1.363 . S
C513 C516 1.363 1_556 S
N514 C516 1.356 . S
N514 H526 0.984 . S
N514 H527 0.985 1_554 S
N515 C517 1.356 1_554 S
N515 H520 0.984 . S
N515 H521 0.985 1_554 S
C516 C510 1.379 . S
C516 C513 1.363 1_554 S
C516 N514 1.356 . S
C517 C511 1.363 1_556 S
C517 C512 1.379 . S
C517 N515 1.356 1_556 S
N518 C510 1.356 . S
N518 H524 0.984 . S
N518 H525 0.984 . S
N519 C512 1.356 . S
N519 H522 0.984 . S
N519 H523 0.985 . S
H520 N515 0.984 . S
H521 N515 0.985 1_556 S
H522 N519 0.984 . S
H523 N519 0.985 . S
H524 N518 0.984 . S
H525 N518 0.984 . S
H526 N514 0.984 . S
H527 N514 0.985 1_556 S
C528 C529 1.363 . S
C528 C534 1.379 . S
C528 N536 1.356 . S
C529 C528 1.363 . S
C529 C535 1.363 . S
C530 C531 1.363 . S
C530 C535 1.379 . S
C530 N537 1.356 . S
C531 C530 1.363 . S
C531 C534 1.363 . S
N532 C534 1.356 . S
N532 H544 0.984 . S
N532 H545 0.985 . S
N533 C535 1.356 . S
N533 H538 0.984 . S
N533 H539 0.985 . S
C534 C528 1.379 . S
C534 C531 1.363 . S
C534 N532 1.356 . S
C535 C529 1.363 . S
C535 C530 1.379 . S
C535 N533 1.356 . S
N536 C528 1.356 . S
N536 H542 0.984 . S
N536 H543 0.984 . S
N537 C530 1.356 . S
N537 H540 0.984 . S
N537 H541 0.985 1_455 S
H538 N533 0.984 . S
H539 N533 0.985 . S
H540 N537 0.984 . S
H541 N537 0.985 1_655 S
H542 N536 0.984 . S
H543 N536 0.984 . S
H544 N532 0.984 . S
H545 N532 0.985 . S
C546 C547 1.338 1_565 S
C546 C552 1.379 . S
C546 N554 1.356 . S
C547 C546 1.338 1_545 S
C547 C553 1.387 . S
C548 C549 1.363 . S
C548 C553 1.379 . S
C548 N555 1.356 1_554 S
C549 C548 1.363 . S
C549 C552 1.363 1_545 S
N550 C552 1.356 . S
N550 H562 0.984 . S
N550 H563 0.985 . S
N551 C553 1.356 . S
N551 H556 0.984 . S
N551 H557 0.985 . S
C552 C546 1.379 . S
C552 C549 1.363 1_565 S
C552 N550 1.356 . S
C553 C547 1.387 . S
C553 C548 1.379 . S
C553 N551 1.356 . S
N554 C546 1.356 . S
N554 H560 0.984 . S
N554 H561 0.984 . S
N555 C548 1.356 1_556 S
N555 H558 0.984 . S
N555 H559 0.985 . S
H556 N551 0.984 . S
H557 N551 0.985 . S
H558 N555 0.984 . S
H559 N555 0.985 . S
H560 N554 0.984 . S
H561 N554 0.984 . S
H562 N550 0.984 . S
H563 N550 0.985 . S
C564 C565 1.363 . S
C564 C570 1.379 . S
C564 N572 1.356 . S
C565 C564 1.363 . S
C565 C571 1.363 . S
C566 C567 1.363 . S
C566 C571 1.379 . S
C566 N573 1.356 . S
C567 C566 1.363 . S
C567 C570 1.363 . S
N568 C570 1.356 1_556 S
N568 H580 0.984 . S
N568 H581 0.985 . S
N569 C571 1.356 . S
N569 H574 0.984 . S
N569 H575 0.985 . S
C570 C564 1.379 . S
C570 C567 1.363 . S
C570 N568 1.356 1_554 S
C571 C565 1.363 . S
C571 C566 1.379 . S
C571 N569 1.356 . S
N572 C564 1.356 . S
N572 H578 0.984 . S
N572 H579 0.984 . S
N573 C566 1.356 . S
N573 H576 0.984 . S
N573 H577 0.985 . S
H574 N569 0.984 . S
H575 N569 0.985 . S
H576 N573 0.984 . S
H577 N573 0.985 . S
H578 N572 0.984 . S
H579 N572 0.984 . S
H580 N568 0.984 . S
H581 N568 0.985 . S
C582 C583 1.363 . S
C582 C588 1.379 . S
C582 N590 1.356 . S
C583 C582 1.363 . S
C583 C589 1.363 . S
C584 C585 1.363 1_554 S
C584 C589 1.379 . S
C584 N591 1.356 1_554 S
C585 C584 1.363 1_556 S
C585 C588 1.363 1_556 S
N586 C588 1.356 1_556 S
N586 H598 0.984 . S
N586 H599 0.985 . S
N587 C589 1.356 . S
N587 H592 0.984 . S
N587 H593 0.985 . S
C588 C582 1.379 . S
C588 C585 1.363 1_554 S
C588 N586 1.356 1_554 S
C589 C583 1.363 . S
C589 C584 1.379 . S
C589 N587 1.356 . S
N590 C582 1.356 . S
N590 H596 0.984 . S
N590 H597 0.984 . S
N591 C584 1.356 1_556 S
N591 H594 0.984 . S
N591 H595 0.985 1_556 S
H592 N587 0.984 . S
H593 N587 0.985 . S
H594 N591 0.984 . S
H595 N591 0.985 1_554 S
H596 N590 0.984 . S
H597 N590 0.984 . S
H598 N586 0.984 . S
H599 N586 0.985 . S
C600 C601 1.363 . S
C600 C606 1.379 . S
C600 N608 1.356 . S
C601 C600 1.363 . S
C601 C607 1.363 1_655 S
C602 C603 1.363 1_455 S
C602 C607 1.379 . S
C602 N609 1.356 . S
C603 C602 1.363 1_655 S
C603 C606 1.363 . S
N604 C606 1.356 . S
N604 H616 0.984 . S
N604 H617 0.985 . S
N605 C607 1.356 . S
N605 H610 0.984 . S
N605 H611 0.985 . S
C606 C600 1.379 . S
C606 C603 1.363 . S
C606 N604 1.356 . S
C607 C601 1.363 1_455 S
C607 C602 1.379 . S
C607 N605 1.356 . S
N608 C600 1.356 . S
N608 H614 0.984 . S
N608 H615 0.984 . S
N609 C602 1.356 . S
N609 H612 0.984 . S
N609 H613 0.985 . S
H610 N605 0.984 . S
H611 N605 0.985 . S
H612 N609 0.984 . S
H613 N609 0.985 . S
H614 N608 0.984 . S
H615 N608 0.984 . S
H616 N604 0.984 . S
H617 N604 0.985 . S
C618 C619 1.344 1_545 S
C618 C624 1.379 . S
C618 N626 1.356 . S
C619 C618 1.344 1_565 S
C619 C625 1.381 . S
C620 C621 1.363 . S
C620 C625 1.379 . S
C620 N627 1.356 . S
C621 C620 1.363 . S
C621 C624 1.363 1_565 S
N622 C624 1.356 . S
N622 H634 0.984 . S
N622 H635 0.985 . S
N623 C625 1.356 . S
N623 H628 0.984 . S
N623 H629 0.985 . S
C624 C618 1.379 . S
C624 C621 1.363 1_545 S
C624 N622 1.356 . S
C625 C619 1.381 . S
C625 C620 1.379 . S
C625 N623 1.356 . S
N626 C618 1.356 . S
N626 H632 0.984 . S
N626 H633 0.984 . S
N627 C620 1.356 . S
N627 H630 0.984 . S
N627 H631 0.985 . S
H628 N623 0.984 . S
H629 N623 0.985 . S
H630 N627 0.984 . S
H631 N627 0.985 . S
H632 N626 0.984 . S
H633 N626 0.984 . S
H634 N622 0.984 . S
H635 N622 0.985 . S
C636 C637 1.363 . S
C636 C642 1.379 . S
C636 N644 1.356 . S
C637 C636 1.363 . S
C637 C643 1.363 . S
C638 C639 1.363 . S
C638 C643 1.379 . S
C638 N645 1.356 . S
C639 C638 1.363 . S
C639 C642 1.363 . S
N640 C642 1.356 . S
N640 H652 0.984 . S
N640 H653 0.985 . S
N641 C643 1.356 . S
N641 H646 0.984 . S
N641 H647 0.985 . S
C642 C636 1.379 . S
C642 C639 1.363 . S
C642 N640 1.356 . S
C643 C637 1.363 . S
C643 C638 1.379 . S
C643 N641 1.356 . S
N644 C636 1.356 . S
N644 H650 0.984 . S
N644 H651 0.984 . S
N645 C638 1.356 . S
N645 H648 0.984 . S
N645 H649 0.985 . S
H646 N641 0.984 . S
H647 N641 0.985 . S
H648 N645 0.984 . S
H649 N645 0.985 . S
H650 N644 0.984 . S
H651 N644 0.984 . S
H652 N640 0.984 . S
H653 N640 0.985 . S
C654 C655 1.363 . S
C654 C660 1.379 . S
C654 N662 1.356 . S
C655 C654 1.363 . S
C655 C661 1.363 . S
C656 C657 1.363 . S
C656 C661 1.379 . S
C656 N663 1.356 . S
C657 C656 1.363 . S
C657 C660 1.363 . S
N658 C660 1.356 . S
N658 H670 0.984 . S
N658 H671 0.985 . S
N659 C661 1.356 . S
N659 H664 0.984 . S
N659 H665 0.985 . S
C660 C654 1.379 . S
C660 C657 1.363 . S
C660 N658 1.356 . S
C661 C655 1.363 . S
C661 C656 1.379 . S
C661 N659 1.356 . S
N662 C654 1.356 . S
N662 H668 0.984 . S
N662 H669 0.984 . S
N663 C656 1.356 . S
N663 H666 0.984 . S
N663 H667 0.985 . S
H664 N659 0.984 . S
H665 N659 0.985 . S
H666 N663 0.984 . S
H667 N663 0.985 . S
H668 N662 0.984 . S
H669 N662 0.984 . S
H670 N658 0.984 . S
H671 N658 0.985 . S
C241 C82 1.765 1_565 S
C243 C121 1.875 . S
C261 C142 1.533 . S
C259 C95 1.451 . S
C279 C176 1.471 . S
C277 C56 1.312 . S
C297 C210 1.554 . S
C295 C69 1.500 . S
C315 C112 1.875 . S
C313 C30 1.757 1_556 S
C331 C43 1.427 . S
C333 C151 1.536 . S
C349 C4 1.304 . S
C351 C185 1.471 . S
C367 C17 1.443 . S
C369 C219 1.554 . S
C387 C133 0.885 . S
C385 C74 0.832 . S
C405 C138 1.284 . S
C403 C87 1.251 1_565 S
C423 C172 1.195 . S
C421 C100 1.177 . S
C439 C61 0.630 . S
C441 C206 0.631 . S
C457 C22 0.833 . S
C459 C104 0.889 . S
C477 C167 1.284 . S
C475 C35 1.250 . S
C495 C201 1.194 . S
C493 C48 1.175 . S
C511 C9 0.630 . S
C513 C235 0.631 . S
C529 C73 1.346 . S
C531 C117 1.384 . S
C547 C86 1.717 . S
C549 C146 1.764 1_554 S
C567 C180 1.545 1_554 S
C565 C99 1.517 . S
C585 C214 1.608 . S
C583 C60 1.562 . S
C601 C21 1.343 . S
C603 C108 1.390 . S
C621 C155 1.765 . S
C619 C34 1.720 1_565 S
C639 C189 1.545 . S
C637 C47 1.516 . S
C655 C8 1.564 . S
C657 C223 1.608 . S
