# Generated by pormake.
# Topology zzz, (3,6)-cn, num edge types: 1
# Building blocks:
#     Node 0, Type 0, BuildingBlock: KAKCAD_clean_linker_0, # of connection points: 3
#     Node 1, Type 0, BuildingBlock: KAKCAD_clean_linker_0, # of connection points: 3
#     Node 2, Type 0, BuildingBlock: KAKCAD_clean_linker_0, # of connection points: 3
#     Node 3, Type 0, BuildingBlock: KAKCAD_clean_linker_0, # of connection points: 3
#     Node 4, Type 0, BuildingBlock: KAKCAD_clean_linker_0, # of connection points: 3
#     Node 5, Type 0, BuildingBlock: KAKCAD_clean_linker_0, # of connection points: 3
#     Node 6, Type 0, BuildingBlock: KAKCAD_clean_linker_0, # of connection points: 3
#     Node 7, Type 0, BuildingBlock: KAKCAD_clean_linker_0, # of connection points: 3
#     Node 8, Type 1, BuildingBlock: KUMJIN_clean_sbu_0, # of connection points: 6
#     Node 9, Type 1, BuildingBlock: KUMJIN_clean_sbu_0, # of connection points: 6
#     Node 10, Type 1, BuildingBlock: KUMJIN_clean_sbu_0, # of connection points: 6
#     Node 11, Type 1, BuildingBlock: KUMJIN_clean_sbu_0, # of connection points: 6
#     Edge 12, Type (0, 1), BuildingBlock: ZUJKAS_clean_linker_0, # of connection points: 2
#     Edge 13, Type (0, 1), BuildingBlock: ZUJKAS_clean_linker_0, # of connection points: 2
#     Edge 14, Type (0, 1), BuildingBlock: ZUJKAS_clean_linker_0, # of connection points: 2
#     Edge 15, Type (0, 1), BuildingBlock: ZUJKAS_clean_linker_0, # of connection points: 2
#     Edge 16, Type (0, 1), BuildingBlock: ZUJKAS_clean_linker_0, # of connection points: 2
#     Edge 17, Type (0, 1), BuildingBlock: ZUJKAS_clean_linker_0, # of connection points: 2
#     Edge 18, Type (0, 1), BuildingBlock: ZUJKAS_clean_linker_0, # of connection points: 2
#     Edge 19, Type (0, 1), BuildingBlock: ZUJKAS_clean_linker_0, # of connection points: 2
#     Edge 20, Type (0, 1), BuildingBlock: ZUJKAS_clean_linker_0, # of connection points: 2
#     Edge 21, Type (0, 1), BuildingBlock: ZUJKAS_clean_linker_0, # of connection points: 2
#     Edge 22, Type (0, 1), BuildingBlock: ZUJKAS_clean_linker_0, # of connection points: 2
#     Edge 23, Type (0, 1), BuildingBlock: ZUJKAS_clean_linker_0, # of connection points: 2
#     Edge 24, Type (0, 1), BuildingBlock: ZUJKAS_clean_linker_0, # of connection points: 2
#     Edge 25, Type (0, 1), BuildingBlock: ZUJKAS_clean_linker_0, # of connection points: 2
#     Edge 26, Type (0, 1), BuildingBlock: ZUJKAS_clean_linker_0, # of connection points: 2
#     Edge 27, Type (0, 1), BuildingBlock: ZUJKAS_clean_linker_0, # of connection points: 2
#     Edge 28, Type (0, 1), BuildingBlock: ZUJKAS_clean_linker_0, # of connection points: 2
#     Edge 29, Type (0, 1), BuildingBlock: ZUJKAS_clean_linker_0, # of connection points: 2
#     Edge 30, Type (0, 1), BuildingBlock: ZUJKAS_clean_linker_0, # of connection points: 2
#     Edge 31, Type (0, 1), BuildingBlock: ZUJKAS_clean_linker_0, # of connection points: 2
#     Edge 32, Type (0, 1), BuildingBlock: ZUJKAS_clean_linker_0, # of connection points: 2
#     Edge 33, Type (0, 1), BuildingBlock: ZUJKAS_clean_linker_0, # of connection points: 2
#     Edge 34, Type (0, 1), BuildingBlock: ZUJKAS_clean_linker_0, # of connection points: 2
#     Edge 35, Type (0, 1), BuildingBlock: ZUJKAS_clean_linker_0, # of connection points: 2
# Relax obj value: 0.272
# Max RMSD: 0.226
# Mean RMSD: 0.210
data_MOF--net-zzz--node1-KUMJIN_clean_sbu_0--node2-KAKCAD_clean_linker_0--edge1-ZUJKAS_clean_linker_0
_symmetry_space_group_name_H-M    P1
_symmetry_Int_Tables_number       1
_symmetry_cell_setting            triclinic
loop_
_symmetry_equiv_pos_as_xyz
'x, y, z'
_cell_length_a     71.770768
_cell_length_b     71.65208
_cell_length_c     24.907958
_cell_angle_alpha  90.37829
_cell_angle_beta   90.100412
_cell_angle_gamma 89.943555
loop_
_atom_site_label
_atom_site_type_symbol
_atom_site_fract_x
_atom_site_fract_y
_atom_site_fract_z
_atom_type_partial_charge
C0 C 0.7922 0.59643 0.93423 0.0
C1 C 0.81036 0.58914 0.93131 0.0
C2 C 0.77937 0.58919 0.97105 0.0
C3 C 0.78445 0.57442 1.00518 0.0
C4 C 0.80258 0.56713 1.00163 0.0
C5 C 0.81535 0.57441 0.96542 0.0
C6 C 0.77098 0.56606 0.04352 0.0
C7 C 0.75239 0.56284 0.0287 0.0
C8 C 0.74019 0.55309 0.06267 0.0
C9 C 0.74693 0.54623 0.11222 0.0
C10 C 0.76542 0.55006 0.12836 0.0
C11 C 0.77712 0.5601 0.09405 0.0
C12 C 0.77358 0.54348 0.17977 0.0
C13 C 0.78009 0.55666 0.21734 0.0
C14 C 0.77889 0.52473 0.18563 0.0
C15 C 0.7914 0.5195 0.22634 0.0
C16 C 0.79882 0.53292 0.26214 0.0
C17 C 0.72065 0.55011 0.04421 0.0
C18 C 0.71005 0.56543 0.02678 0.0
C19 C 0.71335 0.53208 0.03722 0.0
C20 C 0.69625 0.5294 0.01064 0.0
C21 C 0.686 0.54472 0.99084 0.0
C22 C 0.69293 0.56279 1.00086 0.0
C23 C 0.79245 0.55145 0.25817 0.0
H24 H 0.78797 0.60774 0.90826 0.0
H25 H 0.76553 0.59519 0.97294 0.0
H26 H 0.80686 0.5554 0.02597 0.0
H27 H 0.82904 0.56807 0.96307 0.0
H28 H 0.74753 0.56727 0.98957 0.0
H29 H 0.79133 0.56291 0.10654 0.0
H30 H 0.73781 0.53842 0.13836 0.0
H31 H 0.77652 0.57127 0.21301 0.0
H32 H 0.77438 0.51437 0.15655 0.0
H33 H 0.7958 0.50507 0.22853 0.0
H34 H 0.71529 0.5795 0.03191 0.0
H35 H 0.72133 0.52002 0.0497 0.0
H36 H 0.79794 0.56223 0.2844 0.0
H37 H 0.68531 0.57499 0.98779 0.0
H38 H 0.69151 0.51526 1.00352 0.0
C39 C 0.92689 0.79299 0.92466 0.0
C40 C 0.93476 0.81061 0.91501 0.0
C41 C 0.93411 0.78153 0.96512 0.0
C42 C 0.94942 0.78744 0.9963 0.0
C43 C 0.95712 0.80512 0.98664 0.0
C44 C 0.94987 0.81653 0.94675 0.0
C45 C 0.95804 0.77514 0.03735 0.0
C46 C 0.96067 0.75606 0.02715 0.0
C47 C 0.97049 0.74466 0.06336 0.0
C48 C 0.97796 0.75282 0.11081 0.0
C49 C 0.97507 0.77202 0.12182 0.0
C50 C 0.96494 0.78281 0.08525 0.0
C51 C 0.98285 0.78199 0.16946 0.0
C52 C 0.97285 0.7826 0.21787 0.0
C53 C 0.9973 0.79491 0.1619 0.0
C54 C 1.00108 0.80874 0.2005 0.0
C55 C 0.99041 0.81015 0.24783 0.0
C56 C 0.97316 0.72457 0.04842 0.0
C57 C 0.95784 0.71408 0.02992 0.0
C58 C 0.99102 0.7166 0.04455 0.0
C59 C 0.99354 0.699 0.02 0.0
C60 C 0.97825 0.6889 0.99907 0.0
C61 C 0.96032 0.69656 0.00571 0.0
C62 C 0.97664 0.79645 0.2567 0.0
H63 H 0.91526 0.78804 0.90076 0.0
H64 H 0.92777 0.76804 0.97182 0.0
H65 H 0.96922 0.80995 0.00873 0.0
H66 H 0.95666 0.82976 0.93937 0.0
H67 H 0.95576 0.75015 0.98953 0.0
H68 H 0.96269 0.79749 0.09402 0.0
H69 H 0.98589 0.74438 0.13865 0.0
H70 H 0.96132 0.77314 0.22417 0.0
H71 H 0.00486 0.79512 0.12428 0.0
H72 H 0.0116 0.81905 0.1914 0.0
H73 H 0.94389 0.71982 0.03219 0.0
H74 H 1.00312 0.72437 0.05793 0.0
H75 H 0.96829 0.79681 0.29285 0.0
H76 H 0.94818 0.68945 0.98986 0.0
H77 H 0.00754 0.69349 0.01646 0.0
C78 C 0.71993 0.92409 0.9374 0.0
C79 C 0.70071 0.92761 0.93998 0.0
C80 C 0.73201 0.93193 0.97559 0.0
C81 C 0.72513 0.94386 0.01622 0.0
C82 C 0.70577 0.94695 0.01902 0.0
C83 C 0.69373 0.93875 0.98181 0.0
C84 C 0.73796 0.95402 0.05362 0.0
C85 C 0.75544 0.96038 0.03621 0.0
C86 C 0.76687 0.97141 0.06968 0.0
C87 C 0.76032 0.97667 0.12111 0.0
C88 C 0.74277 0.9704 0.13897 0.0
C89 C 0.73213 0.95867 0.10577 0.0
C90 C 0.73393 0.97709 0.18942 0.0
C91 C 0.7294 0.96424 0.22967 0.0
C92 C 0.72572 0.99487 0.19106 0.0
C93 C 0.71223 0.99926 0.2299 0.0
C94 C 0.70668 0.98595 0.26819 0.0
C95 C 0.7854 0.97735 0.04903 0.0
C96 C 0.80192 0.97218 0.07545 0.0
C97 C 0.78671 0.98607 0.99876 0.0
C98 C 0.80405 0.98893 0.97449 0.0
C99 C 0.82058 0.98294 0.99952 0.0
C100 C 0.81932 0.97482 0.05079 0.0
C101 C 0.7161 0.96868 0.26888 0.0
H102 H 0.72562 0.91559 0.90523 0.0
H103 H 0.74674 0.92889 0.97256 0.0
H104 H 0.69983 0.9564 0.04842 0.0
H105 H 0.67901 0.94205 0.98391 0.0
H106 H 0.76016 0.95707 0.99598 0.0
H107 H 0.71881 0.95373 0.12034 0.0
H108 H 0.76863 0.98576 0.1465 0.0
H109 H 0.73532 0.95033 0.22878 0.0
H110 H 0.72861 1.00485 0.15966 0.0
H111 H 0.70528 0.01264 0.22741 0.0
H112 H 0.80131 0.96527 0.11396 0.0
H113 H 0.77421 0.99014 0.97736 0.0
H114 H 0.71263 0.9582 0.29835 0.0
H115 H 0.83177 0.97021 0.07144 0.0
H116 H 0.80442 0.99508 0.93491 0.0
C117 C 0.53501 0.72995 0.2325 0.0
C118 C 0.54687 0.72159 0.27065 0.0
C119 C 0.54203 0.74273 0.1951 0.0
C120 C 0.56104 0.74732 0.19502 0.0
C121 C 0.57258 0.74 0.23537 0.0
C122 C 0.56559 0.72736 0.2728 0.0
C123 C 0.5697 0.75593 0.14709 0.0
C124 C 0.56517 0.77399 0.12901 0.0
C125 C 0.57376 0.78118 0.08243 0.0
C126 C 0.58618 0.76977 0.05324 0.0
C127 C 0.59029 0.75159 0.07003 0.0
C128 C 0.58223 0.74499 0.11742 0.0
C129 C 0.60112 0.73852 0.03561 0.0
C130 C 0.59706 0.73699 0.98054 0.0
C131 C 0.61342 0.72556 0.05882 0.0
C132 C 0.61991 0.71031 0.02903 0.0
C133 C 0.6143 0.70778 0.97541 0.0
C134 C 0.5696 0.80024 0.06199 0.0
C135 C 0.55116 0.80626 0.0542 0.0
C136 C 0.58422 0.81181 0.04489 0.0
C137 C 0.58055 0.8286 0.01857 0.0
C138 C 0.56213 0.83426 0.00833 0.0
C139 C 0.54746 0.82305 0.0274 0.0
C140 C 0.60361 0.72177 0.9507 0.0
H141 H 0.52045 0.72605 0.23014 0.0
H142 H 0.5329 0.74797 0.16397 0.0
H143 H 0.58734 0.74314 0.23575 0.0
H144 H 0.57522 0.72116 0.30106 0.0
H145 H 0.55534 0.78246 0.15144 0.0
H146 H 0.58491 0.73077 0.12996 0.0
H147 H 0.59231 0.77489 0.01642 0.0
H148 H 0.58755 0.74666 0.96151 0.0
H149 H 0.61711 0.7266 0.10093 0.0
H150 H 0.62835 0.69988 0.04887 0.0
H151 H 0.5396 0.79761 0.06666 0.0
H152 H 0.59859 0.8076 0.05058 0.0
H153 H 0.59892 0.72015 0.90958 0.0
H154 H 0.5331 0.8271 0.02081 0.0
H155 H 0.5922 0.83675 1.00421 0.0
C156 C 0.22655 0.4333 0.24561 0.0
C157 C 0.21181 0.42192 0.2277 0.0
C158 C 0.23972 0.44005 0.2094 0.0
C159 C 0.23842 0.4356 0.1545 0.0
C160 C 0.22457 0.42305 0.1373 0.0
C161 C 0.21142 0.41625 0.17355 0.0
C162 C 0.25004 0.44569 0.1149 0.0
C163 C 0.26899 0.44898 0.12459 0.0
C164 C 0.27951 0.46035 0.09028 0.0
C165 C 0.27082 0.4684 0.04494 0.0
C166 C 0.25178 0.46489 0.03438 0.0
C167 C 0.24164 0.45357 0.06951 0.0
C168 C 0.24156 0.47317 0.98836 0.0
C169 C 0.22724 0.4861 0.99836 0.0
C170 C 0.24317 0.4654 0.93669 0.0
C171 C 0.23012 0.46978 0.89655 0.0
C172 C 0.21518 0.48207 0.90726 0.0
C173 C 0.29919 0.46429 0.10541 0.0
C174 C 0.30465 0.48232 0.12114 0.0
C175 C 0.31167 0.44943 0.11333 0.0
C176 C 0.32889 0.45237 0.13852 0.0
C177 C 0.334 0.47022 0.15751 0.0
C178 C 0.32181 0.48525 0.14709 0.0
C179 C 0.21429 0.49058 0.95831 0.0
H180 H 0.22716 0.43814 0.28686 0.0
H181 H 0.25014 0.4498 0.22386 0.0
H182 H 0.22344 0.41911 0.09536 0.0
H183 H 0.20042 0.40725 0.15867 0.0
H184 H 0.27551 0.44306 0.15993 0.0
H185 H 0.2269 0.4514 0.06222 0.0
H186 H 0.2787 0.4774 0.01859 0.0
H187 H 0.22546 0.49198 0.03822 0.0
H188 H 0.25386 0.45511 0.92828 0.0
H189 H 0.2314 0.46311 0.8576 0.0
H190 H 0.29515 0.49396 0.11643 0.0
H191 H 0.30777 0.43536 0.10177 0.0
H192 H 0.20293 0.49991 0.96847 0.0
H193 H 0.32502 0.49918 0.16139 0.0
H194 H 0.33799 0.44049 0.14428 0.0
C195 C 0.07878 0.22706 0.25028 0.0
C196 C 0.09084 0.21324 0.23003 0.0
C197 C 0.06966 0.23928 0.21561 0.0
C198 C 0.07243 0.23801 0.15987 0.0
C199 C 0.08556 0.22511 0.13999 0.0
C200 C 0.09462 0.21281 0.17471 0.0
C201 C 0.0603 0.24873 0.12268 0.0
C202 C 0.05514 0.26717 0.13444 0.0
C203 C 0.04224 0.27682 0.10228 0.0
C204 C 0.03433 0.26759 0.05713 0.0
C205 C 0.03994 0.24915 0.04395 0.0
C206 C 0.05277 0.23999 0.07713 0.0
C207 C 0.03308 0.23857 0.99618 0.0
C208 C 0.01565 0.22964 0.99712 0.0
C209 C 0.04587 0.23341 0.95608 0.0
C210 C 0.04185 0.21893 0.91981 0.0
C211 C 0.02493 0.20907 0.92277 0.0
C212 C 0.03757 0.29644 0.11813 0.0
C213 C 0.01933 0.30166 0.13237 0.0
C214 C 0.0521 0.30917 0.12802 0.0
C215 C 0.04875 0.32616 0.15434 0.0
C216 C 0.03073 0.33098 0.17187 0.0
C217 C 0.01594 0.31877 0.15892 0.0
C218 C 0.01158 0.2151 0.96063 0.0
H219 H 0.07532 0.2276 0.29257 0.0
H220 H 0.05952 0.24889 0.23231 0.0
H221 H 0.08832 0.22406 0.09734 0.0
H222 H 0.10399 0.20243 0.15803 0.0
H223 H 0.06104 0.27405 0.16945 0.0
H224 H 0.05645 0.22562 0.06808 0.0
H225 H 0.02436 0.27478 0.03193 0.0
H226 H 0.00572 0.23298 0.02846 0.0
H227 H 0.05954 0.23982 0.955 0.0
H228 H 0.05235 0.21497 0.89069 0.0
H229 H 0.00789 0.29205 0.12593 0.0
H230 H 0.0663 0.30559 0.11739 0.0
H231 H 0.99844 0.20781 0.96439 0.0
H232 H 1.00188 0.32196 0.17176 0.0
H233 H 0.06043 0.33534 0.1622 0.0
C234 C 0.29023 0.0894 0.25523 0.0
C235 C 0.30444 0.10171 0.23994 0.0
C236 C 0.2787 0.08118 0.21674 0.0
C237 C 0.28089 0.08527 0.16192 0.0
C238 C 0.29422 0.09869 0.14711 0.0
C239 C 0.306 0.1067 0.1857 0.0
C240 C 0.27059 0.07416 0.12063 0.0
C241 C 0.25259 0.06759 0.13099 0.0
C242 C 0.24384 0.05462 0.09676 0.0
C243 C 0.25299 0.04893 0.04908 0.0
C244 C 0.27087 0.05607 0.03679 0.0
C245 C 0.27948 0.06845 0.0732 0.0
C246 C 0.28173 0.05025 0.98837 0.0
C247 C 0.28559 0.03136 0.97756 0.0
C248 C 0.29094 0.06388 0.95793 0.0
C249 C 0.30451 0.05891 0.92024 0.0
C250 C 0.30929 0.04008 0.91144 0.0
C251 C 0.22566 0.04676 0.1146 0.0
C252 C 0.22416 0.03982 0.16708 0.0
C253 C 0.20934 0.04872 0.08392 0.0
C254 C 0.19181 0.04483 0.10659 0.0
C255 C 0.19025 0.03888 0.16038 0.0
C256 C 0.20679 0.03603 0.18967 0.0
C257 C 0.29923 0.02633 0.93956 0.0
H258 H 0.28892 0.085 0.29659 0.0
H259 H 0.26889 0.07071 0.22992 0.0
H260 H 0.29604 0.10251 0.10546 0.0
H261 H 0.31682 0.11621 0.17292 0.0
H262 H 0.24539 0.07225 0.16689 0.0
H263 H 0.29366 0.07289 0.06565 0.0
H264 H 0.24643 0.0389 0.02241 0.0
H265 H 0.27885 0.02053 1.0006 0.0
H266 H 0.28829 0.07857 0.96532 0.0
H267 H 0.31194 0.06998 0.90016 0.0
H268 H 0.2365 0.03819 0.19178 0.0
H269 H 0.21005 0.05417 0.04352 0.0
H270 H 0.30222 0.01166 0.93331 0.0
H271 H 0.20639 0.03176 0.23125 0.0
H272 H 0.17946 0.04691 0.08233 0.0
C273 C 0.45926 0.29441 0.8829 0.0
C274 C 0.47676 0.30308 0.88729 0.0
C275 C 0.45295 0.2825 0.92338 0.0
C276 C 0.4642 0.27871 0.96824 0.0
C277 C 0.48229 0.28611 0.97032 0.0
C278 C 0.48847 0.29831 0.93042 0.0
C279 C 0.45569 0.27149 0.01811 0.0
C280 C 0.46155 0.25476 0.04222 0.0
C281 C 0.45493 0.24987 0.0936 0.0
C282 C 0.44304 0.26235 0.12109 0.0
C283 C 0.43735 0.27927 0.09779 0.0
C284 C 0.44314 0.28317 0.04523 0.0
C285 C 0.42713 0.29375 0.1299 0.0
C286 C 0.41483 0.28885 0.17162 0.0
C287 C 0.43078 0.31284 0.12151 0.0
C288 C 0.42284 0.32648 0.15434 0.0
C289 C 0.41141 0.32149 0.19745 0.0
C290 C 0.46062 0.23205 0.11988 0.0
C291 C 0.46059 0.21506 0.09129 0.0
C292 C 0.46499 0.23177 0.17497 0.0
C293 C 0.46848 0.21493 0.20125 0.0
C294 C 0.46783 0.19783 0.17323 0.0
C295 C 0.4641 0.19815 0.11766 0.0
C296 C 0.40728 0.30258 0.20557 0.0
H297 H 0.44991 0.29796 0.85034 0.0
H298 H 0.43881 0.27725 0.92148 0.0
H299 H 0.49107 0.28371 1.00504 0.0
H300 H 0.50204 0.30477 0.93468 0.0
H301 H 0.47147 0.24586 0.0216 0.0
H302 H 0.43869 0.29593 0.02592 0.0
H303 H 0.43858 0.25902 0.16138 0.0
H304 H 0.41134 0.2744 0.17896 0.0
H305 H 0.44056 0.31738 0.0913 0.0
H306 H 0.42662 0.34095 0.14804 0.0
H307 H 0.45724 0.21476 0.04888 0.0
H308 H 0.46546 0.2446 0.19816 0.0
H309 H 0.39856 0.29842 0.23887 0.0
H310 H 0.46376 0.18531 0.09451 0.0
H311 H 0.47111 0.21534 0.24405 0.0
Eu312 Eu 0.02688 0.00728 0.63075 0.0
C313 C 0.95212 0.98635 0.5105 0.0
C314 C 0.96028 0.9677 0.43271 0.0
C315 C 0.93034 0.96318 0.47605 0.0
C316 C 0.96481 0.98149 0.47133 0.0
C317 C 0.93458 0.97753 0.51274 0.0
C318 C 0.94317 0.95829 0.43603 0.0
C319 C 0.92609 0.99884 0.58415 0.0
N320 N 0.95658 1.00038 0.54485 0.0
C321 C 0.94362 0.00719 0.58015 0.0
C322 C 0.92162 0.98375 0.55081 0.0
Eu323 Eu 0.98695 0.01323 0.53853 0.0
N324 N 0.98126 0.99079 0.46956 0.0
C325 C 0.99322 0.98784 0.42776 0.0
C326 C 0.97287 0.96415 0.39109 0.0
C327 C 0.98924 0.97454 0.38811 0.0
H328 H 0.94705 0.01874 0.60644 0.0
H329 H 0.99884 0.97238 0.35522 0.0
H330 H 0.93956 0.94752 0.4071 0.0
H331 H 0.91604 1.00403 0.61294 0.0
H332 H 0.00599 0.9955 0.42458 0.0
H333 H 0.01316 0.04951 0.8108 0.0
H334 H 0.96989 0.95376 0.36048 0.0
H335 H 0.06754 1.00178 0.56676 0.0
H336 H 0.00762 0.02447 0.74521 0.0
H337 H 0.09821 0.01732 0.56043 0.0
H338 H 0.91701 0.95611 0.47742 0.0
H339 H 0.04105 0.06952 0.80299 0.0
H340 H 0.0711 0.07652 0.75599 0.0
H341 H 0.90801 0.97733 0.55387 0.0
H342 H 0.09433 0.06776 0.68774 0.0
N343 N 0.03156 0.03052 0.69816 0.0
C344 C 0.01972 0.03308 0.74047 0.0
C345 C 0.03861 0.05856 0.77365 0.0
C346 C 0.05135 0.05511 0.73236 0.0
C347 C 0.02288 0.04727 0.77823 0.0
C348 C 0.0475 0.04066 0.69514 0.0
H349 H 0.10475 0.04542 0.61557 0.0
N350 N 0.05682 0.02108 0.6242 0.0
C351 C 0.08771 0.02273 0.58756 0.0
C352 C 0.06053 0.0358 0.65686 0.0
C353 C 0.07038 0.01393 0.59137 0.0
C354 C 0.09132 0.03863 0.61855 0.0
C355 C 0.07779 0.04515 0.6545 0.0
O356 O 0.04812 0.98699 0.65261 0.0
O357 O 0.00744 0.99329 0.57288 0.0
O358 O 0.97828 0.99448 0.60715 0.0
O359 O 0.99867 1.0045 0.67415 0.0
O360 O 0.03485 0.98505 0.56865 0.0
O361 O 0.02335 0.98975 0.70153 0.0
O362 O 0.96731 0.03548 0.51996 0.0
O363 O 0.00637 0.02718 0.59657 0.0
O364 O 0.03594 0.0252 0.56037 0.0
O365 O 0.01496 0.01551 0.4946 0.0
O366 O 0.97869 0.03463 0.60245 0.0
O367 O 0.99098 0.03071 0.4679 0.0
C368 C 0.01842 0.98213 0.54961 0.0
C369 C 0.03543 0.95939 0.68512 0.0
C370 C 0.01596 0.93253 0.66324 0.0
C371 C 0.01782 0.95172 0.67356 0.0
C372 C 0.0319 0.9211 0.66401 0.0
C373 C 0.05113 0.94773 0.68633 0.0
C374 C 0.04935 0.92869 0.67564 0.0
C375 C 0.98266 0.99686 0.65837 0.0
C376 C 0.03802 0.97966 0.69025 0.0
C377 C 0.08125 0.06024 0.68938 0.0
C378 C 0.06804 0.06522 0.72824 0.0
C379 C 0.99515 0.03787 0.6208 0.0
C380 C 0.98384 0.06204 0.49241 0.0
C381 C 1.00228 0.06781 0.48245 0.0
C382 C 0.00836 0.08558 0.49895 0.0
C383 C 0.99582 0.09765 0.52502 0.0
C384 C 0.97145 0.07452 0.51759 0.0
C385 C 0.97746 0.09217 0.53396 0.0
C386 C 0.03103 0.02319 0.50938 0.0
C387 C 0.97807 0.04247 0.48309 0.0
H388 H 0.00563 0.96063 0.67182 0.0
H389 H 0.0308 0.9062 0.65704 0.0
H390 H 0.06483 0.95344 0.69447 0.0
H391 H 0.06153 0.91977 0.67645 0.0
H392 H 0.01207 0.05843 0.4631 0.0
H393 H 1.00009 0.11154 0.53725 0.0
H394 H 0.95723 0.07043 0.52598 0.0
H395 H 0.96787 0.10161 0.55383 0.0
Eu396 Eu 0.51092 0.03132 0.62851 0.0
C397 C 0.52716 0.95759 0.49629 0.0
C398 C 0.54486 0.96737 0.41887 0.0
C399 C 0.54919 0.93618 0.45446 0.0
C400 C 0.53167 0.97116 0.45952 0.0
C401 C 0.53556 0.93979 0.49355 0.0
C402 C 0.55385 0.94995 0.41721 0.0
C403 C 0.5154 0.93001 0.56562 0.0
N404 N 0.51395 0.96151 0.53342 0.0
C405 C 0.50752 0.94787 0.56679 0.0
C406 C 0.52967 0.92602 0.52931 0.0
Eu407 Eu 0.50149 0.99215 0.53487 0.0
N408 N 0.52272 0.98786 0.46232 0.0
C409 C 0.52564 1.00095 0.42357 0.0
C410 C 0.54837 0.98104 0.38046 0.0
C411 C 0.53855 0.99783 0.38252 0.0
H412 H 0.49663 0.95096 0.59543 0.0
H413 H 0.54098 0.00844 0.35263 0.0
H414 H 0.56413 0.94687 0.38659 0.0
H415 H 0.51054 0.9194 0.59294 0.0
H416 H 0.51852 0.01412 0.42443 0.0
H417 H 0.47311 0.01179 0.81168 0.0
H418 H 0.55837 0.97866 0.34862 0.0
H419 H 0.51384 0.07338 0.57213 0.0
H420 H 0.49603 0.00802 0.74032 0.0
H421 H 0.49814 0.10409 0.57658 0.0
H422 H 0.55592 0.92266 0.45201 0.0
H423 H 0.4537 0.04023 0.81655 0.0
H424 H 0.44601 0.07185 0.78022 0.0
H425 H 0.53578 0.91219 0.52847 0.0
H426 H 0.45279 0.09699 0.71637 0.0
N427 N 0.49009 0.03411 0.70299 0.0
C428 C 0.48807 0.02068 0.74138 0.0
C429 C 0.46395 0.03875 0.7849 0.0
C430 C 0.46664 0.05286 0.74728 0.0
C431 C 0.4749 0.02271 0.78234 0.0
C432 C 0.48008 0.05017 0.70659 0.0
H433 H 0.47242 0.10927 0.64105 0.0
N434 N 0.49713 0.06137 0.63326 0.0
C435 C 0.4939 0.09299 0.60316 0.0
C436 C 0.48372 0.06423 0.67054 0.0
C437 C 0.5028 0.07564 0.60094 0.0
C438 C 0.47935 0.09583 0.63945 0.0
C439 C 0.47425 0.08146 0.67425 0.0
O440 O 0.5325 0.0521 0.64372 0.0
O441 O 0.52261 0.01198 0.56666 0.0
O442 O 0.52142 0.9818 0.59893 0.0
O443 O 0.51582 1.00298 0.66859 0.0
O444 O 0.52993 0.03965 0.55962 0.0
O445 O 0.53208 0.02684 0.69047 0.0
O446 O 0.47899 0.97242 0.51987 0.0
O447 O 0.48982 0.01167 0.59621 0.0
O448 O 0.49162 0.04168 0.56269 0.0
O449 O 0.49745 0.0204 0.49347 0.0
O450 O 0.48203 0.98418 0.60322 0.0
O451 O 0.48194 0.99649 0.46862 0.0
C452 C 0.53268 0.02311 0.54065 0.0
C453 C 0.56121 0.03671 0.65493 0.0
C454 C 0.58605 0.014 0.6377 0.0
C455 C 0.56913 0.01895 0.66264 0.0
C456 C 0.59499 0.02709 0.60478 0.0
C457 C 0.57073 0.04971 0.62302 0.0
C458 C 0.58743 0.04485 0.59793 0.0
C459 C 0.52223 0.98674 0.65021 0.0
C460 C 0.5421 0.04091 0.67406 0.0
C461 C 0.46037 0.08394 0.71329 0.0
C462 C 0.45653 0.06964 0.74967 0.0
C463 C 0.47962 1.00073 0.62236 0.0
C464 C 0.45144 0.9881 0.49731 0.0
C465 C 0.44518 0.00671 0.4951 0.0
C466 C 0.4271 0.01148 0.51214 0.0
C467 C 0.41542 0.99741 0.53224 0.0
C468 C 0.43939 0.97428 0.51677 0.0
C469 C 0.42155 0.97896 0.53444 0.0
C470 C 0.49129 0.0368 0.51131 0.0
C471 C 0.47095 0.98314 0.48478 0.0
H472 H 0.56213 0.00898 0.68811 0.0
H473 H 0.60784 0.02361 0.58428 0.0
H474 H 0.56497 0.06346 0.61604 0.0
H475 H 0.59443 0.05483 0.57253 0.0
H476 H 0.45439 0.01756 0.48081 0.0
H477 H 0.40132 1.00054 0.54486 0.0
H478 H 0.44392 0.95988 0.51933 0.0
H479 H 0.41241 0.96823 0.54973 0.0
Eu480 Eu 0.52932 0.50466 0.53525 0.0
C481 C 0.44682 0.5047 0.62714 0.0
C482 C 0.42778 0.52114 0.5624 0.0
C483 C 0.41339 0.49906 0.62305 0.0
C484 C 0.44544 0.51719 0.5849 0.0
C485 C 0.43075 0.49573 0.64707 0.0
C486 C 0.41189 0.51183 0.58108 0.0
C487 C 0.44971 0.48237 0.71719 0.0
N488 N 0.46363 0.5021 0.65085 0.0
C489 C 0.46516 0.49175 0.69662 0.0
C490 C 0.43247 0.48418 0.6919 0.0
Eu491 Eu 0.489 0.51907 0.61583 0.0
N492 N 0.46109 0.52598 0.56718 0.0
C493 C 0.45974 0.53885 0.52688 0.0
C494 C 0.42647 0.53467 0.52255 0.0
C495 C 0.44253 0.54335 0.50419 0.0
H496 H 0.47843 0.49049 0.71681 0.0
H497 H 0.44168 0.55358 0.47249 0.0
H498 H 0.39831 0.51461 0.56378 0.0
H499 H 0.45111 0.47385 0.75269 0.0
H500 H 0.47171 0.54563 0.51042 0.0
H501 H 0.58396 0.48368 0.67553 0.0
H502 H 0.41311 0.53852 0.50562 0.0
H503 H 0.53327 0.53052 0.42308 0.0
H504 H 0.55292 0.48261 0.63266 0.0
H505 H 0.55608 0.55149 0.38084 0.0
H506 H 0.40094 0.49223 0.63764 0.0
H507 H 0.60756 0.5062 0.64395 0.0
H508 H 0.61662 0.53112 0.5787 0.0
H509 H 0.42046 0.47704 0.70823 0.0
H510 H 0.60907 0.54949 0.49842 0.0
N511 N 0.55861 0.50489 0.57912 0.0
C512 C 0.56307 0.49262 0.61892 0.0
C513 C 0.59391 0.50591 0.62537 0.0
C514 C 0.58961 0.5177 0.5825 0.0
C515 C 0.58066 0.49313 0.64314 0.0
C516 C 0.57169 0.51664 0.5593 0.0
H517 H 0.58667 0.55695 0.42397 0.0
N518 N 0.55053 0.52454 0.49045 0.0
C519 C 0.55946 0.54466 0.41824 0.0
C520 C 0.56753 0.52677 0.51364 0.0
C521 C 0.54657 0.53273 0.44231 0.0
C522 C 0.5767 0.54775 0.4428 0.0
C523 C 0.58104 0.53854 0.49062 0.0
O524 O 0.52911 0.48909 0.45938 0.0
O525 O 0.49817 0.50541 0.54023 0.0
O526 O 0.48939 0.48722 0.61268 0.0
O527 O 0.52026 0.48088 0.58993 0.0
O528 O 0.50957 0.51132 0.46635 0.0
O529 O 0.54517 0.47891 0.52673 0.0
O530 O 0.47415 0.53127 0.68407 0.0
O531 O 0.51981 0.51616 0.61413 0.0
O532 O 0.52959 0.5362 0.54141 0.0
O533 O 0.4982 0.54221 0.55862 0.0
O534 O 0.50689 0.50765 0.68374 0.0
O535 O 0.49732 0.54604 0.65001 0.0
C536 C 0.49416 0.5094 0.49229 0.0
C537 C 0.53063 0.45642 0.47343 0.0
C538 C 0.50394 0.4353 0.47137 0.0
C539 C 0.51124 0.45351 0.47407 0.0
C540 C 0.51642 0.4201 0.46927 0.0
C541 C 0.54273 0.44109 0.47142 0.0
C542 C 0.53563 0.42302 0.46958 0.0
C543 C 0.50365 0.47555 0.60722 0.0
C544 C 0.53857 0.47518 0.47928 0.0
C545 C 0.59857 0.5404 0.51526 0.0
C546 C 0.60286 0.52996 0.56102 0.0
C547 C 0.52281 0.51033 0.66115 0.0
C548 C 0.49547 0.5453 0.74468 0.0
C549 C 0.5109 0.55705 0.75286 0.0
C550 C 0.52136 0.55626 0.80074 0.0
C551 C 0.51573 0.54378 0.84105 0.0
C552 C 0.49001 0.53321 0.78601 0.0
C553 C 0.50009 0.53251 0.8338 0.0
C554 C 0.51501 0.54753 0.54237 0.0
C555 C 0.48638 0.54442 0.69134 0.0
H556 H 0.50192 0.46538 0.47701 0.0
H557 H 0.5114 0.4059 0.46577 0.0
H558 H 0.55769 0.44312 0.47185 0.0
H559 H 0.54504 0.41122 0.46784 0.0
H560 H 0.51478 0.56667 0.72146 0.0
H561 H 0.52349 0.54245 0.8781 0.0
H562 H 0.47822 0.52393 0.78108 0.0
H563 H 0.49595 0.52296 0.86506 0.0
Eu564 Eu 0.01438 0.53394 0.54292 0.0
C565 C 0.02579 0.45111 0.61732 0.0
C566 C 0.01139 0.4309 0.55096 0.0
C567 C 0.038 0.41984 0.60211 0.0
C568 C 0.01247 0.44827 0.57791 0.0
C569 C 0.03846 0.43679 0.63066 0.0
C570 C 0.02448 0.41689 0.56238 0.0
C571 C 0.04994 0.45634 0.70288 0.0
N572 N 0.02578 0.46756 0.64452 0.0
C573 C 0.03705 0.47006 0.68838 0.0
C574 C 0.05084 0.43973 0.67338 0.0
Eu575 Eu 1.00398 0.49043 0.61684 0.0
N576 N 1.00006 0.46215 0.56754 0.0
C577 C 0.98544 0.45897 0.53341 0.0
C578 C 0.99693 0.42795 0.51421 0.0
C579 C 0.98378 0.44197 0.50592 0.0
H580 H 0.03648 0.48296 0.71103 0.0
H581 H 0.97237 0.43973 0.47815 0.0
H582 H 0.02399 0.40357 0.54156 0.0
H583 H 0.05919 0.4586 0.73665 0.0
H584 H 0.97504 0.4695 0.52622 0.0
H585 H 0.04468 0.58022 0.69624 0.0
H586 H 0.99562 0.41481 0.49279 0.0
H587 H 0.98667 0.54711 0.44198 0.0
H588 H 0.04252 0.55235 0.63947 0.0
H589 H 0.96396 0.57201 0.42071 0.0
H590 H 0.04773 0.40874 0.61141 0.0
H591 H 0.02129 0.60534 0.68802 0.0
H592 H 0.99331 0.61824 0.64024 0.0
H593 H 0.0608 0.42909 0.68477 0.0
H594 H 0.97075 0.61568 0.56615 0.0
N595 N 0.01761 0.56076 0.59973 0.0
C596 C 0.03207 0.56293 0.63506 0.0
C597 C 0.02017 0.59299 0.6629 0.0
C598 C 0.00602 0.59128 0.62458 0.0
C599 C 0.03342 0.57887 0.66753 0.0
C600 C 0.00527 0.57491 0.59273 0.0
H601 H 0.9598 0.59859 0.48355 0.0
N602 N 0.99379 0.55849 0.51821 0.0
C603 C 0.97178 0.57255 0.45788 0.0
C604 C 0.99274 0.57358 0.551 0.0
C605 C 0.98448 0.5584 0.47023 0.0
C606 C 0.96945 0.58748 0.49348 0.0
C607 C 0.98044 0.58846 0.53986 0.0
O608 O 0.02268 0.54439 0.46454 0.0
O609 O 0.01435 0.50287 0.54131 0.0
O610 O 0.03501 0.4917 0.60018 0.0
O611 O 0.03892 0.52378 0.59498 0.0
O612 O 0.00795 0.51554 0.46968 0.0
O613 O 0.04346 0.54081 0.52653 0.0
O614 O 0.99768 0.48234 0.69885 0.0
O615 O 1.00255 0.5218 0.61792 0.0
O616 O 0.983 0.52973 0.53894 0.0
O617 O 0.97858 0.49884 0.5667 0.0
O618 O 0.01226 0.50925 0.68687 0.0
O619 O 0.97577 0.48203 0.63865 0.0
C620 C 0.01025 0.49969 0.49288 0.0
C621 C 0.05261 0.5361 0.43624 0.0
C622 C 0.07058 0.50973 0.40188 0.0
C623 C 0.05925 0.51774 0.44192 0.0
C624 C 0.07502 0.52033 0.3562 0.0
C625 C 0.05715 0.54635 0.39042 0.0
C626 C 0.06829 0.53847 0.35056 0.0
C627 C 0.04554 0.50677 0.60414 0.0
C628 C 0.04031 0.54467 0.47627 0.0
C629 C 0.98023 0.60421 0.57367 0.0
C630 C 0.99308 0.60566 0.61584 0.0
C631 C 0.00776 0.52494 0.66555 0.0
C632 C 0.96803 0.49113 0.7274 0.0
C633 C 0.96107 0.50893 0.71479 0.0
C634 C 0.9509 0.5192 0.7531 0.0
C635 C 0.94791 0.5114 0.80416 0.0
C636 C 0.9649 0.48365 0.77838 0.0
C637 C 0.95488 0.49377 0.81658 0.0
C638 C 0.9726 0.51459 0.54475 0.0
C639 C 0.97989 0.48082 0.68965 0.0
H640 H 0.05551 0.50971 0.47704 0.0
H641 H 0.08405 0.51476 0.32519 0.0
H642 H 0.05199 0.56046 0.38541 0.0
H643 H 0.07183 0.54648 0.31533 0.0
H644 H 0.96375 0.51483 0.6756 0.0
H645 H 0.93977 0.51873 0.83421 0.0
H646 H 0.9704 0.47005 0.78882 0.0
H647 H 0.95245 0.48792 0.85591 0.0
H648 H 0.18007 0.01344 0.23756 0.0
H649 H 0.15148 0.01253 0.28965 0.0
H650 H 0.12896 0.05767 0.19603 0.0
H651 H 0.15819 0.05964 0.14612 0.0
H652 H 0.12169 0.06399 0.2965 0.0
H653 H 0.10227 0.99077 0.25648 0.0
H654 H 0.12515 0.99193 0.28509 0.0
H655 H 0.12073 1.00215 0.22029 0.0
C656 C 0.16913 0.02328 0.22792 0.0
C657 C 0.17168 0.0367 0.18745 0.0
C658 C 0.15255 0.02251 0.25738 0.0
C659 C 0.13776 0.03479 0.24644 0.0
C660 C 0.14005 0.04794 0.20528 0.0
H661 H 0.03038 0.01422 0.40179 0.0
H662 H 0.05479 0.01902 0.33553 0.0
C663 C 0.15677 0.0489 0.17619 0.0
C664 C 0.12038 0.03448 0.27975 0.0
H665 H 0.08777 0.00523 0.33312 0.0
C666 C 0.11416 0.05115 0.30393 0.0
C667 C 0.11017 0.01787 0.28897 0.0
C668 C 0.11481 0.99974 0.2608 0.0
C669 C 0.09853 0.05156 0.33815 0.0
C670 C 0.08915 0.03471 0.35033 0.0
C671 C 0.09502 0.01816 0.32476 0.0
C672 C 0.07339 0.03373 0.38965 0.0
C673 C 0.09213 0.07015 0.36005 0.0
C674 C 0.07527 0.0408 0.44222 0.0
C675 C 0.06105 0.03835 0.48012 0.0
C676 C 0.04487 0.02818 0.46711 0.0
C677 C 0.0427 0.0218 0.4139 0.0
C678 C 0.05676 0.02451 0.37578 0.0
H679 H 0.09613 0.08172 0.33291 0.0
H680 H 0.07679 0.07053 0.36573 0.0
H681 H 0.09895 0.07274 0.3994 0.0
H682 H 0.08797 0.04772 0.45468 0.0
H683 H 0.06297 0.04406 0.52005 0.0
H684 H 0.4494 0.16455 0.15738 0.0
H685 H 0.45242 0.13576 0.20887 0.0
H686 H 0.49431 0.16164 0.30869 0.0
H687 H 0.49206 0.19014 0.25587 0.0
H688 H 0.5039 0.12651 0.28379 0.0
H689 H 0.43096 0.12749 0.3563 0.0
H690 H 0.43271 0.12697 0.28448 0.0
H691 H 0.44119 0.1469 0.32145 0.0
C692 C 0.45947 0.16407 0.18974 0.0
C693 C 0.47037 0.17983 0.20257 0.0
C694 C 0.46098 0.14764 0.21972 0.0
C695 C 0.47328 0.14662 0.26359 0.0
C696 C 0.48458 0.1621 0.27544 0.0
H697 H 0.47212 0.06934 0.52998 0.0
H698 H 0.46755 0.09527 0.4681 0.0
C699 C 0.48316 0.17848 0.24536 0.0
C700 C 0.47444 0.1295 0.29731 0.0
H701 H 0.44886 0.10054 0.377 0.0
C702 C 0.49184 0.12082 0.3041 0.0
C703 C 0.45877 0.12221 0.3246 0.0
C704 C 0.43989 0.13146 0.32187 0.0
C705 C 0.494 0.10511 0.33714 0.0
C706 C 0.47823 0.09749 0.3632 0.0
C707 C 0.46086 0.10621 0.35654 0.0
C708 C 0.47965 0.08106 0.39953 0.0
C709 C 0.51332 0.09725 0.34521 0.0
C710 C 0.48715 0.06404 0.38132 0.0
C711 C 0.49009 0.04928 0.417 0.0
C712 C 0.48551 0.05118 0.47168 0.0
C713 C 0.47658 0.06767 0.48875 0.0
C714 C 0.47378 0.08247 0.45319 0.0
H715 H 0.52428 0.10756 0.33481 0.0
H716 H 0.51548 0.09283 0.38741 0.0
H717 H 0.51519 0.08488 0.31873 0.0
H718 H 0.49112 0.06229 0.33967 0.0
H719 H 0.4965 0.03665 0.40187 0.0
H720 H 0.35762 0.50068 0.16151 0.0
H721 H 0.38458 0.50556 0.22017 0.0
H722 H 0.3772 0.45077 0.28681 0.0
H723 H 0.34981 0.44595 0.23012 0.0
H724 H 0.38329 0.50244 0.3398 0.0
H725 H 0.43429 0.45415 0.24366 0.0
H726 H 0.41436 0.46323 0.20778 0.0
H727 H 0.4113 0.44532 0.25697 0.0
C728 C 0.36159 0.48964 0.18871 0.0
C729 C 0.35135 0.47288 0.19062 0.0
C730 C 0.37715 0.49243 0.22199 0.0
C731 C 0.38304 0.47846 0.25751 0.0
C732 C 0.37311 0.46163 0.2591 0.0
H733 H 0.46528 0.48605 0.52168 0.0
H734 H 0.43752 0.47796 0.46787 0.0
C735 C 0.35745 0.45888 0.22625 0.0
C736 C 0.39888 0.48198 0.29505 0.0
H737 H 0.44425 0.47039 0.32129 0.0
C738 C 0.39656 0.49531 0.33601 0.0
C739 C 0.41617 0.47259 0.29031 0.0
C740 C 0.41936 0.45807 0.24721 0.0
C741 C 0.41107 0.49956 0.37209 0.0
C742 C 0.42847 0.49049 0.36689 0.0
C743 C 0.43082 0.47713 0.3259 0.0
C744 C 0.44472 0.49575 0.40118 0.0
C745 C 0.40788 0.51393 0.41526 0.0
C746 C 0.4578 0.50858 0.38198 0.0
C747 C 0.47342 0.51339 0.41283 0.0
C748 C 0.47635 0.50552 0.46373 0.0
C749 C 0.46318 0.4927 0.48323 0.0
C750 C 0.44742 0.48795 0.45232 0.0
H751 H 0.39371 0.52016 0.4134 0.0
H752 H 0.40975 0.50728 0.45501 0.0
H753 H 0.41835 0.52524 0.41149 0.0
H754 H 0.456 0.51478 0.34276 0.0
H755 H 0.48341 0.52314 0.39647 0.0
H756 H 0.05296 0.34434 0.25312 0.0
H757 H 0.04882 0.37237 0.30801 0.0
H758 H 0.99788 0.38481 0.22349 0.0
H759 H 1.00188 0.35658 0.16844 0.0
H760 H 0.0479 0.40831 0.28111 0.0
H761 H 0.98058 0.39048 0.3762 0.0
H762 H 0.99409 0.37361 0.33884 0.0
H763 H 0.97955 0.39012 0.30423 0.0
C764 C 0.04088 0.35304 0.24587 0.0
C765 C 0.0278 0.34813 0.2059 0.0
C766 C 0.03848 0.36909 0.27764 0.0
C767 C 0.02291 0.38072 0.27073 0.0
C768 C 0.0098 0.37591 0.23081 0.0
H769 H 0.98856 0.48738 0.41089 0.0
H770 H 0.99211 0.45876 0.35714 0.0
C771 C 0.01214 0.35975 0.19909 0.0
C772 C 0.02087 0.39812 0.30411 0.0
H773 H 0.99143 0.42153 0.38929 0.0
C774 C 0.03558 0.4111 0.30499 0.0
C775 C 0.00483 0.40191 0.33559 0.0
C776 C 0.98894 0.38822 0.33921 0.0
C777 C 0.03457 0.42774 0.33534 0.0
C778 C 0.01851 0.43158 0.3665 0.0
C779 C 1.00378 0.41865 0.36562 0.0
C780 C 0.01659 0.44905 0.39943 0.0
C781 C 0.05054 0.44134 0.33276 0.0
C782 C 0.02912 0.45323 0.44138 0.0
C783 C 0.027 0.46955 0.47242 0.0
C784 C 0.01216 0.48189 0.4626 0.0
C785 C 0.9999 0.47791 0.42 0.0
C786 C 1.00193 0.46157 0.38926 0.0
H787 H 0.05991 0.43841 0.29826 0.0
H788 H 0.04533 0.45589 0.32964 0.0
H789 H 0.05886 0.44026 0.37014 0.0
H790 H 0.04042 0.44376 0.45069 0.0
H791 H 0.03698 0.47253 0.50397 0.0
H792 H 0.84813 0.95648 0.99151 0.0
H793 H 0.87667 0.95767 0.93802 0.0
H794 H 0.86283 0.01351 0.88807 0.0
H795 H 0.83411 0.01225 0.94075 0.0
H796 H 0.87312 0.99319 0.80424 0.0
H797 H 0.92552 0.98309 0.96481 0.0
H798 H 0.90865 0.96466 0.96216 0.0
H799 H 0.90138 0.98801 0.97913 0.0
C800 C 0.85133 0.96915 0.96994 0.0
C801 C 0.83881 0.9843 0.97068 0.0
C802 C 0.86772 0.96983 0.93934 0.0
C803 C 0.87217 0.98579 0.90939 0.0
C804 C 0.8598 1.00102 0.91073 0.0
H805 H 0.97759 0.01324 0.75705 0.0
H806 H 0.95123 0.00948 0.81795 0.0
C807 C 0.84334 1.00029 0.9409 0.0
C808 C 0.88915 0.98633 0.87455 0.0
H809 H 0.93656 0.98088 0.87484 0.0
C810 C 0.88698 0.99053 0.81983 0.0
C811 C 0.90736 0.98309 0.89469 0.0
C812 C 0.91094 0.97965 0.9535 0.0
C813 C 0.90234 0.99146 0.78486 0.0
C814 C 0.92047 0.9876 0.80458 0.0
C815 C 0.92269 0.98356 0.85939 0.0
C816 C 0.93732 0.98854 0.76944 0.0
C817 C 0.89904 0.99722 0.72744 0.0
C818 C 0.93875 0.97757 0.72259 0.0
C819 C 0.95387 0.97973 0.68756 0.0
C820 C 0.96804 0.99274 0.69891 0.0
C821 C 0.96708 1.00298 0.7472 0.0
C822 C 0.95191 1.00091 0.78202 0.0
H823 H 0.88536 1.00426 0.72236 0.0
H824 H 0.91016 0.00681 0.71361 0.0
H825 H 0.89915 0.98465 0.70119 0.0
H826 H 0.928 0.96754 0.71256 0.0
H827 H 0.95426 0.97146 0.65099 0.0
H828 H 0.5362 0.83852 0.92841 0.0
H829 H 0.53142 0.86547 0.87026 0.0
H830 H 0.57477 0.8953 0.95458 0.0
H831 H 0.57972 0.86833 0.01275 0.0
H832 H 0.52111 0.90081 0.89225 0.0
H833 H 0.59157 0.90131 0.80079 0.0
H834 H 0.58326 0.88208 0.84064 0.0
H835 H 0.59172 0.90301 0.87266 0.0
C836 C 0.54461 0.85087 0.93501 0.0
C837 C 0.5584 0.85119 0.97525 0.0
C838 C 0.54194 0.86625 0.90144 0.0
C839 C 0.55299 0.88233 0.90717 0.0
C840 C 0.56643 0.8829 0.94823 0.0
H841 H 0.52177 0.98865 0.7606 0.0
H842 H 0.53043 0.96425 0.82395 0.0
C843 C 0.56918 0.86747 0.98168 0.0
C844 C 0.55006 0.89855 0.87083 0.0
H845 H 0.57157 0.92641 0.77871 0.0
C846 C 0.53218 0.90644 0.8676 0.0
C847 C 0.56445 0.90582 0.83808 0.0
C848 C 0.58379 0.89753 0.83769 0.0
C849 C 0.52826 0.92133 0.83287 0.0
C850 C 0.54272 0.92887 0.80104 0.0
C851 C 0.56058 0.9209 0.80384 0.0
C852 C 0.53929 0.9445 0.76305 0.0
C853 C 0.50849 0.92845 0.82942 0.0
C854 C 0.5424 0.942 0.70784 0.0
C855 C 0.53761 0.95604 0.67146 0.0
C856 C 0.52945 0.97284 0.68935 0.0
C857 C 0.52749 0.97574 0.745 0.0
C858 C 0.53238 0.96174 0.78141 0.0
H859 H 0.49835 0.91819 0.84539 0.0
H860 H 0.50722 0.94145 0.85359 0.0
H861 H 0.50463 0.93168 0.7873 0.0
H862 H 0.54806 0.92898 0.69267 0.0
H863 H 0.54014 0.95359 0.6292 0.0
H864 H 0.65844 0.51809 1.00184 0.0
H865 H 0.63091 0.51325 0.94526 0.0
H866 H 0.64617 0.56074 0.84968 0.0
H867 H 0.67411 0.56514 0.90399 0.0
H868 H 0.60097 0.53591 0.92451 0.0
H869 H 0.63875 0.52148 0.73473 0.0
H870 H 0.65035 0.52205 0.79905 0.0
H871 H 0.64475 0.54344 0.76514 0.0
C872 C 0.65612 0.52738 0.96838 0.0
C873 C 0.6687 0.54198 0.9577 0.0
C874 C 0.64025 0.52467 0.93624 0.0
C875 C 0.63657 0.53641 0.89245 0.0
C876 C 0.64885 0.55121 0.88236 0.0
H877 H 0.54879 0.53799 0.64661 0.0
H878 H 0.57595 0.54501 0.70333 0.0
C879 C 0.66475 0.55387 0.91421 0.0
C880 C 0.61982 0.5333 0.85779 0.0
H881 H 0.60603 0.525 0.72831 0.0
C882 C 0.60211 0.53341 0.88164 0.0
C883 C 0.62119 0.5302 0.80167 0.0
C884 C 0.63978 0.5291 0.77362 0.0
C885 C 0.5858 0.53061 0.85113 0.0
C886 C 0.58716 0.5273 0.79505 0.0
C887 C 0.60488 0.52748 0.77113 0.0
C888 C 0.57054 0.5231 0.76068 0.0
C889 C 0.56731 0.53155 0.87957 0.0
C890 C 0.55853 0.50826 0.77324 0.0
C891 C 0.54311 0.50418 0.74068 0.0
C892 C 0.53954 0.51455 0.69412 0.0
C893 C 0.55144 0.52948 0.68159 0.0
C894 C 0.56691 0.53354 0.71416 0.0
H895 H 0.56788 0.54129 0.91443 0.0
H896 H 0.55602 0.53611 0.85233 0.0
H897 H 0.56379 0.51749 0.89496 0.0
H898 H 0.56117 0.4997 0.80809 0.0
H899 H 0.53405 0.49272 0.75155 0.0
H900 H 0.00628 0.67963 0.92806 0.0
H901 H 0.00929 0.65142 0.87297 0.0
H902 H 0.95879 0.62964 0.94165 0.0
H903 H 0.95605 0.65746 0.99849 0.0
H904 H 0.98468 0.60266 0.93331 0.0
H905 H 0.9798 0.63925 0.73888 0.0
H906 H 0.99837 0.64802 0.78022 0.0
H907 H 0.97459 0.65062 0.80197 0.0
C908 C 0.99592 0.66877 0.93217 0.0
C909 C 0.98084 0.67104 0.96782 0.0
C910 C 0.99751 0.6527 0.89985 0.0
C911 C 0.98402 0.63849 0.90191 0.0
C912 C 0.96929 0.64043 0.93863 0.0
H913 H 0.97845 0.54953 0.65414 0.0
H914 H 0.97068 0.57625 0.71257 0.0
C915 C 0.96769 0.65647 0.971 0.0
C916 C 0.98538 0.62153 0.86643 0.0
H917 H 0.98951 0.60747 0.73542 0.0
C918 C 0.98569 0.60376 0.89 0.0
C919 C 0.98618 0.62274 0.80966 0.0
C920 C 0.98451 0.64116 0.78108 0.0
C921 C 0.98753 0.58735 0.85882 0.0
C922 C 0.98957 0.58866 0.80234 0.0
C923 C 0.9884 0.60636 0.77861 0.0
C924 C 0.99371 0.572 0.76755 0.0
C925 C 0.98704 0.56877 0.88689 0.0
C926 C 0.00925 0.56067 0.77844 0.0
C927 C 0.01363 0.54544 0.74522 0.0
C928 C 1.00294 0.54145 0.69928 0.0
C929 C 0.98723 0.55257 0.68852 0.0
C930 C 0.98274 0.56778 0.7221 0.0
H931 H 0.97893 0.56964 0.92478 0.0
H932 H 0.98084 0.55774 0.86097 0.0
H933 H 1.00146 0.56456 0.89744 0.0
H934 H 0.01824 0.56377 0.81226 0.0
H935 H 0.0257 0.53699 0.7548 0.0
H936 H 0.10424 0.21525 0.33324 0.0
H937 H 0.10495 0.18967 0.39786 0.0
H938 H 0.09049 0.15081 0.27152 0.0
H939 H 0.08997 0.17608 0.20721 0.0
H940 H 0.07268 0.17398 0.41549 0.0
H941 H 0.12134 0.11733 0.36394 0.0
H942 H 0.12408 0.14069 0.33809 0.0
H943 H 0.10884 0.12421 0.30504 0.0
C944 C 0.10191 0.20113 0.31901 0.0
C945 C 0.09679 0.19772 0.26532 0.0
C946 C 0.10243 0.18651 0.35588 0.0
C947 C 0.09783 0.16827 0.33965 0.0
C948 C 0.09455 0.16462 0.285 0.0
H949 H 0.02608 0.08402 0.4025 0.0
H950 H 0.05365 0.1018 0.37663 0.0
C951 C 0.09415 0.17918 0.24812 0.0
C952 C 0.09182 0.15433 0.37986 0.0
H953 H 0.09148 0.10752 0.40392 0.0
C954 C 0.07723 0.15953 0.4143 0.0
C955 C 0.09768 0.13549 0.37822 0.0
C956 C 0.114 0.12919 0.34464 0.0
C957 C 0.06706 0.1462 0.44275 0.0
C958 C 0.07199 0.12712 0.4378 0.0
C959 C 0.08762 0.12209 0.40715 0.0
C960 C 0.05922 0.11234 0.45673 0.0
C961 C 0.0501 0.15255 0.47384 0.0
C962 C 0.05399 0.11138 0.51089 0.0
C963 C 0.03803 0.10151 0.5255 0.0
C964 C 0.02738 0.09215 0.48636 0.0
C965 C 0.03397 0.09124 0.43338 0.0
C966 C 0.04976 0.10135 0.41862 0.0
H967 H 0.04662 0.16743 0.46637 0.0
H968 H 0.03778 0.14394 0.46305 0.0
H969 H 0.05275 0.15097 0.51746 0.0
H970 H 0.0614 0.11939 0.54113 0.0
H971 H 0.03344 0.10204 0.5668 0.0
H972 H 0.34178 0.09858 0.22574 0.0
H973 H 0.36512 0.09632 0.29648 0.0
H974 H 0.32417 0.11292 0.41406 0.0
H975 H 0.30049 0.1147 0.34316 0.0
H976 H 0.38092 0.11562 0.3837 0.0
H977 H 0.33353 0.05846 0.4496 0.0
H978 H 0.32987 0.07066 0.38751 0.0
H979 H 0.32423 0.08172 0.45043 0.0
C980 C 0.33789 0.10248 0.26629 0.0
C981 C 0.31925 0.10646 0.27917 0.0
C982 C 0.35126 0.10117 0.3068 0.0
C983 C 0.34623 0.10393 0.36069 0.0
C984 C 0.32821 0.11029 0.37282 0.0
H985 H 0.4052 0.03177 0.58139 0.0
H986 H 0.38791 0.06026 0.56082 0.0
C987 C 0.31472 0.11135 0.33235 0.0
C988 C 0.35871 0.09663 0.40311 0.0
H989 H 0.36353 0.05858 0.48337 0.0
C990 C 0.37701 0.10343 0.40669 0.0
C991 C 0.3536 0.08073 0.4332 0.0
C992 C 0.33431 0.07233 0.43 0.0
C993 C 0.39065 0.094 0.43669 0.0
C994 C 0.38587 0.07724 0.46296 0.0
C995 C 0.36721 0.07143 0.46322 0.0
C996 C 0.40005 0.06371 0.48202 0.0
C997 C 0.41019 0.10161 0.43764 0.0
C998 C 0.41321 0.0566 0.44555 0.0
C999 C 0.42309 0.04033 0.4572 0.0
C1000 C 0.41982 0.03072 0.50528 0.0
C1001 C 0.40779 0.0387 0.54362 0.0
C1002 C 0.39801 0.05506 0.5321 0.0
H1003 H 0.41004 0.11712 0.4375 0.0
H1004 H 0.41815 0.09677 0.47319 0.0
H1005 H 0.41746 0.09689 0.40075 0.0
H1006 H 0.41474 0.06267 0.40611 0.0
H1007 H 0.43215 0.03452 0.42662 0.0
H1008 H 0.39314 0.35445 0.18056 0.0
H1009 H 0.39364 0.38176 0.24049 0.0
H1010 H 0.42065 0.34884 0.36245 0.0
H1011 H 0.41932 0.32144 0.3038 0.0
H1012 H 0.3995 0.37757 0.40673 0.0
H1013 H 0.44509 0.40387 0.24235 0.0
H1014 H 0.4211 0.39978 0.22599 0.0
H1015 H 0.43612 0.38043 0.24156 0.0
C1016 C 0.39846 0.35294 0.22102 0.0
C1017 C 0.4064 0.33597 0.2375 0.0
C1018 C 0.39886 0.36854 0.25506 0.0
C1019 C 0.40776 0.36749 0.30522 0.0
C1020 C 0.41381 0.35003 0.32381 0.0
H1021 H 0.48327 0.40681 0.51384 0.0
H1022 H 0.45326 0.39604 0.48113 0.0
C1023 C 0.41305 0.33435 0.29027 0.0
C1024 C 0.41405 0.38457 0.334 0.0
H1025 H 0.44728 0.41831 0.32489 0.0
C1026 C 0.40964 0.38679 0.38862 0.0
C1027 C 0.42708 0.39685 0.31022 0.0
C1028 C 0.43276 0.39515 0.25196 0.0
C1029 C 0.41901 0.39994 0.42097 0.0
C1030 C 0.4334 0.4108 0.39828 0.0
C1031 C 0.43636 0.40992 0.3426 0.0
C1032 C 0.44799 0.42018 0.43128 0.0
C1033 C 0.41384 0.40152 0.47944 0.0
C1034 C 0.45491 0.4377 0.41613 0.0
C1035 C 0.47259 0.44351 0.4329 0.0
C1036 C 0.48355 0.43197 0.46585 0.0
C1037 C 0.47549 0.4157 0.48685 0.0
C1038 C 0.45802 0.40971 0.46909 0.0
H1039 H 0.39857 0.39983 0.48462 0.0
H1040 H 0.42072 0.39012 0.50206 0.0
H1041 H 0.41812 0.41514 0.49703 0.0
H1042 H 0.44738 0.44608 0.38737 0.0
H1043 H 0.47821 0.45622 0.41615 0.0
H1044 H 0.17512 0.4242 0.20078 0.0
H1045 H 0.14877 0.42647 0.26144 0.0
H1046 H 0.18479 0.41509 0.3961 0.0
H1047 H 0.21154 0.41291 0.33513 0.0
H1048 H 0.13085 0.40617 0.34296 0.0
H1049 H 0.1683 0.4687 0.42347 0.0
H1050 H 0.17641 0.45653 0.36446 0.0
H1051 H 0.1794 0.44634 0.42962 0.0
C1052 C 0.17744 0.42149 0.243 0.0
C1053 C 0.19552 0.41865 0.26318 0.0
C1054 C 0.16229 0.42283 0.27776 0.0
C1055 C 0.16488 0.42135 0.3334 0.0
C1056 C 0.18257 0.41667 0.35336 0.0
H1057 H 0.08595 0.49429 0.49235 0.0
H1058 H 0.1058 0.46649 0.49594 0.0
C1059 C 0.19782 0.41544 0.31851 0.0
C1060 C 0.14968 0.42779 0.36926 0.0
H1061 H 0.1365 0.46702 0.43743 0.0
C1062 C 0.13215 0.4192 0.36508 0.0
C1063 C 0.15142 0.44467 0.39877 0.0
C1064 C 0.16983 0.45472 0.4044 0.0
C1065 C 0.11606 0.42795 0.38513 0.0
C1066 C 0.11758 0.44584 0.40904 0.0
C1067 C 0.13533 0.45335 0.41878 0.0
C1068 C 0.10149 0.4588 0.41264 0.0
C1069 C 0.09749 0.41845 0.3778 0.0
C1070 C 0.0919 0.4633 0.36532 0.0
C1071 C 0.0805 0.47903 0.36329 0.0
C1072 C 0.07875 0.49083 0.40821 0.0
C1073 C 0.08704 0.48547 0.45699 0.0
C1074 C 0.0984 0.46959 0.45911 0.0
H1075 H 0.09901 0.40306 0.38077 0.0
H1076 H 0.08722 0.42329 0.40815 0.0
H1077 H 0.09199 0.42155 0.33715 0.0
H1078 H 0.09431 0.45552 0.32858 0.0
H1079 H 0.07397 0.48257 0.32546 0.0
H1080 H 0.92654 0.7995 0.81199 0.0
H1081 H 0.92589 0.81961 0.73291 0.0
H1082 H 0.92993 0.86818 0.83547 0.0
H1083 H 0.9295 0.84832 0.91435 0.0
H1084 H 0.91226 0.87614 0.73832 0.0
H1085 H 0.97868 0.83685 0.70669 0.0
H1086 H 0.9573 0.82395 0.70343 0.0
H1087 H 0.96498 0.83373 0.76636 0.0
C1088 C 0.92644 0.81449 0.81775 0.0
C1089 C 0.92871 0.82234 0.86926 0.0
C1090 C 0.9262 0.82597 0.77246 0.0
C1091 C 0.92857 0.84534 0.77827 0.0
C1092 C 0.92832 0.85325 0.82992 0.0
H1093 H 0.98519 0.93805 0.72487 0.0
H1094 H 0.95815 0.91778 0.72951 0.0
C1095 C 0.9283 0.84186 0.87504 0.0
C1096 C 0.93535 0.85696 0.73333 0.0
H1097 H 0.97593 0.86567 0.66755 0.0
C1098 C 0.92596 0.87365 0.72141 0.0
C1099 C 0.95316 0.85363 0.7107 0.0
C1100 C 0.96422 0.83615 0.72242 0.0
C1101 C 0.93462 0.88779 0.69159 0.0
C1102 C 0.95322 0.88524 0.67428 0.0
C1103 C 0.96171 0.86774 0.68101 0.0
C1104 C 0.96557 0.90106 0.65979 0.0
C1105 C 0.92406 0.9056 0.6812 0.0
C1106 C 0.97857 0.899 0.61801 0.0
C1107 C 0.99444 0.91026 0.61653 0.0
C1108 C 0.99735 0.924 0.65607 0.0
C1109 C 0.98328 0.92756 0.69383 0.0
C1110 C 0.96762 0.91605 0.69607 0.0
H1111 H 0.90914 0.90255 0.67311 0.0
H1112 H 0.92465 0.91463 0.71755 0.0
H1113 H 0.92989 0.91339 0.64668 0.0
H1114 H 0.97731 0.8876 0.58948 0.0
H1115 H 0.00505 0.90744 0.5867 0.0
H1116 H 0.66776 0.90865 0.94643 0.0
H1117 H 0.64339 0.90749 0.87746 0.0
H1118 H 0.68034 0.93525 0.76708 0.0
H1119 H 0.70478 0.93541 0.83462 0.0
H1120 H 0.62803 0.93688 0.84853 0.0
H1121 H 0.65274 0.90602 0.66051 0.0
H1122 H 0.6646 0.90167 0.72322 0.0
H1123 H 0.67066 0.9216 0.6826 0.0
C1124 C 0.67085 0.91369 0.90651 0.0
C1125 C 0.68808 0.92213 0.89566 0.0
C1126 C 0.65694 0.91305 0.86713 0.0
C1127 C 0.65993 0.92118 0.81664 0.0
C1128 C 0.67771 0.92831 0.80477 0.0
H1129 H 0.62293 0.00663 0.65369 0.0
H1130 H 0.63679 0.97783 0.68615 0.0
C1131 C 0.69171 0.92856 0.84369 0.0
C1132 C 0.64389 0.92614 0.78152 0.0
H1133 H 0.63427 0.93585 0.65038 0.0
C1134 C 0.62895 0.93588 0.80516 0.0
C1135 C 0.64477 0.92475 0.72483 0.0
C1136 C 0.659 0.91272 0.69663 0.0
C1137 C 0.61648 0.94626 0.77399 0.0
C1138 C 0.61907 0.94696 0.71785 0.0
C1139 C 0.63255 0.93552 0.69363 0.0
C1140 C 0.61092 0.96239 0.68663 0.0
C1141 C 0.60204 0.95822 0.80182 0.0
C1142 C 0.59188 0.96294 0.67409 0.0
C1143 C 0.58389 0.97944 0.65494 0.0
C1144 C 0.59481 0.99561 0.64869 0.0
C1145 C 0.61411 0.99448 0.65774 0.0
C1146 C 0.62207 0.97801 0.67638 0.0
H1147 H 0.60093 0.95503 0.84529 0.0
H1148 H 0.60576 0.97317 0.79737 0.0
H1149 H 0.58817 0.95614 0.78306 0.0
H1150 H 0.58311 0.95095 0.68153 0.0
H1151 H 0.56908 0.97976 0.64679 0.0
H1152 H 0.6246 0.70005 0.87119 0.0
H1153 H 0.62019 0.67029 0.82346 0.0
H1154 H 0.60291 0.64458 0.97134 0.0
H1155 H 0.60782 0.67383 0.01909 0.0
H1156 H 0.6204 0.61947 0.90631 0.0
H1157 H 0.56638 0.65901 0.7924 0.0
H1158 H 0.59002 0.66657 0.78425 0.0
H1159 H 0.57871 0.66926 0.84822 0.0
C1160 C 0.62038 0.68787 0.89362 0.0
C1161 C 0.61634 0.68933 0.94872 0.0
C1162 C 0.61779 0.67092 0.86633 0.0
C1163 C 0.61069 0.65536 0.89356 0.0
C1164 C 0.60835 0.65639 0.9494 0.0
H1165 H 0.53427 0.57195 0.89465 0.0
H1166 H 0.5609 0.59247 0.90702 0.0
C1167 C 0.61119 0.67317 0.97675 0.0
C1168 C 0.60291 0.63904 0.86426 0.0
H1169 H 0.56547 0.62669 0.7871 0.0
C1170 C 0.60867 0.62103 0.87922 0.0
C1171 C 0.58756 0.64107 0.82882 0.0
C1172 C 0.58016 0.65997 0.81261 0.0
C1173 C 0.59869 0.60514 0.86269 0.0
C1174 C 0.58265 0.6074 0.83055 0.0
C1175 C 0.57784 0.62514 0.81182 0.0
C1176 C 0.56887 0.59231 0.82336 0.0
C1177 C 0.60478 0.58611 0.88147 0.0
C1178 C 0.56453 0.58545 0.77209 0.0
C1179 C 0.54936 0.57348 0.7648 0.0
C1180 C 0.53807 0.56836 0.80858 0.0
C1181 C 0.54275 0.57515 0.86003 0.0
C1182 C 0.55804 0.58689 0.86732 0.0
H1183 H 0.61957 0.58611 0.89475 0.0
H1184 H 0.596 0.58183 0.91589 0.0
H1185 H 0.60297 0.57557 0.84897 0.0
H1186 H 0.57261 0.58971 0.73759 0.0
H1187 H 0.54643 0.56844 0.72465 0.0
H1188 H 0.80459 0.59626 0.8243 0.0
H1189 H 0.82876 0.59883 0.75524 0.0
H1190 H 0.8711 0.59826 0.8784 0.0
H1191 H 0.84713 0.59672 0.94717 0.0
H1192 H 0.88262 0.61781 0.78876 0.0
H1193 H 0.85265 0.54858 0.73074 0.0
H1194 H 0.83823 0.56888 0.72354 0.0
H1195 H 0.84456 0.5609 0.78941 0.0
C1196 C 0.81902 0.59745 0.83664 0.0
C1197 C 0.82404 0.59571 0.891 0.0
C1198 C 0.83283 0.59876 0.79711 0.0
C1199 C 0.85176 0.59807 0.81156 0.0
C1200 C 0.8566 0.59862 0.86614 0.0
H1201 H 0.94887 0.5506 0.81558 0.0
H1202 H 0.92685 0.57601 0.80522 0.0
C1203 C 0.84288 0.59752 0.90548 0.0
C1204 C 0.86647 0.59308 0.77218 0.0
H1205 H 0.88335 0.55415 0.70993 0.0
C1206 C 0.88263 0.60412 0.76994 0.0
C1207 C 0.86644 0.57533 0.7467 0.0
C1208 C 0.84963 0.56264 0.74765 0.0
C1209 C 0.8993 0.59705 0.74827 0.0
C1210 C 0.89981 0.57841 0.72923 0.0
C1211 C 0.88307 0.56838 0.72501 0.0
C1212 C 0.91739 0.56748 0.72602 0.0
C1213 C 0.91641 0.60922 0.74895 0.0
C1214 C 0.92018 0.55453 0.68412 0.0
C1215 C 0.93247 0.53956 0.69081 0.0
C1216 C 0.94217 0.53736 0.73948 0.0
C1217 C 0.94116 0.55163 0.7783 0.0
C1218 C 0.9288 0.56647 0.77183 0.0
H1219 H 0.91265 0.62385 0.73911 0.0
H1220 H 0.92251 0.60934 0.78994 0.0
H1221 H 0.92711 0.60424 0.72005 0.0
H1222 H 0.91158 0.55501 0.64835 0.0
H1223 H 0.93305 0.52887 0.6599 0.0
H1224 H 0.993 0.19719 0.8705 0.0
H1225 H 0.98842 0.16826 0.81855 0.0
H1226 H 0.04551 0.15272 0.84793 0.0
H1227 H 0.05016 0.18135 0.90011 0.0
H1228 H 0.00948 0.15452 0.72407 0.0
H1229 H 0.01415 0.10699 0.89901 0.0
H1230 H 0.00945 0.13166 0.90622 0.0
H1231 H 0.03272 0.12368 0.89286 0.0
C1232 C 0.00457 0.1876 0.86605 0.0
C1233 C 0.02198 0.19174 0.88951 0.0
C1234 C 1.00196 0.17109 0.83609 0.0
C1235 C 0.01658 0.15818 0.8296 0.0
C1236 C 0.03396 0.16232 0.85265 0.0
H1237 H 0.0249 0.06175 0.60944 0.0
H1238 H 0.03057 0.09107 0.65919 0.0
C1239 C 0.03664 0.17885 0.88213 0.0
C1240 C 0.01373 0.14036 0.79901 0.0
H1241 H 0.01272 0.09285 0.81306 0.0
C1242 C 0.0102 0.14104 0.74353 0.0
C1243 C 0.01457 0.12272 0.82431 0.0
C1244 C 0.01778 0.12109 0.88395 0.0
C1245 C 0.0077 0.12462 0.71276 0.0
C1246 C 0.00881 0.10699 0.73796 0.0
C1247 C 0.0121 0.10632 0.79353 0.0
C1248 C 0.00572 0.08912 0.70786 0.0
C1249 C 1.00359 0.12623 0.6536 0.0
C1250 C 0.99009 0.07808 0.71926 0.0
C1251 C 0.98693 0.06134 0.69127 0.0
C1252 C 0.99956 0.055 0.65214 0.0
C1253 C 0.01519 0.06606 0.64037 0.0
C1254 C 0.01829 0.08293 0.66821 0.0
H1255 H 0.99951 0.14065 0.64235 0.0
H1256 H 0.01625 0.1224 0.63053 0.0
H1257 H 0.99226 0.11651 0.64161 0.0
H1258 H 0.98018 0.08252 0.74952 0.0
H1259 H 0.97461 0.05325 0.70048 0.0
H1260 H 0.33524 0.01205 0.92484 0.0
H1261 H 0.36319 0.00585 0.87147 0.0
H1262 H 0.34894 0.05103 0.76586 0.0
H1263 H 0.32058 0.05697 0.8176 0.0
H1264 H 0.36609 0.99938 0.74963 0.0
H1265 H 0.4037 0.06197 0.82709 0.0
H1266 H 0.38457 0.05152 0.86314 0.0
H1267 H 0.38008 0.06504 0.80419 0.0
C1268 C 0.33775 0.02047 0.88966 0.0
C1269 C 0.32553 0.03513 0.87603 0.0
C1270 C 0.35389 0.01698 0.85941 0.0
C1271 C 0.35832 0.02815 0.81513 0.0
C1272 C 0.34596 0.04242 0.80037 0.0
H1273 H 0.45839 0.0325 0.61229 0.0
H1274 H 0.42873 0.03955 0.65715 0.0
C1275 C 0.32975 0.04582 0.83026 0.0
C1276 C 0.37596 0.02502 0.78483 0.0
H1277 H 0.41927 0.04341 0.76302 0.0
C1278 C 0.37772 0.009 0.75254 0.0
C1279 C 0.39106 0.03768 0.78811 0.0
C1280 C 0.38995 0.05501 0.82265 0.0
C1281 C 0.39415 0.0053 0.72343 0.0
C1282 C 0.4095 0.01766 0.72802 0.0
C1283 C 0.4076 0.03387 0.75964 0.0
C1284 C 0.42778 0.01371 0.70164 0.0
C1285 C 0.39473 0.98834 0.68722 0.0
C1286 C 0.43743 0.99708 0.71256 0.0
C1287 C 0.4544 0.99312 0.68731 0.0
C1288 C 0.46235 0.00588 0.65149 0.0
C1289 C 0.45282 0.0226 0.64072 0.0
C1290 C 0.43579 0.02656 0.66602 0.0
H1291 H 0.38051 0.98397 0.67476 0.0
H1292 H 0.40311 0.99101 0.65064 0.0
H1293 H 0.40117 0.97656 0.70921 0.0
H1294 H 0.43183 0.98711 0.74075 0.0
H1295 H 0.46138 0.98007 0.69598 0.0
H1296 H 0.48709 0.33807 0.91686 0.0
H1297 H 0.4925 0.365 0.8595 0.0
H1298 H 0.48364 0.33052 0.719 0.0
H1299 H 0.47712 0.3037 0.77694 0.0
H1300 H 0.51686 0.37367 0.79017 0.0
H1301 H 0.44919 0.37146 0.68279 0.0
H1302 H 0.45414 0.35664 0.73917 0.0
H1303 H 0.46267 0.35064 0.67327 0.0
C1304 C 0.48639 0.33622 0.87369 0.0
C1305 C 0.48168 0.3188 0.85133 0.0
C1306 C 0.48945 0.35165 0.84082 0.0
C1307 C 0.48814 0.35003 0.78464 0.0
C1308 C 0.48414 0.3324 0.76212 0.0
H1309 H 0.52934 0.44709 0.6031 0.0
H1310 H 0.52611 0.41545 0.63766 0.0
C1311 C 0.48062 0.31701 0.79518 0.0
C1312 C 0.49103 0.3669 0.75055 0.0
H1313 H 0.47096 0.39388 0.65344 0.0
C1314 C 0.50679 0.37807 0.76029 0.0
C1315 C 0.47785 0.37284 0.71172 0.0
C1316 C 0.45993 0.36238 0.70143 0.0
C1317 C 0.50948 0.39513 0.73385 0.0
C1318 C 0.49651 0.40089 0.69424 0.0
C1319 C 0.48101 0.38948 0.68338 0.0
C1320 C 0.49795 0.41934 0.66684 0.0
C1321 C 0.52572 0.40718 0.75094 0.0
C1322 C 0.48275 0.43171 0.66756 0.0
C1323 C 0.48434 0.44962 0.64606 0.0
C1324 C 0.50132 0.45584 0.62455 0.0
C1325 C 0.5162 0.44306 0.62093 0.0
C1326 C 0.51444 0.42495 0.64117 0.0
H1327 H 0.53094 0.40335 0.79143 0.0
H1328 H 0.53736 0.40522 0.7222 0.0
H1329 H 0.52183 0.42218 0.75172 0.0
H1330 H 0.46971 0.42771 0.68605 0.0
H1331 H 0.4723 0.45865 0.64723 0.0
H1332 H 0.19861 0.456 0.84135 0.0
H1333 H 0.17187 0.46013 0.7815 0.0
H1334 H 0.16935 0.51843 0.82462 0.0
H1335 H 0.1964 0.51454 0.88344 0.0
H1336 H 0.13641 0.47143 0.81013 0.0
H1337 H 0.16571 0.52052 0.66154 0.0
H1338 H 0.18017 0.50749 0.70737 0.0
H1339 H 0.16834 0.52824 0.72985 0.0
C1340 C 0.19268 0.46982 0.83723 0.0
C1341 C 0.19982 0.48495 0.86724 0.0
C1342 C 0.17724 0.47212 0.80324 0.0
C1343 C 0.16864 0.48964 0.79789 0.0
C1344 C 0.17589 0.50484 0.82714 0.0
H1345 H 0.06803 0.53314 0.65178 0.0
H1346 H 0.09821 0.52837 0.69509 0.0
C1347 C 0.19128 0.50254 0.86127 0.0
C1348 C 0.15149 0.49177 0.76425 0.0
H1349 H 0.13278 0.51627 0.6596 0.0
C1350 C 0.13569 0.4811 0.77688 0.0
C1351 C 0.15045 0.50444 0.7209 0.0
C1352 C 0.16712 0.51571 0.70368 0.0
C1353 C 0.1188 0.48313 0.74856 0.0
C1354 C 0.11771 0.49592 0.70549 0.0
C1355 C 0.13357 0.50645 0.69249 0.0
C1356 C 0.10004 0.49901 0.67492 0.0
C1357 C 0.10208 0.47202 0.76635 0.0
C1358 C 0.09122 0.4843 0.64723 0.0
C1359 C 0.07389 0.48702 0.62234 0.0
C1360 C 0.06497 0.50452 0.62444 0.0
C1361 C 0.07433 0.51946 0.64954 0.0
C1362 C 0.09164 0.51673 0.6745 0.0
H1363 H 0.1039 0.46644 0.80754 0.0
H1364 H 0.08925 0.48069 0.76546 0.0
H1365 H 0.10005 0.46 0.73863 0.0
H1366 H 0.09761 0.47061 0.64555 0.0
H1367 H 0.06731 0.47528 0.60231 0.0
H1368 H 0.02272 0.82883 0.27578 0.0
H1369 H 0.02589 0.85746 0.32899 0.0
H1370 H 0.96676 0.85777 0.35823 0.0
H1371 H 0.96332 0.82941 0.30404 0.0
H1372 H 0.00837 0.89202 0.30723 0.0
H1373 H 0.98888 0.86654 0.50934 0.0
H1374 H 0.99504 0.85092 0.455 0.0
H1375 H 0.97234 0.86147 0.45699 0.0
C1376 C 0.01033 0.83491 0.29346 0.0
C1377 C 0.99273 0.82662 0.28517 0.0
C1378 C 0.01221 0.85129 0.32423 0.0
C1379 C 0.99661 0.85977 0.34823 0.0
C1380 C 0.97909 0.85137 0.34114 0.0
H1381 H 0.98642 0.96071 0.55197 0.0
H1382 H 0.98006 0.9319 0.50103 0.0
C1383 C 0.97717 0.83503 0.3101 0.0
C1384 C 0.99859 0.87797 0.37771 0.0
H1385 H 0.99312 0.89907 0.50019 0.0
C1386 C 0.00513 0.89354 0.34956 0.0
C1387 C 0.99408 0.88012 0.43272 0.0
C1388 C 0.98732 0.86387 0.46557 0.0
C1389 C 0.00724 0.91112 0.37453 0.0
C1390 C 1.00328 0.91326 0.43017 0.0
C1391 C 0.99638 0.89767 0.45799 0.0
C1392 C 0.00677 0.93121 0.46046 0.0
C1393 C 0.01323 0.92724 0.33999 0.0
C1394 C 0.02398 0.94049 0.45614 0.0
C1395 C 0.02732 0.95724 0.48385 0.0
C1396 C 0.01372 0.96513 0.51758 0.0
C1397 C 0.99685 0.95547 0.52433 0.0
C1398 C 0.99333 0.93881 0.49569 0.0
H1399 H 0.00848 0.92533 0.29782 0.0
H1400 H 0.00764 0.94065 0.35517 0.0
H1401 H 0.02867 0.92798 0.33948 0.0
H1402 H 0.03504 0.93466 0.43178 0.0
H1403 H 0.04073 0.96397 0.47928 0.0
H1404 H 0.69499 0.01903 0.31538 0.0
H1405 H 0.66612 0.02479 0.36535 0.0
H1406 H 0.65181 0.96661 0.35202 0.0
H1407 H 0.68012 0.96073 0.30045 0.0
H1408 H 0.62599 0.0083 0.31514 0.0
H1409 H 0.64737 0.989 0.52259 0.0
H1410 H 0.6637 0.99922 0.47606 0.0
H1411 H 0.65592 0.97572 0.46589 0.0
C1412 C 0.68575 0.00741 0.32297 0.0
C1413 C 0.69008 0.98938 0.30358 0.0
C1414 C 0.6693 0.01073 0.35194 0.0
C1415 C 0.65689 0.9961 0.36268 0.0
C1416 C 0.6613 0.97806 0.34469 0.0
H1417 H 0.5531 0.9906 0.54591 0.0
H1418 H 0.58276 0.9837 0.50122 0.0
C1419 C 0.67764 0.97473 0.31544 0.0
C1420 C 0.6387 0.99982 0.38922 0.0
H1421 H 0.61611 0.99797 0.50978 0.0
C1422 C 0.6238 0.00612 0.35772 0.0
C1423 C 0.63585 0.99667 0.44452 0.0
C1424 C 0.65149 0.9898 0.47969 0.0
C1425 C 0.60605 0.00929 0.37992 0.0
C1426 C 0.60319 0.00658 0.43575 0.0
C1427 C 0.61818 1.00012 0.46715 0.0
C1428 C 0.58491 0.01058 0.46232 0.0
C1429 C 0.59052 0.01507 0.34266 0.0
C1430 C 0.57623 0.02804 0.45636 0.0
C1431 C 0.55904 0.03177 0.48064 0.0
C1432 C 0.55019 0.01825 0.51218 0.0
C1433 C 0.55919 1.00103 0.52008 0.0
C1434 C 0.57628 0.99718 0.49505 0.0
H1435 H 0.59302 0.01 0.30103 0.0
H1436 H 0.57687 0.00969 0.35618 0.0
H1437 H 0.58981 0.03053 0.34142 0.0
H1438 H 0.58283 0.03894 0.43332 0.0
H1439 H 0.55273 0.04537 0.47518 0.0
H1440 H 0.52412 0.69256 0.24099 0.0
H1441 H 0.51663 0.66457 0.29211 0.0
H1442 H 0.54854 0.6856 0.4262 0.0
H1443 H 0.55559 0.71395 0.37602 0.0
H1444 H 0.54184 0.63904 0.32878 0.0
H1445 H 0.5013 0.66769 0.49974 0.0
H1446 H 0.50579 0.68091 0.43967 0.0
H1447 H 0.52345 0.67883 0.49057 0.0
C1448 C 0.52913 0.69153 0.2819 0.0
C1449 C 0.54044 0.70563 0.30431 0.0
C1450 C 0.52496 0.67539 0.31095 0.0
C1451 C 0.53188 0.67297 0.36323 0.0
C1452 C 0.54276 0.68722 0.38631 0.0
H1453 H 0.54769 0.56566 0.51995 0.0
H1454 H 0.5517 0.59609 0.47802 0.0
C1455 C 0.54694 0.70337 0.35729 0.0
C1456 C 0.52883 0.65502 0.39192 0.0
H1457 H 0.51137 0.63609 0.50709 0.0
C1458 C 0.53511 0.63841 0.36767 0.0
C1459 C 0.5199 0.65412 0.44249 0.0
C1460 C 0.51205 0.67131 0.4695 0.0
C1461 C 0.53297 0.62103 0.39281 0.0
C1462 C 0.52458 0.62019 0.44415 0.0
C1463 C 0.51799 0.63675 0.46805 0.0
C1464 C 0.52221 0.60218 0.47299 0.0
C1465 C 0.53943 0.60366 0.36363 0.0
C1466 C 0.50435 0.59575 0.4864 0.0
C1467 C 0.502 0.57828 0.51045 0.0
C1468 C 0.51748 0.56681 0.52147 0.0
C1469 C 0.5354 0.57376 0.51046 0.0
C1470 C 0.53774 0.59122 0.48648 0.0
H1471 H 0.54096 0.60608 0.31984 0.0
H1472 H 0.55321 0.59939 0.37962 0.0
H1473 H 0.52954 0.59195 0.36963 0.0
H1474 H 0.49216 0.60405 0.47703 0.0
H1475 H 0.48801 0.57367 0.51931 0.0
H1476 H 0.82904 0.51028 0.24366 0.0
H1477 H 0.85605 0.50522 0.30147 0.0
H1478 H 0.83133 0.54003 0.42391 0.0
H1479 H 0.80421 0.54523 0.3661 0.0
H1480 H 0.86656 0.55005 0.4061 0.0
H1481 H 0.8649 0.47351 0.43188 0.0
H1482 H 0.86451 0.47992 0.36241 0.0
H1483 H 0.84536 0.4864 0.40531 0.0
C1484 C 0.82907 0.5165 0.28341 0.0
C1485 C 0.81431 0.52813 0.3001 0.0
C1486 C 0.8446 0.51356 0.31658 0.0
C1487 C 0.84573 0.522 0.3676 0.0
C1488 C 0.83084 0.5333 0.38487 0.0
H1489 H 0.94049 0.50029 0.58839 0.0
H1490 H 0.90869 0.50199 0.551 0.0
C1491 C 0.81533 0.5363 0.35163 0.0
C1492 C 0.86301 0.52024 0.40094 0.0
H1493 H 0.89401 0.48865 0.45239 0.0
C1494 C 0.8724 0.5366 0.41671 0.0
C1495 C 0.87062 0.50274 0.41578 0.0
C1496 C 0.86072 0.48466 0.40347 0.0
C1497 C 0.88945 0.53593 0.4446 0.0
C1498 C 0.89764 0.51844 0.45638 0.0
C1499 C 0.88789 0.50207 0.44286 0.0
C1500 C 0.9168 0.51697 0.47955 0.0
C1501 C 0.89862 0.55405 0.46099 0.0
C1502 C 0.93199 0.52434 0.45139 0.0
C1503 C 0.95 0.52336 0.4726 0.0
C1504 C 0.95337 0.51504 0.52255 0.0
C1505 C 0.93829 0.50702 0.55007 0.0
C1506 C 0.92014 0.508 0.52877 0.0
H1507 H 0.88832 0.56559 0.46394 0.0
H1508 H 0.90586 0.5527 0.50022 0.0
H1509 H 0.90909 0.55794 0.4303 0.0
H1510 H 0.92994 0.53073 0.41253 0.0
H1511 H 0.96135 0.52868 0.44897 0.0
loop_
_geom_bond_atom_site_label_1
_geom_bond_atom_site_label_2
_geom_bond_distance
_geom_bond_site_symmetry_2
_ccdc_geom_bond_type
C0 C1 1.386 . S
C0 C2 1.397 1_556 S
C0 H24 0.931 . S
C1 C0 1.386 . S
C1 C5 1.397 1_556 S
C2 C0 1.397 1_554 S
C2 C3 1.384 . S
C2 H25 0.930 . S
C3 C2 1.384 . S
C3 C4 1.377 . S
C3 C6 1.481 . S
C4 C3 1.377 . S
C4 C5 1.389 . S
C4 H26 0.929 . S
C5 C1 1.397 1_554 S
C5 C4 1.389 . S
C5 H27 0.931 . S
C6 C3 1.481 . S
C6 C7 1.387 . S
C6 C11 1.390 . S
C7 C6 1.387 . S
C7 C8 1.401 . S
C7 H28 0.930 . S
C8 C7 1.401 . S
C8 C9 1.376 . S
C8 C17 1.511 . S
C9 C8 1.376 . S
C9 C10 1.392 . S
C9 H30 0.931 . S
C10 C9 1.392 . S
C10 C11 1.361 . S
C10 C12 1.500 . S
C11 C6 1.390 . S
C11 C10 1.361 . S
C11 H29 0.931 . S
C12 C10 1.500 . S
C12 C13 1.371 . S
C12 C14 1.365 . S
C13 C12 1.371 . S
C13 C23 1.386 . S
C13 H31 0.931 . S
C14 C12 1.365 . S
C14 C15 1.409 . S
C14 H32 0.929 . S
C15 C14 1.409 . S
C15 C16 1.380 . S
C15 H33 0.930 . S
C16 C15 1.380 . S
C16 C23 1.357 . S
C17 C8 1.511 . S
C17 C18 1.341 . S
C17 C19 1.371 . S
C18 C17 1.341 . S
C18 C22 1.394 . S
C18 H34 0.930 . S
C19 C17 1.371 . S
C19 C20 1.392 . S
C19 H35 0.931 . S
C20 C19 1.392 . S
C20 C21 1.331 . S
C20 H38 0.932 . S
C21 C20 1.331 . S
C21 C22 1.336 . S
C22 C18 1.394 . S
C22 C21 1.336 . S
C22 H37 0.929 . S
C23 C13 1.386 . S
C23 C16 1.357 . S
C23 H36 0.928 . S
H24 C0 0.931 . S
H25 C2 0.930 . S
H26 C4 0.929 . S
H27 C5 0.931 . S
H28 C7 0.930 . S
H29 C11 0.931 . S
H30 C9 0.931 . S
H31 C13 0.931 . S
H32 C14 0.929 . S
H33 C15 0.930 . S
H34 C18 0.930 . S
H35 C19 0.931 . S
H36 C23 0.928 . S
H37 C22 0.929 . S
H38 C20 0.932 . S
C39 C40 1.386 . S
C39 C41 1.397 1_556 S
C39 H63 0.931 . S
C40 C39 1.386 . S
C40 C44 1.397 1_556 S
C41 C39 1.397 1_554 S
C41 C42 1.384 . S
C41 H64 0.930 . S
C42 C41 1.384 . S
C42 C43 1.377 . S
C42 C45 1.481 . S
C43 C42 1.377 . S
C43 C44 1.389 . S
C43 H65 0.929 . S
C44 C40 1.397 1_554 S
C44 C43 1.389 . S
C44 H66 0.931 . S
C45 C42 1.481 . S
C45 C46 1.387 . S
C45 C50 1.390 . S
C46 C45 1.387 . S
C46 C47 1.401 . S
C46 H67 0.930 . S
C47 C46 1.401 . S
C47 C48 1.376 . S
C47 C56 1.511 . S
C48 C47 1.376 . S
C48 C49 1.392 . S
C48 H69 0.931 . S
C49 C48 1.392 . S
C49 C50 1.361 . S
C49 C51 1.500 . S
C50 C45 1.390 . S
C50 C49 1.361 . S
C50 H68 0.931 . S
C51 C49 1.500 . S
C51 C52 1.371 . S
C51 C53 1.365 . S
C52 C51 1.371 . S
C52 C62 1.386 . S
C52 H70 0.931 . S
C53 C51 1.365 . S
C53 C54 1.409 . S
C53 H71 0.929 . S
C54 C53 1.409 . S
C54 C55 1.380 . S
C54 H72 0.930 . S
C55 C54 1.380 . S
C55 C62 1.357 . S
C56 C47 1.511 . S
C56 C57 1.341 . S
C56 C58 1.371 . S
C57 C56 1.341 . S
C57 C61 1.394 . S
C57 H73 0.930 . S
C58 C56 1.371 . S
C58 C59 1.392 . S
C58 H74 0.931 . S
C59 C58 1.392 . S
C59 C60 1.331 . S
C59 H77 0.932 . S
C60 C59 1.331 . S
C60 C61 1.336 . S
C61 C57 1.394 . S
C61 C60 1.336 . S
C61 H76 0.929 . S
C62 C52 1.386 . S
C62 C55 1.357 . S
C62 H75 0.928 . S
H63 C39 0.931 . S
H64 C41 0.930 . S
H65 C43 0.929 . S
H66 C44 0.931 . S
H67 C46 0.930 . S
H68 C50 0.931 . S
H69 C48 0.931 . S
H70 C52 0.931 . S
H71 C53 0.929 . S
H72 C54 0.930 . S
H73 C57 0.930 . S
H74 C58 0.931 . S
H75 C62 0.928 . S
H76 C61 0.929 . S
H77 C59 0.932 . S
C78 C79 1.386 . S
C78 C80 1.397 1_556 S
C78 H102 0.931 . S
C79 C78 1.386 . S
C79 C83 1.397 1_556 S
C80 C78 1.397 1_554 S
C80 C81 1.384 . S
C80 H103 0.930 . S
C81 C80 1.384 . S
C81 C82 1.377 . S
C81 C84 1.481 . S
C82 C81 1.377 . S
C82 C83 1.389 . S
C82 H104 0.929 . S
C83 C79 1.397 1_554 S
C83 C82 1.389 . S
C83 H105 0.931 . S
C84 C81 1.481 . S
C84 C85 1.387 . S
C84 C89 1.390 . S
C85 C84 1.387 . S
C85 C86 1.401 . S
C85 H106 0.930 . S
C86 C85 1.401 . S
C86 C87 1.376 . S
C86 C95 1.511 . S
C87 C86 1.376 . S
C87 C88 1.392 . S
C87 H108 0.931 . S
C88 C87 1.392 . S
C88 C89 1.361 . S
C88 C90 1.500 . S
C89 C84 1.390 . S
C89 C88 1.361 . S
C89 H107 0.931 . S
C90 C88 1.500 . S
C90 C91 1.371 . S
C90 C92 1.365 . S
C91 C90 1.371 . S
C91 C101 1.386 . S
C91 H109 0.931 . S
C92 C90 1.365 . S
C92 C93 1.409 . S
C92 H110 0.929 . S
C93 C92 1.409 . S
C93 C94 1.380 . S
C93 H111 0.930 . S
C94 C93 1.380 . S
C94 C101 1.357 . S
C95 C86 1.511 . S
C95 C96 1.341 . S
C95 C97 1.371 . S
C96 C95 1.341 . S
C96 C100 1.394 . S
C96 H112 0.930 . S
C97 C95 1.371 . S
C97 C98 1.392 . S
C97 H113 0.931 . S
C98 C97 1.392 . S
C98 C99 1.331 . S
C98 H116 0.932 . S
C99 C98 1.331 . S
C99 C100 1.336 . S
C100 C96 1.394 . S
C100 C99 1.336 . S
C100 H115 0.929 . S
C101 C91 1.386 . S
C101 C94 1.357 . S
C101 H114 0.928 . S
H102 C78 0.931 . S
H103 C80 0.930 . S
H104 C82 0.929 . S
H105 C83 0.931 . S
H106 C85 0.930 . S
H107 C89 0.931 . S
H108 C87 0.931 . S
H109 C91 0.931 . S
H110 C92 0.929 . S
H111 C93 0.930 . S
H112 C96 0.930 . S
H113 C97 0.931 . S
H114 C101 0.928 . S
H115 C100 0.929 . S
H116 C98 0.932 . S
C117 C118 1.386 . S
C117 C119 1.397 . S
C117 H141 0.931 . S
C118 C117 1.386 . S
C118 C122 1.397 . S
C119 C117 1.397 . S
C119 C120 1.384 . S
C119 H142 0.930 . S
C120 C119 1.384 . S
C120 C121 1.377 . S
C120 C123 1.481 . S
C121 C120 1.377 . S
C121 C122 1.389 . S
C121 H143 0.929 . S
C122 C118 1.397 . S
C122 C121 1.389 . S
C122 H144 0.931 . S
C123 C120 1.481 . S
C123 C124 1.387 . S
C123 C128 1.390 . S
C124 C123 1.387 . S
C124 C125 1.401 . S
C124 H145 0.930 . S
C125 C124 1.401 . S
C125 C126 1.376 . S
C125 C134 1.511 . S
C126 C125 1.376 . S
C126 C127 1.392 . S
C126 H147 0.931 . S
C127 C126 1.392 . S
C127 C128 1.361 . S
C127 C129 1.500 . S
C128 C123 1.390 . S
C128 C127 1.361 . S
C128 H146 0.931 . S
C129 C127 1.500 . S
C129 C130 1.371 . S
C129 C131 1.365 . S
C130 C129 1.371 . S
C130 C140 1.386 1_554 S
C130 H148 0.933 . S
C131 C129 1.365 . S
C131 C132 1.409 . S
C131 H149 0.929 . S
C132 C131 1.409 . S
C132 C133 1.380 1_554 S
C132 H150 0.930 . S
C133 C132 1.380 1_556 S
C133 C140 1.357 . S
C134 C125 1.511 . S
C134 C135 1.341 . S
C134 C136 1.371 . S
C135 C134 1.341 . S
C135 C139 1.394 . S
C135 H151 0.930 . S
C136 C134 1.371 . S
C136 C137 1.392 . S
C136 H152 0.931 . S
C137 C136 1.392 . S
C137 C138 1.331 . S
C137 H155 0.932 . S
C138 C137 1.331 . S
C138 C139 1.336 . S
C139 C135 1.394 . S
C139 C138 1.336 . S
C139 H154 0.929 . S
C140 C130 1.386 1_556 S
C140 C133 1.357 . S
C140 H153 0.928 . S
H141 C117 0.931 . S
H142 C119 0.930 . S
H143 C121 0.929 . S
H144 C122 0.931 . S
H145 C124 0.930 . S
H146 C128 0.931 . S
H147 C126 0.931 . S
H148 C130 0.933 . S
H149 C131 0.929 . S
H150 C132 0.930 . S
H151 C135 0.930 . S
H152 C136 0.931 . S
H153 C140 0.928 . S
H154 C139 0.929 . S
H155 C137 0.932 . S
C156 C157 1.386 . S
C156 C158 1.397 . S
C156 H180 0.931 . S
C157 C156 1.386 . S
C157 C161 1.397 . S
C158 C156 1.397 . S
C158 C159 1.384 . S
C158 H181 0.930 . S
C159 C158 1.384 . S
C159 C160 1.377 . S
C159 C162 1.481 . S
C160 C159 1.377 . S
C160 C161 1.389 . S
C160 H182 0.929 . S
C161 C157 1.397 . S
C161 C160 1.389 . S
C161 H183 0.931 . S
C162 C159 1.481 . S
C162 C163 1.387 . S
C162 C167 1.390 . S
C163 C162 1.387 . S
C163 C164 1.401 . S
C163 H184 0.930 . S
C164 C163 1.401 . S
C164 C165 1.376 1_554 S
C164 C173 1.511 . S
C165 C164 1.376 1_556 S
C165 C166 1.392 . S
C165 H186 0.931 . S
C166 C165 1.392 . S
C166 C167 1.361 1_556 S
C166 C168 1.500 . S
C167 C162 1.390 . S
C167 C166 1.361 1_554 S
C167 H185 0.931 1_554 S
C168 C166 1.500 . S
C168 C169 1.371 . S
C168 C170 1.365 . S
C169 C168 1.371 . S
C169 C179 1.386 . S
C169 H187 0.931 . S
C170 C168 1.365 . S
C170 C171 1.409 . S
C170 H188 0.929 . S
C171 C170 1.409 . S
C171 C172 1.380 . S
C171 H189 0.930 . S
C172 C171 1.380 . S
C172 C179 1.357 . S
C173 C164 1.511 . S
C173 C174 1.341 . S
C173 C175 1.371 . S
C174 C173 1.341 . S
C174 C178 1.394 . S
C174 H190 0.930 . S
C175 C173 1.371 . S
C175 C176 1.392 . S
C175 H191 0.931 1_554 S
C176 C175 1.392 . S
C176 C177 1.331 . S
C176 H194 0.932 1_554 S
C177 C176 1.331 . S
C177 C178 1.336 . S
C178 C174 1.394 . S
C178 C177 1.336 . S
C178 H193 0.929 . S
C179 C169 1.386 . S
C179 C172 1.357 . S
C179 H192 0.928 . S
H180 C156 0.931 . S
H181 C158 0.930 . S
H182 C160 0.929 . S
H183 C161 0.931 . S
H184 C163 0.930 . S
H185 C167 0.931 1_556 S
H186 C165 0.931 . S
H187 C169 0.931 . S
H188 C170 0.929 . S
H189 C171 0.930 . S
H190 C174 0.930 . S
H191 C175 0.931 1_556 S
H192 C179 0.928 . S
H193 C178 0.929 . S
H194 C176 0.932 1_556 S
C195 C196 1.386 . S
C195 C197 1.397 . S
C195 H219 0.931 . S
C196 C195 1.386 . S
C196 C200 1.397 . S
C197 C195 1.397 . S
C197 C198 1.384 . S
C197 H220 0.930 . S
C198 C197 1.384 . S
C198 C199 1.377 . S
C198 C201 1.481 . S
C199 C198 1.377 . S
C199 C200 1.389 . S
C199 H221 0.929 . S
C200 C196 1.397 . S
C200 C199 1.389 . S
C200 H222 0.931 . S
C201 C198 1.481 . S
C201 C202 1.387 . S
C201 C206 1.390 1_554 S
C202 C201 1.387 . S
C202 C203 1.401 . S
C202 H223 0.930 . S
C203 C202 1.401 . S
C203 C204 1.376 1_554 S
C203 C212 1.511 . S
C204 C203 1.376 1_556 S
C204 C205 1.392 . S
C204 H225 0.931 . S
C205 C204 1.392 . S
C205 C206 1.361 . S
C205 C207 1.500 . S
C206 C201 1.390 1_556 S
C206 C205 1.361 . S
C206 H224 0.931 . S
C207 C205 1.500 . S
C207 C208 1.371 . S
C207 C209 1.365 . S
C208 C207 1.371 . S
C208 C218 1.386 . S
C208 H226 0.931 . S
C209 C207 1.365 . S
C209 C210 1.409 . S
C209 H227 0.929 . S
C210 C209 1.409 . S
C210 C211 1.380 . S
C210 H228 0.930 . S
C211 C210 1.380 . S
C211 C218 1.357 . S
C212 C203 1.511 . S
C212 C213 1.341 . S
C212 C214 1.371 1_554 S
C213 C212 1.341 . S
C213 C217 1.394 . S
C213 H229 0.930 . S
C214 C212 1.371 1_556 S
C214 C215 1.392 1_556 S
C214 H230 0.931 . S
C215 C214 1.392 1_554 S
C215 C216 1.331 . S
C215 H233 0.932 1_554 S
C216 C215 1.331 . S
C216 C217 1.336 . S
C217 C213 1.394 . S
C217 C216 1.336 . S
C217 H232 0.929 . S
C218 C208 1.386 . S
C218 C211 1.357 . S
C218 H231 0.928 . S
H219 C195 0.931 . S
H220 C197 0.930 . S
H221 C199 0.929 . S
H222 C200 0.931 . S
H223 C202 0.930 . S
H224 C206 0.931 . S
H225 C204 0.931 . S
H226 C208 0.931 . S
H227 C209 0.929 . S
H228 C210 0.930 . S
H229 C213 0.930 . S
H230 C214 0.931 . S
H231 C218 0.928 . S
H232 C217 0.929 . S
H233 C215 0.932 1_556 S
C234 C235 1.386 . S
C234 C236 1.397 . S
C234 H258 0.931 . S
C235 C234 1.386 . S
C235 C239 1.397 . S
C236 C234 1.397 . S
C236 C237 1.384 . S
C236 H259 0.930 . S
C237 C236 1.384 . S
C237 C238 1.377 . S
C237 C240 1.481 . S
C238 C237 1.377 . S
C238 C239 1.389 . S
C238 H260 0.929 . S
C239 C235 1.397 . S
C239 C238 1.389 . S
C239 H261 0.931 . S
C240 C237 1.481 . S
C240 C241 1.387 . S
C240 C245 1.390 1_554 S
C241 C240 1.387 . S
C241 C242 1.401 . S
C241 H262 0.930 . S
C242 C241 1.401 . S
C242 C243 1.376 1_554 S
C242 C251 1.511 . S
C243 C242 1.376 1_556 S
C243 C244 1.392 . S
C243 H264 0.931 . S
C244 C243 1.392 . S
C244 C245 1.361 . S
C244 C246 1.500 . S
C245 C240 1.390 1_556 S
C245 C244 1.361 . S
C245 H263 0.931 . S
C246 C244 1.500 . S
C246 C247 1.371 . S
C246 C248 1.365 . S
C247 C246 1.371 . S
C247 C257 1.386 . S
C247 H265 0.931 . S
C248 C246 1.365 . S
C248 C249 1.409 . S
C248 H266 0.929 . S
C249 C248 1.409 . S
C249 C250 1.380 . S
C249 H267 0.930 . S
C250 C249 1.380 . S
C250 C257 1.357 . S
C251 C242 1.511 . S
C251 C252 1.341 . S
C251 C253 1.371 1_554 S
C252 C251 1.341 . S
C252 C256 1.394 . S
C252 H268 0.930 . S
C253 C251 1.371 1_556 S
C253 C254 1.392 1_556 S
C253 H269 0.931 . S
C254 C253 1.392 1_554 S
C254 C255 1.331 . S
C254 H272 0.932 1_554 S
C255 C254 1.331 . S
C255 C256 1.336 . S
C256 C252 1.394 . S
C256 C255 1.336 . S
C256 H271 0.929 . S
C257 C247 1.386 . S
C257 C250 1.357 . S
C257 H270 0.928 . S
H258 C234 0.931 . S
H259 C236 0.930 . S
H260 C238 0.929 . S
H261 C239 0.931 . S
H262 C241 0.930 . S
H263 C245 0.931 . S
H264 C243 0.931 . S
H265 C247 0.931 . S
H266 C248 0.929 . S
H267 C249 0.930 . S
H268 C252 0.930 . S
H269 C253 0.931 . S
H270 C257 0.928 . S
H271 C256 0.929 . S
H272 C254 0.932 1_556 S
C273 C274 1.386 . S
C273 C275 1.397 . S
C273 H297 0.931 . S
C274 C273 1.386 . S
C274 C278 1.397 . S
C275 C273 1.397 . S
C275 C276 1.384 . S
C275 H298 0.930 . S
C276 C275 1.384 . S
C276 C277 1.377 . S
C276 C279 1.481 . S
C277 C276 1.377 . S
C277 C278 1.389 . S
C277 H299 0.929 . S
C278 C274 1.397 . S
C278 C277 1.389 . S
C278 H300 0.931 . S
C279 C276 1.481 . S
C279 C280 1.387 . S
C279 C284 1.390 1_556 S
C280 C279 1.387 . S
C280 C281 1.401 1_556 S
C280 H301 0.930 . S
C281 C280 1.401 1_554 S
C281 C282 1.376 . S
C281 C290 1.511 . S
C282 C281 1.376 . S
C282 C283 1.392 . S
C282 H303 0.931 . S
C283 C282 1.392 . S
C283 C284 1.361 . S
C283 C285 1.500 . S
C284 C279 1.390 1_554 S
C284 C283 1.361 . S
C284 H302 0.931 1_554 S
C285 C283 1.500 . S
C285 C286 1.371 . S
C285 C287 1.365 . S
C286 C285 1.371 . S
C286 C296 1.386 . S
C286 H304 0.931 . S
C287 C285 1.365 . S
C287 C288 1.409 . S
C287 H305 0.929 . S
C288 C287 1.409 . S
C288 C289 1.380 . S
C288 H306 0.930 . S
C289 C288 1.380 . S
C289 C296 1.357 . S
C290 C281 1.511 . S
C290 C291 1.341 . S
C290 C292 1.371 . S
C291 C290 1.341 . S
C291 C295 1.394 . S
C291 H307 0.930 1_554 S
C292 C290 1.371 . S
C292 C293 1.392 . S
C292 H308 0.931 . S
C293 C292 1.392 . S
C293 C294 1.331 . S
C293 H311 0.932 . S
C294 C293 1.331 . S
C294 C295 1.336 . S
C295 C291 1.394 . S
C295 C294 1.336 . S
C295 H310 0.929 1_554 S
C296 C286 1.386 . S
C296 C289 1.357 . S
C296 H309 0.928 . S
H297 C273 0.931 . S
H298 C275 0.930 . S
H299 C277 0.929 . S
H300 C278 0.931 . S
H301 C280 0.930 . S
H302 C284 0.931 1_556 S
H303 C282 0.931 . S
H304 C286 0.931 . S
H305 C287 0.929 . S
H306 C288 0.930 . S
H307 C291 0.930 1_556 S
H308 C292 0.931 . S
H309 C296 0.928 . S
H310 C295 0.929 1_556 S
H311 C293 0.932 . S
Eu312 N343 2.657 1_565 S
Eu312 N350 2.609 . S
Eu312 O356 2.558 . S
Eu312 O357 2.612 1_455 S
Eu312 O359 2.339 1_455 S
Eu312 O360 2.563 . S
Eu312 O361 2.419 . S
Eu312 O363 2.380 1_565 S
Eu312 O364 2.432 . S
Eu312 C376 2.848 . S
C313 C316 1.421 1_545 S
C313 C317 1.411 . S
C313 N320 1.377 . S
C314 C316 1.431 . S
C314 C318 1.423 . S
C314 C326 1.392 . S
C315 C317 1.420 1_565 S
C315 C318 1.351 . S
C315 H338 0.931 . S
C316 C313 1.421 1_565 S
C316 C314 1.431 . S
C316 N324 1.359 1_565 S
C317 C313 1.411 . S
C317 C315 1.420 1_545 S
C317 C322 1.395 . S
C318 C314 1.423 . S
C318 C315 1.351 . S
C318 H330 0.930 . S
C319 C321 1.400 . S
C319 C322 1.386 . S
C319 H331 0.930 . S
N320 C313 1.377 . S
N320 C321 1.321 . S
N320 Eu323 2.609 . S
C321 C319 1.400 . S
C321 N320 1.321 . S
C321 H328 0.930 . S
C322 C317 1.395 . S
C322 C319 1.386 . S
C322 H341 0.930 . S
Eu323 N320 2.609 . S
Eu323 N324 2.657 . S
Eu323 O357 2.380 1_545 S
Eu323 O358 2.432 . S
Eu323 O362 2.558 . S
Eu323 O363 2.612 1_655 S
Eu323 O365 2.339 1_655 S
Eu323 O366 2.563 1_655 S
Eu323 O367 2.419 . S
Eu323 C387 2.848 . S
N324 C316 1.359 1_545 S
N324 Eu323 2.657 . S
N324 C325 1.334 1_645 S
C325 N324 1.334 1_465 S
C325 C327 1.413 . S
C325 H332 0.929 . S
C326 C314 1.392 . S
C326 C327 1.367 1_655 S
C326 H334 0.930 . S
C327 C325 1.413 . S
C327 C326 1.367 1_455 S
C327 H329 0.930 . S
H328 C321 0.930 . S
H329 C327 0.930 . S
H330 C318 0.930 . S
H331 C319 0.930 . S
H332 C325 0.929 . S
H333 C347 0.930 1_655 S
H334 C326 0.930 . S
H335 C353 0.930 . S
H336 C344 0.929 1_655 S
H337 C351 0.930 . S
H338 C315 0.931 . S
H339 C345 0.930 . S
H340 C378 0.930 . S
H341 C322 0.930 . S
H342 C377 0.931 . S
N343 Eu312 2.657 1_545 S
N343 C344 1.334 . S
N343 C348 1.362 . S
C344 H336 0.929 1_455 S
C344 N343 1.334 . S
C344 C347 1.413 . S
C345 H339 0.930 . S
C345 C346 1.392 . S
C345 C347 1.367 . S
C346 C345 1.392 . S
C346 C348 1.420 . S
C346 C378 1.423 . S
C347 H333 0.930 1_455 S
C347 C344 1.413 . S
C347 C345 1.367 . S
C348 N343 1.362 . S
C348 C346 1.420 . S
C348 C352 1.429 . S
H349 C354 0.930 . S
N350 Eu312 2.609 . S
N350 C352 1.377 1_565 S
N350 C353 1.321 . S
C351 H337 0.930 . S
C351 C353 1.400 . S
C351 C354 1.386 . S
C352 C348 1.429 . S
C352 N350 1.377 1_545 S
C352 C355 1.411 . S
C353 H335 0.930 . S
C353 N350 1.321 . S
C353 C351 1.400 . S
C354 H349 0.930 . S
C354 C351 1.386 . S
C354 C355 1.395 1_565 S
C355 C352 1.411 . S
C355 C354 1.395 1_545 S
C355 C377 1.420 . S
O356 Eu312 2.558 . S
O356 C376 1.257 . S
O357 Eu312 2.612 1_655 S
O357 Eu323 2.380 1_565 S
O357 C368 1.276 . S
O358 Eu323 2.432 . S
O358 C375 1.264 . S
O359 Eu312 2.339 1_655 S
O359 C375 1.254 1_565 S
O360 Eu312 2.563 . S
O360 C368 1.235 1_455 S
O361 Eu312 2.419 . S
O361 C376 1.249 . S
O362 Eu323 2.558 . S
O362 C387 1.257 . S
O363 Eu312 2.380 1_545 S
O363 Eu323 2.612 1_455 S
O363 C379 1.276 . S
O364 Eu312 2.432 . S
O364 C386 1.264 1_565 S
O365 Eu323 2.339 1_455 S
O365 C386 1.254 . S
O366 Eu323 2.563 1_455 S
O366 C379 1.235 . S
O367 Eu323 2.419 . S
O367 C387 1.249 . S
C368 O357 1.276 . S
C368 O360 1.235 1_655 S
C369 C371 1.393 . S
C369 C373 1.395 . S
C369 C376 1.492 . S
C370 C371 1.392 . S
C370 C372 1.386 . S
C371 C369 1.393 . S
C371 C370 1.392 . S
C371 H388 0.930 1_455 S
C372 C370 1.386 . S
C372 C374 1.395 . S
C372 H389 0.930 . S
C373 C369 1.395 . S
C373 C374 1.379 . S
C373 H390 0.930 . S
C374 C372 1.395 . S
C374 C373 1.379 . S
C374 H391 0.930 . S
C375 O358 1.264 . S
C375 O359 1.254 1_545 S
C376 Eu312 2.848 . S
C376 O356 1.257 . S
C376 O361 1.249 . S
C376 C369 1.492 . S
C377 H342 0.931 . S
C377 C355 1.420 . S
C377 C378 1.351 . S
C378 H340 0.930 . S
C378 C346 1.423 . S
C378 C377 1.351 . S
C379 O363 1.276 . S
C379 O366 1.235 . S
C380 C381 1.393 . S
C380 C384 1.395 . S
C380 C387 1.492 . S
C381 C380 1.393 . S
C381 C382 1.392 . S
C381 H392 0.930 1_655 S
C382 C381 1.392 . S
C382 C383 1.386 . S
C383 C382 1.386 . S
C383 C385 1.395 . S
C383 H393 0.930 . S
C384 C380 1.395 . S
C384 C385 1.379 . S
C384 H394 0.930 . S
C385 C383 1.395 . S
C385 C384 1.379 . S
C385 H395 0.930 . S
C386 O364 1.264 1_545 S
C386 O365 1.254 . S
C387 Eu323 2.848 . S
C387 O362 1.257 . S
C387 O367 1.249 . S
C387 C380 1.492 . S
H388 C371 0.930 1_655 S
H389 C372 0.930 . S
H390 C373 0.930 . S
H391 C374 0.930 . S
H392 C381 0.930 1_455 S
H393 C383 0.930 . S
H394 C384 0.930 . S
H395 C385 0.930 . S
Eu396 N427 2.657 . S
Eu396 N434 2.609 . S
Eu396 O440 2.558 . S
Eu396 O441 2.612 1_545 S
Eu396 O443 2.339 1_545 S
Eu396 O444 2.563 . S
Eu396 O445 2.419 . S
Eu396 O447 2.380 . S
Eu396 O448 2.432 . S
Eu396 C460 2.848 . S
C397 C400 1.429 . S
C397 C401 1.411 . S
C397 N404 1.377 . S
C398 C400 1.420 . S
C398 C402 1.423 . S
C398 C410 1.392 . S
C399 C401 1.420 . S
C399 C402 1.351 . S
C399 H422 0.931 . S
C400 C397 1.429 . S
C400 C398 1.420 . S
C400 N408 1.362 . S
C401 C397 1.411 . S
C401 C399 1.420 . S
C401 C406 1.395 . S
C402 C398 1.423 . S
C402 C399 1.351 . S
C402 H414 0.930 . S
C403 C405 1.400 . S
C403 C406 1.386 . S
C403 H415 0.930 . S
N404 C397 1.377 . S
N404 C405 1.321 . S
N404 Eu407 2.609 . S
C405 C403 1.400 . S
C405 N404 1.321 . S
C405 H412 0.930 . S
C406 C401 1.395 . S
C406 C403 1.386 . S
C406 H425 0.930 . S
Eu407 N404 2.609 . S
Eu407 N408 2.657 . S
Eu407 O441 2.380 . S
Eu407 O442 2.432 . S
Eu407 O446 2.558 . S
Eu407 O447 2.612 1_565 S
Eu407 O449 2.339 1_565 S
Eu407 O450 2.563 1_565 S
Eu407 O451 2.419 . S
Eu407 C471 2.848 . S
N408 C400 1.362 . S
N408 Eu407 2.657 . S
N408 C409 1.334 1_565 S
C409 N408 1.334 1_545 S
C409 C411 1.413 . S
C409 H416 0.929 . S
C410 C398 1.392 . S
C410 C411 1.367 1_565 S
C410 H418 0.930 . S
C411 C409 1.413 . S
C411 C410 1.367 1_545 S
C411 H413 0.930 . S
H412 C405 0.930 . S
H413 C411 0.930 . S
H414 C402 0.930 . S
H415 C403 0.930 . S
H416 C409 0.929 . S
H417 C431 0.930 1_565 S
H418 C410 0.930 . S
H419 C437 0.930 . S
H420 C428 0.929 1_565 S
H421 C435 0.930 . S
H422 C399 0.931 . S
H423 C429 0.930 . S
H424 C462 0.930 . S
H425 C406 0.930 . S
H426 C461 0.931 . S
N427 Eu396 2.657 . S
N427 C428 1.334 . S
N427 C432 1.362 . S
C428 H420 0.929 1_545 S
C428 N427 1.334 . S
C428 C431 1.413 . S
C429 H423 0.930 . S
C429 C430 1.392 . S
C429 C431 1.367 . S
C430 C429 1.392 . S
C430 C432 1.420 . S
C430 C462 1.423 . S
C431 H417 0.930 1_545 S
C431 C428 1.413 . S
C431 C429 1.367 . S
C432 N427 1.362 . S
C432 C430 1.420 . S
C432 C436 1.429 . S
H433 C438 0.930 . S
N434 Eu396 2.609 . S
N434 C436 1.377 . S
N434 C437 1.321 . S
C435 H421 0.930 . S
C435 C437 1.400 . S
C435 C438 1.386 . S
C436 C432 1.429 . S
C436 N434 1.377 . S
C436 C439 1.411 . S
C437 H419 0.930 . S
C437 N434 1.321 . S
C437 C435 1.400 . S
C438 H433 0.930 . S
C438 C435 1.386 . S
C438 C439 1.395 . S
C439 C436 1.411 . S
C439 C438 1.395 . S
C439 C461 1.420 . S
O440 Eu396 2.558 . S
O440 C460 1.257 . S
O441 Eu396 2.612 1_565 S
O441 Eu407 2.380 . S
O441 C452 1.276 . S
O442 Eu407 2.432 . S
O442 C459 1.264 . S
O443 Eu396 2.339 1_565 S
O443 C459 1.254 . S
O444 Eu396 2.563 . S
O444 C452 1.235 1_545 S
O445 Eu396 2.419 . S
O445 C460 1.249 . S
O446 Eu407 2.558 . S
O446 C471 1.257 . S
O447 Eu396 2.380 . S
O447 Eu407 2.612 1_545 S
O447 C463 1.276 . S
O448 Eu396 2.432 . S
O448 C470 1.264 . S
O449 Eu407 2.339 1_545 S
O449 C470 1.254 . S
O450 Eu407 2.563 1_545 S
O450 C463 1.235 . S
O451 Eu407 2.419 . S
O451 C471 1.249 . S
C452 O441 1.276 . S
C452 O444 1.235 1_565 S
C453 C455 1.393 . S
C453 C457 1.395 . S
C453 C460 1.492 . S
C454 C455 1.392 . S
C454 C456 1.386 . S
C455 C453 1.393 . S
C455 C454 1.392 . S
C455 H472 0.946 . S
C456 C454 1.386 . S
C456 C458 1.395 . S
C456 H473 0.930 . S
C457 C453 1.395 . S
C457 C458 1.379 . S
C457 H474 0.930 . S
C458 C456 1.395 . S
C458 C457 1.379 . S
C458 H475 0.930 . S
C459 O442 1.264 . S
C459 O443 1.254 . S
C460 Eu396 2.848 . S
C460 O440 1.257 . S
C460 O445 1.249 . S
C460 C453 1.492 . S
C461 H426 0.931 . S
C461 C439 1.420 . S
C461 C462 1.351 . S
C462 H424 0.930 . S
C462 C430 1.423 . S
C462 C461 1.351 . S
C463 O447 1.276 . S
C463 O450 1.235 . S
C464 C465 1.431 . S
C464 C468 1.395 . S
C464 C471 1.492 . S
C465 C464 1.431 . S
C465 C466 1.396 . S
C465 H476 0.888 1_565 S
C466 C465 1.396 . S
C466 C467 1.386 . S
C467 C466 1.386 . S
C467 C469 1.395 . S
C467 H477 0.930 . S
C468 C464 1.395 . S
C468 C469 1.379 . S
C468 H478 0.930 . S
C469 C467 1.395 . S
C469 C468 1.379 . S
C469 H479 0.930 . S
C470 O448 1.264 . S
C470 O449 1.254 . S
C471 Eu407 2.848 . S
C471 O446 1.257 . S
C471 O451 1.249 . S
C471 C464 1.492 . S
H472 C455 0.946 . S
H473 C456 0.930 . S
H474 C457 0.930 . S
H475 C458 0.930 . S
H476 C465 0.888 1_545 S
H477 C467 0.930 . S
H478 C468 0.930 . S
H479 C469 0.930 . S
Eu480 N511 2.657 . S
Eu480 N518 2.609 . S
Eu480 O524 2.558 . S
Eu480 O525 2.612 . S
Eu480 O527 2.339 . S
Eu480 O528 2.563 . S
Eu480 O529 2.419 . S
Eu480 O531 2.380 . S
Eu480 O532 2.432 . S
Eu480 C544 2.848 . S
C481 C484 1.429 . S
C481 C485 1.411 . S
C481 N488 1.377 . S
C482 C484 1.420 . S
C482 C486 1.423 . S
C482 C494 1.392 . S
C483 C485 1.420 . S
C483 C486 1.351 . S
C483 H506 0.931 . S
C484 C481 1.429 . S
C484 C482 1.420 . S
C484 N492 1.362 . S
C485 C481 1.411 . S
C485 C483 1.420 . S
C485 C490 1.395 . S
C486 C482 1.423 . S
C486 C483 1.351 . S
C486 H498 0.930 . S
C487 C489 1.400 . S
C487 C490 1.386 . S
C487 H499 0.930 . S
N488 C481 1.377 . S
N488 C489 1.321 . S
N488 Eu491 2.609 . S
C489 C487 1.400 . S
C489 N488 1.321 . S
C489 H496 0.930 . S
C490 C485 1.395 . S
C490 C487 1.386 . S
C490 H509 0.930 . S
Eu491 N488 2.609 . S
Eu491 N492 2.657 . S
Eu491 O525 2.380 . S
Eu491 O526 2.432 . S
Eu491 O530 2.558 . S
Eu491 O531 2.612 . S
Eu491 O533 2.339 . S
Eu491 O534 2.563 . S
Eu491 O535 2.419 . S
Eu491 C555 2.848 . S
N492 C484 1.362 . S
N492 Eu491 2.657 . S
N492 C493 1.334 . S
C493 N492 1.334 . S
C493 C495 1.413 . S
C493 H500 0.929 . S
C494 C482 1.392 . S
C494 C495 1.367 . S
C494 H502 0.930 . S
C495 C493 1.413 . S
C495 C494 1.367 . S
C495 H497 0.930 . S
H496 C489 0.930 . S
H497 C495 0.930 . S
H498 C486 0.930 . S
H499 C487 0.930 . S
H500 C493 0.929 . S
H501 C515 0.930 . S
H502 C494 0.930 . S
H503 C521 0.930 . S
H504 C512 0.929 . S
H505 C519 0.930 . S
H506 C483 0.931 . S
H507 C513 0.930 . S
H508 C546 0.930 . S
H509 C490 0.930 . S
H510 C545 0.931 . S
N511 Eu480 2.657 . S
N511 C512 1.334 . S
N511 C516 1.362 . S
C512 H504 0.929 . S
C512 N511 1.334 . S
C512 C515 1.413 . S
C513 H507 0.930 . S
C513 C514 1.392 . S
C513 C515 1.367 . S
C514 C513 1.392 . S
C514 C516 1.420 . S
C514 C546 1.423 . S
C515 H501 0.930 . S
C515 C512 1.413 . S
C515 C513 1.367 . S
C516 N511 1.362 . S
C516 C514 1.420 . S
C516 C520 1.429 . S
H517 C522 0.930 . S
N518 Eu480 2.609 . S
N518 C520 1.377 . S
N518 C521 1.321 . S
C519 H505 0.930 . S
C519 C521 1.400 . S
C519 C522 1.386 . S
C520 C516 1.429 . S
C520 N518 1.377 . S
C520 C523 1.411 . S
C521 H503 0.930 . S
C521 N518 1.321 . S
C521 C519 1.400 . S
C522 H517 0.930 . S
C522 C519 1.386 . S
C522 C523 1.395 . S
C523 C520 1.411 . S
C523 C522 1.395 . S
C523 C545 1.420 . S
O524 Eu480 2.558 . S
O524 C544 1.257 . S
O525 Eu480 2.612 . S
O525 Eu491 2.380 . S
O525 C536 1.276 . S
O526 Eu491 2.432 . S
O526 C543 1.264 . S
O527 Eu480 2.339 . S
O527 C543 1.254 . S
O528 Eu480 2.563 . S
O528 C536 1.235 . S
O529 Eu480 2.419 . S
O529 C544 1.249 . S
O530 Eu491 2.558 . S
O530 C555 1.257 . S
O531 Eu480 2.380 . S
O531 Eu491 2.612 . S
O531 C547 1.276 . S
O532 Eu480 2.432 . S
O532 C554 1.264 . S
O533 Eu491 2.339 . S
O533 C554 1.254 . S
O534 Eu491 2.563 . S
O534 C547 1.235 . S
O535 Eu491 2.419 . S
O535 C555 1.249 . S
C536 O525 1.276 . S
C536 O528 1.235 . S
C537 C539 1.393 . S
C537 C541 1.395 . S
C537 C544 1.492 . S
C538 C539 1.392 . S
C538 C540 1.386 . S
C539 C537 1.393 . S
C539 C538 1.392 . S
C539 H556 0.930 . S
C540 C538 1.386 . S
C540 C542 1.395 . S
C540 H557 0.930 . S
C541 C537 1.395 . S
C541 C542 1.379 . S
C541 H558 0.930 . S
C542 C540 1.395 . S
C542 C541 1.379 . S
C542 H559 0.930 . S
C543 O526 1.264 . S
C543 O527 1.254 . S
C544 Eu480 2.848 . S
C544 O524 1.257 . S
C544 O529 1.249 . S
C544 C537 1.492 . S
C545 H510 0.931 . S
C545 C523 1.420 . S
C545 C546 1.351 . S
C546 H508 0.930 . S
C546 C514 1.423 . S
C546 C545 1.351 . S
C547 O531 1.276 . S
C547 O534 1.235 . S
C548 C549 1.393 . S
C548 C552 1.395 . S
C548 C555 1.492 . S
C549 C548 1.393 . S
C549 C550 1.392 . S
C549 H560 0.930 . S
C550 C549 1.392 . S
C550 C551 1.386 . S
C551 C550 1.386 . S
C551 C553 1.395 . S
C551 H561 0.930 . S
C552 C548 1.395 . S
C552 C553 1.379 . S
C552 H562 0.930 . S
C553 C551 1.395 . S
C553 C552 1.379 . S
C553 H563 0.930 . S
C554 O532 1.264 . S
C554 O533 1.254 . S
C555 Eu491 2.848 . S
C555 O530 1.257 . S
C555 O535 1.249 . S
C555 C548 1.492 . S
H556 C539 0.930 . S
H557 C540 0.930 . S
H558 C541 0.930 . S
H559 C542 0.930 . S
H560 C549 0.930 . S
H561 C551 0.930 . S
H562 C552 0.930 . S
H563 C553 0.930 . S
Eu564 N595 2.657 . S
Eu564 N602 2.609 . S
Eu564 O608 2.558 . S
Eu564 O609 2.612 . S
Eu564 O611 2.339 . S
Eu564 O612 2.563 . S
Eu564 O613 2.419 . S
Eu564 O615 2.380 . S
Eu564 O616 2.432 1_455 S
Eu564 C628 2.848 . S
C565 C568 1.429 . S
C565 C569 1.411 . S
C565 N572 1.377 . S
C566 C568 1.420 . S
C566 C570 1.423 . S
C566 C578 1.392 . S
C567 C569 1.420 . S
C567 C570 1.351 . S
C567 H590 0.931 . S
C568 C565 1.429 . S
C568 C566 1.420 . S
C568 N576 1.362 . S
C569 C565 1.411 . S
C569 C567 1.420 . S
C569 C574 1.395 . S
C570 C566 1.423 . S
C570 C567 1.351 . S
C570 H582 0.930 . S
C571 C573 1.400 . S
C571 C574 1.386 1_455 S
C571 H583 0.930 . S
N572 C565 1.377 . S
N572 C573 1.321 1_655 S
N572 Eu575 2.609 . S
C573 C571 1.400 . S
C573 N572 1.321 1_455 S
C573 H580 0.930 . S
C574 C569 1.395 . S
C574 C571 1.386 1_655 S
C574 H593 0.930 . S
Eu575 N572 2.609 . S
Eu575 N576 2.657 . S
Eu575 O609 2.380 1_655 S
Eu575 O610 2.432 1_655 S
Eu575 O614 2.558 . S
Eu575 O615 2.612 1_655 S
Eu575 O617 2.339 . S
Eu575 O618 2.563 . S
Eu575 O619 2.419 . S
Eu575 C639 2.848 . S
N576 C568 1.362 . S
N576 Eu575 2.657 . S
N576 C577 1.334 . S
C577 N576 1.334 . S
C577 C579 1.413 . S
C577 H584 0.929 . S
C578 C566 1.392 . S
C578 C579 1.367 . S
C578 H586 0.930 . S
C579 C577 1.413 . S
C579 C578 1.367 . S
C579 H581 0.930 . S
H580 C573 0.930 . S
H581 C579 0.930 . S
H582 C570 0.930 . S
H583 C571 0.930 . S
H584 C577 0.929 . S
H585 C599 0.930 . S
H586 C578 0.930 . S
H587 C605 0.906 1_655 S
H588 C596 0.929 . S
H589 C603 0.930 1_655 S
H590 C567 0.931 . S
H591 C597 0.930 . S
H592 C630 0.930 . S
H593 C574 0.930 . S
H594 C629 0.931 . S
N595 Eu564 2.657 . S
N595 C596 1.334 . S
N595 C600 1.362 . S
C596 H588 0.929 . S
C596 N595 1.334 . S
C596 C599 1.413 . S
C597 H591 0.930 . S
C597 C598 1.392 . S
C597 C599 1.367 . S
C598 C597 1.392 . S
C598 C600 1.420 . S
C598 C630 1.423 . S
C599 H585 0.930 . S
C599 C596 1.413 . S
C599 C597 1.367 . S
C600 N595 1.362 . S
C600 C598 1.420 . S
C600 C604 1.429 . S
H601 C606 0.930 . S
N602 Eu564 2.609 . S
N602 C604 1.377 . S
N602 C605 1.321 . S
C603 H589 0.930 1_455 S
C603 C605 1.400 . S
C603 C606 1.386 . S
C604 C600 1.429 . S
C604 N602 1.377 . S
C604 C607 1.411 . S
C605 H587 0.906 1_455 S
C605 N602 1.321 . S
C605 C603 1.400 . S
C606 H601 0.930 . S
C606 C603 1.386 . S
C606 C607 1.395 . S
C607 C604 1.411 . S
C607 C606 1.395 . S
C607 C629 1.420 . S
O608 Eu564 2.558 . S
O608 C628 1.257 . S
O609 Eu564 2.612 . S
O609 Eu575 2.380 1_455 S
O609 C620 1.276 . S
O610 Eu575 2.432 1_455 S
O610 C627 1.264 . S
O611 Eu564 2.339 . S
O611 C627 1.254 . S
O612 Eu564 2.563 . S
O612 C620 1.235 . S
O613 Eu564 2.419 . S
O613 C628 1.249 . S
O614 Eu575 2.558 . S
O614 C639 1.257 . S
O615 Eu564 2.380 . S
O615 Eu575 2.612 1_455 S
O615 C631 1.276 1_455 S
O616 Eu564 2.432 1_655 S
O616 C638 1.264 . S
O617 Eu575 2.339 . S
O617 C638 1.254 . S
O618 Eu575 2.563 . S
O618 C631 1.235 . S
O619 Eu575 2.419 . S
O619 C639 1.249 . S
C620 O609 1.276 . S
C620 O612 1.235 . S
C621 C623 1.393 . S
C621 C625 1.395 . S
C621 C628 1.492 . S
C622 C623 1.392 . S
C622 C624 1.386 . S
C623 C621 1.393 . S
C623 C622 1.392 . S
C623 H640 0.930 . S
C624 C622 1.386 . S
C624 C626 1.395 . S
C624 H641 0.930 . S
C625 C621 1.395 . S
C625 C626 1.379 . S
C625 H642 0.930 . S
C626 C624 1.395 . S
C626 C625 1.379 . S
C626 H643 0.930 . S
C627 O610 1.264 . S
C627 O611 1.254 . S
C628 Eu564 2.848 . S
C628 O608 1.257 . S
C628 O613 1.249 . S
C628 C621 1.492 . S
C629 H594 0.931 . S
C629 C607 1.420 . S
C629 C630 1.351 . S
C630 H592 0.930 . S
C630 C598 1.423 . S
C630 C629 1.351 . S
C631 O615 1.276 1_655 S
C631 O618 1.235 . S
C632 C633 1.393 . S
C632 C636 1.395 . S
C632 C639 1.492 . S
C633 C632 1.393 . S
C633 C634 1.392 . S
C633 H644 0.930 . S
C634 C633 1.392 . S
C634 C635 1.386 . S
C635 C634 1.386 . S
C635 C637 1.395 . S
C635 H645 0.930 . S
C636 C632 1.395 . S
C636 C637 1.379 . S
C636 H646 0.930 . S
C637 C635 1.395 . S
C637 C636 1.379 . S
C637 H647 0.930 . S
C638 O616 1.264 . S
C638 O617 1.254 . S
C639 Eu575 2.848 . S
C639 O614 1.257 . S
C639 O619 1.249 . S
C639 C632 1.492 . S
H640 C623 0.930 . S
H641 C624 0.930 . S
H642 C625 0.930 . S
H643 C626 0.930 . S
H644 C633 0.930 . S
H645 C635 0.930 . S
H646 C636 0.930 . S
H647 C637 0.930 . S
H648 C656 0.929 . S
H649 C658 0.930 . S
H650 C660 0.930 . S
H651 C663 0.929 . S
H652 C666 0.930 . S
H653 C668 0.960 . S
H654 C668 0.960 . S
H655 C668 0.960 . S
C656 H648 0.929 . S
C656 C657 1.377 . S
C656 C658 1.384 . S
C657 C656 1.377 . S
C657 C663 1.390 . S
C658 H649 0.930 . S
C658 C656 1.384 . S
C658 C659 1.372 . S
C659 C658 1.372 . S
C659 C660 1.400 . S
C659 C664 1.490 . S
C660 H650 0.930 . S
C660 C659 1.400 . S
C660 C663 1.386 . S
H661 C677 0.930 . S
H662 C678 0.931 . S
C663 H651 0.929 . S
C663 C657 1.390 . S
C663 C660 1.386 . S
C664 C659 1.490 . S
C664 C666 1.395 . S
C664 C667 1.403 . S
H665 C671 0.930 . S
C666 H652 0.930 . S
C666 C664 1.395 . S
C666 C669 1.403 . S
C667 C664 1.403 . S
C667 C668 1.524 . S
C667 C671 1.400 . S
C668 H653 0.960 . S
C668 H654 0.960 . S
C668 H655 0.960 . S
C668 C667 1.524 . S
C669 C666 1.403 . S
C669 C670 1.392 . S
C669 C673 1.495 . S
C670 C669 1.392 . S
C670 C671 1.385 . S
C670 C672 1.478 . S
C671 H665 0.930 . S
C671 C667 1.400 . S
C671 C670 1.385 . S
C672 C670 1.478 . S
C672 C674 1.381 . S
C672 C678 1.383 . S
C673 C669 1.495 . S
C673 H679 0.959 . S
C673 H680 0.961 . S
C673 H681 0.960 . S
C674 C672 1.381 . S
C674 C675 1.394 . S
C674 H682 0.930 . S
C675 C674 1.394 . S
C675 C676 1.383 . S
C675 H683 0.929 . S
C676 C675 1.383 . S
C676 C677 1.377 . S
C677 H661 0.930 . S
C677 C676 1.377 . S
C677 C678 1.379 . S
C678 H662 0.931 . S
C678 C672 1.383 . S
C678 C677 1.379 . S
H679 C673 0.959 . S
H680 C673 0.961 . S
H681 C673 0.960 . S
H682 C674 0.930 . S
H683 C675 0.929 . S
H684 C692 0.929 . S
H685 C694 0.930 . S
H686 C696 0.930 . S
H687 C699 0.929 . S
H688 C702 0.930 . S
H689 C704 0.960 . S
H690 C704 0.960 . S
H691 C704 0.960 . S
C692 H684 0.929 . S
C692 C693 1.377 . S
C692 C694 1.384 . S
C693 C692 1.377 . S
C693 C699 1.390 . S
C694 H685 0.930 . S
C694 C692 1.384 . S
C694 C695 1.372 . S
C695 C694 1.372 . S
C695 C696 1.400 . S
C695 C700 1.490 . S
C696 H686 0.930 . S
C696 C695 1.400 . S
C696 C699 1.386 . S
H697 C713 0.930 . S
H698 C714 0.931 . S
C699 H687 0.929 . S
C699 C693 1.390 . S
C699 C696 1.386 . S
C700 C695 1.490 . S
C700 C702 1.395 . S
C700 C703 1.403 . S
H701 C707 0.930 . S
C702 H688 0.930 . S
C702 C700 1.395 . S
C702 C705 1.403 . S
C703 C700 1.403 . S
C703 C704 1.524 . S
C703 C707 1.400 . S
C704 H689 0.960 . S
C704 H690 0.960 . S
C704 H691 0.960 . S
C704 C703 1.524 . S
C705 C702 1.403 . S
C705 C706 1.392 . S
C705 C709 1.495 . S
C706 C705 1.392 . S
C706 C707 1.385 . S
C706 C708 1.478 . S
C707 H701 0.930 . S
C707 C703 1.400 . S
C707 C706 1.385 . S
C708 C706 1.478 . S
C708 C710 1.381 . S
C708 C714 1.383 . S
C709 C705 1.495 . S
C709 H715 0.959 . S
C709 H716 0.961 . S
C709 H717 0.960 . S
C710 C708 1.381 . S
C710 C711 1.394 . S
C710 H718 0.930 . S
C711 C710 1.394 . S
C711 C712 1.383 . S
C711 H719 0.929 . S
C712 C711 1.383 . S
C712 C713 1.377 . S
C713 H697 0.930 . S
C713 C712 1.377 . S
C713 C714 1.379 . S
C714 H698 0.931 . S
C714 C708 1.383 . S
C714 C713 1.379 . S
H715 C709 0.959 . S
H716 C709 0.961 . S
H717 C709 0.960 . S
H718 C710 0.930 . S
H719 C711 0.929 . S
H720 C728 0.929 . S
H721 C730 0.930 . S
H722 C732 0.930 . S
H723 C735 0.929 . S
H724 C738 0.930 . S
H725 C740 0.960 . S
H726 C740 0.960 . S
H727 C740 0.960 . S
C728 H720 0.929 . S
C728 C729 1.377 . S
C728 C730 1.384 . S
C729 C728 1.377 . S
C729 C735 1.390 . S
C730 H721 0.930 . S
C730 C728 1.384 . S
C730 C731 1.372 . S
C731 C730 1.372 . S
C731 C732 1.400 . S
C731 C736 1.490 . S
C732 H722 0.930 . S
C732 C731 1.400 . S
C732 C735 1.386 . S
H733 C749 0.930 . S
H734 C750 0.931 . S
C735 H723 0.929 . S
C735 C729 1.390 . S
C735 C732 1.386 . S
C736 C731 1.490 . S
C736 C738 1.395 . S
C736 C739 1.403 . S
H737 C743 0.930 . S
C738 H724 0.930 . S
C738 C736 1.395 . S
C738 C741 1.403 . S
C739 C736 1.403 . S
C739 C740 1.524 . S
C739 C743 1.400 . S
C740 H725 0.960 . S
C740 H726 0.960 . S
C740 H727 0.960 . S
C740 C739 1.524 . S
C741 C738 1.403 . S
C741 C742 1.392 . S
C741 C745 1.495 . S
C742 C741 1.392 . S
C742 C743 1.385 . S
C742 C744 1.478 . S
C743 H737 0.930 . S
C743 C739 1.400 . S
C743 C742 1.385 . S
C744 C742 1.478 . S
C744 C746 1.381 . S
C744 C750 1.383 . S
C745 C741 1.495 . S
C745 H751 0.959 . S
C745 H752 0.961 . S
C745 H753 0.960 . S
C746 C744 1.381 . S
C746 C747 1.394 . S
C746 H754 0.930 . S
C747 C746 1.394 . S
C747 C748 1.383 . S
C747 H755 0.929 . S
C748 C747 1.383 . S
C748 C749 1.377 . S
C749 H733 0.930 . S
C749 C748 1.377 . S
C749 C750 1.379 . S
C750 H734 0.931 . S
C750 C744 1.383 . S
C750 C749 1.379 . S
H751 C745 0.959 . S
H752 C745 0.961 . S
H753 C745 0.960 . S
H754 C746 0.930 . S
H755 C747 0.929 . S
H756 C764 0.929 . S
H757 C766 0.930 . S
H758 C768 0.930 . S
H759 C771 0.929 . S
H760 C774 0.930 . S
H761 C776 0.960 . S
H762 C776 0.960 . S
H763 C776 0.960 . S
C764 H756 0.929 . S
C764 C765 1.377 . S
C764 C766 1.384 . S
C765 C764 1.377 . S
C765 C771 1.390 . S
C766 H757 0.930 . S
C766 C764 1.384 . S
C766 C767 1.372 . S
C767 C766 1.372 . S
C767 C768 1.400 . S
C767 C772 1.490 . S
C768 H758 0.930 . S
C768 C767 1.400 . S
C768 C771 1.386 . S
H769 C785 0.930 1_655 S
H770 C786 0.931 . S
C771 H759 0.929 . S
C771 C765 1.390 . S
C771 C768 1.386 . S
C772 C767 1.490 . S
C772 C774 1.395 . S
C772 C775 1.403 . S
H773 C779 0.930 . S
C774 H760 0.930 . S
C774 C772 1.395 . S
C774 C777 1.403 . S
C775 C772 1.403 . S
C775 C776 1.524 . S
C775 C779 1.400 . S
C776 H761 0.960 . S
C776 H762 0.960 . S
C776 H763 0.960 . S
C776 C775 1.524 . S
C777 C774 1.403 . S
C777 C778 1.392 . S
C777 C781 1.495 . S
C778 C777 1.392 . S
C778 C779 1.385 . S
C778 C780 1.478 . S
C779 H773 0.930 . S
C779 C775 1.400 . S
C779 C778 1.385 . S
C780 C778 1.478 . S
C780 C782 1.381 . S
C780 C786 1.383 . S
C781 C777 1.495 . S
C781 H787 0.959 . S
C781 H788 0.961 . S
C781 H789 0.960 . S
C782 C780 1.381 . S
C782 C783 1.394 . S
C782 H790 0.930 . S
C783 C782 1.394 . S
C783 C784 1.383 . S
C783 H791 0.929 . S
C784 C783 1.383 . S
C784 C785 1.377 . S
C785 H769 0.930 1_455 S
C785 C784 1.377 . S
C785 C786 1.379 . S
C786 H770 0.931 . S
C786 C780 1.383 . S
C786 C785 1.379 . S
H787 C781 0.959 . S
H788 C781 0.961 . S
H789 C781 0.960 . S
H790 C782 0.930 . S
H791 C783 0.929 . S
H792 C800 0.929 . S
H793 C802 0.930 . S
H794 C804 0.930 . S
H795 C807 0.929 . S
H796 C810 0.930 . S
H797 C812 0.960 . S
H798 C812 0.960 . S
H799 C812 0.960 . S
C800 H792 0.929 . S
C800 C801 1.377 1_556 S
C800 C802 1.384 . S
C801 C800 1.377 1_554 S
C801 C807 1.390 . S
C802 H793 0.930 . S
C802 C800 1.384 . S
C802 C803 1.372 . S
C803 C802 1.372 . S
C803 C804 1.400 1_556 S
C803 C808 1.490 . S
C804 H794 0.930 . S
C804 C803 1.400 1_554 S
C804 C807 1.386 . S
H805 C821 0.930 . S
H806 C822 0.931 . S
C807 H795 0.929 . S
C807 C801 1.390 . S
C807 C804 1.386 . S
C808 C803 1.490 . S
C808 C810 1.395 . S
C808 C811 1.403 . S
H809 C815 0.930 . S
C810 H796 0.930 . S
C810 C808 1.395 . S
C810 C813 1.403 . S
C811 C808 1.403 . S
C811 C812 1.524 . S
C811 C815 1.400 . S
C812 H797 0.960 . S
C812 H798 0.960 . S
C812 H799 0.960 . S
C812 C811 1.524 . S
C813 C810 1.403 . S
C813 C814 1.392 . S
C813 C817 1.495 1_565 S
C814 C813 1.392 . S
C814 C815 1.385 . S
C814 C816 1.478 . S
C815 H809 0.930 . S
C815 C811 1.400 . S
C815 C814 1.385 . S
C816 C814 1.478 . S
C816 C818 1.381 . S
C816 C822 1.383 . S
C817 C813 1.495 1_545 S
C817 H823 0.959 . S
C817 H824 0.961 . S
C817 H825 0.960 . S
C818 C816 1.381 . S
C818 C819 1.394 . S
C818 H826 0.930 . S
C819 C818 1.394 . S
C819 C820 1.383 . S
C819 H827 0.929 . S
C820 C819 1.383 . S
C820 C821 1.377 . S
C821 H805 0.930 . S
C821 C820 1.377 . S
C821 C822 1.379 . S
C822 H806 0.931 . S
C822 C816 1.383 . S
C822 C821 1.379 . S
H823 C817 0.959 . S
H824 C817 0.961 . S
H825 C817 0.960 . S
H826 C818 0.930 . S
H827 C819 0.929 . S
H828 C836 0.929 . S
H829 C838 0.930 . S
H830 C840 0.930 . S
H831 C843 0.929 . S
H832 C846 0.930 . S
H833 C848 0.960 . S
H834 C848 0.960 . S
H835 C848 0.960 . S
C836 H828 0.929 . S
C836 C837 1.377 1_556 S
C836 C838 1.384 . S
C837 C836 1.377 1_554 S
C837 C843 1.390 . S
C838 H829 0.930 . S
C838 C836 1.384 . S
C838 C839 1.372 . S
C839 C838 1.372 . S
C839 C840 1.400 . S
C839 C844 1.490 . S
C840 H830 0.930 . S
C840 C839 1.400 . S
C840 C843 1.386 1_556 S
H841 C857 0.930 . S
H842 C858 0.931 . S
C843 H831 0.929 . S
C843 C837 1.390 . S
C843 C840 1.386 1_554 S
C844 C839 1.490 . S
C844 C846 1.395 . S
C844 C847 1.403 . S
H845 C851 0.930 . S
C846 H832 0.930 . S
C846 C844 1.395 . S
C846 C849 1.403 . S
C847 C844 1.403 . S
C847 C848 1.524 . S
C847 C851 1.400 . S
C848 H833 0.960 . S
C848 H834 0.960 . S
C848 H835 0.960 . S
C848 C847 1.524 . S
C849 C846 1.403 . S
C849 C850 1.392 . S
C849 C853 1.495 . S
C850 C849 1.392 . S
C850 C851 1.385 . S
C850 C852 1.478 . S
C851 H845 0.930 . S
C851 C847 1.400 . S
C851 C850 1.385 . S
C852 C850 1.478 . S
C852 C854 1.381 . S
C852 C858 1.383 . S
C853 C849 1.495 . S
C853 H859 0.959 . S
C853 H860 0.961 . S
C853 H861 0.960 . S
C854 C852 1.381 . S
C854 C855 1.394 . S
C854 H862 0.930 . S
C855 C854 1.394 . S
C855 C856 1.383 . S
C855 H863 0.929 . S
C856 C855 1.383 . S
C856 C857 1.377 . S
C857 H841 0.930 . S
C857 C856 1.377 . S
C857 C858 1.379 . S
C858 H842 0.931 . S
C858 C852 1.383 . S
C858 C857 1.379 . S
H859 C853 0.959 . S
H860 C853 0.961 . S
H861 C853 0.960 . S
H862 C854 0.930 . S
H863 C855 0.929 . S
H864 C872 0.929 . S
H865 C874 0.930 1_554 S
H866 C876 0.930 . S
H867 C879 0.929 . S
H868 C882 0.930 . S
H869 C884 0.960 . S
H870 C884 0.960 . S
H871 C884 0.960 . S
C872 H864 0.929 . S
C872 C873 1.377 . S
C872 C874 1.384 1_554 S
C873 C872 1.377 . S
C873 C879 1.390 1_554 S
C874 H865 0.930 1_556 S
C874 C872 1.384 1_556 S
C874 C875 1.372 . S
C875 C874 1.372 . S
C875 C876 1.400 . S
C875 C880 1.490 . S
C876 H866 0.930 . S
C876 C875 1.400 . S
C876 C879 1.386 . S
H877 C893 0.930 . S
H878 C894 0.931 . S
C879 H867 0.929 . S
C879 C873 1.390 1_556 S
C879 C876 1.386 . S
C880 C875 1.490 . S
C880 C882 1.395 . S
C880 C883 1.403 . S
H881 C887 0.930 . S
C882 H868 0.930 . S
C882 C880 1.395 . S
C882 C885 1.403 . S
C883 C880 1.403 . S
C883 C884 1.524 . S
C883 C887 1.400 . S
C884 H869 0.960 . S
C884 H870 0.960 . S
C884 H871 0.960 . S
C884 C883 1.524 . S
C885 C882 1.403 . S
C885 C886 1.392 . S
C885 C889 1.495 . S
C886 C885 1.392 . S
C886 C887 1.385 . S
C886 C888 1.478 . S
C887 H881 0.930 . S
C887 C883 1.400 . S
C887 C886 1.385 . S
C888 C886 1.478 . S
C888 C890 1.381 . S
C888 C894 1.383 . S
C889 C885 1.495 . S
C889 H895 0.959 . S
C889 H896 0.961 . S
C889 H897 0.960 . S
C890 C888 1.381 . S
C890 C891 1.394 . S
C890 H898 0.930 . S
C891 C890 1.394 . S
C891 C892 1.383 . S
C891 H899 0.929 . S
C892 C891 1.383 . S
C892 C893 1.377 . S
C893 H877 0.930 . S
C893 C892 1.377 . S
C893 C894 1.379 . S
C894 H878 0.931 . S
C894 C888 1.383 . S
C894 C893 1.379 . S
H895 C889 0.959 . S
H896 C889 0.961 . S
H897 C889 0.960 . S
H898 C890 0.930 . S
H899 C891 0.929 . S
H900 C908 0.929 . S
H901 C910 0.930 . S
H902 C912 0.930 . S
H903 C915 0.929 . S
H904 C918 0.930 . S
H905 C920 0.960 . S
H906 C920 0.960 . S
H907 C920 0.960 . S
C908 H900 0.929 . S
C908 C909 1.377 . S
C908 C910 1.384 1_554 S
C909 C908 1.377 . S
C909 C915 1.390 . S
C910 H901 0.930 . S
C910 C908 1.384 1_556 S
C910 C911 1.372 . S
C911 C910 1.372 . S
C911 C912 1.400 . S
C911 C916 1.490 . S
C912 H902 0.930 . S
C912 C911 1.400 . S
C912 C915 1.386 1_556 S
H913 C929 0.930 . S
H914 C930 0.931 . S
C915 H903 0.929 . S
C915 C909 1.390 . S
C915 C912 1.386 1_554 S
C916 C911 1.490 . S
C916 C918 1.395 . S
C916 C919 1.403 . S
H917 C923 0.930 . S
C918 H904 0.930 . S
C918 C916 1.395 . S
C918 C921 1.403 . S
C919 C916 1.403 . S
C919 C920 1.524 . S
C919 C923 1.400 . S
C920 H905 0.960 . S
C920 H906 0.960 . S
C920 H907 0.960 . S
C920 C919 1.524 . S
C921 C918 1.403 . S
C921 C922 1.392 . S
C921 C925 1.520 . S
C922 C921 1.392 . S
C922 C923 1.385 . S
C922 C924 1.478 . S
C923 H917 0.930 . S
C923 C919 1.400 . S
C923 C922 1.385 . S
C924 C922 1.478 . S
C924 C926 1.381 . S
C924 C930 1.383 . S
C925 C921 1.520 . S
C925 H931 0.950 1_655 S
C925 H932 0.966 . S
C925 H933 0.941 1_655 S
C926 C924 1.381 . S
C926 C927 1.394 . S
C926 H934 0.897 1_655 S
C927 C926 1.394 . S
C927 C928 1.383 . S
C927 H935 0.929 1_655 S
C928 C927 1.383 . S
C928 C929 1.377 . S
C929 H913 0.930 . S
C929 C928 1.377 . S
C929 C930 1.379 . S
C930 H914 0.931 . S
C930 C924 1.383 . S
C930 C929 1.379 . S
H931 C925 0.950 1_455 S
H932 C925 0.966 . S
H933 C925 0.941 1_455 S
H934 C926 0.897 1_455 S
H935 C927 0.929 1_455 S
H936 C944 0.929 . S
H937 C946 0.930 . S
H938 C948 0.930 . S
H939 C951 0.929 . S
H940 C954 0.930 . S
H941 C956 0.960 . S
H942 C956 0.960 . S
H943 C956 0.960 . S
C944 H936 0.929 . S
C944 C945 1.377 . S
C944 C946 1.384 . S
C945 C944 1.377 . S
C945 C951 1.390 . S
C946 H937 0.930 . S
C946 C944 1.384 . S
C946 C947 1.372 . S
C947 C946 1.372 . S
C947 C948 1.400 . S
C947 C952 1.490 . S
C948 H938 0.930 . S
C948 C947 1.400 . S
C948 C951 1.386 . S
H949 C965 0.930 . S
H950 C966 0.931 . S
C951 H939 0.929 . S
C951 C945 1.390 . S
C951 C948 1.386 . S
C952 C947 1.490 . S
C952 C954 1.395 . S
C952 C955 1.403 . S
H953 C959 0.930 . S
C954 H940 0.930 . S
C954 C952 1.395 . S
C954 C957 1.403 . S
C955 C952 1.403 . S
C955 C956 1.524 . S
C955 C959 1.400 . S
C956 H941 0.960 . S
C956 H942 0.960 . S
C956 H943 0.960 . S
C956 C955 1.524 . S
C957 C954 1.403 . S
C957 C958 1.392 . S
C957 C961 1.489 1_455 S
C958 C957 1.392 . S
C958 C959 1.385 . S
C958 C960 1.478 . S
C959 H953 0.930 . S
C959 C955 1.400 . S
C959 C958 1.385 . S
C960 C958 1.478 . S
C960 C962 1.381 . S
C960 C966 1.383 . S
C961 C957 1.489 1_655 S
C961 H967 0.961 . S
C961 H968 0.964 . S
C961 H969 0.962 . S
C962 C960 1.381 . S
C962 C963 1.420 . S
C962 H970 0.930 . S
C963 C962 1.420 . S
C963 C964 1.389 . S
C963 H971 0.901 1_455 S
C964 C963 1.389 . S
C964 C965 1.377 . S
C965 H949 0.930 . S
C965 C964 1.377 . S
C965 C966 1.379 . S
C966 H950 0.931 . S
C966 C960 1.383 . S
C966 C965 1.379 . S
H967 C961 0.961 . S
H968 C961 0.964 . S
H969 C961 0.962 . S
H970 C962 0.930 . S
H971 C963 0.901 1_655 S
H972 C980 0.929 . S
H973 C982 0.930 . S
H974 C984 0.930 . S
H975 C987 0.929 . S
H976 C990 0.930 . S
H977 C992 0.960 . S
H978 C992 0.960 . S
H979 C992 0.960 . S
C980 H972 0.929 . S
C980 C981 1.377 . S
C980 C982 1.384 . S
C981 C980 1.377 . S
C981 C987 1.390 . S
C982 H973 0.930 . S
C982 C980 1.384 . S
C982 C983 1.372 . S
C983 C982 1.372 . S
C983 C984 1.400 . S
C983 C988 1.490 . S
C984 H974 0.930 . S
C984 C983 1.400 . S
C984 C987 1.386 . S
H985 C1001 0.930 . S
H986 C1002 0.931 . S
C987 H975 0.929 . S
C987 C981 1.390 . S
C987 C984 1.386 . S
C988 C983 1.490 . S
C988 C990 1.395 . S
C988 C991 1.403 . S
H989 C995 0.930 . S
C990 H976 0.930 . S
C990 C988 1.395 . S
C990 C993 1.403 . S
C991 C988 1.403 . S
C991 C992 1.524 . S
C991 C995 1.400 . S
C992 H977 0.960 . S
C992 H978 0.960 . S
C992 H979 0.960 . S
C992 C991 1.524 . S
C993 C990 1.403 . S
C993 C994 1.392 . S
C993 C997 1.495 . S
C994 C993 1.392 . S
C994 C995 1.385 . S
C994 C996 1.478 . S
C995 H989 0.930 . S
C995 C991 1.400 . S
C995 C994 1.385 . S
C996 C994 1.478 . S
C996 C998 1.381 . S
C996 C1002 1.383 . S
C997 C993 1.495 . S
C997 H1003 0.959 . S
C997 H1004 0.961 . S
C997 H1005 0.960 . S
C998 C996 1.381 . S
C998 C999 1.368 1_545 S
C998 H1006 0.930 . S
C999 C998 1.368 1_565 S
C999 C1000 1.369 1_565 S
C999 H1007 0.972 . S
C1000 C999 1.369 1_545 S
C1000 C1001 1.377 . S
C1001 H985 0.930 . S
C1001 C1000 1.377 . S
C1001 C1002 1.379 . S
C1002 H986 0.931 . S
C1002 C996 1.383 . S
C1002 C1001 1.379 . S
H1003 C997 0.959 . S
H1004 C997 0.961 . S
H1005 C997 0.960 . S
H1006 C998 0.930 . S
H1007 C999 0.972 . S
H1008 C1016 0.929 . S
H1009 C1018 0.930 . S
H1010 C1020 0.930 . S
H1011 C1023 0.929 . S
H1012 C1026 0.930 . S
H1013 C1028 0.960 . S
H1014 C1028 0.960 . S
H1015 C1028 0.960 . S
C1016 H1008 0.929 . S
C1016 C1017 1.377 . S
C1016 C1018 1.384 . S
C1017 C1016 1.377 . S
C1017 C1023 1.390 . S
C1018 H1009 0.930 . S
C1018 C1016 1.384 . S
C1018 C1019 1.372 . S
C1019 C1018 1.372 . S
C1019 C1020 1.400 . S
C1019 C1024 1.490 . S
C1020 H1010 0.930 . S
C1020 C1019 1.400 . S
C1020 C1023 1.386 . S
H1021 C1037 0.930 . S
H1022 C1038 0.931 . S
C1023 H1011 0.929 . S
C1023 C1017 1.390 . S
C1023 C1020 1.386 . S
C1024 C1019 1.490 . S
C1024 C1026 1.395 . S
C1024 C1027 1.403 . S
H1025 C1031 0.930 . S
C1026 H1012 0.930 . S
C1026 C1024 1.395 . S
C1026 C1029 1.403 . S
C1027 C1024 1.403 . S
C1027 C1028 1.524 . S
C1027 C1031 1.400 . S
C1028 H1013 0.960 . S
C1028 H1014 0.960 . S
C1028 H1015 0.960 . S
C1028 C1027 1.524 . S
C1029 C1026 1.403 . S
C1029 C1030 1.392 . S
C1029 C1033 1.495 . S
C1030 C1029 1.392 . S
C1030 C1031 1.385 . S
C1030 C1032 1.478 . S
C1031 H1025 0.930 . S
C1031 C1027 1.400 . S
C1031 C1030 1.385 . S
C1032 C1030 1.478 . S
C1032 C1034 1.381 . S
C1032 C1038 1.383 . S
C1033 C1029 1.495 . S
C1033 H1039 0.959 . S
C1033 H1040 0.961 . S
C1033 H1041 0.960 . S
C1034 C1032 1.381 . S
C1034 C1035 1.394 . S
C1034 H1042 0.930 . S
C1035 C1034 1.394 . S
C1035 C1036 1.383 . S
C1035 H1043 0.929 . S
C1036 C1035 1.383 . S
C1036 C1037 1.377 . S
C1037 H1021 0.930 . S
C1037 C1036 1.377 . S
C1037 C1038 1.379 . S
C1038 H1022 0.931 . S
C1038 C1032 1.383 . S
C1038 C1037 1.379 . S
H1039 C1033 0.959 . S
H1040 C1033 0.961 . S
H1041 C1033 0.960 . S
H1042 C1034 0.930 . S
H1043 C1035 0.929 . S
H1044 C1052 0.929 . S
H1045 C1054 0.930 . S
H1046 C1056 0.930 . S
H1047 C1059 0.929 . S
H1048 C1062 0.930 . S
H1049 C1064 0.960 . S
H1050 C1064 0.960 . S
H1051 C1064 0.960 . S
C1052 H1044 0.929 . S
C1052 C1053 1.377 . S
C1052 C1054 1.384 . S
C1053 C1052 1.377 . S
C1053 C1059 1.390 . S
C1054 H1045 0.930 . S
C1054 C1052 1.384 . S
C1054 C1055 1.372 . S
C1055 C1054 1.372 . S
C1055 C1056 1.400 . S
C1055 C1060 1.490 . S
C1056 H1046 0.930 . S
C1056 C1055 1.400 . S
C1056 C1059 1.386 . S
H1057 C1073 0.930 . S
H1058 C1074 0.931 . S
C1059 H1047 0.929 . S
C1059 C1053 1.390 . S
C1059 C1056 1.386 . S
C1060 C1055 1.490 . S
C1060 C1062 1.395 . S
C1060 C1063 1.403 . S
H1061 C1067 0.930 . S
C1062 H1048 0.930 . S
C1062 C1060 1.395 . S
C1062 C1065 1.403 . S
C1063 C1060 1.403 . S
C1063 C1064 1.524 . S
C1063 C1067 1.400 . S
C1064 H1049 0.960 . S
C1064 H1050 0.960 . S
C1064 H1051 0.960 . S
C1064 C1063 1.524 . S
C1065 C1062 1.403 . S
C1065 C1066 1.392 . S
C1065 C1069 1.495 . S
C1066 C1065 1.392 . S
C1066 C1067 1.385 . S
C1066 C1068 1.478 . S
C1067 H1061 0.930 . S
C1067 C1063 1.400 . S
C1067 C1066 1.385 . S
C1068 C1066 1.478 . S
C1068 C1070 1.381 . S
C1068 C1074 1.383 . S
C1069 C1065 1.495 . S
C1069 H1075 0.959 . S
C1069 H1076 0.961 . S
C1069 H1077 0.960 . S
C1070 C1068 1.381 . S
C1070 C1071 1.394 . S
C1070 H1078 0.930 . S
C1071 C1070 1.394 . S
C1071 C1072 1.383 . S
C1071 H1079 0.929 . S
C1072 C1071 1.383 . S
C1072 C1073 1.377 . S
C1073 H1057 0.930 . S
C1073 C1072 1.377 . S
C1073 C1074 1.379 . S
C1074 H1058 0.931 . S
C1074 C1068 1.383 . S
C1074 C1073 1.379 . S
H1075 C1069 0.959 . S
H1076 C1069 0.961 . S
H1077 C1069 0.960 . S
H1078 C1070 0.930 . S
H1079 C1071 0.929 . S
H1080 C1088 0.929 . S
H1081 C1090 0.930 . S
H1082 C1092 0.930 . S
H1083 C1095 0.929 1_554 S
H1084 C1098 0.930 . S
H1085 C1100 0.936 1_455 S
H1086 C1100 0.960 . S
H1087 C1100 0.960 . S
C1088 H1080 0.929 . S
C1088 C1089 1.377 . S
C1088 C1090 1.384 . S
C1089 C1088 1.377 . S
C1089 C1095 1.390 . S
C1090 H1081 0.930 . S
C1090 C1088 1.384 . S
C1090 C1091 1.372 . S
C1091 C1090 1.372 . S
C1091 C1092 1.400 . S
C1091 C1096 1.490 . S
C1092 H1082 0.930 . S
C1092 C1091 1.400 . S
C1092 C1095 1.386 . S
H1093 C1109 0.930 . S
H1094 C1110 0.931 . S
C1095 H1083 0.929 1_556 S
C1095 C1089 1.390 . S
C1095 C1092 1.386 . S
C1096 C1091 1.490 . S
C1096 C1098 1.395 . S
C1096 C1099 1.403 . S
H1097 C1103 0.930 . S
C1098 H1084 0.930 . S
C1098 C1096 1.395 . S
C1098 C1101 1.403 . S
C1099 C1096 1.403 . S
C1099 C1100 1.524 . S
C1099 C1103 1.400 . S
C1100 H1085 0.936 1_655 S
C1100 H1086 0.960 . S
C1100 H1087 0.960 . S
C1100 C1099 1.524 . S
C1101 C1098 1.403 . S
C1101 C1102 1.392 . S
C1101 C1105 1.495 . S
C1102 C1101 1.392 . S
C1102 C1103 1.385 . S
C1102 C1104 1.478 . S
C1103 H1097 0.930 . S
C1103 C1099 1.400 . S
C1103 C1102 1.385 . S
C1104 C1102 1.478 . S
C1104 C1106 1.381 . S
C1104 C1110 1.383 . S
C1105 C1101 1.495 . S
C1105 H1111 0.959 . S
C1105 H1112 0.961 . S
C1105 H1113 0.960 . S
C1106 C1104 1.381 . S
C1106 C1107 1.394 . S
C1106 H1114 0.930 . S
C1107 C1106 1.394 . S
C1107 C1108 1.383 1_655 S
C1107 H1115 0.929 . S
C1108 C1107 1.383 1_455 S
C1108 C1109 1.377 . S
C1109 H1093 0.930 . S
C1109 C1108 1.377 . S
C1109 C1110 1.379 1_455 S
C1110 H1094 0.931 . S
C1110 C1104 1.383 . S
C1110 C1109 1.379 1_655 S
H1111 C1105 0.959 . S
H1112 C1105 0.961 . S
H1113 C1105 0.960 . S
H1114 C1106 0.930 . S
H1115 C1107 0.929 . S
H1116 C1124 0.929 . S
H1117 C1126 0.930 . S
H1118 C1128 0.930 . S
H1119 C1131 0.929 1_554 S
H1120 C1134 0.930 . S
H1121 C1136 0.960 . S
H1122 C1136 0.960 . S
H1123 C1136 0.960 . S
C1124 H1116 0.929 . S
C1124 C1125 1.377 . S
C1124 C1126 1.384 . S
C1125 C1124 1.377 . S
C1125 C1131 1.390 . S
C1126 H1117 0.930 . S
C1126 C1124 1.384 . S
C1126 C1127 1.372 . S
C1127 C1126 1.372 . S
C1127 C1128 1.400 . S
C1127 C1132 1.490 . S
C1128 H1118 0.930 . S
C1128 C1127 1.400 . S
C1128 C1131 1.386 . S
H1129 C1145 0.930 . S
H1130 C1146 0.931 . S
C1131 H1119 0.929 1_556 S
C1131 C1125 1.390 . S
C1131 C1128 1.386 . S
C1132 C1127 1.490 . S
C1132 C1134 1.395 . S
C1132 C1135 1.403 . S
H1133 C1139 0.930 . S
C1134 H1120 0.930 . S
C1134 C1132 1.395 . S
C1134 C1137 1.403 . S
C1135 C1132 1.403 . S
C1135 C1136 1.524 . S
C1135 C1139 1.400 . S
C1136 H1121 0.960 . S
C1136 H1122 0.960 . S
C1136 H1123 0.960 . S
C1136 C1135 1.524 . S
C1137 C1134 1.403 . S
C1137 C1138 1.392 . S
C1137 C1141 1.495 . S
C1138 C1137 1.392 . S
C1138 C1139 1.385 . S
C1138 C1140 1.478 . S
C1139 H1133 0.930 . S
C1139 C1135 1.400 . S
C1139 C1138 1.385 . S
C1140 C1138 1.478 . S
C1140 C1142 1.381 . S
C1140 C1146 1.383 1_565 S
C1141 C1137 1.495 . S
C1141 H1147 0.959 . S
C1141 H1148 0.961 . S
C1141 H1149 0.960 . S
C1142 C1140 1.381 . S
C1142 C1143 1.394 . S
C1142 H1150 0.930 . S
C1143 C1142 1.394 . S
C1143 C1144 1.383 1_565 S
C1143 H1151 0.929 . S
C1144 C1143 1.383 1_545 S
C1144 C1145 1.377 . S
C1145 H1129 0.930 . S
C1145 C1144 1.377 . S
C1145 C1146 1.379 . S
C1146 H1130 0.931 . S
C1146 C1140 1.383 1_545 S
C1146 C1145 1.379 . S
H1147 C1141 0.959 . S
H1148 C1141 0.961 . S
H1149 C1141 0.960 . S
H1150 C1142 0.930 . S
H1151 C1143 0.929 . S
H1152 C1160 0.929 . S
H1153 C1162 0.930 . S
H1154 C1164 0.930 . S
H1155 C1167 0.929 1_554 S
H1156 C1170 0.930 . S
H1157 C1172 0.960 . S
H1158 C1172 0.960 . S
H1159 C1172 0.960 . S
C1160 H1152 0.929 . S
C1160 C1161 1.377 . S
C1160 C1162 1.384 . S
C1161 C1160 1.377 . S
C1161 C1167 1.390 . S
C1162 H1153 0.930 . S
C1162 C1160 1.384 . S
C1162 C1163 1.372 . S
C1163 C1162 1.372 . S
C1163 C1164 1.400 . S
C1163 C1168 1.490 . S
C1164 H1154 0.930 . S
C1164 C1163 1.400 . S
C1164 C1167 1.386 . S
H1165 C1181 0.930 . S
H1166 C1182 0.931 . S
C1167 H1155 0.929 1_556 S
C1167 C1161 1.390 . S
C1167 C1164 1.386 . S
C1168 C1163 1.490 . S
C1168 C1170 1.395 . S
C1168 C1171 1.403 . S
H1169 C1175 0.930 . S
C1170 H1156 0.930 . S
C1170 C1168 1.395 . S
C1170 C1173 1.403 . S
C1171 C1168 1.403 . S
C1171 C1172 1.524 . S
C1171 C1175 1.400 . S
C1172 H1157 0.960 . S
C1172 H1158 0.960 . S
C1172 H1159 0.960 . S
C1172 C1171 1.524 . S
C1173 C1170 1.403 . S
C1173 C1174 1.392 . S
C1173 C1177 1.495 . S
C1174 C1173 1.392 . S
C1174 C1175 1.385 . S
C1174 C1176 1.478 . S
C1175 H1169 0.930 . S
C1175 C1171 1.400 . S
C1175 C1174 1.385 . S
C1176 C1174 1.478 . S
C1176 C1178 1.381 . S
C1176 C1182 1.383 . S
C1177 C1173 1.495 . S
C1177 H1183 0.959 . S
C1177 H1184 0.961 . S
C1177 H1185 0.960 . S
C1178 C1176 1.381 . S
C1178 C1179 1.394 . S
C1178 H1186 0.930 . S
C1179 C1178 1.394 . S
C1179 C1180 1.383 . S
C1179 H1187 0.929 . S
C1180 C1179 1.383 . S
C1180 C1181 1.377 . S
C1181 H1165 0.930 . S
C1181 C1180 1.377 . S
C1181 C1182 1.379 . S
C1182 H1166 0.931 . S
C1182 C1176 1.383 . S
C1182 C1181 1.379 . S
H1183 C1177 0.959 . S
H1184 C1177 0.961 . S
H1185 C1177 0.960 . S
H1186 C1178 0.930 . S
H1187 C1179 0.929 . S
H1188 C1196 0.929 . S
H1189 C1198 0.930 . S
H1190 C1200 0.930 . S
H1191 C1203 0.929 1_554 S
H1192 C1206 0.930 . S
H1193 C1208 0.960 . S
H1194 C1208 0.960 . S
H1195 C1208 0.960 . S
C1196 H1188 0.929 . S
C1196 C1197 1.377 . S
C1196 C1198 1.384 . S
C1197 C1196 1.377 . S
C1197 C1203 1.390 . S
C1198 H1189 0.930 . S
C1198 C1196 1.384 . S
C1198 C1199 1.372 . S
C1199 C1198 1.372 . S
C1199 C1200 1.400 . S
C1199 C1204 1.490 . S
C1200 H1190 0.930 . S
C1200 C1199 1.400 . S
C1200 C1203 1.386 . S
H1201 C1217 0.930 . S
H1202 C1218 0.931 . S
C1203 H1191 0.929 1_556 S
C1203 C1197 1.390 . S
C1203 C1200 1.386 . S
C1204 C1199 1.490 . S
C1204 C1206 1.395 . S
C1204 C1207 1.403 . S
H1205 C1211 0.930 . S
C1206 H1192 0.930 . S
C1206 C1204 1.395 . S
C1206 C1209 1.403 . S
C1207 C1204 1.403 . S
C1207 C1208 1.524 . S
C1207 C1211 1.400 . S
C1208 H1193 0.960 . S
C1208 H1194 0.960 . S
C1208 H1195 0.960 . S
C1208 C1207 1.524 . S
C1209 C1206 1.403 . S
C1209 C1210 1.392 . S
C1209 C1213 1.495 . S
C1210 C1209 1.392 . S
C1210 C1211 1.385 . S
C1210 C1212 1.478 . S
C1211 H1205 0.930 . S
C1211 C1207 1.400 . S
C1211 C1210 1.385 . S
C1212 C1210 1.478 . S
C1212 C1214 1.381 . S
C1212 C1218 1.383 . S
C1213 C1209 1.495 . S
C1213 H1219 0.959 . S
C1213 H1220 0.961 . S
C1213 H1221 0.960 . S
C1214 C1212 1.381 . S
C1214 C1215 1.394 . S
C1214 H1222 0.930 . S
C1215 C1214 1.394 . S
C1215 C1216 1.383 . S
C1215 H1223 0.929 . S
C1216 C1215 1.383 . S
C1216 C1217 1.377 . S
C1217 H1201 0.930 . S
C1217 C1216 1.377 . S
C1217 C1218 1.379 . S
C1218 H1202 0.931 . S
C1218 C1212 1.383 . S
C1218 C1217 1.379 . S
H1219 C1213 0.959 . S
H1220 C1213 0.961 . S
H1221 C1213 0.960 . S
H1222 C1214 0.930 . S
H1223 C1215 0.929 . S
H1224 C1232 0.929 . S
H1225 C1234 0.930 . S
H1226 C1236 0.930 . S
H1227 C1239 0.929 . S
H1228 C1242 0.930 . S
H1229 C1244 0.960 . S
H1230 C1244 0.960 . S
H1231 C1244 0.960 . S
C1232 H1224 0.929 . S
C1232 C1233 1.377 . S
C1232 C1234 1.384 . S
C1233 C1232 1.377 . S
C1233 C1239 1.390 . S
C1234 H1225 0.930 . S
C1234 C1232 1.384 . S
C1234 C1235 1.372 . S
C1235 C1234 1.372 . S
C1235 C1236 1.400 . S
C1235 C1240 1.490 . S
C1236 H1226 0.930 . S
C1236 C1235 1.400 . S
C1236 C1239 1.386 . S
H1237 C1253 0.930 . S
H1238 C1254 0.931 . S
C1239 H1227 0.929 . S
C1239 C1233 1.390 . S
C1239 C1236 1.386 . S
C1240 C1235 1.490 . S
C1240 C1242 1.395 . S
C1240 C1243 1.403 . S
H1241 C1247 0.930 . S
C1242 H1228 0.930 . S
C1242 C1240 1.395 . S
C1242 C1245 1.403 . S
C1243 C1240 1.403 . S
C1243 C1244 1.524 . S
C1243 C1247 1.400 . S
C1244 H1229 0.960 . S
C1244 H1230 0.960 . S
C1244 H1231 0.960 . S
C1244 C1243 1.524 . S
C1245 C1242 1.403 . S
C1245 C1246 1.392 . S
C1245 C1249 1.495 . S
C1246 C1245 1.392 . S
C1246 C1247 1.385 . S
C1246 C1248 1.478 . S
C1247 H1241 0.930 . S
C1247 C1243 1.400 . S
C1247 C1246 1.385 . S
C1248 C1246 1.478 . S
C1248 C1250 1.381 . S
C1248 C1254 1.383 . S
C1249 C1245 1.495 . S
C1249 H1255 0.959 . S
C1249 H1256 0.961 . S
C1249 H1257 0.960 . S
C1250 C1248 1.381 . S
C1250 C1251 1.394 . S
C1250 H1258 0.930 . S
C1251 C1250 1.394 . S
C1251 C1252 1.383 . S
C1251 H1259 0.929 . S
C1252 C1251 1.383 . S
C1252 C1253 1.377 . S
C1253 H1237 0.930 . S
C1253 C1252 1.377 . S
C1253 C1254 1.379 . S
C1254 H1238 0.931 . S
C1254 C1248 1.383 . S
C1254 C1253 1.379 . S
H1255 C1249 0.959 . S
H1256 C1249 0.961 . S
H1257 C1249 0.960 . S
H1258 C1250 0.930 . S
H1259 C1251 0.929 . S
H1260 C1268 0.929 . S
H1261 C1270 0.930 . S
H1262 C1272 0.930 . S
H1263 C1275 0.929 . S
H1264 C1278 0.930 . S
H1265 C1280 0.960 . S
H1266 C1280 0.960 . S
H1267 C1280 0.960 . S
C1268 H1260 0.929 . S
C1268 C1269 1.377 . S
C1268 C1270 1.384 . S
C1269 C1268 1.377 . S
C1269 C1275 1.390 . S
C1270 H1261 0.930 . S
C1270 C1268 1.384 . S
C1270 C1271 1.372 . S
C1271 C1270 1.372 . S
C1271 C1272 1.400 . S
C1271 C1276 1.490 . S
C1272 H1262 0.930 . S
C1272 C1271 1.400 . S
C1272 C1275 1.386 . S
H1273 C1289 0.930 . S
H1274 C1290 0.931 . S
C1275 H1263 0.929 . S
C1275 C1269 1.390 . S
C1275 C1272 1.386 . S
C1276 C1271 1.490 . S
C1276 C1278 1.395 . S
C1276 C1279 1.403 . S
H1277 C1283 0.930 . S
C1278 H1264 0.930 . S
C1278 C1276 1.395 . S
C1278 C1281 1.403 . S
C1279 C1276 1.403 . S
C1279 C1280 1.524 . S
C1279 C1283 1.400 . S
C1280 H1265 0.960 . S
C1280 H1266 0.960 . S
C1280 H1267 0.960 . S
C1280 C1279 1.524 . S
C1281 C1278 1.403 . S
C1281 C1282 1.392 . S
C1281 C1285 1.495 . S
C1282 C1281 1.392 . S
C1282 C1283 1.385 . S
C1282 C1284 1.478 . S
C1283 H1277 0.930 . S
C1283 C1279 1.400 . S
C1283 C1282 1.385 . S
C1284 C1282 1.478 . S
C1284 C1286 1.381 . S
C1284 C1290 1.383 . S
C1285 C1281 1.495 . S
C1285 H1291 0.942 1_545 S
C1285 H1292 0.961 . S
C1285 H1293 0.976 . S
C1286 C1284 1.381 . S
C1286 C1287 1.394 . S
C1286 H1294 0.930 . S
C1287 C1286 1.394 . S
C1287 C1288 1.383 . S
C1287 H1295 0.929 . S
C1288 C1287 1.383 . S
C1288 C1289 1.377 . S
C1289 H1273 0.930 . S
C1289 C1288 1.377 . S
C1289 C1290 1.379 . S
C1290 H1274 0.931 . S
C1290 C1284 1.383 . S
C1290 C1289 1.379 . S
H1291 C1285 0.942 1_565 S
H1292 C1285 0.961 . S
H1293 C1285 0.976 . S
H1294 C1286 0.930 . S
H1295 C1287 0.929 . S
H1296 C1304 0.929 . S
H1297 C1306 0.930 . S
H1298 C1308 0.930 . S
H1299 C1311 0.929 . S
H1300 C1314 0.930 . S
H1301 C1316 0.960 . S
H1302 C1316 0.960 . S
H1303 C1316 0.960 . S
C1304 H1296 0.929 . S
C1304 C1305 1.377 . S
C1304 C1306 1.384 . S
C1305 C1304 1.377 . S
C1305 C1311 1.390 . S
C1306 H1297 0.930 . S
C1306 C1304 1.384 . S
C1306 C1307 1.372 . S
C1307 C1306 1.372 . S
C1307 C1308 1.400 . S
C1307 C1312 1.490 . S
C1308 H1298 0.930 . S
C1308 C1307 1.400 . S
C1308 C1311 1.386 . S
H1309 C1325 0.930 . S
H1310 C1326 0.931 . S
C1311 H1299 0.929 . S
C1311 C1305 1.390 . S
C1311 C1308 1.386 . S
C1312 C1307 1.490 . S
C1312 C1314 1.395 . S
C1312 C1315 1.403 . S
H1313 C1319 0.930 . S
C1314 H1300 0.930 . S
C1314 C1312 1.395 . S
C1314 C1317 1.403 . S
C1315 C1312 1.403 . S
C1315 C1316 1.524 . S
C1315 C1319 1.400 . S
C1316 H1301 0.960 . S
C1316 H1302 0.960 . S
C1316 H1303 0.960 . S
C1316 C1315 1.524 . S
C1317 C1314 1.403 . S
C1317 C1318 1.392 . S
C1317 C1321 1.495 . S
C1318 C1317 1.392 . S
C1318 C1319 1.385 . S
C1318 C1320 1.478 . S
C1319 H1313 0.930 . S
C1319 C1315 1.400 . S
C1319 C1318 1.385 . S
C1320 C1318 1.478 . S
C1320 C1322 1.381 . S
C1320 C1326 1.383 . S
C1321 C1317 1.495 . S
C1321 H1327 0.959 . S
C1321 H1328 0.961 . S
C1321 H1329 0.960 . S
C1322 C1320 1.381 . S
C1322 C1323 1.394 . S
C1322 H1330 0.930 . S
C1323 C1322 1.394 . S
C1323 C1324 1.383 . S
C1323 H1331 0.929 . S
C1324 C1323 1.383 . S
C1324 C1325 1.377 . S
C1325 H1309 0.930 . S
C1325 C1324 1.377 . S
C1325 C1326 1.379 . S
C1326 H1310 0.931 . S
C1326 C1320 1.383 . S
C1326 C1325 1.379 . S
H1327 C1321 0.959 . S
H1328 C1321 0.961 . S
H1329 C1321 0.960 . S
H1330 C1322 0.930 . S
H1331 C1323 0.929 . S
H1332 C1340 0.929 . S
H1333 C1342 0.930 . S
H1334 C1344 0.930 . S
H1335 C1347 0.929 . S
H1336 C1350 0.930 . S
H1337 C1352 0.960 . S
H1338 C1352 0.960 . S
H1339 C1352 0.960 . S
C1340 H1332 0.929 . S
C1340 C1341 1.377 . S
C1340 C1342 1.384 . S
C1341 C1340 1.377 . S
C1341 C1347 1.390 . S
C1342 H1333 0.930 . S
C1342 C1340 1.384 . S
C1342 C1343 1.372 . S
C1343 C1342 1.372 . S
C1343 C1344 1.400 . S
C1343 C1348 1.490 . S
C1344 H1334 0.930 . S
C1344 C1343 1.400 . S
C1344 C1347 1.386 . S
H1345 C1361 0.930 . S
H1346 C1362 0.931 . S
C1347 H1335 0.929 . S
C1347 C1341 1.390 . S
C1347 C1344 1.386 . S
C1348 C1343 1.490 . S
C1348 C1350 1.395 . S
C1348 C1351 1.403 . S
H1349 C1355 0.930 . S
C1350 H1336 0.930 . S
C1350 C1348 1.395 . S
C1350 C1353 1.403 . S
C1351 C1348 1.403 . S
C1351 C1352 1.524 . S
C1351 C1355 1.400 . S
C1352 H1337 0.960 . S
C1352 H1338 0.960 . S
C1352 H1339 0.960 . S
C1352 C1351 1.524 . S
C1353 C1350 1.403 . S
C1353 C1354 1.392 . S
C1353 C1357 1.495 . S
C1354 C1353 1.392 . S
C1354 C1355 1.385 . S
C1354 C1356 1.478 . S
C1355 H1349 0.930 . S
C1355 C1351 1.400 . S
C1355 C1354 1.385 . S
C1356 C1354 1.478 . S
C1356 C1358 1.381 . S
C1356 C1362 1.383 . S
C1357 C1353 1.495 . S
C1357 H1363 0.959 . S
C1357 H1364 0.961 . S
C1357 H1365 0.960 . S
C1358 C1356 1.381 . S
C1358 C1359 1.394 . S
C1358 H1366 0.930 . S
C1359 C1358 1.394 . S
C1359 C1360 1.383 . S
C1359 H1367 0.929 . S
C1360 C1359 1.383 . S
C1360 C1361 1.377 . S
C1361 H1345 0.930 . S
C1361 C1360 1.377 . S
C1361 C1362 1.379 . S
C1362 H1346 0.931 . S
C1362 C1356 1.383 . S
C1362 C1361 1.379 . S
H1363 C1357 0.959 . S
H1364 C1357 0.961 . S
H1365 C1357 0.960 . S
H1366 C1358 0.930 . S
H1367 C1359 0.929 . S
H1368 C1376 0.929 . S
H1369 C1378 0.930 . S
H1370 C1380 0.930 . S
H1371 C1383 0.929 . S
H1372 C1386 0.930 . S
H1373 C1388 0.960 . S
H1374 C1388 0.960 . S
H1375 C1388 0.960 . S
C1376 H1368 0.929 . S
C1376 C1377 1.377 . S
C1376 C1378 1.384 . S
C1377 C1376 1.377 . S
C1377 C1383 1.390 . S
C1378 H1369 0.930 . S
C1378 C1376 1.384 . S
C1378 C1379 1.372 . S
C1379 C1378 1.372 . S
C1379 C1380 1.400 . S
C1379 C1384 1.490 . S
C1380 H1370 0.930 . S
C1380 C1379 1.400 . S
C1380 C1383 1.386 . S
H1381 C1397 0.930 . S
H1382 C1398 0.931 . S
C1383 H1371 0.929 . S
C1383 C1377 1.390 . S
C1383 C1380 1.386 . S
C1384 C1379 1.490 . S
C1384 C1386 1.395 . S
C1384 C1387 1.403 . S
H1385 C1391 0.930 . S
C1386 H1372 0.930 . S
C1386 C1384 1.395 . S
C1386 C1389 1.403 . S
C1387 C1384 1.403 . S
C1387 C1388 1.524 . S
C1387 C1391 1.400 . S
C1388 H1373 0.960 . S
C1388 H1374 0.960 . S
C1388 H1375 0.960 . S
C1388 C1387 1.524 . S
C1389 C1386 1.403 . S
C1389 C1390 1.392 . S
C1389 C1393 1.439 1_655 S
C1390 C1389 1.392 . S
C1390 C1391 1.385 . S
C1390 C1392 1.478 . S
C1391 H1385 0.930 . S
C1391 C1387 1.400 . S
C1391 C1390 1.385 . S
C1392 C1390 1.478 . S
C1392 C1394 1.381 . S
C1392 C1398 1.383 . S
C1393 C1389 1.439 1_455 S
C1393 H1399 0.988 . S
C1393 H1400 0.980 . S
C1393 H1401 0.973 . S
C1394 C1392 1.381 . S
C1394 C1395 1.394 . S
C1394 H1402 0.930 . S
C1395 C1394 1.394 . S
C1395 C1396 1.383 . S
C1395 H1403 0.929 . S
C1396 C1395 1.383 . S
C1396 C1397 1.377 . S
C1397 H1381 0.930 . S
C1397 C1396 1.377 . S
C1397 C1398 1.379 . S
C1398 H1382 0.931 . S
C1398 C1392 1.383 . S
C1398 C1397 1.379 . S
H1399 C1393 0.988 . S
H1400 C1393 0.980 . S
H1401 C1393 0.973 . S
H1402 C1394 0.930 . S
H1403 C1395 0.929 . S
H1404 C1412 0.929 . S
H1405 C1414 0.930 . S
H1406 C1416 0.930 . S
H1407 C1419 0.929 . S
H1408 C1422 0.930 . S
H1409 C1424 0.960 . S
H1410 C1424 0.960 . S
H1411 C1424 0.960 . S
C1412 H1404 0.929 . S
C1412 C1413 1.377 . S
C1412 C1414 1.384 . S
C1413 C1412 1.377 . S
C1413 C1419 1.390 . S
C1414 H1405 0.930 . S
C1414 C1412 1.384 . S
C1414 C1415 1.372 . S
C1415 C1414 1.372 . S
C1415 C1416 1.400 . S
C1415 C1420 1.490 . S
C1416 H1406 0.930 . S
C1416 C1415 1.400 . S
C1416 C1419 1.386 . S
H1417 C1433 0.930 . S
H1418 C1434 0.931 . S
C1419 H1407 0.929 . S
C1419 C1413 1.390 . S
C1419 C1416 1.386 . S
C1420 C1415 1.490 . S
C1420 C1422 1.395 . S
C1420 C1423 1.403 . S
H1421 C1427 0.930 . S
C1422 H1408 0.930 . S
C1422 C1420 1.395 . S
C1422 C1425 1.403 . S
C1423 C1420 1.403 . S
C1423 C1424 1.524 . S
C1423 C1427 1.400 . S
C1424 H1409 0.960 . S
C1424 H1410 0.960 . S
C1424 H1411 0.960 . S
C1424 C1423 1.524 . S
C1425 C1422 1.403 . S
C1425 C1426 1.392 . S
C1425 C1429 1.495 . S
C1426 C1425 1.392 . S
C1426 C1427 1.385 . S
C1426 C1428 1.478 . S
C1427 H1421 0.930 . S
C1427 C1423 1.400 . S
C1427 C1426 1.385 . S
C1428 C1426 1.478 . S
C1428 C1430 1.381 . S
C1428 C1434 1.383 . S
C1429 C1425 1.495 . S
C1429 H1435 0.959 . S
C1429 H1436 0.961 . S
C1429 H1437 0.960 . S
C1430 C1428 1.381 . S
C1430 C1431 1.394 . S
C1430 H1438 0.930 1_565 S
C1431 C1430 1.394 . S
C1431 C1432 1.383 . S
C1431 H1439 0.929 1_565 S
C1432 C1431 1.383 . S
C1432 C1433 1.377 . S
C1433 H1417 0.930 . S
C1433 C1432 1.377 . S
C1433 C1434 1.379 . S
C1434 H1418 0.931 . S
C1434 C1428 1.383 . S
C1434 C1433 1.379 . S
H1435 C1429 0.959 . S
H1436 C1429 0.961 . S
H1437 C1429 0.960 . S
H1438 C1430 0.930 1_545 S
H1439 C1431 0.929 1_545 S
H1440 C1448 0.929 . S
H1441 C1450 0.930 . S
H1442 C1452 0.930 . S
H1443 C1455 0.929 . S
H1444 C1458 0.930 . S
H1445 C1460 0.960 . S
H1446 C1460 0.960 . S
H1447 C1460 0.960 . S
C1448 H1440 0.929 . S
C1448 C1449 1.377 . S
C1448 C1450 1.384 . S
C1449 C1448 1.377 . S
C1449 C1455 1.390 . S
C1450 H1441 0.930 . S
C1450 C1448 1.384 . S
C1450 C1451 1.372 . S
C1451 C1450 1.372 . S
C1451 C1452 1.400 . S
C1451 C1456 1.490 . S
C1452 H1442 0.930 . S
C1452 C1451 1.400 . S
C1452 C1455 1.386 . S
H1453 C1469 0.930 . S
H1454 C1470 0.931 . S
C1455 H1443 0.929 . S
C1455 C1449 1.390 . S
C1455 C1452 1.386 . S
C1456 C1451 1.490 . S
C1456 C1458 1.395 . S
C1456 C1459 1.403 . S
H1457 C1463 0.930 . S
C1458 H1444 0.930 . S
C1458 C1456 1.395 . S
C1458 C1461 1.403 . S
C1459 C1456 1.403 . S
C1459 C1460 1.524 . S
C1459 C1463 1.400 . S
C1460 H1445 0.960 . S
C1460 H1446 0.960 . S
C1460 H1447 0.960 . S
C1460 C1459 1.524 . S
C1461 C1458 1.403 . S
C1461 C1462 1.392 . S
C1461 C1465 1.495 . S
C1462 C1461 1.392 . S
C1462 C1463 1.385 . S
C1462 C1464 1.478 . S
C1463 H1457 0.930 . S
C1463 C1459 1.400 . S
C1463 C1462 1.385 . S
C1464 C1462 1.478 . S
C1464 C1466 1.381 . S
C1464 C1470 1.383 . S
C1465 C1461 1.495 . S
C1465 H1471 0.959 . S
C1465 H1472 0.961 . S
C1465 H1473 0.960 . S
C1466 C1464 1.381 . S
C1466 C1467 1.394 . S
C1466 H1474 0.930 . S
C1467 C1466 1.394 . S
C1467 C1468 1.383 . S
C1467 H1475 0.929 . S
C1468 C1467 1.383 . S
C1468 C1469 1.377 . S
C1469 H1453 0.930 . S
C1469 C1468 1.377 . S
C1469 C1470 1.379 . S
C1470 H1454 0.931 . S
C1470 C1464 1.383 . S
C1470 C1469 1.379 . S
H1471 C1465 0.959 . S
H1472 C1465 0.961 . S
H1473 C1465 0.960 . S
H1474 C1466 0.930 . S
H1475 C1467 0.929 . S
H1476 C1484 0.929 . S
H1477 C1486 0.930 . S
H1478 C1488 0.930 . S
H1479 C1491 0.929 . S
H1480 C1494 0.930 . S
H1481 C1496 0.960 . S
H1482 C1496 0.960 . S
H1483 C1496 0.960 . S
C1484 H1476 0.929 . S
C1484 C1485 1.377 . S
C1484 C1486 1.384 . S
C1485 C1484 1.377 . S
C1485 C1491 1.390 . S
C1486 H1477 0.930 . S
C1486 C1484 1.384 . S
C1486 C1487 1.372 . S
C1487 C1486 1.372 . S
C1487 C1488 1.400 . S
C1487 C1492 1.490 . S
C1488 H1478 0.930 . S
C1488 C1487 1.400 . S
C1488 C1491 1.386 . S
H1489 C1505 0.930 . S
H1490 C1506 0.931 . S
C1491 H1479 0.929 . S
C1491 C1485 1.390 . S
C1491 C1488 1.386 . S
C1492 C1487 1.490 . S
C1492 C1494 1.395 . S
C1492 C1495 1.403 . S
H1493 C1499 0.930 . S
C1494 H1480 0.930 . S
C1494 C1492 1.395 . S
C1494 C1497 1.403 . S
C1495 C1492 1.403 . S
C1495 C1496 1.524 . S
C1495 C1499 1.400 . S
C1496 H1481 0.960 . S
C1496 H1482 0.960 . S
C1496 H1483 0.960 . S
C1496 C1495 1.524 . S
C1497 C1494 1.403 . S
C1497 C1498 1.392 . S
C1497 C1501 1.495 . S
C1498 C1497 1.392 . S
C1498 C1499 1.385 . S
C1498 C1500 1.478 . S
C1499 H1493 0.930 . S
C1499 C1495 1.400 . S
C1499 C1498 1.385 . S
C1500 C1498 1.478 . S
C1500 C1502 1.381 . S
C1500 C1506 1.383 . S
C1501 C1497 1.495 . S
C1501 H1507 0.959 . S
C1501 H1508 0.961 . S
C1501 H1509 0.960 . S
C1502 C1500 1.381 . S
C1502 C1503 1.394 . S
C1502 H1510 0.930 . S
C1503 C1502 1.394 . S
C1503 C1504 1.383 . S
C1503 H1511 0.929 . S
C1504 C1503 1.383 . S
C1504 C1505 1.377 . S
C1505 H1489 0.930 . S
C1505 C1504 1.377 . S
C1505 C1506 1.379 . S
C1506 H1490 0.931 . S
C1506 C1500 1.383 . S
C1506 C1505 1.379 . S
H1507 C1501 0.959 . S
H1508 C1501 0.961 . S
H1509 C1501 0.960 . S
H1510 C1502 0.930 . S
H1511 C1503 0.929 . S
C657 C255 2.060 . S
C676 C386 2.131 . S
C712 C470 2.148 . S
C693 C294 2.089 . S
C748 C536 2.155 . S
C729 C177 2.234 . S
C784 C620 2.076 . S
C765 C216 2.211 . S
C820 C375 2.109 1_565 S
C801 C99 2.073 . S
C837 C138 2.076 . S
C856 C459 2.142 . S
C873 C21 2.247 . S
C892 C547 2.100 . S
C909 C60 2.223 . S
C928 C631 2.093 . S
C964 C382 0.341 1_455 S
C945 C196 0.469 . S
C1000 C466 0.443 1_545 S
C981 C235 0.399 . S
C1036 C538 0.538 . S
C1017 C289 0.426 . S
C1053 C157 0.424 . S
C1072 C622 0.425 . S
C1089 C40 0.442 . S
C1108 C370 0.505 . S
C1144 C454 0.463 . S
C1125 C79 0.414 . S
C1180 C550 0.441 . S
C1161 C133 0.418 . S
C1197 C1 0.431 . S
C1216 C634 0.486 . S
C1233 C211 2.599 . S
C1252 C379 2.705 . S
C1269 C250 2.539 . S
C1288 C463 2.638 . S
C1324 C543 2.647 . S
C1305 C274 2.419 . S
C1360 C627 2.693 . S
C1341 C172 2.456 . S
C1377 C55 2.601 . S
C1396 C368 2.699 . S
C1432 C452 2.669 . S
C1413 C94 2.543 . S
C1468 C554 2.661 . S
C1449 C118 2.417 . S
C1485 C16 2.444 . S
C1504 C638 2.703 . S
