# Generated by pormake.
# Topology tsx, (6,3)-cn, num edge types: 1
# Building blocks:
#     Node 0, Type 0, BuildingBlock: LEVNOQ01_clean_sbu_1, # of connection points: 6
#     Node 1, Type 0, BuildingBlock: LEVNOQ01_clean_sbu_1, # of connection points: 6
#     Node 2, Type 1, BuildingBlock: PAMTOO_clean_linker_0, # of connection points: 3
#     Node 3, Type 1, BuildingBlock: PAMTOO_clean_linker_0, # of connection points: 3
#     Node 4, Type 1, BuildingBlock: PAMTOO_clean_linker_0, # of connection points: 3
#     Node 5, Type 1, BuildingBlock: PAMTOO_clean_linker_0, # of connection points: 3
#     Edge 6, Type (0, 1), BuildingBlock: FUNLAD_clean_linker_0, # of connection points: 2
#     Edge 7, Type (0, 1), BuildingBlock: FUNLAD_clean_linker_0, # of connection points: 2
#     Edge 8, Type (0, 1), BuildingBlock: FUNLAD_clean_linker_0, # of connection points: 2
#     Edge 9, Type (0, 1), BuildingBlock: FUNLAD_clean_linker_0, # of connection points: 2
#     Edge 10, Type (0, 1), BuildingBlock: FUNLAD_clean_linker_0, # of connection points: 2
#     Edge 11, Type (0, 1), BuildingBlock: FUNLAD_clean_linker_0, # of connection points: 2
#     Edge 12, Type (0, 1), BuildingBlock: FUNLAD_clean_linker_0, # of connection points: 2
#     Edge 13, Type (0, 1), BuildingBlock: FUNLAD_clean_linker_0, # of connection points: 2
#     Edge 14, Type (0, 1), BuildingBlock: FUNLAD_clean_linker_0, # of connection points: 2
#     Edge 15, Type (0, 1), BuildingBlock: FUNLAD_clean_linker_0, # of connection points: 2
#     Edge 16, Type (0, 1), BuildingBlock: FUNLAD_clean_linker_0, # of connection points: 2
#     Edge 17, Type (0, 1), BuildingBlock: FUNLAD_clean_linker_0, # of connection points: 2
# Relax obj value: 0.128
# Max RMSD: 0.147
# Mean RMSD: 0.139
data_MOF--net-tsx--node1-LEVNOQ01_clean_sbu_1--node2-PAMTOO_clean_linker_0--edge1-FUNLAD_clean_linker_0
_symmetry_space_group_name_H-M    P1
_symmetry_Int_Tables_number       1
_symmetry_cell_setting            triclinic
loop_
_symmetry_equiv_pos_as_xyz
'x, y, z'
_cell_length_a     21.842838
_cell_length_b     26.344948
_cell_length_c     39.632494
_cell_angle_alpha  89.123337
_cell_angle_beta   90.189743
_cell_angle_gamma 90.992804
loop_
_atom_site_label
_atom_site_type_symbol
_atom_site_fract_x
_atom_site_fract_y
_atom_site_fract_z
_atom_type_partial_charge
O0 O 0.16643 0.03567 0.0576 0.0
Mg1 Mg 0.192 0.04865 0.00643 0.0
O2 O 0.06555 0.03886 0.05018 0.0
Mg3 Mg 0.05043 0.04826 -0.00761 0.0
O4 O 0.13491 0.10149 0.98702 0.0
O5 O 0.23544 0.11508 -0.00827 0.0
O6 O 0.03971 0.05632 0.93506 0.0
O7 O 0.00618 0.13052 0.00128 0.0
Mg8 Mg 0.93711 0.06092 0.9841 0.0
O9 O 0.96424 0.98944 -0.00217 0.0
O10 O 0.94707 0.0867 0.93306 0.0
O11 O 0.91711 0.11157 0.02249 0.0
O12 O 0.86793 0.01095 0.98413 0.0
C13 C 0.15337 0.95572 0.97343 0.0
C14 C 0.11232 0.0339 0.0694 0.0
C15 C 0.18201 0.13184 0.9839 0.0
C16 C 0.9959 0.07512 0.91816 0.0
C17 C 0.95785 0.14456 0.01631 0.0
C18 C 0.90633 0.97736 -0.00587 0.0
O19 O 0.19899 0.98571 0.97547 0.0
O20 O 0.09996 0.97011 0.98197 0.0
O21 O 0.64393 0.5375 0.57361 0.0
Mg22 Mg 0.69034 0.54837 0.52766 0.0
O23 O 0.54973 0.52397 0.55353 0.0
Mg24 Mg 0.55493 0.5392 0.49502 0.0
O25 O 0.63662 0.59413 0.49933 0.0
O26 O 0.7302 0.61784 0.5154 0.0
O27 O 0.56506 0.55452 0.43795 0.0
O28 O 0.4991 0.61591 0.50451 0.0
Mg29 Mg 0.44496 0.54734 0.47239 0.0
O30 O 0.47422 0.47714 0.48854 0.0
O31 O 0.47449 0.58502 0.42742 0.0
O32 O 0.40371 0.59078 0.50903 0.0
O33 O 0.3893 0.4908 0.45745 0.0
C34 C 0.67104 0.45404 0.48796 0.0
C35 C 0.58756 0.52703 0.5782 0.0
C36 C 0.6797 0.62839 0.50012 0.0
C37 C 0.52848 0.5768 0.41796 0.0
C38 C 0.44382 0.62513 0.51273 0.0
C39 C 0.42447 0.46031 0.47381 0.0
O40 O 0.71136 0.48322 0.50067 0.0
O41 O 0.61488 0.46694 0.48632 0.0
H42 H 0.17118 0.95143 0.39159 0.0
H43 H 0.02932 0.06195 0.38055 0.0
H44 H 0.07649 0.00552 0.47895 0.0
H45 H 0.93407 0.02452 0.46283 0.0
C46 C 0.94364 0.05505 0.44404 0.0
O47 O 0.00546 0.06695 0.44419 0.0
H48 H 0.92983 0.04099 0.41872 0.0
C49 C 0.13741 0.97577 0.40267 0.0
C50 C 0.1296 0.97555 0.43793 0.0
C51 C 0.10056 0.00592 0.38158 0.0
C52 C 0.05685 0.03704 0.39618 0.0
C53 C 0.04766 0.03627 0.43099 0.0
C54 C 0.08346 0.00526 0.45191 0.0
H55 H 0.11705 0.12924 0.60885 0.0
H56 H 0.98508 0.00737 0.59947 0.0
H57 H 0.05134 0.08592 0.51074 0.0
H58 H 0.90308 0.05586 0.51855 0.0
C59 C 0.91353 0.02069 0.53305 0.0
O60 O 0.97626 0.01425 0.53404 0.0
H61 H 0.89523 0.02454 0.55903 0.0
C62 C 0.08786 0.10554 0.5932 0.0
C63 C 0.0887 0.11239 0.55803 0.0
C64 C 0.05046 0.06816 0.60846 0.0
C65 C 0.01464 0.03629 0.58811 0.0
C66 C 0.01371 0.04355 0.55303 0.0
C67 C 0.05138 0.08108 0.5379 0.0
H68 H 0.62774 0.45047 0.88711 0.0
H69 H 0.48501 0.56034 0.89464 0.0
H70 H 0.56558 0.49957 0.98459 0.0
H71 H 0.41875 0.52991 0.98905 0.0
C72 C 0.42323 0.55142 0.96512 0.0
O73 O 0.48444 0.56244 0.95949 0.0
H74 H 0.40423 0.52714 0.94467 0.0
C75 C 0.59809 0.47325 0.90241 0.0
C76 C 0.60265 0.47082 0.93794 0.0
C77 C 0.55589 0.50559 0.8865 0.0
C78 C 0.518 0.53526 0.90632 0.0
C79 C 0.52091 0.53241 0.94136 0.0
C80 C 0.56287 0.50026 0.95729 0.0
H81 H 0.64439 0.62569 0.10325 0.0
H82 H 0.4944 0.51925 0.11654 0.0
H83 H 0.53246 0.58325 0.01847 0.0
H84 H 0.38834 0.56181 0.04367 0.0
C85 C 0.40144 0.5263 0.05719 0.0
O86 O 0.46336 0.5184 0.053 0.0
H87 H 0.39063 0.53011 0.08442 0.0
C88 C 0.60629 0.60398 0.0929 0.0
C89 C 0.59323 0.60784 0.05832 0.0
C90 C 0.57041 0.57299 0.11432 0.0
C91 C 0.52214 0.54411 0.10054 0.0
C92 C 0.50785 0.54838 0.06616 0.0
C93 C 0.54287 0.58077 0.04511 0.0
C94 C 0.22264 0.21063 0.9571 0.0
C95 C 0.1765 0.18642 0.97625 0.0
C96 C 0.2328 0.26284 0.95947 0.0
C97 C 0.19759 0.2916 0.98155 0.0
C98 C 0.14651 0.26854 -0.00267 0.0
C99 C 0.13611 0.21603 -0.00519 0.0
C100 C 0.21965 0.34248 -0.00757 0.0
C101 C 0.27933 0.34978 8e-05 0.0
C102 C 0.30569 0.39573 0.01612 0.0
C103 C 0.35789 0.38992 0.03645 0.0
C104 C 0.38718 0.43193 0.05059 0.0
C105 C 0.36612 0.48108 0.04385 0.0
H106 H 0.24285 0.45044 -0.00535 0.0
C107 C 0.31276 0.4871 0.0243 0.0
C108 C 0.28266 0.44469 0.0105 0.0
H109 H 0.29532 0.52464 0.01902 0.0
H110 H 0.25418 0.18856 0.94249 0.0
H111 H 0.27135 0.27998 0.94615 0.0
H112 H 0.11832 0.29006 0.0142 0.0
H113 H 0.10079 0.19811 0.0102 0.0
H114 H 0.18642 0.3711 -0.00147 0.0
H115 H 0.3104 0.31833 -0.0029 0.0
H116 H 0.3764 0.35259 0.04131 0.0
H117 H 0.42746 0.42608 0.0661 0.0
C118 C 0.21933 0.89132 0.94717 0.0
C119 C 0.16554 0.90233 0.96481 0.0
C120 C 0.23928 0.84155 0.94485 0.0
C121 C 0.2062 0.80143 0.96037 0.0
C122 C 0.1497 0.81172 0.97551 0.0
C123 C 0.12952 0.8619 0.97783 0.0
C124 C 0.23151 0.74933 0.96201 0.0
C125 C 0.29214 0.74189 0.96599 0.0
C126 C 0.32187 0.69151 0.96781 0.0
C127 C 0.38118 0.68888 0.98151 0.0
C128 C 0.41329 0.64351 0.98143 0.0
C129 C 0.38744 0.59987 0.96683 0.0
H130 H 0.24955 0.64768 0.94338 0.0
C131 C 0.32728 0.60178 0.95421 0.0
C132 C 0.29482 0.6472 0.95452 0.0
H133 H 0.30585 0.56835 0.94343 0.0
H134 H 0.24753 0.92154 0.93627 0.0
H135 H 0.28163 0.83475 0.93166 0.0
H136 H 0.1228 0.78131 0.98714 0.0
H137 H 0.08786 0.86921 -0.00845 0.0
H138 H 0.19963 0.71727 0.96214 0.0
H139 H 0.32217 0.77484 0.96912 0.0
H140 H 0.40316 0.72229 -0.00796 0.0
H141 H 0.45895 0.64297 -0.00791 0.0
C142 C 0.81905 0.91835 0.00577 0.0
C143 C 0.88233 0.92535 0.00076 0.0
C144 C 0.79329 0.86992 0.00886 0.0
C145 C 0.82999 0.82688 0.00679 0.0
C146 C 0.89375 0.83358 0.00336 0.0
C147 C 0.91982 0.88256 0.00019 0.0
C148 C 0.80213 0.77525 0.01032 0.0
C149 C 0.74498 0.76461 -0.00106 0.0
C150 C 0.70821 0.71865 0.00877 0.0
C151 C 0.64423 0.71984 0.00447 0.0
C152 C 0.6065 0.68166 0.01847 0.0
C153 C 0.63222 0.64158 0.03698 0.0
H154 H 0.78291 0.67232 0.0276 0.0
C155 C 0.69624 0.63803 0.03887 0.0
C156 C 0.73397 0.676 0.02478 0.0
H157 H 0.71706 0.60687 0.05259 0.0
H158 H 0.78893 0.95049 0.00713 0.0
H159 H 0.74449 0.86642 0.01325 0.0
H160 H 0.92315 0.80094 0.00246 0.0
H161 H 0.96874 0.88686 -0.00356 0.0
H162 H 0.82827 0.74709 0.02407 0.0
H163 H 0.72142 0.79344 0.98417 0.0
H164 H 0.62302 0.75193 -0.00804 0.0
H165 H 0.55725 0.68528 0.01675 0.0
C166 C 0.8923 0.21276 0.03863 0.0
C167 C 0.94033 0.19855 0.01744 0.0
C168 C 0.86209 0.25848 0.03313 0.0
C169 C 0.87877 0.29076 0.00593 0.0
C170 C 0.93105 0.27912 0.98712 0.0
C171 C 0.96157 0.23337 -0.00725 0.0
C172 C 0.84029 0.33432 -0.00511 0.0
C173 C 0.77917 0.33537 0.00017 0.0
C174 C 0.73702 0.37366 0.98517 0.0
C175 C 0.67785 0.37742 -0.00134 0.0
C176 C 0.63466 0.40941 0.98375 0.0
C177 C 0.64934 0.43821 0.95466 0.0
H178 H 0.79652 0.40085 0.94457 0.0
C179 C 0.70883 0.43509 0.94138 0.0
C180 C 0.75214 0.4032 0.95637 0.0
H181 H 0.72197 0.45723 0.91924 0.0
H182 H 0.87552 0.187 0.05822 0.0
H183 H 0.82418 0.26722 0.04942 0.0
H184 H 0.94577 0.30374 0.96643 0.0
H185 H 0.99832 0.2235 0.97592 0.0
H186 H 0.86227 0.36387 0.97964 0.0
H187 H 0.75757 0.3053 0.01516 0.0
H188 H 0.66455 0.35486 0.02062 0.0
H189 H 0.58919 0.41049 -0.00549 0.0
C190 C 0.71503 0.69557 0.46062 0.0
C191 C 0.67318 0.67934 0.48541 0.0
C192 C 0.72785 0.74722 0.45573 0.0
C193 C 0.70006 0.78327 0.47627 0.0
C194 C 0.65254 0.76728 0.49798 0.0
C195 C 0.63943 0.71543 0.50271 0.0
C196 C 0.72654 0.83533 0.47963 0.0
C197 C 0.78777 0.84308 0.47932 0.0
C198 C 0.81906 0.88982 0.49147 0.0
C199 C 0.87776 0.88519 0.50559 0.0
C200 C 0.90847 0.92722 0.51886 0.0
C201 C 0.88194 0.97539 0.51737 0.0
H202 H 0.74738 0.94299 0.47881 0.0
C203 C 0.82345 0.98035 0.50288 0.0
C204 C 0.79218 0.93794 0.48999 0.0
H205 H 0.80186 0.01705 0.50172 0.0
H206 H 0.74176 0.66818 0.44716 0.0
H207 H 0.76307 0.75851 0.43783 0.0
H208 H 0.62992 0.79436 0.5138 0.0
H209 H 0.60778 0.70353 0.52241 0.0
H210 H 0.69677 0.86514 0.4881 0.0
H211 H 0.81719 0.81129 0.47414 0.0
H212 H 0.89944 0.84853 0.50717 0.0
H213 H 0.95289 0.92178 0.53044 0.0
C214 C 0.75342 0.39464 0.47265 0.0
C215 C 0.69062 0.4036 0.47654 0.0
C216 C 0.77407 0.34626 0.46575 0.0
C217 C 0.73255 0.30522 0.4629 0.0
C218 C 0.66947 0.31446 0.46475 0.0
C219 C 0.64856 0.36331 0.47166 0.0
C220 C 0.75504 0.25294 0.45791 0.0
C221 C 0.80764 0.23748 0.47244 0.0
C222 C 0.8386 0.18865 0.46616 0.0
C223 C 0.89735 0.18227 0.47995 0.0
C224 C 0.93101 0.13919 0.47313 0.0
C225 C 0.90692 0.10129 0.45213 0.0
H226 H 0.7678 0.15225 0.43563 0.0
C227 C 0.84707 0.10626 0.43956 0.0
C228 C 0.81324 0.14964 0.44628 0.0
H229 H 0.82683 0.07684 0.42407 0.0
H230 H 0.7871 0.42496 0.47548 0.0
H231 H 0.82284 0.3411 0.46288 0.0
H232 H 0.63651 0.28359 0.46198 0.0
H233 H 0.59984 0.3691 0.47431 0.0
H234 H 0.72779 0.22768 0.44234 0.0
H235 H 0.83126 0.26331 0.48943 0.0
H236 H 0.91802 0.21129 0.49562 0.0
H237 H 0.97633 0.13611 0.48392 0.0
C238 C 0.41105 0.37946 0.50712 0.0
C239 C 0.40504 0.4066 0.47662 0.0
C240 C 0.38055 0.33264 0.51157 0.0
C241 C 0.34461 0.31214 0.48534 0.0
C242 C 0.34361 0.33711 0.45391 0.0
C243 C 0.37286 0.38428 0.44972 0.0
C244 C 0.30295 0.26785 0.49108 0.0
C245 C 0.26823 0.26462 0.51902 0.0
C246 C 0.21871 0.2262 0.52494 0.0
C247 C 0.17379 0.23728 0.54879 0.0
C248 C 0.12921 0.20124 0.55779 0.0
C249 C 0.12876 0.15289 0.54339 0.0
H250 H 0.25065 0.16854 0.49077 0.0
C251 C 0.17157 0.14232 0.51818 0.0
C252 C 0.21646 0.17868 0.50905 0.0
H253 H 0.17237 0.10513 0.5069 0.0
H254 H 0.43574 0.39587 0.52817 0.0
H255 H 0.38307 0.31347 0.53589 0.0
H256 H 0.31673 0.32183 0.43328 0.0
H257 H 0.36817 0.40434 0.4258 0.0
H258 H 0.29479 0.24209 0.47037 0.0
H259 H 0.27344 0.29409 0.53779 0.0
H260 H 0.17395 0.27369 0.56117 0.0
H261 H 0.09624 0.21056 0.577 0.0
C262 C 0.36413 0.68529 0.53127 0.0
C263 C 0.42326 0.67748 0.51871 0.0
C264 C 0.33753 0.73307 0.52896 0.0
C265 C 0.36971 0.77442 0.51405 0.0
C266 C 0.43081 0.76738 0.5042 0.0
C267 C 0.45737 0.71946 0.50651 0.0
C268 C 0.33932 0.82274 0.50393 0.0
C269 C 0.28197 0.8354 0.51297 0.0
C270 C 0.24581 0.87648 0.49626 0.0
C271 C 0.18272 0.87881 0.50315 0.0
C272 C 0.14512 0.91223 0.48515 0.0
C273 C 0.16979 0.94397 0.45969 0.0
H274 H 0.31913 0.91196 0.46636 0.0
C275 C 0.23319 0.94371 0.45396 0.0
C276 C 0.27086 0.91069 0.4721 0.0
H277 H 0.25365 0.96872 0.43502 0.0
H278 H 0.33676 0.65367 0.54099 0.0
H279 H 0.29052 0.73592 0.53692 0.0
H280 H 0.45698 0.79836 0.49271 0.0
H281 H 0.50279 0.71466 0.49633 0.0
H282 H 0.36429 0.84641 0.48595 0.0
H283 H 0.25794 0.81246 0.53177 0.0
H284 H 0.16189 0.85335 0.52169 0.0
H285 H 0.09639 0.91168 0.49019 0.0
C286 C 0.15548 0.01566 0.1267 0.0
C287 C 0.10427 0.02532 0.10612 0.0
C288 C 0.14883 0.00771 0.16135 0.0
C289 C 0.09075 0.00981 0.17642 0.0
C290 C 0.03938 0.01834 0.1558 0.0
C291 C 0.04601 0.02618 0.121 0.0
C292 C 0.08199 0.00266 0.21335 0.0
C293 C 0.12632 0.01269 0.2362 0.0
C294 C 0.11801 0.00801 0.27335 0.0
C295 C 0.17033 0.00717 0.29408 0.0
C296 C 0.16492 0.00549 0.3292 0.0
C297 C 0.10691 0.00498 0.34436 0.0
H298 H 0.01823 0.00868 0.27391 0.0
C299 C 0.05453 0.00511 0.32367 0.0
C300 C 0.05989 0.00687 0.28861 0.0
H301 H 0.00913 0.00419 0.33462 0.0
H302 H 0.20099 0.0139 0.11605 0.0
H303 H 0.18934 -0.00077 0.176 0.0
H304 H 0.99402 0.0196 0.1667 0.0
H305 H 0.00557 0.03317 0.10586 0.0
H306 H 0.03688 0.99009 0.2216 0.0
H307 H 0.17108 0.02575 0.22761 0.0
H308 H 0.21569 0.00835 0.28307 0.0
H309 H 0.20614 0.00594 0.34447 0.0
C310 C 0.05181 0.06165 0.86422 0.0
C311 C 1.00093 0.08083 0.88116 0.0
C312 C 0.05517 0.06437 0.8291 0.0
C313 C 0.00764 0.08635 0.8102 0.0
C314 C 0.95779 0.10695 0.82715 0.0
C315 C 0.95418 0.10391 0.86229 0.0
C316 C 0.00959 0.08966 0.77291 0.0
C317 C 0.03808 0.05536 0.75393 0.0
C318 C 0.04034 0.05916 0.71663 0.0
C319 C 0.04575 0.01476 0.69779 0.0
C320 C 0.04848 0.01736 0.66256 0.0
C321 C 0.04686 0.06457 0.64568 0.0
H322 H 0.03689 0.14154 0.71334 0.0
C323 C 0.04209 0.10898 0.66459 0.0
C324 C 0.03911 0.10638 0.69966 0.0
H325 H 0.04036 0.14589 0.65221 0.0
H326 H 0.08884 0.04397 0.87804 0.0
H327 H 0.09531 0.04969 0.81691 0.0
H328 H 0.92101 0.12467 0.81313 0.0
H329 H 0.91456 0.11931 0.87461 0.0
H330 H 0.984 0.1199 0.76078 0.0
H331 H 0.05813 0.02216 0.76588 0.0
H332 H 0.04747 0.97798 0.71033 0.0
H333 H 0.05278 0.98261 0.64858 0.0
C334 C 0.60029 0.54522 0.6388 0.0
C335 C 0.56699 0.52036 0.61342 0.0
C336 C 0.58632 0.53693 0.67256 0.0
C337 C 0.53813 0.50376 0.68206 0.0
C338 C 0.50425 0.47893 0.65677 0.0
C339 C 0.5181 0.48764 0.62254 0.0
C340 C 0.52611 0.49302 0.71835 0.0
C341 C 0.53628 0.52901 0.7416 0.0
C342 C 0.5378 0.52038 0.77865 0.0
C343 C 0.54002 0.56327 0.79918 0.0
C344 C 0.54686 0.55823 0.83396 0.0
C345 C 0.55154 0.51003 0.84925 0.0
H346 H 0.54293 0.43792 0.77885 0.0
C347 C 0.54969 0.46683 0.82888 0.0
C348 C 0.54288 0.47189 0.79382 0.0
H349 H 0.55289 0.4292 0.84007 0.0
H350 H 0.6382 0.57073 0.6326 0.0
H351 H 0.61495 0.55545 0.6912 0.0
H352 H 0.4674 0.45268 0.6635 0.0
H353 H 0.49213 0.46764 0.60341 0.0
H354 H 0.51052 0.45516 0.72575 0.0
H355 H 0.54599 0.56765 0.7329 0.0
H356 H 0.53724 0.60111 0.78821 0.0
H357 H 0.54906 0.5923 0.84892 0.0
C358 C 0.59944 0.56851 0.36904 0.0
C359 C 0.54723 0.59008 0.38319 0.0
C360 C 0.61298 0.57653 0.33494 0.0
C361 C 0.57467 0.60656 0.31456 0.0
C362 C 0.52502 0.63083 0.32927 0.0
C363 C 0.51103 0.62232 0.3632 0.0
C364 C 0.58304 0.61127 0.27763 0.0
C365 C 0.60257 0.5725 0.25897 0.0
C366 C 0.59906 0.57318 0.22164 0.0
C367 C 0.58922 0.52723 0.20482 0.0
C368 C 0.58047 0.5269 0.16989 0.0
C369 C 0.58219 0.57254 0.15113 0.0
H370 H 0.61234 0.65463 0.21468 0.0
C371 C 0.59433 0.61832 0.16785 0.0
C372 C 0.60299 0.61866 0.2027 0.0
H373 H 0.59576 0.65417 0.15409 0.0
H374 H 0.6286 0.54396 0.38396 0.0
H375 H 0.65274 0.55858 0.32449 0.0
H376 H 0.49531 0.65463 0.31413 0.0
H377 H 0.47101 0.64008 0.37356 0.0
H378 H 0.56488 0.64488 0.26526 0.0
H379 H 0.61462 0.53694 0.27133 0.0
H380 H 0.58657 0.49163 0.21884 0.0
H381 H 0.57221 0.49098 0.15759 0.0
loop_
_geom_bond_atom_site_label_1
_geom_bond_atom_site_label_2
_geom_bond_distance
_geom_bond_site_symmetry_2
_ccdc_geom_bond_type
O0 Mg1 1.990 . S
O0 C14 1.253 . S
Mg1 O0 1.990 . S
Mg1 O4 2.180 . S
Mg1 O5 2.117 . S
Mg1 O19 2.030 1_545 S
O2 Mg3 2.068 1_554 S
O2 C14 1.260 . S
Mg3 O2 2.068 1_556 S
Mg3 O4 2.098 1_556 S
Mg3 O6 2.083 . S
Mg3 O7 2.072 1_556 S
Mg3 O9 2.100 1_445 S
Mg3 O20 2.079 1_545 S
O4 Mg1 2.180 . S
O4 Mg3 2.098 1_554 S
O4 C15 1.279 . S
O5 Mg1 2.117 . S
O5 C15 1.250 . S
O6 Mg3 2.083 . S
O6 C16 1.264 . S
O7 Mg3 2.072 1_554 S
O7 C17 1.260 1_454 S
Mg8 O9 2.180 1_545 S
Mg8 O10 2.030 . S
Mg8 O11 1.990 . S
Mg8 O12 2.117 1_545 S
O9 Mg3 2.100 1_665 S
O9 Mg8 2.180 1_565 S
O9 C18 1.279 1_556 S
O10 Mg8 2.030 . S
O10 C16 1.248 1_655 S
O11 Mg8 1.990 . S
O11 C17 1.253 . S
O12 Mg8 2.117 1_565 S
O12 C18 1.250 1_556 S
C13 O19 1.248 . S
C13 O20 1.264 1_554 S
C14 O0 1.253 . S
C14 O2 1.260 . S
C15 O4 1.279 . S
C15 O5 1.250 . S
C16 O6 1.264 . S
C16 O10 1.248 1_455 S
C17 O7 1.260 1_656 S
C17 O11 1.253 . S
C18 O9 1.279 1_554 S
C18 O12 1.250 1_554 S
O19 Mg1 2.030 1_565 S
O19 C13 1.248 . S
O20 Mg3 2.079 1_565 S
O20 C13 1.264 1_556 S
O21 Mg22 1.990 . S
O21 C35 1.253 . S
Mg22 O21 1.990 . S
Mg22 O25 2.180 . S
Mg22 O26 2.117 . S
Mg22 O40 2.030 . S
O23 Mg24 2.072 . S
O23 C35 1.260 . S
Mg24 O23 2.072 . S
Mg24 O25 2.099 . S
Mg24 O27 2.079 . S
Mg24 O28 2.072 . S
Mg24 O30 2.099 . S
Mg24 O41 2.079 . S
O25 Mg22 2.180 . S
O25 Mg24 2.099 . S
O25 C36 1.279 . S
O26 Mg22 2.117 . S
O26 C36 1.250 . S
O27 Mg24 2.079 . S
O27 C37 1.264 . S
O28 Mg24 2.072 . S
O28 C38 1.260 . S
Mg29 O30 2.180 . S
Mg29 O31 2.030 . S
Mg29 O32 1.990 . S
Mg29 O33 2.117 . S
O30 Mg24 2.099 . S
O30 Mg29 2.180 . S
O30 C39 1.279 . S
O31 Mg29 2.030 . S
O31 C37 1.248 . S
O32 Mg29 1.990 . S
O32 C38 1.253 . S
O33 Mg29 2.117 . S
O33 C39 1.250 . S
C34 O40 1.248 . S
C34 O41 1.264 . S
C35 O21 1.253 . S
C35 O23 1.260 . S
C36 O25 1.279 . S
C36 O26 1.250 . S
C37 O27 1.264 . S
C37 O31 1.248 . S
C38 O28 1.260 . S
C38 O32 1.253 . S
C39 O30 1.279 . S
C39 O33 1.250 . S
O40 Mg22 2.030 . S
O40 C34 1.248 . S
O41 Mg24 2.079 . S
O41 C34 1.264 . S
H42 C49 0.929 . S
H43 C52 0.935 . S
H44 C54 0.929 . S
H45 C46 0.969 . S
C46 H45 0.969 . S
C46 O47 1.550 1_655 S
C46 H48 0.973 . S
O47 C46 1.550 1_455 S
O47 C53 1.412 . S
H48 C46 0.973 . S
C49 H42 0.929 . S
C49 C50 1.400 . S
C49 C51 1.364 . S
C50 C49 1.400 . S
C50 C54 1.377 . S
C51 C49 1.364 . S
C51 C52 1.374 1_565 S
C52 H43 0.935 . S
C52 C51 1.374 1_545 S
C52 C53 1.383 . S
C53 O47 1.412 . S
C53 C52 1.383 . S
C53 C54 1.394 1_545 S
C54 H44 0.929 . S
C54 C50 1.377 . S
C54 C53 1.394 1_565 S
H55 C62 0.929 . S
H56 C65 0.930 . S
H57 C67 0.929 . S
H58 C59 0.969 . S
C59 H58 0.969 . S
C59 O60 1.550 . S
C59 H61 0.973 1_545 S
O60 C59 1.550 . S
O60 C66 1.412 . S
H61 C59 0.973 1_565 S
C62 H55 0.929 . S
C62 C63 1.400 . S
C62 C64 1.364 . S
C63 C62 1.400 . S
C63 C67 1.377 . S
C64 C62 1.364 . S
C64 C65 1.374 1_455 S
C65 H56 0.930 . S
C65 C64 1.374 1_655 S
C65 C66 1.383 . S
C66 O60 1.412 . S
C66 C65 1.383 . S
C66 C67 1.394 1_655 S
C67 H57 0.929 . S
C67 C63 1.377 . S
C67 C66 1.394 1_455 S
H68 C75 0.929 . S
H69 C78 0.930 . S
H70 C80 0.929 . S
H71 C72 0.969 . S
C72 H71 0.969 . S
C72 O73 1.550 . S
C72 H74 0.973 . S
O73 C72 1.550 . S
O73 C79 1.412 . S
H74 C72 0.973 . S
C75 H68 0.929 . S
C75 C76 1.400 . S
C75 C77 1.364 . S
C76 C75 1.400 . S
C76 C80 1.377 . S
C77 C75 1.364 . S
C77 C78 1.374 . S
C78 H69 0.930 . S
C78 C77 1.374 . S
C78 C79 1.383 . S
C79 O73 1.412 . S
C79 C78 1.383 . S
C79 C80 1.394 . S
C80 H70 0.929 . S
C80 C76 1.377 . S
C80 C79 1.394 . S
H81 C88 0.929 . S
H82 C91 0.930 . S
H83 C93 0.929 . S
H84 C85 0.969 . S
C85 H84 0.969 . S
C85 O86 1.550 . S
C85 H87 0.973 . S
O86 C85 1.550 . S
O86 C92 1.412 . S
H87 C85 0.973 . S
C88 H81 0.929 . S
C88 C89 1.400 . S
C88 C90 1.364 . S
C89 C88 1.400 . S
C89 C93 1.377 . S
C90 C88 1.364 . S
C90 C91 1.374 . S
C91 H82 0.930 . S
C91 C90 1.374 . S
C91 C92 1.383 . S
C92 O86 1.412 . S
C92 C91 1.383 . S
C92 C93 1.394 . S
C93 H83 0.929 . S
C93 C89 1.377 . S
C93 C92 1.394 . S
C94 C95 1.386 1_556 S
C94 C96 1.383 . S
C94 H110 0.951 . S
C95 C94 1.386 1_554 S
C95 C99 1.383 . S
C96 C94 1.383 . S
C96 C97 1.402 1_556 S
C96 H111 0.951 . S
C97 C96 1.402 1_554 S
C97 C98 1.375 . S
C97 C100 1.481 . S
C98 C97 1.375 . S
C98 C99 1.367 . S
C98 H112 0.951 . S
C99 C95 1.383 . S
C99 C98 1.367 . S
C99 H113 0.950 . S
C100 C97 1.481 . S
C100 C101 1.297 . S
C100 H114 0.950 . S
C101 C100 1.297 . S
C101 C102 1.479 . S
C101 H115 0.950 1_554 S
C102 C101 1.479 . S
C102 C103 1.375 1_554 S
C102 C108 1.404 . S
C103 C102 1.375 1_556 S
C103 C104 1.369 . S
C103 H116 0.950 . S
C104 C103 1.369 . S
C104 C105 1.392 1_556 S
C104 H117 0.951 . S
C105 C104 1.392 1_554 S
C105 C107 1.384 . S
H106 C108 0.949 . S
C107 C105 1.384 . S
C107 C108 1.385 . S
C107 H109 0.950 . S
C108 C102 1.404 . S
C108 H106 0.949 . S
C108 C107 1.385 . S
H109 C107 0.950 . S
H110 C94 0.951 . S
H111 C96 0.951 . S
H112 C98 0.951 . S
H113 C99 0.950 . S
H114 C100 0.950 . S
H115 C101 0.950 1_556 S
H116 C103 0.950 . S
H117 C104 0.951 . S
C118 C119 1.386 1_556 S
C118 C120 1.383 . S
C118 H134 0.951 . S
C119 C118 1.386 1_554 S
C119 C123 1.383 . S
C120 C118 1.383 . S
C120 C121 1.402 1_556 S
C120 H135 0.951 . S
C121 C120 1.402 1_554 S
C121 C122 1.375 . S
C121 C124 1.481 . S
C122 C121 1.375 . S
C122 C123 1.367 . S
C122 H136 0.951 . S
C123 C119 1.383 . S
C123 C122 1.367 . S
C123 H137 0.950 . S
C124 C121 1.481 . S
C124 C125 1.297 . S
C124 H138 0.950 . S
C125 C124 1.297 . S
C125 C126 1.477 1_554 S
C125 H139 0.950 1_554 S
C126 C125 1.477 1_556 S
C126 C127 1.394 . S
C126 C132 1.390 1_556 S
C127 C126 1.394 . S
C127 C128 1.369 . S
C127 H140 0.950 . S
C128 C127 1.369 . S
C128 C129 1.392 . S
C128 H141 0.951 . S
C129 C128 1.392 . S
C129 C131 1.384 1_556 S
H130 C132 0.949 . S
C131 C129 1.384 1_554 S
C131 C132 1.385 . S
C131 H133 0.950 . S
C132 C126 1.390 1_554 S
C132 H130 0.949 . S
C132 C131 1.385 . S
H133 C131 0.950 . S
H134 C118 0.951 . S
H135 C120 0.951 . S
H136 C122 0.951 . S
H137 C123 0.950 . S
H138 C124 0.950 . S
H139 C125 0.950 1_556 S
H140 C127 0.950 . S
H141 C128 0.951 . S
C142 C143 1.386 . S
C142 C144 1.383 . S
C142 H158 0.951 . S
C143 C142 1.386 . S
C143 C147 1.383 1_554 S
C144 C142 1.383 . S
C144 C145 1.402 . S
C144 H159 0.951 . S
C145 C144 1.402 . S
C145 C146 1.375 1_554 S
C145 C148 1.481 . S
C146 C145 1.375 1_556 S
C146 C147 1.367 . S
C146 H160 0.951 . S
C147 C143 1.383 1_556 S
C147 C146 1.367 . S
C147 H161 0.950 . S
C148 C145 1.481 . S
C148 C149 1.297 . S
C148 H162 0.950 1_554 S
C149 C148 1.297 . S
C149 C150 1.479 . S
C149 H163 0.950 . S
C150 C149 1.479 . S
C150 C151 1.375 . S
C150 C156 1.404 . S
C151 C150 1.375 . S
C151 C152 1.369 . S
C151 H164 0.950 . S
C152 C151 1.369 . S
C152 C153 1.392 . S
C152 H165 0.951 . S
C153 C152 1.392 . S
C153 C155 1.384 . S
H154 C156 0.949 1_556 S
C155 C153 1.384 . S
C155 C156 1.385 . S
C155 H157 0.950 1_554 S
C156 C150 1.404 . S
C156 H154 0.949 1_554 S
C156 C155 1.385 . S
H157 C155 0.950 1_556 S
H158 C142 0.951 . S
H159 C144 0.951 . S
H160 C146 0.951 . S
H161 C147 0.950 . S
H162 C148 0.950 1_556 S
H163 C149 0.950 . S
H164 C151 0.950 . S
H165 C152 0.951 . S
C166 C167 1.386 1_554 S
C166 C168 1.383 . S
C166 H182 0.951 . S
C167 C166 1.386 1_556 S
C167 C171 1.383 . S
C168 C166 1.383 . S
C168 C169 1.402 1_554 S
C168 H183 0.951 . S
C169 C168 1.402 1_556 S
C169 C170 1.375 . S
C169 C172 1.481 . S
C170 C169 1.375 . S
C170 C171 1.367 . S
C170 H184 0.951 . S
C171 C167 1.383 . S
C171 C170 1.367 . S
C171 H185 0.950 . S
C172 C169 1.481 . S
C172 C173 1.297 . S
C172 H186 0.950 . S
C173 C172 1.297 . S
C173 C174 1.479 . S
C173 H187 0.950 1_556 S
C174 C173 1.479 . S
C174 C175 1.375 . S
C174 C180 1.404 . S
C175 C174 1.375 . S
C175 C176 1.369 . S
C175 H188 0.950 1_556 S
C176 C175 1.369 . S
C176 C177 1.392 . S
C176 H189 0.951 1_556 S
C177 C176 1.392 . S
C177 C179 1.384 . S
H178 C180 0.949 . S
C179 C177 1.384 . S
C179 C180 1.385 . S
C179 H181 0.950 . S
C180 C174 1.404 . S
C180 H178 0.949 . S
C180 C179 1.385 . S
H181 C179 0.950 . S
H182 C166 0.951 . S
H183 C168 0.951 . S
H184 C170 0.951 . S
H185 C171 0.950 . S
H186 C172 0.950 . S
H187 C173 0.950 1_554 S
H188 C175 0.950 1_554 S
H189 C176 0.951 1_554 S
C190 C191 1.386 . S
C190 C192 1.383 . S
C190 H206 0.951 . S
C191 C190 1.386 . S
C191 C195 1.383 . S
C192 C190 1.383 . S
C192 C193 1.402 . S
C192 H207 0.951 . S
C193 C192 1.402 . S
C193 C194 1.375 . S
C193 C196 1.481 . S
C194 C193 1.375 . S
C194 C195 1.367 . S
C194 H208 0.951 . S
C195 C191 1.383 . S
C195 C194 1.367 . S
C195 H209 0.950 . S
C196 C193 1.481 . S
C196 C197 1.297 . S
C196 H210 0.950 . S
C197 C196 1.297 . S
C197 C198 1.479 . S
C197 H211 0.950 . S
C198 C197 1.479 . S
C198 C199 1.375 . S
C198 C204 1.404 . S
C199 C198 1.375 . S
C199 C200 1.369 . S
C199 H212 0.950 . S
C200 C199 1.369 . S
C200 C201 1.392 . S
C200 H213 0.951 . S
C201 C200 1.392 . S
C201 C203 1.384 . S
H202 C204 0.949 . S
C203 C201 1.384 . S
C203 C204 1.385 . S
C203 H205 0.950 . S
C204 C198 1.404 . S
C204 H202 0.949 . S
C204 C203 1.385 . S
H205 C203 0.950 . S
H206 C190 0.951 . S
H207 C192 0.951 . S
H208 C194 0.951 . S
H209 C195 0.950 . S
H210 C196 0.950 . S
H211 C197 0.950 . S
H212 C199 0.950 . S
H213 C200 0.951 . S
C214 C215 1.386 . S
C214 C216 1.383 . S
C214 H230 0.951 . S
C215 C214 1.386 . S
C215 C219 1.383 . S
C216 C214 1.383 . S
C216 C217 1.402 . S
C216 H231 0.951 . S
C217 C216 1.402 . S
C217 C218 1.375 . S
C217 C220 1.481 . S
C218 C217 1.375 . S
C218 C219 1.367 . S
C218 H232 0.951 . S
C219 C215 1.383 . S
C219 C218 1.367 . S
C219 H233 0.950 . S
C220 C217 1.481 . S
C220 C221 1.297 . S
C220 H234 0.950 . S
C221 C220 1.297 . S
C221 C222 1.479 . S
C221 H235 0.950 . S
C222 C221 1.479 . S
C222 C223 1.375 . S
C222 C228 1.404 . S
C223 C222 1.375 . S
C223 C224 1.369 . S
C223 H236 0.950 . S
C224 C223 1.369 . S
C224 C225 1.392 . S
C224 H237 0.951 . S
C225 C224 1.392 . S
C225 C227 1.384 . S
H226 C228 0.949 . S
C227 C225 1.384 . S
C227 C228 1.385 . S
C227 H229 0.950 . S
C228 C222 1.404 . S
C228 H226 0.949 . S
C228 C227 1.385 . S
H229 C227 0.950 . S
H230 C214 0.951 . S
H231 C216 0.951 . S
H232 C218 0.951 . S
H233 C219 0.950 . S
H234 C220 0.950 . S
H235 C221 0.950 . S
H236 C223 0.950 . S
H237 C224 0.951 . S
C238 C239 1.386 . S
C238 C240 1.383 . S
C238 H254 0.951 . S
C239 C238 1.386 . S
C239 C243 1.383 . S
C240 C238 1.383 . S
C240 C241 1.402 . S
C240 H255 0.951 . S
C241 C240 1.402 . S
C241 C242 1.375 . S
C241 C244 1.481 . S
C242 C241 1.375 . S
C242 C243 1.367 . S
C242 H256 0.951 . S
C243 C239 1.383 . S
C243 C242 1.367 . S
C243 H257 0.950 . S
C244 C241 1.481 . S
C244 C245 1.297 . S
C244 H258 0.950 . S
C245 C244 1.297 . S
C245 C246 1.479 . S
C245 H259 0.950 . S
C246 C245 1.479 . S
C246 C247 1.375 . S
C246 C252 1.404 . S
C247 C246 1.375 . S
C247 C248 1.369 . S
C247 H260 0.950 . S
C248 C247 1.369 . S
C248 C249 1.392 . S
C248 H261 0.951 . S
C249 C248 1.392 . S
C249 C251 1.384 . S
H250 C252 0.949 . S
C251 C249 1.384 . S
C251 C252 1.385 . S
C251 H253 0.950 . S
C252 C246 1.404 . S
C252 H250 0.949 . S
C252 C251 1.385 . S
H253 C251 0.950 . S
H254 C238 0.951 . S
H255 C240 0.951 . S
H256 C242 0.951 . S
H257 C243 0.950 . S
H258 C244 0.950 . S
H259 C245 0.950 . S
H260 C247 0.950 . S
H261 C248 0.951 . S
C262 C263 1.386 . S
C262 C264 1.383 . S
C262 H278 0.951 . S
C263 C262 1.386 . S
C263 C267 1.383 . S
C264 C262 1.383 . S
C264 C265 1.402 . S
C264 H279 0.951 . S
C265 C264 1.402 . S
C265 C266 1.375 . S
C265 C268 1.481 . S
C266 C265 1.375 . S
C266 C267 1.367 . S
C266 H280 0.951 . S
C267 C263 1.383 . S
C267 C266 1.367 . S
C267 H281 0.950 . S
C268 C265 1.481 . S
C268 C269 1.297 . S
C268 H282 0.950 . S
C269 C268 1.297 . S
C269 C270 1.479 . S
C269 H283 0.950 . S
C270 C269 1.479 . S
C270 C271 1.375 . S
C270 C276 1.404 . S
C271 C270 1.375 . S
C271 C272 1.369 . S
C271 H284 0.950 . S
C272 C271 1.369 . S
C272 C273 1.392 . S
C272 H285 0.951 . S
C273 C272 1.392 . S
C273 C275 1.384 . S
H274 C276 0.949 . S
C275 C273 1.384 . S
C275 C276 1.385 . S
C275 H277 0.950 . S
C276 C270 1.404 . S
C276 H274 0.949 . S
C276 C275 1.385 . S
H277 C275 0.950 . S
H278 C262 0.951 . S
H279 C264 0.951 . S
H280 C266 0.951 . S
H281 C267 0.950 . S
H282 C268 0.950 . S
H283 C269 0.950 . S
H284 C271 0.950 . S
H285 C272 0.951 . S
C286 C287 1.386 1_565 S
C286 C288 1.383 1_565 S
C286 H302 0.951 . S
C287 C286 1.386 1_545 S
C287 C291 1.383 . S
C288 C286 1.383 1_545 S
C288 C289 1.402 . S
C288 H303 0.951 1_545 S
C289 C288 1.402 . S
C289 C290 1.375 . S
C289 C292 1.481 . S
C290 C289 1.375 . S
C290 C291 1.367 . S
C290 H304 0.951 1_455 S
C291 C287 1.383 . S
C291 C290 1.367 . S
C291 H305 0.950 1_455 S
C292 C289 1.481 . S
C292 C293 1.297 . S
C292 H306 0.950 . S
C293 C292 1.297 . S
C293 C294 1.479 . S
C293 H307 0.950 . S
C294 C293 1.479 . S
C294 C295 1.375 1_545 S
C294 C300 1.404 . S
C295 C294 1.375 1_565 S
C295 C296 1.369 . S
C295 H308 0.950 . S
C296 C295 1.369 . S
C296 C297 1.392 1_565 S
C296 H309 0.951 . S
C297 C296 1.392 1_545 S
C297 C299 1.384 . S
H298 C300 0.949 . S
C299 C297 1.384 . S
C299 C300 1.385 . S
C299 H301 0.950 1_455 S
C300 C294 1.404 . S
C300 H298 0.949 . S
C300 C299 1.385 . S
H301 C299 0.950 1_655 S
H302 C286 0.951 . S
H303 C288 0.951 1_565 S
H304 C290 0.951 1_655 S
H305 C291 0.950 1_655 S
H306 C292 0.950 . S
H307 C293 0.950 . S
H308 C295 0.950 . S
H309 C296 0.951 . S
C310 C311 1.386 . S
C310 C312 1.383 . S
C310 H326 0.951 1_545 S
C311 C310 1.386 . S
C311 C315 1.383 . S
C312 C310 1.383 . S
C312 C313 1.402 . S
C312 H327 0.951 . S
C313 C312 1.402 . S
C313 C314 1.375 . S
C313 C316 1.481 . S
C314 C313 1.375 . S
C314 C315 1.367 . S
C314 H328 0.951 . S
C315 C311 1.383 . S
C315 C314 1.367 . S
C315 H329 0.950 . S
C316 C313 1.481 . S
C316 C317 1.297 . S
C316 H330 0.950 . S
C317 C316 1.297 . S
C317 C318 1.479 . S
C317 H331 0.950 . S
C318 C317 1.479 . S
C318 C319 1.375 . S
C318 C324 1.404 1_455 S
C319 C318 1.375 . S
C319 C320 1.369 . S
C319 H332 0.950 . S
C320 C319 1.369 . S
C320 C321 1.392 . S
C320 H333 0.951 . S
C321 C320 1.392 . S
C321 C323 1.384 1_455 S
H322 C324 0.949 . S
C323 C321 1.384 1_655 S
C323 C324 1.385 . S
C323 H325 0.950 . S
C324 C318 1.404 1_655 S
C324 H322 0.949 . S
C324 C323 1.385 . S
H325 C323 0.950 . S
H326 C310 0.951 1_565 S
H327 C312 0.951 . S
H328 C314 0.951 . S
H329 C315 0.950 . S
H330 C316 0.950 . S
H331 C317 0.950 . S
H332 C319 0.950 . S
H333 C320 0.951 . S
C334 C335 1.386 . S
C334 C336 1.383 . S
C334 H350 0.951 . S
C335 C334 1.386 . S
C335 C339 1.383 . S
C336 C334 1.383 . S
C336 C337 1.402 . S
C336 H351 0.951 . S
C337 C336 1.402 . S
C337 C338 1.375 . S
C337 C340 1.481 . S
C338 C337 1.375 . S
C338 C339 1.367 . S
C338 H352 0.951 . S
C339 C335 1.383 . S
C339 C338 1.367 . S
C339 H353 0.950 . S
C340 C337 1.481 . S
C340 C341 1.297 . S
C340 H354 0.950 . S
C341 C340 1.297 . S
C341 C342 1.479 . S
C341 H355 0.950 . S
C342 C341 1.479 . S
C342 C343 1.375 . S
C342 C348 1.404 . S
C343 C342 1.375 . S
C343 C344 1.369 . S
C343 H356 0.950 . S
C344 C343 1.369 . S
C344 C345 1.392 . S
C344 H357 0.951 . S
C345 C344 1.392 . S
C345 C347 1.384 . S
H346 C348 0.949 . S
C347 C345 1.384 . S
C347 C348 1.385 . S
C347 H349 0.950 . S
C348 C342 1.404 . S
C348 H346 0.949 . S
C348 C347 1.385 . S
H349 C347 0.950 . S
H350 C334 0.951 . S
H351 C336 0.951 . S
H352 C338 0.951 . S
H353 C339 0.950 . S
H354 C340 0.950 . S
H355 C341 0.950 . S
H356 C343 0.950 . S
H357 C344 0.951 . S
C358 C359 1.386 . S
C358 C360 1.383 . S
C358 H374 0.951 . S
C359 C358 1.386 . S
C359 C363 1.383 . S
C360 C358 1.383 . S
C360 C361 1.402 . S
C360 H375 0.951 . S
C361 C360 1.402 . S
C361 C362 1.375 . S
C361 C364 1.481 . S
C362 C361 1.375 . S
C362 C363 1.367 . S
C362 H376 0.951 . S
C363 C359 1.383 . S
C363 C362 1.367 . S
C363 H377 0.950 . S
C364 C361 1.481 . S
C364 C365 1.297 . S
C364 H378 0.950 . S
C365 C364 1.297 . S
C365 C366 1.479 . S
C365 H379 0.950 . S
C366 C365 1.479 . S
C366 C367 1.375 . S
C366 C372 1.404 . S
C367 C366 1.375 . S
C367 C368 1.369 . S
C367 H380 0.950 . S
C368 C367 1.369 . S
C368 C369 1.392 . S
C368 H381 0.951 . S
C369 C368 1.392 . S
C369 C371 1.384 . S
H370 C372 0.949 . S
C371 C369 1.384 . S
C371 C372 1.385 . S
C371 H373 0.950 . S
C372 C366 1.404 . S
C372 H370 0.949 . S
C372 C371 1.385 . S
H373 C371 0.950 . S
H374 C358 0.951 . S
H375 C360 0.951 . S
H376 C362 0.951 . S
H377 C363 0.950 . S
H378 C364 0.950 . S
H379 C365 0.950 . S
H380 C367 0.950 . S
H381 C368 0.951 . S
C105 C85 1.283 . S
C95 C15 1.216 . S
C119 C13 1.421 . S
C129 C72 1.384 . S
C143 C18 1.278 . S
C153 C89 1.539 . S
C167 C17 1.417 . S
C177 C76 1.454 . S
C191 C36 1.256 . S
C201 C59 1.336 1_565 S
C215 C34 1.442 . S
C225 C46 1.356 . S
C249 C63 1.554 . S
C239 C39 1.295 . S
C273 C50 1.454 . S
C263 C38 1.418 . S
C287 C14 1.545 . S
C297 C51 1.607 1_545 S
C311 C16 1.381 . S
C321 C64 1.464 . S
C345 C77 1.615 . S
C335 C35 1.582 . S
C359 C37 1.401 . S
C369 C90 1.465 . S
