# Generated by pormake.
# Topology anh, (6,3)-cn, num edge types: 1
# Building blocks:
#     Node 0, Type 0, BuildingBlock: MIFKUJ_clean_sbu_0, # of connection points: 6
#     Node 1, Type 0, BuildingBlock: MIFKUJ_clean_sbu_0, # of connection points: 6
#     Node 2, Type 0, BuildingBlock: MIFKUJ_clean_sbu_0, # of connection points: 6
#     Node 3, Type 1, BuildingBlock: ESEHIV_clean_linker_0, # of connection points: 3
#     Node 4, Type 1, BuildingBlock: ESEHIV_clean_linker_0, # of connection points: 3
#     Node 5, Type 1, BuildingBlock: ESEHIV_clean_linker_0, # of connection points: 3
#     Node 6, Type 1, BuildingBlock: ESEHIV_clean_linker_0, # of connection points: 3
#     Node 7, Type 1, BuildingBlock: ESEHIV_clean_linker_0, # of connection points: 3
#     Node 8, Type 1, BuildingBlock: ESEHIV_clean_linker_0, # of connection points: 3
#     Edge 9, Type (0, 1), BuildingBlock: FUNLAD_clean_linker_0, # of connection points: 2
#     Edge 10, Type (0, 1), BuildingBlock: FUNLAD_clean_linker_0, # of connection points: 2
#     Edge 11, Type (0, 1), BuildingBlock: FUNLAD_clean_linker_0, # of connection points: 2
#     Edge 12, Type (0, 1), BuildingBlock: FUNLAD_clean_linker_0, # of connection points: 2
#     Edge 13, Type (0, 1), BuildingBlock: FUNLAD_clean_linker_0, # of connection points: 2
#     Edge 14, Type (0, 1), BuildingBlock: FUNLAD_clean_linker_0, # of connection points: 2
#     Edge 15, Type (0, 1), BuildingBlock: FUNLAD_clean_linker_0, # of connection points: 2
#     Edge 16, Type (0, 1), BuildingBlock: FUNLAD_clean_linker_0, # of connection points: 2
#     Edge 17, Type (0, 1), BuildingBlock: FUNLAD_clean_linker_0, # of connection points: 2
#     Edge 18, Type (0, 1), BuildingBlock: FUNLAD_clean_linker_0, # of connection points: 2
#     Edge 19, Type (0, 1), BuildingBlock: FUNLAD_clean_linker_0, # of connection points: 2
#     Edge 20, Type (0, 1), BuildingBlock: FUNLAD_clean_linker_0, # of connection points: 2
#     Edge 21, Type (0, 1), BuildingBlock: FUNLAD_clean_linker_0, # of connection points: 2
#     Edge 22, Type (0, 1), BuildingBlock: FUNLAD_clean_linker_0, # of connection points: 2
#     Edge 23, Type (0, 1), BuildingBlock: FUNLAD_clean_linker_0, # of connection points: 2
#     Edge 24, Type (0, 1), BuildingBlock: FUNLAD_clean_linker_0, # of connection points: 2
#     Edge 25, Type (0, 1), BuildingBlock: FUNLAD_clean_linker_0, # of connection points: 2
#     Edge 26, Type (0, 1), BuildingBlock: FUNLAD_clean_linker_0, # of connection points: 2
# Relax obj value: 0.135
# Max RMSD: 0.185
# Mean RMSD: 0.146
data_MOF--net-anh--node1-MIFKUJ_clean_sbu_0--node2-ESEHIV_clean_linker_0--edge1-FUNLAD_clean_linker_0
_symmetry_space_group_name_H-M    P1
_symmetry_Int_Tables_number       1
_symmetry_cell_setting            triclinic
loop_
_symmetry_equiv_pos_as_xyz
'x, y, z'
_cell_length_a     33.776958
_cell_length_b     33.687256
_cell_length_c     57.680694
_cell_angle_alpha  93.762087
_cell_angle_beta   90.520413
_cell_angle_gamma 120.58227
loop_
_atom_site_label
_atom_site_type_symbol
_atom_site_fract_x
_atom_site_fract_y
_atom_site_fract_z
_atom_type_partial_charge
Zn0 Zn 0.02813 0.60154 0.17426 0.0
Zn1 Zn 0.90027 0.49967 0.17297 0.0
C2 C 0.09349 0.57351 0.18021 0.0
O3 O 0.09783 0.5957 0.20055 0.0
C4 C 0.82516 0.4989 0.15095 0.0
O5 O 0.83176 0.47145 0.13632 0.0
O6 O 0.07412 0.66894 0.17208 0.0
O7 O 0.97426 0.58272 0.15217 0.0
O8 O 0.93464 0.50798 0.14379 0.0
C9 C 0.09733 0.67866 0.15393 0.0
O10 O 0.08819 0.6452 0.13791 0.0
O11 O 0.06289 0.56869 0.16538 0.0
C12 C 0.83395 0.41985 0.19235 0.0
O13 O 0.82945 0.45185 0.20424 0.0
O14 O 0.86409 0.43195 0.17715 0.0
O15 O 0.93826 0.53022 0.20299 0.0
O16 O 0.00984 0.58998 0.20735 0.0
O17 O 0.85267 0.51847 0.16869 0.0
C18 C 0.96334 0.54798 0.13799 0.0
C19 C 0.97321 0.55928 0.21592 0.0
Zn20 Zn 0.52915 0.04583 0.48622 0.0
Zn21 Zn 0.54219 0.96041 0.48867 0.0
C22 C 0.62032 0.12435 0.49724 0.0
O23 O 0.59739 0.13199 0.51347 0.0
C24 C 0.45669 0.87838 0.47593 0.0
O25 O 0.48418 0.87617 0.46059 0.0
O26 O 0.50704 0.09038 0.48529 0.0
O27 O 0.50076 1.00152 0.45748 0.0
O28 O 0.55595 0.98533 0.45738 0.0
C29 C 0.51806 0.11653 0.46871 0.0
O30 O 0.53962 0.11016 0.45131 0.0
O31 O 0.59906 0.08734 0.48373 0.0
C32 C 0.56556 0.90176 0.5087 0.0
O33 O 0.54315 0.90897 0.52538 0.0
O34 O 0.57103 0.92171 0.4901 0.0
O35 O 0.56839 0.00444 0.51735 0.0
O36 O 0.51379 0.0213 0.51801 0.0
O37 O 0.47293 0.91398 0.4904 0.0
C38 C 0.52499 0.98836 0.44646 0.0
C39 C 0.54283 0.01509 0.5288 0.0
Zn40 Zn 0.58917 0.51344 0.82626 0.0
Zn41 Zn 0.49213 0.51842 0.82105 0.0
C42 C 0.57845 0.42502 0.83573 0.0
O43 O 0.6072 0.45072 0.85326 0.0
C44 C 0.52472 0.60859 0.80622 0.0
O45 O 0.5016 0.58247 0.78736 0.0
O46 O 0.65751 0.54322 0.82897 0.0
O47 O 0.57746 0.53544 0.7968 0.0
O48 O 0.50232 0.49136 0.79121 0.0
C49 C 0.67852 0.53295 0.81378 0.0
O50 O 0.65473 0.50223 0.79639 0.0
O51 O 0.56409 0.44377 0.82206 0.0
C52 C 0.4212 0.52467 0.83892 0.0
O53 O 0.45541 0.54702 0.85461 0.0
O54 O 0.42743 0.50605 0.82051 0.0
O55 O 0.4967 0.49198 0.85059 0.0
O56 O 0.57193 0.53122 0.85691 0.0
O57 O 0.52952 0.58926 0.82343 0.0
C58 C 0.54229 0.5101 0.78329 0.0
C59 C 0.53176 0.51178 0.86457 0.0
H60 H 0.45244 0.88812 0.22314 0.0
H61 H 0.58694 1.00328 0.24327 0.0
H62 H 0.52271 0.99523 0.17686 0.0
C63 C 0.483 0.91979 0.21905 0.0
C64 C 0.48441 0.93799 0.19769 0.0
C65 C 0.5196 0.94358 0.2357 0.0
C66 C 0.55868 0.98485 0.23037 0.0
C67 C 0.56027 0.00415 0.20926 0.0
C68 C 0.52282 0.9803 0.19293 0.0
H69 H 0.6122 0.59145 0.58083 0.0
H70 H 0.61057 0.46456 0.56472 0.0
H71 H 0.59831 0.53876 0.50955 0.0
C72 C 0.61115 0.56578 0.56805 0.0
C73 C 0.60509 0.56936 0.54439 0.0
C74 C 0.61354 0.52831 0.57548 0.0
C75 C 0.61033 0.49436 0.55888 0.0
C76 C 0.60517 0.49788 0.53496 0.0
C77 C 0.60311 0.53594 0.52784 0.0
H78 H 0.98695 0.5656 0.92125 0.0
H79 H 0.11015 0.56094 0.93334 0.0
H80 H 0.07254 0.57626 0.86444 0.0
C81 C 0.01754 0.56682 0.91476 0.0
C82 C 0.02619 0.57139 0.89102 0.0
C83 C 0.0478 0.5633 0.93016 0.0
C84 C 0.08721 0.56473 0.92163 0.0
C85 C 0.09615 0.56897 0.8979 0.0
C86 C 0.06545 0.57223 0.8827 0.0
H87 H 0.94937 0.46232 0.4264 0.0
H88 H 0.07629 0.59282 0.43314 0.0
H89 H 0.03246 0.50731 0.49063 0.0
C90 C 0.98014 0.48748 0.43666 0.0
C91 C 0.98683 0.47921 0.45959 0.0
C92 C 0.01194 0.52842 0.42702 0.0
C93 C 0.05089 0.56154 0.44058 0.0
C94 C 0.0586 0.55437 0.46342 0.0
C95 C 0.02648 0.51309 0.47301 0.0
H96 H 0.53008 0.06953 0.75063 0.0
H97 H 0.54811 0.95234 0.74246 0.0
H98 H 0.55775 0.01676 0.81097 0.0
C99 C 0.53554 0.04404 0.75829 0.0
C100 C 0.54243 0.04671 0.78255 0.0
C101 C 0.53807 0.01058 0.74369 0.0
C102 C 0.54706 0.97894 0.75363 0.0
C103 C 0.55427 0.9807 0.77781 0.0
C104 C 0.55186 0.01478 0.79233 0.0
H105 H 0.39461 0.5278 0.07206 0.0
H106 H 0.50872 0.50731 0.08256 0.0
H107 H 0.44425 0.53017 0.14167 0.0
C108 C 0.41838 0.52523 0.08373 0.0
C109 C 0.41478 0.52957 0.10798 0.0
C110 C 0.4525 0.51779 0.0744 0.0
C111 C 0.48263 0.51374 0.08957 0.0
C112 C 0.47993 0.51818 0.11373 0.0
C113 C 0.44611 0.52636 0.12298 0.0
C114 C 0.13273 0.54875 0.15074 0.0
C115 C 0.12728 0.55932 0.17405 0.0
C116 C 0.16812 0.54031 0.14491 0.0
C117 C 0.19867 0.5421 0.16231 0.0
C118 C 0.19173 0.55045 0.18564 0.0
C119 C 0.15674 0.55936 0.19144 0.0
C120 C 0.23814 0.53565 0.1568 0.0
C121 C 0.26061 0.54837 0.13697 0.0
C122 C 0.30179 0.54487 0.13133 0.0
C123 C 0.32979 0.57125 0.11393 0.0
C124 C 0.36734 0.5675 0.10702 0.0
C125 C 0.37776 0.5369 0.1172 0.0
H126 H 0.2917 0.49326 0.15512 0.0
C127 C 0.35054 0.51124 0.13504 0.0
C128 C 0.31282 0.51498 0.14199 0.0
H129 H 0.35732 0.48691 0.143 0.0
H130 H 0.11049 0.54826 0.13693 0.0
H131 H 0.17145 0.53249 0.12679 0.0
H132 H 0.21434 0.55146 0.19941 0.0
H133 H 0.15328 0.56704 0.20959 0.0
H134 H 0.25101 0.52352 0.17029 0.0
H135 H 0.2498 0.56439 0.12459 0.0
H136 H 0.32234 0.59464 0.10544 0.0
H137 H 0.38797 0.58825 0.09344 0.0
C138 C 0.69086 0.20192 0.50825 0.0
C139 C 0.66858 0.16096 0.49337 0.0
C140 C 0.73455 0.23849 0.50364 0.0
C141 C 0.75741 0.23508 0.48397 0.0
C142 C 0.73546 0.19368 0.46939 0.0
C143 C 0.69177 0.15706 0.47404 0.0
C144 C 0.80225 0.27457 0.47705 0.0
C145 C 0.83135 0.31252 0.49124 0.0
C146 C 0.87414 0.35367 0.48359 0.0
C147 C 0.89491 0.39542 0.49793 0.0
C148 C 0.93295 0.43575 0.49077 0.0
C149 C 0.95121 0.43536 0.46903 0.0
H150 H 0.88107 0.32148 0.45107 0.0
C151 C 0.93206 0.39313 0.45523 0.0
C152 C 0.89427 0.35284 0.4624 0.0
H153 H 0.94591 0.3914 0.43857 0.0
H154 H 0.67403 0.20635 0.52326 0.0
H155 H 0.74924 0.26976 0.51515 0.0
H156 H 0.75188 0.18988 0.45404 0.0
H157 H 0.67569 0.12619 0.46213 0.0
H158 H 0.81061 0.2721 0.45913 0.0
H159 H 0.82301 0.31476 0.5092 0.0
H160 H 0.88076 0.39729 0.51447 0.0
H161 H 0.94673 0.46767 0.5018 0.0
C162 C 0.54078 0.68047 0.78803 0.0
C163 C 0.53844 0.65826 0.80821 0.0
C164 C 0.54768 0.72521 0.78953 0.0
C165 C 0.55224 0.74901 0.81131 0.0
C166 C 0.55067 0.72712 0.83151 0.0
C167 C 0.54436 0.68243 0.83 0.0
C168 C 0.55504 0.79491 0.81322 0.0
C169 C 0.57433 0.82566 0.79701 0.0
C170 C 0.57335 0.86946 0.79621 0.0
C171 C 0.60314 0.90219 0.78136 0.0
C172 C 0.59897 0.94016 0.77684 0.0
C173 C 0.56472 0.94652 0.78698 0.0
H174 H 0.51671 0.85267 0.81889 0.0
C175 C 0.53665 0.91561 0.80302 0.0
C176 C 0.54078 0.87727 0.80757 0.0
H177 H 0.50962 0.91939 0.81088 0.0
H178 H 0.53601 0.66275 0.77096 0.0
H179 H 0.54739 0.74015 0.77353 0.0
H180 H 0.55365 0.74436 0.84852 0.0
H181 H 0.54213 0.66611 0.84589 0.0
H182 H 0.54102 0.8033 0.82836 0.0
H183 H 0.59178 0.81826 0.78315 0.0
H184 H 0.62862 0.89737 0.77239 0.0
H185 H 0.62122 0.9635 0.76447 0.0
C186 C 0.77009 0.5235 0.16546 0.0
C187 C 0.78383 0.503 0.14773 0.0
C188 C 0.72872 0.52347 0.16287 0.0
C189 C 0.70045 0.50315 0.14237 0.0
C190 C 0.71498 0.48371 0.12455 0.0
C191 C 0.75601 0.4836 0.12717 0.0
C192 C 0.65498 0.49966 0.13871 0.0
C193 C 0.63809 0.52109 0.15241 0.0
C194 C 0.59311 0.51701 0.14636 0.0
C195 C 0.58738 0.55527 0.1509 0.0
C196 C 0.54818 0.55447 0.14199 0.0
C197 C 0.51409 0.51522 0.1286 0.0
H198 H 0.55903 0.44547 0.13191 0.0
C199 C 0.51789 0.47562 0.12588 0.0
C200 C 0.55677 0.47632 0.13483 0.0
H201 H 0.49184 0.44488 0.11571 0.0
H202 H 0.79066 0.53847 0.1816 0.0
H203 H 0.71881 0.53842 0.17717 0.0
H204 H 0.69415 0.46787 0.10854 0.0
H205 H 0.76551 0.4676 0.11313 0.0
H206 H 0.63482 0.47915 0.12309 0.0
H207 H 0.65872 0.54487 0.16707 0.0
H208 H 0.61452 0.58678 0.16006 0.0
H209 H 0.54606 0.58552 0.14415 0.0
C210 C 0.37902 0.83702 0.49411 0.0
C211 C 0.40892 0.8383 0.47693 0.0
C212 C 0.33492 0.79766 0.49524 0.0
C213 C 0.31981 0.75871 0.47915 0.0
C214 C 0.34982 0.76041 0.46203 0.0
C215 C 0.39348 0.7995 0.46087 0.0
C216 C 0.27385 0.71523 0.47944 0.0
C217 C 0.23706 0.71136 0.49047 0.0
C218 C 0.19041 0.66852 0.48752 0.0
C219 C 0.15117 0.67282 0.48806 0.0
C220 C 0.10734 0.63447 0.48215 0.0
C221 C 0.10163 0.5907 0.47614 0.0
H222 H 0.21343 0.61894 0.48314 0.0
C223 C 0.14025 0.5855 0.47733 0.0
C224 C 0.18424 0.62399 0.48301 0.0
H225 H 0.13681 0.55224 0.47243 0.0
H226 H 0.38989 0.86614 0.50688 0.0
H227 H 0.31337 0.79772 0.50897 0.0
H228 H 0.33947 0.73119 0.44938 0.0
H229 H 0.41537 0.79896 0.44739 0.0
H230 H 0.26936 0.68555 0.46853 0.0
H231 H 0.23964 0.74159 0.49991 0.0
H232 H 0.15466 0.70646 0.49168 0.0
H233 H 0.07817 0.63949 0.48097 0.0
C234 C 0.58159 0.35544 0.84648 0.0
C235 C 0.566 0.3759 0.83108 0.0
C236 C 0.57231 0.31008 0.84156 0.0
C237 C 0.54738 0.28401 0.82094 0.0
C238 C 0.53091 0.30424 0.80588 0.0
C239 C 0.54009 0.34951 0.81084 0.0
C240 C 0.53768 0.236 0.81425 0.0
C241 C 0.55782 0.21525 0.82455 0.0
C242 C 0.55013 0.16874 0.81604 0.0
C243 C 0.58388 0.15748 0.82128 0.0
C244 C 0.58004 0.11616 0.81174 0.0
C245 C 0.54221 0.08514 0.79678 0.0
H246 H 0.48272 0.14189 0.79881 0.0
C247 C 0.50693 0.09483 0.79286 0.0
C248 C 0.51063 0.1359 0.80245 0.0
H249 H 0.477 0.07119 0.78167 0.0
H250 H 0.60138 0.3746 0.86234 0.0
H251 H 0.5848 0.29597 0.85405 0.0
H252 H 0.51133 0.28515 0.78995 0.0
H253 H 0.52747 0.36403 0.79858 0.0
H254 H 0.51451 0.21809 0.79911 0.0
H255 H 0.58351 0.23395 0.83865 0.0
H256 H 0.61436 0.18164 0.83199 0.0
H257 H 0.60788 0.10978 0.81499 0.0
C258 C 0.57091 0.84346 0.53075 0.0
C259 C 0.58035 0.86781 0.51076 0.0
C260 C 0.58086 0.80831 0.532 0.0
C261 C 0.60027 0.79663 0.51323 0.0
C262 C 0.61213 0.82258 0.49378 0.0
C263 C 0.60195 0.85775 0.49246 0.0
C264 C 0.60773 0.7571 0.51372 0.0
C265 C 0.57704 0.71822 0.52315 0.0
C266 C 0.58382 0.67898 0.52681 0.0
C267 C 0.55762 0.64897 0.5435 0.0
C268 C 0.56421 0.61304 0.54884 0.0
C269 C 0.59692 0.60604 0.53744 0.0
H270 H 0.63546 0.6926 0.50127 0.0
C271 C 0.6219 0.63464 0.51999 0.0
C272 C 0.61553 0.67104 0.51472 0.0
H273 H 0.64704 0.62953 0.51086 0.0
H274 H 0.55494 0.85084 0.54529 0.0
H275 H 0.57298 0.79004 0.54763 0.0
H276 H 0.62779 0.81458 0.47929 0.0
H277 H 0.61003 0.87628 0.47691 0.0
H278 H 0.63849 0.76039 0.50621 0.0
H279 H 0.54599 0.71594 0.52982 0.0
H280 H 0.53262 0.65395 0.55289 0.0
H281 H 0.54387 0.5908 0.56205 0.0
C282 C 0.75114 0.53504 0.80303 0.0
C283 C 0.72873 0.55294 0.81672 0.0
C284 C 0.79769 0.55064 0.80763 0.0
C285 C 0.82255 0.58446 0.82602 0.0
C286 C 0.8009 0.60454 0.83858 0.0
C287 C 0.75437 0.58874 0.83411 0.0
C288 C 0.86963 0.59707 0.83397 0.0
C289 C 0.88404 0.5664 0.83273 0.0
C290 C 0.92486 0.57323 0.8463 0.0
C291 C 0.9442 0.5462 0.83959 0.0
C292 C 0.97838 0.54682 0.85369 0.0
C293 C 0.99345 0.57415 0.87494 0.0
H294 H 0.9264 0.62214 0.8735 0.0
C295 C 0.97519 0.60228 0.88134 0.0
C296 C 0.94118 0.60179 0.86724 0.0
H297 H 0.98647 0.62394 0.89756 0.0
H298 H 0.73242 0.5079 0.78926 0.0
H299 H 0.81376 0.53552 0.79707 0.0
H300 H 0.81942 0.63096 0.85269 0.0
H301 H 0.73824 0.60374 0.84474 0.0
H302 H 0.89049 0.63048 0.84364 0.0
H303 H 0.86324 0.53306 0.82297 0.0
H304 H 0.93189 0.52349 0.82371 0.0
H305 H 0.99161 0.52447 0.84843 0.0
C306 C 0.1658 0.7337 0.13297 0.0
C307 C 0.1386 0.7248 0.15243 0.0
C308 C 0.20909 0.77371 0.13319 0.0
C309 C 0.226 0.80548 0.15293 0.0
C310 C 0.19707 0.79877 0.17143 0.0
C311 C 0.15377 0.75864 0.17126 0.0
C312 C 0.27497 0.84279 0.15592 0.0
C313 C 0.30892 0.83634 0.14809 0.0
C314 C 0.35708 0.8653 0.15743 0.0
C315 C 0.38212 0.8435 0.16178 0.0
C316 C 0.42469 0.86778 0.17402 0.0
C317 C 0.44343 0.91457 0.18157 0.0
H318 H 0.35888 0.93077 0.16024 0.0
C319 C 0.42009 0.9374 0.17573 0.0
C320 C 0.37703 0.91287 0.16382 0.0
H321 H 0.43402 0.97353 0.18145 0.0
H322 H 0.15467 0.70875 0.11797 0.0
H323 H 0.22997 0.77875 0.1183 0.0
H324 H 0.20915 0.82309 0.18673 0.0
H325 H 0.13335 0.75306 0.18638 0.0
H326 H 0.28343 0.87223 0.16817 0.0
H327 H 0.30019 0.80446 0.13784 0.0
H328 H 0.36754 0.80693 0.15689 0.0
H329 H 0.4423 0.84966 0.1783 0.0
C330 C 0.5377 0.19408 0.45631 0.0
C331 C 0.51599 0.15928 0.47172 0.0
C332 C 0.54432 0.23814 0.46187 0.0
C333 C 0.52915 0.2479 0.48295 0.0
C334 C 0.50455 0.21217 0.49744 0.0
C335 C 0.49776 0.16822 0.49184 0.0
C336 C 0.5436 0.29565 0.49199 0.0
C337 C 0.55653 0.33129 0.47879 0.0
C338 C 0.5743 0.37806 0.49022 0.0
C339 C 0.55278 0.40309 0.48566 0.0
C340 C 0.56427 0.44348 0.49952 0.0
C341 C 0.59806 0.45969 0.51785 0.0
H342 H 0.62768 0.37722 0.51089 0.0
C343 C 0.62212 0.43639 0.52099 0.0
C344 C 0.6101 0.39576 0.50742 0.0
H345 H 0.64915 0.44863 0.5345 0.0
H346 H 0.55207 0.18821 0.44064 0.0
H347 H 0.56393 0.26502 0.45042 0.0
H348 H 0.4924 0.21882 0.51373 0.0
H349 H 0.48053 0.14208 0.504 0.0
H350 H 0.54442 0.30207 0.51079 0.0
H351 H 0.55234 0.32608 0.45995 0.0
H352 H 0.52514 0.38988 0.4724 0.0
H353 H 0.54485 0.4604 0.49671 0.0
C354 C 0.37146 0.54178 0.86398 0.0
C355 C 0.3775 0.52351 0.84263 0.0
C356 C 0.33168 0.54347 0.86756 0.0
C357 C 0.29707 0.52735 0.84976 0.0
C358 C 0.30216 0.5074 0.82869 0.0
C359 C 0.34222 0.50569 0.82508 0.0
C360 C 0.25505 0.53 0.85323 0.0
C361 C 0.25606 0.56466 0.8668 0.0
C362 C 0.21467 0.56645 0.87342 0.0
C363 C 0.21831 0.59434 0.89345 0.0
C364 C 0.17998 0.59555 0.90125 0.0
C365 C 0.1372 0.56919 0.88901 0.0
H366 H 0.16805 0.52008 0.84489 0.0
C367 C 0.13372 0.54239 0.86852 0.0
C368 C 0.17209 0.54101 0.86076 0.0
H369 H 0.10109 0.52171 0.85876 0.0
H370 H 0.3976 0.55504 0.87803 0.0
H371 H 0.32805 0.55711 0.88441 0.0
H372 H 0.27555 0.494 0.81487 0.0
H373 H 0.34585 0.49112 0.80849 0.0
H374 H 0.22312 0.50256 0.84471 0.0
H375 H 0.28885 0.59227 0.87457 0.0
H376 H 0.25078 0.61462 0.90342 0.0
H377 H 0.1838 0.6171 0.91688 0.0
C378 C 0.80879 0.3361 0.18421 0.0
C379 C 0.80318 0.37056 0.19608 0.0
C380 C 0.77886 0.28942 0.18746 0.0
C381 C 0.74239 0.27634 0.20254 0.0
C382 C 0.73739 0.31099 0.21459 0.0
C383 C 0.76736 0.35752 0.21141 0.0
C384 C 0.70919 0.22744 0.20671 0.0
C385 C 0.7037 0.19035 0.19343 0.0
C386 C 0.66869 0.14222 0.19803 0.0
C387 C 0.65112 0.10741 0.17962 0.0
C388 C 0.61647 0.06231 0.18322 0.0
C389 C 0.59889 0.05114 0.20538 0.0
H390 H 0.66617 0.15569 0.23527 0.0
C391 C 0.61753 0.08578 0.22391 0.0
C392 C 0.65236 0.13052 0.22037 0.0
H393 H 0.60459 0.07876 0.24117 0.0
H394 H 0.83637 0.34515 0.17241 0.0
H395 H 0.78492 0.26414 0.17829 0.0
H396 H 0.7099 0.30206 0.22645 0.0
H397 H 0.76213 0.38321 0.22087 0.0
H398 H 0.68659 0.22214 0.22092 0.0
H399 H 0.7231 0.19495 0.17796 0.0
H400 H 0.66357 0.1153 0.1623 0.0
H401 H 0.60339 0.03627 0.16866 0.0
C402 C 0.97642 0.51587 0.10041 0.0
C403 C 0.98166 0.55404 0.1145 0.0
C404 C 0.99167 0.52114 0.07778 0.0
C405 C 0.01226 0.56472 0.06873 0.0
C406 C 0.01867 0.60306 0.08304 0.0
C407 C 0.0031 0.59772 0.10561 0.0
C408 C 0.02713 0.5713 0.04447 0.0
C409 C 0.00549 0.53805 0.02697 0.0
C410 C 0.01759 0.54522 0.00233 0.0
C411 C 0.98329 0.51889 0.98478 0.0
C412 C 0.99306 0.52492 0.96138 0.0
C413 C 0.03759 0.55701 0.95503 0.0
H414 H 0.09005 0.59689 0.00901 0.0
C415 C 0.07225 0.58271 0.97255 0.0
C416 C 0.0624 0.57693 0.99599 0.0
H417 H 0.10691 0.60764 0.96812 0.0
H418 H 0.96036 0.48182 0.10684 0.0
H419 H 0.98747 0.49107 0.06749 0.0
H420 H 0.0347 0.63705 0.07653 0.0
H421 H 0.00726 0.62774 0.11596 0.0
H422 H 0.05413 0.60562 0.04069 0.0
H423 H 0.97546 0.50531 0.03047 0.0
H424 H 0.94864 0.49389 0.98919 0.0
H425 H 0.96585 0.50408 0.94823 0.0
C426 C 0.54392 0.96103 0.40918 0.0
C427 C 0.51679 0.97549 0.42113 0.0
C428 C 0.53681 0.94916 0.38525 0.0
C429 C 0.50201 0.95113 0.37267 0.0
C430 C 0.47474 0.96536 0.3847 0.0
C431 C 0.48195 0.97734 0.40866 0.0
C432 C 0.49491 0.94177 0.34695 0.0
C433 C 0.51369 0.92167 0.33373 0.0
C434 C 0.5115 0.91987 0.30799 0.0
C435 C 0.54977 0.92572 0.29593 0.0
C436 C 0.55157 0.93089 0.27206 0.0
C437 C 0.51471 0.92948 0.25979 0.0
H438 H 0.44262 0.90914 0.30409 0.0
C439 C 0.47493 0.92002 0.27155 0.0
C440 C 0.4733 0.91522 0.29543 0.0
H441 H 0.44602 0.91886 0.26257 0.0
H442 H 0.57117 0.95931 0.41826 0.0
H443 H 0.5596 0.93968 0.37685 0.0
H444 H 0.44793 0.96759 0.37548 0.0
H445 H 0.4604 0.98829 0.41735 0.0
H446 H 0.47483 0.95412 0.33846 0.0
H447 H 0.53462 0.9098 0.34164 0.0
H448 H 0.57937 0.92877 0.30519 0.0
H449 H 0.58243 0.93766 0.26334 0.0
C450 C 0.5927 0.51962 0.75021 0.0
C451 C 0.54839 0.50404 0.75823 0.0
C452 C 0.59913 0.51434 0.72662 0.0
C453 C 0.56137 0.49408 0.71037 0.0
C454 C 0.51695 0.4775 0.71845 0.0
C455 C 0.51046 0.48241 0.74214 0.0
C456 C 0.56697 0.49007 0.68496 0.0
C457 C 0.60656 0.51763 0.67478 0.0
C458 C 0.61062 0.51763 0.6492 0.0
C459 C 0.64333 0.55864 0.63994 0.0
C460 C 0.64558 0.56154 0.61594 0.0
C461 C 0.61548 0.52325 0.60069 0.0
H462 H 0.55766 0.44579 0.64043 0.0
C463 C 0.58458 0.48133 0.60988 0.0
C464 C 0.58218 0.47847 0.63393 0.0
H465 H 0.56096 0.45127 0.59851 0.0
H466 H 0.62263 0.53581 0.76218 0.0
H467 H 0.63375 0.52596 0.72136 0.0
H468 H 0.48719 0.46135 0.70635 0.0
H469 H 0.47584 0.46975 0.74779 0.0
H470 H 0.53633 0.46622 0.67419 0.0
H471 H 0.63604 0.5445 0.68527 0.0
H472 H 0.66612 0.5891 0.65132 0.0
H473 H 0.67016 0.5941 0.60928 0.0
C474 C 0.51518 0.02539 0.56782 0.0
C475 C 0.54634 0.01872 0.55455 0.0
C476 C 0.51789 0.02708 0.59214 0.0
C477 C 0.55191 0.02213 0.60365 0.0
C478 C 0.58358 0.01656 0.59035 0.0
C479 C 0.58071 0.01459 0.56613 0.0
C480 C 0.55635 0.02326 0.62939 0.0
C481 C 0.52138 0.01245 0.64358 0.0
C482 C 0.52617 0.01152 0.66919 0.0
C483 C 0.49595 0.01745 0.68358 0.0
C484 C 0.49953 0.0169 0.70772 0.0
C485 C 0.53318 0.0099 0.718 0.0
H486 H 0.58213 0.99711 0.66903 0.0
C487 C 0.5628 1.003 0.70356 0.0
C488 C 0.55923 1.00356 0.67946 0.0
H489 H 0.58925 0.99773 0.7109 0.0
H490 H 0.48849 0.02901 0.55943 0.0
H491 H 0.49367 0.03283 0.60176 0.0
H492 H 0.61035 0.01303 0.59873 0.0
H493 H 0.60543 0.00961 0.55648 0.0
H494 H 0.58982 0.03209 0.63671 0.0
H495 H 0.48795 0.00409 0.63642 0.0
H496 H 0.46973 0.02296 0.67614 0.0
H497 H 0.47573 0.02163 0.71833 0.0
C498 C 0.48122 0.4949 0.89849 0.0
C499 C 0.52559 0.51403 0.88991 0.0
C500 C 0.47536 0.49887 0.92231 0.0
C501 C 0.51382 0.52184 0.93813 0.0
C502 C 0.55807 0.54086 0.92952 0.0
C503 C 0.56394 0.53685 0.90572 0.0
C504 C 0.50954 0.52836 0.96353 0.0
C505 C 0.4716 0.50087 0.97493 0.0
C506 C 0.46775 0.50702 0.00045 0.0
C507 C 0.42378 0.48566 0.00956 0.0
C508 C 0.4186 0.48956 0.03348 0.0
C509 C 0.45741 0.51474 0.04887 0.0
H510 H 0.5412 0.54817 0.00996 0.0
C511 C 0.50138 0.53624 0.03977 0.0
C512 C 0.50657 0.53221 0.01592 0.0
H513 H 0.53199 0.55625 0.05113 0.0
H514 H 0.45092 0.47749 0.88679 0.0
H515 H 0.44069 0.48494 0.92806 0.0
H516 H 0.58831 0.55897 0.94127 0.0
H517 H 0.59863 0.55215 0.89971 0.0
H518 H 0.53945 0.55681 0.97302 0.0
H519 H 0.44176 0.47245 0.96533 0.0
H520 H 0.39326 0.46569 -0.00188 0.0
H521 H 0.38427 0.47206 0.03996 0.0
C522 C 0.01024 0.58523 0.25629 0.0
C523 C 0.97186 0.55513 0.24138 0.0
C524 C 0.00997 0.57888 0.28003 0.0
C525 C 0.97114 0.54233 0.28939 0.0
C526 C 0.93267 0.51268 0.27453 0.0
C527 C 0.93287 0.51909 0.25085 0.0
C528 C 0.97048 0.53218 0.31412 0.0
C529 C 0.99723 0.56412 0.33132 0.0
C530 C 0.99791 0.55319 0.35583 0.0
C531 C 0.01236 0.58882 0.37365 0.0
C532 C 0.01577 0.58052 0.39678 0.0
C533 C 0.00531 0.53642 0.40261 0.0
H534 H 0.97708 0.48083 0.34838 0.0
C535 C 0.99048 0.50061 0.3848 0.0
C536 C 0.98693 0.50888 0.36165 0.0
H537 H 0.98303 0.4665 0.38865 0.0
H538 H 0.04099 0.61309 0.24956 0.0
H539 H 0.04082 0.60174 0.29074 0.0
H540 H 0.90244 0.48408 0.28121 0.0
H541 H 0.90273 0.49507 0.23991 0.0
H542 H 0.94594 0.49722 0.31829 0.0
H543 H 0.01853 0.60005 0.32761 0.0
H544 H 0.02122 0.62329 0.36966 0.0
H545 H 0.02681 0.60875 0.41012 0.0
loop_
_geom_bond_atom_site_label_1
_geom_bond_atom_site_label_2
_geom_bond_distance
_geom_bond_site_symmetry_2
_ccdc_geom_bond_type
Zn0 O6 1.969 . S
Zn0 O7 1.965 . S
Zn0 O11 2.024 . S
Zn0 O16 1.969 . S
Zn1 O8 1.969 . S
Zn1 O14 1.969 . S
Zn1 O15 1.965 . S
Zn1 O17 2.024 . S
C2 O3 1.229 . S
C2 O11 1.058 . S
O3 C2 1.229 . S
C4 O5 1.229 . S
C4 O17 1.058 . S
O5 C4 1.229 . S
O6 Zn0 1.969 . S
O6 C9 1.267 . S
O7 Zn0 1.965 . S
O7 C18 1.260 1_455 S
O8 Zn1 1.969 . S
O8 C18 1.258 . S
C9 O6 1.267 . S
C9 O10 1.228 . S
O10 C9 1.228 . S
O11 Zn0 2.024 . S
O11 C2 1.058 . S
C12 O13 1.228 . S
C12 O14 1.267 . S
O13 C12 1.228 . S
O14 Zn1 1.969 . S
O14 C12 1.267 . S
O15 Zn1 1.965 . S
O15 C19 1.260 1_655 S
O16 Zn0 1.969 . S
O16 C19 1.258 . S
O17 Zn1 2.024 . S
O17 C4 1.058 . S
C18 O7 1.260 1_655 S
C18 O8 1.258 . S
C19 O15 1.260 1_455 S
C19 O16 1.258 . S
Zn20 O26 1.969 . S
Zn20 O27 1.965 . S
Zn20 O31 2.024 . S
Zn20 O36 1.969 . S
Zn21 O28 1.969 . S
Zn21 O34 1.969 . S
Zn21 O35 1.965 . S
Zn21 O37 2.024 . S
C22 O23 1.229 . S
C22 O31 1.058 . S
O23 C22 1.229 . S
C24 O25 1.229 . S
C24 O37 1.058 . S
O25 C24 1.229 . S
O26 Zn20 1.969 . S
O26 C29 1.267 . S
O27 Zn20 1.965 . S
O27 C38 1.260 . S
O28 Zn21 1.969 . S
O28 C38 1.258 1_565 S
C29 O26 1.267 . S
C29 O30 1.228 . S
O30 C29 1.228 . S
O31 Zn20 2.024 . S
O31 C22 1.058 . S
C32 O33 1.228 . S
C32 O34 1.267 . S
O33 C32 1.228 . S
O34 Zn21 1.969 . S
O34 C32 1.267 . S
O35 Zn21 1.965 . S
O35 C39 1.260 1_565 S
O36 Zn20 1.969 . S
O36 C39 1.258 . S
O37 Zn21 2.024 . S
O37 C24 1.058 . S
C38 O27 1.260 . S
C38 O28 1.258 1_545 S
C39 O35 1.260 1_545 S
C39 O36 1.258 . S
Zn40 O46 1.969 . S
Zn40 O47 1.965 . S
Zn40 O51 2.024 . S
Zn40 O56 1.969 . S
Zn41 O48 1.969 . S
Zn41 O54 1.969 . S
Zn41 O55 1.965 . S
Zn41 O57 2.024 . S
C42 O43 1.229 . S
C42 O51 1.058 . S
O43 C42 1.229 . S
C44 O45 1.229 . S
C44 O57 1.058 . S
O45 C44 1.229 . S
O46 Zn40 1.969 . S
O46 C49 1.267 . S
O47 Zn40 1.965 . S
O47 C58 1.260 . S
O48 Zn41 1.969 . S
O48 C58 1.258 . S
C49 O46 1.267 . S
C49 O50 1.228 . S
O50 C49 1.228 . S
O51 Zn40 2.024 . S
O51 C42 1.058 . S
C52 O53 1.228 . S
C52 O54 1.267 . S
O53 C52 1.228 . S
O54 Zn41 1.969 . S
O54 C52 1.267 . S
O55 Zn41 1.965 . S
O55 C59 1.260 . S
O56 Zn40 1.969 . S
O56 C59 1.258 . S
O57 Zn41 2.024 . S
O57 C44 1.058 . S
C58 O47 1.260 . S
C58 O48 1.258 . S
C59 O55 1.260 . S
C59 O56 1.258 . S
H60 C63 0.931 . S
H61 C66 0.928 . S
H62 C68 0.930 . S
C63 H60 0.931 . S
C63 C64 1.413 . S
C63 C65 1.360 1_565 S
C64 C63 1.413 . S
C64 C68 1.429 1_565 S
C65 C63 1.360 1_545 S
C65 C66 1.372 . S
C66 H61 0.928 . S
C66 C65 1.372 . S
C66 C67 1.404 . S
C67 C66 1.404 . S
C67 C68 1.391 . S
C68 H62 0.930 . S
C68 C64 1.429 1_545 S
C68 C67 1.391 . S
H69 C72 0.931 . S
H70 C75 0.928 . S
H71 C77 0.930 . S
C72 H69 0.931 . S
C72 C73 1.413 . S
C72 C74 1.360 . S
C73 C72 1.413 . S
C73 C77 1.429 . S
C74 C72 1.360 . S
C74 C75 1.372 . S
C75 H70 0.928 . S
C75 C74 1.372 . S
C75 C76 1.404 . S
C76 C75 1.404 . S
C76 C77 1.391 . S
C77 H71 0.930 . S
C77 C73 1.429 . S
C77 C76 1.391 . S
H78 C81 0.931 . S
H79 C84 0.928 . S
H80 C86 0.930 . S
C81 H78 0.931 . S
C81 C82 1.413 . S
C81 C83 1.360 1_655 S
C82 C81 1.413 . S
C82 C86 1.429 1_655 S
C83 C81 1.360 1_455 S
C83 C84 1.372 . S
C84 H79 0.928 . S
C84 C83 1.372 . S
C84 C85 1.404 . S
C85 C84 1.404 . S
C85 C86 1.391 . S
C86 H80 0.930 . S
C86 C82 1.429 1_455 S
C86 C85 1.391 . S
H87 C90 0.931 . S
H88 C93 0.928 . S
H89 C95 0.930 . S
C90 H87 0.931 . S
C90 C91 1.413 . S
C90 C92 1.360 1_655 S
C91 C90 1.413 . S
C91 C95 1.429 1_655 S
C92 C90 1.360 1_455 S
C92 C93 1.372 . S
C93 H88 0.928 . S
C93 C92 1.372 . S
C93 C94 1.404 . S
C94 C93 1.404 . S
C94 C95 1.391 . S
C95 H89 0.930 . S
C95 C91 1.429 1_455 S
C95 C94 1.391 . S
H96 C99 0.931 . S
H97 C102 0.928 . S
H98 C104 0.930 . S
C99 H96 0.931 . S
C99 C100 1.413 . S
C99 C101 1.360 . S
C100 C99 1.413 . S
C100 C104 1.429 . S
C101 C99 1.360 . S
C101 C102 1.372 1_545 S
C102 H97 0.928 . S
C102 C101 1.372 1_565 S
C102 C103 1.404 . S
C103 C102 1.404 . S
C103 C104 1.391 1_565 S
C104 H98 0.930 . S
C104 C100 1.429 . S
C104 C103 1.391 1_545 S
H105 C108 0.931 . S
H106 C111 0.928 . S
H107 C113 0.930 . S
C108 H105 0.931 . S
C108 C109 1.413 . S
C108 C110 1.360 . S
C109 C108 1.413 . S
C109 C113 1.429 . S
C110 C108 1.360 . S
C110 C111 1.372 . S
C111 H106 0.928 . S
C111 C110 1.372 . S
C111 C112 1.404 . S
C112 C111 1.404 . S
C112 C113 1.391 . S
C113 H107 0.930 . S
C113 C109 1.429 . S
C113 C112 1.391 . S
C114 C115 1.386 . S
C114 C116 1.383 . S
C114 H130 0.951 . S
C115 C114 1.386 . S
C115 C119 1.383 . S
C116 C114 1.383 . S
C116 C117 1.402 . S
C116 H131 0.951 . S
C117 C116 1.402 . S
C117 C118 1.375 . S
C117 C120 1.481 . S
C118 C117 1.375 . S
C118 C119 1.367 . S
C118 H132 0.951 . S
C119 C115 1.383 . S
C119 C118 1.367 . S
C119 H133 0.950 . S
C120 C117 1.481 . S
C120 C121 1.297 . S
C120 H134 0.950 . S
C121 C120 1.297 . S
C121 C122 1.479 . S
C121 H135 0.950 . S
C122 C121 1.479 . S
C122 C123 1.375 . S
C122 C128 1.404 . S
C123 C122 1.375 . S
C123 C124 1.369 . S
C123 H136 0.950 . S
C124 C123 1.369 . S
C124 C125 1.392 . S
C124 H137 0.951 . S
C125 C124 1.392 . S
C125 C127 1.384 . S
H126 C128 0.949 . S
C127 C125 1.384 . S
C127 C128 1.385 . S
C127 H129 0.950 . S
C128 C122 1.404 . S
C128 H126 0.949 . S
C128 C127 1.385 . S
H129 C127 0.950 . S
H130 C114 0.951 . S
H131 C116 0.951 . S
H132 C118 0.951 . S
H133 C119 0.950 . S
H134 C120 0.950 . S
H135 C121 0.950 . S
H136 C123 0.950 . S
H137 C124 0.951 . S
C138 C139 1.386 . S
C138 C140 1.383 . S
C138 H154 0.951 . S
C139 C138 1.386 . S
C139 C143 1.383 . S
C140 C138 1.383 . S
C140 C141 1.402 . S
C140 H155 0.951 . S
C141 C140 1.402 . S
C141 C142 1.375 . S
C141 C144 1.481 . S
C142 C141 1.375 . S
C142 C143 1.367 . S
C142 H156 0.951 . S
C143 C139 1.383 . S
C143 C142 1.367 . S
C143 H157 0.950 . S
C144 C141 1.481 . S
C144 C145 1.297 . S
C144 H158 0.950 . S
C145 C144 1.297 . S
C145 C146 1.479 . S
C145 H159 0.950 . S
C146 C145 1.479 . S
C146 C147 1.375 . S
C146 C152 1.404 . S
C147 C146 1.375 . S
C147 C148 1.369 . S
C147 H160 0.950 . S
C148 C147 1.369 . S
C148 C149 1.392 . S
C148 H161 0.951 . S
C149 C148 1.392 . S
C149 C151 1.384 . S
H150 C152 0.949 . S
C151 C149 1.384 . S
C151 C152 1.385 . S
C151 H153 0.950 . S
C152 C146 1.404 . S
C152 H150 0.949 . S
C152 C151 1.385 . S
H153 C151 0.950 . S
H154 C138 0.951 . S
H155 C140 0.951 . S
H156 C142 0.951 . S
H157 C143 0.950 . S
H158 C144 0.950 . S
H159 C145 0.950 . S
H160 C147 0.950 . S
H161 C148 0.951 . S
C162 C163 1.386 . S
C162 C164 1.383 . S
C162 H178 0.951 . S
C163 C162 1.386 . S
C163 C167 1.383 . S
C164 C162 1.383 . S
C164 C165 1.402 . S
C164 H179 0.951 . S
C165 C164 1.402 . S
C165 C166 1.375 . S
C165 C168 1.481 . S
C166 C165 1.375 . S
C166 C167 1.367 . S
C166 H180 0.951 . S
C167 C163 1.383 . S
C167 C166 1.367 . S
C167 H181 0.950 . S
C168 C165 1.481 . S
C168 C169 1.297 . S
C168 H182 0.950 . S
C169 C168 1.297 . S
C169 C170 1.479 . S
C169 H183 0.950 . S
C170 C169 1.479 . S
C170 C171 1.375 . S
C170 C176 1.404 . S
C171 C170 1.375 . S
C171 C172 1.369 . S
C171 H184 0.950 . S
C172 C171 1.369 . S
C172 C173 1.392 . S
C172 H185 0.951 . S
C173 C172 1.392 . S
C173 C175 1.384 . S
H174 C176 0.949 . S
C175 C173 1.384 . S
C175 C176 1.385 . S
C175 H177 0.950 . S
C176 C170 1.404 . S
C176 H174 0.949 . S
C176 C175 1.385 . S
H177 C175 0.950 . S
H178 C162 0.951 . S
H179 C164 0.951 . S
H180 C166 0.951 . S
H181 C167 0.950 . S
H182 C168 0.950 . S
H183 C169 0.950 . S
H184 C171 0.950 . S
H185 C172 0.951 . S
C186 C187 1.386 . S
C186 C188 1.383 . S
C186 H202 0.951 . S
C187 C186 1.386 . S
C187 C191 1.383 . S
C188 C186 1.383 . S
C188 C189 1.402 . S
C188 H203 0.951 . S
C189 C188 1.402 . S
C189 C190 1.375 . S
C189 C192 1.481 . S
C190 C189 1.375 . S
C190 C191 1.367 . S
C190 H204 0.951 . S
C191 C187 1.383 . S
C191 C190 1.367 . S
C191 H205 0.950 . S
C192 C189 1.481 . S
C192 C193 1.297 . S
C192 H206 0.950 . S
C193 C192 1.297 . S
C193 C194 1.479 . S
C193 H207 0.950 . S
C194 C193 1.479 . S
C194 C195 1.375 . S
C194 C200 1.404 . S
C195 C194 1.375 . S
C195 C196 1.369 . S
C195 H208 0.950 . S
C196 C195 1.369 . S
C196 C197 1.392 . S
C196 H209 0.951 . S
C197 C196 1.392 . S
C197 C199 1.384 . S
H198 C200 0.949 . S
C199 C197 1.384 . S
C199 C200 1.385 . S
C199 H201 0.950 . S
C200 C194 1.404 . S
C200 H198 0.949 . S
C200 C199 1.385 . S
H201 C199 0.950 . S
H202 C186 0.951 . S
H203 C188 0.951 . S
H204 C190 0.951 . S
H205 C191 0.950 . S
H206 C192 0.950 . S
H207 C193 0.950 . S
H208 C195 0.950 . S
H209 C196 0.951 . S
C210 C211 1.386 . S
C210 C212 1.383 . S
C210 H226 0.951 . S
C211 C210 1.386 . S
C211 C215 1.383 . S
C212 C210 1.383 . S
C212 C213 1.402 . S
C212 H227 0.951 . S
C213 C212 1.402 . S
C213 C214 1.375 . S
C213 C216 1.481 . S
C214 C213 1.375 . S
C214 C215 1.367 . S
C214 H228 0.951 . S
C215 C211 1.383 . S
C215 C214 1.367 . S
C215 H229 0.950 . S
C216 C213 1.481 . S
C216 C217 1.297 . S
C216 H230 0.950 . S
C217 C216 1.297 . S
C217 C218 1.479 . S
C217 H231 0.950 . S
C218 C217 1.479 . S
C218 C219 1.375 . S
C218 C224 1.404 . S
C219 C218 1.375 . S
C219 C220 1.369 . S
C219 H232 0.950 . S
C220 C219 1.369 . S
C220 C221 1.392 . S
C220 H233 0.951 . S
C221 C220 1.392 . S
C221 C223 1.384 . S
H222 C224 0.949 . S
C223 C221 1.384 . S
C223 C224 1.385 . S
C223 H225 0.950 . S
C224 C218 1.404 . S
C224 H222 0.949 . S
C224 C223 1.385 . S
H225 C223 0.950 . S
H226 C210 0.951 . S
H227 C212 0.951 . S
H228 C214 0.951 . S
H229 C215 0.950 . S
H230 C216 0.950 . S
H231 C217 0.950 . S
H232 C219 0.950 . S
H233 C220 0.951 . S
C234 C235 1.386 . S
C234 C236 1.383 . S
C234 H250 0.951 . S
C235 C234 1.386 . S
C235 C239 1.383 . S
C236 C234 1.383 . S
C236 C237 1.402 . S
C236 H251 0.951 . S
C237 C236 1.402 . S
C237 C238 1.375 . S
C237 C240 1.481 . S
C238 C237 1.375 . S
C238 C239 1.367 . S
C238 H252 0.951 . S
C239 C235 1.383 . S
C239 C238 1.367 . S
C239 H253 0.950 . S
C240 C237 1.481 . S
C240 C241 1.297 . S
C240 H254 0.950 . S
C241 C240 1.297 . S
C241 C242 1.479 . S
C241 H255 0.950 . S
C242 C241 1.479 . S
C242 C243 1.375 . S
C242 C248 1.404 . S
C243 C242 1.375 . S
C243 C244 1.369 . S
C243 H256 0.950 . S
C244 C243 1.369 . S
C244 C245 1.392 . S
C244 H257 0.951 . S
C245 C244 1.392 . S
C245 C247 1.384 . S
H246 C248 0.949 . S
C247 C245 1.384 . S
C247 C248 1.385 . S
C247 H249 0.950 . S
C248 C242 1.404 . S
C248 H246 0.949 . S
C248 C247 1.385 . S
H249 C247 0.950 . S
H250 C234 0.951 . S
H251 C236 0.951 . S
H252 C238 0.951 . S
H253 C239 0.950 . S
H254 C240 0.950 . S
H255 C241 0.950 . S
H256 C243 0.950 . S
H257 C244 0.951 . S
C258 C259 1.386 . S
C258 C260 1.383 . S
C258 H274 0.951 . S
C259 C258 1.386 . S
C259 C263 1.383 . S
C260 C258 1.383 . S
C260 C261 1.402 . S
C260 H275 0.951 . S
C261 C260 1.402 . S
C261 C262 1.375 . S
C261 C264 1.481 . S
C262 C261 1.375 . S
C262 C263 1.367 . S
C262 H276 0.951 . S
C263 C259 1.383 . S
C263 C262 1.367 . S
C263 H277 0.950 . S
C264 C261 1.481 . S
C264 C265 1.297 . S
C264 H278 0.950 . S
C265 C264 1.297 . S
C265 C266 1.479 . S
C265 H279 0.950 . S
C266 C265 1.479 . S
C266 C267 1.375 . S
C266 C272 1.404 . S
C267 C266 1.375 . S
C267 C268 1.369 . S
C267 H280 0.950 . S
C268 C267 1.369 . S
C268 C269 1.392 . S
C268 H281 0.951 . S
C269 C268 1.392 . S
C269 C271 1.384 . S
H270 C272 0.949 . S
C271 C269 1.384 . S
C271 C272 1.385 . S
C271 H273 0.950 . S
C272 C266 1.404 . S
C272 H270 0.949 . S
C272 C271 1.385 . S
H273 C271 0.950 . S
H274 C258 0.951 . S
H275 C260 0.951 . S
H276 C262 0.951 . S
H277 C263 0.950 . S
H278 C264 0.950 . S
H279 C265 0.950 . S
H280 C267 0.950 . S
H281 C268 0.951 . S
C282 C283 1.386 . S
C282 C284 1.383 . S
C282 H298 0.951 . S
C283 C282 1.386 . S
C283 C287 1.383 . S
C284 C282 1.383 . S
C284 C285 1.402 . S
C284 H299 0.951 . S
C285 C284 1.402 . S
C285 C286 1.375 . S
C285 C288 1.481 . S
C286 C285 1.375 . S
C286 C287 1.367 . S
C286 H300 0.951 . S
C287 C283 1.383 . S
C287 C286 1.367 . S
C287 H301 0.950 . S
C288 C285 1.481 . S
C288 C289 1.297 . S
C288 H302 0.950 . S
C289 C288 1.297 . S
C289 C290 1.479 . S
C289 H303 0.950 . S
C290 C289 1.479 . S
C290 C291 1.375 . S
C290 C296 1.404 . S
C291 C290 1.375 . S
C291 C292 1.369 . S
C291 H304 0.950 . S
C292 C291 1.369 . S
C292 C293 1.392 . S
C292 H305 0.951 . S
C293 C292 1.392 . S
C293 C295 1.384 . S
H294 C296 0.949 . S
C295 C293 1.384 . S
C295 C296 1.385 . S
C295 H297 0.950 . S
C296 C290 1.404 . S
C296 H294 0.949 . S
C296 C295 1.385 . S
H297 C295 0.950 . S
H298 C282 0.951 . S
H299 C284 0.951 . S
H300 C286 0.951 . S
H301 C287 0.950 . S
H302 C288 0.950 . S
H303 C289 0.950 . S
H304 C291 0.950 . S
H305 C292 0.951 . S
C306 C307 1.386 . S
C306 C308 1.383 . S
C306 H322 0.951 . S
C307 C306 1.386 . S
C307 C311 1.383 . S
C308 C306 1.383 . S
C308 C309 1.402 . S
C308 H323 0.951 . S
C309 C308 1.402 . S
C309 C310 1.375 . S
C309 C312 1.481 . S
C310 C309 1.375 . S
C310 C311 1.367 . S
C310 H324 0.951 . S
C311 C307 1.383 . S
C311 C310 1.367 . S
C311 H325 0.950 . S
C312 C309 1.481 . S
C312 C313 1.297 . S
C312 H326 0.950 . S
C313 C312 1.297 . S
C313 C314 1.479 . S
C313 H327 0.950 . S
C314 C313 1.479 . S
C314 C315 1.375 . S
C314 C320 1.404 . S
C315 C314 1.375 . S
C315 C316 1.369 . S
C315 H328 0.950 . S
C316 C315 1.369 . S
C316 C317 1.392 . S
C316 H329 0.951 . S
C317 C316 1.392 . S
C317 C319 1.384 . S
H318 C320 0.949 . S
C319 C317 1.384 . S
C319 C320 1.385 . S
C319 H321 0.950 . S
C320 C314 1.404 . S
C320 H318 0.949 . S
C320 C319 1.385 . S
H321 C319 0.950 . S
H322 C306 0.951 . S
H323 C308 0.951 . S
H324 C310 0.951 . S
H325 C311 0.950 . S
H326 C312 0.950 . S
H327 C313 0.950 . S
H328 C315 0.950 . S
H329 C316 0.951 . S
C330 C331 1.386 . S
C330 C332 1.383 . S
C330 H346 0.951 . S
C331 C330 1.386 . S
C331 C335 1.383 . S
C332 C330 1.383 . S
C332 C333 1.402 . S
C332 H347 0.951 . S
C333 C332 1.402 . S
C333 C334 1.375 . S
C333 C336 1.481 . S
C334 C333 1.375 . S
C334 C335 1.367 . S
C334 H348 0.951 . S
C335 C331 1.383 . S
C335 C334 1.367 . S
C335 H349 0.950 . S
C336 C333 1.481 . S
C336 C337 1.297 . S
C336 H350 0.950 . S
C337 C336 1.297 . S
C337 C338 1.479 . S
C337 H351 0.950 . S
C338 C337 1.479 . S
C338 C339 1.375 . S
C338 C344 1.404 . S
C339 C338 1.375 . S
C339 C340 1.369 . S
C339 H352 0.950 . S
C340 C339 1.369 . S
C340 C341 1.392 . S
C340 H353 0.951 . S
C341 C340 1.392 . S
C341 C343 1.384 . S
H342 C344 0.949 . S
C343 C341 1.384 . S
C343 C344 1.385 . S
C343 H345 0.950 . S
C344 C338 1.404 . S
C344 H342 0.949 . S
C344 C343 1.385 . S
H345 C343 0.950 . S
H346 C330 0.951 . S
H347 C332 0.951 . S
H348 C334 0.951 . S
H349 C335 0.950 . S
H350 C336 0.950 . S
H351 C337 0.950 . S
H352 C339 0.950 . S
H353 C340 0.951 . S
C354 C355 1.386 . S
C354 C356 1.383 . S
C354 H370 0.951 . S
C355 C354 1.386 . S
C355 C359 1.383 . S
C356 C354 1.383 . S
C356 C357 1.402 . S
C356 H371 0.951 . S
C357 C356 1.402 . S
C357 C358 1.375 . S
C357 C360 1.481 . S
C358 C357 1.375 . S
C358 C359 1.367 . S
C358 H372 0.951 . S
C359 C355 1.383 . S
C359 C358 1.367 . S
C359 H373 0.950 . S
C360 C357 1.481 . S
C360 C361 1.297 . S
C360 H374 0.950 . S
C361 C360 1.297 . S
C361 C362 1.479 . S
C361 H375 0.950 . S
C362 C361 1.479 . S
C362 C363 1.375 . S
C362 C368 1.404 . S
C363 C362 1.375 . S
C363 C364 1.369 . S
C363 H376 0.950 . S
C364 C363 1.369 . S
C364 C365 1.392 . S
C364 H377 0.951 . S
C365 C364 1.392 . S
C365 C367 1.384 . S
H366 C368 0.949 . S
C367 C365 1.384 . S
C367 C368 1.385 . S
C367 H369 0.950 . S
C368 C362 1.404 . S
C368 H366 0.949 . S
C368 C367 1.385 . S
H369 C367 0.950 . S
H370 C354 0.951 . S
H371 C356 0.951 . S
H372 C358 0.951 . S
H373 C359 0.950 . S
H374 C360 0.950 . S
H375 C361 0.950 . S
H376 C363 0.950 . S
H377 C364 0.951 . S
C378 C379 1.386 . S
C378 C380 1.383 . S
C378 H394 0.951 . S
C379 C378 1.386 . S
C379 C383 1.383 . S
C380 C378 1.383 . S
C380 C381 1.402 . S
C380 H395 0.951 . S
C381 C380 1.402 . S
C381 C382 1.375 . S
C381 C384 1.481 . S
C382 C381 1.375 . S
C382 C383 1.367 . S
C382 H396 0.951 . S
C383 C379 1.383 . S
C383 C382 1.367 . S
C383 H397 0.950 . S
C384 C381 1.481 . S
C384 C385 1.297 . S
C384 H398 0.950 . S
C385 C384 1.297 . S
C385 C386 1.479 . S
C385 H399 0.950 . S
C386 C385 1.479 . S
C386 C387 1.375 . S
C386 C392 1.404 . S
C387 C386 1.375 . S
C387 C388 1.369 . S
C387 H400 0.950 . S
C388 C387 1.369 . S
C388 C389 1.392 . S
C388 H401 0.951 . S
C389 C388 1.392 . S
C389 C391 1.384 . S
H390 C392 0.949 . S
C391 C389 1.384 . S
C391 C392 1.385 . S
C391 H393 0.950 . S
C392 C386 1.404 . S
C392 H390 0.949 . S
C392 C391 1.385 . S
H393 C391 0.950 . S
H394 C378 0.951 . S
H395 C380 0.951 . S
H396 C382 0.951 . S
H397 C383 0.950 . S
H398 C384 0.950 . S
H399 C385 0.950 . S
H400 C387 0.950 . S
H401 C388 0.951 . S
C402 C403 1.386 1_655 S
C402 C404 1.383 . S
C402 H418 0.951 . S
C403 C402 1.386 1_455 S
C403 C407 1.383 . S
C404 C402 1.383 . S
C404 C405 1.402 1_655 S
C404 H419 0.951 . S
C405 C404 1.402 1_455 S
C405 C406 1.375 . S
C405 C408 1.481 . S
C406 C405 1.375 . S
C406 C407 1.367 . S
C406 H420 0.951 . S
C407 C403 1.383 . S
C407 C406 1.367 . S
C407 H421 0.950 . S
C408 C405 1.481 . S
C408 C409 1.297 . S
C408 H422 0.950 . S
C409 C408 1.297 . S
C409 C410 1.479 1_554 S
C409 H423 0.950 1_455 S
C410 C409 1.479 1_556 S
C410 C411 1.375 1_455 S
C410 C416 1.404 . S
C411 C410 1.375 1_655 S
C411 C412 1.369 . S
C411 H424 0.950 . S
C412 C411 1.369 . S
C412 C413 1.392 1_655 S
C412 H425 0.951 . S
C413 C412 1.392 1_455 S
C413 C415 1.384 . S
H414 C416 0.949 . S
C415 C413 1.384 . S
C415 C416 1.385 . S
C415 H417 0.950 . S
C416 C410 1.404 . S
C416 H414 0.949 . S
C416 C415 1.385 . S
H417 C415 0.950 . S
H418 C402 0.951 . S
H419 C404 0.951 . S
H420 C406 0.951 . S
H421 C407 0.950 . S
H422 C408 0.950 . S
H423 C409 0.950 1_655 S
H424 C411 0.950 . S
H425 C412 0.951 . S
C426 C427 1.386 . S
C426 C428 1.383 . S
C426 H442 0.951 . S
C427 C426 1.386 . S
C427 C431 1.383 1_545 S
C428 C426 1.383 . S
C428 C429 1.402 . S
C428 H443 0.951 . S
C429 C428 1.402 . S
C429 C430 1.375 1_545 S
C429 C432 1.481 1_545 S
C430 C429 1.375 1_565 S
C430 C431 1.367 . S
C430 H444 0.951 . S
C431 C427 1.383 1_565 S
C431 C430 1.367 . S
C431 H445 0.950 . S
C432 C429 1.481 1_565 S
C432 C433 1.297 1_565 S
C432 H446 0.950 . S
C433 C432 1.297 1_545 S
C433 C434 1.479 . S
C433 H447 0.950 . S
C434 C433 1.479 . S
C434 C435 1.375 . S
C434 C440 1.404 1_545 S
C435 C434 1.375 . S
C435 C436 1.369 . S
C435 H448 0.950 . S
C436 C435 1.369 . S
C436 C437 1.392 . S
C436 H449 0.951 . S
C437 C436 1.392 . S
C437 C439 1.384 1_545 S
H438 C440 0.949 . S
C439 C437 1.384 1_565 S
C439 C440 1.385 . S
C439 H441 0.950 . S
C440 C434 1.404 1_565 S
C440 H438 0.949 . S
C440 C439 1.385 . S
H441 C439 0.950 . S
H442 C426 0.951 . S
H443 C428 0.951 . S
H444 C430 0.951 . S
H445 C431 0.950 . S
H446 C432 0.950 . S
H447 C433 0.950 . S
H448 C435 0.950 . S
H449 C436 0.951 . S
C450 C451 1.386 . S
C450 C452 1.383 . S
C450 H466 0.951 . S
C451 C450 1.386 . S
C451 C455 1.383 . S
C452 C450 1.383 . S
C452 C453 1.402 . S
C452 H467 0.951 . S
C453 C452 1.402 . S
C453 C454 1.375 . S
C453 C456 1.481 . S
C454 C453 1.375 . S
C454 C455 1.367 . S
C454 H468 0.951 . S
C455 C451 1.383 . S
C455 C454 1.367 . S
C455 H469 0.950 . S
C456 C453 1.481 . S
C456 C457 1.297 . S
C456 H470 0.950 . S
C457 C456 1.297 . S
C457 C458 1.479 . S
C457 H471 0.950 . S
C458 C457 1.479 . S
C458 C459 1.375 . S
C458 C464 1.404 . S
C459 C458 1.375 . S
C459 C460 1.369 . S
C459 H472 0.950 . S
C460 C459 1.369 . S
C460 C461 1.392 . S
C460 H473 0.951 . S
C461 C460 1.392 . S
C461 C463 1.384 . S
H462 C464 0.949 . S
C463 C461 1.384 . S
C463 C464 1.385 . S
C463 H465 0.950 . S
C464 C458 1.404 . S
C464 H462 0.949 . S
C464 C463 1.385 . S
H465 C463 0.950 . S
H466 C450 0.951 . S
H467 C452 0.951 . S
H468 C454 0.951 . S
H469 C455 0.950 . S
H470 C456 0.950 . S
H471 C457 0.950 . S
H472 C459 0.950 . S
H473 C460 0.951 . S
C474 C475 1.386 . S
C474 C476 1.383 . S
C474 H490 0.951 . S
C475 C474 1.386 . S
C475 C479 1.383 . S
C476 C474 1.383 . S
C476 C477 1.385 1_545 S
C476 H491 0.951 . S
C477 C476 1.385 1_565 S
C477 C478 1.387 . S
C477 C480 1.486 . S
C478 C477 1.387 . S
C478 C479 1.367 1_565 S
C478 H492 0.951 . S
C479 C475 1.383 . S
C479 C478 1.367 1_545 S
C479 H493 0.963 . S
C480 C477 1.486 . S
C480 C481 1.297 . S
C480 H494 0.950 . S
C481 C480 1.297 . S
C481 C482 1.479 . S
C481 H495 0.950 . S
C482 C481 1.479 . S
C482 C483 1.375 1_565 S
C482 C488 1.404 . S
C483 C482 1.375 1_545 S
C483 C484 1.369 . S
C483 H496 0.950 . S
C484 C483 1.369 . S
C484 C485 1.392 . S
C484 H497 0.951 . S
C485 C484 1.392 . S
C485 C487 1.384 1_545 S
H486 C488 0.949 . S
C487 C485 1.384 1_565 S
C487 C488 1.385 . S
C487 H489 0.950 . S
C488 C482 1.404 . S
C488 H486 0.949 . S
C488 C487 1.385 . S
H489 C487 0.950 . S
H490 C474 0.951 . S
H491 C476 0.951 . S
H492 C478 0.951 . S
H493 C479 0.963 . S
H494 C480 0.950 . S
H495 C481 0.950 . S
H496 C483 0.950 . S
H497 C484 0.951 . S
C498 C499 1.386 . S
C498 C500 1.383 . S
C498 H514 0.951 . S
C499 C498 1.386 . S
C499 C503 1.383 . S
C500 C498 1.383 . S
C500 C501 1.402 . S
C500 H515 0.951 . S
C501 C500 1.402 . S
C501 C502 1.375 . S
C501 C504 1.481 . S
C502 C501 1.375 . S
C502 C503 1.367 . S
C502 H516 0.951 . S
C503 C499 1.383 . S
C503 C502 1.367 . S
C503 H517 0.950 . S
C504 C501 1.481 . S
C504 C505 1.297 . S
C504 H518 0.950 . S
C505 C504 1.297 . S
C505 C506 1.479 1_556 S
C505 H519 0.950 . S
C506 C505 1.479 1_554 S
C506 C507 1.375 . S
C506 C512 1.404 . S
C507 C506 1.375 . S
C507 C508 1.369 . S
C507 H520 0.950 . S
C508 C507 1.369 . S
C508 C509 1.392 . S
C508 H521 0.951 . S
C509 C508 1.392 . S
C509 C511 1.384 . S
H510 C512 0.949 . S
C511 C509 1.384 . S
C511 C512 1.385 . S
C511 H513 0.950 . S
C512 C506 1.404 . S
C512 H510 0.949 . S
C512 C511 1.385 . S
H513 C511 0.950 . S
H514 C498 0.951 . S
H515 C500 0.951 . S
H516 C502 0.951 . S
H517 C503 0.950 . S
H518 C504 0.950 . S
H519 C505 0.950 . S
H520 C507 0.950 . S
H521 C508 0.951 . S
C522 C523 1.386 1_455 S
C522 C524 1.383 1_455 S
C522 H538 0.951 . S
C523 C522 1.386 1_655 S
C523 C527 1.383 . S
C524 C522 1.383 1_655 S
C524 C525 1.395 . S
C524 H539 0.958 1_655 S
C525 C524 1.395 . S
C525 C526 1.375 . S
C525 C528 1.481 . S
C526 C525 1.375 . S
C526 C527 1.367 . S
C526 H540 0.951 . S
C527 C523 1.383 . S
C527 C526 1.367 . S
C527 H541 0.950 . S
C528 C525 1.481 . S
C528 C529 1.297 . S
C528 H542 0.950 . S
C529 C528 1.297 . S
C529 C530 1.479 . S
C529 H543 0.950 . S
C530 C529 1.479 . S
C530 C531 1.375 1_655 S
C530 C536 1.404 . S
C531 C530 1.375 1_455 S
C531 C532 1.369 . S
C531 H544 0.950 . S
C532 C531 1.369 . S
C532 C533 1.392 . S
C532 H545 0.951 . S
C533 C532 1.392 . S
C533 C535 1.384 1_455 S
H534 C536 0.949 . S
C535 C533 1.384 1_655 S
C535 C536 1.385 . S
C535 H537 0.950 . S
C536 C530 1.404 . S
C536 H534 0.949 . S
C536 C535 1.385 . S
H537 C535 0.950 . S
H538 C522 0.951 . S
H539 C524 0.958 1_455 S
H540 C526 0.951 . S
H541 C527 0.950 . S
H542 C528 0.950 . S
H543 C529 0.950 . S
H544 C531 0.950 . S
H545 C532 0.951 . S
C115 C2 1.314 . S
C125 C109 1.393 . S
C139 C22 1.324 . S
C149 C91 1.384 . S
C163 C44 1.249 . S
C173 C103 1.350 . S
C187 C4 1.365 . S
C197 C112 1.462 . S
C221 C94 1.467 . S
C211 C24 1.393 . S
C245 C100 1.509 . S
C235 C42 1.440 . S
C259 C32 1.227 . S
C269 C73 1.246 . S
C283 C49 1.223 . S
C293 C82 1.235 . S
C307 C9 1.214 . S
C317 C64 1.226 . S
C341 C76 1.174 . S
C331 C29 1.168 . S
C365 C85 1.244 . S
C355 C52 1.203 . S
C379 C12 1.122 . S
C389 C67 1.170 . S
C413 C83 1.427 . S
C403 C18 1.426 1_455 S
C427 C38 1.399 . S
C437 C65 1.426 . S
C451 C58 1.432 . S
C461 C74 1.428 . S
C485 C101 1.494 . S
C475 C39 1.496 . S
C509 C110 1.479 . S
C499 C59 1.461 . S
C523 C19 1.474 1_655 S
C533 C92 1.493 . S
