# Generated by pormake.
# Topology ctn, (3,4)-cn, num edge types: 1
# Building blocks:
#     Node 0, Type 0, BuildingBlock: BELTOD_clean_linker_0, # of connection points: 3
#     Node 1, Type 0, BuildingBlock: BELTOD_clean_linker_0, # of connection points: 3
#     Node 2, Type 0, BuildingBlock: BELTOD_clean_linker_0, # of connection points: 3
#     Node 3, Type 0, BuildingBlock: BELTOD_clean_linker_0, # of connection points: 3
#     Node 4, Type 0, BuildingBlock: BELTOD_clean_linker_0, # of connection points: 3
#     Node 5, Type 0, BuildingBlock: BELTOD_clean_linker_0, # of connection points: 3
#     Node 6, Type 0, BuildingBlock: BELTOD_clean_linker_0, # of connection points: 3
#     Node 7, Type 0, BuildingBlock: BELTOD_clean_linker_0, # of connection points: 3
#     Node 8, Type 0, BuildingBlock: BELTOD_clean_linker_0, # of connection points: 3
#     Node 9, Type 0, BuildingBlock: BELTOD_clean_linker_0, # of connection points: 3
#     Node 10, Type 0, BuildingBlock: BELTOD_clean_linker_0, # of connection points: 3
#     Node 11, Type 0, BuildingBlock: BELTOD_clean_linker_0, # of connection points: 3
#     Node 12, Type 0, BuildingBlock: BELTOD_clean_linker_0, # of connection points: 3
#     Node 13, Type 0, BuildingBlock: BELTOD_clean_linker_0, # of connection points: 3
#     Node 14, Type 0, BuildingBlock: BELTOD_clean_linker_0, # of connection points: 3
#     Node 15, Type 0, BuildingBlock: BELTOD_clean_linker_0, # of connection points: 3
#     Node 16, Type 1, BuildingBlock: NAHDIM_clean_sbu_0, # of connection points: 4
#     Node 17, Type 1, BuildingBlock: NAHDIM_clean_sbu_0, # of connection points: 4
#     Node 18, Type 1, BuildingBlock: NAHDIM_clean_sbu_0, # of connection points: 4
#     Node 19, Type 1, BuildingBlock: NAHDIM_clean_sbu_0, # of connection points: 4
#     Node 20, Type 1, BuildingBlock: NAHDIM_clean_sbu_0, # of connection points: 4
#     Node 21, Type 1, BuildingBlock: NAHDIM_clean_sbu_0, # of connection points: 4
#     Node 22, Type 1, BuildingBlock: NAHDIM_clean_sbu_0, # of connection points: 4
#     Node 23, Type 1, BuildingBlock: NAHDIM_clean_sbu_0, # of connection points: 4
#     Node 24, Type 1, BuildingBlock: NAHDIM_clean_sbu_0, # of connection points: 4
#     Node 25, Type 1, BuildingBlock: NAHDIM_clean_sbu_0, # of connection points: 4
#     Node 26, Type 1, BuildingBlock: NAHDIM_clean_sbu_0, # of connection points: 4
#     Node 27, Type 1, BuildingBlock: NAHDIM_clean_sbu_0, # of connection points: 4
#     Edge 28, Type (0, 1), BuildingBlock: CIFDUS_clean_linker_0, # of connection points: 2
#     Edge 29, Type (0, 1), BuildingBlock: CIFDUS_clean_linker_0, # of connection points: 2
#     Edge 30, Type (0, 1), BuildingBlock: CIFDUS_clean_linker_0, # of connection points: 2
#     Edge 31, Type (0, 1), BuildingBlock: CIFDUS_clean_linker_0, # of connection points: 2
#     Edge 32, Type (0, 1), BuildingBlock: CIFDUS_clean_linker_0, # of connection points: 2
#     Edge 33, Type (0, 1), BuildingBlock: CIFDUS_clean_linker_0, # of connection points: 2
#     Edge 34, Type (0, 1), BuildingBlock: CIFDUS_clean_linker_0, # of connection points: 2
#     Edge 35, Type (0, 1), BuildingBlock: CIFDUS_clean_linker_0, # of connection points: 2
#     Edge 36, Type (0, 1), BuildingBlock: CIFDUS_clean_linker_0, # of connection points: 2
#     Edge 37, Type (0, 1), BuildingBlock: CIFDUS_clean_linker_0, # of connection points: 2
#     Edge 38, Type (0, 1), BuildingBlock: CIFDUS_clean_linker_0, # of connection points: 2
#     Edge 39, Type (0, 1), BuildingBlock: CIFDUS_clean_linker_0, # of connection points: 2
#     Edge 40, Type (0, 1), BuildingBlock: CIFDUS_clean_linker_0, # of connection points: 2
#     Edge 41, Type (0, 1), BuildingBlock: CIFDUS_clean_linker_0, # of connection points: 2
#     Edge 42, Type (0, 1), BuildingBlock: CIFDUS_clean_linker_0, # of connection points: 2
#     Edge 43, Type (0, 1), BuildingBlock: CIFDUS_clean_linker_0, # of connection points: 2
#     Edge 44, Type (0, 1), BuildingBlock: CIFDUS_clean_linker_0, # of connection points: 2
#     Edge 45, Type (0, 1), BuildingBlock: CIFDUS_clean_linker_0, # of connection points: 2
#     Edge 46, Type (0, 1), BuildingBlock: CIFDUS_clean_linker_0, # of connection points: 2
#     Edge 47, Type (0, 1), BuildingBlock: CIFDUS_clean_linker_0, # of connection points: 2
#     Edge 48, Type (0, 1), BuildingBlock: CIFDUS_clean_linker_0, # of connection points: 2
#     Edge 49, Type (0, 1), BuildingBlock: CIFDUS_clean_linker_0, # of connection points: 2
#     Edge 50, Type (0, 1), BuildingBlock: CIFDUS_clean_linker_0, # of connection points: 2
#     Edge 51, Type (0, 1), BuildingBlock: CIFDUS_clean_linker_0, # of connection points: 2
#     Edge 52, Type (0, 1), BuildingBlock: CIFDUS_clean_linker_0, # of connection points: 2
#     Edge 53, Type (0, 1), BuildingBlock: CIFDUS_clean_linker_0, # of connection points: 2
#     Edge 54, Type (0, 1), BuildingBlock: CIFDUS_clean_linker_0, # of connection points: 2
#     Edge 55, Type (0, 1), BuildingBlock: CIFDUS_clean_linker_0, # of connection points: 2
#     Edge 56, Type (0, 1), BuildingBlock: CIFDUS_clean_linker_0, # of connection points: 2
#     Edge 57, Type (0, 1), BuildingBlock: CIFDUS_clean_linker_0, # of connection points: 2
#     Edge 58, Type (0, 1), BuildingBlock: CIFDUS_clean_linker_0, # of connection points: 2
#     Edge 59, Type (0, 1), BuildingBlock: CIFDUS_clean_linker_0, # of connection points: 2
#     Edge 60, Type (0, 1), BuildingBlock: CIFDUS_clean_linker_0, # of connection points: 2
#     Edge 61, Type (0, 1), BuildingBlock: CIFDUS_clean_linker_0, # of connection points: 2
#     Edge 62, Type (0, 1), BuildingBlock: CIFDUS_clean_linker_0, # of connection points: 2
#     Edge 63, Type (0, 1), BuildingBlock: CIFDUS_clean_linker_0, # of connection points: 2
#     Edge 64, Type (0, 1), BuildingBlock: CIFDUS_clean_linker_0, # of connection points: 2
#     Edge 65, Type (0, 1), BuildingBlock: CIFDUS_clean_linker_0, # of connection points: 2
#     Edge 66, Type (0, 1), BuildingBlock: CIFDUS_clean_linker_0, # of connection points: 2
#     Edge 67, Type (0, 1), BuildingBlock: CIFDUS_clean_linker_0, # of connection points: 2
#     Edge 68, Type (0, 1), BuildingBlock: CIFDUS_clean_linker_0, # of connection points: 2
#     Edge 69, Type (0, 1), BuildingBlock: CIFDUS_clean_linker_0, # of connection points: 2
#     Edge 70, Type (0, 1), BuildingBlock: CIFDUS_clean_linker_0, # of connection points: 2
#     Edge 71, Type (0, 1), BuildingBlock: CIFDUS_clean_linker_0, # of connection points: 2
#     Edge 72, Type (0, 1), BuildingBlock: CIFDUS_clean_linker_0, # of connection points: 2
#     Edge 73, Type (0, 1), BuildingBlock: CIFDUS_clean_linker_0, # of connection points: 2
#     Edge 74, Type (0, 1), BuildingBlock: CIFDUS_clean_linker_0, # of connection points: 2
#     Edge 75, Type (0, 1), BuildingBlock: CIFDUS_clean_linker_0, # of connection points: 2
# Relax obj value: 0.003
# Max RMSD: 0.035
# Mean RMSD: 0.021
data_MOF--net-ctn--node1-NAHDIM_clean_sbu_0--node2-BELTOD_clean_linker_0--edge1-CIFDUS_clean_linker_0
_symmetry_space_group_name_H-M    P1
_symmetry_Int_Tables_number       1
_symmetry_cell_setting            triclinic
loop_
_symmetry_equiv_pos_as_xyz
'x, y, z'
_cell_length_a     55.223694
_cell_length_b     55.952876
_cell_length_c     54.850769
_cell_angle_alpha  90.520264
_cell_angle_beta   90.171275
_cell_angle_gamma 93.041954
loop_
_atom_site_label
_atom_site_type_symbol
_atom_site_fract_x
_atom_site_fract_y
_atom_site_fract_z
_atom_type_partial_charge
P0 P 0.06045 0.07207 0.08264 0.0
H1 H 0.0586 0.06916 0.13569 0.0
H2 H 0.02612 0.05773 0.16409 0.0
H3 H 0.97773 0.04181 0.10331 0.0
H4 H 0.01057 0.05277 0.07501 0.0
H5 H 0.11019 0.05804 0.08978 0.0
H6 H 0.13203 0.0239 0.07557 0.0
H7 H 0.06718 0.99522 0.03913 0.0
H8 H 0.04548 0.0299 0.05314 0.0
H9 H 0.02282 0.10649 0.08038 0.0
H10 H 0.07209 0.07456 0.03035 0.0
O11 O 0.07979 0.09105 0.09742 0.0
H12 H 0.00807 0.13122 0.04766 0.0
H13 H 0.05709 0.09894 0.99736 0.0
C14 C 0.03679 0.06231 0.10331 0.0
C15 C 0.04101 0.06319 0.12849 0.0
C16 C 0.02238 0.05675 0.1447 0.0
C17 C 0.99921 0.04918 0.13598 0.0
C18 C 0.99536 0.04748 0.11064 0.0
C19 C 0.01406 0.05388 0.09444 0.0
C20 C 0.07625 0.04654 0.07241 0.0
C21 C 0.10062 0.04443 0.07876 0.0
C22 C 0.11306 0.02476 0.07076 0.0
C23 C 0.10133 0.00675 0.05629 0.0
C24 C 0.07679 0.00888 0.05007 0.0
C25 C 0.06434 0.0286 0.05815 0.0
C26 C 0.04809 0.08824 0.05768 0.0
C27 C 0.03009 0.10443 0.06222 0.0
C28 C 0.02163 0.11853 0.04346 0.0
C29 C 0.03128 0.11695 0.01984 0.0
C30 C 0.04936 0.10067 0.01537 0.0
C31 C 0.05779 0.08654 0.03418 0.0
P32 P 0.30458 0.68133 0.19804 0.0
H33 H 0.32996 0.70866 0.16027 0.0
H34 H 0.31847 0.74142 0.13422 0.0
H35 H 0.24838 0.74077 0.16912 0.0
H36 H 0.25997 0.70774 0.19496 0.0
H37 H 0.33717 0.65798 0.23069 0.0
H38 H 0.36211 0.6722 0.26525 0.0
H39 H 0.33719 0.74347 0.25544 0.0
H40 H 0.3116 0.72884 0.22153 0.0
H41 H 0.26703 0.65351 0.17159 0.0
H42 H 0.28505 0.66937 0.2468 0.0
O43 O 0.32148 0.66374 0.18115 0.0
H44 H 0.2337 0.62603 0.18464 0.0
H45 H 0.25185 0.64197 0.25992 0.0
C46 C 0.29564 0.70548 0.17913 0.0
C47 C 0.31208 0.7155 0.16221 0.0
C48 C 0.30555 0.73435 0.14748 0.0
C49 C 0.28246 0.74365 0.14953 0.0
C50 C 0.26614 0.73376 0.16683 0.0
C51 C 0.27275 0.71491 0.18163 0.0
C52 C 0.32289 0.69242 0.22332 0.0
C53 C 0.33714 0.67667 0.236 0.0
C54 C 0.35147 0.68487 0.25569 0.0
C55 C 0.35188 0.70906 0.26303 0.0
C56 C 0.33719 0.7247 0.25045 0.0
C57 C 0.3227 0.7164 0.23086 0.0
C58 C 0.27864 0.66331 0.20816 0.0
C59 C 0.26364 0.65126 0.19089 0.0
C60 C 0.24456 0.63566 0.19838 0.0
C61 C 0.24026 0.63175 0.22332 0.0
C62 C 0.25494 0.64439 0.24058 0.0
C63 C 0.27392 0.66012 0.23307 0.0
P64 P 0.99126 0.48786 0.01301 0.0
H65 H 0.95647 0.46669 0.97748 0.0
H66 H 0.9513 0.42658 0.9595 0.0
H67 H 0.00801 0.40268 0.00639 0.0
H68 H 0.01333 0.44283 0.02398 0.0
H69 H 0.9822 0.53516 0.99408 0.0
H70 H 0.94561 0.55756 0.99085 0.0
H71 H 0.90476 0.5007 0.0276 0.0
H72 H 0.94159 0.47822 0.03071 0.0
H73 H 0.03672 0.50871 0.03332 0.0
H74 H 0.97408 0.46721 0.05913 0.0
O75 O 0.01166 0.50023 0.99388 0.0
H76 H 0.05538 0.50692 0.07357 0.0
H77 H 0.99277 0.46522 0.09959 0.0
C78 C 0.98486 0.45762 0.0025 0.0
C79 C 0.9674 0.45268 0.98428 0.0
C80 C 0.96445 0.42973 0.97402 0.0
C81 C 0.97924 0.41145 0.98154 0.0
C82 C 0.99646 0.41642 1.00008 0.0
C83 C 0.99935 0.43933 0.01033 0.0
C84 C 0.96453 0.5049 0.01238 0.0
C85 C 0.96542 0.52749 0.00151 0.0
C86 C 0.94448 0.54027 0.99961 0.0
C87 C 0.92228 0.53078 0.00877 0.0
C88 C 0.92163 0.5085 0.02048 0.0
C89 C 0.94262 0.49563 0.02222 0.0
C90 C 0.00401 0.48807 0.04325 0.0
C91 C 0.0269 0.49929 0.04768 0.0
C92 C 0.03764 0.49812 0.07068 0.0
C93 C 0.02564 0.48576 0.08972 0.0
C94 C 0.0024 0.47502 0.08535 0.0
C95 C 0.9917 0.47613 0.06226 0.0
P96 P 0.66742 0.83233 0.17185 0.0
H97 H 0.70264 0.86608 0.14988 0.0
H98 H 0.737 0.89036 0.1665 0.0
H99 H 0.72592 0.85693 0.2366 0.0
H100 H 0.69138 0.83288 0.21987 0.0
H101 H 0.63603 0.79555 0.14893 0.0
H102 H 0.64385 0.76007 0.1245 0.0
H103 H 0.72093 0.77432 0.13457 0.0
H104 H 0.71292 0.80953 0.15943 0.0
H105 H 0.63136 0.86135 0.1945 0.0
H106 H 0.65732 0.79058 0.20301 0.0
O107 O 0.65458 0.85001 0.15177 0.0
H108 H 0.60198 0.85363 0.2271 0.0
H109 H 0.62757 0.78244 0.23524 0.0
C110 C 0.69416 0.84813 0.18378 0.0
C111 C 0.70771 0.8639 0.16879 0.0
C112 C 0.72746 0.87763 0.17828 0.0
C113 C 0.73407 0.87572 0.20295 0.0
C114 C 0.72102 0.8591 0.21765 0.0
C115 C 0.7013 0.84531 0.20808 0.0
C116 C 0.67386 0.80512 0.156 0.0
C117 C 0.6546 0.79085 0.14611 0.0
C118 C 0.65911 0.77067 0.13204 0.0
C119 C 0.68302 0.76445 0.12746 0.0
C120 C 0.7023 0.77848 0.13797 0.0
C121 C 0.69775 0.79871 0.15208 0.0
C122 C 0.64604 0.82633 0.19597 0.0
C123 C 0.63056 0.84407 0.20326 0.0
C124 C 0.61374 0.8396 0.22185 0.0
C125 C 0.61225 0.81733 0.2336 0.0
C126 C 0.62832 0.79982 0.22665 0.0
C127 C 0.64517 0.80434 0.20806 0.0
P128 P 0.0598 0.93528 0.43415 0.0
H129 H 0.10568 0.95468 0.41443 0.0
H130 H 0.13107 0.99052 0.42396 0.0
H131 H 0.07815 0.01207 0.47663 0.0
H132 H 0.05239 0.97643 0.46623 0.0
H133 H 0.01963 0.90077 0.44443 0.0
H134 H 0.00762 0.87866 0.48115 0.0
H135 H 0.06605 0.91555 0.52116 0.0
H136 H 0.07804 0.93743 0.48447 0.0
H137 H 0.05479 0.93175 0.38142 0.0
H138 H 0.01132 0.95313 0.44218 0.0
O139 O 0.07739 0.91587 0.42048 0.0
H140 H 0.02158 0.93887 0.3535 0.0
H141 H 0.97755 0.95985 0.41429 0.0
C142 C 0.07748 0.96264 0.4401 0.0
C143 C 0.09949 0.96714 0.42797 0.0
C144 C 0.11407 0.98761 0.43356 0.0
C145 C 0.10691 0.00399 0.45142 0.0
C146 C 0.08424 0.99989 0.46276 0.0
C147 C 0.06956 0.97946 0.45698 0.0
C148 C 0.04919 0.92138 0.46189 0.0
C149 C 0.02953 0.90447 0.46123 0.0
C150 C 0.02282 0.8917 0.48216 0.0
C151 C 0.0358 0.89552 0.50406 0.0
C152 C 0.05542 0.91258 0.50468 0.0
C153 C 0.06223 0.92516 0.48369 0.0
C154 C 0.03525 0.94132 0.41389 0.0
C155 C 0.03798 0.9378 0.38877 0.0
C156 C 0.01891 0.9418 0.37283 0.0
C157 C 0.99674 0.94953 0.3817 0.0
C158 C 0.99438 0.95388 0.40688 0.0
C159 C 0.01357 0.9499 0.42284 0.0
P160 P 0.23716 0.75638 0.77939 0.0
H161 H 0.26777 0.79233 0.80545 0.0
H162 H 0.26442 0.81163 0.8453 0.0
H163 H 0.19788 0.76971 0.85863 0.0
H164 H 0.20149 0.75026 0.81862 0.0
H165 H 0.25019 0.72276 0.74176 0.0
H166 H 0.26915 0.68432 0.74271 0.0
H167 H 0.27028 0.68747 0.82149 0.0
H168 H 0.25181 0.72618 0.82033 0.0
H169 H 0.20997 0.79241 0.75527 0.0
H170 H 0.19974 0.7174 0.77194 0.0
O171 O 0.25593 0.77359 0.76241 0.0
H172 H 0.17084 0.79101 0.73421 0.0
H173 H 0.16044 0.71586 0.75104 0.0
C174 C 0.23465 0.77019 0.80896 0.0
C175 C 0.2524 0.78736 0.81687 0.0
C176 C 0.25041 0.79845 0.83963 0.0
C177 C 0.23074 0.79239 0.85501 0.0
C178 C 0.21326 0.77472 0.84722 0.0
C179 C 0.21522 0.76371 0.82434 0.0
C180 C 0.24959 0.72732 0.78091 0.0
C181 C 0.25442 0.71509 0.75923 0.0
C182 C 0.26513 0.69304 0.75983 0.0
C183 C 0.27123 0.68277 0.7822 0.0
C184 C 0.26608 0.695 0.80395 0.0
C185 C 0.25534 0.7171 0.80331 0.0
C186 C 0.20795 0.75492 0.76466 0.0
C187 C 0.19926 0.77563 0.75438 0.0
C188 C 0.17681 0.77484 0.74252 0.0
C189 C 0.16258 0.75328 0.74084 0.0
C190 C 0.17115 0.73264 0.75169 0.0
C191 C 0.1936 0.7335 0.76366 0.0
P192 P 0.985 0.51465 0.5038 0.0
H193 H 0.03651 0.52002 0.49356 0.0
H194 H 0.05972 0.5236 0.45576 0.0
H195 H 0.99294 0.52092 0.41435 0.0
H196 H 0.96981 0.51739 0.4523 0.0
H197 H 0.98097 0.52644 0.55534 0.0
H198 H 0.98031 0.56434 0.57772 0.0
H199 H 0.98858 0.60271 0.50991 0.0
H200 H 0.98837 0.56467 0.48765 0.0
H201 H 0.96589 0.47113 0.47971 0.0
H202 H 0.93698 0.53107 0.51774 0.0
O203 O 0.99922 0.4953 0.52103 0.0
H204 H 0.92501 0.45245 0.47571 0.0
H205 H 0.89635 0.51219 0.51466 0.0
C206 C 0.00151 0.51789 0.47568 0.0
C207 C 0.02688 0.52018 0.47633 0.0
C208 C 0.04011 0.5224 0.45474 0.0
C209 C 0.02815 0.5224 0.43207 0.0
C210 C 0.00265 0.5206 0.43152 0.0
C211 C 0.98942 0.51857 0.4532 0.0
C212 C 0.98526 0.54279 0.51994 0.0
C213 C 0.98278 0.54304 0.54534 0.0
C214 C 0.98247 0.56474 0.55811 0.0
C215 C 0.98462 0.58662 0.54566 0.0
C216 C 0.9867 0.58622 0.52008 0.0
C217 C 0.98685 0.56448 0.50732 0.0
C218 C 0.95451 0.50246 0.49896 0.0
C219 C 0.95072 0.48032 0.48707 0.0
C220 C 0.92736 0.4696 0.48498 0.0
C221 C 0.90736 0.48073 0.49502 0.0
C222 C 0.91124 0.50324 0.50645 0.0
C223 C 0.93459 0.514 0.50837 0.0
P224 P 0.81161 0.8154 0.82427 0.0
H225 H 0.85726 0.83342 0.80267 0.0
H226 H 0.88287 0.81771 0.77081 0.0
H227 H 0.8292 0.76002 0.75716 0.0
H228 H 0.80382 0.77571 0.7895 0.0
H229 H 0.77271 0.83384 0.85286 0.0
H230 H 0.73787 0.85694 0.84268 0.0
H231 H 0.75774 0.85454 0.76656 0.0
H232 H 0.79288 0.83169 0.77702 0.0
H233 H 0.83769 0.78967 0.861 0.0
H234 H 0.76735 0.78394 0.82651 0.0
O235 O 0.82914 0.8342 0.84131 0.0
H236 H 0.82678 0.75462 0.88569 0.0
H237 H 0.75594 0.74937 0.85167 0.0
C238 C 0.82885 0.8055 0.79868 0.0
C239 C 0.8509 0.81751 0.7927 0.0
C240 C 0.86547 0.80857 0.77434 0.0
C241 C 0.85817 0.78749 0.76153 0.0
C242 C 0.83553 0.77606 0.76695 0.0
C243 C 0.82096 0.78506 0.78534 0.0
C244 C 0.78522 0.83091 0.81571 0.0
C245 C 0.76942 0.8381 0.83395 0.0
C246 C 0.74942 0.85117 0.82807 0.0
C247 C 0.74493 0.85748 0.80377 0.0
C248 C 0.76078 0.85009 0.78546 0.0
C249 C 0.78081 0.83692 0.7914 0.0
C250 C 0.8031 0.78975 0.84245 0.0
C251 C 0.81978 0.78101 0.85897 0.0
C252 C 0.81348 0.76102 0.87311 0.0
C253 C 0.79037 0.74933 0.87088 0.0
C254 C 0.77391 0.75786 0.85379 0.0
C255 C 0.78031 0.7778 0.83957 0.0
P256 P 0.31535 0.32311 0.31332 0.0
H257 H 0.36732 0.33166 0.30586 0.0
H258 H 0.39514 0.31785 0.27506 0.0
H259 H 0.33527 0.28028 0.2377 0.0
H260 H 0.30732 0.29503 0.26828 0.0
H261 H 0.2668 0.32394 0.33405 0.0
H262 H 0.23129 0.34575 0.32305 0.0
H263 H 0.26836 0.37241 0.25876 0.0
H264 H 0.30374 0.35019 0.26972 0.0
H265 H 0.33099 0.31115 0.3625 0.0
H266 H 0.28674 0.27815 0.30532 0.0
O267 O 0.32945 0.34471 0.33006 0.0
H268 H 0.32347 0.27605 0.38785 0.0
H269 H 0.27985 0.24238 0.33023 0.0
C270 C 0.33522 0.3146 0.28919 0.0
C271 C 0.36009 0.32075 0.29086 0.0
C272 C 0.37605 0.31258 0.27335 0.0
C273 C 0.3675 0.29778 0.25396 0.0
C274 C 0.34245 0.29185 0.25222 0.0
C275 C 0.32645 0.30017 0.26974 0.0
C276 C 0.28771 0.33499 0.30241 0.0
C277 C 0.26706 0.33391 0.31722 0.0
C278 C 0.24684 0.34662 0.31105 0.0
C279 C 0.24703 0.36091 0.29008 0.0
C280 C 0.2675 0.36132 0.27485 0.0
C281 C 0.28775 0.34861 0.28108 0.0
C282 C 0.30927 0.2973 0.3321 0.0
C283 C 0.31968 0.2963 0.35536 0.0
C284 C 0.31555 0.27606 0.36976 0.0
C285 C 0.30113 0.25627 0.36107 0.0
C286 C 0.29079 0.25737 0.33764 0.0
C287 C 0.29484 0.27774 0.3233 0.0
P288 P 0.48789 0.98675 0.53148 0.0
H289 H 0.49384 0.96858 0.48197 0.0
H290 H 0.49486 0.92817 0.46488 0.0
H291 H 0.4789 0.89872 0.53595 0.0
H292 H 0.47814 0.93923 0.55296 0.0
H293 H 0.47129 0.03006 0.55407 0.0
H294 H 0.43371 0.05097 0.55059 0.0
H295 H 0.40324 0.99362 0.50483 0.0
H296 H 0.44105 0.97308 0.50804 0.0
H297 H 0.53758 0.99272 0.54928 0.0
H298 H 0.46645 0.97905 0.57995 0.0
O299 O 0.50625 0.00401 0.51412 0.0
H300 H 0.55556 0.99151 0.58995 0.0
H301 H 0.48435 0.97791 0.62089 0.0
C302 C 0.48651 0.95689 0.51883 0.0
C303 C 0.49049 0.95343 0.49386 0.0
C304 C 0.49087 0.9303 0.48407 0.0
C305 C 0.48717 0.91022 0.49911 0.0
C306 C 0.48224 0.91382 0.52399 0.0
C307 C 0.48177 0.93698 0.53373 0.0
C308 C 0.45886 0.9999 0.53158 0.0
C309 C 0.45635 0.02182 0.54363 0.0
C310 C 0.43482 0.03372 0.54167 0.0
C311 C 0.41546 0.02399 0.52739 0.0
C312 C 0.41791 0.00173 0.51574 0.0
C313 C 0.43947 0.98985 0.51773 0.0
C314 C 0.50067 0.98648 0.5617 0.0
C315 C 0.52581 0.98972 0.56483 0.0
C316 C 0.53605 0.98906 0.58809 0.0
C317 C 0.52135 0.98485 0.60866 0.0
C318 C 0.49614 0.98116 0.60539 0.0
C319 C 0.48589 0.98198 0.58207 0.0
P320 P 0.19472 0.31688 0.67354 0.0
H321 H 0.20786 0.36778 0.66801 0.0
H322 H 0.23991 0.39411 0.68567 0.0
H323 H 0.26629 0.33473 0.72597 0.0
H324 H 0.23406 0.30823 0.70784 0.0
H325 H 0.20473 0.31576 0.6215 0.0
H326 H 0.21872 0.28478 0.59423 0.0
H327 H 0.22727 0.23821 0.65578 0.0
H328 H 0.21403 0.26982 0.68312 0.0
H329 H 0.18105 0.3324 0.72248 0.0
H330 H 0.16416 0.27257 0.67417 0.0
O331 O 0.17707 0.3333 0.65638 0.0
H332 H 0.15081 0.31666 0.75135 0.0
H333 H 0.13488 0.25603 0.70341 0.0
C334 C 0.21855 0.33607 0.68671 0.0
C335 C 0.22047 0.36036 0.68066 0.0
C336 C 0.23875 0.37546 0.6909 0.0
C337 C 0.25554 0.36656 0.70738 0.0
C338 C 0.25372 0.34209 0.71322 0.0
C339 C 0.2353 0.32696 0.70297 0.0
C340 C 0.20763 0.29477 0.65419 0.0
C341 C 0.20974 0.29894 0.62915 0.0
C342 C 0.21762 0.28114 0.61356 0.0
C343 C 0.22355 0.25877 0.62273 0.0
C344 C 0.22278 0.25519 0.64809 0.0
C345 C 0.21506 0.27316 0.66373 0.0
C346 C 0.17542 0.3033 0.69651 0.0
C347 C 0.17136 0.3155 0.71842 0.0
C348 C 0.15406 0.30641 0.73496 0.0
C349 C 0.14038 0.28499 0.7298 0.0
C350 C 0.14483 0.27269 0.70791 0.0
C351 C 0.16191 0.28194 0.6913 0.0
P352 P 0.82259 0.20083 0.68697 0.0
H353 H 0.83676 0.24757 0.66671 0.0
H354 H 0.81569 0.27453 0.64 0.0
H355 H 0.75054 0.22857 0.64513 0.0
H356 H 0.77179 0.20153 0.67114 0.0
H357 H 0.86686 0.18397 0.70743 0.0
H358 H 0.89465 0.19949 0.73914 0.0
H359 H 0.85028 0.26002 0.74988 0.0
H360 H 0.82248 0.24432 0.71784 0.0
H361 H 0.81349 0.14939 0.67874 0.0
H362 H 0.78732 0.20405 0.7263 0.0
O363 O 0.83906 0.18738 0.66595 0.0
H364 H 0.78504 0.11987 0.69682 0.0
H365 H 0.75875 0.1744 0.74474 0.0
C366 C 0.80577 0.22279 0.67134 0.0
C367 C 0.81779 0.24362 0.66251 0.0
C368 C 0.8057 0.25903 0.64727 0.0
C369 C 0.78142 0.25368 0.64039 0.0
C370 C 0.76929 0.2331 0.64987 0.0
C371 C 0.7814 0.21772 0.66503 0.0
C372 C 0.843 0.21331 0.70989 0.0
C373 C 0.8632 0.20068 0.71647 0.0
C374 C 0.87894 0.20946 0.73478 0.0
C375 C 0.87467 0.231 0.74703 0.0
C376 C 0.8542 0.24353 0.74056 0.0
C377 C 0.83834 0.23461 0.72226 0.0
C378 C 0.8025 0.17887 0.70124 0.0
C379 C 0.80176 0.155 0.69325 0.0
C380 C 0.78555 0.1381 0.70369 0.0
C381 C 0.7697 0.14479 0.72227 0.0
C382 C 0.77062 0.16876 0.73035 0.0
C383 C 0.78698 0.18565 0.71995 0.0
P384 P 0.56065 0.57872 0.58611 0.0
H385 H 0.55996 0.57357 0.639 0.0
H386 H 0.52792 0.56155 0.66768 0.0
H387 H 0.47856 0.54691 0.60744 0.0
H388 H 0.51094 0.55858 0.57881 0.0
H389 H 0.61084 0.57827 0.57042 0.0
H390 H 0.63615 0.54655 0.55621 0.0
H391 H 0.57499 0.49543 0.56184 0.0
H392 H 0.54981 0.52734 0.57638 0.0
H393 H 0.52323 0.61328 0.58614 0.0
H394 H 0.5688 0.58065 0.53296 0.0
O395 O 0.57899 0.59834 0.6013 0.0
H396 H 0.5063 0.63775 0.55432 0.0
H397 H 0.55186 0.60505 0.501 0.0
C398 C 0.53763 0.56748 0.60685 0.0
C399 C 0.54229 0.56766 0.63196 0.0
C400 C 0.52392 0.56089 0.64833 0.0
C401 C 0.50057 0.55365 0.63985 0.0
C402 C 0.49633 0.55237 0.61456 0.0
C403 C 0.51476 0.55917 0.59819 0.0
C404 C 0.57861 0.55507 0.57491 0.0
C405 C 0.60289 0.56023 0.56865 0.0
C406 C 0.61728 0.5421 0.56031 0.0
C407 C 0.60761 0.51842 0.55796 0.0
C408 C 0.58307 0.51341 0.56378 0.0
C409 C 0.56864 0.53164 0.57205 0.0
C410 C 0.54695 0.59485 0.56188 0.0
C411 C 0.5293 0.6111 0.56753 0.0
C412 C 0.51961 0.62505 0.54932 0.0
C413 C 0.52767 0.62326 0.52512 0.0
C414 C 0.54538 0.60691 0.5195 0.0
C415 C 0.55497 0.59284 0.53775 0.0
P416 P 0.55562 0.4423 0.94283 0.0
H417 H 0.59149 0.43832 0.98125 0.0
H418 H 0.62019 0.46719 0.00081 0.0
H419 H 0.59245 0.52361 0.95719 0.0
H420 H 0.56373 0.49457 0.93762 0.0
H421 H 0.5459 0.39054 0.93963 0.0
H422 H 0.5322 0.36069 0.96946 0.0
H423 H 0.52381 0.41691 0.02288 0.0
H424 H 0.53802 0.44664 0.99297 0.0
H425 H 0.55306 0.46104 0.89367 0.0
H426 H 0.5055 0.45311 0.95561 0.0
O427 O 0.57279 0.42815 0.92296 0.0
H428 H 0.52043 0.4774 0.86999 0.0
H429 H 0.47273 0.46973 0.93207 0.0
C430 C 0.57511 0.46436 0.95837 0.0
C431 C 0.59129 0.45697 0.97617 0.0
C432 C 0.60768 0.4735 0.98736 0.0
C433 C 0.60848 0.49771 0.98065 0.0
C434 C 0.5923 0.50506 0.96268 0.0
C435 C 0.57576 0.48849 0.9516 0.0
C436 C 0.54347 0.4207 0.96429 0.0
C437 C 0.54105 0.39644 0.95774 0.0
C438 C 0.53302 0.37941 0.97477 0.0
C439 C 0.52708 0.38639 0.99863 0.0
C440 C 0.52866 0.4109 0.0048 0.0
C441 C 0.5367 0.42791 0.98773 0.0
C442 C 0.53157 0.45542 0.92621 0.0
C443 C 0.53559 0.46288 0.90219 0.0
C444 C 0.51695 0.47241 0.88874 0.0
C445 C 0.49393 0.47478 0.89911 0.0
C446 C 0.49015 0.46781 0.92345 0.0
C447 C 0.50889 0.45835 0.93695 0.0
P448 P 0.73269 0.24917 0.27238 0.0
H449 H 0.77063 0.28102 0.29339 0.0
H450 H 0.77199 0.30793 0.32873 0.0
H451 H 0.69796 0.28548 0.34589 0.0
H452 H 0.69689 0.25826 0.31061 0.0
H453 H 0.74861 0.21198 0.23995 0.0
H454 H 0.7689 0.17491 0.24683 0.0
H455 H 0.76396 0.18628 0.32468 0.0
H456 H 0.74407 0.22365 0.31757 0.0
H457 H 0.70497 0.2798 0.24176 0.0
H458 H 0.69347 0.21168 0.27716 0.0
O459 O 0.75005 0.26273 0.25123 0.0
H460 H 0.66403 0.27595 0.22473 0.0
H461 H 0.65245 0.20748 0.25985 0.0
C462 C 0.7335 0.2681 0.29909 0.0
C463 C 0.75468 0.28193 0.30473 0.0
C464 C 0.75539 0.29736 0.32489 0.0
C465 C 0.73496 0.29911 0.33993 0.0
C466 C 0.714 0.28454 0.33469 0.0
C467 C 0.7133 0.2691 0.31443 0.0
C468 C 0.74516 0.22069 0.2782 0.0
C469 C 0.75176 0.20638 0.2585 0.0
C470 C 0.76322 0.1851 0.26249 0.0
C471 C 0.76819 0.17764 0.28633 0.0
C472 C 0.76076 0.1917 0.30609 0.0
C473 C 0.74928 0.21303 0.30205 0.0
C474 C 0.70239 0.2458 0.26024 0.0
C475 C 0.69366 0.2639 0.24569 0.0
C476 C 0.67028 0.26163 0.2359 0.0
C477 C 0.65508 0.24126 0.24067 0.0
C478 C 0.6637 0.2234 0.25586 0.0
C479 C 0.68718 0.22568 0.26561 0.0
P480 P 0.49356 0.9984 0.0021 0.0
H481 H 0.52281 0.96922 0.97081 0.0
H482 H 0.53993 0.97515 0.93025 0.0
H483 H 0.50933 0.04458 0.92702 0.0
H484 H 0.49173 0.03819 0.96754 0.0
H485 H 0.5298 0.02122 0.03458 0.0
H486 H 0.5306 0.0577 0.05941 0.0
H487 H 0.45943 0.07276 0.03244 0.0
H488 H 0.45899 0.03632 0.00728 0.0
H489 H 0.46542 0.97541 0.96175 0.0
H490 H 0.45562 0.99046 0.03825 0.0
O491 O 0.51037 0.9792 0.01682 0.0
H492 H 0.42585 0.95382 0.96035 0.0
H493 H 0.41609 0.96862 0.03705 0.0
C494 C 0.50651 0.0035 0.9724 0.0
C495 C 0.51995 0.9858 0.96147 0.0
C496 C 0.52979 0.98926 0.93828 0.0
C497 C 0.52627 0.01048 0.92548 0.0
C498 C 0.51232 0.02801 0.93634 0.0
C499 C 0.50243 0.02448 0.95959 0.0
C500 C 0.49412 0.02583 0.01955 0.0
C501 C 0.51434 0.03234 0.03405 0.0
C502 C 0.51473 0.05316 0.04832 0.0
C503 C 0.49494 0.06797 0.04817 0.0
C504 C 0.47498 0.06175 0.03295 0.0
C505 C 0.47462 0.04086 0.01869 0.0
C506 C 0.4633 0.98489 1.00005 0.0
C507 C 0.45465 0.97437 0.97819 0.0
C508 C 0.43207 0.96184 0.97744 0.0
C509 C 0.41782 0.9595 0.99858 0.0
C510 C 0.42644 0.9704 0.02036 0.0
C511 C 0.44905 0.98285 0.02109 0.0
C512 C 0.19316 0.90515 0.0255 0.0
O513 O 0.19151 0.89799 0.00266 0.0
O514 O 0.23106 0.86333 0.99383 0.0
Zn515 Zn 0.23791 0.87876 0.0268 0.0
O516 O 0.26824 0.90033 0.02456 0.0
C517 C 0.22865 0.83643 0.05623 0.0
O518 O 0.20749 0.83569 0.04514 0.0
O519 O 0.21067 0.89866 0.03856 0.0
C520 C 0.28716 0.89292 0.01447 0.0
O521 O 0.28664 0.87105 0.00549 0.0
C522 C 0.23464 0.87534 0.97448 0.0
O523 O 0.24155 0.89812 0.97636 0.0
O524 O 0.24422 0.85322 0.05129 0.0
C525 C 0.14656 0.45862 0.28601 0.0
O526 O 0.14147 0.47387 0.30337 0.0
O527 O 0.09292 0.49141 0.28875 0.0
Zn528 Zn 0.11513 0.48821 0.2597 0.0
O529 O 0.13661 0.51821 0.25542 0.0
C530 C 0.07312 0.48686 0.22755 0.0
O531 O 0.06205 0.49415 0.24721 0.0
O532 O 0.13697 0.46078 0.2651 0.0
C533 C 0.13001 0.53569 0.24279 0.0
O534 O 0.1083 0.53456 0.23286 0.0
C535 C 0.09636 0.50767 0.30493 0.0
O536 O 0.11494 0.52317 0.30284 0.0
O537 O 0.09549 0.48262 0.2288 0.0
C538 C 0.79874 0.59909 0.00932 0.0
O539 O 0.79279 0.60532 0.98715 0.0
O540 O 0.76808 0.65085 0.99494 0.0
Zn541 Zn 0.75752 0.62574 0.01942 0.0
O542 O 0.72974 0.6049 0.00574 0.0
C543 C 0.72931 0.65729 0.04567 0.0
O544 O 0.71893 0.65727 0.02408 0.0
O545 O 0.78585 0.60565 0.0271 0.0
C546 C 0.7162 0.59167 0.01929 0.0
O547 O 0.72046 0.59152 0.04287 0.0
C548 C 0.76128 0.65069 0.97278 0.0
O549 O 0.74685 0.63295 0.96461 0.0
O550 O 0.74679 0.64379 0.04908 0.0
C551 C 0.83915 0.05673 0.2824 0.0
O552 O 0.85687 0.05678 0.29844 0.0
O553 O 0.87739 0.00608 0.29421 0.0
Zn554 Zn 0.85897 0.01237 0.26327 0.0
O555 O 0.83839 0.98294 0.25312 0.0
C556 C 0.89973 0.03738 0.2415 0.0
O557 O 0.89905 0.04933 0.2622 0.0
O558 O 0.83693 0.03987 0.26673 0.0
C559 C 0.84324 0.97028 0.23457 0.0
O560 O 0.86272 0.97599 0.22175 0.0
C561 C 0.89068 0.98823 0.29338 0.0
O562 O 0.89039 0.97494 0.27349 0.0
O563 O 0.88383 0.02056 0.23741 0.0
C564 C 0.30055 0.09433 0.48431 0.0
O565 O 0.28968 0.09337 0.46295 0.0
O566 O 0.26963 0.14501 0.46268 0.0
Zn567 Zn 0.26219 0.1247 0.49237 0.0
O568 O 0.23569 0.09924 0.48499 0.0
C569 C 0.23965 0.16396 0.51482 0.0
O570 O 0.23204 0.16613 0.49228 0.0
O571 O 0.29215 0.10742 0.501 0.0
C572 C 0.21295 0.10106 0.48731 0.0
O573 O 0.20464 0.12124 0.49525 0.0
C574 C 0.25483 0.14744 0.44517 0.0
O575 O 0.23369 0.13554 0.44549 0.0
O576 O 0.25298 0.14683 0.51996 0.0
C577 C 0.32821 0.55554 0.76201 0.0
O578 O 0.3234 0.53997 0.74434 0.0
O579 O 0.38361 0.51434 0.8011 0.0
Zn580 Zn 0.36333 0.52158 0.77169 0.0
O581 O 0.33909 0.4944 0.76359 0.0
C582 C 0.40215 0.54458 0.74657 0.0
O583 O 0.40144 0.55771 0.76652 0.0
O584 O 0.34515 0.55162 0.77697 0.0
C585 C 0.34444 0.47327 0.75783 0.0
O586 O 0.36733 0.46794 0.75739 0.0
C587 C 0.37808 0.49889 0.81728 0.0
O588 O 0.35703 0.48686 0.81599 0.0
O589 O 0.38662 0.52716 0.74384 0.0
C590 C 0.70809 0.43277 0.50792 0.0
O591 O 0.72453 0.43717 0.49106 0.0
O592 O 0.72759 0.36924 0.48505 0.0
Zn593 Zn 0.73538 0.3908 0.51416 0.0
O594 O 0.76713 0.40921 0.50804 0.0
C595 C 0.73567 0.34859 0.54495 0.0
O596 O 0.72534 0.33774 0.52596 0.0
O597 O 0.70884 0.41364 0.52017 0.0
C598 C 0.78603 0.39722 0.50711 0.0
O599 O 0.78377 0.37389 0.50975 0.0
C600 C 0.73415 0.37563 0.46377 0.0
O601 O 0.74513 0.39681 0.46088 0.0
O602 O 0.74062 0.37101 0.54418 0.0
C603 C 0.65522 0.96029 0.77342 0.0
O604 O 0.63521 0.95809 0.78629 0.0
O605 O 0.62264 0.00815 0.79721 0.0
Zn606 Zn 0.64009 0.00866 0.76496 0.0
O607 O 0.6635 0.03731 0.76337 0.0
C608 C 0.60035 0.99471 0.73102 0.0
O609 O 0.59591 0.97652 0.74561 0.0
O610 O 0.66028 0.97979 0.76239 0.0
C611 C 0.65698 0.05859 0.76083 0.0
O612 O 0.63375 0.06254 0.76022 0.0
C613 C 0.60193 0.01623 0.80124 0.0
O614 O 0.59019 0.026 0.78334 0.0
O615 O 0.61752 0.00996 0.73615 0.0
C616 C 0.01074 0.2132 0.91596 0.0
O617 O 0.98806 0.21914 0.91486 0.0
O618 O 0.98714 0.24211 0.8619 0.0
Zn619 Zn 0.01793 0.25101 0.88058 0.0
O620 O 0.01483 0.28094 0.90073 0.0
C621 C 0.0453 0.25039 0.83514 0.0
O622 O 0.02621 0.23789 0.82676 0.0
O623 O 0.02647 0.22423 0.90276 0.0
C624 C 0.99532 0.28852 0.90941 0.0
O625 O 0.9747 0.2763 0.90538 0.0
C626 C 0.97723 0.25698 0.84815 0.0
O627 O 0.98687 0.2789 0.84668 0.0
O628 O 0.04566 0.25745 0.85724 0.0
C629 C 0.49905 0.71749 0.42158 0.0
O630 O 0.47585 0.72151 0.42034 0.0
O631 O 0.47619 0.73913 0.36272 0.0
Zn632 Zn 0.50268 0.75382 0.38436 0.0
O633 O 0.49176 0.78316 0.40212 0.0
C634 C 0.52608 0.77687 0.34431 0.0
O635 O 0.50391 0.78371 0.34106 0.0
O636 O 0.51382 0.72925 0.40793 0.0
C637 C 0.50017 0.78911 0.42304 0.0
O638 O 0.51575 0.7755 0.43353 0.0
C639 C 0.45502 0.74682 0.36087 0.0
O640 O 0.44905 0.76498 0.37453 0.0
O641 O 0.53047 0.76381 0.36247 0.0
C642 C 0.00894 0.79869 0.60805 0.0
O643 O 0.00578 0.80861 0.62953 0.0
O644 O 0.97418 0.76577 0.65412 0.0
Zn645 Zn 0.00243 0.75431 0.63486 0.0
O646 O 0.99539 0.72092 0.62149 0.0
C647 C 0.03622 0.77024 0.6731 0.0
O648 O 0.02019 0.78636 0.67703 0.0
O649 O 0.00837 0.77601 0.60619 0.0
C650 C 0.00405 0.70265 0.63117 0.0
O651 O 0.01703 0.70536 0.65122 0.0
C652 C 0.96103 0.75216 0.66767 0.0
O653 O 0.9656 0.72941 0.66911 0.0
O654 O 0.03245 0.75491 0.65608 0.0
C655 C 0.48844 0.27275 0.07965 0.0
O656 O 0.4757 0.25316 0.07335 0.0
O657 O 0.47003 0.25278 0.14888 0.0
Zn658 Zn 0.49634 0.2468 0.12447 0.0
O659 O 0.48951 0.21574 0.10606 0.0
C660 C 0.53173 0.24065 0.16365 0.0
O661 O 0.51261 0.23468 0.17691 0.0
O662 O 0.49853 0.27401 0.10053 0.0
C663 C 0.4943 0.19562 0.11493 0.0
O664 O 0.5032 0.19484 0.13712 0.0
C665 C 0.44868 0.25698 0.14199 0.0
O666 O 0.4436 0.25661 0.11857 0.0
O667 O 0.52885 0.24617 0.14142 0.0
H668 H 0.23779 0.83985 0.86508 0.0
H669 H 0.21885 0.77215 0.89891 0.0
H670 H 0.21716 0.79197 0.93875 0.0
H671 H 0.2229 0.82832 0.96419 0.0
H672 H 0.24239 0.89587 0.9301 0.0
H673 H 0.24211 0.87629 0.89021 0.0
C674 C 0.23339 0.82942 0.8812 0.0
C675 C 0.22863 0.80454 0.87905 0.0
C676 C 0.2326 0.8409 0.90402 0.0
C677 C 0.22245 0.79134 0.90003 0.0
C678 C 0.22161 0.80265 0.92284 0.0
C679 C 0.22694 0.8388 0.94803 0.0
C680 C 0.23278 0.86353 0.95021 0.0
C681 C 0.22688 0.82739 0.92508 0.0
C682 C 0.2379 0.87681 0.92902 0.0
C683 C 0.23779 0.86562 0.90617 0.0
H684 H 0.02082 0.49561 0.39082 0.0
H685 H 0.06754 0.55219 0.42198 0.0
H686 H 0.09235 0.55308 0.38515 0.0
H687 H 0.10145 0.537 0.34464 0.0
H688 H 0.05505 0.47999 0.31364 0.0
H689 H 0.02932 0.48024 0.34975 0.0
C690 C 0.03625 0.50834 0.38941 0.0
C691 C 0.04236 0.52377 0.40912 0.0
C692 C 0.05054 0.50863 0.36824 0.0
C693 C 0.06262 0.53994 0.40716 0.0
C694 C 0.07676 0.54051 0.38609 0.0
C695 C 0.08565 0.5247 0.3457 0.0
C696 C 0.08026 0.50846 0.32645 0.0
C697 C 0.07103 0.52479 0.36661 0.0
C698 C 0.0597 0.49263 0.3282 0.0
C699 C 0.04495 0.49276 0.34885 0.0
H700 H 0.8004 0.74407 0.91903 0.0
H701 H 0.76445 0.70797 0.85803 0.0
H702 H 0.75222 0.67433 0.88413 0.0
H703 H 0.75169 0.65521 0.92432 0.0
H704 H 0.78854 0.69116 0.98496 0.0
H705 H 0.80081 0.72459 0.95879 0.0
C706 C 0.79016 0.72872 0.91133 0.0
C707 C 0.78336 0.7286 0.88659 0.0
C708 C 0.78338 0.70937 0.92637 0.0
C709 C 0.76967 0.70871 0.87708 0.0
C710 C 0.76279 0.68939 0.89196 0.0
C711 C 0.76244 0.67033 0.93181 0.0
C712 C 0.76913 0.67064 0.95659 0.0
C713 C 0.76949 0.68955 0.91665 0.0
C714 C 0.78312 0.69039 0.96596 0.0
C715 C 0.79014 0.70957 0.95102 0.0
H716 H 0.96516 0.98562 0.38097 0.0
H717 H 0.98206 0.92016 0.344 0.0
H718 H 0.95021 0.92597 0.31415 0.0
H719 H 0.91873 0.95022 0.29755 0.0
H720 H 0.90112 0.01559 0.33422 0.0
H721 H 0.93174 0.00896 0.36544 0.0
C722 C 0.96165 0.97248 0.36657 0.0
C723 C 0.97621 0.95264 0.36459 0.0
C724 C 0.94318 0.97589 0.34941 0.0
C725 C 0.9715 0.93586 0.34568 0.0
C726 C 0.95318 0.93908 0.32866 0.0
C727 C 0.92144 0.96299 0.31243 0.0
C728 C 0.90773 0.98344 0.31344 0.0
C729 C 0.93914 0.95916 0.33017 0.0
C730 C 0.91143 0.99969 0.33298 0.0
C731 C 0.929 0.99595 0.3508 0.0
H732 H 0.20146 0.24723 0.57972 0.0
H733 H 0.2583 0.22565 0.6276 0.0
H734 H 0.2675 0.19346 0.59912 0.0
H735 H 0.26021 0.17232 0.55975 0.0
H736 H 0.20429 0.19565 0.51164 0.0
H737 H 0.19416 0.22643 0.54097 0.0
C738 C 0.21609 0.2357 0.58385 0.0
C739 C 0.22931 0.23904 0.60568 0.0
C740 C 0.22147 0.21752 0.56731 0.0
C741 C 0.24774 0.22344 0.61099 0.0
C742 C 0.25308 0.20509 0.59466 0.0
C743 C 0.24571 0.18405 0.5558 0.0
C744 C 0.23307 0.1817 0.5335 0.0
C745 C 0.24015 0.20204 0.57267 0.0
C746 C 0.21441 0.19712 0.52858 0.0
C747 C 0.20858 0.21475 0.54535 0.0
H748 H 0.49041 0.57892 0.68061 0.0
H749 H 0.46553 0.51702 0.63828 0.0
H750 H 0.43243 0.50902 0.66715 0.0
H751 H 0.41096 0.51937 0.70487 0.0
H752 H 0.43662 0.5812 0.7471 0.0
H753 H 0.4691 0.58929 0.71792 0.0
C754 C 0.47792 0.56351 0.67783 0.0
C755 C 0.48055 0.5485 0.65741 0.0
C756 C 0.45904 0.55901 0.69448 0.0
C757 C 0.46383 0.52894 0.65378 0.0
C758 C 0.44496 0.52431 0.67033 0.0
C759 C 0.42362 0.53465 0.70765 0.0
C760 C 0.42133 0.54962 0.7282 0.0
C761 C 0.44241 0.53921 0.69078 0.0
C762 C 0.43792 0.56934 0.7315 0.0
C763 C 0.45655 0.574 0.71482 0.0
H764 H 0.7831 0.30243 0.63704 0.0
H765 H 0.75286 0.23807 0.60218 0.0
H766 H 0.73472 0.2618 0.57062 0.0
H767 H 0.72926 0.30057 0.55158 0.0
H768 H 0.76024 0.36504 0.58566 0.0
H769 H 0.77628 0.34153 0.61872 0.0
C770 C 0.77256 0.29362 0.62252 0.0
C771 C 0.76936 0.26849 0.62204 0.0
C772 C 0.76236 0.30738 0.6042 0.0
C773 C 0.75536 0.25738 0.60325 0.0
C774 C 0.74511 0.27093 0.58505 0.0
C775 C 0.73936 0.30953 0.56632 0.0
C776 C 0.74362 0.33453 0.56602 0.0
C777 C 0.74871 0.29591 0.58518 0.0
C778 C 0.75671 0.34582 0.58536 0.0
C779 C 0.76595 0.33238 0.60427 0.0
H780 H 0.55587 0.01584 0.62783 0.0
H781 H 0.51167 0.95235 0.64481 0.0
H782 H 0.53151 0.95023 0.68464 0.0
H783 H 0.5627 0.96553 0.71391 0.0
H784 H 0.60687 0.02904 0.69635 0.0
H785 H 0.58584 0.03191 0.65749 0.0
C786 C 0.55064 0.00149 0.64023 0.0
C787 C 0.53246 0.98419 0.63332 0.0
C788 C 0.56217 0.00033 0.66298 0.0
C789 C 0.52553 0.96597 0.64976 0.0
C790 C 0.53695 0.96468 0.67248 0.0
C791 C 0.56765 0.98006 0.70164 0.0
C792 C 0.58647 0.99693 0.70804 0.0
C793 C 0.55548 0.98163 0.67919 0.0
C794 C 0.59254 0.01572 0.69193 0.0
C795 C 0.58053 0.01739 0.66964 0.0
H796 H 0.89488 0.20596 0.78336 0.0
H797 H 0.89301 0.27698 0.75372 0.0
H798 H 0.92361 0.29165 0.78334 0.0
H799 H 0.95267 0.28371 0.81601 0.0
H800 H 0.95483 0.21236 0.84505 0.0
H801 H 0.92245 0.19843 0.81723 0.0
C802 C 0.9012 0.22465 0.78337 0.0
C803 C 0.89183 0.24031 0.76623 0.0
C804 C 0.91894 0.23288 0.80026 0.0
C805 C 0.89982 0.26458 0.7668 0.0
C806 C 0.91744 0.27294 0.78363 0.0
C807 C 0.94596 0.26514 0.81638 0.0
C808 C 0.95633 0.24909 0.8325 0.0
C809 C 0.92738 0.25718 0.80022 0.0
C810 C 0.94729 0.22512 0.83279 0.0
C811 C 0.92877 0.2171 0.81685 0.0
H812 H 0.46962 0.89172 0.45597 0.0
H813 H 0.51064 0.8737 0.51969 0.0
H814 H 0.51724 0.83428 0.50232 0.0
H815 H 0.5132 0.80571 0.46821 0.0
H816 H 0.4726 0.82375 0.40418 0.0
H817 H 0.46413 0.86237 0.42245 0.0
C818 C 0.48002 0.87916 0.46603 0.0
C819 C 0.48967 0.8857 0.48907 0.0
C820 C 0.48394 0.85656 0.45584 0.0
C821 C 0.50278 0.86906 0.50205 0.0
C822 C 0.50672 0.84656 0.49205 0.0
C823 C 0.5024 0.81802 0.45827 0.0
C824 C 0.49371 0.81187 0.43477 0.0
C825 C 0.49763 0.84022 0.46885 0.0
C826 C 0.47959 0.82802 0.42226 0.0
C827 C 0.47476 0.85014 0.43268 0.0
H828 H 0.14036 0.286 0.77966 0.0
H829 H 0.0959 0.26432 0.71757 0.0
H830 H 0.06331 0.25057 0.74464 0.0
H831 H 0.04669 0.24601 0.78581 0.0
H832 H 0.09009 0.26975 0.84788 0.0
H833 H 0.12359 0.28172 0.82091 0.0
C834 C 0.12349 0.27845 0.77201 0.0
C835 C 0.12076 0.27615 0.74654 0.0
C836 C 0.10452 0.27104 0.78767 0.0
C837 C 0.09882 0.26593 0.73706 0.0
C838 C 0.08002 0.25823 0.75253 0.0
C839 C 0.06352 0.25369 0.79347 0.0
C840 C 0.06585 0.25697 0.81882 0.0
C841 C 0.08261 0.26082 0.77785 0.0
C842 C 0.08775 0.26708 0.82841 0.0
C843 C 0.10695 0.27392 0.81301 0.0
H844 H 0.55345 0.64804 0.4906 0.0
H845 H 0.48066 0.6342 0.5172 0.0
H846 H 0.46532 0.66188 0.48735 0.0
H847 H 0.47271 0.69064 0.45427 0.0
H848 H 0.54565 0.70458 0.4279 0.0
H849 H 0.56071 0.67607 0.45691 0.0
C850 C 0.53418 0.65084 0.48964 0.0
C851 C 0.51823 0.63908 0.5061 0.0
C852 C 0.52551 0.66685 0.47252 0.0
C853 C 0.49336 0.64321 0.50489 0.0
C854 C 0.48456 0.65898 0.48778 0.0
C855 C 0.4919 0.68741 0.45481 0.0
C856 C 0.508 0.6998 0.43893 0.0
C857 C 0.5005 0.67104 0.47163 0.0
C858 C 0.53282 0.69536 0.43991 0.0
C859 C 0.54148 0.67903 0.45651 0.0
H860 H 0.88617 0.81069 0.72739 0.0
H861 H 0.86763 0.74035 0.75559 0.0
H862 H 0.89697 0.72307 0.72829 0.0
H863 H 0.92943 0.72818 0.69798 0.0
H864 H 0.94862 0.79872 0.6705 0.0
H865 H 0.9177 0.81563 0.69612 0.0
C866 C 0.88858 0.79158 0.72759 0.0
C867 C 0.87474 0.77688 0.74358 0.0
C868 C 0.90573 0.78179 0.71209 0.0
C869 C 0.87781 0.75208 0.74329 0.0
C870 C 0.89474 0.74219 0.72782 0.0
C871 C 0.9268 0.74724 0.6975 0.0
C872 C 0.94145 0.76214 0.68242 0.0
C873 C 0.90902 0.75691 0.71236 0.0
C874 C 0.93768 0.7868 0.68198 0.0
C875 C 0.91999 0.79652 0.69664 0.0
H876 H 0.02693 0.84744 0.50588 0.0
H877 H 0.03158 0.91092 0.5512 0.0
H878 H 0.02335 0.88662 0.5874 0.0
H879 H 0.01551 0.84724 0.60618 0.0
H880 H 0.01166 0.78375 0.56068 0.0
H881 H 0.01874 0.80819 0.52455 0.0
C882 C 0.02584 0.85597 0.52365 0.0
C883 C 0.02976 0.88093 0.52587 0.0
C884 C 0.02133 0.84189 0.54436 0.0
C885 C 0.02876 0.89171 0.54907 0.0
C886 C 0.024 0.87784 0.56974 0.0
C887 C 0.01615 0.83874 0.58836 0.0
C888 C 0.01307 0.81368 0.58619 0.0
C889 C 0.02041 0.85289 0.56762 0.0
C890 C 0.01404 0.80298 0.56293 0.0
C891 C 0.01806 0.81694 0.54222 0.0
H892 H 0.12736 0.78552 0.74249 0.0
H893 H 0.14529 0.71884 0.7087 0.0
H894 H 0.10765 0.71795 0.68512 0.0
H895 H 0.07022 0.7367 0.6732 0.0
H896 H 0.05236 0.80348 0.70697 0.0
H897 H 0.08949 0.80383 0.73124 0.0
C898 C 0.12307 0.77085 0.72988 0.0
C899 C 0.13916 0.75232 0.72732 0.0
C900 C 0.10146 0.77051 0.71629 0.0
C901 C 0.13313 0.73321 0.71121 0.0
C902 C 0.11168 0.73277 0.6976 0.0
C903 C 0.07443 0.75134 0.68586 0.0
C904 C 0.05855 0.7701 0.68814 0.0
C905 C 0.09579 0.75141 0.69986 0.0
C906 C 0.06424 0.78882 0.7048 0.0
C907 C 0.08549 0.78906 0.7187 0.0
H908 H 0.00706 0.59762 0.58893 0.0
H909 H 0.96287 0.6277 0.53314 0.0
H910 H 0.9645 0.666 0.55491 0.0
H911 H 0.97909 0.69116 0.5894 0.0
H912 H 0.02263 0.66074 0.64554 0.0
H913 H 0.02011 0.62221 0.62426 0.0
C914 C 0.99748 0.61242 0.58167 0.0
C915 C 0.98495 0.60974 0.55934 0.0
C916 C 0.9983 0.63434 0.59439 0.0
C917 C 0.973 0.62932 0.55006 0.0
C918 C 0.97378 0.6512 0.56259 0.0
C919 C 0.98792 0.67608 0.59707 0.0
C920 C 0.00111 0.67891 0.61901 0.0
C921 C 0.9865 0.65396 0.58469 0.0
C922 C 0.01238 0.65912 0.62869 0.0
C923 C 0.011 0.63706 0.6165 0.0
H924 H 0.77799 0.88851 0.18307 0.0
H925 H 0.7338 0.89969 0.2465 0.0
H926 H 0.76428 0.92892 0.26255 0.0
H927 H 0.80228 0.95311 0.25741 0.0
H928 H 0.84619 0.94245 0.19363 0.0
H929 H 0.81697 0.91136 0.17887 0.0
C930 C 0.77504 0.89735 0.20041 0.0
C931 C 0.7536 0.89198 0.2135 0.0
C932 C 0.79252 0.91436 0.20942 0.0
C933 C 0.75025 0.90329 0.23615 0.0
C934 C 0.76759 0.92016 0.24527 0.0
C935 C 0.80555 0.94391 0.24035 0.0
C936 C 0.82632 0.95028 0.22658 0.0
C937 C 0.78862 0.92609 0.23189 0.0
C938 C 0.83032 0.93801 0.20458 0.0
C939 C 0.8136 0.92023 0.19609 0.0
H940 H 0.76338 0.13488 0.26212 0.0
H941 H 0.80435 0.17158 0.3196 0.0
H942 H 0.82904 0.13699 0.3244 0.0
H943 H 0.84054 0.09717 0.3107 0.0
H944 H 0.80024 0.06115 0.25227 0.0
H945 H 0.77403 0.0947 0.24928 0.0
C946 C 0.77776 0.13536 0.27565 0.0
C947 C 0.78202 0.15588 0.29039 0.0
C948 C 0.79217 0.11556 0.27805 0.0
C949 C 0.80045 0.15596 0.30817 0.0
C950 C 0.81473 0.13624 0.3108 0.0
C951 C 0.82595 0.09659 0.2974 0.0
C952 C 0.82251 0.07668 0.28166 0.0
C953 C 0.81096 0.11606 0.29563 0.0
C954 C 0.80343 0.07625 0.26457 0.0
C955 C 0.78839 0.09546 0.26282 0.0
H956 H 0.37504 0.96989 0.01985 0.0
H957 H 0.40854 0.91597 0.97667 0.0
H958 H 0.371 0.89093 0.9773 0.0
H959 H 0.32907 0.88377 0.99112 0.0
H960 H 0.29552 0.93751 0.03456 0.0
H961 H 0.33272 0.96306 0.033 0.0
C962 C 0.37414 0.95262 0.01066 0.0
C963 C 0.39458 0.94483 0.99824 0.0
C964 C 0.35252 0.93822 0.01123 0.0
C965 C 0.393 0.92255 0.98611 0.0
C966 C 0.37158 0.90813 0.9866 0.0
C967 C 0.32986 0.90108 0.00024 0.0
C968 C 0.30955 0.90863 0.01303 0.0
C969 C 0.35129 0.91571 0.99924 0.0
C970 C 0.31088 0.9312 0.02461 0.0
C971 C 0.33216 0.94584 0.02374 0.0
H972 H 0.22419 0.38842 0.32279 0.0
H973 H 0.22491 0.36952 0.2464 0.0
H974 H 0.19326 0.39749 0.2384 0.0
H975 H 0.16623 0.42825 0.25307 0.0
H976 H 0.16637 0.44715 0.32959 0.0
H977 H 0.19655 0.41798 0.33758 0.0
C978 C 0.21715 0.3901 0.30444 0.0
C979 C 0.22684 0.3768 0.28525 0.0
C980 C 0.19913 0.40628 0.29998 0.0
C981 C 0.21788 0.37965 0.26148 0.0
C982 C 0.19974 0.39559 0.25691 0.0
C983 C 0.17275 0.42587 0.27151 0.0
C984 C 0.16404 0.43995 0.29067 0.0
C985 C 0.19037 0.40916 0.276 0.0
C986 C 0.17277 0.43666 0.31445 0.0
C987 C 0.19006 0.41996 0.31907 0.0
H988 H 0.15584 0.00471 0.45715 0.0
H989 H 0.09511 0.04995 0.46226 0.0
H990 H 0.12241 0.08377 0.47453 0.0
H991 H 0.16369 0.10064 0.48315 0.0
H992 H 0.22433 0.05538 0.47637 0.0
H993 H 0.19688 0.02155 0.465 0.0
C994 C 0.14855 0.02203 0.4606 0.0
C995 C 0.12342 0.02475 0.45866 0.0
C996 C 0.16435 0.04144 0.46732 0.0
C997 C 0.11431 0.04724 0.46383 0.0
C998 C 0.12994 0.06664 0.47072 0.0
C999 C 0.1709 0.08336 0.47924 0.0
C1000 C 0.19605 0.08059 0.48064 0.0
C1001 C 0.15501 0.06395 0.47249 0.0
C1002 C 0.20507 0.05808 0.47539 0.0
C1003 C 0.18938 0.03869 0.4689 0.0
H1004 H 0.72187 0.15008 0.73159 0.0
H1005 H 0.77764 0.09909 0.73584 0.0
H1006 H 0.74786 0.06833 0.74948 0.0
H1007 H 0.70579 0.05535 0.75805 0.0
H1008 H 0.64966 0.10598 0.75328 0.0
H1009 H 0.67987 0.13755 0.74242 0.0
C1010 C 0.72755 0.13234 0.73588 0.0
C1011 C 0.7519 0.12684 0.73255 0.0
C1012 C 0.71028 0.11467 0.74356 0.0
C1013 C 0.75894 0.10368 0.73792 0.0
C1014 C 0.74195 0.08611 0.7458 0.0
C1015 C 0.70013 0.07333 0.75484 0.0
C1016 C 0.67544 0.07822 0.75633 0.0
C1017 C 0.71752 0.0913 0.74831 0.0
C1018 C 0.66851 0.10166 0.75216 0.0
C1019 C 0.68578 0.11974 0.74591 0.0
H1020 H 0.39062 0.0295 0.48514 0.0
H1021 H 0.39079 0.04944 0.56131 0.0
H1022 H 0.35554 0.07327 0.55473 0.0
H1023 H 0.32473 0.08859 0.52721 0.0
H1024 H 0.32449 0.06784 0.45119 0.0
H1025 H 0.35951 0.044 0.45795 0.0
C1026 C 0.38276 0.03876 0.5004 0.0
C1027 C 0.39334 0.03761 0.52369 0.0
C1028 C 0.36248 0.05236 0.4965 0.0
C1029 C 0.38316 0.05018 0.54314 0.0
C1030 C 0.36295 0.06375 0.53941 0.0
C1031 C 0.33236 0.07888 0.51212 0.0
C1032 C 0.32198 0.08007 0.48872 0.0
C1033 C 0.35252 0.06506 0.51614 0.0
C1034 C 0.33206 0.06728 0.4694 0.0
C1035 C 0.35212 0.05361 0.47323 0.0
H1036 H 0.64102 0.51984 0.52153 0.0
H1037 H 0.60964 0.47346 0.57678 0.0
H1038 H 0.63721 0.44247 0.56554 0.0
H1039 H 0.67156 0.42929 0.54132 0.0
H1040 H 0.70326 0.4761 0.48652 0.0
H1041 H 0.6744 0.50619 0.49646 0.0
C1042 C 0.64026 0.50297 0.53117 0.0
C1043 C 0.62336 0.49905 0.55006 0.0
C1044 C 0.65632 0.48533 0.52478 0.0
C1045 C 0.62231 0.4769 0.56203 0.0
C1046 C 0.63819 0.45922 0.55572 0.0
C1047 C 0.67211 0.44602 0.53147 0.0
C1048 C 0.68969 0.45044 0.51329 0.0
C1049 C 0.65546 0.46334 0.53731 0.0
C1050 C 0.69001 0.47221 0.50065 0.0
C1051 C 0.6735 0.48947 0.50633 0.0
H1052 H 0.71762 0.2921 0.38606 0.0
H1053 H 0.7535 0.34523 0.3402 0.0
H1054 H 0.75581 0.37364 0.37421 0.0
H1055 H 0.74847 0.38321 0.41705 0.0
H1056 H 0.7127 0.33032 0.46329 0.0
H1057 H 0.70921 0.30218 0.42896 0.0
C1058 C 0.72572 0.30998 0.38346 0.0
C1059 C 0.73552 0.31645 0.36065 0.0
C1060 C 0.72699 0.32629 0.40314 0.0
C1061 C 0.74618 0.33962 0.35767 0.0
C1062 C 0.74739 0.35595 0.37707 0.0
C1063 C 0.73979 0.36558 0.41965 0.0
C1064 C 0.7309 0.35892 0.44275 0.0
C1065 C 0.73801 0.34943 0.39992 0.0
C1066 C 0.71972 0.33595 0.44572 0.0
C1067 C 0.71774 0.31981 0.42609 0.0
H1068 H 0.57132 0.9995 0.91076 0.0
H1069 H 0.50582 0.02984 0.88505 0.0
H1070 H 0.5236 0.03492 0.84453 0.0
H1071 H 0.55744 0.02971 0.81609 0.0
H1072 H 0.6224 0.99835 0.84204 0.0
H1073 H 0.60496 0.99443 0.88262 0.0
C1074 C 0.56082 0.00704 0.89625 0.0
C1075 C 0.53722 0.01417 0.90095 0.0
C1076 C 0.57103 0.00965 0.87297 0.0
C1077 C 0.52411 0.0244 0.88203 0.0
C1078 C 0.53421 0.02717 0.8588 0.0
C1079 C 0.5678 0.02205 0.83062 0.0
C1080 C 0.5912 0.01431 0.82593 0.0
C1081 C 0.55762 0.01974 0.85402 0.0
C1082 C 0.60435 0.00444 0.84504 0.0
C1083 C 0.5944 0.00218 0.86831 0.0
H1084 H 0.25917 0.22868 0.36612 0.0
H1085 H 0.33353 0.23531 0.39089 0.0
H1086 H 0.32597 0.20181 0.41844 0.0
H1087 H 0.29793 0.17164 0.43668 0.0
H1088 H 0.22389 0.16414 0.41111 0.0
H1089 H 0.23187 0.19658 0.38228 0.0
C1090 C 0.27385 0.22258 0.37722 0.0
C1091 C 0.29682 0.23476 0.37658 0.0
C1092 C 0.26947 0.20311 0.39289 0.0
C1093 C 0.31552 0.22668 0.39137 0.0
C1094 C 0.31128 0.20739 0.40703 0.0
C1095 C 0.28356 0.17698 0.42469 0.0
C1096 C 0.2603 0.16557 0.4262 0.0
C1097 C 0.28824 0.19568 0.40817 0.0
C1098 C 0.24197 0.1726 0.41037 0.0
C1099 C 0.24648 0.19123 0.39392 0.0
H1100 H 0.44691 0.4574 0.89683 0.0
H1101 H 0.49602 0.51253 0.86784 0.0
H1102 H 0.46416 0.52552 0.84083 0.0
H1103 H 0.4231 0.52001 0.82405 0.0
H1104 H 0.37384 0.4648 0.85274 0.0
H1105 H 0.4049 0.45336 0.88156 0.0
C1106 C 0.45052 0.47251 0.88489 0.0
C1107 C 0.47388 0.48386 0.88425 0.0
C1108 C 0.43212 0.47984 0.86931 0.0
C1109 C 0.47832 0.50323 0.86843 0.0
C1110 C 0.46009 0.51074 0.85305 0.0
C1111 C 0.41904 0.50557 0.83671 0.0
C1112 C 0.39618 0.4932 0.83609 0.0
C1113 C 0.43704 0.49895 0.85308 0.0
C1114 C 0.39128 0.47461 0.85273 0.0
C1115 C 0.40906 0.46801 0.86921 0.0
H1116 H 0.71616 0.73024 0.13273 0.0
H1117 H 0.66066 0.75353 0.08415 0.0
H1118 H 0.66906 0.72155 0.05547 0.0
H1119 H 0.69328 0.68824 0.04321 0.0
H1120 H 0.74951 0.66506 0.09098 0.0
H1121 H 0.73971 0.69571 0.1209 0.0
C1122 C 0.70596 0.72832 0.11584 0.0
C1123 C 0.68779 0.74427 0.11065 0.0
C1124 C 0.71103 0.70994 0.09925 0.0
C1125 C 0.67451 0.74134 0.0888 0.0
C1126 C 0.6794 0.72314 0.07229 0.0
C1127 C 0.70333 0.68974 0.06022 0.0
C1128 C 0.72219 0.67443 0.06476 0.0
C1129 C 0.69774 0.70748 0.07722 0.0
C1130 C 0.73492 0.67662 0.08698 0.0
C1131 C 0.72937 0.6942 0.10408 0.0
H1132 H 0.98848 0.07378 0.17716 0.0
H1133 H 0.96446 0.01237 0.13359 0.0
H1134 H 0.93115 0.0037 0.16195 0.0
H1135 H 0.90925 0.01323 0.19951 0.0
H1136 H 0.93411 0.07417 0.24343 0.0
H1137 H 0.96685 0.08314 0.21466 0.0
C1138 C 0.97613 0.05833 0.17399 0.0
C1139 C 0.97905 0.04371 0.1533 0.0
C1140 C 0.95716 0.05335 0.19044 0.0
C1141 C 0.96253 0.02406 0.14923 0.0
C1142 C 0.94354 0.01902 0.16551 0.0
C1143 C 0.92178 0.02852 0.20276 0.0
C1144 C 0.91919 0.04299 0.22362 0.0
C1145 C 0.9407 0.03353 0.18619 0.0
C1146 C 0.93566 0.06269 0.22756 0.0
C1147 C 0.95442 0.06786 0.21111 0.0
H1148 H 0.23952 0.74815 0.12582 0.0
H1149 H 0.30993 0.78375 0.13729 0.0
H1150 H 0.29942 0.81558 0.10968 0.0
H1151 H 0.27058 0.83299 0.0818 0.0
H1152 H 0.20002 0.79762 0.07032 0.0
H1153 H 0.21016 0.7662 0.09864 0.0
C1154 C 0.25245 0.76302 0.1225 0.0
C1155 C 0.27551 0.7635 0.13354 0.0
C1156 C 0.24628 0.78131 0.10658 0.0
C1157 C 0.29218 0.78275 0.12877 0.0
C1158 C 0.28615 0.80103 0.11307 0.0
C1159 C 0.25736 0.81845 0.08551 0.0
C1160 C 0.23458 0.81768 0.07387 0.0
C1161 C 0.26332 0.80041 0.10175 0.0
C1162 C 0.2177 0.79869 0.07897 0.0
C1163 C 0.22348 0.78069 0.09517 0.0
H1164 H 0.0056 0.49118 0.13466 0.0
H1165 H 0.07261 0.47589 0.09892 0.0
H1166 H 0.09296 0.47401 0.13836 0.0
H1167 H 0.09206 0.47777 0.18288 0.0
H1168 H 0.02518 0.49339 0.2188 0.0
H1169 H 0.00441 0.49372 0.17946 0.0
C1170 C 0.02459 0.48719 0.13554 0.0
C1171 C 0.03759 0.48383 0.11387 0.0
C1172 C 0.03622 0.48617 0.15831 0.0
C1173 C 0.06227 0.47892 0.1153 0.0
C1174 C 0.0739 0.47771 0.13785 0.0
C1175 C 0.0729 0.48108 0.18216 0.0
C1176 C 0.06024 0.48558 0.2038 0.0
C1177 C 0.0611 0.48149 0.15946 0.0
C1178 C 0.03541 0.4899 0.20245 0.0
C1179 C 0.0235 0.49013 0.17994 0.0
H1180 H 0.39782 0.6966 0.27312 0.0
H1181 H 0.34202 0.7417 0.29883 0.0
H1182 H 0.36881 0.75714 0.33148 0.0
H1183 H 0.40831 0.75818 0.35246 0.0
H1184 H 0.4635 0.7121 0.32717 0.0
H1185 H 0.43645 0.69634 0.29501 0.0
C1186 C 0.39132 0.70953 0.28605 0.0
C1187 C 0.3679 0.71797 0.28341 0.0
C1188 C 0.4067 0.71814 0.30495 0.0
C1189 C 0.36007 0.73512 0.30014 0.0
C1190 C 0.37533 0.74386 0.31894 0.0
C1191 C 0.41439 0.74461 0.34 0.0
C1192 C 0.43795 0.73642 0.34224 0.0
C1193 C 0.39873 0.73558 0.32145 0.0
C1194 C 0.44548 0.71877 0.32592 0.0
C1195 C 0.43004 0.70975 0.30745 0.0
H1196 H 0.01669 0.38579 0.96635 0.0
H1197 H 0.93855 0.38414 0.96828 0.0
H1198 H 0.9365 0.34573 0.94643 0.0
H1199 H 0.95709 0.31286 0.92631 0.0
H1200 H 0.03537 0.31524 0.92442 0.0
H1201 H 0.03713 0.35295 0.947 0.0
C1202 C 0.9992 0.37687 0.96231 0.0
C1203 C 0.97781 0.38774 0.96905 0.0
C1204 C 0.99818 0.35492 0.94971 0.0
C1205 C 0.95528 0.37621 0.96316 0.0
C1206 C 0.95411 0.35422 0.95075 0.0
C1207 C 0.97453 0.32158 0.93092 0.0
C1208 C 0.99604 0.31119 0.92362 0.0
C1209 C 0.97546 0.34345 0.94383 0.0
C1210 C 0.01849 0.32281 0.9297 0.0
C1211 C 0.01955 0.34441 0.94265 0.0
H1212 H 0.61765 0.79415 0.27667 0.0
H1213 H 0.5649 0.82904 0.23319 0.0
H1214 H 0.53397 0.8204 0.26397 0.0
H1215 H 0.52157 0.80208 0.30264 0.0
H1216 H 0.57388 0.76627 0.34585 0.0
H1217 H 0.60523 0.77595 0.31565 0.0
C1218 C 0.59934 0.79972 0.27386 0.0
C1219 C 0.59364 0.81225 0.25264 0.0
C1220 C 0.58154 0.79449 0.29155 0.0
C1221 C 0.5699 0.81966 0.24948 0.0
C1222 C 0.55214 0.8146 0.26701 0.0
C1223 C 0.53983 0.79645 0.30553 0.0
C1224 C 0.54532 0.78343 0.32647 0.0
C1225 C 0.55773 0.80195 0.28805 0.0
C1226 C 0.56912 0.77629 0.32988 0.0
C1227 C 0.58707 0.7818 0.31261 0.0
H1228 H 0.05933 0.14099 0.98644 0.0
H1229 H 0.98506 0.1292 0.00953 0.0
H1230 H 0.97207 0.15754 0.97915 0.0
H1231 H 0.98197 0.18653 0.94682 0.0
H1232 H 0.05631 0.19803 0.92367 0.0
H1233 H 0.069 0.16866 0.95302 0.0
C1234 C 0.04025 0.14432 0.98458 0.0
C1235 C 0.02321 0.13301 0.0003 0.0
C1236 C 0.0329 0.16064 0.96709 0.0
C1237 C 0.9986 0.13788 0.99789 0.0
C1238 C 0.99114 0.15402 0.98045 0.0
C1239 C 0.00093 0.18256 0.94811 0.0
C1240 C 0.01815 0.19458 0.9331 0.0
C1241 C 0.00816 0.16568 0.96511 0.0
C1242 C 0.04265 0.18912 0.935 0.0
C1243 C 0.04995 0.17232 0.95181 0.0
H1244 H 0.36168 0.29283 0.20465 0.0
H1245 H 0.41233 0.28123 0.26292 0.0
H1246 H 0.44162 0.2673 0.23359 0.0
H1247 H 0.45328 0.25914 0.19139 0.0
H1248 H 0.40246 0.26991 0.13305 0.0
H1249 H 0.3727 0.28293 0.16248 0.0
C1250 C 0.37899 0.28698 0.21098 0.0
C1251 C 0.38481 0.28833 0.23598 0.0
C1252 C 0.39575 0.27877 0.19401 0.0
C1253 C 0.4075 0.28088 0.24377 0.0
C1254 C 0.42423 0.27273 0.22702 0.0
C1255 C 0.43566 0.26423 0.18508 0.0
C1256 C 0.4302 0.26363 0.16001 0.0
C1257 C 0.41864 0.27178 0.20208 0.0
C1258 C 0.40722 0.27022 0.15222 0.0
C1259 C 0.39017 0.27772 0.16905 0.0
H1260 H 0.49748 0.34613 0.99293 0.0
H1261 H 0.54181 0.38543 0.04618 0.0
H1262 H 0.53283 0.35436 0.07623 0.0
H1263 H 0.51406 0.31515 0.08681 0.0
H1264 H 0.47053 0.27527 0.0333 0.0
H1265 H 0.47774 0.30734 0.0039 0.0
C1266 C 0.50523 0.34786 0.01108 0.0
C1267 C 0.52034 0.36808 0.01723 0.0
C1268 C 0.50026 0.32975 0.02821 0.0
C1269 C 0.52989 0.37022 0.041 0.0
C1270 C 0.52492 0.35236 0.05816 0.0
C1271 C 0.50605 0.31348 0.06876 0.0
C1272 C 0.49188 0.29274 0.06226 0.0
C1273 C 0.51035 0.33193 0.05189 0.0
C1274 C 0.48158 0.29097 0.0388 0.0
C1275 C 0.4857 0.30931 0.02194 0.0
H1276 H 0.64213 0.25116 0.19419 0.0
H1277 H 0.61262 0.22567 0.26248 0.0
H1278 H 0.57193 0.22273 0.2446 0.0
H1279 H 0.5446 0.22845 0.2098 0.0
H1280 H 0.57447 0.2543 0.14169 0.0
H1281 H 0.61507 0.25628 0.15938 0.0
C1282 C 0.62677 0.24512 0.20522 0.0
C1283 C 0.63041 0.23878 0.22968 0.0
C1284 C 0.60346 0.2436 0.19488 0.0
C1285 C 0.61037 0.23049 0.24356 0.0
C1286 C 0.58707 0.22894 0.23339 0.0
C1287 C 0.55998 0.23449 0.19881 0.0
C1288 C 0.5564 0.24129 0.17446 0.0
C1289 C 0.58338 0.23558 0.2091 0.0
C1290 C 0.57661 0.24898 0.16048 0.0
C1291 C 0.59988 0.25013 0.17058 0.0
H1292 H 0.48042 0.11237 0.03666 0.0
H1293 H 0.50987 0.07217 0.09555 0.0
H1294 H 0.51165 0.10786 0.12152 0.0
H1295 H 0.50572 0.15062 0.12729 0.0
H1296 H 0.47627 0.19101 0.0685 0.0
H1297 H 0.47327 0.15504 0.04291 0.0
C1298 C 0.48697 0.11137 0.05526 0.0
C1299 C 0.49514 0.08965 0.06407 0.0
C1300 C 0.48794 0.13198 0.07015 0.0
C1301 C 0.50384 0.08874 0.08815 0.0
C1302 C 0.50474 0.10911 0.10308 0.0
C1303 C 0.49852 0.15157 0.10893 0.0
C1304 C 0.4913 0.17353 0.09985 0.0
C1305 C 0.49701 0.13086 0.09422 0.0
C1306 C 0.48201 0.17437 0.07598 0.0
C1307 C 0.48031 0.1538 0.06129 0.0
H1308 H 0.25084 0.41143 0.72536 0.0
H1309 H 0.30364 0.35839 0.71375 0.0
H1310 H 0.33574 0.38633 0.7293 0.0
H1311 H 0.34906 0.42659 0.74435 0.0
H1312 H 0.29589 0.47957 0.75517 0.0
H1313 H 0.26381 0.45095 0.74156 0.0
C1314 C 0.2694 0.406 0.72613 0.0
C1315 C 0.27485 0.38293 0.71821 0.0
C1316 C 0.28774 0.4222 0.73484 0.0
C1317 C 0.29891 0.376 0.71986 0.0
C1318 C 0.3173 0.39203 0.72861 0.0
C1319 C 0.33045 0.43185 0.74383 0.0
C1320 C 0.32498 0.45528 0.75066 0.0
C1321 C 0.31197 0.41528 0.73589 0.0
C1322 C 0.30071 0.46171 0.74997 0.0
C1323 C 0.28229 0.44536 0.74216 0.0
H1324 H 0.26132 0.64318 0.75392 0.0
H1325 H 0.30873 0.67047 0.81156 0.0
H1326 H 0.32991 0.63323 0.81117 0.0
H1327 H 0.33604 0.59346 0.7933 0.0
H1328 H 0.28921 0.56695 0.73478 0.0
H1329 H 0.26702 0.60342 0.73651 0.0
C1330 C 0.27638 0.64106 0.76631 0.0
C1331 C 0.28343 0.65967 0.78268 0.0
C1332 C 0.28871 0.61975 0.76576 0.0
C1333 C 0.3027 0.65638 0.79894 0.0
C1334 C 0.31496 0.63513 0.79862 0.0
C1335 C 0.32092 0.59562 0.781 0.0
C1336 C 0.3144 0.57749 0.76388 0.0
C1337 C 0.30825 0.61677 0.78196 0.0
C1338 C 0.29474 0.58062 0.74808 0.0
C1339 C 0.28199 0.60149 0.74904 0.0
H1340 H 0.89591 0.43344 0.50217 0.0
H1341 H 0.86348 0.50037 0.48757 0.0
H1342 H 0.82309 0.48049 0.48984 0.0
H1343 H 0.79695 0.4442 0.49694 0.0
H1344 H 0.8298 0.37722 0.51043 0.0
H1345 H 0.87004 0.39699 0.50712 0.0
C1346 C 0.88006 0.44365 0.49903 0.0
C1347 C 0.8828 0.46841 0.49476 0.0
C1348 C 0.85692 0.4321 0.5002 0.0
C1349 C 0.86194 0.48137 0.49124 0.0
C1350 C 0.83882 0.46999 0.49242 0.0
C1351 C 0.81291 0.43392 0.49909 0.0
C1352 C 0.81033 0.40928 0.50406 0.0
C1353 C 0.83609 0.4454 0.49711 0.0
C1354 C 0.83122 0.3962 0.50662 0.0
C1355 C 0.85427 0.4075 0.50477 0.0
H1356 H 0.74504 0.89531 0.77293 0.0
H1357 H 0.69876 0.85387 0.82181 0.0
H1358 H 0.66634 0.88124 0.81558 0.0
H1359 H 0.65208 0.91832 0.79829 0.0
H1360 H 0.69855 0.95982 0.74954 0.0
H1361 H 0.7297 0.93077 0.75332 0.0
C1362 C 0.72771 0.89199 0.78186 0.0
C1363 C 0.72442 0.87266 0.79795 0.0
C1364 C 0.70917 0.90786 0.77829 0.0
C1365 C 0.70192 0.86883 0.80962 0.0
C1366 C 0.68333 0.88442 0.806 0.0
C1367 C 0.66891 0.92091 0.78828 0.0
C1368 C 0.673 0.94136 0.77382 0.0
C1369 C 0.68691 0.90425 0.79073 0.0
C1370 C 0.69492 0.94433 0.76093 0.0
C1371 C 0.7128 0.92774 0.7631 0.0
H1372 H 0.63718 0.53149 0.95775 0.0
H1373 H 0.62091 0.50237 0.02875 0.0
H1374 H 0.65249 0.52911 0.04703 0.0
H1375 H 0.68537 0.56005 0.0427 0.0
H1376 H 0.70186 0.58894 0.97157 0.0
H1377 H 0.66941 0.56317 0.95357 0.0
C1378 C 0.64033 0.53123 0.97727 0.0
C1379 C 0.62673 0.51495 0.99186 0.0
C1380 C 0.65862 0.54655 0.98763 0.0
C1381 C 0.6313 0.51457 0.01708 0.0
C1382 C 0.64931 0.5299 0.02756 0.0
C1383 C 0.68184 0.56078 0.02327 0.0
C1384 C 0.69611 0.57638 0.00854 0.0
C1385 C 0.66322 0.54582 0.01298 0.0
C1386 C 0.69123 0.57707 0.98337 0.0
C1387 C 0.67265 0.56234 0.97303 0.0
H1388 H 0.19406 0.62501 0.20613 0.0
H1389 H 0.24418 0.5977 0.25813 0.0
H1390 H 0.21414 0.56623 0.26956 0.0
H1391 H 0.17439 0.5453 0.26338 0.0
H1392 H 0.1242 0.5725 0.2113 0.0
H1393 H 0.1535 0.6051 0.2013 0.0
C1394 C 0.19837 0.61215 0.21996 0.0
C1395 C 0.22133 0.61365 0.23121 0.0
C1396 C 0.18104 0.59403 0.22637 0.0
C1397 C 0.22655 0.59708 0.24936 0.0
C1398 C 0.20944 0.57899 0.2558 0.0
C1399 C 0.1698 0.55841 0.24992 0.0
C1400 C 0.14719 0.55633 0.23799 0.0
C1401 C 0.18673 0.57713 0.24423 0.0
C1402 C 0.14148 0.57361 0.22074 0.0
C1403 C 0.15825 0.59226 0.21496 0.0
H1404 H 0.88721 0.53938 0.04222 0.0
H1405 H 0.90701 0.55123 0.96709 0.0
H1406 H 0.87048 0.57306 0.96065 0.0
H1407 H 0.83316 0.589 0.97627 0.0
H1408 H 0.81328 0.57816 0.05155 0.0
H1409 H 0.84949 0.5556 0.05798 0.0
C1410 C 0.8834 0.54664 0.02443 0.0
C1411 C 0.89982 0.54377 0.00518 0.0
C1412 C 0.86237 0.55933 0.02087 0.0
C1413 C 0.8948 0.55346 0.98227 0.0
C1414 C 0.87387 0.56584 0.97854 0.0
C1415 C 0.83666 0.58165 0.99409 0.0
C1416 C 0.82049 0.58523 0.01337 0.0
C1417 C 0.85758 0.56895 0.99771 0.0
C1418 C 0.82544 0.5757 0.03638 0.0
C1419 C 0.84614 0.56278 0.04007 0.0
H1420 H 0.13336 0.98118 0.08167 0.0
H1421 H 0.09991 0.98611 0.01083 0.0
H1422 H 0.12423 0.95403 0.99545 0.0
H1423 H 0.15675 0.92625 0.00148 0.0
H1424 H 0.19094 0.92235 0.07214 0.0
H1425 H 0.16471 0.95246 0.08812 0.0
C1426 C 0.13144 0.9753 0.06283 0.0
C1427 C 0.11494 0.98617 0.0474 0.0
C1428 C 0.14571 0.95709 0.05403 0.0
C1429 C 0.11232 0.97795 0.02318 0.0
C1430 C 0.12634 0.95971 0.01432 0.0
C1431 C 0.15835 0.93184 0.02042 0.0
C1432 C 0.17593 0.92212 0.03552 0.0
C1433 C 0.14333 0.94937 0.02949 0.0
C1434 C 0.17768 0.92958 0.06004 0.0
C1435 C 0.16269 0.94683 0.06922 0.0
loop_
_geom_bond_atom_site_label_1
_geom_bond_atom_site_label_2
_geom_bond_distance
_geom_bond_site_symmetry_2
_ccdc_geom_bond_type
P0 O11 1.490 . S
P0 C14 1.812 . S
P0 C20 1.803 . S
P0 C26 1.819 . S
H1 C15 0.941 . S
H2 C16 0.939 . S
H3 C18 0.940 . S
H4 C19 0.940 . S
H5 C21 0.939 . S
H6 C22 0.942 . S
H7 C24 0.940 . S
H8 C25 0.939 . S
H9 C27 0.941 . S
H10 C31 0.939 . S
O11 P0 1.490 . S
H12 C28 0.939 . S
H13 C30 0.940 1_556 S
C14 P0 1.812 . S
C14 C15 1.389 . S
C14 C19 1.391 . S
C15 H1 0.941 . S
C15 C14 1.389 . S
C15 C16 1.397 . S
C16 H2 0.939 . S
C16 C15 1.397 . S
C16 C17 1.378 1_455 S
C17 C16 1.378 1_655 S
C17 C18 1.378 . S
C18 H3 0.940 . S
C18 C17 1.378 . S
C18 C19 1.396 1_655 S
C19 H4 0.940 . S
C19 C14 1.391 . S
C19 C18 1.396 1_455 S
C20 P0 1.803 . S
C20 C21 1.378 . S
C20 C25 1.400 . S
C21 H5 0.939 . S
C21 C20 1.378 . S
C21 C22 1.361 . S
C22 H6 0.942 . S
C22 C21 1.361 . S
C22 C23 1.396 . S
C23 C22 1.396 . S
C23 C24 1.403 1_545 S
C24 H7 0.940 . S
C24 C23 1.403 1_565 S
C24 C25 1.389 1_565 S
C25 H8 0.939 . S
C25 C20 1.400 . S
C25 C24 1.389 1_545 S
C26 P0 1.819 . S
C26 C27 1.391 . S
C26 C31 1.391 . S
C27 H9 0.941 . S
C27 C26 1.391 . S
C27 C28 1.396 . S
C28 H12 0.939 . S
C28 C27 1.396 . S
C28 C29 1.397 . S
C29 C28 1.397 . S
C29 C30 1.385 . S
C30 H13 0.940 1_554 S
C30 C29 1.385 . S
C30 C31 1.388 . S
C31 H10 0.939 . S
C31 C26 1.391 . S
C31 C30 1.388 . S
P32 O43 1.490 . S
P32 C46 1.812 . S
P32 C52 1.803 . S
P32 C58 1.819 . S
H33 C47 0.941 . S
H34 C48 0.939 . S
H35 C50 0.940 . S
H36 C51 0.940 . S
H37 C53 0.939 . S
H38 C54 0.942 . S
H39 C56 0.940 . S
H40 C57 0.939 . S
H41 C59 0.941 . S
H42 C63 0.939 . S
O43 P32 1.490 . S
H44 C60 0.939 . S
H45 C62 0.940 . S
C46 P32 1.812 . S
C46 C47 1.389 . S
C46 C51 1.391 . S
C47 H33 0.941 . S
C47 C46 1.389 . S
C47 C48 1.397 . S
C48 H34 0.939 . S
C48 C47 1.397 . S
C48 C49 1.378 . S
C49 C48 1.378 . S
C49 C50 1.378 . S
C50 H35 0.940 . S
C50 C49 1.378 . S
C50 C51 1.396 . S
C51 H36 0.940 . S
C51 C46 1.391 . S
C51 C50 1.396 . S
C52 P32 1.803 . S
C52 C53 1.378 . S
C52 C57 1.400 . S
C53 H37 0.939 . S
C53 C52 1.378 . S
C53 C54 1.361 . S
C54 H38 0.942 . S
C54 C53 1.361 . S
C54 C55 1.369 . S
C55 C54 1.369 . S
C55 C56 1.404 . S
C56 H39 0.940 . S
C56 C55 1.404 . S
C56 C57 1.389 . S
C57 H40 0.939 . S
C57 C52 1.400 . S
C57 C56 1.389 . S
C58 P32 1.819 . S
C58 C59 1.391 . S
C58 C63 1.391 . S
C59 H41 0.941 . S
C59 C58 1.391 . S
C59 C60 1.396 . S
C60 H44 0.939 . S
C60 C59 1.396 . S
C60 C61 1.397 . S
C61 C60 1.397 . S
C61 C62 1.385 . S
C62 H45 0.940 . S
C62 C61 1.385 . S
C62 C63 1.388 . S
C63 H42 0.939 . S
C63 C58 1.391 . S
C63 C62 1.388 . S
P64 O75 1.490 1_655 S
P64 C78 1.812 . S
P64 C84 1.803 . S
P64 C90 1.819 . S
H65 C79 0.941 . S
H66 C80 0.939 . S
H67 C82 0.940 . S
H68 C83 0.940 . S
H69 C85 0.939 . S
H70 C86 0.942 . S
H71 C88 0.940 . S
H72 C89 0.939 . S
H73 C91 0.941 . S
H74 C95 0.939 . S
O75 P64 1.490 1_455 S
H76 C92 0.939 . S
H77 C94 0.940 . S
C78 P64 1.812 . S
C78 C79 1.389 1_554 S
C78 C83 1.391 . S
C79 H65 0.941 . S
C79 C78 1.389 1_556 S
C79 C80 1.397 . S
C80 H66 0.939 . S
C80 C79 1.397 . S
C80 C81 1.378 . S
C81 C80 1.378 . S
C81 C82 1.378 1_556 S
C82 H67 0.940 . S
C82 C81 1.378 1_554 S
C82 C83 1.396 . S
C83 H68 0.940 . S
C83 C78 1.391 . S
C83 C82 1.396 . S
C84 P64 1.803 . S
C84 C85 1.378 . S
C84 C89 1.400 . S
C85 H69 0.939 . S
C85 C84 1.378 . S
C85 C86 1.361 . S
C86 H70 0.942 . S
C86 C85 1.361 . S
C86 C87 1.369 . S
C87 C86 1.369 . S
C87 C88 1.404 . S
C88 H71 0.940 . S
C88 C87 1.404 . S
C88 C89 1.389 . S
C89 H72 0.939 . S
C89 C84 1.400 . S
C89 C88 1.389 . S
C90 P64 1.819 . S
C90 C91 1.391 1_655 S
C90 C95 1.391 . S
C91 H73 0.941 . S
C91 C90 1.391 1_455 S
C91 C92 1.396 . S
C92 H76 0.939 . S
C92 C91 1.396 . S
C92 C93 1.397 . S
C93 C92 1.397 . S
C93 C94 1.385 1_455 S
C94 H77 0.940 . S
C94 C93 1.385 1_655 S
C94 C95 1.388 . S
C95 H74 0.939 . S
C95 C90 1.391 . S
C95 C94 1.388 . S
P96 O107 1.490 . S
P96 C110 1.812 . S
P96 C116 1.803 . S
P96 C122 1.819 . S
H97 C111 0.941 . S
H98 C112 0.939 . S
H99 C114 0.940 . S
H100 C115 0.940 . S
H101 C117 0.939 . S
H102 C118 0.942 . S
H103 C120 0.940 . S
H104 C121 0.939 . S
H105 C123 0.941 . S
H106 C127 0.939 . S
O107 P96 1.490 . S
H108 C124 0.939 . S
H109 C126 0.940 . S
C110 P96 1.812 . S
C110 C111 1.389 . S
C110 C115 1.391 . S
C111 H97 0.941 . S
C111 C110 1.389 . S
C111 C112 1.397 . S
C112 H98 0.939 . S
C112 C111 1.397 . S
C112 C113 1.378 . S
C113 C112 1.378 . S
C113 C114 1.378 . S
C114 H99 0.940 . S
C114 C113 1.378 . S
C114 C115 1.396 . S
C115 H100 0.940 . S
C115 C110 1.391 . S
C115 C114 1.396 . S
C116 P96 1.803 . S
C116 C117 1.378 . S
C116 C121 1.400 . S
C117 H101 0.939 . S
C117 C116 1.378 . S
C117 C118 1.361 . S
C118 H102 0.942 . S
C118 C117 1.361 . S
C118 C119 1.369 . S
C119 C118 1.369 . S
C119 C120 1.404 . S
C120 H103 0.940 . S
C120 C119 1.404 . S
C120 C121 1.389 . S
C121 H104 0.939 . S
C121 C116 1.400 . S
C121 C120 1.389 . S
C122 P96 1.819 . S
C122 C123 1.391 . S
C122 C127 1.391 . S
C123 H105 0.941 . S
C123 C122 1.391 . S
C123 C124 1.396 . S
C124 H108 0.939 . S
C124 C123 1.396 . S
C124 C125 1.397 . S
C125 C124 1.397 . S
C125 C126 1.385 . S
C126 H109 0.940 . S
C126 C125 1.385 . S
C126 C127 1.388 . S
C127 H106 0.939 . S
C127 C122 1.391 . S
C127 C126 1.388 . S
P128 O139 1.490 . S
P128 C142 1.812 . S
P128 C148 1.803 . S
P128 C154 1.819 . S
H129 C143 0.941 . S
H130 C144 0.939 . S
H131 C146 0.940 . S
H132 C147 0.940 . S
H133 C149 0.939 . S
H134 C150 0.942 . S
H135 C152 0.940 . S
H136 C153 0.939 . S
H137 C155 0.941 . S
H138 C159 0.939 . S
O139 P128 1.490 . S
H140 C156 0.939 . S
H141 C158 0.940 . S
C142 P128 1.812 . S
C142 C143 1.389 . S
C142 C147 1.391 . S
C143 H129 0.941 . S
C143 C142 1.389 . S
C143 C144 1.397 . S
C144 H130 0.939 . S
C144 C143 1.397 . S
C144 C145 1.378 1_565 S
C145 C144 1.378 1_545 S
C145 C146 1.378 . S
C146 H131 0.940 . S
C146 C145 1.378 . S
C146 C147 1.396 1_545 S
C147 H132 0.940 . S
C147 C142 1.391 . S
C147 C146 1.396 1_565 S
C148 P128 1.803 . S
C148 C149 1.378 . S
C148 C153 1.400 . S
C149 H133 0.939 . S
C149 C148 1.378 . S
C149 C150 1.361 . S
C150 H134 0.942 . S
C150 C149 1.361 . S
C150 C151 1.369 . S
C151 C150 1.369 . S
C151 C152 1.404 . S
C152 H135 0.940 . S
C152 C151 1.404 . S
C152 C153 1.389 . S
C153 H136 0.939 . S
C153 C148 1.400 . S
C153 C152 1.389 . S
C154 P128 1.819 . S
C154 C155 1.391 . S
C154 C159 1.391 . S
C155 H137 0.941 . S
C155 C154 1.391 . S
C155 C156 1.396 . S
C156 H140 0.939 . S
C156 C155 1.396 . S
C156 C157 1.397 1_455 S
C157 C156 1.397 1_655 S
C157 C158 1.385 . S
C158 H141 0.940 . S
C158 C157 1.385 . S
C158 C159 1.388 1_655 S
C159 H138 0.939 . S
C159 C154 1.391 . S
C159 C158 1.388 1_455 S
P160 O171 1.490 . S
P160 C174 1.812 . S
P160 C180 1.803 . S
P160 C186 1.819 . S
H161 C175 0.941 . S
H162 C176 0.939 . S
H163 C178 0.940 . S
H164 C179 0.940 . S
H165 C181 0.939 . S
H166 C182 0.942 . S
H167 C184 0.940 . S
H168 C185 0.939 . S
H169 C187 0.941 . S
H170 C191 0.939 . S
O171 P160 1.490 . S
H172 C188 0.939 . S
H173 C190 0.940 . S
C174 P160 1.812 . S
C174 C175 1.389 . S
C174 C179 1.391 . S
C175 H161 0.941 . S
C175 C174 1.389 . S
C175 C176 1.397 . S
C176 H162 0.939 . S
C176 C175 1.397 . S
C176 C177 1.378 . S
C177 C176 1.378 . S
C177 C178 1.378 . S
C178 H163 0.940 . S
C178 C177 1.378 . S
C178 C179 1.396 . S
C179 H164 0.940 . S
C179 C174 1.391 . S
C179 C178 1.396 . S
C180 P160 1.803 . S
C180 C181 1.378 . S
C180 C185 1.400 . S
C181 H165 0.939 . S
C181 C180 1.378 . S
C181 C182 1.361 . S
C182 H166 0.942 . S
C182 C181 1.361 . S
C182 C183 1.369 . S
C183 C182 1.369 . S
C183 C184 1.404 . S
C184 H167 0.940 . S
C184 C183 1.404 . S
C184 C185 1.389 . S
C185 H168 0.939 . S
C185 C180 1.400 . S
C185 C184 1.389 . S
C186 P160 1.819 . S
C186 C187 1.391 . S
C186 C191 1.391 . S
C187 H169 0.941 . S
C187 C186 1.391 . S
C187 C188 1.396 . S
C188 H172 0.939 . S
C188 C187 1.396 . S
C188 C189 1.397 . S
C189 C188 1.397 . S
C189 C190 1.385 . S
C190 H173 0.940 . S
C190 C189 1.385 . S
C190 C191 1.388 . S
C191 H170 0.939 . S
C191 C186 1.391 . S
C191 C190 1.388 . S
P192 O203 1.485 1_655 S
P192 C206 1.812 . S
P192 C212 1.803 . S
P192 C218 1.819 . S
H193 C207 0.941 . S
H194 C208 0.939 . S
H195 C210 0.940 . S
H196 C211 0.940 . S
H197 C213 0.939 . S
H198 C214 0.942 . S
H199 C216 0.940 . S
H200 C217 0.939 . S
H201 C219 0.941 . S
H202 C223 0.939 . S
O203 P192 1.485 1_455 S
H204 C220 0.939 . S
H205 C222 0.940 . S
C206 P192 1.812 . S
C206 C207 1.389 1_655 S
C206 C211 1.391 . S
C207 H193 0.941 . S
C207 C206 1.389 1_455 S
C207 C208 1.397 . S
C208 H194 0.939 . S
C208 C207 1.397 . S
C208 C209 1.378 . S
C209 C208 1.378 . S
C209 C210 1.378 1_455 S
C210 H195 0.940 . S
C210 C209 1.378 1_655 S
C210 C211 1.396 . S
C211 H196 0.940 . S
C211 C206 1.391 . S
C211 C210 1.396 . S
C212 P192 1.803 . S
C212 C213 1.378 . S
C212 C217 1.400 . S
C213 H197 0.939 . S
C213 C212 1.378 . S
C213 C214 1.361 . S
C214 H198 0.942 . S
C214 C213 1.361 . S
C214 C215 1.369 . S
C215 C214 1.369 . S
C215 C216 1.404 . S
C216 H199 0.940 . S
C216 C215 1.404 . S
C216 C217 1.389 . S
C217 H200 0.939 . S
C217 C212 1.400 . S
C217 C216 1.389 . S
C218 P192 1.819 . S
C218 C219 1.391 . S
C218 C223 1.391 . S
C219 H201 0.941 . S
C219 C218 1.391 . S
C219 C220 1.396 . S
C220 H204 0.939 . S
C220 C219 1.396 . S
C220 C221 1.397 . S
C221 C220 1.397 . S
C221 C222 1.385 . S
C222 H205 0.940 . S
C222 C221 1.385 . S
C222 C223 1.388 . S
C223 H202 0.939 . S
C223 C218 1.391 . S
C223 C222 1.388 . S
P224 O235 1.490 . S
P224 C238 1.812 . S
P224 C244 1.803 . S
P224 C250 1.819 . S
H225 C239 0.941 . S
H226 C240 0.939 . S
H227 C242 0.940 . S
H228 C243 0.940 . S
H229 C245 0.939 . S
H230 C246 0.942 . S
H231 C248 0.940 . S
H232 C249 0.939 . S
H233 C251 0.941 . S
H234 C255 0.939 . S
O235 P224 1.490 . S
H236 C252 0.939 . S
H237 C254 0.940 . S
C238 P224 1.812 . S
C238 C239 1.389 . S
C238 C243 1.391 . S
C239 H225 0.941 . S
C239 C238 1.389 . S
C239 C240 1.397 . S
C240 H226 0.939 . S
C240 C239 1.397 . S
C240 C241 1.378 . S
C241 C240 1.378 . S
C241 C242 1.378 . S
C242 H227 0.940 . S
C242 C241 1.378 . S
C242 C243 1.396 . S
C243 H228 0.940 . S
C243 C238 1.391 . S
C243 C242 1.396 . S
C244 P224 1.803 . S
C244 C245 1.378 . S
C244 C249 1.400 . S
C245 H229 0.939 . S
C245 C244 1.378 . S
C245 C246 1.361 . S
C246 H230 0.942 . S
C246 C245 1.361 . S
C246 C247 1.369 . S
C247 C246 1.369 . S
C247 C248 1.404 . S
C248 H231 0.940 . S
C248 C247 1.404 . S
C248 C249 1.389 . S
C249 H232 0.939 . S
C249 C244 1.400 . S
C249 C248 1.389 . S
C250 P224 1.819 . S
C250 C251 1.391 . S
C250 C255 1.391 . S
C251 H233 0.941 . S
C251 C250 1.391 . S
C251 C252 1.396 . S
C252 H236 0.939 . S
C252 C251 1.396 . S
C252 C253 1.397 . S
C253 C252 1.397 . S
C253 C254 1.385 . S
C254 H237 0.940 . S
C254 C253 1.385 . S
C254 C255 1.388 . S
C255 H234 0.939 . S
C255 C250 1.391 . S
C255 C254 1.388 . S
P256 O267 1.490 . S
P256 C270 1.812 . S
P256 C276 1.803 . S
P256 C282 1.819 . S
H257 C271 0.941 . S
H258 C272 0.939 . S
H259 C274 0.940 . S
H260 C275 0.940 . S
H261 C277 0.939 . S
H262 C278 0.942 . S
H263 C280 0.940 . S
H264 C281 0.939 . S
H265 C283 0.941 . S
H266 C287 0.939 . S
O267 P256 1.490 . S
H268 C284 0.939 . S
H269 C286 0.940 . S
C270 P256 1.812 . S
C270 C271 1.389 . S
C270 C275 1.391 . S
C271 H257 0.941 . S
C271 C270 1.389 . S
C271 C272 1.397 . S
C272 H258 0.939 . S
C272 C271 1.397 . S
C272 C273 1.378 . S
C273 C272 1.378 . S
C273 C274 1.378 . S
C274 H259 0.940 . S
C274 C273 1.378 . S
C274 C275 1.396 . S
C275 H260 0.940 . S
C275 C270 1.391 . S
C275 C274 1.396 . S
C276 P256 1.803 . S
C276 C277 1.378 . S
C276 C281 1.400 . S
C277 H261 0.939 . S
C277 C276 1.378 . S
C277 C278 1.361 . S
C278 H262 0.942 . S
C278 C277 1.361 . S
C278 C279 1.369 . S
C279 C278 1.369 . S
C279 C280 1.404 . S
C280 H263 0.940 . S
C280 C279 1.404 . S
C280 C281 1.389 . S
C281 H264 0.939 . S
C281 C276 1.400 . S
C281 C280 1.389 . S
C282 P256 1.819 . S
C282 C283 1.391 . S
C282 C287 1.391 . S
C283 H265 0.941 . S
C283 C282 1.391 . S
C283 C284 1.396 . S
C284 H268 0.939 . S
C284 C283 1.396 . S
C284 C285 1.397 . S
C285 C284 1.397 . S
C285 C286 1.385 . S
C286 H269 0.940 . S
C286 C285 1.385 . S
C286 C287 1.388 . S
C287 H266 0.939 . S
C287 C282 1.391 . S
C287 C286 1.388 . S
P288 O299 1.490 1_565 S
P288 C302 1.812 . S
P288 C308 1.808 . S
P288 C314 1.819 . S
H289 C303 0.941 . S
H290 C304 0.939 . S
H291 C306 0.940 . S
H292 C307 0.940 . S
H293 C309 0.939 . S
H294 C310 0.942 . S
H295 C312 0.940 . S
H296 C313 0.939 . S
H297 C315 0.941 . S
H298 C319 0.939 . S
O299 P288 1.490 1_545 S
H300 C316 0.939 . S
H301 C318 0.940 . S
C302 P288 1.812 . S
C302 C303 1.389 . S
C302 C307 1.391 . S
C303 H289 0.941 . S
C303 C302 1.389 . S
C303 C304 1.397 . S
C304 H290 0.939 . S
C304 C303 1.397 . S
C304 C305 1.378 . S
C305 C304 1.378 . S
C305 C306 1.378 . S
C306 H291 0.940 . S
C306 C305 1.378 . S
C306 C307 1.396 . S
C307 H292 0.940 . S
C307 C302 1.391 . S
C307 C306 1.396 . S
C308 P288 1.808 . S
C308 C309 1.367 1_565 S
C308 C313 1.406 . S
C309 H293 0.939 . S
C309 C308 1.367 1_545 S
C309 C310 1.361 . S
C310 H294 0.942 . S
C310 C309 1.361 . S
C310 C311 1.369 . S
C311 C310 1.369 . S
C311 C312 1.404 1_545 S
C312 H295 0.940 . S
C312 C311 1.404 1_565 S
C312 C313 1.389 . S
C313 H296 0.939 . S
C313 C308 1.406 . S
C313 C312 1.389 . S
C314 P288 1.819 . S
C314 C315 1.391 . S
C314 C319 1.391 . S
C315 H297 0.941 . S
C315 C314 1.391 . S
C315 C316 1.396 . S
C316 H300 0.939 . S
C316 C315 1.396 . S
C316 C317 1.397 . S
C317 C316 1.397 . S
C317 C318 1.385 . S
C318 H301 0.940 . S
C318 C317 1.385 . S
C318 C319 1.388 . S
C319 H298 0.939 . S
C319 C314 1.391 . S
C319 C318 1.388 . S
P320 O331 1.490 . S
P320 C334 1.812 . S
P320 C340 1.803 . S
P320 C346 1.819 . S
H321 C335 0.941 . S
H322 C336 0.939 . S
H323 C338 0.940 . S
H324 C339 0.940 . S
H325 C341 0.939 . S
H326 C342 0.942 . S
H327 C344 0.940 . S
H328 C345 0.939 . S
H329 C347 0.941 . S
H330 C351 0.939 . S
O331 P320 1.490 . S
H332 C348 0.939 . S
H333 C350 0.940 . S
C334 P320 1.812 . S
C334 C335 1.389 . S
C334 C339 1.391 . S
C335 H321 0.941 . S
C335 C334 1.389 . S
C335 C336 1.397 . S
C336 H322 0.939 . S
C336 C335 1.397 . S
C336 C337 1.378 . S
C337 C336 1.378 . S
C337 C338 1.378 . S
C338 H323 0.940 . S
C338 C337 1.378 . S
C338 C339 1.396 . S
C339 H324 0.940 . S
C339 C334 1.391 . S
C339 C338 1.396 . S
C340 P320 1.803 . S
C340 C341 1.378 . S
C340 C345 1.400 . S
C341 H325 0.939 . S
C341 C340 1.378 . S
C341 C342 1.361 . S
C342 H326 0.942 . S
C342 C341 1.361 . S
C342 C343 1.369 . S
C343 C342 1.369 . S
C343 C344 1.404 . S
C344 H327 0.940 . S
C344 C343 1.404 . S
C344 C345 1.389 . S
C345 H328 0.939 . S
C345 C340 1.400 . S
C345 C344 1.389 . S
C346 P320 1.819 . S
C346 C347 1.391 . S
C346 C351 1.391 . S
C347 H329 0.941 . S
C347 C346 1.391 . S
C347 C348 1.396 . S
C348 H332 0.939 . S
C348 C347 1.396 . S
C348 C349 1.397 . S
C349 C348 1.397 . S
C349 C350 1.385 . S
C350 H333 0.940 . S
C350 C349 1.385 . S
C350 C351 1.388 . S
C351 H330 0.939 . S
C351 C346 1.391 . S
C351 C350 1.388 . S
P352 O363 1.490 . S
P352 C366 1.812 . S
P352 C372 1.803 . S
P352 C378 1.819 . S
H353 C367 0.941 . S
H354 C368 0.939 . S
H355 C370 0.940 . S
H356 C371 0.940 . S
H357 C373 0.939 . S
H358 C374 0.942 . S
H359 C376 0.940 . S
H360 C377 0.939 . S
H361 C379 0.941 . S
H362 C383 0.939 . S
O363 P352 1.490 . S
H364 C380 0.939 . S
H365 C382 0.940 . S
C366 P352 1.812 . S
C366 C367 1.389 . S
C366 C371 1.391 . S
C367 H353 0.941 . S
C367 C366 1.389 . S
C367 C368 1.397 . S
C368 H354 0.939 . S
C368 C367 1.397 . S
C368 C369 1.378 . S
C369 C368 1.378 . S
C369 C370 1.378 . S
C370 H355 0.940 . S
C370 C369 1.378 . S
C370 C371 1.396 . S
C371 H356 0.940 . S
C371 C366 1.391 . S
C371 C370 1.396 . S
C372 P352 1.803 . S
C372 C373 1.378 . S
C372 C377 1.400 . S
C373 H357 0.939 . S
C373 C372 1.378 . S
C373 C374 1.361 . S
C374 H358 0.942 . S
C374 C373 1.361 . S
C374 C375 1.369 . S
C375 C374 1.369 . S
C375 C376 1.404 . S
C376 H359 0.940 . S
C376 C375 1.404 . S
C376 C377 1.389 . S
C377 H360 0.939 . S
C377 C372 1.400 . S
C377 C376 1.389 . S
C378 P352 1.819 . S
C378 C379 1.391 . S
C378 C383 1.391 . S
C379 H361 0.941 . S
C379 C378 1.391 . S
C379 C380 1.396 . S
C380 H364 0.939 . S
C380 C379 1.396 . S
C380 C381 1.397 . S
C381 C380 1.397 . S
C381 C382 1.385 . S
C382 H365 0.940 . S
C382 C381 1.385 . S
C382 C383 1.388 . S
C383 H362 0.939 . S
C383 C378 1.391 . S
C383 C382 1.388 . S
P384 O395 1.490 . S
P384 C398 1.812 . S
P384 C404 1.803 . S
P384 C410 1.819 . S
H385 C399 0.941 . S
H386 C400 0.939 . S
H387 C402 0.940 . S
H388 C403 0.940 . S
H389 C405 0.939 . S
H390 C406 0.942 . S
H391 C408 0.940 . S
H392 C409 0.939 . S
H393 C411 0.941 . S
H394 C415 0.939 . S
O395 P384 1.490 . S
H396 C412 0.939 . S
H397 C414 0.940 . S
C398 P384 1.812 . S
C398 C399 1.389 . S
C398 C403 1.391 . S
C399 H385 0.941 . S
C399 C398 1.389 . S
C399 C400 1.397 . S
C400 H386 0.939 . S
C400 C399 1.397 . S
C400 C401 1.378 . S
C401 C400 1.378 . S
C401 C402 1.378 . S
C402 H387 0.940 . S
C402 C401 1.378 . S
C402 C403 1.396 . S
C403 H388 0.940 . S
C403 C398 1.391 . S
C403 C402 1.396 . S
C404 P384 1.803 . S
C404 C405 1.378 . S
C404 C409 1.400 . S
C405 H389 0.939 . S
C405 C404 1.378 . S
C405 C406 1.361 . S
C406 H390 0.942 . S
C406 C405 1.361 . S
C406 C407 1.369 . S
C407 C406 1.369 . S
C407 C408 1.404 . S
C408 H391 0.940 . S
C408 C407 1.404 . S
C408 C409 1.389 . S
C409 H392 0.939 . S
C409 C404 1.400 . S
C409 C408 1.389 . S
C410 P384 1.819 . S
C410 C411 1.391 . S
C410 C415 1.391 . S
C411 H393 0.941 . S
C411 C410 1.391 . S
C411 C412 1.396 . S
C412 H396 0.939 . S
C412 C411 1.396 . S
C412 C413 1.397 . S
C413 C412 1.397 . S
C413 C414 1.385 . S
C414 H397 0.940 . S
C414 C413 1.385 . S
C414 C415 1.388 . S
C415 H394 0.939 . S
C415 C410 1.391 . S
C415 C414 1.388 . S
P416 O427 1.490 . S
P416 C430 1.812 . S
P416 C436 1.803 . S
P416 C442 1.819 . S
H417 C431 0.941 . S
H418 C432 0.939 . S
H419 C434 0.940 . S
H420 C435 0.940 . S
H421 C437 0.939 . S
H422 C438 0.942 . S
H423 C440 0.940 . S
H424 C441 0.939 . S
H425 C443 0.941 . S
H426 C447 0.939 . S
O427 P416 1.490 . S
H428 C444 0.939 . S
H429 C446 0.940 . S
C430 P416 1.812 . S
C430 C431 1.389 . S
C430 C435 1.391 . S
C431 H417 0.941 . S
C431 C430 1.389 . S
C431 C432 1.397 . S
C432 H418 0.939 . S
C432 C431 1.397 . S
C432 C433 1.378 . S
C433 C432 1.378 . S
C433 C434 1.378 . S
C434 H419 0.940 . S
C434 C433 1.378 . S
C434 C435 1.396 . S
C435 H420 0.940 . S
C435 C430 1.391 . S
C435 C434 1.396 . S
C436 P416 1.803 . S
C436 C437 1.378 . S
C436 C441 1.400 . S
C437 H421 0.939 . S
C437 C436 1.378 . S
C437 C438 1.361 . S
C438 H422 0.942 . S
C438 C437 1.361 . S
C438 C439 1.369 1_556 S
C439 C438 1.369 1_554 S
C439 C440 1.404 . S
C440 H423 0.940 . S
C440 C439 1.404 . S
C440 C441 1.389 1_554 S
C441 H424 0.939 . S
C441 C436 1.400 . S
C441 C440 1.389 1_556 S
C442 P416 1.819 . S
C442 C443 1.391 . S
C442 C447 1.391 . S
C443 H425 0.941 . S
C443 C442 1.391 . S
C443 C444 1.396 . S
C444 H428 0.939 . S
C444 C443 1.396 . S
C444 C445 1.397 . S
C445 C444 1.397 . S
C445 C446 1.385 . S
C446 H429 0.940 . S
C446 C445 1.385 . S
C446 C447 1.388 . S
C447 H426 0.939 . S
C447 C442 1.391 . S
C447 C446 1.388 . S
P448 O459 1.490 . S
P448 C462 1.812 . S
P448 C468 1.803 . S
P448 C474 1.819 . S
H449 C463 0.941 . S
H450 C464 0.939 . S
H451 C466 0.940 . S
H452 C467 0.940 . S
H453 C469 0.939 . S
H454 C470 0.942 . S
H455 C472 0.940 . S
H456 C473 0.939 . S
H457 C475 0.941 . S
H458 C479 0.939 . S
O459 P448 1.490 . S
H460 C476 0.939 . S
H461 C478 0.940 . S
C462 P448 1.812 . S
C462 C463 1.389 . S
C462 C467 1.391 . S
C463 H449 0.941 . S
C463 C462 1.389 . S
C463 C464 1.397 . S
C464 H450 0.939 . S
C464 C463 1.397 . S
C464 C465 1.378 . S
C465 C464 1.378 . S
C465 C466 1.378 . S
C466 H451 0.940 . S
C466 C465 1.378 . S
C466 C467 1.396 . S
C467 H452 0.940 . S
C467 C462 1.391 . S
C467 C466 1.396 . S
C468 P448 1.803 . S
C468 C469 1.378 . S
C468 C473 1.400 . S
C469 H453 0.939 . S
C469 C468 1.378 . S
C469 C470 1.361 . S
C470 H454 0.942 . S
C470 C469 1.361 . S
C470 C471 1.369 . S
C471 C470 1.369 . S
C471 C472 1.404 . S
C472 H455 0.940 . S
C472 C471 1.404 . S
C472 C473 1.389 . S
C473 H456 0.939 . S
C473 C468 1.400 . S
C473 C472 1.389 . S
C474 P448 1.819 . S
C474 C475 1.391 . S
C474 C479 1.391 . S
C475 H457 0.941 . S
C475 C474 1.391 . S
C475 C476 1.396 . S
C476 H460 0.939 . S
C476 C475 1.396 . S
C476 C477 1.397 . S
C477 C476 1.397 . S
C477 C478 1.385 . S
C478 H461 0.940 . S
C478 C477 1.385 . S
C478 C479 1.388 . S
C479 H458 0.939 . S
C479 C474 1.391 . S
C479 C478 1.388 . S
P480 O491 1.490 1_556 S
P480 C494 1.812 . S
P480 C500 1.803 1_556 S
P480 C506 1.819 . S
H481 C495 0.941 . S
H482 C496 0.939 . S
H483 C498 0.940 . S
H484 C499 0.940 . S
H485 C501 0.939 . S
H486 C502 0.942 . S
H487 C504 0.940 . S
H488 C505 0.939 . S
H489 C507 0.941 . S
H490 C511 0.939 . S
O491 P480 1.490 1_554 S
H492 C508 0.939 . S
H493 C510 0.940 . S
C494 P480 1.812 . S
C494 C495 1.389 . S
C494 C499 1.391 . S
C495 H481 0.941 . S
C495 C494 1.389 . S
C495 C496 1.397 . S
C496 H482 0.939 . S
C496 C495 1.397 . S
C496 C497 1.378 . S
C497 C496 1.378 . S
C497 C498 1.378 . S
C498 H483 0.940 . S
C498 C497 1.378 . S
C498 C499 1.396 . S
C499 H484 0.940 . S
C499 C494 1.391 . S
C499 C498 1.396 . S
C500 P480 1.803 1_554 S
C500 C501 1.378 . S
C500 C505 1.400 1_554 S
C501 H485 0.939 . S
C501 C500 1.378 . S
C501 C502 1.361 . S
C502 H486 0.942 . S
C502 C501 1.361 . S
C502 C503 1.369 . S
C503 C502 1.369 . S
C503 C504 1.404 1_554 S
C504 H487 0.940 . S
C504 C503 1.404 1_556 S
C504 C505 1.389 . S
C505 H488 0.939 . S
C505 C500 1.400 1_556 S
C505 C504 1.389 . S
C506 P480 1.819 . S
C506 C507 1.391 1_545 S
C506 C511 1.391 . S
C507 H489 0.941 . S
C507 C506 1.391 1_565 S
C507 C508 1.396 . S
C508 H492 0.939 . S
C508 C507 1.396 . S
C508 C509 1.397 . S
C509 C508 1.397 . S
C509 C510 1.385 1_565 S
C510 H493 0.940 . S
C510 C509 1.385 1_545 S
C510 C511 1.388 . S
C511 H490 0.939 . S
C511 C506 1.391 . S
C511 C510 1.388 . S
C512 O513 1.160 1_554 S
C512 O519 1.185 . S
O513 C512 1.160 1_556 S
O514 Zn515 1.899 1_556 S
O514 C522 1.284 . S
Zn515 O514 1.899 1_554 S
Zn515 O516 2.032 . S
Zn515 O519 2.086 . S
Zn515 O524 1.977 . S
O516 Zn515 2.032 . S
O516 C520 1.278 . S
C517 O518 1.203 . S
C517 O524 1.267 . S
O518 C517 1.203 . S
O519 C512 1.185 . S
O519 Zn515 2.086 . S
C520 O516 1.278 . S
C520 O521 1.211 . S
O521 C520 1.211 . S
C522 O514 1.284 . S
C522 O523 1.273 . S
O523 C522 1.273 . S
O524 Zn515 1.977 . S
O524 C517 1.267 . S
C525 O526 1.160 . S
C525 O532 1.185 . S
O526 C525 1.160 . S
O527 Zn528 1.899 . S
O527 C535 1.284 . S
Zn528 O527 1.899 . S
Zn528 O529 2.032 . S
Zn528 O532 2.086 . S
Zn528 O537 1.977 . S
O529 Zn528 2.032 . S
O529 C533 1.278 . S
C530 O531 1.203 . S
C530 O537 1.267 . S
O531 C530 1.203 . S
O532 C525 1.185 . S
O532 Zn528 2.086 . S
C533 O529 1.278 . S
C533 O534 1.211 . S
O534 C533 1.211 . S
C535 O527 1.284 . S
C535 O536 1.273 . S
O536 C535 1.273 . S
O537 Zn528 1.977 . S
O537 C530 1.267 . S
C538 O539 1.160 1_554 S
C538 O545 1.185 . S
O539 C538 1.160 1_556 S
O540 Zn541 1.899 1_556 S
O540 C548 1.284 . S
Zn541 O540 1.899 1_554 S
Zn541 O542 2.032 1_554 S
Zn541 O545 2.086 . S
Zn541 O550 1.977 . S
O542 Zn541 2.032 1_556 S
O542 C546 1.283 . S
C543 O544 1.203 . S
C543 O550 1.267 . S
O544 C543 1.203 . S
O545 C538 1.185 . S
O545 Zn541 2.086 . S
C546 O542 1.283 . S
C546 O547 1.198 1_556 S
O547 C546 1.198 1_554 S
C548 O540 1.284 . S
C548 O549 1.273 . S
O549 C548 1.273 . S
O550 Zn541 1.977 . S
O550 C543 1.267 . S
C551 O552 1.160 . S
C551 O558 1.185 . S
O552 C551 1.160 . S
O553 Zn554 1.899 . S
O553 C561 1.284 . S
Zn554 O553 1.899 . S
Zn554 O555 2.032 1_545 S
Zn554 O558 2.086 . S
Zn554 O563 1.977 . S
O555 Zn554 2.032 1_565 S
O555 C559 1.278 . S
C556 O557 1.203 . S
C556 O563 1.267 . S
O557 C556 1.203 . S
O558 C551 1.185 . S
O558 Zn554 2.086 . S
C559 O555 1.278 . S
C559 O560 1.211 . S
O560 C559 1.211 . S
C561 O553 1.284 . S
C561 O562 1.273 1_545 S
O562 C561 1.273 1_565 S
O563 Zn554 1.977 . S
O563 C556 1.267 . S
C564 O565 1.160 . S
C564 O571 1.185 . S
O565 C564 1.160 . S
O566 Zn567 1.899 . S
O566 C574 1.284 . S
Zn567 O566 1.899 . S
Zn567 O568 2.032 . S
Zn567 O571 2.086 . S
Zn567 O576 1.977 . S
O568 Zn567 2.032 . S
O568 C572 1.278 . S
C569 O570 1.203 . S
C569 O576 1.267 . S
O570 C569 1.203 . S
O571 C564 1.185 . S
O571 Zn567 2.086 . S
C572 O568 1.278 . S
C572 O573 1.211 . S
O573 C572 1.211 . S
C574 O566 1.284 . S
C574 O575 1.273 . S
O575 C574 1.273 . S
O576 Zn567 1.977 . S
O576 C569 1.267 . S
C577 O578 1.160 . S
C577 O584 1.185 . S
O578 C577 1.160 . S
O579 Zn580 1.899 . S
O579 C587 1.284 . S
Zn580 O579 1.899 . S
Zn580 O581 2.032 . S
Zn580 O584 2.086 . S
Zn580 O589 1.977 . S
O581 Zn580 2.032 . S
O581 C585 1.278 . S
C582 O583 1.203 . S
C582 O589 1.267 . S
O583 C582 1.203 . S
O584 C577 1.185 . S
O584 Zn580 2.086 . S
C585 O581 1.278 . S
C585 O586 1.211 . S
O586 C585 1.211 . S
C587 O579 1.284 . S
C587 O588 1.273 . S
O588 C587 1.273 . S
O589 Zn580 1.977 . S
O589 C582 1.267 . S
C590 O591 1.160 . S
C590 O597 1.185 . S
O591 C590 1.160 . S
O592 Zn593 1.899 . S
O592 C600 1.284 . S
Zn593 O592 1.899 . S
Zn593 O594 2.032 . S
Zn593 O597 2.086 . S
Zn593 O602 1.977 . S
O594 Zn593 2.032 . S
O594 C598 1.278 . S
C595 O596 1.203 . S
C595 O602 1.267 . S
O596 C595 1.203 . S
O597 C590 1.185 . S
O597 Zn593 2.086 . S
C598 O594 1.278 . S
C598 O599 1.211 . S
O599 C598 1.211 . S
C600 O592 1.284 . S
C600 O601 1.273 . S
O601 C600 1.273 . S
O602 Zn593 1.977 . S
O602 C595 1.267 . S
C603 O604 1.160 . S
C603 O610 1.185 . S
O604 C603 1.160 . S
O605 Zn606 1.899 . S
O605 C613 1.284 1_565 S
Zn606 O605 1.899 . S
Zn606 O607 2.032 1_565 S
Zn606 O610 2.086 . S
Zn606 O615 1.977 . S
O607 Zn606 2.032 1_545 S
O607 C611 1.278 . S
C608 O609 1.203 1_565 S
C608 O615 1.267 . S
O609 C608 1.203 1_545 S
O610 C603 1.185 . S
O610 Zn606 2.086 . S
C611 O607 1.278 . S
C611 O612 1.211 . S
O612 C611 1.211 . S
C613 O605 1.284 1_545 S
C613 O614 1.273 . S
O614 C613 1.273 . S
O615 Zn606 1.977 . S
O615 C608 1.267 . S
C616 O617 1.160 1_455 S
C616 O623 1.185 . S
O617 C616 1.160 1_655 S
O618 Zn619 1.899 1_655 S
O618 C626 1.284 . S
Zn619 O618 1.899 1_455 S
Zn619 O620 2.036 . S
Zn619 O623 2.086 . S
Zn619 O628 1.977 . S
O620 Zn619 2.036 . S
O620 C624 1.279 . S
C621 O622 1.203 . S
C621 O628 1.267 . S
O622 C621 1.203 . S
O623 C616 1.185 . S
O623 Zn619 2.086 . S
C624 O620 1.279 . S
C624 O625 1.211 . S
O625 C624 1.211 . S
C626 O618 1.284 . S
C626 O627 1.273 . S
O627 C626 1.273 . S
O628 Zn619 1.977 . S
O628 C621 1.267 . S
C629 O630 1.160 . S
C629 O636 1.185 . S
O630 C629 1.160 . S
O631 Zn632 1.899 . S
O631 C639 1.284 . S
Zn632 O631 1.899 . S
Zn632 O633 2.032 . S
Zn632 O636 2.086 . S
Zn632 O641 1.977 . S
O633 Zn632 2.032 . S
O633 C637 1.278 . S
C634 O635 1.203 . S
C634 O641 1.267 . S
O635 C634 1.203 . S
O636 C629 1.185 . S
O636 Zn632 2.086 . S
C637 O633 1.278 . S
C637 O638 1.211 . S
O638 C637 1.211 . S
C639 O631 1.284 . S
C639 O640 1.273 . S
O640 C639 1.273 . S
O641 Zn632 1.977 . S
O641 C634 1.267 . S
C642 O643 1.160 1_455 S
C642 O649 1.185 . S
O643 C642 1.160 1_655 S
O644 Zn645 1.899 1_655 S
O644 C652 1.284 . S
Zn645 O644 1.899 1_455 S
Zn645 O646 2.032 1_455 S
Zn645 O649 2.086 . S
Zn645 O654 1.977 . S
O646 Zn645 2.032 1_655 S
O646 C650 1.278 . S
C647 O648 1.203 . S
C647 O654 1.267 . S
O648 C647 1.203 . S
O649 C642 1.185 . S
O649 Zn645 2.086 . S
C650 O646 1.278 . S
C650 O651 1.211 1_655 S
O651 C650 1.211 1_455 S
C652 O644 1.284 . S
C652 O653 1.273 . S
O653 C652 1.273 . S
O654 Zn645 1.977 . S
O654 C647 1.267 . S
C655 O656 1.160 . S
C655 O662 1.185 . S
O656 C655 1.160 . S
O657 Zn658 1.899 . S
O657 C665 1.284 . S
Zn658 O657 1.899 . S
Zn658 O659 2.032 . S
Zn658 O662 2.086 . S
Zn658 O667 1.977 . S
O659 Zn658 2.032 . S
O659 C663 1.278 . S
C660 O661 1.203 . S
C660 O667 1.267 . S
O661 C660 1.203 . S
O662 C655 1.185 . S
O662 Zn658 2.086 . S
C663 O659 1.278 . S
C663 O664 1.211 . S
O664 C663 1.211 . S
C665 O657 1.284 . S
C665 O666 1.273 . S
O666 C665 1.273 . S
O667 Zn658 1.977 . S
O667 C660 1.267 . S
H668 C674 0.930 . S
H669 C677 0.930 . S
H670 C678 0.930 . S
H671 C679 0.930 . S
H672 C682 0.930 . S
H673 C683 0.930 . S
C674 H668 0.930 . S
C674 C675 1.355 . S
C674 C676 1.415 . S
C675 C674 1.355 . S
C675 C677 1.419 . S
C676 C674 1.415 . S
C676 C681 1.425 . S
C676 C683 1.409 . S
C677 H669 0.930 . S
C677 C675 1.419 . S
C677 C678 1.362 . S
C678 H670 0.930 . S
C678 C677 1.362 . S
C678 C681 1.409 . S
C679 H671 0.930 . S
C679 C680 1.355 . S
C679 C681 1.415 . S
C680 C679 1.355 . S
C680 C682 1.419 . S
C681 C676 1.425 . S
C681 C678 1.409 . S
C681 C679 1.415 . S
C682 H672 0.930 . S
C682 C680 1.419 . S
C682 C683 1.362 . S
C683 H673 0.930 . S
C683 C676 1.409 . S
C683 C682 1.362 . S
H684 C690 0.930 . S
H685 C693 0.930 . S
H686 C694 0.930 . S
H687 C695 0.930 . S
H688 C698 0.930 . S
H689 C699 0.930 . S
C690 H684 0.930 . S
C690 C691 1.355 . S
C690 C692 1.415 . S
C691 C690 1.355 . S
C691 C693 1.419 . S
C692 C690 1.415 . S
C692 C697 1.425 . S
C692 C699 1.409 . S
C693 H685 0.930 . S
C693 C691 1.419 . S
C693 C694 1.362 . S
C694 H686 0.930 . S
C694 C693 1.362 . S
C694 C697 1.409 . S
C695 H687 0.930 . S
C695 C696 1.355 . S
C695 C697 1.415 . S
C696 C695 1.355 . S
C696 C698 1.419 . S
C697 C692 1.425 . S
C697 C694 1.409 . S
C697 C695 1.415 . S
C698 H688 0.930 . S
C698 C696 1.419 . S
C698 C699 1.362 . S
C699 H689 0.930 . S
C699 C692 1.409 . S
C699 C698 1.362 . S
H700 C706 0.930 . S
H701 C709 0.930 . S
H702 C710 0.930 . S
H703 C711 0.930 . S
H704 C714 0.930 . S
H705 C715 0.930 . S
C706 H700 0.930 . S
C706 C707 1.355 . S
C706 C708 1.415 . S
C707 C706 1.355 . S
C707 C709 1.419 . S
C708 C706 1.415 . S
C708 C713 1.425 . S
C708 C715 1.409 . S
C709 H701 0.930 . S
C709 C707 1.419 . S
C709 C710 1.362 . S
C710 H702 0.930 . S
C710 C709 1.362 . S
C710 C713 1.409 . S
C711 H703 0.930 . S
C711 C712 1.355 . S
C711 C713 1.415 . S
C712 C711 1.355 . S
C712 C714 1.419 . S
C713 C708 1.425 . S
C713 C710 1.409 . S
C713 C711 1.415 . S
C714 H704 0.930 . S
C714 C712 1.419 . S
C714 C715 1.362 . S
C715 H705 0.930 . S
C715 C708 1.409 . S
C715 C714 1.362 . S
H716 C722 0.930 1_545 S
H717 C725 0.906 1_455 S
H718 C726 0.930 . S
H719 C727 0.930 . S
H720 C730 0.930 . S
H721 C731 0.930 . S
C722 H716 0.930 1_565 S
C722 C723 1.355 . S
C722 C724 1.418 . S
C723 C722 1.355 . S
C723 C725 1.419 . S
C724 C722 1.418 . S
C724 C729 1.431 . S
C724 C731 1.401 1_565 S
C725 H717 0.906 1_655 S
C725 C723 1.419 . S
C725 C726 1.362 . S
C726 H718 0.930 . S
C726 C725 1.362 . S
C726 C729 1.409 . S
C727 H719 0.930 . S
C727 C728 1.355 1_565 S
C727 C729 1.415 . S
C728 C727 1.355 1_545 S
C728 C730 1.419 . S
C729 C724 1.431 . S
C729 C726 1.409 . S
C729 C727 1.415 . S
C730 H720 0.930 . S
C730 C728 1.419 . S
C730 C731 1.362 . S
C731 H721 0.930 . S
C731 C724 1.401 1_545 S
C731 C730 1.362 . S
H732 C738 0.930 . S
H733 C741 0.930 . S
H734 C742 0.930 . S
H735 C743 0.930 . S
H736 C746 0.930 . S
H737 C747 0.930 . S
C738 H732 0.930 . S
C738 C739 1.355 . S
C738 C740 1.415 . S
C739 C738 1.355 . S
C739 C741 1.419 . S
C740 C738 1.415 . S
C740 C745 1.425 . S
C740 C747 1.409 . S
C741 H733 0.930 . S
C741 C739 1.419 . S
C741 C742 1.362 . S
C742 H734 0.930 . S
C742 C741 1.362 . S
C742 C745 1.409 . S
C743 H735 0.930 . S
C743 C744 1.355 . S
C743 C745 1.415 . S
C744 C743 1.355 . S
C744 C746 1.419 . S
C745 C740 1.425 . S
C745 C742 1.409 . S
C745 C743 1.415 . S
C746 H736 0.930 . S
C746 C744 1.419 . S
C746 C747 1.362 . S
C747 H737 0.930 . S
C747 C740 1.409 . S
C747 C746 1.362 . S
H748 C754 0.930 . S
H749 C757 0.930 . S
H750 C758 0.930 . S
H751 C759 0.930 . S
H752 C762 0.930 . S
H753 C763 0.930 . S
C754 H748 0.930 . S
C754 C755 1.355 . S
C754 C756 1.415 . S
C755 C754 1.355 . S
C755 C757 1.419 . S
C756 C754 1.415 . S
C756 C761 1.425 . S
C756 C763 1.409 . S
C757 H749 0.930 . S
C757 C755 1.419 . S
C757 C758 1.362 . S
C758 H750 0.930 . S
C758 C757 1.362 . S
C758 C761 1.409 . S
C759 H751 0.930 . S
C759 C760 1.355 . S
C759 C761 1.415 . S
C760 C759 1.355 . S
C760 C762 1.419 . S
C761 C756 1.425 . S
C761 C758 1.409 . S
C761 C759 1.415 . S
C762 H752 0.930 . S
C762 C760 1.419 . S
C762 C763 1.362 . S
C763 H753 0.930 . S
C763 C756 1.409 . S
C763 C762 1.362 . S
H764 C770 0.930 . S
H765 C773 0.930 . S
H766 C774 0.930 . S
H767 C775 0.930 . S
H768 C778 0.930 . S
H769 C779 0.930 . S
C770 H764 0.930 . S
C770 C771 1.355 . S
C770 C772 1.415 . S
C771 C770 1.355 . S
C771 C773 1.419 . S
C772 C770 1.415 . S
C772 C777 1.425 . S
C772 C779 1.409 . S
C773 H765 0.930 . S
C773 C771 1.419 . S
C773 C774 1.362 . S
C774 H766 0.930 . S
C774 C773 1.362 . S
C774 C777 1.409 . S
C775 H767 0.930 . S
C775 C776 1.355 . S
C775 C777 1.415 . S
C776 C775 1.355 . S
C776 C778 1.419 . S
C777 C772 1.425 . S
C777 C774 1.409 . S
C777 C775 1.415 . S
C778 H768 0.930 . S
C778 C776 1.419 . S
C778 C779 1.362 . S
C779 H769 0.930 . S
C779 C772 1.409 . S
C779 C778 1.362 . S
H780 C786 0.930 1_545 S
H781 C789 0.930 . S
H782 C790 0.930 . S
H783 C791 0.930 . S
H784 C794 0.930 . S
H785 C795 0.930 . S
C786 H780 0.930 1_565 S
C786 C787 1.355 . S
C786 C788 1.415 . S
C787 C786 1.355 . S
C787 C789 1.419 . S
C788 C786 1.415 . S
C788 C793 1.425 . S
C788 C795 1.409 1_565 S
C789 H781 0.930 . S
C789 C787 1.419 . S
C789 C790 1.362 . S
C790 H782 0.930 . S
C790 C789 1.362 . S
C790 C793 1.409 . S
C791 H783 0.930 . S
C791 C792 1.355 . S
C791 C793 1.415 . S
C792 C791 1.355 . S
C792 C794 1.419 1_565 S
C793 C788 1.425 . S
C793 C790 1.409 . S
C793 C791 1.415 . S
C794 H784 0.930 . S
C794 C792 1.419 1_545 S
C794 C795 1.362 . S
C795 H785 0.930 . S
C795 C788 1.409 1_545 S
C795 C794 1.362 . S
H796 C802 0.930 . S
H797 C805 0.930 . S
H798 C806 0.930 . S
H799 C807 0.930 . S
H800 C810 0.930 . S
H801 C811 0.930 . S
C802 H796 0.930 . S
C802 C803 1.355 . S
C802 C804 1.415 . S
C803 C802 1.355 . S
C803 C805 1.419 . S
C804 C802 1.415 . S
C804 C809 1.425 . S
C804 C811 1.409 . S
C805 H797 0.930 . S
C805 C803 1.419 . S
C805 C806 1.362 . S
C806 H798 0.930 . S
C806 C805 1.362 . S
C806 C809 1.409 . S
C807 H799 0.930 . S
C807 C808 1.355 . S
C807 C809 1.415 . S
C808 C807 1.355 . S
C808 C810 1.419 . S
C809 C804 1.425 . S
C809 C806 1.409 . S
C809 C807 1.415 . S
C810 H800 0.930 . S
C810 C808 1.419 . S
C810 C811 1.362 . S
C811 H801 0.930 . S
C811 C804 1.409 . S
C811 C810 1.362 . S
H812 C818 0.930 . S
H813 C821 0.930 . S
H814 C822 0.930 . S
H815 C823 0.930 . S
H816 C826 0.930 . S
H817 C827 0.930 . S
C818 H812 0.930 . S
C818 C819 1.355 . S
C818 C820 1.415 . S
C819 C818 1.355 . S
C819 C821 1.419 . S
C820 C818 1.415 . S
C820 C825 1.425 . S
C820 C827 1.409 . S
C821 H813 0.930 . S
C821 C819 1.419 . S
C821 C822 1.362 . S
C822 H814 0.930 . S
C822 C821 1.362 . S
C822 C825 1.409 . S
C823 H815 0.930 . S
C823 C824 1.355 . S
C823 C825 1.415 . S
C824 C823 1.355 . S
C824 C826 1.419 . S
C825 C820 1.425 . S
C825 C822 1.409 . S
C825 C823 1.415 . S
C826 H816 0.930 . S
C826 C824 1.419 . S
C826 C827 1.362 . S
C827 H817 0.930 . S
C827 C820 1.409 . S
C827 C826 1.362 . S
H828 C834 0.930 . S
H829 C837 0.930 . S
H830 C838 0.930 . S
H831 C839 0.930 . S
H832 C842 0.930 . S
H833 C843 0.930 . S
C834 H828 0.930 . S
C834 C835 1.355 . S
C834 C836 1.415 . S
C835 C834 1.355 . S
C835 C837 1.419 . S
C836 C834 1.415 . S
C836 C841 1.425 . S
C836 C843 1.409 . S
C837 H829 0.930 . S
C837 C835 1.419 . S
C837 C838 1.362 . S
C838 H830 0.930 . S
C838 C837 1.362 . S
C838 C841 1.409 . S
C839 H831 0.930 . S
C839 C840 1.355 . S
C839 C841 1.415 . S
C840 C839 1.355 . S
C840 C842 1.419 . S
C841 C836 1.425 . S
C841 C838 1.409 . S
C841 C839 1.415 . S
C842 H832 0.930 . S
C842 C840 1.419 . S
C842 C843 1.362 . S
C843 H833 0.930 . S
C843 C836 1.409 . S
C843 C842 1.362 . S
H844 C850 0.930 . S
H845 C853 0.930 . S
H846 C854 0.930 . S
H847 C855 0.930 . S
H848 C858 0.930 . S
H849 C859 0.930 . S
C850 H844 0.930 . S
C850 C851 1.355 . S
C850 C852 1.415 . S
C851 C850 1.355 . S
C851 C853 1.419 . S
C852 C850 1.415 . S
C852 C857 1.425 . S
C852 C859 1.409 . S
C853 H845 0.930 . S
C853 C851 1.419 . S
C853 C854 1.362 . S
C854 H846 0.930 . S
C854 C853 1.362 . S
C854 C857 1.409 . S
C855 H847 0.930 . S
C855 C856 1.355 . S
C855 C857 1.415 . S
C856 C855 1.355 . S
C856 C858 1.419 . S
C857 C852 1.425 . S
C857 C854 1.409 . S
C857 C855 1.415 . S
C858 H848 0.930 . S
C858 C856 1.419 . S
C858 C859 1.362 . S
C859 H849 0.930 . S
C859 C852 1.409 . S
C859 C858 1.362 . S
H860 C866 0.930 . S
H861 C869 0.930 . S
H862 C870 0.930 . S
H863 C871 0.930 . S
H864 C874 0.930 . S
H865 C875 0.930 . S
C866 H860 0.930 . S
C866 C867 1.355 . S
C866 C868 1.415 . S
C867 C866 1.355 . S
C867 C869 1.419 . S
C868 C866 1.415 . S
C868 C873 1.425 . S
C868 C875 1.409 . S
C869 H861 0.930 . S
C869 C867 1.419 . S
C869 C870 1.362 . S
C870 H862 0.930 . S
C870 C869 1.362 . S
C870 C873 1.409 . S
C871 H863 0.930 . S
C871 C872 1.355 . S
C871 C873 1.415 . S
C872 C871 1.355 . S
C872 C874 1.419 . S
C873 C868 1.425 . S
C873 C870 1.409 . S
C873 C871 1.415 . S
C874 H864 0.930 . S
C874 C872 1.419 . S
C874 C875 1.362 . S
C875 H865 0.930 . S
C875 C868 1.409 . S
C875 C874 1.362 . S
H876 C882 0.930 . S
H877 C885 0.930 . S
H878 C886 0.930 . S
H879 C887 0.930 . S
H880 C890 0.930 . S
H881 C891 0.930 . S
C882 H876 0.930 . S
C882 C883 1.355 . S
C882 C884 1.415 . S
C883 C882 1.355 . S
C883 C885 1.419 . S
C884 C882 1.415 . S
C884 C889 1.425 . S
C884 C891 1.409 . S
C885 H877 0.930 . S
C885 C883 1.419 . S
C885 C886 1.362 . S
C886 H878 0.930 . S
C886 C885 1.362 . S
C886 C889 1.409 . S
C887 H879 0.930 . S
C887 C888 1.355 . S
C887 C889 1.415 . S
C888 C887 1.355 . S
C888 C890 1.419 . S
C889 C884 1.425 . S
C889 C886 1.409 . S
C889 C887 1.415 . S
C890 H880 0.930 . S
C890 C888 1.419 . S
C890 C891 1.362 . S
C891 H881 0.930 . S
C891 C884 1.409 . S
C891 C890 1.362 . S
H892 C898 0.930 . S
H893 C901 0.930 . S
H894 C902 0.930 . S
H895 C903 0.930 . S
H896 C906 0.930 . S
H897 C907 0.930 . S
C898 H892 0.930 . S
C898 C899 1.355 . S
C898 C900 1.415 . S
C899 C898 1.355 . S
C899 C901 1.419 . S
C900 C898 1.415 . S
C900 C905 1.425 . S
C900 C907 1.409 . S
C901 H893 0.930 . S
C901 C899 1.419 . S
C901 C902 1.362 . S
C902 H894 0.930 . S
C902 C901 1.362 . S
C902 C905 1.409 . S
C903 H895 0.930 . S
C903 C904 1.355 . S
C903 C905 1.415 . S
C904 C903 1.355 . S
C904 C906 1.419 . S
C905 C900 1.425 . S
C905 C902 1.409 . S
C905 C903 1.415 . S
C906 H896 0.930 . S
C906 C904 1.419 . S
C906 C907 1.362 . S
C907 H897 0.930 . S
C907 C900 1.409 . S
C907 C906 1.362 . S
H908 C914 0.930 . S
H909 C917 0.930 . S
H910 C918 0.930 . S
H911 C919 0.930 . S
H912 C922 0.930 . S
H913 C923 0.930 . S
C914 H908 0.930 . S
C914 C915 1.355 . S
C914 C916 1.415 . S
C915 C914 1.355 . S
C915 C917 1.419 . S
C916 C914 1.415 . S
C916 C921 1.425 . S
C916 C923 1.409 1_655 S
C917 H909 0.930 . S
C917 C915 1.419 . S
C917 C918 1.362 . S
C918 H910 0.930 . S
C918 C917 1.362 . S
C918 C921 1.409 . S
C919 H911 0.930 . S
C919 C920 1.355 . S
C919 C921 1.415 . S
C920 C919 1.355 . S
C920 C922 1.419 1_655 S
C921 C916 1.425 . S
C921 C918 1.409 . S
C921 C919 1.415 . S
C922 H912 0.930 . S
C922 C920 1.419 1_455 S
C922 C923 1.362 . S
C923 H913 0.930 . S
C923 C916 1.409 1_455 S
C923 C922 1.362 . S
H924 C930 0.930 . S
H925 C933 0.930 . S
H926 C934 0.930 . S
H927 C935 0.930 . S
H928 C938 0.930 . S
H929 C939 0.930 . S
C930 H924 0.930 . S
C930 C931 1.355 . S
C930 C932 1.415 . S
C931 C930 1.355 . S
C931 C933 1.419 . S
C932 C930 1.415 . S
C932 C937 1.425 . S
C932 C939 1.409 . S
C933 H925 0.930 . S
C933 C931 1.419 . S
C933 C934 1.362 . S
C934 H926 0.930 . S
C934 C933 1.362 . S
C934 C937 1.409 . S
C935 H927 0.930 . S
C935 C936 1.355 . S
C935 C937 1.415 . S
C936 C935 1.355 . S
C936 C938 1.419 . S
C937 C932 1.425 . S
C937 C934 1.409 . S
C937 C935 1.415 . S
C938 H928 0.930 . S
C938 C936 1.419 . S
C938 C939 1.362 . S
C939 H929 0.930 . S
C939 C932 1.409 . S
C939 C938 1.362 . S
H940 C946 0.930 . S
H941 C949 0.930 . S
H942 C950 0.930 . S
H943 C951 0.930 . S
H944 C954 0.930 . S
H945 C955 0.930 . S
C946 H940 0.930 . S
C946 C947 1.355 . S
C946 C948 1.415 . S
C947 C946 1.355 . S
C947 C949 1.419 . S
C948 C946 1.415 . S
C948 C953 1.425 . S
C948 C955 1.409 . S
C949 H941 0.930 . S
C949 C947 1.419 . S
C949 C950 1.362 . S
C950 H942 0.930 . S
C950 C949 1.362 . S
C950 C953 1.409 . S
C951 H943 0.930 . S
C951 C952 1.355 . S
C951 C953 1.415 . S
C952 C951 1.355 . S
C952 C954 1.419 . S
C953 C948 1.425 . S
C953 C950 1.409 . S
C953 C951 1.415 . S
C954 H944 0.930 . S
C954 C952 1.419 . S
C954 C955 1.362 . S
C955 H945 0.930 . S
C955 C948 1.409 . S
C955 C954 1.362 . S
H956 C962 0.930 . S
H957 C965 0.930 . S
H958 C966 0.930 . S
H959 C967 0.930 . S
H960 C970 0.930 . S
H961 C971 0.930 . S
C962 H956 0.930 . S
C962 C963 1.355 . S
C962 C964 1.415 . S
C963 C962 1.355 . S
C963 C965 1.419 . S
C964 C962 1.415 . S
C964 C969 1.425 . S
C964 C971 1.409 . S
C965 H957 0.930 . S
C965 C963 1.419 . S
C965 C966 1.362 . S
C966 H958 0.930 . S
C966 C965 1.362 . S
C966 C969 1.409 . S
C967 H959 0.930 . S
C967 C968 1.354 1_556 S
C967 C969 1.415 . S
C968 C967 1.354 1_554 S
C968 C970 1.419 . S
C969 C964 1.425 . S
C969 C966 1.409 . S
C969 C967 1.415 . S
C970 H960 0.930 . S
C970 C968 1.419 . S
C970 C971 1.362 1_554 S
C971 H961 0.930 . S
C971 C964 1.409 . S
C971 C970 1.362 1_556 S
H972 C978 0.930 . S
H973 C981 0.930 . S
H974 C982 0.930 . S
H975 C983 0.930 . S
H976 C986 0.930 . S
H977 C987 0.930 . S
C978 H972 0.930 . S
C978 C979 1.355 . S
C978 C980 1.415 . S
C979 C978 1.355 . S
C979 C981 1.419 . S
C980 C978 1.415 . S
C980 C985 1.425 . S
C980 C987 1.409 . S
C981 H973 0.930 . S
C981 C979 1.419 . S
C981 C982 1.362 . S
C982 H974 0.930 . S
C982 C981 1.362 . S
C982 C985 1.409 . S
C983 H975 0.930 . S
C983 C984 1.355 . S
C983 C985 1.415 . S
C984 C983 1.355 . S
C984 C986 1.419 . S
C985 C980 1.425 . S
C985 C982 1.409 . S
C985 C983 1.415 . S
C986 H976 0.930 . S
C986 C984 1.419 . S
C986 C987 1.362 . S
C987 H977 0.930 . S
C987 C980 1.409 . S
C987 C986 1.362 . S
H988 C994 0.930 . S
H989 C997 0.930 . S
H990 C998 0.930 . S
H991 C999 0.930 . S
H992 C1002 0.930 . S
H993 C1003 0.930 . S
C994 H988 0.930 . S
C994 C995 1.355 . S
C994 C996 1.415 . S
C995 C994 1.355 . S
C995 C997 1.419 . S
C996 C994 1.415 . S
C996 C1001 1.425 . S
C996 C1003 1.409 . S
C997 H989 0.930 . S
C997 C995 1.419 . S
C997 C998 1.362 . S
C998 H990 0.930 . S
C998 C997 1.362 . S
C998 C1001 1.409 . S
C999 H991 0.930 . S
C999 C1000 1.355 . S
C999 C1001 1.415 . S
C1000 C999 1.355 . S
C1000 C1002 1.419 . S
C1001 C996 1.425 . S
C1001 C998 1.409 . S
C1001 C999 1.415 . S
C1002 H992 0.930 . S
C1002 C1000 1.419 . S
C1002 C1003 1.362 . S
C1003 H993 0.930 . S
C1003 C996 1.409 . S
C1003 C1002 1.362 . S
H1004 C1010 0.930 . S
H1005 C1013 0.930 . S
H1006 C1014 0.930 . S
H1007 C1015 0.930 . S
H1008 C1018 0.930 . S
H1009 C1019 0.930 . S
C1010 H1004 0.930 . S
C1010 C1011 1.355 . S
C1010 C1012 1.415 . S
C1011 C1010 1.355 . S
C1011 C1013 1.419 . S
C1012 C1010 1.415 . S
C1012 C1017 1.425 . S
C1012 C1019 1.409 . S
C1013 H1005 0.930 . S
C1013 C1011 1.419 . S
C1013 C1014 1.362 . S
C1014 H1006 0.930 . S
C1014 C1013 1.362 . S
C1014 C1017 1.409 . S
C1015 H1007 0.930 . S
C1015 C1016 1.355 . S
C1015 C1017 1.415 . S
C1016 C1015 1.355 . S
C1016 C1018 1.419 . S
C1017 C1012 1.425 . S
C1017 C1014 1.409 . S
C1017 C1015 1.415 . S
C1018 H1008 0.930 . S
C1018 C1016 1.419 . S
C1018 C1019 1.362 . S
C1019 H1009 0.930 . S
C1019 C1012 1.409 . S
C1019 C1018 1.362 . S
H1020 C1026 0.930 . S
H1021 C1029 0.930 . S
H1022 C1030 0.930 . S
H1023 C1031 0.930 . S
H1024 C1034 0.930 . S
H1025 C1035 0.930 . S
C1026 H1020 0.930 . S
C1026 C1027 1.355 . S
C1026 C1028 1.415 . S
C1027 C1026 1.355 . S
C1027 C1029 1.419 . S
C1028 C1026 1.415 . S
C1028 C1033 1.425 . S
C1028 C1035 1.409 . S
C1029 H1021 0.930 . S
C1029 C1027 1.419 . S
C1029 C1030 1.362 . S
C1030 H1022 0.930 . S
C1030 C1029 1.362 . S
C1030 C1033 1.409 . S
C1031 H1023 0.930 . S
C1031 C1032 1.355 . S
C1031 C1033 1.415 . S
C1032 C1031 1.355 . S
C1032 C1034 1.419 . S
C1033 C1028 1.425 . S
C1033 C1030 1.409 . S
C1033 C1031 1.415 . S
C1034 H1024 0.930 . S
C1034 C1032 1.419 . S
C1034 C1035 1.362 . S
C1035 H1025 0.930 . S
C1035 C1028 1.409 . S
C1035 C1034 1.362 . S
H1036 C1042 0.930 . S
H1037 C1045 0.930 . S
H1038 C1046 0.930 . S
H1039 C1047 0.930 . S
H1040 C1050 0.930 . S
H1041 C1051 0.930 . S
C1042 H1036 0.930 . S
C1042 C1043 1.355 . S
C1042 C1044 1.415 . S
C1043 C1042 1.355 . S
C1043 C1045 1.419 . S
C1044 C1042 1.415 . S
C1044 C1049 1.425 . S
C1044 C1051 1.409 . S
C1045 H1037 0.930 . S
C1045 C1043 1.419 . S
C1045 C1046 1.362 . S
C1046 H1038 0.930 . S
C1046 C1045 1.362 . S
C1046 C1049 1.409 . S
C1047 H1039 0.930 . S
C1047 C1048 1.355 . S
C1047 C1049 1.415 . S
C1048 C1047 1.355 . S
C1048 C1050 1.419 . S
C1049 C1044 1.425 . S
C1049 C1046 1.409 . S
C1049 C1047 1.415 . S
C1050 H1040 0.930 . S
C1050 C1048 1.419 . S
C1050 C1051 1.362 . S
C1051 H1041 0.930 . S
C1051 C1044 1.409 . S
C1051 C1050 1.362 . S
H1052 C1058 0.930 . S
H1053 C1061 0.930 . S
H1054 C1062 0.930 . S
H1055 C1063 0.930 . S
H1056 C1066 0.930 . S
H1057 C1067 0.930 . S
C1058 H1052 0.930 . S
C1058 C1059 1.355 . S
C1058 C1060 1.415 . S
C1059 C1058 1.355 . S
C1059 C1061 1.419 . S
C1060 C1058 1.415 . S
C1060 C1065 1.425 . S
C1060 C1067 1.409 . S
C1061 H1053 0.930 . S
C1061 C1059 1.419 . S
C1061 C1062 1.362 . S
C1062 H1054 0.930 . S
C1062 C1061 1.362 . S
C1062 C1065 1.409 . S
C1063 H1055 0.930 . S
C1063 C1064 1.355 . S
C1063 C1065 1.415 . S
C1064 C1063 1.355 . S
C1064 C1066 1.419 . S
C1065 C1060 1.425 . S
C1065 C1062 1.409 . S
C1065 C1063 1.415 . S
C1066 H1056 0.930 . S
C1066 C1064 1.419 . S
C1066 C1067 1.362 . S
C1067 H1057 0.930 . S
C1067 C1060 1.409 . S
C1067 C1066 1.362 . S
H1068 C1074 0.930 . S
H1069 C1077 0.930 . S
H1070 C1078 0.930 . S
H1071 C1079 0.930 . S
H1072 C1082 0.930 . S
H1073 C1083 0.930 . S
C1074 H1068 0.930 . S
C1074 C1075 1.355 . S
C1074 C1076 1.415 . S
C1075 C1074 1.355 . S
C1075 C1077 1.419 . S
C1076 C1074 1.415 . S
C1076 C1081 1.425 . S
C1076 C1083 1.409 . S
C1077 H1069 0.930 . S
C1077 C1075 1.419 . S
C1077 C1078 1.362 . S
C1078 H1070 0.930 . S
C1078 C1077 1.362 . S
C1078 C1081 1.409 . S
C1079 H1071 0.930 . S
C1079 C1080 1.355 . S
C1079 C1081 1.415 . S
C1080 C1079 1.355 . S
C1080 C1082 1.419 . S
C1081 C1076 1.425 . S
C1081 C1078 1.409 . S
C1081 C1079 1.415 . S
C1082 H1072 0.930 . S
C1082 C1080 1.419 . S
C1082 C1083 1.362 . S
C1083 H1073 0.930 . S
C1083 C1076 1.409 . S
C1083 C1082 1.362 . S
H1084 C1090 0.930 . S
H1085 C1093 0.930 . S
H1086 C1094 0.930 . S
H1087 C1095 0.930 . S
H1088 C1098 0.930 . S
H1089 C1099 0.930 . S
C1090 H1084 0.930 . S
C1090 C1091 1.355 . S
C1090 C1092 1.415 . S
C1091 C1090 1.355 . S
C1091 C1093 1.419 . S
C1092 C1090 1.415 . S
C1092 C1097 1.425 . S
C1092 C1099 1.409 . S
C1093 H1085 0.930 . S
C1093 C1091 1.419 . S
C1093 C1094 1.362 . S
C1094 H1086 0.930 . S
C1094 C1093 1.362 . S
C1094 C1097 1.409 . S
C1095 H1087 0.930 . S
C1095 C1096 1.355 . S
C1095 C1097 1.415 . S
C1096 C1095 1.355 . S
C1096 C1098 1.419 . S
C1097 C1092 1.425 . S
C1097 C1094 1.409 . S
C1097 C1095 1.415 . S
C1098 H1088 0.930 . S
C1098 C1096 1.419 . S
C1098 C1099 1.362 . S
C1099 H1089 0.930 . S
C1099 C1092 1.409 . S
C1099 C1098 1.362 . S
H1100 C1106 0.930 . S
H1101 C1109 0.930 . S
H1102 C1110 0.930 . S
H1103 C1111 0.930 . S
H1104 C1114 0.930 . S
H1105 C1115 0.930 . S
C1106 H1100 0.930 . S
C1106 C1107 1.355 . S
C1106 C1108 1.415 . S
C1107 C1106 1.355 . S
C1107 C1109 1.419 . S
C1108 C1106 1.415 . S
C1108 C1113 1.425 . S
C1108 C1115 1.409 . S
C1109 H1101 0.930 . S
C1109 C1107 1.419 . S
C1109 C1110 1.362 . S
C1110 H1102 0.930 . S
C1110 C1109 1.362 . S
C1110 C1113 1.409 . S
C1111 H1103 0.930 . S
C1111 C1112 1.355 . S
C1111 C1113 1.415 . S
C1112 C1111 1.355 . S
C1112 C1114 1.419 . S
C1113 C1108 1.425 . S
C1113 C1110 1.409 . S
C1113 C1111 1.415 . S
C1114 H1104 0.930 . S
C1114 C1112 1.419 . S
C1114 C1115 1.362 . S
C1115 H1105 0.930 . S
C1115 C1108 1.409 . S
C1115 C1114 1.362 . S
H1116 C1122 0.930 . S
H1117 C1125 0.930 . S
H1118 C1126 0.930 . S
H1119 C1127 0.930 . S
H1120 C1130 0.930 . S
H1121 C1131 0.930 . S
C1122 H1116 0.930 . S
C1122 C1123 1.355 . S
C1122 C1124 1.415 . S
C1123 C1122 1.355 . S
C1123 C1125 1.419 . S
C1124 C1122 1.415 . S
C1124 C1129 1.425 . S
C1124 C1131 1.409 . S
C1125 H1117 0.930 . S
C1125 C1123 1.419 . S
C1125 C1126 1.362 . S
C1126 H1118 0.930 . S
C1126 C1125 1.362 . S
C1126 C1129 1.409 . S
C1127 H1119 0.930 . S
C1127 C1128 1.355 . S
C1127 C1129 1.415 . S
C1128 C1127 1.355 . S
C1128 C1130 1.419 . S
C1129 C1124 1.425 . S
C1129 C1126 1.409 . S
C1129 C1127 1.415 . S
C1130 H1120 0.930 . S
C1130 C1128 1.419 . S
C1130 C1131 1.362 . S
C1131 H1121 0.930 . S
C1131 C1124 1.409 . S
C1131 C1130 1.362 . S
H1132 C1138 0.930 . S
H1133 C1141 0.930 . S
H1134 C1142 0.930 . S
H1135 C1143 0.930 . S
H1136 C1146 0.930 . S
H1137 C1147 0.930 . S
C1138 H1132 0.930 . S
C1138 C1139 1.355 . S
C1138 C1140 1.415 . S
C1139 C1138 1.355 . S
C1139 C1141 1.419 . S
C1140 C1138 1.415 . S
C1140 C1145 1.425 . S
C1140 C1147 1.409 . S
C1141 H1133 0.930 . S
C1141 C1139 1.419 . S
C1141 C1142 1.362 . S
C1142 H1134 0.930 . S
C1142 C1141 1.362 . S
C1142 C1145 1.409 . S
C1143 H1135 0.930 . S
C1143 C1144 1.355 . S
C1143 C1145 1.415 . S
C1144 C1143 1.355 . S
C1144 C1146 1.419 . S
C1145 C1140 1.425 . S
C1145 C1142 1.409 . S
C1145 C1143 1.415 . S
C1146 H1136 0.930 . S
C1146 C1144 1.419 . S
C1146 C1147 1.362 . S
C1147 H1137 0.930 . S
C1147 C1140 1.409 . S
C1147 C1146 1.362 . S
H1148 C1154 0.930 . S
H1149 C1157 0.930 . S
H1150 C1158 0.930 . S
H1151 C1159 0.930 . S
H1152 C1162 0.930 . S
H1153 C1163 0.930 . S
C1154 H1148 0.930 . S
C1154 C1155 1.355 . S
C1154 C1156 1.415 . S
C1155 C1154 1.355 . S
C1155 C1157 1.419 . S
C1156 C1154 1.415 . S
C1156 C1161 1.425 . S
C1156 C1163 1.409 . S
C1157 H1149 0.930 . S
C1157 C1155 1.419 . S
C1157 C1158 1.362 . S
C1158 H1150 0.930 . S
C1158 C1157 1.362 . S
C1158 C1161 1.409 . S
C1159 H1151 0.930 . S
C1159 C1160 1.355 . S
C1159 C1161 1.415 . S
C1160 C1159 1.355 . S
C1160 C1162 1.419 . S
C1161 C1156 1.425 . S
C1161 C1158 1.409 . S
C1161 C1159 1.415 . S
C1162 H1152 0.930 . S
C1162 C1160 1.419 . S
C1162 C1163 1.362 . S
C1163 H1153 0.930 . S
C1163 C1156 1.409 . S
C1163 C1162 1.362 . S
H1164 C1170 0.930 . S
H1165 C1173 0.930 . S
H1166 C1174 0.930 . S
H1167 C1175 0.930 . S
H1168 C1178 0.930 . S
H1169 C1179 0.930 . S
C1170 H1164 0.930 . S
C1170 C1171 1.355 . S
C1170 C1172 1.415 . S
C1171 C1170 1.355 . S
C1171 C1173 1.419 . S
C1172 C1170 1.415 . S
C1172 C1177 1.425 . S
C1172 C1179 1.409 . S
C1173 H1165 0.930 . S
C1173 C1171 1.419 . S
C1173 C1174 1.362 . S
C1174 H1166 0.930 . S
C1174 C1173 1.362 . S
C1174 C1177 1.409 . S
C1175 H1167 0.930 . S
C1175 C1176 1.355 . S
C1175 C1177 1.415 . S
C1176 C1175 1.355 . S
C1176 C1178 1.419 . S
C1177 C1172 1.425 . S
C1177 C1174 1.409 . S
C1177 C1175 1.415 . S
C1178 H1168 0.930 . S
C1178 C1176 1.419 . S
C1178 C1179 1.362 . S
C1179 H1169 0.930 . S
C1179 C1172 1.409 . S
C1179 C1178 1.362 . S
H1180 C1186 0.930 . S
H1181 C1189 0.930 . S
H1182 C1190 0.930 . S
H1183 C1191 0.930 . S
H1184 C1194 0.930 . S
H1185 C1195 0.930 . S
C1186 H1180 0.930 . S
C1186 C1187 1.355 . S
C1186 C1188 1.415 . S
C1187 C1186 1.355 . S
C1187 C1189 1.419 . S
C1188 C1186 1.415 . S
C1188 C1193 1.425 . S
C1188 C1195 1.409 . S
C1189 H1181 0.930 . S
C1189 C1187 1.419 . S
C1189 C1190 1.362 . S
C1190 H1182 0.930 . S
C1190 C1189 1.362 . S
C1190 C1193 1.409 . S
C1191 H1183 0.930 . S
C1191 C1192 1.355 . S
C1191 C1193 1.415 . S
C1192 C1191 1.355 . S
C1192 C1194 1.419 . S
C1193 C1188 1.425 . S
C1193 C1190 1.409 . S
C1193 C1191 1.415 . S
C1194 H1184 0.930 . S
C1194 C1192 1.419 . S
C1194 C1195 1.362 . S
C1195 H1185 0.930 . S
C1195 C1188 1.409 . S
C1195 C1194 1.362 . S
H1196 C1202 0.930 . S
H1197 C1205 0.930 . S
H1198 C1206 0.930 . S
H1199 C1207 0.930 . S
H1200 C1210 0.926 1_455 S
H1201 C1211 0.937 . S
C1202 H1196 0.930 . S
C1202 C1203 1.355 . S
C1202 C1204 1.415 . S
C1203 C1202 1.355 . S
C1203 C1205 1.419 . S
C1204 C1202 1.415 . S
C1204 C1209 1.425 . S
C1204 C1211 1.409 . S
C1205 H1197 0.930 . S
C1205 C1203 1.419 . S
C1205 C1206 1.362 . S
C1206 H1198 0.930 . S
C1206 C1205 1.362 . S
C1206 C1209 1.409 . S
C1207 H1199 0.930 . S
C1207 C1208 1.355 . S
C1207 C1209 1.415 . S
C1208 C1207 1.355 . S
C1208 C1210 1.421 . S
C1209 C1204 1.425 . S
C1209 C1206 1.409 . S
C1209 C1207 1.415 . S
C1210 H1200 0.926 1_655 S
C1210 C1208 1.421 . S
C1210 C1211 1.364 . S
C1211 H1201 0.937 . S
C1211 C1204 1.409 . S
C1211 C1210 1.364 . S
H1212 C1218 0.930 . S
H1213 C1221 0.930 . S
H1214 C1222 0.930 . S
H1215 C1223 0.930 . S
H1216 C1226 0.930 . S
H1217 C1227 0.930 . S
C1218 H1212 0.930 . S
C1218 C1219 1.355 . S
C1218 C1220 1.415 . S
C1219 C1218 1.355 . S
C1219 C1221 1.419 . S
C1220 C1218 1.415 . S
C1220 C1225 1.425 . S
C1220 C1227 1.409 . S
C1221 H1213 0.930 . S
C1221 C1219 1.419 . S
C1221 C1222 1.362 . S
C1222 H1214 0.930 . S
C1222 C1221 1.362 . S
C1222 C1225 1.409 . S
C1223 H1215 0.930 . S
C1223 C1224 1.355 . S
C1223 C1225 1.415 . S
C1224 C1223 1.355 . S
C1224 C1226 1.419 . S
C1225 C1220 1.425 . S
C1225 C1222 1.409 . S
C1225 C1223 1.415 . S
C1226 H1216 0.930 . S
C1226 C1224 1.419 . S
C1226 C1227 1.362 . S
C1227 H1217 0.930 . S
C1227 C1220 1.409 . S
C1227 C1226 1.362 . S
H1228 C1234 0.930 . S
H1229 C1237 0.930 1_654 S
H1230 C1238 0.962 . S
H1231 C1239 0.930 1_655 S
H1232 C1242 0.930 . S
H1233 C1243 0.930 . S
C1234 H1228 0.930 . S
C1234 C1235 1.355 . S
C1234 C1236 1.415 . S
C1235 C1234 1.355 . S
C1235 C1237 1.419 . S
C1236 C1234 1.415 . S
C1236 C1241 1.425 . S
C1236 C1243 1.409 . S
C1237 H1229 0.930 1_456 S
C1237 C1235 1.419 . S
C1237 C1238 1.350 1_455 S
C1238 H1230 0.962 . S
C1238 C1237 1.350 1_655 S
C1238 C1241 1.392 1_655 S
C1239 H1231 0.930 1_455 S
C1239 C1240 1.355 . S
C1239 C1241 1.415 . S
C1240 C1239 1.355 . S
C1240 C1242 1.419 . S
C1241 C1236 1.425 . S
C1241 C1238 1.392 1_455 S
C1241 C1239 1.415 . S
C1242 H1232 0.930 . S
C1242 C1240 1.419 . S
C1242 C1243 1.362 . S
C1243 H1233 0.930 . S
C1243 C1236 1.409 . S
C1243 C1242 1.362 . S
H1244 C1250 0.930 . S
H1245 C1253 0.930 . S
H1246 C1254 0.930 . S
H1247 C1255 0.930 . S
H1248 C1258 0.930 . S
H1249 C1259 0.930 . S
C1250 H1244 0.930 . S
C1250 C1251 1.355 . S
C1250 C1252 1.415 . S
C1251 C1250 1.355 . S
C1251 C1253 1.419 . S
C1252 C1250 1.415 . S
C1252 C1257 1.425 . S
C1252 C1259 1.409 . S
C1253 H1245 0.930 . S
C1253 C1251 1.419 . S
C1253 C1254 1.362 . S
C1254 H1246 0.930 . S
C1254 C1253 1.362 . S
C1254 C1257 1.409 . S
C1255 H1247 0.930 . S
C1255 C1256 1.355 . S
C1255 C1257 1.415 . S
C1256 C1255 1.355 . S
C1256 C1258 1.419 . S
C1257 C1252 1.425 . S
C1257 C1254 1.409 . S
C1257 C1255 1.415 . S
C1258 H1248 0.930 . S
C1258 C1256 1.419 . S
C1258 C1259 1.362 . S
C1259 H1249 0.930 . S
C1259 C1252 1.409 . S
C1259 C1258 1.362 . S
H1260 C1266 0.930 . S
H1261 C1269 0.930 . S
H1262 C1270 0.930 . S
H1263 C1271 0.930 . S
H1264 C1274 0.930 . S
H1265 C1275 0.930 . S
C1266 H1260 0.930 . S
C1266 C1267 1.355 . S
C1266 C1268 1.415 . S
C1267 C1266 1.355 . S
C1267 C1269 1.419 . S
C1268 C1266 1.415 . S
C1268 C1273 1.425 . S
C1268 C1275 1.409 . S
C1269 H1261 0.930 . S
C1269 C1267 1.419 . S
C1269 C1270 1.362 . S
C1270 H1262 0.930 . S
C1270 C1269 1.362 . S
C1270 C1273 1.409 . S
C1271 H1263 0.930 . S
C1271 C1272 1.355 . S
C1271 C1273 1.415 . S
C1272 C1271 1.355 . S
C1272 C1274 1.419 . S
C1273 C1268 1.425 . S
C1273 C1270 1.409 . S
C1273 C1271 1.415 . S
C1274 H1264 0.930 . S
C1274 C1272 1.419 . S
C1274 C1275 1.362 . S
C1275 H1265 0.930 . S
C1275 C1268 1.409 . S
C1275 C1274 1.362 . S
H1276 C1282 0.930 . S
H1277 C1285 0.930 . S
H1278 C1286 0.930 . S
H1279 C1287 0.930 . S
H1280 C1290 0.930 . S
H1281 C1291 0.930 . S
C1282 H1276 0.930 . S
C1282 C1283 1.355 . S
C1282 C1284 1.415 . S
C1283 C1282 1.355 . S
C1283 C1285 1.419 . S
C1284 C1282 1.415 . S
C1284 C1289 1.425 . S
C1284 C1291 1.409 . S
C1285 H1277 0.930 . S
C1285 C1283 1.419 . S
C1285 C1286 1.362 . S
C1286 H1278 0.930 . S
C1286 C1285 1.362 . S
C1286 C1289 1.409 . S
C1287 H1279 0.930 . S
C1287 C1288 1.355 . S
C1287 C1289 1.415 . S
C1288 C1287 1.355 . S
C1288 C1290 1.419 . S
C1289 C1284 1.425 . S
C1289 C1286 1.409 . S
C1289 C1287 1.415 . S
C1290 H1280 0.930 . S
C1290 C1288 1.419 . S
C1290 C1291 1.362 . S
C1291 H1281 0.930 . S
C1291 C1284 1.409 . S
C1291 C1290 1.362 . S
H1292 C1298 0.930 . S
H1293 C1301 0.930 . S
H1294 C1302 0.930 . S
H1295 C1303 0.930 . S
H1296 C1306 0.930 . S
H1297 C1307 0.930 . S
C1298 H1292 0.930 . S
C1298 C1299 1.355 . S
C1298 C1300 1.415 . S
C1299 C1298 1.355 . S
C1299 C1301 1.419 . S
C1300 C1298 1.415 . S
C1300 C1305 1.425 . S
C1300 C1307 1.409 . S
C1301 H1293 0.930 . S
C1301 C1299 1.419 . S
C1301 C1302 1.362 . S
C1302 H1294 0.930 . S
C1302 C1301 1.362 . S
C1302 C1305 1.409 . S
C1303 H1295 0.930 . S
C1303 C1304 1.355 . S
C1303 C1305 1.415 . S
C1304 C1303 1.355 . S
C1304 C1306 1.419 . S
C1305 C1300 1.425 . S
C1305 C1302 1.409 . S
C1305 C1303 1.415 . S
C1306 H1296 0.930 . S
C1306 C1304 1.419 . S
C1306 C1307 1.362 . S
C1307 H1297 0.930 . S
C1307 C1300 1.409 . S
C1307 C1306 1.362 . S
H1308 C1314 0.930 . S
H1309 C1317 0.930 . S
H1310 C1318 0.930 . S
H1311 C1319 0.930 . S
H1312 C1322 0.930 . S
H1313 C1323 0.930 . S
C1314 H1308 0.930 . S
C1314 C1315 1.355 . S
C1314 C1316 1.415 . S
C1315 C1314 1.355 . S
C1315 C1317 1.419 . S
C1316 C1314 1.415 . S
C1316 C1321 1.425 . S
C1316 C1323 1.409 . S
C1317 H1309 0.930 . S
C1317 C1315 1.419 . S
C1317 C1318 1.362 . S
C1318 H1310 0.930 . S
C1318 C1317 1.362 . S
C1318 C1321 1.409 . S
C1319 H1311 0.930 . S
C1319 C1320 1.355 . S
C1319 C1321 1.415 . S
C1320 C1319 1.355 . S
C1320 C1322 1.419 . S
C1321 C1316 1.425 . S
C1321 C1318 1.409 . S
C1321 C1319 1.415 . S
C1322 H1312 0.930 . S
C1322 C1320 1.419 . S
C1322 C1323 1.362 . S
C1323 H1313 0.930 . S
C1323 C1316 1.409 . S
C1323 C1322 1.362 . S
H1324 C1330 0.930 . S
H1325 C1333 0.930 . S
H1326 C1334 0.930 . S
H1327 C1335 0.930 . S
H1328 C1338 0.930 . S
H1329 C1339 0.930 . S
C1330 H1324 0.930 . S
C1330 C1331 1.355 . S
C1330 C1332 1.415 . S
C1331 C1330 1.355 . S
C1331 C1333 1.419 . S
C1332 C1330 1.415 . S
C1332 C1337 1.425 . S
C1332 C1339 1.409 . S
C1333 H1325 0.930 . S
C1333 C1331 1.419 . S
C1333 C1334 1.362 . S
C1334 H1326 0.930 . S
C1334 C1333 1.362 . S
C1334 C1337 1.409 . S
C1335 H1327 0.930 . S
C1335 C1336 1.355 . S
C1335 C1337 1.415 . S
C1336 C1335 1.355 . S
C1336 C1338 1.419 . S
C1337 C1332 1.425 . S
C1337 C1334 1.409 . S
C1337 C1335 1.415 . S
C1338 H1328 0.930 . S
C1338 C1336 1.419 . S
C1338 C1339 1.362 . S
C1339 H1329 0.930 . S
C1339 C1332 1.409 . S
C1339 C1338 1.362 . S
H1340 C1346 0.930 . S
H1341 C1349 0.930 . S
H1342 C1350 0.930 . S
H1343 C1351 0.930 . S
H1344 C1354 0.930 . S
H1345 C1355 0.930 . S
C1346 H1340 0.930 . S
C1346 C1347 1.355 . S
C1346 C1348 1.415 . S
C1347 C1346 1.355 . S
C1347 C1349 1.419 . S
C1348 C1346 1.415 . S
C1348 C1353 1.425 . S
C1348 C1355 1.409 . S
C1349 H1341 0.930 . S
C1349 C1347 1.419 . S
C1349 C1350 1.362 . S
C1350 H1342 0.930 . S
C1350 C1349 1.362 . S
C1350 C1353 1.409 . S
C1351 H1343 0.930 . S
C1351 C1352 1.355 . S
C1351 C1353 1.415 . S
C1352 C1351 1.355 . S
C1352 C1354 1.419 . S
C1353 C1348 1.425 . S
C1353 C1350 1.409 . S
C1353 C1351 1.415 . S
C1354 H1344 0.930 . S
C1354 C1352 1.419 . S
C1354 C1355 1.362 . S
C1355 H1345 0.930 . S
C1355 C1348 1.409 . S
C1355 C1354 1.362 . S
H1356 C1362 0.930 . S
H1357 C1365 0.930 . S
H1358 C1366 0.930 . S
H1359 C1367 0.930 . S
H1360 C1370 0.930 . S
H1361 C1371 0.930 . S
C1362 H1356 0.930 . S
C1362 C1363 1.355 . S
C1362 C1364 1.415 . S
C1363 C1362 1.355 . S
C1363 C1365 1.419 . S
C1364 C1362 1.415 . S
C1364 C1369 1.425 . S
C1364 C1371 1.409 . S
C1365 H1357 0.930 . S
C1365 C1363 1.419 . S
C1365 C1366 1.362 . S
C1366 H1358 0.930 . S
C1366 C1365 1.362 . S
C1366 C1369 1.409 . S
C1367 H1359 0.930 . S
C1367 C1368 1.355 . S
C1367 C1369 1.415 . S
C1368 C1367 1.355 . S
C1368 C1370 1.419 . S
C1369 C1364 1.425 . S
C1369 C1366 1.409 . S
C1369 C1367 1.415 . S
C1370 H1360 0.930 . S
C1370 C1368 1.419 . S
C1370 C1371 1.362 . S
C1371 H1361 0.930 . S
C1371 C1364 1.409 . S
C1371 C1370 1.362 . S
H1372 C1378 0.930 . S
H1373 C1381 0.930 . S
H1374 C1382 0.930 . S
H1375 C1383 0.930 . S
H1376 C1386 0.930 . S
H1377 C1387 0.930 . S
C1378 H1372 0.930 . S
C1378 C1379 1.355 . S
C1378 C1380 1.415 . S
C1379 C1378 1.355 . S
C1379 C1381 1.419 1_556 S
C1380 C1378 1.415 . S
C1380 C1385 1.425 . S
C1380 C1387 1.409 . S
C1381 H1373 0.930 . S
C1381 C1379 1.419 1_554 S
C1381 C1382 1.362 . S
C1382 H1374 0.930 . S
C1382 C1381 1.362 . S
C1382 C1385 1.409 1_554 S
C1383 H1375 0.930 . S
C1383 C1384 1.355 1_554 S
C1383 C1385 1.415 1_554 S
C1384 C1383 1.355 1_556 S
C1384 C1386 1.419 . S
C1385 C1380 1.425 . S
C1385 C1382 1.409 1_556 S
C1385 C1383 1.415 1_556 S
C1386 H1376 0.930 . S
C1386 C1384 1.419 . S
C1386 C1387 1.362 . S
C1387 H1377 0.930 . S
C1387 C1380 1.409 . S
C1387 C1386 1.362 . S
H1388 C1394 0.930 . S
H1389 C1397 0.930 . S
H1390 C1398 0.930 . S
H1391 C1399 0.930 . S
H1392 C1402 0.930 . S
H1393 C1403 0.930 . S
C1394 H1388 0.930 . S
C1394 C1395 1.355 . S
C1394 C1396 1.415 . S
C1395 C1394 1.355 . S
C1395 C1397 1.419 . S
C1396 C1394 1.415 . S
C1396 C1401 1.425 . S
C1396 C1403 1.409 . S
C1397 H1389 0.930 . S
C1397 C1395 1.419 . S
C1397 C1398 1.362 . S
C1398 H1390 0.930 . S
C1398 C1397 1.362 . S
C1398 C1401 1.409 . S
C1399 H1391 0.930 . S
C1399 C1400 1.355 . S
C1399 C1401 1.415 . S
C1400 C1399 1.355 . S
C1400 C1402 1.419 . S
C1401 C1396 1.425 . S
C1401 C1398 1.409 . S
C1401 C1399 1.415 . S
C1402 H1392 0.930 . S
C1402 C1400 1.419 . S
C1402 C1403 1.362 . S
C1403 H1393 0.930 . S
C1403 C1396 1.409 . S
C1403 C1402 1.362 . S
H1404 C1410 0.930 . S
H1405 C1413 0.930 . S
H1406 C1414 0.930 1_556 S
H1407 C1415 0.930 . S
H1408 C1418 0.930 . S
H1409 C1419 0.930 . S
C1410 H1404 0.930 . S
C1410 C1411 1.355 . S
C1410 C1412 1.415 . S
C1411 C1410 1.355 . S
C1411 C1413 1.419 . S
C1412 C1410 1.415 . S
C1412 C1417 1.425 . S
C1412 C1419 1.409 . S
C1413 H1405 0.930 . S
C1413 C1411 1.419 . S
C1413 C1414 1.362 . S
C1414 H1406 0.930 1_554 S
C1414 C1413 1.362 . S
C1414 C1417 1.409 . S
C1415 H1407 0.930 . S
C1415 C1416 1.355 . S
C1415 C1417 1.415 . S
C1416 C1415 1.355 . S
C1416 C1418 1.419 . S
C1417 C1412 1.425 . S
C1417 C1414 1.409 . S
C1417 C1415 1.415 . S
C1418 H1408 0.930 . S
C1418 C1416 1.419 . S
C1418 C1419 1.362 . S
C1419 H1409 0.930 . S
C1419 C1412 1.409 . S
C1419 C1418 1.362 . S
H1420 C1426 0.930 . S
H1421 C1429 0.930 1_556 S
H1422 C1430 0.927 . S
H1423 C1431 0.930 1_556 S
H1424 C1434 0.930 . S
H1425 C1435 0.930 . S
C1426 H1420 0.930 . S
C1426 C1427 1.355 . S
C1426 C1428 1.415 . S
C1427 C1426 1.355 . S
C1427 C1429 1.419 . S
C1428 C1426 1.415 . S
C1428 C1433 1.425 . S
C1428 C1435 1.409 . S
C1429 H1421 0.930 1_554 S
C1429 C1427 1.419 . S
C1429 C1430 1.363 1_554 S
C1430 H1422 0.927 . S
C1430 C1429 1.363 1_556 S
C1430 C1433 1.411 1_556 S
C1431 H1423 0.930 1_554 S
C1431 C1432 1.355 . S
C1431 C1433 1.415 . S
C1432 C1431 1.355 . S
C1432 C1434 1.419 . S
C1433 C1428 1.425 . S
C1433 C1430 1.411 1_554 S
C1433 C1431 1.415 . S
C1434 H1424 0.930 . S
C1434 C1432 1.419 . S
C1434 C1435 1.362 . S
C1435 H1425 0.930 . S
C1435 C1428 1.409 . S
C1435 C1434 1.362 . S
C680 C522 1.394 . S
C675 C177 1.373 . S
C696 C535 1.609 . S
C691 C209 1.573 . S
C707 C253 1.417 . S
C712 C548 1.419 . S
C728 C561 1.531 . S
C723 C157 1.470 . S
C744 C569 1.457 . S
C739 C343 1.493 . S
C760 C582 1.398 . S
C755 C401 1.425 . S
C771 C369 1.534 . S
C776 C595 1.487 . S
C792 C608 1.486 . S
C787 C317 1.508 . S
C803 C375 1.425 . S
C808 C626 1.450 . S
C824 C637 1.539 . S
C819 C305 1.549 . S
C835 C349 1.452 . S
C840 C621 1.473 . S
C856 C629 1.453 . S
C851 C413 1.446 . S
C867 C241 1.449 . S
C872 C652 1.466 . S
C883 C151 1.480 . S
C888 C642 1.480 . S
C899 C189 1.475 . S
C904 C647 1.486 . S
C915 C215 1.555 . S
C920 C650 1.496 . S
C931 C113 1.434 . S
C936 C559 1.390 . S
C947 C471 1.383 . S
C952 C551 1.425 . S
C968 C520 1.563 . S
C963 C509 1.521 . S
C984 C525 1.503 . S
C979 C279 1.500 . S
C995 C145 1.493 . S
C1000 C572 1.493 . S
C1016 C611 1.550 . S
C1011 C381 1.517 . S
C1032 C564 1.505 . S
C1027 C311 1.487 . S
C1048 C590 1.461 . S
C1043 C407 1.459 . S
C1064 C600 1.406 . S
C1059 C465 1.337 . S
C1075 C497 1.612 . S
C1080 C613 1.597 . S
C1091 C285 1.388 . S
C1096 C574 1.397 . S
C1112 C587 1.514 . S
C1107 C445 1.487 . S
C1123 C119 1.468 . S
C1128 C543 1.488 . S
C1144 C556 1.401 . S
C1139 C17 1.424 . S
C1160 C517 1.502 . S
C1155 C49 1.496 . S
C1176 C530 1.475 . S
C1171 C93 1.492 . S
C1187 C55 1.443 . S
C1192 C639 1.440 . S
C1203 C81 1.533 . S
C1208 C624 1.558 1_655 S
C1219 C125 1.440 . S
C1224 C634 1.484 . S
C1235 C29 1.441 1_556 S
C1240 C616 1.449 . S
C1256 C665 1.456 . S
C1251 C273 1.433 . S
C1272 C655 1.462 . S
C1267 C439 1.462 . S
C1288 C660 1.508 . S
C1283 C477 1.499 . S
C1299 C503 1.514 . S
C1304 C663 1.547 . S
C1315 C337 1.439 . S
C1320 C585 1.428 . S
C1336 C577 1.422 . S
C1331 C183 1.371 . S
C1352 C598 1.514 . S
C1347 C221 1.558 . S
C1368 C603 1.501 . S
C1363 C247 1.458 . S
C1379 C433 1.453 . S
C1384 C546 1.478 . S
C1400 C533 1.516 . S
C1395 C61 1.526 . S
C1411 C87 1.479 . S
C1416 C538 1.515 . S
C1432 C512 1.458 . S
C1427 C23 1.433 1_565 S
