# Generated by pormake.
# Topology nom, (4,4)-cn, num edge types: 1
# Building blocks:
#     Node 0, Type 0, BuildingBlock: MIFKUJ_clean_linker_1, # of connection points: 4
#     Node 1, Type 0, BuildingBlock: MIFKUJ_clean_linker_1, # of connection points: 4
#     Node 2, Type 0, BuildingBlock: MIFKUJ_clean_linker_1, # of connection points: 4
#     Node 3, Type 0, BuildingBlock: MIFKUJ_clean_linker_1, # of connection points: 4
#     Node 4, Type 0, BuildingBlock: MIFKUJ_clean_linker_1, # of connection points: 4
#     Node 5, Type 0, BuildingBlock: MIFKUJ_clean_linker_1, # of connection points: 4
#     Node 6, Type 1, BuildingBlock: TATPOV_clean_sbu_0, # of connection points: 4
#     Node 7, Type 1, BuildingBlock: TATPOV_clean_sbu_0, # of connection points: 4
#     Node 8, Type 1, BuildingBlock: TATPOV_clean_sbu_0, # of connection points: 4
#     Node 9, Type 1, BuildingBlock: TATPOV_clean_sbu_0, # of connection points: 4
#     Node 10, Type 1, BuildingBlock: TATPOV_clean_sbu_0, # of connection points: 4
#     Node 11, Type 1, BuildingBlock: TATPOV_clean_sbu_0, # of connection points: 4
#     Edge 12, Type (0, 1), BuildingBlock: CIFDUS_clean_linker_0, # of connection points: 2
#     Edge 13, Type (0, 1), BuildingBlock: CIFDUS_clean_linker_0, # of connection points: 2
#     Edge 14, Type (0, 1), BuildingBlock: CIFDUS_clean_linker_0, # of connection points: 2
#     Edge 15, Type (0, 1), BuildingBlock: CIFDUS_clean_linker_0, # of connection points: 2
#     Edge 16, Type (0, 1), BuildingBlock: CIFDUS_clean_linker_0, # of connection points: 2
#     Edge 17, Type (0, 1), BuildingBlock: CIFDUS_clean_linker_0, # of connection points: 2
#     Edge 18, Type (0, 1), BuildingBlock: CIFDUS_clean_linker_0, # of connection points: 2
#     Edge 19, Type (0, 1), BuildingBlock: CIFDUS_clean_linker_0, # of connection points: 2
#     Edge 20, Type (0, 1), BuildingBlock: CIFDUS_clean_linker_0, # of connection points: 2
#     Edge 21, Type (0, 1), BuildingBlock: CIFDUS_clean_linker_0, # of connection points: 2
#     Edge 22, Type (0, 1), BuildingBlock: CIFDUS_clean_linker_0, # of connection points: 2
#     Edge 23, Type (0, 1), BuildingBlock: CIFDUS_clean_linker_0, # of connection points: 2
#     Edge 24, Type (0, 1), BuildingBlock: CIFDUS_clean_linker_0, # of connection points: 2
#     Edge 25, Type (0, 1), BuildingBlock: CIFDUS_clean_linker_0, # of connection points: 2
#     Edge 26, Type (0, 1), BuildingBlock: CIFDUS_clean_linker_0, # of connection points: 2
#     Edge 27, Type (0, 1), BuildingBlock: CIFDUS_clean_linker_0, # of connection points: 2
#     Edge 28, Type (0, 1), BuildingBlock: CIFDUS_clean_linker_0, # of connection points: 2
#     Edge 29, Type (0, 1), BuildingBlock: CIFDUS_clean_linker_0, # of connection points: 2
#     Edge 30, Type (0, 1), BuildingBlock: CIFDUS_clean_linker_0, # of connection points: 2
#     Edge 31, Type (0, 1), BuildingBlock: CIFDUS_clean_linker_0, # of connection points: 2
#     Edge 32, Type (0, 1), BuildingBlock: CIFDUS_clean_linker_0, # of connection points: 2
#     Edge 33, Type (0, 1), BuildingBlock: CIFDUS_clean_linker_0, # of connection points: 2
#     Edge 34, Type (0, 1), BuildingBlock: CIFDUS_clean_linker_0, # of connection points: 2
#     Edge 35, Type (0, 1), BuildingBlock: CIFDUS_clean_linker_0, # of connection points: 2
# Relax obj value: 0.019
# Max RMSD: 0.115
# Mean RMSD: 0.104
data_MOF--net-nom--node1-TATPOV_clean_sbu_0--node2-MIFKUJ_clean_linker_1--edge1-CIFDUS_clean_linker_0
_symmetry_space_group_name_H-M    P1
_symmetry_Int_Tables_number       1
_symmetry_cell_setting            triclinic
loop_
_symmetry_equiv_pos_as_xyz
'x, y, z'
_cell_length_a     47.467132
_cell_length_b     48.050365
_cell_length_c     50.258222
_cell_angle_alpha  90.623037
_cell_angle_beta   90.682996
_cell_angle_gamma 120.04646
loop_
_atom_site_label
_atom_site_type_symbol
_atom_site_fract_x
_atom_site_fract_y
_atom_site_fract_z
_atom_type_partial_charge
H0 H 0.94446 0.39862 0.28364 0.0
H1 H 0.90355 0.39263 0.25041 0.0
H2 H 0.95069 0.49621 0.24541 0.0
H3 H 0.9896 0.50172 0.27993 0.0
H4 H 0.03346 0.47861 0.27863 0.0
H5 H 0.92663 0.39089 0.32834 0.0
H6 H 0.87285 0.38166 0.3412 0.0
H7 H 0.91818 0.47901 0.37279 0.0
H8 H 0.97075 0.48858 0.35814 0.0
H9 H 0.03993 0.51583 0.38391 0.0
H10 H 0.07851 0.54451 0.41996 0.0
H11 H 0.13718 0.50363 0.39478 0.0
H12 H 0.0988 0.47613 0.35747 0.0
H13 H 0.00281 0.45331 0.37286 0.0
H14 H 0.07792 0.54668 0.3359 0.0
H15 H 0.12658 0.59333 0.31987 0.0
H16 H 0.14407 0.53188 0.26755 0.0
H17 H 0.09537 0.48463 0.28447 0.0
C18 C 0.96958 0.45058 0.28466 0.0
C19 C 0.94545 0.41994 0.27571 0.0
C20 C 0.92238 0.41661 0.2564 0.0
C21 C 0.92347 0.44393 0.24528 0.0
C22 C 0.94835 0.47457 0.25392 0.0
C23 C 0.97096 0.47782 0.27347 0.0
C24 C 0.99378 0.45483 0.30557 0.0
C25 C 0.02688 0.47185 0.29913 0.0
C26 C 0.98507 0.44828 0.33254 0.0
C27 C 0.95246 0.4407 0.34157 0.0
C28 C 0.92471 0.41031 0.33757 0.0
C29 C 0.89411 0.40495 0.34531 0.0
C30 C 0.89106 0.4298 0.35755 0.0
C31 C 0.91934 0.45962 0.36264 0.0
C32 C 0.94954 0.46507 0.35452 0.0
C33 C 0.06625 0.49349 0.36823 0.0
C34 C 0.06096 0.5128 0.38626 0.0
C35 C 0.08307 0.52909 0.40703 0.0
C36 C 0.11079 0.52597 0.41077 0.0
C37 C 0.11622 0.50673 0.39251 0.0
C38 C 0.09422 0.4908 0.37129 0.0
C39 C 0.04255 0.47717 0.34597 0.0
C40 C 0.00962 0.45775 0.35214 0.0
C41 C 0.05126 0.48484 0.31911 0.0
C42 C 0.08341 0.51204 0.31188 0.0
C43 C 0.09276 0.54298 0.32168 0.0
C44 C 0.1203 0.56974 0.31215 0.0
C45 C 0.1389 0.56627 0.29225 0.0
C46 C 0.13025 0.53521 0.283 0.0
C47 C 0.1025 0.50827 0.29262 0.0
H48 H 0.43819 0.96483 0.47461 0.0
H49 H 0.39561 0.91184 0.48781 0.0
H50 H 0.46289 0.90594 0.54295 0.0
H51 H 0.50608 0.95874 0.52868 0.0
H52 H 0.50693 0.01454 0.53479 0.0
H53 H 0.47577 0.0122 0.42367 0.0
H54 H 0.44922 0.97213 0.38813 0.0
H55 H 0.48321 0.91279 0.42423 0.0
H56 H 0.51103 0.9538 0.45935 0.0
H57 H 0.59077 0.10149 0.45166 0.0
H58 H 0.61127 0.15678 0.43729 0.0
H59 H 0.53736 0.16164 0.48317 0.0
H60 H 0.51617 0.10614 0.49637 0.0
H61 H 0.53277 0.04997 0.44153 0.0
H62 H 0.59324 0.10076 0.52466 0.0
H63 H 0.60955 0.13641 0.56408 0.0
H64 H 0.50814 0.09742 0.5831 0.0
H65 H 0.49235 0.06124 0.54456 0.0
C66 C 0.47554 0.96565 0.50034 0.0
C67 C 0.4441 0.95186 0.48904 0.0
C68 C 0.4196 0.92168 0.4969 0.0
C69 C 0.42574 0.90475 0.51664 0.0
C70 C 0.45743 0.91821 0.52755 0.0
C71 C 0.48207 0.94846 0.51953 0.0
C72 C 0.50048 0.99911 0.4937 0.0
C73 C 0.51307 0.02217 0.5144 0.0
C74 C 0.50857 0.00917 0.46711 0.0
C75 C 0.49521 0.98595 0.44433 0.0
C76 C 0.47809 0.99089 0.42371 0.0
C77 C 0.46255 0.96774 0.40357 0.0
C78 C 0.46366 0.93904 0.40361 0.0
C79 C 0.48194 0.93466 0.42363 0.0
C80 C 0.49766 0.95797 0.4438 0.0
C81 C 0.55229 0.09977 0.4755 0.0
C82 C 0.57912 0.11456 0.45871 0.0
C83 C 0.5909 0.14624 0.45062 0.0
C84 C 0.57595 0.16371 0.45904 0.0
C85 C 0.54924 0.14884 0.47602 0.0
C86 C 0.53742 0.11721 0.48398 0.0
C87 C 0.53809 0.0654 0.48258 0.0
C88 C 0.52761 0.04219 0.46196 0.0
C89 C 0.53144 0.05514 0.50918 0.0
C90 C 0.54163 0.07818 0.53193 0.0
C91 C 0.57464 0.10005 0.53739 0.0
C92 C 0.58389 0.12048 0.55983 0.0
C93 C 0.56019 0.11947 0.57702 0.0
C94 C 0.52712 0.09823 0.57081 0.0
C95 C 0.51798 0.07763 0.54868 0.0
H96 H 0.52375 0.5692 0.70399 0.0
H97 H 0.49845 0.58095 0.74134 0.0
H98 H 0.4049 0.52855 0.7009 0.0
H99 H 0.4301 0.51607 0.66408 0.0
H100 H 0.50498 0.50595 0.69207 0.0
H101 H 0.50876 0.59599 0.64336 0.0
H102 H 0.47999 0.62383 0.62898 0.0
H103 H 0.40976 0.53832 0.58564 0.0
H104 H 0.43854 0.51056 0.60018 0.0
H105 H 0.48839 0.46619 0.57906 0.0
H106 H 0.51269 0.44605 0.54706 0.0
H107 H 0.59821 0.48172 0.59811 0.0
H108 H 0.57467 0.50332 0.62914 0.0
H109 H 0.50222 0.52229 0.59501 0.0
H110 H 0.4875 0.43139 0.63874 0.0
H111 H 0.49494 0.38973 0.65937 0.0
H112 H 0.56542 0.4603 0.71481 0.0
H113 H 0.55847 0.50222 0.69358 0.0
C114 C 0.47882 0.54183 0.68126 0.0
C115 C 0.49791 0.5609 0.70294 0.0
C116 C 0.48349 0.56776 0.72417 0.0
C117 C 0.44968 0.55541 0.7241 0.0
C118 C 0.43098 0.53808 0.70158 0.0
C119 C 0.44539 0.5312 0.68041 0.0
C120 C 0.4929 0.52941 0.6615 0.0
C121 C 0.50536 0.5103 0.67089 0.0
C122 C 0.49093 0.53312 0.63379 0.0
C123 C 0.47571 0.55118 0.62291 0.0
C124 C 0.48736 0.58337 0.63054 0.0
C125 C 0.47097 0.59926 0.62225 0.0
C126 C 0.44251 0.58317 0.60632 0.0
C127 C 0.43141 0.5512 0.59815 0.0
C128 C 0.44799 0.53543 0.60622 0.0
C129 C 0.52961 0.48623 0.60659 0.0
C130 C 0.51243 0.46978 0.58329 0.0
C131 C 0.52619 0.45788 0.56518 0.0
C132 C 0.55743 0.46223 0.57001 0.0
C133 C 0.57429 0.47825 0.59358 0.0
C134 C 0.56068 0.49036 0.61151 0.0
C135 C 0.51551 0.49957 0.62569 0.0
C136 C 0.50274 0.51856 0.61621 0.0
C137 C 0.51567 0.49449 0.65338 0.0
C138 C 0.52264 0.47 0.66444 0.0
C139 C 0.50505 0.43806 0.65498 0.0
C140 C 0.50902 0.41419 0.66702 0.0
C141 C 0.53055 0.4217 0.68888 0.0
C142 C 0.5488 0.45383 0.69792 0.0
C143 C 0.54475 0.47775 0.68588 0.0
H144 H 0.03071 0.56543 0.75725 0.0
H145 H 0.07475 0.58753 0.72532 0.0
H146 H 0.11412 0.53196 0.75995 0.0
H147 H 0.06939 0.50937 0.79164 0.0
H148 H 0.98318 0.49904 0.76737 0.0
H149 H 0.08249 0.58918 0.81155 0.0
H150 H 0.1389 0.60874 0.82669 0.0
H151 H 0.10488 0.52864 0.87985 0.0
H152 H 0.04958 0.50816 0.86356 0.0
H153 H 0.96415 0.46679 0.87798 0.0
H154 H 0.9249 0.45276 0.91359 0.0
H155 H 0.87913 0.4978 0.87112 0.0
H156 H 0.91861 0.51183 0.83541 0.0
H157 H 0.00777 0.52645 0.86341 0.0
H158 H 0.92296 0.43303 0.82621 0.0
H159 H 0.86785 0.39411 0.81201 0.0
H160 H 0.87376 0.45677 0.74847 0.0
H161 H 0.92816 0.49701 0.76444 0.0
C162 C 0.04697 0.53604 0.77695 0.0
C163 C 0.0487 0.55784 0.75785 0.0
C164 C 0.07408 0.57069 0.7398 0.0
C165 C 0.09822 0.56186 0.74036 0.0
C166 C 0.09591 0.53923 0.75902 0.0
C167 C 0.07047 0.5264 0.77716 0.0
C168 C 0.02103 0.52436 0.79703 0.0
C169 C 0.98844 0.50536 0.78834 0.0
C170 C 0.02816 0.53131 0.82456 0.0
C171 C 0.06184 0.54663 0.83582 0.0
C172 C 0.08728 0.57584 0.82641 0.0
C173 C 0.11941 0.58724 0.83531 0.0
C174 C 0.12631 0.56983 0.85403 0.0
C175 C 0.10042 0.54215 0.86491 0.0
C176 C 0.06869 0.53055 0.85575 0.0
C177 C 0.94433 0.49042 0.85411 0.0
C178 C 0.94546 0.47336 0.87621 0.0
C179 C 0.92288 0.46513 0.89643 0.0
C180 C 0.89898 0.4742 0.89511 0.0
C181 C 0.89741 0.49066 0.87268 0.0
C182 C 0.91982 0.49856 0.85226 0.0
C183 C 0.96997 0.50118 0.83382 0.0
C184 C 0.00241 0.52039 0.84239 0.0
C185 C 0.96284 0.49263 0.80653 0.0
C186 C 0.92949 0.46849 0.79695 0.0
C187 C 0.91218 0.4388 0.8096 0.0
C188 C 0.88074 0.41614 0.80103 0.0
C189 C 0.86607 0.4221 0.77901 0.0
C190 C 0.88387 0.45149 0.76582 0.0
C191 C 0.91518 0.47447 0.77477 0.0
H192 H 0.60659 0.06392 0.02806 0.0
H193 H 0.6326 0.11889 0.04633 0.0
H194 H 0.55108 0.12757 0.01795 0.0
H195 H 0.52491 0.07237 0.00038 0.0
H196 H 0.54455 0.01076 0.03989 0.0
H197 H 0.5982 0.07968 0.9635 0.0
H198 H 0.60576 0.12376 0.93485 0.0
H199 H 0.50396 0.06978 0.91161 0.0
H200 H 0.4963 0.02682 0.94111 0.0
H201 H 0.46031 0.93801 0.95114 0.0
H202 H 0.4287 0.88151 0.93688 0.0
H203 H 0.49956 0.86316 0.97527 0.0
H204 H 0.53138 0.91981 0.98904 0.0
H205 H 0.51918 0.9871 0.94342 0.0
H206 H 0.45845 0.92801 0.01424 0.0
H207 H 0.43362 0.88755 0.04821 0.0
H208 H 0.52797 0.9225 0.08604 0.0
H209 H 0.55308 0.96187 0.05081 0.0
C210 C 0.56404 0.06423 0.01258 0.0
C211 C 0.59432 0.07767 0.02589 0.0
C212 C 0.60923 0.10914 0.03615 0.0
C213 C 0.59398 0.12768 0.03348 0.0
C214 C 0.56335 0.11388 0.02054 0.0
C215 C 0.54849 0.08244 0.01028 0.0
C216 C 0.54867 0.03109 0.00124 0.0
C217 C 0.53978 0.00557 0.01872 0.0
C218 C 0.54067 0.02437 0.97379 0.0
C219 C 0.54657 0.05008 0.95473 0.0
C220 C 0.57751 0.07747 0.9523 0.0
C221 C 0.58185 0.10256 0.93578 0.0
C222 C 0.55537 0.10054 0.92121 0.0
C223 C 0.52473 0.07255 0.92304 0.0
C224 C 0.52038 0.0477 0.93963 0.0
C225 C 0.49812 0.93313 0.97131 0.0
C226 C 0.46932 0.92194 0.95611 0.0
C227 C 0.45111 0.88957 0.9482 0.0
C228 C 0.4615 0.86781 0.95511 0.0
C229 C 0.491 0.87934 0.96947 0.0
C230 C 0.50911 0.91167 0.97749 0.0
C231 C 0.51559 0.9667 0.98204 0.0
C232 C 0.52481 0.99226 0.96451 0.0
C233 C 0.52227 0.97344 0.00964 0.0
C234 C 0.50775 0.94771 0.02967 0.0
C235 C 0.474 0.92645 0.02939 0.0
C236 C 0.45972 0.90358 0.0491 0.0
C237 C 0.47874 0.90192 0.07002 0.0
C238 C 0.51265 0.92287 0.07007 0.0
C239 C 0.52701 0.94558 0.05009 0.0
H240 H 0.49439 0.45967 0.21478 0.0
H241 H 0.52127 0.44673 0.25057 0.0
H242 H 0.61465 0.51003 0.21628 0.0
H243 H 0.58795 0.52385 0.18143 0.0
H244 H 0.50491 0.52066 0.20773 0.0
H245 H 0.51702 0.4421 0.14836 0.0
H246 H 0.55081 0.42253 0.12814 0.0
H247 H 0.61832 0.51925 0.10324 0.0
H248 H 0.5836 0.53782 0.122 0.0
H249 H 0.52889 0.57383 0.10144 0.0
H250 H 0.50528 0.59288 0.06788 0.0
H251 H 0.41206 0.54132 0.10588 0.0
H252 H 0.43547 0.52105 0.13861 0.0
H253 H 0.51726 0.51649 0.11019 0.0
H254 H 0.51099 0.59611 0.15926 0.0
H255 H 0.48713 0.62643 0.17739 0.0
H256 H 0.4275 0.54719 0.22863 0.0
H257 H 0.44925 0.51577 0.20832 0.0
C258 C 0.53912 0.49253 0.19529 0.0
C259 C 0.52062 0.47032 0.21478 0.0
C260 C 0.53595 0.46276 0.23509 0.0
C261 C 0.57006 0.47753 0.23631 0.0
C262 C 0.58834 0.49853 0.21601 0.0
C263 C 0.57306 0.50616 0.19586 0.0
C264 C 0.52346 0.50412 0.17615 0.0
C265 C 0.50675 0.51902 0.18633 0.0
C266 C 0.52777 0.50379 0.1484 0.0
C267 C 0.54778 0.49134 0.1365 0.0
C268 C 0.53901 0.45888 0.13831 0.0
C269 C 0.55849 0.44782 0.12688 0.0
C270 C 0.58728 0.46917 0.11375 0.0
C271 C 0.59593 0.50176 0.11238 0.0
C272 C 0.57623 0.51258 0.12332 0.0
C273 C 0.48395 0.54588 0.12249 0.0
C274 C 0.50337 0.56665 0.10255 0.0
C275 C 0.48993 0.57791 0.08359 0.0
C276 C 0.45676 0.56862 0.08417 0.0
C277 C 0.43761 0.54864 0.10469 0.0
C278 C 0.45101 0.5372 0.12353 0.0
C279 C 0.49795 0.53253 0.14165 0.0
C280 C 0.5145 0.51747 0.13152 0.0
C281 C 0.49476 0.5341 0.16955 0.0
C282 C 0.48128 0.55321 0.18178 0.0
C283 C 0.49225 0.58494 0.17398 0.0
C284 C 0.47899 0.6026 0.18486 0.0
C285 C 0.45519 0.58941 0.20457 0.0
C286 C 0.44517 0.55801 0.21309 0.0
C287 C 0.4579 0.54006 0.2017 0.0
Zn288 Zn 0.6935 0.46747 0.40577 0.0
Zn289 Zn 0.66197 0.40506 0.40713 0.0
O290 O 0.71 0.41795 0.39933 0.0
O291 O 0.73574 0.47069 0.39742 0.0
O292 O 0.6418 0.35716 0.41203 0.0
O293 O 0.68283 0.47284 0.44298 0.0
O294 O 0.65159 0.42021 0.44289 0.0
C295 C 0.73602 0.44459 0.39549 0.0
C296 C 0.64306 0.43761 0.36492 0.0
O297 O 0.63859 0.41124 0.37454 0.0
O298 O 0.66422 0.46416 0.37541 0.0
C299 C 0.61152 0.33782 0.41457 0.0
O300 O 0.59122 0.34884 0.41289 0.0
C301 C 0.66229 0.44757 0.45441 0.0
Zn302 Zn 0.22723 0.68577 0.57525 0.0
Zn303 Zn 0.26245 0.65729 0.57967 0.0
O304 O 0.29606 0.70497 0.57107 0.0
O305 O 0.26588 0.72721 0.56444 0.0
O306 O 0.28975 0.63592 0.58513 0.0
O307 O 0.21474 0.6785 0.61349 0.0
O308 O 0.23767 0.64849 0.61548 0.0
C309 C 0.29357 0.72938 0.56492 0.0
C310 C 0.20665 0.63177 0.53892 0.0
O311 O 0.23177 0.63169 0.54805 0.0
O312 O 0.19884 0.65163 0.54796 0.0
C313 C 0.31926 0.64796 0.57823 0.0
O314 O 0.33361 0.67586 0.56646 0.0
C315 C 0.22081 0.65944 0.62615 0.0
Zn316 Zn 0.55033 0.22836 0.76098 0.0
Zn317 Zn 0.61489 0.26205 0.75466 0.0
O318 O 0.59881 0.29462 0.75114 0.0
O319 O 0.54557 0.26707 0.75423 0.0
O320 O 0.66386 0.29047 0.75308 0.0
O321 O 0.55618 0.21634 0.79799 0.0
O322 O 0.60859 0.23875 0.79041 0.0
C323 C 0.57142 0.2935 0.7506 0.0
C324 C 0.57402 0.20702 0.71626 0.0
O325 O 0.60172 0.2311 0.7225 0.0
O326 O 0.54926 0.20057 0.72991 0.0
C327 C 0.67686 0.31669 0.74045 0.0
O328 O 0.65822 0.32452 0.72672 0.0
C329 C 0.58434 0.22235 0.80526 0.0
Zn330 Zn 0.33777 0.55347 0.90163 0.0
Zn331 Zn 0.36546 0.61545 0.90553 0.0
O332 O 0.31715 0.6023 0.89684 0.0
O333 O 0.2952 0.54979 0.89341 0.0
O334 O 0.38956 0.66395 0.90998 0.0
O335 O 0.34865 0.54808 0.93864 0.0
O336 O 0.37438 0.60086 0.94223 0.0
C337 C 0.29238 0.57454 0.89224 0.0
C338 C 0.38487 0.58295 0.862 0.0
O339 O 0.38792 0.6084 0.873 0.0
O340 O 0.36538 0.55573 0.87135 0.0
C341 C 0.377 0.67973 0.91967 0.0
O342 O 0.34643 0.6642 0.92684 0.0
C343 C 0.36562 0.57349 0.95231 0.0
Zn344 Zn 0.78799 0.44637 0.07931 0.0
Zn345 Zn 0.75627 0.38153 0.07462 0.0
O346 O 0.7197 0.39201 0.08248 0.0
O347 O 0.74513 0.445 0.08218 0.0
O348 O 0.7329 0.33329 0.06832 0.0
O349 O 0.80722 0.45064 0.04301 0.0
O350 O 0.78013 0.39784 0.03912 0.0
C351 C 0.71915 0.41823 0.08406 0.0
C352 C 0.80668 0.41514 0.11946 0.0
O353 O 0.78713 0.38954 0.10648 0.0
O354 O 0.81056 0.44208 0.11238 0.0
C355 C 0.70375 0.3137 0.07477 0.0
O356 O 0.68698 0.32457 0.08731 0.0
C357 C 0.79932 0.42531 0.0295 0.0
Zn358 Zn 0.33909 0.78592 0.2419 0.0
Zn359 Zn 0.37892 0.76125 0.24105 0.0
O360 O 0.33228 0.72262 0.24516 0.0
O361 O 0.29934 0.74235 0.24495 0.0
O362 O 0.40622 0.73977 0.23838 0.0
O363 O 0.35504 0.80528 0.20606 0.0
O364 O 0.38853 0.78609 0.20594 0.0
C365 C 0.30362 0.71845 0.24641 0.0
C366 C 0.38749 0.80924 0.28493 0.0
O367 O 0.39692 0.79132 0.27399 0.0
O368 O 0.36346 0.81058 0.27518 0.0
C369 C 0.39715 0.71266 0.24888 0.0
O370 O 0.37075 0.69938 0.26316 0.0
C371 C 0.37714 0.80224 0.19487 0.0
H372 H 0.20024 0.57815 0.28142 0.0
H373 H 0.13798 0.61949 0.2761 0.0
H374 H 0.18293 0.66933 0.25973 0.0
H375 H 0.24032 0.70226 0.24957 0.0
H376 H 0.30362 0.66206 0.255 0.0
H377 H 0.25776 0.61056 0.26822 0.0
C378 C 0.19651 0.59797 0.27636 0.0
C379 C 0.16599 0.59533 0.28036 0.0
C380 C 0.22261 0.62677 0.26703 0.0
C381 C 0.16144 0.62119 0.27374 0.0
C382 C 0.18707 0.64964 0.26425 0.0
C383 C 0.24415 0.68221 0.25341 0.0
C384 C 0.27549 0.6862 0.25155 0.0
C385 C 0.21786 0.65289 0.26128 0.0
C386 C 0.27982 0.65979 0.25643 0.0
C387 C 0.2536 0.63031 0.26405 0.0
H388 H 0.53974 0.19086 0.4442 0.0
H389 H 0.63908 0.21193 0.45345 0.0
H390 H 0.65869 0.26698 0.43929 0.0
H391 H 0.64775 0.30966 0.42571 0.0
H392 H 0.54842 0.28913 0.41801 0.0
H393 H 0.52877 0.23346 0.43042 0.0
C394 C 0.5657 0.20754 0.44337 0.0
C395 C 0.58786 0.19717 0.45 0.0
C396 C 0.57684 0.23932 0.43553 0.0
C397 C 0.62142 0.21905 0.44822 0.0
C398 C 0.63268 0.25063 0.44027 0.0
C399 C 0.62178 0.293 0.42661 0.0
C400 C 0.59962 0.30366 0.42095 0.0
C401 C 0.61062 0.26108 0.43402 0.0
C402 C 0.56606 0.28168 0.4223 0.0
C403 C 0.55478 0.24981 0.42942 0.0
H404 H 0.37724 0.55916 0.60918 0.0
H405 H 0.46626 0.64373 0.58722 0.0
H406 H 0.43594 0.67099 0.57612 0.0
H407 H 0.38425 0.671 0.57319 0.0
H408 H 0.29533 0.58681 0.59622 0.0
H409 H 0.32546 0.55914 0.60616 0.0
C410 C 0.38993 0.58345 0.6017 0.0
C411 C 0.42393 0.59938 0.59894 0.0
C412 C 0.37237 0.59905 0.5956 0.0
C413 C 0.44013 0.63104 0.58968 0.0
C414 C 0.4228 0.64659 0.58326 0.0
C415 C 0.3714 0.64655 0.58029 0.0
C416 C 0.33753 0.63103 0.5839 0.0
C417 C 0.38893 0.63088 0.58624 0.0
C418 C 0.32137 0.59939 0.59328 0.0
C419 C 0.33859 0.58352 0.59897 0.0
H420 H 0.81897 0.43327 0.75867 0.0
H421 H 0.83649 0.35616 0.77958 0.0
H422 H 0.77981 0.31688 0.76934 0.0
H423 H 0.72457 0.30435 0.75606 0.0
H424 H 0.70818 0.38115 0.7321 0.0
H425 H 0.76534 0.42042 0.74118 0.0
C426 C 0.81073 0.40789 0.7605 0.0
C427 C 0.83214 0.39796 0.77035 0.0
C428 C 0.7782 0.38524 0.75397 0.0
C429 C 0.82054 0.36479 0.77281 0.0
C430 C 0.78811 0.34217 0.76674 0.0
C431 C 0.73359 0.32966 0.75265 0.0
C432 C 0.71211 0.33982 0.74363 0.0
C433 C 0.7666 0.35214 0.75767 0.0
C434 C 0.7242 0.37266 0.73901 0.0
C435 C 0.75688 0.39518 0.74431 0.0
H436 H 0.48114 0.82728 0.93539 0.0
H437 H 0.39575 0.83004 0.95988 0.0
H438 H 0.36201 0.77245 0.95045 0.0
H439 H 0.35691 0.72095 0.93652 0.0
H440 H 0.44232 0.71809 0.91204 0.0
H441 H 0.4758 0.77592 0.92034 0.0
C442 C 0.45516 0.81523 0.93873 0.0
C443 C 0.44102 0.83297 0.94833 0.0
C444 C 0.43587 0.78204 0.93335 0.0
C445 C 0.40723 0.81707 0.95221 0.0
C446 C 0.38792 0.78408 0.94698 0.0
C447 C 0.38283 0.73295 0.93294 0.0
C448 C 0.39703 0.71508 0.92378 0.0
C449 C 0.402 0.76628 0.9377 0.0
C450 C 0.43068 0.73116 0.91911 0.0
C451 C 0.4499 0.76427 0.92388 0.0
H452 H 0.60019 0.42286 0.13205 0.0
H453 H 0.62286 0.49024 0.0684 0.0
H454 H 0.66445 0.47897 0.05283 0.0
H455 H 0.69788 0.45387 0.05962 0.0
H456 H 0.6729 0.38314 0.12035 0.0
H457 H 0.62794 0.39107 0.13422 0.0
C458 C 0.6136 0.43457 0.1144 0.0
C459 C 0.60893 0.45822 0.10203 0.0
C460 C 0.6371 0.42738 0.10501 0.0
C461 C 0.6267 0.47294 0.07909 0.0
C462 C 0.65036 0.46631 0.06995 0.0
C463 C 0.68217 0.43981 0.07559 0.0
C464 C 0.6887 0.41825 0.08918 0.0
C465 C 0.65638 0.44428 0.08319 0.0
C466 C 0.66814 0.39984 0.10962 0.0
C467 C 0.64264 0.40455 0.11764 0.0
H468 H 0.42601 0.84934 0.52899 0.0
H469 H 0.36433 0.89159 0.52753 0.0
H470 H 0.31871 0.84153 0.54265 0.0
H471 H 0.29584 0.78579 0.55544 0.0
H472 H 0.35651 0.7425 0.5579 0.0
H473 H 0.4031 0.79309 0.54367 0.0
C474 C 0.40265 0.84763 0.5322 0.0
C475 C 0.39856 0.87413 0.52673 0.0
C476 C 0.37634 0.81864 0.54112 0.0
C477 C 0.36805 0.87142 0.53093 0.0
C478 C 0.34195 0.84285 0.53978 0.0
C479 C 0.31923 0.78729 0.55295 0.0
C480 C 0.32254 0.76023 0.55761 0.0
C481 C 0.34574 0.81627 0.54472 0.0
C482 C 0.35319 0.76289 0.55443 0.0
C483 C 0.37984 0.79182 0.54624 0.0
H484 H 0.58553 0.42217 0.70615 0.0
H485 H 0.48084 0.36308 0.7027 0.0
H486 H 0.48424 0.31916 0.72338 0.0
H487 H 0.51681 0.29657 0.74029 0.0
H488 H 0.62163 0.35485 0.74321 0.0
H489 H 0.61824 0.40024 0.72544 0.0
C490 C 0.56348 0.3998 0.71022 0.0
C491 C 0.53301 0.39578 0.70262 0.0
C492 C 0.5656 0.37452 0.72207 0.0
C493 C 0.50463 0.36657 0.70787 0.0
C494 C 0.50653 0.34151 0.71985 0.0
C495 C 0.53896 0.31929 0.73737 0.0
C496 C 0.56943 0.32218 0.74296 0.0
C497 C 0.53688 0.34506 0.7267 0.0
C498 C 0.59783 0.35186 0.73898 0.0
C499 C 0.59593 0.37783 0.72874 0.0
H500 H 0.14869 0.52866 0.85547 0.0
H501 H 0.17996 0.62916 0.86633 0.0
H502 H 0.23494 0.64026 0.87895 0.0
H503 H 0.27347 0.62023 0.8883 0.0
H504 H 0.23863 0.51849 0.87812 0.0
H505 H 0.18563 0.50912 0.86441 0.0
C506 C 0.1674 0.553 0.86091 0.0
C507 C 0.16017 0.57793 0.86049 0.0
C508 C 0.19833 0.55895 0.86845 0.0
C509 C 0.18497 0.60952 0.86663 0.0
C510 C 0.2163 0.6158 0.87396 0.0
C511 C 0.25422 0.59607 0.88313 0.0
C512 C 0.2602 0.57017 0.88442 0.0
C513 C 0.22319 0.59056 0.87521 0.0
C514 C 0.23495 0.53898 0.87753 0.0
C515 C 0.20448 0.53347 0.86956 0.0
H516 H 0.65777 0.17378 0.02985 0.0
H517 H 0.56624 0.15731 0.0605 0.0
H518 H 0.5922 0.21307 0.0765 0.0
H519 H 0.64069 0.26676 0.08112 0.0
H520 H 0.73221 0.28316 0.05035 0.0
H521 H 0.70654 0.22708 0.03548 0.0
C522 C 0.64358 0.18228 0.04032 0.0
C523 C 0.61009 0.16137 0.04391 0.0
C524 C 0.65866 0.21437 0.04948 0.0
C525 C 0.59196 0.17297 0.05715 0.0
C526 C 0.60683 0.20482 0.06643 0.0
C527 C 0.65509 0.25807 0.07129 0.0
C528 C 0.68835 0.27924 0.06686 0.0
C529 C 0.64013 0.22579 0.06258 0.0
C530 C 0.70657 0.26748 0.05402 0.0
C531 C 0.69191 0.23538 0.04546 0.0
H532 H 0.48427 0.65457 0.2133 0.0
H533 H 0.39236 0.56635 0.22067 0.0
H534 H 0.36762 0.59658 0.23748 0.0
H535 H 0.37085 0.64811 0.24756 0.0
H536 H 0.46064 0.73665 0.23535 0.0
H537 H 0.48721 0.70622 0.22237 0.0
C538 C 0.45872 0.64184 0.21822 0.0
C539 C 0.4404 0.60803 0.21564 0.0
C540 C 0.44415 0.65948 0.22689 0.0
C541 C 0.40745 0.59219 0.22286 0.0
C542 C 0.39309 0.60951 0.23226 0.0
C543 C 0.39634 0.66074 0.24233 0.0
C544 C 0.41385 0.69454 0.24255 0.0
C545 C 0.4111 0.64315 0.2341 0.0
C546 C 0.44669 0.71061 0.23531 0.0
C547 C 0.46185 0.69324 0.22789 0.0
H548 H 0.87128 0.47329 0.35202 0.0
H549 H 0.838 0.37671 0.37828 0.0
H550 H 0.7863 0.372 0.39164 0.0
H551 H 0.75154 0.39667 0.39759 0.0
H552 H 0.78839 0.49491 0.37375 0.0
H553 H 0.83805 0.49782 0.35851 0.0
C554 C 0.85299 0.45129 0.36103 0.0
C555 C 0.85879 0.42559 0.36447 0.0
C556 C 0.824 0.44916 0.36937 0.0
C557 C 0.83419 0.39688 0.37528 0.0
C558 C 0.80472 0.39427 0.38313 0.0
C559 C 0.77049 0.41867 0.3891 0.0
C560 C 0.76623 0.44556 0.38699 0.0
C561 C 0.7995 0.42044 0.38055 0.0
C562 C 0.79103 0.47392 0.3759 0.0
C563 C 0.81947 0.47562 0.36702 0.0
H564 H 0.09552 0.53593 0.46059 0.0
H565 H 0.17775 0.55443 0.4126 0.0
H566 H 0.21488 0.58598 0.44923 0.0
H567 H 0.22407 0.61231 0.49384 0.0
H568 H 0.14119 0.59836 0.53862 0.0
H569 H 0.10429 0.56163 0.50416 0.0
C570 C 0.12156 0.54711 0.45788 0.0
C571 C 0.13367 0.54306 0.4336 0.0
C572 C 0.14273 0.56631 0.4785 0.0
C573 C 0.16756 0.55687 0.43104 0.0
C574 C 0.18888 0.5752 0.45194 0.0
C575 C 0.19792 0.60086 0.49604 0.0
C576 C 0.18524 0.6079 0.51863 0.0
C577 C 0.17676 0.5806 0.4756 0.0
C578 C 0.15139 0.59334 0.52128 0.0
C579 C 0.13032 0.57235 0.50162 0.0
H580 H 0.53215 0.10237 0.62525 0.0
H581 H 0.60954 0.18212 0.58449 0.0
H582 H 0.62268 0.21567 0.62482 0.0
H583 H 0.60969 0.22323 0.67099 0.0
H584 H 0.52915 0.14402 0.70959 0.0
H585 H 0.51944 0.10956 0.67062 0.0
C586 C 0.55168 0.1272 0.62499 0.0
C587 C 0.56953 0.13975 0.60171 0.0
C588 C 0.55845 0.14653 0.64789 0.0
C589 C 0.59546 0.17172 0.60214 0.0
C590 C 0.60286 0.191 0.62516 0.0
C591 C 0.59024 0.19834 0.67088 0.0
C592 C 0.57011 0.18619 0.69307 0.0
C593 C 0.58422 0.17878 0.64806 0.0
C594 C 0.54482 0.15399 0.69266 0.0
C595 C 0.53926 0.13425 0.67041 0.0
H596 H 0.46693 0.60711 0.75761 0.0
H597 H 0.39651 0.50631 0.74606 0.0
H598 H 0.371 0.50625 0.78773 0.0
H599 H 0.36905 0.53393 0.82756 0.0
H600 H 0.43774 0.63493 0.84007 0.0
H601 H 0.46387 0.63575 0.79796 0.0
C602 C 0.44595 0.58523 0.76426 0.0
C603 C 0.43345 0.55683 0.74865 0.0
C604 C 0.43132 0.5853 0.78843 0.0
C605 C 0.4062 0.52864 0.75741 0.0
C606 C 0.39176 0.52847 0.78137 0.0
C607 C 0.38989 0.55618 0.82126 0.0
C608 C 0.40168 0.58426 0.83706 0.0
C609 C 0.40423 0.55655 0.79705 0.0
C610 C 0.42832 0.61295 0.82829 0.0
C611 C 0.4432 0.61342 0.80423 0.0
H612 H 0.86463 0.41892 0.92261 0.0
H613 H 0.8858 0.5172 0.91928 0.0
H614 H 0.85548 0.51025 0.95995 0.0
H615 H 0.82619 0.47746 0.99799 0.0
H616 H 0.80405 0.37885 0.0013 0.0
H617 H 0.83148 0.38468 0.9591 0.0
C618 C 0.86238 0.4387 0.93075 0.0
C619 C 0.87753 0.46856 0.91806 0.0
C620 C 0.84496 0.43455 0.95419 0.0
C621 C 0.87413 0.49391 0.92857 0.0
C622 C 0.857 0.49003 0.95193 0.0
C623 C 0.82722 0.45718 0.98943 0.0
C624 C 0.81344 0.42788 0.00292 0.0
C625 C 0.84283 0.46065 0.96514 0.0
C626 C 0.81454 0.40169 0.99135 0.0
C627 C 0.8303 0.40503 0.96726 0.0
H628 H 0.42267 0.88904 0.09384 0.0
H629 H 0.49939 0.86572 0.0971 0.0
H630 H 0.47405 0.83157 0.13541 0.0
H631 H 0.43077 0.80971 0.16883 0.0
H632 H 0.35419 0.83334 0.16444 0.0
H633 H 0.37845 0.86529 0.12526 0.0
C634 C 0.4336 0.87603 0.10254 0.0
C635 C 0.46286 0.8799 0.09251 0.0
C636 C 0.41888 0.85641 0.12437 0.0
C637 C 0.47704 0.86345 0.10457 0.0
C638 C 0.46247 0.84379 0.12639 0.0
C639 C 0.41922 0.82159 0.15914 0.0
C640 C 0.39075 0.81919 0.16971 0.0
C641 C 0.43348 0.84029 0.1366 0.0
C642 C 0.37617 0.83483 0.15689 0.0
C643 C 0.39005 0.85319 0.13446 0.0
H644 H 0.55611 0.42251 0.26287 0.0
H645 H 0.62134 0.52528 0.26349 0.0
H646 H 0.64911 0.52152 0.30301 0.0
H647 H 0.65487 0.48992 0.33736 0.0
H648 H 0.59098 0.38705 0.33825 0.0
H649 H 0.56246 0.39002 0.29821 0.0
C650 C 0.57639 0.444 0.27174 0.0
C651 C 0.58687 0.4741 0.26005 0.0
C652 C 0.59235 0.44172 0.29471 0.0
C653 C 0.61322 0.50176 0.2717 0.0
C654 C 0.62897 0.4997 0.29444 0.0
C655 C 0.63464 0.468 0.32897 0.0
C656 C 0.62499 0.4383 0.34091 0.0
C657 C 0.61874 0.46989 0.30608 0.0
C658 C 0.59888 0.41024 0.32949 0.0
C659 C 0.5826 0.41195 0.30661 0.0
H660 H 0.48233 0.90169 0.37599 0.0
H661 H 0.40184 0.91855 0.38607 0.0
H662 H 0.37096 0.87898 0.35113 0.0
H663 H 0.36747 0.84144 0.31665 0.0
H664 H 0.44698 0.82328 0.30606 0.0
H665 H 0.47732 0.86103 0.3427 0.0
C666 C 0.4579 0.89641 0.37072 0.0
C667 C 0.44464 0.91346 0.38334 0.0
C668 C 0.4401 0.87342 0.35058 0.0
C669 C 0.41295 0.90638 0.37624 0.0
C670 C 0.39516 0.88359 0.35638 0.0
C671 C 0.39139 0.84557 0.32236 0.0
C672 C 0.40504 0.82978 0.30845 0.0
C673 C 0.40866 0.86733 0.3432 0.0
C674 C 0.43591 0.83517 0.3164 0.0
C675 C 0.45332 0.85684 0.33728 0.0
H676 H 0.62044 0.49477 0.55507 0.0
H677 H 0.5299 0.40683 0.53923 0.0
H678 H 0.55535 0.39257 0.5036 0.0
H679 H 0.60252 0.4073 0.47478 0.0
H680 H 0.69225 0.49601 0.4909 0.0
H681 H 0.6682 0.50714 0.52918 0.0
C682 C 0.60637 0.4721 0.54428 0.0
C683 C 0.57326 0.45199 0.54981 0.0
C684 C 0.62109 0.46413 0.52387 0.0
C685 C 0.55532 0.42303 0.53514 0.0
C686 C 0.56991 0.41476 0.51486 0.0
C687 C 0.61695 0.42869 0.48704 0.0
C688 C 0.64905 0.45087 0.47995 0.0
C689 C 0.60266 0.43542 0.50873 0.0
C690 C 0.66741 0.47867 0.49584 0.0
C691 C 0.65366 0.48513 0.51769 0.0
H692 H 0.13362 0.62449 0.72681 0.0
H693 H 0.12418 0.53172 0.7113 0.0
H694 H 0.16529 0.55488 0.67683 0.0
H695 H 0.19944 0.60044 0.64773 0.0
H696 H 0.20578 0.6921 0.66214 0.0
H697 H 0.17066 0.67057 0.70043 0.0
C698 C 0.14058 0.60932 0.71591 0.0
C699 C 0.12549 0.57634 0.72134 0.0
C700 C 0.16372 0.62266 0.69585 0.0
C701 C 0.13541 0.5572 0.70752 0.0
C702 C 0.15881 0.5704 0.68771 0.0
C703 C 0.19373 0.61584 0.65967 0.0
C704 C 0.20509 0.64778 0.65208 0.0
C705 C 0.17259 0.60297 0.68126 0.0
C706 C 0.1972 0.66739 0.66753 0.0
C707 C 0.17701 0.65507 0.68936 0.0
H708 H 0.60599 0.13796 0.88872 0.0
H709 H 0.5135 0.12349 0.9153 0.0
H710 H 0.51598 0.16244 0.88344 0.0
H711 H 0.54174 0.1967 0.8454 0.0
H712 H 0.63455 0.21225 0.81883 0.0
H713 H 0.63511 0.17764 0.85393 0.0
C714 C 0.58668 0.14378 0.88791 0.0
C715 C 0.55924 0.12721 0.904 0.0
C716 C 0.58831 0.16642 0.86956 0.0
C717 C 0.53445 0.13512 0.90263 0.0
C718 C 0.53593 0.15758 0.88453 0.0
C719 C 0.56234 0.19292 0.8475 0.0
C720 C 0.58784 0.20671 0.82931 0.0
C721 C 0.5623 0.17272 0.86745 0.0
C722 C 0.61456 0.2019 0.83255 0.0
C723 C 0.61478 0.1819 0.8525 0.0
H724 H 0.3986 0.53011 0.05966 0.0
H725 H 0.48131 0.62627 0.05854 0.0
H726 H 0.45897 0.63762 0.01865 0.0
H727 H 0.41788 0.61836 0.98191 0.0
H728 H 0.33616 0.52155 0.9837 0.0
H729 H 0.35576 0.51271 0.02588 0.0
C730 C 0.41142 0.55385 0.05116 0.0
C731 C 0.44163 0.57723 0.06205 0.0
C732 C 0.39863 0.56008 0.02821 0.0
C733 C 0.45818 0.60766 0.05034 0.0
C734 C 0.44538 0.6142 0.02757 0.0
C735 C 0.40416 0.59557 0.9918 0.0
C736 C 0.37583 0.57055 0.97954 0.0
C737 C 0.41593 0.59033 0.01598 0.0
C738 C 0.35829 0.54108 0.99254 0.0
C739 C 0.36945 0.53595 0.01668 0.0
H740 H 0.89497 0.39839 0.20524 0.0
H741 H 0.89665 0.48241 0.23883 0.0
H742 H 0.86089 0.48076 0.20305 0.0
H743 H 0.83063 0.45684 0.16137 0.0
H744 H 0.82519 0.37064 0.12927 0.0
H745 H 0.86024 0.37133 0.16574 0.0
C746 C 0.88711 0.41604 0.20509 0.0
C747 C 0.8992 0.44088 0.22458 0.0
C748 C 0.86581 0.41457 0.1847 0.0
C749 C 0.88872 0.46358 0.22375 0.0
C750 C 0.86798 0.46254 0.20337 0.0
C751 C 0.83702 0.43812 0.16242 0.0
C752 C 0.82566 0.41393 0.14253 0.0
C753 C 0.85677 0.43845 0.18355 0.0
C754 C 0.83367 0.38954 0.14436 0.0
C755 C 0.8538 0.39 0.16514 0.0
loop_
_geom_bond_atom_site_label_1
_geom_bond_atom_site_label_2
_geom_bond_distance
_geom_bond_site_symmetry_2
_ccdc_geom_bond_type
H0 C19 0.949 . S
H1 C20 0.950 . S
H2 C22 0.950 . S
H3 C23 0.950 . S
H4 C25 0.950 . S
H5 C28 0.950 . S
H6 C29 0.950 . S
H7 C31 0.951 . S
H8 C32 0.949 . S
H9 C34 0.949 . S
H10 C35 0.950 . S
H11 C37 0.950 . S
H12 C38 0.950 . S
H13 C40 0.961 . S
H14 C43 0.950 . S
H15 C44 0.950 . S
H16 C46 0.951 . S
H17 C47 0.949 . S
C18 C19 1.376 . S
C18 C23 1.386 . S
C18 C24 1.483 . S
C19 H0 0.949 . S
C19 C18 1.376 . S
C19 C20 1.397 . S
C20 H1 0.950 . S
C20 C19 1.397 . S
C20 C21 1.391 . S
C21 C20 1.391 . S
C21 C22 1.405 . S
C22 H2 0.950 . S
C22 C21 1.405 . S
C22 C23 1.367 . S
C23 H3 0.950 . S
C23 C18 1.386 . S
C23 C22 1.367 . S
C24 C18 1.483 . S
C24 C25 1.382 1_655 S
C24 C26 1.403 . S
C25 H4 0.950 . S
C25 C24 1.382 1_455 S
C25 C41 1.411 . S
C26 C24 1.403 . S
C26 C27 1.489 . S
C26 C40 1.430 . S
C27 C26 1.489 . S
C27 C28 1.383 . S
C27 C32 1.382 . S
C28 H5 0.950 . S
C28 C27 1.383 . S
C28 C29 1.395 . S
C29 H6 0.950 . S
C29 C28 1.395 . S
C29 C30 1.288 . S
C30 C29 1.288 . S
C30 C31 1.392 . S
C31 H7 0.951 . S
C31 C30 1.392 . S
C31 C32 1.392 . S
C32 H8 0.949 . S
C32 C27 1.382 . S
C32 C31 1.392 . S
C33 C34 1.376 . S
C33 C38 1.386 . S
C33 C39 1.483 . S
C34 H9 0.949 . S
C34 C33 1.376 . S
C34 C35 1.397 . S
C35 H10 0.950 . S
C35 C34 1.397 . S
C35 C36 1.391 . S
C36 C35 1.391 . S
C36 C37 1.405 . S
C37 H11 0.950 . S
C37 C36 1.405 . S
C37 C38 1.367 . S
C38 H12 0.950 . S
C38 C33 1.386 . S
C38 C37 1.367 . S
C39 C33 1.483 . S
C39 C40 1.353 1_455 S
C39 C41 1.403 . S
C40 H13 0.961 . S
C40 C26 1.430 . S
C40 C39 1.353 1_655 S
C41 C25 1.411 . S
C41 C39 1.403 . S
C41 C42 1.489 . S
C42 C41 1.489 . S
C42 C43 1.383 . S
C42 C47 1.382 . S
C43 H14 0.950 . S
C43 C42 1.383 . S
C43 C44 1.395 . S
C44 H15 0.950 . S
C44 C43 1.395 . S
C44 C45 1.288 . S
C45 C44 1.288 . S
C45 C46 1.392 . S
C46 H16 0.951 . S
C46 C45 1.392 . S
C46 C47 1.392 . S
C47 H17 0.949 . S
C47 C42 1.382 . S
C47 C46 1.392 . S
H48 C67 0.949 . S
H49 C68 0.950 . S
H50 C70 0.950 . S
H51 C71 0.950 . S
H52 C73 0.950 . S
H53 C76 0.950 . S
H54 C77 0.950 . S
H55 C79 0.951 . S
H56 C80 0.949 . S
H57 C82 0.949 . S
H58 C83 0.950 . S
H59 C85 0.950 . S
H60 C86 0.950 . S
H61 C88 0.950 . S
H62 C91 0.950 . S
H63 C92 0.950 . S
H64 C94 0.951 . S
H65 C95 0.949 . S
C66 C67 1.376 . S
C66 C71 1.386 . S
C66 C72 1.483 . S
C67 H48 0.949 . S
C67 C66 1.376 . S
C67 C68 1.397 . S
C68 H49 0.950 . S
C68 C67 1.397 . S
C68 C69 1.391 . S
C69 C68 1.391 . S
C69 C70 1.405 . S
C70 H50 0.950 . S
C70 C69 1.405 . S
C70 C71 1.367 . S
C71 H51 0.950 . S
C71 C66 1.386 . S
C71 C70 1.367 . S
C72 C66 1.483 . S
C72 C73 1.382 . S
C72 C74 1.403 . S
C73 H52 0.950 . S
C73 C72 1.382 . S
C73 C89 1.411 1_565 S
C74 C72 1.403 . S
C74 C75 1.489 . S
C74 C88 1.411 1_565 S
C75 C74 1.489 . S
C75 C76 1.383 . S
C75 C80 1.382 . S
C76 H53 0.950 . S
C76 C75 1.383 . S
C76 C77 1.395 . S
C77 H54 0.950 . S
C77 C76 1.395 . S
C77 C78 1.288 . S
C78 C77 1.288 . S
C78 C79 1.392 . S
C79 H55 0.951 . S
C79 C78 1.392 . S
C79 C80 1.392 . S
C80 H56 0.949 . S
C80 C75 1.382 . S
C80 C79 1.392 . S
C81 C82 1.376 . S
C81 C86 1.386 . S
C81 C87 1.483 . S
C82 H57 0.949 . S
C82 C81 1.376 . S
C82 C83 1.397 . S
C83 H58 0.950 . S
C83 C82 1.397 . S
C83 C84 1.391 . S
C84 C83 1.391 . S
C84 C85 1.405 . S
C85 H59 0.950 . S
C85 C84 1.405 . S
C85 C86 1.367 . S
C86 H60 0.950 . S
C86 C81 1.386 . S
C86 C85 1.367 . S
C87 C81 1.483 . S
C87 C88 1.382 . S
C87 C89 1.403 . S
C88 H61 0.950 . S
C88 C74 1.411 1_545 S
C88 C87 1.382 . S
C89 C73 1.411 1_545 S
C89 C87 1.403 . S
C89 C90 1.489 . S
C90 C89 1.489 . S
C90 C91 1.383 . S
C90 C95 1.382 . S
C91 H62 0.950 . S
C91 C90 1.383 . S
C91 C92 1.395 . S
C92 H63 0.950 . S
C92 C91 1.395 . S
C92 C93 1.288 . S
C93 C92 1.288 . S
C93 C94 1.392 . S
C94 H64 0.951 . S
C94 C93 1.392 . S
C94 C95 1.392 . S
C95 H65 0.949 . S
C95 C90 1.382 . S
C95 C94 1.392 . S
H96 C115 0.949 . S
H97 C116 0.950 . S
H98 C118 0.950 . S
H99 C119 0.950 . S
H100 C121 0.950 . S
H101 C124 0.950 . S
H102 C125 0.950 . S
H103 C127 0.951 . S
H104 C128 0.949 . S
H105 C130 0.949 . S
H106 C131 0.950 . S
H107 C133 0.950 . S
H108 C134 0.950 . S
H109 C136 0.950 . S
H110 C139 0.950 . S
H111 C140 0.950 . S
H112 C142 0.951 . S
H113 C143 0.949 . S
C114 C115 1.376 . S
C114 C119 1.386 . S
C114 C120 1.483 . S
C115 H96 0.949 . S
C115 C114 1.376 . S
C115 C116 1.397 . S
C116 H97 0.950 . S
C116 C115 1.397 . S
C116 C117 1.391 . S
C117 C116 1.391 . S
C117 C118 1.405 . S
C118 H98 0.950 . S
C118 C117 1.405 . S
C118 C119 1.367 . S
C119 H99 0.950 . S
C119 C114 1.386 . S
C119 C118 1.367 . S
C120 C114 1.483 . S
C120 C121 1.382 . S
C120 C122 1.403 . S
C121 H100 0.950 . S
C121 C120 1.382 . S
C121 C137 1.411 . S
C122 C120 1.403 . S
C122 C123 1.489 . S
C122 C136 1.411 . S
C123 C122 1.489 . S
C123 C124 1.383 . S
C123 C128 1.382 . S
C124 H101 0.950 . S
C124 C123 1.383 . S
C124 C125 1.395 . S
C125 H102 0.950 . S
C125 C124 1.395 . S
C125 C126 1.288 . S
C126 C125 1.288 . S
C126 C127 1.392 . S
C127 H103 0.951 . S
C127 C126 1.392 . S
C127 C128 1.392 . S
C128 H104 0.949 . S
C128 C123 1.382 . S
C128 C127 1.392 . S
C129 C130 1.376 . S
C129 C134 1.386 . S
C129 C135 1.483 . S
C130 H105 0.949 . S
C130 C129 1.376 . S
C130 C131 1.397 . S
C131 H106 0.950 . S
C131 C130 1.397 . S
C131 C132 1.391 . S
C132 C131 1.391 . S
C132 C133 1.405 . S
C133 H107 0.950 . S
C133 C132 1.405 . S
C133 C134 1.367 . S
C134 H108 0.950 . S
C134 C129 1.386 . S
C134 C133 1.367 . S
C135 C129 1.483 . S
C135 C136 1.382 . S
C135 C137 1.403 . S
C136 H109 0.950 . S
C136 C122 1.411 . S
C136 C135 1.382 . S
C137 C121 1.411 . S
C137 C135 1.403 . S
C137 C138 1.489 . S
C138 C137 1.489 . S
C138 C139 1.383 . S
C138 C143 1.382 . S
C139 H110 0.950 . S
C139 C138 1.383 . S
C139 C140 1.395 . S
C140 H111 0.950 . S
C140 C139 1.395 . S
C140 C141 1.288 . S
C141 C140 1.288 . S
C141 C142 1.392 . S
C142 H112 0.951 . S
C142 C141 1.392 . S
C142 C143 1.392 . S
C143 H113 0.949 . S
C143 C138 1.382 . S
C143 C142 1.392 . S
H144 C163 0.949 . S
H145 C164 0.950 . S
H146 C166 0.950 . S
H147 C167 0.950 . S
H148 C169 0.950 1_655 S
H149 C172 0.950 . S
H150 C173 0.950 . S
H151 C175 0.951 . S
H152 C176 0.949 . S
H153 C178 0.949 . S
H154 C179 0.950 . S
H155 C181 0.950 . S
H156 C182 0.950 . S
H157 C184 0.950 . S
H158 C187 0.950 . S
H159 C188 0.950 . S
H160 C190 0.951 . S
H161 C191 0.949 . S
C162 C163 1.376 . S
C162 C167 1.386 . S
C162 C168 1.483 . S
C163 H144 0.949 . S
C163 C162 1.376 . S
C163 C164 1.397 . S
C164 H145 0.950 . S
C164 C163 1.397 . S
C164 C165 1.391 . S
C165 C164 1.391 . S
C165 C166 1.405 . S
C166 H146 0.950 . S
C166 C165 1.405 . S
C166 C167 1.367 . S
C167 H147 0.950 . S
C167 C162 1.386 . S
C167 C166 1.367 . S
C168 C162 1.483 . S
C168 C169 1.382 . S
C168 C170 1.403 . S
C169 H148 0.950 1_455 S
C169 C168 1.382 . S
C169 C185 1.411 1_455 S
C170 C168 1.403 . S
C170 C171 1.489 . S
C170 C184 1.411 . S
C171 C170 1.489 . S
C171 C172 1.383 . S
C171 C176 1.382 . S
C172 H149 0.950 . S
C172 C171 1.383 . S
C172 C173 1.395 . S
C173 H150 0.950 . S
C173 C172 1.395 . S
C173 C174 1.288 . S
C174 C173 1.288 . S
C174 C175 1.392 . S
C175 H151 0.951 . S
C175 C174 1.392 . S
C175 C176 1.392 . S
C176 H152 0.949 . S
C176 C171 1.382 . S
C176 C175 1.392 . S
C177 C178 1.376 . S
C177 C182 1.386 . S
C177 C183 1.483 . S
C178 H153 0.949 . S
C178 C177 1.376 . S
C178 C179 1.397 . S
C179 H154 0.950 . S
C179 C178 1.397 . S
C179 C180 1.391 . S
C180 C179 1.391 . S
C180 C181 1.405 . S
C181 H155 0.950 . S
C181 C180 1.405 . S
C181 C182 1.367 . S
C182 H156 0.950 . S
C182 C177 1.386 . S
C182 C181 1.367 . S
C183 C177 1.483 . S
C183 C184 1.382 1_655 S
C183 C185 1.403 . S
C184 H157 0.950 . S
C184 C170 1.411 . S
C184 C183 1.382 1_455 S
C185 C169 1.411 1_655 S
C185 C183 1.403 . S
C185 C186 1.489 . S
C186 C185 1.489 . S
C186 C187 1.383 . S
C186 C191 1.382 . S
C187 H158 0.950 . S
C187 C186 1.383 . S
C187 C188 1.395 . S
C188 H159 0.950 . S
C188 C187 1.395 . S
C188 C189 1.288 . S
C189 C188 1.288 . S
C189 C190 1.392 . S
C190 H160 0.951 . S
C190 C189 1.392 . S
C190 C191 1.392 . S
C191 H161 0.949 . S
C191 C186 1.382 . S
C191 C190 1.392 . S
H192 C211 0.949 . S
H193 C212 0.950 . S
H194 C214 0.950 . S
H195 C215 0.950 . S
H196 C217 0.950 . S
H197 C220 0.950 . S
H198 C221 0.950 . S
H199 C223 0.951 . S
H200 C224 0.949 . S
H201 C226 0.949 . S
H202 C227 0.950 . S
H203 C229 0.950 . S
H204 C230 0.950 . S
H205 C232 0.950 . S
H206 C235 0.950 . S
H207 C236 0.950 . S
H208 C238 0.951 . S
H209 C239 0.949 . S
C210 C211 1.376 . S
C210 C215 1.386 1_554 S
C210 C216 1.483 1_554 S
C211 H192 0.949 . S
C211 C210 1.376 . S
C211 C212 1.397 . S
C212 H193 0.950 . S
C212 C211 1.397 . S
C212 C213 1.391 . S
C213 C212 1.391 . S
C213 C214 1.405 . S
C214 H194 0.950 . S
C214 C213 1.405 . S
C214 C215 1.367 1_554 S
C215 H195 0.950 . S
C215 C210 1.386 1_556 S
C215 C214 1.367 1_556 S
C216 C210 1.483 1_556 S
C216 C217 1.382 1_556 S
C216 C218 1.403 . S
C217 H196 0.950 . S
C217 C216 1.382 1_554 S
C217 C233 1.411 1_545 S
C218 C216 1.403 . S
C218 C219 1.489 . S
C218 C232 1.411 1_545 S
C219 C218 1.489 . S
C219 C220 1.383 . S
C219 C224 1.382 . S
C220 H197 0.950 . S
C220 C219 1.383 . S
C220 C221 1.395 . S
C221 H198 0.950 . S
C221 C220 1.395 . S
C221 C222 1.288 . S
C222 C221 1.288 . S
C222 C223 1.392 . S
C223 H199 0.951 . S
C223 C222 1.392 . S
C223 C224 1.392 . S
C224 H200 0.949 . S
C224 C219 1.382 . S
C224 C223 1.392 . S
C225 C226 1.376 . S
C225 C230 1.386 . S
C225 C231 1.483 . S
C226 H201 0.949 . S
C226 C225 1.376 . S
C226 C227 1.397 . S
C227 H202 0.950 . S
C227 C226 1.397 . S
C227 C228 1.391 . S
C228 C227 1.391 . S
C228 C229 1.405 . S
C229 H203 0.950 . S
C229 C228 1.405 . S
C229 C230 1.367 . S
C230 H204 0.950 . S
C230 C225 1.386 . S
C230 C229 1.367 . S
C231 C225 1.483 . S
C231 C232 1.382 . S
C231 C233 1.403 1_556 S
C232 H205 0.950 . S
C232 C218 1.411 1_565 S
C232 C231 1.382 . S
C233 C217 1.411 1_565 S
C233 C231 1.403 1_554 S
C233 C234 1.489 . S
C234 C233 1.489 . S
C234 C235 1.383 . S
C234 C239 1.382 . S
C235 H206 0.950 . S
C235 C234 1.383 . S
C235 C236 1.395 . S
C236 H207 0.950 . S
C236 C235 1.395 . S
C236 C237 1.288 . S
C237 C236 1.288 . S
C237 C238 1.392 . S
C238 H208 0.951 . S
C238 C237 1.392 . S
C238 C239 1.392 . S
C239 H209 0.949 . S
C239 C234 1.382 . S
C239 C238 1.392 . S
H240 C259 0.949 . S
H241 C260 0.950 . S
H242 C262 0.950 . S
H243 C263 0.950 . S
H244 C265 0.950 . S
H245 C268 0.950 . S
H246 C269 0.950 . S
H247 C271 0.951 . S
H248 C272 0.949 . S
H249 C274 0.949 . S
H250 C275 0.950 . S
H251 C277 0.950 . S
H252 C278 0.950 . S
H253 C280 0.950 . S
H254 C283 0.950 . S
H255 C284 0.950 . S
H256 C286 0.951 . S
H257 C287 0.949 . S
C258 C259 1.376 . S
C258 C263 1.386 . S
C258 C264 1.483 . S
C259 H240 0.949 . S
C259 C258 1.376 . S
C259 C260 1.397 . S
C260 H241 0.950 . S
C260 C259 1.397 . S
C260 C261 1.391 . S
C261 C260 1.391 . S
C261 C262 1.405 . S
C262 H242 0.950 . S
C262 C261 1.405 . S
C262 C263 1.367 . S
C263 H243 0.950 . S
C263 C258 1.386 . S
C263 C262 1.367 . S
C264 C258 1.483 . S
C264 C265 1.382 . S
C264 C266 1.403 . S
C265 H244 0.950 . S
C265 C264 1.382 . S
C265 C281 1.411 . S
C266 C264 1.403 . S
C266 C267 1.489 . S
C266 C280 1.411 . S
C267 C266 1.489 . S
C267 C268 1.383 . S
C267 C272 1.382 . S
C268 H245 0.950 . S
C268 C267 1.383 . S
C268 C269 1.395 . S
C269 H246 0.950 . S
C269 C268 1.395 . S
C269 C270 1.288 . S
C270 C269 1.288 . S
C270 C271 1.392 . S
C271 H247 0.951 . S
C271 C270 1.392 . S
C271 C272 1.392 . S
C272 H248 0.949 . S
C272 C267 1.382 . S
C272 C271 1.392 . S
C273 C274 1.376 . S
C273 C278 1.386 . S
C273 C279 1.483 . S
C274 H249 0.949 . S
C274 C273 1.376 . S
C274 C275 1.397 . S
C275 H250 0.950 . S
C275 C274 1.397 . S
C275 C276 1.391 . S
C276 C275 1.391 . S
C276 C277 1.405 . S
C277 H251 0.950 . S
C277 C276 1.405 . S
C277 C278 1.367 . S
C278 H252 0.950 . S
C278 C273 1.386 . S
C278 C277 1.367 . S
C279 C273 1.483 . S
C279 C280 1.382 . S
C279 C281 1.403 . S
C280 H253 0.950 . S
C280 C266 1.411 . S
C280 C279 1.382 . S
C281 C265 1.411 . S
C281 C279 1.403 . S
C281 C282 1.489 . S
C282 C281 1.489 . S
C282 C283 1.383 . S
C282 C287 1.382 . S
C283 H254 0.950 . S
C283 C282 1.383 . S
C283 C284 1.395 . S
C284 H255 0.950 . S
C284 C283 1.395 . S
C284 C285 1.288 . S
C285 C284 1.288 . S
C285 C286 1.392 . S
C286 H256 0.951 . S
C286 C285 1.392 . S
C286 C287 1.392 . S
C287 H257 0.949 . S
C287 C282 1.382 . S
C287 C286 1.392 . S
Zn288 O291 2.031 . S
Zn288 O293 2.049 . S
Zn288 O298 2.067 . S
Zn289 O290 1.962 . S
Zn289 O292 1.986 . S
Zn289 O294 1.996 . S
Zn289 O297 1.943 . S
O290 Zn289 1.962 . S
O290 C295 1.254 . S
O291 Zn288 2.031 . S
O291 C295 1.269 . S
O292 Zn289 1.986 . S
O292 C299 1.262 . S
O293 Zn288 2.049 . S
O293 C301 1.260 . S
O294 Zn289 1.996 . S
O294 C301 1.257 . S
C295 O290 1.254 . S
C295 O291 1.269 . S
C296 O297 1.249 . S
C296 O298 1.270 . S
O297 Zn289 1.943 . S
O297 C296 1.249 . S
O298 Zn288 2.067 . S
O298 C296 1.270 . S
C299 O292 1.262 . S
C299 O300 1.232 . S
O300 C299 1.232 . S
C301 O293 1.260 . S
C301 O294 1.257 . S
Zn302 O305 2.031 . S
Zn302 O307 2.049 . S
Zn302 O312 2.067 . S
Zn303 O304 1.962 . S
Zn303 O306 1.986 . S
Zn303 O308 1.996 . S
Zn303 O311 1.943 . S
O304 Zn303 1.962 . S
O304 C309 1.254 . S
O305 Zn302 2.031 . S
O305 C309 1.269 . S
O306 Zn303 1.986 . S
O306 C313 1.262 . S
O307 Zn302 2.049 . S
O307 C315 1.260 . S
O308 Zn303 1.996 . S
O308 C315 1.257 . S
C309 O304 1.254 . S
C309 O305 1.269 . S
C310 O311 1.249 . S
C310 O312 1.270 . S
O311 Zn303 1.943 . S
O311 C310 1.249 . S
O312 Zn302 2.067 . S
O312 C310 1.270 . S
C313 O306 1.262 . S
C313 O314 1.232 . S
O314 C313 1.232 . S
C315 O307 1.260 . S
C315 O308 1.257 . S
Zn316 O319 2.031 . S
Zn316 O321 2.049 . S
Zn316 O326 2.067 . S
Zn317 O318 1.962 . S
Zn317 O320 1.986 . S
Zn317 O322 1.996 . S
Zn317 O325 1.943 . S
O318 Zn317 1.962 . S
O318 C323 1.254 . S
O319 Zn316 2.031 . S
O319 C323 1.269 . S
O320 Zn317 1.986 . S
O320 C327 1.262 . S
O321 Zn316 2.049 . S
O321 C329 1.260 . S
O322 Zn317 1.996 . S
O322 C329 1.257 . S
C323 O318 1.254 . S
C323 O319 1.269 . S
C324 O325 1.249 . S
C324 O326 1.270 . S
O325 Zn317 1.943 . S
O325 C324 1.249 . S
O326 Zn316 2.067 . S
O326 C324 1.270 . S
C327 O320 1.262 . S
C327 O328 1.232 . S
O328 C327 1.232 . S
C329 O321 1.260 . S
C329 O322 1.257 . S
Zn330 O333 2.031 . S
Zn330 O335 2.049 . S
Zn330 O340 2.067 . S
Zn331 O332 1.962 . S
Zn331 O334 1.986 . S
Zn331 O336 1.996 . S
Zn331 O339 1.943 . S
O332 Zn331 1.962 . S
O332 C337 1.254 . S
O333 Zn330 2.031 . S
O333 C337 1.269 . S
O334 Zn331 1.986 . S
O334 C341 1.262 . S
O335 Zn330 2.049 . S
O335 C343 1.260 . S
O336 Zn331 1.996 . S
O336 C343 1.257 . S
C337 O332 1.254 . S
C337 O333 1.269 . S
C338 O339 1.249 . S
C338 O340 1.270 . S
O339 Zn331 1.943 . S
O339 C338 1.249 . S
O340 Zn330 2.067 . S
O340 C338 1.270 . S
C341 O334 1.262 . S
C341 O342 1.232 . S
O342 C341 1.232 . S
C343 O335 1.260 . S
C343 O336 1.257 . S
Zn344 O347 2.031 . S
Zn344 O349 2.049 . S
Zn344 O354 2.067 . S
Zn345 O346 1.962 . S
Zn345 O348 1.986 . S
Zn345 O350 1.996 . S
Zn345 O353 1.943 . S
O346 Zn345 1.962 . S
O346 C351 1.254 . S
O347 Zn344 2.031 . S
O347 C351 1.269 . S
O348 Zn345 1.986 . S
O348 C355 1.262 . S
O349 Zn344 2.049 . S
O349 C357 1.260 . S
O350 Zn345 1.996 . S
O350 C357 1.257 . S
C351 O346 1.254 . S
C351 O347 1.269 . S
C352 O353 1.249 . S
C352 O354 1.270 . S
O353 Zn345 1.943 . S
O353 C352 1.249 . S
O354 Zn344 2.067 . S
O354 C352 1.270 . S
C355 O348 1.262 . S
C355 O356 1.232 . S
O356 C355 1.232 . S
C357 O349 1.260 . S
C357 O350 1.257 . S
Zn358 O361 2.031 . S
Zn358 O363 2.049 . S
Zn358 O368 2.067 . S
Zn359 O360 1.962 . S
Zn359 O362 1.986 . S
Zn359 O364 1.996 . S
Zn359 O367 1.943 . S
O360 Zn359 1.962 . S
O360 C365 1.254 . S
O361 Zn358 2.031 . S
O361 C365 1.269 . S
O362 Zn359 1.986 . S
O362 C369 1.262 . S
O363 Zn358 2.049 . S
O363 C371 1.260 . S
O364 Zn359 1.996 . S
O364 C371 1.257 . S
C365 O360 1.254 . S
C365 O361 1.269 . S
C366 O367 1.249 . S
C366 O368 1.270 . S
O367 Zn359 1.943 . S
O367 C366 1.249 . S
O368 Zn358 2.067 . S
O368 C366 1.270 . S
C369 O362 1.262 . S
C369 O370 1.232 . S
O370 C369 1.232 . S
C371 O363 1.260 . S
C371 O364 1.257 . S
H372 C378 0.930 . S
H373 C381 0.930 . S
H374 C382 0.930 . S
H375 C383 0.930 . S
H376 C386 0.930 . S
H377 C387 0.930 . S
C378 H372 0.930 . S
C378 C379 1.355 . S
C378 C380 1.415 . S
C379 C378 1.355 . S
C379 C381 1.419 . S
C380 C378 1.415 . S
C380 C385 1.425 . S
C380 C387 1.409 . S
C381 H373 0.930 . S
C381 C379 1.419 . S
C381 C382 1.362 . S
C382 H374 0.930 . S
C382 C381 1.362 . S
C382 C385 1.409 . S
C383 H375 0.930 . S
C383 C384 1.355 . S
C383 C385 1.415 . S
C384 C383 1.355 . S
C384 C386 1.419 . S
C385 C380 1.425 . S
C385 C382 1.409 . S
C385 C383 1.415 . S
C386 H376 0.930 . S
C386 C384 1.419 . S
C386 C387 1.362 . S
C387 H377 0.930 . S
C387 C380 1.409 . S
C387 C386 1.362 . S
H388 C394 0.930 . S
H389 C397 0.930 . S
H390 C398 0.930 . S
H391 C399 0.930 . S
H392 C402 0.930 . S
H393 C403 0.930 . S
C394 H388 0.930 . S
C394 C395 1.355 . S
C394 C396 1.415 . S
C395 C394 1.355 . S
C395 C397 1.419 . S
C396 C394 1.415 . S
C396 C401 1.425 . S
C396 C403 1.409 . S
C397 H389 0.930 . S
C397 C395 1.419 . S
C397 C398 1.362 . S
C398 H390 0.930 . S
C398 C397 1.362 . S
C398 C401 1.409 . S
C399 H391 0.930 . S
C399 C400 1.355 . S
C399 C401 1.415 . S
C400 C399 1.355 . S
C400 C402 1.419 . S
C401 C396 1.425 . S
C401 C398 1.409 . S
C401 C399 1.415 . S
C402 H392 0.930 . S
C402 C400 1.419 . S
C402 C403 1.362 . S
C403 H393 0.930 . S
C403 C396 1.409 . S
C403 C402 1.362 . S
H404 C410 0.930 . S
H405 C413 0.930 . S
H406 C414 0.930 . S
H407 C415 0.930 . S
H408 C418 0.930 . S
H409 C419 0.930 . S
C410 H404 0.930 . S
C410 C411 1.355 . S
C410 C412 1.415 . S
C411 C410 1.355 . S
C411 C413 1.419 . S
C412 C410 1.415 . S
C412 C417 1.425 . S
C412 C419 1.409 . S
C413 H405 0.930 . S
C413 C411 1.419 . S
C413 C414 1.362 . S
C414 H406 0.930 . S
C414 C413 1.362 . S
C414 C417 1.409 . S
C415 H407 0.930 . S
C415 C416 1.355 . S
C415 C417 1.415 . S
C416 C415 1.355 . S
C416 C418 1.419 . S
C417 C412 1.425 . S
C417 C414 1.409 . S
C417 C415 1.415 . S
C418 H408 0.930 . S
C418 C416 1.419 . S
C418 C419 1.362 . S
C419 H409 0.930 . S
C419 C412 1.409 . S
C419 C418 1.362 . S
H420 C426 0.930 . S
H421 C429 0.930 . S
H422 C430 0.930 . S
H423 C431 0.930 . S
H424 C434 0.930 . S
H425 C435 0.930 . S
C426 H420 0.930 . S
C426 C427 1.355 . S
C426 C428 1.415 . S
C427 C426 1.355 . S
C427 C429 1.419 . S
C428 C426 1.415 . S
C428 C433 1.425 . S
C428 C435 1.409 . S
C429 H421 0.930 . S
C429 C427 1.419 . S
C429 C430 1.362 . S
C430 H422 0.930 . S
C430 C429 1.362 . S
C430 C433 1.409 . S
C431 H423 0.930 . S
C431 C432 1.355 . S
C431 C433 1.415 . S
C432 C431 1.355 . S
C432 C434 1.419 . S
C433 C428 1.425 . S
C433 C430 1.409 . S
C433 C431 1.415 . S
C434 H424 0.930 . S
C434 C432 1.419 . S
C434 C435 1.362 . S
C435 H425 0.930 . S
C435 C428 1.409 . S
C435 C434 1.362 . S
H436 C442 0.930 . S
H437 C445 0.930 . S
H438 C446 0.930 . S
H439 C447 0.930 . S
H440 C450 0.930 . S
H441 C451 0.930 . S
C442 H436 0.930 . S
C442 C443 1.355 . S
C442 C444 1.415 . S
C443 C442 1.355 . S
C443 C445 1.419 . S
C444 C442 1.415 . S
C444 C449 1.425 . S
C444 C451 1.409 . S
C445 H437 0.930 . S
C445 C443 1.419 . S
C445 C446 1.362 . S
C446 H438 0.930 . S
C446 C445 1.362 . S
C446 C449 1.409 . S
C447 H439 0.930 . S
C447 C448 1.355 . S
C447 C449 1.415 . S
C448 C447 1.355 . S
C448 C450 1.419 . S
C449 C444 1.425 . S
C449 C446 1.409 . S
C449 C447 1.415 . S
C450 H440 0.930 . S
C450 C448 1.419 . S
C450 C451 1.362 . S
C451 H441 0.930 . S
C451 C444 1.409 . S
C451 C450 1.362 . S
H452 C458 0.930 . S
H453 C461 0.930 . S
H454 C462 0.930 . S
H455 C463 0.930 . S
H456 C466 0.930 . S
H457 C467 0.930 . S
C458 H452 0.930 . S
C458 C459 1.355 . S
C458 C460 1.415 . S
C459 C458 1.355 . S
C459 C461 1.419 . S
C460 C458 1.415 . S
C460 C465 1.425 . S
C460 C467 1.409 . S
C461 H453 0.930 . S
C461 C459 1.419 . S
C461 C462 1.362 . S
C462 H454 0.930 . S
C462 C461 1.362 . S
C462 C465 1.409 . S
C463 H455 0.930 . S
C463 C464 1.355 . S
C463 C465 1.415 . S
C464 C463 1.355 . S
C464 C466 1.419 . S
C465 C460 1.425 . S
C465 C462 1.409 . S
C465 C463 1.415 . S
C466 H456 0.930 . S
C466 C464 1.419 . S
C466 C467 1.362 . S
C467 H457 0.930 . S
C467 C460 1.409 . S
C467 C466 1.362 . S
H468 C474 0.930 . S
H469 C477 0.930 . S
H470 C478 0.930 . S
H471 C479 0.930 . S
H472 C482 0.930 . S
H473 C483 0.930 . S
C474 H468 0.930 . S
C474 C475 1.355 . S
C474 C476 1.415 . S
C475 C474 1.355 . S
C475 C477 1.419 . S
C476 C474 1.415 . S
C476 C481 1.425 . S
C476 C483 1.409 . S
C477 H469 0.930 . S
C477 C475 1.419 . S
C477 C478 1.362 . S
C478 H470 0.930 . S
C478 C477 1.362 . S
C478 C481 1.409 . S
C479 H471 0.930 . S
C479 C480 1.355 . S
C479 C481 1.415 . S
C480 C479 1.355 . S
C480 C482 1.419 . S
C481 C476 1.425 . S
C481 C478 1.409 . S
C481 C479 1.415 . S
C482 H472 0.930 . S
C482 C480 1.419 . S
C482 C483 1.362 . S
C483 H473 0.930 . S
C483 C476 1.409 . S
C483 C482 1.362 . S
H484 C490 0.930 . S
H485 C493 0.930 . S
H486 C494 0.930 . S
H487 C495 0.930 . S
H488 C498 0.930 . S
H489 C499 0.930 . S
C490 H484 0.930 . S
C490 C491 1.355 . S
C490 C492 1.415 . S
C491 C490 1.355 . S
C491 C493 1.419 . S
C492 C490 1.415 . S
C492 C497 1.425 . S
C492 C499 1.409 . S
C493 H485 0.930 . S
C493 C491 1.419 . S
C493 C494 1.362 . S
C494 H486 0.930 . S
C494 C493 1.362 . S
C494 C497 1.409 . S
C495 H487 0.930 . S
C495 C496 1.355 . S
C495 C497 1.415 . S
C496 C495 1.355 . S
C496 C498 1.419 . S
C497 C492 1.425 . S
C497 C494 1.409 . S
C497 C495 1.415 . S
C498 H488 0.930 . S
C498 C496 1.419 . S
C498 C499 1.362 . S
C499 H489 0.930 . S
C499 C492 1.409 . S
C499 C498 1.362 . S
H500 C506 0.930 . S
H501 C509 0.930 . S
H502 C510 0.930 . S
H503 C511 0.930 . S
H504 C514 0.930 . S
H505 C515 0.930 . S
C506 H500 0.930 . S
C506 C507 1.355 . S
C506 C508 1.415 . S
C507 C506 1.355 . S
C507 C509 1.419 . S
C508 C506 1.415 . S
C508 C513 1.425 . S
C508 C515 1.409 . S
C509 H501 0.930 . S
C509 C507 1.419 . S
C509 C510 1.362 . S
C510 H502 0.930 . S
C510 C509 1.362 . S
C510 C513 1.409 . S
C511 H503 0.930 . S
C511 C512 1.355 . S
C511 C513 1.415 . S
C512 C511 1.355 . S
C512 C514 1.419 . S
C513 C508 1.425 . S
C513 C510 1.409 . S
C513 C511 1.415 . S
C514 H504 0.930 . S
C514 C512 1.419 . S
C514 C515 1.362 . S
C515 H505 0.930 . S
C515 C508 1.409 . S
C515 C514 1.362 . S
H516 C522 0.930 . S
H517 C525 0.930 . S
H518 C526 0.930 . S
H519 C527 0.930 . S
H520 C530 0.930 . S
H521 C531 0.930 . S
C522 H516 0.930 . S
C522 C523 1.355 . S
C522 C524 1.415 . S
C523 C522 1.355 . S
C523 C525 1.419 . S
C524 C522 1.415 . S
C524 C529 1.425 . S
C524 C531 1.409 . S
C525 H517 0.930 . S
C525 C523 1.419 . S
C525 C526 1.362 . S
C526 H518 0.930 . S
C526 C525 1.362 . S
C526 C529 1.409 . S
C527 H519 0.930 . S
C527 C528 1.355 . S
C527 C529 1.415 . S
C528 C527 1.355 . S
C528 C530 1.419 . S
C529 C524 1.425 . S
C529 C526 1.409 . S
C529 C527 1.415 . S
C530 H520 0.930 . S
C530 C528 1.419 . S
C530 C531 1.362 . S
C531 H521 0.930 . S
C531 C524 1.409 . S
C531 C530 1.362 . S
H532 C538 0.930 . S
H533 C541 0.930 . S
H534 C542 0.930 . S
H535 C543 0.930 . S
H536 C546 0.930 . S
H537 C547 0.930 . S
C538 H532 0.930 . S
C538 C539 1.355 . S
C538 C540 1.415 . S
C539 C538 1.355 . S
C539 C541 1.419 . S
C540 C538 1.415 . S
C540 C545 1.425 . S
C540 C547 1.409 . S
C541 H533 0.930 . S
C541 C539 1.419 . S
C541 C542 1.362 . S
C542 H534 0.930 . S
C542 C541 1.362 . S
C542 C545 1.409 . S
C543 H535 0.930 . S
C543 C544 1.355 . S
C543 C545 1.415 . S
C544 C543 1.355 . S
C544 C546 1.419 . S
C545 C540 1.425 . S
C545 C542 1.409 . S
C545 C543 1.415 . S
C546 H536 0.930 . S
C546 C544 1.419 . S
C546 C547 1.362 . S
C547 H537 0.930 . S
C547 C540 1.409 . S
C547 C546 1.362 . S
H548 C554 0.930 . S
H549 C557 0.930 . S
H550 C558 0.930 . S
H551 C559 0.930 . S
H552 C562 0.930 . S
H553 C563 0.930 . S
C554 H548 0.930 . S
C554 C555 1.355 . S
C554 C556 1.415 . S
C555 C554 1.355 . S
C555 C557 1.419 . S
C556 C554 1.415 . S
C556 C561 1.425 . S
C556 C563 1.409 . S
C557 H549 0.930 . S
C557 C555 1.419 . S
C557 C558 1.362 . S
C558 H550 0.930 . S
C558 C557 1.362 . S
C558 C561 1.409 . S
C559 H551 0.930 . S
C559 C560 1.355 . S
C559 C561 1.415 . S
C560 C559 1.355 . S
C560 C562 1.419 . S
C561 C556 1.425 . S
C561 C558 1.409 . S
C561 C559 1.415 . S
C562 H552 0.930 . S
C562 C560 1.419 . S
C562 C563 1.362 . S
C563 H553 0.930 . S
C563 C556 1.409 . S
C563 C562 1.362 . S
H564 C570 0.930 . S
H565 C573 0.930 . S
H566 C574 0.930 . S
H567 C575 0.930 . S
H568 C578 0.930 . S
H569 C579 0.930 . S
C570 H564 0.930 . S
C570 C571 1.355 . S
C570 C572 1.415 . S
C571 C570 1.355 . S
C571 C573 1.419 . S
C572 C570 1.415 . S
C572 C577 1.425 . S
C572 C579 1.409 . S
C573 H565 0.930 . S
C573 C571 1.419 . S
C573 C574 1.362 . S
C574 H566 0.930 . S
C574 C573 1.362 . S
C574 C577 1.409 . S
C575 H567 0.930 . S
C575 C576 1.355 . S
C575 C577 1.415 . S
C576 C575 1.355 . S
C576 C578 1.419 . S
C577 C572 1.425 . S
C577 C574 1.409 . S
C577 C575 1.415 . S
C578 H568 0.930 . S
C578 C576 1.419 . S
C578 C579 1.362 . S
C579 H569 0.930 . S
C579 C572 1.409 . S
C579 C578 1.362 . S
H580 C586 0.930 . S
H581 C589 0.930 . S
H582 C590 0.930 . S
H583 C591 0.930 . S
H584 C594 0.930 . S
H585 C595 0.930 . S
C586 H580 0.930 . S
C586 C587 1.355 . S
C586 C588 1.415 . S
C587 C586 1.355 . S
C587 C589 1.419 . S
C588 C586 1.415 . S
C588 C593 1.425 . S
C588 C595 1.409 . S
C589 H581 0.930 . S
C589 C587 1.419 . S
C589 C590 1.362 . S
C590 H582 0.930 . S
C590 C589 1.362 . S
C590 C593 1.409 . S
C591 H583 0.930 . S
C591 C592 1.355 . S
C591 C593 1.415 . S
C592 C591 1.355 . S
C592 C594 1.419 . S
C593 C588 1.425 . S
C593 C590 1.409 . S
C593 C591 1.415 . S
C594 H584 0.930 . S
C594 C592 1.419 . S
C594 C595 1.362 . S
C595 H585 0.930 . S
C595 C588 1.409 . S
C595 C594 1.362 . S
H596 C602 0.930 . S
H597 C605 0.930 . S
H598 C606 0.930 . S
H599 C607 0.930 . S
H600 C610 0.930 . S
H601 C611 0.930 . S
C602 H596 0.930 . S
C602 C603 1.355 . S
C602 C604 1.415 . S
C603 C602 1.355 . S
C603 C605 1.419 . S
C604 C602 1.415 . S
C604 C609 1.425 . S
C604 C611 1.409 . S
C605 H597 0.930 . S
C605 C603 1.419 . S
C605 C606 1.362 . S
C606 H598 0.930 . S
C606 C605 1.362 . S
C606 C609 1.409 . S
C607 H599 0.930 . S
C607 C608 1.355 . S
C607 C609 1.415 . S
C608 C607 1.355 . S
C608 C610 1.419 . S
C609 C604 1.425 . S
C609 C606 1.409 . S
C609 C607 1.415 . S
C610 H600 0.930 . S
C610 C608 1.419 . S
C610 C611 1.362 . S
C611 H601 0.930 . S
C611 C604 1.409 . S
C611 C610 1.362 . S
H612 C618 0.930 . S
H613 C621 0.930 . S
H614 C622 0.930 . S
H615 C623 0.930 . S
H616 C626 0.930 . S
H617 C627 0.930 . S
C618 H612 0.930 . S
C618 C619 1.355 . S
C618 C620 1.415 . S
C619 C618 1.355 . S
C619 C621 1.419 . S
C620 C618 1.415 . S
C620 C625 1.425 . S
C620 C627 1.409 . S
C621 H613 0.930 . S
C621 C619 1.419 . S
C621 C622 1.362 . S
C622 H614 0.930 . S
C622 C621 1.362 . S
C622 C625 1.409 . S
C623 H615 0.930 . S
C623 C624 1.355 1_556 S
C623 C625 1.415 . S
C624 C623 1.355 1_554 S
C624 C626 1.419 . S
C625 C620 1.425 . S
C625 C622 1.409 . S
C625 C623 1.415 . S
C626 H616 0.930 . S
C626 C624 1.419 . S
C626 C627 1.362 1_554 S
C627 H617 0.930 . S
C627 C620 1.409 . S
C627 C626 1.362 1_556 S
H628 C634 0.930 . S
H629 C637 0.930 . S
H630 C638 0.930 . S
H631 C639 0.930 . S
H632 C642 0.930 . S
H633 C643 0.930 . S
C634 H628 0.930 . S
C634 C635 1.355 . S
C634 C636 1.415 . S
C635 C634 1.355 . S
C635 C637 1.419 . S
C636 C634 1.415 . S
C636 C641 1.425 . S
C636 C643 1.409 . S
C637 H629 0.930 . S
C637 C635 1.419 . S
C637 C638 1.362 . S
C638 H630 0.930 . S
C638 C637 1.362 . S
C638 C641 1.409 . S
C639 H631 0.930 . S
C639 C640 1.355 . S
C639 C641 1.415 . S
C640 C639 1.355 . S
C640 C642 1.419 . S
C641 C636 1.425 . S
C641 C638 1.409 . S
C641 C639 1.415 . S
C642 H632 0.930 . S
C642 C640 1.419 . S
C642 C643 1.362 . S
C643 H633 0.930 . S
C643 C636 1.409 . S
C643 C642 1.362 . S
H644 C650 0.930 . S
H645 C653 0.930 . S
H646 C654 0.930 . S
H647 C655 0.930 . S
H648 C658 0.930 . S
H649 C659 0.930 . S
C650 H644 0.930 . S
C650 C651 1.355 . S
C650 C652 1.415 . S
C651 C650 1.355 . S
C651 C653 1.419 . S
C652 C650 1.415 . S
C652 C657 1.425 . S
C652 C659 1.409 . S
C653 H645 0.930 . S
C653 C651 1.419 . S
C653 C654 1.362 . S
C654 H646 0.930 . S
C654 C653 1.362 . S
C654 C657 1.409 . S
C655 H647 0.930 . S
C655 C656 1.355 . S
C655 C657 1.415 . S
C656 C655 1.355 . S
C656 C658 1.419 . S
C657 C652 1.425 . S
C657 C654 1.409 . S
C657 C655 1.415 . S
C658 H648 0.930 . S
C658 C656 1.419 . S
C658 C659 1.362 . S
C659 H649 0.930 . S
C659 C652 1.409 . S
C659 C658 1.362 . S
H660 C666 0.930 . S
H661 C669 0.930 . S
H662 C670 0.930 . S
H663 C671 0.930 . S
H664 C674 0.930 . S
H665 C675 0.930 . S
C666 H660 0.930 . S
C666 C667 1.355 . S
C666 C668 1.415 . S
C667 C666 1.355 . S
C667 C669 1.419 . S
C668 C666 1.415 . S
C668 C673 1.425 . S
C668 C675 1.409 . S
C669 H661 0.930 . S
C669 C667 1.419 . S
C669 C670 1.362 . S
C670 H662 0.930 . S
C670 C669 1.362 . S
C670 C673 1.409 . S
C671 H663 0.930 . S
C671 C672 1.355 . S
C671 C673 1.415 . S
C672 C671 1.355 . S
C672 C674 1.419 . S
C673 C668 1.425 . S
C673 C670 1.409 . S
C673 C671 1.415 . S
C674 H664 0.930 . S
C674 C672 1.419 . S
C674 C675 1.362 . S
C675 H665 0.930 . S
C675 C668 1.409 . S
C675 C674 1.362 . S
H676 C682 0.930 . S
H677 C685 0.930 . S
H678 C686 0.930 . S
H679 C687 0.930 . S
H680 C690 0.930 . S
H681 C691 0.930 . S
C682 H676 0.930 . S
C682 C683 1.355 . S
C682 C684 1.415 . S
C683 C682 1.355 . S
C683 C685 1.419 . S
C684 C682 1.415 . S
C684 C689 1.425 . S
C684 C691 1.409 . S
C685 H677 0.930 . S
C685 C683 1.419 . S
C685 C686 1.362 . S
C686 H678 0.930 . S
C686 C685 1.362 . S
C686 C689 1.409 . S
C687 H679 0.930 . S
C687 C688 1.355 . S
C687 C689 1.415 . S
C688 C687 1.355 . S
C688 C690 1.419 . S
C689 C684 1.425 . S
C689 C686 1.409 . S
C689 C687 1.415 . S
C690 H680 0.930 . S
C690 C688 1.419 . S
C690 C691 1.362 . S
C691 H681 0.930 . S
C691 C684 1.409 . S
C691 C690 1.362 . S
H692 C698 0.930 . S
H693 C701 0.930 . S
H694 C702 0.930 . S
H695 C703 0.930 . S
H696 C706 0.930 . S
H697 C707 0.930 . S
C698 H692 0.930 . S
C698 C699 1.355 . S
C698 C700 1.415 . S
C699 C698 1.355 . S
C699 C701 1.419 . S
C700 C698 1.415 . S
C700 C705 1.425 . S
C700 C707 1.409 . S
C701 H693 0.930 . S
C701 C699 1.419 . S
C701 C702 1.362 . S
C702 H694 0.930 . S
C702 C701 1.362 . S
C702 C705 1.409 . S
C703 H695 0.930 . S
C703 C704 1.355 . S
C703 C705 1.415 . S
C704 C703 1.355 . S
C704 C706 1.419 . S
C705 C700 1.425 . S
C705 C702 1.409 . S
C705 C703 1.415 . S
C706 H696 0.930 . S
C706 C704 1.419 . S
C706 C707 1.362 . S
C707 H697 0.930 . S
C707 C700 1.409 . S
C707 C706 1.362 . S
H708 C714 0.930 . S
H709 C717 0.930 . S
H710 C718 0.930 . S
H711 C719 0.930 . S
H712 C722 0.930 . S
H713 C723 0.930 . S
C714 H708 0.930 . S
C714 C715 1.355 . S
C714 C716 1.415 . S
C715 C714 1.355 . S
C715 C717 1.419 . S
C716 C714 1.415 . S
C716 C721 1.425 . S
C716 C723 1.409 . S
C717 H709 0.930 . S
C717 C715 1.419 . S
C717 C718 1.362 . S
C718 H710 0.930 . S
C718 C717 1.362 . S
C718 C721 1.409 . S
C719 H711 0.930 . S
C719 C720 1.355 . S
C719 C721 1.415 . S
C720 C719 1.355 . S
C720 C722 1.419 . S
C721 C716 1.425 . S
C721 C718 1.409 . S
C721 C719 1.415 . S
C722 H712 0.930 . S
C722 C720 1.419 . S
C722 C723 1.362 . S
C723 H713 0.930 . S
C723 C716 1.409 . S
C723 C722 1.362 . S
H724 C730 0.930 . S
H725 C733 0.930 . S
H726 C734 0.930 . S
H727 C735 0.930 . S
H728 C738 0.930 . S
H729 C739 0.938 . S
C730 H724 0.930 . S
C730 C731 1.355 . S
C730 C732 1.415 . S
C731 C730 1.355 . S
C731 C733 1.419 . S
C732 C730 1.415 . S
C732 C737 1.425 . S
C732 C739 1.425 . S
C733 H725 0.930 . S
C733 C731 1.419 . S
C733 C734 1.362 . S
C734 H726 0.930 . S
C734 C733 1.362 . S
C734 C737 1.409 . S
C735 H727 0.930 . S
C735 C736 1.355 . S
C735 C737 1.415 1_556 S
C736 C735 1.355 . S
C736 C738 1.419 . S
C737 C732 1.425 . S
C737 C734 1.409 . S
C737 C735 1.415 1_554 S
C738 H728 0.930 . S
C738 C736 1.419 . S
C738 C739 1.340 1_556 S
C739 H729 0.938 . S
C739 C732 1.425 . S
C739 C738 1.340 1_554 S
H740 C746 0.930 . S
H741 C749 0.930 . S
H742 C750 0.930 . S
H743 C751 0.930 . S
H744 C754 0.930 . S
H745 C755 0.930 . S
C746 H740 0.930 . S
C746 C747 1.355 . S
C746 C748 1.415 . S
C747 C746 1.355 . S
C747 C749 1.419 . S
C748 C746 1.415 . S
C748 C753 1.425 . S
C748 C755 1.409 . S
C749 H741 0.930 . S
C749 C747 1.419 . S
C749 C750 1.362 . S
C750 H742 0.930 . S
C750 C749 1.362 . S
C750 C753 1.409 . S
C751 H743 0.930 . S
C751 C752 1.355 . S
C751 C753 1.415 . S
C752 C751 1.355 . S
C752 C754 1.419 . S
C753 C748 1.425 . S
C753 C750 1.409 . S
C753 C751 1.415 . S
C754 H744 0.930 . S
C754 C752 1.419 . S
C754 C755 1.362 . S
C755 H745 0.930 . S
C755 C748 1.409 . S
C755 C754 1.362 . S
C384 C365 1.574 . S
C379 C45 1.565 . S
C395 C84 1.506 . S
C400 C299 1.498 . S
C411 C126 1.434 . S
C416 C313 1.441 . S
C427 C189 1.506 . S
C432 C327 1.467 . S
C448 C341 1.562 . S
C443 C228 1.579 . S
C459 C270 1.485 . S
C464 C351 1.552 . S
C475 C69 1.567 . S
C480 C309 1.591 . S
C491 C141 1.649 . S
C496 C323 1.659 . S
C507 C174 1.567 . S
C512 C337 1.616 . S
C528 C355 1.536 . S
C523 C213 1.545 . S
C544 C369 1.545 . S
C539 C285 1.560 . S
C560 C295 1.556 . S
C555 C30 1.530 . S
C571 C36 1.497 . S
C576 C310 1.406 . S
C587 C93 1.574 . S
C592 C324 1.471 . S
C608 C338 1.547 . S
C603 C117 1.584 . S
C619 C180 1.472 . S
C624 C357 1.437 . S
C640 C371 1.345 . S
C635 C237 1.448 . S
C656 C296 1.448 . S
C651 C261 1.489 . S
C672 C366 1.409 . S
C667 C78 1.481 . S
C683 C132 1.393 . S
C688 C301 1.301 . S
C704 C315 1.373 . S
C699 C165 1.390 . S
C715 C222 1.450 . S
C720 C329 1.379 . S
C731 C276 1.488 . S
C736 C343 1.395 . S
C747 C21 1.518 . S
C752 C352 1.464 . S
