# Generated by pormake.
# Topology tsx, (6,3)-cn, num edge types: 1
# Building blocks:
#     Node 0, Type 0, BuildingBlock: VOLQOD_clean_sbu_1, # of connection points: 6
#     Node 1, Type 0, BuildingBlock: VOLQOD_clean_sbu_1, # of connection points: 6
#     Node 2, Type 1, BuildingBlock: VETTIZ_charged_linker_0, # of connection points: 3
#     Node 3, Type 1, BuildingBlock: VETTIZ_charged_linker_0, # of connection points: 3
#     Node 4, Type 1, BuildingBlock: VETTIZ_charged_linker_0, # of connection points: 3
#     Node 5, Type 1, BuildingBlock: VETTIZ_charged_linker_0, # of connection points: 3
#     Edge 6, Type (0, 1), BuildingBlock: KIFKEQ_clean_linker_1, # of connection points: 2
#     Edge 7, Type (0, 1), BuildingBlock: KIFKEQ_clean_linker_1, # of connection points: 2
#     Edge 8, Type (0, 1), BuildingBlock: KIFKEQ_clean_linker_1, # of connection points: 2
#     Edge 9, Type (0, 1), BuildingBlock: KIFKEQ_clean_linker_1, # of connection points: 2
#     Edge 10, Type (0, 1), BuildingBlock: KIFKEQ_clean_linker_1, # of connection points: 2
#     Edge 11, Type (0, 1), BuildingBlock: KIFKEQ_clean_linker_1, # of connection points: 2
#     Edge 12, Type (0, 1), BuildingBlock: KIFKEQ_clean_linker_1, # of connection points: 2
#     Edge 13, Type (0, 1), BuildingBlock: KIFKEQ_clean_linker_1, # of connection points: 2
#     Edge 14, Type (0, 1), BuildingBlock: KIFKEQ_clean_linker_1, # of connection points: 2
#     Edge 15, Type (0, 1), BuildingBlock: KIFKEQ_clean_linker_1, # of connection points: 2
#     Edge 16, Type (0, 1), BuildingBlock: KIFKEQ_clean_linker_1, # of connection points: 2
#     Edge 17, Type (0, 1), BuildingBlock: KIFKEQ_clean_linker_1, # of connection points: 2
# Relax obj value: 0.078
# Max RMSD: 0.110
# Mean RMSD: 0.085
data_MOF--net-tsx--node1-VOLQOD_clean_sbu_1--node2-VETTIZ_charged_linker_0--edge1-KIFKEQ_clean_linker_1
_symmetry_space_group_name_H-M    P1
_symmetry_Int_Tables_number       1
_symmetry_cell_setting            triclinic
loop_
_symmetry_equiv_pos_as_xyz
'x, y, z'
_cell_length_a     25.128581
_cell_length_b     26.06727
_cell_length_c     49.841398
_cell_angle_alpha  90.275759
_cell_angle_beta   89.885245
_cell_angle_gamma 89.926625
loop_
_atom_site_label
_atom_site_type_symbol
_atom_site_fract_x
_atom_site_fract_y
_atom_site_fract_z
_atom_type_partial_charge
O0 O 0.04603 -0.0007 0.07742 0.0
Zn1 Zn 0.06778 -0.00038 0.03834 0.0
O2 O 0.00502 0.00235 0.01498 0.0
Zn3 Zn 0.00372 0.94192 0.99182 0.0
Zn4 Zn 0.94003 0.00359 0.03663 0.0
Zn5 Zn 0.00808 0.06376 0.99266 0.0
O6 O -0.00175 0.96137 0.95296 0.0
O7 O 0.0098 0.0458 0.95317 0.0
O8 O 0.11324 0.93706 0.03042 0.0
O9 O 0.07092 0.90155 0.99595 0.0
O10 O 0.94261 0.89505 0.00065 0.0
O11 O 0.89565 0.94077 0.02999 0.0
O12 O 0.89463 0.06533 0.0283 0.0
O13 O 0.11433 0.06166 0.03253 0.0
O14 O 0.94353 0.1079 0.99869 0.0
O15 O 0.0722 0.10651 0.00128 0.0
C16 C 0.00103 0.00147 0.08924 0.0
C17 C 0.00336 0.00365 0.94054 0.0
C18 C 0.90211 0.90056 0.01576 0.0
C19 C 0.1099 0.90274 0.01221 0.0
C20 C 0.90173 0.10369 0.01299 0.0
C21 C 0.11099 0.10075 0.01737 0.0
O22 O 0.95772 0.00384 0.07605 0.0
O23 O 0.5437 0.49005 0.57727 0.0
Zn24 Zn 0.5673 0.49324 0.53854 0.0
O25 O 0.50668 0.49822 0.51411 0.0
Zn26 Zn 0.50397 0.43723 0.49139 0.0
Zn27 Zn 0.44144 0.50308 0.53522 0.0
Zn28 Zn 0.51359 0.55876 0.49124 0.0
O29 O 0.49968 0.45581 0.45233 0.0
O30 O 0.516 0.53948 0.45194 0.0
O31 O 0.61276 0.43118 0.53023 0.0
O32 O 0.57004 0.39497 0.49609 0.0
O33 O 0.44076 0.39312 0.50022 0.0
O34 O 0.39508 0.44155 0.52892 0.0
O35 O 0.399 0.5653 0.52541 0.0
O36 O 0.61372 0.5557 0.53465 0.0
O37 O 0.45019 0.6057 0.49596 0.0
O38 O 0.57939 0.59891 0.50044 0.0
C39 C 0.49889 0.49789 0.58858 0.0
C40 C 0.50736 0.4974 0.43962 0.0
C41 C 0.40014 0.40073 0.51502 0.0
C42 C 0.60907 0.39634 0.51233 0.0
C43 C 0.40762 0.60289 0.50981 0.0
C44 C 0.61461 0.59354 0.51855 0.0
O45 O 0.45698 0.5058 0.57487 0.0
C46 C 0.09725 0.88332 0.46118 0.0
C47 C 0.12321 0.84184 0.44865 0.0
C48 C 0.11536 0.83291 0.42106 0.0
C49 C 0.05916 0.90807 0.41842 0.0
C50 C 0.06494 0.91557 0.44575 0.0
C51 C 0.03307 0.96076 0.45577 0.0
H52 H 0.87171 0.16109 0.42701 0.0
C53 C 0.02538 0.94956 0.40789 0.0
C54 C 0.00906 0.98008 0.42972 0.0
H55 H 0.92051 0.10906 0.50549 0.0
H56 H 0.97148 0.04032 0.48492 0.0
H57 H 0.9836 0.15121 0.39983 0.0
H58 H 0.84874 0.0501 0.40198 0.0
H59 H 0.87245 0.05164 0.36873 0.0
H60 H 0.84939 0.11001 0.38433 0.0
H61 H 0.92767 0.15999 0.37805 0.0
H62 H 0.98321 0.11955 0.36871 0.0
C63 C 0.07203 0.00023 0.46808 0.0
C64 C 0.99021 0.94112 0.47567 0.0
C65 C 0.0029 0.96916 0.307 0.0
C66 C 0.97929 0.00745 0.29122 0.0
C67 C 0.95264 0.04849 0.30391 0.0
C68 C 0.94971 0.05154 0.33195 0.0
C69 C 0.97426 0.01347 0.34753 0.0
C70 C 0.00041 0.97324 0.33503 0.0
C71 C 0.02642 0.93781 0.35484 0.0
C72 C 0.01143 0.9634 0.38127 0.0
C73 C 0.98065 0.00741 0.37682 0.0
C74 C 0.08725 0.93913 0.34968 0.0
C75 C 0.00086 0.88397 0.35189 0.0
C76 C 0.89406 0.13555 0.43986 0.0
C77 C 0.8925 0.14093 0.46792 0.0
C78 C 0.92099 0.10571 0.48382 0.0
C79 C 0.95061 0.06593 0.47184 0.0
C80 C 0.95159 0.06128 0.44368 0.0
C81 C 0.92354 0.09585 0.42827 0.0
C82 C 0.92827 0.0851 0.39873 0.0
C83 C 0.96273 0.03744 0.39888 0.0
C84 C 0.97663 0.02379 0.4252 0.0
C85 C 0.95679 0.13126 0.38543 0.0
C86 C 0.8719 0.07388 0.38762 0.0
H87 H 0.07967 0.85733 0.38491 0.0
H88 H 0.10195 0.89033 0.48249 0.0
H89 H 0.98015 0.90017 0.47185 0.0
H90 H 0.95193 0.96175 0.47365 0.0
H91 H 0.0041 0.94422 0.49677 0.0
H92 H 0.10609 0.007 0.45425 0.0
H93 H 0.08838 0.98603 0.48735 0.0
H94 H 0.05363 0.03807 0.47169 0.0
H95 H 0.02419 0.93753 0.29774 0.0
H96 H 0.93389 0.07819 0.29208 0.0
H97 H 0.92876 0.08367 0.34038 0.0
H98 H 0.10064 0.9789 0.3453 0.0
H99 H 0.09818 0.91466 0.33221 0.0
H100 H 0.11104 0.92712 0.36711 0.0
H101 H 0.95876 0.88682 0.34516 0.0
H102 H -0.00119 0.86311 0.37113 0.0
H103 H 0.0226 0.86017 0.33691 0.0
H104 H 0.13513 0.80116 0.41106 0.0
C105 C 0.0835 0.86577 0.40589 0.0
C106 C 0.10682 0.10582 0.56517 0.0
C107 C 0.1451 0.13762 0.57721 0.0
C108 C 0.14955 0.13902 0.60534 0.0
C109 C 0.07866 0.07694 0.60922 0.0
C110 C 0.07447 0.07531 0.58156 0.0
C111 C 0.03374 0.03681 0.5723 0.0
H112 H 0.85537 0.85285 0.60502 0.0
C113 C 0.0406 0.03992 0.6205 0.0
C114 C 0.01444 0.01578 0.599 0.0
H115 H 0.89485 0.90709 0.52555 0.0
H116 H 0.95798 0.96705 0.54469 0.0
H117 H 0.97168 0.85007 0.62799 0.0
H118 H 0.8479 0.96392 0.63149 0.0
H119 H 0.8776 0.96275 0.6633 0.0
H120 H 0.84556 0.90579 0.65058 0.0
H121 H 0.91476 0.84376 0.64951 0.0
H122 H 0.97406 0.87688 0.66034 0.0
C123 C 0.06259 -0.00456 0.55525 0.0
C124 C 0.9893 0.06587 0.55715 0.0
C125 C 0.02115 0.02394 0.72177 0.0
C126 C 0.99055 0.99143 0.7382 0.0
C127 C 0.95818 0.95391 0.72589 0.0
C128 C 0.95541 0.94955 0.69792 0.0
C129 C 0.98555 0.98279 0.68186 0.0
C130 C 0.01827 0.01871 0.69381 0.0
C131 C 0.04923 0.04913 0.67349 0.0
C132 C 0.0283 0.02652 0.64739 0.0
C133 C 0.99088 0.98799 0.65247 0.0
C134 C 0.10937 0.03784 0.67753 0.0
C135 C 0.03369 0.10634 0.67671 0.0
C136 C 0.87707 0.87797 0.59165 0.0
C137 C 0.86962 0.87557 0.56375 0.0
C138 C 0.89994 0.90807 0.54713 0.0
C139 C 0.9364 0.94296 0.5583 0.0
C140 C 0.94274 0.94514 0.58635 0.0
C141 C 0.91312 0.91295 0.60243 0.0
C142 C 0.92366 0.92084 0.63178 0.0
C143 C 0.96484 0.96306 0.63083 0.0
C144 C 0.97618 0.97707 0.60422 0.0
C145 C 0.94691 0.87036 0.64325 0.0
C146 C 0.87113 0.93894 0.64524 0.0
H147 H 0.12156 0.11203 0.64269 0.0
H148 H 0.10305 0.10392 0.54353 0.0
H149 H 0.98128 0.10377 0.56671 0.0
H150 H 0.95075 0.04563 0.55754 0.0
H151 H 0.00087 0.07289 0.53596 0.0
H152 H 0.10206 0.98601 0.56404 0.0
H153 H 0.06938 0.00915 0.53447 0.0
H154 H 0.04102 0.95865 0.55442 0.0
H155 H 0.04644 0.05326 0.73038 0.0
H156 H 0.93526 0.92733 0.73787 0.0
H157 H 0.92991 0.9203 0.68992 0.0
H158 H 0.11593 0.00025 0.6875 0.0
H159 H 0.12849 0.06772 0.6902 0.0
H160 H 0.13124 0.03456 0.6583 0.0
H161 H 0.98993 0.11038 0.67946 0.0
H162 H 0.0435 0.12959 0.65894 0.0
H163 H 0.05336 0.12362 0.69453 0.0
H164 H 0.17861 0.16371 0.61491 0.0
C165 C 0.11637 0.10908 0.62141 0.0
C166 C 0.5955 0.38619 0.9621 0.0
C167 C 0.62298 0.34527 0.94988 0.0
C168 C 0.6183 0.33755 0.922 0.0
C169 C 0.56047 0.41149 0.91874 0.0
C170 C 0.56406 0.41842 0.9462 0.0
C171 C 0.53044 0.46263 0.95589 0.0
H172 H 0.36203 0.65701 0.92602 0.0
C173 C 0.52497 0.45142 0.90798 0.0
C174 C 0.50627 0.48095 0.9297 0.0
H175 H 0.41838 0.61271 0.00452 0.0
H176 H 0.46868 0.543 0.98456 0.0
H177 H 0.4761 0.64376 0.8962 0.0
H178 H 0.33822 0.54749 0.90455 0.0
H179 H 0.36261 0.53697 0.87196 0.0
H180 H 0.33977 0.6002 0.88155 0.0
H181 H 0.41378 0.65708 0.88012 0.0
H182 H 0.46308 0.61639 0.86463 0.0
C183 C 0.56792 0.50332 0.96831 0.0
C184 C 0.48794 0.44159 0.97553 0.0
C185 C 0.50333 0.47003 0.80699 0.0
C186 C 0.47293 0.50343 0.79096 0.0
C187 C 0.43866 0.53889 0.80379 0.0
C188 C 0.43604 0.54222 0.83181 0.0
C189 C 0.46775 0.5096 0.84744 0.0
C190 C 0.49979 0.47353 0.83502 0.0
C191 C 0.52862 0.44037 0.85494 0.0
C192 C 0.51 0.46386 0.88132 0.0
C193 C 0.47482 0.50465 0.87676 0.0
C194 C 0.58918 0.44761 0.85059 0.0
C195 C 0.50906 0.38429 0.85142 0.0
C196 C 0.38582 0.63287 0.93896 0.0
C197 C 0.38676 0.64087 0.96686 0.0
C198 C 0.41697 0.60738 0.98296 0.0
C199 C 0.44628 0.56706 0.9713 0.0
C200 C 0.44527 0.56009 0.94326 0.0
C201 C 0.41522 0.59278 0.92768 0.0
C202 C 0.41846 0.58014 0.8983 0.0
C203 C 0.45528 0.53414 0.89867 0.0
C204 C 0.47099 0.52252 0.92501 0.0
C205 C 0.44381 0.62663 0.88382 0.0
C206 C 0.36195 0.56575 0.88833 0.0
H207 H 0.58582 0.36284 0.88524 0.0
H208 H 0.59798 0.39255 0.98356 0.0
H209 H 0.47561 0.40206 0.96978 0.0
H210 H 0.45069 0.4641 0.97541 0.0
H211 H 0.50363 0.44001 0.99632 0.0
H212 H 0.60359 0.50889 0.95538 0.0
H213 H 0.58197 0.49105 0.98837 0.0
H214 H 0.54943 0.54154 0.9702 0.0
H215 H 0.53012 0.44225 0.79803 0.0
H216 H 0.41345 0.56409 0.79217 0.0
H217 H 0.40947 0.57027 0.84022 0.0
H218 H 0.59885 0.48895 0.84804 0.0
H219 H 0.60284 0.4269 0.8323 0.0
H220 H 0.6133 0.43461 0.86772 0.0
H221 H 0.46885 0.38268 0.84213 0.0
H222 H 0.50433 0.36432 0.87083 0.0
H223 H 0.53644 0.3618 0.83836 0.0
H224 H 0.63954 0.30648 0.91218 0.0
C225 C 0.58732 0.37045 0.90638 0.0
C226 C 0.62124 0.59443 0.06576 0.0
C227 C 0.65851 0.62673 0.07826 0.0
C228 C 0.66135 0.62832 0.10645 0.0
C229 C 0.58974 0.56672 0.10946 0.0
C230 C 0.5877 0.56433 0.08175 0.0
C231 C 0.54703 0.52627 0.07198 0.0
H232 H 0.34956 0.35877 0.10136 0.0
C233 C 0.54912 0.53159 0.12023 0.0
C234 C 0.52375 0.50782 0.0984 0.0
H235 H 0.41077 0.3979 0.02308 0.0
H236 H 0.47386 0.45663 0.04345 0.0
H237 H 0.45968 0.34555 0.12802 0.0
H238 H 0.35304 0.47473 0.12735 0.0
H239 H 0.37597 0.46656 0.16041 0.0
H240 H 0.33899 0.41581 0.14447 0.0
H241 H 0.40288 0.34881 0.1498 0.0
H242 H 0.46641 0.37545 0.15942 0.0
C243 C 0.577 0.48275 0.05702 0.0
C244 C 0.50564 0.55509 0.05462 0.0
C245 C 0.52271 0.51815 0.22112 0.0
C246 C 0.4895 0.48755 0.23725 0.0
C247 C 0.45406 0.45315 0.22458 0.0
C248 C 0.4515 0.44956 0.19656 0.0
C249 C 0.48501 0.4803 0.18081 0.0
C250 C 0.52009 0.51359 0.19314 0.0
C251 C 0.55412 0.5418 0.17322 0.0
C252 C 0.53336 0.52014 0.14691 0.0
C253 C 0.49263 0.48452 0.15149 0.0
C254 C 0.6131 0.52691 0.17818 0.0
C255 C 0.54208 0.59987 0.17611 0.0
C256 C 0.37637 0.38039 0.08866 0.0
C257 C 0.37515 0.37449 0.06069 0.0
C258 C 0.41125 0.40215 0.04472 0.0
C259 C 0.4478 0.43599 0.05659 0.0
C260 C 0.44879 0.44132 0.0847 0.0
C261 C 0.41362 0.41346 0.10021 0.0
C262 C 0.42156 0.42214 0.12974 0.0
C263 C 0.46684 0.46045 0.12949 0.0
C264 C 0.48244 0.47184 0.10309 0.0
C265 C 0.43814 0.37047 0.14264 0.0
C266 C 0.36976 0.44577 0.14135 0.0
H267 H 0.63078 0.6021 0.14347 0.0
H268 H 0.61869 0.59229 0.04409 0.0
H269 H 0.49851 0.59447 0.06258 0.0
H270 H 0.46612 0.53668 0.05467 0.0
H271 H 0.51962 0.55875 0.03355 0.0
H272 H 0.61457 0.47286 0.0676 0.0
H273 H 0.58769 0.4946 0.03635 0.0
H274 H 0.55439 0.44654 0.05609 0.0
H275 H 0.55014 0.54535 0.22997 0.0
H276 H 0.42877 0.42821 0.23632 0.0
H277 H 0.42373 0.42264 0.18826 0.0
H278 H 0.61646 0.48771 0.18677 0.0
H279 H 0.6324 0.5539 0.19246 0.0
H280 H 0.63677 0.52512 0.15948 0.0
H281 H 0.49876 0.60646 0.17929 0.0
H282 H 0.5522 0.62199 0.15799 0.0
H283 H 0.56348 0.61662 0.19354 0.0
H284 H 0.68961 0.65333 0.11639 0.0
C285 C 0.62702 0.59873 0.12211 0.0
H286 H 0.21141 0.09283 0.03792 0.0
H287 H 0.10308 0.20026 0.00099 0.0
H288 H 0.27683 0.16137 0.04351 0.0
H289 H 0.16838 0.26875 0.00698 0.0
H290 H 0.26787 0.3753 0.0663 0.0
H291 H 0.205 0.30954 0.05138 0.0
H292 H 0.33381 0.22533 0.01422 0.0
H293 H 0.3967 0.2919 0.02882 0.0
C294 C 0.20172 0.13093 0.03084 0.0
C295 C 0.15199 0.14122 0.01917 0.0
C296 C 0.2393 0.16999 0.03385 0.0
C297 C 0.22749 0.22017 0.02564 0.0
C298 C 0.17828 0.23031 0.01349 0.0
C299 C 0.14106 0.1911 0.01005 0.0
C300 C 0.28242 0.34318 0.0545 0.0
C301 C 0.33683 0.33839 0.04863 0.0
C302 C 0.24658 0.30576 0.04592 0.0
C303 C 0.26474 0.26245 0.03174 0.0
C304 C 0.31901 0.25837 0.0252 0.0
C305 C 0.35477 0.29641 0.03337 0.0
H306 H 0.18547 0.87305 0.0489 0.0
H307 H 0.13234 0.84686 0.96752 0.0
H308 H 0.25835 0.81132 0.04175 0.0
H309 H 0.20514 0.78666 0.96048 0.0
H310 H 0.37658 0.73819 0.94782 0.0
H311 H 0.31224 0.80302 0.96187 0.0
H312 H 0.26147 0.7062 0.02698 0.0
H313 H 0.32491 0.63995 0.01243 0.0
C314 C 0.18933 0.85422 0.02957 0.0
C315 C 0.15321 0.86481 0.00876 0.0
C316 C 0.23079 0.81895 0.02556 0.0
C317 C 0.23729 0.79482 0.00053 0.0
C318 C 0.2011 0.80522 0.97988 0.0
C319 C 0.1593 0.83948 0.98399 0.0
C320 C 0.35199 0.7307 0.96524 0.0
C321 C 0.35498 0.68345 0.97865 0.0
C322 C 0.31548 0.76794 0.97333 0.0
C323 C 0.28176 0.75913 0.99526 0.0
C324 C 0.28731 0.71372 0.01003 0.0
C325 C 0.32361 0.67598 0.00172 0.0
H326 H 0.79981 0.90636 0.0339 0.0
H327 H 0.91695 0.79924 0.00346 0.0
H328 H 0.73925 0.83536 0.0429 0.0
H329 H 0.85632 0.72815 0.01283 0.0
H330 H 0.76624 0.63234 0.08065 0.0
H331 H 0.82364 0.69597 0.05933 0.0
H332 H 0.68709 0.76126 0.01954 0.0
H333 H 0.62966 0.69691 0.0407 0.0
C334 C 0.81234 0.86773 0.02881 0.0
C335 C 0.8633 0.85831 0.0182 0.0
C336 C 0.77752 0.82718 0.03377 0.0
C337 C 0.79327 0.7764 0.02858 0.0
C338 C 0.84339 0.76703 0.01705 0.0
C339 C 0.87794 0.8077 0.01165 0.0
C340 C 0.7488 0.65969 0.06692 0.0
C341 C 0.69373 0.6601 0.06233 0.0
C342 C 0.78157 0.69582 0.05462 0.0
C343 C 0.75965 0.73348 0.03788 0.0
C344 C 0.70481 0.73262 0.03244 0.0
C345 C 0.67212 0.69582 0.04439 0.0
H346 H 0.91085 0.20052 0.993 0.0
H347 H 0.79664 0.09484 0.02666 0.0
H348 H 0.83933 0.26106 0.98359 0.0
H349 H 0.72498 0.15557 0.01701 0.0
H350 H 0.62342 0.24095 0.95032 0.0
H351 H 0.6887 0.18473 0.97151 0.0
H352 H 0.76728 0.31684 0.00578 0.0
H353 H 0.70161 0.37318 0.98458 0.0
C354 C 0.87058 0.19051 0.99872 0.0
C355 C 0.85932 0.14271 0.01034 0.0
C356 C 0.82971 0.22536 0.99352 0.0
C357 C 0.77668 0.21287 0.99952 0.0
C358 C 0.76556 0.16596 0.01209 0.0
C359 C 0.80658 0.13134 0.01766 0.0
C360 C 0.65418 0.25781 0.96274 0.0
C361 C 0.65787 0.31127 0.9657 0.0
C362 C 0.69123 0.22571 0.97502 0.0
C363 C 0.73307 0.24653 0.99019 0.0
C364 C 0.73549 0.29992 0.99407 0.0
C365 C 0.69789 0.33203 0.98209 0.0
H366 H 0.6764 0.61084 0.56248 0.0
H367 H 0.64526 0.66707 0.48253 0.0
H368 H 0.73817 0.6815 0.56997 0.0
H369 H 0.70825 0.73751 0.49011 0.0
H370 H 0.87887 0.81427 0.51885 0.0
H371 H 0.8179 0.74573 0.50468 0.0
H372 H 0.71205 0.78455 0.56993 0.0
H373 H 0.77108 0.85391 0.58346 0.0
C374 C 0.68327 0.63779 0.54636 0.0
C375 C 0.65563 0.6336 0.52198 0.0
C376 C 0.71848 0.67823 0.55071 0.0
C377 C 0.72746 0.71476 0.53063 0.0
C378 C 0.70183 0.70958 0.50582 0.0
C379 C 0.66575 0.66951 0.50159 0.0
C380 C 0.84197 0.80894 0.52974 0.0
C381 C 0.83029 0.83884 0.5526 0.0
C382 C 0.80736 0.76969 0.5217 0.0
C383 C 0.76106 0.75967 0.53658 0.0
C384 C 0.74808 0.79117 0.55848 0.0
C385 C 0.78202 0.83064 0.56624 0.0
H386 H 0.68467 0.36841 0.54926 0.0
H387 H 0.63123 0.33821 0.46829 0.0
H388 H 0.75843 0.30753 0.54264 0.0
H389 H 0.70513 0.27882 0.46176 0.0
H390 H 0.88233 0.23984 0.45107 0.0
H391 H 0.81511 0.30207 0.465 0.0
H392 H 0.76085 0.19883 0.52657 0.0
H393 H 0.82694 0.13507 0.51201 0.0
C394 C 0.68858 0.34879 0.53015 0.0
C395 C 0.65222 0.35815 0.50927 0.0
C396 C 0.73054 0.31401 0.52645 0.0
C397 C 0.73725 0.28909 0.50167 0.0
C398 C 0.70072 0.29798 0.48098 0.0
C399 C 0.65838 0.33179 0.4848 0.0
C400 C 0.85637 0.23038 0.4677 0.0
C401 C 0.85919 0.18205 0.48005 0.0
C402 C 0.81823 0.26613 0.47572 0.0
C403 C 0.78283 0.25475 0.49661 0.0
C404 C 0.78803 0.20826 0.51044 0.0
C405 C 0.8259 0.17199 0.50215 0.0
H406 H 0.29871 0.41095 0.5339 0.0
H407 H 0.40901 0.29936 0.50135 0.0
H408 H 0.2345 0.34285 0.54238 0.0
H409 H 0.34461 0.23118 0.51008 0.0
H410 H 0.2528 0.13704 0.57753 0.0
H411 H 0.31235 0.19834 0.55595 0.0
H412 H 0.17722 0.27287 0.51944 0.0
H413 H 0.11753 0.21076 0.54094 0.0
C414 C 0.30897 0.37199 0.52824 0.0
C415 C 0.35914 0.36041 0.51725 0.0
C416 C 0.272 0.33311 0.53287 0.0
C417 C 0.28475 0.28186 0.52691 0.0
C418 C 0.334 0.27046 0.51491 0.0
C419 C 0.37073 0.30946 0.50991 0.0
C420 C 0.23608 0.16591 0.56442 0.0
C421 C 0.18085 0.16962 0.5609 0.0
C422 C 0.27005 0.20071 0.55197 0.0
C423 C 0.24926 0.24031 0.53611 0.0
C424 C 0.19409 0.24269 0.53165 0.0
C425 C 0.1601 0.20722 0.54379 0.0
H426 H 0.30394 0.59806 0.52616 0.0
H427 H 0.41631 0.69649 0.48554 0.0
H428 H 0.23259 0.65862 0.51629 0.0
H429 H 0.34472 0.75709 0.47589 0.0
H430 H 0.12342 0.73769 0.45115 0.0
H431 H 0.19165 0.68274 0.4709 0.0
H432 H 0.27595 0.81684 0.49898 0.0
H433 H 0.20721 0.87191 0.47931 0.0
C434 C 0.31362 0.63294 0.51549 0.0
C435 C 0.36575 0.64225 0.5064 0.0
C436 C 0.2727 0.66747 0.50981 0.0
C437 C 0.28321 0.71233 0.49529 0.0
C438 C 0.33568 0.72293 0.48731 0.0
C439 C 0.37654 0.68807 0.49268 0.0
C440 C 0.1561 0.75527 0.46194 0.0
C441 C 0.16033 0.80885 0.46371 0.0
C442 C 0.19492 0.72394 0.47334 0.0
C443 C 0.23905 0.74566 0.48636 0.0
C444 C 0.24238 0.79926 0.48892 0.0
C445 C 0.20301 0.83063 0.47787 0.0
H446 H 0.08004 0.02714 0.12448 0.0
H447 H 0.91704 0.97482 0.12107 0.0
H448 H 0.07555 0.02773 0.17354 0.0
H449 H 0.9131 0.97468 0.17008 0.0
H450 H 0.95542 0.92722 0.258 0.0
H451 H 0.96144 0.92467 0.20888 0.0
H452 H 0.01953 0.08043 0.20883 0.0
H453 H 0.01284 0.08321 0.25785 0.0
C454 C 0.0434 0.01552 0.13419 0.0
C455 C -0.00115 0.00106 0.11891 0.0
C456 C 0.04082 0.01607 0.16222 0.0
C457 C 0.994 0.0012 0.1755 0.0
C458 C 0.94975 0.986 0.16029 0.0
C459 C 0.95197 0.98638 0.13227 0.0
C460 C 0.96956 0.96078 0.24743 0.0
C461 C 0.98349 0.00546 0.2616 0.0
C462 C 0.97276 0.95941 0.21942 0.0
C463 C 0.99098 0.00235 0.20517 0.0
C464 C 0.00566 0.04675 0.21939 0.0
C465 C 0.0015 0.04844 0.24734 0.0
H466 H 0.9635 0.92909 0.90771 0.0
H467 H 0.03903 0.07796 0.90627 0.0
H468 H 0.96025 0.92858 0.85879 0.0
H469 H 0.0362 0.07694 0.85716 0.0
H470 H 0.07641 0.01494 0.77017 0.0
H471 H 0.07896 0.02082 0.81905 0.0
H472 H 0.91208 0.9828 0.82276 0.0
H473 H 0.90852 0.97905 0.77396 0.0
C474 C 0.97952 0.96165 0.89697 0.0
C475 C 0.0015 0.0036 0.91087 0.0
C476 C 0.97739 0.96142 0.86898 0.0
C477 C -0.00209 0.00274 0.85428 0.0
C478 C 0.02035 0.04451 0.86808 0.0
C479 C 0.02169 0.04516 0.89614 0.0
C480 C 0.03996 0.00873 0.7813 0.0
C481 C 0.9923 -0.0038 0.76799 0.0
C482 C 0.04158 0.01192 0.80931 0.0
C483 C 0.9958 0.00195 0.8246 0.0
C484 C 0.94811 0.98997 0.81141 0.0
C485 C 0.94625 0.98753 0.78344 0.0
H486 H 0.56866 0.45559 0.62433 0.0
H487 H 0.42107 0.54043 0.6199 0.0
H488 H 0.56237 0.4559 0.67335 0.0
H489 H 0.41544 0.54128 0.66885 0.0
H490 H 0.46774 0.58418 0.75587 0.0
H491 H 0.47306 0.58178 0.7071 0.0
H492 H 0.49625 0.41788 0.70922 0.0
H493 H 0.48831 0.41942 0.75805 0.0
C494 C 0.535 0.4744 0.6338 0.0
C495 C 0.49536 0.498 0.61824 0.0
C496 C 0.53131 0.4743 0.66181 0.0
C497 C 0.48846 0.49865 0.6748 0.0
C498 C 0.44903 0.5225 0.6593 0.0
C499 C 0.45218 0.52179 0.6313 0.0
C500 C 0.47299 0.54737 0.74607 0.0
C501 C 0.47719 0.50193 0.7611 0.0
C502 C 0.47638 0.54616 0.71809 0.0
C503 C 0.48502 0.49967 0.70447 0.0
C504 C 0.49003 0.4543 0.71932 0.0
C505 C 0.48573 0.45533 0.74731 0.0
H506 H 0.5476 0.56865 0.4049 0.0
H507 H 0.46241 0.42478 0.40724 0.0
H508 H 0.5436 0.56735 0.35583 0.0
H509 H 0.45795 0.42405 0.3583 0.0
H510 H 0.40751 0.47918 0.27351 0.0
H511 H 0.41253 0.48147 0.32233 0.0
H512 H 0.58168 0.50811 0.31772 0.0
H513 H 0.57757 0.50348 0.26888 0.0
C514 C 0.52796 0.53686 0.39497 0.0
C515 C 0.50535 0.4968 0.40994 0.0
C516 C 0.5259 0.53605 0.36693 0.0
C517 C 0.50036 0.49568 0.35338 0.0
C518 C 0.47751 0.45581 0.36831 0.0
C519 C 0.48036 0.45613 0.39629 0.0
C520 C 0.44599 0.48479 0.28279 0.0
C521 C 0.49217 0.49087 0.26709 0.0
C522 C 0.44871 0.48639 0.31077 0.0
C523 C 0.49747 0.49494 0.32371 0.0
C524 C 0.5435 0.50196 0.30818 0.0
C525 C 0.54098 0.49955 0.28019 0.0
loop_
_geom_bond_atom_site_label_1
_geom_bond_atom_site_label_2
_geom_bond_distance
_geom_bond_site_symmetry_2
_ccdc_geom_bond_type
O0 Zn1 1.953 . S
O0 C16 1.225 1_565 S
Zn1 O0 1.953 . S
Zn1 O2 1.949 1_565 S
Zn1 O8 1.919 . S
Zn1 O13 1.924 1_565 S
O2 Zn1 1.949 1_545 S
O2 Zn3 1.923 1_444 S
O2 Zn4 1.950 1_455 S
O2 Zn5 1.945 1_554 S
Zn3 O2 1.923 1_666 S
Zn3 O6 1.933 . S
Zn3 O9 1.941 1_655 S
Zn3 O10 1.961 1_556 S
Zn4 O2 1.950 1_655 S
Zn4 O11 1.938 1_545 S
Zn4 O12 1.906 . S
Zn4 O22 1.953 . S
Zn5 O2 1.945 1_556 S
Zn5 O7 1.932 . S
Zn5 O14 1.977 1_455 S
Zn5 O15 1.910 1_556 S
O6 Zn3 1.933 . S
O6 C17 1.226 1_665 S
O7 Zn5 1.932 . S
O7 C17 1.307 . S
O8 Zn1 1.919 . S
O8 C19 1.253 . S
O9 Zn3 1.941 1_455 S
O9 C19 1.283 1_556 S
O10 Zn3 1.961 1_554 S
O10 C18 1.318 . S
O11 Zn4 1.938 1_565 S
O11 C18 1.247 . S
O12 Zn4 1.906 . S
O12 C20 1.304 . S
O13 Zn1 1.924 1_545 S
O13 C21 1.311 . S
O14 Zn5 1.977 1_655 S
O14 C20 1.272 1_556 S
O15 Zn5 1.910 1_554 S
O15 C21 1.231 . S
C16 O0 1.225 1_545 S
C16 O22 1.298 1_455 S
C17 O6 1.226 1_445 S
C17 O7 1.307 . S
C18 O10 1.318 . S
C18 O11 1.247 . S
C19 O8 1.253 . S
C19 O9 1.283 1_554 S
C20 O12 1.304 . S
C20 O14 1.272 1_554 S
C21 O13 1.311 . S
C21 O15 1.231 . S
O22 Zn4 1.953 . S
O22 C16 1.298 1_655 S
O23 Zn24 1.953 . S
O23 C39 1.225 . S
Zn24 O23 1.953 . S
Zn24 O25 1.949 . S
Zn24 O31 1.919 . S
Zn24 O36 1.924 . S
O25 Zn24 1.949 . S
O25 Zn26 1.923 . S
O25 Zn27 1.950 . S
O25 Zn28 1.945 . S
Zn26 O25 1.923 . S
Zn26 O29 1.933 . S
Zn26 O32 1.941 . S
Zn26 O33 1.965 . S
Zn27 O25 1.950 . S
Zn27 O34 1.938 . S
Zn27 O35 1.906 . S
Zn27 O45 1.953 . S
Zn28 O25 1.945 . S
Zn28 O30 1.932 . S
Zn28 O37 1.977 . S
Zn28 O38 1.910 . S
O29 Zn26 1.933 . S
O29 C40 1.226 . S
O30 Zn28 1.932 . S
O30 C40 1.307 . S
O31 Zn24 1.919 . S
O31 C42 1.253 . S
O32 Zn26 1.941 . S
O32 C42 1.283 . S
O33 Zn26 1.965 . S
O33 C41 1.303 . S
O34 Zn27 1.938 . S
O34 C41 1.247 . S
O35 Zn27 1.906 . S
O35 C43 1.304 . S
O36 Zn24 1.924 . S
O36 C44 1.311 . S
O37 Zn28 1.977 . S
O37 C43 1.272 . S
O38 Zn28 1.910 . S
O38 C44 1.231 . S
C39 O23 1.225 . S
C39 O45 1.298 . S
C40 O29 1.226 . S
C40 O30 1.307 . S
C41 O33 1.303 . S
C41 O34 1.247 . S
C42 O31 1.253 . S
C42 O32 1.283 . S
C43 O35 1.304 . S
C43 O37 1.272 . S
C44 O36 1.311 . S
C44 O38 1.231 . S
O45 Zn27 1.953 . S
O45 C39 1.298 . S
C46 C47 1.391 . S
C46 C50 1.391 . S
C46 H88 0.948 . S
C47 C46 1.391 . S
C47 C48 1.391 . S
C48 C47 1.391 . S
C48 H104 0.947 . S
C48 C105 1.392 . S
C49 C50 1.391 . S
C49 C53 1.397 . S
C49 C105 1.419 . S
C50 C46 1.391 . S
C50 C49 1.391 . S
C50 C51 1.399 . S
C51 C50 1.399 . S
C51 C54 1.396 . S
C51 C63 1.453 1_565 S
C51 C64 1.684 1_455 S
H52 C76 0.948 . S
C53 C49 1.397 . S
C53 C54 1.394 . S
C53 C72 1.723 . S
C54 C51 1.396 . S
C54 C53 1.394 . S
C54 C84 1.723 1_465 S
H55 C78 0.947 . S
H56 C79 0.948 . S
H57 C85 0.982 . S
H58 C86 0.979 . S
H59 C86 0.980 . S
H60 C86 0.983 . S
H61 C85 0.979 . S
H62 C85 0.977 . S
C63 C51 1.453 1_545 S
C63 H92 0.982 . S
C63 H93 0.979 1_545 S
C63 H94 0.977 . S
C64 C51 1.684 1_655 S
C64 H89 0.979 . S
C64 H90 0.980 . S
C64 H91 0.983 1_655 S
C65 C66 1.391 1_465 S
C65 C70 1.391 . S
C65 H95 0.948 . S
C66 C65 1.391 1_645 S
C66 C67 1.391 . S
C67 C66 1.391 . S
C67 C68 1.392 . S
C67 H96 0.947 . S
C68 C67 1.392 . S
C68 C69 1.419 . S
C68 H97 0.948 . S
C69 C68 1.419 . S
C69 C70 1.391 1_645 S
C69 C73 1.397 . S
C70 C65 1.391 . S
C70 C69 1.391 1_465 S
C70 C71 1.399 . S
C71 C70 1.399 . S
C71 C72 1.396 . S
C71 C74 1.453 . S
C71 C75 1.684 . S
C72 C53 1.723 . S
C72 C71 1.396 . S
C72 C73 1.394 1_465 S
C73 C69 1.397 . S
C73 C72 1.394 1_645 S
C73 C83 1.723 . S
C74 C71 1.453 . S
C74 H98 0.982 . S
C74 H99 0.979 . S
C74 H100 0.977 . S
C75 C71 1.684 . S
C75 H101 0.979 . S
C75 H102 0.980 . S
C75 H103 0.983 . S
C76 H52 0.948 . S
C76 C77 1.391 . S
C76 C81 1.391 . S
C77 C76 1.391 . S
C77 C78 1.391 . S
C78 H55 0.947 . S
C78 C77 1.391 . S
C78 C79 1.392 . S
C79 H56 0.948 . S
C79 C78 1.392 . S
C79 C80 1.419 . S
C80 C79 1.419 . S
C80 C81 1.391 . S
C80 C84 1.397 . S
C81 C76 1.391 . S
C81 C80 1.391 . S
C81 C82 1.399 . S
C82 C81 1.399 . S
C82 C83 1.396 . S
C82 C85 1.453 . S
C82 C86 1.684 . S
C83 C73 1.723 . S
C83 C82 1.396 . S
C83 C84 1.394 . S
C84 C54 1.723 1_645 S
C84 C80 1.397 . S
C84 C83 1.394 . S
C85 H57 0.982 . S
C85 H61 0.979 . S
C85 H62 0.977 . S
C85 C82 1.453 . S
C86 H58 0.979 . S
C86 H59 0.980 . S
C86 H60 0.983 . S
C86 C82 1.684 . S
H87 C105 0.948 . S
H88 C46 0.948 . S
H89 C64 0.979 . S
H90 C64 0.980 . S
H91 C64 0.983 1_455 S
H92 C63 0.982 . S
H93 C63 0.979 1_565 S
H94 C63 0.977 . S
H95 C65 0.948 . S
H96 C67 0.947 . S
H97 C68 0.948 . S
H98 C74 0.982 . S
H99 C74 0.979 . S
H100 C74 0.977 . S
H101 C75 0.979 . S
H102 C75 0.980 . S
H103 C75 0.983 . S
H104 C48 0.947 . S
C105 C48 1.392 . S
C105 C49 1.419 . S
C105 H87 0.948 . S
C106 C107 1.391 . S
C106 C110 1.391 . S
C106 H148 0.948 . S
C107 C106 1.391 . S
C107 C108 1.391 . S
C108 C107 1.391 . S
C108 H164 0.947 . S
C108 C165 1.392 . S
C109 C110 1.391 . S
C109 C113 1.397 . S
C109 C165 1.419 . S
C110 C106 1.391 . S
C110 C109 1.391 . S
C110 C111 1.399 . S
C111 C110 1.399 . S
C111 C114 1.396 . S
C111 C123 1.452 . S
C111 C124 1.688 . S
H112 C136 0.948 . S
C113 C109 1.397 . S
C113 C114 1.394 . S
C113 C132 1.723 . S
C114 C111 1.396 . S
C114 C113 1.394 . S
C114 C144 1.723 1_445 S
H115 C138 0.947 . S
H116 C139 0.948 . S
H117 C145 0.982 . S
H118 C146 0.979 . S
H119 C146 0.980 . S
H120 C146 0.983 . S
H121 C145 0.979 . S
H122 C145 0.977 . S
C123 C111 1.452 . S
C123 H152 0.983 1_545 S
C123 H153 0.978 . S
C123 H154 0.978 1_545 S
C124 C111 1.688 . S
C124 H149 0.974 1_455 S
C124 H150 0.976 1_455 S
C124 H151 0.987 . S
C125 C126 1.391 . S
C125 C130 1.391 . S
C125 H155 0.948 . S
C126 C125 1.391 . S
C126 C127 1.391 1_445 S
C127 C126 1.391 1_665 S
C127 C128 1.392 . S
C127 H156 0.947 . S
C128 C127 1.392 . S
C128 C129 1.419 1_655 S
C128 H157 0.948 . S
C129 C128 1.419 1_455 S
C129 C130 1.391 1_565 S
C129 C133 1.397 . S
C130 C125 1.391 . S
C130 C129 1.391 1_545 S
C130 C131 1.399 . S
C131 C130 1.399 . S
C131 C132 1.396 . S
C131 C134 1.453 . S
C131 C135 1.684 . S
C132 C113 1.723 . S
C132 C131 1.396 . S
C132 C133 1.394 1_545 S
C133 C129 1.397 . S
C133 C132 1.394 1_565 S
C133 C143 1.723 1_455 S
C134 C131 1.453 . S
C134 H158 0.982 . S
C134 H159 0.979 . S
C134 H160 0.977 . S
C135 C131 1.684 . S
C135 H161 0.979 . S
C135 H162 0.980 . S
C135 H163 0.983 . S
C136 H112 0.948 . S
C136 C137 1.391 . S
C136 C141 1.391 . S
C137 C136 1.391 . S
C137 C138 1.391 . S
C138 H115 0.947 . S
C138 C137 1.391 . S
C138 C139 1.392 . S
C139 H116 0.948 . S
C139 C138 1.392 . S
C139 C140 1.419 . S
C140 C139 1.419 . S
C140 C141 1.391 . S
C140 C144 1.397 . S
C141 C136 1.391 . S
C141 C140 1.391 . S
C141 C142 1.399 . S
C142 C141 1.399 . S
C142 C143 1.396 . S
C142 C145 1.453 . S
C142 C146 1.684 . S
C143 C133 1.723 1_655 S
C143 C142 1.396 . S
C143 C144 1.394 . S
C144 C114 1.723 1_665 S
C144 C140 1.397 . S
C144 C143 1.394 . S
C145 H117 0.982 . S
C145 H121 0.979 . S
C145 H122 0.977 . S
C145 C142 1.453 . S
C146 H118 0.979 . S
C146 H119 0.980 . S
C146 H120 0.983 . S
C146 C142 1.684 . S
H147 C165 0.948 . S
H148 C106 0.948 . S
H149 C124 0.974 1_655 S
H150 C124 0.976 1_655 S
H151 C124 0.987 . S
H152 C123 0.983 1_565 S
H153 C123 0.978 . S
H154 C123 0.978 1_565 S
H155 C125 0.948 . S
H156 C127 0.947 . S
H157 C128 0.948 . S
H158 C134 0.982 . S
H159 C134 0.979 . S
H160 C134 0.977 . S
H161 C135 0.979 . S
H162 C135 0.980 . S
H163 C135 0.983 . S
H164 C108 0.947 . S
C165 C108 1.392 . S
C165 C109 1.419 . S
C165 H147 0.948 . S
C166 C167 1.391 . S
C166 C170 1.391 . S
C166 H208 0.948 . S
C167 C166 1.391 . S
C167 C168 1.391 . S
C168 C167 1.391 . S
C168 H224 0.947 . S
C168 C225 1.392 . S
C169 C170 1.391 . S
C169 C173 1.397 . S
C169 C225 1.419 . S
C170 C166 1.391 . S
C170 C169 1.391 . S
C170 C171 1.399 . S
C171 C170 1.399 . S
C171 C174 1.396 . S
C171 C183 1.453 . S
C171 C184 1.684 . S
H172 C196 0.948 . S
C173 C169 1.397 . S
C173 C174 1.394 . S
C173 C192 1.723 . S
C174 C171 1.396 . S
C174 C173 1.394 . S
C174 C204 1.723 . S
H175 C198 0.947 . S
H176 C199 0.948 . S
H177 C205 0.982 . S
H178 C206 0.979 . S
H179 C206 0.980 . S
H180 C206 0.983 . S
H181 C205 0.979 . S
H182 C205 0.977 . S
C183 C171 1.453 . S
C183 H212 0.982 . S
C183 H213 0.979 . S
C183 H214 0.977 . S
C184 C171 1.684 . S
C184 H209 0.979 . S
C184 H210 0.980 . S
C184 H211 0.983 . S
C185 C186 1.391 . S
C185 C190 1.391 . S
C185 H215 0.948 . S
C186 C185 1.391 . S
C186 C187 1.391 . S
C187 C186 1.391 . S
C187 C188 1.392 . S
C187 H216 0.947 . S
C188 C187 1.392 . S
C188 C189 1.419 . S
C188 H217 0.948 . S
C189 C188 1.419 . S
C189 C190 1.391 . S
C189 C193 1.397 . S
C190 C185 1.391 . S
C190 C189 1.391 . S
C190 C191 1.399 . S
C191 C190 1.399 . S
C191 C192 1.396 . S
C191 C194 1.453 . S
C191 C195 1.684 . S
C192 C173 1.723 . S
C192 C191 1.396 . S
C192 C193 1.394 . S
C193 C189 1.397 . S
C193 C192 1.394 . S
C193 C203 1.723 . S
C194 C191 1.453 . S
C194 H218 0.982 . S
C194 H219 0.979 . S
C194 H220 0.977 . S
C195 C191 1.684 . S
C195 H221 0.979 . S
C195 H222 0.980 . S
C195 H223 0.983 . S
C196 H172 0.948 . S
C196 C197 1.391 . S
C196 C201 1.391 . S
C197 C196 1.391 . S
C197 C198 1.391 . S
C198 H175 0.947 . S
C198 C197 1.391 . S
C198 C199 1.392 . S
C199 H176 0.948 . S
C199 C198 1.392 . S
C199 C200 1.419 . S
C200 C199 1.419 . S
C200 C201 1.391 . S
C200 C204 1.397 . S
C201 C196 1.391 . S
C201 C200 1.391 . S
C201 C202 1.399 . S
C202 C201 1.399 . S
C202 C203 1.396 . S
C202 C205 1.453 . S
C202 C206 1.684 . S
C203 C193 1.723 . S
C203 C202 1.396 . S
C203 C204 1.394 . S
C204 C174 1.723 . S
C204 C200 1.397 . S
C204 C203 1.394 . S
C205 H177 0.982 . S
C205 H181 0.979 . S
C205 H182 0.977 . S
C205 C202 1.453 . S
C206 H178 0.979 . S
C206 H179 0.980 . S
C206 H180 0.983 . S
C206 C202 1.684 . S
H207 C225 0.948 . S
H208 C166 0.948 . S
H209 C184 0.979 . S
H210 C184 0.980 . S
H211 C184 0.983 . S
H212 C183 0.982 . S
H213 C183 0.979 . S
H214 C183 0.977 . S
H215 C185 0.948 . S
H216 C187 0.947 . S
H217 C188 0.948 . S
H218 C194 0.982 . S
H219 C194 0.979 . S
H220 C194 0.977 . S
H221 C195 0.979 . S
H222 C195 0.980 . S
H223 C195 0.983 . S
H224 C168 0.947 . S
C225 C168 1.392 . S
C225 C169 1.419 . S
C225 H207 0.948 . S
C226 C227 1.391 . S
C226 C230 1.391 . S
C226 H268 0.948 . S
C227 C226 1.391 . S
C227 C228 1.391 . S
C228 C227 1.391 . S
C228 H284 0.947 . S
C228 C285 1.392 . S
C229 C230 1.391 . S
C229 C233 1.397 . S
C229 C285 1.419 . S
C230 C226 1.391 . S
C230 C229 1.391 . S
C230 C231 1.399 . S
C231 C230 1.399 . S
C231 C234 1.396 . S
C231 C243 1.453 . S
C231 C244 1.684 . S
H232 C256 0.948 . S
C233 C229 1.397 . S
C233 C234 1.394 . S
C233 C252 1.723 . S
C234 C231 1.396 . S
C234 C233 1.394 . S
C234 C264 1.723 . S
H235 C258 0.947 . S
H236 C259 0.948 . S
H237 C265 0.982 . S
H238 C266 0.979 . S
H239 C266 0.980 . S
H240 C266 0.983 . S
H241 C265 0.979 . S
H242 C265 0.977 . S
C243 C231 1.453 . S
C243 H272 0.982 . S
C243 H273 0.979 . S
C243 H274 0.977 . S
C244 C231 1.684 . S
C244 H269 0.979 . S
C244 H270 0.980 . S
C244 H271 0.983 . S
C245 C246 1.391 . S
C245 C250 1.391 . S
C245 H275 0.948 . S
C246 C245 1.391 . S
C246 C247 1.391 . S
C247 C246 1.391 . S
C247 C248 1.392 . S
C247 H276 0.947 . S
C248 C247 1.392 . S
C248 C249 1.419 . S
C248 H277 0.948 . S
C249 C248 1.419 . S
C249 C250 1.391 . S
C249 C253 1.397 . S
C250 C245 1.391 . S
C250 C249 1.391 . S
C250 C251 1.399 . S
C251 C250 1.399 . S
C251 C252 1.396 . S
C251 C254 1.453 . S
C251 C255 1.684 . S
C252 C233 1.723 . S
C252 C251 1.396 . S
C252 C253 1.394 . S
C253 C249 1.397 . S
C253 C252 1.394 . S
C253 C263 1.723 . S
C254 C251 1.453 . S
C254 H278 0.982 . S
C254 H279 0.979 . S
C254 H280 0.977 . S
C255 C251 1.684 . S
C255 H281 0.979 . S
C255 H282 0.980 . S
C255 H283 0.983 . S
C256 H232 0.948 . S
C256 C257 1.391 . S
C256 C261 1.391 . S
C257 C256 1.391 . S
C257 C258 1.391 . S
C258 H235 0.947 . S
C258 C257 1.391 . S
C258 C259 1.392 . S
C259 H236 0.948 . S
C259 C258 1.392 . S
C259 C260 1.419 . S
C260 C259 1.419 . S
C260 C261 1.391 . S
C260 C264 1.397 . S
C261 C256 1.391 . S
C261 C260 1.391 . S
C261 C262 1.399 . S
C262 C261 1.399 . S
C262 C263 1.396 . S
C262 C265 1.453 . S
C262 C266 1.684 . S
C263 C253 1.723 . S
C263 C262 1.396 . S
C263 C264 1.394 . S
C264 C234 1.723 . S
C264 C260 1.397 . S
C264 C263 1.394 . S
C265 H237 0.982 . S
C265 H241 0.979 . S
C265 H242 0.977 . S
C265 C262 1.453 . S
C266 H238 0.979 . S
C266 H239 0.980 . S
C266 H240 0.983 . S
C266 C262 1.684 . S
H267 C285 0.948 . S
H268 C226 0.948 . S
H269 C244 0.979 . S
H270 C244 0.980 . S
H271 C244 0.983 . S
H272 C243 0.982 . S
H273 C243 0.979 . S
H274 C243 0.977 . S
H275 C245 0.948 . S
H276 C247 0.947 . S
H277 C248 0.948 . S
H278 C254 0.982 . S
H279 C254 0.979 . S
H280 C254 0.977 . S
H281 C255 0.979 . S
H282 C255 0.980 . S
H283 C255 0.983 . S
H284 C228 0.947 . S
C285 C228 1.392 . S
C285 C229 1.419 . S
C285 H267 0.948 . S
H286 C294 0.950 . S
H287 C299 0.950 . S
H288 C296 0.950 . S
H289 C298 0.950 . S
H290 C300 0.950 . S
H291 C302 0.950 . S
H292 C304 0.950 . S
H293 C305 0.950 . S
C294 H286 0.950 . S
C294 C295 1.386 . S
C294 C296 1.391 . S
C295 C294 1.386 . S
C295 C299 1.393 . S
C296 H288 0.950 . S
C296 C294 1.391 . S
C296 C297 1.400 . S
C297 C296 1.400 . S
C297 C298 1.398 . S
C297 C303 1.491 . S
C298 H289 0.950 . S
C298 C297 1.398 . S
C298 C299 1.391 . S
C299 H287 0.950 . S
C299 C295 1.393 . S
C299 C298 1.391 . S
C300 H290 0.950 . S
C300 C301 1.386 . S
C300 C302 1.391 . S
C301 C300 1.386 . S
C301 C305 1.393 . S
C302 H291 0.950 . S
C302 C300 1.391 . S
C302 C303 1.400 . S
C303 C297 1.491 . S
C303 C302 1.400 . S
C303 C304 1.398 . S
C304 H292 0.950 . S
C304 C303 1.398 . S
C304 C305 1.391 . S
C305 H293 0.950 . S
C305 C301 1.393 . S
C305 C304 1.391 . S
H306 C314 0.950 . S
H307 C319 0.950 . S
H308 C316 0.950 . S
H309 C318 0.950 . S
H310 C320 0.950 . S
H311 C322 0.950 . S
H312 C324 0.950 1_554 S
H313 C325 0.950 1_554 S
C314 H306 0.950 . S
C314 C315 1.386 1_554 S
C314 C316 1.391 . S
C315 C314 1.386 1_556 S
C315 C319 1.393 . S
C316 H308 0.950 . S
C316 C314 1.391 . S
C316 C317 1.400 1_554 S
C317 C316 1.400 1_556 S
C317 C318 1.398 . S
C317 C323 1.491 . S
C318 H309 0.950 . S
C318 C317 1.398 . S
C318 C319 1.391 . S
C319 H307 0.950 . S
C319 C315 1.393 . S
C319 C318 1.391 . S
C320 H310 0.950 . S
C320 C321 1.386 . S
C320 C322 1.391 . S
C321 C320 1.386 . S
C321 C325 1.393 . S
C322 H311 0.950 . S
C322 C320 1.391 . S
C322 C323 1.400 . S
C323 C317 1.491 . S
C323 C322 1.400 . S
C323 C324 1.398 . S
C324 H312 0.950 1_556 S
C324 C323 1.398 . S
C324 C325 1.391 . S
C325 H313 0.950 1_556 S
C325 C321 1.393 . S
C325 C324 1.391 . S
H326 C334 0.950 . S
H327 C339 0.950 . S
H328 C336 0.950 . S
H329 C338 0.950 . S
H330 C340 0.950 . S
H331 C342 0.950 . S
H332 C344 0.950 . S
H333 C345 0.950 . S
C334 H326 0.950 . S
C334 C335 1.386 . S
C334 C336 1.391 . S
C335 C334 1.386 . S
C335 C339 1.393 . S
C336 H328 0.950 . S
C336 C334 1.391 . S
C336 C337 1.400 . S
C337 C336 1.400 . S
C337 C338 1.398 . S
C337 C343 1.491 . S
C338 H329 0.950 . S
C338 C337 1.398 . S
C338 C339 1.391 . S
C339 H327 0.950 . S
C339 C335 1.393 . S
C339 C338 1.391 . S
C340 H330 0.950 . S
C340 C341 1.386 . S
C340 C342 1.391 . S
C341 C340 1.386 . S
C341 C345 1.393 . S
C342 H331 0.950 . S
C342 C340 1.391 . S
C342 C343 1.400 . S
C343 C337 1.491 . S
C343 C342 1.400 . S
C343 C344 1.398 . S
C344 H332 0.950 . S
C344 C343 1.398 . S
C344 C345 1.391 . S
C345 H333 0.950 . S
C345 C341 1.393 . S
C345 C344 1.391 . S
H346 C354 0.950 . S
H347 C359 0.950 . S
H348 C356 0.950 . S
H349 C358 0.950 . S
H350 C360 0.950 . S
H351 C362 0.950 . S
H352 C364 0.950 . S
H353 C365 0.950 . S
C354 H346 0.950 . S
C354 C355 1.386 . S
C354 C356 1.391 . S
C355 C354 1.386 . S
C355 C359 1.393 . S
C356 H348 0.950 . S
C356 C354 1.391 . S
C356 C357 1.400 . S
C357 C356 1.400 . S
C357 C358 1.398 . S
C357 C363 1.491 . S
C358 H349 0.950 . S
C358 C357 1.398 . S
C358 C359 1.391 . S
C359 H347 0.950 . S
C359 C355 1.393 . S
C359 C358 1.391 . S
C360 H350 0.950 . S
C360 C361 1.386 . S
C360 C362 1.391 . S
C361 C360 1.386 . S
C361 C365 1.393 . S
C362 H351 0.950 . S
C362 C360 1.391 . S
C362 C363 1.400 . S
C363 C357 1.491 . S
C363 C362 1.400 . S
C363 C364 1.398 . S
C364 H352 0.950 . S
C364 C363 1.398 . S
C364 C365 1.391 . S
C365 H353 0.950 . S
C365 C361 1.393 . S
C365 C364 1.391 . S
H366 C374 0.950 . S
H367 C379 0.950 . S
H368 C376 0.950 . S
H369 C378 0.950 . S
H370 C380 0.950 . S
H371 C382 0.950 . S
H372 C384 0.950 . S
H373 C385 0.950 . S
C374 H366 0.950 . S
C374 C375 1.386 . S
C374 C376 1.391 . S
C375 C374 1.386 . S
C375 C379 1.393 . S
C376 H368 0.950 . S
C376 C374 1.391 . S
C376 C377 1.400 . S
C377 C376 1.400 . S
C377 C378 1.398 . S
C377 C383 1.491 . S
C378 H369 0.950 . S
C378 C377 1.398 . S
C378 C379 1.391 . S
C379 H367 0.950 . S
C379 C375 1.393 . S
C379 C378 1.391 . S
C380 H370 0.950 . S
C380 C381 1.386 . S
C380 C382 1.391 . S
C381 C380 1.386 . S
C381 C385 1.393 . S
C382 H371 0.950 . S
C382 C380 1.391 . S
C382 C383 1.400 . S
C383 C377 1.491 . S
C383 C382 1.400 . S
C383 C384 1.398 . S
C384 H372 0.950 . S
C384 C383 1.398 . S
C384 C385 1.391 . S
C385 H373 0.950 . S
C385 C381 1.393 . S
C385 C384 1.391 . S
H386 C394 0.950 . S
H387 C399 0.950 . S
H388 C396 0.950 . S
H389 C398 0.950 . S
H390 C400 0.950 . S
H391 C402 0.950 . S
H392 C404 0.950 . S
H393 C405 0.950 . S
C394 H386 0.950 . S
C394 C395 1.386 . S
C394 C396 1.391 . S
C395 C394 1.386 . S
C395 C399 1.393 . S
C396 H388 0.950 . S
C396 C394 1.391 . S
C396 C397 1.400 . S
C397 C396 1.400 . S
C397 C398 1.398 . S
C397 C403 1.491 . S
C398 H389 0.950 . S
C398 C397 1.398 . S
C398 C399 1.391 . S
C399 H387 0.950 . S
C399 C395 1.393 . S
C399 C398 1.391 . S
C400 H390 0.950 . S
C400 C401 1.386 . S
C400 C402 1.391 . S
C401 C400 1.386 . S
C401 C405 1.393 . S
C402 H391 0.950 . S
C402 C400 1.391 . S
C402 C403 1.400 . S
C403 C397 1.491 . S
C403 C402 1.400 . S
C403 C404 1.398 . S
C404 H392 0.950 . S
C404 C403 1.398 . S
C404 C405 1.391 . S
C405 H393 0.950 . S
C405 C401 1.393 . S
C405 C404 1.391 . S
H406 C414 0.950 . S
H407 C419 0.950 . S
H408 C416 0.950 . S
H409 C418 0.950 . S
H410 C420 0.950 . S
H411 C422 0.950 . S
H412 C424 0.950 . S
H413 C425 0.950 . S
C414 H406 0.950 . S
C414 C415 1.386 . S
C414 C416 1.391 . S
C415 C414 1.386 . S
C415 C419 1.393 . S
C416 H408 0.950 . S
C416 C414 1.391 . S
C416 C417 1.400 . S
C417 C416 1.400 . S
C417 C418 1.398 . S
C417 C423 1.491 . S
C418 H409 0.950 . S
C418 C417 1.398 . S
C418 C419 1.391 . S
C419 H407 0.950 . S
C419 C415 1.393 . S
C419 C418 1.391 . S
C420 H410 0.950 . S
C420 C421 1.386 . S
C420 C422 1.391 . S
C421 C420 1.386 . S
C421 C425 1.393 . S
C422 H411 0.950 . S
C422 C420 1.391 . S
C422 C423 1.400 . S
C423 C417 1.491 . S
C423 C422 1.400 . S
C423 C424 1.398 . S
C424 H412 0.950 . S
C424 C423 1.398 . S
C424 C425 1.391 . S
C425 H413 0.950 . S
C425 C421 1.393 . S
C425 C424 1.391 . S
H426 C434 0.950 . S
H427 C439 0.950 . S
H428 C436 0.950 . S
H429 C438 0.950 . S
H430 C440 0.950 . S
H431 C442 0.950 . S
H432 C444 0.950 . S
H433 C445 0.950 . S
C434 H426 0.950 . S
C434 C435 1.386 . S
C434 C436 1.391 . S
C435 C434 1.386 . S
C435 C439 1.393 . S
C436 H428 0.950 . S
C436 C434 1.391 . S
C436 C437 1.400 . S
C437 C436 1.400 . S
C437 C438 1.398 . S
C437 C443 1.491 . S
C438 H429 0.950 . S
C438 C437 1.398 . S
C438 C439 1.391 . S
C439 H427 0.950 . S
C439 C435 1.393 . S
C439 C438 1.391 . S
C440 H430 0.950 . S
C440 C441 1.386 . S
C440 C442 1.391 . S
C441 C440 1.386 . S
C441 C445 1.393 . S
C442 H431 0.950 . S
C442 C440 1.391 . S
C442 C443 1.400 . S
C443 C437 1.491 . S
C443 C442 1.400 . S
C443 C444 1.398 . S
C444 H432 0.950 . S
C444 C443 1.398 . S
C444 C445 1.391 . S
C445 H433 0.950 . S
C445 C441 1.393 . S
C445 C444 1.391 . S
H446 C454 0.950 . S
H447 C459 0.950 . S
H448 C456 0.950 . S
H449 C458 0.950 . S
H450 C460 0.950 . S
H451 C462 0.950 . S
H452 C464 0.950 . S
H453 C465 0.950 . S
C454 H446 0.950 . S
C454 C455 1.386 . S
C454 C456 1.391 . S
C455 C454 1.386 . S
C455 C459 1.393 1_445 S
C456 H448 0.950 . S
C456 C454 1.391 . S
C456 C457 1.400 . S
C457 C456 1.400 . S
C457 C458 1.398 1_445 S
C457 C463 1.491 . S
C458 H449 0.950 . S
C458 C457 1.398 1_665 S
C458 C459 1.391 . S
C459 H447 0.950 . S
C459 C455 1.393 1_665 S
C459 C458 1.391 . S
C460 H450 0.950 . S
C460 C461 1.386 1_655 S
C460 C462 1.391 . S
C461 C460 1.386 1_455 S
C461 C465 1.393 1_565 S
C462 H451 0.950 . S
C462 C460 1.391 . S
C462 C463 1.400 1_665 S
C463 C457 1.491 . S
C463 C462 1.400 1_445 S
C463 C464 1.398 . S
C464 H452 0.950 . S
C464 C463 1.398 . S
C464 C465 1.391 . S
C465 H453 0.950 . S
C465 C461 1.393 1_545 S
C465 C464 1.391 . S
H466 C474 0.950 . S
H467 C479 0.950 . S
H468 C476 0.950 . S
H469 C478 0.950 . S
H470 C480 0.950 . S
H471 C482 0.950 . S
H472 C484 0.950 . S
H473 C485 0.950 . S
C474 H466 0.950 . S
C474 C475 1.386 1_655 S
C474 C476 1.391 . S
C475 C474 1.386 1_455 S
C475 C479 1.393 1_545 S
C476 H468 0.950 . S
C476 C474 1.391 . S
C476 C477 1.400 1_655 S
C477 C476 1.400 1_455 S
C477 C478 1.398 1_545 S
C477 C483 1.491 . S
C478 H469 0.950 . S
C478 C477 1.398 1_565 S
C478 C479 1.391 . S
C479 H467 0.950 . S
C479 C475 1.393 1_565 S
C479 C478 1.391 . S
C480 H470 0.950 . S
C480 C481 1.386 1_565 S
C480 C482 1.391 . S
C481 C480 1.386 1_545 S
C481 C485 1.393 1_455 S
C482 H471 0.950 . S
C482 C480 1.391 . S
C482 C483 1.400 1_565 S
C483 C477 1.491 . S
C483 C482 1.400 1_545 S
C483 C484 1.398 1_455 S
C484 H472 0.950 . S
C484 C483 1.398 1_655 S
C484 C485 1.391 . S
C485 H473 0.950 . S
C485 C481 1.393 1_655 S
C485 C484 1.391 . S
H486 C494 0.950 . S
H487 C499 0.950 . S
H488 C496 0.950 . S
H489 C498 0.950 . S
H490 C500 0.950 . S
H491 C502 0.950 . S
H492 C504 0.950 . S
H493 C505 0.950 . S
C494 H486 0.950 . S
C494 C495 1.386 . S
C494 C496 1.391 . S
C495 C494 1.386 . S
C495 C499 1.393 . S
C496 H488 0.950 . S
C496 C494 1.391 . S
C496 C497 1.400 . S
C497 C496 1.400 . S
C497 C498 1.398 . S
C497 C503 1.491 . S
C498 H489 0.950 . S
C498 C497 1.398 . S
C498 C499 1.391 . S
C499 H487 0.950 . S
C499 C495 1.393 . S
C499 C498 1.391 . S
C500 H490 0.950 . S
C500 C501 1.386 . S
C500 C502 1.391 . S
C501 C500 1.386 . S
C501 C505 1.393 . S
C502 H491 0.950 . S
C502 C500 1.391 . S
C502 C503 1.400 . S
C503 C497 1.491 . S
C503 C502 1.400 . S
C503 C504 1.398 . S
C504 H492 0.950 . S
C504 C503 1.398 . S
C504 C505 1.391 . S
C505 H493 0.950 . S
C505 C501 1.393 . S
C505 C504 1.391 . S
H506 C514 0.950 . S
H507 C519 0.950 . S
H508 C516 0.950 . S
H509 C518 0.950 . S
H510 C520 0.950 . S
H511 C522 0.950 . S
H512 C524 0.950 . S
H513 C525 0.950 . S
C514 H506 0.950 . S
C514 C515 1.386 . S
C514 C516 1.391 . S
C515 C514 1.386 . S
C515 C519 1.393 . S
C516 H508 0.950 . S
C516 C514 1.391 . S
C516 C517 1.400 . S
C517 C516 1.400 . S
C517 C518 1.398 . S
C517 C523 1.491 . S
C518 H509 0.950 . S
C518 C517 1.398 . S
C518 C519 1.391 . S
C519 H507 0.950 . S
C519 C515 1.393 . S
C519 C518 1.391 . S
C520 H510 0.950 . S
C520 C521 1.386 . S
C520 C522 1.391 . S
C521 C520 1.386 . S
C521 C525 1.393 . S
C522 H511 0.950 . S
C522 C520 1.391 . S
C522 C523 1.400 . S
C523 C517 1.491 . S
C523 C522 1.400 . S
C523 C524 1.398 . S
C524 H512 0.950 . S
C524 C523 1.398 . S
C524 C525 1.391 . S
C525 H513 0.950 . S
C525 C521 1.393 . S
C525 C524 1.391 . S
C301 C257 1.454 . S
C295 C21 1.443 . S
C315 C19 1.437 1_556 S
C321 C197 1.451 . S
C335 C18 1.405 . S
C341 C227 1.339 . S
C355 C20 1.436 1_556 S
C361 C167 1.386 . S
C375 C44 1.446 . S
C381 C137 1.447 . S
C395 C42 1.437 . S
C401 C77 1.451 . S
C421 C107 1.343 . S
C415 C41 1.402 . S
C441 C47 1.381 . S
C435 C43 1.433 . S
C455 C16 1.492 . S
C461 C66 1.477 1_465 S
C475 C17 1.456 . S
C481 C126 1.426 . S
C501 C186 1.462 . S
C495 C39 1.491 . S
C515 C40 1.455 . S
C521 C246 1.430 . S
