# Generated by pormake.
# Topology zzz, (3,6)-cn, num edge types: 1
# Building blocks:
#     Node 0, Type 0, BuildingBlock: PAMTOO_clean_linker_0, # of connection points: 3
#     Node 1, Type 0, BuildingBlock: PAMTOO_clean_linker_0, # of connection points: 3
#     Node 2, Type 0, BuildingBlock: PAMTOO_clean_linker_0, # of connection points: 3
#     Node 3, Type 0, BuildingBlock: PAMTOO_clean_linker_0, # of connection points: 3
#     Node 4, Type 0, BuildingBlock: PAMTOO_clean_linker_0, # of connection points: 3
#     Node 5, Type 0, BuildingBlock: PAMTOO_clean_linker_0, # of connection points: 3
#     Node 6, Type 0, BuildingBlock: PAMTOO_clean_linker_0, # of connection points: 3
#     Node 7, Type 0, BuildingBlock: PAMTOO_clean_linker_0, # of connection points: 3
#     Node 8, Type 1, BuildingBlock: FUNLAD_clean_sbu_0, # of connection points: 6
#     Node 9, Type 1, BuildingBlock: FUNLAD_clean_sbu_0, # of connection points: 6
#     Node 10, Type 1, BuildingBlock: FUNLAD_clean_sbu_0, # of connection points: 6
#     Node 11, Type 1, BuildingBlock: FUNLAD_clean_sbu_0, # of connection points: 6
#     Edge 12, Type (0, 1), BuildingBlock: OJICUG_clean_linker_0, # of connection points: 2
#     Edge 13, Type (0, 1), BuildingBlock: OJICUG_clean_linker_0, # of connection points: 2
#     Edge 14, Type (0, 1), BuildingBlock: OJICUG_clean_linker_0, # of connection points: 2
#     Edge 15, Type (0, 1), BuildingBlock: OJICUG_clean_linker_0, # of connection points: 2
#     Edge 16, Type (0, 1), BuildingBlock: OJICUG_clean_linker_0, # of connection points: 2
#     Edge 17, Type (0, 1), BuildingBlock: OJICUG_clean_linker_0, # of connection points: 2
#     Edge 18, Type (0, 1), BuildingBlock: OJICUG_clean_linker_0, # of connection points: 2
#     Edge 19, Type (0, 1), BuildingBlock: OJICUG_clean_linker_0, # of connection points: 2
#     Edge 20, Type (0, 1), BuildingBlock: OJICUG_clean_linker_0, # of connection points: 2
#     Edge 21, Type (0, 1), BuildingBlock: OJICUG_clean_linker_0, # of connection points: 2
#     Edge 22, Type (0, 1), BuildingBlock: OJICUG_clean_linker_0, # of connection points: 2
#     Edge 23, Type (0, 1), BuildingBlock: OJICUG_clean_linker_0, # of connection points: 2
#     Edge 24, Type (0, 1), BuildingBlock: OJICUG_clean_linker_0, # of connection points: 2
#     Edge 25, Type (0, 1), BuildingBlock: OJICUG_clean_linker_0, # of connection points: 2
#     Edge 26, Type (0, 1), BuildingBlock: OJICUG_clean_linker_0, # of connection points: 2
#     Edge 27, Type (0, 1), BuildingBlock: OJICUG_clean_linker_0, # of connection points: 2
#     Edge 28, Type (0, 1), BuildingBlock: OJICUG_clean_linker_0, # of connection points: 2
#     Edge 29, Type (0, 1), BuildingBlock: OJICUG_clean_linker_0, # of connection points: 2
#     Edge 30, Type (0, 1), BuildingBlock: OJICUG_clean_linker_0, # of connection points: 2
#     Edge 31, Type (0, 1), BuildingBlock: OJICUG_clean_linker_0, # of connection points: 2
#     Edge 32, Type (0, 1), BuildingBlock: OJICUG_clean_linker_0, # of connection points: 2
#     Edge 33, Type (0, 1), BuildingBlock: OJICUG_clean_linker_0, # of connection points: 2
#     Edge 34, Type (0, 1), BuildingBlock: OJICUG_clean_linker_0, # of connection points: 2
#     Edge 35, Type (0, 1), BuildingBlock: OJICUG_clean_linker_0, # of connection points: 2
# Relax obj value: 0.110
# Max RMSD: 0.175
# Mean RMSD: 0.092
data_MOF--net-zzz--node1-FUNLAD_clean_sbu_0--node2-PAMTOO_clean_linker_0--edge1-OJICUG_clean_linker_0
_symmetry_space_group_name_H-M    P1
_symmetry_Int_Tables_number       1
_symmetry_cell_setting            triclinic
loop_
_symmetry_equiv_pos_as_xyz
'x, y, z'
_cell_length_a     36.795367
_cell_length_b     42.925775
_cell_length_c     13.295606
_cell_angle_alpha  83.195741
_cell_angle_beta   82.223086
_cell_angle_gamma 89.416375
loop_
_atom_site_label
_atom_site_type_symbol
_atom_site_fract_x
_atom_site_fract_y
_atom_site_fract_z
_atom_type_partial_charge
H0 H 0.92938 0.48189 0.30184 0.0
H1 H 0.83405 0.49618 0.14783 0.0
H2 H 0.83317 0.52414 0.44804 0.0
H3 H 0.74675 0.50866 0.38362 0.0
C4 C 0.76402 0.50244 0.31369 0.0
O5 O 0.79491 0.52132 0.29478 0.0
H6 H 0.77116 0.47717 0.32926 0.0
C7 C 0.9008 0.48846 0.30248 0.0
C8 C 0.8831 0.50223 0.38592 0.0
C9 C 0.88371 0.48636 0.21575 0.0
C10 C 0.84755 0.49698 0.21502 0.0
C11 C 0.8291 0.50999 0.29925 0.0
C12 C 0.84699 0.51299 0.38461 0.0
H13 H 1.02656 0.87939 0.19961 0.0
H14 H 0.04923 0.80712 0.00213 0.0
H15 H 0.97484 0.78914 0.28236 0.0
H16 H 1.01941 0.73128 0.22465 0.0
C17 C 0.02781 0.74049 0.14312 0.0
O18 O 1.00578 0.76549 0.11669 0.0
H19 H 0.05703 0.7481 0.13527 0.0
C20 C 1.02312 0.85549 0.18328 0.0
C21 C 0.99869 0.83568 0.25065 0.0
C22 C 0.04186 0.84565 0.09404 0.0
C23 C 0.03573 0.81508 0.07201 0.0
C24 C 1.01178 0.79465 0.14001 0.0
C25 C 0.9934 0.80486 0.23015 0.0
H26 H 0.67734 0.02234 0.2005 0.0
H27 H 0.77556 0.01503 -0.01026 0.0
H28 H 0.77871 0.99676 0.31462 0.0
H29 H 0.84745 0.02941 0.20378 0.0
C30 C 0.8438 0.02511 0.12488 0.0
O31 O 0.81845 1.00113 0.13115 0.0
H32 H 0.83359 0.04717 0.08555 0.0
C33 C 0.7067 0.01836 0.18638 0.0
C34 C 0.72574 1.00944 0.26882 0.0
C35 C 0.7242 0.02037 0.0861 0.0
C36 C 0.76184 0.01401 0.0675 0.0
C37 C 0.78185 1.00624 0.14985 0.0
C38 C 0.76359 1.00344 0.25104 0.0
H39 H 0.54689 0.6095 0.21748 0.0
H40 H 0.53132 0.69417 0.02005 0.0
H41 H 0.57665 0.69878 0.29982 0.0
H42 H 0.52455 0.7535 0.23822 0.0
C43 C 0.52879 0.75175 0.15463 0.0
O44 O 0.5577 0.73166 0.13354 0.0
H45 H 0.50318 0.74233 0.13327 0.0
C46 C 0.54856 0.63485 0.20085 0.0
C47 C 0.56347 0.65217 0.26837 0.0
C48 C 0.53626 0.64965 0.11202 0.0
C49 C 0.53992 0.68236 0.08947 0.0
C50 C 0.55429 0.70014 0.15707 0.0
C51 C 0.56568 0.68506 0.24743 0.0
H52 H 0.17555 0.54643 0.18828 0.0
H53 H 0.27369 0.53972 0.33213 0.0
H54 H 0.27307 0.50703 0.03874 0.0
H55 H 0.33919 0.47284 0.17855 0.0
C56 C 0.32335 0.48663 0.23497 0.0
O57 O 0.31309 0.51469 0.18439 0.0
H58 H 0.29888 0.47227 0.27085 0.0
C59 C 0.20455 0.54116 0.18582 0.0
C60 C 0.2224 0.52733 0.1028 0.0
C61 C 0.22241 0.54533 0.26965 0.0
C62 C 0.25948 0.53706 0.26733 0.0
C63 C 0.27776 0.52342 0.18401 0.0
C64 C 0.2591 0.51813 0.10209 0.0
H65 H 0.07854 0.14853 0.30057 0.0
H66 H 0.0502 0.22274 0.487 0.0
H67 H 0.12514 0.24038 0.20757 0.0
H68 H 0.14448 0.27952 0.3667 0.0
C69 C 0.11899 0.27424 0.42098 0.0
O70 O 0.09184 0.26501 0.36816 0.0
H71 H 0.12486 0.25495 0.48034 0.0
C72 C 0.0807 0.17285 0.31399 0.0
C73 C 0.10429 0.19294 0.24497 0.0
C74 C 0.06063 0.18318 0.40062 0.0
C75 C 0.06475 0.21441 0.41899 0.0
C76 C 0.08807 0.23501 0.34959 0.0
C77 C 0.10745 0.22441 0.26145 0.0
H78 H 0.42281 1.00373 0.2921 0.0
H79 H 0.32223 0.9998 0.49941 0.0
H80 H 0.31986 0.01546 0.17358 0.0
H81 H 0.25433 0.04517 0.28296 0.0
C82 C 0.25958 0.0356 0.36105 0.0
O83 O 0.27929 1.00812 0.35542 0.0
H84 H 0.27567 0.05366 0.39005 0.0
C85 C 0.39303 1.0046 0.30504 0.0
C86 C 0.37369 1.01041 0.22176 0.0
C87 C 0.3749 1.00054 0.40468 0.0
C88 C 0.3365 1.00246 0.42205 0.0
C89 C 0.31646 1.00759 0.33863 0.0
C90 C 0.33517 1.01151 0.23799 0.0
H91 H 0.5569 0.41157 0.27914 0.0
H92 H 0.57499 0.32638 0.47125 0.0
H93 H 0.52612 0.32264 0.19655 0.0
H94 H 0.49297 0.27645 0.37441 0.0
C95 C 0.51633 0.2755 0.41973 0.0
O96 O 0.54679 0.28931 0.35926 0.0
H97 H 0.50815 0.28868 0.48647 0.0
C98 C 0.5555 0.38619 0.29483 0.0
C99 C 0.54 0.36906 0.22791 0.0
C100 C 0.56865 0.37118 0.3821 0.0
C101 C 0.56568 0.33837 0.40306 0.0
C102 C 0.55012 0.32086 0.3368 0.0
C103 C 0.53777 0.33619 0.24821 0.0
C104 C 0.07362 0.95963 0.84986 0.0
N105 N 1.01862 0.97456 0.59883 0.0
C106 C 0.04277 0.95242 0.56673 0.0
C107 C 0.03085 0.92661 0.52603 0.0
C108 C 0.99354 0.92312 0.51795 0.0
C109 C 0.96924 0.947 0.5467 0.0
C110 C 0.98242 0.97261 0.58809 0.0
Zn111 Zn 0.03863 1.00396 0.68997 0.0
C112 C 0.98466 1.01071 0.87662 0.0
N113 N 0.08479 0.05434 0.89899 0.0
C114 C 0.12098 0.05586 0.91026 0.0
C115 C 0.06094 0.07678 0.93027 0.0
C116 C 0.07322 0.10255 0.97033 0.0
C117 C 0.11057 0.10564 0.97863 0.0
C118 C 0.13452 0.08142 0.95102 0.0
Zn119 Zn 0.06466 0.02511 0.80798 0.0
O120 O 0.05643 0.96326 0.77287 0.0
C121 C 0.11885 0.01903 0.6226 0.0
O122 O 0.08235 0.98364 0.88924 0.0
H123 H 0.03247 0.07576 0.91902 0.0
H124 H 0.07124 0.95371 0.57775 0.0
H125 H 0.13966 0.03807 0.88353 0.0
O126 O 0.09085 1.00787 0.59223 0.0
O127 O 0.11551 0.02817 0.71077 0.0
H128 H 0.96347 0.99011 0.61559 0.0
O129 O 0.04678 0.06596 0.72485 0.0
O130 O 1.02105 0.04537 0.60848 0.0
O131 O 1.01324 0.02141 0.90494 0.0
O132 O 0.98707 1.00124 0.78882 0.0
C133 C 0.02971 0.06947 0.64756 0.0
H134 H 0.05081 0.90935 0.50183 0.0
H135 H 0.9403 0.94538 0.54039 0.0
H136 H 0.05353 0.12009 -0.00615 0.0
H137 H 0.16345 0.08274 0.95775 0.0
C138 C 0.49443 1.00003 0.63387 0.0
N139 N 0.54643 0.08374 0.67104 0.0
C140 C 0.54761 0.0907 0.56805 0.0
C141 C 0.54487 0.12172 0.52421 0.0
C142 C 0.54064 0.14611 0.58661 0.0
C143 C 0.54005 0.13829 0.69272 0.0
C144 C 0.54299 0.10685 0.73347 0.0
Zn145 Zn 0.54849 0.03699 0.72867 0.0
C146 C 0.49279 0.01757 0.89899 0.0
N147 N 0.55197 0.93787 0.8238 0.0
C148 C 0.54818 0.91326 0.77004 0.0
C149 C 0.55463 0.93294 0.9256 0.0
C150 C 0.55312 0.90269 0.97744 0.0
C151 C 0.54813 0.87678 0.92528 0.0
C152 C 0.54617 0.88238 0.81951 0.0
Zn153 Zn 0.55076 0.98449 0.76206 0.0
O154 O 0.50723 0.02695 0.64118 0.0
C155 C 0.60657 1.00366 0.59187 0.0
O156 O 0.50923 0.97555 0.67393 0.0
H157 H 0.55717 0.95263 0.96788 0.0
H158 H 0.55034 0.07207 0.51951 0.0
H159 H 0.54583 0.91757 0.68936 0.0
O160 O 0.59177 0.02969 0.6105 0.0
O161 O 0.5932 0.97822 0.64152 0.0
H162 H 0.54201 0.10087 0.81515 0.0
O163 O 0.59267 0.99483 0.8471 0.0
O164 O 0.58939 0.0462 0.81816 0.0
O165 O 0.50804 0.99172 0.88102 0.0
O166 O 0.50564 0.04299 0.84841 0.0
C167 C 0.60484 0.02181 0.85614 0.0
H168 H 0.54609 0.1265 0.44202 0.0
H169 H 0.53641 0.15617 0.74419 0.0
H170 H 0.55557 0.89975 0.05824 0.0
H171 H 0.542 0.86326 0.77593 0.0
C172 C 0.58159 0.4649 0.63628 0.0
N173 N 0.47819 0.50635 0.65254 0.0
C174 C 0.48781 0.50678 0.54987 0.0
C175 C 0.46131 0.50505 0.48552 0.0
C176 C 0.4241 0.50308 0.52611 0.0
C177 C 0.41465 0.50251 0.63262 0.0
C178 C 0.44234 0.50423 0.6949 0.0
Zn179 Zn 0.52197 0.50908 0.73236 0.0
C180 C 0.52729 0.46125 0.89502 0.0
N181 N 0.62333 0.51412 0.84804 0.0
C182 C 0.65972 0.51351 0.81133 0.0
C183 C 0.61209 0.51503 0.94959 0.0
C184 C 0.63727 0.51577 0.0181 0.0
C185 C 0.67487 0.51515 -0.01665 0.0
C186 C 0.68619 0.5138 0.87841 0.0
Zn187 Zn 0.58006 0.5117 0.76495 0.0
O188 O 0.54865 0.47445 0.64727 0.0
C189 C 0.57471 0.55964 0.60221 0.0
O190 O 0.60573 0.47763 0.67815 0.0
H191 H 0.58322 0.51461 0.97882 0.0
H192 H 0.51635 0.50836 0.5171 0.0
H193 H 0.6682 0.51243 0.73069 0.0
O194 O 0.54307 0.54696 0.6216 0.0
O195 O 0.60044 0.54871 0.65091 0.0
H196 H 0.43524 0.50393 0.77667 0.0
O197 O 0.55339 0.54658 0.84823 0.0
O198 O 0.49615 0.543 0.81989 0.0
O199 O 0.55887 0.47398 0.87587 0.0
O200 O 0.50167 0.47204 0.84588 0.0
C201 C 0.52047 0.556 0.86021 0.0
H202 H 0.47012 0.50479 0.40453 0.0
H203 H 0.38624 0.5011 0.66719 0.0
H204 H 0.62725 0.51596 0.0985 0.0
H205 H 0.71505 0.51312 0.84874 0.0
C206 C 0.10669 0.53883 0.59348 0.0
N207 N 0.07038 0.44625 0.68555 0.0
C208 C 0.07396 0.44565 0.58259 0.0
C209 C 0.08103 0.41759 0.54061 0.0
C210 C 0.08412 0.38954 0.6049 0.0
C211 C 0.08029 0.39081 0.71116 0.0
C212 C 0.07347 0.41956 0.75003 0.0
Zn213 Zn 0.05939 0.48891 0.73797 0.0
C214 C 0.10898 0.50874 0.86266 0.0
N215 N 0.03649 0.58196 0.80672 0.0
C216 C 0.0347 0.61012 0.74847 0.0
C217 C 0.03323 0.58018 0.91049 0.0
C218 C 0.02799 0.60703 0.95968 0.0
C219 C 1.02636 0.63645 0.90226 0.0
C220 C 0.02979 0.63789 0.79502 0.0
Zn221 Zn 0.04712 0.53967 0.74965 0.0
O222 O 0.0994 0.51 0.62196 0.0
C223 C 0.99743 0.5198 0.62493 0.0
O224 O 0.08661 0.55987 0.63169 0.0
H225 H 0.03554 0.55783 0.9559 0.0
H226 H 0.07132 0.46706 0.53248 0.0
H227 H 0.03767 0.61113 0.66608 0.0
O228 O 1.01673 0.49564 0.64488 0.0
O229 O 1.00503 0.54557 0.65608 0.0
H230 H 0.07041 0.42052 0.83166 0.0
O231 O 1.00725 0.51855 0.86462 0.0
O232 O 1.01975 0.46868 0.8561 0.0
O233 O 0.08985 0.53288 0.84183 0.0
O234 O 0.10129 0.48296 0.83214 0.0
C235 C 0.99975 0.48983 0.89359 0.0
H236 H 0.08446 0.41805 0.45828 0.0
H237 H 0.08205 0.36978 0.76394 0.0
H238 H 1.02641 0.60478 0.04217 0.0
H239 H 0.02875 0.66016 0.74785 0.0
C240 C 0.19275 0.01857 0.39231 0.0
C241 C 0.22352 0.0296 0.42994 0.0
H242 H 0.13547 1.00666 0.42318 0.0
C243 C 0.22005 0.0356 0.5323 0.0
H244 H 0.19485 0.01349 0.31385 0.0
C245 C 0.18618 0.0319 0.59467 0.0
C246 C 0.15499 0.02174 0.55653 0.0
H247 H 0.24345 0.04376 0.56353 0.0
H248 H 0.18442 0.03727 0.67277 0.0
C249 C 0.15881 0.01471 0.4549 0.0
C250 C 0.54591 0.2355 0.53839 0.0
C251 C 0.52437 0.24201 0.45897 0.0
H252 H 0.56823 0.20027 0.64055 0.0
C253 C 0.50937 0.2169 0.4193 0.0
H254 H 0.55794 0.25451 0.56973 0.0
C255 C 0.5149 0.18591 0.46014 0.0
C256 C 0.53581 0.17923 0.54132 0.0
H257 H 0.49269 0.22126 0.35798 0.0
H258 H 0.50198 0.16722 0.42956 0.0
C259 C 0.55151 0.20447 0.57932 0.0
C260 C 0.34191 0.47615 0.41267 0.0
C261 C 0.34724 0.49284 0.31421 0.0
H262 H 0.36191 0.46631 0.55725 0.0
C263 C 0.37667 0.51407 0.28814 0.0
H264 H 0.31958 0.45941 0.43431 0.0
C265 C 0.40052 0.51836 0.35861 0.0
C266 C 0.39598 0.50104 0.45633 0.0
H267 H 0.38154 0.52706 0.21255 0.0
H268 H 0.42294 0.53495 0.33575 0.0
C269 C 0.36599 0.48027 0.48322 0.0
C270 C 0.12302 0.30915 0.55889 0.0
C271 C 0.10783 0.30323 0.47156 0.0
H272 H 0.12778 0.34088 0.66909 0.0
C273 C 0.08468 0.3258 0.42855 0.0
H274 H 0.14163 0.29247 0.59217 0.0
C275 C 0.07632 0.35333 0.47324 0.0
C276 C 0.09158 0.35938 0.56065 0.0
H277 H 0.0731 0.32227 0.36006 0.0
H278 H 0.05787 0.36992 0.43895 0.0
C279 C 0.11493 0.33683 0.60315 0.0
C280 C 0.8818 1.00782 0.96711 0.0
C281 C 0.88013 0.01728 0.06531 0.0
H282 H 0.91605 0.99783 0.83083 0.0
C283 C 0.91311 0.02302 0.1025 0.0
H284 H 0.85678 1.00381 0.93585 0.0
C285 C 0.94695 0.01989 0.04245 0.0
C286 C 0.94874 1.01107 0.94329 0.0
H287 H 0.91271 0.0308 0.17721 0.0
H288 H 0.97172 0.02515 0.07304 0.0
C289 C 0.91574 1.00451 0.90698 0.0
C290 C 0.55392 0.78793 -0.0056 0.0
C291 C 0.5359 0.78396 0.09546 0.0
H292 H 0.57275 0.82023 0.8621 0.0
C293 C 0.52104 0.81041 0.13831 0.0
H294 H 0.56476 0.76785 0.95821 0.0
C295 C 0.52491 0.84023 0.08292 0.0
C296 C 0.54374 0.84455 -0.01734 0.0
H297 H 0.50598 0.80795 0.21471 0.0
H298 H 0.51247 0.85987 0.1185 0.0
C299 C 0.55807 0.81792 0.9389 0.0
C300 C 0.74995 0.48848 0.14306 0.0
C301 C 0.74301 0.50721 0.22338 0.0
H302 H 0.73388 0.47643 0.00306 0.0
C303 C 0.71653 0.53084 0.21788 0.0
H304 H 0.77072 0.47043 0.14495 0.0
C305 C 0.69573 0.53442 0.13687 0.0
C306 C 0.70118 0.5146 0.05909 0.0
H307 H 0.71129 0.54602 0.27772 0.0
H308 H 0.67467 0.55225 0.13634 0.0
C309 C 0.72918 0.49212 0.06153 0.0
C310 C 0.04663 0.71617 0.97977 0.0
C311 C 1.02465 0.71521 0.07517 0.0
H312 H 0.06447 0.69192 0.84983 0.0
C313 C 1.00015 0.69006 0.10724 0.0
H314 H 0.06529 0.73566 0.95281 0.0
C315 C 0.99943 0.66523 0.04834 0.0
C316 C 1.02304 0.66512 0.95573 0.0
H317 H 0.98238 0.68914 0.17949 0.0
H318 H 0.981 0.64568 0.07662 0.0
C319 C 0.0459 0.69131 0.92058 0.0
C320 C 1.02025 0.1356 0.44088 0.0
C321 C 0.03969 0.15943 0.47562 0.0
H322 H 1.002 0.08774 0.46824 0.0
C323 C 0.04677 0.15583 0.57721 0.0
H324 H 1.01367 0.13816 0.36333 0.0
C325 C 0.03959 0.12717 0.6377 0.0
C326 C 1.02561 0.10161 0.59697 0.0
H327 H 0.06147 0.17379 0.60638 0.0
H328 H 0.04829 0.12425 0.7129 0.0
C329 C 1.01359 0.10672 0.50078 0.0
C330 C 0.40624 0.02367 0.53071 0.0
C331 C 0.39798 0.99694 0.48717 0.0
H332 H 0.4438 0.04571 0.60954 0.0
C333 C 0.41979 0.97003 0.49948 0.0
H334 H 0.39031 0.04488 0.51973 0.0
C335 C 0.45065 0.97044 0.55032 0.0
C336 C 0.46051 0.99804 0.58712 0.0
H337 H 0.41429 0.94945 0.4639 0.0
H338 H 0.46777 0.9498 0.55601 0.0
C339 C 0.43733 0.02428 0.57985 0.0
C340 C 0.60422 0.41708 0.41945 0.0
C341 C 0.58165 0.39065 0.45516 0.0
H342 H 0.62273 0.46176 0.45139 0.0
C343 C 0.56617 0.38625 0.55821 0.0
H344 H 0.61671 0.42087 0.34035 0.0
C345 C 0.56975 0.40952 0.62111 0.0
C346 C 0.58931 0.43724 0.58247 0.0
H347 H 0.54845 0.36631 0.58762 0.0
H348 H 0.55469 0.40702 0.69758 0.0
C349 C 0.60801 0.44031 0.48289 0.0
C350 C 0.17091 0.57342 0.36377 0.0
C351 C 0.1996 0.55142 0.36543 0.0
H352 H 0.1182 0.58673 0.43645 0.0
C353 C 0.20039 0.52958 0.45222 0.0
H354 H 0.16988 0.59059 0.2976 0.0
C355 C 0.17081 0.5271 0.52972 0.0
C356 C 0.14026 0.5467 0.52252 0.0
H357 H 0.22194 0.51225 0.45554 0.0
H358 H 0.17084 0.5085 0.59247 0.0
C359 C 0.14135 0.57115 0.44249 0.0
C360 C 0.05612 0.87337 0.91798 0.0
C361 C 0.06305 0.86947 0.01973 0.0
H362 H 0.05503 0.9052 0.7828 0.0
C363 C 0.08285 0.89299 0.05497 0.0
H364 H 0.04125 0.85568 0.88806 0.0
C365 C 0.08971 0.92198 -0.00421 0.0
C366 C 0.07771 0.9274 0.89965 0.0
H367 H 0.08959 0.89016 0.13236 0.0
H368 H 0.10146 0.94078 0.02879 0.0
C369 C 0.06364 0.90206 0.85812 0.0
C370 C 0.67768 0.05115 -0.00242 0.0
C371 C 0.70074 0.02485 0.00443 0.0
H372 H 0.62884 0.07089 0.94478 0.0
C373 C 0.69412 0.99916 0.9537 0.0
H374 H 0.68206 0.07099 0.03795 0.0
C375 C 0.66322 0.99865 0.9038 0.0
C376 C 0.63871 0.02403 0.90261 0.0
H377 H 0.71114 0.97844 0.95972 0.0
H378 H 0.65792 0.9779 0.8688 0.0
C379 C 0.64703 0.05089 0.94591 0.0
C380 C 0.53744 0.63443 0.93628 0.0
C381 C 0.52275 0.63009 0.03996 0.0
H382 H 0.54733 0.61371 0.79658 0.0
C383 C 0.49985 0.60393 0.0768 0.0
H384 H 0.55533 0.65418 0.90585 0.0
C385 C 0.49508 0.58082 0.01377 0.0
C386 C 0.51305 0.58378 0.91339 0.0
H387 H 0.4878 0.60025 0.15629 0.0
H388 H 0.48025 0.55949 0.04607 0.0
C389 C 0.5328 0.61132 0.87369 0.0
C390 C 0.93474 0.45703 0.12369 0.0
C391 C 0.90673 0.47968 0.12081 0.0
H392 H 0.98708 0.44242 0.05224 0.0
C393 C 0.90644 0.50105 0.03266 0.0
H394 H 0.93527 0.44 0.19048 0.0
C395 C 0.93589 0.50248 0.95507 0.0
C396 C 0.96595 0.48242 0.96376 0.0
H397 H 0.88545 0.51884 0.02787 0.0
H398 H 0.93626 0.52075 0.89122 0.0
C399 C 0.96432 0.45837 0.04513 0.0
C400 C 0.10752 0.18611 0.0627 0.0
C401 C 0.12265 0.17974 0.15401 0.0
H402 H 0.09252 0.16713 0.93235 0.0
C403 C 0.14366 0.15242 0.16932 0.0
H404 H 0.09117 0.20695 0.04934 0.0
C405 C 0.14359 0.12917 0.10412 0.0
C406 C 0.12291 0.13332 0.02235 0.0
H407 H 0.1555 0.14706 0.23967 0.0
H408 H 0.15588 0.10671 0.12506 0.0
C409 C 0.10773 0.16301 -0.00306 0.0
C410 C 0.40856 0.9872 0.07776 0.0
C411 C 0.39572 0.01425 0.12008 0.0
H412 H 0.44961 0.967 0.97619 0.0
C413 C 0.41324 0.04313 0.08377 0.0
H414 H 0.39615 0.96456 0.10693 0.0
C415 C 0.44429 0.04463 0.00953 0.0
C416 C 0.45865 0.01711 0.97229 0.0
H417 H 0.40444 0.0641 0.11801 0.0
H418 H 0.45801 0.06698 -0.01487 0.0
C419 C 0.43971 0.98858 0.00476 0.0
C420 C 0.50158 0.40994 0.14354 0.0
C421 C 0.52851 0.3865 0.13486 0.0
H422 H 0.47923 0.45204 0.07165 0.0
C423 C 0.55027 0.38504 0.04061 0.0
H424 H 0.48492 0.41174 0.2163 0.0
C425 C 0.54756 0.40835 0.95925 0.0
C426 C 0.52251 0.43306 0.97018 0.0
H427 H 0.57162 0.36758 0.03278 0.0
H428 H 0.5667 0.40821 0.88976 0.0
C429 C 0.49833 0.43295 0.06118 0.0
C430 C 0.18408 0.54718 0.97116 0.0
C431 C 0.20053 0.52151 0.02201 0.0
H432 H 0.14216 0.56318 0.88229 0.0
C433 C 0.18897 0.49096 0.01329 0.0
H434 H 0.19235 0.57092 0.97799 0.0
C435 C 0.15971 0.48635 0.95895 0.0
C436 C 0.14156 0.5123 0.91417 0.0
H437 H 0.20092 0.47088 0.05386 0.0
H438 H 0.15028 0.4627 0.95597 0.0
C439 C 0.15491 0.54266 0.91802 0.0
C440 C 0.99706 0.84266 0.43236 0.0
C441 C 0.98093 0.84876 0.34257 0.0
H442 H 1.01304 0.86181 0.56126 0.0
C443 C 0.9597 0.876 0.32846 0.0
H444 H 1.0137 0.82193 0.44461 0.0
C445 C 0.96017 0.89931 0.39339 0.0
C446 C 0.98153 0.89537 0.47372 0.0
H447 H 0.94725 0.88124 0.25909 0.0
H448 H 0.94747 0.92165 0.37334 0.0
C449 C 0.99727 0.86582 0.49782 0.0
C450 C 0.68671 0.97731 0.40985 0.0
C451 C 0.70383 1.00617 0.37088 0.0
H452 H 0.64213 0.95373 0.51019 0.0
C453 C 0.69057 0.03351 0.41078 0.0
H454 H 0.6958 0.95607 0.37764 0.0
C455 C 0.65941 0.0324 0.48372 0.0
C456 C 0.64078 1.00387 0.51859 0.0
H457 H 0.70268 0.05611 0.3797 0.0
H458 H 0.64925 0.05419 0.51021 0.0
C459 C 0.65557 0.97611 0.48388 0.0
C460 C 0.55129 0.63562 0.45519 0.0
C461 C 0.57428 0.63483 0.36257 0.0
H462 H 0.53364 0.61186 0.60451 0.0
C463 C 0.60187 0.61188 0.35571 0.0
H464 H 0.52941 0.65266 0.46155 0.0
C465 C 0.6047 0.58874 0.4381 0.0
C466 C 0.57941 0.58796 0.52724 0.0
H467 H 0.61947 0.61054 0.28412 0.0
H468 H 0.62446 0.57007 0.42883 0.0
C469 C 0.55359 0.61219 0.53649 0.0
C470 C 0.92229 0.4816 0.51514 0.0
C471 C 0.90511 0.50743 0.46731 0.0
H472 H 0.96504 0.46534 0.60073 0.0
C473 C 0.91624 0.5379 0.47877 0.0
H474 H 0.91438 0.45792 0.50633 0.0
C475 C 0.94579 0.54232 0.53231 0.0
C476 C 0.96467 0.5163 0.57379 0.0
H477 H 0.90377 0.55815 0.44064 0.0
H478 H 0.95481 0.56596 0.53728 0.0
C479 C 0.95175 0.48595 0.56752 0.0
loop_
_geom_bond_atom_site_label_1
_geom_bond_atom_site_label_2
_geom_bond_distance
_geom_bond_site_symmetry_2
_ccdc_geom_bond_type
H0 C7 0.929 . S
H1 C10 0.930 . S
H2 C12 0.929 . S
H3 C4 0.969 . S
C4 H3 0.969 . S
C4 O5 1.550 . S
C4 H6 0.973 . S
O5 C4 1.550 . S
O5 C11 1.412 . S
H6 C4 0.973 . S
C7 H0 0.929 . S
C7 C8 1.400 . S
C7 C9 1.364 . S
C8 C7 1.400 . S
C8 C12 1.377 . S
C9 C7 1.364 . S
C9 C10 1.374 . S
C10 H1 0.930 . S
C10 C9 1.374 . S
C10 C11 1.383 . S
C11 O5 1.412 . S
C11 C10 1.383 . S
C11 C12 1.394 . S
C12 H2 0.929 . S
C12 C8 1.377 . S
C12 C11 1.394 . S
H13 C20 0.929 . S
H14 C23 0.930 . S
H15 C25 0.929 . S
H16 C17 0.969 1_455 S
C17 H16 0.969 1_655 S
C17 O18 1.550 1_556 S
C17 H19 0.973 . S
O18 C17 1.550 1_554 S
O18 C24 1.412 . S
H19 C17 0.973 . S
C20 H13 0.929 . S
C20 C21 1.400 . S
C20 C22 1.364 1_554 S
C21 C20 1.400 . S
C21 C25 1.377 . S
C22 C20 1.364 1_556 S
C22 C23 1.374 . S
C23 H14 0.930 . S
C23 C22 1.374 . S
C23 C24 1.383 1_556 S
C24 O18 1.412 . S
C24 C23 1.383 1_554 S
C24 C25 1.394 . S
C25 H15 0.929 . S
C25 C21 1.377 . S
C25 C24 1.394 . S
H26 C33 0.929 1_565 S
H27 C36 0.932 1_556 S
H28 C38 0.930 1_565 S
H29 C30 0.969 . S
C30 H29 0.969 . S
C30 O31 1.550 1_545 S
C30 H32 0.973 1_544 S
O31 C30 1.550 1_565 S
O31 C37 1.404 1_565 S
H32 C30 0.973 1_566 S
C33 H26 0.929 1_545 S
C33 C34 1.398 . S
C33 C35 1.364 . S
C34 C33 1.398 . S
C34 C38 1.377 . S
C35 C33 1.364 . S
C35 C36 1.374 1_545 S
C36 H27 0.932 1_554 S
C36 C35 1.374 1_565 S
C36 C37 1.379 1_565 S
C37 O31 1.404 1_545 S
C37 C36 1.379 1_545 S
C37 C38 1.397 . S
C38 H28 0.930 1_545 S
C38 C34 1.377 . S
C38 C37 1.397 . S
H39 C46 0.929 . S
H40 C49 0.930 1_556 S
H41 C51 0.929 . S
H42 C43 0.969 . S
C43 H42 0.969 . S
C43 O44 1.550 . S
C43 H45 0.973 1_554 S
O44 C43 1.550 . S
O44 C50 1.412 . S
H45 C43 0.973 1_556 S
C46 H39 0.929 . S
C46 C47 1.400 . S
C46 C48 1.364 . S
C47 C46 1.400 . S
C47 C51 1.377 . S
C48 C46 1.364 . S
C48 C49 1.374 . S
C49 H40 0.930 1_554 S
C49 C48 1.374 . S
C49 C50 1.383 . S
C50 O44 1.412 . S
C50 C49 1.383 . S
C50 C51 1.394 . S
C51 H41 0.929 . S
C51 C47 1.377 . S
C51 C50 1.394 . S
H52 C59 0.929 . S
H53 C62 0.930 . S
H54 C64 0.929 . S
H55 C56 0.969 . S
C56 H55 0.969 . S
C56 O57 1.550 . S
C56 H58 0.973 . S
O57 C56 1.550 . S
O57 C63 1.412 . S
H58 C56 0.973 . S
C59 H52 0.929 . S
C59 C60 1.400 . S
C59 C61 1.364 . S
C60 C59 1.400 . S
C60 C64 1.377 . S
C61 C59 1.364 . S
C61 C62 1.374 . S
C62 H53 0.930 . S
C62 C61 1.374 . S
C62 C63 1.383 . S
C63 O57 1.412 . S
C63 C62 1.383 . S
C63 C64 1.394 . S
C64 H54 0.929 . S
C64 C60 1.377 . S
C64 C63 1.394 . S
H65 C72 0.929 . S
H66 C75 0.930 . S
H67 C77 0.929 . S
H68 C69 0.969 . S
C69 H68 0.969 . S
C69 O70 1.550 . S
C69 H71 0.973 . S
O70 C69 1.550 . S
O70 C76 1.412 . S
H71 C69 0.973 . S
C72 H65 0.929 . S
C72 C73 1.400 . S
C72 C74 1.364 . S
C73 C72 1.400 . S
C73 C77 1.377 . S
C74 C72 1.364 . S
C74 C75 1.374 . S
C75 H66 0.930 . S
C75 C74 1.374 . S
C75 C76 1.383 . S
C76 O70 1.412 . S
C76 C75 1.383 . S
C76 C77 1.394 . S
C77 H67 0.929 . S
C77 C73 1.377 . S
C77 C76 1.394 . S
H78 C85 0.928 1_565 S
H79 C88 0.934 . S
H80 C90 0.927 1_565 S
H81 C82 0.969 . S
C82 H81 0.969 . S
C82 O83 1.550 1_545 S
C82 H84 0.973 1_545 S
O83 C82 1.550 1_565 S
O83 C89 1.402 1_565 S
H84 C82 0.973 1_565 S
C85 H78 0.928 1_545 S
C85 C86 1.401 . S
C85 C87 1.363 . S
C86 C85 1.401 . S
C86 C90 1.377 . S
C87 C85 1.363 . S
C87 C88 1.374 1_545 S
C88 H79 0.934 . S
C88 C87 1.374 1_565 S
C88 C89 1.386 1_565 S
C89 O83 1.402 1_545 S
C89 C88 1.386 1_545 S
C89 C90 1.391 . S
C90 H80 0.927 1_545 S
C90 C86 1.377 . S
C90 C89 1.391 . S
H91 C98 0.929 . S
H92 C101 0.930 . S
H93 C103 0.929 . S
H94 C95 0.969 . S
C95 H94 0.969 . S
C95 O96 1.550 . S
C95 H97 0.973 . S
O96 C95 1.550 . S
O96 C102 1.412 . S
H97 C95 0.973 . S
C98 H91 0.929 . S
C98 C99 1.400 . S
C98 C100 1.364 . S
C99 C98 1.400 . S
C99 C103 1.377 . S
C100 C98 1.364 . S
C100 C101 1.374 . S
C101 H92 0.930 . S
C101 C100 1.374 . S
C101 C102 1.383 . S
C102 O96 1.412 . S
C102 C101 1.383 . S
C102 C103 1.394 . S
C103 H93 0.929 . S
C103 C99 1.377 . S
C103 C102 1.394 . S
C104 O120 1.251 . S
C104 O122 1.254 . S
N105 C106 1.333 . S
N105 C110 1.307 1_455 S
N105 Zn111 2.020 . S
C106 N105 1.333 . S
C106 C107 1.379 . S
C106 H124 0.952 . S
C107 C106 1.379 . S
C107 C108 1.390 1_455 S
C107 H134 0.949 . S
C108 C107 1.390 1_655 S
C108 C109 1.357 . S
C109 C108 1.357 . S
C109 C110 1.370 . S
C109 H135 0.950 . S
C110 N105 1.307 1_655 S
C110 C109 1.370 . S
C110 H128 0.948 1_565 S
Zn111 N105 2.020 . S
Zn111 O120 2.039 . S
Zn111 O126 2.034 . S
Zn111 O130 2.025 1_565 S
Zn111 O132 2.024 1_455 S
C112 O131 1.246 . S
C112 O132 1.249 1_545 S
N113 C114 1.307 . S
N113 C115 1.333 . S
N113 Zn119 2.020 1_554 S
C114 N113 1.307 . S
C114 C118 1.370 . S
C114 H125 0.948 1_545 S
C115 N113 1.333 . S
C115 C116 1.379 . S
C115 H123 0.952 1_554 S
C116 C115 1.379 . S
C116 C117 1.390 . S
C116 H136 0.949 . S
C117 C116 1.390 . S
C117 C118 1.357 . S
C118 C114 1.370 . S
C118 C117 1.357 . S
C118 H137 0.950 . S
Zn119 N113 2.020 1_556 S
Zn119 O122 2.025 1_545 S
Zn119 O127 2.024 . S
Zn119 O129 2.039 . S
Zn119 O131 2.034 1_455 S
O120 C104 1.251 . S
O120 Zn111 2.039 . S
C121 O126 1.246 . S
C121 O127 1.249 1_565 S
O122 C104 1.254 . S
O122 Zn119 2.025 1_565 S
H123 C115 0.952 1_556 S
H124 C106 0.952 . S
H125 C114 0.948 1_565 S
O126 Zn111 2.034 . S
O126 C121 1.246 . S
O127 Zn119 2.024 . S
O127 C121 1.249 1_545 S
H128 C110 0.948 1_545 S
O129 Zn119 2.039 . S
O129 C133 1.251 . S
O130 Zn111 2.025 1_545 S
O130 C133 1.254 . S
O131 C112 1.246 . S
O131 Zn119 2.034 1_655 S
O132 Zn111 2.024 1_655 S
O132 C112 1.249 1_565 S
C133 O129 1.251 . S
C133 O130 1.254 . S
H134 C107 0.949 . S
H135 C109 0.950 . S
H136 C116 0.949 . S
H137 C118 0.950 . S
C138 O154 1.251 1_565 S
C138 O156 1.254 . S
N139 C140 1.333 . S
N139 C144 1.307 . S
N139 Zn145 2.020 . S
C140 N139 1.333 . S
C140 C141 1.379 . S
C140 H158 0.952 . S
C141 C140 1.379 . S
C141 C142 1.390 . S
C141 H168 0.949 . S
C142 C141 1.390 . S
C142 C143 1.357 . S
C143 C142 1.357 . S
C143 C144 1.370 . S
C143 H169 0.950 . S
C144 N139 1.307 . S
C144 C143 1.370 . S
C144 H162 0.948 . S
Zn145 N139 2.020 . S
Zn145 O154 2.039 . S
Zn145 O160 2.034 . S
Zn145 O164 2.025 . S
Zn145 O166 2.024 . S
C146 O165 1.246 1_545 S
C146 O166 1.249 . S
N147 C148 1.307 . S
N147 C149 1.333 . S
N147 Zn153 2.020 . S
C148 N147 1.307 . S
C148 C152 1.370 . S
C148 H159 0.948 . S
C149 N147 1.333 . S
C149 C150 1.379 . S
C149 H157 0.952 . S
C150 C149 1.379 . S
C150 C151 1.390 . S
C150 H170 0.949 1_556 S
C151 C150 1.390 . S
C151 C152 1.357 . S
C152 C148 1.370 . S
C152 C151 1.357 . S
C152 H171 0.950 . S
Zn153 N147 2.020 . S
Zn153 O156 2.025 . S
Zn153 O161 2.024 . S
Zn153 O163 2.039 . S
Zn153 O165 2.034 . S
O154 C138 1.251 1_545 S
O154 Zn145 2.039 . S
C155 O160 1.246 1_565 S
C155 O161 1.249 . S
O156 C138 1.254 . S
O156 Zn153 2.025 . S
H157 C149 0.952 . S
H158 C140 0.952 . S
H159 C148 0.948 . S
O160 Zn145 2.034 . S
O160 C155 1.246 1_545 S
O161 Zn153 2.024 . S
O161 C155 1.249 . S
H162 C144 0.948 . S
O163 Zn153 2.039 . S
O163 C167 1.251 1_565 S
O164 Zn145 2.025 . S
O164 C167 1.254 . S
O165 C146 1.246 1_565 S
O165 Zn153 2.034 . S
O166 Zn145 2.024 . S
O166 C146 1.249 . S
C167 O163 1.251 1_545 S
C167 O164 1.254 . S
H168 C141 0.949 . S
H169 C143 0.950 . S
H170 C150 0.949 1_554 S
H171 C152 0.950 . S
C172 O188 1.251 . S
C172 O190 1.254 . S
N173 C174 1.333 . S
N173 C178 1.307 . S
N173 Zn179 2.020 . S
C174 N173 1.333 . S
C174 C175 1.379 . S
C174 H192 0.952 . S
C175 C174 1.379 . S
C175 C176 1.390 . S
C175 H202 0.949 . S
C176 C175 1.390 . S
C176 C177 1.357 . S
C177 C176 1.357 . S
C177 C178 1.370 . S
C177 H203 0.950 . S
C178 N173 1.307 . S
C178 C177 1.370 . S
C178 H196 0.948 . S
Zn179 N173 2.020 . S
Zn179 O188 2.039 . S
Zn179 O194 2.034 . S
Zn179 O198 2.025 . S
Zn179 O200 2.024 . S
C180 O199 1.246 . S
C180 O200 1.249 . S
N181 C182 1.307 . S
N181 C183 1.333 . S
N181 Zn187 2.020 . S
C182 N181 1.307 . S
C182 C186 1.370 . S
C182 H193 0.948 . S
C183 N181 1.333 . S
C183 C184 1.379 . S
C183 H191 0.952 . S
C184 C183 1.379 . S
C184 C185 1.390 . S
C184 H204 0.949 . S
C185 C184 1.390 . S
C185 C186 1.357 . S
C186 C182 1.370 . S
C186 C185 1.357 . S
C186 H205 0.950 . S
Zn187 N181 2.020 . S
Zn187 O190 2.025 . S
Zn187 O195 2.024 . S
Zn187 O197 2.039 . S
Zn187 O199 2.034 . S
O188 C172 1.251 . S
O188 Zn179 2.039 . S
C189 O194 1.246 . S
C189 O195 1.249 . S
O190 C172 1.254 . S
O190 Zn187 2.025 . S
H191 C183 0.952 . S
H192 C174 0.952 . S
H193 C182 0.948 . S
O194 Zn179 2.034 . S
O194 C189 1.246 . S
O195 Zn187 2.024 . S
O195 C189 1.249 . S
H196 C178 0.948 . S
O197 Zn187 2.039 . S
O197 C201 1.251 . S
O198 Zn179 2.025 . S
O198 C201 1.254 . S
O199 C180 1.246 . S
O199 Zn187 2.034 . S
O200 Zn179 2.024 . S
O200 C180 1.249 . S
C201 O197 1.251 . S
C201 O198 1.254 . S
H202 C175 0.949 . S
H203 C177 0.950 . S
H204 C184 0.949 . S
H205 C186 0.950 . S
C206 O222 1.251 . S
C206 O224 1.254 . S
N207 C208 1.333 . S
N207 C212 1.307 . S
N207 Zn213 2.020 . S
C208 N207 1.333 . S
C208 C209 1.379 . S
C208 H226 0.952 . S
C209 C208 1.379 . S
C209 C210 1.390 . S
C209 H236 0.949 . S
C210 C209 1.390 . S
C210 C211 1.357 . S
C211 C210 1.357 . S
C211 C212 1.370 . S
C211 H237 0.950 . S
C212 N207 1.307 . S
C212 C211 1.370 . S
C212 H230 0.948 . S
Zn213 N207 2.020 . S
Zn213 O222 2.039 . S
Zn213 O228 2.034 1_455 S
Zn213 O232 2.025 1_455 S
Zn213 O234 2.024 . S
C214 O233 1.246 . S
C214 O234 1.249 . S
N215 C216 1.307 . S
N215 C217 1.333 . S
N215 Zn221 2.020 . S
C216 N215 1.307 . S
C216 C220 1.370 . S
C216 H227 0.948 . S
C217 N215 1.333 . S
C217 C218 1.378 1_455 S
C217 H225 0.952 1_455 S
C218 C217 1.378 1_655 S
C218 C219 1.385 1_655 S
C218 H238 0.955 . S
C219 C218 1.385 1_455 S
C219 C220 1.357 . S
C220 C216 1.370 . S
C220 C219 1.357 . S
C220 H239 0.950 . S
Zn221 N215 2.020 . S
Zn221 O224 2.025 . S
Zn221 O229 2.024 1_455 S
Zn221 O231 2.039 1_455 S
Zn221 O233 2.034 . S
O222 C206 1.251 . S
O222 Zn213 2.039 . S
C223 O228 1.246 . S
C223 O229 1.249 . S
O224 C206 1.254 . S
O224 Zn221 2.025 . S
H225 C217 0.952 1_655 S
H226 C208 0.952 . S
H227 C216 0.948 . S
O228 Zn213 2.034 1_655 S
O228 C223 1.246 . S
O229 Zn221 2.024 1_655 S
O229 C223 1.249 . S
H230 C212 0.948 . S
O231 Zn221 2.039 1_655 S
O231 C235 1.251 . S
O232 Zn213 2.025 1_655 S
O232 C235 1.254 . S
O233 C214 1.246 . S
O233 Zn221 2.034 . S
O234 Zn213 2.024 . S
O234 C214 1.249 . S
C235 O231 1.251 . S
C235 O232 1.254 . S
H236 C209 0.949 . S
H237 C211 0.950 . S
H238 C218 0.955 . S
H239 C220 0.950 . S
C240 C241 1.420 . S
C240 H244 0.950 . S
C240 C249 1.390 . S
C241 C240 1.420 . S
C241 C243 1.355 1_565 S
H242 C249 0.950 . S
C243 C241 1.355 1_545 S
C243 C245 1.390 . S
C243 H247 0.950 . S
H244 C240 0.950 . S
C245 C243 1.390 . S
C245 C246 1.387 1_545 S
C245 H248 0.950 . S
C246 C245 1.387 1_565 S
C246 C249 1.387 . S
H247 C243 0.950 . S
H248 C245 0.950 . S
C249 C240 1.390 . S
C249 H242 0.950 . S
C249 C246 1.387 . S
C250 C251 1.387 . S
C250 H254 0.950 . S
C250 C259 1.390 . S
C251 C250 1.387 . S
C251 C253 1.387 . S
H252 C259 0.950 . S
C253 C251 1.387 . S
C253 C255 1.390 . S
C253 H257 0.950 . S
H254 C250 0.950 . S
C255 C253 1.390 . S
C255 C256 1.387 . S
C255 H258 0.950 . S
C256 C255 1.387 . S
C256 C259 1.387 . S
H257 C253 0.950 . S
H258 C255 0.950 . S
C259 C250 1.390 . S
C259 H252 0.950 . S
C259 C256 1.387 . S
C260 C261 1.387 . S
C260 H264 0.950 . S
C260 C269 1.390 . S
C261 C260 1.387 . S
C261 C263 1.387 . S
H262 C269 0.950 . S
C263 C261 1.387 . S
C263 C265 1.390 . S
C263 H267 0.950 . S
H264 C260 0.950 . S
C265 C263 1.390 . S
C265 C266 1.387 . S
C265 H268 0.950 . S
C266 C265 1.387 . S
C266 C269 1.387 . S
H267 C263 0.950 . S
H268 C265 0.950 . S
C269 C260 1.390 . S
C269 H262 0.950 . S
C269 C266 1.387 . S
C270 C271 1.387 . S
C270 H274 0.950 . S
C270 C279 1.390 . S
C271 C270 1.387 . S
C271 C273 1.387 . S
H272 C279 0.950 . S
C273 C271 1.387 . S
C273 C275 1.390 . S
C273 H277 0.950 . S
H274 C270 0.950 . S
C275 C273 1.390 . S
C275 C276 1.387 . S
C275 H278 0.950 . S
C276 C275 1.387 . S
C276 C279 1.387 . S
H277 C273 0.950 . S
H278 C275 0.950 . S
C279 C270 1.390 . S
C279 H272 0.950 . S
C279 C276 1.387 . S
C280 C281 1.387 1_565 S
C280 H284 0.950 . S
C280 C289 1.390 . S
C281 C280 1.387 1_545 S
C281 C283 1.387 . S
H282 C289 0.950 . S
C283 C281 1.387 . S
C283 C285 1.390 . S
C283 H287 0.950 . S
H284 C280 0.950 . S
C285 C283 1.390 . S
C285 C286 1.387 . S
C285 H288 0.950 . S
C286 C285 1.387 . S
C286 C289 1.387 1_545 S
H287 C283 0.950 . S
H288 C285 0.950 . S
C289 C280 1.390 . S
C289 H282 0.950 . S
C289 C286 1.387 1_565 S
C290 C291 1.387 1_556 S
C290 H294 0.950 . S
C290 C299 1.390 . S
C291 C290 1.387 1_554 S
C291 C293 1.387 . S
H292 C299 0.950 . S
C293 C291 1.387 . S
C293 C295 1.390 . S
C293 H297 0.950 . S
H294 C290 0.950 . S
C295 C293 1.390 . S
C295 C296 1.387 1_554 S
C295 H298 0.950 . S
C296 C295 1.387 1_556 S
C296 C299 1.387 . S
H297 C293 0.950 . S
H298 C295 0.950 . S
C299 C290 1.390 . S
C299 H292 0.950 . S
C299 C296 1.387 . S
C300 C301 1.387 . S
C300 H304 0.950 . S
C300 C309 1.390 1_554 S
C301 C300 1.387 . S
C301 C303 1.387 . S
H302 C309 0.950 . S
C303 C301 1.387 . S
C303 C305 1.390 1_554 S
C303 H307 0.950 . S
H304 C300 0.950 . S
C305 C303 1.390 1_556 S
C305 C306 1.387 . S
C305 H308 0.950 . S
C306 C305 1.387 . S
C306 C309 1.387 . S
H307 C303 0.950 . S
H308 C305 0.950 . S
C309 C300 1.390 1_556 S
C309 H302 0.950 . S
C309 C306 1.387 . S
C310 C311 1.387 1_455 S
C310 H314 0.950 . S
C310 C319 1.390 . S
C311 C310 1.387 1_655 S
C311 C313 1.387 . S
H312 C319 0.950 . S
C313 C311 1.387 . S
C313 C315 1.390 . S
C313 H317 0.950 1_556 S
H314 C310 0.950 . S
C315 C313 1.390 . S
C315 C316 1.387 1_655 S
C315 H318 0.950 . S
C316 C315 1.387 1_455 S
C316 C319 1.387 . S
H317 C313 0.950 1_554 S
H318 C315 0.950 . S
C319 C310 1.390 . S
C319 H312 0.950 . S
C319 C316 1.387 . S
C320 C321 1.387 . S
C320 H324 0.950 . S
C320 C329 1.390 . S
C321 C320 1.387 . S
C321 C323 1.387 . S
H322 C329 0.950 . S
C323 C321 1.387 . S
C323 C325 1.390 . S
C323 H327 0.950 . S
H324 C320 0.950 . S
C325 C323 1.390 . S
C325 C326 1.387 . S
C325 H328 0.950 . S
C326 C325 1.387 . S
C326 C329 1.387 . S
H327 C323 0.950 . S
H328 C325 0.950 . S
C329 C320 1.390 . S
C329 H322 0.950 . S
C329 C326 1.387 . S
C330 C331 1.371 1_545 S
C330 H334 0.950 . S
C330 C339 1.390 . S
C331 C330 1.371 1_565 S
C331 C333 1.404 . S
H332 C339 0.950 . S
C333 C331 1.404 . S
C333 C335 1.390 . S
C333 H337 0.950 . S
H334 C330 0.950 . S
C335 C333 1.390 . S
C335 C336 1.387 . S
C335 H338 0.950 . S
C336 C335 1.387 . S
C336 C339 1.387 1_565 S
H337 C333 0.950 . S
H338 C335 0.950 . S
C339 C330 1.390 . S
C339 H332 0.950 . S
C339 C336 1.387 1_545 S
C340 C341 1.387 . S
C340 H344 0.950 . S
C340 C349 1.390 . S
C341 C340 1.387 . S
C341 C343 1.387 . S
H342 C349 0.950 . S
C343 C341 1.387 . S
C343 C345 1.390 . S
C343 H347 0.950 . S
H344 C340 0.950 . S
C345 C343 1.390 . S
C345 C346 1.387 . S
C345 H348 0.950 . S
C346 C345 1.387 . S
C346 C349 1.387 . S
H347 C343 0.950 . S
H348 C345 0.950 . S
C349 C340 1.390 . S
C349 H342 0.950 . S
C349 C346 1.387 . S
C350 C351 1.387 . S
C350 H354 0.950 . S
C350 C359 1.390 . S
C351 C350 1.387 . S
C351 C353 1.387 . S
H352 C359 0.950 . S
C353 C351 1.387 . S
C353 C355 1.390 . S
C353 H357 0.950 . S
H354 C350 0.950 . S
C355 C353 1.390 . S
C355 C356 1.387 . S
C355 H358 0.950 . S
C356 C355 1.387 . S
C356 C359 1.387 . S
H357 C353 0.950 . S
H358 C355 0.950 . S
C359 C350 1.390 . S
C359 H352 0.950 . S
C359 C356 1.387 . S
C360 C361 1.387 . S
C360 H364 0.950 . S
C360 C369 1.390 1_655 S
C361 C360 1.387 . S
C361 C363 1.387 . S
H362 C369 0.950 . S
C363 C361 1.387 . S
C363 C365 1.390 1_655 S
C363 H367 0.950 1_556 S
H364 C360 0.950 . S
C365 C363 1.390 1_455 S
C365 C366 1.387 . S
C365 H368 0.950 1_556 S
C366 C365 1.387 . S
C366 C369 1.387 . S
H367 C363 0.950 1_554 S
H368 C365 0.950 1_554 S
C369 C360 1.390 1_455 S
C369 H362 0.950 . S
C369 C366 1.387 . S
C370 C371 1.411 1_556 S
C370 H374 0.950 . S
C370 C379 1.390 . S
C371 C370 1.411 1_554 S
C371 C373 1.365 1_545 S
H372 C379 0.950 . S
C373 C371 1.365 1_565 S
C373 C375 1.390 1_554 S
C373 H377 0.950 . S
H374 C370 0.950 . S
C375 C373 1.390 1_556 S
C375 C376 1.387 1_565 S
C375 H378 0.950 1_556 S
C376 C375 1.387 1_545 S
C376 C379 1.387 . S
H377 C373 0.950 . S
H378 C375 0.950 1_554 S
C379 C370 1.390 . S
C379 H372 0.950 . S
C379 C376 1.387 . S
C380 C381 1.387 1_556 S
C380 H384 0.950 . S
C380 C389 1.390 . S
C381 C380 1.387 1_554 S
C381 C383 1.387 . S
H382 C389 0.950 . S
C383 C381 1.387 . S
C383 C385 1.390 . S
C383 H387 0.950 . S
H384 C380 0.950 . S
C385 C383 1.390 . S
C385 C386 1.387 1_554 S
C385 H388 0.950 . S
C386 C385 1.387 1_556 S
C386 C389 1.387 . S
H387 C383 0.950 . S
H388 C385 0.950 . S
C389 C380 1.390 . S
C389 H382 0.950 . S
C389 C386 1.387 . S
C390 C391 1.387 . S
C390 H394 0.950 . S
C390 C399 1.390 1_554 S
C391 C390 1.387 . S
C391 C393 1.387 . S
H392 C399 0.950 . S
C393 C391 1.387 . S
C393 C395 1.390 1_554 S
C393 H397 0.950 . S
H394 C390 0.950 . S
C395 C393 1.390 1_556 S
C395 C396 1.387 . S
C395 H398 0.950 . S
C396 C395 1.387 . S
C396 C399 1.387 . S
H397 C393 0.950 . S
H398 C395 0.950 . S
C399 C390 1.390 1_556 S
C399 H392 0.950 . S
C399 C396 1.387 . S
C400 C401 1.387 . S
C400 H404 0.950 . S
C400 C409 1.390 . S
C401 C400 1.387 . S
C401 C403 1.387 . S
H402 C409 0.950 . S
C403 C401 1.387 . S
C403 C405 1.390 . S
C403 H407 0.950 . S
H404 C400 0.950 . S
C405 C403 1.390 . S
C405 C406 1.387 . S
C405 H408 0.950 . S
C406 C405 1.387 . S
C406 C409 1.387 . S
H407 C403 0.950 . S
H408 C405 0.950 . S
C409 C400 1.390 . S
C409 H402 0.950 . S
C409 C406 1.387 . S
C410 C411 1.357 1_565 S
C410 H414 0.950 . S
C410 C419 1.390 . S
C411 C410 1.357 1_545 S
C411 C413 1.417 . S
H412 C419 0.950 . S
C413 C411 1.417 . S
C413 C415 1.390 . S
C413 H417 0.950 . S
H414 C410 0.950 . S
C415 C413 1.390 . S
C415 C416 1.387 . S
C415 H418 0.950 . S
C416 C415 1.387 . S
C416 C419 1.387 1_545 S
H417 C413 0.950 . S
H418 C415 0.950 . S
C419 C410 1.390 . S
C419 H412 0.950 . S
C419 C416 1.387 1_565 S
C420 C421 1.387 . S
C420 H424 0.950 . S
C420 C429 1.390 . S
C421 C420 1.387 . S
C421 C423 1.387 . S
H422 C429 0.950 . S
C423 C421 1.387 . S
C423 C425 1.390 . S
C423 H427 0.950 . S
H424 C420 0.950 . S
C425 C423 1.390 . S
C425 C426 1.387 . S
C425 H428 0.950 . S
C426 C425 1.387 . S
C426 C429 1.387 . S
H427 C423 0.950 . S
H428 C425 0.950 . S
C429 C420 1.390 . S
C429 H422 0.950 . S
C429 C426 1.387 . S
C430 C431 1.387 . S
C430 H434 0.950 . S
C430 C439 1.390 . S
C431 C430 1.387 . S
C431 C433 1.387 . S
H432 C439 0.950 1_556 S
C433 C431 1.387 . S
C433 C435 1.390 . S
C433 H437 0.950 . S
H434 C430 0.950 . S
C435 C433 1.390 . S
C435 C436 1.387 1_554 S
C435 H438 0.950 . S
C436 C435 1.387 1_556 S
C436 C439 1.387 1_556 S
H437 C433 0.950 . S
H438 C435 0.950 . S
C439 C430 1.390 . S
C439 H432 0.950 1_554 S
C439 C436 1.387 1_554 S
C440 C441 1.387 1_455 S
C440 H444 0.950 . S
C440 C449 1.390 . S
C441 C440 1.387 1_655 S
C441 C443 1.387 . S
H442 C449 0.950 . S
C443 C441 1.387 . S
C443 C445 1.390 . S
C443 H447 0.950 . S
H444 C440 0.950 . S
C445 C443 1.390 . S
C445 C446 1.387 . S
C445 H448 0.950 . S
C446 C445 1.387 . S
C446 C449 1.387 1_655 S
H447 C443 0.950 . S
H448 C445 0.950 . S
C449 C440 1.390 . S
C449 H442 0.950 . S
C449 C446 1.387 1_455 S
C450 C451 1.410 . S
C450 H454 0.950 . S
C450 C459 1.390 . S
C451 C450 1.410 . S
C451 C453 1.365 1_565 S
H452 C459 0.950 . S
C453 C451 1.365 1_545 S
C453 C455 1.390 . S
C453 H457 0.950 . S
H454 C450 0.950 . S
C455 C453 1.390 . S
C455 C456 1.387 1_545 S
C455 H458 0.950 . S
C456 C455 1.387 1_565 S
C456 C459 1.387 . S
H457 C453 0.950 . S
H458 C455 0.950 . S
C459 C450 1.390 . S
C459 H452 0.950 . S
C459 C456 1.387 . S
C460 C461 1.387 . S
C460 H464 0.950 . S
C460 C469 1.390 . S
C461 C460 1.387 . S
C461 C463 1.387 . S
H462 C469 0.950 . S
C463 C461 1.387 . S
C463 C465 1.390 . S
C463 H467 0.950 . S
H464 C460 0.950 . S
C465 C463 1.390 . S
C465 C466 1.387 . S
C465 H468 0.950 . S
C466 C465 1.387 . S
C466 C469 1.387 . S
H467 C463 0.950 . S
H468 C465 0.950 . S
C469 C460 1.390 . S
C469 H462 0.950 . S
C469 C466 1.387 . S
C470 C471 1.387 . S
C470 H474 0.950 . S
C470 C479 1.390 . S
C471 C470 1.387 . S
C471 C473 1.387 . S
H472 C479 0.950 . S
C473 C471 1.387 . S
C473 C475 1.390 . S
C473 H477 0.950 . S
H474 C470 0.950 . S
C475 C473 1.390 . S
C475 C476 1.387 . S
C475 H478 0.950 . S
C476 C475 1.387 . S
C476 C479 1.387 . S
H477 C473 0.950 . S
H478 C475 0.950 . S
C479 C470 1.390 . S
C479 H472 0.950 . S
C479 C476 1.387 . S
C241 C82 1.767 1_565 S
C246 C121 1.875 . S
C256 C142 1.532 . S
C251 C95 1.452 . S
C266 C176 1.471 . S
C261 C56 1.310 . S
C276 C210 1.554 . S
C271 C69 1.499 . S
C286 C112 1.875 . S
C281 C30 1.759 1_556 S
C291 C43 1.428 . S
C296 C151 1.536 . S
C301 C4 1.302 . S
C306 C185 1.471 . S
C311 C17 1.443 . S
C316 C219 1.554 . S
C326 C133 0.888 . S
C321 C74 0.833 . S
C336 C138 1.287 . S
C331 C87 1.252 1_565 S
C346 C172 1.198 . S
C341 C100 1.181 . S
C351 C61 0.633 . S
C356 C206 0.633 . S
C361 C22 0.833 . S
C366 C104 0.892 . S
C376 C167 1.286 . S
C371 C35 1.251 . S
C386 C201 1.196 . S
C381 C48 1.178 . S
C391 C9 0.631 . S
C396 C235 0.634 . S
C401 C73 1.345 . S
C406 C117 1.384 . S
C411 C86 1.716 . S
C416 C146 1.765 1_554 S
C426 C180 1.544 1_554 S
C421 C99 1.517 . S
C436 C214 1.608 . S
C431 C60 1.561 . S
C441 C21 1.346 . S
C446 C108 1.392 . S
C456 C155 1.764 . S
C451 C34 1.719 1_565 S
C466 C189 1.545 . S
C461 C47 1.517 . S
C471 C8 1.565 . S
C476 C223 1.608 . S
