# Generated by pormake.
# Topology tsx, (6,3)-cn, num edge types: 1
# Building blocks:
#     Node 0, Type 0, BuildingBlock: MIDCAF_clean_sbu_0, # of connection points: 6
#     Node 1, Type 0, BuildingBlock: MIDCAF_clean_sbu_0, # of connection points: 6
#     Node 2, Type 1, BuildingBlock: BETDIP_clean_linker_0, # of connection points: 3
#     Node 3, Type 1, BuildingBlock: BETDIP_clean_linker_0, # of connection points: 3
#     Node 4, Type 1, BuildingBlock: BETDIP_clean_linker_0, # of connection points: 3
#     Node 5, Type 1, BuildingBlock: BETDIP_clean_linker_0, # of connection points: 3
#     Edge 6, Type (0, 1), BuildingBlock: XIVTED_clean_linker_0, # of connection points: 2
#     Edge 7, Type (0, 1), BuildingBlock: XIVTED_clean_linker_0, # of connection points: 2
#     Edge 8, Type (0, 1), BuildingBlock: XIVTED_clean_linker_0, # of connection points: 2
#     Edge 9, Type (0, 1), BuildingBlock: XIVTED_clean_linker_0, # of connection points: 2
#     Edge 10, Type (0, 1), BuildingBlock: XIVTED_clean_linker_0, # of connection points: 2
#     Edge 11, Type (0, 1), BuildingBlock: XIVTED_clean_linker_0, # of connection points: 2
#     Edge 12, Type (0, 1), BuildingBlock: XIVTED_clean_linker_0, # of connection points: 2
#     Edge 13, Type (0, 1), BuildingBlock: XIVTED_clean_linker_0, # of connection points: 2
#     Edge 14, Type (0, 1), BuildingBlock: XIVTED_clean_linker_0, # of connection points: 2
#     Edge 15, Type (0, 1), BuildingBlock: XIVTED_clean_linker_0, # of connection points: 2
#     Edge 16, Type (0, 1), BuildingBlock: XIVTED_clean_linker_0, # of connection points: 2
#     Edge 17, Type (0, 1), BuildingBlock: XIVTED_clean_linker_0, # of connection points: 2
# Relax obj value: 0.082
# Max RMSD: 0.149
# Mean RMSD: 0.112
data_MOF--net-tsx--node1-MIDCAF_clean_sbu_0--node2-BETDIP_clean_linker_0--edge1-XIVTED_clean_linker_0
_symmetry_space_group_name_H-M    P1
_symmetry_Int_Tables_number       1
_symmetry_cell_setting            triclinic
loop_
_symmetry_equiv_pos_as_xyz
'x, y, z'
_cell_length_a     20.340437
_cell_length_b     20.994157
_cell_length_c     35.664532
_cell_angle_alpha  90.209977
_cell_angle_beta   104.57152
_cell_angle_gamma 90.071368
loop_
_atom_site_label
_atom_site_type_symbol
_atom_site_fract_x
_atom_site_fract_y
_atom_site_fract_z
_atom_type_partial_charge
Zn0 Zn 0.94623 0.04487 0.94791 0.0
Zn1 Zn 0.16338 0.03815 0.06358 0.0
Zn2 Zn 0.0534 0.04176 0.00656 0.0
C3 C 0.13902 0.16604 0.0452 0.0
C4 C 0.19486 0.96568 0.00661 0.0
O5 O 0.96825 0.9932 0.02429 0.0
O6 O 0.88625 0.99086 0.97006 0.0
C7 C 0.97727 0.17065 0.96833 0.0
O8 O 0.08951 0.14117 0.01943 0.0
O9 O 0.17887 0.13115 0.0694 0.0
O10 O 0.22309 0.98684 0.03991 0.0
O11 O 0.13305 0.98169 0.98997 0.0
O12 O 0.93298 0.138 0.94499 0.0
O13 O 0.02669 0.14319 0.99264 0.0
O14 O 0.07881 0.99119 0.95716 0.0
O15 O 0.98612 0.00436 0.90955 0.0
C16 C 0.04573 0.9835 0.92154 0.0
O17 O 0.0241 0.00101 0.05716 0.0
O18 O 0.12254 -0.00459 0.10118 0.0
C19 C 0.9083 0.97559 0.00515 0.0
C20 C 0.05923 0.98636 0.09141 0.0
Zn21 Zn 0.64947 0.47455 0.56918 0.0
Zn22 Zn 0.4413 0.45197 0.45424 0.0
Zn23 Zn 0.54496 0.46777 0.5095 0.0
C24 C 0.5503 0.42911 0.42379 0.0
C25 C 0.44169 0.57826 0.4787 0.0
O26 O 0.51696 0.42494 0.56059 0.0
O27 O 0.60773 0.44211 0.60898 0.0
C28 C 0.6895 0.3997 0.51505 0.0
O29 O 0.58078 0.42965 0.46015 0.0
O30 O 0.48807 0.44259 0.41265 0.0
O31 O 0.4002 0.53592 0.46211 0.0
O32 O 0.50362 0.56337 0.49488 0.0
O33 O 0.70872 0.41541 0.55027 0.0
O34 O 0.63144 0.41839 0.49412 0.0
O35 O 0.56827 0.56967 0.51915 0.0
O36 O 0.66311 0.56793 0.56617 0.0
C37 C 0.61863 0.59861 0.54191 0.0
O38 O 0.4675 0.40702 0.52705 0.0
O39 O 0.40244 0.37466 0.47082 0.0
C40 C 0.54783 0.42171 0.59688 0.0
C41 C 0.41933 0.37127 0.50724 0.0
H42 H 0.17705 0.02224 0.47348 0.0
H43 H 0.02657 0.07295 0.37013 0.0
H44 H 0.17239 0.92678 0.36593 0.0
H45 H 0.05865 0.17564 0.40028 0.0
C46 C 0.04742 0.16013 0.42706 0.0
C47 C 0.15476 0.01585 0.44272 0.0
C48 C 0.18085 0.96987 0.42177 0.0
C49 C 0.10115 0.05501 0.42375 0.0
C50 C 0.07066 0.04521 0.38416 0.0
C51 C 0.09552 -0.00119 0.3629 0.0
C52 C 0.15157 0.96209 0.38195 0.0
N53 N 0.07702 0.10308 0.44489 0.0
H54 H 0.92583 0.01092 0.54597 0.0
H55 H 0.07576 0.03529 0.65401 0.0
H56 H 0.92121 0.89087 0.64215 0.0
H57 H 0.06486 0.14048 0.63031 0.0
C58 C 0.07311 0.12762 0.60229 0.0
C59 C 0.9474 -0.00338 0.5757 0.0
C60 C 0.91621 0.9488 0.59233 0.0
C61 C 0.00486 0.028 0.59798 0.0
C62 C 0.03195 0.01019 0.63686 0.0
C63 C 0.00228 0.96089 0.65366 0.0
C64 C 0.94479 0.9299 0.63059 0.0
N65 N 0.03538 0.07682 0.5807 0.0
H66 H 0.64005 0.55913 0.95799 0.0
H67 H 0.46654 0.53157 0.86105 0.0
H68 H 0.65186 0.43171 0.86533 0.0
H69 H 0.44503 0.63068 0.87153 0.0
C70 C 0.46023 0.63761 0.90269 0.0
C71 C 0.61627 0.53637 0.9306 0.0
C72 C 0.65282 0.49202 0.9143 0.0
C73 C 0.54992 0.55342 0.91066 0.0
C74 C 0.51899 0.52227 0.87555 0.0
C75 C 0.55537 0.47882 0.85863 0.0
C76 C 0.62241 0.46421 0.87828 0.0
N77 N 0.51598 0.60293 0.92577 0.0
H78 H 0.4506 0.58055 0.06031 0.0
H79 H 0.61989 0.58647 0.16107 0.0
H80 H 0.45453 0.45733 0.15691 0.0
H81 H 0.61091 0.69402 0.14478 0.0
C82 C 0.6085 0.68891 0.11412 0.0
C83 C 0.47584 0.56317 0.08887 0.0
C84 C 0.44519 0.51555 0.1063 0.0
C85 C 0.53768 0.59061 0.10908 0.0
C86 C 0.57082 0.56743 0.14602 0.0
C87 C 0.54149 0.51895 0.16344 0.0
C88 C 0.47846 0.49381 0.1434 0.0
N89 N 0.56591 0.64134 0.09188 0.0
H90 H 0.14289 0.24381 0.98419 0.0
H91 H 0.40535 0.46378 0.03324 0.0
H92 H 0.17137 0.24289 0.10806 0.0
H93 H 0.33458 0.50123 0.13536 0.0
H94 H 0.30723 0.39373 0.00906 0.0
H95 H 0.19917 0.34859 0.9895 0.0
C96 C 0.15926 0.26662 0.01231 0.0
C97 C 0.15375 0.2347 0.04587 0.0
C98 C 0.3116 0.41907 0.03605 0.0
C99 C 0.21877 0.35283 0.0523 0.0
C100 C 0.36782 0.45895 0.04988 0.0
C101 C 0.37861 0.48714 0.08665 0.0
C102 C 0.26639 0.4075 0.05937 0.0
C103 C 0.32879 0.47917 0.10722 0.0
C104 C 0.19216 0.32584 0.0154 0.0
C105 C 0.17562 0.26581 0.08161 0.0
N106 N 0.27577 0.439 0.09373 0.0
N107 N 0.20765 0.32287 0.08392 0.0
H108 H 0.14482 0.87564 0.95056 0.0
H109 H 0.49592 0.69523 0.97471 0.0
H110 H 0.33196 0.94807 0.02397 0.0
H111 H 0.33849 0.68823 0.86805 0.0
H112 H 0.43084 0.7771 -0.00085 0.0
H113 H 0.20987 0.79667 0.9243 0.0
C114 C 0.19958 0.87628 0.96026 0.0
C115 C 0.23301 0.92001 0.98846 0.0
C116 C 0.4107 0.7575 0.9704 0.0
C117 C 0.30737 0.82717 0.96062 0.0
C118 C 0.44755 0.71066 0.95659 0.0
C119 C 0.42228 0.68521 0.91934 0.0
C120 C 0.34787 0.77783 0.94703 0.0
C121 C 0.35956 0.70696 0.89692 0.0
C122 C 0.23661 0.83047 0.94582 0.0
C123 C 0.30404 0.9157 0.00195 0.0
N124 N 0.32422 0.75177 0.91117 0.0
N125 N 0.33881 0.86987 0.9881 0.0
H126 H 0.89236 0.97692 0.07925 0.0
H127 H 0.61829 0.69362 0.03849 0.0
H128 H 0.82362 0.88178 0.96927 0.0
H129 H 0.69385 0.78139 0.15067 0.0
H130 H 0.69159 0.76396 0.01228 0.0
H131 H 0.81991 0.90654 0.10639 0.0
C132 C 0.86331 0.94023 0.06122 0.0
C133 C 0.86544 0.93399 0.0225 0.0
C134 C 0.69214 0.76794 0.04263 0.0
C135 C 0.78021 0.85498 0.05235 0.0
C136 C 0.6502 0.72783 0.05757 0.0
C137 C 0.65024 0.73183 0.09681 0.0
C138 C 0.73431 0.81227 0.06713 0.0
C139 C 0.6925 0.77697 0.12023 0.0
C140 C 0.82105 0.90071 0.07638 0.0
C141 C 0.82367 0.88801 -0.00057 0.0
N142 N 0.73293 0.81542 0.10507 0.0
N143 N 0.78292 0.85022 0.01471 0.0
H144 H 0.96563 0.25327 0.90921 0.0
H145 H 0.76702 0.51379 0.88987 0.0
H146 H 0.95744 0.24193 0.02841 0.0
H147 H 0.69698 0.42562 0.9816 0.0
H148 H 0.87483 0.45695 0.91125 0.0
H149 H 0.90735 0.35508 0.90347 0.0
C150 C 0.95415 0.27399 0.9347 0.0
C151 C 0.96637 0.2397 0.9693 0.0
C152 C 0.83632 0.45034 0.92701 0.0
C153 C 0.89766 0.35572 0.96299 0.0
C154 C 0.77525 0.48347 0.91514 0.0
C155 C 0.72313 0.47348 0.93377 0.0
C156 C 0.84432 0.4055 0.957 0.0
C157 C 0.73605 0.43415 0.96643 0.0
C158 C 0.92074 0.33236 0.93153 0.0
C159 C 0.94926 0.26756 0.00134 0.0
N160 N 0.79496 0.40044 0.97657 0.0
N161 N 0.91379 0.32318 0.9971 0.0
H162 H 0.61473 0.69064 0.59444 0.0
H163 H 0.79289 0.9656 0.60642 0.0
H164 H 0.65317 0.65875 0.48259 0.0
H165 H 0.89435 0.86424 0.53206 0.0
H166 H 0.69306 0.89739 0.58358 0.0
H167 H 0.667 0.79552 0.59709 0.0
C168 C 0.63175 0.70723 0.56972 0.0
C169 C 0.62944 0.66691 0.53817 0.0
C170 C 0.7368 0.89027 0.57195 0.0
C171 C 0.6908 0.78607 0.54103 0.0
C172 C 0.79326 0.92963 0.5846 0.0
C173 C 0.85164 0.91952 0.57134 0.0
C174 C 0.7398 0.83949 0.54669 0.0
C175 C 0.85011 0.87291 0.54301 0.0
C176 C 0.66151 0.76725 0.57106 0.0
C177 C 0.65362 0.6893 0.50719 0.0
N178 N 0.79535 0.83363 0.53208 0.0
N179 N 0.68501 0.74695 0.5098 0.0
H180 H 0.71452 0.40494 0.44315 0.0
H181 H 0.00324 0.13729 0.49262 0.0
H182 H 0.77088 0.30545 0.55188 0.0
H183 H 0.97075 0.25863 0.39227 0.0
H184 H 0.91145 0.19216 0.51235 0.0
H185 H 0.79949 0.34362 0.42041 0.0
C186 C 0.74355 0.36909 0.46174 0.0
C187 C 0.73518 0.35958 0.49906 0.0
C188 C 0.92443 0.2069 0.48603 0.0
C189 C 0.83366 0.29074 0.47415 0.0
C190 C 0.97699 0.17572 0.47486 0.0
C191 C 0.99458 0.19389 0.44088 0.0
C192 C 0.88908 0.25615 0.46288 0.0
C193 C 0.95868 0.24361 0.41878 0.0
C194 C 0.79277 0.33478 0.44911 0.0
C195 C 0.77595 0.31422 0.52283 0.0
N196 N 0.90742 0.273 0.4301 0.0
N197 N 0.82349 0.28152 0.51 0.0
H198 H 0.37841 0.39486 0.5729 0.0
H199 H 0.11734 0.10339 0.53685 0.0
H200 H 0.36373 0.25641 0.4819 0.0
H201 H 0.14987 0.22711 0.63675 0.0
H202 H 0.20798 0.15875 0.5164 0.0
H203 H 0.29841 0.33213 0.59864 0.0
C204 C 0.36034 0.34997 0.55935 0.0
C205 C 0.37906 0.32981 0.5261 0.0
C206 C 0.19546 0.17378 0.54285 0.0
C207 C 0.28458 0.25953 0.5536 0.0
C208 C 0.14337 0.14246 0.55438 0.0
C209 C 0.12597 0.16122 0.5884 0.0
C210 C 0.23026 0.22414 0.56552 0.0
C211 C 0.16176 0.21159 0.61022 0.0
C212 C 0.31358 0.31476 0.57345 0.0
C213 C 0.35081 0.27328 0.50787 0.0
N214 N 0.21221 0.24147 0.59838 0.0
N215 N 0.30466 0.24025 0.52173 0.0
H216 H 0.50856 0.69011 0.47333 0.0
H217 H 0.30089 0.94864 0.40297 0.0
H218 H 0.31899 0.61485 0.48739 0.0
H219 H 0.18489 0.89218 0.4832 0.0
H220 H 0.3801 0.86131 0.4261 0.0
H221 H 0.46054 0.79807 0.46965 0.0
C222 C 0.45734 0.69656 0.47626 0.0
C223 C 0.41728 0.64388 0.48021 0.0
C224 C 0.3388 0.86927 0.43966 0.0
C225 C 0.36198 0.7659 0.47556 0.0
C226 C 0.29339 0.91876 0.42626 0.0
C227 C 0.2364 0.92706 0.44117 0.0
C228 C 0.32614 0.82729 0.46761 0.0
C229 C 0.22844 0.88724 0.47113 0.0
C230 C 0.42975 0.75786 0.47375 0.0
C231 C 0.35101 0.65433 0.48362 0.0
N232 N 0.27195 0.83798 0.48274 0.0
N233 N 0.32537 0.71416 0.48113 0.0
H234 H 0.07451 0.87904 0.13501 0.0
H235 H 0.04299 0.09019 0.30873 0.0
H236 H 0.97815 0.06292 0.12065 0.0
H237 H 0.07679 0.88729 0.32047 0.0
H238 H 0.00355 0.07647 0.23903 0.0
H239 H 0.0586 0.8737 0.20072 0.0
C240 C 0.04719 0.91692 0.14521 0.0
C241 C 0.02689 0.97114 0.12256 0.0
C242 C 0.01853 0.03471 0.25685 0.0
C243 C 0.01182 0.96725 0.198 0.0
C244 C 0.04103 0.0425 0.29685 0.0
C245 C 0.06458 0.98999 0.32071 0.0
C246 C 0.02078 0.97419 0.24033 0.0
C247 C 0.06132 0.92952 0.30323 0.0
C248 C 0.03864 0.91425 0.18279 0.0
C249 C 0.9936 0.01996 0.13724 0.0
N250 N 0.04109 0.92344 0.26406 0.0
N251 N 0.98835 0.01752 0.1744 0.0
H252 H 0.00538 0.87222 0.88564 0.0
H253 H 0.13365 0.97048 0.70117 0.0
H254 H 0.14718 0.02632 0.89055 0.0
H255 H 0.92962 0.91475 0.70336 0.0
H256 H 0.16892 0.95563 0.77155 0.0
H257 H 0.01532 0.84559 0.82054 0.0
C258 C 0.04115 0.89846 0.87361 0.0
C259 C 0.07507 0.95174 0.89297 0.0
C260 C 0.11696 0.94537 0.75607 0.0
C261 C 0.08461 0.92335 0.81841 0.0
C262 C 0.09624 0.95464 0.71595 0.0
C263 C 0.02792 0.94471 0.69565 0.0
C264 C 0.06964 0.92414 0.77577 0.0
C265 C 0.98295 0.92207 0.71679 0.0
C266 C 0.04631 0.8837 0.83642 0.0
C267 C 0.12027 0.98487 0.87623 0.0
N268 N 0.00462 0.91278 0.75548 0.0
N269 N 0.12246 0.97124 0.83921 0.0
H270 H 0.44361 0.48438 0.61447 0.0
H271 H 0.56961 0.35889 0.82991 0.0
H272 H 0.57807 0.32501 0.64854 0.0
H273 H 0.47445 0.54083 0.79637 0.0
H274 H 0.53948 0.32619 0.76181 0.0
H275 H 0.41822 0.48273 0.67796 0.0
C276 C 0.46509 0.44701 0.63473 0.0
C277 C 0.51232 0.40431 0.62636 0.0
C278 C 0.524 0.37275 0.76954 0.0
C279 C 0.48665 0.40418 0.69953 0.0
C280 C 0.54162 0.39167 0.80837 0.0
C281 C 0.52607 0.45335 0.81891 0.0
C282 C 0.49058 0.41576 0.74104 0.0
C283 C 0.48782 0.49293 0.78981 0.0
C284 C 0.45143 0.44661 0.67114 0.0
C285 C 0.54078 0.35823 0.65396 0.0
N286 N 0.47239 0.47383 0.7522 0.0
N287 N 0.5285 0.36007 0.68966 0.0
H288 H 0.5377 0.33564 0.36983 0.0
H289 H 0.60676 0.59079 0.22637 0.0
H290 H 0.64045 0.51266 0.40767 0.0
H291 H 0.54961 0.39704 0.192 0.0
H292 H 0.64044 0.55679 0.29378 0.0
H293 H 0.5636 0.34809 0.30694 0.0
C294 C 0.56838 0.37573 0.36531 0.0
C295 C 0.58752 0.42296 0.39376 0.0
C296 C 0.62179 0.52139 0.27147 0.0
C297 C 0.61404 0.43967 0.32145 0.0
C298 C 0.6027 0.5408 0.23285 0.0
C299 C 0.57368 0.49702 0.20347 0.0
C300 C 0.61093 0.45794 0.28087 0.0
C301 C 0.56959 0.43288 0.2138 0.0
C302 C 0.58264 0.38329 0.32932 0.0
C303 C 0.62557 0.47495 0.3864 0.0
N304 N 0.58667 0.41553 0.25166 0.0
N305 N 0.63626 0.48275 0.35059 0.0
loop_
_geom_bond_atom_site_label_1
_geom_bond_atom_site_label_2
_geom_bond_distance
_geom_bond_site_symmetry_2
_ccdc_geom_bond_type
Zn0 O6 1.920 1_545 S
Zn0 O12 1.898 . S
Zn0 O15 1.905 1_545 S
Zn1 O9 1.905 . S
Zn1 O10 1.898 1_545 S
Zn1 O18 1.920 1_545 S
Zn2 O5 2.080 1_445 S
Zn2 O8 2.114 . S
Zn2 O11 2.120 1_545 S
Zn2 O13 2.120 1_455 S
Zn2 O14 2.114 1_554 S
Zn2 O17 2.080 . S
C3 O8 1.166 . S
C3 O9 1.182 . S
C4 O10 1.167 . S
C4 O11 1.299 . S
O5 Zn2 2.080 1_665 S
O5 C19 1.305 . S
O6 Zn0 1.920 1_565 S
O6 C19 1.234 1_556 S
C7 O12 1.167 . S
C7 O13 1.299 1_556 S
O8 Zn2 2.114 . S
O8 C3 1.166 . S
O9 Zn1 1.905 . S
O9 C3 1.182 . S
O10 Zn1 1.898 1_565 S
O10 C4 1.167 . S
O11 Zn2 2.120 1_565 S
O11 C4 1.299 . S
O12 Zn0 1.898 . S
O12 C7 1.167 . S
O13 Zn2 2.120 1_655 S
O13 C7 1.299 1_554 S
O14 Zn2 2.114 1_556 S
O14 C16 1.162 1_445 S
O15 Zn0 1.905 1_565 S
O15 C16 1.194 . S
C16 O14 1.162 1_665 S
C16 O15 1.194 . S
O17 Zn2 2.080 . S
O17 C20 1.305 1_545 S
O18 Zn1 1.920 1_565 S
O18 C20 1.234 . S
C19 O5 1.305 . S
C19 O6 1.234 1_554 S
C20 O17 1.305 1_565 S
C20 O18 1.234 . S
Zn21 O27 1.920 . S
Zn21 O33 1.898 . S
Zn21 O36 1.905 . S
Zn22 O30 1.905 . S
Zn22 O31 1.898 . S
Zn22 O39 1.920 . S
Zn23 O26 2.080 . S
Zn23 O29 2.114 . S
Zn23 O32 2.120 . S
Zn23 O34 2.120 . S
Zn23 O35 2.114 . S
Zn23 O38 2.080 . S
C24 O29 1.166 . S
C24 O30 1.182 . S
C25 O31 1.167 . S
C25 O32 1.299 . S
O26 Zn23 2.080 . S
O26 C40 1.305 . S
O27 Zn21 1.920 . S
O27 C40 1.234 . S
C28 O33 1.167 . S
C28 O34 1.299 . S
O29 Zn23 2.114 . S
O29 C24 1.166 . S
O30 Zn22 1.905 . S
O30 C24 1.182 . S
O31 Zn22 1.898 . S
O31 C25 1.167 . S
O32 Zn23 2.120 . S
O32 C25 1.299 . S
O33 Zn21 1.898 . S
O33 C28 1.167 . S
O34 Zn23 2.120 . S
O34 C28 1.299 . S
O35 Zn23 2.114 . S
O35 C37 1.166 . S
O36 Zn21 1.905 . S
O36 C37 1.182 . S
C37 O35 1.166 . S
C37 O36 1.182 . S
O38 Zn23 2.080 . S
O38 C41 1.305 . S
O39 Zn22 1.920 . S
O39 C41 1.234 . S
C40 O26 1.305 . S
C40 O27 1.234 . S
C41 O38 1.305 . S
C41 O39 1.234 . S
H42 C47 0.930 1_565 S
H43 C50 0.930 . S
H44 C52 0.930 . S
H45 C46 1.015 . S
C46 H45 1.015 . S
C46 N53 1.286 . S
C47 H42 0.930 1_545 S
C47 C48 1.397 1_545 S
C47 C49 1.361 . S
C48 C47 1.397 1_565 S
C48 C52 1.390 . S
C49 C47 1.361 . S
C49 C50 1.393 . S
C49 N53 1.413 . S
C50 H43 0.930 . S
C50 C49 1.393 . S
C50 C51 1.399 . S
C51 C50 1.399 . S
C51 C52 1.381 1_545 S
C52 H44 0.930 . S
C52 C48 1.390 . S
C52 C51 1.381 1_565 S
N53 C46 1.286 . S
N53 C49 1.413 . S
H54 C59 0.931 . S
H55 C62 0.930 . S
H56 C64 0.930 . S
H57 C58 1.016 . S
C58 H57 1.016 . S
C58 N65 1.286 . S
C59 H54 0.931 . S
C59 C60 1.400 . S
C59 C61 1.357 1_665 S
C60 C59 1.400 . S
C60 C64 1.390 . S
C61 C59 1.357 1_445 S
C61 C62 1.393 . S
C61 N65 1.413 . S
C62 H55 0.930 . S
C62 C61 1.393 . S
C62 C63 1.399 1_455 S
C63 C62 1.399 1_655 S
C63 C64 1.381 1_545 S
C64 H56 0.930 . S
C64 C60 1.390 . S
C64 C63 1.381 1_565 S
N65 C58 1.286 . S
N65 C61 1.413 . S
H66 C71 0.930 . S
H67 C74 0.930 . S
H68 C76 0.930 . S
H69 C70 1.016 . S
C70 H69 1.016 . S
C70 N77 1.286 . S
C71 H66 0.930 . S
C71 C72 1.397 . S
C71 C73 1.361 . S
C72 C71 1.397 . S
C72 C76 1.390 . S
C73 C71 1.361 . S
C73 C74 1.393 . S
C73 N77 1.413 . S
C74 H67 0.930 . S
C74 C73 1.393 . S
C74 C75 1.399 . S
C75 C74 1.399 . S
C75 C76 1.381 . S
C76 H68 0.930 . S
C76 C72 1.390 . S
C76 C75 1.381 . S
N77 C70 1.286 . S
N77 C73 1.413 . S
H78 C83 0.930 . S
H79 C86 0.930 . S
H80 C88 0.930 . S
H81 C82 1.016 . S
C82 H81 1.016 . S
C82 N89 1.286 . S
C83 H78 0.930 . S
C83 C84 1.397 . S
C83 C85 1.361 . S
C84 C83 1.397 . S
C84 C88 1.390 . S
C85 C83 1.361 . S
C85 C86 1.393 . S
C85 N89 1.413 . S
C86 H79 0.930 . S
C86 C85 1.393 . S
C86 C87 1.399 . S
C87 C86 1.399 . S
C87 C88 1.381 . S
C88 H80 0.930 . S
C88 C84 1.390 . S
C88 C87 1.381 . S
N89 C82 1.286 . S
N89 C85 1.413 . S
H90 C96 0.930 1_556 S
H91 C100 0.930 . S
H92 C105 0.929 . S
H93 C103 0.929 . S
H94 C98 0.929 . S
H95 C104 0.929 . S
C96 H90 0.930 1_554 S
C96 C97 1.367 . S
C96 C104 1.378 . S
C97 C96 1.367 . S
C97 C105 1.433 . S
C98 H94 0.929 . S
C98 C100 1.378 . S
C98 C102 1.350 . S
C99 C102 1.463 . S
C99 C104 1.350 . S
C99 N107 1.427 . S
C100 H91 0.930 . S
C100 C98 1.378 . S
C100 C101 1.367 . S
C101 C100 1.367 . S
C101 C103 1.433 . S
C102 C98 1.350 . S
C102 C99 1.463 . S
C102 N106 1.427 . S
C103 H93 0.929 . S
C103 C101 1.433 . S
C103 N106 1.384 . S
C104 H95 0.929 . S
C104 C96 1.378 . S
C104 C99 1.350 . S
C105 H92 0.929 . S
C105 C97 1.433 . S
C105 N107 1.384 . S
N106 C102 1.427 . S
N106 C103 1.384 . S
N107 C99 1.427 . S
N107 C105 1.384 . S
H108 C114 0.930 . S
H109 C118 0.930 . S
H110 C123 0.929 . S
H111 C121 0.929 . S
H112 C116 0.929 . S
H113 C122 0.929 . S
C114 H108 0.930 . S
C114 C115 1.367 . S
C114 C122 1.378 . S
C115 C114 1.367 . S
C115 C123 1.433 1_556 S
C116 H112 0.929 . S
C116 C118 1.378 . S
C116 C120 1.350 1_554 S
C117 C120 1.463 . S
C117 C122 1.350 . S
C117 N125 1.427 1_556 S
C118 H109 0.930 . S
C118 C116 1.378 . S
C118 C119 1.367 1_554 S
C119 C118 1.367 1_556 S
C119 C121 1.433 . S
C120 C116 1.350 1_556 S
C120 C117 1.463 . S
C120 N124 1.427 . S
C121 H111 0.929 . S
C121 C119 1.433 . S
C121 N124 1.384 . S
C122 H113 0.929 . S
C122 C114 1.378 . S
C122 C117 1.350 . S
C123 H110 0.929 . S
C123 C115 1.433 1_554 S
C123 N125 1.384 . S
N124 C120 1.427 . S
N124 C121 1.384 . S
N125 C117 1.427 1_554 S
N125 C123 1.384 . S
H126 C132 0.930 . S
H127 C136 0.930 . S
H128 C141 0.929 1_556 S
H129 C139 0.929 . S
H130 C134 0.929 . S
H131 C140 0.929 . S
C132 H126 0.930 . S
C132 C133 1.367 . S
C132 C140 1.378 . S
C133 C132 1.367 . S
C133 C141 1.433 . S
C134 H130 0.929 . S
C134 C136 1.378 . S
C134 C138 1.350 . S
C135 C138 1.463 . S
C135 C140 1.350 . S
C135 N143 1.427 . S
C136 H127 0.930 . S
C136 C134 1.378 . S
C136 C137 1.367 . S
C137 C136 1.367 . S
C137 C139 1.433 . S
C138 C134 1.350 . S
C138 C135 1.463 . S
C138 N142 1.427 . S
C139 H129 0.929 . S
C139 C137 1.433 . S
C139 N142 1.384 . S
C140 H131 0.929 . S
C140 C132 1.378 . S
C140 C135 1.350 . S
C141 H128 0.929 1_554 S
C141 C133 1.433 . S
C141 N143 1.384 . S
N142 C138 1.427 . S
N142 C139 1.384 . S
N143 C135 1.427 . S
N143 C141 1.384 . S
H144 C150 0.930 . S
H145 C154 0.930 . S
H146 C159 0.929 . S
H147 C157 0.929 . S
H148 C152 0.929 1_554 S
H149 C158 0.929 . S
C150 H144 0.930 . S
C150 C151 1.367 . S
C150 C158 1.378 . S
C151 C150 1.367 . S
C151 C159 1.433 1_556 S
C152 H148 0.929 1_556 S
C152 C154 1.378 . S
C152 C156 1.350 . S
C153 C156 1.463 . S
C153 C158 1.350 . S
C153 N161 1.427 1_556 S
C154 H145 0.930 . S
C154 C152 1.378 . S
C154 C155 1.367 . S
C155 C154 1.367 . S
C155 C157 1.433 . S
C156 C152 1.350 . S
C156 C153 1.463 . S
C156 N160 1.427 . S
C157 H147 0.929 . S
C157 C155 1.433 . S
C157 N160 1.384 . S
C158 H149 0.929 . S
C158 C150 1.378 . S
C158 C153 1.350 . S
C159 H146 0.929 . S
C159 C151 1.433 1_554 S
C159 N161 1.384 . S
N160 C156 1.427 . S
N160 C157 1.384 . S
N161 C153 1.427 1_554 S
N161 C159 1.384 . S
H162 C168 0.930 . S
H163 C172 0.930 . S
H164 C177 0.929 . S
H165 C175 0.929 . S
H166 C170 0.929 . S
H167 C176 0.929 . S
C168 H162 0.930 . S
C168 C169 1.367 . S
C168 C176 1.378 . S
C169 C168 1.367 . S
C169 C177 1.433 . S
C170 H166 0.929 . S
C170 C172 1.378 . S
C170 C174 1.350 . S
C171 C174 1.463 . S
C171 C176 1.350 . S
C171 N179 1.427 . S
C172 H163 0.930 . S
C172 C170 1.378 . S
C172 C173 1.367 . S
C173 C172 1.367 . S
C173 C175 1.433 . S
C174 C170 1.350 . S
C174 C171 1.463 . S
C174 N178 1.427 . S
C175 H165 0.929 . S
C175 C173 1.433 . S
C175 N178 1.384 . S
C176 H167 0.929 . S
C176 C168 1.378 . S
C176 C171 1.350 . S
C177 H164 0.929 . S
C177 C169 1.433 . S
C177 N179 1.384 . S
N178 C174 1.427 . S
N178 C175 1.384 . S
N179 C171 1.427 . S
N179 C177 1.384 . S
H180 C186 0.930 . S
H181 C190 0.930 . S
H182 C195 0.929 . S
H183 C193 0.929 . S
H184 C188 0.929 . S
H185 C194 0.929 . S
C186 H180 0.930 . S
C186 C187 1.367 . S
C186 C194 1.378 . S
C187 C186 1.367 . S
C187 C195 1.433 . S
C188 H184 0.929 . S
C188 C190 1.378 . S
C188 C192 1.350 . S
C189 C192 1.463 . S
C189 C194 1.350 . S
C189 N197 1.427 . S
C190 H181 0.930 . S
C190 C188 1.378 . S
C190 C191 1.367 . S
C191 C190 1.367 . S
C191 C193 1.433 . S
C192 C188 1.350 . S
C192 C189 1.463 . S
C192 N196 1.427 . S
C193 H183 0.929 . S
C193 C191 1.433 . S
C193 N196 1.384 . S
C194 H185 0.929 . S
C194 C186 1.378 . S
C194 C189 1.350 . S
C195 H182 0.929 . S
C195 C187 1.433 . S
C195 N197 1.384 . S
N196 C192 1.427 . S
N196 C193 1.384 . S
N197 C189 1.427 . S
N197 C195 1.384 . S
H198 C204 0.930 . S
H199 C208 0.930 . S
H200 C213 0.929 . S
H201 C211 0.929 . S
H202 C206 0.929 . S
H203 C212 0.929 . S
C204 H198 0.930 . S
C204 C205 1.367 . S
C204 C212 1.378 . S
C205 C204 1.367 . S
C205 C213 1.433 . S
C206 H202 0.929 . S
C206 C208 1.378 . S
C206 C210 1.350 . S
C207 C210 1.463 . S
C207 C212 1.350 . S
C207 N215 1.427 . S
C208 H199 0.930 . S
C208 C206 1.378 . S
C208 C209 1.367 . S
C209 C208 1.367 . S
C209 C211 1.433 . S
C210 C206 1.350 . S
C210 C207 1.463 . S
C210 N214 1.427 . S
C211 H201 0.929 . S
C211 C209 1.433 . S
C211 N214 1.384 . S
C212 H203 0.929 . S
C212 C204 1.378 . S
C212 C207 1.350 . S
C213 H200 0.929 . S
C213 C205 1.433 . S
C213 N215 1.384 . S
N214 C210 1.427 . S
N214 C211 1.384 . S
N215 C207 1.427 . S
N215 C213 1.384 . S
H216 C222 0.930 . S
H217 C226 0.930 . S
H218 C231 0.929 . S
H219 C229 0.929 . S
H220 C224 0.929 . S
H221 C230 0.929 . S
C222 H216 0.930 . S
C222 C223 1.367 . S
C222 C230 1.378 . S
C223 C222 1.367 . S
C223 C231 1.433 . S
C224 H220 0.929 . S
C224 C226 1.378 . S
C224 C228 1.350 . S
C225 C228 1.463 . S
C225 C230 1.350 . S
C225 N233 1.427 . S
C226 H217 0.930 . S
C226 C224 1.378 . S
C226 C227 1.367 . S
C227 C226 1.367 . S
C227 C229 1.433 . S
C228 C224 1.350 . S
C228 C225 1.463 . S
C228 N232 1.427 . S
C229 H219 0.929 . S
C229 C227 1.433 . S
C229 N232 1.384 . S
C230 H221 0.929 . S
C230 C222 1.378 . S
C230 C225 1.350 . S
C231 H218 0.929 . S
C231 C223 1.433 . S
C231 N233 1.384 . S
N232 C228 1.427 . S
N232 C229 1.384 . S
N233 C225 1.427 . S
N233 C231 1.384 . S
H234 C240 0.930 . S
H235 C244 0.930 . S
H236 C249 0.929 . S
H237 C247 0.929 . S
H238 C242 0.929 . S
H239 C248 0.929 . S
C240 H234 0.930 . S
C240 C241 1.367 . S
C240 C248 1.378 . S
C241 C240 1.367 . S
C241 C249 1.433 1_565 S
C242 H238 0.929 . S
C242 C244 1.378 . S
C242 C246 1.350 . S
C243 C246 1.463 . S
C243 C248 1.350 1_545 S
C243 N251 1.427 . S
C244 H235 0.930 . S
C244 C242 1.378 . S
C244 C245 1.367 . S
C245 C244 1.367 . S
C245 C247 1.433 1_545 S
C246 C242 1.350 . S
C246 C243 1.463 . S
C246 N250 1.427 1_545 S
C247 H237 0.929 . S
C247 C245 1.433 1_565 S
C247 N250 1.384 . S
C248 H239 0.929 . S
C248 C240 1.378 . S
C248 C243 1.350 1_565 S
C249 H236 0.929 . S
C249 C241 1.433 1_545 S
C249 N251 1.384 . S
N250 C246 1.427 1_565 S
N250 C247 1.384 . S
N251 C243 1.427 . S
N251 C249 1.384 . S
H252 C258 0.930 . S
H253 C262 0.930 . S
H254 C267 0.929 . S
H255 C265 0.929 . S
H256 C260 0.929 . S
H257 C266 0.929 . S
C258 H252 0.930 . S
C258 C259 1.367 1_655 S
C258 C266 1.378 . S
C259 C258 1.367 1_455 S
C259 C267 1.433 . S
C260 H256 0.929 . S
C260 C262 1.378 . S
C260 C264 1.350 . S
C261 C264 1.464 . S
C261 C266 1.349 1_445 S
C261 N269 1.427 1_545 S
C262 H253 0.930 . S
C262 C260 1.378 . S
C262 C263 1.367 1_455 S
C263 C262 1.367 1_655 S
C263 C265 1.433 . S
C264 C260 1.350 . S
C264 C261 1.464 . S
C264 N268 1.427 1_455 S
C265 H255 0.929 . S
C265 C263 1.433 . S
C265 N268 1.384 . S
C266 H257 0.929 . S
C266 C258 1.378 . S
C266 C261 1.349 1_665 S
C267 H254 0.929 . S
C267 C259 1.433 . S
C267 N269 1.384 . S
N268 C264 1.427 1_655 S
N268 C265 1.384 . S
N269 C261 1.427 1_565 S
N269 C267 1.384 . S
H270 C276 0.930 . S
H271 C280 0.930 . S
H272 C285 0.929 . S
H273 C283 0.929 . S
H274 C278 0.929 . S
H275 C284 0.929 . S
C276 H270 0.930 . S
C276 C277 1.367 . S
C276 C284 1.378 . S
C277 C276 1.367 . S
C277 C285 1.433 . S
C278 H274 0.929 . S
C278 C280 1.378 . S
C278 C282 1.350 . S
C279 C282 1.463 . S
C279 C284 1.350 . S
C279 N287 1.427 . S
C280 H271 0.930 . S
C280 C278 1.378 . S
C280 C281 1.367 . S
C281 C280 1.367 . S
C281 C283 1.433 . S
C282 C278 1.350 . S
C282 C279 1.463 . S
C282 N286 1.427 . S
C283 H273 0.929 . S
C283 C281 1.433 . S
C283 N286 1.384 . S
C284 H275 0.929 . S
C284 C276 1.378 . S
C284 C279 1.350 . S
C285 H272 0.929 . S
C285 C277 1.433 . S
C285 N287 1.384 . S
N286 C282 1.427 . S
N286 C283 1.384 . S
N287 C279 1.427 . S
N287 C285 1.384 . S
H288 C294 0.930 . S
H289 C298 0.930 . S
H290 C303 0.929 . S
H291 C301 0.929 . S
H292 C296 0.929 . S
H293 C302 0.929 . S
C294 H288 0.930 . S
C294 C295 1.367 . S
C294 C302 1.378 . S
C295 C294 1.367 . S
C295 C303 1.433 . S
C296 H292 0.929 . S
C296 C298 1.378 . S
C296 C300 1.350 . S
C297 C300 1.463 . S
C297 C302 1.350 . S
C297 N305 1.427 . S
C298 H289 0.930 . S
C298 C296 1.378 . S
C298 C299 1.367 . S
C299 C298 1.367 . S
C299 C301 1.433 . S
C300 C296 1.350 . S
C300 C297 1.463 . S
C300 N304 1.427 . S
C301 H291 0.929 . S
C301 C299 1.433 . S
C301 N304 1.384 . S
C302 H293 0.929 . S
C302 C294 1.378 . S
C302 C297 1.350 . S
C303 H290 0.929 . S
C303 C295 1.433 . S
C303 N305 1.384 . S
N304 C300 1.427 . S
N304 C301 1.384 . S
N305 C297 1.427 . S
N305 C303 1.384 . S
C101 C84 1.327 . S
C97 C3 1.236 . S
C115 C4 1.448 1_556 S
C119 C70 1.520 . S
C133 C19 1.463 . S
C137 C82 1.536 . S
C151 C7 1.211 . S
C155 C72 1.343 . S
C169 C37 1.212 . S
C173 C60 1.336 . S
C187 C28 1.442 . S
C191 C46 1.520 1_655 S
C209 C58 1.535 . S
C205 C41 1.460 . S
C227 C48 1.343 . S
C223 C25 1.218 . S
C241 C20 1.360 . S
C245 C51 1.496 . S
C259 C16 1.388 1_455 S
C263 C63 1.535 . S
C281 C75 1.490 . S
C277 C40 1.366 . S
C295 C24 1.400 . S
C299 C87 1.537 . S
