# Generated by pormake.
# Topology zzz, (3,6)-cn, num edge types: 1
# Building blocks:
#     Node 0, Type 0, BuildingBlock: BETDAH_clean_linker_0, # of connection points: 3
#     Node 1, Type 0, BuildingBlock: BETDAH_clean_linker_0, # of connection points: 3
#     Node 2, Type 0, BuildingBlock: BETDAH_clean_linker_0, # of connection points: 3
#     Node 3, Type 0, BuildingBlock: BETDAH_clean_linker_0, # of connection points: 3
#     Node 4, Type 0, BuildingBlock: BETDAH_clean_linker_0, # of connection points: 3
#     Node 5, Type 0, BuildingBlock: BETDAH_clean_linker_0, # of connection points: 3
#     Node 6, Type 0, BuildingBlock: BETDAH_clean_linker_0, # of connection points: 3
#     Node 7, Type 0, BuildingBlock: BETDAH_clean_linker_0, # of connection points: 3
#     Node 8, Type 1, BuildingBlock: KUMBUR_clean_sbu_1, # of connection points: 6
#     Node 9, Type 1, BuildingBlock: KUMBUR_clean_sbu_1, # of connection points: 6
#     Node 10, Type 1, BuildingBlock: KUMBUR_clean_sbu_1, # of connection points: 6
#     Node 11, Type 1, BuildingBlock: KUMBUR_clean_sbu_1, # of connection points: 6
#     Edge 12, Type (0, 1), BuildingBlock: EZIPEK_clean_linker_0, # of connection points: 2
#     Edge 13, Type (0, 1), BuildingBlock: EZIPEK_clean_linker_0, # of connection points: 2
#     Edge 14, Type (0, 1), BuildingBlock: EZIPEK_clean_linker_0, # of connection points: 2
#     Edge 15, Type (0, 1), BuildingBlock: EZIPEK_clean_linker_0, # of connection points: 2
#     Edge 16, Type (0, 1), BuildingBlock: EZIPEK_clean_linker_0, # of connection points: 2
#     Edge 17, Type (0, 1), BuildingBlock: EZIPEK_clean_linker_0, # of connection points: 2
#     Edge 18, Type (0, 1), BuildingBlock: EZIPEK_clean_linker_0, # of connection points: 2
#     Edge 19, Type (0, 1), BuildingBlock: EZIPEK_clean_linker_0, # of connection points: 2
#     Edge 20, Type (0, 1), BuildingBlock: EZIPEK_clean_linker_0, # of connection points: 2
#     Edge 21, Type (0, 1), BuildingBlock: EZIPEK_clean_linker_0, # of connection points: 2
#     Edge 22, Type (0, 1), BuildingBlock: EZIPEK_clean_linker_0, # of connection points: 2
#     Edge 23, Type (0, 1), BuildingBlock: EZIPEK_clean_linker_0, # of connection points: 2
#     Edge 24, Type (0, 1), BuildingBlock: EZIPEK_clean_linker_0, # of connection points: 2
#     Edge 25, Type (0, 1), BuildingBlock: EZIPEK_clean_linker_0, # of connection points: 2
#     Edge 26, Type (0, 1), BuildingBlock: EZIPEK_clean_linker_0, # of connection points: 2
#     Edge 27, Type (0, 1), BuildingBlock: EZIPEK_clean_linker_0, # of connection points: 2
#     Edge 28, Type (0, 1), BuildingBlock: EZIPEK_clean_linker_0, # of connection points: 2
#     Edge 29, Type (0, 1), BuildingBlock: EZIPEK_clean_linker_0, # of connection points: 2
#     Edge 30, Type (0, 1), BuildingBlock: EZIPEK_clean_linker_0, # of connection points: 2
#     Edge 31, Type (0, 1), BuildingBlock: EZIPEK_clean_linker_0, # of connection points: 2
#     Edge 32, Type (0, 1), BuildingBlock: EZIPEK_clean_linker_0, # of connection points: 2
#     Edge 33, Type (0, 1), BuildingBlock: EZIPEK_clean_linker_0, # of connection points: 2
#     Edge 34, Type (0, 1), BuildingBlock: EZIPEK_clean_linker_0, # of connection points: 2
#     Edge 35, Type (0, 1), BuildingBlock: EZIPEK_clean_linker_0, # of connection points: 2
# Relax obj value: 0.244
# Max RMSD: 0.126
# Mean RMSD: 0.085
data_MOF--net-zzz--node1-KUMBUR_clean_sbu_1--node2-BETDAH_clean_linker_0--edge1-EZIPEK_clean_linker_0
_symmetry_space_group_name_H-M    P1
_symmetry_Int_Tables_number       1
_symmetry_cell_setting            triclinic
loop_
_symmetry_equiv_pos_as_xyz
'x, y, z'
_cell_length_a     36.929586
_cell_length_b     37.089132
_cell_length_c     11.887832
_cell_angle_alpha  89.415465
_cell_angle_beta   90.321853
_cell_angle_gamma 90.1326
loop_
_atom_site_label
_atom_site_type_symbol
_atom_site_fract_x
_atom_site_fract_y
_atom_site_fract_z
_atom_type_partial_charge
H0 H 0.85688 0.48917 0.35612 0.0
H1 H 0.75261 0.5021 0.20219 0.0
H2 H 0.77629 0.55481 0.51768 0.0
C3 C 0.83007 0.50105 0.35907 0.0
C4 C 0.82065 0.52239 0.4509 0.0
C5 C 0.80554 0.49368 0.272 0.0
C6 C 0.77077 0.50839 0.27119 0.0
C7 C 0.7596 0.53135 0.35664 0.0
C8 C 0.7847 0.53797 0.44879 0.0
N9 N 0.72377 0.54743 0.35018 0.0
C10 C 0.69729 0.54298 0.26265 0.0
H11 H 0.97148 0.87066 0.26095 0.0
H12 H 0.97607 0.76153 0.1387 0.0
H13 H 0.01706 0.78678 0.46879 0.0
C14 C 0.97802 0.84251 0.274 0.0
C15 C 0.99457 0.83355 0.37727 0.0
C16 C 0.97277 0.81754 0.18514 0.0
C17 C 0.98076 0.78086 0.20413 0.0
C18 C 0.99642 0.76845 0.30426 0.0
C19 C 1.00379 0.79538 0.39173 0.0
N20 N 1.00574 0.72991 0.31509 0.0
C21 C 1.00257 0.70051 0.23512 0.0
H22 H 0.69203 0.9723 0.36026 0.0
H23 H 0.79201 0.98575 0.18024 0.0
H24 H 0.76503 0.05682 0.45325 0.0
C25 C 0.71764 0.98594 0.34882 0.0
C26 C 0.72446 0.01542 0.41766 0.0
C27 C 0.74045 0.97663 0.25844 0.0
C28 C 0.77429 0.99357 0.24773 0.0
C29 C 0.7842 0.02233 0.31691 0.0
C30 C 0.75858 0.0338 0.40157 0.0
N31 N 0.81848 0.04081 0.29857 0.0
C32 C 0.84494 0.03486 0.21277 0.0
H33 H 0.57108 0.68455 0.31184 0.0
H34 H 0.56267 0.78925 0.15043 0.0
H35 H 0.5314 0.77436 0.49538 0.0
C36 C 0.5654 0.71306 0.31364 0.0
C37 C 0.55146 0.72575 0.41474 0.0
C38 C 0.56884 0.73498 0.21542 0.0
C39 C 0.56064 0.77193 0.22322 0.0
C40 C 0.54764 0.78702 0.32231 0.0
C41 C 0.54257 0.76351 0.41889 0.0
N42 N 0.53847 0.82511 0.32388 0.0
C43 C 0.53982 0.85069 0.23268 0.0
H44 H 0.20287 0.54815 0.21806 0.0
H45 H 0.31131 0.533 0.33549 0.0
H46 H 0.2821 0.50017 0.99861 0.0
C47 C 0.22983 0.53802 0.2014 0.0
C48 C 0.23755 0.52329 0.09559 0.0
C49 C 0.25657 0.54177 0.28475 0.0
C50 C 0.29159 0.52941 0.26866 0.0
C51 C 0.30172 0.51382 0.16772 0.0
C52 C 0.27448 0.51108 0.07916 0.0
N53 N 0.33899 0.5021 0.15546 0.0
C54 C 0.36726 0.50495 0.2383 0.0
H55 H 0.98135 0.23168 0.12789 0.0
H56 H 0.99266 0.34034 0.24147 0.0
H57 H 0.04231 0.30853 0.928 0.0
C58 C 0.99244 0.2584 0.11269 0.0
C59 C 1.01249 0.2648 0.01458 0.0
C60 C 0.98561 0.28545 0.19172 0.0
C61 C 0.99874 0.32049 0.17806 0.0
C62 C 0.01978 0.33008 0.08583 0.0
C63 C 0.02664 0.30176 1.00192 0.0
N64 N 0.0335 0.36735 0.07841 0.0
C65 C 0.02851 0.39741 0.15482 0.0
H66 H 0.32762 0.99067 0.05234 0.0
H67 H 0.2252 1.00612 0.2155 0.0
H68 H 0.27328 0.09227 0.01979 0.0
C69 C 0.30404 1.00715 0.06781 0.0
C70 C 0.30439 0.04217 0.02394 0.0
C71 C 0.27617 0.99411 0.13844 0.0
C72 C 0.2463 0.01616 0.16128 0.0
C73 C 0.24428 0.05161 0.12018 0.0
C74 C 0.2738 0.06472 0.05064 0.0
N75 N 0.21389 0.07438 0.15127 0.0
C76 C 0.18451 0.06633 0.22623 0.0
H77 H 0.57829 0.34091 0.13875 0.0
H78 H 0.55705 0.23784 0.28847 0.0
H79 H 0.4824 0.28191 0.04142 0.0
C80 C 0.56153 0.31686 0.14157 0.0
C81 C 0.53034 0.31517 0.07339 0.0
C82 C 0.56974 0.29003 0.22168 0.0
C83 C 0.5495 0.2583 0.22705 0.0
C84 C 0.51734 0.2549 0.1659 0.0
C85 C 0.50766 0.28362 0.08765 0.0
N86 N 0.49394 0.22426 0.18856 0.0
C87 C 0.49881 0.19717 0.27401 0.0
Tb88 Tb 0.97166 0.06015 0.60363 0.0
C89 C 0.10659 0.08692 0.89889 0.0
N90 N 0.10079 0.06536 0.80803 0.0
C91 C 0.15965 0.08173 0.73693 0.0
C92 C 0.13816 0.10833 0.90792 0.0
C93 C 0.12806 0.061 0.73139 0.0
C94 C 0.1645 0.10591 0.82453 0.0
C95 C 0.08516 0.11095 0.07595 0.0
C96 C 0.08077 0.08769 0.98368 0.0
C97 C 0.1158 0.13325 0.08229 0.0
C98 C 0.14247 0.13158 0.9995 0.0
Tb99 Tb 0.04781 0.03209 0.81411 0.0
N100 N 0.05048 0.06682 0.97275 0.0
C101 C 0.0584 0.11145 0.15855 0.0
C102 C 0.02573 0.06535 0.05765 0.0
C103 C 0.02876 0.08832 0.14982 0.0
H104 H 0.12685 0.04064 0.66758 0.0
H105 H 1.00818 0.08828 0.21401 0.0
H106 H 0.89713 0.06538 0.77057 0.0
H107 H 0.97405 1.00224 0.19052 0.0
H108 H 1.00376 0.04634 0.05562 0.0
H109 H 0.06062 0.1292 0.2301 0.0
H110 H 0.99264 0.04443 0.34142 0.0
H111 H 0.18062 0.07846 0.6746 0.0
H112 H 0.11911 0.15194 0.15096 0.0
H113 H 0.16626 0.14857 1.00672 0.0
H114 H 0.84437 0.02771 0.81374 0.0
H115 H 0.18909 0.12186 0.82864 0.0
H116 H 0.92671 0.95623 0.22958 0.0
N117 N 0.91958 0.02867 0.65189 0.0
C118 C 0.91095 1.0009 0.58236 0.0
C119 C 0.86339 0.01924 0.75034 0.0
C120 C 0.87985 0.9794 0.60069 0.0
C121 C 0.89411 0.0401 0.72722 0.0
C122 C 0.85698 0.9879 0.68975 0.0
N123 N 0.95726 0.0215 0.46225 0.0
C124 C 0.97204 0.02441 0.35746 0.0
C125 C 0.9188 0.97299 0.40048 0.0
C126 C 0.92991 0.99778 0.48275 0.0
C127 C 0.93542 0.97428 0.29521 0.0
C128 C 0.96176 1.00046 0.2728 0.0
H129 H 0.83281 0.97217 0.70646 0.0
H130 H 0.84726 0.93525 0.5374 0.0
H131 H 0.88152 0.92959 0.36176 0.0
O132 O 0.97273 0.10705 0.50114 0.0
O133 O 0.99836 1.00725 0.56361 0.0
O134 O 0.02006 0.98421 0.72968 0.0
O135 O 0.92352 0.0778 0.52672 0.0
O136 O 0.02746 0.06843 0.53026 0.0
O137 O 0.06577 0.03264 0.63772 0.0
O138 O 0.0621 1.0049 0.96316 0.0
O139 O 0.03573 0.09289 0.8128 0.0
O140 O 0.98528 0.10825 0.70797 0.0
O141 O 0.09157 0.99558 0.81215 0.0
O142 O 0.99245 0.01746 0.8729 0.0
O143 O 0.96041 0.0629 0.78844 0.0
C144 C 1.00831 0.97877 0.6245 0.0
C145 C 0.91916 0.14074 0.5263 0.0
C146 C 0.91303 0.20567 0.51106 0.0
C147 C 0.88774 0.20551 0.59834 0.0
C148 C 0.89325 0.14058 0.61298 0.0
C149 C 0.87769 0.17284 0.64859 0.0
C150 C 0.92854 0.17336 0.47525 0.0
C151 C 0.05948 0.05253 0.54725 0.0
C152 C 0.93765 0.10758 0.49105 0.0
C153 C 0.8707 0.95234 0.52367 0.0
C154 C 0.89009 0.94922 0.4234 0.0
C155 C 1.01152 0.11761 0.77873 0.0
C156 C 0.08807 0.94833 0.94505 0.0
C157 C 0.05269 0.89419 0.97766 0.0
C158 C 0.08122 0.87994 0.04306 0.0
C159 C 0.11635 0.93412 0.01071 0.0
C160 C 0.05743 0.9273 0.92257 0.0
C161 C 0.11321 0.89958 0.05748 0.0
C162 C 0.96343 0.03821 0.86911 0.0
C163 C 0.08795 0.98676 0.91728 0.0
H164 H 0.87593 0.23047 0.62702 0.0
H165 H 0.88522 0.11575 0.65409 0.0
H166 H 0.85808 0.17251 0.71593 0.0
H167 H 0.94842 0.17378 0.40832 0.0
H168 H 0.07829 0.85415 0.08568 0.0
H169 H 0.14016 0.95019 0.02911 0.0
H170 H 0.03557 0.93824 0.87241 0.0
H171 H 0.13485 0.88873 0.10931 0.0
Tb172 Tb 0.54266 0.05994 0.86397 0.0
C173 C 0.54301 0.91468 0.71567 0.0
N174 N 0.54816 0.94514 0.65296 0.0
C175 C 0.60163 0.91834 0.57395 0.0
C176 C 0.56873 0.88658 0.71826 0.0
C177 C 0.5753 0.9454 0.57491 0.0
C178 C 0.59912 0.88946 0.64936 0.0
C179 C 0.502 0.87772 0.82618 0.0
C180 C 0.51002 0.9099 0.76728 0.0
C181 C 0.52874 0.85109 0.83763 0.0
C182 C 0.56208 0.85548 0.78342 0.0
Tb183 Tb 0.50276 0.98816 0.66342 0.0
N184 N 0.48522 0.93662 0.75662 0.0
C185 C 0.46712 0.87301 0.86942 0.0
C186 C 0.45039 0.93119 0.79193 0.0
C187 C 0.44096 0.89955 0.84999 0.0
H188 H 0.5767 0.96587 0.51133 0.0
H189 H 0.41366 0.89583 0.88074 0.0
H190 H 0.48618 0.12133 0.95185 0.0
H191 H 0.68779 0.07697 0.79721 0.0
H192 H 0.43009 0.95171 0.77802 0.0
H193 H 0.45988 0.84868 0.91529 0.0
H194 H 0.63362 0.04505 0.8636 0.0
H195 H 0.62361 0.91967 0.51414 0.0
H196 H 0.52347 0.82664 0.88532 0.0
H197 H 0.58194 0.83409 0.78839 0.0
H198 H 0.48067 0.18772 0.94864 0.0
H199 H 0.61941 0.86841 0.64816 0.0
H200 H 0.68346 0.14034 0.7317 0.0
N201 N 0.536 0.12106 0.86342 0.0
C202 C 0.56336 0.14112 0.82055 0.0
C203 C 0.50389 0.17495 0.91088 0.0
C204 C 0.5612 0.17904 0.81454 0.0
C205 C 0.50703 0.13733 0.91231 0.0
C206 C 0.53067 0.1959 0.85911 0.0
N207 N 0.59723 0.08803 0.82222 0.0
C208 C 0.63068 0.0722 0.83131 0.0
C209 C 0.62589 0.14372 0.76319 0.0
C210 C 0.59517 0.12372 0.79671 0.0
C211 C 0.65922 0.12606 0.75754 0.0
C212 C 0.66178 0.09038 0.79491 0.0
H213 H 0.52815 0.22499 0.85773 0.0
H214 H 0.5892 0.22794 0.76365 0.0
H215 H 0.646 0.19685 0.71738 0.0
O216 O 0.56583 0.08181 0.00907 0.0
O217 O 0.51512 0.08584 0.71676 0.0
O218 O 0.50556 0.04264 0.57972 0.0
O219 O 0.5211 0.0441 0.01925 0.0
O220 O 0.58051 0.02455 0.77445 0.0
O221 O 0.55354 0.01695 0.60642 0.0
O222 O 0.45217 0.98442 0.58526 0.0
O223 O 0.50322 0.97954 0.84748 0.0
O224 O 0.55682 1.00208 0.89512 0.0
O225 O 0.49752 0.95564 0.51951 0.0
O226 O 0.45781 1.01416 0.75735 0.0
O227 O 0.48172 0.06068 0.86313 0.0
C228 C 0.50532 0.07692 0.61297 0.0
C229 C 0.56761 0.03817 0.14986 0.0
C230 C 0.61919 0.99896 0.18608 0.0
C231 C 0.60985 0.99834 0.30037 0.0
C232 C 0.55854 0.03702 0.26267 0.0
C233 C 0.57925 0.01671 0.33661 0.0
C234 C 0.59708 0.01813 0.11071 0.0
C235 C 0.58356 0.0232 0.66497 0.0
C236 C 0.5467 0.06076 0.07375 0.0
C237 C 0.59056 0.19884 0.77136 0.0
C238 C 0.62287 0.18112 0.74495 0.0
C239 C 0.53241 0.97657 0.90983 0.0
C240 C 0.44744 0.96658 0.39967 0.0
C241 C 0.39254 0.96349 0.28847 0.0
C242 C 0.40853 0.98607 0.20708 0.0
C243 C 0.46385 0.98808 0.31735 0.0
C244 C 0.41261 0.95286 0.3827 0.0
C245 C 0.44423 0.99792 0.22146 0.0
C246 C 0.45351 0.04121 0.82851 0.0
C247 C 0.46311 0.96178 0.51064 0.0
H248 H 0.62629 0.98399 0.3617 0.0
H249 H 0.53585 0.05215 0.2938 0.0
H250 H 0.57201 0.01661 0.42263 0.0
H251 H 0.60422 0.01913 0.0229 0.0
H252 H 0.39332 0.99478 0.13357 0.0
H253 H 0.49104 0.99835 0.32937 0.0
H254 H 0.39995 0.93627 0.44722 0.0
H255 H 0.45679 0.01501 0.15897 0.0
Tb256 Tb 0.5757 0.50751 0.64999 0.0
C257 C 0.44513 0.47481 0.94462 0.0
N258 N 0.44879 0.49262 0.84496 0.0
C259 C 0.39657 0.4616 0.77261 0.0
C260 C 0.41874 0.44765 0.95925 0.0
C261 C 0.42329 0.48821 0.76241 0.0
C262 C 0.39479 0.44063 0.87056 0.0
C263 C 0.46431 0.46712 0.13776 0.0
C264 C 0.46742 0.48472 0.0327 0.0
C265 C 0.43941 0.43876 0.15161 0.0
C266 C 0.41647 0.42918 0.06262 0.0
Tb267 Tb 0.49358 0.53546 0.83729 0.0
N268 N 0.49122 0.51245 0.01663 0.0
C269 C 0.48612 0.47883 0.22611 0.0
C270 C 0.50951 0.52641 0.10654 0.0
C271 C 0.50766 0.50934 0.21126 0.0
H272 H 0.42282 0.50549 0.68928 0.0
H273 H 0.52201 0.52024 0.28122 0.0
H274 H 0.64746 0.49257 0.8262 0.0
H275 H 0.58513 0.57728 0.25473 0.0
H276 H 0.5253 0.55082 0.0988 0.0
H277 H 0.48578 0.46514 0.30681 0.0
H278 H 0.56519 0.52947 0.38937 0.0
H279 H 0.37707 0.45766 0.70551 0.0
H280 H 0.43706 0.42471 0.23161 0.0
H281 H 0.39663 0.40798 0.07527 0.0
H282 H 0.70086 0.52606 0.89097 0.0
H283 H 0.37398 0.42013 0.87853 0.0
H284 H 0.63041 0.62271 0.31821 0.0
N285 N 0.62919 0.53404 0.7133 0.0
C286 C 0.63991 0.56405 0.65586 0.0
C287 C 0.68359 0.53751 0.82603 0.0
C288 C 0.67141 0.58337 0.68638 0.0
C289 C 0.65275 0.51885 0.78991 0.0
C290 C 0.69233 0.57059 0.7765 0.0
N291 N 0.59484 0.55024 0.52456 0.0
C292 C 0.58332 0.5503 0.41565 0.0
C293 C 0.63537 0.59949 0.4844 0.0
C294 C 0.62222 0.57222 0.55671 0.0
C295 C 0.62049 0.60247 0.37633 0.0
C296 C 0.59503 0.57701 0.34047 0.0
H297 H 0.71662 0.58466 0.80297 0.0
H298 H 0.70629 0.62856 0.64368 0.0
H299 H 0.67468 0.6426 0.46575 0.0
O300 O 0.57399 0.45726 0.56648 0.0
O301 O 0.54736 0.55965 0.60736 0.0
O302 O 0.53056 0.5798 0.77894 0.0
O303 O 0.62134 0.49029 0.56173 0.0
O304 O 0.52155 0.49873 0.56355 0.0
O305 O 0.47963 0.53434 0.65636 0.0
O306 O 0.46249 0.56336 0.95561 0.0
O307 O 0.50107 0.47649 0.80031 0.0
O308 O 0.562 0.46711 0.78446 0.0
O309 O 0.45299 0.57109 0.78027 0.0
O310 O 0.54828 0.5478 0.91464 0.0
O311 O 0.58473 0.50545 0.83451 0.0
C312 C 0.53914 0.58696 0.6731 0.0
C313 C 0.63128 0.42794 0.56655 0.0
C314 C 0.64808 0.36578 0.53152 0.0
C315 C 0.67654 0.36822 0.60929 0.0
C316 C 0.66037 0.43042 0.64328 0.0
C317 C 0.68266 0.40066 0.66492 0.0
C318 C 0.62552 0.39554 0.51079 0.0
C319 C 0.48881 0.51393 0.57086 0.0
C320 C 0.60795 0.45909 0.53876 0.0
C321 C 0.68254 0.61304 0.62056 0.0
C322 C 0.66459 0.62102 0.51921 0.0
C323 C 0.52976 0.4558 0.81856 0.0
C324 C 0.4455 0.62081 0.89738 0.0
C325 C 0.48134 0.67238 0.95361 0.0
C326 C 0.44946 0.69143 0.97703 0.0
C327 C 0.41364 0.63967 0.9208 0.0
C328 C 0.47889 0.63819 0.90685 0.0
C329 C 0.41567 0.67531 0.95811 0.0
C330 C 0.57886 0.52873 0.91537 0.0
C331 C 0.44493 0.58186 0.88026 0.0
H332 H 0.6938 0.34523 0.62648 0.0
H333 H 0.66636 0.45534 0.68527 0.0
H334 H 0.70483 0.40284 0.72443 0.0
H335 H 0.60346 0.39341 0.45045 0.0
H336 H 0.45077 0.7181 0.01312 0.0
H337 H 0.3875 0.62654 0.91398 0.0
H338 H 0.50352 0.6236 0.89197 0.0
H339 H 0.39113 0.68982 0.97751 0.0
Tb340 Tb 0.03747 0.5664 0.6743 0.0
C341 C 0.08399 0.43083 0.966 0.0
N342 N 0.06618 0.43967 0.86769 0.0
C343 C 0.10236 0.39606 0.7712 0.0
C344 C 0.11551 0.40875 0.96704 0.0
C345 C 0.07428 0.42119 0.77228 0.0
C346 C 0.12329 0.39031 0.86767 0.0
C347 C 0.11153 0.44953 0.17722 0.0
C348 C 0.07336 0.4464 0.06312 0.0
C349 C 0.14007 0.42679 0.15847 0.0
C350 C 0.14022 0.40563 0.0603 0.0
Tb351 Tb 0.0182 0.48053 0.86713 0.0
N352 N 0.03614 0.47619 0.06237 0.0
C353 C 0.10885 0.48838 0.29241 0.0
C354 C 0.02724 0.51017 0.16452 0.0
C355 C 0.0639 0.52007 0.2875 0.0
H356 H 0.05884 0.4254 0.69649 0.0
H357 H 0.06106 0.54245 0.34413 0.0
H358 H 0.04721 0.63738 0.84981 0.0
H359 H 0.96304 0.55703 0.28129 0.0
H360 H 1.00434 0.52791 0.15467 0.0
H361 H 0.13047 0.49283 0.35252 0.0
H362 H 1.00588 0.53711 0.42772 0.0
H363 H 0.1085 0.38179 0.69468 0.0
H364 H 0.1624 0.42554 0.21763 0.0
H365 H 0.16318 0.38771 0.05193 0.0
H366 H 0.01716 0.69484 0.88293 0.0
H367 H 0.14618 0.37215 0.86338 0.0
H368 H 0.92944 0.61391 0.30342 0.0
N369 N 1.01211 0.62183 0.71444 0.0
C370 C 0.98636 0.63384 0.64081 0.0
C371 C 1.00783 0.67773 0.8154 0.0
C372 C 0.96952 0.6677 0.65414 0.0
C373 C 0.02434 0.64444 0.79723 0.0
C374 C 0.97984 0.68915 0.7448 0.0
N375 N 0.99631 0.5814 0.53531 0.0
C376 C 0.99172 0.56196 0.43888 0.0
C377 C 0.95404 0.62589 0.46457 0.0
C378 C 0.97868 0.61325 0.54724 0.0
C379 C 0.94819 0.60517 0.36859 0.0
C380 C 0.96723 0.57313 0.35558 0.0
H381 H 0.96745 0.71521 0.75816 0.0
H382 H 0.93084 0.70563 0.58332 0.0
H383 H 0.91739 0.66903 0.41696 0.0
O384 O 0.08634 0.56161 0.58547 0.0
O385 O 0.98262 0.54174 0.65286 0.0
O386 O 0.96726 0.5091 0.81294 0.0
O387 O 0.05931 0.61271 0.59732 0.0
O388 O 0.04804 0.51559 0.57814 0.0
O389 O 1.01409 0.47188 0.66982 0.0
O390 O 0.9881 0.44896 0.98111 0.0
O391 O 0.0771 0.49509 0.84762 0.0
O392 O 0.07808 0.55584 0.81066 0.0
O393 O 0.9964 0.4315 0.81157 0.0
O394 O 1.00062 0.53415 0.94669 0.0
O395 O 0.03762 0.57544 0.85881 0.0
C396 C 0.95813 0.52544 0.71658 0.0
C397 C 0.12255 0.61282 0.61667 0.0
C398 C 0.18807 0.61386 0.61889 0.0
C399 C 0.18814 0.63777 0.70923 0.0
C400 C 0.12254 0.63761 0.70569 0.0
C401 C 0.15522 0.64988 0.75184 0.0
C402 C 0.15539 0.60153 0.57325 0.0
C403 C 0.03026 0.48447 0.57379 0.0
C404 C 0.08914 0.59646 0.57259 0.0
C405 C 0.94407 0.67978 0.57415 0.0
C406 C 0.93649 0.65901 0.47928 0.0
C407 C 0.09493 0.52623 0.8458 0.0
C408 C 0.94422 0.40949 0.90068 0.0
C409 C 0.88119 0.40982 0.95696 0.0
C410 C 0.87413 0.38013 0.88818 0.0
C411 C 0.93718 0.37931 0.83329 0.0
C412 C 0.91606 0.42456 0.96242 0.0
C413 C 0.90222 0.36486 0.82671 0.0
C414 C 1.01375 0.56799 0.93786 0.0
C415 C 0.98116 0.42417 0.90714 0.0
H416 H 0.2134 0.64723 0.74517 0.0
H417 H 0.09752 0.64722 0.74054 0.0
H418 H 0.15498 0.66858 0.82111 0.0
H419 H 0.15562 0.58264 0.50401 0.0
H420 H 0.84713 0.36879 0.883 0.0
H421 H 0.9587 0.36699 0.7856 0.0
H422 H 0.92109 0.44768 0.01546 0.0
H423 H 0.89696 0.34174 0.77418 0.0
C424 C 0.13654 0.09371 0.35696 0.0
C425 C 0.15217 0.06295 0.30431 0.0
C426 C 0.10932 0.02511 0.41618 0.0
C427 C 0.0907 0.05605 0.45979 0.0
N428 N 0.09044 0.12107 0.47205 0.0
N429 N 0.14501 0.99998 0.26443 0.0
C430 C 0.10516 0.09054 0.42847 0.0
C431 C 0.13598 0.02895 0.32829 0.0
N432 N 0.15115 0.12708 0.3413 0.0
N433 N 0.10353 0.9917 0.46189 0.0
H434 H 0.1631 1.00189 0.19762 0.0
H435 H 0.13139 0.97536 0.26937 0.0
H436 H 0.08536 0.9864 0.52628 0.0
H437 H 0.11939 0.96944 0.44232 0.0
H438 H 0.17387 0.13227 0.29177 0.0
H439 H 0.17387 0.13227 0.29177 0.0
H440 H 0.09995 0.14683 0.45155 0.0
H441 H 0.06904 0.12073 0.52884 0.0
C442 C 0.49461 0.13037 0.32677 0.0
C443 C 0.49953 0.16685 0.36001 0.0
C444 C 0.49651 0.14507 0.55836 0.0
C445 C 0.49782 0.10811 0.52584 0.0
N446 N 0.47339 0.07074 0.38034 0.0
N447 N 0.50794 0.20812 0.51282 0.0
C448 C 0.49036 0.10189 0.40973 0.0
C449 C 0.50145 0.17384 0.47733 0.0
N450 N 0.49412 0.12258 0.21498 0.0
N451 N 0.48351 0.15307 0.66193 0.0
H452 H 0.5106 0.22983 0.45704 0.0
H453 H 0.51344 0.21417 0.59672 0.0
H454 H 0.47211 0.13327 0.71362 0.0
H455 H 0.47752 0.17931 0.68608 0.0
H456 H 0.49437 0.09634 0.18527 0.0
H457 H 0.49637 0.14236 0.15245 0.0
H458 H 0.46384 0.06601 0.29949 0.0
H459 H 0.46309 0.05275 0.4399 0.0
C460 C 0.42419 0.53637 0.31544 0.0
C461 C 0.39886 0.50731 0.31994 0.0
C462 C 0.43654 0.47939 0.47278 0.0
C463 C 0.46013 0.51 0.4761 0.0
N464 N 0.47646 0.56751 0.39625 0.0
N465 N 0.37868 0.45356 0.40752 0.0
C466 C 0.45359 0.53858 0.39664 0.0
C467 C 0.40478 0.47944 0.40045 0.0
N468 N 0.42101 0.56118 0.23015 0.0
N469 N 0.44538 0.4497 0.5359 0.0
H470 H 0.37813 0.43298 0.46784 0.0
H471 H 0.37813 0.43298 0.46784 0.0
H472 H 0.4679 0.44912 0.58915 0.0
H473 H 0.4324 0.42489 0.52951 0.0
H474 H 0.44021 0.58095 0.21235 0.0
H475 H 0.39989 0.56053 0.17151 0.0
H476 H 0.47189 0.59121 0.35085 0.0
H477 H 0.50022 0.56791 0.44386 0.0
C478 C 0.05469 0.46068 0.24447 0.0
C479 C 0.02505 0.43237 0.22558 0.0
C480 C 0.99299 0.45657 0.39727 0.0
C481 C 0.02633 0.46588 0.45003 0.0
N482 N 0.08399 0.43749 0.42378 0.0
N483 N 0.96125 0.41972 0.26281 0.0
C484 C 0.05621 0.45655 0.37665 0.0
C485 C 0.99276 0.43589 0.29403 0.0
N486 N 0.0827 0.49782 0.13379 0.0
N487 N 0.9613 0.46585 0.44628 0.0
H488 H 0.95824 0.40515 0.18861 0.0
H489 H 0.95824 0.40515 0.18861 0.0
H490 H 0.96099 0.48201 0.51723 0.0
H491 H 0.93615 0.45923 0.41149 0.0
H492 H 0.1022 0.51884 0.12458 0.0
H493 H 0.1022 0.51884 0.12458 0.0
H494 H 0.08561 0.4319 0.50992 0.0
H495 H 0.08561 0.4319 0.50992 0.0
C496 C 0.88178 1.00518 0.05726 0.0
C497 C 0.87604 0.03475 0.1297 0.0
C498 C 0.92754 0.06629 0.03517 0.0
C499 C 0.93436 0.03615 0.96375 0.0
N500 N 0.91911 0.97504 0.91637 0.0
N501 N 0.89909 0.09033 0.20345 0.0
C502 C 0.91197 1.00482 0.97898 0.0
C503 C 0.90058 0.06435 0.12287 0.0
N504 N 0.85696 0.97807 0.06366 0.0
N505 N 0.94669 0.09737 0.01899 0.0
H506 H 0.8798 0.09013 0.26723 0.0
H507 H 0.91875 0.11023 0.21346 0.0
H508 H 0.96813 0.09933 0.96301 0.0
H509 H 0.94024 0.12174 0.05657 0.0
H510 H 0.85625 0.95562 0.01177 0.0
H511 H 0.85625 0.95562 0.01177 0.0
H512 H 0.9068 0.95007 0.92761 0.0
H513 H 0.93878 0.97496 0.85406 0.0
C514 C 0.50664 0.90367 0.14096 0.0
C515 C 0.53798 0.88157 0.14823 0.0
C516 C 0.56786 0.92377 0.01181 0.0
C517 C 0.53569 0.94525 0.99893 0.0
N518 N 0.47224 0.95033 0.04516 0.0
N519 N 0.59561 0.8666 0.06986 0.0
C520 C 0.50459 0.93346 0.0617 0.0
C521 C 0.56757 0.89041 0.07681 0.0
N522 N 0.47859 0.89682 0.21268 0.0
N523 N 0.59937 0.93536 0.96445 0.0
H524 H 0.59697 0.84318 0.11895 0.0
H525 H 0.6159 0.86846 0.00964 0.0
H526 H 0.60183 0.96015 0.92476 0.0
H527 H 0.62418 0.92255 0.97544 0.0
H528 H 0.45645 0.91379 0.22133 0.0
H529 H 0.47831 0.87505 0.26892 0.0
H530 H 0.44757 0.93842 0.06598 0.0
H531 H 0.46962 0.97568 0.00796 0.0
C532 C 0.64887 0.50625 0.16037 0.0
C533 C 0.66721 0.53938 0.17615 0.0
C534 C 0.62569 0.56675 0.03113 0.0
C535 C 0.60842 0.53265 0.01004 0.0
N536 N 0.61724 0.4677 0.03132 0.0
N537 N 0.675 0.60044 0.12666 0.0
C538 C 0.62373 0.50182 0.06831 0.0
C539 C 0.6561 0.56938 0.10969 0.0
N540 N 0.65513 0.47845 0.23418 0.0
N541 N 0.61415 0.59621 0.97153 0.0
H542 H 0.67033 0.62491 0.08552 0.0
H543 H 0.67033 0.62491 0.08552 0.0
H544 H 0.59018 0.59627 0.92564 0.0
H545 H 0.62737 0.62091 0.96774 0.0
H546 H 0.63937 0.45509 0.23588 0.0
H547 H 0.67378 0.4802 0.30023 0.0
H548 H 0.63079 0.44516 0.0632 0.0
H549 H 0.60205 0.46169 0.96058 0.0
C550 C 0.97538 0.65539 0.08767 0.0
C551 C 1.00338 0.66524 0.1659 0.0
C552 C 0.03574 0.60878 0.10615 0.0
C553 C 1.00758 0.59831 0.02932 0.0
N554 N 0.94657 0.60937 0.96949 0.0
N555 N 0.05602 0.64449 0.26684 0.0
C556 C 0.97622 0.62104 0.02753 0.0
C557 C 0.03215 0.63974 0.18001 0.0
N558 N 0.94797 0.67931 0.06858 0.0
N559 N 0.0669 0.58932 0.10724 0.0
H560 H 0.05486 0.66655 0.32046 0.0
H561 H 0.0748 0.62512 0.29225 0.0
H562 H 0.06999 0.56684 0.05682 0.0
H563 H 0.09018 0.59667 0.15117 0.0
H564 H 0.92893 0.6766 1.00433 0.0
H565 H 0.94579 0.70332 0.11297 0.0
H566 H 0.92162 0.62232 0.96993 0.0
H567 H 0.94616 0.58438 0.93003 0.0
C568 C 0.92584 0.27239 0.27807 0.0
C569 C 0.96375 0.27643 0.29126 0.0
C570 C 0.96059 0.25116 0.4809 0.0
C571 C 0.92513 0.23921 0.456 0.0
N572 N 0.87181 0.24062 0.33895 0.0
N573 N 0.01769 0.27262 0.40639 0.0
C574 C 0.90667 0.2514 0.35826 0.0
C575 C 0.98119 0.26762 0.39441 0.0
N576 N 0.90867 0.28808 0.18803 0.0
N577 N 0.97464 0.24517 0.58592 0.0
H578 H 0.03357 0.28503 0.34489 0.0
H579 H 0.03265 0.263 0.47477 0.0
H580 H 0.95958 0.23254 0.64907 0.0
H581 H 0.99946 0.25528 0.61317 0.0
H582 H 0.88066 0.2885 0.17792 0.0
H583 H 0.92247 0.30352 0.12807 0.0
H584 H 0.85816 0.24478 0.2631 0.0
H585 H 0.85686 0.22626 0.39872 0.0
C586 C 0.30453 0.93451 0.15654 0.0
C587 C 0.28314 0.96104 0.2078 0.0
C588 C 0.32809 0.97098 0.35097 0.0
C589 C 0.35375 0.95404 0.27992 0.0
N590 N 0.36524 0.90946 0.13817 0.0
N591 N 0.2641 0.97614 0.3935 0.0
C592 C 0.34142 0.93147 0.19138 0.0
C593 C 0.29122 0.96881 0.32033 0.0
N594 N 0.29076 0.9172 0.06539 0.0
N595 N 0.33862 0.9914 0.44027 0.0
H596 H 0.23699 0.97346 0.36962 0.0
H597 H 0.26871 0.9807 0.4788 0.0
H598 H 0.36554 0.99496 0.46408 0.0
H599 H 0.32043 1.0068 0.48613 0.0
H600 H 0.30491 0.8984 0.01856 0.0
H601 H 0.26408 0.92188 0.03931 0.0
H602 H 0.35833 0.89296 0.07114 0.0
H603 H 0.39209 0.90697 0.1649 0.0
C604 C 0.58393 0.30153 0.42544 0.0
C605 C 0.59606 0.29826 0.31236 0.0
C606 C 0.65313 0.32755 0.36194 0.0
C607 C 0.63977 0.33216 0.47202 0.0
N608 N 0.60151 0.31036 0.61976 0.0
N609 N 0.646 0.29743 0.18277 0.0
C610 C 0.60864 0.31361 0.50769 0.0
C611 C 0.63224 0.30737 0.28414 0.0
N612 N 0.54822 0.29748 0.45261 0.0
N613 N 0.68434 0.34452 0.33043 0.0
H614 H 0.63099 0.2824 0.12512 0.0
H615 H 0.673 0.30124 0.16059 0.0
H616 H 0.70051 0.35837 0.38799 0.0
H617 H 0.69336 0.34587 0.24765 0.0
H618 H 0.53816 0.30296 0.53233 0.0
H619 H 0.52781 0.29268 0.39394 0.0
H620 H 0.58053 0.29433 0.65086 0.0
H621 H 0.61925 0.32044 0.68059 0.0
C622 C 0.24087 0.54377 0.48911 0.0
C623 C 0.24889 0.56222 0.38716 0.0
C624 C 0.23371 0.62001 0.47026 0.0
C625 C 0.22138 0.601 0.56623 0.0
N626 N 0.22402 0.54885 0.686 0.0
N627 N 0.26443 0.61768 0.29075 0.0
C628 C 0.22945 0.56415 0.5825 0.0
C629 C 0.24939 0.60043 0.38143 0.0
N630 N 0.24214 0.50696 0.49408 0.0
N631 N 0.22751 0.65622 0.46108 0.0
H632 H 0.27574 0.6039 0.22347 0.0
H633 H 0.26828 0.64545 0.2858 0.0
H634 H 0.21738 0.67114 0.52781 0.0
H635 H 0.23137 0.67121 0.38763 0.0
H636 H 0.23328 0.49174 0.56263 0.0
H637 H 0.25064 0.49131 0.4268 0.0
H638 H 0.23088 0.52242 0.70699 0.0
H639 H 0.21521 0.56417 0.75378 0.0
C640 C 0.98682 0.81702 0.98125 0.0
C641 C 0.96494 0.83099 0.06705 0.0
C642 C 0.98563 0.89118 0.02423 0.0
C643 C 0.01719 0.87534 0.97601 0.0
N644 N 0.04215 0.82511 0.87467 0.0
N645 N 0.92409 0.87975 0.09115 0.0
C646 C 0.01569 0.83881 0.94127 0.0
C647 C 0.9568 0.86776 0.05537 0.0
N648 N 0.97869 0.78437 0.93639 0.0
N649 N 0.98449 0.92681 0.0514 0.0
H650 H 0.90476 0.86157 0.12184 0.0
H651 H 0.91562 0.90641 0.08284 0.0
H652 H 1.00592 0.94468 0.04136 0.0
H653 H 0.96244 0.9385 0.09027 0.0
H654 H 0.9557 0.7701 0.96226 0.0
H655 H 0.99243 0.77351 0.86841 0.0
H656 H 0.04417 0.79781 0.85608 0.0
H657 H 0.06236 0.84145 0.83996 0.0
C658 C 0.69715 0.93276 0.18377 0.0
C659 C 0.72395 0.95849 0.15865 0.0
C660 C 0.68018 1.00039 0.08781 0.0
C661 C 0.65288 0.98088 0.14817 0.0
N662 N 0.63334 0.92321 0.22517 0.0
N663 N 0.73906 0.99772 1.0037 0.0
C664 C 0.66035 0.94454 0.18351 0.0
C665 C 0.71425 0.98409 0.07643 0.0
N666 N 0.70778 0.89967 0.22139 0.0
N667 N 0.67604 0.03535 0.0535 0.0
H668 H 0.76506 0.98696 0.99694 0.0
H669 H 0.76506 0.98696 0.99694 0.0
H670 H 0.65434 0.0515 0.07598 0.0
H671 H 0.69653 0.0492 0.01083 0.0
H672 H 0.69005 0.87886 0.24228 0.0
H673 H 0.73531 0.89326 0.22636 0.0
H674 H 0.63742 0.89756 0.25894 0.0
H675 H 0.60639 0.9315 0.22543 0.0
C676 C 0.56087 0.73543 1.00481 0.0
C677 C 0.57455 0.71787 0.10187 0.0
C678 C 0.53949 0.66512 0.06423 0.0
C679 C 0.51729 0.68602 0.98949 0.0
N680 N 0.51355 0.73697 0.8613 0.0
N681 N 0.59978 0.66041 0.14517 0.0
C682 C 0.53037 0.71992 0.9493 0.0
C683 C 0.57252 0.68031 0.0997 0.0
N684 N 0.57869 0.76485 0.9638 0.0
N685 N 0.52781 0.63347 0.11139 0.0
H686 H 0.62335 0.67283 0.17495 0.0
H687 H 0.59902 0.6324 0.1481 0.0
H688 H 0.50181 0.62316 0.10022 0.0
H689 H 0.54271 0.61971 0.17278 0.0
H690 H 0.57216 0.77751 0.88796 0.0
H691 H 0.60198 0.77446 1.00402 0.0
H692 H 0.5202 0.76288 0.83404 0.0
H693 H 0.49269 0.72486 0.81561 0.0
C694 C 0.82281 0.43261 0.20601 0.0
C695 C 0.81691 0.46959 0.1809 0.0
C696 C 0.84015 0.46118 0.99151 0.0
C697 C 0.8526 0.4266 0.02457 0.0
N698 N 0.85722 0.37898 0.16365 0.0
N699 N 0.82139 0.52024 0.05214 0.0
C700 C 0.84377 0.41182 0.13129 0.0
C701 C 0.8253 0.48415 0.07345 0.0
N702 N 0.80841 0.4176 0.30129 0.0
N703 N 0.84318 0.47202 0.88191 0.0
H704 H 0.81082 0.53817 0.11028 0.0
H705 H 0.83106 0.53295 0.97977 0.0
H706 H 0.85404 0.45525 0.82106 0.0
H707 H 0.8319 0.49571 0.84974 0.0
H708 H 0.80912 0.39007 0.31926 0.0
H709 H 0.79271 0.4323 0.35728 0.0
H710 H 0.85548 0.36885 0.24547 0.0
H711 H 0.87208 0.36264 0.11008 0.0
C712 C 0.04668 0.2105 0.91434 0.0
C713 C 1.01462 0.2314 0.93172 0.0
C714 C 0.98016 0.17831 0.85075 0.0
C715 C 1.0125 0.15779 0.82763 0.0
N716 N 0.07709 0.16374 0.80674 0.0
N717 N 0.95163 0.23673 0.88454 0.0
C718 C 0.04584 0.17666 0.85134 0.0
C719 C 0.98185 0.21558 0.88944 0.0
N720 N 0.07835 0.22234 0.96044 0.0
N721 N 0.94706 0.16206 0.84242 0.0
H722 H 0.95184 0.26361 0.90966 0.0
H723 H 0.9278 0.22909 0.84386 0.0
H724 H 0.94315 0.13555 0.81819 0.0
H725 H 0.92333 0.17371 0.87182 0.0
H726 H 0.10184 0.20683 0.96268 0.0
H727 H 0.08023 0.24673 1.00301 0.0
H728 H 0.10165 0.17754 0.81108 0.0
H729 H 0.07744 0.1416 0.75345 0.0
C730 C 0.34715 0.03834 0.85177 0.0
C731 C 0.33946 0.05284 0.95983 0.0
C732 C 0.40596 0.06432 0.98097 0.0
C733 C 0.41403 0.04955 0.87172 0.0
N734 N 0.38717 0.03787 0.69013 0.0
N735 N 0.36141 0.08873 0.11176 0.0
C736 C 0.38304 0.04101 0.80361 0.0
C737 C 0.36887 0.06903 0.01826 0.0
N738 N 0.32007 0.02134 0.7944 0.0
N739 N 0.43327 0.07204 0.05426 0.0
H740 H 0.33519 0.09168 0.14234 0.0
H741 H 0.38027 0.10525 0.15155 0.0
H742 H 0.46029 0.06804 0.03758 0.0
H743 H 0.42903 0.0789 0.13771 0.0
H744 H 0.32463 1.00626 0.72235 0.0
H745 H 0.29338 0.02081 0.82286 0.0
H746 H 0.36539 0.0349 0.63496 0.0
H747 H 0.41153 0.04366 0.64976 0.0
C748 C 0.52181 0.38342 0.06001 0.0
C749 C 0.52165 0.34979 1.00334 0.0
C750 C 0.52067 0.38562 0.82265 0.0
C751 C 0.52602 0.41886 0.88101 0.0
N752 N 0.54097 0.44558 0.0586 0.0
N753 N 0.52332 0.31951 0.8258 0.0
C754 C 0.52901 0.41652 1.00049 0.0
C755 C 0.52135 0.35113 0.88294 0.0
N756 N 0.51491 0.38383 0.17279 0.0
N757 N 0.51537 0.38693 0.70901 0.0
H758 H 0.5236 0.2945 0.8666 0.0
H759 H 0.52642 0.31802 0.73911 0.0
H760 H 0.51637 0.41106 0.66324 0.0
H761 H 0.50785 0.36473 0.66134 0.0
H762 H 0.51277 0.40743 0.21887 0.0
H763 H 0.50771 0.36062 0.21787 0.0
H764 H 0.54937 0.44404 0.14239 0.0
H765 H 0.5457 0.47031 0.01975 0.0
C766 C 0.19087 0.49389 0.95427 0.0
C767 C 0.2061 0.5248 1.00711 0.0
C768 C 0.15129 0.55928 0.94247 0.0
C769 C 0.13509 0.52787 0.89176 0.0
N770 N 0.15136 0.47173 0.80553 0.0
N771 N 0.20637 0.58947 1.00597 0.0
C772 C 0.15838 0.49698 0.88527 0.0
C773 C 0.18787 0.55815 0.98683 0.0
N774 N 0.20697 0.4612 0.97025 0.0
N775 N 0.13223 0.59054 0.95268 0.0
H776 H 0.23321 0.58971 0.03395 0.0
H777 H 0.19687 0.61476 0.98095 0.0
H778 H 0.10699 0.59544 0.91791 0.0
H779 H 0.14085 0.61165 1.00349 0.0
H780 H 0.19622 0.43729 0.9392 0.0
H781 H 0.23002 0.45776 0.0201 0.0
H782 H 0.16906 0.45072 0.788 0.0
H783 H 0.13063 0.47485 0.74634 0.0
C784 C 0.98655 0.87368 0.56192 0.0
C785 C 1.00368 0.86702 0.45608 0.0
C786 C 0.02179 0.93291 0.45747 0.0
C787 C 1.00748 0.9395 0.56827 0.0
N788 N 0.97805 0.91154 0.72766 0.0
N789 N 0.04647 0.89038 0.32276 0.0
C790 C 0.99087 0.90825 0.62099 0.0
C791 C 0.0239 0.89677 0.41099 0.0
N792 N 0.96447 0.8474 0.60446 0.0
N793 N 0.03266 0.96122 0.39174 0.0
H794 H 0.04961 0.86477 0.28863 0.0
H795 H 0.06503 0.9093 0.29252 0.0
H796 H 0.03385 0.98764 0.41888 0.0
H797 H 0.03801 0.95879 0.30614 0.0
H798 H 0.94739 0.851 0.67274 0.0
H799 H 0.96164 0.82236 0.56623 0.0
H800 H 0.96928 0.88984 0.77651 0.0
H801 H 0.97802 0.9359 0.77003 0.0
C802 C 0.66495 0.04967 0.46589 0.0
C803 C 0.69316 0.0253 0.49874 0.0
C804 C 0.65062 1.00081 0.64444 0.0
C805 C 0.62197 0.02465 0.6095 0.0
N806 N 0.6068 0.07762 0.49987 0.0
N807 N 0.71474 0.98407 0.63977 0.0
C808 C 0.63096 0.05096 0.52534 0.0
C809 C 0.68642 1.00309 0.59496 0.0
N810 N 0.66931 0.07202 0.37556 0.0
N811 N 0.64315 0.97424 0.72091 0.0
H812 H 0.7407 0.98533 0.60551 0.0
H813 H 0.71365 0.97017 0.71617 0.0
H814 H 0.61734 0.97033 0.75273 0.0
H815 H 0.66103 0.95374 0.74338 0.0
H816 H 0.69281 0.07301 0.32723 0.0
H817 H 0.69281 0.07301 0.32723 0.0
H818 H 0.61196 0.09743 0.43897 0.0
H819 H 0.58226 0.08035 0.54189 0.0
C820 C 0.57363 0.68338 0.57545 0.0
C821 C 0.5445 0.69654 0.50692 0.0
C822 C 0.50951 0.64142 0.56462 0.0
C823 C 0.53981 0.62641 0.62432 0.0
N824 N 0.59725 0.63914 0.71032 0.0
N825 N 0.48507 0.6858 0.43166 0.0
C826 C 0.57077 0.64937 0.6366 0.0
C827 C 0.51239 0.67508 0.50232 0.0
N828 N 0.6052 0.70263 0.57681 0.0
N829 N 0.47698 0.62425 0.57146 0.0
H830 H 0.48518 0.71072 0.39012 0.0
H831 H 0.46336 0.66937 0.40925 0.0
H832 H 0.47417 0.59945 0.61119 0.0
H833 H 0.45257 0.63548 0.54462 0.0
H834 H 0.62939 0.69308 0.61093 0.0
H835 H 0.6075 0.728 0.53866 0.0
H836 H 0.61848 0.65568 0.73582 0.0
H837 H 0.59652 0.61435 0.7516 0.0
C838 C 0.86874 0.55787 0.56842 0.0
C839 C 0.8498 0.52521 0.54531 0.0
C840 C 0.89917 0.49222 0.64927 0.0
C841 C 0.91831 0.525 0.67177 0.0
N842 N 0.91267 0.58926 0.68549 0.0
N843 N 0.84314 0.46229 0.5906 0.0
C844 C 0.9004 0.55783 0.64083 0.0
C845 C 0.86388 0.49283 0.59526 0.0
N846 N 0.85771 0.58903 0.51696 0.0
N847 N 0.91542 0.4601 0.67408 0.0
H848 H 0.81709 0.46227 0.5561 0.0
H849 H 0.84996 0.43796 0.62944 0.0
H850 H 0.94083 0.45848 0.71156 0.0
H851 H 0.90539 0.43519 0.64903 0.0
H852 H 0.87254 0.61291 0.51989 0.0
H853 H 0.83488 0.59036 0.46517 0.0
H854 H 0.89892 0.61365 0.67729 0.0
H855 H 0.93475 0.58996 0.74026 0.0
loop_
_geom_bond_atom_site_label_1
_geom_bond_atom_site_label_2
_geom_bond_distance
_geom_bond_site_symmetry_2
_ccdc_geom_bond_type
H0 C3 0.929 . S
H1 C6 0.929 . S
H2 C8 0.930 . S
C3 H0 0.929 . S
C3 C4 1.398 . S
C3 C5 1.396 . S
C4 C3 1.398 . S
C4 C8 1.407 . S
C5 C3 1.396 . S
C5 C6 1.394 . S
C6 H1 0.929 . S
C6 C5 1.394 . S
C6 C7 1.382 . S
C7 C6 1.382 . S
C7 C8 1.392 . S
C7 N9 1.420 . S
C8 H2 0.930 . S
C8 C4 1.407 . S
C8 C7 1.392 . S
N9 C7 1.420 . S
N9 C10 1.244 . S
C10 N9 1.244 . S
H11 C14 0.929 . S
H12 C17 0.929 . S
H13 C19 0.930 . S
C14 H11 0.929 . S
C14 C15 1.398 . S
C14 C16 1.396 . S
C15 C14 1.398 . S
C15 C19 1.407 . S
C16 C14 1.396 . S
C16 C17 1.394 . S
C17 H12 0.929 . S
C17 C16 1.394 . S
C17 C18 1.382 . S
C18 C17 1.382 . S
C18 C19 1.392 . S
C18 N20 1.418 1_655 S
C19 H13 0.930 . S
C19 C15 1.407 . S
C19 C18 1.392 . S
N20 C18 1.418 1_455 S
N20 C21 1.237 1_455 S
C21 N20 1.237 1_655 S
H22 C25 0.929 . S
H23 C28 0.929 . S
H24 C30 0.932 . S
C25 H22 0.929 . S
C25 C26 1.398 . S
C25 C27 1.396 . S
C26 C25 1.398 . S
C26 C30 1.407 . S
C27 C25 1.396 . S
C27 C28 1.394 . S
C28 H23 0.929 . S
C28 C27 1.394 . S
C28 C29 1.382 . S
C29 C28 1.382 . S
C29 C30 1.392 . S
C29 N31 1.420 1_565 S
C30 H24 0.932 . S
C30 C26 1.407 . S
C30 C29 1.392 . S
N31 C29 1.420 1_545 S
N31 C32 1.244 1_545 S
C32 N31 1.244 1_565 S
H33 C36 0.929 . S
H34 C39 0.929 . S
H35 C41 0.930 . S
C36 H33 0.929 . S
C36 C37 1.398 . S
C36 C38 1.396 . S
C37 C36 1.398 . S
C37 C41 1.407 . S
C38 C36 1.396 . S
C38 C39 1.394 . S
C39 H34 0.929 . S
C39 C38 1.394 . S
C39 C40 1.382 . S
C40 C39 1.382 . S
C40 C41 1.392 . S
C40 N42 1.420 . S
C41 H35 0.930 . S
C41 C37 1.407 . S
C41 C40 1.392 . S
N42 C40 1.420 . S
N42 C43 1.244 . S
C43 N42 1.244 . S
H44 C47 0.929 . S
H45 C50 0.929 . S
H46 C52 0.930 . S
C47 H44 0.929 . S
C47 C48 1.398 1_554 S
C47 C49 1.396 . S
C48 C47 1.398 1_556 S
C48 C52 1.407 . S
C49 C47 1.396 . S
C49 C50 1.394 . S
C50 H45 0.929 . S
C50 C49 1.394 . S
C50 C51 1.382 . S
C51 C50 1.382 . S
C51 C52 1.392 1_554 S
C51 N53 1.420 . S
C52 H46 0.930 . S
C52 C48 1.407 . S
C52 C51 1.392 1_556 S
N53 C51 1.420 . S
N53 C54 1.244 . S
C54 N53 1.244 . S
H55 C58 0.929 . S
H56 C61 0.929 . S
H57 C63 0.930 . S
C58 H55 0.929 . S
C58 C59 1.398 1_554 S
C58 C60 1.396 . S
C59 C58 1.398 1_556 S
C59 C63 1.407 . S
C60 C58 1.396 . S
C60 C61 1.394 . S
C61 H56 0.929 . S
C61 C60 1.394 . S
C61 C62 1.382 . S
C62 C61 1.382 . S
C62 C63 1.392 1_554 S
C62 N64 1.420 . S
C63 H57 0.930 . S
C63 C59 1.407 . S
C63 C62 1.392 1_556 S
N64 C62 1.420 . S
N64 C65 1.244 . S
C65 N64 1.244 . S
H66 C69 0.929 . S
H67 C72 0.929 . S
H68 C74 0.930 . S
C69 H66 0.929 . S
C69 C70 1.398 1_554 S
C69 C71 1.396 . S
C70 C69 1.398 1_556 S
C70 C74 1.407 . S
C71 C69 1.396 . S
C71 C72 1.394 . S
C72 H67 0.929 . S
C72 C71 1.394 . S
C72 C73 1.382 . S
C73 C72 1.382 . S
C73 C74 1.392 1_554 S
C73 N75 1.420 . S
C74 H68 0.930 . S
C74 C70 1.407 . S
C74 C73 1.392 1_556 S
N75 C73 1.420 . S
N75 C76 1.244 . S
C76 N75 1.244 . S
H77 C80 0.929 . S
H78 C83 0.929 . S
H79 C85 0.930 . S
C80 H77 0.929 . S
C80 C81 1.398 1_554 S
C80 C82 1.396 . S
C81 C80 1.398 1_556 S
C81 C85 1.407 . S
C82 C80 1.396 . S
C82 C83 1.394 . S
C83 H78 0.929 . S
C83 C82 1.394 . S
C83 C84 1.382 . S
C84 C83 1.382 . S
C84 C85 1.392 1_554 S
C84 N86 1.420 . S
C85 H79 0.930 . S
C85 C81 1.407 . S
C85 C84 1.392 1_556 S
N86 C84 1.420 . S
N86 C87 1.244 . S
C87 N86 1.244 . S
Tb88 N117 2.617 . S
Tb88 N123 2.572 . S
Tb88 O132 2.465 . S
Tb88 O133 2.387 1_545 S
Tb88 O135 2.428 . S
Tb88 O136 2.308 1_655 S
Tb88 O140 2.349 1_655 S
Tb88 O143 2.393 . S
Tb88 C152 2.802 . S
C89 N90 1.379 1_554 S
C89 C92 1.416 . S
C89 C96 1.424 . S
N90 C89 1.379 1_556 S
N90 C93 1.334 . S
N90 Tb99 2.617 1_545 S
C91 C93 1.390 . S
C91 C94 1.339 . S
C91 H111 0.930 . S
C92 C89 1.416 . S
C92 C94 1.416 1_554 S
C92 C98 1.448 . S
C93 N90 1.334 . S
C93 C91 1.390 . S
C93 H104 0.930 1_545 S
C94 C91 1.339 . S
C94 C92 1.416 1_556 S
C94 H115 0.930 . S
C95 C96 1.413 . S
C95 C97 1.427 . S
C95 C101 1.416 . S
C96 C89 1.424 . S
C96 C95 1.413 . S
C96 N100 1.361 . S
C97 C95 1.427 . S
C97 C98 1.328 . S
C97 H112 0.929 . S
C98 C92 1.448 . S
C98 C97 1.328 . S
C98 H113 0.930 . S
Tb99 N90 2.617 1_565 S
Tb99 N100 2.572 1_566 S
Tb99 O134 2.349 . S
Tb99 O137 2.393 . S
Tb99 O138 2.465 . S
Tb99 O139 2.387 1_565 S
Tb99 O141 2.428 . S
Tb99 O142 2.308 1_465 S
Tb99 C163 2.802 . S
N100 C96 1.361 . S
N100 Tb99 2.572 1_544 S
N100 C102 1.340 . S
C101 C95 1.416 . S
C101 C103 1.332 . S
C101 H109 0.931 . S
C102 N100 1.340 . S
C102 C103 1.407 . S
C102 H108 0.930 . S
C103 C101 1.332 . S
C103 C102 1.407 . S
C103 H105 0.929 . S
H104 C93 0.930 1_565 S
H105 C103 0.929 . S
H106 C121 0.930 . S
H107 C128 0.929 1_455 S
H108 C102 0.930 . S
H109 C101 0.931 . S
H110 C124 0.930 1_455 S
H111 C91 0.930 . S
H112 C97 0.929 . S
H113 C98 0.930 . S
H114 C119 0.930 . S
H115 C94 0.930 . S
H116 C127 0.931 . S
N117 Tb88 2.617 . S
N117 C118 1.379 1_545 S
N117 C121 1.334 . S
C118 N117 1.379 1_565 S
C118 C120 1.416 . S
C118 C126 1.424 . S
C119 H114 0.930 . S
C119 C121 1.390 . S
C119 C122 1.339 1_545 S
C120 C118 1.416 . S
C120 C122 1.416 . S
C120 C153 1.448 . S
C121 H106 0.930 . S
C121 N117 1.334 . S
C121 C119 1.390 . S
C122 C119 1.339 1_565 S
C122 C120 1.416 . S
C122 H129 0.930 . S
N123 Tb88 2.572 . S
N123 C124 1.340 . S
N123 C126 1.361 1_545 S
C124 H110 0.930 1_655 S
C124 N123 1.340 . S
C124 C128 1.407 1_545 S
C125 C126 1.413 . S
C125 C127 1.416 . S
C125 C154 1.427 . S
C126 C118 1.424 . S
C126 N123 1.361 1_565 S
C126 C125 1.413 . S
C127 H116 0.931 . S
C127 C125 1.416 . S
C127 C128 1.332 . S
C128 H107 0.929 1_655 S
C128 C124 1.407 1_565 S
C128 C127 1.332 . S
H129 C122 0.930 . S
H130 C153 0.930 . S
H131 C154 0.929 . S
O132 Tb88 2.465 . S
O132 C152 1.264 . S
O133 Tb88 2.387 1_565 S
O133 C144 1.264 . S
O134 Tb99 2.349 . S
O134 C144 1.243 1_455 S
O135 Tb88 2.428 . S
O135 C152 1.256 . S
O136 Tb88 2.308 1_455 S
O136 C151 1.266 . S
O137 Tb99 2.393 . S
O137 C151 1.248 1_565 S
O138 Tb99 2.465 . S
O138 C163 1.264 . S
O139 Tb99 2.387 1_545 S
O139 C155 1.264 . S
O140 Tb88 2.349 1_455 S
O140 C155 1.243 . S
O141 Tb99 2.428 . S
O141 C163 1.256 . S
O142 Tb99 2.308 1_645 S
O142 C162 1.266 . S
O143 Tb88 2.393 . S
O143 C162 1.248 . S
C144 O133 1.264 . S
C144 O134 1.243 1_655 S
C145 C148 1.399 . S
C145 C150 1.383 . S
C145 C152 1.496 . S
C146 C147 1.399 . S
C146 C150 1.389 . S
C147 C146 1.399 . S
C147 C149 1.380 . S
C147 H164 0.929 . S
C148 C145 1.399 . S
C148 C149 1.392 . S
C148 H165 0.929 . S
C149 C147 1.380 . S
C149 C148 1.392 . S
C149 H166 0.929 . S
C150 C145 1.383 . S
C150 C146 1.389 . S
C150 H167 0.931 1_655 S
C151 O136 1.266 . S
C151 O137 1.248 1_545 S
C152 Tb88 2.802 . S
C152 O132 1.264 . S
C152 O135 1.256 . S
C152 C145 1.496 . S
C153 C120 1.448 . S
C153 H130 0.930 . S
C153 C154 1.328 . S
C154 C125 1.427 . S
C154 H131 0.929 . S
C154 C153 1.328 . S
C155 O139 1.264 . S
C155 O140 1.243 . S
C156 C159 1.399 . S
C156 C160 1.383 . S
C156 C163 1.496 1_554 S
C157 C158 1.399 . S
C157 C160 1.389 . S
C158 C157 1.399 . S
C158 C161 1.380 . S
C158 H168 0.929 . S
C159 C156 1.399 . S
C159 C161 1.392 . S
C159 H169 0.929 1_554 S
C160 C156 1.383 . S
C160 C157 1.389 . S
C160 H170 0.931 . S
C161 C158 1.380 . S
C161 C159 1.392 . S
C161 H171 0.929 . S
C162 O142 1.266 . S
C162 O143 1.248 . S
C163 Tb99 2.802 . S
C163 O138 1.264 . S
C163 O141 1.256 . S
C163 C156 1.496 1_556 S
H164 C147 0.929 . S
H165 C148 0.929 . S
H166 C149 0.929 . S
H167 C150 0.931 1_455 S
H168 C158 0.929 . S
H169 C159 0.929 1_556 S
H170 C160 0.931 . S
H171 C161 0.929 . S
Tb172 N201 2.617 . S
Tb172 N207 2.572 . S
Tb172 O216 2.465 . S
Tb172 O217 2.387 . S
Tb172 O219 2.428 1_556 S
Tb172 O220 2.308 . S
Tb172 O224 2.349 1_545 S
Tb172 O227 2.393 . S
Tb172 C236 2.802 1_556 S
C173 N174 1.379 . S
C173 C176 1.416 . S
C173 C180 1.424 . S
N174 C173 1.379 . S
N174 C177 1.334 . S
N174 Tb183 2.617 . S
C175 C177 1.390 . S
C175 C178 1.339 . S
C175 H195 0.930 . S
C176 C173 1.416 . S
C176 C178 1.416 . S
C176 C182 1.448 . S
C177 N174 1.334 . S
C177 C175 1.390 . S
C177 H188 0.930 . S
C178 C175 1.339 . S
C178 C176 1.416 . S
C178 H199 0.930 . S
C179 C180 1.413 . S
C179 C181 1.427 . S
C179 C185 1.416 . S
C180 C173 1.424 . S
C180 C179 1.413 . S
C180 N184 1.361 . S
C181 C179 1.427 . S
C181 C182 1.328 . S
C181 H196 0.929 . S
C182 C176 1.448 . S
C182 C181 1.328 . S
C182 H197 0.930 . S
Tb183 N174 2.617 . S
Tb183 N184 2.572 . S
Tb183 O218 2.349 1_565 S
Tb183 O221 2.393 . S
Tb183 O222 2.465 . S
Tb183 O223 2.387 . S
Tb183 O225 2.428 . S
Tb183 O226 2.308 1_565 S
Tb183 C247 2.802 . S
N184 C180 1.361 . S
N184 Tb183 2.572 . S
N184 C186 1.340 . S
C185 C179 1.416 . S
C185 C187 1.332 . S
C185 H193 0.931 . S
C186 N184 1.340 . S
C186 C187 1.407 . S
C186 H192 0.930 . S
C187 C185 1.332 . S
C187 C186 1.407 . S
C187 H189 0.929 . S
H188 C177 0.930 . S
H189 C187 0.929 . S
H190 C205 0.931 . S
H191 C212 0.929 . S
H192 C186 0.930 . S
H193 C185 0.931 . S
H194 C208 0.930 . S
H195 C175 0.930 . S
H196 C181 0.929 . S
H197 C182 0.930 . S
H198 C203 0.930 . S
H199 C178 0.930 . S
H200 C211 0.931 . S
N201 Tb172 2.617 . S
N201 C202 1.379 . S
N201 C205 1.333 1_556 S
C202 N201 1.379 . S
C202 C204 1.416 . S
C202 C210 1.424 . S
C203 H198 0.930 . S
C203 C205 1.390 . S
C203 C206 1.339 1_554 S
C204 C202 1.416 . S
C204 C206 1.416 . S
C204 C237 1.448 . S
C205 H190 0.931 . S
C205 N201 1.333 1_554 S
C205 C203 1.390 . S
C206 C203 1.339 1_556 S
C206 C204 1.416 . S
C206 H213 0.930 1_556 S
N207 Tb172 2.572 . S
N207 C208 1.340 . S
N207 C210 1.361 . S
C208 H194 0.930 . S
C208 N207 1.340 . S
C208 C212 1.407 . S
C209 C210 1.413 . S
C209 C211 1.416 . S
C209 C238 1.427 . S
C210 C202 1.424 . S
C210 N207 1.361 . S
C210 C209 1.413 . S
C211 H200 0.931 . S
C211 C209 1.416 . S
C211 C212 1.332 . S
C212 H191 0.929 . S
C212 C208 1.407 . S
C212 C211 1.332 . S
H213 C206 0.930 1_554 S
H214 C237 0.930 . S
H215 C238 0.929 . S
O216 Tb172 2.465 . S
O216 C236 1.264 1_556 S
O217 Tb172 2.387 . S
O217 C228 1.264 . S
O218 Tb183 2.349 1_545 S
O218 C228 1.243 . S
O219 Tb172 2.428 1_554 S
O219 C236 1.256 . S
O220 Tb172 2.308 . S
O220 C235 1.265 . S
O221 Tb183 2.393 . S
O221 C235 1.249 1_565 S
O222 Tb183 2.465 . S
O222 C247 1.264 . S
O223 Tb183 2.387 . S
O223 C239 1.264 . S
O224 Tb172 2.349 1_565 S
O224 C239 1.243 . S
O225 Tb183 2.428 . S
O225 C247 1.256 . S
O226 Tb183 2.308 1_545 S
O226 C246 1.266 . S
O227 Tb172 2.393 . S
O227 C246 1.248 . S
C228 O217 1.264 . S
C228 O218 1.243 . S
C229 C232 1.399 . S
C229 C234 1.383 . S
C229 C236 1.496 . S
C230 C231 1.399 . S
C230 C234 1.389 . S
C231 C230 1.399 . S
C231 C233 1.380 . S
C231 H248 0.929 . S
C232 C229 1.399 . S
C232 C233 1.392 . S
C232 H249 0.929 . S
C233 C231 1.380 . S
C233 C232 1.392 . S
C233 H250 0.929 . S
C234 C229 1.383 . S
C234 C230 1.389 . S
C234 H251 0.931 . S
C235 O220 1.265 . S
C235 O221 1.249 1_545 S
C236 Tb172 2.802 1_554 S
C236 O216 1.264 1_554 S
C236 O219 1.256 . S
C236 C229 1.496 . S
C237 C204 1.448 . S
C237 H214 0.930 . S
C237 C238 1.328 . S
C238 C209 1.427 . S
C238 H215 0.929 . S
C238 C237 1.328 . S
C239 O223 1.264 . S
C239 O224 1.243 . S
C240 C243 1.399 . S
C240 C244 1.383 . S
C240 C247 1.496 . S
C241 C242 1.399 . S
C241 C244 1.389 . S
C242 C241 1.399 . S
C242 C245 1.380 . S
C242 H252 0.929 . S
C243 C240 1.399 . S
C243 C245 1.392 . S
C243 H253 0.929 . S
C244 C240 1.383 . S
C244 C241 1.389 . S
C244 H254 0.931 1_565 S
C245 C242 1.380 . S
C245 C243 1.392 . S
C245 H255 0.929 . S
C246 O226 1.266 . S
C246 O227 1.248 . S
C247 Tb183 2.802 . S
C247 O222 1.264 . S
C247 O225 1.256 . S
C247 C240 1.496 . S
H248 C231 0.929 . S
H249 C232 0.929 . S
H250 C233 0.929 . S
H251 C234 0.931 . S
H252 C242 0.929 . S
H253 C243 0.929 . S
H254 C244 0.931 1_545 S
H255 C245 0.929 . S
Tb256 N285 2.617 . S
Tb256 N291 2.572 . S
Tb256 O300 2.465 . S
Tb256 O301 2.387 . S
Tb256 O303 2.428 . S
Tb256 O304 2.308 . S
Tb256 O308 2.349 . S
Tb256 O311 2.393 . S
Tb256 C320 2.802 . S
C257 N258 1.379 1_554 S
C257 C260 1.416 . S
C257 C264 1.424 . S
N258 C257 1.379 1_556 S
N258 C261 1.334 . S
N258 Tb267 2.617 . S
C259 C261 1.390 . S
C259 C262 1.339 . S
C259 H279 0.930 . S
C260 C257 1.416 . S
C260 C262 1.416 1_554 S
C260 C266 1.448 . S
C261 N258 1.334 . S
C261 C259 1.390 . S
C261 H272 0.930 . S
C262 C259 1.339 . S
C262 C260 1.416 1_556 S
C262 H283 0.930 . S
C263 C264 1.413 . S
C263 C265 1.427 . S
C263 C269 1.416 . S
C264 C257 1.424 . S
C264 C263 1.413 . S
C264 N268 1.361 . S
C265 C263 1.427 . S
C265 C266 1.328 . S
C265 H280 0.929 . S
C266 C260 1.448 . S
C266 C265 1.328 . S
C266 H281 0.930 . S
Tb267 N258 2.617 . S
Tb267 N268 2.572 1_556 S
Tb267 O302 2.349 . S
Tb267 O305 2.393 . S
Tb267 O306 2.465 . S
Tb267 O307 2.387 . S
Tb267 O309 2.428 . S
Tb267 O310 2.308 . S
Tb267 C331 2.802 . S
N268 C264 1.361 . S
N268 Tb267 2.572 1_554 S
N268 C270 1.340 . S
C269 C263 1.416 . S
C269 C271 1.332 . S
C269 H277 0.931 . S
C270 N268 1.340 . S
C270 C271 1.407 . S
C270 H276 0.930 . S
C271 C269 1.332 . S
C271 C270 1.407 . S
C271 H273 0.929 . S
H272 C261 0.930 . S
H273 C271 0.929 . S
H274 C289 0.930 . S
H275 C296 0.929 . S
H276 C270 0.930 . S
H277 C269 0.931 . S
H278 C292 0.930 . S
H279 C259 0.930 . S
H280 C265 0.929 . S
H281 C266 0.930 . S
H282 C287 0.930 . S
H283 C262 0.930 . S
H284 C295 0.931 . S
N285 Tb256 2.617 . S
N285 C286 1.379 . S
N285 C289 1.334 . S
C286 N285 1.379 . S
C286 C288 1.416 . S
C286 C294 1.424 . S
C287 H282 0.930 . S
C287 C289 1.390 . S
C287 C290 1.339 . S
C288 C286 1.416 . S
C288 C290 1.416 . S
C288 C321 1.448 . S
C289 H274 0.930 . S
C289 N285 1.334 . S
C289 C287 1.390 . S
C290 C287 1.339 . S
C290 C288 1.416 . S
C290 H297 0.930 . S
N291 Tb256 2.572 . S
N291 C292 1.340 . S
N291 C294 1.361 . S
C292 H278 0.930 . S
C292 N291 1.340 . S
C292 C296 1.407 . S
C293 C294 1.413 . S
C293 C295 1.416 . S
C293 C322 1.427 . S
C294 C286 1.424 . S
C294 N291 1.361 . S
C294 C293 1.413 . S
C295 H284 0.931 . S
C295 C293 1.416 . S
C295 C296 1.332 . S
C296 H275 0.929 . S
C296 C292 1.407 . S
C296 C295 1.332 . S
H297 C290 0.930 . S
H298 C321 0.930 . S
H299 C322 0.929 . S
O300 Tb256 2.465 . S
O300 C320 1.264 . S
O301 Tb256 2.387 . S
O301 C312 1.264 . S
O302 Tb267 2.349 . S
O302 C312 1.243 . S
O303 Tb256 2.428 . S
O303 C320 1.256 . S
O304 Tb256 2.308 . S
O304 C319 1.266 . S
O305 Tb267 2.393 . S
O305 C319 1.248 . S
O306 Tb267 2.465 . S
O306 C331 1.264 . S
O307 Tb267 2.387 . S
O307 C323 1.264 . S
O308 Tb256 2.349 . S
O308 C323 1.243 . S
O309 Tb267 2.428 . S
O309 C331 1.256 . S
O310 Tb267 2.308 . S
O310 C330 1.266 . S
O311 Tb256 2.393 . S
O311 C330 1.248 . S
C312 O301 1.264 . S
C312 O302 1.243 . S
C313 C316 1.399 . S
C313 C318 1.383 . S
C313 C320 1.496 . S
C314 C315 1.399 . S
C314 C318 1.389 . S
C315 C314 1.399 . S
C315 C317 1.380 . S
C315 H332 0.929 . S
C316 C313 1.399 . S
C316 C317 1.392 . S
C316 H333 0.929 . S
C317 C315 1.380 . S
C317 C316 1.392 . S
C317 H334 0.929 . S
C318 C313 1.383 . S
C318 C314 1.389 . S
C318 H335 0.931 . S
C319 O304 1.266 . S
C319 O305 1.248 . S
C320 Tb256 2.802 . S
C320 O300 1.264 . S
C320 O303 1.256 . S
C320 C313 1.496 . S
C321 C288 1.448 . S
C321 H298 0.930 . S
C321 C322 1.328 . S
C322 C293 1.427 . S
C322 H299 0.929 . S
C322 C321 1.328 . S
C323 O307 1.264 . S
C323 O308 1.243 . S
C324 C327 1.399 . S
C324 C328 1.383 . S
C324 C331 1.496 1_554 S
C325 C326 1.399 . S
C325 C328 1.389 . S
C326 C325 1.399 . S
C326 C329 1.380 . S
C326 H336 0.929 . S
C327 C324 1.399 . S
C327 C329 1.392 . S
C327 H337 0.929 1_554 S
C328 C324 1.383 . S
C328 C325 1.389 . S
C328 H338 0.931 . S
C329 C326 1.380 . S
C329 C327 1.392 . S
C329 H339 0.929 . S
C330 O310 1.266 . S
C330 O311 1.248 . S
C331 Tb267 2.802 . S
C331 O306 1.264 . S
C331 O309 1.256 . S
C331 C324 1.496 1_556 S
H332 C315 0.929 . S
H333 C316 0.929 . S
H334 C317 0.929 . S
H335 C318 0.931 . S
H336 C326 0.929 . S
H337 C327 0.929 1_556 S
H338 C328 0.931 . S
H339 C329 0.929 . S
Tb340 N369 2.617 . S
Tb340 N375 2.572 . S
Tb340 O384 2.465 . S
Tb340 O385 2.387 1_455 S
Tb340 O387 2.428 . S
Tb340 O388 2.308 . S
Tb340 O392 2.349 . S
Tb340 O395 2.393 . S
Tb340 C404 2.802 . S
C341 N342 1.379 1_554 S
C341 C344 1.416 . S
C341 C348 1.424 . S
N342 C341 1.379 1_556 S
N342 C345 1.336 . S
N342 Tb351 2.617 1_455 S
C343 C345 1.394 . S
C343 C346 1.339 . S
C343 H363 0.930 . S
C344 C341 1.416 . S
C344 C346 1.416 1_554 S
C344 C350 1.448 . S
C345 N342 1.336 . S
C345 C343 1.394 . S
C345 H356 0.924 1_455 S
C346 C343 1.339 . S
C346 C344 1.416 1_556 S
C346 H367 0.930 . S
C347 C348 1.413 . S
C347 C349 1.427 . S
C347 C353 1.416 . S
C348 C341 1.424 . S
C348 C347 1.413 . S
C348 N352 1.361 . S
C349 C347 1.427 . S
C349 C350 1.328 . S
C349 H364 0.929 . S
C350 C344 1.448 . S
C350 C349 1.328 . S
C350 H365 0.930 . S
Tb351 N342 2.617 1_655 S
Tb351 N352 2.572 1_656 S
Tb351 O386 2.349 . S
Tb351 O389 2.393 . S
Tb351 O390 2.465 . S
Tb351 O391 2.387 1_655 S
Tb351 O393 2.428 . S
Tb351 O394 2.308 1_655 S
Tb351 C415 2.802 . S
N352 C348 1.361 . S
N352 Tb351 2.572 1_454 S
N352 C354 1.340 . S
C353 C347 1.416 . S
C353 C355 1.332 . S
C353 H361 0.931 . S
C354 N352 1.340 . S
C354 C355 1.407 . S
C354 H360 0.930 . S
C355 C353 1.332 . S
C355 C354 1.407 . S
C355 H357 0.929 . S
H356 C345 0.924 1_655 S
H357 C355 0.929 . S
H358 C373 0.930 . S
H359 C380 0.929 . S
H360 C354 0.930 . S
H361 C353 0.931 . S
H362 C376 0.930 . S
H363 C343 0.930 . S
H364 C349 0.929 . S
H365 C350 0.930 . S
H366 C371 0.930 . S
H367 C346 0.930 . S
H368 C379 0.931 . S
N369 Tb340 2.617 . S
N369 C370 1.379 1_455 S
N369 C373 1.334 . S
C370 N369 1.379 1_655 S
C370 C372 1.416 . S
C370 C378 1.424 . S
C371 H366 0.930 . S
C371 C373 1.390 . S
C371 C374 1.339 1_455 S
C372 C370 1.416 . S
C372 C374 1.416 . S
C372 C405 1.448 . S
C373 H358 0.930 . S
C373 N369 1.334 . S
C373 C371 1.390 . S
C374 C371 1.339 1_655 S
C374 C372 1.416 . S
C374 H381 0.930 . S
N375 Tb340 2.572 . S
N375 C376 1.340 . S
N375 C378 1.361 1_455 S
C376 H362 0.930 . S
C376 N375 1.340 . S
C376 C380 1.407 1_455 S
C377 C378 1.413 . S
C377 C379 1.416 . S
C377 C406 1.427 . S
C378 C370 1.424 . S
C378 N375 1.361 1_655 S
C378 C377 1.413 . S
C379 H368 0.931 . S
C379 C377 1.416 . S
C379 C380 1.332 . S
C380 H359 0.929 . S
C380 C376 1.407 1_655 S
C380 C379 1.332 . S
H381 C374 0.930 . S
H382 C405 0.930 . S
H383 C406 0.929 . S
O384 Tb340 2.465 . S
O384 C404 1.264 . S
O385 Tb340 2.387 1_655 S
O385 C396 1.264 . S
O386 Tb351 2.349 . S
O386 C396 1.243 . S
O387 Tb340 2.428 . S
O387 C404 1.256 . S
O388 Tb340 2.308 . S
O388 C403 1.266 . S
O389 Tb351 2.393 . S
O389 C403 1.248 1_655 S
O390 Tb351 2.465 . S
O390 C415 1.264 . S
O391 Tb351 2.387 1_455 S
O391 C407 1.264 . S
O392 Tb340 2.349 . S
O392 C407 1.243 . S
O393 Tb351 2.428 . S
O393 C415 1.256 . S
O394 Tb351 2.308 1_455 S
O394 C414 1.266 . S
O395 Tb340 2.393 . S
O395 C414 1.248 . S
C396 O385 1.264 . S
C396 O386 1.243 . S
C397 C400 1.399 . S
C397 C402 1.383 . S
C397 C404 1.496 . S
C398 C399 1.399 . S
C398 C402 1.389 . S
C399 C398 1.399 . S
C399 C401 1.380 . S
C399 H416 0.929 . S
C400 C397 1.399 . S
C400 C401 1.392 . S
C400 H417 0.929 . S
C401 C399 1.380 . S
C401 C400 1.392 . S
C401 H418 0.929 . S
C402 C397 1.383 . S
C402 C398 1.389 . S
C402 H419 0.931 . S
C403 O388 1.266 . S
C403 O389 1.248 1_455 S
C404 Tb340 2.802 . S
C404 O384 1.264 . S
C404 O387 1.256 . S
C404 C397 1.496 . S
C405 C372 1.448 . S
C405 H382 0.930 . S
C405 C406 1.328 . S
C406 C377 1.427 . S
C406 H383 0.929 . S
C406 C405 1.328 . S
C407 O391 1.264 . S
C407 O392 1.243 . S
C408 C411 1.399 . S
C408 C412 1.383 . S
C408 C415 1.496 1_554 S
C409 C410 1.399 . S
C409 C412 1.389 . S
C410 C409 1.399 . S
C410 C413 1.380 . S
C410 H420 0.929 . S
C411 C408 1.399 . S
C411 C413 1.392 . S
C411 H421 0.929 1_554 S
C412 C408 1.383 . S
C412 C409 1.389 . S
C412 H422 0.931 . S
C413 C410 1.380 . S
C413 C411 1.392 . S
C413 H423 0.929 . S
C414 O394 1.266 . S
C414 O395 1.248 . S
C415 Tb351 2.802 . S
C415 O390 1.264 . S
C415 O393 1.256 . S
C415 C408 1.496 1_556 S
H416 C399 0.929 . S
H417 C400 0.929 . S
H418 C401 0.929 . S
H419 C402 0.931 . S
H420 C410 0.929 . S
H421 C411 0.929 1_556 S
H422 C412 0.931 . S
H423 C413 0.929 . S
C424 C425 1.363 . S
C424 C430 1.379 . S
C424 N432 1.356 . S
C425 C424 1.363 . S
C425 C431 1.363 . S
C426 C427 1.363 . S
C426 C431 1.379 . S
C426 N433 1.356 1_545 S
C427 C426 1.363 . S
C427 C430 1.363 . S
N428 C430 1.356 . S
N428 H440 0.984 . S
N428 H441 0.985 . S
N429 C431 1.356 1_565 S
N429 H434 0.984 . S
N429 H435 0.985 . S
C430 C424 1.379 . S
C430 C427 1.363 . S
C430 N428 1.356 . S
C431 C425 1.363 . S
C431 C426 1.379 . S
C431 N429 1.356 1_545 S
N432 C424 1.356 . S
N432 H438 0.984 . S
N432 H439 0.984 . S
N433 C426 1.356 1_565 S
N433 H436 0.984 . S
N433 H437 0.985 . S
H434 N429 0.984 . S
H435 N429 0.985 . S
H436 N433 0.984 . S
H437 N433 0.985 . S
H438 N432 0.984 . S
H439 N432 0.984 . S
H440 N428 0.984 . S
H441 N428 0.985 . S
C442 C443 1.363 . S
C442 C448 1.379 . S
C442 N450 1.356 . S
C443 C442 1.363 . S
C443 C449 1.363 . S
C444 C445 1.363 . S
C444 C449 1.379 . S
C444 N451 1.356 . S
C445 C444 1.363 . S
C445 C448 1.363 . S
N446 C448 1.356 . S
N446 H458 0.984 . S
N446 H459 0.985 . S
N447 C449 1.356 . S
N447 H452 0.984 . S
N447 H453 0.985 . S
C448 C442 1.379 . S
C448 C445 1.363 . S
C448 N446 1.356 . S
C449 C443 1.363 . S
C449 C444 1.379 . S
C449 N447 1.356 . S
N450 C442 1.356 . S
N450 H456 0.984 . S
N450 H457 0.984 . S
N451 C444 1.356 . S
N451 H454 0.984 . S
N451 H455 0.985 . S
H452 N447 0.984 . S
H453 N447 0.985 . S
H454 N451 0.984 . S
H455 N451 0.985 . S
H456 N450 0.984 . S
H457 N450 0.984 . S
H458 N446 0.984 . S
H459 N446 0.985 . S
C460 C461 1.363 . S
C460 C466 1.379 . S
C460 N468 1.356 . S
C461 C460 1.363 . S
C461 C467 1.363 . S
C462 C463 1.363 . S
C462 C467 1.379 . S
C462 N469 1.356 . S
C463 C462 1.363 . S
C463 C466 1.363 . S
N464 C466 1.356 . S
N464 H476 0.984 . S
N464 H477 0.985 . S
N465 C467 1.356 . S
N465 H470 0.984 . S
N465 H471 0.985 . S
C466 C460 1.379 . S
C466 C463 1.363 . S
C466 N464 1.356 . S
C467 C461 1.363 . S
C467 C462 1.379 . S
C467 N465 1.356 . S
N468 C460 1.356 . S
N468 H474 0.984 . S
N468 H475 0.984 . S
N469 C462 1.356 . S
N469 H472 0.984 . S
N469 H473 0.985 . S
H470 N465 0.984 . S
H471 N465 0.985 . S
H472 N469 0.984 . S
H473 N469 0.985 . S
H474 N468 0.984 . S
H475 N468 0.984 . S
H476 N464 0.984 . S
H477 N464 0.985 . S
C478 C479 1.363 . S
C478 C484 1.379 . S
C478 N486 1.356 . S
C479 C478 1.363 . S
C479 C485 1.363 . S
C480 C481 1.363 . S
C480 C485 1.379 . S
C480 N487 1.356 . S
C481 C480 1.363 . S
C481 C484 1.363 . S
N482 C484 1.356 . S
N482 H494 0.984 . S
N482 H495 0.985 . S
N483 C485 1.356 . S
N483 H488 0.984 . S
N483 H489 0.985 . S
C484 C478 1.379 . S
C484 C481 1.363 . S
C484 N482 1.356 . S
C485 C479 1.363 . S
C485 C480 1.379 . S
C485 N483 1.356 . S
N486 C478 1.356 . S
N486 H492 0.984 . S
N486 H493 0.984 . S
N487 C480 1.356 . S
N487 H490 0.984 . S
N487 H491 0.979 1_455 S
H488 N483 0.984 . S
H489 N483 0.985 . S
H490 N487 0.984 . S
H491 N487 0.979 1_655 S
H492 N486 0.984 . S
H493 N486 0.984 . S
H494 N482 0.984 . S
H495 N482 0.985 . S
C496 C497 1.363 . S
C496 C502 1.379 . S
C496 N504 1.356 . S
C497 C496 1.363 . S
C497 C503 1.363 1_565 S
C498 C499 1.351 1_545 S
C498 C503 1.379 . S
C498 N505 1.356 1_554 S
C499 C498 1.351 1_565 S
C499 C502 1.377 . S
N500 C502 1.356 . S
N500 H512 0.984 . S
N500 H513 0.985 1_554 S
N501 C503 1.356 . S
N501 H506 0.984 . S
N501 H507 0.985 . S
C502 C496 1.379 . S
C502 C499 1.377 . S
C502 N500 1.356 . S
C503 C497 1.363 1_545 S
C503 C498 1.379 . S
C503 N501 1.356 . S
N504 C496 1.356 . S
N504 H510 0.984 . S
N504 H511 0.984 . S
N505 C498 1.356 1_556 S
N505 H508 0.984 . S
N505 H509 0.985 . S
H506 N501 0.984 . S
H507 N501 0.985 . S
H508 N505 0.984 . S
H509 N505 0.985 . S
H510 N504 0.984 . S
H511 N504 0.984 . S
H512 N500 0.984 . S
H513 N500 0.985 1_556 S
C514 C515 1.363 . S
C514 C520 1.379 . S
C514 N522 1.356 . S
C515 C514 1.363 . S
C515 C521 1.363 . S
C516 C517 1.363 . S
C516 C521 1.379 . S
C516 N523 1.356 1_554 S
C517 C516 1.363 . S
C517 C520 1.363 . S
N518 C520 1.356 . S
N518 H530 0.984 . S
N518 H531 0.985 1_554 S
N519 C521 1.356 . S
N519 H524 0.984 . S
N519 H525 0.985 . S
C520 C514 1.379 . S
C520 C517 1.363 . S
C520 N518 1.356 . S
C521 C515 1.363 . S
C521 C516 1.379 . S
C521 N519 1.356 . S
N522 C514 1.356 . S
N522 H528 0.984 . S
N522 H529 0.984 . S
N523 C516 1.356 1_556 S
N523 H526 0.984 . S
N523 H527 0.985 . S
H524 N519 0.984 . S
H525 N519 0.985 . S
H526 N523 0.984 . S
H527 N523 0.985 . S
H528 N522 0.984 . S
H529 N522 0.984 . S
H530 N518 0.984 . S
H531 N518 0.985 1_556 S
C532 C533 1.363 . S
C532 C538 1.379 . S
C532 N540 1.356 . S
C533 C532 1.363 . S
C533 C539 1.363 . S
C534 C535 1.363 . S
C534 C539 1.379 . S
C534 N541 1.356 . S
C535 C534 1.363 . S
C535 C538 1.363 . S
N536 C538 1.356 1_556 S
N536 H548 0.984 . S
N536 H549 0.985 . S
N537 C539 1.356 . S
N537 H542 0.984 . S
N537 H543 0.985 . S
C538 C532 1.379 . S
C538 C535 1.363 . S
C538 N536 1.356 1_554 S
C539 C533 1.363 . S
C539 C534 1.379 . S
C539 N537 1.356 . S
N540 C532 1.356 . S
N540 H546 0.984 . S
N540 H547 0.984 . S
N541 C534 1.356 . S
N541 H544 0.984 1_554 S
N541 H545 0.985 . S
H542 N537 0.984 . S
H543 N537 0.985 . S
H544 N541 0.984 1_556 S
H545 N541 0.985 . S
H546 N540 0.984 . S
H547 N540 0.984 . S
H548 N536 0.984 . S
H549 N536 0.985 . S
C550 C551 1.363 . S
C550 C556 1.379 . S
C550 N558 1.356 . S
C551 C550 1.363 . S
C551 C557 1.363 . S
C552 C553 1.362 1_455 S
C552 C557 1.378 1_455 S
C552 N559 1.358 . S
C553 C552 1.362 1_655 S
C553 C556 1.363 . S
N554 C556 1.356 1_556 S
N554 H566 0.984 . S
N554 H567 0.985 . S
N555 C557 1.356 . S
N555 H560 0.984 . S
N555 H561 0.985 1_655 S
C556 C550 1.379 . S
C556 C553 1.363 . S
C556 N554 1.356 1_554 S
C557 C551 1.363 . S
C557 C552 1.378 1_655 S
C557 N555 1.356 . S
N558 C550 1.356 . S
N558 H564 0.984 . S
N558 H565 0.984 . S
N559 C552 1.358 . S
N559 H562 0.984 1_554 S
N559 H563 0.985 . S
H560 N555 0.984 . S
H561 N555 0.985 1_455 S
H562 N559 0.984 1_556 S
H563 N559 0.985 . S
H564 N558 0.984 . S
H565 N558 0.984 . S
H566 N554 0.984 . S
H567 N554 0.985 . S
C568 C569 1.363 . S
C568 C574 1.379 1_455 S
C568 N576 1.359 . S
C569 C568 1.363 . S
C569 C575 1.363 . S
C570 C571 1.363 1_455 S
C570 C575 1.379 . S
C570 N577 1.356 . S
C571 C570 1.363 1_655 S
C571 C574 1.363 . S
N572 C574 1.356 . S
N572 H584 0.984 . S
N572 H585 0.985 . S
N573 C575 1.356 . S
N573 H578 0.984 . S
N573 H579 0.985 . S
C574 C568 1.379 1_655 S
C574 C571 1.363 . S
C574 N572 1.356 . S
C575 C569 1.363 . S
C575 C570 1.379 . S
C575 N573 1.356 . S
N576 C568 1.359 . S
N576 H582 0.963 1_454 S
N576 H583 1.004 . S
N577 C570 1.356 . S
N577 H580 0.984 . S
N577 H581 0.985 . S
H578 N573 0.984 . S
H579 N573 0.985 . S
H580 N577 0.984 . S
H581 N577 0.985 . S
H582 N576 0.963 1_656 S
H583 N576 1.004 . S
H584 N572 0.984 . S
H585 N572 0.985 . S
C586 C587 1.363 . S
C586 C592 1.379 1_545 S
C586 N594 1.356 1_545 S
C587 C586 1.363 . S
C587 C593 1.363 . S
C588 C589 1.389 . S
C588 C593 1.379 . S
C588 N595 1.356 . S
C589 C588 1.389 . S
C589 C592 1.351 1_545 S
N590 C592 1.356 . S
N590 H602 0.984 . S
N590 H603 0.985 . S
N591 C593 1.356 . S
N591 H596 0.984 . S
N591 H597 0.985 . S
C592 C586 1.379 1_565 S
C592 C589 1.351 1_565 S
C592 N590 1.356 . S
C593 C587 1.363 . S
C593 C588 1.379 . S
C593 N591 1.356 . S
N594 C586 1.356 1_565 S
N594 H600 0.984 . S
N594 H601 0.984 1_565 S
N595 C588 1.356 . S
N595 H598 0.984 . S
N595 H599 0.985 . S
H596 N591 0.984 . S
H597 N591 0.985 . S
H598 N595 0.984 . S
H599 N595 0.985 . S
H600 N594 0.984 . S
H601 N594 0.984 1_545 S
H602 N590 0.984 . S
H603 N590 0.985 . S
C604 C605 1.363 . S
C604 C610 1.379 . S
C604 N612 1.356 . S
C605 C604 1.363 . S
C605 C611 1.363 . S
C606 C607 1.363 . S
C606 C611 1.379 . S
C606 N613 1.356 . S
C607 C606 1.363 . S
C607 C610 1.363 . S
N608 C610 1.356 . S
N608 H620 0.984 . S
N608 H621 0.985 . S
N609 C611 1.356 . S
N609 H614 0.984 . S
N609 H615 0.985 1_554 S
C610 C604 1.379 . S
C610 C607 1.363 . S
C610 N608 1.356 . S
C611 C605 1.363 . S
C611 C606 1.379 . S
C611 N609 1.356 . S
N612 C604 1.356 . S
N612 H618 0.984 . S
N612 H619 0.984 . S
N613 C606 1.356 . S
N613 H616 0.984 . S
N613 H617 0.985 . S
H614 N609 0.984 . S
H615 N609 0.985 1_556 S
H616 N613 0.984 . S
H617 N613 0.985 . S
H618 N612 0.984 . S
H619 N612 0.984 . S
H620 N608 0.984 . S
H621 N608 0.985 . S
C622 C623 1.363 . S
C622 C628 1.379 . S
C622 N630 1.356 . S
C623 C622 1.363 . S
C623 C629 1.363 . S
C624 C625 1.363 . S
C624 C629 1.379 . S
C624 N631 1.356 . S
C625 C624 1.363 . S
C625 C628 1.363 . S
N626 C628 1.356 . S
N626 H638 0.984 . S
N626 H639 0.985 . S
N627 C629 1.356 . S
N627 H632 0.984 . S
N627 H633 0.985 . S
C628 C622 1.379 . S
C628 C625 1.363 . S
C628 N626 1.356 . S
C629 C623 1.363 . S
C629 C624 1.379 . S
C629 N627 1.356 . S
N630 C622 1.356 . S
N630 H636 0.984 . S
N630 H637 0.984 . S
N631 C624 1.356 . S
N631 H634 0.984 . S
N631 H635 0.985 . S
H632 N627 0.984 . S
H633 N627 0.985 . S
H634 N631 0.984 . S
H635 N631 0.985 . S
H636 N630 0.984 . S
H637 N630 0.984 . S
H638 N626 0.984 . S
H639 N626 0.985 . S
C640 C641 1.363 1_455 S
C640 C646 1.379 . S
C640 N648 1.356 . S
C641 C640 1.363 1_655 S
C641 C647 1.363 . S
C642 C643 1.363 1_655 S
C642 C647 1.379 . S
C642 N649 1.356 . S
C643 C642 1.363 1_455 S
C643 C646 1.363 . S
N644 C646 1.356 . S
N644 H656 0.984 . S
N644 H657 0.985 . S
N645 C647 1.356 . S
N645 H650 0.984 . S
N645 H651 0.985 . S
C646 C640 1.379 . S
C646 C643 1.363 . S
C646 N644 1.356 . S
C647 C641 1.363 . S
C647 C642 1.379 . S
C647 N645 1.356 . S
N648 C640 1.356 . S
N648 H654 0.984 . S
N648 H655 0.984 . S
N649 C642 1.356 . S
N649 H652 0.984 1_655 S
N649 H653 0.985 . S
H650 N645 0.984 . S
H651 N645 0.985 . S
H652 N649 0.984 1_455 S
H653 N649 0.985 . S
H654 N648 0.984 . S
H655 N648 0.984 . S
H656 N644 0.984 . S
H657 N644 0.985 . S
C658 C659 1.363 . S
C658 C664 1.379 1_565 S
C658 N666 1.356 . S
C659 C658 1.363 . S
C659 C665 1.363 1_565 S
C660 C661 1.363 . S
C660 C665 1.379 . S
C660 N667 1.356 . S
C661 C660 1.363 . S
C661 C664 1.363 . S
N662 C664 1.356 . S
N662 H674 0.984 1_544 S
N662 H675 0.985 . S
N663 C665 1.356 . S
N663 H668 0.984 1_545 S
N663 H669 0.985 . S
C664 C658 1.379 1_545 S
C664 C661 1.363 . S
C664 N662 1.356 . S
C665 C659 1.363 1_545 S
C665 C660 1.379 . S
C665 N663 1.356 . S
N666 C658 1.356 . S
N666 H672 0.984 . S
N666 H673 0.984 . S
N667 C660 1.356 . S
N667 H670 0.984 . S
N667 H671 0.985 . S
H668 N663 0.984 1_565 S
H669 N663 0.985 . S
H670 N667 0.984 . S
H671 N667 0.985 . S
H672 N666 0.984 . S
H673 N666 0.984 . S
H674 N662 0.984 1_566 S
H675 N662 0.985 . S
C676 C677 1.363 . S
C676 C682 1.379 . S
C676 N684 1.356 . S
C677 C676 1.363 . S
C677 C683 1.363 . S
C678 C679 1.363 . S
C678 C683 1.379 . S
C678 N685 1.356 . S
C679 C678 1.363 . S
C679 C682 1.363 . S
N680 C682 1.356 . S
N680 H692 0.984 . S
N680 H693 0.985 . S
N681 C683 1.356 . S
N681 H686 0.984 . S
N681 H687 0.985 . S
C682 C676 1.379 . S
C682 C679 1.363 . S
C682 N680 1.356 . S
C683 C677 1.363 . S
C683 C678 1.379 . S
C683 N681 1.356 . S
N684 C676 1.356 . S
N684 H690 0.984 . S
N684 H691 0.984 . S
N685 C678 1.356 . S
N685 H688 0.984 . S
N685 H689 0.985 . S
H686 N681 0.984 . S
H687 N681 0.985 . S
H688 N685 0.984 . S
H689 N685 0.985 . S
H690 N684 0.984 . S
H691 N684 0.984 . S
H692 N680 0.984 . S
H693 N680 0.985 . S
C694 C695 1.363 . S
C694 C700 1.379 . S
C694 N702 1.356 . S
C695 C694 1.363 . S
C695 C701 1.363 . S
C696 C697 1.363 . S
C696 C701 1.379 . S
C696 N703 1.356 . S
C697 C696 1.363 . S
C697 C700 1.363 . S
N698 C700 1.356 . S
N698 H710 0.984 . S
N698 H711 0.985 . S
N699 C701 1.356 . S
N699 H704 0.984 . S
N699 H705 0.985 . S
C700 C694 1.379 . S
C700 C697 1.363 . S
C700 N698 1.356 . S
C701 C695 1.363 . S
C701 C696 1.379 . S
C701 N699 1.356 . S
N702 C694 1.356 . S
N702 H708 0.984 . S
N702 H709 0.984 . S
N703 C696 1.356 . S
N703 H706 0.984 . S
N703 H707 0.985 1_554 S
H704 N699 0.984 . S
H705 N699 0.985 . S
H706 N703 0.984 . S
H707 N703 0.985 1_556 S
H708 N702 0.984 . S
H709 N702 0.984 . S
H710 N698 0.984 . S
H711 N698 0.985 . S
C712 C713 1.363 . S
C712 C718 1.379 . S
C712 N720 1.356 1_556 S
C713 C712 1.363 . S
C713 C719 1.363 . S
C714 C715 1.363 . S
C714 C719 1.379 . S
C714 N721 1.356 1_455 S
C715 C714 1.363 . S
C715 C718 1.363 . S
N716 C718 1.356 . S
N716 H728 0.984 1_556 S
N716 H729 0.985 . S
N717 C719 1.361 . S
N717 H722 0.987 . S
N717 H723 0.977 1_455 S
C718 C712 1.379 . S
C718 C715 1.363 . S
C718 N716 1.356 . S
C719 C713 1.363 . S
C719 C714 1.379 . S
C719 N717 1.361 . S
N720 C712 1.356 1_554 S
N720 H726 0.984 . S
N720 H727 0.984 1_554 S
N721 C714 1.356 1_655 S
N721 H724 0.983 1_655 S
N721 H725 0.985 . S
H722 N717 0.987 . S
H723 N717 0.977 1_655 S
H724 N721 0.983 1_455 S
H725 N721 0.985 . S
H726 N720 0.984 . S
H727 N720 0.984 1_556 S
H728 N716 0.984 1_554 S
H729 N716 0.985 . S
C730 C731 1.363 . S
C730 C736 1.379 . S
C730 N738 1.356 . S
C731 C730 1.363 . S
C731 C737 1.363 . S
C732 C733 1.363 . S
C732 C737 1.379 . S
C732 N739 1.356 1_556 S
C733 C732 1.363 . S
C733 C736 1.363 . S
N734 C736 1.356 . S
N734 H746 0.984 . S
N734 H747 0.985 . S
N735 C737 1.356 1_554 S
N735 H740 0.984 . S
N735 H741 0.985 . S
C736 C730 1.379 . S
C736 C733 1.363 . S
C736 N734 1.356 . S
C737 C731 1.363 . S
C737 C732 1.379 . S
C737 N735 1.356 1_556 S
N738 C730 1.356 . S
N738 H744 0.984 . S
N738 H745 0.984 . S
N739 C732 1.356 1_554 S
N739 H742 0.984 1_554 S
N739 H743 0.985 . S
H740 N735 0.984 . S
H741 N735 0.985 . S
H742 N739 0.984 1_556 S
H743 N739 0.985 . S
H744 N738 0.984 . S
H745 N738 0.984 . S
H746 N734 0.984 . S
H747 N734 0.985 . S
C748 C749 1.363 . S
C748 C754 1.379 . S
C748 N756 1.356 . S
C749 C748 1.363 . S
C749 C755 1.363 . S
C750 C751 1.363 . S
C750 C755 1.379 . S
C750 N757 1.356 . S
C751 C750 1.363 . S
C751 C754 1.363 . S
N752 C754 1.356 . S
N752 H764 0.984 1_556 S
N752 H765 0.985 . S
N753 C755 1.356 . S
N753 H758 0.984 . S
N753 H759 0.985 . S
C754 C748 1.379 . S
C754 C751 1.363 . S
C754 N752 1.356 . S
C755 C749 1.363 . S
C755 C750 1.379 . S
C755 N753 1.356 . S
N756 C748 1.356 . S
N756 H762 0.984 1_556 S
N756 H763 0.984 . S
N757 C750 1.356 . S
N757 H760 0.984 . S
N757 H761 0.985 . S
H758 N753 0.984 . S
H759 N753 0.985 . S
H760 N757 0.984 . S
H761 N757 0.985 . S
H762 N756 0.984 1_554 S
H763 N756 0.984 . S
H764 N752 0.984 1_554 S
H765 N752 0.985 . S
C766 C767 1.363 . S
C766 C772 1.379 . S
C766 N774 1.356 . S
C767 C766 1.363 . S
C767 C773 1.363 . S
C768 C769 1.363 . S
C768 C773 1.379 . S
C768 N775 1.356 1_556 S
C769 C768 1.363 . S
C769 C772 1.363 . S
N770 C772 1.356 . S
N770 H782 0.984 . S
N770 H783 0.985 . S
N771 C773 1.356 1_554 S
N771 H776 0.984 . S
N771 H777 0.985 . S
C772 C766 1.379 . S
C772 C769 1.363 . S
C772 N770 1.356 . S
C773 C767 1.363 . S
C773 C768 1.379 . S
C773 N771 1.356 1_556 S
N774 C766 1.356 . S
N774 H780 0.984 . S
N774 H781 0.984 . S
N775 C768 1.356 1_554 S
N775 H778 0.984 1_554 S
N775 H779 0.985 . S
H776 N771 0.984 . S
H777 N771 0.985 . S
H778 N775 0.984 1_556 S
H779 N775 0.985 . S
H780 N774 0.984 . S
H781 N774 0.984 . S
H782 N770 0.984 . S
H783 N770 0.985 . S
C784 C785 1.363 . S
C784 C790 1.379 . S
C784 N792 1.356 . S
C785 C784 1.363 . S
C785 C791 1.363 1_655 S
C786 C787 1.363 1_455 S
C786 C791 1.379 . S
C786 N793 1.356 . S
C787 C786 1.363 1_655 S
C787 C790 1.363 . S
N788 C790 1.356 . S
N788 H800 0.984 . S
N788 H801 0.985 . S
N789 C791 1.356 . S
N789 H794 0.984 . S
N789 H795 0.985 . S
C790 C784 1.379 . S
C790 C787 1.363 . S
C790 N788 1.356 . S
C791 C785 1.363 1_455 S
C791 C786 1.379 . S
C791 N789 1.356 . S
N792 C784 1.356 . S
N792 H798 0.984 . S
N792 H799 0.984 . S
N793 C786 1.356 . S
N793 H796 0.984 . S
N793 H797 0.985 . S
H794 N789 0.984 . S
H795 N789 0.985 . S
H796 N793 0.984 . S
H797 N793 0.985 . S
H798 N792 0.984 . S
H799 N792 0.984 . S
H800 N788 0.984 . S
H801 N788 0.985 . S
C802 C803 1.363 1_545 S
C802 C808 1.379 . S
C802 N810 1.356 . S
C803 C802 1.363 1_565 S
C803 C809 1.363 . S
C804 C805 1.363 . S
C804 C809 1.379 . S
C804 N811 1.356 . S
C805 C804 1.363 . S
C805 C808 1.363 1_565 S
N806 C808 1.356 . S
N806 H818 0.984 . S
N806 H819 0.985 . S
N807 C809 1.356 . S
N807 H812 0.984 . S
N807 H813 0.985 . S
C808 C802 1.379 . S
C808 C805 1.363 1_545 S
C808 N806 1.356 . S
C809 C803 1.363 . S
C809 C804 1.379 . S
C809 N807 1.356 . S
N810 C802 1.356 . S
N810 H816 0.984 . S
N810 H817 0.984 . S
N811 C804 1.356 . S
N811 H814 0.984 . S
N811 H815 0.985 . S
H812 N807 0.984 . S
H813 N807 0.985 . S
H814 N811 0.984 . S
H815 N811 0.985 . S
H816 N810 0.984 . S
H817 N810 0.984 . S
H818 N806 0.984 . S
H819 N806 0.985 . S
C820 C821 1.363 . S
C820 C826 1.379 . S
C820 N828 1.356 . S
C821 C820 1.363 . S
C821 C827 1.363 . S
C822 C823 1.363 . S
C822 C827 1.379 . S
C822 N829 1.356 . S
C823 C822 1.363 . S
C823 C826 1.363 . S
N824 C826 1.356 . S
N824 H836 0.984 . S
N824 H837 0.985 . S
N825 C827 1.356 . S
N825 H830 0.984 . S
N825 H831 0.985 . S
C826 C820 1.379 . S
C826 C823 1.363 . S
C826 N824 1.356 . S
C827 C821 1.363 . S
C827 C822 1.379 . S
C827 N825 1.356 . S
N828 C820 1.356 . S
N828 H834 0.984 . S
N828 H835 0.984 . S
N829 C822 1.356 . S
N829 H832 0.984 . S
N829 H833 0.985 . S
H830 N825 0.984 . S
H831 N825 0.985 . S
H832 N829 0.984 . S
H833 N829 0.985 . S
H834 N828 0.984 . S
H835 N828 0.984 . S
H836 N824 0.984 . S
H837 N824 0.985 . S
C838 C839 1.363 . S
C838 C844 1.379 . S
C838 N846 1.356 . S
C839 C838 1.363 . S
C839 C845 1.363 . S
C840 C841 1.363 . S
C840 C845 1.379 . S
C840 N847 1.356 . S
C841 C840 1.363 . S
C841 C844 1.363 . S
N842 C844 1.356 . S
N842 H854 0.984 . S
N842 H855 0.985 . S
N843 C845 1.356 . S
N843 H848 0.984 . S
N843 H849 0.985 . S
C844 C838 1.379 . S
C844 C841 1.363 . S
C844 N842 1.356 . S
C845 C839 1.363 . S
C845 C840 1.379 . S
C845 N843 1.356 . S
N846 C838 1.356 . S
N846 H852 0.984 . S
N846 H853 0.984 . S
N847 C840 1.356 . S
N847 H850 0.984 . S
N847 H851 0.985 . S
H848 N843 0.984 . S
H849 N843 0.985 . S
H850 N847 0.984 . S
H851 N847 0.985 . S
H852 N846 0.984 . S
H853 N846 0.984 . S
H854 N842 0.984 . S
H855 N842 0.985 . S
C425 C76 1.972 . S
C427 C151 2.183 . S
C445 C228 2.185 . S
C443 C87 1.972 . S
C463 C319 2.183 . S
C461 C54 1.970 . S
C481 C403 2.170 . S
C479 C65 1.961 . S
C499 C162 2.178 1_564 S
C497 C32 1.977 . S
C515 C43 1.976 . S
C517 C239 2.185 1_554 S
C533 C10 1.974 . S
C535 C330 2.183 1_554 S
C551 C21 1.966 . S
C553 C414 2.171 1_654 S
C571 C146 0.765 . S
C569 C60 0.764 . S
C589 C241 0.745 1_545 S
C587 C71 0.752 . S
C607 C314 0.772 . S
C605 C82 0.770 . S
C623 C49 0.752 . S
C625 C398 0.753 . S
C641 C16 0.763 . S
C643 C157 0.765 . S
C661 C230 0.752 . S
C659 C27 0.752 . S
C679 C325 0.772 . S
C677 C38 0.769 . S
C695 C5 0.752 . S
C697 C409 0.753 . S
C713 C59 2.026 . S
C715 C155 2.292 . S
C731 C70 2.032 . S
C733 C246 2.340 . S
C751 C323 2.308 . S
C749 C81 2.039 . S
C769 C407 2.311 . S
C767 C48 2.044 . S
C785 C15 2.024 . S
C787 C144 2.293 . S
C805 C235 2.340 1_565 S
C803 C26 2.028 . S
C823 C312 2.308 . S
C821 C37 2.035 . S
C839 C4 2.041 . S
C841 C396 2.311 . S
