# Generated by pormake.
# Topology nom, (4,4)-cn, num edge types: 1
# Building blocks:
#     Node 0, Type 0, BuildingBlock: GIZVER_clean_linker_0, # of connection points: 4
#     Node 1, Type 0, BuildingBlock: GIZVER_clean_linker_0, # of connection points: 4
#     Node 2, Type 0, BuildingBlock: GIZVER_clean_linker_0, # of connection points: 4
#     Node 3, Type 0, BuildingBlock: GIZVER_clean_linker_0, # of connection points: 4
#     Node 4, Type 0, BuildingBlock: GIZVER_clean_linker_0, # of connection points: 4
#     Node 5, Type 0, BuildingBlock: GIZVER_clean_linker_0, # of connection points: 4
#     Node 6, Type 1, BuildingBlock: QUQFOY_clean_sbu_1, # of connection points: 4
#     Node 7, Type 1, BuildingBlock: QUQFOY_clean_sbu_1, # of connection points: 4
#     Node 8, Type 1, BuildingBlock: QUQFOY_clean_sbu_1, # of connection points: 4
#     Node 9, Type 1, BuildingBlock: QUQFOY_clean_sbu_1, # of connection points: 4
#     Node 10, Type 1, BuildingBlock: QUQFOY_clean_sbu_1, # of connection points: 4
#     Node 11, Type 1, BuildingBlock: QUQFOY_clean_sbu_1, # of connection points: 4
#     Edge 12, Type (0, 1), BuildingBlock: KIFKEQ_clean_linker_1, # of connection points: 2
#     Edge 13, Type (0, 1), BuildingBlock: KIFKEQ_clean_linker_1, # of connection points: 2
#     Edge 14, Type (0, 1), BuildingBlock: KIFKEQ_clean_linker_1, # of connection points: 2
#     Edge 15, Type (0, 1), BuildingBlock: KIFKEQ_clean_linker_1, # of connection points: 2
#     Edge 16, Type (0, 1), BuildingBlock: KIFKEQ_clean_linker_1, # of connection points: 2
#     Edge 17, Type (0, 1), BuildingBlock: KIFKEQ_clean_linker_1, # of connection points: 2
#     Edge 18, Type (0, 1), BuildingBlock: KIFKEQ_clean_linker_1, # of connection points: 2
#     Edge 19, Type (0, 1), BuildingBlock: KIFKEQ_clean_linker_1, # of connection points: 2
#     Edge 20, Type (0, 1), BuildingBlock: KIFKEQ_clean_linker_1, # of connection points: 2
#     Edge 21, Type (0, 1), BuildingBlock: KIFKEQ_clean_linker_1, # of connection points: 2
#     Edge 22, Type (0, 1), BuildingBlock: KIFKEQ_clean_linker_1, # of connection points: 2
#     Edge 23, Type (0, 1), BuildingBlock: KIFKEQ_clean_linker_1, # of connection points: 2
#     Edge 24, Type (0, 1), BuildingBlock: KIFKEQ_clean_linker_1, # of connection points: 2
#     Edge 25, Type (0, 1), BuildingBlock: KIFKEQ_clean_linker_1, # of connection points: 2
#     Edge 26, Type (0, 1), BuildingBlock: KIFKEQ_clean_linker_1, # of connection points: 2
#     Edge 27, Type (0, 1), BuildingBlock: KIFKEQ_clean_linker_1, # of connection points: 2
#     Edge 28, Type (0, 1), BuildingBlock: KIFKEQ_clean_linker_1, # of connection points: 2
#     Edge 29, Type (0, 1), BuildingBlock: KIFKEQ_clean_linker_1, # of connection points: 2
#     Edge 30, Type (0, 1), BuildingBlock: KIFKEQ_clean_linker_1, # of connection points: 2
#     Edge 31, Type (0, 1), BuildingBlock: KIFKEQ_clean_linker_1, # of connection points: 2
#     Edge 32, Type (0, 1), BuildingBlock: KIFKEQ_clean_linker_1, # of connection points: 2
#     Edge 33, Type (0, 1), BuildingBlock: KIFKEQ_clean_linker_1, # of connection points: 2
#     Edge 34, Type (0, 1), BuildingBlock: KIFKEQ_clean_linker_1, # of connection points: 2
#     Edge 35, Type (0, 1), BuildingBlock: KIFKEQ_clean_linker_1, # of connection points: 2
# Relax obj value: 0.004
# Max RMSD: 0.086
# Mean RMSD: 0.077
data_MOF--net-nom--node1-QUQFOY_clean_sbu_1--node2-GIZVER_clean_linker_0--edge1-KIFKEQ_clean_linker_1
_symmetry_space_group_name_H-M    P1
_symmetry_Int_Tables_number       1
_symmetry_cell_setting            triclinic
loop_
_symmetry_equiv_pos_as_xyz
'x, y, z'
_cell_length_a     48.38895
_cell_length_b     48.42918
_cell_length_c     46.324132
_cell_angle_alpha  89.801596
_cell_angle_beta   90.019322
_cell_angle_gamma 120.01728
loop_
_atom_site_label
_atom_site_type_symbol
_atom_site_fract_x
_atom_site_fract_y
_atom_site_fract_z
_atom_type_partial_charge
H0 H 0.99293 0.5757 0.33848 0.0
H1 H 1.01167 0.57447 0.24773 0.0
H2 H 0.9285 0.49628 0.28607 0.0
H3 H 0.03271 0.62409 0.31413 0.0
H4 H 0.03716 0.62473 0.27582 0.0
H5 H 0.05981 0.60285 0.34568 0.0
H6 H 0.14624 0.61226 0.3115 0.0
H7 H 0.0788 0.61758 0.25435 0.0
C8 C 0.98704 0.56335 0.31797 0.0
C9 C 0.95897 0.53359 0.31542 0.0
C10 C 1.00665 0.57787 0.2937 0.0
C11 C 0.99763 0.56266 0.26679 0.0
C12 C 0.96963 0.53308 0.2641 0.0
C13 C 0.95105 0.5183 0.28857 0.0
C14 C 0.03532 0.6109 0.29568 0.0
C15 C 0.0655 0.60942 0.29944 0.0
C16 C 0.07462 0.60531 0.32718 0.0
C17 C 0.10342 0.60563 0.33125 0.0
C18 C 0.12309 0.60995 0.30756 0.0
C19 C 0.11488 0.61472 0.27966 0.0
C20 C 0.08555 0.6138 0.27567 0.0
H21 H 0.45155 0.98499 0.50547 0.0
H22 H 0.47453 1.00435 0.41514 0.0
H23 H 0.46492 0.91924 0.45351 0.0
H24 H 0.44734 0.02736 0.48189 0.0
H25 H 0.44887 0.02991 0.4434 0.0
H26 H 0.49828 0.05369 0.51048 0.0
H27 H 0.57441 0.13801 0.47155 0.0
H28 H 0.49563 0.07145 0.41959 0.0
C29 C 0.45826 0.97899 0.48513 0.0
C30 C 0.45871 0.95027 0.48265 0.0
C31 C 0.46489 0.99913 0.46095 0.0
C32 C 0.47128 0.98994 0.43419 0.0
C33 C 0.47163 0.9613 0.43158 0.0
C34 C 0.4664 0.94222 0.456 0.0
C35 C 0.46179 0.02856 0.46274 0.0
C36 C 0.49415 0.05828 0.46452 0.0
C37 C 0.5096 0.06781 0.49133 0.0
C38 C 0.53868 0.09642 0.4938 0.0
C39 C 0.55283 0.11505 0.4692 0.0
C40 C 0.53734 0.10652 0.44243 0.0
C41 C 0.50809 0.07785 0.44007 0.0
H42 H 0.44686 0.48076 0.58391 0.0
H43 H 0.47127 0.48581 0.67389 0.0
H44 H 0.45714 0.55864 0.63595 0.0
H45 H 0.44048 0.43376 0.60873 0.0
H46 H 0.44413 0.43391 0.64706 0.0
H47 H 0.48908 0.45502 0.5775 0.0
H48 H 0.56563 0.4457 0.61306 0.0
H49 H 0.49285 0.44188 0.66918 0.0
C50 C 0.45291 0.49346 0.60423 0.0
C51 C 0.45256 0.52226 0.60653 0.0
C52 C 0.45971 0.48024 0.62852 0.0
C53 C 0.46674 0.4963 0.65506 0.0
C54 C 0.46649 0.525 0.65765 0.0
C55 C 0.4596 0.53774 0.63333 0.0
C56 C 0.45611 0.44749 0.6271 0.0
C57 C 0.48803 0.44939 0.62386 0.0
C58 C 0.50136 0.45292 0.59623 0.0
C59 C 0.52973 0.45228 0.59259 0.0
C60 C 0.54491 0.44832 0.61662 0.0
C61 C 0.53182 0.44413 0.64442 0.0
C62 C 0.50352 0.44534 0.64796 0.0
H63 H 0.99387 0.43848 0.7552 0.0
H64 H 1.01375 0.46206 0.84523 0.0
H65 H 0.92886 0.4532 0.80717 0.0
H66 H 0.03512 0.43258 0.77931 0.0
H67 H 0.03908 0.43631 0.81762 0.0
H68 H 0.06166 0.48147 0.74791 0.0
H69 H 0.14831 0.55786 0.78216 0.0
H70 H 0.08087 0.48459 0.83906 0.0
C71 C 0.98808 0.44552 0.77548 0.0
C72 C 0.95955 0.44636 0.77803 0.0
C73 C 1.00827 0.45208 0.79953 0.0
C74 C 0.99933 0.45885 0.82626 0.0
C75 C 0.97085 0.45958 0.82895 0.0
C76 C 0.95173 0.45439 0.80462 0.0
C77 C 0.0373 0.44825 0.79771 0.0
C78 C 0.06735 0.4801 0.79409 0.0
C79 C 0.07648 0.49363 0.76641 0.0
C80 C 0.10537 0.52206 0.76238 0.0
C81 C 0.12508 0.53709 0.78607 0.0
C82 C 0.11691 0.52377 0.81387 0.0
C83 C 0.08752 0.49542 0.81782 0.0
H84 H 0.62732 0.07125 0.00574 0.0
H85 H 0.60428 0.05227 0.91553 0.0
H86 H 0.61854 0.1394 0.95267 0.0
H87 H 0.6327 0.02988 -0.01781 0.0
H88 H 0.63156 0.02771 0.94373 0.0
H89 H 0.58047 1.00429 0.01013 0.0
H90 H 0.50884 0.91674 -0.02753 0.0
H91 H 0.58569 0.98596 0.91996 0.0
C92 C 0.62168 0.07803 -0.01479 0.0
C93 C 0.62237 0.10733 -0.01746 0.0
C94 C 0.61509 0.05805 0.96106 0.0
C95 C 0.60863 0.06727 0.93425 0.0
C96 C 0.60918 0.09637 0.9313 0.0
C97 C 0.61585 0.11595 0.95551 0.0
C98 C 0.61834 0.02872 0.96298 0.0
C99 C 0.58619 0.99874 0.9647 0.0
C100 C 0.5702 0.98927 -0.00865 0.0
C101 C 0.54187 0.9599 -0.00591 0.0
C102 C 0.52941 0.94036 0.96978 0.0
C103 C 0.54477 0.94933 0.94288 0.0
C104 C 0.57314 0.97889 0.94041 0.0
H105 H 0.62251 0.57154 0.08832 0.0
H106 H 0.60943 0.57613 0.17984 0.0
H107 H 0.61929 0.49963 0.14544 0.0
H108 H 0.63009 0.6206 0.10989 0.0
H109 H 0.62955 0.62416 0.1482 0.0
H110 H 0.5788 0.59355 0.08232 0.0
H111 H 0.50218 0.60156 0.12005 0.0
H112 H 0.58244 0.61784 0.17213 0.0
C113 C 0.61914 0.5611 0.10966 0.0
C114 C 0.62059 0.53298 0.11361 0.0
C115 C 0.61475 0.5766 0.13347 0.0
C116 C 0.61161 0.56373 0.1613 0.0
C117 C 0.61249 0.53555 0.16534 0.0
C118 C 0.61655 0.52023 0.14157 0.0
C119 C 0.61643 0.60835 0.12974 0.0
C120 C 0.58348 0.6043 0.12785 0.0
C121 C 0.56752 0.59678 0.10122 0.0
C122 C 0.53807 0.59552 0.09847 0.0
C123 C 0.52403 0.60071 0.1227 0.0
C124 C 0.53999 0.60919 0.14926 0.0
C125 C 0.5696 0.61054 0.15187 0.0
O126 O 0.6165 0.38846 0.40557 0.0
Cd127 Cd 0.63498 0.37652 0.37072 0.0
Cd128 Cd 0.68822 0.42975 0.38739 0.0
O129 O 0.6626 0.42375 0.42453 0.0
O130 O 0.60255 0.3316 0.36122 0.0
O131 O 0.65125 0.34588 0.3763 0.0
C132 C 0.62329 0.32356 0.36845 0.0
C133 C 0.74149 0.44232 0.38971 0.0
C134 C 0.63235 0.40743 0.42586 0.0
C135 C 0.65689 0.43247 0.33237 0.0
O136 O 0.67596 0.44823 0.35264 0.0
O137 O 0.64062 0.40223 0.33365 0.0
O138 O 0.73296 0.46263 0.39699 0.0
O139 O 0.71949 0.41427 0.38176 0.0
O140 O 0.25381 0.60824 0.574 0.0
Cd141 Cd 0.28235 0.62352 0.53766 0.0
Cd142 Cd 0.28357 0.67895 0.55315 0.0
O143 O 0.26351 0.65476 0.59088 0.0
O144 O 0.28905 0.58678 0.53012 0.0
O145 O 0.32878 0.63541 0.53879 0.0
C146 C 0.31916 0.60575 0.53374 0.0
C147 C 0.32467 0.73213 0.55466 0.0
C148 C 0.25028 0.62467 0.59342 0.0
C149 C 0.2482 0.64531 0.49901 0.0
O150 O 0.25302 0.66591 0.51824 0.0
O151 O 0.26081 0.62784 0.5011 0.0
O152 O 0.29575 0.72404 0.5614 0.0
O153 O 0.33055 0.70978 0.54757 0.0
O154 O 0.67214 0.2451 0.74448 0.0
Cd155 Cd 0.68729 0.27362 0.7079 0.0
Cd156 Cd 0.63007 0.27235 0.71756 0.0
O157 O 0.62906 0.24817 0.75424 0.0
O158 O 0.7325 0.28447 0.70226 0.0
O159 O 0.71873 0.3207 0.71161 0.0
C160 C 0.74093 0.31387 0.70679 0.0
C161 C 0.61364 0.31034 0.71978 0.0
C162 C 0.64793 0.23789 0.76027 0.0
C163 C 0.63606 0.24036 0.66405 0.0
O164 O 0.6182 0.24541 0.68065 0.0
O165 O 0.66546 0.2518 0.66973 0.0
O166 O 0.59364 0.28026 0.72194 0.0
O167 O 0.64351 0.3192 0.71703 0.0
O168 O 0.4584 0.66199 0.91006 0.0
Cd169 Cd 0.44813 0.67865 0.87309 0.0
Cd170 Cd 0.38951 0.62202 0.88155 0.0
O171 O 0.4112 0.6199 0.91917 0.0
O172 O 0.48527 0.72273 0.86985 0.0
O173 O 0.43554 0.71267 0.87317 0.0
C174 C 0.46561 0.73328 0.87119 0.0
C175 C 0.33494 0.60543 0.88345 0.0
C176 C 0.44034 0.63805 0.92568 0.0
C177 C 0.43003 0.62818 0.82885 0.0
O178 O 0.40509 0.61122 0.84386 0.0
O179 O 0.44981 0.65662 0.83612 0.0
O180 O 0.34508 0.58545 0.88498 0.0
O181 O 0.35595 0.63535 0.88131 0.0
O182 O 0.822 0.39439 0.01672 0.0
Cd183 Cd 0.79312 0.37856 0.0529 0.0
Cd184 Cd 0.79221 0.43434 0.04026 0.0
O185 O 0.81367 0.43317 0.00244 0.0
O186 O 0.78639 0.33475 0.05805 0.0
O187 O 0.74668 0.34418 0.05115 0.0
C188 C 0.75626 0.32386 0.05493 0.0
C189 C 0.75396 0.45048 0.03875 0.0
C190 C 0.82639 0.41602 -0.00135 0.0
C191 C 0.82621 0.43133 0.09435 0.0
O192 O 0.82125 0.4482 0.0763 0.0
O193 O 0.81423 0.40156 0.09056 0.0
O194 O 0.78389 0.47041 0.03513 0.0
O195 O 0.74537 0.42083 0.04264 0.0
O196 O 0.45584 0.81156 0.18131 0.0
Cd197 Cd 0.44235 0.78336 0.2181 0.0
Cd198 Cd 0.38666 0.78495 0.20843 0.0
O199 O 0.40976 0.80865 0.17156 0.0
O200 O 0.47635 0.77206 0.22391 0.0
O201 O 0.42611 0.73615 0.21478 0.0
C202 C 0.45506 0.7427 0.21962 0.0
C203 C 0.33207 0.74735 0.20635 0.0
C204 C 0.43886 0.81873 0.16544 0.0
C205 C 0.42506 0.81733 0.26167 0.0
O206 O 0.40209 0.81227 0.24511 0.0
O207 O 0.44281 0.80565 0.25608 0.0
O208 O 0.34247 0.77746 0.20402 0.0
O209 O 0.35285 0.73821 0.20923 0.0
H210 H 0.15707 0.59377 0.26866 0.0
H211 H 0.12915 0.66063 0.23812 0.0
H212 H 0.20744 0.62322 0.2435 0.0
H213 H 0.17819 0.68828 0.21033 0.0
H214 H 0.28492 0.76109 0.21558 0.0
H215 H 0.22896 0.72446 0.22396 0.0
H216 H 0.24372 0.64495 0.20676 0.0
H217 H 0.3007 0.68218 0.20023 0.0
C218 C 0.16126 0.61424 0.25579 0.0
C219 C 0.13955 0.62554 0.25645 0.0
C220 C 0.19017 0.63102 0.24093 0.0
C221 C 0.19774 0.65908 0.22559 0.0
C222 C 0.17397 0.66767 0.22295 0.0
C223 C 0.14537 0.65134 0.23847 0.0
C224 C 0.27621 0.7358 0.21326 0.0
C225 C 0.29733 0.72453 0.20763 0.0
C226 C 0.2438 0.71459 0.21775 0.0
C227 C 0.23135 0.6814 0.21618 0.0
C228 C 0.25232 0.67022 0.20882 0.0
C229 C 0.28502 0.69155 0.20491 0.0
H230 H 0.5046 0.13073 0.41493 0.0
H231 H 0.59735 0.13876 0.41936 0.0
H232 H 0.5275 0.18136 0.38946 0.0
H233 H 0.62043 0.18903 0.39263 0.0
H234 H 0.5721 0.27315 0.34303 0.0
H235 H 0.55256 0.2166 0.35105 0.0
H236 H 0.63332 0.24059 0.40657 0.0
H237 H 0.65346 0.29693 0.39735 0.0
C238 C 0.52968 0.14265 0.4092 0.0
C239 C 0.54924 0.13095 0.41923 0.0
C240 C 0.54295 0.17185 0.39459 0.0
C241 C 0.57607 0.18982 0.38942 0.0
C242 C 0.59502 0.17637 0.39693 0.0
C243 C 0.58179 0.14737 0.41189 0.0
C244 C 0.58598 0.26626 0.35649 0.0
C245 C 0.61414 0.28949 0.36983 0.0
C246 C 0.57468 0.2338 0.36123 0.0
C247 C 0.591 0.22379 0.37982 0.0
C248 C 0.62018 0.24714 0.39182 0.0
C249 C 0.63171 0.27959 0.38672 0.0
H250 H 0.40323 0.48788 0.56873 0.0
H251 H 0.47408 0.58436 0.59091 0.0
H252 H 0.37467 0.50796 0.54054 0.0
H253 H 0.44392 0.60426 0.56573 0.0
H254 H 0.38391 0.63789 0.52462 0.0
H255 H 0.42037 0.6172 0.53034 0.0
H256 H 0.34025 0.52468 0.55265 0.0
H257 H 0.30428 0.54485 0.54462 0.0
C258 C 0.41311 0.51343 0.56717 0.0
C259 C 0.44042 0.53442 0.58295 0.0
C260 C 0.39629 0.52502 0.55146 0.0
C261 C 0.40589 0.55775 0.55181 0.0
C262 C 0.43524 0.57891 0.5649 0.0
C263 C 0.4525 0.5674 0.57982 0.0
C264 C 0.37425 0.61299 0.53021 0.0
C265 C 0.34132 0.59307 0.53441 0.0
C266 C 0.39514 0.60107 0.53372 0.0
C267 C 0.38364 0.56917 0.54242 0.0
C268 C 0.3504 0.54912 0.54542 0.0
C269 C 0.32957 0.56081 0.54112 0.0
H270 H 0.92702 0.47332 0.754 0.0
H271 H 0.93431 0.38818 0.7531 0.0
H272 H 0.87629 0.44528 0.72825 0.0
H273 H 0.8832 0.3596 0.72877 0.0
H274 H 0.79108 0.31103 0.68334 0.0
H275 H 0.84775 0.34782 0.69081 0.0
H276 H 0.82456 0.40771 0.74252 0.0
H277 H 0.76808 0.37173 0.73361 0.0
C278 C 0.91811 0.44882 0.74754 0.0
C279 C 0.93451 0.43288 0.75551 0.0
C280 C 0.88883 0.43257 0.73316 0.0
C281 C 0.87506 0.39986 0.72693 0.0
C282 C 0.89293 0.38477 0.73286 0.0
C283 C 0.9224 0.40117 0.74683 0.0
C284 C 0.7982 0.3324 0.69586 0.0
C285 C 0.77516 0.33835 0.70816 0.0
C286 C 0.83073 0.35344 0.7003 0.0
C287 C 0.841 0.38064 0.71767 0.0
C288 C 0.81783 0.38734 0.72871 0.0
C289 C 0.78531 0.36656 0.72379 0.0
H290 H 0.58011 0.9355 0.90532 0.0
H291 H 0.48293 0.90796 0.92727 0.0
H292 H 0.56106 0.88684 0.87757 0.0
H293 H 0.46405 0.858 0.90226 0.0
H294 H 0.43296 0.76509 0.86056 0.0
H295 H 0.45263 0.82206 0.86615 0.0
H296 H 0.54476 0.83585 0.89174 0.0
H297 H 0.52568 0.77989 0.88417 0.0
C298 C 0.55462 0.91944 0.90373 0.0
C299 C 0.53313 0.92519 0.91934 0.0
C300 C 0.54364 0.89107 0.88826 0.0
C301 C 0.51104 0.8675 0.88865 0.0
C302 C 0.48933 0.8751 0.90147 0.0
C303 C 0.50024 0.90378 0.91623 0.0
C304 C 0.45755 0.78057 0.86691 0.0
C305 C 0.47768 0.768 0.87219 0.0
C306 C 0.46887 0.81326 0.87028 0.0
C307 C 0.50036 0.83396 0.87971 0.0
C308 C 0.52065 0.82124 0.88388 0.0
C309 C 0.50955 0.78884 0.87987 0.0
H310 H 0.60008 0.46996 0.10286 0.0
H311 H 0.66565 0.56479 0.07146 0.0
H312 H 0.62956 0.44945 0.0774 0.0
H313 H 0.69326 0.54377 0.04333 0.0
H314 H 0.76717 0.51124 0.04737 0.0
H315 H 0.73017 0.52996 0.05617 0.0
H316 H 0.651 0.43494 0.04071 0.0
H317 H 0.68865 0.41585 0.03385 0.0
C318 C 0.62025 0.48632 0.08973 0.0
C319 C 0.63123 0.51926 0.09025 0.0
C320 C 0.63706 0.47442 0.07469 0.0
C321 C 0.66478 0.49506 0.059 0.0
C322 C 0.67296 0.52728 0.05622 0.0
C323 C 0.65663 0.53933 0.07193 0.0
C324 C 0.74186 0.49437 0.04553 0.0
C325 C 0.73083 0.46197 0.04031 0.0
C326 C 0.72043 0.50521 0.05026 0.0
C327 C 0.68723 0.48409 0.04932 0.0
C328 C 0.67627 0.45191 0.04233 0.0
C329 C 0.69783 0.4409 0.03822 0.0
H330 H 0.40091 0.92583 0.50864 0.0
H331 H 0.48536 0.91722 0.50619 0.0
H332 H 0.3721 0.87478 0.53331 0.0
H333 H 0.45706 0.86651 0.53213 0.0
H334 H 0.32339 0.78257 0.57929 0.0
H335 H 0.3607 0.83912 0.57157 0.0
H336 H 0.41846 0.81514 0.51749 0.0
H337 H 0.38193 0.75878 0.52644 0.0
C338 C 0.41373 0.91365 0.51464 0.0
C339 C 0.44528 0.92536 0.50541 0.0
C340 C 0.39719 0.88422 0.52878 0.0
C341 C 0.41198 0.86599 0.53429 0.0
C342 C 0.44459 0.87937 0.52755 0.0
C343 C 0.46098 0.90862 0.51305 0.0
C344 C 0.34441 0.78947 0.56619 0.0
C345 C 0.34956 0.76623 0.5532 0.0
C346 C 0.36575 0.82192 0.56162 0.0
C347 C 0.39249 0.83194 0.54355 0.0
C348 C 0.39845 0.80858 0.53184 0.0
C349 C 0.37735 0.77612 0.53679 0.0
H350 H 0.59479 0.46464 0.65602 0.0
H351 H 0.49951 0.3988 0.68626 0.0
H352 H 0.61502 0.43499 0.68184 0.0
H353 H 0.52021 0.37098 0.71469 0.0
H354 H 0.55291 0.29721 0.71044 0.0
H355 H 0.53425 0.33427 0.70168 0.0
H356 H 0.62897 0.41317 0.71893 0.0
H357 H 0.64805 0.37549 0.72584 0.0
C358 C 0.57827 0.44438 0.66897 0.0
C359 C 0.5453 0.43338 0.66803 0.0
C360 C 0.58999 0.42747 0.68421 0.0
C361 C 0.56914 0.39962 0.69965 0.0
C362 C 0.53686 0.39141 0.70202 0.0
C363 C 0.52499 0.40784 0.68612 0.0
C364 C 0.56973 0.32246 0.71271 0.0
C365 C 0.60206 0.33341 0.71844 0.0
C366 C 0.55891 0.34392 0.70799 0.0
C367 C 0.57998 0.37707 0.70942 0.0
C368 C 0.61206 0.38794 0.71694 0.0
C369 C 0.62305 0.36636 0.72109 0.0
H370 H 0.15942 0.5866 0.82555 0.0
H371 H 0.13143 0.49114 0.8541 0.0
H372 H 0.2102 0.60675 0.84971 0.0
H373 H 0.18096 0.5117 0.88088 0.0
H374 H 0.28739 0.54501 0.87312 0.0
H375 H 0.2314 0.52628 0.86577 0.0
H376 H 0.24709 0.62031 0.88579 0.0
H377 H 0.30406 0.63949 0.89134 0.0
C378 C 0.16369 0.57001 0.83782 0.0
C379 C 0.1418 0.53705 0.83685 0.0
C380 C 0.19285 0.58168 0.85208 0.0
C381 C 0.20051 0.56076 0.86649 0.0
C382 C 0.17663 0.52842 0.86895 0.0
C383 C 0.14777 0.51663 0.85403 0.0
C384 C 0.27889 0.56166 0.87626 0.0
C385 C 0.30025 0.59384 0.88244 0.0
C386 C 0.24647 0.55079 0.87237 0.0
C387 C 0.23425 0.57165 0.87509 0.0
C388 C 0.2555 0.60357 0.88288 0.0
C389 C 0.2882 0.61462 0.88621 0.0
H390 H 0.60102 0.14811 -0.0025 0.0
H391 H 0.67136 0.12194 0.02065 0.0
H392 H 0.63128 0.19816 0.02251 0.0
H393 H 0.70006 0.17062 0.04852 0.0
H394 H 0.77079 0.27782 0.04316 0.0
H395 H 0.73459 0.22175 0.03525 0.0
H396 H 0.65486 0.23433 0.05832 0.0
H397 H 0.69152 0.29141 0.06408 0.0
C398 C 0.62249 0.15261 0.00878 0.0
C399 C 0.63441 0.13156 0.00601 0.0
C400 C 0.6398 0.18135 0.02358 0.0
C401 C 0.66905 0.18937 0.03681 0.0
C402 C 0.67848 0.16612 0.0375 0.0
C403 C 0.66159 0.13772 0.02197 0.0
C404 C 0.74554 0.26856 0.04683 0.0
C405 C 0.73395 0.28908 0.05383 0.0
C406 C 0.7246 0.23609 0.04262 0.0
C407 C 0.69141 0.22299 0.04595 0.0
C408 C 0.68006 0.2434 0.05477 0.0
C409 C 0.70106 0.27616 0.05826 0.0
H410 H 0.57301 0.6673 0.17433 0.0
H411 H 0.48024 0.58242 0.17289 0.0
H412 H 0.5506 0.69595 0.19859 0.0
H413 H 0.45766 0.61057 0.19855 0.0
H414 H 0.42393 0.68485 0.19284 0.0
H415 H 0.44396 0.64846 0.18421 0.0
H416 H 0.52688 0.7077 0.23648 0.0
H417 H 0.5075 0.7449 0.24364 0.0
C418 C 0.54804 0.65437 0.18046 0.0
C419 C 0.52833 0.62272 0.17163 0.0
C420 C 0.53504 0.67081 0.19439 0.0
C421 C 0.50204 0.65584 0.20015 0.0
C422 C 0.48296 0.62319 0.19377 0.0
C423 C 0.49592 0.60688 0.17943 0.0
C424 C 0.44618 0.68977 0.20284 0.0
C425 C 0.46438 0.71793 0.21852 0.0
C426 C 0.45765 0.66876 0.1981 0.0
C427 C 0.48737 0.67519 0.20935 0.0
C428 C 0.50436 0.7023 0.22681 0.0
C429 C 0.49317 0.72357 0.23108 0.0
H430 H 0.93344 0.56473 0.34338 0.0
H431 H 0.9279 0.47322 0.33786 0.0
H432 H 0.88285 0.54044 0.36895 0.0
H433 H 0.87765 0.44874 0.36466 0.0
H434 H 0.76905 0.41347 0.36034 0.0
H435 H 0.82558 0.43483 0.351 0.0
H436 H 0.84813 0.51431 0.40743 0.0
H437 H 0.79135 0.49356 0.41558 0.0
C438 C 0.92207 0.53962 0.34886 0.0
C439 C 0.93445 0.52082 0.33851 0.0
C440 C 0.8929 0.52555 0.36354 0.0
C441 C 0.87563 0.49237 0.36846 0.0
C442 C 0.88976 0.47417 0.36058 0.0
C443 C 0.91874 0.48821 0.34556 0.0
C444 C 0.78612 0.43519 0.37116 0.0
C445 C 0.77574 0.45208 0.38832 0.0
C446 C 0.81868 0.44742 0.36597 0.0
C447 C 0.84166 0.47662 0.37818 0.0
C448 C 0.8312 0.49221 0.39708 0.0
C449 C 0.79863 0.48022 0.4019 0.0
H450 H 0.1188 0.6509 0.37192 0.0
H451 H 0.11831 0.56326 0.35465 0.0
H452 H 0.15255 0.66008 0.41397 0.0
H453 H 0.15058 0.57116 0.39767 0.0
H454 H 0.20111 0.6606 0.49765 0.0
H455 H 0.16065 0.64699 0.46061 0.0
H456 H 0.2043 0.60431 0.40961 0.0
H457 H 0.24361 0.61646 0.44738 0.0
C458 C 0.12492 0.63297 0.37794 0.0
C459 C 0.11602 0.60637 0.36033 0.0
C460 C 0.14432 0.6382 0.40199 0.0
C461 C 0.15484 0.61665 0.40901 0.0
C462 C 0.14375 0.58874 0.39246 0.0
C463 C 0.12485 0.58387 0.36813 0.0
C464 C 0.20211 0.64846 0.47842 0.0
C465 C 0.22555 0.63964 0.47536 0.0
C466 C 0.1789 0.64064 0.45716 0.0
C467 C 0.17892 0.62428 0.43215 0.0
C468 C 0.20289 0.61611 0.4289 0.0
C469 C 0.22574 0.62344 0.45038 0.0
H470 H 0.50811 0.10976 0.53527 0.0
H471 H 0.59832 0.11661 0.5152 0.0
H472 H 0.5317 0.14376 0.57695 0.0
H473 H 0.62192 0.14908 0.55823 0.0
H474 H 0.66434 0.23883 0.61342 0.0
H475 H 0.64024 0.20064 0.57417 0.0
H476 H 0.55197 0.15151 0.62262 0.0
H477 H 0.57545 0.19098 0.66052 0.0
C478 C 0.53276 0.11759 0.54058 0.0
C479 C 0.55141 0.11047 0.52231 0.0
C480 C 0.54641 0.13716 0.5645 0.0
C481 C 0.57894 0.14956 0.57104 0.0
C482 C 0.59706 0.14073 0.55355 0.0
C483 C 0.58351 0.12171 0.52919 0.0
C484 C 0.63969 0.21999 0.61538 0.0
C485 C 0.62161 0.21812 0.63973 0.0
C486 C 0.62593 0.19779 0.5931 0.0
C487 C 0.59403 0.17275 0.59508 0.0
C488 C 0.57628 0.17076 0.61983 0.0
C489 C 0.58977 0.19339 0.64167 0.0
H490 H 0.43793 0.49537 0.70834 0.0
H491 H 0.49936 0.58832 0.67098 0.0
H492 H 0.43222 0.52043 0.75171 0.0
H493 H 0.49219 0.61337 0.71346 0.0
H494 H 0.48712 0.65108 0.80106 0.0
H495 H 0.50076 0.6254 0.76308 0.0
H496 H 0.40341 0.54709 0.76264 0.0
H497 H 0.39013 0.5722 0.80146 0.0
C498 C 0.45081 0.52116 0.70965 0.0
C499 C 0.46882 0.53989 0.68614 0.0
C500 C 0.44707 0.53553 0.73429 0.0
C501 C 0.4611 0.56891 0.73582 0.0
C502 C 0.48104 0.58763 0.71313 0.0
C503 C 0.485 0.57328 0.68866 0.0
C504 C 0.46858 0.62846 0.79275 0.0
C505 C 0.4375 0.61374 0.80419 0.0
C506 C 0.47642 0.6137 0.77097 0.0
C507 C 0.45327 0.58405 0.75989 0.0
C508 C 0.42206 0.56955 0.77112 0.0
C509 C 0.41432 0.58414 0.79313 0.0
H510 H 0.95063 0.49934 0.84921 0.0
H511 H 0.95874 0.41728 0.87196 0.0
H512 H 0.9183 0.49128 0.8923 0.0
H513 H 0.92494 0.40772 0.91383 0.0
H514 H 0.8766 0.40575 -0.00318 0.0
H515 H 0.91654 0.42122 0.95911 0.0
H516 H 0.86649 0.45729 0.90792 0.0
H517 H 0.82779 0.44366 0.94675 0.0
C518 C 0.94589 0.47992 0.86382 0.0
C519 C 0.95733 0.45912 0.85759 0.0
C520 C 0.92695 0.47491 0.88822 0.0
C521 C 0.91843 0.44849 0.90645 0.0
C522 C 0.93124 0.42859 0.90072 0.0
C523 C 0.9507 0.43404 0.87669 0.0
C524 C 0.8741 0.41686 -0.02258 0.0
C525 C 0.84898 0.4233 -0.02541 0.0
C526 C 0.89701 0.42573 0.95571 0.0
C527 C 0.89493 0.44056 0.93029 0.0
C528 C 0.86944 0.44663 0.9274 0.0
C529 C 0.84695 0.43843 0.94947 0.0
H530 H 0.57177 0.96143 0.04468 0.0
H531 H 0.47851 0.92823 0.00763 0.0
H532 H 0.54701 0.93041 0.08825 0.0
H533 H 0.4538 0.89575 0.0502 0.0
H534 H 0.41565 0.85235 0.13732 0.0
H535 H 0.4414 0.89205 0.09948 0.0
H536 H 0.5212 0.87531 0.10024 0.0
H537 H 0.49599 0.83659 0.1391 0.0
C538 C 0.54597 0.94806 0.0461 0.0
C539 C 0.52708 0.94699 0.02263 0.0
C540 C 0.53177 0.9298 0.07084 0.0
C541 C 0.49842 0.90997 0.07252 0.0
C542 C 0.47952 0.91074 0.04981 0.0
C543 C 0.49369 0.92921 0.02526 0.0
C544 C 0.43864 0.85704 0.12933 0.0
C545 C 0.4537 0.84117 0.14107 0.0
C546 C 0.45343 0.87985 0.1076 0.0
C547 C 0.48346 0.88703 0.0968 0.0
C548 C 0.49841 0.87094 0.10845 0.0
C549 C 0.48378 0.84842 0.13047 0.0
H550 H 0.65821 0.56645 0.20564 0.0
H551 H 0.57159 0.47793 0.18904 0.0
H552 H 0.66897 0.54251 0.2474 0.0
H553 H 0.58115 0.45415 0.23168 0.0
H554 H 0.62923 0.4085 0.28021 0.0
H555 H 0.61618 0.43523 0.24261 0.0
H556 H 0.65652 0.52089 0.29427 0.0
H557 H 0.67092 0.4945 0.33124 0.0
C558 C 0.64084 0.54222 0.21174 0.0
C559 C 0.61407 0.52396 0.19439 0.0
C560 C 0.64699 0.5284 0.2356 0.0
C561 C 0.62624 0.49615 0.24265 0.0
C562 C 0.59814 0.47874 0.22641 0.0
C563 C 0.59231 0.49242 0.20231 0.0
C564 C 0.63554 0.43312 0.2834 0.0
C565 C 0.6512 0.44942 0.30861 0.0
C566 C 0.62769 0.44837 0.26201 0.0
C567 C 0.63483 0.48014 0.26553 0.0
C568 C 0.65089 0.49654 0.29066 0.0
C569 C 0.65917 0.48141 0.31187 0.0
H570 H 0.51107 0.9409 0.4107 0.0
H571 H 0.42867 0.94898 0.38939 0.0
H572 H 0.50251 0.90865 0.36758 0.0
H573 H 0.41853 0.91521 0.34763 0.0
H574 H 0.41497 0.86742 0.26453 0.0
H575 H 0.43135 0.90718 0.30221 0.0
H576 H 0.46891 0.8572 0.35154 0.0
H577 H 0.45447 0.81873 0.31251 0.0
C578 C 0.49146 0.93614 0.39641 0.0
C579 C 0.47074 0.94762 0.40299 0.0
C580 C 0.48616 0.91725 0.37199 0.0
C581 C 0.45952 0.90879 0.35416 0.0
C582 C 0.43962 0.92151 0.36036 0.0
C583 C 0.44538 0.94096 0.38434 0.0
C584 C 0.42661 0.8649 0.28352 0.0
C585 C 0.43317 0.83983 0.28579 0.0
C586 C 0.43599 0.8877 0.30523 0.0
C587 C 0.45139 0.88553 0.33018 0.0
C588 C 0.45773 0.86019 0.33246 0.0
C589 C 0.44909 0.83782 0.3103 0.0
H590 H 0.49867 0.40694 0.5521 0.0
H591 H 0.58786 0.49259 0.56939 0.0
H592 H 0.52252 0.39599 0.51053 0.0
H593 H 0.61159 0.48285 0.52692 0.0
H594 H 0.57046 0.39397 0.42687 0.0
H595 H 0.54433 0.40849 0.46385 0.0
H596 H 0.62991 0.44749 0.51584 0.0
H597 H 0.6564 0.43437 0.4782 0.0
C598 C 0.52306 0.42407 0.5462 0.0
C599 C 0.5415 0.45061 0.5637 0.0
C600 C 0.53682 0.4178 0.52245 0.0
C601 C 0.56922 0.43823 0.51562 0.0
C602 C 0.58687 0.46611 0.53202 0.0
C603 C 0.57323 0.47204 0.55603 0.0
C604 C 0.58358 0.40544 0.44632 0.0
C605 C 0.61549 0.41303 0.44966 0.0
C606 C 0.5686 0.41379 0.46754 0.0
C607 C 0.58506 0.42952 0.49276 0.0
C608 C 0.61672 0.43625 0.49637 0.0
C609 C 0.63183 0.42834 0.47497 0.0
H610 H 0.12196 0.57996 0.73928 0.0
H611 H 0.11977 0.4916 0.72147 0.0
H612 H 0.15468 0.60402 0.69633 0.0
H613 H 0.15393 0.51579 0.67953 0.0
H614 H 0.20243 0.56278 0.59566 0.0
H615 H 0.1623 0.53691 0.63311 0.0
H616 H 0.208 0.62355 0.68348 0.0
H617 H 0.24706 0.64985 0.64515 0.0
C618 C 0.128 0.56558 0.72569 0.0
C619 C 0.11824 0.53396 0.73332 0.0
C620 C 0.14718 0.57942 0.70141 0.0
C621 C 0.1576 0.56211 0.6847 0.0
C622 C 0.14623 0.52984 0.6916 0.0
C623 C 0.12655 0.51586 0.71558 0.0
C624 C 0.20401 0.57623 0.61483 0.0
C625 C 0.22796 0.60833 0.61753 0.0
C626 C 0.18096 0.56137 0.63636 0.0
C627 C 0.18164 0.5781 0.66135 0.0
C628 C 0.20611 0.61008 0.66425 0.0
C629 C 0.22882 0.6251 0.64246 0.0
H630 H 0.63809 0.09515 0.88095 0.0
H631 H 0.5768 0.12718 0.91725 0.0
H632 H 0.64433 0.12604 0.83731 0.0
H633 H 0.58458 0.15957 0.87462 0.0
H634 H 0.59072 0.20365 0.78773 0.0
H635 H 0.5765 0.16364 0.82533 0.0
H636 H 0.67333 0.18109 0.82548 0.0
H637 H 0.6871 0.22009 0.78686 0.0
C638 C 0.62538 0.10822 0.87935 0.0
C639 C 0.60723 0.10903 0.90264 0.0
C640 C 0.62943 0.12641 0.85456 0.0
C641 C 0.6156 0.14593 0.85267 0.0
C642 C 0.59557 0.14484 0.87517 0.0
C643 C 0.59126 0.12642 0.89975 0.0
C644 C 0.60901 0.19904 0.79588 0.0
C645 C 0.64011 0.2152 0.78446 0.0
C646 C 0.60085 0.17605 0.81746 0.0
C647 C 0.6237 0.16898 0.82845 0.0
C648 C 0.65489 0.18535 0.81712 0.0
C649 C 0.66293 0.20803 0.79523 0.0
H650 H 0.47817 0.55515 0.07797 0.0
H651 H 0.56813 0.63774 0.0555 0.0
H652 H 0.4542 0.5622 0.03412 0.0
H653 H 0.5442 0.64639 0.01301 0.0
H654 H 0.41163 0.60822 -0.02372 0.0
H655 H 0.43559 0.59452 0.01616 0.0
H656 H 0.52374 0.63229 0.9677 0.0
H657 H 0.50043 0.64801 0.92922 0.0
C658 C 0.49285 0.57449 0.0633 0.0
C659 C 0.525 0.59566 0.06974 0.0
C660 C 0.47909 0.57891 0.03844 0.0
C661 C 0.49705 0.60512 0.02 0.0
C662 C 0.5296 0.62556 0.02617 0.0
C663 C 0.54346 0.62067 0.05058 0.0
C664 C 0.4362 0.61374 -0.02556 0.0
C665 C 0.45437 0.62964 0.94999 0.0
C666 C 0.44989 0.60555 -0.00291 0.0
C667 C 0.48178 0.61231 -0.00464 0.0
C668 C 0.49948 0.62742 0.97034 0.0
C669 C 0.48609 0.63639 0.94816 0.0
H670 H 0.95592 0.56294 0.22194 0.0
H671 H 0.95101 0.4738 0.24301 0.0
H672 H 0.92234 0.53865 0.18003 0.0
H673 H 0.9189 0.44956 0.19991 0.0
H674 H 0.82833 0.40511 0.14597 0.0
H675 H 0.8667 0.43059 0.18482 0.0
H676 H 0.91471 0.51752 0.13436 0.0
H677 H 0.87505 0.49254 0.09656 0.0
C678 C 0.94861 0.5384 0.21684 0.0
C679 C 0.95607 0.52021 0.23548 0.0
C680 C 0.92929 0.52436 0.1928 0.0
C681 C 0.91745 0.49191 0.18661 0.0
C682 C 0.92679 0.47433 0.20437 0.0
C683 C 0.94558 0.48826 0.22879 0.0
C684 C 0.84696 0.42975 0.14341 0.0
C685 C 0.84852 0.44696 0.11846 0.0
C686 C 0.86927 0.4443 0.16549 0.0
C687 C 0.8941 0.47617 0.16279 0.0
C688 C 0.89568 0.49319 0.13757 0.0
C689 C 0.87294 0.47886 0.11583 0.0
loop_
_geom_bond_atom_site_label_1
_geom_bond_atom_site_label_2
_geom_bond_distance
_geom_bond_site_symmetry_2
_ccdc_geom_bond_type
H0 C8 0.930 . S
H1 C11 0.930 . S
H2 C13 0.930 . S
H3 C14 0.970 . S
H4 C14 0.970 . S
H5 C16 0.930 . S
H6 C18 0.930 . S
H7 C20 0.930 . S
C8 H0 0.930 . S
C8 C9 1.382 . S
C8 C10 1.426 . S
C9 C8 1.382 . S
C9 C13 1.389 . S
C10 C8 1.426 . S
C10 C11 1.375 . S
C10 C14 1.532 1_655 S
C11 H1 0.930 . S
C11 C10 1.375 . S
C11 C12 1.416 . S
C12 C11 1.416 . S
C12 C13 1.371 . S
C13 H2 0.930 . S
C13 C9 1.389 . S
C13 C12 1.371 . S
C14 H3 0.970 . S
C14 H4 0.970 . S
C14 C10 1.532 1_455 S
C14 C15 1.499 . S
C15 C14 1.499 . S
C15 C16 1.370 . S
C15 C20 1.415 . S
C16 H5 0.930 . S
C16 C15 1.370 . S
C16 C17 1.407 . S
C17 C16 1.407 . S
C17 C18 1.365 . S
C18 H6 0.930 . S
C18 C17 1.365 . S
C18 C19 1.393 . S
C19 C18 1.393 . S
C19 C20 1.387 . S
C20 H7 0.930 . S
C20 C15 1.415 . S
C20 C19 1.387 . S
H21 C29 0.930 . S
H22 C32 0.930 . S
H23 C34 0.930 . S
H24 C35 0.970 . S
H25 C35 0.970 . S
H26 C37 0.930 . S
H27 C39 0.930 . S
H28 C41 0.930 . S
C29 H21 0.930 . S
C29 C30 1.382 . S
C29 C31 1.426 . S
C30 C29 1.382 . S
C30 C34 1.389 . S
C31 C29 1.426 . S
C31 C32 1.375 . S
C31 C35 1.532 1_565 S
C32 H22 0.930 . S
C32 C31 1.375 . S
C32 C33 1.416 . S
C33 C32 1.416 . S
C33 C34 1.371 . S
C34 H23 0.930 . S
C34 C30 1.389 . S
C34 C33 1.371 . S
C35 H24 0.970 . S
C35 H25 0.970 . S
C35 C31 1.532 1_545 S
C35 C36 1.499 . S
C36 C35 1.499 . S
C36 C37 1.370 . S
C36 C41 1.415 . S
C37 H26 0.930 . S
C37 C36 1.370 . S
C37 C38 1.407 . S
C38 C37 1.407 . S
C38 C39 1.365 . S
C39 H27 0.930 . S
C39 C38 1.365 . S
C39 C40 1.393 . S
C40 C39 1.393 . S
C40 C41 1.387 . S
C41 H28 0.930 . S
C41 C36 1.415 . S
C41 C40 1.387 . S
H42 C50 0.930 . S
H43 C53 0.930 . S
H44 C55 0.930 . S
H45 C56 0.970 . S
H46 C56 0.970 . S
H47 C58 0.930 . S
H48 C60 0.930 . S
H49 C62 0.930 . S
C50 H42 0.930 . S
C50 C51 1.382 . S
C50 C52 1.426 . S
C51 C50 1.382 . S
C51 C55 1.389 . S
C52 C50 1.426 . S
C52 C53 1.375 . S
C52 C56 1.532 . S
C53 H43 0.930 . S
C53 C52 1.375 . S
C53 C54 1.416 . S
C54 C53 1.416 . S
C54 C55 1.371 . S
C55 H44 0.930 . S
C55 C51 1.389 . S
C55 C54 1.371 . S
C56 H45 0.970 . S
C56 H46 0.970 . S
C56 C52 1.532 . S
C56 C57 1.499 . S
C57 C56 1.499 . S
C57 C58 1.370 . S
C57 C62 1.415 . S
C58 H47 0.930 . S
C58 C57 1.370 . S
C58 C59 1.407 . S
C59 C58 1.407 . S
C59 C60 1.365 . S
C60 H48 0.930 . S
C60 C59 1.365 . S
C60 C61 1.393 . S
C61 C60 1.393 . S
C61 C62 1.387 . S
C62 H49 0.930 . S
C62 C57 1.415 . S
C62 C61 1.387 . S
H63 C71 0.930 . S
H64 C74 0.930 . S
H65 C76 0.930 . S
H66 C77 0.970 . S
H67 C77 0.970 . S
H68 C79 0.930 . S
H69 C81 0.930 . S
H70 C83 0.930 . S
C71 H63 0.930 . S
C71 C72 1.382 . S
C71 C73 1.426 . S
C72 C71 1.382 . S
C72 C76 1.389 . S
C73 C71 1.426 . S
C73 C74 1.375 . S
C73 C77 1.532 1_655 S
C74 H64 0.930 . S
C74 C73 1.375 . S
C74 C75 1.416 . S
C75 C74 1.416 . S
C75 C76 1.371 . S
C76 H65 0.930 . S
C76 C72 1.389 . S
C76 C75 1.371 . S
C77 H66 0.970 . S
C77 H67 0.970 . S
C77 C73 1.532 1_455 S
C77 C78 1.499 . S
C78 C77 1.499 . S
C78 C79 1.370 . S
C78 C83 1.415 . S
C79 H68 0.930 . S
C79 C78 1.370 . S
C79 C80 1.407 . S
C80 C79 1.407 . S
C80 C81 1.365 . S
C81 H69 0.930 . S
C81 C80 1.365 . S
C81 C82 1.393 . S
C82 C81 1.393 . S
C82 C83 1.387 . S
C83 H70 0.930 . S
C83 C78 1.415 . S
C83 C82 1.387 . S
H84 C92 0.930 . S
H85 C95 0.930 . S
H86 C97 0.930 . S
H87 C98 0.970 1_554 S
H88 C98 0.970 . S
H89 C100 0.930 . S
H90 C102 0.930 . S
H91 C104 0.930 . S
C92 H84 0.930 . S
C92 C93 1.377 1_554 S
C92 C94 1.426 1_554 S
C93 C92 1.377 1_556 S
C93 C97 1.407 . S
C94 C92 1.426 1_556 S
C94 C95 1.375 . S
C94 C98 1.532 . S
C95 H85 0.930 . S
C95 C94 1.375 . S
C95 C96 1.416 . S
C96 C95 1.416 . S
C96 C97 1.371 . S
C97 H86 0.930 . S
C97 C93 1.407 . S
C97 C96 1.371 . S
C98 H87 0.970 1_556 S
C98 H88 0.970 . S
C98 C94 1.532 . S
C98 C99 1.504 1_545 S
C99 C98 1.504 1_565 S
C99 C100 1.349 1_556 S
C99 C104 1.432 . S
C100 H89 0.930 . S
C100 C99 1.349 1_554 S
C100 C101 1.407 . S
C101 C100 1.407 . S
C101 C102 1.365 . S
C102 H90 0.930 . S
C102 C101 1.365 . S
C102 C103 1.393 1_554 S
C103 C102 1.393 1_556 S
C103 C104 1.387 . S
C104 H91 0.930 . S
C104 C99 1.432 . S
C104 C103 1.387 . S
H105 C113 0.930 . S
H106 C116 0.930 . S
H107 C118 0.930 . S
H108 C119 0.970 . S
H109 C119 0.970 . S
H110 C121 0.930 . S
H111 C123 0.930 . S
H112 C125 0.930 . S
C113 H105 0.930 . S
C113 C114 1.382 . S
C113 C115 1.426 . S
C114 C113 1.382 . S
C114 C118 1.389 . S
C115 C113 1.426 . S
C115 C116 1.375 . S
C115 C119 1.532 . S
C116 H106 0.930 . S
C116 C115 1.375 . S
C116 C117 1.416 . S
C117 C116 1.416 . S
C117 C118 1.371 . S
C118 H107 0.930 . S
C118 C114 1.389 . S
C118 C117 1.371 . S
C119 H108 0.970 . S
C119 H109 0.970 . S
C119 C115 1.532 . S
C119 C120 1.499 . S
C120 C119 1.499 . S
C120 C121 1.370 . S
C120 C125 1.415 . S
C121 H110 0.930 . S
C121 C120 1.370 . S
C121 C122 1.407 . S
C122 C121 1.407 . S
C122 C123 1.365 . S
C123 H111 0.930 . S
C123 C122 1.365 . S
C123 C124 1.393 . S
C124 C123 1.393 . S
C124 C125 1.387 . S
C125 H112 0.930 . S
C125 C120 1.415 . S
C125 C124 1.387 . S
O126 Cd127 2.223 . S
O126 C134 1.315 . S
Cd127 O126 2.223 . S
Cd127 O130 2.297 . S
Cd127 O131 2.439 . S
Cd127 O137 2.240 . S
Cd128 O129 2.240 . S
Cd128 O136 2.223 . S
Cd128 O138 2.297 . S
Cd128 O139 2.439 . S
O129 Cd128 2.240 . S
O129 C134 1.279 . S
O130 Cd127 2.297 . S
O130 C132 1.247 . S
O131 Cd127 2.439 . S
O131 C132 1.208 . S
C132 O130 1.247 . S
C132 O131 1.208 . S
C133 O138 1.247 . S
C133 O139 1.208 . S
C134 O126 1.315 . S
C134 O129 1.279 . S
C135 O136 1.315 . S
C135 O137 1.279 . S
O136 Cd128 2.223 . S
O136 C135 1.315 . S
O137 Cd127 2.240 . S
O137 C135 1.279 . S
O138 Cd128 2.297 . S
O138 C133 1.247 . S
O139 Cd128 2.439 . S
O139 C133 1.208 . S
O140 Cd141 2.223 . S
O140 C148 1.315 . S
Cd141 O140 2.223 . S
Cd141 O144 2.297 . S
Cd141 O145 2.439 . S
Cd141 O151 2.240 . S
Cd142 O143 2.240 . S
Cd142 O150 2.223 . S
Cd142 O152 2.297 . S
Cd142 O153 2.439 . S
O143 Cd142 2.240 . S
O143 C148 1.279 . S
O144 Cd141 2.297 . S
O144 C146 1.247 . S
O145 Cd141 2.439 . S
O145 C146 1.208 . S
C146 O144 1.247 . S
C146 O145 1.208 . S
C147 O152 1.247 . S
C147 O153 1.208 . S
C148 O140 1.315 . S
C148 O143 1.279 . S
C149 O150 1.315 . S
C149 O151 1.279 . S
O150 Cd142 2.223 . S
O150 C149 1.315 . S
O151 Cd141 2.240 . S
O151 C149 1.279 . S
O152 Cd142 2.297 . S
O152 C147 1.247 . S
O153 Cd142 2.439 . S
O153 C147 1.208 . S
O154 Cd155 2.223 . S
O154 C162 1.315 . S
Cd155 O154 2.223 . S
Cd155 O158 2.297 . S
Cd155 O159 2.439 . S
Cd155 O165 2.240 . S
Cd156 O157 2.240 . S
Cd156 O164 2.223 . S
Cd156 O166 2.297 . S
Cd156 O167 2.439 . S
O157 Cd156 2.240 . S
O157 C162 1.279 . S
O158 Cd155 2.297 . S
O158 C160 1.247 . S
O159 Cd155 2.439 . S
O159 C160 1.208 . S
C160 O158 1.247 . S
C160 O159 1.208 . S
C161 O166 1.247 . S
C161 O167 1.208 . S
C162 O154 1.315 . S
C162 O157 1.279 . S
C163 O164 1.315 . S
C163 O165 1.279 . S
O164 Cd156 2.223 . S
O164 C163 1.315 . S
O165 Cd155 2.240 . S
O165 C163 1.279 . S
O166 Cd156 2.297 . S
O166 C161 1.247 . S
O167 Cd156 2.439 . S
O167 C161 1.208 . S
O168 Cd169 2.223 . S
O168 C176 1.315 . S
Cd169 O168 2.223 . S
Cd169 O172 2.297 . S
Cd169 O173 2.439 . S
Cd169 O179 2.240 . S
Cd170 O171 2.240 . S
Cd170 O178 2.223 . S
Cd170 O180 2.297 . S
Cd170 O181 2.439 . S
O171 Cd170 2.240 . S
O171 C176 1.279 . S
O172 Cd169 2.297 . S
O172 C174 1.247 . S
O173 Cd169 2.439 . S
O173 C174 1.208 . S
C174 O172 1.247 . S
C174 O173 1.208 . S
C175 O180 1.247 . S
C175 O181 1.208 . S
C176 O168 1.315 . S
C176 O171 1.279 . S
C177 O178 1.315 . S
C177 O179 1.279 . S
O178 Cd170 2.223 . S
O178 C177 1.315 . S
O179 Cd169 2.240 . S
O179 C177 1.279 . S
O180 Cd170 2.297 . S
O180 C175 1.247 . S
O181 Cd170 2.439 . S
O181 C175 1.208 . S
O182 Cd183 2.223 . S
O182 C190 1.315 . S
Cd183 O182 2.223 . S
Cd183 O186 2.297 . S
Cd183 O187 2.439 . S
Cd183 O193 2.240 . S
Cd184 O185 2.240 . S
Cd184 O192 2.223 . S
Cd184 O194 2.297 . S
Cd184 O195 2.439 . S
O185 Cd184 2.240 . S
O185 C190 1.279 . S
O186 Cd183 2.297 . S
O186 C188 1.247 . S
O187 Cd183 2.439 . S
O187 C188 1.208 . S
C188 O186 1.247 . S
C188 O187 1.208 . S
C189 O194 1.247 . S
C189 O195 1.208 . S
C190 O182 1.315 . S
C190 O185 1.279 . S
C191 O192 1.315 . S
C191 O193 1.279 . S
O192 Cd184 2.223 . S
O192 C191 1.315 . S
O193 Cd183 2.240 . S
O193 C191 1.279 . S
O194 Cd184 2.297 . S
O194 C189 1.247 . S
O195 Cd184 2.439 . S
O195 C189 1.208 . S
O196 Cd197 2.223 . S
O196 C204 1.315 . S
Cd197 O196 2.223 . S
Cd197 O200 2.297 . S
Cd197 O201 2.439 . S
Cd197 O207 2.240 . S
Cd198 O199 2.240 . S
Cd198 O206 2.223 . S
Cd198 O208 2.297 . S
Cd198 O209 2.439 . S
O199 Cd198 2.240 . S
O199 C204 1.279 . S
O200 Cd197 2.297 . S
O200 C202 1.247 . S
O201 Cd197 2.439 . S
O201 C202 1.208 . S
C202 O200 1.247 . S
C202 O201 1.208 . S
C203 O208 1.247 . S
C203 O209 1.208 . S
C204 O196 1.315 . S
C204 O199 1.279 . S
C205 O206 1.315 . S
C205 O207 1.279 . S
O206 Cd198 2.223 . S
O206 C205 1.315 . S
O207 Cd197 2.240 . S
O207 C205 1.279 . S
O208 Cd198 2.297 . S
O208 C203 1.247 . S
O209 Cd198 2.439 . S
O209 C203 1.208 . S
H210 C218 0.950 . S
H211 C223 0.950 . S
H212 C220 0.950 . S
H213 C222 0.950 . S
H214 C224 0.950 . S
H215 C226 0.950 . S
H216 C228 0.950 . S
H217 C229 0.950 . S
C218 H210 0.950 . S
C218 C219 1.386 . S
C218 C220 1.391 . S
C219 C218 1.386 . S
C219 C223 1.393 . S
C220 H212 0.950 . S
C220 C218 1.391 . S
C220 C221 1.400 . S
C221 C220 1.400 . S
C221 C222 1.398 . S
C221 C227 1.491 . S
C222 H213 0.950 . S
C222 C221 1.398 . S
C222 C223 1.391 . S
C223 H211 0.950 . S
C223 C219 1.393 . S
C223 C222 1.391 . S
C224 H214 0.950 . S
C224 C225 1.386 . S
C224 C226 1.391 . S
C225 C224 1.386 . S
C225 C229 1.393 . S
C226 H215 0.950 . S
C226 C224 1.391 . S
C226 C227 1.400 . S
C227 C221 1.491 . S
C227 C226 1.400 . S
C227 C228 1.398 . S
C228 H216 0.950 . S
C228 C227 1.398 . S
C228 C229 1.391 . S
C229 H217 0.950 . S
C229 C225 1.393 . S
C229 C228 1.391 . S
H230 C238 0.950 . S
H231 C243 0.950 . S
H232 C240 0.950 . S
H233 C242 0.950 . S
H234 C244 0.950 . S
H235 C246 0.950 . S
H236 C248 0.950 . S
H237 C249 0.950 . S
C238 H230 0.950 . S
C238 C239 1.386 . S
C238 C240 1.391 . S
C239 C238 1.386 . S
C239 C243 1.393 . S
C240 H232 0.950 . S
C240 C238 1.391 . S
C240 C241 1.400 . S
C241 C240 1.400 . S
C241 C242 1.398 . S
C241 C247 1.491 . S
C242 H233 0.950 . S
C242 C241 1.398 . S
C242 C243 1.391 . S
C243 H231 0.950 . S
C243 C239 1.393 . S
C243 C242 1.391 . S
C244 H234 0.950 . S
C244 C245 1.386 . S
C244 C246 1.391 . S
C245 C244 1.386 . S
C245 C249 1.393 . S
C246 H235 0.950 . S
C246 C244 1.391 . S
C246 C247 1.400 . S
C247 C241 1.491 . S
C247 C246 1.400 . S
C247 C248 1.398 . S
C248 H236 0.950 . S
C248 C247 1.398 . S
C248 C249 1.391 . S
C249 H237 0.950 . S
C249 C245 1.393 . S
C249 C248 1.391 . S
H250 C258 0.950 . S
H251 C263 0.950 . S
H252 C260 0.950 . S
H253 C262 0.950 . S
H254 C264 0.950 . S
H255 C266 0.950 . S
H256 C268 0.950 . S
H257 C269 0.950 . S
C258 H250 0.950 . S
C258 C259 1.386 . S
C258 C260 1.391 . S
C259 C258 1.386 . S
C259 C263 1.393 . S
C260 H252 0.950 . S
C260 C258 1.391 . S
C260 C261 1.400 . S
C261 C260 1.400 . S
C261 C262 1.398 . S
C261 C267 1.491 . S
C262 H253 0.950 . S
C262 C261 1.398 . S
C262 C263 1.391 . S
C263 H251 0.950 . S
C263 C259 1.393 . S
C263 C262 1.391 . S
C264 H254 0.950 . S
C264 C265 1.386 . S
C264 C266 1.391 . S
C265 C264 1.386 . S
C265 C269 1.393 . S
C266 H255 0.950 . S
C266 C264 1.391 . S
C266 C267 1.400 . S
C267 C261 1.491 . S
C267 C266 1.400 . S
C267 C268 1.398 . S
C268 H256 0.950 . S
C268 C267 1.398 . S
C268 C269 1.391 . S
C269 H257 0.950 . S
C269 C265 1.393 . S
C269 C268 1.391 . S
H270 C278 0.950 . S
H271 C283 0.950 . S
H272 C280 0.950 . S
H273 C282 0.950 . S
H274 C284 0.950 . S
H275 C286 0.950 . S
H276 C288 0.950 . S
H277 C289 0.950 . S
C278 H270 0.950 . S
C278 C279 1.386 . S
C278 C280 1.391 . S
C279 C278 1.386 . S
C279 C283 1.393 . S
C280 H272 0.950 . S
C280 C278 1.391 . S
C280 C281 1.400 . S
C281 C280 1.400 . S
C281 C282 1.398 . S
C281 C287 1.491 . S
C282 H273 0.950 . S
C282 C281 1.398 . S
C282 C283 1.391 . S
C283 H271 0.950 . S
C283 C279 1.393 . S
C283 C282 1.391 . S
C284 H274 0.950 . S
C284 C285 1.386 . S
C284 C286 1.391 . S
C285 C284 1.386 . S
C285 C289 1.393 . S
C286 H275 0.950 . S
C286 C284 1.391 . S
C286 C287 1.400 . S
C287 C281 1.491 . S
C287 C286 1.400 . S
C287 C288 1.398 . S
C288 H276 0.950 . S
C288 C287 1.398 . S
C288 C289 1.391 . S
C289 H277 0.950 . S
C289 C285 1.393 . S
C289 C288 1.391 . S
H290 C298 0.950 . S
H291 C303 0.950 . S
H292 C300 0.950 . S
H293 C302 0.950 . S
H294 C304 0.950 . S
H295 C306 0.950 . S
H296 C308 0.950 . S
H297 C309 0.950 . S
C298 H290 0.950 . S
C298 C299 1.386 . S
C298 C300 1.391 . S
C299 C298 1.386 . S
C299 C303 1.393 . S
C300 H292 0.950 . S
C300 C298 1.391 . S
C300 C301 1.400 . S
C301 C300 1.400 . S
C301 C302 1.398 . S
C301 C307 1.491 . S
C302 H293 0.950 . S
C302 C301 1.398 . S
C302 C303 1.391 . S
C303 H291 0.950 . S
C303 C299 1.393 . S
C303 C302 1.391 . S
C304 H294 0.950 . S
C304 C305 1.386 . S
C304 C306 1.391 . S
C305 C304 1.386 . S
C305 C309 1.393 . S
C306 H295 0.950 . S
C306 C304 1.391 . S
C306 C307 1.400 . S
C307 C301 1.491 . S
C307 C306 1.400 . S
C307 C308 1.398 . S
C308 H296 0.950 . S
C308 C307 1.398 . S
C308 C309 1.391 . S
C309 H297 0.950 . S
C309 C305 1.393 . S
C309 C308 1.391 . S
H310 C318 0.950 . S
H311 C323 0.950 . S
H312 C320 0.950 . S
H313 C322 0.950 . S
H314 C324 0.950 . S
H315 C326 0.950 . S
H316 C328 0.950 . S
H317 C329 0.950 . S
C318 H310 0.950 . S
C318 C319 1.386 . S
C318 C320 1.391 . S
C319 C318 1.386 . S
C319 C323 1.393 . S
C320 H312 0.950 . S
C320 C318 1.391 . S
C320 C321 1.400 . S
C321 C320 1.400 . S
C321 C322 1.398 . S
C321 C327 1.491 . S
C322 H313 0.950 . S
C322 C321 1.398 . S
C322 C323 1.391 . S
C323 H311 0.950 . S
C323 C319 1.393 . S
C323 C322 1.391 . S
C324 H314 0.950 . S
C324 C325 1.386 . S
C324 C326 1.391 . S
C325 C324 1.386 . S
C325 C329 1.393 . S
C326 H315 0.950 . S
C326 C324 1.391 . S
C326 C327 1.400 . S
C327 C321 1.491 . S
C327 C326 1.400 . S
C327 C328 1.398 . S
C328 H316 0.950 . S
C328 C327 1.398 . S
C328 C329 1.391 . S
C329 H317 0.950 . S
C329 C325 1.393 . S
C329 C328 1.391 . S
H330 C338 0.950 . S
H331 C343 0.950 . S
H332 C340 0.950 . S
H333 C342 0.950 . S
H334 C344 0.950 . S
H335 C346 0.950 . S
H336 C348 0.950 . S
H337 C349 0.950 . S
C338 H330 0.950 . S
C338 C339 1.386 . S
C338 C340 1.391 . S
C339 C338 1.386 . S
C339 C343 1.393 . S
C340 H332 0.950 . S
C340 C338 1.391 . S
C340 C341 1.400 . S
C341 C340 1.400 . S
C341 C342 1.398 . S
C341 C347 1.491 . S
C342 H333 0.950 . S
C342 C341 1.398 . S
C342 C343 1.391 . S
C343 H331 0.950 . S
C343 C339 1.393 . S
C343 C342 1.391 . S
C344 H334 0.950 . S
C344 C345 1.386 . S
C344 C346 1.391 . S
C345 C344 1.386 . S
C345 C349 1.393 . S
C346 H335 0.950 . S
C346 C344 1.391 . S
C346 C347 1.400 . S
C347 C341 1.491 . S
C347 C346 1.400 . S
C347 C348 1.398 . S
C348 H336 0.950 . S
C348 C347 1.398 . S
C348 C349 1.391 . S
C349 H337 0.950 . S
C349 C345 1.393 . S
C349 C348 1.391 . S
H350 C358 0.950 . S
H351 C363 0.950 . S
H352 C360 0.950 . S
H353 C362 0.950 . S
H354 C364 0.950 . S
H355 C366 0.950 . S
H356 C368 0.950 . S
H357 C369 0.950 . S
C358 H350 0.950 . S
C358 C359 1.386 . S
C358 C360 1.391 . S
C359 C358 1.386 . S
C359 C363 1.393 . S
C360 H352 0.950 . S
C360 C358 1.391 . S
C360 C361 1.400 . S
C361 C360 1.400 . S
C361 C362 1.398 . S
C361 C367 1.491 . S
C362 H353 0.950 . S
C362 C361 1.398 . S
C362 C363 1.391 . S
C363 H351 0.950 . S
C363 C359 1.393 . S
C363 C362 1.391 . S
C364 H354 0.950 . S
C364 C365 1.386 . S
C364 C366 1.391 . S
C365 C364 1.386 . S
C365 C369 1.393 . S
C366 H355 0.950 . S
C366 C364 1.391 . S
C366 C367 1.400 . S
C367 C361 1.491 . S
C367 C366 1.400 . S
C367 C368 1.398 . S
C368 H356 0.950 . S
C368 C367 1.398 . S
C368 C369 1.391 . S
C369 H357 0.950 . S
C369 C365 1.393 . S
C369 C368 1.391 . S
H370 C378 0.950 . S
H371 C383 0.950 . S
H372 C380 0.950 . S
H373 C382 0.950 . S
H374 C384 0.950 . S
H375 C386 0.950 . S
H376 C388 0.950 . S
H377 C389 0.950 . S
C378 H370 0.950 . S
C378 C379 1.386 . S
C378 C380 1.391 . S
C379 C378 1.386 . S
C379 C383 1.393 . S
C380 H372 0.950 . S
C380 C378 1.391 . S
C380 C381 1.400 . S
C381 C380 1.400 . S
C381 C382 1.398 . S
C381 C387 1.491 . S
C382 H373 0.950 . S
C382 C381 1.398 . S
C382 C383 1.391 . S
C383 H371 0.950 . S
C383 C379 1.393 . S
C383 C382 1.391 . S
C384 H374 0.950 . S
C384 C385 1.386 . S
C384 C386 1.391 . S
C385 C384 1.386 . S
C385 C389 1.393 . S
C386 H375 0.950 . S
C386 C384 1.391 . S
C386 C387 1.400 . S
C387 C381 1.491 . S
C387 C386 1.400 . S
C387 C388 1.398 . S
C388 H376 0.950 . S
C388 C387 1.398 . S
C388 C389 1.391 . S
C389 H377 0.950 . S
C389 C385 1.393 . S
C389 C388 1.391 . S
H390 C398 0.950 . S
H391 C403 0.950 . S
H392 C400 0.950 . S
H393 C402 0.950 . S
H394 C404 0.950 . S
H395 C406 0.950 . S
H396 C408 0.950 . S
H397 C409 0.950 . S
C398 H390 0.950 . S
C398 C399 1.386 . S
C398 C400 1.391 . S
C399 C398 1.386 . S
C399 C403 1.393 . S
C400 H392 0.950 . S
C400 C398 1.391 . S
C400 C401 1.400 . S
C401 C400 1.400 . S
C401 C402 1.398 . S
C401 C407 1.491 . S
C402 H393 0.950 . S
C402 C401 1.398 . S
C402 C403 1.391 . S
C403 H391 0.950 . S
C403 C399 1.393 . S
C403 C402 1.391 . S
C404 H394 0.950 . S
C404 C405 1.386 . S
C404 C406 1.391 . S
C405 C404 1.386 . S
C405 C409 1.393 . S
C406 H395 0.950 . S
C406 C404 1.391 . S
C406 C407 1.400 . S
C407 C401 1.491 . S
C407 C406 1.400 . S
C407 C408 1.398 . S
C408 H396 0.950 . S
C408 C407 1.398 . S
C408 C409 1.391 . S
C409 H397 0.950 . S
C409 C405 1.393 . S
C409 C408 1.391 . S
H410 C418 0.950 . S
H411 C423 0.950 . S
H412 C420 0.950 . S
H413 C422 0.950 . S
H414 C424 0.950 . S
H415 C426 0.950 . S
H416 C428 0.950 . S
H417 C429 0.950 . S
C418 H410 0.950 . S
C418 C419 1.386 . S
C418 C420 1.391 . S
C419 C418 1.386 . S
C419 C423 1.393 . S
C420 H412 0.950 . S
C420 C418 1.391 . S
C420 C421 1.400 . S
C421 C420 1.400 . S
C421 C422 1.398 . S
C421 C427 1.491 . S
C422 H413 0.950 . S
C422 C421 1.398 . S
C422 C423 1.391 . S
C423 H411 0.950 . S
C423 C419 1.393 . S
C423 C422 1.391 . S
C424 H414 0.950 . S
C424 C425 1.386 . S
C424 C426 1.391 . S
C425 C424 1.386 . S
C425 C429 1.393 . S
C426 H415 0.950 . S
C426 C424 1.391 . S
C426 C427 1.400 . S
C427 C421 1.491 . S
C427 C426 1.400 . S
C427 C428 1.398 . S
C428 H416 0.950 . S
C428 C427 1.398 . S
C428 C429 1.391 . S
C429 H417 0.950 . S
C429 C425 1.393 . S
C429 C428 1.391 . S
H430 C438 0.950 . S
H431 C443 0.950 . S
H432 C440 0.950 . S
H433 C442 0.950 . S
H434 C444 0.950 . S
H435 C446 0.950 . S
H436 C448 0.950 . S
H437 C449 0.950 . S
C438 H430 0.950 . S
C438 C439 1.386 . S
C438 C440 1.391 . S
C439 C438 1.386 . S
C439 C443 1.393 . S
C440 H432 0.950 . S
C440 C438 1.391 . S
C440 C441 1.400 . S
C441 C440 1.400 . S
C441 C442 1.398 . S
C441 C447 1.491 . S
C442 H433 0.950 . S
C442 C441 1.398 . S
C442 C443 1.391 . S
C443 H431 0.950 . S
C443 C439 1.393 . S
C443 C442 1.391 . S
C444 H434 0.950 . S
C444 C445 1.386 . S
C444 C446 1.391 . S
C445 C444 1.386 . S
C445 C449 1.393 . S
C446 H435 0.950 . S
C446 C444 1.391 . S
C446 C447 1.400 . S
C447 C441 1.491 . S
C447 C446 1.400 . S
C447 C448 1.398 . S
C448 H436 0.950 . S
C448 C447 1.398 . S
C448 C449 1.391 . S
C449 H437 0.950 . S
C449 C445 1.393 . S
C449 C448 1.391 . S
H450 C458 0.950 . S
H451 C463 0.950 . S
H452 C460 0.950 . S
H453 C462 0.950 . S
H454 C464 0.950 . S
H455 C466 0.950 . S
H456 C468 0.950 . S
H457 C469 0.950 . S
C458 H450 0.950 . S
C458 C459 1.386 . S
C458 C460 1.391 . S
C459 C458 1.386 . S
C459 C463 1.393 . S
C460 H452 0.950 . S
C460 C458 1.391 . S
C460 C461 1.400 . S
C461 C460 1.400 . S
C461 C462 1.398 . S
C461 C467 1.491 . S
C462 H453 0.950 . S
C462 C461 1.398 . S
C462 C463 1.391 . S
C463 H451 0.950 . S
C463 C459 1.393 . S
C463 C462 1.391 . S
C464 H454 0.950 . S
C464 C465 1.386 . S
C464 C466 1.391 . S
C465 C464 1.386 . S
C465 C469 1.393 . S
C466 H455 0.950 . S
C466 C464 1.391 . S
C466 C467 1.400 . S
C467 C461 1.491 . S
C467 C466 1.400 . S
C467 C468 1.398 . S
C468 H456 0.950 . S
C468 C467 1.398 . S
C468 C469 1.391 . S
C469 H457 0.950 . S
C469 C465 1.393 . S
C469 C468 1.391 . S
H470 C478 0.950 . S
H471 C483 0.950 . S
H472 C480 0.950 . S
H473 C482 0.950 . S
H474 C484 0.950 . S
H475 C486 0.950 . S
H476 C488 0.950 . S
H477 C489 0.950 . S
C478 H470 0.950 . S
C478 C479 1.386 . S
C478 C480 1.391 . S
C479 C478 1.386 . S
C479 C483 1.393 . S
C480 H472 0.950 . S
C480 C478 1.391 . S
C480 C481 1.400 . S
C481 C480 1.400 . S
C481 C482 1.398 . S
C481 C487 1.491 . S
C482 H473 0.950 . S
C482 C481 1.398 . S
C482 C483 1.391 . S
C483 H471 0.950 . S
C483 C479 1.393 . S
C483 C482 1.391 . S
C484 H474 0.950 . S
C484 C485 1.386 . S
C484 C486 1.391 . S
C485 C484 1.386 . S
C485 C489 1.393 . S
C486 H475 0.950 . S
C486 C484 1.391 . S
C486 C487 1.400 . S
C487 C481 1.491 . S
C487 C486 1.400 . S
C487 C488 1.398 . S
C488 H476 0.950 . S
C488 C487 1.398 . S
C488 C489 1.391 . S
C489 H477 0.950 . S
C489 C485 1.393 . S
C489 C488 1.391 . S
H490 C498 0.950 . S
H491 C503 0.950 . S
H492 C500 0.950 . S
H493 C502 0.950 . S
H494 C504 0.950 . S
H495 C506 0.950 . S
H496 C508 0.950 . S
H497 C509 0.950 . S
C498 H490 0.950 . S
C498 C499 1.386 . S
C498 C500 1.391 . S
C499 C498 1.386 . S
C499 C503 1.393 . S
C500 H492 0.950 . S
C500 C498 1.391 . S
C500 C501 1.400 . S
C501 C500 1.400 . S
C501 C502 1.398 . S
C501 C507 1.491 . S
C502 H493 0.950 . S
C502 C501 1.398 . S
C502 C503 1.391 . S
C503 H491 0.950 . S
C503 C499 1.393 . S
C503 C502 1.391 . S
C504 H494 0.950 . S
C504 C505 1.386 . S
C504 C506 1.391 . S
C505 C504 1.386 . S
C505 C509 1.393 . S
C506 H495 0.950 . S
C506 C504 1.391 . S
C506 C507 1.400 . S
C507 C501 1.491 . S
C507 C506 1.400 . S
C507 C508 1.398 . S
C508 H496 0.950 . S
C508 C507 1.398 . S
C508 C509 1.391 . S
C509 H497 0.950 . S
C509 C505 1.393 . S
C509 C508 1.391 . S
H510 C518 0.950 . S
H511 C523 0.950 . S
H512 C520 0.950 . S
H513 C522 0.950 . S
H514 C524 0.950 . S
H515 C526 0.950 . S
H516 C528 0.950 . S
H517 C529 0.950 . S
C518 H510 0.950 . S
C518 C519 1.386 . S
C518 C520 1.391 . S
C519 C518 1.386 . S
C519 C523 1.393 . S
C520 H512 0.950 . S
C520 C518 1.391 . S
C520 C521 1.400 . S
C521 C520 1.400 . S
C521 C522 1.398 . S
C521 C527 1.491 . S
C522 H513 0.950 . S
C522 C521 1.398 . S
C522 C523 1.391 . S
C523 H511 0.950 . S
C523 C519 1.393 . S
C523 C522 1.391 . S
C524 H514 0.950 . S
C524 C525 1.386 . S
C524 C526 1.391 1_554 S
C525 C524 1.386 . S
C525 C529 1.393 1_554 S
C526 H515 0.950 . S
C526 C524 1.391 1_556 S
C526 C527 1.400 . S
C527 C521 1.491 . S
C527 C526 1.400 . S
C527 C528 1.398 . S
C528 H516 0.950 . S
C528 C527 1.398 . S
C528 C529 1.391 . S
C529 H517 0.950 . S
C529 C525 1.393 1_556 S
C529 C528 1.391 . S
H530 C538 0.950 . S
H531 C543 0.950 . S
H532 C540 0.950 . S
H533 C542 0.950 . S
H534 C544 0.950 . S
H535 C546 0.950 . S
H536 C548 0.950 . S
H537 C549 0.950 . S
C538 H530 0.950 . S
C538 C539 1.386 . S
C538 C540 1.391 . S
C539 C538 1.386 . S
C539 C543 1.393 . S
C540 H532 0.950 . S
C540 C538 1.391 . S
C540 C541 1.400 . S
C541 C540 1.400 . S
C541 C542 1.398 . S
C541 C547 1.491 . S
C542 H533 0.950 . S
C542 C541 1.398 . S
C542 C543 1.391 . S
C543 H531 0.950 . S
C543 C539 1.393 . S
C543 C542 1.391 . S
C544 H534 0.950 . S
C544 C545 1.386 . S
C544 C546 1.391 . S
C545 C544 1.386 . S
C545 C549 1.393 . S
C546 H535 0.950 . S
C546 C544 1.391 . S
C546 C547 1.400 . S
C547 C541 1.491 . S
C547 C546 1.400 . S
C547 C548 1.398 . S
C548 H536 0.950 . S
C548 C547 1.398 . S
C548 C549 1.391 . S
C549 H537 0.950 . S
C549 C545 1.393 . S
C549 C548 1.391 . S
H550 C558 0.950 . S
H551 C563 0.950 . S
H552 C560 0.950 . S
H553 C562 0.950 . S
H554 C564 0.950 . S
H555 C566 0.950 . S
H556 C568 0.950 . S
H557 C569 0.950 . S
C558 H550 0.950 . S
C558 C559 1.386 . S
C558 C560 1.391 . S
C559 C558 1.386 . S
C559 C563 1.393 . S
C560 H552 0.950 . S
C560 C558 1.391 . S
C560 C561 1.400 . S
C561 C560 1.400 . S
C561 C562 1.398 . S
C561 C567 1.491 . S
C562 H553 0.950 . S
C562 C561 1.398 . S
C562 C563 1.391 . S
C563 H551 0.950 . S
C563 C559 1.393 . S
C563 C562 1.391 . S
C564 H554 0.950 . S
C564 C565 1.386 . S
C564 C566 1.391 . S
C565 C564 1.386 . S
C565 C569 1.393 . S
C566 H555 0.950 . S
C566 C564 1.391 . S
C566 C567 1.400 . S
C567 C561 1.491 . S
C567 C566 1.400 . S
C567 C568 1.398 . S
C568 H556 0.950 . S
C568 C567 1.398 . S
C568 C569 1.391 . S
C569 H557 0.950 . S
C569 C565 1.393 . S
C569 C568 1.391 . S
H570 C578 0.950 . S
H571 C583 0.950 . S
H572 C580 0.950 . S
H573 C582 0.950 . S
H574 C584 0.950 . S
H575 C586 0.950 . S
H576 C588 0.950 . S
H577 C589 0.950 . S
C578 H570 0.950 . S
C578 C579 1.386 . S
C578 C580 1.391 . S
C579 C578 1.386 . S
C579 C583 1.393 . S
C580 H572 0.950 . S
C580 C578 1.391 . S
C580 C581 1.400 . S
C581 C580 1.400 . S
C581 C582 1.398 . S
C581 C587 1.491 . S
C582 H573 0.950 . S
C582 C581 1.398 . S
C582 C583 1.391 . S
C583 H571 0.950 . S
C583 C579 1.393 . S
C583 C582 1.391 . S
C584 H574 0.950 . S
C584 C585 1.386 . S
C584 C586 1.391 . S
C585 C584 1.386 . S
C585 C589 1.393 . S
C586 H575 0.950 . S
C586 C584 1.391 . S
C586 C587 1.400 . S
C587 C581 1.491 . S
C587 C586 1.400 . S
C587 C588 1.398 . S
C588 H576 0.950 . S
C588 C587 1.398 . S
C588 C589 1.391 . S
C589 H577 0.950 . S
C589 C585 1.393 . S
C589 C588 1.391 . S
H590 C598 0.950 . S
H591 C603 0.950 . S
H592 C600 0.950 . S
H593 C602 0.950 . S
H594 C604 0.950 . S
H595 C606 0.950 . S
H596 C608 0.950 . S
H597 C609 0.950 . S
C598 H590 0.950 . S
C598 C599 1.386 . S
C598 C600 1.391 . S
C599 C598 1.386 . S
C599 C603 1.393 . S
C600 H592 0.950 . S
C600 C598 1.391 . S
C600 C601 1.400 . S
C601 C600 1.400 . S
C601 C602 1.398 . S
C601 C607 1.491 . S
C602 H593 0.950 . S
C602 C601 1.398 . S
C602 C603 1.391 . S
C603 H591 0.950 . S
C603 C599 1.393 . S
C603 C602 1.391 . S
C604 H594 0.950 . S
C604 C605 1.386 . S
C604 C606 1.391 . S
C605 C604 1.386 . S
C605 C609 1.393 . S
C606 H595 0.950 . S
C606 C604 1.391 . S
C606 C607 1.400 . S
C607 C601 1.491 . S
C607 C606 1.400 . S
C607 C608 1.398 . S
C608 H596 0.950 . S
C608 C607 1.398 . S
C608 C609 1.391 . S
C609 H597 0.950 . S
C609 C605 1.393 . S
C609 C608 1.391 . S
H610 C618 0.950 . S
H611 C623 0.950 . S
H612 C620 0.950 . S
H613 C622 0.950 . S
H614 C624 0.950 . S
H615 C626 0.950 . S
H616 C628 0.950 . S
H617 C629 0.950 . S
C618 H610 0.950 . S
C618 C619 1.386 . S
C618 C620 1.391 . S
C619 C618 1.386 . S
C619 C623 1.393 . S
C620 H612 0.950 . S
C620 C618 1.391 . S
C620 C621 1.400 . S
C621 C620 1.400 . S
C621 C622 1.398 . S
C621 C627 1.491 . S
C622 H613 0.950 . S
C622 C621 1.398 . S
C622 C623 1.391 . S
C623 H611 0.950 . S
C623 C619 1.393 . S
C623 C622 1.391 . S
C624 H614 0.950 . S
C624 C625 1.386 . S
C624 C626 1.391 . S
C625 C624 1.386 . S
C625 C629 1.393 . S
C626 H615 0.950 . S
C626 C624 1.391 . S
C626 C627 1.400 . S
C627 C621 1.491 . S
C627 C626 1.400 . S
C627 C628 1.398 . S
C628 H616 0.950 . S
C628 C627 1.398 . S
C628 C629 1.391 . S
C629 H617 0.950 . S
C629 C625 1.393 . S
C629 C628 1.391 . S
H630 C638 0.950 . S
H631 C643 0.950 . S
H632 C640 0.950 . S
H633 C642 0.950 . S
H634 C644 0.950 . S
H635 C646 0.950 . S
H636 C648 0.950 . S
H637 C649 0.950 . S
C638 H630 0.950 . S
C638 C639 1.386 . S
C638 C640 1.391 . S
C639 C638 1.386 . S
C639 C643 1.393 . S
C640 H632 0.950 . S
C640 C638 1.391 . S
C640 C641 1.400 . S
C641 C640 1.400 . S
C641 C642 1.398 . S
C641 C647 1.491 . S
C642 H633 0.950 . S
C642 C641 1.398 . S
C642 C643 1.391 . S
C643 H631 0.950 . S
C643 C639 1.393 . S
C643 C642 1.391 . S
C644 H634 0.950 . S
C644 C645 1.386 . S
C644 C646 1.391 . S
C645 C644 1.386 . S
C645 C649 1.393 . S
C646 H635 0.950 . S
C646 C644 1.391 . S
C646 C647 1.400 . S
C647 C641 1.491 . S
C647 C646 1.400 . S
C647 C648 1.398 . S
C648 H636 0.950 . S
C648 C647 1.398 . S
C648 C649 1.391 . S
C649 H637 0.950 . S
C649 C645 1.393 . S
C649 C648 1.391 . S
H650 C658 0.950 . S
H651 C663 0.950 . S
H652 C660 0.950 . S
H653 C662 0.950 . S
H654 C664 0.955 . S
H655 C666 0.950 . S
H656 C668 0.950 . S
H657 C669 0.950 . S
C658 H650 0.950 . S
C658 C659 1.386 . S
C658 C660 1.391 . S
C659 C658 1.386 . S
C659 C663 1.393 . S
C660 H652 0.950 . S
C660 C658 1.391 . S
C660 C661 1.400 . S
C661 C660 1.400 . S
C661 C662 1.398 . S
C661 C667 1.491 . S
C662 H653 0.950 . S
C662 C661 1.398 . S
C662 C663 1.391 . S
C663 H651 0.950 . S
C663 C659 1.393 . S
C663 C662 1.391 . S
C664 H654 0.955 . S
C664 C665 1.367 1_554 S
C664 C666 1.405 . S
C665 C664 1.367 1_556 S
C665 C669 1.393 . S
C666 H655 0.950 . S
C666 C664 1.405 . S
C666 C667 1.400 . S
C667 C661 1.491 . S
C667 C666 1.400 . S
C667 C668 1.398 1_554 S
C668 H656 0.950 . S
C668 C667 1.398 1_556 S
C668 C669 1.391 . S
C669 H657 0.950 . S
C669 C665 1.393 . S
C669 C668 1.391 . S
H670 C678 0.950 . S
H671 C683 0.950 . S
H672 C680 0.950 . S
H673 C682 0.950 . S
H674 C684 0.950 . S
H675 C686 0.950 . S
H676 C688 0.950 . S
H677 C689 0.950 . S
C678 H670 0.950 . S
C678 C679 1.386 . S
C678 C680 1.391 . S
C679 C678 1.386 . S
C679 C683 1.393 . S
C680 H672 0.950 . S
C680 C678 1.391 . S
C680 C681 1.400 . S
C681 C680 1.400 . S
C681 C682 1.398 . S
C681 C687 1.491 . S
C682 H673 0.950 . S
C682 C681 1.398 . S
C682 C683 1.391 . S
C683 H671 0.950 . S
C683 C679 1.393 . S
C683 C682 1.391 . S
C684 H674 0.950 . S
C684 C685 1.386 . S
C684 C686 1.391 . S
C685 C684 1.386 . S
C685 C689 1.393 . S
C686 H675 0.950 . S
C686 C684 1.391 . S
C686 C687 1.400 . S
C687 C681 1.491 . S
C687 C686 1.400 . S
C687 C688 1.398 . S
C688 H676 0.950 . S
C688 C687 1.398 . S
C688 C689 1.391 . S
C689 H677 0.950 . S
C689 C685 1.393 . S
C689 C688 1.391 . S
C225 C203 1.496 . S
C219 C19 1.448 . S
C239 C40 1.447 . S
C245 C132 1.480 . S
C259 C51 1.426 . S
C265 C146 1.491 . S
C279 C72 1.445 . S
C285 C160 1.489 . S
C305 C174 1.480 . S
C299 C103 1.427 . S
C319 C114 1.436 . S
C325 C189 1.503 . S
C339 C30 1.447 . S
C345 C147 1.492 . S
C359 C61 1.447 . S
C365 C161 1.500 . S
C379 C82 1.449 . S
C385 C175 1.496 . S
C405 C188 1.502 . S
C399 C93 1.431 1_554 S
C425 C202 1.484 . S
C419 C124 1.424 . S
C445 C133 1.486 . S
C439 C9 1.413 . S
C459 C17 1.475 . S
C465 C149 1.547 . S
C479 C38 1.488 . S
C485 C163 1.530 . S
C505 C177 1.533 . S
C499 C54 1.481 . S
C519 C75 1.458 . S
C525 C190 1.541 . S
C545 C204 1.541 . S
C539 C101 1.474 . S
C565 C135 1.531 . S
C559 C117 1.484 . S
C585 C205 1.533 . S
C579 C33 1.454 . S
C599 C59 1.466 . S
C605 C134 1.543 . S
C625 C148 1.543 . S
C619 C80 1.463 . S
C639 C96 1.471 . S
C645 C162 1.540 . S
C659 C122 1.479 . S
C665 C176 1.526 . S
C679 C12 1.489 . S
C685 C191 1.534 . S
