# Generated by pormake.
# Topology pto, (3,4)-cn, num edge types: 1
# Building blocks:
#     Node 0, Type 0, BuildingBlock: BETDIP_clean_linker_0, # of connection points: 3
#     Node 1, Type 0, BuildingBlock: BETDIP_clean_linker_0, # of connection points: 3
#     Node 2, Type 0, BuildingBlock: BETDIP_clean_linker_0, # of connection points: 3
#     Node 3, Type 0, BuildingBlock: BETDIP_clean_linker_0, # of connection points: 3
#     Node 4, Type 0, BuildingBlock: BETDIP_clean_linker_0, # of connection points: 3
#     Node 5, Type 0, BuildingBlock: BETDIP_clean_linker_0, # of connection points: 3
#     Node 6, Type 0, BuildingBlock: BETDIP_clean_linker_0, # of connection points: 3
#     Node 7, Type 0, BuildingBlock: BETDIP_clean_linker_0, # of connection points: 3
#     Node 8, Type 1, BuildingBlock: KOZSID_clean_sbu_0, # of connection points: 4
#     Node 9, Type 1, BuildingBlock: KOZSID_clean_sbu_0, # of connection points: 4
#     Node 10, Type 1, BuildingBlock: KOZSID_clean_sbu_0, # of connection points: 4
#     Node 11, Type 1, BuildingBlock: KOZSID_clean_sbu_0, # of connection points: 4
#     Node 12, Type 1, BuildingBlock: KOZSID_clean_sbu_0, # of connection points: 4
#     Node 13, Type 1, BuildingBlock: KOZSID_clean_sbu_0, # of connection points: 4
#     Edge 14, Type (0, 1), BuildingBlock: KIFKEQ_clean_linker_1, # of connection points: 2
#     Edge 15, Type (0, 1), BuildingBlock: KIFKEQ_clean_linker_1, # of connection points: 2
#     Edge 16, Type (0, 1), BuildingBlock: KIFKEQ_clean_linker_1, # of connection points: 2
#     Edge 17, Type (0, 1), BuildingBlock: KIFKEQ_clean_linker_1, # of connection points: 2
#     Edge 18, Type (0, 1), BuildingBlock: KIFKEQ_clean_linker_1, # of connection points: 2
#     Edge 19, Type (0, 1), BuildingBlock: KIFKEQ_clean_linker_1, # of connection points: 2
#     Edge 20, Type (0, 1), BuildingBlock: KIFKEQ_clean_linker_1, # of connection points: 2
#     Edge 21, Type (0, 1), BuildingBlock: KIFKEQ_clean_linker_1, # of connection points: 2
#     Edge 22, Type (0, 1), BuildingBlock: KIFKEQ_clean_linker_1, # of connection points: 2
#     Edge 23, Type (0, 1), BuildingBlock: KIFKEQ_clean_linker_1, # of connection points: 2
#     Edge 24, Type (0, 1), BuildingBlock: KIFKEQ_clean_linker_1, # of connection points: 2
#     Edge 25, Type (0, 1), BuildingBlock: KIFKEQ_clean_linker_1, # of connection points: 2
#     Edge 26, Type (0, 1), BuildingBlock: KIFKEQ_clean_linker_1, # of connection points: 2
#     Edge 27, Type (0, 1), BuildingBlock: KIFKEQ_clean_linker_1, # of connection points: 2
#     Edge 28, Type (0, 1), BuildingBlock: KIFKEQ_clean_linker_1, # of connection points: 2
#     Edge 29, Type (0, 1), BuildingBlock: KIFKEQ_clean_linker_1, # of connection points: 2
#     Edge 30, Type (0, 1), BuildingBlock: KIFKEQ_clean_linker_1, # of connection points: 2
#     Edge 31, Type (0, 1), BuildingBlock: KIFKEQ_clean_linker_1, # of connection points: 2
#     Edge 32, Type (0, 1), BuildingBlock: KIFKEQ_clean_linker_1, # of connection points: 2
#     Edge 33, Type (0, 1), BuildingBlock: KIFKEQ_clean_linker_1, # of connection points: 2
#     Edge 34, Type (0, 1), BuildingBlock: KIFKEQ_clean_linker_1, # of connection points: 2
#     Edge 35, Type (0, 1), BuildingBlock: KIFKEQ_clean_linker_1, # of connection points: 2
#     Edge 36, Type (0, 1), BuildingBlock: KIFKEQ_clean_linker_1, # of connection points: 2
#     Edge 37, Type (0, 1), BuildingBlock: KIFKEQ_clean_linker_1, # of connection points: 2
# Relax obj value: 0.011
# Max RMSD: 0.132
# Mean RMSD: 0.060
data_MOF--net-pto--node1-KOZSID_clean_sbu_0--node2-BETDIP_clean_linker_0--edge1-KIFKEQ_clean_linker_1
_symmetry_space_group_name_H-M    P1
_symmetry_Int_Tables_number       1
_symmetry_cell_setting            triclinic
loop_
_symmetry_equiv_pos_as_xyz
'x, y, z'
_cell_length_a     37.389482
_cell_length_b     52.146563
_cell_length_c     45.692311
_cell_angle_alpha  95.779777
_cell_angle_beta   102.94188
_cell_angle_gamma 107.48603
loop_
_atom_site_label
_atom_site_type_symbol
_atom_site_fract_x
_atom_site_fract_y
_atom_site_fract_z
_atom_type_partial_charge
H0 H 0.18403 0.3134 0.34315 0.0
H1 H 0.23449 0.2739 0.28484 0.0
H2 H 0.23627 0.35585 0.27889 0.0
H3 H 0.18526 0.23594 0.28878 0.0
C4 C 0.18845 0.24012 0.31318 0.0
C5 C 0.19852 0.31397 0.32506 0.0
C6 C 0.209 0.33773 0.31236 0.0
C7 C 0.20638 0.29065 0.31456 0.0
C8 C 0.2265 0.29137 0.29196 0.0
C9 C 0.23795 0.31502 0.27939 0.0
C10 C 0.22873 0.33798 0.28946 0.0
N11 N 0.19504 0.26709 0.32794 0.0
H12 H 0.18471 0.79392 0.67263 0.0
H13 H 0.29183 0.85422 0.72781 0.0
H14 H 0.24321 0.77972 0.75862 0.0
H15 H 0.26699 0.88293 0.70442 0.0
C16 C 0.25036 0.8722 0.6815 0.0
C17 C 0.20887 0.8005 0.69304 0.0
C18 C 0.21046 0.7838 0.71521 0.0
C19 C 0.23735 0.8263 0.6977 0.0
C20 C 0.26889 0.8348 0.7242 0.0
C21 C 0.27078 0.81819 0.74644 0.0
C22 C 0.24146 0.79282 0.74174 0.0
N23 N 0.23295 0.84327 0.6756 0.0
H24 H 0.8477 0.80752 0.31648 0.0
H25 H 0.88081 0.83932 0.41294 0.0
H26 H 0.80715 0.87034 0.35045 0.0
H27 H 0.92156 0.81551 0.41645 0.0
C28 C 0.91211 0.79989 0.39615 0.0
C29 C 0.84707 0.82163 0.33533 0.0
C30 C 0.82489 0.83892 0.32988 0.0
C31 C 0.86756 0.82161 0.36502 0.0
C32 C 0.86604 0.83941 0.38975 0.0
C33 C 0.84384 0.85684 0.38457 0.0
C34 C 0.82364 0.85653 0.3546 0.0
N35 N 0.88739 0.80228 0.36875 0.0
H36 H 0.70221 0.25563 0.84187 0.0
H37 H 0.72523 0.34234 0.85097 0.0
H38 H 0.77125 0.30203 0.78929 0.0
H39 H 0.72369 0.33758 0.90021 0.0
C40 C 0.69851 0.31926 0.89633 0.0
C41 C 0.71558 0.27496 0.83544 0.0
C42 C 0.73706 0.27599 0.81374 0.0
C43 C 0.71248 0.29893 0.84983 0.0
C44 C 0.72936 0.324 0.8412 0.0
C45 C 0.75043 0.32535 0.81916 0.0
C46 C 0.75453 0.30124 0.80593 0.0
N47 N 0.69176 0.29718 0.87253 0.0
H48 H 0.79786 0.80454 0.82483 0.0
H49 H 0.83199 0.84003 0.75021 0.0
H50 H 0.77765 0.87886 0.80619 0.0
H51 H 0.82259 0.7945 0.73162 0.0
C52 C 0.8342 0.78747 0.75208 0.0
C53 C 0.79971 0.82054 0.81124 0.0
C54 C 0.78597 0.84192 0.81853 0.0
C55 C 0.81569 0.81942 0.78644 0.0
C56 C 0.81859 0.84027 0.76887 0.0
C57 C 0.80548 0.86212 0.77619 0.0
C58 C 0.78911 0.86266 0.80101 0.0
N59 N 0.82967 0.79746 0.78063 0.0
H60 H 0.716 0.27779 0.39012 0.0
H61 H 0.83361 0.32228 0.44359 0.0
H62 H 0.78152 0.35262 0.36742 0.0
H63 H 0.81692 0.29752 0.47831 0.0
C64 C 0.79589 0.27803 0.46586 0.0
C65 C 0.74241 0.2952 0.39461 0.0
C66 C 0.7446 0.31516 0.37596 0.0
C67 C 0.77394 0.29769 0.41942 0.0
C68 C 0.80841 0.32031 0.42529 0.0
C69 C 0.81116 0.34006 0.40642 0.0
C70 C 0.7792 0.33737 0.38201 0.0
N71 N 0.77041 0.27646 0.43699 0.0
H72 H 0.12188 0.30262 0.71211 0.0
H73 H 0.20377 0.27544 0.77136 0.0
H74 H 0.17422 0.34366 0.8059 0.0
H75 H 0.22067 0.26916 0.72592 0.0
C76 C 0.19166 0.25821 0.7111 0.0
C77 C 0.14147 0.30499 0.73438 0.0
C78 C 0.1452 0.32562 0.75843 0.0
C79 C 0.16336 0.28745 0.73864 0.0
C80 C 0.18763 0.28947 0.76769 0.0
C81 C 0.19134 0.3095 0.79213 0.0
C82 C 0.17059 0.32779 0.78719 0.0
N83 N 0.16042 0.26776 0.71354 0.0
H84 H 0.32108 0.8578 0.26548 0.0
H85 H 0.30069 0.77107 0.24882 0.0
H86 H 0.24322 0.80394 0.30658 0.0
H87 H 0.35732 0.78373 0.23675 0.0
C88 C 0.35884 0.80196 0.22683 0.0
C89 C 0.30668 0.83742 0.26901 0.0
C90 C 0.28141 0.8336 0.28796 0.0
C91 C 0.31457 0.81519 0.25526 0.0
C92 C 0.29605 0.78864 0.25994 0.0
C93 C 0.27006 0.78454 0.2783 0.0
C94 C 0.26308 0.80708 0.29221 0.0
N95 N 0.34048 0.82031 0.23635 0.0
C96 C 0.14345 0.6129 0.38189 0.0
C97 C 0.17826 0.6289 0.40266 0.0
C98 C 0.17626 0.62209 0.43046 0.0
C99 C 0.14056 0.60234 0.42507 0.0
N100 N 0.1197 0.59599 0.39545 0.0
Co101 Co 0.06637 0.56845 0.37751 0.0
N102 N 0.06281 0.55917 0.41861 0.0
C103 C 0.08904 0.57111 0.44586 0.0
C104 C 0.07927 0.55945 0.46982 0.0
C105 C 0.04511 0.53851 0.45705 0.0
C106 C 0.03604 0.53866 0.42594 0.0
N107 N 0.01342 0.54046 0.35948 0.0
C108 C 0.99165 0.5217 0.37255 0.0
C109 C 0.95723 0.50504 0.35177 0.0
C110 C 0.95774 0.5131 0.32433 0.0
C111 C 0.99224 0.53414 0.32995 0.0
N112 N 0.06955 0.5779 0.33643 0.0
C113 C 0.0419 0.56735 0.30954 0.0
C114 C 0.05201 0.57833 0.28537 0.0
C115 C 0.08811 0.59726 0.29752 0.0
C116 C 0.09801 0.59666 0.32856 0.0
N117 N 0.0899 0.53973 0.37087 0.0
C118 C 0.1217 0.49803 0.36165 0.0
C119 C 0.095 0.50255 0.3378 0.0
C120 C 0.07933 0.52318 0.34293 0.0
C121 C 0.13243 0.51475 0.39017 0.0
C122 C 0.11658 0.53552 0.39418 0.0
N123 N 0.0428 0.59738 0.38416 0.0
C124 C 0.99716 0.62036 0.36544 0.0
C125 C 0.01237 0.64033 0.39188 0.0
C126 C 0.04262 0.63812 0.41466 0.0
C127 C 0.05718 0.61666 0.4104 0.0
C128 C 0.01256 0.59927 0.36213 0.0
H129 H 0.08031 0.61633 0.42859 0.0
H130 H 0.99977 0.58502 0.34131 0.0
H131 H 0.05845 0.5252 0.32401 0.0
H132 H 0.12618 0.54782 0.41636 0.0
C133 C 0.12487 0.5906 0.44756 0.0
C134 C 0.13384 0.61526 0.34978 0.0
C135 C 0.00347 0.51777 0.4039 0.0
C136 C 0.00671 0.5471 0.3077 0.0
H137 H 0.20232 0.64421 0.39819 0.0
H138 H 0.19791 0.6309 0.45211 0.0
H139 H 0.09602 0.56462 0.4935 0.0
H140 H 0.02945 0.52411 0.46907 0.0
H141 H 0.93468 0.48827 0.35587 0.0
H142 H 0.9362 0.50406 0.30267 0.0
H143 H 0.03498 0.57337 0.26177 0.0
H144 H 0.10494 0.61033 0.28499 0.0
H145 H 0.08557 0.48981 0.3154 0.0
H146 H 0.15329 0.51202 0.40922 0.0
H147 H 0.974 0.62126 0.34691 0.0
H148 H 0.05503 0.65282 0.43581 0.0
C149 C 0.0488 0.59067 0.7507 0.0
C150 C 0.08172 0.60613 0.7737 0.0
C151 C 0.07557 0.59839 0.80033 0.0
C152 C 0.03944 0.57869 0.79203 0.0
N153 N 0.02258 0.57298 0.76162 0.0
Co154 Co 0.96969 0.54675 0.73948 0.0
N155 N 0.95713 0.53935 0.77896 0.0
C156 C 0.98002 0.55102 0.80755 0.0
C157 C 0.96411 0.54117 0.83008 0.0
C158 C 0.92927 0.52176 0.81507 0.0
C159 C 0.92584 0.52092 0.78405 0.0
N160 N 0.91713 0.52002 0.71729 0.0
C161 C 0.89005 0.50314 0.7283 0.0
C162 C 0.85803 0.48677 0.70503 0.0
C163 C 0.86562 0.49299 0.67827 0.0
C164 C 0.90163 0.51279 0.68671 0.0
N165 N 0.98189 0.55487 0.70008 0.0
C166 C 0.95902 0.54366 0.67143 0.0
C167 C 0.97397 0.55505 0.64914 0.0
C168 C 0.00793 0.57529 0.6645 0.0
C169 C 0.01169 0.57491 0.69533 0.0
N170 N 0.99147 0.51629 0.7386 0.0
C171 C 0.01972 0.47195 0.73802 0.0
C172 C 0.00068 0.47769 0.71089 0.0
C173 C 0.98646 0.49962 0.71171 0.0
C174 C 0.02489 0.4888 0.76536 0.0
C175 C 0.01113 0.51086 0.7651 0.0
N176 N 0.94815 0.57717 0.74037 0.0
C177 C 0.91048 0.60266 0.71437 0.0
C178 C 0.92309 0.6231 0.74031 0.0
C179 C 0.94757 0.61965 0.76651 0.0
C180 C 0.95969 0.59683 0.76601 0.0
C181 C 0.92305 0.57998 0.71496 0.0
H182 H 0.97887 0.59574 0.78656 0.0
H183 H 0.91266 0.56523 0.69443 0.0
H184 H 0.97124 0.50244 0.69033 0.0
H185 H 0.01666 0.52308 0.78672 0.0
C186 C 0.01822 0.56853 0.81238 0.0
C187 C 0.04204 0.59535 0.7194 0.0
C188 C 0.89433 0.50066 0.76031 0.0
C189 C 0.92218 0.52421 0.66648 0.0
H190 H 0.10667 0.62222 0.77152 0.0
H191 H 0.09414 0.60729 0.82319 0.0
H192 H 0.97719 0.54644 0.85449 0.0
H193 H 0.90955 0.50895 0.82589 0.0
H194 H 0.83233 0.4714 0.70722 0.0
H195 H 0.84751 0.48369 0.65537 0.0
H196 H 0.96084 0.55013 0.62474 0.0
H197 H 0.02696 0.58939 0.65425 0.0
H198 H 0.99606 0.46498 0.68919 0.0
H199 H 0.03996 0.48515 0.78688 0.0
H200 H 0.89168 0.60434 0.6934 0.0
H201 H 0.95743 0.63447 0.78748 0.0
C202 C 0.23677 0.01289 0.52625 0.0
C203 C 0.27385 0.01502 0.54284 0.0
C204 C 0.29912 0.037 0.536 0.0
C205 C 0.27617 0.04697 0.51569 0.0
N206 N 0.23766 0.0328 0.50922 0.0
Co207 Co 0.19421 0.0396 0.47984 0.0
N208 N 0.23142 0.07245 0.47053 0.0
C209 C 0.27027 0.0833 0.48342 0.0
C210 C 0.28785 0.10669 0.4737 0.0
C211 C 0.25849 0.11122 0.45352 0.0
C212 C 0.22457 0.09008 0.45189 0.0
N213 N 0.15098 0.04574 0.44955 0.0
C214 C 0.15195 0.06528 0.432 0.0
C215 C 0.11535 0.06153 0.4132 0.0
C216 C 0.09025 0.03903 0.41935 0.0
C217 C 0.11289 0.03023 0.44128 0.0
N218 N 0.15688 0.00739 0.49008 0.0
C219 C 0.11771 0.99769 0.47887 0.0
C220 C 0.09975 0.9757 0.49064 0.0
C221 C 0.12918 0.97109 0.51069 0.0
C222 C 0.16351 0.99059 0.50991 0.0
N223 N 0.18731 0.06382 0.51298 0.0
C224 C 0.17853 0.10035 0.55843 0.0
C225 C 0.14618 0.08273 0.53592 0.0
C226 C 0.15116 0.06457 0.51373 0.0
C227 C 0.21517 0.09903 0.55812 0.0
C228 C 0.21888 0.08085 0.53539 0.0
N229 N 0.20122 0.01544 0.4467 0.0
C230 C 0.17594 0.97502 0.40735 0.0
C231 C 0.21285 0.97896 0.4029 0.0
C232 C 0.24347 0.00204 0.41988 0.0
C233 C 0.23706 0.01985 0.44142 0.0
C234 C 0.17077 0.99344 0.42909 0.0
H235 H 0.26182 0.03673 0.45392 0.0
H236 H 0.14202 0.98921 0.43154 0.0
H237 H 0.12537 0.0515 0.49731 0.0
H238 H 0.2477 0.08125 0.53628 0.0
C239 C 0.28966 0.07047 0.50368 0.0
C240 C 0.20167 0.99195 0.52797 0.0
C241 C 0.18659 0.08783 0.43254 0.0
C242 C 0.0989 0.00864 0.45597 0.0
H243 H 0.2818 0.00214 0.55848 0.0
H244 H 0.33045 0.04498 0.54506 0.0
H245 H 0.31839 0.11896 0.48045 0.0
H246 H 0.26176 0.12824 0.44145 0.0
H247 H 0.10752 0.07394 0.39691 0.0
H248 H 0.05912 0.03036 0.40937 0.0
H249 H 0.06899 0.96414 0.48496 0.0
H250 H 0.12584 0.955 0.52413 0.0
H251 H 0.11715 0.08285 0.53551 0.0
H252 H 0.24117 0.11251 0.57491 0.0
H253 H 0.15115 0.95764 0.39434 0.0
H254 H 0.27269 0.00587 0.41745 0.0
C255 C 0.53566 0.86147 0.06693 0.0
C256 C 0.53467 0.88581 0.08154 0.0
C257 C 0.5611 0.90639 0.07362 0.0
C258 C 0.57678 0.89351 0.05484 0.0
N259 N 0.56156 0.86591 0.04986 0.0
Co260 Co 0.57793 0.83915 0.02582 0.0
N261 N 0.6187 0.86943 0.01586 0.0
C262 C 0.62651 0.89662 0.02406 0.0
C263 C 0.65445 0.91242 0.0124 0.0
C264 C 0.66487 0.89429 0.9954 0.0
C265 C 0.64277 0.86832 0.99789 0.0
N266 N 0.59486 0.81232 0.00254 0.0
C267 C 0.62235 0.81667 0.98697 0.0
C268 C 0.62585 0.7923 0.97484 0.0
C269 C 0.59891 0.77178 0.98235 0.0
C270 C 0.58084 0.78472 0.9988 0.0
N271 N 0.53659 0.80886 0.03512 0.0
C272 C 0.52693 0.78169 0.02523 0.0
C273 C 0.49726 0.76594 0.03534 0.0
C274 C 0.48765 0.78407 0.05306 0.0
C275 C 0.51232 0.80993 0.05285 0.0
N276 N 0.53987 0.83958 0.98793 0.0
C277 C 0.48437 0.83967 0.93481 0.0
C278 C 0.49075 0.81551 0.94109 0.0
C279 C 0.51838 0.81593 0.96746 0.0
C280 C 0.50689 0.86393 0.95522 0.0
C281 C 0.53423 0.86342 0.98144 0.0
N282 N 0.61583 0.83869 0.06372 0.0
C283 C 0.64054 0.81363 0.10039 0.0
C284 C 0.66574 0.8379 0.11958 0.0
C285 C 0.66642 0.86257 0.10992 0.0
C286 C 0.64138 0.8625 0.08214 0.0
C287 C 0.61618 0.81449 0.07278 0.0
H288 H 0.64276 0.88197 0.07631 0.0
H289 H 0.59754 0.79527 0.05938 0.0
H290 H 0.52171 0.79681 0.97077 0.0
H291 H 0.55021 0.88254 0.99618 0.0
C292 C 0.60656 0.90668 0.04227 0.0
C293 C 0.51284 0.83469 0.07107 0.0
C294 C 0.6445 0.84326 0.98181 0.0
C295 C 0.54882 0.7715 0.00908 0.0
H296 H 0.51722 0.88844 0.09682 0.0
H297 H 0.56862 0.92815 0.08119 0.0
H298 H 0.66541 0.9345 0.01542 0.0
H299 H 0.68589 0.89966 0.98226 0.0
H300 H 0.64531 0.78961 0.96139 0.0
H301 H 0.59259 0.75 0.97593 0.0
H302 H 0.48503 0.74386 0.03122 0.0
H303 H 0.46569 0.77885 0.06542 0.0
H304 H 0.47454 0.79625 0.92564 0.0
H305 H 0.50286 0.88316 0.95142 0.0
H306 H 0.63948 0.79398 0.10667 0.0
H307 H 0.68534 0.88192 0.12412 0.0
C308 C 0.83218 0.0353 0.65798 0.0
C309 C 0.86767 0.03835 0.6781 0.0
C310 C 0.89414 0.06102 0.67354 0.0
C311 C 0.87337 0.07055 0.65112 0.0
N312 N 0.83511 0.05547 0.64122 0.0
Co313 Co 0.79435 0.06207 0.60892 0.0
N314 N 0.83391 0.09422 0.60067 0.0
C315 C 0.87278 0.10353 0.61363 0.0
C316 C 0.89242 0.12598 0.60339 0.0
C317 C 0.86442 0.13157 0.58286 0.0
C318 C 0.82914 0.11219 0.58191 0.0
N319 N 0.75346 0.0691 0.57707 0.0
C320 C 0.75626 0.08983 0.56105 0.0
C321 C 0.72032 0.08788 0.54244 0.0
C322 C 0.6938 0.06522 0.54697 0.0
C323 C 0.71491 0.05474 0.56808 0.0
N324 N 0.75492 0.02952 0.6167 0.0
C325 C 0.71638 0.01928 0.60247 0.0
C326 C 0.69703 0.99608 0.61166 0.0
C327 C 0.7249 0.99094 0.63279 0.0
C328 C 0.75977 0.0115 0.63537 0.0
N329 N 0.78492 0.08648 0.64043 0.0
C330 C 0.77128 0.12236 0.68379 0.0
C331 C 0.74059 0.10071 0.66417 0.0
C332 C 0.74799 0.0832 0.64286 0.0
C333 C 0.80899 0.12545 0.6816 0.0
C334 C 0.81509 0.10742 0.66003 0.0
N335 N 0.80377 0.03751 0.57752 0.0
C336 C 0.77891 1.00015 0.53448 0.0
C337 C 0.81634 0.99951 0.53595 0.0
C338 C 0.8475 0.0187 0.55809 0.0
C339 C 0.84064 0.03746 0.57834 0.0
C340 C 0.77335 0.01916 0.55523 0.0
H341 H 0.86563 0.0515 0.59466 0.0
H342 H 0.74408 0.01827 0.55305 0.0
H343 H 0.72329 0.06728 0.62849 0.0
H344 H 0.84446 0.11105 0.65943 0.0
C345 C 0.88948 0.09223 0.63725 0.0
C346 C 0.79686 0.01248 0.65508 0.0
C347 C 0.79187 0.11236 0.56369 0.0
C348 C 0.69928 0.03179 0.58036 0.0
H349 H 0.87391 0.02525 0.69404 0.0
H350 H 0.92503 0.06916 0.68465 0.0
H351 H 0.92327 0.13743 0.61066 0.0
H352 H 0.86928 0.14837 0.57046 0.0
H353 H 0.71379 0.10168 0.52754 0.0
H354 H 0.66272 0.05758 0.53654 0.0
H355 H 0.6664 0.98411 0.60364 0.0
H356 H 0.72017 0.97377 0.64464 0.0
H357 H 0.71087 0.09716 0.66522 0.0
H358 H 0.83377 0.1421 0.69597 0.0
H359 H 0.75374 0.98559 0.51785 0.0
H360 H 0.87713 0.01935 0.55976 0.0
C361 C 0.42365 0.3401 0.12419 0.0
C362 C 0.42266 0.36547 0.13577 0.0
C363 C 0.4509 0.38458 0.12773 0.0
C364 C 0.46725 0.36987 0.11159 0.0
N365 N 0.45104 0.34246 0.10865 0.0
Co366 Co 0.46527 0.31349 0.08622 0.0
N367 N 0.50834 0.3417 0.07591 0.0
C368 C 0.51953 0.36916 0.0844 0.0
C369 C 0.54952 0.3833 0.07352 0.0
C370 C 0.55798 0.36376 0.05695 0.0
C371 C 0.5326 0.33867 0.05877 0.0
N372 N 0.4789 0.28455 0.06312 0.0
C373 C 0.50546 0.28696 0.04674 0.0
C374 C 0.50504 0.26159 0.03373 0.0
C375 C 0.47677 0.24246 0.04172 0.0
C376 C 0.4617 0.25715 0.05914 0.0
N377 N 0.42279 0.28528 0.09713 0.0
C378 C 0.41289 0.25779 0.08995 0.0
C379 C 0.38387 0.24366 0.10178 0.0
C380 C 0.37482 0.26325 0.11773 0.0
C381 C 0.39881 0.28834 0.11451 0.0
N382 N 0.42799 0.31424 0.04805 0.0
C383 C 0.37496 0.31514 0.99383 0.0
C384 C 0.37434 0.29054 0.00366 0.0
C385 C 0.40089 0.29055 0.03055 0.0
C386 C 0.40265 0.33929 0.01159 0.0
C387 C 0.42862 0.33838 0.03838 0.0
N388 N 0.50246 0.31273 0.12449 0.0
C389 C 0.53038 0.28754 0.15939 0.0
C390 C 0.55287 0.31162 0.18014 0.0
C391 C 0.54995 0.33629 0.17233 0.0
C392 C 0.52499 0.33639 0.14462 0.0
C393 C 0.50559 0.28855 0.13199 0.0
H394 H 0.5242 0.35587 0.14015 0.0
H395 H 0.48921 0.26946 0.11734 0.0
H396 H 0.39902 0.27112 0.03662 0.0
H397 H 0.4489 0.35749 0.05086 0.0
C398 C 0.49924 0.38117 0.10045 0.0
C399 C 0.39859 0.31445 0.12922 0.0
C400 C 0.53148 0.31268 0.04268 0.0
C401 C 0.43153 0.24582 0.07218 0.0
H402 H 0.40379 0.36975 0.149 0.0
H403 H 0.459 0.40659 0.13342 0.0
H404 H 0.56285 0.40525 0.0765 0.0
H405 H 0.57978 0.36766 0.04437 0.0
H406 H 0.52319 0.25735 0.01978 0.0
H407 H 0.46812 0.22046 0.03546 0.0
H408 H 0.37114 0.22172 0.09941 0.0
H409 H 0.35334 0.25943 0.13061 0.0
H410 H 0.35383 0.27122 0.99043 0.0
H411 H 0.40405 0.3589 0.00509 0.0
H412 H 0.53205 0.26791 0.16404 0.0
H413 H 0.56637 0.35554 0.18772 0.0
H414 H 0.25172 0.39211 0.31942 0.0
H415 H 0.14255 0.33848 0.32802 0.0
H416 H 0.23266 0.43163 0.33287 0.0
H417 H 0.12456 0.37813 0.34271 0.0
H418 H 0.12514 0.45861 0.39607 0.0
H419 H 0.14857 0.42028 0.38636 0.0
H420 H 0.17763 0.44898 0.30648 0.0
H421 H 0.15399 0.48715 0.31607 0.0
C422 C 0.2237 0.38867 0.32414 0.0
C423 C 0.19861 0.36199 0.32242 0.0
C424 C 0.21295 0.41134 0.33201 0.0
C425 C 0.17719 0.40787 0.33882 0.0
C426 C 0.15252 0.38135 0.33791 0.0
C427 C 0.16296 0.35866 0.3296 0.0
C428 C 0.13689 0.45681 0.37663 0.0
C429 C 0.13773 0.47573 0.35676 0.0
C430 C 0.15004 0.43486 0.37099 0.0
C431 C 0.16486 0.43174 0.34568 0.0
C432 C 0.16659 0.45105 0.32626 0.0
C433 C 0.15285 0.47273 0.33161 0.0
H434 H 0.18035 0.74215 0.66566 0.0
H435 H 0.17183 0.76517 0.75662 0.0
H436 H 0.13471 0.69623 0.66233 0.0
H437 H 0.12712 0.71953 0.75362 0.0
H438 H 0.02634 0.64167 0.73321 0.0
H439 H 0.06188 0.68796 0.7278 0.0
H440 H 0.13792 0.6565 0.68756 0.0
H441 H 0.10172 0.61015 0.69272 0.0
C442 C 0.16826 0.73748 0.6847 0.0
C443 C 0.17973 0.75707 0.71146 0.0
C444 C 0.14247 0.7112 0.68293 0.0
C445 C 0.12741 0.70425 0.70775 0.0
C446 C 0.13782 0.72428 0.73397 0.0
C447 C 0.16369 0.75036 0.73581 0.0
C448 C 0.05036 0.64479 0.72285 0.0
C449 C 0.06154 0.62269 0.71333 0.0
C450 C 0.07075 0.67117 0.71984 0.0
C451 C 0.10282 0.67589 0.70737 0.0
C452 C 0.11308 0.65348 0.6969 0.0
C453 C 0.09262 0.62705 0.69995 0.0
H454 H 0.96433 0.79117 0.44265 0.0
H455 H 0.89252 0.75552 0.35082 0.0
H456 H 0.98843 0.75234 0.44381 0.0
H457 H 0.91672 0.71715 0.35183 0.0
H458 H 0.93671 0.63906 0.37476 0.0
H459 H 0.91244 0.67745 0.3772 0.0
H460 H 0.02942 0.73259 0.41915 0.0
H461 H 0.05386 0.69421 0.41646 0.0
C462 C 0.95379 0.77508 0.42275 0.0
C463 C 0.92665 0.77642 0.3967 0.0
C464 C 0.96766 0.75294 0.42335 0.0
C465 C 0.95437 0.73162 0.39794 0.0
C466 C 0.92712 0.73302 0.37194 0.0
C467 C 0.91345 0.75516 0.37129 0.0
C468 C 0.95732 0.65937 0.38439 0.0
C469 C 0.99729 0.66354 0.39521 0.0
C470 C 0.94338 0.68138 0.38582 0.0
C471 C 0.96903 0.70809 0.39819 0.0
C472 C 0.00886 0.71222 0.40978 0.0
C473 C 0.02285 0.69019 0.40826 0.0
H474 H 0.78662 0.37617 0.85538 0.0
H475 H 0.75471 0.33452 0.76183 0.0
H476 H 0.81858 0.41898 0.84024 0.0
H477 H 0.78783 0.37711 0.74712 0.0
H478 H 0.89661 0.44965 0.74602 0.0
H479 H 0.85909 0.40742 0.75949 0.0
H480 H 0.80176 0.45247 0.80585 0.0
H481 H 0.83895 0.49466 0.79174 0.0
C482 C 0.78601 0.37615 0.83157 0.0
C483 C 0.76834 0.35179 0.80989 0.0
C484 C 0.80442 0.40066 0.82295 0.0
C485 C 0.80588 0.40126 0.79257 0.0
C486 C 0.78761 0.37711 0.77079 0.0
C487 C 0.76882 0.3527 0.77929 0.0
C488 C 0.87574 0.45036 0.75889 0.0
C489 C 0.8707 0.47521 0.76813 0.0
C490 C 0.85427 0.4263 0.76653 0.0
C491 C 0.82762 0.42674 0.78377 0.0
C492 C 0.82239 0.45165 0.7928 0.0
C493 C 0.84351 0.47567 0.78475 0.0
H494 H 0.19792 0.24222 0.37485 0.0
H495 H 0.17122 0.18672 0.2901 0.0
H496 H 0.19494 0.20448 0.40269 0.0
H497 H 0.16717 0.1487 0.31782 0.0
H498 H 0.21214 0.09587 0.38196 0.0
H499 H 0.21041 0.13238 0.35255 0.0
H500 H 0.15086 0.16319 0.41131 0.0
H501 H 0.15386 0.127 0.44111 0.0
C502 C 0.19099 0.22189 0.36213 0.0
C503 C 0.18487 0.21733 0.33031 0.0
C504 C 0.18905 0.20021 0.37807 0.0
C505 C 0.18085 0.17355 0.36249 0.0
C506 C 0.1741 0.16903 0.33056 0.0
C507 C 0.17618 0.19073 0.31467 0.0
C508 C 0.19858 0.11046 0.38832 0.0
C509 C 0.18324 0.10892 0.41365 0.0
C510 C 0.19733 0.13122 0.37147 0.0
C511 C 0.18054 0.15075 0.37961 0.0
C512 C 0.16449 0.14873 0.40471 0.0
C513 C 0.16589 0.12799 0.42161 0.0
H514 H 0.26493 0.81734 0.80453 0.0
H515 H 0.34918 0.83838 0.75233 0.0
H516 H 0.31725 0.82567 0.85078 0.0
H517 H 0.40188 0.84645 0.79873 0.0
H518 H 0.48788 0.87591 0.89499 0.0
H519 H 0.43673 0.87467 0.85018 0.0
H520 H 0.36104 0.8008 0.86825 0.0
H521 H 0.41133 0.80252 0.91325 0.0
C522 C 0.29475 0.82392 0.80305 0.0
C523 C 0.30304 0.82687 0.77484 0.0
C524 C 0.32469 0.8286 0.82948 0.0
C525 C 0.36366 0.83625 0.82832 0.0
C526 C 0.37215 0.84067 0.80038 0.0
C527 C 0.34205 0.83605 0.77384 0.0
C528 C 0.46014 0.85959 0.88949 0.0
C529 C 0.45367 0.83927 0.90761 0.0
C530 C 0.43101 0.85876 0.86372 0.0
C531 C 0.39478 0.83773 0.85576 0.0
C532 C 0.3884 0.81752 0.87399 0.0
C533 C 0.41743 0.8183 0.89959 0.0
H534 H 0.77797 0.8635 0.39456 0.0
H535 H 0.90272 0.89199 0.43185 0.0
H536 H 0.77265 0.8975 0.43242 0.0
H537 H 0.89754 0.92648 0.46978 0.0
H538 H 0.86531 0.96976 0.54907 0.0
H539 H 0.87298 0.93404 0.51451 0.0
H540 H 0.78915 0.94677 0.44046 0.0
H541 H 0.78145 0.98227 0.47488 0.0
C542 C 0.80427 0.87705 0.41098 0.0
C543 C 0.8408 0.87535 0.41006 0.0
C544 C 0.80126 0.89661 0.43257 0.0
C545 C 0.83473 0.91505 0.45376 0.0
C546 C 0.87119 0.91253 0.45381 0.0
C547 C 0.87419 0.8928 0.43215 0.0
C548 C 0.84885 0.9651 0.52532 0.0
C549 C 0.82256 0.97872 0.51475 0.0
C550 C 0.85322 0.94462 0.50555 0.0
C551 C 0.83136 0.93734 0.47482 0.0
C552 C 0.80575 0.95142 0.46417 0.0
C553 C 0.80137 0.97181 0.48389 0.0
H554 H 0.63082 0.27814 0.89378 0.0
H555 H 0.71044 0.3556 0.94701 0.0
H556 H 0.59057 0.27559 0.92955 0.0
H557 H 0.67012 0.35317 0.98266 0.0
H558 H 0.61018 0.32525 0.05677 0.0
H559 H 0.65083 0.3258 0.02137 0.0
H560 H 0.54792 0.29984 0.94518 0.0
H561 H 0.50755 0.29932 0.98079 0.0
C562 C 0.63974 0.29459 0.91314 0.0
C563 C 0.6738 0.31707 0.91773 0.0
C564 C 0.6166 0.2932 0.93353 0.0
C565 C 0.62723 0.31416 0.95895 0.0
C566 C 0.66142 0.33654 0.96352 0.0
C567 C 0.68437 0.33801 0.94305 0.0
C568 C 0.5965 0.31968 0.03243 0.0
C569 C 0.55602 0.31241 0.02129 0.0
C570 C 0.61962 0.32007 0.0122 0.0
C571 C 0.60257 0.31294 0.98048 0.0
C572 C 0.56187 0.30519 0.96948 0.0
C573 C 0.53881 0.305 0.98973 0.0
H574 H 0.27314 0.92725 0.68877 0.0
H575 H 0.20907 0.85419 0.62107 0.0
H576 H 0.2593 0.95527 0.65092 0.0
H577 H 0.19477 0.88221 0.5832 0.0
H578 H 0.21819 0.94503 0.51799 0.0
H579 H 0.22882 0.91493 0.55457 0.0
H580 H 0.20338 0.96595 0.62211 0.0
H581 H 0.19334 0.99603 0.58547 0.0
C582 C 0.25604 0.91722 0.66577 0.0
C583 C 0.24212 0.88861 0.65789 0.0
C584 C 0.24787 0.93323 0.64416 0.0
C585 C 0.2257 0.92095 0.61411 0.0
C586 C 0.21212 0.89227 0.60612 0.0
C587 C 0.22017 0.87623 0.62783 0.0
C588 C 0.21457 0.94947 0.54061 0.0
C589 C 0.205 0.9726 0.54919 0.0
C590 C 0.22049 0.9323 0.56148 0.0
C591 C 0.21714 0.93816 0.59129 0.0
C592 C 0.20672 0.96112 0.59948 0.0
C593 C 0.2007 0.97819 0.57857 0.0
H594 H 0.84839 0.83825 0.27727 0.0
H595 H 0.74982 0.83788 0.31187 0.0
H596 H 0.81044 0.83739 0.22578 0.0
H597 H 0.71232 0.83761 0.26074 0.0
H598 H 0.64396 0.80661 0.16103 0.0
H599 H 0.68317 0.80603 0.21118 0.0
H600 H 0.78131 0.86806 0.19728 0.0
H601 H 0.74222 0.86819 0.14663 0.0
C602 C 0.81861 0.83791 0.27383 0.0
C603 C 0.80207 0.83818 0.29856 0.0
C604 C 0.79705 0.83767 0.24446 0.0
C605 C 0.75843 0.83742 0.23925 0.0
C606 C 0.74188 0.83752 0.26398 0.0
C607 C 0.76347 0.83794 0.2933 0.0
C608 C 0.67403 0.81989 0.16851 0.0
C609 C 0.69004 0.83741 0.14987 0.0
C610 C 0.69636 0.81976 0.19736 0.0
C611 C 0.73526 0.83706 0.20819 0.0
C612 C 0.75149 0.85436 0.18943 0.0
C613 C 0.72903 0.85462 0.16059 0.0
H614 H 0.68018 0.22685 0.78762 0.0
H615 H 0.80373 0.26866 0.80609 0.0
H616 H 0.68683 0.18706 0.75886 0.0
H617 H 0.81034 0.22927 0.77705 0.0
H618 H 0.81457 0.14609 0.74247 0.0
H619 H 0.80516 0.18091 0.77692 0.0
H620 H 0.70201 0.17792 0.70932 0.0
H621 H 0.71161 0.14343 0.6747 0.0
C622 C 0.70879 0.22736 0.78586 0.0
C623 C 0.74139 0.25088 0.79888 0.0
C624 C 0.71256 0.20473 0.76922 0.0
C625 C 0.74908 0.20509 0.76558 0.0
C626 C 0.78186 0.22824 0.77964 0.0
C627 C 0.77804 0.2509 0.79603 0.0
C628 C 0.78992 0.15289 0.73491 0.0
C629 C 0.76402 0.14207 0.7057 0.0
C630 C 0.78448 0.17276 0.7547 0.0
C631 C 0.75291 0.1822 0.7458 0.0
C632 C 0.72632 0.17079 0.71701 0.0
C633 C 0.73185 0.15101 0.69716 0.0
H634 H 0.30251 0.35583 0.27684 0.0
H635 H 0.22369 0.27594 0.22965 0.0
H636 H 0.34055 0.35647 0.23971 0.0
H637 H 0.26219 0.27633 0.19289 0.0
H638 H 0.42335 0.33066 0.19073 0.0
H639 H 0.38364 0.33164 0.22654 0.0
H640 H 0.27955 0.30072 0.15132 0.0
H641 H 0.3196 0.29978 0.11566 0.0
C642 C 0.29317 0.33851 0.2584 0.0
C643 C 0.26017 0.31582 0.25616 0.0
C644 C 0.31515 0.33876 0.23733 0.0
C645 C 0.30442 0.31641 0.21347 0.0
C646 C 0.27101 0.29393 0.21091 0.0
C647 C 0.24919 0.29361 0.23209 0.0
C648 C 0.39197 0.32416 0.18203 0.0
C649 C 0.37428 0.31502 0.15069 0.0
C650 C 0.36929 0.32484 0.20238 0.0
C651 C 0.32848 0.31626 0.19171 0.0
C652 C 0.31088 0.30718 0.16022 0.0
C653 C 0.33364 0.3067 0.13986 0.0
H654 H 0.82714 0.75378 0.70013 0.0
H655 H 0.87506 0.76913 0.79792 0.0
H656 H 0.84948 0.71422 0.6956 0.0
H657 H 0.89749 0.72993 0.79339 0.0
H658 H 0.96678 0.67574 0.76858 0.0
H659 H 0.9464 0.71594 0.77046 0.0
H660 H 0.83262 0.66744 0.71269 0.0
H661 H 0.85237 0.62686 0.71154 0.0
C662 C 0.8426 0.74875 0.72057 0.0
C663 C 0.84918 0.76437 0.74933 0.0
C664 C 0.85518 0.72611 0.71801 0.0
C665 C 0.87517 0.71903 0.74415 0.0
C666 C 0.88241 0.73504 0.77284 0.0
C667 C 0.86936 0.75739 0.77543 0.0
C668 C 0.93725 0.67348 0.75653 0.0
C669 C 0.91111 0.64789 0.74017 0.0
C670 C 0.9257 0.69658 0.75749 0.0
C671 C 0.88793 0.69477 0.74179 0.0
C672 C 0.86206 0.66945 0.72476 0.0
C673 C 0.87345 0.64623 0.72408 0.0
H674 H 0.85117 0.35583 0.36498 0.0
H675 H 0.85167 0.37753 0.45875 0.0
H676 H 0.90421 0.39818 0.37003 0.0
H677 H 0.90546 0.42018 0.46409 0.0
H678 H 0.0125 0.46907 0.38878 0.0
H679 H 0.97277 0.42412 0.39482 0.0
H680 H 0.90916 0.46261 0.44224 0.0
H681 H 0.94949 0.50752 0.43642 0.0
C682 C 0.86324 0.36952 0.38687 0.0
C683 C 0.84727 0.36359 0.41142 0.0
C684 C 0.89381 0.39369 0.38987 0.0
C685 C 0.909 0.41258 0.41746 0.0
C686 C 0.89414 0.40608 0.4425 0.0
C687 C 0.86366 0.38166 0.43955 0.0
C688 C 0.99059 0.46778 0.40112 0.0
C689 C 0.98384 0.49145 0.41223 0.0
C690 C 0.96777 0.44217 0.40445 0.0
C691 C 0.93765 0.43981 0.41882 0.0
C692 C 0.9324 0.46376 0.43139 0.0
C693 C 0.95528 0.48941 0.42801 0.0
H694 H 0.1136 0.34824 0.7987 0.0
H695 H 0.12683 0.34752 0.70704 0.0
H696 H 0.08263 0.38267 0.79236 0.0
H697 H 0.09233 0.38004 0.69962 0.0
H698 H 0.07134 0.46222 0.7086 0.0
H699 H 0.09976 0.42584 0.71235 0.0
H700 H 0.02731 0.39196 0.77028 0.0
H701 H 0.00109 0.42945 0.76788 0.0
C702 C 0.10975 0.35527 0.77708 0.0
C703 C 0.12327 0.34518 0.75354 0.0
C704 C 0.09119 0.37475 0.7732 0.0
C705 C 0.08476 0.38431 0.74542 0.0
C706 C 0.09727 0.37363 0.72155 0.0
C707 C 0.11654 0.35451 0.72564 0.0
C708 C 0.06151 0.44682 0.72195 0.0
C709 C 0.03433 0.44859 0.7381 0.0
C710 C 0.07755 0.42583 0.72401 0.0
C711 C 0.06612 0.40585 0.7418 0.0
C712 C 0.0377 0.40726 0.75701 0.0
C713 C 0.02236 0.42857 0.75547 0.0
H714 H 0.30233 0.74592 0.29578 0.0
H715 H 0.19306 0.76128 0.27361 0.0
H716 H 0.27074 0.70372 0.3126 0.0
H717 H 0.16154 0.71929 0.2901 0.0
H718 H 0.13211 0.66667 0.36021 0.0
H719 H 0.16589 0.70625 0.34056 0.0
H720 H 0.22017 0.65726 0.29611 0.0
H721 H 0.18647 0.61771 0.31639 0.0
C722 C 0.27142 0.73995 0.29391 0.0
C723 C 0.2502 0.75698 0.28379 0.0
C724 C 0.25338 0.71588 0.30359 0.0
C725 C 0.21385 0.70852 0.30324 0.0
C726 C 0.19227 0.7248 0.29141 0.0
C727 C 0.21024 0.74875 0.28182 0.0
C728 C 0.15159 0.66459 0.34648 0.0
C729 C 0.1569 0.63945 0.33966 0.0
C730 C 0.17062 0.68706 0.33499 0.0
C731 C 0.19528 0.68475 0.31643 0.0
C732 C 0.20144 0.65965 0.31039 0.0
C733 C 0.18225 0.6371 0.32188 0.0
H734 H 0.82814 0.91697 0.79727 0.0
H735 H 0.78862 0.85747 0.71392 0.0
H736 H 0.82713 0.95315 0.76762 0.0
H737 H 0.78768 0.8938 0.68415 0.0
H738 H 0.82527 0.97166 0.64241 0.0
H739 H 0.82996 0.93516 0.67147 0.0
H740 H 0.77714 0.96695 0.73518 0.0
H741 H 0.77317 0.00351 0.70623 0.0
C742 C 0.8192 0.91162 0.77258 0.0
C743 C 0.8081 0.88431 0.75794 0.0
C744 C 0.81856 0.93235 0.7556 0.0
C745 C 0.80689 0.9263 0.72354 0.0
C746 C 0.79705 0.89913 0.70883 0.0
C747 C 0.79765 0.87833 0.72586 0.0
C748 C 0.8147 0.97063 0.66264 0.0
C749 C 0.79884 0.9901 0.67227 0.0
C750 C 0.8172 0.94978 0.67916 0.0
C751 C 0.80404 0.94822 0.70568 0.0
C752 C 0.78805 0.96782 0.71512 0.0
C753 C 0.78549 0.98858 0.69854 0.0
H754 H 0.69791 0.26976 0.33312 0.0
H755 H 0.71674 0.35572 0.35923 0.0
H756 H 0.64913 0.26796 0.28646 0.0
H757 H 0.66854 0.35397 0.31263 0.0
H758 H 0.62541 0.34795 0.20908 0.0
H759 H 0.6681 0.34775 0.25774 0.0
H760 H 0.58364 0.27359 0.26658 0.0
H761 H 0.54025 0.27401 0.21803 0.0
C762 C 0.69116 0.28812 0.32917 0.0
C763 C 0.71156 0.31296 0.34963 0.0
C764 C 0.66332 0.28711 0.30244 0.0
C765 C 0.65551 0.31093 0.2957 0.0
C766 C 0.67458 0.33542 0.31689 0.0
C767 C 0.70216 0.3364 0.34357 0.0
C768 C 0.6156 0.33177 0.22151 0.0
C769 C 0.57923 0.31109 0.20963 0.0
C770 C 0.64014 0.33164 0.2494 0.0
C771 C 0.62909 0.31075 0.26606 0.0
C772 C 0.59302 0.28984 0.25412 0.0
C773 C 0.56826 0.29007 0.22626 0.0
H774 H 0.12412 0.224 0.66966 0.0
H775 H 0.24737 0.23818 0.70175 0.0
H776 H 0.11711 0.18367 0.63346 0.0
H777 H 0.24068 0.19846 0.66539 0.0
H778 H 0.21361 0.11246 0.61957 0.0
H779 H 0.21337 0.14922 0.65684 0.0
H780 H 0.13519 0.17132 0.58688 0.0
H781 H 0.13509 0.13419 0.54961 0.0
C782 C 0.14969 0.21855 0.66887 0.0
C783 C 0.18634 0.23414 0.68848 0.0
C784 C 0.14571 0.19553 0.64811 0.0
C785 C 0.17828 0.18771 0.64671 0.0
C786 C 0.21486 0.20354 0.66628 0.0
C787 C 0.21879 0.22644 0.68693 0.0
C788 C 0.19621 0.12509 0.61221 0.0
C789 C 0.17472 0.12067 0.58163 0.0
C790 C 0.19613 0.14619 0.63352 0.0
C791 C 0.17473 0.16348 0.62472 0.0
C792 C 0.15179 0.15827 0.59443 0.0
C793 C 0.15174 0.13703 0.57309 0.0
H794 H 0.39864 0.77175 0.20628 0.0
H795 H 0.37167 0.84598 0.19734 0.0
H796 H 0.43674 0.78081 0.16919 0.0
H797 H 0.41034 0.85535 0.1607 0.0
H798 H 0.44515 0.84455 0.07026 0.0
H799 H 0.40827 0.83753 0.1086 0.0
H800 H 0.49696 0.81214 0.16393 0.0
H801 H 0.53315 0.8188 0.12521 0.0
C802 C 0.40108 0.79007 0.19648 0.0
C803 C 0.38224 0.80811 0.20467 0.0
C804 C 0.42307 0.79537 0.1754 0.0
C805 C 0.42667 0.81885 0.16204 0.0
C806 C 0.40781 0.83694 0.17033 0.0
C807 C 0.38582 0.83164 0.19145 0.0
C808 C 0.45668 0.83772 0.09082 0.0
C809 C 0.49181 0.83229 0.09511 0.0
C810 C 0.43578 0.83377 0.11278 0.0
C811 C 0.44964 0.82421 0.1393 0.0
C812 C 0.48521 0.81916 0.14359 0.0
C813 C 0.50606 0.82313 0.12165 0.0
H814 H 0.84046 0.27527 0.52017 0.0
H815 H 0.74608 0.22534 0.44335 0.0
H816 H 0.83854 0.23505 0.54371 0.0
H817 H 0.74353 0.18519 0.46711 0.0
H818 H 0.78144 0.11526 0.50334 0.0
H819 H 0.78138 0.15527 0.47942 0.0
H820 H 0.7984 0.20289 0.56762 0.0
H821 H 0.79916 0.16289 0.59127 0.0
C822 C 0.81914 0.25569 0.50845 0.0
C823 C 0.79349 0.25345 0.47998 0.0
C824 C 0.81786 0.23268 0.52198 0.0
C825 C 0.79083 0.20686 0.50733 0.0
C826 C 0.76502 0.20468 0.47885 0.0
C827 C 0.76633 0.22773 0.4653 0.0
C828 C 0.78495 0.13433 0.51738 0.0
C829 C 0.79019 0.13622 0.54897 0.0
C830 C 0.78475 0.15717 0.50379 0.0
C831 C 0.78992 0.18232 0.52161 0.0
C832 C 0.79487 0.18397 0.55328 0.0
C833 C 0.79506 0.16113 0.56682 0.0
H834 H 0.19711 0.26747 0.82185 0.0
H835 H 0.2436 0.3553 0.8315 0.0
H836 H 0.24108 0.26972 0.87095 0.0
H837 H 0.28675 0.35767 0.88129 0.0
H838 H 0.38955 0.34573 0.94983 0.0
H839 H 0.34425 0.34528 0.90202 0.0
H840 H 0.25213 0.28501 0.92522 0.0
H841 H 0.29741 0.28544 0.97298 0.0
C842 C 0.21669 0.28728 0.83452 0.0
C843 C 0.21702 0.3112 0.82272 0.0
C844 C 0.24158 0.2886 0.86283 0.0
C845 C 0.2674 0.31388 0.88006 0.0
C846 C 0.26746 0.33786 0.86843 0.0
C847 C 0.24247 0.33653 0.84008 0.0
C848 C 0.35952 0.33262 0.94489 0.0
C849 C 0.34713 0.31553 0.96515 0.0
C850 C 0.33355 0.33238 0.9175 0.0
C851 C 0.2946 0.31505 0.90977 0.0
C852 C 0.28209 0.29827 0.93026 0.0
C853 C 0.30805 0.2985 0.95762 0.0
H854 H 0.27981 0.84292 0.34721 0.0
H855 H 0.26657 0.87706 0.26474 0.0
H856 H 0.26168 0.87849 0.37252 0.0
H857 H 0.24862 0.91308 0.29037 0.0
H858 H 0.25854 0.98761 0.36304 0.0
H859 H 0.27608 0.95345 0.33393 0.0
H860 H 0.20079 0.88953 0.36723 0.0
H861 H 0.18411 0.92354 0.39686 0.0
C862 C 0.27293 0.85803 0.33447 0.0
C863 C 0.27405 0.85697 0.30385 0.0
C864 C 0.26249 0.87837 0.34895 0.0
C865 C 0.25308 0.89826 0.33324 0.0
C866 C 0.25572 0.89797 0.303 0.0
C867 C 0.26609 0.87745 0.28839 0.0
C868 C 0.24566 0.96624 0.36402 0.0
C869 C 0.22013 0.95828 0.3824 0.0
C870 C 0.25547 0.9467 0.34718 0.0
C871 C 0.24014 0.91889 0.34861 0.0
C872 C 0.21351 0.91088 0.36607 0.0
C873 C 0.2036 0.93034 0.38275 0.0
H874 H 0.72947 0.79996 0.82948 0.0
H875 H 0.79975 0.88457 0.86419 0.0
H876 H 0.69613 0.80085 0.8697 0.0
H877 H 0.76627 0.88548 0.90444 0.0
H878 H 0.7232 0.86284 0.99032 0.0
H879 H 0.75897 0.86289 0.95131 0.0
H880 H 0.65008 0.82529 0.88182 0.0
H881 H 0.61458 0.82569 0.92079 0.0
C882 C 0.73799 0.81865 0.8459 0.0
C883 C 0.76713 0.8422 0.84377 0.0
C884 C 0.71873 0.81923 0.86872 0.0
C885 C 0.72856 0.84327 0.89005 0.0
C886 C 0.75828 0.86666 0.88834 0.0
C887 C 0.77722 0.86619 0.86526 0.0
C888 C 0.70714 0.8549 0.96662 0.0
C889 C 0.66634 0.84443 0.95831 0.0
C890 C 0.72746 0.85491 0.94439 0.0
C891 C 0.70724 0.844 0.91362 0.0
C892 C 0.66637 0.83356 0.90542 0.0
C893 C 0.6461 0.8339 0.92757 0.0
loop_
_geom_bond_atom_site_label_1
_geom_bond_atom_site_label_2
_geom_bond_distance
_geom_bond_site_symmetry_2
_ccdc_geom_bond_type
H0 C5 0.930 . S
H1 C8 0.930 . S
H2 C10 0.930 . S
H3 C4 1.016 . S
C4 H3 1.016 . S
C4 N11 1.286 . S
C5 H0 0.930 . S
C5 C6 1.397 . S
C5 C7 1.361 . S
C6 C5 1.397 . S
C6 C10 1.390 . S
C7 C5 1.361 . S
C7 C8 1.393 . S
C7 N11 1.413 . S
C8 H1 0.930 . S
C8 C7 1.393 . S
C8 C9 1.399 . S
C9 C8 1.399 . S
C9 C10 1.381 . S
C10 H2 0.930 . S
C10 C6 1.390 . S
C10 C9 1.381 . S
N11 C4 1.286 . S
N11 C7 1.413 . S
H12 C17 0.930 . S
H13 C20 0.930 . S
H14 C22 0.930 . S
H15 C16 1.016 . S
C16 H15 1.016 . S
C16 N23 1.286 . S
C17 H12 0.930 . S
C17 C18 1.397 . S
C17 C19 1.361 . S
C18 C17 1.397 . S
C18 C22 1.390 . S
C19 C17 1.361 . S
C19 C20 1.393 . S
C19 N23 1.413 . S
C20 H13 0.930 . S
C20 C19 1.393 . S
C20 C21 1.399 . S
C21 C20 1.399 . S
C21 C22 1.381 . S
C22 H14 0.930 . S
C22 C18 1.390 . S
C22 C21 1.381 . S
N23 C16 1.286 . S
N23 C19 1.413 . S
H24 C29 0.930 . S
H25 C32 0.930 . S
H26 C34 0.930 . S
H27 C28 1.016 . S
C28 H27 1.016 . S
C28 N35 1.286 . S
C29 H24 0.930 . S
C29 C30 1.397 . S
C29 C31 1.361 . S
C30 C29 1.397 . S
C30 C34 1.390 . S
C31 C29 1.361 . S
C31 C32 1.393 . S
C31 N35 1.413 . S
C32 H25 0.930 . S
C32 C31 1.393 . S
C32 C33 1.399 . S
C33 C32 1.399 . S
C33 C34 1.381 . S
C34 H26 0.930 . S
C34 C30 1.390 . S
C34 C33 1.381 . S
N35 C28 1.286 . S
N35 C31 1.413 . S
H36 C41 0.930 . S
H37 C44 0.930 . S
H38 C46 0.930 . S
H39 C40 1.016 . S
C40 H39 1.016 . S
C40 N47 1.286 . S
C41 H36 0.930 . S
C41 C42 1.397 . S
C41 C43 1.361 . S
C42 C41 1.397 . S
C42 C46 1.390 . S
C43 C41 1.361 . S
C43 C44 1.393 . S
C43 N47 1.413 . S
C44 H37 0.930 . S
C44 C43 1.393 . S
C44 C45 1.399 . S
C45 C44 1.399 . S
C45 C46 1.381 . S
C46 H38 0.930 . S
C46 C42 1.390 . S
C46 C45 1.381 . S
N47 C40 1.286 . S
N47 C43 1.413 . S
H48 C53 0.930 . S
H49 C56 0.930 . S
H50 C58 0.930 . S
H51 C52 1.016 . S
C52 H51 1.016 . S
C52 N59 1.286 . S
C53 H48 0.930 . S
C53 C54 1.397 . S
C53 C55 1.361 . S
C54 C53 1.397 . S
C54 C58 1.390 . S
C55 C53 1.361 . S
C55 C56 1.393 . S
C55 N59 1.413 . S
C56 H49 0.930 . S
C56 C55 1.393 . S
C56 C57 1.399 . S
C57 C56 1.399 . S
C57 C58 1.381 . S
C58 H50 0.930 . S
C58 C54 1.390 . S
C58 C57 1.381 . S
N59 C52 1.286 . S
N59 C55 1.413 . S
H60 C65 0.930 . S
H61 C68 0.930 . S
H62 C70 0.930 . S
H63 C64 1.016 . S
C64 H63 1.016 . S
C64 N71 1.286 . S
C65 H60 0.930 . S
C65 C66 1.397 . S
C65 C67 1.361 . S
C66 C65 1.397 . S
C66 C70 1.390 . S
C67 C65 1.361 . S
C67 C68 1.393 . S
C67 N71 1.413 . S
C68 H61 0.930 . S
C68 C67 1.393 . S
C68 C69 1.399 . S
C69 C68 1.399 . S
C69 C70 1.381 . S
C70 H62 0.930 . S
C70 C66 1.390 . S
C70 C69 1.381 . S
N71 C64 1.286 . S
N71 C67 1.413 . S
H72 C77 0.930 . S
H73 C80 0.930 . S
H74 C82 0.930 . S
H75 C76 1.016 . S
C76 H75 1.016 . S
C76 N83 1.286 . S
C77 H72 0.930 . S
C77 C78 1.397 . S
C77 C79 1.361 . S
C78 C77 1.397 . S
C78 C82 1.390 . S
C79 C77 1.361 . S
C79 C80 1.393 . S
C79 N83 1.413 . S
C80 H73 0.930 . S
C80 C79 1.393 . S
C80 C81 1.399 . S
C81 C80 1.399 . S
C81 C82 1.381 . S
C82 H74 0.930 . S
C82 C78 1.390 . S
C82 C81 1.381 . S
N83 C76 1.286 . S
N83 C79 1.413 . S
H84 C89 0.930 . S
H85 C92 0.930 . S
H86 C94 0.930 . S
H87 C88 1.016 . S
C88 H87 1.016 . S
C88 N95 1.286 . S
C89 H84 0.930 . S
C89 C90 1.397 . S
C89 C91 1.361 . S
C90 C89 1.397 . S
C90 C94 1.390 . S
C91 C89 1.361 . S
C91 C92 1.393 . S
C91 N95 1.413 . S
C92 H85 0.930 . S
C92 C91 1.393 . S
C92 C93 1.399 . S
C93 C92 1.399 . S
C93 C94 1.381 . S
C94 H86 0.930 . S
C94 C90 1.390 . S
C94 C93 1.381 . S
N95 C88 1.286 . S
N95 C91 1.413 . S
C96 C97 1.443 . S
C96 N100 1.376 . S
C96 C134 1.389 . S
C97 C96 1.443 . S
C97 C98 1.340 . S
C97 H137 0.951 . S
C98 C97 1.340 . S
C98 C99 1.439 . S
C98 H138 0.950 . S
C99 C98 1.439 . S
C99 N100 1.374 . S
C99 C133 1.395 . S
N100 C96 1.376 . S
N100 C99 1.374 . S
N100 Co101 2.008 . S
Co101 N100 2.008 . S
Co101 N102 1.995 . S
Co101 N107 2.008 . S
Co101 N112 1.995 . S
Co101 N117 2.282 . S
Co101 N123 2.282 . S
N102 Co101 1.995 . S
N102 C103 1.376 . S
N102 C106 1.383 . S
C103 N102 1.376 . S
C103 C104 1.446 . S
C103 C133 1.391 . S
C104 C103 1.446 . S
C104 C105 1.339 . S
C104 H139 0.949 . S
C105 C104 1.339 . S
C105 C106 1.439 . S
C105 H140 0.950 . S
C106 N102 1.383 . S
C106 C105 1.439 . S
C106 C135 1.392 . S
N107 Co101 2.008 . S
N107 C108 1.376 . S
N107 C111 1.374 . S
C108 N107 1.376 . S
C108 C109 1.433 1_455 S
C108 C135 1.389 . S
C109 C108 1.433 1_655 S
C109 C110 1.333 1_655 S
C109 H141 0.966 . S
C110 C109 1.333 1_455 S
C110 C111 1.439 . S
C110 H142 0.950 1_455 S
C111 N107 1.374 . S
C111 C110 1.439 . S
C111 C136 1.395 . S
N112 Co101 1.995 . S
N112 C113 1.376 . S
N112 C116 1.383 . S
C113 N112 1.376 . S
C113 C114 1.446 . S
C113 C136 1.391 . S
C114 C113 1.446 . S
C114 C115 1.339 . S
C114 H143 0.949 . S
C115 C114 1.339 . S
C115 C116 1.439 . S
C115 H144 0.950 . S
C116 N112 1.383 . S
C116 C115 1.439 . S
C116 C134 1.392 . S
N117 Co101 2.282 . S
N117 C120 1.332 . S
N117 C122 1.332 . S
C118 C119 1.386 . S
C118 C121 1.388 . S
C119 C118 1.386 . S
C119 C120 1.382 . S
C119 H145 0.950 . S
C120 N117 1.332 . S
C120 C119 1.382 . S
C120 H131 0.952 . S
C121 C118 1.388 . S
C121 C122 1.382 . S
C121 H146 0.950 . S
C122 N117 1.332 . S
C122 C121 1.382 . S
C122 H132 0.948 . S
N123 Co101 2.282 . S
N123 C127 1.332 . S
N123 C128 1.332 . S
C124 C125 1.388 . S
C124 C128 1.382 . S
C124 H147 0.950 . S
C125 C124 1.388 . S
C125 C126 1.386 . S
C126 C125 1.386 . S
C126 C127 1.382 . S
C126 H148 0.950 . S
C127 N123 1.332 . S
C127 C126 1.382 . S
C127 H129 0.952 . S
C128 N123 1.332 . S
C128 C124 1.382 . S
C128 H130 0.948 . S
H129 C127 0.952 . S
H130 C128 0.948 . S
H131 C120 0.952 . S
H132 C122 0.948 . S
C133 C99 1.395 . S
C133 C103 1.391 . S
C134 C96 1.389 . S
C134 C116 1.392 . S
C135 C106 1.392 . S
C135 C108 1.389 . S
C136 C111 1.395 . S
C136 C113 1.391 . S
H137 C97 0.951 . S
H138 C98 0.950 . S
H139 C104 0.949 . S
H140 C105 0.950 . S
H141 C109 0.966 . S
H142 C110 0.950 1_655 S
H143 C114 0.949 . S
H144 C115 0.950 . S
H145 C119 0.950 . S
H146 C121 0.950 . S
H147 C124 0.950 . S
H148 C126 0.950 . S
C149 C150 1.443 . S
C149 N153 1.376 . S
C149 C187 1.389 . S
C150 C149 1.443 . S
C150 C151 1.340 . S
C150 H190 0.951 . S
C151 C150 1.340 . S
C151 C152 1.439 . S
C151 H191 0.950 . S
C152 C151 1.439 . S
C152 N153 1.374 . S
C152 C186 1.395 . S
N153 C149 1.376 . S
N153 C152 1.374 . S
N153 Co154 2.008 . S
Co154 N153 2.008 . S
Co154 N155 1.995 1_455 S
Co154 N160 2.008 1_455 S
Co154 N165 1.995 . S
Co154 N170 2.282 . S
Co154 N176 2.282 1_455 S
N155 Co154 1.995 1_655 S
N155 C156 1.376 1_655 S
N155 C159 1.383 . S
C156 N155 1.376 1_455 S
C156 C157 1.446 . S
C156 C186 1.391 . S
C157 C156 1.446 . S
C157 C158 1.339 1_455 S
C157 H192 0.949 . S
C158 C157 1.339 1_655 S
C158 C159 1.439 . S
C158 H193 0.950 . S
C159 N155 1.383 . S
C159 C158 1.439 . S
C159 C188 1.392 . S
N160 Co154 2.008 1_655 S
N160 C161 1.376 . S
N160 C164 1.374 . S
C161 N160 1.376 . S
C161 C162 1.443 . S
C161 C188 1.389 . S
C162 C161 1.443 . S
C162 C163 1.340 . S
C162 H194 0.951 . S
C163 C162 1.340 . S
C163 C164 1.439 . S
C163 H195 0.950 . S
C164 N160 1.374 . S
C164 C163 1.439 . S
C164 C189 1.395 . S
N165 Co154 1.995 . S
N165 C166 1.376 1_455 S
N165 C169 1.383 . S
C166 N165 1.376 1_655 S
C166 C167 1.457 . S
C166 C189 1.391 . S
C167 C166 1.457 . S
C167 C168 1.324 1_655 S
C167 H196 0.953 . S
C168 C167 1.324 1_455 S
C168 C169 1.439 . S
C168 H197 0.950 . S
C169 N165 1.383 . S
C169 C168 1.439 . S
C169 C187 1.392 . S
N170 Co154 2.282 . S
N170 C173 1.332 . S
N170 C175 1.332 . S
C171 C172 1.386 . S
C171 C174 1.388 . S
C172 C171 1.386 . S
C172 C173 1.382 . S
C172 H198 0.950 . S
C173 N170 1.332 . S
C173 C172 1.382 . S
C173 H184 0.952 . S
C174 C171 1.388 . S
C174 C175 1.382 . S
C174 H199 0.950 . S
C175 N170 1.332 . S
C175 C174 1.382 . S
C175 H185 0.948 . S
N176 Co154 2.282 1_655 S
N176 C180 1.332 . S
N176 C181 1.332 . S
C177 C178 1.388 . S
C177 C181 1.382 . S
C177 H200 0.950 . S
C178 C177 1.388 . S
C178 C179 1.386 . S
C179 C178 1.386 . S
C179 C180 1.382 . S
C179 H201 0.950 . S
C180 N176 1.332 . S
C180 C179 1.382 . S
C180 H182 0.952 . S
C181 N176 1.332 . S
C181 C177 1.382 . S
C181 H183 0.948 . S
H182 C180 0.952 . S
H183 C181 0.948 . S
H184 C173 0.952 . S
H185 C175 0.948 . S
C186 C152 1.395 . S
C186 C156 1.391 . S
C187 C149 1.389 . S
C187 C169 1.392 . S
C188 C159 1.392 . S
C188 C161 1.389 . S
C189 C164 1.395 . S
C189 C166 1.391 . S
H190 C150 0.951 . S
H191 C151 0.950 . S
H192 C157 0.949 . S
H193 C158 0.950 . S
H194 C162 0.951 . S
H195 C163 0.950 . S
H196 C167 0.953 . S
H197 C168 0.950 . S
H198 C172 0.950 . S
H199 C174 0.950 . S
H200 C177 0.950 . S
H201 C179 0.950 . S
C202 C203 1.443 . S
C202 N206 1.376 . S
C202 C240 1.389 . S
C203 C202 1.443 . S
C203 C204 1.340 . S
C203 H243 0.951 . S
C204 C203 1.340 . S
C204 C205 1.439 1_565 S
C204 H244 0.950 . S
C205 C204 1.439 1_545 S
C205 N206 1.374 1_545 S
C205 C239 1.395 . S
N206 C202 1.376 . S
N206 C205 1.374 1_565 S
N206 Co207 2.008 1_565 S
Co207 N206 2.008 1_545 S
Co207 N208 1.995 . S
Co207 N213 2.008 . S
Co207 N218 1.995 1_545 S
Co207 N223 2.282 . S
Co207 N229 2.282 1_545 S
N208 Co207 1.995 . S
N208 C209 1.376 . S
N208 C212 1.383 . S
C209 N208 1.376 . S
C209 C210 1.446 . S
C209 C239 1.391 . S
C210 C209 1.446 . S
C210 C211 1.339 . S
C210 H245 0.949 . S
C211 C210 1.339 . S
C211 C212 1.439 . S
C211 H246 0.950 . S
C212 N208 1.383 . S
C212 C211 1.439 . S
C212 C241 1.392 . S
N213 Co207 2.008 . S
N213 C214 1.376 . S
N213 C217 1.374 1_545 S
C214 N213 1.376 . S
C214 C215 1.443 . S
C214 C241 1.389 . S
C215 C214 1.443 . S
C215 C216 1.340 . S
C215 H247 0.951 . S
C216 C215 1.340 . S
C216 C217 1.439 1_545 S
C216 H248 0.950 . S
C217 N213 1.374 1_565 S
C217 C216 1.439 1_565 S
C217 C242 1.395 . S
N218 Co207 1.995 1_565 S
N218 C219 1.376 . S
N218 C222 1.383 . S
C219 N218 1.376 . S
C219 C220 1.446 . S
C219 C242 1.391 . S
C220 C219 1.446 . S
C220 C221 1.339 . S
C220 H249 0.949 . S
C221 C220 1.339 . S
C221 C222 1.439 . S
C221 H250 0.950 . S
C222 N218 1.383 . S
C222 C221 1.439 . S
C222 C240 1.392 . S
N223 Co207 2.282 . S
N223 C226 1.332 . S
N223 C228 1.332 . S
C224 C225 1.386 . S
C224 C227 1.388 . S
C225 C224 1.386 . S
C225 C226 1.382 . S
C225 H251 0.950 . S
C226 N223 1.332 . S
C226 C225 1.382 . S
C226 H237 0.952 . S
C227 C224 1.388 . S
C227 C228 1.382 . S
C227 H252 0.950 . S
C228 N223 1.332 . S
C228 C227 1.382 . S
C228 H238 0.948 . S
N229 Co207 2.282 1_565 S
N229 C233 1.332 . S
N229 C234 1.332 . S
C230 C231 1.388 . S
C230 C234 1.382 . S
C230 H253 0.950 . S
C231 C230 1.388 . S
C231 C232 1.386 . S
C232 C231 1.386 . S
C232 C233 1.382 . S
C232 H254 0.950 . S
C233 N229 1.332 . S
C233 C232 1.382 . S
C233 H235 0.952 . S
C234 N229 1.332 . S
C234 C230 1.382 . S
C234 H236 0.948 . S
H235 C233 0.952 . S
H236 C234 0.948 . S
H237 C226 0.952 . S
H238 C228 0.948 . S
C239 C205 1.395 . S
C239 C209 1.391 . S
C240 C202 1.389 . S
C240 C222 1.392 . S
C241 C212 1.392 . S
C241 C214 1.389 . S
C242 C217 1.395 . S
C242 C219 1.391 . S
H243 C203 0.951 . S
H244 C204 0.950 . S
H245 C210 0.949 . S
H246 C211 0.950 . S
H247 C215 0.951 . S
H248 C216 0.950 . S
H249 C220 0.949 . S
H250 C221 0.950 . S
H251 C225 0.950 . S
H252 C227 0.950 . S
H253 C230 0.950 . S
H254 C232 0.950 . S
C255 C256 1.443 . S
C255 N259 1.376 . S
C255 C293 1.389 . S
C256 C255 1.443 . S
C256 C257 1.340 . S
C256 H296 0.951 . S
C257 C256 1.340 . S
C257 C258 1.439 . S
C257 H297 0.950 . S
C258 C257 1.439 . S
C258 N259 1.374 . S
C258 C292 1.395 . S
N259 C255 1.376 . S
N259 C258 1.374 . S
N259 Co260 2.008 . S
Co260 N259 2.008 . S
Co260 N261 1.995 . S
Co260 N266 2.008 1_554 S
Co260 N271 1.995 . S
Co260 N276 2.282 1_554 S
Co260 N282 2.282 . S
N261 Co260 1.995 . S
N261 C262 1.376 . S
N261 C265 1.383 1_554 S
C262 N261 1.376 . S
C262 C263 1.446 . S
C262 C292 1.391 . S
C263 C262 1.446 . S
C263 C264 1.339 1_554 S
C263 H298 0.949 . S
C264 C263 1.339 1_556 S
C264 C265 1.439 . S
C264 H299 0.950 . S
C265 N261 1.383 1_556 S
C265 C264 1.439 . S
C265 C294 1.392 . S
N266 Co260 2.008 1_556 S
N266 C267 1.376 . S
N266 C270 1.374 . S
C267 N266 1.376 . S
C267 C268 1.443 . S
C267 C294 1.389 . S
C268 C267 1.443 . S
C268 C269 1.340 . S
C268 H300 0.951 . S
C269 C268 1.340 . S
C269 C270 1.439 . S
C269 H301 0.950 . S
C270 N266 1.374 . S
C270 C269 1.439 . S
C270 C295 1.395 1_556 S
N271 Co260 1.995 . S
N271 C272 1.376 . S
N271 C275 1.383 . S
C272 N271 1.376 . S
C272 C273 1.446 . S
C272 C295 1.391 . S
C273 C272 1.446 . S
C273 C274 1.339 . S
C273 H302 0.949 . S
C274 C273 1.339 . S
C274 C275 1.439 . S
C274 H303 0.950 . S
C275 N271 1.383 . S
C275 C274 1.439 . S
C275 C293 1.392 . S
N276 Co260 2.282 1_556 S
N276 C279 1.332 . S
N276 C281 1.332 . S
C277 C278 1.386 . S
C277 C280 1.388 . S
C278 C277 1.386 . S
C278 C279 1.382 . S
C278 H304 0.950 . S
C279 N276 1.332 . S
C279 C278 1.382 . S
C279 H290 0.952 . S
C280 C277 1.388 . S
C280 C281 1.382 . S
C280 H305 0.950 . S
C281 N276 1.332 . S
C281 C280 1.382 . S
C281 H291 0.948 . S
N282 Co260 2.282 . S
N282 C286 1.332 . S
N282 C287 1.332 . S
C283 C284 1.388 . S
C283 C287 1.382 . S
C283 H306 0.950 . S
C284 C283 1.388 . S
C284 C285 1.386 . S
C285 C284 1.386 . S
C285 C286 1.382 . S
C285 H307 0.950 . S
C286 N282 1.332 . S
C286 C285 1.382 . S
C286 H288 0.952 . S
C287 N282 1.332 . S
C287 C283 1.382 . S
C287 H289 0.948 . S
H288 C286 0.952 . S
H289 C287 0.948 . S
H290 C279 0.952 . S
H291 C281 0.948 . S
C292 C258 1.395 . S
C292 C262 1.391 . S
C293 C255 1.389 . S
C293 C275 1.392 . S
C294 C265 1.392 . S
C294 C267 1.389 . S
C295 C270 1.395 1_554 S
C295 C272 1.391 . S
H296 C256 0.951 . S
H297 C257 0.950 . S
H298 C263 0.949 . S
H299 C264 0.950 . S
H300 C268 0.951 . S
H301 C269 0.950 . S
H302 C273 0.949 . S
H303 C274 0.950 . S
H304 C278 0.950 . S
H305 C280 0.950 . S
H306 C283 0.950 . S
H307 C285 0.950 . S
C308 C309 1.443 . S
C308 N312 1.376 . S
C308 C346 1.389 . S
C309 C308 1.443 . S
C309 C310 1.340 . S
C309 H349 0.951 . S
C310 C309 1.340 . S
C310 C311 1.439 . S
C310 H350 0.950 . S
C311 C310 1.439 . S
C311 N312 1.374 . S
C311 C345 1.395 . S
N312 C308 1.376 . S
N312 C311 1.374 . S
N312 Co313 2.008 . S
Co313 N312 2.008 . S
Co313 N314 1.995 . S
Co313 N319 2.008 . S
Co313 N324 1.995 . S
Co313 N329 2.282 . S
Co313 N335 2.282 . S
N314 Co313 1.995 . S
N314 C315 1.376 . S
N314 C318 1.383 . S
C315 N314 1.376 . S
C315 C316 1.446 . S
C315 C345 1.391 . S
C316 C315 1.446 . S
C316 C317 1.339 . S
C316 H351 0.949 . S
C317 C316 1.339 . S
C317 C318 1.439 . S
C317 H352 0.950 . S
C318 N314 1.383 . S
C318 C317 1.439 . S
C318 C347 1.392 . S
N319 Co313 2.008 . S
N319 C320 1.376 . S
N319 C323 1.374 . S
C320 N319 1.376 . S
C320 C321 1.443 . S
C320 C347 1.389 . S
C321 C320 1.443 . S
C321 C322 1.340 . S
C321 H353 0.951 . S
C322 C321 1.340 . S
C322 C323 1.439 . S
C322 H354 0.950 . S
C323 N319 1.374 . S
C323 C322 1.439 . S
C323 C348 1.395 . S
N324 Co313 1.995 . S
N324 C325 1.376 . S
N324 C328 1.383 . S
C325 N324 1.376 . S
C325 C326 1.446 1_545 S
C325 C348 1.391 . S
C326 C325 1.446 1_565 S
C326 C327 1.339 . S
C326 H355 0.949 . S
C327 C326 1.339 . S
C327 C328 1.439 1_565 S
C327 H356 0.950 . S
C328 N324 1.383 . S
C328 C327 1.439 1_545 S
C328 C346 1.392 . S
N329 Co313 2.282 . S
N329 C332 1.332 . S
N329 C334 1.332 . S
C330 C331 1.386 . S
C330 C333 1.388 . S
C331 C330 1.386 . S
C331 C332 1.382 . S
C331 H357 0.950 . S
C332 N329 1.332 . S
C332 C331 1.382 . S
C332 H343 0.952 . S
C333 C330 1.388 . S
C333 C334 1.382 . S
C333 H358 0.950 . S
C334 N329 1.332 . S
C334 C333 1.382 . S
C334 H344 0.948 . S
N335 Co313 2.282 . S
N335 C339 1.332 . S
N335 C340 1.332 . S
C336 C337 1.388 . S
C336 C340 1.382 1_565 S
C336 H359 0.950 . S
C337 C336 1.388 . S
C337 C338 1.386 1_565 S
C338 C337 1.386 1_545 S
C338 C339 1.382 . S
C338 H360 0.950 . S
C339 N335 1.332 . S
C339 C338 1.382 . S
C339 H341 0.952 . S
C340 N335 1.332 . S
C340 C336 1.382 1_545 S
C340 H342 0.944 . S
H341 C339 0.952 . S
H342 C340 0.944 . S
H343 C332 0.952 . S
H344 C334 0.948 . S
C345 C311 1.395 . S
C345 C315 1.391 . S
C346 C308 1.389 . S
C346 C328 1.392 . S
C347 C318 1.392 . S
C347 C320 1.389 . S
C348 C323 1.395 . S
C348 C325 1.391 . S
H349 C309 0.951 . S
H350 C310 0.950 . S
H351 C316 0.949 . S
H352 C317 0.950 . S
H353 C321 0.951 . S
H354 C322 0.950 . S
H355 C326 0.949 . S
H356 C327 0.950 . S
H357 C331 0.950 . S
H358 C333 0.950 . S
H359 C336 0.950 . S
H360 C338 0.950 . S
C361 C362 1.443 . S
C361 N365 1.376 . S
C361 C399 1.389 . S
C362 C361 1.443 . S
C362 C363 1.340 . S
C362 H402 0.951 . S
C363 C362 1.340 . S
C363 C364 1.439 . S
C363 H403 0.950 . S
C364 C363 1.439 . S
C364 N365 1.374 . S
C364 C398 1.395 . S
N365 C361 1.376 . S
N365 C364 1.374 . S
N365 Co366 2.008 . S
Co366 N365 2.008 . S
Co366 N367 1.995 . S
Co366 N372 2.008 . S
Co366 N377 1.995 . S
Co366 N382 2.282 . S
Co366 N388 2.282 . S
N367 Co366 1.995 . S
N367 C368 1.376 . S
N367 C371 1.383 . S
C368 N367 1.376 . S
C368 C369 1.446 . S
C368 C398 1.391 . S
C369 C368 1.446 . S
C369 C370 1.339 . S
C369 H404 0.949 . S
C370 C369 1.339 . S
C370 C371 1.439 . S
C370 H405 0.950 . S
C371 N367 1.383 . S
C371 C370 1.439 . S
C371 C400 1.392 . S
N372 Co366 2.008 . S
N372 C373 1.376 . S
N372 C376 1.374 . S
C373 N372 1.376 . S
C373 C374 1.443 . S
C373 C400 1.389 . S
C374 C373 1.443 . S
C374 C375 1.340 . S
C374 H406 0.951 . S
C375 C374 1.340 . S
C375 C376 1.439 . S
C375 H407 0.950 . S
C376 N372 1.374 . S
C376 C375 1.439 . S
C376 C401 1.395 . S
N377 Co366 1.995 . S
N377 C378 1.376 . S
N377 C381 1.383 . S
C378 N377 1.376 . S
C378 C379 1.446 . S
C378 C401 1.391 . S
C379 C378 1.446 . S
C379 C380 1.339 . S
C379 H408 0.949 . S
C380 C379 1.339 . S
C380 C381 1.439 . S
C380 H409 0.950 . S
C381 N377 1.383 . S
C381 C380 1.439 . S
C381 C399 1.392 . S
N382 Co366 2.282 . S
N382 C385 1.332 . S
N382 C387 1.332 . S
C383 C384 1.386 1_556 S
C383 C386 1.388 1_556 S
C384 C383 1.386 1_554 S
C384 C385 1.382 . S
C384 H410 0.950 . S
C385 N382 1.332 . S
C385 C384 1.382 . S
C385 H396 0.952 . S
C386 C383 1.388 1_554 S
C386 C387 1.382 . S
C386 H411 0.950 . S
C387 N382 1.332 . S
C387 C386 1.382 . S
C387 H397 0.948 . S
N388 Co366 2.282 . S
N388 C392 1.332 . S
N388 C393 1.332 . S
C389 C390 1.388 . S
C389 C393 1.382 . S
C389 H412 0.950 . S
C390 C389 1.388 . S
C390 C391 1.386 . S
C391 C390 1.386 . S
C391 C392 1.382 . S
C391 H413 0.950 . S
C392 N388 1.332 . S
C392 C391 1.382 . S
C392 H394 0.952 . S
C393 N388 1.332 . S
C393 C389 1.382 . S
C393 H395 0.948 . S
H394 C392 0.952 . S
H395 C393 0.948 . S
H396 C385 0.952 . S
H397 C387 0.948 . S
C398 C364 1.395 . S
C398 C368 1.391 . S
C399 C361 1.389 . S
C399 C381 1.392 . S
C400 C371 1.392 . S
C400 C373 1.389 . S
C401 C376 1.395 . S
C401 C378 1.391 . S
H402 C362 0.951 . S
H403 C363 0.950 . S
H404 C369 0.949 . S
H405 C370 0.950 . S
H406 C374 0.951 . S
H407 C375 0.950 . S
H408 C379 0.949 . S
H409 C380 0.950 . S
H410 C384 0.950 . S
H411 C386 0.950 . S
H412 C389 0.950 . S
H413 C391 0.950 . S
H414 C422 0.950 . S
H415 C427 0.950 . S
H416 C424 0.950 . S
H417 C426 0.950 . S
H418 C428 0.950 . S
H419 C430 0.950 . S
H420 C432 0.950 . S
H421 C433 0.950 . S
C422 H414 0.950 . S
C422 C423 1.386 . S
C422 C424 1.391 . S
C423 C422 1.386 . S
C423 C427 1.393 . S
C424 H416 0.950 . S
C424 C422 1.391 . S
C424 C425 1.400 . S
C425 C424 1.400 . S
C425 C426 1.398 . S
C425 C431 1.491 . S
C426 H417 0.950 . S
C426 C425 1.398 . S
C426 C427 1.391 . S
C427 H415 0.950 . S
C427 C423 1.393 . S
C427 C426 1.391 . S
C428 H418 0.950 . S
C428 C429 1.386 . S
C428 C430 1.391 . S
C429 C428 1.386 . S
C429 C433 1.393 . S
C430 H419 0.950 . S
C430 C428 1.391 . S
C430 C431 1.400 . S
C431 C425 1.491 . S
C431 C430 1.400 . S
C431 C432 1.398 . S
C432 H420 0.950 . S
C432 C431 1.398 . S
C432 C433 1.391 . S
C433 H421 0.950 . S
C433 C429 1.393 . S
C433 C432 1.391 . S
H434 C442 0.950 . S
H435 C447 0.950 . S
H436 C444 0.950 . S
H437 C446 0.950 . S
H438 C448 0.950 . S
H439 C450 0.950 . S
H440 C452 0.950 . S
H441 C453 0.950 . S
C442 H434 0.950 . S
C442 C443 1.386 . S
C442 C444 1.391 . S
C443 C442 1.386 . S
C443 C447 1.393 . S
C444 H436 0.950 . S
C444 C442 1.391 . S
C444 C445 1.400 . S
C445 C444 1.400 . S
C445 C446 1.398 . S
C445 C451 1.491 . S
C446 H437 0.950 . S
C446 C445 1.398 . S
C446 C447 1.391 . S
C447 H435 0.950 . S
C447 C443 1.393 . S
C447 C446 1.391 . S
C448 H438 0.950 . S
C448 C449 1.386 . S
C448 C450 1.391 . S
C449 C448 1.386 . S
C449 C453 1.393 . S
C450 H439 0.950 . S
C450 C448 1.391 . S
C450 C451 1.400 . S
C451 C445 1.491 . S
C451 C450 1.400 . S
C451 C452 1.398 . S
C452 H440 0.950 . S
C452 C451 1.398 . S
C452 C453 1.391 . S
C453 H441 0.950 . S
C453 C449 1.393 . S
C453 C452 1.391 . S
H454 C462 0.950 . S
H455 C467 0.950 . S
H456 C464 0.950 . S
H457 C466 0.950 . S
H458 C468 0.950 . S
H459 C470 0.950 . S
H460 C472 0.950 . S
H461 C473 0.950 . S
C462 H454 0.950 . S
C462 C463 1.386 . S
C462 C464 1.391 . S
C463 C462 1.386 . S
C463 C467 1.393 . S
C464 H456 0.950 . S
C464 C462 1.391 . S
C464 C465 1.400 . S
C465 C464 1.400 . S
C465 C466 1.398 . S
C465 C471 1.491 . S
C466 H457 0.950 . S
C466 C465 1.398 . S
C466 C467 1.391 . S
C467 H455 0.950 . S
C467 C463 1.393 . S
C467 C466 1.391 . S
C468 H458 0.950 . S
C468 C469 1.386 1_655 S
C468 C470 1.391 . S
C469 C468 1.386 1_455 S
C469 C473 1.393 . S
C470 H459 0.950 . S
C470 C468 1.391 . S
C470 C471 1.400 . S
C471 C465 1.491 . S
C471 C470 1.400 . S
C471 C472 1.398 1_655 S
C472 H460 0.950 . S
C472 C471 1.398 1_455 S
C472 C473 1.391 . S
C473 H461 0.950 . S
C473 C469 1.393 . S
C473 C472 1.391 . S
H474 C482 0.950 . S
H475 C487 0.950 . S
H476 C484 0.950 . S
H477 C486 0.950 . S
H478 C488 0.950 . S
H479 C490 0.950 . S
H480 C492 0.950 . S
H481 C493 0.950 . S
C482 H474 0.950 . S
C482 C483 1.386 . S
C482 C484 1.391 . S
C483 C482 1.386 . S
C483 C487 1.393 . S
C484 H476 0.950 . S
C484 C482 1.391 . S
C484 C485 1.400 . S
C485 C484 1.400 . S
C485 C486 1.398 . S
C485 C491 1.491 . S
C486 H477 0.950 . S
C486 C485 1.398 . S
C486 C487 1.391 . S
C487 H475 0.950 . S
C487 C483 1.393 . S
C487 C486 1.391 . S
C488 H478 0.950 . S
C488 C489 1.386 . S
C488 C490 1.391 . S
C489 C488 1.386 . S
C489 C493 1.393 . S
C490 H479 0.950 . S
C490 C488 1.391 . S
C490 C491 1.400 . S
C491 C485 1.491 . S
C491 C490 1.400 . S
C491 C492 1.398 . S
C492 H480 0.950 . S
C492 C491 1.398 . S
C492 C493 1.391 . S
C493 H481 0.950 . S
C493 C489 1.393 . S
C493 C492 1.391 . S
H494 C502 0.950 . S
H495 C507 0.950 . S
H496 C504 0.950 . S
H497 C506 0.950 . S
H498 C508 0.950 . S
H499 C510 0.950 . S
H500 C512 0.950 . S
H501 C513 0.950 . S
C502 H494 0.950 . S
C502 C503 1.386 . S
C502 C504 1.391 . S
C503 C502 1.386 . S
C503 C507 1.393 . S
C504 H496 0.950 . S
C504 C502 1.391 . S
C504 C505 1.400 . S
C505 C504 1.400 . S
C505 C506 1.398 . S
C505 C511 1.491 . S
C506 H497 0.950 . S
C506 C505 1.398 . S
C506 C507 1.391 . S
C507 H495 0.950 . S
C507 C503 1.393 . S
C507 C506 1.391 . S
C508 H498 0.950 . S
C508 C509 1.386 . S
C508 C510 1.391 . S
C509 C508 1.386 . S
C509 C513 1.393 . S
C510 H499 0.950 . S
C510 C508 1.391 . S
C510 C511 1.400 . S
C511 C505 1.491 . S
C511 C510 1.400 . S
C511 C512 1.398 . S
C512 H500 0.950 . S
C512 C511 1.398 . S
C512 C513 1.391 . S
C513 H501 0.950 . S
C513 C509 1.393 . S
C513 C512 1.391 . S
H514 C522 0.950 . S
H515 C527 0.950 . S
H516 C524 0.950 . S
H517 C526 0.950 . S
H518 C528 0.950 . S
H519 C530 0.950 . S
H520 C532 0.950 . S
H521 C533 0.950 . S
C522 H514 0.950 . S
C522 C523 1.386 . S
C522 C524 1.391 . S
C523 C522 1.386 . S
C523 C527 1.393 . S
C524 H516 0.950 . S
C524 C522 1.391 . S
C524 C525 1.400 . S
C525 C524 1.400 . S
C525 C526 1.398 . S
C525 C531 1.491 . S
C526 H517 0.950 . S
C526 C525 1.398 . S
C526 C527 1.391 . S
C527 H515 0.950 . S
C527 C523 1.393 . S
C527 C526 1.391 . S
C528 H518 0.950 . S
C528 C529 1.386 . S
C528 C530 1.391 . S
C529 C528 1.386 . S
C529 C533 1.393 . S
C530 H519 0.950 . S
C530 C528 1.391 . S
C530 C531 1.400 . S
C531 C525 1.491 . S
C531 C530 1.400 . S
C531 C532 1.398 . S
C532 H520 0.950 . S
C532 C531 1.398 . S
C532 C533 1.391 . S
C533 H521 0.950 . S
C533 C529 1.393 . S
C533 C532 1.391 . S
H534 C542 0.950 . S
H535 C547 0.950 . S
H536 C544 0.950 . S
H537 C546 0.950 . S
H538 C548 0.950 . S
H539 C550 0.950 . S
H540 C552 0.950 . S
H541 C553 0.950 . S
C542 H534 0.950 . S
C542 C543 1.386 . S
C542 C544 1.391 . S
C543 C542 1.386 . S
C543 C547 1.393 . S
C544 H536 0.950 . S
C544 C542 1.391 . S
C544 C545 1.400 . S
C545 C544 1.400 . S
C545 C546 1.398 . S
C545 C551 1.491 . S
C546 H537 0.950 . S
C546 C545 1.398 . S
C546 C547 1.391 . S
C547 H535 0.950 . S
C547 C543 1.393 . S
C547 C546 1.391 . S
C548 H538 0.950 . S
C548 C549 1.386 . S
C548 C550 1.391 . S
C549 C548 1.386 . S
C549 C553 1.393 . S
C550 H539 0.950 . S
C550 C548 1.391 . S
C550 C551 1.400 . S
C551 C545 1.491 . S
C551 C550 1.400 . S
C551 C552 1.398 . S
C552 H540 0.950 . S
C552 C551 1.398 . S
C552 C553 1.391 . S
C553 H541 0.950 . S
C553 C549 1.393 . S
C553 C552 1.391 . S
H554 C562 0.950 . S
H555 C567 0.950 . S
H556 C564 0.950 . S
H557 C566 0.950 . S
H558 C568 0.950 . S
H559 C570 0.950 . S
H560 C572 0.950 . S
H561 C573 0.950 . S
C562 H554 0.950 . S
C562 C563 1.386 . S
C562 C564 1.391 . S
C563 C562 1.386 . S
C563 C567 1.393 . S
C564 H556 0.950 . S
C564 C562 1.391 . S
C564 C565 1.400 . S
C565 C564 1.400 . S
C565 C566 1.398 . S
C565 C571 1.491 . S
C566 H557 0.950 . S
C566 C565 1.398 . S
C566 C567 1.391 . S
C567 H555 0.950 . S
C567 C563 1.393 . S
C567 C566 1.391 . S
C568 H558 0.950 . S
C568 C569 1.386 . S
C568 C570 1.391 1_554 S
C569 C568 1.386 . S
C569 C573 1.393 . S
C570 H559 0.950 . S
C570 C568 1.391 1_556 S
C570 C571 1.400 . S
C571 C565 1.491 . S
C571 C570 1.400 . S
C571 C572 1.398 . S
C572 H560 0.950 . S
C572 C571 1.398 . S
C572 C573 1.391 1_556 S
C573 H561 0.950 . S
C573 C569 1.393 . S
C573 C572 1.391 1_554 S
H574 C582 0.950 . S
H575 C587 0.950 . S
H576 C584 0.950 . S
H577 C586 0.950 . S
H578 C588 0.950 . S
H579 C590 0.950 . S
H580 C592 0.950 . S
H581 C593 0.950 . S
C582 H574 0.950 . S
C582 C583 1.386 . S
C582 C584 1.391 . S
C583 C582 1.386 . S
C583 C587 1.393 . S
C584 H576 0.950 . S
C584 C582 1.391 . S
C584 C585 1.400 . S
C585 C584 1.400 . S
C585 C586 1.398 . S
C585 C591 1.491 . S
C586 H577 0.950 . S
C586 C585 1.398 . S
C586 C587 1.391 . S
C587 H575 0.950 . S
C587 C583 1.393 . S
C587 C586 1.391 . S
C588 H578 0.950 . S
C588 C589 1.386 . S
C588 C590 1.391 . S
C589 C588 1.386 . S
C589 C593 1.393 . S
C590 H579 0.950 . S
C590 C588 1.391 . S
C590 C591 1.400 . S
C591 C585 1.491 . S
C591 C590 1.400 . S
C591 C592 1.398 . S
C592 H580 0.950 . S
C592 C591 1.398 . S
C592 C593 1.391 . S
C593 H581 0.950 . S
C593 C589 1.393 . S
C593 C592 1.391 . S
H594 C602 0.950 . S
H595 C607 0.950 . S
H596 C604 0.950 . S
H597 C606 0.950 . S
H598 C608 0.950 . S
H599 C610 0.950 . S
H600 C612 0.950 . S
H601 C613 0.950 . S
C602 H594 0.950 . S
C602 C603 1.386 . S
C602 C604 1.391 . S
C603 C602 1.386 . S
C603 C607 1.393 . S
C604 H596 0.950 . S
C604 C602 1.391 . S
C604 C605 1.400 . S
C605 C604 1.400 . S
C605 C606 1.398 . S
C605 C611 1.491 . S
C606 H597 0.950 . S
C606 C605 1.398 . S
C606 C607 1.391 . S
C607 H595 0.950 . S
C607 C603 1.393 . S
C607 C606 1.391 . S
C608 H598 0.950 . S
C608 C609 1.386 . S
C608 C610 1.391 . S
C609 C608 1.386 . S
C609 C613 1.393 . S
C610 H599 0.950 . S
C610 C608 1.391 . S
C610 C611 1.400 . S
C611 C605 1.491 . S
C611 C610 1.400 . S
C611 C612 1.398 . S
C612 H600 0.950 . S
C612 C611 1.398 . S
C612 C613 1.391 . S
C613 H601 0.950 . S
C613 C609 1.393 . S
C613 C612 1.391 . S
H614 C622 0.950 . S
H615 C627 0.950 . S
H616 C624 0.950 . S
H617 C626 0.950 . S
H618 C628 0.950 . S
H619 C630 0.950 . S
H620 C632 0.950 . S
H621 C633 0.950 . S
C622 H614 0.950 . S
C622 C623 1.386 . S
C622 C624 1.391 . S
C623 C622 1.386 . S
C623 C627 1.393 . S
C624 H616 0.950 . S
C624 C622 1.391 . S
C624 C625 1.400 . S
C625 C624 1.400 . S
C625 C626 1.398 . S
C625 C631 1.491 . S
C626 H617 0.950 . S
C626 C625 1.398 . S
C626 C627 1.391 . S
C627 H615 0.950 . S
C627 C623 1.393 . S
C627 C626 1.391 . S
C628 H618 0.950 . S
C628 C629 1.386 . S
C628 C630 1.391 . S
C629 C628 1.386 . S
C629 C633 1.393 . S
C630 H619 0.950 . S
C630 C628 1.391 . S
C630 C631 1.400 . S
C631 C625 1.491 . S
C631 C630 1.400 . S
C631 C632 1.398 . S
C632 H620 0.950 . S
C632 C631 1.398 . S
C632 C633 1.391 . S
C633 H621 0.950 . S
C633 C629 1.393 . S
C633 C632 1.391 . S
H634 C642 0.950 . S
H635 C647 0.950 . S
H636 C644 0.950 . S
H637 C646 0.950 . S
H638 C648 0.950 . S
H639 C650 0.950 . S
H640 C652 0.950 . S
H641 C653 0.950 . S
C642 H634 0.950 . S
C642 C643 1.386 . S
C642 C644 1.391 . S
C643 C642 1.386 . S
C643 C647 1.393 . S
C644 H636 0.950 . S
C644 C642 1.391 . S
C644 C645 1.400 . S
C645 C644 1.400 . S
C645 C646 1.398 . S
C645 C651 1.491 . S
C646 H637 0.950 . S
C646 C645 1.398 . S
C646 C647 1.391 . S
C647 H635 0.950 . S
C647 C643 1.393 . S
C647 C646 1.391 . S
C648 H638 0.950 . S
C648 C649 1.386 . S
C648 C650 1.391 . S
C649 C648 1.386 . S
C649 C653 1.393 . S
C650 H639 0.950 . S
C650 C648 1.391 . S
C650 C651 1.400 . S
C651 C645 1.491 . S
C651 C650 1.400 . S
C651 C652 1.398 . S
C652 H640 0.950 . S
C652 C651 1.398 . S
C652 C653 1.391 . S
C653 H641 0.950 . S
C653 C649 1.393 . S
C653 C652 1.391 . S
H654 C662 0.950 . S
H655 C667 0.950 . S
H656 C664 0.950 . S
H657 C666 0.950 . S
H658 C668 0.950 . S
H659 C670 0.950 . S
H660 C672 0.950 . S
H661 C673 0.950 . S
C662 H654 0.950 . S
C662 C663 1.386 . S
C662 C664 1.391 . S
C663 C662 1.386 . S
C663 C667 1.393 . S
C664 H656 0.950 . S
C664 C662 1.391 . S
C664 C665 1.400 . S
C665 C664 1.400 . S
C665 C666 1.398 . S
C665 C671 1.491 . S
C666 H657 0.950 . S
C666 C665 1.398 . S
C666 C667 1.391 . S
C667 H655 0.950 . S
C667 C663 1.393 . S
C667 C666 1.391 . S
C668 H658 0.950 . S
C668 C669 1.386 . S
C668 C670 1.391 . S
C669 C668 1.386 . S
C669 C673 1.393 . S
C670 H659 0.950 . S
C670 C668 1.391 . S
C670 C671 1.400 . S
C671 C665 1.491 . S
C671 C670 1.400 . S
C671 C672 1.398 . S
C672 H660 0.950 . S
C672 C671 1.398 . S
C672 C673 1.391 . S
C673 H661 0.950 . S
C673 C669 1.393 . S
C673 C672 1.391 . S
H674 C682 0.950 . S
H675 C687 0.950 . S
H676 C684 0.950 . S
H677 C686 0.950 . S
H678 C688 0.950 1_455 S
H679 C690 0.950 . S
H680 C692 0.950 . S
H681 C693 0.950 . S
C682 H674 0.950 . S
C682 C683 1.386 . S
C682 C684 1.391 . S
C683 C682 1.386 . S
C683 C687 1.393 . S
C684 H676 0.950 . S
C684 C682 1.391 . S
C684 C685 1.400 . S
C685 C684 1.400 . S
C685 C686 1.398 . S
C685 C691 1.491 . S
C686 H677 0.950 . S
C686 C685 1.398 . S
C686 C687 1.391 . S
C687 H675 0.950 . S
C687 C683 1.393 . S
C687 C686 1.391 . S
C688 H678 0.950 1_655 S
C688 C689 1.389 . S
C688 C690 1.391 . S
C689 C688 1.389 . S
C689 C693 1.398 . S
C690 H679 0.950 . S
C690 C688 1.391 . S
C690 C691 1.400 . S
C691 C685 1.491 . S
C691 C690 1.400 . S
C691 C692 1.398 . S
C692 H680 0.950 . S
C692 C691 1.398 . S
C692 C693 1.391 . S
C693 H681 0.950 . S
C693 C689 1.398 . S
C693 C692 1.391 . S
H694 C702 0.950 . S
H695 C707 0.950 . S
H696 C704 0.950 . S
H697 C706 0.950 . S
H698 C708 0.950 . S
H699 C710 0.950 . S
H700 C712 0.950 . S
H701 C713 0.950 . S
C702 H694 0.950 . S
C702 C703 1.386 . S
C702 C704 1.391 . S
C703 C702 1.386 . S
C703 C707 1.393 . S
C704 H696 0.950 . S
C704 C702 1.391 . S
C704 C705 1.400 . S
C705 C704 1.400 . S
C705 C706 1.398 . S
C705 C711 1.491 . S
C706 H697 0.950 . S
C706 C705 1.398 . S
C706 C707 1.391 . S
C707 H695 0.950 . S
C707 C703 1.393 . S
C707 C706 1.391 . S
C708 H698 0.950 . S
C708 C709 1.386 . S
C708 C710 1.391 . S
C709 C708 1.386 . S
C709 C713 1.393 . S
C710 H699 0.950 . S
C710 C708 1.391 . S
C710 C711 1.400 . S
C711 C705 1.491 . S
C711 C710 1.400 . S
C711 C712 1.398 . S
C712 H700 0.950 . S
C712 C711 1.398 . S
C712 C713 1.391 . S
C713 H701 0.950 . S
C713 C709 1.393 . S
C713 C712 1.391 . S
H714 C722 0.950 . S
H715 C727 0.950 . S
H716 C724 0.950 . S
H717 C726 0.950 . S
H718 C728 0.950 . S
H719 C730 0.950 . S
H720 C732 0.950 . S
H721 C733 0.950 . S
C722 H714 0.950 . S
C722 C723 1.386 . S
C722 C724 1.391 . S
C723 C722 1.386 . S
C723 C727 1.393 . S
C724 H716 0.950 . S
C724 C722 1.391 . S
C724 C725 1.400 . S
C725 C724 1.400 . S
C725 C726 1.398 . S
C725 C731 1.491 . S
C726 H717 0.950 . S
C726 C725 1.398 . S
C726 C727 1.391 . S
C727 H715 0.950 . S
C727 C723 1.393 . S
C727 C726 1.391 . S
C728 H718 0.950 . S
C728 C729 1.386 . S
C728 C730 1.391 . S
C729 C728 1.386 . S
C729 C733 1.393 . S
C730 H719 0.950 . S
C730 C728 1.391 . S
C730 C731 1.400 . S
C731 C725 1.491 . S
C731 C730 1.400 . S
C731 C732 1.398 . S
C732 H720 0.950 . S
C732 C731 1.398 . S
C732 C733 1.391 . S
C733 H721 0.950 . S
C733 C729 1.393 . S
C733 C732 1.391 . S
H734 C742 0.950 . S
H735 C747 0.950 . S
H736 C744 0.950 . S
H737 C746 0.950 . S
H738 C748 0.950 . S
H739 C750 0.950 . S
H740 C752 0.950 . S
H741 C753 0.950 . S
C742 H734 0.950 . S
C742 C743 1.386 . S
C742 C744 1.391 . S
C743 C742 1.386 . S
C743 C747 1.393 . S
C744 H736 0.950 . S
C744 C742 1.391 . S
C744 C745 1.400 . S
C745 C744 1.400 . S
C745 C746 1.398 . S
C745 C751 1.491 . S
C746 H737 0.950 . S
C746 C745 1.398 . S
C746 C747 1.391 . S
C747 H735 0.950 . S
C747 C743 1.393 . S
C747 C746 1.391 . S
C748 H738 0.950 . S
C748 C749 1.386 . S
C748 C750 1.391 . S
C749 C748 1.386 . S
C749 C753 1.393 . S
C750 H739 0.950 . S
C750 C748 1.391 . S
C750 C751 1.400 . S
C751 C745 1.491 . S
C751 C750 1.400 . S
C751 C752 1.398 . S
C752 H740 0.950 . S
C752 C751 1.398 . S
C752 C753 1.391 . S
C753 H741 0.950 . S
C753 C749 1.393 . S
C753 C752 1.391 . S
H754 C762 0.950 . S
H755 C767 0.950 . S
H756 C764 0.950 . S
H757 C766 0.950 . S
H758 C768 0.950 . S
H759 C770 0.950 . S
H760 C772 0.950 . S
H761 C773 0.950 . S
C762 H754 0.950 . S
C762 C763 1.386 . S
C762 C764 1.391 . S
C763 C762 1.386 . S
C763 C767 1.393 . S
C764 H756 0.950 . S
C764 C762 1.391 . S
C764 C765 1.400 . S
C765 C764 1.400 . S
C765 C766 1.398 . S
C765 C771 1.491 . S
C766 H757 0.950 . S
C766 C765 1.398 . S
C766 C767 1.391 . S
C767 H755 0.950 . S
C767 C763 1.393 . S
C767 C766 1.391 . S
C768 H758 0.950 . S
C768 C769 1.386 . S
C768 C770 1.391 . S
C769 C768 1.386 . S
C769 C773 1.393 . S
C770 H759 0.950 . S
C770 C768 1.391 . S
C770 C771 1.400 . S
C771 C765 1.491 . S
C771 C770 1.400 . S
C771 C772 1.398 . S
C772 H760 0.950 . S
C772 C771 1.398 . S
C772 C773 1.391 . S
C773 H761 0.950 . S
C773 C769 1.393 . S
C773 C772 1.391 . S
H774 C782 0.950 . S
H775 C787 0.950 . S
H776 C784 0.950 . S
H777 C786 0.950 . S
H778 C788 0.950 . S
H779 C790 0.950 . S
H780 C792 0.950 . S
H781 C793 0.950 . S
C782 H774 0.950 . S
C782 C783 1.386 . S
C782 C784 1.391 . S
C783 C782 1.386 . S
C783 C787 1.393 . S
C784 H776 0.950 . S
C784 C782 1.391 . S
C784 C785 1.400 . S
C785 C784 1.400 . S
C785 C786 1.398 . S
C785 C791 1.491 . S
C786 H777 0.950 . S
C786 C785 1.398 . S
C786 C787 1.391 . S
C787 H775 0.950 . S
C787 C783 1.393 . S
C787 C786 1.391 . S
C788 H778 0.950 . S
C788 C789 1.386 . S
C788 C790 1.391 . S
C789 C788 1.386 . S
C789 C793 1.393 . S
C790 H779 0.950 . S
C790 C788 1.391 . S
C790 C791 1.400 . S
C791 C785 1.491 . S
C791 C790 1.400 . S
C791 C792 1.398 . S
C792 H780 0.950 . S
C792 C791 1.398 . S
C792 C793 1.391 . S
C793 H781 0.950 . S
C793 C789 1.393 . S
C793 C792 1.391 . S
H794 C802 0.950 . S
H795 C807 0.950 . S
H796 C804 0.950 . S
H797 C806 0.950 . S
H798 C808 0.950 . S
H799 C810 0.950 . S
H800 C812 0.950 . S
H801 C813 0.950 . S
C802 H794 0.950 . S
C802 C803 1.386 . S
C802 C804 1.391 . S
C803 C802 1.386 . S
C803 C807 1.393 . S
C804 H796 0.950 . S
C804 C802 1.391 . S
C804 C805 1.400 . S
C805 C804 1.400 . S
C805 C806 1.398 . S
C805 C811 1.491 . S
C806 H797 0.950 . S
C806 C805 1.398 . S
C806 C807 1.391 . S
C807 H795 0.950 . S
C807 C803 1.393 . S
C807 C806 1.391 . S
C808 H798 0.950 . S
C808 C809 1.386 . S
C808 C810 1.391 . S
C809 C808 1.386 . S
C809 C813 1.393 . S
C810 H799 0.950 . S
C810 C808 1.391 . S
C810 C811 1.400 . S
C811 C805 1.491 . S
C811 C810 1.400 . S
C811 C812 1.398 . S
C812 H800 0.950 . S
C812 C811 1.398 . S
C812 C813 1.391 . S
C813 H801 0.950 . S
C813 C809 1.393 . S
C813 C812 1.391 . S
H814 C822 0.950 . S
H815 C827 0.950 . S
H816 C824 0.950 . S
H817 C826 0.950 . S
H818 C828 0.950 . S
H819 C830 0.950 . S
H820 C832 0.950 . S
H821 C833 0.950 . S
C822 H814 0.950 . S
C822 C823 1.386 . S
C822 C824 1.391 . S
C823 C822 1.386 . S
C823 C827 1.393 . S
C824 H816 0.950 . S
C824 C822 1.391 . S
C824 C825 1.400 . S
C825 C824 1.400 . S
C825 C826 1.398 . S
C825 C831 1.491 . S
C826 H817 0.950 . S
C826 C825 1.398 . S
C826 C827 1.391 . S
C827 H815 0.950 . S
C827 C823 1.393 . S
C827 C826 1.391 . S
C828 H818 0.950 . S
C828 C829 1.386 . S
C828 C830 1.391 . S
C829 C828 1.386 . S
C829 C833 1.393 . S
C830 H819 0.950 . S
C830 C828 1.391 . S
C830 C831 1.400 . S
C831 C825 1.491 . S
C831 C830 1.400 . S
C831 C832 1.398 . S
C832 H820 0.950 . S
C832 C831 1.398 . S
C832 C833 1.391 . S
C833 H821 0.950 . S
C833 C829 1.393 . S
C833 C832 1.391 . S
H834 C842 0.950 . S
H835 C847 0.950 . S
H836 C844 0.950 . S
H837 C846 0.950 . S
H838 C848 0.950 . S
H839 C850 0.950 . S
H840 C852 0.950 . S
H841 C853 0.950 . S
C842 H834 0.950 . S
C842 C843 1.386 . S
C842 C844 1.391 . S
C843 C842 1.386 . S
C843 C847 1.393 . S
C844 H836 0.950 . S
C844 C842 1.391 . S
C844 C845 1.400 . S
C845 C844 1.400 . S
C845 C846 1.398 . S
C845 C851 1.491 . S
C846 H837 0.950 . S
C846 C845 1.398 . S
C846 C847 1.391 . S
C847 H835 0.950 . S
C847 C843 1.393 . S
C847 C846 1.391 . S
C848 H838 0.950 . S
C848 C849 1.386 . S
C848 C850 1.391 . S
C849 C848 1.386 . S
C849 C853 1.393 . S
C850 H839 0.950 . S
C850 C848 1.391 . S
C850 C851 1.400 . S
C851 C845 1.491 . S
C851 C850 1.400 . S
C851 C852 1.398 . S
C852 H840 0.950 . S
C852 C851 1.398 . S
C852 C853 1.391 . S
C853 H841 0.950 . S
C853 C849 1.393 . S
C853 C852 1.391 . S
H854 C862 0.950 . S
H855 C867 0.950 . S
H856 C864 0.950 . S
H857 C866 0.950 . S
H858 C868 0.950 . S
H859 C870 0.950 . S
H860 C872 0.950 . S
H861 C873 0.950 . S
C862 H854 0.950 . S
C862 C863 1.386 . S
C862 C864 1.391 . S
C863 C862 1.386 . S
C863 C867 1.393 . S
C864 H856 0.950 . S
C864 C862 1.391 . S
C864 C865 1.400 . S
C865 C864 1.400 . S
C865 C866 1.398 . S
C865 C871 1.491 . S
C866 H857 0.950 . S
C866 C865 1.398 . S
C866 C867 1.391 . S
C867 H855 0.950 . S
C867 C863 1.393 . S
C867 C866 1.391 . S
C868 H858 0.950 . S
C868 C869 1.386 . S
C868 C870 1.391 . S
C869 C868 1.386 . S
C869 C873 1.393 . S
C870 H859 0.950 . S
C870 C868 1.391 . S
C870 C871 1.400 . S
C871 C865 1.491 . S
C871 C870 1.400 . S
C871 C872 1.398 . S
C872 H860 0.950 . S
C872 C871 1.398 . S
C872 C873 1.391 . S
C873 H861 0.950 . S
C873 C869 1.393 . S
C873 C872 1.391 . S
H874 C882 0.950 . S
H875 C887 0.950 . S
H876 C884 0.950 . S
H877 C886 0.950 . S
H878 C888 0.950 . S
H879 C890 0.950 . S
H880 C892 0.950 . S
H881 C893 0.950 . S
C882 H874 0.950 . S
C882 C883 1.386 . S
C882 C884 1.391 . S
C883 C882 1.386 . S
C883 C887 1.393 . S
C884 H876 0.950 . S
C884 C882 1.391 . S
C884 C885 1.400 . S
C885 C884 1.400 . S
C885 C886 1.398 . S
C885 C891 1.491 . S
C886 H877 0.950 . S
C886 C885 1.398 . S
C886 C887 1.391 . S
C887 H875 0.950 . S
C887 C883 1.393 . S
C887 C886 1.391 . S
C888 H878 0.950 . S
C888 C889 1.386 . S
C888 C890 1.391 . S
C889 C888 1.386 . S
C889 C893 1.393 . S
C890 H879 0.950 . S
C890 C888 1.391 . S
C890 C891 1.400 . S
C891 C885 1.491 . S
C891 C890 1.400 . S
C891 C892 1.398 . S
C892 H880 0.950 . S
C892 C891 1.398 . S
C892 C893 1.391 . S
C893 H881 0.950 . S
C893 C889 1.393 . S
C893 C892 1.391 . S
C429 C118 1.617 . S
C423 C6 1.621 . S
C449 C187 1.432 . S
C443 C18 1.415 . S
C469 C125 1.606 . S
C463 C28 1.609 . S
C489 C188 1.534 . S
C483 C45 1.524 . S
C509 C241 1.478 . S
C503 C4 1.494 . S
C529 C277 1.719 . S
C523 C21 1.717 . S
C543 C33 1.661 . S
C549 C337 1.674 . S
C569 C400 1.699 . S
C563 C40 1.686 . S
C589 C240 1.610 . S
C583 C16 1.600 . S
C603 C30 1.722 . S
C609 C284 1.709 . S
C629 C330 1.625 . S
C623 C42 1.614 . S
C649 C399 1.657 . S
C643 C9 1.653 . S
C663 C52 1.563 . S
C669 C178 1.567 . S
C689 C135 1.695 1_655 S
C683 C69 1.693 . S
C703 C78 1.425 . S
C709 C171 1.427 . S
C723 C93 1.443 . S
C729 C134 1.485 . S
C749 C346 1.695 1_565 S
C743 C57 1.675 . S
C769 C390 1.680 . S
C763 C66 1.692 . S
C789 C224 1.482 . S
C783 C76 1.491 . S
C803 C88 1.558 . S
C809 C293 1.542 . S
C829 C347 1.643 . S
C823 C64 1.632 . S
C849 C383 1.641 . S
C843 C81 1.637 . S
C869 C231 1.465 . S
C863 C90 1.468 . S
C883 C54 1.687 . S
C889 C294 1.676 . S
