# Generated by pormake.
# Topology sqc, (4,8)-cn, num edge types: 1
# Building blocks:
#     Node 0, Type 0, BuildingBlock: AZAVOO_clean_linker_0, # of connection points: 4
#     Node 1, Type 0, BuildingBlock: AZAVOO_clean_linker_0, # of connection points: 4
#     Node 2, Type 0, BuildingBlock: AZAVOO_clean_linker_0, # of connection points: 4
#     Node 3, Type 0, BuildingBlock: AZAVOO_clean_linker_0, # of connection points: 4
#     Node 4, Type 0, BuildingBlock: AZAVOO_clean_linker_0, # of connection points: 4
#     Node 5, Type 0, BuildingBlock: AZAVOO_clean_linker_0, # of connection points: 4
#     Node 6, Type 0, BuildingBlock: AZAVOO_clean_linker_0, # of connection points: 4
#     Node 7, Type 0, BuildingBlock: AZAVOO_clean_linker_0, # of connection points: 4
#     Node 8, Type 1, BuildingBlock: VETTIZ_charged_sbu_0, # of connection points: 8
#     Node 9, Type 1, BuildingBlock: VETTIZ_charged_sbu_0, # of connection points: 8
#     Node 10, Type 1, BuildingBlock: VETTIZ_charged_sbu_0, # of connection points: 8
#     Node 11, Type 1, BuildingBlock: VETTIZ_charged_sbu_0, # of connection points: 8
#     Edge 12, Type (0, 1), BuildingBlock: CIFDUS_clean_linker_0, # of connection points: 2
#     Edge 13, Type (0, 1), BuildingBlock: CIFDUS_clean_linker_0, # of connection points: 2
#     Edge 14, Type (0, 1), BuildingBlock: CIFDUS_clean_linker_0, # of connection points: 2
#     Edge 15, Type (0, 1), BuildingBlock: CIFDUS_clean_linker_0, # of connection points: 2
#     Edge 16, Type (0, 1), BuildingBlock: CIFDUS_clean_linker_0, # of connection points: 2
#     Edge 17, Type (0, 1), BuildingBlock: CIFDUS_clean_linker_0, # of connection points: 2
#     Edge 18, Type (0, 1), BuildingBlock: CIFDUS_clean_linker_0, # of connection points: 2
#     Edge 19, Type (0, 1), BuildingBlock: CIFDUS_clean_linker_0, # of connection points: 2
#     Edge 20, Type (0, 1), BuildingBlock: CIFDUS_clean_linker_0, # of connection points: 2
#     Edge 21, Type (0, 1), BuildingBlock: CIFDUS_clean_linker_0, # of connection points: 2
#     Edge 22, Type (0, 1), BuildingBlock: CIFDUS_clean_linker_0, # of connection points: 2
#     Edge 23, Type (0, 1), BuildingBlock: CIFDUS_clean_linker_0, # of connection points: 2
#     Edge 24, Type (0, 1), BuildingBlock: CIFDUS_clean_linker_0, # of connection points: 2
#     Edge 25, Type (0, 1), BuildingBlock: CIFDUS_clean_linker_0, # of connection points: 2
#     Edge 26, Type (0, 1), BuildingBlock: CIFDUS_clean_linker_0, # of connection points: 2
#     Edge 27, Type (0, 1), BuildingBlock: CIFDUS_clean_linker_0, # of connection points: 2
#     Edge 28, Type (0, 1), BuildingBlock: CIFDUS_clean_linker_0, # of connection points: 2
#     Edge 29, Type (0, 1), BuildingBlock: CIFDUS_clean_linker_0, # of connection points: 2
#     Edge 30, Type (0, 1), BuildingBlock: CIFDUS_clean_linker_0, # of connection points: 2
#     Edge 31, Type (0, 1), BuildingBlock: CIFDUS_clean_linker_0, # of connection points: 2
#     Edge 32, Type (0, 1), BuildingBlock: CIFDUS_clean_linker_0, # of connection points: 2
#     Edge 33, Type (0, 1), BuildingBlock: CIFDUS_clean_linker_0, # of connection points: 2
#     Edge 34, Type (0, 1), BuildingBlock: CIFDUS_clean_linker_0, # of connection points: 2
#     Edge 35, Type (0, 1), BuildingBlock: CIFDUS_clean_linker_0, # of connection points: 2
#     Edge 36, Type (0, 1), BuildingBlock: CIFDUS_clean_linker_0, # of connection points: 2
#     Edge 37, Type (0, 1), BuildingBlock: CIFDUS_clean_linker_0, # of connection points: 2
#     Edge 38, Type (0, 1), BuildingBlock: CIFDUS_clean_linker_0, # of connection points: 2
#     Edge 39, Type (0, 1), BuildingBlock: CIFDUS_clean_linker_0, # of connection points: 2
#     Edge 40, Type (0, 1), BuildingBlock: CIFDUS_clean_linker_0, # of connection points: 2
#     Edge 41, Type (0, 1), BuildingBlock: CIFDUS_clean_linker_0, # of connection points: 2
#     Edge 42, Type (0, 1), BuildingBlock: CIFDUS_clean_linker_0, # of connection points: 2
#     Edge 43, Type (0, 1), BuildingBlock: CIFDUS_clean_linker_0, # of connection points: 2
# Relax obj value: 0.170
# Max RMSD: 0.291
# Mean RMSD: 0.234
data_MOF--net-sqc--node1-VETTIZ_charged_sbu_0--node2-AZAVOO_clean_linker_0--edge1-CIFDUS_clean_linker_0
_symmetry_space_group_name_H-M    P1
_symmetry_Int_Tables_number       1
_symmetry_cell_setting            triclinic
loop_
_symmetry_equiv_pos_as_xyz
'x, y, z'
_cell_length_a     23.873099
_cell_length_b     23.992253
_cell_length_c     81.209011
_cell_angle_alpha  90.625235
_cell_angle_beta   89.935747
_cell_angle_gamma 90.57543
loop_
_atom_site_label
_atom_site_type_symbol
_atom_site_fract_x
_atom_site_fract_y
_atom_site_fract_z
_atom_type_partial_charge
H0 H 0.08013 0.18162 0.63968 0.0
H1 H 0.68676 0.86703 0.51155 0.0
H2 H 0.12771 0.11241 0.54875 0.0
H3 H 0.20735 0.14222 0.56588 0.0
H4 H 0.22128 0.97469 0.58426 0.0
H5 H 0.14128 0.94569 0.56737 0.0
H6 H 0.01871 0.12753 0.57161 0.0
H7 H 0.03997 0.16611 0.59896 0.0
H8 H 0.07741 1.00053 0.61608 0.0
H9 H 0.05562 0.96257 0.58869 0.0
H10 H 0.89087 0.08769 0.55625 0.0
H11 H 0.81656 0.10159 0.57662 0.0
H12 H 0.87171 0.95618 0.60272 0.0
H13 H 0.94525 0.9417 0.582 0.0
H14 H 0.88644 0.05942 0.52435 0.0
H15 H 0.7944 0.03354 0.51323 0.0
H16 H 0.81504 0.86615 0.53134 0.0
H17 H 0.90717 0.8926 0.5423 0.0
H18 H 0.98272 0.05973 0.50414 0.0
H19 H 0.91965 0.03992 0.48125 0.0
H20 H 0.93235 0.86359 0.49082 0.0
H21 H 0.99388 0.88438 0.51417 0.0
H22 H 0.0934 0.04919 0.50567 0.0
H23 H 0.17603 0.03192 0.48875 0.0
H24 H 0.22584 0.90203 0.52218 0.0
H25 H 0.14018 0.91569 0.53776 0.0
O26 O 0.071 0.16538 0.62905 0.0
O27 O 0.09006 0.07946 0.63722 0.0
O28 O 0.71499 0.9647 0.50646 0.0
O29 O 0.72236 0.87879 0.51619 0.0
C30 C 0.0717 0.01321 0.55045 0.0
C31 C 0.02595 0.02 0.56135 0.0
C32 C 0.97096 0.00805 0.55602 0.0
C33 C 0.96119 0.99203 0.53955 0.0
C34 C 0.00651 0.98719 0.52834 0.0
C35 C 0.06223 0.99572 0.53393 0.0
C36 C 0.12893 0.02675 0.55669 0.0
C37 C 0.14943 0.08171 0.55597 0.0
C38 C 0.19483 0.0987 0.56582 0.0
C39 C 0.22018 0.06096 0.57659 0.0
C40 C 0.20223 0.00492 0.57625 0.0
C41 C 0.15698 0.98805 0.56643 0.0
C42 C 0.03568 0.04238 0.57823 0.0
C43 C 0.03107 0.09969 0.58134 0.0
C44 C 0.04342 0.12159 0.59695 0.0
C45 C 0.06058 0.08643 0.6097 0.0
C46 C 0.06439 0.02878 0.60654 0.0
C47 C 0.0519 0.00697 0.59093 0.0
C48 C 0.92341 0.01377 0.56768 0.0
C49 C 0.88606 0.0581 0.56614 0.0
C50 C 0.84356 0.06581 0.57774 0.0
C51 C 0.83827 0.02975 0.59119 0.0
C52 C 0.87491 0.98452 0.59247 0.0
C53 C 0.91692 0.97637 0.58071 0.0
C54 C 0.90334 0.97783 0.5341 0.0
C55 C 0.87073 0.01735 0.52602 0.0
C56 C 0.81828 0.00239 0.51965 0.0
C57 C 0.79742 0.94769 0.52136 0.0
C58 C 0.82983 0.90859 0.5298 0.0
C59 C 0.88233 0.9236 0.53613 0.0
C60 C 0.99291 0.97357 0.51088 0.0
C61 C 0.97434 0.01665 0.50075 0.0
C62 C 0.93766 0.00515 0.48769 0.0
C63 C 0.91931 0.95019 0.48445 0.0
C64 C 0.94411 0.90658 0.49328 0.0
C65 C 0.98044 0.91821 0.50643 0.0
C66 C 0.11075 0.98392 0.52303 0.0
C67 C 0.12156 0.01616 0.50908 0.0
C68 C 0.1696 0.0068 0.49958 0.0
C69 C 0.20865 0.96589 0.50409 0.0
C70 C 0.1969 0.93329 0.51802 0.0
C71 C 0.14814 0.94163 0.52717 0.0
C72 C 0.07476 0.10996 0.62617 0.0
C73 C 0.7424 0.93117 0.51423 0.0
H74 H 0.49816 0.63769 0.70935 0.0
H75 H 0.31576 0.12117 0.84154 0.0
H76 H 0.28309 0.661 0.78516 0.0
H77 H 0.28993 0.58073 0.76635 0.0
H78 H 0.46506 0.56537 0.77841 0.0
H79 H 0.4575 0.64459 0.79755 0.0
H80 H 0.35144 0.73267 0.75982 0.0
H81 H 0.39902 0.69469 0.73554 0.0
H82 H 0.55724 0.70761 0.76111 0.0
H83 H 0.50887 0.74439 0.7855 0.0
H84 H 0.36591 0.84164 0.76314 0.0
H85 H 0.39174 0.92503 0.74835 0.0
H86 H 0.49823 0.97711 0.78896 0.0
H87 H 0.477 0.88955 0.80278 0.0
H88 H 0.28879 0.89888 0.79201 0.0
H89 H 0.26352 0.99486 0.79905 0.0
H90 H 0.38486 0.99529 0.83856 0.0
H91 H 0.41028 0.8996 0.8312 0.0
H92 H 0.2259 0.81826 0.81421 0.0
H93 H 0.1761 0.88779 0.83016 0.0
H94 H 0.30778 0.88808 0.86666 0.0
H95 H 0.35862 0.81912 0.85001 0.0
H96 H 0.23368 0.7116 0.82433 0.0
H97 H 0.20447 0.63954 0.84387 0.0
H98 H 0.3754 0.58458 0.84766 0.0
H99 H 0.40522 0.65852 0.82889 0.0
O100 O 0.48041 0.65449 0.71887 0.0
O101 O 0.56162 0.66923 0.73165 0.0
O102 O 0.26913 0.08415 0.81651 0.0
O103 O 0.32694 0.08431 0.83796 0.0
C104 C 0.37021 0.71793 0.79923 0.0
C105 C 0.39711 0.75909 0.7896 0.0
C106 C 0.3943 0.81567 0.7943 0.0
C107 C 0.36153 0.832 0.80794 0.0
C108 C 0.33446 0.79157 0.81776 0.0
C109 C 0.34072 0.73407 0.81374 0.0
C110 C 0.36971 0.65905 0.79281 0.0
C111 C 0.3223 0.63879 0.78434 0.0
C112 C 0.32651 0.59328 0.7734 0.0
C113 C 0.3784 0.56739 0.77057 0.0
C114 C 0.42476 0.58499 0.78004 0.0
C115 C 0.42025 0.62976 0.79121 0.0
C116 C 0.42698 0.7424 0.77428 0.0
C117 C 0.39653 0.72805 0.76006 0.0
C118 C 0.42376 0.70605 0.74625 0.0
C119 C 0.48201 0.6981 0.74641 0.0
C120 C 0.51241 0.71322 0.76062 0.0
C121 C 0.48507 0.73499 0.77446 0.0
C122 C 0.41971 0.85945 0.78399 0.0
C123 C 0.39687 0.86967 0.76849 0.0
C124 C 0.41041 0.91846 0.7603 0.0
C125 C 0.44513 0.95919 0.76779 0.0
C126 C 0.47105 0.94706 0.78285 0.0
C127 C 0.45893 0.89708 0.79079 0.0
C128 C 0.35101 0.89227 0.81118 0.0
C129 C 0.3104 0.92012 0.80202 0.0
C130 C 0.29588 0.9748 0.80613 0.0
C131 C 0.32178 0.00255 0.81949 0.0
C132 C 0.36385 0.97504 0.82827 0.0
C133 C 0.37856 0.92047 0.82408 0.0
C134 C 0.29579 0.8126 0.83093 0.0
C135 C 0.24279 0.83102 0.82606 0.0
C136 C 0.21451 0.87169 0.83523 0.0
C137 C 0.2379 0.89477 0.84976 0.0
C138 C 0.28874 0.87243 0.85542 0.0
C139 C 0.31729 0.8317 0.84612 0.0
C140 C 0.32166 0.69073 0.82531 0.0
C141 C 0.26503 0.68496 0.82964 0.0
C142 C 0.24839 0.64382 0.8407 0.0
C143 C 0.28803 0.60735 0.84722 0.0
C144 C 0.34445 0.61266 0.84277 0.0
C145 C 0.36124 0.6545 0.83203 0.0
C146 C 0.51063 0.67322 0.7319 0.0
C147 C 0.30435 0.0595 0.82447 0.0
H148 H 0.45734 0.82477 0.12069 0.0
H149 H 0.90423 0.21429 0.03361 0.0
H150 H 0.46045 0.93436 0.04002 0.0
H151 H 0.37106 0.90661 0.05228 0.0
H152 H 0.34094 0.07817 0.06621 0.0
H153 H 0.42931 0.10559 0.05323 0.0
H154 H 0.56726 0.91615 0.06235 0.0
H155 H 0.52995 0.86353 0.08565 0.0
H156 H 0.45423 0.01382 0.10488 0.0
H157 H 0.49237 0.06598 0.08161 0.0
H158 H 0.69404 0.96855 0.05312 0.0
H159 H 0.76303 0.95275 0.07484 0.0
H160 H 0.68099 0.07498 0.1057 0.0
H161 H 0.61254 0.0911 0.08379 0.0
H162 H 0.70862 0.01692 0.0223 0.0
H163 H 0.80417 0.0514 0.01774 0.0
H164 H 0.76833 0.19692 0.04769 0.0
H165 H 0.67274 0.16202 0.05204 0.0
H166 H 0.62456 0.03198 0.99792 0.0
H167 H 0.69639 0.07383 0.9804 0.0
H168 H 0.67077 0.23289 0.00456 0.0
H169 H 0.60017 0.19015 0.02231 0.0
H170 H 0.47061 0.98376 0.01027 0.0
H171 H 0.39876 0.99909 0.98923 0.0
H172 H 0.42425 0.17683 0.99437 0.0
H173 H 0.49433 0.1614 0.01576 0.0
O174 O 0.47318 0.8467 0.11186 0.0
O175 O 0.43542 0.9252 0.12128 0.0
O176 O 0.88401 0.12259 0.02069 0.0
O177 O 0.86723 0.19894 0.03559 0.0
C178 C 0.51134 0.03605 0.04274 0.0
C179 C 0.5506 0.02503 0.05535 0.0
C180 C 0.60716 0.04122 0.05354 0.0
C181 C 0.62463 0.06831 0.03909 0.0
C182 C 0.58585 0.07889 0.02631 0.0
C183 C 0.52901 0.06215 0.02801 0.0
C184 C 0.45137 0.02198 0.04572 0.0
C185 C 0.4334 0.96619 0.04512 0.0
C186 C 0.38264 0.95037 0.05237 0.0
C187 C 0.34923 0.98994 0.06062 0.0
C188 C 0.36523 0.04654 0.05994 0.0
C189 C 0.41578 0.0624 0.05248 0.0
C190 C 0.53235 0.99473 0.0703 0.0
C191 C 0.5432 0.9377 0.07173 0.0
C192 C 0.52158 0.90773 0.085 0.0
C193 C 0.48877 0.9344 0.09707 0.0
C194 C 0.47916 0.99196 0.09577 0.0
C195 C 0.50094 0.02187 0.08252 0.0
C196 C 0.64822 0.03086 0.06689 0.0
C197 C 0.69126 0.99221 0.06452 0.0
C198 C 0.73081 0.98355 0.07688 0.0
C199 C 0.72764 0.01297 0.09192 0.0
C200 C 0.68438 0.05164 0.09426 0.0
C201 C 0.64519 0.06071 0.08181 0.0
C202 C 0.68387 0.08713 0.03744 0.0
C203 C 0.72168 0.05605 0.02794 0.0
C204 C 0.77616 0.07587 0.02535 0.0
C205 C 0.79384 0.12704 0.03231 0.0
C206 C 0.75607 0.15743 0.04213 0.0
C207 C 0.70156 0.13754 0.04469 0.0
C208 C 0.60715 0.10789 0.01144 0.0
C209 C 0.63225 0.07649 0.99882 0.0
C210 C 0.6738 0.10051 0.98889 0.0
C211 C 0.6905 0.15644 0.99138 0.0
C212 C 0.65993 0.18938 0.0026 0.0
C213 C 0.61867 0.16528 0.01254 0.0
C214 C 0.48804 0.07146 0.01455 0.0
C215 C 0.46058 0.02603 0.00688 0.0
C216 C 0.4196 0.03475 0.99489 0.0
C217 C 0.40618 0.08908 0.99012 0.0
C218 C 0.43432 0.13444 0.99765 0.0
C219 C 0.47452 0.12572 0.00982 0.0
C220 C 0.46418 0.90206 0.11084 0.0
C221 C 0.85114 0.14911 0.02918 0.0
H222 H 0.10492 0.20058 0.20184 0.0
H223 H 0.41081 0.65445 0.31019 0.0
H224 H 0.19756 0.19118 0.2929 0.0
H225 H 0.1621 0.10573 0.2799 0.0
H226 H 0.31914 0.08818 0.25382 0.0
H227 H 0.35512 0.17187 0.26773 0.0
H228 H 0.17248 0.27094 0.26815 0.0
H229 H 0.12822 0.24197 0.24222 0.0
H230 H 0.29078 0.24077 0.21863 0.0
H231 H 0.33444 0.26937 0.24472 0.0
H232 H 0.19953 0.39676 0.27159 0.0
H233 H 0.18331 0.47136 0.25184 0.0
H234 H 0.35581 0.46121 0.23594 0.0
H235 H 0.37156 0.38682 0.25585 0.0
H236 H 0.24726 0.42711 0.30943 0.0
H237 H 0.26239 0.52495 0.31726 0.0
H238 H 0.42444 0.52203 0.29342 0.0
H239 H 0.40888 0.42405 0.28581 0.0
H240 H 0.26404 0.3239 0.33215 0.0
H241 H 0.27644 0.39184 0.35461 0.0
H242 H 0.44313 0.42929 0.33703 0.0
H243 H 0.43094 0.36026 0.31483 0.0
H244 H 0.25825 0.1801 0.31747 0.0
H245 H 0.29337 0.09639 0.3303 0.0
H246 H 0.46297 0.15888 0.32456 0.0
H247 H 0.42714 0.2394 0.31006 0.0
O248 O 0.12323 0.21248 0.21194 0.0
O249 O 0.20765 0.21314 0.20033 0.0
O250 O 0.31911 0.61581 0.31872 0.0
O251 O 0.4033 0.61614 0.30698 0.0
C252 C 0.29455 0.24562 0.28592 0.0
C253 C 0.28328 0.28726 0.2742 0.0
C254 C 0.29698 0.34326 0.27758 0.0
C255 C 0.31866 0.35858 0.29309 0.0
C256 C 0.32985 0.31739 0.30504 0.0
C257 C 0.31963 0.2602 0.30127 0.0
C258 C 0.27935 0.18712 0.28154 0.0
C259 C 0.22517 0.16734 0.28498 0.0
C260 C 0.2046 0.11904 0.27725 0.0
C261 C 0.23732 0.09026 0.26557 0.0
C262 C 0.29285 0.10857 0.26288 0.0
C263 C 0.31368 0.15645 0.27084 0.0
C264 C 0.25655 0.27204 0.25826 0.0
C265 C 0.19835 0.2645 0.25734 0.0
C266 C 0.17324 0.24793 0.24253 0.0
C267 C 0.20598 0.23894 0.22835 0.0
C268 C 0.26436 0.24727 0.22932 0.0
C269 C 0.2894 0.26372 0.24416 0.0
C270 C 0.28663 0.38658 0.2651 0.0
C271 C 0.23359 0.41047 0.26374 0.0
C272 C 0.22445 0.45286 0.25243 0.0
C273 C 0.26833 0.47215 0.24231 0.0
C274 C 0.32138 0.44766 0.24366 0.0
C275 C 0.33037 0.40507 0.25494 0.0
C276 C 0.32701 0.41867 0.29709 0.0
C277 C 0.28585 0.44783 0.30586 0.0
C278 C 0.29463 0.50365 0.31031 0.0
C279 C 0.34467 0.53133 0.30596 0.0
C280 C 0.38547 0.50201 0.29696 0.0
C281 C 0.37665 0.44615 0.29254 0.0
C282 C 0.34652 0.33698 0.32179 0.0
C283 C 0.30437 0.34441 0.33367 0.0
C284 C 0.31116 0.38401 0.34633 0.0
C285 C 0.36008 0.41703 0.34724 0.0
C286 C 0.40448 0.40531 0.33639 0.0
C287 C 0.39802 0.36502 0.32391 0.0
C288 C 0.33997 0.21547 0.31235 0.0
C289 C 0.30302 0.17541 0.3188 0.0
C290 C 0.32344 0.12762 0.32642 0.0
C291 C 0.38153 0.1195 0.32835 0.0
C292 C 0.41817 0.16197 0.32286 0.0
C293 C 0.39767 0.20897 0.31484 0.0
C294 C 0.17923 0.22078 0.21267 0.0
C295 C 0.35465 0.59031 0.31093 0.0
H296 H 0.92804 0.13773 0.19716 0.0
H297 H 0.77205 0.62639 0.32324 0.0
H298 H 0.73625 0.13837 0.27792 0.0
H299 H 0.75565 0.05765 0.26052 0.0
H300 H 0.93296 0.0804 0.26992 0.0
H301 H 0.91208 0.15689 0.28865 0.0
H302 H 0.78252 0.21385 0.25065 0.0
H303 H 0.82873 0.17938 0.22569 0.0
H304 H 0.98962 0.22636 0.24629 0.0
H305 H 0.94285 0.25977 0.2713 0.0
H306 H 0.75998 0.35618 0.25813 0.0
H307 H 0.78676 0.4308 0.23936 0.0
H308 H 0.95136 0.43831 0.26154 0.0
H309 H 0.92307 0.36487 0.28071 0.0
H310 H 0.69822 0.38204 0.28921 0.0
H311 H 0.67581 0.47895 0.29603 0.0
H312 H 0.83908 0.50003 0.31841 0.0
H313 H 0.86065 0.40285 0.31162 0.0
H314 H 0.6614 0.28817 0.30966 0.0
H315 H 0.61063 0.35841 0.32549 0.0
H316 H 0.7611 0.39658 0.35309 0.0
H317 H 0.8117 0.32687 0.3369 0.0
H318 H 0.69628 0.15468 0.30534 0.0
H319 H 0.67986 0.07939 0.32509 0.0
H320 H 0.8312 0.12737 0.35091 0.0
H321 H 0.84742 0.20201 0.33107 0.0
O322 O 0.91052 0.15304 0.20694 0.0
O323 O 0.99203 0.18001 0.21779 0.0
O324 O 0.69597 0.57459 0.30904 0.0
O325 O 0.7802 0.5883 0.32011 0.0
C326 C 0.81355 0.21262 0.28951 0.0
C327 C 0.83163 0.25472 0.27852 0.0
C328 C 0.82229 0.31114 0.28229 0.0
C329 C 0.79302 0.32585 0.29668 0.0
C330 C 0.77438 0.28415 0.30772 0.0
C331 C 0.78564 0.22727 0.30434 0.0
C332 C 0.82269 0.15355 0.28462 0.0
C333 C 0.77888 0.12361 0.27706 0.0
C334 C 0.79041 0.07838 0.26665 0.0
C335 C 0.84617 0.06337 0.26317 0.0
C336 C 0.88944 0.09002 0.27217 0.0
C337 C 0.87762 0.13399 0.28302 0.0
C338 C 0.85937 0.23935 0.26274 0.0
C339 C 0.82769 0.21712 0.24967 0.0
C340 C 0.85421 0.19733 0.23545 0.0
C341 C 0.9129 0.19993 0.23401 0.0
C342 C 0.94437 0.22368 0.247 0.0
C343 C 0.91778 0.24317 0.26125 0.0
C344 C 0.83978 0.35502 0.27062 0.0
C345 C 0.80182 0.37395 0.25887 0.0
C346 C 0.81737 0.41637 0.24813 0.0
C347 C 0.87141 0.44035 0.24886 0.0
C348 C 0.9093 0.42119 0.26074 0.0
C349 C 0.89348 0.37895 0.27158 0.0
C350 C 0.78083 0.38552 0.30004 0.0
C351 C 0.72909 0.40779 0.29553 0.0
C352 C 0.71643 0.46309 0.29945 0.0
C353 C 0.75563 0.49722 0.30781 0.0
C354 C 0.80794 0.47492 0.31199 0.0
C355 C 0.82044 0.41952 0.30811 0.0
C356 C 0.74034 0.30241 0.32207 0.0
C357 C 0.68259 0.3094 0.31976 0.0
C358 C 0.65379 0.35034 0.32869 0.0
C359 C 0.6823 0.38456 0.34018 0.0
C360 C 0.73834 0.37219 0.34396 0.0
C361 C 0.76705 0.33127 0.33502 0.0
C362 C 0.77309 0.18382 0.31675 0.0
C363 C 0.72597 0.1487 0.31522 0.0
C364 C 0.71689 0.10547 0.32644 0.0
C365 C 0.75446 0.09705 0.33952 0.0
C366 C 0.80135 0.13278 0.34104 0.0
C367 C 0.8106 0.17557 0.32975 0.0
C368 C 0.94105 0.17724 0.21912 0.0
C369 C 0.74196 0.55567 0.3123 0.0
H370 H 0.55274 0.90129 0.70879 0.0
H371 H 0.77802 0.42768 0.83148 0.0
H372 H 0.80505 0.8841 0.77369 0.0
H373 H 0.78356 0.95745 0.75408 0.0
H374 H 0.62575 0.98525 0.77871 0.0
H375 H 0.64775 0.91194 0.79828 0.0
H376 H 0.72447 0.81731 0.75314 0.0
H377 H 0.6649 0.85134 0.731 0.0
H378 H 0.52281 0.84846 0.76393 0.0
H379 H 0.58303 0.81482 0.78608 0.0
H380 H 0.71124 0.71372 0.75664 0.0
H381 H 0.68002 0.63073 0.74217 0.0
H382 H 0.59004 0.57722 0.78558 0.0
H383 H 0.61622 0.6649 0.79946 0.0
H384 H 0.78637 0.64388 0.78054 0.0
H385 H 0.80645 0.54602 0.786 0.0
H386 H 0.72419 0.56103 0.8333 0.0
H387 H 0.70316 0.65848 0.82749 0.0
H388 H 0.86824 0.70822 0.80304 0.0
H389 H 0.92062 0.64766 0.82142 0.0
H390 H 0.81364 0.69597 0.86186 0.0
H391 H 0.76021 0.75572 0.84323 0.0
H392 H 0.87502 0.8415 0.80761 0.0
H393 H 0.92133 0.89798 0.82906 0.0
H394 H 0.76009 0.93026 0.8514 0.0
H395 H 0.71443 0.87552 0.82966 0.0
O396 O 0.57546 0.88719 0.71765 0.0
O397 O 0.50235 0.87784 0.73442 0.0
O398 O 0.80614 0.45853 0.80372 0.0
O399 O 0.76854 0.46556 0.82872 0.0
C400 C 0.72829 0.83351 0.7933 0.0
C401 C 0.69466 0.79408 0.78472 0.0
C402 C 0.69724 0.73725 0.78879 0.0
C403 C 0.73545 0.71888 0.80079 0.0
C404 C 0.76892 0.75784 0.80951 0.0
C405 C 0.76406 0.8153 0.80603 0.0
C406 C 0.72801 0.8923 0.78746 0.0
C407 C 0.76733 0.90818 0.77546 0.0
C408 C 0.75451 0.9497 0.76407 0.0
C409 C 0.70213 0.97613 0.7645 0.0
C410 C 0.66586 0.96478 0.77776 0.0
C411 C 0.67894 0.92368 0.78922 0.0
C412 C 0.65772 0.81244 0.7711 0.0
C413 C 0.68031 0.82357 0.75551 0.0
C414 C 0.64623 0.84314 0.7429 0.0
C415 C 0.58891 0.85214 0.74569 0.0
C416 C 0.56664 0.84158 0.76139 0.0
C417 C 0.60077 0.82188 0.774 0.0
C418 C 0.66587 0.69538 0.77906 0.0
C419 C 0.68189 0.6861 0.76272 0.0
C420 C 0.6653 0.63772 0.75464 0.0
C421 C 0.63503 0.59645 0.76308 0.0
C422 C 0.61409 0.60808 0.77889 0.0
C423 C 0.62903 0.65792 0.78681 0.0
C424 C 0.74331 0.65822 0.80362 0.0
C425 C 0.77196 0.62569 0.79196 0.0
C426 C 0.78367 0.56991 0.79515 0.0
C427 C 0.76727 0.54581 0.81015 0.0
C428 C 0.7376 0.57832 0.82166 0.0
C429 C 0.72548 0.63396 0.81838 0.0
C430 C 0.81023 0.73649 0.82173 0.0
C431 C 0.85721 0.70733 0.81598 0.0
C432 C 0.88675 0.67227 0.82646 0.0
C433 C 0.87073 0.66647 0.84302 0.0
C434 C 0.82695 0.69967 0.84916 0.0
C435 C 0.79668 0.73417 0.83856 0.0
C436 C 0.79156 0.8557 0.81702 0.0
C437 C 0.84992 0.8619 0.81697 0.0
C438 C 0.87619 0.89308 0.82937 0.0
C439 C 0.84424 0.91796 0.84196 0.0
C440 C 0.78566 0.91194 0.84178 0.0
C441 C 0.75951 0.88123 0.82933 0.0
C442 C 0.55278 0.87306 0.73229 0.0
C443 C 0.78178 0.48731 0.81392 0.0
H444 H 0.45045 0.46295 0.92973 0.0
H445 H 0.90168 0.5446 0.06611 0.0
H446 H 0.44685 0.64155 0.00414 0.0
H447 H 0.35784 0.62745 0.98955 0.0
H448 H 0.31965 0.48766 0.02085 0.0
H449 H 0.40889 0.50133 0.03507 0.0
H450 H 0.54672 0.59159 0.98464 0.0
H451 H 0.51338 0.54989 0.95874 0.0
H452 H 0.44818 0.40847 0.9855 0.0
H453 H 0.48221 0.45038 0.01125 0.0
H454 H 0.66723 0.61512 0.00273 0.0
H455 H 0.74805 0.58067 0.98719 0.0
H456 H 0.6929 0.4113 0.9953 0.0
H457 H 0.61286 0.44597 0.01139 0.0
H458 H 0.6787 0.66822 0.03379 0.0
H459 H 0.77622 0.67323 0.04299 0.0
H460 H 0.76891 0.49832 0.05522 0.0
H461 H 0.67113 0.49414 0.04617 0.0
H462 H 0.5797 0.71079 0.05128 0.0
H463 H 0.65029 0.7526 0.06941 0.0
H464 H 0.67421 0.59302 0.0924 0.0
H465 H 0.60381 0.55155 0.07404 0.0
H466 H 0.46548 0.69909 0.04695 0.0
H467 H 0.38503 0.72352 0.06419 0.0
H468 H 0.37064 0.55173 0.07948 0.0
H469 H 0.45306 0.52896 0.063 0.0
O470 O 0.46419 0.47824 0.94007 0.0
O471 O 0.43158 0.40646 0.95442 0.0
O472 O 0.8654 0.63309 0.05535 0.0
O473 O 0.86361 0.54347 0.06206 0.0
C474 C 0.49318 0.57259 0.02641 0.0
C475 C 0.53413 0.5507 0.01558 0.0
C476 C 0.5912 0.55411 0.0198 0.0
C477 C 0.60748 0.5788 0.03491 0.0
C478 C 0.56661 0.59981 0.04597 0.0
C479 C 0.50913 0.59567 0.04186 0.0
C480 C 0.43397 0.57297 0.02083 0.0
C481 C 0.4183 0.60909 0.00819 0.0
C482 C 0.36783 0.60066 0.99977 0.0
C483 C 0.3319 0.55641 0.00403 0.0
C484 C 0.34609 0.52263 0.01743 0.0
C485 C 0.39689 0.53061 0.02569 0.0
C486 C 0.51678 0.524 0.99978 0.0
C487 C 0.52567 0.55138 0.98484 0.0
C488 C 0.50638 0.52757 0.97009 0.0
C489 C 0.4779 0.47594 0.97006 0.0
C490 C 0.46981 0.44832 0.98508 0.0
C491 C 0.48921 0.47213 0.9998 0.0
C492 C 0.63466 0.53301 0.00832 0.0
C493 C 0.67226 0.5706 0.00101 0.0
C494 C 0.71818 0.55099 0.99216 0.0
C495 C 0.72648 0.49349 0.99018 0.0
C496 C 0.687 0.45583 0.99664 0.0
C497 C 0.64147 0.47552 0.00578 0.0
C498 C 0.66783 0.58096 0.03946 0.0
C499 C 0.6983 0.63106 0.03845 0.0
C500 C 0.75399 0.63376 0.04368 0.0
C501 C 0.78031 0.58619 0.0499 0.0
C502 C 0.74989 0.53575 0.05054 0.0
C503 C 0.69413 0.53317 0.04534 0.0
C504 C 0.58655 0.62806 0.06128 0.0
C505 C 0.59786 0.68553 0.06083 0.0
C506 C 0.63899 0.70921 0.07109 0.0
C507 C 0.66929 0.67575 0.08201 0.0
C508 C 0.65286 0.61962 0.08379 0.0
C509 C 0.61159 0.59607 0.07358 0.0
C510 C 0.46519 0.61237 0.05379 0.0
C511 C 0.44557 0.66715 0.05432 0.0
C512 C 0.39894 0.68071 0.064 0.0
C513 C 0.37042 0.63946 0.07312 0.0
C514 C 0.39151 0.58485 0.07283 0.0
C515 C 0.43861 0.57163 0.06337 0.0
C516 C 0.45647 0.45126 0.95442 0.0
C517 C 0.83902 0.5892 0.05588 0.0
H518 H 0.98478 0.36887 0.64106 0.0
H519 H 0.40549 0.66428 0.52096 0.0
H520 H 0.95821 0.42936 0.55323 0.0
H521 H 0.87256 0.40487 0.56821 0.0
H522 H 0.83912 0.5797 0.57608 0.0
H523 H 0.92502 0.6038 0.56103 0.0
H524 H 0.06858 0.42147 0.57528 0.0
H525 H 0.04088 0.3843 0.60207 0.0
H526 H 0.96857 0.54339 0.6151 0.0
H527 H 0.99733 0.58022 0.58837 0.0
H528 H 0.18783 0.45851 0.55968 0.0
H529 H 0.25959 0.44507 0.5807 0.0
H530 H 0.194 0.58417 0.60861 0.0
H531 H 0.12296 0.59827 0.58725 0.0
H532 H 0.19071 0.48535 0.52657 0.0
H533 H 0.28565 0.5067 0.51699 0.0
H534 H 0.27722 0.66844 0.54086 0.0
H535 H 0.18215 0.64648 0.55033 0.0
H536 H 0.09137 0.49218 0.50501 0.0
H537 H 0.15985 0.5074 0.48304 0.0
H538 H 0.1793 0.67885 0.49911 0.0
H539 H 0.10957 0.66355 0.52051 0.0
H540 H 0.95578 0.47493 0.51932 0.0
H541 H 0.87496 0.49247 0.50167 0.0
H542 H 0.90263 0.66991 0.50742 0.0
H543 H 0.98314 0.65179 0.5253 0.0
O544 O 0.99608 0.38464 0.63066 0.0
O545 O 0.95905 0.46708 0.63669 0.0
O546 O 0.37104 0.57027 0.51311 0.0
O547 O 0.3688 0.65404 0.52508 0.0
C548 C 0.00678 0.53198 0.55142 0.0
C549 C 0.04937 0.5248 0.56332 0.0
C550 C 0.10579 0.53636 0.55935 0.0
C551 C 0.11994 0.5537 0.54335 0.0
C552 C 0.07759 0.56129 0.53137 0.0
C553 C 0.02072 0.55136 0.53549 0.0
C554 C 0.94788 0.51836 0.55605 0.0
C555 C 0.9312 0.46238 0.55762 0.0
C556 C 0.88226 0.44847 0.5662 0.0
C557 C 0.84937 0.49035 0.57348 0.0
C558 C 0.86388 0.54653 0.57073 0.0
C559 C 0.91262 0.5604 0.56201 0.0
C560 C 0.03478 0.50341 0.5799 0.0
C561 C 0.04716 0.4483 0.584 0.0
C562 C 0.0311 0.42716 0.59928 0.0
C563 C 1.00232 0.46082 0.61071 0.0
C564 C 0.99057 0.51631 0.60658 0.0
C565 C 0.00688 0.53744 0.59133 0.0
C566 C 0.15032 0.52946 0.57191 0.0
C567 C 0.18962 0.48676 0.57016 0.0
C568 C 0.23068 0.4793 0.58214 0.0
C569 C 0.2326 0.51391 0.59621 0.0
C570 C 0.19346 0.557 0.59787 0.0
C571 C 0.15286 0.56493 0.58575 0.0
C572 C 0.17959 0.56451 0.53906 0.0
C573 C 0.20968 0.52516 0.52983 0.0
C574 C 0.26381 0.53753 0.52434 0.0
C575 C 0.28884 0.58951 0.52803 0.0
C576 C 0.25909 0.62815 0.53773 0.0
C577 C 0.20494 0.61566 0.54323 0.0
C578 C 0.09553 0.57667 0.51444 0.0
C579 C 0.10795 0.53385 0.50315 0.0
C580 C 0.14822 0.54233 0.49083 0.0
C581 C 0.17659 0.59389 0.48958 0.0
C582 C 0.15858 0.63856 0.49961 0.0
C583 C 0.11808 0.63009 0.51182 0.0
C584 C 0.97551 0.56205 0.52348 0.0
C585 C 0.94469 0.51754 0.51662 0.0
C586 C 0.89855 0.5277 0.50656 0.0
C587 C 0.88225 0.58264 0.50318 0.0
C588 C 0.91368 0.62718 0.50995 0.0
C589 C 0.96003 0.61693 0.51998 0.0
C590 C 0.98446 0.43795 0.62681 0.0
C591 C 0.34539 0.60376 0.52163 0.0
Fe592 Fe 0.06119 0.78721 0.18405 0.0
O593 O 0.10433 0.82541 0.16633 0.0
Fe594 Fe 0.92855 0.77075 0.16777 0.0
Fe595 Fe 0.18613 0.81601 0.16471 0.0
O596 O 0.00983 0.76416 0.16587 0.0
O597 O 0.00965 0.7643 0.16428 0.0
O598 O 0.10417 0.82534 0.16454 0.0
Fe599 Fe 0.05347 0.80002 0.14607 0.0
C600 C 0.16018 0.85591 0.19916 0.0
O601 O 0.10449 0.71557 0.18013 0.0
O602 O 0.19028 0.75048 0.18135 0.0
O603 O 0.99176 0.76923 0.12944 0.0
O604 O 0.92676 0.72477 0.14614 0.0
O605 O 0.93904 0.7064 0.18398 0.0
O606 O 0.01054 0.74098 0.20034 0.0
O607 O 0.18554 0.7594 0.14582 0.0
O608 O 0.09806 0.72717 0.14219 0.0
C609 C 0.97013 0.70553 0.1971 0.0
O610 O 0.00819 0.87299 0.14792 0.0
O611 O 0.92213 0.83911 0.15308 0.0
O612 O 0.12023 0.81906 0.20115 0.0
O613 O 0.18476 0.86684 0.18528 0.0
C614 C 0.15586 0.71026 0.18342 0.0
C615 C 0.15089 0.72401 0.13997 0.0
C616 C 0.15513 0.86919 0.13218 0.0
O617 O 0.18047 0.87503 0.14631 0.0
O618 O 0.10936 0.83995 0.12963 0.0
C619 C 0.94763 0.7376 0.13188 0.0
O620 O 0.93095 0.82268 0.18837 0.0
O621 O 0.01723 0.85818 0.18867 0.0
C622 C 0.95483 0.87715 0.14776 0.0
C623 C 0.96668 0.85865 0.19344 0.0
Fe624 Fe 0.54425 0.77328 0.43783 0.0
O625 O 0.5689 0.72326 0.41957 0.0
Fe626 Fe 0.53079 0.9015 0.41973 0.0
Fe627 Fe 0.55326 0.64293 0.42057 0.0
O628 O 0.51709 0.82108 0.41969 0.0
O629 O 0.51552 0.82055 0.41799 0.0
O630 O 0.56924 0.72345 0.41773 0.0
Fe631 Fe 0.53934 0.77028 0.39932 0.0
C632 C 0.61267 0.67615 0.45215 0.0
O633 O 0.46743 0.73636 0.43826 0.0
O634 O 0.49237 0.64804 0.43924 0.0
O635 O 0.5028 0.82923 0.38315 0.0
O636 O 0.47348 0.90065 0.40071 0.0
O637 O 0.47485 0.8998 0.43905 0.0
O638 O 0.51164 0.83044 0.45494 0.0
O639 O 0.49078 0.64101 0.4038 0.0
O640 O 0.46249 0.72796 0.39919 0.0
C641 C 0.47722 0.87121 0.45248 0.0
O642 O 0.61564 0.81248 0.39672 0.0
O643 O 0.58992 0.90067 0.40168 0.0
O644 O 0.57885 0.71752 0.45492 0.0
O645 O 0.61299 0.64693 0.43865 0.0
C646 C 0.45615 0.68615 0.44153 0.0
C647 C 0.45569 0.67505 0.39814 0.0
C648 C 0.59809 0.66222 0.38591 0.0
O649 O 0.60531 0.6398 0.40028 0.0
O650 O 0.56991 0.70775 0.38293 0.0
C651 C 0.47446 0.8746 0.38656 0.0
O652 O 0.59504 0.89988 0.43727 0.0
O653 O 0.62079 0.81114 0.43775 0.0
C654 C 0.62296 0.86519 0.39537 0.0
C655 C 0.6305 0.86225 0.44068 0.0
Fe656 Fe 0.54787 0.27364 0.68962 0.0
O657 O 0.59299 0.30268 0.67091 0.0
Fe658 Fe 0.41401 0.26265 0.67399 0.0
Fe659 Fe 0.67369 0.29167 0.66943 0.0
O660 O 0.49473 0.24754 0.67223 0.0
O661 O 0.49437 0.24812 0.67062 0.0
O662 O 0.59235 0.30388 0.66936 0.0
Fe663 Fe 0.53989 0.27712 0.65168 0.0
C664 C 0.64792 0.34154 0.70285 0.0
O665 O 0.58882 0.19801 0.68932 0.0
O666 O 0.67558 0.23151 0.68749 0.0
O667 O 0.47715 0.24426 0.6359 0.0
O668 O 0.40832 0.21053 0.65344 0.0
O669 O 0.41943 0.20394 0.69214 0.0
O670 O 0.49407 0.23915 0.70712 0.0
O671 O 0.66995 0.22974 0.65191 0.0
O672 O 0.5804 0.20175 0.64959 0.0
C673 C 0.4503 0.20696 0.70529 0.0
O674 O 0.4998 0.35291 0.6521 0.0
O675 O 0.41179 0.32633 0.65747 0.0
O676 O 0.60771 0.30604 0.70556 0.0
O677 O 0.67376 0.34783 0.68886 0.0
C678 C 0.64102 0.19436 0.69238 0.0
C679 C 0.63274 0.19428 0.64746 0.0
C680 C 0.64131 0.34221 0.63631 0.0
O681 O 0.66959 0.34669 0.64997 0.0
O682 O 0.596 0.31176 0.63427 0.0
C683 C 0.43184 0.21501 0.639 0.0
O684 O 0.42106 0.32087 0.6933 0.0
O685 O 0.50907 0.34971 0.69142 0.0
C686 C 0.44719 0.36105 0.65177 0.0
C687 C 0.45957 0.3563 0.69675 0.0
Fe688 Fe 0.08252 0.2911 0.95287 0.0
O689 O 0.09432 0.28137 0.92883 0.0
Fe690 Fe 0.06364 0.34629 0.91391 0.0
Fe691 Fe 0.0606 0.21682 0.91637 0.0
O692 O 0.09285 0.28752 0.92885 0.0
O693 O 0.03287 0.28126 0.90117 0.0
O694 O 0.03348 0.27577 0.90124 0.0
Fe695 Fe 0.04042 0.27019 0.87734 0.0
C696 C 0.13226 0.17696 0.94577 0.0
O697 O 0.01829 0.23276 0.95473 0.0
O698 O 0.98693 0.22402 0.92917 0.0
O699 O 0.99065 0.34054 0.87676 0.0
O700 O 0.02835 0.4003 0.8963 0.0
O701 O 0.98926 0.34997 0.92669 0.0
O702 O 0.02325 0.35278 0.95216 0.0
O703 O 0.01765 0.15835 0.90159 0.0
O704 O 0.97864 0.21142 0.88092 0.0
C705 C 0.9837 0.36011 0.94198 0.0
O706 O 0.10755 0.32427 0.87534 0.0
O707 O 0.13706 0.34479 0.90091 0.0
O708 O 0.13659 0.22538 0.95294 0.0
O709 O 0.09657 0.16371 0.93412 0.0
C710 C 0.97902 0.22203 0.94458 0.0
C711 C 0.98108 0.16713 0.88999 0.0
C712 C 0.13086 0.18589 0.88794 0.0
O713 O 0.13309 0.20438 0.90272 0.0
O714 O 0.09382 0.20282 0.87796 0.0
C715 C 0.99732 0.38976 0.88337 0.0
O716 O 0.10185 0.40671 0.92962 0.0
O717 O 0.13979 0.35469 0.95063 0.0
C718 C 0.14343 0.34501 0.88535 0.0
C719 C 0.13467 0.40024 0.94232 0.0
H720 H 0.26738 0.86911 0.49909 0.0
H721 H 0.27095 0.04471 0.48759 0.0
H722 H 0.35518 0.03132 0.47124 0.0
H723 H 0.42663 0.96951 0.45947 0.0
H724 H 0.42791 0.79611 0.47296 0.0
H725 H 0.34436 0.80966 0.48987 0.0
C726 C 0.2869 0.90495 0.49336 0.0
C727 C 0.26164 0.95781 0.49452 0.0
C728 C 0.33682 0.89753 0.48445 0.0
C729 C 0.28782 0.00312 0.48661 0.0
C730 C 0.33666 0.99573 0.47738 0.0
C731 C 0.4091 0.93493 0.46634 0.0
C732 C 0.43338 0.88193 0.46495 0.0
C733 C 0.36126 0.94308 0.47612 0.0
C734 C 0.41041 0.8375 0.47396 0.0
C735 C 0.36228 0.8451 0.48351 0.0
H736 H 0.36649 0.016 0.75095 0.0
H737 H 0.53729 0.02951 0.76813 0.0
H738 H 0.55019 0.11471 0.75242 0.0
H739 H 0.51877 0.17423 0.72994 0.0
H740 H 0.35058 0.15443 0.71097 0.0
H741 H 0.33191 0.08085 0.73073 0.0
C742 C 0.40707 0.03671 0.75104 0.0
C743 C 0.45174 0.01455 0.76005 0.0
C744 C 0.41516 0.08368 0.74132 0.0
C745 C 0.50249 0.04463 0.761 0.0
C746 C 0.51005 0.09324 0.75193 0.0
C747 C 0.47767 0.15456 0.73032 0.0
C748 C 0.43643 0.16896 0.71882 0.0
C749 C 0.46761 0.11138 0.74141 0.0
C750 C 0.38336 0.14328 0.7195 0.0
C751 C 0.3726 0.10132 0.7308 0.0
H752 H 0.29996 0.04573 0.9887 0.0
H753 H 0.41448 0.15563 0.9634 0.0
H754 H 0.3399 0.18323 0.94474 0.0
H755 H 0.24003 0.18679 0.93839 0.0
H756 H 0.12281 0.08385 0.96484 0.0
H757 H 0.20039 0.04118 0.97992 0.0
C758 C 0.30869 0.07477 0.97886 0.0
C759 C 0.36245 0.09922 0.97754 0.0
C760 C 0.26508 0.09146 0.96837 0.0
C761 C 0.37324 0.13702 0.96481 0.0
C762 C 0.33068 0.15264 0.95411 0.0
C763 C 0.23185 0.15341 0.94701 0.0
C764 C 0.17625 0.13769 0.95039 0.0
C765 C 0.27617 0.13156 0.95613 0.0
C766 C 0.16553 0.09553 0.96183 0.0
C767 C 0.20982 0.07193 0.97061 0.0
H768 H 0.28672 0.99505 0.25384 0.0
H769 H 0.1307 0.08472 0.25317 0.0
H770 H 0.09102 0.01609 0.23413 0.0
H771 H 0.1035 0.93595 0.21537 0.0
H772 H 0.26107 0.85049 0.21421 0.0
H773 H 0.29781 0.91263 0.23591 0.0
C774 C 0.24406 0.99969 0.24954 0.0
C775 C 0.21197 0.0452 0.25506 0.0
C776 C 0.22189 0.96098 0.2381 0.0
C777 C 0.15634 0.04976 0.24948 0.0
C778 C 0.13363 0.01078 0.2384 0.0
C779 C 0.1452 0.93009 0.22027 0.0
C780 C 0.17929 0.88831 0.21358 0.0
C781 C 0.16631 0.96683 0.2324 0.0
C782 C 0.23411 0.88218 0.21942 0.0
C783 C 0.25507 0.91778 0.23175 0.0
H784 H 0.30978 0.13309 0.57357 0.0
H785 H 0.21807 0.03519 0.60903 0.0
H786 H 0.2776 0.07121 0.63108 0.0
H787 H 0.35215 0.13357 0.64065 0.0
H788 H 0.44454 0.23324 0.60577 0.0
H789 H 0.38877 0.19314 0.58321 0.0
C790 C 0.30313 0.11953 0.58612 0.0
C791 C 0.25974 0.08108 0.58958 0.0
C792 C 0.33756 0.14076 0.59888 0.0
C793 C 0.25175 0.06381 0.60592 0.0
C794 C 0.28554 0.08474 0.6186 0.0
C795 C 0.36048 0.14652 0.62812 0.0
C796 C 0.40235 0.18683 0.625 0.0
C797 C 0.32814 0.1236 0.61526 0.0
C798 C 0.41272 0.20229 0.6086 0.0
C799 C 0.38059 0.17956 0.59568 0.0
H800 H 0.28736 0.98512 0.86601 0.0
H801 H 0.12557 0.91569 0.85272 0.0
H802 H 0.08018 0.99942 0.86281 0.0
H803 H 0.08543 0.09372 0.87438 0.0
H804 H 0.24356 0.16143 0.89087 0.0
H805 H 0.2912 0.07687 0.88082 0.0
C806 C 0.24208 0.98757 0.86562 0.0
C807 C 0.21043 0.94377 0.85816 0.0
C808 C 0.21547 0.0358 0.87199 0.0
C809 C 0.15167 0.94876 0.8578 0.0
C810 C 0.12535 0.99668 0.86373 0.0
C811 C 0.13031 0.0898 0.87593 0.0
C812 C 0.16099 0.13402 0.88322 0.0
C813 C 0.15679 0.04071 0.8706 0.0
C814 C 0.21903 0.12807 0.88528 0.0
C815 C 0.24617 0.07973 0.8795 0.0
H816 H 0.34663 0.89941 0.08028 0.0
H817 H 0.24705 0.04008 0.06613 0.0
H818 H 0.17561 0.01411 0.08641 0.0
H819 H 0.14392 0.95341 0.10954 0.0
H820 H 0.24609 0.81386 0.1229 0.0
H821 H 0.3128 0.8362 0.10124 0.0
C822 C 0.30868 0.92372 0.08123 0.0
C823 C 0.30236 0.97154 0.07156 0.0
C824 C 0.26799 0.90862 0.09287 0.0
C825 C 0.25342 0.00329 0.07348 0.0
C826 C 0.21239 0.98836 0.08506 0.0
C827 C 0.18046 0.92778 0.10748 0.0
C828 C 0.19032 0.88216 0.11777 0.0
C829 C 0.21957 0.9415 0.09503 0.0
C830 C 0.23785 0.84923 0.11513 0.0
C831 C 0.27611 0.86204 0.10277 0.0
H832 H 0.33217 0.05303 0.35181 0.0
H833 H 0.48141 0.06613 0.32186 0.0
H834 H 0.52059 0.9857 0.33557 0.0
H835 H 0.51617 0.91631 0.35798 0.0
H836 H 0.36554 0.90248 0.38695 0.0
H837 H 0.32212 0.9761 0.37101 0.0
C838 C 0.37264 0.03786 0.34786 0.0
C839 C 0.4038 0.06721 0.33592 0.0
C840 C 0.39455 0.99038 0.35548 0.0
C841 C 0.45676 0.04632 0.33138 0.0
C842 C 0.47912 0.99953 0.33907 0.0
C843 C 0.47302 0.92788 0.36028 0.0
C844 C 0.44371 0.90348 0.37345 0.0
C845 C 0.44885 0.97175 0.35136 0.0
C846 C 0.38848 0.92009 0.37669 0.0
C847 C 0.36396 0.96277 0.36774 0.0
H848 H 0.72781 0.05633 0.58884 0.0
H849 H 0.86152 0.03515 0.62384 0.0
H850 H 0.80379 0.07545 0.64563 0.0
H851 H 0.72227 0.13099 0.65343 0.0
H852 H 0.58871 0.15453 0.61864 0.0
H853 H 0.6386 0.09794 0.59814 0.0
C854 C 0.7437 0.05963 0.60133 0.0
C855 C 0.79898 0.04351 0.60472 0.0
C856 C 0.71042 0.08344 0.61378 0.0
C857 C 0.81905 0.04715 0.62096 0.0
C858 C 0.78621 0.07053 0.63339 0.0
C859 C 0.7034 0.12213 0.64152 0.0
C860 C 0.65239 0.14702 0.63741 0.0
C861 C 0.73281 0.09078 0.62978 0.0
C862 C 0.62787 0.13535 0.62204 0.0
C863 C 0.65674 0.10366 0.61028 0.0
H864 H 0.72113 0.98811 0.33463 0.0
H865 H 0.76224 0.10815 0.37281 0.0
H866 H 0.73647 0.04088 0.39383 0.0
H867 H 0.69041 0.9532 0.40131 0.0
H868 H 0.64534 0.83342 0.36362 0.0
H869 H 0.686 0.8942 0.34253 0.0
C870 C 0.72481 0.99929 0.34755 0.0
C871 C 0.74315 0.05344 0.3521 0.0
C872 C 0.70962 0.9602 0.35968 0.0
C873 C 0.74853 0.0669 0.36893 0.0
C874 C 0.73364 0.02844 0.38098 0.0
C875 C 0.69148 0.9395 0.38853 0.0
C876 C 0.66524 0.88882 0.38402 0.0
C877 C 0.71286 0.97557 0.3765 0.0
C878 C 0.66624 0.87171 0.36743 0.0
C879 C 0.6885 0.90706 0.35535 0.0
H880 H 0.8414 0.00289 0.09022 0.0
H881 H 0.70211 0.99433 0.12403 0.0
H882 H 0.76406 0.96169 0.14568 0.0
H883 H 0.85429 0.92314 0.15371 0.0
H884 H 0.99353 0.92781 0.11989 0.0
H885 H 0.93576 0.976 0.09972 0.0
C886 C 0.82487 0.99443 0.10239 0.0
C887 C 0.76713 1.00039 0.10547 0.0
C888 C 0.86076 0.97518 0.11478 0.0
C889 C 0.74636 0.99022 0.12136 0.0
C890 C 0.78172 0.97132 0.13373 0.0
C891 C 0.87245 0.93621 0.1421 0.0
C892 C 0.92788 0.9216 0.13823 0.0
C893 C 0.83855 0.96208 0.13042 0.0
C894 C 0.9511 0.93898 0.12321 0.0
C895 C 0.91778 0.96574 0.11157 0.0
H896 H 0.80914 0.01743 0.85318 0.0
H897 H 0.94064 0.89718 0.85901 0.0
H898 H 0.99106 0.96167 0.87741 0.0
H899 H 1.00285 0.05678 0.88864 0.0
H900 H 0.8731 0.17761 0.88097 0.0
H901 H 0.81527 0.10723 0.86708 0.0
C902 C 0.84809 0.00468 0.85881 0.0
C903 C 0.87153 0.95309 0.85466 0.0
C904 C 0.87695 0.04201 0.86906 0.0
C905 C 0.92244 0.93734 0.86183 0.0
C906 C 0.95107 0.974 0.87238 0.0
C907 C 0.96139 0.06711 0.88425 0.0
C908 C 0.94233 0.12207 0.88547 0.0
C909 C 0.92955 0.02715 0.87563 0.0
C910 C 0.88859 0.13542 0.87987 0.0
C911 C 0.85574 0.09541 0.87189 0.0
H912 H 0.83474 0.87548 0.48939 0.0
H913 H 0.89023 0.00191 0.45549 0.0
H914 H 0.80405 0.98932 0.43953 0.0
H915 H 0.71213 0.94135 0.43508 0.0
H916 H 0.6616 0.81172 0.46842 0.0
H917 H 0.74677 0.82594 0.48453 0.0
C918 C 0.82891 0.89956 0.47831 0.0
C919 C 0.86954 0.93934 0.47366 0.0
C920 C 0.77962 0.89177 0.46912 0.0
C921 C 0.85976 0.97118 0.45949 0.0
C922 C 0.81041 0.96398 0.45032 0.0
C923 C 0.71977 0.91685 0.44598 0.0
C924 C 0.68068 0.87568 0.45065 0.0
C925 C 0.76976 0.92459 0.45507 0.0
C926 C 0.69129 0.84346 0.46462 0.0
C927 C 0.73993 0.85161 0.47383 0.0
H928 H 0.93513 0.99214 0.25984 0.0
H929 H 0.78813 0.04898 0.23417 0.0
H930 H 0.81094 0.9896 0.21076 0.0
H931 H 0.87414 0.92288 0.19696 0.0
H932 H 0.02554 0.87403 0.22148 0.0
H933 H 1.00083 0.93071 0.24556 0.0
C934 C 0.9082 0.99231 0.24911 0.0
C935 C 0.85935 0.02481 0.24911 0.0
C936 C 0.92291 0.96001 0.23526 0.0
C937 C 0.82497 0.02325 0.23498 0.0
C938 C 0.83839 0.98981 0.22138 0.0
C939 C 0.90163 0.92504 0.20759 0.0
C940 C 0.9519 0.89522 0.20744 0.0
C941 C 0.88735 0.95817 0.22134 0.0
C942 C 0.98731 0.89795 0.22122 0.0
C943 C 0.97288 0.92979 0.23505 0.0
H944 H 0.73206 0.13977 0.96023 0.0
H945 H 0.77065 0.21989 0.00675 0.0
H946 H 0.8626 0.24727 0.99649 0.0
H947 H 0.93418 0.24536 0.97471 0.0
H948 H 0.89584 0.16618 0.92805 0.0
H949 H 0.80238 0.14133 0.93798 0.0
C950 C 0.76052 0.16338 0.96809 0.0
C951 C 0.7441 0.17772 0.98424 0.0
C952 C 0.81385 0.17879 0.96214 0.0
C953 C 0.7815 0.20891 0.99418 0.0
C954 C 0.8345 0.22421 0.98838 0.0
C955 C 0.90549 0.22238 0.96675 0.0
C956 C 0.92238 0.20698 0.95075 0.0
C957 C 0.85144 0.20877 0.97246 0.0
C958 C 0.88414 0.1783 0.94047 0.0
C959 C 0.83059 0.16408 0.94613 0.0
H960 H 0.76182 0.05498 0.74749 0.0
H961 H 0.60026 0.97359 0.74924 0.0
H962 H 0.56798 0.02948 0.72621 0.0
H963 H 0.58301 0.10767 0.70697 0.0
H964 H 0.74669 0.18575 0.70472 0.0
H965 H 0.77986 0.12594 0.72649 0.0
C966 C 0.71952 0.04949 0.74285 0.0
C967 C 0.68316 0.01096 0.75042 0.0
C968 C 0.70104 0.08206 0.7296 0.0
C969 C 0.62871 0.00404 0.74402 0.0
C970 C 0.61025 0.03586 0.73076 0.0
C971 C 0.62613 0.11115 0.71108 0.0
C972 C 0.66185 0.15188 0.70418 0.0
C973 C 0.64555 0.0761 0.72369 0.0
C974 C 0.71777 0.15525 0.70972 0.0
C975 C 0.73699 0.12106 0.72229 0.0
H976 H 0.73814 0.42381 0.96375 0.0
H977 H 0.83165 0.51809 1.00011 0.0
H978 H 0.91967 0.48514 0.98833 0.0
H979 H 0.96986 0.42957 0.96786 0.0
H980 H 0.87815 0.33826 0.93047 0.0
H981 H 0.7894 0.37011 0.94236 0.0
C982 C 0.77794 0.43692 0.96902 0.0
C983 C 0.77886 0.47322 0.9827 0.0
C984 C 0.82842 0.4186 0.96197 0.0
C985 C 0.83033 0.49045 0.98947 0.0
C986 C 0.88051 0.47157 0.98278 0.0
C987 C 0.93041 0.4168 0.96229 0.0
C988 C 0.9303 0.38181 0.94833 0.0
C989 C 0.88003 0.43575 0.96904 0.0
C990 C 0.87907 0.36578 0.94113 0.0
C991 C 0.82845 0.38367 0.94798 0.0
H992 H 0.93401 0.53455 0.25506 0.0
H993 H 0.84633 0.44581 0.21618 0.0
H994 H 0.86882 0.5201 0.19704 0.0
H995 H 0.91196 0.61002 0.19131 0.0
H996 H 1.0031 0.69866 0.22947 0.0
H997 H 0.98158 0.62385 0.24884 0.0
C998 C 0.92041 0.53114 0.24235 0.0
C999 C 0.8879 0.48483 0.23715 0.0
C1000 C 0.93409 0.57387 0.23128 0.0
C1001 C 0.87028 0.48144 0.22065 0.0
C1002 C 0.88344 0.52375 0.20964 0.0
C1003 C 0.92702 0.61335 0.20388 0.0
C1004 C 0.95853 0.66033 0.20897 0.0
C1005 C 0.91485 0.57028 0.21486 0.0
C1006 C 0.97855 0.66312 0.22523 0.0
C1007 C 0.9662 0.62038 0.23632 0.0
H1008 H 0.79852 0.6588 0.50763 0.0
H1009 H 0.85587 0.52976 0.47438 0.0
H1010 H 0.77586 0.54511 0.45648 0.0
H1011 H 0.6919 0.59615 0.44978 0.0
H1012 H 0.63274 0.72619 0.48243 0.0
H1013 H 0.71137 0.70948 0.50102 0.0
C1014 C 0.79359 0.63431 0.49641 0.0
C1015 C 0.8332 0.59306 0.49238 0.0
C1016 C 0.74725 0.64345 0.48608 0.0
C1017 C 0.82578 0.56122 0.47791 0.0
C1018 C 0.78012 0.57013 0.46762 0.0
C1019 C 0.69557 0.62082 0.46101 0.0
C1020 C 0.65639 0.66287 0.46454 0.0
C1021 C 0.74076 0.61113 0.47156 0.0
C1022 C 0.66232 0.69388 0.47925 0.0
C1023 C 0.70738 0.68436 0.4899 0.0
H1024 H 0.71803 0.54236 0.74755 0.0
H1025 H 0.54637 0.52257 0.7634 0.0
H1026 H 0.54024 0.43335 0.74858 0.0
H1027 H 0.57771 0.3721 0.72716 0.0
H1028 H 0.74488 0.40004 0.70829 0.0
H1029 H 0.75824 0.47699 0.72793 0.0
C1030 C 0.67887 0.519 0.74756 0.0
C1031 C 0.63187 0.53995 0.75592 0.0
C1032 C 0.67463 0.47025 0.73823 0.0
C1033 C 0.58266 0.5077 0.75675 0.0
C1034 C 0.57909 0.45706 0.7482 0.0
C1035 C 0.61758 0.3942 0.72756 0.0
C1036 C 0.66017 0.38111 0.71623 0.0
C1037 C 0.62391 0.43955 0.73828 0.0
C1038 C 0.7114 0.4101 0.71681 0.0
C1039 C 0.71896 0.45391 0.72798 0.0
H1040 H 0.76923 0.62346 0.08616 0.0
H1041 H 0.68537 0.77864 0.09637 0.0
H1042 H 0.76943 0.81507 0.11001 0.0
H1043 H 0.86345 0.7997 0.12131 0.0
H1044 H 0.94505 0.6427 0.11301 0.0
H1045 H 0.86582 0.61028 0.09602 0.0
C1046 C 0.76917 0.66513 0.09145 0.0
C1047 C 0.72057 0.69794 0.09041 0.0
C1048 C 0.81761 0.68567 0.09941 0.0
C1049 C 0.72194 0.75241 0.09698 0.0
C1050 C 0.77005 0.77328 0.1048 0.0
C1051 C 0.86453 0.75911 0.11528 0.0
C1052 C 0.91035 0.724 0.11797 0.0
C1053 C 0.81779 0.74004 0.10627 0.0
C1054 C 0.91081 0.67081 0.11066 0.0
C1055 C 0.86514 0.65208 0.1012 0.0
H1056 H 0.72977 0.48749 0.34462 0.0
H1057 H 0.57382 0.39735 0.35074 0.0
H1058 H 0.53045 0.48096 0.36225 0.0
H1059 H 0.54006 0.57618 0.37352 0.0
H1060 H 0.69734 0.66419 0.3693 0.0
H1061 H 0.7369 0.58544 0.3538 0.0
C1062 C 0.68637 0.48595 0.34855 0.0
C1063 C 0.65547 0.43569 0.34706 0.0
C1064 C 0.66184 0.53412 0.3553 0.0
C1065 C 0.59876 0.43518 0.35178 0.0
C1066 C 0.5739 0.48303 0.35837 0.0
C1067 C 0.58233 0.57876 0.36861 0.0
C1068 C 0.61555 0.62613 0.37214 0.0
C1069 C 0.60533 0.53236 0.36047 0.0
C1070 C 0.67074 0.62869 0.36628 0.0
C1071 C 0.69351 0.5833 0.35768 0.0
H1072 H 0.76623 0.41076 0.57089 0.0
H1073 H 0.83554 0.53526 0.60399 0.0
H1074 H 0.77296 0.50411 0.62583 0.0
H1075 H 0.70524 0.43613 0.63637 0.0
H1076 H 0.63491 0.3109 0.60376 0.0
H1077 H 0.69033 0.34812 0.58087 0.0
C1078 C 0.76702 0.43143 0.58283 0.0
C1079 C 0.80552 0.47537 0.58577 0.0
C1080 C 0.73087 0.41305 0.59545 0.0
C1081 C 0.80587 0.50194 0.60129 0.0
C1082 C 0.77036 0.48384 0.61385 0.0
C1083 C 0.70141 0.41739 0.6242 0.0
C1084 C 0.66637 0.37044 0.62183 0.0
C1085 C 0.73362 0.43872 0.61118 0.0
C1086 C 0.66138 0.34717 0.60593 0.0
C1087 C 0.69345 0.36818 0.59286 0.0
H1088 H 0.87885 0.55739 0.83509 0.0
H1089 H 0.91755 0.67502 0.87395 0.0
H1090 H 0.95995 0.60042 0.89015 0.0
H1091 H 0.98765 0.5009 0.89291 0.0
H1092 H 0.94385 0.38491 0.85376 0.0
H1093 H 0.90207 0.45928 0.83826 0.0
C1094 C 0.89689 0.56676 0.84707 0.0
C1095 C 0.89584 0.62177 0.8532 0.0
C1096 C 0.92029 0.52369 0.85635 0.0
C1097 C 0.91811 0.63302 0.86893 0.0
C1098 C 0.9424 0.59034 0.87817 0.0
C1099 C 0.96883 0.49184 0.88103 0.0
C1100 C 0.96946 0.43676 0.87465 0.0
C1101 C 0.944 0.53534 0.87198 0.0
C1102 C 0.94435 0.42634 0.85918 0.0
C1103 C 0.92037 0.46907 0.85017 0.0
H1104 H 0.33554 0.59715 0.10274 0.0
H1105 H 0.28749 0.71252 0.06492 0.0
H1106 H 0.20681 0.74063 0.08127 0.0
H1107 H 0.15584 0.73999 0.10755 0.0
H1108 H 0.20559 0.62786 0.14572 0.0
H1109 H 0.27738 0.58824 0.12758 0.0
C1110 C 0.30683 0.62746 0.09783 0.0
C1111 C 0.31861 0.65324 0.08266 0.0
C1112 C 0.25987 0.64312 0.10724 0.0
C1113 C 0.28084 0.69303 0.07673 0.0
C1114 C 0.23409 0.70869 0.08599 0.0
C1115 C 0.1806 0.70492 0.11154 0.0
C1116 C 0.17452 0.68554 0.12771 0.0
C1117 C 0.2238 0.68483 0.10139 0.0
C1118 C 0.20843 0.64198 0.13311 0.0
C1119 C 0.25022 0.62025 0.12286 0.0
H1120 H 0.28817 0.49789 0.84002 0.0
H1121 H 0.24649 0.61649 0.87818 0.0
H1122 H 0.20757 0.54148 0.89512 0.0
H1123 H 0.17515 0.44492 0.89734 0.0
H1124 H 0.20546 0.32853 0.85756 0.0
H1125 H 0.26052 0.39937 0.84303 0.0
C1126 C 0.2713 0.50678 0.85217 0.0
C1127 C 0.26984 0.56196 0.85799 0.0
C1128 C 0.2472 0.46391 0.86146 0.0
C1129 C 0.24759 0.57394 0.87359 0.0
C1130 C 0.2255 0.53122 0.88322 0.0
C1131 C 0.19532 0.43462 0.88572 0.0
C1132 C 0.18691 0.38174 0.87852 0.0
C1133 C 0.22376 0.47634 0.87707 0.0
C1134 C 0.21187 0.36907 0.8633 0.0
C1135 C 0.24285 0.4096 0.85497 0.0
H1136 H 0.34453 0.49372 0.59397 0.0
H1137 H 0.2083 0.50498 0.62875 0.0
H1138 H 0.26785 0.46789 0.65034 0.0
H1139 H 0.35297 0.41833 0.65797 0.0
H1140 H 0.48896 0.40429 0.62325 0.0
H1141 H 0.43593 0.45767 0.60312 0.0
C1142 C 0.32835 0.48886 0.60636 0.0
C1143 C 0.27196 0.5013 0.60973 0.0
C1144 C 0.36272 0.46691 0.61869 0.0
C1145 C 0.25157 0.49576 0.62587 0.0
C1146 C 0.2855 0.47424 0.6382 0.0
C1147 C 0.37157 0.42841 0.64615 0.0
C1148 C 0.42434 0.40697 0.64198 0.0
C1149 C 0.34036 0.45776 0.63457 0.0
C1150 C 0.44843 0.42059 0.62675 0.0
C1151 C 0.4178 0.45046 0.61516 0.0
H1152 H 0.3904 0.52374 0.3401 0.0
H1153 H 0.3361 0.41955 0.38009 0.0
H1154 H 0.34664 0.49806 0.39937 0.0
H1155 H 0.38433 0.59175 0.40531 0.0
H1156 H 0.44127 0.69537 0.36559 0.0
H1157 H 0.41396 0.62297 0.3456 0.0
C1158 C 0.38043 0.51849 0.35301 0.0
C1159 C 0.36348 0.46565 0.35874 0.0
C1160 C 0.38606 0.56406 0.36399 0.0
C1161 C 0.34967 0.45961 0.37543 0.0
C1162 C 0.35553 0.50454 0.38644 0.0
C1163 C 0.38796 0.59953 0.3922 0.0
C1164 C 0.41436 0.64898 0.38691 0.0
C1165 C 0.37496 0.55653 0.38091 0.0
C1166 C 0.41992 0.65829 0.36995 0.0
C1167 C 0.40566 0.61618 0.35855 0.0
H1168 H 0.32746 0.54836 0.97057 0.0
H1169 H 0.22642 0.52984 0.0143 0.0
H1170 H 0.15066 0.48874 0.99788 0.0
H1171 H 0.11967 0.44508 0.97206 0.0
H1172 H 0.22119 0.45877 0.92843 0.0
H1173 H 0.28975 0.51644 0.94365 0.0
C1174 C 0.2882 0.53683 0.97641 0.0
C1175 C 0.28268 0.54156 0.99366 0.0
C1176 C 0.24513 0.51229 0.9669 0.0
C1177 C 0.23188 0.52584 0.0011 0.0
C1178 C 0.18857 0.50245 0.99172 0.0
C1179 C 0.15593 0.46247 0.96579 0.0
C1180 C 0.16562 0.44825 0.94923 0.0
C1181 C 0.19561 0.49363 0.97475 0.0
C1182 C 0.21275 0.47007 0.94114 0.0
C1183 C 0.25218 0.50232 0.94991 0.0
H1184 H 0.45948 0.56133 0.74685 0.0
H1185 H 0.31057 0.47709 0.76407 0.0
H1186 H 0.32027 0.40658 0.74226 0.0
H1187 H 0.37291 0.36678 0.71876 0.0
H1188 H 0.52242 0.45092 0.70178 0.0
H1189 H 0.5099 0.52375 0.72266 0.0
C1190 C 0.42936 0.52731 0.74589 0.0
C1191 C 0.38467 0.52425 0.75725 0.0
C1192 C 0.43498 0.48704 0.7332 0.0
C1193 C 0.34535 0.48052 0.75555 0.0
C1194 C 0.35093 0.44011 0.74307 0.0
C1195 C 0.4025 0.40129 0.71952 0.0
C1196 C 0.44859 0.40304 0.70862 0.0
C1197 C 0.39575 0.44269 0.73186 0.0
C1198 C 0.48658 0.44817 0.70994 0.0
C1199 C 0.47953 0.48992 0.72194 0.0
H1200 H 0.21199 0.68357 0.4717 0.0
H1201 H 0.25982 0.51707 0.48499 0.0
H1202 H 0.34911 0.52903 0.47075 0.0
H1203 H 0.41666 0.58906 0.45569 0.0
H1204 H 0.36821 0.75683 0.44365 0.0
H1205 H 0.27756 0.74219 0.45641 0.0
C1206 C 0.24184 0.6498 0.47151 0.0
C1207 C 0.22866 0.59948 0.47942 0.0
C1208 C 0.29377 0.65731 0.4636 0.0
C1209 C 0.26797 0.55603 0.47878 0.0
C1210 C 0.31953 0.563 0.47076 0.0
C1211 C 0.38612 0.62221 0.45576 0.0
C1212 C 0.39993 0.67404 0.44875 0.0
C1213 C 0.3333 0.61375 0.46327 0.0
C1214 C 0.35946 0.7165 0.44901 0.0
C1215 C 0.30721 0.70825 0.4563 0.0
H1216 H 0.1793 0.48549 0.22202 0.0
H1217 H 0.33609 0.56246 0.23636 0.0
H1218 H 0.31774 0.64101 0.21826 0.0
H1219 H 0.25393 0.69079 0.19974 0.0
H1220 H 0.096 0.61373 0.18622 0.0
H1221 H 0.11801 0.53266 0.20262 0.0
C1222 C 0.2094 0.51952 0.22121 0.0
C1223 C 0.25875 0.51829 0.23061 0.0
C1224 C 0.19834 0.56472 0.21094 0.0
C1225 C 0.29789 0.56219 0.22917 0.0
C1226 C 0.28729 0.60728 0.21889 0.0
C1227 C 0.22473 0.65593 0.20019 0.0
C1228 C 0.17328 0.65868 0.1918 0.0
C1229 C 0.23728 0.60937 0.20987 0.0
C1230 C 0.13582 0.61307 0.1926 0.0
C1231 C 0.14826 0.56658 0.20202 0.0
loop_
_geom_bond_atom_site_label_1
_geom_bond_atom_site_label_2
_geom_bond_distance
_geom_bond_site_symmetry_2
_ccdc_geom_bond_type
H0 O26 0.856 . S
H1 O29 0.854 . S
H2 C37 0.930 . S
H3 C38 0.930 . S
H4 C40 0.930 1_565 S
H5 C41 0.930 1_565 S
H6 C43 0.931 . S
H7 C44 0.930 . S
H8 C46 0.930 . S
H9 C47 0.929 . S
H10 C49 0.930 . S
H11 C50 0.931 . S
H12 C52 0.930 . S
H13 C53 0.929 1_565 S
H14 C55 0.931 . S
H15 C56 0.930 . S
H16 C58 0.930 . S
H17 C59 0.932 . S
H18 C61 0.930 1_445 S
H19 C62 0.929 . S
H20 C64 0.931 . S
H21 C65 0.930 . S
H22 C67 0.929 . S
H23 C68 0.931 1_545 S
H24 C70 0.930 . S
H25 C71 0.929 . S
O26 H0 0.856 . S
O26 C72 1.300 . S
O27 C72 1.209 . S
O28 C73 1.199 . S
O29 H1 0.854 . S
O29 C73 1.297 . S
C30 C31 1.404 . S
C30 C35 1.397 . S
C30 C36 1.492 . S
C31 C30 1.404 . S
C31 C32 1.396 1_455 S
C31 C42 1.492 . S
C32 C31 1.396 1_655 S
C32 C33 1.397 . S
C32 C48 1.509 . S
C33 C32 1.397 . S
C33 C34 1.412 1_545 S
C33 C54 1.484 1_545 S
C34 C33 1.412 1_565 S
C34 C35 1.388 1_665 S
C34 C60 1.490 . S
C35 C30 1.397 . S
C35 C34 1.388 1_445 S
C35 C66 1.519 1_545 S
C36 C30 1.492 . S
C36 C37 1.363 . S
C36 C41 1.390 . S
C37 H2 0.930 . S
C37 C36 1.363 . S
C37 C38 1.372 . S
C38 H3 0.930 . S
C38 C37 1.372 . S
C38 C39 1.383 . S
C39 C38 1.383 . S
C39 C40 1.395 . S
C40 H4 0.930 1_545 S
C40 C39 1.395 . S
C40 C41 1.362 . S
C41 H5 0.930 1_545 S
C41 C36 1.390 . S
C41 C40 1.362 . S
C42 C31 1.492 . S
C42 C43 1.377 . S
C42 C47 1.397 . S
C43 H6 0.931 . S
C43 C42 1.377 . S
C43 C44 1.376 . S
C44 H7 0.930 . S
C44 C43 1.376 . S
C44 C45 1.376 . S
C45 C44 1.376 . S
C45 C46 1.378 . S
C45 C72 1.486 . S
C46 H8 0.930 . S
C46 C45 1.378 . S
C46 C47 1.376 . S
C47 H9 0.929 . S
C47 C42 1.397 . S
C47 C46 1.376 . S
C48 C32 1.509 . S
C48 C49 1.391 . S
C48 C53 1.386 . S
C49 H10 0.930 . S
C49 C48 1.391 . S
C49 C50 1.375 . S
C50 H11 0.931 . S
C50 C49 1.375 . S
C50 C51 1.375 . S
C51 C50 1.375 . S
C51 C52 1.361 . S
C52 H12 0.930 . S
C52 C51 1.361 . S
C52 C53 1.399 . S
C53 H13 0.929 1_545 S
C53 C48 1.386 . S
C53 C52 1.399 . S
C54 C33 1.484 1_565 S
C54 C55 1.390 1_565 S
C54 C59 1.365 . S
C55 H14 0.931 . S
C55 C54 1.390 1_545 S
C55 C56 1.372 . S
C56 H15 0.930 . S
C56 C55 1.372 . S
C56 C57 1.397 1_545 S
C57 C56 1.397 1_565 S
C57 C58 1.390 . S
C57 C73 1.476 . S
C58 H16 0.930 . S
C58 C57 1.390 . S
C58 C59 1.366 . S
C59 H17 0.932 . S
C59 C54 1.365 . S
C59 C58 1.366 . S
C60 C34 1.490 . S
C60 C61 1.380 . S
C60 C65 1.386 . S
C61 H18 0.930 1_665 S
C61 C60 1.380 . S
C61 C62 1.381 . S
C62 H19 0.929 . S
C62 C61 1.381 . S
C62 C63 1.371 . S
C63 C62 1.371 . S
C63 C64 1.380 . S
C64 H20 0.931 . S
C64 C63 1.380 . S
C64 C65 1.387 . S
C65 H21 0.930 . S
C65 C60 1.386 . S
C65 C64 1.387 . S
C66 C35 1.519 1_565 S
C66 C67 1.377 1_565 S
C66 C71 1.361 . S
C67 H22 0.929 . S
C67 C66 1.377 1_545 S
C67 C68 1.386 1_545 S
C68 H23 0.931 1_565 S
C68 C67 1.386 1_565 S
C68 C69 1.363 . S
C69 C68 1.363 . S
C69 C70 1.385 . S
C70 H24 0.930 . S
C70 C69 1.385 . S
C70 C71 1.396 . S
C71 H25 0.929 . S
C71 C66 1.361 . S
C71 C70 1.396 . S
C72 O26 1.300 . S
C72 O27 1.209 . S
C72 C45 1.486 . S
C73 O28 1.199 . S
C73 O29 1.297 . S
C73 C57 1.476 . S
H74 O100 0.856 . S
H75 O103 0.854 . S
H76 C111 0.930 . S
H77 C112 0.930 . S
H78 C114 0.930 . S
H79 C115 0.930 . S
H80 C117 0.931 . S
H81 C118 0.930 . S
H82 C120 0.930 . S
H83 C121 0.929 . S
H84 C123 0.930 . S
H85 C124 0.931 . S
H86 C126 0.930 . S
H87 C127 0.929 . S
H88 C129 0.931 . S
H89 C130 0.930 . S
H90 C132 0.930 . S
H91 C133 0.932 . S
H92 C135 0.930 . S
H93 C136 0.929 . S
H94 C138 0.931 . S
H95 C139 0.930 . S
H96 C141 0.929 . S
H97 C142 0.931 . S
H98 C144 0.930 . S
H99 C145 0.929 . S
O100 H74 0.856 . S
O100 C146 1.300 . S
O101 C146 1.209 . S
O102 C147 1.199 . S
O103 H75 0.854 . S
O103 C147 1.297 . S
C104 C105 1.404 . S
C104 C109 1.397 . S
C104 C110 1.492 . S
C105 C104 1.404 . S
C105 C106 1.396 . S
C105 C116 1.492 . S
C106 C105 1.396 . S
C106 C107 1.397 . S
C106 C122 1.509 . S
C107 C106 1.397 . S
C107 C108 1.412 . S
C107 C128 1.485 . S
C108 C107 1.412 . S
C108 C109 1.388 . S
C108 C134 1.490 . S
C109 C104 1.397 . S
C109 C108 1.388 . S
C109 C140 1.519 . S
C110 C104 1.492 . S
C110 C111 1.363 . S
C110 C115 1.390 . S
C111 H76 0.930 . S
C111 C110 1.363 . S
C111 C112 1.372 . S
C112 H77 0.930 . S
C112 C111 1.372 . S
C112 C113 1.383 . S
C113 C112 1.383 . S
C113 C114 1.395 . S
C114 H78 0.930 . S
C114 C113 1.395 . S
C114 C115 1.362 . S
C115 H79 0.930 . S
C115 C110 1.390 . S
C115 C114 1.362 . S
C116 C105 1.492 . S
C116 C117 1.377 . S
C116 C121 1.397 . S
C117 H80 0.931 . S
C117 C116 1.377 . S
C117 C118 1.376 . S
C118 H81 0.930 . S
C118 C117 1.376 . S
C118 C119 1.376 . S
C119 C118 1.376 . S
C119 C120 1.378 . S
C119 C146 1.486 . S
C120 H82 0.930 . S
C120 C119 1.378 . S
C120 C121 1.376 . S
C121 H83 0.929 . S
C121 C116 1.397 . S
C121 C120 1.376 . S
C122 C106 1.509 . S
C122 C123 1.391 . S
C122 C127 1.386 . S
C123 H84 0.930 . S
C123 C122 1.391 . S
C123 C124 1.375 . S
C124 H85 0.931 . S
C124 C123 1.375 . S
C124 C125 1.375 . S
C125 C124 1.375 . S
C125 C126 1.361 . S
C126 H86 0.930 . S
C126 C125 1.361 . S
C126 C127 1.399 . S
C127 H87 0.929 . S
C127 C122 1.386 . S
C127 C126 1.399 . S
C128 C107 1.485 . S
C128 C129 1.394 . S
C128 C133 1.360 . S
C129 H88 0.931 . S
C129 C128 1.394 . S
C129 C130 1.372 1_565 S
C130 H89 0.930 . S
C130 C129 1.372 1_545 S
C130 C131 1.397 . S
C131 C130 1.397 . S
C131 C132 1.390 . S
C131 C147 1.476 . S
C132 H90 0.930 . S
C132 C131 1.390 . S
C132 C133 1.366 1_545 S
C133 H91 0.932 . S
C133 C128 1.360 . S
C133 C132 1.366 1_565 S
C134 C108 1.490 . S
C134 C135 1.380 . S
C134 C139 1.386 . S
C135 H92 0.930 . S
C135 C134 1.380 . S
C135 C136 1.381 . S
C136 H93 0.929 . S
C136 C135 1.381 . S
C136 C137 1.371 . S
C137 C136 1.371 . S
C137 C138 1.380 . S
C138 H94 0.931 . S
C138 C137 1.380 . S
C138 C139 1.387 . S
C139 H95 0.930 . S
C139 C134 1.386 . S
C139 C138 1.387 . S
C140 C109 1.519 . S
C140 C141 1.377 . S
C140 C145 1.361 . S
C141 H96 0.929 . S
C141 C140 1.377 . S
C141 C142 1.386 . S
C142 H97 0.931 . S
C142 C141 1.386 . S
C142 C143 1.363 . S
C143 C142 1.363 . S
C143 C144 1.385 . S
C144 H98 0.930 . S
C144 C143 1.385 . S
C144 C145 1.396 . S
C145 H99 0.929 . S
C145 C140 1.361 . S
C145 C144 1.396 . S
C146 O100 1.300 . S
C146 O101 1.209 . S
C146 C119 1.486 . S
C147 O102 1.199 . S
C147 O103 1.297 . S
C147 C131 1.476 . S
H148 O174 0.856 . S
H149 O177 0.854 . S
H150 C185 0.930 . S
H151 C186 0.930 . S
H152 C188 0.930 . S
H153 C189 0.930 . S
H154 C191 0.931 . S
H155 C192 0.930 . S
H156 C194 0.930 1_545 S
H157 C195 0.929 . S
H158 C197 0.930 . S
H159 C198 0.931 . S
H160 C200 0.930 . S
H161 C201 0.929 . S
H162 C203 0.931 . S
H163 C204 0.930 . S
H164 C206 0.930 . S
H165 C207 0.932 . S
H166 C209 0.930 . S
H167 C210 0.929 . S
H168 C212 0.931 . S
H169 C213 0.930 . S
H170 C215 0.929 . S
H171 C216 0.931 . S
H172 C218 0.930 . S
H173 C219 0.929 . S
O174 H148 0.856 . S
O174 C220 1.300 . S
O175 C220 1.209 . S
O176 C221 1.199 . S
O177 H149 0.854 . S
O177 C221 1.297 . S
C178 C179 1.404 . S
C178 C183 1.397 . S
C178 C184 1.492 . S
C179 C178 1.404 . S
C179 C180 1.396 . S
C179 C190 1.492 1_545 S
C180 C179 1.396 . S
C180 C181 1.397 . S
C180 C196 1.509 . S
C181 C180 1.397 . S
C181 C182 1.412 . S
C181 C202 1.485 . S
C182 C181 1.412 . S
C182 C183 1.388 . S
C182 C208 1.490 . S
C183 C178 1.397 . S
C183 C182 1.388 . S
C183 C214 1.519 . S
C184 C178 1.492 . S
C184 C185 1.363 1_545 S
C184 C189 1.390 . S
C185 H150 0.930 . S
C185 C184 1.363 1_565 S
C185 C186 1.372 . S
C186 H151 0.930 . S
C186 C185 1.372 . S
C186 C187 1.383 . S
C187 C186 1.383 . S
C187 C188 1.395 1_565 S
C188 H152 0.930 . S
C188 C187 1.395 1_545 S
C188 C189 1.362 . S
C189 H153 0.930 . S
C189 C184 1.390 . S
C189 C188 1.362 . S
C190 C179 1.492 1_565 S
C190 C191 1.377 . S
C190 C195 1.397 1_565 S
C191 H154 0.931 . S
C191 C190 1.377 . S
C191 C192 1.376 . S
C192 H155 0.930 . S
C192 C191 1.376 . S
C192 C193 1.376 . S
C193 C192 1.376 . S
C193 C194 1.378 . S
C193 C220 1.486 . S
C194 H156 0.930 1_565 S
C194 C193 1.378 . S
C194 C195 1.376 1_565 S
C195 H157 0.929 . S
C195 C190 1.397 1_545 S
C195 C194 1.376 1_545 S
C196 C180 1.509 . S
C196 C197 1.391 1_545 S
C196 C201 1.386 . S
C197 H158 0.930 . S
C197 C196 1.391 1_565 S
C197 C198 1.375 . S
C198 H159 0.931 . S
C198 C197 1.375 . S
C198 C199 1.375 . S
C199 C198 1.375 . S
C199 C200 1.361 1_565 S
C200 H160 0.930 . S
C200 C199 1.361 1_545 S
C200 C201 1.399 . S
C201 H161 0.929 . S
C201 C196 1.386 . S
C201 C200 1.399 . S
C202 C181 1.485 . S
C202 C203 1.394 . S
C202 C207 1.360 . S
C203 H162 0.931 . S
C203 C202 1.394 . S
C203 C204 1.372 . S
C204 H163 0.930 . S
C204 C203 1.372 . S
C204 C205 1.397 . S
C205 C204 1.397 . S
C205 C206 1.390 . S
C205 C221 1.476 . S
C206 H164 0.930 . S
C206 C205 1.390 . S
C206 C207 1.366 . S
C207 H165 0.932 . S
C207 C202 1.360 . S
C207 C206 1.366 . S
C208 C182 1.490 . S
C208 C209 1.380 . S
C208 C213 1.386 . S
C209 H166 0.930 . S
C209 C208 1.380 . S
C209 C210 1.381 1_554 S
C210 H167 0.929 . S
C210 C209 1.381 1_556 S
C210 C211 1.371 . S
C211 C210 1.371 . S
C211 C212 1.380 1_556 S
C212 H168 0.931 . S
C212 C211 1.380 1_554 S
C212 C213 1.387 . S
C213 H169 0.930 . S
C213 C208 1.386 . S
C213 C212 1.387 . S
C214 C183 1.519 . S
C214 C215 1.377 . S
C214 C219 1.361 . S
C215 H170 0.929 . S
C215 C214 1.377 . S
C215 C216 1.386 . S
C216 H171 0.931 . S
C216 C215 1.386 . S
C216 C217 1.363 . S
C217 C216 1.363 . S
C217 C218 1.385 . S
C218 H172 0.930 . S
C218 C217 1.385 . S
C218 C219 1.396 . S
C219 H173 0.929 . S
C219 C214 1.361 . S
C219 C218 1.396 . S
C220 O174 1.300 . S
C220 O175 1.209 . S
C220 C193 1.486 . S
C221 O176 1.199 . S
C221 O177 1.297 . S
C221 C205 1.476 . S
H222 O248 0.856 . S
H223 O251 0.854 . S
H224 C259 0.930 . S
H225 C260 0.930 . S
H226 C262 0.930 . S
H227 C263 0.930 . S
H228 C265 0.931 . S
H229 C266 0.930 . S
H230 C268 0.930 . S
H231 C269 0.929 . S
H232 C271 0.930 . S
H233 C272 0.931 . S
H234 C274 0.930 . S
H235 C275 0.929 . S
H236 C277 0.931 . S
H237 C278 0.930 . S
H238 C280 0.930 . S
H239 C281 0.932 . S
H240 C283 0.930 . S
H241 C284 0.929 . S
H242 C286 0.931 . S
H243 C287 0.930 . S
H244 C289 0.929 . S
H245 C290 0.931 . S
H246 C292 0.930 . S
H247 C293 0.929 . S
O248 H222 0.856 . S
O248 C294 1.300 . S
O249 C294 1.209 . S
O250 C295 1.199 . S
O251 H223 0.854 . S
O251 C295 1.297 . S
C252 C253 1.404 . S
C252 C257 1.397 . S
C252 C258 1.492 . S
C253 C252 1.404 . S
C253 C254 1.396 . S
C253 C264 1.492 . S
C254 C253 1.396 . S
C254 C255 1.397 . S
C254 C270 1.509 . S
C255 C254 1.397 . S
C255 C256 1.412 . S
C255 C276 1.485 . S
C256 C255 1.412 . S
C256 C257 1.388 . S
C256 C282 1.490 . S
C257 C252 1.397 . S
C257 C256 1.388 . S
C257 C288 1.519 . S
C258 C252 1.492 . S
C258 C259 1.363 . S
C258 C263 1.390 . S
C259 H224 0.930 . S
C259 C258 1.363 . S
C259 C260 1.372 . S
C260 H225 0.930 . S
C260 C259 1.372 . S
C260 C261 1.383 . S
C261 C260 1.383 . S
C261 C262 1.395 . S
C262 H226 0.930 . S
C262 C261 1.395 . S
C262 C263 1.362 . S
C263 H227 0.930 . S
C263 C258 1.390 . S
C263 C262 1.362 . S
C264 C253 1.492 . S
C264 C265 1.377 . S
C264 C269 1.397 . S
C265 H228 0.931 . S
C265 C264 1.377 . S
C265 C266 1.376 . S
C266 H229 0.930 . S
C266 C265 1.376 . S
C266 C267 1.376 . S
C267 C266 1.376 . S
C267 C268 1.378 . S
C267 C294 1.486 . S
C268 H230 0.930 . S
C268 C267 1.378 . S
C268 C269 1.376 . S
C269 H231 0.929 . S
C269 C264 1.397 . S
C269 C268 1.376 . S
C270 C254 1.509 . S
C270 C271 1.391 . S
C270 C275 1.386 . S
C271 H232 0.930 . S
C271 C270 1.391 . S
C271 C272 1.375 . S
C272 H233 0.931 . S
C272 C271 1.375 . S
C272 C273 1.375 . S
C273 C272 1.375 . S
C273 C274 1.361 . S
C274 H234 0.930 . S
C274 C273 1.361 . S
C274 C275 1.399 . S
C275 H235 0.929 . S
C275 C270 1.386 . S
C275 C274 1.399 . S
C276 C255 1.485 . S
C276 C277 1.394 . S
C276 C281 1.360 . S
C277 H236 0.931 . S
C277 C276 1.394 . S
C277 C278 1.372 . S
C278 H237 0.930 . S
C278 C277 1.372 . S
C278 C279 1.397 . S
C279 C278 1.397 . S
C279 C280 1.390 . S
C279 C295 1.476 . S
C280 H238 0.930 . S
C280 C279 1.390 . S
C280 C281 1.366 . S
C281 H239 0.932 . S
C281 C276 1.360 . S
C281 C280 1.366 . S
C282 C256 1.490 . S
C282 C283 1.380 . S
C282 C287 1.386 . S
C283 H240 0.930 . S
C283 C282 1.380 . S
C283 C284 1.381 . S
C284 H241 0.929 . S
C284 C283 1.381 . S
C284 C285 1.371 . S
C285 C284 1.371 . S
C285 C286 1.380 . S
C286 H242 0.931 . S
C286 C285 1.380 . S
C286 C287 1.387 . S
C287 H243 0.930 . S
C287 C282 1.386 . S
C287 C286 1.387 . S
C288 C257 1.519 . S
C288 C289 1.377 . S
C288 C293 1.361 . S
C289 H244 0.929 . S
C289 C288 1.377 . S
C289 C290 1.386 . S
C290 H245 0.931 . S
C290 C289 1.386 . S
C290 C291 1.363 . S
C291 C290 1.363 . S
C291 C292 1.385 . S
C292 H246 0.930 . S
C292 C291 1.385 . S
C292 C293 1.396 . S
C293 H247 0.929 . S
C293 C288 1.361 . S
C293 C292 1.396 . S
C294 O248 1.300 . S
C294 O249 1.209 . S
C294 C267 1.486 . S
C295 O250 1.199 . S
C295 O251 1.297 . S
C295 C279 1.476 . S
H296 O322 0.856 . S
H297 O325 0.854 . S
H298 C333 0.930 . S
H299 C334 0.930 . S
H300 C336 0.930 . S
H301 C337 0.930 . S
H302 C339 0.931 . S
H303 C340 0.930 . S
H304 C342 0.930 . S
H305 C343 0.929 . S
H306 C345 0.930 . S
H307 C346 0.931 . S
H308 C348 0.930 . S
H309 C349 0.929 . S
H310 C351 0.931 . S
H311 C352 0.930 . S
H312 C354 0.930 . S
H313 C355 0.932 . S
H314 C357 0.930 . S
H315 C358 0.929 . S
H316 C360 0.931 . S
H317 C361 0.930 . S
H318 C363 0.929 . S
H319 C364 0.931 . S
H320 C366 0.930 . S
H321 C367 0.929 . S
O322 H296 0.856 . S
O322 C368 1.300 . S
O323 C368 1.209 . S
O324 C369 1.199 . S
O325 H297 0.854 . S
O325 C369 1.297 . S
C326 C327 1.404 . S
C326 C331 1.397 . S
C326 C332 1.492 . S
C327 C326 1.404 . S
C327 C328 1.396 . S
C327 C338 1.492 . S
C328 C327 1.396 . S
C328 C329 1.397 . S
C328 C344 1.509 . S
C329 C328 1.397 . S
C329 C330 1.412 . S
C329 C350 1.485 . S
C330 C329 1.412 . S
C330 C331 1.388 . S
C330 C356 1.490 . S
C331 C326 1.397 . S
C331 C330 1.388 . S
C331 C362 1.519 . S
C332 C326 1.492 . S
C332 C333 1.363 . S
C332 C337 1.390 . S
C333 H298 0.930 . S
C333 C332 1.363 . S
C333 C334 1.372 . S
C334 H299 0.930 . S
C334 C333 1.372 . S
C334 C335 1.383 . S
C335 C334 1.383 . S
C335 C336 1.395 . S
C336 H300 0.930 . S
C336 C335 1.395 . S
C336 C337 1.362 . S
C337 H301 0.930 . S
C337 C332 1.390 . S
C337 C336 1.362 . S
C338 C327 1.492 . S
C338 C339 1.377 . S
C338 C343 1.397 . S
C339 H302 0.931 . S
C339 C338 1.377 . S
C339 C340 1.376 . S
C340 H303 0.930 . S
C340 C339 1.376 . S
C340 C341 1.376 . S
C341 C340 1.376 . S
C341 C342 1.378 . S
C341 C368 1.486 . S
C342 H304 0.930 . S
C342 C341 1.378 . S
C342 C343 1.376 . S
C343 H305 0.929 . S
C343 C338 1.397 . S
C343 C342 1.376 . S
C344 C328 1.509 . S
C344 C345 1.391 . S
C344 C349 1.386 . S
C345 H306 0.930 . S
C345 C344 1.391 . S
C345 C346 1.375 . S
C346 H307 0.931 . S
C346 C345 1.375 . S
C346 C347 1.375 . S
C347 C346 1.375 . S
C347 C348 1.361 . S
C348 H308 0.930 . S
C348 C347 1.361 . S
C348 C349 1.399 . S
C349 H309 0.929 . S
C349 C344 1.386 . S
C349 C348 1.399 . S
C350 C329 1.485 . S
C350 C351 1.394 . S
C350 C355 1.360 . S
C351 H310 0.931 . S
C351 C350 1.394 . S
C351 C352 1.372 . S
C352 H311 0.930 . S
C352 C351 1.372 . S
C352 C353 1.397 . S
C353 C352 1.397 . S
C353 C354 1.390 . S
C353 C369 1.476 . S
C354 H312 0.930 . S
C354 C353 1.390 . S
C354 C355 1.366 . S
C355 H313 0.932 . S
C355 C350 1.360 . S
C355 C354 1.366 . S
C356 C330 1.490 . S
C356 C357 1.380 . S
C356 C361 1.386 . S
C357 H314 0.930 . S
C357 C356 1.380 . S
C357 C358 1.381 . S
C358 H315 0.929 . S
C358 C357 1.381 . S
C358 C359 1.371 . S
C359 C358 1.371 . S
C359 C360 1.380 . S
C360 H316 0.931 . S
C360 C359 1.380 . S
C360 C361 1.387 . S
C361 H317 0.930 . S
C361 C356 1.386 . S
C361 C360 1.387 . S
C362 C331 1.519 . S
C362 C363 1.377 . S
C362 C367 1.361 . S
C363 H318 0.929 . S
C363 C362 1.377 . S
C363 C364 1.386 . S
C364 H319 0.931 . S
C364 C363 1.386 . S
C364 C365 1.363 . S
C365 C364 1.363 . S
C365 C366 1.385 . S
C366 H320 0.930 . S
C366 C365 1.385 . S
C366 C367 1.396 . S
C367 H321 0.929 . S
C367 C362 1.361 . S
C367 C366 1.396 . S
C368 O322 1.300 . S
C368 O323 1.209 . S
C368 C341 1.486 . S
C369 O324 1.199 . S
C369 O325 1.297 . S
C369 C353 1.476 . S
H370 O396 0.856 . S
H371 O399 0.854 . S
H372 C407 0.930 . S
H373 C408 0.930 . S
H374 C410 0.930 . S
H375 C411 0.930 . S
H376 C413 0.931 . S
H377 C414 0.930 . S
H378 C416 0.930 . S
H379 C417 0.929 . S
H380 C419 0.930 . S
H381 C420 0.931 . S
H382 C422 0.930 . S
H383 C423 0.929 . S
H384 C425 0.931 . S
H385 C426 0.930 . S
H386 C428 0.930 . S
H387 C429 0.932 . S
H388 C431 0.930 . S
H389 C432 0.929 . S
H390 C434 0.931 . S
H391 C435 0.930 . S
H392 C437 0.929 . S
H393 C438 0.931 . S
H394 C440 0.930 . S
H395 C441 0.929 . S
O396 H370 0.856 . S
O396 C442 1.300 . S
O397 C442 1.209 . S
O398 C443 1.199 . S
O399 H371 0.854 . S
O399 C443 1.297 . S
C400 C401 1.404 . S
C400 C405 1.397 . S
C400 C406 1.492 . S
C401 C400 1.404 . S
C401 C402 1.396 . S
C401 C412 1.492 . S
C402 C401 1.396 . S
C402 C403 1.397 . S
C402 C418 1.509 . S
C403 C402 1.397 . S
C403 C404 1.412 . S
C403 C424 1.485 . S
C404 C403 1.412 . S
C404 C405 1.388 . S
C404 C430 1.490 . S
C405 C400 1.397 . S
C405 C404 1.388 . S
C405 C436 1.519 . S
C406 C400 1.492 . S
C406 C407 1.363 . S
C406 C411 1.390 . S
C407 H372 0.930 . S
C407 C406 1.363 . S
C407 C408 1.372 . S
C408 H373 0.930 . S
C408 C407 1.372 . S
C408 C409 1.383 . S
C409 C408 1.383 . S
C409 C410 1.395 . S
C410 H374 0.930 . S
C410 C409 1.395 . S
C410 C411 1.362 . S
C411 H375 0.930 . S
C411 C406 1.390 . S
C411 C410 1.362 . S
C412 C401 1.492 . S
C412 C413 1.377 . S
C412 C417 1.397 . S
C413 H376 0.931 . S
C413 C412 1.377 . S
C413 C414 1.376 . S
C414 H377 0.930 . S
C414 C413 1.376 . S
C414 C415 1.376 . S
C415 C414 1.376 . S
C415 C416 1.378 . S
C415 C442 1.486 . S
C416 H378 0.930 . S
C416 C415 1.378 . S
C416 C417 1.376 . S
C417 H379 0.929 . S
C417 C412 1.397 . S
C417 C416 1.376 . S
C418 C402 1.509 . S
C418 C419 1.391 . S
C418 C423 1.386 . S
C419 H380 0.930 . S
C419 C418 1.391 . S
C419 C420 1.375 . S
C420 H381 0.931 . S
C420 C419 1.375 . S
C420 C421 1.375 . S
C421 C420 1.375 . S
C421 C422 1.361 . S
C422 H382 0.930 . S
C422 C421 1.361 . S
C422 C423 1.399 . S
C423 H383 0.929 . S
C423 C418 1.386 . S
C423 C422 1.399 . S
C424 C403 1.485 . S
C424 C425 1.394 . S
C424 C429 1.360 . S
C425 H384 0.931 . S
C425 C424 1.394 . S
C425 C426 1.372 . S
C426 H385 0.930 . S
C426 C425 1.372 . S
C426 C427 1.397 . S
C427 C426 1.397 . S
C427 C428 1.390 . S
C427 C443 1.476 . S
C428 H386 0.930 . S
C428 C427 1.390 . S
C428 C429 1.366 . S
C429 H387 0.932 . S
C429 C424 1.360 . S
C429 C428 1.366 . S
C430 C404 1.490 . S
C430 C431 1.380 . S
C430 C435 1.386 . S
C431 H388 0.930 . S
C431 C430 1.380 . S
C431 C432 1.381 . S
C432 H389 0.929 . S
C432 C431 1.381 . S
C432 C433 1.371 . S
C433 C432 1.371 . S
C433 C434 1.380 . S
C434 H390 0.931 . S
C434 C433 1.380 . S
C434 C435 1.387 . S
C435 H391 0.930 . S
C435 C430 1.386 . S
C435 C434 1.387 . S
C436 C405 1.519 . S
C436 C437 1.377 . S
C436 C441 1.361 . S
C437 H392 0.929 . S
C437 C436 1.377 . S
C437 C438 1.386 . S
C438 H393 0.931 . S
C438 C437 1.386 . S
C438 C439 1.363 . S
C439 C438 1.363 . S
C439 C440 1.385 . S
C440 H394 0.930 . S
C440 C439 1.385 . S
C440 C441 1.396 . S
C441 H395 0.929 . S
C441 C436 1.361 . S
C441 C440 1.396 . S
C442 O396 1.300 . S
C442 O397 1.209 . S
C442 C415 1.486 . S
C443 O398 1.199 . S
C443 O399 1.297 . S
C443 C427 1.476 . S
H444 O470 0.856 . S
H445 O473 0.854 . S
H446 C481 0.930 . S
H447 C482 0.931 . S
H448 C484 0.930 . S
H449 C485 0.930 . S
H450 C487 0.931 . S
H451 C488 0.930 . S
H452 C490 0.930 . S
H453 C491 0.929 . S
H454 C493 0.930 . S
H455 C494 0.931 . S
H456 C496 0.930 . S
H457 C497 0.929 . S
H458 C499 0.931 . S
H459 C500 0.930 . S
H460 C502 0.930 . S
H461 C503 0.932 . S
H462 C505 0.930 . S
H463 C506 0.929 . S
H464 C508 0.931 . S
H465 C509 0.930 . S
H466 C511 0.929 . S
H467 C512 0.931 . S
H468 C514 0.930 . S
H469 C515 0.929 . S
O470 H444 0.856 . S
O470 C516 1.300 . S
O471 C516 1.209 . S
O472 C517 1.199 . S
O473 H445 0.854 . S
O473 C517 1.297 . S
C474 C475 1.404 . S
C474 C479 1.397 . S
C474 C480 1.492 . S
C475 C474 1.404 . S
C475 C476 1.396 . S
C475 C486 1.492 . S
C476 C475 1.396 . S
C476 C477 1.397 . S
C476 C492 1.509 . S
C477 C476 1.397 . S
C477 C478 1.412 . S
C477 C498 1.485 . S
C478 C477 1.412 . S
C478 C479 1.388 . S
C478 C504 1.490 . S
C479 C474 1.397 . S
C479 C478 1.388 . S
C479 C510 1.519 . S
C480 C474 1.492 . S
C480 C481 1.363 . S
C480 C485 1.390 . S
C481 H446 0.930 . S
C481 C480 1.363 . S
C481 C482 1.372 . S
C482 H447 0.931 . S
C482 C481 1.372 . S
C482 C483 1.383 . S
C483 C482 1.383 . S
C483 C484 1.395 . S
C484 H448 0.930 . S
C484 C483 1.395 . S
C484 C485 1.362 . S
C485 H449 0.930 . S
C485 C480 1.390 . S
C485 C484 1.362 . S
C486 C475 1.492 . S
C486 C487 1.377 1_554 S
C486 C491 1.397 . S
C487 H450 0.931 . S
C487 C486 1.377 1_556 S
C487 C488 1.376 . S
C488 H451 0.930 . S
C488 C487 1.376 . S
C488 C489 1.376 . S
C489 C488 1.376 . S
C489 C490 1.378 . S
C489 C516 1.486 . S
C490 H452 0.930 . S
C490 C489 1.378 . S
C490 C491 1.376 1_556 S
C491 H453 0.929 . S
C491 C486 1.397 . S
C491 C490 1.376 1_554 S
C492 C476 1.509 . S
C492 C493 1.391 . S
C492 C497 1.386 . S
C493 H454 0.930 . S
C493 C492 1.391 . S
C493 C494 1.375 1_554 S
C494 H455 0.931 . S
C494 C493 1.375 1_556 S
C494 C495 1.375 . S
C495 C494 1.375 . S
C495 C496 1.361 1_556 S
C496 H456 0.930 . S
C496 C495 1.361 1_554 S
C496 C497 1.399 . S
C497 H457 0.929 . S
C497 C492 1.386 . S
C497 C496 1.399 . S
C498 C477 1.485 . S
C498 C499 1.394 . S
C498 C503 1.360 . S
C499 H458 0.931 . S
C499 C498 1.394 . S
C499 C500 1.372 . S
C500 H459 0.930 . S
C500 C499 1.372 . S
C500 C501 1.397 . S
C501 C500 1.397 . S
C501 C502 1.390 . S
C501 C517 1.476 . S
C502 H460 0.930 . S
C502 C501 1.390 . S
C502 C503 1.366 . S
C503 H461 0.932 . S
C503 C498 1.360 . S
C503 C502 1.366 . S
C504 C478 1.490 . S
C504 C505 1.380 . S
C504 C509 1.386 . S
C505 H462 0.930 . S
C505 C504 1.380 . S
C505 C506 1.381 . S
C506 H463 0.929 . S
C506 C505 1.381 . S
C506 C507 1.371 . S
C507 C506 1.371 . S
C507 C508 1.380 . S
C508 H464 0.931 . S
C508 C507 1.380 . S
C508 C509 1.387 . S
C509 H465 0.930 . S
C509 C504 1.386 . S
C509 C508 1.387 . S
C510 C479 1.519 . S
C510 C511 1.377 . S
C510 C515 1.361 . S
C511 H466 0.929 . S
C511 C510 1.377 . S
C511 C512 1.386 . S
C512 H467 0.931 . S
C512 C511 1.386 . S
C512 C513 1.363 . S
C513 C512 1.363 . S
C513 C514 1.385 . S
C514 H468 0.930 . S
C514 C513 1.385 . S
C514 C515 1.396 . S
C515 H469 0.929 . S
C515 C510 1.361 . S
C515 C514 1.396 . S
C516 O470 1.300 . S
C516 O471 1.209 . S
C516 C489 1.486 . S
C517 O472 1.199 . S
C517 O473 1.297 . S
C517 C501 1.476 . S
H518 O544 0.862 . S
H519 O547 0.854 . S
H520 C555 0.930 . S
H521 C556 0.930 . S
H522 C558 0.930 . S
H523 C559 0.930 . S
H524 C561 0.931 . S
H525 C562 0.930 . S
H526 C564 0.930 . S
H527 C565 0.929 . S
H528 C567 0.930 . S
H529 C568 0.931 . S
H530 C570 0.930 . S
H531 C571 0.929 . S
H532 C573 0.931 . S
H533 C574 0.930 . S
H534 C576 0.930 . S
H535 C577 0.932 . S
H536 C579 0.930 . S
H537 C580 0.929 . S
H538 C582 0.931 . S
H539 C583 0.930 . S
H540 C585 0.929 . S
H541 C586 0.931 . S
H542 C588 0.930 . S
H543 C589 0.929 1_455 S
O544 H518 0.862 . S
O544 C590 1.300 1_455 S
O545 C590 1.209 . S
O546 C591 1.199 . S
O547 H519 0.854 . S
O547 C591 1.297 . S
C548 C549 1.404 . S
C548 C553 1.397 . S
C548 C554 1.492 1_455 S
C549 C548 1.404 . S
C549 C550 1.396 . S
C549 C560 1.492 . S
C550 C549 1.396 . S
C550 C551 1.397 . S
C550 C566 1.509 . S
C551 C550 1.397 . S
C551 C552 1.412 . S
C551 C572 1.485 . S
C552 C551 1.412 . S
C552 C553 1.388 . S
C552 C578 1.490 . S
C553 C548 1.397 . S
C553 C552 1.388 . S
C553 C584 1.519 1_455 S
C554 C548 1.492 1_655 S
C554 C555 1.363 . S
C554 C559 1.390 . S
C555 H520 0.930 . S
C555 C554 1.363 . S
C555 C556 1.372 . S
C556 H521 0.930 . S
C556 C555 1.372 . S
C556 C557 1.383 . S
C557 C556 1.383 . S
C557 C558 1.395 . S
C558 H522 0.930 . S
C558 C557 1.395 . S
C558 C559 1.362 . S
C559 H523 0.930 . S
C559 C554 1.390 . S
C559 C558 1.362 . S
C560 C549 1.492 . S
C560 C561 1.377 . S
C560 C565 1.397 . S
C561 H524 0.931 . S
C561 C560 1.377 . S
C561 C562 1.376 . S
C562 H525 0.930 . S
C562 C561 1.376 . S
C562 C563 1.376 . S
C563 C562 1.376 . S
C563 C564 1.378 1_455 S
C563 C590 1.486 1_455 S
C564 H526 0.930 . S
C564 C563 1.378 1_655 S
C564 C565 1.376 1_655 S
C565 H527 0.929 . S
C565 C560 1.397 . S
C565 C564 1.376 1_455 S
C566 C550 1.509 . S
C566 C567 1.391 . S
C566 C571 1.386 . S
C567 H528 0.930 . S
C567 C566 1.391 . S
C567 C568 1.375 . S
C568 H529 0.931 . S
C568 C567 1.375 . S
C568 C569 1.375 . S
C569 C568 1.375 . S
C569 C570 1.361 . S
C570 H530 0.930 . S
C570 C569 1.361 . S
C570 C571 1.399 . S
C571 H531 0.929 . S
C571 C566 1.386 . S
C571 C570 1.399 . S
C572 C551 1.485 . S
C572 C573 1.394 . S
C572 C577 1.360 . S
C573 H532 0.931 . S
C573 C572 1.394 . S
C573 C574 1.372 . S
C574 H533 0.930 . S
C574 C573 1.372 . S
C574 C575 1.397 . S
C575 C574 1.397 . S
C575 C576 1.390 . S
C575 C591 1.476 . S
C576 H534 0.930 . S
C576 C575 1.390 . S
C576 C577 1.366 . S
C577 H535 0.932 . S
C577 C572 1.360 . S
C577 C576 1.366 . S
C578 C552 1.490 . S
C578 C579 1.380 . S
C578 C583 1.386 . S
C579 H536 0.930 . S
C579 C578 1.380 . S
C579 C580 1.381 . S
C580 H537 0.929 . S
C580 C579 1.381 . S
C580 C581 1.371 . S
C581 C580 1.371 . S
C581 C582 1.380 . S
C582 H538 0.931 . S
C582 C581 1.380 . S
C582 C583 1.387 . S
C583 H539 0.930 . S
C583 C578 1.386 . S
C583 C582 1.387 . S
C584 C553 1.519 1_655 S
C584 C585 1.377 . S
C584 C589 1.361 . S
C585 H540 0.929 . S
C585 C584 1.377 . S
C585 C586 1.386 . S
C586 H541 0.931 . S
C586 C585 1.386 . S
C586 C587 1.363 . S
C587 C586 1.363 . S
C587 C588 1.385 . S
C588 H542 0.930 . S
C588 C587 1.385 . S
C588 C589 1.396 . S
C589 H543 0.929 1_655 S
C589 C584 1.361 . S
C589 C588 1.396 . S
C590 O544 1.300 1_655 S
C590 O545 1.209 . S
C590 C563 1.486 1_655 S
C591 O546 1.199 . S
C591 O547 1.297 . S
C591 C575 1.476 . S
Fe592 O593 1.886 . S
Fe592 O596 1.715 1_455 S
Fe592 O601 2.077 . S
Fe592 O606 1.935 1_455 S
Fe592 O612 2.077 . S
Fe592 O621 1.935 1_455 S
O593 Fe592 1.886 . S
O593 Fe595 1.715 . S
Fe594 O596 1.886 . S
Fe594 O597 1.715 . S
Fe594 O604 1.935 . S
Fe594 O605 2.077 . S
Fe594 O611 1.935 . S
Fe594 O620 2.077 . S
Fe595 O593 1.715 . S
Fe595 O598 1.886 . S
Fe595 O602 1.935 . S
Fe595 O607 2.077 . S
Fe595 O613 1.935 . S
Fe595 O617 2.077 . S
O596 Fe592 1.715 1_655 S
O596 Fe594 1.886 . S
O597 Fe594 1.715 . S
O597 Fe599 1.886 1_655 S
O598 Fe595 1.886 . S
O598 Fe599 1.715 . S
Fe599 O597 1.886 1_455 S
Fe599 O598 1.715 . S
Fe599 O603 2.077 1_455 S
Fe599 O608 1.935 . S
Fe599 O610 2.077 1_455 S
Fe599 O618 1.935 . S
C600 O612 1.381 . S
C600 O613 1.421 . S
O601 Fe592 2.077 . S
O601 C614 1.381 . S
O602 Fe595 1.935 . S
O602 C614 1.421 . S
O603 Fe599 2.077 1_655 S
O603 C619 1.381 . S
O604 Fe594 1.935 . S
O604 C619 1.421 . S
O605 Fe594 2.077 . S
O605 C609 1.381 . S
O606 Fe592 1.935 1_655 S
O606 C609 1.421 . S
O607 Fe595 2.077 . S
O607 C615 1.381 . S
O608 Fe599 1.935 . S
O608 C615 1.421 . S
C609 O605 1.381 . S
C609 O606 1.421 . S
O610 Fe599 2.077 1_655 S
O610 C622 1.381 . S
O611 Fe594 1.935 . S
O611 C622 1.421 . S
O612 Fe592 2.077 . S
O612 C600 1.381 . S
O613 Fe595 1.935 . S
O613 C600 1.421 . S
C614 O601 1.381 . S
C614 O602 1.421 . S
C615 O607 1.381 . S
C615 O608 1.421 . S
C616 O617 1.381 . S
C616 O618 1.421 . S
O617 Fe595 2.077 . S
O617 C616 1.381 . S
O618 Fe599 1.935 . S
O618 C616 1.421 . S
C619 O603 1.381 . S
C619 O604 1.421 . S
O620 Fe594 2.077 . S
O620 C623 1.381 . S
O621 Fe592 1.935 1_655 S
O621 C623 1.421 . S
C622 O610 1.381 . S
C622 O611 1.421 . S
C623 O620 1.381 . S
C623 O621 1.421 . S
Fe624 O625 1.886 . S
Fe624 O628 1.715 . S
Fe624 O633 2.077 . S
Fe624 O638 1.935 . S
Fe624 O644 2.077 . S
Fe624 O653 1.935 . S
O625 Fe624 1.886 . S
O625 Fe627 1.715 . S
Fe626 O628 1.886 . S
Fe626 O629 1.715 . S
Fe626 O636 1.935 . S
Fe626 O637 2.077 . S
Fe626 O643 1.935 . S
Fe626 O652 2.077 . S
Fe627 O625 1.715 . S
Fe627 O630 1.886 . S
Fe627 O634 1.935 . S
Fe627 O639 2.077 . S
Fe627 O645 1.935 . S
Fe627 O649 2.077 . S
O628 Fe624 1.715 . S
O628 Fe626 1.886 . S
O629 Fe626 1.715 . S
O629 Fe631 1.886 . S
O630 Fe627 1.886 . S
O630 Fe631 1.715 . S
Fe631 O629 1.886 . S
Fe631 O630 1.715 . S
Fe631 O635 2.077 . S
Fe631 O640 1.935 . S
Fe631 O642 2.077 . S
Fe631 O650 1.935 . S
C632 O644 1.381 . S
C632 O645 1.421 . S
O633 Fe624 2.077 . S
O633 C646 1.381 . S
O634 Fe627 1.935 . S
O634 C646 1.421 . S
O635 Fe631 2.077 . S
O635 C651 1.381 . S
O636 Fe626 1.935 . S
O636 C651 1.421 . S
O637 Fe626 2.077 . S
O637 C641 1.381 . S
O638 Fe624 1.935 . S
O638 C641 1.421 . S
O639 Fe627 2.077 . S
O639 C647 1.381 . S
O640 Fe631 1.935 . S
O640 C647 1.421 . S
C641 O637 1.381 . S
C641 O638 1.421 . S
O642 Fe631 2.077 . S
O642 C654 1.381 . S
O643 Fe626 1.935 . S
O643 C654 1.421 . S
O644 Fe624 2.077 . S
O644 C632 1.381 . S
O645 Fe627 1.935 . S
O645 C632 1.421 . S
C646 O633 1.381 . S
C646 O634 1.421 . S
C647 O639 1.381 . S
C647 O640 1.421 . S
C648 O649 1.381 . S
C648 O650 1.421 . S
O649 Fe627 2.077 . S
O649 C648 1.381 . S
O650 Fe631 1.935 . S
O650 C648 1.421 . S
C651 O635 1.381 . S
C651 O636 1.421 . S
O652 Fe626 2.077 . S
O652 C655 1.381 . S
O653 Fe624 1.935 . S
O653 C655 1.421 . S
C654 O642 1.381 . S
C654 O643 1.421 . S
C655 O652 1.381 . S
C655 O653 1.421 . S
Fe656 O657 1.886 . S
Fe656 O660 1.715 . S
Fe656 O665 2.077 . S
Fe656 O670 1.935 . S
Fe656 O676 2.077 . S
Fe656 O685 1.935 . S
O657 Fe656 1.886 . S
O657 Fe659 1.715 . S
Fe658 O660 1.886 . S
Fe658 O661 1.715 . S
Fe658 O668 1.935 . S
Fe658 O669 2.077 . S
Fe658 O675 1.935 . S
Fe658 O684 2.077 . S
Fe659 O657 1.715 . S
Fe659 O662 1.886 . S
Fe659 O666 1.935 . S
Fe659 O671 2.077 . S
Fe659 O677 1.935 . S
Fe659 O681 2.077 . S
O660 Fe656 1.715 . S
O660 Fe658 1.886 . S
O661 Fe658 1.715 . S
O661 Fe663 1.886 . S
O662 Fe659 1.886 . S
O662 Fe663 1.715 . S
Fe663 O661 1.886 . S
Fe663 O662 1.715 . S
Fe663 O667 2.077 . S
Fe663 O672 1.935 . S
Fe663 O674 2.077 . S
Fe663 O682 1.935 . S
C664 O676 1.381 . S
C664 O677 1.421 . S
O665 Fe656 2.077 . S
O665 C678 1.381 . S
O666 Fe659 1.935 . S
O666 C678 1.421 . S
O667 Fe663 2.077 . S
O667 C683 1.381 . S
O668 Fe658 1.935 . S
O668 C683 1.421 . S
O669 Fe658 2.077 . S
O669 C673 1.381 . S
O670 Fe656 1.935 . S
O670 C673 1.421 . S
O671 Fe659 2.077 . S
O671 C679 1.381 . S
O672 Fe663 1.935 . S
O672 C679 1.421 . S
C673 O669 1.381 . S
C673 O670 1.421 . S
O674 Fe663 2.077 . S
O674 C686 1.381 . S
O675 Fe658 1.935 . S
O675 C686 1.421 . S
O676 Fe656 2.077 . S
O676 C664 1.381 . S
O677 Fe659 1.935 . S
O677 C664 1.421 . S
C678 O665 1.381 . S
C678 O666 1.421 . S
C679 O671 1.381 . S
C679 O672 1.421 . S
C680 O681 1.381 . S
C680 O682 1.421 . S
O681 Fe659 2.077 . S
O681 C680 1.381 . S
O682 Fe663 1.935 . S
O682 C680 1.421 . S
C683 O667 1.381 . S
C683 O668 1.421 . S
O684 Fe658 2.077 . S
O684 C687 1.381 . S
O685 Fe656 1.935 . S
O685 C687 1.421 . S
C686 O674 1.381 . S
C686 O675 1.421 . S
C687 O684 1.381 . S
C687 O685 1.421 . S
Fe688 O689 1.886 . S
Fe688 O692 1.715 . S
Fe688 O697 2.077 1_455 S
Fe688 O702 1.935 1_455 S
Fe688 O708 2.077 . S
Fe688 O717 1.935 . S
O689 Fe688 1.886 . S
O689 Fe691 1.715 . S
Fe690 O692 1.886 . S
Fe690 O693 1.715 . S
Fe690 O700 1.935 1_455 S
Fe690 O701 2.077 1_455 S
Fe690 O707 1.935 . S
Fe690 O716 2.077 . S
Fe691 O689 1.715 . S
Fe691 O694 1.886 . S
Fe691 O698 1.935 1_455 S
Fe691 O703 2.077 1_455 S
Fe691 O709 1.935 . S
Fe691 O713 2.077 . S
O692 Fe688 1.715 . S
O692 Fe690 1.886 . S
O693 Fe690 1.715 . S
O693 Fe695 1.886 . S
O694 Fe691 1.886 . S
O694 Fe695 1.715 . S
Fe695 O693 1.886 . S
Fe695 O694 1.715 . S
Fe695 O699 2.077 1_455 S
Fe695 O704 1.935 1_455 S
Fe695 O706 2.077 . S
Fe695 O714 1.935 . S
C696 O708 1.381 . S
C696 O709 1.421 . S
O697 Fe688 2.077 1_655 S
O697 C710 1.381 . S
O698 Fe691 1.935 1_655 S
O698 C710 1.421 . S
O699 Fe695 2.077 1_655 S
O699 C715 1.381 . S
O700 Fe690 1.935 1_655 S
O700 C715 1.421 . S
O701 Fe690 2.077 1_655 S
O701 C705 1.381 . S
O702 Fe688 1.935 1_655 S
O702 C705 1.421 . S
O703 Fe691 2.077 1_655 S
O703 C711 1.381 . S
O704 Fe695 1.935 1_655 S
O704 C711 1.421 . S
C705 O701 1.381 . S
C705 O702 1.421 . S
O706 Fe695 2.077 . S
O706 C718 1.381 . S
O707 Fe690 1.935 . S
O707 C718 1.421 . S
O708 Fe688 2.077 . S
O708 C696 1.381 . S
O709 Fe691 1.935 . S
O709 C696 1.421 . S
C710 O697 1.381 . S
C710 O698 1.421 . S
C711 O703 1.381 . S
C711 O704 1.421 . S
C712 O713 1.381 . S
C712 O714 1.421 . S
O713 Fe691 2.077 . S
O713 C712 1.381 . S
O714 Fe695 1.935 . S
O714 C712 1.421 . S
C715 O699 1.381 . S
C715 O700 1.421 . S
O716 Fe690 2.077 . S
O716 C719 1.381 . S
O717 Fe688 1.935 . S
O717 C719 1.421 . S
C718 O706 1.381 . S
C718 O707 1.421 . S
C719 O716 1.381 . S
C719 O717 1.421 . S
H720 C726 0.930 . S
H721 C729 0.930 . S
H722 C730 0.930 . S
H723 C731 0.930 . S
H724 C734 0.930 . S
H725 C735 0.930 . S
C726 H720 0.930 . S
C726 C727 1.355 . S
C726 C728 1.415 . S
C727 C726 1.355 . S
C727 C729 1.419 . S
C728 C726 1.415 . S
C728 C733 1.425 . S
C728 C735 1.409 . S
C729 H721 0.930 . S
C729 C727 1.419 . S
C729 C730 1.362 . S
C730 H722 0.930 . S
C730 C729 1.362 . S
C730 C733 1.409 . S
C731 H723 0.930 . S
C731 C732 1.355 . S
C731 C733 1.415 . S
C732 C731 1.355 . S
C732 C734 1.419 . S
C733 C728 1.425 . S
C733 C730 1.409 . S
C733 C731 1.415 . S
C734 H724 0.930 . S
C734 C732 1.419 . S
C734 C735 1.362 . S
C735 H725 0.930 . S
C735 C728 1.409 . S
C735 C734 1.362 . S
H736 C742 0.930 . S
H737 C745 0.930 1_565 S
H738 C746 0.930 . S
H739 C747 0.930 . S
H740 C750 0.930 . S
H741 C751 0.930 . S
C742 H736 0.930 . S
C742 C743 1.355 . S
C742 C744 1.415 . S
C743 C742 1.355 . S
C743 C745 1.419 . S
C744 C742 1.415 . S
C744 C749 1.425 . S
C744 C751 1.409 . S
C745 H737 0.930 1_545 S
C745 C743 1.419 . S
C745 C746 1.362 . S
C746 H738 0.930 . S
C746 C745 1.362 . S
C746 C749 1.409 . S
C747 H739 0.930 . S
C747 C748 1.355 . S
C747 C749 1.415 . S
C748 C747 1.355 . S
C748 C750 1.419 . S
C749 C744 1.425 . S
C749 C746 1.409 . S
C749 C747 1.415 . S
C750 H740 0.930 . S
C750 C748 1.419 . S
C750 C751 1.362 . S
C751 H741 0.930 . S
C751 C744 1.409 . S
C751 C750 1.362 . S
H752 C758 0.930 . S
H753 C761 0.930 . S
H754 C762 0.930 . S
H755 C763 0.930 . S
H756 C766 0.930 . S
H757 C767 0.930 1_554 S
C758 H752 0.930 . S
C758 C759 1.355 1_554 S
C758 C760 1.415 1_554 S
C759 C758 1.355 1_556 S
C759 C761 1.419 . S
C760 C758 1.415 1_556 S
C760 C765 1.425 . S
C760 C767 1.409 . S
C761 H753 0.930 . S
C761 C759 1.419 . S
C761 C762 1.362 . S
C762 H754 0.930 . S
C762 C761 1.362 . S
C762 C765 1.409 . S
C763 H755 0.930 . S
C763 C764 1.355 . S
C763 C765 1.415 . S
C764 C763 1.355 . S
C764 C766 1.419 . S
C765 C760 1.425 . S
C765 C762 1.409 . S
C765 C763 1.415 . S
C766 H756 0.930 . S
C766 C764 1.419 . S
C766 C767 1.362 . S
C767 H757 0.930 1_556 S
C767 C760 1.409 . S
C767 C766 1.362 . S
H768 C774 0.930 . S
H769 C777 0.930 . S
H770 C778 0.930 . S
H771 C779 0.930 . S
H772 C782 0.930 . S
H773 C783 0.930 . S
C774 H768 0.930 . S
C774 C775 1.355 1_565 S
C774 C776 1.415 . S
C775 C774 1.355 1_545 S
C775 C777 1.419 . S
C776 C774 1.415 . S
C776 C781 1.425 . S
C776 C783 1.409 . S
C777 H769 0.930 . S
C777 C775 1.419 . S
C777 C778 1.362 . S
C778 H770 0.930 . S
C778 C777 1.362 . S
C778 C781 1.409 1_545 S
C779 H771 0.930 . S
C779 C780 1.355 . S
C779 C781 1.415 . S
C780 C779 1.355 . S
C780 C782 1.419 . S
C781 C776 1.425 . S
C781 C778 1.409 1_565 S
C781 C779 1.415 . S
C782 H772 0.930 . S
C782 C780 1.419 . S
C782 C783 1.362 . S
C783 H773 0.930 . S
C783 C776 1.409 . S
C783 C782 1.362 . S
H784 C790 0.930 . S
H785 C793 0.930 . S
H786 C794 0.930 . S
H787 C795 0.930 . S
H788 C798 0.930 . S
H789 C799 0.930 . S
C790 H784 0.930 . S
C790 C791 1.355 . S
C790 C792 1.415 . S
C791 C790 1.355 . S
C791 C793 1.419 . S
C792 C790 1.415 . S
C792 C797 1.425 . S
C792 C799 1.409 . S
C793 H785 0.930 . S
C793 C791 1.419 . S
C793 C794 1.362 . S
C794 H786 0.930 . S
C794 C793 1.362 . S
C794 C797 1.409 . S
C795 H787 0.930 . S
C795 C796 1.355 . S
C795 C797 1.415 . S
C796 C795 1.355 . S
C796 C798 1.419 . S
C797 C792 1.425 . S
C797 C794 1.409 . S
C797 C795 1.415 . S
C798 H788 0.930 . S
C798 C796 1.419 . S
C798 C799 1.362 . S
C799 H789 0.930 . S
C799 C792 1.409 . S
C799 C798 1.362 . S
H800 C806 0.930 . S
H801 C809 0.930 . S
H802 C810 0.930 . S
H803 C811 0.930 . S
H804 C814 0.930 . S
H805 C815 0.930 . S
C806 H800 0.930 . S
C806 C807 1.355 . S
C806 C808 1.415 1_565 S
C807 C806 1.355 . S
C807 C809 1.419 . S
C808 C806 1.415 1_545 S
C808 C813 1.425 . S
C808 C815 1.409 . S
C809 H801 0.930 . S
C809 C807 1.419 . S
C809 C810 1.362 . S
C810 H802 0.930 . S
C810 C809 1.362 . S
C810 C813 1.409 1_565 S
C811 H803 0.930 . S
C811 C812 1.355 . S
C811 C813 1.415 . S
C812 C811 1.355 . S
C812 C814 1.419 . S
C813 C808 1.425 . S
C813 C810 1.409 1_545 S
C813 C811 1.415 . S
C814 H804 0.930 . S
C814 C812 1.419 . S
C814 C815 1.362 . S
C815 H805 0.930 . S
C815 C808 1.409 . S
C815 C814 1.362 . S
H816 C822 0.930 . S
H817 C825 0.930 . S
H818 C826 0.930 1_545 S
H819 C827 0.930 . S
H820 C830 0.930 . S
H821 C831 0.930 . S
C822 H816 0.930 . S
C822 C823 1.355 . S
C822 C824 1.415 . S
C823 C822 1.355 . S
C823 C825 1.419 1_565 S
C824 C822 1.415 . S
C824 C829 1.425 . S
C824 C831 1.409 . S
C825 H817 0.930 . S
C825 C823 1.419 1_545 S
C825 C826 1.362 1_545 S
C826 H818 0.930 1_565 S
C826 C825 1.362 1_565 S
C826 C829 1.409 . S
C827 H819 0.930 . S
C827 C828 1.355 . S
C827 C829 1.415 . S
C828 C827 1.355 . S
C828 C830 1.419 . S
C829 C824 1.425 . S
C829 C826 1.409 . S
C829 C827 1.415 . S
C830 H820 0.930 . S
C830 C828 1.419 . S
C830 C831 1.362 . S
C831 H821 0.930 . S
C831 C824 1.409 . S
C831 C830 1.362 . S
H832 C838 0.930 . S
H833 C841 0.930 . S
H834 C842 0.930 . S
H835 C843 0.930 . S
H836 C846 0.930 . S
H837 C847 0.930 1_545 S
C838 H832 0.930 . S
C838 C839 1.355 . S
C838 C840 1.415 . S
C839 C838 1.355 . S
C839 C841 1.419 . S
C840 C838 1.415 . S
C840 C845 1.425 1_545 S
C840 C847 1.409 1_545 S
C841 H833 0.930 . S
C841 C839 1.419 . S
C841 C842 1.362 1_545 S
C842 H834 0.930 . S
C842 C841 1.362 1_565 S
C842 C845 1.409 . S
C843 H835 0.930 . S
C843 C844 1.355 . S
C843 C845 1.415 . S
C844 C843 1.355 . S
C844 C846 1.419 . S
C845 C840 1.425 1_565 S
C845 C842 1.409 . S
C845 C843 1.415 . S
C846 H836 0.930 . S
C846 C844 1.419 . S
C846 C847 1.362 . S
C847 H837 0.930 1_565 S
C847 C840 1.409 1_565 S
C847 C846 1.362 . S
H848 C854 0.930 . S
H849 C857 0.930 . S
H850 C858 0.930 . S
H851 C859 0.930 . S
H852 C862 0.930 . S
H853 C863 0.930 . S
C854 H848 0.930 . S
C854 C855 1.355 . S
C854 C856 1.415 . S
C855 C854 1.355 . S
C855 C857 1.419 . S
C856 C854 1.415 . S
C856 C861 1.425 . S
C856 C863 1.409 . S
C857 H849 0.930 . S
C857 C855 1.419 . S
C857 C858 1.362 . S
C858 H850 0.930 . S
C858 C857 1.362 . S
C858 C861 1.409 . S
C859 H851 0.930 . S
C859 C860 1.355 . S
C859 C861 1.415 . S
C860 C859 1.355 . S
C860 C862 1.419 . S
C861 C856 1.425 . S
C861 C858 1.409 . S
C861 C859 1.415 . S
C862 H852 0.930 . S
C862 C860 1.419 . S
C862 C863 1.362 . S
C863 H853 0.930 . S
C863 C856 1.409 . S
C863 C862 1.362 . S
H864 C870 0.930 . S
H865 C873 0.930 . S
H866 C874 0.930 1_565 S
H867 C875 0.930 . S
H868 C878 0.930 . S
H869 C879 0.930 . S
C870 H864 0.930 . S
C870 C871 1.355 . S
C870 C872 1.415 . S
C871 C870 1.355 . S
C871 C873 1.419 . S
C872 C870 1.415 . S
C872 C877 1.425 1_545 S
C872 C879 1.409 1_545 S
C873 H865 0.930 . S
C873 C871 1.419 . S
C873 C874 1.362 . S
C874 H866 0.930 1_545 S
C874 C873 1.362 . S
C874 C877 1.409 1_545 S
C875 H867 0.930 . S
C875 C876 1.355 . S
C875 C877 1.415 . S
C876 C875 1.355 . S
C876 C878 1.419 . S
C877 C872 1.425 1_565 S
C877 C874 1.409 1_565 S
C877 C875 1.415 . S
C878 H868 0.930 . S
C878 C876 1.419 . S
C878 C879 1.362 . S
C879 H869 0.930 . S
C879 C872 1.409 1_565 S
C879 C878 1.362 . S
H880 C886 0.930 . S
H881 C889 0.930 . S
H882 C890 0.930 . S
H883 C891 0.930 . S
H884 C894 0.930 . S
H885 C895 0.930 . S
C886 H880 0.930 . S
C886 C887 1.355 . S
C886 C888 1.415 . S
C887 C886 1.355 . S
C887 C889 1.419 1_565 S
C888 C886 1.415 . S
C888 C893 1.425 . S
C888 C895 1.409 . S
C889 H881 0.930 . S
C889 C887 1.419 1_545 S
C889 C890 1.362 . S
C890 H882 0.930 . S
C890 C889 1.362 . S
C890 C893 1.409 1_545 S
C891 H883 0.930 . S
C891 C892 1.355 . S
C891 C893 1.415 . S
C892 C891 1.355 . S
C892 C894 1.419 . S
C893 C888 1.425 . S
C893 C890 1.409 1_565 S
C893 C891 1.415 . S
C894 H884 0.930 . S
C894 C892 1.419 . S
C894 C895 1.362 . S
C895 H885 0.930 . S
C895 C888 1.409 . S
C895 C894 1.362 . S
H896 C902 0.930 1_565 S
H897 C905 0.930 1_565 S
H898 C906 0.930 . S
H899 C907 0.930 . S
H900 C910 0.930 . S
H901 C911 0.930 . S
C902 H896 0.930 1_545 S
C902 C903 1.355 1_545 S
C902 C904 1.415 . S
C903 C902 1.355 1_565 S
C903 C905 1.419 1_565 S
C904 C902 1.415 . S
C904 C909 1.425 . S
C904 C911 1.409 . S
C905 H897 0.930 1_545 S
C905 C903 1.419 1_545 S
C905 C906 1.362 . S
C906 H898 0.930 . S
C906 C905 1.362 . S
C906 C909 1.409 . S
C907 H899 0.930 . S
C907 C908 1.355 . S
C907 C909 1.415 . S
C908 C907 1.355 . S
C908 C910 1.419 . S
C909 C904 1.425 . S
C909 C906 1.409 . S
C909 C907 1.415 . S
C910 H900 0.930 . S
C910 C908 1.419 . S
C910 C911 1.362 . S
C911 H901 0.930 . S
C911 C904 1.409 . S
C911 C910 1.362 . S
H912 C918 0.930 . S
H913 C921 0.930 . S
H914 C922 0.930 . S
H915 C923 0.930 . S
H916 C926 0.930 . S
H917 C927 0.930 . S
C918 H912 0.930 . S
C918 C919 1.355 . S
C918 C920 1.415 . S
C919 C918 1.355 . S
C919 C921 1.419 . S
C920 C918 1.415 . S
C920 C925 1.425 . S
C920 C927 1.409 . S
C921 H913 0.930 . S
C921 C919 1.419 . S
C921 C922 1.362 . S
C922 H914 0.930 . S
C922 C921 1.362 . S
C922 C925 1.409 . S
C923 H915 0.930 . S
C923 C924 1.355 . S
C923 C925 1.415 . S
C924 C923 1.355 . S
C924 C926 1.419 . S
C925 C920 1.425 . S
C925 C922 1.409 . S
C925 C923 1.415 . S
C926 H916 0.930 . S
C926 C924 1.419 . S
C926 C927 1.362 . S
C927 H917 0.930 . S
C927 C920 1.409 . S
C927 C926 1.362 . S
H928 C934 0.930 . S
H929 C937 0.930 . S
H930 C938 0.930 . S
H931 C939 0.930 . S
H932 C942 0.930 . S
H933 C943 0.930 . S
C934 H928 0.930 . S
C934 C935 1.355 1_565 S
C934 C936 1.415 . S
C935 C934 1.355 1_545 S
C935 C937 1.419 . S
C936 C934 1.415 . S
C936 C941 1.425 . S
C936 C943 1.409 . S
C937 H929 0.930 . S
C937 C935 1.419 . S
C937 C938 1.362 . S
C938 H930 0.930 . S
C938 C937 1.362 . S
C938 C941 1.409 1_545 S
C939 H931 0.930 . S
C939 C940 1.355 . S
C939 C941 1.415 . S
C940 C939 1.355 . S
C940 C942 1.419 . S
C941 C936 1.425 . S
C941 C938 1.409 1_565 S
C941 C939 1.415 . S
C942 H932 0.930 . S
C942 C940 1.419 . S
C942 C943 1.362 . S
C943 H933 0.930 . S
C943 C936 1.409 . S
C943 C942 1.362 . S
H944 C950 0.930 . S
H945 C953 0.930 1_554 S
H946 C954 0.962 . S
H947 C955 0.930 . S
H948 C958 0.930 . S
H949 C959 0.930 . S
C950 H944 0.930 . S
C950 C951 1.355 . S
C950 C952 1.415 . S
C951 C950 1.355 . S
C951 C953 1.419 . S
C952 C950 1.415 . S
C952 C957 1.425 . S
C952 C959 1.409 . S
C953 H945 0.930 1_556 S
C953 C951 1.419 . S
C953 C954 1.362 . S
C954 H946 0.962 . S
C954 C953 1.362 . S
C954 C957 1.409 . S
C955 H947 0.930 . S
C955 C956 1.355 . S
C955 C957 1.415 . S
C956 C955 1.355 . S
C956 C958 1.419 . S
C957 C952 1.425 . S
C957 C954 1.409 . S
C957 C955 1.415 . S
C958 H948 0.930 . S
C958 C956 1.419 . S
C958 C959 1.362 . S
C959 H949 0.930 . S
C959 C952 1.409 . S
C959 C958 1.362 . S
H960 C966 0.930 . S
H961 C969 0.930 . S
H962 C970 0.930 1_565 S
H963 C971 0.930 . S
H964 C974 0.930 . S
H965 C975 0.930 . S
C966 H960 0.930 . S
C966 C967 1.355 . S
C966 C968 1.415 . S
C967 C966 1.355 . S
C967 C969 1.419 1_545 S
C968 C966 1.415 . S
C968 C973 1.425 . S
C968 C975 1.409 . S
C969 H961 0.930 . S
C969 C967 1.419 1_565 S
C969 C970 1.362 1_565 S
C970 H962 0.930 1_545 S
C970 C969 1.362 1_545 S
C970 C973 1.409 . S
C971 H963 0.930 . S
C971 C972 1.355 . S
C971 C973 1.415 . S
C972 C971 1.355 . S
C972 C974 1.419 . S
C973 C968 1.425 . S
C973 C970 1.409 . S
C973 C971 1.415 . S
C974 H964 0.930 . S
C974 C972 1.419 . S
C974 C975 1.362 . S
C975 H965 0.930 . S
C975 C968 1.409 . S
C975 C974 1.362 . S
H976 C982 0.930 . S
H977 C985 0.930 1_554 S
H978 C986 0.930 . S
H979 C987 0.930 . S
H980 C990 0.930 . S
H981 C991 0.930 . S
C982 H976 0.930 . S
C982 C983 1.355 . S
C982 C984 1.415 . S
C983 C982 1.355 . S
C983 C985 1.419 . S
C984 C982 1.415 . S
C984 C989 1.425 . S
C984 C991 1.409 . S
C985 H977 0.930 1_556 S
C985 C983 1.419 . S
C985 C986 1.362 . S
C986 H978 0.930 . S
C986 C985 1.362 . S
C986 C989 1.409 . S
C987 H979 0.930 . S
C987 C988 1.355 . S
C987 C989 1.415 . S
C988 C987 1.355 . S
C988 C990 1.419 . S
C989 C984 1.425 . S
C989 C986 1.409 . S
C989 C987 1.415 . S
C990 H980 0.930 . S
C990 C988 1.419 . S
C990 C991 1.362 . S
C991 H981 0.930 . S
C991 C984 1.409 . S
C991 C990 1.362 . S
H992 C998 0.930 . S
H993 C1001 0.930 . S
H994 C1002 0.930 . S
H995 C1003 0.930 . S
H996 C1006 0.930 1_455 S
H997 C1007 0.930 1_455 S
C998 H992 0.930 . S
C998 C999 1.355 . S
C998 C1000 1.415 . S
C999 C998 1.355 . S
C999 C1001 1.419 . S
C1000 C998 1.415 . S
C1000 C1005 1.425 . S
C1000 C1007 1.409 . S
C1001 H993 0.930 . S
C1001 C999 1.419 . S
C1001 C1002 1.362 . S
C1002 H994 0.930 . S
C1002 C1001 1.362 . S
C1002 C1005 1.409 . S
C1003 H995 0.930 . S
C1003 C1004 1.355 . S
C1003 C1005 1.415 . S
C1004 C1003 1.355 . S
C1004 C1006 1.419 . S
C1005 C1000 1.425 . S
C1005 C1002 1.409 . S
C1005 C1003 1.415 . S
C1006 H996 0.930 1_655 S
C1006 C1004 1.419 . S
C1006 C1007 1.362 . S
C1007 H997 0.930 1_655 S
C1007 C1000 1.409 . S
C1007 C1006 1.362 . S
H1008 C1014 0.930 . S
H1009 C1017 0.930 . S
H1010 C1018 0.930 . S
H1011 C1019 0.930 . S
H1012 C1022 0.930 . S
H1013 C1023 0.930 . S
C1014 H1008 0.930 . S
C1014 C1015 1.355 . S
C1014 C1016 1.415 . S
C1015 C1014 1.355 . S
C1015 C1017 1.419 . S
C1016 C1014 1.415 . S
C1016 C1021 1.425 . S
C1016 C1023 1.409 . S
C1017 H1009 0.930 . S
C1017 C1015 1.419 . S
C1017 C1018 1.362 . S
C1018 H1010 0.930 . S
C1018 C1017 1.362 . S
C1018 C1021 1.409 . S
C1019 H1011 0.930 . S
C1019 C1020 1.355 . S
C1019 C1021 1.415 . S
C1020 C1019 1.355 . S
C1020 C1022 1.419 . S
C1021 C1016 1.425 . S
C1021 C1018 1.409 . S
C1021 C1019 1.415 . S
C1022 H1012 0.930 . S
C1022 C1020 1.419 . S
C1022 C1023 1.362 . S
C1023 H1013 0.930 . S
C1023 C1016 1.409 . S
C1023 C1022 1.362 . S
H1024 C1030 0.930 . S
H1025 C1033 0.930 . S
H1026 C1034 0.930 . S
H1027 C1035 0.930 . S
H1028 C1038 0.930 . S
H1029 C1039 0.930 . S
C1030 H1024 0.930 . S
C1030 C1031 1.355 . S
C1030 C1032 1.415 . S
C1031 C1030 1.355 . S
C1031 C1033 1.419 . S
C1032 C1030 1.415 . S
C1032 C1037 1.425 . S
C1032 C1039 1.409 . S
C1033 H1025 0.930 . S
C1033 C1031 1.419 . S
C1033 C1034 1.362 . S
C1034 H1026 0.930 . S
C1034 C1033 1.362 . S
C1034 C1037 1.409 . S
C1035 H1027 0.930 . S
C1035 C1036 1.355 . S
C1035 C1037 1.415 . S
C1036 C1035 1.355 . S
C1036 C1038 1.419 . S
C1037 C1032 1.425 . S
C1037 C1034 1.409 . S
C1037 C1035 1.415 . S
C1038 H1028 0.930 . S
C1038 C1036 1.419 . S
C1038 C1039 1.362 . S
C1039 H1029 0.930 . S
C1039 C1032 1.409 . S
C1039 C1038 1.362 . S
H1040 C1046 0.930 . S
H1041 C1049 0.930 . S
H1042 C1050 0.930 . S
H1043 C1051 0.930 . S
H1044 C1054 0.930 . S
H1045 C1055 0.930 . S
C1046 H1040 0.930 . S
C1046 C1047 1.355 . S
C1046 C1048 1.415 . S
C1047 C1046 1.355 . S
C1047 C1049 1.419 . S
C1048 C1046 1.415 . S
C1048 C1053 1.425 . S
C1048 C1055 1.409 . S
C1049 H1041 0.930 . S
C1049 C1047 1.419 . S
C1049 C1050 1.362 . S
C1050 H1042 0.930 . S
C1050 C1049 1.362 . S
C1050 C1053 1.409 . S
C1051 H1043 0.930 . S
C1051 C1052 1.355 . S
C1051 C1053 1.415 . S
C1052 C1051 1.355 . S
C1052 C1054 1.419 . S
C1053 C1048 1.425 . S
C1053 C1050 1.409 . S
C1053 C1051 1.415 . S
C1054 H1044 0.930 . S
C1054 C1052 1.419 . S
C1054 C1055 1.362 . S
C1055 H1045 0.930 . S
C1055 C1048 1.409 . S
C1055 C1054 1.362 . S
H1056 C1062 0.930 . S
H1057 C1065 0.930 . S
H1058 C1066 0.930 . S
H1059 C1067 0.930 . S
H1060 C1070 0.930 . S
H1061 C1071 0.930 . S
C1062 H1056 0.930 . S
C1062 C1063 1.355 . S
C1062 C1064 1.415 . S
C1063 C1062 1.355 . S
C1063 C1065 1.419 . S
C1064 C1062 1.415 . S
C1064 C1069 1.425 . S
C1064 C1071 1.409 . S
C1065 H1057 0.930 . S
C1065 C1063 1.419 . S
C1065 C1066 1.362 . S
C1066 H1058 0.930 . S
C1066 C1065 1.362 . S
C1066 C1069 1.409 . S
C1067 H1059 0.930 . S
C1067 C1068 1.355 . S
C1067 C1069 1.415 . S
C1068 C1067 1.355 . S
C1068 C1070 1.419 . S
C1069 C1064 1.425 . S
C1069 C1066 1.409 . S
C1069 C1067 1.415 . S
C1070 H1060 0.930 . S
C1070 C1068 1.419 . S
C1070 C1071 1.362 . S
C1071 H1061 0.930 . S
C1071 C1064 1.409 . S
C1071 C1070 1.362 . S
H1072 C1078 0.930 . S
H1073 C1081 0.930 . S
H1074 C1082 0.930 . S
H1075 C1083 0.930 . S
H1076 C1086 0.930 . S
H1077 C1087 0.930 . S
C1078 H1072 0.930 . S
C1078 C1079 1.355 . S
C1078 C1080 1.415 . S
C1079 C1078 1.355 . S
C1079 C1081 1.419 . S
C1080 C1078 1.415 . S
C1080 C1085 1.425 . S
C1080 C1087 1.409 . S
C1081 H1073 0.930 . S
C1081 C1079 1.419 . S
C1081 C1082 1.362 . S
C1082 H1074 0.930 . S
C1082 C1081 1.362 . S
C1082 C1085 1.409 . S
C1083 H1075 0.930 . S
C1083 C1084 1.355 . S
C1083 C1085 1.415 . S
C1084 C1083 1.355 . S
C1084 C1086 1.419 . S
C1085 C1080 1.425 . S
C1085 C1082 1.409 . S
C1085 C1083 1.415 . S
C1086 H1076 0.930 . S
C1086 C1084 1.419 . S
C1086 C1087 1.362 . S
C1087 H1077 0.930 . S
C1087 C1080 1.409 . S
C1087 C1086 1.362 . S
H1088 C1094 0.930 . S
H1089 C1097 0.930 . S
H1090 C1098 0.930 . S
H1091 C1099 0.930 . S
H1092 C1102 0.933 . S
H1093 C1103 0.930 1_455 S
C1094 H1088 0.930 . S
C1094 C1095 1.355 . S
C1094 C1096 1.415 . S
C1095 C1094 1.355 . S
C1095 C1097 1.419 . S
C1096 C1094 1.415 . S
C1096 C1101 1.425 . S
C1096 C1103 1.409 . S
C1097 H1089 0.930 . S
C1097 C1095 1.419 . S
C1097 C1098 1.362 . S
C1098 H1090 0.930 . S
C1098 C1097 1.362 . S
C1098 C1101 1.409 . S
C1099 H1091 0.930 . S
C1099 C1100 1.355 . S
C1099 C1101 1.415 . S
C1100 C1099 1.355 . S
C1100 C1102 1.419 . S
C1101 C1096 1.425 . S
C1101 C1098 1.409 . S
C1101 C1099 1.415 . S
C1102 H1092 0.933 . S
C1102 C1100 1.419 . S
C1102 C1103 1.362 . S
C1103 H1093 0.930 1_655 S
C1103 C1096 1.409 . S
C1103 C1102 1.362 . S
H1104 C1110 0.930 . S
H1105 C1113 0.930 . S
H1106 C1114 0.930 . S
H1107 C1115 0.930 . S
H1108 C1118 0.930 . S
H1109 C1119 0.930 . S
C1110 H1104 0.930 . S
C1110 C1111 1.355 . S
C1110 C1112 1.415 . S
C1111 C1110 1.355 . S
C1111 C1113 1.419 . S
C1112 C1110 1.415 . S
C1112 C1117 1.425 . S
C1112 C1119 1.409 . S
C1113 H1105 0.930 . S
C1113 C1111 1.419 . S
C1113 C1114 1.362 . S
C1114 H1106 0.930 . S
C1114 C1113 1.362 . S
C1114 C1117 1.409 . S
C1115 H1107 0.930 . S
C1115 C1116 1.355 . S
C1115 C1117 1.415 . S
C1116 C1115 1.355 . S
C1116 C1118 1.419 . S
C1117 C1112 1.425 . S
C1117 C1114 1.409 . S
C1117 C1115 1.415 . S
C1118 H1108 0.930 . S
C1118 C1116 1.419 . S
C1118 C1119 1.362 . S
C1119 H1109 0.930 . S
C1119 C1112 1.409 . S
C1119 C1118 1.362 . S
H1120 C1126 0.930 . S
H1121 C1129 0.930 . S
H1122 C1130 0.930 . S
H1123 C1131 0.930 . S
H1124 C1134 0.930 . S
H1125 C1135 0.930 . S
C1126 H1120 0.930 . S
C1126 C1127 1.355 . S
C1126 C1128 1.415 . S
C1127 C1126 1.355 . S
C1127 C1129 1.419 . S
C1128 C1126 1.415 . S
C1128 C1133 1.425 . S
C1128 C1135 1.409 . S
C1129 H1121 0.930 . S
C1129 C1127 1.419 . S
C1129 C1130 1.362 . S
C1130 H1122 0.930 . S
C1130 C1129 1.362 . S
C1130 C1133 1.409 . S
C1131 H1123 0.930 . S
C1131 C1132 1.355 . S
C1131 C1133 1.415 . S
C1132 C1131 1.355 . S
C1132 C1134 1.419 . S
C1133 C1128 1.425 . S
C1133 C1130 1.409 . S
C1133 C1131 1.415 . S
C1134 H1124 0.930 . S
C1134 C1132 1.419 . S
C1134 C1135 1.362 . S
C1135 H1125 0.930 . S
C1135 C1128 1.409 . S
C1135 C1134 1.362 . S
H1136 C1142 0.930 . S
H1137 C1145 0.930 . S
H1138 C1146 0.930 . S
H1139 C1147 0.930 . S
H1140 C1150 0.930 . S
H1141 C1151 0.930 . S
C1142 H1136 0.930 . S
C1142 C1143 1.355 . S
C1142 C1144 1.415 . S
C1143 C1142 1.355 . S
C1143 C1145 1.419 . S
C1144 C1142 1.415 . S
C1144 C1149 1.425 . S
C1144 C1151 1.409 . S
C1145 H1137 0.930 . S
C1145 C1143 1.419 . S
C1145 C1146 1.362 . S
C1146 H1138 0.930 . S
C1146 C1145 1.362 . S
C1146 C1149 1.409 . S
C1147 H1139 0.930 . S
C1147 C1148 1.355 . S
C1147 C1149 1.415 . S
C1148 C1147 1.355 . S
C1148 C1150 1.419 . S
C1149 C1144 1.425 . S
C1149 C1146 1.409 . S
C1149 C1147 1.415 . S
C1150 H1140 0.930 . S
C1150 C1148 1.419 . S
C1150 C1151 1.362 . S
C1151 H1141 0.930 . S
C1151 C1144 1.409 . S
C1151 C1150 1.362 . S
H1152 C1158 0.930 . S
H1153 C1161 0.930 . S
H1154 C1162 0.930 . S
H1155 C1163 0.930 . S
H1156 C1166 0.930 . S
H1157 C1167 0.930 . S
C1158 H1152 0.930 . S
C1158 C1159 1.355 . S
C1158 C1160 1.415 . S
C1159 C1158 1.355 . S
C1159 C1161 1.419 . S
C1160 C1158 1.415 . S
C1160 C1165 1.425 . S
C1160 C1167 1.409 . S
C1161 H1153 0.930 . S
C1161 C1159 1.419 . S
C1161 C1162 1.362 . S
C1162 H1154 0.930 . S
C1162 C1161 1.362 . S
C1162 C1165 1.409 . S
C1163 H1155 0.930 . S
C1163 C1164 1.355 . S
C1163 C1165 1.415 . S
C1164 C1163 1.355 . S
C1164 C1166 1.419 . S
C1165 C1160 1.425 . S
C1165 C1162 1.409 . S
C1165 C1163 1.415 . S
C1166 H1156 0.930 . S
C1166 C1164 1.419 . S
C1166 C1167 1.362 . S
C1167 H1157 0.930 . S
C1167 C1160 1.409 . S
C1167 C1166 1.362 . S
H1168 C1174 0.930 1_554 S
H1169 C1177 0.930 1_554 S
H1170 C1178 0.930 . S
H1171 C1179 0.930 . S
H1172 C1182 0.930 . S
H1173 C1183 0.930 . S
C1174 H1168 0.930 1_556 S
C1174 C1175 1.355 1_556 S
C1174 C1176 1.415 . S
C1175 C1174 1.355 1_554 S
C1175 C1177 1.419 1_554 S
C1176 C1174 1.415 . S
C1176 C1181 1.425 . S
C1176 C1183 1.409 . S
C1177 H1169 0.930 1_556 S
C1177 C1175 1.419 1_556 S
C1177 C1178 1.362 . S
C1178 H1170 0.930 . S
C1178 C1177 1.362 . S
C1178 C1181 1.409 . S
C1179 H1171 0.930 . S
C1179 C1180 1.355 . S
C1179 C1181 1.415 . S
C1180 C1179 1.355 . S
C1180 C1182 1.419 . S
C1181 C1176 1.425 . S
C1181 C1178 1.409 . S
C1181 C1179 1.415 . S
C1182 H1172 0.930 . S
C1182 C1180 1.419 . S
C1182 C1183 1.362 . S
C1183 H1173 0.930 . S
C1183 C1176 1.409 . S
C1183 C1182 1.362 . S
H1184 C1190 0.930 . S
H1185 C1193 0.930 . S
H1186 C1194 0.930 . S
H1187 C1195 0.930 . S
H1188 C1198 0.930 . S
H1189 C1199 0.930 . S
C1190 H1184 0.930 . S
C1190 C1191 1.355 . S
C1190 C1192 1.415 . S
C1191 C1190 1.355 . S
C1191 C1193 1.419 . S
C1192 C1190 1.415 . S
C1192 C1197 1.425 . S
C1192 C1199 1.409 . S
C1193 H1185 0.930 . S
C1193 C1191 1.419 . S
C1193 C1194 1.362 . S
C1194 H1186 0.930 . S
C1194 C1193 1.362 . S
C1194 C1197 1.409 . S
C1195 H1187 0.930 . S
C1195 C1196 1.355 . S
C1195 C1197 1.415 . S
C1196 C1195 1.355 . S
C1196 C1198 1.419 . S
C1197 C1192 1.425 . S
C1197 C1194 1.409 . S
C1197 C1195 1.415 . S
C1198 H1188 0.930 . S
C1198 C1196 1.419 . S
C1198 C1199 1.362 . S
C1199 H1189 0.930 . S
C1199 C1192 1.409 . S
C1199 C1198 1.362 . S
H1200 C1206 0.930 . S
H1201 C1209 0.930 . S
H1202 C1210 0.930 . S
H1203 C1211 0.930 . S
H1204 C1214 0.930 . S
H1205 C1215 0.930 . S
C1206 H1200 0.930 . S
C1206 C1207 1.355 . S
C1206 C1208 1.415 . S
C1207 C1206 1.355 . S
C1207 C1209 1.419 . S
C1208 C1206 1.415 . S
C1208 C1213 1.425 . S
C1208 C1215 1.409 . S
C1209 H1201 0.930 . S
C1209 C1207 1.419 . S
C1209 C1210 1.362 . S
C1210 H1202 0.930 . S
C1210 C1209 1.362 . S
C1210 C1213 1.409 . S
C1211 H1203 0.930 . S
C1211 C1212 1.355 . S
C1211 C1213 1.415 . S
C1212 C1211 1.355 . S
C1212 C1214 1.419 . S
C1213 C1208 1.425 . S
C1213 C1210 1.409 . S
C1213 C1211 1.415 . S
C1214 H1204 0.930 . S
C1214 C1212 1.419 . S
C1214 C1215 1.362 . S
C1215 H1205 0.930 . S
C1215 C1208 1.409 . S
C1215 C1214 1.362 . S
H1216 C1222 0.930 . S
H1217 C1225 0.930 . S
H1218 C1226 0.930 . S
H1219 C1227 0.930 . S
H1220 C1230 0.930 . S
H1221 C1231 0.930 . S
C1222 H1216 0.930 . S
C1222 C1223 1.355 . S
C1222 C1224 1.415 . S
C1223 C1222 1.355 . S
C1223 C1225 1.419 . S
C1224 C1222 1.415 . S
C1224 C1229 1.425 . S
C1224 C1231 1.409 . S
C1225 H1217 0.930 . S
C1225 C1223 1.419 . S
C1225 C1226 1.362 . S
C1226 H1218 0.930 . S
C1226 C1225 1.362 . S
C1226 C1229 1.409 . S
C1227 H1219 0.930 . S
C1227 C1228 1.355 . S
C1227 C1229 1.415 . S
C1228 C1227 1.355 . S
C1228 C1230 1.419 . S
C1229 C1224 1.425 . S
C1229 C1226 1.409 . S
C1229 C1227 1.415 . S
C1230 H1220 0.930 . S
C1230 C1228 1.419 . S
C1230 C1231 1.362 . S
C1231 H1221 0.930 . S
C1231 C1224 1.409 . S
C1231 C1230 1.362 . S
C732 C641 1.924 . S
C727 C69 1.934 . S
C743 C125 0.858 1_545 S
C748 C673 0.830 . S
C759 C217 1.926 1_556 S
C764 C696 1.930 . S
C780 C600 1.550 . S
C775 C261 1.480 . S
C796 C683 1.617 . S
C791 C39 1.677 . S
C812 C712 1.829 . S
C807 C137 1.925 . S
C828 C616 1.690 . S
C823 C187 1.773 . S
C844 C651 1.945 . S
C839 C291 2.141 . S
C855 C51 0.794 . S
C860 C679 0.808 . S
C871 C365 2.013 . S
C876 C654 1.759 . S
C887 C199 0.833 . S
C892 C622 0.736 . S
C908 C711 1.623 . S
C903 C439 1.774 . S
C924 C655 1.915 . S
C919 C63 1.787 . S
C935 C335 1.460 . S
C940 C623 1.518 . S
C951 C211 1.692 . S
C956 C710 1.906 . S
C972 C678 1.791 . S
C967 C409 1.714 1_545 S
C983 C495 0.799 . S
C988 C705 0.841 . S
C999 C347 0.923 . S
C1004 C609 0.926 . S
C1015 C587 1.874 . S
C1020 C632 1.893 . S
C1031 C421 0.834 . S
C1036 C664 0.791 . S
C1052 C619 1.697 . S
C1047 C507 1.777 . S
C1063 C359 1.641 . S
C1068 C648 1.606 . S
C1079 C557 1.661 . S
C1084 C680 1.643 . S
C1100 C715 1.696 . S
C1095 C433 1.830 . S
C1111 C513 1.856 . S
C1116 C615 1.667 . S
C1127 C143 1.807 . S
C1132 C718 1.663 . S
C1143 C569 0.808 . S
C1148 C686 0.841 . S
C1164 C647 1.471 . S
C1159 C285 1.584 . S
C1180 C719 1.640 . S
C1175 C483 1.629 . S
C1196 C687 1.818 . S
C1191 C113 1.793 . S
C1212 C646 1.908 . S
C1207 C581 1.704 . S
C1228 C614 1.056 . S
C1223 C273 1.049 . S
