# Generated by pormake.
# Topology sit, (3,6)-cn, num edge types: 1
# Building blocks:
#     Node 0, Type 0, BuildingBlock: INOVEN_clean_linker_0, # of connection points: 3
#     Node 1, Type 0, BuildingBlock: INOVEN_clean_linker_0, # of connection points: 3
#     Node 2, Type 0, BuildingBlock: INOVEN_clean_linker_0, # of connection points: 3
#     Node 3, Type 0, BuildingBlock: INOVEN_clean_linker_0, # of connection points: 3
#     Node 4, Type 1, BuildingBlock: MIDCAF_clean_sbu_0, # of connection points: 6
#     Node 5, Type 1, BuildingBlock: MIDCAF_clean_sbu_0, # of connection points: 6
#     Edge 6, Type (0, 1), BuildingBlock: FUNLAD_clean_linker_0, # of connection points: 2
#     Edge 7, Type (0, 1), BuildingBlock: FUNLAD_clean_linker_0, # of connection points: 2
#     Edge 8, Type (0, 1), BuildingBlock: FUNLAD_clean_linker_0, # of connection points: 2
#     Edge 9, Type (0, 1), BuildingBlock: FUNLAD_clean_linker_0, # of connection points: 2
#     Edge 10, Type (0, 1), BuildingBlock: FUNLAD_clean_linker_0, # of connection points: 2
#     Edge 11, Type (0, 1), BuildingBlock: FUNLAD_clean_linker_0, # of connection points: 2
#     Edge 12, Type (0, 1), BuildingBlock: FUNLAD_clean_linker_0, # of connection points: 2
#     Edge 13, Type (0, 1), BuildingBlock: FUNLAD_clean_linker_0, # of connection points: 2
#     Edge 14, Type (0, 1), BuildingBlock: FUNLAD_clean_linker_0, # of connection points: 2
#     Edge 15, Type (0, 1), BuildingBlock: FUNLAD_clean_linker_0, # of connection points: 2
#     Edge 16, Type (0, 1), BuildingBlock: FUNLAD_clean_linker_0, # of connection points: 2
#     Edge 17, Type (0, 1), BuildingBlock: FUNLAD_clean_linker_0, # of connection points: 2
# Relax obj value: 0.072
# Max RMSD: 0.181
# Mean RMSD: 0.109
data_MOF--net-sit--node1-MIDCAF_clean_sbu_0--node2-INOVEN_clean_linker_0--edge1-FUNLAD_clean_linker_0
_symmetry_space_group_name_H-M    P1
_symmetry_Int_Tables_number       1
_symmetry_cell_setting            triclinic
loop_
_symmetry_equiv_pos_as_xyz
'x, y, z'
_cell_length_a     24.643781
_cell_length_b     38.223211
_cell_length_c     43.164993
_cell_angle_alpha  90.235928
_cell_angle_beta   86.835688
_cell_angle_gamma 84.453233
loop_
_atom_site_label
_atom_site_type_symbol
_atom_site_fract_x
_atom_site_fract_y
_atom_site_fract_z
_atom_type_partial_charge
H0 H 0.97233 0.31684 0.04774 0.0
H1 H 0.05327 0.39466 0.99592 0.0
H2 H 0.14584 0.30187 0.02689 0.0
N3 N 0.05954 0.27251 0.05411 0.0
N4 N 0.10194 0.25188 0.05453 0.0
C5 C 0.00911 0.32627 0.03729 0.0
C6 C 0.00662 0.35886 0.02217 0.0
C7 C 0.05893 0.30542 0.03885 0.0
C8 C 0.10705 0.31758 0.02551 0.0
C9 C 0.10529 0.35025 0.01066 0.0
C10 C 0.05498 0.37042 0.00892 0.0
H11 H 0.9338 0.73157 0.04709 0.0
H12 H 0.00763 0.64067 -0.00381 0.0
H13 H 0.10862 0.71541 0.03157 0.0
N14 N 0.02449 0.75918 0.05769 0.0
N15 N 0.06851 0.77197 0.06112 0.0
C16 C 0.96981 0.71576 0.03759 0.0
C17 C 0.96442 0.68443 0.02148 0.0
C18 C 0.02151 0.72705 0.04152 0.0
C19 C 0.06853 0.70668 0.02911 0.0
C20 C 0.0635 0.67552 0.01256 0.0
C21 C 0.01149 0.66454 0.00921 0.0
H22 H 0.52002 0.79031 0.52263 0.0
H23 H 0.58237 0.8798 0.47879 0.0
H24 H 0.68593 0.81194 0.53475 0.0
N25 N 0.60812 0.76784 0.55041 0.0
N26 N 0.6518 0.75646 0.56171 0.0
C27 C 0.55303 0.80673 0.51816 0.0
C28 C 0.54578 0.83579 0.49867 0.0
C29 C 0.60322 0.79796 0.53129 0.0
C30 C 0.64676 0.81883 0.52505 0.0
C31 C 0.63968 0.84823 0.50561 0.0
C32 C 0.5888 0.85663 0.49305 0.0
H33 H 0.42936 0.224 0.53759 0.0
H34 H 0.53866 0.14275 0.49194 0.0
H35 H 0.60341 0.2304 0.53387 0.0
N36 N 0.50701 0.264 0.55376 0.0
N37 N 0.54261 0.2851 0.55112 0.0
C38 C 0.47048 0.2127 0.53113 0.0
C39 C 0.47893 0.18102 0.51402 0.0
C40 C 0.51532 0.23097 0.53802 0.0
C41 C 0.56856 0.21663 0.52859 0.0
C42 C 0.57724 0.18461 0.51238 0.0
C43 C 0.5323 0.16693 0.50547 0.0
Zn44 Zn 0.1005 0.08394 0.32285 0.0
Zn45 Zn 0.04712 0.95193 0.33123 0.0
Zn46 Zn 0.07241 0.01798 0.3282 0.0
C47 C 0.04672 0.97018 0.2692 0.0
C48 C 0.96958 0.992 0.36878 0.0
O49 O 0.14896 0.02223 0.35222 0.0
O50 O 0.16857 0.07707 0.34468 0.0
C51 C 0.09142 0.0596 0.26314 0.0
O52 O 0.06413 0.99808 0.28039 0.0
O53 O 0.03328 0.94591 0.2869 0.0
O54 O 0.98422 0.9605 0.36116 0.0
O55 O -0.00402 0.01717 0.35789 0.0
O56 O 0.10523 0.08608 0.27715 0.0
O57 O 0.07723 0.03268 0.27835 0.0
O58 O 0.00782 0.05221 0.35312 0.0
O59 O 0.03451 0.10565 0.34714 0.0
C60 C 0.00034 0.08565 0.35801 0.0
O61 O 0.13986 0.98638 0.34942 0.0
O62 O 0.11688 0.93182 0.34765 0.0
C63 C 0.17946 0.04723 0.35639 0.0
C64 C 0.15035 0.95327 0.35449 0.0
Zn65 Zn 0.52947 0.5774 0.83795 0.0
Zn66 Zn 0.60865 0.44751 0.8268 0.0
Zn67 Zn 0.56308 0.51262 0.83277 0.0
C68 C 0.58788 0.46949 0.76733 0.0
C69 C 0.50449 0.44857 0.86009 0.0
O70 O 0.61785 0.5391 0.86212 0.0
O71 O 0.57004 0.58965 0.8744 0.0
C72 C 0.5724 0.56739 0.77748 0.0
O73 O 0.57136 0.49812 0.78245 0.0
O74 O 0.60813 0.44286 0.78136 0.0
O75 O 0.5475 0.42893 0.85247 0.0
O76 O 0.50093 0.48147 0.85343 0.0
O77 O 0.55972 0.59168 0.79718 0.0
O78 O 0.57042 0.53505 0.78542 0.0
O79 O 0.47978 0.51766 0.85516 0.0
O80 O 0.45048 0.57254 0.84438 0.0
C81 C 0.44139 0.54305 0.85546 0.0
O82 O 0.63667 0.50265 0.8602 0.0
O83 O 0.67839 0.45052 0.84657 0.0
C84 C 0.6117 0.56831 0.87754 0.0
C85 C 0.67641 0.47841 0.86244 0.0
C86 C 0.05701 0.20791 0.08613 0.0
C87 C 0.10354 0.21938 0.07043 0.0
C88 C 0.06136 0.17726 0.10384 0.0
C89 C 0.11233 0.15756 0.10613 0.0
C90 C 0.15818 0.16861 0.08954 0.0
C91 C 0.1537 0.19908 0.07174 0.0
C92 C 0.12087 0.12858 0.12875 0.0
C93 C 0.08111 0.10947 0.14014 0.0
C94 C 0.08644 0.08739 0.16849 0.0
C95 C 0.03855 0.07893 0.18489 0.0
C96 C 0.04055 0.06579 0.21509 0.0
C97 C 0.09049 0.06107 0.22924 0.0
H98 H 0.17535 0.08234 0.16938 0.0
C99 C 0.13883 0.06585 0.21187 0.0
C100 C 0.13703 0.07827 0.18155 0.0
H101 H 0.17783 0.06205 0.22243 0.0
H102 H 0.01769 0.22313 0.08554 0.0
H103 H 0.02533 0.17025 0.1169 0.0
H104 H 0.198 0.15418 0.0911 0.0
H105 H 0.18988 0.20756 0.05977 0.0
H106 H 0.16123 0.12499 0.13765 0.0
H107 H 0.0412 0.11301 0.13049 0.0
H108 H -0.00094 0.085 0.1753 0.0
H109 H 0.00275 0.06234 0.22825 0.0
C110 C 0.02246 0.8233 0.09011 0.0
C111 C 0.07029 0.80398 0.07777 0.0
C112 C 0.02551 0.85341 0.10813 0.0
C113 C 0.07652 0.86506 0.11411 0.0
C114 C 0.12411 0.84608 0.1011 0.0
C115 C 0.12096 0.81595 0.08298 0.0
C116 C 0.08182 0.894 0.13667 0.0
C117 C 0.04036 0.91809 0.14579 0.0
C118 C 0.04078 0.9387 0.17494 0.0
C119 C -0.00682 0.94191 0.19449 0.0
C120 C -0.00563 0.95453 0.22477 0.0
C121 C 0.0427 0.96533 0.23566 0.0
H122 H 0.12527 0.95044 0.17018 0.0
C123 C 0.08902 0.96549 0.21525 0.0
C124 C 0.08828 0.95189 0.18507 0.0
H125 H 0.12672 0.9737 0.2233 0.0
H126 H 0.98267 0.81469 0.08654 0.0
H127 H -0.01224 0.86632 0.11836 0.0
H128 H 0.16395 0.85412 0.10557 0.0
H129 H 0.15821 0.80139 0.07366 0.0
H130 H 0.12004 0.89335 0.14817 0.0
H131 H 0.00193 0.91906 0.13458 0.0
H132 H 0.95601 0.93218 0.18715 0.0
H133 H 0.95821 0.95425 0.2402 0.0
C134 C 0.60841 0.70828 0.58814 0.0
C135 C 0.65446 0.72654 0.58123 0.0
C136 C 0.61085 0.68072 0.60933 0.0
C137 C 0.65952 0.67065 0.624 0.0
C138 C 0.70587 0.68827 0.61623 0.0
C139 C 0.70336 0.71585 0.59498 0.0
C140 C 0.66165 0.64532 0.65012 0.0
C141 C 0.62352 0.62295 0.65673 0.0
C142 C 0.61806 0.60506 0.68718 0.0
C143 C 0.58744 0.57588 0.69002 0.0
C144 C 0.57469 0.56201 0.71928 0.0
C145 C 0.59183 0.5774 0.74613 0.0
H146 H 0.65909 0.64249 0.71344 0.0
C147 C 0.62394 0.60571 0.74321 0.0
C148 C 0.63693 0.6194 0.7142 0.0
H149 H 0.63754 0.61817 0.76362 0.0
H150 H 0.56997 0.7159 0.57789 0.0
H151 H 0.57372 0.66866 0.61508 0.0
H152 H 0.74377 0.68136 0.62732 0.0
H153 H 0.73921 0.72959 0.58991 0.0
H154 H 0.69492 0.64659 0.66544 0.0
H155 H 0.59326 0.61882 0.6401 0.0
H156 H 0.57165 0.56462 0.66969 0.0
H157 H 0.54878 0.54081 0.72101 0.0
C158 C 0.50226 0.3255 0.59304 0.0
C159 C 0.53997 0.31731 0.56782 0.0
C160 C 0.50698 0.35496 0.61183 0.0
C161 C 0.54933 0.37674 0.60554 0.0
C162 C 0.58496 0.36921 0.57935 0.0
C163 C 0.58029 0.33982 0.56077 0.0
C164 C 0.56271 0.40423 0.62766 0.0
C165 C 0.52876 0.41786 0.65111 0.0
C166 C 0.54782 0.43794 0.67741 0.0
C167 C 0.5095 0.4592 0.69626 0.0
C168 C 0.52408 0.47277 0.72449 0.0
C169 C 0.57716 0.46505 0.73441 0.0
H170 H 0.63254 0.41532 0.67334 0.0
C171 C 0.61629 0.44558 0.71483 0.0
C172 C 0.60195 0.43226 0.68658 0.0
H173 H 0.65718 0.43871 0.72232 0.0
H174 H 0.47101 0.30829 0.59913 0.0
H175 H 0.47929 0.35925 0.63209 0.0
H176 H 0.6181 0.38526 0.57398 0.0
H177 H 0.60978 0.33373 0.54149 0.0
H178 H 0.6038 0.41229 0.62526 0.0
H179 H 0.48614 0.41273 0.65218 0.0
H180 H 0.46748 0.46376 0.68994 0.0
H181 H 0.49285 0.48704 0.73957 0.0
C182 C 0.19167 0.34098 0.97674 0.0
C183 C 0.15511 0.36324 0.99573 0.0
C184 C 0.23529 0.35432 0.96008 0.0
C185 C 0.24342 0.39022 0.96233 0.0
C186 C 0.20756 0.41218 0.98189 0.0
C187 C 0.1641 0.39885 -0.00148 0.0
C188 C 0.28673 0.40616 0.94347 0.0
C189 C 0.33269 0.38778 0.93182 0.0
C190 C 0.37568 0.4041 0.91311 0.0
C191 C 0.42972 0.38888 0.91338 0.0
C192 C 0.47136 0.40339 0.89609 0.0
C193 C 0.45974 0.43331 0.87789 0.0
H194 H 0.32222 0.44522 0.89256 0.0
C195 C 0.40546 0.44791 0.87677 0.0
C196 C 0.36375 0.43361 0.89433 0.0
H197 H 0.39507 0.46983 0.86178 0.0
H198 H 0.18524 0.31356 0.97374 0.0
H199 H 0.26107 0.33667 0.94465 0.0
H200 H 0.21281 0.43989 0.98407 0.0
H201 H 0.1369 0.41659 0.01324 0.0
H202 H 0.28133 0.43442 0.94017 0.0
H203 H 0.34089 0.36021 0.93754 0.0
H204 H 0.43992 0.36592 0.92733 0.0
H205 H 0.51283 0.39135 0.89725 0.0
C206 C 0.90134 0.63735 0.01677 0.0
C207 C 0.91011 0.67312 0.01525 0.0
C208 C 0.8544 0.62553 0.00538 0.0
C209 C 0.8152 0.64931 0.99227 0.0
C210 C 0.82169 0.68538 0.99314 0.0
C211 C 0.86891 0.69722 0.00437 0.0
C212 C 0.76892 0.63707 0.97606 0.0
C213 C 0.77399 0.60686 0.95947 0.0
C214 C 0.73126 0.59641 0.9394 0.0
C215 C 0.74715 0.57577 0.91285 0.0
C216 C 0.70833 0.56668 0.89264 0.0
C217 C 0.65276 0.5772 0.89908 0.0
H218 H 0.66161 0.62198 0.96658 0.0
C219 C 0.63666 0.5974 0.92586 0.0
C220 C 0.67549 0.60682 0.94593 0.0
H221 H 0.59395 0.60578 0.93138 0.0
H222 H 0.93175 0.61828 0.0258 0.0
H223 H 0.84954 0.59769 0.00619 0.0
H224 H 0.79164 0.70425 0.98352 0.0
H225 H 0.87452 0.72493 0.00285 0.0
H226 H 0.73233 0.65518 0.97488 0.0
H227 H 0.81285 0.59071 0.95816 0.0
H228 H 0.78985 0.56737 0.90731 0.0
H229 H 0.72189 0.55198 0.87168 0.0
C230 C 0.95076 0.41698 0.01766 0.0
C231 C 0.95372 0.37999 0.01772 0.0
C232 C 0.90516 0.4368 0.00692 0.0
C233 C 0.8612 0.42003 -0.00342 0.0
C234 C 0.86162 0.38348 -0.00039 0.0
C235 C 0.90768 0.36354 0.00982 0.0
C236 C 0.81752 0.43937 0.97949 0.0
C237 C 0.82947 0.46238 0.95717 0.0
C238 C 0.7907 0.47258 0.93316 0.0
C239 C 0.80922 0.46941 0.90186 0.0
C240 C 0.77211 0.47278 0.87852 0.0
C241 C 0.71627 0.48073 0.88617 0.0
H242 H 0.72006 0.48511 0.96479 0.0
C243 C 0.69812 0.48649 0.91734 0.0
C244 C 0.73508 0.48213 0.94077 0.0
H245 H 0.65504 0.49251 0.92365 0.0
H246 H 0.98479 0.43058 0.02457 0.0
H247 H 0.90515 0.4651 0.00558 0.0
H248 H 0.82791 0.37006 0.99194 0.0
H249 H 0.90847 0.33517 0.00952 0.0
H250 H 0.7772 0.42999 0.98118 0.0
H251 H 0.87142 0.46849 0.95298 0.0
H252 H 0.852 0.46211 0.89554 0.0
H253 H 0.78674 0.46816 0.85458 0.0
C254 C 0.10939 0.6434 0.96644 0.0
C255 C 0.11155 0.65473 -0.00271 0.0
C256 C 0.1524 0.62177 0.9522 0.0
C257 C 0.1987 0.61063 0.96859 0.0
C258 C 0.20164 0.6229 -0.00084 0.0
C259 C 0.1584 0.64474 0.01344 0.0
C260 C 0.24604 0.58856 0.95362 0.0
C261 C 0.24244 0.56845 0.9282 0.0
C262 C 0.29149 0.55437 0.90921 0.0
C263 C 0.2918 0.55886 0.87697 0.0
C264 C 0.34041 0.5526 0.85882 0.0
C265 C 0.38887 0.54051 0.87253 0.0
H266 H 0.33961 0.53559 0.94741 0.0
C267 C 0.3876 0.53274 0.90429 0.0
C268 C 0.3392 0.53992 0.92264 0.0
H269 H 0.4248 0.52361 0.91528 0.0
H270 H 0.0743 0.65143 0.95319 0.0
H271 H 0.14934 0.6146 0.92816 0.0
H272 H 0.23728 0.61534 0.0121 0.0
H273 H 0.16106 0.65314 0.03726 0.0
H274 H 0.28579 0.59065 0.96283 0.0
H275 H 0.2032 0.56609 0.91859 0.0
H276 H 0.25536 0.56977 0.86615 0.0
H277 H 0.34077 0.55894 0.83437 0.0
C278 C 0.69123 0.88199 0.46654 0.0
C279 C 0.68468 0.87025 0.49721 0.0
C280 C 0.7287 0.90586 0.45863 0.0
C281 C 0.7612 0.91846 0.48111 0.0
C282 C 0.7572 0.9053 0.51141 0.0
C283 C 0.71883 0.88157 0.51952 0.0
C284 C 0.80209 0.94316 0.47216 0.0
C285 C 0.79185 0.96829 0.45082 0.0
C286 C 0.83556 0.98427 0.43242 0.0
C287 C 0.82653 0.99247 0.40131 0.0
C288 C 0.87007 0.99879 0.38071 0.0
C289 C 0.92287 0.99833 0.39118 0.0
H290 H 0.89571 0.98187 0.4675 0.0
C291 C 0.93108 0.99395 0.42288 0.0
C292 C 0.88765 0.98701 0.44347 0.0
H293 H 0.97185 0.993 0.43125 0.0
H294 H 0.66689 0.87289 0.44853 0.0
H295 H 0.73268 0.91405 0.43468 0.0
H296 H 0.78289 0.91397 0.52893 0.0
H297 H 0.71483 0.8729 0.54332 0.0
H298 H 0.84242 0.93804 0.48102 0.0
H299 H 0.75068 0.97293 0.44285 0.0
H300 H 0.78671 0.9908 0.39223 0.0
H301 H 0.8632 1.00145 0.35621 0.0
C302 C 0.43453 0.15691 0.46964 0.0
C303 C 0.43348 0.16365 0.50165 0.0
C304 C 0.39838 0.13542 0.45751 0.0
C305 C 0.36021 0.11997 0.47714 0.0
C306 C 0.35647 0.1286 0.50894 0.0
C307 C 0.39323 0.15018 0.52122 0.0
C308 C 0.32301 0.09611 0.46405 0.0
C309 C 0.33979 0.0744 0.43994 0.0
C310 C 0.30167 0.05902 0.41959 0.0
C311 C 0.31526 0.0576 0.38756 0.0
C312 C 0.27641 0.05061 0.36668 0.0
C313 C 0.22407 0.04351 0.37756 0.0
H314 H 0.23941 0.04931 0.45521 0.0
C315 C 0.21207 0.04122 0.40961 0.0
C316 C 0.25055 0.04924 0.4306 0.0
H317 H 0.17157 0.03613 0.41838 0.0
H318 H 0.46461 0.16753 0.45401 0.0
H319 H 0.40061 0.13083 0.43268 0.0
H320 H 0.32644 0.1177 0.52439 0.0
H321 H 0.39172 0.15509 0.546 0.0
H322 H 0.28067 0.09854 0.47285 0.0
H323 H 0.38258 0.07219 0.43187 0.0
H324 H 0.35456 0.06475 0.37852 0.0
H325 H 0.28615 0.05279 0.34202 0.0
C326 C 0.49557 0.85234 0.45152 0.0
C327 C 0.49409 0.84437 0.48327 0.0
C328 C 0.44772 0.86323 0.43711 0.0
C329 C 0.39725 0.86677 0.45426 0.0
C330 C 0.39547 0.85724 0.48568 0.0
C331 C 0.44353 0.84617 0.50012 0.0
C332 C 0.3459 0.8798 0.4399 0.0
C333 C 0.34482 0.90123 0.41515 0.0
C334 C 0.29411 0.91429 0.40012 0.0
C335 C 0.29492 0.9437 0.38071 0.0
C336 C 0.2484 0.95632 0.36558 0.0
C337 C 0.20009 0.93994 0.36978 0.0
H338 H 0.24398 0.87381 0.41725 0.0
C339 C 0.1995 0.9101 0.38861 0.0
C340 C 0.24599 0.8973 0.40355 0.0
H341 H 0.16288 0.89668 0.39193 0.0
H342 H 0.53396 0.85029 0.43783 0.0
H343 H 0.45059 0.86868 0.41253 0.0
H344 H 0.35699 0.85919 0.49928 0.0
H345 H 0.44134 0.84009 0.52462 0.0
H346 H 0.30802 0.87285 0.45116 0.0
H347 H 0.38249 0.91081 0.40598 0.0
H348 H 0.33173 0.95689 0.37713 0.0
H349 H 0.2506 0.97833 0.35006 0.0
C350 C 0.66578 0.19317 0.48371 0.0
C351 C 0.63242 0.17089 0.49995 0.0
C352 C 0.71434 0.17948 0.46808 0.0
C353 C 0.73083 0.14315 0.46868 0.0
C354 C 0.69831 0.12115 0.48587 0.0
C355 C 0.64966 0.13485 0.5014 0.0
C356 C 0.77894 0.12689 0.44978 0.0
C357 C 0.81968 0.14497 0.43836 0.0
C358 C 0.8654 0.12894 0.41763 0.0
C359 C 0.91505 0.14413 0.41641 0.0
C360 C 0.95874 0.13019 0.39677 0.0
C361 C 0.95346 0.10089 0.37786 0.0
H362 H 0.82131 0.08868 0.39724 0.0
C363 C 0.90339 0.08637 0.37825 0.0
C364 C 0.85969 0.10014 0.39801 0.0
H365 H 0.89772 0.06495 0.3627 0.0
H366 H 0.65295 0.22095 0.48171 0.0
H367 H 0.73714 0.19733 0.45445 0.0
H368 H 0.7099 0.0931 0.48669 0.0
H369 H 0.62478 0.11711 0.5139 0.0
H370 H 0.78087 0.09878 0.44538 0.0
H371 H 0.82093 0.17226 0.44507 0.0
H372 H 0.92024 0.16664 0.43091 0.0
H373 H -0.00306 0.14205 0.39673 0.0
loop_
_geom_bond_atom_site_label_1
_geom_bond_atom_site_label_2
_geom_bond_distance
_geom_bond_site_symmetry_2
_ccdc_geom_bond_type
H0 C5 0.929 . S
H1 C10 0.931 . S
H2 C8 0.930 . S
N3 N4 1.234 . S
N3 C7 1.453 . S
N4 N3 1.234 . S
C5 H0 0.929 . S
C5 C6 1.373 1_554 S
C5 C7 1.368 . S
C6 C5 1.373 1_556 S
C6 C10 1.397 . S
C7 N3 1.453 . S
C7 C5 1.368 . S
C7 C8 1.373 . S
C8 H2 0.930 . S
C8 C7 1.373 . S
C8 C9 1.371 1_554 S
C9 C8 1.371 1_556 S
C9 C10 1.383 . S
C10 H1 0.931 . S
C10 C6 1.397 . S
C10 C9 1.383 . S
H11 C16 0.929 . S
H12 C21 0.931 . S
H13 C19 0.930 . S
N14 N15 1.234 1_655 S
N14 C18 1.453 . S
N15 N14 1.234 1_455 S
C16 H11 0.929 . S
C16 C17 1.373 1_554 S
C16 C18 1.368 . S
C17 C16 1.373 1_556 S
C17 C21 1.397 1_655 S
C18 N14 1.453 . S
C18 C16 1.368 . S
C18 C19 1.373 1_655 S
C19 H13 0.930 . S
C19 C18 1.373 1_455 S
C19 C20 1.371 1_554 S
C20 C19 1.371 1_556 S
C20 C21 1.383 . S
C21 H12 0.931 . S
C21 C17 1.397 1_455 S
C21 C20 1.383 . S
H22 C27 0.929 . S
H23 C32 0.931 . S
H24 C30 0.930 . S
N25 N26 1.234 . S
N25 C29 1.453 . S
N26 N25 1.234 . S
C27 H22 0.929 . S
C27 C28 1.373 . S
C27 C29 1.368 . S
C28 C27 1.373 . S
C28 C32 1.397 . S
C29 N25 1.453 . S
C29 C27 1.368 . S
C29 C30 1.373 . S
C30 H24 0.930 . S
C30 C29 1.373 . S
C30 C31 1.371 . S
C31 C30 1.371 . S
C31 C32 1.383 . S
C32 H23 0.931 . S
C32 C28 1.397 . S
C32 C31 1.383 . S
H33 C38 0.929 . S
H34 C43 0.931 . S
H35 C41 0.930 . S
N36 N37 1.234 . S
N36 C40 1.453 . S
N37 N36 1.234 . S
C38 H33 0.929 . S
C38 C39 1.373 . S
C38 C40 1.368 . S
C39 C38 1.373 . S
C39 C43 1.397 . S
C40 N36 1.453 . S
C40 C38 1.368 . S
C40 C41 1.373 . S
C41 H35 0.930 . S
C41 C40 1.373 . S
C41 C42 1.371 . S
C42 C41 1.371 . S
C42 C43 1.383 . S
C43 H34 0.931 . S
C43 C39 1.397 . S
C43 C42 1.383 . S
Zn44 O50 1.920 . S
Zn44 O56 1.898 . S
Zn44 O59 1.905 1_455 S
Zn45 O53 1.905 . S
Zn45 O54 1.898 . S
Zn45 O62 1.920 . S
Zn46 O49 2.080 . S
Zn46 O52 2.114 1_545 S
Zn46 O55 2.120 1_545 S
Zn46 O57 2.120 . S
Zn46 O58 2.114 . S
Zn46 O61 2.080 1_545 S
C47 O52 1.166 . S
C47 O53 1.182 . S
C48 O54 1.167 . S
C48 O55 1.299 . S
O49 Zn46 2.080 . S
O49 C63 1.305 . S
O50 Zn44 1.920 . S
O50 C63 1.234 . S
C51 O56 1.167 . S
C51 O57 1.299 . S
O52 Zn46 2.114 1_565 S
O52 C47 1.166 . S
O53 Zn45 1.905 . S
O53 C47 1.182 . S
O54 Zn45 1.898 . S
O54 C48 1.167 . S
O55 Zn46 2.120 1_565 S
O55 C48 1.299 . S
O56 Zn44 1.898 . S
O56 C51 1.167 . S
O57 Zn46 2.120 . S
O57 C51 1.299 . S
O58 Zn46 2.114 . S
O58 C60 1.166 1_455 S
O59 Zn44 1.905 1_655 S
O59 C60 1.182 . S
C60 O58 1.166 1_655 S
C60 O59 1.182 . S
O61 Zn46 2.080 1_565 S
O61 C64 1.305 . S
O62 Zn45 1.920 . S
O62 C64 1.234 . S
C63 O49 1.305 . S
C63 O50 1.234 . S
C64 O61 1.305 . S
C64 O62 1.234 . S
Zn65 O71 1.920 . S
Zn65 O77 1.898 . S
Zn65 O80 1.905 . S
Zn66 O74 1.905 . S
Zn66 O75 1.898 . S
Zn66 O83 1.920 . S
Zn67 O70 2.080 . S
Zn67 O73 2.114 . S
Zn67 O76 2.120 . S
Zn67 O78 2.120 . S
Zn67 O79 2.114 . S
Zn67 O82 2.080 . S
C68 O73 1.166 . S
C68 O74 1.182 . S
C69 O75 1.167 . S
C69 O76 1.299 . S
O70 Zn67 2.080 . S
O70 C84 1.305 . S
O71 Zn65 1.920 . S
O71 C84 1.234 . S
C72 O77 1.167 . S
C72 O78 1.299 . S
O73 Zn67 2.114 . S
O73 C68 1.166 . S
O74 Zn66 1.905 . S
O74 C68 1.182 . S
O75 Zn66 1.898 . S
O75 C69 1.167 . S
O76 Zn67 2.120 . S
O76 C69 1.299 . S
O77 Zn65 1.898 . S
O77 C72 1.167 . S
O78 Zn67 2.120 . S
O78 C72 1.299 . S
O79 Zn67 2.114 . S
O79 C81 1.166 . S
O80 Zn65 1.905 . S
O80 C81 1.182 . S
C81 O79 1.166 . S
C81 O80 1.182 . S
O82 Zn67 2.080 . S
O82 C85 1.305 . S
O83 Zn66 1.920 . S
O83 C85 1.234 . S
C84 O70 1.305 . S
C84 O71 1.234 . S
C85 O82 1.305 . S
C85 O83 1.234 . S
C86 C87 1.386 . S
C86 C88 1.383 . S
C86 H102 0.951 . S
C87 C86 1.386 . S
C87 C91 1.383 . S
C88 C86 1.383 . S
C88 C89 1.402 . S
C88 H103 0.951 . S
C89 C88 1.402 . S
C89 C90 1.375 . S
C89 C92 1.481 . S
C90 C89 1.375 . S
C90 C91 1.367 . S
C90 H104 0.951 . S
C91 C87 1.383 . S
C91 C90 1.367 . S
C91 H105 0.950 . S
C92 C89 1.481 . S
C92 C93 1.297 . S
C92 H106 0.950 . S
C93 C92 1.297 . S
C93 C94 1.479 . S
C93 H107 0.950 . S
C94 C93 1.479 . S
C94 C95 1.375 . S
C94 C100 1.404 . S
C95 C94 1.375 . S
C95 C96 1.369 . S
C95 H108 0.950 . S
C96 C95 1.369 . S
C96 C97 1.392 . S
C96 H109 0.951 . S
C97 C96 1.392 . S
C97 C99 1.384 . S
H98 C100 0.949 . S
C99 C97 1.384 . S
C99 C100 1.385 . S
C99 H101 0.950 . S
C100 C94 1.404 . S
C100 H98 0.949 . S
C100 C99 1.385 . S
H101 C99 0.950 . S
H102 C86 0.951 . S
H103 C88 0.951 . S
H104 C90 0.951 . S
H105 C91 0.950 . S
H106 C92 0.950 . S
H107 C93 0.950 . S
H108 C95 0.950 . S
H109 C96 0.951 . S
C110 C111 1.386 1_655 S
C110 C112 1.383 . S
C110 H126 0.951 . S
C111 C110 1.386 1_455 S
C111 C115 1.383 . S
C112 C110 1.383 . S
C112 C113 1.402 1_655 S
C112 H127 0.951 . S
C113 C112 1.402 1_455 S
C113 C114 1.375 . S
C113 C116 1.481 . S
C114 C113 1.375 . S
C114 C115 1.367 . S
C114 H128 0.951 . S
C115 C111 1.383 . S
C115 C114 1.367 . S
C115 H129 0.950 . S
C116 C113 1.481 . S
C116 C117 1.297 . S
C116 H130 0.950 . S
C117 C116 1.297 . S
C117 C118 1.479 . S
C117 H131 0.950 1_455 S
C118 C117 1.479 . S
C118 C119 1.375 1_455 S
C118 C124 1.404 . S
C119 C118 1.375 1_655 S
C119 C120 1.369 . S
C119 H132 0.950 . S
C120 C119 1.369 . S
C120 C121 1.392 1_655 S
C120 H133 0.951 . S
C121 C120 1.392 1_455 S
C121 C123 1.384 . S
H122 C124 0.949 . S
C123 C121 1.384 . S
C123 C124 1.385 . S
C123 H125 0.950 . S
C124 C118 1.404 . S
C124 H122 0.949 . S
C124 C123 1.385 . S
H125 C123 0.950 . S
H126 C110 0.951 . S
H127 C112 0.951 . S
H128 C114 0.951 . S
H129 C115 0.950 . S
H130 C116 0.950 . S
H131 C117 0.950 1_655 S
H132 C119 0.950 . S
H133 C120 0.951 . S
C134 C135 1.386 . S
C134 C136 1.383 . S
C134 H150 0.951 . S
C135 C134 1.386 . S
C135 C139 1.383 . S
C136 C134 1.383 . S
C136 C137 1.402 . S
C136 H151 0.951 . S
C137 C136 1.402 . S
C137 C138 1.375 . S
C137 C140 1.481 . S
C138 C137 1.375 . S
C138 C139 1.367 . S
C138 H152 0.951 . S
C139 C135 1.383 . S
C139 C138 1.367 . S
C139 H153 0.950 . S
C140 C137 1.481 . S
C140 C141 1.297 . S
C140 H154 0.950 . S
C141 C140 1.297 . S
C141 C142 1.479 . S
C141 H155 0.950 . S
C142 C141 1.479 . S
C142 C143 1.375 . S
C142 C148 1.404 . S
C143 C142 1.375 . S
C143 C144 1.369 . S
C143 H156 0.950 . S
C144 C143 1.369 . S
C144 C145 1.392 . S
C144 H157 0.951 . S
C145 C144 1.392 . S
C145 C147 1.384 . S
H146 C148 0.949 . S
C147 C145 1.384 . S
C147 C148 1.385 . S
C147 H149 0.950 . S
C148 C142 1.404 . S
C148 H146 0.949 . S
C148 C147 1.385 . S
H149 C147 0.950 . S
H150 C134 0.951 . S
H151 C136 0.951 . S
H152 C138 0.951 . S
H153 C139 0.950 . S
H154 C140 0.950 . S
H155 C141 0.950 . S
H156 C143 0.950 . S
H157 C144 0.951 . S
C158 C159 1.386 . S
C158 C160 1.383 . S
C158 H174 0.951 . S
C159 C158 1.386 . S
C159 C163 1.383 . S
C160 C158 1.383 . S
C160 C161 1.402 . S
C160 H175 0.951 . S
C161 C160 1.402 . S
C161 C162 1.375 . S
C161 C164 1.481 . S
C162 C161 1.375 . S
C162 C163 1.367 . S
C162 H176 0.951 . S
C163 C159 1.383 . S
C163 C162 1.367 . S
C163 H177 0.950 . S
C164 C161 1.481 . S
C164 C165 1.297 . S
C164 H178 0.950 . S
C165 C164 1.297 . S
C165 C166 1.479 . S
C165 H179 0.950 . S
C166 C165 1.479 . S
C166 C167 1.375 . S
C166 C172 1.404 . S
C167 C166 1.375 . S
C167 C168 1.369 . S
C167 H180 0.950 . S
C168 C167 1.369 . S
C168 C169 1.392 . S
C168 H181 0.951 . S
C169 C168 1.392 . S
C169 C171 1.384 . S
H170 C172 0.949 . S
C171 C169 1.384 . S
C171 C172 1.385 . S
C171 H173 0.950 . S
C172 C166 1.404 . S
C172 H170 0.949 . S
C172 C171 1.385 . S
H173 C171 0.950 . S
H174 C158 0.951 . S
H175 C160 0.951 . S
H176 C162 0.951 . S
H177 C163 0.950 . S
H178 C164 0.950 . S
H179 C165 0.950 . S
H180 C167 0.950 . S
H181 C168 0.951 . S
C182 C183 1.386 . S
C182 C184 1.383 . S
C182 H198 0.951 . S
C183 C182 1.386 . S
C183 C187 1.383 . S
C184 C182 1.383 . S
C184 C185 1.402 . S
C184 H199 0.951 . S
C185 C184 1.402 . S
C185 C186 1.375 . S
C185 C188 1.481 . S
C186 C185 1.375 . S
C186 C187 1.367 . S
C186 H200 0.951 . S
C187 C183 1.383 . S
C187 C186 1.367 . S
C187 H201 0.950 . S
C188 C185 1.481 . S
C188 C189 1.297 . S
C188 H202 0.950 . S
C189 C188 1.297 . S
C189 C190 1.479 . S
C189 H203 0.950 . S
C190 C189 1.479 . S
C190 C191 1.375 . S
C190 C196 1.404 . S
C191 C190 1.375 . S
C191 C192 1.369 . S
C191 H204 0.950 . S
C192 C191 1.369 . S
C192 C193 1.392 . S
C192 H205 0.951 . S
C193 C192 1.392 . S
C193 C195 1.384 . S
H194 C196 0.949 . S
C195 C193 1.384 . S
C195 C196 1.385 . S
C195 H197 0.950 . S
C196 C190 1.404 . S
C196 H194 0.949 . S
C196 C195 1.385 . S
H197 C195 0.950 . S
H198 C182 0.951 . S
H199 C184 0.951 . S
H200 C186 0.951 . S
H201 C187 0.950 . S
H202 C188 0.950 . S
H203 C189 0.950 . S
H204 C191 0.950 . S
H205 C192 0.951 . S
C206 C207 1.386 . S
C206 C208 1.383 . S
C206 H222 0.951 . S
C207 C206 1.386 . S
C207 C211 1.383 . S
C208 C206 1.383 . S
C208 C209 1.402 . S
C208 H223 0.951 . S
C209 C208 1.402 . S
C209 C210 1.375 . S
C209 C212 1.481 . S
C210 C209 1.375 . S
C210 C211 1.367 . S
C210 H224 0.951 . S
C211 C207 1.383 . S
C211 C210 1.367 . S
C211 H225 0.950 . S
C212 C209 1.481 . S
C212 C213 1.297 . S
C212 H226 0.950 . S
C213 C212 1.297 . S
C213 C214 1.479 . S
C213 H227 0.950 . S
C214 C213 1.479 . S
C214 C215 1.375 . S
C214 C220 1.404 . S
C215 C214 1.375 . S
C215 C216 1.369 . S
C215 H228 0.950 . S
C216 C215 1.369 . S
C216 C217 1.392 . S
C216 H229 0.951 . S
C217 C216 1.392 . S
C217 C219 1.384 . S
H218 C220 0.949 . S
C219 C217 1.384 . S
C219 C220 1.385 . S
C219 H221 0.950 . S
C220 C214 1.404 . S
C220 H218 0.949 . S
C220 C219 1.385 . S
H221 C219 0.950 . S
H222 C206 0.951 . S
H223 C208 0.951 . S
H224 C210 0.951 . S
H225 C211 0.950 . S
H226 C212 0.950 . S
H227 C213 0.950 . S
H228 C215 0.950 . S
H229 C216 0.951 . S
C230 C231 1.386 . S
C230 C232 1.383 1_455 S
C230 H246 0.951 . S
C231 C230 1.386 . S
C231 C235 1.383 1_455 S
C232 C230 1.383 1_655 S
C232 C233 1.402 . S
C232 H247 0.951 . S
C233 C232 1.402 . S
C233 C234 1.375 . S
C233 C236 1.481 . S
C234 C233 1.375 . S
C234 C235 1.367 . S
C234 H248 0.951 . S
C235 C231 1.383 1_655 S
C235 C234 1.367 . S
C235 H249 0.950 . S
C236 C233 1.481 . S
C236 C237 1.297 . S
C236 H250 0.950 . S
C237 C236 1.297 . S
C237 C238 1.479 . S
C237 H251 0.950 . S
C238 C237 1.479 . S
C238 C239 1.375 . S
C238 C244 1.404 . S
C239 C238 1.375 . S
C239 C240 1.369 . S
C239 H252 0.950 . S
C240 C239 1.369 . S
C240 C241 1.392 . S
C240 H253 0.951 . S
C241 C240 1.392 . S
C241 C243 1.384 . S
H242 C244 0.949 . S
C243 C241 1.384 . S
C243 C244 1.385 . S
C243 H245 0.950 . S
C244 C238 1.404 . S
C244 H242 0.949 . S
C244 C243 1.385 . S
H245 C243 0.950 . S
H246 C230 0.951 . S
H247 C232 0.951 . S
H248 C234 0.951 . S
H249 C235 0.950 . S
H250 C236 0.950 . S
H251 C237 0.950 . S
H252 C239 0.950 . S
H253 C240 0.951 . S
C254 C255 1.386 . S
C254 C256 1.383 . S
C254 H270 0.951 . S
C255 C254 1.386 . S
C255 C259 1.383 . S
C256 C254 1.383 . S
C256 C257 1.402 . S
C256 H271 0.951 . S
C257 C256 1.402 . S
C257 C258 1.375 . S
C257 C260 1.481 . S
C258 C257 1.375 . S
C258 C259 1.367 . S
C258 H272 0.951 . S
C259 C255 1.383 . S
C259 C258 1.367 . S
C259 H273 0.950 1_556 S
C260 C257 1.481 . S
C260 C261 1.297 . S
C260 H274 0.950 . S
C261 C260 1.297 . S
C261 C262 1.479 . S
C261 H275 0.950 . S
C262 C261 1.479 . S
C262 C263 1.375 . S
C262 C268 1.404 . S
C263 C262 1.375 . S
C263 C264 1.369 . S
C263 H276 0.950 . S
C264 C263 1.369 . S
C264 C265 1.392 . S
C264 H277 0.951 . S
C265 C264 1.392 . S
C265 C267 1.384 . S
H266 C268 0.949 . S
C267 C265 1.384 . S
C267 C268 1.385 . S
C267 H269 0.950 . S
C268 C262 1.404 . S
C268 H266 0.949 . S
C268 C267 1.385 . S
H269 C267 0.950 . S
H270 C254 0.951 . S
H271 C256 0.951 . S
H272 C258 0.951 . S
H273 C259 0.950 1_554 S
H274 C260 0.950 . S
H275 C261 0.950 . S
H276 C263 0.950 . S
H277 C264 0.951 . S
C278 C279 1.386 . S
C278 C280 1.383 . S
C278 H294 0.951 . S
C279 C278 1.386 . S
C279 C283 1.383 . S
C280 C278 1.383 . S
C280 C281 1.402 . S
C280 H295 0.951 . S
C281 C280 1.402 . S
C281 C282 1.375 . S
C281 C284 1.481 . S
C282 C281 1.375 . S
C282 C283 1.367 . S
C282 H296 0.951 . S
C283 C279 1.383 . S
C283 C282 1.367 . S
C283 H297 0.950 . S
C284 C281 1.481 . S
C284 C285 1.297 . S
C284 H298 0.950 . S
C285 C284 1.297 . S
C285 C286 1.479 . S
C285 H299 0.950 . S
C286 C285 1.479 . S
C286 C287 1.375 . S
C286 C292 1.404 . S
C287 C286 1.375 . S
C287 C288 1.369 . S
C287 H300 0.950 . S
C288 C287 1.369 . S
C288 C289 1.392 . S
C288 H301 0.951 . S
C289 C288 1.392 . S
C289 C291 1.384 . S
H290 C292 0.949 . S
C291 C289 1.384 . S
C291 C292 1.385 . S
C291 H293 0.950 1_655 S
C292 C286 1.404 . S
C292 H290 0.949 . S
C292 C291 1.385 . S
H293 C291 0.950 1_455 S
H294 C278 0.951 . S
H295 C280 0.951 . S
H296 C282 0.951 . S
H297 C283 0.950 . S
H298 C284 0.950 . S
H299 C285 0.950 . S
H300 C287 0.950 . S
H301 C288 0.951 . S
C302 C303 1.386 . S
C302 C304 1.383 . S
C302 H318 0.951 . S
C303 C302 1.386 . S
C303 C307 1.383 . S
C304 C302 1.383 . S
C304 C305 1.402 . S
C304 H319 0.951 . S
C305 C304 1.402 . S
C305 C306 1.375 . S
C305 C308 1.481 . S
C306 C305 1.375 . S
C306 C307 1.367 . S
C306 H320 0.951 . S
C307 C303 1.383 . S
C307 C306 1.367 . S
C307 H321 0.950 . S
C308 C305 1.481 . S
C308 C309 1.297 . S
C308 H322 0.950 . S
C309 C308 1.297 . S
C309 C310 1.479 . S
C309 H323 0.950 . S
C310 C309 1.479 . S
C310 C311 1.375 . S
C310 C316 1.404 . S
C311 C310 1.375 . S
C311 C312 1.369 . S
C311 H324 0.950 . S
C312 C311 1.369 . S
C312 C313 1.392 . S
C312 H325 0.951 . S
C313 C312 1.392 . S
C313 C315 1.384 . S
H314 C316 0.949 . S
C315 C313 1.384 . S
C315 C316 1.385 . S
C315 H317 0.950 . S
C316 C310 1.404 . S
C316 H314 0.949 . S
C316 C315 1.385 . S
H317 C315 0.950 . S
H318 C302 0.951 . S
H319 C304 0.951 . S
H320 C306 0.951 . S
H321 C307 0.950 . S
H322 C308 0.950 . S
H323 C309 0.950 . S
H324 C311 0.950 . S
H325 C312 0.951 . S
C326 C327 1.386 . S
C326 C328 1.383 . S
C326 H342 0.951 . S
C327 C326 1.386 . S
C327 C331 1.383 . S
C328 C326 1.383 . S
C328 C329 1.402 . S
C328 H343 0.951 . S
C329 C328 1.402 . S
C329 C330 1.375 . S
C329 C332 1.481 . S
C330 C329 1.375 . S
C330 C331 1.367 . S
C330 H344 0.951 . S
C331 C327 1.383 . S
C331 C330 1.367 . S
C331 H345 0.950 . S
C332 C329 1.481 . S
C332 C333 1.297 . S
C332 H346 0.950 . S
C333 C332 1.297 . S
C333 C334 1.479 . S
C333 H347 0.950 . S
C334 C333 1.479 . S
C334 C335 1.375 . S
C334 C340 1.404 . S
C335 C334 1.375 . S
C335 C336 1.369 . S
C335 H348 0.950 . S
C336 C335 1.369 . S
C336 C337 1.392 . S
C336 H349 0.951 . S
C337 C336 1.392 . S
C337 C339 1.384 . S
H338 C340 0.949 . S
C339 C337 1.384 . S
C339 C340 1.385 . S
C339 H341 0.950 . S
C340 C334 1.404 . S
C340 H338 0.949 . S
C340 C339 1.385 . S
H341 C339 0.950 . S
H342 C326 0.951 . S
H343 C328 0.951 . S
H344 C330 0.951 . S
H345 C331 0.950 . S
H346 C332 0.950 . S
H347 C333 0.950 . S
H348 C335 0.950 . S
H349 C336 0.951 . S
C350 C351 1.386 . S
C350 C352 1.383 . S
C350 H366 0.951 . S
C351 C350 1.386 . S
C351 C355 1.383 . S
C352 C350 1.383 . S
C352 C353 1.402 . S
C352 H367 0.951 . S
C353 C352 1.402 . S
C353 C354 1.375 . S
C353 C356 1.481 . S
C354 C353 1.375 . S
C354 C355 1.367 . S
C354 H368 0.951 . S
C355 C351 1.383 . S
C355 C354 1.367 . S
C355 H369 0.950 . S
C356 C353 1.481 . S
C356 C357 1.297 . S
C356 H370 0.950 . S
C357 C356 1.297 . S
C357 C358 1.479 . S
C357 H371 0.950 . S
C358 C357 1.479 . S
C358 C359 1.375 . S
C358 C364 1.404 . S
C359 C358 1.375 . S
C359 C360 1.369 . S
C359 H372 0.950 . S
C360 C359 1.369 . S
C360 C361 1.392 . S
C360 H373 0.951 . S
C361 C360 1.392 . S
C361 C363 1.384 . S
H362 C364 0.949 . S
C363 C361 1.384 . S
C363 C364 1.385 . S
C363 H365 0.950 . S
C364 C358 1.404 . S
C364 H362 0.949 . S
C364 C363 1.385 . S
H365 C363 0.950 . S
H366 C350 0.951 . S
H367 C352 0.951 . S
H368 C354 0.951 . S
H369 C355 0.950 . S
H370 C356 0.950 . S
H371 C357 0.950 . S
H372 C359 0.950 . S
H373 C360 0.951 . S
C97 C51 1.467 . S
C87 N4 1.528 . S
C121 C47 1.316 . S
C111 N15 1.473 . S
C145 C72 1.444 . S
C135 N26 1.522 . S
C159 N37 1.475 . S
C169 C68 1.331 . S
C183 C9 1.174 . S
C193 C69 0.997 . S
C217 C84 1.176 . S
C207 C17 1.222 . S
C231 C6 1.754 . S
C241 C85 1.595 . S
C265 C81 1.580 . S
C255 C20 1.783 . S
C289 C48 1.182 1_655 S
C279 C31 1.188 . S
C303 C39 1.211 . S
C313 C63 1.189 . S
C337 C64 1.561 . S
C327 C28 1.752 . S
C361 C60 1.653 . S
C351 C42 1.758 . S
