# Generated by pormake.
# Topology ssa, (4,4)-cn, num edge types: 1
# Building blocks:
#     Node 0, Type 0, BuildingBlock: KOZSID_clean_sbu_0, # of connection points: 4
#     Node 1, Type 0, BuildingBlock: KOZSID_clean_sbu_0, # of connection points: 4
#     Node 2, Type 0, BuildingBlock: KOZSID_clean_sbu_0, # of connection points: 4
#     Node 3, Type 0, BuildingBlock: KOZSID_clean_sbu_0, # of connection points: 4
#     Node 4, Type 0, BuildingBlock: KOZSID_clean_sbu_0, # of connection points: 4
#     Node 5, Type 0, BuildingBlock: KOZSID_clean_sbu_0, # of connection points: 4
#     Node 6, Type 1, BuildingBlock: AZAVOO_clean_linker_0, # of connection points: 4
#     Node 7, Type 1, BuildingBlock: AZAVOO_clean_linker_0, # of connection points: 4
#     Node 8, Type 1, BuildingBlock: AZAVOO_clean_linker_0, # of connection points: 4
#     Node 9, Type 1, BuildingBlock: AZAVOO_clean_linker_0, # of connection points: 4
#     Node 10, Type 1, BuildingBlock: AZAVOO_clean_linker_0, # of connection points: 4
#     Node 11, Type 1, BuildingBlock: AZAVOO_clean_linker_0, # of connection points: 4
#     Edge 12, Type (0, 1), BuildingBlock: AJUNOK_clean_linker_0, # of connection points: 2
#     Edge 13, Type (0, 1), BuildingBlock: AJUNOK_clean_linker_0, # of connection points: 2
#     Edge 14, Type (0, 1), BuildingBlock: AJUNOK_clean_linker_0, # of connection points: 2
#     Edge 15, Type (0, 1), BuildingBlock: AJUNOK_clean_linker_0, # of connection points: 2
#     Edge 16, Type (0, 1), BuildingBlock: AJUNOK_clean_linker_0, # of connection points: 2
#     Edge 17, Type (0, 1), BuildingBlock: AJUNOK_clean_linker_0, # of connection points: 2
#     Edge 18, Type (0, 1), BuildingBlock: AJUNOK_clean_linker_0, # of connection points: 2
#     Edge 19, Type (0, 1), BuildingBlock: AJUNOK_clean_linker_0, # of connection points: 2
#     Edge 20, Type (0, 1), BuildingBlock: AJUNOK_clean_linker_0, # of connection points: 2
#     Edge 21, Type (0, 1), BuildingBlock: AJUNOK_clean_linker_0, # of connection points: 2
#     Edge 22, Type (0, 1), BuildingBlock: AJUNOK_clean_linker_0, # of connection points: 2
#     Edge 23, Type (0, 1), BuildingBlock: AJUNOK_clean_linker_0, # of connection points: 2
#     Edge 24, Type (0, 1), BuildingBlock: AJUNOK_clean_linker_0, # of connection points: 2
#     Edge 25, Type (0, 1), BuildingBlock: AJUNOK_clean_linker_0, # of connection points: 2
#     Edge 26, Type (0, 1), BuildingBlock: AJUNOK_clean_linker_0, # of connection points: 2
#     Edge 27, Type (0, 1), BuildingBlock: AJUNOK_clean_linker_0, # of connection points: 2
#     Edge 28, Type (0, 1), BuildingBlock: AJUNOK_clean_linker_0, # of connection points: 2
#     Edge 29, Type (0, 1), BuildingBlock: AJUNOK_clean_linker_0, # of connection points: 2
#     Edge 30, Type (0, 1), BuildingBlock: AJUNOK_clean_linker_0, # of connection points: 2
#     Edge 31, Type (0, 1), BuildingBlock: AJUNOK_clean_linker_0, # of connection points: 2
#     Edge 32, Type (0, 1), BuildingBlock: AJUNOK_clean_linker_0, # of connection points: 2
#     Edge 33, Type (0, 1), BuildingBlock: AJUNOK_clean_linker_0, # of connection points: 2
#     Edge 34, Type (0, 1), BuildingBlock: AJUNOK_clean_linker_0, # of connection points: 2
#     Edge 35, Type (0, 1), BuildingBlock: AJUNOK_clean_linker_0, # of connection points: 2
# Relax obj value: 0.080
# Max RMSD: 0.234
# Mean RMSD: 0.122
data_MOF--net-ssa--node1-KOZSID_clean_sbu_0--node2-AZAVOO_clean_linker_0--edge1-AJUNOK_clean_linker_0
_symmetry_space_group_name_H-M    P1
_symmetry_Int_Tables_number       1
_symmetry_cell_setting            triclinic
loop_
_symmetry_equiv_pos_as_xyz
'x, y, z'
_cell_length_a     42.849405
_cell_length_b     44.321583
_cell_length_c     41.313374
_cell_angle_alpha  86.756124
_cell_angle_beta   93.033792
_cell_angle_gamma 123.16197
loop_
_atom_site_label
_atom_site_type_symbol
_atom_site_fract_x
_atom_site_fract_y
_atom_site_fract_z
_atom_type_partial_charge
C0 C 0.06327 0.55238 0.02327 0.0
C1 C 0.0285 0.53624 0.03704 0.0
C2 C 0.02818 0.51567 0.06293 0.0
C3 C 0.06245 0.52018 0.06335 0.0
N4 N 0.0849 0.54263 0.03947 0.0
Co5 Co 0.13601 0.55463 0.0299 0.0
N6 N 0.13566 0.525 0.06857 0.0
C7 C 0.10894 0.50798 0.09107 0.0
C8 C 0.11829 0.4938 0.1171 0.0
C9 C 0.15304 0.50203 0.11093 0.0
C10 C 0.16257 0.52006 0.0808 0.0
N11 N 0.18646 0.56523 0.01969 0.0
C12 C 0.20669 0.5529 0.03443 0.0
C13 C 0.23905 0.56473 0.01792 0.0
C14 C 0.23963 0.58575 0.9922 0.0
C15 C 0.20753 0.58524 0.99419 0.0
N16 N 0.13693 0.58557 0.99208 0.0
C17 C 0.16524 0.60579 0.97152 0.0
C18 C 0.15802 0.6247 0.94831 0.0
C19 C 0.12302 0.61614 0.95444 0.0
C20 C 0.11085 0.59227 0.98105 0.0
N21 N 0.15919 0.5973 0.05747 0.0
C22 C 0.19172 0.65754 0.09696 0.0
C23 C 0.2082 0.6591 0.06815 0.0
C24 C 0.19158 0.62888 0.04889 0.0
C25 C 0.1588 0.62539 0.10568 0.0
C26 C 0.14302 0.596 0.08566 0.0
N27 N 0.11268 0.51216 0.00213 0.0
C28 C 0.10136 0.48793 0.94876 0.0
C29 C 0.07225 0.45433 0.96016 0.0
C30 C 0.06519 0.44956 0.99331 0.0
C31 C 0.08565 0.47861 0.01375 0.0
C32 C 0.1214 0.51607 0.97009 0.0
H33 H 0.07842 0.47353 0.03866 0.0
H34 H 0.14303 0.54105 0.95979 0.0
H35 H 0.20559 0.63168 0.02733 0.0
H36 H 0.11794 0.57243 0.09378 0.0
C37 C 0.07514 0.50545 0.08699 0.0
C38 C 0.0741 0.57628 0.9946 0.0
C39 C 0.19658 0.5304 0.06418 0.0
C40 C 0.1969 0.60407 0.97309 0.0
H41 H 0.00565 0.53899 0.02922 0.0
H42 H 0.00576 0.49956 0.0796 0.0
H43 H 0.10178 0.47932 0.13811 0.0
H44 H 0.16925 0.49516 0.12686 0.0
H45 H 0.26016 0.5589 0.02386 0.0
H46 H 0.26095 0.59978 0.97422 0.0
H47 H 0.17578 0.64206 0.92884 0.0
H48 H 0.10795 0.62599 0.9407 0.0
H49 H 0.23392 0.68345 0.0606 0.0
H50 H 0.14564 0.62247 0.12834 0.0
H51 H 0.10766 0.49313 0.92324 0.0
H52 H 0.04325 0.42376 0.00331 0.0
C53 C 0.64506 0.02383 0.61599 0.0
C54 C 0.64305 0.006 0.64529 0.0
C55 C 0.6091 0.97416 0.64528 0.0
C56 C 0.59243 0.97445 0.61613 0.0
N57 N 0.61392 0.00425 0.59723 0.0
Co58 Co 0.59972 0.0171 0.55404 0.0
N59 N 0.54911 0.97103 0.55451 0.0
C60 C 0.53634 0.94373 0.57706 0.0
C61 C 0.50199 0.91411 0.5694 0.0
C62 C 0.49227 0.92281 0.54009 0.0
C63 C 0.52116 0.95768 0.53172 0.0
N64 N 0.58498 0.0309 0.5117 0.0
C65 C 0.55233 0.01341 0.49455 0.0
C66 C 0.55275 0.03383 0.46758 0.0
C67 C 0.58727 0.06492 0.46721 0.0
C68 C 0.60568 0.06194 0.49406 0.0
N69 N 0.65089 0.06233 0.55277 0.0
C70 C 0.66535 0.08763 0.52844 0.0
C71 C 0.70135 0.11552 0.53444 0.0
C72 C 0.71038 0.10775 0.56452 0.0
C73 C 0.67918 0.07542 0.57512 0.0
N74 N 0.61852 0.9921 0.53118 0.0
C75 C 0.64071 0.95371 0.49741 0.0
C76 C 0.64579 0.9858 0.48429 0.0
C77 C 0.63479 0.00458 0.50156 0.0
C78 C 0.62509 0.94156 0.52786 0.0
C79 C 0.61445 0.96104 0.54421 0.0
N80 N 0.58083 0.04183 0.577 0.0
C81 C 0.58199 0.09557 0.58747 0.0
C82 C 0.55669 0.07746 0.61236 0.0
C83 C 0.54308 0.04114 0.61878 0.0
C84 C 0.55531 0.02396 0.6009 0.0
C85 C 0.59357 0.07733 0.57014 0.0
H86 H 0.54408 0.99633 0.60722 0.0
H87 H 0.61329 0.09262 0.55169 0.0
H88 H 0.63925 0.02881 0.49026 0.0
H89 H 0.60234 0.94986 0.56708 0.0
C90 C 0.55703 0.94693 0.60544 0.0
C91 C 0.67672 0.05966 0.60747 0.0
C92 C 0.52103 0.97682 0.50177 0.0
C93 C 0.64302 0.08674 0.50226 0.0
H94 H 0.6639 0.01528 0.66474 0.0
H95 H 0.59782 0.9534 0.66434 0.0
H96 H 0.48606 0.88903 0.58333 0.0
H97 H 0.46685 0.90522 0.52641 0.0
H98 H 0.53064 0.02668 0.44965 0.0
H99 H 0.59789 0.0868 0.44922 0.0
H100 H 0.71841 0.13944 0.51937 0.0
H101 H 0.73653 0.1246 0.57758 0.0
H102 H 0.6579 0.9962 0.46068 0.0
H103 H 0.6199 0.91642 0.53868 0.0
H104 H 0.59366 0.12393 0.582 0.0
H105 H 0.52325 0.02606 0.63777 0.0
C106 C 0.65387 0.55528 0.02608 0.0
C107 C 0.66167 0.58162 0.00219 0.0
C108 C 0.63234 0.58579 0.00079 0.0
C109 C 0.60847 0.56196 0.02388 0.0
N110 N 0.62101 0.54311 0.04023 0.0
Co111 Co 0.59519 0.50565 0.07581 0.0
N112 N 0.55065 0.5093 0.07149 0.0
C113 C 0.54411 0.52836 0.0486 0.0
C114 C 0.51031 0.52443 0.05126 0.0
C115 C 0.49475 0.50219 0.0779 0.0
C116 C 0.52038 0.49431 0.09027 0.0
N117 N 0.56992 0.46946 0.11251 0.0
C118 C 0.53997 0.46167 0.12959 0.0
C119 C 0.53499 0.43937 0.15652 0.0
C120 C 0.56261 0.43283 0.15643 0.0
C121 C 0.5832 0.45181 0.12989 0.0
N122 N 0.63926 0.50098 0.07917 0.0
C123 C 0.64361 0.47837 0.09938 0.0
C124 C 0.67557 0.47937 0.09458 0.0
C125 C 0.69233 0.50354 0.06932 0.0
C126 C 0.66951 0.51594 0.06023 0.0
N127 N 0.61839 0.54408 0.10802 0.0
C128 C 0.64431 0.59431 0.15723 0.0
C129 C 0.64927 0.56573 0.1601 0.0
C130 C 0.6366 0.54133 0.1352 0.0
C131 C 0.62718 0.59807 0.12899 0.0
C132 C 0.61451 0.57281 0.10482 0.0
N133 N 0.57187 0.46694 0.04357 0.0
C134 C 0.5552 0.40825 0.02712 0.0
C135 C 0.54686 0.41522 0.99558 0.0
C136 C 0.54918 0.44756 0.98889 0.0
C137 C 0.56155 0.47279 0.01305 0.0
C138 C 0.5675 0.43424 0.05055 0.0
H139 H 0.56334 0.49714 0.00611 0.0
H140 H 0.57395 0.42742 0.07392 0.0
H141 H 0.6412 0.52007 0.13879 0.0
H142 H 0.6009 0.57656 0.0841 0.0
C143 C 0.57225 0.55335 0.0279 0.0
C144 C 0.67698 0.54074 0.03262 0.0
C145 C 0.51698 0.47639 0.12187 0.0
C146 C 0.61707 0.45647 0.12251 0.0
H147 H 0.68548 0.59543 0.9866 0.0
H148 H 0.62812 0.60292 0.98392 0.0
H149 H 0.49922 0.53772 0.03667 0.0
H150 H 0.46851 0.49434 0.08817 0.0
H151 H 0.51455 0.42977 0.17514 0.0
H152 H 0.56817 0.4176 0.17453 0.0
H153 H 0.68523 0.46392 0.10753 0.0
H154 H 0.71807 0.51079 0.05841 0.0
H155 H 0.66276 0.56215 0.18155 0.0
H156 H 0.62261 0.61983 0.12597 0.0
H157 H 0.55275 0.38303 0.03361 0.0
H158 H 0.54272 0.45396 0.96478 0.0
C159 C 0.98406 0.39511 0.57712 0.0
C160 C 0.94697 0.36902 0.56997 0.0
C161 C 0.93727 0.38087 0.54247 0.0
C162 C 0.96865 0.41355 0.53455 0.0
N163 N 0.99818 0.42297 0.55487 0.0
Co164 Co 0.04725 0.47072 0.5554 0.0
N165 N 0.03108 0.49039 0.51793 0.0
C166 C 0.99841 0.47248 0.50088 0.0
C167 C 0.99608 0.4923 0.47528 0.0
C168 C 0.02955 0.52463 0.47563 0.0
C169 C 0.05033 0.52263 0.50158 0.0
N170 N 0.09566 0.51884 0.55716 0.0
C171 C 0.10809 0.54888 0.53796 0.0
C172 C 0.14331 0.57681 0.54788 0.0
C173 C 0.15374 0.56375 0.57403 0.0
C174 C 0.12436 0.52881 0.57865 0.0
N175 N 0.06403 0.45062 0.59184 0.0
C176 C 0.09821 0.46697 0.60641 0.0
C177 C 0.10151 0.44598 0.63024 0.0
C178 C 0.06712 0.41464 0.6314 0.0
C179 C 0.04469 0.4186 0.6084 0.0
N180 N 0.06812 0.45439 0.52377 0.0
C181 C 0.10061 0.43962 0.47449 0.0
C182 C 0.12143 0.45796 0.50193 0.0
C183 C 0.10478 0.46492 0.52609 0.0
C184 C 0.06289 0.42746 0.4727 0.0
C185 C 0.04721 0.43466 0.49761 0.0
N186 N 0.02655 0.48734 0.58671 0.0
C187 C 0.02862 0.5102 0.63915 0.0
C188 C 0.99615 0.50952 0.63139 0.0
C189 C 0.97931 0.49793 0.60091 0.0
C190 C 0.99462 0.4867 0.57923 0.0
C191 C 0.04344 0.49937 0.61651 0.0
H192 H 0.97989 0.47729 0.55669 0.0
H193 H 0.06848 0.50076 0.62371 0.0
H194 H 0.1225 0.47978 0.54593 0.0
H195 H 0.01835 0.42469 0.49476 0.0
C196 C 0.97034 0.43724 0.50985 0.0
C197 C 0.00433 0.39351 0.60614 0.0
C198 C 0.08863 0.55153 0.50904 0.0
C199 C 0.12465 0.5036 0.60036 0.0
H200 H 0.92827 0.3445 0.58361 0.0
H201 H 0.91005 0.36795 0.53053 0.0
H202 H 0.97295 0.48408 0.45822 0.0
H203 H 0.03795 0.54703 0.4585 0.0
H204 H 0.16014 0.60352 0.53677 0.0
H205 H 0.18017 0.57764 0.5873 0.0
H206 H 0.12538 0.45336 0.64614 0.0
H207 H 0.05878 0.39226 0.64853 0.0
H208 H 0.15089 0.46817 0.50422 0.0
H209 H 0.04563 0.41278 0.45196 0.0
H210 H 0.04265 0.51926 0.66253 0.0
H211 H 0.95392 0.49679 0.59409 0.0
C212 C 0.52003 0.03016 0.1539 0.0
C213 C 0.52414 0.04855 0.18151 0.0
C214 C 0.55655 0.08163 0.17842 0.0
C215 C 0.57025 0.08159 0.14916 0.0
N216 N 0.54826 0.05063 0.1332 0.0
Co217 Co 0.55793 0.0385 0.0904 0.0
N218 N 0.60919 0.08381 0.08902 0.0
C219 C 0.62565 0.1093 0.11174 0.0
C220 C 0.6615 0.13656 0.10487 0.0
C221 C 0.66842 0.12801 0.07604 0.0
C222 C 0.6361 0.09606 0.06678 0.0
N223 N 0.56707 0.02677 0.04714 0.0
C224 C 0.59714 0.0454 0.02797 0.0
C225 C 0.5907 0.02892 0.99855 0.0
C226 C 0.5556 0.99863 0.99934 0.0
C227 C 0.54245 0.99847 0.02888 0.0
N228 N 0.50736 0.99238 0.09255 0.0
C229 C 0.49075 0.96679 0.06995 0.0
C230 C 0.4574 0.93685 0.07922 0.0
C231 C 0.45271 0.9433 0.1099 0.0
C232 C 0.48352 0.97708 0.11746 0.0
N233 N 0.53653 0.0643 0.06752 0.0
C234 C 0.51587 0.10382 0.02668 0.0
C235 C 0.49683 0.0665 0.0248 0.0
C236 C 0.50749 0.04735 0.04536 0.0
C237 C 0.5433 0.12076 0.05082 0.0
C238 C 0.55257 0.10051 0.07128 0.0
N239 N 0.57948 0.01314 0.11284 0.0
C240 C 0.58624 0.96245 0.1181 0.0
C241 C 0.60927 0.97675 0.14568 0.0
C242 C 0.61775 0.0099 0.1561 0.0
C243 C 0.60244 0.02735 0.13962 0.0
C244 C 0.57179 0.98102 0.10209 0.0
H245 H 0.6095 0.05229 0.14903 0.0
H246 H 0.55427 0.96885 0.08121 0.0
H247 H 0.49259 0.01914 0.04198 0.0
H248 H 0.57365 0.11515 0.08919 0.0
C249 C 0.60608 0.10754 0.13859 0.0
C250 C 0.48983 0.99278 0.14909 0.0
C251 C 0.63208 0.07889 0.03634 0.0
C252 C 0.50785 0.97129 0.04069 0.0
H253 H 0.50616 0.03859 0.20217 0.0
H254 H 0.56957 0.10247 0.19617 0.0
H255 H 0.68025 0.16 0.119 0.0
H256 H 0.69425 0.14371 0.06315 0.0
H257 H 0.60933 0.03782 0.97846 0.0
H258 H 0.5414 0.97897 0.98066 0.0
H259 H 0.43919 0.91279 0.06565 0.0
H260 H 0.42962 0.92482 0.1252 0.0
H261 H 0.47515 0.0524 0.0064 0.0
H262 H 0.55827 0.1497 0.0533 0.0
H263 H 0.57892 0.93677 0.10919 0.0
H264 H 0.63625 0.02248 0.17686 0.0
C265 C 0.59497 0.61266 0.5539 0.0
C266 C 0.58307 0.63598 0.5557 0.0
C267 C 0.55553 0.62089 0.57791 0.0
C268 C 0.55218 0.58932 0.58826 0.0
N269 N 0.57651 0.58372 0.57457 0.0
Co270 Co 0.57893 0.5398 0.57998 0.0
N271 N 0.53618 0.51599 0.61045 0.0
C272 C 0.51698 0.52967 0.62064 0.0
C273 C 0.49079 0.50799 0.64318 0.0
C274 C 0.49399 0.47909 0.64826 0.0
C275 C 0.52203 0.48491 0.6284 0.0
N276 N 0.58064 0.49549 0.5845 0.0
C277 C 0.56125 0.4658 0.60412 0.0
C278 C 0.57123 0.44127 0.60017 0.0
C279 C 0.59829 0.45627 0.57754 0.0
C280 C 0.60328 0.48895 0.56899 0.0
N281 N 0.62257 0.56412 0.55051 0.0
C282 C 0.643 0.55123 0.54164 0.0
C283 C 0.67062 0.57383 0.5205 0.0
C284 C 0.66719 0.60256 0.51508 0.0
C285 C 0.63749 0.59566 0.53324 0.0
N286 N 0.61362 0.56045 0.61793 0.0
C287 C 0.65969 0.58426 0.67399 0.0
C288 C 0.66671 0.5687 0.64934 0.0
C289 C 0.64346 0.55696 0.62181 0.0
C290 C 0.62975 0.58843 0.67006 0.0
C291 C 0.6075 0.57687 0.64174 0.0
N292 N 0.54417 0.51912 0.54197 0.0
C293 C 0.53214 0.49957 0.48661 0.0
C294 C 0.49803 0.49679 0.48555 0.0
C295 C 0.48684 0.50405 0.51366 0.0
C296 C 0.51023 0.51538 0.5412 0.0
C297 C 0.55421 0.50999 0.51501 0.0
H298 H 0.50046 0.52165 0.56128 0.0
H299 H 0.57972 0.51135 0.51416 0.0
H300 H 0.64975 0.54446 0.60434 0.0
H301 H 0.5852 0.58099 0.63989 0.0
C302 C 0.52522 0.56354 0.60939 0.0
C303 C 0.62206 0.61788 0.53071 0.0
C304 C 0.53542 0.46103 0.62851 0.0
C305 C 0.6322 0.51585 0.54999 0.0
H306 H 0.59261 0.66078 0.54169 0.0
H307 H 0.53905 0.63109 0.58485 0.0
H308 H 0.47228 0.51306 0.65512 0.0
H309 H 0.47812 0.45664 0.66517 0.0
H310 H 0.561 0.41577 0.61314 0.0
H311 H 0.61379 0.44545 0.56949 0.0
H312 H 0.68961 0.56907 0.50902 0.0
H313 H 0.68351 0.62525 0.49852 0.0
H314 H 0.68948 0.56462 0.65173 0.0
H315 H 0.62356 0.60048 0.68873 0.0
H316 H 0.5426 0.49504 0.46536 0.0
H317 H 0.46037 0.50174 0.51429 0.0
H318 H 0.3022 0.46031 0.49887 0.0
H319 H 0.10045 0.42058 0.15752 0.0
H320 H 0.38311 0.51746 0.31631 0.0
H321 H 0.43118 0.52713 0.35632 0.0
H322 H 0.37665 0.4117 0.37046 0.0
H323 H 0.33119 0.40255 0.32738 0.0
H324 H 0.31993 0.50107 0.36065 0.0
H325 H 0.31865 0.49491 0.41993 0.0
H326 H 0.2609 0.37917 0.41336 0.0
H327 H 0.26257 0.38583 0.3541 0.0
H328 H 0.25403 0.49936 0.32226 0.0
H329 H 0.21056 0.49408 0.36189 0.0
H330 H 0.15761 0.37859 0.36685 0.0
H331 H 0.20047 0.38391 0.32618 0.0
H332 H 0.24325 0.50251 0.26347 0.0
H333 H 0.19299 0.50137 0.23146 0.0
H334 H 0.15653 0.39595 0.19799 0.0
H335 H 0.20642 0.39709 0.23081 0.0
H336 H 0.30972 0.52496 0.22924 0.0
H337 H 0.29477 0.54203 0.17692 0.0
H338 H 0.26587 0.44036 0.13922 0.0
H339 H 0.2752 0.4214 0.19344 0.0
H340 H 0.39477 0.51547 0.26244 0.0
H341 H 0.44437 0.51869 0.23369 0.0
H342 H 0.36337 0.41728 0.18949 0.0
H343 H 0.31603 0.41077 0.22432 0.0
O344 O 0.30294 0.4622 0.47543 0.0
O345 O 0.27336 0.40286 0.47071 0.0
O346 O 0.13528 0.47222 0.1937 0.0
O347 O 0.11989 0.42126 0.17114 0.0
C348 C 0.3214 0.45417 0.29955 0.0
C349 C 0.29084 0.44766 0.31731 0.0
C350 C 0.26016 0.44608 0.30126 0.0
C351 C 0.26014 0.45136 0.26734 0.0
C352 C 0.29105 0.45871 0.24947 0.0
C353 C 0.32129 0.45897 0.26536 0.0
C354 C 0.35453 0.45936 0.31794 0.0
C355 C 0.383 0.49432 0.32644 0.0
C356 C 0.40992 0.49973 0.34997 0.0
C357 C 0.40784 0.47022 0.36678 0.0
C358 C 0.3799 0.4351 0.35746 0.0
C359 C 0.35373 0.42977 0.33291 0.0
C360 C 0.29144 0.4439 0.35324 0.0
C361 C 0.30725 0.47447 0.37213 0.0
C362 C 0.30639 0.47084 0.40594 0.0
C363 C 0.28959 0.43653 0.42139 0.0
C364 C 0.27403 0.40597 0.40225 0.0
C365 C 0.27498 0.40967 0.36845 0.0
C366 C 0.22988 0.44196 0.32082 0.0
C367 C 0.23216 0.47281 0.33094 0.0
C368 C 0.20759 0.4698 0.35373 0.0
C369 C 0.18094 0.43596 0.36736 0.0
C370 C 0.17801 0.40495 0.35664 0.0
C371 C 0.2022 0.40793 0.33334 0.0
C372 C 0.2279 0.44951 0.25007 0.0
C373 C 0.22378 0.4788 0.24993 0.0
C374 C 0.19529 0.47823 0.23133 0.0
C375 C 0.17067 0.4485 0.21224 0.0
C376 C 0.17492 0.4192 0.21249 0.0
C377 C 0.20324 0.41969 0.23133 0.0
C378 C 0.29362 0.47197 0.21529 0.0
C379 C 0.30085 0.50663 0.20948 0.0
C380 C 0.29238 0.51641 0.17926 0.0
C381 C 0.27779 0.49218 0.15367 0.0
C382 C 0.27505 0.45907 0.15861 0.0
C383 C 0.28167 0.44855 0.18944 0.0
C384 C 0.35161 0.46265 0.24599 0.0
C385 C 0.38802 0.4933 0.24756 0.0
C386 C 0.4163 0.49573 0.22984 0.0
C387 C 0.40829 0.46886 0.208 0.0
C388 C 0.37134 0.4385 0.20612 0.0
C389 C 0.34376 0.43502 0.22554 0.0
C390 C 0.2881 0.4327 0.4573 0.0
C391 C 0.14092 0.44816 0.19188 0.0
H392 H 0.89887 0.33917 0.00983 0.0
H393 H 0.64592 0.98981 0.81595 0.0
H394 H 0.88316 0.31633 0.83627 0.0
H395 H 0.93612 0.36926 0.86193 0.0
H396 H 0.99505 0.31521 0.87123 0.0
H397 H 0.94255 0.26305 0.84425 0.0
H398 H 0.82541 0.26752 0.88868 0.0
H399 H 0.84806 0.29987 0.93944 0.0
H400 H 0.92587 0.26657 0.95333 0.0
H401 H 0.90268 0.2341 0.9027 0.0
H402 H 0.74846 0.18685 0.86018 0.0
H403 H 0.70522 0.15731 0.90468 0.0
H404 H 0.78606 0.14332 0.95839 0.0
H405 H 0.82804 0.1705 0.9126 0.0
H406 H 0.7433 0.16852 0.79153 0.0
H407 H 0.68611 0.10941 0.78302 0.0
H408 H 0.73419 0.05909 0.84016 0.0
H409 H 0.79148 0.11835 0.84803 0.0
H410 H 0.80367 0.22591 0.74733 0.0
H411 H 0.77157 0.19371 0.69783 0.0
H412 H 0.79281 0.11122 0.72687 0.0
H413 H 0.826 0.14421 0.77575 0.0
H414 H 0.8668 0.29651 0.77587 0.0
H415 H 0.90157 0.33374 0.72882 0.0
H416 H 0.94131 0.26439 0.71563 0.0
H417 H 0.90585 0.22681 0.76281 0.0
O418 O 0.88955 0.32534 0.99036 0.0
O419 O 0.92886 0.30731 0.99643 0.0
O420 O 0.64488 0.04071 0.78959 0.0
O421 O 0.6682 0.01353 0.81897 0.0
C422 C 0.87388 0.25103 0.83294 0.0
C423 C 0.85119 0.23198 0.85982 0.0
C424 C 0.81721 0.19857 0.85554 0.0
C425 C 0.80682 0.1835 0.82453 0.0
C426 C 0.82957 0.20274 0.7976 0.0
C427 C 0.86268 0.23701 0.80165 0.0
C428 C 0.90922 0.28606 0.83834 0.0
C429 C 0.90827 0.31671 0.84237 0.0
C430 C 0.9383 0.34664 0.85739 0.0
C431 C 0.9695 0.34616 0.86886 0.0
C432 C 0.97165 0.31659 0.86224 0.0
C433 C 0.94173 0.28679 0.84681 0.0
C434 C 0.86239 0.24848 0.89213 0.0
C435 C 0.84697 0.26687 0.90299 0.0
C436 C 0.86012 0.28547 0.93188 0.0
C437 C 0.88892 0.28596 0.95037 0.0
C438 C 0.90372 0.26681 0.93966 0.0
C439 C 0.89049 0.24817 0.91082 0.0
C440 C 0.7913 0.18059 0.88298 0.0
C441 C 0.75659 0.17687 0.88133 0.0
C442 C 0.73209 0.16033 0.90695 0.0
C443 C 0.74202 0.14767 0.93504 0.0
C444 C 0.77711 0.1519 0.93681 0.0
C445 C 0.80135 0.16787 0.91085 0.0
C446 C 0.77164 0.14767 0.82016 0.0
C447 C 0.74149 0.14468 0.80203 0.0
C448 C 0.70882 0.11089 0.7973 0.0
C449 C 0.70561 0.07949 0.81085 0.0
C450 C 0.73575 0.08269 0.82934 0.0
C451 C 0.76847 0.1165 0.83394 0.0
C452 C 0.81717 0.18738 0.76501 0.0
C453 C 0.80258 0.20159 0.74239 0.0
C454 C 0.78397 0.18303 0.71437 0.0
C455 C 0.77967 0.14998 0.70864 0.0
C456 C 0.79623 0.1369 0.73043 0.0
C457 C 0.81503 0.1556 0.75837 0.0
C458 C 0.88426 0.2593 0.77306 0.0
C459 C 0.8833 0.28954 0.76304 0.0
C460 C 0.90324 0.31081 0.73621 0.0
C461 C 0.92473 0.30236 0.71889 0.0
C462 C 0.92509 0.2716 0.72859 0.0
C463 C 0.90503 0.25024 0.75553 0.0
C464 C 0.9037 0.30674 0.98047 0.0
C465 C 0.67102 0.0435 0.80577 0.0
H466 H 0.66577 0.74635 0.10537 0.0
H467 H 0.69277 0.00714 0.36573 0.0
H468 H 0.62119 0.71052 0.29958 0.0
H469 H 0.61678 0.66274 0.26885 0.0
H470 H 0.73624 0.72689 0.25806 0.0
H471 H 0.74023 0.77511 0.28798 0.0
H472 H 0.63073 0.74965 0.23942 0.0
H473 H 0.63502 0.739 0.18289 0.0
H474 H 0.74937 0.83038 0.18239 0.0
H475 H 0.74487 0.84033 0.2392 0.0
H476 H 0.62403 0.8093 0.24209 0.0
H477 H 0.61086 0.84598 0.2045 0.0
H478 H 0.71788 0.94065 0.22895 0.0
H479 H 0.73173 0.90361 0.26587 0.0
H480 H 0.61844 0.84289 0.30829 0.0
H481 H 0.61183 0.89225 0.32153 0.0
H482 H 0.7281 0.95519 0.35186 0.0
H483 H 0.73438 0.90576 0.33815 0.0
H484 H 0.61138 0.79482 0.36771 0.0
H485 H 0.60306 0.82512 0.4109 0.0
H486 H 0.72201 0.88772 0.42996 0.0
H487 H 0.72999 0.85666 0.38712 0.0
H488 H 0.60941 0.73458 0.35877 0.0
H489 H 0.59565 0.69313 0.40555 0.0
H490 H 0.71297 0.73436 0.41825 0.0
H491 H 0.72658 0.77647 0.37166 0.0
O492 O 0.66491 0.75069 0.12791 0.0
O493 O 0.72339 0.79829 0.12872 0.0
O494 O 0.6355 0.95455 0.34274 0.0
O495 O 0.69481 0.98753 0.35962 0.0
C496 C 0.68167 0.77891 0.30335 0.0
C497 C 0.6846 0.8027 0.2775 0.0
C498 C 0.68301 0.83277 0.28369 0.0
C499 C 0.6802 0.84005 0.31578 0.0
C500 C 0.67716 0.81631 0.34153 0.0
C501 C 0.67692 0.78523 0.3353 0.0
C502 C 0.68098 0.74631 0.29575 0.0
C503 C 0.64657 0.71362 0.29179 0.0
C504 C 0.6441 0.68644 0.27405 0.0
C505 C 0.67606 0.69162 0.26026 0.0
C506 C 0.71104 0.72268 0.26763 0.0
C507 C 0.71345 0.74997 0.28511 0.0
C508 C 0.68764 0.79547 0.2435 0.0
C509 C 0.65685 0.76699 0.22722 0.0
C510 C 0.6593 0.76114 0.19484 0.0
C511 C 0.69249 0.78394 0.17807 0.0
C512 C 0.72337 0.81237 0.19458 0.0
C513 C 0.72091 0.81809 0.227 0.0
C514 C 0.6789 0.85379 0.25655 0.0
C515 C 0.6453 0.83766 0.23837 0.0
C516 C 0.63773 0.85853 0.21708 0.0
C517 C 0.66351 0.8958 0.214 0.0
C518 C 0.69791 0.91178 0.23089 0.0
C519 C 0.70574 0.89076 0.25189 0.0
C520 C 0.67686 0.87082 0.32231 0.0
C521 C 0.64249 0.8675 0.31755 0.0
C522 C 0.63878 0.89567 0.32523 0.0
C523 C 0.66943 0.92763 0.33788 0.0
C524 C 0.70394 0.93095 0.34223 0.0
C525 C 0.70763 0.9028 0.33441 0.0
C526 C 0.67125 0.82349 0.37445 0.0
C527 C 0.63538 0.81361 0.3824 0.0
C528 C 0.63075 0.83131 0.4067 0.0
C529 C 0.66195 0.85905 0.42337 0.0
C530 C 0.69748 0.86622 0.41767 0.0
C531 C 0.70207 0.84837 0.39337 0.0
C532 C 0.66893 0.75833 0.36186 0.0
C533 C 0.63207 0.73438 0.37149 0.0
C534 C 0.62426 0.71061 0.39804 0.0
C535 C 0.65321 0.71028 0.41532 0.0
C536 C 0.69015 0.73411 0.40536 0.0
C537 C 0.69795 0.75795 0.37874 0.0
C538 C 0.69467 0.77822 0.14343 0.0
C539 C 0.66542 0.9573 0.3468 0.0
H540 H 0.79558 0.60938 0.62698 0.0
H541 H 0.03935 0.52661 0.85928 0.0
H542 H 0.83991 0.64552 0.81617 0.0
H543 H 0.7927 0.65385 0.78939 0.0
H544 H 0.71559 0.53818 0.78858 0.0
H545 H 0.76206 0.53033 0.81735 0.0
H546 H 0.87674 0.63522 0.75159 0.0
H547 H 0.84996 0.63546 0.69774 0.0
H548 H 0.76401 0.5225 0.71211 0.0
H549 H 0.79152 0.52253 0.76558 0.0
H550 H 0.94546 0.62182 0.76543 0.0
H551 H 0.97264 0.60667 0.72316 0.0
H552 H 0.87812 0.49643 0.72743 0.0
H553 H 0.85131 0.51163 0.76966 0.0
H554 H 0.97086 0.63026 0.83665 0.0
H555 H 0.02439 0.62474 0.84672 0.0
H556 H 0.95104 0.50882 0.8416 0.0
H557 H 0.89775 0.51478 0.83186 0.0
H558 H 0.93437 0.6378 0.88975 0.0
H559 H 0.98077 0.63931 0.9279 0.0
H560 H 0.91574 0.52287 0.93399 0.0
H561 H 0.8701 0.52165 0.89507 0.0
H562 H 0.84312 0.63228 0.88105 0.0
H563 H 0.80303 0.62357 0.92568 0.0
H564 H 0.76947 0.51232 0.93725 0.0
H565 H 0.80849 0.52091 0.89202 0.0
O566 O 0.80594 0.60864 0.64818 0.0
O567 O 0.75863 0.55266 0.65932 0.0
O568 O 0.05545 0.58939 0.85627 0.0
O569 O 0.01885 0.52963 0.85444 0.0
C570 C 0.8358 0.58237 0.82303 0.0
C571 C 0.8517 0.57906 0.79531 0.0
C572 C 0.88225 0.5753 0.79885 0.0
C573 C 0.89785 0.57624 0.82989 0.0
C574 C 0.88157 0.57887 0.85766 0.0
C575 C 0.8498 0.58087 0.85439 0.0
C576 C 0.80442 0.58732 0.81824 0.0
C577 C 0.81216 0.62211 0.8117 0.0
C578 C 0.78536 0.62677 0.79597 0.0
C579 C 0.75102 0.59664 0.78571 0.0
C580 C 0.74185 0.56196 0.79598 0.0
C581 C 0.76837 0.55736 0.81241 0.0
C582 C 0.83591 0.57893 0.76244 0.0
C583 C 0.85225 0.61055 0.74294 0.0
C584 C 0.83687 0.6106 0.71224 0.0
C585 C 0.80477 0.57901 0.70066 0.0
C586 C 0.78864 0.54731 0.72033 0.0
C587 C 0.80427 0.54724 0.75085 0.0
C588 C 0.89647 0.56779 0.77048 0.0
C589 C 0.93042 0.59458 0.7568 0.0
C590 C 0.94584 0.58593 0.73276 0.0
C591 C 0.92761 0.55033 0.72245 0.0
C592 C 0.8929 0.52395 0.73533 0.0
C593 C 0.87747 0.53263 0.75919 0.0
C594 C 0.93054 0.57293 0.83363 0.0
C595 C 0.96651 0.60375 0.83752 0.0
C596 C 0.99699 0.6005 0.8433 0.0
C597 C 0.99198 0.56631 0.84507 0.0
C598 C 0.95588 0.53553 0.84045 0.0
C599 C 0.92542 0.53884 0.83477 0.0
C600 C 0.89891 0.57964 0.88975 0.0
C601 C 0.92914 0.6127 0.9007 0.0
C602 C 0.95575 0.6135 0.92234 0.0
C603 C 0.95204 0.58118 0.93349 0.0
C604 C 0.91942 0.54815 0.9254 0.0
C605 C 0.89301 0.54739 0.90363 0.0
C606 C 0.82882 0.57726 0.88337 0.0
C607 C 0.82736 0.60616 0.89345 0.0
C608 C 0.80468 0.6012 0.91908 0.0
C609 C 0.78329 0.56729 0.93512 0.0
C610 C 0.78552 0.53869 0.92531 0.0
C611 C 0.80802 0.54363 0.89968 0.0
C612 C 0.78827 0.57917 0.66819 0.0
C613 C 0.0241 0.56263 0.85218 0.0
H614 H 0.2892 0.84277 0.542 0.0
H615 H 0.10335 0.57575 0.25719 0.0
H616 H 0.32231 0.88195 0.37205 0.0
H617 H 0.37549 0.92532 0.40588 0.0
H618 H 0.42814 0.86691 0.3936 0.0
H619 H 0.37621 0.82542 0.35828 0.0
H620 H 0.24607 0.81295 0.40507 0.0
H621 H 0.25543 0.82686 0.46266 0.0
H622 H 0.33971 0.80143 0.47065 0.0
H623 H 0.32968 0.78716 0.41318 0.0
H624 H 0.17913 0.73499 0.36724 0.0
H625 H 0.13674 0.68359 0.40302 0.0
H626 H 0.2267 0.66993 0.43217 0.0
H627 H 0.2684 0.72045 0.39592 0.0
H628 H 0.19125 0.75105 0.28619 0.0
H629 H 0.13971 0.69733 0.2602 0.0
H630 H 0.18213 0.63472 0.30263 0.0
H631 H 0.2339 0.68881 0.32801 0.0
H632 H 0.25813 0.81368 0.251 0.0
H633 H 0.24455 0.79369 0.19472 0.0
H634 H 0.27444 0.71656 0.22027 0.0
H635 H 0.28873 0.7372 0.27578 0.0
H636 H 0.32334 0.88304 0.30023 0.0
H637 H 0.37025 0.92859 0.263 0.0
H638 H 0.403 0.85527 0.2426 0.0
H639 H 0.35702 0.81047 0.2807 0.0
O640 O 0.28529 0.83629 0.51949 0.0
O641 O 0.32844 0.82295 0.52227 0.0
O642 O 0.10282 0.63082 0.24598 0.0
O643 O 0.1232 0.59731 0.2675 0.0
C644 C 0.31092 0.82027 0.34861 0.0
C645 C 0.28348 0.79359 0.36956 0.0
C646 C 0.25264 0.76166 0.35686 0.0
C647 C 0.24866 0.75703 0.32304 0.0
C648 C 0.27629 0.78377 0.30217 0.0
C649 C 0.3074 0.81551 0.31489 0.0
C650 C 0.3456 0.85069 0.36289 0.0
C651 C 0.34597 0.87937 0.37593 0.0
C652 C 0.37598 0.90362 0.39568 0.0
C653 C 0.40546 0.89884 0.40324 0.0
C654 C 0.40593 0.87138 0.38828 0.0
C655 C 0.37635 0.84768 0.36804 0.0
C656 C 0.28731 0.79924 0.405 0.0
C657 C 0.26625 0.81007 0.41942 0.0
C658 C 0.27178 0.81814 0.45226 0.0
C659 C 0.29849 0.81547 0.47122 0.0
C660 C 0.31902 0.80389 0.45674 0.0
C661 C 0.31336 0.79573 0.42394 0.0
C662 C 0.22689 0.73161 0.37923 0.0
C663 C 0.18961 0.72094 0.3815 0.0
C664 C 0.16556 0.69178 0.40202 0.0
C665 C 0.17855 0.67296 0.42054 0.0
C666 C 0.21591 0.68383 0.41811 0.0
C667 C 0.23981 0.71284 0.39766 0.0
C668 C 0.21611 0.72375 0.30919 0.0
C669 C 0.18922 0.72565 0.28999 0.0
C670 C 0.15985 0.69494 0.27514 0.0
C671 C 0.15678 0.6617 0.27936 0.0
C672 C 0.18361 0.65986 0.29892 0.0
C673 C 0.21308 0.69065 0.31362 0.0
C674 C 0.27394 0.7765 0.26734 0.0
C675 C 0.26255 0.7931 0.24409 0.0
C676 C 0.25463 0.78154 0.21216 0.0
C677 C 0.25799 0.75326 0.20335 0.0
C678 C 0.27181 0.73853 0.22632 0.0
C679 C 0.27976 0.75009 0.25804 0.0
C680 C 0.33665 0.8434 0.29305 0.0
C681 C 0.34096 0.87702 0.28798 0.0
C682 C 0.36762 0.90291 0.26665 0.0
C683 C 0.39055 0.89565 0.25008 0.0
C684 C 0.38636 0.86201 0.2555 0.0
C685 C 0.35981 0.83621 0.27694 0.0
C686 C 0.30504 0.82504 0.50587 0.0
C687 C 0.12592 0.62911 0.26325 0.0
H688 H 0.54571 0.31648 0.58403 0.0
H689 H 0.46003 0.01462 0.8367 0.0
H690 H 0.56227 0.32455 0.76208 0.0
H691 H 0.56817 0.37551 0.73019 0.0
H692 H 0.44944 0.327 0.73529 0.0
H693 H 0.44374 0.27585 0.76737 0.0
H694 H 0.55921 0.27122 0.71702 0.0
H695 H 0.5643 0.29275 0.66045 0.0
H696 H 0.44767 0.25606 0.65825 0.0
H697 H 0.44293 0.23436 0.71472 0.0
H698 H 0.56036 0.20899 0.76046 0.0
H699 H 0.57326 0.17725 0.72217 0.0
H700 H 0.46443 0.1347 0.6769 0.0
H701 H 0.45164 0.1667 0.7155 0.0
H702 H 0.54795 0.19397 0.83252 0.0
H703 H 0.5464 0.13952 0.85005 0.0
H704 H 0.43843 0.07425 0.80228 0.0
H705 H 0.4401 0.1289 0.7853 0.0
H706 H 0.54707 0.25452 0.86844 0.0
H707 H 0.5493 0.23131 0.9229 0.0
H708 H 0.44076 0.13481 0.90505 0.0
H709 H 0.43728 0.15986 0.85194 0.0
H710 H 0.55845 0.31732 0.82505 0.0
H711 H 0.56896 0.35649 0.86924 0.0
H712 H 0.45567 0.28215 0.89933 0.0
H713 H 0.44489 0.24333 0.85418 0.0
O714 O 0.54292 0.30713 0.60616 0.0
O715 O 0.48246 0.2863 0.60583 0.0
O716 O 0.51685 0.07137 0.85435 0.0
O717 O 0.46139 0.0366 0.83005 0.0
C718 C 0.4982 0.26224 0.77819 0.0
C719 C 0.49821 0.24021 0.75475 0.0
C720 C 0.4978 0.20908 0.76463 0.0
C721 C 0.49461 0.19842 0.79777 0.0
C722 C 0.49344 0.21986 0.82128 0.0
C723 C 0.49636 0.25244 0.8115 0.0
C724 C 0.50263 0.2967 0.76713 0.0
C725 C 0.53776 0.32561 0.7574 0.0
C726 C 0.54105 0.35457 0.7391 0.0
C727 C 0.50918 0.35484 0.73 0.0
C728 C 0.47433 0.32712 0.74175 0.0
C729 C 0.4711 0.2982 0.76031 0.0
C730 C 0.50068 0.25111 0.71984 0.0
C731 C 0.53473 0.2675 0.70413 0.0
C732 C 0.53758 0.27993 0.67189 0.0
C733 C 0.5064 0.2762 0.65484 0.0
C734 C 0.4722 0.25934 0.67065 0.0
C735 C 0.4694 0.24688 0.70286 0.0
C736 C 0.50501 0.18992 0.74083 0.0
C737 C 0.53929 0.19278 0.7423 0.0
C738 C 0.54661 0.17471 0.72047 0.0
C739 C 0.51989 0.1537 0.69658 0.0
C740 C 0.48566 0.15115 0.69485 0.0
C741 C 0.47826 0.16918 0.71688 0.0
C742 C 0.49399 0.16535 0.80787 0.0
C743 C 0.52391 0.16787 0.82601 0.0
C744 C 0.523 0.13674 0.83591 0.0
C745 C 0.49223 0.1025 0.82762 0.0
C746 C 0.4625 0.10016 0.80913 0.0
C747 C 0.4634 0.13132 0.79934 0.0
C748 C 0.49192 0.20899 0.85619 0.0
C749 C 0.52302 0.22917 0.87686 0.0
C750 C 0.52447 0.21557 0.90783 0.0
C751 C 0.49529 0.1811 0.9184 0.0
C752 C 0.46336 0.16178 0.89819 0.0
C753 C 0.46148 0.17589 0.8676 0.0
C754 C 0.50082 0.27763 0.83622 0.0
C755 C 0.53559 0.30987 0.84065 0.0
C756 C 0.54172 0.33191 0.86618 0.0
C757 C 0.51331 0.32194 0.88798 0.0
C758 C 0.47802 0.29033 0.88286 0.0
C759 C 0.47185 0.26823 0.85717 0.0
C760 C 0.50971 0.2901 0.62081 0.0
C761 C 0.49105 0.06933 0.83819 0.0
C762 C 0.25692 0.54574 0.09153 0.0
C763 C 0.22151 0.51947 0.07926 0.0
C764 C 0.27683 0.53614 0.11294 0.0
C765 C 0.2613 0.5001 0.12413 0.0
H766 H 0.26835 0.57407 0.08612 0.0
H767 H 0.30359 0.55756 0.12239 0.0
S768 S 0.17067 0.42092 0.0955 0.0
N769 N 0.17413 0.45575 0.07525 0.0
N770 N 0.20893 0.43768 0.11847 0.0
C771 C 0.22693 0.47331 0.10991 0.0
C772 C 0.20771 0.48306 0.08678 0.0
C773 C 0.69339 0.0986 0.65464 0.0
C774 C 0.70361 0.08228 0.63313 0.0
C775 C 0.71847 0.12084 0.67872 0.0
C776 C 0.75456 0.12745 0.68202 0.0
H777 H 0.66584 0.09412 0.65275 0.0
H778 H 0.70934 0.13252 0.69519 0.0
S779 S 0.79446 0.09109 0.63094 0.0
N780 N 0.75159 0.07387 0.61615 0.0
N781 N 0.79928 0.1162 0.66129 0.0
C782 C 0.765 0.11117 0.66052 0.0
C783 C 0.73936 0.08846 0.63604 0.0
C784 C 0.64122 0.60598 0.21508 0.0
C785 C 0.65568 0.61936 0.18402 0.0
C786 C 0.64902 0.62946 0.2401 0.0
C787 C 0.67195 0.66708 0.235 0.0
H788 H 0.62273 0.5772 0.21973 0.0
H789 H 0.63647 0.61813 0.26341 0.0
S790 S 0.71862 0.71524 0.15844 0.0
N791 N 0.69544 0.67214 0.1499 0.0
N792 N 0.71 0.71646 0.19666 0.0
C793 C 0.6876 0.68066 0.20427 0.0
C794 C 0.67943 0.65674 0.17883 0.0
C795 C 0.97322 0.54782 0.64705 0.0
C796 C 0.97939 0.52017 0.65509 0.0
C797 C 0.95691 0.5579 0.6691 0.0
C798 C 0.9456 0.54015 0.69961 0.0
H799 H 0.98126 0.56185 0.62364 0.0
H800 H 0.95257 0.5793 0.66208 0.0
S801 S 0.95543 0.46599 0.73213 0.0
N802 N 0.97288 0.4753 0.69552 0.0
N803 N 0.9422 0.4941 0.7369 0.0
C804 C 0.95166 0.51253 0.70788 0.0
C805 C 0.96858 0.50259 0.68563 0.0
C806 C 0.4294 0.96203 0.17802 0.0
C807 C 0.46591 0.97023 0.1765 0.0
C808 C 0.40551 0.9385 0.20234 0.0
C809 C 0.41735 0.92237 0.22596 0.0
H810 H 0.41904 0.97326 0.15983 0.0
H811 H 0.3772 0.93208 0.20208 0.0
S812 S 0.5117 0.93772 0.23352 0.0
N813 N 0.51363 0.96218 0.20107 0.0
N814 N 0.46909 0.91834 0.24724 0.0
C815 C 0.45434 0.93138 0.22513 0.0
C816 C 0.47857 0.9553 0.20033 0.0
C817 C 0.54573 0.44447 0.68491 0.0
C818 C 0.52562 0.43393 0.65529 0.0
C819 C 0.53923 0.41884 0.70963 0.0
C820 C 0.51223 0.38197 0.70552 0.0
H821 H 0.56727 0.47257 0.68857 0.0
H822 H 0.55595 0.42778 0.73185 0.0
S823 S 0.45226 0.34119 0.63218 0.0
N824 N 0.47754 0.38488 0.62312 0.0
N825 N 0.46533 0.33641 0.66943 0.0
C826 C 0.49135 0.37135 0.67618 0.0
C827 C 0.49807 0.39746 0.65106 0.0
C828 C 0.63457 0.92276 0.44666 0.0
C829 C 0.64889 0.93146 0.47856 0.0
C830 C 0.63889 0.8992 0.42921 0.0
C831 C 0.65782 0.88356 0.44293 0.0
H832 H 0.61908 0.93352 0.43537 0.0
H833 H 0.62736 0.89322 0.40469 0.0
S834 S 0.70241 0.89926 0.52489 0.0
N835 N 0.6843 0.92403 0.52267 0.0
N836 N 0.6921 0.87933 0.48979 0.0
C837 C 0.6731 0.89271 0.47447 0.0
C838 C 0.66861 0.91667 0.49233 0.0
C839 C 0.69444 0.52431 0.98296 0.0
C840 C 0.70502 0.54765 0.00871 0.0
C841 C 0.72003 0.5308 0.95944 0.0
C842 C 0.75708 0.56095 0.96083 0.0
H843 H 0.66608 0.50107 0.98089 0.0
H844 H 0.71055 0.51238 0.93971 0.0
S845 S 0.79847 0.62925 0.02455 0.0
N846 N 0.7546 0.60135 0.03498 0.0
N847 N 0.80311 0.61363 0.99097 0.0
C848 C 0.76795 0.58429 0.98678 0.0
C849 C 0.74182 0.57757 0.01072 0.0
C850 C 0.13072 0.5801 0.46206 0.0
C851 C 0.10937 0.58206 0.48544 0.0
C852 C 0.1524 0.60941 0.44073 0.0
C853 C 0.15342 0.64163 0.44209 0.0
H854 H 0.13101 0.55592 0.4606 0.0
H855 H 0.16869 0.60692 0.42315 0.0
S856 S 0.10229 0.65979 0.49949 0.0
N857 N 0.0901 0.61806 0.50897 0.0
N858 N 0.13109 0.67351 0.46904 0.0
C859 C 0.13165 0.64357 0.4652 0.0
C860 C 0.10961 0.61368 0.4869 0.0
C861 C 0.53963 0.14818 0.98041 0.0
C862 C 0.51034 0.12533 0.00126 0.0
C863 C 0.53466 0.16677 0.95429 0.0
C864 C 0.50033 0.16364 0.94829 0.0
H865 H 0.56622 0.15072 0.98366 0.0
H866 H 0.5576 0.18271 0.93804 0.0
S867 S 0.41611 0.10972 0.99827 0.0
N868 N 0.44661 0.1017 0.01564 0.0
N869 N 0.43744 0.13789 0.96725 0.0
C870 C 0.47121 0.14181 0.96986 0.0
C871 C 0.47618 0.12237 0.99619 0.0
C872 C 0.45914 0.50875 0.44661 0.0
C873 C 0.4753 0.48892 0.45495 0.0
C874 C 0.43761 0.50241 0.41818 0.0
C875 C 0.43181 0.47644 0.39633 0.0
H876 H 0.46328 0.52964 0.4621 0.0
H877 H 0.425 0.51783 0.41357 0.0
S878 S 0.46833 0.41734 0.40641 0.0
N879 N 0.48336 0.44148 0.43932 0.0
N880 N 0.44475 0.43119 0.38464 0.0
C881 C 0.44813 0.45661 0.40407 0.0
C882 C 0.46957 0.46259 0.43352 0.0
C883 C 0.00835 0.40788 0.94006 0.0
C884 C 0.04716 0.42563 0.93726 0.0
C885 C 0.9837 0.38249 0.91767 0.0
C886 C 0.99683 0.37391 0.89146 0.0
H887 H 0.99682 0.41415 0.95936 0.0
H888 H 0.95403 0.36926 0.92109 0.0
S889 S 0.09582 0.41165 0.87382 0.0
N890 N 0.09764 0.43174 0.90699 0.0
N891 N 0.05109 0.38461 0.8642 0.0
C892 C 0.03553 0.39103 0.88853 0.0
C893 C 0.06074 0.41683 0.91152 0.0
C894 C 0.0259 0.55997 0.95081 0.0
C895 C 0.04577 0.58105 0.97752 0.0
C896 C 0.99557 0.56022 0.9369 0.0
C897 C 0.98413 0.58159 0.94924 0.0
H898 H 0.0333 0.54251 0.94117 0.0
H899 H 0.98088 0.54346 0.91633 0.0
S900 S 0.02783 0.64184 0.01889 0.0
N901 N 0.05284 0.62412 0.01571 0.0
N902 N 0.99557 0.62469 0.98958 0.0
C903 C 0.00442 0.60339 0.9756 0.0
C904 C 0.03532 0.60306 0.98977 0.0
C905 C 0.49972 0.9512 0.44678 0.0
C906 C 0.49102 0.95789 0.47674 0.0
C907 C 0.4721 0.93323 0.42274 0.0
C908 C 0.43463 0.92073 0.42803 0.0
H909 H 0.52813 0.95986 0.44198 0.0
H910 H 0.48013 0.92881 0.39994 0.0
S911 S 0.3977 0.93118 0.50304 0.0
N912 N 0.44304 0.95187 0.51037 0.0
N913 N 0.39032 0.91562 0.46615 0.0
C914 C 0.42566 0.92736 0.45804 0.0
C915 C 0.45404 0.94648 0.48218 0.0
C916 C 0.50626 0.37921 0.94859 0.0
C917 C 0.53745 0.38977 0.96937 0.0
C918 C 0.49804 0.35654 0.92272 0.0
C919 C 0.52103 0.3441 0.91651 0.0
H920 H 0.48816 0.38863 0.95231 0.0
H921 H 0.47405 0.3494 0.90702 0.0
S922 S 0.60554 0.36334 0.96408 0.0
N923 N 0.59118 0.3858 0.9821 0.0
N924 N 0.57541 0.34283 0.93386 0.0
C925 C 0.55192 0.354 0.9374 0.0
C926 C 0.5602 0.3769 0.96374 0.0
C927 C 0.1156 0.4478 0.41565 0.0
C928 C 0.1188 0.43541 0.44702 0.0
C929 C 0.1352 0.44723 0.38977 0.0
C930 C 0.1581 0.43364 0.39424 0.0
H931 H 0.09882 0.45915 0.41132 0.0
H932 H 0.1328 0.45789 0.36619 0.0
S933 S 0.17508 0.39698 0.47119 0.0
N934 N 0.14601 0.40839 0.48083 0.0
N935 N 0.18258 0.40708 0.43209 0.0
C936 C 0.16082 0.42034 0.42523 0.0
C937 C 0.14127 0.42133 0.45165 0.0
C938 C 0.67003 0.12943 0.99645 0.0
C939 C 0.66222 0.09724 0.01227 0.0
C940 C 0.69646 0.14591 0.97206 0.0
C941 C 0.71575 0.13056 0.96234 0.0
H942 H 0.65519 0.14165 0.00268 0.0
H943 H 0.70164 0.17077 0.96059 0.0
S944 S 0.70469 0.04601 0.99657 0.0
N945 N 0.67598 0.05088 0.01743 0.0
N946 N 0.72457 0.08081 0.97059 0.0
C947 C 0.70831 0.09844 0.97836 0.0
C948 C 0.68176 0.08201 0.00351 0.0
C949 C 0.65759 0.6781 0.50171 0.0
C950 C 0.62921 0.64134 0.50138 0.0
C951 C 0.66541 0.70017 0.47364 0.0
C952 C 0.64502 0.68611 0.44442 0.0
H953 H 0.67385 0.68975 0.52375 0.0
H954 H 0.68727 0.72852 0.4749 0.0
S955 S 0.56861 0.59082 0.43139 0.0
N956 N 0.58114 0.59145 0.46997 0.0
N957 N 0.59584 0.63262 0.41698 0.0
C958 C 0.61663 0.64917 0.44397 0.0
C959 C 0.60877 0.62684 0.47253 0.0
C960 C 0.54912 0.09365 0.66691 0.0
C961 C 0.54612 0.09661 0.63298 0.0
C962 C 0.54022 0.11196 0.6872 0.0
C963 C 0.52772 0.13371 0.67433 0.0
H964 H 0.55904 0.0775 0.67789 0.0
H965 H 0.54313 0.10905 0.71321 0.0
S966 S 0.51428 0.14984 0.58718 0.0
N967 N 0.52906 0.12235 0.58736 0.0
N968 N 0.51257 0.15712 0.62563 0.0
C969 C 0.52414 0.13661 0.64048 0.0
C970 C 0.53341 0.11808 0.61976 0.0
C971 C 0.46133 0.44196 0.15771 0.0
C972 C 0.49145 0.47508 0.146 0.0
C973 C 0.43575 0.44044 0.17863 0.0
C974 C 0.43782 0.47191 0.18732 0.0
H975 H 0.45719 0.41692 0.15036 0.0
H976 H 0.41397 0.41411 0.18773 0.0
S977 S 0.511 0.56563 0.16076 0.0
N978 N 0.52293 0.54016 0.14482 0.0
N979 N 0.47234 0.53753 0.18039 0.0
C980 C 0.46774 0.50534 0.17504 0.0
C981 C 0.49491 0.50683 0.15517 0.0
C982 C 0.96292 0.33238 0.63366 0.0
C983 C 0.98419 0.37022 0.63508 0.0
C984 C 0.94405 0.31049 0.66091 0.0
C985 C 0.94644 0.32568 0.6907 0.0
H986 H 0.9608 0.31963 0.61133 0.0
H987 H 0.92708 0.28151 0.65851 0.0
S988 S 0.004 0.423 0.70843 0.0
N989 N 0.00923 0.42176 0.66934 0.0
N990 N 0.97562 0.38068 0.72089 0.0
C991 C 0.96923 0.3634 0.69279 0.0
C992 C 0.98775 0.38562 0.66496 0.0
C993 C 0.63993 0.94207 0.14662 0.0
C994 C 0.62415 0.95709 0.16359 0.0
C995 C 0.65355 0.92282 0.16307 0.0
C996 C 0.65201 0.9183 0.19694 0.0
H997 H 0.64179 0.94524 0.12046 0.0
H998 H 0.66502 0.91116 0.14929 0.0
S999 S 0.61213 0.95046 0.25261 0.0
N1000 N 0.60662 0.96463 0.21622 0.0
N1001 N 0.6331 0.92918 0.24696 0.0
C1002 C 0.63653 0.93312 0.21421 0.0
C1003 C 0.62241 0.95241 0.19758 0.0
C1004 C 0.66648 0.57613 0.73363 0.0
C1005 C 0.68272 0.59408 0.70416 0.0
C1006 C 0.68877 0.57915 0.76096 0.0
C1007 C 0.72797 0.60041 0.7597 0.0
H1008 H 0.63649 0.55787 0.73496 0.0
H1009 H 0.67529 0.56335 0.78272 0.0
S1010 S 0.78343 0.65645 0.68895 0.0
N1011 N 0.73963 0.63661 0.676 0.0
N1012 N 0.78176 0.64216 0.72697 0.0
C1013 C 0.74431 0.62052 0.73088 0.0
C1014 C 0.7216 0.61732 0.70317 0.0
C1015 C 0.24797 0.70351 0.12828 0.0
C1016 C 0.21016 0.6879 0.1194 0.0
C1017 C 0.26423 0.72704 0.15406 0.0
C1018 C 0.24326 0.73581 0.17179 0.0
H1019 H 0.26451 0.69574 0.11663 0.0
H1020 H 0.29287 0.73695 0.16128 0.0
S1021 S 0.14457 0.70585 0.15533 0.0
N1022 N 0.15347 0.68625 0.12768 0.0
N1023 N 0.18365 0.7295 0.17691 0.0
C1024 C 0.20622 0.72246 0.16164 0.0
C1025 C 0.18973 0.69867 0.13528 0.0
loop_
_geom_bond_atom_site_label_1
_geom_bond_atom_site_label_2
_geom_bond_distance
_geom_bond_site_symmetry_2
_ccdc_geom_bond_type
C0 C1 1.443 . S
C0 N4 1.392 . S
C0 C38 1.389 . S
C1 C0 1.443 . S
C1 C2 1.340 1_556 S
C1 H41 0.951 . S
C2 C1 1.340 1_554 S
C2 C3 1.439 . S
C2 H42 0.950 . S
C3 C2 1.439 . S
C3 N4 1.360 1_554 S
C3 C37 1.395 . S
N4 C0 1.392 . S
N4 C3 1.360 1_556 S
N4 Co5 2.009 1_556 S
Co5 N4 2.009 1_554 S
Co5 N6 1.998 . S
Co5 N11 2.008 . S
Co5 N16 1.991 1_554 S
Co5 N21 2.286 . S
Co5 N27 2.279 1_554 S
N6 Co5 1.998 . S
N6 C7 1.376 . S
N6 C10 1.383 . S
C7 N6 1.376 . S
C7 C8 1.446 . S
C7 C37 1.391 . S
C8 C7 1.446 . S
C8 C9 1.339 . S
C8 H43 0.949 . S
C9 C8 1.339 . S
C9 C10 1.439 . S
C9 H44 0.950 . S
C10 N6 1.383 . S
C10 C9 1.439 . S
C10 C39 1.392 . S
N11 Co5 2.008 . S
N11 C12 1.376 . S
N11 C15 1.374 1_554 S
C12 N11 1.376 . S
C12 C13 1.443 . S
C12 C39 1.389 . S
C13 C12 1.443 . S
C13 C14 1.340 1_554 S
C13 H45 0.951 . S
C14 C13 1.340 1_556 S
C14 C15 1.439 . S
C14 H46 0.950 . S
C15 N11 1.374 1_556 S
C15 C14 1.439 . S
C15 C40 1.395 . S
N16 Co5 1.991 1_556 S
N16 C17 1.376 . S
N16 C20 1.383 . S
C17 N16 1.376 . S
C17 C18 1.446 . S
C17 C40 1.391 . S
C18 C17 1.446 . S
C18 C19 1.339 . S
C18 H47 0.949 . S
C19 C18 1.339 . S
C19 C20 1.439 . S
C19 H48 0.950 . S
C20 N16 1.383 . S
C20 C19 1.439 . S
C20 C38 1.392 . S
N21 Co5 2.286 . S
N21 C24 1.332 . S
N21 C26 1.332 . S
C22 C23 1.386 . S
C22 C25 1.388 . S
C23 C22 1.386 . S
C23 C24 1.382 . S
C23 H49 0.950 . S
C24 N21 1.332 . S
C24 C23 1.382 . S
C24 H35 0.952 . S
C25 C22 1.388 . S
C25 C26 1.382 . S
C25 H50 0.950 . S
C26 N21 1.332 . S
C26 C25 1.382 . S
C26 H36 0.948 . S
N27 Co5 2.279 1_556 S
N27 C31 1.332 . S
N27 C32 1.332 . S
C28 C29 1.388 . S
C28 C32 1.382 . S
C28 H51 0.950 . S
C29 C28 1.388 . S
C29 C30 1.386 . S
C30 C29 1.386 . S
C30 C31 1.382 . S
C30 H52 0.950 . S
C31 N27 1.332 . S
C31 C30 1.382 . S
C31 H33 0.952 . S
C32 N27 1.332 . S
C32 C28 1.382 . S
C32 H34 0.948 . S
H33 C31 0.952 . S
H34 C32 0.948 . S
H35 C24 0.952 . S
H36 C26 0.948 . S
C37 C3 1.395 . S
C37 C7 1.391 . S
C38 C0 1.389 . S
C38 C20 1.392 . S
C39 C10 1.392 . S
C39 C12 1.389 . S
C40 C15 1.395 . S
C40 C17 1.391 . S
H41 C1 0.951 . S
H42 C2 0.950 . S
H43 C8 0.949 . S
H44 C9 0.950 . S
H45 C13 0.951 . S
H46 C14 0.950 . S
H47 C18 0.949 . S
H48 C19 0.950 . S
H49 C23 0.950 . S
H50 C25 0.950 . S
H51 C28 0.950 . S
H52 C30 0.950 . S
C53 C54 1.443 . S
C53 N57 1.376 1_545 S
C53 C91 1.389 . S
C54 C53 1.443 . S
C54 C55 1.340 1_545 S
C54 H94 0.951 . S
C55 C54 1.340 1_565 S
C55 C56 1.439 . S
C55 H95 0.950 . S
C56 C55 1.439 . S
C56 N57 1.374 . S
C56 C90 1.395 . S
N57 C53 1.376 1_565 S
N57 C56 1.374 . S
N57 Co58 2.008 1_565 S
Co58 N57 2.008 1_545 S
Co58 N59 1.995 1_545 S
Co58 N64 2.008 . S
Co58 N69 1.995 . S
Co58 N74 2.282 1_545 S
Co58 N80 2.282 . S
N59 Co58 1.995 1_565 S
N59 C60 1.376 . S
N59 C63 1.383 . S
C60 N59 1.376 . S
C60 C61 1.446 . S
C60 C90 1.391 . S
C61 C60 1.446 . S
C61 C62 1.339 . S
C61 H96 0.949 . S
C62 C61 1.339 . S
C62 C63 1.439 . S
C62 H97 0.950 . S
C63 N59 1.383 . S
C63 C62 1.439 . S
C63 C92 1.392 . S
N64 Co58 2.008 . S
N64 C65 1.376 1_545 S
N64 C68 1.374 . S
C65 N64 1.376 1_565 S
C65 C66 1.443 1_565 S
C65 C92 1.389 . S
C66 C65 1.443 1_545 S
C66 C67 1.340 . S
C66 H98 0.951 . S
C67 C66 1.340 . S
C67 C68 1.439 . S
C67 H99 0.950 . S
C68 N64 1.374 . S
C68 C67 1.439 . S
C68 C93 1.395 . S
N69 Co58 1.995 . S
N69 C70 1.376 . S
N69 C73 1.383 . S
C70 N69 1.376 . S
C70 C71 1.446 . S
C70 C93 1.391 . S
C71 C70 1.446 . S
C71 C72 1.339 . S
C71 H100 0.949 . S
C72 C71 1.339 . S
C72 C73 1.439 . S
C72 H101 0.950 . S
C73 N69 1.383 . S
C73 C72 1.439 . S
C73 C91 1.392 . S
N74 Co58 2.282 1_565 S
N74 C77 1.332 . S
N74 C79 1.332 . S
C75 C76 1.386 . S
C75 C78 1.388 . S
C76 C75 1.386 . S
C76 C77 1.382 . S
C76 H102 0.950 . S
C77 N74 1.332 . S
C77 C76 1.382 . S
C77 H88 0.952 1_565 S
C78 C75 1.388 . S
C78 C79 1.382 . S
C78 H103 0.950 . S
C79 N74 1.332 . S
C79 C78 1.382 . S
C79 H89 0.948 . S
N80 Co58 2.282 . S
N80 C84 1.332 . S
N80 C85 1.332 . S
C81 C82 1.388 . S
C81 C85 1.382 . S
C81 H104 0.950 . S
C82 C81 1.388 . S
C82 C83 1.386 . S
C83 C82 1.386 . S
C83 C84 1.382 . S
C83 H105 0.950 . S
C84 N80 1.332 . S
C84 C83 1.382 . S
C84 H86 0.952 1_545 S
C85 N80 1.332 . S
C85 C81 1.382 . S
C85 H87 0.948 . S
H86 C84 0.952 1_565 S
H87 C85 0.948 . S
H88 C77 0.952 1_545 S
H89 C79 0.948 . S
C90 C56 1.395 . S
C90 C60 1.391 . S
C91 C53 1.389 . S
C91 C73 1.392 . S
C92 C63 1.392 . S
C92 C65 1.389 . S
C93 C68 1.395 . S
C93 C70 1.391 . S
H94 C54 0.951 . S
H95 C55 0.950 . S
H96 C61 0.949 . S
H97 C62 0.950 . S
H98 C66 0.951 . S
H99 C67 0.950 . S
H100 C71 0.949 . S
H101 C72 0.950 . S
H102 C76 0.950 . S
H103 C78 0.950 . S
H104 C81 0.950 . S
H105 C83 0.950 . S
C106 C107 1.443 . S
C106 N110 1.376 . S
C106 C144 1.389 . S
C107 C106 1.443 . S
C107 C108 1.340 . S
C107 H147 0.951 1_554 S
C108 C107 1.340 . S
C108 C109 1.439 . S
C108 H148 0.950 1_554 S
C109 C108 1.439 . S
C109 N110 1.374 . S
C109 C143 1.395 . S
N110 C106 1.376 . S
N110 C109 1.374 . S
N110 Co111 2.008 . S
Co111 N110 2.008 . S
Co111 N112 1.995 . S
Co111 N117 2.008 . S
Co111 N122 1.995 . S
Co111 N127 2.282 . S
Co111 N133 2.282 . S
N112 Co111 1.995 . S
N112 C113 1.376 . S
N112 C116 1.383 . S
C113 N112 1.376 . S
C113 C114 1.446 . S
C113 C143 1.391 . S
C114 C113 1.446 . S
C114 C115 1.339 . S
C114 H149 0.949 . S
C115 C114 1.339 . S
C115 C116 1.439 . S
C115 H150 0.950 . S
C116 N112 1.383 . S
C116 C115 1.439 . S
C116 C145 1.392 . S
N117 Co111 2.008 . S
N117 C118 1.376 . S
N117 C121 1.374 . S
C118 N117 1.376 . S
C118 C119 1.443 . S
C118 C145 1.389 . S
C119 C118 1.443 . S
C119 C120 1.340 . S
C119 H151 0.951 . S
C120 C119 1.340 . S
C120 C121 1.439 . S
C120 H152 0.950 . S
C121 N117 1.374 . S
C121 C120 1.439 . S
C121 C146 1.395 . S
N122 Co111 1.995 . S
N122 C123 1.376 . S
N122 C126 1.383 . S
C123 N122 1.376 . S
C123 C124 1.446 . S
C123 C146 1.391 . S
C124 C123 1.446 . S
C124 C125 1.339 . S
C124 H153 0.949 . S
C125 C124 1.339 . S
C125 C126 1.439 . S
C125 H154 0.950 . S
C126 N122 1.383 . S
C126 C125 1.439 . S
C126 C144 1.392 . S
N127 Co111 2.282 . S
N127 C130 1.332 . S
N127 C132 1.332 . S
C128 C129 1.386 . S
C128 C131 1.388 . S
C129 C128 1.386 . S
C129 C130 1.382 . S
C129 H155 0.950 . S
C130 N127 1.332 . S
C130 C129 1.382 . S
C130 H141 0.952 . S
C131 C128 1.388 . S
C131 C132 1.382 . S
C131 H156 0.950 . S
C132 N127 1.332 . S
C132 C131 1.382 . S
C132 H142 0.948 . S
N133 Co111 2.282 . S
N133 C137 1.332 . S
N133 C138 1.332 . S
C134 C135 1.388 . S
C134 C138 1.382 . S
C134 H157 0.950 . S
C135 C134 1.388 . S
C135 C136 1.386 . S
C136 C135 1.386 . S
C136 C137 1.382 . S
C136 H158 0.936 1_554 S
C137 N133 1.332 . S
C137 C136 1.382 . S
C137 H139 0.952 . S
C138 N133 1.332 . S
C138 C134 1.382 . S
C138 H140 0.948 . S
H139 C137 0.952 . S
H140 C138 0.948 . S
H141 C130 0.952 . S
H142 C132 0.948 . S
C143 C109 1.395 . S
C143 C113 1.391 . S
C144 C106 1.389 . S
C144 C126 1.392 . S
C145 C116 1.392 . S
C145 C118 1.389 . S
C146 C121 1.395 . S
C146 C123 1.391 . S
H147 C107 0.951 1_556 S
H148 C108 0.950 1_556 S
H149 C114 0.949 . S
H150 C115 0.950 . S
H151 C119 0.951 . S
H152 C120 0.950 . S
H153 C124 0.949 . S
H154 C125 0.950 . S
H155 C129 0.950 . S
H156 C131 0.950 . S
H157 C134 0.950 . S
H158 C136 0.936 1_556 S
C159 C160 1.443 . S
C159 N163 1.376 . S
C159 C197 1.389 . S
C160 C159 1.443 . S
C160 C161 1.340 . S
C160 H200 0.951 . S
C161 C160 1.340 . S
C161 C162 1.439 . S
C161 H201 0.950 . S
C162 C161 1.439 . S
C162 N163 1.374 . S
C162 C196 1.395 . S
N163 C159 1.376 . S
N163 C162 1.374 . S
N163 Co164 2.008 1_655 S
Co164 N163 2.008 1_455 S
Co164 N165 1.995 1_455 S
Co164 N170 2.008 . S
Co164 N175 1.995 . S
Co164 N180 2.282 . S
Co164 N186 2.282 1_455 S
N165 Co164 1.995 1_655 S
N165 C166 1.376 . S
N165 C169 1.383 1_655 S
C166 N165 1.376 . S
C166 C167 1.446 . S
C166 C196 1.391 . S
C167 C166 1.446 . S
C167 C168 1.339 . S
C167 H202 0.949 . S
C168 C167 1.339 . S
C168 C169 1.439 1_655 S
C168 H203 0.949 1_655 S
C169 N165 1.383 1_455 S
C169 C168 1.439 1_455 S
C169 C198 1.392 . S
N170 Co164 2.008 . S
N170 C171 1.376 . S
N170 C174 1.374 . S
C171 N170 1.376 . S
C171 C172 1.443 . S
C171 C198 1.389 . S
C172 C171 1.443 . S
C172 C173 1.340 . S
C172 H204 0.951 . S
C173 C172 1.340 . S
C173 C174 1.439 . S
C173 H205 0.950 . S
C174 N170 1.374 . S
C174 C173 1.439 . S
C174 C199 1.395 . S
N175 Co164 1.995 . S
N175 C176 1.376 . S
N175 C179 1.383 1_455 S
C176 N175 1.376 . S
C176 C177 1.446 . S
C176 C199 1.391 . S
C177 C176 1.446 . S
C177 C178 1.339 . S
C177 H206 0.949 . S
C178 C177 1.339 . S
C178 C179 1.439 1_455 S
C178 H207 0.950 . S
C179 N175 1.383 1_655 S
C179 C178 1.439 1_655 S
C179 C197 1.392 . S
N180 Co164 2.282 . S
N180 C183 1.332 . S
N180 C185 1.332 . S
C181 C182 1.386 . S
C181 C184 1.388 . S
C182 C181 1.386 . S
C182 C183 1.382 . S
C182 H208 0.950 . S
C183 N180 1.332 . S
C183 C182 1.382 . S
C183 H194 0.952 . S
C184 C181 1.388 . S
C184 C185 1.382 . S
C184 H209 0.950 . S
C185 N180 1.332 . S
C185 C184 1.382 . S
C185 H195 0.948 1_455 S
N186 Co164 2.282 1_655 S
N186 C190 1.332 . S
N186 C191 1.332 . S
C187 C188 1.388 . S
C187 C191 1.382 . S
C187 H210 0.950 . S
C188 C187 1.388 . S
C188 C189 1.386 . S
C189 C188 1.386 . S
C189 C190 1.382 . S
C189 H211 0.950 . S
C190 N186 1.332 . S
C190 C189 1.382 . S
C190 H192 0.952 . S
C191 N186 1.332 . S
C191 C187 1.382 . S
C191 H193 0.948 1_655 S
H192 C190 0.952 . S
H193 C191 0.948 1_455 S
H194 C183 0.952 . S
H195 C185 0.948 1_655 S
C196 C162 1.395 . S
C196 C166 1.391 . S
C197 C159 1.389 . S
C197 C179 1.392 . S
C198 C169 1.392 . S
C198 C171 1.389 . S
C199 C174 1.395 . S
C199 C176 1.391 . S
H200 C160 0.951 . S
H201 C161 0.950 . S
H202 C167 0.949 . S
H203 C168 0.949 1_455 S
H204 C172 0.951 . S
H205 C173 0.950 . S
H206 C177 0.949 . S
H207 C178 0.950 . S
H208 C182 0.950 . S
H209 C184 0.950 . S
H210 C187 0.950 . S
H211 C189 0.950 . S
C212 C213 1.443 . S
C212 N216 1.376 . S
C212 C250 1.389 . S
C213 C212 1.443 . S
C213 C214 1.340 . S
C213 H253 0.951 . S
C214 C213 1.340 . S
C214 C215 1.439 . S
C214 H254 0.950 . S
C215 C214 1.439 . S
C215 N216 1.374 . S
C215 C249 1.395 . S
N216 C212 1.376 . S
N216 C215 1.374 . S
N216 Co217 2.008 . S
Co217 N216 2.008 . S
Co217 N218 1.995 . S
Co217 N223 2.008 . S
Co217 N228 1.995 . S
Co217 N233 2.282 . S
Co217 N239 2.282 . S
N218 Co217 1.995 . S
N218 C219 1.376 . S
N218 C222 1.383 . S
C219 N218 1.376 . S
C219 C220 1.446 . S
C219 C249 1.391 . S
C220 C219 1.446 . S
C220 C221 1.339 . S
C220 H255 0.949 . S
C221 C220 1.339 . S
C221 C222 1.439 . S
C221 H256 0.950 . S
C222 N218 1.383 . S
C222 C221 1.439 . S
C222 C251 1.392 . S
N223 Co217 2.008 . S
N223 C224 1.376 . S
N223 C227 1.374 . S
C224 N223 1.376 . S
C224 C225 1.435 1_554 S
C224 C251 1.389 . S
C225 C224 1.435 1_556 S
C225 C226 1.339 1_556 S
C225 H257 0.959 . S
C226 C225 1.339 1_554 S
C226 C227 1.439 . S
C226 H258 0.950 1_544 S
C227 N223 1.374 . S
C227 C226 1.439 . S
C227 C252 1.395 1_545 S
N228 Co217 1.995 . S
N228 C229 1.376 1_545 S
N228 C232 1.383 1_545 S
C229 N228 1.376 1_565 S
C229 C230 1.446 . S
C229 C252 1.391 . S
C230 C229 1.446 . S
C230 C231 1.339 . S
C230 H259 0.949 . S
C231 C230 1.339 . S
C231 C232 1.439 . S
C231 H260 0.950 . S
C232 N228 1.383 1_565 S
C232 C231 1.439 . S
C232 C250 1.392 1_565 S
N233 Co217 2.282 . S
N233 C236 1.332 . S
N233 C238 1.332 . S
C234 C235 1.386 . S
C234 C237 1.388 . S
C235 C234 1.386 . S
C235 C236 1.382 . S
C235 H261 0.950 1_554 S
C236 N233 1.332 . S
C236 C235 1.382 . S
C236 H247 0.952 . S
C237 C234 1.388 . S
C237 C238 1.382 . S
C237 H262 0.950 . S
C238 N233 1.332 . S
C238 C237 1.382 . S
C238 H248 0.948 . S
N239 Co217 2.282 . S
N239 C243 1.332 . S
N239 C244 1.332 1_545 S
C240 C241 1.388 . S
C240 C244 1.382 . S
C240 H263 0.950 . S
C241 C240 1.388 . S
C241 C242 1.386 1_565 S
C242 C241 1.386 1_545 S
C242 C243 1.382 . S
C242 H264 0.950 . S
C243 N239 1.332 . S
C243 C242 1.382 . S
C243 H245 0.952 . S
C244 N239 1.332 1_565 S
C244 C240 1.382 . S
C244 H246 0.948 . S
H245 C243 0.952 . S
H246 C244 0.948 . S
H247 C236 0.952 . S
H248 C238 0.948 . S
C249 C215 1.395 . S
C249 C219 1.391 . S
C250 C212 1.389 . S
C250 C232 1.392 1_545 S
C251 C222 1.392 . S
C251 C224 1.389 . S
C252 C227 1.395 1_565 S
C252 C229 1.391 . S
H253 C213 0.951 . S
H254 C214 0.950 . S
H255 C220 0.949 . S
H256 C221 0.950 . S
H257 C225 0.959 . S
H258 C226 0.950 1_566 S
H259 C230 0.949 . S
H260 C231 0.950 . S
H261 C235 0.950 1_556 S
H262 C237 0.950 . S
H263 C240 0.950 . S
H264 C242 0.950 . S
C265 C266 1.443 . S
C265 N269 1.376 . S
C265 C303 1.389 . S
C266 C265 1.443 . S
C266 C267 1.340 . S
C266 H306 0.951 . S
C267 C266 1.340 . S
C267 C268 1.439 . S
C267 H307 0.950 . S
C268 C267 1.439 . S
C268 N269 1.374 . S
C268 C302 1.395 . S
N269 C265 1.376 . S
N269 C268 1.374 . S
N269 Co270 2.008 . S
Co270 N269 2.008 . S
Co270 N271 1.995 . S
Co270 N276 2.008 . S
Co270 N281 1.995 . S
Co270 N286 2.282 . S
Co270 N292 2.282 . S
N271 Co270 1.995 . S
N271 C272 1.376 . S
N271 C275 1.383 . S
C272 N271 1.376 . S
C272 C273 1.446 . S
C272 C302 1.391 . S
C273 C272 1.446 . S
C273 C274 1.339 . S
C273 H308 0.949 . S
C274 C273 1.339 . S
C274 C275 1.439 . S
C274 H309 0.950 . S
C275 N271 1.383 . S
C275 C274 1.439 . S
C275 C304 1.392 . S
N276 Co270 2.008 . S
N276 C277 1.376 . S
N276 C280 1.374 . S
C277 N276 1.376 . S
C277 C278 1.443 . S
C277 C304 1.389 . S
C278 C277 1.443 . S
C278 C279 1.340 . S
C278 H310 0.951 . S
C279 C278 1.340 . S
C279 C280 1.439 . S
C279 H311 0.950 . S
C280 N276 1.374 . S
C280 C279 1.439 . S
C280 C305 1.395 . S
N281 Co270 1.995 . S
N281 C282 1.376 . S
N281 C285 1.383 . S
C282 N281 1.376 . S
C282 C283 1.446 . S
C282 C305 1.391 . S
C283 C282 1.446 . S
C283 C284 1.339 . S
C283 H312 0.949 . S
C284 C283 1.339 . S
C284 C285 1.439 . S
C284 H313 0.950 . S
C285 N281 1.383 . S
C285 C284 1.439 . S
C285 C303 1.392 . S
N286 Co270 2.282 . S
N286 C289 1.332 . S
N286 C291 1.332 . S
C287 C288 1.386 . S
C287 C290 1.388 . S
C288 C287 1.386 . S
C288 C289 1.382 . S
C288 H314 0.950 . S
C289 N286 1.332 . S
C289 C288 1.382 . S
C289 H300 0.952 . S
C290 C287 1.388 . S
C290 C291 1.382 . S
C290 H315 0.950 . S
C291 N286 1.332 . S
C291 C290 1.382 . S
C291 H301 0.948 . S
N292 Co270 2.282 . S
N292 C296 1.332 . S
N292 C297 1.332 . S
C293 C294 1.388 . S
C293 C297 1.382 . S
C293 H316 0.950 . S
C294 C293 1.388 . S
C294 C295 1.386 . S
C295 C294 1.386 . S
C295 C296 1.382 . S
C295 H317 0.950 . S
C296 N292 1.332 . S
C296 C295 1.382 . S
C296 H298 0.952 . S
C297 N292 1.332 . S
C297 C293 1.382 . S
C297 H299 0.948 . S
H298 C296 0.952 . S
H299 C297 0.948 . S
H300 C289 0.952 . S
H301 C291 0.948 . S
C302 C268 1.395 . S
C302 C272 1.391 . S
C303 C265 1.389 . S
C303 C285 1.392 . S
C304 C275 1.392 . S
C304 C277 1.389 . S
C305 C280 1.395 . S
C305 C282 1.391 . S
H306 C266 0.951 . S
H307 C267 0.950 . S
H308 C273 0.949 . S
H309 C274 0.950 . S
H310 C278 0.951 . S
H311 C279 0.950 . S
H312 C283 0.949 . S
H313 C284 0.950 . S
H314 C288 0.950 . S
H315 C290 0.950 . S
H316 C293 0.950 . S
H317 C295 0.950 . S
H318 O344 0.856 . S
H319 O347 0.854 . S
H320 C355 0.930 . S
H321 C356 0.930 . S
H322 C358 0.930 . S
H323 C359 0.930 . S
H324 C361 0.931 . S
H325 C362 0.930 . S
H326 C364 0.930 . S
H327 C365 0.929 . S
H328 C367 0.930 . S
H329 C368 0.931 . S
H330 C370 0.930 . S
H331 C371 0.929 . S
H332 C373 0.931 . S
H333 C374 0.930 . S
H334 C376 0.930 . S
H335 C377 0.932 . S
H336 C379 0.930 . S
H337 C380 0.929 . S
H338 C382 0.931 . S
H339 C383 0.930 . S
H340 C385 0.929 . S
H341 C386 0.931 . S
H342 C388 0.930 . S
H343 C389 0.929 . S
O344 H318 0.856 . S
O344 C390 1.300 . S
O345 C390 1.209 . S
O346 C391 1.199 . S
O347 H319 0.854 . S
O347 C391 1.297 . S
C348 C349 1.404 . S
C348 C353 1.397 . S
C348 C354 1.492 . S
C349 C348 1.404 . S
C349 C350 1.396 . S
C349 C360 1.492 . S
C350 C349 1.396 . S
C350 C351 1.397 . S
C350 C366 1.509 . S
C351 C350 1.397 . S
C351 C352 1.412 . S
C351 C372 1.485 . S
C352 C351 1.412 . S
C352 C353 1.388 . S
C352 C378 1.490 . S
C353 C348 1.397 . S
C353 C352 1.388 . S
C353 C384 1.519 . S
C354 C348 1.492 . S
C354 C355 1.363 . S
C354 C359 1.390 . S
C355 H320 0.930 . S
C355 C354 1.363 . S
C355 C356 1.372 . S
C356 H321 0.930 . S
C356 C355 1.372 . S
C356 C357 1.383 . S
C357 C356 1.383 . S
C357 C358 1.395 . S
C358 H322 0.930 . S
C358 C357 1.395 . S
C358 C359 1.362 . S
C359 H323 0.930 . S
C359 C354 1.390 . S
C359 C358 1.362 . S
C360 C349 1.492 . S
C360 C361 1.377 . S
C360 C365 1.397 . S
C361 H324 0.931 . S
C361 C360 1.377 . S
C361 C362 1.376 . S
C362 H325 0.930 . S
C362 C361 1.376 . S
C362 C363 1.376 . S
C363 C362 1.376 . S
C363 C364 1.378 . S
C363 C390 1.486 . S
C364 H326 0.930 . S
C364 C363 1.378 . S
C364 C365 1.376 . S
C365 H327 0.929 . S
C365 C360 1.397 . S
C365 C364 1.376 . S
C366 C350 1.509 . S
C366 C367 1.391 . S
C366 C371 1.386 . S
C367 H328 0.930 . S
C367 C366 1.391 . S
C367 C368 1.375 . S
C368 H329 0.931 . S
C368 C367 1.375 . S
C368 C369 1.375 . S
C369 C368 1.375 . S
C369 C370 1.361 . S
C370 H330 0.930 . S
C370 C369 1.361 . S
C370 C371 1.399 . S
C371 H331 0.929 . S
C371 C366 1.386 . S
C371 C370 1.399 . S
C372 C351 1.485 . S
C372 C373 1.394 . S
C372 C377 1.360 . S
C373 H332 0.931 . S
C373 C372 1.394 . S
C373 C374 1.372 . S
C374 H333 0.930 . S
C374 C373 1.372 . S
C374 C375 1.397 . S
C375 C374 1.397 . S
C375 C376 1.390 . S
C375 C391 1.476 . S
C376 H334 0.930 . S
C376 C375 1.390 . S
C376 C377 1.366 . S
C377 H335 0.932 . S
C377 C372 1.360 . S
C377 C376 1.366 . S
C378 C352 1.490 . S
C378 C379 1.380 . S
C378 C383 1.386 . S
C379 H336 0.930 . S
C379 C378 1.380 . S
C379 C380 1.381 . S
C380 H337 0.929 . S
C380 C379 1.381 . S
C380 C381 1.371 . S
C381 C380 1.371 . S
C381 C382 1.380 . S
C382 H338 0.931 . S
C382 C381 1.380 . S
C382 C383 1.387 . S
C383 H339 0.930 . S
C383 C378 1.386 . S
C383 C382 1.387 . S
C384 C353 1.519 . S
C384 C385 1.377 . S
C384 C389 1.361 . S
C385 H340 0.929 . S
C385 C384 1.377 . S
C385 C386 1.386 . S
C386 H341 0.931 . S
C386 C385 1.386 . S
C386 C387 1.363 . S
C387 C386 1.363 . S
C387 C388 1.385 . S
C388 H342 0.930 . S
C388 C387 1.385 . S
C388 C389 1.396 . S
C389 H343 0.929 . S
C389 C384 1.361 . S
C389 C388 1.396 . S
C390 O344 1.300 . S
C390 O345 1.209 . S
C390 C363 1.486 . S
C391 O346 1.199 . S
C391 O347 1.297 . S
C391 C375 1.476 . S
H392 O418 0.856 . S
H393 O421 0.854 . S
H394 C429 0.930 . S
H395 C430 0.930 . S
H396 C432 0.930 1_455 S
H397 C433 0.930 . S
H398 C435 0.931 . S
H399 C436 0.930 . S
H400 C438 0.930 . S
H401 C439 0.929 . S
H402 C441 0.930 . S
H403 C442 0.931 . S
H404 C444 0.930 . S
H405 C445 0.929 . S
H406 C447 0.931 . S
H407 C448 0.930 . S
H408 C450 0.930 . S
H409 C451 0.932 . S
H410 C453 0.930 . S
H411 C454 0.929 . S
H412 C456 0.931 . S
H413 C457 0.930 . S
H414 C459 0.929 . S
H415 C460 0.931 . S
H416 C462 0.930 . S
H417 C463 0.929 . S
O418 H392 0.856 . S
O418 C464 1.300 1_554 S
O419 C464 1.209 . S
O420 C465 1.199 . S
O421 H393 0.854 . S
O421 C465 1.297 1_565 S
C422 C423 1.404 . S
C422 C427 1.397 . S
C422 C428 1.492 . S
C423 C422 1.404 . S
C423 C424 1.396 . S
C423 C434 1.492 . S
C424 C423 1.396 . S
C424 C425 1.397 . S
C424 C440 1.509 . S
C425 C424 1.397 . S
C425 C426 1.412 . S
C425 C446 1.485 . S
C426 C425 1.412 . S
C426 C427 1.388 . S
C426 C452 1.490 . S
C427 C422 1.397 . S
C427 C426 1.388 . S
C427 C458 1.519 . S
C428 C422 1.492 . S
C428 C429 1.363 . S
C428 C433 1.390 . S
C429 H394 0.930 . S
C429 C428 1.363 . S
C429 C430 1.372 . S
C430 H395 0.930 . S
C430 C429 1.372 . S
C430 C431 1.383 . S
C431 C430 1.383 . S
C431 C432 1.395 . S
C432 H396 0.930 1_655 S
C432 C431 1.395 . S
C432 C433 1.362 . S
C433 H397 0.930 . S
C433 C428 1.390 . S
C433 C432 1.362 . S
C434 C423 1.492 . S
C434 C435 1.377 . S
C434 C439 1.397 . S
C435 H398 0.931 . S
C435 C434 1.377 . S
C435 C436 1.376 . S
C436 H399 0.930 . S
C436 C435 1.376 . S
C436 C437 1.376 . S
C437 C436 1.376 . S
C437 C438 1.378 . S
C437 C464 1.486 . S
C438 H400 0.930 . S
C438 C437 1.378 . S
C438 C439 1.376 . S
C439 H401 0.929 . S
C439 C434 1.397 . S
C439 C438 1.376 . S
C440 C424 1.509 . S
C440 C441 1.391 . S
C440 C445 1.386 . S
C441 H402 0.930 . S
C441 C440 1.391 . S
C441 C442 1.375 . S
C442 H403 0.931 . S
C442 C441 1.375 . S
C442 C443 1.375 . S
C443 C442 1.375 . S
C443 C444 1.361 . S
C444 H404 0.930 . S
C444 C443 1.361 . S
C444 C445 1.399 . S
C445 H405 0.929 . S
C445 C440 1.386 . S
C445 C444 1.399 . S
C446 C425 1.485 . S
C446 C447 1.394 . S
C446 C451 1.360 . S
C447 H406 0.931 . S
C447 C446 1.394 . S
C447 C448 1.372 . S
C448 H407 0.930 . S
C448 C447 1.372 . S
C448 C449 1.397 . S
C449 C448 1.397 . S
C449 C450 1.390 . S
C449 C465 1.476 . S
C450 H408 0.930 . S
C450 C449 1.390 . S
C450 C451 1.366 . S
C451 H409 0.932 . S
C451 C446 1.360 . S
C451 C450 1.366 . S
C452 C426 1.490 . S
C452 C453 1.380 . S
C452 C457 1.386 . S
C453 H410 0.930 . S
C453 C452 1.380 . S
C453 C454 1.381 . S
C454 H411 0.929 . S
C454 C453 1.381 . S
C454 C455 1.371 . S
C455 C454 1.371 . S
C455 C456 1.380 . S
C456 H412 0.931 . S
C456 C455 1.380 . S
C456 C457 1.387 . S
C457 H413 0.930 . S
C457 C452 1.386 . S
C457 C456 1.387 . S
C458 C427 1.519 . S
C458 C459 1.377 . S
C458 C463 1.361 . S
C459 H414 0.929 . S
C459 C458 1.377 . S
C459 C460 1.386 . S
C460 H415 0.931 . S
C460 C459 1.386 . S
C460 C461 1.363 . S
C461 C460 1.363 . S
C461 C462 1.385 . S
C462 H416 0.930 . S
C462 C461 1.385 . S
C462 C463 1.396 . S
C463 H417 0.929 . S
C463 C458 1.361 . S
C463 C462 1.396 . S
C464 O418 1.300 1_556 S
C464 O419 1.209 . S
C464 C437 1.486 . S
C465 O420 1.199 . S
C465 O421 1.297 1_545 S
C465 C449 1.476 . S
H466 O492 0.856 . S
H467 O495 0.854 . S
H468 C503 0.930 . S
H469 C504 0.930 . S
H470 C506 0.930 . S
H471 C507 0.930 . S
H472 C509 0.931 . S
H473 C510 0.930 . S
H474 C512 0.930 . S
H475 C513 0.929 . S
H476 C515 0.930 . S
H477 C516 0.931 . S
H478 C518 0.930 . S
H479 C519 0.929 . S
H480 C521 0.931 . S
H481 C522 0.930 . S
H482 C524 0.930 . S
H483 C525 0.932 . S
H484 C527 0.930 . S
H485 C528 0.929 . S
H486 C530 0.931 . S
H487 C531 0.930 . S
H488 C533 0.929 . S
H489 C534 0.931 . S
H490 C536 0.930 . S
H491 C537 0.929 . S
O492 H466 0.856 . S
O492 C538 1.300 . S
O493 C538 1.209 . S
O494 C539 1.199 . S
O495 H467 0.854 . S
O495 C539 1.297 . S
C496 C497 1.404 . S
C496 C501 1.397 . S
C496 C502 1.492 . S
C497 C496 1.404 . S
C497 C498 1.396 . S
C497 C508 1.492 . S
C498 C497 1.396 . S
C498 C499 1.397 . S
C498 C514 1.509 . S
C499 C498 1.397 . S
C499 C500 1.412 . S
C499 C520 1.485 . S
C500 C499 1.412 . S
C500 C501 1.388 . S
C500 C526 1.490 . S
C501 C496 1.397 . S
C501 C500 1.388 . S
C501 C532 1.519 . S
C502 C496 1.492 . S
C502 C503 1.363 . S
C502 C507 1.390 . S
C503 H468 0.930 . S
C503 C502 1.363 . S
C503 C504 1.372 . S
C504 H469 0.930 . S
C504 C503 1.372 . S
C504 C505 1.383 . S
C505 C504 1.383 . S
C505 C506 1.395 . S
C506 H470 0.930 . S
C506 C505 1.395 . S
C506 C507 1.362 . S
C507 H471 0.930 . S
C507 C502 1.390 . S
C507 C506 1.362 . S
C508 C497 1.492 . S
C508 C509 1.377 . S
C508 C513 1.397 . S
C509 H472 0.931 . S
C509 C508 1.377 . S
C509 C510 1.376 . S
C510 H473 0.930 . S
C510 C509 1.376 . S
C510 C511 1.376 . S
C511 C510 1.376 . S
C511 C512 1.378 . S
C511 C538 1.486 . S
C512 H474 0.930 . S
C512 C511 1.378 . S
C512 C513 1.376 . S
C513 H475 0.929 . S
C513 C508 1.397 . S
C513 C512 1.376 . S
C514 C498 1.509 . S
C514 C515 1.391 . S
C514 C519 1.386 . S
C515 H476 0.930 . S
C515 C514 1.391 . S
C515 C516 1.375 . S
C516 H477 0.931 . S
C516 C515 1.375 . S
C516 C517 1.375 . S
C517 C516 1.375 . S
C517 C518 1.361 . S
C518 H478 0.930 . S
C518 C517 1.361 . S
C518 C519 1.399 . S
C519 H479 0.929 . S
C519 C514 1.386 . S
C519 C518 1.399 . S
C520 C499 1.485 . S
C520 C521 1.394 . S
C520 C525 1.360 . S
C521 H480 0.931 . S
C521 C520 1.394 . S
C521 C522 1.372 . S
C522 H481 0.930 . S
C522 C521 1.372 . S
C522 C523 1.397 . S
C523 C522 1.397 . S
C523 C524 1.390 . S
C523 C539 1.476 1_565 S
C524 H482 0.930 . S
C524 C523 1.390 . S
C524 C525 1.366 . S
C525 H483 0.932 . S
C525 C520 1.360 . S
C525 C524 1.366 . S
C526 C500 1.490 . S
C526 C527 1.380 . S
C526 C531 1.386 . S
C527 H484 0.930 . S
C527 C526 1.380 . S
C527 C528 1.381 . S
C528 H485 0.929 . S
C528 C527 1.381 . S
C528 C529 1.371 . S
C529 C528 1.371 . S
C529 C530 1.380 . S
C530 H486 0.931 . S
C530 C529 1.380 . S
C530 C531 1.387 . S
C531 H487 0.930 . S
C531 C526 1.386 . S
C531 C530 1.387 . S
C532 C501 1.519 . S
C532 C533 1.377 . S
C532 C537 1.361 . S
C533 H488 0.929 . S
C533 C532 1.377 . S
C533 C534 1.386 . S
C534 H489 0.931 . S
C534 C533 1.386 . S
C534 C535 1.363 . S
C535 C534 1.363 . S
C535 C536 1.385 . S
C536 H490 0.930 . S
C536 C535 1.385 . S
C536 C537 1.396 . S
C537 H491 0.929 . S
C537 C532 1.361 . S
C537 C536 1.396 . S
C538 O492 1.300 . S
C538 O493 1.209 . S
C538 C511 1.486 . S
C539 O494 1.199 . S
C539 O495 1.297 . S
C539 C523 1.476 1_545 S
H540 O566 0.856 . S
H541 O569 0.854 . S
H542 C577 0.930 . S
H543 C578 0.930 . S
H544 C580 0.930 . S
H545 C581 0.930 . S
H546 C583 0.931 . S
H547 C584 0.930 . S
H548 C586 0.930 . S
H549 C587 0.929 . S
H550 C589 0.930 . S
H551 C590 0.931 1_455 S
H552 C592 0.930 . S
H553 C593 0.929 . S
H554 C595 0.931 . S
H555 C596 0.930 . S
H556 C598 0.930 . S
H557 C599 0.932 . S
H558 C601 0.930 . S
H559 C602 0.929 . S
H560 C604 0.931 . S
H561 C605 0.930 . S
H562 C607 0.929 . S
H563 C608 0.931 . S
H564 C610 0.930 . S
H565 C611 0.929 . S
O566 H540 0.856 . S
O566 C612 1.300 . S
O567 C612 1.209 . S
O568 C613 1.199 . S
O569 H541 0.854 . S
O569 C613 1.297 . S
C570 C571 1.404 . S
C570 C575 1.397 . S
C570 C576 1.492 . S
C571 C570 1.404 . S
C571 C572 1.396 . S
C571 C582 1.492 . S
C572 C571 1.396 . S
C572 C573 1.397 . S
C572 C588 1.509 . S
C573 C572 1.397 . S
C573 C574 1.412 . S
C573 C594 1.485 . S
C574 C573 1.412 . S
C574 C575 1.388 . S
C574 C600 1.490 . S
C575 C570 1.397 . S
C575 C574 1.388 . S
C575 C606 1.519 . S
C576 C570 1.492 . S
C576 C577 1.363 . S
C576 C581 1.390 . S
C577 H542 0.930 . S
C577 C576 1.363 . S
C577 C578 1.372 . S
C578 H543 0.930 . S
C578 C577 1.372 . S
C578 C579 1.383 . S
C579 C578 1.383 . S
C579 C580 1.395 . S
C580 H544 0.930 . S
C580 C579 1.395 . S
C580 C581 1.362 . S
C581 H545 0.930 . S
C581 C576 1.390 . S
C581 C580 1.362 . S
C582 C571 1.492 . S
C582 C583 1.377 . S
C582 C587 1.397 . S
C583 H546 0.931 . S
C583 C582 1.377 . S
C583 C584 1.376 . S
C584 H547 0.930 . S
C584 C583 1.376 . S
C584 C585 1.376 . S
C585 C584 1.376 . S
C585 C586 1.378 . S
C585 C612 1.486 . S
C586 H548 0.930 . S
C586 C585 1.378 . S
C586 C587 1.376 . S
C587 H549 0.929 . S
C587 C582 1.397 . S
C587 C586 1.376 . S
C588 C572 1.509 . S
C588 C589 1.391 . S
C588 C593 1.386 . S
C589 H550 0.930 . S
C589 C588 1.391 . S
C589 C590 1.375 . S
C590 H551 0.931 1_655 S
C590 C589 1.375 . S
C590 C591 1.375 . S
C591 C590 1.375 . S
C591 C592 1.361 . S
C592 H552 0.930 . S
C592 C591 1.361 . S
C592 C593 1.399 . S
C593 H553 0.929 . S
C593 C588 1.386 . S
C593 C592 1.399 . S
C594 C573 1.485 . S
C594 C595 1.394 1_655 S
C594 C599 1.360 . S
C595 H554 0.931 . S
C595 C594 1.394 1_455 S
C595 C596 1.372 . S
C596 H555 0.930 . S
C596 C595 1.372 . S
C596 C597 1.397 . S
C597 C596 1.397 . S
C597 C598 1.390 1_455 S
C597 C613 1.476 . S
C598 H556 0.930 . S
C598 C597 1.390 1_655 S
C598 C599 1.366 . S
C599 H557 0.932 . S
C599 C594 1.360 . S
C599 C598 1.366 . S
C600 C574 1.490 . S
C600 C601 1.380 . S
C600 C605 1.386 . S
C601 H558 0.930 . S
C601 C600 1.380 . S
C601 C602 1.381 . S
C602 H559 0.929 . S
C602 C601 1.381 . S
C602 C603 1.371 . S
C603 C602 1.371 . S
C603 C604 1.380 . S
C604 H560 0.931 . S
C604 C603 1.380 . S
C604 C605 1.387 . S
C605 H561 0.930 . S
C605 C600 1.386 . S
C605 C604 1.387 . S
C606 C575 1.519 . S
C606 C607 1.377 . S
C606 C611 1.361 . S
C607 H562 0.929 . S
C607 C606 1.377 . S
C607 C608 1.386 . S
C608 H563 0.931 . S
C608 C607 1.386 . S
C608 C609 1.363 . S
C609 C608 1.363 . S
C609 C610 1.385 . S
C610 H564 0.930 . S
C610 C609 1.385 . S
C610 C611 1.396 . S
C611 H565 0.929 . S
C611 C606 1.361 . S
C611 C610 1.396 . S
C612 O566 1.300 . S
C612 O567 1.209 . S
C612 C585 1.486 . S
C613 O568 1.199 . S
C613 O569 1.297 . S
C613 C597 1.476 . S
H614 O640 0.856 . S
H615 O643 0.854 . S
H616 C651 0.930 . S
H617 C652 0.930 . S
H618 C654 0.930 . S
H619 C655 0.930 . S
H620 C657 0.931 . S
H621 C658 0.930 . S
H622 C660 0.930 . S
H623 C661 0.929 . S
H624 C663 0.930 . S
H625 C664 0.931 . S
H626 C666 0.930 . S
H627 C667 0.929 . S
H628 C669 0.931 . S
H629 C670 0.930 . S
H630 C672 0.930 . S
H631 C673 0.932 . S
H632 C675 0.930 . S
H633 C676 0.929 . S
H634 C678 0.931 . S
H635 C679 0.930 . S
H636 C681 0.929 . S
H637 C682 0.931 . S
H638 C684 0.930 . S
H639 C685 0.929 . S
O640 H614 0.856 . S
O640 C686 1.300 . S
O641 C686 1.209 . S
O642 C687 1.199 . S
O643 H615 0.854 . S
O643 C687 1.297 . S
C644 C645 1.404 . S
C644 C649 1.397 . S
C644 C650 1.492 . S
C645 C644 1.404 . S
C645 C646 1.396 . S
C645 C656 1.492 . S
C646 C645 1.396 . S
C646 C647 1.397 . S
C646 C662 1.509 . S
C647 C646 1.397 . S
C647 C648 1.412 . S
C647 C668 1.485 . S
C648 C647 1.412 . S
C648 C649 1.388 . S
C648 C674 1.490 . S
C649 C644 1.397 . S
C649 C648 1.388 . S
C649 C680 1.519 . S
C650 C644 1.492 . S
C650 C651 1.363 . S
C650 C655 1.390 . S
C651 H616 0.930 . S
C651 C650 1.363 . S
C651 C652 1.372 . S
C652 H617 0.930 . S
C652 C651 1.372 . S
C652 C653 1.383 . S
C653 C652 1.383 . S
C653 C654 1.395 . S
C654 H618 0.930 . S
C654 C653 1.395 . S
C654 C655 1.362 . S
C655 H619 0.930 . S
C655 C650 1.390 . S
C655 C654 1.362 . S
C656 C645 1.492 . S
C656 C657 1.377 . S
C656 C661 1.397 . S
C657 H620 0.931 . S
C657 C656 1.377 . S
C657 C658 1.376 . S
C658 H621 0.930 . S
C658 C657 1.376 . S
C658 C659 1.376 . S
C659 C658 1.376 . S
C659 C660 1.378 . S
C659 C686 1.486 . S
C660 H622 0.930 . S
C660 C659 1.378 . S
C660 C661 1.376 . S
C661 H623 0.929 . S
C661 C656 1.397 . S
C661 C660 1.376 . S
C662 C646 1.509 . S
C662 C663 1.391 . S
C662 C667 1.386 . S
C663 H624 0.930 . S
C663 C662 1.391 . S
C663 C664 1.375 . S
C664 H625 0.931 . S
C664 C663 1.375 . S
C664 C665 1.375 . S
C665 C664 1.375 . S
C665 C666 1.361 . S
C666 H626 0.930 . S
C666 C665 1.361 . S
C666 C667 1.399 . S
C667 H627 0.929 . S
C667 C662 1.386 . S
C667 C666 1.399 . S
C668 C647 1.485 . S
C668 C669 1.394 . S
C668 C673 1.360 . S
C669 H628 0.931 . S
C669 C668 1.394 . S
C669 C670 1.372 . S
C670 H629 0.930 . S
C670 C669 1.372 . S
C670 C671 1.397 . S
C671 C670 1.397 . S
C671 C672 1.390 . S
C671 C687 1.476 . S
C672 H630 0.930 . S
C672 C671 1.390 . S
C672 C673 1.366 . S
C673 H631 0.932 . S
C673 C668 1.360 . S
C673 C672 1.366 . S
C674 C648 1.490 . S
C674 C675 1.380 . S
C674 C679 1.386 . S
C675 H632 0.930 . S
C675 C674 1.380 . S
C675 C676 1.381 . S
C676 H633 0.929 . S
C676 C675 1.381 . S
C676 C677 1.371 . S
C677 C676 1.371 . S
C677 C678 1.380 . S
C678 H634 0.931 . S
C678 C677 1.380 . S
C678 C679 1.387 . S
C679 H635 0.930 . S
C679 C674 1.386 . S
C679 C678 1.387 . S
C680 C649 1.519 . S
C680 C681 1.377 . S
C680 C685 1.361 . S
C681 H636 0.929 . S
C681 C680 1.377 . S
C681 C682 1.386 . S
C682 H637 0.931 . S
C682 C681 1.386 . S
C682 C683 1.363 . S
C683 C682 1.363 . S
C683 C684 1.385 . S
C684 H638 0.930 . S
C684 C683 1.385 . S
C684 C685 1.396 . S
C685 H639 0.929 . S
C685 C680 1.361 . S
C685 C684 1.396 . S
C686 O640 1.300 . S
C686 O641 1.209 . S
C686 C659 1.486 . S
C687 O642 1.199 . S
C687 O643 1.297 . S
C687 C671 1.476 . S
H688 O714 0.856 . S
H689 O717 0.854 1_565 S
H690 C725 0.930 . S
H691 C726 0.930 . S
H692 C728 0.930 . S
H693 C729 0.930 . S
H694 C731 0.931 . S
H695 C732 0.930 . S
H696 C734 0.930 . S
H697 C735 0.929 . S
H698 C737 0.930 . S
H699 C738 0.931 . S
H700 C740 0.930 . S
H701 C741 0.929 . S
H702 C743 0.931 . S
H703 C744 0.930 . S
H704 C746 0.930 . S
H705 C747 0.932 . S
H706 C749 0.930 . S
H707 C750 0.929 . S
H708 C752 0.931 . S
H709 C753 0.930 . S
H710 C755 0.929 . S
H711 C756 0.931 . S
H712 C758 0.930 . S
H713 C759 0.929 . S
O714 H688 0.856 . S
O714 C760 1.300 . S
O715 C760 1.209 . S
O716 C761 1.199 . S
O717 H689 0.854 1_545 S
O717 C761 1.297 . S
C718 C719 1.404 . S
C718 C723 1.397 . S
C718 C724 1.492 . S
C719 C718 1.404 . S
C719 C720 1.396 . S
C719 C730 1.492 . S
C720 C719 1.396 . S
C720 C721 1.397 . S
C720 C736 1.509 . S
C721 C720 1.397 . S
C721 C722 1.412 . S
C721 C742 1.485 . S
C722 C721 1.412 . S
C722 C723 1.388 . S
C722 C748 1.490 . S
C723 C718 1.397 . S
C723 C722 1.388 . S
C723 C754 1.519 . S
C724 C718 1.492 . S
C724 C725 1.363 . S
C724 C729 1.390 . S
C725 H690 0.930 . S
C725 C724 1.363 . S
C725 C726 1.372 . S
C726 H691 0.930 . S
C726 C725 1.372 . S
C726 C727 1.383 . S
C727 C726 1.383 . S
C727 C728 1.395 . S
C728 H692 0.930 . S
C728 C727 1.395 . S
C728 C729 1.362 . S
C729 H693 0.930 . S
C729 C724 1.390 . S
C729 C728 1.362 . S
C730 C719 1.492 . S
C730 C731 1.377 . S
C730 C735 1.397 . S
C731 H694 0.931 . S
C731 C730 1.377 . S
C731 C732 1.376 . S
C732 H695 0.930 . S
C732 C731 1.376 . S
C732 C733 1.376 . S
C733 C732 1.376 . S
C733 C734 1.378 . S
C733 C760 1.486 . S
C734 H696 0.930 . S
C734 C733 1.378 . S
C734 C735 1.376 . S
C735 H697 0.929 . S
C735 C730 1.397 . S
C735 C734 1.376 . S
C736 C720 1.509 . S
C736 C737 1.391 . S
C736 C741 1.386 . S
C737 H698 0.930 . S
C737 C736 1.391 . S
C737 C738 1.375 . S
C738 H699 0.931 . S
C738 C737 1.375 . S
C738 C739 1.375 . S
C739 C738 1.375 . S
C739 C740 1.361 . S
C740 H700 0.930 . S
C740 C739 1.361 . S
C740 C741 1.399 . S
C741 H701 0.929 . S
C741 C736 1.386 . S
C741 C740 1.399 . S
C742 C721 1.485 . S
C742 C743 1.394 . S
C742 C747 1.360 . S
C743 H702 0.931 . S
C743 C742 1.394 . S
C743 C744 1.372 . S
C744 H703 0.930 . S
C744 C743 1.372 . S
C744 C745 1.397 . S
C745 C744 1.397 . S
C745 C746 1.390 . S
C745 C761 1.476 . S
C746 H704 0.930 . S
C746 C745 1.390 . S
C746 C747 1.366 . S
C747 H705 0.932 . S
C747 C742 1.360 . S
C747 C746 1.366 . S
C748 C722 1.490 . S
C748 C749 1.380 . S
C748 C753 1.386 . S
C749 H706 0.930 . S
C749 C748 1.380 . S
C749 C750 1.381 . S
C750 H707 0.929 . S
C750 C749 1.381 . S
C750 C751 1.371 . S
C751 C750 1.371 . S
C751 C752 1.380 . S
C752 H708 0.931 . S
C752 C751 1.380 . S
C752 C753 1.387 . S
C753 H709 0.930 . S
C753 C748 1.386 . S
C753 C752 1.387 . S
C754 C723 1.519 . S
C754 C755 1.377 . S
C754 C759 1.361 . S
C755 H710 0.929 . S
C755 C754 1.377 . S
C755 C756 1.386 . S
C756 H711 0.931 . S
C756 C755 1.386 . S
C756 C757 1.363 . S
C757 C756 1.363 . S
C757 C758 1.385 . S
C758 H712 0.930 . S
C758 C757 1.385 . S
C758 C759 1.396 . S
C759 H713 0.929 . S
C759 C754 1.361 . S
C759 C758 1.396 . S
C760 O714 1.300 . S
C760 O715 1.209 . S
C760 C733 1.486 . S
C761 O716 1.199 . S
C761 O717 1.297 . S
C761 C745 1.476 . S
C762 C763 1.369 . S
C762 C764 1.419 . S
C762 H766 0.930 . S
C763 C762 1.369 . S
C763 C772 1.429 . S
C764 C762 1.419 . S
C764 C765 1.363 . S
C764 H767 0.929 . S
C765 C764 1.363 . S
C765 C771 1.428 . S
H766 C762 0.930 . S
H767 C764 0.929 . S
S768 N769 1.613 . S
S768 N770 1.610 . S
N769 S768 1.613 . S
N769 C772 1.350 . S
N770 S768 1.610 . S
N770 C771 1.351 . S
C771 C765 1.428 . S
C771 N770 1.351 . S
C771 C772 1.434 . S
C772 C763 1.429 . S
C772 N769 1.350 . S
C772 C771 1.434 . S
C773 C774 1.369 . S
C773 C775 1.419 . S
C773 H777 0.930 . S
C774 C773 1.369 . S
C774 C783 1.429 . S
C775 C773 1.419 . S
C775 C776 1.363 . S
C775 H778 0.929 . S
C776 C775 1.363 . S
C776 C782 1.428 . S
H777 C773 0.930 . S
H778 C775 0.929 . S
S779 N780 1.613 . S
S779 N781 1.610 . S
N780 S779 1.613 . S
N780 C783 1.350 . S
N781 S779 1.610 . S
N781 C782 1.351 . S
C782 C776 1.428 . S
C782 N781 1.351 . S
C782 C783 1.434 . S
C783 C774 1.429 . S
C783 N780 1.350 . S
C783 C782 1.434 . S
C784 C785 1.369 . S
C784 C786 1.419 . S
C784 H788 0.930 . S
C785 C784 1.369 . S
C785 C794 1.429 . S
C786 C784 1.419 . S
C786 C787 1.363 . S
C786 H789 0.929 . S
C787 C786 1.363 . S
C787 C793 1.428 . S
H788 C784 0.930 . S
H789 C786 0.929 . S
S790 N791 1.613 . S
S790 N792 1.610 . S
N791 S790 1.613 . S
N791 C794 1.350 . S
N792 S790 1.610 . S
N792 C793 1.351 . S
C793 C787 1.428 . S
C793 N792 1.351 . S
C793 C794 1.434 . S
C794 C785 1.429 . S
C794 N791 1.350 . S
C794 C793 1.434 . S
C795 C796 1.369 . S
C795 C797 1.419 . S
C795 H799 0.930 . S
C796 C795 1.369 . S
C796 C805 1.429 . S
C797 C795 1.419 . S
C797 C798 1.363 . S
C797 H800 0.929 . S
C798 C797 1.363 . S
C798 C804 1.428 . S
H799 C795 0.930 . S
H800 C797 0.929 . S
S801 N802 1.613 . S
S801 N803 1.610 . S
N802 S801 1.613 . S
N802 C805 1.350 . S
N803 S801 1.610 . S
N803 C804 1.351 . S
C804 C798 1.428 . S
C804 N803 1.351 . S
C804 C805 1.434 . S
C805 C796 1.429 . S
C805 N802 1.350 . S
C805 C804 1.434 . S
C806 C807 1.369 . S
C806 C808 1.419 . S
C806 H810 0.930 . S
C807 C806 1.369 . S
C807 C816 1.429 . S
C808 C806 1.419 . S
C808 C809 1.363 . S
C808 H811 0.929 . S
C809 C808 1.363 . S
C809 C815 1.428 . S
H810 C806 0.930 . S
H811 C808 0.929 . S
S812 N813 1.613 1_565 S
S812 N814 1.610 . S
N813 S812 1.613 1_545 S
N813 C816 1.350 1_545 S
N814 S812 1.610 . S
N814 C815 1.351 . S
C815 C809 1.428 . S
C815 N814 1.351 . S
C815 C816 1.434 . S
C816 C807 1.429 . S
C816 N813 1.350 1_565 S
C816 C815 1.434 . S
C817 C818 1.369 . S
C817 C819 1.419 . S
C817 H821 0.930 . S
C818 C817 1.369 . S
C818 C827 1.429 . S
C819 C817 1.419 . S
C819 C820 1.363 . S
C819 H822 0.929 . S
C820 C819 1.363 . S
C820 C826 1.428 . S
H821 C817 0.930 . S
H822 C819 0.929 . S
S823 N824 1.613 . S
S823 N825 1.610 . S
N824 S823 1.613 . S
N824 C827 1.350 . S
N825 S823 1.610 . S
N825 C826 1.351 . S
C826 C820 1.428 . S
C826 N825 1.351 . S
C826 C827 1.434 . S
C827 C818 1.429 . S
C827 N824 1.350 . S
C827 C826 1.434 . S
C828 C829 1.369 . S
C828 C830 1.419 . S
C828 H832 0.930 . S
C829 C828 1.369 . S
C829 C838 1.429 . S
C830 C828 1.419 . S
C830 C831 1.363 . S
C830 H833 0.929 . S
C831 C830 1.363 . S
C831 C837 1.428 . S
H832 C828 0.930 . S
H833 C830 0.929 . S
S834 N835 1.613 . S
S834 N836 1.610 . S
N835 S834 1.613 . S
N835 C838 1.350 . S
N836 S834 1.610 . S
N836 C837 1.351 . S
C837 C831 1.428 . S
C837 N836 1.351 . S
C837 C838 1.434 . S
C838 C829 1.429 . S
C838 N835 1.350 . S
C838 C837 1.434 . S
C839 C840 1.369 1_556 S
C839 C841 1.419 . S
C839 H843 0.930 . S
C840 C839 1.369 1_554 S
C840 C849 1.429 . S
C841 C839 1.419 . S
C841 C842 1.363 . S
C841 H844 0.929 . S
C842 C841 1.363 . S
C842 C848 1.428 . S
H843 C839 0.930 . S
H844 C841 0.929 . S
S845 N846 1.613 . S
S845 N847 1.610 . S
N846 S845 1.613 . S
N846 C849 1.350 . S
N847 S845 1.610 . S
N847 C848 1.351 1_554 S
C848 C842 1.428 . S
C848 N847 1.351 1_556 S
C848 C849 1.434 1_556 S
C849 C840 1.429 . S
C849 N846 1.350 . S
C849 C848 1.434 1_554 S
C850 C851 1.369 . S
C850 C852 1.419 . S
C850 H854 0.930 . S
C851 C850 1.369 . S
C851 C860 1.429 . S
C852 C850 1.419 . S
C852 C853 1.363 . S
C852 H855 0.929 . S
C853 C852 1.363 . S
C853 C859 1.428 . S
H854 C850 0.930 . S
H855 C852 0.929 . S
S856 N857 1.613 . S
S856 N858 1.610 . S
N857 S856 1.613 . S
N857 C860 1.350 . S
N858 S856 1.610 . S
N858 C859 1.351 . S
C859 C853 1.428 . S
C859 N858 1.351 . S
C859 C860 1.434 . S
C860 C851 1.429 . S
C860 N857 1.350 . S
C860 C859 1.434 . S
C861 C862 1.369 . S
C861 C863 1.419 . S
C861 H865 0.930 . S
C862 C861 1.369 . S
C862 C871 1.429 . S
C863 C861 1.419 . S
C863 C864 1.363 . S
C863 H866 0.929 . S
C864 C863 1.363 . S
C864 C870 1.428 . S
H865 C861 0.930 . S
H866 C863 0.929 . S
S867 N868 1.613 . S
S867 N869 1.610 1_554 S
N868 S867 1.613 . S
N868 C871 1.350 1_554 S
N869 S867 1.610 1_556 S
N869 C870 1.351 . S
C870 C864 1.428 . S
C870 N869 1.351 . S
C870 C871 1.434 . S
C871 C862 1.429 . S
C871 N868 1.350 1_556 S
C871 C870 1.434 . S
C872 C873 1.369 . S
C872 C874 1.419 . S
C872 H876 0.930 . S
C873 C872 1.369 . S
C873 C882 1.429 . S
C874 C872 1.419 . S
C874 C875 1.363 . S
C874 H877 0.929 . S
C875 C874 1.363 . S
C875 C881 1.428 . S
H876 C872 0.930 . S
H877 C874 0.929 . S
S878 N879 1.613 . S
S878 N880 1.610 . S
N879 S878 1.613 . S
N879 C882 1.350 . S
N880 S878 1.610 . S
N880 C881 1.351 . S
C881 C875 1.428 . S
C881 N880 1.351 . S
C881 C882 1.434 . S
C882 C873 1.429 . S
C882 N879 1.350 . S
C882 C881 1.434 . S
C883 C884 1.369 . S
C883 C885 1.419 . S
C883 H887 0.930 . S
C884 C883 1.369 . S
C884 C893 1.429 . S
C885 C883 1.419 . S
C885 C886 1.363 . S
C885 H888 0.929 1_455 S
C886 C885 1.363 . S
C886 C892 1.428 . S
H887 C883 0.930 . S
H888 C885 0.929 1_655 S
S889 N890 1.613 . S
S889 N891 1.610 . S
N890 S889 1.613 . S
N890 C893 1.350 . S
N891 S889 1.610 . S
N891 C892 1.351 . S
C892 C886 1.428 . S
C892 N891 1.351 . S
C892 C893 1.434 . S
C893 C884 1.429 . S
C893 N890 1.350 . S
C893 C892 1.434 . S
C894 C895 1.369 . S
C894 C896 1.419 . S
C894 H898 0.930 . S
C895 C894 1.369 . S
C895 C904 1.429 . S
C896 C894 1.419 . S
C896 C897 1.363 . S
C896 H899 0.929 1_455 S
C897 C896 1.363 . S
C897 C903 1.428 . S
H898 C894 0.930 . S
H899 C896 0.929 1_655 S
S900 N901 1.613 . S
S900 N902 1.610 . S
N901 S900 1.613 . S
N901 C904 1.350 . S
N902 S900 1.610 . S
N902 C903 1.351 . S
C903 C897 1.428 . S
C903 N902 1.351 . S
C903 C904 1.434 . S
C904 C895 1.429 . S
C904 N901 1.350 . S
C904 C903 1.434 . S
C905 C906 1.369 . S
C905 C907 1.419 . S
C905 H909 0.930 . S
C906 C905 1.369 . S
C906 C915 1.429 . S
C907 C905 1.419 . S
C907 C908 1.363 . S
C907 H910 0.929 . S
C908 C907 1.363 . S
C908 C914 1.428 . S
H909 C905 0.930 . S
H910 C907 0.929 . S
S911 N912 1.613 . S
S911 N913 1.610 . S
N912 S911 1.613 . S
N912 C915 1.350 . S
N913 S911 1.610 . S
N913 C914 1.351 . S
C914 C908 1.428 . S
C914 N913 1.351 . S
C914 C915 1.434 . S
C915 C906 1.429 . S
C915 N912 1.350 . S
C915 C914 1.434 . S
C916 C917 1.369 . S
C916 C918 1.419 . S
C916 H920 0.930 . S
C917 C916 1.369 . S
C917 C926 1.429 . S
C918 C916 1.419 . S
C918 C919 1.363 . S
C918 H921 0.929 . S
C919 C918 1.363 . S
C919 C925 1.428 . S
H920 C916 0.930 . S
H921 C918 0.929 . S
S922 N923 1.613 . S
S922 N924 1.610 . S
N923 S922 1.613 . S
N923 C926 1.350 . S
N924 S922 1.610 . S
N924 C925 1.351 . S
C925 C919 1.428 . S
C925 N924 1.351 . S
C925 C926 1.434 . S
C926 C917 1.429 . S
C926 N923 1.350 . S
C926 C925 1.434 . S
C927 C928 1.369 . S
C927 C929 1.419 . S
C927 H931 0.930 . S
C928 C927 1.369 . S
C928 C937 1.429 . S
C929 C927 1.419 . S
C929 C930 1.363 . S
C929 H932 0.929 . S
C930 C929 1.363 . S
C930 C936 1.428 . S
H931 C927 0.930 . S
H932 C929 0.929 . S
S933 N934 1.613 . S
S933 N935 1.610 . S
N934 S933 1.613 . S
N934 C937 1.350 . S
N935 S933 1.610 . S
N935 C936 1.351 . S
C936 C930 1.428 . S
C936 N935 1.351 . S
C936 C937 1.434 . S
C937 C928 1.429 . S
C937 N934 1.350 . S
C937 C936 1.434 . S
C938 C939 1.369 1_556 S
C938 C940 1.419 . S
C938 H942 0.930 . S
C939 C938 1.369 1_554 S
C939 C948 1.429 . S
C940 C938 1.419 . S
C940 C941 1.363 . S
C940 H943 0.929 . S
C941 C940 1.363 . S
C941 C947 1.428 . S
H942 C938 0.930 . S
H943 C940 0.929 . S
S944 N945 1.613 . S
S944 N946 1.610 1_554 S
N945 S944 1.613 . S
N945 C948 1.350 . S
N946 S944 1.610 1_556 S
N946 C947 1.351 . S
C947 C941 1.428 . S
C947 N946 1.351 . S
C947 C948 1.434 1_556 S
C948 C939 1.429 . S
C948 N945 1.350 . S
C948 C947 1.434 1_554 S
C949 C950 1.369 . S
C949 C951 1.419 . S
C949 H953 0.930 . S
C950 C949 1.369 . S
C950 C959 1.429 . S
C951 C949 1.419 . S
C951 C952 1.363 . S
C951 H954 0.929 . S
C952 C951 1.363 . S
C952 C958 1.428 . S
H953 C949 0.930 . S
H954 C951 0.929 . S
S955 N956 1.613 . S
S955 N957 1.610 . S
N956 S955 1.613 . S
N956 C959 1.350 . S
N957 S955 1.610 . S
N957 C958 1.351 . S
C958 C952 1.428 . S
C958 N957 1.351 . S
C958 C959 1.434 . S
C959 C950 1.429 . S
C959 N956 1.350 . S
C959 C958 1.434 . S
C960 C961 1.369 . S
C960 C962 1.419 . S
C960 H964 0.930 . S
C961 C960 1.369 . S
C961 C970 1.429 . S
C962 C960 1.419 . S
C962 C963 1.363 . S
C962 H965 0.929 . S
C963 C962 1.363 . S
C963 C969 1.428 . S
H964 C960 0.930 . S
H965 C962 0.929 . S
S966 N967 1.613 . S
S966 N968 1.610 . S
N967 S966 1.613 . S
N967 C970 1.350 . S
N968 S966 1.610 . S
N968 C969 1.351 . S
C969 C963 1.428 . S
C969 N968 1.351 . S
C969 C970 1.434 . S
C970 C961 1.429 . S
C970 N967 1.350 . S
C970 C969 1.434 . S
C971 C972 1.369 . S
C971 C973 1.419 . S
C971 H975 0.930 . S
C972 C971 1.369 . S
C972 C981 1.429 . S
C973 C971 1.419 . S
C973 C974 1.363 . S
C973 H976 0.929 . S
C974 C973 1.363 . S
C974 C980 1.428 . S
H975 C971 0.930 . S
H976 C973 0.929 . S
S977 N978 1.613 . S
S977 N979 1.610 . S
N978 S977 1.613 . S
N978 C981 1.350 . S
N979 S977 1.610 . S
N979 C980 1.351 . S
C980 C974 1.428 . S
C980 N979 1.351 . S
C980 C981 1.434 . S
C981 C972 1.429 . S
C981 N978 1.350 . S
C981 C980 1.434 . S
C982 C983 1.369 . S
C982 C984 1.419 . S
C982 H986 0.930 . S
C983 C982 1.369 . S
C983 C992 1.429 . S
C984 C982 1.419 . S
C984 C985 1.363 . S
C984 H987 0.929 . S
C985 C984 1.363 . S
C985 C991 1.428 . S
H986 C982 0.930 . S
H987 C984 0.929 . S
S988 N989 1.613 . S
S988 N990 1.610 . S
N989 S988 1.613 . S
N989 C992 1.350 . S
N990 S988 1.610 . S
N990 C991 1.351 . S
C991 C985 1.428 . S
C991 N990 1.351 . S
C991 C992 1.434 . S
C992 C983 1.429 . S
C992 N989 1.350 . S
C992 C991 1.434 . S
C993 C994 1.369 . S
C993 C995 1.419 . S
C993 H997 0.930 . S
C994 C993 1.369 . S
C994 C1003 1.429 . S
C995 C993 1.419 . S
C995 C996 1.363 . S
C995 H998 0.929 . S
C996 C995 1.363 . S
C996 C1002 1.428 . S
H997 C993 0.930 . S
H998 C995 0.929 . S
S999 N1000 1.613 . S
S999 N1001 1.610 1_545 S
N1000 S999 1.613 . S
N1000 C1003 1.350 1_545 S
N1001 S999 1.610 1_565 S
N1001 C1002 1.351 . S
C1002 C996 1.428 . S
C1002 N1001 1.351 . S
C1002 C1003 1.434 . S
C1003 C994 1.429 . S
C1003 N1000 1.350 1_565 S
C1003 C1002 1.434 . S
C1004 C1005 1.369 . S
C1004 C1006 1.419 . S
C1004 H1008 0.930 . S
C1005 C1004 1.369 . S
C1005 C1014 1.429 . S
C1006 C1004 1.419 . S
C1006 C1007 1.363 . S
C1006 H1009 0.929 . S
C1007 C1006 1.363 . S
C1007 C1013 1.428 . S
H1008 C1004 0.930 . S
H1009 C1006 0.929 . S
S1010 N1011 1.613 . S
S1010 N1012 1.610 . S
N1011 S1010 1.613 . S
N1011 C1014 1.350 . S
N1012 S1010 1.610 . S
N1012 C1013 1.351 . S
C1013 C1007 1.428 . S
C1013 N1012 1.351 . S
C1013 C1014 1.434 . S
C1014 C1005 1.429 . S
C1014 N1011 1.350 . S
C1014 C1013 1.434 . S
C1015 C1016 1.369 . S
C1015 C1017 1.419 . S
C1015 H1019 0.930 . S
C1016 C1015 1.369 . S
C1016 C1025 1.429 . S
C1017 C1015 1.419 . S
C1017 C1018 1.363 . S
C1017 H1020 0.929 . S
C1018 C1017 1.363 . S
C1018 C1024 1.428 . S
H1019 C1015 0.930 . S
H1020 C1017 0.929 . S
S1021 N1022 1.613 . S
S1021 N1023 1.610 . S
N1022 S1021 1.613 . S
N1022 C1025 1.350 . S
N1023 S1021 1.610 . S
N1023 C1024 1.351 . S
C1024 C1018 1.428 . S
C1024 N1023 1.351 . S
C1024 C1025 1.434 . S
C1025 C1016 1.429 . S
C1025 N1022 1.350 . S
C1025 C1024 1.434 . S
C763 C39 2.307 . S
C765 C381 2.223 . S
C774 C91 1.477 . S
C776 C455 1.436 . S
C787 C505 1.687 . S
C785 C128 1.772 . S
C798 C591 1.294 . S
C796 C188 1.294 . S
C809 C683 1.877 . S
C807 C250 1.872 1_565 S
C820 C727 1.839 . S
C818 C304 1.900 . S
C829 C75 1.422 . S
C831 C529 1.282 . S
C840 C144 2.433 . S
C842 C609 2.405 . S
C853 C665 1.482 . S
C851 C198 1.465 . S
C864 C751 1.313 . S
C862 C234 1.351 1_556 S
C873 C294 2.186 . S
C875 C357 2.035 . S
C886 C431 1.802 1_455 S
C884 C29 1.817 . S
C897 C603 2.184 1_455 S
C895 C38 2.424 . S
C906 C92 2.253 . S
C908 C653 2.063 . S
C919 C757 2.204 . S
C917 C135 2.348 1_556 S
C928 C181 1.359 . S
C930 C369 1.323 . S
C939 C251 2.043 . S
C941 C443 1.959 . S
C950 C303 2.444 . S
C952 C535 2.296 . S
C961 C82 1.972 . S
C963 C739 1.834 . S
C974 C387 2.182 . S
C972 C145 2.211 . S
C983 C197 2.339 . S
C985 C461 2.215 . S
C994 C241 1.861 . S
C996 C517 1.703 . S
C1005 C287 1.698 . S
C1007 C579 1.483 . S
C1016 C22 2.008 . S
C1018 C677 1.901 . S
