# Generated by pormake.
# Topology pyr, (3,6)-cn, num edge types: 1
# Building blocks:
#     Node 0, Type 0, BuildingBlock: MIDCAF_clean_linker_0, # of connection points: 3
#     Node 1, Type 0, BuildingBlock: MIDCAF_clean_linker_0, # of connection points: 3
#     Node 2, Type 0, BuildingBlock: MIDCAF_clean_linker_0, # of connection points: 3
#     Node 3, Type 0, BuildingBlock: MIDCAF_clean_linker_0, # of connection points: 3
#     Node 4, Type 0, BuildingBlock: MIDCAF_clean_linker_0, # of connection points: 3
#     Node 5, Type 0, BuildingBlock: MIDCAF_clean_linker_0, # of connection points: 3
#     Node 6, Type 0, BuildingBlock: MIDCAF_clean_linker_0, # of connection points: 3
#     Node 7, Type 0, BuildingBlock: MIDCAF_clean_linker_0, # of connection points: 3
#     Node 8, Type 1, BuildingBlock: BETGAK_clean_sbu_0, # of connection points: 6
#     Node 9, Type 1, BuildingBlock: BETGAK_clean_sbu_0, # of connection points: 6
#     Node 10, Type 1, BuildingBlock: BETGAK_clean_sbu_0, # of connection points: 6
#     Node 11, Type 1, BuildingBlock: BETGAK_clean_sbu_0, # of connection points: 6
#     Edge 12, Type (0, 1), BuildingBlock: MIFKUJ_clean_linker_0, # of connection points: 2
#     Edge 13, Type (0, 1), BuildingBlock: MIFKUJ_clean_linker_0, # of connection points: 2
#     Edge 14, Type (0, 1), BuildingBlock: MIFKUJ_clean_linker_0, # of connection points: 2
#     Edge 15, Type (0, 1), BuildingBlock: MIFKUJ_clean_linker_0, # of connection points: 2
#     Edge 16, Type (0, 1), BuildingBlock: MIFKUJ_clean_linker_0, # of connection points: 2
#     Edge 17, Type (0, 1), BuildingBlock: MIFKUJ_clean_linker_0, # of connection points: 2
#     Edge 18, Type (0, 1), BuildingBlock: MIFKUJ_clean_linker_0, # of connection points: 2
#     Edge 19, Type (0, 1), BuildingBlock: MIFKUJ_clean_linker_0, # of connection points: 2
#     Edge 20, Type (0, 1), BuildingBlock: MIFKUJ_clean_linker_0, # of connection points: 2
#     Edge 21, Type (0, 1), BuildingBlock: MIFKUJ_clean_linker_0, # of connection points: 2
#     Edge 22, Type (0, 1), BuildingBlock: MIFKUJ_clean_linker_0, # of connection points: 2
#     Edge 23, Type (0, 1), BuildingBlock: MIFKUJ_clean_linker_0, # of connection points: 2
#     Edge 24, Type (0, 1), BuildingBlock: MIFKUJ_clean_linker_0, # of connection points: 2
#     Edge 25, Type (0, 1), BuildingBlock: MIFKUJ_clean_linker_0, # of connection points: 2
#     Edge 26, Type (0, 1), BuildingBlock: MIFKUJ_clean_linker_0, # of connection points: 2
#     Edge 27, Type (0, 1), BuildingBlock: MIFKUJ_clean_linker_0, # of connection points: 2
#     Edge 28, Type (0, 1), BuildingBlock: MIFKUJ_clean_linker_0, # of connection points: 2
#     Edge 29, Type (0, 1), BuildingBlock: MIFKUJ_clean_linker_0, # of connection points: 2
#     Edge 30, Type (0, 1), BuildingBlock: MIFKUJ_clean_linker_0, # of connection points: 2
#     Edge 31, Type (0, 1), BuildingBlock: MIFKUJ_clean_linker_0, # of connection points: 2
#     Edge 32, Type (0, 1), BuildingBlock: MIFKUJ_clean_linker_0, # of connection points: 2
#     Edge 33, Type (0, 1), BuildingBlock: MIFKUJ_clean_linker_0, # of connection points: 2
#     Edge 34, Type (0, 1), BuildingBlock: MIFKUJ_clean_linker_0, # of connection points: 2
#     Edge 35, Type (0, 1), BuildingBlock: MIFKUJ_clean_linker_0, # of connection points: 2
# Relax obj value: 0.073
# Max RMSD: 0.116
# Mean RMSD: 0.054
data_MOF--net-pyr--node1-BETGAK_clean_sbu_0--node2-MIDCAF_clean_linker_0--edge1-MIFKUJ_clean_linker_0
_symmetry_space_group_name_H-M    P1
_symmetry_Int_Tables_number       1
_symmetry_cell_setting            triclinic
loop_
_symmetry_equiv_pos_as_xyz
'x, y, z'
_cell_length_a     57.209453
_cell_length_b     60.121715
_cell_length_c     55.073655
_cell_angle_alpha  90.976515
_cell_angle_beta   89.100855
_cell_angle_gamma 100.08354
loop_
_atom_site_label
_atom_site_type_symbol
_atom_site_fract_x
_atom_site_fract_y
_atom_site_fract_z
_atom_type_partial_charge
C0 C 0.27183 0.26551 0.30022 0.0
C1 C 0.27387 0.24422 0.3092 0.0
C2 C 0.29043 0.23232 0.29829 0.0
C3 C 0.30344 0.24082 0.27775 0.0
H4 H 0.35613 0.23039 0.22846 0.0
H5 H 0.37888 0.20524 0.20747 0.0
H6 H 0.36721 0.23539 0.13909 0.0
H7 H 0.34405 0.26054 0.16005 0.0
H8 H 0.30985 0.29856 0.15952 0.0
H9 H 0.28701 0.32313 0.13865 0.0
H10 H 0.26307 0.34611 0.20787 0.0
H11 H 0.28553 0.32168 0.22868 0.0
H12 H 0.28203 0.29007 0.27276 0.0
H13 H 0.25954 0.27527 0.30856 0.0
H14 H 0.29233 0.21582 0.30474 0.0
H15 H 0.31517 0.23069 0.26907 0.0
N16 N 0.32539 0.2566 0.23192 0.0
N17 N 0.32466 0.27843 0.19704 0.0
N18 N 0.3028 0.28543 0.23183 0.0
C19 C 0.33275 0.26153 0.20872 0.0
C20 C 0.3098 0.2906 0.20865 0.0
C21 C 0.31043 0.2685 0.24362 0.0
C22 C 0.3481 0.24746 0.19596 0.0
C23 C 0.35846 0.23182 0.20896 0.0
C24 C 0.37168 0.21747 0.19695 0.0
C25 C 0.37482 0.2183 0.17162 0.0
C26 C 0.36488 0.23421 0.15861 0.0
C27 C 0.35175 0.24871 0.17066 0.0
C28 C 0.29922 0.30783 0.19578 0.0
C29 C 0.30004 0.30914 0.17028 0.0
C30 C 0.287 0.32323 0.15832 0.0
C31 C 0.27293 0.33621 0.17164 0.0
C32 C 0.27332 0.33591 0.19711 0.0
C33 C 0.28628 0.32191 0.20902 0.0
C34 C 0.30011 0.26138 0.26771 0.0
C35 C 0.28479 0.27401 0.27972 0.0
C36 C 0.26119 0.91796 0.58693 0.0
C37 C 0.2434 0.90438 0.57332 0.0
C38 C 0.24827 0.88419 0.56268 0.0
C39 C 0.27029 0.87763 0.56593 0.0
H40 H 0.32227 0.84386 0.53159 0.0
H41 H 0.33811 0.8166 0.50555 0.0
H42 H 0.39569 0.81706 0.55552 0.0
H43 H 0.38041 0.84448 0.58106 0.0
H44 H 0.38452 0.87392 0.62834 0.0
H45 H 0.40359 0.88596 0.66684 0.0
H46 H 0.34853 0.92485 0.68372 0.0
H47 H 0.32981 0.91337 0.64527 0.0
H48 H 0.29615 0.92209 0.60123 0.0
H49 H 0.2584 0.93394 0.59479 0.0
H50 H 0.23493 0.87322 0.55224 0.0
H51 H 0.27343 0.86184 0.55787 0.0
N52 N 0.31932 0.86906 0.5699 0.0
N53 N 0.35201 0.87021 0.59546 0.0
N54 N 0.32254 0.89139 0.60542 0.0
C55 C 0.34023 0.86237 0.57491 0.0
C56 C 0.34325 0.88472 0.61081 0.0
C57 C 0.31047 0.88368 0.58509 0.0
C58 C 0.35 0.84637 0.55851 0.0
C59 C 0.33842 0.83828 0.53692 0.0
C60 C 0.34745 0.82261 0.522 0.0
C61 C 0.36825 0.81475 0.52835 0.0
C62 C 0.37993 0.82311 0.54975 0.0
C63 C 0.37099 0.83873 0.56458 0.0
C64 C 0.35557 0.89262 0.63366 0.0
C65 C 0.37657 0.88518 0.64017 0.0
C66 C 0.38745 0.89197 0.6623 0.0
C67 C 0.37759 0.90637 0.67833 0.0
C68 C 0.35681 0.91404 0.67164 0.0
C69 C 0.34596 0.90729 0.64959 0.0
C70 C 0.28772 0.89099 0.58012 0.0
C71 C 0.28296 0.91126 0.59046 0.0
C72 C 0.65046 0.28522 0.8971 0.0
C73 C 0.62854 0.27315 0.88903 0.0
C74 C 0.61713 0.28268 0.87026 0.0
C75 C 0.62726 0.30357 0.86006 0.0
H76 H 0.61594 0.35615 0.8102 0.0
H77 H 0.59958 0.37246 0.77513 0.0
H78 H 0.66677 0.41645 0.76346 0.0
H79 H 0.68305 0.40042 0.79849 0.0
H80 H 0.71433 0.41363 0.85049 0.0
H81 H 0.75033 0.43384 0.86973 0.0
H82 H 0.75445 0.37512 0.91234 0.0
H83 H 0.71871 0.35491 0.89318 0.0
H84 H 0.67742 0.31456 0.89387 0.0
H85 H 0.66017 0.27845 0.9111 0.0
H86 H 0.60012 0.27417 0.86364 0.0
H87 H 0.61783 0.3103 0.84579 0.0
N88 N 0.65056 0.34695 0.83847 0.0
N89 N 0.68143 0.37853 0.83928 0.0
N90 N 0.6805 0.34973 0.86765 0.0
C91 C 0.66113 0.36719 0.82898 0.0
C92 C 0.69123 0.36998 0.85868 0.0
C93 C 0.66022 0.33802 0.85782 0.0
C94 C 0.6509 0.37689 0.80738 0.0
C95 C 0.62727 0.36929 0.80017 0.0
C96 C 0.61781 0.37874 0.78009 0.0
C97 C 0.63182 0.39579 0.76631 0.0
C98 C 0.65547 0.40322 0.77341 0.0
C99 C 0.66479 0.39407 0.79368 0.0
C100 C 0.71343 0.38252 0.87015 0.0
C101 C 0.72291 0.40497 0.86392 0.0
C102 C 0.74353 0.41665 0.87509 0.0
C103 C 0.75545 0.40617 0.89261 0.0
C104 C 0.74601 0.38371 0.89874 0.0
C105 C 0.72533 0.37212 0.88778 0.0
C106 C 0.64911 0.31564 0.86831 0.0
C107 C 0.66051 0.30605 0.887 0.0
C108 C 0.784 0.66719 0.40016 0.0
C109 C 0.77305 0.64568 0.39188 0.0
C110 C 0.78353 0.63582 0.37205 0.0
C111 C 0.80452 0.64707 0.36103 0.0
H112 H 0.85159 0.64376 0.30368 0.0
H113 H 0.86912 0.6268 0.26917 0.0
H114 H 0.92985 0.68073 0.27126 0.0
H115 H 0.91194 0.69813 0.30558 0.0
H116 H 0.91169 0.74024 0.34635 0.0
H117 H 0.92817 0.777 0.36464 0.0
H118 H 0.86713 0.77195 0.41261 0.0
H119 H 0.85063 0.73579 0.3944 0.0
H120 H 0.81266 0.69493 0.39625 0.0
H121 H 0.7763 0.67556 0.41505 0.0
H122 H 0.77574 0.61919 0.36528 0.0
H123 H 0.81215 0.63886 0.34596 0.0
N124 N 0.84854 0.67161 0.339 0.0
N125 N 0.87943 0.70317 0.33857 0.0
N126 N 0.84855 0.70096 0.36746 0.0
C127 C 0.86919 0.68271 0.32895 0.0
C128 C 0.86911 0.71244 0.35789 0.0
C129 C 0.83809 0.68061 0.35829 0.0
C130 C 0.88027 0.67241 0.30766 0.0
C131 C 0.86869 0.6521 0.29689 0.0
C132 C 0.87889 0.64221 0.27705 0.0
C133 C 0.90108 0.6522 0.2673 0.0
C134 C 0.91264 0.67259 0.27798 0.0
C135 C 0.90239 0.68254 0.29784 0.0
C136 C 0.87973 0.73488 0.36873 0.0
C137 C 0.90177 0.74699 0.36077 0.0
C138 C 0.9113 0.76804 0.37137 0.0
C139 C 0.89894 0.7776 0.39006 0.0
C140 C 0.87701 0.76541 0.39801 0.0
C141 C 0.86759 0.74446 0.38757 0.0
C142 C 0.81557 0.66851 0.36952 0.0
C143 C 0.8049 0.67841 0.38919 0.0
C144 C 0.67525 0.84529 0.85514 0.0
C145 C 0.67175 0.84426 0.88042 0.0
C146 C 0.68084 0.82778 0.89336 0.0
C147 C 0.69341 0.81282 0.88129 0.0
H148 H 0.72148 0.75319 0.88986 0.0
H149 H 0.73804 0.72437 0.91127 0.0
H150 H 0.77981 0.71361 0.84745 0.0
H151 H 0.76285 0.7415 0.82598 0.0
H152 H 0.7624 0.76855 0.7807 0.0
H153 H 0.78415 0.78124 0.7439 0.0
H154 H 0.75211 0.84119 0.7447 0.0
H155 H 0.7306 0.82876 0.78202 0.0
H156 H 0.69059 0.83203 0.82364 0.0
H157 H 0.66865 0.85794 0.84469 0.0
H158 H 0.67822 0.82645 0.91284 0.0
H159 H 0.70038 0.80049 0.89186 0.0
N160 N 0.71837 0.7815 0.85486 0.0
N161 N 0.7404 0.77366 0.82053 0.0
N162 N 0.72012 0.80421 0.82034 0.0
C163 C 0.73252 0.76849 0.84346 0.0
C164 C 0.73433 0.7914 0.8088 0.0
C165 C 0.71196 0.79934 0.84332 0.0
C166 C 0.74089 0.74984 0.85621 0.0
C167 C 0.73396 0.74444 0.88032 0.0
C168 C 0.74355 0.72799 0.89264 0.0
C169 C 0.76031 0.71663 0.88113 0.0
C170 C 0.76665 0.72163 0.85682 0.0
C171 C 0.75702 0.73789 0.84453 0.0
C172 C 0.74495 0.79778 0.78461 0.0
C173 C 0.75971 0.78433 0.77297 0.0
C174 C 0.77209 0.79152 0.75168 0.0
C175 C 0.77002 0.81232 0.74144 0.0
C176 C 0.75436 0.82525 0.75236 0.0
C177 C 0.74194 0.81805 0.7737 0.0
C178 C 0.69737 0.81418 0.85604 0.0
C179 C 0.68797 0.83049 0.8431 0.0
C180 C 0.68316 0.16943 0.37519 0.0
C181 C 0.65993 0.17331 0.37194 0.0
C182 C 0.64811 0.18212 0.39144 0.0
C183 C 0.65951 0.1873 0.41367 0.0
H184 H 0.65071 0.20909 0.48542 0.0
H185 H 0.63351 0.23163 0.51561 0.0
H186 H 0.70204 0.25104 0.5489 0.0
H187 H 0.71945 0.22839 0.51859 0.0
H188 H 0.76001 0.19863 0.50219 0.0
H189 H 0.79759 0.18536 0.5075 0.0
H190 H 0.79011 0.15273 0.43693 0.0
H191 H 0.7527 0.16571 0.43153 0.0
H192 H 0.71243 0.17126 0.399 0.0
H193 H 0.69257 0.16226 0.36065 0.0
H194 H 0.6302 0.18533 0.3894 0.0
H195 H 0.65003 0.19425 0.4283 0.0
N196 N 0.6854 0.19964 0.45857 0.0
N197 N 0.71938 0.20003 0.48213 0.0
N198 N 0.71738 0.18418 0.44293 0.0
C199 C 0.69729 0.20513 0.47965 0.0
C200 C 0.72949 0.18946 0.4638 0.0
C201 C 0.69541 0.18921 0.44008 0.0
C202 C 0.68651 0.21711 0.49941 0.0
C203 C 0.66211 0.2179 0.49932 0.0
C204 C 0.65218 0.23062 0.51681 0.0
C205 C 0.66643 0.24299 0.53468 0.0
C206 C 0.69067 0.24164 0.53532 0.0
C207 C 0.70059 0.22867 0.51796 0.0
C208 C 0.75314 0.18304 0.46656 0.0
C209 C 0.76645 0.18877 0.48772 0.0
C210 C 0.78804 0.18133 0.49071 0.0
C211 C 0.79662 0.1679 0.47268 0.0
C212 C 0.78374 0.16282 0.45124 0.0
C213 C 0.7623 0.17034 0.44817 0.0
C214 C 0.68288 0.18358 0.41682 0.0
C215 C 0.69448 0.17447 0.39732 0.0
C216 C 0.29054 0.64661 0.18505 0.0
C217 C 0.28068 0.65613 0.16523 0.0
C218 C 0.29276 0.67694 0.15647 0.0
C219 C 0.31381 0.68795 0.16721 0.0
H220 H 0.35621 0.75032 0.17156 0.0
H221 H 0.37363 0.78632 0.15424 0.0
H222 H 0.44032 0.78243 0.18827 0.0
H223 H 0.42236 0.7466 0.20656 0.0
H224 H 0.40727 0.71316 0.26278 0.0
H225 H 0.42362 0.69572 0.29712 0.0
H226 H 0.3865 0.6303 0.27397 0.0
H227 H 0.36986 0.64765 0.23998 0.0
H228 H 0.31852 0.64979 0.21108 0.0
H229 H 0.28172 0.63076 0.19257 0.0
H230 H 0.28613 0.6847 0.14101 0.0
H231 H 0.32241 0.70392 0.15978 0.0
N232 N 0.3565 0.71126 0.19043 0.0
N233 N 0.38671 0.71318 0.2192 0.0
N234 N 0.35622 0.68132 0.2172 0.0
C235 C 0.3768 0.72271 0.20044 0.0
C236 C 0.3765 0.69244 0.22774 0.0
C237 C 0.34603 0.69061 0.19856 0.0
C238 C 0.38781 0.7453 0.19051 0.0
C239 C 0.3746 0.75708 0.17547 0.0
C240 C 0.38475 0.77782 0.16527 0.0
C241 C 0.40864 0.78754 0.16943 0.0
C242 C 0.42182 0.77585 0.18473 0.0
C243 C 0.41153 0.75514 0.1952 0.0
C244 C 0.38716 0.6819 0.24846 0.0
C245 C 0.40262 0.69505 0.26494 0.0
C246 C 0.4119 0.68506 0.28476 0.0
C247 C 0.40643 0.66156 0.28838 0.0
C248 C 0.39127 0.6484 0.27171 0.0
C249 C 0.38161 0.65842 0.25222 0.0
C250 C 0.32362 0.67853 0.1871 0.0
C251 C 0.31167 0.65763 0.19581 0.0
C252 C 0.15516 0.29537 0.66136 0.0
C253 C 0.13454 0.28282 0.67187 0.0
C254 C 0.12492 0.29172 0.69286 0.0
C255 C 0.13557 0.31264 0.70291 0.0
H256 H 0.12486 0.36575 0.7523 0.0
H257 H 0.10778 0.38386 0.78655 0.0
H258 H 0.17359 0.43106 0.79425 0.0
H259 H 0.19025 0.41353 0.75954 0.0
H260 H 0.22623 0.4204 0.71227 0.0
H261 H 0.2627 0.43904 0.69232 0.0
H262 H 0.26173 0.38067 0.64529 0.0
H263 H 0.2252 0.36235 0.66466 0.0
H264 H 0.18171 0.32512 0.66265 0.0
H265 H 0.16335 0.28898 0.64545 0.0
H266 H 0.10895 0.28265 0.70136 0.0
H267 H 0.1276 0.31896 0.71899 0.0
N268 N 0.1584 0.35715 0.72222 0.0
N269 N 0.19018 0.38786 0.72118 0.0
N270 N 0.18865 0.35821 0.69278 0.0
C271 C 0.16942 0.37741 0.73159 0.0
C272 C 0.19992 0.37839 0.70173 0.0
C273 C 0.16796 0.3474 0.70278 0.0
C274 C 0.15898 0.38814 0.75294 0.0
C275 C 0.13571 0.38 0.76128 0.0
C276 C 0.12593 0.39037 0.78112 0.0
C277 C 0.13917 0.40909 0.79339 0.0
C278 C 0.16253 0.41704 0.78513 0.0
C279 C 0.17222 0.40682 0.7652 0.0
C280 C 0.22255 0.38983 0.6901 0.0
C281 C 0.23378 0.41152 0.69767 0.0
C282 C 0.25483 0.4222 0.68628 0.0
C283 C 0.26524 0.41148 0.66702 0.0
C284 C 0.2541 0.38971 0.65968 0.0
C285 C 0.2331 0.37909 0.67099 0.0
C286 C 0.15621 0.32517 0.69232 0.0
C287 C 0.16582 0.31615 0.6714 0.0
La288 La 0.02169 0.04079 0.50833 0.0
La289 La 1.00481 1.02084 0.5566 0.0
C290 C 0.02907 0.05847 0.46737 0.0
C291 C 0.04912 0.07446 0.4569 0.0
C292 C 0.07173 0.06853 0.45403 0.0
C293 C 0.0908 0.08413 0.4452 0.0
C294 C 0.08778 0.10607 0.43917 0.0
C295 C 0.06509 0.1119 0.44179 0.0
C296 C 0.04595 0.09623 0.4505 0.0
C297 C 0.05303 1.02269 0.53231 0.0
C298 C 0.03643 0.06898 0.55597 0.0
C299 C 0.99538 0.99704 0.59382 0.0
C300 C 0.98615 0.97342 0.59971 0.0
C301 C 0.97854 0.96835 0.62354 0.0
C302 C 0.96526 0.94725 0.62894 0.0
C303 C 0.95925 0.93083 0.61051 0.0
C304 C 0.96823 0.93549 0.58684 0.0
C305 C 0.98168 0.95665 0.5815 0.0
C306 C 0.98145 0.05137 0.54029 0.0
C307 C 0.98889 0.99231 0.50854 0.0
O308 O 0.03323 0.03828 0.47233 0.0
O309 O 0.01681 0.06661 0.48468 0.0
O310 O 0.05839 0.04031 0.51884 0.0
O311 O 0.0312 1.01536 0.53082 0.0
O312 O 0.03089 0.06992 0.53279 0.0
O313 O 0.03133 0.04984 0.56814 0.0
O314 O 0.98018 1.00748 0.5832 0.0
O315 O 0.01671 1.00173 0.58405 0.0
O316 O 0.98573 0.04892 0.563 0.0
O317 O 0.98901 0.03634 0.52787 0.0
O318 O 0.98837 0.99325 0.53259 0.0
O319 O 0.99997 1.00933 0.49543 0.0
H320 H 0.07484 0.05189 0.45874 0.0
H321 H 0.1079 0.07892 0.44295 0.0
H322 H 0.06219 0.12872 0.43752 0.0
H323 H 0.02872 0.10122 0.45259 0.0
H324 H 0.9817 0.98116 0.63777 0.0
H325 H 0.95839 0.94439 0.64727 0.0
H326 H 0.96412 0.9231 0.57232 0.0
H327 H 0.98763 0.96023 0.56302 0.0
La328 La 0.54463 0.03902 0.04448 0.0
La329 La 0.49896 1.0188 1.0124 0.0
C330 C 0.57948 0.06485 0.06252 0.0
C331 C 0.58539 0.07293 0.08735 0.0
C332 C 0.57718 0.05956 0.1074 0.0
C333 C 0.58104 0.06821 0.13097 0.0
C334 C 0.59295 0.09049 0.13489 0.0
C335 C 0.60133 0.10373 0.11469 0.0
C336 C 0.59758 0.09499 0.09113 0.0
C337 C 0.51847 1.00178 0.06386 0.0
C338 C 0.49436 0.05259 0.05654 0.0
C339 C 0.46371 0.9931 0.99508 0.0
C340 C 0.4572 0.98441 0.97048 0.0
C341 C 0.43525 0.98697 0.96096 0.0
C342 C 0.42927 0.97976 0.93725 0.0
C343 C 0.44509 0.9697 0.92275 0.0
C344 C 0.46693 0.96687 0.93242 0.0
C345 C 0.47299 0.97425 0.95602 0.0
C346 C 0.5251 0.05582 0.99263 0.0
C347 C 0.54929 1.0056 1.00009 0.0
O348 O 0.57924 0.04328 0.05803 0.0
O349 O 0.56111 0.07192 0.05348 0.0
O350 O 0.53811 1.01267 0.07283 0.0
O351 O 0.51485 1.01273 0.04546 0.0
O352 O 0.5177 0.05698 0.05932 0.0
O353 O 0.48334 0.0369 0.04139 0.0
O354 O 0.46444 1.01487 0.99859 0.0
O355 O 0.48167 0.98586 1.00497 0.0
O356 O 0.50609 0.04419 0.98312 0.0
O357 O 0.52836 0.04565 1.01174 0.0
O358 O 0.52589 1.00067 0.99787 0.0
O359 O 0.56023 1.02171 1.01484 0.0
H360 H 0.56745 0.04255 0.10487 0.0
H361 H 0.57464 0.05746 0.1461 0.0
H362 H 0.61023 0.12105 0.11703 0.0
H363 H 0.60371 0.10566 0.07582 0.0
H364 H 0.42284 0.99477 0.9718 0.0
H365 H 0.41224 0.98198 0.93027 0.0
H366 H 0.47956 0.9594 0.92154 0.0
H367 H 0.49015 0.97222 0.96279 0.0
La368 La 0.52064 0.51018 0.51179 0.0
La369 La 0.51652 0.54765 0.54461 0.0
C370 C 0.53609 0.47838 0.49057 0.0
C371 C 0.5426 0.45828 0.5015 0.0
C372 C 0.53186 0.4501 0.52348 0.0
C373 C 0.53974 0.4326 0.53544 0.0
C374 C 0.55862 0.42309 0.52571 0.0
C375 C 0.5692 0.43117 0.50358 0.0
C376 C 0.56125 0.44867 0.49157 0.0
C377 C 0.47927 0.50592 0.535 0.0
C378 C 0.53825 0.5093 0.56727 0.0
C379 C 0.50032 0.57915 0.56546 0.0
C380 C 0.49177 0.59836 0.55439 0.0
C381 C 0.50621 0.61265 0.53806 0.0
C382 C 0.4969 0.62886 0.5252 0.0
C383 C 0.47295 0.63079 0.52817 0.0
C384 C 0.45861 0.61672 0.54465 0.0
C385 C 0.46797 0.60072 0.55774 0.0
C386 C 0.55799 0.5516 0.52178 0.0
C387 C 0.4993 0.54867 0.48895 0.0
O388 O 0.51354 0.47978 0.4918 0.0
O389 O 0.54965 0.49741 0.49676 0.0
O390 O 0.48205 0.49948 0.51276 0.0
O391 O 0.49938 0.51332 0.54374 0.0
O392 O 0.53981 0.50226 0.54443 0.0
O393 O 0.52665 0.52598 0.57263 0.0
O394 O 0.52308 0.57876 0.56339 0.0
O395 O 0.48742 0.55938 0.56077 0.0
O396 O 0.55515 0.55799 0.54405 0.0
O397 O 0.5379 0.54447 0.5128 0.0
O398 O 0.49778 0.55584 0.51175 0.0
O399 O 0.51076 0.53187 0.48375 0.0
H400 H 0.51771 0.45761 0.53173 0.0
H401 H 0.53146 0.42687 0.55259 0.0
H402 H 0.58364 0.42394 0.49555 0.0
H403 H 0.56994 0.45499 0.47482 0.0
H404 H 0.52453 0.61098 0.53471 0.0
H405 H 0.50826 0.63954 0.51256 0.0
H406 H 0.44015 0.61819 0.5475 0.0
H407 H 0.45645 0.58975 0.57 0.0
La408 La 0.01966 0.50983 0.03887 0.0
La409 La 0.01662 0.55377 1.01719 0.0
C410 C 0.03322 0.47378 0.05054 0.0
C411 C 0.05527 0.46692 0.05914 0.0
C412 C 0.05983 0.46626 0.08409 0.0
C413 C 0.07989 0.45837 0.09216 0.0
C414 C 0.09577 0.45084 0.07548 0.0
C415 C 0.09144 0.45191 0.05051 0.0
C416 C 0.07138 0.45978 0.04244 0.0
C417 C 0.99556 0.53525 0.06567 0.0
C418 C 0.0622 0.55206 0.04657 0.0
C419 C 1.00314 0.58915 1.00339 0.0
C420 C 0.98036 0.59478 0.99554 0.0
C421 C 0.97897 0.60422 0.97261 0.0
C422 C 0.95765 0.60982 0.9648 0.0
C423 C 0.93736 0.60629 0.97992 0.0
C424 C 0.93868 0.59662 1.00279 0.0
C425 C 0.95994 0.59079 1.0105 0.0
C426 C 0.04089 0.52818 0.99089 0.0
C427 C 0.97367 0.51202 1.01056 0.0
O428 O 0.02221 0.48573 0.06547 0.0
O429 O 0.03359 0.4811 0.02829 0.0
O430 O 0.99041 0.51338 0.06395 0.0
O431 O 0.0143 0.54192 0.05353 0.0
O432 O 0.05523 0.5298 0.04625 0.0
O433 O 0.04853 0.56563 0.03796 0.0
O434 O 1.0127 0.57576 0.98884 0.0
O435 O 1.00467 0.58393 0.02622 0.0
O436 O 0.04641 0.54998 0.99287 0.0
O437 O 0.02187 0.52172 1.00261 0.0
O438 O 0.98048 0.53426 1.0117 0.0
O439 O 0.98772 0.49833 1.01801 0.0
H440 H 0.04772 0.47151 0.09745 0.0
H441 H 0.08286 0.45799 0.11151 0.0
H442 H 0.10313 0.44594 0.03719 0.0
H443 H 0.06826 0.45983 1.02309 0.0
H444 H 0.99446 0.6074 0.96076 0.0
H445 H 0.9572 0.61746 0.94718 0.0
H446 H 0.92323 0.59354 1.0147 0.0
H447 H 0.96037 0.58328 0.02819 0.0
H448 H 0.22626 0.24341 0.31172 0.0
H449 H 0.19765 0.22294 0.34007 0.0
H450 H 0.25435 0.19964 0.37748 0.0
H451 H 0.28326 0.22005 0.34873 0.0
H452 H 0.21989 0.16576 0.36888 0.0
H453 H 0.22323 0.2387 0.4042 0.0
H454 H 0.22326 0.27971 0.40554 0.0
H455 H 0.15224 0.26866 0.37817 0.0
H456 H 0.15189 0.2276 0.37632 0.0
H457 H 0.13375 0.11301 0.45485 0.0
H458 H 0.16781 0.13888 0.43829 0.0
H459 H 0.12224 0.16293 0.38687 0.0
H460 H 0.08818 0.13676 0.40289 0.0
H461 H 0.1545 0.19763 0.40888 0.0
H462 H 0.15439 0.12495 0.36898 0.0
H463 H 0.15482 0.084 0.36828 0.0
H464 H 0.22101 0.09531 0.40611 0.0
H465 H 0.22079 0.13634 0.40733 0.0
C466 C 0.23275 0.23438 0.32631 0.0
C467 C 0.25705 0.23348 0.3281 0.0
C468 C 0.21634 0.22267 0.34256 0.0
C469 C 0.22385 0.21002 0.36118 0.0
C470 C 0.24816 0.20937 0.3633 0.0
C471 C 0.26464 0.221 0.34688 0.0
C472 C 0.20598 0.19618 0.37706 0.0
C473 C 0.20593 0.17286 0.37811 0.0
C474 C 0.18753 0.20533 0.38884 0.0
C475 C 0.1876 0.23005 0.38999 0.0
C476 C 0.20767 0.24502 0.3983 0.0
C477 C 0.20773 0.26828 0.39918 0.0
C478 C 0.18777 0.27679 0.39191 0.0
C479 C 0.16769 0.26205 0.3838 0.0
C480 C 0.16753 0.23877 0.38287 0.0
C481 C 0.13098 0.1237 0.43992 0.0
C482 C 0.10825 0.12267 0.43006 0.0
C483 C 0.15043 0.13856 0.4306 0.0
C484 C 0.14752 0.15268 0.41128 0.0
C485 C 0.1248 0.15221 0.40187 0.0
C486 C 0.10535 0.13728 0.41109 0.0
C487 C 0.16825 0.16733 0.40014 0.0
C488 C 0.16877 0.19073 0.4 0.0
C489 C 0.18723 0.1583 0.38938 0.0
C490 C 0.18743 0.13367 0.3885 0.0
C491 C 0.16893 0.11868 0.37733 0.0
C492 C 0.16916 0.09547 0.3768 0.0
C493 C 0.1879 0.08705 0.38721 0.0
C494 C 0.20649 0.10185 0.3981 0.0
C495 C 0.20633 0.12508 0.3987 0.0
H496 H 0.18804 0.06907 0.38678 0.0
H497 H 0.18786 0.29481 0.3926 0.0
H498 H 0.38336 0.9478 0.70088 0.0
H499 H 0.39759 0.95762 0.74186 0.0
H500 H 0.41098 0.88983 0.75089 0.0
H501 H 0.39579 0.87959 0.71019 0.0
H502 H 0.3878 0.90267 0.78913 0.0
H503 H 0.45681 0.93462 0.7437 0.0
H504 H 0.47981 0.95746 0.71182 0.0
H505 H 0.45944 1.01753 0.74237 0.0
H506 H 0.43603 0.995 0.77425 0.0
H507 H 0.44981 0.92987 0.90028 0.0
H508 H 0.44067 0.91851 0.85806 0.0
H509 H 0.41791 0.98208 0.84593 0.0
H510 H 0.42716 0.99361 0.88807 0.0
H511 H 0.44814 0.97003 0.80928 0.0
H512 H 0.37735 0.93711 0.85327 0.0
H513 H 0.35474 0.91394 0.88516 0.0
H514 H 0.37958 0.85509 0.85706 0.0
H515 H 0.40264 0.878 0.82518 0.0
C516 C 0.38933 0.93496 0.71158 0.0
C517 C 0.38835 0.91289 0.70232 0.0
C518 C 0.39771 0.94067 0.73491 0.0
C519 C 0.40557 0.92451 0.74935 0.0
C520 C 0.40507 0.90257 0.74 0.0
C521 C 0.39659 0.89681 0.71667 0.0
C522 C 0.41308 0.93026 0.77465 0.0
C523 C 0.40133 0.91715 0.79349 0.0
C524 C 0.43037 0.94943 0.78037 0.0
C525 C 0.4445 0.96308 0.76126 0.0
C526 C 0.45708 0.95267 0.74352 0.0
C527 C 0.47022 0.96558 0.72546 0.0
C528 C 0.47105 0.98893 0.72504 0.0
C529 C 0.45877 0.99944 0.74271 0.0
C530 C 0.44559 0.98661 0.7608 0.0
C531 C 0.44292 0.94143 0.88856 0.0
C532 C 0.43911 0.96258 0.89742 0.0
C533 C 0.43762 0.93489 0.86454 0.0
C534 C 0.42854 0.94944 0.84899 0.0
C535 C 0.4249 0.97064 0.85771 0.0
C536 C 0.43 0.97711 0.88178 0.0
C537 C 0.42273 0.94254 0.82359 0.0
C538 C 0.43479 0.95544 0.8048 0.0
C539 C 0.40583 0.92312 0.8179 0.0
C540 C 0.39193 0.90932 0.83701 0.0
C541 C 0.37817 0.91927 0.85402 0.0
C542 C 0.36524 0.90618 0.87207 0.0
C543 C 0.36578 0.88307 0.87318 0.0
C544 C 0.37921 0.873 0.8562 0.0
C545 C 0.3922 0.88602 0.83813 0.0
H546 H 0.35575 0.87297 0.88716 0.0
H547 H 0.48123 0.99889 0.71104 0.0
H548 H 0.65262 0.40501 0.7214 0.0
H549 H 0.63723 0.42238 0.68671 0.0
H550 H 0.57339 0.42758 0.72753 0.0
H551 H 0.5885 0.40942 0.76205 0.0
H552 H 0.56073 0.41751 0.68396 0.0
H553 H 0.6228 0.47401 0.71655 0.0
H554 H 0.66331 0.48971 0.73012 0.0
H555 H 0.69085 0.47913 0.65868 0.0
H556 H 0.65055 0.46314 0.64474 0.0
H557 H 0.52802 0.50926 0.61628 0.0
H558 H 0.54402 0.48842 0.64823 0.0
H559 H 0.58799 0.46133 0.5952 0.0
H560 H 0.57157 0.48155 0.56301 0.0
H561 H 0.61112 0.48193 0.64289 0.0
H562 H 0.54882 0.42555 0.61063 0.0
H563 H 0.50796 0.41203 0.59674 0.0
H564 H 0.4808 0.42451 0.66788 0.0
H565 H 0.52153 0.43846 0.68209 0.0
C566 C 0.63531 0.40988 0.72304 0.0
C567 C 0.62194 0.40591 0.74473 0.0
C568 C 0.62647 0.41994 0.70309 0.0
C569 C 0.6042 0.42693 0.70433 0.0
C570 C 0.59061 0.42251 0.72583 0.0
C571 C 0.59929 0.41209 0.74568 0.0
C572 C 0.59518 0.43895 0.68347 0.0
C573 C 0.5718 0.43175 0.6753 0.0
C574 C 0.60947 0.45736 0.6714 0.0
C575 C 0.63369 0.46712 0.67969 0.0
C576 C 0.63752 0.47489 0.70378 0.0
C577 C 0.66044 0.48387 0.71153 0.0
C578 C 0.67965 0.48535 0.69529 0.0
C579 C 0.67597 0.47793 0.67125 0.0
C580 C 0.65309 0.46892 0.66341 0.0
C581 C 0.54116 0.49895 0.61137 0.0
C582 C 0.54853 0.49724 0.58699 0.0
C583 C 0.55026 0.48697 0.62969 0.0
C584 C 0.56731 0.47332 0.62421 0.0
C585 C 0.57496 0.47181 0.59996 0.0
C586 C 0.56549 0.48338 0.58154 0.0
C587 C 0.57688 0.46052 0.6438 0.0
C588 C 0.60025 0.46763 0.65166 0.0
C589 C 0.56261 0.44215 0.65563 0.0
C590 C 0.53818 0.43327 0.64736 0.0
C591 C 0.53412 0.42558 0.62327 0.0
C592 C 0.51099 0.41781 0.61534 0.0
C593 C 0.49178 0.41748 0.6314 0.0
C594 C 0.49569 0.42481 0.65545 0.0
C595 C 0.51879 0.43263 0.66346 0.0
H596 H 0.47388 0.41151 0.62522 0.0
H597 H 0.69738 0.4923 0.70133 0.0
H598 H 0.9273 0.67262 0.2286 0.0
H599 H 0.94457 0.65461 0.19422 0.0
H600 H 0.91627 0.58901 0.22303 0.0
H601 H 0.8999 0.60686 0.25795 0.0
H602 H 0.95927 0.58864 0.20677 0.0
H603 H 0.89068 0.61284 0.17399 0.0
H604 H 0.86464 0.64002 0.16428 0.0
H605 H 0.92084 0.6788 0.12233 0.0
H606 H 0.94733 0.652 0.13205 0.0
H607 H 0.96248 0.52015 0.1006 0.0
H608 H 0.94805 0.54176 0.13399 0.0
H609 H 0.99167 0.60268 0.10791 0.0
H610 H 1.00676 0.58096 0.07478 0.0
H611 H 0.94304 0.60716 0.12191 0.0
H612 H 1.01107 0.58186 0.15387 0.0
H613 H 0.03635 0.55385 0.16286 0.0
H614 H 0.98014 0.51641 0.20592 0.0
H615 H 0.95438 0.54404 0.19687 0.0
C616 C 0.92494 0.65436 0.22783 0.0
C617 C 0.91198 0.6413 0.24619 0.0
C618 C 0.93463 0.64403 0.20791 0.0
C619 C 0.93149 0.62034 0.20564 0.0
C620 C 0.91892 0.60729 0.22413 0.0
C621 C 0.90931 0.61758 0.24407 0.0
C622 C 0.9413 0.60906 0.18418 0.0
C623 C 0.95544 0.59259 0.18826 0.0
C624 C 0.93694 0.61442 0.15984 0.0
C625 C 0.92106 0.63056 0.15398 0.0
C626 C 0.89754 0.62727 0.16286 0.0
C627 C 0.88269 0.64258 0.15732 0.0
C628 C 0.8911 0.66116 0.14276 0.0
C629 C 0.91437 0.66442 0.13364 0.0
C630 C 0.9293 0.64917 0.13915 0.0
C631 C 0.96895 0.53816 0.10186 0.0
C632 C 0.98575 0.54882 0.08495 0.0
C633 C 0.96069 0.55051 0.12101 0.0
C634 C 0.9688 0.57387 0.12356 0.0
C635 C 0.98509 0.5847 0.10631 0.0
C636 C 0.99368 0.57227 0.08734 0.0
C637 C 0.96066 0.58669 0.14464 0.0
C638 C 0.94689 0.60338 0.14047 0.0
C639 C 0.96525 0.58149 0.1689 0.0
C640 C 0.98071 0.5649 0.17449 0.0
C641 C 1.00402 0.56755 0.16508 0.0
C642 C 0.01846 0.55176 0.17022 0.0
C643 C 1.00984 0.53333 0.18491 0.0
C644 C 0.98678 0.53068 0.19453 0.0
C645 C 0.97226 0.54641 0.18941 0.0
H646 H 0.02104 0.52112 0.18887 0.0
H647 H 0.87958 0.673 0.13849 0.0
H648 H 0.36235 0.1943 0.12977 0.0
H649 H 0.38228 0.16571 0.11029 0.0
H650 H 0.43584 0.17642 0.16557 0.0
H651 H 0.4163 0.20538 0.18484 0.0
H652 H 0.45503 0.17286 0.12031 0.0
H653 H 0.39149 0.13181 0.16859 0.0
H654 H 0.34995 0.12089 0.18251 0.0
H655 H 0.32941 0.09788 0.11043 0.0
H656 H 0.37081 0.10897 0.09601 0.0
H657 H 0.50659 0.07681 0.09815 0.0
H658 H 0.48527 0.1038 0.11839 0.0
H659 H 0.42922 0.08859 0.06598 0.0
H660 H 0.45011 0.06091 0.0461 0.0
H661 H 0.411 0.09463 0.10936 0.0
H662 H 0.47419 0.13562 0.06079 0.0
H663 H 0.51569 0.14628 0.04659 0.0
H664 H 0.53673 0.16962 0.11843 0.0
H665 H 0.4954 0.15882 0.13313 0.0
C666 C 0.37856 0.1908 0.13757 0.0
C667 C 0.38771 0.20203 0.1589 0.0
C668 C 0.3898 0.17432 0.12656 0.0
C669 C 0.41035 0.16873 0.13669 0.0
C670 C 0.41993 0.1804 0.15753 0.0
C671 C 0.40867 0.19682 0.1686 0.0
C672 C 0.42169 0.15049 0.12579 0.0
C673 C 0.4455 0.1557 0.11816 0.0
C674 C 0.40907 0.12822 0.1225 0.0
C675 C 0.3842 0.12144 0.13117 0.0
C676 C 0.37808 0.12459 0.15567 0.0
C677 C 0.35457 0.11834 0.16366 0.0
C678 C 0.33704 0.10875 0.14735 0.0
C679 C 0.343 0.10534 0.12304 0.0
C680 C 0.36649 0.11159 0.11495 0.0
C681 C 0.4896 0.07902 0.09107 0.0
C682 C 0.48013 0.06689 0.07038 0.0
C683 C 0.47748 0.09455 0.10259 0.0
C684 C 0.45594 0.09867 0.09332 0.0
C685 C 0.44589 0.0858 0.07336 0.0
C686 C 0.45784 0.06997 0.06203 0.0
C687 C 0.44439 0.11696 0.10389 0.0
C688 C 0.42054 0.11179 0.11145 0.0
C689 C 0.45694 0.13932 0.107 0.0
C690 C 0.48173 0.14624 0.0981 0.0
C691 C 0.48769 0.14293 0.07358 0.0
C692 C 0.51118 0.149 0.06544 0.0
C693 C 0.52884 0.15858 0.08161 0.0
C694 C 0.52304 0.16219 0.10593 0.0
C695 C 0.49958 0.15612 0.11417 0.0
H696 H 0.54702 0.16325 0.07528 0.0
H697 H 0.31885 0.10392 0.15357 0.0
H698 H 0.21845 0.92545 0.60672 0.0
H699 H 0.18284 0.94129 0.6002 0.0
H700 H 0.17862 0.91413 0.52702 0.0
H701 H 0.21544 0.89972 0.5328 0.0
H702 H 0.17269 0.95461 0.52545 0.0
H703 H 0.13778 0.89309 0.57393 0.0
H704 H 0.13297 0.86709 0.6085 0.0
H705 H 0.12543 0.92194 0.65727 0.0
H706 H 0.13053 0.94835 0.62305 0.0
H707 H 0.04432 0.97855 0.54539 0.0
H708 H 0.07371 0.95455 0.55312 0.0
H709 H 0.1299 1.01232 0.54604 0.0
H710 H 0.10059 0.03615 0.53723 0.0
H711 H 0.10594 0.95154 0.58461 0.0
H712 H 0.17709 0.99829 0.51778 0.0
H713 H 0.17861 1.02037 0.48026 0.0
H714 H 0.10814 0.9871 0.46256 0.0
H715 H 0.10633 0.96459 0.49977 0.0
C716 C 0.21007 0.92293 0.58915 0.0
C717 C 0.22008 0.91158 0.57016 0.0
C718 C 0.1894 0.93166 0.5856 0.0
C719 C 0.17784 0.92873 0.56319 0.0
C720 C 0.18722 0.91662 0.54449 0.0
C721 C 0.20817 0.90818 0.5479 0.0
C722 C 0.15721 0.93996 0.55873 0.0
C723 C 0.15802 0.95375 0.53832 0.0
C724 C 0.13776 0.93855 0.57522 0.0
C725 C 0.13471 0.92274 0.59591 0.0
C726 C 0.13527 0.89965 0.59205 0.0
C727 C 0.13246 0.88483 0.61158 0.0
C728 C 0.12894 0.89286 0.63507 0.0
C729 C 0.12817 0.91574 0.63907 0.0
C730 C 0.13099 0.93064 0.6196 0.0
C731 C 0.06295 0.98613 0.5457 0.0
C732 C 0.07033 1.00908 0.54037 0.0
C733 C 0.0797 0.97243 0.55016 0.0
C734 C 0.10403 0.98153 0.54959 0.0
C735 C 0.11126 1.00481 0.54589 0.0
C736 C 0.09454 1.01843 0.54102 0.0
C737 C 0.1219 0.96658 0.55176 0.0
C738 C 0.12053 0.95215 0.57169 0.0
C739 C 0.1404 0.96673 0.53437 0.0
C740 C 0.14152 0.9799 0.51168 0.0
C741 C 0.16198 0.9956 0.50581 0.0
C742 C 0.16288 1.00821 0.48461 0.0
C743 C 0.14346 1.00519 0.46908 0.0
C744 C 0.12314 0.98948 0.47465 0.0
C745 C 0.12216 0.9768 0.4958 0.0
H746 H 0.14418 1.015 0.4527 0.0
H747 H 0.12677 0.88136 0.65017 0.0
H748 H 0.79616 0.38994 0.90285 0.0
H749 H 0.83172 0.40933 0.92328 0.0
H750 H 0.80078 0.46962 0.93016 0.0
H751 H 0.7652 0.45033 0.90928 0.0
H752 H 0.84572 0.48159 0.91949 0.0
H753 H 0.80384 0.43319 0.97926 0.0
H754 H 0.78279 0.39749 0.99644 0.0
H755 H 0.84556 0.36799 0.98737 0.0
H756 H 0.86691 0.40342 0.96981 0.0
H757 H 0.93564 0.53318 1.00207 0.0
H758 H 0.89764 0.51705 0.98365 0.0
H759 H 0.92107 0.45293 0.97482 0.0
H760 H 0.95851 0.46868 0.99425 0.0
H761 H 0.87777 0.44485 0.98845 0.0
H762 H 0.91848 0.4942 0.92583 0.0
H763 H 0.93854 0.53093 0.91008 0.0
H764 H 0.87665 0.55995 0.92699 0.0
H765 H 0.85635 0.52339 0.94303 0.0
C766 C 0.7968 0.40729 0.90882 0.0
C767 C 0.77758 0.41843 0.90454 0.0
C768 C 0.81723 0.41841 0.92059 0.0
C769 C 0.81896 0.44092 0.92886 0.0
C770 C 0.80002 0.45228 0.92412 0.0
C771 C 0.77963 0.4412 0.91211 0.0
C772 C 0.84046 0.45244 0.94245 0.0
C773 C 0.85252 0.47363 0.93476 0.0
C774 C 0.84966 0.44223 0.96239 0.0
C775 C 0.83691 0.42091 0.97302 0.0
C776 C 0.81311 0.41904 0.98077 0.0
C777 C 0.80113 0.39886 0.9906 0.0
C778 C 0.81281 0.38047 0.99294 0.0
C779 C 0.83653 0.38224 0.98552 0.0
C780 C 0.84858 0.40238 0.97565 0.0
C781 C 0.93267 0.51562 0.99627 0.0
C782 C 0.95024 0.50227 0.99969 0.0
C783 C 0.91092 0.50641 0.98549 0.0
C784 C 0.90638 0.48376 0.97724 0.0
C785 C 0.9239 0.47042 0.98091 0.0
C786 C 0.94543 0.47948 0.99205 0.0
C787 C 0.88348 0.47369 0.96506 0.0
C788 C 0.87103 0.4528 0.97314 0.0
C789 C 0.87383 0.48431 0.94566 0.0
C790 C 0.88595 0.50613 0.93572 0.0
C791 C 0.9092 0.50844 0.92624 0.0
C792 C 0.9206 0.52921 0.91727 0.0
C793 C 0.90888 0.54775 0.91754 0.0
C794 C 0.88571 0.54556 0.92676 0.0
C795 C 0.87423 0.52482 0.93575 0.0
H796 H 0.91775 0.5638 0.91056 0.0
H797 H 0.80351 0.36486 1.00056 0.0
H798 H 0.76223 0.64412 0.44062 0.0
H799 H 0.72573 0.62582 0.4606 0.0
H800 H 0.69724 0.6011 0.39128 0.0
H801 H 0.73355 0.62011 0.37097 0.0
H802 H 0.66417 0.61715 0.41801 0.0
H803 H 0.7174 0.56577 0.43155 0.0
H804 H 0.75454 0.55409 0.44419 0.0
H805 H 0.74337 0.57673 0.51713 0.0
H806 H 0.70631 0.58885 0.50485 0.0
H807 H 0.5653 0.5455 0.47299 0.0
H808 H 0.60165 0.55853 0.44928 0.0
H809 H 0.63704 0.58609 0.51453 0.0
H810 H 0.60096 0.57275 0.53827 0.0
H811 H 0.66617 0.56597 0.48738 0.0
H812 H 0.61446 0.61961 0.47313 0.0
H813 H 0.57719 0.63112 0.46068 0.0
H814 H 0.58543 0.60396 0.38905 0.0
H815 H 0.62265 0.59201 0.4012 0.0
C816 C 0.74818 0.63495 0.42952 0.0
C817 C 0.75093 0.63369 0.4041 0.0
C818 C 0.72735 0.62425 0.44105 0.0
C819 C 0.70873 0.61179 0.42754 0.0
C820 C 0.71134 0.61051 0.40216 0.0
C821 C 0.73223 0.62124 0.39057 0.0
C822 C 0.68649 0.60047 0.43999 0.0
C823 C 0.66459 0.60565 0.4329 0.0
C824 C 0.68694 0.58574 0.45974 0.0
C825 C 0.70917 0.57839 0.46722 0.0
C826 C 0.72295 0.56841 0.45025 0.0
C827 C 0.74398 0.56168 0.45736 0.0
C828 C 0.75134 0.56471 0.48144 0.0
C829 C 0.73766 0.57442 0.49848 0.0
C830 C 0.71662 0.58119 0.49146 0.0
C831 C 0.5809 0.55421 0.48226 0.0
C832 C 0.58024 0.55822 0.50747 0.0
C833 C 0.60165 0.56177 0.46868 0.0
C834 C 0.62209 0.57364 0.48001 0.0
C835 C 0.62157 0.57705 0.50531 0.0
C836 C 0.60089 0.56946 0.51887 0.0
C837 C 0.64391 0.58289 0.46563 0.0
C838 C 0.66573 0.57733 0.47236 0.0
C839 C 0.64338 0.59726 0.44557 0.0
C840 C 0.6212 0.60471 0.43814 0.0
C841 C 0.60824 0.61596 0.45477 0.0
C842 C 0.58713 0.62258 0.44776 0.0
C843 C 0.57889 0.61821 0.4241 0.0
C844 C 0.59181 0.6073 0.40738 0.0
C845 C 0.61292 0.60061 0.41431 0.0
H846 H 0.56254 0.62333 0.41869 0.0
H847 H 0.76762 0.55949 0.48691 0.0
H848 H 0.28181 0.36375 0.13198 0.0
H849 H 0.25394 0.38426 0.11215 0.0
H850 H 0.19923 0.35721 0.16374 0.0
H851 H 0.2267 0.3366 0.18329 0.0
H852 H 0.18317 0.35401 0.11726 0.0
H853 H 0.22824 0.41035 0.16999 0.0
H854 H 0.26481 0.43378 0.18557 0.0
H855 H 0.28027 0.46253 0.11504 0.0
H856 H 0.24393 0.43901 0.09896 0.0
H857 H 0.09585 0.42172 0.11297 0.0
H858 H 0.12837 0.40359 0.12601 0.0
H859 H 0.17378 0.43804 0.07009 0.0
H860 H 0.14139 0.45687 0.05732 0.0
H861 H 0.19706 0.43769 0.11324 0.0
H862 H 0.14981 0.38389 0.06148 0.0
H863 H 0.11295 0.36074 0.04621 0.0
H864 H 0.1016 0.32708 0.11462 0.0
H865 H 0.13822 0.35027 0.13044 0.0
C866 C 0.26381 0.36216 0.13898 0.0
C867 C 0.25648 0.34876 0.15931 0.0
C868 C 0.24797 0.37395 0.12774 0.0
C869 C 0.22457 0.37235 0.1366 0.0
C870 C 0.2172 0.35871 0.15665 0.0
C871 C 0.23299 0.3471 0.16792 0.0
C872 C 0.2075 0.38476 0.12519 0.0
C873 C 0.18615 0.37231 0.11649 0.0
C874 C 0.21171 0.4086 0.12356 0.0
C875 C 0.23354 0.42272 0.1332 0.0
C876 C 0.23956 0.42151 0.15775 0.0
C877 C 0.26022 0.43484 0.16668 0.0
C878 C 0.2749 0.44958 0.15128 0.0
C879 C 0.26891 0.45106 0.12693 0.0
C880 C 0.24829 0.43775 0.1179 0.0
C881 C 0.11284 0.42575 0.10366 0.0
C882 C 0.11601 0.44072 0.08407 0.0
C883 C 0.13135 0.41518 0.11097 0.0
C884 C 0.15337 0.4192 0.09877 0.0
C885 C 0.15687 0.4346 0.07965 0.0
C886 C 0.13831 0.44521 0.07228 0.0
C887 C 0.17249 0.40694 0.10588 0.0
C888 C 0.19422 0.41938 0.11369 0.0
C889 C 0.16866 0.38306 0.10669 0.0
C890 C 0.14669 0.36895 0.0972 0.0
C891 C 0.13937 0.37166 0.07333 0.0
C892 C 0.11853 0.35852 0.06457 0.0
C893 C 0.10492 0.34248 0.07945 0.0
C894 C 0.11216 0.33952 0.10312 0.0
C895 C 0.13297 0.35264 0.11198 0.0
H896 H 0.08879 0.33231 0.07263 0.0
H897 H 0.29089 0.45989 0.15824 0.0
H898 H 0.60285 0.23517 0.86678 0.0
H899 H 0.58617 0.1989 0.88491 0.0
H900 H 0.61351 0.22361 0.95461 0.0
H901 H 0.62993 0.26002 0.93677 0.0
H902 H 0.6215 0.18144 0.94706 0.0
H903 H 0.55395 0.2181 0.94152 0.0
H904 H 0.52564 0.23803 0.92129 0.0
H905 H 0.50612 0.1814 0.87274 0.0
H906 H 0.53457 0.16125 0.89247 0.0
H907 H 0.55486 0.0907 1.01608 0.0
H908 H 0.5731 0.12731 0.99954 0.0
H909 H 0.5427 0.10691 0.92975 0.0
H910 H 0.52415 0.07061 0.94654 0.0
H911 H 0.53652 0.1476 0.93845 0.0
H912 H 0.60474 0.11114 0.94352 0.0
H913 H 0.63284 0.09117 0.96405 0.0
H914 H 0.65099 0.14724 1.01359 0.0
H915 H 0.62277 0.16744 0.99353 0.0
C916 C 0.60511 0.23309 0.88604 0.0
C917 C 0.61786 0.25082 0.90016 0.0
C918 C 0.59557 0.21219 0.89643 0.0
C919 C 0.59835 0.20834 0.92129 0.0
C920 C 0.61114 0.22593 0.9354 0.0
C921 C 0.62063 0.24685 0.92506 0.0
C922 C 0.58798 0.18608 0.93255 0.0
C923 C 0.60284 0.1742 0.9454 0.0
C924 C 0.56371 0.17621 0.9302 0.0
C925 C 0.54656 0.18826 0.91832 0.0
C926 C 0.54376 0.20997 0.9264 0.0
C927 C 0.52766 0.22129 0.91505 0.0
C928 C 0.51414 0.21101 0.8957 0.0
C929 C 0.51664 0.18936 0.8877 0.0
C930 C 0.53273 0.17797 0.89898 0.0
C931 C 0.55253 0.0938 0.99716 0.0
C932 C 0.53836 0.07747 0.98265 0.0
C933 C 0.56292 0.11488 0.98761 0.0
C934 C 0.55965 0.12007 0.96314 0.0
C935 C 0.54562 0.10359 0.94864 0.0
C936 C 0.53509 0.0827 0.95826 0.0
C937 C 0.57008 0.14274 0.95272 0.0
C938 C 0.5552 0.15476 0.94008 0.0
C939 C 0.59433 0.1527 0.95525 0.0
C940 C 0.61148 0.1407 0.96717 0.0
C941 C 0.61462 0.11915 0.95889 0.0
C942 C 0.63058 0.1078 0.97042 0.0
C943 C 0.64365 0.11791 0.99015 0.0
C944 C 0.64084 0.13942 0.99833 0.0
C945 C 0.62488 0.15084 0.98687 0.0
H946 H 0.65599 0.10909 0.99907 0.0
H947 H 0.50168 0.21981 0.88694 0.0
H948 H 0.87467 0.81158 0.40313 0.0
H949 H 0.88984 0.8477 0.42305 0.0
H950 H 0.96028 0.83137 0.42234 0.0
H951 H 0.94506 0.7948 0.40285 0.0
H952 H 0.95023 0.84979 0.466 0.0
H953 H 0.9454 0.86862 0.38207 0.0
H954 H 0.92589 0.86948 0.34257 0.0
H955 H 0.87436 0.90503 0.37542 0.0
H956 H 0.89339 0.90412 0.41521 0.0
H957 H 0.99408 0.98033 0.46079 0.0
H958 H 0.97883 0.94428 0.44077 0.0
H959 H 0.94291 0.92001 0.50714 0.0
H960 H 0.9587 0.95584 0.52749 0.0
H961 H 0.93731 0.92168 0.42998 0.0
H962 H 0.93969 0.86422 0.51184 0.0
H963 H 0.96079 0.86478 0.55066 0.0
H964 H 0.02162 0.90735 0.51955 0.0
H965 H 1.00096 0.90688 0.48051 0.0
C966 C 0.89339 0.81554 0.40732 0.0
C967 C 0.90861 0.80014 0.40135 0.0
C968 C 0.90208 0.83635 0.41858 0.0
C969 C 0.92627 0.84244 0.42412 0.0
C970 C 0.94155 0.82712 0.41828 0.0
C971 C 0.93286 0.80628 0.4069 0.0
C972 C 0.93554 0.86482 0.43585 0.0
C973 C 0.94741 0.86549 0.45809 0.0
C974 C 0.9321 0.88545 0.42558 0.0
C975 C 0.9207 0.88613 0.40165 0.0
C976 C 0.92981 0.87648 0.38091 0.0
C977 C 0.91885 0.877 0.35846 0.0
C978 C 0.89886 0.88725 0.3565 0.0
C979 C 0.88983 0.89707 0.37697 0.0
C980 C 0.90071 0.89658 0.39947 0.0
C981 C 0.98283 0.9674 0.47115 0.0
C982 C 0.97782 0.97102 0.49587 0.0
C983 C 0.97407 0.94672 0.45963 0.0
C984 C 0.96 0.92912 0.47245 0.0
C985 C 0.9542 0.93302 0.49691 0.0
C986 C 0.96317 0.95363 0.50853 0.0
C987 C 0.95182 0.90669 0.46026 0.0
C988 C 0.94012 0.906 0.43793 0.0
C989 C 0.9557 0.88609 0.47031 0.0
C990 C 0.96871 0.88562 0.49332 0.0
C991 C 0.95764 0.87354 0.51324 0.0
C992 C 0.96949 0.8739 0.5353 0.0
C993 C 0.99251 0.88613 0.53758 0.0
C994 C 1.00377 0.89792 0.51777 0.0
C995 C 0.992 0.89763 0.49568 0.0
H996 H 1.00161 0.88646 0.5547 0.0
H997 H 0.8904 0.88763 0.33911 0.0
H998 H 0.41433 0.81165 0.51725 0.0
H999 H 0.4291 0.77861 0.50164 0.0
H1000 H 0.35721 0.74444 0.48987 0.0
H1001 H 0.34225 0.77708 0.50694 0.0
H1002 H 0.37825 0.71984 0.51592 0.0
H1003 H 0.39939 0.75619 0.44172 0.0
H1004 H 0.4157 0.78685 0.41384 0.0
H1005 H 0.48552 0.78793 0.44184 0.0
H1006 H 0.46961 0.75753 0.47016 0.0
H1007 H 0.43283 0.62457 0.50106 0.0
H1008 H 0.41294 0.65406 0.48493 0.0
H1009 H 0.47051 0.7051 0.50993 0.0
H1010 H 0.49061 0.67569 0.5256 0.0
H1011 H 0.4506 0.71651 0.46609 0.0
H1012 H 0.42533 0.68832 0.54716 0.0
H1013 H 0.40916 0.65772 0.57523 0.0
H1014 H 0.34609 0.64175 0.53253 0.0
H1015 H 0.36211 0.67207 0.50399 0.0
C1016 C 0.40164 0.79722 0.51106 0.0
C1017 C 0.37711 0.79683 0.51383 0.0
C1018 C 0.41014 0.77842 0.50169 0.0
C1019 C 0.3943 0.75898 0.49442 0.0
C1020 C 0.36979 0.75924 0.49534 0.0
C1021 C 0.36125 0.77799 0.50499 0.0
C1022 C 0.40324 0.7375 0.49002 0.0
C1023 C 0.39358 0.71894 0.50433 0.0
C1024 C 0.42348 0.73628 0.47521 0.0
C1025 C 0.43325 0.75457 0.45816 0.0
C1026 C 0.4182 0.76305 0.44206 0.0
C1027 C 0.42739 0.78038 0.42615 0.0
C1028 C 0.45163 0.78934 0.42608 0.0
C1029 C 0.46674 0.78096 0.4419 0.0
C1030 C 0.45765 0.76364 0.45785 0.0
C1031 C 0.4414 0.64209 0.50262 0.0
C1032 C 0.46298 0.648 0.51489 0.0
C1033 C 0.43013 0.65885 0.4933 0.0
C1034 C 0.44015 0.68172 0.49652 0.0
C1035 C 0.46254 0.68753 0.50722 0.0
C1036 C 0.47395 0.67076 0.51624 0.0
C1037 C 0.42594 0.69959 0.4925 0.0
C1038 C 0.4347 0.71734 0.47682 0.0
C1039 C 0.40479 0.70015 0.50594 0.0
C1040 C 0.395 0.68224 0.52332 0.0
C1041 C 0.40807 0.67819 0.5437 0.0
C1042 C 0.39894 0.6609 0.55968 0.0
C1043 C 0.37664 0.64776 0.55562 0.0
C1044 C 0.36339 0.65192 0.53561 0.0
C1045 C 0.37248 0.66914 0.51953 0.0
H1046 H 0.3696 0.63438 0.56802 0.0
H1047 H 0.4587 0.80276 0.41375 0.0
H1048 H 0.79371 0.85539 0.73544 0.0
H1049 H 0.8227 0.86933 0.70398 0.0
H1050 H 0.81166 0.80342 0.6695 0.0
H1051 H 0.78236 0.7893 0.70103 0.0
H1052 H 0.85776 0.81917 0.67442 0.0
H1053 H 0.7927 0.84726 0.64197 0.0
H1054 H 0.75791 0.86636 0.64221 0.0
H1055 H 0.80191 0.9288 0.66349 0.0
H1056 H 0.83692 0.91002 0.66373 0.0
H1057 H 0.92154 0.91214 0.58262 0.0
H1058 H 0.88742 0.8841 0.59515 0.0
H1059 H 0.92136 0.87657 0.66322 0.0
H1060 H 0.95583 0.90388 0.65043 0.0
H1061 H 0.85939 0.89104 0.631 0.0
H1062 H 0.90046 0.82743 0.68911 0.0
H1063 H 0.93443 0.80725 0.68676 0.0
H1064 H 0.9366 0.81304 0.60913 0.0
H1065 H 0.90241 0.83295 0.61094 0.0
C1066 C 0.79695 0.84397 0.72086 0.0
C1067 C 0.78565 0.82124 0.72073 0.0
C1068 C 0.81361 0.85196 0.70287 0.0
C1069 C 0.81921 0.83747 0.68424 0.0
C1070 C 0.8076 0.81488 0.68371 0.0
C1071 C 0.79091 0.80685 0.70175 0.0
C1072 C 0.83835 0.84575 0.66642 0.0
C1073 C 0.85805 0.83475 0.66469 0.0
C1074 C 0.83842 0.86572 0.65319 0.0
C1075 C 0.81744 0.87718 0.65295 0.0
C1076 C 0.79494 0.86503 0.64684 0.0
C1077 C 0.77518 0.87581 0.64688 0.0
C1078 C 0.77769 0.89877 0.65288 0.0
C1079 C 0.79999 0.91101 0.65883 0.0
C1080 C 0.81981 0.90032 0.65884 0.0
C1081 C 0.92214 0.90387 0.59986 0.0
C1082 C 0.9413 0.9104 0.61566 0.0
C1083 C 0.90251 0.88798 0.60709 0.0
C1084 C 0.90175 0.87826 0.63014 0.0
C1085 C 0.92159 0.8836 0.64522 0.0
C1086 C 0.94122 0.8994 0.63798 0.0
C1087 C 0.8793 0.86504 0.63989 0.0
C1088 C 0.85895 0.87516 0.64021 0.0
C1089 C 0.87852 0.84408 0.65146 0.0
C1090 C 0.8989 0.8318 0.65019 0.0
C1091 C 0.90806 0.82427 0.67151 0.0
C1092 C 0.92739 0.81291 0.67028 0.0
C1093 C 0.93769 0.8089 0.64782 0.0
C1094 C 0.92864 0.81621 0.62653 0.0
C1095 C 0.90931 0.82756 0.62765 0.0
H1096 H 0.95267 0.80012 0.64691 0.0
H1097 H 0.76237 0.90708 0.65291 0.0
H1098 H 0.61461 0.15134 0.36322 0.0
H1099 H 0.59714 0.13941 0.32369 0.0
H1100 H 0.66186 0.1707 0.28777 0.0
H1101 H 0.67909 0.18315 0.327 0.0
H1102 H 0.6235 0.17759 0.2632 0.0
H1103 H 0.65136 0.11449 0.30006 0.0
H1104 H 0.65289 0.08674 0.33221 0.0
H1105 H 0.5783 0.06181 0.32437 0.0
H1106 H 0.57628 0.08965 0.29237 0.0
H1107 H 0.63205 0.11809 0.15325 0.0
H1108 H 0.63731 0.13411 0.19423 0.0
H1109 H 0.56715 0.1001 0.21445 0.0
H1110 H 0.56144 0.0844 0.17326 0.0
H1111 H 0.60124 0.09503 0.24809 0.0
H1112 H 0.57513 0.15484 0.20657 0.0
H1113 H 0.57458 0.18196 0.1736 0.0
H1114 H 0.64628 0.21283 0.18957 0.0
H1115 H 0.64741 0.18565 0.2224 0.0
C1116 C 0.6249 0.15602 0.34685 0.0
C1117 C 0.64831 0.16794 0.34818 0.0
C1118 C 0.61498 0.14907 0.32432 0.0
C1119 C 0.62834 0.15391 0.30284 0.0
C1120 C 0.65126 0.16673 0.30412 0.0
C1121 C 0.66116 0.17365 0.32655 0.0
C1122 C 0.61925 0.1446 0.27905 0.0
C1123 C 0.61868 0.15954 0.25986 0.0
C1124 C 0.61239 0.12107 0.27488 0.0
C1125 C 0.61361 0.10433 0.29407 0.0
C1126 C 0.63525 0.10322 0.30534 0.0
C1127 C 0.63622 0.08745 0.3235 0.0
C1128 C 0.61569 0.07257 0.33039 0.0
C1129 C 0.59417 0.07339 0.31906 0.0
C1130 C 0.59311 0.08915 0.30091 0.0
C1131 C 0.61759 0.11423 0.16628 0.0
C1132 C 0.5963 0.1 0.15993 0.0
C1133 C 0.62066 0.12336 0.18971 0.0
C1134 C 0.60251 0.11846 0.20725 0.0
C1135 C 0.58134 0.10408 0.20113 0.0
C1136 C 0.57819 0.09503 0.17763 0.0
C1137 C 0.60607 0.128 0.23214 0.0
C1138 C 0.6056 0.1131 0.25152 0.0
C1139 C 0.61205 0.15155 0.23645 0.0
C1140 C 0.6114 0.16809 0.21685 0.0
C1141 C 0.59085 0.1673 0.20294 0.0
C1142 C 0.59042 0.1827 0.1843 0.0
C1143 C 0.6104 0.19909 0.17947 0.0
C1144 C 0.63082 0.20013 0.19333 0.0
C1145 C 0.63136 0.18474 0.21198 0.0
H1146 H 0.61004 0.211 0.16502 0.0
H1147 H 0.61647 0.06037 0.34445 0.0
H1148 H 0.42705 0.62359 0.28801 0.0
H1149 H 0.44265 0.60553 0.32216 0.0
H1150 H 0.42309 0.65632 0.37094 0.0
H1151 H 0.4085 0.67502 0.33648 0.0
H1152 H 0.4619 0.64811 0.38594 0.0
H1153 H 0.39064 0.59842 0.36478 0.0
H1154 H 0.36202 0.57439 0.33822 0.0
H1155 H 0.41345 0.53192 0.32207 0.0
H1156 H 0.44249 0.55587 0.3483 0.0
H1157 H 0.47461 0.58411 0.49273 0.0
H1158 H 0.45839 0.60369 0.46006 0.0
H1159 H 0.48488 0.56027 0.40713 0.0
H1160 H 0.50076 0.54037 0.43972 0.0
H1161 H 0.44127 0.56515 0.39565 0.0
H1162 H 0.51163 0.61635 0.42152 0.0
H1163 H 0.53671 0.64061 0.45098 0.0
H1164 H 0.48285 0.68154 0.46078 0.0
H1165 H 0.45683 0.65683 0.43254 0.0
C1166 C 0.42603 0.6309 0.30602 0.0
C1167 C 0.41634 0.65073 0.30942 0.0
C1168 C 0.43486 0.62045 0.3257 0.0
C1169 C 0.43365 0.62906 0.34957 0.0
C1170 C 0.4243 0.64911 0.3529 0.0
C1171 C 0.4159 0.65984 0.33312 0.0
C1172 C 0.44219 0.61728 0.3709 0.0
C1173 C 0.45704 0.63 0.38817 0.0
C1174 C 0.43622 0.59355 0.37409 0.0
C1175 C 0.41881 0.57907 0.35832 0.0
C1176 C 0.3959 0.58405 0.35543 0.0
C1177 C 0.37959 0.57043 0.34045 0.0
C1178 C 0.38593 0.55168 0.32841 0.0
C1179 C 0.40857 0.54647 0.33138 0.0
C1180 C 0.42496 0.56005 0.34632 0.0
C1181 C 0.477 0.57867 0.47414 0.0
C1182 C 0.48911 0.56057 0.46899 0.0
C1183 C 0.46776 0.59001 0.45537 0.0
C1184 C 0.47056 0.58377 0.43086 0.0
C1185 C 0.48241 0.56555 0.42576 0.0
C1186 C 0.49158 0.55416 0.4445 0.0
C1187 C 0.46111 0.59595 0.41049 0.0
C1188 C 0.44606 0.58327 0.39341 0.0
C1189 C 0.46645 0.61978 0.40788 0.0
C1190 C 0.48212 0.63452 0.42508 0.0
C1191 C 0.50494 0.63029 0.43026 0.0
C1192 C 0.51931 0.64408 0.44683 0.0
C1193 C 0.51128 0.66245 0.45795 0.0
C1194 C 0.48889 0.6671 0.45248 0.0
C1195 C 0.47429 0.65315 0.43626 0.0
H1196 H 0.52247 0.67317 0.4707 0.0
H1197 H 0.37329 0.54115 0.31683 0.0
H1198 H 0.10778 0.38961 0.82891 0.0
H1199 H 0.09089 0.40814 0.86315 0.0
H1200 H 0.13034 0.47249 0.84102 0.0
H1201 H 0.14673 0.45432 0.80631 0.0
H1202 H 0.13336 0.46586 0.89056 0.0
H1203 H 0.07181 0.45915 0.8303 0.0
H1204 H 0.04311 0.43843 0.80139 0.0
H1205 H 1.00859 0.39765 0.85925 0.0
H1206 H 0.0373 0.41795 0.88847 0.0
H1207 H 0.07799 0.54226 0.95999 0.0
H1208 H 0.09429 0.52055 0.92805 0.0
H1209 H 0.04433 0.46107 0.94797 0.0
H1210 H 0.02728 0.48313 0.97938 0.0
H1211 H 0.04658 0.46277 0.9011 0.0
H1212 H 0.10553 0.46874 0.96182 0.0
H1213 H 0.13401 0.48763 0.99198 0.0
H1214 H 0.17352 0.5268 0.93567 0.0
H1215 H 0.14507 0.50838 0.90518 0.0
C1216 C 0.11268 0.40775 0.83102 0.0
C1217 C 0.12874 0.42034 0.81458 0.0
C1218 C 0.10305 0.41833 0.85079 0.0
C1219 C 0.10923 0.44178 0.85472 0.0
C1220 C 0.12536 0.45437 0.83852 0.0
C1221 C 0.13484 0.44386 0.81866 0.0
C1222 C 0.09896 0.45325 0.87564 0.0
C1223 C 0.1144 0.46539 0.89272 0.0
C1224 C 0.07417 0.45203 0.87905 0.0
C1225 C 0.05685 0.43991 0.86152 0.0
C1226 C 0.05822 0.44564 0.83683 0.0
C1227 C 0.04193 0.434 0.82039 0.0
C1228 C 0.02408 0.41669 0.82846 0.0
C1229 C 0.02244 0.41104 0.85301 0.0
C1230 C 0.03871 0.42262 0.86952 0.0
C1231 C 0.07054 0.52452 0.95767 0.0
C1232 C 0.05146 0.5144 0.97239 0.0
C1233 C 0.07999 0.51203 0.93944 0.0
C1234 C 0.07091 0.48894 0.93568 0.0
C1235 C 0.0518 0.47879 0.95043 0.0
C1236 C 0.04216 0.49138 0.96855 0.0
C1237 C 0.08099 0.47569 0.91599 0.0
C1238 C 0.06555 0.46318 0.89912 0.0
C1239 C 0.10578 0.47627 0.91299 0.0
C1240 C 0.12304 0.4873 0.93123 0.0
C1241 C 0.1202 0.4815 0.95588 0.0
C1242 C 0.13635 0.4921 0.97304 0.0
C1243 C 0.15554 0.50844 0.96575 0.0
C1244 C 0.15864 0.51416 0.94128 0.0
C1245 C 0.14252 0.50362 0.92405 0.0
H1246 H 0.16802 0.51664 0.97906 0.0
H1247 H 1.01149 0.4077 0.81571 0.0
H1248 H 0.63063 0.85793 0.86735 0.0
H1249 H 0.61101 0.88638 0.88743 0.0
H1250 H 0.66508 0.89662 0.94224 0.0
H1251 H 0.68458 0.86792 0.92239 0.0
H1252 H 0.62303 0.89604 0.96267 0.0
H1253 H 0.66497 0.93413 0.89517 0.0
H1254 H 0.6771 0.93977 0.85224 0.0
H1255 H 0.60495 0.94128 0.83301 0.0
H1256 H 0.59232 0.93532 0.8758 0.0
H1257 H 0.59472 0.99956 1.00886 0.0
H1258 H 0.61679 0.97332 0.98794 0.0
H1259 H 0.55863 0.95374 0.93877 0.0
H1260 H 0.53639 0.97978 0.9596 0.0
H1261 H 0.60401 0.96024 0.91582 0.0
H1262 H 0.5624 0.92094 0.9836 0.0
H1263 H 0.55086 0.91604 0.02676 0.0
H1264 H 0.62372 0.91781 0.04559 0.0
H1265 H 0.63575 0.92308 1.00254 0.0
C1266 C 0.63835 0.86629 0.88366 0.0
C1267 C 0.65921 0.86077 0.89323 0.0
C1268 C 0.62716 0.88258 0.8951 0.0
C1269 C 0.63679 0.89396 0.91612 0.0
C1270 C 0.65733 0.88811 0.92602 0.0
C1271 C 0.66843 0.87167 0.9147 0.0
C1272 C 0.62548 0.91198 0.92774 0.0
C1273 C 0.61922 0.91024 0.95248 0.0
C1274 C 0.62012 0.93037 0.9144 0.0
C1275 C 0.62767 0.93407 0.88867 0.0
C1276 C 0.65166 0.9355 0.88177 0.0
C1277 C 0.65863 0.93878 0.85746 0.0
C1278 C 0.6418 0.94083 0.8399 0.0
C1279 C 0.61796 0.93966 0.84663 0.0
C1280 C 0.6109 0.93636 0.87091 0.0
C1281 C 0.58675 0.9899 0.99339 0.0
C1282 C 0.56374 0.99165 0.98598 0.0
C1283 C 0.59934 0.97485 0.98154 0.0
C1284 C 0.58922 0.96147 0.96198 0.0
C1285 C 0.56671 0.9639 0.95387 0.0
C1286 C 0.554 0.97872 0.96587 0.0
C1287 C 0.6016 0.94418 0.95061 0.0
C1288 C 0.608 0.94607 0.92595 0.0
C1289 C 0.60722 0.92602 0.96404 0.0
C1290 C 0.60001 0.92266 0.98989 0.0
C1291 C 0.57599 0.92048 0.99697 0.0
C1292 C 0.56935 0.9176 1.02141 0.0
C1293 C 0.58656 0.91668 0.03892 0.0
C1294 C 0.61042 0.91856 0.03201 0.0
C1295 C 0.61716 0.92149 1.00759 0.0
H1296 H 0.58138 0.91444 0.05783 0.0
H1297 H 0.64723 0.94337 0.8211 0.0
H1298 H 0.83969 0.18885 0.48998 0.0
H1299 H 0.8743 0.17126 0.49853 0.0
H1300 H 0.83609 0.10689 0.47349 0.0
H1301 H 0.80161 0.12425 0.46503 0.0
H1302 H 0.85601 0.1054 0.51887 0.0
H1303 H 0.87816 0.1329 0.4389 0.0
H1304 H 0.8867 0.16164 0.40707 0.0
H1305 H 0.94309 0.19864 0.4498 0.0
H1306 H 0.93464 0.17026 0.48207 0.0
H1307 H 0.96714 0.05513 0.49375 0.0
H1308 H 0.93892 0.07835 0.4797 0.0
H1309 H 0.934 0.10553 0.55224 0.0
H1310 H 0.96223 0.0825 0.56633 0.0
H1311 H 0.93634 0.12567 0.4816 0.0
H1312 H 0.87453 0.10213 0.564 0.0
H1313 H 0.86557 0.07192 0.59428 0.0
H1314 H 0.88707 1.02438 0.54321 0.0
H1315 H 0.89581 0.05421 0.51254 0.0
C1316 C 0.83879 0.17098 0.48623 0.0
C1317 C 0.81804 0.1579 0.47682 0.0
C1318 C 0.85855 0.16102 0.49095 0.0
C1319 C 0.85769 0.13783 0.48653 0.0
C1320 C 0.83707 0.12483 0.47694 0.0
C1321 C 0.81747 0.13478 0.47201 0.0
C1322 C 0.8777 0.1267 0.49312 0.0
C1323 C 0.87358 0.10989 0.51077 0.0
C1324 C 0.90052 0.13248 0.48236 0.0
C1325 C 0.90559 0.14959 0.46302 0.0
C1326 C 0.89222 0.14728 0.44162 0.0
C1327 C 0.89708 0.16348 0.42347 0.0
C1328 C 0.91538 0.18199 0.42644 0.0
C1329 C 0.92889 0.18431 0.44754 0.0
C1330 C 0.92409 0.16817 0.46576 0.0
C1331 C 0.96033 0.06637 0.50656 0.0
C1332 C 0.96658 0.06691 0.53114 0.0
C1333 C 0.94434 0.07966 0.49851 0.0
C1334 C 0.9343 0.09345 0.51501 0.0
C1335 C 0.94148 0.09484 0.5393 0.0
C1336 C 0.95751 0.08166 0.54732 0.0
C1337 C 0.91461 0.1046 0.50749 0.0
C1338 C 0.91879 0.12136 0.48977 0.0
C1339 C 0.89169 0.09865 0.51796 0.0
C1340 C 0.88606 0.08046 0.53609 0.0
C1341 C 0.87725 0.0852 0.55922 0.0
C1342 C 0.87222 0.06815 0.57645 0.0
C1343 C 0.87583 0.04627 0.5707 0.0
C1344 C 0.88437 0.04136 0.54768 0.0
C1345 C 0.88939 0.05834 0.53037 0.0
H1346 H 0.87196 0.0331 0.58408 0.0
H1347 H 0.91912 0.19451 0.41236 0.0
H1348 H 0.26499 0.61045 0.15736 0.0
H1349 H 0.22823 0.59193 0.13823 0.0
H1350 H 0.20825 0.65685 0.12704 0.0
H1351 H 0.24443 0.67541 0.14702 0.0
H1352 H 0.17067 0.62812 0.14147 0.0
H1353 H 0.23131 0.62586 0.08032 0.0
H1354 H 0.26886 0.6169 0.06356 0.0
H1355 H 0.24398 0.54631 0.07574 0.0
H1356 H 0.20639 0.55489 0.09287 0.0
H1357 H 0.08105 0.59691 0.05373 0.0
H1358 H 0.11789 0.61321 0.07406 0.0
H1359 H 0.13268 0.54642 0.08614 0.0
H1360 H 0.09586 0.52992 0.06561 0.0
H1361 H 0.17261 0.5746 0.07221 0.0
H1362 H 0.11163 0.57644 0.13208 0.0
H1363 H 0.07377 0.58502 0.14841 0.0
H1364 H 0.09906 0.65592 0.13881 0.0
H1365 H 0.13696 0.64774 0.12206 0.0
C1366 C 0.2527 0.62084 0.15109 0.0
C1367 C 0.25797 0.64456 0.15372 0.0
C1368 C 0.23171 0.61019 0.13985 0.0
C1369 C 0.21544 0.62292 0.13074 0.0
C1370 C 0.22044 0.64654 0.13373 0.0
C1371 C 0.24137 0.65719 0.145 0.0
C1372 C 0.19324 0.61177 0.11811 0.0
C1373 C 0.1712 0.61665 0.12613 0.0
C1374 C 0.19359 0.59624 0.09845 0.0
C1375 C 0.21615 0.59105 0.08811 0.0
C1376 C 0.23392 0.60845 0.07959 0.0
C1377 C 0.2552 0.60343 0.07 0.0
C1378 C 0.25883 0.58105 0.06865 0.0
C1379 C 0.24116 0.56364 0.07683 0.0
C1380 C 0.21986 0.56857 0.08647 0.0
C1381 C 0.09213 0.58562 0.06059 0.0
C1382 C 0.08529 0.56203 0.05803 0.0
C1383 C 0.11322 0.59501 0.07237 0.0
C1384 C 0.12806 0.58111 0.08202 0.0
C1385 C 0.1216 0.55757 0.07897 0.0
C1386 C 0.10044 0.54814 0.06723 0.0
C1387 C 0.15014 0.59117 0.09542 0.0
C1388 C 0.17211 0.58605 0.08758 0.0
C1389 C 0.14973 0.60644 0.11528 0.0
C1390 C 0.12706 0.61146 0.1256 0.0
C1391 C 0.10906 0.59385 0.13329 0.0
C1392 C 0.0876 0.59864 0.14264 0.0
C1393 C 0.08399 0.621 0.14459 0.0
C1394 C 0.10187 0.63861 0.13726 0.0
C1395 C 0.12336 0.63391 0.12785 0.0
H1396 H 0.06736 0.62467 0.15183 0.0
H1397 H 0.27531 0.57721 0.06121 0.0
H1398 H 0.30451 0.43833 0.68704 0.0
H1399 H 0.34115 0.45593 0.66639 0.0
H1400 H 0.31339 0.42775 0.59805 0.0
H1401 H 0.27667 0.41042 0.61841 0.0
H1402 H 0.35848 0.42135 0.60379 0.0
H1403 H 0.31632 0.484 0.61248 0.0
H1404 H 0.29549 0.51057 0.63516 0.0
H1405 H 0.35782 0.53323 0.67741 0.0
H1406 H 0.37892 0.50657 0.65519 0.0
H1407 H 0.43691 0.48264 0.51928 0.0
H1408 H 0.40152 0.46816 0.54356 0.0
H1409 H 0.43648 0.49795 0.60811 0.0
H1410 H 0.47208 0.51255 0.58377 0.0
H1411 H 0.38964 0.50372 0.60695 0.0
H1412 H 0.43234 0.44273 0.59881 0.0
H1413 H 0.45414 0.4163 0.57722 0.0
H1414 H 0.39209 0.39032 0.53576 0.0
H1415 H 0.36999 0.41682 0.55692 0.0
C1416 C 0.30603 0.4361 0.66757 0.0
C1417 C 0.28751 0.42283 0.65448 0.0
C1418 C 0.32708 0.44615 0.65577 0.0
C1419 C 0.33009 0.44329 0.63058 0.0
C1420 C 0.31163 0.43014 0.61749 0.0
C1421 C 0.29061 0.42014 0.62923 0.0
C1422 C 0.35254 0.45359 0.61781 0.0
C1423 C 0.3651 0.4394 0.60428 0.0
C1424 C 0.36176 0.47706 0.61904 0.0
C1425 C 0.34911 0.49312 0.63235 0.0
C1426 C 0.32552 0.49452 0.62674 0.0
C1427 C 0.31367 0.50962 0.63949 0.0
C1428 C 0.3253 0.52353 0.65776 0.0
C1429 C 0.34882 0.52242 0.66328 0.0
C1430 C 0.36074 0.50733 0.6506 0.0
C1431 C 0.43704 0.48623 0.53862 0.0
C1432 C 0.45734 0.49862 0.54963 0.0
C1433 C 0.4168 0.47787 0.55251 0.0
C1434 C 0.41638 0.48168 0.57776 0.0
C1435 C 0.43637 0.49472 0.5887 0.0
C1436 C 0.45671 0.50302 0.57478 0.0
C1437 C 0.39525 0.47151 0.5926 0.0
C1438 C 0.38303 0.48567 0.60655 0.0
C1439 C 0.38642 0.44798 0.59198 0.0
C1440 C 0.39957 0.4319 0.5793 0.0
C1441 C 0.42339 0.4315 0.58496 0.0
C1442 C 0.43579 0.41648 0.57283 0.0
C1443 C 0.42452 0.40168 0.55508 0.0
C1444 C 0.4008 0.40181 0.5495 0.0
C1445 C 0.38831 0.41681 0.56158 0.0
H1446 H 0.43415 0.39007 0.54569 0.0
H1447 H 0.3161 0.53521 0.66761 0.0
H1448 H 0.77511 0.72024 0.92841 0.0
H1449 H 0.80012 0.69741 0.94851 0.0
H1450 H 0.79978 0.65541 0.88418 0.0
H1451 H 0.7735 0.67725 0.86448 0.0
H1452 H 0.80074 0.63039 0.92243 0.0
H1453 H 0.84485 0.70055 0.89491 0.0
H1454 H 0.85483 0.74191 0.89074 0.0
H1455 H 0.86503 0.7495 0.96771 0.0
H1456 H 0.85476 0.70817 0.97238 0.0
H1457 H 0.91542 0.59892 0.93606 0.0
H1458 H 0.88069 0.61382 0.92242 0.0
H1459 H 0.87514 0.64561 0.99258 0.0
H1460 H 0.90979 0.63071 1.00631 0.0
H1461 H 0.8761 0.67479 0.95317 0.0
H1462 H 0.83518 0.60152 0.97786 0.0
H1463 H 0.82774 0.55987 0.97816 0.0
H1464 H 0.81495 0.55788 0.90149 0.0
H1465 H 0.8227 0.59954 0.90063 0.0
C1466 C 0.77972 0.70575 0.91875 0.0
C1467 C 0.77257 0.70085 0.89464 0.0
C1468 C 0.79429 0.69285 0.93019 0.0
C1469 C 0.80238 0.67507 0.91762 0.0
C1470 C 0.79399 0.66918 0.89417 0.0
C1471 C 0.77917 0.68188 0.88283 0.0
C1472 C 0.82097 0.6638 0.9281 0.0
C1473 C 0.81727 0.6401 0.92902 0.0
C1474 C 0.84257 0.67643 0.93675 0.0
C1475 C 0.84876 0.70129 0.93403 0.0
C1476 C 0.84904 0.71105 0.91097 0.0
C1477 C 0.85477 0.73448 0.90851 0.0
C1478 C 0.86049 0.74833 0.92896 0.0
C1479 C 0.86054 0.73876 0.9519 0.0
C1480 C 0.85477 0.71533 0.95447 0.0
C1481 C 0.90662 0.6089 0.94861 0.0
C1482 C 0.91526 0.61366 0.97222 0.0
C1483 C 0.88675 0.61728 0.94086 0.0
C1484 C 0.87533 0.63073 0.95655 0.0
C1485 C 0.88368 0.63519 0.98026 0.0
C1486 C 0.90336 0.62658 0.9881 0.0
C1487 C 0.85576 0.64148 0.9477 0.0
C1488 C 0.85941 0.66512 0.94689 0.0
C1489 C 0.83445 0.62875 0.93864 0.0
C1490 C 0.82967 0.60368 0.93916 0.0
C1491 C 0.83097 0.59221 0.96102 0.0
C1492 C 0.82665 0.5686 0.9613 0.0
C1493 C 0.82084 0.55625 0.93986 0.0
C1494 C 0.81941 0.56748 0.91808 0.0
C1495 C 0.82374 0.59109 0.9177 0.0
H1496 H 0.81741 0.53797 0.94013 0.0
H1497 H 0.86494 0.76647 0.92702 0.0
H1498 H 0.3989 0.80391 0.1247 0.0
H1499 H 0.41531 0.83995 0.10648 0.0
H1500 H 0.46089 0.85716 0.16806 0.0
H1501 H 0.44333 0.82172 0.18729 0.0
H1502 H 0.44558 0.89286 0.15643 0.0
H1503 H 0.48041 0.83939 0.10919 0.0
H1504 H 0.48128 0.80546 0.08364 0.0
H1505 H 0.44005 0.83107 0.02961 0.0
H1506 H 0.43868 0.86505 0.055 0.0
H1507 H 0.53095 0.97808 0.10138 0.0
H1508 H 0.51053 0.94239 0.11799 0.0
H1509 H 0.4556 0.93977 0.06484 0.0
H1510 H 0.47569 0.97625 0.04869 0.0
H1511 H 0.474 0.89735 0.0708 0.0
H1512 H 0.44192 0.95242 0.11896 0.0
H1513 H 0.44404 0.9866 0.14479 0.0
H1514 H 0.48377 0.95764 0.19765 0.0
H1515 H 0.48221 0.92341 0.17195 0.0
C1516 C 0.41217 0.81538 0.13469 0.0
C1517 C 0.41957 0.80956 0.15772 0.0
C1518 C 0.4219 0.83602 0.12393 0.0
C1519 C 0.43978 0.85142 0.13553 0.0
C1520 C 0.44723 0.84572 0.15852 0.0
C1521 C 0.43729 0.82516 0.16944 0.0
C1522 C 0.45039 0.87354 0.12398 0.0
C1523 C 0.45202 0.89366 0.13778 0.0
C1524 C 0.45847 0.87506 0.09941 0.0
C1525 C 0.45922 0.85464 0.08412 0.0
C1526 C 0.47137 0.8377 0.09195 0.0
C1527 C 0.47198 0.81848 0.07748 0.0
C1528 C 0.46067 0.81608 0.05505 0.0
C1529 C 0.44877 0.83294 0.04701 0.0
C1530 C 0.44808 0.85219 0.06142 0.0
C1531 C 0.5145 0.96999 0.09316 0.0
C1532 C 0.5052 0.97993 0.07333 0.0
C1533 C 0.50281 0.94952 0.10273 0.0
C1534 C 0.4815 0.93823 0.09271 0.0
C1535 C 0.47212 0.94801 0.07281 0.0
C1536 C 0.4837 0.96881 0.06342 0.0
C1537 C 0.46922 0.91639 0.10333 0.0
C1538 C 0.46737 0.8964 0.08938 0.0
C1539 C 0.46128 0.91493 0.12785 0.0
C1540 C 0.46212 0.93543 0.14342 0.0
C1541 C 0.45128 0.95341 0.136 0.0
C1542 C 0.45235 0.97278 0.15064 0.0
C1543 C 0.46408 0.97431 0.17283 0.0
C1544 C 0.47471 0.95644 0.18045 0.0
C1545 C 0.47372 0.93704 0.16586 0.0
H1546 H 0.46488 0.98932 0.18413 0.0
H1547 H 0.46117 0.80119 0.04387 0.0
H1548 H 0.12862 0.2716 0.62354 0.0
H1549 H 0.11184 0.23507 0.6054 0.0
H1550 H 0.09773 0.20703 0.67675 0.0
H1551 H 0.11514 0.2435 0.69511 0.0
H1552 H 0.1168 0.17834 0.64702 0.0
H1553 H 0.05286 0.22005 0.64217 0.0
H1554 H 0.03386 0.25234 0.63169 0.0
H1555 H 0.0499 0.24275 0.55621 0.0
H1556 H 0.06929 0.21058 0.56628 0.0
H1557 H 0.04366 0.07642 0.60497 0.0
H1558 H 0.05976 0.11202 0.62569 0.0
H1559 H 0.07062 0.14528 0.55662 0.0
H1560 H 0.05402 0.10998 0.53589 0.0
H1561 H 0.0522 0.17108 0.58687 0.0
H1562 H 0.11728 0.1307 0.59107 0.0
H1563 H 0.13708 0.09873 0.60081 0.0
H1564 H 0.11997 0.10608 0.67638 0.0
H1565 H 0.09977 0.13792 0.66704 0.0
C1566 C 0.12208 0.25767 0.63545 0.0
C1567 C 0.12331 0.26061 0.66086 0.0
C1568 C 0.11226 0.23678 0.625 0.0
C1569 C 0.10325 0.21823 0.63965 0.0
C1570 C 0.10448 0.22105 0.66502 0.0
C1571 C 0.11426 0.242 0.67551 0.0
C1572 C 0.09285 0.19592 0.6284 0.0
C1573 C 0.10242 0.17669 0.63415 0.0
C1574 C 0.07445 0.19374 0.61113 0.0
C1575 C 0.06271 0.21302 0.60502 0.0
C1576 C 0.05249 0.22493 0.62336 0.0
C1577 C 0.04162 0.24319 0.61749 0.0
C1578 C 0.04072 0.24962 0.59331 0.0
C1579 C 0.05063 0.23777 0.57494 0.0
C1580 C 0.06154 0.2195 0.58071 0.0
C1581 C 0.04964 0.09126 0.59416 0.0
C1582 C 0.04754 0.09022 0.56871 0.0
C1583 C 0.05894 0.11166 0.60606 0.0
C1584 C 0.06669 0.13147 0.59279 0.0
C1585 C 0.06476 0.13037 0.56737 0.0
C1586 C 0.05531 0.11006 0.5555 0.0
C1587 C 0.07629 0.15346 0.60527 0.0
C1588 C 0.06654 0.17266 0.59978 0.0
C1589 C 0.09462 0.15562 0.62265 0.0
C1590 C 0.1068 0.13653 0.62832 0.0
C1591 C 0.11758 0.12538 0.60974 0.0
C1592 C 0.1289 0.10731 0.61519 0.0
C1593 C 0.12972 0.10034 0.63919 0.0
C1594 C 0.11928 0.11147 0.6578 0.0
C1595 C 0.10791 0.12955 0.65244 0.0
H1596 H 0.1385 0.08634 0.64338 0.0
H1597 H 0.0323 0.26377 0.5888 0.0
H1598 H 0.62455 0.23582 0.56042 0.0
H1599 H 0.60327 0.26506 0.57617 0.0
H1600 H 0.66389 0.31616 0.55924 0.0
H1601 H 0.6853 0.28706 0.54379 0.0
H1602 H 0.63642 0.32944 0.59803 0.0
H1603 H 0.62654 0.29849 0.51535 0.0
H1604 H 0.61705 0.26694 0.48589 0.0
H1605 H 0.54758 0.24877 0.51803 0.0
H1606 H 0.55686 0.28003 0.54795 0.0
H1607 H 0.60451 0.41931 0.53433 0.0
H1608 H 0.61894 0.3872 0.55166 0.0
H1609 H 0.54676 0.35349 0.56358 0.0
H1610 H 0.53218 0.38555 0.54593 0.0
H1611 H 0.57297 0.32809 0.53726 0.0
H1612 H 0.58052 0.36856 0.6115 0.0
H1613 H 0.59109 0.40221 0.63787 0.0
H1614 H 0.6649 0.4045 0.62065 0.0
H1615 H 0.65479 0.3711 0.59373 0.0
C1616 C 0.6336 0.25322 0.56087 0.0
C1617 C 0.65636 0.25926 0.55043 0.0
C1618 C 0.6215 0.26988 0.57001 0.0
C1619 C 0.63185 0.29279 0.56838 0.0
C1620 C 0.65559 0.29859 0.56066 0.0
C1621 C 0.66779 0.28192 0.55174 0.0
C1622 C 0.61678 0.31045 0.56915 0.0
C1623 C 0.6224 0.32916 0.58494 0.0
C1624 C 0.59824 0.30985 0.55228 0.0
C1625 C 0.59247 0.29137 0.53403 0.0
C1626 C 0.60929 0.28768 0.51619 0.0
C1627 C 0.60396 0.26987 0.49942 0.0
C1628 C 0.58175 0.25582 0.50013 0.0
C1629 C 0.5648 0.25963 0.51755 0.0
C1630 C 0.57008 0.27738 0.53442 0.0
C1631 C 0.59173 0.40514 0.54085 0.0
C1632 C 0.56726 0.40474 0.53851 0.0
C1633 C 0.59998 0.38695 0.55105 0.0
C1634 C 0.5839 0.36807 0.55908 0.0
C1635 C 0.55942 0.368 0.55763 0.0
C1636 C 0.55115 0.38629 0.54757 0.0
C1637 C 0.59283 0.3474 0.56579 0.0
C1638 C 0.58624 0.32813 0.55113 0.0
C1639 C 0.61048 0.34768 0.58358 0.0
C1640 C 0.61686 0.36731 0.60046 0.0
C1641 C 0.59902 0.37626 0.61323 0.0
C1642 C 0.60492 0.39531 0.62829 0.0
C1643 C 0.62864 0.4055 0.6309 0.0
C1644 C 0.64653 0.39657 0.6186 0.0
C1645 C 0.64072 0.37754 0.60346 0.0
H1646 H 0.63316 0.42033 0.6424 0.0
H1647 H 0.57765 0.24203 0.48714 0.0
loop_
_geom_bond_atom_site_label_1
_geom_bond_atom_site_label_2
_geom_bond_distance
_geom_bond_site_symmetry_2
_ccdc_geom_bond_type
C0 C1 1.384 . S
C0 H13 0.947 . S
C0 C35 1.382 . S
C1 C0 1.384 . S
C1 C2 1.378 . S
C2 C1 1.378 . S
C2 C3 1.378 . S
C2 H14 0.952 . S
C3 C2 1.378 . S
C3 H15 0.950 . S
C3 C34 1.383 . S
H4 C23 0.947 . S
H5 C24 0.946 . S
H6 C26 0.953 . S
H7 C27 0.945 . S
H8 C29 0.952 . S
H9 C30 0.949 . S
H10 C32 0.950 . S
H11 C33 0.948 . S
H12 C35 0.951 . S
H13 C0 0.947 . S
H14 C2 0.952 . S
H15 C3 0.950 . S
N16 C19 1.382 . S
N16 C21 1.363 . S
N17 C19 1.371 . S
N17 C20 1.372 . S
N18 C20 1.361 . S
N18 C21 1.377 . S
C19 N16 1.382 . S
C19 N17 1.371 . S
C19 C22 1.480 . S
C20 N17 1.372 . S
C20 N18 1.361 . S
C20 C28 1.457 . S
C21 N16 1.363 . S
C21 N18 1.377 . S
C21 C34 1.479 . S
C22 C19 1.480 . S
C22 C23 1.383 . S
C22 C27 1.385 . S
C23 H4 0.947 . S
C23 C22 1.383 . S
C23 C24 1.388 . S
C24 H5 0.946 . S
C24 C23 1.388 . S
C24 C25 1.384 . S
C25 C24 1.384 . S
C25 C26 1.377 . S
C26 H6 0.953 . S
C26 C25 1.377 . S
C26 C27 1.369 . S
C27 H7 0.945 . S
C27 C22 1.385 . S
C27 C26 1.369 . S
C28 C20 1.457 . S
C28 C29 1.372 . S
C28 C33 1.364 . S
C29 H8 0.952 . S
C29 C28 1.372 . S
C29 C30 1.389 . S
C30 H9 0.949 . S
C30 C29 1.389 . S
C30 C31 1.387 . S
C31 C30 1.387 . S
C31 C32 1.372 . S
C32 H10 0.950 . S
C32 C31 1.372 . S
C32 C33 1.379 . S
C33 H11 0.948 . S
C33 C28 1.364 . S
C33 C32 1.379 . S
C34 C3 1.383 . S
C34 C21 1.479 . S
C34 C35 1.398 . S
C35 C0 1.382 . S
C35 H12 0.951 . S
C35 C34 1.398 . S
C36 C37 1.384 . S
C36 H49 0.947 . S
C36 C71 1.382 . S
C37 C36 1.384 . S
C37 C38 1.378 . S
C38 C37 1.378 . S
C38 C39 1.378 . S
C38 H50 0.952 . S
C39 C38 1.378 . S
C39 H51 0.950 . S
C39 C70 1.383 . S
H40 C59 0.947 . S
H41 C60 0.946 . S
H42 C62 0.953 . S
H43 C63 0.945 . S
H44 C65 0.952 . S
H45 C66 0.949 . S
H46 C68 0.950 . S
H47 C69 0.948 . S
H48 C71 0.951 . S
H49 C36 0.947 . S
H50 C38 0.952 . S
H51 C39 0.950 . S
N52 C55 1.382 . S
N52 C57 1.363 . S
N53 C55 1.371 . S
N53 C56 1.372 . S
N54 C56 1.361 . S
N54 C57 1.377 . S
C55 N52 1.382 . S
C55 N53 1.371 . S
C55 C58 1.480 . S
C56 N53 1.372 . S
C56 N54 1.361 . S
C56 C64 1.457 . S
C57 N52 1.363 . S
C57 N54 1.377 . S
C57 C70 1.479 . S
C58 C55 1.480 . S
C58 C59 1.383 . S
C58 C63 1.385 . S
C59 H40 0.947 . S
C59 C58 1.383 . S
C59 C60 1.388 . S
C60 H41 0.946 . S
C60 C59 1.388 . S
C60 C61 1.384 . S
C61 C60 1.384 . S
C61 C62 1.377 . S
C62 H42 0.953 . S
C62 C61 1.377 . S
C62 C63 1.369 . S
C63 H43 0.945 . S
C63 C58 1.385 . S
C63 C62 1.369 . S
C64 C56 1.457 . S
C64 C65 1.372 . S
C64 C69 1.364 . S
C65 H44 0.952 . S
C65 C64 1.372 . S
C65 C66 1.389 . S
C66 H45 0.949 . S
C66 C65 1.389 . S
C66 C67 1.387 . S
C67 C66 1.387 . S
C67 C68 1.372 . S
C68 H46 0.950 . S
C68 C67 1.372 . S
C68 C69 1.379 . S
C69 H47 0.948 . S
C69 C64 1.364 . S
C69 C68 1.379 . S
C70 C39 1.383 . S
C70 C57 1.479 . S
C70 C71 1.398 . S
C71 C36 1.382 . S
C71 H48 0.951 . S
C71 C70 1.398 . S
C72 C73 1.384 . S
C72 H85 0.947 . S
C72 C107 1.382 . S
C73 C72 1.384 . S
C73 C74 1.378 . S
C74 C73 1.378 . S
C74 C75 1.378 . S
C74 H86 0.952 . S
C75 C74 1.378 . S
C75 H87 0.950 . S
C75 C106 1.383 . S
H76 C95 0.947 . S
H77 C96 0.946 . S
H78 C98 0.953 . S
H79 C99 0.945 . S
H80 C101 0.952 . S
H81 C102 0.949 . S
H82 C104 0.950 . S
H83 C105 0.948 . S
H84 C107 0.951 . S
H85 C72 0.947 . S
H86 C74 0.952 . S
H87 C75 0.950 . S
N88 C91 1.382 . S
N88 C93 1.363 . S
N89 C91 1.371 . S
N89 C92 1.372 . S
N90 C92 1.361 . S
N90 C93 1.377 . S
C91 N88 1.382 . S
C91 N89 1.371 . S
C91 C94 1.480 . S
C92 N89 1.372 . S
C92 N90 1.361 . S
C92 C100 1.457 . S
C93 N88 1.363 . S
C93 N90 1.377 . S
C93 C106 1.479 . S
C94 C91 1.480 . S
C94 C95 1.383 . S
C94 C99 1.385 . S
C95 H76 0.947 . S
C95 C94 1.383 . S
C95 C96 1.388 . S
C96 H77 0.946 . S
C96 C95 1.388 . S
C96 C97 1.384 . S
C97 C96 1.384 . S
C97 C98 1.377 . S
C98 H78 0.953 . S
C98 C97 1.377 . S
C98 C99 1.369 . S
C99 H79 0.945 . S
C99 C94 1.385 . S
C99 C98 1.369 . S
C100 C92 1.457 . S
C100 C101 1.372 . S
C100 C105 1.364 . S
C101 H80 0.952 . S
C101 C100 1.372 . S
C101 C102 1.389 . S
C102 H81 0.949 . S
C102 C101 1.389 . S
C102 C103 1.387 . S
C103 C102 1.387 . S
C103 C104 1.372 . S
C104 H82 0.950 . S
C104 C103 1.372 . S
C104 C105 1.379 . S
C105 H83 0.948 . S
C105 C100 1.364 . S
C105 C104 1.379 . S
C106 C75 1.383 . S
C106 C93 1.479 . S
C106 C107 1.398 . S
C107 C72 1.382 . S
C107 H84 0.951 . S
C107 C106 1.398 . S
C108 C109 1.384 . S
C108 H121 0.947 . S
C108 C143 1.382 . S
C109 C108 1.384 . S
C109 C110 1.378 . S
C110 C109 1.378 . S
C110 C111 1.378 . S
C110 H122 0.952 . S
C111 C110 1.378 . S
C111 H123 0.950 . S
C111 C142 1.383 . S
H112 C131 0.947 . S
H113 C132 0.946 . S
H114 C134 0.953 . S
H115 C135 0.945 . S
H116 C137 0.952 . S
H117 C138 0.949 . S
H118 C140 0.950 . S
H119 C141 0.948 . S
H120 C143 0.951 . S
H121 C108 0.947 . S
H122 C110 0.952 . S
H123 C111 0.950 . S
N124 C127 1.382 . S
N124 C129 1.363 . S
N125 C127 1.371 . S
N125 C128 1.372 . S
N126 C128 1.361 . S
N126 C129 1.377 . S
C127 N124 1.382 . S
C127 N125 1.371 . S
C127 C130 1.480 . S
C128 N125 1.372 . S
C128 N126 1.361 . S
C128 C136 1.457 . S
C129 N124 1.363 . S
C129 N126 1.377 . S
C129 C142 1.479 . S
C130 C127 1.480 . S
C130 C131 1.383 . S
C130 C135 1.385 . S
C131 H112 0.947 . S
C131 C130 1.383 . S
C131 C132 1.388 . S
C132 H113 0.946 . S
C132 C131 1.388 . S
C132 C133 1.384 . S
C133 C132 1.384 . S
C133 C134 1.377 . S
C134 H114 0.953 . S
C134 C133 1.377 . S
C134 C135 1.369 . S
C135 H115 0.945 . S
C135 C130 1.385 . S
C135 C134 1.369 . S
C136 C128 1.457 . S
C136 C137 1.372 . S
C136 C141 1.364 . S
C137 H116 0.952 . S
C137 C136 1.372 . S
C137 C138 1.389 . S
C138 H117 0.949 . S
C138 C137 1.389 . S
C138 C139 1.387 . S
C139 C138 1.387 . S
C139 C140 1.372 . S
C140 H118 0.950 . S
C140 C139 1.372 . S
C140 C141 1.379 . S
C141 H119 0.948 . S
C141 C136 1.364 . S
C141 C140 1.379 . S
C142 C111 1.383 . S
C142 C129 1.479 . S
C142 C143 1.398 . S
C143 C108 1.382 . S
C143 H120 0.951 . S
C143 C142 1.398 . S
C144 C145 1.384 . S
C144 H157 0.947 . S
C144 C179 1.382 . S
C145 C144 1.384 . S
C145 C146 1.378 . S
C146 C145 1.378 . S
C146 C147 1.378 . S
C146 H158 0.952 . S
C147 C146 1.378 . S
C147 H159 0.950 . S
C147 C178 1.383 . S
H148 C167 0.947 . S
H149 C168 0.946 . S
H150 C170 0.953 . S
H151 C171 0.945 . S
H152 C173 0.952 . S
H153 C174 0.949 . S
H154 C176 0.950 . S
H155 C177 0.948 . S
H156 C179 0.951 . S
H157 C144 0.947 . S
H158 C146 0.952 . S
H159 C147 0.950 . S
N160 C163 1.382 . S
N160 C165 1.363 . S
N161 C163 1.371 . S
N161 C164 1.372 . S
N162 C164 1.361 . S
N162 C165 1.377 . S
C163 N160 1.382 . S
C163 N161 1.371 . S
C163 C166 1.480 . S
C164 N161 1.372 . S
C164 N162 1.361 . S
C164 C172 1.457 . S
C165 N160 1.363 . S
C165 N162 1.377 . S
C165 C178 1.479 . S
C166 C163 1.480 . S
C166 C167 1.383 . S
C166 C171 1.385 . S
C167 H148 0.947 . S
C167 C166 1.383 . S
C167 C168 1.388 . S
C168 H149 0.946 . S
C168 C167 1.388 . S
C168 C169 1.384 . S
C169 C168 1.384 . S
C169 C170 1.377 . S
C170 H150 0.953 . S
C170 C169 1.377 . S
C170 C171 1.369 . S
C171 H151 0.945 . S
C171 C166 1.385 . S
C171 C170 1.369 . S
C172 C164 1.457 . S
C172 C173 1.372 . S
C172 C177 1.364 . S
C173 H152 0.952 . S
C173 C172 1.372 . S
C173 C174 1.389 . S
C174 H153 0.949 . S
C174 C173 1.389 . S
C174 C175 1.387 . S
C175 C174 1.387 . S
C175 C176 1.372 . S
C176 H154 0.950 . S
C176 C175 1.372 . S
C176 C177 1.379 . S
C177 H155 0.948 . S
C177 C172 1.364 . S
C177 C176 1.379 . S
C178 C147 1.383 . S
C178 C165 1.479 . S
C178 C179 1.398 . S
C179 C144 1.382 . S
C179 H156 0.951 . S
C179 C178 1.398 . S
C180 C181 1.384 . S
C180 H193 0.947 . S
C180 C215 1.382 . S
C181 C180 1.384 . S
C181 C182 1.378 . S
C182 C181 1.378 . S
C182 C183 1.378 . S
C182 H194 0.952 . S
C183 C182 1.378 . S
C183 H195 0.950 . S
C183 C214 1.383 . S
H184 C203 0.947 . S
H185 C204 0.946 . S
H186 C206 0.953 . S
H187 C207 0.945 . S
H188 C209 0.952 . S
H189 C210 0.949 . S
H190 C212 0.950 . S
H191 C213 0.948 . S
H192 C215 0.951 . S
H193 C180 0.947 . S
H194 C182 0.952 . S
H195 C183 0.950 . S
N196 C199 1.382 . S
N196 C201 1.363 . S
N197 C199 1.371 . S
N197 C200 1.372 . S
N198 C200 1.361 . S
N198 C201 1.377 . S
C199 N196 1.382 . S
C199 N197 1.371 . S
C199 C202 1.480 . S
C200 N197 1.372 . S
C200 N198 1.361 . S
C200 C208 1.457 . S
C201 N196 1.363 . S
C201 N198 1.377 . S
C201 C214 1.479 . S
C202 C199 1.480 . S
C202 C203 1.383 . S
C202 C207 1.385 . S
C203 H184 0.947 . S
C203 C202 1.383 . S
C203 C204 1.388 . S
C204 H185 0.946 . S
C204 C203 1.388 . S
C204 C205 1.384 . S
C205 C204 1.384 . S
C205 C206 1.377 . S
C206 H186 0.953 . S
C206 C205 1.377 . S
C206 C207 1.369 . S
C207 H187 0.945 . S
C207 C202 1.385 . S
C207 C206 1.369 . S
C208 C200 1.457 . S
C208 C209 1.372 . S
C208 C213 1.364 . S
C209 H188 0.952 . S
C209 C208 1.372 . S
C209 C210 1.389 . S
C210 H189 0.949 . S
C210 C209 1.389 . S
C210 C211 1.387 . S
C211 C210 1.387 . S
C211 C212 1.372 . S
C212 H190 0.950 . S
C212 C211 1.372 . S
C212 C213 1.379 . S
C213 H191 0.948 . S
C213 C208 1.364 . S
C213 C212 1.379 . S
C214 C183 1.383 . S
C214 C201 1.479 . S
C214 C215 1.398 . S
C215 C180 1.382 . S
C215 H192 0.951 . S
C215 C214 1.398 . S
C216 C217 1.384 . S
C216 H229 0.947 . S
C216 C251 1.382 . S
C217 C216 1.384 . S
C217 C218 1.378 . S
C218 C217 1.378 . S
C218 C219 1.378 . S
C218 H230 0.952 . S
C219 C218 1.378 . S
C219 H231 0.950 . S
C219 C250 1.383 . S
H220 C239 0.947 . S
H221 C240 0.946 . S
H222 C242 0.953 . S
H223 C243 0.945 . S
H224 C245 0.952 . S
H225 C246 0.949 . S
H226 C248 0.950 . S
H227 C249 0.948 . S
H228 C251 0.951 . S
H229 C216 0.947 . S
H230 C218 0.952 . S
H231 C219 0.950 . S
N232 C235 1.382 . S
N232 C237 1.363 . S
N233 C235 1.371 . S
N233 C236 1.372 . S
N234 C236 1.361 . S
N234 C237 1.377 . S
C235 N232 1.382 . S
C235 N233 1.371 . S
C235 C238 1.480 . S
C236 N233 1.372 . S
C236 N234 1.361 . S
C236 C244 1.457 . S
C237 N232 1.363 . S
C237 N234 1.377 . S
C237 C250 1.479 . S
C238 C235 1.480 . S
C238 C239 1.383 . S
C238 C243 1.385 . S
C239 H220 0.947 . S
C239 C238 1.383 . S
C239 C240 1.388 . S
C240 H221 0.946 . S
C240 C239 1.388 . S
C240 C241 1.384 . S
C241 C240 1.384 . S
C241 C242 1.377 . S
C242 H222 0.953 . S
C242 C241 1.377 . S
C242 C243 1.369 . S
C243 H223 0.945 . S
C243 C238 1.385 . S
C243 C242 1.369 . S
C244 C236 1.457 . S
C244 C245 1.372 . S
C244 C249 1.364 . S
C245 H224 0.952 . S
C245 C244 1.372 . S
C245 C246 1.389 . S
C246 H225 0.949 . S
C246 C245 1.389 . S
C246 C247 1.387 . S
C247 C246 1.387 . S
C247 C248 1.372 . S
C248 H226 0.950 . S
C248 C247 1.372 . S
C248 C249 1.379 . S
C249 H227 0.948 . S
C249 C244 1.364 . S
C249 C248 1.379 . S
C250 C219 1.383 . S
C250 C237 1.479 . S
C250 C251 1.398 . S
C251 C216 1.382 . S
C251 H228 0.951 . S
C251 C250 1.398 . S
C252 C253 1.384 . S
C252 H265 0.947 . S
C252 C287 1.382 . S
C253 C252 1.384 . S
C253 C254 1.378 . S
C254 C253 1.378 . S
C254 C255 1.378 . S
C254 H266 0.952 . S
C255 C254 1.378 . S
C255 H267 0.950 . S
C255 C286 1.383 . S
H256 C275 0.947 . S
H257 C276 0.946 . S
H258 C278 0.953 . S
H259 C279 0.945 . S
H260 C281 0.952 . S
H261 C282 0.949 . S
H262 C284 0.950 . S
H263 C285 0.948 . S
H264 C287 0.951 . S
H265 C252 0.947 . S
H266 C254 0.952 . S
H267 C255 0.950 . S
N268 C271 1.382 . S
N268 C273 1.363 . S
N269 C271 1.371 . S
N269 C272 1.372 . S
N270 C272 1.361 . S
N270 C273 1.377 . S
C271 N268 1.382 . S
C271 N269 1.371 . S
C271 C274 1.480 . S
C272 N269 1.372 . S
C272 N270 1.361 . S
C272 C280 1.457 . S
C273 N268 1.363 . S
C273 N270 1.377 . S
C273 C286 1.479 . S
C274 C271 1.480 . S
C274 C275 1.383 . S
C274 C279 1.385 . S
C275 H256 0.947 . S
C275 C274 1.383 . S
C275 C276 1.388 . S
C276 H257 0.946 . S
C276 C275 1.388 . S
C276 C277 1.384 . S
C277 C276 1.384 . S
C277 C278 1.377 . S
C278 H258 0.953 . S
C278 C277 1.377 . S
C278 C279 1.369 . S
C279 H259 0.945 . S
C279 C274 1.385 . S
C279 C278 1.369 . S
C280 C272 1.457 . S
C280 C281 1.372 . S
C280 C285 1.364 . S
C281 H260 0.952 . S
C281 C280 1.372 . S
C281 C282 1.389 . S
C282 H261 0.949 . S
C282 C281 1.389 . S
C282 C283 1.387 . S
C283 C282 1.387 . S
C283 C284 1.372 . S
C284 H262 0.950 . S
C284 C283 1.372 . S
C284 C285 1.379 . S
C285 H263 0.948 . S
C285 C280 1.364 . S
C285 C284 1.379 . S
C286 C255 1.383 . S
C286 C273 1.479 . S
C286 C287 1.398 . S
C287 C252 1.382 . S
C287 H264 0.951 . S
C287 C286 1.398 . S
La288 C290 2.928 . S
La288 O308 2.521 . S
La288 O309 2.628 . S
La288 O310 2.554 1_545 S
La288 O311 2.757 1_545 S
La288 O312 2.470 . S
La288 O317 2.482 1_455 S
La288 O319 2.503 1_445 S
La289 C299 2.928 . S
La289 O311 2.482 1_655 S
La289 O313 2.503 1_665 S
La289 O314 2.521 . S
La289 O315 2.628 . S
La289 O316 2.554 1_565 S
La289 O317 2.757 1_565 S
La289 O318 2.470 . S
C290 La288 2.928 . S
C290 C291 1.503 . S
C290 O308 1.261 . S
C290 O309 1.243 . S
C291 C290 1.503 . S
C291 C292 1.394 . S
C291 C296 1.373 . S
C292 C291 1.394 . S
C292 C293 1.380 . S
C292 H320 0.930 . S
C293 C292 1.380 . S
C293 C294 1.376 . S
C293 H321 0.930 . S
C294 C293 1.376 . S
C294 C295 1.370 . S
C295 C294 1.370 . S
C295 C296 1.396 . S
C295 H322 0.929 . S
C296 C291 1.373 . S
C296 C295 1.396 . S
C296 H323 0.929 . S
C297 O310 1.240 . S
C297 O311 1.289 . S
C298 O312 1.258 . S
C298 O313 1.256 . S
C299 La289 2.928 . S
C299 C300 1.503 . S
C299 O314 1.261 . S
C299 O315 1.243 . S
C300 C299 1.503 . S
C300 C301 1.394 . S
C300 C305 1.373 . S
C301 C300 1.394 . S
C301 C302 1.380 . S
C301 H324 0.930 . S
C302 C301 1.380 . S
C302 C303 1.376 . S
C302 H325 0.930 . S
C303 C302 1.376 . S
C303 C304 1.370 . S
C304 C303 1.370 . S
C304 C305 1.396 . S
C304 H326 0.929 . S
C305 C300 1.373 . S
C305 C304 1.396 . S
C305 H327 0.929 . S
C306 O316 1.240 . S
C306 O317 1.289 . S
C307 O318 1.258 . S
C307 O319 1.256 . S
O308 La288 2.521 . S
O308 C290 1.261 . S
O309 La288 2.628 . S
O309 C290 1.243 . S
O310 La288 2.554 1_565 S
O310 C297 1.240 . S
O311 La288 2.757 1_565 S
O311 La289 2.482 1_455 S
O311 C297 1.289 . S
O312 La288 2.470 . S
O312 C298 1.258 . S
O313 La289 2.503 1_445 S
O313 C298 1.256 . S
O314 La289 2.521 . S
O314 C299 1.261 . S
O315 La289 2.628 . S
O315 C299 1.243 . S
O316 La289 2.554 1_545 S
O316 C306 1.240 . S
O317 La288 2.482 1_655 S
O317 La289 2.757 1_545 S
O317 C306 1.289 . S
O318 La289 2.470 . S
O318 C307 1.258 . S
O319 La288 2.503 1_665 S
O319 C307 1.256 . S
H320 C292 0.930 . S
H321 C293 0.930 . S
H322 C295 0.929 . S
H323 C296 0.929 . S
H324 C301 0.930 . S
H325 C302 0.930 . S
H326 C304 0.929 . S
H327 C305 0.929 . S
La328 C330 2.926 1_565 S
La328 O348 2.521 1_565 S
La328 O349 2.624 1_565 S
La328 O350 2.557 . S
La328 O351 2.758 . S
La328 O352 2.468 1_565 S
La328 O357 2.479 1_564 S
La328 O359 2.505 1_554 S
La329 C339 2.928 1_545 S
La329 O351 2.482 1_546 S
La329 O353 2.503 1_556 S
La329 O354 2.521 1_545 S
La329 O355 2.628 1_545 S
La329 O356 2.554 . S
La329 O357 2.757 . S
La329 O358 2.470 1_545 S
C330 La328 2.926 1_545 S
C330 C331 1.503 . S
C330 O348 1.261 . S
C330 O349 1.243 . S
C331 C330 1.503 . S
C331 C332 1.394 . S
C331 C336 1.373 . S
C332 C331 1.394 . S
C332 C333 1.380 . S
C332 H360 0.930 . S
C333 C332 1.380 . S
C333 C334 1.376 . S
C333 H361 0.930 . S
C334 C333 1.376 . S
C334 C335 1.370 . S
C335 C334 1.370 . S
C335 C336 1.396 . S
C335 H362 0.929 . S
C336 C331 1.373 . S
C336 C335 1.396 . S
C336 H363 0.929 . S
C337 O350 1.240 . S
C337 O351 1.289 . S
C338 O352 1.258 . S
C338 O353 1.256 . S
C339 La329 2.928 1_565 S
C339 C340 1.503 . S
C339 O354 1.261 . S
C339 O355 1.243 . S
C340 C339 1.503 . S
C340 C341 1.394 . S
C340 C345 1.373 . S
C341 C340 1.394 . S
C341 C342 1.380 . S
C341 H364 0.930 . S
C342 C341 1.380 . S
C342 C343 1.376 . S
C342 H365 0.930 . S
C343 C342 1.376 . S
C343 C344 1.370 . S
C344 C343 1.370 . S
C344 C345 1.396 . S
C344 H366 0.929 . S
C345 C340 1.373 . S
C345 C344 1.396 . S
C345 H367 0.929 . S
C346 O356 1.240 . S
C346 O357 1.289 . S
C347 O358 1.258 . S
C347 O359 1.256 . S
O348 La328 2.521 1_545 S
O348 C330 1.261 . S
O349 La328 2.624 1_545 S
O349 C330 1.243 . S
O350 La328 2.557 . S
O350 C337 1.240 . S
O351 La328 2.758 . S
O351 La329 2.482 1_564 S
O351 C337 1.289 . S
O352 La328 2.468 1_545 S
O352 C338 1.258 . S
O353 La329 2.503 1_554 S
O353 C338 1.256 . S
O354 La329 2.521 1_565 S
O354 C339 1.261 . S
O355 La329 2.628 1_565 S
O355 C339 1.243 . S
O356 La329 2.554 . S
O356 C346 1.240 . S
O357 La328 2.479 1_546 S
O357 La329 2.757 . S
O357 C346 1.289 . S
O358 La329 2.470 1_565 S
O358 C347 1.258 . S
O359 La328 2.505 1_556 S
O359 C347 1.256 . S
H360 C332 0.930 . S
H361 C333 0.930 . S
H362 C335 0.929 . S
H363 C336 0.929 . S
H364 C341 0.930 . S
H365 C342 0.930 . S
H366 C344 0.929 . S
H367 C345 0.929 . S
La368 C370 2.928 . S
La368 O388 2.521 . S
La368 O389 2.628 . S
La368 O390 2.554 . S
La368 O391 2.757 . S
La368 O392 2.470 . S
La368 O397 2.482 . S
La368 O399 2.503 . S
La369 C379 2.928 . S
La369 O391 2.482 . S
La369 O393 2.503 . S
La369 O394 2.521 . S
La369 O395 2.628 . S
La369 O396 2.554 . S
La369 O397 2.757 . S
La369 O398 2.470 . S
C370 La368 2.928 . S
C370 C371 1.503 . S
C370 O388 1.261 . S
C370 O389 1.243 . S
C371 C370 1.503 . S
C371 C372 1.394 . S
C371 C376 1.373 . S
C372 C371 1.394 . S
C372 C373 1.380 . S
C372 H400 0.930 . S
C373 C372 1.380 . S
C373 C374 1.376 . S
C373 H401 0.930 . S
C374 C373 1.376 . S
C374 C375 1.370 . S
C375 C374 1.370 . S
C375 C376 1.396 . S
C375 H402 0.929 . S
C376 C371 1.373 . S
C376 C375 1.396 . S
C376 H403 0.929 . S
C377 O390 1.240 . S
C377 O391 1.289 . S
C378 O392 1.258 . S
C378 O393 1.256 . S
C379 La369 2.928 . S
C379 C380 1.503 . S
C379 O394 1.261 . S
C379 O395 1.243 . S
C380 C379 1.503 . S
C380 C381 1.394 . S
C380 C385 1.373 . S
C381 C380 1.394 . S
C381 C382 1.380 . S
C381 H404 0.930 . S
C382 C381 1.380 . S
C382 C383 1.376 . S
C382 H405 0.930 . S
C383 C382 1.376 . S
C383 C384 1.370 . S
C384 C383 1.370 . S
C384 C385 1.396 . S
C384 H406 0.929 . S
C385 C380 1.373 . S
C385 C384 1.396 . S
C385 H407 0.929 . S
C386 O396 1.240 . S
C386 O397 1.289 . S
C387 O398 1.258 . S
C387 O399 1.256 . S
O388 La368 2.521 . S
O388 C370 1.261 . S
O389 La368 2.628 . S
O389 C370 1.243 . S
O390 La368 2.554 . S
O390 C377 1.240 . S
O391 La368 2.757 . S
O391 La369 2.482 . S
O391 C377 1.289 . S
O392 La368 2.470 . S
O392 C378 1.258 . S
O393 La369 2.503 . S
O393 C378 1.256 . S
O394 La369 2.521 . S
O394 C379 1.261 . S
O395 La369 2.628 . S
O395 C379 1.243 . S
O396 La369 2.554 . S
O396 C386 1.240 . S
O397 La368 2.482 . S
O397 La369 2.757 . S
O397 C386 1.289 . S
O398 La369 2.470 . S
O398 C387 1.258 . S
O399 La368 2.503 . S
O399 C387 1.256 . S
H400 C372 0.930 . S
H401 C373 0.930 . S
H402 C375 0.929 . S
H403 C376 0.929 . S
H404 C381 0.930 . S
H405 C382 0.930 . S
H406 C384 0.929 . S
H407 C385 0.929 . S
La408 C410 2.928 . S
La408 O428 2.521 . S
La408 O429 2.628 . S
La408 O430 2.554 1_455 S
La408 O431 2.757 1_455 S
La408 O432 2.470 . S
La408 O437 2.482 1_554 S
La408 O439 2.503 1_454 S
La409 C419 2.928 1_455 S
La409 O431 2.482 1_456 S
La409 O433 2.503 1_556 S
La409 O434 2.521 1_455 S
La409 O435 2.628 1_455 S
La409 O436 2.554 . S
La409 O437 2.757 . S
La409 O438 2.470 1_455 S
C410 La408 2.928 . S
C410 C411 1.503 . S
C410 O428 1.261 . S
C410 O429 1.243 . S
C411 C410 1.503 . S
C411 C412 1.394 . S
C411 C416 1.373 . S
C412 C411 1.394 . S
C412 C413 1.380 . S
C412 H440 0.930 . S
C413 C412 1.380 . S
C413 C414 1.376 . S
C413 H441 0.930 . S
C414 C413 1.376 . S
C414 C415 1.370 . S
C415 C414 1.370 . S
C415 C416 1.396 . S
C415 H442 0.929 . S
C416 C411 1.373 . S
C416 C415 1.396 . S
C416 H443 0.929 . S
C417 O430 1.240 . S
C417 O431 1.289 . S
C418 O432 1.258 . S
C418 O433 1.256 . S
C419 La409 2.928 1_655 S
C419 C420 1.503 . S
C419 O434 1.261 . S
C419 O435 1.243 . S
C420 C419 1.503 . S
C420 C421 1.394 . S
C420 C425 1.373 . S
C421 C420 1.394 . S
C421 C422 1.380 . S
C421 H444 0.930 . S
C422 C421 1.380 . S
C422 C423 1.376 . S
C422 H445 0.930 . S
C423 C422 1.376 . S
C423 C424 1.370 . S
C424 C423 1.370 . S
C424 C425 1.396 . S
C424 H446 0.929 . S
C425 C420 1.373 . S
C425 C424 1.396 . S
C425 H447 0.929 . S
C426 O436 1.240 . S
C426 O437 1.289 . S
C427 O438 1.258 . S
C427 O439 1.256 . S
O428 La408 2.521 . S
O428 C410 1.261 . S
O429 La408 2.628 . S
O429 C410 1.243 . S
O430 La408 2.554 1_655 S
O430 C417 1.240 . S
O431 La408 2.757 1_655 S
O431 La409 2.482 1_654 S
O431 C417 1.289 . S
O432 La408 2.470 . S
O432 C418 1.258 . S
O433 La409 2.503 1_554 S
O433 C418 1.256 . S
O434 La409 2.521 1_655 S
O434 C419 1.261 . S
O435 La409 2.628 1_655 S
O435 C419 1.243 . S
O436 La409 2.554 . S
O436 C426 1.240 . S
O437 La408 2.482 1_556 S
O437 La409 2.757 . S
O437 C426 1.289 . S
O438 La409 2.470 1_655 S
O438 C427 1.258 . S
O439 La408 2.503 1_656 S
O439 C427 1.256 . S
H440 C412 0.930 . S
H441 C413 0.930 . S
H442 C415 0.929 . S
H443 C416 0.929 . S
H444 C421 0.930 . S
H445 C422 0.930 . S
H446 C424 0.929 . S
H447 C425 0.929 . S
H448 C466 0.951 . S
H449 C468 0.951 . S
H450 C470 0.950 . S
H451 C471 0.950 . S
H452 C473 0.950 . S
H453 C476 0.950 . S
H454 C477 0.950 . S
H455 C479 0.950 . S
H456 C480 0.950 . S
H457 C481 0.951 . S
H458 C483 0.951 . S
H459 C485 0.950 . S
H460 C486 0.950 . S
H461 C488 0.950 . S
H462 C491 0.950 . S
H463 C492 0.950 . S
H464 C494 0.950 . S
H465 C495 0.950 . S
C466 H448 0.951 . S
C466 C467 1.366 . S
C466 C468 1.388 . S
C467 C466 1.366 . S
C467 C471 1.385 . S
C468 H449 0.951 . S
C468 C466 1.388 . S
C468 C469 1.366 . S
C469 C468 1.366 . S
C469 C470 1.414 . S
C469 C472 1.499 . S
C470 H450 0.950 . S
C470 C469 1.414 . S
C470 C471 1.374 . S
C471 H451 0.950 . S
C471 C467 1.385 . S
C471 C470 1.374 . S
C472 C469 1.499 . S
C472 C473 1.373 . S
C472 C474 1.389 . S
C473 H452 0.950 . S
C473 C472 1.373 . S
C473 C489 1.377 . S
C474 C472 1.389 . S
C474 C475 1.524 . S
C474 C488 1.377 . S
C475 C474 1.524 . S
C475 C476 1.397 . S
C475 C480 1.363 . S
C476 H453 0.950 . S
C476 C475 1.397 . S
C476 C477 1.334 . S
C477 H454 0.950 . S
C477 C476 1.334 . S
C477 C478 1.287 . S
C478 C477 1.287 . S
C478 C479 1.524 . S
C478 H497 0.913 . S
C479 H455 0.950 . S
C479 C478 1.524 . S
C479 C480 1.415 . S
C480 H456 0.950 . S
C480 C475 1.363 . S
C480 C479 1.415 . S
C481 H457 0.951 . S
C481 C482 1.366 . S
C481 C483 1.388 . S
C482 C481 1.366 . S
C482 C486 1.385 . S
C483 H458 0.951 . S
C483 C481 1.388 . S
C483 C484 1.366 . S
C484 C483 1.366 . S
C484 C485 1.414 . S
C484 C487 1.499 . S
C485 H459 0.950 . S
C485 C484 1.414 . S
C485 C486 1.374 . S
C486 H460 0.950 . S
C486 C482 1.385 . S
C486 C485 1.374 . S
C487 C484 1.499 . S
C487 C488 1.373 . S
C487 C489 1.389 . S
C488 H461 0.950 . S
C488 C474 1.377 . S
C488 C487 1.373 . S
C489 C473 1.377 . S
C489 C487 1.389 . S
C489 C490 1.524 . S
C490 C489 1.524 . S
C490 C491 1.397 . S
C490 C495 1.363 . S
C491 H462 0.950 . S
C491 C490 1.397 . S
C491 C492 1.334 . S
C492 H463 0.950 . S
C492 C491 1.334 . S
C492 C493 1.287 . S
C493 C492 1.287 . S
C493 C494 1.524 . S
C493 H496 0.999 . S
C494 H464 0.950 . S
C494 C493 1.524 . S
C494 C495 1.415 . S
C495 H465 0.950 . S
C495 C490 1.363 . S
C495 C494 1.415 . S
H496 C493 0.999 . S
H497 C478 0.913 . S
H498 C516 0.951 . S
H499 C518 0.951 . S
H500 C520 0.950 . S
H501 C521 0.950 . S
H502 C523 0.950 . S
H503 C526 0.950 . S
H504 C527 0.950 . S
H505 C529 0.950 . S
H506 C530 0.950 . S
H507 C531 0.951 . S
H508 C533 0.951 . S
H509 C535 0.950 . S
H510 C536 0.950 . S
H511 C538 0.950 . S
H512 C541 0.950 . S
H513 C542 0.950 . S
H514 C544 0.950 . S
H515 C545 0.950 . S
C516 H498 0.951 . S
C516 C517 1.366 . S
C516 C518 1.388 . S
C517 C516 1.366 . S
C517 C521 1.385 . S
C518 H499 0.951 . S
C518 C516 1.388 . S
C518 C519 1.366 . S
C519 C518 1.366 . S
C519 C520 1.414 . S
C519 C522 1.499 . S
C520 H500 0.950 . S
C520 C519 1.414 . S
C520 C521 1.374 . S
C521 H501 0.950 . S
C521 C517 1.385 . S
C521 C520 1.374 . S
C522 C519 1.499 . S
C522 C523 1.373 . S
C522 C524 1.389 . S
C523 H502 0.950 . S
C523 C522 1.373 . S
C523 C539 1.377 . S
C524 C522 1.389 . S
C524 C525 1.524 . S
C524 C538 1.377 . S
C525 C524 1.524 . S
C525 C526 1.397 . S
C525 C530 1.363 . S
C526 H503 0.950 . S
C526 C525 1.397 . S
C526 C527 1.334 . S
C527 H504 0.950 . S
C527 C526 1.334 . S
C527 C528 1.287 . S
C528 C527 1.287 . S
C528 C529 1.524 . S
C528 H547 0.913 . S
C529 H505 0.950 . S
C529 C528 1.524 . S
C529 C530 1.415 . S
C530 H506 0.950 . S
C530 C525 1.363 . S
C530 C529 1.415 . S
C531 H507 0.951 . S
C531 C532 1.366 . S
C531 C533 1.388 . S
C532 C531 1.366 . S
C532 C536 1.385 . S
C533 H508 0.951 . S
C533 C531 1.388 . S
C533 C534 1.366 . S
C534 C533 1.366 . S
C534 C535 1.414 . S
C534 C537 1.499 . S
C535 H509 0.950 . S
C535 C534 1.414 . S
C535 C536 1.374 . S
C536 H510 0.950 . S
C536 C532 1.385 . S
C536 C535 1.374 . S
C537 C534 1.499 . S
C537 C538 1.373 . S
C537 C539 1.389 . S
C538 H511 0.950 . S
C538 C524 1.377 . S
C538 C537 1.373 . S
C539 C523 1.377 . S
C539 C537 1.389 . S
C539 C540 1.524 . S
C540 C539 1.524 . S
C540 C541 1.397 . S
C540 C545 1.363 . S
C541 H512 0.950 . S
C541 C540 1.397 . S
C541 C542 1.334 . S
C542 H513 0.950 . S
C542 C541 1.334 . S
C542 C543 1.287 . S
C543 C542 1.287 . S
C543 C544 1.524 . S
C543 H546 0.999 . S
C544 H514 0.950 . S
C544 C543 1.524 . S
C544 C545 1.415 . S
C545 H515 0.950 . S
C545 C540 1.363 . S
C545 C544 1.415 . S
H546 C543 0.999 . S
H547 C528 0.913 . S
H548 C566 0.951 . S
H549 C568 0.951 . S
H550 C570 0.950 . S
H551 C571 0.950 . S
H552 C573 0.950 . S
H553 C576 0.950 . S
H554 C577 0.950 . S
H555 C579 0.950 . S
H556 C580 0.950 . S
H557 C581 0.951 . S
H558 C583 0.951 . S
H559 C585 0.950 . S
H560 C586 0.950 . S
H561 C588 0.950 . S
H562 C591 0.950 . S
H563 C592 0.950 . S
H564 C594 0.950 . S
H565 C595 0.950 . S
C566 H548 0.951 . S
C566 C567 1.366 . S
C566 C568 1.388 . S
C567 C566 1.366 . S
C567 C571 1.385 . S
C568 H549 0.951 . S
C568 C566 1.388 . S
C568 C569 1.366 . S
C569 C568 1.366 . S
C569 C570 1.414 . S
C569 C572 1.499 . S
C570 H550 0.950 . S
C570 C569 1.414 . S
C570 C571 1.374 . S
C571 H551 0.950 . S
C571 C567 1.385 . S
C571 C570 1.374 . S
C572 C569 1.499 . S
C572 C573 1.373 . S
C572 C574 1.389 . S
C573 H552 0.950 . S
C573 C572 1.373 . S
C573 C589 1.377 . S
C574 C572 1.389 . S
C574 C575 1.524 . S
C574 C588 1.377 . S
C575 C574 1.524 . S
C575 C576 1.397 . S
C575 C580 1.363 . S
C576 H553 0.950 . S
C576 C575 1.397 . S
C576 C577 1.334 . S
C577 H554 0.950 . S
C577 C576 1.334 . S
C577 C578 1.287 . S
C578 C577 1.287 . S
C578 C579 1.524 . S
C578 H597 0.913 . S
C579 H555 0.950 . S
C579 C578 1.524 . S
C579 C580 1.415 . S
C580 H556 0.950 . S
C580 C575 1.363 . S
C580 C579 1.415 . S
C581 H557 0.951 . S
C581 C582 1.366 . S
C581 C583 1.388 . S
C582 C581 1.366 . S
C582 C586 1.385 . S
C583 H558 0.951 . S
C583 C581 1.388 . S
C583 C584 1.366 . S
C584 C583 1.366 . S
C584 C585 1.414 . S
C584 C587 1.499 . S
C585 H559 0.950 . S
C585 C584 1.414 . S
C585 C586 1.374 . S
C586 H560 0.950 . S
C586 C582 1.385 . S
C586 C585 1.374 . S
C587 C584 1.499 . S
C587 C588 1.373 . S
C587 C589 1.389 . S
C588 H561 0.950 . S
C588 C574 1.377 . S
C588 C587 1.373 . S
C589 C573 1.377 . S
C589 C587 1.389 . S
C589 C590 1.524 . S
C590 C589 1.524 . S
C590 C591 1.397 . S
C590 C595 1.363 . S
C591 H562 0.950 . S
C591 C590 1.397 . S
C591 C592 1.334 . S
C592 H563 0.950 . S
C592 C591 1.334 . S
C592 C593 1.287 . S
C593 C592 1.287 . S
C593 C594 1.524 . S
C593 H596 0.999 . S
C594 H564 0.950 . S
C594 C593 1.524 . S
C594 C595 1.415 . S
C595 H565 0.950 . S
C595 C590 1.363 . S
C595 C594 1.415 . S
H596 C593 0.999 . S
H597 C578 0.913 . S
H598 C616 0.951 . S
H599 C618 0.951 . S
H600 C620 0.950 . S
H601 C621 0.950 . S
H602 C623 0.950 . S
H603 C626 0.950 . S
H604 C627 0.950 . S
H605 C629 0.950 . S
H606 C630 0.950 . S
H607 C631 0.951 . S
H608 C633 0.951 . S
H609 C635 0.950 . S
H610 C636 0.950 . S
H611 C638 0.950 . S
H612 C641 0.950 . S
H613 C642 0.950 . S
H614 C644 0.950 . S
H615 C645 0.950 . S
C616 H598 0.951 . S
C616 C617 1.366 . S
C616 C618 1.388 . S
C617 C616 1.366 . S
C617 C621 1.385 . S
C618 H599 0.951 . S
C618 C616 1.388 . S
C618 C619 1.366 . S
C619 C618 1.366 . S
C619 C620 1.414 . S
C619 C622 1.499 . S
C620 H600 0.950 . S
C620 C619 1.414 . S
C620 C621 1.374 . S
C621 H601 0.950 . S
C621 C617 1.385 . S
C621 C620 1.374 . S
C622 C619 1.499 . S
C622 C623 1.373 . S
C622 C624 1.389 . S
C623 H602 0.950 . S
C623 C622 1.373 . S
C623 C639 1.377 . S
C624 C622 1.389 . S
C624 C625 1.524 . S
C624 C638 1.377 . S
C625 C624 1.524 . S
C625 C626 1.397 . S
C625 C630 1.363 . S
C626 H603 0.950 . S
C626 C625 1.397 . S
C626 C627 1.334 . S
C627 H604 0.950 . S
C627 C626 1.334 . S
C627 C628 1.287 . S
C628 C627 1.287 . S
C628 C629 1.524 . S
C628 H647 0.913 . S
C629 H605 0.950 . S
C629 C628 1.524 . S
C629 C630 1.415 . S
C630 H606 0.950 . S
C630 C625 1.363 . S
C630 C629 1.415 . S
C631 H607 0.951 . S
C631 C632 1.366 . S
C631 C633 1.388 . S
C632 C631 1.366 . S
C632 C636 1.385 . S
C633 H608 0.951 . S
C633 C631 1.388 . S
C633 C634 1.366 . S
C634 C633 1.366 . S
C634 C635 1.414 . S
C634 C637 1.499 . S
C635 H609 0.950 . S
C635 C634 1.414 . S
C635 C636 1.374 . S
C636 H610 0.950 . S
C636 C632 1.385 . S
C636 C635 1.374 . S
C637 C634 1.499 . S
C637 C638 1.373 . S
C637 C639 1.389 . S
C638 H611 0.950 . S
C638 C624 1.377 . S
C638 C637 1.373 . S
C639 C623 1.377 . S
C639 C637 1.389 . S
C639 C640 1.524 . S
C640 C639 1.524 . S
C640 C641 1.397 . S
C640 C645 1.363 . S
C641 H612 0.950 . S
C641 C640 1.397 . S
C641 C642 1.334 1_655 S
C642 H613 0.950 . S
C642 C641 1.334 1_455 S
C642 C643 1.287 . S
C643 C642 1.287 . S
C643 C644 1.524 1_455 S
C643 H646 0.999 . S
C644 H614 0.950 . S
C644 C643 1.524 1_655 S
C644 C645 1.415 . S
C645 H615 0.950 . S
C645 C640 1.363 . S
C645 C644 1.415 . S
H646 C643 0.999 . S
H647 C628 0.913 . S
H648 C666 0.951 . S
H649 C668 0.951 . S
H650 C670 0.950 . S
H651 C671 0.950 . S
H652 C673 0.950 . S
H653 C676 0.950 . S
H654 C677 0.950 . S
H655 C679 0.950 . S
H656 C680 0.950 . S
H657 C681 0.951 . S
H658 C683 0.951 . S
H659 C685 0.950 . S
H660 C686 0.950 . S
H661 C688 0.950 . S
H662 C691 0.950 . S
H663 C692 0.950 . S
H664 C694 0.950 . S
H665 C695 0.950 . S
C666 H648 0.951 . S
C666 C667 1.366 . S
C666 C668 1.388 . S
C667 C666 1.366 . S
C667 C671 1.385 . S
C668 H649 0.951 . S
C668 C666 1.388 . S
C668 C669 1.366 . S
C669 C668 1.366 . S
C669 C670 1.414 . S
C669 C672 1.499 . S
C670 H650 0.950 . S
C670 C669 1.414 . S
C670 C671 1.374 . S
C671 H651 0.950 . S
C671 C667 1.385 . S
C671 C670 1.374 . S
C672 C669 1.499 . S
C672 C673 1.373 . S
C672 C674 1.389 . S
C673 H652 0.950 . S
C673 C672 1.373 . S
C673 C689 1.377 . S
C674 C672 1.389 . S
C674 C675 1.524 . S
C674 C688 1.377 . S
C675 C674 1.524 . S
C675 C676 1.397 . S
C675 C680 1.363 . S
C676 H653 0.950 . S
C676 C675 1.397 . S
C676 C677 1.334 . S
C677 H654 0.950 . S
C677 C676 1.334 . S
C677 C678 1.287 . S
C678 C677 1.287 . S
C678 C679 1.524 . S
C678 H697 0.913 . S
C679 H655 0.950 . S
C679 C678 1.524 . S
C679 C680 1.415 . S
C680 H656 0.950 . S
C680 C675 1.363 . S
C680 C679 1.415 . S
C681 H657 0.951 . S
C681 C682 1.366 . S
C681 C683 1.388 . S
C682 C681 1.366 . S
C682 C686 1.385 . S
C683 H658 0.951 . S
C683 C681 1.388 . S
C683 C684 1.366 . S
C684 C683 1.366 . S
C684 C685 1.414 . S
C684 C687 1.499 . S
C685 H659 0.950 . S
C685 C684 1.414 . S
C685 C686 1.374 . S
C686 H660 0.950 . S
C686 C682 1.385 . S
C686 C685 1.374 . S
C687 C684 1.499 . S
C687 C688 1.373 . S
C687 C689 1.389 . S
C688 H661 0.950 . S
C688 C674 1.377 . S
C688 C687 1.373 . S
C689 C673 1.377 . S
C689 C687 1.389 . S
C689 C690 1.524 . S
C690 C689 1.524 . S
C690 C691 1.397 . S
C690 C695 1.363 . S
C691 H662 0.950 . S
C691 C690 1.397 . S
C691 C692 1.334 . S
C692 H663 0.950 . S
C692 C691 1.334 . S
C692 C693 1.287 . S
C693 C692 1.287 . S
C693 C694 1.524 . S
C693 H696 0.999 . S
C694 H664 0.950 . S
C694 C693 1.524 . S
C694 C695 1.415 . S
C695 H665 0.950 . S
C695 C690 1.363 . S
C695 C694 1.415 . S
H696 C693 0.999 . S
H697 C678 0.913 . S
H698 C716 0.951 . S
H699 C718 0.951 . S
H700 C720 0.950 . S
H701 C721 0.950 . S
H702 C723 0.950 . S
H703 C726 0.950 . S
H704 C727 0.950 . S
H705 C729 0.950 . S
H706 C730 0.950 . S
H707 C731 0.951 . S
H708 C733 0.951 . S
H709 C735 0.950 . S
H710 C736 0.950 . S
H711 C738 0.950 . S
H712 C741 0.950 . S
H713 C742 0.978 . S
H714 C744 0.950 . S
H715 C745 0.950 . S
C716 H698 0.951 . S
C716 C717 1.366 . S
C716 C718 1.388 . S
C717 C716 1.366 . S
C717 C721 1.385 . S
C718 H699 0.951 . S
C718 C716 1.388 . S
C718 C719 1.366 . S
C719 C718 1.366 . S
C719 C720 1.414 . S
C719 C722 1.499 . S
C720 H700 0.950 . S
C720 C719 1.414 . S
C720 C721 1.374 . S
C721 H701 0.950 . S
C721 C717 1.385 . S
C721 C720 1.374 . S
C722 C719 1.499 . S
C722 C723 1.373 . S
C722 C724 1.389 . S
C723 H702 0.950 . S
C723 C722 1.373 . S
C723 C739 1.377 . S
C724 C722 1.389 . S
C724 C725 1.524 . S
C724 C738 1.377 . S
C725 C724 1.524 . S
C725 C726 1.397 . S
C725 C730 1.363 . S
C726 H703 0.950 . S
C726 C725 1.397 . S
C726 C727 1.334 . S
C727 H704 0.950 . S
C727 C726 1.334 . S
C727 C728 1.287 . S
C728 C727 1.287 . S
C728 C729 1.524 . S
C728 H747 0.913 . S
C729 H705 0.950 . S
C729 C728 1.524 . S
C729 C730 1.415 . S
C730 H706 0.950 . S
C730 C725 1.363 . S
C730 C729 1.415 . S
C731 H707 0.951 . S
C731 C732 1.366 . S
C731 C733 1.388 . S
C732 C731 1.366 . S
C732 C736 1.385 . S
C733 H708 0.951 . S
C733 C731 1.388 . S
C733 C734 1.366 . S
C734 C733 1.366 . S
C734 C735 1.414 . S
C734 C737 1.499 . S
C735 H709 0.950 . S
C735 C734 1.414 . S
C735 C736 1.374 . S
C736 H710 0.950 . S
C736 C732 1.385 . S
C736 C735 1.374 . S
C737 C734 1.499 . S
C737 C738 1.373 . S
C737 C739 1.389 . S
C738 H711 0.950 . S
C738 C724 1.377 . S
C738 C737 1.373 . S
C739 C723 1.377 . S
C739 C737 1.389 . S
C739 C740 1.524 . S
C740 C739 1.524 . S
C740 C741 1.397 . S
C740 C745 1.363 . S
C741 H712 0.950 . S
C741 C740 1.397 . S
C741 C742 1.311 1_565 S
C742 H713 0.978 . S
C742 C741 1.311 1_545 S
C742 C743 1.281 1_545 S
C743 C742 1.281 1_565 S
C743 C744 1.524 . S
C743 H746 0.999 1_565 S
C744 H714 0.950 . S
C744 C743 1.524 . S
C744 C745 1.415 . S
C745 H715 0.950 . S
C745 C740 1.363 . S
C745 C744 1.415 . S
H746 C743 0.999 1_545 S
H747 C728 0.913 . S
H748 C766 0.951 . S
H749 C768 0.951 . S
H750 C770 0.950 . S
H751 C771 0.950 . S
H752 C773 0.950 . S
H753 C776 0.950 . S
H754 C777 0.950 . S
H755 C779 0.950 . S
H756 C780 0.950 . S
H757 C781 0.951 . S
H758 C783 0.951 . S
H759 C785 0.950 . S
H760 C786 0.950 . S
H761 C788 0.950 . S
H762 C791 0.950 . S
H763 C792 0.950 . S
H764 C794 0.950 . S
H765 C795 0.950 . S
C766 H748 0.951 . S
C766 C767 1.366 . S
C766 C768 1.388 . S
C767 C766 1.366 . S
C767 C771 1.385 . S
C768 H749 0.951 . S
C768 C766 1.388 . S
C768 C769 1.366 . S
C769 C768 1.366 . S
C769 C770 1.414 . S
C769 C772 1.499 . S
C770 H750 0.950 . S
C770 C769 1.414 . S
C770 C771 1.374 . S
C771 H751 0.950 . S
C771 C767 1.385 . S
C771 C770 1.374 . S
C772 C769 1.499 . S
C772 C773 1.373 . S
C772 C774 1.389 . S
C773 H752 0.950 . S
C773 C772 1.373 . S
C773 C789 1.377 . S
C774 C772 1.389 . S
C774 C775 1.524 . S
C774 C788 1.377 . S
C775 C774 1.524 . S
C775 C776 1.397 . S
C775 C780 1.363 . S
C776 H753 0.950 . S
C776 C775 1.397 . S
C776 C777 1.334 . S
C777 H754 0.950 . S
C777 C776 1.334 . S
C777 C778 1.287 . S
C778 C777 1.287 . S
C778 C779 1.524 . S
C778 H797 0.913 . S
C779 H755 0.950 . S
C779 C778 1.524 . S
C779 C780 1.415 . S
C780 H756 0.950 . S
C780 C775 1.363 . S
C780 C779 1.415 . S
C781 H757 0.951 . S
C781 C782 1.366 . S
C781 C783 1.388 . S
C782 C781 1.366 . S
C782 C786 1.385 . S
C783 H758 0.951 . S
C783 C781 1.388 . S
C783 C784 1.366 . S
C784 C783 1.366 . S
C784 C785 1.414 . S
C784 C787 1.499 . S
C785 H759 0.950 . S
C785 C784 1.414 . S
C785 C786 1.374 . S
C786 H760 0.950 . S
C786 C782 1.385 . S
C786 C785 1.374 . S
C787 C784 1.499 . S
C787 C788 1.373 . S
C787 C789 1.389 . S
C788 H761 0.950 . S
C788 C774 1.377 . S
C788 C787 1.373 . S
C789 C773 1.377 . S
C789 C787 1.389 . S
C789 C790 1.524 . S
C790 C789 1.524 . S
C790 C791 1.397 . S
C790 C795 1.363 . S
C791 H762 0.950 . S
C791 C790 1.397 . S
C791 C792 1.334 . S
C792 H763 0.950 . S
C792 C791 1.334 . S
C792 C793 1.287 . S
C793 C792 1.287 . S
C793 C794 1.524 . S
C793 H796 0.999 . S
C794 H764 0.950 . S
C794 C793 1.524 . S
C794 C795 1.415 . S
C795 H765 0.950 . S
C795 C790 1.363 . S
C795 C794 1.415 . S
H796 C793 0.999 . S
H797 C778 0.913 . S
H798 C816 0.951 . S
H799 C818 0.951 . S
H800 C820 0.950 . S
H801 C821 0.950 . S
H802 C823 0.950 . S
H803 C826 0.950 . S
H804 C827 0.950 . S
H805 C829 0.950 . S
H806 C830 0.950 . S
H807 C831 0.951 . S
H808 C833 0.951 . S
H809 C835 0.950 . S
H810 C836 0.950 . S
H811 C838 0.950 . S
H812 C841 0.950 . S
H813 C842 0.950 . S
H814 C844 0.950 . S
H815 C845 0.950 . S
C816 H798 0.951 . S
C816 C817 1.366 . S
C816 C818 1.388 . S
C817 C816 1.366 . S
C817 C821 1.385 . S
C818 H799 0.951 . S
C818 C816 1.388 . S
C818 C819 1.366 . S
C819 C818 1.366 . S
C819 C820 1.414 . S
C819 C822 1.499 . S
C820 H800 0.950 . S
C820 C819 1.414 . S
C820 C821 1.374 . S
C821 H801 0.950 . S
C821 C817 1.385 . S
C821 C820 1.374 . S
C822 C819 1.499 . S
C822 C823 1.373 . S
C822 C824 1.389 . S
C823 H802 0.950 . S
C823 C822 1.373 . S
C823 C839 1.377 . S
C824 C822 1.389 . S
C824 C825 1.524 . S
C824 C838 1.377 . S
C825 C824 1.524 . S
C825 C826 1.397 . S
C825 C830 1.363 . S
C826 H803 0.950 . S
C826 C825 1.397 . S
C826 C827 1.334 . S
C827 H804 0.950 . S
C827 C826 1.334 . S
C827 C828 1.287 . S
C828 C827 1.287 . S
C828 C829 1.524 . S
C828 H847 0.913 . S
C829 H805 0.950 . S
C829 C828 1.524 . S
C829 C830 1.415 . S
C830 H806 0.950 . S
C830 C825 1.363 . S
C830 C829 1.415 . S
C831 H807 0.951 . S
C831 C832 1.366 . S
C831 C833 1.388 . S
C832 C831 1.366 . S
C832 C836 1.385 . S
C833 H808 0.951 . S
C833 C831 1.388 . S
C833 C834 1.366 . S
C834 C833 1.366 . S
C834 C835 1.414 . S
C834 C837 1.499 . S
C835 H809 0.950 . S
C835 C834 1.414 . S
C835 C836 1.374 . S
C836 H810 0.950 . S
C836 C832 1.385 . S
C836 C835 1.374 . S
C837 C834 1.499 . S
C837 C838 1.373 . S
C837 C839 1.389 . S
C838 H811 0.950 . S
C838 C824 1.377 . S
C838 C837 1.373 . S
C839 C823 1.377 . S
C839 C837 1.389 . S
C839 C840 1.524 . S
C840 C839 1.524 . S
C840 C841 1.397 . S
C840 C845 1.363 . S
C841 H812 0.950 . S
C841 C840 1.397 . S
C841 C842 1.334 . S
C842 H813 0.950 . S
C842 C841 1.334 . S
C842 C843 1.287 . S
C843 C842 1.287 . S
C843 C844 1.524 . S
C843 H846 0.999 . S
C844 H814 0.950 . S
C844 C843 1.524 . S
C844 C845 1.415 . S
C845 H815 0.950 . S
C845 C840 1.363 . S
C845 C844 1.415 . S
H846 C843 0.999 . S
H847 C828 0.913 . S
H848 C866 0.951 . S
H849 C868 0.951 . S
H850 C870 0.950 . S
H851 C871 0.950 . S
H852 C873 0.950 . S
H853 C876 0.950 . S
H854 C877 0.950 . S
H855 C879 0.950 . S
H856 C880 0.950 . S
H857 C881 0.951 . S
H858 C883 0.951 . S
H859 C885 0.950 . S
H860 C886 0.950 . S
H861 C888 0.950 . S
H862 C891 0.950 . S
H863 C892 0.950 . S
H864 C894 0.950 . S
H865 C895 0.950 . S
C866 H848 0.951 . S
C866 C867 1.366 . S
C866 C868 1.388 . S
C867 C866 1.366 . S
C867 C871 1.385 . S
C868 H849 0.951 . S
C868 C866 1.388 . S
C868 C869 1.366 . S
C869 C868 1.366 . S
C869 C870 1.414 . S
C869 C872 1.499 . S
C870 H850 0.950 . S
C870 C869 1.414 . S
C870 C871 1.374 . S
C871 H851 0.950 . S
C871 C867 1.385 . S
C871 C870 1.374 . S
C872 C869 1.499 . S
C872 C873 1.373 . S
C872 C874 1.389 . S
C873 H852 0.950 . S
C873 C872 1.373 . S
C873 C889 1.377 . S
C874 C872 1.389 . S
C874 C875 1.524 . S
C874 C888 1.377 . S
C875 C874 1.524 . S
C875 C876 1.397 . S
C875 C880 1.363 . S
C876 H853 0.950 . S
C876 C875 1.397 . S
C876 C877 1.334 . S
C877 H854 0.950 . S
C877 C876 1.334 . S
C877 C878 1.287 . S
C878 C877 1.287 . S
C878 C879 1.524 . S
C878 H897 0.913 . S
C879 H855 0.950 . S
C879 C878 1.524 . S
C879 C880 1.415 . S
C880 H856 0.950 . S
C880 C875 1.363 . S
C880 C879 1.415 . S
C881 H857 0.951 . S
C881 C882 1.366 . S
C881 C883 1.388 . S
C882 C881 1.366 . S
C882 C886 1.385 . S
C883 H858 0.951 . S
C883 C881 1.388 . S
C883 C884 1.366 . S
C884 C883 1.366 . S
C884 C885 1.414 . S
C884 C887 1.499 . S
C885 H859 0.950 . S
C885 C884 1.414 . S
C885 C886 1.374 . S
C886 H860 0.950 . S
C886 C882 1.385 . S
C886 C885 1.374 . S
C887 C884 1.499 . S
C887 C888 1.373 . S
C887 C889 1.389 . S
C888 H861 0.950 . S
C888 C874 1.377 . S
C888 C887 1.373 . S
C889 C873 1.377 . S
C889 C887 1.389 . S
C889 C890 1.524 . S
C890 C889 1.524 . S
C890 C891 1.397 . S
C890 C895 1.363 . S
C891 H862 0.950 . S
C891 C890 1.397 . S
C891 C892 1.334 . S
C892 H863 0.950 . S
C892 C891 1.334 . S
C892 C893 1.287 . S
C893 C892 1.287 . S
C893 C894 1.524 . S
C893 H896 0.999 . S
C894 H864 0.950 . S
C894 C893 1.524 . S
C894 C895 1.415 . S
C895 H865 0.950 . S
C895 C890 1.363 . S
C895 C894 1.415 . S
H896 C893 0.999 . S
H897 C878 0.913 . S
H898 C916 0.951 . S
H899 C918 0.951 . S
H900 C920 0.950 . S
H901 C921 0.950 . S
H902 C923 0.950 . S
H903 C926 0.950 . S
H904 C927 0.950 . S
H905 C929 0.950 . S
H906 C930 0.950 . S
H907 C931 0.951 . S
H908 C933 0.951 . S
H909 C935 0.950 . S
H910 C936 0.950 . S
H911 C938 0.950 . S
H912 C941 0.950 . S
H913 C942 0.964 . S
H914 C944 0.950 . S
H915 C945 0.950 . S
C916 H898 0.951 . S
C916 C917 1.366 . S
C916 C918 1.388 . S
C917 C916 1.366 . S
C917 C921 1.385 . S
C918 H899 0.951 . S
C918 C916 1.388 . S
C918 C919 1.366 . S
C919 C918 1.366 . S
C919 C920 1.414 . S
C919 C922 1.499 . S
C920 H900 0.950 . S
C920 C919 1.414 . S
C920 C921 1.374 . S
C921 H901 0.950 . S
C921 C917 1.385 . S
C921 C920 1.374 . S
C922 C919 1.499 . S
C922 C923 1.373 . S
C922 C924 1.389 . S
C923 H902 0.950 . S
C923 C922 1.373 . S
C923 C939 1.377 . S
C924 C922 1.389 . S
C924 C925 1.524 . S
C924 C938 1.377 . S
C925 C924 1.524 . S
C925 C926 1.397 . S
C925 C930 1.363 . S
C926 H903 0.950 . S
C926 C925 1.397 . S
C926 C927 1.334 . S
C927 H904 0.950 . S
C927 C926 1.334 . S
C927 C928 1.287 . S
C928 C927 1.287 . S
C928 C929 1.524 . S
C928 H947 0.913 . S
C929 H905 0.950 . S
C929 C928 1.524 . S
C929 C930 1.415 . S
C930 H906 0.950 . S
C930 C925 1.363 . S
C930 C929 1.415 . S
C931 H907 0.951 . S
C931 C932 1.366 . S
C931 C933 1.388 . S
C932 C931 1.366 . S
C932 C936 1.385 . S
C933 H908 0.951 . S
C933 C931 1.388 . S
C933 C934 1.366 . S
C934 C933 1.366 . S
C934 C935 1.414 . S
C934 C937 1.499 . S
C935 H909 0.950 . S
C935 C934 1.414 . S
C935 C936 1.374 . S
C936 H910 0.950 . S
C936 C932 1.385 . S
C936 C935 1.374 . S
C937 C934 1.499 . S
C937 C938 1.373 . S
C937 C939 1.389 . S
C938 H911 0.950 . S
C938 C924 1.377 . S
C938 C937 1.373 . S
C939 C923 1.377 . S
C939 C937 1.389 . S
C939 C940 1.524 . S
C940 C939 1.524 . S
C940 C941 1.397 . S
C940 C945 1.363 . S
C941 H912 0.950 . S
C941 C940 1.397 . S
C941 C942 1.334 . S
C942 H913 0.964 . S
C942 C941 1.334 . S
C942 C943 1.287 1_556 S
C943 C942 1.287 1_554 S
C943 C944 1.524 . S
C943 H946 0.999 . S
C944 H914 0.950 . S
C944 C943 1.524 . S
C944 C945 1.415 1_554 S
C945 H915 0.950 . S
C945 C940 1.363 . S
C945 C944 1.415 1_556 S
H946 C943 0.999 . S
H947 C928 0.913 . S
H948 C966 0.951 . S
H949 C968 0.951 . S
H950 C970 0.950 . S
H951 C971 0.950 . S
H952 C973 0.950 . S
H953 C976 0.950 . S
H954 C977 0.950 . S
H955 C979 0.950 . S
H956 C980 0.950 . S
H957 C981 0.951 . S
H958 C983 0.951 . S
H959 C985 0.950 . S
H960 C986 0.950 . S
H961 C988 0.950 . S
H962 C991 0.950 . S
H963 C992 0.950 . S
H964 C994 0.950 . S
H965 C995 0.950 . S
C966 H948 0.951 . S
C966 C967 1.366 . S
C966 C968 1.388 . S
C967 C966 1.366 . S
C967 C971 1.385 . S
C968 H949 0.951 . S
C968 C966 1.388 . S
C968 C969 1.366 . S
C969 C968 1.366 . S
C969 C970 1.414 . S
C969 C972 1.499 . S
C970 H950 0.950 . S
C970 C969 1.414 . S
C970 C971 1.374 . S
C971 H951 0.950 . S
C971 C967 1.385 . S
C971 C970 1.374 . S
C972 C969 1.499 . S
C972 C973 1.373 . S
C972 C974 1.389 . S
C973 H952 0.950 . S
C973 C972 1.373 . S
C973 C989 1.377 . S
C974 C972 1.389 . S
C974 C975 1.524 . S
C974 C988 1.377 . S
C975 C974 1.524 . S
C975 C976 1.397 . S
C975 C980 1.363 . S
C976 H953 0.950 . S
C976 C975 1.397 . S
C976 C977 1.334 . S
C977 H954 0.950 . S
C977 C976 1.334 . S
C977 C978 1.287 . S
C978 C977 1.287 . S
C978 C979 1.524 . S
C978 H997 0.913 . S
C979 H955 0.950 . S
C979 C978 1.524 . S
C979 C980 1.415 . S
C980 H956 0.950 . S
C980 C975 1.363 . S
C980 C979 1.415 . S
C981 H957 0.951 . S
C981 C982 1.366 . S
C981 C983 1.388 . S
C982 C981 1.366 . S
C982 C986 1.385 . S
C983 H958 0.951 . S
C983 C981 1.388 . S
C983 C984 1.366 . S
C984 C983 1.366 . S
C984 C985 1.414 . S
C984 C987 1.499 . S
C985 H959 0.950 . S
C985 C984 1.414 . S
C985 C986 1.374 . S
C986 H960 0.950 . S
C986 C982 1.385 . S
C986 C985 1.374 . S
C987 C984 1.499 . S
C987 C988 1.373 . S
C987 C989 1.389 . S
C988 H961 0.950 . S
C988 C974 1.377 . S
C988 C987 1.373 . S
C989 C973 1.377 . S
C989 C987 1.389 . S
C989 C990 1.524 . S
C990 C989 1.524 . S
C990 C991 1.397 . S
C990 C995 1.363 . S
C991 H962 0.950 . S
C991 C990 1.397 . S
C991 C992 1.334 . S
C992 H963 0.950 . S
C992 C991 1.334 . S
C992 C993 1.287 . S
C993 C992 1.287 . S
C993 C994 1.524 . S
C993 H996 0.999 . S
C994 H964 0.950 . S
C994 C993 1.524 . S
C994 C995 1.415 . S
C995 H965 0.950 . S
C995 C990 1.363 . S
C995 C994 1.415 . S
H996 C993 0.999 . S
H997 C978 0.913 . S
H998 C1016 0.951 . S
H999 C1018 0.951 . S
H1000 C1020 0.950 . S
H1001 C1021 0.950 . S
H1002 C1023 0.950 . S
H1003 C1026 0.950 . S
H1004 C1027 0.950 . S
H1005 C1029 0.950 . S
H1006 C1030 0.950 . S
H1007 C1031 0.951 . S
H1008 C1033 0.951 . S
H1009 C1035 0.950 . S
H1010 C1036 0.950 . S
H1011 C1038 0.950 . S
H1012 C1041 0.950 . S
H1013 C1042 0.950 . S
H1014 C1044 0.950 . S
H1015 C1045 0.950 . S
C1016 H998 0.951 . S
C1016 C1017 1.366 . S
C1016 C1018 1.388 . S
C1017 C1016 1.366 . S
C1017 C1021 1.385 . S
C1018 H999 0.951 . S
C1018 C1016 1.388 . S
C1018 C1019 1.366 . S
C1019 C1018 1.366 . S
C1019 C1020 1.414 . S
C1019 C1022 1.499 . S
C1020 H1000 0.950 . S
C1020 C1019 1.414 . S
C1020 C1021 1.374 . S
C1021 H1001 0.950 . S
C1021 C1017 1.385 . S
C1021 C1020 1.374 . S
C1022 C1019 1.499 . S
C1022 C1023 1.373 . S
C1022 C1024 1.389 . S
C1023 H1002 0.950 . S
C1023 C1022 1.373 . S
C1023 C1039 1.377 . S
C1024 C1022 1.389 . S
C1024 C1025 1.524 . S
C1024 C1038 1.377 . S
C1025 C1024 1.524 . S
C1025 C1026 1.397 . S
C1025 C1030 1.363 . S
C1026 H1003 0.950 . S
C1026 C1025 1.397 . S
C1026 C1027 1.334 . S
C1027 H1004 0.950 . S
C1027 C1026 1.334 . S
C1027 C1028 1.287 . S
C1028 C1027 1.287 . S
C1028 C1029 1.524 . S
C1028 H1047 0.913 . S
C1029 H1005 0.950 . S
C1029 C1028 1.524 . S
C1029 C1030 1.415 . S
C1030 H1006 0.950 . S
C1030 C1025 1.363 . S
C1030 C1029 1.415 . S
C1031 H1007 0.951 . S
C1031 C1032 1.366 . S
C1031 C1033 1.388 . S
C1032 C1031 1.366 . S
C1032 C1036 1.385 . S
C1033 H1008 0.951 . S
C1033 C1031 1.388 . S
C1033 C1034 1.366 . S
C1034 C1033 1.366 . S
C1034 C1035 1.414 . S
C1034 C1037 1.499 . S
C1035 H1009 0.950 . S
C1035 C1034 1.414 . S
C1035 C1036 1.374 . S
C1036 H1010 0.950 . S
C1036 C1032 1.385 . S
C1036 C1035 1.374 . S
C1037 C1034 1.499 . S
C1037 C1038 1.373 . S
C1037 C1039 1.389 . S
C1038 H1011 0.950 . S
C1038 C1024 1.377 . S
C1038 C1037 1.373 . S
C1039 C1023 1.377 . S
C1039 C1037 1.389 . S
C1039 C1040 1.524 . S
C1040 C1039 1.524 . S
C1040 C1041 1.397 . S
C1040 C1045 1.363 . S
C1041 H1012 0.950 . S
C1041 C1040 1.397 . S
C1041 C1042 1.334 . S
C1042 H1013 0.950 . S
C1042 C1041 1.334 . S
C1042 C1043 1.287 . S
C1043 C1042 1.287 . S
C1043 C1044 1.524 . S
C1043 H1046 0.999 . S
C1044 H1014 0.950 . S
C1044 C1043 1.524 . S
C1044 C1045 1.415 . S
C1045 H1015 0.950 . S
C1045 C1040 1.363 . S
C1045 C1044 1.415 . S
H1046 C1043 0.999 . S
H1047 C1028 0.913 . S
H1048 C1066 0.951 . S
H1049 C1068 0.951 . S
H1050 C1070 0.950 . S
H1051 C1071 0.950 . S
H1052 C1073 0.950 . S
H1053 C1076 0.950 . S
H1054 C1077 0.950 . S
H1055 C1079 0.950 . S
H1056 C1080 0.950 . S
H1057 C1081 0.951 . S
H1058 C1083 0.951 . S
H1059 C1085 0.950 . S
H1060 C1086 0.950 . S
H1061 C1088 0.950 . S
H1062 C1091 0.950 . S
H1063 C1092 0.950 . S
H1064 C1094 0.950 . S
H1065 C1095 0.950 . S
C1066 H1048 0.951 . S
C1066 C1067 1.366 . S
C1066 C1068 1.388 . S
C1067 C1066 1.366 . S
C1067 C1071 1.385 . S
C1068 H1049 0.951 . S
C1068 C1066 1.388 . S
C1068 C1069 1.366 . S
C1069 C1068 1.366 . S
C1069 C1070 1.414 . S
C1069 C1072 1.499 . S
C1070 H1050 0.950 . S
C1070 C1069 1.414 . S
C1070 C1071 1.374 . S
C1071 H1051 0.950 . S
C1071 C1067 1.385 . S
C1071 C1070 1.374 . S
C1072 C1069 1.499 . S
C1072 C1073 1.373 . S
C1072 C1074 1.389 . S
C1073 H1052 0.950 . S
C1073 C1072 1.373 . S
C1073 C1089 1.377 . S
C1074 C1072 1.389 . S
C1074 C1075 1.524 . S
C1074 C1088 1.377 . S
C1075 C1074 1.524 . S
C1075 C1076 1.397 . S
C1075 C1080 1.363 . S
C1076 H1053 0.950 . S
C1076 C1075 1.397 . S
C1076 C1077 1.334 . S
C1077 H1054 0.950 . S
C1077 C1076 1.334 . S
C1077 C1078 1.287 . S
C1078 C1077 1.287 . S
C1078 C1079 1.524 . S
C1078 H1097 0.913 . S
C1079 H1055 0.950 . S
C1079 C1078 1.524 . S
C1079 C1080 1.415 . S
C1080 H1056 0.950 . S
C1080 C1075 1.363 . S
C1080 C1079 1.415 . S
C1081 H1057 0.951 . S
C1081 C1082 1.366 . S
C1081 C1083 1.388 . S
C1082 C1081 1.366 . S
C1082 C1086 1.385 . S
C1083 H1058 0.951 . S
C1083 C1081 1.388 . S
C1083 C1084 1.366 . S
C1084 C1083 1.366 . S
C1084 C1085 1.414 . S
C1084 C1087 1.499 . S
C1085 H1059 0.950 . S
C1085 C1084 1.414 . S
C1085 C1086 1.374 . S
C1086 H1060 0.950 . S
C1086 C1082 1.385 . S
C1086 C1085 1.374 . S
C1087 C1084 1.499 . S
C1087 C1088 1.373 . S
C1087 C1089 1.389 . S
C1088 H1061 0.950 . S
C1088 C1074 1.377 . S
C1088 C1087 1.373 . S
C1089 C1073 1.377 . S
C1089 C1087 1.389 . S
C1089 C1090 1.524 . S
C1090 C1089 1.524 . S
C1090 C1091 1.397 . S
C1090 C1095 1.363 . S
C1091 H1062 0.950 . S
C1091 C1090 1.397 . S
C1091 C1092 1.334 . S
C1092 H1063 0.950 . S
C1092 C1091 1.334 . S
C1092 C1093 1.287 . S
C1093 C1092 1.287 . S
C1093 C1094 1.524 . S
C1093 H1096 0.999 . S
C1094 H1064 0.950 . S
C1094 C1093 1.524 . S
C1094 C1095 1.415 . S
C1095 H1065 0.950 . S
C1095 C1090 1.363 . S
C1095 C1094 1.415 . S
H1096 C1093 0.999 . S
H1097 C1078 0.913 . S
H1098 C1116 0.951 . S
H1099 C1118 0.951 . S
H1100 C1120 0.950 . S
H1101 C1121 0.950 . S
H1102 C1123 0.950 . S
H1103 C1126 0.950 . S
H1104 C1127 0.950 . S
H1105 C1129 0.950 . S
H1106 C1130 0.950 . S
H1107 C1131 0.951 . S
H1108 C1133 0.951 . S
H1109 C1135 0.950 . S
H1110 C1136 0.950 . S
H1111 C1138 0.950 . S
H1112 C1141 0.950 . S
H1113 C1142 0.950 . S
H1114 C1144 0.950 . S
H1115 C1145 0.950 . S
C1116 H1098 0.951 . S
C1116 C1117 1.366 . S
C1116 C1118 1.388 . S
C1117 C1116 1.366 . S
C1117 C1121 1.385 . S
C1118 H1099 0.951 . S
C1118 C1116 1.388 . S
C1118 C1119 1.366 . S
C1119 C1118 1.366 . S
C1119 C1120 1.414 . S
C1119 C1122 1.499 . S
C1120 H1100 0.950 . S
C1120 C1119 1.414 . S
C1120 C1121 1.374 . S
C1121 H1101 0.950 . S
C1121 C1117 1.385 . S
C1121 C1120 1.374 . S
C1122 C1119 1.499 . S
C1122 C1123 1.373 . S
C1122 C1124 1.389 . S
C1123 H1102 0.950 . S
C1123 C1122 1.373 . S
C1123 C1139 1.377 . S
C1124 C1122 1.389 . S
C1124 C1125 1.524 . S
C1124 C1138 1.377 . S
C1125 C1124 1.524 . S
C1125 C1126 1.397 . S
C1125 C1130 1.363 . S
C1126 H1103 0.950 . S
C1126 C1125 1.397 . S
C1126 C1127 1.334 . S
C1127 H1104 0.950 . S
C1127 C1126 1.334 . S
C1127 C1128 1.287 . S
C1128 C1127 1.287 . S
C1128 C1129 1.524 . S
C1128 H1147 0.913 . S
C1129 H1105 0.950 . S
C1129 C1128 1.524 . S
C1129 C1130 1.415 . S
C1130 H1106 0.950 . S
C1130 C1125 1.363 . S
C1130 C1129 1.415 . S
C1131 H1107 0.951 . S
C1131 C1132 1.366 . S
C1131 C1133 1.388 . S
C1132 C1131 1.366 . S
C1132 C1136 1.385 . S
C1133 H1108 0.951 . S
C1133 C1131 1.388 . S
C1133 C1134 1.366 . S
C1134 C1133 1.366 . S
C1134 C1135 1.414 . S
C1134 C1137 1.499 . S
C1135 H1109 0.950 . S
C1135 C1134 1.414 . S
C1135 C1136 1.374 . S
C1136 H1110 0.950 . S
C1136 C1132 1.385 . S
C1136 C1135 1.374 . S
C1137 C1134 1.499 . S
C1137 C1138 1.373 . S
C1137 C1139 1.389 . S
C1138 H1111 0.950 . S
C1138 C1124 1.377 . S
C1138 C1137 1.373 . S
C1139 C1123 1.377 . S
C1139 C1137 1.389 . S
C1139 C1140 1.524 . S
C1140 C1139 1.524 . S
C1140 C1141 1.397 . S
C1140 C1145 1.363 . S
C1141 H1112 0.950 . S
C1141 C1140 1.397 . S
C1141 C1142 1.334 . S
C1142 H1113 0.950 . S
C1142 C1141 1.334 . S
C1142 C1143 1.287 . S
C1143 C1142 1.287 . S
C1143 C1144 1.524 . S
C1143 H1146 0.999 . S
C1144 H1114 0.950 . S
C1144 C1143 1.524 . S
C1144 C1145 1.415 . S
C1145 H1115 0.950 . S
C1145 C1140 1.363 . S
C1145 C1144 1.415 . S
H1146 C1143 0.999 . S
H1147 C1128 0.913 . S
H1148 C1166 0.951 . S
H1149 C1168 0.951 . S
H1150 C1170 0.950 . S
H1151 C1171 0.950 . S
H1152 C1173 0.950 . S
H1153 C1176 0.950 . S
H1154 C1177 0.950 . S
H1155 C1179 0.950 . S
H1156 C1180 0.950 . S
H1157 C1181 0.951 . S
H1158 C1183 0.951 . S
H1159 C1185 0.950 . S
H1160 C1186 0.950 . S
H1161 C1188 0.950 . S
H1162 C1191 0.950 . S
H1163 C1192 0.950 . S
H1164 C1194 0.950 . S
H1165 C1195 0.950 . S
C1166 H1148 0.951 . S
C1166 C1167 1.366 . S
C1166 C1168 1.388 . S
C1167 C1166 1.366 . S
C1167 C1171 1.385 . S
C1168 H1149 0.951 . S
C1168 C1166 1.388 . S
C1168 C1169 1.366 . S
C1169 C1168 1.366 . S
C1169 C1170 1.414 . S
C1169 C1172 1.499 . S
C1170 H1150 0.950 . S
C1170 C1169 1.414 . S
C1170 C1171 1.374 . S
C1171 H1151 0.950 . S
C1171 C1167 1.385 . S
C1171 C1170 1.374 . S
C1172 C1169 1.499 . S
C1172 C1173 1.373 . S
C1172 C1174 1.389 . S
C1173 H1152 0.950 . S
C1173 C1172 1.373 . S
C1173 C1189 1.377 . S
C1174 C1172 1.389 . S
C1174 C1175 1.524 . S
C1174 C1188 1.377 . S
C1175 C1174 1.524 . S
C1175 C1176 1.397 . S
C1175 C1180 1.363 . S
C1176 H1153 0.950 . S
C1176 C1175 1.397 . S
C1176 C1177 1.334 . S
C1177 H1154 0.950 . S
C1177 C1176 1.334 . S
C1177 C1178 1.287 . S
C1178 C1177 1.287 . S
C1178 C1179 1.524 . S
C1178 H1197 0.913 . S
C1179 H1155 0.950 . S
C1179 C1178 1.524 . S
C1179 C1180 1.415 . S
C1180 H1156 0.950 . S
C1180 C1175 1.363 . S
C1180 C1179 1.415 . S
C1181 H1157 0.951 . S
C1181 C1182 1.366 . S
C1181 C1183 1.388 . S
C1182 C1181 1.366 . S
C1182 C1186 1.385 . S
C1183 H1158 0.951 . S
C1183 C1181 1.388 . S
C1183 C1184 1.366 . S
C1184 C1183 1.366 . S
C1184 C1185 1.414 . S
C1184 C1187 1.499 . S
C1185 H1159 0.950 . S
C1185 C1184 1.414 . S
C1185 C1186 1.374 . S
C1186 H1160 0.950 . S
C1186 C1182 1.385 . S
C1186 C1185 1.374 . S
C1187 C1184 1.499 . S
C1187 C1188 1.373 . S
C1187 C1189 1.389 . S
C1188 H1161 0.950 . S
C1188 C1174 1.377 . S
C1188 C1187 1.373 . S
C1189 C1173 1.377 . S
C1189 C1187 1.389 . S
C1189 C1190 1.524 . S
C1190 C1189 1.524 . S
C1190 C1191 1.397 . S
C1190 C1195 1.363 . S
C1191 H1162 0.950 . S
C1191 C1190 1.397 . S
C1191 C1192 1.334 . S
C1192 H1163 0.950 . S
C1192 C1191 1.334 . S
C1192 C1193 1.287 . S
C1193 C1192 1.287 . S
C1193 C1194 1.524 . S
C1193 H1196 0.999 . S
C1194 H1164 0.950 . S
C1194 C1193 1.524 . S
C1194 C1195 1.415 . S
C1195 H1165 0.950 . S
C1195 C1190 1.363 . S
C1195 C1194 1.415 . S
H1196 C1193 0.999 . S
H1197 C1178 0.913 . S
H1198 C1216 0.951 . S
H1199 C1218 0.951 . S
H1200 C1220 0.950 . S
H1201 C1221 0.950 . S
H1202 C1223 0.950 . S
H1203 C1226 0.950 . S
H1204 C1227 0.950 . S
H1205 C1229 0.950 . S
H1206 C1230 0.950 . S
H1207 C1231 0.951 . S
H1208 C1233 0.951 . S
H1209 C1235 0.950 . S
H1210 C1236 0.950 . S
H1211 C1238 0.950 . S
H1212 C1241 0.950 . S
H1213 C1242 0.950 . S
H1214 C1244 0.950 . S
H1215 C1245 0.950 . S
C1216 H1198 0.951 . S
C1216 C1217 1.366 . S
C1216 C1218 1.388 . S
C1217 C1216 1.366 . S
C1217 C1221 1.385 . S
C1218 H1199 0.951 . S
C1218 C1216 1.388 . S
C1218 C1219 1.366 . S
C1219 C1218 1.366 . S
C1219 C1220 1.414 . S
C1219 C1222 1.499 . S
C1220 H1200 0.950 . S
C1220 C1219 1.414 . S
C1220 C1221 1.374 . S
C1221 H1201 0.950 . S
C1221 C1217 1.385 . S
C1221 C1220 1.374 . S
C1222 C1219 1.499 . S
C1222 C1223 1.373 . S
C1222 C1224 1.389 . S
C1223 H1202 0.950 . S
C1223 C1222 1.373 . S
C1223 C1239 1.377 . S
C1224 C1222 1.389 . S
C1224 C1225 1.524 . S
C1224 C1238 1.377 . S
C1225 C1224 1.524 . S
C1225 C1226 1.397 . S
C1225 C1230 1.363 . S
C1226 H1203 0.950 . S
C1226 C1225 1.397 . S
C1226 C1227 1.334 . S
C1227 H1204 0.950 . S
C1227 C1226 1.334 . S
C1227 C1228 1.287 . S
C1228 C1227 1.287 . S
C1228 C1229 1.524 . S
C1228 H1247 0.913 . S
C1229 H1205 0.950 . S
C1229 C1228 1.524 . S
C1229 C1230 1.415 . S
C1230 H1206 0.950 . S
C1230 C1225 1.363 . S
C1230 C1229 1.415 . S
C1231 H1207 0.951 . S
C1231 C1232 1.366 . S
C1231 C1233 1.388 . S
C1232 C1231 1.366 . S
C1232 C1236 1.385 . S
C1233 H1208 0.951 . S
C1233 C1231 1.388 . S
C1233 C1234 1.366 . S
C1234 C1233 1.366 . S
C1234 C1235 1.414 . S
C1234 C1237 1.499 . S
C1235 H1209 0.950 . S
C1235 C1234 1.414 . S
C1235 C1236 1.374 . S
C1236 H1210 0.950 . S
C1236 C1232 1.385 . S
C1236 C1235 1.374 . S
C1237 C1234 1.499 . S
C1237 C1238 1.373 . S
C1237 C1239 1.389 . S
C1238 H1211 0.950 . S
C1238 C1224 1.377 . S
C1238 C1237 1.373 . S
C1239 C1223 1.377 . S
C1239 C1237 1.389 . S
C1239 C1240 1.524 . S
C1240 C1239 1.524 . S
C1240 C1241 1.397 . S
C1240 C1245 1.363 . S
C1241 H1212 0.950 . S
C1241 C1240 1.397 . S
C1241 C1242 1.334 . S
C1242 H1213 0.950 . S
C1242 C1241 1.334 . S
C1242 C1243 1.287 . S
C1243 C1242 1.287 . S
C1243 C1244 1.524 . S
C1243 H1246 0.999 . S
C1244 H1214 0.950 . S
C1244 C1243 1.524 . S
C1244 C1245 1.415 . S
C1245 H1215 0.950 . S
C1245 C1240 1.363 . S
C1245 C1244 1.415 . S
H1246 C1243 0.999 . S
H1247 C1228 0.913 . S
H1248 C1266 0.951 . S
H1249 C1268 0.951 . S
H1250 C1270 0.950 . S
H1251 C1271 0.950 . S
H1252 C1273 0.950 . S
H1253 C1276 0.950 . S
H1254 C1277 0.950 . S
H1255 C1279 0.950 . S
H1256 C1280 0.950 . S
H1257 C1281 0.951 . S
H1258 C1283 0.951 . S
H1259 C1285 0.950 . S
H1260 C1286 0.950 . S
H1261 C1288 0.950 . S
H1262 C1291 0.950 . S
H1263 C1292 0.950 . S
H1264 C1294 0.950 . S
H1265 C1295 0.950 . S
C1266 H1248 0.951 . S
C1266 C1267 1.366 . S
C1266 C1268 1.388 . S
C1267 C1266 1.366 . S
C1267 C1271 1.385 . S
C1268 H1249 0.951 . S
C1268 C1266 1.388 . S
C1268 C1269 1.366 . S
C1269 C1268 1.366 . S
C1269 C1270 1.414 . S
C1269 C1272 1.499 . S
C1270 H1250 0.950 . S
C1270 C1269 1.414 . S
C1270 C1271 1.374 . S
C1271 H1251 0.950 . S
C1271 C1267 1.385 . S
C1271 C1270 1.374 . S
C1272 C1269 1.499 . S
C1272 C1273 1.373 . S
C1272 C1274 1.389 . S
C1273 H1252 0.950 . S
C1273 C1272 1.373 . S
C1273 C1289 1.377 . S
C1274 C1272 1.389 . S
C1274 C1275 1.524 . S
C1274 C1288 1.377 . S
C1275 C1274 1.524 . S
C1275 C1276 1.397 . S
C1275 C1280 1.363 . S
C1276 H1253 0.950 . S
C1276 C1275 1.397 . S
C1276 C1277 1.334 . S
C1277 H1254 0.950 . S
C1277 C1276 1.334 . S
C1277 C1278 1.287 . S
C1278 C1277 1.287 . S
C1278 C1279 1.524 . S
C1278 H1297 0.913 . S
C1279 H1255 0.950 . S
C1279 C1278 1.524 . S
C1279 C1280 1.415 . S
C1280 H1256 0.950 . S
C1280 C1275 1.363 . S
C1280 C1279 1.415 . S
C1281 H1257 0.951 . S
C1281 C1282 1.366 . S
C1281 C1283 1.388 . S
C1282 C1281 1.366 . S
C1282 C1286 1.385 . S
C1283 H1258 0.951 . S
C1283 C1281 1.388 . S
C1283 C1284 1.366 . S
C1284 C1283 1.366 . S
C1284 C1285 1.414 . S
C1284 C1287 1.499 . S
C1285 H1259 0.950 . S
C1285 C1284 1.414 . S
C1285 C1286 1.374 . S
C1286 H1260 0.950 . S
C1286 C1282 1.385 . S
C1286 C1285 1.374 . S
C1287 C1284 1.499 . S
C1287 C1288 1.373 . S
C1287 C1289 1.389 . S
C1288 H1261 0.950 . S
C1288 C1274 1.377 . S
C1288 C1287 1.373 . S
C1289 C1273 1.377 . S
C1289 C1287 1.389 . S
C1289 C1290 1.524 . S
C1290 C1289 1.524 . S
C1290 C1291 1.397 . S
C1290 C1295 1.363 . S
C1291 H1262 0.950 . S
C1291 C1290 1.397 . S
C1291 C1292 1.334 . S
C1292 H1263 0.950 . S
C1292 C1291 1.334 . S
C1292 C1293 1.287 . S
C1293 C1292 1.287 . S
C1293 C1294 1.524 . S
C1293 H1296 0.999 . S
C1294 H1264 0.950 . S
C1294 C1293 1.524 . S
C1294 C1295 1.415 . S
C1295 H1265 0.950 . S
C1295 C1290 1.363 . S
C1295 C1294 1.415 . S
H1296 C1293 0.999 . S
H1297 C1278 0.913 . S
H1298 C1316 0.951 . S
H1299 C1318 0.951 . S
H1300 C1320 0.950 . S
H1301 C1321 0.950 . S
H1302 C1323 0.950 . S
H1303 C1326 0.950 . S
H1304 C1327 0.950 . S
H1305 C1329 0.950 . S
H1306 C1330 0.950 . S
H1307 C1331 0.951 . S
H1308 C1333 0.951 . S
H1309 C1335 0.950 . S
H1310 C1336 0.950 . S
H1311 C1338 0.950 . S
H1312 C1341 0.950 . S
H1313 C1342 0.950 . S
H1314 C1344 0.950 . S
H1315 C1345 0.950 . S
C1316 H1298 0.951 . S
C1316 C1317 1.366 . S
C1316 C1318 1.388 . S
C1317 C1316 1.366 . S
C1317 C1321 1.385 . S
C1318 H1299 0.951 . S
C1318 C1316 1.388 . S
C1318 C1319 1.366 . S
C1319 C1318 1.366 . S
C1319 C1320 1.414 . S
C1319 C1322 1.499 . S
C1320 H1300 0.950 . S
C1320 C1319 1.414 . S
C1320 C1321 1.374 . S
C1321 H1301 0.950 . S
C1321 C1317 1.385 . S
C1321 C1320 1.374 . S
C1322 C1319 1.499 . S
C1322 C1323 1.373 . S
C1322 C1324 1.389 . S
C1323 H1302 0.950 . S
C1323 C1322 1.373 . S
C1323 C1339 1.377 . S
C1324 C1322 1.389 . S
C1324 C1325 1.524 . S
C1324 C1338 1.377 . S
C1325 C1324 1.524 . S
C1325 C1326 1.397 . S
C1325 C1330 1.363 . S
C1326 H1303 0.950 . S
C1326 C1325 1.397 . S
C1326 C1327 1.334 . S
C1327 H1304 0.950 . S
C1327 C1326 1.334 . S
C1327 C1328 1.287 . S
C1328 C1327 1.287 . S
C1328 C1329 1.524 . S
C1328 H1347 0.913 . S
C1329 H1305 0.950 . S
C1329 C1328 1.524 . S
C1329 C1330 1.415 . S
C1330 H1306 0.950 . S
C1330 C1325 1.363 . S
C1330 C1329 1.415 . S
C1331 H1307 0.951 . S
C1331 C1332 1.366 . S
C1331 C1333 1.388 . S
C1332 C1331 1.366 . S
C1332 C1336 1.385 . S
C1333 H1308 0.951 . S
C1333 C1331 1.388 . S
C1333 C1334 1.366 . S
C1334 C1333 1.366 . S
C1334 C1335 1.414 . S
C1334 C1337 1.499 . S
C1335 H1309 0.950 . S
C1335 C1334 1.414 . S
C1335 C1336 1.374 . S
C1336 H1310 0.950 . S
C1336 C1332 1.385 . S
C1336 C1335 1.374 . S
C1337 C1334 1.499 . S
C1337 C1338 1.373 . S
C1337 C1339 1.389 . S
C1338 H1311 0.950 . S
C1338 C1324 1.377 . S
C1338 C1337 1.373 . S
C1339 C1323 1.377 . S
C1339 C1337 1.389 . S
C1339 C1340 1.524 . S
C1340 C1339 1.524 . S
C1340 C1341 1.397 . S
C1340 C1345 1.363 . S
C1341 H1312 0.950 . S
C1341 C1340 1.397 . S
C1341 C1342 1.334 . S
C1342 H1313 0.950 . S
C1342 C1341 1.334 . S
C1342 C1343 1.287 . S
C1343 C1342 1.287 . S
C1343 C1344 1.524 . S
C1343 H1346 0.999 . S
C1344 H1314 0.950 . S
C1344 C1343 1.524 . S
C1344 C1345 1.415 . S
C1345 H1315 0.950 . S
C1345 C1340 1.363 . S
C1345 C1344 1.415 . S
H1346 C1343 0.999 . S
H1347 C1328 0.913 . S
H1348 C1366 0.951 . S
H1349 C1368 0.951 . S
H1350 C1370 0.950 . S
H1351 C1371 0.950 . S
H1352 C1373 0.950 . S
H1353 C1376 0.950 . S
H1354 C1377 0.950 . S
H1355 C1379 0.950 . S
H1356 C1380 0.950 . S
H1357 C1381 0.951 . S
H1358 C1383 0.951 . S
H1359 C1385 0.950 . S
H1360 C1386 0.950 . S
H1361 C1388 0.950 . S
H1362 C1391 0.950 . S
H1363 C1392 0.950 . S
H1364 C1394 0.950 . S
H1365 C1395 0.950 . S
C1366 H1348 0.951 . S
C1366 C1367 1.366 . S
C1366 C1368 1.388 . S
C1367 C1366 1.366 . S
C1367 C1371 1.385 . S
C1368 H1349 0.951 . S
C1368 C1366 1.388 . S
C1368 C1369 1.366 . S
C1369 C1368 1.366 . S
C1369 C1370 1.414 . S
C1369 C1372 1.499 . S
C1370 H1350 0.950 . S
C1370 C1369 1.414 . S
C1370 C1371 1.374 . S
C1371 H1351 0.950 . S
C1371 C1367 1.385 . S
C1371 C1370 1.374 . S
C1372 C1369 1.499 . S
C1372 C1373 1.373 . S
C1372 C1374 1.389 . S
C1373 H1352 0.950 . S
C1373 C1372 1.373 . S
C1373 C1389 1.377 . S
C1374 C1372 1.389 . S
C1374 C1375 1.524 . S
C1374 C1388 1.377 . S
C1375 C1374 1.524 . S
C1375 C1376 1.397 . S
C1375 C1380 1.363 . S
C1376 H1353 0.950 . S
C1376 C1375 1.397 . S
C1376 C1377 1.334 . S
C1377 H1354 0.950 . S
C1377 C1376 1.334 . S
C1377 C1378 1.287 . S
C1378 C1377 1.287 . S
C1378 C1379 1.524 . S
C1378 H1397 0.913 . S
C1379 H1355 0.950 . S
C1379 C1378 1.524 . S
C1379 C1380 1.415 . S
C1380 H1356 0.950 . S
C1380 C1375 1.363 . S
C1380 C1379 1.415 . S
C1381 H1357 0.951 . S
C1381 C1382 1.366 . S
C1381 C1383 1.388 . S
C1382 C1381 1.366 . S
C1382 C1386 1.385 . S
C1383 H1358 0.951 . S
C1383 C1381 1.388 . S
C1383 C1384 1.366 . S
C1384 C1383 1.366 . S
C1384 C1385 1.414 . S
C1384 C1387 1.499 . S
C1385 H1359 0.950 . S
C1385 C1384 1.414 . S
C1385 C1386 1.374 . S
C1386 H1360 0.950 . S
C1386 C1382 1.385 . S
C1386 C1385 1.374 . S
C1387 C1384 1.499 . S
C1387 C1388 1.373 . S
C1387 C1389 1.389 . S
C1388 H1361 0.950 . S
C1388 C1374 1.377 . S
C1388 C1387 1.373 . S
C1389 C1373 1.377 . S
C1389 C1387 1.389 . S
C1389 C1390 1.524 . S
C1390 C1389 1.524 . S
C1390 C1391 1.397 . S
C1390 C1395 1.363 . S
C1391 H1362 0.950 . S
C1391 C1390 1.397 . S
C1391 C1392 1.334 . S
C1392 H1363 0.950 . S
C1392 C1391 1.334 . S
C1392 C1393 1.287 . S
C1393 C1392 1.287 . S
C1393 C1394 1.524 . S
C1393 H1396 0.999 . S
C1394 H1364 0.950 . S
C1394 C1393 1.524 . S
C1394 C1395 1.415 . S
C1395 H1365 0.950 . S
C1395 C1390 1.363 . S
C1395 C1394 1.415 . S
H1396 C1393 0.999 . S
H1397 C1378 0.913 . S
H1398 C1416 0.951 . S
H1399 C1418 0.951 . S
H1400 C1420 0.950 . S
H1401 C1421 0.950 . S
H1402 C1423 0.950 . S
H1403 C1426 0.950 . S
H1404 C1427 0.950 . S
H1405 C1429 0.950 . S
H1406 C1430 0.950 . S
H1407 C1431 0.951 . S
H1408 C1433 0.951 . S
H1409 C1435 0.950 . S
H1410 C1436 0.950 . S
H1411 C1438 0.950 . S
H1412 C1441 0.950 . S
H1413 C1442 0.950 . S
H1414 C1444 0.950 . S
H1415 C1445 0.950 . S
C1416 H1398 0.951 . S
C1416 C1417 1.366 . S
C1416 C1418 1.388 . S
C1417 C1416 1.366 . S
C1417 C1421 1.385 . S
C1418 H1399 0.951 . S
C1418 C1416 1.388 . S
C1418 C1419 1.366 . S
C1419 C1418 1.366 . S
C1419 C1420 1.414 . S
C1419 C1422 1.499 . S
C1420 H1400 0.950 . S
C1420 C1419 1.414 . S
C1420 C1421 1.374 . S
C1421 H1401 0.950 . S
C1421 C1417 1.385 . S
C1421 C1420 1.374 . S
C1422 C1419 1.499 . S
C1422 C1423 1.373 . S
C1422 C1424 1.389 . S
C1423 H1402 0.950 . S
C1423 C1422 1.373 . S
C1423 C1439 1.377 . S
C1424 C1422 1.389 . S
C1424 C1425 1.524 . S
C1424 C1438 1.377 . S
C1425 C1424 1.524 . S
C1425 C1426 1.397 . S
C1425 C1430 1.363 . S
C1426 H1403 0.950 . S
C1426 C1425 1.397 . S
C1426 C1427 1.334 . S
C1427 H1404 0.950 . S
C1427 C1426 1.334 . S
C1427 C1428 1.287 . S
C1428 C1427 1.287 . S
C1428 C1429 1.524 . S
C1428 H1447 0.913 . S
C1429 H1405 0.950 . S
C1429 C1428 1.524 . S
C1429 C1430 1.415 . S
C1430 H1406 0.950 . S
C1430 C1425 1.363 . S
C1430 C1429 1.415 . S
C1431 H1407 0.951 . S
C1431 C1432 1.366 . S
C1431 C1433 1.388 . S
C1432 C1431 1.366 . S
C1432 C1436 1.385 . S
C1433 H1408 0.951 . S
C1433 C1431 1.388 . S
C1433 C1434 1.366 . S
C1434 C1433 1.366 . S
C1434 C1435 1.414 . S
C1434 C1437 1.499 . S
C1435 H1409 0.950 . S
C1435 C1434 1.414 . S
C1435 C1436 1.374 . S
C1436 H1410 0.950 . S
C1436 C1432 1.385 . S
C1436 C1435 1.374 . S
C1437 C1434 1.499 . S
C1437 C1438 1.373 . S
C1437 C1439 1.389 . S
C1438 H1411 0.950 . S
C1438 C1424 1.377 . S
C1438 C1437 1.373 . S
C1439 C1423 1.377 . S
C1439 C1437 1.389 . S
C1439 C1440 1.524 . S
C1440 C1439 1.524 . S
C1440 C1441 1.397 . S
C1440 C1445 1.363 . S
C1441 H1412 0.950 . S
C1441 C1440 1.397 . S
C1441 C1442 1.334 . S
C1442 H1413 0.950 . S
C1442 C1441 1.334 . S
C1442 C1443 1.287 . S
C1443 C1442 1.287 . S
C1443 C1444 1.524 . S
C1443 H1446 0.999 . S
C1444 H1414 0.950 . S
C1444 C1443 1.524 . S
C1444 C1445 1.415 . S
C1445 H1415 0.950 . S
C1445 C1440 1.363 . S
C1445 C1444 1.415 . S
H1446 C1443 0.999 . S
H1447 C1428 0.913 . S
H1448 C1466 0.951 . S
H1449 C1468 0.951 . S
H1450 C1470 0.950 . S
H1451 C1471 0.950 . S
H1452 C1473 0.950 . S
H1453 C1476 0.950 . S
H1454 C1477 0.950 . S
H1455 C1479 0.950 . S
H1456 C1480 0.950 . S
H1457 C1481 0.951 . S
H1458 C1483 0.951 . S
H1459 C1485 0.950 . S
H1460 C1486 0.950 . S
H1461 C1488 0.950 . S
H1462 C1491 0.950 . S
H1463 C1492 0.950 . S
H1464 C1494 0.950 . S
H1465 C1495 0.950 . S
C1466 H1448 0.951 . S
C1466 C1467 1.366 . S
C1466 C1468 1.388 . S
C1467 C1466 1.366 . S
C1467 C1471 1.385 . S
C1468 H1449 0.951 . S
C1468 C1466 1.388 . S
C1468 C1469 1.366 . S
C1469 C1468 1.366 . S
C1469 C1470 1.414 . S
C1469 C1472 1.499 . S
C1470 H1450 0.950 . S
C1470 C1469 1.414 . S
C1470 C1471 1.374 . S
C1471 H1451 0.950 . S
C1471 C1467 1.385 . S
C1471 C1470 1.374 . S
C1472 C1469 1.499 . S
C1472 C1473 1.373 . S
C1472 C1474 1.389 . S
C1473 H1452 0.950 . S
C1473 C1472 1.373 . S
C1473 C1489 1.377 . S
C1474 C1472 1.389 . S
C1474 C1475 1.524 . S
C1474 C1488 1.377 . S
C1475 C1474 1.524 . S
C1475 C1476 1.397 . S
C1475 C1480 1.363 . S
C1476 H1453 0.950 . S
C1476 C1475 1.397 . S
C1476 C1477 1.334 . S
C1477 H1454 0.950 . S
C1477 C1476 1.334 . S
C1477 C1478 1.287 . S
C1478 C1477 1.287 . S
C1478 C1479 1.524 . S
C1478 H1497 0.913 . S
C1479 H1455 0.950 . S
C1479 C1478 1.524 . S
C1479 C1480 1.415 . S
C1480 H1456 0.950 . S
C1480 C1475 1.363 . S
C1480 C1479 1.415 . S
C1481 H1457 0.951 . S
C1481 C1482 1.366 . S
C1481 C1483 1.388 . S
C1482 C1481 1.366 . S
C1482 C1486 1.385 . S
C1483 H1458 0.951 . S
C1483 C1481 1.388 . S
C1483 C1484 1.366 . S
C1484 C1483 1.366 . S
C1484 C1485 1.414 . S
C1484 C1487 1.499 . S
C1485 H1459 0.950 . S
C1485 C1484 1.414 . S
C1485 C1486 1.374 . S
C1486 H1460 0.950 . S
C1486 C1482 1.385 . S
C1486 C1485 1.374 . S
C1487 C1484 1.499 . S
C1487 C1488 1.373 . S
C1487 C1489 1.389 . S
C1488 H1461 0.950 . S
C1488 C1474 1.377 . S
C1488 C1487 1.373 . S
C1489 C1473 1.377 . S
C1489 C1487 1.389 . S
C1489 C1490 1.524 . S
C1490 C1489 1.524 . S
C1490 C1491 1.397 . S
C1490 C1495 1.363 . S
C1491 H1462 0.950 . S
C1491 C1490 1.397 . S
C1491 C1492 1.334 . S
C1492 H1463 0.950 . S
C1492 C1491 1.334 . S
C1492 C1493 1.287 . S
C1493 C1492 1.287 . S
C1493 C1494 1.524 . S
C1493 H1496 0.999 . S
C1494 H1464 0.950 . S
C1494 C1493 1.524 . S
C1494 C1495 1.415 . S
C1495 H1465 0.950 . S
C1495 C1490 1.363 . S
C1495 C1494 1.415 . S
H1496 C1493 0.999 . S
H1497 C1478 0.913 . S
H1498 C1516 0.951 . S
H1499 C1518 0.951 . S
H1500 C1520 0.950 . S
H1501 C1521 0.950 . S
H1502 C1523 0.950 . S
H1503 C1526 0.950 . S
H1504 C1527 0.950 . S
H1505 C1529 0.950 . S
H1506 C1530 0.950 . S
H1507 C1531 0.951 . S
H1508 C1533 0.951 . S
H1509 C1535 0.950 . S
H1510 C1536 0.950 . S
H1511 C1538 0.950 . S
H1512 C1541 0.950 . S
H1513 C1542 0.950 . S
H1514 C1544 0.950 . S
H1515 C1545 0.950 . S
C1516 H1498 0.951 . S
C1516 C1517 1.366 . S
C1516 C1518 1.388 . S
C1517 C1516 1.366 . S
C1517 C1521 1.385 . S
C1518 H1499 0.951 . S
C1518 C1516 1.388 . S
C1518 C1519 1.366 . S
C1519 C1518 1.366 . S
C1519 C1520 1.414 . S
C1519 C1522 1.499 . S
C1520 H1500 0.950 . S
C1520 C1519 1.414 . S
C1520 C1521 1.374 . S
C1521 H1501 0.950 . S
C1521 C1517 1.385 . S
C1521 C1520 1.374 . S
C1522 C1519 1.499 . S
C1522 C1523 1.373 . S
C1522 C1524 1.389 . S
C1523 H1502 0.950 . S
C1523 C1522 1.373 . S
C1523 C1539 1.377 . S
C1524 C1522 1.389 . S
C1524 C1525 1.524 . S
C1524 C1538 1.377 . S
C1525 C1524 1.524 . S
C1525 C1526 1.397 . S
C1525 C1530 1.363 . S
C1526 H1503 0.950 . S
C1526 C1525 1.397 . S
C1526 C1527 1.334 . S
C1527 H1504 0.950 . S
C1527 C1526 1.334 . S
C1527 C1528 1.287 . S
C1528 C1527 1.287 . S
C1528 C1529 1.524 . S
C1528 H1547 0.913 . S
C1529 H1505 0.950 . S
C1529 C1528 1.524 . S
C1529 C1530 1.415 . S
C1530 H1506 0.950 . S
C1530 C1525 1.363 . S
C1530 C1529 1.415 . S
C1531 H1507 0.951 . S
C1531 C1532 1.366 . S
C1531 C1533 1.388 . S
C1532 C1531 1.366 . S
C1532 C1536 1.385 . S
C1533 H1508 0.951 . S
C1533 C1531 1.388 . S
C1533 C1534 1.366 . S
C1534 C1533 1.366 . S
C1534 C1535 1.414 . S
C1534 C1537 1.499 . S
C1535 H1509 0.950 . S
C1535 C1534 1.414 . S
C1535 C1536 1.374 . S
C1536 H1510 0.950 . S
C1536 C1532 1.385 . S
C1536 C1535 1.374 . S
C1537 C1534 1.499 . S
C1537 C1538 1.373 . S
C1537 C1539 1.389 . S
C1538 H1511 0.950 . S
C1538 C1524 1.377 . S
C1538 C1537 1.373 . S
C1539 C1523 1.377 . S
C1539 C1537 1.389 . S
C1539 C1540 1.524 . S
C1540 C1539 1.524 . S
C1540 C1541 1.397 . S
C1540 C1545 1.363 . S
C1541 H1512 0.950 . S
C1541 C1540 1.397 . S
C1541 C1542 1.334 . S
C1542 H1513 0.950 . S
C1542 C1541 1.334 . S
C1542 C1543 1.287 . S
C1543 C1542 1.287 . S
C1543 C1544 1.524 . S
C1543 H1546 0.999 . S
C1544 H1514 0.950 . S
C1544 C1543 1.524 . S
C1544 C1545 1.415 . S
C1545 H1515 0.950 . S
C1545 C1540 1.363 . S
C1545 C1544 1.415 . S
H1546 C1543 0.999 . S
H1547 C1528 0.913 . S
H1548 C1566 0.951 . S
H1549 C1568 0.951 . S
H1550 C1570 0.950 . S
H1551 C1571 0.950 . S
H1552 C1573 0.950 . S
H1553 C1576 0.950 . S
H1554 C1577 0.950 . S
H1555 C1579 0.950 . S
H1556 C1580 0.950 . S
H1557 C1581 0.951 . S
H1558 C1583 0.951 . S
H1559 C1585 0.950 . S
H1560 C1586 0.950 . S
H1561 C1588 0.950 . S
H1562 C1591 0.950 . S
H1563 C1592 0.950 . S
H1564 C1594 0.950 . S
H1565 C1595 0.950 . S
C1566 H1548 0.951 . S
C1566 C1567 1.366 . S
C1566 C1568 1.388 . S
C1567 C1566 1.366 . S
C1567 C1571 1.385 . S
C1568 H1549 0.951 . S
C1568 C1566 1.388 . S
C1568 C1569 1.366 . S
C1569 C1568 1.366 . S
C1569 C1570 1.414 . S
C1569 C1572 1.499 . S
C1570 H1550 0.950 . S
C1570 C1569 1.414 . S
C1570 C1571 1.374 . S
C1571 H1551 0.950 . S
C1571 C1567 1.385 . S
C1571 C1570 1.374 . S
C1572 C1569 1.499 . S
C1572 C1573 1.373 . S
C1572 C1574 1.389 . S
C1573 H1552 0.950 . S
C1573 C1572 1.373 . S
C1573 C1589 1.377 . S
C1574 C1572 1.389 . S
C1574 C1575 1.524 . S
C1574 C1588 1.377 . S
C1575 C1574 1.524 . S
C1575 C1576 1.397 . S
C1575 C1580 1.363 . S
C1576 H1553 0.950 . S
C1576 C1575 1.397 . S
C1576 C1577 1.334 . S
C1577 H1554 0.950 . S
C1577 C1576 1.334 . S
C1577 C1578 1.287 . S
C1578 C1577 1.287 . S
C1578 C1579 1.524 . S
C1578 H1597 0.913 . S
C1579 H1555 0.950 . S
C1579 C1578 1.524 . S
C1579 C1580 1.415 . S
C1580 H1556 0.950 . S
C1580 C1575 1.363 . S
C1580 C1579 1.415 . S
C1581 H1557 0.951 . S
C1581 C1582 1.366 . S
C1581 C1583 1.388 . S
C1582 C1581 1.366 . S
C1582 C1586 1.385 . S
C1583 H1558 0.951 . S
C1583 C1581 1.388 . S
C1583 C1584 1.366 . S
C1584 C1583 1.366 . S
C1584 C1585 1.414 . S
C1584 C1587 1.499 . S
C1585 H1559 0.950 . S
C1585 C1584 1.414 . S
C1585 C1586 1.374 . S
C1586 H1560 0.950 . S
C1586 C1582 1.385 . S
C1586 C1585 1.374 . S
C1587 C1584 1.499 . S
C1587 C1588 1.373 . S
C1587 C1589 1.389 . S
C1588 H1561 0.950 . S
C1588 C1574 1.377 . S
C1588 C1587 1.373 . S
C1589 C1573 1.377 . S
C1589 C1587 1.389 . S
C1589 C1590 1.524 . S
C1590 C1589 1.524 . S
C1590 C1591 1.397 . S
C1590 C1595 1.363 . S
C1591 H1562 0.950 . S
C1591 C1590 1.397 . S
C1591 C1592 1.334 . S
C1592 H1563 0.950 . S
C1592 C1591 1.334 . S
C1592 C1593 1.287 . S
C1593 C1592 1.287 . S
C1593 C1594 1.524 . S
C1593 H1596 0.999 . S
C1594 H1564 0.950 . S
C1594 C1593 1.524 . S
C1594 C1595 1.415 . S
C1595 H1565 0.950 . S
C1595 C1590 1.363 . S
C1595 C1594 1.415 . S
H1596 C1593 0.999 . S
H1597 C1578 0.913 . S
H1598 C1616 0.951 . S
H1599 C1618 0.951 . S
H1600 C1620 0.950 . S
H1601 C1621 0.950 . S
H1602 C1623 0.950 . S
H1603 C1626 0.950 . S
H1604 C1627 0.950 . S
H1605 C1629 0.950 . S
H1606 C1630 0.950 . S
H1607 C1631 0.951 . S
H1608 C1633 0.951 . S
H1609 C1635 0.950 . S
H1610 C1636 0.950 . S
H1611 C1638 0.950 . S
H1612 C1641 0.950 . S
H1613 C1642 0.950 . S
H1614 C1644 0.950 . S
H1615 C1645 0.950 . S
C1616 H1598 0.951 . S
C1616 C1617 1.366 . S
C1616 C1618 1.388 . S
C1617 C1616 1.366 . S
C1617 C1621 1.385 . S
C1618 H1599 0.951 . S
C1618 C1616 1.388 . S
C1618 C1619 1.366 . S
C1619 C1618 1.366 . S
C1619 C1620 1.414 . S
C1619 C1622 1.499 . S
C1620 H1600 0.950 . S
C1620 C1619 1.414 . S
C1620 C1621 1.374 . S
C1621 H1601 0.950 . S
C1621 C1617 1.385 . S
C1621 C1620 1.374 . S
C1622 C1619 1.499 . S
C1622 C1623 1.373 . S
C1622 C1624 1.389 . S
C1623 H1602 0.950 . S
C1623 C1622 1.373 . S
C1623 C1639 1.377 . S
C1624 C1622 1.389 . S
C1624 C1625 1.524 . S
C1624 C1638 1.377 . S
C1625 C1624 1.524 . S
C1625 C1626 1.397 . S
C1625 C1630 1.363 . S
C1626 H1603 0.950 . S
C1626 C1625 1.397 . S
C1626 C1627 1.334 . S
C1627 H1604 0.950 . S
C1627 C1626 1.334 . S
C1627 C1628 1.287 . S
C1628 C1627 1.287 . S
C1628 C1629 1.524 . S
C1628 H1647 0.913 . S
C1629 H1605 0.950 . S
C1629 C1628 1.524 . S
C1629 C1630 1.415 . S
C1630 H1606 0.950 . S
C1630 C1625 1.363 . S
C1630 C1629 1.415 . S
C1631 H1607 0.951 . S
C1631 C1632 1.366 . S
C1631 C1633 1.388 . S
C1632 C1631 1.366 . S
C1632 C1636 1.385 . S
C1633 H1608 0.951 . S
C1633 C1631 1.388 . S
C1633 C1634 1.366 . S
C1634 C1633 1.366 . S
C1634 C1635 1.414 . S
C1634 C1637 1.499 . S
C1635 H1609 0.950 . S
C1635 C1634 1.414 . S
C1635 C1636 1.374 . S
C1636 H1610 0.950 . S
C1636 C1632 1.385 . S
C1636 C1635 1.374 . S
C1637 C1634 1.499 . S
C1637 C1638 1.373 . S
C1637 C1639 1.389 . S
C1638 H1611 0.950 . S
C1638 C1624 1.377 . S
C1638 C1637 1.373 . S
C1639 C1623 1.377 . S
C1639 C1637 1.389 . S
C1639 C1640 1.524 . S
C1640 C1639 1.524 . S
C1640 C1641 1.397 . S
C1640 C1645 1.363 . S
C1641 H1612 0.950 . S
C1641 C1640 1.397 . S
C1641 C1642 1.334 . S
C1642 H1613 0.950 . S
C1642 C1641 1.334 . S
C1642 C1643 1.287 . S
C1643 C1642 1.287 . S
C1643 C1644 1.524 . S
C1643 H1646 0.999 . S
C1644 H1614 0.950 . S
C1644 C1643 1.524 . S
C1644 C1645 1.415 . S
C1645 H1615 0.950 . S
C1645 C1640 1.363 . S
C1645 C1644 1.415 . S
H1646 C1643 0.999 . S
H1647 C1628 0.913 . S
C467 C1 1.206 . S
C482 C294 1.221 . S
C517 C67 0.914 . S
C532 C343 0.914 . S
C582 C378 2.440 . S
C567 C97 2.483 . S
C617 C133 2.364 . S
C632 C417 2.299 . S
C682 C338 2.464 . S
C667 C25 2.422 . S
C732 C297 0.869 . S
C717 C37 0.891 . S
C782 C427 1.861 . S
C767 C103 1.913 . S
C832 C386 1.529 . S
C817 C109 1.564 . S
C867 C31 1.701 . S
C882 C414 1.733 . S
C932 C346 2.305 . S
C917 C73 2.388 . S
C967 C139 2.366 . S
C982 C307 2.347 . S
C1017 C61 0.711 . S
C1032 C383 0.709 . S
C1082 C303 1.223 . S
C1067 C175 1.172 . S
C1117 C181 0.892 . S
C1132 C334 0.895 . S
C1167 C247 2.510 . S
C1182 C387 2.464 . S
C1217 C277 2.350 . S
C1232 C426 2.285 . S
C1267 C145 2.343 . S
C1282 C347 2.453 . S
C1332 C306 0.873 . S
C1317 C211 0.892 . S
C1382 C418 1.848 . S
C1367 C217 1.892 . S
C1432 C377 1.549 . S
C1417 C283 1.583 . S
C1467 C169 1.642 . S
C1482 C423 1.728 . S
C1532 C337 2.312 . S
C1517 C241 2.393 . S
C1582 C298 2.332 . S
C1567 C253 2.351 . S
C1617 C205 0.719 . S
C1632 C374 0.718 . S
