# Generated by pormake.
# Topology pts, (4,4)-cn, num edge types: 1
# Building blocks:
#     Node 0, Type 0, BuildingBlock: MIFKUJ_clean_linker_1, # of connection points: 4
#     Node 1, Type 0, BuildingBlock: MIFKUJ_clean_linker_1, # of connection points: 4
#     Node 2, Type 1, BuildingBlock: AZAVOO_clean_sbu_0, # of connection points: 4
#     Node 3, Type 1, BuildingBlock: AZAVOO_clean_sbu_0, # of connection points: 4
#     Edge 4, Type (0, 1), BuildingBlock: ZUJKAS_clean_linker_0, # of connection points: 2
#     Edge 5, Type (0, 1), BuildingBlock: ZUJKAS_clean_linker_0, # of connection points: 2
#     Edge 6, Type (0, 1), BuildingBlock: ZUJKAS_clean_linker_0, # of connection points: 2
#     Edge 7, Type (0, 1), BuildingBlock: ZUJKAS_clean_linker_0, # of connection points: 2
#     Edge 8, Type (0, 1), BuildingBlock: ZUJKAS_clean_linker_0, # of connection points: 2
#     Edge 9, Type (0, 1), BuildingBlock: ZUJKAS_clean_linker_0, # of connection points: 2
#     Edge 10, Type (0, 1), BuildingBlock: ZUJKAS_clean_linker_0, # of connection points: 2
#     Edge 11, Type (0, 1), BuildingBlock: ZUJKAS_clean_linker_0, # of connection points: 2
# Relax obj value: 0.003
# Max RMSD: 0.044
# Mean RMSD: 0.033
data_MOF--net-pts--node1-AZAVOO_clean_sbu_0--node2-MIFKUJ_clean_linker_1--edge1-ZUJKAS_clean_linker_0
_symmetry_space_group_name_H-M    P1
_symmetry_Int_Tables_number       1
_symmetry_cell_setting            triclinic
loop_
_symmetry_equiv_pos_as_xyz
'x, y, z'
_cell_length_a     36.944134
_cell_length_b     37.902326
_cell_length_c     51.968791
_cell_angle_alpha  90.023029
_cell_angle_beta   95.817408
_cell_angle_gamma 89.990467
loop_
_atom_site_label
_atom_site_type_symbol
_atom_site_fract_x
_atom_site_fract_y
_atom_site_fract_z
_atom_type_partial_charge
H0 H 0.60204 0.96066 0.04632 0.0
H1 H 0.66162 0.95791 0.07161 0.0
H2 H 0.68595 0.06288 0.04592 0.0
H3 H 0.62613 0.06558 0.02086 0.0
H4 H 0.54531 0.00969 0.05042 0.0
H5 H 0.62621 0.97283 0.98676 0.0
H6 H 0.67886 0.97908 0.96211 0.0
H7 H 0.63798 0.08005 0.93349 0.0
H8 H 0.58537 0.07347 0.95802 0.0
H9 H 0.47652 0.06405 0.95176 0.0
H10 H 0.41809 0.06136 0.9251 0.0
H11 H 0.39119 0.96587 0.96431 0.0
H12 H 0.44987 0.9683 0.99063 0.0
H13 H 0.53232 0.02301 0.95498 0.0
H14 H 0.45339 0.06377 0.01428 0.0
H15 H 0.40145 0.06599 0.03981 0.0
H16 H 0.43801 0.96968 0.0786 0.0
H17 H 0.48986 0.96743 0.05284 0.0
C18 C 0.60977 0.01323 0.03165 0.0
C19 C 0.62023 0.98306 0.04617 0.0
C20 C 0.65437 0.98142 0.06041 0.0
C21 C 0.67851 0.01013 0.06065 0.0
C22 C 0.66785 0.04043 0.04621 0.0
C23 C 0.6338 0.04194 0.03181 0.0
C24 C 0.57365 0.01459 0.0164 0.0
C25 C 0.54234 0.01209 0.02951 0.0
C26 C 0.56996 0.01934 0.98928 0.0
C27 C 0.60198 0.02281 0.97437 0.0
C28 C 0.62876 -0.00359 0.97532 0.0
C29 C 0.65889 7e-05 0.96126 0.0
C30 C 0.66267 0.0301 0.94584 0.0
C31 C 0.63569 0.05639 0.9449 0.0
C32 C 0.60563 0.05272 0.95896 0.0
C33 C 0.46756 0.01655 0.97338 0.0
C34 C 0.45808 0.0425 0.95461 0.0
C35 C 0.4247 0.04094 0.93939 0.0
C36 C 0.40006 0.01343 0.94266 0.0
C37 C 0.4094 0.98766 0.96161 0.0
C38 C 0.44294 0.98905 0.97667 0.0
C39 C 0.50365 0.01759 0.9889 0.0
C40 C 0.53503 0.02057 0.97589 0.0
C41 C 0.50735 0.01431 0.0162 0.0
C42 C 0.47538 0.01522 0.03142 0.0
C43 C 0.44998 0.04285 0.02802 0.0
C44 C 0.42026 0.04409 0.04262 0.0
C45 C 0.41557 0.01798 0.06119 0.0
C46 C 0.44107 0.99038 0.06462 0.0
C47 C 0.47068 0.98904 0.04989 0.0
H48 H 0.10044 0.46048 0.46588 0.0
H49 H 0.10733 0.40945 0.43801 0.0
H50 H 0.00267 0.37038 0.45537 0.0
H51 H 0.99577 0.4216 0.48306 0.0
H52 H 0.05128 0.51036 0.45898 0.0
H53 H 0.0861 0.42836 0.52923 0.0
H54 H 0.08391 0.37749 0.55792 0.0
H55 H 0.97149 0.40114 0.5674 0.0
H56 H 0.97438 0.45254 0.53937 0.0
H57 H 0.97468 0.56119 0.54439 0.0
H58 H 0.9715 0.61256 0.57254 0.0
H59 H 0.07729 0.64624 0.55344 0.0
H60 H 0.08028 0.59488 0.5253 0.0
H61 H 0.0211 0.50871 0.54973 0.0
H62 H 0.98702 0.59288 0.48385 0.0
H63 H 0.98775 0.64548 0.45671 0.0
H64 H 0.0953 0.61776 0.4376 0.0
H65 H 0.09439 0.56518 0.46472 0.0
C66 C 0.04772 0.44477 0.47674 0.0
C67 C 0.07909 0.44078 0.46384 0.0
C68 C 0.08293 0.41171 0.44784 0.0
C69 C 0.05548 0.386 0.44442 0.0
C70 C 0.02448 0.38955 0.45786 0.0
C71 C 0.02056 0.41877 0.47376 0.0
C72 C 0.04229 0.47751 0.49152 0.0
C73 C 0.0453 0.51002 0.47899 0.0
C74 C 0.03279 0.47709 0.5172 0.0
C75 C 0.03037 0.44409 0.53214 0.0
C76 C 0.06087 0.42223 0.53723 0.0
C77 C 0.05952 0.39313 0.55362 0.0
C78 C 0.02757 0.3853 0.56515 0.0
C79 C 0.99675 0.40676 0.55932 0.0
C80 C 0.99824 0.43598 0.54312 0.0
C81 C 0.02759 0.57431 0.5326 0.0
C82 C 0.99707 0.57979 0.54614 0.0
C83 C 0.99537 0.60904 0.5623 0.0
C84 C 0.02422 0.63335 0.56531 0.0
C85 C 0.05443 0.62822 0.5513 0.0
C86 C 0.05615 0.5989 0.53517 0.0
C87 C 0.03075 0.54159 0.51735 0.0
C88 C 0.02712 0.50909 0.52973 0.0
C89 C 0.0394 0.54205 0.49146 0.0
C90 C 0.04075 0.5752 0.47645 0.0
C91 C 0.01098 0.59842 0.47414 0.0
C92 C 0.01141 0.62846 0.4586 0.0
C93 C 0.04152 0.63568 0.44491 0.0
C94 C 0.07148 0.61263 0.44757 0.0
C95 C 0.07107 0.58267 0.46315 0.0
Mg96 Mg 0.08034 0.0028 0.26828 0.0
O97 O 0.02499 0.00114 0.24322 0.0
O98 O 0.98252 -0.00363 0.27077 0.0
Mg99 Mg 0.00933 0.99361 0.31219 0.0
C100 C 0.99168 -0.00104 0.24781 0.0
C101 C 0.14458 0.01936 0.23931 0.0
O102 O 0.15791 0.01084 0.26291 0.0
O103 O 0.06968 0.05957 0.28047 0.0
O104 O 0.02836 0.0508 0.30846 0.0
O105 O 0.08447 0.9439 0.26781 0.0
O106 O 0.05906 0.97431 0.29738 0.0
C107 C 0.0489 0.07118 0.2968 0.0
C108 C 0.06733 0.94411 0.28833 0.0
O109 O 0.11022 0.02015 0.23411 0.0
Mg110 Mg 0.99468 0.00193 0.74047 0.0
O111 O 0.05096 -0.00133 0.76396 0.0
O112 O 0.09163 0.98976 0.73557 0.0
Mg113 Mg 0.06231 0.98589 0.69485 0.0
C114 C 0.08374 0.99434 0.7587 0.0
C115 C 0.93664 0.03506 0.77077 0.0
O116 O 0.92262 0.03784 0.74659 0.0
O117 O 0.00789 0.05731 0.72645 0.0
O118 O 0.04647 0.04415 0.69737 0.0
O119 O 0.98769 0.94338 0.74286 0.0
O120 O 0.01261 0.97052 0.71152 0.0
C121 C 0.02803 0.06655 0.70901 0.0
C122 C 0.00364 0.94139 0.72184 0.0
O123 O 0.96862 0.02269 0.77538 0.0
H124 H 0.41715 0.00666 0.11322 0.0
H125 H 0.3667 0.01109 0.14012 0.0
H126 H 0.29409 0.03942 0.0731 0.0
H127 H 0.34435 0.03446 0.0459 0.0
H128 H 0.32143 0.07347 0.14533 0.0
H129 H 0.24266 0.9559 0.1075 0.0
H130 H 0.29024 0.96163 0.10331 0.0
H131 H 0.25643 0.98688 0.08414 0.0
C132 C 0.39036 0.01339 0.10413 0.0
C133 C 0.38472 0.02006 0.0774 0.0
C134 C 0.36164 0.01614 0.11955 0.0
C135 C 0.32667 0.0253 0.10855 0.0
C136 C 0.32082 0.03195 0.0819 0.0
H137 H 0.12709 0.03253 0.18748 0.0
H138 H 0.16925 0.03837 0.15412 0.0
C139 C 0.34961 0.02937 0.06644 0.0
C140 C 0.29665 0.02855 0.12524 0.0
H141 H 0.21857 0.98877 0.14021 0.0
C142 C 0.2988 0.05511 0.14413 0.0
C143 C 0.267 0.00479 0.12339 0.0
C144 C 0.2638 0.97549 0.10363 0.0
C145 C 0.27239 0.05816 0.1616 0.0
C146 C 0.24355 0.03346 0.16052 0.0
C147 C 0.24071 0.00765 0.14102 0.0
C148 C 0.21786 0.03216 0.18067 0.0
C149 C 0.27571 0.08779 0.1811 0.0
C150 C 0.23119 0.02658 0.20659 0.0
C151 C 0.20732 0.02335 0.2256 0.0
C152 C 0.16948 0.02525 0.2191 0.0
C153 C 0.15609 0.03109 0.19313 0.0
C154 C 0.18011 0.03437 0.17405 0.0
H155 H 0.29114 0.11042 0.1741 0.0
H156 H 0.24856 0.09728 0.18547 0.0
H157 H 0.29074 0.07819 0.19932 0.0
H158 H 0.26014 0.02392 0.21207 0.0
H159 H 0.21862 0.01867 0.24535 0.0
H160 H 0.99389 0.38302 0.60984 0.0
H161 H 0.99268 0.33403 0.64039 0.0
H162 H 0.05882 0.27183 0.59384 0.0
H163 H 0.05923 0.32008 0.56267 0.0
H164 H 0.96878 0.25951 0.62684 0.0
H165 H 0.11171 0.27255 0.67058 0.0
H166 H 0.08693 0.30853 0.65414 0.0
H167 H 0.10522 0.27383 0.63581 0.0
C168 C 0.00782 0.35878 0.60587 0.0
C169 C 0.02667 0.35553 0.58373 0.0
C170 C 0.00731 0.33097 0.62348 0.0
C171 C 0.026 0.29963 0.61945 0.0
C172 C 0.04469 0.29613 0.59742 0.0
H173 H 0.07009 0.09504 0.67423 0.0
H174 H 0.0679 0.15451 0.65683 0.0
C175 C 0.04499 0.32377 0.57969 0.0
C176 C 0.02542 0.27002 0.63787 0.0
H177 H 0.08094 0.21939 0.67925 0.0
C178 C 0.99306 0.25093 0.63867 0.0
C179 C 0.05717 0.25924 0.65326 0.0
C180 C 0.09224 0.2797 0.65367 0.0
C181 C 0.99218 0.21985 0.6533 0.0
C182 C 0.02439 0.20819 0.66791 0.0
C183 C 0.05628 0.22839 0.66807 0.0
C184 C 0.02685 0.17306 0.68046 0.0
C185 C 0.95742 0.19869 0.65174 0.0
C186 C 0.00505 0.16388 0.70007 0.0
C187 C 0.00602 0.1295 0.71006 0.0
C188 C 0.02898 0.10392 0.70067 0.0
C189 C 0.05184 0.11385 0.68183 0.0
C190 C 0.05074 0.14797 0.67187 0.0
H191 H 0.93717 0.20799 0.63593 0.0
H192 H 0.96299 0.17031 0.64857 0.0
H193 H 0.9451 0.20117 0.67026 0.0
H194 H 0.98693 0.1831 0.70734 0.0
H195 H 0.98823 0.12281 0.72466 0.0
H196 H 0.72772 0.95595 0.06446 0.0
H197 H 0.78508 0.95258 0.09247 0.0
H198 H 0.76708 0.05745 0.12083 0.0
H199 H 0.71002 0.06116 0.09261 0.0
H200 H 0.83804 0.04698 0.11161 0.0
H201 H 0.78994 0.93682 0.16985 0.0
H202 H 0.78874 0.92754 0.13591 0.0
H203 H 0.75976 0.96128 0.14695 0.0
C204 C 0.73602 0.97826 0.07669 0.0
C205 C 0.71424 0.00871 0.07651 0.0
C206 C 0.76875 0.97628 0.0927 0.0
C207 C 0.78002 0.0045 0.1091 0.0
C208 C 0.75887 0.03533 0.10837 0.0
H209 H 0.91866 0.00496 0.2508 0.0
H210 H 0.87004 0.00598 0.21554 0.0
C211 C 0.72631 0.03744 0.09221 0.0
C212 C 0.81322 0.0017 0.12762 0.0
H213 H 0.85058 0.95541 0.18008 0.0
C214 C 0.84092 0.02689 0.12653 0.0
C215 C 0.81671 0.97565 0.14723 0.0
C216 C 0.78711 0.94897 0.1503 0.0
C217 C 0.87179 0.02702 0.14472 0.0
C218 C 0.87534 0.00082 0.16421 0.0
C219 C 0.84792 0.97532 0.16501 0.0
C220 C 0.90573 0.00084 0.18522 0.0
C221 C 0.89957 0.05599 0.14351 0.0
C222 C 0.94213 -0.00247 0.17993 0.0
C223 C 0.97026 -0.0028 0.20017 0.0
C224 C 0.96239 -0.00027 0.22605 0.0
C225 C 0.92584 0.00283 0.23116 0.0
C226 C 0.89791 0.00341 0.21099 0.0
H227 H 0.88875 0.07838 0.13125 0.0
H228 H 0.90861 0.06616 0.16316 0.0
H229 H 0.92373 0.04532 0.13508 0.0
H230 H 0.94876 0.9948 0.16021 0.0
H231 H 0.99807 0.99455 0.19556 0.0
H232 H 0.00236 0.63249 0.614 0.0
H233 H 1.00127 0.68177 0.64431 0.0
H234 H 0.0435 0.75096 0.58866 0.0
H235 H 0.04454 0.70182 0.55814 0.0
H236 H 0.07912 0.75668 0.63938 0.0
H237 H 0.92864 0.76419 0.63856 0.0
H238 H 0.94823 0.72154 0.64593 0.0
H239 H 0.95047 0.74024 0.61437 0.0
C240 C 0.01099 0.6583 0.60808 0.0
C241 C 0.02328 0.66334 0.58359 0.0
C242 C 0.0104 0.68638 0.62544 0.0
C243 C 0.02186 0.72004 0.61857 0.0
C244 C 0.0345 0.72513 0.59428 0.0
H245 H 0.03352 0.93024 0.67666 0.0
H246 H 0.04091 0.87439 0.6547 0.0
C247 C 0.03516 0.69705 0.57691 0.0
C248 C 0.02097 0.75001 0.63674 0.0
H249 H 0.96336 0.80242 0.66713 0.0
C250 C 0.05385 0.76665 0.64553 0.0
C251 C 0.98796 0.76273 0.64483 0.0
C252 C 0.95174 0.74651 0.63532 0.0
C253 C 0.05456 0.79597 0.66205 0.0
C254 C 0.02146 0.80923 0.66961 0.0
C255 C 0.98869 0.79204 0.66137 0.0
C256 C 0.01982 0.84251 0.68432 0.0
C257 C 0.0907 0.81253 0.67126 0.0
C258 C 0.00516 0.84317 0.7082 0.0
C259 C 1.00091 0.87524 0.72091 0.0
C260 C 0.01095 0.90713 0.70978 0.0
C261 C 0.02604 0.9062 0.68601 0.0
C262 C 0.03038 0.87423 0.67341 0.0
H263 H 0.11347 0.79356 0.67033 0.0
H264 H 0.09561 0.83526 0.65862 0.0
H265 H 0.09097 0.82232 0.69142 0.0
H266 H 0.99655 0.81894 0.71679 0.0
H267 H 0.98902 0.8751 0.73912 0.0
H268 H 0.33211 -0.00091 0.95679 0.0
H269 H 0.27503 0.99378 0.92839 0.0
H270 H 0.33245 0.01692 0.86221 0.0
H271 H 0.38949 0.02209 0.89033 0.0
H272 H 0.24344 0.04923 0.88948 0.0
H273 H 0.27612 0.91955 0.84744 0.0
H274 H 0.29732 0.93478 0.87832 0.0
H275 H 0.31148 0.95235 0.84888 0.0
C276 C 0.33253 0.00292 0.93617 0.0
C277 C 0.36525 0.01099 0.92576 0.0
C278 C 0.29995 3e-05 0.92004 0.0
C279 C 0.29972 0.00471 0.89326 0.0
C280 C 0.33222 0.01301 0.88284 0.0
H281 H 0.15673 0.99499 0.75418 0.0
H282 H 0.20653 -0.00288 0.78862 0.0
C283 C 0.36469 0.01619 0.89894 0.0
C284 C 0.26561 0.00097 0.87597 0.0
H285 H 0.22497 0.95006 0.8272 0.0
C286 C 0.23906 0.02741 0.87602 0.0
C287 C 0.26022 0.97245 0.85852 0.0
C288 C 0.2876 0.94294 0.85828 0.0
C289 C 0.2078 0.02685 0.85819 0.0
C290 C 0.20274 -0.00136 0.8403 0.0
C291 C 0.22889 0.97168 0.84087 0.0
C292 C 0.17181 -0.00241 0.81973 0.0
C293 C 0.18136 0.05724 0.8579 0.0
C294 C 0.1356 -0.00313 0.82576 0.0
C295 C 0.10685 -0.00409 0.806 0.0
C296 C 0.11386 0.99519 0.77988 0.0
C297 C 0.15022 -0.00455 0.77403 0.0
C298 C 0.17881 -0.00334 0.79372 0.0
H299 H 0.19346 0.08049 0.86859 0.0
H300 H 0.1722 0.06538 0.83776 0.0
H301 H 0.15709 0.04891 0.86729 0.0
H302 H 0.12956 -0.00321 0.84571 0.0
H303 H 0.0792 -0.00452 0.81121 0.0
H304 H 0.07791 0.3884 0.39589 0.0
H305 H 0.08143 0.33946 0.36542 0.0
H306 H 0.04299 0.26779 0.42104 0.0
H307 H 0.0399 0.31644 0.45178 0.0
H308 H 0.10681 0.24497 0.39567 0.0
H309 H 0.98966 0.28912 0.32729 0.0
H310 H 0.02459 0.32102 0.33678 0.0
H311 H 0.99653 0.30457 0.36031 0.0
C312 C 0.07055 0.36214 0.40173 0.0
C313 C 0.05856 0.35623 0.42622 0.0
C314 C 0.0723 0.33433 0.38423 0.0
C315 C 0.06215 0.30019 0.39095 0.0
C316 C 0.05079 0.29406 0.41551 0.0
H317 H 0.9983 0.10782 0.32049 0.0
H318 H 0.00435 0.16673 0.33925 0.0
C319 C 0.04885 0.32186 0.43296 0.0
C320 C 0.06305 0.27067 0.37243 0.0
H321 H 0.01817 0.23593 0.31755 0.0
C322 C 0.08781 0.24312 0.37838 0.0
C323 C 0.03807 0.26849 0.35 0.0
C324 C 0.01048 0.29719 0.34313 0.0
C325 C 0.08758 0.21283 0.36284 0.0
C326 C 0.06205 0.21027 0.34071 0.0
C327 C 0.03793 0.23826 0.33438 0.0
C328 C 0.05698 0.17692 0.32602 0.0
C329 C 0.1134 0.18304 0.37086 0.0
C330 C 0.08409 0.16369 0.31156 0.0
C331 C 0.08068 0.1299 0.30066 0.0
C332 C 0.05022 0.10887 0.30429 0.0
C333 C 0.02228 0.12316 0.31756 0.0
C334 C 0.0256 0.15689 0.32824 0.0
H335 H 0.12815 0.1874 0.39031 0.0
H336 H 0.09839 0.15767 0.37104 0.0
H337 H 0.13376 0.18056 0.35667 0.0
H338 H 0.10835 0.17901 0.30945 0.0
H339 H 0.10263 0.11964 0.29052 0.0
H340 H 0.7342 0.01377 0.96042 0.0
H341 H 0.78587 0.01931 0.93461 0.0
H342 H 0.71435 0.0601 0.87081 0.0
H343 H 0.66264 0.05439 0.89629 0.0
H344 H 0.79486 0.98719 0.88748 0.0
H345 H 0.79659 0.13271 0.87771 0.0
H346 H 0.77219 0.11048 0.90138 0.0
H347 H 0.75276 0.11365 0.86829 0.0
C348 C 0.72947 0.02385 0.94087 0.0
C349 C 0.69429 0.03381 0.93046 0.0
C350 C 0.75905 0.02719 0.92622 0.0
C351 C 0.75405 0.04076 0.90099 0.0
C352 C 0.71899 0.05048 0.8905 0.0
H353 H 0.86715 0.06036 0.76689 0.0
H354 H 0.82632 0.06361 0.80092 0.0
C355 C 0.68944 0.04715 0.90509 0.0
C356 C 0.78505 0.04311 0.88504 0.0
H357 H 0.83038 0.10006 0.84875 0.0
C358 C 0.80305 0.01191 0.87931 0.0
C359 C 0.79564 0.07543 0.87444 0.0
C360 C 0.77854 0.11003 0.88095 0.0
C361 C 0.83021 0.0119 0.86226 0.0
C362 C 0.84003 0.04408 0.85104 0.0
C363 C 0.82278 0.07544 0.85738 0.0
C364 C 0.86626 0.04526 0.83128 0.0
C365 C 0.84698 0.97722 0.85549 0.0
C366 C 0.90264 0.03495 0.83725 0.0
C367 C 0.92614 0.03302 0.81779 0.0
C368 C 0.91361 0.04146 0.79205 0.0
C369 C 0.87764 0.05346 0.78645 0.0
C370 C 0.85424 0.05538 0.80589 0.0
H371 H 0.8313 0.95427 0.8617 0.0
H372 H 0.84868 0.97528 0.83433 0.0
H373 H 0.87502 0.97551 0.86533 0.0
H374 H 0.91262 0.02767 0.85684 0.0
H375 H 0.95373 0.02387 0.82278 0.0
H376 H 0.01834 0.70274 0.45391 0.0
H377 H 0.01845 0.75385 0.4251 0.0
H378 H 0.06546 0.69018 0.36826 0.0
H379 H 0.06454 0.63877 0.3966 0.0
H380 H 0.07999 0.78377 0.40577 0.0
H381 H 0.97898 0.73845 0.32615 0.0
H382 H 0.98329 0.71834 0.35782 0.0
H383 H 0.01525 0.70788 0.33509 0.0
C384 C 0.02823 0.69952 0.43513 0.0
C385 C 0.04141 0.66672 0.42752 0.0
C386 C 0.02842 0.72874 0.41876 0.0
C387 C 0.04148 0.72562 0.39443 0.0
C388 C 0.05466 0.69297 0.38677 0.0
H389 H 0.08233 0.87625 0.27466 0.0
H390 H 0.0746 0.82253 0.29981 0.0
C391 C 0.05454 0.66375 0.40312 0.0
C392 C 0.043 0.75696 0.37763 0.0
H393 H 0.01174 0.79074 0.3186 0.0
C394 C 0.06492 0.78541 0.38677 0.0
C395 C 0.02349 0.7588 0.3528 0.0
C396 C 0.99866 0.72939 0.34239 0.0
C397 C 0.06824 0.81558 0.37161 0.0
C398 C 0.04853 0.81757 0.34685 0.0
C399 C 0.02674 0.78907 0.33761 0.0
C400 C 0.05011 0.84933 0.33048 0.0
C401 C 0.09339 0.84478 0.38203 0.0
C402 C 0.03782 0.88185 0.33903 0.0
C403 C 0.04228 0.91248 0.32482 0.0
C404 C 0.05882 0.9111 0.30163 0.0
C405 C 0.06955 0.87819 0.29247 0.0
C406 C 0.06515 0.8475 0.30678 0.0
H407 H 0.11326 0.83546 0.39806 0.0
H408 H 0.10859 0.85596 0.36656 0.0
H409 H 0.07706 0.86627 0.38964 0.0
H410 H 0.02555 0.88367 0.35706 0.0
H411 H 0.03375 0.93732 0.3325 0.0
loop_
_geom_bond_atom_site_label_1
_geom_bond_atom_site_label_2
_geom_bond_distance
_geom_bond_site_symmetry_2
_ccdc_geom_bond_type
H0 C19 0.949 . S
H1 C20 0.950 . S
H2 C22 0.950 . S
H3 C23 0.950 . S
H4 C25 0.950 1_565 S
H5 C28 0.950 . S
H6 C29 0.950 . S
H7 C31 0.951 . S
H8 C32 0.949 . S
H9 C34 0.949 . S
H10 C35 0.950 . S
H11 C37 0.950 . S
H12 C38 0.950 . S
H13 C40 0.950 . S
H14 C43 0.950 . S
H15 C44 0.950 . S
H16 C46 0.951 . S
H17 C47 0.949 . S
C18 C19 1.376 1_545 S
C18 C23 1.386 . S
C18 C24 1.483 . S
C19 H0 0.949 . S
C19 C18 1.376 1_565 S
C19 C20 1.397 . S
C20 H1 0.950 . S
C20 C19 1.397 . S
C20 C21 1.391 1_565 S
C21 C20 1.391 1_545 S
C21 C22 1.405 . S
C22 H2 0.950 . S
C22 C21 1.405 . S
C22 C23 1.367 . S
C23 H3 0.950 . S
C23 C18 1.386 . S
C23 C22 1.367 . S
C24 C18 1.483 . S
C24 C25 1.382 . S
C24 C26 1.403 1_554 S
C25 H4 0.950 1_545 S
C25 C24 1.382 . S
C25 C41 1.411 . S
C26 C24 1.403 1_556 S
C26 C27 1.489 . S
C26 C40 1.411 . S
C27 C26 1.489 . S
C27 C28 1.383 1_545 S
C27 C32 1.382 . S
C28 H5 0.950 . S
C28 C27 1.383 1_565 S
C28 C29 1.395 . S
C29 H6 0.950 . S
C29 C28 1.395 . S
C29 C30 1.288 1_565 S
C30 C29 1.288 1_545 S
C30 C31 1.392 . S
C31 H7 0.951 . S
C31 C30 1.392 . S
C31 C32 1.392 . S
C32 H8 0.949 . S
C32 C27 1.382 . S
C32 C31 1.392 . S
C33 C34 1.376 . S
C33 C38 1.386 1_545 S
C33 C39 1.483 . S
C34 H9 0.949 . S
C34 C33 1.376 . S
C34 C35 1.397 . S
C35 H10 0.950 . S
C35 C34 1.397 . S
C35 C36 1.391 . S
C36 C35 1.391 . S
C36 C37 1.405 1_545 S
C37 H11 0.950 . S
C37 C36 1.405 1_565 S
C37 C38 1.367 . S
C38 H12 0.950 . S
C38 C33 1.386 1_565 S
C38 C37 1.367 . S
C39 C33 1.483 . S
C39 C40 1.382 . S
C39 C41 1.403 1_556 S
C40 H13 0.950 . S
C40 C26 1.411 . S
C40 C39 1.382 . S
C41 C25 1.411 . S
C41 C39 1.403 1_554 S
C41 C42 1.489 . S
C42 C41 1.489 . S
C42 C43 1.383 . S
C42 C47 1.382 1_545 S
C43 H14 0.950 . S
C43 C42 1.383 . S
C43 C44 1.395 . S
C44 H15 0.950 . S
C44 C43 1.395 . S
C44 C45 1.288 . S
C45 C44 1.288 . S
C45 C46 1.392 1_545 S
C46 H16 0.951 . S
C46 C45 1.392 1_565 S
C46 C47 1.392 . S
C47 H17 0.949 . S
C47 C42 1.382 1_565 S
C47 C46 1.392 . S
H48 C67 0.949 . S
H49 C68 0.950 . S
H50 C70 0.950 1_655 S
H51 C71 0.950 1_655 S
H52 C73 0.950 . S
H53 C76 0.950 . S
H54 C77 0.950 . S
H55 C79 0.951 1_655 S
H56 C80 0.949 1_655 S
H57 C82 0.949 1_655 S
H58 C83 0.947 1_655 S
H59 C85 0.950 . S
H60 C86 0.950 . S
H61 C88 0.950 . S
H62 C91 0.950 1_655 S
H63 C92 0.950 . S
H64 C94 0.951 . S
H65 C95 0.949 . S
C66 C67 1.376 . S
C66 C71 1.386 . S
C66 C72 1.483 . S
C67 H48 0.949 . S
C67 C66 1.376 . S
C67 C68 1.397 . S
C68 H49 0.950 . S
C68 C67 1.397 . S
C68 C69 1.391 . S
C69 C68 1.391 . S
C69 C70 1.405 . S
C70 H50 0.950 1_455 S
C70 C69 1.405 . S
C70 C71 1.367 . S
C71 H51 0.950 1_455 S
C71 C66 1.386 . S
C71 C70 1.367 . S
C72 C66 1.483 . S
C72 C73 1.382 . S
C72 C74 1.403 . S
C73 H52 0.950 . S
C73 C72 1.382 . S
C73 C89 1.411 . S
C74 C72 1.403 . S
C74 C75 1.489 . S
C74 C88 1.411 . S
C75 C74 1.489 . S
C75 C76 1.383 . S
C75 C80 1.382 . S
C76 H53 0.950 . S
C76 C75 1.383 . S
C76 C77 1.395 . S
C77 H54 0.950 . S
C77 C76 1.395 . S
C77 C78 1.288 . S
C78 C77 1.288 . S
C78 C79 1.392 . S
C79 H55 0.951 1_455 S
C79 C78 1.392 . S
C79 C80 1.392 . S
C80 H56 0.949 1_455 S
C80 C75 1.382 . S
C80 C79 1.392 . S
C81 C82 1.376 . S
C81 C86 1.386 . S
C81 C87 1.483 . S
C82 H57 0.949 1_455 S
C82 C81 1.376 . S
C82 C83 1.397 . S
C83 H58 0.947 1_455 S
C83 C82 1.397 . S
C83 C84 1.394 . S
C84 C83 1.394 . S
C84 C85 1.405 . S
C85 H59 0.950 . S
C85 C84 1.405 . S
C85 C86 1.367 . S
C86 H60 0.950 . S
C86 C81 1.386 . S
C86 C85 1.367 . S
C87 C81 1.483 . S
C87 C88 1.382 . S
C87 C89 1.403 . S
C88 H61 0.950 . S
C88 C74 1.411 . S
C88 C87 1.382 . S
C89 C73 1.411 . S
C89 C87 1.403 . S
C89 C90 1.489 . S
C90 C89 1.489 . S
C90 C91 1.383 . S
C90 C95 1.382 . S
C91 H62 0.950 1_455 S
C91 C90 1.383 . S
C91 C92 1.395 . S
C92 H63 0.950 . S
C92 C91 1.395 . S
C92 C93 1.288 . S
C93 C92 1.288 . S
C93 C94 1.392 . S
C94 H64 0.951 . S
C94 C93 1.392 . S
C94 C95 1.392 . S
C95 H65 0.949 . S
C95 C90 1.382 . S
C95 C94 1.392 . S
Mg96 O97 2.028 . S
Mg96 O103 1.986 . S
Mg96 O105 2.114 1_545 S
Mg96 O106 2.251 1_545 S
Mg96 O109 2.010 . S
O97 Mg96 2.028 . S
O97 C100 1.250 . S
O98 Mg99 2.028 . S
O98 C100 1.248 1_655 S
Mg99 O98 2.028 . S
Mg99 O104 2.032 1_655 S
Mg99 O106 2.079 1_645 S
C100 O97 1.250 . S
C100 O98 1.248 1_455 S
C101 O102 1.264 . S
C101 O109 1.249 . S
O102 C101 1.264 . S
O103 Mg96 1.986 . S
O103 C107 1.246 . S
O104 Mg99 2.032 1_455 S
O104 C107 1.259 . S
O105 Mg96 2.114 1_565 S
O105 C108 1.252 . S
O106 Mg96 2.251 1_565 S
O106 Mg99 2.079 1_465 S
O106 C108 1.273 . S
C107 O103 1.246 . S
C107 O104 1.259 . S
C108 O105 1.252 . S
C108 O106 1.273 . S
O109 Mg96 2.010 . S
O109 C101 1.249 . S
Mg110 O111 2.028 1_655 S
Mg110 O117 1.986 1_655 S
Mg110 O119 2.114 1_545 S
Mg110 O120 2.251 1_645 S
Mg110 O123 2.010 . S
O111 Mg110 2.028 1_455 S
O111 C114 1.250 . S
O112 Mg113 2.028 . S
O112 C114 1.248 . S
Mg113 O112 2.028 . S
Mg113 O118 2.032 . S
Mg113 O120 2.079 1_545 S
C114 O111 1.250 . S
C114 O112 1.248 . S
C115 O116 1.264 . S
C115 O123 1.249 . S
O116 C115 1.264 . S
O117 Mg110 1.986 1_455 S
O117 C121 1.246 . S
O118 Mg113 2.032 . S
O118 C121 1.259 . S
O119 Mg110 2.114 1_565 S
O119 C122 1.252 1_655 S
O120 Mg110 2.251 1_465 S
O120 Mg113 2.079 1_565 S
O120 C122 1.273 . S
C121 O117 1.246 . S
C121 O118 1.259 . S
C122 O119 1.252 1_455 S
C122 O120 1.273 . S
O123 Mg110 2.010 . S
O123 C115 1.249 . S
H124 C132 0.929 . S
H125 C134 0.930 . S
H126 C136 0.930 . S
H127 C139 0.929 . S
H128 C142 0.930 . S
H129 C144 0.960 . S
H130 C144 0.960 . S
H131 C144 0.960 . S
C132 H124 0.929 . S
C132 C133 1.377 1_565 S
C132 C134 1.384 . S
C133 C132 1.377 1_545 S
C133 C139 1.390 . S
C134 H125 0.930 . S
C134 C132 1.384 . S
C134 C135 1.372 1_565 S
C135 C134 1.372 1_545 S
C135 C136 1.400 . S
C135 C140 1.490 . S
C136 H126 0.930 . S
C136 C135 1.400 . S
C136 C139 1.386 . S
H137 C153 0.930 . S
H138 C154 0.931 . S
C139 H127 0.929 . S
C139 C133 1.390 . S
C139 C136 1.386 . S
C140 C135 1.490 . S
C140 C142 1.395 . S
C140 C143 1.403 1_545 S
H141 C147 0.930 . S
C142 H128 0.930 . S
C142 C140 1.395 . S
C142 C145 1.403 . S
C143 C140 1.403 1_565 S
C143 C144 1.524 . S
C143 C147 1.400 . S
C144 H129 0.960 . S
C144 H130 0.960 . S
C144 H131 0.960 . S
C144 C143 1.524 . S
C145 C142 1.403 . S
C145 C146 1.392 . S
C145 C149 1.495 . S
C146 C145 1.392 . S
C146 C147 1.385 1_545 S
C146 C148 1.478 . S
C147 H141 0.930 . S
C147 C143 1.400 . S
C147 C146 1.385 1_565 S
C148 C146 1.478 . S
C148 C150 1.381 . S
C148 C154 1.383 . S
C149 C145 1.495 . S
C149 H155 0.959 . S
C149 H156 0.961 . S
C149 H157 0.960 . S
C150 C148 1.381 . S
C150 C151 1.394 . S
C150 H158 0.930 1_545 S
C151 C150 1.394 . S
C151 C152 1.383 . S
C151 H159 0.929 1_545 S
C152 C151 1.383 . S
C152 C153 1.377 . S
C153 H137 0.930 . S
C153 C152 1.377 . S
C153 C154 1.379 . S
C154 H138 0.931 . S
C154 C148 1.383 . S
C154 C153 1.379 . S
H155 C149 0.959 . S
H156 C149 0.961 . S
H157 C149 0.960 . S
H158 C150 0.930 1_565 S
H159 C151 0.929 1_565 S
H160 C168 0.929 . S
H161 C170 0.930 . S
H162 C172 0.930 . S
H163 C175 0.929 . S
H164 C178 0.930 . S
H165 C180 0.960 . S
H166 C180 0.960 . S
H167 C180 0.960 . S
C168 H160 0.929 . S
C168 C169 1.377 . S
C168 C170 1.384 . S
C169 C168 1.377 . S
C169 C175 1.390 . S
C170 H161 0.930 . S
C170 C168 1.384 . S
C170 C171 1.372 . S
C171 C170 1.372 . S
C171 C172 1.400 . S
C171 C176 1.490 . S
C172 H162 0.930 . S
C172 C171 1.400 . S
C172 C175 1.386 . S
H173 C189 0.930 . S
H174 C190 0.931 . S
C175 H163 0.929 . S
C175 C169 1.390 . S
C175 C172 1.386 . S
C176 C171 1.490 . S
C176 C178 1.395 1_455 S
C176 C179 1.403 . S
H177 C183 0.930 . S
C178 H164 0.930 . S
C178 C176 1.395 1_655 S
C178 C181 1.403 . S
C179 C176 1.403 . S
C179 C180 1.524 . S
C179 C183 1.400 . S
C180 H165 0.960 . S
C180 H166 0.960 . S
C180 H167 0.960 . S
C180 C179 1.524 . S
C181 C178 1.403 . S
C181 C182 1.392 1_655 S
C181 C185 1.495 . S
C182 C181 1.392 1_455 S
C182 C183 1.385 . S
C182 C184 1.478 . S
C183 H177 0.930 . S
C183 C179 1.400 . S
C183 C182 1.385 . S
C184 C182 1.478 . S
C184 C186 1.381 . S
C184 C190 1.383 . S
C185 C181 1.495 . S
C185 H191 0.959 . S
C185 H192 0.961 . S
C185 H193 0.960 . S
C186 C184 1.381 . S
C186 C187 1.394 . S
C186 H194 0.930 . S
C187 C186 1.394 . S
C187 C188 1.383 . S
C187 H195 0.929 . S
C188 C187 1.383 . S
C188 C189 1.377 . S
C189 H173 0.930 . S
C189 C188 1.377 . S
C189 C190 1.379 . S
C190 H174 0.931 . S
C190 C184 1.383 . S
C190 C189 1.379 . S
H191 C185 0.959 . S
H192 C185 0.961 . S
H193 C185 0.960 . S
H194 C186 0.930 . S
H195 C187 0.929 . S
H196 C204 0.929 . S
H197 C206 0.930 . S
H198 C208 0.930 . S
H199 C211 0.929 . S
H200 C214 0.930 . S
H201 C216 0.960 . S
H202 C216 0.960 . S
H203 C216 0.960 1_545 S
C204 H196 0.929 . S
C204 C205 1.377 1_565 S
C204 C206 1.384 . S
C205 C204 1.377 1_545 S
C205 C211 1.390 . S
C206 H197 0.930 . S
C206 C204 1.384 . S
C206 C207 1.372 1_565 S
C207 C206 1.372 1_545 S
C207 C208 1.400 . S
C207 C212 1.490 . S
C208 H198 0.930 . S
C208 C207 1.400 . S
C208 C211 1.386 . S
H209 C225 0.930 . S
H210 C226 0.931 . S
C211 H199 0.929 . S
C211 C205 1.390 . S
C211 C208 1.386 . S
C212 C207 1.490 . S
C212 C214 1.395 . S
C212 C215 1.403 . S
H213 C219 0.930 . S
C214 H200 0.930 . S
C214 C212 1.395 . S
C214 C217 1.403 . S
C215 C212 1.403 . S
C215 C216 1.524 1_545 S
C215 C219 1.400 . S
C216 H201 0.960 . S
C216 H202 0.960 . S
C216 H203 0.960 1_565 S
C216 C215 1.524 1_565 S
C217 C214 1.403 . S
C217 C218 1.392 . S
C217 C221 1.495 . S
C218 C217 1.392 . S
C218 C219 1.385 . S
C218 C220 1.478 . S
C219 H213 0.930 . S
C219 C215 1.400 . S
C219 C218 1.385 . S
C220 C218 1.478 . S
C220 C222 1.381 1_545 S
C220 C226 1.383 . S
C221 C217 1.495 . S
C221 H227 0.959 . S
C221 H228 0.961 . S
C221 H229 0.960 . S
C222 C220 1.381 1_565 S
C222 C223 1.394 . S
C222 H230 0.930 . S
C223 C222 1.394 . S
C223 C224 1.383 1_565 S
C223 H231 0.929 . S
C224 C223 1.383 1_545 S
C224 C225 1.377 . S
C225 H209 0.930 . S
C225 C224 1.377 . S
C225 C226 1.379 . S
C226 H210 0.931 . S
C226 C220 1.383 . S
C226 C225 1.379 . S
H227 C221 0.959 . S
H228 C221 0.961 . S
H229 C221 0.960 . S
H230 C222 0.930 . S
H231 C223 0.929 . S
H232 C240 0.929 . S
H233 C242 0.930 . S
H234 C244 0.930 . S
H235 C247 0.929 . S
H236 C250 0.930 . S
H237 C252 0.960 . S
H238 C252 0.960 . S
H239 C252 0.960 . S
C240 H232 0.929 . S
C240 C241 1.377 . S
C240 C242 1.384 . S
C241 C240 1.377 . S
C241 C247 1.390 . S
C242 H233 0.930 . S
C242 C240 1.384 . S
C242 C243 1.372 . S
C243 C242 1.372 . S
C243 C244 1.400 . S
C243 C248 1.490 . S
C244 H234 0.930 . S
C244 C243 1.400 . S
C244 C247 1.386 . S
H245 C261 0.930 . S
H246 C262 0.931 . S
C247 H235 0.929 . S
C247 C241 1.390 . S
C247 C244 1.386 . S
C248 C243 1.490 . S
C248 C250 1.395 . S
C248 C251 1.403 1_455 S
H249 C255 0.930 . S
C250 H236 0.930 . S
C250 C248 1.395 . S
C250 C253 1.403 . S
C251 C248 1.403 1_655 S
C251 C252 1.524 . S
C251 C255 1.400 . S
C252 H237 0.960 . S
C252 H238 0.960 . S
C252 H239 0.960 . S
C252 C251 1.524 . S
C253 C250 1.403 . S
C253 C254 1.392 . S
C253 C257 1.495 . S
C254 C253 1.392 . S
C254 C255 1.385 1_455 S
C254 C256 1.478 . S
C255 H249 0.930 . S
C255 C251 1.400 . S
C255 C254 1.385 1_655 S
C256 C254 1.478 . S
C256 C258 1.381 . S
C256 C262 1.383 . S
C257 C253 1.495 . S
C257 H263 0.959 . S
C257 H264 0.961 . S
C257 H265 0.960 . S
C258 C256 1.381 . S
C258 C259 1.394 . S
C258 H266 0.930 . S
C259 C258 1.394 . S
C259 C260 1.383 . S
C259 H267 0.929 . S
C260 C259 1.383 . S
C260 C261 1.377 . S
C261 H245 0.930 . S
C261 C260 1.377 . S
C261 C262 1.379 . S
C262 H246 0.931 . S
C262 C256 1.383 . S
C262 C261 1.379 . S
H263 C257 0.959 . S
H264 C257 0.961 . S
H265 C257 0.960 . S
H266 C258 0.930 . S
H267 C259 0.929 . S
H268 C276 0.929 . S
H269 C278 0.930 . S
H270 C280 0.930 . S
H271 C283 0.929 . S
H272 C286 0.930 . S
H273 C288 0.960 . S
H274 C288 0.960 . S
H275 C288 0.960 . S
C276 H268 0.929 . S
C276 C277 1.377 1_565 S
C276 C278 1.384 . S
C277 C276 1.377 1_545 S
C277 C283 1.390 . S
C278 H269 0.930 . S
C278 C276 1.384 . S
C278 C279 1.372 1_565 S
C279 C278 1.372 1_545 S
C279 C280 1.400 . S
C279 C284 1.490 . S
C280 H270 0.930 . S
C280 C279 1.400 . S
C280 C283 1.386 . S
H281 C297 0.930 . S
H282 C298 0.931 . S
C283 H271 0.929 . S
C283 C277 1.390 . S
C283 C280 1.386 . S
C284 C279 1.490 . S
C284 C286 1.395 . S
C284 C287 1.403 1_545 S
H285 C291 0.930 1_565 S
C286 H272 0.930 . S
C286 C284 1.395 . S
C286 C289 1.403 . S
C287 C284 1.403 1_565 S
C287 C288 1.524 . S
C287 C291 1.400 1_565 S
C288 H273 0.960 . S
C288 H274 0.960 . S
C288 H275 0.960 . S
C288 C287 1.524 . S
C289 C286 1.403 . S
C289 C290 1.392 . S
C289 C293 1.495 . S
C290 C289 1.392 . S
C290 C291 1.385 . S
C290 C292 1.478 . S
C291 H285 0.930 1_545 S
C291 C287 1.400 1_545 S
C291 C290 1.385 . S
C292 C290 1.478 . S
C292 C294 1.378 1_545 S
C292 C298 1.383 . S
C293 C289 1.495 . S
C293 H299 0.959 . S
C293 H300 0.961 . S
C293 H301 0.960 . S
C294 C292 1.378 1_565 S
C294 C295 1.394 . S
C294 H302 0.933 . S
C295 C294 1.394 . S
C295 C296 1.378 1_565 S
C295 H303 0.935 . S
C296 C295 1.378 1_545 S
C296 C297 1.377 . S
C297 H281 0.930 . S
C297 C296 1.377 . S
C297 C298 1.379 . S
C298 H282 0.931 . S
C298 C292 1.383 . S
C298 C297 1.379 . S
H299 C293 0.959 . S
H300 C293 0.961 . S
H301 C293 0.960 . S
H302 C294 0.933 . S
H303 C295 0.935 . S
H304 C312 0.929 . S
H305 C314 0.930 . S
H306 C316 0.930 . S
H307 C319 0.916 1_655 S
H308 C322 0.930 . S
H309 C324 0.960 . S
H310 C324 0.960 . S
H311 C324 0.960 . S
C312 H304 0.929 . S
C312 C313 1.377 . S
C312 C314 1.384 . S
C313 C312 1.377 . S
C313 C319 1.390 . S
C314 H305 0.930 . S
C314 C312 1.384 . S
C314 C315 1.372 . S
C315 C314 1.372 . S
C315 C316 1.400 . S
C315 C320 1.490 . S
C316 H306 0.930 . S
C316 C315 1.400 . S
C316 C319 1.386 . S
H317 C333 0.930 . S
H318 C334 0.931 . S
C319 H307 0.916 1_455 S
C319 C313 1.390 . S
C319 C316 1.386 . S
C320 C315 1.490 . S
C320 C322 1.395 . S
C320 C323 1.403 . S
H321 C327 0.930 . S
C322 H308 0.930 . S
C322 C320 1.395 . S
C322 C325 1.403 . S
C323 C320 1.403 . S
C323 C324 1.524 1_455 S
C323 C327 1.400 . S
C324 H309 0.960 . S
C324 H310 0.960 . S
C324 H311 0.960 . S
C324 C323 1.524 1_655 S
C325 C322 1.403 . S
C325 C326 1.392 . S
C325 C329 1.495 . S
C326 C325 1.392 . S
C326 C327 1.385 . S
C326 C328 1.478 . S
C327 H321 0.930 . S
C327 C323 1.400 . S
C327 C326 1.385 . S
C328 C326 1.478 . S
C328 C330 1.381 . S
C328 C334 1.383 . S
C329 C325 1.495 . S
C329 H335 0.959 . S
C329 H336 0.961 . S
C329 H337 0.960 . S
C330 C328 1.381 . S
C330 C331 1.394 . S
C330 H338 0.930 . S
C331 C330 1.394 . S
C331 C332 1.383 . S
C331 H339 0.929 . S
C332 C331 1.383 . S
C332 C333 1.377 . S
C333 H317 0.930 . S
C333 C332 1.377 . S
C333 C334 1.379 . S
C334 H318 0.931 . S
C334 C328 1.383 . S
C334 C333 1.379 . S
H335 C329 0.959 . S
H336 C329 0.961 . S
H337 C329 0.960 . S
H338 C330 0.930 . S
H339 C331 0.929 . S
H340 C348 0.929 . S
H341 C350 0.930 . S
H342 C352 0.930 . S
H343 C355 0.929 . S
H344 C358 0.930 . S
H345 C360 0.960 . S
H346 C360 0.960 . S
H347 C360 0.960 . S
C348 H340 0.929 . S
C348 C349 1.377 1_565 S
C348 C350 1.384 . S
C349 C348 1.377 1_545 S
C349 C355 1.390 . S
C350 H341 0.930 . S
C350 C348 1.384 . S
C350 C351 1.372 1_565 S
C351 C350 1.372 1_545 S
C351 C352 1.400 . S
C351 C356 1.490 . S
C352 H342 0.930 . S
C352 C351 1.400 . S
C352 C355 1.386 . S
H353 C369 0.930 . S
H354 C370 0.931 . S
C355 H343 0.929 . S
C355 C349 1.390 . S
C355 C352 1.386 . S
C356 C351 1.490 . S
C356 C358 1.395 1_545 S
C356 C359 1.403 . S
H357 C363 0.930 . S
C358 H344 0.930 . S
C358 C356 1.395 1_565 S
C358 C361 1.403 . S
C359 C356 1.403 . S
C359 C360 1.524 . S
C359 C363 1.400 . S
C360 H345 0.960 . S
C360 H346 0.960 . S
C360 H347 0.960 . S
C360 C359 1.524 . S
C361 C358 1.403 . S
C361 C362 1.392 1_565 S
C361 C365 1.495 . S
C362 C361 1.392 1_545 S
C362 C363 1.385 . S
C362 C364 1.478 . S
C363 H357 0.930 . S
C363 C359 1.400 . S
C363 C362 1.385 . S
C364 C362 1.478 . S
C364 C366 1.381 1_545 S
C364 C370 1.383 . S
C365 C361 1.495 . S
C365 H371 0.959 . S
C365 H372 0.961 . S
C365 H373 0.960 . S
C366 C364 1.381 1_565 S
C366 C367 1.394 . S
C366 H374 0.930 . S
C367 C366 1.394 . S
C367 C368 1.383 1_565 S
C367 H375 0.929 . S
C368 C367 1.383 1_545 S
C368 C369 1.377 . S
C369 H353 0.930 . S
C369 C368 1.377 . S
C369 C370 1.379 . S
C370 H354 0.931 . S
C370 C364 1.383 . S
C370 C369 1.379 . S
H371 C365 0.959 . S
H372 C365 0.961 . S
H373 C365 0.960 . S
H374 C366 0.930 . S
H375 C367 0.929 . S
H376 C384 0.929 1_655 S
H377 C386 0.918 1_655 S
H378 C388 0.930 . S
H379 C391 0.929 . S
H380 C394 0.930 . S
H381 C396 0.960 . S
H382 C396 0.960 . S
H383 C396 0.960 . S
C384 H376 0.929 1_455 S
C384 C385 1.377 . S
C384 C386 1.384 . S
C385 C384 1.377 . S
C385 C391 1.390 . S
C386 H377 0.918 1_455 S
C386 C384 1.384 . S
C386 C387 1.372 . S
C387 C386 1.372 . S
C387 C388 1.400 . S
C387 C392 1.490 . S
C388 H378 0.930 . S
C388 C387 1.400 . S
C388 C391 1.386 . S
H389 C405 0.930 . S
H390 C406 0.931 . S
C391 H379 0.929 . S
C391 C385 1.390 . S
C391 C388 1.386 . S
C392 C387 1.490 . S
C392 C394 1.395 . S
C392 C395 1.403 . S
H393 C399 0.930 . S
C394 H380 0.930 . S
C394 C392 1.395 . S
C394 C397 1.403 . S
C395 C392 1.403 . S
C395 C396 1.524 . S
C395 C399 1.400 . S
C396 H381 0.960 . S
C396 H382 0.960 . S
C396 H383 0.960 . S
C396 C395 1.524 . S
C397 C394 1.403 . S
C397 C398 1.392 . S
C397 C401 1.495 . S
C398 C397 1.392 . S
C398 C399 1.385 . S
C398 C400 1.478 . S
C399 H393 0.930 . S
C399 C395 1.400 . S
C399 C398 1.385 . S
C400 C398 1.478 . S
C400 C402 1.381 . S
C400 C406 1.383 . S
C401 C397 1.495 . S
C401 H407 0.959 . S
C401 H408 0.961 . S
C401 H409 0.960 . S
C402 C400 1.381 . S
C402 C403 1.394 . S
C402 H410 0.930 . S
C403 C402 1.394 . S
C403 C404 1.383 . S
C403 H411 0.929 . S
C404 C403 1.383 . S
C404 C405 1.377 . S
C405 H389 0.930 . S
C405 C404 1.377 . S
C405 C406 1.379 . S
C406 H390 0.931 . S
C406 C400 1.383 . S
C406 C405 1.379 . S
H407 C401 0.959 . S
H408 C401 0.961 . S
H409 C401 0.960 . S
H410 C402 0.930 . S
H411 C403 0.929 . S
C152 C101 1.236 . S
C133 C45 1.529 . S
C188 C121 1.511 . S
C169 C78 1.518 . S
C224 C100 1.499 1_655 S
C205 C21 1.524 . S
C260 C122 1.528 . S
C241 C84 1.529 . S
C296 C114 1.497 . S
C277 C36 1.524 . S
C332 C107 1.503 . S
C313 C69 1.523 . S
C368 C115 1.258 . S
C349 C30 1.526 . S
C385 C93 1.526 . S
C404 C108 1.527 . S
