# Generated by pormake.
# Topology eea, (3,6)-cn, num edge types: 1
# Building blocks:
#     Node 0, Type 0, BuildingBlock: VETTIZ_charged_linker_0, # of connection points: 3
#     Node 1, Type 0, BuildingBlock: VETTIZ_charged_linker_0, # of connection points: 3
#     Node 2, Type 0, BuildingBlock: VETTIZ_charged_linker_0, # of connection points: 3
#     Node 3, Type 0, BuildingBlock: VETTIZ_charged_linker_0, # of connection points: 3
#     Node 4, Type 0, BuildingBlock: VETTIZ_charged_linker_0, # of connection points: 3
#     Node 5, Type 0, BuildingBlock: VETTIZ_charged_linker_0, # of connection points: 3
#     Node 6, Type 0, BuildingBlock: VETTIZ_charged_linker_0, # of connection points: 3
#     Node 7, Type 0, BuildingBlock: VETTIZ_charged_linker_0, # of connection points: 3
#     Node 8, Type 0, BuildingBlock: VETTIZ_charged_linker_0, # of connection points: 3
#     Node 9, Type 0, BuildingBlock: VETTIZ_charged_linker_0, # of connection points: 3
#     Node 10, Type 0, BuildingBlock: VETTIZ_charged_linker_0, # of connection points: 3
#     Node 11, Type 0, BuildingBlock: VETTIZ_charged_linker_0, # of connection points: 3
#     Node 12, Type 0, BuildingBlock: VETTIZ_charged_linker_0, # of connection points: 3
#     Node 13, Type 0, BuildingBlock: VETTIZ_charged_linker_0, # of connection points: 3
#     Node 14, Type 0, BuildingBlock: VETTIZ_charged_linker_0, # of connection points: 3
#     Node 15, Type 0, BuildingBlock: VETTIZ_charged_linker_0, # of connection points: 3
#     Node 16, Type 0, BuildingBlock: VETTIZ_charged_linker_0, # of connection points: 3
#     Node 17, Type 0, BuildingBlock: VETTIZ_charged_linker_0, # of connection points: 3
#     Node 18, Type 1, BuildingBlock: CUWYAW_clean_sbu_0, # of connection points: 6
#     Node 19, Type 1, BuildingBlock: CUWYAW_clean_sbu_0, # of connection points: 6
#     Node 20, Type 1, BuildingBlock: CUWYAW_clean_sbu_0, # of connection points: 6
#     Node 21, Type 1, BuildingBlock: CUWYAW_clean_sbu_0, # of connection points: 6
#     Node 22, Type 1, BuildingBlock: CUWYAW_clean_sbu_0, # of connection points: 6
#     Node 23, Type 1, BuildingBlock: CUWYAW_clean_sbu_0, # of connection points: 6
#     Node 24, Type 1, BuildingBlock: CUWYAW_clean_sbu_0, # of connection points: 6
#     Node 25, Type 1, BuildingBlock: CUWYAW_clean_sbu_0, # of connection points: 6
#     Node 26, Type 1, BuildingBlock: CUWYAW_clean_sbu_0, # of connection points: 6
#     Edge 27, Type (0, 1), BuildingBlock: TEMPAE_clean_linker_10, # of connection points: 2
#     Edge 28, Type (0, 1), BuildingBlock: TEMPAE_clean_linker_10, # of connection points: 2
#     Edge 29, Type (0, 1), BuildingBlock: TEMPAE_clean_linker_10, # of connection points: 2
#     Edge 30, Type (0, 1), BuildingBlock: TEMPAE_clean_linker_10, # of connection points: 2
#     Edge 31, Type (0, 1), BuildingBlock: TEMPAE_clean_linker_10, # of connection points: 2
#     Edge 32, Type (0, 1), BuildingBlock: TEMPAE_clean_linker_10, # of connection points: 2
#     Edge 33, Type (0, 1), BuildingBlock: TEMPAE_clean_linker_10, # of connection points: 2
#     Edge 34, Type (0, 1), BuildingBlock: TEMPAE_clean_linker_10, # of connection points: 2
#     Edge 35, Type (0, 1), BuildingBlock: TEMPAE_clean_linker_10, # of connection points: 2
#     Edge 36, Type (0, 1), BuildingBlock: TEMPAE_clean_linker_10, # of connection points: 2
#     Edge 37, Type (0, 1), BuildingBlock: TEMPAE_clean_linker_10, # of connection points: 2
#     Edge 38, Type (0, 1), BuildingBlock: TEMPAE_clean_linker_10, # of connection points: 2
#     Edge 39, Type (0, 1), BuildingBlock: TEMPAE_clean_linker_10, # of connection points: 2
#     Edge 40, Type (0, 1), BuildingBlock: TEMPAE_clean_linker_10, # of connection points: 2
#     Edge 41, Type (0, 1), BuildingBlock: TEMPAE_clean_linker_10, # of connection points: 2
#     Edge 42, Type (0, 1), BuildingBlock: TEMPAE_clean_linker_10, # of connection points: 2
#     Edge 43, Type (0, 1), BuildingBlock: TEMPAE_clean_linker_10, # of connection points: 2
#     Edge 44, Type (0, 1), BuildingBlock: TEMPAE_clean_linker_10, # of connection points: 2
#     Edge 45, Type (0, 1), BuildingBlock: TEMPAE_clean_linker_10, # of connection points: 2
#     Edge 46, Type (0, 1), BuildingBlock: TEMPAE_clean_linker_10, # of connection points: 2
#     Edge 47, Type (0, 1), BuildingBlock: TEMPAE_clean_linker_10, # of connection points: 2
#     Edge 48, Type (0, 1), BuildingBlock: TEMPAE_clean_linker_10, # of connection points: 2
#     Edge 49, Type (0, 1), BuildingBlock: TEMPAE_clean_linker_10, # of connection points: 2
#     Edge 50, Type (0, 1), BuildingBlock: TEMPAE_clean_linker_10, # of connection points: 2
#     Edge 51, Type (0, 1), BuildingBlock: TEMPAE_clean_linker_10, # of connection points: 2
#     Edge 52, Type (0, 1), BuildingBlock: TEMPAE_clean_linker_10, # of connection points: 2
#     Edge 53, Type (0, 1), BuildingBlock: TEMPAE_clean_linker_10, # of connection points: 2
#     Edge 54, Type (0, 1), BuildingBlock: TEMPAE_clean_linker_10, # of connection points: 2
#     Edge 55, Type (0, 1), BuildingBlock: TEMPAE_clean_linker_10, # of connection points: 2
#     Edge 56, Type (0, 1), BuildingBlock: TEMPAE_clean_linker_10, # of connection points: 2
#     Edge 57, Type (0, 1), BuildingBlock: TEMPAE_clean_linker_10, # of connection points: 2
#     Edge 58, Type (0, 1), BuildingBlock: TEMPAE_clean_linker_10, # of connection points: 2
#     Edge 59, Type (0, 1), BuildingBlock: TEMPAE_clean_linker_10, # of connection points: 2
#     Edge 60, Type (0, 1), BuildingBlock: TEMPAE_clean_linker_10, # of connection points: 2
#     Edge 61, Type (0, 1), BuildingBlock: TEMPAE_clean_linker_10, # of connection points: 2
#     Edge 62, Type (0, 1), BuildingBlock: TEMPAE_clean_linker_10, # of connection points: 2
#     Edge 63, Type (0, 1), BuildingBlock: TEMPAE_clean_linker_10, # of connection points: 2
#     Edge 64, Type (0, 1), BuildingBlock: TEMPAE_clean_linker_10, # of connection points: 2
#     Edge 65, Type (0, 1), BuildingBlock: TEMPAE_clean_linker_10, # of connection points: 2
#     Edge 66, Type (0, 1), BuildingBlock: TEMPAE_clean_linker_10, # of connection points: 2
#     Edge 67, Type (0, 1), BuildingBlock: TEMPAE_clean_linker_10, # of connection points: 2
#     Edge 68, Type (0, 1), BuildingBlock: TEMPAE_clean_linker_10, # of connection points: 2
#     Edge 69, Type (0, 1), BuildingBlock: TEMPAE_clean_linker_10, # of connection points: 2
#     Edge 70, Type (0, 1), BuildingBlock: TEMPAE_clean_linker_10, # of connection points: 2
#     Edge 71, Type (0, 1), BuildingBlock: TEMPAE_clean_linker_10, # of connection points: 2
#     Edge 72, Type (0, 1), BuildingBlock: TEMPAE_clean_linker_10, # of connection points: 2
#     Edge 73, Type (0, 1), BuildingBlock: TEMPAE_clean_linker_10, # of connection points: 2
#     Edge 74, Type (0, 1), BuildingBlock: TEMPAE_clean_linker_10, # of connection points: 2
#     Edge 75, Type (0, 1), BuildingBlock: TEMPAE_clean_linker_10, # of connection points: 2
#     Edge 76, Type (0, 1), BuildingBlock: TEMPAE_clean_linker_10, # of connection points: 2
#     Edge 77, Type (0, 1), BuildingBlock: TEMPAE_clean_linker_10, # of connection points: 2
#     Edge 78, Type (0, 1), BuildingBlock: TEMPAE_clean_linker_10, # of connection points: 2
#     Edge 79, Type (0, 1), BuildingBlock: TEMPAE_clean_linker_10, # of connection points: 2
#     Edge 80, Type (0, 1), BuildingBlock: TEMPAE_clean_linker_10, # of connection points: 2
# Relax obj value: 0.035
# Max RMSD: 0.135
# Mean RMSD: 0.074
data_MOF--net-eea--node1-CUWYAW_clean_sbu_0--node2-VETTIZ_charged_linker_0--edge1-TEMPAE_clean_linker_10
_symmetry_space_group_name_H-M    P1
_symmetry_Int_Tables_number       1
_symmetry_cell_setting            triclinic
loop_
_symmetry_equiv_pos_as_xyz
'x, y, z'
_cell_length_a     62.547597
_cell_length_b     62.282173
_cell_length_c     91.342587
_cell_angle_alpha  93.472906
_cell_angle_beta   93.377589
_cell_angle_gamma 119.84273
loop_
_atom_site_label
_atom_site_type_symbol
_atom_site_fract_x
_atom_site_fract_y
_atom_site_fract_z
_atom_type_partial_charge
C0 C 0.23425 0.18252 0.38613 0.0
C1 C 0.23837 0.20499 0.39346 0.0
C2 C 0.24797 0.21108 0.40844 0.0
C3 C 0.24755 0.17197 0.4087 0.0
C4 C 0.239 0.16642 0.3939 0.0
C5 C 0.23508 0.14162 0.38777 0.0
H6 H 0.22344 0.03112 0.40082 0.0
C7 C 0.24887 0.15052 0.41374 0.0
C8 C 0.24162 0.1327 0.40151 0.0
H9 H 0.2187 0.05715 0.35846 0.0
H10 H 0.2289 0.0969 0.37061 0.0
H11 H 0.27415 0.07866 0.41155 0.0
H12 H 0.19956 0.05733 0.41964 0.0
H13 H 0.21817 0.07009 0.43656 0.0
H14 H 0.21594 0.04283 0.42694 0.0
H15 H 0.25883 0.05821 0.4252 0.0
H16 H 0.27639 0.0916 0.42954 0.0
C17 C 0.25343 0.14603 0.37604 0.0
C18 C 0.20745 0.12491 0.38179 0.0
C19 C 0.27241 0.14979 0.46791 0.0
C20 C 0.27341 0.13162 0.47588 0.0
C21 C 0.26678 0.10836 0.46839 0.0
C22 C 0.25953 0.10333 0.45323 0.0
C23 C 0.25874 0.12167 0.44541 0.0
C24 C 0.26503 0.14441 0.45273 0.0
C25 C 0.2625 0.16136 0.44258 0.0
C26 C 0.25431 0.14522 0.42792 0.0
C27 C 0.25209 0.12201 0.42971 0.0
C28 C 0.28827 0.18493 0.44257 0.0
C29 C 0.24216 0.16653 0.44774 0.0
C30 C 0.22484 0.0453 0.39401 0.0
C31 C 0.21969 0.04043 0.37856 0.0
C32 C 0.22169 0.0598 0.37037 0.0
C33 C 0.22792 0.08309 0.37743 0.0
C34 C 0.23261 0.08735 0.39286 0.0
C35 C 0.23171 0.06885 0.40082 0.0
C36 C 0.23948 0.07739 0.41696 0.0
C37 C 0.24455 0.10391 0.41741 0.0
C38 C 0.23994 0.10946 0.40333 0.0
C39 C 0.26333 0.07632 0.42116 0.0
C40 C 0.2173 0.06106 0.42559 0.0
H41 H 0.25968 0.2003 0.42748 0.0
H42 H 0.22673 0.17712 0.37467 0.0
H43 H 0.19531 0.126 0.38988 0.0
H44 H 0.2017 0.10506 0.37981 0.0
H45 H 0.20332 0.13094 0.37131 0.0
H46 H 0.26995 0.16506 0.37793 0.0
H47 H 0.24454 0.14389 0.36474 0.0
H48 H 0.26109 0.1334 0.37645 0.0
H49 H 0.27745 0.16788 0.47332 0.0
H50 H 0.26687 0.09383 0.4743 0.0
H51 H 0.25464 0.08524 0.44823 0.0
H52 H 0.30314 0.18004 0.44298 0.0
H53 H 0.29229 0.19846 0.4523 0.0
H54 H 0.2902 0.19431 0.43245 0.0
H55 H 0.22731 0.14998 0.45225 0.0
H56 H 0.23242 0.17031 0.43869 0.0
H57 H 0.24999 0.18232 0.45656 0.0
H58 H 0.25182 0.22847 0.41429 0.0
C59 C 0.2526 0.19472 0.41608 0.0
C60 C 0.96307 0.17828 0.39772 0.0
C61 C 0.98119 0.2013 0.40513 0.0
C62 C 0.97744 0.2085 0.41926 0.0
C63 C 0.93831 0.16968 0.41843 0.0
C64 C 0.94191 0.16294 0.40449 0.0
C65 C 0.92093 0.13809 0.39789 0.0
H66 H 0.81049 0.03582 0.40381 0.0
C67 C 0.91438 0.14929 0.42226 0.0
C68 C 0.90413 0.13083 0.41018 0.0
H69 H 0.8553 0.05211 0.36725 0.0
H70 H 0.88563 0.09163 0.38024 0.0
H71 H 0.85463 0.05349 0.4284 0.0
H72 H 0.81822 0.09059 0.41056 0.0
H73 H 0.82367 0.09889 0.4297 0.0
H74 H 0.80426 0.06661 0.42262 0.0
H75 H 0.82505 0.04754 0.43348 0.0
H76 H 0.85366 0.07198 0.4433 0.0
C77 C 0.93132 0.12034 0.39522 0.0
C78 C 0.90876 0.14209 0.38382 0.0
C79 C 0.88457 0.15301 0.47275 0.0
C80 C 0.86323 0.13635 0.47917 0.0
C81 C 0.84544 0.11404 0.47077 0.0
C82 C 0.8487 0.10834 0.45634 0.0
C83 C 0.87007 0.12501 0.45011 0.0
C84 C 0.88757 0.14698 0.45822 0.0
C85 C 0.90905 0.16233 0.44959 0.0
C86 C 0.90163 0.14573 0.43511 0.0
C87 C 0.87875 0.12391 0.43555 0.0
C88 C 0.9329 0.16547 0.45786 0.0
C89 C 0.90975 0.18715 0.44752 0.0
C90 C 0.8269 0.04781 0.39862 0.0
C91 C 0.83039 0.04075 0.38444 0.0
C92 C 0.85191 0.05717 0.37806 0.0
C93 C 0.86964 0.08009 0.38568 0.0
C94 C 0.86595 0.08675 0.3999 0.0
C95 C 0.84484 0.07072 0.40611 0.0
C96 C 0.84418 0.0807 0.42138 0.0
C97 C 0.86835 0.10542 0.42329 0.0
C98 C 0.88099 0.10887 0.41068 0.0
C99 C 0.8442 0.06254 0.43228 0.0
C100 C 0.82135 0.08429 0.42121 0.0
H101 H 0.95441 0.1992 0.43676 0.0
H102 H 0.96515 0.1724 0.38675 0.0
H103 H 0.90916 0.16017 0.38519 0.0
H104 H 0.88894 0.12798 0.38133 0.0
H105 H 0.91866 0.14225 0.37409 0.0
H106 H 0.94624 0.12425 0.40402 0.0
H107 H 0.93933 0.12258 0.3845 0.0
H108 H 0.91733 0.10057 0.3956 0.0
H109 H 0.89853 0.17038 0.47885 0.0
H110 H 0.82909 0.10063 0.47548 0.0
H111 H 0.83447 0.09101 0.45065 0.0
H112 H 0.92929 0.14772 0.46211 0.0
H113 H 0.93972 0.17992 0.46742 0.0
H114 H 0.94797 0.17027 0.45074 0.0
H115 H 0.89066 0.18418 0.44586 0.0
H116 H 0.91849 0.19548 0.43762 0.0
H117 H 0.91956 0.20088 0.45735 0.0
H118 H 0.99118 0.22613 0.42521 0.0
C119 C 0.95614 0.19279 0.42596 0.0
C120 C 0.96317 0.78592 0.40284 0.0
C121 C 0.98183 0.78165 0.40877 0.0
C122 C 0.98004 0.77314 0.42287 0.0
C123 C 0.94188 0.77394 0.42493 0.0
C124 C 0.94354 0.78199 0.41104 0.0
C125 C 0.92242 0.78586 0.40624 0.0
H126 H 0.81665 0.78367 0.42095 0.0
C127 C 0.91931 0.77207 0.43053 0.0
C128 C 0.90787 0.77904 0.41957 0.0
H129 H 0.85364 0.80296 0.38125 0.0
H130 H 0.88564 0.79587 0.39175 0.0
H131 H 0.82307 0.73649 0.42489 0.0
H132 H 0.86435 0.81292 0.44317 0.0
H133 H 0.86542 0.79568 0.45738 0.0
H134 H 0.83587 0.79089 0.44978 0.0
H135 H 0.81232 0.74932 0.4388 0.0
H136 H 0.83162 0.7363 0.4435 0.0
C137 C 0.90763 0.7675 0.39237 0.0
C138 C 0.93323 0.81369 0.4039 0.0
C139 C 0.8961 0.74538 0.48182 0.0
C140 C 0.87653 0.74299 0.48979 0.0
C141 C 0.85873 0.74791 0.48314 0.0
C142 C 0.86037 0.75528 0.46892 0.0
C143 C 0.88005 0.75783 0.46113 0.0
C144 C 0.89756 0.75297 0.46753 0.0
C145 C 0.91732 0.75714 0.45748 0.0
C146 C 0.90863 0.76521 0.44405 0.0
C147 C 0.88675 0.76546 0.44632 0.0
C148 C 0.9164 0.73207 0.45389 0.0
C149 C 0.9425 0.77821 0.46515 0.0
C150 C 0.83153 0.78618 0.41446 0.0
C151 C 0.83257 0.79387 0.40024 0.0
C152 C 0.85253 0.79731 0.3923 0.0
C153 C 0.87103 0.79302 0.39838 0.0
C154 C 0.86964 0.78523 0.4126 0.0
C155 C 0.85012 0.78198 0.42037 0.0
C156 C 0.85161 0.77371 0.43531 0.0
C157 C 0.87518 0.77237 0.43522 0.0
C158 C 0.88567 0.77912 0.42191 0.0
C159 C 0.82845 0.74769 0.43582 0.0
C160 C 0.85428 0.79414 0.44711 0.0
H161 H 0.95999 0.76296 0.44166 0.0
H162 H 0.9637 0.79205 0.39195 0.0
H163 H 0.94931 0.82577 0.41218 0.0
H164 H 0.91996 0.82024 0.40539 0.0
H165 H 0.93976 0.81741 0.39278 0.0
H166 H 0.90733 0.74957 0.393 0.0
H167 H 0.91604 0.77527 0.38219 0.0
H168 H 0.88791 0.7623 0.39117 0.0
H169 H 0.9101 0.7418 0.48666 0.0
H170 H 0.84323 0.74576 0.48891 0.0
H171 H 0.84616 0.75867 0.46457 0.0
H172 H 0.8969 0.71642 0.45225 0.0
H173 H 0.92621 0.7283 0.46302 0.0
H174 H 0.92429 0.73119 0.44353 0.0
H175 H 0.94026 0.79301 0.47106 0.0
H176 H 0.9562 0.7878 0.45732 0.0
H177 H 0.95047 0.77099 0.47337 0.0
H178 H 0.99424 0.76988 0.42776 0.0
C179 C 0.96021 0.76928 0.43097 0.0
C180 C 0.16063 0.21182 0.59964 0.0
C181 C 0.18297 0.21624 0.59427 0.0
C182 C 0.18825 0.22516 0.58034 0.0
C183 C 0.14951 0.22524 0.57748 0.0
C184 C 0.14426 0.21642 0.59109 0.0
C185 C 0.11974 0.21271 0.59514 0.0
H186 H 0.01623 0.21897 0.57782 0.0
C187 C 0.12871 0.22807 0.57142 0.0
C188 C 0.11116 0.22074 0.58169 0.0
H189 H 0.03642 0.19507 0.61718 0.0
H190 H 0.07435 0.20243 0.60778 0.0
H191 H 0.07176 0.26646 0.57561 0.0
H192 H 0.03403 0.19091 0.55493 0.0
H193 H 0.04984 0.21084 0.54166 0.0
H194 H 0.02545 0.21321 0.54984 0.0
H195 H 0.04569 0.25483 0.5619 0.0
H196 H 0.07676 0.26697 0.55684 0.0
C197 C 0.12467 0.2303 0.60925 0.0
C198 C 0.10258 0.18469 0.59672 0.0
C199 C 0.13216 0.2605 0.52153 0.0
C200 C 0.11604 0.26526 0.5128 0.0
C201 C 0.09337 0.26034 0.51797 0.0
C202 C 0.08708 0.25113 0.5317 0.0
C203 C 0.10357 0.24668 0.54035 0.0
C204 C 0.12563 0.2513 0.53514 0.0
C205 C 0.14088 0.24531 0.54561 0.0
C206 C 0.12446 0.23641 0.55803 0.0
C207 C 0.10263 0.23727 0.55496 0.0
C208 C 0.16564 0.2697 0.55059 0.0
C209 C 0.14377 0.22422 0.53778 0.0
C210 C 0.02892 0.21548 0.58443 0.0
C211 C 0.02318 0.20626 0.59824 0.0
C212 C 0.04014 0.20176 0.60642 0.0
C213 C 0.06229 0.2062 0.60098 0.0
C214 C 0.06773 0.2153 0.58717 0.0
C215 C 0.05121 0.21979 0.57912 0.0
C216 C 0.06018 0.22932 0.56462 0.0
C217 C 0.0848 0.22985 0.56536 0.0
C218 C 0.08909 0.22163 0.57863 0.0
C219 C 0.06369 0.25573 0.56458 0.0
C220 C 0.04143 0.21028 0.55202 0.0
H221 H 0.17685 0.23641 0.56145 0.0
H222 H 0.15609 0.20519 0.61035 0.0
H223 H 0.10607 0.17292 0.58867 0.0
H224 H 0.08272 0.17844 0.59428 0.0
H225 H 0.10574 0.18018 0.60794 0.0
H226 H 0.14232 0.24821 0.60921 0.0
H227 H 0.12616 0.22179 0.61932 0.0
H228 H 0.11039 0.23567 0.61018 0.0
H229 H 0.14951 0.26361 0.51779 0.0
H230 H 0.08066 0.26396 0.51148 0.0
H231 H 0.06965 0.24791 0.53507 0.0
H232 H 0.16272 0.28592 0.55171 0.0
H233 H 0.17931 0.27345 0.54246 0.0
H234 H 0.174 0.26968 0.56157 0.0
H235 H 0.12706 0.21143 0.53009 0.0
H236 H 0.14554 0.21208 0.54551 0.0
H237 H 0.15996 0.23189 0.53125 0.0
H238 H 0.20511 0.22837 0.57583 0.0
C239 C 0.1717 0.22968 0.57195 0.0
C240 C 0.77398 0.81664 0.61533 0.0
C241 C 0.7774 0.79846 0.6076 0.0
C242 C 0.77285 0.79497 0.59206 0.0
C243 C 0.76303 0.82806 0.59235 0.0
C244 C 0.76745 0.83151 0.60753 0.0
C245 C 0.76626 0.8536 0.61405 0.0
H246 H 0.76559 0.95907 0.60257 0.0
C247 C 0.75799 0.84751 0.5876 0.0
C248 C 0.76023 0.86278 0.60026 0.0
H249 H 0.77132 0.93229 0.6445 0.0
H250 H 0.76447 0.89403 0.63182 0.0
H251 H 0.79378 0.93887 0.58347 0.0
H252 H 0.71753 0.90925 0.59085 0.0
H253 H 0.71656 0.89519 0.57338 0.0
H254 H 0.73044 0.92862 0.57637 0.0
H255 H 0.77472 0.95129 0.5773 0.0
H256 H 0.77556 0.92687 0.5663 0.0
C257 C 0.79217 0.87256 0.62201 0.0
C258 C 0.745 0.84437 0.62416 0.0
C259 C 0.73525 0.8487 0.53335 0.0
C260 C 0.72957 0.86463 0.52589 0.0
C261 C 0.7309 0.88537 0.53391 0.0
C262 C 0.73756 0.89013 0.54912 0.0
C263 C 0.74295 0.87398 0.55647 0.0
C264 C 0.74171 0.85363 0.54864 0.0
C265 C 0.74806 0.83856 0.55843 0.0
C266 C 0.75231 0.85276 0.57346 0.0
C267 C 0.74962 0.87362 0.57215 0.0
C268 C 0.77204 0.8397 0.55378 0.0
C269 C 0.72538 0.81194 0.55738 0.0
C270 C 0.76508 0.94502 0.60918 0.0
C271 C 0.76983 0.9494 0.62466 0.0
C272 C 0.76879 0.93013 0.63257 0.0
C273 C 0.76464 0.90776 0.62519 0.0
C274 C 0.76122 0.90437 0.60972 0.0
C275 C 0.76041 0.9224 0.60204 0.0
C276 C 0.75411 0.91465 0.58575 0.0
C277 C 0.75309 0.88975 0.58483 0.0
C278 C 0.75769 0.884 0.59885 0.0
C279 C 0.77552 0.93391 0.57767 0.0
C280 C 0.72845 0.91188 0.58125 0.0
H281 H 0.7625 0.80603 0.57264 0.0
H282 H 0.77675 0.8197 0.62724 0.0
H283 H 0.7295 0.82556 0.61982 0.0
H284 H 0.73654 0.85628 0.62474 0.0
H285 H 0.75154 0.84315 0.63549 0.0
H286 H 0.80704 0.8739 0.61534 0.0
H287 H 0.79504 0.8668 0.63289 0.0
H288 H 0.79547 0.89166 0.62369 0.0
H289 H 0.73437 0.83261 0.52746 0.0
H290 H 0.72705 0.89816 0.52836 0.0
H291 H 0.73844 0.90633 0.55454 0.0
H292 H 0.78343 0.85668 0.54825 0.0
H293 H 0.76769 0.82335 0.54597 0.0
H294 H 0.78448 0.84095 0.56333 0.0
H295 H 0.70804 0.81263 0.55812 0.0
H296 H 0.72623 0.80131 0.5664 0.0
H297 H 0.72349 0.80128 0.54671 0.0
H298 H 0.77566 0.78152 0.58569 0.0
C299 C 0.76548 0.80948 0.58444 0.0
C300 C 0.04446 0.82195 0.60539 0.0
C301 C 0.0244 0.80038 0.59771 0.0
C302 C 0.0254 0.79479 0.58263 0.0
C303 C 0.06527 0.83266 0.58308 0.0
C304 C 0.06441 0.8378 0.59791 0.0
C305 C 0.08643 0.86201 0.60446 0.0
H306 H 0.18626 0.97122 0.59411 0.0
C307 C 0.08807 0.85368 0.57854 0.0
C308 C 0.10038 0.87098 0.59104 0.0
H309 H 0.15796 0.94442 0.63547 0.0
H310 H 0.12688 0.90543 0.62254 0.0
H311 H 0.18751 0.92367 0.58427 0.0
H312 H 0.13488 0.94661 0.57314 0.0
H313 H 0.14007 0.93433 0.55672 0.0
H314 H 0.16564 0.9608 0.56752 0.0
H315 H 0.1914 0.94283 0.56965 0.0
H316 H 0.17444 0.90926 0.5664 0.0
C317 C 0.10122 0.85646 0.61638 0.0
C318 C 0.0769 0.87927 0.61028 0.0
C319 C 0.11075 0.85351 0.52571 0.0
C320 C 0.13081 0.87098 0.51869 0.0
C321 C 0.14787 0.8941 0.52659 0.0
C322 C 0.14559 0.89953 0.54128 0.0
C323 C 0.126 0.88172 0.54828 0.0
C324 C 0.10878 0.85925 0.54052 0.0
C325 C 0.08902 0.84291 0.54993 0.0
C326 C 0.098 0.85887 0.56471 0.0
C327 C 0.11959 0.88162 0.56356 0.0
C328 C 0.0895 0.81842 0.55071 0.0
C329 C 0.06391 0.83926 0.54331 0.0
C330 C 0.17364 0.95703 0.60053 0.0
C331 C 0.17449 0.96158 0.61593 0.0
C332 C 0.15741 0.94214 0.62359 0.0
C333 C 0.13942 0.91925 0.61607 0.0
C334 C 0.13856 0.91537 0.6007 0.0
C335 C 0.15599 0.93381 0.59327 0.0
C336 C 0.15389 0.92546 0.57719 0.0
C337 C 0.1316 0.89933 0.57611 0.0
C338 C 0.12241 0.89375 0.58984 0.0
C339 C 0.17802 0.92539 0.57409 0.0
C340 C 0.14848 0.9427 0.56806 0.0
H341 H 0.04534 0.80564 0.56382 0.0
H342 H 0.04461 0.82657 0.61703 0.0
H343 H 0.0625 0.87845 0.60213 0.0
H344 H 0.09141 0.89904 0.61215 0.0
H345 H 0.06846 0.87353 0.62075 0.0
H346 H 0.09822 0.83733 0.61419 0.0
H347 H 0.09558 0.85801 0.62752 0.0
H348 H 0.12149 0.86883 0.61657 0.0
H349 H 0.09727 0.83562 0.51992 0.0
H350 H 0.1631 0.90813 0.52137 0.0
H351 H 0.15926 0.91743 0.54661 0.0
H352 H 0.10892 0.82234 0.55245 0.0
H353 H 0.08068 0.80593 0.54031 0.0
H354 H 0.08024 0.8082 0.56 0.0
H355 H 0.06649 0.85619 0.53837 0.0
H356 H 0.05095 0.83631 0.55169 0.0
H357 H 0.0549 0.82344 0.5345 0.0
H358 H 0.01019 0.77836 0.57641 0.0
C359 C 0.04573 0.81078 0.5753 0.0
C360 C 0.89953 0.51401 0.71754 0.0
C361 C 0.90223 0.53601 0.72469 0.0
C362 C 0.91093 0.54221 0.73982 0.0
C363 C 0.9123 0.50405 0.74053 0.0
C364 C 0.90476 0.49849 0.72559 0.0
C365 C 0.90255 0.47437 0.71961 0.0
H366 H 0.89407 0.36556 0.73316 0.0
C367 C 0.91453 0.48322 0.7458 0.0
C368 C 0.90899 0.46585 0.73356 0.0
H369 H 0.89134 0.39202 0.69065 0.0
H370 H 0.90018 0.43134 0.70273 0.0
H371 H 0.94372 0.41339 0.74476 0.0
H372 H 0.86826 0.39064 0.75131 0.0
H373 H 0.88611 0.40257 0.76855 0.0
H374 H 0.88468 0.37608 0.75848 0.0
H375 H 0.92845 0.39373 0.75874 0.0
H376 H 0.94513 0.42726 0.76236 0.0
C377 C 0.92193 0.48004 0.70839 0.0
C378 C 0.8754 0.45662 0.71304 0.0
C379 C 0.93338 0.48163 0.8006 0.0
C380 C 0.93495 0.46384 0.80868 0.0
C381 C 0.93106 0.44159 0.80109 0.0
C382 C 0.92545 0.43696 0.78579 0.0
C383 C 0.92372 0.45475 0.77789 0.0
C384 C 0.92777 0.4767 0.78525 0.0
C385 C 0.92513 0.49337 0.77491 0.0
C386 C 0.9193 0.47794 0.76015 0.0
C387 C 0.91832 0.45529 0.76204 0.0
C388 C 0.95025 0.51801 0.77585 0.0
C389 C 0.90315 0.49658 0.77907 0.0
C390 C 0.89565 0.37975 0.72631 0.0
C391 C 0.89128 0.37504 0.71082 0.0
C392 C 0.89361 0.39447 0.70258 0.0
C393 C 0.89904 0.41752 0.7096 0.0
C394 C 0.9026 0.4215 0.72505 0.0
C395 C 0.90174 0.40309 0.7331 0.0
C396 C 0.90837 0.41145 0.74932 0.0
C397 C 0.91246 0.43763 0.74971 0.0
C398 C 0.90848 0.44318 0.73551 0.0
C399 C 0.93255 0.41136 0.75417 0.0
C400 C 0.88584 0.3943 0.75746 0.0
H401 H 0.92228 0.532 0.75926 0.0
H402 H 0.89278 0.5085 0.70597 0.0
H403 H 0.86234 0.45663 0.72079 0.0
H404 H 0.87077 0.43709 0.71098 0.0
H405 H 0.87139 0.46253 0.70248 0.0
H406 H 0.93755 0.4996 0.71038 0.0
H407 H 0.91348 0.47723 0.69689 0.0
H408 H 0.93085 0.46857 0.70931 0.0
H409 H 0.93615 0.49886 0.8061 0.0
H410 H 0.93265 0.42779 0.807 0.0
H411 H 0.92262 0.41964 0.78073 0.0
H412 H 0.966 0.51453 0.7775 0.0
H413 H 0.95207 0.53121 0.78524 0.0
H414 H 0.95311 0.52721 0.7656 0.0
H415 H 0.88785 0.47885 0.78223 0.0
H416 H 0.89467 0.5014 0.76987 0.0
H417 H 0.90897 0.51097 0.78858 0.0
H418 H 0.91378 0.5593 0.74556 0.0
C419 C 0.91596 0.52637 0.74776 0.0
C420 C 0.62857 0.51325 0.73177 0.0
C421 C 0.64705 0.53594 0.73937 0.0
C422 C 0.6435 0.54292 0.75361 0.0
C423 C 0.60387 0.50461 0.7525 0.0
C424 C 0.60728 0.49802 0.73847 0.0
C425 C 0.586 0.47341 0.73176 0.0
H426 H 0.47506 0.37173 0.7379 0.0
C427 C 0.57976 0.48444 0.75625 0.0
C428 C 0.56921 0.4662 0.74406 0.0
H429 H 0.5192 0.3875 0.70106 0.0
H430 H 0.54985 0.42712 0.71391 0.0
H431 H 0.51929 0.38919 0.76224 0.0
H432 H 0.48294 0.42636 0.74448 0.0
H433 H 0.48913 0.4355 0.76353 0.0
H434 H 0.46927 0.40302 0.75695 0.0
H435 H 0.48967 0.38324 0.76725 0.0
H436 H 0.51823 0.40753 0.77719 0.0
C437 C 0.59591 0.45532 0.72887 0.0
C438 C 0.57403 0.4779 0.71781 0.0
C439 C 0.55044 0.48802 0.80691 0.0
C440 C 0.52895 0.47153 0.81326 0.0
C441 C 0.51078 0.44958 0.80473 0.0
C442 C 0.51384 0.44405 0.79023 0.0
C443 C 0.5354 0.46049 0.78407 0.0
C444 C 0.55323 0.48215 0.7923 0.0
C445 C 0.57484 0.49733 0.78371 0.0
C446 C 0.56709 0.48095 0.76913 0.0
C447 C 0.54398 0.45941 0.76949 0.0
C448 C 0.59844 0.49973 0.79189 0.0
C449 C 0.57617 0.5225 0.78189 0.0
C450 C 0.49138 0.38363 0.73261 0.0
C451 C 0.49467 0.37638 0.71843 0.0
C452 C 0.51604 0.3927 0.7119 0.0
C453 C 0.53393 0.41565 0.71944 0.0
C454 C 0.53053 0.42242 0.73371 0.0
C455 C 0.50946 0.40653 0.74 0.0
C456 C 0.509 0.41654 0.75529 0.0
C457 C 0.53332 0.44108 0.75716 0.0
C458 C 0.54585 0.44445 0.74452 0.0
C459 C 0.50886 0.39824 0.76614 0.0
C460 C 0.48637 0.42046 0.75521 0.0
H461 H 0.62049 0.53362 0.7711 0.0
H462 H 0.63049 0.50752 0.72072 0.0
H463 H 0.57449 0.49599 0.71942 0.0
H464 H 0.55421 0.46386 0.71518 0.0
H465 H 0.58404 0.47837 0.70808 0.0
H466 H 0.61067 0.45873 0.73767 0.0
H467 H 0.604 0.45771 0.71817 0.0
H468 H 0.58164 0.4356 0.72906 0.0
H469 H 0.56469 0.50511 0.81313 0.0
H470 H 0.4943 0.4363 0.80939 0.0
H471 H 0.49934 0.42697 0.78445 0.0
H472 H 0.59434 0.48181 0.7961 0.0
H473 H 0.60567 0.51419 0.80147 0.0
H474 H 0.61335 0.50408 0.78471 0.0
H475 H 0.55726 0.52001 0.78032 0.0
H476 H 0.58499 0.5309 0.77203 0.0
H477 H 0.58621 0.53599 0.79179 0.0
H478 H 0.65751 0.56025 0.75972 0.0
C479 C 0.62205 0.52737 0.76022 0.0
C480 C 0.62927 0.12196 0.73623 0.0
C481 C 0.64828 0.11824 0.74224 0.0
C482 C 0.64684 0.11026 0.75648 0.0
C483 C 0.60822 0.11014 0.7584 0.0
C484 C 0.60968 0.11799 0.74447 0.0
C485 C 0.58848 0.12178 0.73972 0.0
H486 H 0.4825 0.11888 0.75481 0.0
C487 C 0.58554 0.10797 0.764 0.0
C488 C 0.57401 0.11492 0.75308 0.0
H489 H 0.51946 0.13911 0.71515 0.0
H490 H 0.55162 0.13208 0.72546 0.0
H491 H 0.48847 0.07192 0.75785 0.0
H492 H 0.53056 0.14759 0.77737 0.0
H493 H 0.53019 0.12927 0.7913 0.0
H494 H 0.50135 0.12554 0.78322 0.0
H495 H 0.47827 0.0838 0.77258 0.0
H496 H 0.49767 0.07045 0.77608 0.0
C497 C 0.57364 0.1034 0.72587 0.0
C498 C 0.59917 0.14959 0.73737 0.0
C499 C 0.5606 0.0773 0.81429 0.0
C500 C 0.54008 0.07309 0.82188 0.0
C501 C 0.52266 0.07879 0.81552 0.0
C502 C 0.5252 0.08797 0.80178 0.0
C503 C 0.54541 0.0916 0.79418 0.0
C504 C 0.56283 0.08648 0.80044 0.0
C505 C 0.58309 0.09172 0.79059 0.0
C506 C 0.57467 0.10051 0.7774 0.0
C507 C 0.55259 0.10035 0.77965 0.0
C508 C 0.58269 0.06706 0.78645 0.0
C509 C 0.60791 0.11263 0.79876 0.0
C510 C 0.49742 0.12164 0.74829 0.0
C511 C 0.49839 0.12956 0.73414 0.0
C512 C 0.5184 0.1333 0.72615 0.0
C513 C 0.53699 0.12905 0.73212 0.0
C514 C 0.53563 0.12097 0.74626 0.0
C515 C 0.51606 0.11743 0.75406 0.0
C516 C 0.51739 0.1086 0.76884 0.0
C517 C 0.54106 0.10749 0.76867 0.0
C518 C 0.55168 0.11473 0.75545 0.0
C519 C 0.49425 0.08243 0.76901 0.0
C520 C 0.51982 0.12856 0.78089 0.0
H521 H 0.62698 0.10021 0.77533 0.0
H522 H 0.62948 0.12772 0.72527 0.0
H523 H 0.61551 0.16172 0.74548 0.0
H524 H 0.58598 0.15617 0.73913 0.0
H525 H 0.60528 0.15325 0.72616 0.0
H526 H 0.57295 0.0853 0.72666 0.0
H527 H 0.58232 0.11093 0.71572 0.0
H528 H 0.55406 0.09861 0.72452 0.0
H529 H 0.5743 0.07312 0.8189 0.0
H530 H 0.50702 0.07627 0.82125 0.0
H531 H 0.5112 0.0918 0.79761 0.0
H532 H 0.56329 0.05134 0.78409 0.0
H533 H 0.59182 0.06258 0.79561 0.0
H534 H 0.59159 0.06724 0.77635 0.0
H535 H 0.60509 0.12647 0.80536 0.0
H536 H 0.62155 0.12354 0.79118 0.0
H537 H 0.61621 0.10496 0.80643 0.0
H538 H 0.66133 0.10754 0.7615 0.0
C539 C 0.62695 0.10617 0.76456 0.0
C540 C 0.82655 0.54011 0.93001 0.0
C541 C 0.84904 0.54555 0.92443 0.0
C542 C 0.85432 0.55605 0.91093 0.0
C543 C 0.81557 0.5562 0.90907 0.0
C544 C 0.81018 0.54559 0.92219 0.0
C545 C 0.78563 0.54124 0.92662 0.0
H546 H 0.68851 0.56001 0.91604 0.0
C547 C 0.79505 0.56013 0.9039 0.0
C548 C 0.77742 0.55143 0.91411 0.0
H549 H 0.70159 0.51947 0.94901 0.0
H550 H 0.7384 0.52638 0.93853 0.0
H551 H 0.74604 0.60353 0.91357 0.0
H552 H 0.69874 0.53097 0.88992 0.0
H553 H 0.71736 0.55047 0.87731 0.0
H554 H 0.69585 0.55731 0.8859 0.0
H555 H 0.71835 0.59551 0.90197 0.0
H556 H 0.74737 0.60561 0.8944 0.0
C557 C 0.79049 0.55677 0.9416 0.0
C558 C 0.76813 0.51284 0.92683 0.0
C559 C 0.79955 0.6 0.85658 0.0
C560 C 0.78364 0.60608 0.84872 0.0
C561 C 0.7615 0.60152 0.85449 0.0
C562 C 0.75543 0.59117 0.86795 0.0
C563 C 0.77153 0.58507 0.87563 0.0
C564 C 0.79313 0.58949 0.86986 0.0
C565 C 0.80785 0.58141 0.87922 0.0
C566 C 0.79141 0.57104 0.8915 0.0
C567 C 0.77025 0.57339 0.88947 0.0
C568 C 0.83305 0.60485 0.8849 0.0
C569 C 0.80988 0.56093 0.86993 0.0
C570 C 0.69908 0.55241 0.92102 0.0
C571 C 0.69214 0.5398 0.93379 0.0
C572 C 0.70673 0.5302 0.93964 0.0
C573 C 0.72811 0.53397 0.93342 0.0
C574 C 0.73501 0.54709 0.92098 0.0
C575 C 0.72024 0.55546 0.91471 0.0
C576 C 0.72934 0.56694 0.90066 0.0
C577 C 0.75255 0.56498 0.89994 0.0
C578 C 0.75594 0.55367 0.91203 0.0
C579 C 0.73553 0.59435 0.90262 0.0
C580 C 0.70934 0.55082 0.88772 0.0
H581 H 0.84296 0.56941 0.89307 0.0
H582 H 0.82196 0.53218 0.94039 0.0
H583 H 0.77341 0.50189 0.91933 0.0
H584 H 0.74873 0.50674 0.92276 0.0
H585 H 0.76863 0.50712 0.93807 0.0
H586 H 0.80662 0.57585 0.94153 0.0
H587 H 0.79471 0.54804 0.95074 0.0
H588 H 0.77488 0.55934 0.9442 0.0
H589 H 0.81648 0.60286 0.85232 0.0
H590 H 0.749 0.60614 0.84865 0.0
H591 H 0.73844 0.58829 0.87186 0.0
H592 H 0.83092 0.62145 0.88693 0.0
H593 H 0.84675 0.60912 0.87673 0.0
H594 H 0.84099 0.60322 0.89561 0.0
H595 H 0.79279 0.5492 0.86227 0.0
H596 H 0.81163 0.54767 0.8767 0.0
H597 H 0.82575 0.56921 0.86317 0.0
H598 H 0.87126 0.56003 0.90624 0.0
C599 C 0.83776 0.56138 0.90325 0.0
C600 C 0.4623 0.16289 0.94801 0.0
C601 C 0.46355 0.14347 0.94008 0.0
C602 C 0.45687 0.13914 0.92467 0.0
C603 C 0.44842 0.17321 0.92555 0.0
C604 C 0.45531 0.17771 0.94055 0.0
C605 C 0.45573 0.20058 0.94725 0.0
H606 H 0.44142 0.29975 0.9383 0.0
C607 C 0.44264 0.1924 0.92121 0.0
C608 C 0.44727 0.20869 0.93386 0.0
H609 H 0.4699 0.28294 0.97763 0.0
H610 H 0.46223 0.24436 0.96495 0.0
H611 H 0.47047 0.28584 0.91667 0.0
H612 H 0.39616 0.24349 0.92854 0.0
H613 H 0.39476 0.23596 0.90954 0.0
H614 H 0.405 0.26768 0.91654 0.0
H615 H 0.44614 0.29135 0.91022 0.0
H616 H 0.45165 0.26885 0.9004 0.0
C617 C 0.48278 0.21984 0.95353 0.0
C618 C 0.43676 0.19269 0.95882 0.0
C619 C 0.40966 0.1892 0.86833 0.0
C620 C 0.40278 0.20461 0.86121 0.0
C621 C 0.40458 0.22544 0.86947 0.0
C622 C 0.41296 0.2308 0.88449 0.0
C623 C 0.4199 0.21537 0.89141 0.0
C624 C 0.41815 0.19493 0.88339 0.0
C625 C 0.4268 0.18093 0.89263 0.0
C626 C 0.43363 0.19618 0.90754 0.0
C627 C 0.42961 0.21636 0.9067 0.0
C628 C 0.44969 0.18199 0.88623 0.0
C629 C 0.40472 0.15427 0.89295 0.0
C630 C 0.44617 0.28787 0.94419 0.0
C631 C 0.45644 0.29461 0.959 0.0
C632 C 0.46177 0.2782 0.96628 0.0
C633 C 0.45758 0.25589 0.95884 0.0
C634 C 0.44818 0.24993 0.94389 0.0
C635 C 0.44241 0.26568 0.93687 0.0
C636 C 0.43312 0.25663 0.92089 0.0
C637 C 0.43492 0.23319 0.91939 0.0
C638 C 0.44362 0.22931 0.9329 0.0
C639 C 0.45104 0.27664 0.91145 0.0
C640 C 0.4059 0.25075 0.91861 0.0
H641 H 0.44433 0.14949 0.90572 0.0
H642 H 0.46683 0.16678 0.95984 0.0
H643 H 0.41933 0.1753 0.95454 0.0
H644 H 0.43121 0.20662 0.96154 0.0
H645 H 0.44422 0.18912 0.96915 0.0
H646 H 0.49645 0.2168 0.94785 0.0
H647 H 0.48599 0.21867 0.96548 0.0
H648 H 0.48786 0.23917 0.95182 0.0
H649 H 0.4084 0.17299 0.86236 0.0
H650 H 0.39993 0.23795 0.86425 0.0
H651 H 0.41397 0.24698 0.89008 0.0
H652 H 0.46012 0.19912 0.88062 0.0
H653 H 0.44413 0.16576 0.87801 0.0
H654 H 0.46338 0.18297 0.89486 0.0
H655 H 0.38757 0.15478 0.89486 0.0
H656 H 0.40747 0.14452 0.90191 0.0
H657 H 0.40114 0.14285 0.8823 0.0
H658 H 0.45805 0.12478 0.9181 0.0
C659 C 0.44912 0.15372 0.91742 0.0
C660 C 0.71046 0.15266 0.93758 0.0
C661 C 0.69088 0.13082 0.9298 0.0
C662 C 0.69237 0.12533 0.91481 0.0
C663 C 0.73186 0.16366 0.9155 0.0
C664 C 0.73059 0.16873 0.93026 0.0
C665 C 0.75259 0.19289 0.93696 0.0
H666 H 0.8535 0.30183 0.9271 0.0
C667 C 0.75474 0.18475 0.9111 0.0
C668 C 0.76688 0.20196 0.92366 0.0
H669 H 0.82489 0.27485 0.96836 0.0
H670 H 0.79332 0.23621 0.95527 0.0
H671 H 0.85384 0.25377 0.91694 0.0
H672 H 0.80211 0.27809 0.90622 0.0
H673 H 0.80691 0.26574 0.8897 0.0
H674 H 0.83277 0.29197 0.90048 0.0
H675 H 0.85841 0.27391 0.90278 0.0
H676 H 0.84109 0.24043 0.89886 0.0
C677 C 0.76708 0.18719 0.949 0.0
C678 C 0.7431 0.21022 0.9427 0.0
C679 C 0.77677 0.18556 0.85811 0.0
C680 C 0.7963 0.2034 0.85094 0.0
C681 C 0.81379 0.22622 0.85899 0.0
C682 C 0.81203 0.23122 0.87385 0.0
C683 C 0.79261 0.21324 0.88089 0.0
C684 C 0.77525 0.19092 0.87306 0.0
C685 C 0.75566 0.17435 0.88246 0.0
C686 C 0.76475 0.19009 0.89731 0.0
C687 C 0.78635 0.21286 0.89624 0.0
C688 C 0.75634 0.14992 0.88299 0.0
C689 C 0.73045 0.17069 0.87602 0.0
C690 C 0.84076 0.28768 0.93348 0.0
C691 C 0.84172 0.29209 0.9489 0.0
C692 C 0.82434 0.27271 0.95648 0.0
C693 C 0.80606 0.25001 0.94887 0.0
C694 C 0.80522 0.24624 0.93349 0.0
C695 C 0.82285 0.26464 0.92614 0.0
C696 C 0.82071 0.25647 0.91003 0.0
C697 C 0.79831 0.23042 0.90885 0.0
C698 C 0.78899 0.22474 0.92255 0.0
C699 C 0.84472 0.25623 0.90686 0.0
C700 C 0.8155 0.27398 0.90103 0.0
H701 H 0.71269 0.1365 0.89619 0.0
H702 H 0.71015 0.15718 0.94918 0.0
H703 H 0.72927 0.20992 0.93433 0.0
H704 H 0.75782 0.22986 0.94497 0.0
H705 H 0.73399 0.20411 0.95294 0.0
H706 H 0.76391 0.16799 0.94687 0.0
H707 H 0.76135 0.18887 0.96009 0.0
H708 H 0.78739 0.1994 0.94926 0.0
H709 H 0.7629 0.16795 0.8522 0.0
H710 H 0.8292 0.24013 0.85383 0.0
H711 H 0.82598 0.24892 0.87929 0.0
H712 H 0.77581 0.15388 0.88421 0.0
H713 H 0.74692 0.1373 0.87269 0.0
H714 H 0.74786 0.13984 0.89249 0.0
H715 H 0.7329 0.18773 0.8713 0.0
H716 H 0.7175 0.16741 0.88445 0.0
H717 H 0.72147 0.15508 0.86708 0.0
H718 H 0.6775 0.10868 0.90854 0.0
C719 C 0.71272 0.14161 0.90763 0.0
C720 C 0.54845 0.83949 0.05461 0.0
C721 C 0.54527 0.85798 0.06214 0.0
C722 C 0.54821 0.86067 0.07772 0.0
C723 C 0.55559 0.82598 0.07782 0.0
C724 C 0.55298 0.82345 0.0626 0.0
C725 C 0.55365 0.80098 0.05619 0.0
H726 H 0.54612 0.69148 0.06729 0.0
C727 C 0.55827 0.80522 0.08273 0.0
C728 C 0.55672 0.79024 0.07011 0.0
H729 H 0.55006 0.723 0.02584 0.0
H730 H 0.556 0.76067 0.03881 0.0
H731 H 0.59343 0.74019 0.08236 0.0
H732 H 0.5155 0.71163 0.08391 0.0
H733 H 0.53008 0.72238 0.10206 0.0
H734 H 0.53217 0.69791 0.09193 0.0
H735 H 0.57623 0.71779 0.09469 0.0
H736 H 0.59068 0.75084 0.09997 0.0
C737 C 0.57646 0.80989 0.04734 0.0
C738 C 0.52849 0.78347 0.04695 0.0
C739 C 0.57299 0.79979 0.13738 0.0
C740 C 0.575 0.78192 0.1451 0.0
C741 C 0.57149 0.76005 0.13724 0.0
C742 C 0.56657 0.75623 0.12188 0.0
C743 C 0.56504 0.77442 0.11427 0.0
C744 C 0.56791 0.79561 0.122 0.0
C745 C 0.56471 0.8124 0.11201 0.0
C746 C 0.56103 0.79845 0.09698 0.0
C747 C 0.56114 0.77622 0.09842 0.0
C748 C 0.58888 0.838 0.11391 0.0
C749 C 0.54131 0.8135 0.11563 0.0
C750 C 0.54853 0.70644 0.06089 0.0
C751 C 0.54686 0.70365 0.04537 0.0
C752 C 0.55024 0.72401 0.03772 0.0
C753 C 0.55388 0.74603 0.04527 0.0
C754 C 0.55439 0.74797 0.0607 0.0
C755 C 0.55271 0.72875 0.06826 0.0
C756 C 0.55607 0.73499 0.08469 0.0
C757 C 0.55861 0.76058 0.08571 0.0
C758 C 0.55715 0.76789 0.07163 0.0
C759 C 0.5802 0.73588 0.09086 0.0
C760 C 0.53235 0.71572 0.09111 0.0
H761 H 0.5554 0.84786 0.09736 0.0
H762 H 0.54693 0.83706 0.04269 0.0
H763 H 0.51292 0.78223 0.05287 0.0
H764 H 0.52451 0.76417 0.04488 0.0
H765 H 0.52763 0.7905 0.03617 0.0
H766 H 0.59189 0.82839 0.05222 0.0
H767 H 0.5718 0.81166 0.03572 0.0
H768 H 0.58435 0.79747 0.04752 0.0
H769 H 0.57527 0.8166 0.1432 0.0
H770 H 0.57316 0.74614 0.14296 0.0
H771 H 0.56427 0.7393 0.11653 0.0
H772 H 0.60531 0.83556 0.11364 0.0
H773 H 0.59071 0.84848 0.12464 0.0
H774 H 0.59002 0.84966 0.10503 0.0
H775 H 0.52858 0.79735 0.12139 0.0
H776 H 0.52991 0.81249 0.10557 0.0
H777 H 0.54631 0.83065 0.12287 0.0
H778 H 0.54558 0.8744 0.08393 0.0
C779 C 0.55357 0.84496 0.08556 0.0
C780 C 0.29355 0.84578 0.06296 0.0
C781 C 0.31315 0.86752 0.07085 0.0
C782 C 0.31099 0.87327 0.0857 0.0
C783 C 0.27048 0.83601 0.08444 0.0
C784 C 0.27267 0.83035 0.06994 0.0
C785 C 0.25082 0.80619 0.06315 0.0
H786 H 0.14007 0.70465 0.06986 0.0
C787 C 0.24641 0.81598 0.08833 0.0
C788 C 0.23491 0.79843 0.07586 0.0
H789 H 0.18282 0.72115 0.03235 0.0
H790 H 0.2139 0.76047 0.04526 0.0
H791 H 0.18596 0.72223 0.09395 0.0
H792 H 0.14806 0.75864 0.0772 0.0
H793 H 0.15631 0.76919 0.09603 0.0
H794 H 0.13562 0.73646 0.09043 0.0
H795 H 0.15553 0.71462 0.09832 0.0
H796 H 0.18302 0.73886 0.10915 0.0
C797 C 0.2601 0.78791 0.05902 0.0
C798 C 0.23818 0.81172 0.04998 0.0
C799 C 0.21891 0.81936 0.13956 0.0
C800 C 0.19713 0.80353 0.14588 0.0
C801 C 0.17828 0.7821 0.13728 0.0
C802 C 0.18095 0.77643 0.12271 0.0
C803 C 0.20276 0.79227 0.11655 0.0
C804 C 0.22125 0.81344 0.12486 0.0
C805 C 0.24288 0.82823 0.11621 0.0
C806 C 0.2343 0.81229 0.10143 0.0
C807 C 0.21085 0.7912 0.1018 0.0
C808 C 0.26612 0.82928 0.12397 0.0
C809 C 0.24535 0.85402 0.11493 0.0
C810 C 0.15619 0.71664 0.06444 0.0
C811 C 0.15895 0.70965 0.05005 0.0
C812 C 0.18005 0.72612 0.04335 0.0
C813 C 0.19822 0.7489 0.05093 0.0
C814 C 0.19542 0.75534 0.06542 0.0
C815 C 0.17459 0.73936 0.07189 0.0
C816 C 0.1748 0.74907 0.08739 0.0
C817 C 0.1994 0.77336 0.08926 0.0
C818 C 0.21136 0.77696 0.07637 0.0
C819 C 0.17465 0.73028 0.09784 0.0
C820 C 0.15251 0.75347 0.08794 0.0
H821 H 0.28935 0.86307 0.10381 0.0
H822 H 0.29427 0.84083 0.05151 0.0
H823 H 0.23806 0.82933 0.05264 0.0
H824 H 0.21853 0.79734 0.04718 0.0
H825 H 0.24817 0.81379 0.04002 0.0
H826 H 0.27627 0.79153 0.06672 0.0
H827 H 0.26599 0.78975 0.0477 0.0
H828 H 0.24614 0.76829 0.0599 0.0
H829 H 0.23366 0.83606 0.14585 0.0
H830 H 0.16151 0.7694 0.14193 0.0
H831 H 0.16593 0.75977 0.11685 0.0
H832 H 0.26119 0.81135 0.12845 0.0
H833 H 0.27472 0.84421 0.13331 0.0
H834 H 0.28021 0.83208 0.11641 0.0
H835 H 0.22677 0.85223 0.11307 0.0
H836 H 0.25512 0.86306 0.10546 0.0
H837 H 0.25504 0.86669 0.12518 0.0
H838 H 0.32588 0.88964 0.09216 0.0
C839 C 0.2898 0.8577 0.0925 0.0
C840 C 0.29907 0.46159 0.07119 0.0
C841 C 0.31542 0.45314 0.0755 0.0
C842 C 0.31078 0.43967 0.08799 0.0
C843 C 0.27454 0.44344 0.09141 0.0
C844 C 0.27866 0.4561 0.07903 0.0
C845 C 0.25838 0.46161 0.07488 0.0
H846 H 0.14916 0.4527 0.0885 0.0
C847 C 0.25148 0.44047 0.09686 0.0
C848 C 0.24175 0.45076 0.08704 0.0
H849 H 0.19089 0.48194 0.05134 0.0
H850 H 0.22285 0.47455 0.06156 0.0
H851 H 0.15606 0.40582 0.08881 0.0
H852 H 0.19501 0.4784 0.1129 0.0
H853 H 0.19477 0.45794 0.12534 0.0
H854 H 0.16578 0.45438 0.11762 0.0
H855 H 0.14345 0.41528 0.10333 0.0
H856 H 0.16236 0.40148 0.10702 0.0
C857 C 0.24542 0.44756 0.05949 0.0
C858 C 0.26988 0.49019 0.07565 0.0
C859 C 0.22333 0.4028 0.14512 0.0
C860 C 0.20271 0.39814 0.15272 0.0
C861 C 0.18545 0.40429 0.14666 0.0
C862 C 0.18851 0.41483 0.13333 0.0
C863 C 0.20907 0.41932 0.12583 0.0
C864 C 0.22608 0.41331 0.13168 0.0
C865 C 0.24651 0.41914 0.12188 0.0
C866 C 0.23923 0.43027 0.10947 0.0
C867 C 0.21723 0.43018 0.1119 0.0
C868 C 0.24517 0.39443 0.11637 0.0
C869 C 0.27142 0.43843 0.13069 0.0
C870 C 0.16507 0.45735 0.08247 0.0
C871 C 0.16735 0.4678 0.06903 0.0
C872 C 0.1887 0.47407 0.06177 0.0
C873 C 0.20716 0.46953 0.06765 0.0
C874 C 0.20423 0.45845 0.08091 0.0
C875 C 0.18353 0.45275 0.08812 0.0
C876 C 0.18334 0.44096 0.10201 0.0
C877 C 0.20707 0.43996 0.10178 0.0
C878 C 0.21928 0.45027 0.08944 0.0
C879 C 0.16007 0.41456 0.10037 0.0
C880 C 0.18461 0.45859 0.11521 0.0
H881 H 0.28823 0.4247 0.10536 0.0
H882 H 0.30182 0.47223 0.06185 0.0
H883 H 0.28348 0.49951 0.08559 0.0
H884 H 0.25606 0.49615 0.07664 0.0
H885 H 0.27978 0.49755 0.06581 0.0
H886 H 0.24646 0.4303 0.05755 0.0
H887 H 0.25422 0.45931 0.05053 0.0
H888 H 0.22537 0.44102 0.05831 0.0
H889 H 0.2368 0.39808 0.14945 0.0
H890 H 0.16964 0.40125 0.15239 0.0
H891 H 0.1747 0.41908 0.12941 0.0
H892 H 0.22584 0.37849 0.11557 0.0
H893 H 0.25678 0.39018 0.12397 0.0
H894 H 0.25075 0.3945 0.1051 0.0
H895 H 0.2697 0.45361 0.13654 0.0
H896 H 0.28657 0.44761 0.12365 0.0
H897 H 0.27715 0.4296 0.13909 0.0
H898 H 0.32236 0.43218 0.0915 0.0
C899 C 0.29067 0.43502 0.096 0.0
C900 C 0.49506 0.87724 0.26619 0.0
C901 C 0.51654 0.88011 0.2603 0.0
C902 C 0.52095 0.88763 0.24601 0.0
C903 C 0.48322 0.88965 0.24383 0.0
C904 C 0.47873 0.8821 0.25778 0.0
C905 C 0.45504 0.88 0.26231 0.0
H906 H 0.35284 0.88909 0.24593 0.0
C907 C 0.46283 0.89335 0.23807 0.0
C908 C 0.44622 0.88775 0.24881 0.0
H909 H 0.37394 0.86663 0.2856 0.0
H910 H 0.41124 0.87285 0.27582 0.0
H911 H 0.40836 0.93557 0.24292 0.0
H912 H 0.36975 0.85957 0.22281 0.0
H913 H 0.3839 0.87972 0.20925 0.0
H914 H 0.36022 0.88156 0.21858 0.0
H915 H 0.38282 0.92441 0.22889 0.0
H916 H 0.41405 0.93555 0.2243 0.0
C917 C 0.4616 0.8987 0.27612 0.0
C918 C 0.43714 0.85245 0.26464 0.0
C919 C 0.46425 0.92143 0.18712 0.0
C920 C 0.44872 0.92715 0.17858 0.0
C921 C 0.42765 0.92546 0.18449 0.0
C922 C 0.42198 0.91772 0.19861 0.0
C923 C 0.43766 0.91181 0.20695 0.0
C924 C 0.45848 0.91395 0.20116 0.0
C925 C 0.47354 0.90767 0.21154 0.0
C926 C 0.45828 0.90112 0.22455 0.0
C927 C 0.43718 0.90341 0.22185 0.0
C928 C 0.49937 0.93133 0.21547 0.0
C929 C 0.4741 0.88488 0.20416 0.0
C930 C 0.36559 0.88568 0.25252 0.0
C931 C 0.36022 0.87708 0.26652 0.0
C932 C 0.37731 0.87276 0.27469 0.0
C933 C 0.39909 0.87652 0.26902 0.0
C934 C 0.40404 0.88473 0.25498 0.0
C935 C 0.38752 0.88931 0.24698 0.0
C936 C 0.39605 0.89801 0.23224 0.0
C937 C 0.42018 0.89759 0.2327 0.0
C938 C 0.42473 0.88981 0.24608 0.0
C939 C 0.40045 0.92472 0.23192 0.0
C940 C 0.37649 0.8789 0.21999 0.0
H941 H 0.50899 0.89807 0.227 0.0
H942 H 0.49118 0.87167 0.27717 0.0
H943 H 0.43952 0.83965 0.25674 0.0
H944 H 0.41743 0.84695 0.26252 0.0
H945 H 0.44063 0.84851 0.27595 0.0
H946 H 0.47947 0.9161 0.27544 0.0
H947 H 0.46353 0.89073 0.28634 0.0
H948 H 0.44795 0.90486 0.27728 0.0
H949 H 0.48086 0.92306 0.18304 0.0
H950 H 0.4154 0.9298 0.17809 0.0
H951 H 0.40561 0.91658 0.20248 0.0
H952 H 0.49802 0.9485 0.2156 0.0
H953 H 0.51235 0.93268 0.20731 0.0
H954 H 0.50779 0.9323 0.22665 0.0
H955 H 0.45633 0.87201 0.19732 0.0
H956 H 0.47614 0.87331 0.2122 0.0
H957 H 0.48919 0.89075 0.19683 0.0
H958 H 0.53708 0.88956 0.24109 0.0
C959 C 0.50448 0.89243 0.23778 0.0
C960 C 0.11009 0.48517 0.27975 0.0
C961 C 0.10477 0.46212 0.27266 0.0
C962 C 0.09333 0.45512 0.25804 0.0
C963 C 0.09291 0.49388 0.25792 0.0
C964 C 0.10393 0.50056 0.27227 0.0
C965 C 0.10829 0.5255 0.27839 0.0
H966 H 0.10104 0.62843 0.26859 0.0
C967 C 0.08929 0.51432 0.25334 0.0
C968 C 0.09815 0.53281 0.26534 0.0
H969 H 0.13144 0.61224 0.30736 0.0
H970 H 0.12071 0.57224 0.29523 0.0
H971 H 0.12563 0.61027 0.24625 0.0
H972 H 0.05282 0.57321 0.26078 0.0
H973 H 0.04934 0.56569 0.2416 0.0
H974 H 0.06272 0.59777 0.24898 0.0
H975 H 0.10169 0.61598 0.2393 0.0
H976 H 0.10561 0.59141 0.23078 0.0
C977 C 0.1366 0.54311 0.28214 0.0
C978 C 0.09288 0.52163 0.29168 0.0
C979 C 0.05452 0.51065 0.20086 0.0
C980 C 0.05037 0.52758 0.19338 0.0
C981 C 0.05495 0.54988 0.20127 0.0
C982 C 0.06376 0.55541 0.21623 0.0
C983 C 0.06831 0.53861 0.22345 0.0
C984 C 0.06353 0.51658 0.21583 0.0
C985 C 0.06987 0.5012 0.22535 0.0
C986 C 0.07957 0.51787 0.23984 0.0
C987 C 0.07856 0.53972 0.23862 0.0
C988 C 0.09031 0.49798 0.2185 0.0
C989 C 0.04573 0.47646 0.2267 0.0
C990 C 0.1055 0.61633 0.27446 0.0
C991 C 0.1171 0.62358 0.28898 0.0
C992 C 0.12222 0.60704 0.29625 0.0
C993 C 0.11613 0.58385 0.28913 0.0
C994 C 0.10489 0.57707 0.27454 0.0
C995 C 0.09969 0.59319 0.26748 0.0
C996 C 0.08825 0.58316 0.25188 0.0
C997 C 0.08734 0.5583 0.25077 0.0
C998 C 0.09707 0.55484 0.26406 0.0
C999 C 0.10597 0.60108 0.24142 0.0
C1000 C 0.06195 0.57987 0.25059 0.0
H1001 H 0.07865 0.4645 0.23956 0.0
H1002 H 0.11924 0.49137 0.29087 0.0
H1003 H 0.07495 0.50376 0.28975 0.0
H1004 H 0.08766 0.53602 0.29358 0.0
H1005 H 0.10298 0.52108 0.30194 0.0
H1006 H 0.14713 0.53895 0.27413 0.0
H1007 H 0.14287 0.54101 0.29332 0.0
H1008 H 0.14247 0.56288 0.28139 0.0
H1009 H 0.05098 0.49325 0.19518 0.0
H1010 H 0.05236 0.56348 0.19578 0.0
H1011 H 0.06706 0.57279 0.22151 0.0
H1012 H 0.1039 0.51545 0.21413 0.0
H1013 H 0.08223 0.48294 0.20922 0.0
H1014 H 0.10141 0.49402 0.22656 0.0
H1015 H 0.02965 0.47947 0.22704 0.0
H1016 H 0.04633 0.46831 0.23701 0.0
H1017 H 0.04155 0.46256 0.21716 0.0
H1018 H 0.08878 0.43736 0.25237 0.0
C1019 C 0.08734 0.47086 0.25065 0.0
C1020 C 0.37644 0.49062 0.27073 0.0
C1021 C 0.35686 0.46854 0.26319 0.0
C1022 C 0.35785 0.46282 0.24816 0.0
C1023 C 0.39664 0.50172 0.24824 0.0
C1024 C 0.39601 0.50683 0.2631 0.0
C1025 C 0.41798 0.5312 0.26954 0.0
H1026 H 0.51643 0.64126 0.25857 0.0
C1027 C 0.41881 0.52318 0.24347 0.0
C1028 C 0.43133 0.5405 0.25594 0.0
H1029 H 0.49098 0.61335 0.30023 0.0
H1030 H 0.45912 0.57464 0.28736 0.0
H1031 H 0.51633 0.59293 0.247 0.0
H1032 H 0.46401 0.61759 0.23931 0.0
H1033 H 0.46644 0.60478 0.22222 0.0
H1034 H 0.49352 0.63122 0.23203 0.0
H1035 H 0.5204 0.61469 0.23393 0.0
H1036 H 0.50324 0.5815 0.22875 0.0
C1037 C 0.43347 0.52587 0.28111 0.0
C1038 C 0.40835 0.54811 0.27579 0.0
C1039 C 0.43695 0.52544 0.1896 0.0
C1040 C 0.45517 0.54401 0.18207 0.0
C1041 C 0.4724 0.56707 0.18994 0.0
C1042 C 0.47174 0.57162 0.20503 0.0
C1043 C 0.45363 0.55295 0.21244 0.0
C1044 C 0.43643 0.5304 0.20476 0.0
C1045 C 0.41803 0.51325 0.21454 0.0
C1046 C 0.42772 0.52891 0.22941 0.0
C1047 C 0.44859 0.55212 0.22804 0.0
C1048 C 0.41988 0.48939 0.21454 0.0
C1049 C 0.39206 0.50858 0.20892 0.0
C1050 C 0.5043 0.62688 0.26506 0.0
C1051 C 0.50624 0.631 0.28056 0.0
C1052 C 0.48965 0.61137 0.28831 0.0
C1053 C 0.47122 0.58864 0.28082 0.0
C1054 C 0.46941 0.58512 0.26538 0.0
C1055 C 0.48622 0.60382 0.25781 0.0
C1056 C 0.48299 0.59596 0.24157 0.0
C1057 C 0.46104 0.56966 0.24061 0.0
C1058 C 0.45283 0.56363 0.25453 0.0
C1059 C 0.50693 0.59639 0.23746 0.0
C1060 C 0.47656 0.61329 0.23323 0.0
H1061 H 0.3772 0.47407 0.22917 0.0
H1062 H 0.37647 0.49525 0.28236 0.0
H1063 H 0.39396 0.54758 0.26777 0.0
H1064 H 0.42288 0.56785 0.27798 0.0
H1065 H 0.3999 0.54183 0.2862 0.0
H1066 H 0.43027 0.50666 0.27899 0.0
H1067 H 0.42868 0.52786 0.29244 0.0
H1068 H 0.45366 0.53811 0.28079 0.0
H1069 H 0.42333 0.50762 0.1838 0.0
H1070 H 0.48678 0.58154 0.18444 0.0
H1071 H 0.48549 0.58953 0.21033 0.0
H1072 H 0.43959 0.49412 0.21513 0.0
H1073 H 0.41004 0.4767 0.20432 0.0
H1074 H 0.4125 0.47913 0.22417 0.0
H1075 H 0.39337 0.5255 0.20464 0.0
H1076 H 0.37957 0.50439 0.2177 0.0
H1077 H 0.3831 0.49322 0.19983 0.0
H1078 H 0.34299 0.44589 0.24212 0.0
C1079 C 0.37761 0.4793 0.24064 0.0
C1080 C 0.54319 0.01743 0.0417 0.0
Eu1081 Eu 0.52113 0.01111 0.01546 0.0
C1082 C 0.53445 0.00734 0.05574 0.0
C1083 C 0.54302 0.02338 0.06884 0.0
C1084 C 0.53336 0.01463 0.08206 0.0
C1085 C 0.51491 0.98963 0.0824 0.0
C1086 C 0.50676 0.97346 0.06929 0.0
C1087 C 0.51636 0.98224 0.05608 0.0
C1088 C 0.50879 0.04212 0.00302 0.0
C1089 C 0.46073 0.97559 0.01677 0.0
C1090 C 0.46352 0.98294 0.96085 0.0
Eu1091 Eu 0.48523 0.98912 0.98712 0.0
C1092 C 0.47285 0.99361 0.94705 0.0
C1093 C 0.46608 0.97785 0.93393 0.0
C1094 C 0.47635 0.98736 0.921 0.0
C1095 C 0.49353 0.01285 0.92096 0.0
C1096 C 0.50001 0.02868 0.93408 0.0
C1097 C 0.48989 0.01913 0.94703 0.0
C1098 C 0.49804 0.9584 0.99953 0.0
C1099 C 0.54548 0.0243 0.98563 0.0
O1100 O 0.54219 0.00176 0.03106 0.0
O1101 O 0.53571 0.03233 0.03709 0.0
O1102 O 0.5309 0.04932 0.00913 0.0
O1103 O 0.49428 0.01949 0.00429 0.0
O1104 O 0.48356 0.98419 0.02306 0.0
O1105 O 0.45637 0.97834 0.00289 0.0
O1106 O 0.46393 0.99819 0.97155 0.0
O1107 O 0.47103 0.96805 0.96544 0.0
O1108 O 0.4758 0.95095 0.99352 0.0
O1109 O 0.51227 0.98102 0.99819 0.0
O1110 O 0.52265 0.01578 0.97942 0.0
O1111 O 0.54993 0.02175 0.99956 0.0
H1112 H 0.55681 0.04285 0.06879 0.0
H1113 H 0.53987 0.02763 0.09192 0.0
H1114 H 0.49295 0.954 0.06923 0.0
H1115 H 0.50935 0.96947 0.0461 0.0
H1116 H 0.4531 0.9581 0.93373 0.0
H1117 H 0.47074 0.97477 0.911 0.0
H1118 H 0.51328 0.04837 0.9344 0.0
H1119 H 0.49571 0.03165 0.95705 0.0
C1120 C 0.99139 0.52722 0.03952 0.0
Eu1121 Eu 0.99366 0.50854 0.01379 0.0
C1122 C 0.99837 0.52591 0.05498 0.0
C1123 C 0.98027 0.51807 0.06491 0.0
C1124 C 0.98611 0.51589 0.07952 0.0
C1125 C 0.01025 0.52173 0.08451 0.0
C1126 C 0.02845 0.52971 0.0746 0.0
C1127 C 0.02254 0.53167 0.05992 0.0
C1128 C 0.96237 0.46112 0.00229 0.0
C1129 C 0.03279 0.48801 0.01654 0.0
C1130 C 0.00861 0.47116 0.96085 0.0
Eu1131 Eu 0.00843 0.49187 0.98639 0.0
C1132 C 0.00129 0.47274 0.9456 0.0
C1133 C 0.99787 0.4925 0.94202 0.0
C1134 C 0.99083 0.49384 0.92746 0.0
C1135 C 0.98709 0.47542 0.91627 0.0
C1136 C 0.99026 0.45551 0.92 0.0
C1137 C 0.99732 0.45421 0.93456 0.0
C1138 C 0.03987 0.53957 0.99757 0.0
C1139 C 0.97045 0.5138 0.98354 0.0
O1140 O 0.00937 0.53917 0.03131 0.0
O1141 O 0.97315 0.5066 0.0326 0.0
O1142 O 0.955 0.47597 0.00733 0.0
O1143 O 0.98564 0.47163 0.00372 0.0
O1144 O 0.02472 0.50214 0.02262 0.0
O1145 O 0.02556 0.47806 0.00273 0.0
O1146 O 0.99049 0.46076 0.96916 0.0
O1147 O 0.02783 0.49128 0.96753 0.0
O1148 O 0.04711 0.52514 0.99162 0.0
O1149 O 0.01658 0.52877 0.99654 0.0
O1150 O 0.97835 0.49953 0.97746 0.0
O1151 O 0.97718 0.52316 0.99749 0.0
H1152 H 0.96153 0.51354 0.06133 0.0
H1153 H 0.97183 0.50999 0.08699 0.0
H1154 H 0.04716 0.53418 0.07816 0.0
H1155 H 0.03684 0.53757 0.05247 0.0
H1156 H 0.00077 0.50693 0.95046 0.0
H1157 H 0.98868 0.50948 0.92493 0.0
H1158 H 0.98706 0.44077 0.91169 0.0
H1159 H 0.99964 0.43871 0.9372 0.0
C1160 C 0.46142 0.46268 0.9611 0.0
Eu1161 Eu 0.48306 0.48718 0.9867 0.0
C1162 C 0.46964 0.46411 0.94612 0.0
C1163 C 0.46157 0.47459 0.93547 0.0
C1164 C 0.47028 0.47747 0.92157 0.0
C1165 C 0.48705 0.46967 0.91795 0.0
C1166 C 0.49477 0.45872 0.92848 0.0
C1167 C 0.48621 0.45602 0.94244 0.0
C1168 C 0.49734 0.53556 0.99358 0.0
C1169 C 0.54335 0.51199 0.98586 0.0
C1170 C 0.53931 0.53825 0.04001 0.0
Eu1171 Eu 0.51843 0.51251 0.01466 0.0
C1172 C 0.52956 0.53938 0.05421 0.0
C1173 C 0.53993 0.53537 0.06704 0.0
C1174 C 0.52984 0.53447 0.0804 0.0
C1175 C 0.50921 0.53773 0.08124 0.0
C1176 C 0.49899 0.54201 0.06836 0.0
C1177 C 0.50902 0.54278 0.05498 0.0
C1178 C 0.50422 0.46406 0.00783 0.0
C1179 C 0.45836 0.48707 0.01566 0.0
O1180 O 0.4711 0.45465 0.97093 0.0
O1181 O 0.45974 0.48166 0.96652 0.0
O1182 O 0.47489 0.51882 0.98856 0.0
O1183 O 0.51106 0.52622 0.99445 0.0
O1184 O 0.52075 0.49485 0.98011 0.0
O1185 O 0.54734 0.52491 0.99874 0.0
O1186 O 0.53274 0.54702 0.02902 0.0
O1187 O 0.53861 0.51736 0.03603 0.0
O1188 O 0.52645 0.48068 0.01345 0.0
O1189 O 0.49057 0.47347 0.00681 0.0
O1190 O 0.48078 0.50508 0.02102 0.0
O1191 O 0.45464 0.47361 0.00301 0.0
H1192 H 0.44869 0.48083 0.93795 0.0
H1193 H 0.46371 0.4856 0.91359 0.0
H1194 H 0.50776 0.45262 0.92601 0.0
H1195 H 0.49284 0.44786 0.95037 0.0
H1196 H 0.55559 0.53245 0.06668 0.0
H1197 H 0.53795 0.53073 0.09001 0.0
H1198 H 0.48332 0.54492 0.06862 0.0
H1199 H 0.50051 0.54578 0.04524 0.0
C1200 C 0.20596 0.35961 0.37583 0.0
Eu1201 Eu 0.18579 0.34776 0.34871 0.0
C1202 C 0.19708 0.34896 0.3897 0.0
C1203 C 0.20138 0.36485 0.40244 0.0
C1204 C 0.19131 0.35509 0.41537 0.0
C1205 C 0.17672 0.3292 0.4158 0.0
C1206 C 0.17283 0.3133 0.40308 0.0
C1207 C 0.18283 0.32308 0.39013 0.0
C1208 C 0.16715 0.37136 0.3333 0.0
C1209 C 0.12711 0.30484 0.3489 0.0
C1210 C 0.13306 0.30641 0.29266 0.0
Eu1211 Eu 0.15364 0.31877 0.31971 0.0
C1212 C 0.14113 0.31677 0.27862 0.0
C1213 C 0.13542 0.30061 0.2658 0.0
C1214 C 0.1443 0.31004 0.25258 0.0
C1215 C 0.15911 0.33584 0.25193 0.0
C1216 C 0.16453 0.35203 0.26479 0.0
C1217 C 0.15569 0.34258 0.27803 0.0
C1218 C 0.17256 0.29534 0.33508 0.0
C1219 C 0.21229 0.36187 0.31957 0.0
O1220 O 0.20993 0.34593 0.36615 0.0
O1221 O 0.19455 0.3702 0.36981 0.0
O1222 O 0.18892 0.38284 0.34073 0.0
O1223 O 0.1559 0.34855 0.33507 0.0
O1224 O 0.14973 0.31732 0.35591 0.0
O1225 O 0.12304 0.30476 0.33453 0.0
O1226 O 0.12899 0.31999 0.30235 0.0
O1227 O 0.14517 0.29646 0.29859 0.0
O1228 O 0.15073 0.28376 0.32773 0.0
O1229 O 0.18363 0.31811 0.33326 0.0
O1230 O 0.18965 0.34951 0.31255 0.0
O1231 O 0.21638 0.36167 0.33392 0.0
H1232 H 0.21223 0.38485 0.40231 0.0
H1233 H 0.195 0.36783 0.42504 0.0
H1234 H 0.16152 0.2933 0.403 0.0
H1235 H 0.17899 0.31039 0.38039 0.0
H1236 H 0.12428 0.28066 0.26606 0.0
H1237 H 0.13943 0.2971 0.24282 0.0
H1238 H 0.17599 0.37197 0.2647 0.0
H1239 H 0.16055 0.35544 0.28783 0.0
C1240 C 0.66468 0.86417 0.37336 0.0
Eu1241 Eu 0.66379 0.84334 0.34759 0.0
C1242 C 0.67302 0.86302 0.38846 0.0
C1243 C 0.67818 0.84422 0.39172 0.0
C1244 C 0.68591 0.8431 0.40617 0.0
C1245 C 0.68864 0.86078 0.41754 0.0
C1246 C 0.68371 0.87974 0.41415 0.0
C1247 C 0.67596 0.88083 0.3997 0.0
C1248 C 0.6308 0.79617 0.33652 0.0
C1249 C 0.70146 0.8207 0.3493 0.0
C1250 C 0.67475 0.80379 0.29386 0.0
Eu1251 Eu 0.67621 0.82504 0.31956 0.0
C1252 C 0.66266 0.80101 0.27901 0.0
C1253 C 0.67679 0.80626 0.26701 0.0
C1254 C 0.66613 0.8049 0.25289 0.0
C1255 C 0.64102 0.79805 0.25047 0.0
C1256 C 0.62683 0.79271 0.26255 0.0
C1257 C 0.63757 0.79425 0.27671 0.0
C1258 C 0.70918 0.87241 0.3306 0.0
C1259 C 0.63873 0.84753 0.3178 0.0
O1260 O 0.68215 0.8747 0.36465 0.0
O1261 O 0.64542 0.84373 0.367 0.0
O1262 O 0.62442 0.8115 0.34216 0.0
O1263 O 0.654 0.80605 0.33736 0.0
O1264 O 0.69376 0.83489 0.35577 0.0
O1265 O 0.69432 0.81148 0.33536 0.0
O1266 O 0.66037 0.79187 0.30389 0.0
O1267 O 0.69213 0.82638 0.29883 0.0
O1268 O 0.71558 0.85726 0.32465 0.0
O1269 O 0.68596 0.86232 0.32982 0.0
O1270 O 0.64527 0.83213 0.31165 0.0
O1271 O 0.64717 0.85804 0.33145 0.0
H1272 H 0.67609 0.83036 0.38312 0.0
H1273 H 0.68986 0.82847 0.40843 0.0
H1274 H 0.68537 0.89344 0.42272 0.0
H1275 H 0.6721 0.89547 0.39732 0.0
H1276 H 0.69622 0.81175 0.2686 0.0
H1277 H 0.6777 0.80956 0.24389 0.0
H1278 H 0.60738 0.78713 0.26104 0.0
H1279 H 0.62628 0.79026 0.28583 0.0
C1280 C 0.12888 0.80074 0.29317 0.0
Eu1281 Eu 0.15036 0.82197 0.31945 0.0
C1282 C 0.13783 0.80296 0.2785 0.0
C1283 C 0.16057 0.82348 0.27602 0.0
C1284 C 0.1693 0.82526 0.26215 0.0
C1285 C 0.15541 0.80658 0.25048 0.0
C1286 C 0.1326 0.78606 0.25306 0.0
C1287 C 0.12393 0.78426 0.26696 0.0
C1288 C 0.16501 0.86918 0.32961 0.0
C1289 C 0.21093 0.84647 0.31865 0.0
C1290 C 0.20592 0.86393 0.37411 0.0
Eu1291 Eu 0.18521 0.84198 0.3479 0.0
C1292 C 0.19612 0.86413 0.38844 0.0
C1293 C 0.20338 0.85527 0.4004 0.0
C1294 C 0.19317 0.85378 0.41376 0.0
C1295 C 0.17558 0.86129 0.41549 0.0
C1296 C 0.16861 0.87056 0.40358 0.0
C1297 C 0.17868 0.87187 0.39017 0.0
C1298 C 0.17051 0.79459 0.3378 0.0
C1299 C 0.12493 0.81704 0.34888 0.0
O1300 O 0.13735 0.79082 0.30242 0.0
O1301 O 0.12897 0.82033 0.29929 0.0
O1302 O 0.14263 0.85349 0.32385 0.0
O1303 O 0.17863 0.85966 0.32936 0.0
O1304 O 0.18818 0.83163 0.31211 0.0
O1305 O 0.21491 0.85592 0.33254 0.0
O1306 O 0.20083 0.87491 0.36379 0.0
O1307 O 0.20381 0.84277 0.36906 0.0
O1308 O 0.19263 0.81008 0.34411 0.0
O1309 O 0.15705 0.80431 0.33789 0.0
O1310 O 0.1476 0.83291 0.35512 0.0
O1311 O 0.121 0.80687 0.33514 0.0
H1312 H 0.17162 0.83808 0.28484 0.0
H1313 H 0.18707 0.84113 0.26061 0.0
H1314 H 0.12128 0.77152 0.24427 0.0
H1315 H 0.10637 0.76829 0.26869 0.0
H1316 H 0.2168 0.84923 0.39935 0.0
H1317 H 0.19924 0.84696 0.42281 0.0
H1318 H 0.15501 0.87636 0.40455 0.0
H1319 H 0.17252 0.87861 0.38112 0.0
C1320 C 0.87404 0.68875 0.71014 0.0
Eu1321 Eu 0.85333 0.68009 0.68328 0.0
C1322 C 0.86375 0.68159 0.72431 0.0
C1323 C 0.84072 0.67917 0.7268 0.0
C1324 C 0.8304 0.67101 0.73994 0.0
C1325 C 0.84281 0.66491 0.75078 0.0
C1326 C 0.86585 0.66733 0.74822 0.0
C1327 C 0.87621 0.6756 0.7351 0.0
C1328 C 0.83552 0.70638 0.67024 0.0
C1329 C 0.79369 0.6395 0.68369 0.0
C1330 C 0.79793 0.64687 0.62772 0.0
Eu1331 Eu 0.81948 0.65487 0.65431 0.0
C1332 C 0.80638 0.65721 0.6137 0.0
C1333 C 0.79835 0.64125 0.60058 0.0
C1334 C 0.80735 0.65048 0.58733 0.0
C1335 C 0.82461 0.67587 0.58697 0.0
C1336 C 0.83236 0.6919 0.60012 0.0
C1337 C 0.82337 0.68265 0.61337 0.0
C1338 C 0.83789 0.62869 0.66706 0.0
C1339 C 0.879 0.69523 0.65403 0.0
O1340 O 0.87106 0.67038 0.70089 0.0
O1341 O 0.86963 0.7046 0.70374 0.0
O1342 O 0.85792 0.71649 0.6767 0.0
O1343 O 0.82357 0.68341 0.67141 0.0
O1344 O 0.81642 0.65129 0.69057 0.0
O1345 O 0.78941 0.6402 0.66944 0.0
O1346 O 0.79731 0.66192 0.63814 0.0
O1347 O 0.80698 0.63344 0.63268 0.0
O1348 O 0.81571 0.61832 0.6602 0.0
O1349 O 0.84941 0.65174 0.66612 0.0
O1350 O 0.85617 0.68495 0.64737 0.0
O1351 O 0.88324 0.69283 0.66802 0.0
H1352 H 0.83052 0.68326 0.7185 0.0
H1353 H 0.81247 0.66898 0.74148 0.0
H1354 H 0.87596 0.66298 0.75643 0.0
H1355 H 0.89386 0.67709 0.73331 0.0
H1356 H 0.78538 0.62155 0.60063 0.0
H1357 H 0.80117 0.63764 0.57741 0.0
H1358 H 0.84526 0.71161 0.60015 0.0
H1359 H 0.8299 0.69537 0.62335 0.0
C1360 C 0.32562 0.19437 0.70899 0.0
Eu1361 Eu 0.32675 0.17609 0.68286 0.0
C1362 C 0.33504 0.19434 0.72416 0.0
C1363 C 0.3183 0.18506 0.73483 0.0
C1364 C 0.32652 0.18406 0.74918 0.0
C1365 C 0.3517 0.19256 0.75316 0.0
C1366 C 0.36852 0.20197 0.7425 0.0
C1367 C 0.36025 0.20273 0.72808 0.0
C1368 C 0.29458 0.12921 0.67094 0.0
C1369 C 0.36505 0.15451 0.68459 0.0
C1370 C 0.34035 0.13945 0.62912 0.0
Eu1371 Eu 0.3405 0.15952 0.65494 0.0
C1372 C 0.33211 0.14023 0.61385 0.0
C1373 C 0.34887 0.14628 0.60317 0.0
C1374 C 0.34186 0.14799 0.5887 0.0
C1375 C 0.31786 0.1435 0.58464 0.0
C1376 C 0.30099 0.13731 0.59531 0.0
C1377 C 0.30809 0.13579 0.60983 0.0
C1378 C 0.37297 0.20663 0.66659 0.0
C1379 C 0.30301 0.18216 0.65305 0.0
O1380 O 0.34197 0.2072 0.70005 0.0
O1381 O 0.30797 0.17286 0.70264 0.0
O1382 O 0.28767 0.14428 0.67628 0.0
O1383 O 0.3178 0.13925 0.67225 0.0
O1384 O 0.35779 0.16914 0.69097 0.0
O1385 O 0.35723 0.14473 0.6708 0.0
O1386 O 0.32311 0.12817 0.6379 0.0
O1387 O 0.35925 0.16015 0.63549 0.0
O1388 O 0.37961 0.19187 0.6604 0.0
O1389 O 0.34971 0.19643 0.66565 0.0
O1390 O 0.31064 0.1679 0.64661 0.0
O1391 O 0.30989 0.19106 0.66707 0.0
H1392 H 0.2988 0.17848 0.73205 0.0
H1393 H 0.31323 0.177 0.75724 0.0
H1394 H 0.38801 0.2085 0.74528 0.0
H1395 H 0.37357 0.20977 0.72004 0.0
H1396 H 0.36747 0.14979 0.60605 0.0
H1397 H 0.35509 0.15245 0.58063 0.0
H1398 H 0.28242 0.13388 0.59246 0.0
H1399 H 0.29482 0.13127 0.61789 0.0
C1400 C 0.79313 0.13464 0.62613 0.0
Eu1401 Eu 0.81502 0.15441 0.65249 0.0
C1402 C 0.80197 0.13556 0.61137 0.0
C1403 C 0.79418 0.14555 0.60028 0.0
C1404 C 0.80328 0.14782 0.5865 0.0
C1405 C 0.82023 0.13995 0.58347 0.0
C1406 C 0.8278 0.12965 0.59452 0.0
C1407 C 0.81886 0.12758 0.60835 0.0
C1408 C 0.83157 0.20184 0.66319 0.0
C1409 C 0.87494 0.17682 0.65099 0.0
C1410 C 0.87212 0.19239 0.70674 0.0
Eu1411 Eu 0.85002 0.17226 0.68042 0.0
C1412 C 0.86318 0.19096 0.72139 0.0
C1413 C 0.84047 0.17068 0.72414 0.0
C1414 C 0.83171 0.16976 0.73796 0.0
C1415 C 0.8455 0.18914 0.7493 0.0
C1416 C 0.86823 0.20947 0.74643 0.0
C1417 C 0.87696 0.21035 0.7326 0.0
C1418 C 0.83308 0.12466 0.66976 0.0
C1419 C 0.79016 0.15019 0.68195 0.0
O1420 O 0.79871 0.12276 0.63561 0.0
O1421 O 0.79561 0.15546 0.63215 0.0
O1422 O 0.80886 0.18679 0.65769 0.0
O1423 O 0.84453 0.19161 0.66248 0.0
O1424 O 0.85203 0.16205 0.64471 0.0
O1425 O 0.87931 0.18658 0.66482 0.0
O1426 O 0.86529 0.20364 0.6975 0.0
O1427 O 0.87025 0.17193 0.70056 0.0
O1428 O 0.85581 0.13955 0.67528 0.0
O1429 O 0.82036 0.13511 0.67052 0.0
O1430 O 0.81313 0.16477 0.68817 0.0
O1431 O 0.78563 0.14039 0.6681 0.0
H1432 H 0.78117 0.15182 0.60233 0.0
H1433 H 0.79683 0.1555 0.57815 0.0
H1434 H 0.84094 0.12354 0.59253 0.0
H1435 H 0.82542 0.11998 0.61669 0.0
H1436 H 0.82945 0.15556 0.71559 0.0
H1437 H 0.81425 0.15375 0.73979 0.0
H1438 H 0.8791 0.22494 0.7548 0.0
H1439 H 0.89439 0.22628 0.73062 0.0
C1440 C 0.34764 0.90996 0.06648 0.0
C1441 C 0.33565 0.88395 0.06357 0.0
C1442 C 0.36842 0.92555 0.05936 0.0
C1443 C 0.37727 0.91494 0.04891 0.0
C1444 C 0.36545 0.88874 0.04601 0.0
C1445 C 0.34497 0.8736 0.05345 0.0
C1446 C 0.38081 0.9534 0.06292 0.0
C1447 C 0.37443 0.87669 0.03502 0.0
C1448 C 0.41528 0.95407 0.01971 0.0
C1449 C 0.43948 0.96101 0.02529 0.0
C1450 C 0.39491 0.93932 0.02737 0.0
C1451 C 0.39879 0.93118 0.04089 0.0
C1452 C 0.42315 0.93807 0.04657 0.0
C1453 C 0.4432 0.95306 0.03877 0.0
C1454 C 0.36918 0.93211 0.02086 0.0
C1455 C 0.4281 0.9297 0.0609 0.0
H1456 H 0.34051 0.91822 0.07414 0.0
H1457 H 0.33631 0.85356 0.05136 0.0
H1458 H 0.40064 0.96113 0.06684 0.0
H1459 H 0.38008 0.96217 0.05283 0.0
H1460 H 0.37196 0.95872 0.07151 0.0
H1461 H 0.3631 0.85605 0.03394 0.0
H1462 H 0.37388 0.88317 0.02403 0.0
H1463 H 0.39398 0.88228 0.03841 0.0
H1464 H 0.41219 0.96008 0.0093 0.0
H1465 H 0.46178 0.95816 0.04315 0.0
H1466 H 0.36014 0.93839 0.02879 0.0
H1467 H 0.35766 0.91155 0.01878 0.0
H1468 H 0.36932 0.94023 0.01034 0.0
H1469 H 0.42511 0.93994 0.07017 0.0
H1470 H 0.44732 0.93316 0.06254 0.0
H1471 H 0.41512 0.90957 0.06135 0.0
C1472 C 0.12224 0.45314 0.06288 0.0
C1473 C 0.14716 0.47137 0.0624 0.0
C1474 C 0.10295 0.45579 0.05632 0.0
C1475 C 0.10866 0.47709 0.04897 0.0
C1476 C 0.13372 0.49575 0.04863 0.0
C1477 C 0.15266 0.49269 0.05537 0.0
C1478 C 0.07646 0.4355 0.05694 0.0
C1479 C 0.14053 0.51871 0.04087 0.0
C1480 C 0.06208 0.47171 0.01831 0.0
C1481 C 0.05116 0.48408 0.02517 0.0
C1482 C 0.08068 0.4692 0.02598 0.0
C1483 C 0.08849 0.47916 0.04092 0.0
C1484 C 0.07723 0.49125 0.04802 0.0
C1485 C 0.05874 0.49364 0.04004 0.0
C1486 C 0.09226 0.45622 0.018 0.0
C1487 C 0.08491 0.50191 0.06398 0.0
H1488 H 0.11779 0.43643 0.06809 0.0
H1489 H 0.17182 0.50703 0.05514 0.0
H1490 H 0.06551 0.44352 0.06136 0.0
H1491 H 0.06784 0.42655 0.04565 0.0
H1492 H 0.07509 0.42094 0.0639 0.0
H1493 H 0.16084 0.53192 0.04208 0.0
H1494 H 0.13406 0.51328 0.02895 0.0
H1495 H 0.13115 0.52846 0.04532 0.0
H1496 H 0.05644 0.46431 0.00682 0.0
H1497 H 0.0504 0.5032 0.04545 0.0
H1498 H 0.09015 0.44029 0.02386 0.0
H1499 H 0.11242 0.46924 0.01792 0.0
H1500 H 0.08386 0.44922 0.00643 0.0
H1501 H 0.0829 0.48722 0.07099 0.0
H1502 H 0.07376 0.51002 0.06801 0.0
H1503 H 0.10473 0.51664 0.06539 0.0
C1504 C 0.54845 0.66389 0.0435 0.0
C1505 C 0.5409 0.67945 0.03725 0.0
C1506 C 0.5413 0.64029 0.03649 0.0
C1507 C 0.52717 0.63243 0.02257 0.0
C1508 C 0.52024 0.64828 0.01591 0.0
C1509 C 0.52676 0.67134 0.02344 0.0
C1510 C 0.5485 0.62359 0.0441 0.0
C1511 C 0.50569 0.64077 0.00089 0.0
C1512 C 0.52799 0.58051 0.99909 0.0
C1513 C 0.50456 0.56034 0.00055 0.0
C1514 C 0.53542 0.60426 0.00596 0.0
C1515 C 0.5194 0.60749 0.015 0.0
C1516 C 0.4959 0.5869 0.01679 0.0
C1517 C 0.48853 0.56362 0.00925 0.0
C1518 C 0.56027 0.62588 0.00343 0.0
C1519 C 0.47876 0.58935 0.02686 0.0
H1520 H 0.55989 0.67001 0.05395 0.0
H1521 H 0.52029 0.68276 0.01856 0.0
H1522 H 0.53169 0.60558 0.04534 0.0
H1523 H 0.56035 0.61939 0.03731 0.0
H1524 H 0.55869 0.6321 0.05518 0.0
H1525 H 0.5033 0.65595 0.99678 0.0
H1526 H 0.51519 0.63536 0.99281 0.0
H1527 H 0.48709 0.62432 0.00135 0.0
H1528 H 0.54031 0.57775 0.99236 0.0
H1529 H 0.47058 0.54777 0.01054 0.0
H1530 H 0.57223 0.63391 0.01402 0.0
H1531 H 0.55779 0.6408 0.99901 0.0
H1532 H 0.57005 0.62037 0.9956 0.0
H1533 H 0.48841 0.59677 0.03814 0.0
H1534 H 0.46159 0.57129 0.02747 0.0
H1535 H 0.47352 0.60277 0.02294 0.0
C1536 C 0.85532 0.32594 0.96988 0.0
C1537 C 0.86056 0.3167 0.95698 0.0
C1538 C 0.87267 0.34906 0.97749 0.0
C1539 C 0.89547 0.364 0.97174 0.0
C1540 C 0.90089 0.35509 0.95869 0.0
C1541 C 0.88369 0.33137 0.95169 0.0
C1542 C 0.86649 0.3576 0.99164 0.0
C1543 C 0.92469 0.37081 0.95195 0.0
C1544 C 0.92663 0.43316 0.98403 0.0
C1545 C 0.94589 0.43654 0.99423 0.0
C1546 C 0.91063 0.4098 0.97622 0.0
C1547 C 0.91335 0.38919 0.97923 0.0
C1548 C 0.93278 0.39258 0.98964 0.0
C1549 C 0.94922 0.41643 0.99678 0.0
C1550 C 0.89088 0.40722 0.96474 0.0
C1551 C 0.93572 0.37093 0.99356 0.0
H1552 H 0.83747 0.31533 0.97402 0.0
H1553 H 0.88852 0.32444 0.94203 0.0
H1554 H 0.88175 0.36331 0.00052 0.0
H1555 H 0.86453 0.37407 0.99008 0.0
H1556 H 0.84902 0.34286 0.99534 0.0
H1557 H 0.92566 0.36159 0.94142 0.0
H1558 H 0.9264 0.38894 0.94983 0.0
H1559 H 0.94084 0.37487 0.95973 0.0
H1560 H 0.92439 0.44893 0.98196 0.0
H1561 H 0.96417 0.41922 0.00474 0.0
H1562 H 0.87226 0.3949 0.96822 0.0
H1563 H 0.89207 0.39845 0.95411 0.0
H1564 H 0.89254 0.42544 0.96291 0.0
H1565 H 0.91856 0.35673 0.99782 0.0
H1566 H 0.95161 0.37668 0.00202 0.0
H1567 H 0.93851 0.36188 0.98361 0.0
C1568 C 0.66934 0.53519 0.95634 0.0
C1569 C 0.66992 0.53649 0.94103 0.0
C1570 C 0.64836 0.53099 0.96327 0.0
C1571 C 0.62768 0.52919 0.95488 0.0
C1572 C 0.6283 0.5313 0.93955 0.0
C1573 C 0.64915 0.53443 0.93277 0.0
C1574 C 0.64824 0.52821 0.97959 0.0
C1575 C 0.60691 0.53025 0.93029 0.0
C1576 C 0.56505 0.49654 0.97011 0.0
C1577 C 0.56454 0.51655 0.97761 0.0
C1578 C 0.58548 0.50037 0.96266 0.0
C1579 C 0.60541 0.52491 0.96222 0.0
C1580 C 0.60451 0.54526 0.96936 0.0
C1581 C 0.5843 0.54078 0.97724 0.0
C1582 C 0.58607 0.4781 0.95567 0.0
C1583 C 0.6249 0.57175 0.96869 0.0
H1584 H 0.68536 0.53752 0.96304 0.0
H1585 H 0.64893 0.53495 0.92094 0.0
H1586 H 0.64675 0.54337 0.98556 0.0
H1587 H 0.63187 0.51035 0.98159 0.0
H1588 H 0.66523 0.52866 0.98437 0.0
H1589 H 0.61099 0.53399 0.91874 0.0
H1590 H 0.59016 0.51163 0.93012 0.0
H1591 H 0.60241 0.54408 0.93519 0.0
H1592 H 0.54978 0.47778 0.97048 0.0
H1593 H 0.58372 0.55626 0.98291 0.0
H1594 H 0.60247 0.4777 0.96066 0.0
H1595 H 0.58793 0.47949 0.94372 0.0
H1596 H 0.56915 0.46026 0.95707 0.0
H1597 H 0.6424 0.57482 0.97452 0.0
H1598 H 0.62042 0.5855 0.97376 0.0
H1599 H 0.62829 0.5753 0.95705 0.0
C1600 C 0.46276 0.10298 0.94302 0.0
C1601 C 0.47202 0.12819 0.9479 0.0
C1602 C 0.46985 0.08833 0.95077 0.0
C1603 C 0.4858 0.09881 0.96403 0.0
C1604 C 0.49557 0.12424 0.96889 0.0
C1605 C 0.48908 0.13871 0.96059 0.0
C1606 C 0.46019 0.06161 0.94483 0.0
C1607 C 0.51224 0.13602 0.98314 0.0
C1608 C 0.48046 0.05605 0.9932 0.0
C1609 C 0.50292 0.05636 0.99296 0.0
C1610 C 0.47463 0.06977 0.98378 0.0
C1611 C 0.49114 0.08298 0.97338 0.0
C1612 C 0.51333 0.08224 0.97263 0.0
C1613 C 0.51931 0.06951 0.98276 0.0
C1614 C 0.45118 0.0707 0.98525 0.0
C1615 C 0.53075 0.09486 0.96119 0.0
H1616 H 0.44954 0.09443 0.93331 0.0
H1617 H 0.49729 0.15831 0.96422 0.0
H1618 H 0.47601 0.05877 0.94296 0.0
H1619 H 0.44956 0.04887 0.95297 0.0
H1620 H 0.44812 0.05629 0.93429 0.0
H1621 H 0.51774 0.1559 0.98557 0.0
H1622 H 0.50264 0.1258 0.99244 0.0
H1623 H 0.52926 0.13478 0.98265 0.0
H1624 H 0.46782 0.04569 0.00109 0.0
H1625 H 0.53649 0.06925 0.98244 0.0
H1626 H 0.4391 0.06351 0.97468 0.0
H1627 H 0.45583 0.09029 0.98785 0.0
H1628 H 0.44054 0.05965 0.99404 0.0
H1629 H 0.52027 0.09115 0.95022 0.0
H1630 H 0.54444 0.08852 0.96027 0.0
H1631 H 0.54103 0.11528 0.96419 0.0
C1632 C 0.65842 0.08825 0.93528 0.0
C1633 C 0.66886 0.11418 0.93729 0.0
C1634 C 0.63801 0.07251 0.94263 0.0
C1635 C 0.62776 0.08294 0.95219 0.0
C1636 C 0.63797 0.10906 0.95407 0.0
C1637 C 0.65839 0.12434 0.94663 0.0
C1638 C 0.62754 0.04473 0.94029 0.0
C1639 C 0.62741 0.1209 0.96403 0.0
C1640 C 0.56221 0.04333 0.96253 0.0
C1641 C 0.56653 0.03817 0.97681 0.0
C1642 C 0.5819 0.05738 0.95425 0.0
C1643 C 0.60658 0.06664 0.96041 0.0
C1644 C 0.61107 0.06115 0.97471 0.0
C1645 C 0.59101 0.04701 0.98274 0.0
C1646 C 0.57624 0.06288 0.93909 0.0
C1647 C 0.63712 0.07063 0.98164 0.0
H1648 H 0.66651 0.08029 0.92816 0.0
H1649 H 0.66609 0.14433 0.94804 0.0
H1650 H 0.62888 0.03759 0.95094 0.0
H1651 H 0.60761 0.0353 0.93614 0.0
H1652 H 0.63737 0.03953 0.93232 0.0
H1653 H 0.63728 0.14148 0.96415 0.0
H1654 H 0.60752 0.11342 0.96037 0.0
H1655 H 0.62857 0.11622 0.97546 0.0
H1656 H 0.54341 0.03673 0.95784 0.0
H1657 H 0.59456 0.04311 0.99373 0.0
H1658 H 0.58724 0.05973 0.93103 0.0
H1659 H 0.58139 0.08273 0.93946 0.0
H1660 H 0.55629 0.05124 0.93501 0.0
H1661 H 0.64714 0.06465 0.97432 0.0
H1662 H 0.63745 0.06388 0.99259 0.0
H1663 H 0.64741 0.09128 0.98302 0.0
C1664 C 0.8926 0.55811 0.9338 0.0
C1665 C 0.86715 0.5407 0.93271 0.0
C1666 C 0.90994 0.55395 0.94166 0.0
C1667 C 0.90165 0.5319 0.94867 0.0
C1668 C 0.87601 0.51418 0.94757 0.0
C1669 C 0.85907 0.51878 0.93959 0.0
C1670 C 0.93712 0.57329 0.9426 0.0
C1671 C 0.86647 0.49043 0.95489 0.0
C1672 C 0.94736 0.51072 0.95941 0.0
C1673 C 0.95347 0.51911 0.9745 0.0
C1674 C 0.93069 0.51494 0.95083 0.0
C1675 C 0.91973 0.52768 0.95751 0.0
C1676 C 0.92594 0.53632 0.97271 0.0
C1677 C 0.94278 0.53199 0.98101 0.0
C1678 C 0.92471 0.50562 0.93462 0.0
C1679 C 0.9146 0.54994 0.98024 0.0
H1680 H 0.89898 0.57525 0.9287 0.0
H1681 H 0.83948 0.50509 0.93863 0.0
H1682 H 0.94438 0.58075 0.95427 0.0
H1683 H 0.94779 0.56471 0.9385 0.0
H1684 H 0.94061 0.58905 0.93611 0.0
H1685 H 0.84602 0.4784 0.95281 0.0
H1686 H 0.87518 0.47975 0.95083 0.0
H1687 H 0.87163 0.49489 0.96697 0.0
H1688 H 0.95551 0.50075 0.95427 0.0
H1689 H 0.94731 0.53847 0.99266 0.0
H1690 H 0.92901 0.5213 0.92792 0.0
H1691 H 0.90462 0.49204 0.93221 0.0
H1692 H 0.93524 0.49652 0.93105 0.0
H1693 H 0.91876 0.56681 0.97475 0.0
H1694 H 0.92153 0.55563 0.99211 0.0
H1695 H 0.89415 0.53788 0.97928 0.0
C1696 C 0.47244 0.34039 0.95904 0.0
C1697 C 0.46252 0.31906 0.96664 0.0
C1698 C 0.47877 0.3637 0.96611 0.0
C1699 C 0.47549 0.36585 0.98121 0.0
C1700 C 0.46552 0.34448 0.98897 0.0
C1701 C 0.45902 0.32131 0.98157 0.0
C1702 C 0.48915 0.38607 0.95744 0.0
C1703 C 0.46184 0.34612 0.0051 0.0
C1704 C 0.51387 0.43039 0.00184 0.0
C1705 C 0.49662 0.43847 0.0019 0.0
C1706 C 0.50709 0.40652 0.99543 0.0
C1707 C 0.48254 0.39055 0.98886 0.0
C1708 C 0.46495 0.39852 0.98914 0.0
C1709 C 0.47217 0.42233 0.99578 0.0
C1710 C 0.52628 0.39855 0.99546 0.0
C1711 C 0.43869 0.38216 0.98208 0.0
H1712 H 0.47566 0.33897 0.94759 0.0
H1713 H 0.45106 0.30492 0.98747 0.0
H1714 H 0.47768 0.39505 0.95802 0.0
H1715 H 0.50816 0.40006 0.96231 0.0
H1716 H 0.48986 0.3811 0.94566 0.0
H1717 H 0.4541 0.32779 0.00958 0.0
H1718 H 0.47978 0.35934 0.01159 0.0
H1719 H 0.44911 0.35343 0.00674 0.0
H1720 H 0.53278 0.44285 0.0066 0.0
H1721 H 0.45874 0.42851 0.99592 0.0
H1722 H 0.52971 0.39538 0.98397 0.0
H1723 H 0.51939 0.3807 0.00038 0.0
H1724 H 0.54416 0.41266 0.00171 0.0
H1725 H 0.4388 0.37824 0.97008 0.0
H1726 H 0.42711 0.39087 0.98365 0.0
H1727 H 0.42992 0.36402 0.98678 0.0
C1728 C 0.13302 0.68258 0.02711 0.0
C1729 C 0.1403 0.685 0.04223 0.0
C1730 C 0.11606 0.65925 0.01954 0.0
C1731 C 0.10606 0.63785 0.02728 0.0
C1732 C 0.113 0.64021 0.04258 0.0
C1733 C 0.13009 0.66372 0.04985 0.0
C1734 C 0.10909 0.65746 0.00322 0.0
C1735 C 0.1027 0.61782 0.05122 0.0
C1736 C 0.04718 0.57941 0.01063 0.0
C1737 C 0.05668 0.56494 0.00478 0.0
C1738 C 0.06304 0.60326 0.01794 0.0
C1739 C 0.08897 0.61285 0.0193 0.0
C1740 C 0.09863 0.59839 0.01323 0.0
C1741 C 0.08234 0.57456 0.00607 0.0
C1742 C 0.05204 0.61807 0.02435 0.0
C1743 C 0.12617 0.60799 0.01443 0.0
H1744 H 0.14053 0.69896 0.02119 0.0
H1745 H 0.13588 0.66534 0.06148 0.0
H1746 H 0.11458 0.64532 0.9971 0.0
H1747 H 0.08871 0.64879 0.00092 0.0
H1748 H 0.11808 0.67593 0.99889 0.0
H1749 H 0.1091 0.62296 0.06318 0.0
H1750 H 0.08215 0.60784 0.04984 0.0
H1751 H 0.10846 0.60462 0.04694 0.0
H1752 H 0.02733 0.57203 0.00957 0.0
H1753 H 0.08972 0.56338 0.00155 0.0
H1754 H 0.05972 0.63617 0.01964 0.0
H1755 H 0.05715 0.62219 0.03645 0.0
H1756 H 0.03152 0.60805 0.02219 0.0
H1757 H 0.13581 0.62584 0.00948 0.0
H1758 H 0.1307 0.59462 0.00884 0.0
H1759 H 0.13363 0.61173 0.0262 0.0
C1760 C 0.33528 0.46018 0.0516 0.0
C1761 C 0.33673 0.45786 0.06681 0.0
C1762 C 0.35529 0.46538 0.04339 0.0
C1763 C 0.377 0.46709 0.05029 0.0
C1764 C 0.37849 0.46409 0.06549 0.0
C1765 C 0.35863 0.46007 0.07361 0.0
C1766 C 0.35323 0.46924 0.02731 0.0
C1767 C 0.40098 0.46487 0.07314 0.0
C1768 C 0.41785 0.45746 0.02451 0.0
C1769 C 0.43741 0.48185 0.02432 0.0
C1770 C 0.39843 0.45229 0.03327 0.0
C1771 C 0.39814 0.47212 0.04157 0.0
C1772 C 0.41775 0.49684 0.04122 0.0
C1773 C 0.43737 0.50134 0.03281 0.0
C1774 C 0.3784 0.4256 0.0338 0.0
C1775 C 0.41785 0.51861 0.04954 0.0
H1776 H 0.31842 0.45779 0.04596 0.0
H1777 H 0.36047 0.45883 0.08534 0.0
H1778 H 0.36907 0.48739 0.02517 0.0
H1779 H 0.35404 0.45453 0.02032 0.0
H1780 H 0.33573 0.4689 0.02383 0.0
H1781 H 0.39914 0.46182 0.08496 0.0
H1782 H 0.40394 0.45034 0.06758 0.0
H1783 H 0.41779 0.48306 0.07234 0.0
H1784 H 0.41807 0.44235 0.01811 0.0
H1785 H 0.4525 0.52023 0.03265 0.0
H1786 H 0.36028 0.42283 0.02923 0.0
H1787 H 0.37666 0.42114 0.0454 0.0
H1788 H 0.38217 0.41225 0.02746 0.0
H1789 H 0.40053 0.51867 0.04619 0.0
H1790 H 0.43393 0.53674 0.04758 0.0
H1791 H 0.41843 0.51685 0.06154 0.0
C1792 C 0.54565 0.8982 0.05909 0.0
C1793 C 0.53781 0.87348 0.05378 0.0
C1794 C 0.53848 0.91271 0.05126 0.0
C1795 C 0.52381 0.90256 0.03755 0.0
C1796 C 0.51579 0.8777 0.03212 0.0
C1797 C 0.52246 0.86336 0.04041 0.0
C1798 C 0.54661 0.9389 0.05762 0.0
C1799 C 0.50049 0.86634 0.0174 0.0
C1800 C 0.4881 0.9299 0.01917 0.0
C1801 C 0.50454 0.94431 0.00934 0.0
C1802 C 0.49467 0.91723 0.02903 0.0
C1803 C 0.51769 0.91812 0.02846 0.0
C1804 C 0.53431 0.93273 0.0185 0.0
C1805 C 0.52772 0.94613 0.00927 0.0
C1806 C 0.47701 0.90292 0.04001 0.0
C1807 C 0.55872 0.93365 0.01728 0.0
H1808 H 0.55766 0.90641 0.0693 0.0
H1809 H 0.51549 0.8441 0.03637 0.0
H1810 H 0.55818 0.95245 0.05009 0.0
H1811 H 0.53015 0.941 0.05869 0.0
H1812 H 0.55736 0.9438 0.06862 0.0
H1813 H 0.49624 0.84691 0.01459 0.0
H1814 H 0.48277 0.86635 0.01747 0.0
H1815 H 0.51054 0.87765 0.00856 0.0
H1816 H 0.47038 0.92906 0.01939 0.0
H1817 H 0.5404 0.95751 0.00168 0.0
H1818 H 0.48686 0.90837 0.05129 0.0
H1819 H 0.46978 0.88271 0.03742 0.0
H1820 H 0.46107 0.90616 0.03998 0.0
H1821 H 0.57009 0.94033 0.0281 0.0
H1822 H 0.56955 0.94601 0.00901 0.0
H1823 H 0.55533 0.91464 0.01409 0.0
C1824 C 0.01211 0.243 0.39774 0.0
C1825 C 0.00378 0.21756 0.398 0.0
C1826 C 0.0325 0.2581 0.39017 0.0
C1827 C 0.04493 0.24754 0.3828 0.0
C1828 C 0.03697 0.22201 0.38337 0.0
C1829 C 0.01647 0.20734 0.39092 0.0
C1830 C 0.04041 0.28524 0.38979 0.0
C1831 C 0.04992 0.2101 0.37584 0.0
C1832 C 0.08152 0.27797 0.35085 0.0
C1833 C 0.10597 0.2905 0.35757 0.0
C1834 C 0.06147 0.26428 0.359 0.0
C1835 C 0.06595 0.26298 0.37422 0.0
C1836 C 0.09056 0.27577 0.3811 0.0
C1837 C 0.11023 0.28934 0.37271 0.0
C1838 C 0.03548 0.251 0.35128 0.0
C1839 C 0.09617 0.27478 0.39728 0.0
H1840 H 0.00225 0.25094 0.4031 0.0
H1841 H 0.0103 0.18775 0.39127 0.0
H1842 H 0.06023 0.29708 0.39406 0.0
H1843 H 0.03852 0.28912 0.37823 0.0
H1844 H 0.02925 0.29075 0.3964 0.0
H1845 H 0.04189 0.19019 0.3777 0.0
H1846 H 0.04859 0.21141 0.3638 0.0
H1847 H 0.0699 0.22017 0.37993 0.0
H1848 H 0.07799 0.27881 0.33921 0.0
H1849 H 0.12902 0.29894 0.37805 0.0
H1850 H 0.02386 0.25707 0.35693 0.0
H1851 H 0.02693 0.23065 0.35183 0.0
H1852 H 0.03504 0.25453 0.33952 0.0
H1853 H 0.08477 0.27977 0.404 0.0
H1854 H 0.11602 0.28752 0.40126 0.0
H1855 H 0.09133 0.25554 0.39923 0.0
C1856 C 0.81883 0.81869 0.38586 0.0
C1857 C 0.8128 0.79805 0.39369 0.0
C1858 C 0.80028 0.82256 0.37937 0.0
C1859 C 0.77509 0.80535 0.38073 0.0
C1860 C 0.76888 0.7847 0.38881 0.0
C1861 C 0.78781 0.78128 0.39518 0.0
C1862 C 0.80763 0.84486 0.37087 0.0
C1863 C 0.74223 0.76592 0.39046 0.0
C1864 C 0.72809 0.82593 0.3724 0.0
C1865 C 0.71918 0.81564 0.35772 0.0
C1866 C 0.74599 0.82238 0.38014 0.0
C1867 C 0.75523 0.80831 0.37303 0.0
C1868 C 0.74594 0.79746 0.35833 0.0
C1869 C 0.72804 0.80125 0.35088 0.0
C1870 C 0.75535 0.83412 0.39583 0.0
C1871 C 0.75527 0.78225 0.35038 0.0
H1872 H 0.83812 0.83191 0.38486 0.0
H1873 H 0.78299 0.76514 0.40108 0.0
H1874 H 0.79994 0.83858 0.35916 0.0
H1875 H 0.79975 0.8561 0.37533 0.0
H1876 H 0.82806 0.85698 0.37132 0.0
H1877 H 0.74058 0.75162 0.39774 0.0
H1878 H 0.73272 0.77543 0.39506 0.0
H1879 H 0.73231 0.75639 0.37948 0.0
H1880 H 0.72138 0.83705 0.37778 0.0
H1881 H 0.72126 0.79315 0.33954 0.0
H1882 H 0.77535 0.84822 0.3965 0.0
H1883 H 0.75345 0.81984 0.40317 0.0
H1884 H 0.74525 0.84329 0.40005 0.0
H1885 H 0.77541 0.794 0.34947 0.0
H1886 H 0.74558 0.77445 0.33911 0.0
H1887 H 0.75274 0.76667 0.35674 0.0
C1888 C 0.19589 0.00584 0.35808 0.0
C1889 C 0.2122 0.01533 0.37109 0.0
C1890 C 0.18858 0.98224 0.35102 0.0
C1891 C 0.19688 0.96724 0.35744 0.0
C1892 C 0.213 0.97639 0.37065 0.0
C1893 C 0.22092 0.00051 0.37711 0.0
C1894 C 0.17193 0.97335 0.33669 0.0
C1895 C 0.22167 0.96063 0.37805 0.0
C1896 C 0.15813 0.89775 0.34613 0.0
C1897 C 0.17304 0.89412 0.33664 0.0
C1898 C 0.16597 0.92141 0.3533 0.0
C1899 C 0.1887 0.94193 0.35032 0.0
C1900 C 0.2036 0.93827 0.34052 0.0
C1901 C 0.19582 0.91421 0.33405 0.0
C1902 C 0.15015 0.92437 0.36419 0.0
C1903 C 0.22752 0.9598 0.33669 0.0
H1904 H 0.18851 0.01668 0.35341 0.0
H1905 H 0.23403 0.00766 0.38689 0.0
H1906 H 0.18038 0.96753 0.32809 0.0
H1907 H 0.15387 0.95685 0.33816 0.0
H1908 H 0.16847 0.98792 0.33264 0.0
H1909 H 0.23291 0.96993 0.38878 0.0
H1910 H 0.20549 0.94257 0.37998 0.0
H1911 H 0.233 0.95643 0.37079 0.0
H1912 H 0.14067 0.88195 0.34824 0.0
H1913 H 0.20723 0.91116 0.32666 0.0
H1914 H 0.14385 0.93707 0.36038 0.0
H1915 H 0.16124 0.93291 0.37503 0.0
H1916 H 0.13361 0.90632 0.36577 0.0
H1917 H 0.22396 0.97406 0.33226 0.0
H1918 H 0.23639 0.95389 0.3284 0.0
H1919 H 0.24078 0.96883 0.34673 0.0
C1920 C 0.52065 0.66448 0.30179 0.0
C1921 C 0.52532 0.65552 0.28857 0.0
C1922 C 0.53842 0.6873 0.30953 0.0
C1923 C 0.56109 0.70217 0.30364 0.0
C1924 C 0.56583 0.69366 0.29019 0.0
C1925 C 0.54817 0.67025 0.283 0.0
C1926 C 0.5329 0.69549 0.32404 0.0
C1927 C 0.5895 0.70936 0.28333 0.0
C1928 C 0.5947 0.77068 0.31796 0.0
C1929 C 0.61353 0.7724 0.32787 0.0
C1930 C 0.5781 0.74813 0.30952 0.0
C1931 C 0.57978 0.72664 0.31161 0.0
C1932 C 0.59886 0.72839 0.32167 0.0
C1933 C 0.6159 0.75147 0.32946 0.0
C1934 C 0.55878 0.74731 0.29841 0.0
C1935 C 0.60082 0.70578 0.32453 0.0
H1936 H 0.50297 0.65382 0.30612 0.0
H1937 H 0.55247 0.66354 0.27302 0.0
H1938 H 0.54799 0.69982 0.33278 0.0
H1939 H 0.53208 0.71274 0.32312 0.0
H1940 H 0.51507 0.68107 0.32756 0.0
H1941 H 0.5897 0.70074 0.27236 0.0
H1942 H 0.59195 0.72804 0.28203 0.0
H1943 H 0.60565 0.71217 0.29065 0.0
H1944 H 0.59327 0.78712 0.3166 0.0
H1945 H 0.63059 0.75301 0.33716 0.0
H1946 H 0.54001 0.73519 0.30176 0.0
H1947 H 0.5596 0.73918 0.28745 0.0
H1948 H 0.56129 0.76607 0.2973 0.0
H1949 H 0.58346 0.69156 0.3286 0.0
H1950 H 0.61663 0.7103 0.33278 0.0
H1951 H 0.60309 0.69729 0.31415 0.0
C1952 C 0.32849 0.88945 0.27167 0.0
C1953 C 0.33697 0.87249 0.27272 0.0
C1954 C 0.3074 0.88594 0.27832 0.0
C1955 C 0.29449 0.86498 0.28619 0.0
C1956 C 0.30258 0.84747 0.28694 0.0
C1957 C 0.32365 0.85141 0.28019 0.0
C1958 C 0.2993 0.90497 0.27723 0.0
C1959 C 0.28928 0.82479 0.29515 0.0
C1960 C 0.25671 0.86688 0.31687 0.0
C1961 C 0.23236 0.85237 0.31011 0.0
C1962 C 0.27709 0.87161 0.30909 0.0
C1963 C 0.27309 0.8617 0.29417 0.0
C1964 C 0.2486 0.84756 0.28716 0.0
C1965 C 0.22855 0.843 0.29522 0.0
C1966 C 0.30291 0.88674 0.31697 0.0
C1967 C 0.24352 0.83678 0.27124 0.0
H1968 H 0.33876 0.90586 0.266 0.0
H1969 H 0.32978 0.83796 0.28081 0.0
H1970 H 0.27948 0.89573 0.27286 0.0
H1971 H 0.30112 0.91423 0.28837 0.0
H1972 H 0.31043 0.91945 0.27 0.0
H1973 H 0.29747 0.81256 0.29431 0.0
H1974 H 0.29002 0.83063 0.30697 0.0
H1975 H 0.26945 0.81379 0.29076 0.0
H1976 H 0.2599 0.87425 0.32834 0.0
H1977 H 0.20986 0.83177 0.28986 0.0
H1978 H 0.31458 0.90261 0.31077 0.0
H1979 H 0.31167 0.87504 0.31753 0.0
H1980 H 0.30296 0.89409 0.32837 0.0
H1981 H 0.25421 0.85163 0.26415 0.0
H1982 H 0.22354 0.82754 0.26716 0.0
H1983 H 0.24968 0.82292 0.27 0.0
C1984 C 0.1221 0.43338 0.27336 0.0
C1985 C 0.11148 0.44579 0.28055 0.0
C1986 C 0.13028 0.41955 0.28111 0.0
C1987 C 0.128 0.41838 0.29641 0.0
C1988 C 0.11662 0.43021 0.30361 0.0
C1989 C 0.10834 0.44359 0.29558 0.0
C1990 C 0.14203 0.40683 0.27304 0.0
C1991 C 0.11385 0.42938 0.31992 0.0
C1992 C 0.13288 0.36961 0.31695 0.0
C1993 C 0.15733 0.38314 0.32358 0.0
C1994 C 0.12333 0.38055 0.30759 0.0
C1995 C 0.13846 0.40577 0.30513 0.0
C1996 C 0.16323 0.41947 0.31176 0.0
C1997 C 0.17241 0.40792 0.32087 0.0
C1998 C 0.09694 0.36526 0.30057 0.0
C1999 C 0.17986 0.44648 0.30949 0.0
H2000 H 0.12474 0.43511 0.26178 0.0
H2001 H 0.09964 0.45265 0.30113 0.0
H2002 H 0.16193 0.41576 0.27716 0.0
H2003 H 0.13319 0.38701 0.27518 0.0
H2004 H 0.14053 0.40776 0.26094 0.0
H2005 H 0.10395 0.439 0.32376 0.0
H2006 H 0.10355 0.4098 0.32253 0.0
H2007 H 0.13241 0.43833 0.32626 0.0
H2008 H 0.12109 0.35054 0.31921 0.0
H2009 H 0.19135 0.41838 0.32597 0.0
H2010 H 0.09628 0.3663 0.28848 0.0
H2011 H 0.08565 0.3729 0.30497 0.0
H2012 H 0.08832 0.3454 0.30267 0.0
H2013 H 0.18107 0.44861 0.29755 0.0
H2014 H 0.19889 0.45425 0.31505 0.0
H2015 H 0.17188 0.45768 0.31388 0.0
C2016 C 0.32572 0.42625 0.26976 0.0
C2017 C 0.33524 0.45204 0.27097 0.0
C2018 C 0.30566 0.4107 0.27742 0.0
C2019 C 0.29471 0.42119 0.28635 0.0
C2020 C 0.30402 0.44718 0.28741 0.0
C2021 C 0.32423 0.46228 0.27978 0.0
C2022 C 0.29637 0.38311 0.27611 0.0
C2023 C 0.29266 0.45906 0.29663 0.0
C2024 C 0.22916 0.38024 0.29635 0.0
C2025 C 0.23344 0.3766 0.31101 0.0
C2026 C 0.2489 0.3944 0.28813 0.0
C2027 C 0.27358 0.40511 0.29468 0.0
C2028 C 0.27805 0.40121 0.3094 0.0
C2029 C 0.25795 0.3871 0.31741 0.0
C2030 C 0.24332 0.39828 0.27251 0.0
C2031 C 0.30411 0.41213 0.31673 0.0
H2032 H 0.33429 0.4183 0.26304 0.0
H2033 H 0.33131 0.48217 0.28058 0.0
H2034 H 0.29794 0.37722 0.28716 0.0
H2035 H 0.27648 0.37261 0.27183 0.0
H2036 H 0.30684 0.37786 0.26869 0.0
H2037 H 0.30181 0.47949 0.29609 0.0
H2038 H 0.27267 0.45061 0.29285 0.0
H2039 H 0.29404 0.45556 0.30832 0.0
H2040 H 0.21033 0.37229 0.29129 0.0
H2041 H 0.26147 0.38427 0.32868 0.0
H2042 H 0.25321 0.39269 0.26485 0.0
H2043 H 0.25005 0.41832 0.27175 0.0
H2044 H 0.22319 0.38754 0.26875 0.0
H2045 H 0.3148 0.40614 0.31002 0.0
H2046 H 0.30447 0.40651 0.32802 0.0
H2047 H 0.31371 0.43275 0.31746 0.0
C2048 C 0.56001 0.89125 0.26878 0.0
C2049 C 0.53441 0.87536 0.26893 0.0
C2050 C 0.57717 0.88676 0.27655 0.0
C2051 C 0.56856 0.86596 0.28477 0.0
C2052 C 0.54277 0.84992 0.28505 0.0
C2053 C 0.52599 0.8548 0.27712 0.0
C2054 C 0.60453 0.90432 0.276 0.0
C2055 C 0.5329 0.82755 0.2937 0.0
C2056 C 0.61222 0.84196 0.29463 0.0
C2057 C 0.62113 0.85259 0.30925 0.0
C2058 C 0.59508 0.84612 0.28652 0.0
C2059 C 0.58659 0.86121 0.29321 0.0
C2060 C 0.59549 0.87199 0.30795 0.0
C2061 C 0.61269 0.86759 0.31578 0.0
C2062 C 0.58612 0.8344 0.2708 0.0
C2063 C 0.5868 0.88812 0.31548 0.0
H2064 H 0.56667 0.90739 0.26267 0.0
H2065 H 0.50626 0.84227 0.27714 0.0
H2066 H 0.61361 0.91284 0.28728 0.0
H2067 H 0.61335 0.8939 0.2717 0.0
H2068 H 0.60818 0.91945 0.26893 0.0
H2069 H 0.51233 0.81694 0.29281 0.0
H2070 H 0.5395 0.81491 0.28968 0.0
H2071 H 0.54004 0.83357 0.30551 0.0
H2072 H 0.61859 0.83031 0.28948 0.0
H2073 H 0.61937 0.87581 0.32708 0.0
H2074 H 0.59112 0.84912 0.26324 0.0
H2075 H 0.56563 0.82263 0.26948 0.0
H2076 H 0.59416 0.82274 0.26733 0.0
H2077 H 0.59131 0.90439 0.30928 0.0
H2078 H 0.59541 0.89499 0.32702 0.0
H2079 H 0.56637 0.87747 0.31555 0.0
C2080 C 0.13452 0.66947 0.28851 0.0
C2081 C 0.12438 0.6485 0.29639 0.0
C2082 C 0.14168 0.69316 0.29535 0.0
C2083 C 0.13887 0.696 0.31048 0.0
C2084 C 0.12866 0.67496 0.31851 0.0
C2085 C 0.12144 0.65144 0.31136 0.0
C2086 C 0.1524 0.71518 0.2864 0.0
C2087 C 0.12542 0.67732 0.33467 0.0
C2088 C 0.17895 0.76037 0.33098 0.0
C2089 C 0.16226 0.76915 0.33125 0.0
C2090 C 0.17149 0.73642 0.32441 0.0
C2091 C 0.1468 0.72106 0.3179 0.0
C2092 C 0.12983 0.72982 0.31826 0.0
C2093 C 0.13774 0.75374 0.32503 0.0
C2094 C 0.19005 0.72764 0.32432 0.0
C2095 C 0.10342 0.71406 0.31132 0.0
H2096 H 0.13723 0.66744 0.27701 0.0
H2097 H 0.1133 0.63528 0.31747 0.0
H2098 H 0.14137 0.72465 0.28689 0.0
H2099 H 0.17159 0.72894 0.29112 0.0
H2100 H 0.15279 0.70971 0.27466 0.0
H2101 H 0.11729 0.65914 0.33935 0.0
H2102 H 0.1436 0.69029 0.341 0.0
H2103 H 0.11322 0.68527 0.33628 0.0
H2104 H 0.19792 0.77228 0.33582 0.0
H2105 H 0.12476 0.76046 0.32533 0.0
H2106 H 0.19275 0.72364 0.31279 0.0
H2107 H 0.18295 0.71007 0.32957 0.0
H2108 H 0.20833 0.74161 0.33021 0.0
H2109 H 0.10324 0.70949 0.29937 0.0
H2110 H 0.0925 0.72354 0.31269 0.0
H2111 H 0.09411 0.6962 0.3163 0.0
C2112 C 0.80547 0.01407 0.36119 0.0
C2113 C 0.81192 0.01623 0.37641 0.0
C2114 C 0.78849 0.99094 0.35343 0.0
C2115 C 0.77756 0.96947 0.36108 0.0
C2116 C 0.78373 0.97154 0.37646 0.0
C2117 C 0.80089 0.99487 0.38392 0.0
C2118 C 0.78235 0.98946 0.33703 0.0
C2119 C 0.77239 0.94906 0.38501 0.0
C2120 C 0.71791 0.91273 0.34367 0.0
C2121 C 0.72666 0.89747 0.33799 0.0
C2122 C 0.73427 0.93624 0.35121 0.0
C2123 C 0.75999 0.94474 0.35296 0.0
C2124 C 0.76893 0.92951 0.34704 0.0
C2125 C 0.75213 0.90601 0.33965 0.0
C2126 C 0.72402 0.95187 0.35745 0.0
C2127 C 0.79623 0.93797 0.34862 0.0
H2128 H 0.8136 0.03053 0.35534 0.0
H2129 H 0.80601 0.99629 0.39563 0.0
H2130 H 0.78726 0.97668 0.3311 0.0
H2131 H 0.76214 0.98169 0.33443 0.0
H2132 H 0.79233 0.00792 0.33274 0.0
H2133 H 0.77854 0.95395 0.397 0.0
H2134 H 0.75187 0.93983 0.38345 0.0
H2135 H 0.77748 0.93531 0.38078 0.0
H2136 H 0.69823 0.90622 0.34231 0.0
H2137 H 0.75892 0.89422 0.33525 0.0
H2138 H 0.73255 0.97005 0.3528 0.0
H2139 H 0.72877 0.95577 0.36957 0.0
H2140 H 0.70357 0.9426 0.35505 0.0
H2141 H 0.80676 0.95582 0.34377 0.0
H2142 H 0.8002 0.92409 0.34317 0.0
H2143 H 0.80321 0.94138 0.36047 0.0
C2144 C 0.01442 0.8075 0.39263 0.0
C2145 C 0.00309 0.78631 0.40027 0.0
C2146 C 0.03413 0.81199 0.38429 0.0
C2147 C 0.04281 0.7949 0.38356 0.0
C2148 C 0.03161 0.77355 0.39133 0.0
C2149 C 0.0119 0.76953 0.3996 0.0
C2150 C 0.0457 0.83508 0.37628 0.0
C2151 C 0.04043 0.75497 0.39088 0.0
C2152 C 0.07923 0.79607 0.35132 0.0
C2153 C 0.10377 0.81057 0.35776 0.0
C2154 C 0.0592 0.79052 0.35964 0.0
C2155 C 0.0638 0.79957 0.37477 0.0
C2156 C 0.08852 0.8138 0.3814 0.0
C2157 C 0.10816 0.81922 0.37281 0.0
C2158 C 0.0331 0.77529 0.35217 0.0
C2159 C 0.09431 0.82376 0.3975 0.0
H2160 H 0.008 0.82077 0.39328 0.0
H2161 H 0.00311 0.753 0.40536 0.0
H2162 H 0.06564 0.84682 0.38028 0.0
H2163 H 0.04447 0.82983 0.36431 0.0
H2164 H 0.03661 0.84638 0.37784 0.0
H2165 H 0.02978 0.73933 0.39753 0.0
H2166 H 0.03873 0.74725 0.37933 0.0
H2167 H 0.06032 0.76435 0.39512 0.0
H2168 H 0.07562 0.7893 0.33972 0.0
H2169 H 0.12702 0.83034 0.37796 0.0
H2170 H 0.02377 0.78648 0.35261 0.0
H2171 H 0.02223 0.75872 0.35808 0.0
H2172 H 0.0326 0.76897 0.34046 0.0
H2173 H 0.08962 0.83866 0.39923 0.0
H2174 H 0.11418 0.83157 0.40142 0.0
H2175 H 0.08298 0.80889 0.40443 0.0
C2176 C 0.21992 0.23271 0.39278 0.0
C2177 C 0.23155 0.22132 0.38563 0.0
C2178 C 0.21145 0.24639 0.38515 0.0
C2179 C 0.21435 0.24837 0.36996 0.0
C2180 C 0.22668 0.23756 0.36277 0.0
C2181 C 0.23532 0.22436 0.37073 0.0
C2182 C 0.19871 0.25803 0.39322 0.0
C2183 C 0.23004 0.23923 0.34656 0.0
C2184 C 0.16883 0.25825 0.34618 0.0
C2185 C 0.18315 0.28346 0.34413 0.0
C2186 C 0.17874 0.24663 0.35466 0.0
C2187 C 0.20344 0.26071 0.36136 0.0
C2188 C 0.21786 0.28628 0.35948 0.0
C2189 C 0.20762 0.29728 0.35071 0.0
C2190 C 0.16289 0.21924 0.35629 0.0
C2191 C 0.24413 0.30195 0.36664 0.0
H2192 H 0.21666 0.23026 0.40424 0.0
H2193 H 0.24474 0.21608 0.36519 0.0
H2194 H 0.20703 0.27793 0.39134 0.0
H2195 H 0.17887 0.2486 0.38887 0.0
H2196 H 0.1999 0.25667 0.40528 0.0
H2197 H 0.24072 0.23047 0.34274 0.0
H2198 H 0.21164 0.22987 0.34 0.0
H2199 H 0.23978 0.25898 0.34423 0.0
H2200 H 0.1499 0.24755 0.34107 0.0
H2201 H 0.21884 0.31669 0.34892 0.0
H2202 H 0.16116 0.21633 0.36812 0.0
H2203 H 0.17184 0.20902 0.35188 0.0
H2204 H 0.14401 0.21101 0.35042 0.0
H2205 H 0.24464 0.30065 0.3787 0.0
H2206 H 0.25237 0.32185 0.3647 0.0
H2207 H 0.25586 0.29485 0.36225 0.0
C2208 C 0.68185 0.54164 0.72476 0.0
C2209 C 0.66982 0.55212 0.73235 0.0
C2210 C 0.70256 0.55633 0.71737 0.0
C2211 C 0.71147 0.58217 0.71753 0.0
C2212 C 0.69976 0.59299 0.72544 0.0
C2213 C 0.6791 0.57783 0.73279 0.0
C2214 C 0.71468 0.54412 0.70921 0.0
C2215 C 0.70869 0.62045 0.72583 0.0
C2216 C 0.77693 0.62288 0.70732 0.0
C2217 C 0.77259 0.62523 0.6924 0.0
C2218 C 0.75725 0.60923 0.7157 0.0
C2219 C 0.73257 0.59764 0.70901 0.0
C2220 C 0.72803 0.60013 0.69401 0.0
C2221 C 0.74807 0.61385 0.68588 0.0
C2222 C 0.7629 0.60704 0.73167 0.0
C2223 C 0.70196 0.58807 0.68649 0.0
H2224 H 0.675 0.52184 0.72458 0.0
H2225 H 0.66977 0.58601 0.73854 0.0
H2226 H 0.71336 0.54627 0.69727 0.0
H2227 H 0.73466 0.55337 0.7132 0.0
H2228 H 0.706 0.52397 0.71057 0.0
H2229 H 0.6982 0.62615 0.73296 0.0
H2230 H 0.72864 0.63148 0.72995 0.0
H2231 H 0.70674 0.62522 0.71451 0.0
H2232 H 0.79578 0.63152 0.71249 0.0
H2233 H 0.74449 0.6156 0.67439 0.0
H2234 H 0.75489 0.58716 0.73353 0.0
H2235 H 0.75421 0.61487 0.73885 0.0
H2236 H 0.78312 0.6169 0.73517 0.0
H2237 H 0.69275 0.56758 0.68654 0.0
H2238 H 0.70153 0.59241 0.67489 0.0
H2239 H 0.69095 0.5944 0.6926 0.0
C2240 C 0.45352 0.11672 0.72941 0.0
C2241 C 0.47841 0.13354 0.7277 0.0
C2242 C 0.43439 0.12002 0.72326 0.0
C2243 C 0.44027 0.14057 0.71515 0.0
C2244 C 0.46535 0.15779 0.71353 0.0
C2245 C 0.48412 0.15408 0.71983 0.0
C2246 C 0.40787 0.10123 0.7252 0.0
C2247 C 0.47233 0.17994 0.70494 0.0
C2248 C 0.39198 0.13546 0.68586 0.0
C2249 C 0.38319 0.14982 0.69283 0.0
C2250 C 0.41034 0.13211 0.69308 0.0
C2251 C 0.42014 0.14332 0.70766 0.0
C2252 C 0.41101 0.15741 0.7149 0.0
C2253 C 0.39265 0.16053 0.70738 0.0
C2254 C 0.41958 0.11694 0.68499 0.0
C2255 C 0.42091 0.1695 0.73049 0.0
H2256 H 0.44892 0.10062 0.73531 0.0
H2257 H 0.50333 0.16735 0.71866 0.0
H2258 H 0.39846 0.11076 0.72991 0.0
H2259 H 0.39765 0.09153 0.71431 0.0
H2260 H 0.4065 0.08707 0.73251 0.0
H2261 H 0.49272 0.19208 0.70515 0.0
H2262 H 0.46428 0.17348 0.69329 0.0
H2263 H 0.46456 0.19121 0.70951 0.0
H2264 H 0.38481 0.12709 0.67463 0.0
H2265 H 0.38598 0.17166 0.71286 0.0
H2266 H 0.41733 0.10145 0.69136 0.0
H2267 H 0.43965 0.12874 0.6839 0.0
H2268 H 0.40963 0.109 0.6738 0.0
H2269 H 0.41901 0.15534 0.73792 0.0
H2270 H 0.41116 0.17902 0.73475 0.0
H2271 H 0.44095 0.18336 0.73093 0.0
C2272 C 0.86812 0.34072 0.69012 0.0
C2273 C 0.88387 0.34995 0.70337 0.0
C2274 C 0.86049 0.31696 0.68319 0.0
C2275 C 0.86781 0.3015 0.68999 0.0
C2276 C 0.88351 0.31046 0.70336 0.0
C2277 C 0.89184 0.33474 0.70968 0.0
C2278 C 0.84439 0.30833 0.66866 0.0
C2279 C 0.89111 0.29421 0.71116 0.0
C2280 C 0.82635 0.23215 0.67919 0.0
C2281 C 0.84082 0.22717 0.67002 0.0
C2282 C 0.83524 0.25618 0.68612 0.0
C2283 C 0.85863 0.27576 0.68322 0.0
C2284 C 0.87311 0.27078 0.67373 0.0
C2285 C 0.86424 0.24633 0.66751 0.0
C2286 C 0.81975 0.26055 0.69666 0.0
C2287 C 0.89769 0.29132 0.66992 0.0
H2288 H 0.86129 0.35183 0.6852 0.0
H2289 H 0.90453 0.34168 0.71965 0.0
H2290 H 0.85246 0.30137 0.66042 0.0
H2291 H 0.82574 0.29266 0.67008 0.0
H2292 H 0.84221 0.3234 0.66419 0.0
H2293 H 0.90257 0.30364 0.72181 0.0
H2294 H 0.87439 0.27678 0.71333 0.0
H2295 H 0.90182 0.28884 0.70407 0.0
H2296 H 0.80836 0.21708 0.68124 0.0
H2297 H 0.87529 0.24228 0.66035 0.0
H2298 H 0.81421 0.27354 0.69237 0.0
H2299 H 0.8308 0.26936 0.70749 0.0
H2300 H 0.80274 0.24303 0.69841 0.0
H2301 H 0.89513 0.30588 0.66505 0.0
H2302 H 0.90625 0.2844 0.66199 0.0
H2303 H 0.91077 0.30031 0.68004 0.0
C2304 C 0.21612 0.00122 0.6188 0.0
C2305 C 0.1929 0.98638 0.62393 0.0
C2306 C 0.2331 0.02493 0.62591 0.0
C2307 C 0.22729 0.03363 0.63889 0.0
C2308 C 0.20428 0.01862 0.64438 0.0
C2309 C 0.18719 0.99551 0.63668 0.0
C2310 C 0.25716 0.04075 0.61945 0.0
C2311 C 0.19768 0.02698 0.65843 0.0
C2312 C 0.28054 0.08449 0.6649 0.0
C2313 C 0.27781 0.10501 0.66257 0.0
C2314 C 0.26405 0.06102 0.65735 0.0
C2315 C 0.24523 0.05846 0.64675 0.0
C2316 C 0.24314 0.07951 0.64397 0.0
C2317 C 0.25915 0.10248 0.65218 0.0
C2318 C 0.26635 0.03888 0.661 0.0
C2319 C 0.22408 0.0778 0.6323 0.0
H2320 H 0.22123 0.99439 0.60922 0.0
H2321 H 0.16922 0.98476 0.64065 0.0
H2322 H 0.25932 0.05918 0.61769 0.0
H2323 H 0.27303 0.04413 0.62725 0.0
H2324 H 0.25818 0.03193 0.60878 0.0
H2325 H 0.17977 0.01239 0.66177 0.0
H2326 H 0.21243 0.03199 0.66754 0.0
H2327 H 0.19639 0.04385 0.65697 0.0
H2328 H 0.29507 0.08666 0.67298 0.0
H2329 H 0.25745 0.11861 0.65027 0.0
H2330 H 0.2695 0.03024 0.65101 0.0
H2331 H 0.2488 0.02457 0.66485 0.0
H2332 H 0.28176 0.04399 0.66969 0.0
H2333 H 0.22563 0.06944 0.62162 0.0
H2334 H 0.22619 0.09629 0.63072 0.0
H2335 H 0.20517 0.06548 0.63539 0.0
C2336 C 0.99168 0.21878 0.6036 0.0
C2337 C 0.99982 0.20151 0.60433 0.0
C2338 C 0.97063 0.21526 0.61028 0.0
C2339 C 0.9574 0.19397 0.61784 0.0
C2340 C 0.96508 0.17611 0.6182 0.0
C2341 C 0.98615 0.18009 0.61144 0.0
C2342 C 0.96294 0.23466 0.60959 0.0
C2343 C 0.95138 0.15306 0.62605 0.0
C2344 C 0.92052 0.19603 0.64898 0.0
C2345 C 0.89607 0.18226 0.64228 0.0
C2346 C 0.94063 0.2004 0.64105 0.0
C2347 C 0.93627 0.19087 0.62602 0.0
C2348 C 0.91169 0.17749 0.61908 0.0
C2349 C 0.8919 0.17325 0.6273 0.0
C2350 C 0.96656 0.21476 0.64886 0.0
C2351 C 0.90623 0.16711 0.60307 0.0
H2352 H 0.00223 0.23545 0.5982 0.0
H2353 H 0.99206 0.16644 0.61181 0.0
H2354 H 0.94314 0.22581 0.60525 0.0
H2355 H 0.96491 0.24359 0.62086 0.0
H2356 H 0.97423 0.24935 0.60253 0.0
H2357 H 0.95914 0.14049 0.62481 0.0
H2358 H 0.95233 0.15845 0.63797 0.0
H2359 H 0.93152 0.14259 0.6217 0.0
H2360 H 0.92398 0.2031 0.66052 0.0
H2361 H 0.87311 0.16267 0.62199 0.0
H2362 H 0.97842 0.23083 0.64283 0.0
H2363 H 0.97489 0.20266 0.64902 0.0
H2364 H 0.9669 0.22178 0.6604 0.0
H2365 H 0.91833 0.18156 0.59614 0.0
H2366 H 0.88659 0.15995 0.59885 0.0
H2367 H 0.91019 0.15164 0.60176 0.0
C2368 C 0.77939 0.75939 0.6106 0.0
C2369 C 0.78659 0.78404 0.61573 0.0
C2370 C 0.78796 0.74582 0.6183 0.0
C2371 C 0.80329 0.75679 0.63174 0.0
C2372 C 0.81074 0.78159 0.63695 0.0
C2373 C 0.80277 0.79504 0.62873 0.0
C2374 C 0.78043 0.71969 0.61214 0.0
C2375 C 0.82677 0.79384 0.65137 0.0
C2376 C 0.8034 0.71547 0.66051 0.0
C2377 C 0.82708 0.71862 0.66012 0.0
C2378 C 0.79527 0.72759 0.65118 0.0
C2379 C 0.81083 0.74217 0.64078 0.0
C2380 C 0.83428 0.7442 0.63982 0.0
C2381 C 0.84242 0.73291 0.64982 0.0
C2382 C 0.77046 0.72556 0.65284 0.0
C2383 C 0.85082 0.75841 0.62836 0.0
H2384 H 0.76677 0.75048 0.60067 0.0
H2385 H 0.80932 0.81429 0.6326 0.0
H2386 H 0.79699 0.71756 0.61177 0.0
H2387 H 0.7681 0.70616 0.61943 0.0
H2388 H 0.77055 0.7148 0.60087 0.0
H2389 H 0.8303 0.81303 0.65409 0.0
H2390 H 0.81771 0.78262 0.66047 0.0
H2391 H 0.84484 0.79467 0.6509 0.0
H2392 H 0.79161 0.7042 0.66848 0.0
H2393 H 0.86056 0.7348 0.64937 0.0
H2394 H 0.75858 0.71824 0.6422 0.0
H2395 H 0.77315 0.74431 0.65597 0.0
H2396 H 0.76052 0.71322 0.66135 0.0
H2397 H 0.84016 0.75264 0.6173 0.0
H2398 H 0.86689 0.75545 0.62787 0.0
H2399 H 0.8579 0.7786 0.63091 0.0
C2400 C 0.99052 0.75826 0.60299 0.0
C2401 C 0.00239 0.7843 0.60541 0.0
C2402 C 0.97018 0.7431 0.61058 0.0
C2403 C 0.96156 0.75424 0.62086 0.0
C2404 C 0.97324 0.78049 0.62319 0.0
C2405 C 0.99341 0.79516 0.61542 0.0
C2406 C 0.95804 0.71517 0.60771 0.0
C2407 C 0.96442 0.7931 0.63391 0.0
C2408 C 0.89604 0.71681 0.63169 0.0
C2409 C 0.90015 0.71003 0.6455 0.0
C2410 C 0.91582 0.73112 0.62354 0.0
C2411 C 0.94032 0.73855 0.62922 0.0
C2412 C 0.9446 0.73165 0.64311 0.0
C2413 C 0.92449 0.71756 0.65111 0.0
C2414 C 0.91043 0.73822 0.60883 0.0
C2415 C 0.97048 0.73934 0.64957 0.0
H2416 H 0.99743 0.74971 0.59537 0.0
H2417 H 0.00208 0.81524 0.61712 0.0
H2418 H 0.95905 0.7072 0.61809 0.0
H2419 H 0.93813 0.70704 0.60383 0.0
H2420 H 0.96687 0.7094 0.59933 0.0
H2421 H 0.97555 0.81372 0.63449 0.0
H2422 H 0.94474 0.78714 0.63063 0.0
H2423 H 0.96543 0.78746 0.64511 0.0
H2424 H 0.87734 0.71121 0.62727 0.0
H2425 H 0.92785 0.71237 0.66175 0.0
H2426 H 0.91403 0.72796 0.59987 0.0
H2427 H 0.92279 0.75838 0.60805 0.0
H2428 H 0.89094 0.73389 0.60693 0.0
H2429 H 0.97939 0.73257 0.64183 0.0
H2430 H 0.97065 0.73202 0.66034 0.0
H2431 H 0.98195 0.75995 0.65116 0.0
C2432 C 0.19221 0.19018 0.61054 0.0
C2433 C 0.20074 0.21155 0.60307 0.0
C2434 C 0.20885 0.18537 0.61869 0.0
C2435 C 0.23463 0.20233 0.61938 0.0
C2436 C 0.24336 0.22396 0.6119 0.0
C2437 C 0.22632 0.22833 0.60386 0.0
C2438 C 0.19884 0.16208 0.62651 0.0
C2439 C 0.27071 0.2425 0.61239 0.0
C2440 C 0.2765 0.20177 0.65105 0.0
C2441 C 0.28604 0.18789 0.64435 0.0
C2442 C 0.2598 0.20664 0.64304 0.0
C2443 C 0.25249 0.19748 0.62796 0.0
C2444 C 0.26218 0.18363 0.62109 0.0
C2445 C 0.2788 0.17898 0.62937 0.0
C2446 C 0.24983 0.22145 0.65075 0.0
C2447 C 0.25491 0.17362 0.60501 0.0
H2448 H 0.17251 0.17697 0.60983 0.0
H2449 H 0.23303 0.24506 0.5983 0.0
H2450 H 0.20636 0.15034 0.62234 0.0
H2451 H 0.20494 0.16707 0.63849 0.0
H2452 H 0.17828 0.15089 0.62499 0.0
H2453 H 0.27448 0.25831 0.60589 0.0
H2454 H 0.27867 0.24998 0.62397 0.0
H2455 H 0.28052 0.23316 0.60801 0.0
H2456 H 0.28192 0.2087 0.66262 0.0
H2457 H 0.28603 0.16824 0.62407 0.0
H2458 H 0.22935 0.21015 0.65023 0.0
H2459 H 0.25435 0.23825 0.64509 0.0
H2460 H 0.2575 0.22741 0.66251 0.0
H2461 H 0.2346 0.16071 0.60308 0.0
H2462 H 0.26444 0.16356 0.60127 0.0
H2463 H 0.25942 0.18909 0.5981 0.0
C2464 C 0.79345 0.98383 0.64526 0.0
C2465 C 0.77686 0.97424 0.63236 0.0
C2466 C 0.80155 0.00781 0.65203 0.0
C2467 C 0.79377 0.02307 0.64543 0.0
C2468 C 0.7769 0.01359 0.63253 0.0
C2469 C 0.76817 0.98912 0.62639 0.0
C2470 C 0.81886 0.01699 0.6661 0.0
C2471 C 0.76868 0.02955 0.62494 0.0
C2472 C 0.80023 0.0802 0.66725 0.0
C2473 C 0.82319 0.0988 0.66368 0.0
C2474 C 0.79067 0.0553 0.66167 0.0
C2475 C 0.8039 0.04924 0.65175 0.0
C2476 C 0.82685 0.06823 0.64783 0.0
C2477 C 0.83652 0.09278 0.65414 0.0
C2478 C 0.76667 0.03547 0.66657 0.0
C2479 C 0.84098 0.06268 0.63681 0.0
H2480 H 0.80076 0.97294 0.64994 0.0
H2481 H 0.75476 0.98187 0.61674 0.0
H2482 H 0.83742 0.03207 0.66399 0.0
H2483 H 0.81193 0.0249 0.67455 0.0
H2484 H 0.82099 0.00195 0.67068 0.0
H2485 H 0.75591 0.01954 0.61478 0.0
H2486 H 0.75921 0.03583 0.6325 0.0
H2487 H 0.7851 0.04648 0.62193 0.0
H2488 H 0.79008 0.08507 0.6747 0.0
H2489 H 0.85415 0.1074 0.65129 0.0
H2490 H 0.76955 0.02111 0.67146 0.0
H2491 H 0.75251 0.02599 0.65696 0.0
H2492 H 0.75925 0.0432 0.67482 0.0
H2493 H 0.84658 0.04972 0.64106 0.0
H2494 H 0.85787 0.07977 0.63439 0.0
H2495 H 0.82892 0.05338 0.62634 0.0
C2496 C 0.46906 0.3491 0.6955 0.0
C2497 C 0.47615 0.35168 0.71066 0.0
C2498 C 0.45183 0.32579 0.68804 0.0
C2499 C 0.4414 0.30457 0.69592 0.0
C2500 C 0.44828 0.30706 0.71124 0.0
C2501 C 0.46562 0.33055 0.7184 0.0
C2502 C 0.44492 0.32383 0.67169 0.0
C2503 C 0.43754 0.28484 0.72002 0.0
C2504 C 0.38153 0.24696 0.67961 0.0
C2505 C 0.39034 0.23185 0.6738 0.0
C2506 C 0.39794 0.27075 0.68681 0.0
C2507 C 0.42374 0.27961 0.6881 0.0
C2508 C 0.43272 0.26447 0.68211 0.0
C2509 C 0.41588 0.24073 0.67504 0.0
C2510 C 0.38768 0.28631 0.69313 0.0
C2511 C 0.46009 0.27328 0.68325 0.0
H2512 H 0.47686 0.36538 0.68949 0.0
H2513 H 0.47127 0.3323 0.73007 0.0
H2514 H 0.44978 0.31109 0.66569 0.0
H2515 H 0.42461 0.31579 0.66941 0.0
H2516 H 0.45444 0.34217 0.66722 0.0
H2517 H 0.44417 0.29007 0.73195 0.0
H2518 H 0.41701 0.27541 0.71876 0.0
H2519 H 0.44266 0.27112 0.71576 0.0
H2520 H 0.36178 0.24015 0.67858 0.0
H2521 H 0.42272 0.22905 0.67055 0.0
H2522 H 0.39577 0.3043 0.68828 0.0
H2523 H 0.39296 0.29062 0.70521 0.0
H2524 H 0.36717 0.27679 0.69105 0.0
H2525 H 0.47014 0.29094 0.67815 0.0
H2526 H 0.46406 0.25939 0.67778 0.0
H2527 H 0.46762 0.27713 0.69502 0.0
C2528 C 0.67954 0.1071 0.73391 0.0
C2529 C 0.6695 0.12285 0.73368 0.0
C2530 C 0.69927 0.1111 0.72567 0.0
C2531 C 0.70907 0.13119 0.71687 0.0
C2532 C 0.69912 0.14722 0.71663 0.0
C2533 C 0.6796 0.14295 0.72508 0.0
C2534 C 0.70957 0.09377 0.72634 0.0
C2535 C 0.7092 0.16899 0.70748 0.0
C2536 C 0.77407 0.1559 0.70546 0.0
C2537 C 0.76931 0.14489 0.69088 0.0
C2538 C 0.75469 0.15154 0.71404 0.0
C2539 C 0.72985 0.13563 0.70797 0.0
C2540 C 0.72488 0.12436 0.69329 0.0
C2541 C 0.74466 0.12913 0.68491 0.0
C2542 C 0.76088 0.16391 0.72965 0.0
C2543 C 0.69863 0.10745 0.68637 0.0
H2544 H 0.67173 0.09136 0.74037 0.0
H2545 H 0.67238 0.15557 0.72505 0.0
H2546 H 0.7078 0.08471 0.71515 0.0
H2547 H 0.7296 0.10452 0.73029 0.0
H2548 H 0.69997 0.07908 0.73377 0.0
H2549 H 0.69915 0.17946 0.7083 0.0
H2550 H 0.72911 0.18194 0.71113 0.0
H2551 H 0.70784 0.16234 0.69573 0.0
H2552 H 0.79303 0.16813 0.71021 0.0
H2553 H 0.74075 0.12054 0.67367 0.0
H2554 H 0.75652 0.14967 0.73747 0.0
H2555 H 0.74956 0.17271 0.73183 0.0
H2556 H 0.78076 0.17838 0.73195 0.0
H2557 H 0.6888 0.09165 0.69303 0.0
H2558 H 0.69787 0.0999 0.6749 0.0
H2559 H 0.68841 0.11778 0.68625 0.0
C2560 C 0.88277 0.56279 0.7233 0.0
C2561 C 0.89499 0.55174 0.71649 0.0
C2562 C 0.87433 0.57625 0.71541 0.0
C2563 C 0.87776 0.57829 0.70028 0.0
C2564 C 0.89043 0.56759 0.69339 0.0
C2565 C 0.89913 0.5547 0.70162 0.0
C2566 C 0.8613 0.58784 0.72319 0.0
C2567 C 0.8943 0.56928 0.67724 0.0
C2568 C 0.83349 0.59017 0.67662 0.0
C2569 C 0.84818 0.61558 0.67517 0.0
C2570 C 0.84299 0.57772 0.68466 0.0
C2571 C 0.8676 0.59115 0.69155 0.0
C2572 C 0.88251 0.61682 0.69007 0.0
C2573 C 0.87271 0.62864 0.6817 0.0
C2574 C 0.82669 0.55022 0.6858 0.0
C2575 C 0.90869 0.63186 0.69746 0.0
H2576 H 0.87914 0.56036 0.73471 0.0
H2577 H 0.90902 0.54673 0.69632 0.0
H2578 H 0.87019 0.60792 0.72164 0.0
H2579 H 0.84175 0.5789 0.71834 0.0
H2580 H 0.86152 0.5859 0.7352 0.0
H2581 H 0.90468 0.56008 0.67357 0.0
H2582 H 0.8761 0.5604 0.67049 0.0
H2583 H 0.90461 0.58905 0.67499 0.0
H2584 H 0.81454 0.58003 0.6715 0.0
H2585 H 0.88423 0.64822 0.68038 0.0
H2586 H 0.82402 0.54684 0.69751 0.0
H2587 H 0.83578 0.53999 0.68162 0.0
H2588 H 0.8082 0.54238 0.67947 0.0
H2589 H 0.90867 0.63077 0.70954 0.0
H2590 H 0.91767 0.65176 0.6954 0.0
H2591 H 0.92006 0.62407 0.69343 0.0
C2592 C 0.45528 0.95648 0.15939 0.0
C2593 C 0.455 0.93511 0.16367 0.0
C2594 C 0.46377 0.96553 0.14591 0.0
C2595 C 0.47198 0.95279 0.1365 0.0
C2596 C 0.47081 0.93068 0.14054 0.0
C2597 C 0.46239 0.92215 0.15407 0.0
C2598 C 0.46478 0.9892 0.142 0.0
C2599 C 0.47911 0.91637 0.13074 0.0
C2600 C 0.47821 0.96475 0.09622 0.0
C2601 C 0.50387 0.98057 0.09633 0.0
C2602 C 0.4675 0.95581 0.10922 0.0
C2603 C 0.4828 0.96303 0.12271 0.0
C2604 C 0.50866 0.97932 0.12296 0.0
C2605 C 0.51889 0.98784 0.10977 0.0
C2606 C 0.43985 0.93846 0.1085 0.0
C2607 C 0.52561 0.98746 0.13713 0.0
H2608 H 0.44975 0.96664 0.16683 0.0
H2609 H 0.46188 0.90542 0.15726 0.0
H2610 H 0.48435 0.00391 0.14164 0.0
H2611 H 0.45503 0.98619 0.13087 0.0
H2612 H 0.45633 0.99604 0.15005 0.0
H2613 H 0.47585 0.89886 0.13514 0.0
H2614 H 0.46914 0.91171 0.11953 0.0
H2615 H 0.49918 0.92806 0.12962 0.0
H2616 H 0.46645 0.95954 0.08595 0.0
H2617 H 0.53874 0.99989 0.10994 0.0
H2618 H 0.43162 0.94646 0.11593 0.0
H2619 H 0.43593 0.92043 0.11237 0.0
H2620 H 0.4305 0.93484 0.09717 0.0
H2621 H 0.51927 0.99611 0.1455 0.0
H2622 H 0.54514 0.00099 0.13555 0.0
H2623 H 0.52496 0.97102 0.14164 0.0
C2624 C 0.02552 0.5295 0.17149 0.0
C2625 C 0.04237 0.52278 0.1773 0.0
C2626 C 0.01977 0.52758 0.15624 0.0
C2627 C 0.03085 0.51835 0.14654 0.0
C2628 C 0.04697 0.51043 0.15232 0.0
C2629 C 0.05266 0.51288 0.16764 0.0
C2630 C 0.00249 0.53625 0.15049 0.0
C2631 C 0.05887 0.50019 0.1423 0.0
C2632 C 0.00109 0.49892 0.10701 0.0
C2633 C 0.01646 0.52007 0.10013 0.0
C2634 C 0.006 0.49773 0.12204 0.0
C2635 C 0.02655 0.51833 0.13037 0.0
C2636 C 0.0424 0.53953 0.12339 0.0
C2637 C 0.03724 0.54007 0.10832 0.0
C2638 C 0.98894 0.47466 0.12905 0.0
C2639 C 0.06434 0.56197 0.13196 0.0
H2640 H 0.01708 0.53667 0.17889 0.0
H2641 H 0.06588 0.50785 0.17201 0.0
H2642 H 0.01258 0.5522 0.14397 0.0
H2643 H 0.98693 0.52117 0.14301 0.0
H2644 H 0.99474 0.54212 0.15951 0.0
H2645 H 0.06913 0.49275 0.14853 0.0
H2646 H 0.04461 0.48513 0.13418 0.0
H2647 H 0.07201 0.51509 0.13599 0.0
H2648 H 0.98517 0.48333 0.10063 0.0
H2649 H 0.049 0.55652 0.10303 0.0
H2650 H 0.97927 0.47928 0.1374 0.0
H2651 H 0.9998 0.4675 0.13488 0.0
H2652 H 0.97479 0.45964 0.12083 0.0
H2653 H 0.05783 0.57008 0.14056 0.0
H2654 H 0.07532 0.57661 0.12478 0.0
H2655 H 0.07669 0.55641 0.13767 0.0
C2656 C 0.45755 0.51831 0.16069 0.0
C2657 C 0.45712 0.53959 0.16617 0.0
C2658 C 0.46327 0.5159 0.14624 0.0
C2659 C 0.46853 0.53517 0.13709 0.0
C2660 C 0.46652 0.5559 0.14229 0.0
C2661 C 0.46092 0.5579 0.15677 0.0
C2662 C 0.46505 0.49343 0.14106 0.0
C2663 C 0.47144 0.57658 0.13278 0.0
C2664 C 0.51418 0.54734 0.10872 0.0
C2665 C 0.49853 0.53674 0.09552 0.0
C2666 C 0.50455 0.54648 0.12229 0.0
C2667 C 0.47859 0.53503 0.12273 0.0
C2668 C 0.46262 0.5244 0.10946 0.0
C2669 C 0.47277 0.52521 0.09603 0.0
C2670 C 0.52224 0.55815 0.13617 0.0
C2671 C 0.43484 0.51198 0.10941 0.0
H2672 H 0.4547 0.50416 0.16795 0.0
H2673 H 0.46018 0.57418 0.16091 0.0
H2674 H 0.45418 0.48493 0.13017 0.0
H2675 H 0.48464 0.49923 0.13965 0.0
H2676 H 0.45828 0.4791 0.14896 0.0
H2677 H 0.46695 0.59027 0.13796 0.0
H2678 H 0.49127 0.58654 0.13078 0.0
H2679 H 0.46036 0.56879 0.12188 0.0
H2680 H 0.53408 0.55668 0.10844 0.0
H2681 H 0.46049 0.51659 0.08594 0.0
H2682 H 0.51762 0.54424 0.14424 0.0
H2683 H 0.52039 0.57363 0.14137 0.0
H2684 H 0.54186 0.56555 0.134 0.0
H2685 H 0.42774 0.49359 0.11368 0.0
H2686 H 0.42548 0.50907 0.09815 0.0
H2687 H 0.42962 0.52318 0.11669 0.0
C2688 C 0.95986 0.49148 0.83163 0.0
C2689 C 0.94094 0.46829 0.82493 0.0
C2690 C 0.96717 0.49505 0.84683 0.0
C2691 C 0.95535 0.47491 0.85544 0.0
C2692 C 0.93555 0.4518 0.84884 0.0
C2693 C 0.92852 0.44882 0.83368 0.0
C2694 C 0.98821 0.52002 0.85354 0.0
C2695 C 0.92246 0.42987 0.85766 0.0
C2696 C 0.99065 0.47087 0.88927 0.0
C2697 C 0.97997 0.47689 0.90073 0.0
C2698 C 0.98325 0.47084 0.8745 0.0
C2699 C 0.96485 0.47718 0.87108 0.0
C2700 C 0.95458 0.48411 0.88258 0.0
C2701 C 0.9622 0.4838 0.89729 0.0
C2702 C 0.99466 0.46335 0.86253 0.0
C2703 C 0.93504 0.49114 0.87934 0.0
H2704 H 0.9696 0.50657 0.82492 0.0
H2705 H 0.91352 0.43102 0.82861 0.0
H2706 H 0.98301 0.52639 0.86362 0.0
H2707 H 0.00459 0.5183 0.85687 0.0
H2708 H 0.99362 0.53445 0.84573 0.0
H2709 H 0.90646 0.41367 0.85105 0.0
H2710 H 0.93565 0.42403 0.86175 0.0
H2711 H 0.91574 0.43518 0.86743 0.0
H2712 H 0.00476 0.46604 0.89187 0.0
H2713 H 0.95374 0.4883 0.90609 0.0
H2714 H 0.00266 0.47807 0.85496 0.0
H2715 H 0.98014 0.44613 0.85588 0.0
H2716 H 0.00946 0.45994 0.86705 0.0
H2717 H 0.94135 0.50571 0.87161 0.0
H2718 H 0.93048 0.4981 0.8895 0.0
H2719 H 0.91786 0.4747 0.87389 0.0
C2720 C 0.54483 0.48446 0.8401 0.0
C2721 C 0.5254 0.47632 0.82883 0.0
C2722 C 0.5407 0.48594 0.855 0.0
C2723 C 0.51655 0.47896 0.85869 0.0
C2724 C 0.49717 0.47186 0.84734 0.0
C2725 C 0.50187 0.47078 0.83258 0.0
C2726 C 0.5619 0.49393 0.8668 0.0
C2727 C 0.47118 0.46433 0.85078 0.0
C2728 C 0.49616 0.45279 0.89507 0.0
C2729 C 0.49614 0.47265 0.90313 0.0
C2730 C 0.50338 0.45485 0.88073 0.0
C2731 C 0.511 0.47741 0.87434 0.0
C2732 C 0.51177 0.4978 0.88261 0.0
C2733 C 0.50418 0.49513 0.89688 0.0
C2734 C 0.50206 0.43258 0.87223 0.0
C2735 C 0.52009 0.52225 0.87626 0.0
H2736 H 0.56302 0.48865 0.83731 0.0
H2737 H 0.48689 0.465 0.82392 0.0
H2738 H 0.56297 0.50846 0.87495 0.0
H2739 H 0.55872 0.47782 0.87283 0.0
H2740 H 0.57999 0.50127 0.86214 0.0
H2741 H 0.4585 0.46051 0.84069 0.0
H2742 H 0.4636 0.44732 0.85663 0.0
H2743 H 0.47133 0.47918 0.85821 0.0
H2744 H 0.48976 0.43533 0.89982 0.0
H2745 H 0.50452 0.51064 0.90317 0.0
H2746 H 0.52022 0.43775 0.86819 0.0
H2747 H 0.48824 0.42625 0.86242 0.0
H2748 H 0.49677 0.41677 0.87899 0.0
H2749 H 0.53845 0.52896 0.87209 0.0
H2750 H 0.52139 0.53683 0.88449 0.0
H2751 H 0.50684 0.51961 0.86675 0.0
C2752 C 0.51255 0.04443 0.83912 0.0
C2753 C 0.53631 0.06279 0.83636 0.0
C2754 C 0.50771 0.03635 0.85315 0.0
C2755 C 0.52716 0.04672 0.86475 0.0
C2756 C 0.55147 0.06442 0.8619 0.0
C2757 C 0.55578 0.07228 0.84771 0.0
C2758 C 0.48154 0.01732 0.85568 0.0
C2759 C 0.57271 0.07569 0.87397 0.0
C2760 C 0.50545 0.04453 0.90283 0.0
C2761 C 0.50436 0.02284 0.90719 0.0
C2762 C 0.51386 0.05311 0.88929 0.0
C2763 C 0.52151 0.03977 0.87993 0.0
C2764 C 0.5215 0.0185 0.88458 0.0
C2765 C 0.51282 0.01022 0.89814 0.0
C2766 C 0.51345 0.0758 0.8847 0.0
C2767 C 0.52979 0.00395 0.87501 0.0
H2768 H 0.49755 0.03666 0.8303 0.0
H2769 H 0.57416 0.08653 0.84565 0.0
H2770 H 0.48125 0.00122 0.86043 0.0
H2771 H 0.47444 0.02566 0.86374 0.0
H2772 H 0.46874 0.0104 0.84536 0.0
H2773 H 0.59083 0.08741 0.86968 0.0
H2774 H 0.56975 0.08739 0.88232 0.0
H2775 H 0.57353 0.06086 0.87968 0.0
H2776 H 0.49882 0.05427 0.90976 0.0
H2777 H 0.51241 0.99369 0.9016 0.0
H2778 H 0.49951 0.0703 0.87504 0.0
H2779 H 0.53172 0.0894 0.88129 0.0
H2780 H 0.5088 0.08514 0.89368 0.0
H2781 H 0.51645 0.99477 0.865 0.0
H2782 H 0.53107 0.98943 0.88085 0.0
H2783 H 0.54812 0.01662 0.87129 0.0
C2784 C 0.14743 0.29418 0.49715 0.0
C2785 C 0.12308 0.27529 0.49838 0.0
C2786 C 0.155 0.30284 0.4835 0.0
C2787 C 0.13782 0.2924 0.47073 0.0
C2788 C 0.11305 0.27375 0.47193 0.0
C2789 C 0.10595 0.26542 0.48576 0.0
C2790 C 0.18154 0.3229 0.48272 0.0
C2791 C 0.0942 0.2622 0.45855 0.0
C2792 C 0.15491 0.33015 0.43782 0.0
C2793 C 0.16554 0.31892 0.42948 0.0
C2794 C 0.1452 0.32131 0.45106 0.0
C2795 C 0.14611 0.30071 0.45611 0.0
C2796 C 0.15624 0.28888 0.44755 0.0
C2797 C 0.16583 0.29813 0.43435 0.0
C2798 C 0.13444 0.33434 0.45982 0.0
C2799 C 0.15758 0.26688 0.45256 0.0
H2800 H 0.16064 0.30218 0.5069 0.0
H2801 H 0.08717 0.25069 0.48662 0.0
H2802 H 0.19068 0.31574 0.47543 0.0
H2803 H 0.18209 0.33904 0.47785 0.0
H2804 H 0.19243 0.32948 0.49373 0.0
H2805 H 0.07544 0.24874 0.46144 0.0
H2806 H 0.09312 0.27688 0.45282 0.0
H2807 H 0.10003 0.25236 0.45064 0.0
H2808 H 0.15419 0.34593 0.43398 0.0
H2809 H 0.17418 0.28947 0.42803 0.0
H2810 H 0.14564 0.3427 0.47064 0.0
H2811 H 0.11532 0.32076 0.46208 0.0
H2812 H 0.13395 0.34928 0.45402 0.0
H2813 H 0.16993 0.27265 0.46301 0.0
H2814 H 0.16472 0.25893 0.44426 0.0
H2815 H 0.13897 0.25208 0.45482 0.0
C2816 C 0.70255 0.8623 0.50393 0.0
C2817 C 0.72252 0.86009 0.50976 0.0
C2818 C 0.69693 0.86039 0.48867 0.0
C2819 C 0.71167 0.8562 0.47902 0.0
C2820 C 0.73126 0.85296 0.48483 0.0
C2821 C 0.73644 0.85491 0.50017 0.0
C2822 C 0.67574 0.86371 0.4829 0.0
C2823 C 0.74732 0.84842 0.47485 0.0
C2824 C 0.68492 0.8363 0.43896 0.0
C2825 C 0.696 0.8592 0.43299 0.0
C2826 C 0.69045 0.83485 0.45386 0.0
C2827 C 0.70745 0.85683 0.46293 0.0
C2828 C 0.71931 0.87986 0.45683 0.0
C2829 C 0.71342 0.88076 0.44193 0.0
C2830 C 0.67742 0.80999 0.45999 0.0
C2831 C 0.73766 0.90369 0.46616 0.0
H2832 H 0.69151 0.86589 0.51134 0.0
H2833 H 0.75197 0.85332 0.50467 0.0
H2834 H 0.683 0.88077 0.4771 0.0
H2835 H 0.66282 0.84778 0.47478 0.0
H2836 H 0.66516 0.86533 0.49184 0.0
H2837 H 0.76044 0.84427 0.48104 0.0
H2838 H 0.73566 0.83269 0.46631 0.0
H2839 H 0.75815 0.86513 0.46904 0.0
H2840 H 0.67129 0.81961 0.43211 0.0
H2841 H 0.72231 0.89842 0.43728 0.0
H2842 H 0.66487 0.81018 0.46803 0.0
H2843 H 0.69108 0.8064 0.466 0.0
H2844 H 0.66631 0.7944 0.45124 0.0
H2845 H 0.72818 0.90797 0.47479 0.0
H2846 H 0.74631 0.91977 0.45954 0.0
H2847 H 0.75251 0.90151 0.47186 0.0
C2848 C 0.1148 0.85488 0.49206 0.0
C2849 C 0.13454 0.86551 0.50328 0.0
C2850 C 0.11888 0.85188 0.47728 0.0
C2851 C 0.14325 0.85971 0.47368 0.0
C2852 C 0.16305 0.86957 0.48505 0.0
C2853 C 0.15844 0.87225 0.49967 0.0
C2854 C 0.09728 0.84109 0.46547 0.0
C2855 C 0.1893 0.878 0.48172 0.0
C2856 C 0.1575 0.83878 0.43744 0.0
C2857 C 0.16498 0.85985 0.42978 0.0
C2858 C 0.14921 0.83794 0.45147 0.0
C2859 C 0.14853 0.85875 0.45804 0.0
C2860 C 0.15516 0.87969 0.45012 0.0
C2861 C 0.16323 0.87995 0.43607 0.0
C2862 C 0.14205 0.81517 0.45948 0.0
C2863 C 0.15482 0.9023 0.45675 0.0
H2864 H 0.09631 0.84971 0.49478 0.0
H2865 H 0.17369 0.87998 0.50833 0.0
H2866 H 0.09952 0.85557 0.4582 0.0
H2867 H 0.09678 0.82564 0.45845 0.0
H2868 H 0.07926 0.83402 0.47017 0.0
H2869 H 0.20245 0.88449 0.49188 0.0
H2870 H 0.19012 0.86256 0.47557 0.0
H2871 H 0.19557 0.89345 0.47461 0.0
H2872 H 0.15839 0.823 0.43251 0.0
H2873 H 0.16912 0.89634 0.43025 0.0
H2874 H 0.12376 0.80865 0.4637 0.0
H2875 H 0.15579 0.81994 0.46914 0.0
H2876 H 0.1412 0.79966 0.4523 0.0
H2877 H 0.13658 0.89678 0.46078 0.0
H2878 H 0.15864 0.91622 0.44875 0.0
H2879 H 0.16903 0.9113 0.46639 0.0
C2880 C 0.56889 0.76731 0.17019 0.0
C2881 C 0.5818 0.78628 0.16123 0.0
C2882 C 0.57688 0.7701 0.18521 0.0
C2883 C 0.59844 0.79228 0.19132 0.0
C2884 C 0.61092 0.81193 0.18247 0.0
C2885 C 0.60236 0.80873 0.16751 0.0
C2886 C 0.56289 0.74886 0.19435 0.0
C2887 C 0.6341 0.83577 0.18857 0.0
C2888 C 0.61316 0.80513 0.23297 0.0
C2889 C 0.62978 0.79643 0.23537 0.0
C2890 C 0.60272 0.8039 0.21869 0.0
C2891 C 0.60924 0.79393 0.20655 0.0
C2892 C 0.62602 0.78517 0.20891 0.0
C2893 C 0.63593 0.78637 0.22328 0.0
C2894 C 0.58477 0.81328 0.21658 0.0
C2895 C 0.6335 0.77448 0.19623 0.0
H2896 H 0.5528 0.75006 0.16537 0.0
H2897 H 0.61245 0.82334 0.16055 0.0
H2898 H 0.57448 0.74063 0.19745 0.0
H2899 H 0.55884 0.75572 0.20472 0.0
H2900 H 0.54517 0.73396 0.18834 0.0
H2901 H 0.64024 0.85007 0.18065 0.0
H2902 H 0.63103 0.84355 0.19896 0.0
H2903 H 0.64929 0.83185 0.19122 0.0
H2904 H 0.60856 0.81323 0.24223 0.0
H2905 H 0.64841 0.7792 0.22506 0.0
H2906 H 0.56682 0.79818 0.21097 0.0
H2907 H 0.59206 0.82862 0.20938 0.0
H2908 H 0.58137 0.82017 0.2272 0.0
H2909 H 0.61694 0.75785 0.19039 0.0
H2910 H 0.64721 0.76902 0.19992 0.0
H2911 H 0.64164 0.78831 0.18815 0.0
C2912 C 0.17098 0.80534 0.16507 0.0
C2913 C 0.19385 0.80866 0.16144 0.0
C2914 C 0.1664 0.80714 0.1798 0.0
C2915 C 0.18515 0.81245 0.19123 0.0
C2916 C 0.20868 0.81698 0.18765 0.0
C2917 C 0.21277 0.81505 0.17277 0.0
C2918 C 0.14111 0.80238 0.18313 0.0
C2919 C 0.22918 0.82282 0.19953 0.0
C2920 C 0.17524 0.83133 0.22951 0.0
C2921 C 0.16447 0.80853 0.23564 0.0
C2922 C 0.18279 0.8331 0.21523 0.0
C2923 C 0.17943 0.81156 0.20686 0.0
C2924 C 0.16917 0.78866 0.21313 0.0
C2925 C 0.16186 0.78744 0.22744 0.0
C2926 C 0.19367 0.85785 0.20893 0.0
C2927 C 0.16535 0.76527 0.2046 0.0
H2928 H 0.15644 0.80083 0.15634 0.0
H2929 H 0.23043 0.8175 0.17004 0.0
H2930 H 0.13175 0.78526 0.18883 0.0
H2931 H 0.14291 0.81797 0.19066 0.0
H2932 H 0.12911 0.80005 0.173 0.0
H2933 H 0.24702 0.8281 0.19496 0.0
H2934 H 0.23194 0.83821 0.20763 0.0
H2935 H 0.22396 0.80629 0.20562 0.0
H2936 H 0.17714 0.84767 0.23572 0.0
H2937 H 0.154 0.76987 0.23219 0.0
H2938 H 0.18097 0.85672 0.19953 0.0
H2939 H 0.21154 0.86253 0.20463 0.0
H2940 H 0.19681 0.87319 0.21724 0.0
H2941 H 0.15198 0.76033 0.1947 0.0
H2942 H 0.15819 0.74922 0.21129 0.0
H2943 H 0.18305 0.76843 0.20069 0.0
C2944 C 0.1753 0.36835 0.16956 0.0
C2945 C 0.19893 0.38725 0.16701 0.0
C2946 C 0.17048 0.35973 0.18349 0.0
C2947 C 0.18977 0.37027 0.19519 0.0
C2948 C 0.21394 0.38864 0.19254 0.0
C2949 C 0.21826 0.39689 0.17844 0.0
C2950 C 0.14451 0.33993 0.18579 0.0
C2951 C 0.23499 0.40025 0.20473 0.0
C2952 C 0.16813 0.36665 0.2334 0.0
C2953 C 0.16865 0.34574 0.23784 0.0
C2954 C 0.17578 0.37535 0.21976 0.0
C2955 C 0.18415 0.36282 0.2103 0.0
C2956 C 0.18544 0.34217 0.2149 0.0
C2957 C 0.17769 0.33389 0.22862 0.0
C2958 C 0.17411 0.39744 0.21525 0.0
C2959 C 0.19435 0.32839 0.20516 0.0
H2960 H 0.1604 0.36059 0.16068 0.0
H2961 H 0.23651 0.41161 0.17653 0.0
H2962 H 0.14481 0.32409 0.19055 0.0
H2963 H 0.13674 0.34765 0.19377 0.0
H2964 H 0.13194 0.33276 0.17538 0.0
H2965 H 0.25304 0.41278 0.20062 0.0
H2966 H 0.23126 0.41118 0.2132 0.0
H2967 H 0.23646 0.38559 0.21026 0.0
H2968 H 0.16098 0.37579 0.24041 0.0
H2969 H 0.1786 0.318 0.2321 0.0
H2970 H 0.16015 0.39149 0.20555 0.0
H2971 H 0.19214 0.41173 0.21192 0.0
H2972 H 0.16879 0.4061 0.22425 0.0
H2973 H 0.1813 0.31943 0.19502 0.0
H2974 H 0.19587 0.3138 0.21077 0.0
H2975 H 0.2127 0.34157 0.20167 0.0
C2976 C 0.8144 0.63547 0.833 0.0
C2977 C 0.79015 0.61656 0.83439 0.0
C2978 C 0.82169 0.64392 0.81927 0.0
C2979 C 0.80434 0.63312 0.80658 0.0
C2980 C 0.77958 0.61463 0.80798 0.0
C2981 C 0.77275 0.60662 0.8219 0.0
C2982 C 0.84819 0.66387 0.81828 0.0
C2983 C 0.76058 0.60264 0.7947 0.0
C2984 C 0.82126 0.668 0.77246 0.0
C2985 C 0.83178 0.65603 0.76471 0.0
C2986 C 0.81171 0.6604 0.78594 0.0
C2987 C 0.81261 0.64029 0.79178 0.0
C2988 C 0.82262 0.62772 0.78381 0.0
C2989 C 0.83212 0.63578 0.7704 0.0
C2990 C 0.8013 0.67433 0.79414 0.0
C2991 C 0.82373 0.60605 0.78959 0.0
H2992 H 0.82782 0.64343 0.84266 0.0
H2993 H 0.75404 0.59187 0.82292 0.0
H2994 H 0.85748 0.65613 0.81155 0.0
H2995 H 0.84872 0.67943 0.81269 0.0
H2996 H 0.85895 0.67141 0.82929 0.0
H2997 H 0.74174 0.58987 0.79779 0.0
H2998 H 0.75989 0.61708 0.78848 0.0
H2999 H 0.76595 0.59191 0.78715 0.0
H3000 H 0.8211 0.68377 0.76816 0.0
H3001 H 0.83984 0.62618 0.76433 0.0
H3002 H 0.81286 0.68368 0.80475 0.0
H3003 H 0.78231 0.66119 0.7968 0.0
H3004 H 0.80064 0.68862 0.78772 0.0
H3005 H 0.83585 0.61236 0.80015 0.0
H3006 H 0.83098 0.59754 0.78172 0.0
H3007 H 0.805 0.59153 0.79188 0.0
C3008 C 0.40592 0.19188 0.83515 0.0
C3009 C 0.39429 0.19958 0.84518 0.0
C3010 C 0.39916 0.18879 0.8199 0.0
C3011 C 0.38055 0.19382 0.81457 0.0
C3012 C 0.36831 0.20096 0.82464 0.0
C3013 C 0.37518 0.20355 0.83981 0.0
C3014 C 0.41236 0.1808 0.80949 0.0
C3015 C 0.34839 0.20653 0.81938 0.0
C3016 C 0.38042 0.21367 0.77614 0.0
C3017 C 0.36035 0.19219 0.76853 0.0
C3018 C 0.38757 0.21425 0.79107 0.0
C3019 C 0.37453 0.19272 0.79847 0.0
C3020 C 0.35484 0.17068 0.79067 0.0
C3021 C 0.34786 0.17075 0.77579 0.0
C3022 C 0.40847 0.23819 0.79906 0.0
C3023 C 0.34078 0.14725 0.79812 0.0
H3024 H 0.42085 0.18899 0.83917 0.0
H3025 H 0.36571 0.20895 0.84748 0.0
H3026 H 0.39872 0.16463 0.80174 0.0
H3027 H 0.42344 0.19614 0.80278 0.0
H3028 H 0.42495 0.17569 0.81542 0.0
H3029 H 0.34032 0.21136 0.82866 0.0
H3030 H 0.35623 0.22231 0.81251 0.0
H3031 H 0.33328 0.19023 0.81237 0.0
H3032 H 0.38995 0.23031 0.77055 0.0
H3033 H 0.3325 0.15405 0.76984 0.0
H3034 H 0.42276 0.23486 0.80446 0.0
H3035 H 0.40128 0.24514 0.80788 0.0
H3036 H 0.41741 0.25292 0.79156 0.0
H3037 H 0.35385 0.14242 0.80368 0.0
H3038 H 0.3273 0.13118 0.79022 0.0
H3039 H 0.33056 0.15035 0.80674 0.0
C3040 C 0.8059 0.21723 0.8258 0.0
C3041 C 0.79916 0.19844 0.83526 0.0
C3042 C 0.81152 0.21406 0.81147 0.0
C3043 C 0.81031 0.1915 0.80643 0.0
C3044 C 0.80242 0.17201 0.81568 0.0
C3045 C 0.79693 0.17571 0.83 0.0
C3046 C 0.81968 0.23525 0.80194 0.0
C3047 C 0.80077 0.14764 0.81067 0.0
C3048 C 0.81094 0.1799 0.76514 0.0
C3049 C 0.83614 0.18838 0.76401 0.0
C3050 C 0.80208 0.18013 0.77889 0.0
C3051 C 0.81883 0.18907 0.79186 0.0
C3052 C 0.84417 0.19706 0.79084 0.0
C3053 C 0.85249 0.19658 0.77695 0.0
C3054 C 0.77493 0.17142 0.7795 0.0
C3055 C 0.86263 0.20665 0.80441 0.0
H3056 H 0.80722 0.23467 0.82971 0.0
H3057 H 0.79188 0.16118 0.83729 0.0
H3058 H 0.83922 0.24223 0.79979 0.0
H3059 H 0.80829 0.22868 0.79112 0.0
H3060 H 0.81823 0.25099 0.80717 0.0
H3061 H 0.79225 0.13361 0.81862 0.0
H3062 H 0.78973 0.13991 0.79976 0.0
H3063 H 0.81961 0.15079 0.80935 0.0
H3064 H 0.79819 0.17365 0.75524 0.0
H3065 H 0.87189 0.20268 0.77623 0.0
H3066 H 0.77272 0.18728 0.78359 0.0
H3067 H 0.767 0.15715 0.78735 0.0
H3068 H 0.76406 0.16346 0.76854 0.0
H3069 H 0.86379 0.22367 0.80985 0.0
H3070 H 0.88146 0.21118 0.8018 0.0
H3071 H 0.85642 0.19261 0.81246 0.0
C3072 C 0.29632 0.12819 0.49814 0.0
C3073 C 0.28104 0.13653 0.49198 0.0
C3074 C 0.30232 0.13102 0.51341 0.0
C3075 C 0.29306 0.14275 0.52275 0.0
C3076 C 0.27834 0.15201 0.5166 0.0
C3077 C 0.2724 0.1487 0.50126 0.0
C3078 C 0.31812 0.12093 0.51956 0.0
C3079 C 0.26836 0.16484 0.52624 0.0
C3080 C 0.28815 0.12506 0.56186 0.0
C3081 C 0.31035 0.14456 0.56915 0.0
C3082 C 0.28187 0.12467 0.54683 0.0
C3083 C 0.29811 0.14438 0.53897 0.0
C3084 C 0.32004 0.16466 0.54644 0.0
C3085 C 0.32597 0.16444 0.56145 0.0
C3086 C 0.25842 0.10263 0.53921 0.0
C3087 C 0.33762 0.18616 0.53846 0.0
H3088 H 0.30347 0.11924 0.491 0.0
H3089 H 0.26043 0.15502 0.49658 0.0
H3090 H 0.33476 0.13595 0.52638 0.0
H3091 H 0.30752 0.10636 0.52684 0.0
H3092 H 0.32426 0.11275 0.51076 0.0
H3093 H 0.25868 0.17252 0.51969 0.0
H3094 H 0.25515 0.15146 0.53327 0.0
H3095 H 0.28364 0.18022 0.53373 0.0
H3096 H 0.27616 0.10959 0.56779 0.0
H3097 H 0.343 0.17969 0.56715 0.0
H3098 H 0.26319 0.09226 0.53098 0.0
H3099 H 0.24704 0.109 0.53316 0.0
H3100 H 0.24703 0.08964 0.54707 0.0
H3101 H 0.34613 0.1796 0.53031 0.0
H3102 H 0.35268 0.20148 0.54612 0.0
H3103 H 0.32742 0.19366 0.53227 0.0
C3104 C 0.83566 0.13557 0.49819 0.0
C3105 C 0.85938 0.14148 0.49463 0.0
C3106 C 0.83084 0.13734 0.51288 0.0
C3107 C 0.85027 0.1455 0.52435 0.0
C3108 C 0.87454 0.1527 0.52082 0.0
C3109 C 0.87881 0.15055 0.50599 0.0
C3110 C 0.8047 0.12956 0.51614 0.0
C3111 C 0.89579 0.16176 0.53273 0.0
C3112 C 0.83732 0.16393 0.56182 0.0
C3113 C 0.82957 0.14207 0.56873 0.0
C3114 C 0.845 0.16569 0.54758 0.0
C3115 C 0.84468 0.145 0.54 0.0
C3116 C 0.83744 0.1231 0.54706 0.0
C3117 C 0.83008 0.12194 0.56136 0.0
C3118 C 0.8529 0.18946 0.54051 0.0
C3119 C 0.83663 0.10054 0.53932 0.0
H3120 H 0.82066 0.12906 0.48946 0.0
H3121 H 0.89715 0.15503 0.50335 0.0
H3122 H 0.7975 0.11313 0.5225 0.0
H3123 H 0.80448 0.14472 0.52304 0.0
H3124 H 0.79194 0.12471 0.50595 0.0
H3125 H 0.9139 0.1689 0.52814 0.0
H3126 H 0.89664 0.17675 0.54039 0.0
H3127 H 0.89283 0.14628 0.53931 0.0
H3128 H 0.8373 0.17967 0.56757 0.0
H3129 H 0.82393 0.10494 0.56659 0.0
H3130 H 0.83955 0.18593 0.53085 0.0
H3131 H 0.8713 0.19611 0.53641 0.0
H3132 H 0.85392 0.20446 0.54827 0.0
H3133 H 0.82275 0.09325 0.5295 0.0
H3134 H 0.83172 0.08541 0.54658 0.0
H3135 H 0.85486 0.10573 0.53537 0.0
C3136 C 0.86768 0.74725 0.5158 0.0
C3137 C 0.87397 0.73509 0.50492 0.0
C3138 C 0.86184 0.73818 0.52955 0.0
C3139 C 0.86238 0.71642 0.53255 0.0
C3140 C 0.86999 0.70478 0.52191 0.0
C3141 C 0.87574 0.71429 0.5082 0.0
C3142 C 0.85401 0.75127 0.54062 0.0
C3143 C 0.87092 0.68162 0.52474 0.0
C3144 C 0.85988 0.70233 0.57257 0.0
C3145 C 0.83452 0.6856 0.57293 0.0
C3146 C 0.86939 0.71207 0.55944 0.0
C3147 C 0.85312 0.70492 0.54635 0.0
C3148 C 0.82756 0.68769 0.54659 0.0
C3149 C 0.81858 0.67824 0.55987 0.0
C3150 C 0.89676 0.73029 0.55962 0.0
C3151 C 0.80956 0.67968 0.53289 0.0
H3152 H 0.86672 0.76361 0.51341 0.0
H3153 H 0.88049 0.70477 0.49981 0.0
H3154 H 0.83427 0.73892 0.54228 0.0
H3155 H 0.86502 0.75545 0.55145 0.0
H3156 H 0.85625 0.76893 0.537 0.0
H3157 H 0.8796 0.67632 0.51603 0.0
H3158 H 0.88142 0.68436 0.53556 0.0
H3159 H 0.85183 0.66592 0.52516 0.0
H3160 H 0.87233 0.7077 0.58256 0.0
H3161 H 0.79894 0.66548 0.5601 0.0
H3162 H 0.89965 0.74856 0.55681 0.0
H3163 H 0.90476 0.72366 0.55116 0.0
H3164 H 0.90709 0.73304 0.57054 0.0
H3165 H 0.80902 0.69601 0.52911 0.0
H3166 H 0.79048 0.66533 0.53478 0.0
H3167 H 0.81578 0.67208 0.52385 0.0
loop_
_geom_bond_atom_site_label_1
_geom_bond_atom_site_label_2
_geom_bond_distance
_geom_bond_site_symmetry_2
_ccdc_geom_bond_type
C0 C1 1.391 . S
C0 C4 1.391 . S
C0 H42 0.948 . S
C1 C0 1.391 . S
C1 C2 1.391 . S
C2 C1 1.391 . S
C2 H58 0.947 . S
C2 C59 1.392 . S
C3 C4 1.391 . S
C3 C7 1.397 . S
C3 C59 1.419 . S
C4 C0 1.391 . S
C4 C3 1.391 . S
C4 C5 1.399 . S
C5 C4 1.399 . S
C5 C8 1.396 . S
C5 C17 1.453 . S
C5 C18 1.684 . S
H6 C30 0.948 . S
C7 C3 1.397 . S
C7 C8 1.394 . S
C7 C26 1.723 . S
C8 C5 1.396 . S
C8 C7 1.394 . S
C8 C38 1.723 . S
H9 C32 0.947 . S
H10 C33 0.948 . S
H11 C39 0.982 . S
H12 C40 0.979 . S
H13 C40 0.980 . S
H14 C40 0.983 . S
H15 C39 0.979 . S
H16 C39 0.977 . S
C17 C5 1.453 . S
C17 H46 0.982 . S
C17 H47 0.979 . S
C17 H48 0.977 . S
C18 C5 1.684 . S
C18 H43 0.979 . S
C18 H44 0.980 . S
C18 H45 0.983 . S
C19 C20 1.391 . S
C19 C24 1.391 . S
C19 H49 0.948 . S
C20 C19 1.391 . S
C20 C21 1.391 . S
C21 C20 1.391 . S
C21 C22 1.392 . S
C21 H50 0.947 . S
C22 C21 1.392 . S
C22 C23 1.419 . S
C22 H51 0.948 . S
C23 C22 1.419 . S
C23 C24 1.391 . S
C23 C27 1.397 . S
C24 C19 1.391 . S
C24 C23 1.391 . S
C24 C25 1.399 . S
C25 C24 1.399 . S
C25 C26 1.396 . S
C25 C28 1.453 . S
C25 C29 1.684 . S
C26 C7 1.723 . S
C26 C25 1.396 . S
C26 C27 1.394 . S
C27 C23 1.397 . S
C27 C26 1.394 . S
C27 C37 1.723 . S
C28 C25 1.453 . S
C28 H52 0.982 . S
C28 H53 0.979 . S
C28 H54 0.977 . S
C29 C25 1.684 . S
C29 H55 0.979 . S
C29 H56 0.980 . S
C29 H57 0.983 . S
C30 H6 0.948 . S
C30 C31 1.391 . S
C30 C35 1.391 . S
C31 C30 1.391 . S
C31 C32 1.391 . S
C32 H9 0.947 . S
C32 C31 1.391 . S
C32 C33 1.392 . S
C33 H10 0.948 . S
C33 C32 1.392 . S
C33 C34 1.419 . S
C34 C33 1.419 . S
C34 C35 1.391 . S
C34 C38 1.397 . S
C35 C30 1.391 . S
C35 C34 1.391 . S
C35 C36 1.399 . S
C36 C35 1.399 . S
C36 C37 1.396 . S
C36 C39 1.453 . S
C36 C40 1.684 . S
C37 C27 1.723 . S
C37 C36 1.396 . S
C37 C38 1.394 . S
C38 C8 1.723 . S
C38 C34 1.397 . S
C38 C37 1.394 . S
C39 H11 0.982 . S
C39 H15 0.979 . S
C39 H16 0.977 . S
C39 C36 1.453 . S
C40 H12 0.979 . S
C40 H13 0.980 . S
C40 H14 0.983 . S
C40 C36 1.684 . S
H41 C59 0.948 . S
H42 C0 0.948 . S
H43 C18 0.979 . S
H44 C18 0.980 . S
H45 C18 0.983 . S
H46 C17 0.982 . S
H47 C17 0.979 . S
H48 C17 0.977 . S
H49 C19 0.948 . S
H50 C21 0.947 . S
H51 C22 0.948 . S
H52 C28 0.982 . S
H53 C28 0.979 . S
H54 C28 0.977 . S
H55 C29 0.979 . S
H56 C29 0.980 . S
H57 C29 0.983 . S
H58 C2 0.947 . S
C59 C2 1.392 . S
C59 C3 1.419 . S
C59 H41 0.948 . S
C60 C61 1.391 . S
C60 C64 1.391 . S
C60 H102 0.948 . S
C61 C60 1.391 . S
C61 C62 1.391 . S
C62 C61 1.391 . S
C62 H118 0.947 . S
C62 C119 1.392 . S
C63 C64 1.391 . S
C63 C67 1.397 . S
C63 C119 1.419 . S
C64 C60 1.391 . S
C64 C63 1.391 . S
C64 C65 1.399 . S
C65 C64 1.399 . S
C65 C68 1.396 . S
C65 C77 1.453 . S
C65 C78 1.684 . S
H66 C90 0.948 . S
C67 C63 1.397 . S
C67 C68 1.394 . S
C67 C86 1.723 . S
C68 C65 1.396 . S
C68 C67 1.394 . S
C68 C98 1.723 . S
H69 C92 0.947 . S
H70 C93 0.948 . S
H71 C99 0.982 . S
H72 C100 0.979 . S
H73 C100 0.980 . S
H74 C100 0.983 . S
H75 C99 0.979 . S
H76 C99 0.977 . S
C77 C65 1.453 . S
C77 H106 0.982 . S
C77 H107 0.979 . S
C77 H108 0.977 . S
C78 C65 1.684 . S
C78 H103 0.979 . S
C78 H104 0.980 . S
C78 H105 0.983 . S
C79 C80 1.391 . S
C79 C84 1.391 . S
C79 H109 0.948 . S
C80 C79 1.391 . S
C80 C81 1.391 . S
C81 C80 1.391 . S
C81 C82 1.392 . S
C81 H110 0.947 . S
C82 C81 1.392 . S
C82 C83 1.419 . S
C82 H111 0.948 . S
C83 C82 1.419 . S
C83 C84 1.391 . S
C83 C87 1.397 . S
C84 C79 1.391 . S
C84 C83 1.391 . S
C84 C85 1.399 . S
C85 C84 1.399 . S
C85 C86 1.396 . S
C85 C88 1.453 . S
C85 C89 1.684 . S
C86 C67 1.723 . S
C86 C85 1.396 . S
C86 C87 1.394 . S
C87 C83 1.397 . S
C87 C86 1.394 . S
C87 C97 1.723 . S
C88 C85 1.453 . S
C88 H112 0.982 . S
C88 H113 0.979 . S
C88 H114 0.977 . S
C89 C85 1.684 . S
C89 H115 0.979 . S
C89 H116 0.980 . S
C89 H117 0.983 . S
C90 H66 0.948 . S
C90 C91 1.391 . S
C90 C95 1.391 . S
C91 C90 1.391 . S
C91 C92 1.391 . S
C92 H69 0.947 . S
C92 C91 1.391 . S
C92 C93 1.392 . S
C93 H70 0.948 . S
C93 C92 1.392 . S
C93 C94 1.419 . S
C94 C93 1.419 . S
C94 C95 1.391 . S
C94 C98 1.397 . S
C95 C90 1.391 . S
C95 C94 1.391 . S
C95 C96 1.399 . S
C96 C95 1.399 . S
C96 C97 1.396 . S
C96 C99 1.453 . S
C96 C100 1.684 . S
C97 C87 1.723 . S
C97 C96 1.396 . S
C97 C98 1.394 . S
C98 C68 1.723 . S
C98 C94 1.397 . S
C98 C97 1.394 . S
C99 H71 0.982 . S
C99 H75 0.979 . S
C99 H76 0.977 . S
C99 C96 1.453 . S
C100 H72 0.979 . S
C100 H73 0.980 . S
C100 H74 0.983 . S
C100 C96 1.684 . S
H101 C119 0.948 . S
H102 C60 0.948 . S
H103 C78 0.979 . S
H104 C78 0.980 . S
H105 C78 0.983 . S
H106 C77 0.982 . S
H107 C77 0.979 . S
H108 C77 0.977 . S
H109 C79 0.948 . S
H110 C81 0.947 . S
H111 C82 0.948 . S
H112 C88 0.982 . S
H113 C88 0.979 . S
H114 C88 0.977 . S
H115 C89 0.979 . S
H116 C89 0.980 . S
H117 C89 0.983 . S
H118 C62 0.947 . S
C119 C62 1.392 . S
C119 C63 1.419 . S
C119 H101 0.948 . S
C120 C121 1.391 . S
C120 C124 1.391 . S
C120 H162 0.948 . S
C121 C120 1.391 . S
C121 C122 1.391 . S
C122 C121 1.391 . S
C122 H178 0.947 . S
C122 C179 1.392 . S
C123 C124 1.391 . S
C123 C127 1.397 . S
C123 C179 1.419 . S
C124 C120 1.391 . S
C124 C123 1.391 . S
C124 C125 1.399 . S
C125 C124 1.399 . S
C125 C128 1.396 . S
C125 C137 1.453 . S
C125 C138 1.684 . S
H126 C150 0.948 . S
C127 C123 1.397 . S
C127 C128 1.394 . S
C127 C146 1.723 . S
C128 C125 1.396 . S
C128 C127 1.394 . S
C128 C158 1.723 . S
H129 C152 0.947 . S
H130 C153 0.948 . S
H131 C159 0.982 . S
H132 C160 0.979 . S
H133 C160 0.980 . S
H134 C160 0.983 . S
H135 C159 0.979 . S
H136 C159 0.977 . S
C137 C125 1.453 . S
C137 H166 0.982 . S
C137 H167 0.979 . S
C137 H168 0.977 . S
C138 C125 1.684 . S
C138 H163 0.979 . S
C138 H164 0.980 . S
C138 H165 0.983 . S
C139 C140 1.391 . S
C139 C144 1.391 . S
C139 H169 0.948 . S
C140 C139 1.391 . S
C140 C141 1.391 . S
C141 C140 1.391 . S
C141 C142 1.392 . S
C141 H170 0.947 . S
C142 C141 1.392 . S
C142 C143 1.419 . S
C142 H171 0.948 . S
C143 C142 1.419 . S
C143 C144 1.391 . S
C143 C147 1.397 . S
C144 C139 1.391 . S
C144 C143 1.391 . S
C144 C145 1.399 . S
C145 C144 1.399 . S
C145 C146 1.396 . S
C145 C148 1.453 . S
C145 C149 1.684 . S
C146 C127 1.723 . S
C146 C145 1.396 . S
C146 C147 1.394 . S
C147 C143 1.397 . S
C147 C146 1.394 . S
C147 C157 1.723 . S
C148 C145 1.453 . S
C148 H172 0.982 . S
C148 H173 0.979 . S
C148 H174 0.977 . S
C149 C145 1.684 . S
C149 H175 0.979 . S
C149 H176 0.980 . S
C149 H177 0.983 . S
C150 H126 0.948 . S
C150 C151 1.391 . S
C150 C155 1.391 . S
C151 C150 1.391 . S
C151 C152 1.391 . S
C152 H129 0.947 . S
C152 C151 1.391 . S
C152 C153 1.392 . S
C153 H130 0.948 . S
C153 C152 1.392 . S
C153 C154 1.419 . S
C154 C153 1.419 . S
C154 C155 1.391 . S
C154 C158 1.397 . S
C155 C150 1.391 . S
C155 C154 1.391 . S
C155 C156 1.399 . S
C156 C155 1.399 . S
C156 C157 1.396 . S
C156 C159 1.453 . S
C156 C160 1.684 . S
C157 C147 1.723 . S
C157 C156 1.396 . S
C157 C158 1.394 . S
C158 C128 1.723 . S
C158 C154 1.397 . S
C158 C157 1.394 . S
C159 H131 0.982 . S
C159 H135 0.979 . S
C159 H136 0.977 . S
C159 C156 1.453 . S
C160 H132 0.979 . S
C160 H133 0.980 . S
C160 H134 0.983 . S
C160 C156 1.684 . S
H161 C179 0.948 . S
H162 C120 0.948 . S
H163 C138 0.979 . S
H164 C138 0.980 . S
H165 C138 0.983 . S
H166 C137 0.982 . S
H167 C137 0.979 . S
H168 C137 0.977 . S
H169 C139 0.948 . S
H170 C141 0.947 . S
H171 C142 0.948 . S
H172 C148 0.982 . S
H173 C148 0.979 . S
H174 C148 0.977 . S
H175 C149 0.979 . S
H176 C149 0.980 . S
H177 C149 0.983 . S
H178 C122 0.947 . S
C179 C122 1.392 . S
C179 C123 1.419 . S
C179 H161 0.948 . S
C180 C181 1.391 . S
C180 C184 1.391 . S
C180 H222 0.948 . S
C181 C180 1.391 . S
C181 C182 1.391 . S
C182 C181 1.391 . S
C182 H238 0.947 . S
C182 C239 1.392 . S
C183 C184 1.391 . S
C183 C187 1.397 . S
C183 C239 1.419 . S
C184 C180 1.391 . S
C184 C183 1.391 . S
C184 C185 1.399 . S
C185 C184 1.399 . S
C185 C188 1.396 . S
C185 C197 1.453 . S
C185 C198 1.684 . S
H186 C210 0.948 . S
C187 C183 1.397 . S
C187 C188 1.394 . S
C187 C206 1.723 . S
C188 C185 1.396 . S
C188 C187 1.394 . S
C188 C218 1.723 . S
H189 C212 0.947 . S
H190 C213 0.948 . S
H191 C219 0.982 . S
H192 C220 0.979 . S
H193 C220 0.980 . S
H194 C220 0.983 . S
H195 C219 0.979 . S
H196 C219 0.977 . S
C197 C185 1.453 . S
C197 H226 0.982 . S
C197 H227 0.979 . S
C197 H228 0.977 . S
C198 C185 1.684 . S
C198 H223 0.979 . S
C198 H224 0.980 . S
C198 H225 0.983 . S
C199 C200 1.391 . S
C199 C204 1.391 . S
C199 H229 0.948 . S
C200 C199 1.391 . S
C200 C201 1.391 . S
C201 C200 1.391 . S
C201 C202 1.392 . S
C201 H230 0.947 . S
C202 C201 1.392 . S
C202 C203 1.419 . S
C202 H231 0.948 . S
C203 C202 1.419 . S
C203 C204 1.391 . S
C203 C207 1.397 . S
C204 C199 1.391 . S
C204 C203 1.391 . S
C204 C205 1.399 . S
C205 C204 1.399 . S
C205 C206 1.396 . S
C205 C208 1.453 . S
C205 C209 1.684 . S
C206 C187 1.723 . S
C206 C205 1.396 . S
C206 C207 1.394 . S
C207 C203 1.397 . S
C207 C206 1.394 . S
C207 C217 1.723 . S
C208 C205 1.453 . S
C208 H232 0.982 . S
C208 H233 0.979 . S
C208 H234 0.977 . S
C209 C205 1.684 . S
C209 H235 0.979 . S
C209 H236 0.980 . S
C209 H237 0.983 . S
C210 H186 0.948 . S
C210 C211 1.391 . S
C210 C215 1.391 . S
C211 C210 1.391 . S
C211 C212 1.391 . S
C212 H189 0.947 . S
C212 C211 1.391 . S
C212 C213 1.392 . S
C213 H190 0.948 . S
C213 C212 1.392 . S
C213 C214 1.419 . S
C214 C213 1.419 . S
C214 C215 1.391 . S
C214 C218 1.397 . S
C215 C210 1.391 . S
C215 C214 1.391 . S
C215 C216 1.399 . S
C216 C215 1.399 . S
C216 C217 1.396 . S
C216 C219 1.453 . S
C216 C220 1.684 . S
C217 C207 1.723 . S
C217 C216 1.396 . S
C217 C218 1.394 . S
C218 C188 1.723 . S
C218 C214 1.397 . S
C218 C217 1.394 . S
C219 H191 0.982 . S
C219 H195 0.979 . S
C219 H196 0.977 . S
C219 C216 1.453 . S
C220 H192 0.979 . S
C220 H193 0.980 . S
C220 H194 0.983 . S
C220 C216 1.684 . S
H221 C239 0.948 . S
H222 C180 0.948 . S
H223 C198 0.979 . S
H224 C198 0.980 . S
H225 C198 0.983 . S
H226 C197 0.982 . S
H227 C197 0.979 . S
H228 C197 0.977 . S
H229 C199 0.948 . S
H230 C201 0.947 . S
H231 C202 0.948 . S
H232 C208 0.982 . S
H233 C208 0.979 . S
H234 C208 0.977 . S
H235 C209 0.979 . S
H236 C209 0.980 . S
H237 C209 0.983 . S
H238 C182 0.947 . S
C239 C182 1.392 . S
C239 C183 1.419 . S
C239 H221 0.948 . S
C240 C241 1.391 . S
C240 C244 1.391 . S
C240 H282 0.948 . S
C241 C240 1.391 . S
C241 C242 1.391 . S
C242 C241 1.391 . S
C242 H298 0.947 . S
C242 C299 1.392 . S
C243 C244 1.391 . S
C243 C247 1.397 . S
C243 C299 1.419 . S
C244 C240 1.391 . S
C244 C243 1.391 . S
C244 C245 1.399 . S
C245 C244 1.399 . S
C245 C248 1.396 . S
C245 C257 1.453 . S
C245 C258 1.684 . S
H246 C270 0.948 . S
C247 C243 1.397 . S
C247 C248 1.394 . S
C247 C266 1.723 . S
C248 C245 1.396 . S
C248 C247 1.394 . S
C248 C278 1.723 . S
H249 C272 0.947 . S
H250 C273 0.948 . S
H251 C279 0.982 . S
H252 C280 0.979 . S
H253 C280 0.980 . S
H254 C280 0.983 . S
H255 C279 0.979 . S
H256 C279 0.977 . S
C257 C245 1.453 . S
C257 H286 0.982 . S
C257 H287 0.979 . S
C257 H288 0.977 . S
C258 C245 1.684 . S
C258 H283 0.979 . S
C258 H284 0.980 . S
C258 H285 0.983 . S
C259 C260 1.391 . S
C259 C264 1.391 . S
C259 H289 0.948 . S
C260 C259 1.391 . S
C260 C261 1.391 . S
C261 C260 1.391 . S
C261 C262 1.392 . S
C261 H290 0.947 . S
C262 C261 1.392 . S
C262 C263 1.419 . S
C262 H291 0.948 . S
C263 C262 1.419 . S
C263 C264 1.391 . S
C263 C267 1.397 . S
C264 C259 1.391 . S
C264 C263 1.391 . S
C264 C265 1.399 . S
C265 C264 1.399 . S
C265 C266 1.396 . S
C265 C268 1.453 . S
C265 C269 1.684 . S
C266 C247 1.723 . S
C266 C265 1.396 . S
C266 C267 1.394 . S
C267 C263 1.397 . S
C267 C266 1.394 . S
C267 C277 1.723 . S
C268 C265 1.453 . S
C268 H292 0.982 . S
C268 H293 0.979 . S
C268 H294 0.977 . S
C269 C265 1.684 . S
C269 H295 0.979 . S
C269 H296 0.980 . S
C269 H297 0.983 . S
C270 H246 0.948 . S
C270 C271 1.391 . S
C270 C275 1.391 . S
C271 C270 1.391 . S
C271 C272 1.391 . S
C272 H249 0.947 . S
C272 C271 1.391 . S
C272 C273 1.392 . S
C273 H250 0.948 . S
C273 C272 1.392 . S
C273 C274 1.419 . S
C274 C273 1.419 . S
C274 C275 1.391 . S
C274 C278 1.397 . S
C275 C270 1.391 . S
C275 C274 1.391 . S
C275 C276 1.399 . S
C276 C275 1.399 . S
C276 C277 1.396 . S
C276 C279 1.453 . S
C276 C280 1.684 . S
C277 C267 1.723 . S
C277 C276 1.396 . S
C277 C278 1.394 . S
C278 C248 1.723 . S
C278 C274 1.397 . S
C278 C277 1.394 . S
C279 H251 0.982 . S
C279 H255 0.979 . S
C279 H256 0.977 . S
C279 C276 1.453 . S
C280 H252 0.979 . S
C280 H253 0.980 . S
C280 H254 0.983 . S
C280 C276 1.684 . S
H281 C299 0.948 . S
H282 C240 0.948 . S
H283 C258 0.979 . S
H284 C258 0.980 . S
H285 C258 0.983 . S
H286 C257 0.982 . S
H287 C257 0.979 . S
H288 C257 0.977 . S
H289 C259 0.948 . S
H290 C261 0.947 . S
H291 C262 0.948 . S
H292 C268 0.982 . S
H293 C268 0.979 . S
H294 C268 0.977 . S
H295 C269 0.979 . S
H296 C269 0.980 . S
H297 C269 0.983 . S
H298 C242 0.947 . S
C299 C242 1.392 . S
C299 C243 1.419 . S
C299 H281 0.948 . S
C300 C301 1.391 . S
C300 C304 1.391 . S
C300 H342 0.948 . S
C301 C300 1.391 . S
C301 C302 1.391 . S
C302 C301 1.391 . S
C302 H358 0.947 . S
C302 C359 1.392 . S
C303 C304 1.391 . S
C303 C307 1.397 . S
C303 C359 1.419 . S
C304 C300 1.391 . S
C304 C303 1.391 . S
C304 C305 1.399 . S
C305 C304 1.399 . S
C305 C308 1.396 . S
C305 C317 1.453 . S
C305 C318 1.684 . S
H306 C330 0.948 . S
C307 C303 1.397 . S
C307 C308 1.394 . S
C307 C326 1.723 . S
C308 C305 1.396 . S
C308 C307 1.394 . S
C308 C338 1.723 . S
H309 C332 0.947 . S
H310 C333 0.948 . S
H311 C339 0.982 . S
H312 C340 0.979 . S
H313 C340 0.980 . S
H314 C340 0.983 . S
H315 C339 0.979 . S
H316 C339 0.977 . S
C317 C305 1.453 . S
C317 H346 0.982 . S
C317 H347 0.979 . S
C317 H348 0.977 . S
C318 C305 1.684 . S
C318 H343 0.979 . S
C318 H344 0.980 . S
C318 H345 0.983 . S
C319 C320 1.391 . S
C319 C324 1.391 . S
C319 H349 0.948 . S
C320 C319 1.391 . S
C320 C321 1.391 . S
C321 C320 1.391 . S
C321 C322 1.392 . S
C321 H350 0.947 . S
C322 C321 1.392 . S
C322 C323 1.419 . S
C322 H351 0.948 . S
C323 C322 1.419 . S
C323 C324 1.391 . S
C323 C327 1.397 . S
C324 C319 1.391 . S
C324 C323 1.391 . S
C324 C325 1.399 . S
C325 C324 1.399 . S
C325 C326 1.396 . S
C325 C328 1.453 . S
C325 C329 1.684 . S
C326 C307 1.723 . S
C326 C325 1.396 . S
C326 C327 1.394 . S
C327 C323 1.397 . S
C327 C326 1.394 . S
C327 C337 1.723 . S
C328 C325 1.453 . S
C328 H352 0.982 . S
C328 H353 0.979 . S
C328 H354 0.977 . S
C329 C325 1.684 . S
C329 H355 0.979 . S
C329 H356 0.980 . S
C329 H357 0.983 . S
C330 H306 0.948 . S
C330 C331 1.391 . S
C330 C335 1.391 . S
C331 C330 1.391 . S
C331 C332 1.391 . S
C332 H309 0.947 . S
C332 C331 1.391 . S
C332 C333 1.392 . S
C333 H310 0.948 . S
C333 C332 1.392 . S
C333 C334 1.419 . S
C334 C333 1.419 . S
C334 C335 1.391 . S
C334 C338 1.397 . S
C335 C330 1.391 . S
C335 C334 1.391 . S
C335 C336 1.399 . S
C336 C335 1.399 . S
C336 C337 1.396 . S
C336 C339 1.453 . S
C336 C340 1.684 . S
C337 C327 1.723 . S
C337 C336 1.396 . S
C337 C338 1.394 . S
C338 C308 1.723 . S
C338 C334 1.397 . S
C338 C337 1.394 . S
C339 H311 0.982 . S
C339 H315 0.979 . S
C339 H316 0.977 . S
C339 C336 1.453 . S
C340 H312 0.979 . S
C340 H313 0.980 . S
C340 H314 0.983 . S
C340 C336 1.684 . S
H341 C359 0.948 . S
H342 C300 0.948 . S
H343 C318 0.979 . S
H344 C318 0.980 . S
H345 C318 0.983 . S
H346 C317 0.982 . S
H347 C317 0.979 . S
H348 C317 0.977 . S
H349 C319 0.948 . S
H350 C321 0.947 . S
H351 C322 0.948 . S
H352 C328 0.982 . S
H353 C328 0.979 . S
H354 C328 0.977 . S
H355 C329 0.979 . S
H356 C329 0.980 . S
H357 C329 0.983 . S
H358 C302 0.947 . S
C359 C302 1.392 . S
C359 C303 1.419 . S
C359 H341 0.948 . S
C360 C361 1.391 . S
C360 C364 1.391 . S
C360 H402 0.948 . S
C361 C360 1.391 . S
C361 C362 1.391 . S
C362 C361 1.391 . S
C362 H418 0.947 . S
C362 C419 1.392 . S
C363 C364 1.391 . S
C363 C367 1.397 . S
C363 C419 1.419 . S
C364 C360 1.391 . S
C364 C363 1.391 . S
C364 C365 1.399 . S
C365 C364 1.399 . S
C365 C368 1.396 . S
C365 C377 1.453 . S
C365 C378 1.684 . S
H366 C390 0.948 . S
C367 C363 1.397 . S
C367 C368 1.394 . S
C367 C386 1.723 . S
C368 C365 1.396 . S
C368 C367 1.394 . S
C368 C398 1.723 . S
H369 C392 0.947 . S
H370 C393 0.948 . S
H371 C399 0.982 . S
H372 C400 0.979 . S
H373 C400 0.980 . S
H374 C400 0.983 . S
H375 C399 0.979 . S
H376 C399 0.977 . S
C377 C365 1.453 . S
C377 H406 0.982 . S
C377 H407 0.979 . S
C377 H408 0.977 . S
C378 C365 1.684 . S
C378 H403 0.979 . S
C378 H404 0.980 . S
C378 H405 0.983 . S
C379 C380 1.391 . S
C379 C384 1.391 . S
C379 H409 0.948 . S
C380 C379 1.391 . S
C380 C381 1.391 . S
C381 C380 1.391 . S
C381 C382 1.392 . S
C381 H410 0.947 . S
C382 C381 1.392 . S
C382 C383 1.419 . S
C382 H411 0.948 . S
C383 C382 1.419 . S
C383 C384 1.391 . S
C383 C387 1.397 . S
C384 C379 1.391 . S
C384 C383 1.391 . S
C384 C385 1.399 . S
C385 C384 1.399 . S
C385 C386 1.396 . S
C385 C388 1.453 . S
C385 C389 1.684 . S
C386 C367 1.723 . S
C386 C385 1.396 . S
C386 C387 1.394 . S
C387 C383 1.397 . S
C387 C386 1.394 . S
C387 C397 1.723 . S
C388 C385 1.453 . S
C388 H412 0.982 1_655 S
C388 H413 0.979 . S
C388 H414 0.977 . S
C389 C385 1.684 . S
C389 H415 0.979 . S
C389 H416 0.980 . S
C389 H417 0.983 . S
C390 H366 0.948 . S
C390 C391 1.391 . S
C390 C395 1.391 . S
C391 C390 1.391 . S
C391 C392 1.391 . S
C392 H369 0.947 . S
C392 C391 1.391 . S
C392 C393 1.392 . S
C393 H370 0.948 . S
C393 C392 1.392 . S
C393 C394 1.419 . S
C394 C393 1.419 . S
C394 C395 1.391 . S
C394 C398 1.397 . S
C395 C390 1.391 . S
C395 C394 1.391 . S
C395 C396 1.399 . S
C396 C395 1.399 . S
C396 C397 1.396 . S
C396 C399 1.453 . S
C396 C400 1.684 . S
C397 C387 1.723 . S
C397 C396 1.396 . S
C397 C398 1.394 . S
C398 C368 1.723 . S
C398 C394 1.397 . S
C398 C397 1.394 . S
C399 H371 0.982 . S
C399 H375 0.979 . S
C399 H376 0.977 . S
C399 C396 1.453 . S
C400 H372 0.979 . S
C400 H373 0.980 . S
C400 H374 0.983 . S
C400 C396 1.684 . S
H401 C419 0.948 . S
H402 C360 0.948 . S
H403 C378 0.979 . S
H404 C378 0.980 . S
H405 C378 0.983 . S
H406 C377 0.982 . S
H407 C377 0.979 . S
H408 C377 0.977 . S
H409 C379 0.948 . S
H410 C381 0.947 . S
H411 C382 0.948 . S
H412 C388 0.982 1_455 S
H413 C388 0.979 . S
H414 C388 0.977 . S
H415 C389 0.979 . S
H416 C389 0.980 . S
H417 C389 0.983 . S
H418 C362 0.947 . S
C419 C362 1.392 . S
C419 C363 1.419 . S
C419 H401 0.948 . S
C420 C421 1.391 . S
C420 C424 1.391 . S
C420 H462 0.948 . S
C421 C420 1.391 . S
C421 C422 1.391 . S
C422 C421 1.391 . S
C422 H478 0.947 . S
C422 C479 1.392 . S
C423 C424 1.391 . S
C423 C427 1.397 . S
C423 C479 1.419 . S
C424 C420 1.391 . S
C424 C423 1.391 . S
C424 C425 1.399 . S
C425 C424 1.399 . S
C425 C428 1.396 . S
C425 C437 1.453 . S
C425 C438 1.684 . S
H426 C450 0.948 . S
C427 C423 1.397 . S
C427 C428 1.394 . S
C427 C446 1.723 . S
C428 C425 1.396 . S
C428 C427 1.394 . S
C428 C458 1.723 . S
H429 C452 0.947 . S
H430 C453 0.948 . S
H431 C459 0.982 . S
H432 C460 0.979 . S
H433 C460 0.980 . S
H434 C460 0.983 . S
H435 C459 0.979 . S
H436 C459 0.977 . S
C437 C425 1.453 . S
C437 H466 0.982 . S
C437 H467 0.979 . S
C437 H468 0.977 . S
C438 C425 1.684 . S
C438 H463 0.979 . S
C438 H464 0.980 . S
C438 H465 0.983 . S
C439 C440 1.391 . S
C439 C444 1.391 . S
C439 H469 0.948 . S
C440 C439 1.391 . S
C440 C441 1.391 . S
C441 C440 1.391 . S
C441 C442 1.392 . S
C441 H470 0.947 . S
C442 C441 1.392 . S
C442 C443 1.419 . S
C442 H471 0.948 . S
C443 C442 1.419 . S
C443 C444 1.391 . S
C443 C447 1.397 . S
C444 C439 1.391 . S
C444 C443 1.391 . S
C444 C445 1.399 . S
C445 C444 1.399 . S
C445 C446 1.396 . S
C445 C448 1.453 . S
C445 C449 1.684 . S
C446 C427 1.723 . S
C446 C445 1.396 . S
C446 C447 1.394 . S
C447 C443 1.397 . S
C447 C446 1.394 . S
C447 C457 1.723 . S
C448 C445 1.453 . S
C448 H472 0.982 . S
C448 H473 0.979 . S
C448 H474 0.977 . S
C449 C445 1.684 . S
C449 H475 0.979 . S
C449 H476 0.980 . S
C449 H477 0.983 . S
C450 H426 0.948 . S
C450 C451 1.391 . S
C450 C455 1.391 . S
C451 C450 1.391 . S
C451 C452 1.391 . S
C452 H429 0.947 . S
C452 C451 1.391 . S
C452 C453 1.392 . S
C453 H430 0.948 . S
C453 C452 1.392 . S
C453 C454 1.419 . S
C454 C453 1.419 . S
C454 C455 1.391 . S
C454 C458 1.397 . S
C455 C450 1.391 . S
C455 C454 1.391 . S
C455 C456 1.399 . S
C456 C455 1.399 . S
C456 C457 1.396 . S
C456 C459 1.453 . S
C456 C460 1.684 . S
C457 C447 1.723 . S
C457 C456 1.396 . S
C457 C458 1.394 . S
C458 C428 1.723 . S
C458 C454 1.397 . S
C458 C457 1.394 . S
C459 H431 0.982 . S
C459 H435 0.979 . S
C459 H436 0.977 . S
C459 C456 1.453 . S
C460 H432 0.979 . S
C460 H433 0.980 . S
C460 H434 0.983 . S
C460 C456 1.684 . S
H461 C479 0.948 . S
H462 C420 0.948 . S
H463 C438 0.979 . S
H464 C438 0.980 . S
H465 C438 0.983 . S
H466 C437 0.982 . S
H467 C437 0.979 . S
H468 C437 0.977 . S
H469 C439 0.948 . S
H470 C441 0.947 . S
H471 C442 0.948 . S
H472 C448 0.982 . S
H473 C448 0.979 . S
H474 C448 0.977 . S
H475 C449 0.979 . S
H476 C449 0.980 . S
H477 C449 0.983 . S
H478 C422 0.947 . S
C479 C422 1.392 . S
C479 C423 1.419 . S
C479 H461 0.948 . S
C480 C481 1.391 . S
C480 C484 1.391 . S
C480 H522 0.948 . S
C481 C480 1.391 . S
C481 C482 1.391 . S
C482 C481 1.391 . S
C482 H538 0.947 . S
C482 C539 1.392 . S
C483 C484 1.391 . S
C483 C487 1.397 . S
C483 C539 1.419 . S
C484 C480 1.391 . S
C484 C483 1.391 . S
C484 C485 1.399 . S
C485 C484 1.399 . S
C485 C488 1.396 . S
C485 C497 1.453 . S
C485 C498 1.684 . S
H486 C510 0.948 . S
C487 C483 1.397 . S
C487 C488 1.394 . S
C487 C506 1.723 . S
C488 C485 1.396 . S
C488 C487 1.394 . S
C488 C518 1.723 . S
H489 C512 0.947 . S
H490 C513 0.948 . S
H491 C519 0.982 . S
H492 C520 0.979 . S
H493 C520 0.980 . S
H494 C520 0.983 . S
H495 C519 0.979 . S
H496 C519 0.977 . S
C497 C485 1.453 . S
C497 H526 0.982 . S
C497 H527 0.979 . S
C497 H528 0.977 . S
C498 C485 1.684 . S
C498 H523 0.979 . S
C498 H524 0.980 . S
C498 H525 0.983 . S
C499 C500 1.391 . S
C499 C504 1.391 . S
C499 H529 0.948 . S
C500 C499 1.391 . S
C500 C501 1.391 . S
C501 C500 1.391 . S
C501 C502 1.392 . S
C501 H530 0.947 . S
C502 C501 1.392 . S
C502 C503 1.419 . S
C502 H531 0.948 . S
C503 C502 1.419 . S
C503 C504 1.391 . S
C503 C507 1.397 . S
C504 C499 1.391 . S
C504 C503 1.391 . S
C504 C505 1.399 . S
C505 C504 1.399 . S
C505 C506 1.396 . S
C505 C508 1.453 . S
C505 C509 1.684 . S
C506 C487 1.723 . S
C506 C505 1.396 . S
C506 C507 1.394 . S
C507 C503 1.397 . S
C507 C506 1.394 . S
C507 C517 1.723 . S
C508 C505 1.453 . S
C508 H532 0.982 . S
C508 H533 0.979 . S
C508 H534 0.977 . S
C509 C505 1.684 . S
C509 H535 0.979 . S
C509 H536 0.980 . S
C509 H537 0.983 . S
C510 H486 0.948 . S
C510 C511 1.391 . S
C510 C515 1.391 . S
C511 C510 1.391 . S
C511 C512 1.391 . S
C512 H489 0.947 . S
C512 C511 1.391 . S
C512 C513 1.392 . S
C513 H490 0.948 . S
C513 C512 1.392 . S
C513 C514 1.419 . S
C514 C513 1.419 . S
C514 C515 1.391 . S
C514 C518 1.397 . S
C515 C510 1.391 . S
C515 C514 1.391 . S
C515 C516 1.399 . S
C516 C515 1.399 . S
C516 C517 1.396 . S
C516 C519 1.453 . S
C516 C520 1.684 . S
C517 C507 1.723 . S
C517 C516 1.396 . S
C517 C518 1.394 . S
C518 C488 1.723 . S
C518 C514 1.397 . S
C518 C517 1.394 . S
C519 H491 0.982 . S
C519 H495 0.979 . S
C519 H496 0.977 . S
C519 C516 1.453 . S
C520 H492 0.979 . S
C520 H493 0.980 . S
C520 H494 0.983 . S
C520 C516 1.684 . S
H521 C539 0.948 . S
H522 C480 0.948 . S
H523 C498 0.979 . S
H524 C498 0.980 . S
H525 C498 0.983 . S
H526 C497 0.982 . S
H527 C497 0.979 . S
H528 C497 0.977 . S
H529 C499 0.948 . S
H530 C501 0.947 . S
H531 C502 0.948 . S
H532 C508 0.982 . S
H533 C508 0.979 . S
H534 C508 0.977 . S
H535 C509 0.979 . S
H536 C509 0.980 . S
H537 C509 0.983 . S
H538 C482 0.947 . S
C539 C482 1.392 . S
C539 C483 1.419 . S
C539 H521 0.948 . S
C540 C541 1.391 . S
C540 C544 1.391 . S
C540 H582 0.948 . S
C541 C540 1.391 . S
C541 C542 1.391 . S
C542 C541 1.391 . S
C542 H598 0.947 . S
C542 C599 1.392 . S
C543 C544 1.391 . S
C543 C547 1.397 . S
C543 C599 1.419 . S
C544 C540 1.391 . S
C544 C543 1.391 . S
C544 C545 1.399 . S
C545 C544 1.399 . S
C545 C548 1.396 . S
C545 C557 1.453 . S
C545 C558 1.684 . S
H546 C570 0.948 . S
C547 C543 1.397 . S
C547 C548 1.394 . S
C547 C566 1.723 . S
C548 C545 1.396 . S
C548 C547 1.394 . S
C548 C578 1.723 . S
H549 C572 0.947 . S
H550 C573 0.948 . S
H551 C579 0.982 . S
H552 C580 0.979 . S
H553 C580 0.980 . S
H554 C580 0.983 . S
H555 C579 0.979 . S
H556 C579 0.977 . S
C557 C545 1.453 . S
C557 H586 0.982 . S
C557 H587 0.979 . S
C557 H588 0.977 . S
C558 C545 1.684 . S
C558 H583 0.979 . S
C558 H584 0.980 . S
C558 H585 0.983 . S
C559 C560 1.391 . S
C559 C564 1.391 . S
C559 H589 0.948 . S
C560 C559 1.391 . S
C560 C561 1.391 . S
C561 C560 1.391 . S
C561 C562 1.392 . S
C561 H590 0.947 . S
C562 C561 1.392 . S
C562 C563 1.419 . S
C562 H591 0.948 . S
C563 C562 1.419 . S
C563 C564 1.391 . S
C563 C567 1.397 . S
C564 C559 1.391 . S
C564 C563 1.391 . S
C564 C565 1.399 . S
C565 C564 1.399 . S
C565 C566 1.396 . S
C565 C568 1.453 . S
C565 C569 1.684 . S
C566 C547 1.723 . S
C566 C565 1.396 . S
C566 C567 1.394 . S
C567 C563 1.397 . S
C567 C566 1.394 . S
C567 C577 1.723 . S
C568 C565 1.453 . S
C568 H592 0.982 . S
C568 H593 0.979 . S
C568 H594 0.977 . S
C569 C565 1.684 . S
C569 H595 0.979 . S
C569 H596 0.980 . S
C569 H597 0.983 . S
C570 H546 0.948 . S
C570 C571 1.391 . S
C570 C575 1.391 . S
C571 C570 1.391 . S
C571 C572 1.391 . S
C572 H549 0.947 . S
C572 C571 1.391 . S
C572 C573 1.392 . S
C573 H550 0.948 . S
C573 C572 1.392 . S
C573 C574 1.419 . S
C574 C573 1.419 . S
C574 C575 1.391 . S
C574 C578 1.397 . S
C575 C570 1.391 . S
C575 C574 1.391 . S
C575 C576 1.399 . S
C576 C575 1.399 . S
C576 C577 1.396 . S
C576 C579 1.453 . S
C576 C580 1.684 . S
C577 C567 1.723 . S
C577 C576 1.396 . S
C577 C578 1.394 . S
C578 C548 1.723 . S
C578 C574 1.397 . S
C578 C577 1.394 . S
C579 H551 0.982 . S
C579 H555 0.979 . S
C579 H556 0.977 . S
C579 C576 1.453 . S
C580 H552 0.979 . S
C580 H553 0.980 . S
C580 H554 0.983 . S
C580 C576 1.684 . S
H581 C599 0.948 . S
H582 C540 0.948 . S
H583 C558 0.979 . S
H584 C558 0.980 . S
H585 C558 0.983 . S
H586 C557 0.982 . S
H587 C557 0.979 . S
H588 C557 0.977 . S
H589 C559 0.948 . S
H590 C561 0.947 . S
H591 C562 0.948 . S
H592 C568 0.982 . S
H593 C568 0.979 . S
H594 C568 0.977 . S
H595 C569 0.979 . S
H596 C569 0.980 . S
H597 C569 0.983 . S
H598 C542 0.947 . S
C599 C542 1.392 . S
C599 C543 1.419 . S
C599 H581 0.948 . S
C600 C601 1.391 . S
C600 C604 1.391 . S
C600 H642 0.948 . S
C601 C600 1.391 . S
C601 C602 1.391 . S
C602 C601 1.391 . S
C602 H658 0.947 . S
C602 C659 1.392 . S
C603 C604 1.391 . S
C603 C607 1.397 . S
C603 C659 1.419 . S
C604 C600 1.391 . S
C604 C603 1.391 . S
C604 C605 1.399 . S
C605 C604 1.399 . S
C605 C608 1.396 . S
C605 C617 1.453 . S
C605 C618 1.684 . S
H606 C630 0.948 . S
C607 C603 1.397 . S
C607 C608 1.394 . S
C607 C626 1.723 . S
C608 C605 1.396 . S
C608 C607 1.394 . S
C608 C638 1.723 . S
H609 C632 0.947 . S
H610 C633 0.948 . S
H611 C639 0.982 . S
H612 C640 0.979 . S
H613 C640 0.980 . S
H614 C640 0.983 . S
H615 C639 0.979 . S
H616 C639 0.977 . S
C617 C605 1.453 . S
C617 H646 0.982 . S
C617 H647 0.979 . S
C617 H648 0.977 . S
C618 C605 1.684 . S
C618 H643 0.979 . S
C618 H644 0.980 . S
C618 H645 0.983 . S
C619 C620 1.391 . S
C619 C624 1.391 . S
C619 H649 0.948 . S
C620 C619 1.391 . S
C620 C621 1.391 . S
C621 C620 1.391 . S
C621 C622 1.392 . S
C621 H650 0.947 . S
C622 C621 1.392 . S
C622 C623 1.419 . S
C622 H651 0.948 . S
C623 C622 1.419 . S
C623 C624 1.391 . S
C623 C627 1.397 . S
C624 C619 1.391 . S
C624 C623 1.391 . S
C624 C625 1.399 . S
C625 C624 1.399 . S
C625 C626 1.396 . S
C625 C628 1.453 . S
C625 C629 1.684 . S
C626 C607 1.723 . S
C626 C625 1.396 . S
C626 C627 1.394 . S
C627 C623 1.397 . S
C627 C626 1.394 . S
C627 C637 1.723 . S
C628 C625 1.453 . S
C628 H652 0.982 . S
C628 H653 0.979 . S
C628 H654 0.977 . S
C629 C625 1.684 . S
C629 H655 0.979 . S
C629 H656 0.980 . S
C629 H657 0.983 . S
C630 H606 0.948 . S
C630 C631 1.391 . S
C630 C635 1.391 . S
C631 C630 1.391 . S
C631 C632 1.391 . S
C632 H609 0.947 . S
C632 C631 1.391 . S
C632 C633 1.392 . S
C633 H610 0.948 . S
C633 C632 1.392 . S
C633 C634 1.419 . S
C634 C633 1.419 . S
C634 C635 1.391 . S
C634 C638 1.397 . S
C635 C630 1.391 . S
C635 C634 1.391 . S
C635 C636 1.399 . S
C636 C635 1.399 . S
C636 C637 1.396 . S
C636 C639 1.453 . S
C636 C640 1.684 . S
C637 C627 1.723 . S
C637 C636 1.396 . S
C637 C638 1.394 . S
C638 C608 1.723 . S
C638 C634 1.397 . S
C638 C637 1.394 . S
C639 H611 0.982 . S
C639 H615 0.979 . S
C639 H616 0.977 . S
C639 C636 1.453 . S
C640 H612 0.979 . S
C640 H613 0.980 . S
C640 H614 0.983 . S
C640 C636 1.684 . S
H641 C659 0.948 . S
H642 C600 0.948 . S
H643 C618 0.979 . S
H644 C618 0.980 . S
H645 C618 0.983 . S
H646 C617 0.982 . S
H647 C617 0.979 . S
H648 C617 0.977 . S
H649 C619 0.948 . S
H650 C621 0.947 . S
H651 C622 0.948 . S
H652 C628 0.982 . S
H653 C628 0.979 . S
H654 C628 0.977 . S
H655 C629 0.979 . S
H656 C629 0.980 . S
H657 C629 0.983 . S
H658 C602 0.947 . S
C659 C602 1.392 . S
C659 C603 1.419 . S
C659 H641 0.948 . S
C660 C661 1.391 . S
C660 C664 1.391 . S
C660 H702 0.948 . S
C661 C660 1.391 . S
C661 C662 1.391 . S
C662 C661 1.391 . S
C662 H718 0.947 . S
C662 C719 1.392 . S
C663 C664 1.391 . S
C663 C667 1.397 . S
C663 C719 1.419 . S
C664 C660 1.391 . S
C664 C663 1.391 . S
C664 C665 1.399 . S
C665 C664 1.399 . S
C665 C668 1.396 . S
C665 C677 1.453 . S
C665 C678 1.684 . S
H666 C690 0.948 . S
C667 C663 1.397 . S
C667 C668 1.394 . S
C667 C686 1.723 . S
C668 C665 1.396 . S
C668 C667 1.394 . S
C668 C698 1.723 . S
H669 C692 0.947 . S
H670 C693 0.948 . S
H671 C699 0.982 . S
H672 C700 0.979 . S
H673 C700 0.980 . S
H674 C700 0.983 . S
H675 C699 0.979 . S
H676 C699 0.977 . S
C677 C665 1.453 . S
C677 H706 0.982 . S
C677 H707 0.979 . S
C677 H708 0.977 . S
C678 C665 1.684 . S
C678 H703 0.979 . S
C678 H704 0.980 . S
C678 H705 0.983 . S
C679 C680 1.391 . S
C679 C684 1.391 . S
C679 H709 0.948 . S
C680 C679 1.391 . S
C680 C681 1.391 . S
C681 C680 1.391 . S
C681 C682 1.392 . S
C681 H710 0.947 . S
C682 C681 1.392 . S
C682 C683 1.419 . S
C682 H711 0.948 . S
C683 C682 1.419 . S
C683 C684 1.391 . S
C683 C687 1.397 . S
C684 C679 1.391 . S
C684 C683 1.391 . S
C684 C685 1.399 . S
C685 C684 1.399 . S
C685 C686 1.396 . S
C685 C688 1.453 . S
C685 C689 1.684 . S
C686 C667 1.723 . S
C686 C685 1.396 . S
C686 C687 1.394 . S
C687 C683 1.397 . S
C687 C686 1.394 . S
C687 C697 1.723 . S
C688 C685 1.453 . S
C688 H712 0.982 . S
C688 H713 0.979 . S
C688 H714 0.977 . S
C689 C685 1.684 . S
C689 H715 0.979 . S
C689 H716 0.980 . S
C689 H717 0.983 . S
C690 H666 0.948 . S
C690 C691 1.391 . S
C690 C695 1.391 . S
C691 C690 1.391 . S
C691 C692 1.391 . S
C692 H669 0.947 . S
C692 C691 1.391 . S
C692 C693 1.392 . S
C693 H670 0.948 . S
C693 C692 1.392 . S
C693 C694 1.419 . S
C694 C693 1.419 . S
C694 C695 1.391 . S
C694 C698 1.397 . S
C695 C690 1.391 . S
C695 C694 1.391 . S
C695 C696 1.399 . S
C696 C695 1.399 . S
C696 C697 1.396 . S
C696 C699 1.453 . S
C696 C700 1.684 . S
C697 C687 1.723 . S
C697 C696 1.396 . S
C697 C698 1.394 . S
C698 C668 1.723 . S
C698 C694 1.397 . S
C698 C697 1.394 . S
C699 H671 0.982 . S
C699 H675 0.979 . S
C699 H676 0.977 . S
C699 C696 1.453 . S
C700 H672 0.979 . S
C700 H673 0.980 . S
C700 H674 0.983 . S
C700 C696 1.684 . S
H701 C719 0.948 . S
H702 C660 0.948 . S
H703 C678 0.979 . S
H704 C678 0.980 . S
H705 C678 0.983 . S
H706 C677 0.982 . S
H707 C677 0.979 . S
H708 C677 0.977 . S
H709 C679 0.948 . S
H710 C681 0.947 . S
H711 C682 0.948 . S
H712 C688 0.982 . S
H713 C688 0.979 . S
H714 C688 0.977 . S
H715 C689 0.979 . S
H716 C689 0.980 . S
H717 C689 0.983 . S
H718 C662 0.947 . S
C719 C662 1.392 . S
C719 C663 1.419 . S
C719 H701 0.948 . S
C720 C721 1.391 . S
C720 C724 1.391 . S
C720 H762 0.948 . S
C721 C720 1.391 . S
C721 C722 1.391 . S
C722 C721 1.391 . S
C722 H778 0.947 . S
C722 C779 1.392 . S
C723 C724 1.391 . S
C723 C727 1.397 . S
C723 C779 1.419 . S
C724 C720 1.391 . S
C724 C723 1.391 . S
C724 C725 1.399 . S
C725 C724 1.399 . S
C725 C728 1.396 . S
C725 C737 1.453 . S
C725 C738 1.684 . S
H726 C750 0.948 . S
C727 C723 1.397 . S
C727 C728 1.394 . S
C727 C746 1.723 . S
C728 C725 1.396 . S
C728 C727 1.394 . S
C728 C758 1.723 . S
H729 C752 0.947 . S
H730 C753 0.948 . S
H731 C759 0.982 . S
H732 C760 0.979 . S
H733 C760 0.980 . S
H734 C760 0.983 . S
H735 C759 0.979 . S
H736 C759 0.977 . S
C737 C725 1.453 . S
C737 H766 0.982 . S
C737 H767 0.979 . S
C737 H768 0.977 . S
C738 C725 1.684 . S
C738 H763 0.979 . S
C738 H764 0.980 . S
C738 H765 0.983 . S
C739 C740 1.391 . S
C739 C744 1.391 . S
C739 H769 0.948 . S
C740 C739 1.391 . S
C740 C741 1.391 . S
C741 C740 1.391 . S
C741 C742 1.392 . S
C741 H770 0.947 . S
C742 C741 1.392 . S
C742 C743 1.419 . S
C742 H771 0.948 . S
C743 C742 1.419 . S
C743 C744 1.391 . S
C743 C747 1.397 . S
C744 C739 1.391 . S
C744 C743 1.391 . S
C744 C745 1.399 . S
C745 C744 1.399 . S
C745 C746 1.396 . S
C745 C748 1.453 . S
C745 C749 1.684 . S
C746 C727 1.723 . S
C746 C745 1.396 . S
C746 C747 1.394 . S
C747 C743 1.397 . S
C747 C746 1.394 . S
C747 C757 1.723 . S
C748 C745 1.453 . S
C748 H772 0.982 . S
C748 H773 0.979 . S
C748 H774 0.977 . S
C749 C745 1.684 . S
C749 H775 0.979 . S
C749 H776 0.980 . S
C749 H777 0.983 . S
C750 H726 0.948 . S
C750 C751 1.391 . S
C750 C755 1.391 . S
C751 C750 1.391 . S
C751 C752 1.391 . S
C752 H729 0.947 . S
C752 C751 1.391 . S
C752 C753 1.392 . S
C753 H730 0.948 . S
C753 C752 1.392 . S
C753 C754 1.419 . S
C754 C753 1.419 . S
C754 C755 1.391 . S
C754 C758 1.397 . S
C755 C750 1.391 . S
C755 C754 1.391 . S
C755 C756 1.399 . S
C756 C755 1.399 . S
C756 C757 1.396 . S
C756 C759 1.453 . S
C756 C760 1.684 . S
C757 C747 1.723 . S
C757 C756 1.396 . S
C757 C758 1.394 . S
C758 C728 1.723 . S
C758 C754 1.397 . S
C758 C757 1.394 . S
C759 H731 0.982 . S
C759 H735 0.979 . S
C759 H736 0.977 . S
C759 C756 1.453 . S
C760 H732 0.979 . S
C760 H733 0.980 . S
C760 H734 0.983 . S
C760 C756 1.684 . S
H761 C779 0.948 . S
H762 C720 0.948 . S
H763 C738 0.979 . S
H764 C738 0.980 . S
H765 C738 0.983 . S
H766 C737 0.982 . S
H767 C737 0.979 . S
H768 C737 0.977 . S
H769 C739 0.948 . S
H770 C741 0.947 . S
H771 C742 0.948 . S
H772 C748 0.982 . S
H773 C748 0.979 . S
H774 C748 0.977 . S
H775 C749 0.979 . S
H776 C749 0.980 . S
H777 C749 0.983 . S
H778 C722 0.947 . S
C779 C722 1.392 . S
C779 C723 1.419 . S
C779 H761 0.948 . S
C780 C781 1.391 . S
C780 C784 1.391 . S
C780 H822 0.948 . S
C781 C780 1.391 . S
C781 C782 1.391 . S
C782 C781 1.391 . S
C782 H838 0.947 . S
C782 C839 1.392 . S
C783 C784 1.391 . S
C783 C787 1.397 . S
C783 C839 1.419 . S
C784 C780 1.391 . S
C784 C783 1.391 . S
C784 C785 1.399 . S
C785 C784 1.399 . S
C785 C788 1.396 . S
C785 C797 1.453 . S
C785 C798 1.684 . S
H786 C810 0.948 . S
C787 C783 1.397 . S
C787 C788 1.394 . S
C787 C806 1.723 . S
C788 C785 1.396 . S
C788 C787 1.394 . S
C788 C818 1.723 . S
H789 C812 0.947 . S
H790 C813 0.948 . S
H791 C819 0.982 . S
H792 C820 0.979 . S
H793 C820 0.980 . S
H794 C820 0.983 . S
H795 C819 0.979 . S
H796 C819 0.977 . S
C797 C785 1.453 . S
C797 H826 0.982 . S
C797 H827 0.979 . S
C797 H828 0.977 . S
C798 C785 1.684 . S
C798 H823 0.979 . S
C798 H824 0.980 . S
C798 H825 0.983 . S
C799 C800 1.391 . S
C799 C804 1.391 . S
C799 H829 0.948 . S
C800 C799 1.391 . S
C800 C801 1.391 . S
C801 C800 1.391 . S
C801 C802 1.392 . S
C801 H830 0.947 . S
C802 C801 1.392 . S
C802 C803 1.419 . S
C802 H831 0.948 . S
C803 C802 1.419 . S
C803 C804 1.391 . S
C803 C807 1.397 . S
C804 C799 1.391 . S
C804 C803 1.391 . S
C804 C805 1.399 . S
C805 C804 1.399 . S
C805 C806 1.396 . S
C805 C808 1.453 . S
C805 C809 1.684 . S
C806 C787 1.723 . S
C806 C805 1.396 . S
C806 C807 1.394 . S
C807 C803 1.397 . S
C807 C806 1.394 . S
C807 C817 1.723 . S
C808 C805 1.453 . S
C808 H832 0.982 . S
C808 H833 0.979 . S
C808 H834 0.977 . S
C809 C805 1.684 . S
C809 H835 0.979 . S
C809 H836 0.980 . S
C809 H837 0.983 . S
C810 H786 0.948 . S
C810 C811 1.391 . S
C810 C815 1.391 . S
C811 C810 1.391 . S
C811 C812 1.391 . S
C812 H789 0.947 . S
C812 C811 1.391 . S
C812 C813 1.392 . S
C813 H790 0.948 . S
C813 C812 1.392 . S
C813 C814 1.419 . S
C814 C813 1.419 . S
C814 C815 1.391 . S
C814 C818 1.397 . S
C815 C810 1.391 . S
C815 C814 1.391 . S
C815 C816 1.399 . S
C816 C815 1.399 . S
C816 C817 1.396 . S
C816 C819 1.453 . S
C816 C820 1.684 . S
C817 C807 1.723 . S
C817 C816 1.396 . S
C817 C818 1.394 . S
C818 C788 1.723 . S
C818 C814 1.397 . S
C818 C817 1.394 . S
C819 H791 0.982 . S
C819 H795 0.979 . S
C819 H796 0.977 . S
C819 C816 1.453 . S
C820 H792 0.979 . S
C820 H793 0.980 . S
C820 H794 0.983 . S
C820 C816 1.684 . S
H821 C839 0.948 . S
H822 C780 0.948 . S
H823 C798 0.979 . S
H824 C798 0.980 . S
H825 C798 0.983 . S
H826 C797 0.982 . S
H827 C797 0.979 . S
H828 C797 0.977 . S
H829 C799 0.948 . S
H830 C801 0.947 . S
H831 C802 0.948 . S
H832 C808 0.982 . S
H833 C808 0.979 . S
H834 C808 0.977 . S
H835 C809 0.979 . S
H836 C809 0.980 . S
H837 C809 0.983 . S
H838 C782 0.947 . S
C839 C782 1.392 . S
C839 C783 1.419 . S
C839 H821 0.948 . S
C840 C841 1.391 . S
C840 C844 1.391 . S
C840 H882 0.948 . S
C841 C840 1.391 . S
C841 C842 1.391 . S
C842 C841 1.391 . S
C842 H898 0.947 . S
C842 C899 1.392 . S
C843 C844 1.391 . S
C843 C847 1.397 . S
C843 C899 1.419 . S
C844 C840 1.391 . S
C844 C843 1.391 . S
C844 C845 1.399 . S
C845 C844 1.399 . S
C845 C848 1.396 . S
C845 C857 1.453 . S
C845 C858 1.684 . S
H846 C870 0.948 . S
C847 C843 1.397 . S
C847 C848 1.394 . S
C847 C866 1.723 . S
C848 C845 1.396 . S
C848 C847 1.394 . S
C848 C878 1.723 . S
H849 C872 0.947 . S
H850 C873 0.948 . S
H851 C879 0.982 . S
H852 C880 0.979 . S
H853 C880 0.980 . S
H854 C880 0.983 . S
H855 C879 0.979 . S
H856 C879 0.977 . S
C857 C845 1.453 . S
C857 H886 0.982 . S
C857 H887 0.979 . S
C857 H888 0.977 . S
C858 C845 1.684 . S
C858 H883 0.979 . S
C858 H884 0.980 . S
C858 H885 0.983 . S
C859 C860 1.391 . S
C859 C864 1.391 . S
C859 H889 0.948 . S
C860 C859 1.391 . S
C860 C861 1.391 . S
C861 C860 1.391 . S
C861 C862 1.392 . S
C861 H890 0.947 . S
C862 C861 1.392 . S
C862 C863 1.419 . S
C862 H891 0.948 . S
C863 C862 1.419 . S
C863 C864 1.391 . S
C863 C867 1.397 . S
C864 C859 1.391 . S
C864 C863 1.391 . S
C864 C865 1.399 . S
C865 C864 1.399 . S
C865 C866 1.396 . S
C865 C868 1.453 . S
C865 C869 1.684 . S
C866 C847 1.723 . S
C866 C865 1.396 . S
C866 C867 1.394 . S
C867 C863 1.397 . S
C867 C866 1.394 . S
C867 C877 1.723 . S
C868 C865 1.453 . S
C868 H892 0.982 . S
C868 H893 0.979 . S
C868 H894 0.977 . S
C869 C865 1.684 . S
C869 H895 0.979 . S
C869 H896 0.980 . S
C869 H897 0.983 . S
C870 H846 0.948 . S
C870 C871 1.391 . S
C870 C875 1.391 . S
C871 C870 1.391 . S
C871 C872 1.391 . S
C872 H849 0.947 . S
C872 C871 1.391 . S
C872 C873 1.392 . S
C873 H850 0.948 . S
C873 C872 1.392 . S
C873 C874 1.419 . S
C874 C873 1.419 . S
C874 C875 1.391 . S
C874 C878 1.397 . S
C875 C870 1.391 . S
C875 C874 1.391 . S
C875 C876 1.399 . S
C876 C875 1.399 . S
C876 C877 1.396 . S
C876 C879 1.453 . S
C876 C880 1.684 . S
C877 C867 1.723 . S
C877 C876 1.396 . S
C877 C878 1.394 . S
C878 C848 1.723 . S
C878 C874 1.397 . S
C878 C877 1.394 . S
C879 H851 0.982 . S
C879 H855 0.979 . S
C879 H856 0.977 . S
C879 C876 1.453 . S
C880 H852 0.979 . S
C880 H853 0.980 . S
C880 H854 0.983 . S
C880 C876 1.684 . S
H881 C899 0.948 . S
H882 C840 0.948 . S
H883 C858 0.979 . S
H884 C858 0.980 . S
H885 C858 0.983 . S
H886 C857 0.982 . S
H887 C857 0.979 . S
H888 C857 0.977 . S
H889 C859 0.948 . S
H890 C861 0.947 . S
H891 C862 0.948 . S
H892 C868 0.982 . S
H893 C868 0.979 . S
H894 C868 0.977 . S
H895 C869 0.979 . S
H896 C869 0.980 . S
H897 C869 0.983 . S
H898 C842 0.947 . S
C899 C842 1.392 . S
C899 C843 1.419 . S
C899 H881 0.948 . S
C900 C901 1.391 . S
C900 C904 1.391 . S
C900 H942 0.948 . S
C901 C900 1.391 . S
C901 C902 1.391 . S
C902 C901 1.391 . S
C902 H958 0.947 . S
C902 C959 1.392 . S
C903 C904 1.391 . S
C903 C907 1.397 . S
C903 C959 1.419 . S
C904 C900 1.391 . S
C904 C903 1.391 . S
C904 C905 1.399 . S
C905 C904 1.399 . S
C905 C908 1.396 . S
C905 C917 1.453 . S
C905 C918 1.684 . S
H906 C930 0.948 . S
C907 C903 1.397 . S
C907 C908 1.394 . S
C907 C926 1.723 . S
C908 C905 1.396 . S
C908 C907 1.394 . S
C908 C938 1.723 . S
H909 C932 0.947 . S
H910 C933 0.948 . S
H911 C939 0.982 . S
H912 C940 0.979 . S
H913 C940 0.980 . S
H914 C940 0.983 . S
H915 C939 0.979 . S
H916 C939 0.977 . S
C917 C905 1.453 . S
C917 H946 0.982 . S
C917 H947 0.979 . S
C917 H948 0.977 . S
C918 C905 1.684 . S
C918 H943 0.979 . S
C918 H944 0.980 . S
C918 H945 0.983 . S
C919 C920 1.391 . S
C919 C924 1.391 . S
C919 H949 0.948 . S
C920 C919 1.391 . S
C920 C921 1.391 . S
C921 C920 1.391 . S
C921 C922 1.392 . S
C921 H950 0.947 . S
C922 C921 1.392 . S
C922 C923 1.419 . S
C922 H951 0.948 . S
C923 C922 1.419 . S
C923 C924 1.391 . S
C923 C927 1.397 . S
C924 C919 1.391 . S
C924 C923 1.391 . S
C924 C925 1.399 . S
C925 C924 1.399 . S
C925 C926 1.396 . S
C925 C928 1.453 . S
C925 C929 1.684 . S
C926 C907 1.723 . S
C926 C925 1.396 . S
C926 C927 1.394 . S
C927 C923 1.397 . S
C927 C926 1.394 . S
C927 C937 1.723 . S
C928 C925 1.453 . S
C928 H952 0.982 . S
C928 H953 0.979 . S
C928 H954 0.977 . S
C929 C925 1.684 . S
C929 H955 0.979 . S
C929 H956 0.980 . S
C929 H957 0.983 . S
C930 H906 0.948 . S
C930 C931 1.391 . S
C930 C935 1.391 . S
C931 C930 1.391 . S
C931 C932 1.391 . S
C932 H909 0.947 . S
C932 C931 1.391 . S
C932 C933 1.392 . S
C933 H910 0.948 . S
C933 C932 1.392 . S
C933 C934 1.419 . S
C934 C933 1.419 . S
C934 C935 1.391 . S
C934 C938 1.397 . S
C935 C930 1.391 . S
C935 C934 1.391 . S
C935 C936 1.399 . S
C936 C935 1.399 . S
C936 C937 1.396 . S
C936 C939 1.453 . S
C936 C940 1.684 . S
C937 C927 1.723 . S
C937 C936 1.396 . S
C937 C938 1.394 . S
C938 C908 1.723 . S
C938 C934 1.397 . S
C938 C937 1.394 . S
C939 H911 0.982 . S
C939 H915 0.979 . S
C939 H916 0.977 . S
C939 C936 1.453 . S
C940 H912 0.979 . S
C940 H913 0.980 . S
C940 H914 0.983 . S
C940 C936 1.684 . S
H941 C959 0.948 . S
H942 C900 0.948 . S
H943 C918 0.979 . S
H944 C918 0.980 . S
H945 C918 0.983 . S
H946 C917 0.982 . S
H947 C917 0.979 . S
H948 C917 0.977 . S
H949 C919 0.948 . S
H950 C921 0.947 . S
H951 C922 0.948 . S
H952 C928 0.982 . S
H953 C928 0.979 . S
H954 C928 0.977 . S
H955 C929 0.979 . S
H956 C929 0.980 . S
H957 C929 0.983 . S
H958 C902 0.947 . S
C959 C902 1.392 . S
C959 C903 1.419 . S
C959 H941 0.948 . S
C960 C961 1.391 . S
C960 C964 1.391 . S
C960 H1002 0.948 . S
C961 C960 1.391 . S
C961 C962 1.391 . S
C962 C961 1.391 . S
C962 H1018 0.947 . S
C962 C1019 1.392 . S
C963 C964 1.391 . S
C963 C967 1.397 . S
C963 C1019 1.419 . S
C964 C960 1.391 . S
C964 C963 1.391 . S
C964 C965 1.399 . S
C965 C964 1.399 . S
C965 C968 1.396 . S
C965 C977 1.453 . S
C965 C978 1.684 . S
H966 C990 0.948 . S
C967 C963 1.397 . S
C967 C968 1.394 . S
C967 C986 1.723 . S
C968 C965 1.396 . S
C968 C967 1.394 . S
C968 C998 1.723 . S
H969 C992 0.947 . S
H970 C993 0.948 . S
H971 C999 0.982 . S
H972 C1000 0.979 1_655 S
H973 C1000 0.980 . S
H974 C1000 0.983 . S
H975 C999 0.979 . S
H976 C999 0.977 . S
C977 C965 1.453 . S
C977 H1006 0.982 . S
C977 H1007 0.979 . S
C977 H1008 0.977 . S
C978 C965 1.684 . S
C978 H1003 0.979 . S
C978 H1004 0.980 . S
C978 H1005 0.983 . S
C979 C980 1.391 . S
C979 C984 1.391 . S
C979 H1009 0.948 . S
C980 C979 1.391 . S
C980 C981 1.391 . S
C981 C980 1.391 . S
C981 C982 1.392 . S
C981 H1010 0.947 . S
C982 C981 1.392 . S
C982 C983 1.419 . S
C982 H1011 0.948 . S
C983 C982 1.419 . S
C983 C984 1.391 . S
C983 C987 1.397 . S
C984 C979 1.391 . S
C984 C983 1.391 . S
C984 C985 1.399 . S
C985 C984 1.399 . S
C985 C986 1.396 . S
C985 C988 1.453 . S
C985 C989 1.684 . S
C986 C967 1.723 . S
C986 C985 1.396 . S
C986 C987 1.394 . S
C987 C983 1.397 . S
C987 C986 1.394 . S
C987 C997 1.723 . S
C988 C985 1.453 . S
C988 H1012 0.982 . S
C988 H1013 0.979 . S
C988 H1014 0.977 . S
C989 C985 1.684 . S
C989 H1015 0.979 1_455 S
C989 H1016 0.980 . S
C989 H1017 0.983 . S
C990 H966 0.948 . S
C990 C991 1.391 . S
C990 C995 1.391 . S
C991 C990 1.391 . S
C991 C992 1.391 . S
C992 H969 0.947 . S
C992 C991 1.391 . S
C992 C993 1.392 . S
C993 H970 0.948 . S
C993 C992 1.392 . S
C993 C994 1.419 . S
C994 C993 1.419 . S
C994 C995 1.391 . S
C994 C998 1.397 . S
C995 C990 1.391 . S
C995 C994 1.391 . S
C995 C996 1.399 . S
C996 C995 1.399 . S
C996 C997 1.396 . S
C996 C999 1.453 . S
C996 C1000 1.684 . S
C997 C987 1.723 . S
C997 C996 1.396 . S
C997 C998 1.394 . S
C998 C968 1.723 . S
C998 C994 1.397 . S
C998 C997 1.394 . S
C999 H971 0.982 . S
C999 H975 0.979 . S
C999 H976 0.977 . S
C999 C996 1.453 . S
C1000 H972 0.979 1_455 S
C1000 H973 0.980 . S
C1000 H974 0.983 . S
C1000 C996 1.684 . S
H1001 C1019 0.948 . S
H1002 C960 0.948 . S
H1003 C978 0.979 . S
H1004 C978 0.980 . S
H1005 C978 0.983 . S
H1006 C977 0.982 . S
H1007 C977 0.979 . S
H1008 C977 0.977 . S
H1009 C979 0.948 . S
H1010 C981 0.947 . S
H1011 C982 0.948 . S
H1012 C988 0.982 . S
H1013 C988 0.979 . S
H1014 C988 0.977 . S
H1015 C989 0.979 1_655 S
H1016 C989 0.980 . S
H1017 C989 0.983 . S
H1018 C962 0.947 . S
C1019 C962 1.392 . S
C1019 C963 1.419 . S
C1019 H1001 0.948 . S
C1020 C1021 1.391 . S
C1020 C1024 1.391 . S
C1020 H1062 0.948 . S
C1021 C1020 1.391 . S
C1021 C1022 1.391 . S
C1022 C1021 1.391 . S
C1022 H1078 0.947 . S
C1022 C1079 1.392 . S
C1023 C1024 1.391 . S
C1023 C1027 1.397 . S
C1023 C1079 1.419 . S
C1024 C1020 1.391 . S
C1024 C1023 1.391 . S
C1024 C1025 1.399 . S
C1025 C1024 1.399 . S
C1025 C1028 1.396 . S
C1025 C1037 1.453 . S
C1025 C1038 1.684 . S
H1026 C1050 0.948 . S
C1027 C1023 1.397 . S
C1027 C1028 1.394 . S
C1027 C1046 1.723 . S
C1028 C1025 1.396 . S
C1028 C1027 1.394 . S
C1028 C1058 1.723 . S
H1029 C1052 0.947 . S
H1030 C1053 0.948 . S
H1031 C1059 0.982 . S
H1032 C1060 0.979 . S
H1033 C1060 0.980 . S
H1034 C1060 0.983 . S
H1035 C1059 0.979 . S
H1036 C1059 0.977 . S
C1037 C1025 1.453 . S
C1037 H1066 0.982 . S
C1037 H1067 0.979 . S
C1037 H1068 0.977 . S
C1038 C1025 1.684 . S
C1038 H1063 0.979 . S
C1038 H1064 0.980 . S
C1038 H1065 0.983 . S
C1039 C1040 1.391 . S
C1039 C1044 1.391 . S
C1039 H1069 0.948 . S
C1040 C1039 1.391 . S
C1040 C1041 1.391 . S
C1041 C1040 1.391 . S
C1041 C1042 1.392 . S
C1041 H1070 0.947 . S
C1042 C1041 1.392 . S
C1042 C1043 1.419 . S
C1042 H1071 0.948 . S
C1043 C1042 1.419 . S
C1043 C1044 1.391 . S
C1043 C1047 1.397 . S
C1044 C1039 1.391 . S
C1044 C1043 1.391 . S
C1044 C1045 1.399 . S
C1045 C1044 1.399 . S
C1045 C1046 1.396 . S
C1045 C1048 1.453 . S
C1045 C1049 1.684 . S
C1046 C1027 1.723 . S
C1046 C1045 1.396 . S
C1046 C1047 1.394 . S
C1047 C1043 1.397 . S
C1047 C1046 1.394 . S
C1047 C1057 1.723 . S
C1048 C1045 1.453 . S
C1048 H1072 0.982 . S
C1048 H1073 0.979 . S
C1048 H1074 0.977 . S
C1049 C1045 1.684 . S
C1049 H1075 0.979 . S
C1049 H1076 0.980 . S
C1049 H1077 0.983 . S
C1050 H1026 0.948 . S
C1050 C1051 1.391 . S
C1050 C1055 1.391 . S
C1051 C1050 1.391 . S
C1051 C1052 1.391 . S
C1052 H1029 0.947 . S
C1052 C1051 1.391 . S
C1052 C1053 1.392 . S
C1053 H1030 0.948 . S
C1053 C1052 1.392 . S
C1053 C1054 1.419 . S
C1054 C1053 1.419 . S
C1054 C1055 1.391 . S
C1054 C1058 1.397 . S
C1055 C1050 1.391 . S
C1055 C1054 1.391 . S
C1055 C1056 1.399 . S
C1056 C1055 1.399 . S
C1056 C1057 1.396 . S
C1056 C1059 1.453 . S
C1056 C1060 1.684 . S
C1057 C1047 1.723 . S
C1057 C1056 1.396 . S
C1057 C1058 1.394 . S
C1058 C1028 1.723 . S
C1058 C1054 1.397 . S
C1058 C1057 1.394 . S
C1059 H1031 0.982 . S
C1059 H1035 0.979 . S
C1059 H1036 0.977 . S
C1059 C1056 1.453 . S
C1060 H1032 0.979 . S
C1060 H1033 0.980 . S
C1060 H1034 0.983 . S
C1060 C1056 1.684 . S
H1061 C1079 0.948 . S
H1062 C1020 0.948 . S
H1063 C1038 0.979 . S
H1064 C1038 0.980 . S
H1065 C1038 0.983 . S
H1066 C1037 0.982 . S
H1067 C1037 0.979 . S
H1068 C1037 0.977 . S
H1069 C1039 0.948 . S
H1070 C1041 0.947 . S
H1071 C1042 0.948 . S
H1072 C1048 0.982 . S
H1073 C1048 0.979 . S
H1074 C1048 0.977 . S
H1075 C1049 0.979 . S
H1076 C1049 0.980 . S
H1077 C1049 0.983 . S
H1078 C1022 0.947 . S
C1079 C1022 1.392 . S
C1079 C1023 1.419 . S
C1079 H1061 0.948 . S
C1080 Eu1081 2.835 . S
C1080 C1082 1.500 . S
C1080 O1100 1.257 1_545 S
C1080 O1101 1.260 . S
Eu1081 C1080 2.835 . S
Eu1081 O1100 2.473 1_545 S
Eu1081 O1101 2.480 . S
Eu1081 O1102 2.430 . S
Eu1081 O1103 2.670 1_554 S
Eu1081 O1104 2.394 1_545 S
Eu1081 O1109 2.355 1_545 S
Eu1081 O1111 2.374 . S
C1082 C1080 1.500 . S
C1082 C1083 1.377 . S
C1082 C1087 1.377 1_545 S
C1083 C1082 1.377 . S
C1083 C1084 1.395 . S
C1083 H1112 0.931 . S
C1084 C1083 1.395 . S
C1084 C1085 1.383 1_545 S
C1084 H1113 0.931 . S
C1085 C1084 1.383 1_565 S
C1085 C1086 1.394 . S
C1086 C1085 1.394 . S
C1086 C1087 1.378 . S
C1086 H1114 0.931 . S
C1087 C1082 1.377 1_565 S
C1087 C1086 1.378 . S
C1087 H1115 0.931 . S
C1088 O1102 1.259 1_556 S
C1088 O1103 1.270 . S
C1089 O1104 1.251 . S
C1089 O1105 1.251 1_554 S
C1090 Eu1091 2.835 . S
C1090 C1092 1.500 . S
C1090 O1106 1.257 1_565 S
C1090 O1107 1.260 . S
Eu1091 C1090 2.835 . S
Eu1091 O1103 2.355 1_565 S
Eu1091 O1105 2.374 . S
Eu1091 O1106 2.473 1_565 S
Eu1091 O1107 2.480 . S
Eu1091 O1108 2.430 . S
Eu1091 O1109 2.670 1_556 S
Eu1091 O1110 2.394 1_565 S
C1092 C1090 1.500 . S
C1092 C1093 1.377 . S
C1092 C1097 1.377 1_565 S
C1093 C1092 1.377 . S
C1093 C1094 1.395 . S
C1093 H1116 0.931 . S
C1094 C1093 1.395 . S
C1094 C1095 1.383 1_565 S
C1094 H1117 0.931 . S
C1095 C1094 1.383 1_545 S
C1095 C1096 1.394 . S
C1096 C1095 1.394 . S
C1096 C1097 1.378 . S
C1096 H1118 0.931 . S
C1097 C1092 1.377 1_545 S
C1097 C1096 1.378 . S
C1097 H1119 0.931 . S
C1098 O1108 1.259 1_554 S
C1098 O1109 1.270 . S
C1099 O1110 1.251 . S
C1099 O1111 1.251 1_556 S
O1100 C1080 1.257 1_565 S
O1100 Eu1081 2.473 1_565 S
O1101 C1080 1.260 . S
O1101 Eu1081 2.480 . S
O1102 Eu1081 2.430 . S
O1102 C1088 1.259 1_554 S
O1103 Eu1081 2.670 1_556 S
O1103 C1088 1.270 . S
O1103 Eu1091 2.355 1_545 S
O1104 Eu1081 2.394 1_565 S
O1104 C1089 1.251 . S
O1105 C1089 1.251 1_556 S
O1105 Eu1091 2.374 . S
O1106 C1090 1.257 1_545 S
O1106 Eu1091 2.473 1_545 S
O1107 C1090 1.260 . S
O1107 Eu1091 2.480 . S
O1108 Eu1091 2.430 . S
O1108 C1098 1.259 1_556 S
O1109 Eu1081 2.355 1_565 S
O1109 Eu1091 2.670 1_554 S
O1109 C1098 1.270 . S
O1110 Eu1091 2.394 1_545 S
O1110 C1099 1.251 . S
O1111 Eu1081 2.374 . S
O1111 C1099 1.251 1_554 S
H1112 C1083 0.931 . S
H1113 C1084 0.931 . S
H1114 C1086 0.931 . S
H1115 C1087 0.931 . S
H1116 C1093 0.931 . S
H1117 C1094 0.931 . S
H1118 C1096 0.931 . S
H1119 C1097 0.931 . S
C1120 Eu1121 2.835 . S
C1120 C1122 1.500 1_655 S
C1120 O1140 1.257 1_655 S
C1120 O1141 1.260 . S
Eu1121 C1120 2.835 . S
Eu1121 O1140 2.473 1_655 S
Eu1121 O1141 2.480 . S
Eu1121 O1142 2.430 . S
Eu1121 O1143 2.670 1_554 S
Eu1121 O1144 2.394 1_655 S
Eu1121 O1149 2.355 1_655 S
Eu1121 O1151 2.391 . S
C1122 C1120 1.500 1_455 S
C1122 C1123 1.377 1_455 S
C1122 C1127 1.377 . S
C1123 C1122 1.377 1_655 S
C1123 C1124 1.395 . S
C1123 H1152 0.931 . S
C1124 C1123 1.395 . S
C1124 C1125 1.383 1_655 S
C1124 H1153 0.931 . S
C1125 C1124 1.383 1_455 S
C1125 C1126 1.394 . S
C1126 C1125 1.394 . S
C1126 C1127 1.378 . S
C1126 H1154 0.931 . S
C1127 C1122 1.377 . S
C1127 C1126 1.378 . S
C1127 H1155 0.931 . S
C1128 O1142 1.259 1_556 S
C1128 O1143 1.270 . S
C1129 O1144 1.251 . S
C1129 O1145 1.279 . S
C1130 Eu1131 2.835 . S
C1130 C1132 1.500 1_455 S
C1130 O1146 1.257 1_455 S
C1130 O1147 1.260 . S
Eu1131 C1130 2.835 . S
Eu1131 O1143 2.355 1_455 S
Eu1131 O1145 2.354 1_556 S
Eu1131 O1146 2.473 1_455 S
Eu1131 O1147 2.480 . S
Eu1131 O1148 2.430 . S
Eu1131 O1149 2.670 1_556 S
Eu1131 O1150 2.394 1_455 S
C1132 C1130 1.500 1_655 S
C1132 C1133 1.377 1_655 S
C1132 C1137 1.377 . S
C1133 C1132 1.377 1_455 S
C1133 C1134 1.395 . S
C1133 H1156 0.931 . S
C1134 C1133 1.395 . S
C1134 C1135 1.383 1_455 S
C1134 H1157 0.931 . S
C1135 C1134 1.383 1_655 S
C1135 C1136 1.394 . S
C1136 C1135 1.394 . S
C1136 C1137 1.378 . S
C1136 H1158 0.931 . S
C1137 C1132 1.377 . S
C1137 C1136 1.378 . S
C1137 H1159 0.931 . S
C1138 O1148 1.259 1_554 S
C1138 O1149 1.270 . S
C1139 O1150 1.251 . S
C1139 O1151 1.228 1_556 S
O1140 C1120 1.257 1_455 S
O1140 Eu1121 2.473 1_455 S
O1141 C1120 1.260 . S
O1141 Eu1121 2.480 . S
O1142 Eu1121 2.430 . S
O1142 C1128 1.259 1_554 S
O1143 Eu1121 2.670 1_556 S
O1143 C1128 1.270 . S
O1143 Eu1131 2.355 1_655 S
O1144 Eu1121 2.394 1_455 S
O1144 C1129 1.251 . S
O1145 C1129 1.279 . S
O1145 Eu1131 2.354 1_554 S
O1146 C1130 1.257 1_655 S
O1146 Eu1131 2.473 1_655 S
O1147 C1130 1.260 . S
O1147 Eu1131 2.480 . S
O1148 Eu1131 2.430 . S
O1148 C1138 1.259 1_556 S
O1149 Eu1121 2.355 1_455 S
O1149 Eu1131 2.670 1_554 S
O1149 C1138 1.270 . S
O1150 Eu1131 2.394 1_655 S
O1150 C1139 1.251 . S
O1151 Eu1121 2.391 . S
O1151 C1139 1.228 1_554 S
H1152 C1123 0.931 . S
H1153 C1124 0.931 . S
H1154 C1126 0.931 . S
H1155 C1127 0.931 . S
H1156 C1133 0.931 . S
H1157 C1134 0.931 . S
H1158 C1136 0.931 . S
H1159 C1137 0.931 . S
C1160 Eu1161 2.835 . S
C1160 C1162 1.500 . S
C1160 O1180 1.257 . S
C1160 O1181 1.260 . S
Eu1161 C1160 2.835 . S
Eu1161 O1180 2.473 . S
Eu1161 O1181 2.480 . S
Eu1161 O1182 2.430 . S
Eu1161 O1183 2.670 1_556 S
Eu1161 O1184 2.394 . S
Eu1161 O1189 2.355 . S
Eu1161 O1191 2.374 . S
C1162 C1160 1.500 . S
C1162 C1163 1.377 . S
C1162 C1167 1.377 . S
C1163 C1162 1.377 . S
C1163 C1164 1.395 . S
C1163 H1192 0.931 . S
C1164 C1163 1.395 . S
C1164 C1165 1.383 . S
C1164 H1193 0.931 . S
C1165 C1164 1.383 . S
C1165 C1166 1.394 . S
C1166 C1165 1.394 . S
C1166 C1167 1.378 . S
C1166 H1194 0.931 . S
C1167 C1162 1.377 . S
C1167 C1166 1.378 . S
C1167 H1195 0.931 . S
C1168 O1182 1.259 1_554 S
C1168 O1183 1.270 . S
C1169 O1184 1.251 . S
C1169 O1185 1.251 1_556 S
C1170 Eu1171 2.835 . S
C1170 C1172 1.500 . S
C1170 O1186 1.257 . S
C1170 O1187 1.260 . S
Eu1171 C1170 2.835 . S
Eu1171 O1183 2.355 . S
Eu1171 O1185 2.374 . S
Eu1171 O1186 2.473 . S
Eu1171 O1187 2.480 . S
Eu1171 O1188 2.430 . S
Eu1171 O1189 2.670 1_554 S
Eu1171 O1190 2.394 . S
C1172 C1170 1.500 . S
C1172 C1173 1.377 . S
C1172 C1177 1.377 . S
C1173 C1172 1.377 . S
C1173 C1174 1.395 . S
C1173 H1196 0.931 . S
C1174 C1173 1.395 . S
C1174 C1175 1.383 . S
C1174 H1197 0.931 . S
C1175 C1174 1.383 . S
C1175 C1176 1.394 . S
C1176 C1175 1.394 . S
C1176 C1177 1.378 . S
C1176 H1198 0.931 . S
C1177 C1172 1.377 . S
C1177 C1176 1.378 . S
C1177 H1199 0.931 . S
C1178 O1188 1.259 1_556 S
C1178 O1189 1.270 . S
C1179 O1190 1.251 . S
C1179 O1191 1.251 1_554 S
O1180 C1160 1.257 . S
O1180 Eu1161 2.473 . S
O1181 C1160 1.260 . S
O1181 Eu1161 2.480 . S
O1182 Eu1161 2.430 . S
O1182 C1168 1.259 1_556 S
O1183 Eu1161 2.670 1_554 S
O1183 C1168 1.270 . S
O1183 Eu1171 2.355 . S
O1184 Eu1161 2.394 . S
O1184 C1169 1.251 . S
O1185 C1169 1.251 1_554 S
O1185 Eu1171 2.374 . S
O1186 C1170 1.257 . S
O1186 Eu1171 2.473 . S
O1187 C1170 1.260 . S
O1187 Eu1171 2.480 . S
O1188 Eu1171 2.430 . S
O1188 C1178 1.259 1_554 S
O1189 Eu1161 2.355 . S
O1189 Eu1171 2.670 1_556 S
O1189 C1178 1.270 . S
O1190 Eu1171 2.394 . S
O1190 C1179 1.251 . S
O1191 Eu1161 2.374 . S
O1191 C1179 1.251 1_556 S
H1192 C1163 0.931 . S
H1193 C1164 0.931 . S
H1194 C1166 0.931 . S
H1195 C1167 0.931 . S
H1196 C1173 0.931 . S
H1197 C1174 0.931 . S
H1198 C1176 0.931 . S
H1199 C1177 0.931 . S
C1200 Eu1201 2.835 . S
C1200 C1202 1.500 . S
C1200 O1220 1.257 . S
C1200 O1221 1.260 . S
Eu1201 C1200 2.835 . S
Eu1201 O1220 2.473 . S
Eu1201 O1221 2.480 . S
Eu1201 O1222 2.430 . S
Eu1201 O1223 2.670 . S
Eu1201 O1224 2.394 . S
Eu1201 O1229 2.355 . S
Eu1201 O1231 2.374 . S
C1202 C1200 1.500 . S
C1202 C1203 1.377 . S
C1202 C1207 1.377 . S
C1203 C1202 1.377 . S
C1203 C1204 1.395 . S
C1203 H1232 0.931 . S
C1204 C1203 1.395 . S
C1204 C1205 1.383 . S
C1204 H1233 0.931 . S
C1205 C1204 1.383 . S
C1205 C1206 1.394 . S
C1206 C1205 1.394 . S
C1206 C1207 1.378 . S
C1206 H1234 0.931 . S
C1207 C1202 1.377 . S
C1207 C1206 1.378 . S
C1207 H1235 0.931 . S
C1208 O1222 1.259 . S
C1208 O1223 1.270 . S
C1209 O1224 1.251 . S
C1209 O1225 1.251 . S
C1210 Eu1211 2.835 . S
C1210 C1212 1.500 . S
C1210 O1226 1.257 . S
C1210 O1227 1.260 . S
Eu1211 C1210 2.835 . S
Eu1211 O1223 2.355 . S
Eu1211 O1225 2.374 . S
Eu1211 O1226 2.473 . S
Eu1211 O1227 2.480 . S
Eu1211 O1228 2.430 . S
Eu1211 O1229 2.670 . S
Eu1211 O1230 2.394 . S
C1212 C1210 1.500 . S
C1212 C1213 1.377 . S
C1212 C1217 1.377 . S
C1213 C1212 1.377 . S
C1213 C1214 1.395 . S
C1213 H1236 0.931 . S
C1214 C1213 1.395 . S
C1214 C1215 1.383 . S
C1214 H1237 0.931 . S
C1215 C1214 1.383 . S
C1215 C1216 1.394 . S
C1216 C1215 1.394 . S
C1216 C1217 1.378 . S
C1216 H1238 0.931 . S
C1217 C1212 1.377 . S
C1217 C1216 1.378 . S
C1217 H1239 0.931 . S
C1218 O1228 1.259 . S
C1218 O1229 1.270 . S
C1219 O1230 1.251 . S
C1219 O1231 1.251 . S
O1220 C1200 1.257 . S
O1220 Eu1201 2.473 . S
O1221 C1200 1.260 . S
O1221 Eu1201 2.480 . S
O1222 Eu1201 2.430 . S
O1222 C1208 1.259 . S
O1223 Eu1201 2.670 . S
O1223 C1208 1.270 . S
O1223 Eu1211 2.355 . S
O1224 Eu1201 2.394 . S
O1224 C1209 1.251 . S
O1225 C1209 1.251 . S
O1225 Eu1211 2.374 . S
O1226 C1210 1.257 . S
O1226 Eu1211 2.473 . S
O1227 C1210 1.260 . S
O1227 Eu1211 2.480 . S
O1228 Eu1211 2.430 . S
O1228 C1218 1.259 . S
O1229 Eu1201 2.355 . S
O1229 Eu1211 2.670 . S
O1229 C1218 1.270 . S
O1230 Eu1211 2.394 . S
O1230 C1219 1.251 . S
O1231 Eu1201 2.374 . S
O1231 C1219 1.251 . S
H1232 C1203 0.931 . S
H1233 C1204 0.931 . S
H1234 C1206 0.931 . S
H1235 C1207 0.931 . S
H1236 C1213 0.931 . S
H1237 C1214 0.931 . S
H1238 C1216 0.931 . S
H1239 C1217 0.931 . S
C1240 Eu1241 2.835 . S
C1240 C1242 1.500 . S
C1240 O1260 1.257 . S
C1240 O1261 1.260 . S
Eu1241 C1240 2.835 . S
Eu1241 O1260 2.473 . S
Eu1241 O1261 2.480 . S
Eu1241 O1262 2.430 . S
Eu1241 O1263 2.670 . S
Eu1241 O1264 2.394 . S
Eu1241 O1269 2.355 . S
Eu1241 O1271 2.374 . S
C1242 C1240 1.500 . S
C1242 C1243 1.377 . S
C1242 C1247 1.377 . S
C1243 C1242 1.377 . S
C1243 C1244 1.395 . S
C1243 H1272 0.931 . S
C1244 C1243 1.395 . S
C1244 C1245 1.383 . S
C1244 H1273 0.931 . S
C1245 C1244 1.383 . S
C1245 C1246 1.394 . S
C1246 C1245 1.394 . S
C1246 C1247 1.378 . S
C1246 H1274 0.931 . S
C1247 C1242 1.377 . S
C1247 C1246 1.378 . S
C1247 H1275 0.931 . S
C1248 O1262 1.259 . S
C1248 O1263 1.270 . S
C1249 O1264 1.251 . S
C1249 O1265 1.251 . S
C1250 Eu1251 2.835 . S
C1250 C1252 1.500 . S
C1250 O1266 1.257 . S
C1250 O1267 1.260 . S
Eu1251 C1250 2.835 . S
Eu1251 O1263 2.355 . S
Eu1251 O1265 2.374 . S
Eu1251 O1266 2.473 . S
Eu1251 O1267 2.480 . S
Eu1251 O1268 2.430 . S
Eu1251 O1269 2.670 . S
Eu1251 O1270 2.394 . S
C1252 C1250 1.500 . S
C1252 C1253 1.377 . S
C1252 C1257 1.377 . S
C1253 C1252 1.377 . S
C1253 C1254 1.395 . S
C1253 H1276 0.931 . S
C1254 C1253 1.395 . S
C1254 C1255 1.383 . S
C1254 H1277 0.931 . S
C1255 C1254 1.383 . S
C1255 C1256 1.394 . S
C1256 C1255 1.394 . S
C1256 C1257 1.378 . S
C1256 H1278 0.931 . S
C1257 C1252 1.377 . S
C1257 C1256 1.378 . S
C1257 H1279 0.931 . S
C1258 O1268 1.259 . S
C1258 O1269 1.270 . S
C1259 O1270 1.251 . S
C1259 O1271 1.251 . S
O1260 C1240 1.257 . S
O1260 Eu1241 2.473 . S
O1261 C1240 1.260 . S
O1261 Eu1241 2.480 . S
O1262 Eu1241 2.430 . S
O1262 C1248 1.259 . S
O1263 Eu1241 2.670 . S
O1263 C1248 1.270 . S
O1263 Eu1251 2.355 . S
O1264 Eu1241 2.394 . S
O1264 C1249 1.251 . S
O1265 C1249 1.251 . S
O1265 Eu1251 2.374 . S
O1266 C1250 1.257 . S
O1266 Eu1251 2.473 . S
O1267 C1250 1.260 . S
O1267 Eu1251 2.480 . S
O1268 Eu1251 2.430 . S
O1268 C1258 1.259 . S
O1269 Eu1241 2.355 . S
O1269 Eu1251 2.670 . S
O1269 C1258 1.270 . S
O1270 Eu1251 2.394 . S
O1270 C1259 1.251 . S
O1271 Eu1241 2.374 . S
O1271 C1259 1.251 . S
H1272 C1243 0.931 . S
H1273 C1244 0.931 . S
H1274 C1246 0.931 . S
H1275 C1247 0.931 . S
H1276 C1253 0.931 . S
H1277 C1254 0.931 . S
H1278 C1256 0.931 . S
H1279 C1257 0.931 . S
C1280 Eu1281 2.835 . S
C1280 C1282 1.500 . S
C1280 O1300 1.257 . S
C1280 O1301 1.260 . S
Eu1281 C1280 2.835 . S
Eu1281 O1300 2.473 . S
Eu1281 O1301 2.480 . S
Eu1281 O1302 2.430 . S
Eu1281 O1303 2.670 . S
Eu1281 O1304 2.394 . S
Eu1281 O1309 2.355 . S
Eu1281 O1311 2.374 . S
C1282 C1280 1.500 . S
C1282 C1283 1.377 . S
C1282 C1287 1.377 . S
C1283 C1282 1.377 . S
C1283 C1284 1.395 . S
C1283 H1312 0.931 . S
C1284 C1283 1.395 . S
C1284 C1285 1.383 . S
C1284 H1313 0.931 . S
C1285 C1284 1.383 . S
C1285 C1286 1.394 . S
C1286 C1285 1.394 . S
C1286 C1287 1.378 . S
C1286 H1314 0.931 . S
C1287 C1282 1.377 . S
C1287 C1286 1.378 . S
C1287 H1315 0.931 . S
C1288 O1302 1.259 . S
C1288 O1303 1.270 . S
C1289 O1304 1.251 . S
C1289 O1305 1.251 . S
C1290 Eu1291 2.835 . S
C1290 C1292 1.500 . S
C1290 O1306 1.257 . S
C1290 O1307 1.260 . S
Eu1291 C1290 2.835 . S
Eu1291 O1303 2.355 . S
Eu1291 O1305 2.374 . S
Eu1291 O1306 2.473 . S
Eu1291 O1307 2.480 . S
Eu1291 O1308 2.430 . S
Eu1291 O1309 2.670 . S
Eu1291 O1310 2.394 . S
C1292 C1290 1.500 . S
C1292 C1293 1.377 . S
C1292 C1297 1.377 . S
C1293 C1292 1.377 . S
C1293 C1294 1.395 . S
C1293 H1316 0.931 . S
C1294 C1293 1.395 . S
C1294 C1295 1.383 . S
C1294 H1317 0.931 . S
C1295 C1294 1.383 . S
C1295 C1296 1.394 . S
C1296 C1295 1.394 . S
C1296 C1297 1.378 . S
C1296 H1318 0.931 . S
C1297 C1292 1.377 . S
C1297 C1296 1.378 . S
C1297 H1319 0.931 . S
C1298 O1308 1.259 . S
C1298 O1309 1.270 . S
C1299 O1310 1.251 . S
C1299 O1311 1.251 . S
O1300 C1280 1.257 . S
O1300 Eu1281 2.473 . S
O1301 C1280 1.260 . S
O1301 Eu1281 2.480 . S
O1302 Eu1281 2.430 . S
O1302 C1288 1.259 . S
O1303 Eu1281 2.670 . S
O1303 C1288 1.270 . S
O1303 Eu1291 2.355 . S
O1304 Eu1281 2.394 . S
O1304 C1289 1.251 . S
O1305 C1289 1.251 . S
O1305 Eu1291 2.374 . S
O1306 C1290 1.257 . S
O1306 Eu1291 2.473 . S
O1307 C1290 1.260 . S
O1307 Eu1291 2.480 . S
O1308 Eu1291 2.430 . S
O1308 C1298 1.259 . S
O1309 Eu1281 2.355 . S
O1309 Eu1291 2.670 . S
O1309 C1298 1.270 . S
O1310 Eu1291 2.394 . S
O1310 C1299 1.251 . S
O1311 Eu1281 2.374 . S
O1311 C1299 1.251 . S
H1312 C1283 0.931 . S
H1313 C1284 0.931 . S
H1314 C1286 0.931 . S
H1315 C1287 0.931 . S
H1316 C1293 0.931 . S
H1317 C1294 0.931 . S
H1318 C1296 0.931 . S
H1319 C1297 0.931 . S
C1320 Eu1321 2.835 . S
C1320 C1322 1.500 . S
C1320 O1340 1.257 . S
C1320 O1341 1.260 . S
Eu1321 C1320 2.835 . S
Eu1321 O1340 2.473 . S
Eu1321 O1341 2.480 . S
Eu1321 O1342 2.430 . S
Eu1321 O1343 2.670 . S
Eu1321 O1344 2.394 . S
Eu1321 O1349 2.355 . S
Eu1321 O1351 2.374 . S
C1322 C1320 1.500 . S
C1322 C1323 1.377 . S
C1322 C1327 1.377 . S
C1323 C1322 1.377 . S
C1323 C1324 1.395 . S
C1323 H1352 0.931 . S
C1324 C1323 1.395 . S
C1324 C1325 1.383 . S
C1324 H1353 0.931 . S
C1325 C1324 1.383 . S
C1325 C1326 1.394 . S
C1326 C1325 1.394 . S
C1326 C1327 1.378 . S
C1326 H1354 0.931 . S
C1327 C1322 1.377 . S
C1327 C1326 1.378 . S
C1327 H1355 0.931 . S
C1328 O1342 1.259 . S
C1328 O1343 1.270 . S
C1329 O1344 1.251 . S
C1329 O1345 1.251 . S
C1330 Eu1331 2.835 . S
C1330 C1332 1.500 . S
C1330 O1346 1.257 . S
C1330 O1347 1.260 . S
Eu1331 C1330 2.835 . S
Eu1331 O1343 2.355 . S
Eu1331 O1345 2.374 . S
Eu1331 O1346 2.473 . S
Eu1331 O1347 2.480 . S
Eu1331 O1348 2.430 . S
Eu1331 O1349 2.670 . S
Eu1331 O1350 2.394 . S
C1332 C1330 1.500 . S
C1332 C1333 1.377 . S
C1332 C1337 1.377 . S
C1333 C1332 1.377 . S
C1333 C1334 1.395 . S
C1333 H1356 0.931 . S
C1334 C1333 1.395 . S
C1334 C1335 1.383 . S
C1334 H1357 0.931 . S
C1335 C1334 1.383 . S
C1335 C1336 1.394 . S
C1336 C1335 1.394 . S
C1336 C1337 1.378 . S
C1336 H1358 0.931 . S
C1337 C1332 1.377 . S
C1337 C1336 1.378 . S
C1337 H1359 0.931 . S
C1338 O1348 1.259 . S
C1338 O1349 1.270 . S
C1339 O1350 1.251 . S
C1339 O1351 1.251 . S
O1340 C1320 1.257 . S
O1340 Eu1321 2.473 . S
O1341 C1320 1.260 . S
O1341 Eu1321 2.480 . S
O1342 Eu1321 2.430 . S
O1342 C1328 1.259 . S
O1343 Eu1321 2.670 . S
O1343 C1328 1.270 . S
O1343 Eu1331 2.355 . S
O1344 Eu1321 2.394 . S
O1344 C1329 1.251 . S
O1345 C1329 1.251 . S
O1345 Eu1331 2.374 . S
O1346 C1330 1.257 . S
O1346 Eu1331 2.473 . S
O1347 C1330 1.260 . S
O1347 Eu1331 2.480 . S
O1348 Eu1331 2.430 . S
O1348 C1338 1.259 . S
O1349 Eu1321 2.355 . S
O1349 Eu1331 2.670 . S
O1349 C1338 1.270 . S
O1350 Eu1331 2.394 . S
O1350 C1339 1.251 . S
O1351 Eu1321 2.374 . S
O1351 C1339 1.251 . S
H1352 C1323 0.931 . S
H1353 C1324 0.931 . S
H1354 C1326 0.931 . S
H1355 C1327 0.931 . S
H1356 C1333 0.931 . S
H1357 C1334 0.931 . S
H1358 C1336 0.931 . S
H1359 C1337 0.931 . S
C1360 Eu1361 2.835 . S
C1360 C1362 1.500 . S
C1360 O1380 1.257 . S
C1360 O1381 1.260 . S
Eu1361 C1360 2.835 . S
Eu1361 O1380 2.473 . S
Eu1361 O1381 2.480 . S
Eu1361 O1382 2.430 . S
Eu1361 O1383 2.670 . S
Eu1361 O1384 2.394 . S
Eu1361 O1389 2.355 . S
Eu1361 O1391 2.374 . S
C1362 C1360 1.500 . S
C1362 C1363 1.377 . S
C1362 C1367 1.377 . S
C1363 C1362 1.377 . S
C1363 C1364 1.395 . S
C1363 H1392 0.931 . S
C1364 C1363 1.395 . S
C1364 C1365 1.383 . S
C1364 H1393 0.931 . S
C1365 C1364 1.383 . S
C1365 C1366 1.394 . S
C1366 C1365 1.394 . S
C1366 C1367 1.378 . S
C1366 H1394 0.931 . S
C1367 C1362 1.377 . S
C1367 C1366 1.378 . S
C1367 H1395 0.931 . S
C1368 O1382 1.259 . S
C1368 O1383 1.270 . S
C1369 O1384 1.251 . S
C1369 O1385 1.251 . S
C1370 Eu1371 2.835 . S
C1370 C1372 1.500 . S
C1370 O1386 1.257 . S
C1370 O1387 1.260 . S
Eu1371 C1370 2.835 . S
Eu1371 O1383 2.355 . S
Eu1371 O1385 2.374 . S
Eu1371 O1386 2.473 . S
Eu1371 O1387 2.480 . S
Eu1371 O1388 2.430 . S
Eu1371 O1389 2.670 . S
Eu1371 O1390 2.394 . S
C1372 C1370 1.500 . S
C1372 C1373 1.377 . S
C1372 C1377 1.377 . S
C1373 C1372 1.377 . S
C1373 C1374 1.395 . S
C1373 H1396 0.931 . S
C1374 C1373 1.395 . S
C1374 C1375 1.383 . S
C1374 H1397 0.931 . S
C1375 C1374 1.383 . S
C1375 C1376 1.394 . S
C1376 C1375 1.394 . S
C1376 C1377 1.378 . S
C1376 H1398 0.931 . S
C1377 C1372 1.377 . S
C1377 C1376 1.378 . S
C1377 H1399 0.931 . S
C1378 O1388 1.259 . S
C1378 O1389 1.270 . S
C1379 O1390 1.251 . S
C1379 O1391 1.251 . S
O1380 C1360 1.257 . S
O1380 Eu1361 2.473 . S
O1381 C1360 1.260 . S
O1381 Eu1361 2.480 . S
O1382 Eu1361 2.430 . S
O1382 C1368 1.259 . S
O1383 Eu1361 2.670 . S
O1383 C1368 1.270 . S
O1383 Eu1371 2.355 . S
O1384 Eu1361 2.394 . S
O1384 C1369 1.251 . S
O1385 C1369 1.251 . S
O1385 Eu1371 2.374 . S
O1386 C1370 1.257 . S
O1386 Eu1371 2.473 . S
O1387 C1370 1.260 . S
O1387 Eu1371 2.480 . S
O1388 Eu1371 2.430 . S
O1388 C1378 1.259 . S
O1389 Eu1361 2.355 . S
O1389 Eu1371 2.670 . S
O1389 C1378 1.270 . S
O1390 Eu1371 2.394 . S
O1390 C1379 1.251 . S
O1391 Eu1361 2.374 . S
O1391 C1379 1.251 . S
H1392 C1363 0.931 . S
H1393 C1364 0.931 . S
H1394 C1366 0.931 . S
H1395 C1367 0.931 . S
H1396 C1373 0.931 . S
H1397 C1374 0.931 . S
H1398 C1376 0.931 . S
H1399 C1377 0.931 . S
C1400 Eu1401 2.835 . S
C1400 C1402 1.500 . S
C1400 O1420 1.257 . S
C1400 O1421 1.260 . S
Eu1401 C1400 2.835 . S
Eu1401 O1420 2.473 . S
Eu1401 O1421 2.480 . S
Eu1401 O1422 2.430 . S
Eu1401 O1423 2.670 . S
Eu1401 O1424 2.394 . S
Eu1401 O1429 2.355 . S
Eu1401 O1431 2.374 . S
C1402 C1400 1.500 . S
C1402 C1403 1.377 . S
C1402 C1407 1.377 . S
C1403 C1402 1.377 . S
C1403 C1404 1.395 . S
C1403 H1432 0.931 . S
C1404 C1403 1.395 . S
C1404 C1405 1.383 . S
C1404 H1433 0.931 . S
C1405 C1404 1.383 . S
C1405 C1406 1.394 . S
C1406 C1405 1.394 . S
C1406 C1407 1.378 . S
C1406 H1434 0.931 . S
C1407 C1402 1.377 . S
C1407 C1406 1.378 . S
C1407 H1435 0.931 . S
C1408 O1422 1.259 . S
C1408 O1423 1.270 . S
C1409 O1424 1.251 . S
C1409 O1425 1.251 . S
C1410 Eu1411 2.835 . S
C1410 C1412 1.500 . S
C1410 O1426 1.257 . S
C1410 O1427 1.260 . S
Eu1411 C1410 2.835 . S
Eu1411 O1423 2.355 . S
Eu1411 O1425 2.374 . S
Eu1411 O1426 2.473 . S
Eu1411 O1427 2.480 . S
Eu1411 O1428 2.430 . S
Eu1411 O1429 2.670 . S
Eu1411 O1430 2.394 . S
C1412 C1410 1.500 . S
C1412 C1413 1.377 . S
C1412 C1417 1.377 . S
C1413 C1412 1.377 . S
C1413 C1414 1.395 . S
C1413 H1436 0.931 . S
C1414 C1413 1.395 . S
C1414 C1415 1.383 . S
C1414 H1437 0.931 . S
C1415 C1414 1.383 . S
C1415 C1416 1.394 . S
C1416 C1415 1.394 . S
C1416 C1417 1.378 . S
C1416 H1438 0.931 . S
C1417 C1412 1.377 . S
C1417 C1416 1.378 . S
C1417 H1439 0.931 . S
C1418 O1428 1.259 . S
C1418 O1429 1.270 . S
C1419 O1430 1.251 . S
C1419 O1431 1.251 . S
O1420 C1400 1.257 . S
O1420 Eu1401 2.473 . S
O1421 C1400 1.260 . S
O1421 Eu1401 2.480 . S
O1422 Eu1401 2.430 . S
O1422 C1408 1.259 . S
O1423 Eu1401 2.670 . S
O1423 C1408 1.270 . S
O1423 Eu1411 2.355 . S
O1424 Eu1401 2.394 . S
O1424 C1409 1.251 . S
O1425 C1409 1.251 . S
O1425 Eu1411 2.374 . S
O1426 C1410 1.257 . S
O1426 Eu1411 2.473 . S
O1427 C1410 1.260 . S
O1427 Eu1411 2.480 . S
O1428 Eu1411 2.430 . S
O1428 C1418 1.259 . S
O1429 Eu1401 2.355 . S
O1429 Eu1411 2.670 . S
O1429 C1418 1.270 . S
O1430 Eu1411 2.394 . S
O1430 C1419 1.251 . S
O1431 Eu1401 2.374 . S
O1431 C1419 1.251 . S
H1432 C1403 0.931 . S
H1433 C1404 0.931 . S
H1434 C1406 0.931 . S
H1435 C1407 0.931 . S
H1436 C1413 0.931 . S
H1437 C1414 0.931 . S
H1438 C1416 0.931 . S
H1439 C1417 0.931 . S
C1440 C1441 1.391 . S
C1440 C1442 1.394 . S
C1440 H1456 0.931 . S
C1441 C1440 1.391 . S
C1441 C1445 1.376 . S
C1442 C1440 1.394 . S
C1442 C1443 1.369 . S
C1442 C1446 1.531 . S
C1443 C1442 1.369 . S
C1443 C1444 1.410 . S
C1443 C1451 1.503 . S
C1444 C1443 1.410 . S
C1444 C1445 1.392 . S
C1444 C1447 1.511 . S
C1445 C1441 1.376 . S
C1445 C1444 1.392 . S
C1445 H1457 0.929 . S
C1446 C1442 1.531 . S
C1446 H1458 0.960 . S
C1446 H1459 0.962 . S
C1446 H1460 0.960 . S
C1447 C1444 1.511 . S
C1447 H1461 0.961 . S
C1447 H1462 0.961 . S
C1447 H1463 0.961 . S
C1448 C1449 1.370 . S
C1448 C1450 1.363 . S
C1448 H1464 0.931 1_554 S
C1449 C1448 1.370 . S
C1449 C1453 1.408 . S
C1450 C1448 1.363 . S
C1450 C1451 1.370 . S
C1450 C1454 1.524 . S
C1451 C1443 1.503 . S
C1451 C1450 1.370 . S
C1451 C1452 1.403 . S
C1452 C1451 1.403 . S
C1452 C1453 1.404 . S
C1452 C1455 1.539 . S
C1453 C1449 1.408 . S
C1453 C1452 1.404 . S
C1453 H1465 0.930 . S
C1454 C1450 1.524 . S
C1454 H1466 0.956 . S
C1454 H1467 0.961 . S
C1454 H1468 0.961 1_554 S
C1455 C1452 1.539 . S
C1455 H1469 0.958 . S
C1455 H1470 0.961 . S
C1455 H1471 0.960 . S
H1456 C1440 0.931 . S
H1457 C1445 0.929 . S
H1458 C1446 0.960 . S
H1459 C1446 0.962 . S
H1460 C1446 0.960 . S
H1461 C1447 0.961 . S
H1462 C1447 0.961 . S
H1463 C1447 0.961 . S
H1464 C1448 0.931 1_556 S
H1465 C1453 0.930 . S
H1466 C1454 0.956 . S
H1467 C1454 0.961 . S
H1468 C1454 0.961 1_556 S
H1469 C1455 0.958 . S
H1470 C1455 0.961 . S
H1471 C1455 0.960 . S
C1472 C1473 1.391 . S
C1472 C1474 1.394 . S
C1472 H1488 0.931 . S
C1473 C1472 1.391 . S
C1473 C1477 1.376 . S
C1474 C1472 1.394 . S
C1474 C1475 1.369 . S
C1474 C1478 1.531 . S
C1475 C1474 1.369 . S
C1475 C1476 1.410 . S
C1475 C1483 1.503 . S
C1476 C1475 1.410 . S
C1476 C1477 1.392 . S
C1476 C1479 1.511 . S
C1477 C1473 1.376 . S
C1477 C1476 1.392 . S
C1477 H1489 0.929 . S
C1478 C1474 1.531 . S
C1478 H1490 0.960 . S
C1478 H1491 0.962 . S
C1478 H1492 0.960 . S
C1479 C1476 1.511 . S
C1479 H1493 0.961 . S
C1479 H1494 0.961 . S
C1479 H1495 0.961 . S
C1480 C1481 1.370 . S
C1480 C1482 1.363 . S
C1480 H1496 0.931 . S
C1481 C1480 1.370 . S
C1481 C1485 1.408 . S
C1482 C1480 1.363 . S
C1482 C1483 1.370 . S
C1482 C1486 1.524 . S
C1483 C1475 1.503 . S
C1483 C1482 1.370 . S
C1483 C1484 1.403 . S
C1484 C1483 1.403 . S
C1484 C1485 1.404 . S
C1484 C1487 1.539 . S
C1485 C1481 1.408 . S
C1485 C1484 1.404 . S
C1485 H1497 0.930 . S
C1486 C1482 1.524 . S
C1486 H1498 0.956 . S
C1486 H1499 0.961 . S
C1486 H1500 0.961 . S
C1487 C1484 1.539 . S
C1487 H1501 0.958 . S
C1487 H1502 0.961 . S
C1487 H1503 0.960 . S
H1488 C1472 0.931 . S
H1489 C1477 0.929 . S
H1490 C1478 0.960 . S
H1491 C1478 0.962 . S
H1492 C1478 0.960 . S
H1493 C1479 0.961 . S
H1494 C1479 0.961 . S
H1495 C1479 0.961 . S
H1496 C1480 0.931 . S
H1497 C1485 0.930 . S
H1498 C1486 0.956 . S
H1499 C1486 0.961 . S
H1500 C1486 0.961 . S
H1501 C1487 0.958 . S
H1502 C1487 0.961 . S
H1503 C1487 0.960 . S
C1504 C1505 1.391 . S
C1504 C1506 1.394 . S
C1504 H1520 0.931 . S
C1505 C1504 1.391 . S
C1505 C1509 1.376 . S
C1506 C1504 1.394 . S
C1506 C1507 1.369 . S
C1506 C1510 1.531 . S
C1507 C1506 1.369 . S
C1507 C1508 1.410 . S
C1507 C1515 1.503 . S
C1508 C1507 1.410 . S
C1508 C1509 1.392 . S
C1508 C1511 1.547 . S
C1509 C1505 1.376 . S
C1509 C1508 1.392 . S
C1509 H1521 0.929 . S
C1510 C1506 1.531 . S
C1510 H1522 0.960 . S
C1510 H1523 0.962 . S
C1510 H1524 0.960 . S
C1511 C1508 1.547 . S
C1511 H1525 0.918 1_554 S
C1511 H1526 0.946 1_554 S
C1511 H1527 0.986 . S
C1512 C1513 1.370 . S
C1512 C1514 1.363 . S
C1512 H1528 0.919 1_554 S
C1513 C1512 1.370 . S
C1513 C1517 1.408 . S
C1514 C1512 1.363 . S
C1514 C1515 1.370 . S
C1514 C1518 1.524 . S
C1515 C1507 1.503 . S
C1515 C1514 1.370 . S
C1515 C1516 1.403 . S
C1516 C1515 1.403 . S
C1516 C1517 1.404 . S
C1516 C1519 1.539 . S
C1517 C1513 1.408 . S
C1517 C1516 1.404 . S
C1517 H1529 0.930 . S
C1518 C1514 1.524 . S
C1518 H1530 0.956 . S
C1518 H1531 0.961 1_554 S
C1518 H1532 0.961 1_554 S
C1519 C1516 1.539 . S
C1519 H1533 0.958 . S
C1519 H1534 0.961 . S
C1519 H1535 0.960 . S
H1520 C1504 0.931 . S
H1521 C1509 0.929 . S
H1522 C1510 0.960 . S
H1523 C1510 0.962 . S
H1524 C1510 0.960 . S
H1525 C1511 0.918 1_556 S
H1526 C1511 0.946 1_556 S
H1527 C1511 0.986 . S
H1528 C1512 0.919 1_556 S
H1529 C1517 0.930 . S
H1530 C1518 0.956 . S
H1531 C1518 0.961 1_556 S
H1532 C1518 0.961 1_556 S
H1533 C1519 0.958 . S
H1534 C1519 0.961 . S
H1535 C1519 0.960 . S
C1536 C1537 1.391 . S
C1536 C1538 1.394 . S
C1536 H1552 0.931 . S
C1537 C1536 1.391 . S
C1537 C1541 1.376 . S
C1538 C1536 1.394 . S
C1538 C1539 1.369 . S
C1538 C1542 1.531 . S
C1539 C1538 1.369 . S
C1539 C1540 1.410 . S
C1539 C1547 1.503 . S
C1540 C1539 1.410 . S
C1540 C1541 1.392 . S
C1540 C1543 1.511 . S
C1541 C1537 1.376 . S
C1541 C1540 1.392 . S
C1541 H1553 0.929 . S
C1542 C1538 1.531 . S
C1542 H1554 0.960 . S
C1542 H1555 0.962 . S
C1542 H1556 0.960 . S
C1543 C1540 1.511 . S
C1543 H1557 0.961 . S
C1543 H1558 0.961 . S
C1543 H1559 0.961 . S
C1544 C1545 1.370 . S
C1544 C1546 1.363 . S
C1544 H1560 0.931 . S
C1545 C1544 1.370 . S
C1545 C1549 1.408 . S
C1546 C1544 1.363 . S
C1546 C1547 1.370 . S
C1546 C1550 1.524 . S
C1547 C1539 1.503 . S
C1547 C1546 1.370 . S
C1547 C1548 1.403 . S
C1548 C1547 1.403 . S
C1548 C1549 1.404 . S
C1548 C1551 1.539 1_556 S
C1549 C1545 1.408 . S
C1549 C1548 1.404 . S
C1549 H1561 0.930 1_556 S
C1550 C1546 1.524 . S
C1550 H1562 0.956 . S
C1550 H1563 0.961 . S
C1550 H1564 0.961 . S
C1551 C1548 1.539 1_554 S
C1551 H1565 0.958 . S
C1551 H1566 0.961 . S
C1551 H1567 0.960 . S
H1552 C1536 0.931 . S
H1553 C1541 0.929 . S
H1554 C1542 0.960 . S
H1555 C1542 0.962 . S
H1556 C1542 0.960 . S
H1557 C1543 0.961 . S
H1558 C1543 0.961 . S
H1559 C1543 0.961 . S
H1560 C1544 0.931 . S
H1561 C1549 0.930 1_554 S
H1562 C1550 0.956 . S
H1563 C1550 0.961 . S
H1564 C1550 0.961 . S
H1565 C1551 0.958 . S
H1566 C1551 0.961 . S
H1567 C1551 0.960 . S
C1568 C1569 1.391 . S
C1568 C1570 1.394 . S
C1568 H1584 0.931 . S
C1569 C1568 1.391 . S
C1569 C1573 1.376 . S
C1570 C1568 1.394 . S
C1570 C1571 1.369 . S
C1570 C1574 1.531 . S
C1571 C1570 1.369 . S
C1571 C1572 1.410 . S
C1571 C1579 1.503 . S
C1572 C1571 1.410 . S
C1572 C1573 1.392 . S
C1572 C1575 1.511 . S
C1573 C1569 1.376 . S
C1573 C1572 1.392 . S
C1573 H1585 0.929 . S
C1574 C1570 1.531 . S
C1574 H1586 0.960 . S
C1574 H1587 0.962 . S
C1574 H1588 0.960 . S
C1575 C1572 1.511 . S
C1575 H1589 0.961 . S
C1575 H1590 0.961 . S
C1575 H1591 0.961 . S
C1576 C1577 1.370 . S
C1576 C1578 1.363 . S
C1576 H1592 0.931 . S
C1577 C1576 1.370 . S
C1577 C1581 1.408 . S
C1578 C1576 1.363 . S
C1578 C1579 1.370 . S
C1578 C1582 1.524 . S
C1579 C1571 1.503 . S
C1579 C1578 1.370 . S
C1579 C1580 1.403 . S
C1580 C1579 1.403 . S
C1580 C1581 1.404 . S
C1580 C1583 1.539 . S
C1581 C1577 1.408 . S
C1581 C1580 1.404 . S
C1581 H1593 0.930 . S
C1582 C1578 1.524 . S
C1582 H1594 0.956 . S
C1582 H1595 0.961 . S
C1582 H1596 0.961 . S
C1583 C1580 1.539 . S
C1583 H1597 0.958 . S
C1583 H1598 0.961 . S
C1583 H1599 0.960 . S
H1584 C1568 0.931 . S
H1585 C1573 0.929 . S
H1586 C1574 0.960 . S
H1587 C1574 0.962 . S
H1588 C1574 0.960 . S
H1589 C1575 0.961 . S
H1590 C1575 0.961 . S
H1591 C1575 0.961 . S
H1592 C1576 0.931 . S
H1593 C1581 0.930 . S
H1594 C1582 0.956 . S
H1595 C1582 0.961 . S
H1596 C1582 0.961 . S
H1597 C1583 0.958 . S
H1598 C1583 0.961 . S
H1599 C1583 0.960 . S
C1600 C1601 1.391 . S
C1600 C1602 1.394 . S
C1600 H1616 0.931 . S
C1601 C1600 1.391 . S
C1601 C1605 1.376 . S
C1602 C1600 1.394 . S
C1602 C1603 1.369 . S
C1602 C1606 1.531 . S
C1603 C1602 1.369 . S
C1603 C1604 1.410 . S
C1603 C1611 1.503 . S
C1604 C1603 1.410 . S
C1604 C1605 1.392 . S
C1604 C1607 1.511 . S
C1605 C1601 1.376 . S
C1605 C1604 1.392 . S
C1605 H1617 0.929 . S
C1606 C1602 1.531 . S
C1606 H1618 0.960 . S
C1606 H1619 0.962 . S
C1606 H1620 0.960 . S
C1607 C1604 1.511 . S
C1607 H1621 0.942 1_556 S
C1607 H1622 1.006 . S
C1607 H1623 0.961 . S
C1608 C1609 1.370 . S
C1608 C1610 1.363 . S
C1608 H1624 0.931 1_556 S
C1609 C1608 1.370 . S
C1609 C1613 1.408 . S
C1610 C1608 1.363 . S
C1610 C1611 1.370 . S
C1610 C1614 1.524 1_556 S
C1611 C1603 1.503 . S
C1611 C1610 1.370 . S
C1611 C1612 1.403 . S
C1612 C1611 1.403 . S
C1612 C1613 1.404 . S
C1612 C1615 1.539 . S
C1613 C1609 1.408 . S
C1613 C1612 1.404 . S
C1613 H1625 0.930 . S
C1614 C1610 1.524 1_554 S
C1614 H1626 0.956 1_554 S
C1614 H1627 0.961 . S
C1614 H1628 0.961 . S
C1615 C1612 1.539 . S
C1615 H1629 0.958 . S
C1615 H1630 0.961 . S
C1615 H1631 0.960 . S
H1616 C1600 0.931 . S
H1617 C1605 0.929 . S
H1618 C1606 0.960 . S
H1619 C1606 0.962 . S
H1620 C1606 0.960 . S
H1621 C1607 0.942 1_554 S
H1622 C1607 1.006 . S
H1623 C1607 0.961 . S
H1624 C1608 0.931 1_554 S
H1625 C1613 0.930 . S
H1626 C1614 0.956 1_556 S
H1627 C1614 0.961 . S
H1628 C1614 0.961 . S
H1629 C1615 0.958 . S
H1630 C1615 0.961 . S
H1631 C1615 0.960 . S
C1632 C1633 1.391 . S
C1632 C1634 1.394 . S
C1632 H1648 0.931 . S
C1633 C1632 1.391 . S
C1633 C1637 1.376 . S
C1634 C1632 1.394 . S
C1634 C1635 1.369 . S
C1634 C1638 1.531 . S
C1635 C1634 1.369 . S
C1635 C1636 1.410 . S
C1635 C1643 1.503 . S
C1636 C1635 1.410 . S
C1636 C1637 1.392 . S
C1636 C1639 1.511 . S
C1637 C1633 1.376 . S
C1637 C1636 1.392 . S
C1637 H1649 0.929 . S
C1638 C1634 1.531 . S
C1638 H1650 0.960 . S
C1638 H1651 0.962 . S
C1638 H1652 0.960 . S
C1639 C1636 1.511 . S
C1639 H1653 0.961 . S
C1639 H1654 0.961 . S
C1639 H1655 0.948 1_556 S
C1640 C1641 1.370 . S
C1640 C1642 1.363 . S
C1640 H1656 0.931 . S
C1641 C1640 1.370 . S
C1641 C1645 1.408 . S
C1642 C1640 1.363 . S
C1642 C1643 1.370 . S
C1642 C1646 1.524 . S
C1643 C1635 1.503 . S
C1643 C1642 1.370 . S
C1643 C1644 1.403 . S
C1644 C1643 1.403 . S
C1644 C1645 1.404 . S
C1644 C1647 1.554 . S
C1645 C1641 1.408 . S
C1645 C1644 1.404 . S
C1645 H1657 0.930 1_556 S
C1646 C1642 1.524 . S
C1646 H1658 0.956 . S
C1646 H1659 0.961 . S
C1646 H1660 0.961 . S
C1647 C1644 1.554 . S
C1647 H1661 0.965 . S
C1647 H1662 0.937 1_556 S
C1647 H1663 0.955 . S
H1648 C1632 0.931 . S
H1649 C1637 0.929 . S
H1650 C1638 0.960 . S
H1651 C1638 0.962 . S
H1652 C1638 0.960 . S
H1653 C1639 0.961 . S
H1654 C1639 0.961 . S
H1655 C1639 0.948 1_554 S
H1656 C1640 0.931 . S
H1657 C1645 0.930 1_554 S
H1658 C1646 0.956 . S
H1659 C1646 0.961 . S
H1660 C1646 0.961 . S
H1661 C1647 0.965 . S
H1662 C1647 0.937 1_554 S
H1663 C1647 0.955 . S
C1664 C1665 1.391 . S
C1664 C1666 1.394 . S
C1664 H1680 0.931 . S
C1665 C1664 1.391 . S
C1665 C1669 1.376 . S
C1666 C1664 1.394 . S
C1666 C1667 1.369 . S
C1666 C1670 1.531 . S
C1667 C1666 1.369 . S
C1667 C1668 1.410 . S
C1667 C1675 1.503 . S
C1668 C1667 1.410 . S
C1668 C1669 1.392 . S
C1668 C1671 1.511 . S
C1669 C1665 1.376 . S
C1669 C1668 1.392 . S
C1669 H1681 0.929 . S
C1670 C1666 1.531 . S
C1670 H1682 0.960 . S
C1670 H1683 0.962 . S
C1670 H1684 0.960 . S
C1671 C1668 1.511 . S
C1671 H1685 0.961 . S
C1671 H1686 0.961 . S
C1671 H1687 0.961 . S
C1672 C1673 1.370 . S
C1672 C1674 1.363 . S
C1672 H1688 0.931 . S
C1673 C1672 1.370 . S
C1673 C1677 1.408 . S
C1674 C1672 1.363 . S
C1674 C1675 1.370 . S
C1674 C1678 1.524 . S
C1675 C1667 1.503 . S
C1675 C1674 1.370 . S
C1675 C1676 1.403 . S
C1676 C1675 1.403 . S
C1676 C1677 1.404 . S
C1676 C1679 1.539 . S
C1677 C1673 1.408 . S
C1677 C1676 1.404 . S
C1677 H1689 0.930 . S
C1678 C1674 1.524 . S
C1678 H1690 0.956 . S
C1678 H1691 0.961 . S
C1678 H1692 0.961 . S
C1679 C1676 1.539 . S
C1679 H1693 0.958 . S
C1679 H1694 0.961 . S
C1679 H1695 0.960 . S
H1680 C1664 0.931 . S
H1681 C1669 0.929 . S
H1682 C1670 0.960 . S
H1683 C1670 0.962 . S
H1684 C1670 0.960 . S
H1685 C1671 0.961 . S
H1686 C1671 0.961 . S
H1687 C1671 0.961 . S
H1688 C1672 0.931 . S
H1689 C1677 0.930 . S
H1690 C1678 0.956 . S
H1691 C1678 0.961 . S
H1692 C1678 0.961 . S
H1693 C1679 0.958 . S
H1694 C1679 0.961 . S
H1695 C1679 0.960 . S
C1696 C1697 1.391 . S
C1696 C1698 1.394 . S
C1696 H1712 0.931 . S
C1697 C1696 1.391 . S
C1697 C1701 1.376 . S
C1698 C1696 1.394 . S
C1698 C1699 1.369 . S
C1698 C1702 1.531 . S
C1699 C1698 1.369 . S
C1699 C1700 1.410 . S
C1699 C1707 1.503 . S
C1700 C1699 1.410 . S
C1700 C1701 1.392 . S
C1700 C1703 1.511 . S
C1701 C1697 1.376 . S
C1701 C1700 1.392 . S
C1701 H1713 0.929 . S
C1702 C1698 1.531 . S
C1702 H1714 0.960 . S
C1702 H1715 0.962 . S
C1702 H1716 0.960 . S
C1703 C1700 1.511 . S
C1703 H1717 0.961 . S
C1703 H1718 0.961 . S
C1703 H1719 0.961 . S
C1704 C1705 1.403 . S
C1704 C1706 1.369 . S
C1704 H1720 0.892 1_556 S
C1705 C1704 1.403 . S
C1705 C1709 1.408 . S
C1706 C1704 1.369 . S
C1706 C1707 1.370 . S
C1706 C1710 1.524 1_556 S
C1707 C1699 1.503 . S
C1707 C1706 1.370 . S
C1707 C1708 1.403 . S
C1708 C1707 1.403 . S
C1708 C1709 1.404 . S
C1708 C1711 1.539 . S
C1709 C1705 1.408 . S
C1709 C1708 1.404 . S
C1709 H1721 0.930 . S
C1710 C1706 1.524 1_554 S
C1710 H1722 0.956 . S
C1710 H1723 0.961 . S
C1710 H1724 0.961 . S
C1711 C1708 1.539 . S
C1711 H1725 0.958 . S
C1711 H1726 0.961 . S
C1711 H1727 0.960 . S
H1712 C1696 0.931 . S
H1713 C1701 0.929 . S
H1714 C1702 0.960 . S
H1715 C1702 0.962 . S
H1716 C1702 0.960 . S
H1717 C1703 0.961 . S
H1718 C1703 0.961 . S
H1719 C1703 0.961 . S
H1720 C1704 0.892 1_554 S
H1721 C1709 0.930 . S
H1722 C1710 0.956 . S
H1723 C1710 0.961 . S
H1724 C1710 0.961 . S
H1725 C1711 0.958 . S
H1726 C1711 0.961 . S
H1727 C1711 0.960 . S
C1728 C1729 1.391 . S
C1728 C1730 1.394 . S
C1728 H1744 0.931 . S
C1729 C1728 1.391 . S
C1729 C1733 1.376 . S
C1730 C1728 1.394 . S
C1730 C1731 1.369 . S
C1730 C1734 1.531 . S
C1731 C1730 1.369 . S
C1731 C1732 1.410 . S
C1731 C1739 1.503 . S
C1732 C1731 1.410 . S
C1732 C1733 1.392 . S
C1732 C1735 1.511 . S
C1733 C1729 1.376 . S
C1733 C1732 1.392 . S
C1733 H1745 0.929 . S
C1734 C1730 1.531 . S
C1734 H1746 0.960 . S
C1734 H1747 0.962 . S
C1734 H1748 0.960 . S
C1735 C1732 1.511 . S
C1735 H1749 0.961 . S
C1735 H1750 0.961 . S
C1735 H1751 0.961 . S
C1736 C1737 1.370 . S
C1736 C1738 1.363 . S
C1736 H1752 0.931 . S
C1737 C1736 1.370 . S
C1737 C1741 1.408 . S
C1738 C1736 1.363 . S
C1738 C1739 1.370 . S
C1738 C1742 1.524 . S
C1739 C1731 1.503 . S
C1739 C1738 1.370 . S
C1739 C1740 1.403 . S
C1740 C1739 1.403 . S
C1740 C1741 1.404 . S
C1740 C1743 1.539 1_554 S
C1741 C1737 1.408 . S
C1741 C1740 1.404 . S
C1741 H1753 0.930 1_554 S
C1742 C1738 1.524 . S
C1742 H1754 0.956 . S
C1742 H1755 0.961 . S
C1742 H1756 0.961 . S
C1743 C1740 1.539 1_556 S
C1743 H1757 0.958 . S
C1743 H1758 0.961 . S
C1743 H1759 0.957 1_556 S
H1744 C1728 0.931 . S
H1745 C1733 0.929 . S
H1746 C1734 0.960 . S
H1747 C1734 0.962 . S
H1748 C1734 0.960 . S
H1749 C1735 0.961 . S
H1750 C1735 0.961 . S
H1751 C1735 0.961 . S
H1752 C1736 0.931 . S
H1753 C1741 0.930 1_556 S
H1754 C1742 0.956 . S
H1755 C1742 0.961 . S
H1756 C1742 0.961 . S
H1757 C1743 0.958 . S
H1758 C1743 0.961 . S
H1759 C1743 0.957 1_554 S
C1760 C1761 1.391 . S
C1760 C1762 1.394 . S
C1760 H1776 0.931 . S
C1761 C1760 1.391 . S
C1761 C1765 1.376 . S
C1762 C1760 1.394 . S
C1762 C1763 1.369 . S
C1762 C1766 1.531 . S
C1763 C1762 1.369 . S
C1763 C1764 1.410 . S
C1763 C1771 1.503 . S
C1764 C1763 1.410 . S
C1764 C1765 1.392 . S
C1764 C1767 1.511 . S
C1765 C1761 1.376 . S
C1765 C1764 1.392 . S
C1765 H1777 0.929 . S
C1766 C1762 1.531 . S
C1766 H1778 0.960 . S
C1766 H1779 0.962 . S
C1766 H1780 0.960 . S
C1767 C1764 1.511 . S
C1767 H1781 0.961 . S
C1767 H1782 0.961 . S
C1767 H1783 0.961 . S
C1768 C1769 1.370 . S
C1768 C1770 1.363 . S
C1768 H1784 0.931 . S
C1769 C1768 1.370 . S
C1769 C1773 1.408 . S
C1770 C1768 1.363 . S
C1770 C1771 1.370 . S
C1770 C1774 1.524 . S
C1771 C1763 1.503 . S
C1771 C1770 1.370 . S
C1771 C1772 1.403 . S
C1772 C1771 1.403 . S
C1772 C1773 1.404 . S
C1772 C1775 1.539 . S
C1773 C1769 1.408 . S
C1773 C1772 1.404 . S
C1773 H1785 0.930 . S
C1774 C1770 1.524 . S
C1774 H1786 0.956 . S
C1774 H1787 0.961 . S
C1774 H1788 0.961 . S
C1775 C1772 1.539 . S
C1775 H1789 0.958 . S
C1775 H1790 0.961 . S
C1775 H1791 0.960 . S
H1776 C1760 0.931 . S
H1777 C1765 0.929 . S
H1778 C1766 0.960 . S
H1779 C1766 0.962 . S
H1780 C1766 0.960 . S
H1781 C1767 0.961 . S
H1782 C1767 0.961 . S
H1783 C1767 0.961 . S
H1784 C1768 0.931 . S
H1785 C1773 0.930 . S
H1786 C1774 0.956 . S
H1787 C1774 0.961 . S
H1788 C1774 0.961 . S
H1789 C1775 0.958 . S
H1790 C1775 0.961 . S
H1791 C1775 0.960 . S
C1792 C1793 1.391 . S
C1792 C1794 1.394 . S
C1792 H1808 0.931 . S
C1793 C1792 1.391 . S
C1793 C1797 1.376 . S
C1794 C1792 1.394 . S
C1794 C1795 1.369 . S
C1794 C1798 1.531 . S
C1795 C1794 1.369 . S
C1795 C1796 1.410 . S
C1795 C1803 1.503 . S
C1796 C1795 1.410 . S
C1796 C1797 1.392 . S
C1796 C1799 1.511 . S
C1797 C1793 1.376 . S
C1797 C1796 1.392 . S
C1797 H1809 0.929 . S
C1798 C1794 1.531 . S
C1798 H1810 0.960 . S
C1798 H1811 0.962 . S
C1798 H1812 0.960 . S
C1799 C1796 1.511 . S
C1799 H1813 0.961 . S
C1799 H1814 0.961 . S
C1799 H1815 0.961 . S
C1800 C1801 1.370 . S
C1800 C1802 1.363 . S
C1800 H1816 0.931 . S
C1801 C1800 1.370 . S
C1801 C1805 1.408 1_554 S
C1802 C1800 1.363 . S
C1802 C1803 1.370 . S
C1802 C1806 1.524 . S
C1803 C1795 1.503 . S
C1803 C1802 1.370 . S
C1803 C1804 1.406 . S
C1804 C1803 1.406 . S
C1804 C1805 1.403 1_554 S
C1804 C1807 1.537 1_554 S
C1805 C1801 1.408 1_556 S
C1805 C1804 1.403 1_556 S
C1805 H1817 0.930 . S
C1806 C1802 1.524 . S
C1806 H1818 0.956 . S
C1806 H1819 0.961 . S
C1806 H1820 0.961 . S
C1807 C1804 1.537 1_556 S
C1807 H1821 0.958 . S
C1807 H1822 0.961 . S
C1807 H1823 0.960 . S
H1808 C1792 0.931 . S
H1809 C1797 0.929 . S
H1810 C1798 0.960 . S
H1811 C1798 0.962 . S
H1812 C1798 0.960 . S
H1813 C1799 0.961 . S
H1814 C1799 0.961 . S
H1815 C1799 0.961 . S
H1816 C1800 0.931 . S
H1817 C1805 0.930 . S
H1818 C1806 0.956 . S
H1819 C1806 0.961 . S
H1820 C1806 0.961 . S
H1821 C1807 0.958 . S
H1822 C1807 0.961 . S
H1823 C1807 0.960 . S
C1824 C1825 1.391 . S
C1824 C1826 1.394 1_655 S
C1824 H1840 0.931 . S
C1825 C1824 1.391 . S
C1825 C1829 1.376 . S
C1826 C1824 1.394 1_455 S
C1826 C1827 1.369 . S
C1826 C1830 1.531 . S
C1827 C1826 1.369 . S
C1827 C1828 1.410 . S
C1827 C1835 1.503 . S
C1828 C1827 1.410 . S
C1828 C1829 1.392 1_455 S
C1828 C1831 1.511 . S
C1829 C1825 1.376 . S
C1829 C1828 1.392 1_655 S
C1829 H1841 0.929 . S
C1830 C1826 1.531 . S
C1830 H1842 0.960 . S
C1830 H1843 0.962 . S
C1830 H1844 0.960 . S
C1831 C1828 1.511 . S
C1831 H1845 0.961 . S
C1831 H1846 0.961 . S
C1831 H1847 0.961 . S
C1832 C1833 1.370 . S
C1832 C1834 1.363 . S
C1832 H1848 0.931 . S
C1833 C1832 1.370 . S
C1833 C1837 1.408 . S
C1834 C1832 1.363 . S
C1834 C1835 1.370 . S
C1834 C1838 1.524 . S
C1835 C1827 1.503 . S
C1835 C1834 1.370 . S
C1835 C1836 1.403 . S
C1836 C1835 1.403 . S
C1836 C1837 1.404 . S
C1836 C1839 1.539 . S
C1837 C1833 1.408 . S
C1837 C1836 1.404 . S
C1837 H1849 0.930 . S
C1838 C1834 1.524 . S
C1838 H1850 0.956 . S
C1838 H1851 0.961 . S
C1838 H1852 0.961 . S
C1839 C1836 1.539 . S
C1839 H1853 0.958 . S
C1839 H1854 0.961 . S
C1839 H1855 0.960 . S
H1840 C1824 0.931 . S
H1841 C1829 0.929 . S
H1842 C1830 0.960 . S
H1843 C1830 0.962 . S
H1844 C1830 0.960 . S
H1845 C1831 0.961 . S
H1846 C1831 0.961 . S
H1847 C1831 0.961 . S
H1848 C1832 0.931 . S
H1849 C1837 0.930 . S
H1850 C1838 0.956 . S
H1851 C1838 0.961 . S
H1852 C1838 0.961 . S
H1853 C1839 0.958 . S
H1854 C1839 0.961 . S
H1855 C1839 0.960 . S
C1856 C1857 1.391 . S
C1856 C1858 1.394 . S
C1856 H1872 0.931 . S
C1857 C1856 1.391 . S
C1857 C1861 1.376 . S
C1858 C1856 1.394 . S
C1858 C1859 1.369 . S
C1858 C1862 1.531 . S
C1859 C1858 1.369 . S
C1859 C1860 1.410 . S
C1859 C1867 1.503 . S
C1860 C1859 1.410 . S
C1860 C1861 1.392 . S
C1860 C1863 1.511 . S
C1861 C1857 1.376 . S
C1861 C1860 1.392 . S
C1861 H1873 0.929 . S
C1862 C1858 1.531 . S
C1862 H1874 0.960 . S
C1862 H1875 0.962 . S
C1862 H1876 0.960 . S
C1863 C1860 1.511 . S
C1863 H1877 0.961 . S
C1863 H1878 0.961 . S
C1863 H1879 0.961 . S
C1864 C1865 1.370 . S
C1864 C1866 1.363 . S
C1864 H1880 0.931 . S
C1865 C1864 1.370 . S
C1865 C1869 1.408 . S
C1866 C1864 1.363 . S
C1866 C1867 1.370 . S
C1866 C1870 1.524 . S
C1867 C1859 1.503 . S
C1867 C1866 1.370 . S
C1867 C1868 1.403 . S
C1868 C1867 1.403 . S
C1868 C1869 1.404 . S
C1868 C1871 1.539 . S
C1869 C1865 1.408 . S
C1869 C1868 1.404 . S
C1869 H1881 0.930 . S
C1870 C1866 1.524 . S
C1870 H1882 0.956 . S
C1870 H1883 0.961 . S
C1870 H1884 0.961 . S
C1871 C1868 1.539 . S
C1871 H1885 0.958 . S
C1871 H1886 0.961 . S
C1871 H1887 0.960 . S
H1872 C1856 0.931 . S
H1873 C1861 0.929 . S
H1874 C1862 0.960 . S
H1875 C1862 0.962 . S
H1876 C1862 0.960 . S
H1877 C1863 0.961 . S
H1878 C1863 0.961 . S
H1879 C1863 0.961 . S
H1880 C1864 0.931 . S
H1881 C1869 0.930 . S
H1882 C1870 0.956 . S
H1883 C1870 0.961 . S
H1884 C1870 0.961 . S
H1885 C1871 0.958 . S
H1886 C1871 0.961 . S
H1887 C1871 0.960 . S
C1888 C1889 1.391 . S
C1888 C1890 1.394 . S
C1888 H1904 0.931 . S
C1889 C1888 1.391 . S
C1889 C1893 1.376 . S
C1890 C1888 1.394 . S
C1890 C1891 1.369 1_545 S
C1890 C1894 1.531 1_545 S
C1891 C1890 1.369 1_565 S
C1891 C1892 1.410 1_565 S
C1891 C1899 1.503 . S
C1892 C1891 1.410 1_545 S
C1892 C1893 1.392 . S
C1892 C1895 1.511 1_545 S
C1893 C1889 1.376 . S
C1893 C1892 1.392 . S
C1893 H1905 0.929 . S
C1894 C1890 1.531 1_565 S
C1894 H1906 0.960 . S
C1894 H1907 0.962 . S
C1894 H1908 0.960 1_565 S
C1895 C1892 1.511 1_565 S
C1895 H1909 0.961 . S
C1895 H1910 0.961 . S
C1895 H1911 0.961 . S
C1896 C1897 1.370 . S
C1896 C1898 1.363 . S
C1896 H1912 0.931 . S
C1897 C1896 1.370 . S
C1897 C1901 1.408 . S
C1898 C1896 1.363 . S
C1898 C1899 1.370 . S
C1898 C1902 1.524 . S
C1899 C1891 1.503 . S
C1899 C1898 1.370 . S
C1899 C1900 1.403 . S
C1900 C1899 1.403 . S
C1900 C1901 1.404 . S
C1900 C1903 1.539 . S
C1901 C1897 1.408 . S
C1901 C1900 1.404 . S
C1901 H1913 0.930 . S
C1902 C1898 1.524 . S
C1902 H1914 0.956 . S
C1902 H1915 0.961 . S
C1902 H1916 0.961 . S
C1903 C1900 1.539 . S
C1903 H1917 0.958 . S
C1903 H1918 0.961 . S
C1903 H1919 0.960 . S
H1904 C1888 0.931 . S
H1905 C1893 0.929 . S
H1906 C1894 0.960 . S
H1907 C1894 0.962 . S
H1908 C1894 0.960 1_545 S
H1909 C1895 0.961 . S
H1910 C1895 0.961 . S
H1911 C1895 0.961 . S
H1912 C1896 0.931 . S
H1913 C1901 0.930 . S
H1914 C1902 0.956 . S
H1915 C1902 0.961 . S
H1916 C1902 0.961 . S
H1917 C1903 0.958 . S
H1918 C1903 0.961 . S
H1919 C1903 0.960 . S
C1920 C1921 1.391 . S
C1920 C1922 1.394 . S
C1920 H1936 0.931 . S
C1921 C1920 1.391 . S
C1921 C1925 1.376 . S
C1922 C1920 1.394 . S
C1922 C1923 1.369 . S
C1922 C1926 1.531 . S
C1923 C1922 1.369 . S
C1923 C1924 1.410 . S
C1923 C1931 1.503 . S
C1924 C1923 1.410 . S
C1924 C1925 1.392 . S
C1924 C1927 1.511 . S
C1925 C1921 1.376 . S
C1925 C1924 1.392 . S
C1925 H1937 0.929 . S
C1926 C1922 1.531 . S
C1926 H1938 0.960 . S
C1926 H1939 0.962 . S
C1926 H1940 0.960 . S
C1927 C1924 1.511 . S
C1927 H1941 0.961 . S
C1927 H1942 0.961 . S
C1927 H1943 0.961 . S
C1928 C1929 1.370 . S
C1928 C1930 1.363 . S
C1928 H1944 0.931 . S
C1929 C1928 1.370 . S
C1929 C1933 1.408 . S
C1930 C1928 1.363 . S
C1930 C1931 1.370 . S
C1930 C1934 1.524 . S
C1931 C1923 1.503 . S
C1931 C1930 1.370 . S
C1931 C1932 1.403 . S
C1932 C1931 1.403 . S
C1932 C1933 1.404 . S
C1932 C1935 1.539 . S
C1933 C1929 1.408 . S
C1933 C1932 1.404 . S
C1933 H1945 0.930 . S
C1934 C1930 1.524 . S
C1934 H1946 0.956 . S
C1934 H1947 0.961 . S
C1934 H1948 0.961 . S
C1935 C1932 1.539 . S
C1935 H1949 0.958 . S
C1935 H1950 0.961 . S
C1935 H1951 0.960 . S
H1936 C1920 0.931 . S
H1937 C1925 0.929 . S
H1938 C1926 0.960 . S
H1939 C1926 0.962 . S
H1940 C1926 0.960 . S
H1941 C1927 0.961 . S
H1942 C1927 0.961 . S
H1943 C1927 0.961 . S
H1944 C1928 0.931 . S
H1945 C1933 0.930 . S
H1946 C1934 0.956 . S
H1947 C1934 0.961 . S
H1948 C1934 0.961 . S
H1949 C1935 0.958 . S
H1950 C1935 0.961 . S
H1951 C1935 0.960 . S
C1952 C1953 1.391 . S
C1952 C1954 1.394 . S
C1952 H1968 0.931 . S
C1953 C1952 1.391 . S
C1953 C1957 1.376 . S
C1954 C1952 1.394 . S
C1954 C1955 1.369 . S
C1954 C1958 1.531 . S
C1955 C1954 1.369 . S
C1955 C1956 1.410 . S
C1955 C1963 1.503 . S
C1956 C1955 1.410 . S
C1956 C1957 1.392 . S
C1956 C1959 1.511 . S
C1957 C1953 1.376 . S
C1957 C1956 1.392 . S
C1957 H1969 0.929 . S
C1958 C1954 1.531 . S
C1958 H1970 0.960 . S
C1958 H1971 0.962 . S
C1958 H1972 0.960 . S
C1959 C1956 1.511 . S
C1959 H1973 0.961 . S
C1959 H1974 0.961 . S
C1959 H1975 0.961 . S
C1960 C1961 1.370 . S
C1960 C1962 1.363 . S
C1960 H1976 0.931 . S
C1961 C1960 1.370 . S
C1961 C1965 1.408 . S
C1962 C1960 1.363 . S
C1962 C1963 1.370 . S
C1962 C1966 1.524 . S
C1963 C1955 1.503 . S
C1963 C1962 1.370 . S
C1963 C1964 1.403 . S
C1964 C1963 1.403 . S
C1964 C1965 1.404 . S
C1964 C1967 1.539 . S
C1965 C1961 1.408 . S
C1965 C1964 1.404 . S
C1965 H1977 0.930 . S
C1966 C1962 1.524 . S
C1966 H1978 0.956 . S
C1966 H1979 0.961 . S
C1966 H1980 0.961 . S
C1967 C1964 1.539 . S
C1967 H1981 0.958 . S
C1967 H1982 0.961 . S
C1967 H1983 0.960 . S
H1968 C1952 0.931 . S
H1969 C1957 0.929 . S
H1970 C1958 0.960 . S
H1971 C1958 0.962 . S
H1972 C1958 0.960 . S
H1973 C1959 0.961 . S
H1974 C1959 0.961 . S
H1975 C1959 0.961 . S
H1976 C1960 0.931 . S
H1977 C1965 0.930 . S
H1978 C1966 0.956 . S
H1979 C1966 0.961 . S
H1980 C1966 0.961 . S
H1981 C1967 0.958 . S
H1982 C1967 0.961 . S
H1983 C1967 0.960 . S
C1984 C1985 1.391 . S
C1984 C1986 1.394 . S
C1984 H2000 0.931 . S
C1985 C1984 1.391 . S
C1985 C1989 1.376 . S
C1986 C1984 1.394 . S
C1986 C1987 1.369 . S
C1986 C1990 1.531 . S
C1987 C1986 1.369 . S
C1987 C1988 1.410 . S
C1987 C1995 1.503 . S
C1988 C1987 1.410 . S
C1988 C1989 1.392 . S
C1988 C1991 1.511 . S
C1989 C1985 1.376 . S
C1989 C1988 1.392 . S
C1989 H2001 0.929 . S
C1990 C1986 1.531 . S
C1990 H2002 0.960 . S
C1990 H2003 0.962 . S
C1990 H2004 0.960 . S
C1991 C1988 1.511 . S
C1991 H2005 0.961 . S
C1991 H2006 0.961 . S
C1991 H2007 0.961 . S
C1992 C1993 1.370 . S
C1992 C1994 1.363 . S
C1992 H2008 0.931 . S
C1993 C1992 1.370 . S
C1993 C1997 1.408 . S
C1994 C1992 1.363 . S
C1994 C1995 1.370 . S
C1994 C1998 1.524 . S
C1995 C1987 1.503 . S
C1995 C1994 1.370 . S
C1995 C1996 1.403 . S
C1996 C1995 1.403 . S
C1996 C1997 1.404 . S
C1996 C1999 1.539 . S
C1997 C1993 1.408 . S
C1997 C1996 1.404 . S
C1997 H2009 0.930 . S
C1998 C1994 1.524 . S
C1998 H2010 0.956 . S
C1998 H2011 0.961 . S
C1998 H2012 0.961 . S
C1999 C1996 1.539 . S
C1999 H2013 0.958 . S
C1999 H2014 0.961 . S
C1999 H2015 0.960 . S
H2000 C1984 0.931 . S
H2001 C1989 0.929 . S
H2002 C1990 0.960 . S
H2003 C1990 0.962 . S
H2004 C1990 0.960 . S
H2005 C1991 0.961 . S
H2006 C1991 0.961 . S
H2007 C1991 0.961 . S
H2008 C1992 0.931 . S
H2009 C1997 0.930 . S
H2010 C1998 0.956 . S
H2011 C1998 0.961 . S
H2012 C1998 0.961 . S
H2013 C1999 0.958 . S
H2014 C1999 0.961 . S
H2015 C1999 0.960 . S
C2016 C2017 1.391 . S
C2016 C2018 1.394 . S
C2016 H2032 0.931 . S
C2017 C2016 1.391 . S
C2017 C2021 1.376 . S
C2018 C2016 1.394 . S
C2018 C2019 1.369 . S
C2018 C2022 1.531 . S
C2019 C2018 1.369 . S
C2019 C2020 1.410 . S
C2019 C2027 1.503 . S
C2020 C2019 1.410 . S
C2020 C2021 1.392 . S
C2020 C2023 1.511 . S
C2021 C2017 1.376 . S
C2021 C2020 1.392 . S
C2021 H2033 0.929 . S
C2022 C2018 1.531 . S
C2022 H2034 0.960 . S
C2022 H2035 0.962 . S
C2022 H2036 0.960 . S
C2023 C2020 1.511 . S
C2023 H2037 0.961 . S
C2023 H2038 0.961 . S
C2023 H2039 0.961 . S
C2024 C2025 1.370 . S
C2024 C2026 1.363 . S
C2024 H2040 0.931 . S
C2025 C2024 1.370 . S
C2025 C2029 1.408 . S
C2026 C2024 1.363 . S
C2026 C2027 1.370 . S
C2026 C2030 1.524 . S
C2027 C2019 1.503 . S
C2027 C2026 1.370 . S
C2027 C2028 1.403 . S
C2028 C2027 1.403 . S
C2028 C2029 1.404 . S
C2028 C2031 1.539 . S
C2029 C2025 1.408 . S
C2029 C2028 1.404 . S
C2029 H2041 0.930 . S
C2030 C2026 1.524 . S
C2030 H2042 0.956 . S
C2030 H2043 0.961 . S
C2030 H2044 0.961 . S
C2031 C2028 1.539 . S
C2031 H2045 0.958 . S
C2031 H2046 0.961 . S
C2031 H2047 0.960 . S
H2032 C2016 0.931 . S
H2033 C2021 0.929 . S
H2034 C2022 0.960 . S
H2035 C2022 0.962 . S
H2036 C2022 0.960 . S
H2037 C2023 0.961 . S
H2038 C2023 0.961 . S
H2039 C2023 0.961 . S
H2040 C2024 0.931 . S
H2041 C2029 0.930 . S
H2042 C2030 0.956 . S
H2043 C2030 0.961 . S
H2044 C2030 0.961 . S
H2045 C2031 0.958 . S
H2046 C2031 0.961 . S
H2047 C2031 0.960 . S
C2048 C2049 1.391 . S
C2048 C2050 1.394 . S
C2048 H2064 0.931 . S
C2049 C2048 1.391 . S
C2049 C2053 1.376 . S
C2050 C2048 1.394 . S
C2050 C2051 1.369 . S
C2050 C2054 1.531 . S
C2051 C2050 1.369 . S
C2051 C2052 1.410 . S
C2051 C2059 1.503 . S
C2052 C2051 1.410 . S
C2052 C2053 1.392 . S
C2052 C2055 1.511 . S
C2053 C2049 1.376 . S
C2053 C2052 1.392 . S
C2053 H2065 0.929 . S
C2054 C2050 1.531 . S
C2054 H2066 0.960 . S
C2054 H2067 0.962 . S
C2054 H2068 0.960 . S
C2055 C2052 1.511 . S
C2055 H2069 0.961 . S
C2055 H2070 0.961 . S
C2055 H2071 0.961 . S
C2056 C2057 1.370 . S
C2056 C2058 1.363 . S
C2056 H2072 0.931 . S
C2057 C2056 1.370 . S
C2057 C2061 1.408 . S
C2058 C2056 1.363 . S
C2058 C2059 1.370 . S
C2058 C2062 1.524 . S
C2059 C2051 1.503 . S
C2059 C2058 1.370 . S
C2059 C2060 1.403 . S
C2060 C2059 1.403 . S
C2060 C2061 1.404 . S
C2060 C2063 1.539 . S
C2061 C2057 1.408 . S
C2061 C2060 1.404 . S
C2061 H2073 0.930 . S
C2062 C2058 1.524 . S
C2062 H2074 0.956 . S
C2062 H2075 0.961 . S
C2062 H2076 0.961 . S
C2063 C2060 1.539 . S
C2063 H2077 0.958 . S
C2063 H2078 0.961 . S
C2063 H2079 0.960 . S
H2064 C2048 0.931 . S
H2065 C2053 0.929 . S
H2066 C2054 0.960 . S
H2067 C2054 0.962 . S
H2068 C2054 0.960 . S
H2069 C2055 0.961 . S
H2070 C2055 0.961 . S
H2071 C2055 0.961 . S
H2072 C2056 0.931 . S
H2073 C2061 0.930 . S
H2074 C2062 0.956 . S
H2075 C2062 0.961 . S
H2076 C2062 0.961 . S
H2077 C2063 0.958 . S
H2078 C2063 0.961 . S
H2079 C2063 0.960 . S
C2080 C2081 1.391 . S
C2080 C2082 1.394 . S
C2080 H2096 0.931 . S
C2081 C2080 1.391 . S
C2081 C2085 1.376 . S
C2082 C2080 1.394 . S
C2082 C2083 1.369 . S
C2082 C2086 1.531 . S
C2083 C2082 1.369 . S
C2083 C2084 1.410 . S
C2083 C2091 1.503 . S
C2084 C2083 1.410 . S
C2084 C2085 1.392 . S
C2084 C2087 1.511 . S
C2085 C2081 1.376 . S
C2085 C2084 1.392 . S
C2085 H2097 0.929 . S
C2086 C2082 1.531 . S
C2086 H2098 0.960 . S
C2086 H2099 0.962 . S
C2086 H2100 0.960 . S
C2087 C2084 1.511 . S
C2087 H2101 0.961 . S
C2087 H2102 0.961 . S
C2087 H2103 0.961 . S
C2088 C2089 1.370 . S
C2088 C2090 1.363 . S
C2088 H2104 0.931 . S
C2089 C2088 1.370 . S
C2089 C2093 1.408 . S
C2090 C2088 1.363 . S
C2090 C2091 1.370 . S
C2090 C2094 1.524 . S
C2091 C2083 1.503 . S
C2091 C2090 1.370 . S
C2091 C2092 1.403 . S
C2092 C2091 1.403 . S
C2092 C2093 1.404 . S
C2092 C2095 1.539 . S
C2093 C2089 1.408 . S
C2093 C2092 1.404 . S
C2093 H2105 0.930 . S
C2094 C2090 1.524 . S
C2094 H2106 0.956 . S
C2094 H2107 0.961 . S
C2094 H2108 0.961 . S
C2095 C2092 1.539 . S
C2095 H2109 0.958 . S
C2095 H2110 0.961 . S
C2095 H2111 0.960 . S
H2096 C2080 0.931 . S
H2097 C2085 0.929 . S
H2098 C2086 0.960 . S
H2099 C2086 0.962 . S
H2100 C2086 0.960 . S
H2101 C2087 0.961 . S
H2102 C2087 0.961 . S
H2103 C2087 0.961 . S
H2104 C2088 0.931 . S
H2105 C2093 0.930 . S
H2106 C2094 0.956 . S
H2107 C2094 0.961 . S
H2108 C2094 0.961 . S
H2109 C2095 0.958 . S
H2110 C2095 0.961 . S
H2111 C2095 0.960 . S
C2112 C2113 1.391 . S
C2112 C2114 1.390 1_545 S
C2112 H2128 0.931 . S
C2113 C2112 1.391 . S
C2113 C2117 1.376 . S
C2114 C2112 1.390 1_565 S
C2114 C2115 1.372 . S
C2114 C2118 1.530 . S
C2115 C2114 1.372 . S
C2115 C2116 1.410 . S
C2115 C2123 1.503 . S
C2116 C2115 1.410 . S
C2116 C2117 1.392 1_565 S
C2116 C2119 1.511 . S
C2117 C2113 1.376 . S
C2117 C2116 1.392 1_545 S
C2117 H2129 0.929 . S
C2118 C2114 1.530 . S
C2118 H2130 0.960 . S
C2118 H2131 0.962 . S
C2118 H2132 0.960 . S
C2119 C2116 1.511 . S
C2119 H2133 0.961 . S
C2119 H2134 0.961 . S
C2119 H2135 0.961 . S
C2120 C2121 1.370 . S
C2120 C2122 1.363 . S
C2120 H2136 0.931 . S
C2121 C2120 1.370 . S
C2121 C2125 1.408 . S
C2122 C2120 1.363 . S
C2122 C2123 1.370 . S
C2122 C2126 1.524 . S
C2123 C2115 1.503 . S
C2123 C2122 1.370 . S
C2123 C2124 1.403 . S
C2124 C2123 1.403 . S
C2124 C2125 1.404 . S
C2124 C2127 1.539 . S
C2125 C2121 1.408 . S
C2125 C2124 1.404 . S
C2125 H2137 0.930 . S
C2126 C2122 1.524 . S
C2126 H2138 0.956 . S
C2126 H2139 0.961 . S
C2126 H2140 0.961 . S
C2127 C2124 1.539 . S
C2127 H2141 0.958 . S
C2127 H2142 0.961 . S
C2127 H2143 0.960 . S
H2128 C2112 0.931 . S
H2129 C2117 0.929 . S
H2130 C2118 0.960 . S
H2131 C2118 0.962 . S
H2132 C2118 0.960 . S
H2133 C2119 0.961 . S
H2134 C2119 0.961 . S
H2135 C2119 0.961 . S
H2136 C2120 0.931 . S
H2137 C2125 0.930 . S
H2138 C2126 0.956 . S
H2139 C2126 0.961 . S
H2140 C2126 0.961 . S
H2141 C2127 0.958 . S
H2142 C2127 0.961 . S
H2143 C2127 0.960 . S
C2144 C2145 1.391 . S
C2144 C2146 1.394 1_655 S
C2144 H2160 0.931 . S
C2145 C2144 1.391 . S
C2145 C2149 1.376 1_655 S
C2146 C2144 1.394 1_455 S
C2146 C2147 1.369 . S
C2146 C2150 1.531 . S
C2147 C2146 1.369 . S
C2147 C2148 1.410 . S
C2147 C2155 1.503 . S
C2148 C2147 1.410 . S
C2148 C2149 1.392 . S
C2148 C2151 1.511 . S
C2149 C2145 1.376 1_455 S
C2149 C2148 1.392 . S
C2149 H2161 0.929 . S
C2150 C2146 1.531 . S
C2150 H2162 0.960 . S
C2150 H2163 0.962 . S
C2150 H2164 0.960 . S
C2151 C2148 1.511 . S
C2151 H2165 0.961 . S
C2151 H2166 0.961 . S
C2151 H2167 0.961 . S
C2152 C2153 1.370 . S
C2152 C2154 1.363 . S
C2152 H2168 0.931 . S
C2153 C2152 1.370 . S
C2153 C2157 1.408 . S
C2154 C2152 1.363 . S
C2154 C2155 1.370 . S
C2154 C2158 1.524 . S
C2155 C2147 1.503 . S
C2155 C2154 1.370 . S
C2155 C2156 1.403 . S
C2156 C2155 1.403 . S
C2156 C2157 1.404 . S
C2156 C2159 1.539 . S
C2157 C2153 1.408 . S
C2157 C2156 1.404 . S
C2157 H2169 0.930 . S
C2158 C2154 1.524 . S
C2158 H2170 0.956 . S
C2158 H2171 0.961 . S
C2158 H2172 0.961 . S
C2159 C2156 1.539 . S
C2159 H2173 0.958 . S
C2159 H2174 0.961 . S
C2159 H2175 0.960 . S
H2160 C2144 0.931 . S
H2161 C2149 0.929 . S
H2162 C2150 0.960 . S
H2163 C2150 0.962 . S
H2164 C2150 0.960 . S
H2165 C2151 0.961 . S
H2166 C2151 0.961 . S
H2167 C2151 0.961 . S
H2168 C2152 0.931 . S
H2169 C2157 0.930 . S
H2170 C2158 0.956 . S
H2171 C2158 0.961 . S
H2172 C2158 0.961 . S
H2173 C2159 0.958 . S
H2174 C2159 0.961 . S
H2175 C2159 0.960 . S
C2176 C2177 1.391 . S
C2176 C2178 1.394 . S
C2176 H2192 0.931 . S
C2177 C2176 1.391 . S
C2177 C2181 1.376 . S
C2178 C2176 1.394 . S
C2178 C2179 1.369 . S
C2178 C2182 1.531 . S
C2179 C2178 1.369 . S
C2179 C2180 1.410 . S
C2179 C2187 1.503 . S
C2180 C2179 1.410 . S
C2180 C2181 1.392 . S
C2180 C2183 1.511 . S
C2181 C2177 1.376 . S
C2181 C2180 1.392 . S
C2181 H2193 0.929 . S
C2182 C2178 1.531 . S
C2182 H2194 0.960 . S
C2182 H2195 0.962 . S
C2182 H2196 0.960 . S
C2183 C2180 1.511 . S
C2183 H2197 0.961 . S
C2183 H2198 0.961 . S
C2183 H2199 0.961 . S
C2184 C2185 1.370 . S
C2184 C2186 1.363 . S
C2184 H2200 0.931 . S
C2185 C2184 1.370 . S
C2185 C2189 1.408 . S
C2186 C2184 1.363 . S
C2186 C2187 1.370 . S
C2186 C2190 1.524 . S
C2187 C2179 1.503 . S
C2187 C2186 1.370 . S
C2187 C2188 1.403 . S
C2188 C2187 1.403 . S
C2188 C2189 1.404 . S
C2188 C2191 1.539 . S
C2189 C2185 1.408 . S
C2189 C2188 1.404 . S
C2189 H2201 0.930 . S
C2190 C2186 1.524 . S
C2190 H2202 0.956 . S
C2190 H2203 0.961 . S
C2190 H2204 0.961 . S
C2191 C2188 1.539 . S
C2191 H2205 0.958 . S
C2191 H2206 0.961 . S
C2191 H2207 0.960 . S
H2192 C2176 0.931 . S
H2193 C2181 0.929 . S
H2194 C2182 0.960 . S
H2195 C2182 0.962 . S
H2196 C2182 0.960 . S
H2197 C2183 0.961 . S
H2198 C2183 0.961 . S
H2199 C2183 0.961 . S
H2200 C2184 0.931 . S
H2201 C2189 0.930 . S
H2202 C2190 0.956 . S
H2203 C2190 0.961 . S
H2204 C2190 0.961 . S
H2205 C2191 0.958 . S
H2206 C2191 0.961 . S
H2207 C2191 0.960 . S
C2208 C2209 1.391 . S
C2208 C2210 1.394 . S
C2208 H2224 0.931 . S
C2209 C2208 1.391 . S
C2209 C2213 1.376 . S
C2210 C2208 1.394 . S
C2210 C2211 1.369 . S
C2210 C2214 1.531 . S
C2211 C2210 1.369 . S
C2211 C2212 1.410 . S
C2211 C2219 1.503 . S
C2212 C2211 1.410 . S
C2212 C2213 1.392 . S
C2212 C2215 1.511 . S
C2213 C2209 1.376 . S
C2213 C2212 1.392 . S
C2213 H2225 0.929 . S
C2214 C2210 1.531 . S
C2214 H2226 0.960 . S
C2214 H2227 0.962 . S
C2214 H2228 0.960 . S
C2215 C2212 1.511 . S
C2215 H2229 0.961 . S
C2215 H2230 0.961 . S
C2215 H2231 0.961 . S
C2216 C2217 1.370 . S
C2216 C2218 1.363 . S
C2216 H2232 0.931 . S
C2217 C2216 1.370 . S
C2217 C2221 1.408 . S
C2218 C2216 1.363 . S
C2218 C2219 1.370 . S
C2218 C2222 1.524 . S
C2219 C2211 1.503 . S
C2219 C2218 1.370 . S
C2219 C2220 1.403 . S
C2220 C2219 1.403 . S
C2220 C2221 1.404 . S
C2220 C2223 1.539 . S
C2221 C2217 1.408 . S
C2221 C2220 1.404 . S
C2221 H2233 0.930 . S
C2222 C2218 1.524 . S
C2222 H2234 0.956 . S
C2222 H2235 0.961 . S
C2222 H2236 0.961 . S
C2223 C2220 1.539 . S
C2223 H2237 0.958 . S
C2223 H2238 0.961 . S
C2223 H2239 0.960 . S
H2224 C2208 0.931 . S
H2225 C2213 0.929 . S
H2226 C2214 0.960 . S
H2227 C2214 0.962 . S
H2228 C2214 0.960 . S
H2229 C2215 0.961 . S
H2230 C2215 0.961 . S
H2231 C2215 0.961 . S
H2232 C2216 0.931 . S
H2233 C2221 0.930 . S
H2234 C2222 0.956 . S
H2235 C2222 0.961 . S
H2236 C2222 0.961 . S
H2237 C2223 0.958 . S
H2238 C2223 0.961 . S
H2239 C2223 0.960 . S
C2240 C2241 1.391 . S
C2240 C2242 1.394 . S
C2240 H2256 0.931 . S
C2241 C2240 1.391 . S
C2241 C2245 1.376 . S
C2242 C2240 1.394 . S
C2242 C2243 1.369 . S
C2242 C2246 1.531 . S
C2243 C2242 1.369 . S
C2243 C2244 1.410 . S
C2243 C2251 1.503 . S
C2244 C2243 1.410 . S
C2244 C2245 1.392 . S
C2244 C2247 1.511 . S
C2245 C2241 1.376 . S
C2245 C2244 1.392 . S
C2245 H2257 0.929 . S
C2246 C2242 1.531 . S
C2246 H2258 0.960 . S
C2246 H2259 0.962 . S
C2246 H2260 0.960 . S
C2247 C2244 1.511 . S
C2247 H2261 0.961 . S
C2247 H2262 0.961 . S
C2247 H2263 0.961 . S
C2248 C2249 1.370 . S
C2248 C2250 1.363 . S
C2248 H2264 0.931 . S
C2249 C2248 1.370 . S
C2249 C2253 1.408 . S
C2250 C2248 1.363 . S
C2250 C2251 1.370 . S
C2250 C2254 1.524 . S
C2251 C2243 1.503 . S
C2251 C2250 1.370 . S
C2251 C2252 1.403 . S
C2252 C2251 1.403 . S
C2252 C2253 1.404 . S
C2252 C2255 1.539 . S
C2253 C2249 1.408 . S
C2253 C2252 1.404 . S
C2253 H2265 0.930 . S
C2254 C2250 1.524 . S
C2254 H2266 0.956 . S
C2254 H2267 0.961 . S
C2254 H2268 0.961 . S
C2255 C2252 1.539 . S
C2255 H2269 0.958 . S
C2255 H2270 0.961 . S
C2255 H2271 0.960 . S
H2256 C2240 0.931 . S
H2257 C2245 0.929 . S
H2258 C2246 0.960 . S
H2259 C2246 0.962 . S
H2260 C2246 0.960 . S
H2261 C2247 0.961 . S
H2262 C2247 0.961 . S
H2263 C2247 0.961 . S
H2264 C2248 0.931 . S
H2265 C2253 0.930 . S
H2266 C2254 0.956 . S
H2267 C2254 0.961 . S
H2268 C2254 0.961 . S
H2269 C2255 0.958 . S
H2270 C2255 0.961 . S
H2271 C2255 0.960 . S
C2272 C2273 1.391 . S
C2272 C2274 1.394 . S
C2272 H2288 0.931 . S
C2273 C2272 1.391 . S
C2273 C2277 1.376 . S
C2274 C2272 1.394 . S
C2274 C2275 1.369 . S
C2274 C2278 1.531 . S
C2275 C2274 1.369 . S
C2275 C2276 1.410 . S
C2275 C2283 1.503 . S
C2276 C2275 1.410 . S
C2276 C2277 1.392 . S
C2276 C2279 1.511 . S
C2277 C2273 1.376 . S
C2277 C2276 1.392 . S
C2277 H2289 0.929 . S
C2278 C2274 1.531 . S
C2278 H2290 0.960 . S
C2278 H2291 0.962 . S
C2278 H2292 0.960 . S
C2279 C2276 1.511 . S
C2279 H2293 0.961 . S
C2279 H2294 0.961 . S
C2279 H2295 0.961 . S
C2280 C2281 1.370 . S
C2280 C2282 1.363 . S
C2280 H2296 0.931 . S
C2281 C2280 1.370 . S
C2281 C2285 1.408 . S
C2282 C2280 1.363 . S
C2282 C2283 1.370 . S
C2282 C2286 1.524 . S
C2283 C2275 1.503 . S
C2283 C2282 1.370 . S
C2283 C2284 1.403 . S
C2284 C2283 1.403 . S
C2284 C2285 1.404 . S
C2284 C2287 1.539 . S
C2285 C2281 1.408 . S
C2285 C2284 1.404 . S
C2285 H2297 0.930 . S
C2286 C2282 1.524 . S
C2286 H2298 0.956 . S
C2286 H2299 0.961 . S
C2286 H2300 0.961 . S
C2287 C2284 1.539 . S
C2287 H2301 0.958 . S
C2287 H2302 0.961 . S
C2287 H2303 0.960 . S
H2288 C2272 0.931 . S
H2289 C2277 0.929 . S
H2290 C2278 0.960 . S
H2291 C2278 0.962 . S
H2292 C2278 0.960 . S
H2293 C2279 0.961 . S
H2294 C2279 0.961 . S
H2295 C2279 0.961 . S
H2296 C2280 0.931 . S
H2297 C2285 0.930 . S
H2298 C2286 0.956 . S
H2299 C2286 0.961 . S
H2300 C2286 0.961 . S
H2301 C2287 0.958 . S
H2302 C2287 0.961 . S
H2303 C2287 0.960 . S
C2304 C2305 1.391 . S
C2304 C2306 1.394 1_565 S
C2304 H2320 0.931 . S
C2305 C2304 1.391 . S
C2305 C2309 1.376 . S
C2306 C2304 1.394 1_545 S
C2306 C2307 1.369 . S
C2306 C2310 1.531 . S
C2307 C2306 1.369 . S
C2307 C2308 1.417 . S
C2307 C2315 1.503 . S
C2308 C2307 1.417 . S
C2308 C2309 1.359 1_545 S
C2308 C2311 1.537 . S
C2309 C2305 1.376 . S
C2309 C2308 1.359 1_565 S
C2309 H2321 0.929 . S
C2310 C2306 1.531 . S
C2310 H2322 0.960 . S
C2310 H2323 0.962 . S
C2310 H2324 0.960 . S
C2311 C2308 1.537 . S
C2311 H2325 0.976 . S
C2311 H2326 0.961 . S
C2311 H2327 0.961 . S
C2312 C2313 1.370 . S
C2312 C2314 1.363 . S
C2312 H2328 0.931 . S
C2313 C2312 1.370 . S
C2313 C2317 1.408 . S
C2314 C2312 1.363 . S
C2314 C2315 1.370 . S
C2314 C2318 1.524 . S
C2315 C2307 1.503 . S
C2315 C2314 1.370 . S
C2315 C2316 1.403 . S
C2316 C2315 1.403 . S
C2316 C2317 1.404 . S
C2316 C2319 1.539 . S
C2317 C2313 1.408 . S
C2317 C2316 1.404 . S
C2317 H2329 0.930 . S
C2318 C2314 1.524 . S
C2318 H2330 0.956 . S
C2318 H2331 0.961 . S
C2318 H2332 0.961 . S
C2319 C2316 1.539 . S
C2319 H2333 0.958 . S
C2319 H2334 0.961 . S
C2319 H2335 0.960 . S
H2320 C2304 0.931 . S
H2321 C2309 0.929 . S
H2322 C2310 0.960 . S
H2323 C2310 0.962 . S
H2324 C2310 0.960 . S
H2325 C2311 0.976 . S
H2326 C2311 0.961 . S
H2327 C2311 0.961 . S
H2328 C2312 0.931 . S
H2329 C2317 0.930 . S
H2330 C2318 0.956 . S
H2331 C2318 0.961 . S
H2332 C2318 0.961 . S
H2333 C2319 0.958 . S
H2334 C2319 0.961 . S
H2335 C2319 0.960 . S
C2336 C2337 1.391 . S
C2336 C2338 1.394 1_455 S
C2336 H2352 0.931 . S
C2337 C2336 1.391 . S
C2337 C2341 1.376 1_455 S
C2338 C2336 1.394 1_655 S
C2338 C2339 1.369 . S
C2338 C2342 1.531 . S
C2339 C2338 1.369 . S
C2339 C2340 1.410 . S
C2339 C2347 1.503 . S
C2340 C2339 1.410 . S
C2340 C2341 1.392 . S
C2340 C2343 1.511 . S
C2341 C2337 1.376 1_655 S
C2341 C2340 1.392 . S
C2341 H2353 0.929 . S
C2342 C2338 1.531 . S
C2342 H2354 0.960 . S
C2342 H2355 0.962 . S
C2342 H2356 0.960 1_655 S
C2343 C2340 1.511 . S
C2343 H2357 0.961 . S
C2343 H2358 0.961 . S
C2343 H2359 0.961 . S
C2344 C2345 1.370 . S
C2344 C2346 1.363 . S
C2344 H2360 0.931 . S
C2345 C2344 1.370 . S
C2345 C2349 1.408 . S
C2346 C2344 1.363 . S
C2346 C2347 1.370 . S
C2346 C2350 1.524 . S
C2347 C2339 1.503 . S
C2347 C2346 1.370 . S
C2347 C2348 1.403 . S
C2348 C2347 1.403 . S
C2348 C2349 1.404 . S
C2348 C2351 1.539 . S
C2349 C2345 1.408 . S
C2349 C2348 1.404 . S
C2349 H2361 0.930 . S
C2350 C2346 1.524 . S
C2350 H2362 0.956 . S
C2350 H2363 0.961 . S
C2350 H2364 0.961 . S
C2351 C2348 1.539 . S
C2351 H2365 0.958 . S
C2351 H2366 0.961 . S
C2351 H2367 0.960 . S
H2352 C2336 0.931 . S
H2353 C2341 0.929 . S
H2354 C2342 0.960 . S
H2355 C2342 0.962 . S
H2356 C2342 0.960 1_455 S
H2357 C2343 0.961 . S
H2358 C2343 0.961 . S
H2359 C2343 0.961 . S
H2360 C2344 0.931 . S
H2361 C2349 0.930 . S
H2362 C2350 0.956 . S
H2363 C2350 0.961 . S
H2364 C2350 0.961 . S
H2365 C2351 0.958 . S
H2366 C2351 0.961 . S
H2367 C2351 0.960 . S
C2368 C2369 1.391 . S
C2368 C2370 1.394 . S
C2368 H2384 0.931 . S
C2369 C2368 1.391 . S
C2369 C2373 1.376 . S
C2370 C2368 1.394 . S
C2370 C2371 1.369 . S
C2370 C2374 1.531 . S
C2371 C2370 1.369 . S
C2371 C2372 1.410 . S
C2371 C2379 1.503 . S
C2372 C2371 1.410 . S
C2372 C2373 1.392 . S
C2372 C2375 1.511 . S
C2373 C2369 1.376 . S
C2373 C2372 1.392 . S
C2373 H2385 0.929 . S
C2374 C2370 1.531 . S
C2374 H2386 0.960 . S
C2374 H2387 0.962 . S
C2374 H2388 0.960 . S
C2375 C2372 1.511 . S
C2375 H2389 0.961 . S
C2375 H2390 0.961 . S
C2375 H2391 0.961 . S
C2376 C2377 1.370 . S
C2376 C2378 1.363 . S
C2376 H2392 0.931 . S
C2377 C2376 1.370 . S
C2377 C2381 1.408 . S
C2378 C2376 1.363 . S
C2378 C2379 1.370 . S
C2378 C2382 1.524 . S
C2379 C2371 1.503 . S
C2379 C2378 1.370 . S
C2379 C2380 1.403 . S
C2380 C2379 1.403 . S
C2380 C2381 1.404 . S
C2380 C2383 1.539 . S
C2381 C2377 1.408 . S
C2381 C2380 1.404 . S
C2381 H2393 0.930 . S
C2382 C2378 1.524 . S
C2382 H2394 0.956 . S
C2382 H2395 0.961 . S
C2382 H2396 0.961 . S
C2383 C2380 1.539 . S
C2383 H2397 0.958 . S
C2383 H2398 0.961 . S
C2383 H2399 0.960 . S
H2384 C2368 0.931 . S
H2385 C2373 0.929 . S
H2386 C2374 0.960 . S
H2387 C2374 0.962 . S
H2388 C2374 0.960 . S
H2389 C2375 0.961 . S
H2390 C2375 0.961 . S
H2391 C2375 0.961 . S
H2392 C2376 0.931 . S
H2393 C2381 0.930 . S
H2394 C2382 0.956 . S
H2395 C2382 0.961 . S
H2396 C2382 0.961 . S
H2397 C2383 0.958 . S
H2398 C2383 0.961 . S
H2399 C2383 0.960 . S
C2400 C2401 1.391 . S
C2400 C2402 1.394 1_455 S
C2400 H2416 0.931 . S
C2401 C2400 1.391 . S
C2401 C2405 1.376 . S
C2402 C2400 1.394 1_655 S
C2402 C2403 1.369 . S
C2402 C2406 1.531 . S
C2403 C2402 1.369 . S
C2403 C2404 1.410 . S
C2403 C2411 1.503 . S
C2404 C2403 1.410 . S
C2404 C2405 1.392 1_655 S
C2404 C2407 1.511 . S
C2405 C2401 1.376 . S
C2405 C2404 1.392 1_455 S
C2405 H2417 0.929 . S
C2406 C2402 1.531 . S
C2406 H2418 0.960 . S
C2406 H2419 0.962 . S
C2406 H2420 0.960 1_655 S
C2407 C2404 1.511 . S
C2407 H2421 0.961 . S
C2407 H2422 0.961 . S
C2407 H2423 0.961 . S
C2408 C2409 1.370 . S
C2408 C2410 1.363 . S
C2408 H2424 0.931 . S
C2409 C2408 1.370 . S
C2409 C2413 1.408 . S
C2410 C2408 1.363 . S
C2410 C2411 1.370 . S
C2410 C2414 1.524 . S
C2411 C2403 1.503 . S
C2411 C2410 1.370 . S
C2411 C2412 1.403 . S
C2412 C2411 1.403 . S
C2412 C2413 1.404 . S
C2412 C2415 1.539 . S
C2413 C2409 1.408 . S
C2413 C2412 1.404 . S
C2413 H2425 0.930 . S
C2414 C2410 1.524 . S
C2414 H2426 0.956 . S
C2414 H2427 0.961 . S
C2414 H2428 0.961 . S
C2415 C2412 1.539 . S
C2415 H2429 0.958 . S
C2415 H2430 0.961 . S
C2415 H2431 0.960 . S
H2416 C2400 0.931 . S
H2417 C2405 0.929 . S
H2418 C2406 0.960 . S
H2419 C2406 0.962 . S
H2420 C2406 0.960 1_455 S
H2421 C2407 0.961 . S
H2422 C2407 0.961 . S
H2423 C2407 0.961 . S
H2424 C2408 0.931 . S
H2425 C2413 0.930 . S
H2426 C2414 0.956 . S
H2427 C2414 0.961 . S
H2428 C2414 0.961 . S
H2429 C2415 0.958 . S
H2430 C2415 0.961 . S
H2431 C2415 0.960 . S
C2432 C2433 1.391 . S
C2432 C2434 1.394 . S
C2432 H2448 0.931 . S
C2433 C2432 1.391 . S
C2433 C2437 1.376 . S
C2434 C2432 1.394 . S
C2434 C2435 1.369 . S
C2434 C2438 1.531 . S
C2435 C2434 1.369 . S
C2435 C2436 1.410 . S
C2435 C2443 1.503 . S
C2436 C2435 1.410 . S
C2436 C2437 1.392 . S
C2436 C2439 1.511 . S
C2437 C2433 1.376 . S
C2437 C2436 1.392 . S
C2437 H2449 0.929 . S
C2438 C2434 1.531 . S
C2438 H2450 0.960 . S
C2438 H2451 0.962 . S
C2438 H2452 0.960 . S
C2439 C2436 1.511 . S
C2439 H2453 0.961 . S
C2439 H2454 0.961 . S
C2439 H2455 0.961 . S
C2440 C2441 1.370 . S
C2440 C2442 1.363 . S
C2440 H2456 0.931 . S
C2441 C2440 1.370 . S
C2441 C2445 1.408 . S
C2442 C2440 1.363 . S
C2442 C2443 1.370 . S
C2442 C2446 1.524 . S
C2443 C2435 1.503 . S
C2443 C2442 1.370 . S
C2443 C2444 1.403 . S
C2444 C2443 1.403 . S
C2444 C2445 1.404 . S
C2444 C2447 1.539 . S
C2445 C2441 1.408 . S
C2445 C2444 1.404 . S
C2445 H2457 0.930 . S
C2446 C2442 1.524 . S
C2446 H2458 0.956 . S
C2446 H2459 0.961 . S
C2446 H2460 0.961 . S
C2447 C2444 1.539 . S
C2447 H2461 0.958 . S
C2447 H2462 0.961 . S
C2447 H2463 0.960 . S
H2448 C2432 0.931 . S
H2449 C2437 0.929 . S
H2450 C2438 0.960 . S
H2451 C2438 0.962 . S
H2452 C2438 0.960 . S
H2453 C2439 0.961 . S
H2454 C2439 0.961 . S
H2455 C2439 0.961 . S
H2456 C2440 0.931 . S
H2457 C2445 0.930 . S
H2458 C2446 0.956 . S
H2459 C2446 0.961 . S
H2460 C2446 0.961 . S
H2461 C2447 0.958 . S
H2462 C2447 0.961 . S
H2463 C2447 0.960 . S
C2464 C2465 1.391 . S
C2464 C2466 1.394 . S
C2464 H2480 0.931 . S
C2465 C2464 1.391 . S
C2465 C2469 1.376 . S
C2466 C2464 1.394 . S
C2466 C2467 1.369 1_565 S
C2466 C2470 1.531 1_565 S
C2467 C2466 1.369 1_545 S
C2467 C2468 1.410 1_545 S
C2467 C2475 1.503 . S
C2468 C2467 1.410 1_565 S
C2468 C2469 1.392 . S
C2468 C2471 1.511 1_565 S
C2469 C2465 1.376 . S
C2469 C2468 1.392 . S
C2469 H2481 0.929 . S
C2470 C2466 1.531 1_545 S
C2470 H2482 0.960 . S
C2470 H2483 0.962 . S
C2470 H2484 0.977 . S
C2471 C2468 1.511 1_545 S
C2471 H2485 0.961 . S
C2471 H2486 0.961 . S
C2471 H2487 0.961 . S
C2472 C2473 1.370 . S
C2472 C2474 1.363 . S
C2472 H2488 0.931 . S
C2473 C2472 1.370 . S
C2473 C2477 1.408 . S
C2474 C2472 1.363 . S
C2474 C2475 1.370 . S
C2474 C2478 1.524 . S
C2475 C2467 1.503 . S
C2475 C2474 1.370 . S
C2475 C2476 1.403 . S
C2476 C2475 1.403 . S
C2476 C2477 1.404 . S
C2476 C2479 1.539 . S
C2477 C2473 1.408 . S
C2477 C2476 1.404 . S
C2477 H2489 0.930 . S
C2478 C2474 1.524 . S
C2478 H2490 0.956 . S
C2478 H2491 0.961 . S
C2478 H2492 0.961 . S
C2479 C2476 1.539 . S
C2479 H2493 0.958 . S
C2479 H2494 0.961 . S
C2479 H2495 0.960 . S
H2480 C2464 0.931 . S
H2481 C2469 0.929 . S
H2482 C2470 0.960 . S
H2483 C2470 0.962 . S
H2484 C2470 0.977 . S
H2485 C2471 0.961 . S
H2486 C2471 0.961 . S
H2487 C2471 0.961 . S
H2488 C2472 0.931 . S
H2489 C2477 0.930 . S
H2490 C2478 0.956 . S
H2491 C2478 0.961 . S
H2492 C2478 0.961 . S
H2493 C2479 0.958 . S
H2494 C2479 0.961 . S
H2495 C2479 0.960 . S
C2496 C2497 1.391 . S
C2496 C2498 1.394 . S
C2496 H2512 0.931 . S
C2497 C2496 1.391 . S
C2497 C2501 1.376 . S
C2498 C2496 1.394 . S
C2498 C2499 1.369 . S
C2498 C2502 1.531 . S
C2499 C2498 1.369 . S
C2499 C2500 1.410 . S
C2499 C2507 1.503 . S
C2500 C2499 1.410 . S
C2500 C2501 1.392 . S
C2500 C2503 1.511 . S
C2501 C2497 1.376 . S
C2501 C2500 1.392 . S
C2501 H2513 0.929 . S
C2502 C2498 1.531 . S
C2502 H2514 0.960 . S
C2502 H2515 0.962 . S
C2502 H2516 0.960 . S
C2503 C2500 1.511 . S
C2503 H2517 0.961 . S
C2503 H2518 0.961 . S
C2503 H2519 0.961 . S
C2504 C2505 1.370 . S
C2504 C2506 1.363 . S
C2504 H2520 0.931 . S
C2505 C2504 1.370 . S
C2505 C2509 1.408 . S
C2506 C2504 1.363 . S
C2506 C2507 1.370 . S
C2506 C2510 1.524 . S
C2507 C2499 1.503 . S
C2507 C2506 1.370 . S
C2507 C2508 1.403 . S
C2508 C2507 1.403 . S
C2508 C2509 1.404 . S
C2508 C2511 1.539 . S
C2509 C2505 1.408 . S
C2509 C2508 1.404 . S
C2509 H2521 0.930 . S
C2510 C2506 1.524 . S
C2510 H2522 0.956 . S
C2510 H2523 0.961 . S
C2510 H2524 0.961 . S
C2511 C2508 1.539 . S
C2511 H2525 0.958 . S
C2511 H2526 0.961 . S
C2511 H2527 0.960 . S
H2512 C2496 0.931 . S
H2513 C2501 0.929 . S
H2514 C2502 0.960 . S
H2515 C2502 0.962 . S
H2516 C2502 0.960 . S
H2517 C2503 0.961 . S
H2518 C2503 0.961 . S
H2519 C2503 0.961 . S
H2520 C2504 0.931 . S
H2521 C2509 0.930 . S
H2522 C2510 0.956 . S
H2523 C2510 0.961 . S
H2524 C2510 0.961 . S
H2525 C2511 0.958 . S
H2526 C2511 0.961 . S
H2527 C2511 0.960 . S
C2528 C2529 1.391 . S
C2528 C2530 1.394 . S
C2528 H2544 0.931 . S
C2529 C2528 1.391 . S
C2529 C2533 1.376 . S
C2530 C2528 1.394 . S
C2530 C2531 1.369 . S
C2530 C2534 1.531 . S
C2531 C2530 1.369 . S
C2531 C2532 1.410 . S
C2531 C2539 1.503 . S
C2532 C2531 1.410 . S
C2532 C2533 1.392 . S
C2532 C2535 1.511 . S
C2533 C2529 1.376 . S
C2533 C2532 1.392 . S
C2533 H2545 0.929 . S
C2534 C2530 1.531 . S
C2534 H2546 0.960 . S
C2534 H2547 0.962 . S
C2534 H2548 0.960 . S
C2535 C2532 1.511 . S
C2535 H2549 0.961 . S
C2535 H2550 0.961 . S
C2535 H2551 0.961 . S
C2536 C2537 1.370 . S
C2536 C2538 1.363 . S
C2536 H2552 0.931 . S
C2537 C2536 1.370 . S
C2537 C2541 1.408 . S
C2538 C2536 1.363 . S
C2538 C2539 1.370 . S
C2538 C2542 1.524 . S
C2539 C2531 1.503 . S
C2539 C2538 1.370 . S
C2539 C2540 1.403 . S
C2540 C2539 1.403 . S
C2540 C2541 1.404 . S
C2540 C2543 1.539 . S
C2541 C2537 1.408 . S
C2541 C2540 1.404 . S
C2541 H2553 0.930 . S
C2542 C2538 1.524 . S
C2542 H2554 0.956 . S
C2542 H2555 0.961 . S
C2542 H2556 0.961 . S
C2543 C2540 1.539 . S
C2543 H2557 0.958 . S
C2543 H2558 0.961 . S
C2543 H2559 0.960 . S
H2544 C2528 0.931 . S
H2545 C2533 0.929 . S
H2546 C2534 0.960 . S
H2547 C2534 0.962 . S
H2548 C2534 0.960 . S
H2549 C2535 0.961 . S
H2550 C2535 0.961 . S
H2551 C2535 0.961 . S
H2552 C2536 0.931 . S
H2553 C2541 0.930 . S
H2554 C2542 0.956 . S
H2555 C2542 0.961 . S
H2556 C2542 0.961 . S
H2557 C2543 0.958 . S
H2558 C2543 0.961 . S
H2559 C2543 0.960 . S
C2560 C2561 1.391 . S
C2560 C2562 1.394 . S
C2560 H2576 0.931 . S
C2561 C2560 1.391 . S
C2561 C2565 1.376 . S
C2562 C2560 1.394 . S
C2562 C2563 1.369 . S
C2562 C2566 1.531 . S
C2563 C2562 1.369 . S
C2563 C2564 1.410 . S
C2563 C2571 1.503 . S
C2564 C2563 1.410 . S
C2564 C2565 1.392 . S
C2564 C2567 1.511 . S
C2565 C2561 1.376 . S
C2565 C2564 1.392 . S
C2565 H2577 0.929 . S
C2566 C2562 1.531 . S
C2566 H2578 0.960 . S
C2566 H2579 0.962 . S
C2566 H2580 0.960 . S
C2567 C2564 1.511 . S
C2567 H2581 0.961 . S
C2567 H2582 0.961 . S
C2567 H2583 0.961 . S
C2568 C2569 1.370 . S
C2568 C2570 1.363 . S
C2568 H2584 0.931 . S
C2569 C2568 1.370 . S
C2569 C2573 1.408 . S
C2570 C2568 1.363 . S
C2570 C2571 1.370 . S
C2570 C2574 1.524 . S
C2571 C2563 1.503 . S
C2571 C2570 1.370 . S
C2571 C2572 1.403 . S
C2572 C2571 1.403 . S
C2572 C2573 1.404 . S
C2572 C2575 1.539 . S
C2573 C2569 1.408 . S
C2573 C2572 1.404 . S
C2573 H2585 0.930 . S
C2574 C2570 1.524 . S
C2574 H2586 0.956 . S
C2574 H2587 0.961 . S
C2574 H2588 0.961 . S
C2575 C2572 1.539 . S
C2575 H2589 0.958 . S
C2575 H2590 0.961 . S
C2575 H2591 0.960 . S
H2576 C2560 0.931 . S
H2577 C2565 0.929 . S
H2578 C2566 0.960 . S
H2579 C2566 0.962 . S
H2580 C2566 0.960 . S
H2581 C2567 0.961 . S
H2582 C2567 0.961 . S
H2583 C2567 0.961 . S
H2584 C2568 0.931 . S
H2585 C2573 0.930 . S
H2586 C2574 0.956 . S
H2587 C2574 0.961 . S
H2588 C2574 0.961 . S
H2589 C2575 0.958 . S
H2590 C2575 0.961 . S
H2591 C2575 0.960 . S
C2592 C2593 1.391 . S
C2592 C2594 1.394 . S
C2592 H2608 0.931 . S
C2593 C2592 1.391 . S
C2593 C2597 1.376 . S
C2594 C2592 1.394 . S
C2594 C2595 1.369 . S
C2594 C2598 1.531 . S
C2595 C2594 1.369 . S
C2595 C2596 1.410 . S
C2595 C2603 1.503 . S
C2596 C2595 1.410 . S
C2596 C2597 1.392 . S
C2596 C2599 1.511 . S
C2597 C2593 1.376 . S
C2597 C2596 1.392 . S
C2597 H2609 0.929 . S
C2598 C2594 1.531 . S
C2598 H2610 0.960 1_565 S
C2598 H2611 0.962 . S
C2598 H2612 0.960 1_565 S
C2599 C2596 1.511 . S
C2599 H2613 0.961 . S
C2599 H2614 0.961 . S
C2599 H2615 0.961 . S
C2600 C2601 1.370 . S
C2600 C2602 1.363 . S
C2600 H2616 0.931 . S
C2601 C2600 1.370 . S
C2601 C2605 1.408 1_565 S
C2602 C2600 1.363 . S
C2602 C2603 1.370 . S
C2602 C2606 1.524 . S
C2603 C2595 1.503 . S
C2603 C2602 1.370 . S
C2603 C2604 1.403 1_565 S
C2604 C2603 1.403 1_545 S
C2604 C2605 1.404 . S
C2604 C2607 1.539 . S
C2605 C2601 1.408 1_545 S
C2605 C2604 1.404 . S
C2605 H2617 0.930 . S
C2606 C2602 1.524 . S
C2606 H2618 0.956 . S
C2606 H2619 0.961 . S
C2606 H2620 0.961 . S
C2607 C2604 1.539 . S
C2607 H2621 0.958 . S
C2607 H2622 0.961 . S
C2607 H2623 0.960 . S
H2608 C2592 0.931 . S
H2609 C2597 0.929 . S
H2610 C2598 0.960 1_545 S
H2611 C2598 0.962 . S
H2612 C2598 0.960 1_545 S
H2613 C2599 0.961 . S
H2614 C2599 0.961 . S
H2615 C2599 0.961 . S
H2616 C2600 0.931 . S
H2617 C2605 0.930 . S
H2618 C2606 0.956 . S
H2619 C2606 0.961 . S
H2620 C2606 0.961 . S
H2621 C2607 0.958 . S
H2622 C2607 0.961 . S
H2623 C2607 0.960 . S
C2624 C2625 1.391 1_655 S
C2624 C2626 1.394 . S
C2624 H2640 0.931 . S
C2625 C2624 1.391 1_455 S
C2625 C2629 1.376 . S
C2626 C2624 1.394 . S
C2626 C2627 1.369 1_655 S
C2626 C2630 1.531 . S
C2627 C2626 1.369 1_455 S
C2627 C2628 1.410 . S
C2627 C2635 1.503 . S
C2628 C2627 1.410 . S
C2628 C2629 1.392 . S
C2628 C2631 1.511 . S
C2629 C2625 1.376 . S
C2629 C2628 1.392 . S
C2629 H2641 0.929 . S
C2630 C2626 1.531 . S
C2630 H2642 0.960 . S
C2630 H2643 0.962 . S
C2630 H2644 0.960 . S
C2631 C2628 1.511 . S
C2631 H2645 0.961 . S
C2631 H2646 0.961 . S
C2631 H2647 0.961 . S
C2632 C2633 1.370 1_655 S
C2632 C2634 1.363 . S
C2632 H2648 0.931 . S
C2633 C2632 1.370 1_455 S
C2633 C2637 1.408 . S
C2634 C2632 1.363 . S
C2634 C2635 1.370 1_655 S
C2634 C2638 1.524 . S
C2635 C2627 1.503 . S
C2635 C2634 1.370 1_455 S
C2635 C2636 1.403 . S
C2636 C2635 1.403 . S
C2636 C2637 1.404 . S
C2636 C2639 1.539 . S
C2637 C2633 1.408 . S
C2637 C2636 1.404 . S
C2637 H2649 0.930 . S
C2638 C2634 1.524 . S
C2638 H2650 0.956 . S
C2638 H2651 0.961 . S
C2638 H2652 0.961 . S
C2639 C2636 1.539 . S
C2639 H2653 0.958 . S
C2639 H2654 0.961 . S
C2639 H2655 0.960 . S
H2640 C2624 0.931 . S
H2641 C2629 0.929 . S
H2642 C2630 0.960 . S
H2643 C2630 0.962 . S
H2644 C2630 0.960 . S
H2645 C2631 0.961 . S
H2646 C2631 0.961 . S
H2647 C2631 0.961 . S
H2648 C2632 0.931 . S
H2649 C2637 0.930 . S
H2650 C2638 0.956 . S
H2651 C2638 0.961 . S
H2652 C2638 0.961 . S
H2653 C2639 0.958 . S
H2654 C2639 0.961 . S
H2655 C2639 0.960 . S
C2656 C2657 1.391 . S
C2656 C2658 1.394 . S
C2656 H2672 0.931 . S
C2657 C2656 1.391 . S
C2657 C2661 1.376 . S
C2658 C2656 1.394 . S
C2658 C2659 1.369 . S
C2658 C2662 1.531 . S
C2659 C2658 1.369 . S
C2659 C2660 1.410 . S
C2659 C2667 1.503 . S
C2660 C2659 1.410 . S
C2660 C2661 1.392 . S
C2660 C2663 1.511 . S
C2661 C2657 1.376 . S
C2661 C2660 1.392 . S
C2661 H2673 0.929 . S
C2662 C2658 1.531 . S
C2662 H2674 0.960 . S
C2662 H2675 0.962 . S
C2662 H2676 0.960 . S
C2663 C2660 1.511 . S
C2663 H2677 0.961 . S
C2663 H2678 0.961 . S
C2663 H2679 0.961 . S
C2664 C2665 1.370 . S
C2664 C2666 1.363 . S
C2664 H2680 0.931 . S
C2665 C2664 1.370 . S
C2665 C2669 1.408 . S
C2666 C2664 1.363 . S
C2666 C2667 1.370 . S
C2666 C2670 1.524 . S
C2667 C2659 1.503 . S
C2667 C2666 1.370 . S
C2667 C2668 1.403 . S
C2668 C2667 1.403 . S
C2668 C2669 1.404 . S
C2668 C2671 1.539 . S
C2669 C2665 1.408 . S
C2669 C2668 1.404 . S
C2669 H2681 0.930 . S
C2670 C2666 1.524 . S
C2670 H2682 0.956 . S
C2670 H2683 0.961 . S
C2670 H2684 0.961 . S
C2671 C2668 1.539 . S
C2671 H2685 0.958 . S
C2671 H2686 0.961 . S
C2671 H2687 0.960 . S
H2672 C2656 0.931 . S
H2673 C2661 0.929 . S
H2674 C2662 0.960 . S
H2675 C2662 0.962 . S
H2676 C2662 0.960 . S
H2677 C2663 0.961 . S
H2678 C2663 0.961 . S
H2679 C2663 0.961 . S
H2680 C2664 0.931 . S
H2681 C2669 0.930 . S
H2682 C2670 0.956 . S
H2683 C2670 0.961 . S
H2684 C2670 0.961 . S
H2685 C2671 0.958 . S
H2686 C2671 0.961 . S
H2687 C2671 0.960 . S
C2688 C2689 1.391 1_455 S
C2688 C2690 1.394 . S
C2688 H2704 0.931 . S
C2689 C2688 1.391 1_655 S
C2689 C2693 1.376 . S
C2690 C2688 1.394 . S
C2690 C2691 1.369 1_455 S
C2690 C2694 1.531 . S
C2691 C2690 1.369 1_655 S
C2691 C2692 1.410 . S
C2691 C2699 1.503 . S
C2692 C2691 1.410 . S
C2692 C2693 1.392 . S
C2692 C2695 1.511 . S
C2693 C2689 1.376 . S
C2693 C2692 1.392 . S
C2693 H2705 0.929 . S
C2694 C2690 1.531 . S
C2694 H2706 0.960 . S
C2694 H2707 0.962 . S
C2694 H2708 0.960 . S
C2695 C2692 1.511 . S
C2695 H2709 0.961 . S
C2695 H2710 0.961 . S
C2695 H2711 0.961 . S
C2696 C2697 1.370 . S
C2696 C2698 1.363 . S
C2696 H2712 0.931 . S
C2697 C2696 1.370 . S
C2697 C2701 1.408 . S
C2698 C2696 1.363 . S
C2698 C2699 1.370 . S
C2698 C2702 1.524 . S
C2699 C2691 1.503 . S
C2699 C2698 1.370 . S
C2699 C2700 1.403 . S
C2700 C2699 1.403 . S
C2700 C2701 1.404 . S
C2700 C2703 1.539 . S
C2701 C2697 1.408 . S
C2701 C2700 1.404 . S
C2701 H2713 0.930 . S
C2702 C2698 1.524 . S
C2702 H2714 0.956 1_655 S
C2702 H2715 0.961 . S
C2702 H2716 0.961 . S
C2703 C2700 1.539 . S
C2703 H2717 0.958 1_655 S
C2703 H2718 0.961 . S
C2703 H2719 0.960 . S
H2704 C2688 0.931 . S
H2705 C2693 0.929 . S
H2706 C2694 0.960 . S
H2707 C2694 0.962 . S
H2708 C2694 0.960 . S
H2709 C2695 0.961 . S
H2710 C2695 0.961 . S
H2711 C2695 0.961 . S
H2712 C2696 0.931 . S
H2713 C2701 0.930 . S
H2714 C2702 0.956 1_455 S
H2715 C2702 0.961 . S
H2716 C2702 0.961 . S
H2717 C2703 0.958 1_455 S
H2718 C2703 0.961 . S
H2719 C2703 0.960 . S
C2720 C2721 1.391 . S
C2720 C2722 1.394 . S
C2720 H2736 0.931 . S
C2721 C2720 1.391 . S
C2721 C2725 1.376 . S
C2722 C2720 1.394 . S
C2722 C2723 1.369 . S
C2722 C2726 1.531 . S
C2723 C2722 1.369 . S
C2723 C2724 1.410 . S
C2723 C2731 1.503 . S
C2724 C2723 1.410 . S
C2724 C2725 1.392 . S
C2724 C2727 1.511 . S
C2725 C2721 1.376 . S
C2725 C2724 1.392 . S
C2725 H2737 0.929 . S
C2726 C2722 1.531 . S
C2726 H2738 0.960 . S
C2726 H2739 0.962 . S
C2726 H2740 0.960 . S
C2727 C2724 1.511 . S
C2727 H2741 0.961 . S
C2727 H2742 0.961 . S
C2727 H2743 0.961 . S
C2728 C2729 1.370 . S
C2728 C2730 1.363 . S
C2728 H2744 0.931 . S
C2729 C2728 1.370 . S
C2729 C2733 1.408 . S
C2730 C2728 1.363 . S
C2730 C2731 1.370 . S
C2730 C2734 1.524 . S
C2731 C2723 1.503 . S
C2731 C2730 1.370 . S
C2731 C2732 1.403 . S
C2732 C2731 1.403 . S
C2732 C2733 1.404 . S
C2732 C2735 1.539 . S
C2733 C2729 1.408 . S
C2733 C2732 1.404 . S
C2733 H2745 0.930 . S
C2734 C2730 1.524 . S
C2734 H2746 0.956 . S
C2734 H2747 0.961 . S
C2734 H2748 0.961 . S
C2735 C2732 1.539 . S
C2735 H2749 0.958 . S
C2735 H2750 0.961 . S
C2735 H2751 0.960 . S
H2736 C2720 0.931 . S
H2737 C2725 0.929 . S
H2738 C2726 0.960 . S
H2739 C2726 0.962 . S
H2740 C2726 0.960 . S
H2741 C2727 0.961 . S
H2742 C2727 0.961 . S
H2743 C2727 0.961 . S
H2744 C2728 0.931 . S
H2745 C2733 0.930 . S
H2746 C2734 0.956 . S
H2747 C2734 0.961 . S
H2748 C2734 0.961 . S
H2749 C2735 0.958 . S
H2750 C2735 0.961 . S
H2751 C2735 0.960 . S
C2752 C2753 1.391 . S
C2752 C2754 1.394 . S
C2752 H2768 0.941 . S
C2753 C2752 1.391 . S
C2753 C2757 1.376 . S
C2754 C2752 1.394 . S
C2754 C2755 1.369 . S
C2754 C2758 1.531 1_545 S
C2755 C2754 1.369 . S
C2755 C2756 1.410 . S
C2755 C2763 1.503 . S
C2756 C2755 1.410 . S
C2756 C2757 1.392 . S
C2756 C2759 1.511 . S
C2757 C2753 1.376 . S
C2757 C2756 1.392 . S
C2757 H2769 0.929 . S
C2758 C2754 1.531 1_565 S
C2758 H2770 0.960 . S
C2758 H2771 0.962 . S
C2758 H2772 0.960 . S
C2759 C2756 1.511 . S
C2759 H2773 0.961 . S
C2759 H2774 0.961 . S
C2759 H2775 0.961 . S
C2760 C2761 1.370 . S
C2760 C2762 1.363 . S
C2760 H2776 0.931 . S
C2761 C2760 1.370 . S
C2761 C2765 1.408 1_545 S
C2762 C2760 1.363 . S
C2762 C2763 1.370 . S
C2762 C2766 1.524 . S
C2763 C2755 1.503 . S
C2763 C2762 1.370 . S
C2763 C2764 1.403 . S
C2764 C2763 1.403 . S
C2764 C2765 1.404 1_545 S
C2764 C2767 1.539 1_545 S
C2765 C2761 1.408 1_565 S
C2765 C2764 1.404 1_565 S
C2765 H2777 0.930 . S
C2766 C2762 1.524 . S
C2766 H2778 0.956 . S
C2766 H2779 0.961 . S
C2766 H2780 0.961 . S
C2767 C2764 1.539 1_565 S
C2767 H2781 0.958 . S
C2767 H2782 0.961 . S
C2767 H2783 0.960 1_565 S
H2768 C2752 0.941 . S
H2769 C2757 0.929 . S
H2770 C2758 0.960 . S
H2771 C2758 0.962 . S
H2772 C2758 0.960 . S
H2773 C2759 0.961 . S
H2774 C2759 0.961 . S
H2775 C2759 0.961 . S
H2776 C2760 0.931 . S
H2777 C2765 0.930 . S
H2778 C2766 0.956 . S
H2779 C2766 0.961 . S
H2780 C2766 0.961 . S
H2781 C2767 0.958 . S
H2782 C2767 0.961 . S
H2783 C2767 0.960 1_545 S
C2784 C2785 1.391 . S
C2784 C2786 1.394 . S
C2784 H2800 0.931 . S
C2785 C2784 1.391 . S
C2785 C2789 1.376 . S
C2786 C2784 1.394 . S
C2786 C2787 1.369 . S
C2786 C2790 1.531 . S
C2787 C2786 1.369 . S
C2787 C2788 1.410 . S
C2787 C2795 1.503 . S
C2788 C2787 1.410 . S
C2788 C2789 1.392 . S
C2788 C2791 1.511 . S
C2789 C2785 1.376 . S
C2789 C2788 1.392 . S
C2789 H2801 0.929 . S
C2790 C2786 1.531 . S
C2790 H2802 0.960 . S
C2790 H2803 0.962 . S
C2790 H2804 0.960 . S
C2791 C2788 1.511 . S
C2791 H2805 0.961 . S
C2791 H2806 0.961 . S
C2791 H2807 0.961 . S
C2792 C2793 1.370 . S
C2792 C2794 1.363 . S
C2792 H2808 0.931 . S
C2793 C2792 1.370 . S
C2793 C2797 1.408 . S
C2794 C2792 1.363 . S
C2794 C2795 1.370 . S
C2794 C2798 1.524 . S
C2795 C2787 1.503 . S
C2795 C2794 1.370 . S
C2795 C2796 1.403 . S
C2796 C2795 1.403 . S
C2796 C2797 1.404 . S
C2796 C2799 1.539 . S
C2797 C2793 1.408 . S
C2797 C2796 1.404 . S
C2797 H2809 0.930 . S
C2798 C2794 1.524 . S
C2798 H2810 0.956 . S
C2798 H2811 0.961 . S
C2798 H2812 0.961 . S
C2799 C2796 1.539 . S
C2799 H2813 0.958 . S
C2799 H2814 0.961 . S
C2799 H2815 0.960 . S
H2800 C2784 0.931 . S
H2801 C2789 0.929 . S
H2802 C2790 0.960 . S
H2803 C2790 0.962 . S
H2804 C2790 0.960 . S
H2805 C2791 0.961 . S
H2806 C2791 0.961 . S
H2807 C2791 0.961 . S
H2808 C2792 0.931 . S
H2809 C2797 0.930 . S
H2810 C2798 0.956 . S
H2811 C2798 0.961 . S
H2812 C2798 0.961 . S
H2813 C2799 0.958 . S
H2814 C2799 0.961 . S
H2815 C2799 0.960 . S
C2816 C2817 1.391 . S
C2816 C2818 1.394 . S
C2816 H2832 0.931 . S
C2817 C2816 1.391 . S
C2817 C2821 1.376 . S
C2818 C2816 1.394 . S
C2818 C2819 1.369 . S
C2818 C2822 1.531 . S
C2819 C2818 1.369 . S
C2819 C2820 1.410 . S
C2819 C2827 1.503 . S
C2820 C2819 1.410 . S
C2820 C2821 1.392 . S
C2820 C2823 1.511 . S
C2821 C2817 1.376 . S
C2821 C2820 1.392 . S
C2821 H2833 0.929 . S
C2822 C2818 1.531 . S
C2822 H2834 0.960 . S
C2822 H2835 0.962 . S
C2822 H2836 0.960 . S
C2823 C2820 1.511 . S
C2823 H2837 0.961 . S
C2823 H2838 0.961 . S
C2823 H2839 0.961 . S
C2824 C2825 1.370 . S
C2824 C2826 1.363 . S
C2824 H2840 0.931 . S
C2825 C2824 1.370 . S
C2825 C2829 1.408 . S
C2826 C2824 1.363 . S
C2826 C2827 1.370 . S
C2826 C2830 1.524 . S
C2827 C2819 1.503 . S
C2827 C2826 1.370 . S
C2827 C2828 1.403 . S
C2828 C2827 1.403 . S
C2828 C2829 1.404 . S
C2828 C2831 1.539 . S
C2829 C2825 1.408 . S
C2829 C2828 1.404 . S
C2829 H2841 0.930 . S
C2830 C2826 1.524 . S
C2830 H2842 0.956 . S
C2830 H2843 0.961 . S
C2830 H2844 0.961 . S
C2831 C2828 1.539 . S
C2831 H2845 0.958 . S
C2831 H2846 0.961 . S
C2831 H2847 0.960 . S
H2832 C2816 0.931 . S
H2833 C2821 0.929 . S
H2834 C2822 0.960 . S
H2835 C2822 0.962 . S
H2836 C2822 0.960 . S
H2837 C2823 0.961 . S
H2838 C2823 0.961 . S
H2839 C2823 0.961 . S
H2840 C2824 0.931 . S
H2841 C2829 0.930 . S
H2842 C2830 0.956 . S
H2843 C2830 0.961 . S
H2844 C2830 0.961 . S
H2845 C2831 0.958 . S
H2846 C2831 0.961 . S
H2847 C2831 0.960 . S
C2848 C2849 1.391 . S
C2848 C2850 1.394 . S
C2848 H2864 0.931 . S
C2849 C2848 1.391 . S
C2849 C2853 1.376 . S
C2850 C2848 1.394 . S
C2850 C2851 1.369 . S
C2850 C2854 1.531 . S
C2851 C2850 1.369 . S
C2851 C2852 1.410 . S
C2851 C2859 1.503 . S
C2852 C2851 1.410 . S
C2852 C2853 1.392 . S
C2852 C2855 1.511 . S
C2853 C2849 1.376 . S
C2853 C2852 1.392 . S
C2853 H2865 0.929 . S
C2854 C2850 1.531 . S
C2854 H2866 0.960 . S
C2854 H2867 0.962 . S
C2854 H2868 0.960 . S
C2855 C2852 1.511 . S
C2855 H2869 0.961 . S
C2855 H2870 0.961 . S
C2855 H2871 0.961 . S
C2856 C2857 1.370 . S
C2856 C2858 1.363 . S
C2856 H2872 0.931 . S
C2857 C2856 1.370 . S
C2857 C2861 1.408 . S
C2858 C2856 1.363 . S
C2858 C2859 1.370 . S
C2858 C2862 1.524 . S
C2859 C2851 1.503 . S
C2859 C2858 1.370 . S
C2859 C2860 1.403 . S
C2860 C2859 1.403 . S
C2860 C2861 1.404 . S
C2860 C2863 1.539 . S
C2861 C2857 1.408 . S
C2861 C2860 1.404 . S
C2861 H2873 0.930 . S
C2862 C2858 1.524 . S
C2862 H2874 0.956 . S
C2862 H2875 0.961 . S
C2862 H2876 0.961 . S
C2863 C2860 1.539 . S
C2863 H2877 0.958 . S
C2863 H2878 0.961 . S
C2863 H2879 0.960 . S
H2864 C2848 0.931 . S
H2865 C2853 0.929 . S
H2866 C2854 0.960 . S
H2867 C2854 0.962 . S
H2868 C2854 0.960 . S
H2869 C2855 0.961 . S
H2870 C2855 0.961 . S
H2871 C2855 0.961 . S
H2872 C2856 0.931 . S
H2873 C2861 0.930 . S
H2874 C2862 0.956 . S
H2875 C2862 0.961 . S
H2876 C2862 0.961 . S
H2877 C2863 0.958 . S
H2878 C2863 0.961 . S
H2879 C2863 0.960 . S
C2880 C2881 1.391 . S
C2880 C2882 1.394 . S
C2880 H2896 0.931 . S
C2881 C2880 1.391 . S
C2881 C2885 1.376 . S
C2882 C2880 1.394 . S
C2882 C2883 1.369 . S
C2882 C2886 1.531 . S
C2883 C2882 1.369 . S
C2883 C2884 1.410 . S
C2883 C2891 1.503 . S
C2884 C2883 1.410 . S
C2884 C2885 1.392 . S
C2884 C2887 1.511 . S
C2885 C2881 1.376 . S
C2885 C2884 1.392 . S
C2885 H2897 0.929 . S
C2886 C2882 1.531 . S
C2886 H2898 0.960 . S
C2886 H2899 0.962 . S
C2886 H2900 0.960 . S
C2887 C2884 1.511 . S
C2887 H2901 0.961 . S
C2887 H2902 0.961 . S
C2887 H2903 0.961 . S
C2888 C2889 1.370 . S
C2888 C2890 1.363 . S
C2888 H2904 0.931 . S
C2889 C2888 1.370 . S
C2889 C2893 1.408 . S
C2890 C2888 1.363 . S
C2890 C2891 1.370 . S
C2890 C2894 1.524 . S
C2891 C2883 1.503 . S
C2891 C2890 1.370 . S
C2891 C2892 1.403 . S
C2892 C2891 1.403 . S
C2892 C2893 1.404 . S
C2892 C2895 1.539 . S
C2893 C2889 1.408 . S
C2893 C2892 1.404 . S
C2893 H2905 0.930 . S
C2894 C2890 1.524 . S
C2894 H2906 0.956 . S
C2894 H2907 0.961 . S
C2894 H2908 0.961 . S
C2895 C2892 1.539 . S
C2895 H2909 0.958 . S
C2895 H2910 0.961 . S
C2895 H2911 0.960 . S
H2896 C2880 0.931 . S
H2897 C2885 0.929 . S
H2898 C2886 0.960 . S
H2899 C2886 0.962 . S
H2900 C2886 0.960 . S
H2901 C2887 0.961 . S
H2902 C2887 0.961 . S
H2903 C2887 0.961 . S
H2904 C2888 0.931 . S
H2905 C2893 0.930 . S
H2906 C2894 0.956 . S
H2907 C2894 0.961 . S
H2908 C2894 0.961 . S
H2909 C2895 0.958 . S
H2910 C2895 0.961 . S
H2911 C2895 0.960 . S
C2912 C2913 1.391 . S
C2912 C2914 1.394 . S
C2912 H2928 0.931 . S
C2913 C2912 1.391 . S
C2913 C2917 1.376 . S
C2914 C2912 1.394 . S
C2914 C2915 1.369 . S
C2914 C2918 1.531 . S
C2915 C2914 1.369 . S
C2915 C2916 1.410 . S
C2915 C2923 1.503 . S
C2916 C2915 1.410 . S
C2916 C2917 1.392 . S
C2916 C2919 1.511 . S
C2917 C2913 1.376 . S
C2917 C2916 1.392 . S
C2917 H2929 0.929 . S
C2918 C2914 1.531 . S
C2918 H2930 0.960 . S
C2918 H2931 0.962 . S
C2918 H2932 0.960 . S
C2919 C2916 1.511 . S
C2919 H2933 0.961 . S
C2919 H2934 0.961 . S
C2919 H2935 0.961 . S
C2920 C2921 1.370 . S
C2920 C2922 1.363 . S
C2920 H2936 0.931 . S
C2921 C2920 1.370 . S
C2921 C2925 1.408 . S
C2922 C2920 1.363 . S
C2922 C2923 1.370 . S
C2922 C2926 1.524 . S
C2923 C2915 1.503 . S
C2923 C2922 1.370 . S
C2923 C2924 1.403 . S
C2924 C2923 1.403 . S
C2924 C2925 1.404 . S
C2924 C2927 1.539 . S
C2925 C2921 1.408 . S
C2925 C2924 1.404 . S
C2925 H2937 0.930 . S
C2926 C2922 1.524 . S
C2926 H2938 0.956 . S
C2926 H2939 0.961 . S
C2926 H2940 0.961 . S
C2927 C2924 1.539 . S
C2927 H2941 0.958 . S
C2927 H2942 0.961 . S
C2927 H2943 0.960 . S
H2928 C2912 0.931 . S
H2929 C2917 0.929 . S
H2930 C2918 0.960 . S
H2931 C2918 0.962 . S
H2932 C2918 0.960 . S
H2933 C2919 0.961 . S
H2934 C2919 0.961 . S
H2935 C2919 0.961 . S
H2936 C2920 0.931 . S
H2937 C2925 0.930 . S
H2938 C2926 0.956 . S
H2939 C2926 0.961 . S
H2940 C2926 0.961 . S
H2941 C2927 0.958 . S
H2942 C2927 0.961 . S
H2943 C2927 0.960 . S
C2944 C2945 1.391 . S
C2944 C2946 1.394 . S
C2944 H2960 0.931 . S
C2945 C2944 1.391 . S
C2945 C2949 1.376 . S
C2946 C2944 1.394 . S
C2946 C2947 1.369 . S
C2946 C2950 1.531 . S
C2947 C2946 1.369 . S
C2947 C2948 1.410 . S
C2947 C2955 1.503 . S
C2948 C2947 1.410 . S
C2948 C2949 1.392 . S
C2948 C2951 1.511 . S
C2949 C2945 1.376 . S
C2949 C2948 1.392 . S
C2949 H2961 0.929 . S
C2950 C2946 1.531 . S
C2950 H2962 0.960 . S
C2950 H2963 0.962 . S
C2950 H2964 0.960 . S
C2951 C2948 1.511 . S
C2951 H2965 0.961 . S
C2951 H2966 0.961 . S
C2951 H2967 0.961 . S
C2952 C2953 1.370 . S
C2952 C2954 1.363 . S
C2952 H2968 0.931 . S
C2953 C2952 1.370 . S
C2953 C2957 1.408 . S
C2954 C2952 1.363 . S
C2954 C2955 1.370 . S
C2954 C2958 1.524 . S
C2955 C2947 1.503 . S
C2955 C2954 1.370 . S
C2955 C2956 1.403 . S
C2956 C2955 1.403 . S
C2956 C2957 1.404 . S
C2956 C2959 1.539 . S
C2957 C2953 1.408 . S
C2957 C2956 1.404 . S
C2957 H2969 0.930 . S
C2958 C2954 1.524 . S
C2958 H2970 0.956 . S
C2958 H2971 0.961 . S
C2958 H2972 0.961 . S
C2959 C2956 1.539 . S
C2959 H2973 0.958 . S
C2959 H2974 0.961 . S
C2959 H2975 0.960 . S
H2960 C2944 0.931 . S
H2961 C2949 0.929 . S
H2962 C2950 0.960 . S
H2963 C2950 0.962 . S
H2964 C2950 0.960 . S
H2965 C2951 0.961 . S
H2966 C2951 0.961 . S
H2967 C2951 0.961 . S
H2968 C2952 0.931 . S
H2969 C2957 0.930 . S
H2970 C2958 0.956 . S
H2971 C2958 0.961 . S
H2972 C2958 0.961 . S
H2973 C2959 0.958 . S
H2974 C2959 0.961 . S
H2975 C2959 0.960 . S
C2976 C2977 1.391 . S
C2976 C2978 1.394 . S
C2976 H2992 0.931 . S
C2977 C2976 1.391 . S
C2977 C2981 1.376 . S
C2978 C2976 1.394 . S
C2978 C2979 1.369 . S
C2978 C2982 1.531 . S
C2979 C2978 1.369 . S
C2979 C2980 1.410 . S
C2979 C2987 1.503 . S
C2980 C2979 1.410 . S
C2980 C2981 1.392 . S
C2980 C2983 1.511 . S
C2981 C2977 1.376 . S
C2981 C2980 1.392 . S
C2981 H2993 0.929 . S
C2982 C2978 1.531 . S
C2982 H2994 0.960 . S
C2982 H2995 0.962 . S
C2982 H2996 0.960 . S
C2983 C2980 1.511 . S
C2983 H2997 0.961 . S
C2983 H2998 0.961 . S
C2983 H2999 0.961 . S
C2984 C2985 1.370 . S
C2984 C2986 1.363 . S
C2984 H3000 0.931 . S
C2985 C2984 1.370 . S
C2985 C2989 1.408 . S
C2986 C2984 1.363 . S
C2986 C2987 1.370 . S
C2986 C2990 1.524 . S
C2987 C2979 1.503 . S
C2987 C2986 1.370 . S
C2987 C2988 1.403 . S
C2988 C2987 1.403 . S
C2988 C2989 1.404 . S
C2988 C2991 1.539 . S
C2989 C2985 1.408 . S
C2989 C2988 1.404 . S
C2989 H3001 0.930 . S
C2990 C2986 1.524 . S
C2990 H3002 0.956 . S
C2990 H3003 0.961 . S
C2990 H3004 0.961 . S
C2991 C2988 1.539 . S
C2991 H3005 0.958 . S
C2991 H3006 0.961 . S
C2991 H3007 0.960 . S
H2992 C2976 0.931 . S
H2993 C2981 0.929 . S
H2994 C2982 0.960 . S
H2995 C2982 0.962 . S
H2996 C2982 0.960 . S
H2997 C2983 0.961 . S
H2998 C2983 0.961 . S
H2999 C2983 0.961 . S
H3000 C2984 0.931 . S
H3001 C2989 0.930 . S
H3002 C2990 0.956 . S
H3003 C2990 0.961 . S
H3004 C2990 0.961 . S
H3005 C2991 0.958 . S
H3006 C2991 0.961 . S
H3007 C2991 0.960 . S
C3008 C3009 1.391 . S
C3008 C3010 1.394 . S
C3008 H3024 0.931 . S
C3009 C3008 1.391 . S
C3009 C3013 1.376 . S
C3010 C3008 1.394 . S
C3010 C3011 1.369 . S
C3010 C3014 1.531 . S
C3011 C3010 1.369 . S
C3011 C3012 1.410 . S
C3011 C3019 1.503 . S
C3012 C3011 1.410 . S
C3012 C3013 1.392 . S
C3012 C3015 1.511 . S
C3013 C3009 1.376 . S
C3013 C3012 1.392 . S
C3013 H3025 0.929 . S
C3014 C3010 1.531 . S
C3014 H3026 0.960 . S
C3014 H3027 0.962 . S
C3014 H3028 0.960 . S
C3015 C3012 1.511 . S
C3015 H3029 0.961 . S
C3015 H3030 0.961 . S
C3015 H3031 0.961 . S
C3016 C3017 1.370 . S
C3016 C3018 1.363 . S
C3016 H3032 0.931 . S
C3017 C3016 1.370 . S
C3017 C3021 1.408 . S
C3018 C3016 1.363 . S
C3018 C3019 1.370 . S
C3018 C3022 1.524 . S
C3019 C3011 1.503 . S
C3019 C3018 1.370 . S
C3019 C3020 1.403 . S
C3020 C3019 1.403 . S
C3020 C3021 1.404 . S
C3020 C3023 1.539 . S
C3021 C3017 1.408 . S
C3021 C3020 1.404 . S
C3021 H3033 0.930 . S
C3022 C3018 1.524 . S
C3022 H3034 0.956 . S
C3022 H3035 0.961 . S
C3022 H3036 0.961 . S
C3023 C3020 1.539 . S
C3023 H3037 0.958 . S
C3023 H3038 0.961 . S
C3023 H3039 0.960 . S
H3024 C3008 0.931 . S
H3025 C3013 0.929 . S
H3026 C3014 0.960 . S
H3027 C3014 0.962 . S
H3028 C3014 0.960 . S
H3029 C3015 0.961 . S
H3030 C3015 0.961 . S
H3031 C3015 0.961 . S
H3032 C3016 0.931 . S
H3033 C3021 0.930 . S
H3034 C3022 0.956 . S
H3035 C3022 0.961 . S
H3036 C3022 0.961 . S
H3037 C3023 0.958 . S
H3038 C3023 0.961 . S
H3039 C3023 0.960 . S
C3040 C3041 1.391 . S
C3040 C3042 1.394 . S
C3040 H3056 0.931 . S
C3041 C3040 1.391 . S
C3041 C3045 1.376 . S
C3042 C3040 1.394 . S
C3042 C3043 1.369 . S
C3042 C3046 1.531 . S
C3043 C3042 1.369 . S
C3043 C3044 1.410 . S
C3043 C3051 1.503 . S
C3044 C3043 1.410 . S
C3044 C3045 1.392 . S
C3044 C3047 1.511 . S
C3045 C3041 1.376 . S
C3045 C3044 1.392 . S
C3045 H3057 0.929 . S
C3046 C3042 1.531 . S
C3046 H3058 0.960 . S
C3046 H3059 0.962 . S
C3046 H3060 0.960 . S
C3047 C3044 1.511 . S
C3047 H3061 0.961 . S
C3047 H3062 0.961 . S
C3047 H3063 0.961 . S
C3048 C3049 1.370 . S
C3048 C3050 1.363 . S
C3048 H3064 0.931 . S
C3049 C3048 1.370 . S
C3049 C3053 1.408 . S
C3050 C3048 1.363 . S
C3050 C3051 1.370 . S
C3050 C3054 1.524 . S
C3051 C3043 1.503 . S
C3051 C3050 1.370 . S
C3051 C3052 1.403 . S
C3052 C3051 1.403 . S
C3052 C3053 1.404 . S
C3052 C3055 1.539 . S
C3053 C3049 1.408 . S
C3053 C3052 1.404 . S
C3053 H3065 0.930 . S
C3054 C3050 1.524 . S
C3054 H3066 0.956 . S
C3054 H3067 0.961 . S
C3054 H3068 0.961 . S
C3055 C3052 1.539 . S
C3055 H3069 0.958 . S
C3055 H3070 0.961 . S
C3055 H3071 0.960 . S
H3056 C3040 0.931 . S
H3057 C3045 0.929 . S
H3058 C3046 0.960 . S
H3059 C3046 0.962 . S
H3060 C3046 0.960 . S
H3061 C3047 0.961 . S
H3062 C3047 0.961 . S
H3063 C3047 0.961 . S
H3064 C3048 0.931 . S
H3065 C3053 0.930 . S
H3066 C3054 0.956 . S
H3067 C3054 0.961 . S
H3068 C3054 0.961 . S
H3069 C3055 0.958 . S
H3070 C3055 0.961 . S
H3071 C3055 0.960 . S
C3072 C3073 1.391 . S
C3072 C3074 1.394 . S
C3072 H3088 0.931 . S
C3073 C3072 1.391 . S
C3073 C3077 1.376 . S
C3074 C3072 1.394 . S
C3074 C3075 1.369 . S
C3074 C3078 1.531 . S
C3075 C3074 1.369 . S
C3075 C3076 1.410 . S
C3075 C3083 1.503 . S
C3076 C3075 1.410 . S
C3076 C3077 1.392 . S
C3076 C3079 1.511 . S
C3077 C3073 1.376 . S
C3077 C3076 1.392 . S
C3077 H3089 0.929 . S
C3078 C3074 1.531 . S
C3078 H3090 0.960 . S
C3078 H3091 0.962 . S
C3078 H3092 0.960 . S
C3079 C3076 1.511 . S
C3079 H3093 0.961 . S
C3079 H3094 0.961 . S
C3079 H3095 0.961 . S
C3080 C3081 1.370 . S
C3080 C3082 1.363 . S
C3080 H3096 0.931 . S
C3081 C3080 1.370 . S
C3081 C3085 1.408 . S
C3082 C3080 1.363 . S
C3082 C3083 1.370 . S
C3082 C3086 1.524 . S
C3083 C3075 1.503 . S
C3083 C3082 1.370 . S
C3083 C3084 1.403 . S
C3084 C3083 1.403 . S
C3084 C3085 1.404 . S
C3084 C3087 1.539 . S
C3085 C3081 1.408 . S
C3085 C3084 1.404 . S
C3085 H3097 0.930 . S
C3086 C3082 1.524 . S
C3086 H3098 0.956 . S
C3086 H3099 0.961 . S
C3086 H3100 0.961 . S
C3087 C3084 1.539 . S
C3087 H3101 0.958 . S
C3087 H3102 0.961 . S
C3087 H3103 0.960 . S
H3088 C3072 0.931 . S
H3089 C3077 0.929 . S
H3090 C3078 0.960 . S
H3091 C3078 0.962 . S
H3092 C3078 0.960 . S
H3093 C3079 0.961 . S
H3094 C3079 0.961 . S
H3095 C3079 0.961 . S
H3096 C3080 0.931 . S
H3097 C3085 0.930 . S
H3098 C3086 0.956 . S
H3099 C3086 0.961 . S
H3100 C3086 0.961 . S
H3101 C3087 0.958 . S
H3102 C3087 0.961 . S
H3103 C3087 0.960 . S
C3104 C3105 1.391 . S
C3104 C3106 1.394 . S
C3104 H3120 0.931 . S
C3105 C3104 1.391 . S
C3105 C3109 1.376 . S
C3106 C3104 1.394 . S
C3106 C3107 1.369 . S
C3106 C3110 1.531 . S
C3107 C3106 1.369 . S
C3107 C3108 1.410 . S
C3107 C3115 1.503 . S
C3108 C3107 1.410 . S
C3108 C3109 1.392 . S
C3108 C3111 1.511 . S
C3109 C3105 1.376 . S
C3109 C3108 1.392 . S
C3109 H3121 0.929 . S
C3110 C3106 1.531 . S
C3110 H3122 0.960 . S
C3110 H3123 0.962 . S
C3110 H3124 0.960 . S
C3111 C3108 1.511 . S
C3111 H3125 0.961 . S
C3111 H3126 0.961 . S
C3111 H3127 0.961 . S
C3112 C3113 1.370 . S
C3112 C3114 1.363 . S
C3112 H3128 0.931 . S
C3113 C3112 1.370 . S
C3113 C3117 1.408 . S
C3114 C3112 1.363 . S
C3114 C3115 1.370 . S
C3114 C3118 1.524 . S
C3115 C3107 1.503 . S
C3115 C3114 1.370 . S
C3115 C3116 1.403 . S
C3116 C3115 1.403 . S
C3116 C3117 1.404 . S
C3116 C3119 1.539 . S
C3117 C3113 1.408 . S
C3117 C3116 1.404 . S
C3117 H3129 0.930 . S
C3118 C3114 1.524 . S
C3118 H3130 0.956 . S
C3118 H3131 0.961 . S
C3118 H3132 0.961 . S
C3119 C3116 1.539 . S
C3119 H3133 0.958 . S
C3119 H3134 0.961 . S
C3119 H3135 0.960 . S
H3120 C3104 0.931 . S
H3121 C3109 0.929 . S
H3122 C3110 0.960 . S
H3123 C3110 0.962 . S
H3124 C3110 0.960 . S
H3125 C3111 0.961 . S
H3126 C3111 0.961 . S
H3127 C3111 0.961 . S
H3128 C3112 0.931 . S
H3129 C3117 0.930 . S
H3130 C3118 0.956 . S
H3131 C3118 0.961 . S
H3132 C3118 0.961 . S
H3133 C3119 0.958 . S
H3134 C3119 0.961 . S
H3135 C3119 0.960 . S
C3136 C3137 1.391 . S
C3136 C3138 1.394 . S
C3136 H3152 0.931 . S
C3137 C3136 1.391 . S
C3137 C3141 1.376 . S
C3138 C3136 1.394 . S
C3138 C3139 1.369 . S
C3138 C3142 1.531 . S
C3139 C3138 1.369 . S
C3139 C3140 1.410 . S
C3139 C3147 1.503 . S
C3140 C3139 1.410 . S
C3140 C3141 1.392 . S
C3140 C3143 1.511 . S
C3141 C3137 1.376 . S
C3141 C3140 1.392 . S
C3141 H3153 0.929 . S
C3142 C3138 1.531 . S
C3142 H3154 0.960 . S
C3142 H3155 0.962 . S
C3142 H3156 0.960 . S
C3143 C3140 1.511 . S
C3143 H3157 0.961 . S
C3143 H3158 0.961 . S
C3143 H3159 0.961 . S
C3144 C3145 1.370 . S
C3144 C3146 1.363 . S
C3144 H3160 0.931 . S
C3145 C3144 1.370 . S
C3145 C3149 1.408 . S
C3146 C3144 1.363 . S
C3146 C3147 1.370 . S
C3146 C3150 1.524 . S
C3147 C3139 1.503 . S
C3147 C3146 1.370 . S
C3147 C3148 1.403 . S
C3148 C3147 1.403 . S
C3148 C3149 1.404 . S
C3148 C3151 1.539 . S
C3149 C3145 1.408 . S
C3149 C3148 1.404 . S
C3149 H3161 0.930 . S
C3150 C3146 1.524 . S
C3150 H3162 0.956 . S
C3150 H3163 0.961 . S
C3150 H3164 0.961 . S
C3151 C3148 1.539 . S
C3151 H3165 0.958 . S
C3151 H3166 0.961 . S
C3151 H3167 0.960 . S
H3152 C3136 0.931 . S
H3153 C3141 0.929 . S
H3154 C3142 0.960 . S
H3155 C3142 0.962 . S
H3156 C3142 0.960 . S
H3157 C3143 0.961 . S
H3158 C3143 0.961 . S
H3159 C3143 0.961 . S
H3160 C3144 0.931 . S
H3161 C3149 0.930 . S
H3162 C3150 0.956 . S
H3163 C3150 0.961 . S
H3164 C3150 0.961 . S
H3165 C3151 0.958 . S
H3166 C3151 0.961 . S
H3167 C3151 0.960 . S
C1441 C781 1.655 . S
C1449 C1089 1.647 . S
C1473 C871 1.758 . S
C1481 C1129 1.749 . S
C1505 C751 1.665 . S
C1513 C1168 1.747 . S
C1537 C691 1.554 . S
C1545 C1128 1.559 . S
C1577 C1169 1.440 . S
C1569 C571 1.442 . S
C1601 C601 1.398 . S
C1609 C1088 1.452 . S
C1641 C1099 1.635 . S
C1633 C661 1.638 . S
C1673 C1139 1.758 . S
C1665 C541 1.726 . S
C1697 C631 1.771 . S
C1705 C1178 1.754 . S
C1729 C811 1.583 . S
C1737 C1138 1.554 . S
C1761 C841 1.402 . S
C1769 C1179 1.459 . S
C1801 C1098 1.439 . S
C1793 C721 1.393 . S
C1833 C1209 1.644 . S
C1825 C61 1.657 . S
C1857 C151 1.744 . S
C1865 C1249 1.746 . S
C1889 C31 1.721 . S
C1897 C1288 1.740 . S
C1921 C1051 1.556 . S
C1929 C1248 1.561 . S
C1953 C931 1.408 . S
C1961 C1289 1.457 . S
C1985 C961 1.410 . S
C1993 C1208 1.449 . S
C2017 C1021 1.608 . S
C2025 C1219 1.650 . S
C2049 C901 1.743 . S
C2057 C1259 1.747 . S
C2089 C1298 1.752 . S
C2081 C991 1.780 . S
C2113 C91 1.586 . S
C2121 C1258 1.554 . S
C2153 C1299 1.457 . S
C2145 C121 1.400 . S
C2177 C1 1.357 . S
C2185 C1218 1.453 . S
C2217 C1329 1.636 . S
C2209 C421 1.690 . S
C2241 C511 1.750 . S
C2249 C1369 1.757 . S
C2281 C1408 1.739 . S
C2273 C391 1.719 . S
C2313 C1368 1.568 . S
C2305 C331 1.506 . S
C2345 C1409 1.440 . S
C2337 C211 1.443 . S
C2369 C241 1.396 . S
C2377 C1328 1.457 . S
C2401 C301 1.597 . S
C2409 C1339 1.653 . S
C2433 C181 1.685 . S
C2441 C1379 1.762 . S
C2473 C1418 1.754 . S
C2465 C271 1.770 . S
C2497 C451 1.579 . S
C2505 C1378 1.557 . S
C2529 C481 1.461 . S
C2537 C1419 1.441 . S
C2561 C361 1.383 . S
C2569 C1338 1.448 . S
C2593 C920 1.327 . S
C2601 C1085 1.331 . S
C2633 C1125 1.862 . S
C2625 C980 1.826 . S
C2657 C1040 1.500 . S
C2665 C1175 1.584 . S
C2689 C380 1.796 . S
C2697 C1135 1.864 . S
C2721 C440 1.568 . S
C2729 C1165 1.583 . S
C2761 C1095 1.334 . S
C2753 C500 1.331 . S
C2785 C200 1.326 . S
C2793 C1205 1.324 . S
C2817 C260 1.827 . S
C2825 C1245 1.863 . S
C2849 C320 1.490 . S
C2857 C1295 1.583 . S
C2881 C740 1.805 . S
C2889 C1255 1.857 . S
C2921 C1285 1.584 . S
C2913 C800 1.540 . S
C2945 C860 1.332 . S
C2953 C1215 1.334 . S
C2977 C560 1.296 . S
C2985 C1325 1.325 . S
C3009 C620 1.856 . S
C3017 C1365 1.862 . S
C3049 C1415 1.582 . S
C3041 C680 1.507 . S
C3073 C20 1.807 . S
C3081 C1375 1.862 . S
C3105 C80 1.527 . S
C3113 C1405 1.583 . S
C3137 C140 1.321 . S
C3145 C1335 1.333 . S
