# Generated by pormake.
# Topology anh, (6,3)-cn, num edge types: 1
# Building blocks:
#     Node 0, Type 0, BuildingBlock: BETDEL_clean_sbu_0, # of connection points: 6
#     Node 1, Type 0, BuildingBlock: BETDEL_clean_sbu_0, # of connection points: 6
#     Node 2, Type 0, BuildingBlock: BETDEL_clean_sbu_0, # of connection points: 6
#     Node 3, Type 1, BuildingBlock: PAMTOO_clean_linker_0, # of connection points: 3
#     Node 4, Type 1, BuildingBlock: PAMTOO_clean_linker_0, # of connection points: 3
#     Node 5, Type 1, BuildingBlock: PAMTOO_clean_linker_0, # of connection points: 3
#     Node 6, Type 1, BuildingBlock: PAMTOO_clean_linker_0, # of connection points: 3
#     Node 7, Type 1, BuildingBlock: PAMTOO_clean_linker_0, # of connection points: 3
#     Node 8, Type 1, BuildingBlock: PAMTOO_clean_linker_0, # of connection points: 3
#     Edge 9, Type (0, 1), BuildingBlock: ZUJKAS_clean_linker_0, # of connection points: 2
#     Edge 10, Type (0, 1), BuildingBlock: ZUJKAS_clean_linker_0, # of connection points: 2
#     Edge 11, Type (0, 1), BuildingBlock: ZUJKAS_clean_linker_0, # of connection points: 2
#     Edge 12, Type (0, 1), BuildingBlock: ZUJKAS_clean_linker_0, # of connection points: 2
#     Edge 13, Type (0, 1), BuildingBlock: ZUJKAS_clean_linker_0, # of connection points: 2
#     Edge 14, Type (0, 1), BuildingBlock: ZUJKAS_clean_linker_0, # of connection points: 2
#     Edge 15, Type (0, 1), BuildingBlock: ZUJKAS_clean_linker_0, # of connection points: 2
#     Edge 16, Type (0, 1), BuildingBlock: ZUJKAS_clean_linker_0, # of connection points: 2
#     Edge 17, Type (0, 1), BuildingBlock: ZUJKAS_clean_linker_0, # of connection points: 2
#     Edge 18, Type (0, 1), BuildingBlock: ZUJKAS_clean_linker_0, # of connection points: 2
#     Edge 19, Type (0, 1), BuildingBlock: ZUJKAS_clean_linker_0, # of connection points: 2
#     Edge 20, Type (0, 1), BuildingBlock: ZUJKAS_clean_linker_0, # of connection points: 2
#     Edge 21, Type (0, 1), BuildingBlock: ZUJKAS_clean_linker_0, # of connection points: 2
#     Edge 22, Type (0, 1), BuildingBlock: ZUJKAS_clean_linker_0, # of connection points: 2
#     Edge 23, Type (0, 1), BuildingBlock: ZUJKAS_clean_linker_0, # of connection points: 2
#     Edge 24, Type (0, 1), BuildingBlock: ZUJKAS_clean_linker_0, # of connection points: 2
#     Edge 25, Type (0, 1), BuildingBlock: ZUJKAS_clean_linker_0, # of connection points: 2
#     Edge 26, Type (0, 1), BuildingBlock: ZUJKAS_clean_linker_0, # of connection points: 2
# Relax obj value: 0.087
# Max RMSD: 0.132
# Mean RMSD: 0.100
data_MOF--net-anh--node1-BETDEL_clean_sbu_0--node2-PAMTOO_clean_linker_0--edge1-ZUJKAS_clean_linker_0
_symmetry_space_group_name_H-M    P1
_symmetry_Int_Tables_number       1
_symmetry_cell_setting            triclinic
loop_
_symmetry_equiv_pos_as_xyz
'x, y, z'
_cell_length_a     38.618683
_cell_length_b     38.639774
_cell_length_c     62.624458
_cell_angle_alpha  85.764495
_cell_angle_beta   92.025137
_cell_angle_gamma 119.99553
loop_
_atom_site_label
_atom_site_type_symbol
_atom_site_fract_x
_atom_site_fract_y
_atom_site_fract_z
_atom_type_partial_charge
Dy0 Dy 0.07923 0.51819 0.16535 0.0
C1 C 0.98318 0.58895 0.1855 0.0
C2 C 0.13105 0.49198 0.15795 0.0
Dy3 Dy 0.03046 0.56395 0.16887 0.0
O4 O 0.12572 0.50248 0.17619 0.0
O5 O 0.10793 0.49574 0.14347 0.0
O6 O 0.05612 0.48915 0.198 0.0
O7 O 0.06631 0.54724 0.19 0.0
C8 C 0.05304 0.51885 0.20424 0.0
C9 C 0.04098 0.55556 0.12755 0.0
O10 O 0.09293 0.61478 0.17305 0.0
O11 O 0.12765 0.58359 0.16255 0.0
O12 O 1.00827 0.60761 0.16975 0.0
O13 O 0.98469 0.55715 0.19237 0.0
O14 O 0.02253 0.57384 0.13325 0.0
O15 O 0.0516 0.54346 0.14427 0.0
O16 O 1.01729 0.46827 0.1587 0.0
O17 O 0.98297 0.49851 0.17089 0.0
C18 C 0.12666 0.6159 0.16788 0.0
C19 C 0.9837 0.46676 0.16449 0.0
Dy20 Dy 0.53821 0.05658 0.49419 0.0
C21 C 0.70143 0.14909 0.51968 0.0
C22 C 0.46337 1.0087 0.47864 0.0
Dy23 Dy 0.62722 0.10092 0.50342 0.0
O24 O 0.47138 0.02638 0.49643 0.0
O25 O 0.49638 0.01757 0.46909 0.0
O26 O 0.52556 0.06989 0.52629 0.0
O27 O 0.57473 0.0616 0.52257 0.0
C28 C 0.55726 0.07181 0.53519 0.0
C29 C 0.60856 0.08758 0.46202 0.0
O30 O 0.61452 0.03831 0.51228 0.0
O31 O 0.55346 1.00686 0.49496 0.0
O32 O 0.69342 0.12383 0.50517 0.0
O33 O 0.66883 0.14775 0.52543 0.0
O34 O 0.64067 0.09026 0.47077 0.0
O35 O 0.59075 0.0967 0.47502 0.0
O36 O 0.54978 0.1195 0.48733 0.0
O37 O 0.61154 0.1499 0.50411 0.0
C38 C 0.58444 1.00589 0.50433 0.0
C39 C 0.58021 0.1513 0.49563 0.0
Dy40 Dy 0.63612 0.61769 0.8295 0.0
C41 C 0.56556 0.44968 0.85966 0.0
C42 C 0.66136 0.69481 0.81479 0.0
Dy43 Dy 0.59077 0.52352 0.83986 0.0
O44 O 0.66967 0.68378 0.8334 0.0
O45 O 0.63967 0.66361 0.80391 0.0
O46 O 0.66359 0.62508 0.86219 0.0
O47 O 0.60659 0.57618 0.85722 0.0
C48 C 0.6344 0.59195 0.8706 0.0
C49 C 0.60105 0.54166 0.79719 0.0
O50 O 0.53986 0.53531 0.84372 0.0
O51 O 0.57134 0.60238 0.83057 0.0
O52 O 0.54478 0.45857 0.84583 0.0
O53 O 0.59949 0.48162 0.86319 0.0
O54 O 0.58209 0.50518 0.80559 0.0
O55 O 0.61228 0.56464 0.81221 0.0
O56 O 0.6847 0.60445 0.8223 0.0
O57 O 0.65645 0.54269 0.84178 0.0
C58 C 0.53892 0.56858 0.83749 0.0
C59 C 0.68732 0.5738 0.8317 0.0
H60 H 0.62933 0.11775 0.23493 0.0
H61 H 0.52135 1.00441 0.23021 0.0
H62 H 0.58676 0.07051 0.17318 0.0
H63 H 0.49379 0.02029 0.16595 0.0
C64 C 0.48775 1.00263 0.18158 0.0
O65 O 0.52291 1.00423 0.18866 0.0
H66 H 0.47755 0.01646 0.19301 0.0
C67 C 0.60742 0.09454 0.22521 0.0
C68 C 0.61218 0.09876 0.20285 0.0
C69 C 0.57493 0.06074 0.23526 0.0
C70 C 0.54649 0.03077 0.22268 0.0
C71 C 0.55054 0.03415 0.20035 0.0
C72 C 0.58363 0.06802 0.19043 0.0
H73 H 0.61047 0.65889 0.56948 0.0
H74 H 0.6065 0.54725 0.56163 0.0
H75 H 0.59163 0.61279 0.50699 0.0
H76 H 0.54269 0.51776 0.50435 0.0
C77 C 0.55939 0.51229 0.51774 0.0
O78 O 0.59501 0.54759 0.52045 0.0
H79 H 0.54058 0.50304 0.53242 0.0
C80 C 0.60788 0.6363 0.55922 0.0
C81 C 0.60183 0.64068 0.53715 0.0
C82 C 0.60929 0.60272 0.56834 0.0
C83 C 0.60479 0.57305 0.55499 0.0
C84 C 0.59816 0.57634 0.53297 0.0
C85 C 0.59631 0.61005 0.52405 0.0
H86 H 0.03309 0.56379 0.90185 0.0
H87 H 0.14828 0.57273 0.8975 0.0
H88 H 0.0858 0.57726 0.84011 0.0
H89 H 0.14408 0.54334 0.83188 0.0
C90 C 0.1539 0.54735 0.84884 0.0
O91 O 0.15156 0.57934 0.85585 0.0
H92 H 0.13314 0.51912 0.85823 0.0
C93 C 0.05736 0.56683 0.89222 0.0
C94 C 0.05484 0.56999 0.86978 0.0
C95 C 0.09088 0.56801 0.90244 0.0
C96 C 0.12208 0.57155 0.88992 0.0
C97 C 0.12035 0.57477 0.86751 0.0
C98 C 0.08692 0.57449 0.85743 0.0
H99 H 1.00063 0.4926 0.43398 0.0
H100 H 0.09374 0.6164 0.43104 0.0
H101 H 0.04731 0.55366 0.4919 0.0
H102 H 0.07539 0.64516 0.4927 0.0
C103 C 0.08756 0.65083 0.47619 0.0
O104 O 0.09766 0.62229 0.47236 0.0
H105 H 0.06393 0.64945 0.46493 0.0
C106 C 1.02096 0.51951 0.4419 0.0
C107 C 1.02086 0.5188 0.46435 0.0
C108 C 0.04718 0.55442 0.42962 0.0
C109 C 0.07303 0.58912 0.44011 0.0
C110 C 0.07276 0.58874 0.46248 0.0
C111 C 0.0471 0.55359 0.4746 0.0
H112 H 0.66211 0.06354 0.74739 0.0
H113 H 0.63504 0.15028 0.76952 0.0
H114 H 0.64428 0.06604 0.81457 0.0
H115 H 0.58313 0.08568 0.82869 0.0
C116 C 0.59099 0.1107 0.81636 0.0
O117 O 0.63007 0.12554 0.80995 0.0
H118 H 0.57006 0.09896 0.80262 0.0
C119 C 0.65642 0.07708 0.76038 0.0
C120 C 0.65443 0.06103 0.78145 0.0
C121 C 0.64945 0.1092 0.75579 0.0
C122 C 0.64102 0.1258 0.7727 0.0
C123 C 0.63952 0.11035 0.79384 0.0
C124 C 0.64655 0.07831 0.79821 0.0
H125 H 0.6472 0.55725 0.10405 0.0
H126 H 0.52047 0.51241 0.0988 0.0
H127 H 0.57414 0.52289 0.16069 0.0
H128 H 0.48789 0.44866 0.15845 0.0
C129 C 0.48098 0.4601 0.14303 0.0
O130 O 0.50739 0.50061 0.13985 0.0
H131 H 0.48358 0.44335 0.13001 0.0
C132 C 0.6184 0.54658 0.11149 0.0
C133 C 0.61525 0.54235 0.13397 0.0
C134 C 0.58446 0.53572 0.09853 0.0
C135 C 0.54705 0.52043 0.10836 0.0
C136 C 0.54352 0.51535 0.13066 0.0
C137 C 0.57741 0.52636 0.14343 0.0
H138 H 0.15526 0.48052 0.11979 0.0
H139 H 0.2108 0.46813 0.11428 0.0
H140 H 0.22978 0.46508 0.18254 0.0
H141 H 0.17509 0.47791 0.18807 0.0
H142 H 0.29791 0.51979 0.15807 0.0
H143 H 0.22291 0.36751 0.12713 0.0
H144 H 0.2108 0.40327 0.1142 0.0
H145 H 0.19612 0.38574 0.1415 0.0
C146 C 0.17097 0.47654 0.13358 0.0
C147 C 0.16116 0.48033 0.15433 0.0
C148 C 0.20247 0.4693 0.13043 0.0
C149 C 0.22413 0.46545 0.14804 0.0
C150 C 0.21334 0.4679 0.16877 0.0
H151 H 0.436 0.45233 0.17772 0.0
H152 H 0.37194 0.4512 0.17771 0.0
C153 C 0.18215 0.47526 0.1719 0.0
C154 C 0.26034 0.46252 0.14507 0.0
H155 H 0.29343 0.40101 0.12976 0.0
C156 C 0.29696 0.49385 0.15184 0.0
C157 C 0.25891 0.42881 0.13675 0.0
C158 C 0.22011 0.39419 0.12958 0.0
C159 C 0.33222 0.49218 0.15083 0.0
C160 C 0.33065 0.45791 0.14319 0.0
C161 C 0.29429 0.42703 0.13579 0.0
C162 C 0.36662 0.45372 0.14318 0.0
C163 C 0.37091 0.52716 0.15792 0.0
C164 C 0.38392 0.45411 0.12379 0.0
C165 C 0.42027 0.45445 0.1238 0.0
C166 C 0.43944 0.45387 0.1432 0.0
C167 C 0.42142 0.45221 0.1626 0.0
C168 C 0.38509 0.45181 0.16259 0.0
H169 H 0.36881 0.55478 0.15817 0.0
H170 H 0.37811 0.51994 0.17437 0.0
H171 H 0.39597 0.53335 0.14722 0.0
H172 H 0.3701 0.45573 0.10868 0.0
H173 H 0.43411 0.45645 0.10866 0.0
H174 H 0.77169 0.15147 0.51243 0.0
H175 H 0.83861 0.21036 0.51326 0.0
H176 H 0.78855 0.27773 0.53752 0.0
H177 H 0.72231 0.21849 0.53782 0.0
H178 H 0.85565 0.27045 0.4877 0.0
H179 H 0.892 0.32889 0.56774 0.0
H180 H 0.85243 0.27853 0.56362 0.0
H181 H 0.84301 0.31994 0.56069 0.0
C182 C 0.77536 0.17847 0.51874 0.0
C183 C 0.74199 0.1807 0.52489 0.0
C184 C 0.81356 0.2121 0.51921 0.0
C185 C 0.81884 0.24863 0.52551 0.0
C186 C 0.7857 0.24985 0.53313 0.0
H187 H 0.94112 0.47144 0.45828 0.0
H188 H 0.89693 0.40551 0.47571 0.0
C189 C 0.74765 0.21599 0.53309 0.0
C190 C 0.85639 0.28661 0.52007 0.0
H191 H 0.9188 0.37984 0.5374 0.0
C192 C 0.87006 0.29388 0.49883 0.0
C193 C 0.87581 0.31731 0.53449 0.0
C194 C 0.86523 0.31049 0.55795 0.0
C195 C 0.90034 0.33166 0.49123 0.0
C196 C 0.91662 0.36341 0.50505 0.0
C197 C 0.90545 0.35561 0.52671 0.0
C198 C 0.94266 0.40518 0.4966 0.0
C199 C 0.91366 0.33753 0.46823 0.0
C200 C 0.98243 0.42759 0.50339 0.0
C201 C 1.0077 0.46554 0.49355 0.0
C202 C 0.99339 0.48131 0.4768 0.0
C203 C 0.953 0.45962 0.47089 0.0
C204 C 0.92782 0.42202 0.48081 0.0
H205 H 0.90829 0.30899 0.4621 0.0
H206 H 0.89627 0.34824 0.45813 0.0
H207 H 0.94592 0.36004 0.46639 0.0
H208 H 0.99426 0.41513 0.51568 0.0
H209 H 0.03877 0.48175 0.49835 0.0
H210 H 0.70526 0.76114 0.83686 0.0
H211 H 0.70915 0.82623 0.83033 0.0
H212 H 0.63878 0.78567 0.77304 0.0
H213 H 0.63455 0.72026 0.77955 0.0
H214 H 0.73489 0.8847 0.7939 0.0
H215 H 0.57291 0.81384 0.8126 0.0
H216 H 0.60146 0.7891 0.81908 0.0
H217 H 0.58512 0.79152 0.79208 0.0
C218 C 0.69122 0.76635 0.82267 0.0
C219 C 0.66929 0.73567 0.80879 0.0
C220 C 0.69349 0.8035 0.81897 0.0
C221 C 0.67369 0.81038 0.80143 0.0
C222 C 0.65376 0.7806 0.78684 0.0
H223 H 0.61975 0.99408 0.75898 0.0
H224 H 0.62706 0.93494 0.76449 0.0
C225 C 0.65156 0.74342 0.7905 0.0
C226 C 0.67156 0.84759 0.79927 0.0
H227 H 0.6061 0.88235 0.80081 0.0
C228 C 0.70682 0.88434 0.79543 0.0
C229 C 0.63489 0.84683 0.80157 0.0
C230 C 0.59643 0.8083 0.80675 0.0
C231 C 0.70615 0.92043 0.79314 0.0
C232 C 0.66934 0.91956 0.79512 0.0
C233 C 0.63423 0.88283 0.79928 0.0
C234 C 0.66605 0.9561 0.79192 0.0
C235 C 0.74453 0.95902 0.78802 0.0
C236 C 0.68519 0.9874 0.80572 0.0
C237 C 0.68127 0.02152 0.80252 0.0
C238 C 0.65813 0.02472 0.78547 0.0
C239 C 0.63848 0.9929 0.77197 0.0
C240 C 0.64241 0.95897 0.77517 0.0
H241 H 0.76837 0.95359 0.78257 0.0
H242 H 0.73958 0.97787 0.77541 0.0
H243 H 0.7553 0.97611 0.80261 0.0
H244 H 0.70294 0.98534 0.81901 0.0
H245 H 0.69671 0.04557 0.81317 0.0
H246 H 0.92747 0.55072 0.21705 0.0
H247 H 0.86387 0.54988 0.21936 0.0
H248 H 0.90087 0.64094 0.16745 0.0
H249 H 0.9648 0.64259 0.1654 0.0
H250 H 0.85041 0.64526 0.1988 0.0
H251 H 0.78965 0.49296 0.16922 0.0
H252 H 0.81569 0.50154 0.19433 0.0
H253 H 0.84255 0.52802 0.17019 0.0
C254 C 0.92254 0.5715 0.20663 0.0
C255 C 0.95062 0.59622 0.19079 0.0
C256 C 0.88619 0.57089 0.20792 0.0
C257 C 0.8774 0.59463 0.19322 0.0
C258 C 0.90707 0.62225 0.17886 0.0
H259 H 0.68955 0.60815 0.12809 0.0
H260 H 0.75083 0.62218 0.14726 0.0
C261 C 0.94355 0.62312 0.17768 0.0
C262 C 0.83586 0.58646 0.19037 0.0
H263 H 0.74556 0.51732 0.17103 0.0
C264 C 0.82723 0.61711 0.19303 0.0
C265 C 0.80578 0.5497 0.18278 0.0
C266 C 0.81374 0.5162 0.17877 0.0
C267 C 0.78942 0.61225 0.18781 0.0
C268 C 0.75996 0.57611 0.17937 0.0
C269 C 0.76814 0.54493 0.1776 0.0
C270 C 0.72199 0.57104 0.17012 0.0
C271 C 0.7816 0.646 0.19112 0.0
C272 C 0.68536 0.53746 0.17648 0.0
C273 C 0.65035 0.52887 0.16523 0.0
C274 C 0.65141 0.55364 0.14735 0.0
C275 C 0.68785 0.58818 0.1416 0.0
C276 C 0.72282 0.59664 0.1528 0.0
H277 H 0.80052 0.66449 0.20418 0.0
H278 H 0.78918 0.66577 0.17622 0.0
H279 H 0.74971 0.63457 0.19503 0.0
H280 H 0.68415 0.51706 0.18965 0.0
H281 H 0.62286 0.50186 0.16995 0.0
H282 H 0.39333 0.98755 0.49812 0.0
H283 H 0.32788 0.92956 0.49165 0.0
H284 H 0.37679 0.90228 0.43874 0.0
H285 H 0.44272 0.96029 0.44529 0.0
H286 H 0.27626 0.90329 0.45522 0.0
H287 H 0.3366 0.80294 0.48171 0.0
H288 H 0.36325 0.85578 0.48589 0.0
H289 H 0.36217 0.8389 0.4598 0.0
C290 C 0.38998 0.96961 0.48487 0.0
C291 C 0.42305 0.97804 0.47234 0.0
C292 C 0.3526 0.93657 0.48117 0.0
C293 C 0.34774 0.91138 0.46494 0.0
C294 C 0.38016 0.92113 0.45153 0.0
H295 H 0.11634 0.69915 0.43949 0.0
H296 H 0.17912 0.76327 0.4347 0.0
C297 C 0.41767 0.95429 0.45522 0.0
C298 C 0.30963 0.87329 0.46348 0.0
H299 H 0.26818 0.77231 0.47357 0.0
C300 C 0.27442 0.87456 0.45896 0.0
C301 C 0.30749 0.83601 0.46869 0.0
C302 C 0.34426 0.83305 0.47447 0.0
C303 C 0.23691 0.83945 0.45986 0.0
C304 C 0.2348 0.80228 0.46528 0.0
C305 C 0.27006 0.80095 0.46937 0.0
C306 C 0.19621 0.76457 0.46805 0.0
C307 C 0.19972 0.84246 0.45585 0.0
C308 C 0.18545 0.74401 0.48829 0.0
C309 C 0.14978 0.70763 0.49103 0.0
C310 C 0.12426 0.69138 0.47357 0.0
C311 C 0.13519 0.71176 0.45326 0.0
C312 C 0.17089 0.74823 0.45052 0.0
H313 H 0.20604 0.87387 0.45563 0.0
H314 H 0.18689 0.83062 0.44011 0.0
H315 H 0.17682 0.82419 0.46832 0.0
H316 H 0.20484 0.75602 0.50195 0.0
H317 H 0.1423 0.69193 0.50671 0.0
H318 H 0.61705 0.42739 0.87769 0.0
H319 H 0.61194 0.36206 0.87607 0.0
H320 H 0.49168 0.31362 0.85181 0.0
H321 H 0.49729 0.37956 0.85256 0.0
H322 H 0.56511 0.28369 0.88986 0.0
H323 H 0.55006 0.30499 0.80194 0.0
H324 H 0.56117 0.34368 0.81981 0.0
H325 H 0.51081 0.30288 0.81747 0.0
C326 C 0.5891 0.40256 0.87258 0.0
C327 C 0.55783 0.40862 0.86484 0.0
C328 C 0.58622 0.36521 0.87165 0.0
C329 C 0.5519 0.33334 0.86317 0.0
C330 C 0.51888 0.33817 0.85781 0.0
H331 H 0.53915 0.10251 0.84751 0.0
H332 H 0.52683 0.15398 0.86017 0.0
C333 C 0.52197 0.37572 0.85842 0.0
C334 C 0.55299 0.29732 0.85747 0.0
H335 H 0.55158 0.24713 0.81452 0.0
C336 C 0.56183 0.27541 0.87343 0.0
C337 C 0.54952 0.28713 0.83592 0.0
C338 C 0.54275 0.31106 0.81775 0.0
C339 C 0.56788 0.24396 0.86838 0.0
C340 C 0.56407 0.23365 0.84685 0.0
C341 C 0.55438 0.25502 0.83101 0.0
C342 C 0.57212 0.20239 0.84001 0.0
C343 C 0.57994 0.22328 0.88598 0.0
C344 C 0.60083 0.21222 0.82405 0.0
C345 C 0.60741 0.18283 0.81659 0.0
C346 C 0.58593 0.1431 0.82525 0.0
C347 C 0.55691 0.13317 0.84105 0.0
C348 C 0.55001 0.16255 0.84836 0.0
H349 H 0.5915 0.24132 0.90024 0.0
H350 H 0.55346 0.1942 0.89107 0.0
H351 H 0.60325 0.21727 0.88033 0.0
H352 H 0.61793 0.24268 0.81719 0.0
H353 H 0.6291 0.19116 0.80393 0.0
H354 H 0.52829 0.93257 0.49034 0.0
H355 H 0.52967 0.86967 0.49372 0.0
H356 H 0.64358 0.92897 0.52563 0.0
H357 H 0.64227 0.99173 0.5226 0.0
H358 H 0.58434 0.84974 0.47859 0.0
H359 H 0.57808 0.83314 0.56722 0.0
H360 H 0.56732 0.86816 0.55199 0.0
H361 H 0.61825 0.88041 0.55696 0.0
C362 C 0.55359 0.93227 0.49819 0.0
C363 C 0.58501 0.96737 0.50637 0.0
C364 C 0.55438 0.89621 0.50004 0.0
C365 C 0.58642 0.89424 0.51023 0.0
C366 C 0.61807 0.92935 0.51811 0.0
H367 H 0.65705 0.71786 0.54413 0.0
H368 H 0.65229 0.77804 0.53554 0.0
C369 C 0.61734 0.96539 0.51627 0.0
C370 C 0.58695 0.85567 0.51261 0.0
H371 H 0.59368 0.78998 0.54987 0.0
C372 C 0.58609 0.83649 0.49418 0.0
C373 C 0.58901 0.83811 0.53293 0.0
C374 C 0.58782 0.85575 0.55342 0.0
C375 C 0.58873 0.80124 0.49552 0.0
C376 C 0.59168 0.78422 0.51585 0.0
C377 C 0.59171 0.80301 0.53425 0.0
C378 C 0.5961 0.74778 0.51864 0.0
C379 C 0.5897 0.78329 0.47512 0.0
C380 C 0.56659 0.7105 0.51159 0.0
C381 C 0.56944 0.67582 0.51639 0.0
C382 C 0.6016 0.67771 0.52856 0.0
C383 C 0.63177 0.71532 0.53483 0.0
C384 C 0.62903 0.74979 0.52996 0.0
H385 H 0.5971 0.80498 0.461 0.0
H386 H 0.61188 0.77293 0.47622 0.0
H387 H 0.55981 0.75702 0.47241 0.0
H388 H 0.5405 0.70785 0.50316 0.0
H389 H 0.54549 0.64726 0.51157 0.0
H390 H 0.75932 0.63173 0.81372 0.0
H391 H 0.82335 0.63259 0.8149 0.0
H392 H 0.76819 0.51896 0.8515 0.0
H393 H 0.70435 0.51746 0.85012 0.0
H394 H 0.86918 0.63253 0.84917 0.0
H395 H 0.82392 0.49716 0.80545 0.0
H396 H 0.79392 0.52099 0.80555 0.0
H397 H 0.79141 0.48718 0.82763 0.0
C398 C 0.76069 0.60671 0.82185 0.0
C399 C 0.72635 0.5744 0.8317 0.0
C400 C 0.79742 0.60729 0.82254 0.0
C401 C 0.80065 0.57548 0.83294 0.0
C402 C 0.76647 0.54339 0.84286 0.0
H403 H 0.97673 0.51598 0.87896 0.0
H404 H 0.91738 0.51949 0.86735 0.0
C405 C 0.72985 0.54274 0.84217 0.0
C406 C 0.83987 0.57633 0.8343 0.0
H407 H 0.88403 0.52045 0.82625 0.0
C408 C 0.87261 0.60833 0.84384 0.0
C409 C 0.84461 0.54486 0.82731 0.0
C410 C 0.81171 0.51082 0.81571 0.0
C411 C 0.90905 0.60873 0.84752 0.0
C412 C 0.91322 0.5765 0.84126 0.0
C413 C 0.88092 0.54513 0.83112 0.0
C414 C 0.94956 0.57322 0.84663 0.0
C415 C 0.94221 0.64275 0.859 0.0
C416 C 0.98753 0.60151 0.83832 0.0
C417 C 0.02171 0.59942 0.84488 0.0
C418 C 1.01855 0.56911 0.85996 0.0
C419 C 0.98026 0.5399 0.86747 0.0
C420 C 0.94625 0.54185 0.86082 0.0
H421 H 0.93179 0.66139 0.8662 0.0
H422 H 0.95502 0.63115 0.87185 0.0
H423 H 0.96648 0.66229 0.84745 0.0
H424 H 0.99084 0.62565 0.82707 0.0
H425 H 0.05074 0.62244 0.83888 0.0
H426 H 0.13742 0.69046 0.17376 0.0
H427 H 0.20026 0.75379 0.17558 0.0
H428 H 0.2662 0.693 0.16671 0.0
H429 H 0.20346 0.62968 0.16431 0.0
H430 H 0.26109 0.77769 0.20308 0.0
H431 H 0.31847 0.78424 0.12218 0.0
H432 H 0.26778 0.7487 0.13025 0.0
H433 H 0.30789 0.73945 0.13804 0.0
C434 C 0.16523 0.69047 0.17204 0.0
C435 C 0.16511 0.65475 0.16873 0.0
C436 C 0.20128 0.72685 0.17313 0.0
C437 C 0.23826 0.72861 0.17094 0.0
C438 C 0.23825 0.6929 0.16789 0.0
H439 H 0.46511 0.93614 0.20967 0.0
H440 H 0.40655 0.86891 0.20744 0.0
C441 C 0.20219 0.65652 0.16664 0.0
C442 C 0.27658 0.7676 0.17237 0.0
H443 H 0.36343 0.83264 0.14557 0.0
C444 C 0.28343 0.78966 0.19048 0.0
C445 C 0.30575 0.78372 0.15586 0.0
C446 C 0.29953 0.76304 0.13539 0.0
C447 C 0.31835 0.82701 0.19256 0.0
C448 C 0.34802 0.84262 0.17632 0.0
C449 C 0.3411 0.82063 0.15818 0.0
C450 C 0.38534 0.8826 0.17728 0.0
C451 C 0.32242 0.84994 0.21187 0.0
C452 C 0.39413 0.91246 0.16074 0.0
C453 C 0.42795 0.9506 0.16184 0.0
C454 C 0.45421 0.95982 0.17938 0.0
C455 C 0.44584 0.92979 0.19579 0.0
C456 C 0.41204 0.89148 0.19464 0.0
H457 H 0.29305 0.83937 0.21961 0.0
H458 H 0.34195 0.84551 0.22385 0.0
H459 H 0.33609 0.8825 0.20746 0.0
H460 H 0.37419 0.90661 0.14718 0.0
H461 H 0.43311 0.97325 0.14913 0.0
H462 H 0.63305 0.21932 0.51522 0.0
H463 H 0.63014 0.28053 0.51775 0.0
H464 H 0.52327 0.23229 0.47926 0.0
H465 H 0.52533 0.17026 0.47714 0.0
H466 H 0.63393 0.33655 0.48884 0.0
H467 H 0.48647 0.26501 0.52917 0.0
H468 H 0.51308 0.2385 0.52576 0.0
H469 H 0.48463 0.24487 0.50399 0.0
C470 C 0.60884 0.22156 0.50725 0.0
C471 C 0.57926 0.18948 0.49606 0.0
C472 C 0.60725 0.25678 0.50872 0.0
C473 C 0.57607 0.26105 0.49908 0.0
C474 C 0.54707 0.22953 0.48739 0.0
H475 H 0.51769 0.45274 0.49042 0.0
H476 H 0.52326 0.39337 0.48546 0.0
C477 C 0.54846 0.19408 0.48602 0.0
C478 C 0.57429 0.29857 0.50123 0.0
H479 H 0.51446 0.33368 0.51759 0.0
C480 C 0.60781 0.33584 0.49521 0.0
C481 C 0.54037 0.298 0.50965 0.0
C482 C 0.50425 0.25951 0.51772 0.0
C483 C 0.60808 0.37215 0.49701 0.0
C484 C 0.57404 0.37147 0.50522 0.0
C485 C 0.54053 0.3343 0.51122 0.0
C486 C 0.57236 0.40889 0.50759 0.0
C487 C 0.64454 0.41098 0.48971 0.0
C488 C 0.59799 0.43755 0.52177 0.0
C489 C 0.59482 0.47162 0.52464 0.0
C490 C 0.56629 0.47806 0.51317 0.0
C491 C 0.54066 0.44924 0.49907 0.0
C492 C 0.54366 0.41513 0.49631 0.0
H493 H 0.66437 0.40604 0.47945 0.0
H494 H 0.6358 0.43125 0.48067 0.0
H495 H 0.6619 0.42627 0.50393 0.0
H496 H 0.61979 0.43306 0.53104 0.0
H497 H 0.61417 0.49257 0.53611 0.0
H498 H 0.46726 0.50876 0.85446 0.0
H499 H 0.40428 0.50903 0.85696 0.0
H500 H 0.45967 0.62848 0.82683 0.0
H501 H 0.52273 0.6285 0.82414 0.0
H502 H 0.38825 0.56257 0.87787 0.0
H503 H 0.35848 0.56706 0.79058 0.0
H504 H 0.39448 0.55388 0.80165 0.0
H505 H 0.40679 0.6054 0.79889 0.0
C506 C 0.46615 0.5351 0.84826 0.0
C507 C 0.50031 0.56854 0.83899 0.0
C508 C 0.43001 0.53521 0.84976 0.0
C509 C 0.42691 0.56855 0.84185 0.0
C510 C 0.46098 0.60209 0.83272 0.0
H511 H 0.22301 0.61083 0.83134 0.0
H512 H 0.29024 0.61866 0.83078 0.0
C513 C 0.49718 0.6021 0.8313 0.0
C514 C 0.38825 0.56838 0.84344 0.0
H515 H 0.31432 0.57242 0.81349 0.0
C516 C 0.37207 0.56468 0.86379 0.0
C517 C 0.36717 0.57146 0.8251 0.0
C518 C 0.38232 0.57435 0.80279 0.0
C519 C 0.33571 0.56424 0.8663 0.0
C520 C 0.31416 0.56651 0.84794 0.0
C521 C 0.33064 0.5707 0.8276 0.0
C522 C 0.27391 0.56317 0.84942 0.0
C523 C 0.32121 0.56215 0.88867 0.0
C524 C 0.2421 0.52945 0.86003 0.0
C525 C 0.20388 0.5252 0.86052 0.0
C526 C 0.19632 0.55443 0.8503 0.0
C527 C 0.22809 0.58819 0.83968 0.0
C528 C 0.26644 0.59252 0.83925 0.0
H529 H 0.34633 0.57373 0.90029 0.0
H530 H 0.30551 0.57952 0.88938 0.0
H531 H 0.30007 0.53045 0.89382 0.0
H532 H 0.2465 0.50575 0.86748 0.0
H533 H 0.17992 0.49845 0.86848 0.0
H534 H 0.96918 0.39403 0.15119 0.0
H535 H 0.9058 0.33026 0.15258 0.0
H536 H 0.84793 0.38699 0.18042 0.0
H537 H 0.91042 0.4506 0.17866 0.0
H538 H 0.85983 0.28469 0.1861 0.0
H539 H 0.76996 0.33105 0.13384 0.0
H540 H 0.82365 0.36123 0.13559 0.0
H541 H 0.79214 0.36331 0.15542 0.0
C542 C 0.94288 0.39307 0.15741 0.0
C543 C 0.94513 0.42781 0.16465 0.0
C544 C 0.90658 0.35647 0.15822 0.0
C545 C 0.8716 0.35372 0.1662 0.0
C546 C 0.87396 0.3883 0.17359 0.0
H547 H 0.63748 0.17654 0.2102 0.0
H548 H 0.70011 0.2363 0.19879 0.0
C549 C 0.91004 0.42481 0.1727 0.0
C550 C 0.83308 0.31458 0.16776 0.0
H551 H 0.73303 0.27098 0.15651 0.0
C552 C 0.83225 0.28154 0.17932 0.0
C553 C 0.79687 0.31013 0.15888 0.0
C554 C 0.79571 0.34321 0.14505 0.0
C555 C 0.7962 0.24511 0.18307 0.0
C556 C 0.75985 0.24128 0.17491 0.0
C557 C 0.7608 0.27386 0.16284 0.0
C558 C 0.72032 0.20487 0.18011 0.0
C559 C 0.79696 0.21149 0.19656 0.0
C560 C 0.71002 0.16726 0.17287 0.0
C561 C 0.67385 0.13289 0.17927 0.0
C562 C 0.64748 0.13548 0.19316 0.0
C563 C 0.65725 0.17345 0.19962 0.0
C564 C 0.69306 0.20769 0.1931 0.0
H565 H 0.82628 0.22136 0.20454 0.0
H566 H 0.77321 0.1991 0.20899 0.0
H567 H 0.79107 0.187 0.18622 0.0
H568 H 0.73029 0.16436 0.1626 0.0
H569 H 0.66731 0.10409 0.1741 0.0
H570 H 0.02841 0.59234 0.09221 0.0
H571 H 0.04475 0.59087 0.05509 0.0
H572 H 0.09125 0.51277 0.07507 0.0
H573 H 0.0744 0.51387 0.11244 0.0
H574 H 0.12344 0.61458 0.03873 0.0
H575 H 1.01043 0.45572 0.02586 0.0
H576 H 1.00614 0.48186 0.04746 0.0
H577 H 0.04233 0.46562 0.04896 0.0
C578 C 0.04198 0.5747 0.08872 0.0
C579 C 0.0504 0.55336 0.10522 0.0
C580 C 0.05138 0.57398 0.06751 0.0
C581 C 0.06906 0.55162 0.06232 0.0
C582 C 0.07732 0.52997 0.07873 0.0
H583 H 0.11402 0.52356 0.92916 0.0
H584 H 0.11476 0.51943 0.96852 0.0
C585 C 0.06799 0.53082 0.10006 0.0
C586 C 0.07916 0.55193 0.03967 0.0
H587 H 0.04897 0.49544 0.99613 0.0
C588 C 0.10753 0.58841 0.02946 0.0
C589 C 0.05859 0.51768 0.02768 0.0
C590 C 0.02748 0.47794 0.0379 0.0
C591 C 0.1149 0.59193 0.00741 0.0
C592 C 0.09275 0.55824 0.99517 0.0
C593 C 0.06582 0.52124 0.00555 0.0
C594 C 0.09433 0.56179 0.97143 0.0
C595 C 0.14591 0.63188 -0.00267 0.0
C596 C 0.08243 0.58678 0.96008 0.0
C597 C 0.08202 0.58921 0.93774 0.0
C598 C 0.09326 0.56648 0.92622 0.0
C599 C 0.10555 0.54169 0.93759 0.0
C600 C 0.10579 0.53915 0.96004 0.0
H601 H 0.1685 0.65025 0.00925 0.0
H602 H 0.16151 0.62808 0.98391 0.0
H603 H 0.13101 0.64868 0.99094 0.0
H604 H 0.0728 0.60399 0.96853 0.0
H605 H 0.07278 0.60888 0.92946 0.0
H606 H 0.6502 0.07604 0.43211 0.0
H607 H 0.6349 0.06632 0.39412 0.0
H608 H 0.5277 0.07247 0.40241 0.0
H609 H 0.54374 0.08367 0.44047 0.0
H610 H 0.57187 1.0078 0.37422 0.0
H611 H 0.58064 0.15427 0.35289 0.0
H612 H 0.59754 0.14329 0.37836 0.0
H613 H 0.54505 0.12374 0.37348 0.0
C614 C 0.62344 0.0755 0.42583 0.0
C615 C 0.59829 0.08087 0.43919 0.0
C616 C 0.61465 0.0698 0.40413 0.0
C617 C 0.58045 0.06921 0.39531 0.0
C618 C 0.55473 0.07371 0.40873 0.0
H619 H 0.50917 0.04181 0.25934 0.0
H620 H 0.50508 0.03981 0.29858 0.0
C621 C 0.56374 0.0798 0.43049 0.0
C622 C 0.5723 0.06393 0.37204 0.0
H623 H 0.56478 0.11081 0.32508 0.0
C624 C 0.57002 0.03021 0.36352 0.0
C625 C 0.56985 0.09317 0.35805 0.0
C626 C 0.57372 0.13084 0.36606 0.0
C627 C 0.56638 0.02545 0.3414 0.0
C628 C 0.56497 0.05512 0.32745 0.0
C629 C 0.56571 0.08807 0.33593 0.0
C630 C 0.56637 0.05426 0.30391 0.0
C631 C 0.56484 0.98913 0.33297 0.0
C632 C 0.60214 0.06303 0.29406 0.0
C633 C 0.60464 0.06449 0.2718 0.0
C634 C 0.57131 0.05699 0.25895 0.0
C635 C 0.53521 0.04742 0.26888 0.0
C636 C 0.53287 0.04643 0.29122 0.0
H637 H 0.5584 0.96534 0.34586 0.0
H638 H 0.54168 0.97667 0.32034 0.0
H639 H 0.59415 0.99801 0.32568 0.0
H640 H 0.62837 0.06939 0.30362 0.0
H641 H 0.63273 0.07163 0.26459 0.0
H642 H 0.64555 0.61618 0.77656 0.0
H643 H 0.65105 0.63257 0.73758 0.0
H644 H 0.57226 0.50786 0.72693 0.0
H645 H 0.56652 0.49152 0.76549 0.0
H646 H 0.67643 0.59793 0.70492 0.0
H647 H 0.52105 0.56824 0.69331 0.0
H648 H 0.54554 0.57784 0.71907 0.0
H649 H 0.52493 0.52922 0.70872 0.0
C650 C 0.62922 0.59247 0.76584 0.0
C651 C 0.60525 0.5527 0.77399 0.0
C652 C 0.63252 0.60177 0.74365 0.0
C653 C 0.61157 0.57145 0.72944 0.0
C654 C 0.58812 0.53176 0.73763 0.0
H655 H 0.56968 0.5354 0.59523 0.0
H656 H 0.57389 0.52994 0.6343 0.0
C657 C 0.585 0.52248 0.75967 0.0
C658 C 0.61414 0.58051 0.70596 0.0
H659 H 0.55639 0.57229 0.66197 0.0
C660 C 0.65041 0.5929 0.69548 0.0
C661 C 0.58005 0.57373 0.69376 0.0
C662 C 0.54074 0.56186 0.70426 0.0
C663 C 0.65303 0.59707 0.673 0.0
C664 C 0.6186 0.58924 0.66079 0.0
C665 C 0.58266 0.57792 0.67135 0.0
C666 C 0.61882 0.59212 0.63703 0.0
C667 C 0.69217 0.60833 0.66251 0.0
C668 C 0.64294 0.62879 0.62557 0.0
C669 C 0.64083 0.63191 0.60323 0.0
C670 C 0.61427 0.59849 0.5919 0.0
C671 C 0.59077 0.56159 0.60341 0.0
C672 C 0.59293 0.5585 0.62576 0.0
H673 H 0.71252 0.60362 0.67379 0.0
H674 H 0.68716 0.59065 0.64837 0.0
H675 H 0.70737 0.64049 0.65697 0.0
H676 H 0.66267 0.65527 0.63393 0.0
H677 H 0.65964 0.66069 0.59484 0.0
H678 H 0.62199 0.07569 0.55651 0.0
H679 H 0.64137 0.09267 0.59373 0.0
H680 H 0.54103 0.111 0.60049 0.0
H681 H 0.52141 0.09388 0.56348 0.0
H682 H 0.65785 0.16443 0.61525 0.0
H683 H 0.52653 0.02467 0.6486 0.0
H684 H 0.54295 0.03083 0.62125 0.0
H685 H 0.51529 0.05395 0.62896 0.0
C686 C 0.60416 0.0834 0.56597 0.0
C687 C 0.56996 0.08304 0.55727 0.0
C688 C 0.61533 0.09324 0.58713 0.0
C689 C 0.59232 0.10262 0.59986 0.0
C690 C 0.55882 0.10331 0.59098 0.0
H691 H 0.59248 0.12347 0.73696 0.0
H692 H 0.58152 0.13065 0.69855 0.0
C693 C 0.54768 0.09354 0.56987 0.0
C694 C 0.60236 0.1102 0.62267 0.0
H695 H 0.56802 0.07137 0.67318 0.0
C696 C 0.63826 0.1442 0.62797 0.0
C697 C 0.57661 0.08376 0.63913 0.0
C698 C 0.53832 0.04606 0.63431 0.0
C699 C 0.64902 0.15258 0.64944 0.0
C700 C 0.62348 0.12582 0.66592 0.0
C701 C 0.58739 0.09208 0.66053 0.0
C702 C 0.63452 0.13014 0.68887 0.0
C703 C 0.68741 0.1901 0.65425 0.0
C704 C 0.66862 0.12882 0.69618 0.0
C705 C 0.67513 0.12512 0.71808 0.0
C706 C 0.64736 0.12213 0.7331 0.0
C707 C 0.61458 0.12605 0.7258 0.0
C708 C 0.60815 0.12988 0.70386 0.0
H709 H 0.69639 0.21323 0.64073 0.0
H710 H 0.68462 0.2029 0.66896 0.0
H711 H 0.71168 0.18278 0.65674 0.0
H712 H 0.68899 0.12821 0.68496 0.0
H713 H 0.70085 0.12253 0.72325 0.0
H714 H 0.68731 0.63099 0.90194 0.0
H715 H 0.67718 0.61692 0.94066 0.0
H716 H 0.56135 0.51427 0.93026 0.0
H717 H 0.57131 0.52817 0.8914 0.0
H718 H 0.60994 0.61356 0.96221 0.0
H719 H 0.61689 0.47314 0.97572 0.0
H720 H 0.63824 0.50698 0.95229 0.0
H721 H 0.58512 0.47464 0.95438 0.0
C722 C 0.65993 0.60509 0.9079 0.0
C723 C 0.63 0.58074 0.89374 0.0
C724 C 0.65419 0.59715 0.92999 0.0
C725 C 0.61864 0.5645 0.93825 0.0
C726 C 0.58919 0.53933 0.92415 0.0
H727 H 0.53415 0.48359 0.06952 0.0
H728 H 0.54048 0.49066 0.03048 0.0
C729 C 0.59485 0.54736 0.90201 0.0
C730 C 0.6114 0.55868 0.96159 0.0
H731 H 0.60076 0.49646 0.00554 0.0
C732 C 0.60795 0.58799 0.97173 0.0
C733 C 0.60843 0.52508 0.97381 0.0
C734 C 0.61259 0.49318 0.96361 0.0
C735 C 0.60158 0.58464 0.99386 0.0
C736 C 0.59962 0.55154 0.00623 0.0
C737 C 0.60243 0.52186 0.99602 0.0
C738 C 0.5955 0.54765 0.02983 0.0
C739 C 0.59642 0.61626 0.00373 0.0
C740 C 0.62451 0.5772 0.04238 0.0
C741 C 0.62075 0.57352 0.06464 0.0
C742 C 0.58811 0.53993 0.07482 0.0
C743 C 0.5593 0.51015 0.06218 0.0
C744 C 0.56302 0.51396 0.03989 0.0
H745 H 0.58687 0.63236 0.99166 0.0
H746 H 0.57404 0.60298 0.01688 0.0
H747 H 0.62542 0.63862 0.01046 0.0
H748 H 0.65024 0.60307 0.03496 0.0
H749 H 0.6433 0.59714 0.07386 0.0
H750 H 0.05653 0.58362 0.2212 0.0
H751 H 0.05334 0.59316 0.25926 0.0
H752 H 0.03076 0.47327 0.27562 0.0
H753 H 0.03396 0.46352 0.23771 0.0
H754 H 0.99118 0.54486 0.29247 0.0
H755 H 0.13647 0.55033 0.30747 0.0
H756 H 0.11996 0.55719 0.28096 0.0
H757 H 0.09984 0.50781 0.29381 0.0
C758 C 0.05034 0.55914 0.23292 0.0
C759 C 0.04594 0.52299 0.22661 0.0
C760 C 0.04853 0.56464 0.25459 0.0
C761 C 0.04249 0.53413 0.27016 0.0
C762 C 0.03603 0.49732 0.26379 0.0
H763 H 0.04378 0.49606 0.40613 0.0
H764 H 0.04217 0.49403 0.36724 0.0
C765 C 0.03774 0.49178 0.24217 0.0
C766 C 0.04503 0.54126 0.29316 0.0
H767 H 0.10006 0.54707 0.33797 0.0
C768 C 1.01509 0.54571 0.30245 0.0
C769 C 0.07646 0.54255 0.30599 0.0
C770 C 0.11026 0.53957 0.29658 0.0
C771 C 1.01488 0.54977 0.32456 0.0
C772 C 0.04585 0.55009 0.33748 0.0
C773 C 0.07631 0.54669 0.32802 0.0
C774 C 0.04628 0.5518 0.36102 0.0
C775 C 0.9808 0.55216 0.33402 0.0
C776 C 0.04961 0.58522 0.3704 0.0
C777 C 0.05022 0.58634 0.3927 0.0
C778 C 0.04766 0.5541 0.40594 0.0
C779 C 0.04504 0.52103 0.39641 0.0
C780 C 0.04437 0.51993 0.37419 0.0
H781 H 0.95522 0.54287 0.32277 0.0
H782 H 0.97011 0.53298 0.34913 0.0
H783 H 0.99135 0.58351 0.33778 0.0
H784 H 0.05189 0.61046 0.36049 0.0
H785 H 0.05213 0.61216 0.39956 0.0
loop_
_geom_bond_atom_site_label_1
_geom_bond_atom_site_label_2
_geom_bond_distance
_geom_bond_site_symmetry_2
_ccdc_geom_bond_type
Dy0 O4 2.398 . S
Dy0 O5 2.491 . S
Dy0 O6 2.403 . S
Dy0 O7 2.664 1_455 S
Dy0 O11 2.326 . S
Dy0 O15 2.310 . S
Dy0 O16 2.351 1_455 S
C1 O12 1.185 . S
C1 O13 1.355 . S
C2 O4 1.185 . S
C2 O5 1.355 . S
Dy3 O7 2.310 . S
Dy3 O10 2.351 1_655 S
Dy3 O12 2.398 . S
Dy3 O13 2.491 . S
Dy3 O14 2.403 . S
Dy3 O15 2.664 1_655 S
Dy3 O17 2.326 . S
O4 Dy0 2.398 . S
O4 C2 1.185 . S
O5 Dy0 2.491 . S
O5 C2 1.355 . S
O6 Dy0 2.403 . S
O6 C8 1.254 . S
O7 Dy0 2.664 1_655 S
O7 Dy3 2.310 . S
O7 C8 1.268 1_655 S
C8 O6 1.254 . S
C8 O7 1.268 1_455 S
C9 O14 1.254 1_455 S
C9 O15 1.268 . S
O10 Dy3 2.351 1_455 S
O10 C18 1.249 . S
O11 Dy0 2.326 . S
O11 C18 1.267 . S
O12 C1 1.185 . S
O12 Dy3 2.398 . S
O13 C1 1.355 . S
O13 Dy3 2.491 . S
O14 Dy3 2.403 . S
O14 C9 1.254 1_655 S
O15 Dy0 2.310 . S
O15 Dy3 2.664 1_455 S
O15 C9 1.268 . S
O16 Dy0 2.351 1_655 S
O16 C19 1.249 . S
O17 Dy3 2.326 . S
O17 C19 1.267 . S
C18 O10 1.249 . S
C18 O11 1.267 . S
C19 O16 1.249 . S
C19 O17 1.267 . S
Dy20 O24 2.398 1_545 S
Dy20 O25 2.491 1_545 S
Dy20 O26 2.403 . S
Dy20 O27 2.664 . S
Dy20 O31 2.326 1_545 S
Dy20 O35 2.310 . S
Dy20 O36 2.351 . S
C21 O32 1.185 . S
C21 O33 1.355 . S
C22 O24 1.185 . S
C22 O25 1.355 . S
Dy23 O27 2.310 . S
Dy23 O30 2.351 . S
Dy23 O32 2.398 . S
Dy23 O33 2.491 . S
Dy23 O34 2.403 . S
Dy23 O35 2.664 . S
Dy23 O37 2.326 . S
O24 Dy20 2.398 1_565 S
O24 C22 1.185 . S
O25 Dy20 2.491 1_565 S
O25 C22 1.355 . S
O26 Dy20 2.403 . S
O26 C28 1.254 . S
O27 Dy20 2.664 . S
O27 Dy23 2.310 . S
O27 C28 1.268 . S
C28 O26 1.254 . S
C28 O27 1.268 . S
C29 O34 1.254 . S
C29 O35 1.268 . S
O30 Dy23 2.351 . S
O30 C38 1.249 1_545 S
O31 Dy20 2.326 1_565 S
O31 C38 1.267 . S
O32 C21 1.185 . S
O32 Dy23 2.398 . S
O33 C21 1.355 . S
O33 Dy23 2.491 . S
O34 Dy23 2.403 . S
O34 C29 1.254 . S
O35 Dy20 2.310 . S
O35 Dy23 2.664 . S
O35 C29 1.268 . S
O36 Dy20 2.351 . S
O36 C39 1.249 . S
O37 Dy23 2.326 . S
O37 C39 1.267 . S
C38 O30 1.249 1_565 S
C38 O31 1.267 . S
C39 O36 1.249 . S
C39 O37 1.267 . S
Dy40 O44 2.398 . S
Dy40 O45 2.491 . S
Dy40 O46 2.403 . S
Dy40 O47 2.664 . S
Dy40 O51 2.326 . S
Dy40 O55 2.310 . S
Dy40 O56 2.351 . S
C41 O52 1.185 . S
C41 O53 1.355 . S
C42 O44 1.185 . S
C42 O45 1.355 . S
Dy43 O47 2.310 . S
Dy43 O50 2.351 . S
Dy43 O52 2.398 . S
Dy43 O53 2.491 . S
Dy43 O54 2.403 . S
Dy43 O55 2.664 . S
Dy43 O57 2.326 . S
O44 Dy40 2.398 . S
O44 C42 1.185 . S
O45 Dy40 2.491 . S
O45 C42 1.355 . S
O46 Dy40 2.403 . S
O46 C48 1.254 . S
O47 Dy40 2.664 . S
O47 Dy43 2.310 . S
O47 C48 1.268 . S
C48 O46 1.254 . S
C48 O47 1.268 . S
C49 O54 1.254 . S
C49 O55 1.268 . S
O50 Dy43 2.351 . S
O50 C58 1.249 . S
O51 Dy40 2.326 . S
O51 C58 1.267 . S
O52 C41 1.185 . S
O52 Dy43 2.398 . S
O53 C41 1.355 . S
O53 Dy43 2.491 . S
O54 Dy43 2.403 . S
O54 C49 1.254 . S
O55 Dy40 2.310 . S
O55 Dy43 2.664 . S
O55 C49 1.268 . S
O56 Dy40 2.351 . S
O56 C59 1.249 . S
O57 Dy43 2.326 . S
O57 C59 1.267 . S
C58 O50 1.249 . S
C58 O51 1.267 . S
C59 O56 1.249 . S
C59 O57 1.267 . S
H60 C67 0.929 . S
H61 C70 0.930 . S
H62 C72 0.929 . S
H63 C64 0.969 . S
C64 H63 0.969 . S
C64 O65 1.550 . S
C64 H66 0.973 . S
O65 C64 1.550 . S
O65 C71 1.412 1_565 S
H66 C64 0.973 . S
C67 H60 0.929 . S
C67 C68 1.400 . S
C67 C69 1.364 . S
C68 C67 1.400 . S
C68 C72 1.377 . S
C69 C67 1.364 . S
C69 C70 1.374 1_545 S
C70 H61 0.930 . S
C70 C69 1.374 1_565 S
C70 C71 1.383 1_565 S
C71 O65 1.412 1_545 S
C71 C70 1.383 1_545 S
C71 C72 1.394 . S
C72 H62 0.929 . S
C72 C68 1.377 . S
C72 C71 1.394 . S
H73 C80 0.929 . S
H74 C83 0.930 . S
H75 C85 0.929 . S
H76 C77 0.969 . S
C77 H76 0.969 . S
C77 O78 1.550 . S
C77 H79 0.973 . S
O78 C77 1.550 . S
O78 C84 1.412 . S
H79 C77 0.973 . S
C80 H73 0.929 . S
C80 C81 1.400 . S
C80 C82 1.364 . S
C81 C80 1.400 . S
C81 C85 1.377 . S
C82 C80 1.364 . S
C82 C83 1.374 . S
C83 H74 0.930 . S
C83 C82 1.374 . S
C83 C84 1.383 . S
C84 O78 1.412 . S
C84 C83 1.383 . S
C84 C85 1.394 . S
C85 H75 0.929 . S
C85 C81 1.377 . S
C85 C84 1.394 . S
H86 C93 0.929 . S
H87 C96 0.930 . S
H88 C98 0.929 . S
H89 C90 0.969 . S
C90 H89 0.969 . S
C90 O91 1.550 . S
C90 H92 0.973 . S
O91 C90 1.550 . S
O91 C97 1.412 . S
H92 C90 0.973 . S
C93 H86 0.929 . S
C93 C94 1.400 . S
C93 C95 1.364 . S
C94 C93 1.400 . S
C94 C98 1.377 . S
C95 C93 1.364 . S
C95 C96 1.374 . S
C96 H87 0.930 . S
C96 C95 1.374 . S
C96 C97 1.383 . S
C97 O91 1.412 . S
C97 C96 1.383 . S
C97 C98 1.394 . S
C98 H88 0.929 . S
C98 C94 1.377 . S
C98 C97 1.394 . S
H99 C106 0.923 1_655 S
H100 C109 0.930 . S
H101 C111 0.929 . S
H102 C103 0.969 . S
C103 H102 0.969 . S
C103 O104 1.550 . S
C103 H105 0.973 . S
O104 C103 1.550 . S
O104 C110 1.412 . S
H105 C103 0.973 . S
C106 H99 0.923 1_455 S
C106 C107 1.399 1_455 S
C106 C108 1.371 . S
C107 C106 1.399 1_655 S
C107 C111 1.377 1_655 S
C108 C106 1.371 . S
C108 C109 1.374 . S
C109 H100 0.930 . S
C109 C108 1.374 . S
C109 C110 1.383 . S
C110 O104 1.412 . S
C110 C109 1.383 . S
C110 C111 1.394 . S
C111 H101 0.929 . S
C111 C107 1.377 1_455 S
C111 C110 1.394 . S
H112 C119 0.929 . S
H113 C122 0.930 . S
H114 C124 0.929 . S
H115 C116 0.969 . S
C116 H115 0.969 . S
C116 O117 1.550 . S
C116 H118 0.973 . S
O117 C116 1.550 . S
O117 C123 1.412 . S
H118 C116 0.973 . S
C119 H112 0.929 . S
C119 C120 1.400 . S
C119 C121 1.364 . S
C120 C119 1.400 . S
C120 C124 1.377 . S
C121 C119 1.364 . S
C121 C122 1.374 . S
C122 H113 0.930 . S
C122 C121 1.374 . S
C122 C123 1.383 . S
C123 O117 1.412 . S
C123 C122 1.383 . S
C123 C124 1.394 . S
C124 H114 0.929 . S
C124 C120 1.377 . S
C124 C123 1.394 . S
H125 C132 0.929 . S
H126 C135 0.930 . S
H127 C137 0.929 . S
H128 C129 0.969 . S
C129 H128 0.969 . S
C129 O130 1.550 . S
C129 H131 0.973 . S
O130 C129 1.550 . S
O130 C136 1.412 . S
H131 C129 0.973 . S
C132 H125 0.929 . S
C132 C133 1.400 . S
C132 C134 1.364 . S
C133 C132 1.400 . S
C133 C137 1.377 . S
C134 C132 1.364 . S
C134 C135 1.374 . S
C135 H126 0.930 . S
C135 C134 1.374 . S
C135 C136 1.383 . S
C136 O130 1.412 . S
C136 C135 1.383 . S
C136 C137 1.394 . S
C137 H127 0.929 . S
C137 C133 1.377 . S
C137 C136 1.394 . S
H138 C146 0.929 . S
H139 C148 0.930 . S
H140 C150 0.930 . S
H141 C153 0.929 . S
H142 C156 0.930 . S
H143 C158 0.960 . S
H144 C158 0.960 . S
H145 C158 0.960 . S
C146 H138 0.929 . S
C146 C147 1.377 . S
C146 C148 1.384 . S
C147 C146 1.377 . S
C147 C153 1.390 . S
C148 H139 0.930 . S
C148 C146 1.384 . S
C148 C149 1.372 . S
C149 C148 1.372 . S
C149 C150 1.400 . S
C149 C154 1.490 . S
C150 H140 0.930 . S
C150 C149 1.400 . S
C150 C153 1.386 . S
H151 C167 0.930 . S
H152 C168 0.931 . S
C153 H141 0.929 . S
C153 C147 1.390 . S
C153 C150 1.386 . S
C154 C149 1.490 . S
C154 C156 1.395 . S
C154 C157 1.403 . S
H155 C161 0.930 . S
C156 H142 0.930 . S
C156 C154 1.395 . S
C156 C159 1.403 . S
C157 C154 1.403 . S
C157 C158 1.524 . S
C157 C161 1.400 . S
C158 H143 0.960 . S
C158 H144 0.960 . S
C158 H145 0.960 . S
C158 C157 1.524 . S
C159 C156 1.403 . S
C159 C160 1.392 . S
C159 C163 1.495 . S
C160 C159 1.392 . S
C160 C161 1.385 . S
C160 C162 1.478 . S
C161 H155 0.930 . S
C161 C157 1.400 . S
C161 C160 1.385 . S
C162 C160 1.478 . S
C162 C164 1.381 . S
C162 C168 1.383 . S
C163 C159 1.495 . S
C163 H169 0.959 . S
C163 H170 0.961 . S
C163 H171 0.960 . S
C164 C162 1.381 . S
C164 C165 1.394 . S
C164 H172 0.930 . S
C165 C164 1.394 . S
C165 C166 1.383 . S
C165 H173 0.929 . S
C166 C165 1.383 . S
C166 C167 1.377 . S
C167 H151 0.930 . S
C167 C166 1.377 . S
C167 C168 1.379 . S
C168 H152 0.931 . S
C168 C162 1.383 . S
C168 C167 1.379 . S
H169 C163 0.959 . S
H170 C163 0.961 . S
H171 C163 0.960 . S
H172 C164 0.930 . S
H173 C165 0.929 . S
H174 C182 0.929 . S
H175 C184 0.930 . S
H176 C186 0.930 . S
H177 C189 0.929 . S
H178 C192 0.930 . S
H179 C194 0.960 . S
H180 C194 0.960 . S
H181 C194 0.960 . S
C182 H174 0.929 . S
C182 C183 1.377 . S
C182 C184 1.384 . S
C183 C182 1.377 . S
C183 C189 1.390 . S
C184 H175 0.930 . S
C184 C182 1.384 . S
C184 C185 1.372 . S
C185 C184 1.372 . S
C185 C186 1.400 . S
C185 C190 1.490 . S
C186 H176 0.930 . S
C186 C185 1.400 . S
C186 C189 1.386 . S
H187 C203 0.930 . S
H188 C204 0.931 . S
C189 H177 0.929 . S
C189 C183 1.390 . S
C189 C186 1.386 . S
C190 C185 1.490 . S
C190 C192 1.395 . S
C190 C193 1.403 . S
H191 C197 0.930 . S
C192 H178 0.930 . S
C192 C190 1.395 . S
C192 C195 1.403 . S
C193 C190 1.403 . S
C193 C194 1.524 . S
C193 C197 1.400 . S
C194 H179 0.960 . S
C194 H180 0.960 . S
C194 H181 0.960 . S
C194 C193 1.524 . S
C195 C192 1.403 . S
C195 C196 1.392 . S
C195 C199 1.495 . S
C196 C195 1.392 . S
C196 C197 1.385 . S
C196 C198 1.478 . S
C197 H191 0.930 . S
C197 C193 1.400 . S
C197 C196 1.385 . S
C198 C196 1.478 . S
C198 C200 1.381 . S
C198 C204 1.383 . S
C199 C195 1.495 . S
C199 H205 0.959 . S
C199 H206 0.961 . S
C199 H207 0.960 . S
C200 C198 1.381 . S
C200 C201 1.394 . S
C200 H208 0.930 . S
C201 C200 1.394 . S
C201 C202 1.383 . S
C201 H209 0.929 1_655 S
C202 C201 1.383 . S
C202 C203 1.377 . S
C203 H187 0.930 . S
C203 C202 1.377 . S
C203 C204 1.379 . S
C204 H188 0.931 . S
C204 C198 1.383 . S
C204 C203 1.379 . S
H205 C199 0.959 . S
H206 C199 0.961 . S
H207 C199 0.960 . S
H208 C200 0.930 . S
H209 C201 0.929 1_455 S
H210 C218 0.929 . S
H211 C220 0.930 . S
H212 C222 0.930 . S
H213 C225 0.929 . S
H214 C228 0.930 . S
H215 C230 0.960 . S
H216 C230 0.960 . S
H217 C230 0.960 . S
C218 H210 0.929 . S
C218 C219 1.377 . S
C218 C220 1.384 . S
C219 C218 1.377 . S
C219 C225 1.390 . S
C220 H211 0.930 . S
C220 C218 1.384 . S
C220 C221 1.372 . S
C221 C220 1.372 . S
C221 C222 1.400 . S
C221 C226 1.490 . S
C222 H212 0.930 . S
C222 C221 1.400 . S
C222 C225 1.386 . S
H223 C239 0.930 . S
H224 C240 0.931 . S
C225 H213 0.929 . S
C225 C219 1.390 . S
C225 C222 1.386 . S
C226 C221 1.490 . S
C226 C228 1.395 . S
C226 C229 1.403 . S
H227 C233 0.930 . S
C228 H214 0.930 . S
C228 C226 1.395 . S
C228 C231 1.403 . S
C229 C226 1.403 . S
C229 C230 1.524 . S
C229 C233 1.400 . S
C230 H215 0.960 . S
C230 H216 0.960 . S
C230 H217 0.960 . S
C230 C229 1.524 . S
C231 C228 1.403 . S
C231 C232 1.392 . S
C231 C235 1.495 . S
C232 C231 1.392 . S
C232 C233 1.385 . S
C232 C234 1.478 . S
C233 H227 0.930 . S
C233 C229 1.400 . S
C233 C232 1.385 . S
C234 C232 1.478 . S
C234 C236 1.381 . S
C234 C240 1.383 . S
C235 C231 1.495 . S
C235 H241 0.959 . S
C235 H242 0.961 . S
C235 H243 0.960 . S
C236 C234 1.381 . S
C236 C237 1.394 1_565 S
C236 H244 0.930 . S
C237 C236 1.394 1_545 S
C237 C238 1.383 . S
C237 H245 0.929 . S
C238 C237 1.383 . S
C238 C239 1.377 1_545 S
C239 H223 0.930 . S
C239 C238 1.377 1_565 S
C239 C240 1.379 . S
C240 H224 0.931 . S
C240 C234 1.383 . S
C240 C239 1.379 . S
H241 C235 0.959 . S
H242 C235 0.961 . S
H243 C235 0.960 . S
H244 C236 0.930 . S
H245 C237 0.929 . S
H246 C254 0.929 . S
H247 C256 0.930 . S
H248 C258 0.930 . S
H249 C261 0.929 . S
H250 C264 0.930 . S
H251 C266 0.960 . S
H252 C266 0.960 . S
H253 C266 0.960 . S
C254 H246 0.929 . S
C254 C255 1.377 . S
C254 C256 1.384 . S
C255 C254 1.377 . S
C255 C261 1.390 . S
C256 H247 0.930 . S
C256 C254 1.384 . S
C256 C257 1.372 . S
C257 C256 1.372 . S
C257 C258 1.400 . S
C257 C262 1.490 . S
C258 H248 0.930 . S
C258 C257 1.400 . S
C258 C261 1.386 . S
H259 C275 0.930 . S
H260 C276 0.931 . S
C261 H249 0.929 . S
C261 C255 1.390 . S
C261 C258 1.386 . S
C262 C257 1.490 . S
C262 C264 1.395 . S
C262 C265 1.403 . S
H263 C269 0.930 . S
C264 H250 0.930 . S
C264 C262 1.395 . S
C264 C267 1.403 . S
C265 C262 1.403 . S
C265 C266 1.524 . S
C265 C269 1.400 . S
C266 H251 0.960 . S
C266 H252 0.960 . S
C266 H253 0.960 . S
C266 C265 1.524 . S
C267 C264 1.403 . S
C267 C268 1.392 . S
C267 C271 1.495 . S
C268 C267 1.392 . S
C268 C269 1.385 . S
C268 C270 1.478 . S
C269 H263 0.930 . S
C269 C265 1.400 . S
C269 C268 1.385 . S
C270 C268 1.478 . S
C270 C272 1.381 . S
C270 C276 1.383 . S
C271 C267 1.495 . S
C271 H277 0.959 . S
C271 H278 0.961 . S
C271 H279 0.960 . S
C272 C270 1.381 . S
C272 C273 1.394 . S
C272 H280 0.930 . S
C273 C272 1.394 . S
C273 C274 1.383 . S
C273 H281 0.929 . S
C274 C273 1.383 . S
C274 C275 1.377 . S
C275 H259 0.930 . S
C275 C274 1.377 . S
C275 C276 1.379 . S
C276 H260 0.931 . S
C276 C270 1.383 . S
C276 C275 1.379 . S
H277 C271 0.959 . S
H278 C271 0.961 . S
H279 C271 0.960 . S
H280 C272 0.930 . S
H281 C273 0.929 . S
H282 C290 0.929 . S
H283 C292 0.930 . S
H284 C294 0.930 . S
H285 C297 0.929 . S
H286 C300 0.930 . S
H287 C302 0.960 . S
H288 C302 0.960 . S
H289 C302 0.960 . S
C290 H282 0.929 . S
C290 C291 1.377 . S
C290 C292 1.384 . S
C291 C290 1.377 . S
C291 C297 1.390 . S
C292 H283 0.930 . S
C292 C290 1.384 . S
C292 C293 1.372 . S
C293 C292 1.372 . S
C293 C294 1.400 . S
C293 C298 1.490 . S
C294 H284 0.930 . S
C294 C293 1.400 . S
C294 C297 1.386 . S
H295 C311 0.930 . S
H296 C312 0.931 . S
C297 H285 0.929 . S
C297 C291 1.390 . S
C297 C294 1.386 . S
C298 C293 1.490 . S
C298 C300 1.395 . S
C298 C301 1.403 . S
H299 C305 0.930 . S
C300 H286 0.930 . S
C300 C298 1.395 . S
C300 C303 1.403 . S
C301 C298 1.403 . S
C301 C302 1.524 . S
C301 C305 1.400 . S
C302 H287 0.960 . S
C302 H288 0.960 . S
C302 H289 0.960 . S
C302 C301 1.524 . S
C303 C300 1.403 . S
C303 C304 1.392 . S
C303 C307 1.495 . S
C304 C303 1.392 . S
C304 C305 1.385 . S
C304 C306 1.478 . S
C305 H299 0.930 . S
C305 C301 1.400 . S
C305 C304 1.385 . S
C306 C304 1.478 . S
C306 C308 1.381 . S
C306 C312 1.383 . S
C307 C303 1.495 . S
C307 H313 0.959 . S
C307 H314 0.961 . S
C307 H315 0.960 . S
C308 C306 1.381 . S
C308 C309 1.394 . S
C308 H316 0.930 . S
C309 C308 1.394 . S
C309 C310 1.383 . S
C309 H317 0.929 . S
C310 C309 1.383 . S
C310 C311 1.377 . S
C311 H295 0.930 . S
C311 C310 1.377 . S
C311 C312 1.379 . S
C312 H296 0.931 . S
C312 C306 1.383 . S
C312 C311 1.379 . S
H313 C307 0.959 . S
H314 C307 0.961 . S
H315 C307 0.960 . S
H316 C308 0.930 . S
H317 C309 0.929 . S
H318 C326 0.929 . S
H319 C328 0.930 . S
H320 C330 0.930 . S
H321 C333 0.929 . S
H322 C336 0.930 . S
H323 C338 0.960 . S
H324 C338 0.960 . S
H325 C338 0.960 . S
C326 H318 0.929 . S
C326 C327 1.377 . S
C326 C328 1.384 . S
C327 C326 1.377 . S
C327 C333 1.390 . S
C328 H319 0.930 . S
C328 C326 1.384 . S
C328 C329 1.372 . S
C329 C328 1.372 . S
C329 C330 1.400 . S
C329 C334 1.490 . S
C330 H320 0.930 . S
C330 C329 1.400 . S
C330 C333 1.386 . S
H331 C347 0.930 . S
H332 C348 0.931 . S
C333 H321 0.929 . S
C333 C327 1.390 . S
C333 C330 1.386 . S
C334 C329 1.490 . S
C334 C336 1.395 . S
C334 C337 1.403 . S
H335 C341 0.930 . S
C336 H322 0.930 . S
C336 C334 1.395 . S
C336 C339 1.403 . S
C337 C334 1.403 . S
C337 C338 1.524 . S
C337 C341 1.400 . S
C338 H323 0.960 . S
C338 H324 0.960 . S
C338 H325 0.960 . S
C338 C337 1.524 . S
C339 C336 1.403 . S
C339 C340 1.392 . S
C339 C343 1.495 . S
C340 C339 1.392 . S
C340 C341 1.385 . S
C340 C342 1.478 . S
C341 H335 0.930 . S
C341 C337 1.400 . S
C341 C340 1.385 . S
C342 C340 1.478 . S
C342 C344 1.381 . S
C342 C348 1.383 . S
C343 C339 1.495 . S
C343 H349 0.959 . S
C343 H350 0.961 . S
C343 H351 0.960 . S
C344 C342 1.381 . S
C344 C345 1.394 . S
C344 H352 0.930 . S
C345 C344 1.394 . S
C345 C346 1.383 . S
C345 H353 0.929 . S
C346 C345 1.383 . S
C346 C347 1.377 . S
C347 H331 0.930 . S
C347 C346 1.377 . S
C347 C348 1.379 . S
C348 H332 0.931 . S
C348 C342 1.383 . S
C348 C347 1.379 . S
H349 C343 0.959 . S
H350 C343 0.961 . S
H351 C343 0.960 . S
H352 C344 0.930 . S
H353 C345 0.929 . S
H354 C362 0.929 . S
H355 C364 0.930 . S
H356 C366 0.930 . S
H357 C369 0.929 . S
H358 C372 0.930 . S
H359 C374 0.960 . S
H360 C374 0.960 . S
H361 C374 0.960 . S
C362 H354 0.929 . S
C362 C363 1.377 . S
C362 C364 1.384 . S
C363 C362 1.377 . S
C363 C369 1.390 . S
C364 H355 0.930 . S
C364 C362 1.384 . S
C364 C365 1.372 . S
C365 C364 1.372 . S
C365 C366 1.400 . S
C365 C370 1.490 . S
C366 H356 0.930 . S
C366 C365 1.400 . S
C366 C369 1.386 . S
H367 C383 0.930 . S
H368 C384 0.931 . S
C369 H357 0.929 . S
C369 C363 1.390 . S
C369 C366 1.386 . S
C370 C365 1.490 . S
C370 C372 1.395 . S
C370 C373 1.403 . S
H371 C377 0.930 . S
C372 H358 0.930 . S
C372 C370 1.395 . S
C372 C375 1.403 . S
C373 C370 1.403 . S
C373 C374 1.524 . S
C373 C377 1.400 . S
C374 H359 0.960 . S
C374 H360 0.960 . S
C374 H361 0.960 . S
C374 C373 1.524 . S
C375 C372 1.403 . S
C375 C376 1.392 . S
C375 C379 1.495 . S
C376 C375 1.392 . S
C376 C377 1.385 . S
C376 C378 1.478 . S
C377 H371 0.930 . S
C377 C373 1.400 . S
C377 C376 1.385 . S
C378 C376 1.478 . S
C378 C380 1.381 . S
C378 C384 1.383 . S
C379 C375 1.495 . S
C379 H385 0.959 . S
C379 H386 0.961 . S
C379 H387 0.960 . S
C380 C378 1.381 . S
C380 C381 1.394 . S
C380 H388 0.930 . S
C381 C380 1.394 . S
C381 C382 1.383 . S
C381 H389 0.929 . S
C382 C381 1.383 . S
C382 C383 1.377 . S
C383 H367 0.930 . S
C383 C382 1.377 . S
C383 C384 1.379 . S
C384 H368 0.931 . S
C384 C378 1.383 . S
C384 C383 1.379 . S
H385 C379 0.959 . S
H386 C379 0.961 . S
H387 C379 0.960 . S
H388 C380 0.930 . S
H389 C381 0.929 . S
H390 C398 0.929 . S
H391 C400 0.930 . S
H392 C402 0.930 . S
H393 C405 0.929 . S
H394 C408 0.930 . S
H395 C410 0.960 . S
H396 C410 0.960 . S
H397 C410 0.960 . S
C398 H390 0.929 . S
C398 C399 1.377 . S
C398 C400 1.384 . S
C399 C398 1.377 . S
C399 C405 1.390 . S
C400 H391 0.930 . S
C400 C398 1.384 . S
C400 C401 1.372 . S
C401 C400 1.372 . S
C401 C402 1.400 . S
C401 C406 1.490 . S
C402 H392 0.930 . S
C402 C401 1.400 . S
C402 C405 1.386 . S
H403 C419 0.930 . S
H404 C420 0.931 . S
C405 H393 0.929 . S
C405 C399 1.390 . S
C405 C402 1.386 . S
C406 C401 1.490 . S
C406 C408 1.395 . S
C406 C409 1.403 . S
H407 C413 0.930 . S
C408 H394 0.930 . S
C408 C406 1.395 . S
C408 C411 1.403 . S
C409 C406 1.403 . S
C409 C410 1.524 . S
C409 C413 1.400 . S
C410 H395 0.960 . S
C410 H396 0.960 . S
C410 H397 0.960 . S
C410 C409 1.524 . S
C411 C408 1.403 . S
C411 C412 1.392 . S
C411 C415 1.495 . S
C412 C411 1.392 . S
C412 C413 1.385 . S
C412 C414 1.478 . S
C413 H407 0.930 . S
C413 C409 1.400 . S
C413 C412 1.385 . S
C414 C412 1.478 . S
C414 C416 1.381 . S
C414 C420 1.383 . S
C415 C411 1.495 . S
C415 H421 0.959 . S
C415 H422 0.961 . S
C415 H423 0.960 . S
C416 C414 1.381 . S
C416 C417 1.394 1_655 S
C416 H424 0.930 . S
C417 C416 1.394 1_455 S
C417 C418 1.383 . S
C417 H425 0.929 . S
C418 C417 1.383 . S
C418 C419 1.377 1_455 S
C419 H403 0.930 . S
C419 C418 1.377 1_655 S
C419 C420 1.379 . S
C420 H404 0.931 . S
C420 C414 1.383 . S
C420 C419 1.379 . S
H421 C415 0.959 . S
H422 C415 0.961 . S
H423 C415 0.960 . S
H424 C416 0.930 . S
H425 C417 0.929 . S
H426 C434 0.929 . S
H427 C436 0.930 . S
H428 C438 0.930 . S
H429 C441 0.929 . S
H430 C444 0.930 . S
H431 C446 0.960 . S
H432 C446 0.960 . S
H433 C446 0.960 . S
C434 H426 0.929 . S
C434 C435 1.377 . S
C434 C436 1.384 . S
C435 C434 1.377 . S
C435 C441 1.390 . S
C436 H427 0.930 . S
C436 C434 1.384 . S
C436 C437 1.372 . S
C437 C436 1.372 . S
C437 C438 1.400 . S
C437 C442 1.490 . S
C438 H428 0.930 . S
C438 C437 1.400 . S
C438 C441 1.386 . S
H439 C455 0.930 . S
H440 C456 0.931 . S
C441 H429 0.929 . S
C441 C435 1.390 . S
C441 C438 1.386 . S
C442 C437 1.490 . S
C442 C444 1.395 . S
C442 C445 1.403 . S
H443 C449 0.930 . S
C444 H430 0.930 . S
C444 C442 1.395 . S
C444 C447 1.403 . S
C445 C442 1.403 . S
C445 C446 1.524 . S
C445 C449 1.400 . S
C446 H431 0.960 . S
C446 H432 0.960 . S
C446 H433 0.960 . S
C446 C445 1.524 . S
C447 C444 1.403 . S
C447 C448 1.392 . S
C447 C451 1.495 . S
C448 C447 1.392 . S
C448 C449 1.385 . S
C448 C450 1.478 . S
C449 H443 0.930 . S
C449 C445 1.400 . S
C449 C448 1.385 . S
C450 C448 1.478 . S
C450 C452 1.381 . S
C450 C456 1.383 . S
C451 C447 1.495 . S
C451 H457 0.959 . S
C451 H458 0.961 . S
C451 H459 0.960 . S
C452 C450 1.381 . S
C452 C453 1.394 . S
C452 H460 0.930 . S
C453 C452 1.394 . S
C453 C454 1.383 . S
C453 H461 0.929 . S
C454 C453 1.383 . S
C454 C455 1.377 . S
C455 H439 0.930 . S
C455 C454 1.377 . S
C455 C456 1.379 . S
C456 H440 0.931 . S
C456 C450 1.383 . S
C456 C455 1.379 . S
H457 C451 0.959 . S
H458 C451 0.961 . S
H459 C451 0.960 . S
H460 C452 0.930 . S
H461 C453 0.929 . S
H462 C470 0.929 . S
H463 C472 0.930 . S
H464 C474 0.930 . S
H465 C477 0.929 . S
H466 C480 0.930 . S
H467 C482 0.960 . S
H468 C482 0.960 . S
H469 C482 0.960 . S
C470 H462 0.929 . S
C470 C471 1.377 . S
C470 C472 1.384 . S
C471 C470 1.377 . S
C471 C477 1.390 . S
C472 H463 0.930 . S
C472 C470 1.384 . S
C472 C473 1.372 . S
C473 C472 1.372 . S
C473 C474 1.400 . S
C473 C478 1.490 . S
C474 H464 0.930 . S
C474 C473 1.400 . S
C474 C477 1.386 . S
H475 C491 0.930 . S
H476 C492 0.931 . S
C477 H465 0.929 . S
C477 C471 1.390 . S
C477 C474 1.386 . S
C478 C473 1.490 . S
C478 C480 1.395 . S
C478 C481 1.403 . S
H479 C485 0.930 . S
C480 H466 0.930 . S
C480 C478 1.395 . S
C480 C483 1.403 . S
C481 C478 1.403 . S
C481 C482 1.524 . S
C481 C485 1.400 . S
C482 H467 0.960 . S
C482 H468 0.960 . S
C482 H469 0.960 . S
C482 C481 1.524 . S
C483 C480 1.403 . S
C483 C484 1.392 . S
C483 C487 1.495 . S
C484 C483 1.392 . S
C484 C485 1.385 . S
C484 C486 1.478 . S
C485 H479 0.930 . S
C485 C481 1.400 . S
C485 C484 1.385 . S
C486 C484 1.478 . S
C486 C488 1.381 . S
C486 C492 1.383 . S
C487 C483 1.495 . S
C487 H493 0.959 . S
C487 H494 0.961 . S
C487 H495 0.960 . S
C488 C486 1.381 . S
C488 C489 1.394 . S
C488 H496 0.930 . S
C489 C488 1.394 . S
C489 C490 1.383 . S
C489 H497 0.929 . S
C490 C489 1.383 . S
C490 C491 1.377 . S
C491 H475 0.930 . S
C491 C490 1.377 . S
C491 C492 1.379 . S
C492 H476 0.931 . S
C492 C486 1.383 . S
C492 C491 1.379 . S
H493 C487 0.959 . S
H494 C487 0.961 . S
H495 C487 0.960 . S
H496 C488 0.930 . S
H497 C489 0.929 . S
H498 C506 0.929 . S
H499 C508 0.930 . S
H500 C510 0.930 . S
H501 C513 0.929 . S
H502 C516 0.930 . S
H503 C518 0.960 . S
H504 C518 0.960 . S
H505 C518 0.960 . S
C506 H498 0.929 . S
C506 C507 1.377 . S
C506 C508 1.384 . S
C507 C506 1.377 . S
C507 C513 1.390 . S
C508 H499 0.930 . S
C508 C506 1.384 . S
C508 C509 1.372 . S
C509 C508 1.372 . S
C509 C510 1.400 . S
C509 C514 1.490 . S
C510 H500 0.930 . S
C510 C509 1.400 . S
C510 C513 1.386 . S
H511 C527 0.930 . S
H512 C528 0.931 . S
C513 H501 0.929 . S
C513 C507 1.390 . S
C513 C510 1.386 . S
C514 C509 1.490 . S
C514 C516 1.395 . S
C514 C517 1.403 . S
H515 C521 0.930 . S
C516 H502 0.930 . S
C516 C514 1.395 . S
C516 C519 1.403 . S
C517 C514 1.403 . S
C517 C518 1.524 . S
C517 C521 1.400 . S
C518 H503 0.960 . S
C518 H504 0.960 . S
C518 H505 0.960 . S
C518 C517 1.524 . S
C519 C516 1.403 . S
C519 C520 1.392 . S
C519 C523 1.495 . S
C520 C519 1.392 . S
C520 C521 1.385 . S
C520 C522 1.478 . S
C521 H515 0.930 . S
C521 C517 1.400 . S
C521 C520 1.385 . S
C522 C520 1.478 . S
C522 C524 1.381 . S
C522 C528 1.383 . S
C523 C519 1.495 . S
C523 H529 0.959 . S
C523 H530 0.961 . S
C523 H531 0.960 . S
C524 C522 1.381 . S
C524 C525 1.394 . S
C524 H532 0.930 . S
C525 C524 1.394 . S
C525 C526 1.383 . S
C525 H533 0.929 . S
C526 C525 1.383 . S
C526 C527 1.377 . S
C527 H511 0.930 . S
C527 C526 1.377 . S
C527 C528 1.379 . S
C528 H512 0.931 . S
C528 C522 1.383 . S
C528 C527 1.379 . S
H529 C523 0.959 . S
H530 C523 0.961 . S
H531 C523 0.960 . S
H532 C524 0.930 . S
H533 C525 0.929 . S
H534 C542 0.929 . S
H535 C544 0.930 . S
H536 C546 0.930 . S
H537 C549 0.929 . S
H538 C552 0.930 . S
H539 C554 0.960 . S
H540 C554 0.960 . S
H541 C554 0.960 . S
C542 H534 0.929 . S
C542 C543 1.377 . S
C542 C544 1.384 . S
C543 C542 1.377 . S
C543 C549 1.390 . S
C544 H535 0.930 . S
C544 C542 1.384 . S
C544 C545 1.372 . S
C545 C544 1.372 . S
C545 C546 1.400 . S
C545 C550 1.490 . S
C546 H536 0.930 . S
C546 C545 1.400 . S
C546 C549 1.386 . S
H547 C563 0.930 . S
H548 C564 0.931 . S
C549 H537 0.929 . S
C549 C543 1.390 . S
C549 C546 1.386 . S
C550 C545 1.490 . S
C550 C552 1.395 . S
C550 C553 1.403 . S
H551 C557 0.930 . S
C552 H538 0.930 . S
C552 C550 1.395 . S
C552 C555 1.403 . S
C553 C550 1.403 . S
C553 C554 1.524 . S
C553 C557 1.400 . S
C554 H539 0.960 . S
C554 H540 0.960 . S
C554 H541 0.960 . S
C554 C553 1.524 . S
C555 C552 1.403 . S
C555 C556 1.392 . S
C555 C559 1.495 . S
C556 C555 1.392 . S
C556 C557 1.385 . S
C556 C558 1.478 . S
C557 H551 0.930 . S
C557 C553 1.400 . S
C557 C556 1.385 . S
C558 C556 1.478 . S
C558 C560 1.381 . S
C558 C564 1.383 . S
C559 C555 1.495 . S
C559 H565 0.959 . S
C559 H566 0.961 . S
C559 H567 0.960 . S
C560 C558 1.381 . S
C560 C561 1.394 . S
C560 H568 0.930 . S
C561 C560 1.394 . S
C561 C562 1.383 . S
C561 H569 0.929 . S
C562 C561 1.383 . S
C562 C563 1.377 . S
C563 H547 0.930 . S
C563 C562 1.377 . S
C563 C564 1.379 . S
C564 H548 0.931 . S
C564 C558 1.383 . S
C564 C563 1.379 . S
H565 C559 0.959 . S
H566 C559 0.961 . S
H567 C559 0.960 . S
H568 C560 0.930 . S
H569 C561 0.929 . S
H570 C578 0.929 . S
H571 C580 0.930 . S
H572 C582 0.930 . S
H573 C585 0.929 . S
H574 C588 0.930 . S
H575 C590 0.960 . S
H576 C590 0.960 . S
H577 C590 0.960 . S
C578 H570 0.929 . S
C578 C579 1.377 . S
C578 C580 1.384 . S
C579 C578 1.377 . S
C579 C585 1.390 . S
C580 H571 0.930 . S
C580 C578 1.384 . S
C580 C581 1.372 . S
C581 C580 1.372 . S
C581 C582 1.400 . S
C581 C586 1.490 . S
C582 H572 0.930 . S
C582 C581 1.400 . S
C582 C585 1.386 . S
H583 C599 0.930 . S
H584 C600 0.931 . S
C585 H573 0.929 . S
C585 C579 1.390 . S
C585 C582 1.386 . S
C586 C581 1.490 . S
C586 C588 1.395 . S
C586 C589 1.403 . S
H587 C593 0.930 1_556 S
C588 H574 0.930 . S
C588 C586 1.395 . S
C588 C591 1.403 . S
C589 C586 1.403 . S
C589 C590 1.524 1_455 S
C589 C593 1.400 . S
C590 H575 0.960 . S
C590 H576 0.960 . S
C590 H577 0.960 . S
C590 C589 1.524 1_655 S
C591 C588 1.403 . S
C591 C592 1.392 1_554 S
C591 C595 1.495 1_554 S
C592 C591 1.392 1_556 S
C592 C593 1.385 1_556 S
C592 C594 1.478 . S
C593 H587 0.930 1_554 S
C593 C589 1.400 . S
C593 C592 1.385 1_554 S
C594 C592 1.478 . S
C594 C596 1.381 . S
C594 C600 1.383 . S
C595 C591 1.495 1_556 S
C595 H601 0.960 1_556 S
C595 H602 0.961 . S
C595 H603 0.959 . S
C596 C594 1.381 . S
C596 C597 1.394 . S
C596 H604 0.930 . S
C597 C596 1.394 . S
C597 C598 1.383 . S
C597 H605 0.929 . S
C598 C597 1.383 . S
C598 C599 1.377 . S
C599 H583 0.930 . S
C599 C598 1.377 . S
C599 C600 1.379 . S
C600 H584 0.931 . S
C600 C594 1.383 . S
C600 C599 1.379 . S
H601 C595 0.960 1_554 S
H602 C595 0.961 . S
H603 C595 0.959 . S
H604 C596 0.930 . S
H605 C597 0.929 . S
H606 C614 0.929 . S
H607 C616 0.930 . S
H608 C618 0.930 . S
H609 C621 0.929 . S
H610 C624 0.930 1_565 S
H611 C626 0.960 . S
H612 C626 0.960 . S
H613 C626 0.960 . S
C614 H606 0.929 . S
C614 C615 1.377 . S
C614 C616 1.384 . S
C615 C614 1.377 . S
C615 C621 1.390 . S
C616 H607 0.930 . S
C616 C614 1.384 . S
C616 C617 1.372 . S
C617 C616 1.372 . S
C617 C618 1.400 . S
C617 C622 1.490 . S
C618 H608 0.930 . S
C618 C617 1.400 . S
C618 C621 1.386 . S
H619 C635 0.930 . S
H620 C636 0.931 . S
C621 H609 0.929 . S
C621 C615 1.390 . S
C621 C618 1.386 . S
C622 C617 1.490 . S
C622 C624 1.395 . S
C622 C625 1.403 . S
H623 C629 0.930 . S
C624 H610 0.930 1_545 S
C624 C622 1.395 . S
C624 C627 1.401 1_545 S
C625 C622 1.403 . S
C625 C626 1.524 . S
C625 C629 1.400 . S
C626 H611 0.960 . S
C626 H612 0.960 . S
C626 H613 0.960 . S
C626 C625 1.524 . S
C627 C624 1.401 1_565 S
C627 C628 1.383 1_565 S
C627 C631 1.506 . S
C628 C627 1.383 1_545 S
C628 C629 1.385 . S
C628 C630 1.478 . S
C629 H623 0.930 . S
C629 C625 1.400 . S
C629 C628 1.385 . S
C630 C628 1.478 . S
C630 C632 1.381 . S
C630 C636 1.383 . S
C631 C627 1.506 . S
C631 H637 0.959 . S
C631 H638 0.961 . S
C631 H639 0.960 . S
C632 C630 1.381 . S
C632 C633 1.394 . S
C632 H640 0.930 . S
C633 C632 1.394 . S
C633 C634 1.383 . S
C633 H641 0.929 . S
C634 C633 1.383 . S
C634 C635 1.377 . S
C635 H619 0.930 . S
C635 C634 1.377 . S
C635 C636 1.379 . S
C636 H620 0.931 . S
C636 C630 1.383 . S
C636 C635 1.379 . S
H637 C631 0.959 . S
H638 C631 0.961 . S
H639 C631 0.960 . S
H640 C632 0.930 . S
H641 C633 0.929 . S
H642 C650 0.929 . S
H643 C652 0.930 . S
H644 C654 0.930 . S
H645 C657 0.929 . S
H646 C660 0.930 . S
H647 C662 0.960 . S
H648 C662 0.960 . S
H649 C662 0.960 . S
C650 H642 0.929 . S
C650 C651 1.377 . S
C650 C652 1.384 . S
C651 C650 1.377 . S
C651 C657 1.390 . S
C652 H643 0.930 . S
C652 C650 1.384 . S
C652 C653 1.372 . S
C653 C652 1.372 . S
C653 C654 1.400 . S
C653 C658 1.490 . S
C654 H644 0.930 . S
C654 C653 1.400 . S
C654 C657 1.386 . S
H655 C671 0.930 . S
H656 C672 0.931 . S
C657 H645 0.929 . S
C657 C651 1.390 . S
C657 C654 1.386 . S
C658 C653 1.490 . S
C658 C660 1.395 . S
C658 C661 1.403 . S
H659 C665 0.930 . S
C660 H646 0.930 . S
C660 C658 1.395 . S
C660 C663 1.403 . S
C661 C658 1.403 . S
C661 C662 1.524 . S
C661 C665 1.400 . S
C662 H647 0.960 . S
C662 H648 0.960 . S
C662 H649 0.960 . S
C662 C661 1.524 . S
C663 C660 1.403 . S
C663 C664 1.392 . S
C663 C667 1.495 . S
C664 C663 1.392 . S
C664 C665 1.385 . S
C664 C666 1.478 . S
C665 H659 0.930 . S
C665 C661 1.400 . S
C665 C664 1.385 . S
C666 C664 1.478 . S
C666 C668 1.381 . S
C666 C672 1.383 . S
C667 C663 1.495 . S
C667 H673 0.959 . S
C667 H674 0.961 . S
C667 H675 0.960 . S
C668 C666 1.381 . S
C668 C669 1.394 . S
C668 H676 0.930 . S
C669 C668 1.394 . S
C669 C670 1.383 . S
C669 H677 0.929 . S
C670 C669 1.383 . S
C670 C671 1.377 . S
C671 H655 0.930 . S
C671 C670 1.377 . S
C671 C672 1.379 . S
C672 H656 0.931 . S
C672 C666 1.383 . S
C672 C671 1.379 . S
H673 C667 0.959 . S
H674 C667 0.961 . S
H675 C667 0.960 . S
H676 C668 0.930 . S
H677 C669 0.929 . S
H678 C686 0.929 . S
H679 C688 0.930 . S
H680 C690 0.930 . S
H681 C693 0.929 . S
H682 C696 0.930 . S
H683 C698 0.960 . S
H684 C698 0.960 . S
H685 C698 0.960 . S
C686 H678 0.929 . S
C686 C687 1.377 . S
C686 C688 1.384 . S
C687 C686 1.377 . S
C687 C693 1.390 . S
C688 H679 0.930 . S
C688 C686 1.384 . S
C688 C689 1.372 . S
C689 C688 1.372 . S
C689 C690 1.400 . S
C689 C694 1.490 . S
C690 H680 0.930 . S
C690 C689 1.400 . S
C690 C693 1.386 . S
H691 C707 0.930 . S
H692 C708 0.931 . S
C693 H681 0.929 . S
C693 C687 1.390 . S
C693 C690 1.386 . S
C694 C689 1.490 . S
C694 C696 1.395 . S
C694 C697 1.403 . S
H695 C701 0.930 . S
C696 H682 0.930 . S
C696 C694 1.395 . S
C696 C699 1.403 . S
C697 C694 1.403 . S
C697 C698 1.524 1_545 S
C697 C701 1.400 . S
C698 H683 0.960 . S
C698 H684 0.960 . S
C698 H685 0.960 . S
C698 C697 1.524 1_565 S
C699 C696 1.403 . S
C699 C700 1.392 . S
C699 C703 1.495 . S
C700 C699 1.392 . S
C700 C701 1.385 . S
C700 C702 1.478 . S
C701 H695 0.930 . S
C701 C697 1.400 . S
C701 C700 1.385 . S
C702 C700 1.478 . S
C702 C704 1.381 . S
C702 C708 1.383 . S
C703 C699 1.495 . S
C703 H709 0.959 . S
C703 H710 0.961 . S
C703 H711 0.960 . S
C704 C702 1.381 . S
C704 C705 1.394 . S
C704 H712 0.930 . S
C705 C704 1.394 . S
C705 C706 1.383 . S
C705 H713 0.929 . S
C706 C705 1.383 . S
C706 C707 1.377 . S
C707 H691 0.930 . S
C707 C706 1.377 . S
C707 C708 1.379 . S
C708 H692 0.931 . S
C708 C702 1.383 . S
C708 C707 1.379 . S
H709 C703 0.959 . S
H710 C703 0.961 . S
H711 C703 0.960 . S
H712 C704 0.930 . S
H713 C705 0.929 . S
H714 C722 0.929 . S
H715 C724 0.930 . S
H716 C726 0.930 . S
H717 C729 0.929 . S
H718 C732 0.930 . S
H719 C734 0.960 . S
H720 C734 0.960 . S
H721 C734 0.960 . S
C722 H714 0.929 . S
C722 C723 1.377 . S
C722 C724 1.384 . S
C723 C722 1.377 . S
C723 C729 1.390 . S
C724 H715 0.930 . S
C724 C722 1.384 . S
C724 C725 1.372 . S
C725 C724 1.372 . S
C725 C726 1.400 . S
C725 C730 1.490 . S
C726 H716 0.930 . S
C726 C725 1.400 . S
C726 C729 1.386 . S
H727 C743 0.930 . S
H728 C744 0.931 . S
C729 H717 0.929 . S
C729 C723 1.390 . S
C729 C726 1.386 . S
C730 C725 1.490 . S
C730 C732 1.395 . S
C730 C733 1.403 . S
H731 C737 0.930 . S
C732 H718 0.930 . S
C732 C730 1.395 . S
C732 C735 1.403 1_556 S
C733 C730 1.403 . S
C733 C734 1.524 . S
C733 C737 1.400 1_556 S
C734 H719 0.960 . S
C734 H720 0.960 . S
C734 H721 0.960 . S
C734 C733 1.524 . S
C735 C732 1.403 1_554 S
C735 C736 1.392 . S
C735 C739 1.495 . S
C736 C735 1.392 . S
C736 C737 1.385 . S
C736 C738 1.478 . S
C737 H731 0.930 . S
C737 C733 1.400 1_554 S
C737 C736 1.385 . S
C738 C736 1.478 . S
C738 C740 1.381 . S
C738 C744 1.383 . S
C739 C735 1.495 . S
C739 H745 0.959 . S
C739 H746 0.961 . S
C739 H747 0.960 . S
C740 C738 1.381 . S
C740 C741 1.394 . S
C740 H748 0.930 . S
C741 C740 1.394 . S
C741 C742 1.383 . S
C741 H749 0.929 . S
C742 C741 1.383 . S
C742 C743 1.377 . S
C743 H727 0.930 . S
C743 C742 1.377 . S
C743 C744 1.379 . S
C744 H728 0.931 . S
C744 C738 1.383 . S
C744 C743 1.379 . S
H745 C739 0.959 . S
H746 C739 0.961 . S
H747 C739 0.960 . S
H748 C740 0.930 . S
H749 C741 0.929 . S
H750 C758 0.929 . S
H751 C760 0.930 . S
H752 C762 0.930 . S
H753 C765 0.929 1_655 S
H754 C768 0.930 . S
H755 C770 0.960 . S
H756 C770 0.960 . S
H757 C770 0.960 . S
C758 H750 0.929 . S
C758 C759 1.377 . S
C758 C760 1.384 . S
C759 C758 1.377 . S
C759 C765 1.390 . S
C760 H751 0.930 . S
C760 C758 1.384 . S
C760 C761 1.372 . S
C761 C760 1.372 . S
C761 C762 1.400 . S
C761 C766 1.490 . S
C762 H752 0.930 . S
C762 C761 1.400 . S
C762 C765 1.386 . S
H763 C779 0.930 . S
H764 C780 0.931 . S
C765 H753 0.929 1_455 S
C765 C759 1.390 . S
C765 C762 1.386 . S
C766 C761 1.490 . S
C766 C768 1.395 1_455 S
C766 C769 1.403 . S
H767 C773 0.930 . S
C768 H754 0.930 . S
C768 C766 1.395 1_655 S
C768 C771 1.403 . S
C769 C766 1.403 . S
C769 C770 1.524 . S
C769 C773 1.400 . S
C770 H755 0.960 . S
C770 H756 0.960 . S
C770 H757 0.960 . S
C770 C769 1.524 . S
C771 C768 1.403 . S
C771 C772 1.392 1_655 S
C771 C775 1.495 . S
C772 C771 1.392 1_455 S
C772 C773 1.385 . S
C772 C774 1.478 . S
C773 H767 0.930 . S
C773 C769 1.400 . S
C773 C772 1.385 . S
C774 C772 1.478 . S
C774 C776 1.381 . S
C774 C780 1.383 . S
C775 C771 1.495 . S
C775 H781 0.959 . S
C775 H782 0.961 . S
C775 H783 0.960 . S
C776 C774 1.381 . S
C776 C777 1.394 . S
C776 H784 0.930 . S
C777 C776 1.394 . S
C777 C778 1.383 . S
C777 H785 0.929 . S
C778 C777 1.383 . S
C778 C779 1.377 . S
C779 H763 0.930 . S
C779 C778 1.377 . S
C779 C780 1.379 . S
C780 H764 0.931 . S
C780 C774 1.383 . S
C780 C779 1.379 . S
H781 C775 0.959 . S
H782 C775 0.961 . S
H783 C775 0.960 . S
H784 C776 0.930 . S
H785 C777 0.929 . S
C147 C2 1.104 . S
C166 C129 1.080 . S
C183 C21 0.873 . S
C202 C107 0.843 . S
C219 C42 0.971 . S
C238 C120 0.965 . S
C255 C1 0.880 . S
C274 C133 0.894 . S
C310 C103 1.027 . S
C291 C22 1.132 . S
C346 C116 1.019 . S
C327 C41 1.017 . S
C363 C38 1.729 . S
C382 C81 1.716 . S
C399 C59 1.827 . S
C418 C94 1.792 . S
C435 C18 1.878 . S
C454 C64 1.719 . S
C490 C77 1.835 . S
C471 C39 1.995 . S
C526 C90 1.735 . S
C507 C58 1.895 . S
C543 C19 1.833 . S
C562 C68 1.802 . S
C598 C95 1.592 . S
C579 C9 1.546 . S
C615 C29 1.532 . S
C634 C69 1.568 . S
C651 C49 1.543 . S
C670 C82 1.626 . S
C706 C121 1.449 . S
C687 C28 1.407 . S
C742 C134 1.510 . S
C723 C48 1.489 . S
C759 C8 1.444 . S
C778 C108 1.475 . S
