# Generated by pormake.
# Topology pto, (3,4)-cn, num edge types: 1
# Building blocks:
#     Node 0, Type 0, BuildingBlock: CUQRIR_clean_linker_1, # of connection points: 3
#     Node 1, Type 0, BuildingBlock: CUQRIR_clean_linker_1, # of connection points: 3
#     Node 2, Type 0, BuildingBlock: CUQRIR_clean_linker_1, # of connection points: 3
#     Node 3, Type 0, BuildingBlock: CUQRIR_clean_linker_1, # of connection points: 3
#     Node 4, Type 0, BuildingBlock: CUQRIR_clean_linker_1, # of connection points: 3
#     Node 5, Type 0, BuildingBlock: CUQRIR_clean_linker_1, # of connection points: 3
#     Node 6, Type 0, BuildingBlock: CUQRIR_clean_linker_1, # of connection points: 3
#     Node 7, Type 0, BuildingBlock: CUQRIR_clean_linker_1, # of connection points: 3
#     Node 8, Type 1, BuildingBlock: NAWXER_clean_sbu_0, # of connection points: 4
#     Node 9, Type 1, BuildingBlock: NAWXER_clean_sbu_0, # of connection points: 4
#     Node 10, Type 1, BuildingBlock: NAWXER_clean_sbu_0, # of connection points: 4
#     Node 11, Type 1, BuildingBlock: NAWXER_clean_sbu_0, # of connection points: 4
#     Node 12, Type 1, BuildingBlock: NAWXER_clean_sbu_0, # of connection points: 4
#     Node 13, Type 1, BuildingBlock: NAWXER_clean_sbu_0, # of connection points: 4
#     Edge 14, Type (0, 1), BuildingBlock: UVAHIK_clean_linker_0, # of connection points: 2
#     Edge 15, Type (0, 1), BuildingBlock: UVAHIK_clean_linker_0, # of connection points: 2
#     Edge 16, Type (0, 1), BuildingBlock: UVAHIK_clean_linker_0, # of connection points: 2
#     Edge 17, Type (0, 1), BuildingBlock: UVAHIK_clean_linker_0, # of connection points: 2
#     Edge 18, Type (0, 1), BuildingBlock: UVAHIK_clean_linker_0, # of connection points: 2
#     Edge 19, Type (0, 1), BuildingBlock: UVAHIK_clean_linker_0, # of connection points: 2
#     Edge 20, Type (0, 1), BuildingBlock: UVAHIK_clean_linker_0, # of connection points: 2
#     Edge 21, Type (0, 1), BuildingBlock: UVAHIK_clean_linker_0, # of connection points: 2
#     Edge 22, Type (0, 1), BuildingBlock: UVAHIK_clean_linker_0, # of connection points: 2
#     Edge 23, Type (0, 1), BuildingBlock: UVAHIK_clean_linker_0, # of connection points: 2
#     Edge 24, Type (0, 1), BuildingBlock: UVAHIK_clean_linker_0, # of connection points: 2
#     Edge 25, Type (0, 1), BuildingBlock: UVAHIK_clean_linker_0, # of connection points: 2
#     Edge 26, Type (0, 1), BuildingBlock: UVAHIK_clean_linker_0, # of connection points: 2
#     Edge 27, Type (0, 1), BuildingBlock: UVAHIK_clean_linker_0, # of connection points: 2
#     Edge 28, Type (0, 1), BuildingBlock: UVAHIK_clean_linker_0, # of connection points: 2
#     Edge 29, Type (0, 1), BuildingBlock: UVAHIK_clean_linker_0, # of connection points: 2
#     Edge 30, Type (0, 1), BuildingBlock: UVAHIK_clean_linker_0, # of connection points: 2
#     Edge 31, Type (0, 1), BuildingBlock: UVAHIK_clean_linker_0, # of connection points: 2
#     Edge 32, Type (0, 1), BuildingBlock: UVAHIK_clean_linker_0, # of connection points: 2
#     Edge 33, Type (0, 1), BuildingBlock: UVAHIK_clean_linker_0, # of connection points: 2
#     Edge 34, Type (0, 1), BuildingBlock: UVAHIK_clean_linker_0, # of connection points: 2
#     Edge 35, Type (0, 1), BuildingBlock: UVAHIK_clean_linker_0, # of connection points: 2
#     Edge 36, Type (0, 1), BuildingBlock: UVAHIK_clean_linker_0, # of connection points: 2
#     Edge 37, Type (0, 1), BuildingBlock: UVAHIK_clean_linker_0, # of connection points: 2
# Relax obj value: 0.020
# Max RMSD: 0.157
# Mean RMSD: 0.075
data_MOF--net-pto--node1-NAWXER_clean_sbu_0--node2-CUQRIR_clean_linker_1--edge1-UVAHIK_clean_linker_0
_symmetry_space_group_name_H-M    P1
_symmetry_Int_Tables_number       1
_symmetry_cell_setting            triclinic
loop_
_symmetry_equiv_pos_as_xyz
'x, y, z'
_cell_length_a     53.107079
_cell_length_b     48.962632
_cell_length_c     45.916169
_cell_angle_alpha  78.664754
_cell_angle_beta   95.573553
_cell_angle_gamma 95.43545
loop_
_atom_site_label
_atom_site_type_symbol
_atom_site_fract_x
_atom_site_fract_y
_atom_site_fract_z
_atom_type_partial_charge
C0 C 0.27985 0.31972 0.24145 0.0
N1 N 0.30149 0.30918 0.2369 0.0
N2 N 0.27455 0.34188 0.21962 0.0
C3 C 0.26398 0.30868 0.26731 0.0
C4 C 0.29382 0.34449 0.2017 0.0
N5 N 0.31031 0.32469 0.21238 0.0
C6 C 0.29569 0.36548 0.17308 0.0
H7 H 0.26616 0.28629 0.27636 0.0
H8 H 0.24362 0.31163 0.26061 0.0
H9 H 0.27015 0.32046 0.28541 0.0
H10 H 0.28612 0.38446 0.17392 0.0
H11 H 0.28623 0.35591 0.15447 0.0
H12 H 0.31562 0.37175 0.16818 0.0
C13 C 0.28196 0.75357 0.74089 0.0
N14 N 0.30449 0.76305 0.75318 0.0
N15 N 0.27393 0.72848 0.7568 0.0
C16 C 0.26797 0.76885 0.71333 0.0
C17 C 0.29245 0.72298 0.77912 0.0
N18 N 0.3112 0.74391 0.77671 0.0
C19 C 0.29233 0.69713 0.80311 0.0
H20 H 0.25988 0.78712 0.71882 0.0
H21 H 0.25226 0.7555 0.70442 0.0
H22 H 0.28135 0.77683 0.69591 0.0
H23 H 0.30369 0.68173 0.79662 0.0
H24 H 0.27292 0.68725 0.80627 0.0
H25 H 0.30105 0.70215 0.82458 0.0
C26 C 0.85029 0.79666 0.27462 0.0
N27 N 0.84056 0.78142 0.25393 0.0
N28 N 0.83402 0.81546 0.27759 0.0
C29 C 0.87633 0.79427 0.2906 0.0
C30 C 0.81406 0.81116 0.25784 0.0
N31 N 0.81822 0.79077 0.24315 0.0
C32 C 0.78934 0.82456 0.2553 0.0
H33 H 0.87522 0.77801 0.3111 0.0
H34 H 0.88388 0.81436 0.297 0.0
H35 H 0.88964 0.78797 0.27637 0.0
H36 H 0.79013 0.84378 0.23788 0.0
H37 H 0.78585 0.83033 0.27666 0.0
H38 H 0.77313 0.81035 0.24884 0.0
C39 C 0.72774 0.26394 0.70883 0.0
N40 N 0.75019 0.26908 0.69629 0.0
N41 N 0.72537 0.28268 0.72635 0.0
C42 C 0.70897 0.23947 0.70554 0.0
C43 C 0.74726 0.29925 0.72424 0.0
N44 N 0.7624 0.29086 0.70615 0.0
C45 C 0.75465 0.32228 0.74153 0.0
H46 H 0.69245 0.2386 0.71877 0.0
H47 H 0.71858 0.21978 0.71246 0.0
H48 H 0.70187 0.24101 0.68181 0.0
H49 H 0.76402 0.31324 0.76352 0.0
H50 H 0.73781 0.33238 0.74546 0.0
H51 H 0.76814 0.33836 0.72964 0.0
C52 C 0.78816 0.68848 0.83512 0.0
N53 N 0.80372 0.70047 0.81362 0.0
N54 N 0.76847 0.70427 0.83467 0.0
C55 C 0.79138 0.66085 0.85579 0.0
C56 C 0.77249 0.72615 0.81202 0.0
N57 N 0.7938 0.72369 0.79909 0.0
C58 C 0.75593 0.75024 0.80314 0.0
H59 H 0.78015 0.6442 0.84584 0.0
H60 H 0.78417 0.66092 0.87766 0.0
H61 H 0.81137 0.65555 0.85941 0.0
H62 H 0.7637 0.76718 0.81512 0.0
H63 H 0.7362 0.74382 0.80908 0.0
H64 H 0.75554 0.75882 0.77895 0.0
C65 C 0.79779 0.23536 0.24856 0.0
N66 N 0.8183 0.24719 0.26262 0.0
N67 N 0.78527 0.25514 0.22919 0.0
C68 C 0.78988 0.20458 0.25393 0.0
C69 C 0.79892 0.27945 0.2322 0.0
N70 N 0.81887 0.27457 0.25276 0.0
C71 C 0.79307 0.30775 0.21448 0.0
H72 H 0.77941 0.19851 0.23378 0.0
H73 H 0.77726 0.1996 0.27246 0.0
H74 H 0.80652 0.19202 0.2604 0.0
H75 H 0.77238 0.30865 0.20854 0.0
H76 H 0.80285 0.31161 0.19361 0.0
H77 H 0.7998 0.32469 0.22677 0.0
C78 C 0.2415 0.23933 0.79056 0.0
N79 N 0.25637 0.22243 0.78104 0.0
N80 N 0.22245 0.24709 0.76956 0.0
C81 C 0.24696 0.25034 0.8191 0.0
C82 C 0.22644 0.23444 0.74686 0.0
N83 N 0.24724 0.21972 0.75371 0.0
C84 C 0.20914 0.23508 0.71881 0.0
H85 H 0.23642 0.23645 0.83673 0.0
H86 H 0.24068 0.27172 0.81642 0.0
H87 H 0.26748 0.2507 0.82652 0.0
H88 H 0.21623 0.25226 0.70127 0.0
H89 H 0.18954 0.2388 0.72263 0.0
H90 H 0.20881 0.21514 0.71068 0.0
C91 C 0.31024 0.75043 0.32627 0.0
N92 N 0.31424 0.73257 0.3084 0.0
N93 N 0.32746 0.77281 0.32272 0.0
C94 C 0.28849 0.74678 0.3458 0.0
C95 C 0.34206 0.76801 0.30193 0.0
N96 N 0.33381 0.74369 0.29294 0.0
C97 C 0.36363 0.78764 0.28948 0.0
H98 H 0.27032 0.74746 0.33161 0.0
H99 H 0.28963 0.76303 0.35971 0.0
H100 H 0.28841 0.72607 0.36081 0.0
H101 H 0.37227 0.80063 0.30559 0.0
H102 H 0.35626 0.80184 0.26918 0.0
H103 H 0.37849 0.77588 0.28325 0.0
C104 C 0.00964 0.4991 0.26823 0.0
C105 C 0.08131 0.56885 0.27281 0.0
O106 O 0.02236 0.50494 0.29142 0.0
Zn107 Zn 0.04449 0.53497 0.27135 0.0
O108 O 0.01479 0.51303 0.24249 0.0
Zn109 Zn 0.04114 0.54651 0.22385 0.0
O110 O 0.05984 0.52787 0.19982 0.0
O111 O 0.06658 0.51313 0.24832 0.0
O112 O 0.07182 0.56847 0.24609 0.0
O113 O 0.0709 0.55313 0.29452 0.0
O114 O 0.0193 0.56684 0.25384 0.0
O115 O 0.01916 0.5757 0.20486 0.0
C116 C 0.07107 0.51212 0.22164 0.0
C117 C 0.01114 0.58049 0.22844 0.0
C118 C 0.98483 0.46912 0.70917 0.0
C119 C 0.05464 0.53969 0.72135 0.0
O120 O 0.99235 0.46956 0.73648 0.0
Zn121 Zn 0.02005 0.49229 0.76153 0.0
O122 O 0.99529 0.48646 0.68861 0.0
Zn123 Zn 0.01954 0.50484 0.71441 0.0
O124 O 0.04383 0.47212 0.73393 0.0
O125 O 0.0408 0.46318 0.78254 0.0
O126 O 0.04374 0.53438 0.69696 0.0
O127 O 0.04746 0.5256 0.74614 0.0
O128 O 0.99984 0.50983 0.78409 0.0
O129 O 0.99551 0.5267 0.73577 0.0
C130 C 0.05019 0.45815 0.75988 0.0
C131 C 0.98985 0.52666 0.76234 0.0
C132 C 0.36233 0.0028 0.55175 0.0
C133 C 0.35502 0.0818 0.46851 0.0
O134 O 0.33955 0.00584 0.54026 0.0
Zn135 Zn 0.31933 0.03415 0.50651 0.0
O136 O 0.38025 0.02056 0.54249 0.0
Zn137 Zn 0.35938 0.04338 0.51164 0.0
O138 O 0.33811 0.06299 0.53791 0.0
O139 O 0.2976 0.05055 0.52881 0.0
O140 O 0.37505 0.07476 0.48467 0.0
O141 O 0.3337 0.06839 0.47466 0.0
O142 O 0.30426 0.00909 0.48105 0.0
O143 O 0.34617 0.01389 0.48286 0.0
C144 C 0.31486 0.06399 0.54265 0.0
C145 C 0.32493 0.00264 0.47327 0.0
C146 C 0.57909 0.74074 0.08971 0.0
C147 C 0.51009 0.73889 0.01164 0.0
O148 O 0.56989 0.71585 0.08809 0.0
Zn149 Zn 0.53991 0.69594 0.06287 0.0
O150 O 0.56868 0.76144 0.0735 0.0
Zn151 Zn 0.54308 0.74056 0.05212 0.0
O152 O 0.51624 0.72333 0.08364 0.0
O153 O 0.51666 0.67748 0.09243 0.0
O154 O 0.52192 0.76034 0.01967 0.0
O155 O 0.51503 0.71444 0.02586 0.0
O156 O 0.55948 0.67411 0.04314 0.0
O157 O 0.56625 0.71981 0.02904 0.0
C158 C 0.50774 0.69927 0.09713 0.0
C159 C 0.57105 0.69501 0.02742 0.0
C160 C 0.85049 0.97071 0.5857 0.0
C161 C 0.87194 0.05432 0.51216 0.0
O162 O 0.83117 0.97994 0.56897 0.0
Zn163 Zn 0.82304 0.0143 0.53346 0.0
O164 O 0.87212 0.984 0.58264 0.0
Zn165 Zn 0.86184 0.01292 0.54941 0.0
O166 O 0.84029 0.03892 0.56924 0.0
O167 O 0.80085 0.03526 0.54943 0.0
O168 O 0.88748 0.03994 0.53031 0.0
O169 O 0.84815 0.04691 0.51157 0.0
O170 O 0.80942 0.99625 0.5011 0.0
O171 O 0.84979 0.9896 0.51453 0.0
C172 C 0.8173 0.04571 0.56695 0.0
C173 C 0.82949 0.9853 0.49795 0.0
C174 C 0.55853 0.23546 0.03427 0.0
C175 C 0.48436 0.22354 0.96492 0.0
O176 O 0.5454 0.21286 0.03165 0.0
Zn177 Zn 0.52071 0.2291 0.00072 0.0
O178 O 0.5518 0.25866 0.01856 0.0
Zn179 Zn 0.52193 0.27296 0.98571 0.0
O180 O 0.50374 0.29553 0.00539 0.0
O181 O 0.49867 0.25058 0.02439 0.0
O182 O 0.49255 0.24923 0.96362 0.0
O183 O 0.49502 0.20465 0.98379 0.0
O184 O 0.54365 0.24576 0.96372 0.0
O185 O 0.5408 0.29144 0.95287 0.0
C186 C 0.49388 0.2758 0.02412 0.0
C187 C 0.54958 0.26973 0.94774 0.0
C188 C 0.23719 0.3622 0.18976 0.0
C189 C 0.25316 0.35858 0.21626 0.0
C190 C 0.21607 0.37789 0.18692 0.0
C191 C 0.17069 0.39827 0.23123 0.0
H192 H 0.16028 0.46227 0.16774 0.0
C193 C 0.10475 0.48001 0.24227 0.0
C194 C 0.09001 0.49322 0.2173 0.0
C195 C 0.1229 0.4623 0.23919 0.0
C196 C 0.16261 0.44414 0.18528 0.0
H197 H 0.26009 0.36881 0.26018 0.0
H198 H 0.22265 0.39538 0.25574 0.0
H199 H 0.19568 0.43358 0.16764 0.0
H200 H 0.08293 0.49819 0.16933 0.0
H201 H 0.11463 0.4665 0.16393 0.0
H202 H 0.13777 0.40829 0.24889 0.0
C203 C 0.22649 0.38619 0.23716 0.0
C204 C 0.18292 0.42783 0.18526 0.0
C205 C 0.24779 0.37097 0.23977 0.0
C206 C 0.09396 0.48829 0.18899 0.0
C207 C 0.11218 0.47025 0.18591 0.0
C208 C 0.15027 0.41422 0.23104 0.0
C209 C 0.21038 0.38969 0.21078 0.0
C210 C 0.1875 0.40524 0.20871 0.0
C211 C 0.12677 0.45694 0.21108 0.0
C212 C 0.14641 0.4379 0.2086 0.0
H213 H 0.24086 0.35253 0.1715 0.0
H214 H 0.20385 0.38021 0.16642 0.0
H215 H 0.17357 0.38062 0.24926 0.0
H216 H 0.10253 0.48354 0.26441 0.0
H217 H 0.13422 0.45314 0.25898 0.0
C218 C 0.23213 0.70659 0.77082 0.0
C219 C 0.25124 0.7113 0.75103 0.0
C220 C 0.2105 0.689 0.76591 0.0
C221 C 0.17094 0.65842 0.70868 0.0
H222 H 0.1512 0.60127 0.77544 0.0
C223 C 0.09049 0.57072 0.69748 0.0
C224 C 0.07574 0.56164 0.72186 0.0
C225 C 0.11168 0.58986 0.69951 0.0
C226 C 0.15613 0.61736 0.75663 0.0
H227 H 0.26288 0.70223 0.71039 0.0
H228 H 0.22464 0.67162 0.70127 0.0
H229 H 0.1882 0.63341 0.78183 0.0
H230 H 0.07071 0.56661 0.7668 0.0
H231 H 0.10677 0.60047 0.76993 0.0
H232 H 0.13853 0.64273 0.68359 0.0
C233 C 0.2264 0.68143 0.72064 0.0
C234 C 0.17743 0.63571 0.76032 0.0
C235 C 0.24821 0.69877 0.72582 0.0
C236 C 0.08194 0.57285 0.74777 0.0
C237 C 0.10279 0.59216 0.74964 0.0
C238 C 0.14937 0.64023 0.70504 0.0
C239 C 0.20748 0.67611 0.74086 0.0
C240 C 0.18499 0.65652 0.73647 0.0
C241 C 0.11831 0.60048 0.72583 0.0
C242 C 0.14158 0.61957 0.72907 0.0
H243 H 0.23417 0.71636 0.79023 0.0
H244 H 0.19609 0.68551 0.78168 0.0
H245 H 0.17632 0.67439 0.68994 0.0
H246 H 0.08618 0.56236 0.67725 0.0
H247 H 0.12327 0.59564 0.68078 0.0
C248 C 0.85925 0.75962 0.21773 0.0
C249 C 0.85179 0.75834 0.24649 0.0
C250 C 0.87461 0.73966 0.21227 0.0
C251 C 0.92274 0.69508 0.25323 0.0
H252 H 0.916 0.6566 0.18638 0.0
C253 C 0.98201 0.60376 0.25363 0.0
C254 C 0.99222 0.60122 0.22726 0.0
C255 C 0.96438 0.62319 0.2533 0.0
C256 C 0.91831 0.6675 0.20495 0.0
H257 H 0.85248 0.73448 0.29136 0.0
H258 H 0.87908 0.69953 0.28203 0.0
H259 H 0.88473 0.68937 0.19018 0.0
H260 H 0.99151 0.61697 0.17965 0.0
H261 H 0.96077 0.65148 0.17915 0.0
H262 H 0.95623 0.67379 0.26802 0.0
C263 C 0.87362 0.71609 0.26378 0.0
C264 C 0.90037 0.68616 0.20715 0.0
C265 C 0.85833 0.7359 0.26913 0.0
C266 C 0.98406 0.61846 0.20037 0.0
C267 C 0.96636 0.6381 0.20006 0.0
C268 C 0.94064 0.67672 0.25095 0.0
C269 C 0.88271 0.7183 0.2356 0.0
C270 C 0.90215 0.69966 0.2317 0.0
C271 C 0.95652 0.64086 0.22664 0.0
C272 C 0.9384 0.66219 0.22717 0.0
H273 H 0.8544 0.77692 0.20005 0.0
H274 H 0.88131 0.74185 0.19032 0.0
H275 H 0.92502 0.70576 0.27199 0.0
H276 H 0.98757 0.59065 0.27472 0.0
H277 H 0.95679 0.62422 0.27408 0.0
C278 C 0.80676 0.30218 0.723 0.0
C279 C 0.78757 0.30251 0.6998 0.0
C280 C 0.83031 0.31665 0.71782 0.0
C281 C 0.85835 0.37793 0.6698 0.0
H282 H 0.92117 0.35151 0.7112 0.0
C283 C 0.9523 0.4494 0.67343 0.0
C284 C 0.96433 0.44808 0.70229 0.0
C285 C 0.93246 0.42959 0.6678 0.0
C286 C 0.90379 0.35918 0.69944 0.0
H287 H 0.77778 0.31685 0.6529 0.0
H288 H 0.81922 0.3426 0.64354 0.0
H289 H 0.88326 0.31927 0.71058 0.0
H290 H 0.96527 0.4246 0.74768 0.0
H291 H 0.93098 0.39046 0.73792 0.0
H292 H 0.8787 0.41815 0.6597 0.0
C293 C 0.81605 0.33123 0.66577 0.0
C294 C 0.8821 0.34072 0.69907 0.0
C295 C 0.79251 0.31645 0.67099 0.0
C296 C 0.95642 0.42634 0.72518 0.0
C297 C 0.93688 0.40654 0.71953 0.0
C298 C 0.8801 0.39645 0.67019 0.0
C299 C 0.83504 0.33189 0.6893 0.0
C300 C 0.85894 0.3501 0.6851 0.0
C301 C 0.92457 0.40794 0.69085 0.0
C302 C 0.90282 0.38748 0.6859 0.0
H303 H 0.80316 0.29142 0.74534 0.0
H304 H 0.84438 0.31697 0.7365 0.0
H305 H 0.84075 0.38585 0.65902 0.0
H306 H 0.95796 0.46589 0.65532 0.0
H307 H 0.92334 0.43116 0.64545 0.0
C308 C 0.3365 0.29022 0.27195 0.0
C309 C 0.31336 0.28594 0.25542 0.0
C310 C 0.34679 0.26798 0.29215 0.0
C311 C 0.34088 0.19026 0.3146 0.0
H312 H 0.36381 0.20478 0.39332 0.0
C313 C 0.33537 0.10643 0.42018 0.0
C314 C 0.35577 0.10478 0.44221 0.0
C315 C 0.33521 0.12815 0.3955 0.0
C316 C 0.35792 0.20047 0.37132 0.0
H317 H 0.2835 0.25541 0.24519 0.0
H318 H 0.30097 0.2165 0.28072 0.0
H319 H 0.35453 0.24373 0.35268 0.0
H320 H 0.39217 0.1246 0.45548 0.0
H321 H 0.39161 0.16328 0.41227 0.0
H322 H 0.3431 0.14689 0.33367 0.0
C323 C 0.31145 0.23679 0.27823 0.0
C324 C 0.35262 0.22278 0.34797 0.0
C325 C 0.30127 0.259 0.25809 0.0
C326 C 0.3762 0.12532 0.43885 0.0
C327 C 0.37585 0.14745 0.41422 0.0
C328 C 0.34599 0.168 0.33794 0.0
C329 C 0.33412 0.24107 0.29595 0.0
C330 C 0.34333 0.21788 0.31952 0.0
C331 C 0.35532 0.14902 0.39231 0.0
C332 C 0.35388 0.17281 0.36673 0.0
H333 H 0.34613 0.31094 0.26983 0.0
H334 H 0.36445 0.27194 0.30508 0.0
H335 H 0.33434 0.18574 0.29283 0.0
H336 H 0.31938 0.09089 0.42198 0.0
H337 H 0.31897 0.129 0.37922 0.0
C338 C 0.33865 0.76966 0.81036 0.0
C339 C 0.33352 0.74619 0.79683 0.0
C340 C 0.35909 0.77081 0.83186 0.0
C341 C 0.39628 0.72431 0.88781 0.0
H342 H 0.4444 0.78868 0.89031 0.0
C343 C 0.48294 0.71827 0.97275 0.0
C344 C 0.49089 0.74159 0.98584 0.0
C345 C 0.46453 0.72018 0.94878 0.0
C346 C 0.43091 0.77067 0.89018 0.0
H347 H 0.34634 0.70641 0.79351 0.0
H348 H 0.38177 0.70795 0.83164 0.0
H349 H 0.41104 0.78995 0.84946 0.0
H350 H 0.48589 0.78535 0.98386 0.0
H351 H 0.45301 0.78854 0.94244 0.0
H352 H 0.41537 0.70517 0.9287 0.0
C353 C 0.36989 0.72534 0.8259 0.0
C354 C 0.4119 0.77139 0.86671 0.0
C355 C 0.34966 0.72438 0.80422 0.0
C356 C 0.48017 0.76703 0.97419 0.0
C357 C 0.46144 0.76887 0.95035 0.0
C358 C 0.41501 0.72369 0.91138 0.0
C359 C 0.37454 0.74834 0.84032 0.0
C360 C 0.39459 0.74808 0.86517 0.0
C361 C 0.45324 0.74537 0.93749 0.0
C362 C 0.43278 0.74672 0.91275 0.0
H363 H 0.32631 0.78663 0.80501 0.0
H364 H 0.36218 0.78872 0.84271 0.0
H365 H 0.38285 0.70625 0.88751 0.0
H366 H 0.49107 0.69844 0.9809 0.0
H367 H 0.45924 0.70183 0.93903 0.0
C368 C 0.8304 0.86185 0.28959 0.0
C369 C 0.83614 0.83388 0.29876 0.0
C370 C 0.83038 0.8791 0.31048 0.0
C371 C 0.85755 0.89301 0.38086 0.0
H372 H 0.79307 0.91896 0.39213 0.0
C373 C 0.84699 0.94725 0.47895 0.0
C374 C 0.8298 0.96797 0.47511 0.0
C375 C 0.84781 0.93116 0.45715 0.0
C376 C 0.81137 0.91245 0.38898 0.0
H377 H 0.84675 0.80214 0.33676 0.0
H378 H 0.8481 0.83284 0.37321 0.0
H379 H 0.79555 0.8916 0.35363 0.0
H380 H 0.80019 0.98846 0.44537 0.0
H381 H 0.80241 0.96149 0.40654 0.0
H382 H 0.87382 0.91457 0.41513 0.0
C383 C 0.84331 0.84118 0.34988 0.0
C384 C 0.81268 0.89661 0.36703 0.0
C385 C 0.84273 0.82374 0.32907 0.0
C386 C 0.81346 0.9724 0.449 0.0
C387 C 0.81468 0.95677 0.42683 0.0
C388 C 0.85642 0.90939 0.40234 0.0
C389 C 0.83675 0.86883 0.34077 0.0
C390 C 0.83572 0.88659 0.36303 0.0
C391 C 0.83187 0.93588 0.43057 0.0
C392 C 0.83324 0.91911 0.40698 0.0
H393 H 0.82556 0.87017 0.26629 0.0
H394 H 0.82538 0.90045 0.30304 0.0
H395 H 0.87555 0.88557 0.37793 0.0
H396 H 0.85965 0.94322 0.49903 0.0
H397 H 0.86084 0.91486 0.46136 0.0
C398 C 0.69084 0.30387 0.74391 0.0
C399 C 0.70654 0.28186 0.74699 0.0
C400 C 0.67293 0.30329 0.76447 0.0
C401 C 0.63573 0.2553 0.81892 0.0
H402 H 0.63191 0.31993 0.85496 0.0
C403 C 0.57979 0.24884 0.92147 0.0
C404 C 0.56669 0.27187 0.92368 0.0
C405 C 0.59608 0.25067 0.89894 0.0
C406 C 0.63241 0.30184 0.84479 0.0
H407 H 0.7162 0.24213 0.77345 0.0
H408 H 0.68453 0.24066 0.80931 0.0
H409 H 0.66145 0.32206 0.81689 0.0
H410 H 0.56025 0.31486 0.90379 0.0
H411 H 0.58822 0.31788 0.86397 0.0
H412 H 0.60657 0.2351 0.84638 0.0
C413 C 0.68595 0.25835 0.79105 0.0
C414 C 0.64939 0.30307 0.82304 0.0
C415 C 0.70403 0.25915 0.7707 0.0
C416 C 0.57017 0.29678 0.90277 0.0
C417 C 0.58632 0.29855 0.88004 0.0
C418 C 0.61858 0.25415 0.84042 0.0
C419 C 0.67027 0.28046 0.7882 0.0
C420 C 0.65141 0.2797 0.81016 0.0
C421 C 0.59949 0.2755 0.87785 0.0
C422 C 0.61691 0.27728 0.85391 0.0
H423 H 0.69253 0.32147 0.7256 0.0
H424 H 0.66096 0.3205 0.76164 0.0
H425 H 0.63663 0.23711 0.80902 0.0
H426 H 0.57771 0.22939 0.93735 0.0
H427 H 0.60628 0.23268 0.89837 0.0
C428 C 0.34334 0.78552 0.73089 0.0
C429 C 0.31976 0.78777 0.74115 0.0
C430 C 0.35667 0.80916 0.71556 0.0
C431 C 0.3653 0.85608 0.66235 0.0
H432 H 0.36498 0.93076 0.67886 0.0
C433 C 0.35255 0.95274 0.57254 0.0
C434 C 0.36712 0.97782 0.5747 0.0
C435 C 0.35478 0.92934 0.59511 0.0
C436 C 0.36573 0.91001 0.67422 0.0
H437 H 0.29226 0.81612 0.74563 0.0
H438 H 0.3153 0.8576 0.71868 0.0
H439 H 0.35426 0.89015 0.71733 0.0
H440 H 0.39588 0.99808 0.60174 0.0
H441 H 0.39921 0.95691 0.64223 0.0
H442 H 0.37534 0.87594 0.61872 0.0
C443 C 0.32368 0.83776 0.72243 0.0
C444 C 0.35938 0.8868 0.6961 0.0
C445 C 0.31034 0.81409 0.73754 0.0
C446 C 0.38455 0.97889 0.59958 0.0
C447 C 0.38637 0.95548 0.62267 0.0
C448 C 0.37141 0.87924 0.64044 0.0
C449 C 0.34665 0.83543 0.71052 0.0
C450 C 0.35823 0.85963 0.69 0.0
C451 C 0.37132 0.93057 0.62067 0.0
C452 C 0.37079 0.90643 0.6458 0.0
H453 H 0.35083 0.76528 0.73359 0.0
H454 H 0.37439 0.80677 0.70683 0.0
H455 H 0.36443 0.83547 0.65684 0.0
H456 H 0.33905 0.95134 0.55351 0.0
H457 H 0.34271 0.91056 0.59313 0.0
C458 C 0.79116 0.79782 0.19646 0.0
C459 C 0.80037 0.77974 0.22201 0.0
C460 C 0.76911 0.79004 0.17998 0.0
C461 C 0.71041 0.74447 0.19197 0.0
H462 H 0.69518 0.77279 0.10773 0.0
C463 C 0.61333 0.72214 0.12782 0.0
C464 C 0.60339 0.74481 0.10766 0.0
C465 C 0.63778 0.72474 0.14182 0.0
C466 C 0.69913 0.76492 0.13132 0.0
H467 H 0.79523 0.73872 0.24938 0.0
H468 H 0.75692 0.72439 0.21997 0.0
H469 H 0.73872 0.77764 0.12963 0.0
H470 H 0.61111 0.78825 0.0871 0.0
H471 H 0.65384 0.79277 0.1116 0.0
H472 H 0.67075 0.73175 0.19353 0.0
C473 C 0.76637 0.74489 0.21297 0.0
C474 C 0.72409 0.76762 0.14388 0.0
C475 C 0.78846 0.75281 0.22953 0.0
C476 C 0.61814 0.77042 0.10258 0.0
C477 C 0.64272 0.77293 0.11635 0.0
C478 C 0.6855 0.74155 0.17933 0.0
C479 C 0.75584 0.76388 0.1887 0.0
C480 C 0.73 0.75787 0.17448 0.0
C481 C 0.65293 0.74998 0.13573 0.0
C482 C 0.67952 0.75216 0.14899 0.0
H483 H 0.80008 0.81877 0.1906 0.0
H484 H 0.76158 0.80535 0.16168 0.0
H485 H 0.71409 0.73716 0.2157 0.0
H486 H 0.60247 0.7021 0.13221 0.0
H487 H 0.64515 0.70668 0.15658 0.0
C488 C 0.78271 0.23751 0.69273 0.0
C489 C 0.76092 0.25099 0.68045 0.0
C490 C 0.79108 0.21687 0.67966 0.0
C491 C 0.78211 0.18541 0.61117 0.0
H492 H 0.80477 0.1196 0.66553 0.0
C493 C 0.78789 0.08056 0.57395 0.0
C494 C 0.81067 0.06756 0.58243 0.0
C495 C 0.78284 0.10325 0.58619 0.0
C496 C 0.79867 0.13793 0.65009 0.0
H497 H 0.73153 0.25486 0.64428 0.0
H498 H 0.74541 0.21819 0.6218 0.0
H499 H 0.79517 0.15986 0.68522 0.0
H500 H 0.84559 0.06759 0.61118 0.0
H501 H 0.83647 0.10694 0.63297 0.0
H502 H 0.78491 0.16295 0.57614 0.0
C503 C 0.75641 0.22364 0.64124 0.0
C504 C 0.79331 0.16111 0.66131 0.0
C505 C 0.74825 0.24444 0.6542 0.0
C506 C 0.82787 0.07714 0.60419 0.0
C507 C 0.82265 0.09963 0.6167 0.0
C508 C 0.7872 0.1621 0.6 0.0
C509 C 0.77764 0.20914 0.65416 0.0
C510 C 0.7848 0.18512 0.64202 0.0
C511 C 0.80029 0.11321 0.60742 0.0
C512 C 0.79537 0.13807 0.61935 0.0
H513 H 0.79262 0.24216 0.71314 0.0
H514 H 0.80779 0.20659 0.6899 0.0
H515 H 0.77608 0.20366 0.59557 0.0
H516 H 0.77427 0.07377 0.5572 0.0
H517 H 0.7653 0.11312 0.57892 0.0
C518 C 0.33192 0.29367 0.18856 0.0
C519 C 0.33176 0.31905 0.19826 0.0
C520 C 0.35179 0.28894 0.17278 0.0
C521 C 0.39735 0.32646 0.12241 0.0
H522 H 0.43054 0.25727 0.1386 0.0
C523 C 0.47625 0.30852 0.05134 0.0
C524 C 0.47684 0.2815 0.04549 0.0
C525 C 0.46027 0.31353 0.07192 0.0
C526 C 0.42125 0.27659 0.13349 0.0
H527 H 0.35263 0.35863 0.20114 0.0
H528 H 0.38723 0.35085 0.17258 0.0
H529 H 0.39957 0.26464 0.17165 0.0
H530 H 0.46085 0.23864 0.05623 0.0
H531 H 0.4324 0.2475 0.09104 0.0
H532 H 0.41803 0.33808 0.08362 0.0
C533 C 0.37192 0.33471 0.17695 0.0
C534 C 0.40363 0.28083 0.15257 0.0
C535 C 0.35223 0.3392 0.19314 0.0
C536 C 0.46101 0.25967 0.06044 0.0
C537 C 0.44481 0.26474 0.08064 0.0
C538 C 0.41468 0.32208 0.10306 0.0
C539 C 0.37169 0.30968 0.16626 0.0
C540 C 0.39142 0.30573 0.1471 0.0
C541 C 0.44427 0.2917 0.08679 0.0
C542 C 0.42672 0.29698 0.10819 0.0
H543 H 0.31625 0.27791 0.19242 0.0
H544 H 0.35111 0.26952 0.16469 0.0
H545 H 0.38795 0.34573 0.1175 0.0
H546 H 0.48837 0.32573 0.04032 0.0
H547 H 0.4607 0.33449 0.07636 0.0
C548 C 0.84668 0.68468 0.82708 0.0
C549 C 0.82578 0.68929 0.80612 0.0
C550 C 0.86651 0.6701 0.82153 0.0
C551 C 0.89732 0.64661 0.76359 0.0
H552 H 0.91188 0.58253 0.82546 0.0
C553 C 0.95628 0.55984 0.74355 0.0
C554 C 0.97206 0.54645 0.76738 0.0
C555 C 0.93958 0.57873 0.74811 0.0
C556 C 0.90849 0.60058 0.80814 0.0
H557 H 0.80983 0.68461 0.76214 0.0
H558 H 0.84493 0.6595 0.75187 0.0
H559 H 0.88197 0.61462 0.83315 0.0
H560 H 0.98305 0.54274 0.81461 0.0
H561 H 0.95461 0.57637 0.82246 0.0
H562 H 0.92408 0.63293 0.73869 0.0
C563 C 0.84583 0.66676 0.77278 0.0
C564 C 0.89125 0.61893 0.81255 0.0
C565 C 0.82583 0.68106 0.77857 0.0
C566 C 0.97094 0.55251 0.79585 0.0
C567 C 0.95451 0.57173 0.80035 0.0
C568 C 0.91487 0.62846 0.75931 0.0
C569 C 0.86597 0.6604 0.79461 0.0
C570 C 0.88535 0.642 0.79026 0.0
C571 C 0.93851 0.58503 0.77655 0.0
C572 C 0.92053 0.60503 0.78144 0.0
H573 H 0.84709 0.69144 0.84822 0.0
H574 H 0.88201 0.66586 0.83853 0.0
H575 H 0.89321 0.66435 0.74613 0.0
H576 H 0.95658 0.55547 0.72136 0.0
H577 H 0.92725 0.58804 0.72934 0.0
C578 C 0.83435 0.31659 0.27332 0.0
C579 C 0.83911 0.29437 0.26002 0.0
C580 C 0.85375 0.33706 0.27799 0.0
C581 C 0.90086 0.37282 0.29567 0.0
H582 H 0.94452 0.39622 0.2309 0.0
C583 C 0.98581 0.45727 0.29735 0.0
C584 C 0.9895 0.47584 0.2703 0.0
C585 C 0.96773 0.43438 0.29842 0.0
C586 C 0.9324 0.39009 0.24912 0.0
H587 H 0.86777 0.27463 0.24312 0.0
H588 H 0.90204 0.30991 0.25187 0.0
H589 H 0.91286 0.35729 0.22935 0.0
H590 H 0.97639 0.48549 0.22341 0.0
H591 H 0.94481 0.44611 0.2254 0.0
H592 H 0.92001 0.40646 0.31485 0.0
C593 C 0.88324 0.31219 0.25787 0.0
C594 C 0.91446 0.36744 0.24845 0.0
C595 C 0.86378 0.2919 0.25307 0.0
C596 C 0.97427 0.47146 0.24458 0.0
C597 C 0.95623 0.44874 0.24567 0.0
C598 C 0.91886 0.39559 0.29632 0.0
C599 C 0.87833 0.33542 0.2697 0.0
C600 C 0.89832 0.35862 0.27159 0.0
C601 C 0.95299 0.42965 0.27246 0.0
C602 C 0.93462 0.40469 0.27284 0.0
H603 H 0.81547 0.31841 0.27938 0.0
H604 H 0.84925 0.35466 0.28705 0.0
H605 H 0.8889 0.36641 0.314 0.0
H606 H 0.99726 0.46005 0.31756 0.0
H607 H 0.96578 0.41998 0.31938 0.0
C608 C 0.18906 0.26411 0.79382 0.0
C609 C 0.20414 0.26693 0.76978 0.0
C610 C 0.17165 0.28377 0.79415 0.0
C611 C 0.13458 0.33626 0.74442 0.0
H612 H 0.13254 0.36939 0.81416 0.0
C613 C 0.08134 0.43397 0.73859 0.0
C614 C 0.06796 0.43604 0.7629 0.0
C615 C 0.09745 0.41264 0.74067 0.0
C616 C 0.13257 0.36006 0.79466 0.0
H617 H 0.21337 0.29257 0.72762 0.0
H618 H 0.18256 0.32661 0.72769 0.0
H619 H 0.16112 0.33277 0.81556 0.0
H620 H 0.06118 0.41743 0.80862 0.0
H621 H 0.08899 0.3797 0.8121 0.0
H622 H 0.10597 0.36312 0.7235 0.0
C623 C 0.18399 0.30913 0.7462 0.0
C624 C 0.14898 0.33913 0.79547 0.0
C625 C 0.20154 0.28968 0.74607 0.0
C626 C 0.07131 0.41645 0.78953 0.0
C627 C 0.08732 0.39489 0.79154 0.0
C628 C 0.11805 0.35695 0.74369 0.0
C629 C 0.16887 0.30641 0.77023 0.0
C630 C 0.1504 0.32733 0.7702 0.0
C631 C 0.10044 0.39261 0.76703 0.0
C632 C 0.1171 0.36945 0.76862 0.0
H633 H 0.1907 0.2466 0.81223 0.0
H634 H 0.16012 0.28108 0.81286 0.0
H635 H 0.13497 0.32719 0.72478 0.0
H636 H 0.07941 0.44887 0.71783 0.0
H637 H 0.10769 0.41198 0.72157 0.0
C638 C 0.282 0.71255 0.27487 0.0
C639 C 0.29671 0.70983 0.30217 0.0
C640 C 0.2608 0.69392 0.27118 0.0
C641 C 0.21354 0.65086 0.31655 0.0
H642 H 0.19021 0.62416 0.24378 0.0
C643 C 0.11991 0.58114 0.3053 0.0
C644 C 0.10552 0.58565 0.27767 0.0
C645 C 0.14407 0.59488 0.30868 0.0
C646 C 0.19631 0.63172 0.26416 0.0
H647 H 0.30249 0.68461 0.34609 0.0
H648 H 0.26544 0.65177 0.33982 0.0
H649 H 0.23214 0.64883 0.24806 0.0
H650 H 0.10483 0.60898 0.23227 0.0
H651 H 0.14647 0.63343 0.2384 0.0
H652 H 0.17755 0.63451 0.33242 0.0
C653 C 0.26992 0.66851 0.3214 0.0
C654 C 0.22041 0.64572 0.26664 0.0
C655 C 0.29115 0.68707 0.32496 0.0
C656 C 0.11547 0.60487 0.25382 0.0
C657 C 0.13949 0.61871 0.25725 0.0
C658 C 0.18939 0.63703 0.31401 0.0
C659 C 0.25398 0.67233 0.29484 0.0
C660 C 0.22923 0.65561 0.29279 0.0
C661 C 0.1543 0.61356 0.28457 0.0
C662 C 0.18036 0.62749 0.28769 0.0
H663 H 0.28592 0.7302 0.25718 0.0
H664 H 0.24887 0.69752 0.25049 0.0
H665 H 0.21958 0.65867 0.33681 0.0
H666 H 0.11289 0.56632 0.32405 0.0
H667 H 0.155 0.59022 0.32998 0.0
C668 C 0.79183 0.74848 0.74705 0.0
C669 C 0.80473 0.74359 0.77543 0.0
C670 C 0.7996 0.7713 0.72559 0.0
C671 C 0.85099 0.82496 0.70317 0.0
H672 H 0.79543 0.87091 0.67126 0.0
C673 C 0.86612 0.93621 0.6306 0.0
C674 C 0.84735 0.94419 0.60749 0.0
C675 C 0.86256 0.91111 0.65111 0.0
C676 C 0.81116 0.8582 0.67947 0.0
H677 H 0.83687 0.75683 0.80327 0.0
H678 H 0.85098 0.79687 0.76541 0.0
H679 H 0.78724 0.82703 0.70536 0.0
H680 H 0.81059 0.93158 0.58718 0.0
H681 H 0.80478 0.88783 0.62201 0.0
H682 H 0.87488 0.85601 0.67679 0.0
C683 C 0.83472 0.78323 0.75981 0.0
C684 C 0.80643 0.83303 0.69912 0.0
C685 C 0.82674 0.76044 0.7814 0.0
C686 C 0.82527 0.92633 0.60499 0.0
C687 C 0.82187 0.90121 0.62514 0.0
C688 C 0.85572 0.8501 0.6831 0.0
C689 C 0.82063 0.78946 0.73209 0.0
C690 C 0.82621 0.81604 0.71105 0.0
C691 C 0.84028 0.89336 0.64874 0.0
C692 C 0.83579 0.86696 0.67082 0.0
H693 H 0.77495 0.73541 0.7421 0.0
H694 H 0.78864 0.77534 0.70424 0.0
H695 H 0.86659 0.81224 0.71209 0.0
H696 H 0.88336 0.94953 0.6331 0.0
H697 H 0.87706 0.90592 0.66912 0.0
C698 C 0.74077 0.23629 0.22179 0.0
C699 C 0.76256 0.25129 0.21006 0.0
C700 C 0.7186 0.23295 0.20329 0.0
C701 C 0.68352 0.26712 0.13746 0.0
H702 H 0.65139 0.19427 0.1292 0.0
C703 C 0.60115 0.25692 0.04875 0.0
C704 C 0.58184 0.23544 0.05468 0.0
C705 C 0.62309 0.25769 0.06801 0.0
C706 C 0.65978 0.21481 0.13159 0.0
H707 H 0.77853 0.27402 0.16989 0.0
H708 H 0.73933 0.26938 0.1377 0.0
H709 H 0.68964 0.1977 0.16289 0.0
H710 H 0.57028 0.19786 0.08541 0.0
H711 H 0.6081 0.19985 0.12001 0.0
H712 H 0.65348 0.28454 0.10742 0.0
C713 C 0.73953 0.26003 0.16114 0.0
C714 C 0.68179 0.2167 0.15076 0.0
C715 C 0.76183 0.26282 0.17951 0.0
C716 C 0.58495 0.2146 0.08025 0.0
C717 C 0.60674 0.2157 0.09997 0.0
C718 C 0.66127 0.2653 0.11883 0.0
C719 C 0.71773 0.24509 0.17289 0.0
C720 C 0.69399 0.24288 0.15352 0.0
C721 C 0.62609 0.23738 0.09418 0.0
C722 C 0.64924 0.23911 0.11523 0.0
H723 H 0.74081 0.22753 0.24535 0.0
H724 H 0.70194 0.22151 0.21285 0.0
H725 H 0.69244 0.28756 0.13959 0.0
H726 H 0.59945 0.27306 0.02896 0.0
H727 H 0.63776 0.27424 0.06214 0.0
C728 C 0.26349 0.21738 0.70593 0.0
C729 C 0.25788 0.20433 0.73483 0.0
C730 C 0.2714 0.20196 0.68642 0.0
C731 C 0.26795 0.13013 0.67247 0.0
H732 H 0.31843 0.16138 0.61698 0.0
C733 C 0.32806 0.09454 0.58011 0.0
C734 C 0.30858 0.08017 0.56474 0.0
C735 C 0.32252 0.10932 0.60148 0.0
C736 C 0.30443 0.15223 0.63246 0.0
H737 H 0.25693 0.16545 0.76663 0.0
H738 H 0.27119 0.1382 0.73262 0.0
H739 H 0.30926 0.18736 0.65434 0.0
H740 H 0.26791 0.0702 0.55981 0.0
H741 H 0.25819 0.09634 0.59697 0.0
H742 H 0.26334 0.09485 0.65076 0.0
C743 C 0.26909 0.16029 0.72483 0.0
C744 C 0.29901 0.16725 0.65371 0.0
C745 C 0.26122 0.17582 0.74438 0.0
C746 C 0.28337 0.08102 0.57123 0.0
C747 C 0.27782 0.09584 0.59269 0.0
C748 C 0.27336 0.11511 0.65117 0.0
C749 C 0.27391 0.17312 0.69545 0.0
C750 C 0.28061 0.15647 0.67388 0.0
C751 C 0.29735 0.11016 0.60807 0.0
C752 C 0.2916 0.12602 0.63084 0.0
H753 H 0.26125 0.23945 0.69832 0.0
H754 H 0.27475 0.21248 0.66393 0.0
H755 H 0.25347 0.12136 0.68745 0.0
H756 H 0.34773 0.09425 0.57581 0.0
H757 H 0.33806 0.11978 0.61318 0.0
C758 C 0.34748 0.74744 0.24248 0.0
C759 C 0.34444 0.73173 0.27107 0.0
C760 C 0.3613 0.73778 0.22272 0.0
C761 C 0.4124 0.69162 0.22325 0.0
H762 H 0.39902 0.71208 0.13756 0.0
C763 C 0.48083 0.6732 0.13772 0.0
C764 C 0.48688 0.69751 0.11684 0.0
C765 C 0.46112 0.67236 0.15625 0.0
C766 C 0.40295 0.70612 0.16146 0.0
H767 H 0.35179 0.69292 0.301 0.0
H768 H 0.3757 0.67544 0.26621 0.0
H769 H 0.36732 0.71863 0.17008 0.0
H770 H 0.47666 0.73976 0.09868 0.0
H771 H 0.44238 0.7381 0.13049 0.0
H772 H 0.44828 0.67952 0.21438 0.0
C773 C 0.36791 0.69556 0.25921 0.0
C774 C 0.38484 0.70997 0.18012 0.0
C775 C 0.35404 0.70534 0.279 0.0
C776 C 0.47262 0.72072 0.1146 0.0
C777 C 0.45279 0.71972 0.13266 0.0
C778 C 0.43045 0.68753 0.20451 0.0
C779 C 0.37226 0.71201 0.23107 0.0
C780 C 0.38966 0.70364 0.21128 0.0
C781 C 0.44683 0.69561 0.15374 0.0
C782 C 0.42623 0.69558 0.17346 0.0
H783 H 0.3399 0.7677 0.23586 0.0
H784 H 0.36439 0.7512 0.20144 0.0
H785 H 0.41691 0.68673 0.24711 0.0
H786 H 0.49148 0.655 0.13997 0.0
H787 H 0.4569 0.65351 0.17235 0.0
C788 C 0.85183 0.2155 0.28273 0.0
C789 C 0.83424 0.23356 0.28719 0.0
C790 C 0.86557 0.2003 0.30712 0.0
C791 C 0.8803 0.19305 0.38974 0.0
H792 H 0.88141 0.11459 0.38673 0.0
C793 C 0.86714 0.1036 0.48849 0.0
C794 C 0.88039 0.07964 0.49141 0.0
C795 C 0.87081 0.12592 0.46489 0.0
C796 C 0.88187 0.13655 0.38777 0.0
H797 H 0.81779 0.25126 0.31969 0.0
H798 H 0.84107 0.22427 0.36259 0.0
H799 H 0.86983 0.14752 0.34154 0.0
H800 H 0.9086 0.06039 0.47295 0.0
H801 H 0.9146 0.09943 0.43074 0.0
H802 H 0.89052 0.18142 0.4366 0.0
C803 C 0.84485 0.222 0.34048 0.0
C804 C 0.87521 0.15552 0.36182 0.0
C805 C 0.83133 0.2373 0.31606 0.0
C806 C 0.89843 0.07887 0.47125 0.0
C807 C 0.90172 0.10105 0.44711 0.0
C808 C 0.88667 0.174 0.41576 0.0
C809 C 0.8618 0.20283 0.3364 0.0
C810 C 0.87343 0.18385 0.36267 0.0
C811 C 0.8874 0.12446 0.44332 0.0
C812 C 0.88666 0.14542 0.4152 0.0
H813 H 0.85442 0.21275 0.26041 0.0
H814 H 0.87875 0.18615 0.30307 0.0
H815 H 0.87977 0.21481 0.39112 0.0
H816 H 0.85301 0.1045 0.50373 0.0
H817 H 0.85928 0.14348 0.46238 0.0
C818 C 0.28044 0.19382 0.82245 0.0
C819 C 0.28007 0.21322 0.79563 0.0
C820 C 0.3034 0.18817 0.83924 0.0
C821 C 0.37414 0.20224 0.8377 0.0
H822 H 0.37134 0.19542 0.92295 0.0
C823 C 0.4572 0.23484 0.91735 0.0
C824 C 0.46261 0.21644 0.94438 0.0
C825 C 0.43606 0.22916 0.89831 0.0
C826 C 0.37239 0.19687 0.89924 0.0
H827 H 0.3028 0.24151 0.76461 0.0
H828 H 0.343 0.23269 0.79415 0.0
H829 H 0.3321 0.19493 0.89092 0.0
H830 H 0.45029 0.17748 0.97254 0.0
H831 H 0.41262 0.16798 0.93949 0.0
H832 H 0.41464 0.20603 0.84623 0.0
C833 C 0.32589 0.22098 0.8021 0.0
C834 C 0.34987 0.19646 0.88078 0.0
C835 C 0.30293 0.22619 0.78513 0.0
C836 C 0.4466 0.19198 0.95181 0.0
C837 C 0.42507 0.18659 0.93299 0.0
C838 C 0.39665 0.20314 0.85615 0.0
C839 C 0.3264 0.20237 0.82978 0.0
C840 C 0.3504 0.19964 0.84966 0.0
C841 C 0.41958 0.20522 0.90613 0.0
C842 C 0.39596 0.20091 0.88703 0.0
H843 H 0.26283 0.18373 0.83078 0.0
H844 H 0.303 0.17324 0.86001 0.0
H845 H 0.37541 0.20411 0.814 0.0
H846 H 0.46927 0.25378 0.91094 0.0
H847 H 0.43212 0.24399 0.87788 0.0
C848 C 0.3069 0.81425 0.32829 0.0
C849 C 0.32767 0.79776 0.33483 0.0
C850 C 0.30639 0.83773 0.34121 0.0
C851 C 0.34684 0.88963 0.37517 0.0
H852 H 0.28749 0.89676 0.41529 0.0
C853 C 0.34736 0.96886 0.45278 0.0
C854 C 0.32488 0.98125 0.45452 0.0
C855 C 0.34736 0.94769 0.43638 0.0
C856 C 0.30404 0.89547 0.40373 0.0
H857 H 0.36417 0.79259 0.35954 0.0
H858 H 0.36376 0.83431 0.38171 0.0
H859 H 0.28827 0.85784 0.38955 0.0
H860 H 0.28486 0.98158 0.43982 0.0
H861 H 0.28499 0.94525 0.41028 0.0
H862 H 0.36253 0.92743 0.38873 0.0
C863 C 0.34786 0.82906 0.36663 0.0
C864 C 0.3045 0.87305 0.38911 0.0
C865 C 0.34816 0.80532 0.35403 0.0
C866 C 0.30246 0.97233 0.43903 0.0
C867 C 0.30253 0.95136 0.42226 0.0
C868 C 0.34626 0.91228 0.38942 0.0
C869 C 0.32685 0.84533 0.36057 0.0
C870 C 0.32601 0.86976 0.37498 0.0
C871 C 0.32495 0.93857 0.42093 0.0
C872 C 0.32497 0.91534 0.40423 0.0
H873 H 0.29098 0.80867 0.31343 0.0
H874 H 0.29006 0.85002 0.336 0.0
H875 H 0.36353 0.88776 0.36411 0.0
H876 H 0.36492 0.97504 0.46469 0.0
H877 H 0.36489 0.93803 0.43647 0.0
C878 C 0.74413 0.72036 0.87013 0.0
C879 C 0.74841 0.69963 0.85444 0.0
C880 C 0.72389 0.71671 0.88808 0.0
C881 C 0.68111 0.66568 0.93144 0.0
H882 H 0.63756 0.72689 0.91855 0.0
C883 C 0.59342 0.66603 0.9995 0.0
C884 C 0.59052 0.69172 0.00762 0.0
C885 C 0.61154 0.66417 0.97975 0.0
C886 C 0.64963 0.70968 0.92265 0.0
H887 H 0.73548 0.6586 0.84559 0.0
H888 H 0.7002 0.65173 0.87793 0.0
H889 H 0.67203 0.72894 0.88678 0.0
H890 H 0.60512 0.73524 0.00241 0.0
H891 H 0.63659 0.73185 0.96902 0.0
H892 H 0.65919 0.6469 0.96814 0.0
C893 C 0.71247 0.67086 0.8761 0.0
C894 C 0.66931 0.71085 0.90437 0.0
C895 C 0.73259 0.67473 0.85773 0.0
C896 C 0.60646 0.71519 0.99627 0.0
C897 C 0.62449 0.7133 0.97689 0.0
C898 C 0.66149 0.66463 0.95008 0.0
C899 C 0.70772 0.69206 0.89103 0.0
C900 C 0.68557 0.68919 0.90896 0.0
C901 C 0.62704 0.68795 0.96793 0.0
C902 C 0.64593 0.68699 0.94632 0.0
H903 H 0.75639 0.73948 0.86826 0.0
H904 H 0.72083 0.73321 0.8997 0.0
H905 H 0.69342 0.64869 0.93537 0.0
H906 H 0.58145 0.64757 0.00795 0.0
H907 H 0.61305 0.64431 0.97328 0.0
loop_
_geom_bond_atom_site_label_1
_geom_bond_atom_site_label_2
_geom_bond_distance
_geom_bond_site_symmetry_2
_ccdc_geom_bond_type
C0 N1 1.317 . S
C0 N2 1.348 . S
C0 C3 1.485 . S
N1 C0 1.317 . S
N1 N5 1.370 . S
N2 C0 1.348 . S
N2 C4 1.346 . S
C3 C0 1.485 . S
C3 H7 0.960 . S
C3 H8 0.961 . S
C3 H9 0.960 . S
C4 N2 1.346 . S
C4 N5 1.307 . S
C4 C6 1.486 . S
N5 N1 1.370 . S
N5 C4 1.307 . S
C6 C4 1.486 . S
C6 H10 0.960 . S
C6 H11 0.960 . S
C6 H12 0.959 . S
H7 C3 0.960 . S
H8 C3 0.961 . S
H9 C3 0.960 . S
H10 C6 0.960 . S
H11 C6 0.960 . S
H12 C6 0.959 . S
C13 N14 1.317 . S
C13 N15 1.348 . S
C13 C16 1.485 . S
N14 C13 1.317 . S
N14 N18 1.370 . S
N15 C13 1.348 . S
N15 C17 1.346 . S
C16 C13 1.485 . S
C16 H20 0.960 . S
C16 H21 0.961 . S
C16 H22 0.960 . S
C17 N15 1.346 . S
C17 N18 1.307 . S
C17 C19 1.486 . S
N18 N14 1.370 . S
N18 C17 1.307 . S
C19 C17 1.486 . S
C19 H23 0.960 . S
C19 H24 0.960 . S
C19 H25 0.959 . S
H20 C16 0.960 . S
H21 C16 0.961 . S
H22 C16 0.960 . S
H23 C19 0.960 . S
H24 C19 0.960 . S
H25 C19 0.959 . S
C26 N27 1.317 . S
C26 N28 1.348 . S
C26 C29 1.485 . S
N27 C26 1.317 . S
N27 N31 1.370 . S
N28 C26 1.348 . S
N28 C30 1.346 . S
C29 C26 1.485 . S
C29 H33 0.960 . S
C29 H34 0.961 . S
C29 H35 0.960 . S
C30 N28 1.346 . S
C30 N31 1.307 . S
C30 C32 1.486 . S
N31 N27 1.370 . S
N31 C30 1.307 . S
C32 C30 1.486 . S
C32 H36 0.960 . S
C32 H37 0.960 . S
C32 H38 0.959 . S
H33 C29 0.960 . S
H34 C29 0.961 . S
H35 C29 0.960 . S
H36 C32 0.960 . S
H37 C32 0.960 . S
H38 C32 0.959 . S
C39 N40 1.317 . S
C39 N41 1.348 . S
C39 C42 1.485 . S
N40 C39 1.317 . S
N40 N44 1.370 . S
N41 C39 1.348 . S
N41 C43 1.346 . S
C42 C39 1.485 . S
C42 H46 0.960 . S
C42 H47 0.961 . S
C42 H48 0.960 . S
C43 N41 1.346 . S
C43 N44 1.307 . S
C43 C45 1.486 . S
N44 N40 1.370 . S
N44 C43 1.307 . S
C45 C43 1.486 . S
C45 H49 0.960 . S
C45 H50 0.960 . S
C45 H51 0.959 . S
H46 C42 0.960 . S
H47 C42 0.961 . S
H48 C42 0.960 . S
H49 C45 0.960 . S
H50 C45 0.960 . S
H51 C45 0.959 . S
C52 N53 1.317 . S
C52 N54 1.348 . S
C52 C55 1.485 . S
N53 C52 1.317 . S
N53 N57 1.370 . S
N54 C52 1.348 . S
N54 C56 1.346 . S
C55 C52 1.485 . S
C55 H59 0.960 . S
C55 H60 0.961 . S
C55 H61 0.960 . S
C56 N54 1.346 . S
C56 N57 1.307 . S
C56 C58 1.486 . S
N57 N53 1.370 . S
N57 C56 1.307 . S
C58 C56 1.486 . S
C58 H62 0.960 . S
C58 H63 0.960 . S
C58 H64 0.959 . S
H59 C55 0.960 . S
H60 C55 0.961 . S
H61 C55 0.960 . S
H62 C58 0.960 . S
H63 C58 0.960 . S
H64 C58 0.959 . S
C65 N66 1.317 . S
C65 N67 1.348 . S
C65 C68 1.485 . S
N66 C65 1.317 . S
N66 N70 1.370 . S
N67 C65 1.348 . S
N67 C69 1.346 . S
C68 C65 1.485 . S
C68 H72 0.960 . S
C68 H73 0.961 . S
C68 H74 0.960 . S
C69 N67 1.346 . S
C69 N70 1.307 . S
C69 C71 1.486 . S
N70 N66 1.370 . S
N70 C69 1.307 . S
C71 C69 1.486 . S
C71 H75 0.960 . S
C71 H76 0.960 . S
C71 H77 0.959 . S
H72 C68 0.960 . S
H73 C68 0.961 . S
H74 C68 0.960 . S
H75 C71 0.960 . S
H76 C71 0.960 . S
H77 C71 0.959 . S
C78 N79 1.317 . S
C78 N80 1.348 . S
C78 C81 1.485 . S
N79 C78 1.317 . S
N79 N83 1.370 . S
N80 C78 1.348 . S
N80 C82 1.346 . S
C81 C78 1.485 . S
C81 H85 0.960 . S
C81 H86 0.961 . S
C81 H87 0.960 . S
C82 N80 1.346 . S
C82 N83 1.307 . S
C82 C84 1.486 . S
N83 N79 1.370 . S
N83 C82 1.307 . S
C84 C82 1.486 . S
C84 H88 0.960 . S
C84 H89 0.960 . S
C84 H90 0.959 . S
H85 C81 0.960 . S
H86 C81 0.961 . S
H87 C81 0.960 . S
H88 C84 0.960 . S
H89 C84 0.960 . S
H90 C84 0.959 . S
C91 N92 1.317 . S
C91 N93 1.348 . S
C91 C94 1.485 . S
N92 C91 1.317 . S
N92 N96 1.370 . S
N93 C91 1.348 . S
N93 C95 1.346 . S
C94 C91 1.485 . S
C94 H98 0.960 . S
C94 H99 0.961 . S
C94 H100 0.960 . S
C95 N93 1.346 . S
C95 N96 1.307 . S
C95 C97 1.486 . S
N96 N92 1.370 . S
N96 C95 1.307 . S
C97 C95 1.486 . S
C97 H101 0.960 . S
C97 H102 0.960 . S
C97 H103 0.959 . S
H98 C94 0.960 . S
H99 C94 0.961 . S
H100 C94 0.960 . S
H101 C97 0.960 . S
H102 C97 0.960 . S
H103 C97 0.959 . S
C104 O106 1.247 . S
C104 O108 1.258 . S
C105 O112 1.247 . S
C105 O113 1.258 . S
O106 C104 1.247 . S
O106 Zn107 2.028 . S
Zn107 O106 2.028 . S
Zn107 O111 2.035 . S
Zn107 O113 2.035 . S
Zn107 O114 2.028 . S
O108 C104 1.258 . S
O108 Zn109 2.035 . S
Zn109 O108 2.035 . S
Zn109 O110 2.028 . S
Zn109 O112 2.028 . S
Zn109 O115 2.035 . S
O110 Zn109 2.028 . S
O110 C116 1.247 . S
O111 Zn107 2.035 . S
O111 C116 1.258 . S
O112 C105 1.247 . S
O112 Zn109 2.028 . S
O113 C105 1.258 . S
O113 Zn107 2.035 . S
O114 Zn107 2.028 . S
O114 C117 1.247 . S
O115 Zn109 2.035 . S
O115 C117 1.258 . S
C116 O110 1.247 . S
C116 O111 1.258 . S
C117 O114 1.247 . S
C117 O115 1.258 . S
C118 O120 1.247 . S
C118 O122 1.258 . S
C119 O126 1.247 . S
C119 O127 1.258 . S
O120 C118 1.247 . S
O120 Zn121 2.028 1_655 S
Zn121 O120 2.028 1_455 S
Zn121 O125 2.035 . S
Zn121 O127 2.035 . S
Zn121 O128 2.028 1_455 S
O122 C118 1.258 . S
O122 Zn123 2.063 . S
Zn123 O122 2.063 . S
Zn123 O124 2.001 1_655 S
Zn123 O126 2.001 1_655 S
Zn123 O129 2.063 . S
O124 Zn123 2.001 1_455 S
O124 C130 1.247 . S
O125 Zn121 2.035 . S
O125 C130 1.258 . S
O126 C119 1.247 . S
O126 Zn123 2.001 1_455 S
O127 C119 1.258 . S
O127 Zn121 2.035 . S
O128 Zn121 2.028 1_655 S
O128 C131 1.247 . S
O129 Zn123 2.063 . S
O129 C131 1.258 . S
C130 O124 1.247 . S
C130 O125 1.258 . S
C131 O128 1.247 . S
C131 O129 1.258 . S
C132 O134 1.247 . S
C132 O136 1.258 1_565 S
C133 O140 1.247 . S
C133 O141 1.258 . S
O134 C132 1.247 . S
O134 Zn135 2.028 1_565 S
Zn135 O134 2.028 1_545 S
Zn135 O139 2.035 . S
Zn135 O141 2.035 . S
Zn135 O142 2.028 . S
O136 C132 1.258 1_545 S
O136 Zn137 2.035 . S
Zn137 O136 2.035 . S
Zn137 O138 2.028 . S
Zn137 O140 2.028 . S
Zn137 O143 2.035 . S
O138 Zn137 2.028 . S
O138 C144 1.247 . S
O139 Zn135 2.035 . S
O139 C144 1.258 . S
O140 C133 1.247 . S
O140 Zn137 2.028 . S
O141 C133 1.258 . S
O141 Zn135 2.035 . S
O142 Zn135 2.028 . S
O142 C145 1.247 1_545 S
O143 Zn137 2.035 . S
O143 C145 1.258 1_545 S
C144 O138 1.247 . S
C144 O139 1.258 . S
C145 O142 1.247 1_565 S
C145 O143 1.258 1_565 S
C146 O148 1.247 . S
C146 O150 1.258 . S
C147 O154 1.247 . S
C147 O155 1.258 . S
O148 C146 1.247 . S
O148 Zn149 2.028 . S
Zn149 O148 2.028 . S
Zn149 O153 2.035 . S
Zn149 O155 2.035 . S
Zn149 O156 2.028 . S
O150 C146 1.258 . S
O150 Zn151 2.035 . S
Zn151 O150 2.035 . S
Zn151 O152 2.028 . S
Zn151 O154 2.028 . S
Zn151 O157 2.035 . S
O152 Zn151 2.028 . S
O152 C158 1.247 . S
O153 Zn149 2.035 . S
O153 C158 1.258 . S
O154 C147 1.247 . S
O154 Zn151 2.028 . S
O155 C147 1.258 . S
O155 Zn149 2.035 . S
O156 Zn149 2.028 . S
O156 C159 1.247 . S
O157 Zn151 2.035 . S
O157 C159 1.258 . S
C158 O152 1.247 . S
C158 O153 1.258 . S
C159 O156 1.247 . S
C159 O157 1.258 . S
C160 O162 1.247 1_565 S
C160 O164 1.258 1_565 S
C161 O168 1.247 . S
C161 O169 1.258 . S
O162 C160 1.247 1_545 S
O162 Zn163 2.028 . S
Zn163 O162 2.028 . S
Zn163 O167 2.035 . S
Zn163 O169 2.035 . S
Zn163 O170 2.028 . S
O164 C160 1.258 1_545 S
O164 Zn165 2.035 . S
Zn165 O164 2.035 . S
Zn165 O166 2.028 . S
Zn165 O168 2.028 . S
Zn165 O171 2.035 . S
O166 Zn165 2.028 . S
O166 C172 1.247 . S
O167 Zn163 2.035 . S
O167 C172 1.258 . S
O168 C161 1.247 . S
O168 Zn165 2.028 . S
O169 C161 1.258 . S
O169 Zn163 2.035 . S
O170 Zn163 2.028 . S
O170 C173 1.247 . S
O171 Zn165 2.035 . S
O171 C173 1.258 . S
C172 O166 1.247 . S
C172 O167 1.258 . S
C173 O170 1.247 . S
C173 O171 1.258 . S
C174 O176 1.247 . S
C174 O178 1.258 . S
C175 O182 1.247 . S
C175 O183 1.258 . S
O176 C174 1.247 . S
O176 Zn177 2.028 . S
Zn177 O176 2.028 . S
Zn177 O181 2.035 . S
Zn177 O183 2.035 1_554 S
Zn177 O184 2.028 1_554 S
O178 C174 1.258 . S
O178 Zn179 2.035 1_554 S
Zn179 O178 2.035 1_556 S
Zn179 O180 2.028 1_556 S
Zn179 O182 2.028 . S
Zn179 O185 2.035 . S
O180 Zn179 2.028 1_554 S
O180 C186 1.247 . S
O181 Zn177 2.035 . S
O181 C186 1.258 . S
O182 C175 1.247 . S
O182 Zn179 2.028 . S
O183 C175 1.258 . S
O183 Zn177 2.035 1_556 S
O184 Zn177 2.028 1_556 S
O184 C187 1.247 . S
O185 Zn179 2.035 . S
O185 C187 1.258 . S
C186 O180 1.247 . S
C186 O181 1.258 . S
C187 O184 1.247 . S
C187 O185 1.258 . S
C188 C189 1.349 . S
C188 C190 1.327 . S
C188 H213 0.950 . S
C189 C188 1.349 . S
C189 C205 1.349 . S
C190 C188 1.327 . S
C190 C209 1.429 . S
C190 H214 0.950 . S
C191 C208 1.574 . S
C191 C210 1.368 . S
C191 H215 0.949 . S
H192 C196 0.949 . S
C193 C194 1.349 . S
C193 C195 1.327 . S
C193 H216 0.950 . S
C194 C193 1.349 . S
C194 C206 1.349 . S
C195 C193 1.327 . S
C195 C211 1.429 . S
C195 H217 0.950 . S
C196 H192 0.949 . S
C196 C204 1.574 . S
C196 C212 1.368 . S
H197 C205 0.950 . S
H198 C203 0.950 . S
H199 C204 0.949 . S
H200 C206 0.950 . S
H201 C207 0.950 . S
H202 C208 0.949 . S
C203 H198 0.950 . S
C203 C205 1.327 . S
C203 C209 1.429 . S
C204 C196 1.574 . S
C204 H199 0.949 . S
C204 C210 1.368 . S
C205 C189 1.349 . S
C205 H197 0.950 . S
C205 C203 1.327 . S
C206 C194 1.349 . S
C206 H200 0.950 . S
C206 C207 1.327 . S
C207 H201 0.950 . S
C207 C206 1.327 . S
C207 C211 1.429 . S
C208 C191 1.574 . S
C208 H202 0.949 . S
C208 C212 1.368 . S
C209 C190 1.429 . S
C209 C203 1.429 . S
C209 C210 1.523 . S
C210 C191 1.368 . S
C210 C204 1.368 . S
C210 C209 1.523 . S
C211 C195 1.429 . S
C211 C207 1.429 . S
C211 C212 1.523 . S
C212 C196 1.368 . S
C212 C208 1.368 . S
C212 C211 1.523 . S
H213 C188 0.950 . S
H214 C190 0.950 . S
H215 C191 0.949 . S
H216 C193 0.950 . S
H217 C195 0.950 . S
C218 C219 1.349 . S
C218 C220 1.327 . S
C218 H243 0.950 . S
C219 C218 1.349 . S
C219 C235 1.349 . S
C220 C218 1.327 . S
C220 C239 1.429 . S
C220 H244 0.950 . S
C221 C238 1.574 . S
C221 C240 1.368 . S
C221 H245 0.949 . S
H222 C226 0.949 . S
C223 C224 1.349 . S
C223 C225 1.327 . S
C223 H246 0.950 . S
C224 C223 1.349 . S
C224 C236 1.349 . S
C225 C223 1.327 . S
C225 C241 1.429 . S
C225 H247 0.950 . S
C226 H222 0.949 . S
C226 C234 1.574 . S
C226 C242 1.368 . S
H227 C235 0.950 . S
H228 C233 0.950 . S
H229 C234 0.949 . S
H230 C236 0.950 . S
H231 C237 0.950 . S
H232 C238 0.949 . S
C233 H228 0.950 . S
C233 C235 1.327 . S
C233 C239 1.429 . S
C234 C226 1.574 . S
C234 H229 0.949 . S
C234 C240 1.368 . S
C235 C219 1.349 . S
C235 H227 0.950 . S
C235 C233 1.327 . S
C236 C224 1.349 . S
C236 H230 0.950 . S
C236 C237 1.327 . S
C237 H231 0.950 . S
C237 C236 1.327 . S
C237 C241 1.429 . S
C238 C221 1.574 . S
C238 H232 0.949 . S
C238 C242 1.368 . S
C239 C220 1.429 . S
C239 C233 1.429 . S
C239 C240 1.523 . S
C240 C221 1.368 . S
C240 C234 1.368 . S
C240 C239 1.523 . S
C241 C225 1.429 . S
C241 C237 1.429 . S
C241 C242 1.523 . S
C242 C226 1.368 . S
C242 C238 1.368 . S
C242 C241 1.523 . S
H243 C218 0.950 . S
H244 C220 0.950 . S
H245 C221 0.949 . S
H246 C223 0.950 . S
H247 C225 0.950 . S
C248 C249 1.349 . S
C248 C250 1.327 . S
C248 H273 0.950 . S
C249 C248 1.349 . S
C249 C265 1.349 . S
C250 C248 1.327 . S
C250 C269 1.429 . S
C250 H274 0.950 . S
C251 C268 1.574 . S
C251 C270 1.368 . S
C251 H275 0.949 . S
H252 C256 0.949 . S
C253 C254 1.349 . S
C253 C255 1.327 . S
C253 H276 0.950 . S
C254 C253 1.349 . S
C254 C266 1.349 . S
C255 C253 1.327 . S
C255 C271 1.429 . S
C255 H277 0.950 . S
C256 H252 0.949 . S
C256 C264 1.574 . S
C256 C272 1.368 . S
H257 C265 0.950 . S
H258 C263 0.950 . S
H259 C264 0.949 . S
H260 C266 0.950 . S
H261 C267 0.950 . S
H262 C268 0.949 . S
C263 H258 0.950 . S
C263 C265 1.327 . S
C263 C269 1.429 . S
C264 C256 1.574 . S
C264 H259 0.949 . S
C264 C270 1.368 . S
C265 C249 1.349 . S
C265 H257 0.950 . S
C265 C263 1.327 . S
C266 C254 1.349 . S
C266 H260 0.950 . S
C266 C267 1.327 . S
C267 H261 0.950 . S
C267 C266 1.327 . S
C267 C271 1.429 . S
C268 C251 1.574 . S
C268 H262 0.949 . S
C268 C272 1.368 . S
C269 C250 1.429 . S
C269 C263 1.429 . S
C269 C270 1.523 . S
C270 C251 1.368 . S
C270 C264 1.368 . S
C270 C269 1.523 . S
C271 C255 1.429 . S
C271 C267 1.429 . S
C271 C272 1.523 . S
C272 C256 1.368 . S
C272 C268 1.368 . S
C272 C271 1.523 . S
H273 C248 0.950 . S
H274 C250 0.950 . S
H275 C251 0.949 . S
H276 C253 0.950 . S
H277 C255 0.950 . S
C278 C279 1.349 . S
C278 C280 1.327 . S
C278 H303 0.950 . S
C279 C278 1.349 . S
C279 C295 1.349 . S
C280 C278 1.327 . S
C280 C299 1.429 . S
C280 H304 0.950 . S
C281 C298 1.574 . S
C281 C300 1.368 . S
C281 H305 0.949 . S
H282 C286 0.949 . S
C283 C284 1.349 . S
C283 C285 1.327 . S
C283 H306 0.950 . S
C284 C283 1.349 . S
C284 C296 1.349 . S
C285 C283 1.327 . S
C285 C301 1.429 . S
C285 H307 0.950 . S
C286 H282 0.949 . S
C286 C294 1.574 . S
C286 C302 1.368 . S
H287 C295 0.950 . S
H288 C293 0.950 . S
H289 C294 0.949 . S
H290 C296 0.950 . S
H291 C297 0.950 . S
H292 C298 0.949 . S
C293 H288 0.950 . S
C293 C295 1.327 . S
C293 C299 1.429 . S
C294 C286 1.574 . S
C294 H289 0.949 . S
C294 C300 1.368 . S
C295 C279 1.349 . S
C295 H287 0.950 . S
C295 C293 1.327 . S
C296 C284 1.349 . S
C296 H290 0.950 . S
C296 C297 1.327 . S
C297 H291 0.950 . S
C297 C296 1.327 . S
C297 C301 1.429 . S
C298 C281 1.574 . S
C298 H292 0.949 . S
C298 C302 1.368 . S
C299 C280 1.429 . S
C299 C293 1.429 . S
C299 C300 1.523 . S
C300 C281 1.368 . S
C300 C294 1.368 . S
C300 C299 1.523 . S
C301 C285 1.429 . S
C301 C297 1.429 . S
C301 C302 1.523 . S
C302 C286 1.368 . S
C302 C298 1.368 . S
C302 C301 1.523 . S
H303 C278 0.950 . S
H304 C280 0.950 . S
H305 C281 0.949 . S
H306 C283 0.950 . S
H307 C285 0.950 . S
C308 C309 1.349 . S
C308 C310 1.327 . S
C308 H333 0.950 . S
C309 C308 1.349 . S
C309 C325 1.349 . S
C310 C308 1.327 . S
C310 C329 1.429 . S
C310 H334 0.950 . S
C311 C328 1.574 . S
C311 C330 1.368 . S
C311 H335 0.949 . S
H312 C316 0.949 . S
C313 C314 1.349 . S
C313 C315 1.327 . S
C313 H336 0.950 . S
C314 C313 1.349 . S
C314 C326 1.349 . S
C315 C313 1.327 . S
C315 C331 1.429 . S
C315 H337 0.950 . S
C316 H312 0.949 . S
C316 C324 1.574 . S
C316 C332 1.368 . S
H317 C325 0.950 . S
H318 C323 0.950 . S
H319 C324 0.949 . S
H320 C326 0.950 . S
H321 C327 0.950 . S
H322 C328 0.949 . S
C323 H318 0.950 . S
C323 C325 1.327 . S
C323 C329 1.429 . S
C324 C316 1.574 . S
C324 H319 0.949 . S
C324 C330 1.368 . S
C325 C309 1.349 . S
C325 H317 0.950 . S
C325 C323 1.327 . S
C326 C314 1.349 . S
C326 H320 0.950 . S
C326 C327 1.327 . S
C327 H321 0.950 . S
C327 C326 1.327 . S
C327 C331 1.429 . S
C328 C311 1.574 . S
C328 H322 0.949 . S
C328 C332 1.368 . S
C329 C310 1.429 . S
C329 C323 1.429 . S
C329 C330 1.523 . S
C330 C311 1.368 . S
C330 C324 1.368 . S
C330 C329 1.523 . S
C331 C315 1.429 . S
C331 C327 1.429 . S
C331 C332 1.523 . S
C332 C316 1.368 . S
C332 C328 1.368 . S
C332 C331 1.523 . S
H333 C308 0.950 . S
H334 C310 0.950 . S
H335 C311 0.949 . S
H336 C313 0.950 . S
H337 C315 0.950 . S
C338 C339 1.349 . S
C338 C340 1.327 . S
C338 H363 0.950 . S
C339 C338 1.349 . S
C339 C355 1.349 . S
C340 C338 1.327 . S
C340 C359 1.429 . S
C340 H364 0.950 . S
C341 C358 1.574 . S
C341 C360 1.368 . S
C341 H365 0.949 . S
H342 C346 0.949 . S
C343 C344 1.353 . S
C343 C345 1.327 . S
C343 H366 0.950 . S
C344 C343 1.353 . S
C344 C356 1.342 1_556 S
C345 C343 1.327 . S
C345 C361 1.429 . S
C345 H367 0.950 . S
C346 H342 0.949 . S
C346 C354 1.574 . S
C346 C362 1.368 . S
H347 C355 0.950 . S
H348 C353 0.950 . S
H349 C354 0.949 . S
H350 C356 0.972 . S
H351 C357 0.950 . S
H352 C358 0.949 . S
C353 H348 0.950 . S
C353 C355 1.327 . S
C353 C359 1.429 . S
C354 C346 1.574 . S
C354 H349 0.949 . S
C354 C360 1.368 . S
C355 C339 1.349 . S
C355 H347 0.950 . S
C355 C353 1.327 . S
C356 C344 1.342 1_554 S
C356 H350 0.972 . S
C356 C357 1.312 1_554 S
C357 H351 0.950 . S
C357 C356 1.312 1_556 S
C357 C361 1.429 . S
C358 C341 1.574 . S
C358 H352 0.949 . S
C358 C362 1.368 . S
C359 C340 1.429 . S
C359 C353 1.429 . S
C359 C360 1.523 . S
C360 C341 1.368 . S
C360 C354 1.368 . S
C360 C359 1.523 . S
C361 C345 1.429 . S
C361 C357 1.429 . S
C361 C362 1.523 . S
C362 C346 1.368 . S
C362 C358 1.368 . S
C362 C361 1.523 . S
H363 C338 0.950 . S
H364 C340 0.950 . S
H365 C341 0.949 . S
H366 C343 0.950 . S
H367 C345 0.950 . S
C368 C369 1.349 . S
C368 C370 1.327 . S
C368 H393 0.950 . S
C369 C368 1.349 . S
C369 C385 1.349 . S
C370 C368 1.327 . S
C370 C389 1.429 . S
C370 H394 0.950 . S
C371 C388 1.574 . S
C371 C390 1.368 . S
C371 H395 0.949 . S
H372 C376 0.949 . S
C373 C374 1.349 . S
C373 C375 1.327 . S
C373 H396 0.950 . S
C374 C373 1.349 . S
C374 C386 1.349 . S
C375 C373 1.327 . S
C375 C391 1.429 . S
C375 H397 0.950 . S
C376 H372 0.949 . S
C376 C384 1.574 . S
C376 C392 1.368 . S
H377 C385 0.950 . S
H378 C383 0.950 . S
H379 C384 0.949 . S
H380 C386 0.950 1_545 S
H381 C387 0.950 . S
H382 C388 0.949 . S
C383 H378 0.950 . S
C383 C385 1.327 . S
C383 C389 1.429 . S
C384 C376 1.574 . S
C384 H379 0.949 . S
C384 C390 1.368 . S
C385 C369 1.349 . S
C385 H377 0.950 . S
C385 C383 1.327 . S
C386 C374 1.349 . S
C386 H380 0.950 1_565 S
C386 C387 1.327 . S
C387 H381 0.950 . S
C387 C386 1.327 . S
C387 C391 1.429 . S
C388 C371 1.574 . S
C388 H382 0.949 . S
C388 C392 1.368 . S
C389 C370 1.429 . S
C389 C383 1.429 . S
C389 C390 1.523 . S
C390 C371 1.368 . S
C390 C384 1.368 . S
C390 C389 1.523 . S
C391 C375 1.429 . S
C391 C387 1.429 . S
C391 C392 1.523 . S
C392 C376 1.368 . S
C392 C388 1.368 . S
C392 C391 1.523 . S
H393 C368 0.950 . S
H394 C370 0.950 . S
H395 C371 0.949 . S
H396 C373 0.950 . S
H397 C375 0.950 . S
C398 C399 1.349 . S
C398 C400 1.327 . S
C398 H423 0.950 . S
C399 C398 1.349 . S
C399 C415 1.349 . S
C400 C398 1.327 . S
C400 C419 1.429 . S
C400 H424 0.950 . S
C401 C418 1.574 . S
C401 C420 1.368 . S
C401 H425 0.949 . S
H402 C406 0.949 . S
C403 C404 1.349 . S
C403 C405 1.327 . S
C403 H426 0.950 . S
C404 C403 1.349 . S
C404 C416 1.349 . S
C405 C403 1.327 . S
C405 C421 1.429 . S
C405 H427 0.950 . S
C406 H402 0.949 . S
C406 C414 1.574 . S
C406 C422 1.368 . S
H407 C415 0.950 . S
H408 C413 0.950 . S
H409 C414 0.949 . S
H410 C416 0.950 . S
H411 C417 0.950 . S
H412 C418 0.949 . S
C413 H408 0.950 . S
C413 C415 1.327 . S
C413 C419 1.429 . S
C414 C406 1.574 . S
C414 H409 0.949 . S
C414 C420 1.368 . S
C415 C399 1.349 . S
C415 H407 0.950 . S
C415 C413 1.327 . S
C416 C404 1.349 . S
C416 H410 0.950 . S
C416 C417 1.327 . S
C417 H411 0.950 . S
C417 C416 1.327 . S
C417 C421 1.429 . S
C418 C401 1.574 . S
C418 H412 0.949 . S
C418 C422 1.368 . S
C419 C400 1.429 . S
C419 C413 1.429 . S
C419 C420 1.523 . S
C420 C401 1.368 . S
C420 C414 1.368 . S
C420 C419 1.523 . S
C421 C405 1.429 . S
C421 C417 1.429 . S
C421 C422 1.523 . S
C422 C406 1.368 . S
C422 C418 1.368 . S
C422 C421 1.523 . S
H423 C398 0.950 . S
H424 C400 0.950 . S
H425 C401 0.949 . S
H426 C403 0.950 . S
H427 C405 0.950 . S
C428 C429 1.349 . S
C428 C430 1.327 . S
C428 H453 0.950 . S
C429 C428 1.349 . S
C429 C445 1.349 . S
C430 C428 1.327 . S
C430 C449 1.429 . S
C430 H454 0.950 . S
C431 C448 1.574 . S
C431 C450 1.368 . S
C431 H455 0.949 . S
H432 C436 0.949 . S
C433 C434 1.349 . S
C433 C435 1.327 . S
C433 H456 0.950 . S
C434 C433 1.349 . S
C434 C446 1.349 . S
C435 C433 1.327 . S
C435 C451 1.429 . S
C435 H457 0.950 . S
C436 H432 0.949 . S
C436 C444 1.574 . S
C436 C452 1.368 . S
H437 C445 0.950 . S
H438 C443 0.950 . S
H439 C444 0.949 . S
H440 C446 0.950 . S
H441 C447 0.950 . S
H442 C448 0.949 . S
C443 H438 0.950 . S
C443 C445 1.327 . S
C443 C449 1.429 . S
C444 C436 1.574 . S
C444 H439 0.949 . S
C444 C450 1.368 . S
C445 C429 1.349 . S
C445 H437 0.950 . S
C445 C443 1.327 . S
C446 C434 1.349 . S
C446 H440 0.950 . S
C446 C447 1.327 . S
C447 H441 0.950 . S
C447 C446 1.327 . S
C447 C451 1.429 . S
C448 C431 1.574 . S
C448 H442 0.949 . S
C448 C452 1.368 . S
C449 C430 1.429 . S
C449 C443 1.429 . S
C449 C450 1.523 . S
C450 C431 1.368 . S
C450 C444 1.368 . S
C450 C449 1.523 . S
C451 C435 1.429 . S
C451 C447 1.429 . S
C451 C452 1.523 . S
C452 C436 1.368 . S
C452 C448 1.368 . S
C452 C451 1.523 . S
H453 C428 0.950 . S
H454 C430 0.950 . S
H455 C431 0.949 . S
H456 C433 0.950 . S
H457 C435 0.950 . S
C458 C459 1.349 . S
C458 C460 1.327 . S
C458 H483 0.950 . S
C459 C458 1.349 . S
C459 C475 1.349 . S
C460 C458 1.327 . S
C460 C479 1.429 . S
C460 H484 0.950 . S
C461 C478 1.574 . S
C461 C480 1.368 . S
C461 H485 0.949 . S
H462 C466 0.949 . S
C463 C464 1.349 . S
C463 C465 1.327 . S
C463 H486 0.950 . S
C464 C463 1.349 . S
C464 C476 1.349 . S
C465 C463 1.327 . S
C465 C481 1.429 . S
C465 H487 0.950 . S
C466 H462 0.949 . S
C466 C474 1.574 . S
C466 C482 1.368 . S
H467 C475 0.950 . S
H468 C473 0.950 . S
H469 C474 0.949 . S
H470 C476 0.950 . S
H471 C477 0.950 . S
H472 C478 0.949 . S
C473 H468 0.950 . S
C473 C475 1.327 . S
C473 C479 1.429 . S
C474 C466 1.574 . S
C474 H469 0.949 . S
C474 C480 1.368 . S
C475 C459 1.349 . S
C475 H467 0.950 . S
C475 C473 1.327 . S
C476 C464 1.349 . S
C476 H470 0.950 . S
C476 C477 1.327 . S
C477 H471 0.950 . S
C477 C476 1.327 . S
C477 C481 1.429 . S
C478 C461 1.574 . S
C478 H472 0.949 . S
C478 C482 1.368 . S
C479 C460 1.429 . S
C479 C473 1.429 . S
C479 C480 1.523 . S
C480 C461 1.368 . S
C480 C474 1.368 . S
C480 C479 1.523 . S
C481 C465 1.429 . S
C481 C477 1.429 . S
C481 C482 1.523 . S
C482 C466 1.368 . S
C482 C478 1.368 . S
C482 C481 1.523 . S
H483 C458 0.950 . S
H484 C460 0.950 . S
H485 C461 0.949 . S
H486 C463 0.950 . S
H487 C465 0.950 . S
C488 C489 1.349 . S
C488 C490 1.327 . S
C488 H513 0.950 . S
C489 C488 1.349 . S
C489 C505 1.349 . S
C490 C488 1.327 . S
C490 C509 1.429 . S
C490 H514 0.950 . S
C491 C508 1.574 . S
C491 C510 1.368 . S
C491 H515 0.949 . S
H492 C496 0.949 . S
C493 C494 1.349 . S
C493 C495 1.327 . S
C493 H516 0.950 . S
C494 C493 1.349 . S
C494 C506 1.349 . S
C495 C493 1.327 . S
C495 C511 1.429 . S
C495 H517 0.950 . S
C496 H492 0.949 . S
C496 C504 1.574 . S
C496 C512 1.368 . S
H497 C505 0.950 . S
H498 C503 0.950 . S
H499 C504 0.949 . S
H500 C506 0.950 . S
H501 C507 0.950 . S
H502 C508 0.949 . S
C503 H498 0.950 . S
C503 C505 1.327 . S
C503 C509 1.429 . S
C504 C496 1.574 . S
C504 H499 0.949 . S
C504 C510 1.368 . S
C505 C489 1.349 . S
C505 H497 0.950 . S
C505 C503 1.327 . S
C506 C494 1.349 . S
C506 H500 0.950 . S
C506 C507 1.327 . S
C507 H501 0.950 . S
C507 C506 1.327 . S
C507 C511 1.429 . S
C508 C491 1.574 . S
C508 H502 0.949 . S
C508 C512 1.368 . S
C509 C490 1.429 . S
C509 C503 1.429 . S
C509 C510 1.523 . S
C510 C491 1.368 . S
C510 C504 1.368 . S
C510 C509 1.523 . S
C511 C495 1.429 . S
C511 C507 1.429 . S
C511 C512 1.523 . S
C512 C496 1.368 . S
C512 C508 1.368 . S
C512 C511 1.523 . S
H513 C488 0.950 . S
H514 C490 0.950 . S
H515 C491 0.949 . S
H516 C493 0.950 . S
H517 C495 0.950 . S
C518 C519 1.349 . S
C518 C520 1.327 . S
C518 H543 0.950 . S
C519 C518 1.349 . S
C519 C535 1.349 . S
C520 C518 1.327 . S
C520 C539 1.429 . S
C520 H544 0.950 . S
C521 C538 1.574 . S
C521 C540 1.368 . S
C521 H545 0.949 . S
H522 C526 0.949 . S
C523 C524 1.349 . S
C523 C525 1.327 . S
C523 H546 0.950 . S
C524 C523 1.349 . S
C524 C536 1.349 . S
C525 C523 1.327 . S
C525 C541 1.429 . S
C525 H547 0.950 . S
C526 H522 0.949 . S
C526 C534 1.574 . S
C526 C542 1.368 . S
H527 C535 0.950 . S
H528 C533 0.950 . S
H529 C534 0.949 . S
H530 C536 0.950 . S
H531 C537 0.950 . S
H532 C538 0.949 . S
C533 H528 0.950 . S
C533 C535 1.327 . S
C533 C539 1.429 . S
C534 C526 1.574 . S
C534 H529 0.949 . S
C534 C540 1.368 . S
C535 C519 1.349 . S
C535 H527 0.950 . S
C535 C533 1.327 . S
C536 C524 1.349 . S
C536 H530 0.950 . S
C536 C537 1.327 . S
C537 H531 0.950 . S
C537 C536 1.327 . S
C537 C541 1.429 . S
C538 C521 1.574 . S
C538 H532 0.949 . S
C538 C542 1.368 . S
C539 C520 1.429 . S
C539 C533 1.429 . S
C539 C540 1.523 . S
C540 C521 1.368 . S
C540 C534 1.368 . S
C540 C539 1.523 . S
C541 C525 1.429 . S
C541 C537 1.429 . S
C541 C542 1.523 . S
C542 C526 1.368 . S
C542 C538 1.368 . S
C542 C541 1.523 . S
H543 C518 0.950 . S
H544 C520 0.950 . S
H545 C521 0.949 . S
H546 C523 0.950 . S
H547 C525 0.950 . S
C548 C549 1.349 . S
C548 C550 1.327 . S
C548 H573 0.950 . S
C549 C548 1.349 . S
C549 C565 1.349 . S
C550 C548 1.327 . S
C550 C569 1.429 . S
C550 H574 0.950 . S
C551 C568 1.574 . S
C551 C570 1.368 . S
C551 H575 0.949 . S
H552 C556 0.949 . S
C553 C554 1.349 . S
C553 C555 1.327 . S
C553 H576 0.950 . S
C554 C553 1.349 . S
C554 C566 1.349 . S
C555 C553 1.327 . S
C555 C571 1.429 . S
C555 H577 0.950 . S
C556 H552 0.949 . S
C556 C564 1.574 . S
C556 C572 1.368 . S
H557 C565 0.950 . S
H558 C563 0.950 . S
H559 C564 0.949 . S
H560 C566 0.950 . S
H561 C567 0.950 . S
H562 C568 0.949 . S
C563 H558 0.950 . S
C563 C565 1.327 . S
C563 C569 1.429 . S
C564 C556 1.574 . S
C564 H559 0.949 . S
C564 C570 1.368 . S
C565 C549 1.349 . S
C565 H557 0.950 . S
C565 C563 1.327 . S
C566 C554 1.349 . S
C566 H560 0.950 . S
C566 C567 1.327 . S
C567 H561 0.950 . S
C567 C566 1.327 . S
C567 C571 1.429 . S
C568 C551 1.574 . S
C568 H562 0.949 . S
C568 C572 1.368 . S
C569 C550 1.429 . S
C569 C563 1.429 . S
C569 C570 1.523 . S
C570 C551 1.368 . S
C570 C564 1.368 . S
C570 C569 1.523 . S
C571 C555 1.429 . S
C571 C567 1.429 . S
C571 C572 1.523 . S
C572 C556 1.368 . S
C572 C568 1.368 . S
C572 C571 1.523 . S
H573 C548 0.950 . S
H574 C550 0.950 . S
H575 C551 0.949 . S
H576 C553 0.950 . S
H577 C555 0.950 . S
C578 C579 1.349 . S
C578 C580 1.327 . S
C578 H603 0.950 . S
C579 C578 1.349 . S
C579 C595 1.349 . S
C580 C578 1.327 . S
C580 C599 1.429 . S
C580 H604 0.950 . S
C581 C598 1.574 . S
C581 C600 1.368 . S
C581 H605 0.949 . S
H582 C586 0.949 . S
C583 C584 1.349 . S
C583 C585 1.327 . S
C583 H606 0.960 . S
C584 C583 1.349 . S
C584 C596 1.349 . S
C585 C583 1.327 . S
C585 C601 1.429 . S
C585 H607 0.950 . S
C586 H582 0.949 . S
C586 C594 1.574 . S
C586 C602 1.368 . S
H587 C595 0.950 . S
H588 C593 0.950 . S
H589 C594 0.949 . S
H590 C596 0.950 . S
H591 C597 0.950 . S
H592 C598 0.949 . S
C593 H588 0.950 . S
C593 C595 1.327 . S
C593 C599 1.429 . S
C594 C586 1.574 . S
C594 H589 0.949 . S
C594 C600 1.368 . S
C595 C579 1.349 . S
C595 H587 0.950 . S
C595 C593 1.327 . S
C596 C584 1.349 . S
C596 H590 0.950 . S
C596 C597 1.327 . S
C597 H591 0.950 . S
C597 C596 1.327 . S
C597 C601 1.429 . S
C598 C581 1.574 . S
C598 H592 0.949 . S
C598 C602 1.368 . S
C599 C580 1.429 . S
C599 C593 1.429 . S
C599 C600 1.523 . S
C600 C581 1.368 . S
C600 C594 1.368 . S
C600 C599 1.523 . S
C601 C585 1.429 . S
C601 C597 1.429 . S
C601 C602 1.523 . S
C602 C586 1.368 . S
C602 C598 1.368 . S
C602 C601 1.523 . S
H603 C578 0.950 . S
H604 C580 0.950 . S
H605 C581 0.949 . S
H606 C583 0.960 . S
H607 C585 0.950 . S
C608 C609 1.349 . S
C608 C610 1.327 . S
C608 H633 0.950 . S
C609 C608 1.349 . S
C609 C625 1.349 . S
C610 C608 1.327 . S
C610 C629 1.429 . S
C610 H634 0.950 . S
C611 C628 1.574 . S
C611 C630 1.368 . S
C611 H635 0.949 . S
H612 C616 0.949 . S
C613 C614 1.349 . S
C613 C615 1.327 . S
C613 H636 0.950 . S
C614 C613 1.349 . S
C614 C626 1.349 . S
C615 C613 1.327 . S
C615 C631 1.429 . S
C615 H637 0.950 . S
C616 H612 0.949 . S
C616 C624 1.574 . S
C616 C632 1.368 . S
H617 C625 0.950 . S
H618 C623 0.950 . S
H619 C624 0.949 . S
H620 C626 0.950 . S
H621 C627 0.950 . S
H622 C628 0.949 . S
C623 H618 0.950 . S
C623 C625 1.327 . S
C623 C629 1.429 . S
C624 C616 1.574 . S
C624 H619 0.949 . S
C624 C630 1.368 . S
C625 C609 1.349 . S
C625 H617 0.950 . S
C625 C623 1.327 . S
C626 C614 1.349 . S
C626 H620 0.950 . S
C626 C627 1.327 . S
C627 H621 0.950 . S
C627 C626 1.327 . S
C627 C631 1.429 . S
C628 C611 1.574 . S
C628 H622 0.949 . S
C628 C632 1.368 . S
C629 C610 1.429 . S
C629 C623 1.429 . S
C629 C630 1.523 . S
C630 C611 1.368 . S
C630 C624 1.368 . S
C630 C629 1.523 . S
C631 C615 1.429 . S
C631 C627 1.429 . S
C631 C632 1.523 . S
C632 C616 1.368 . S
C632 C628 1.368 . S
C632 C631 1.523 . S
H633 C608 0.950 . S
H634 C610 0.950 . S
H635 C611 0.949 . S
H636 C613 0.950 . S
H637 C615 0.950 . S
C638 C639 1.349 . S
C638 C640 1.327 . S
C638 H663 0.950 . S
C639 C638 1.349 . S
C639 C655 1.349 . S
C640 C638 1.327 . S
C640 C659 1.429 . S
C640 H664 0.950 . S
C641 C658 1.574 . S
C641 C660 1.368 . S
C641 H665 0.949 . S
H642 C646 0.949 . S
C643 C644 1.349 . S
C643 C645 1.327 . S
C643 H666 0.950 . S
C644 C643 1.349 . S
C644 C656 1.349 . S
C645 C643 1.327 . S
C645 C661 1.429 . S
C645 H667 0.950 . S
C646 H642 0.949 . S
C646 C654 1.574 . S
C646 C662 1.368 . S
H647 C655 0.950 . S
H648 C653 0.950 . S
H649 C654 0.949 . S
H650 C656 0.950 . S
H651 C657 0.950 . S
H652 C658 0.949 . S
C653 H648 0.950 . S
C653 C655 1.327 . S
C653 C659 1.429 . S
C654 C646 1.574 . S
C654 H649 0.949 . S
C654 C660 1.368 . S
C655 C639 1.349 . S
C655 H647 0.950 . S
C655 C653 1.327 . S
C656 C644 1.349 . S
C656 H650 0.950 . S
C656 C657 1.327 . S
C657 H651 0.950 . S
C657 C656 1.327 . S
C657 C661 1.429 . S
C658 C641 1.574 . S
C658 H652 0.949 . S
C658 C662 1.368 . S
C659 C640 1.429 . S
C659 C653 1.429 . S
C659 C660 1.523 . S
C660 C641 1.368 . S
C660 C654 1.368 . S
C660 C659 1.523 . S
C661 C645 1.429 . S
C661 C657 1.429 . S
C661 C662 1.523 . S
C662 C646 1.368 . S
C662 C658 1.368 . S
C662 C661 1.523 . S
H663 C638 0.950 . S
H664 C640 0.950 . S
H665 C641 0.949 . S
H666 C643 0.950 . S
H667 C645 0.950 . S
C668 C669 1.349 . S
C668 C670 1.327 . S
C668 H693 0.950 . S
C669 C668 1.349 . S
C669 C685 1.349 . S
C670 C668 1.327 . S
C670 C689 1.429 . S
C670 H694 0.950 . S
C671 C688 1.574 . S
C671 C690 1.368 . S
C671 H695 0.949 . S
H672 C676 0.949 . S
C673 C674 1.349 . S
C673 C675 1.327 . S
C673 H696 0.950 . S
C674 C673 1.349 . S
C674 C686 1.349 . S
C675 C673 1.327 . S
C675 C691 1.429 . S
C675 H697 0.950 . S
C676 H672 0.949 . S
C676 C684 1.574 . S
C676 C692 1.368 . S
H677 C685 0.950 . S
H678 C683 0.950 . S
H679 C684 0.949 . S
H680 C686 0.950 . S
H681 C687 0.950 . S
H682 C688 0.949 . S
C683 H678 0.950 . S
C683 C685 1.327 . S
C683 C689 1.429 . S
C684 C676 1.574 . S
C684 H679 0.949 . S
C684 C690 1.368 . S
C685 C669 1.349 . S
C685 H677 0.950 . S
C685 C683 1.327 . S
C686 C674 1.349 . S
C686 H680 0.950 . S
C686 C687 1.327 . S
C687 H681 0.950 . S
C687 C686 1.327 . S
C687 C691 1.429 . S
C688 C671 1.574 . S
C688 H682 0.949 . S
C688 C692 1.368 . S
C689 C670 1.429 . S
C689 C683 1.429 . S
C689 C690 1.523 . S
C690 C671 1.368 . S
C690 C684 1.368 . S
C690 C689 1.523 . S
C691 C675 1.429 . S
C691 C687 1.429 . S
C691 C692 1.523 . S
C692 C676 1.368 . S
C692 C688 1.368 . S
C692 C691 1.523 . S
H693 C668 0.950 . S
H694 C670 0.950 . S
H695 C671 0.949 . S
H696 C673 0.950 . S
H697 C675 0.950 . S
C698 C699 1.349 . S
C698 C700 1.327 . S
C698 H723 0.950 . S
C699 C698 1.349 . S
C699 C715 1.349 . S
C700 C698 1.327 . S
C700 C719 1.429 . S
C700 H724 0.950 . S
C701 C718 1.574 . S
C701 C720 1.368 . S
C701 H725 0.949 . S
H702 C706 0.949 . S
C703 C704 1.349 . S
C703 C705 1.327 . S
C703 H726 0.950 . S
C704 C703 1.349 . S
C704 C716 1.349 . S
C705 C703 1.327 . S
C705 C721 1.429 . S
C705 H727 0.950 . S
C706 H702 0.949 . S
C706 C714 1.574 . S
C706 C722 1.368 . S
H707 C715 0.950 . S
H708 C713 0.950 . S
H709 C714 0.949 . S
H710 C716 0.950 . S
H711 C717 0.950 . S
H712 C718 0.949 . S
C713 H708 0.950 . S
C713 C715 1.327 . S
C713 C719 1.429 . S
C714 C706 1.574 . S
C714 H709 0.949 . S
C714 C720 1.368 . S
C715 C699 1.349 . S
C715 H707 0.950 . S
C715 C713 1.327 . S
C716 C704 1.349 . S
C716 H710 0.950 . S
C716 C717 1.327 . S
C717 H711 0.950 . S
C717 C716 1.327 . S
C717 C721 1.429 . S
C718 C701 1.574 . S
C718 H712 0.949 . S
C718 C722 1.368 . S
C719 C700 1.429 . S
C719 C713 1.429 . S
C719 C720 1.523 . S
C720 C701 1.368 . S
C720 C714 1.368 . S
C720 C719 1.523 . S
C721 C705 1.429 . S
C721 C717 1.429 . S
C721 C722 1.523 . S
C722 C706 1.368 . S
C722 C718 1.368 . S
C722 C721 1.523 . S
H723 C698 0.950 . S
H724 C700 0.950 . S
H725 C701 0.949 . S
H726 C703 0.950 . S
H727 C705 0.950 . S
C728 C729 1.349 . S
C728 C730 1.327 . S
C728 H753 0.950 . S
C729 C728 1.349 . S
C729 C745 1.349 . S
C730 C728 1.327 . S
C730 C749 1.429 . S
C730 H754 0.950 . S
C731 C748 1.574 . S
C731 C750 1.368 . S
C731 H755 0.949 . S
H732 C736 0.949 . S
C733 C734 1.349 . S
C733 C735 1.327 . S
C733 H756 0.950 . S
C734 C733 1.349 . S
C734 C746 1.349 . S
C735 C733 1.327 . S
C735 C751 1.429 . S
C735 H757 0.950 . S
C736 H732 0.949 . S
C736 C744 1.574 . S
C736 C752 1.368 . S
H737 C745 0.950 . S
H738 C743 0.950 . S
H739 C744 0.949 . S
H740 C746 0.950 . S
H741 C747 0.950 . S
H742 C748 0.949 . S
C743 H738 0.950 . S
C743 C745 1.327 . S
C743 C749 1.429 . S
C744 C736 1.574 . S
C744 H739 0.949 . S
C744 C750 1.368 . S
C745 C729 1.349 . S
C745 H737 0.950 . S
C745 C743 1.327 . S
C746 C734 1.349 . S
C746 H740 0.950 . S
C746 C747 1.327 . S
C747 H741 0.950 . S
C747 C746 1.327 . S
C747 C751 1.429 . S
C748 C731 1.574 . S
C748 H742 0.949 . S
C748 C752 1.368 . S
C749 C730 1.429 . S
C749 C743 1.429 . S
C749 C750 1.523 . S
C750 C731 1.368 . S
C750 C744 1.368 . S
C750 C749 1.523 . S
C751 C735 1.429 . S
C751 C747 1.429 . S
C751 C752 1.523 . S
C752 C736 1.368 . S
C752 C748 1.368 . S
C752 C751 1.523 . S
H753 C728 0.950 . S
H754 C730 0.950 . S
H755 C731 0.949 . S
H756 C733 0.950 . S
H757 C735 0.950 . S
C758 C759 1.349 . S
C758 C760 1.327 . S
C758 H783 0.950 . S
C759 C758 1.349 . S
C759 C775 1.349 . S
C760 C758 1.327 . S
C760 C779 1.429 . S
C760 H784 0.950 . S
C761 C778 1.574 . S
C761 C780 1.368 . S
C761 H785 0.949 . S
H762 C766 0.949 . S
C763 C764 1.349 . S
C763 C765 1.327 . S
C763 H786 0.950 . S
C764 C763 1.349 . S
C764 C776 1.349 . S
C765 C763 1.327 . S
C765 C781 1.429 . S
C765 H787 0.950 . S
C766 H762 0.949 . S
C766 C774 1.574 . S
C766 C782 1.368 . S
H767 C775 0.950 . S
H768 C773 0.950 . S
H769 C774 0.949 . S
H770 C776 0.950 . S
H771 C777 0.950 . S
H772 C778 0.949 . S
C773 H768 0.950 . S
C773 C775 1.327 . S
C773 C779 1.429 . S
C774 C766 1.574 . S
C774 H769 0.949 . S
C774 C780 1.368 . S
C775 C759 1.349 . S
C775 H767 0.950 . S
C775 C773 1.327 . S
C776 C764 1.349 . S
C776 H770 0.950 . S
C776 C777 1.327 . S
C777 H771 0.950 . S
C777 C776 1.327 . S
C777 C781 1.429 . S
C778 C761 1.574 . S
C778 H772 0.949 . S
C778 C782 1.368 . S
C779 C760 1.429 . S
C779 C773 1.429 . S
C779 C780 1.523 . S
C780 C761 1.368 . S
C780 C774 1.368 . S
C780 C779 1.523 . S
C781 C765 1.429 . S
C781 C777 1.429 . S
C781 C782 1.523 . S
C782 C766 1.368 . S
C782 C778 1.368 . S
C782 C781 1.523 . S
H783 C758 0.950 . S
H784 C760 0.950 . S
H785 C761 0.949 . S
H786 C763 0.950 . S
H787 C765 0.950 . S
C788 C789 1.349 . S
C788 C790 1.327 . S
C788 H813 0.950 . S
C789 C788 1.349 . S
C789 C805 1.349 . S
C790 C788 1.327 . S
C790 C809 1.429 . S
C790 H814 0.950 . S
C791 C808 1.574 . S
C791 C810 1.368 . S
C791 H815 0.949 . S
H792 C796 0.949 . S
C793 C794 1.349 . S
C793 C795 1.327 . S
C793 H816 0.950 . S
C794 C793 1.349 . S
C794 C806 1.349 . S
C795 C793 1.327 . S
C795 C811 1.429 . S
C795 H817 0.950 . S
C796 H792 0.949 . S
C796 C804 1.574 . S
C796 C812 1.368 . S
H797 C805 0.950 . S
H798 C803 0.950 . S
H799 C804 0.949 . S
H800 C806 0.950 . S
H801 C807 0.950 . S
H802 C808 0.949 . S
C803 H798 0.950 . S
C803 C805 1.327 . S
C803 C809 1.429 . S
C804 C796 1.574 . S
C804 H799 0.949 . S
C804 C810 1.368 . S
C805 C789 1.349 . S
C805 H797 0.950 . S
C805 C803 1.327 . S
C806 C794 1.349 . S
C806 H800 0.950 . S
C806 C807 1.327 . S
C807 H801 0.950 . S
C807 C806 1.327 . S
C807 C811 1.429 . S
C808 C791 1.574 . S
C808 H802 0.949 . S
C808 C812 1.368 . S
C809 C790 1.429 . S
C809 C803 1.429 . S
C809 C810 1.523 . S
C810 C791 1.368 . S
C810 C804 1.368 . S
C810 C809 1.523 . S
C811 C795 1.429 . S
C811 C807 1.429 . S
C811 C812 1.523 . S
C812 C796 1.368 . S
C812 C808 1.368 . S
C812 C811 1.523 . S
H813 C788 0.950 . S
H814 C790 0.950 . S
H815 C791 0.949 . S
H816 C793 0.950 . S
H817 C795 0.950 . S
C818 C819 1.349 . S
C818 C820 1.327 . S
C818 H843 0.950 . S
C819 C818 1.349 . S
C819 C835 1.349 . S
C820 C818 1.327 . S
C820 C839 1.429 . S
C820 H844 0.950 . S
C821 C838 1.574 . S
C821 C840 1.368 . S
C821 H845 0.949 . S
H822 C826 0.949 . S
C823 C824 1.349 . S
C823 C825 1.327 . S
C823 H846 0.950 . S
C824 C823 1.349 . S
C824 C836 1.349 . S
C825 C823 1.327 . S
C825 C841 1.429 . S
C825 H847 0.950 . S
C826 H822 0.949 . S
C826 C834 1.574 . S
C826 C842 1.368 . S
H827 C835 0.950 . S
H828 C833 0.950 . S
H829 C834 0.949 . S
H830 C836 0.950 . S
H831 C837 0.950 . S
H832 C838 0.949 . S
C833 H828 0.950 . S
C833 C835 1.327 . S
C833 C839 1.429 . S
C834 C826 1.574 . S
C834 H829 0.949 . S
C834 C840 1.368 . S
C835 C819 1.349 . S
C835 H827 0.950 . S
C835 C833 1.327 . S
C836 C824 1.349 . S
C836 H830 0.950 . S
C836 C837 1.327 . S
C837 H831 0.950 . S
C837 C836 1.327 . S
C837 C841 1.429 . S
C838 C821 1.574 . S
C838 H832 0.949 . S
C838 C842 1.368 . S
C839 C820 1.429 . S
C839 C833 1.429 . S
C839 C840 1.523 . S
C840 C821 1.368 . S
C840 C834 1.368 . S
C840 C839 1.523 . S
C841 C825 1.429 . S
C841 C837 1.429 . S
C841 C842 1.523 . S
C842 C826 1.368 . S
C842 C838 1.368 . S
C842 C841 1.523 . S
H843 C818 0.950 . S
H844 C820 0.950 . S
H845 C821 0.949 . S
H846 C823 0.950 . S
H847 C825 0.950 . S
C848 C849 1.349 . S
C848 C850 1.327 . S
C848 H873 0.950 . S
C849 C848 1.349 . S
C849 C865 1.349 . S
C850 C848 1.327 . S
C850 C869 1.429 . S
C850 H874 0.950 . S
C851 C868 1.574 . S
C851 C870 1.368 . S
C851 H875 0.949 . S
H852 C856 0.949 . S
C853 C854 1.349 . S
C853 C855 1.327 . S
C853 H876 0.950 . S
C854 C853 1.349 . S
C854 C866 1.349 . S
C855 C853 1.327 . S
C855 C871 1.429 . S
C855 H877 0.950 . S
C856 H852 0.949 . S
C856 C864 1.574 . S
C856 C872 1.368 . S
H857 C865 0.950 . S
H858 C863 0.950 . S
H859 C864 0.949 . S
H860 C866 0.950 . S
H861 C867 0.950 . S
H862 C868 0.949 . S
C863 H858 0.950 . S
C863 C865 1.327 . S
C863 C869 1.429 . S
C864 C856 1.574 . S
C864 H859 0.949 . S
C864 C870 1.368 . S
C865 C849 1.349 . S
C865 H857 0.950 . S
C865 C863 1.327 . S
C866 C854 1.349 . S
C866 H860 0.950 . S
C866 C867 1.327 . S
C867 H861 0.950 . S
C867 C866 1.327 . S
C867 C871 1.429 . S
C868 C851 1.574 . S
C868 H862 0.949 . S
C868 C872 1.368 . S
C869 C850 1.429 . S
C869 C863 1.429 . S
C869 C870 1.523 . S
C870 C851 1.368 . S
C870 C864 1.368 . S
C870 C869 1.523 . S
C871 C855 1.429 . S
C871 C867 1.429 . S
C871 C872 1.523 . S
C872 C856 1.368 . S
C872 C868 1.368 . S
C872 C871 1.523 . S
H873 C848 0.950 . S
H874 C850 0.950 . S
H875 C851 0.949 . S
H876 C853 0.950 . S
H877 C855 0.950 . S
C878 C879 1.349 . S
C878 C880 1.327 . S
C878 H903 0.950 . S
C879 C878 1.349 . S
C879 C895 1.349 . S
C880 C878 1.327 . S
C880 C899 1.429 . S
C880 H904 0.950 . S
C881 C898 1.574 . S
C881 C900 1.368 . S
C881 H905 0.949 . S
H882 C886 0.949 . S
C883 C884 1.349 . S
C883 C885 1.327 1_554 S
C883 H906 0.950 . S
C884 C883 1.349 . S
C884 C896 1.349 1_554 S
C885 C883 1.327 1_556 S
C885 C901 1.429 . S
C885 H907 0.950 . S
C886 H882 0.949 . S
C886 C894 1.574 . S
C886 C902 1.368 . S
H887 C895 0.950 . S
H888 C893 0.950 . S
H889 C894 0.949 . S
H890 C896 0.950 . S
H891 C897 0.950 . S
H892 C898 0.949 . S
C893 H888 0.950 . S
C893 C895 1.327 . S
C893 C899 1.429 . S
C894 C886 1.574 . S
C894 H889 0.949 . S
C894 C900 1.368 . S
C895 C879 1.349 . S
C895 H887 0.950 . S
C895 C893 1.327 . S
C896 C884 1.349 1_556 S
C896 H890 0.950 . S
C896 C897 1.327 . S
C897 H891 0.950 . S
C897 C896 1.327 . S
C897 C901 1.429 . S
C898 C881 1.574 . S
C898 H892 0.949 . S
C898 C902 1.368 . S
C899 C880 1.429 . S
C899 C893 1.429 . S
C899 C900 1.523 . S
C900 C881 1.368 . S
C900 C894 1.368 . S
C900 C899 1.523 . S
C901 C885 1.429 . S
C901 C897 1.429 . S
C901 C902 1.523 . S
C902 C886 1.368 . S
C902 C898 1.368 . S
C902 C901 1.523 . S
H903 C878 0.950 . S
H904 C880 0.950 . S
H905 C881 0.949 . S
H906 C883 0.950 . S
H907 C885 0.950 . S
C194 C116 1.411 . S
C189 N2 1.419 . S
C224 C119 1.436 . S
C219 N15 1.437 . S
C254 C117 1.721 1_655 S
C249 N27 1.717 . S
C284 C118 1.458 . S
C279 N44 1.461 . S
C314 C133 1.686 . S
C309 N1 1.703 . S
C344 C147 1.722 1_556 S
C339 N18 1.723 . S
C369 N28 1.726 . S
C374 C173 1.700 1_565 S
C404 C187 1.510 . S
C399 N41 1.513 . S
C434 C132 1.640 . S
C429 N14 1.644 . S
C459 N31 1.855 . S
C464 C146 1.856 . S
C494 C172 1.771 . S
C489 N40 1.786 . S
C524 C186 1.605 . S
C519 N5 1.612 . S
C549 N53 1.695 . S
C554 C131 1.684 . S
C584 C104 1.677 1_655 S
C579 N70 1.673 . S
C609 N80 1.508 . S
C614 C130 1.503 . S
C639 N92 1.819 . S
C644 C105 1.821 . S
C674 C160 1.753 . S
C669 N57 1.773 . S
C704 C174 1.399 . S
C699 N67 1.400 . S
C734 C144 1.698 . S
C729 N83 1.721 . S
C759 N96 1.756 . S
C764 C158 1.753 . S
C794 C161 1.664 . S
C789 N66 1.677 . S
C824 C175 1.395 . S
C819 N79 1.395 . S
C854 C145 1.678 . S
C849 N93 1.702 . S
C879 N54 1.480 . S
C884 C159 1.471 . S
