# Generated by pormake.
# Topology zzz, (3,6)-cn, num edge types: 1
# Building blocks:
#     Node 0, Type 0, BuildingBlock: QEWDON_clean_linker_0, # of connection points: 3
#     Node 1, Type 0, BuildingBlock: QEWDON_clean_linker_0, # of connection points: 3
#     Node 2, Type 0, BuildingBlock: QEWDON_clean_linker_0, # of connection points: 3
#     Node 3, Type 0, BuildingBlock: QEWDON_clean_linker_0, # of connection points: 3
#     Node 4, Type 0, BuildingBlock: QEWDON_clean_linker_0, # of connection points: 3
#     Node 5, Type 0, BuildingBlock: QEWDON_clean_linker_0, # of connection points: 3
#     Node 6, Type 0, BuildingBlock: QEWDON_clean_linker_0, # of connection points: 3
#     Node 7, Type 0, BuildingBlock: QEWDON_clean_linker_0, # of connection points: 3
#     Node 8, Type 1, BuildingBlock: BETDIP_clean_sbu_0, # of connection points: 6
#     Node 9, Type 1, BuildingBlock: BETDIP_clean_sbu_0, # of connection points: 6
#     Node 10, Type 1, BuildingBlock: BETDIP_clean_sbu_0, # of connection points: 6
#     Node 11, Type 1, BuildingBlock: BETDIP_clean_sbu_0, # of connection points: 6
#     Edge 12, Type (0, 1), BuildingBlock: AJUNOK_clean_linker_0, # of connection points: 2
#     Edge 13, Type (0, 1), BuildingBlock: AJUNOK_clean_linker_0, # of connection points: 2
#     Edge 14, Type (0, 1), BuildingBlock: AJUNOK_clean_linker_0, # of connection points: 2
#     Edge 15, Type (0, 1), BuildingBlock: AJUNOK_clean_linker_0, # of connection points: 2
#     Edge 16, Type (0, 1), BuildingBlock: AJUNOK_clean_linker_0, # of connection points: 2
#     Edge 17, Type (0, 1), BuildingBlock: AJUNOK_clean_linker_0, # of connection points: 2
#     Edge 18, Type (0, 1), BuildingBlock: AJUNOK_clean_linker_0, # of connection points: 2
#     Edge 19, Type (0, 1), BuildingBlock: AJUNOK_clean_linker_0, # of connection points: 2
#     Edge 20, Type (0, 1), BuildingBlock: AJUNOK_clean_linker_0, # of connection points: 2
#     Edge 21, Type (0, 1), BuildingBlock: AJUNOK_clean_linker_0, # of connection points: 2
#     Edge 22, Type (0, 1), BuildingBlock: AJUNOK_clean_linker_0, # of connection points: 2
#     Edge 23, Type (0, 1), BuildingBlock: AJUNOK_clean_linker_0, # of connection points: 2
#     Edge 24, Type (0, 1), BuildingBlock: AJUNOK_clean_linker_0, # of connection points: 2
#     Edge 25, Type (0, 1), BuildingBlock: AJUNOK_clean_linker_0, # of connection points: 2
#     Edge 26, Type (0, 1), BuildingBlock: AJUNOK_clean_linker_0, # of connection points: 2
#     Edge 27, Type (0, 1), BuildingBlock: AJUNOK_clean_linker_0, # of connection points: 2
#     Edge 28, Type (0, 1), BuildingBlock: AJUNOK_clean_linker_0, # of connection points: 2
#     Edge 29, Type (0, 1), BuildingBlock: AJUNOK_clean_linker_0, # of connection points: 2
#     Edge 30, Type (0, 1), BuildingBlock: AJUNOK_clean_linker_0, # of connection points: 2
#     Edge 31, Type (0, 1), BuildingBlock: AJUNOK_clean_linker_0, # of connection points: 2
#     Edge 32, Type (0, 1), BuildingBlock: AJUNOK_clean_linker_0, # of connection points: 2
#     Edge 33, Type (0, 1), BuildingBlock: AJUNOK_clean_linker_0, # of connection points: 2
#     Edge 34, Type (0, 1), BuildingBlock: AJUNOK_clean_linker_0, # of connection points: 2
#     Edge 35, Type (0, 1), BuildingBlock: AJUNOK_clean_linker_0, # of connection points: 2
# Relax obj value: 0.234
# Max RMSD: 0.168
# Mean RMSD: 0.109
data_MOF--net-zzz--node1-BETDIP_clean_sbu_0--node2-QEWDON_clean_linker_0--edge1-AJUNOK_clean_linker_0
_symmetry_space_group_name_H-M    P1
_symmetry_Int_Tables_number       1
_symmetry_cell_setting            triclinic
loop_
_symmetry_equiv_pos_as_xyz
'x, y, z'
_cell_length_a     40.729139
_cell_length_b     40.614063
_cell_length_c     10.022697
_cell_angle_alpha  89.96208
_cell_angle_beta   89.527565
_cell_angle_gamma 89.927309
loop_
_atom_site_label
_atom_site_type_symbol
_atom_site_fract_x
_atom_site_fract_y
_atom_site_fract_z
_atom_type_partial_charge
H0 H 0.76038 0.48657 0.26179 0.0
C1 C 0.78034 0.49783 0.31557 0.0
C2 C 0.81069 0.48165 0.31454 0.0
C3 C 0.77618 0.52815 0.38289 0.0
H4 H 0.86077 0.4828 0.38028 0.0
C5 C 0.837 0.49492 0.3852 0.0
C6 C 0.8344 0.52475 0.45299 0.0
C7 C 0.804 0.54177 0.45017 0.0
C8 C 0.74285 0.54488 0.38336 0.0
H9 H 0.80232 0.56533 0.49985 0.0
C10 C 0.71919 0.53937 0.28123 0.0
C11 C 0.68738 0.55372 0.28752 0.0
C12 C 0.73379 0.56567 0.48983 0.0
H13 H 0.75023 0.57019 0.57197 0.0
C14 C 0.70286 0.58049 0.49459 0.0
H15 H 0.72516 0.52389 0.19694 0.0
C16 C 0.67981 0.57437 0.39568 0.0
H17 H 0.65605 0.58631 0.40296 0.0
H18 H 0.69656 0.59672 0.57641 0.0
H19 H 0.0751 0.76695 0.28586 0.0
C20 C 0.06384 0.78836 0.3311 0.0
C21 C 0.08273 0.81694 0.34005 0.0
C22 C 1.03121 0.78756 0.38107 0.0
H23 H 0.08365 0.86768 0.39967 0.0
C24 C 0.06931 0.84518 0.39848 0.0
C25 C 0.03832 0.8453 0.45819 0.0
C26 C 1.01871 0.81664 0.44613 0.0
C27 C 1.01115 0.75619 0.36793 0.0
H28 H 0.9942 0.81729 0.48808 0.0
C29 C 1.01836 0.73164 0.2695 0.0
C30 C 1.00001 0.70194 0.26097 0.0
C31 C 0.98487 0.75 0.45657 0.0
H32 H 0.97883 0.7668 0.53661 0.0
C33 C 0.96587 0.72161 0.4451 0.0
H34 H 1.03815 0.73531 0.19881 0.0
C35 C 0.97301 0.69809 0.34788 0.0
H36 H 0.95689 0.67704 0.34025 0.0
H37 H 0.94535 0.71777 0.51265 0.0
H38 H 0.80902 0.09305 0.35846 0.0
C39 C 0.78956 0.08068 0.41288 0.0
C40 C 0.75915 0.09674 0.42685 0.0
C41 C 0.79451 0.04893 0.46793 0.0
H42 H 0.70982 0.09307 0.50482 0.0
C43 C 0.73374 0.08133 0.4979 0.0
C44 C 0.73696 0.04969 0.5485 0.0
C45 C 0.76737 1.03328 0.53375 0.0
C46 C 0.82781 1.03248 0.45799 0.0
H47 H 0.76946 1.00833 0.57046 0.0
C48 C 0.85022 1.03856 0.35059 0.0
C49 C 0.88191 1.02378 0.34739 0.0
C50 C 0.83793 1.011 0.56006 0.0
H51 H 0.82225 1.00599 0.64535 0.0
C52 C 0.86882 0.99612 0.55608 0.0
H53 H 0.84321 0.05457 0.26949 0.0
C54 C 0.89069 1.00264 0.45191 0.0
H55 H 0.91439 0.99048 0.45173 0.0
H56 H 0.87595 0.97939 0.63468 0.0
H57 H 0.47849 0.80975 0.30909 0.0
C58 C 0.48869 0.78911 0.36342 0.0
C59 C 0.4726 0.7588 0.35751 0.0
C60 C 0.51727 0.7929 0.44078 0.0
H61 H 0.47315 0.70802 0.41713 0.0
C62 C 0.48529 0.7317 0.42621 0.0
C63 C 0.51413 0.73369 0.49978 0.0
C64 C 0.52996 0.76475 0.50969 0.0
C65 C 0.53221 0.82673 0.45245 0.0
H66 H 0.55228 0.76674 0.56701 0.0
C67 C 0.53224 0.8493 0.34366 0.0
C68 C 0.54103 0.88298 0.36023 0.0
C69 C 0.54342 0.83789 0.57642 0.0
H70 H 0.54344 0.82172 0.66236 0.0
C71 C 0.55335 0.87054 0.59287 0.0
H72 H 0.52543 0.84038 0.24615 0.0
C73 C 0.55186 0.89288 0.48696 0.0
H74 H 0.55862 0.91817 0.50592 0.0
H75 H 0.56145 0.87886 0.68976 0.0
H76 H 0.3044 0.59075 0.24972 0.0
C77 C 0.28499 0.58135 0.18752 0.0
C78 C 0.25719 0.60112 0.17021 0.0
C79 C 0.2873 0.54993 0.12798 0.0
H80 H 0.20968 0.60531 0.0787 0.0
C81 C 0.23171 0.59041 0.08776 0.0
C82 C 0.23211 0.55929 0.02934 0.0
C83 C 0.25984 0.53873 0.05105 0.0
C84 C 0.31844 0.52966 0.14516 0.0
H85 H 0.25959 0.51417 0.00946 0.0
C86 C 0.34065 0.53432 0.25397 0.0
C87 C 0.37105 0.51704 0.26061 0.0
C88 C 0.32735 0.50653 0.04677 0.0
H89 H 0.31213 0.5024 0.96053 0.0
C90 C 0.35673 0.48898 0.05464 0.0
H91 H 0.33478 0.55149 0.3329 0.0
C92 C 0.3784 0.49429 0.15925 0.0
H93 H 0.40102 0.48023 0.16132 0.0
H94 H 0.36302 0.47136 0.97753 0.0
H95 H 0.08512 0.31996 0.31348 0.0
C96 C 0.07762 0.29855 0.25728 0.0
C97 C 0.085 0.26806 0.3103 0.0
C98 C 0.05852 0.3015 0.14208 0.0
H99 H 0.08222 0.21569 0.2824 0.0
C100 C 0.0777 0.23949 0.23732 0.0
C101 C 0.06232 0.24063 0.11258 0.0
C102 C 0.05164 0.27222 0.0666 0.0
C103 C 0.04612 0.33554 0.10807 0.0
H104 H 1.03807 0.27393 0.97461 0.0
C105 C 0.04148 0.35997 0.20958 0.0
C106 C 1.03491 0.39331 0.17853 0.0
C107 C 0.04136 0.34493 0.97496 0.0
H108 H 0.04483 0.32752 0.89435 0.0
C109 C 1.03344 0.37748 0.94359 0.0
H110 H 0.04402 0.35347 0.31349 0.0
C111 C 1.03073 0.40136 0.04357 0.0
H112 H 1.02532 0.42619 0.01481 0.0
H113 H 1.03028 0.3845 0.84038 0.0
H114 H 0.26895 0.98451 0.34946 0.0
C115 C 0.28864 0.99461 0.28867 0.0
C116 C 0.32004 0.98169 0.30152 0.0
C117 C 0.2824 1.01926 0.19343 0.0
H118 H 0.37048 0.98464 0.2404 0.0
C119 C 0.34593 0.99419 0.2247 0.0
C120 C 0.34109 1.01776 0.12601 0.0
C121 C 0.3089 1.03066 0.11007 0.0
C122 C 0.24723 1.0283 0.17075 0.0
H123 H 0.30433 0.04853 0.03216 0.0
C124 C 0.22452 1.03243 0.27887 0.0
C125 C 0.1901 1.03364 0.25676 0.0
C126 C 0.23513 1.0269 0.04043 0.0
H127 H 0.25157 1.0232 0.95624 0.0
C128 C 0.20149 1.02727 0.01788 0.0
H129 H 0.23373 1.03411 0.37966 0.0
C130 C 0.17938 1.02959 0.12434 0.0
H131 H 0.15372 1.02747 0.1017 0.0
H132 H 0.19238 1.02454 0.91729 0.0
H133 H 0.58982 0.26158 0.28663 0.0
C134 C 0.57862 0.28107 0.22878 0.0
C135 C 0.59374 0.31189 0.22677 0.0
C136 C 0.54969 0.27535 0.15619 0.0
H137 H 0.59129 0.36193 0.15675 0.0
C138 C 0.58006 0.3377 0.15288 0.0
C139 C 0.55096 0.33385 0.08237 0.0
C140 C 0.53573 0.30229 0.08278 0.0
C141 C 0.53584 0.24078 0.15386 0.0
H142 H 0.51302 0.299 0.02913 0.0
C143 C 0.53863 0.21883 0.2649 0.0
C144 C 0.53001 0.18488 0.25516 0.0
C145 C 0.52262 0.22838 0.03523 0.0
H146 H 0.52052 0.24385 0.94768 0.0
C147 C 0.5133 0.19542 0.02549 0.0
H148 H 0.54724 0.22835 0.35901 0.0
C149 C 0.5172 0.17391 0.13302 0.0
H150 H 0.51052 0.1484 0.11897 0.0
H151 H 0.50363 0.18622 0.93242 0.0
Tb152 Tb 0.05575 1.02984 0.91014 0.0
Tb153 Tb 1.01332 0.0513 0.70223 0.0
C154 C 0.0817 1.00099 0.1056 0.0
C155 C 0.10331 0.97262 0.12775 0.0
C156 C 0.10461 0.95872 0.25505 0.0
C157 C 0.12195 0.92958 0.27583 0.0
C158 C 0.13844 0.91373 0.1693 0.0
C159 C 0.13957 0.92955 0.0444 0.0
C160 C 0.12199 0.95875 0.02354 0.0
C161 C 0.09021 0.04586 0.68956 0.0
C162 C 1.02511 0.9759 0.70575 0.0
C163 C 0.99872 0.08951 0.51876 0.0
C164 C 1.01588 0.12156 0.51723 0.0
C165 C 0.04745 0.12263 0.57244 0.0
C166 C 0.06182 0.15184 0.61031 0.0
C167 C 0.04645 0.18174 0.58363 0.0
C168 C 1.01526 0.18128 0.5217 0.0
C169 C 0.9997 0.15131 0.49202 0.0
C170 C 0.97905 1.03172 0.90999 0.0
C171 C 0.04119 0.10469 0.91455 0.0
O172 O 0.05195 0.99472 0.06448 0.0
O173 O 0.09486 1.02553 0.04124 0.0
O174 O 0.06256 1.03169 0.69622 0.0
O175 O 0.09968 0.04978 0.81095 0.0
O176 O 0.04233 0.9826 0.81475 0.0
O177 O 1.01069 0.99986 0.63817 0.0
O178 O 1.0177 0.06394 0.49927 0.0
O179 O 0.9793 0.08504 0.6216 0.0
O180 O 1.00594 0.04786 0.91476 0.0
O181 O 0.97082 1.02714 0.78608 0.0
O182 O 1.02592 0.09821 0.80271 0.0
O183 O 0.05283 0.08025 0.9859 0.0
H184 H 0.09082 0.96947 0.33712 0.0
H185 H 0.11989 0.91813 0.37312 0.0
H186 H 0.15218 0.91814 0.96085 0.0
H187 H 0.12181 0.96969 0.92492 0.0
H188 H 0.05988 0.10051 0.60227 0.0
H189 H 0.08518 0.15076 0.66098 0.0
H190 H 1.00301 0.20388 0.49391 0.0
H191 H 0.97513 0.15138 0.45159 0.0
Tb192 Tb 0.54701 0.05715 0.93581 0.0
Tb193 Tb 0.52828 1.01253 0.68618 0.0
C194 C 0.56605 0.07834 0.15614 0.0
C195 C 0.59281 0.10117 0.18854 0.0
C196 C 0.60839 0.09864 0.31187 0.0
C197 C 0.63793 0.11512 0.33353 0.0
C198 C 0.65245 0.13431 0.23182 0.0
C199 C 0.63557 0.13869 0.1117 0.0
C200 C 0.60594 0.12221 0.09019 0.0
C201 C 0.54195 0.09304 0.71014 0.0
C202 C 0.60319 1.03194 0.73613 0.0
C203 C 0.51199 0.99003 0.46474 0.0
C204 C 0.48786 0.9643 0.4353 0.0
C205 C 0.46852 0.967 0.32119 0.0
C206 C 0.43845 0.95063 0.31598 0.0
C207 C 0.42719 0.93249 0.42696 0.0
C208 C 0.44867 0.9259 0.53173 0.0
C209 C 0.47907 0.94152 0.53512 0.0
C210 C 0.53444 0.97634 0.90987 0.0
C211 C 0.47175 1.03573 0.88813 0.0
O212 O 0.57577 0.0501 0.1057 0.0
O213 O 0.54111 0.09101 0.09172 0.0
O214 O 0.53681 0.06279 0.72944 0.0
O215 O 0.5505 0.10442 0.82518 0.0
O216 O 0.5958 0.04335 0.85722 0.0
O217 O 0.5803 1.02266 0.65066 0.0
O218 O 0.49923 1.01706 0.51572 0.0
O219 O 0.53826 0.98021 0.52844 0.0
O220 O 0.5387 1.00681 0.89262 0.0
O221 O 0.52662 0.96506 0.79408 0.0
O222 O 0.47939 1.02337 0.7688 0.0
O223 O 0.49411 0.04793 0.97109 0.0
H224 H 0.59874 0.08243 0.38861 0.0
H225 H 0.65065 0.11079 0.42645 0.0
H226 H 0.64628 0.15316 0.03166 0.0
H227 H 0.59439 0.12439 0.99383 0.0
H228 H 0.47503 0.98416 0.24247 0.0
H229 H 0.42224 0.95583 0.23347 0.0
H230 H 0.4404 0.91205 0.61811 0.0
H231 H 0.49395 0.93832 0.62261 0.0
Tb232 Tb 0.50813 0.54117 0.89104 0.0
Tb233 Tb 0.54727 0.5254 0.67552 0.0
C234 C 0.47937 0.56728 0.08732 0.0
C235 C 0.45921 0.59704 0.09962 0.0
C236 C 0.45263 0.61003 0.22594 0.0
C237 C 0.43746 0.64067 0.23839 0.0
C238 C 0.42853 0.65894 0.12436 0.0
C239 C 0.43336 0.64475 0.99778 0.0
C240 C 0.44863 0.614 0.9855 0.0
C241 C 0.47196 0.52464 0.67952 0.0
C242 C 0.5302 0.59905 0.69576 0.0
C243 C 0.57602 0.50079 0.47697 0.0
C244 C 0.5988 0.47308 0.46743 0.0
C245 C 0.60607 0.45945 0.34297 0.0
C246 C 0.6238 0.43018 0.33485 0.0
C247 C 0.6344 0.41397 0.45153 0.0
C248 C 0.62909 0.42914 0.57573 0.0
C249 C 0.61137 0.45855 0.58361 0.0
C250 C 0.5836 0.54292 0.8837 0.0
C251 C 0.52731 0.46735 0.87717 0.0
O252 O 0.51029 0.57222 0.05826 0.0
O253 O 0.46681 0.5437 0.01613 0.0
O254 O 0.49744 0.54241 0.67812 0.0
O255 O 0.46656 0.51569 0.80099 0.0
O256 O 0.52229 0.59097 0.81959 0.0
O257 O 0.53548 0.57522 0.60893 0.0
O258 O 0.54597 0.4932 0.51189 0.0
O259 O 0.58704 0.5261 0.54248 0.0
O260 O 0.55835 0.52475 0.88788 0.0
O261 O 0.58855 0.5515 0.76165 0.0
O262 O 0.53605 0.47518 0.75351 0.0
O263 O 0.51949 0.49135 0.96039 0.0
H264 H 0.46081 0.59733 0.31482 0.0
H265 H 0.43529 0.65112 0.33745 0.0
H266 H 0.42717 0.65829 0.90827 0.0
H267 H 0.45359 0.60419 0.88684 0.0
H268 H 0.59642 0.47036 0.25268 0.0
H269 H 0.62647 0.4188 0.23765 0.0
H270 H 0.63654 0.41705 0.667 0.0
H271 H 0.60594 0.469 0.68081 0.0
Tb272 Tb 1.02599 0.52558 0.82925 0.0
Tb273 Tb 0.04024 0.57057 0.62699 0.0
C274 C 1.0021 0.4937 0.0223 0.0
C275 C 0.97384 0.4717 0.03752 0.0
C276 C 0.96119 0.46565 0.16506 0.0
C277 C 0.93082 0.45028 0.18023 0.0
C278 C 0.91252 0.44074 0.06774 0.0
C279 C 0.92695 0.4439 0.94044 0.0
C280 C 0.95733 0.45957 0.92541 0.0
C281 C 0.04171 0.49511 0.5989 0.0
C282 C 0.96665 0.55022 0.65025 0.0
C283 C 0.06485 0.60345 0.43883 0.0
C284 C 0.09496 0.62284 0.42723 0.0
C285 C 0.10787 0.62975 0.30096 0.0
C286 C 0.13891 0.64386 0.28859 0.0
C287 C 0.15751 0.65147 0.40274 0.0
C288 C 0.14317 0.6469 0.52945 0.0
C289 C 0.11213 0.63253 0.54163 0.0
C290 C 1.02132 0.60128 0.847 0.0
C291 C 0.09884 0.54583 0.81701 0.0
O292 O 0.99474 0.5243 0.99647 0.0
O293 O 1.02607 0.48312 0.94678 0.0
O294 O 1.02401 0.5205 0.61282 0.0
O295 O 0.05022 0.48602 0.71701 0.0
O296 O 0.97575 0.53741 0.76522 0.0
O297 O 0.98929 0.5613 0.56633 0.0
O298 O 0.06883 0.57163 0.45144 0.0
O299 O 0.04301 0.61498 0.52217 0.0
O300 O 0.04042 0.57651 0.84193 0.0
O301 O 1.01319 0.6093 0.72752 0.0
O302 O 0.09056 0.55816 0.69934 0.0
O303 O 0.07548 0.53553 0.89811 0.0
H304 H 0.97375 0.47472 0.25258 0.0
H305 H 0.92046 0.44859 0.27991 0.0
H306 H 0.9138 0.43637 0.85214 0.0
H307 H 0.96699 0.46397 0.82604 0.0
H308 H 0.09479 0.62248 0.21193 0.0
H309 H 0.14935 0.64599 0.18926 0.0
H310 H 0.1569 0.65224 0.61896 0.0
H311 H 0.10228 0.62747 0.64029 0.0
C312 C 0.16964 1.02389 0.49672 0.0
C313 C 0.16498 1.03779 0.36881 0.0
C314 C 0.1454 1.02639 0.59869 0.0
C315 C 0.1147 0.04165 0.57656 0.0
H316 H 0.19206 1.01067 0.51854 0.0
H317 H 0.15062 1.01583 0.69551 0.0
S318 S 0.09067 0.08438 0.26514 0.0
N319 N 0.12836 0.07151 0.23477 0.0
N320 N 0.08149 0.0705 0.41507 0.0
C321 C 0.10959 0.05495 0.44885 0.0
C322 C 0.13496 0.05454 0.34844 0.0
C323 C 0.51182 0.13422 0.38907 0.0
C324 C 0.53438 0.16046 0.36905 0.0
C325 C 0.51532 0.11103 0.49364 0.0
C326 C 0.54121 0.11326 0.58494 0.0
H327 H 0.49061 0.13191 0.32549 0.0
H328 H 0.49675 0.09221 0.50668 0.0
S329 S 0.60913 0.17413 0.57232 0.0
N330 N 0.58572 0.1843 0.44505 0.0
N331 N 0.59097 0.14235 0.64423 0.0
C332 C 0.56432 0.13864 0.5649 0.0
C333 C 0.56125 0.16177 0.45699 0.0
C334 C 0.42961 0.52513 0.33903 0.0
C335 C 0.39582 0.52212 0.3704 0.0
C336 C 0.45392 0.52691 0.43853 0.0
C337 C 0.4457 0.52484 0.57484 0.0
H338 H 0.43739 0.52564 0.23587 0.0
H339 H 0.47943 0.52895 0.40816 0.0
S340 S 0.36095 0.51773 0.71287 0.0
N341 N 0.35568 0.51815 0.54976 0.0
N342 N 0.40092 0.52073 0.73629 0.0
C343 C 0.41199 0.52229 0.60818 0.0
C344 C 0.38722 0.52116 0.50658 0.0
C345 C 0.05075 0.45031 0.26319 0.0
C346 C 1.03442 0.41996 0.28466 0.0
C347 C 0.05211 0.47498 0.3628 0.0
C348 C 1.03749 0.47036 0.48915 0.0
H349 H 0.0634 0.4548 0.16949 0.0
H350 H 0.06555 0.49743 0.34197 0.0
S351 S 0.98838 0.39768 0.59332 0.0
N352 N 1.00052 0.38868 0.44 0.0
N353 N 1.00416 0.43415 0.62697 0.0
C354 C 1.02032 0.4407 0.51089 0.0
C355 C 1.01855 0.41579 0.4092 0.0
C356 C 0.93931 1.03521 0.25839 0.0
C357 C 0.90581 1.0286 0.23387 0.0
C358 C 0.96281 1.03644 0.15401 0.0
C359 C 0.95395 1.0306 0.02053 0.0
H360 H 0.94752 1.03924 0.35965 0.0
H361 H 0.98815 0.04157 0.17834 0.0
S362 S 0.86942 1.01244 0.90296 0.0
N363 N 0.86519 1.01647 0.06585 0.0
N364 N 0.90875 1.01847 0.87043 0.0
C365 C 0.92045 1.02426 0.9949 0.0
C366 C 0.89657 1.02341 0.10091 0.0
C367 C 0.56053 0.9348 0.23645 0.0
C368 C 0.53816 0.90811 0.24859 0.0
C369 C 0.5583 0.9583 0.13231 0.0
C370 C 0.53403 0.95579 0.03398 0.0
H371 H 0.58057 0.93722 0.30594 0.0
H372 H 0.57663 0.97754 0.12531 0.0
S373 S 0.46737 0.89353 0.0247 0.0
N374 N 0.4885 0.88379 0.1586 0.0
N375 N 0.48625 0.92564 0.95885 0.0
C376 C 0.5112 0.92989 0.04631 0.0
C377 C 0.51278 0.9067 0.15399 0.0
C378 C 0.62876 0.54192 0.21801 0.0
C379 C 0.66181 0.54816 0.18194 0.0
C380 C 0.60371 0.53935 0.1219 0.0
C381 C 0.6105 0.54353 0.9851 0.0
H382 H 0.62215 0.53931 0.32211 0.0
H383 H 0.57875 0.53487 0.1553 0.0
S384 S 0.69307 0.55903 0.83634 0.0
N385 N 0.69979 0.5575 0.99825 0.0
N386 N 0.65331 0.55289 0.81819 0.0
C387 C 0.64356 0.54915 0.94737 0.0
C388 C 0.66902 0.55135 0.04518 0.0
C389 C 1.01755 0.68392 0.02831 0.0
C390 C 1.00809 0.67541 0.1596 0.0
C391 C 1.02279 0.65977 0.92936 0.0
C392 C 1.01955 0.62588 0.95734 0.0
H393 H 1.0197 0.70954 0.99975 0.0
H394 H 1.02897 0.66779 0.82914 0.0
S395 S 0.99502 0.58957 0.28026 0.0
N396 N 0.99566 0.62958 0.30959 0.0
N397 N 1.00634 0.58499 0.12337 0.0
C398 C 1.01105 0.61684 0.08754 0.0
C399 C 1.00505 0.64132 0.18831 0.0
C400 C 0.1126 0.2395 0.49126 0.0
C401 C 0.09158 0.26523 0.45464 0.0
C402 C 0.09919 0.21233 0.55759 0.0
C403 C 0.0657 0.21257 0.59689 0.0
H404 H 0.13571 0.2362 0.43855 0.0
H405 H 0.11348 0.18988 0.55532 0.0
S406 S 1.01386 0.28705 0.62604 0.0
N407 N 0.04568 0.2985 0.53373 0.0
N408 N 1.02051 0.24813 0.66605 0.0
C409 C 0.05012 0.24329 0.60591 0.0
C410 C 0.06387 0.27046 0.53629 0.0
C411 C 0.33885 0.9261 0.34385 0.0
C412 C 0.32838 0.95622 0.3995 0.0
C413 C 0.37081 0.91466 0.36703 0.0
C414 C 0.39159 0.93213 0.45248 0.0
H415 H 0.32551 0.91564 0.26093 0.0
H416 H 0.38059 0.89509 0.30492 0.0
S417 S 0.37001 1.00594 0.65181 0.0
N418 N 0.33614 0.99679 0.5713 0.0
N419 N 0.39672 0.97696 0.61114 0.0
C420 C 0.37822 0.95774 0.53036 0.0
C421 C 0.34552 0.96859 0.50851 0.0
C422 C 0.60989 0.32784 0.45073 0.0
C423 C 0.62015 0.32038 0.32011 0.0
C424 C 0.62062 0.35681 0.51196 0.0
C425 C 0.64199 0.37833 0.44335 0.0
H426 H 0.58896 0.31519 0.49422 0.0
H427 H 0.60753 0.36496 0.60057 0.0
S428 S 0.68831 0.3596 0.13389 0.0
N429 N 0.66184 0.32901 0.14962 0.0
N430 N 0.68285 0.38317 0.26661 0.0
C431 C 0.65905 0.36596 0.33182 0.0
C432 C 0.64789 0.33668 0.26917 0.0
C433 C 0.24164 0.61939 0.39361 0.0
C434 C 0.2497 0.62857 0.26219 0.0
C435 C 0.21358 0.63237 0.45567 0.0
C436 C 0.19363 0.65515 0.3878 0.0
H437 H 0.25289 0.59783 0.43787 0.0
H438 H 0.2048 0.62028 0.54546 0.0
S439 S 0.21544 0.69913 0.07621 0.0
N440 N 0.24391 0.67035 0.09097 0.0
N441 N 0.19167 0.69581 0.20996 0.0
C442 C 0.20697 0.67077 0.27458 0.0
C443 C 0.23528 0.65725 0.21092 0.0
C444 C 0.11458 0.82782 0.1393 0.0
C445 C 0.11535 0.82036 0.27584 0.0
C446 C 0.1297 0.8566 0.09239 0.0
C447 C 0.14576 0.87791 0.18144 0.0
H448 H 0.09686 0.81584 0.07557 0.0
H449 H 0.12351 0.86478 0.99366 0.0
S450 S 0.17115 0.85672 0.5242 0.0
N451 N 0.14604 0.82673 0.48058 0.0
N452 N 0.17445 0.88107 0.3926 0.0
C453 C 0.15521 0.86467 0.30484 0.0
C454 C 0.14012 0.83519 0.35187 0.0
C455 C 0.73029 0.14977 0.41088 0.0
C456 C 0.74963 0.12572 0.34575 0.0
C457 C 0.6989 0.15734 0.36272 0.0
C458 C 0.68765 0.14308 0.2437 0.0
H459 H 0.73586 0.15653 0.51278 0.0
H460 H 0.68191 0.17039 0.42758 0.0
S461 S 0.73797 0.09542 1.0022 0.0
N462 N 0.7618 0.09981 0.13339 0.0
N463 N 0.70357 0.11518 0.03834 0.0
C464 C 0.71082 0.12723 0.16102 0.0
C465 C 0.74236 0.11901 0.21206 0.0
C466 C 0.45511 0.74506 0.13249 0.0
C467 C 0.44553 0.75221 0.26426 0.0
C468 C 0.44356 0.71651 0.07001 0.0
C469 C 0.42239 0.69487 0.13892 0.0
H470 H 0.476 0.7576 0.08818 0.0
H471 H 0.45547 0.70886 0.97832 0.0
S472 S 0.37726 0.71345 0.45166 0.0
N473 N 0.40403 0.74378 0.43571 0.0
N474 N 0.38213 0.69006 0.31809 0.0
C475 C 0.40602 0.70706 0.25252 0.0
C476 C 0.4176 0.73619 0.31535 0.0
C477 C 0.83647 0.42808 0.26469 0.0
C478 C 0.81865 0.45537 0.21761 0.0
C479 C 0.86539 0.41817 0.19919 0.0
C480 C 0.87663 0.43519 0.08513 0.0
H481 H 0.83183 0.41884 0.36452 0.0
H482 H 0.88146 0.401 0.2496 0.0
S483 S 0.82899 0.4966 0.89191 0.0
N484 N 0.80662 0.48976 0.02694 0.0
N485 N 0.86119 0.47206 0.90413 0.0
C486 C 0.85431 0.45629 0.02058 0.0
C487 C 0.82473 0.46588 0.08671 0.0
C488 C 0.08129 0.18277 0.05322 0.0
C489 C 0.05699 0.2077 0.04238 0.0
C490 C 0.07577 0.14993 0.01372 0.0
C491 C 0.04599 0.14005 0.95672 0.0
H492 H 0.10492 0.18848 0.09623 0.0
H493 H 0.09532 0.13215 0.02672 0.0
S494 S 0.97516 0.19521 0.88932 0.0
N495 N 1.00211 0.21961 0.96175 0.0
N496 N 0.99264 0.15854 0.87981 0.0
C497 C 1.02214 0.16486 0.93643 0.0
C498 C 1.02742 0.19838 0.98034 0.0
C499 C 0.38719 0.05554 0.04609 0.0
C500 C 0.37058 1.02512 0.03911 0.0
C501 C 0.4197 0.05922 0.99571 0.0
C502 C 0.43677 1.03271 0.93553 0.0
H503 H 0.37575 0.07607 0.09743 0.0
H504 H 0.43177 0.08282 0.00614 0.0
S505 S 0.40519 0.94754 0.90096 0.0
N506 N 0.37446 0.96795 0.97022 0.0
N507 N 0.43471 0.97483 0.87742 0.0
C508 C 0.42023 1.00245 0.92684 0.0
C509 C 0.38746 0.99871 0.97773 0.0
C510 C 0.54484 0.37368 0.88858 0.0
C511 C 0.53696 0.36473 0.02109 0.0
C512 C 0.54061 0.40638 0.84149 0.0
C513 C 0.52878 0.43192 0.92528 0.0
H514 H 0.55606 0.35568 0.82272 0.0
H515 H 0.54796 0.4119 0.73981 0.0
S516 S 0.50466 0.42132 0.28171 0.0
N517 N 0.51653 0.38418 0.23468 0.0
N518 N 0.50857 0.44494 0.1484 0.0
C519 C 0.52002 0.42291 0.05715 0.0
C520 C 0.52415 0.38968 0.10428 0.0
C521 C 0.1912 0.5656 0.84244 0.0
C522 C 0.20119 0.54894 0.95915 0.0
C523 C 0.15869 0.56345 0.79412 0.0
C524 C 0.13425 0.54517 0.86203 0.0
H525 H 0.20834 0.58173 0.79134 0.0
H526 H 0.15239 0.57746 0.70598 0.0
S527 S 0.14778 0.49637 0.17147 0.0
N528 N 0.18402 0.51291 0.13918 0.0
N529 N 0.12334 0.50887 0.05086 0.0
C530 C 0.14428 0.5276 0.97684 0.0
C531 C 0.17749 0.5295 0.02466 0.0
C532 C 1.00422 0.89723 0.50465 0.0
C533 C 1.02974 0.8754 0.53978 0.0
C534 C 1.00204 0.92938 0.56052 0.0
C535 C 1.02535 0.94101 0.6534 0.0
H536 H 0.98689 0.89012 0.42859 0.0
H537 H 0.98248 0.94551 0.52801 0.0
S538 S 0.09789 0.89402 0.77019 0.0
N539 N 0.07855 0.86797 0.67289 0.0
N540 N 0.07545 0.92777 0.7718 0.0
C541 C 0.0505 0.919 0.69006 0.0
C542 C 0.05236 0.88649 0.6353 0.0
C543 C 0.69727 1.03982 0.73711 0.0
C544 C 0.70618 1.03462 0.60282 0.0
C545 C 0.66425 1.03782 0.78061 0.0
C546 C 0.63858 1.03064 0.69122 0.0
H547 H 0.71574 0.04755 0.80722 0.0
H548 H 0.65875 0.04324 0.88421 0.0
S549 S 0.64948 1.01347 0.32847 0.0
N550 N 0.687 1.02081 0.3818 0.0
N551 N 0.62541 1.01644 0.46124 0.0
C552 C 0.64759 1.02366 0.55751 0.0
C553 C 0.68116 1.02576 0.51404 0.0
C554 C 0.53106 0.67481 0.46804 0.0
C555 C 0.52674 0.70171 0.55575 0.0
C556 C 0.53318 0.64216 0.51451 0.0
C557 C 0.53103 0.63454 0.65152 0.0
H558 H 0.53085 0.6789 0.36117 0.0
H559 H 0.53517 0.62264 0.4413 0.0
S560 S 0.52465 0.69616 0.92492 0.0
N561 N 0.52361 0.71864 0.78747 0.0
N562 N 0.52811 0.65748 0.87576 0.0
C563 C 0.52888 0.66137 0.74119 0.0
C564 C 0.5267 0.6948 0.6933 0.0
C565 C 0.88046 0.51508 0.61219 0.0
C566 C 0.86481 0.53654 0.52217 0.0
C567 C 0.91259 0.52066 0.65682 0.0
C568 C 0.93131 0.54751 0.61033 0.0
H569 H 0.86832 0.49258 0.64261 0.0
H570 H 0.92341 0.50269 0.72308 0.0
S571 S 0.90171 0.61226 0.3787 0.0
N572 N 0.87027 0.58673 0.39238 0.0
N573 N 0.93085 0.59718 0.47505 0.0
C574 C 0.91574 0.56987 0.52346 0.0
C575 C 0.88255 0.56443 0.47973 0.0
loop_
_geom_bond_atom_site_label_1
_geom_bond_atom_site_label_2
_geom_bond_distance
_geom_bond_site_symmetry_2
_ccdc_geom_bond_type
H0 C1 0.949 . S
C1 H0 0.949 . S
C1 C2 1.395 . S
C1 C3 1.391 . S
C2 C1 1.395 . S
C2 C5 1.390 . S
C3 C1 1.391 . S
C3 C7 1.387 . S
C3 C8 1.491 . S
H4 C5 0.950 . S
C5 C2 1.390 . S
C5 H4 0.950 . S
C5 C6 1.378 . S
C6 C5 1.378 . S
C6 C7 1.409 . S
C7 C3 1.387 . S
C7 C6 1.409 . S
C7 H9 0.951 . S
C8 C3 1.491 . S
C8 C10 1.382 . S
C8 C12 1.404 . S
H9 C7 0.951 . S
C10 C8 1.382 . S
C10 C11 1.390 . S
C10 H15 0.949 . S
C11 C10 1.390 . S
C11 C16 1.399 . S
C12 C8 1.404 . S
C12 H13 0.950 . S
C12 C14 1.375 . S
H13 C12 0.950 . S
C14 C12 1.375 . S
C14 C16 1.382 . S
C14 H18 0.950 . S
H15 C10 0.949 . S
C16 C11 1.399 . S
C16 C14 1.382 . S
C16 H17 0.952 . S
H17 C16 0.952 . S
H18 C14 0.950 . S
H19 C20 0.949 . S
C20 H19 0.949 . S
C20 C21 1.395 . S
C20 C22 1.391 . S
C21 C20 1.395 . S
C21 C24 1.390 1_655 S
C22 C20 1.391 . S
C22 C26 1.387 . S
C22 C27 1.491 . S
H23 C24 0.950 . S
C24 C21 1.390 1_455 S
C24 H23 0.950 . S
C24 C25 1.377 1_455 S
C25 C24 1.377 1_655 S
C25 C26 1.413 . S
C26 C22 1.387 . S
C26 C25 1.413 . S
C26 H28 0.951 . S
C27 C22 1.491 . S
C27 C29 1.382 . S
C27 C31 1.404 . S
H28 C26 0.951 . S
C29 C27 1.382 . S
C29 C30 1.390 . S
C29 H34 0.949 1_655 S
C30 C29 1.390 . S
C30 C35 1.399 . S
C31 C27 1.404 . S
C31 H32 0.950 . S
C31 C33 1.375 . S
H32 C31 0.950 . S
C33 C31 1.375 . S
C33 C35 1.382 . S
C33 H37 0.950 . S
H34 C29 0.949 1_455 S
C35 C30 1.399 . S
C35 C33 1.382 . S
C35 H36 0.952 . S
H36 C35 0.952 . S
H37 C33 0.950 . S
H38 C39 0.949 . S
C39 H38 0.949 . S
C39 C40 1.395 . S
C39 C41 1.391 . S
C40 C39 1.395 . S
C40 C43 1.390 1_565 S
C41 C39 1.391 . S
C41 C45 1.387 . S
C41 C46 1.491 . S
H42 C43 0.950 . S
C43 C40 1.390 1_545 S
C43 H42 0.950 . S
C43 C44 1.377 1_545 S
C44 C43 1.377 1_565 S
C44 C45 1.413 . S
C45 C41 1.387 . S
C45 C44 1.413 . S
C45 H47 0.951 . S
C46 C41 1.491 . S
C46 C48 1.382 . S
C46 C50 1.404 . S
H47 C45 0.951 . S
C48 C46 1.382 . S
C48 C49 1.390 . S
C48 H53 0.949 1_565 S
C49 C48 1.390 . S
C49 C54 1.399 . S
C50 C46 1.404 . S
C50 H51 0.950 . S
C50 C52 1.375 . S
H51 C50 0.950 . S
C52 C50 1.375 . S
C52 C54 1.382 . S
C52 H56 0.950 . S
H53 C48 0.949 1_545 S
C54 C49 1.399 . S
C54 C52 1.382 . S
C54 H55 0.952 . S
H55 C54 0.952 . S
H56 C52 0.950 . S
H57 C58 0.949 . S
C58 H57 0.949 . S
C58 C59 1.395 . S
C58 C60 1.391 . S
C59 C58 1.395 . S
C59 C62 1.390 . S
C60 C58 1.391 . S
C60 C64 1.387 . S
C60 C65 1.491 . S
H61 C62 0.950 . S
C62 C59 1.390 . S
C62 H61 0.950 . S
C62 C63 1.378 . S
C63 C62 1.378 . S
C63 C64 1.409 . S
C64 C60 1.387 . S
C64 C63 1.409 . S
C64 H66 0.951 . S
C65 C60 1.491 . S
C65 C67 1.382 . S
C65 C69 1.404 . S
H66 C64 0.951 . S
C67 C65 1.382 . S
C67 C68 1.390 . S
C67 H72 0.949 . S
C68 C67 1.390 . S
C68 C73 1.399 . S
C69 C65 1.404 . S
C69 H70 0.950 . S
C69 C71 1.375 . S
H70 C69 0.950 . S
C71 C69 1.375 . S
C71 C73 1.382 . S
C71 H75 0.950 . S
H72 C67 0.949 . S
C73 C68 1.399 . S
C73 C71 1.382 . S
C73 H74 0.952 . S
H74 C73 0.952 . S
H75 C71 0.950 . S
H76 C77 0.949 . S
C77 H76 0.949 . S
C77 C78 1.395 . S
C77 C79 1.391 1_554 S
C78 C77 1.395 . S
C78 C81 1.390 1_554 S
C79 C77 1.391 1_556 S
C79 C83 1.387 . S
C79 C84 1.491 . S
H80 C81 0.950 . S
C81 C78 1.390 1_556 S
C81 H80 0.950 . S
C81 C82 1.378 . S
C82 C81 1.378 . S
C82 C83 1.409 . S
C83 C79 1.387 . S
C83 C82 1.409 . S
C83 H85 0.951 . S
C84 C79 1.491 . S
C84 C86 1.382 1_556 S
C84 C88 1.404 . S
H85 C83 0.951 . S
C86 C84 1.382 1_554 S
C86 C87 1.390 . S
C86 H91 0.949 . S
C87 C86 1.390 . S
C87 C92 1.399 1_554 S
C88 C84 1.404 . S
C88 H89 0.950 . S
C88 C90 1.375 . S
H89 C88 0.950 . S
C90 C88 1.375 . S
C90 C92 1.382 . S
C90 H94 0.950 . S
H91 C86 0.949 . S
C92 C87 1.399 1_556 S
C92 C90 1.382 . S
C92 H93 0.952 . S
H93 C92 0.952 . S
H94 C90 0.950 . S
H95 C96 0.949 . S
C96 H95 0.949 . S
C96 C97 1.394 . S
C96 C98 1.391 1_554 S
C97 C96 1.394 . S
C97 C100 1.390 1_654 S
C98 C96 1.391 1_556 S
C98 C102 1.387 . S
C98 C103 1.491 . S
H99 C100 0.950 . S
C100 C97 1.390 1_456 S
C100 H99 0.950 . S
C100 C101 1.377 1_455 S
C101 C100 1.377 1_655 S
C101 C102 1.411 . S
C102 C98 1.387 . S
C102 C101 1.411 . S
C102 H104 0.951 . S
C103 C98 1.491 . S
C103 C105 1.382 1_556 S
C103 C107 1.404 . S
H104 C102 0.951 . S
C105 C103 1.382 1_554 S
C105 C106 1.390 . S
C105 H110 0.949 1_655 S
C106 C105 1.390 . S
C106 C111 1.399 . S
C107 C103 1.404 . S
C107 H108 0.950 . S
C107 C109 1.375 . S
H108 C107 0.950 . S
C109 C107 1.375 . S
C109 C111 1.382 1_556 S
C109 H113 0.950 . S
H110 C105 0.949 1_455 S
C111 C106 1.399 . S
C111 C109 1.382 1_554 S
C111 H112 0.952 . S
H112 C111 0.952 . S
H113 C109 0.950 . S
H114 C115 0.949 . S
C115 H114 0.949 . S
C115 C116 1.394 . S
C115 C117 1.391 1_554 S
C116 C115 1.394 . S
C116 C119 1.390 1_564 S
C117 C115 1.391 1_556 S
C117 C121 1.387 . S
C117 C122 1.491 . S
H118 C119 0.950 . S
C119 C116 1.390 1_546 S
C119 H118 0.950 . S
C119 C120 1.377 1_545 S
C120 C119 1.377 1_565 S
C120 C121 1.411 . S
C121 C117 1.387 . S
C121 C120 1.411 . S
C121 H123 0.951 . S
C122 C117 1.491 . S
C122 C124 1.382 1_556 S
C122 C126 1.404 . S
H123 C121 0.951 . S
C124 C122 1.382 1_554 S
C124 C125 1.390 . S
C124 H129 0.949 1_565 S
C125 C124 1.390 . S
C125 C130 1.399 . S
C126 C122 1.404 . S
C126 H127 0.950 . S
C126 C128 1.375 . S
H127 C126 0.950 . S
C128 C126 1.375 . S
C128 C130 1.382 1_556 S
C128 H132 0.950 . S
H129 C124 0.949 1_545 S
C130 C125 1.399 . S
C130 C128 1.382 1_554 S
C130 H131 0.952 . S
H131 C130 0.952 . S
H132 C128 0.950 . S
H133 C134 0.949 . S
C134 H133 0.949 . S
C134 C135 1.395 . S
C134 C136 1.391 1_554 S
C135 C134 1.395 . S
C135 C138 1.390 1_554 S
C136 C134 1.391 1_556 S
C136 C140 1.387 . S
C136 C141 1.491 . S
H137 C138 0.950 . S
C138 C135 1.390 1_556 S
C138 H137 0.950 . S
C138 C139 1.378 . S
C139 C138 1.378 . S
C139 C140 1.409 . S
C140 C136 1.387 . S
C140 C139 1.409 . S
C140 H142 0.951 . S
C141 C136 1.491 . S
C141 C143 1.382 1_556 S
C141 C145 1.404 . S
H142 C140 0.951 . S
C143 C141 1.382 1_554 S
C143 C144 1.390 . S
C143 H148 0.949 . S
C144 C143 1.390 . S
C144 C149 1.399 1_554 S
C145 C141 1.404 . S
C145 H146 0.950 . S
C145 C147 1.375 . S
H146 C145 0.950 . S
C147 C145 1.375 . S
C147 C149 1.382 . S
C147 H151 0.950 . S
H148 C143 0.949 . S
C149 C144 1.399 1_556 S
C149 C147 1.382 . S
C149 H150 0.952 . S
H150 C149 0.952 . S
H151 C147 0.950 . S
Tb152 C154 2.809 1_556 S
Tb152 O172 2.484 1_556 S
Tb152 O173 2.440 1_556 S
Tb152 O174 2.658 1_565 S
Tb152 O175 2.409 . S
Tb152 O176 2.378 . S
Tb152 O180 2.325 1_455 S
Tb152 O183 2.341 1_565 S
Tb153 C163 2.809 . S
Tb153 O174 2.325 1_655 S
Tb153 O177 2.341 1_545 S
Tb153 O178 2.484 . S
Tb153 O179 2.440 . S
Tb153 O180 2.658 1_545 S
Tb153 O181 2.409 . S
Tb153 O182 2.378 . S
C154 Tb152 2.809 1_554 S
C154 C155 1.514 . S
C154 O172 1.248 . S
C154 O173 1.266 . S
C155 C154 1.514 . S
C155 C156 1.359 . S
C155 C160 1.348 . S
C156 C155 1.359 . S
C156 C157 1.380 . S
C156 H184 0.929 1_455 S
C157 C156 1.380 . S
C157 C158 1.347 . S
C157 H185 0.931 1_455 S
C158 C157 1.347 . S
C158 C159 1.369 . S
C159 C158 1.369 . S
C159 C160 1.408 . S
C159 H186 0.930 . S
C160 C155 1.348 . S
C160 C159 1.408 . S
C160 H187 0.930 . S
C161 O174 1.281 1_565 S
C161 O175 1.254 . S
C162 O176 1.236 1_655 S
C162 O177 1.266 . S
C163 Tb153 2.809 . S
C163 C164 1.514 . S
C163 O178 1.248 . S
C163 O179 1.266 . S
C164 C163 1.514 . S
C164 C165 1.359 . S
C164 C169 1.348 . S
C165 C164 1.359 . S
C165 C166 1.380 . S
C165 H188 0.929 1_655 S
C166 C165 1.380 . S
C166 C167 1.347 . S
C166 H189 0.931 1_655 S
C167 C166 1.347 . S
C167 C168 1.369 . S
C168 C167 1.369 . S
C168 C169 1.408 . S
C168 H190 0.930 . S
C169 C164 1.348 . S
C169 C168 1.408 . S
C169 H191 0.930 . S
C170 O180 1.281 1_545 S
C170 O181 1.254 . S
C171 O182 1.236 1_455 S
C171 O183 1.266 . S
O172 Tb152 2.484 1_554 S
O172 C154 1.248 . S
O173 Tb152 2.440 1_554 S
O173 C154 1.266 . S
O174 Tb152 2.658 1_545 S
O174 Tb153 2.325 1_455 S
O174 C161 1.281 1_545 S
O175 Tb152 2.409 . S
O175 C161 1.254 . S
O176 Tb152 2.378 . S
O176 C162 1.236 1_455 S
O177 Tb153 2.341 1_565 S
O177 C162 1.266 . S
O178 Tb153 2.484 . S
O178 C163 1.248 . S
O179 Tb153 2.440 . S
O179 C163 1.266 . S
O180 Tb152 2.325 1_655 S
O180 Tb153 2.658 1_565 S
O180 C170 1.281 1_565 S
O181 Tb153 2.409 . S
O181 C170 1.254 . S
O182 Tb153 2.378 . S
O182 C171 1.236 1_655 S
O183 Tb152 2.341 1_545 S
O183 C171 1.266 . S
H184 C156 0.929 1_655 S
H185 C157 0.931 1_655 S
H186 C159 0.930 . S
H187 C160 0.930 . S
H188 C165 0.929 1_455 S
H189 C166 0.931 1_455 S
H190 C168 0.930 . S
H191 C169 0.930 . S
Tb192 C194 2.809 1_556 S
Tb192 O212 2.484 1_556 S
Tb192 O213 2.440 1_556 S
Tb192 O214 2.658 . S
Tb192 O215 2.409 . S
Tb192 O216 2.378 . S
Tb192 O220 2.325 1_545 S
Tb192 O223 2.341 . S
Tb193 C203 2.809 . S
Tb193 O214 2.325 1_565 S
Tb193 O217 2.341 . S
Tb193 O218 2.497 . S
Tb193 O219 2.440 . S
Tb193 O220 2.658 . S
Tb193 O221 2.409 . S
Tb193 O222 2.378 . S
C194 Tb192 2.809 1_554 S
C194 C195 1.514 . S
C194 O212 1.248 . S
C194 O213 1.266 . S
C195 C194 1.514 . S
C195 C196 1.359 . S
C195 C200 1.348 . S
C196 C195 1.359 . S
C196 C197 1.380 . S
C196 H224 0.929 1_545 S
C197 C196 1.380 . S
C197 C198 1.347 . S
C197 H225 0.931 1_545 S
C198 C197 1.347 . S
C198 C199 1.369 . S
C199 C198 1.369 . S
C199 C200 1.408 . S
C199 H226 0.930 . S
C200 C195 1.348 . S
C200 C199 1.408 . S
C200 H227 0.930 . S
C201 O214 1.281 . S
C201 O215 1.254 . S
C202 O216 1.236 1_565 S
C202 O217 1.266 . S
C203 Tb193 2.809 . S
C203 C204 1.514 . S
C203 O218 1.277 . S
C203 O219 1.266 . S
C204 C203 1.514 . S
C204 C205 1.359 . S
C204 C209 1.348 . S
C205 C204 1.359 . S
C205 C206 1.380 . S
C205 H228 0.929 1_565 S
C206 C205 1.380 . S
C206 C207 1.347 . S
C206 H229 0.931 1_565 S
C207 C206 1.347 . S
C207 C208 1.369 . S
C208 C207 1.369 . S
C208 C209 1.408 . S
C208 H230 0.930 . S
C209 C204 1.348 . S
C209 C208 1.408 . S
C209 H231 0.930 . S
C210 O220 1.281 . S
C210 O221 1.254 . S
C211 O222 1.236 1_545 S
C211 O223 1.266 . S
O212 Tb192 2.484 1_554 S
O212 C194 1.248 . S
O213 Tb192 2.440 1_554 S
O213 C194 1.266 . S
O214 Tb192 2.658 . S
O214 Tb193 2.325 1_545 S
O214 C201 1.281 . S
O215 Tb192 2.409 . S
O215 C201 1.254 . S
O216 Tb192 2.378 . S
O216 C202 1.236 1_545 S
O217 Tb193 2.341 . S
O217 C202 1.266 . S
O218 Tb193 2.497 . S
O218 C203 1.277 . S
O219 Tb193 2.440 . S
O219 C203 1.266 . S
O220 Tb192 2.325 1_565 S
O220 Tb193 2.658 . S
O220 C210 1.281 . S
O221 Tb193 2.409 . S
O221 C210 1.254 . S
O222 Tb193 2.378 . S
O222 C211 1.236 1_565 S
O223 Tb192 2.341 . S
O223 C211 1.266 . S
H224 C196 0.929 1_565 S
H225 C197 0.931 1_565 S
H226 C199 0.930 . S
H227 C200 0.930 . S
H228 C205 0.929 1_545 S
H229 C206 0.931 1_545 S
H230 C208 0.930 . S
H231 C209 0.930 . S
Tb232 C234 2.809 1_556 S
Tb232 O252 2.484 1_556 S
Tb232 O253 2.440 1_556 S
Tb232 O254 2.658 . S
Tb232 O255 2.409 . S
Tb232 O256 2.378 . S
Tb232 O260 2.325 . S
Tb232 O263 2.341 . S
Tb233 C243 2.809 . S
Tb233 O254 2.325 . S
Tb233 O257 2.341 . S
Tb233 O258 2.484 . S
Tb233 O259 2.440 . S
Tb233 O260 2.658 . S
Tb233 O261 2.409 . S
Tb233 O262 2.378 . S
C234 Tb232 2.809 1_554 S
C234 C235 1.514 . S
C234 O252 1.248 . S
C234 O253 1.266 . S
C235 C234 1.514 . S
C235 C236 1.359 . S
C235 C240 1.348 . S
C236 C235 1.359 . S
C236 C237 1.380 . S
C236 H264 0.929 . S
C237 C236 1.380 . S
C237 C238 1.347 . S
C237 H265 0.931 . S
C238 C237 1.347 . S
C238 C239 1.369 . S
C239 C238 1.369 . S
C239 C240 1.408 . S
C239 H266 0.930 . S
C240 C235 1.348 . S
C240 C239 1.408 . S
C240 H267 0.930 . S
C241 O254 1.281 . S
C241 O255 1.254 . S
C242 O256 1.236 . S
C242 O257 1.266 . S
C243 Tb233 2.809 . S
C243 C244 1.514 . S
C243 O258 1.248 . S
C243 O259 1.266 . S
C244 C243 1.514 . S
C244 C245 1.359 . S
C244 C249 1.348 . S
C245 C244 1.359 . S
C245 C246 1.380 . S
C245 H268 0.929 . S
C246 C245 1.380 . S
C246 C247 1.347 . S
C246 H269 0.931 . S
C247 C246 1.347 . S
C247 C248 1.369 . S
C248 C247 1.369 . S
C248 C249 1.408 . S
C248 H270 0.930 . S
C249 C244 1.348 . S
C249 C248 1.408 . S
C249 H271 0.930 . S
C250 O260 1.281 . S
C250 O261 1.254 . S
C251 O262 1.236 . S
C251 O263 1.266 . S
O252 Tb232 2.484 1_554 S
O252 C234 1.248 . S
O253 Tb232 2.440 1_554 S
O253 C234 1.266 . S
O254 Tb232 2.658 . S
O254 Tb233 2.325 . S
O254 C241 1.281 . S
O255 Tb232 2.409 . S
O255 C241 1.254 . S
O256 Tb232 2.378 . S
O256 C242 1.236 . S
O257 Tb233 2.341 . S
O257 C242 1.266 . S
O258 Tb233 2.484 . S
O258 C243 1.248 . S
O259 Tb233 2.440 . S
O259 C243 1.266 . S
O260 Tb232 2.325 . S
O260 Tb233 2.658 . S
O260 C250 1.281 . S
O261 Tb233 2.409 . S
O261 C250 1.254 . S
O262 Tb233 2.378 . S
O262 C251 1.236 . S
O263 Tb232 2.341 . S
O263 C251 1.266 . S
H264 C236 0.929 . S
H265 C237 0.931 . S
H266 C239 0.930 . S
H267 C240 0.930 . S
H268 C245 0.929 . S
H269 C246 0.931 . S
H270 C248 0.930 . S
H271 C249 0.930 . S
Tb272 C274 2.809 1_556 S
Tb272 O292 2.484 1_556 S
Tb272 O293 2.440 1_556 S
Tb272 O294 2.658 1_655 S
Tb272 O295 2.409 . S
Tb272 O296 2.378 . S
Tb272 O300 2.325 . S
Tb272 O303 2.341 1_655 S
Tb273 C283 2.809 . S
Tb273 O294 2.325 . S
Tb273 O297 2.341 1_455 S
Tb273 O298 2.484 . S
Tb273 O299 2.440 . S
Tb273 O300 2.658 1_455 S
Tb273 O301 2.409 . S
Tb273 O302 2.378 . S
C274 Tb272 2.809 1_554 S
C274 C275 1.514 . S
C274 O292 1.248 . S
C274 O293 1.266 . S
C275 C274 1.514 . S
C275 C276 1.359 . S
C275 C280 1.348 . S
C276 C275 1.359 . S
C276 C277 1.380 . S
C276 H304 0.929 . S
C277 C276 1.380 . S
C277 C278 1.347 . S
C277 H305 0.931 . S
C278 C277 1.347 . S
C278 C279 1.369 . S
C279 C278 1.369 . S
C279 C280 1.408 . S
C279 H306 0.930 . S
C280 C275 1.348 . S
C280 C279 1.408 . S
C280 H307 0.930 . S
C281 O294 1.274 1_655 S
C281 O295 1.263 . S
C282 O296 1.236 . S
C282 O297 1.266 . S
C283 Tb273 2.809 . S
C283 C284 1.514 . S
C283 O298 1.248 . S
C283 O299 1.266 . S
C284 C283 1.514 . S
C284 C285 1.359 . S
C284 C289 1.348 . S
C285 C284 1.359 . S
C285 C286 1.380 . S
C285 H308 0.929 . S
C286 C285 1.380 . S
C286 C287 1.347 . S
C286 H309 0.931 . S
C287 C286 1.347 . S
C287 C288 1.369 . S
C288 C287 1.369 . S
C288 C289 1.408 . S
C288 H310 0.930 . S
C289 C284 1.348 . S
C289 C288 1.408 . S
C289 H311 0.930 . S
C290 O300 1.271 1_455 S
C290 O301 1.266 . S
C291 O302 1.236 . S
C291 O303 1.266 . S
O292 Tb272 2.484 1_554 S
O292 C274 1.248 . S
O293 Tb272 2.440 1_554 S
O293 C274 1.266 . S
O294 Tb272 2.658 1_455 S
O294 Tb273 2.325 . S
O294 C281 1.274 1_455 S
O295 Tb272 2.409 . S
O295 C281 1.263 . S
O296 Tb272 2.378 . S
O296 C282 1.236 . S
O297 Tb273 2.341 1_655 S
O297 C282 1.266 . S
O298 Tb273 2.484 . S
O298 C283 1.248 . S
O299 Tb273 2.440 . S
O299 C283 1.266 . S
O300 Tb272 2.325 . S
O300 Tb273 2.658 1_655 S
O300 C290 1.271 1_655 S
O301 Tb273 2.409 . S
O301 C290 1.266 . S
O302 Tb273 2.378 . S
O302 C291 1.236 . S
O303 Tb272 2.341 1_455 S
O303 C291 1.266 . S
H304 C276 0.929 . S
H305 C277 0.931 . S
H306 C279 0.930 . S
H307 C280 0.930 . S
H308 C285 0.929 . S
H309 C286 0.931 . S
H310 C288 0.930 . S
H311 C289 0.930 . S
C312 C313 1.370 1_545 S
C312 C314 1.419 . S
C312 H316 0.930 . S
C313 C312 1.370 1_565 S
C313 C322 1.428 . S
C314 C312 1.419 . S
C314 C315 1.359 1_545 S
C314 H317 0.929 . S
C315 C314 1.359 1_565 S
C315 C321 1.432 . S
H316 C312 0.930 . S
H317 C314 0.929 . S
S318 N319 1.613 . S
S318 N320 1.610 . S
N319 S318 1.613 . S
N319 C322 1.350 . S
N320 S318 1.610 . S
N320 C321 1.351 . S
C321 C315 1.432 . S
C321 N320 1.351 . S
C321 C322 1.434 . S
C322 C313 1.428 . S
C322 N319 1.350 . S
C322 C321 1.434 . S
C323 C324 1.369 . S
C323 C325 1.419 . S
C323 H327 0.930 . S
C324 C323 1.369 . S
C324 C333 1.429 . S
C325 C323 1.419 . S
C325 C326 1.363 . S
C325 H328 0.929 . S
C326 C325 1.363 . S
C326 C332 1.428 . S
H327 C323 0.930 . S
H328 C325 0.929 . S
S329 N330 1.613 . S
S329 N331 1.610 . S
N330 S329 1.613 . S
N330 C333 1.350 . S
N331 S329 1.610 . S
N331 C332 1.351 . S
C332 C326 1.428 . S
C332 N331 1.351 . S
C332 C333 1.434 . S
C333 C324 1.429 . S
C333 N330 1.350 . S
C333 C332 1.434 . S
C334 C335 1.369 . S
C334 C336 1.419 . S
C334 H338 0.930 . S
C335 C334 1.369 . S
C335 C344 1.429 . S
C336 C334 1.419 . S
C336 C337 1.363 . S
C336 H339 0.929 . S
C337 C336 1.363 . S
C337 C343 1.428 . S
H338 C334 0.930 . S
H339 C336 0.929 . S
S340 N341 1.613 . S
S340 N342 1.610 . S
N341 S340 1.613 . S
N341 C344 1.350 . S
N342 S340 1.610 . S
N342 C343 1.351 . S
C343 C337 1.428 . S
C343 N342 1.351 . S
C343 C344 1.434 . S
C344 C335 1.429 . S
C344 N341 1.350 . S
C344 C343 1.434 . S
C345 C346 1.371 1_455 S
C345 C347 1.419 . S
C345 H349 0.930 . S
C346 C345 1.371 1_655 S
C346 C355 1.427 . S
C347 C345 1.419 . S
C347 C348 1.378 . S
C347 H350 0.929 . S
C348 C347 1.378 . S
C348 C354 1.413 1_455 S
H349 C345 0.930 . S
H350 C347 0.929 . S
S351 N352 1.613 . S
S351 N353 1.610 . S
N352 S351 1.613 . S
N352 C355 1.350 . S
N353 S351 1.610 . S
N353 C354 1.351 . S
C354 C348 1.413 1_655 S
C354 N353 1.351 . S
C354 C355 1.434 . S
C355 C346 1.427 . S
C355 N352 1.350 . S
C355 C354 1.434 . S
C356 C357 1.369 1_545 S
C356 C358 1.419 . S
C356 H360 0.930 . S
C357 C356 1.369 1_565 S
C357 C366 1.429 . S
C358 C356 1.419 . S
C358 C359 1.365 . S
C358 H361 0.929 . S
C359 C358 1.365 . S
C359 C365 1.426 1_545 S
H360 C356 0.930 . S
H361 C358 0.929 . S
S362 N363 1.613 . S
S362 N364 1.610 1_554 S
N363 S362 1.613 . S
N363 C366 1.350 . S
N364 S362 1.610 1_556 S
N364 C365 1.351 1_556 S
C365 C359 1.426 1_565 S
C365 N364 1.351 1_554 S
C365 C366 1.434 . S
C366 C357 1.429 . S
C366 N363 1.350 . S
C366 C365 1.434 . S
C367 C368 1.369 . S
C367 C369 1.419 . S
C367 H371 0.930 . S
C368 C367 1.369 . S
C368 C377 1.429 . S
C369 C367 1.419 . S
C369 C370 1.363 . S
C369 H372 0.929 . S
C370 C369 1.363 . S
C370 C376 1.428 . S
H371 C367 0.930 . S
H372 C369 0.929 . S
S373 N374 1.613 . S
S373 N375 1.610 . S
N374 S373 1.613 . S
N374 C377 1.350 . S
N375 S373 1.610 . S
N375 C376 1.351 . S
C376 C370 1.428 . S
C376 N375 1.351 . S
C376 C377 1.434 . S
C377 C368 1.429 . S
C377 N374 1.350 . S
C377 C376 1.434 . S
C378 C379 1.369 . S
C378 C380 1.419 . S
C378 H382 0.930 . S
C379 C378 1.369 . S
C379 C388 1.429 . S
C380 C378 1.419 . S
C380 C381 1.363 . S
C380 H383 0.929 . S
C381 C380 1.363 . S
C381 C387 1.428 . S
H382 C378 0.930 . S
H383 C380 0.929 . S
S384 N385 1.613 . S
S384 N386 1.610 1_554 S
N385 S384 1.613 . S
N385 C388 1.350 . S
N386 S384 1.610 1_556 S
N386 C387 1.351 1_556 S
C387 C381 1.428 . S
C387 N386 1.351 1_554 S
C387 C388 1.434 . S
C388 C379 1.429 . S
C388 N385 1.350 . S
C388 C387 1.434 . S
C389 C390 1.369 . S
C389 C391 1.419 . S
C389 H393 0.930 . S
C390 C389 1.369 . S
C390 C399 1.429 1_655 S
C391 C389 1.419 . S
C391 C392 1.369 . S
C391 H394 0.929 1_554 S
C392 C391 1.369 . S
C392 C398 1.422 1_655 S
H393 C389 0.930 . S
H394 C391 0.929 1_556 S
S395 N396 1.613 . S
S395 N397 1.610 . S
N396 S395 1.613 . S
N396 C399 1.350 . S
N397 S395 1.610 . S
N397 C398 1.351 . S
C398 C392 1.422 1_455 S
C398 N397 1.351 . S
C398 C399 1.434 . S
C399 C390 1.429 1_455 S
C399 N396 1.350 . S
C399 C398 1.434 . S
C400 C401 1.368 1_455 S
C400 C402 1.419 1_455 S
C400 H404 0.930 . S
C401 C400 1.368 1_655 S
C401 C410 1.433 . S
C402 C400 1.419 1_655 S
C402 C403 1.363 . S
C402 H405 0.929 . S
C403 C402 1.363 . S
C403 C409 1.428 . S
H404 C400 0.930 . S
H405 C402 0.929 . S
S406 N407 1.613 . S
S406 N408 1.610 . S
N407 S406 1.613 . S
N407 C410 1.350 . S
N408 S406 1.610 . S
N408 C409 1.351 . S
C409 C403 1.428 . S
C409 N408 1.351 . S
C409 C410 1.434 . S
C410 C401 1.433 . S
C410 N407 1.350 . S
C410 C409 1.434 . S
C411 C412 1.369 1_565 S
C411 C413 1.419 . S
C411 H415 0.930 . S
C412 C411 1.369 1_545 S
C412 C421 1.429 . S
C413 C411 1.419 . S
C413 C414 1.363 . S
C413 H416 0.929 . S
C414 C413 1.363 . S
C414 C420 1.428 . S
H415 C411 0.930 . S
H416 C413 0.929 . S
S417 N418 1.613 . S
S417 N419 1.610 1_545 S
N418 S417 1.613 . S
N418 C421 1.350 . S
N419 S417 1.610 1_565 S
N419 C420 1.351 . S
C420 C414 1.428 . S
C420 N419 1.351 . S
C420 C421 1.434 1_565 S
C421 C412 1.429 . S
C421 N418 1.350 . S
C421 C420 1.434 1_545 S
C422 C423 1.369 . S
C422 C424 1.419 . S
C422 H426 0.930 . S
C423 C422 1.369 . S
C423 C432 1.429 . S
C424 C422 1.419 . S
C424 C425 1.363 . S
C424 H427 0.929 . S
C425 C424 1.363 . S
C425 C431 1.428 . S
H426 C422 0.930 . S
H427 C424 0.929 . S
S428 N429 1.613 . S
S428 N430 1.610 . S
N429 S428 1.613 . S
N429 C432 1.350 . S
N430 S428 1.610 . S
N430 C431 1.351 . S
C431 C425 1.428 . S
C431 N430 1.351 . S
C431 C432 1.434 . S
C432 C423 1.429 . S
C432 N429 1.350 . S
C432 C431 1.434 . S
C433 C434 1.369 . S
C433 C435 1.419 . S
C433 H437 0.930 . S
C434 C433 1.369 . S
C434 C443 1.429 . S
C435 C433 1.419 . S
C435 C436 1.363 . S
C435 H438 0.929 . S
C436 C435 1.363 . S
C436 C442 1.428 . S
H437 C433 0.930 . S
H438 C435 0.929 . S
S439 N440 1.613 . S
S439 N441 1.610 . S
N440 S439 1.613 . S
N440 C443 1.350 . S
N441 S439 1.610 . S
N441 C442 1.351 . S
C442 C436 1.428 . S
C442 N441 1.351 . S
C442 C443 1.434 . S
C443 C434 1.429 . S
C443 N440 1.350 . S
C443 C442 1.434 . S
C444 C445 1.367 1_655 S
C444 C446 1.419 1_655 S
C444 H448 0.930 . S
C445 C444 1.367 1_455 S
C445 C454 1.440 . S
C446 C444 1.419 1_455 S
C446 C447 1.363 . S
C446 H449 0.929 . S
C447 C446 1.363 . S
C447 C453 1.428 . S
H448 C444 0.930 . S
H449 C446 0.929 . S
S450 N451 1.613 . S
S450 N452 1.610 . S
N451 S450 1.613 . S
N451 C454 1.350 . S
N452 S450 1.610 . S
N452 C453 1.351 . S
C453 C447 1.428 . S
C453 N452 1.351 . S
C453 C454 1.434 . S
C454 C445 1.440 . S
C454 N451 1.350 . S
C454 C453 1.434 . S
C455 C456 1.375 . S
C455 C457 1.419 . S
C455 H459 0.930 . S
C456 C455 1.375 . S
C456 C465 1.429 . S
C457 C455 1.419 . S
C457 C458 1.363 . S
C457 H460 0.929 . S
C458 C457 1.363 . S
C458 C464 1.428 . S
H459 C455 0.930 . S
H460 C457 0.929 . S
S461 N462 1.613 . S
S461 N463 1.610 1_565 S
N462 S461 1.613 . S
N462 C465 1.339 1_565 S
N463 S461 1.610 1_545 S
N463 C464 1.351 . S
C464 C458 1.428 . S
C464 N463 1.351 . S
C464 C465 1.446 . S
C465 C456 1.429 . S
C465 N462 1.339 1_545 S
C465 C464 1.446 . S
C466 C467 1.369 . S
C466 C468 1.419 . S
C466 H470 0.930 . S
C467 C466 1.369 . S
C467 C476 1.429 . S
C468 C466 1.419 . S
C468 C469 1.363 . S
C468 H471 0.929 . S
C469 C468 1.363 . S
C469 C475 1.428 . S
H470 C466 0.930 . S
H471 C468 0.929 . S
S472 N473 1.613 . S
S472 N474 1.610 . S
N473 S472 1.613 . S
N473 C476 1.350 . S
N474 S472 1.610 . S
N474 C475 1.351 . S
C475 C469 1.428 . S
C475 N474 1.351 . S
C475 C476 1.434 . S
C476 C467 1.429 . S
C476 N473 1.350 . S
C476 C475 1.434 . S
C477 C478 1.369 . S
C477 C479 1.419 . S
C477 H481 0.930 . S
C478 C477 1.369 . S
C478 C487 1.429 . S
C479 C477 1.419 . S
C479 C480 1.363 . S
C479 H482 0.929 . S
C480 C479 1.363 . S
C480 C486 1.428 . S
H481 C477 0.930 . S
H482 C479 0.929 . S
S483 N484 1.613 . S
S483 N485 1.610 . S
N484 S483 1.613 . S
N484 C487 1.350 . S
N485 S483 1.610 . S
N485 C486 1.351 . S
C486 C480 1.428 . S
C486 N485 1.351 . S
C486 C487 1.434 . S
C487 C478 1.429 . S
C487 N484 1.350 . S
C487 C486 1.434 . S
C488 C489 1.369 . S
C488 C490 1.419 . S
C488 H492 0.930 . S
C489 C488 1.369 . S
C489 C498 1.429 1_455 S
C490 C488 1.419 . S
C490 C491 1.363 . S
C490 H493 0.929 . S
C491 C490 1.363 . S
C491 C497 1.428 1_455 S
H492 C488 0.930 . S
H493 C490 0.929 . S
S494 N495 1.613 . S
S494 N496 1.610 . S
N495 S494 1.613 . S
N495 C498 1.350 . S
N496 S494 1.610 . S
N496 C497 1.351 . S
C497 C491 1.428 1_655 S
C497 N496 1.351 . S
C497 C498 1.434 . S
C498 C489 1.429 1_655 S
C498 N495 1.350 . S
C498 C497 1.434 . S
C499 C500 1.369 . S
C499 C501 1.419 . S
C499 H503 0.930 . S
C500 C499 1.369 . S
C500 C509 1.429 1_545 S
C501 C499 1.419 . S
C501 C502 1.363 . S
C501 H504 0.929 . S
C502 C501 1.363 . S
C502 C508 1.428 1_545 S
H503 C499 0.930 . S
H504 C501 0.929 . S
S505 N506 1.613 . S
S505 N507 1.610 . S
N506 S505 1.613 . S
N506 C509 1.350 . S
N507 S505 1.610 . S
N507 C508 1.351 . S
C508 C502 1.428 1_565 S
C508 N507 1.351 . S
C508 C509 1.434 . S
C509 C500 1.429 1_565 S
C509 N506 1.350 . S
C509 C508 1.434 . S
C510 C511 1.369 . S
C510 C512 1.419 . S
C510 H514 0.930 . S
C511 C510 1.369 . S
C511 C520 1.429 . S
C512 C510 1.419 . S
C512 C513 1.363 . S
C512 H515 0.929 . S
C513 C512 1.363 . S
C513 C519 1.428 . S
H514 C510 0.930 . S
H515 C512 0.929 . S
S516 N517 1.613 . S
S516 N518 1.610 . S
N517 S516 1.613 . S
N517 C520 1.350 . S
N518 S516 1.610 . S
N518 C519 1.351 . S
C519 C513 1.428 . S
C519 N518 1.351 . S
C519 C520 1.434 . S
C520 C511 1.429 . S
C520 N517 1.350 . S
C520 C519 1.434 . S
C521 C522 1.369 . S
C521 C523 1.419 . S
C521 H525 0.930 1_556 S
C522 C521 1.369 . S
C522 C531 1.429 . S
C523 C521 1.419 . S
C523 C524 1.363 . S
C523 H526 0.929 1_556 S
C524 C523 1.363 . S
C524 C530 1.428 . S
H525 C521 0.930 1_554 S
H526 C523 0.929 1_554 S
S527 N528 1.613 . S
S527 N529 1.610 . S
N528 S527 1.613 . S
N528 C531 1.350 . S
N529 S527 1.610 . S
N529 C530 1.351 . S
C530 C524 1.428 . S
C530 N529 1.351 . S
C530 C531 1.434 . S
C531 C522 1.429 . S
C531 N528 1.350 . S
C531 C530 1.434 . S
C532 C533 1.369 . S
C532 C534 1.419 . S
C532 H536 0.930 . S
C533 C532 1.369 . S
C533 C542 1.429 1_655 S
C534 C532 1.419 . S
C534 C535 1.363 . S
C534 H537 0.929 . S
C535 C534 1.363 . S
C535 C541 1.436 . S
H536 C532 0.930 . S
H537 C534 0.929 . S
S538 N539 1.613 1_554 S
S538 N540 1.610 1_554 S
N539 S538 1.613 1_556 S
N539 C542 1.350 . S
N540 S538 1.610 1_556 S
N540 C541 1.347 1_455 S
C541 C535 1.436 . S
C541 N540 1.347 1_655 S
C541 C542 1.432 1_655 S
C542 C533 1.429 1_455 S
C542 N539 1.350 . S
C542 C541 1.432 1_455 S
C543 C544 1.369 1_545 S
C543 C545 1.419 . S
C543 H547 0.930 . S
C544 C543 1.369 1_565 S
C544 C553 1.429 . S
C545 C543 1.419 . S
C545 C546 1.363 1_545 S
C545 H548 0.929 . S
C546 C545 1.363 1_565 S
C546 C552 1.428 . S
H547 C543 0.930 . S
H548 C545 0.929 . S
S549 N550 1.613 . S
S549 N551 1.610 . S
N550 S549 1.613 . S
N550 C553 1.350 . S
N551 S549 1.610 . S
N551 C552 1.351 . S
C552 C546 1.428 . S
C552 N551 1.351 . S
C552 C553 1.434 . S
C553 C544 1.429 . S
C553 N550 1.350 . S
C553 C552 1.434 . S
C554 C555 1.369 . S
C554 C556 1.419 . S
C554 H558 0.930 . S
C555 C554 1.369 . S
C555 C564 1.429 . S
C556 C554 1.419 . S
C556 C557 1.363 . S
C556 H559 0.929 . S
C557 C556 1.363 . S
C557 C563 1.428 . S
H558 C554 0.930 . S
H559 C556 0.929 . S
S560 N561 1.613 1_554 S
S560 N562 1.610 1_554 S
N561 S560 1.613 1_556 S
N561 C564 1.350 . S
N562 S560 1.610 1_556 S
N562 C563 1.351 . S
C563 C557 1.428 . S
C563 N562 1.351 . S
C563 C564 1.434 . S
C564 C555 1.429 . S
C564 N561 1.350 . S
C564 C563 1.434 . S
C565 C566 1.369 . S
C565 C567 1.419 . S
C565 H569 0.930 . S
C566 C565 1.369 . S
C566 C575 1.429 . S
C567 C565 1.419 . S
C567 C568 1.363 . S
C567 H570 0.929 . S
C568 C567 1.363 . S
C568 C574 1.428 . S
H569 C565 0.930 . S
H570 C567 0.929 . S
S571 N572 1.613 . S
S571 N573 1.610 . S
N572 S571 1.613 . S
N572 C575 1.350 . S
N573 S571 1.610 . S
N573 C574 1.351 . S
C574 C568 1.428 . S
C574 N573 1.351 . S
C574 C575 1.434 . S
C575 C566 1.429 . S
C575 N572 1.350 . S
C575 C574 1.434 . S
C313 C125 2.087 . S
C315 C161 2.147 . S
C326 C201 2.167 . S
C324 C144 2.121 . S
C337 C241 2.179 . S
C335 C87 2.140 . S
C348 C281 2.159 1_455 S
C346 C106 2.098 . S
C359 C170 2.150 1_554 S
C357 C49 2.090 . S
C368 C68 2.091 . S
C370 C210 2.168 1_554 S
C379 C11 2.097 . S
C381 C250 2.178 1_554 S
C390 C30 2.100 . S
C392 C290 2.159 1_654 S
C403 C167 0.763 . S
C401 C97 0.762 . S
C414 C207 0.756 . S
C412 C116 0.775 1_545 S
C425 C247 0.762 . S
C423 C135 0.766 . S
C434 C78 0.745 . S
C436 C287 0.758 . S
C445 C21 0.754 1_455 S
C447 C158 0.770 . S
C458 C198 0.762 . S
C456 C40 0.774 1_545 S
C469 C238 0.764 . S
C467 C59 0.749 . S
C478 C2 0.760 . S
C480 C278 0.748 . S
C489 C101 2.247 1_455 S
C491 C171 2.543 . S
C500 C120 2.208 1_545 S
C502 C211 2.507 . S
C513 C251 2.494 . S
C511 C139 2.197 . S
C524 C291 2.532 . S
C522 C82 2.238 . S
C533 C25 2.255 . S
C535 C162 2.553 . S
C546 C202 2.509 . S
C544 C44 2.209 . S
C557 C242 2.492 . S
C555 C63 2.197 . S
C566 C6 2.232 . S
C568 C282 2.540 . S
