# Generated by pormake.
# Topology zzz, (3,6)-cn, num edge types: 1
# Building blocks:
#     Node 0, Type 0, BuildingBlock: KAKCAD_clean_linker_0, # of connection points: 3
#     Node 1, Type 0, BuildingBlock: KAKCAD_clean_linker_0, # of connection points: 3
#     Node 2, Type 0, BuildingBlock: KAKCAD_clean_linker_0, # of connection points: 3
#     Node 3, Type 0, BuildingBlock: KAKCAD_clean_linker_0, # of connection points: 3
#     Node 4, Type 0, BuildingBlock: KAKCAD_clean_linker_0, # of connection points: 3
#     Node 5, Type 0, BuildingBlock: KAKCAD_clean_linker_0, # of connection points: 3
#     Node 6, Type 0, BuildingBlock: KAKCAD_clean_linker_0, # of connection points: 3
#     Node 7, Type 0, BuildingBlock: KAKCAD_clean_linker_0, # of connection points: 3
#     Node 8, Type 1, BuildingBlock: KUMBOL_clean_sbu_0, # of connection points: 6
#     Node 9, Type 1, BuildingBlock: KUMBOL_clean_sbu_0, # of connection points: 6
#     Node 10, Type 1, BuildingBlock: KUMBOL_clean_sbu_0, # of connection points: 6
#     Node 11, Type 1, BuildingBlock: KUMBOL_clean_sbu_0, # of connection points: 6
#     Edge 12, Type (0, 1), BuildingBlock: XUDNAN_clean_linker_2, # of connection points: 2
#     Edge 13, Type (0, 1), BuildingBlock: XUDNAN_clean_linker_2, # of connection points: 2
#     Edge 14, Type (0, 1), BuildingBlock: XUDNAN_clean_linker_2, # of connection points: 2
#     Edge 15, Type (0, 1), BuildingBlock: XUDNAN_clean_linker_2, # of connection points: 2
#     Edge 16, Type (0, 1), BuildingBlock: XUDNAN_clean_linker_2, # of connection points: 2
#     Edge 17, Type (0, 1), BuildingBlock: XUDNAN_clean_linker_2, # of connection points: 2
#     Edge 18, Type (0, 1), BuildingBlock: XUDNAN_clean_linker_2, # of connection points: 2
#     Edge 19, Type (0, 1), BuildingBlock: XUDNAN_clean_linker_2, # of connection points: 2
#     Edge 20, Type (0, 1), BuildingBlock: XUDNAN_clean_linker_2, # of connection points: 2
#     Edge 21, Type (0, 1), BuildingBlock: XUDNAN_clean_linker_2, # of connection points: 2
#     Edge 22, Type (0, 1), BuildingBlock: XUDNAN_clean_linker_2, # of connection points: 2
#     Edge 23, Type (0, 1), BuildingBlock: XUDNAN_clean_linker_2, # of connection points: 2
#     Edge 24, Type (0, 1), BuildingBlock: XUDNAN_clean_linker_2, # of connection points: 2
#     Edge 25, Type (0, 1), BuildingBlock: XUDNAN_clean_linker_2, # of connection points: 2
#     Edge 26, Type (0, 1), BuildingBlock: XUDNAN_clean_linker_2, # of connection points: 2
#     Edge 27, Type (0, 1), BuildingBlock: XUDNAN_clean_linker_2, # of connection points: 2
#     Edge 28, Type (0, 1), BuildingBlock: XUDNAN_clean_linker_2, # of connection points: 2
#     Edge 29, Type (0, 1), BuildingBlock: XUDNAN_clean_linker_2, # of connection points: 2
#     Edge 30, Type (0, 1), BuildingBlock: XUDNAN_clean_linker_2, # of connection points: 2
#     Edge 31, Type (0, 1), BuildingBlock: XUDNAN_clean_linker_2, # of connection points: 2
#     Edge 32, Type (0, 1), BuildingBlock: XUDNAN_clean_linker_2, # of connection points: 2
#     Edge 33, Type (0, 1), BuildingBlock: XUDNAN_clean_linker_2, # of connection points: 2
#     Edge 34, Type (0, 1), BuildingBlock: XUDNAN_clean_linker_2, # of connection points: 2
#     Edge 35, Type (0, 1), BuildingBlock: XUDNAN_clean_linker_2, # of connection points: 2
# Relax obj value: 0.295
# Max RMSD: 0.225
# Mean RMSD: 0.211
data_MOF--net-zzz--node1-KUMBOL_clean_sbu_0--node2-KAKCAD_clean_linker_0--edge1-XUDNAN_clean_linker_2
_symmetry_space_group_name_H-M    P1
_symmetry_Int_Tables_number       1
_symmetry_cell_setting            triclinic
loop_
_symmetry_equiv_pos_as_xyz
'x, y, z'
_cell_length_a     57.42284
_cell_length_b     57.315361
_cell_length_c     19.98005
_cell_angle_alpha  90.605044
_cell_angle_beta   90.116344
_cell_angle_gamma 89.975071
loop_
_atom_site_label
_atom_site_type_symbol
_atom_site_fract_x
_atom_site_fract_y
_atom_site_fract_z
_atom_type_partial_charge
C0 C 0.80963 0.60216 0.04357 0.0
C1 C 0.81358 0.58976 0.98347 0.0
C2 C 0.79111 0.5961 0.08515 0.0
C3 C 0.77597 0.57793 0.0666 0.0
C4 C 0.77805 0.56771 1.00282 0.0
C5 C 0.79675 0.57348 0.96169 0.0
C6 C 0.76159 0.5663 0.11761 0.0
C7 C 0.73832 0.56059 0.10506 0.0
C8 C 0.72582 0.54622 0.14888 0.0
C9 C 0.73737 0.53682 0.20553 0.0
C10 C 0.76088 0.54298 0.21902 0.0
C11 C 0.77245 0.55793 0.17522 0.0
C12 C 0.77538 0.53292 0.2736 0.0
C13 C 0.78335 0.54761 0.32581 0.0
C14 C 0.78756 0.51208 0.26089 0.0
C15 C 0.80837 0.50716 0.29501 0.0
C16 C 0.81746 0.52287 0.34312 0.0
C17 C 0.70092 0.54164 0.13176 0.0
C18 C 0.6855 0.56067 0.12889 0.0
C19 C 0.69397 0.52031 0.10246 0.0
C20 C 0.67276 0.5186 0.06695 0.0
C21 C 0.6583 0.53828 0.05952 0.0
C22 C 0.66452 0.55902 0.09335 0.0
C23 C 0.80404 0.54253 0.36065 0.0
H24 H 0.8219 0.61522 0.06103 0.0
H25 H 0.78965 0.6044 0.13394 0.0
H26 H 0.76664 0.55356 0.98755 0.0
H27 H 0.79918 0.56345 0.91603 0.0
H28 H 0.73 0.56702 0.06007 0.0
H29 H 0.79073 0.56182 0.18382 0.0
H30 H 0.72823 0.5251 0.23855 0.0
H31 H 0.77475 0.56414 0.33538 0.0
H32 H 0.78229 0.50077 0.2198 0.0
H33 H 0.81825 0.49184 0.28036 0.0
H34 H 0.69051 0.5774 0.15014 0.0
H35 H 0.70571 0.50552 0.10256 0.0
H36 H 0.81061 0.5551 0.39687 0.0
H37 H 0.65371 0.57444 0.08918 0.0
H38 H 0.66855 0.50242 0.04118 0.0
C39 C 0.90868 0.82469 0.02098 0.0
C40 C 0.91988 0.82612 0.95846 0.0
C41 C 0.91408 0.80657 0.06478 0.0
C42 C 0.93027 0.78933 0.046 0.0
C43 C 0.93828 0.78867 0.97977 0.0
C44 C 0.93324 0.80686 0.93659 0.0
C45 C 0.94302 0.77569 0.097 0.0
C46 C 0.95007 0.75281 0.08305 0.0
C47 C 0.96763 0.74196 0.12068 0.0
C48 C 0.97807 0.75458 0.17468 0.0
C49 C 0.96989 0.77727 0.19202 0.0
C50 C 0.95236 0.78736 0.15273 0.0
C51 C 0.97999 0.79234 0.24655 0.0
C52 C 0.96489 0.80331 0.2926 0.0
C53 C 1.0031 0.80031 0.24328 0.0
C54 C 0.01039 0.81978 0.28165 0.0
C55 C 0.99472 0.83188 0.32417 0.0
C56 C 0.97548 0.71833 0.09707 0.0
C57 C 0.95874 0.70105 0.08202 0.0
C58 C 0.99856 0.7144 0.07663 0.0
C59 C 1.00443 0.69435 0.0389 0.0
C60 C 0.98735 0.6777 0.02056 0.0
C61 C 0.96455 0.6811 0.04437 0.0
C62 C 0.97209 0.82272 0.33068 0.0
H63 H 0.89749 0.83864 0.03865 0.0
H64 H 0.90717 0.80714 0.11518 0.0
H65 H 0.95078 0.77564 0.96348 0.0
H66 H 0.94231 0.80685 0.88922 0.0
H67 H 0.94289 0.74392 0.03947 0.0
H68 H 0.94738 0.80533 0.16249 0.0
H69 H 0.99211 0.7468 0.20305 0.0
H70 H 0.94687 0.79782 0.29575 0.0
H71 H 0.01509 0.79253 0.20768 0.0
H72 H 0.02812 0.82583 0.27605 0.0
H73 H 0.94076 0.70354 0.09689 0.0
H74 H 0.01177 0.72752 0.08614 0.0
H75 H 0.95931 0.83139 0.36198 0.0
H76 H 0.95101 0.66853 0.03289 0.0
H77 H 0.02217 0.6925 0.02137 0.0
C78 C 0.71121 0.91378 1.00902 0.0
C79 C 0.70785 0.92477 0.94702 0.0
C80 C 0.72661 0.92323 0.05634 0.0
C81 C 0.7394 0.94341 0.04172 0.0
C82 C 0.73811 0.95277 0.97739 0.0
C83 C 0.72242 0.94369 0.93069 0.0
C84 C 0.75175 0.95648 0.0951 0.0
C85 C 0.77451 0.96424 0.08537 0.0
C86 C 0.78576 0.9783 0.13337 0.0
C87 C 0.77349 0.98521 0.19208 0.0
C88 C 0.75037 0.97718 0.20262 0.0
C89 C 0.73994 0.96284 0.15362 0.0
C90 C 0.73619 0.98263 0.2637 0.0
C91 C 0.726 0.9641 0.29865 0.0
C92 C 0.72881 1.00547 0.27917 0.0
C93 C 0.71088 0.00946 0.32629 0.0
C94 C 0.69987 0.9907 0.359 0.0
C95 C 0.81066 0.98395 0.12005 0.0
C96 C 0.82682 0.96557 0.11828 0.0
C97 C 0.8171 1.00541 0.09213 0.0
C98 C 0.83893 1.00806 0.06082 0.0
C99 C 0.85473 0.9892 0.05595 0.0
C100 C 0.84839 0.96808 0.08668 0.0
C101 C 0.70815 0.968 0.345 0.0
H102 H 0.7008 0.89885 0.02284 0.0
H103 H 0.72769 0.91548 0.10547 0.0
H104 H 0.74779 0.96836 0.96498 0.0
H105 H 0.72036 0.95302 0.88426 0.0
H106 H 0.78365 0.95917 0.03999 0.0
H107 H 0.72207 0.95714 0.16018 0.0
H108 H 0.782 0.99598 0.22967 0.0
H109 H 0.73102 0.94626 0.28726 0.0
H110 H 0.73599 0.0201 0.25229 0.0
H111 H 0.70535 0.02723 0.33595 0.0
H112 H 0.82207 0.94861 0.13748 0.0
H113 H 0.80476 0.01969 0.09106 0.0
H114 H 0.70011 0.95289 0.36727 0.0
H115 H 0.85948 0.95286 0.08326 0.0
H116 H 0.8431 0.02472 0.03886 0.0
C117 C 0.51655 0.72353 0.355 0.0
C118 C 0.53548 0.71405 0.39099 0.0
C119 C 0.52017 0.74049 0.3053 0.0
C120 C 0.54277 0.7484 0.29064 0.0
C121 C 0.56143 0.73973 0.32851 0.0
C122 C 0.5579 0.72283 0.37742 0.0
C123 C 0.54805 0.76096 0.22732 0.0
C124 C 0.54108 0.78422 0.21403 0.0
C125 C 0.54788 0.79493 0.15338 0.0
C126 C 0.56104 0.78214 0.10656 0.0
C127 C 0.56789 0.75921 0.11925 0.0
C128 C 0.56139 0.74886 0.1795 0.0
C129 C 0.58042 0.74524 0.06803 0.0
C130 C 0.57175 0.74392 1.00243 0.0
C131 C 0.5992 0.73091 0.08623 0.0
C132 C 0.60762 0.71397 0.04166 0.0
C133 C 0.59714 0.71084 0.97851 0.0
C134 C 0.54286 0.81967 0.13658 0.0
C135 C 0.52294 0.82533 0.09895 0.0
C136 C 0.56117 0.8359 0.13997 0.0
C137 C 0.56044 0.85639 0.10239 0.0
C138 C 0.54133 0.86126 0.06062 0.0
C139 C 0.52209 0.84606 0.06175 0.0
C140 C 0.57998 0.72684 0.95813 0.0
H141 H 0.49899 0.71752 0.36411 0.0
H142 H 0.5055 0.74644 0.27591 0.0
H143 H 0.57909 0.74506 0.31739 0.0
H144 H 0.57313 0.71585 0.40213 0.0
H145 H 0.53108 0.79396 0.25077 0.0
H146 H 0.56631 0.7309 0.18875 0.0
H147 H 0.56619 0.79023 0.06001 0.0
H148 H 0.55726 0.75474 0.98712 0.0
H149 H 0.60651 0.73195 0.13621 0.0
H150 H 0.62117 0.70224 0.05844 0.0
H151 H 0.50888 0.81284 0.09383 0.0
H152 H 0.57696 0.83173 0.16713 0.0
H153 H 0.57127 0.72491 0.91028 0.0
H154 H 0.50725 0.84918 0.02952 0.0
H155 H 0.57554 0.86773 0.10256 0.0
C156 C 0.22969 0.43363 0.31251 0.0
C157 C 0.21341 0.41783 0.28497 0.0
C158 C 0.24743 0.44277 0.27307 0.0
C159 C 0.24916 0.43641 0.20529 0.0
C160 C 0.23495 0.41838 0.18021 0.0
C161 C 0.21738 0.40896 0.22001 0.0
C162 C 0.26208 0.45177 0.15918 0.0
C163 C 0.28451 0.45964 0.17496 0.0
C164 C 0.29514 0.47751 0.13815 0.0
C165 C 0.28269 0.48762 0.08413 0.0
C166 C 0.26005 0.47952 0.06743 0.0
C167 C 0.25024 0.46149 0.10489 0.0
C168 C 0.24515 0.48997 0.0142 0.0
C169 C 0.22355 0.49985 0.03194 0.0
C170 C 0.24973 0.48578 0.9461 0.0
C171 C 0.23265 0.49037 0.89724 0.0
C172 C 0.21052 0.4992 0.91533 0.0
C173 C 0.31841 0.48612 0.16162 0.0
C174 C 0.32185 0.50967 0.17922 0.0
C175 C 0.33617 0.47005 0.17675 0.0
C176 C 0.35636 0.47709 0.21103 0.0
C177 C 0.35941 0.50044 0.23181 0.0
C178 C 0.34203 0.51672 0.21402 0.0
C179 C 0.20656 0.50447 0.98335 0.0
H180 H 0.22734 0.44104 0.36209 0.0
H181 H 0.25813 0.45665 0.29377 0.0
H182 H 0.23626 0.41288 0.1283 0.0
H183 H 0.20561 0.39629 0.1978 0.0
H184 H 0.29334 0.45248 0.21817 0.0
H185 H 0.23262 0.45582 0.09369 0.0
H186 H 0.29032 0.5018 0.05629 0.0
H187 H 0.21941 0.50301 0.08414 0.0
H188 H 0.26595 0.47766 0.93106 0.0
H189 H 0.23642 0.48588 0.84563 0.0
H190 H 0.30836 0.52241 0.16943 0.0
H191 H 0.3341 0.45177 0.16379 0.0
H192 H 0.19007 0.51175 0.99948 0.0
H193 H 0.34346 0.53482 0.22947 0.0
H194 H 0.36945 0.46408 0.22199 0.0
C195 C 0.08308 0.23407 0.30262 0.0
C196 C 0.09793 0.21573 0.28215 0.0
C197 C 0.07701 0.25168 0.25853 0.0
C198 C 0.08541 0.2513 0.19275 0.0
C199 C 0.10273 0.23505 0.17511 0.0
C200 C 0.10916 0.21755 0.21982 0.0
C201 C 0.07235 0.26416 0.14086 0.0
C202 C 0.06459 0.28692 0.15311 0.0
C203 C 0.04765 0.29726 0.11232 0.0
C204 C 0.03834 0.28432 0.05733 0.0
C205 C 0.04694 0.26154 0.04274 0.0
C206 C 0.06394 0.25196 0.08485 0.0
C207 C 0.03794 0.24594 0.98788 0.0
C208 C 0.01508 0.23722 0.98958 0.0
C209 C 0.05392 0.2351 0.94412 0.0
C210 C 0.04782 0.21511 0.90694 0.0
C211 C 0.02544 0.20522 0.91208 0.0
C212 C 0.04021 0.32132 0.13202 0.0
C213 C 0.02114 0.32463 0.1753 0.0
C214 C 0.05623 0.33968 0.12524 0.0
C215 C 0.05427 0.36007 0.16428 0.0
C216 C 0.03624 0.36272 0.21145 0.0
C217 C 0.01906 0.34521 0.21422 0.0
C218 C 0.00889 0.21718 0.95206 0.0
H219 H 0.07384 0.23364 0.34972 0.0
H220 H 0.06362 0.26395 0.27376 0.0
H221 H 0.10989 0.23474 0.12498 0.0
H222 H 0.12135 0.20431 0.20313 0.0
H223 H 0.07111 0.29637 0.19661 0.0
H224 H 0.06941 0.23404 0.0766 0.0
H225 H 0.0249 0.29188 0.02627 0.0
H226 H 1.00245 0.24488 0.02349 0.0
H227 H 0.07178 0.24115 0.94237 0.0
H228 H 0.06124 0.20659 0.87761 0.0
H229 H 0.00892 0.31054 0.18317 0.0
H230 H 0.0714 0.33745 0.09365 0.0
H231 H 0.99131 0.21058 0.95647 0.0
H232 H 1.00504 0.34658 0.25022 0.0
H233 H 0.06769 0.37326 0.16025 0.0
C234 C 0.30553 0.08747 0.30801 0.0
C235 C 0.32072 0.10577 0.29066 0.0
C236 C 0.28936 0.07879 0.26204 0.0
C237 C 0.28819 0.08796 0.19745 0.0
C238 C 0.30159 0.10764 0.18193 0.0
C239 C 0.31748 0.1167 0.22852 0.0
C240 C 0.27534 0.07505 0.1447 0.0
C241 C 0.2524 0.06797 0.15511 0.0
C242 C 0.24066 0.05402 0.10781 0.0
C243 C 0.25261 0.04653 0.04913 0.0
C244 C 0.27591 0.05388 0.03787 0.0
C245 C 0.28684 0.06813 0.08618 0.0
C246 C 0.2898 0.04784 0.97666 0.0
C247 C 0.29673 0.0248 0.96203 0.0
C248 C 0.30026 0.066 0.94075 0.0
C249 C 0.31794 0.06152 0.89424 0.0
C250 C 0.32577 0.03861 0.88103 0.0
C251 C 0.21563 0.0491 0.12181 0.0
C252 C 0.20855 0.02766 0.14855 0.0
C253 C 0.20007 0.06798 0.12502 0.0
C254 C 0.1785 0.06594 0.1569 0.0
C255 C 0.17153 0.04482 0.18646 0.0
C256 C 0.18671 0.02549 0.18016 0.0
C257 C 0.31448 0.02022 0.91473 0.0
H258 H 0.30744 0.07821 0.35462 0.0
H259 H 0.27921 0.06358 0.27516 0.0
H260 H 0.30061 0.11526 0.1326 0.0
H261 H 0.32837 0.1312 0.21395 0.0
H262 H 0.24352 0.07347 0.20052 0.0
H263 H 0.30484 0.0733 0.07908 0.0
H264 H 0.24373 0.03584 0.01206 0.0
H265 H 0.28934 0.01044 0.98967 0.0
H266 H 0.29562 0.08398 0.95151 0.0
H267 H 0.32622 0.07636 0.87123 0.0
H268 H 0.22042 0.01296 0.14844 0.0
H269 H 0.20531 0.08491 0.10667 0.0
H270 H 0.31965 1.00231 0.90573 0.0
H271 H 0.18205 1.00881 0.20119 0.0
H272 H 0.16792 0.08149 0.16143 0.0
C273 C 0.46284 0.30747 0.88554 0.0
C274 C 0.48473 0.31602 0.8653 0.0
C275 C 0.46105 0.28976 0.93307 0.0
C276 C 0.48102 0.27985 0.96194 0.0
C277 C 0.50295 0.28751 0.93997 0.0
C278 C 0.5048 0.30537 0.89224 0.0
C279 C 0.47863 0.26635 0.02513 0.0
C280 C 0.48457 0.24244 0.03125 0.0
C281 C 0.48186 0.23122 0.09367 0.0
C282 C 0.47391 0.2441 0.14912 0.0
C283 C 0.4678 0.26764 0.14365 0.0
C284 C 0.4699 0.27842 0.08119 0.0
C285 C 0.46021 0.28124 0.20371 0.0
C286 C 0.44708 0.27089 0.25522 0.0
C287 C 0.46699 0.30467 0.21116 0.0
C288 C 0.46097 0.31735 0.26819 0.0
C289 C 0.44836 0.3069 0.31994 0.0
C290 C 0.48572 0.20587 0.10457 0.0
C291 C 0.46646 0.19081 0.10066 0.0
C292 C 0.50553 0.19849 0.1402 0.0
C293 C 0.50537 0.17737 0.17544 0.0
C294 C 0.48521 0.16345 0.17681 0.0
C295 C 0.46617 0.1699 0.1365 0.0
C296 C 0.44148 0.28356 0.31339 0.0
H297 H 0.44691 0.3153 0.8674 0.0
H298 H 0.44391 0.28469 0.95024 0.0
H299 H 0.51866 0.28063 0.96252 0.0
H300 H 0.52197 0.3112 0.87766 0.0
H301 H 0.49082 0.2327 0.98816 0.0
H302 H 0.46484 0.29653 0.07585 0.0
H303 H 0.47261 0.23555 0.19712 0.0
H304 H 0.44126 0.25298 0.25091 0.0
H305 H 0.47765 0.31314 0.17397 0.0
H306 H 0.46696 0.33523 0.273 0.0
H307 H 0.45073 0.19631 0.07526 0.0
H308 H 0.52033 0.21007 0.14582 0.0
H309 H 0.43193 0.27517 0.35315 0.0
H310 H 0.45039 0.15954 0.13644 0.0
H311 H 0.52022 0.17304 0.20645 0.0
Gd312 Gd 0.98978 0.02853 0.57034 0.0
Gd313 Gd 0.03632 1.0068 0.67188 0.0
C314 C 0.05431 0.06385 0.8267 0.0
C315 C 0.08645 0.08381 0.77353 0.0
C316 C 0.06851 0.05003 0.71925 0.0
C317 C 0.05294 0.04819 0.77164 0.0
C318 C 0.08609 0.06729 0.72126 0.0
C319 C 0.07056 0.08211 0.82616 0.0
C320 C 0.03981 0.0603 0.88169 0.0
C321 C 0.02521 0.04092 0.88229 0.0
N322 N 0.03731 0.03036 0.77063 0.0
C323 C 0.02453 0.02585 0.82687 0.0
H324 H 0.01416 0.01037 0.83103 0.0
C325 C 0.08744 0.03051 0.6309 0.0
N326 N 0.06813 0.03341 0.67034 0.0
C327 C 0.10488 0.04748 0.62935 0.0
C328 C 0.10377 0.06646 0.67333 0.0
H329 H 0.08965 0.01498 0.60072 0.0
H330 H 0.07154 0.09451 0.8674 0.0
H331 H 0.01212 0.02589 0.41122 0.0
H332 H 0.04035 0.07192 0.92479 0.0
H333 H 0.01465 0.03739 0.92583 0.0
H334 H 0.09963 0.09734 0.77528 0.0
H335 H 0.93648 0.01979 0.6408 0.0
H336 H 0.986 0.96495 0.31414 0.0
H337 H 0.01175 0.99944 0.31516 0.0
H338 H 0.9264 0.93878 0.46148 0.0
H339 H 0.11948 0.04556 0.59553 0.0
H340 H 0.11754 0.07938 0.67312 0.0
H341 H 0.95467 0.94207 0.36995 0.0
H342 H 0.90667 0.98917 0.64435 0.0
N343 N 0.98896 1.00549 0.47053 0.0
C344 C 0.98652 0.97628 0.35787 0.0
C345 C 1.00115 0.99563 0.35843 0.0
C346 C 0.97195 0.9724 0.41253 0.0
C347 C 0.97332 0.98769 0.46846 0.0
C348 C 1.00178 0.01036 0.4146 0.0
N349 N 0.95805 1.00181 0.5704 0.0
C350 C 0.95769 0.98552 0.52059 0.0
C351 C 0.92128 0.98747 0.6105 0.0
C352 C 0.92238 0.96882 0.5654 0.0
C353 C 0.93874 1.00443 0.60995 0.0
C354 C 0.94007 0.96832 0.51747 0.0
H355 H 0.90859 0.95592 0.56478 0.0
O356 O 0.96323 0.05476 0.59128 0.0
O357 O 0.01109 0.0362 0.66205 0.0
O358 O 1.0034 0.99684 0.72636 0.0
O359 O 0.97575 0.02032 0.67514 0.0
O360 O 0.00999 0.06167 0.58995 0.0
O361 O 0.97317 0.04706 0.48928 0.0
O362 O 0.06262 0.98021 0.65193 0.0
O363 O 0.0149 0.99908 0.58051 0.0
O364 O 0.02282 0.03865 0.51656 0.0
O365 O 0.05024 0.0147 0.56687 0.0
O366 O 0.0161 0.9736 0.65247 0.0
O367 O 0.0531 0.9888 0.75366 0.0
C368 C 0.0168 0.05713 0.64989 0.0
C369 C 0.93966 0.95221 0.46419 0.0
C370 C 0.95564 0.95419 0.41188 0.0
C371 C 0.96227 0.0614 0.52926 0.0
C372 C 0.9664 0.08639 0.51788 0.0
C373 C 0.95008 0.10302 0.53936 0.0
C374 C 0.98744 0.09383 0.48939 0.0
C375 C 0.99249 0.11764 0.48318 0.0
C376 C 0.95483 0.12679 0.53267 0.0
C377 C 0.97592 0.13412 0.50503 0.0
C378 C 0.98227 1.00599 0.72352 0.0
C379 C 0.00909 0.97819 0.59273 0.0
C380 C 0.06367 0.97401 0.71432 0.0
C381 C 0.05915 0.94919 0.72727 0.0
C382 C 0.07488 0.93205 0.70548 0.0
C383 C 0.03811 0.94242 0.75711 0.0
C384 C 0.03245 0.91879 0.76406 0.0
C385 C 0.06952 0.90843 0.71301 0.0
C386 C 0.04838 0.90178 0.74173 0.0
C387 C 0.04386 0.02928 0.51901 0.0
H388 H 0.93384 0.09761 0.56191 0.0
H389 H 1.00028 0.08104 0.47379 0.0
H390 H 0.94219 0.13959 0.54934 0.0
H391 H 0.97914 0.15264 0.50016 0.0
H392 H 0.09111 0.93694 0.68186 0.0
H393 H 0.02568 0.95557 0.77292 0.0
H394 H 0.08169 0.89524 0.69596 0.0
H395 H 0.04458 0.88338 0.74696 0.0
Gd396 Gd 0.50858 0.98736 0.56533 0.0
Gd397 Gd 0.51658 0.03851 0.67576 0.0
C398 C 0.45502 0.071 0.78779 0.0
C399 C 0.44933 0.10725 0.7279 0.0
C400 C 0.48098 0.08105 0.69736 0.0
C401 C 0.47404 0.06556 0.74582 0.0
C402 C 0.46907 0.10234 0.68881 0.0
C403 C 0.44233 0.09161 0.77738 0.0
C404 C 0.44975 0.05592 0.84017 0.0
C405 C 0.46375 0.03642 0.85082 0.0
N406 N 0.48659 0.04571 0.75412 0.0
C407 C 0.48219 0.03156 0.80729 0.0
H408 H 0.49261 0.01635 0.81678 0.0
C409 C 0.50957 0.09194 0.61867 0.0
N410 N 0.50013 0.07579 0.66071 0.0
C411 C 0.49829 0.11322 0.60805 0.0
C412 C 0.47774 0.1183 0.64253 0.0
H413 H 0.52526 0.08787 0.59106 0.0
H414 H 0.42745 0.0959 0.80846 0.0
H415 H 0.53293 0.0093 0.42473 0.0
H416 H 0.43535 0.05952 0.8737 0.0
H417 H 0.46036 0.02502 0.89251 0.0
H418 H 0.43976 0.12337 0.72153 0.0
H419 H 0.4996 0.93823 0.65083 0.0
H420 H 0.59012 0.96582 0.36902 0.0
H421 H 0.56531 1.00042 0.34956 0.0
H422 H 0.58505 0.90208 0.5215 0.0
H423 H 0.50539 0.12561 0.57305 0.0
H424 H 0.46905 0.13481 0.63433 0.0
H425 H 0.59765 0.92941 0.43451 0.0
H426 H 0.51927 0.90041 0.66951 0.0
N427 N 0.53868 0.97994 0.48755 0.0
C428 C 0.57566 0.9695 0.40224 0.0
C429 C 0.56177 0.98907 0.39123 0.0
C430 C 0.57019 0.95447 0.45459 0.0
C431 C 0.55111 0.96004 0.49621 0.0
C432 C 0.54326 0.99403 0.43438 0.0
N433 N 0.52485 0.95005 0.5812 0.0
C434 C 0.54401 0.94464 0.54475 0.0
C435 C 0.52645 0.91271 0.63439 0.0
C436 C 0.54701 0.90747 0.60011 0.0
C437 C 0.51529 0.93402 0.6234 0.0
C438 C 0.55581 0.92331 0.55368 0.0
H439 H 0.55561 0.89093 0.6086 0.0
O440 O 0.48086 0.96264 0.54504 0.0
O441 O 0.49151 0.01374 0.63089 0.0
O442 O 0.51864 1.00403 0.73416 0.0
O443 O 0.5303 0.97691 0.65363 0.0
O444 O 0.47921 0.98048 0.63991 0.0
O445 O 0.49102 0.98751 0.46915 0.0
O446 O 0.54407 0.06347 0.69632 0.0
O447 O 0.53363 0.01226 0.60983 0.0
O448 O 0.50651 0.02174 0.50664 0.0
O449 O 0.49507 0.04905 0.587 0.0
O450 O 0.54575 0.04559 0.60084 0.0
O451 O 0.53472 0.03787 0.77105 0.0
C452 C 0.47639 1.00168 0.6602 0.0
C453 C 0.57557 0.91825 0.51486 0.0
C454 C 0.58275 0.9338 0.46534 0.0
C455 C 0.47519 0.97276 0.48926 0.0
C456 C 0.45076 0.98038 0.48543 0.0
C457 C 0.43283 0.96429 0.49666 0.0
C458 C 0.44522 1.00404 0.47694 0.0
C459 C 0.42202 0.01163 0.47881 0.0
C460 C 0.40971 0.97176 0.49958 0.0
C461 C 0.40428 0.99528 0.49072 0.0
C462 C 0.52734 0.98335 0.71663 0.0
C463 C 0.54865 0.02442 0.58036 0.0
C464 C 0.5502 0.05302 0.75116 0.0
C465 C 0.57477 0.04578 0.75347 0.0
C466 C 0.59236 0.06235 0.74359 0.0
C467 C 0.58078 0.02213 0.75949 0.0
C468 C 0.60414 0.01502 0.75696 0.0
C469 C 0.61561 0.05537 0.73975 0.0
C470 C 0.62153 0.03188 0.74648 0.0
C471 C 0.49794 0.04249 0.52403 0.0
H472 H 0.43676 0.94602 0.5043 0.0
H473 H 0.45894 0.01666 0.46934 0.0
H474 H 0.39595 0.95928 0.50841 0.0
H475 H 0.38616 1.00052 0.49131 0.0
H476 H 0.58806 0.08063 0.73782 0.0
H477 H 0.5673 0.00915 0.76587 0.0
H478 H 0.62911 0.06824 0.73205 0.0
H479 H 0.63976 0.02707 0.74552 0.0
Gd480 Gd 0.48191 0.52238 0.68695 0.0
Gd481 Gd 0.53723 0.51159 0.59867 0.0
C482 C 0.60779 0.52106 0.70181 0.0
C483 C 0.6228 0.55576 0.64793 0.0
C484 C 0.58527 0.53967 0.61482 0.0
C485 C 0.58749 0.52242 0.66209 0.0
C486 C 0.6031 0.55627 0.60616 0.0
C487 C 0.62516 0.53815 0.69561 0.0
C488 C 0.61022 0.5023 0.74548 0.0
C489 C 0.59292 0.48524 0.74751 0.0
N490 N 0.57019 0.50645 0.66756 0.0
C491 C 0.57294 0.48758 0.70808 0.0
H492 H 0.55976 0.47427 0.71093 0.0
C493 C 0.56459 0.55429 0.52182 0.0
N494 N 0.56612 0.53953 0.5751 0.0
C495 C 0.58166 0.57128 0.51169 0.0
C496 C 0.60086 0.57249 0.55463 0.0
H497 H 0.54965 0.55352 0.48888 0.0
H498 H 0.6407 0.5376 0.72642 0.0
H499 H 0.45608 0.56088 0.58391 0.0
H500 H 0.62556 0.50057 0.77671 0.0
H501 H 0.59488 0.47027 0.77953 0.0
H502 H 0.63656 0.56852 0.64259 0.0
H503 H 0.47466 0.4774 0.79028 0.0
H504 H 0.38662 0.53791 0.54594 0.0
H505 H 0.41828 0.56642 0.5292 0.0
H506 H 0.37965 0.46928 0.67889 0.0
H507 H 0.57998 0.58343 0.47085 0.0
H508 H 0.61412 0.58559 0.5465 0.0
H509 H 0.3723 0.50186 0.60265 0.0
H510 H 0.44457 0.44812 0.81688 0.0
N511 N 0.44696 0.52836 0.62771 0.0
C512 C 0.40341 0.53511 0.56937 0.0
C513 C 0.42123 0.55123 0.55979 0.0
C514 C 0.40728 0.51587 0.61043 0.0
C515 C 0.42953 0.5129 0.63927 0.0
C516 C 0.44282 0.54784 0.59061 0.0
N517 N 0.45444 0.49358 0.71435 0.0
C518 C 0.43346 0.49485 0.68342 0.0
C519 C 0.44122 0.46111 0.77913 0.0
C520 C 0.41983 0.46162 0.7459 0.0
C521 C 0.4582 0.47768 0.76393 0.0
C522 C 0.41551 0.47894 0.69856 0.0
H523 H 0.40654 0.449 0.75851 0.0
O524 O 0.4694 0.52817 0.78766 0.0
O525 O 0.52047 0.52291 0.69272 0.0
O526 O 0.52371 0.47934 0.65408 0.0
O527 O 0.48366 0.48463 0.65344 0.0
O528 O 0.5043 0.51141 0.77666 0.0
O529 O 0.47151 0.55719 0.71856 0.0
O530 O 0.54818 0.50367 0.49724 0.0
O531 O 0.49854 0.51206 0.59137 0.0
O532 O 0.49369 0.55479 0.62865 0.0
O533 O 0.53397 0.5501 0.62111 0.0
O534 O 0.51621 0.52274 0.5077 0.0
O535 O 0.55112 0.4774 0.57443 0.0
C536 C 0.52429 0.51616 0.75136 0.0
C537 C 0.39363 0.48133 0.66796 0.0
C538 C 0.38945 0.4999 0.62463 0.0
C539 C 0.46803 0.55068 0.78031 0.0
C540 C 0.47951 0.5643 0.83323 0.0
C541 C 0.46811 0.56749 0.89454 0.0
C542 C 0.50225 0.57275 0.82489 0.0
C543 C 0.51354 0.58473 0.87745 0.0
C544 C 0.47924 0.57917 0.94708 0.0
C545 C 0.50173 0.58783 0.9387 0.0
C546 C 0.50219 0.47106 0.659 0.0
C547 C 0.49584 0.51903 0.53213 0.0
C548 C 0.55208 0.48179 0.5105 0.0
C549 C 0.54086 0.46493 0.46497 0.0
C550 C 0.54504 0.4664 0.39598 0.0
C551 C 0.52504 0.44826 0.48891 0.0
C552 C 0.51313 0.43358 0.44411 0.0
C553 C 0.53333 0.45167 0.35128 0.0
C554 C 0.51737 0.43542 0.37504 0.0
C555 C 0.51497 0.56312 0.61762 0.0
H556 H 0.45068 0.56076 0.90188 0.0
H557 H 0.5111 0.56995 0.77764 0.0
H558 H 0.47032 0.58172 0.99429 0.0
H559 H 0.50956 0.59754 0.97972 0.0
H560 H 0.55714 0.47916 0.37667 0.0
H561 H 0.52159 0.44693 0.54196 0.0
H562 H 0.53656 0.45292 0.29808 0.0
H563 H 0.50854 0.42406 0.33951 0.0
Gd564 Gd 0.00798 0.5024 0.67001 0.0
Gd565 Gd 0.0295 0.54459 0.5534 0.0
C566 C 0.03354 0.61441 0.66822 0.0
C567 C 1.00068 0.63574 0.62315 0.0
C568 C 0.00952 0.59653 0.58222 0.0
C569 C 0.02801 0.59521 0.62612 0.0
C570 C 0.99606 0.61714 0.57886 0.0
C571 C 0.01943 0.63439 0.6677 0.0
C572 C 0.05343 0.61322 0.70838 0.0
C573 C 0.06757 0.5935 0.70476 0.0
N574 N 0.04119 0.57555 0.6258 0.0
C575 C 0.0613 0.57488 0.66271 0.0
H576 H 0.07285 0.5602 0.66043 0.0
C577 C 0.99107 0.58138 0.48576 0.0
N578 N 1.00589 0.57845 0.53907 0.0
C579 C 0.977 0.6012 0.48117 0.0
C580 C 0.97911 0.61895 0.5289 0.0
H581 H 0.98984 0.5683 0.44651 0.0
H582 H 0.02323 0.64912 0.70035 0.0
H583 H 0.95142 0.50171 0.71336 0.0
H584 H 0.05827 0.62758 0.74125 0.0
H585 H 0.08332 0.59258 0.73447 0.0
H586 H 0.99035 0.65155 0.62179 0.0
H587 H 0.0543 0.46548 0.64996 0.0
H588 H 0.92023 0.44071 0.62591 0.0
H589 H 0.91653 0.47745 0.69121 0.0
H590 H 0.986 0.39665 0.55034 0.0
H591 H 0.96479 0.6029 0.44017 0.0
H592 H 0.96842 0.63446 0.52475 0.0
H593 H 0.94632 0.41083 0.57208 0.0
H594 H 0.06156 0.42613 0.6068 0.0
N595 N 0.97413 0.47959 0.65765 0.0
C596 C 0.9355 0.45139 0.63504 0.0
C597 C 0.93334 0.47205 0.67218 0.0
C598 C 0.95755 0.44406 0.61356 0.0
C599 C 0.97688 0.45865 0.62637 0.0
C600 C 0.95307 0.48568 0.68484 0.0
N601 N 0.01764 0.46455 0.63138 0.0
C602 C 0.99931 0.45081 0.61328 0.0
C603 C 0.04397 0.43293 0.60773 0.0
C604 C 0.02556 0.41939 0.58361 0.0
C605 C 0.03969 0.45549 0.63211 0.0
C606 C 1.00284 0.42802 0.58775 0.0
H607 H 0.02899 0.40198 0.56439 0.0
O608 O 0.01911 0.51194 0.7707 0.0
O609 O 0.01775 0.53975 0.65808 0.0
O610 O 0.06126 0.52717 0.59912 0.0
O611 O 0.04719 0.50378 0.68473 0.0
O612 O 0.98482 0.53331 0.69353 0.0
O613 O 1.00062 0.47997 0.75497 0.0
O614 O 0.03557 0.55783 0.45332 0.0
O615 O 0.02729 0.5061 0.57373 0.0
O616 O 0.97732 0.51063 0.60164 0.0
O617 O 0.99156 0.53808 0.52713 0.0
O618 O 0.01818 0.517 0.47883 0.0
O619 O 0.06465 0.55047 0.51786 0.0
C620 C 0.99998 0.54953 0.68355 0.0
C621 C 0.98358 0.41408 0.57066 0.0
C622 C 0.96097 0.42214 0.58315 0.0
C623 C 0.00914 0.49438 0.79894 0.0
C624 C 0.99431 0.49983 0.85686 0.0
C625 C 0.99735 0.48768 0.91664 0.0
C626 C 0.97681 0.51682 0.85253 0.0
C627 C 0.96175 0.52131 0.90644 0.0
C628 C 0.98283 0.49231 0.97119 0.0
C629 C 0.96503 0.50885 0.96615 0.0
C630 C 0.06449 0.51389 0.65231 0.0
C631 C 0.02048 0.499 0.51639 0.0
C632 C 0.05797 0.55556 0.45758 0.0
C633 C 0.06905 0.5425 0.40268 0.0
C634 C 0.0716 0.55304 0.34027 0.0
C635 C 0.07687 0.51951 0.41183 0.0
C636 C 0.08804 0.50725 0.35964 0.0
C637 C 0.08224 0.54093 0.28776 0.0
C638 C 0.0906 0.51834 0.29734 0.0
C639 C 0.97472 0.52471 0.55029 0.0
H640 H 0.01084 0.47455 0.92096 0.0
H641 H 0.97483 0.52654 0.80718 0.0
H642 H 0.98514 0.48277 0.01721 0.0
H643 H 0.95354 0.5114 1.00848 0.0
H644 H 0.06547 0.57068 0.33232 0.0
H645 H 0.07445 0.51138 0.45992 0.0
H646 H 0.0844 0.54924 0.23977 0.0
H647 H 0.09973 0.50996 0.2563 0.0
H648 H 0.1611 0.01812 0.29903 0.0
H649 H 0.13053 0.06883 0.16443 0.0
H650 H 0.09572 0.07082 0.23539 0.0
H651 H 0.10608 0.98711 0.32955 0.0
H652 H 0.1132 0.98115 0.41559 0.0
H653 H 0.13607 0.98378 0.35454 0.0
H654 H 0.15555 0.01587 0.42781 0.0
H655 H 0.13254 0.01353 0.48856 0.0
H656 H 0.13898 0.04135 0.45175 0.0
H657 H 0.06499 0.06953 0.32519 0.0
H658 H 0.03886 0.06169 0.41996 0.0
H659 H 0.08641 1.00813 0.48911 0.0
C660 C 0.147 0.02936 0.28345 0.0
C661 C 0.14917 0.0437 0.22608 0.0
C662 C 0.13002 0.05819 0.20881 0.0
C663 C 0.10993 0.05934 0.24871 0.0
C664 C 0.1087 0.04552 0.30548 0.0
C665 C 0.12649 0.03041 0.32217 0.0
C666 C 0.12037 0.01703 0.38519 0.0
C667 C 0.11884 0.99071 0.37031 0.0
C668 C 0.13791 0.02226 0.44165 0.0
C669 C 0.09654 0.0272 0.40153 0.0
C670 C 0.0903 0.04381 0.35528 0.0
C671 C 0.06959 0.05635 0.36125 0.0
C672 C 0.0548 0.05172 0.41549 0.0
C673 C 0.06041 0.03435 0.46301 0.0
C674 C 0.08162 0.02187 0.45513 0.0
H675 H 0.51397 0.12544 0.20418 0.0
H676 H 0.45037 0.16 0.26746 0.0
H677 H 0.44614 0.13195 0.35934 0.0
H678 H 0.49318 0.06586 0.24071 0.0
H679 H 0.52126 0.05587 0.26896 0.0
H680 H 0.51938 0.0784 0.20691 0.0
H681 H 0.54471 0.10553 0.28172 0.0
H682 H 0.54662 0.08307 0.34386 0.0
H683 H 0.53577 0.11157 0.36661 0.0
H684 H 0.45122 0.10369 0.45208 0.0
H685 H 0.46141 0.07229 0.53004 0.0
H686 H 0.51974 0.0526 0.4039 0.0
C687 C 0.49908 0.1269 0.23711 0.0
C688 C 0.48242 0.14492 0.22837 0.0
C689 C 0.46318 0.14624 0.27255 0.0
C690 C 0.4607 0.13047 0.32524 0.0
C691 C 0.47744 0.1131 0.33292 0.0
C692 C 0.49601 0.11083 0.28943 0.0
C693 C 0.51115 0.09011 0.30884 0.0
C694 C 0.51124 0.07145 0.25302 0.0
C695 C 0.53603 0.09805 0.32629 0.0
C696 C 0.49841 0.08147 0.37059 0.0
C697 C 0.47923 0.09532 0.38391 0.0
C698 C 0.4658 0.09232 0.44114 0.0
C699 C 0.47175 0.07442 0.48523 0.0
C700 C 0.49098 0.05957 0.47223 0.0
C701 C 0.50444 0.06311 0.41383 0.0
H702 H 0.3827 0.47526 0.32971 0.0
H703 H 0.38374 0.54195 0.22845 0.0
H704 H 0.41691 0.55435 0.29878 0.0
H705 H 0.39448 0.49493 0.48606 0.0
H706 H 0.41525 0.4735 0.51521 0.0
H707 H 0.3935 0.46564 0.45391 0.0
H708 H 0.42176 0.45282 0.36305 0.0
H709 H 0.44398 0.45607 0.42628 0.0
H710 H 0.44723 0.4702 0.34656 0.0
H711 H 0.4517 0.55868 0.37471 0.0
H712 H 0.48443 0.55535 0.45437 0.0
H713 H 0.46002 0.48707 0.51301 0.0
C714 C 0.39004 0.49237 0.32134 0.0
C715 C 0.38025 0.50761 0.27311 0.0
C716 C 0.39041 0.53 0.26544 0.0
C717 C 0.40946 0.53717 0.30496 0.0
C718 C 0.41843 0.5218 0.35217 0.0
C719 C 0.40921 0.49979 0.36013 0.0
C720 C 0.4221 0.48672 0.41478 0.0
C721 C 0.40539 0.4798 0.47102 0.0
C722 C 0.43451 0.46516 0.38574 0.0
C723 C 0.4397 0.50504 0.43765 0.0
C724 C 0.43754 0.52495 0.39952 0.0
C725 C 0.45322 0.5434 0.4058 0.0
C726 C 0.47173 0.54141 0.45139 0.0
C727 C 0.47417 0.52149 0.49206 0.0
C728 C 0.4579 0.50301 0.48502 0.0
H729 H 1.00102 0.3929 0.25536 0.0
H730 H 0.07391 0.37598 0.28522 0.0
H731 H 0.07706 0.40739 0.37017 0.0
H732 H 1.00781 0.45564 0.2721 0.0
H733 H 0.98066 0.45991 0.3157 0.0
H734 H 0.98391 0.43581 0.25787 0.0
H735 H 0.97161 0.40781 0.35097 0.0
H736 H 0.96947 0.43123 0.41167 0.0
H737 H 0.98822 0.40662 0.42731 0.0
H738 H 0.07317 0.44149 0.44847 0.0
H739 H 0.06219 0.47634 0.51547 0.0
H740 H 0.99179 0.47173 0.43841 0.0
C741 C 0.01762 0.39581 0.27988 0.0
C742 C 0.03733 0.38205 0.26271 0.0
C743 C 0.0587 0.38651 0.29623 0.0
C744 C 0.06064 0.40423 0.34497 0.0
C745 C 0.04108 0.41761 0.36012 0.0
C746 C 0.01995 0.41374 0.32857 0.0
C747 C 1.00181 0.43112 0.35376 0.0
C748 C 0.99303 0.44653 0.29644 0.0
C749 C 0.98156 0.41845 0.38799 0.0
C750 C 0.01607 0.44526 0.40415 0.0
C751 C 0.03868 0.43711 0.4069 0.0
C752 C 0.05545 0.44787 0.4473 0.0
C753 C 0.04903 0.46756 0.48556 0.0
C754 C 0.02594 0.47613 0.4844 0.0
C755 C 0.00934 0.46494 0.44239 0.0
H756 H 0.86447 0.01539 0.94191 0.0
H757 H 0.89644 0.9667 0.07996 0.0
H758 H 0.93141 0.96532 1.00954 0.0
H759 H 0.88748 0.99179 0.79097 0.0
H760 H 0.89312 0.0195 0.75246 0.0
H761 H 0.87014 0.01693 0.81318 0.0
H762 H 0.88856 0.05014 0.88456 0.0
H763 H 0.91141 0.05299 0.82351 0.0
H764 H 0.91862 0.04791 0.90998 0.0
H765 H 0.96221 0.96705 0.92041 0.0
H766 H 0.9881 0.97468 0.82504 0.0
H767 H 0.93909 0.02624 0.75186 0.0
C768 C 0.87891 1.00475 0.95837 0.0
C769 C 0.87711 0.99077 0.01658 0.0
C770 C 0.89669 0.97703 0.03496 0.0
C771 C 0.91687 0.97625 0.99539 0.0
C772 C 0.91774 0.9897 0.93783 0.0
C773 C 0.89951 1.00409 0.91998 0.0
C774 C 0.90529 0.01716 0.85613 0.0
C775 C 0.88797 0.01097 0.79988 0.0
C776 C 0.90602 0.04362 0.86935 0.0
C777 C 0.92943 1.0076 0.84061 0.0
C778 C 0.93612 0.9916 0.88808 0.0
C779 C 0.95721 0.97967 0.8832 0.0
C780 C 0.97187 0.98421 0.82864 0.0
C781 C 0.96579 1.00097 0.77977 0.0
C782 C 0.94424 0.01291 0.78673 0.0
H783 H 0.5115 0.89843 0.0327 0.0
H784 H 0.5758 0.86524 0.96937 0.0
H785 H 0.57968 0.89367 0.87832 0.0
H786 H 0.48988 0.91277 0.86924 0.0
H787 H 0.47848 0.94094 0.89319 0.0
H788 H 0.4805 0.91808 0.95411 0.0
H789 H 0.50504 0.94515 0.03123 0.0
H790 H 0.50309 0.96806 0.97033 0.0
H791 H 0.53119 0.95831 0.99913 0.0
H792 H 0.57473 0.92259 0.78761 0.0
H793 H 0.56442 0.95434 0.71096 0.0
H794 H 0.50515 0.97225 0.83558 0.0
C795 C 0.52641 0.8973 0.99974 0.0
C796 C 0.54341 0.87959 1.00828 0.0
C797 C 0.56271 0.87872 0.96424 0.0
C798 C 0.565 0.89474 0.91212 0.0
C799 C 0.54802 0.91188 0.90482 0.0
C800 C 0.52928 0.91361 0.9479 0.0
C801 C 0.5139 0.93423 0.92905 0.0
C802 C 0.48923 0.92601 0.91028 0.0
C803 C 0.51327 0.95252 0.98583 0.0
C804 C 0.52676 0.94348 0.86822 0.0
C805 C 0.54621 0.93 0.85486 0.0
C806 C 0.55991 0.93365 0.79854 0.0
C807 C 0.5539 0.95175 0.75522 0.0
C808 C 0.53437 0.9662 0.76815 0.0
C809 C 0.52068 0.96206 0.82576 0.0
H810 H 0.62124 0.50708 0.04386 0.0
H811 H 0.65148 0.56981 0.96107 0.0
H812 H 0.62019 0.57119 0.87658 0.0
H813 H 0.60436 0.4815 0.89228 0.0
H814 H 0.57627 0.4702 0.91619 0.0
H815 H 0.59906 0.4736 0.97765 0.0
H816 H 0.5747 0.50008 0.05332 0.0
H817 H 0.55037 0.49581 0.99734 0.0
H818 H 0.55989 0.52493 0.01863 0.0
H819 H 0.5855 0.56696 0.80301 0.0
H820 H 0.55132 0.55489 0.73699 0.0
H821 H 0.54245 0.49452 0.86327 0.0
C822 C 0.62112 0.52118 1.00822 0.0
C823 C 0.63874 0.53854 1.0098 0.0
C824 C 0.63803 0.55657 0.9618 0.0
C825 C 0.62031 0.55751 0.9135 0.0
C826 C 0.60301 0.54054 0.91408 0.0
C827 C 0.60316 0.52267 0.96 0.0
C828 C 0.58259 0.50637 0.9478 0.0
C829 C 0.59104 0.48144 0.93248 0.0
C830 C 0.5659 0.50683 1.00786 0.0
C831 C 0.57135 0.51755 0.88684 0.0
C832 C 0.58328 0.53749 0.86927 0.0
C833 C 0.5762 0.55121 0.8158 0.0
C834 C 0.55678 0.5441 0.77813 0.0
C835 C 0.54466 0.52331 0.79319 0.0
C836 C 0.55169 0.51023 0.84965 0.0
H837 H 0.96063 0.6579 0.91843 0.0
H838 H 0.02716 0.65091 0.01999 0.0
H839 H 0.03723 0.61798 0.94497 0.0
H840 H 0.95094 0.59548 0.89205 0.0
H841 H 0.93776 0.59896 0.81078 0.0
H842 H 0.9352 0.6218 0.87297 0.0
H843 H 0.95218 0.65081 0.79029 0.0
H844 H 0.95656 0.62865 0.7269 0.0
H845 H 0.98073 0.64615 0.75595 0.0
H846 H 0.03983 0.58502 0.86147 0.0
H847 H 0.03586 0.55576 0.77105 0.0
H848 H 0.96822 0.58397 0.7193 0.0
C849 C 0.97722 0.6493 0.92558 0.0
C850 C 0.9931 0.65723 0.97566 0.0
C851 C 0.01477 0.64556 0.98192 0.0
C852 C 0.0206 0.62666 0.93969 0.0
C853 C 1.00464 0.61945 0.89095 0.0
C854 C 0.98338 0.63037 0.88359 0.0
C855 C 0.9696 0.61931 0.82619 0.0
C856 C 0.94703 0.60823 0.85205 0.0
C857 C 0.96447 0.63728 0.77153 0.0
C858 C 0.98659 0.60069 0.80184 0.0
C859 C 1.00655 0.60095 0.8407 0.0
C860 C 0.02443 0.58491 0.83018 0.0
C861 C 0.02208 0.56842 0.7782 0.0
C862 C 1.00218 0.56812 0.73613 0.0
C863 C 0.98397 0.58424 0.7492 0.0
H864 H 0.09153 0.2081 0.4168 0.0
H865 H 0.09994 0.17151 0.22706 0.0
H866 H 0.08173 0.13699 0.27419 0.0
H867 H 0.08766 0.15281 0.53178 0.0
H868 H 0.06564 0.168 0.57916 0.0
H869 H 0.08923 0.18403 0.54267 0.0
H870 H 0.05811 0.21028 0.4855 0.0
H871 H 0.03484 0.19304 0.51806 0.0
H872 H 0.03733 0.19703 0.42894 0.0
H873 H 0.05176 0.1123 0.32394 0.0
H874 H 0.01526 0.09876 0.37494 0.0
H875 H 0.02017 0.15399 0.52396 0.0
C876 C 0.0903 0.19255 0.38584 0.0
C877 C 0.09675 0.19297 0.31765 0.0
C878 C 0.09541 0.17196 0.27958 0.0
C879 C 0.08482 0.15209 0.30596 0.0
C880 C 0.07563 0.15343 0.37033 0.0
C881 C 0.07861 0.17305 0.41038 0.0
C882 C 0.06274 0.17247 0.47082 0.0
C883 C 0.07716 0.16909 0.53488 0.0
C884 C 0.04735 0.19449 0.47598 0.0
C885 C 0.04851 0.15094 0.45425 0.0
C886 C 0.05706 0.1395 0.3982 0.0
C887 C 0.04541 0.12059 0.36926 0.0
C888 C 0.02455 0.11315 0.39828 0.0
C889 C 0.01514 0.12502 0.45459 0.0
C890 C 0.02735 0.14413 0.48254 0.0
H891 H 0.3272 0.10215 0.42676 0.0
H892 H 0.36422 0.11597 0.24247 0.0
H893 H 0.40059 0.1044 0.29495 0.0
H894 H 0.38335 0.10839 0.54801 0.0
H895 H 0.37243 0.0843 0.59584 0.0
H896 H 0.35247 0.10534 0.56141 0.0
H897 H 0.32989 0.07184 0.50302 0.0
H898 H 0.34974 0.05086 0.53587 0.0
H899 H 0.34515 0.05236 0.44668 0.0
H900 H 0.42638 0.07572 0.33953 0.0
H901 H 0.44093 0.03834 0.38071 0.0
H902 H 0.38921 0.03962 0.53834 0.0
C903 C 0.3432 0.10372 0.39867 0.0
C904 C 0.34257 0.10933 0.32993 0.0
C905 C 0.36389 0.11179 0.29514 0.0
C906 C 0.38488 0.10509 0.32475 0.0
C907 C 0.38437 0.09608 0.38921 0.0
C908 C 0.36418 0.09617 0.42712 0.0
C909 C 0.3668 0.08071 0.48795 0.0
C910 C 0.36889 0.09558 0.55209 0.0
C911 C 0.34673 0.06289 0.49351 0.0
C912 C 0.38977 0.06898 0.47185 0.0
C913 C 0.40018 0.07898 0.41669 0.0
C914 C 0.41902 0.06843 0.38453 0.0
C915 C 0.42715 0.04706 0.4082 0.0
C916 C 0.41624 0.03617 0.46304 0.0
C917 C 0.39796 0.04777 0.49674 0.0
H918 H 0.42454 0.3469 0.33254 0.0
H919 H 0.46661 0.2982 0.44267 0.0
H920 H 0.47723 0.32917 0.52313 0.0
H921 H 0.45943 0.38419 0.31273 0.0
H922 H 0.44353 0.41108 0.32487 0.0
H923 H 0.42815 0.38512 0.30327 0.0
H924 H 0.40235 0.38972 0.40817 0.0
H925 H 0.4177 0.41612 0.43069 0.0
H926 H 0.41553 0.39273 0.48975 0.0
H927 H 0.49654 0.36519 0.55638 0.0
H928 H 0.52056 0.40029 0.53894 0.0
H929 H 0.46934 0.42664 0.40073 0.0
C930 C 0.43451 0.34268 0.37683 0.0
C931 C 0.44475 0.32049 0.38207 0.0
C932 C 0.45832 0.31511 0.43875 0.0
C933 C 0.46447 0.33273 0.48462 0.0
C934 C 0.45676 0.35548 0.47308 0.0
C935 C 0.44127 0.36038 0.42152 0.0
C936 C 0.44031 0.38632 0.40796 0.0
C937 C 0.4431 0.39194 0.33286 0.0
C938 C 0.41764 0.39684 0.43581 0.0
C939 C 0.46091 0.3944 0.44928 0.0
C940 C 0.46892 0.37692 0.49083 0.0
C941 C 0.48996 0.37919 0.5257 0.0
C942 C 0.50362 0.39909 0.51519 0.0
C943 C 0.49649 0.41602 0.46859 0.0
C944 C 0.47455 0.41411 0.43788 0.0
H945 H 0.17134 0.41696 0.222 0.0
H946 H 0.20255 0.41574 0.41958 0.0
H947 H 0.16557 0.42933 0.46816 0.0
H948 H 0.14774 0.46552 0.22886 0.0
H949 H 0.12048 0.45994 0.18664 0.0
H950 H 0.14492 0.44149 0.17031 0.0
H951 H 0.1209 0.40581 0.20181 0.0
H952 H 0.09576 0.42335 0.22252 0.0
H953 H 0.10801 0.40377 0.28339 0.0
H954 H 0.1338 0.4571 0.48661 0.0
H955 H 0.10842 0.49112 0.47542 0.0
H956 H 0.09343 0.47101 0.26983 0.0
C957 C 0.17003 0.41794 0.27592 0.0
C958 C 0.19005 0.4157 0.3167 0.0
C959 C 0.1876 0.41777 0.38703 0.0
C960 C 0.16654 0.42533 0.41518 0.0
C961 C 0.14784 0.42996 0.37261 0.0
C962 C 0.14908 0.42541 0.30454 0.0
C963 C 0.12832 0.43556 0.26798 0.0
C964 C 0.13585 0.45158 0.21021 0.0
C965 C 0.11226 0.41598 0.24241 0.0
C966 C 0.11701 0.44922 0.32446 0.0
C967 C 0.12808 0.44521 0.38488 0.0
C968 C 0.12423 0.45959 0.44053 0.0
C969 C 0.10968 0.47905 0.43356 0.0
C970 C 0.09889 0.48398 0.37138 0.0
C971 C 0.10154 0.46791 0.31782 0.0
H972 H 0.9273 0.83445 0.82436 0.0
H973 H 0.92097 0.86994 0.01657 0.0
H974 H 0.94211 0.90326 0.97264 0.0
H975 H 0.98244 0.84147 0.81469 0.0
H976 H 0.98559 0.84601 0.72598 0.0
H977 H 0.96098 0.83025 0.75669 0.0
H978 H 0.93221 0.85914 0.70026 0.0
H979 H 0.95703 0.87388 0.66587 0.0
H980 H 0.93585 0.89008 0.71377 0.0
H981 H 0.97424 0.9258 0.92587 0.0
H982 H 0.0114 0.93764 0.87494 0.0
H983 H 1.00283 0.88431 0.72182 0.0
C984 C 0.92965 0.84955 0.85659 0.0
C985 C 0.92288 0.84903 0.92457 0.0
C986 C 0.9257 0.86955 0.9642 0.0
C987 C 0.93798 0.88873 0.93969 0.0
C988 C 0.94737 0.88719 0.8756 0.0
C989 C 0.94298 0.86826 0.83391 0.0
C990 C 0.95908 0.86817 0.77387 0.0
C991 C 0.97283 0.84513 0.76758 0.0
C992 C 0.94523 0.87314 0.70966 0.0
C993 C 0.9748 0.88844 0.79226 0.0
C994 C 0.96704 0.89989 0.84922 0.0
C995 C 0.97998 0.91763 0.87972 0.0
C996 C 1.0012 0.92404 0.85086 0.0
C997 C 0.0097 0.91222 0.79331 0.0
C998 C 0.99632 0.89415 0.76417 0.0
H999 H 0.70202 0.92847 0.81074 0.0
H1000 H 0.66451 0.91268 0.99284 0.0
H1001 H 0.62798 0.92258 0.93844 0.0
H1002 H 0.68191 0.97744 0.79034 0.0
H1003 H 0.67786 0.9788 0.7009 0.0
H1004 H 0.69844 0.95874 0.7348 0.0
H1005 H 0.67783 0.92429 0.67488 0.0
H1006 H 0.65715 0.94442 0.63948 0.0
H1007 H 0.64704 0.91978 0.68646 0.0
H1008 H 0.6011 0.94993 0.8925 0.0
H1009 H 0.58542 0.98691 0.85216 0.0
H1010 H 0.63807 0.98842 0.69719 0.0
C1011 C 0.68594 0.92613 0.83795 0.0
C1012 C 0.68638 0.92042 0.90662 0.0
C1013 C 0.66498 0.91694 0.94024 0.0
C1014 C 0.64389 0.92267 0.90951 0.0
C1015 C 0.64439 0.93177 0.84513 0.0
C1016 C 0.66482 0.93272 0.80843 0.0
C1017 C 0.66188 0.94815 0.74765 0.0
C1018 C 0.68113 0.96688 0.74337 0.0
C1019 C 0.66091 0.93326 0.68331 0.0
C1020 C 0.63827 0.95875 0.76257 0.0
C1021 C 0.62795 0.94811 0.81687 0.0
C1022 C 0.60843 0.95769 0.84814 0.0
C1023 C 0.59964 0.97886 0.82492 0.0
C1024 C 0.6105 0.99049 0.77124 0.0
C1025 C 0.62937 0.97973 0.73796 0.0
H1026 H 0.60023 0.66749 0.0309 0.0
H1027 H 0.59825 0.70366 0.84178 0.0
H1028 H 0.58718 0.66706 0.7847 0.0
H1029 H 0.61633 0.60604 0.95434 0.0
H1030 H 0.59764 0.59182 0.01396 0.0
H1031 H 0.61414 0.61731 0.0384 0.0
H1032 H 0.57727 0.63867 0.07693 0.0
H1033 H 0.56014 0.61369 0.0558 0.0
H1034 H 0.55303 0.64156 0.01998 0.0
H1035 H 0.56207 0.63402 0.75901 0.0
H1036 H 0.52886 0.60729 0.76612 0.0
H1037 H 0.54942 0.58875 0.96718 0.0
C1038 C 0.59906 0.66739 0.97686 0.0
C1039 C 0.59989 0.68847 0.94096 0.0
C1040 C 0.59748 0.68775 0.87048 0.0
C1041 C 0.59135 0.66693 0.83754 0.0
C1042 C 0.58825 0.64687 0.87552 0.0
C1043 C 0.5928 0.64675 0.94361 0.0
C1044 C 0.58382 0.62465 0.97557 0.0
C1045 C 0.60418 0.609 0.9968 0.0
C1046 C 0.5676 0.63001 0.03543 0.0
C1047 C 0.57067 0.614 0.91704 0.0
C1048 C 0.57418 0.62657 0.85905 0.0
C1049 C 0.56002 0.62332 0.8029 0.0
C1050 C 0.54112 0.60798 0.80726 0.0
C1051 C 0.5366 0.59588 0.86716 0.0
C1052 C 0.5525 0.59784 0.92083 0.0
H1053 H 0.85565 0.592 0.04652 0.0
H1054 H 0.82445 0.58598 0.84914 0.0
H1055 H 0.86252 0.57417 0.80288 0.0
H1056 H 0.9166 0.6109 0.98543 0.0
H1057 H 0.9301 0.59427 0.05098 0.0
H1058 H 0.90245 0.60839 0.0654 0.0
H1059 H 0.88465 0.56899 0.10041 0.0
H1060 H 0.91182 0.55445 0.08546 0.0
H1061 H 0.88585 0.54445 0.04323 0.0
H1062 H 0.9002 0.55369 0.78482 0.0
H1063 H 0.93512 0.52927 0.79415 0.0
H1064 H 0.94295 0.55062 1.00217 0.0
C1065 C 0.85699 0.5896 0.99288 0.0
C1066 C 0.83697 0.58993 0.95157 0.0
C1067 C 0.83948 0.58569 0.88196 0.0
C1068 C 0.86109 0.57912 0.85513 0.0
C1069 C 0.88013 0.5774 0.89828 0.0
C1070 C 0.87843 0.58315 0.96546 0.0
C1071 C 0.90044 0.57683 1.00305 0.0
C1072 C 0.91316 0.59891 0.02765 0.0
C1073 C 0.89536 0.56019 0.06139 0.0
C1074 C 0.91393 0.56473 0.94788 0.0
C1075 C 0.90222 0.56576 0.88746 0.0
C1076 C 0.90993 0.55347 0.83126 0.0
C1077 C 0.92991 0.53961 0.83715 0.0
C1078 C 0.94203 0.538 0.89895 0.0
C1079 C 0.93412 0.5513 0.95432 0.0
H1080 H 0.04205 0.1862 0.79217 0.0
H1081 H 0.99737 0.17011 0.96063 0.0
H1082 H 0.99058 0.13081 0.91332 0.0
H1083 H 0.00924 0.1532 0.66597 0.0
H1084 H 0.03536 0.14367 0.62397 0.0
H1085 H 0.03496 0.17127 0.66824 0.0
H1086 H 0.07107 0.15751 0.73228 0.0
H1087 H 0.07082 0.12913 0.69262 0.0
H1088 H 0.0696 0.13175 0.78268 0.0
H1089 H 0.98831 0.09263 0.84593 0.0
H1090 H 0.99143 0.05947 0.76599 0.0
H1091 H 0.03932 0.09933 0.64517 0.0
C1092 C 0.03085 0.17451 0.81953 0.0
C1093 C 0.02017 0.18173 0.88044 0.0
C1094 C 1.00544 0.16557 0.91337 0.0
C1095 C 1.00163 0.14297 0.88713 0.0
C1096 C 0.01268 0.13643 0.82769 0.0
C1097 C 0.02693 0.1518 0.79425 0.0
C1098 C 0.03696 0.1404 0.7317 0.0
C1099 C 0.02858 0.15297 0.66875 0.0
C1100 C 0.0637 0.13962 0.73499 0.0
C1101 C 0.02641 0.11614 0.73531 0.0
C1102 C 0.01223 0.11426 0.7908 0.0
C1103 C 0.99963 0.09389 0.80289 0.0
C1104 C 1.00161 0.07504 0.75738 0.0
C1105 C 0.01626 0.07646 0.70057 0.0
C1106 C 0.02854 0.09747 0.68921 0.0
H1107 H 0.36042 1.00427 0.88655 0.0
H1108 H 0.33795 0.06353 0.76874 0.0
H1109 H 0.37367 0.06059 0.70185 0.0
H1110 H 0.4186 0.01639 0.89334 0.0
H1111 H 0.43038 0.98755 0.87913 0.0
H1112 H 0.40215 0.99114 0.91699 0.0
H1113 H 0.38149 0.9665 0.82785 0.0
H1114 H 0.40945 0.9603 0.79086 0.0
H1115 H 0.38635 0.97224 0.74046 0.0
H1116 H 0.41312 0.05308 0.65111 0.0
H1117 H 0.45179 0.03917 0.6147 0.0
H1118 H 0.44846 0.98324 0.75864 0.0
C1119 C 0.36264 0.01636 0.84585 0.0
C1120 C 0.34621 0.03451 0.83468 0.0
C1121 C 0.35032 0.04993 0.78065 0.0
C1122 C 0.37058 0.0483 0.74156 0.0
C1123 C 0.38663 0.03077 0.75539 0.0
C1124 C 0.38267 0.0147 0.80513 0.0
C1125 C 0.40279 0.99744 0.80904 0.0
C1126 C 0.41419 0.99818 0.87871 0.0
C1127 C 0.39452 0.97265 0.79097 0.0
C1128 C 0.41899 1.00685 0.75541 0.0
C1129 C 0.40922 0.02606 0.72492 0.0
C1130 C 0.42087 0.038 0.67452 0.0
C1131 C 0.443 0.03011 0.65455 0.0
C1132 C 0.45347 0.01048 0.68487 0.0
C1133 C 0.44103 0.99849 0.73519 0.0
H1134 H 0.51644 0.35284 0.86689 0.0
H1135 H 0.45624 0.32634 0.75839 0.0
H1136 H 0.45553 0.36199 0.69068 0.0
H1137 H 0.49951 0.41182 0.87415 0.0
H1138 H 0.52817 0.42367 0.8607 0.0
H1139 H 0.52494 0.3955 0.89861 0.0
H1140 H 0.55123 0.37704 0.80701 0.0
H1141 H 0.55458 0.40524 0.76906 0.0
H1142 H 0.54388 0.38092 0.72005 0.0
H1143 H 0.45843 0.40251 0.64314 0.0
H1144 H 0.46734 0.44315 0.61184 0.0
H1145 H 0.52747 0.44274 0.74332 0.0
C1146 C 0.5034 0.35422 0.82796 0.0
C1147 C 0.48621 0.3366 0.81905 0.0
C1148 C 0.46932 0.33958 0.76778 0.0
C1149 C 0.46884 0.35979 0.72852 0.0
C1150 C 0.48557 0.37699 0.73996 0.0
C1151 C 0.5028 0.37428 0.78763 0.0
C1152 C 0.51847 0.3957 0.79043 0.0
C1153 C 0.51772 0.40735 0.86011 0.0
C1154 C 0.54353 0.38934 0.77044 0.0
C1155 C 0.50706 0.41102 0.73801 0.0
C1156 C 0.48801 0.39991 0.70978 0.0
C1157 C 0.47358 0.41117 0.66402 0.0
C1158 C 0.47875 0.43429 0.64656 0.0
C1159 C 0.49833 0.44598 0.67412 0.0
C1160 C 0.51278 0.43403 0.71997 0.0
H1161 H 0.16314 0.49117 0.92977 0.0
H1162 H 0.21427 0.51387 0.78452 0.0
H1163 H 0.18299 0.5183 0.70052 0.0
H1164 H 0.12664 0.45874 0.81513 0.0
H1165 H 0.09982 0.46746 0.85492 0.0
H1166 H 0.12624 0.46561 0.90339 0.0
H1167 H 0.12114 0.50856 0.94223 0.0
H1168 H 0.09464 0.51048 0.89425 0.0
H1169 H 0.11783 0.53105 0.8805 0.0
H1170 H 0.14556 0.52133 0.63236 0.0
H1171 H 0.10553 0.52309 0.58709 0.0
H1172 H 0.07867 0.49852 0.77661 0.0
C1173 C 0.16785 0.49728 0.88054 0.0
C1174 C 0.19143 0.50215 0.86428 0.0
C1175 C 0.19656 0.5097 0.7985 0.0
C1176 C 0.17883 0.51239 0.75035 0.0
C1177 C 0.15588 0.50743 0.76818 0.0
C1178 C 0.15036 0.50005 0.8318 0.0
C1179 C 0.12428 0.49613 0.83851 0.0
C1180 C 0.11894 0.47045 0.85389 0.0
C1181 C 0.11386 0.51253 0.89204 0.0
C1182 C 0.11594 0.50254 0.76886 0.0
C1183 C 0.13445 0.509 0.729 0.0
C1184 C 0.131 0.51622 0.6632 0.0
C1185 C 0.10812 0.51715 0.63785 0.0
C1186 C 0.0888 0.51082 0.67789 0.0
C1187 C 0.09297 0.50318 0.74415 0.0
H1188 H 0.98025 0.85018 0.44726 0.0
H1189 H 0.02327 0.86657 0.27552 0.0
H1190 H 0.03171 0.90524 0.32489 0.0
H1191 H 0.9542 0.90455 0.46299 0.0
H1192 H 0.95414 0.90708 0.55317 0.0
H1193 H 0.95292 0.87878 0.51326 0.0
H1194 H 0.98918 0.86414 0.57276 0.0
H1195 H 0.99068 0.89155 0.61765 0.0
H1196 H 0.01561 0.88119 0.57166 0.0
H1197 H 0.03567 0.94282 0.39426 0.0
H1198 H 0.03373 0.97571 0.47539 0.0
H1199 H 0.98624 0.93614 0.59828 0.0
C1200 C 0.99146 0.86179 0.41969 0.0
C1201 C 1.00115 0.85486 0.35715 0.0
C1202 C 0.01594 0.87089 0.32393 0.0
C1203 C 0.0207 0.89314 0.3514 0.0
C1204 C 0.01059 0.89942 0.4124 0.0
C1205 C 0.99634 0.88415 0.44622 0.0
C1206 C 0.98729 0.89531 0.51038 0.0
C1207 C 0.96055 0.89655 0.50997 0.0
C1208 C 0.99627 0.88217 0.57171 0.0
C1209 C 0.99822 0.91943 0.50691 0.0
C1210 C 0.01191 0.92133 0.45041 0.0
C1211 C 0.02473 0.94154 0.43811 0.0
C1212 C 0.02341 0.96025 0.48428 0.0
C1213 C 0.00914 0.95889 0.5419 0.0
C1214 C 0.99672 0.93798 0.55363 0.0
H1215 H 0.66454 0.02432 0.35398 0.0
H1216 H 0.68798 0.96505 0.47016 0.0
H1217 H 0.6521 0.96703 0.53664 0.0
H1218 H 0.6379 0.05542 0.49996 0.0
H1219 H 0.61456 0.06699 0.44975 0.0
H1220 H 0.64263 0.06139 0.41264 0.0
H1221 H 0.62244 0.03639 0.32317 0.0
H1222 H 0.59416 0.03951 0.36112 0.0
H1223 H 0.60638 0.01086 0.34675 0.0
H1224 H 0.61249 0.97369 0.58752 0.0
H1225 H 0.57364 0.98694 0.62445 0.0
H1226 H 0.57616 0.0434 0.4821 0.0
C1227 C 0.6625 0.01203 0.39427 0.0
C1228 C 0.67927 0.99417 0.40511 0.0
C1229 C 0.67537 0.97845 0.45855 0.0
C1230 C 0.65502 0.97954 0.4974 0.0
C1231 C 0.63866 0.9968 0.48396 0.0
C1232 C 0.64238 0.01313 0.43474 0.0
C1233 C 0.62194 0.03001 0.43109 0.0
C1234 C 0.62973 0.05493 0.44946 0.0
C1235 C 0.61052 0.02914 0.36145 0.0
C1236 C 0.60592 0.02018 0.48454 0.0
C1237 C 0.61599 1.00103 0.51447 0.0
C1238 C 0.60452 0.98874 0.56455 0.0
C1239 C 0.58229 0.99625 0.58482 0.0
C1240 C 0.57156 0.01585 0.55514 0.0
C1241 C 0.5838 0.02817 0.50506 0.0
H1242 H 0.50358 0.67704 0.38914 0.0
H1243 H 0.56056 0.70635 0.50633 0.0
H1244 H 0.56011 0.67197 0.57841 0.0
H1245 H 0.47294 0.65192 0.53635 0.0
H1246 H 0.46327 0.62655 0.49003 0.0
H1247 H 0.46733 0.65389 0.44778 0.0
H1248 H 0.49538 0.63368 0.36404 0.0
H1249 H 0.49149 0.60636 0.40629 0.0
H1250 H 0.52033 0.61808 0.39538 0.0
H1251 H 0.55765 0.63216 0.62764 0.0
H1252 H 0.54907 0.59191 0.66245 0.0
H1253 H 0.48988 0.58977 0.52763 0.0
C1254 C 0.51563 0.67658 0.43081 0.0
C1255 C 0.53252 0.6945 0.44032 0.0
C1256 C 0.54796 0.69276 0.49573 0.0
C1257 C 0.54773 0.67329 0.53769 0.0
C1258 C 0.53151 0.65572 0.52547 0.0
C1259 C 0.51531 0.65737 0.47453 0.0
C1260 C 0.49973 0.63582 0.47296 0.0
C1261 C 0.4743 0.64245 0.48766 0.0
C1262 C 0.50187 0.62272 0.40566 0.0
C1263 C 0.51012 0.62167 0.52982 0.0
C1264 C 0.52864 0.63345 0.55872 0.0
C1265 C 0.54268 0.62311 0.60708 0.0
C1266 C 0.53765 0.60023 0.62669 0.0
C1267 C 0.51831 0.58801 0.59977 0.0
C1268 C 0.50425 0.599 0.55094 0.0
H1269 H 0.83625 0.52443 0.47255 0.0
H1270 H 0.85516 0.51771 0.2631 0.0
H1271 H 0.89668 0.51717 0.2942 0.0
H1272 H 0.88369 0.56128 0.52391 0.0
H1273 H 0.88848 0.54738 0.60328 0.0
H1274 H 0.85992 0.54702 0.56577 0.0
H1275 H 0.8592 0.50188 0.57149 0.0
H1276 H 0.8877 0.50225 0.60948 0.0
H1277 H 0.88265 0.48533 0.53431 0.0
H1278 H 0.93604 0.5203 0.34553 0.0
H1279 H 0.97136 0.52275 0.41559 0.0
H1280 H 0.92867 0.52406 0.59444 0.0
C1281 C 0.84918 0.52263 0.43348 0.0
C1282 C 0.84235 0.52094 0.36518 0.0
C1283 C 0.85984 0.51868 0.3156 0.0
C1284 C 0.88353 0.5185 0.33278 0.0
C1285 C 0.88971 0.52025 0.40011 0.0
C1286 C 0.87313 0.52188 0.44999 0.0
C1287 C 0.88486 0.52307 0.5186 0.0
C1288 C 0.87887 0.54606 0.55503 0.0
C1289 C 0.8782 0.50187 0.56096 0.0
C1290 C 0.9105 0.52225 0.49913 0.0
C1291 C 0.91276 0.52088 0.43033 0.0
C1292 C 0.9345 0.52109 0.39948 0.0
C1293 C 0.95448 0.52261 0.43973 0.0
C1294 C 0.95283 0.52351 0.5104 0.0
C1295 C 0.93047 0.52314 0.54054 0.0
loop_
_geom_bond_atom_site_label_1
_geom_bond_atom_site_label_2
_geom_bond_distance
_geom_bond_site_symmetry_2
_ccdc_geom_bond_type
C0 C1 1.387 . S
C0 C2 1.408 . S
C0 H24 0.918 1_554 S
C1 C0 1.387 . S
C1 C5 1.397 . S
C2 C0 1.408 . S
C2 C3 1.384 . S
C2 H25 0.930 . S
C3 C2 1.384 . S
C3 C4 1.377 . S
C3 C6 1.481 . S
C4 C3 1.377 . S
C4 C5 1.389 . S
C4 H26 0.929 . S
C5 C1 1.397 . S
C5 C4 1.389 . S
C5 H27 0.931 . S
C6 C3 1.481 . S
C6 C7 1.387 . S
C6 C11 1.390 . S
C7 C6 1.387 . S
C7 C8 1.401 . S
C7 H28 0.930 . S
C8 C7 1.401 . S
C8 C9 1.376 . S
C8 C17 1.511 . S
C9 C8 1.376 . S
C9 C10 1.392 . S
C9 H30 0.931 . S
C10 C9 1.392 . S
C10 C11 1.361 . S
C10 C12 1.500 . S
C11 C6 1.390 . S
C11 C10 1.361 . S
C11 H29 0.931 . S
C12 C10 1.500 . S
C12 C13 1.371 . S
C12 C14 1.365 . S
C13 C12 1.371 . S
C13 C23 1.386 . S
C13 H31 0.931 . S
C14 C12 1.365 . S
C14 C15 1.409 . S
C14 H32 0.929 . S
C15 C14 1.409 . S
C15 C16 1.380 . S
C15 H33 0.930 . S
C16 C15 1.380 . S
C16 C23 1.357 . S
C17 C8 1.511 . S
C17 C18 1.341 . S
C17 C19 1.371 . S
C18 C17 1.341 . S
C18 C22 1.394 . S
C18 H34 0.930 . S
C19 C17 1.371 . S
C19 C20 1.392 . S
C19 H35 0.931 . S
C20 C19 1.392 . S
C20 C21 1.331 . S
C20 H38 0.932 . S
C21 C20 1.331 . S
C21 C22 1.336 . S
C22 C18 1.394 . S
C22 C21 1.336 . S
C22 H37 0.929 . S
C23 C13 1.386 . S
C23 C16 1.357 . S
C23 H36 0.928 . S
H24 C0 0.918 1_556 S
H25 C2 0.930 . S
H26 C4 0.929 . S
H27 C5 0.931 . S
H28 C7 0.930 . S
H29 C11 0.931 . S
H30 C9 0.931 . S
H31 C13 0.931 . S
H32 C14 0.929 . S
H33 C15 0.930 . S
H34 C18 0.930 . S
H35 C19 0.931 . S
H36 C23 0.928 . S
H37 C22 0.929 . S
H38 C20 0.932 . S
C39 C40 1.386 . S
C39 C41 1.397 . S
C39 H63 0.931 1_554 S
C40 C39 1.386 . S
C40 C44 1.397 . S
C41 C39 1.397 . S
C41 C42 1.384 . S
C41 H64 0.930 . S
C42 C41 1.384 . S
C42 C43 1.377 . S
C42 C45 1.481 . S
C43 C42 1.377 . S
C43 C44 1.389 . S
C43 H65 0.929 . S
C44 C40 1.397 . S
C44 C43 1.389 . S
C44 H66 0.931 . S
C45 C42 1.481 . S
C45 C46 1.387 . S
C45 C50 1.390 . S
C46 C45 1.387 . S
C46 C47 1.401 . S
C46 H67 0.930 . S
C47 C46 1.401 . S
C47 C48 1.376 . S
C47 C56 1.511 . S
C48 C47 1.376 . S
C48 C49 1.392 . S
C48 H69 0.931 . S
C49 C48 1.392 . S
C49 C50 1.361 . S
C49 C51 1.500 . S
C50 C45 1.390 . S
C50 C49 1.361 . S
C50 H68 0.931 . S
C51 C49 1.500 . S
C51 C52 1.371 . S
C51 C53 1.365 . S
C52 C51 1.371 . S
C52 C62 1.386 . S
C52 H70 0.931 . S
C53 C51 1.365 . S
C53 C54 1.409 . S
C53 H71 0.929 . S
C54 C53 1.409 . S
C54 C55 1.380 . S
C54 H72 0.930 . S
C55 C54 1.380 . S
C55 C62 1.357 . S
C56 C47 1.511 . S
C56 C57 1.341 . S
C56 C58 1.371 . S
C57 C56 1.341 . S
C57 C61 1.394 . S
C57 H73 0.930 . S
C58 C56 1.371 . S
C58 C59 1.392 . S
C58 H74 0.931 . S
C59 C58 1.392 . S
C59 C60 1.331 . S
C59 H77 0.932 . S
C60 C59 1.331 . S
C60 C61 1.336 . S
C61 C57 1.394 . S
C61 C60 1.336 . S
C61 H76 0.929 . S
C62 C52 1.386 . S
C62 C55 1.357 . S
C62 H75 0.928 . S
H63 C39 0.931 1_556 S
H64 C41 0.930 . S
H65 C43 0.929 . S
H66 C44 0.931 . S
H67 C46 0.930 . S
H68 C50 0.931 . S
H69 C48 0.931 . S
H70 C52 0.931 . S
H71 C53 0.929 . S
H72 C54 0.930 . S
H73 C57 0.930 . S
H74 C58 0.931 . S
H75 C62 0.928 . S
H76 C61 0.929 . S
H77 C59 0.932 . S
C78 C79 1.386 . S
C78 C80 1.397 . S
C78 H102 0.931 1_554 S
C79 C78 1.386 . S
C79 C83 1.397 . S
C80 C78 1.397 . S
C80 C81 1.384 . S
C80 H103 0.930 . S
C81 C80 1.384 . S
C81 C82 1.377 . S
C81 C84 1.481 . S
C82 C81 1.377 . S
C82 C83 1.389 . S
C82 H104 0.929 . S
C83 C79 1.397 . S
C83 C82 1.389 . S
C83 H105 0.931 . S
C84 C81 1.481 . S
C84 C85 1.387 . S
C84 C89 1.390 . S
C85 C84 1.387 . S
C85 C86 1.401 . S
C85 H106 0.930 . S
C86 C85 1.401 . S
C86 C87 1.376 . S
C86 C95 1.511 . S
C87 C86 1.376 . S
C87 C88 1.392 . S
C87 H108 0.931 . S
C88 C87 1.392 . S
C88 C89 1.361 . S
C88 C90 1.500 . S
C89 C84 1.390 . S
C89 C88 1.361 . S
C89 H107 0.931 . S
C90 C88 1.500 . S
C90 C91 1.371 . S
C90 C92 1.365 . S
C91 C90 1.371 . S
C91 C101 1.386 . S
C91 H109 0.931 . S
C92 C90 1.365 . S
C92 C93 1.409 . S
C92 H110 0.929 . S
C93 C92 1.409 . S
C93 C94 1.380 . S
C93 H111 0.930 . S
C94 C93 1.380 . S
C94 C101 1.357 . S
C95 C86 1.511 . S
C95 C96 1.341 . S
C95 C97 1.371 . S
C96 C95 1.341 . S
C96 C100 1.394 . S
C96 H112 0.930 . S
C97 C95 1.371 . S
C97 C98 1.392 . S
C97 H113 0.931 . S
C98 C97 1.392 . S
C98 C99 1.331 . S
C98 H116 0.932 . S
C99 C98 1.331 . S
C99 C100 1.336 . S
C100 C96 1.394 . S
C100 C99 1.336 . S
C100 H115 0.929 . S
C101 C91 1.386 . S
C101 C94 1.357 . S
C101 H114 0.928 . S
H102 C78 0.931 1_556 S
H103 C80 0.930 . S
H104 C82 0.929 . S
H105 C83 0.931 . S
H106 C85 0.930 . S
H107 C89 0.931 . S
H108 C87 0.931 . S
H109 C91 0.931 . S
H110 C92 0.929 . S
H111 C93 0.930 . S
H112 C96 0.930 . S
H113 C97 0.931 . S
H114 C101 0.928 . S
H115 C100 0.929 . S
H116 C98 0.932 . S
C117 C118 1.386 . S
C117 C119 1.397 . S
C117 H141 0.931 . S
C118 C117 1.386 . S
C118 C122 1.397 . S
C119 C117 1.397 . S
C119 C120 1.384 . S
C119 H142 0.930 . S
C120 C119 1.384 . S
C120 C121 1.377 . S
C120 C123 1.481 . S
C121 C120 1.377 . S
C121 C122 1.389 . S
C121 H143 0.929 . S
C122 C118 1.397 . S
C122 C121 1.389 . S
C122 H144 0.931 . S
C123 C120 1.481 . S
C123 C124 1.387 . S
C123 C128 1.390 . S
C124 C123 1.387 . S
C124 C125 1.401 . S
C124 H145 0.930 . S
C125 C124 1.401 . S
C125 C126 1.376 . S
C125 C134 1.511 . S
C126 C125 1.376 . S
C126 C127 1.392 . S
C126 H147 0.931 . S
C127 C126 1.392 . S
C127 C128 1.361 . S
C127 C129 1.500 . S
C128 C123 1.390 . S
C128 C127 1.361 . S
C128 H146 0.931 . S
C129 C127 1.500 . S
C129 C130 1.371 . S
C129 C131 1.365 . S
C130 C129 1.371 . S
C130 C140 1.386 1_554 S
C130 H148 0.931 . S
C131 C129 1.365 . S
C131 C132 1.409 . S
C131 H149 0.929 . S
C132 C131 1.409 . S
C132 C133 1.380 . S
C132 H150 0.930 . S
C133 C132 1.380 . S
C133 C140 1.357 1_554 S
C134 C125 1.511 . S
C134 C135 1.341 . S
C134 C136 1.371 . S
C135 C134 1.341 . S
C135 C139 1.394 . S
C135 H151 0.930 . S
C136 C134 1.371 . S
C136 C137 1.392 . S
C136 H152 0.931 . S
C137 C136 1.392 . S
C137 C138 1.331 . S
C137 H155 0.932 . S
C138 C137 1.331 . S
C138 C139 1.336 . S
C139 C135 1.394 . S
C139 C138 1.336 . S
C139 H154 0.929 . S
C140 C130 1.386 1_556 S
C140 C133 1.357 1_556 S
C140 H153 0.928 . S
H141 C117 0.931 . S
H142 C119 0.930 . S
H143 C121 0.929 . S
H144 C122 0.931 . S
H145 C124 0.930 . S
H146 C128 0.931 . S
H147 C126 0.931 . S
H148 C130 0.931 . S
H149 C131 0.929 . S
H150 C132 0.930 . S
H151 C135 0.930 . S
H152 C136 0.931 . S
H153 C140 0.928 . S
H154 C139 0.929 . S
H155 C137 0.932 . S
C156 C157 1.386 . S
C156 C158 1.397 . S
C156 H180 0.931 . S
C157 C156 1.386 . S
C157 C161 1.397 . S
C158 C156 1.397 . S
C158 C159 1.384 . S
C158 H181 0.930 . S
C159 C158 1.384 . S
C159 C160 1.377 . S
C159 C162 1.481 . S
C160 C159 1.377 . S
C160 C161 1.389 . S
C160 H182 0.929 . S
C161 C157 1.397 . S
C161 C160 1.389 . S
C161 H183 0.931 . S
C162 C159 1.481 . S
C162 C163 1.387 . S
C162 C167 1.390 . S
C163 C162 1.387 . S
C163 C164 1.401 . S
C163 H184 0.930 . S
C164 C163 1.401 . S
C164 C165 1.376 1_554 S
C164 C173 1.511 . S
C165 C164 1.376 1_556 S
C165 C166 1.392 . S
C165 H186 0.931 . S
C166 C165 1.392 . S
C166 C167 1.361 1_556 S
C166 C168 1.500 . S
C167 C162 1.390 . S
C167 C166 1.361 1_554 S
C167 H185 0.927 1_554 S
C168 C166 1.500 . S
C168 C169 1.371 . S
C168 C170 1.365 . S
C169 C168 1.371 . S
C169 C179 1.386 . S
C169 H187 0.931 . S
C170 C168 1.365 . S
C170 C171 1.409 . S
C170 H188 0.929 . S
C171 C170 1.409 . S
C171 C172 1.380 . S
C171 H189 0.930 . S
C172 C171 1.380 . S
C172 C179 1.357 . S
C173 C164 1.511 . S
C173 C174 1.341 . S
C173 C175 1.371 . S
C174 C173 1.341 . S
C174 C178 1.394 . S
C174 H190 0.930 . S
C175 C173 1.371 . S
C175 C176 1.392 . S
C175 H191 0.931 1_554 S
C176 C175 1.392 . S
C176 C177 1.331 . S
C176 H194 0.932 1_554 S
C177 C176 1.331 . S
C177 C178 1.336 . S
C178 C174 1.394 . S
C178 C177 1.336 . S
C178 H193 0.929 . S
C179 C169 1.386 . S
C179 C172 1.357 . S
C179 H192 0.928 . S
H180 C156 0.931 . S
H181 C158 0.930 . S
H182 C160 0.929 . S
H183 C161 0.931 . S
H184 C163 0.930 . S
H185 C167 0.927 1_556 S
H186 C165 0.931 . S
H187 C169 0.931 . S
H188 C170 0.929 . S
H189 C171 0.930 . S
H190 C174 0.930 . S
H191 C175 0.931 1_556 S
H192 C179 0.928 . S
H193 C178 0.929 . S
H194 C176 0.932 1_556 S
C195 C196 1.386 . S
C195 C197 1.397 . S
C195 H219 0.931 . S
C196 C195 1.386 . S
C196 C200 1.397 . S
C197 C195 1.397 . S
C197 C198 1.384 . S
C197 H220 0.930 . S
C198 C197 1.384 . S
C198 C199 1.377 . S
C198 C201 1.481 . S
C199 C198 1.377 . S
C199 C200 1.389 . S
C199 H221 0.929 . S
C200 C196 1.397 . S
C200 C199 1.389 . S
C200 H222 0.931 . S
C201 C198 1.481 . S
C201 C202 1.387 . S
C201 C206 1.390 . S
C202 C201 1.387 . S
C202 C203 1.401 . S
C202 H223 0.930 . S
C203 C202 1.401 . S
C203 C204 1.376 1_554 S
C203 C212 1.511 . S
C204 C203 1.376 1_556 S
C204 C205 1.392 . S
C204 H225 0.931 . S
C205 C204 1.392 . S
C205 C206 1.361 1_556 S
C205 C207 1.500 . S
C206 C201 1.390 . S
C206 C205 1.361 1_554 S
C206 H224 0.931 1_554 S
C207 C205 1.500 . S
C207 C208 1.371 . S
C207 C209 1.365 . S
C208 C207 1.371 . S
C208 C218 1.386 . S
C208 H226 0.931 . S
C209 C207 1.365 . S
C209 C210 1.409 . S
C209 H227 0.929 . S
C210 C209 1.409 . S
C210 C211 1.380 . S
C210 H228 0.930 . S
C211 C210 1.380 . S
C211 C218 1.357 . S
C212 C203 1.511 . S
C212 C213 1.341 . S
C212 C214 1.371 . S
C213 C212 1.341 . S
C213 C217 1.394 . S
C213 H229 0.930 . S
C214 C212 1.371 . S
C214 C215 1.392 . S
C214 H230 0.931 1_554 S
C215 C214 1.392 . S
C215 C216 1.331 . S
C215 H233 0.932 1_554 S
C216 C215 1.331 . S
C216 C217 1.336 . S
C217 C213 1.394 . S
C217 C216 1.336 . S
C217 H232 0.929 . S
C218 C208 1.386 . S
C218 C211 1.357 . S
C218 H231 0.928 . S
H219 C195 0.931 . S
H220 C197 0.930 . S
H221 C199 0.929 . S
H222 C200 0.931 . S
H223 C202 0.930 . S
H224 C206 0.931 1_556 S
H225 C204 0.931 . S
H226 C208 0.931 . S
H227 C209 0.929 . S
H228 C210 0.930 . S
H229 C213 0.930 . S
H230 C214 0.931 1_556 S
H231 C218 0.928 . S
H232 C217 0.929 . S
H233 C215 0.932 1_556 S
C234 C235 1.386 . S
C234 C236 1.397 . S
C234 H258 0.931 . S
C235 C234 1.386 . S
C235 C239 1.397 . S
C236 C234 1.397 . S
C236 C237 1.384 . S
C236 H259 0.930 . S
C237 C236 1.384 . S
C237 C238 1.377 . S
C237 C240 1.481 . S
C238 C237 1.377 . S
C238 C239 1.389 . S
C238 H260 0.929 . S
C239 C235 1.397 . S
C239 C238 1.389 . S
C239 H261 0.931 . S
C240 C237 1.481 . S
C240 C241 1.387 . S
C240 C245 1.403 . S
C241 C240 1.387 . S
C241 C242 1.401 . S
C241 H262 0.930 . S
C242 C241 1.401 . S
C242 C243 1.376 1_554 S
C242 C251 1.511 . S
C243 C242 1.376 1_556 S
C243 C244 1.392 . S
C243 H264 0.931 . S
C244 C243 1.392 . S
C244 C245 1.352 1_556 S
C244 C246 1.500 . S
C245 C240 1.403 . S
C245 C244 1.352 1_554 S
C245 H263 0.928 1_554 S
C246 C244 1.500 . S
C246 C247 1.371 . S
C246 C248 1.365 . S
C247 C246 1.371 . S
C247 C257 1.386 . S
C247 H265 0.931 . S
C248 C246 1.365 . S
C248 C249 1.409 . S
C248 H266 0.929 . S
C249 C248 1.409 . S
C249 C250 1.380 . S
C249 H267 0.930 . S
C250 C249 1.380 . S
C250 C257 1.357 . S
C251 C242 1.511 . S
C251 C252 1.341 . S
C251 C253 1.371 . S
C252 C251 1.341 . S
C252 C256 1.394 . S
C252 H268 0.930 . S
C253 C251 1.371 . S
C253 C254 1.392 . S
C253 H269 0.931 1_554 S
C254 C253 1.392 . S
C254 C255 1.331 . S
C254 H272 0.932 1_554 S
C255 C254 1.331 . S
C255 C256 1.336 . S
C256 C252 1.394 . S
C256 C255 1.336 . S
C256 H271 0.929 . S
C257 C247 1.386 . S
C257 C250 1.357 . S
C257 H270 0.928 . S
H258 C234 0.931 . S
H259 C236 0.930 . S
H260 C238 0.929 . S
H261 C239 0.931 . S
H262 C241 0.930 . S
H263 C245 0.928 1_556 S
H264 C243 0.931 . S
H265 C247 0.931 . S
H266 C248 0.929 . S
H267 C249 0.930 . S
H268 C252 0.930 . S
H269 C253 0.931 1_556 S
H270 C257 0.928 . S
H271 C256 0.929 . S
H272 C254 0.932 1_556 S
C273 C274 1.386 . S
C273 C275 1.397 . S
C273 H297 0.931 . S
C274 C273 1.386 . S
C274 C278 1.397 . S
C275 C273 1.397 . S
C275 C276 1.384 . S
C275 H298 0.930 . S
C276 C275 1.384 . S
C276 C277 1.377 . S
C276 C279 1.481 . S
C277 C276 1.377 . S
C277 C278 1.389 . S
C277 H299 0.929 . S
C278 C274 1.397 . S
C278 C277 1.389 . S
C278 H300 0.931 . S
C279 C276 1.481 . S
C279 C280 1.387 . S
C279 C284 1.390 1_556 S
C280 C279 1.387 . S
C280 C281 1.401 1_556 S
C280 H301 0.930 . S
C281 C280 1.401 1_554 S
C281 C282 1.376 . S
C281 C290 1.511 . S
C282 C281 1.376 . S
C282 C283 1.392 . S
C282 H303 0.931 . S
C283 C282 1.392 . S
C283 C284 1.361 . S
C283 C285 1.500 . S
C284 C279 1.390 1_554 S
C284 C283 1.361 . S
C284 H302 0.931 1_554 S
C285 C283 1.500 . S
C285 C286 1.371 . S
C285 C287 1.365 . S
C286 C285 1.371 . S
C286 C296 1.386 . S
C286 H304 0.931 . S
C287 C285 1.365 . S
C287 C288 1.409 . S
C287 H305 0.929 . S
C288 C287 1.409 . S
C288 C289 1.380 . S
C288 H306 0.930 . S
C289 C288 1.380 . S
C289 C296 1.357 . S
C290 C281 1.511 . S
C290 C291 1.341 . S
C290 C292 1.371 . S
C291 C290 1.341 . S
C291 C295 1.394 . S
C291 H307 0.930 1_554 S
C292 C290 1.371 . S
C292 C293 1.392 . S
C292 H308 0.931 . S
C293 C292 1.392 . S
C293 C294 1.331 . S
C293 H311 0.932 . S
C294 C293 1.331 . S
C294 C295 1.336 . S
C295 C291 1.394 . S
C295 C294 1.336 . S
C295 H310 0.929 1_554 S
C296 C286 1.386 . S
C296 C289 1.357 . S
C296 H309 0.928 . S
H297 C273 0.931 . S
H298 C275 0.930 . S
H299 C277 0.929 . S
H300 C278 0.931 . S
H301 C280 0.930 . S
H302 C284 0.931 1_556 S
H303 C282 0.931 . S
H304 C286 0.931 . S
H305 C287 0.929 . S
H306 C288 0.930 . S
H307 C291 0.930 1_556 S
H308 C292 0.931 . S
H309 C296 0.928 . S
H310 C295 0.929 1_556 S
H311 C293 0.932 . S
Gd312 N343 2.659 . S
Gd312 N349 2.601 . S
Gd312 O356 2.545 . S
Gd312 O357 2.606 1_655 S
Gd312 O359 2.429 . S
Gd312 O360 2.545 1_655 S
Gd312 O361 2.412 . S
Gd312 O363 2.362 1_545 S
Gd312 O364 2.324 1_655 S
Gd312 C371 2.828 . S
Gd313 N322 2.661 1_565 S
Gd313 N326 2.601 . S
Gd313 O357 2.362 1_565 S
Gd313 O358 2.324 1_455 S
Gd313 O362 2.545 . S
Gd313 O363 2.606 1_455 S
Gd313 O365 2.429 . S
Gd313 O366 2.545 . S
Gd313 O367 2.412 . S
Gd313 C380 2.828 . S
C314 C317 1.417 . S
C314 C319 1.431 . S
C314 C320 1.412 . S
C315 C318 1.437 . S
C315 C319 1.317 . S
C315 H334 0.929 . S
C316 C317 1.426 . S
C316 C318 1.413 . S
C316 N326 1.359 1_545 S
C317 C314 1.417 . S
C317 C316 1.426 . S
C317 N322 1.350 . S
C318 C315 1.437 . S
C318 C316 1.413 . S
C318 C328 1.383 1_545 S
C319 C314 1.431 . S
C319 C315 1.317 . S
C319 H330 0.930 . S
C320 C314 1.412 . S
C320 C321 1.355 . S
C320 H332 0.930 . S
C321 C320 1.355 . S
C321 C323 1.402 . S
C321 H333 0.930 1_455 S
N322 Gd313 2.661 1_545 S
N322 C317 1.350 . S
N322 C323 1.307 . S
C323 C321 1.402 . S
C323 N322 1.307 . S
C323 H324 0.930 1_455 S
H324 C323 0.930 1_655 S
C325 N326 1.334 . S
C325 C327 1.394 . S
C325 H329 0.930 . S
N326 Gd313 2.601 . S
N326 C316 1.359 1_565 S
N326 C325 1.334 . S
C327 C325 1.394 . S
C327 C328 1.369 . S
C327 H339 0.930 . S
C328 C318 1.383 1_565 S
C328 C327 1.369 . S
C328 H340 0.926 1_565 S
H329 C325 0.930 . S
H330 C319 0.930 . S
H331 C348 0.930 . S
H332 C320 0.930 . S
H333 C321 0.930 1_655 S
H334 C315 0.929 . S
H335 C353 0.930 . S
H336 C344 0.930 . S
H337 C345 0.959 . S
H338 C369 0.929 . S
H339 C327 0.930 . S
H340 C328 0.926 1_545 S
H341 C370 0.930 . S
H342 C351 0.930 . S
N343 Gd312 2.659 . S
N343 C347 1.351 1_545 S
N343 C348 1.309 1_645 S
C344 H336 0.930 . S
C344 C345 1.324 1_655 S
C344 C346 1.412 . S
C345 H337 0.959 . S
C345 C344 1.324 1_455 S
C345 C348 1.404 . S
C346 C344 1.412 . S
C346 C347 1.417 . S
C346 C370 1.431 . S
C347 N343 1.351 1_565 S
C347 C346 1.417 . S
C347 C350 1.426 1_565 S
C348 H331 0.930 . S
C348 N343 1.309 1_465 S
C348 C345 1.404 . S
N349 Gd312 2.601 . S
N349 C350 1.359 . S
N349 C353 1.334 . S
C350 C347 1.426 1_545 S
C350 N349 1.359 . S
C350 C354 1.413 . S
C351 H342 0.930 . S
C351 C352 1.359 . S
C351 C353 1.394 . S
C352 C351 1.359 . S
C352 C354 1.391 . S
C352 H355 0.929 . S
C353 H335 0.930 . S
C353 N349 1.334 . S
C353 C351 1.394 . S
C354 C350 1.413 . S
C354 C352 1.391 . S
C354 C369 1.437 1_545 S
H355 C352 0.929 . S
O356 Gd312 2.545 . S
O356 C371 1.258 . S
O357 Gd312 2.606 1_455 S
O357 Gd313 2.362 1_545 S
O357 C368 1.284 . S
O358 Gd313 2.324 1_655 S
O358 C378 1.254 1_565 S
O359 Gd312 2.429 . S
O359 C378 1.268 . S
O360 Gd312 2.545 1_455 S
O360 C368 1.250 . S
O361 Gd312 2.412 . S
O361 C371 1.252 . S
O362 Gd313 2.545 . S
O362 C380 1.258 . S
O363 Gd312 2.362 1_565 S
O363 Gd313 2.606 1_655 S
O363 C379 1.284 . S
O364 Gd312 2.324 1_455 S
O364 C387 1.254 . S
O365 Gd313 2.429 . S
O365 C387 1.268 1_565 S
O366 Gd313 2.545 . S
O366 C379 1.250 1_455 S
O367 Gd313 2.412 . S
O367 C380 1.252 . S
C368 O357 1.284 . S
C368 O360 1.250 . S
C369 H338 0.929 . S
C369 C354 1.437 1_565 S
C369 C370 1.317 . S
C370 H341 0.930 . S
C370 C346 1.431 . S
C370 C369 1.317 . S
C371 Gd312 2.828 . S
C371 O356 1.258 . S
C371 O361 1.252 . S
C371 C372 1.497 . S
C372 C371 1.497 . S
C372 C373 1.395 . S
C372 C374 1.380 . S
C373 C372 1.395 . S
C373 C376 1.398 . S
C373 H388 0.930 . S
C374 C372 1.380 . S
C374 C375 1.391 . S
C374 H389 0.930 1_655 S
C375 C374 1.391 . S
C375 C377 1.387 . S
C376 C373 1.398 . S
C376 C377 1.380 . S
C376 H390 0.930 . S
C377 C375 1.387 . S
C377 C376 1.380 . S
C377 H391 0.930 . S
C378 O358 1.254 1_545 S
C378 O359 1.268 . S
C379 O363 1.284 . S
C379 O366 1.250 1_655 S
C380 Gd313 2.828 . S
C380 O362 1.258 . S
C380 O367 1.252 . S
C380 C381 1.497 . S
C381 C380 1.497 . S
C381 C382 1.395 . S
C381 C383 1.380 . S
C382 C381 1.395 . S
C382 C385 1.398 . S
C382 H392 0.930 . S
C383 C381 1.380 . S
C383 C384 1.391 . S
C383 H393 0.909 1_455 S
C384 C383 1.391 . S
C384 C386 1.387 . S
C385 C382 1.398 . S
C385 C386 1.380 . S
C385 H394 0.930 . S
C386 C384 1.387 . S
C386 C385 1.380 . S
C386 H395 0.930 . S
C387 O364 1.254 . S
C387 O365 1.268 1_545 S
H388 C373 0.930 . S
H389 C374 0.930 1_455 S
H390 C376 0.930 . S
H391 C377 0.930 . S
H392 C382 0.930 . S
H393 C383 0.909 1_655 S
H394 C385 0.930 . S
H395 C386 0.930 . S
Gd396 N427 2.661 . S
Gd396 N433 2.601 . S
Gd396 O440 2.545 . S
Gd396 O441 2.606 1_565 S
Gd396 O443 2.429 . S
Gd396 O444 2.545 1_565 S
Gd396 O445 2.412 . S
Gd396 O447 2.362 . S
Gd396 O448 2.324 1_565 S
Gd396 C455 2.828 . S
Gd397 N406 2.661 . S
Gd397 N410 2.601 . S
Gd397 O441 2.362 . S
Gd397 O442 2.324 1_545 S
Gd397 O446 2.545 . S
Gd397 O447 2.606 1_545 S
Gd397 O449 2.429 . S
Gd397 O450 2.545 . S
Gd397 O451 2.412 . S
Gd397 C464 2.828 . S
C398 C401 1.417 . S
C398 C403 1.431 . S
C398 C404 1.412 . S
C399 C402 1.437 . S
C399 C403 1.317 . S
C399 H418 0.929 . S
C400 C401 1.426 . S
C400 C402 1.413 . S
C400 N410 1.359 . S
C401 C398 1.417 . S
C401 C400 1.426 . S
C401 N406 1.350 . S
C402 C399 1.437 . S
C402 C400 1.413 . S
C402 C412 1.391 . S
C403 C398 1.431 . S
C403 C399 1.317 . S
C403 H414 0.930 . S
C404 C398 1.412 . S
C404 C405 1.355 . S
C404 H416 0.930 . S
C405 C404 1.355 . S
C405 C407 1.402 . S
C405 H417 0.930 1_545 S
N406 Gd397 2.661 . S
N406 C401 1.350 . S
N406 C407 1.307 . S
C407 C405 1.402 . S
C407 N406 1.307 . S
C407 H408 0.930 1_545 S
H408 C407 0.930 1_565 S
C409 N410 1.334 . S
C409 C411 1.394 . S
C409 H413 0.930 . S
N410 Gd397 2.601 . S
N410 C400 1.359 . S
N410 C409 1.334 . S
C411 C409 1.394 . S
C411 C412 1.359 . S
C411 H423 0.930 . S
C412 C402 1.391 . S
C412 C411 1.359 . S
C412 H424 0.929 . S
H413 C409 0.930 . S
H414 C403 0.930 . S
H415 C432 0.930 . S
H416 C404 0.930 . S
H417 C405 0.930 1_565 S
H418 C399 0.929 . S
H419 C437 0.930 . S
H420 C428 0.930 . S
H421 C429 0.930 . S
H422 C453 0.929 . S
H423 C411 0.930 . S
H424 C412 0.929 . S
H425 C454 0.930 . S
H426 C435 0.930 . S
N427 Gd396 2.661 . S
N427 C431 1.350 . S
N427 C432 1.307 1_565 S
C428 H420 0.930 . S
C428 C429 1.355 1_565 S
C428 C430 1.412 . S
C429 H421 0.930 . S
C429 C428 1.355 1_545 S
C429 C432 1.402 . S
C430 C428 1.412 . S
C430 C431 1.417 . S
C430 C454 1.431 . S
C431 N427 1.350 . S
C431 C430 1.417 . S
C431 C434 1.426 . S
C432 H415 0.930 . S
C432 N427 1.307 1_545 S
C432 C429 1.402 . S
N433 Gd396 2.601 . S
N433 C434 1.359 . S
N433 C437 1.334 . S
C434 C431 1.426 . S
C434 N433 1.359 . S
C434 C438 1.413 . S
C435 H426 0.930 . S
C435 C436 1.359 . S
C435 C437 1.394 . S
C436 C435 1.359 . S
C436 C438 1.391 . S
C436 H439 0.929 . S
C437 H419 0.930 . S
C437 N433 1.334 . S
C437 C435 1.394 . S
C438 C434 1.413 . S
C438 C436 1.391 . S
C438 C453 1.437 . S
H439 C436 0.929 . S
O440 Gd396 2.545 . S
O440 C455 1.258 . S
O441 Gd396 2.606 1_545 S
O441 Gd397 2.362 . S
O441 C452 1.284 . S
O442 Gd397 2.324 1_565 S
O442 C462 1.254 . S
O443 Gd396 2.429 . S
O443 C462 1.268 . S
O444 Gd396 2.545 1_545 S
O444 C452 1.250 . S
O445 Gd396 2.412 . S
O445 C455 1.252 . S
O446 Gd397 2.545 . S
O446 C464 1.258 . S
O447 Gd396 2.362 . S
O447 Gd397 2.606 1_565 S
O447 C463 1.284 . S
O448 Gd396 2.324 1_545 S
O448 C471 1.254 . S
O449 Gd397 2.429 . S
O449 C471 1.268 . S
O450 Gd397 2.545 . S
O450 C463 1.250 1_545 S
O451 Gd397 2.412 . S
O451 C464 1.252 . S
C452 O441 1.284 . S
C452 O444 1.250 . S
C453 H422 0.929 . S
C453 C438 1.437 . S
C453 C454 1.317 . S
C454 H425 0.930 . S
C454 C430 1.431 . S
C454 C453 1.317 . S
C455 Gd396 2.828 . S
C455 O440 1.258 . S
C455 O445 1.252 . S
C455 C456 1.497 . S
C456 C455 1.497 . S
C456 C457 1.395 . S
C456 C458 1.380 . S
C457 C456 1.395 . S
C457 C460 1.398 . S
C457 H472 0.930 . S
C458 C456 1.380 . S
C458 C459 1.391 . S
C458 H473 0.930 1_565 S
C459 C458 1.391 . S
C459 C461 1.387 . S
C460 C457 1.398 . S
C460 C461 1.380 . S
C460 H474 0.930 . S
C461 C459 1.387 . S
C461 C460 1.380 . S
C461 H475 0.930 . S
C462 O442 1.254 . S
C462 O443 1.268 . S
C463 O447 1.284 . S
C463 O450 1.250 1_565 S
C464 Gd397 2.828 . S
C464 O446 1.258 . S
C464 O451 1.252 . S
C464 C465 1.497 . S
C465 C464 1.497 . S
C465 C466 1.395 . S
C465 C467 1.380 . S
C466 C465 1.395 . S
C466 C469 1.398 . S
C466 H476 0.930 . S
C467 C465 1.380 . S
C467 C468 1.391 . S
C467 H477 0.930 . S
C468 C467 1.391 . S
C468 C470 1.387 . S
C469 C466 1.398 . S
C469 C470 1.380 . S
C469 H478 0.930 . S
C470 C468 1.387 . S
C470 C469 1.380 . S
C470 H479 0.930 . S
C471 O448 1.254 . S
C471 O449 1.268 . S
H472 C457 0.930 . S
H473 C458 0.930 1_545 S
H474 C460 0.930 . S
H475 C461 0.930 . S
H476 C466 0.930 . S
H477 C467 0.930 . S
H478 C469 0.930 . S
H479 C470 0.930 . S
Gd480 N511 2.661 . S
Gd480 N517 2.601 . S
Gd480 O524 2.545 . S
Gd480 O525 2.606 . S
Gd480 O527 2.429 . S
Gd480 O528 2.545 . S
Gd480 O529 2.412 . S
Gd480 O531 2.362 . S
Gd480 O532 2.324 . S
Gd480 C539 2.828 . S
Gd481 N490 2.661 . S
Gd481 N494 2.601 . S
Gd481 O525 2.362 . S
Gd481 O526 2.324 . S
Gd481 O530 2.545 . S
Gd481 O531 2.606 . S
Gd481 O533 2.429 . S
Gd481 O534 2.545 . S
Gd481 O535 2.412 . S
Gd481 C548 2.828 . S
C482 C485 1.417 . S
C482 C487 1.431 . S
C482 C488 1.412 . S
C483 C486 1.437 . S
C483 C487 1.317 . S
C483 H502 0.929 . S
C484 C485 1.426 . S
C484 C486 1.413 . S
C484 N494 1.359 . S
C485 C482 1.417 . S
C485 C484 1.426 . S
C485 N490 1.350 . S
C486 C483 1.437 . S
C486 C484 1.413 . S
C486 C496 1.391 . S
C487 C482 1.431 . S
C487 C483 1.317 . S
C487 H498 0.930 . S
C488 C482 1.412 . S
C488 C489 1.355 . S
C488 H500 0.930 . S
C489 C488 1.355 . S
C489 C491 1.402 . S
C489 H501 0.930 . S
N490 Gd481 2.661 . S
N490 C485 1.350 . S
N490 C491 1.307 . S
C491 C489 1.402 . S
C491 N490 1.307 . S
C491 H492 0.930 . S
H492 C491 0.930 . S
C493 N494 1.334 . S
C493 C495 1.394 . S
C493 H497 0.930 . S
N494 Gd481 2.601 . S
N494 C484 1.359 . S
N494 C493 1.334 . S
C495 C493 1.394 . S
C495 C496 1.359 . S
C495 H507 0.930 . S
C496 C486 1.391 . S
C496 C495 1.359 . S
C496 H508 0.929 . S
H497 C493 0.930 . S
H498 C487 0.930 . S
H499 C516 0.930 . S
H500 C488 0.930 . S
H501 C489 0.930 . S
H502 C483 0.929 . S
H503 C521 0.930 . S
H504 C512 0.930 . S
H505 C513 0.930 . S
H506 C537 0.929 . S
H507 C495 0.930 . S
H508 C496 0.929 . S
H509 C538 0.930 . S
H510 C519 0.930 . S
N511 Gd480 2.661 . S
N511 C515 1.350 . S
N511 C516 1.307 . S
C512 H504 0.930 . S
C512 C513 1.355 . S
C512 C514 1.412 . S
C513 H505 0.930 . S
C513 C512 1.355 . S
C513 C516 1.402 . S
C514 C512 1.412 . S
C514 C515 1.417 . S
C514 C538 1.431 . S
C515 N511 1.350 . S
C515 C514 1.417 . S
C515 C518 1.426 . S
C516 H499 0.930 . S
C516 N511 1.307 . S
C516 C513 1.402 . S
N517 Gd480 2.601 . S
N517 C518 1.359 . S
N517 C521 1.334 . S
C518 C515 1.426 . S
C518 N517 1.359 . S
C518 C522 1.413 . S
C519 H510 0.930 . S
C519 C520 1.359 . S
C519 C521 1.394 . S
C520 C519 1.359 . S
C520 C522 1.391 . S
C520 H523 0.929 . S
C521 H503 0.930 . S
C521 N517 1.334 . S
C521 C519 1.394 . S
C522 C518 1.413 . S
C522 C520 1.391 . S
C522 C537 1.437 . S
H523 C520 0.929 . S
O524 Gd480 2.545 . S
O524 C539 1.258 . S
O525 Gd480 2.606 . S
O525 Gd481 2.362 . S
O525 C536 1.284 . S
O526 Gd481 2.324 . S
O526 C546 1.254 . S
O527 Gd480 2.429 . S
O527 C546 1.268 . S
O528 Gd480 2.545 . S
O528 C536 1.250 . S
O529 Gd480 2.412 . S
O529 C539 1.252 . S
O530 Gd481 2.545 . S
O530 C548 1.258 . S
O531 Gd480 2.362 . S
O531 Gd481 2.606 . S
O531 C547 1.284 . S
O532 Gd480 2.324 . S
O532 C555 1.254 . S
O533 Gd481 2.429 . S
O533 C555 1.268 . S
O534 Gd481 2.545 . S
O534 C547 1.250 . S
O535 Gd481 2.412 . S
O535 C548 1.252 . S
C536 O525 1.284 . S
C536 O528 1.250 . S
C537 H506 0.929 . S
C537 C522 1.437 . S
C537 C538 1.317 . S
C538 H509 0.930 . S
C538 C514 1.431 . S
C538 C537 1.317 . S
C539 Gd480 2.828 . S
C539 O524 1.258 . S
C539 O529 1.252 . S
C539 C540 1.497 . S
C540 C539 1.497 . S
C540 C541 1.395 . S
C540 C542 1.380 . S
C541 C540 1.395 . S
C541 C544 1.398 . S
C541 H556 0.930 . S
C542 C540 1.380 . S
C542 C543 1.391 . S
C542 H557 0.930 . S
C543 C542 1.391 . S
C543 C545 1.387 . S
C544 C541 1.398 . S
C544 C545 1.380 . S
C544 H558 0.930 . S
C545 C543 1.387 . S
C545 C544 1.380 . S
C545 H559 0.930 . S
C546 O526 1.254 . S
C546 O527 1.268 . S
C547 O531 1.284 . S
C547 O534 1.250 . S
C548 Gd481 2.828 . S
C548 O530 1.258 . S
C548 O535 1.252 . S
C548 C549 1.497 . S
C549 C548 1.497 . S
C549 C550 1.395 . S
C549 C551 1.380 . S
C550 C549 1.395 . S
C550 C553 1.398 . S
C550 H560 0.930 . S
C551 C549 1.380 . S
C551 C552 1.391 . S
C551 H561 0.930 . S
C552 C551 1.391 . S
C552 C554 1.387 . S
C553 C550 1.398 . S
C553 C554 1.380 . S
C553 H562 0.930 . S
C554 C552 1.387 . S
C554 C553 1.380 . S
C554 H563 0.930 . S
C555 O532 1.254 . S
C555 O533 1.268 . S
H556 C541 0.930 . S
H557 C542 0.930 . S
H558 C544 0.930 . S
H559 C545 0.930 . S
H560 C550 0.930 . S
H561 C551 0.930 . S
H562 C553 0.930 . S
H563 C554 0.930 . S
Gd564 N595 2.661 . S
Gd564 N601 2.601 . S
Gd564 O608 2.545 . S
Gd564 O609 2.599 1_655 S
Gd564 O611 2.429 1_655 S
Gd564 O612 2.545 . S
Gd564 O613 2.412 . S
Gd564 O615 2.362 1_655 S
Gd564 O616 2.324 . S
Gd564 C623 2.828 . S
Gd565 N574 2.661 . S
Gd565 N578 2.601 . S
Gd565 O609 2.373 . S
Gd565 O610 2.324 . S
Gd565 O614 2.545 . S
Gd565 O615 2.606 . S
Gd565 O617 2.429 1_455 S
Gd565 O618 2.545 . S
Gd565 O619 2.412 . S
Gd565 C632 2.828 . S
C566 C569 1.417 . S
C566 C571 1.431 . S
C566 C572 1.412 . S
C567 C570 1.437 . S
C567 C571 1.317 . S
C567 H586 0.929 . S
C568 C569 1.426 . S
C568 C570 1.413 . S
C568 N578 1.359 . S
C569 C566 1.417 . S
C569 C568 1.426 . S
C569 N574 1.350 . S
C570 C567 1.437 . S
C570 C568 1.413 . S
C570 C580 1.391 . S
C571 C566 1.431 . S
C571 C567 1.317 . S
C571 H582 0.930 . S
C572 C566 1.412 . S
C572 C573 1.355 . S
C572 H584 0.930 . S
C573 C572 1.355 . S
C573 C575 1.402 . S
C573 H585 0.930 . S
N574 Gd565 2.661 . S
N574 C569 1.350 . S
N574 C575 1.307 . S
C575 C573 1.402 . S
C575 N574 1.307 . S
C575 H576 0.930 . S
H576 C575 0.930 . S
C577 N578 1.334 . S
C577 C579 1.398 . S
C577 H581 0.930 1_455 S
N578 Gd565 2.601 . S
N578 C568 1.359 . S
N578 C577 1.334 . S
C579 C577 1.398 . S
C579 C580 1.377 . S
C579 H591 0.911 1_455 S
C580 C570 1.391 . S
C580 C579 1.377 . S
C580 H592 0.929 . S
H581 C577 0.930 1_655 S
H582 C571 0.930 . S
H583 C600 0.930 . S
H584 C572 0.930 . S
H585 C573 0.930 . S
H586 C567 0.929 . S
H587 C605 0.930 . S
H588 C596 0.930 . S
H589 C597 0.930 . S
H590 C621 0.929 . S
H591 C579 0.911 1_655 S
H592 C580 0.929 . S
H593 C622 0.930 . S
H594 C603 0.930 . S
N595 Gd564 2.661 . S
N595 C599 1.350 . S
N595 C600 1.307 . S
C596 H588 0.930 . S
C596 C597 1.355 . S
C596 C598 1.412 . S
C597 H589 0.930 . S
C597 C596 1.355 . S
C597 C600 1.402 . S
C598 C596 1.412 . S
C598 C599 1.417 . S
C598 C622 1.431 . S
C599 N595 1.350 . S
C599 C598 1.417 . S
C599 C602 1.426 . S
C600 H583 0.930 . S
C600 N595 1.307 . S
C600 C597 1.402 . S
N601 Gd564 2.601 . S
N601 C602 1.359 . S
N601 C605 1.334 1_655 S
C602 C599 1.426 . S
C602 N601 1.359 . S
C602 C606 1.413 . S
C603 H594 0.930 . S
C603 C604 1.359 1_455 S
C603 C605 1.394 . S
C604 C603 1.359 1_655 S
C604 C606 1.391 . S
C604 H607 0.936 . S
C605 H587 0.930 . S
C605 N601 1.334 1_455 S
C605 C603 1.394 . S
C606 C602 1.413 . S
C606 C604 1.391 . S
C606 C621 1.437 . S
H607 C604 0.936 . S
O608 Gd564 2.545 . S
O608 C623 1.258 . S
O609 Gd564 2.599 1_455 S
O609 Gd565 2.373 . S
O609 C620 1.276 1_455 S
O610 Gd565 2.324 . S
O610 C630 1.254 . S
O611 Gd564 2.429 1_455 S
O611 C630 1.268 . S
O612 Gd564 2.545 . S
O612 C620 1.250 . S
O613 Gd564 2.412 . S
O613 C623 1.252 . S
O614 Gd565 2.545 . S
O614 C632 1.258 . S
O615 Gd564 2.362 1_455 S
O615 Gd565 2.606 . S
O615 C631 1.284 . S
O616 Gd564 2.324 . S
O616 C639 1.254 . S
O617 Gd565 2.429 1_655 S
O617 C639 1.268 . S
O618 Gd565 2.545 . S
O618 C631 1.250 . S
O619 Gd565 2.412 . S
O619 C632 1.252 . S
C620 O609 1.276 1_655 S
C620 O612 1.250 . S
C621 H590 0.929 . S
C621 C606 1.437 . S
C621 C622 1.317 . S
C622 H593 0.930 . S
C622 C598 1.431 . S
C622 C621 1.317 . S
C623 Gd564 2.828 . S
C623 O608 1.258 . S
C623 O613 1.252 . S
C623 C624 1.497 . S
C624 C623 1.497 . S
C624 C625 1.395 . S
C624 C626 1.380 . S
C625 C624 1.395 . S
C625 C628 1.398 . S
C625 H640 0.930 . S
C626 C624 1.380 . S
C626 C627 1.391 . S
C626 H641 0.930 . S
C627 C626 1.391 . S
C627 C629 1.387 . S
C628 C625 1.398 . S
C628 C629 1.380 . S
C628 H642 0.930 . S
C629 C627 1.387 . S
C629 C628 1.380 . S
C629 H643 0.930 . S
C630 O610 1.254 . S
C630 O611 1.268 . S
C631 O615 1.284 . S
C631 O618 1.250 . S
C632 Gd565 2.828 . S
C632 O614 1.258 . S
C632 O619 1.252 . S
C632 C633 1.497 . S
C633 C632 1.497 . S
C633 C634 1.395 . S
C633 C635 1.380 . S
C634 C633 1.395 . S
C634 C637 1.398 . S
C634 H644 0.930 . S
C635 C633 1.380 . S
C635 C636 1.391 . S
C635 H645 0.930 . S
C636 C635 1.391 . S
C636 C638 1.387 . S
C637 C634 1.398 . S
C637 C638 1.380 . S
C637 H646 0.930 . S
C638 C636 1.387 . S
C638 C637 1.380 . S
C638 H647 0.930 . S
C639 O616 1.254 . S
C639 O617 1.268 . S
H640 C625 0.930 . S
H641 C626 0.930 . S
H642 C628 0.930 . S
H643 C629 0.930 . S
H644 C634 0.930 . S
H645 C635 0.930 . S
H646 C637 0.930 . S
H647 C638 0.930 . S
H648 C660 0.930 . S
H649 C662 0.930 . S
H650 C663 0.930 . S
H651 C667 0.959 . S
H652 C667 0.959 . S
H653 C667 0.961 . S
H654 C668 0.960 . S
H655 C668 0.961 . S
H656 C668 0.959 . S
H657 C671 0.929 . S
H658 C672 0.931 . S
H659 C674 0.930 . S
C660 H648 0.930 . S
C660 C661 1.399 . S
C660 C665 1.399 . S
C661 C660 1.399 . S
C661 C662 1.376 . S
C662 H649 0.930 . S
C662 C661 1.376 . S
C662 C663 1.388 . S
C663 H650 0.930 . S
C663 C662 1.388 . S
C663 C664 1.390 . S
C664 C663 1.390 . S
C664 C665 1.394 . S
C664 C670 1.465 . S
C665 C660 1.399 . S
C665 C664 1.394 . S
C665 C666 1.516 . S
C666 C665 1.516 . S
C666 C667 1.502 . S
C666 C668 1.561 . S
C666 C669 1.526 . S
C667 H651 0.959 . S
C667 H652 0.959 . S
C667 H653 0.961 . S
C667 C666 1.502 . S
C668 H654 0.960 . S
C668 H655 0.961 . S
C668 H656 0.959 . S
C668 C666 1.561 . S
C669 C666 1.526 . S
C669 C670 1.396 . S
C669 C674 1.390 . S
C670 C664 1.465 . S
C670 C669 1.396 . S
C670 C671 1.399 . S
C671 H657 0.929 . S
C671 C670 1.399 . S
C671 C672 1.385 . S
C672 H658 0.931 . S
C672 C671 1.385 . S
C672 C673 1.389 . S
C673 C672 1.389 . S
C673 C674 1.387 . S
C674 H659 0.930 . S
C674 C669 1.390 . S
C674 C673 1.387 . S
H675 C687 0.930 . S
H676 C689 0.930 . S
H677 C690 0.930 . S
H678 C694 0.959 . S
H679 C694 0.959 . S
H680 C694 0.961 . S
H681 C695 0.960 . S
H682 C695 0.961 . S
H683 C695 0.959 . S
H684 C698 0.929 . S
H685 C699 0.931 . S
H686 C701 0.930 . S
C687 H675 0.930 . S
C687 C688 1.399 . S
C687 C692 1.399 . S
C688 C687 1.399 . S
C688 C689 1.376 . S
C689 H676 0.930 . S
C689 C688 1.376 . S
C689 C690 1.388 . S
C690 H677 0.930 . S
C690 C689 1.388 . S
C690 C691 1.390 . S
C691 C690 1.390 . S
C691 C692 1.394 . S
C691 C697 1.465 . S
C692 C687 1.399 . S
C692 C691 1.394 . S
C692 C693 1.516 . S
C693 C692 1.516 . S
C693 C694 1.502 . S
C693 C695 1.561 . S
C693 C696 1.526 . S
C694 H678 0.959 . S
C694 H679 0.959 . S
C694 H680 0.961 . S
C694 C693 1.502 . S
C695 H681 0.960 . S
C695 H682 0.961 . S
C695 H683 0.959 . S
C695 C693 1.561 . S
C696 C693 1.526 . S
C696 C697 1.396 . S
C696 C701 1.390 . S
C697 C691 1.465 . S
C697 C696 1.396 . S
C697 C698 1.399 . S
C698 H684 0.929 . S
C698 C697 1.399 . S
C698 C699 1.385 . S
C699 H685 0.931 . S
C699 C698 1.385 . S
C699 C700 1.389 . S
C700 C699 1.389 . S
C700 C701 1.387 . S
C701 H686 0.930 . S
C701 C696 1.390 . S
C701 C700 1.387 . S
H702 C714 0.930 . S
H703 C716 0.930 . S
H704 C717 0.930 . S
H705 C721 0.959 . S
H706 C721 0.959 . S
H707 C721 0.961 . S
H708 C722 0.960 . S
H709 C722 0.961 . S
H710 C722 0.959 . S
H711 C725 0.929 . S
H712 C726 0.931 . S
H713 C728 0.930 . S
C714 H702 0.930 . S
C714 C715 1.399 . S
C714 C719 1.399 . S
C715 C714 1.399 . S
C715 C716 1.376 . S
C716 H703 0.930 . S
C716 C715 1.376 . S
C716 C717 1.388 . S
C717 H704 0.930 . S
C717 C716 1.388 . S
C717 C718 1.390 . S
C718 C717 1.390 . S
C718 C719 1.394 . S
C718 C724 1.465 . S
C719 C714 1.399 . S
C719 C718 1.394 . S
C719 C720 1.516 . S
C720 C719 1.516 . S
C720 C721 1.502 . S
C720 C722 1.561 . S
C720 C723 1.526 . S
C721 H705 0.959 . S
C721 H706 0.959 . S
C721 H707 0.961 . S
C721 C720 1.502 . S
C722 H708 0.960 . S
C722 H709 0.961 . S
C722 H710 0.959 . S
C722 C720 1.561 . S
C723 C720 1.526 . S
C723 C724 1.396 . S
C723 C728 1.390 . S
C724 C718 1.465 . S
C724 C723 1.396 . S
C724 C725 1.399 . S
C725 H711 0.929 . S
C725 C724 1.399 . S
C725 C726 1.385 . S
C726 H712 0.931 . S
C726 C725 1.385 . S
C726 C727 1.389 . S
C727 C726 1.389 . S
C727 C728 1.387 . S
C728 H713 0.930 . S
C728 C723 1.390 . S
C728 C727 1.387 . S
H729 C741 0.930 . S
H730 C743 0.930 . S
H731 C744 0.930 . S
H732 C748 0.959 . S
H733 C748 0.959 . S
H734 C748 0.961 . S
H735 C749 0.960 . S
H736 C749 0.961 . S
H737 C749 0.959 . S
H738 C752 0.929 . S
H739 C753 0.931 . S
H740 C755 0.930 . S
C741 H729 0.930 . S
C741 C742 1.399 . S
C741 C746 1.399 . S
C742 C741 1.399 . S
C742 C743 1.376 . S
C743 H730 0.930 . S
C743 C742 1.376 . S
C743 C744 1.388 . S
C744 H731 0.930 . S
C744 C743 1.388 . S
C744 C745 1.390 . S
C745 C744 1.390 . S
C745 C746 1.394 . S
C745 C751 1.465 . S
C746 C741 1.399 . S
C746 C745 1.394 . S
C746 C747 1.516 . S
C747 C746 1.516 . S
C747 C748 1.502 . S
C747 C749 1.561 . S
C747 C750 1.526 . S
C748 H732 0.959 . S
C748 H733 0.959 . S
C748 H734 0.961 . S
C748 C747 1.502 . S
C749 H735 0.960 . S
C749 H736 0.961 . S
C749 H737 0.959 . S
C749 C747 1.561 . S
C750 C747 1.526 . S
C750 C751 1.396 . S
C750 C755 1.390 . S
C751 C745 1.465 . S
C751 C750 1.396 . S
C751 C752 1.399 . S
C752 H738 0.929 . S
C752 C751 1.399 . S
C752 C753 1.385 . S
C753 H739 0.931 . S
C753 C752 1.385 . S
C753 C754 1.389 . S
C754 C753 1.389 . S
C754 C755 1.387 . S
C755 H740 0.930 . S
C755 C750 1.390 . S
C755 C754 1.387 . S
H756 C768 0.930 . S
H757 C770 0.930 . S
H758 C771 0.930 . S
H759 C775 0.946 1_565 S
H760 C775 0.973 . S
H761 C775 0.965 . S
H762 C776 0.960 1_554 S
H763 C776 0.961 . S
H764 C776 0.959 . S
H765 C779 0.929 . S
H766 C780 0.931 . S
H767 C782 0.930 1_545 S
C768 H756 0.930 . S
C768 C769 1.399 . S
C768 C773 1.399 1_554 S
C769 C768 1.399 . S
C769 C770 1.376 . S
C770 H757 0.930 . S
C770 C769 1.376 . S
C770 C771 1.388 1_554 S
C771 H758 0.930 . S
C771 C770 1.388 1_556 S
C771 C772 1.390 . S
C772 C771 1.390 . S
C772 C773 1.394 . S
C772 C778 1.465 . S
C773 C768 1.399 1_556 S
C773 C772 1.394 . S
C773 C774 1.516 . S
C774 C773 1.516 . S
C774 C775 1.497 1_565 S
C774 C776 1.561 1_565 S
C774 C777 1.526 . S
C775 H759 0.946 1_545 S
C775 H760 0.973 . S
C775 H761 0.965 . S
C775 C774 1.497 1_545 S
C776 H762 0.960 1_556 S
C776 H763 0.961 . S
C776 H764 0.959 . S
C776 C774 1.561 1_545 S
C777 C774 1.526 . S
C777 C778 1.396 . S
C777 C782 1.390 . S
C778 C772 1.465 . S
C778 C777 1.396 . S
C778 C779 1.399 . S
C779 H765 0.929 . S
C779 C778 1.399 . S
C779 C780 1.385 . S
C780 H766 0.931 . S
C780 C779 1.385 . S
C780 C781 1.389 . S
C781 C780 1.389 . S
C781 C782 1.387 . S
C782 H767 0.930 1_565 S
C782 C777 1.390 . S
C782 C781 1.387 . S
H783 C795 0.930 . S
H784 C797 0.930 . S
H785 C798 0.930 . S
H786 C802 0.959 . S
H787 C802 0.959 . S
H788 C802 0.961 1_554 S
H789 C803 0.960 1_554 S
H790 C803 0.961 . S
H791 C803 0.959 . S
H792 C806 0.929 . S
H793 C807 0.931 . S
H794 C809 0.930 . S
C795 H783 0.930 . S
C795 C796 1.399 . S
C795 C800 1.399 1_554 S
C796 C795 1.399 . S
C796 C797 1.376 . S
C797 H784 0.930 . S
C797 C796 1.376 . S
C797 C798 1.388 1_554 S
C798 H785 0.930 . S
C798 C797 1.388 1_556 S
C798 C799 1.390 . S
C799 C798 1.390 . S
C799 C800 1.394 . S
C799 C805 1.465 . S
C800 C795 1.399 1_556 S
C800 C799 1.394 . S
C800 C801 1.516 . S
C801 C800 1.516 . S
C801 C802 1.502 . S
C801 C803 1.561 . S
C801 C804 1.526 . S
C802 H786 0.959 . S
C802 H787 0.959 . S
C802 H788 0.961 1_556 S
C802 C801 1.502 . S
C803 H789 0.960 1_556 S
C803 H790 0.961 . S
C803 H791 0.959 . S
C803 C801 1.561 . S
C804 C801 1.526 . S
C804 C805 1.396 . S
C804 C809 1.390 . S
C805 C799 1.465 . S
C805 C804 1.396 . S
C805 C806 1.399 . S
C806 H792 0.929 . S
C806 C805 1.399 . S
C806 C807 1.385 . S
C807 H793 0.931 . S
C807 C806 1.385 . S
C807 C808 1.389 . S
C808 C807 1.389 . S
C808 C809 1.387 . S
C809 H794 0.930 . S
C809 C804 1.390 . S
C809 C808 1.387 . S
H810 C822 0.930 . S
H811 C824 0.930 . S
H812 C825 0.930 . S
H813 C829 0.959 . S
H814 C829 0.959 . S
H815 C829 0.957 1_554 S
H816 C830 0.960 . S
H817 C830 0.961 . S
H818 C830 0.959 . S
H819 C833 0.929 . S
H820 C834 0.931 . S
H821 C836 0.930 . S
C822 H810 0.930 . S
C822 C823 1.399 . S
C822 C827 1.399 1_554 S
C823 C822 1.399 . S
C823 C824 1.376 . S
C824 H811 0.930 . S
C824 C823 1.376 . S
C824 C825 1.388 1_554 S
C825 H812 0.930 . S
C825 C824 1.388 1_556 S
C825 C826 1.390 . S
C826 C825 1.390 . S
C826 C827 1.394 . S
C826 C832 1.465 . S
C827 C822 1.399 1_556 S
C827 C826 1.394 . S
C827 C828 1.516 . S
C828 C827 1.516 . S
C828 C829 1.502 . S
C828 C830 1.561 . S
C828 C831 1.526 . S
C829 H813 0.959 . S
C829 H814 0.959 . S
C829 H815 0.957 1_556 S
C829 C828 1.502 . S
C830 H816 0.960 . S
C830 H817 0.961 . S
C830 H818 0.959 . S
C830 C828 1.561 . S
C831 C828 1.526 . S
C831 C832 1.396 . S
C831 C836 1.390 . S
C832 C826 1.465 . S
C832 C831 1.396 . S
C832 C833 1.399 . S
C833 H819 0.929 . S
C833 C832 1.399 . S
C833 C834 1.385 . S
C834 H820 0.931 . S
C834 C833 1.385 . S
C834 C835 1.389 . S
C835 C834 1.389 . S
C835 C836 1.387 . S
C836 H821 0.930 . S
C836 C831 1.390 . S
C836 C835 1.387 . S
H837 C849 0.930 1_556 S
H838 C851 0.930 . S
H839 C852 0.930 . S
H840 C856 0.959 . S
H841 C856 0.959 . S
H842 C856 0.961 . S
H843 C857 0.960 . S
H844 C857 0.961 . S
H845 C857 0.959 . S
H846 C860 0.929 . S
H847 C861 0.931 . S
H848 C863 0.930 . S
C849 H837 0.930 1_554 S
C849 C850 1.399 . S
C849 C854 1.399 1_554 S
C850 C849 1.399 . S
C850 C851 1.376 . S
C851 H838 0.930 . S
C851 C850 1.376 . S
C851 C852 1.388 . S
C852 H839 0.930 . S
C852 C851 1.388 . S
C852 C853 1.390 1_554 S
C853 C852 1.390 1_556 S
C853 C854 1.394 . S
C853 C859 1.465 . S
C854 C849 1.399 1_556 S
C854 C853 1.394 . S
C854 C855 1.516 . S
C855 C854 1.516 . S
C855 C856 1.502 . S
C855 C857 1.561 . S
C855 C858 1.526 . S
C856 H840 0.959 . S
C856 H841 0.959 . S
C856 H842 0.961 . S
C856 C855 1.502 . S
C857 H843 0.960 . S
C857 H844 0.961 . S
C857 H845 0.959 . S
C857 C855 1.561 . S
C858 C855 1.526 . S
C858 C859 1.396 . S
C858 C863 1.390 . S
C859 C853 1.465 . S
C859 C858 1.396 . S
C859 C860 1.399 . S
C860 H846 0.929 . S
C860 C859 1.399 . S
C860 C861 1.385 . S
C861 H847 0.931 . S
C861 C860 1.385 . S
C861 C862 1.389 . S
C862 C861 1.389 . S
C862 C863 1.387 . S
C863 H848 0.930 . S
C863 C858 1.390 . S
C863 C862 1.387 . S
H864 C876 0.930 . S
H865 C878 0.930 . S
H866 C879 0.930 . S
H867 C883 0.959 . S
H868 C883 0.959 . S
H869 C883 0.961 . S
H870 C884 0.960 . S
H871 C884 0.961 . S
H872 C884 0.959 . S
H873 C887 0.929 1_655 S
H874 C888 0.931 . S
H875 C890 0.930 . S
C876 H864 0.930 . S
C876 C877 1.399 . S
C876 C881 1.399 . S
C877 C876 1.399 . S
C877 C878 1.376 . S
C878 H865 0.930 . S
C878 C877 1.376 . S
C878 C879 1.388 . S
C879 H866 0.930 . S
C879 C878 1.388 . S
C879 C880 1.390 . S
C880 C879 1.390 . S
C880 C881 1.394 . S
C880 C886 1.465 . S
C881 C876 1.399 . S
C881 C880 1.394 . S
C881 C882 1.516 . S
C882 C881 1.516 . S
C882 C883 1.502 . S
C882 C884 1.561 . S
C882 C885 1.526 . S
C883 H867 0.959 . S
C883 H868 0.959 . S
C883 H869 0.961 . S
C883 C882 1.502 . S
C884 H870 0.960 . S
C884 H871 0.961 . S
C884 H872 0.959 . S
C884 C882 1.561 . S
C885 C882 1.526 . S
C885 C886 1.396 . S
C885 C890 1.390 . S
C886 C880 1.465 . S
C886 C885 1.396 . S
C886 C887 1.399 . S
C887 H873 0.929 1_455 S
C887 C886 1.399 . S
C887 C888 1.385 1_455 S
C888 H874 0.931 . S
C888 C887 1.385 1_655 S
C888 C889 1.388 1_655 S
C889 C888 1.388 1_455 S
C889 C890 1.390 . S
C890 H875 0.930 . S
C890 C885 1.390 . S
C890 C889 1.390 . S
H891 C903 0.930 . S
H892 C905 0.930 . S
H893 C906 0.930 . S
H894 C910 0.959 . S
H895 C910 0.959 . S
H896 C910 0.961 . S
H897 C911 0.960 . S
H898 C911 0.961 . S
H899 C911 0.959 . S
H900 C914 0.928 1_565 S
H901 C915 0.931 . S
H902 C917 0.930 . S
C903 H891 0.930 . S
C903 C904 1.399 . S
C903 C908 1.399 . S
C904 C903 1.399 . S
C904 C905 1.376 . S
C905 H892 0.930 . S
C905 C904 1.376 . S
C905 C906 1.388 . S
C906 H893 0.930 . S
C906 C905 1.388 . S
C906 C907 1.390 . S
C907 C906 1.390 . S
C907 C908 1.394 . S
C907 C913 1.465 . S
C908 C903 1.399 . S
C908 C907 1.394 . S
C908 C909 1.516 . S
C909 C908 1.516 . S
C909 C910 1.502 . S
C909 C911 1.561 . S
C909 C912 1.526 . S
C910 H894 0.959 . S
C910 H895 0.959 . S
C910 H896 0.961 . S
C910 C909 1.502 . S
C911 H897 0.960 . S
C911 H898 0.961 . S
C911 H899 0.959 . S
C911 C909 1.561 . S
C912 C909 1.526 . S
C912 C913 1.396 . S
C912 C917 1.390 . S
C913 C907 1.465 . S
C913 C912 1.396 . S
C913 C914 1.402 . S
C914 H900 0.928 1_545 S
C914 C913 1.402 . S
C914 C915 1.383 1_545 S
C915 H901 0.931 . S
C915 C914 1.383 1_565 S
C915 C916 1.395 . S
C916 C915 1.395 . S
C916 C917 1.375 1_565 S
C917 H902 0.930 . S
C917 C912 1.390 . S
C917 C916 1.375 1_545 S
H918 C930 0.930 . S
H919 C932 0.930 . S
H920 C933 0.930 . S
H921 C937 0.959 . S
H922 C937 0.959 . S
H923 C937 0.961 . S
H924 C938 0.960 . S
H925 C938 0.961 . S
H926 C938 0.959 . S
H927 C941 0.929 . S
H928 C942 0.931 . S
H929 C944 0.930 . S
C930 H918 0.930 . S
C930 C931 1.399 . S
C930 C935 1.399 . S
C931 C930 1.399 . S
C931 C932 1.376 . S
C932 H919 0.930 . S
C932 C931 1.376 . S
C932 C933 1.388 . S
C933 H920 0.930 . S
C933 C932 1.388 . S
C933 C934 1.390 . S
C934 C933 1.390 . S
C934 C935 1.394 . S
C934 C940 1.465 . S
C935 C930 1.399 . S
C935 C934 1.394 . S
C935 C936 1.516 . S
C936 C935 1.516 . S
C936 C937 1.502 . S
C936 C938 1.561 . S
C936 C939 1.526 . S
C937 H921 0.959 . S
C937 H922 0.959 . S
C937 H923 0.961 . S
C937 C936 1.502 . S
C938 H924 0.960 . S
C938 H925 0.961 . S
C938 H926 0.959 . S
C938 C936 1.561 . S
C939 C936 1.526 . S
C939 C940 1.396 . S
C939 C944 1.390 . S
C940 C934 1.465 . S
C940 C939 1.396 . S
C940 C941 1.399 . S
C941 H927 0.929 . S
C941 C940 1.399 . S
C941 C942 1.385 . S
C942 H928 0.931 . S
C942 C941 1.385 . S
C942 C943 1.389 . S
C943 C942 1.389 . S
C943 C944 1.387 . S
C944 H929 0.930 . S
C944 C939 1.390 . S
C944 C943 1.387 . S
H945 C957 0.930 . S
H946 C959 0.930 . S
H947 C960 0.930 . S
H948 C964 0.959 . S
H949 C964 0.959 . S
H950 C964 0.961 . S
H951 C965 0.960 . S
H952 C965 0.961 . S
H953 C965 0.959 . S
H954 C968 0.929 . S
H955 C969 0.931 . S
H956 C971 0.930 . S
C957 H945 0.930 . S
C957 C958 1.399 . S
C957 C962 1.399 . S
C958 C957 1.399 . S
C958 C959 1.376 . S
C959 H946 0.930 . S
C959 C958 1.376 . S
C959 C960 1.388 . S
C960 H947 0.930 . S
C960 C959 1.388 . S
C960 C961 1.390 . S
C961 C960 1.390 . S
C961 C962 1.394 . S
C961 C967 1.465 . S
C962 C957 1.399 . S
C962 C961 1.394 . S
C962 C963 1.516 . S
C963 C962 1.516 . S
C963 C964 1.502 . S
C963 C965 1.561 . S
C963 C966 1.526 . S
C964 H948 0.959 . S
C964 H949 0.959 . S
C964 H950 0.961 . S
C964 C963 1.502 . S
C965 H951 0.960 . S
C965 H952 0.961 . S
C965 H953 0.959 . S
C965 C963 1.561 . S
C966 C963 1.526 . S
C966 C967 1.396 . S
C966 C971 1.390 . S
C967 C961 1.465 . S
C967 C966 1.396 . S
C967 C968 1.399 . S
C968 H954 0.929 . S
C968 C967 1.399 . S
C968 C969 1.385 . S
C969 H955 0.931 . S
C969 C968 1.385 . S
C969 C970 1.389 . S
C970 C969 1.389 . S
C970 C971 1.387 . S
C971 H956 0.930 . S
C971 C966 1.390 . S
C971 C970 1.387 . S
H972 C984 0.930 . S
H973 C986 0.930 . S
H974 C987 0.930 . S
H975 C991 0.959 . S
H976 C991 0.959 . S
H977 C991 0.961 . S
H978 C992 0.960 . S
H979 C992 0.961 . S
H980 C992 0.959 . S
H981 C995 0.929 1_554 S
H982 C996 0.931 . S
H983 C998 0.930 . S
C984 H972 0.930 . S
C984 C985 1.399 . S
C984 C989 1.399 . S
C985 C984 1.399 . S
C985 C986 1.376 1_556 S
C986 H973 0.930 . S
C986 C985 1.376 1_554 S
C986 C987 1.388 . S
C987 H974 0.930 . S
C987 C986 1.388 . S
C987 C988 1.390 1_554 S
C988 C987 1.390 1_556 S
C988 C989 1.394 . S
C988 C994 1.465 . S
C989 C984 1.399 . S
C989 C988 1.394 . S
C989 C990 1.516 . S
C990 C989 1.516 . S
C990 C991 1.502 . S
C990 C992 1.561 . S
C990 C993 1.526 . S
C991 H975 0.959 . S
C991 H976 0.959 . S
C991 H977 0.961 . S
C991 C990 1.502 . S
C992 H978 0.960 . S
C992 H979 0.961 . S
C992 H980 0.959 . S
C992 C990 1.561 . S
C993 C990 1.526 . S
C993 C994 1.396 . S
C993 C998 1.390 . S
C994 C988 1.465 . S
C994 C993 1.396 . S
C994 C995 1.399 1_655 S
C995 H981 0.929 1_556 S
C995 C994 1.399 1_455 S
C995 C996 1.385 . S
C996 H982 0.931 . S
C996 C995 1.385 . S
C996 C997 1.389 . S
C997 C996 1.389 . S
C997 C998 1.387 1_455 S
C998 H983 0.930 . S
C998 C993 1.390 . S
C998 C997 1.387 1_655 S
H999 C1011 0.930 . S
H1000 C1013 0.930 . S
H1001 C1014 0.930 . S
H1002 C1018 0.959 . S
H1003 C1018 0.959 . S
H1004 C1018 0.961 . S
H1005 C1019 0.960 . S
H1006 C1019 0.961 . S
H1007 C1019 0.959 . S
H1008 C1022 0.929 1_554 S
H1009 C1023 0.931 . S
H1010 C1025 0.930 1_545 S
C1011 H999 0.930 . S
C1011 C1012 1.399 . S
C1011 C1016 1.399 . S
C1012 C1011 1.399 . S
C1012 C1013 1.376 1_556 S
C1013 H1000 0.930 . S
C1013 C1012 1.376 1_554 S
C1013 C1014 1.388 . S
C1014 H1001 0.930 . S
C1014 C1013 1.388 . S
C1014 C1015 1.390 1_554 S
C1015 C1014 1.390 1_556 S
C1015 C1016 1.394 . S
C1015 C1021 1.465 . S
C1016 C1011 1.399 . S
C1016 C1015 1.394 . S
C1016 C1017 1.516 . S
C1017 C1016 1.516 . S
C1017 C1018 1.502 . S
C1017 C1019 1.561 . S
C1017 C1020 1.526 . S
C1018 H1002 0.959 . S
C1018 H1003 0.959 . S
C1018 H1004 0.961 . S
C1018 C1017 1.502 . S
C1019 H1005 0.960 . S
C1019 H1006 0.961 . S
C1019 H1007 0.959 . S
C1019 C1017 1.561 . S
C1020 C1017 1.526 . S
C1020 C1021 1.396 . S
C1020 C1025 1.390 . S
C1021 C1015 1.465 . S
C1021 C1020 1.396 . S
C1021 C1022 1.399 . S
C1022 H1008 0.929 1_556 S
C1022 C1021 1.399 . S
C1022 C1023 1.385 1_565 S
C1023 H1009 0.931 . S
C1023 C1022 1.385 1_545 S
C1023 C1024 1.389 . S
C1024 C1023 1.389 . S
C1024 C1025 1.387 1_545 S
C1025 H1010 0.930 1_565 S
C1025 C1020 1.390 . S
C1025 C1024 1.387 1_565 S
H1026 C1038 0.930 . S
H1027 C1040 0.930 . S
H1028 C1041 0.930 . S
H1029 C1045 0.959 . S
H1030 C1045 0.959 . S
H1031 C1045 0.961 1_554 S
H1032 C1046 0.960 . S
H1033 C1046 0.961 . S
H1034 C1046 0.959 . S
H1035 C1049 0.929 . S
H1036 C1050 0.931 . S
H1037 C1052 0.930 . S
C1038 H1026 0.930 . S
C1038 C1039 1.399 1_554 S
C1038 C1043 1.399 1_554 S
C1039 C1038 1.399 1_556 S
C1039 C1040 1.376 . S
C1040 H1027 0.930 . S
C1040 C1039 1.376 . S
C1040 C1041 1.388 . S
C1041 H1028 0.930 . S
C1041 C1040 1.388 . S
C1041 C1042 1.390 . S
C1042 C1041 1.390 . S
C1042 C1043 1.394 . S
C1042 C1048 1.465 . S
C1043 C1038 1.399 1_556 S
C1043 C1042 1.394 . S
C1043 C1044 1.516 . S
C1044 C1043 1.516 . S
C1044 C1045 1.502 . S
C1044 C1046 1.561 1_556 S
C1044 C1047 1.526 . S
C1045 H1029 0.959 . S
C1045 H1030 0.959 . S
C1045 H1031 0.961 1_556 S
C1045 C1044 1.502 . S
C1046 H1032 0.960 . S
C1046 H1033 0.961 . S
C1046 H1034 0.959 . S
C1046 C1044 1.561 1_554 S
C1047 C1044 1.526 . S
C1047 C1048 1.396 . S
C1047 C1052 1.390 . S
C1048 C1042 1.465 . S
C1048 C1047 1.396 . S
C1048 C1049 1.399 . S
C1049 H1035 0.929 . S
C1049 C1048 1.399 . S
C1049 C1050 1.385 . S
C1050 H1036 0.931 . S
C1050 C1049 1.385 . S
C1050 C1051 1.389 . S
C1051 C1050 1.389 . S
C1051 C1052 1.387 . S
C1052 H1037 0.930 . S
C1052 C1047 1.390 . S
C1052 C1051 1.387 . S
H1053 C1065 0.930 . S
H1054 C1067 0.930 . S
H1055 C1068 0.930 . S
H1056 C1072 0.959 . S
H1057 C1072 0.959 . S
H1058 C1072 0.961 . S
H1059 C1073 0.960 . S
H1060 C1073 0.961 . S
H1061 C1073 0.959 . S
H1062 C1076 0.929 . S
H1063 C1077 0.931 . S
H1064 C1079 0.930 . S
C1065 H1053 0.930 . S
C1065 C1066 1.399 . S
C1065 C1070 1.399 . S
C1066 C1065 1.399 . S
C1066 C1067 1.376 1_556 S
C1067 H1054 0.930 . S
C1067 C1066 1.376 1_554 S
C1067 C1068 1.388 . S
C1068 H1055 0.930 . S
C1068 C1067 1.388 . S
C1068 C1069 1.390 1_554 S
C1069 C1068 1.390 1_556 S
C1069 C1070 1.394 . S
C1069 C1075 1.465 . S
C1070 C1065 1.399 . S
C1070 C1069 1.394 . S
C1070 C1071 1.516 . S
C1071 C1070 1.516 . S
C1071 C1072 1.502 . S
C1071 C1073 1.561 . S
C1071 C1074 1.526 . S
C1072 H1056 0.959 . S
C1072 H1057 0.959 . S
C1072 H1058 0.961 . S
C1072 C1071 1.502 . S
C1073 H1059 0.960 . S
C1073 H1060 0.961 . S
C1073 H1061 0.959 . S
C1073 C1071 1.561 . S
C1074 C1071 1.526 . S
C1074 C1075 1.396 . S
C1074 C1079 1.390 . S
C1075 C1069 1.465 . S
C1075 C1074 1.396 . S
C1075 C1076 1.399 . S
C1076 H1062 0.929 . S
C1076 C1075 1.399 . S
C1076 C1077 1.385 . S
C1077 H1063 0.931 . S
C1077 C1076 1.385 . S
C1077 C1078 1.389 . S
C1078 C1077 1.389 . S
C1078 C1079 1.387 . S
C1079 H1064 0.930 . S
C1079 C1074 1.390 . S
C1079 C1078 1.387 . S
H1080 C1092 0.930 . S
H1081 C1094 0.930 . S
H1082 C1095 0.930 . S
H1083 C1099 0.959 . S
H1084 C1099 0.959 . S
H1085 C1099 0.961 . S
H1086 C1100 0.960 . S
H1087 C1100 0.961 . S
H1088 C1100 0.959 . S
H1089 C1103 0.929 . S
H1090 C1104 0.931 . S
H1091 C1106 0.930 . S
C1092 H1080 0.930 . S
C1092 C1093 1.399 . S
C1092 C1097 1.399 . S
C1093 C1092 1.399 . S
C1093 C1094 1.376 . S
C1094 H1081 0.930 . S
C1094 C1093 1.376 . S
C1094 C1095 1.388 . S
C1095 H1082 0.930 . S
C1095 C1094 1.388 . S
C1095 C1096 1.390 . S
C1096 C1095 1.390 . S
C1096 C1097 1.394 . S
C1096 C1102 1.465 . S
C1097 C1092 1.399 . S
C1097 C1096 1.394 . S
C1097 C1098 1.516 . S
C1098 C1097 1.516 . S
C1098 C1099 1.502 . S
C1098 C1100 1.561 . S
C1098 C1101 1.526 . S
C1099 H1083 0.959 . S
C1099 H1084 0.959 . S
C1099 H1085 0.961 . S
C1099 C1098 1.502 . S
C1100 H1086 0.960 . S
C1100 H1087 0.961 . S
C1100 H1088 0.959 . S
C1100 C1098 1.561 . S
C1101 C1098 1.526 . S
C1101 C1102 1.396 . S
C1101 C1106 1.390 . S
C1102 C1096 1.465 . S
C1102 C1101 1.396 . S
C1102 C1103 1.399 . S
C1103 H1089 0.929 . S
C1103 C1102 1.399 . S
C1103 C1104 1.385 . S
C1104 H1090 0.931 . S
C1104 C1103 1.385 . S
C1104 C1105 1.389 . S
C1105 C1104 1.389 . S
C1105 C1106 1.387 . S
C1106 H1091 0.930 . S
C1106 C1101 1.390 . S
C1106 C1105 1.387 . S
H1107 C1119 0.930 . S
H1108 C1121 0.930 . S
H1109 C1122 0.930 . S
H1110 C1126 0.959 . S
H1111 C1126 0.959 . S
H1112 C1126 0.961 . S
H1113 C1127 0.960 . S
H1114 C1127 0.961 . S
H1115 C1127 0.959 . S
H1116 C1130 0.929 . S
H1117 C1131 0.931 . S
H1118 C1133 0.930 . S
C1119 H1107 0.930 . S
C1119 C1120 1.399 . S
C1119 C1124 1.399 . S
C1120 C1119 1.399 . S
C1120 C1121 1.376 . S
C1121 H1108 0.930 . S
C1121 C1120 1.376 . S
C1121 C1122 1.388 . S
C1122 H1109 0.930 . S
C1122 C1121 1.388 . S
C1122 C1123 1.390 . S
C1123 C1122 1.390 . S
C1123 C1124 1.394 . S
C1123 C1129 1.465 . S
C1124 C1119 1.399 . S
C1124 C1123 1.394 . S
C1124 C1125 1.516 . S
C1125 C1124 1.516 . S
C1125 C1126 1.502 . S
C1125 C1127 1.561 . S
C1125 C1128 1.526 . S
C1126 H1110 0.959 . S
C1126 H1111 0.959 . S
C1126 H1112 0.961 . S
C1126 C1125 1.502 . S
C1127 H1113 0.960 . S
C1127 H1114 0.961 . S
C1127 H1115 0.959 . S
C1127 C1125 1.561 . S
C1128 C1125 1.526 . S
C1128 C1129 1.396 . S
C1128 C1133 1.390 . S
C1129 C1123 1.465 . S
C1129 C1128 1.396 . S
C1129 C1130 1.399 . S
C1130 H1116 0.929 . S
C1130 C1129 1.399 . S
C1130 C1131 1.385 . S
C1131 H1117 0.931 . S
C1131 C1130 1.385 . S
C1131 C1132 1.389 . S
C1132 C1131 1.389 . S
C1132 C1133 1.387 . S
C1133 H1118 0.930 . S
C1133 C1128 1.390 . S
C1133 C1132 1.387 . S
H1134 C1146 0.930 . S
H1135 C1148 0.930 . S
H1136 C1149 0.930 . S
H1137 C1153 0.959 . S
H1138 C1153 0.959 . S
H1139 C1153 0.961 . S
H1140 C1154 0.960 . S
H1141 C1154 0.961 . S
H1142 C1154 0.959 . S
H1143 C1157 0.929 . S
H1144 C1158 0.931 . S
H1145 C1160 0.930 . S
C1146 H1134 0.930 . S
C1146 C1147 1.399 . S
C1146 C1151 1.399 . S
C1147 C1146 1.399 . S
C1147 C1148 1.376 . S
C1148 H1135 0.930 . S
C1148 C1147 1.376 . S
C1148 C1149 1.388 . S
C1149 H1136 0.930 . S
C1149 C1148 1.388 . S
C1149 C1150 1.390 . S
C1150 C1149 1.390 . S
C1150 C1151 1.394 . S
C1150 C1156 1.465 . S
C1151 C1146 1.399 . S
C1151 C1150 1.394 . S
C1151 C1152 1.516 . S
C1152 C1151 1.516 . S
C1152 C1153 1.502 . S
C1152 C1154 1.561 . S
C1152 C1155 1.526 . S
C1153 H1137 0.959 . S
C1153 H1138 0.959 . S
C1153 H1139 0.961 . S
C1153 C1152 1.502 . S
C1154 H1140 0.960 . S
C1154 H1141 0.961 . S
C1154 H1142 0.959 . S
C1154 C1152 1.561 . S
C1155 C1152 1.526 . S
C1155 C1156 1.396 . S
C1155 C1160 1.390 . S
C1156 C1150 1.465 . S
C1156 C1155 1.396 . S
C1156 C1157 1.399 . S
C1157 H1143 0.929 . S
C1157 C1156 1.399 . S
C1157 C1158 1.385 . S
C1158 H1144 0.931 . S
C1158 C1157 1.385 . S
C1158 C1159 1.389 . S
C1159 C1158 1.389 . S
C1159 C1160 1.387 . S
C1160 H1145 0.930 . S
C1160 C1155 1.390 . S
C1160 C1159 1.387 . S
H1161 C1173 0.930 . S
H1162 C1175 0.930 . S
H1163 C1176 0.930 . S
H1164 C1180 0.959 . S
H1165 C1180 0.959 . S
H1166 C1180 0.961 . S
H1167 C1181 0.960 . S
H1168 C1181 0.961 . S
H1169 C1181 0.959 . S
H1170 C1184 0.929 . S
H1171 C1185 0.931 . S
H1172 C1187 0.930 . S
C1173 H1161 0.930 . S
C1173 C1174 1.399 . S
C1173 C1178 1.399 . S
C1174 C1173 1.399 . S
C1174 C1175 1.376 . S
C1175 H1162 0.930 . S
C1175 C1174 1.376 . S
C1175 C1176 1.388 . S
C1176 H1163 0.930 . S
C1176 C1175 1.388 . S
C1176 C1177 1.390 . S
C1177 C1176 1.390 . S
C1177 C1178 1.394 . S
C1177 C1183 1.465 . S
C1178 C1173 1.399 . S
C1178 C1177 1.394 . S
C1178 C1179 1.516 . S
C1179 C1178 1.516 . S
C1179 C1180 1.502 . S
C1179 C1181 1.561 . S
C1179 C1182 1.526 . S
C1180 H1164 0.959 . S
C1180 H1165 0.959 . S
C1180 H1166 0.961 . S
C1180 C1179 1.502 . S
C1181 H1167 0.960 . S
C1181 H1168 0.961 . S
C1181 H1169 0.959 . S
C1181 C1179 1.561 . S
C1182 C1179 1.526 . S
C1182 C1183 1.396 . S
C1182 C1187 1.390 . S
C1183 C1177 1.465 . S
C1183 C1182 1.396 . S
C1183 C1184 1.399 . S
C1184 H1170 0.929 . S
C1184 C1183 1.399 . S
C1184 C1185 1.385 . S
C1185 H1171 0.931 . S
C1185 C1184 1.385 . S
C1185 C1186 1.389 . S
C1186 C1185 1.389 . S
C1186 C1187 1.387 . S
C1187 H1172 0.930 . S
C1187 C1182 1.390 . S
C1187 C1186 1.387 . S
H1188 C1200 0.930 . S
H1189 C1202 0.930 . S
H1190 C1203 0.930 . S
H1191 C1207 0.959 . S
H1192 C1207 0.959 . S
H1193 C1207 0.961 . S
H1194 C1208 0.960 . S
H1195 C1208 0.961 . S
H1196 C1208 0.959 . S
H1197 C1211 0.929 . S
H1198 C1212 0.931 . S
H1199 C1214 0.930 . S
C1200 H1188 0.930 . S
C1200 C1201 1.399 . S
C1200 C1205 1.399 . S
C1201 C1200 1.399 . S
C1201 C1202 1.376 . S
C1202 H1189 0.930 . S
C1202 C1201 1.376 . S
C1202 C1203 1.388 . S
C1203 H1190 0.930 . S
C1203 C1202 1.388 . S
C1203 C1204 1.390 . S
C1204 C1203 1.390 . S
C1204 C1205 1.394 . S
C1204 C1210 1.465 . S
C1205 C1200 1.399 . S
C1205 C1204 1.394 . S
C1205 C1206 1.516 . S
C1206 C1205 1.516 . S
C1206 C1207 1.502 . S
C1206 C1208 1.561 . S
C1206 C1209 1.526 . S
C1207 H1191 0.959 . S
C1207 H1192 0.959 . S
C1207 H1193 0.961 . S
C1207 C1206 1.502 . S
C1208 H1194 0.960 . S
C1208 H1195 0.961 . S
C1208 H1196 0.959 . S
C1208 C1206 1.561 . S
C1209 C1206 1.526 . S
C1209 C1210 1.396 . S
C1209 C1214 1.390 . S
C1210 C1204 1.465 . S
C1210 C1209 1.396 . S
C1210 C1211 1.399 . S
C1211 H1197 0.929 . S
C1211 C1210 1.399 . S
C1211 C1212 1.385 . S
C1212 H1198 0.931 . S
C1212 C1211 1.385 . S
C1212 C1213 1.389 . S
C1213 C1212 1.389 . S
C1213 C1214 1.387 . S
C1214 H1199 0.930 . S
C1214 C1209 1.390 . S
C1214 C1213 1.387 . S
H1215 C1227 0.930 . S
H1216 C1229 0.930 . S
H1217 C1230 0.930 . S
H1218 C1234 0.982 . S
H1219 C1234 0.977 . S
H1220 C1234 0.965 . S
H1221 C1235 0.960 . S
H1222 C1235 0.961 . S
H1223 C1235 0.959 . S
H1224 C1238 0.929 . S
H1225 C1239 0.931 . S
H1226 C1241 0.930 . S
C1227 H1215 0.930 . S
C1227 C1228 1.399 . S
C1227 C1232 1.399 . S
C1228 C1227 1.399 . S
C1228 C1229 1.376 . S
C1229 H1216 0.930 . S
C1229 C1228 1.376 . S
C1229 C1230 1.388 . S
C1230 H1217 0.930 . S
C1230 C1229 1.388 . S
C1230 C1231 1.390 . S
C1231 C1230 1.390 . S
C1231 C1232 1.394 . S
C1231 C1237 1.465 . S
C1232 C1227 1.399 . S
C1232 C1231 1.394 . S
C1232 C1233 1.516 . S
C1233 C1232 1.516 . S
C1233 C1234 1.461 1_565 S
C1233 C1235 1.561 . S
C1233 C1236 1.526 . S
C1234 H1218 0.982 . S
C1234 H1219 0.977 . S
C1234 H1220 0.965 . S
C1234 C1233 1.461 1_545 S
C1235 H1221 0.960 . S
C1235 H1222 0.961 . S
C1235 H1223 0.959 . S
C1235 C1233 1.561 . S
C1236 C1233 1.526 . S
C1236 C1237 1.396 . S
C1236 C1241 1.390 . S
C1237 C1231 1.465 . S
C1237 C1236 1.396 . S
C1237 C1238 1.399 . S
C1238 H1224 0.929 . S
C1238 C1237 1.399 . S
C1238 C1239 1.385 . S
C1239 H1225 0.931 . S
C1239 C1238 1.385 . S
C1239 C1240 1.389 . S
C1240 C1239 1.389 . S
C1240 C1241 1.387 . S
C1241 H1226 0.930 . S
C1241 C1236 1.390 . S
C1241 C1240 1.387 . S
H1242 C1254 0.930 . S
H1243 C1256 0.930 . S
H1244 C1257 0.930 . S
H1245 C1261 0.959 . S
H1246 C1261 0.959 . S
H1247 C1261 0.961 . S
H1248 C1262 0.960 . S
H1249 C1262 0.961 . S
H1250 C1262 0.959 . S
H1251 C1265 0.929 . S
H1252 C1266 0.931 . S
H1253 C1268 0.930 . S
C1254 H1242 0.930 . S
C1254 C1255 1.399 . S
C1254 C1259 1.399 . S
C1255 C1254 1.399 . S
C1255 C1256 1.376 . S
C1256 H1243 0.930 . S
C1256 C1255 1.376 . S
C1256 C1257 1.388 . S
C1257 H1244 0.930 . S
C1257 C1256 1.388 . S
C1257 C1258 1.390 . S
C1258 C1257 1.390 . S
C1258 C1259 1.394 . S
C1258 C1264 1.465 . S
C1259 C1254 1.399 . S
C1259 C1258 1.394 . S
C1259 C1260 1.516 . S
C1260 C1259 1.516 . S
C1260 C1261 1.502 . S
C1260 C1262 1.561 . S
C1260 C1263 1.526 . S
C1261 H1245 0.959 . S
C1261 H1246 0.959 . S
C1261 H1247 0.961 . S
C1261 C1260 1.502 . S
C1262 H1248 0.960 . S
C1262 H1249 0.961 . S
C1262 H1250 0.959 . S
C1262 C1260 1.561 . S
C1263 C1260 1.526 . S
C1263 C1264 1.396 . S
C1263 C1268 1.390 . S
C1264 C1258 1.465 . S
C1264 C1263 1.396 . S
C1264 C1265 1.399 . S
C1265 H1251 0.929 . S
C1265 C1264 1.399 . S
C1265 C1266 1.385 . S
C1266 H1252 0.931 . S
C1266 C1265 1.385 . S
C1266 C1267 1.389 . S
C1267 C1266 1.389 . S
C1267 C1268 1.387 . S
C1268 H1253 0.930 . S
C1268 C1263 1.390 . S
C1268 C1267 1.387 . S
H1269 C1281 0.930 . S
H1270 C1283 0.930 . S
H1271 C1284 0.930 . S
H1272 C1288 0.959 . S
H1273 C1288 0.959 . S
H1274 C1288 0.961 . S
H1275 C1289 0.960 . S
H1276 C1289 0.961 . S
H1277 C1289 0.959 . S
H1278 C1292 0.929 . S
H1279 C1293 0.931 . S
H1280 C1295 0.930 . S
C1281 H1269 0.930 . S
C1281 C1282 1.399 . S
C1281 C1286 1.399 . S
C1282 C1281 1.399 . S
C1282 C1283 1.376 . S
C1283 H1270 0.930 . S
C1283 C1282 1.376 . S
C1283 C1284 1.388 . S
C1284 H1271 0.930 . S
C1284 C1283 1.388 . S
C1284 C1285 1.390 . S
C1285 C1284 1.390 . S
C1285 C1286 1.394 . S
C1285 C1291 1.465 . S
C1286 C1281 1.399 . S
C1286 C1285 1.394 . S
C1286 C1287 1.516 . S
C1287 C1286 1.516 . S
C1287 C1288 1.502 . S
C1287 C1289 1.561 . S
C1287 C1290 1.526 . S
C1288 H1272 0.959 . S
C1288 H1273 0.959 . S
C1288 H1274 0.961 . S
C1288 C1287 1.502 . S
C1289 H1275 0.960 . S
C1289 H1276 0.961 . S
C1289 H1277 0.959 . S
C1289 C1287 1.561 . S
C1290 C1287 1.526 . S
C1290 C1291 1.396 . S
C1290 C1295 1.390 . S
C1291 C1285 1.465 . S
C1291 C1290 1.396 . S
C1291 C1292 1.399 . S
C1292 H1278 0.929 . S
C1292 C1291 1.399 . S
C1292 C1293 1.385 . S
C1293 H1279 0.931 . S
C1293 C1292 1.385 . S
C1293 C1294 1.389 . S
C1294 C1293 1.389 . S
C1294 C1295 1.387 . S
C1295 H1280 0.930 . S
C1295 C1290 1.390 . S
C1295 C1294 1.387 . S
C661 C255 2.303 . S
C673 C387 2.325 . S
C700 C471 2.405 . S
C688 C294 2.239 . S
C727 C547 2.255 . S
C715 C177 2.397 . S
C754 C631 2.297 . S
C742 C216 2.347 . S
C781 C378 2.344 1_565 S
C769 C99 2.312 . S
C796 C138 2.242 . S
C808 C462 2.405 . S
C823 C21 2.362 . S
C835 C536 2.307 . S
C850 C60 2.414 . S
C862 C620 2.221 . S
C889 C375 0.605 1_455 S
C877 C196 0.564 . S
C916 C459 0.555 . S
C904 C235 0.517 . S
C943 C552 0.543 . S
C931 C289 0.513 . S
C958 C157 0.575 . S
C970 C636 0.615 . S
C985 C40 0.603 1_556 S
C997 C384 0.619 . S
C1024 C468 0.593 . S
C1012 C79 0.618 1_556 S
C1051 C543 0.641 . S
C1039 C133 0.577 1_556 S
C1066 C1 0.543 1_556 S
C1078 C627 0.575 . S
C1093 C211 2.729 . S
C1105 C368 2.935 . S
C1120 C250 2.750 . S
C1132 C452 2.848 . S
C1159 C546 2.942 . S
C1147 C274 2.644 . S
C1186 C630 2.975 . S
C1174 C172 2.672 . S
C1201 C55 2.725 . S
C1213 C379 2.915 . S
C1240 C463 2.862 . S
C1228 C94 2.734 . S
C1267 C555 2.958 . S
C1255 C118 2.630 . S
C1282 C16 2.594 . S
C1294 C639 2.973 . S
