# Generated by pormake.
# Topology eea, (3,6)-cn, num edge types: 1
# Building blocks:
#     Node 0, Type 0, BuildingBlock: MIDCAF_clean_linker_0, # of connection points: 3
#     Node 1, Type 0, BuildingBlock: MIDCAF_clean_linker_0, # of connection points: 3
#     Node 2, Type 0, BuildingBlock: MIDCAF_clean_linker_0, # of connection points: 3
#     Node 3, Type 0, BuildingBlock: MIDCAF_clean_linker_0, # of connection points: 3
#     Node 4, Type 0, BuildingBlock: MIDCAF_clean_linker_0, # of connection points: 3
#     Node 5, Type 0, BuildingBlock: MIDCAF_clean_linker_0, # of connection points: 3
#     Node 6, Type 0, BuildingBlock: MIDCAF_clean_linker_0, # of connection points: 3
#     Node 7, Type 0, BuildingBlock: MIDCAF_clean_linker_0, # of connection points: 3
#     Node 8, Type 0, BuildingBlock: MIDCAF_clean_linker_0, # of connection points: 3
#     Node 9, Type 0, BuildingBlock: MIDCAF_clean_linker_0, # of connection points: 3
#     Node 10, Type 0, BuildingBlock: MIDCAF_clean_linker_0, # of connection points: 3
#     Node 11, Type 0, BuildingBlock: MIDCAF_clean_linker_0, # of connection points: 3
#     Node 12, Type 0, BuildingBlock: MIDCAF_clean_linker_0, # of connection points: 3
#     Node 13, Type 0, BuildingBlock: MIDCAF_clean_linker_0, # of connection points: 3
#     Node 14, Type 0, BuildingBlock: MIDCAF_clean_linker_0, # of connection points: 3
#     Node 15, Type 0, BuildingBlock: MIDCAF_clean_linker_0, # of connection points: 3
#     Node 16, Type 0, BuildingBlock: MIDCAF_clean_linker_0, # of connection points: 3
#     Node 17, Type 0, BuildingBlock: MIDCAF_clean_linker_0, # of connection points: 3
#     Node 18, Type 1, BuildingBlock: KUMBUR_clean_sbu_0, # of connection points: 6
#     Node 19, Type 1, BuildingBlock: KUMBUR_clean_sbu_0, # of connection points: 6
#     Node 20, Type 1, BuildingBlock: KUMBUR_clean_sbu_0, # of connection points: 6
#     Node 21, Type 1, BuildingBlock: KUMBUR_clean_sbu_0, # of connection points: 6
#     Node 22, Type 1, BuildingBlock: KUMBUR_clean_sbu_0, # of connection points: 6
#     Node 23, Type 1, BuildingBlock: KUMBUR_clean_sbu_0, # of connection points: 6
#     Node 24, Type 1, BuildingBlock: KUMBUR_clean_sbu_0, # of connection points: 6
#     Node 25, Type 1, BuildingBlock: KUMBUR_clean_sbu_0, # of connection points: 6
#     Node 26, Type 1, BuildingBlock: KUMBUR_clean_sbu_0, # of connection points: 6
#     Edge 27, Type (0, 1), BuildingBlock: AJUNOK_clean_linker_0, # of connection points: 2
#     Edge 28, Type (0, 1), BuildingBlock: AJUNOK_clean_linker_0, # of connection points: 2
#     Edge 29, Type (0, 1), BuildingBlock: AJUNOK_clean_linker_0, # of connection points: 2
#     Edge 30, Type (0, 1), BuildingBlock: AJUNOK_clean_linker_0, # of connection points: 2
#     Edge 31, Type (0, 1), BuildingBlock: AJUNOK_clean_linker_0, # of connection points: 2
#     Edge 32, Type (0, 1), BuildingBlock: AJUNOK_clean_linker_0, # of connection points: 2
#     Edge 33, Type (0, 1), BuildingBlock: AJUNOK_clean_linker_0, # of connection points: 2
#     Edge 34, Type (0, 1), BuildingBlock: AJUNOK_clean_linker_0, # of connection points: 2
#     Edge 35, Type (0, 1), BuildingBlock: AJUNOK_clean_linker_0, # of connection points: 2
#     Edge 36, Type (0, 1), BuildingBlock: AJUNOK_clean_linker_0, # of connection points: 2
#     Edge 37, Type (0, 1), BuildingBlock: AJUNOK_clean_linker_0, # of connection points: 2
#     Edge 38, Type (0, 1), BuildingBlock: AJUNOK_clean_linker_0, # of connection points: 2
#     Edge 39, Type (0, 1), BuildingBlock: AJUNOK_clean_linker_0, # of connection points: 2
#     Edge 40, Type (0, 1), BuildingBlock: AJUNOK_clean_linker_0, # of connection points: 2
#     Edge 41, Type (0, 1), BuildingBlock: AJUNOK_clean_linker_0, # of connection points: 2
#     Edge 42, Type (0, 1), BuildingBlock: AJUNOK_clean_linker_0, # of connection points: 2
#     Edge 43, Type (0, 1), BuildingBlock: AJUNOK_clean_linker_0, # of connection points: 2
#     Edge 44, Type (0, 1), BuildingBlock: AJUNOK_clean_linker_0, # of connection points: 2
#     Edge 45, Type (0, 1), BuildingBlock: AJUNOK_clean_linker_0, # of connection points: 2
#     Edge 46, Type (0, 1), BuildingBlock: AJUNOK_clean_linker_0, # of connection points: 2
#     Edge 47, Type (0, 1), BuildingBlock: AJUNOK_clean_linker_0, # of connection points: 2
#     Edge 48, Type (0, 1), BuildingBlock: AJUNOK_clean_linker_0, # of connection points: 2
#     Edge 49, Type (0, 1), BuildingBlock: AJUNOK_clean_linker_0, # of connection points: 2
#     Edge 50, Type (0, 1), BuildingBlock: AJUNOK_clean_linker_0, # of connection points: 2
#     Edge 51, Type (0, 1), BuildingBlock: AJUNOK_clean_linker_0, # of connection points: 2
#     Edge 52, Type (0, 1), BuildingBlock: AJUNOK_clean_linker_0, # of connection points: 2
#     Edge 53, Type (0, 1), BuildingBlock: AJUNOK_clean_linker_0, # of connection points: 2
#     Edge 54, Type (0, 1), BuildingBlock: AJUNOK_clean_linker_0, # of connection points: 2
#     Edge 55, Type (0, 1), BuildingBlock: AJUNOK_clean_linker_0, # of connection points: 2
#     Edge 56, Type (0, 1), BuildingBlock: AJUNOK_clean_linker_0, # of connection points: 2
#     Edge 57, Type (0, 1), BuildingBlock: AJUNOK_clean_linker_0, # of connection points: 2
#     Edge 58, Type (0, 1), BuildingBlock: AJUNOK_clean_linker_0, # of connection points: 2
#     Edge 59, Type (0, 1), BuildingBlock: AJUNOK_clean_linker_0, # of connection points: 2
#     Edge 60, Type (0, 1), BuildingBlock: AJUNOK_clean_linker_0, # of connection points: 2
#     Edge 61, Type (0, 1), BuildingBlock: AJUNOK_clean_linker_0, # of connection points: 2
#     Edge 62, Type (0, 1), BuildingBlock: AJUNOK_clean_linker_0, # of connection points: 2
#     Edge 63, Type (0, 1), BuildingBlock: AJUNOK_clean_linker_0, # of connection points: 2
#     Edge 64, Type (0, 1), BuildingBlock: AJUNOK_clean_linker_0, # of connection points: 2
#     Edge 65, Type (0, 1), BuildingBlock: AJUNOK_clean_linker_0, # of connection points: 2
#     Edge 66, Type (0, 1), BuildingBlock: AJUNOK_clean_linker_0, # of connection points: 2
#     Edge 67, Type (0, 1), BuildingBlock: AJUNOK_clean_linker_0, # of connection points: 2
#     Edge 68, Type (0, 1), BuildingBlock: AJUNOK_clean_linker_0, # of connection points: 2
#     Edge 69, Type (0, 1), BuildingBlock: AJUNOK_clean_linker_0, # of connection points: 2
#     Edge 70, Type (0, 1), BuildingBlock: AJUNOK_clean_linker_0, # of connection points: 2
#     Edge 71, Type (0, 1), BuildingBlock: AJUNOK_clean_linker_0, # of connection points: 2
#     Edge 72, Type (0, 1), BuildingBlock: AJUNOK_clean_linker_0, # of connection points: 2
#     Edge 73, Type (0, 1), BuildingBlock: AJUNOK_clean_linker_0, # of connection points: 2
#     Edge 74, Type (0, 1), BuildingBlock: AJUNOK_clean_linker_0, # of connection points: 2
#     Edge 75, Type (0, 1), BuildingBlock: AJUNOK_clean_linker_0, # of connection points: 2
#     Edge 76, Type (0, 1), BuildingBlock: AJUNOK_clean_linker_0, # of connection points: 2
#     Edge 77, Type (0, 1), BuildingBlock: AJUNOK_clean_linker_0, # of connection points: 2
#     Edge 78, Type (0, 1), BuildingBlock: AJUNOK_clean_linker_0, # of connection points: 2
#     Edge 79, Type (0, 1), BuildingBlock: AJUNOK_clean_linker_0, # of connection points: 2
#     Edge 80, Type (0, 1), BuildingBlock: AJUNOK_clean_linker_0, # of connection points: 2
# Relax obj value: 0.008
# Max RMSD: 0.089
# Mean RMSD: 0.072
data_MOF--net-eea--node1-KUMBUR_clean_sbu_0--node2-MIDCAF_clean_linker_0--edge1-AJUNOK_clean_linker_0
_symmetry_space_group_name_H-M    P1
_symmetry_Int_Tables_number       1
_symmetry_cell_setting            triclinic
loop_
_symmetry_equiv_pos_as_xyz
'x, y, z'
_cell_length_a     48.107941
_cell_length_b     49.462883
_cell_length_c     71.581678
_cell_angle_alpha  89.952652
_cell_angle_beta   89.958907
_cell_angle_gamma 119.95815
loop_
_atom_site_label
_atom_site_type_symbol
_atom_site_fract_x
_atom_site_fract_y
_atom_site_fract_z
_atom_type_partial_charge
C0 C 0.23792 0.0192 0.41024 0.0
C1 C 0.21971 0.01012 0.39375 0.0
C2 C 0.20977 0.02993 0.38594 0.0
C3 C 0.21749 0.05811 0.3946 0.0
H4 H 0.21055 0.13558 0.38775 0.0
H5 H 0.1953 0.1705 0.37284 0.0
H6 H 0.2412 0.23745 0.41715 0.0
H7 H 0.25605 0.20238 0.43241 0.0
H8 H 0.29339 0.18739 0.46464 0.0
H9 H 0.32063 0.19952 0.4948 0.0
H10 H 0.3001 0.10428 0.49974 0.0
H11 H 0.27375 0.09225 0.46944 0.0
H12 H 0.25959 0.05353 0.43167 0.0
H13 H 0.24652 0.00468 0.41633 0.0
H14 H 0.19565 0.02342 0.37324 0.0
H15 H 0.20921 0.07271 0.38827 0.0
N16 N 0.23588 0.11707 0.41228 0.0
N17 N 0.25796 0.15151 0.43753 0.0
N18 N 0.25803 0.10413 0.43746 0.0
C19 C 0.24309 0.14444 0.42063 0.0
C20 C 0.26544 0.13139 0.44606 0.0
C21 C 0.24332 0.09682 0.42056 0.0
C22 C 0.23441 0.16604 0.41139 0.0
C23 C 0.21742 0.1577 0.3944 0.0
C24 C 0.20872 0.17771 0.38578 0.0
C25 C 0.21673 0.20646 0.39395 0.0
C26 C 0.2341 0.21508 0.41076 0.0
C27 C 0.24278 0.19505 0.41943 0.0
C28 C 0.28138 0.13884 0.46457 0.0
C29 C 0.29456 0.16898 0.47218 0.0
C30 C 0.30998 0.17591 0.48953 0.0
C31 C 0.31221 0.15276 0.49972 0.0
C32 C 0.29892 0.12265 0.49215 0.0
C33 C 0.28375 0.11577 0.47478 0.0
C34 C 0.23535 0.06707 0.41127 0.0
C35 C 0.24556 0.0473 0.41896 0.0
C36 C 0.99708 0.21737 0.40647 0.0
C37 C 1.00606 0.21037 0.38927 0.0
C38 C 0.98874 0.17978 0.38238 0.0
C39 C 0.96226 0.15682 0.3923 0.0
H40 H 0.87683 0.07213 0.38475 0.0
H41 H 0.83708 0.02361 0.36987 0.0
H42 H 0.78656 0.99171 0.42229 0.0
H43 H 0.82561 0.04019 0.43712 0.0
H44 H 0.84383 0.08499 0.47066 0.0
H45 H 0.82992 0.09667 0.50113 0.0
H46 H 0.90767 0.19171 0.49668 0.0
H47 H 0.92222 0.18001 0.4663 0.0
H48 H 0.96462 0.20091 0.42958 0.0
H49 H 0.0104 0.24068 0.41225 0.0
H50 H 0.99531 0.17381 0.36918 0.0
H51 H 0.94912 0.13353 0.3865 0.0
N52 N 0.9039 0.11208 0.41179 0.0
N53 N 0.87161 0.09689 0.43864 0.0
N54 N 0.91796 0.14611 0.43738 0.0
C55 C 0.87743 0.09037 0.42112 0.0
C56 C 0.89167 0.12463 0.44692 0.0
C57 C 0.92436 0.13999 0.41984 0.0
C58 C 0.85436 0.06031 0.41213 0.0
C59 C 0.85728 0.0548 0.39313 0.0
C60 C 0.83455 0.02699 0.38459 0.0
C61 C 0.8084 0.00411 0.39483 0.0
C62 C 0.80595 0.00925 0.4139 0.0
C63 C 0.82854 0.03702 0.42243 0.0
C64 C 0.88418 0.13156 0.4659 0.0
C65 C 0.85821 0.10837 0.47617 0.0
C66 C 0.85013 0.11504 0.49365 0.0
C67 C 0.86777 0.14504 0.50139 0.0
C68 C 0.89398 0.16818 0.49129 0.0
C69 C 0.90217 0.1615 0.47378 0.0
C70 C 0.9529 0.16394 0.40943 0.0
C71 C 0.9709 0.19447 0.41645 0.0
C72 C 0.79072 0.7773 0.40675 0.0
C73 C 0.79656 0.79278 0.38951 0.0
C74 C 0.82722 0.80532 0.38145 0.0
C75 C 0.85126 0.80163 0.39027 0.0
H76 H 0.94578 0.81377 0.38382 0.0
H77 H 0.99452 0.82188 0.36779 0.0
H78 H 0.00929 0.76935 0.41085 0.0
H79 H 0.9611 0.76128 0.42689 0.0
H80 H 0.92335 0.74776 0.46521 0.0
H81 H 0.9118 0.72516 0.49656 0.0
H82 H 0.82321 0.72723 0.49729 0.0
H83 H 0.83479 0.75023 0.46614 0.0
H84 H 0.80895 0.7616 0.42885 0.0
H85 H 0.76748 0.76782 0.41344 0.0
H86 H 0.83237 0.81745 0.36818 0.0
H87 H 0.8745 0.81121 0.3836 0.0
N88 N 0.89768 0.787 0.40802 0.0
N89 N 0.91372 0.76982 0.43439 0.0
N90 N 0.8649 0.76951 0.43473 0.0
C91 C 0.91961 0.78138 0.41663 0.0
C92 C 0.88652 0.76394 0.4436 0.0
C93 C 0.87014 0.781 0.41699 0.0
C94 C 0.94935 0.78687 0.40672 0.0
C95 C 0.95943 0.80397 0.3899 0.0
C96 C 0.98743 0.80878 0.38074 0.0
C97 C 1.00573 0.79627 0.38808 0.0
C98 C 0.9956 0.77913 0.4048 0.0
C99 C 0.96797 0.77465 0.41404 0.0
C100 C 0.88006 0.75093 0.463 0.0
C101 C 0.9015 0.74367 0.47206 0.0
C102 C 0.89488 0.73063 0.49006 0.0
C103 C 0.86675 0.72468 0.49955 0.0
C104 C 0.84545 0.73215 0.49058 0.0
C105 C 0.85201 0.74512 0.47259 0.0
C106 C 0.84524 0.78576 0.40749 0.0
C107 C 0.81467 0.77391 0.41563 0.0
C108 C 0.01908 0.2263 0.61969 0.0
C109 C 0.00871 0.20913 0.6364 0.0
C110 C 0.02678 0.19636 0.64375 0.0
C111 C 0.05468 0.20084 0.63459 0.0
H112 H 0.13846 0.19133 0.64058 0.0
H113 H 0.17992 0.18363 0.65568 0.0
H114 H 0.24404 0.2304 0.60963 0.0
H115 H 0.20325 0.23805 0.59453 0.0
H116 H 0.17747 0.25056 0.5575 0.0
H117 H 0.18951 0.27394 0.52644 0.0
H118 H 0.10613 0.28498 0.5293 0.0
H119 H 0.09351 0.26093 0.56021 0.0
H120 H 0.05362 0.24384 0.59761 0.0
H121 H 1.00559 0.23628 0.61361 0.0
H122 H 0.01956 0.18325 0.65669 0.0
H123 H 0.06807 0.19078 0.64067 0.0
N124 N 0.1158 0.21613 0.61616 0.0
N125 N 0.14858 0.23346 0.58944 0.0
N126 N 0.1007 0.23493 0.59013 0.0
C127 C 0.14305 0.22147 0.60707 0.0
C128 C 0.1276 0.24018 0.5808 0.0
C129 C 0.09447 0.22287 0.60777 0.0
C130 C 0.16738 0.21551 0.61632 0.0
C131 C 0.16136 0.19991 0.63364 0.0
C132 C 0.18501 0.19537 0.64228 0.0
C133 C 0.2153 0.20672 0.63391 0.0
C134 C 0.22108 0.22177 0.61653 0.0
C135 C 0.19751 0.22603 0.60784 0.0
C136 C 0.13445 0.25375 0.56153 0.0
C137 C 0.16147 0.25772 0.55153 0.0
C138 C 0.16847 0.27122 0.53367 0.0
C139 C 0.14867 0.28113 0.52523 0.0
C140 C 0.12152 0.27698 0.53513 0.0
C141 C 0.11444 0.2634 0.55299 0.0
C142 C 0.06494 0.21791 0.61777 0.0
C143 C 0.04662 0.23048 0.61047 0.0
C144 C 0.78616 0.79356 0.61165 0.0
C145 C 0.79455 0.79767 0.63067 0.0
C146 C 0.7945 0.82219 0.64047 0.0
C147 C 0.7871 0.84273 0.63136 0.0
H148 H 0.80067 0.92958 0.63726 0.0
H149 H 0.81302 0.97776 0.65322 0.0
H150 H 0.77538 0.00463 0.60652 0.0
H151 H 0.7634 0.9567 0.59027 0.0
H152 H 0.74668 0.91681 0.5532 0.0
H153 H 0.71928 0.90544 0.52326 0.0
H154 H 0.6955 0.80922 0.52788 0.0
H155 H 0.72372 0.82063 0.55774 0.0
H156 H 0.77253 0.81047 0.58782 0.0
H157 H 0.78602 0.77481 0.60376 0.0
H158 H 0.80002 0.82542 0.65525 0.0
H159 H 0.78748 0.86147 0.63938 0.0
N160 N 0.7793 0.88866 0.61123 0.0
N161 N 0.75997 0.90344 0.5855 0.0
N162 N 0.75879 0.85542 0.58534 0.0
C163 C 0.77332 0.90976 0.60278 0.0
C164 C 0.75261 0.87635 0.57667 0.0
C165 C 0.77221 0.8615 0.60265 0.0
C166 C 0.78093 0.93913 0.61246 0.0
C167 C 0.79493 0.94565 0.63034 0.0
C168 C 0.80184 0.97316 0.63958 0.0
C169 C 0.7948 0.99468 0.63118 0.0
C170 C 0.78107 0.98839 0.61328 0.0
C171 C 0.77415 0.96088 0.60402 0.0
C172 C 0.73716 0.86956 0.55802 0.0
C173 C 0.73566 0.89319 0.5479 0.0
C174 C 0.71976 0.88666 0.53077 0.0
C175 C 0.70464 0.85629 0.52344 0.0
C176 C 0.70686 0.83282 0.53324 0.0
C177 C 0.72299 0.83938 0.55036 0.0
C178 C 0.77918 0.83901 0.61226 0.0
C179 C 0.77849 0.814 0.60253 0.0
C180 C 0.21259 0.98459 0.61359 0.0
C181 C 0.20738 0.99125 0.63191 0.0
C182 C 0.17976 0.96915 0.64148 0.0
C183 C 0.15795 0.94091 0.63296 0.0
H184 H 0.08173 0.84872 0.64405 0.0
H185 H 0.03343 0.80995 0.66061 0.0
H186 H 0.98731 0.77149 0.60793 0.0
H187 H 0.03557 0.8096 0.59126 0.0
H188 H 0.08731 0.81984 0.55702 0.0
H189 H 0.09987 0.80849 0.52595 0.0
H190 H 0.18942 0.89574 0.52629 0.0
H191 H 0.17681 0.90755 0.55711 0.0
H192 H 0.19579 0.95212 0.59096 0.0
H193 H 0.23371 0.00112 0.60589 0.0
H194 H 0.17477 0.97387 0.65548 0.0
H195 H 0.13691 0.9245 0.64076 0.0
N196 N 0.11323 0.88272 0.61463 0.0
N197 N 0.09747 0.84999 0.58834 0.0
N198 N 0.14532 0.89814 0.5877 0.0
C199 C 0.0918 0.85558 0.60617 0.0
C200 C 0.12429 0.87111 0.57902 0.0
C201 C 0.14 0.90424 0.60546 0.0
C202 C 0.06255 0.83229 0.6163 0.0
C203 C 0.0613 0.83203 0.63597 0.0
C204 C 0.03378 0.80985 0.64548 0.0
C205 C 0.00678 0.78798 0.63549 0.0
C206 C 0.00786 0.78829 0.61589 0.0
C207 C 0.03553 0.81003 0.60639 0.0
C208 C 0.13111 0.86453 0.55975 0.0
C209 C 0.10965 0.8367 0.55049 0.0
C210 C 0.11692 0.83007 0.53271 0.0
C211 C 0.14587 0.85102 0.52377 0.0
C212 C 0.16691 0.87915 0.53279 0.0
C213 C 0.15967 0.88582 0.55053 0.0
C214 C 0.16321 0.93413 0.61463 0.0
C215 C 0.19084 0.95639 0.60507 0.0
C216 C 0.89787 0.3471 0.74547 0.0
C217 C 0.87976 0.33794 0.72895 0.0
C218 C 0.86986 0.35775 0.72104 0.0
C219 C 0.87759 0.38602 0.72964 0.0
H220 H 0.8724 0.46511 0.72245 0.0
H221 H 0.85885 0.50117 0.70732 0.0
H222 H 0.90649 0.56802 0.75145 0.0
H223 H 0.91961 0.53188 0.7669 0.0
H224 H 0.95531 0.51574 0.79956 0.0
H225 H 0.98381 0.52773 0.82937 0.0
H226 H 0.96185 0.43205 0.83407 0.0
H227 H 0.9342 0.42012 0.80422 0.0
H228 H 0.91951 0.38153 0.76683 0.0
H229 H 0.90649 0.33265 0.75162 0.0
H230 H 0.85586 0.35122 0.70831 0.0
H231 H 0.86943 0.40066 0.72323 0.0
N232 N 0.89687 0.44562 0.74711 0.0
N233 N 0.91962 0.48018 0.77229 0.0
N234 N 0.91845 0.43223 0.7724 0.0
C235 C 0.90473 0.47326 0.75538 0.0
C236 C 0.92646 0.45968 0.78092 0.0
C237 C 0.90371 0.42501 0.7555 0.0
C238 C 0.89696 0.49544 0.74601 0.0
C239 C 0.87999 0.48745 0.72901 0.0
C240 C 0.87228 0.50812 0.72027 0.0
C241 C 0.88127 0.5372 0.72832 0.0
C242 C 0.89862 0.54544 0.74514 0.0
C243 C 0.9063 0.52477 0.75392 0.0
C244 C 0.94273 0.46704 0.79934 0.0
C245 C 0.95657 0.49725 0.80693 0.0
C246 C 0.97284 0.50414 0.82402 0.0
C247 C 0.97557 0.48097 0.83386 0.0
C248 C 0.96097 0.45062 0.82654 0.0
C249 C 0.94493 0.44377 0.80945 0.0
C250 C 0.89543 0.39507 0.74632 0.0
C251 C 0.90549 0.37526 0.75411 0.0
C252 C 0.66516 0.55283 0.7387 0.0
C253 C 0.67434 0.54579 0.72157 0.0
C254 C 0.65686 0.51523 0.71463 0.0
C255 C 0.63006 0.4924 0.7244 0.0
H256 H 0.55164 0.40094 0.72024 0.0
H257 H 0.51308 0.35146 0.70571 0.0
H258 H 0.44441 0.33624 0.74913 0.0
H259 H 0.48294 0.38486 0.76394 0.0
H260 H 0.509 0.42126 0.80151 0.0
H261 H 0.49491 0.43235 0.83206 0.0
H262 H 0.57455 0.52662 0.82901 0.0
H263 H 0.58927 0.51547 0.79848 0.0
H264 H 0.63223 0.53656 0.76159 0.0
H265 H 0.67859 0.57609 0.74453 0.0
H266 H 0.66357 0.5092 0.70149 0.0
H267 H 0.6168 0.46916 0.71854 0.0
N268 N 0.57085 0.44811 0.74342 0.0
N269 N 0.53767 0.43336 0.76988 0.0
N270 N 0.5848 0.482 0.76912 0.0
C271 C 0.54379 0.42677 0.75246 0.0
C272 C 0.55798 0.46078 0.77838 0.0
C273 C 0.59149 0.47584 0.75164 0.0
C274 C 0.52059 0.39686 0.74337 0.0
C275 C 0.52838 0.38698 0.72674 0.0
C276 C 0.50627 0.35867 0.71838 0.0
C277 C 0.47587 0.33968 0.72643 0.0
C278 C 0.46794 0.34984 0.74286 0.0
C279 C 0.49005 0.37791 0.75129 0.0
C280 C 0.5503 0.46748 0.79739 0.0
C281 C 0.52374 0.44435 0.80731 0.0
C282 C 0.51557 0.45069 0.82486 0.0
C283 C 0.53367 0.48029 0.83303 0.0
C284 C 0.56046 0.50338 0.82327 0.0
C285 C 0.56875 0.49702 0.80569 0.0
C286 C 0.62049 0.49959 0.74144 0.0
C287 C 0.63866 0.53006 0.74853 0.0
C288 C 0.45735 0.10729 0.73923 0.0
C289 C 0.46406 0.12462 0.72264 0.0
C290 C 0.49498 0.13751 0.71486 0.0
C291 C 0.51864 0.13303 0.72351 0.0
H292 H 0.61205 0.1421 0.71658 0.0
H293 H 0.6608 0.14962 0.70078 0.0
H294 H 0.67684 0.10062 0.74551 0.0
H295 H 0.62871 0.09313 0.76131 0.0
H296 H 0.58374 0.06963 0.79707 0.0
H297 H 0.5695 0.04517 0.82797 0.0
H298 H 0.49132 0.06419 0.83122 0.0
H299 H 0.50479 0.08773 0.80028 0.0
H300 H 0.47465 0.08966 0.76077 0.0
H301 H 0.43383 0.09722 0.74562 0.0
H302 H 0.50074 0.15076 0.70198 0.0
H303 H 0.54217 0.14318 0.71715 0.0
N304 N 0.56441 0.11701 0.74112 0.0
N305 N 0.57977 0.09948 0.76764 0.0
N306 N 0.53106 0.09937 0.76758 0.0
C307 C 0.58613 0.11127 0.74992 0.0
C308 C 0.55239 0.09363 0.77663 0.0
C309 C 0.53666 0.11096 0.74987 0.0
C310 C 0.61613 0.11682 0.74024 0.0
C311 C 0.62596 0.13294 0.72307 0.0
C312 C 0.65394 0.13738 0.71402 0.0
C313 C 0.6724 0.12538 0.7218 0.0
C314 C 0.66284 0.10972 0.73902 0.0
C315 C 0.63523 0.10557 0.74813 0.0
C316 C 0.54519 0.08035 0.79595 0.0
C317 C 0.56354 0.06866 0.80436 0.0
C318 C 0.55545 0.05472 0.82213 0.0
C319 C 0.52888 0.05214 0.83196 0.0
C320 C 0.51135 0.06491 0.82385 0.0
C321 C 0.51924 0.07861 0.80608 0.0
C322 C 0.51195 0.11588 0.74027 0.0
C323 C 0.48094 0.10313 0.74797 0.0
C324 C 0.68344 0.558 0.9524 0.0
C325 C 0.67313 0.54086 0.96911 0.0
C326 C 0.69121 0.52814 0.97649 0.0
C327 C 0.7191 0.53264 0.96735 0.0
H328 H 0.80323 0.52419 0.97397 0.0
H329 H 0.84511 0.51739 0.9893 0.0
H330 H 0.9086 0.56289 0.94281 0.0
H331 H 0.86745 0.56962 0.92748 0.0
H332 H 0.83922 0.57712 0.8898 0.0
H333 H 0.85308 0.60143 0.85907 0.0
H334 H 0.77621 0.62225 0.86304 0.0
H335 H 0.7616 0.5971 0.89374 0.0
H336 H 0.718 0.57555 0.93032 0.0
H337 H 0.66992 0.56793 0.9463 0.0
H338 H 0.68399 0.51504 0.98944 0.0
H339 H 0.73252 0.52262 0.97346 0.0
N340 N 0.78016 0.548 0.94911 0.0
N341 N 0.81301 0.56504 0.92245 0.0
N342 N 0.76521 0.56665 0.92292 0.0
C343 C 0.80743 0.55325 0.94011 0.0
C344 C 0.79214 0.57174 0.91369 0.0
C345 C 0.75889 0.55466 0.94059 0.0
C346 C 0.83185 0.54765 0.94948 0.0
C347 C 0.82608 0.53265 0.96699 0.0
C348 C 0.84996 0.52864 0.97576 0.0
C349 C 0.88017 0.53993 0.96731 0.0
C350 C 0.88568 0.55433 0.94974 0.0
C351 C 0.86191 0.55806 0.94093 0.0
C352 C 0.79946 0.58537 0.89447 0.0
C353 C 0.82513 0.58679 0.88419 0.0
C354 C 0.83325 0.60092 0.86656 0.0
C355 C 0.81621 0.61441 0.85873 0.0
C356 C 0.78988 0.61214 0.86868 0.0
C357 C 0.78158 0.5978 0.88632 0.0
C358 C 0.72934 0.54969 0.95052 0.0
C359 C 0.711 0.56221 0.94318 0.0
C360 C 0.44439 0.12108 0.94727 0.0
C361 C 0.46257 0.13005 0.96379 0.0
C362 C 0.47105 0.15903 0.9718 0.0
C363 C 0.46209 0.17894 0.96329 0.0
H364 H 0.46894 0.26341 0.96985 0.0
H365 H 0.48274 0.31287 0.98474 0.0
H366 H 0.4323 0.33173 0.94144 0.0
H367 H 0.419 0.28271 0.92624 0.0
H368 H 0.4046 0.24391 0.88851 0.0
H369 H 0.37917 0.23209 0.85792 0.0
H370 H 0.36034 0.13736 0.86245 0.0
H371 H 0.38665 0.14929 0.89288 0.0
H372 H 0.42162 0.13342 0.92592 0.0
H373 H 0.43686 0.09853 0.94102 0.0
H374 H 0.48507 0.16653 0.98453 0.0
H375 H 0.46937 0.20126 0.96979 0.0
N376 N 0.44258 0.21912 0.94573 0.0
N377 N 0.42058 0.2321 0.92047 0.0
N378 N 0.42087 0.18482 0.92038 0.0
C379 C 0.43512 0.23935 0.93744 0.0
C380 C 0.41336 0.20492 0.91183 0.0
C381 C 0.43555 0.19182 0.93734 0.0
C382 C 0.44302 0.26911 0.94673 0.0
C383 C 0.4608 0.27807 0.96344 0.0
C384 C 0.46866 0.30635 0.97204 0.0
C385 C 0.45896 0.32628 0.96411 0.0
C386 C 0.44074 0.31714 0.94762 0.0
C387 C 0.43297 0.28894 0.93897 0.0
C388 C 0.39778 0.19757 0.8932 0.0
C389 C 0.39517 0.22054 0.88302 0.0
C390 C 0.38053 0.21379 0.86548 0.0
C391 C 0.36802 0.1839 0.85769 0.0
C392 C 0.37043 0.16083 0.86788 0.0
C393 C 0.38531 0.16764 0.88539 0.0
C394 C 0.44437 0.17028 0.94655 0.0
C395 C 0.43549 0.14102 0.93869 0.0
C396 C 0.87979 0.31851 0.94818 0.0
C397 C 0.8717 0.32901 0.96441 0.0
C398 C 0.84138 0.30998 0.97255 0.0
C399 C 0.8195 0.2813 0.96448 0.0
H400 H 0.73173 0.19791 0.97346 0.0
H401 H 0.68479 0.15776 0.99036 0.0
H402 H 0.67037 0.09101 0.94734 0.0
H403 H 0.71688 0.13059 0.93047 0.0
H404 H 0.75946 0.15134 0.8938 0.0
H405 H 0.77389 0.13996 0.86325 0.0
H406 H 0.85275 0.23456 0.85953 0.0
H407 H 0.83898 0.2459 0.89011 0.0
H408 H 0.86512 0.28287 0.92753 0.0
H409 H 0.90326 0.33212 0.94186 0.0
H410 H 0.83445 0.31744 0.98507 0.0
H411 H 0.79629 0.26733 0.97104 0.0
N412 N 0.77761 0.21939 0.94839 0.0
N413 N 0.76389 0.18513 0.92291 0.0
N414 N 0.81058 0.23406 0.92183 0.0
C415 C 0.75719 0.19141 0.94034 0.0
C416 C 0.79048 0.2064 0.91352 0.0
C417 C 0.80446 0.24082 0.93921 0.0
C418 C 0.72833 0.16754 0.95059 0.0
C419 C 0.7186 0.17466 0.9676 0.0
C420 C 0.6917 0.15176 0.97728 0.0
C421 C 0.67431 0.12122 0.9703 0.0
C422 C 0.68374 0.11423 0.95324 0.0
C423 C 0.71033 0.13705 0.9435 0.0
C424 C 0.79808 0.19953 0.89454 0.0
C425 C 0.77976 0.16981 0.88644 0.0
C426 C 0.78787 0.16332 0.86885 0.0
C427 C 0.81434 0.18644 0.8589 0.0
C428 C 0.83234 0.2162 0.86689 0.0
C429 C 0.82434 0.22268 0.88445 0.0
C430 C 0.82743 0.27107 0.94804 0.0
C431 C 0.8579 0.29007 0.94003 0.0
C432 C 0.56698 0.68069 0.07742 0.0
C433 C 0.55287 0.67398 0.05961 0.0
C434 C 0.54581 0.69541 0.05109 0.0
C435 C 0.55306 0.7232 0.0601 0.0
H436 H 0.55261 0.8038 0.05195 0.0
H437 H 0.53933 0.83973 0.03649 0.0
H438 H 0.56891 0.89838 0.08543 0.0
H439 H 0.582 0.86232 0.10117 0.0
H440 H 0.62308 0.84915 0.13233 0.0
H441 H 0.64953 0.86097 0.16268 0.0
H442 H 0.63039 0.76613 0.16714 0.0
H443 H 0.60474 0.75438 0.13659 0.0
H444 H 0.58529 0.71298 0.10013 0.0
H445 H 0.57271 0.66455 0.08428 0.0
H446 H 0.53434 0.69052 0.03753 0.0
H447 H 0.54728 0.73918 0.05308 0.0
N448 N 0.56884 0.78058 0.0789 0.0
N449 N 0.5898 0.81428 0.10454 0.0
N450 N 0.58903 0.76647 0.10456 0.0
C451 C 0.57595 0.80784 0.08735 0.0
C452 C 0.59641 0.79368 0.11325 0.0
C453 C 0.57527 0.75976 0.08737 0.0
C454 C 0.56844 0.83012 0.07785 0.0
C455 C 0.55641 0.82435 0.05948 0.0
C456 C 0.54897 0.84503 0.05053 0.0
C457 C 0.55336 0.87192 0.05972 0.0
C458 C 0.56526 0.87774 0.07807 0.0
C459 C 0.57286 0.85712 0.08703 0.0
C460 C 0.61173 0.80079 0.13196 0.0
C461 C 0.62433 0.83073 0.13979 0.0
C462 C 0.63931 0.83748 0.15726 0.0
C463 C 0.6417 0.81437 0.1674 0.0
C464 C 0.62902 0.78445 0.15962 0.0
C465 C 0.61425 0.77774 0.14211 0.0
C466 C 0.56744 0.73014 0.07788 0.0
C467 C 0.57426 0.70849 0.08645 0.0
C468 C 0.33255 0.889 0.07223 0.0
C469 C 0.34175 0.88172 0.05517 0.0
C470 C 0.32408 0.85115 0.04829 0.0
C471 C 0.29718 0.82851 0.05805 0.0
H472 H 0.20879 0.74661 0.04915 0.0
H473 H 0.16887 0.69844 0.03402 0.0
H474 H 0.12269 0.6627 0.08725 0.0
H475 H 0.1618 0.71091 0.10231 0.0
H476 H 0.17896 0.75534 0.13597 0.0
H477 H 0.16343 0.76595 0.16621 0.0
H478 H 0.23808 0.86235 0.16212 0.0
H479 H 0.2543 0.85175 0.13181 0.0
H480 H 0.29949 0.87299 0.09509 0.0
H481 H 0.34612 0.91228 0.07802 0.0
H482 H 0.33077 0.84493 0.03521 0.0
H483 H 0.28387 0.80525 0.05225 0.0
N484 N 0.23818 0.78441 0.07702 0.0
N485 N 0.20558 0.76885 0.10371 0.0
N486 N 0.25217 0.81797 0.10288 0.0
C487 C 0.21153 0.76265 0.08615 0.0
C488 C 0.22565 0.79635 0.11222 0.0
C489 C 0.25874 0.8121 0.08529 0.0
C490 C 0.18842 0.73285 0.07695 0.0
C491 C 0.19014 0.7285 0.05764 0.0
C492 C 0.16729 0.7009 0.04896 0.0
C493 C 0.14226 0.67702 0.05938 0.0
C494 C 0.14107 0.68103 0.07873 0.0
C495 C 0.16372 0.70863 0.08739 0.0
C496 C 0.21771 0.80277 0.13124 0.0
C497 C 0.19223 0.77885 0.14143 0.0
C498 C 0.18315 0.78493 0.15877 0.0
C499 C 0.19907 0.81513 0.16637 0.0
C500 C 0.22529 0.83886 0.15658 0.0
C501 C 0.23451 0.83276 0.13919 0.0
C502 C 0.28765 0.83589 0.07505 0.0
C503 C 0.30591 0.86639 0.08207 0.0
C504 C 0.12163 0.43979 0.07171 0.0
C505 C 0.12895 0.45747 0.05523 0.0
C506 C 0.16004 0.47026 0.04771 0.0
C507 C 0.1833 0.46543 0.05657 0.0
H508 H 0.27646 0.47557 0.05064 0.0
H509 H 0.32551 0.48401 0.03493 0.0
H510 H 0.34042 0.43227 0.07845 0.0
H511 H 0.29179 0.42383 0.09419 0.0
H512 H 0.24704 0.40184 0.1308 0.0
H513 H 0.23247 0.37773 0.1618 0.0
H514 H 0.15405 0.39648 0.16424 0.0
H515 H 0.16786 0.41969 0.13323 0.0
H516 H 0.13815 0.42161 0.09338 0.0
H517 H 0.09796 0.42981 0.07789 0.0
H518 H 0.16627 0.48379 0.03493 0.0
H519 H 0.207 0.47558 0.05043 0.0
N520 N 0.22828 0.44896 0.07445 0.0
N521 N 0.24331 0.43136 0.10106 0.0
N522 N 0.19459 0.43129 0.10073 0.0
C523 C 0.24986 0.44318 0.08335 0.0
C524 C 0.21581 0.42553 0.10992 0.0
C525 C 0.20044 0.4429 0.08304 0.0
C526 C 0.27998 0.44898 0.07375 0.0
C527 C 0.2902 0.46603 0.0569 0.0
C528 C 0.3184 0.47104 0.04793 0.0
C529 C 0.33684 0.45884 0.05547 0.0
C530 C 0.32664 0.44183 0.07224 0.0
C531 C 0.29876 0.43712 0.08131 0.0
C532 C 0.2084 0.4124 0.12928 0.0
C533 C 0.22671 0.40089 0.13794 0.0
C534 C 0.21844 0.38715 0.15576 0.0
C535 C 0.1917 0.3846 0.16538 0.0
C536 C 0.1742 0.39719 0.15702 0.0
C537 C 0.18229 0.4107 0.13922 0.0
C538 C 0.17604 0.44802 0.07324 0.0
C539 C 0.14485 0.43528 0.08065 0.0
C540 C 0.3511 0.89312 0.28603 0.0
C541 C 0.34135 0.87716 0.30315 0.0
C542 C 0.35919 0.86428 0.31064 0.0
C543 C 0.38679 0.86814 0.30141 0.0
H544 H 0.46956 0.85641 0.30682 0.0
H545 H 0.51068 0.8483 0.32192 0.0
H546 H 0.57758 0.90104 0.27809 0.0
H547 H 0.53704 0.90911 0.26299 0.0
H548 H 0.5091 0.91555 0.22437 0.0
H549 H 0.52162 0.93858 0.19324 0.0
H550 H 0.43941 0.95157 0.19572 0.0
H551 H 0.42627 0.92779 0.22673 0.0
H552 H 0.38501 0.90936 0.26364 0.0
H553 H 0.33755 0.90288 0.27976 0.0
H554 H 0.35213 0.85177 0.3238 0.0
H555 H 0.40025 0.85829 0.30767 0.0
N556 N 0.44789 0.88323 0.28308 0.0
N557 N 0.48087 0.90041 0.25645 0.0
N558 N 0.4326 0.90114 0.25672 0.0
C559 C 0.47534 0.88881 0.27416 0.0
C560 C 0.4597 0.90656 0.24756 0.0
C561 C 0.42637 0.88941 0.27444 0.0
C562 C 0.49981 0.88338 0.28362 0.0
C563 C 0.49302 0.86625 0.30039 0.0
C564 C 0.51648 0.86146 0.309 0.0
C565 C 0.54732 0.87401 0.30115 0.0
C566 C 0.5541 0.89122 0.28451 0.0
C567 C 0.53069 0.89569 0.27582 0.0
C568 C 0.46663 0.91975 0.22822 0.0
C569 C 0.49346 0.92306 0.2183 0.0
C570 C 0.50072 0.93635 0.2004 0.0
C571 C 0.48142 0.94675 0.19186 0.0
C572 C 0.45441 0.94319 0.20166 0.0
C573 C 0.44704 0.92977 0.21956 0.0
C574 C 0.3968 0.88451 0.28433 0.0
C575 C 0.37831 0.89667 0.27673 0.0
C576 C 0.12606 0.46514 0.27645 0.0
C577 C 0.13013 0.46656 0.29594 0.0
C578 C 0.13001 0.49099 0.30585 0.0
C579 C 0.12535 0.51322 0.2965 0.0
H580 H 0.13338 0.5993 0.30355 0.0
H581 H 0.14323 0.64712 0.3192 0.0
H582 H 0.12977 0.68271 0.26696 0.0
H583 H 0.11914 0.63481 0.25133 0.0
H584 H 0.09055 0.59 0.21717 0.0
H585 H 0.06181 0.57801 0.18765 0.0
H586 H 0.0373 0.48166 0.19291 0.0
H587 H 0.06677 0.49365 0.22236 0.0
H588 H 0.1178 0.48526 0.25211 0.0
H589 H 0.12701 0.44714 0.26835 0.0
H590 H 0.13306 0.49265 0.32087 0.0
H591 H 0.12506 0.53158 0.30459 0.0
N592 N 0.12253 0.562 0.27564 0.0
N593 N 0.10451 0.57717 0.24943 0.0
N594 N 0.10186 0.52856 0.24981 0.0
C595 C 0.11752 0.58348 0.26681 0.0
C596 C 0.09652 0.54978 0.24084 0.0
C597 C 0.11497 0.53459 0.26721 0.0
C598 C 0.12513 0.61304 0.2762 0.0
C599 C 0.13256 0.61731 0.29537 0.0
C600 C 0.13826 0.64469 0.30435 0.0
C601 C 0.13669 0.66832 0.29435 0.0
C602 C 0.13025 0.66448 0.27511 0.0
C603 C 0.12436 0.63709 0.26615 0.0
C604 C 0.08074 0.54273 0.22229 0.0
C605 C 0.07913 0.56623 0.21208 0.0
C606 C 0.06246 0.55935 0.19521 0.0
C607 C 0.04671 0.52876 0.18821 0.0
C608 C 0.04913 0.50543 0.19804 0.0
C609 C 0.066 0.51233 0.21491 0.0
C610 C 0.1205 0.51136 0.27705 0.0
C611 C 0.12099 0.48712 0.26713 0.0
C612 C 0.54653 0.64773 0.28222 0.0
C613 C 0.53839 0.65785 0.29859 0.0
C614 C 0.50821 0.63852 0.30678 0.0
C615 C 0.48649 0.60989 0.29864 0.0
H616 H 0.39905 0.52841 0.30708 0.0
H617 H 0.35122 0.48971 0.32381 0.0
H618 H 0.33533 0.4213 0.2816 0.0
H619 H 0.38299 0.45964 0.26484 0.0
H620 H 0.42221 0.48302 0.22585 0.0
H621 H 0.43499 0.4728 0.19447 0.0
H622 H 0.52162 0.56263 0.19437 0.0
H623 H 0.50886 0.57323 0.22537 0.0
H624 H 0.53202 0.61236 0.26139 0.0
H625 H 0.56992 0.66164 0.27585 0.0
H626 H 0.50124 0.64572 0.3194 0.0
H627 H 0.46337 0.59568 0.30524 0.0
N628 N 0.44468 0.54849 0.28234 0.0
N629 N 0.43047 0.51438 0.25676 0.0
N630 N 0.47753 0.5631 0.25577 0.0
C631 C 0.42403 0.52065 0.27426 0.0
C632 C 0.45717 0.53558 0.24738 0.0
C633 C 0.47156 0.56981 0.27319 0.0
C634 C 0.39495 0.49725 0.28453 0.0
C635 C 0.38543 0.50512 0.30134 0.0
C636 C 0.35797 0.48304 0.31092 0.0
C637 C 0.33958 0.45256 0.30398 0.0
C638 C 0.34921 0.44459 0.28733 0.0
C639 C 0.37644 0.46667 0.27767 0.0
C640 C 0.46441 0.52901 0.22822 0.0
C641 C 0.44389 0.5007 0.21911 0.0
C642 C 0.4512 0.49479 0.20114 0.0
C643 C 0.47906 0.5171 0.19183 0.0
C644 C 0.49956 0.54529 0.20095 0.0
C645 C 0.49231 0.55121 0.21885 0.0
C646 C 0.49447 0.6 0.28208 0.0
C647 C 0.5248 0.6193 0.27401 0.0
Tb648 Tb 0.49479 0.97911 0.98999 0.0
C649 C 0.56238 0.09483 0.04026 0.0
C650 C 0.61806 0.10865 0.03843 0.0
C651 C 0.60415 0.14906 0.04346 0.0
C652 C 0.58515 0.08617 0.03771 0.0
C653 C 0.57147 0.12622 0.04372 0.0
C654 C 0.62744 0.14028 0.04079 0.0
C655 C 0.51567 0.10943 0.0494 0.0
N656 N 0.53123 0.07198 0.04063 0.0
C657 C 0.50797 0.07861 0.04599 0.0
C658 C 0.54753 0.13344 0.04798 0.0
Tb659 Tb 0.52041 0.02238 0.03379 0.0
N660 N 0.57495 0.05536 0.03579 0.0
C661 C 0.59673 0.04522 0.03622 0.0
C662 C 0.64044 0.09852 0.03748 0.0
C663 C 0.62969 0.0666 0.03673 0.0
H664 H 0.48326 0.06025 0.04709 0.0
H665 H 0.64676 0.05841 0.03644 0.0
H666 H 0.65261 0.15797 0.04117 0.0
H667 H 0.49704 0.11464 0.05313 0.0
H668 H 0.58907 0.02072 0.03551 0.0
H669 H 0.36853 0.94339 0.98793 0.0
H670 H 0.66597 0.11501 0.03792 0.0
H671 H 0.53115 0.941 0.97588 0.0
H672 H 0.42636 0.98102 0.98828 0.0
H673 H 0.51727 0.88632 0.97062 0.0
H674 H 0.61167 0.17338 0.04588 0.0
H675 H 0.34913 0.88671 0.98728 0.0
H676 H 0.36227 0.8435 0.98454 0.0
H677 H 0.55348 0.15727 0.05073 0.0
H678 H 0.40299 0.82781 0.97976 0.0
N679 N 0.44022 0.94621 0.98846 0.0
C680 C 0.41854 0.95645 0.98791 0.0
C681 C 0.37468 0.90316 0.98745 0.0
C682 C 0.39696 0.89289 0.98659 0.0
C683 C 0.38554 0.93513 0.98774 0.0
C684 C 0.4299 0.91532 0.98695 0.0
H685 H 0.46101 0.84372 0.97421 0.0
N686 N 0.48367 0.92933 0.9835 0.0
C687 C 0.49883 0.89162 0.97466 0.0
C688 C 0.45254 0.90651 0.98436 0.0
C689 C 0.50664 0.92257 0.97772 0.0
C690 C 0.46707 0.86765 0.97674 0.0
C691 C 0.4433 0.87502 0.98122 0.0
O692 O 0.5208 0.9882 0.9648 0.0
O693 O 0.53195 0.01805 1.00521 0.0
O694 O 0.51509 0.05303 0.01389 0.0
O695 O 0.48298 0.01679 0.99106 0.0
O696 O 0.54591 0.99461 0.98768 0.0
O697 O 0.47776 0.99097 0.966 0.0
O698 O 0.49405 0.01302 0.05885 0.0
O699 O 0.48317 0.9834 0.01858 0.0
O700 O 0.5011 0.94895 1.00977 0.0
O701 O 0.533 0.98529 0.03262 0.0
O702 O 0.46944 0.00743 0.03574 0.0
O703 O 0.53654 0.00928 0.05767 0.0
C704 C 0.55638 0.01805 0.99881 0.0
C705 C 0.49132 0.97823 0.93679 0.0
C706 C 0.49166 0.98275 0.90264 0.0
C707 C 0.50063 0.99675 0.92045 0.0
C708 C 0.47405 0.94999 0.90149 0.0
C709 C 0.47325 0.94568 0.93521 0.0
C710 C 0.46487 0.93168 0.91765 0.0
C711 C 0.49627 0.04474 0.99899 0.0
C712 C 0.5007 0.99312 0.95533 0.0
C713 C 0.41063 0.85222 0.98191 0.0
C714 C 0.38745 0.86116 0.98463 0.0
C715 C 0.45881 0.98373 0.02482 0.0
C716 C 0.52284 0.02157 0.08698 0.0
C717 C 0.51219 0.00258 0.10309 0.0
C718 C 0.5204 0.01595 0.12111 0.0
C719 C 0.53947 0.04859 0.12261 0.0
C720 C 0.54193 0.05398 0.08892 0.0
C721 C 0.55013 0.06736 0.10665 0.0
C722 C 0.52025 0.95754 0.02452 0.0
C723 C 0.51361 0.00729 0.06828 0.0
H724 H 0.51443 0.02194 0.92162 0.0
H725 H 0.46751 0.93845 0.88804 0.0
H726 H 0.4657 0.93106 0.94751 0.0
H727 H 0.45118 0.90651 0.91654 0.0
H728 H 0.49793 0.97747 0.10155 0.0
H729 H 0.54599 0.05969 0.13619 0.0
H730 H 0.55048 0.06894 0.07677 0.0
H731 H 0.56478 0.09243 0.10805 0.0
Tb732 Tb 0.03142 0.5119 0.99114 0.0
C733 C 0.90654 0.45842 0.03649 0.0
C734 C 0.88892 0.49593 0.03208 0.0
C735 C 0.84963 0.44139 0.0375 0.0
C736 C 0.91362 0.48847 0.03293 0.0
C737 C 0.87457 0.4346 0.03939 0.0
C738 C 0.8568 0.47206 0.03382 0.0
C739 C 0.89471 0.40034 0.04797 0.0
N740 N 0.93139 0.45308 0.03849 0.0
C741 C 0.92602 0.42486 0.04505 0.0
C742 C 0.86881 0.40506 0.04482 0.0
Tb743 Tb 0.98189 0.49413 0.03259 0.0
N744 N 0.94495 0.51077 0.03162 0.0
C745 C 0.95324 0.54156 0.03106 0.0
C746 C 0.89732 0.52724 0.03021 0.0
C747 C 0.92966 0.5502 0.03005 0.0
H748 H 0.94579 0.42084 0.04751 0.0
H749 H 0.93649 0.57457 0.02898 0.0
H750 H 0.83745 0.47724 0.03297 0.0
H751 H 0.8906 0.37781 0.05265 0.0
H752 H 0.97799 0.55966 0.03054 0.0
H753 H 0.07279 0.42832 0.9932 0.0
H754 H 0.8791 0.53398 0.02942 0.0
H755 H 0.06999 0.58648 0.97871 0.0
H756 H 0.03249 0.44496 0.99163 0.0
H757 H 0.12609 0.62875 0.97483 0.0
H758 H 0.82485 0.42335 0.03945 0.0
H759 H 0.13059 0.46768 0.99401 0.0
H760 H 0.17367 0.52419 0.99202 0.0
H761 H 0.84459 0.38609 0.0472 0.0
H762 H 0.18828 0.579 0.98692 0.0
N763 N 0.06687 0.4936 0.99195 0.0
C764 C 0.05754 0.46254 0.99183 0.0
C765 C 0.11297 0.47519 0.99326 0.0
C766 C 0.12242 0.50685 0.9921 0.0
C767 C 0.08038 0.45292 0.99274 0.0
C768 C 0.09848 0.51532 0.99125 0.0
H769 H 0.17064 0.61817 0.98005 0.0
N770 N 0.08263 0.55246 0.98658 0.0
C771 C 0.12098 0.60558 0.97878 0.0
C772 C 0.1067 0.54594 0.98848 0.0
C773 C 0.08921 0.58154 0.98094 0.0
C774 C 0.14607 0.59955 0.9818 0.0
C775 C 0.13907 0.56928 0.98637 0.0
O776 O 0.02595 0.52766 0.96484 0.0
O777 O 0.9887 0.50792 1.00364 0.0
O778 O 0.95342 0.45701 0.01273 0.0
O779 O 0.99347 0.46213 0.9919 0.0
O780 O 0.01363 0.54421 0.98575 0.0
O781 O 0.02353 0.4832 0.96776 0.0
O782 O 0.99025 0.48095 0.05904 0.0
O783 O 0.02452 0.49772 0.02002 0.0
O784 O 0.05918 0.54816 0.01158 0.0
O785 O 0.01826 0.54438 0.03081 0.0
O786 O 0.99952 0.46161 0.03792 0.0
O787 O 0.99004 0.52401 0.05537 0.0
C788 C 0.98827 0.53064 0.99592 0.0
C789 C 0.04203 0.50955 0.93896 0.0
C790 C 0.04366 0.50926 0.90489 0.0
C791 C 0.02625 0.50291 0.92168 0.0
C792 C 0.07722 0.5228 0.90568 0.0
C793 C 0.07542 0.52251 0.93948 0.0
C794 C 0.09291 0.5292 0.92289 0.0
C795 C 0.96391 0.44669 0.99889 0.0
C796 C 0.02319 0.50334 0.95618 0.0
C797 C 0.16321 0.56136 0.98824 0.0
C798 C 0.15489 0.53016 0.99113 0.0
C799 C 0.02476 0.4748 0.02765 0.0
C800 C 0.97416 0.49927 0.08476 0.0
C801 C 0.99069 0.50571 0.10177 0.0
C802 C 0.97412 0.49974 0.11883 0.0
C803 C 0.9406 0.48678 0.11861 0.0
C804 C 0.94083 0.48683 0.08478 0.0
C805 C 0.92414 0.48051 0.10166 0.0
C806 C 0.04835 0.55949 0.02466 0.0
C807 C 0.99223 0.50526 0.06726 0.0
H808 H 1.00037 0.49257 0.92131 0.0
H809 H 0.09137 0.5287 0.89299 0.0
H810 H 0.08797 0.52758 0.95262 0.0
H811 H 0.11873 0.53951 0.92337 0.0
H812 H 0.01653 0.51565 0.10171 0.0
H813 H 0.92711 0.48125 0.13153 0.0
H814 H 0.92772 0.48193 0.07183 0.0
H815 H 0.89836 0.47063 0.1016 0.0
Tb816 Tb 0.51785 0.4904 0.03341 0.0
C817 C 0.45116 0.54276 0.98505 0.0
C818 C 0.39525 0.50403 0.9888 0.0
C819 C 0.41059 0.55824 0.98333 0.0
C820 C 0.4279 0.51243 0.98841 0.0
C821 C 0.44284 0.56593 0.9818 0.0
C822 C 0.38679 0.52728 0.98686 0.0
C823 C 0.49806 0.60111 0.97333 0.0
N824 N 0.48183 0.54897 0.98344 0.0
C825 C 0.50495 0.57717 0.97659 0.0
C826 C 0.46697 0.59566 0.97632 0.0
Tb827 Tb 0.49161 0.50919 0.99025 0.0
N828 N 0.43721 0.4908 0.98996 0.0
C829 C 0.41459 0.45974 0.99005 0.0
C830 C 0.37215 0.47245 0.99036 0.0
C831 C 0.38186 0.45016 0.99057 0.0
H832 H 0.52898 0.58147 0.97414 0.0
H833 H 0.36416 0.42559 0.99127 0.0
H834 H 0.36188 0.52139 0.98739 0.0
H835 H 0.51669 0.62369 0.96846 0.0
H836 H 0.42146 0.44208 0.99041 0.0
H837 H 0.64508 0.57477 0.03337 0.0
H838 H 0.3468 0.46498 0.99077 0.0
H839 H 0.48003 0.41687 0.04764 0.0
H840 H 0.58771 0.55785 0.03369 0.0
H841 H 0.49279 0.37498 0.0532 0.0
H842 H 0.40369 0.57577 0.98116 0.0
H843 H 0.66289 0.53572 0.03413 0.0
H844 H 0.64823 0.47943 0.03733 0.0
H845 H 0.46161 0.61415 0.97366 0.0
H846 H 0.60659 0.42474 0.04285 0.0
N847 N 0.5723 0.50918 0.03414 0.0
C848 C 0.59473 0.54031 0.03417 0.0
C849 C 0.63749 0.52805 0.03432 0.0
C850 C 0.61455 0.49639 0.03567 0.0
C851 C 0.62753 0.55014 0.03395 0.0
C852 C 0.58182 0.48772 0.03577 0.0
H853 H 0.54848 0.38559 0.04919 0.0
N854 N 0.5278 0.4506 0.03994 0.0
C855 C 0.51155 0.39798 0.04902 0.0
C856 C 0.55865 0.45721 0.03878 0.0
C857 C 0.50443 0.4218 0.04592 0.0
C858 C 0.54298 0.40402 0.04669 0.0
C859 C 0.56715 0.43413 0.04188 0.0
O860 O 0.49319 0.47461 0.059 0.0
O861 O 0.48077 0.49523 0.01924 0.0
O862 O 0.50225 0.54779 1.00907 0.0
O863 O 0.53187 0.54011 0.03242 0.0
O864 O 0.46652 0.45773 0.0365 0.0
O865 O 0.53624 0.51925 0.05705 0.0
O866 O 0.51681 0.52351 0.96474 0.0
O867 O 0.52864 0.50448 1.0045 0.0
O868 O 0.50866 0.45279 0.01414 0.0
O869 O 0.47749 0.45943 0.99143 0.0
O870 O 0.54304 0.54164 0.98697 0.0
O871 O 0.47168 0.48087 0.96651 0.0
C872 C 0.45617 0.47202 0.02612 0.0
C873 C 0.52449 0.49353 0.08624 0.0
C874 C 0.52141 0.49335 0.12035 0.0
C875 C 0.51159 0.49823 0.10274 0.0
C876 C 0.54391 0.48311 0.12114 0.0
C877 C 0.54709 0.48359 0.08735 0.0
C878 C 0.55662 0.47829 0.10474 0.0
C879 C 0.52118 0.55694 0.02391 0.0
C880 C 0.51398 0.49915 0.06809 0.0
C881 C 0.59955 0.44218 0.04075 0.0
C882 C 0.62324 0.47331 0.03762 0.0
C883 C 0.55332 0.52754 0.99759 0.0
C884 C 0.48589 0.50671 0.93729 0.0
C885 C 0.49781 0.50044 0.9209 0.0
C886 C 0.49009 0.50737 0.90321 0.0
C887 C 0.47009 0.52053 0.90224 0.0
C888 C 0.46591 0.51971 0.93598 0.0
C889 C 0.45812 0.52661 0.91852 0.0
C890 C 0.48943 0.44327 0.99946 0.0
C891 C 0.49491 0.49982 0.95556 0.0
H892 H 0.49377 0.50549 0.10182 0.0
H893 H 0.55206 0.47929 0.13447 0.0
H894 H 0.55739 0.48001 0.07483 0.0
H895 H 0.57408 0.47062 0.10552 0.0
H896 H 0.51272 0.48978 0.92196 0.0
H897 H 0.46384 0.52629 0.88886 0.0
H898 H 0.4563 0.52446 0.9484 0.0
H899 H 0.44274 0.53673 0.91758 0.0
Tb900 Tb 0.15681 0.31172 0.32355 0.0
C901 C 0.22185 0.42844 0.37281 0.0
C902 C 0.27807 0.44415 0.37107 0.0
C903 C 0.26216 0.48329 0.37542 0.0
C904 C 0.24545 0.42081 0.37051 0.0
C905 C 0.22979 0.45964 0.37578 0.0
C906 C 0.28629 0.47555 0.37305 0.0
C907 C 0.17349 0.44128 0.38088 0.0
N908 N 0.19101 0.40488 0.37315 0.0
C909 C 0.1669 0.41068 0.37792 0.0
C910 C 0.20504 0.46595 0.37955 0.0
Tb911 Tb 0.18224 0.35573 0.36701 0.0
N912 N 0.23639 0.39023 0.36875 0.0
C913 C 0.25901 0.38118 0.3692 0.0
C914 C 0.30133 0.43512 0.37022 0.0
C915 C 0.29172 0.40344 0.36964 0.0
H916 H 0.1424 0.39181 0.37884 0.0
H917 H 0.3095 0.39612 0.36941 0.0
H918 H 0.31121 0.49388 0.37329 0.0
H919 H 0.15424 0.44582 0.38417 0.0
H920 H 0.25216 0.35685 0.36861 0.0
H921 H 0.02834 0.26545 0.32316 0.0
H922 H 0.32666 0.45231 0.37054 0.0
H923 H 0.19904 0.27892 0.30958 0.0
H924 H 0.08493 0.30648 0.32384 0.0
H925 H 0.18974 0.22617 0.30327 0.0
H926 H 0.2688 0.50748 0.37746 0.0
H927 H 0.01382 0.21001 0.32095 0.0
H928 H 0.03191 0.1706 0.31678 0.0
H929 H 0.21011 0.48962 0.3819 0.0
H930 H 0.07603 0.15984 0.31127 0.0
N931 N 0.10307 0.27513 0.32227 0.0
C932 C 0.07929 0.28263 0.32255 0.0
C933 C 0.03886 0.22805 0.32116 0.0
C934 C 0.06322 0.22057 0.31962 0.0
C935 C 0.04696 0.25929 0.3223 0.0
C936 C 0.0954 0.24499 0.32007 0.0
H937 H 0.13504 0.18052 0.30588 0.0
N938 N 0.15024 0.26355 0.31649 0.0
C939 C 0.16988 0.22939 0.30725 0.0
C940 C 0.11995 0.23894 0.31703 0.0
C941 C 0.17504 0.25935 0.31086 0.0
C942 C 0.139 0.20368 0.30879 0.0
C943 C 0.11343 0.20832 0.31339 0.0
O944 O 0.18257 0.32382 0.29815 0.0
O945 O 0.19377 0.35184 0.33832 0.0
O946 O 0.17474 0.38447 0.34671 0.0
O947 O 0.14077 0.34637 0.32554 0.0
O948 O 0.20817 0.32877 0.32082 0.0
O949 O 0.13704 0.3216 0.30001 0.0
O950 O 0.15691 0.34697 0.39242 0.0
O951 O 0.14558 0.31586 0.35224 0.0
O952 O 0.16387 0.28217 0.34339 0.0
O953 O 0.19603 0.3194 0.36577 0.0
O954 O 0.13086 0.33848 0.3699 0.0
O955 O 0.19992 0.34409 0.39079 0.0
C956 C 0.21842 0.35236 0.33176 0.0
C957 C 0.1521 0.3115 0.27046 0.0
C958 C 0.15352 0.31592 0.23628 0.0
C959 C 0.16163 0.32999 0.25411 0.0
C960 C 0.13654 0.28314 0.23514 0.0
C961 C 0.13472 0.27891 0.26887 0.0
C962 C 0.12717 0.26487 0.25131 0.0
C963 C 0.15405 0.37492 0.33266 0.0
C964 C 0.16065 0.32637 0.28904 0.0
C965 C 0.08156 0.1836 0.31385 0.0
C966 C 0.05646 0.18973 0.31698 0.0
C967 C 0.12084 0.31487 0.35897 0.0
C968 C 0.18663 0.35623 0.42029 0.0
C969 C 0.17675 0.33721 0.43641 0.0
C970 C 0.18529 0.35055 0.45443 0.0
C971 C 0.20395 0.38324 0.45591 0.0
C972 C 0.20523 0.38868 0.42221 0.0
C973 C 0.21379 0.40205 0.43994 0.0
C974 C 0.18317 0.29128 0.35808 0.0
C975 C 0.17712 0.34186 0.40164 0.0
H976 H 0.17488 0.35521 0.25526 0.0
H977 H 0.13064 0.27158 0.22169 0.0
H978 H 0.12706 0.26432 0.28118 0.0
H979 H 0.11399 0.23968 0.25021 0.0
H980 H 0.1628 0.3121 0.43488 0.0
H981 H 0.21071 0.39434 0.46947 0.0
H982 H 0.2131 0.40365 0.41004 0.0
H983 H 0.22809 0.42715 0.44133 0.0
Tb984 Tb 0.69632 0.84158 0.32556 0.0
C985 C 0.57068 0.78738 0.36982 0.0
C986 C 0.55307 0.82477 0.36483 0.0
C987 C 0.5137 0.77013 0.36987 0.0
C988 C 0.57779 0.8174 0.36616 0.0
C989 C 0.53864 0.76345 0.37231 0.0
C990 C 0.52092 0.8008 0.36612 0.0
C991 C 0.55865 0.7294 0.38165 0.0
N992 N 0.59552 0.78218 0.37235 0.0
C993 C 0.59003 0.75404 0.37914 0.0
C994 C 0.53279 0.73396 0.3779 0.0
Tb995 Tb 0.64615 0.82331 0.36679 0.0
N996 N 0.60913 0.83975 0.36521 0.0
C997 C 0.61739 0.87052 0.36469 0.0
C998 C 0.56147 0.85608 0.36297 0.0
C999 C 0.59379 0.87911 0.36329 0.0
H1000 H 0.6098 0.75019 0.38202 0.0
H1001 H 0.60061 0.90348 0.36228 0.0
H1002 H 0.50156 0.80589 0.36487 0.0
H1003 H 0.55444 0.70692 0.38648 0.0
H1004 H 0.64218 0.88862 0.36457 0.0
H1005 H 0.7372 0.75754 0.32637 0.0
H1006 H 0.54325 0.86276 0.36183 0.0
H1007 H 0.73527 0.91715 0.31547 0.0
H1008 H 0.69706 0.77435 0.32543 0.0
H1009 H 0.79145 0.95944 0.31214 0.0
H1010 H 0.48888 0.75201 0.37148 0.0
H1011 H 0.79506 0.79674 0.32681 0.0
H1012 H 0.83825 0.8532 0.32508 0.0
H1013 H 0.50852 0.71491 0.37997 0.0
H1014 H 0.8531 0.90829 0.32112 0.0
N1015 N 0.73154 0.82299 0.32576 0.0
C1016 C 0.72212 0.79191 0.32549 0.0
C1017 C 0.7775 0.80435 0.32635 0.0
C1018 C 0.78705 0.83606 0.32549 0.0
C1019 C 0.74488 0.78217 0.32605 0.0
C1020 C 0.76319 0.84466 0.32504 0.0
H1021 H 0.83576 0.94812 0.31597 0.0
N1022 N 0.74759 0.88228 0.32161 0.0
C1023 C 0.78619 0.93593 0.31525 0.0
C1024 C 0.77154 0.87547 0.32288 0.0
C1025 C 0.75436 0.91187 0.31708 0.0
C1026 C 0.81114 0.92947 0.31747 0.0
C1027 C 0.80396 0.89882 0.32103 0.0
O1028 O 0.69197 0.85861 0.29945 0.0
O1029 O 0.65311 0.83726 0.33775 0.0
O1030 O 0.6189 0.78513 0.34738 0.0
O1031 O 0.65872 0.7918 0.32586 0.0
O1032 O 0.67901 0.87441 0.32058 0.0
O1033 O 0.68806 0.81337 0.30191 0.0
O1034 O 0.65423 0.81048 0.39341 0.0
O1035 O 0.68836 0.82657 0.35414 0.0
O1036 O 0.72451 0.87546 0.3471 0.0
O1037 O 0.68311 0.87344 0.36498 0.0
O1038 O 0.66437 0.79136 0.37269 0.0
O1039 O 0.65371 0.8533 0.38943 0.0
C1040 C 0.65301 0.86029 0.33018 0.0
C1041 C 0.70682 0.8401 0.27322 0.0
C1042 C 0.70766 0.84073 0.23913 0.0
C1043 C 0.69068 0.83406 0.25609 0.0
C1044 C 0.74106 0.85296 0.2396 0.0
C1045 C 0.74011 0.85231 0.27344 0.0
C1046 C 0.75711 0.85864 0.25668 0.0
C1047 C 0.62958 0.77553 0.33328 0.0
C1048 C 0.68837 0.83413 0.29056 0.0
C1049 C 0.82799 0.89066 0.3223 0.0
C1050 C 0.81954 0.8593 0.32456 0.0
C1051 C 0.68906 0.80407 0.36195 0.0
C1052 C 0.63701 0.8285 0.41875 0.0
C1053 C 0.65285 0.83478 0.43599 0.0
C1054 C 0.63557 0.82858 0.45281 0.0
C1055 C 0.60206 0.81553 0.45211 0.0
C1056 C 0.60368 0.81601 0.4183 0.0
C1057 C 0.5863 0.80945 0.43493 0.0
C1058 C 0.71372 0.88746 0.35977 0.0
C1059 C 0.65573 0.83467 0.40149 0.0
H1060 H 0.66483 0.82395 0.25602 0.0
H1061 H 0.7548 0.85841 0.22678 0.0
H1062 H 0.75292 0.85699 0.28649 0.0
H1063 H 0.78283 0.86813 0.25691 0.0
H1064 H 0.67869 0.84476 0.4363 0.0
H1065 H 0.58803 0.80979 0.46483 0.0
H1066 H 0.59109 0.81126 0.40517 0.0
H1067 H 0.56053 0.79952 0.43451 0.0
Tb1068 Tb 0.18673 0.82736 0.36576 0.0
C1069 C 0.12393 0.88507 0.31774 0.0
C1070 C 0.06729 0.84861 0.32118 0.0
C1071 C 0.08574 0.90353 0.31578 0.0
C1072 C 0.0994 0.85525 0.32097 0.0
C1073 C 0.11747 0.90952 0.31456 0.0
C1074 C 0.06064 0.87307 0.31911 0.0
C1075 C 0.17355 0.94283 0.30719 0.0
N1076 N 0.15407 0.88963 0.31648 0.0
C1077 C 0.17864 0.91772 0.31039 0.0
C1078 C 0.14292 0.93887 0.30959 0.0
Tb1079 Tb 0.16066 0.84772 0.32311 0.0
N1080 N 0.10697 0.83242 0.32271 0.0
C1081 C 0.0831 0.80186 0.32298 0.0
C1082 C 0.04287 0.81751 0.3228 0.0
C1083 C 0.05082 0.79398 0.32334 0.0
H1084 H 0.20245 0.92116 0.30853 0.0
H1085 H 0.03212 0.76976 0.32418 0.0
H1086 H 0.03616 0.86853 0.31947 0.0
H1087 H 0.19327 0.96522 0.30289 0.0
H1088 H 0.0887 0.78338 0.32375 0.0
H1089 H 0.31397 0.91066 0.36891 0.0
H1090 H 0.01788 0.81138 0.32309 0.0
H1091 H 0.14661 0.75154 0.37503 0.0
H1092 H 0.2567 0.89428 0.36798 0.0
H1093 H 0.15854 0.70884 0.37917 0.0
H1094 H 0.08027 0.92206 0.3136 0.0
H1095 H 0.33115 0.87115 0.36946 0.0
H1096 H 0.31576 0.81453 0.37123 0.0
H1097 H 0.13901 0.9583 0.30701 0.0
H1098 H 0.27339 0.75947 0.37417 0.0
N1099 N 0.24089 0.84556 0.3675 0.0
C1100 C 0.2635 0.87657 0.36832 0.0
C1101 C 0.30582 0.86373 0.36907 0.0
C1102 C 0.28257 0.83206 0.36941 0.0
C1103 C 0.29621 0.88608 0.36883 0.0
C1104 C 0.24995 0.8237 0.36876 0.0
H1105 H 0.21462 0.71983 0.37743 0.0
N1106 N 0.1954 0.78634 0.37055 0.0
C1107 C 0.17784 0.73239 0.37663 0.0
C1108 C 0.22633 0.79293 0.37038 0.0
C1109 C 0.17119 0.75668 0.37434 0.0
C1110 C 0.20952 0.73866 0.37559 0.0
C1111 C 0.23431 0.76934 0.37272 0.0
O1112 O 0.1621 0.8095 0.39116 0.0
O1113 O 0.14965 0.83265 0.35196 0.0
O1114 O 0.17066 0.88523 0.34262 0.0
O1115 O 0.20081 0.87716 0.36548 0.0
O1116 O 0.13526 0.79461 0.36869 0.0
O1117 O 0.20449 0.85493 0.38991 0.0
O1118 O 0.18543 0.86039 0.29742 0.0
O1119 O 0.19773 0.84335 0.33738 0.0
O1120 O 0.1819 0.79408 0.34426 0.0
O1121 O 0.14482 0.79745 0.32501 0.0
O1122 O 0.21227 0.87975 0.31947 0.0
O1123 O 0.13954 0.81877 0.29972 0.0
C1124 C 0.12499 0.80938 0.3587 0.0
C1125 C 0.19278 0.82796 0.4187 0.0
C1126 C 0.18923 0.8265 0.45282 0.0
C1127 C 0.17996 0.83244 0.43532 0.0
C1128 C 0.21191 0.81646 0.4534 0.0
C1129 C 0.21519 0.81777 0.4196 0.0
C1130 C 0.22471 0.8121 0.43689 0.0
C1131 C 0.18945 0.89392 0.35752 0.0
C1132 C 0.18231 0.83392 0.40064 0.0
C1133 C 0.26672 0.77727 0.37257 0.0
C1134 C 0.29083 0.80861 0.3709 0.0
C1135 C 0.22251 0.86626 0.33058 0.0
C1136 C 0.15359 0.84398 0.27033 0.0
C1137 C 0.16428 0.83682 0.25374 0.0
C1138 C 0.15588 0.84356 0.23619 0.0
C1139 C 0.13724 0.8582 0.23555 0.0
C1140 C 0.13461 0.85811 0.26933 0.0
C1141 C 0.12664 0.86531 0.25201 0.0
C1142 C 0.16004 0.78286 0.33088 0.0
C1143 C 0.16276 0.83687 0.28851 0.0
H1144 H 0.16254 0.84024 0.43462 0.0
H1145 H 0.22009 0.81239 0.46664 0.0
H1146 H 0.22539 0.81432 0.407 0.0
H1147 H 0.24217 0.80441 0.43752 0.0
H1148 H 0.17875 0.82566 0.25449 0.0
H1149 H 0.13101 0.86433 0.22229 0.0
H1150 H 0.12602 0.86363 0.28189 0.0
H1151 H 0.1122 0.87646 0.25134 0.0
Tb1152 Tb 0.82787 0.6475 0.65751 0.0
C1153 C 0.8913 0.7624 0.70848 0.0
C1154 C 0.94757 0.77803 0.70787 0.0
C1155 C 0.93151 0.81683 0.71322 0.0
C1156 C 0.91502 0.75488 0.70617 0.0
C1157 C 0.89914 0.79329 0.71254 0.0
C1158 C 0.95572 0.80921 0.71086 0.0
C1159 C 0.84255 0.77477 0.71641 0.0
N1160 N 0.86041 0.73891 0.70792 0.0
C1161 C 0.83604 0.74448 0.71242 0.0
C1162 C 0.87423 0.79936 0.71631 0.0
Tb1163 Tb 0.85202 0.69002 0.70137 0.0
N1164 N 0.90603 0.72442 0.70375 0.0
C1165 C 0.92849 0.71522 0.70453 0.0
C1166 C 0.97079 0.76893 0.70739 0.0
C1167 C 0.96114 0.73729 0.70613 0.0
H1168 H 0.81146 0.72569 0.71255 0.0
H1169 H 0.97883 0.72987 0.70627 0.0
H1170 H 0.98061 0.8274 0.71201 0.0
H1171 H 0.82313 0.77913 0.71958 0.0
H1172 H 0.92154 0.69089 0.70352 0.0
H1173 H 0.70032 0.60624 0.65475 0.0
H1174 H 0.99607 0.78596 0.70865 0.0
H1175 H 0.86801 0.6126 0.64393 0.0
H1176 H 0.7574 0.64565 0.65604 0.0
H1177 H 0.85673 0.5592 0.63728 0.0
H1178 H 0.93806 0.8408 0.71609 0.0
H1179 H 0.68356 0.55024 0.65252 0.0
H1180 H 0.69948 0.50918 0.64862 0.0
H1181 H 0.87922 0.82278 0.71949 0.0
H1182 H 0.74224 0.49629 0.64367 0.0
N1183 N 0.77371 0.6127 0.65518 0.0
C1184 C 0.75087 0.62149 0.65497 0.0
C1185 C 0.70885 0.56753 0.65311 0.0
C1186 C 0.7323 0.55879 0.65195 0.0
C1187 C 0.71822 0.5991 0.65428 0.0
C1188 C 0.76485 0.58226 0.65289 0.0
H1189 H 0.80106 0.51492 0.63905 0.0
N1190 N 0.81934 0.59882 0.65003 0.0
C1191 C 0.83732 0.56328 0.64099 0.0
C1192 C 0.78862 0.57503 0.65014 0.0
C1193 C 0.8436 0.59358 0.64475 0.0
C1194 C 0.80589 0.53834 0.64206 0.0
C1195 C 0.78096 0.54412 0.64635 0.0
O1196 O 0.85396 0.65808 0.63226 0.0
O1197 O 0.86466 0.68653 0.6729 0.0
O1198 O 0.84737 0.72036 0.68095 0.0
O1199 O 0.81277 0.68284 0.65974 0.0
O1200 O 0.87931 0.66375 0.65562 0.0
O1201 O 0.81134 0.66146 0.63421 0.0
O1202 O 0.82592 0.68073 0.72652 0.0
O1203 O 0.81558 0.65072 0.68608 0.0
O1204 O 0.83346 0.6169 0.6773 0.0
O1205 O 0.86509 0.65313 0.70026 0.0
O1206 O 0.8006 0.67328 0.70356 0.0
O1207 O 0.86919 0.67822 0.72532 0.0
C1208 C 0.88957 0.68711 0.66676 0.0
C1209 C 0.82439 0.65009 0.60449 0.0
C1210 C 0.8275 0.65616 0.57039 0.0
C1211 C 0.83655 0.66913 0.58846 0.0
C1212 C 0.80627 0.62386 0.56873 0.0
C1213 C 0.80315 0.61803 0.60239 0.0
C1214 C 0.79421 0.60504 0.5846 0.0
C1215 C 0.82669 0.71138 0.66693 0.0
C1216 C 0.8341 0.66393 0.62326 0.0
C1217 C 0.74867 0.52028 0.64636 0.0
C1218 C 0.72433 0.52761 0.64918 0.0
C1219 C 0.79073 0.6499 0.69246 0.0
C1220 C 0.85527 0.69049 0.75458 0.0
C1221 C 0.84575 0.6717 0.77079 0.0
C1222 C 0.85457 0.68537 0.78868 0.0
C1223 C 0.8723 0.71811 0.79005 0.0
C1224 C 0.87334 0.72301 0.75636 0.0
C1225 C 0.88164 0.7367 0.77401 0.0
C1226 C 0.85212 0.62521 0.69228 0.0
C1227 C 0.84611 0.67587 0.73597 0.0
H1228 H 0.85327 0.69386 0.59008 0.0
H1229 H 0.79865 0.61318 0.5551 0.0
H1230 H 0.79345 0.60308 0.61449 0.0
H1231 H 0.77778 0.58026 0.58309 0.0
H1232 H 0.83188 0.64654 0.76948 0.0
H1233 H 0.87878 0.72939 0.80357 0.0
H1234 H 0.88096 0.73782 0.74415 0.0
H1235 H 0.89537 0.76185 0.77527 0.0
Tb1236 Tb 0.36466 0.17546 0.65765 0.0
C1237 C 0.23998 0.12576 0.70167 0.0
C1238 C 0.2258 0.16589 0.69773 0.0
C1239 C 0.18387 0.11183 0.7017 0.0
C1240 C 0.24908 0.15656 0.69874 0.0
C1241 C 0.20736 0.1031 0.70381 0.0
C1242 C 0.19309 0.14322 0.69863 0.0
C1243 C 0.22404 0.0661 0.7124 0.0
N1244 N 0.26345 0.11853 0.70396 0.0
C1245 C 0.25607 0.0896 0.71033 0.0
C1246 C 0.19952 0.07273 0.7088 0.0
Tb1247 Tb 0.31516 0.15783 0.69917 0.0
N1248 N 0.2809 0.17763 0.69819 0.0
C1249 C 0.29105 0.20889 0.6983 0.0
C1250 C 0.23613 0.19774 0.69653 0.0
C1251 C 0.2689 0.21935 0.69719 0.0
H1252 H 0.27492 0.08445 0.71335 0.0
H1253 H 0.27717 0.2441 0.69668 0.0
H1254 H 0.17482 0.14986 0.69762 0.0
H1255 H 0.21831 0.04297 0.71687 0.0
H1256 H 0.31622 0.22605 0.6986 0.0
H1257 H 0.40479 0.09087 0.66113 0.0
H1258 H 0.21905 0.2059 0.69564 0.0
H1259 H 0.4039 0.24872 0.64291 0.0
H1260 H 0.36502 0.108 0.65886 0.0
H1261 H 0.46019 0.29049 0.63878 0.0
H1262 H 0.15862 0.09472 0.70305 0.0
H1263 H 0.46271 0.1298 0.66214 0.0
H1264 H 0.50626 0.18607 0.65977 0.0
H1265 H 0.17474 0.0546 0.71058 0.0
H1266 H 0.52149 0.2408 0.65364 0.0
N1267 N 0.39973 0.1566 0.65897 0.0
C1268 C 0.3901 0.12546 0.65912 0.0
C1269 C 0.44531 0.13754 0.66107 0.0
C1270 C 0.45511 0.16924 0.65955 0.0
C1271 C 0.41266 0.11552 0.66044 0.0
C1272 C 0.43143 0.17801 0.65829 0.0
H1273 H 0.50441 0.27993 0.64536 0.0
N1274 N 0.41612 0.21519 0.65245 0.0
C1275 C 0.45486 0.26758 0.64347 0.0
C1276 C 0.43998 0.20855 0.65494 0.0
C1277 C 0.423 0.24383 0.64578 0.0
C1278 C 0.47975 0.26157 0.64727 0.0
C1279 C 0.47245 0.23153 0.65266 0.0
O1280 O 0.35787 0.19032 0.63135 0.0
O1281 O 0.32207 0.17183 0.67025 0.0
O1282 O 0.28685 0.1209 0.67914 0.0
O1283 O 0.32699 0.1257 0.65856 0.0
O1284 O 0.34744 0.20824 0.65248 0.0
O1285 O 0.35678 0.14655 0.63438 0.0
O1286 O 0.32059 0.14171 0.72537 0.0
O1287 O 0.3579 0.16163 0.68667 0.0
O1288 O 0.39265 0.21343 0.67704 0.0
O1289 O 0.35338 0.20738 0.69874 0.0
O1290 O 0.33242 0.12496 0.70425 0.0
O1291 O 0.32333 0.18632 0.72268 0.0
C1292 C 0.32209 0.19491 0.66269 0.0
C1293 C 0.37482 0.17298 0.60557 0.0
C1294 C 0.37724 0.17633 0.57155 0.0
C1295 C 0.35958 0.16903 0.58829 0.0
C1296 C 0.41039 0.18729 0.57238 0.0
C1297 C 0.40786 0.18379 0.60615 0.0
C1298 C 0.42553 0.19094 0.5896 0.0
C1299 C 0.29753 0.11029 0.66558 0.0
C1300 C 0.35579 0.16627 0.62274 0.0
C1301 C 0.49635 0.22341 0.65507 0.0
C1302 C 0.48768 0.19227 0.65854 0.0
C1303 C 0.35808 0.13867 0.6943 0.0
C1304 C 0.30493 0.15981 0.75144 0.0
C1305 C 0.32073 0.16523 0.76866 0.0
C1306 C 0.30346 0.15846 0.78553 0.0
C1307 C 0.27013 0.14663 0.78486 0.0
C1308 C 0.27173 0.14812 0.75105 0.0
C1309 C 0.25444 0.14158 0.76771 0.0
C1310 C 0.38246 0.22332 0.69122 0.0
C1311 C 0.32359 0.16602 0.73415 0.0
H1312 H 0.33389 0.1599 0.58791 0.0
H1313 H 0.42461 0.19316 0.55973 0.0
H1314 H 0.41995 0.18665 0.6193 0.0
H1315 H 0.45106 0.19936 0.59012 0.0
H1316 H 0.34653 0.17502 0.76887 0.0
H1317 H 0.25617 0.14109 0.79761 0.0
H1318 H 0.25919 0.14409 0.73794 0.0
H1319 H 0.22879 0.13247 0.76734 0.0
Tb1320 Tb 0.85396 0.15805 0.70139 0.0
C1321 C 0.78585 0.20915 0.65277 0.0
C1322 C 0.73002 0.16934 0.65506 0.0
C1323 C 0.74448 0.22347 0.65022 0.0
C1324 C 0.76285 0.17843 0.65541 0.0
C1325 C 0.77704 0.23198 0.64959 0.0
C1326 C 0.72097 0.19216 0.65299 0.0
C1327 C 0.8328 0.26893 0.64339 0.0
N1328 N 0.81689 0.21622 0.65205 0.0
C1329 C 0.84024 0.24534 0.64655 0.0
C1330 C 0.80111 0.26236 0.64521 0.0
Tb1331 Tb 0.82721 0.17663 0.65833 0.0
N1332 N 0.77269 0.15719 0.65706 0.0
C1333 C 0.75056 0.12599 0.65678 0.0
C1334 C 0.70733 0.13756 0.65613 0.0
C1335 C 0.71768 0.11577 0.65663 0.0
H1336 H 0.86482 0.25067 0.64519 0.0
H1337 H 0.70034 0.09107 0.65703 0.0
H1338 H 0.69588 0.1857 0.65291 0.0
H1339 H 0.85151 0.29216 0.63956 0.0
H1340 H 0.75785 0.10865 0.65731 0.0
H1341 H 0.98075 0.24371 0.70069 0.0
H1342 H 0.68187 0.12959 0.656 0.0
H1343 H 0.81791 0.08537 0.71689 0.0
H1344 H 0.9231 0.22594 0.70157 0.0
H1345 H 0.8314 0.04383 0.72202 0.0
H1346 H 0.73718 0.24071 0.64803 0.0
H1347 H 0.99938 0.20526 0.7008 0.0
H1348 H 0.98559 0.14913 0.70368 0.0
H1349 H 0.79537 0.28062 0.64265 0.0
H1350 H 0.94465 0.09427 0.7095 0.0
N1351 N 0.90852 0.17749 0.70169 0.0
C1352 C 0.93059 0.20872 0.70176 0.0
C1353 C 0.97391 0.19725 0.70123 0.0
C1354 C 0.95135 0.16547 0.70259 0.0
C1355 C 0.96348 0.219 0.70124 0.0
C1356 C 0.91852 0.15635 0.70301 0.0
H1357 H 0.88695 0.05476 0.71676 0.0
N1358 N 0.86485 0.11885 0.70779 0.0
C1359 C 0.84971 0.06671 0.71736 0.0
C1360 C 0.89574 0.12576 0.70614 0.0
C1361 C 0.84213 0.09027 0.71441 0.0
C1362 C 0.88106 0.07294 0.71433 0.0
C1363 C 0.90476 0.10303 0.7091 0.0
O1364 O 0.829 0.14292 0.72693 0.0
O1365 O 0.81642 0.16165 0.68704 0.0
O1366 O 0.83324 0.21235 0.67835 0.0
O1367 O 0.86658 0.20749 0.70031 0.0
O1368 O 0.80273 0.12485 0.70476 0.0
O1369 O 0.87333 0.1864 0.72517 0.0
O1370 O 0.8523 0.19307 0.63294 0.0
O1371 O 0.86468 0.17249 0.6725 0.0
O1372 O 0.84391 0.11988 0.68235 0.0
O1373 O 0.81374 0.12712 0.65913 0.0
O1374 O 0.87854 0.21014 0.65554 0.0
O1375 O 0.80941 0.14818 0.63447 0.0
C1376 C 0.79203 0.13827 0.69388 0.0
C1377 C 0.86021 0.16018 0.75425 0.0
C1378 C 0.85686 0.15948 0.78835 0.0
C1379 C 0.84852 0.16623 0.77079 0.0
C1380 C 0.87725 0.14673 0.78903 0.0
C1381 C 0.88061 0.1476 0.75526 0.0
C1382 C 0.88901 0.14088 0.77259 0.0
C1383 C 0.85288 0.22252 0.69284 0.0
C1384 C 0.85052 0.16685 0.73613 0.0
C1385 C 0.93722 0.11146 0.70754 0.0
C1386 C 0.96052 0.14269 0.70425 0.0
C1387 C 0.88918 0.19594 0.66577 0.0
C1388 C 0.8219 0.17435 0.60538 0.0
C1389 C 0.83349 0.1677 0.589 0.0
C1390 C 0.82491 0.17363 0.57128 0.0
C1391 C 0.80431 0.18612 0.57028 0.0
C1392 C 0.80137 0.18673 0.60405 0.0
C1393 C 0.79266 0.19258 0.58656 0.0
C1394 C 0.82492 0.11061 0.66754 0.0
C1395 C 0.8319 0.16855 0.62365 0.0
H1396 H 0.83332 0.17658 0.76996 0.0
H1397 H 0.88396 0.14112 0.8023 0.0
H1398 H 0.89006 0.14305 0.74271 0.0
H1399 H 0.90469 0.13108 0.77329 0.0
H1400 H 0.84885 0.15753 0.59009 0.0
H1401 H 0.79738 0.19108 0.55688 0.0
H1402 H 0.79208 0.19183 0.61647 0.0
H1403 H 0.77685 0.20221 0.58561 0.0
C1404 C 0.3958 0.90199 0.03996 0.0
C1405 C 0.36982 0.90624 0.04475 0.0
C1406 C 0.42425 0.92662 0.0324 0.0
C1407 C 0.42734 0.95606 0.02913 0.0
H1408 H 0.39473 0.88002 0.04293 0.0
H1409 H 0.44434 0.92297 0.02991 0.0
S1410 S 0.36479 0.97775 0.03681 0.0
N1411 N 0.34796 0.94113 0.04389 0.0
N1412 N 0.40123 0.98721 0.02974 0.0
C1413 C 0.40092 0.95996 0.03292 0.0
C1414 C 0.37216 0.93508 0.04063 0.0
C1415 C 0.07324 0.43721 0.04273 0.0
C1416 C 0.10399 0.46268 0.04629 0.0
C1417 C 0.04833 0.44164 0.03608 0.0
C1418 C 0.05311 0.47168 0.03257 0.0
H1419 H 0.06824 0.41363 0.04539 0.0
H1420 H 0.02492 0.42132 0.03385 0.0
S1421 S 0.12855 0.54622 0.04112 0.0
N1422 N 0.1376 0.51906 0.04644 0.0
N1423 N 0.0906 0.52739 0.03453 0.0
C1424 C 0.08371 0.49737 0.03622 0.0
C1425 C 0.10921 0.49284 0.04282 0.0
C1426 C 0.5284 0.6159 0.0598 0.0
C1427 C 0.54509 0.6444 0.0501 0.0
C1428 C 0.52081 0.58765 0.05114 0.0
C1429 C 0.52945 0.58697 0.03248 0.0
H1430 H 0.52089 0.6154 0.07413 0.0
H1431 H 0.50777 0.56615 0.05901 0.0
S1432 S 0.57624 0.65506 1.00163 0.0
N1433 N 0.57188 0.67023 0.02121 0.0
N1434 N 0.55761 0.61696 1.00505 0.0
C1435 C 0.54659 0.61516 0.02273 0.0
C1436 C 0.55439 0.64396 0.03152 0.0
C1437 C 0.90087 0.36154 0.99236 0.0
C1438 C 0.8951 0.35946 0.97298 0.0
C1439 C 0.92334 0.3898 1.00069 0.0
C1440 C 0.94086 0.41696 0.98996 0.0
H1441 H 0.88833 0.34105 1.00113 0.0
H1442 H 0.92751 0.39017 0.01554 0.0
S1443 S 0.93341 0.42486 0.93901 0.0
N1444 N 0.90781 0.38776 0.94348 0.0
N1445 N 0.95024 0.44059 0.95921 0.0
C1446 C 0.93526 0.41537 0.97066 0.0
C1447 C 0.9123 0.38671 0.96215 0.0
C1448 C 0.63982 0.56266 0.98194 0.0
C1449 C 0.64354 0.53661 0.9786 0.0
C1450 C 0.61097 0.55923 0.98895 0.0
C1451 C 0.58457 0.52965 0.99302 0.0
H1452 H 0.6592 0.58592 0.97874 0.0
H1453 H 0.60904 0.57997 0.99084 0.0
S1454 S 0.58148 0.45381 0.98611 0.0
N1455 N 0.61829 0.48012 0.97982 0.0
N1456 N 0.56387 0.47368 0.9925 0.0
C1457 C 0.58805 0.50338 0.98993 0.0
C1458 C 0.61762 0.50689 0.98294 0.0
C1459 C 0.4677 0.10279 0.99202 0.0
C1460 C 0.47257 0.10919 0.97273 0.0
C1461 C 0.47613 0.08242 1.00063 0.0
C1462 C 0.48972 0.06786 0.99025 0.0
H1463 H 0.45657 0.11301 1.00042 0.0
H1464 H 0.47095 0.07723 0.01533 0.0
S1465 S 0.51036 0.07901 0.9399 0.0
N1466 N 0.49402 0.10094 0.94387 0.0
N1467 N 0.50956 0.0625 0.9601 0.0
C1468 C 0.49543 0.07458 0.97113 0.0
C1469 C 0.48696 0.09531 0.96235 0.0
C1470 C 0.61988 0.1004 0.98508 0.0
C1471 C 0.64609 0.09641 0.98047 0.0
C1472 C 0.59116 0.07544 0.99212 0.0
C1473 C 0.58798 0.04586 0.99501 0.0
H1474 H 0.621 0.12246 0.98232 0.0
H1475 H 0.57097 0.07896 0.99446 0.0
S1476 S 0.65089 0.02459 0.98764 0.0
N1477 N 0.66798 0.06153 0.98113 0.0
N1478 N 0.61415 0.01479 0.99426 0.0
C1479 C 0.61456 0.04216 0.99141 0.0
C1480 C 0.64362 0.06741 0.98425 0.0
C1481 C 0.90307 0.50851 0.98153 0.0
C1482 C 0.90656 0.53768 0.97672 0.0
C1483 C 0.92925 0.5061 0.98833 0.0
C1484 C 0.95958 0.53287 0.99087 0.0
H1485 H 0.88032 0.48737 0.97934 0.0
H1486 H 0.92594 0.48317 0.99113 0.0
S1487 S 0.98034 0.61468 0.98201 0.0
N1488 N 0.94216 0.59382 0.9761 0.0
N1489 N 0.99103 0.58932 0.98892 0.0
C1490 C 0.96298 0.56209 0.98663 0.0
C1491 C 0.93653 0.56452 0.97967 0.0
C1492 C 0.46263 0.35788 0.99234 0.0
C1493 C 0.46773 0.35652 0.97306 0.0
C1494 C 0.46996 0.38614 1.00095 0.0
C1495 C 0.48248 0.41383 0.99053 0.0
H1496 H 0.45233 0.33685 1.00075 0.0
H1497 H 0.46503 0.38614 0.01569 0.0
S1498 S 0.50367 0.42361 0.94025 0.0
N1499 N 0.48853 0.38593 0.94422 0.0
N1500 N 0.50191 0.43886 0.96042 0.0
C1501 C 0.4884 0.41299 0.97141 0.0
C1502 C 0.48114 0.38436 0.96267 0.0
C1503 C 0.12713 0.63198 0.03766 0.0
C1504 C 0.11768 0.64782 0.05014 0.0
C1505 C 0.10452 0.60383 0.02935 0.0
C1506 C 0.07143 0.59022 0.03313 0.0
H1507 H 0.15231 0.64103 0.03459 0.0
H1508 H 0.11334 0.5924 0.02019 0.0
S1509 S 0.03407 0.62394 0.06379 0.0
N1510 N 0.0729 0.64905 0.06502 0.0
N1511 N 0.03046 0.59597 0.04972 0.0
C1512 C 0.06164 0.60625 0.04533 0.0
C1513 C 0.08471 0.63502 0.05375 0.0
C1514 C 0.37014 0.43707 0.04263 0.0
C1515 C 0.36643 0.46313 0.04594 0.0
C1516 C 0.39883 0.44045 0.03539 0.0
C1517 C 0.42508 0.46998 0.03107 0.0
H1518 H 0.35085 0.41384 0.04599 0.0
H1519 H 0.40072 0.41969 0.0335 0.0
S1520 S 0.42816 0.54584 0.03772 0.0
N1521 N 0.39153 0.5196 0.04436 0.0
N1522 N 0.44574 0.52595 0.03128 0.0
C1523 C 0.42165 0.49627 0.03414 0.0
C1524 C 0.39221 0.49282 0.04135 0.0
C1525 C 0.52518 0.90291 0.05941 0.0
C1526 C 0.54498 0.89361 0.0503 0.0
C1527 C 0.51692 0.92338 0.05079 0.0
C1528 C 0.52804 0.93502 0.03279 0.0
H1529 H 0.51585 0.89415 0.07324 0.0
H1530 H 0.50172 0.93015 0.05824 0.0
S1531 S 0.58304 0.92063 1.00379 0.0
N1532 N 0.57707 0.89927 0.02273 0.0
N1533 N 0.56163 0.938 1.00671 0.0
C1534 C 0.54823 0.92646 0.02366 0.0
C1535 C 0.55664 0.90561 0.03237 0.0
C1536 C 0.06014 0.23223 0.37388 0.0
C1537 C 0.03346 0.23533 0.37869 0.0
C1538 C 0.08811 0.25753 0.36637 0.0
C1539 C 0.08999 0.2865 0.36323 0.0
H1540 H 0.05998 0.21068 0.37682 0.0
H1541 H 0.10876 0.25481 0.36387 0.0
S1542 S 0.02524 0.30513 0.37097 0.0
N1543 N 0.00963 0.26855 0.37795 0.0
N1544 N 0.06202 0.31592 0.36393 0.0
C1545 C 0.06287 0.28922 0.36702 0.0
C1546 C 0.03459 0.26365 0.37465 0.0
C1547 C 0.77413 0.82487 0.37573 0.0
C1548 C 0.77033 0.79546 0.38018 0.0
C1549 C 0.74815 0.82778 0.36912 0.0
C1550 C 0.7177 0.80131 0.36633 0.0
H1551 H 0.79693 0.84584 0.37815 0.0
H1552 H 0.75173 0.85091 0.36678 0.0
S1553 S 0.69609 0.71902 0.37417 0.0
N1554 N 0.73429 0.73937 0.38015 0.0
N1555 N 0.68578 0.74485 0.36766 0.0
C1556 C 0.714 0.77184 0.37015 0.0
C1557 C 0.74025 0.76889 0.37695 0.0
C1558 C 0.21647 0.97914 0.36535 0.0
C1559 C 0.21125 0.9801 0.38464 0.0
C1560 C 0.20923 0.95108 0.35654 0.0
C1561 C 0.19665 0.92318 0.36674 0.0
H1562 H 0.22676 1.00032 0.35708 0.0
H1563 H 0.21423 0.95138 0.34178 0.0
S1564 S 0.1755 0.91244 0.41704 0.0
N1565 N 0.19056 0.95018 0.41333 0.0
N1566 N 0.17726 0.89758 0.39673 0.0
C1567 C 0.19073 0.92365 0.3859 0.0
C1568 C 0.19794 0.9521 0.39487 0.0
C1569 C 0.56755 0.69019 0.32659 0.0
C1570 C 0.56154 0.68828 0.30723 0.0
C1571 C 0.58978 0.71849 0.33498 0.0
C1572 C 0.60687 0.74577 0.3243 0.0
H1573 H 0.55535 0.66957 0.33529 0.0
H1574 H 0.59408 0.71883 0.34982 0.0
S1575 S 0.59824 0.75418 0.27354 0.0
N1576 N 0.57323 0.7169 0.2779 0.0
N1577 N 0.61534 0.76978 0.2937 0.0
C1578 C 0.60095 0.74436 0.30504 0.0
C1579 C 0.57818 0.7157 0.2965 0.0
C1580 C 0.28608 0.845 0.31724 0.0
C1581 C 0.31266 0.87443 0.31296 0.0
C1582 C 0.25716 0.84218 0.32396 0.0
C1583 C 0.25411 0.86874 0.32695 0.0
H1584 H 0.2871 0.82399 0.3145 0.0
H1585 H 0.23677 0.81907 0.32603 0.0
S1586 S 0.31779 0.95104 0.32012 0.0
N1587 N 0.3348 0.93057 0.31379 0.0
N1588 N 0.28081 0.92526 0.32641 0.0
C1589 C 0.28102 0.8982 0.32358 0.0
C1590 C 0.31022 0.90106 0.31669 0.0
C1591 C 0.15918 0.45171 0.31921 0.0
C1592 C 0.13463 0.44267 0.3059 0.0
C1593 C 0.16467 0.42958 0.32816 0.0
C1594 C 0.14599 0.39753 0.32406 0.0
H1595 H 0.1748 0.47616 0.32244 0.0
H1596 H 0.18427 0.43789 0.33802 0.0
S1597 S 0.07628 0.36162 0.29168 0.0
N1598 N 0.08958 0.39942 0.29028 0.0
N1599 N 0.10029 0.35792 0.30659 0.0
C1600 C 0.12067 0.38818 0.31116 0.0
C1601 C 0.11493 0.4107 0.3022 0.0
C1602 C 0.30549 0.39918 0.31753 0.0
C1603 C 0.30996 0.42898 0.31371 0.0
C1604 C 0.27622 0.37525 0.32448 0.0
C1605 C 0.25024 0.3801 0.32794 0.0
H1606 H 0.32451 0.39409 0.31464 0.0
H1607 H 0.27354 0.35237 0.32663 0.0
S1608 S 0.24961 0.45394 0.31997 0.0
N1609 N 0.28625 0.46229 0.31411 0.0
N1610 N 0.23094 0.41704 0.32663 0.0
C1611 C 0.25463 0.41001 0.32455 0.0
C1612 C 0.28462 0.43454 0.31765 0.0
C1613 C 0.60328 0.89564 0.31344 0.0
C1614 C 0.57278 0.86962 0.31011 0.0
C1615 C 0.6286 0.89214 0.32038 0.0
C1616 C 0.62449 0.86252 0.32442 0.0
H1617 H 0.60772 0.91894 0.31045 0.0
H1618 H 0.65174 0.91287 0.32253 0.0
S1619 S 0.55004 0.78671 0.31673 0.0
N1620 N 0.5402 0.8131 0.31072 0.0
N1621 N 0.58796 0.80652 0.32329 0.0
C1622 C 0.5942 0.83625 0.32097 0.0
C1623 C 0.56827 0.83982 0.31405 0.0
C1624 C 0.16819 0.71356 0.31573 0.0
C1625 C 0.14158 0.69689 0.30397 0.0
C1626 C 0.17372 0.74111 0.32451 0.0
C1627 C 0.15278 0.753 0.32193 0.0
H1628 H 0.18524 0.7056 0.31786 0.0
H1629 H 0.19495 0.75342 0.3331 0.0
S1630 S 0.0781 0.7164 0.29361 0.0
N1631 N 0.09301 0.69296 0.29107 0.0
N1632 N 0.10344 0.74483 0.30734 0.0
C1633 C 0.1257 0.73611 0.31046 0.0
C1634 C 0.12009 0.70804 0.30156 0.0
C1635 C 0.79316 0.95738 0.37458 0.0
C1636 C 0.78377 0.97488 0.38568 0.0
C1637 C 0.77035 0.92931 0.36626 0.0
C1638 C 0.73715 0.91765 0.36856 0.0
H1639 H 0.81837 0.96511 0.3726 0.0
H1640 H 0.77897 0.91648 0.35819 0.0
S1641 S 0.70017 0.95593 0.39542 0.0
N1642 N 0.73915 0.97946 0.39788 0.0
N1643 N 0.69628 0.92674 0.38239 0.0
C1644 C 0.7275 0.93524 0.37946 0.0
C1645 C 0.75077 0.96382 0.38795 0.0
C1646 C 0.03878 0.77445 0.37493 0.0
C1647 C 0.03524 0.80054 0.37849 0.0
C1648 C 0.06751 0.77781 0.36776 0.0
C1649 C 0.09397 0.80739 0.36377 0.0
H1650 H 0.01933 0.75118 0.37806 0.0
H1651 H 0.06926 0.75702 0.36564 0.0
S1652 S 0.09752 0.88332 0.37119 0.0
N1653 N 0.06072 0.85706 0.37754 0.0
N1654 N 0.11494 0.8634 0.36455 0.0
C1655 C 0.09068 0.83371 0.36709 0.0
C1656 C 0.06123 0.83027 0.37424 0.0
C1657 C 0.21308 0.23447 0.36569 0.0
C1658 C 0.20708 0.22745 0.38486 0.0
C1659 C 0.20477 0.2548 0.35692 0.0
C1660 C 0.19022 0.2687 0.36704 0.0
H1661 H 0.22489 0.22469 0.35752 0.0
H1662 H 0.21064 0.26037 0.34232 0.0
S1663 S 0.16642 0.25567 0.4169 0.0
N1664 N 0.18357 0.23436 0.41327 0.0
N1665 N 0.16823 0.27273 0.39674 0.0
C1666 C 0.18342 0.26138 0.38603 0.0
C1667 C 0.19177 0.24069 0.39496 0.0
C1668 C 0.72862 0.56719 0.70643 0.0
C1669 C 0.70212 0.57066 0.71115 0.0
C1670 C 0.75696 0.59238 0.69918 0.0
C1671 C 0.75945 0.62165 0.6962 0.0
H1672 H 0.72804 0.54541 0.70931 0.0
H1673 H 0.77745 0.58934 0.6968 0.0
S1674 S 0.69538 0.64133 0.70362 0.0
N1675 N 0.6791 0.60457 0.71036 0.0
N1676 N 0.73219 0.65174 0.69683 0.0
C1677 C 0.73249 0.62473 0.69981 0.0
C1678 C 0.70383 0.59927 0.70718 0.0
C1679 C 0.40791 0.10306 0.71054 0.0
C1680 C 0.43851 0.12903 0.71378 0.0
C1681 C 0.38254 0.10665 0.70375 0.0
C1682 C 0.38669 0.13631 0.69977 0.0
H1683 H 0.40344 0.07974 0.71348 0.0
H1684 H 0.35934 0.08597 0.7017 0.0
S1685 S 0.46133 0.212 0.70742 0.0
N1686 N 0.47116 0.18553 0.71323 0.0
N1687 N 0.42335 0.19227 0.70098 0.0
C1688 C 0.41706 0.16251 0.70317 0.0
C1689 C 0.44303 0.15885 0.70993 0.0
C1690 C 0.87725 0.30719 0.70056 0.0
C1691 C 0.87169 0.308 0.71982 0.0
C1692 C 0.87088 0.27934 0.69179 0.0
C1693 C 0.85876 0.25147 0.70198 0.0
H1694 H 0.88728 0.32837 0.6923 0.0
H1695 H 0.87633 0.27985 0.67709 0.0
S1696 S 0.83718 0.24029 0.75219 0.0
N1697 N 0.85128 0.27789 0.74847 0.0
N1698 N 0.83959 0.22569 0.73192 0.0
C1699 C 0.85249 0.25175 0.72109 0.0
C1700 C 0.85885 0.27999 0.73003 0.0
C1701 C 0.24141 0.04969 0.63107 0.0
C1702 C 0.23058 0.02141 0.64084 0.0
C1703 C 0.26331 0.07842 0.63917 0.0
C1704 C 0.27506 0.07984 0.6573 0.0
H1705 H 0.23261 0.04965 0.61714 0.0
H1706 H 0.27085 0.09969 0.63128 0.0
S1707 S 0.25708 0.01285 0.68807 0.0
N1708 N 0.23508 0.99682 0.66925 0.0
N1709 N 0.27639 0.05087 0.68427 0.0
C1710 C 0.26509 0.05192 0.66707 0.0
C1711 C 0.24276 0.02267 0.6589 0.0
C1712 C 0.97536 0.23099 0.6492 0.0
C1713 C 0.97911 0.20493 0.6459 0.0
C1714 C 0.94659 0.22761 0.65636 0.0
C1715 C 0.92029 0.19806 0.66063 0.0
H1716 H 0.99469 0.25423 0.6459 0.0
H1717 H 0.94471 0.24836 0.65828 0.0
S1718 S 0.91718 0.1222 0.6538 0.0
N1719 N 0.95388 0.14846 0.6473 0.0
N1720 N 0.89963 0.1421 0.66024 0.0
C1721 C 0.92375 0.17178 0.6575 0.0
C1722 C 0.95323 0.17524 0.65036 0.0
C1723 C 0.78358 0.74384 0.63827 0.0
C1724 C 0.80313 0.77627 0.6403 0.0
C1725 C 0.79121 0.72317 0.64715 0.0
C1726 C 0.81867 0.73405 0.65849 0.0
H1727 H 0.76205 0.73432 0.62982 0.0
H1728 H 0.77533 0.69842 0.64506 0.0
S1729 S 0.87884 0.81717 0.66734 0.0
N1730 N 0.85188 0.81852 0.65374 0.0
N1731 N 0.86604 0.77975 0.6707 0.0
C1732 C 0.83844 0.76653 0.66064 0.0
C1733 C 0.83074 0.78759 0.65147 0.0
C1734 C 0.97758 0.74032 0.65553 0.0
C1735 C 0.97744 0.76459 0.64538 0.0
C1736 C 0.94907 0.71586 0.66306 0.0
C1737 C 0.91981 0.71573 0.66165 0.0
H1738 H 0.99955 0.73947 0.65688 0.0
H1739 H 0.9498 0.69662 0.66982 0.0
S1740 S 0.90658 0.77264 0.63497 0.0
N1741 N 0.94553 0.78609 0.63324 0.0
N1742 N 0.89229 0.74083 0.64795 0.0
C1743 C 0.91955 0.74006 0.65162 0.0
C1744 C 0.94833 0.76441 0.64346 0.0
C1745 C 0.23737 0.17435 0.64794 0.0
C1746 C 0.24143 0.20379 0.64323 0.0
C1747 C 0.26318 0.17134 0.65483 0.0
C1748 C 0.29369 0.19774 0.65761 0.0
H1749 H 0.21446 0.15346 0.64564 0.0
H1750 H 0.25942 0.14821 0.65754 0.0
S1751 S 0.31601 0.28004 0.64896 0.0
N1752 N 0.27786 0.25979 0.64288 0.0
N1753 N 0.32597 0.25415 0.65586 0.0
C1754 C 0.29767 0.22722 0.65342 0.0
C1755 C 0.27163 0.23026 0.64635 0.0
C1756 C 0.81913 0.05266 0.63144 0.0
C1757 C 0.80226 0.02396 0.6409 0.0
C1758 C 0.82634 0.08066 0.64026 0.0
C1759 C 0.81716 0.08087 0.65885 0.0
H1760 H 0.82703 0.0535 0.61716 0.0
H1761 H 0.83948 0.10234 0.63256 0.0
S1762 S 0.76985 0.01212 0.68912 0.0
N1763 N 0.77478 0.99742 0.6695 0.0
N1764 N 0.78844 0.05029 0.68599 0.0
C1765 C 0.7999 0.05249 0.66838 0.0
C1766 C 0.79245 0.02393 0.65942 0.0
C1767 C 0.44641 0.30802 0.69824 0.0
C1768 C 0.45226 0.30957 0.71761 0.0
C1769 C 0.42361 0.28008 0.68974 0.0
C1770 C 0.40576 0.25278 0.70031 0.0
H1771 H 0.45916 0.32869 0.68963 0.0
H1772 H 0.4195 0.28003 0.67489 0.0
S1773 S 0.41379 0.24337 0.75103 0.0
N1774 N 0.43967 0.2805 0.74681 0.0
N1775 N 0.39652 0.22833 0.73081 0.0
C1776 C 0.41157 0.25382 0.71957 0.0
C1777 C 0.43491 0.28211 0.72822 0.0
C1778 C 0.72746 0.15811 0.70745 0.0
C1779 C 0.7014 0.12854 0.7121 0.0
C1780 C 0.75654 0.16142 0.70061 0.0
C1781 C 0.76026 0.13519 0.69789 0.0
H1782 H 0.72589 0.17891 0.70993 0.0
H1783 H 0.77652 0.18465 0.69815 0.0
S1784 S 0.69814 0.05259 0.70577 0.0
N1785 N 0.68051 0.07257 0.71194 0.0
N1786 N 0.73475 0.07875 0.69911 0.0
C1787 C 0.73389 0.10555 0.70169 0.0
C1788 C 0.70454 0.10221 0.70869 0.0
C1789 C 0.87868 0.56572 0.69996 0.0
C1790 C 0.87263 0.55892 0.71915 0.0
C1791 C 0.87149 0.58685 0.69116 0.0
C1792 C 0.85807 0.60185 0.70127 0.0
H1793 H 0.88969 0.55514 0.69178 0.0
H1794 H 0.87737 0.59217 0.67654 0.0
S1795 S 0.83436 0.58972 0.75117 0.0
N1796 N 0.85009 0.56717 0.74756 0.0
N1797 N 0.83687 0.607 0.73099 0.0
C1798 C 0.85116 0.59472 0.72028 0.0
C1799 C 0.85835 0.5732 0.72923 0.0
C1800 C 0.52267 0.9861 0.16993 0.0
C1801 C 0.49065 0.9628 0.17327 0.0
C1802 C 0.53201 0.00255 0.15297 0.0
C1803 C 0.50983 0.99643 0.13848 0.0
H1804 H 0.54063 0.99223 0.18071 0.0
H1805 H 0.55692 0.0204 0.15123 0.0
S1806 S 0.42327 0.93678 0.13969 0.0
N1807 N 0.43693 0.93352 0.16024 0.0
N1808 N 0.45435 0.96488 0.12852 0.0
C1809 C 0.47784 0.97276 0.14144 0.0
C1810 C 0.46828 0.95597 0.15878 0.0
C1811 C 0.0319 0.50408 0.1565 0.0
C1812 C 0.02755 0.52118 0.17077 0.0
C1813 C 0.0145 0.49721 0.13978 0.0
C1814 C 0.99193 0.50697 0.13676 0.0
H1815 H 0.0492 0.49633 0.15817 0.0
H1816 H 0.01862 0.484 0.12917 0.0
S1817 S 0.97118 0.55187 0.16987 0.0
N1818 N 0.99843 0.54699 0.18098 0.0
N1819 N 0.96632 0.53473 0.1494 0.0
C1820 C 0.9872 0.52389 0.15096 0.0
C1821 C 1.0049 0.53088 0.16798 0.0
C1822 C 0.48748 0.48254 0.16966 0.0
C1823 C 0.48756 0.51061 0.17299 0.0
C1824 C 0.49792 0.47695 0.15252 0.0
C1825 C 0.50863 0.4991 0.13797 0.0
H1826 H 0.48016 0.4651 0.18057 0.0
H1827 H 0.49783 0.45517 0.1507 0.0
S1828 S 0.51195 0.57569 0.13926 0.0
N1829 N 0.49776 0.56017 0.15997 0.0
N1830 N 0.51794 0.54996 0.12794 0.0
C1831 C 0.50803 0.52693 0.14095 0.0
C1832 C 0.49744 0.53263 0.15841 0.0
C1833 C 0.98772 0.50462 0.86591 0.0
C1834 C 0.9936 0.48839 0.85174 0.0
C1835 C 1.00392 0.51119 0.88305 0.0
C1836 C 0.02678 0.50199 0.88662 0.0
H1837 H 0.97013 0.51192 0.86382 0.0
H1838 H 0.99868 0.52379 0.89355 0.0
S1839 S 0.0512 0.45925 0.85405 0.0
N1840 N 0.02439 0.4639 0.84227 0.0
N1841 N 0.05419 0.47554 0.87463 0.0
C1842 C 0.03296 0.48586 0.87255 0.0
C1843 C 0.0165 0.4792 0.8551 0.0
C1844 C 0.4911 0.47867 0.85401 0.0
C1845 C 0.52345 0.48723 0.85123 0.0
C1846 C 0.48065 0.48513 0.87084 0.0
C1847 C 0.50203 0.50031 0.88568 0.0
H1848 H 0.47372 0.46721 0.84297 0.0
H1849 H 0.45548 0.47801 0.87226 0.0
S1850 S 0.58919 0.52716 0.88571 0.0
N1851 N 0.57674 0.5111 0.86494 0.0
N1852 N 0.55721 0.5238 0.89645 0.0
C1853 C 0.53444 0.50882 0.88316 0.0
C1854 C 0.54512 0.50226 0.86597 0.0
C1855 C 0.54151 0.04131 0.86448 0.0
C1856 C 0.51882 0.03531 0.85029 0.0
C1857 C 0.53248 0.02505 0.88162 0.0
C1858 C 0.50049 0.00186 0.88514 0.0
H1859 H 0.56646 0.05871 0.86234 0.0
H1860 H 0.55085 0.03008 0.89197 0.0
S1861 S 0.43169 0.97767 0.85287 0.0
N1862 N 0.46281 0.00457 0.84114 0.0
N1863 N 0.4459 0.97468 0.87328 0.0
C1864 C 0.47753 0.99606 0.87121 0.0
C1865 C 0.48666 0.01258 0.85384 0.0
C1866 C 0.18915 0.32098 0.50313 0.0
C1867 C 0.1574 0.29719 0.50661 0.0
C1868 C 0.19792 0.3375 0.48617 0.0
C1869 C 0.17541 0.33096 0.4718 0.0
H1870 H 0.20734 0.32745 0.5138 0.0
H1871 H 0.22264 0.35574 0.48433 0.0
S1872 S 0.08936 0.26984 0.47338 0.0
N1873 N 0.1036 0.26694 0.49381 0.0
N1874 N 0.11991 0.29839 0.46212 0.0
C1875 C 0.14369 0.30676 0.4749 0.0
C1876 C 0.13473 0.2899 0.49223 0.0
C1877 C 0.69163 0.83245 0.49147 0.0
C1878 C 0.68642 0.8491 0.50565 0.0
C1879 C 0.67512 0.82592 0.47444 0.0
C1880 C 0.6526 0.83561 0.47101 0.0
H1881 H 0.70893 0.82475 0.49345 0.0
H1882 H 0.67986 0.813 0.46392 0.0
S1883 S 0.62987 0.87952 0.5037 0.0
N1884 N 0.65658 0.87448 0.51531 0.0
N1885 N 0.62618 0.86292 0.48315 0.0
C1886 C 0.64706 0.85214 0.48511 0.0
C1887 C 0.66384 0.85876 0.50244 0.0
C1888 C 0.16639 0.86575 0.49085 0.0
C1889 C 0.15473 0.84344 0.50532 0.0
C1890 C 0.1766 0.85978 0.47372 0.0
C1891 C 0.17593 0.83139 0.47049 0.0
H1892 H 0.1678 0.88812 0.49281 0.0
H1893 H 0.18592 0.87786 0.46313 0.0
S1894 S 0.14656 0.76479 0.50351 0.0
N1895 N 0.14257 0.79154 0.51505 0.0
N1896 N 0.16131 0.78021 0.48286 0.0
C1897 C 0.16371 0.80864 0.48468 0.0
C1898 C 0.15318 0.81466 0.50206 0.0
C1899 C 0.68104 0.81242 0.18948 0.0
C1900 C 0.65812 0.8215 0.18582 0.0
C1901 C 0.69699 0.81887 0.20668 0.0
C1902 C 0.69059 0.83456 0.22095 0.0
H1903 H 0.68693 0.80045 0.17889 0.0
H1904 H 0.71425 0.81118 0.20889 0.0
S1905 S 0.63265 0.86331 0.21846 0.0
N1906 N 0.62945 0.84659 0.19801 0.0
N1907 N 0.66012 0.85954 0.23014 0.0
C1908 C 0.66778 0.84385 0.21747 0.0
C1909 C 0.65146 0.8372 0.19995 0.0
C1910 C 0.20937 0.83807 0.19876 0.0
C1911 C 0.18769 0.82192 0.18419 0.0
C1912 C 0.19889 0.84449 0.21567 0.0
C1913 C 0.1664 0.83537 0.21854 0.0
H1914 H 0.23459 0.84558 0.19712 0.0
H1915 H 0.21643 0.85715 0.22644 0.0
S1916 S 0.10001 0.79253 0.18484 0.0
N1917 N 0.13224 0.7972 0.17378 0.0
N1918 N 0.11258 0.80882 0.20553 0.0
C1919 C 0.14451 0.81913 0.20412 0.0
C1920 C 0.15512 0.8125 0.18698 0.0
C1921 C 0.20386 0.37426 0.19815 0.0
C1922 C 0.18142 0.36795 0.18376 0.0
C1923 C 0.19459 0.3582 0.21535 0.0
C1924 C 0.16258 0.33491 0.21874 0.0
H1925 H 0.22882 0.39174 0.19611 0.0
H1926 H 0.21277 0.36345 0.22586 0.0
S1927 S 0.09437 0.3099 0.18592 0.0
N1928 N 0.12562 0.33681 0.17428 0.0
N1929 N 0.10825 0.30726 0.20652 0.0
C1930 C 0.13987 0.32879 0.2046 0.0
C1931 C 0.14924 0.34513 0.18717 0.0
C1932 C 0.80401 0.62628 0.82638 0.0
C1933 C 0.82653 0.63167 0.84056 0.0
C1934 C 0.81331 0.64293 0.8094 0.0
C1935 C 0.84543 0.66593 0.80602 0.0
H1936 H 0.77897 0.60904 0.82843 0.0
H1937 H 0.79508 0.63835 0.79904 0.0
S1938 S 0.91388 0.6886 0.83833 0.0
N1939 N 0.88253 0.66162 0.84988 0.0
N1940 N 0.89995 0.69232 0.81801 0.0
C1941 C 0.86823 0.67115 0.81995 0.0
C1942 C 0.85882 0.6542 0.83716 0.0
C1943 C 0.32908 0.18604 0.83538 0.0
C1944 C 0.35185 0.17682 0.83919 0.0
C1945 C 0.31353 0.17988 0.81807 0.0
C1946 C 0.32014 0.1643 0.80383 0.0
H1947 H 0.32304 0.19796 0.84593 0.0
H1948 H 0.29642 0.18772 0.81575 0.0
S1949 S 0.37775 0.13519 0.80668 0.0
N1950 N 0.38058 0.15168 0.82718 0.0
N1951 N 0.35061 0.13923 0.79482 0.0
C1952 C 0.34277 0.15482 0.80746 0.0
C1953 C 0.35871 0.1612 0.82509 0.0
C1954 C 0.85663 0.18825 0.83762 0.0
C1955 C 0.82427 0.17942 0.84065 0.0
C1956 C 0.86683 0.1818 0.8207 0.0
C1957 C 0.84515 0.16634 0.80603 0.0
H1958 H 0.87423 0.19996 0.84852 0.0
H1959 H 0.89202 0.18917 0.81907 0.0
S1960 S 0.75782 0.1386 0.8067 0.0
N1961 N 0.77063 0.15492 0.82737 0.0
N1962 N 0.78968 0.1422 0.7957 0.0
C1963 C 0.81272 0.15749 0.80881 0.0
C1964 C 0.8023 0.16407 0.82608 0.0
C1965 C 0.35135 0.15011 0.52159 0.0
C1966 C 0.32897 0.1599 0.51802 0.0
C1967 C 0.36706 0.15586 0.53882 0.0
C1968 C 0.36098 0.17158 0.5532 0.0
H1969 H 0.35685 0.13793 0.51094 0.0
H1970 H 0.38373 0.14744 0.54099 0.0
S1971 S 0.30492 0.20257 0.55089 0.0
N1972 N 0.30145 0.18606 0.53033 0.0
N1973 N 0.33174 0.19774 0.56255 0.0
C1974 C 0.33894 0.18185 0.54977 0.0
C1975 C 0.32283 0.17589 0.53221 0.0
C1976 C 0.82524 0.14314 0.52252 0.0
C1977 C 0.8577 0.15233 0.51952 0.0
C1978 C 0.81496 0.15003 0.53927 0.0
C1979 C 0.83666 0.16627 0.5538 0.0
H1980 H 0.80763 0.13086 0.51171 0.0
H1981 H 0.78971 0.14239 0.54089 0.0
S1982 S 0.92424 0.19519 0.55314 0.0
N1983 N 0.91145 0.17799 0.53268 0.0
N1984 N 0.89224 0.19151 0.56403 0.0
C1985 C 0.86919 0.17546 0.55105 0.0
C1986 C 0.87968 0.16845 0.53395 0.0
C1987 C 0.86095 0.68207 0.52119 0.0
C1988 C 0.85882 0.70914 0.51829 0.0
C1989 C 0.85155 0.66566 0.53818 0.0
C1990 C 0.83986 0.6757 0.55312 0.0
H1991 H 0.86908 0.67292 0.51002 0.0
H1992 H 0.85315 0.64466 0.53956 0.0
S1993 S 0.83131 0.74624 0.5532 0.0
N1994 N 0.84562 0.74615 0.53222 0.0
N1995 N 0.82763 0.71513 0.56404 0.0
C1996 C 0.83849 0.70325 0.55064 0.0
C1997 C 0.84794 0.71992 0.53327 0.0
loop_
_geom_bond_atom_site_label_1
_geom_bond_atom_site_label_2
_geom_bond_distance
_geom_bond_site_symmetry_2
_ccdc_geom_bond_type
C0 C1 1.384 . S
C0 H13 0.947 . S
C0 C35 1.382 . S
C1 C0 1.384 . S
C1 C2 1.378 . S
C2 C1 1.378 . S
C2 C3 1.378 . S
C2 H14 0.952 . S
C3 C2 1.378 . S
C3 H15 0.950 . S
C3 C34 1.383 . S
H4 C23 0.947 . S
H5 C24 0.946 . S
H6 C26 0.953 . S
H7 C27 0.945 . S
H8 C29 0.952 . S
H9 C30 0.949 . S
H10 C32 0.950 . S
H11 C33 0.948 . S
H12 C35 0.951 . S
H13 C0 0.947 . S
H14 C2 0.952 . S
H15 C3 0.950 . S
N16 C19 1.382 . S
N16 C21 1.363 . S
N17 C19 1.371 . S
N17 C20 1.372 . S
N18 C20 1.361 . S
N18 C21 1.377 . S
C19 N16 1.382 . S
C19 N17 1.371 . S
C19 C22 1.480 . S
C20 N17 1.372 . S
C20 N18 1.361 . S
C20 C28 1.457 . S
C21 N16 1.363 . S
C21 N18 1.377 . S
C21 C34 1.479 . S
C22 C19 1.480 . S
C22 C23 1.383 . S
C22 C27 1.385 . S
C23 H4 0.947 . S
C23 C22 1.383 . S
C23 C24 1.388 . S
C24 H5 0.946 . S
C24 C23 1.388 . S
C24 C25 1.384 . S
C25 C24 1.384 . S
C25 C26 1.377 . S
C26 H6 0.953 . S
C26 C25 1.377 . S
C26 C27 1.369 . S
C27 H7 0.945 . S
C27 C22 1.385 . S
C27 C26 1.369 . S
C28 C20 1.457 . S
C28 C29 1.372 . S
C28 C33 1.364 . S
C29 H8 0.952 . S
C29 C28 1.372 . S
C29 C30 1.389 . S
C30 H9 0.949 . S
C30 C29 1.389 . S
C30 C31 1.387 . S
C31 C30 1.387 . S
C31 C32 1.372 . S
C32 H10 0.950 . S
C32 C31 1.372 . S
C32 C33 1.379 . S
C33 H11 0.948 . S
C33 C28 1.364 . S
C33 C32 1.379 . S
C34 C3 1.383 . S
C34 C21 1.479 . S
C34 C35 1.398 . S
C35 C0 1.382 . S
C35 H12 0.951 . S
C35 C34 1.398 . S
C36 C37 1.384 . S
C36 H49 0.937 1_655 S
C36 C71 1.382 . S
C37 C36 1.384 . S
C37 C38 1.378 . S
C38 C37 1.378 . S
C38 C39 1.378 . S
C38 H50 0.952 . S
C39 C38 1.378 . S
C39 H51 0.950 . S
C39 C70 1.383 . S
H40 C59 0.947 . S
H41 C60 0.946 . S
H42 C62 0.953 . S
H43 C63 0.945 . S
H44 C65 0.952 . S
H45 C66 0.949 . S
H46 C68 0.950 . S
H47 C69 0.948 . S
H48 C71 0.951 . S
H49 C36 0.937 1_455 S
H50 C38 0.952 . S
H51 C39 0.950 . S
N52 C55 1.382 . S
N52 C57 1.363 . S
N53 C55 1.371 . S
N53 C56 1.372 . S
N54 C56 1.361 . S
N54 C57 1.377 . S
C55 N52 1.382 . S
C55 N53 1.371 . S
C55 C58 1.480 . S
C56 N53 1.372 . S
C56 N54 1.361 . S
C56 C64 1.457 . S
C57 N52 1.363 . S
C57 N54 1.377 . S
C57 C70 1.479 . S
C58 C55 1.480 . S
C58 C59 1.383 . S
C58 C63 1.385 . S
C59 H40 0.947 . S
C59 C58 1.383 . S
C59 C60 1.388 . S
C60 H41 0.946 . S
C60 C59 1.388 . S
C60 C61 1.384 . S
C61 C60 1.384 . S
C61 C62 1.377 . S
C62 H42 0.953 . S
C62 C61 1.377 . S
C62 C63 1.369 . S
C63 H43 0.945 . S
C63 C58 1.385 . S
C63 C62 1.369 . S
C64 C56 1.457 . S
C64 C65 1.372 . S
C64 C69 1.364 . S
C65 H44 0.952 . S
C65 C64 1.372 . S
C65 C66 1.389 . S
C66 H45 0.949 . S
C66 C65 1.389 . S
C66 C67 1.387 . S
C67 C66 1.387 . S
C67 C68 1.372 . S
C68 H46 0.950 . S
C68 C67 1.372 . S
C68 C69 1.379 . S
C69 H47 0.948 . S
C69 C64 1.364 . S
C69 C68 1.379 . S
C70 C39 1.383 . S
C70 C57 1.479 . S
C70 C71 1.398 . S
C71 C36 1.382 . S
C71 H48 0.951 . S
C71 C70 1.398 . S
C72 C73 1.384 . S
C72 H85 0.947 . S
C72 C107 1.382 . S
C73 C72 1.384 . S
C73 C74 1.378 . S
C74 C73 1.378 . S
C74 C75 1.378 . S
C74 H86 0.952 . S
C75 C74 1.378 . S
C75 H87 0.950 . S
C75 C106 1.383 . S
H76 C95 0.947 . S
H77 C96 0.946 . S
H78 C98 0.953 1_455 S
H79 C99 0.945 . S
H80 C101 0.952 . S
H81 C102 0.949 . S
H82 C104 0.950 . S
H83 C105 0.948 . S
H84 C107 0.951 . S
H85 C72 0.947 . S
H86 C74 0.952 . S
H87 C75 0.950 . S
N88 C91 1.382 . S
N88 C93 1.363 . S
N89 C91 1.371 . S
N89 C92 1.372 . S
N90 C92 1.361 . S
N90 C93 1.377 . S
C91 N88 1.382 . S
C91 N89 1.371 . S
C91 C94 1.480 . S
C92 N89 1.372 . S
C92 N90 1.361 . S
C92 C100 1.457 . S
C93 N88 1.363 . S
C93 N90 1.377 . S
C93 C106 1.479 . S
C94 C91 1.480 . S
C94 C95 1.383 . S
C94 C99 1.385 . S
C95 H76 0.947 . S
C95 C94 1.383 . S
C95 C96 1.388 . S
C96 H77 0.946 . S
C96 C95 1.388 . S
C96 C97 1.384 . S
C97 C96 1.384 . S
C97 C98 1.377 . S
C98 H78 0.953 1_655 S
C98 C97 1.377 . S
C98 C99 1.369 . S
C99 H79 0.945 . S
C99 C94 1.385 . S
C99 C98 1.369 . S
C100 C92 1.457 . S
C100 C101 1.372 . S
C100 C105 1.364 . S
C101 H80 0.952 . S
C101 C100 1.372 . S
C101 C102 1.389 . S
C102 H81 0.949 . S
C102 C101 1.389 . S
C102 C103 1.387 . S
C103 C102 1.387 . S
C103 C104 1.372 . S
C104 H82 0.950 . S
C104 C103 1.372 . S
C104 C105 1.379 . S
C105 H83 0.948 . S
C105 C100 1.364 . S
C105 C104 1.379 . S
C106 C75 1.383 . S
C106 C93 1.479 . S
C106 C107 1.398 . S
C107 C72 1.382 . S
C107 H84 0.951 . S
C107 C106 1.398 . S
C108 C109 1.384 . S
C108 H121 0.947 1_455 S
C108 C143 1.382 . S
C109 C108 1.384 . S
C109 C110 1.378 . S
C110 C109 1.378 . S
C110 C111 1.378 . S
C110 H122 0.952 . S
C111 C110 1.378 . S
C111 H123 0.950 . S
C111 C142 1.383 . S
H112 C131 0.947 . S
H113 C132 0.946 . S
H114 C134 0.953 . S
H115 C135 0.945 . S
H116 C137 0.952 . S
H117 C138 0.949 . S
H118 C140 0.950 . S
H119 C141 0.948 . S
H120 C143 0.951 . S
H121 C108 0.947 1_655 S
H122 C110 0.952 . S
H123 C111 0.950 . S
N124 C127 1.382 . S
N124 C129 1.363 . S
N125 C127 1.371 . S
N125 C128 1.372 . S
N126 C128 1.361 . S
N126 C129 1.377 . S
C127 N124 1.382 . S
C127 N125 1.371 . S
C127 C130 1.480 . S
C128 N125 1.372 . S
C128 N126 1.361 . S
C128 C136 1.457 . S
C129 N124 1.363 . S
C129 N126 1.377 . S
C129 C142 1.479 . S
C130 C127 1.480 . S
C130 C131 1.383 . S
C130 C135 1.385 . S
C131 H112 0.947 . S
C131 C130 1.383 . S
C131 C132 1.388 . S
C132 H113 0.946 . S
C132 C131 1.388 . S
C132 C133 1.384 . S
C133 C132 1.384 . S
C133 C134 1.377 . S
C134 H114 0.953 . S
C134 C133 1.377 . S
C134 C135 1.369 . S
C135 H115 0.945 . S
C135 C130 1.385 . S
C135 C134 1.369 . S
C136 C128 1.457 . S
C136 C137 1.372 . S
C136 C141 1.364 . S
C137 H116 0.952 . S
C137 C136 1.372 . S
C137 C138 1.389 . S
C138 H117 0.949 . S
C138 C137 1.389 . S
C138 C139 1.387 . S
C139 C138 1.387 . S
C139 C140 1.372 . S
C140 H118 0.950 . S
C140 C139 1.372 . S
C140 C141 1.379 . S
C141 H119 0.948 . S
C141 C136 1.364 . S
C141 C140 1.379 . S
C142 C111 1.383 . S
C142 C129 1.479 . S
C142 C143 1.398 . S
C143 C108 1.382 . S
C143 H120 0.951 . S
C143 C142 1.398 . S
C144 C145 1.384 . S
C144 H157 0.947 . S
C144 C179 1.382 . S
C145 C144 1.384 . S
C145 C146 1.378 . S
C146 C145 1.378 . S
C146 C147 1.378 . S
C146 H158 0.952 . S
C147 C146 1.378 . S
C147 H159 0.950 . S
C147 C178 1.383 . S
H148 C167 0.947 . S
H149 C168 0.946 . S
H150 C170 0.953 . S
H151 C171 0.945 . S
H152 C173 0.952 . S
H153 C174 0.949 . S
H154 C176 0.950 . S
H155 C177 0.948 . S
H156 C179 0.951 . S
H157 C144 0.947 . S
H158 C146 0.952 . S
H159 C147 0.950 . S
N160 C163 1.382 . S
N160 C165 1.363 . S
N161 C163 1.371 . S
N161 C164 1.372 . S
N162 C164 1.361 . S
N162 C165 1.377 . S
C163 N160 1.382 . S
C163 N161 1.371 . S
C163 C166 1.480 . S
C164 N161 1.372 . S
C164 N162 1.361 . S
C164 C172 1.457 . S
C165 N160 1.363 . S
C165 N162 1.377 . S
C165 C178 1.479 . S
C166 C163 1.480 . S
C166 C167 1.383 . S
C166 C171 1.385 . S
C167 H148 0.947 . S
C167 C166 1.383 . S
C167 C168 1.388 . S
C168 H149 0.946 . S
C168 C167 1.388 . S
C168 C169 1.384 . S
C169 C168 1.384 . S
C169 C170 1.377 . S
C170 H150 0.953 . S
C170 C169 1.377 . S
C170 C171 1.369 . S
C171 H151 0.945 . S
C171 C166 1.385 . S
C171 C170 1.369 . S
C172 C164 1.457 . S
C172 C173 1.372 . S
C172 C177 1.364 . S
C173 H152 0.952 . S
C173 C172 1.372 . S
C173 C174 1.389 . S
C174 H153 0.949 . S
C174 C173 1.389 . S
C174 C175 1.387 . S
C175 C174 1.387 . S
C175 C176 1.372 . S
C176 H154 0.950 . S
C176 C175 1.372 . S
C176 C177 1.379 . S
C177 H155 0.948 . S
C177 C172 1.364 . S
C177 C176 1.379 . S
C178 C147 1.383 . S
C178 C165 1.479 . S
C178 C179 1.398 . S
C179 C144 1.382 . S
C179 H156 0.951 . S
C179 C178 1.398 . S
C180 C181 1.384 . S
C180 H193 0.947 . S
C180 C215 1.382 . S
C181 C180 1.384 . S
C181 C182 1.378 . S
C182 C181 1.378 . S
C182 C183 1.378 . S
C182 H194 0.952 . S
C183 C182 1.378 . S
C183 H195 0.950 . S
C183 C214 1.383 . S
H184 C203 0.947 . S
H185 C204 0.946 . S
H186 C206 0.953 . S
H187 C207 0.945 . S
H188 C209 0.952 . S
H189 C210 0.949 . S
H190 C212 0.950 . S
H191 C213 0.948 . S
H192 C215 0.951 . S
H193 C180 0.947 . S
H194 C182 0.952 . S
H195 C183 0.950 . S
N196 C199 1.382 . S
N196 C201 1.363 . S
N197 C199 1.371 . S
N197 C200 1.372 . S
N198 C200 1.361 . S
N198 C201 1.377 . S
C199 N196 1.382 . S
C199 N197 1.371 . S
C199 C202 1.480 . S
C200 N197 1.372 . S
C200 N198 1.361 . S
C200 C208 1.457 . S
C201 N196 1.363 . S
C201 N198 1.377 . S
C201 C214 1.479 . S
C202 C199 1.480 . S
C202 C203 1.383 . S
C202 C207 1.385 . S
C203 H184 0.947 . S
C203 C202 1.383 . S
C203 C204 1.388 . S
C204 H185 0.946 . S
C204 C203 1.388 . S
C204 C205 1.384 . S
C205 C204 1.384 . S
C205 C206 1.377 . S
C206 H186 0.953 . S
C206 C205 1.377 . S
C206 C207 1.369 . S
C207 H187 0.945 . S
C207 C202 1.385 . S
C207 C206 1.369 . S
C208 C200 1.457 . S
C208 C209 1.372 . S
C208 C213 1.364 . S
C209 H188 0.952 . S
C209 C208 1.372 . S
C209 C210 1.389 . S
C210 H189 0.949 . S
C210 C209 1.389 . S
C210 C211 1.387 . S
C211 C210 1.387 . S
C211 C212 1.372 . S
C212 H190 0.950 . S
C212 C211 1.372 . S
C212 C213 1.379 . S
C213 H191 0.948 . S
C213 C208 1.364 . S
C213 C212 1.379 . S
C214 C183 1.383 . S
C214 C201 1.479 . S
C214 C215 1.398 . S
C215 C180 1.382 . S
C215 H192 0.951 . S
C215 C214 1.398 . S
C216 C217 1.384 . S
C216 H229 0.947 . S
C216 C251 1.382 . S
C217 C216 1.384 . S
C217 C218 1.378 . S
C218 C217 1.378 . S
C218 C219 1.378 . S
C218 H230 0.952 . S
C219 C218 1.378 . S
C219 H231 0.950 . S
C219 C250 1.383 . S
H220 C239 0.947 . S
H221 C240 0.946 . S
H222 C242 0.953 . S
H223 C243 0.945 . S
H224 C245 0.952 . S
H225 C246 0.949 . S
H226 C248 0.950 . S
H227 C249 0.948 . S
H228 C251 0.951 . S
H229 C216 0.947 . S
H230 C218 0.952 . S
H231 C219 0.950 . S
N232 C235 1.382 . S
N232 C237 1.363 . S
N233 C235 1.371 . S
N233 C236 1.372 . S
N234 C236 1.361 . S
N234 C237 1.377 . S
C235 N232 1.382 . S
C235 N233 1.371 . S
C235 C238 1.480 . S
C236 N233 1.372 . S
C236 N234 1.361 . S
C236 C244 1.457 . S
C237 N232 1.363 . S
C237 N234 1.377 . S
C237 C250 1.479 . S
C238 C235 1.480 . S
C238 C239 1.383 . S
C238 C243 1.385 . S
C239 H220 0.947 . S
C239 C238 1.383 . S
C239 C240 1.388 . S
C240 H221 0.946 . S
C240 C239 1.388 . S
C240 C241 1.384 . S
C241 C240 1.384 . S
C241 C242 1.377 . S
C242 H222 0.953 . S
C242 C241 1.377 . S
C242 C243 1.369 . S
C243 H223 0.945 . S
C243 C238 1.385 . S
C243 C242 1.369 . S
C244 C236 1.457 . S
C244 C245 1.372 . S
C244 C249 1.364 . S
C245 H224 0.952 . S
C245 C244 1.372 . S
C245 C246 1.389 . S
C246 H225 0.949 . S
C246 C245 1.389 . S
C246 C247 1.387 . S
C247 C246 1.387 . S
C247 C248 1.372 . S
C248 H226 0.950 . S
C248 C247 1.372 . S
C248 C249 1.379 . S
C249 H227 0.948 . S
C249 C244 1.364 . S
C249 C248 1.379 . S
C250 C219 1.383 . S
C250 C237 1.479 . S
C250 C251 1.398 . S
C251 C216 1.382 . S
C251 H228 0.951 . S
C251 C250 1.398 . S
C252 C253 1.384 . S
C252 H265 0.947 . S
C252 C287 1.382 . S
C253 C252 1.384 . S
C253 C254 1.378 . S
C254 C253 1.378 . S
C254 C255 1.378 . S
C254 H266 0.952 . S
C255 C254 1.378 . S
C255 H267 0.950 . S
C255 C286 1.383 . S
H256 C275 0.947 . S
H257 C276 0.946 . S
H258 C278 0.953 . S
H259 C279 0.945 . S
H260 C281 0.952 . S
H261 C282 0.949 . S
H262 C284 0.950 . S
H263 C285 0.948 . S
H264 C287 0.951 . S
H265 C252 0.947 . S
H266 C254 0.952 . S
H267 C255 0.950 . S
N268 C271 1.382 . S
N268 C273 1.363 . S
N269 C271 1.371 . S
N269 C272 1.372 . S
N270 C272 1.361 . S
N270 C273 1.377 . S
C271 N268 1.382 . S
C271 N269 1.371 . S
C271 C274 1.480 . S
C272 N269 1.372 . S
C272 N270 1.361 . S
C272 C280 1.457 . S
C273 N268 1.363 . S
C273 N270 1.377 . S
C273 C286 1.479 . S
C274 C271 1.480 . S
C274 C275 1.383 . S
C274 C279 1.385 . S
C275 H256 0.947 . S
C275 C274 1.383 . S
C275 C276 1.388 . S
C276 H257 0.946 . S
C276 C275 1.388 . S
C276 C277 1.384 . S
C277 C276 1.384 . S
C277 C278 1.377 . S
C278 H258 0.953 . S
C278 C277 1.377 . S
C278 C279 1.369 . S
C279 H259 0.945 . S
C279 C274 1.385 . S
C279 C278 1.369 . S
C280 C272 1.457 . S
C280 C281 1.372 . S
C280 C285 1.364 . S
C281 H260 0.952 . S
C281 C280 1.372 . S
C281 C282 1.389 . S
C282 H261 0.949 . S
C282 C281 1.389 . S
C282 C283 1.387 . S
C283 C282 1.387 . S
C283 C284 1.372 . S
C284 H262 0.950 . S
C284 C283 1.372 . S
C284 C285 1.379 . S
C285 H263 0.948 . S
C285 C280 1.364 . S
C285 C284 1.379 . S
C286 C255 1.383 . S
C286 C273 1.479 . S
C286 C287 1.398 . S
C287 C252 1.382 . S
C287 H264 0.951 . S
C287 C286 1.398 . S
C288 C289 1.384 . S
C288 H301 0.947 . S
C288 C323 1.382 . S
C289 C288 1.384 . S
C289 C290 1.378 . S
C290 C289 1.378 . S
C290 C291 1.378 . S
C290 H302 0.952 . S
C291 C290 1.378 . S
C291 H303 0.950 . S
C291 C322 1.383 . S
H292 C311 0.947 . S
H293 C312 0.946 . S
H294 C314 0.953 . S
H295 C315 0.945 . S
H296 C317 0.952 . S
H297 C318 0.949 . S
H298 C320 0.950 . S
H299 C321 0.948 . S
H300 C323 0.951 . S
H301 C288 0.947 . S
H302 C290 0.952 . S
H303 C291 0.950 . S
N304 C307 1.382 . S
N304 C309 1.363 . S
N305 C307 1.371 . S
N305 C308 1.372 . S
N306 C308 1.361 . S
N306 C309 1.377 . S
C307 N304 1.382 . S
C307 N305 1.371 . S
C307 C310 1.480 . S
C308 N305 1.372 . S
C308 N306 1.361 . S
C308 C316 1.457 . S
C309 N304 1.363 . S
C309 N306 1.377 . S
C309 C322 1.479 . S
C310 C307 1.480 . S
C310 C311 1.383 . S
C310 C315 1.385 . S
C311 H292 0.947 . S
C311 C310 1.383 . S
C311 C312 1.388 . S
C312 H293 0.946 . S
C312 C311 1.388 . S
C312 C313 1.384 . S
C313 C312 1.384 . S
C313 C314 1.377 . S
C314 H294 0.953 . S
C314 C313 1.377 . S
C314 C315 1.369 . S
C315 H295 0.945 . S
C315 C310 1.385 . S
C315 C314 1.369 . S
C316 C308 1.457 . S
C316 C317 1.372 . S
C316 C321 1.364 . S
C317 H296 0.952 . S
C317 C316 1.372 . S
C317 C318 1.389 . S
C318 H297 0.949 . S
C318 C317 1.389 . S
C318 C319 1.387 . S
C319 C318 1.387 . S
C319 C320 1.372 . S
C320 H298 0.950 . S
C320 C319 1.372 . S
C320 C321 1.379 . S
C321 H299 0.948 . S
C321 C316 1.364 . S
C321 C320 1.379 . S
C322 C291 1.383 . S
C322 C309 1.479 . S
C322 C323 1.398 . S
C323 C288 1.382 . S
C323 H300 0.951 . S
C323 C322 1.398 . S
C324 C325 1.384 . S
C324 H337 0.947 . S
C324 C359 1.382 . S
C325 C324 1.384 . S
C325 C326 1.378 . S
C326 C325 1.378 . S
C326 C327 1.378 . S
C326 H338 0.952 . S
C327 C326 1.378 . S
C327 H339 0.950 . S
C327 C358 1.383 . S
H328 C347 0.947 . S
H329 C348 0.946 . S
H330 C350 0.953 . S
H331 C351 0.945 . S
H332 C353 0.952 . S
H333 C354 0.949 . S
H334 C356 0.950 . S
H335 C357 0.948 . S
H336 C359 0.951 . S
H337 C324 0.947 . S
H338 C326 0.952 . S
H339 C327 0.950 . S
N340 C343 1.382 . S
N340 C345 1.363 . S
N341 C343 1.371 . S
N341 C344 1.372 . S
N342 C344 1.361 . S
N342 C345 1.377 . S
C343 N340 1.382 . S
C343 N341 1.371 . S
C343 C346 1.480 . S
C344 N341 1.372 . S
C344 N342 1.361 . S
C344 C352 1.457 . S
C345 N340 1.363 . S
C345 N342 1.377 . S
C345 C358 1.479 . S
C346 C343 1.480 . S
C346 C347 1.383 . S
C346 C351 1.385 . S
C347 H328 0.947 . S
C347 C346 1.383 . S
C347 C348 1.388 . S
C348 H329 0.946 . S
C348 C347 1.388 . S
C348 C349 1.384 . S
C349 C348 1.384 . S
C349 C350 1.377 . S
C350 H330 0.953 . S
C350 C349 1.377 . S
C350 C351 1.369 . S
C351 H331 0.945 . S
C351 C346 1.385 . S
C351 C350 1.369 . S
C352 C344 1.457 . S
C352 C353 1.372 . S
C352 C357 1.364 . S
C353 H332 0.952 . S
C353 C352 1.372 . S
C353 C354 1.389 . S
C354 H333 0.949 . S
C354 C353 1.389 . S
C354 C355 1.387 . S
C355 C354 1.387 . S
C355 C356 1.372 . S
C356 H334 0.950 . S
C356 C355 1.372 . S
C356 C357 1.379 . S
C357 H335 0.948 . S
C357 C352 1.364 . S
C357 C356 1.379 . S
C358 C327 1.383 . S
C358 C345 1.479 . S
C358 C359 1.398 . S
C359 C324 1.382 . S
C359 H336 0.951 . S
C359 C358 1.398 . S
C360 C361 1.384 . S
C360 H373 0.947 . S
C360 C395 1.382 . S
C361 C360 1.384 . S
C361 C362 1.378 . S
C362 C361 1.378 . S
C362 C363 1.378 . S
C362 H374 0.952 . S
C363 C362 1.378 . S
C363 H375 0.950 . S
C363 C394 1.383 . S
H364 C383 0.947 . S
H365 C384 0.946 . S
H366 C386 0.953 . S
H367 C387 0.945 . S
H368 C389 0.952 . S
H369 C390 0.949 . S
H370 C392 0.950 . S
H371 C393 0.948 . S
H372 C395 0.951 . S
H373 C360 0.947 . S
H374 C362 0.952 . S
H375 C363 0.950 . S
N376 C379 1.382 . S
N376 C381 1.363 . S
N377 C379 1.371 . S
N377 C380 1.372 . S
N378 C380 1.361 . S
N378 C381 1.377 . S
C379 N376 1.382 . S
C379 N377 1.371 . S
C379 C382 1.480 . S
C380 N377 1.372 . S
C380 N378 1.361 . S
C380 C388 1.457 . S
C381 N376 1.363 . S
C381 N378 1.377 . S
C381 C394 1.479 . S
C382 C379 1.480 . S
C382 C383 1.383 . S
C382 C387 1.385 . S
C383 H364 0.947 . S
C383 C382 1.383 . S
C383 C384 1.388 . S
C384 H365 0.946 . S
C384 C383 1.388 . S
C384 C385 1.384 . S
C385 C384 1.384 . S
C385 C386 1.377 . S
C386 H366 0.953 . S
C386 C385 1.377 . S
C386 C387 1.369 . S
C387 H367 0.945 . S
C387 C382 1.385 . S
C387 C386 1.369 . S
C388 C380 1.457 . S
C388 C389 1.372 . S
C388 C393 1.364 . S
C389 H368 0.952 . S
C389 C388 1.372 . S
C389 C390 1.389 . S
C390 H369 0.949 . S
C390 C389 1.389 . S
C390 C391 1.387 . S
C391 C390 1.387 . S
C391 C392 1.372 . S
C392 H370 0.950 . S
C392 C391 1.372 . S
C392 C393 1.379 . S
C393 H371 0.948 . S
C393 C388 1.364 . S
C393 C392 1.379 . S
C394 C363 1.383 . S
C394 C381 1.479 . S
C394 C395 1.398 . S
C395 C360 1.382 . S
C395 H372 0.951 . S
C395 C394 1.398 . S
C396 C397 1.384 . S
C396 H409 0.947 . S
C396 C431 1.382 . S
C397 C396 1.384 . S
C397 C398 1.378 . S
C398 C397 1.378 . S
C398 C399 1.378 . S
C398 H410 0.952 . S
C399 C398 1.378 . S
C399 H411 0.950 . S
C399 C430 1.383 . S
H400 C419 0.947 . S
H401 C420 0.946 . S
H402 C422 0.953 . S
H403 C423 0.945 . S
H404 C425 0.952 . S
H405 C426 0.949 . S
H406 C428 0.950 . S
H407 C429 0.948 . S
H408 C431 0.951 . S
H409 C396 0.947 . S
H410 C398 0.952 . S
H411 C399 0.950 . S
N412 C415 1.382 . S
N412 C417 1.363 . S
N413 C415 1.371 . S
N413 C416 1.372 . S
N414 C416 1.361 . S
N414 C417 1.377 . S
C415 N412 1.382 . S
C415 N413 1.371 . S
C415 C418 1.480 . S
C416 N413 1.372 . S
C416 N414 1.361 . S
C416 C424 1.457 . S
C417 N412 1.363 . S
C417 N414 1.377 . S
C417 C430 1.479 . S
C418 C415 1.480 . S
C418 C419 1.383 . S
C418 C423 1.385 . S
C419 H400 0.947 . S
C419 C418 1.383 . S
C419 C420 1.388 . S
C420 H401 0.946 . S
C420 C419 1.388 . S
C420 C421 1.384 . S
C421 C420 1.384 . S
C421 C422 1.377 . S
C422 H402 0.953 . S
C422 C421 1.377 . S
C422 C423 1.369 . S
C423 H403 0.945 . S
C423 C418 1.385 . S
C423 C422 1.369 . S
C424 C416 1.457 . S
C424 C425 1.372 . S
C424 C429 1.364 . S
C425 H404 0.952 . S
C425 C424 1.372 . S
C425 C426 1.389 . S
C426 H405 0.949 . S
C426 C425 1.389 . S
C426 C427 1.387 . S
C427 C426 1.387 . S
C427 C428 1.372 . S
C428 H406 0.950 . S
C428 C427 1.372 . S
C428 C429 1.379 . S
C429 H407 0.948 . S
C429 C424 1.364 . S
C429 C428 1.379 . S
C430 C399 1.383 . S
C430 C417 1.479 . S
C430 C431 1.398 . S
C431 C396 1.382 . S
C431 H408 0.951 . S
C431 C430 1.398 . S
C432 C433 1.384 . S
C432 H445 0.947 . S
C432 C467 1.382 . S
C433 C432 1.384 . S
C433 C434 1.378 . S
C434 C433 1.378 . S
C434 C435 1.378 . S
C434 H446 0.952 . S
C435 C434 1.378 . S
C435 H447 0.950 . S
C435 C466 1.383 . S
H436 C455 0.947 . S
H437 C456 0.946 . S
H438 C458 0.953 . S
H439 C459 0.945 . S
H440 C461 0.952 . S
H441 C462 0.949 . S
H442 C464 0.950 . S
H443 C465 0.948 . S
H444 C467 0.951 . S
H445 C432 0.947 . S
H446 C434 0.952 . S
H447 C435 0.950 . S
N448 C451 1.382 . S
N448 C453 1.363 . S
N449 C451 1.371 . S
N449 C452 1.372 . S
N450 C452 1.361 . S
N450 C453 1.377 . S
C451 N448 1.382 . S
C451 N449 1.371 . S
C451 C454 1.480 . S
C452 N449 1.372 . S
C452 N450 1.361 . S
C452 C460 1.457 . S
C453 N448 1.363 . S
C453 N450 1.377 . S
C453 C466 1.479 . S
C454 C451 1.480 . S
C454 C455 1.383 . S
C454 C459 1.385 . S
C455 H436 0.947 . S
C455 C454 1.383 . S
C455 C456 1.388 . S
C456 H437 0.946 . S
C456 C455 1.388 . S
C456 C457 1.384 . S
C457 C456 1.384 . S
C457 C458 1.377 . S
C458 H438 0.953 . S
C458 C457 1.377 . S
C458 C459 1.369 . S
C459 H439 0.945 . S
C459 C454 1.385 . S
C459 C458 1.369 . S
C460 C452 1.457 . S
C460 C461 1.372 . S
C460 C465 1.364 . S
C461 H440 0.952 . S
C461 C460 1.372 . S
C461 C462 1.389 . S
C462 H441 0.949 . S
C462 C461 1.389 . S
C462 C463 1.387 . S
C463 C462 1.387 . S
C463 C464 1.372 . S
C464 H442 0.950 . S
C464 C463 1.372 . S
C464 C465 1.379 . S
C465 H443 0.948 . S
C465 C460 1.364 . S
C465 C464 1.379 . S
C466 C435 1.383 . S
C466 C453 1.479 . S
C466 C467 1.398 . S
C467 C432 1.382 . S
C467 H444 0.951 . S
C467 C466 1.398 . S
C468 C469 1.384 . S
C468 H481 0.947 . S
C468 C503 1.382 . S
C469 C468 1.384 . S
C469 C470 1.378 . S
C470 C469 1.378 . S
C470 C471 1.378 . S
C470 H482 0.952 . S
C471 C470 1.378 . S
C471 H483 0.950 . S
C471 C502 1.383 . S
H472 C491 0.947 . S
H473 C492 0.946 . S
H474 C494 0.953 . S
H475 C495 0.945 . S
H476 C497 0.952 . S
H477 C498 0.949 . S
H478 C500 0.950 . S
H479 C501 0.948 . S
H480 C503 0.951 . S
H481 C468 0.947 . S
H482 C470 0.952 . S
H483 C471 0.950 . S
N484 C487 1.382 . S
N484 C489 1.363 . S
N485 C487 1.371 . S
N485 C488 1.372 . S
N486 C488 1.361 . S
N486 C489 1.377 . S
C487 N484 1.382 . S
C487 N485 1.371 . S
C487 C490 1.480 . S
C488 N485 1.372 . S
C488 N486 1.361 . S
C488 C496 1.457 . S
C489 N484 1.363 . S
C489 N486 1.377 . S
C489 C502 1.479 . S
C490 C487 1.480 . S
C490 C491 1.383 . S
C490 C495 1.385 . S
C491 H472 0.947 . S
C491 C490 1.383 . S
C491 C492 1.388 . S
C492 H473 0.946 . S
C492 C491 1.388 . S
C492 C493 1.384 . S
C493 C492 1.384 . S
C493 C494 1.377 . S
C494 H474 0.953 . S
C494 C493 1.377 . S
C494 C495 1.369 . S
C495 H475 0.945 . S
C495 C490 1.385 . S
C495 C494 1.369 . S
C496 C488 1.457 . S
C496 C497 1.372 . S
C496 C501 1.364 . S
C497 H476 0.952 . S
C497 C496 1.372 . S
C497 C498 1.389 . S
C498 H477 0.949 . S
C498 C497 1.389 . S
C498 C499 1.387 . S
C499 C498 1.387 . S
C499 C500 1.372 . S
C500 H478 0.950 . S
C500 C499 1.372 . S
C500 C501 1.379 . S
C501 H479 0.948 . S
C501 C496 1.364 . S
C501 C500 1.379 . S
C502 C471 1.383 . S
C502 C489 1.479 . S
C502 C503 1.398 . S
C503 C468 1.382 . S
C503 H480 0.951 . S
C503 C502 1.398 . S
C504 C505 1.384 . S
C504 H517 0.947 . S
C504 C539 1.382 . S
C505 C504 1.384 . S
C505 C506 1.378 . S
C506 C505 1.378 . S
C506 C507 1.378 . S
C506 H518 0.952 . S
C507 C506 1.378 . S
C507 H519 0.950 . S
C507 C538 1.383 . S
H508 C527 0.947 . S
H509 C528 0.946 . S
H510 C530 0.953 . S
H511 C531 0.945 . S
H512 C533 0.952 . S
H513 C534 0.949 . S
H514 C536 0.950 . S
H515 C537 0.948 . S
H516 C539 0.951 . S
H517 C504 0.947 . S
H518 C506 0.952 . S
H519 C507 0.950 . S
N520 C523 1.382 . S
N520 C525 1.363 . S
N521 C523 1.371 . S
N521 C524 1.372 . S
N522 C524 1.361 . S
N522 C525 1.377 . S
C523 N520 1.382 . S
C523 N521 1.371 . S
C523 C526 1.480 . S
C524 N521 1.372 . S
C524 N522 1.361 . S
C524 C532 1.457 . S
C525 N520 1.363 . S
C525 N522 1.377 . S
C525 C538 1.479 . S
C526 C523 1.480 . S
C526 C527 1.383 . S
C526 C531 1.385 . S
C527 H508 0.947 . S
C527 C526 1.383 . S
C527 C528 1.388 . S
C528 H509 0.946 . S
C528 C527 1.388 . S
C528 C529 1.384 . S
C529 C528 1.384 . S
C529 C530 1.377 . S
C530 H510 0.953 . S
C530 C529 1.377 . S
C530 C531 1.369 . S
C531 H511 0.945 . S
C531 C526 1.385 . S
C531 C530 1.369 . S
C532 C524 1.457 . S
C532 C533 1.372 . S
C532 C537 1.364 . S
C533 H512 0.952 . S
C533 C532 1.372 . S
C533 C534 1.389 . S
C534 H513 0.949 . S
C534 C533 1.389 . S
C534 C535 1.387 . S
C535 C534 1.387 . S
C535 C536 1.372 . S
C536 H514 0.950 . S
C536 C535 1.372 . S
C536 C537 1.379 . S
C537 H515 0.948 . S
C537 C532 1.364 . S
C537 C536 1.379 . S
C538 C507 1.383 . S
C538 C525 1.479 . S
C538 C539 1.398 . S
C539 C504 1.382 . S
C539 H516 0.951 . S
C539 C538 1.398 . S
C540 C541 1.384 . S
C540 H553 0.947 . S
C540 C575 1.382 . S
C541 C540 1.384 . S
C541 C542 1.378 . S
C542 C541 1.378 . S
C542 C543 1.378 . S
C542 H554 0.952 . S
C543 C542 1.378 . S
C543 H555 0.950 . S
C543 C574 1.383 . S
H544 C563 0.947 . S
H545 C564 0.946 . S
H546 C566 0.953 . S
H547 C567 0.945 . S
H548 C569 0.952 . S
H549 C570 0.949 . S
H550 C572 0.950 . S
H551 C573 0.948 . S
H552 C575 0.951 . S
H553 C540 0.947 . S
H554 C542 0.952 . S
H555 C543 0.950 . S
N556 C559 1.382 . S
N556 C561 1.363 . S
N557 C559 1.371 . S
N557 C560 1.372 . S
N558 C560 1.361 . S
N558 C561 1.377 . S
C559 N556 1.382 . S
C559 N557 1.371 . S
C559 C562 1.480 . S
C560 N557 1.372 . S
C560 N558 1.361 . S
C560 C568 1.457 . S
C561 N556 1.363 . S
C561 N558 1.377 . S
C561 C574 1.479 . S
C562 C559 1.480 . S
C562 C563 1.383 . S
C562 C567 1.385 . S
C563 H544 0.947 . S
C563 C562 1.383 . S
C563 C564 1.388 . S
C564 H545 0.946 . S
C564 C563 1.388 . S
C564 C565 1.384 . S
C565 C564 1.384 . S
C565 C566 1.377 . S
C566 H546 0.953 . S
C566 C565 1.377 . S
C566 C567 1.369 . S
C567 H547 0.945 . S
C567 C562 1.385 . S
C567 C566 1.369 . S
C568 C560 1.457 . S
C568 C569 1.372 . S
C568 C573 1.364 . S
C569 H548 0.952 . S
C569 C568 1.372 . S
C569 C570 1.389 . S
C570 H549 0.949 . S
C570 C569 1.389 . S
C570 C571 1.387 . S
C571 C570 1.387 . S
C571 C572 1.372 . S
C572 H550 0.950 . S
C572 C571 1.372 . S
C572 C573 1.379 . S
C573 H551 0.948 . S
C573 C568 1.364 . S
C573 C572 1.379 . S
C574 C543 1.383 . S
C574 C561 1.479 . S
C574 C575 1.398 . S
C575 C540 1.382 . S
C575 H552 0.951 . S
C575 C574 1.398 . S
C576 C577 1.384 . S
C576 H589 0.947 . S
C576 C611 1.382 . S
C577 C576 1.384 . S
C577 C578 1.378 . S
C578 C577 1.378 . S
C578 C579 1.378 . S
C578 H590 0.952 . S
C579 C578 1.378 . S
C579 H591 0.950 . S
C579 C610 1.383 . S
H580 C599 0.947 . S
H581 C600 0.946 . S
H582 C602 0.953 . S
H583 C603 0.945 . S
H584 C605 0.952 . S
H585 C606 0.949 . S
H586 C608 0.950 . S
H587 C609 0.948 . S
H588 C611 0.951 . S
H589 C576 0.947 . S
H590 C578 0.952 . S
H591 C579 0.950 . S
N592 C595 1.382 . S
N592 C597 1.363 . S
N593 C595 1.371 . S
N593 C596 1.372 . S
N594 C596 1.361 . S
N594 C597 1.377 . S
C595 N592 1.382 . S
C595 N593 1.371 . S
C595 C598 1.480 . S
C596 N593 1.372 . S
C596 N594 1.361 . S
C596 C604 1.457 . S
C597 N592 1.363 . S
C597 N594 1.377 . S
C597 C610 1.479 . S
C598 C595 1.480 . S
C598 C599 1.383 . S
C598 C603 1.385 . S
C599 H580 0.947 . S
C599 C598 1.383 . S
C599 C600 1.388 . S
C600 H581 0.946 . S
C600 C599 1.388 . S
C600 C601 1.384 . S
C601 C600 1.384 . S
C601 C602 1.377 . S
C602 H582 0.953 . S
C602 C601 1.377 . S
C602 C603 1.369 . S
C603 H583 0.945 . S
C603 C598 1.385 . S
C603 C602 1.369 . S
C604 C596 1.457 . S
C604 C605 1.372 . S
C604 C609 1.364 . S
C605 H584 0.952 . S
C605 C604 1.372 . S
C605 C606 1.389 . S
C606 H585 0.949 . S
C606 C605 1.389 . S
C606 C607 1.387 . S
C607 C606 1.387 . S
C607 C608 1.372 . S
C608 H586 0.950 . S
C608 C607 1.372 . S
C608 C609 1.379 . S
C609 H587 0.948 . S
C609 C604 1.364 . S
C609 C608 1.379 . S
C610 C579 1.383 . S
C610 C597 1.479 . S
C610 C611 1.398 . S
C611 C576 1.382 . S
C611 H588 0.951 . S
C611 C610 1.398 . S
C612 C613 1.384 . S
C612 H625 0.947 . S
C612 C647 1.382 . S
C613 C612 1.384 . S
C613 C614 1.378 . S
C614 C613 1.378 . S
C614 C615 1.378 . S
C614 H626 0.952 . S
C615 C614 1.378 . S
C615 H627 0.950 . S
C615 C646 1.383 . S
H616 C635 0.947 . S
H617 C636 0.946 . S
H618 C638 0.953 . S
H619 C639 0.945 . S
H620 C641 0.952 . S
H621 C642 0.949 . S
H622 C644 0.950 . S
H623 C645 0.948 . S
H624 C647 0.951 . S
H625 C612 0.947 . S
H626 C614 0.952 . S
H627 C615 0.950 . S
N628 C631 1.382 . S
N628 C633 1.363 . S
N629 C631 1.371 . S
N629 C632 1.372 . S
N630 C632 1.361 . S
N630 C633 1.377 . S
C631 N628 1.382 . S
C631 N629 1.371 . S
C631 C634 1.480 . S
C632 N629 1.372 . S
C632 N630 1.361 . S
C632 C640 1.457 . S
C633 N628 1.363 . S
C633 N630 1.377 . S
C633 C646 1.479 . S
C634 C631 1.480 . S
C634 C635 1.383 . S
C634 C639 1.385 . S
C635 H616 0.947 . S
C635 C634 1.383 . S
C635 C636 1.388 . S
C636 H617 0.946 . S
C636 C635 1.388 . S
C636 C637 1.384 . S
C637 C636 1.384 . S
C637 C638 1.377 . S
C638 H618 0.953 . S
C638 C637 1.377 . S
C638 C639 1.369 . S
C639 H619 0.945 . S
C639 C634 1.385 . S
C639 C638 1.369 . S
C640 C632 1.457 . S
C640 C641 1.372 . S
C640 C645 1.364 . S
C641 H620 0.952 . S
C641 C640 1.372 . S
C641 C642 1.389 . S
C642 H621 0.949 . S
C642 C641 1.389 . S
C642 C643 1.387 . S
C643 C642 1.387 . S
C643 C644 1.372 . S
C644 H622 0.950 . S
C644 C643 1.372 . S
C644 C645 1.379 . S
C645 H623 0.948 . S
C645 C640 1.364 . S
C645 C644 1.379 . S
C646 C615 1.383 . S
C646 C633 1.479 . S
C646 C647 1.398 . S
C647 C612 1.382 . S
C647 H624 0.951 . S
C647 C646 1.398 . S
Tb648 N679 2.660 . S
Tb648 N686 2.600 . S
Tb648 O692 2.546 . S
Tb648 O693 2.610 1_565 S
Tb648 O695 2.320 1_565 S
Tb648 O696 2.552 1_565 S
Tb648 O697 2.413 . S
Tb648 O699 2.362 1_556 S
Tb648 O700 2.421 . S
Tb648 C712 2.833 . S
C649 C652 1.432 . S
C649 C653 1.414 . S
C649 N656 1.359 . S
C650 C652 1.417 . S
C650 C654 1.432 . S
C650 C662 1.410 . S
C651 C653 1.444 . S
C651 C654 1.317 . S
C651 H674 0.929 . S
C652 C649 1.432 . S
C652 C650 1.417 . S
C652 N660 1.360 . S
C653 C649 1.414 . S
C653 C651 1.444 . S
C653 C658 1.385 . S
C654 C650 1.432 . S
C654 C651 1.317 . S
C654 H666 0.930 . S
C655 C657 1.392 . S
C655 C658 1.370 . S
C655 H667 0.931 . S
N656 C649 1.359 . S
N656 C657 1.327 . S
N656 Tb659 2.600 . S
C657 C655 1.392 . S
C657 N656 1.327 . S
C657 H664 0.930 . S
C658 C653 1.385 . S
C658 C655 1.370 . S
C658 H677 0.930 . S
Tb659 N656 2.600 . S
Tb659 N660 2.660 . S
Tb659 O693 2.362 1_554 S
Tb659 O694 2.421 . S
Tb659 O698 2.546 . S
Tb659 O699 2.610 1_545 S
Tb659 O701 2.320 1_545 S
Tb659 O702 2.552 1_545 S
Tb659 O703 2.413 . S
Tb659 C723 2.833 . S
N660 C652 1.360 . S
N660 Tb659 2.660 . S
N660 C661 1.305 . S
C661 N660 1.305 . S
C661 C663 1.407 . S
C661 H668 0.930 . S
C662 C650 1.410 . S
C662 C663 1.345 . S
C662 H670 0.930 . S
C663 C661 1.407 . S
C663 C662 1.345 . S
C663 H665 0.930 . S
H664 C657 0.930 . S
H665 C663 0.930 . S
H666 C654 0.930 . S
H667 C655 0.931 . S
H668 C661 0.930 . S
H669 C683 0.930 . S
H670 C662 0.930 . S
H671 C689 0.930 . S
H672 C680 0.930 . S
H673 C687 0.931 . S
H674 C651 0.929 . S
H675 C681 0.930 . S
H676 C714 0.930 . S
H677 C658 0.930 . S
H678 C713 0.929 . S
N679 Tb648 2.660 . S
N679 C680 1.305 . S
N679 C684 1.360 . S
C680 H672 0.930 . S
C680 N679 1.305 . S
C680 C683 1.407 . S
C681 H675 0.930 . S
C681 C682 1.410 . S
C681 C683 1.345 . S
C682 C681 1.410 . S
C682 C684 1.417 . S
C682 C714 1.432 . S
C683 H669 0.930 . S
C683 C680 1.407 . S
C683 C681 1.345 . S
C684 N679 1.360 . S
C684 C682 1.417 . S
C684 C688 1.432 . S
H685 C690 0.930 . S
N686 Tb648 2.600 . S
N686 C688 1.359 . S
N686 C689 1.327 . S
C687 H673 0.931 . S
C687 C689 1.392 . S
C687 C690 1.370 . S
C688 C684 1.432 . S
C688 N686 1.359 . S
C688 C691 1.414 . S
C689 H671 0.930 . S
C689 N686 1.327 . S
C689 C687 1.392 . S
C690 H685 0.930 . S
C690 C687 1.370 . S
C690 C691 1.385 . S
C691 C688 1.414 . S
C691 C690 1.385 . S
C691 C713 1.444 . S
O692 Tb648 2.546 . S
O692 C712 1.251 . S
O693 Tb648 2.610 1_545 S
O693 Tb659 2.362 1_556 S
O693 C704 1.283 . S
O694 Tb659 2.421 . S
O694 C711 1.262 1_554 S
O695 Tb648 2.320 1_545 S
O695 C711 1.260 . S
O696 Tb648 2.552 1_545 S
O696 C704 1.243 . S
O697 Tb648 2.413 . S
O697 C712 1.256 . S
O698 Tb659 2.546 . S
O698 C723 1.251 . S
O699 Tb648 2.362 1_554 S
O699 Tb659 2.610 1_565 S
O699 C715 1.283 . S
O700 Tb648 2.421 . S
O700 C722 1.262 1_556 S
O701 Tb659 2.320 1_565 S
O701 C722 1.260 . S
O702 Tb659 2.552 1_565 S
O702 C715 1.243 . S
O703 Tb659 2.413 . S
O703 C723 1.256 . S
C704 O693 1.283 . S
C704 O696 1.243 . S
C705 C707 1.382 1_565 S
C705 C709 1.393 . S
C705 C712 1.500 . S
C706 C707 1.400 . S
C706 C708 1.384 1_545 S
C707 C705 1.382 1_545 S
C707 C706 1.400 . S
C707 H724 0.930 . S
C708 C706 1.384 1_565 S
C708 C710 1.392 . S
C708 H725 0.931 . S
C709 C705 1.393 . S
C709 C710 1.401 . S
C709 H726 0.930 . S
C710 C708 1.392 . S
C710 C709 1.401 . S
C710 H727 0.930 . S
C711 O694 1.262 1_556 S
C711 O695 1.260 . S
C712 Tb648 2.833 . S
C712 O692 1.251 . S
C712 O697 1.256 . S
C712 C705 1.500 . S
C713 H678 0.929 . S
C713 C691 1.444 . S
C713 C714 1.317 . S
C714 H676 0.930 . S
C714 C682 1.432 . S
C714 C713 1.317 . S
C715 O699 1.283 . S
C715 O702 1.243 . S
C716 C717 1.382 1_545 S
C716 C720 1.393 . S
C716 C723 1.500 . S
C717 C716 1.382 1_565 S
C717 C718 1.400 . S
C717 H728 0.930 . S
C718 C717 1.400 . S
C718 C719 1.384 1_565 S
C719 C718 1.384 1_545 S
C719 C721 1.392 . S
C719 H729 0.931 . S
C720 C716 1.393 . S
C720 C721 1.401 . S
C720 H730 0.930 . S
C721 C719 1.392 . S
C721 C720 1.401 . S
C721 H731 0.930 . S
C722 O700 1.262 1_554 S
C722 O701 1.260 . S
C723 Tb659 2.833 . S
C723 O698 1.251 . S
C723 O703 1.256 . S
C723 C716 1.500 . S
H724 C707 0.930 . S
H725 C708 0.931 . S
H726 C709 0.930 . S
H727 C710 0.930 . S
H728 C717 0.930 . S
H729 C719 0.931 . S
H730 C720 0.930 . S
H731 C721 0.930 . S
Tb732 N763 2.660 . S
Tb732 N770 2.600 . S
Tb732 O776 2.546 . S
Tb732 O777 2.610 1_455 S
Tb732 O779 2.320 1_455 S
Tb732 O780 2.552 1_455 S
Tb732 O781 2.413 . S
Tb732 O783 2.362 1_556 S
Tb732 O784 2.421 . S
Tb732 C796 2.833 . S
C733 C736 1.432 . S
C733 C737 1.414 . S
C733 N740 1.359 . S
C734 C736 1.417 . S
C734 C738 1.432 . S
C734 C746 1.410 . S
C735 C737 1.444 . S
C735 C738 1.317 . S
C735 H758 0.929 . S
C736 C733 1.432 . S
C736 C734 1.417 . S
C736 N744 1.360 . S
C737 C733 1.414 . S
C737 C735 1.444 . S
C737 C742 1.385 . S
C738 C734 1.432 . S
C738 C735 1.317 . S
C738 H750 0.930 . S
C739 C741 1.392 . S
C739 C742 1.370 . S
C739 H751 0.931 . S
N740 C733 1.359 . S
N740 C741 1.327 . S
N740 Tb743 2.600 . S
C741 C739 1.392 . S
C741 N740 1.327 . S
C741 H748 0.930 . S
C742 C737 1.385 . S
C742 C739 1.370 . S
C742 H761 0.930 . S
Tb743 N740 2.600 . S
Tb743 N744 2.660 . S
Tb743 O777 2.362 1_554 S
Tb743 O778 2.421 . S
Tb743 O782 2.546 . S
Tb743 O783 2.610 1_655 S
Tb743 O785 2.320 1_655 S
Tb743 O786 2.552 1_655 S
Tb743 O787 2.413 . S
Tb743 C807 2.833 . S
N744 C736 1.360 . S
N744 Tb743 2.660 . S
N744 C745 1.305 . S
C745 N744 1.305 . S
C745 C747 1.407 . S
C745 H752 0.930 . S
C746 C734 1.410 . S
C746 C747 1.345 . S
C746 H754 0.930 . S
C747 C745 1.407 . S
C747 C746 1.345 . S
C747 H749 0.930 . S
H748 C741 0.930 . S
H749 C747 0.930 . S
H750 C738 0.930 . S
H751 C739 0.931 . S
H752 C745 0.930 . S
H753 C767 0.930 . S
H754 C746 0.930 . S
H755 C773 0.930 . S
H756 C764 0.930 . S
H757 C771 0.931 . S
H758 C735 0.929 . S
H759 C765 0.930 . S
H760 C798 0.930 . S
H761 C742 0.930 . S
H762 C797 0.929 . S
N763 Tb732 2.660 . S
N763 C764 1.305 . S
N763 C768 1.360 . S
C764 H756 0.930 . S
C764 N763 1.305 . S
C764 C767 1.407 . S
C765 H759 0.930 . S
C765 C766 1.410 . S
C765 C767 1.345 . S
C766 C765 1.410 . S
C766 C768 1.417 . S
C766 C798 1.432 . S
C767 H753 0.930 . S
C767 C764 1.407 . S
C767 C765 1.345 . S
C768 N763 1.360 . S
C768 C766 1.417 . S
C768 C772 1.432 . S
H769 C774 0.930 . S
N770 Tb732 2.600 . S
N770 C772 1.359 . S
N770 C773 1.327 . S
C771 H757 0.931 . S
C771 C773 1.392 . S
C771 C774 1.370 . S
C772 C768 1.432 . S
C772 N770 1.359 . S
C772 C775 1.414 . S
C773 H755 0.930 . S
C773 N770 1.327 . S
C773 C771 1.392 . S
C774 H769 0.930 . S
C774 C771 1.370 . S
C774 C775 1.385 . S
C775 C772 1.414 . S
C775 C774 1.385 . S
C775 C797 1.444 . S
O776 Tb732 2.546 . S
O776 C796 1.251 . S
O777 Tb732 2.610 1_655 S
O777 Tb743 2.362 1_556 S
O777 C788 1.283 . S
O778 Tb743 2.421 . S
O778 C795 1.262 1_554 S
O779 Tb732 2.320 1_655 S
O779 C795 1.260 . S
O780 Tb732 2.552 1_655 S
O780 C788 1.243 . S
O781 Tb732 2.413 . S
O781 C796 1.256 . S
O782 Tb743 2.546 . S
O782 C807 1.251 . S
O783 Tb732 2.362 1_554 S
O783 Tb743 2.610 1_455 S
O783 C799 1.283 . S
O784 Tb732 2.421 . S
O784 C806 1.262 1_556 S
O785 Tb743 2.320 1_455 S
O785 C806 1.260 . S
O786 Tb743 2.552 1_455 S
O786 C799 1.243 . S
O787 Tb743 2.413 . S
O787 C807 1.256 . S
C788 O777 1.283 . S
C788 O780 1.243 . S
C789 C791 1.382 1_455 S
C789 C793 1.393 . S
C789 C796 1.500 . S
C790 C791 1.400 . S
C790 C792 1.384 1_655 S
C791 C789 1.382 1_655 S
C791 C790 1.400 . S
C791 H808 0.930 . S
C792 C790 1.384 1_455 S
C792 C794 1.392 . S
C792 H809 0.931 . S
C793 C789 1.393 . S
C793 C794 1.401 . S
C793 H810 0.930 . S
C794 C792 1.392 . S
C794 C793 1.401 . S
C794 H811 0.930 . S
C795 O778 1.262 1_556 S
C795 O779 1.260 . S
C796 Tb732 2.833 . S
C796 O776 1.251 . S
C796 O781 1.256 . S
C796 C789 1.500 . S
C797 H762 0.929 . S
C797 C775 1.444 . S
C797 C798 1.317 . S
C798 H760 0.930 . S
C798 C766 1.432 . S
C798 C797 1.317 . S
C799 O783 1.283 . S
C799 O786 1.243 . S
C800 C801 1.382 1_655 S
C800 C804 1.393 . S
C800 C807 1.500 . S
C801 C800 1.382 1_455 S
C801 C802 1.400 . S
C801 H812 0.930 . S
C802 C801 1.400 . S
C802 C803 1.384 1_455 S
C803 C802 1.384 1_655 S
C803 C805 1.392 . S
C803 H813 0.931 . S
C804 C800 1.393 . S
C804 C805 1.401 . S
C804 H814 0.930 . S
C805 C803 1.392 . S
C805 C804 1.401 . S
C805 H815 0.930 . S
C806 O784 1.262 1_554 S
C806 O785 1.260 . S
C807 Tb743 2.833 . S
C807 O782 1.251 . S
C807 O787 1.256 . S
C807 C800 1.500 . S
H808 C791 0.930 . S
H809 C792 0.931 . S
H810 C793 0.930 . S
H811 C794 0.930 . S
H812 C801 0.930 . S
H813 C803 0.931 . S
H814 C804 0.930 . S
H815 C805 0.930 . S
Tb816 N847 2.660 . S
Tb816 N854 2.600 . S
Tb816 O860 2.546 . S
Tb816 O861 2.610 . S
Tb816 O863 2.320 . S
Tb816 O864 2.552 . S
Tb816 O865 2.413 . S
Tb816 O867 2.362 1_554 S
Tb816 O868 2.421 . S
Tb816 C880 2.833 . S
C817 C820 1.432 . S
C817 C821 1.414 . S
C817 N824 1.359 . S
C818 C820 1.417 . S
C818 C822 1.432 . S
C818 C830 1.410 . S
C819 C821 1.444 . S
C819 C822 1.317 . S
C819 H842 0.929 . S
C820 C817 1.432 . S
C820 C818 1.417 . S
C820 N828 1.360 . S
C821 C817 1.414 . S
C821 C819 1.444 . S
C821 C826 1.385 . S
C822 C818 1.432 . S
C822 C819 1.317 . S
C822 H834 0.930 . S
C823 C825 1.392 . S
C823 C826 1.370 . S
C823 H835 0.931 . S
N824 C817 1.359 . S
N824 C825 1.327 . S
N824 Tb827 2.600 . S
C825 C823 1.392 . S
C825 N824 1.327 . S
C825 H832 0.930 . S
C826 C821 1.385 . S
C826 C823 1.370 . S
C826 H845 0.930 . S
Tb827 N824 2.600 . S
Tb827 N828 2.660 . S
Tb827 O861 2.362 1_556 S
Tb827 O862 2.421 . S
Tb827 O866 2.546 . S
Tb827 O867 2.610 . S
Tb827 O869 2.320 . S
Tb827 O870 2.552 . S
Tb827 O871 2.413 . S
Tb827 C891 2.833 . S
N828 C820 1.360 . S
N828 Tb827 2.660 . S
N828 C829 1.305 . S
C829 N828 1.305 . S
C829 C831 1.407 . S
C829 H836 0.930 . S
C830 C818 1.410 . S
C830 C831 1.345 . S
C830 H838 0.930 . S
C831 C829 1.407 . S
C831 C830 1.345 . S
C831 H833 0.930 . S
H832 C825 0.930 . S
H833 C831 0.930 . S
H834 C822 0.930 . S
H835 C823 0.931 . S
H836 C829 0.930 . S
H837 C851 0.930 . S
H838 C830 0.930 . S
H839 C857 0.930 . S
H840 C848 0.930 . S
H841 C855 0.931 . S
H842 C819 0.929 . S
H843 C849 0.930 . S
H844 C882 0.930 . S
H845 C826 0.930 . S
H846 C881 0.929 . S
N847 Tb816 2.660 . S
N847 C848 1.305 . S
N847 C852 1.360 . S
C848 H840 0.930 . S
C848 N847 1.305 . S
C848 C851 1.407 . S
C849 H843 0.930 . S
C849 C850 1.410 . S
C849 C851 1.345 . S
C850 C849 1.410 . S
C850 C852 1.417 . S
C850 C882 1.432 . S
C851 H837 0.930 . S
C851 C848 1.407 . S
C851 C849 1.345 . S
C852 N847 1.360 . S
C852 C850 1.417 . S
C852 C856 1.432 . S
H853 C858 0.930 . S
N854 Tb816 2.600 . S
N854 C856 1.359 . S
N854 C857 1.327 . S
C855 H841 0.931 . S
C855 C857 1.392 . S
C855 C858 1.370 . S
C856 C852 1.432 . S
C856 N854 1.359 . S
C856 C859 1.414 . S
C857 H839 0.930 . S
C857 N854 1.327 . S
C857 C855 1.392 . S
C858 H853 0.930 . S
C858 C855 1.370 . S
C858 C859 1.385 . S
C859 C856 1.414 . S
C859 C858 1.385 . S
C859 C881 1.444 . S
O860 Tb816 2.546 . S
O860 C880 1.251 . S
O861 Tb816 2.610 . S
O861 Tb827 2.362 1_554 S
O861 C872 1.283 . S
O862 Tb827 2.421 . S
O862 C879 1.262 1_556 S
O863 Tb816 2.320 . S
O863 C879 1.260 . S
O864 Tb816 2.552 . S
O864 C872 1.243 . S
O865 Tb816 2.413 . S
O865 C880 1.256 . S
O866 Tb827 2.546 . S
O866 C891 1.251 . S
O867 Tb816 2.362 1_556 S
O867 Tb827 2.610 . S
O867 C883 1.283 . S
O868 Tb816 2.421 . S
O868 C890 1.262 1_554 S
O869 Tb827 2.320 . S
O869 C890 1.260 . S
O870 Tb827 2.552 . S
O870 C883 1.243 . S
O871 Tb827 2.413 . S
O871 C891 1.256 . S
C872 O861 1.283 . S
C872 O864 1.243 . S
C873 C875 1.382 . S
C873 C877 1.393 . S
C873 C880 1.500 . S
C874 C875 1.400 . S
C874 C876 1.384 . S
C875 C873 1.382 . S
C875 C874 1.400 . S
C875 H892 0.930 . S
C876 C874 1.384 . S
C876 C878 1.392 . S
C876 H893 0.931 . S
C877 C873 1.393 . S
C877 C878 1.401 . S
C877 H894 0.930 . S
C878 C876 1.392 . S
C878 C877 1.401 . S
C878 H895 0.930 . S
C879 O862 1.262 1_554 S
C879 O863 1.260 . S
C880 Tb816 2.833 . S
C880 O860 1.251 . S
C880 O865 1.256 . S
C880 C873 1.500 . S
C881 H846 0.929 . S
C881 C859 1.444 . S
C881 C882 1.317 . S
C882 H844 0.930 . S
C882 C850 1.432 . S
C882 C881 1.317 . S
C883 O867 1.283 . S
C883 O870 1.243 . S
C884 C885 1.382 . S
C884 C888 1.393 . S
C884 C891 1.500 . S
C885 C884 1.382 . S
C885 C886 1.400 . S
C885 H896 0.930 . S
C886 C885 1.400 . S
C886 C887 1.384 . S
C887 C886 1.384 . S
C887 C889 1.392 . S
C887 H897 0.931 . S
C888 C884 1.393 . S
C888 C889 1.401 . S
C888 H898 0.930 . S
C889 C887 1.392 . S
C889 C888 1.401 . S
C889 H899 0.930 . S
C890 O868 1.262 1_556 S
C890 O869 1.260 . S
C891 Tb827 2.833 . S
C891 O866 1.251 . S
C891 O871 1.256 . S
C891 C884 1.500 . S
H892 C875 0.930 . S
H893 C876 0.931 . S
H894 C877 0.930 . S
H895 C878 0.930 . S
H896 C885 0.930 . S
H897 C887 0.931 . S
H898 C888 0.930 . S
H899 C889 0.930 . S
Tb900 N931 2.660 . S
Tb900 N938 2.600 . S
Tb900 O944 2.546 . S
Tb900 O945 2.610 . S
Tb900 O947 2.320 . S
Tb900 O948 2.552 . S
Tb900 O949 2.413 . S
Tb900 O951 2.362 . S
Tb900 O952 2.421 . S
Tb900 C964 2.833 . S
C901 C904 1.432 . S
C901 C905 1.414 . S
C901 N908 1.359 . S
C902 C904 1.417 . S
C902 C906 1.432 . S
C902 C914 1.410 . S
C903 C905 1.444 . S
C903 C906 1.317 . S
C903 H926 0.929 . S
C904 C901 1.432 . S
C904 C902 1.417 . S
C904 N912 1.360 . S
C905 C901 1.414 . S
C905 C903 1.444 . S
C905 C910 1.385 . S
C906 C902 1.432 . S
C906 C903 1.317 . S
C906 H918 0.930 . S
C907 C909 1.392 . S
C907 C910 1.370 . S
C907 H919 0.931 . S
N908 C901 1.359 . S
N908 C909 1.327 . S
N908 Tb911 2.600 . S
C909 C907 1.392 . S
C909 N908 1.327 . S
C909 H916 0.930 . S
C910 C905 1.385 . S
C910 C907 1.370 . S
C910 H929 0.930 . S
Tb911 N908 2.600 . S
Tb911 N912 2.660 . S
Tb911 O945 2.362 . S
Tb911 O946 2.421 . S
Tb911 O950 2.546 . S
Tb911 O951 2.610 . S
Tb911 O953 2.320 . S
Tb911 O954 2.552 . S
Tb911 O955 2.413 . S
Tb911 C975 2.833 . S
N912 C904 1.360 . S
N912 Tb911 2.660 . S
N912 C913 1.305 . S
C913 N912 1.305 . S
C913 C915 1.407 . S
C913 H920 0.930 . S
C914 C902 1.410 . S
C914 C915 1.345 . S
C914 H922 0.930 . S
C915 C913 1.407 . S
C915 C914 1.345 . S
C915 H917 0.930 . S
H916 C909 0.930 . S
H917 C915 0.930 . S
H918 C906 0.930 . S
H919 C907 0.931 . S
H920 C913 0.930 . S
H921 C935 0.930 . S
H922 C914 0.930 . S
H923 C941 0.930 . S
H924 C932 0.930 . S
H925 C939 0.931 . S
H926 C903 0.929 . S
H927 C933 0.930 . S
H928 C966 0.930 . S
H929 C910 0.930 . S
H930 C965 0.929 . S
N931 Tb900 2.660 . S
N931 C932 1.305 . S
N931 C936 1.360 . S
C932 H924 0.930 . S
C932 N931 1.305 . S
C932 C935 1.407 . S
C933 H927 0.930 . S
C933 C934 1.410 . S
C933 C935 1.345 . S
C934 C933 1.410 . S
C934 C936 1.417 . S
C934 C966 1.432 . S
C935 H921 0.930 . S
C935 C932 1.407 . S
C935 C933 1.345 . S
C936 N931 1.360 . S
C936 C934 1.417 . S
C936 C940 1.432 . S
H937 C942 0.930 . S
N938 Tb900 2.600 . S
N938 C940 1.359 . S
N938 C941 1.327 . S
C939 H925 0.931 . S
C939 C941 1.392 . S
C939 C942 1.370 . S
C940 C936 1.432 . S
C940 N938 1.359 . S
C940 C943 1.414 . S
C941 H923 0.930 . S
C941 N938 1.327 . S
C941 C939 1.392 . S
C942 H937 0.930 . S
C942 C939 1.370 . S
C942 C943 1.385 . S
C943 C940 1.414 . S
C943 C942 1.385 . S
C943 C965 1.444 . S
O944 Tb900 2.546 . S
O944 C964 1.251 . S
O945 Tb900 2.610 . S
O945 Tb911 2.362 . S
O945 C956 1.283 . S
O946 Tb911 2.421 . S
O946 C963 1.262 . S
O947 Tb900 2.320 . S
O947 C963 1.260 . S
O948 Tb900 2.552 . S
O948 C956 1.243 . S
O949 Tb900 2.413 . S
O949 C964 1.256 . S
O950 Tb911 2.546 . S
O950 C975 1.251 . S
O951 Tb900 2.362 . S
O951 Tb911 2.610 . S
O951 C967 1.283 . S
O952 Tb900 2.421 . S
O952 C974 1.262 . S
O953 Tb911 2.320 . S
O953 C974 1.260 . S
O954 Tb911 2.552 . S
O954 C967 1.243 . S
O955 Tb911 2.413 . S
O955 C975 1.256 . S
C956 O945 1.283 . S
C956 O948 1.243 . S
C957 C959 1.382 . S
C957 C961 1.393 . S
C957 C964 1.500 . S
C958 C959 1.400 . S
C958 C960 1.384 . S
C959 C957 1.382 . S
C959 C958 1.400 . S
C959 H976 0.930 . S
C960 C958 1.384 . S
C960 C962 1.392 . S
C960 H977 0.931 . S
C961 C957 1.393 . S
C961 C962 1.401 . S
C961 H978 0.930 . S
C962 C960 1.392 . S
C962 C961 1.401 . S
C962 H979 0.930 . S
C963 O946 1.262 . S
C963 O947 1.260 . S
C964 Tb900 2.833 . S
C964 O944 1.251 . S
C964 O949 1.256 . S
C964 C957 1.500 . S
C965 H930 0.929 . S
C965 C943 1.444 . S
C965 C966 1.317 . S
C966 H928 0.930 . S
C966 C934 1.432 . S
C966 C965 1.317 . S
C967 O951 1.283 . S
C967 O954 1.243 . S
C968 C969 1.382 . S
C968 C972 1.393 . S
C968 C975 1.500 . S
C969 C968 1.382 . S
C969 C970 1.400 . S
C969 H980 0.930 . S
C970 C969 1.400 . S
C970 C971 1.384 . S
C971 C970 1.384 . S
C971 C973 1.392 . S
C971 H981 0.931 . S
C972 C968 1.393 . S
C972 C973 1.401 . S
C972 H982 0.930 . S
C973 C971 1.392 . S
C973 C972 1.401 . S
C973 H983 0.930 . S
C974 O952 1.262 . S
C974 O953 1.260 . S
C975 Tb911 2.833 . S
C975 O950 1.251 . S
C975 O955 1.256 . S
C975 C968 1.500 . S
H976 C959 0.930 . S
H977 C960 0.931 . S
H978 C961 0.930 . S
H979 C962 0.930 . S
H980 C969 0.930 . S
H981 C971 0.931 . S
H982 C972 0.930 . S
H983 C973 0.930 . S
Tb984 N1015 2.660 . S
Tb984 N1022 2.600 . S
Tb984 O1028 2.546 . S
Tb984 O1029 2.610 . S
Tb984 O1031 2.320 . S
Tb984 O1032 2.552 . S
Tb984 O1033 2.413 . S
Tb984 O1035 2.362 . S
Tb984 O1036 2.421 . S
Tb984 C1048 2.833 . S
C985 C988 1.432 . S
C985 C989 1.414 . S
C985 N992 1.359 . S
C986 C988 1.417 . S
C986 C990 1.432 . S
C986 C998 1.410 . S
C987 C989 1.444 . S
C987 C990 1.317 . S
C987 H1010 0.929 . S
C988 C985 1.432 . S
C988 C986 1.417 . S
C988 N996 1.360 . S
C989 C985 1.414 . S
C989 C987 1.444 . S
C989 C994 1.385 . S
C990 C986 1.432 . S
C990 C987 1.317 . S
C990 H1002 0.930 . S
C991 C993 1.392 . S
C991 C994 1.370 . S
C991 H1003 0.931 . S
N992 C985 1.359 . S
N992 C993 1.327 . S
N992 Tb995 2.600 . S
C993 C991 1.392 . S
C993 N992 1.327 . S
C993 H1000 0.930 . S
C994 C989 1.385 . S
C994 C991 1.370 . S
C994 H1013 0.930 . S
Tb995 N992 2.600 . S
Tb995 N996 2.660 . S
Tb995 O1029 2.362 . S
Tb995 O1030 2.421 . S
Tb995 O1034 2.546 . S
Tb995 O1035 2.610 . S
Tb995 O1037 2.320 . S
Tb995 O1038 2.552 . S
Tb995 O1039 2.413 . S
Tb995 C1059 2.833 . S
N996 C988 1.360 . S
N996 Tb995 2.660 . S
N996 C997 1.305 . S
C997 N996 1.305 . S
C997 C999 1.407 . S
C997 H1004 0.930 . S
C998 C986 1.410 . S
C998 C999 1.345 . S
C998 H1006 0.930 . S
C999 C997 1.407 . S
C999 C998 1.345 . S
C999 H1001 0.930 . S
H1000 C993 0.930 . S
H1001 C999 0.930 . S
H1002 C990 0.930 . S
H1003 C991 0.931 . S
H1004 C997 0.930 . S
H1005 C1019 0.930 . S
H1006 C998 0.930 . S
H1007 C1025 0.930 . S
H1008 C1016 0.930 . S
H1009 C1023 0.931 . S
H1010 C987 0.929 . S
H1011 C1017 0.930 . S
H1012 C1050 0.930 . S
H1013 C994 0.930 . S
H1014 C1049 0.929 . S
N1015 Tb984 2.660 . S
N1015 C1016 1.305 . S
N1015 C1020 1.360 . S
C1016 H1008 0.930 . S
C1016 N1015 1.305 . S
C1016 C1019 1.407 . S
C1017 H1011 0.930 . S
C1017 C1018 1.410 . S
C1017 C1019 1.345 . S
C1018 C1017 1.410 . S
C1018 C1020 1.417 . S
C1018 C1050 1.432 . S
C1019 H1005 0.930 . S
C1019 C1016 1.407 . S
C1019 C1017 1.345 . S
C1020 N1015 1.360 . S
C1020 C1018 1.417 . S
C1020 C1024 1.432 . S
H1021 C1026 0.930 . S
N1022 Tb984 2.600 . S
N1022 C1024 1.359 . S
N1022 C1025 1.327 . S
C1023 H1009 0.931 . S
C1023 C1025 1.392 . S
C1023 C1026 1.370 . S
C1024 C1020 1.432 . S
C1024 N1022 1.359 . S
C1024 C1027 1.414 . S
C1025 H1007 0.930 . S
C1025 N1022 1.327 . S
C1025 C1023 1.392 . S
C1026 H1021 0.930 . S
C1026 C1023 1.370 . S
C1026 C1027 1.385 . S
C1027 C1024 1.414 . S
C1027 C1026 1.385 . S
C1027 C1049 1.444 . S
O1028 Tb984 2.546 . S
O1028 C1048 1.251 . S
O1029 Tb984 2.610 . S
O1029 Tb995 2.362 . S
O1029 C1040 1.283 . S
O1030 Tb995 2.421 . S
O1030 C1047 1.262 . S
O1031 Tb984 2.320 . S
O1031 C1047 1.260 . S
O1032 Tb984 2.552 . S
O1032 C1040 1.243 . S
O1033 Tb984 2.413 . S
O1033 C1048 1.256 . S
O1034 Tb995 2.546 . S
O1034 C1059 1.251 . S
O1035 Tb984 2.362 . S
O1035 Tb995 2.610 . S
O1035 C1051 1.283 . S
O1036 Tb984 2.421 . S
O1036 C1058 1.262 . S
O1037 Tb995 2.320 . S
O1037 C1058 1.260 . S
O1038 Tb995 2.552 . S
O1038 C1051 1.243 . S
O1039 Tb995 2.413 . S
O1039 C1059 1.256 . S
C1040 O1029 1.283 . S
C1040 O1032 1.243 . S
C1041 C1043 1.382 . S
C1041 C1045 1.393 . S
C1041 C1048 1.500 . S
C1042 C1043 1.400 . S
C1042 C1044 1.384 . S
C1043 C1041 1.382 . S
C1043 C1042 1.400 . S
C1043 H1060 0.930 . S
C1044 C1042 1.384 . S
C1044 C1046 1.392 . S
C1044 H1061 0.931 . S
C1045 C1041 1.393 . S
C1045 C1046 1.401 . S
C1045 H1062 0.930 . S
C1046 C1044 1.392 . S
C1046 C1045 1.401 . S
C1046 H1063 0.930 . S
C1047 O1030 1.262 . S
C1047 O1031 1.260 . S
C1048 Tb984 2.833 . S
C1048 O1028 1.251 . S
C1048 O1033 1.256 . S
C1048 C1041 1.500 . S
C1049 H1014 0.929 . S
C1049 C1027 1.444 . S
C1049 C1050 1.317 . S
C1050 H1012 0.930 . S
C1050 C1018 1.432 . S
C1050 C1049 1.317 . S
C1051 O1035 1.283 . S
C1051 O1038 1.243 . S
C1052 C1053 1.382 . S
C1052 C1056 1.393 . S
C1052 C1059 1.500 . S
C1053 C1052 1.382 . S
C1053 C1054 1.400 . S
C1053 H1064 0.930 . S
C1054 C1053 1.400 . S
C1054 C1055 1.384 . S
C1055 C1054 1.384 . S
C1055 C1057 1.392 . S
C1055 H1065 0.931 . S
C1056 C1052 1.393 . S
C1056 C1057 1.401 . S
C1056 H1066 0.930 . S
C1057 C1055 1.392 . S
C1057 C1056 1.401 . S
C1057 H1067 0.930 . S
C1058 O1036 1.262 . S
C1058 O1037 1.260 . S
C1059 Tb995 2.833 . S
C1059 O1034 1.251 . S
C1059 O1039 1.256 . S
C1059 C1052 1.500 . S
H1060 C1043 0.930 . S
H1061 C1044 0.931 . S
H1062 C1045 0.930 . S
H1063 C1046 0.930 . S
H1064 C1053 0.930 . S
H1065 C1055 0.931 . S
H1066 C1056 0.930 . S
H1067 C1057 0.930 . S
Tb1068 N1099 2.660 . S
Tb1068 N1106 2.600 . S
Tb1068 O1112 2.546 . S
Tb1068 O1113 2.610 . S
Tb1068 O1115 2.320 . S
Tb1068 O1116 2.552 . S
Tb1068 O1117 2.413 . S
Tb1068 O1119 2.362 . S
Tb1068 O1120 2.421 . S
Tb1068 C1132 2.833 . S
C1069 C1072 1.432 . S
C1069 C1073 1.414 . S
C1069 N1076 1.359 . S
C1070 C1072 1.417 . S
C1070 C1074 1.432 . S
C1070 C1082 1.410 . S
C1071 C1073 1.444 . S
C1071 C1074 1.317 . S
C1071 H1094 0.929 . S
C1072 C1069 1.432 . S
C1072 C1070 1.417 . S
C1072 N1080 1.360 . S
C1073 C1069 1.414 . S
C1073 C1071 1.444 . S
C1073 C1078 1.385 . S
C1074 C1070 1.432 . S
C1074 C1071 1.317 . S
C1074 H1086 0.930 . S
C1075 C1077 1.392 . S
C1075 C1078 1.370 . S
C1075 H1087 0.931 . S
N1076 C1069 1.359 . S
N1076 C1077 1.327 . S
N1076 Tb1079 2.600 . S
C1077 C1075 1.392 . S
C1077 N1076 1.327 . S
C1077 H1084 0.930 . S
C1078 C1073 1.385 . S
C1078 C1075 1.370 . S
C1078 H1097 0.930 . S
Tb1079 N1076 2.600 . S
Tb1079 N1080 2.660 . S
Tb1079 O1113 2.362 . S
Tb1079 O1114 2.421 . S
Tb1079 O1118 2.546 . S
Tb1079 O1119 2.610 . S
Tb1079 O1121 2.320 . S
Tb1079 O1122 2.552 . S
Tb1079 O1123 2.413 . S
Tb1079 C1143 2.833 . S
N1080 C1072 1.360 . S
N1080 Tb1079 2.660 . S
N1080 C1081 1.305 . S
C1081 N1080 1.305 . S
C1081 C1083 1.407 . S
C1081 H1088 0.930 . S
C1082 C1070 1.410 . S
C1082 C1083 1.345 . S
C1082 H1090 0.930 . S
C1083 C1081 1.407 . S
C1083 C1082 1.345 . S
C1083 H1085 0.930 . S
H1084 C1077 0.930 . S
H1085 C1083 0.930 . S
H1086 C1074 0.930 . S
H1087 C1075 0.931 . S
H1088 C1081 0.930 . S
H1089 C1103 0.930 . S
H1090 C1082 0.930 . S
H1091 C1109 0.930 . S
H1092 C1100 0.930 . S
H1093 C1107 0.931 . S
H1094 C1071 0.929 . S
H1095 C1101 0.930 . S
H1096 C1134 0.930 . S
H1097 C1078 0.930 . S
H1098 C1133 0.929 . S
N1099 Tb1068 2.660 . S
N1099 C1100 1.305 . S
N1099 C1104 1.360 . S
C1100 H1092 0.930 . S
C1100 N1099 1.305 . S
C1100 C1103 1.407 . S
C1101 H1095 0.930 . S
C1101 C1102 1.410 . S
C1101 C1103 1.345 . S
C1102 C1101 1.410 . S
C1102 C1104 1.417 . S
C1102 C1134 1.432 . S
C1103 H1089 0.930 . S
C1103 C1100 1.407 . S
C1103 C1101 1.345 . S
C1104 N1099 1.360 . S
C1104 C1102 1.417 . S
C1104 C1108 1.432 . S
H1105 C1110 0.930 . S
N1106 Tb1068 2.600 . S
N1106 C1108 1.359 . S
N1106 C1109 1.327 . S
C1107 H1093 0.931 . S
C1107 C1109 1.392 . S
C1107 C1110 1.370 . S
C1108 C1104 1.432 . S
C1108 N1106 1.359 . S
C1108 C1111 1.414 . S
C1109 H1091 0.930 . S
C1109 N1106 1.327 . S
C1109 C1107 1.392 . S
C1110 H1105 0.930 . S
C1110 C1107 1.370 . S
C1110 C1111 1.385 . S
C1111 C1108 1.414 . S
C1111 C1110 1.385 . S
C1111 C1133 1.444 . S
O1112 Tb1068 2.546 . S
O1112 C1132 1.251 . S
O1113 Tb1068 2.610 . S
O1113 Tb1079 2.362 . S
O1113 C1124 1.283 . S
O1114 Tb1079 2.421 . S
O1114 C1131 1.262 . S
O1115 Tb1068 2.320 . S
O1115 C1131 1.260 . S
O1116 Tb1068 2.552 . S
O1116 C1124 1.243 . S
O1117 Tb1068 2.413 . S
O1117 C1132 1.256 . S
O1118 Tb1079 2.546 . S
O1118 C1143 1.251 . S
O1119 Tb1068 2.362 . S
O1119 Tb1079 2.610 . S
O1119 C1135 1.283 . S
O1120 Tb1068 2.421 . S
O1120 C1142 1.262 . S
O1121 Tb1079 2.320 . S
O1121 C1142 1.260 . S
O1122 Tb1079 2.552 . S
O1122 C1135 1.243 . S
O1123 Tb1079 2.413 . S
O1123 C1143 1.256 . S
C1124 O1113 1.283 . S
C1124 O1116 1.243 . S
C1125 C1127 1.382 . S
C1125 C1129 1.393 . S
C1125 C1132 1.500 . S
C1126 C1127 1.400 . S
C1126 C1128 1.384 . S
C1127 C1125 1.382 . S
C1127 C1126 1.400 . S
C1127 H1144 0.930 . S
C1128 C1126 1.384 . S
C1128 C1130 1.392 . S
C1128 H1145 0.931 . S
C1129 C1125 1.393 . S
C1129 C1130 1.401 . S
C1129 H1146 0.930 . S
C1130 C1128 1.392 . S
C1130 C1129 1.401 . S
C1130 H1147 0.930 . S
C1131 O1114 1.262 . S
C1131 O1115 1.260 . S
C1132 Tb1068 2.833 . S
C1132 O1112 1.251 . S
C1132 O1117 1.256 . S
C1132 C1125 1.500 . S
C1133 H1098 0.929 . S
C1133 C1111 1.444 . S
C1133 C1134 1.317 . S
C1134 H1096 0.930 . S
C1134 C1102 1.432 . S
C1134 C1133 1.317 . S
C1135 O1119 1.283 . S
C1135 O1122 1.243 . S
C1136 C1137 1.382 . S
C1136 C1140 1.393 . S
C1136 C1143 1.500 . S
C1137 C1136 1.382 . S
C1137 C1138 1.400 . S
C1137 H1148 0.930 . S
C1138 C1137 1.400 . S
C1138 C1139 1.384 . S
C1139 C1138 1.384 . S
C1139 C1141 1.392 . S
C1139 H1149 0.931 . S
C1140 C1136 1.393 . S
C1140 C1141 1.401 . S
C1140 H1150 0.930 . S
C1141 C1139 1.392 . S
C1141 C1140 1.401 . S
C1141 H1151 0.930 . S
C1142 O1120 1.262 . S
C1142 O1121 1.260 . S
C1143 Tb1079 2.833 . S
C1143 O1118 1.251 . S
C1143 O1123 1.256 . S
C1143 C1136 1.500 . S
H1144 C1127 0.930 . S
H1145 C1128 0.931 . S
H1146 C1129 0.930 . S
H1147 C1130 0.930 . S
H1148 C1137 0.930 . S
H1149 C1139 0.931 . S
H1150 C1140 0.930 . S
H1151 C1141 0.930 . S
Tb1152 N1183 2.660 . S
Tb1152 N1190 2.600 . S
Tb1152 O1196 2.546 . S
Tb1152 O1197 2.610 . S
Tb1152 O1199 2.320 . S
Tb1152 O1200 2.552 . S
Tb1152 O1201 2.413 . S
Tb1152 O1203 2.362 . S
Tb1152 O1204 2.421 . S
Tb1152 C1216 2.833 . S
C1153 C1156 1.432 . S
C1153 C1157 1.414 . S
C1153 N1160 1.359 . S
C1154 C1156 1.417 . S
C1154 C1158 1.432 . S
C1154 C1166 1.410 . S
C1155 C1157 1.444 . S
C1155 C1158 1.317 . S
C1155 H1178 0.929 . S
C1156 C1153 1.432 . S
C1156 C1154 1.417 . S
C1156 N1164 1.360 . S
C1157 C1153 1.414 . S
C1157 C1155 1.444 . S
C1157 C1162 1.385 . S
C1158 C1154 1.432 . S
C1158 C1155 1.317 . S
C1158 H1170 0.930 . S
C1159 C1161 1.392 . S
C1159 C1162 1.370 . S
C1159 H1171 0.931 . S
N1160 C1153 1.359 . S
N1160 C1161 1.327 . S
N1160 Tb1163 2.600 . S
C1161 C1159 1.392 . S
C1161 N1160 1.327 . S
C1161 H1168 0.930 . S
C1162 C1157 1.385 . S
C1162 C1159 1.370 . S
C1162 H1181 0.930 . S
Tb1163 N1160 2.600 . S
Tb1163 N1164 2.660 . S
Tb1163 O1197 2.362 . S
Tb1163 O1198 2.421 . S
Tb1163 O1202 2.546 . S
Tb1163 O1203 2.610 . S
Tb1163 O1205 2.320 . S
Tb1163 O1206 2.552 . S
Tb1163 O1207 2.413 . S
Tb1163 C1227 2.833 . S
N1164 C1156 1.360 . S
N1164 Tb1163 2.660 . S
N1164 C1165 1.305 . S
C1165 N1164 1.305 . S
C1165 C1167 1.407 . S
C1165 H1172 0.930 . S
C1166 C1154 1.410 . S
C1166 C1167 1.345 . S
C1166 H1174 0.930 . S
C1167 C1165 1.407 . S
C1167 C1166 1.345 . S
C1167 H1169 0.930 . S
H1168 C1161 0.930 . S
H1169 C1167 0.930 . S
H1170 C1158 0.930 . S
H1171 C1159 0.931 . S
H1172 C1165 0.930 . S
H1173 C1187 0.930 . S
H1174 C1166 0.930 . S
H1175 C1193 0.930 . S
H1176 C1184 0.930 . S
H1177 C1191 0.931 . S
H1178 C1155 0.929 . S
H1179 C1185 0.930 . S
H1180 C1218 0.930 . S
H1181 C1162 0.930 . S
H1182 C1217 0.929 . S
N1183 Tb1152 2.660 . S
N1183 C1184 1.305 . S
N1183 C1188 1.360 . S
C1184 H1176 0.930 . S
C1184 N1183 1.305 . S
C1184 C1187 1.407 . S
C1185 H1179 0.930 . S
C1185 C1186 1.410 . S
C1185 C1187 1.345 . S
C1186 C1185 1.410 . S
C1186 C1188 1.417 . S
C1186 C1218 1.432 . S
C1187 H1173 0.930 . S
C1187 C1184 1.407 . S
C1187 C1185 1.345 . S
C1188 N1183 1.360 . S
C1188 C1186 1.417 . S
C1188 C1192 1.432 . S
H1189 C1194 0.930 . S
N1190 Tb1152 2.600 . S
N1190 C1192 1.359 . S
N1190 C1193 1.327 . S
C1191 H1177 0.931 . S
C1191 C1193 1.392 . S
C1191 C1194 1.370 . S
C1192 C1188 1.432 . S
C1192 N1190 1.359 . S
C1192 C1195 1.414 . S
C1193 H1175 0.930 . S
C1193 N1190 1.327 . S
C1193 C1191 1.392 . S
C1194 H1189 0.930 . S
C1194 C1191 1.370 . S
C1194 C1195 1.385 . S
C1195 C1192 1.414 . S
C1195 C1194 1.385 . S
C1195 C1217 1.444 . S
O1196 Tb1152 2.546 . S
O1196 C1216 1.251 . S
O1197 Tb1152 2.610 . S
O1197 Tb1163 2.362 . S
O1197 C1208 1.283 . S
O1198 Tb1163 2.421 . S
O1198 C1215 1.262 . S
O1199 Tb1152 2.320 . S
O1199 C1215 1.260 . S
O1200 Tb1152 2.552 . S
O1200 C1208 1.243 . S
O1201 Tb1152 2.413 . S
O1201 C1216 1.256 . S
O1202 Tb1163 2.546 . S
O1202 C1227 1.251 . S
O1203 Tb1152 2.362 . S
O1203 Tb1163 2.610 . S
O1203 C1219 1.283 . S
O1204 Tb1152 2.421 . S
O1204 C1226 1.262 . S
O1205 Tb1163 2.320 . S
O1205 C1226 1.260 . S
O1206 Tb1163 2.552 . S
O1206 C1219 1.243 . S
O1207 Tb1163 2.413 . S
O1207 C1227 1.256 . S
C1208 O1197 1.283 . S
C1208 O1200 1.243 . S
C1209 C1211 1.382 . S
C1209 C1213 1.393 . S
C1209 C1216 1.500 . S
C1210 C1211 1.400 . S
C1210 C1212 1.384 . S
C1211 C1209 1.382 . S
C1211 C1210 1.400 . S
C1211 H1228 0.930 . S
C1212 C1210 1.384 . S
C1212 C1214 1.392 . S
C1212 H1229 0.931 . S
C1213 C1209 1.393 . S
C1213 C1214 1.401 . S
C1213 H1230 0.930 . S
C1214 C1212 1.392 . S
C1214 C1213 1.401 . S
C1214 H1231 0.930 . S
C1215 O1198 1.262 . S
C1215 O1199 1.260 . S
C1216 Tb1152 2.833 . S
C1216 O1196 1.251 . S
C1216 O1201 1.256 . S
C1216 C1209 1.500 . S
C1217 H1182 0.929 . S
C1217 C1195 1.444 . S
C1217 C1218 1.317 . S
C1218 H1180 0.930 . S
C1218 C1186 1.432 . S
C1218 C1217 1.317 . S
C1219 O1203 1.283 . S
C1219 O1206 1.243 . S
C1220 C1221 1.382 . S
C1220 C1224 1.393 . S
C1220 C1227 1.500 . S
C1221 C1220 1.382 . S
C1221 C1222 1.400 . S
C1221 H1232 0.930 . S
C1222 C1221 1.400 . S
C1222 C1223 1.384 . S
C1223 C1222 1.384 . S
C1223 C1225 1.392 . S
C1223 H1233 0.931 . S
C1224 C1220 1.393 . S
C1224 C1225 1.401 . S
C1224 H1234 0.930 . S
C1225 C1223 1.392 . S
C1225 C1224 1.401 . S
C1225 H1235 0.930 . S
C1226 O1204 1.262 . S
C1226 O1205 1.260 . S
C1227 Tb1163 2.833 . S
C1227 O1202 1.251 . S
C1227 O1207 1.256 . S
C1227 C1220 1.500 . S
H1228 C1211 0.930 . S
H1229 C1212 0.931 . S
H1230 C1213 0.930 . S
H1231 C1214 0.930 . S
H1232 C1221 0.930 . S
H1233 C1223 0.931 . S
H1234 C1224 0.930 . S
H1235 C1225 0.930 . S
Tb1236 N1267 2.660 . S
Tb1236 N1274 2.600 . S
Tb1236 O1280 2.546 . S
Tb1236 O1281 2.610 . S
Tb1236 O1283 2.320 . S
Tb1236 O1284 2.552 . S
Tb1236 O1285 2.413 . S
Tb1236 O1287 2.362 . S
Tb1236 O1288 2.421 . S
Tb1236 C1300 2.833 . S
C1237 C1240 1.432 . S
C1237 C1241 1.414 . S
C1237 N1244 1.359 . S
C1238 C1240 1.417 . S
C1238 C1242 1.432 . S
C1238 C1250 1.410 . S
C1239 C1241 1.444 . S
C1239 C1242 1.317 . S
C1239 H1262 0.929 . S
C1240 C1237 1.432 . S
C1240 C1238 1.417 . S
C1240 N1248 1.360 . S
C1241 C1237 1.414 . S
C1241 C1239 1.444 . S
C1241 C1246 1.385 . S
C1242 C1238 1.432 . S
C1242 C1239 1.317 . S
C1242 H1254 0.930 . S
C1243 C1245 1.392 . S
C1243 C1246 1.370 . S
C1243 H1255 0.931 . S
N1244 C1237 1.359 . S
N1244 C1245 1.327 . S
N1244 Tb1247 2.600 . S
C1245 C1243 1.392 . S
C1245 N1244 1.327 . S
C1245 H1252 0.930 . S
C1246 C1241 1.385 . S
C1246 C1243 1.370 . S
C1246 H1265 0.930 . S
Tb1247 N1244 2.600 . S
Tb1247 N1248 2.660 . S
Tb1247 O1281 2.362 . S
Tb1247 O1282 2.421 . S
Tb1247 O1286 2.546 . S
Tb1247 O1287 2.610 . S
Tb1247 O1289 2.320 . S
Tb1247 O1290 2.552 . S
Tb1247 O1291 2.413 . S
Tb1247 C1311 2.833 . S
N1248 C1240 1.360 . S
N1248 Tb1247 2.660 . S
N1248 C1249 1.305 . S
C1249 N1248 1.305 . S
C1249 C1251 1.407 . S
C1249 H1256 0.930 . S
C1250 C1238 1.410 . S
C1250 C1251 1.345 . S
C1250 H1258 0.930 . S
C1251 C1249 1.407 . S
C1251 C1250 1.345 . S
C1251 H1253 0.930 . S
H1252 C1245 0.930 . S
H1253 C1251 0.930 . S
H1254 C1242 0.930 . S
H1255 C1243 0.931 . S
H1256 C1249 0.930 . S
H1257 C1271 0.930 . S
H1258 C1250 0.930 . S
H1259 C1277 0.930 . S
H1260 C1268 0.930 . S
H1261 C1275 0.931 . S
H1262 C1239 0.929 . S
H1263 C1269 0.930 . S
H1264 C1302 0.930 . S
H1265 C1246 0.930 . S
H1266 C1301 0.929 . S
N1267 Tb1236 2.660 . S
N1267 C1268 1.305 . S
N1267 C1272 1.360 . S
C1268 H1260 0.930 . S
C1268 N1267 1.305 . S
C1268 C1271 1.407 . S
C1269 H1263 0.930 . S
C1269 C1270 1.410 . S
C1269 C1271 1.345 . S
C1270 C1269 1.410 . S
C1270 C1272 1.417 . S
C1270 C1302 1.432 . S
C1271 H1257 0.930 . S
C1271 C1268 1.407 . S
C1271 C1269 1.345 . S
C1272 N1267 1.360 . S
C1272 C1270 1.417 . S
C1272 C1276 1.432 . S
H1273 C1278 0.930 . S
N1274 Tb1236 2.600 . S
N1274 C1276 1.359 . S
N1274 C1277 1.327 . S
C1275 H1261 0.931 . S
C1275 C1277 1.392 . S
C1275 C1278 1.370 . S
C1276 C1272 1.432 . S
C1276 N1274 1.359 . S
C1276 C1279 1.414 . S
C1277 H1259 0.930 . S
C1277 N1274 1.327 . S
C1277 C1275 1.392 . S
C1278 H1273 0.930 . S
C1278 C1275 1.370 . S
C1278 C1279 1.385 . S
C1279 C1276 1.414 . S
C1279 C1278 1.385 . S
C1279 C1301 1.444 . S
O1280 Tb1236 2.546 . S
O1280 C1300 1.251 . S
O1281 Tb1236 2.610 . S
O1281 Tb1247 2.362 . S
O1281 C1292 1.283 . S
O1282 Tb1247 2.421 . S
O1282 C1299 1.262 . S
O1283 Tb1236 2.320 . S
O1283 C1299 1.260 . S
O1284 Tb1236 2.552 . S
O1284 C1292 1.243 . S
O1285 Tb1236 2.413 . S
O1285 C1300 1.256 . S
O1286 Tb1247 2.546 . S
O1286 C1311 1.251 . S
O1287 Tb1236 2.362 . S
O1287 Tb1247 2.610 . S
O1287 C1303 1.283 . S
O1288 Tb1236 2.421 . S
O1288 C1310 1.262 . S
O1289 Tb1247 2.320 . S
O1289 C1310 1.260 . S
O1290 Tb1247 2.552 . S
O1290 C1303 1.243 . S
O1291 Tb1247 2.413 . S
O1291 C1311 1.256 . S
C1292 O1281 1.283 . S
C1292 O1284 1.243 . S
C1293 C1295 1.382 . S
C1293 C1297 1.393 . S
C1293 C1300 1.500 . S
C1294 C1295 1.400 . S
C1294 C1296 1.384 . S
C1295 C1293 1.382 . S
C1295 C1294 1.400 . S
C1295 H1312 0.930 . S
C1296 C1294 1.384 . S
C1296 C1298 1.392 . S
C1296 H1313 0.931 . S
C1297 C1293 1.393 . S
C1297 C1298 1.401 . S
C1297 H1314 0.930 . S
C1298 C1296 1.392 . S
C1298 C1297 1.401 . S
C1298 H1315 0.930 . S
C1299 O1282 1.262 . S
C1299 O1283 1.260 . S
C1300 Tb1236 2.833 . S
C1300 O1280 1.251 . S
C1300 O1285 1.256 . S
C1300 C1293 1.500 . S
C1301 H1266 0.929 . S
C1301 C1279 1.444 . S
C1301 C1302 1.317 . S
C1302 H1264 0.930 . S
C1302 C1270 1.432 . S
C1302 C1301 1.317 . S
C1303 O1287 1.283 . S
C1303 O1290 1.243 . S
C1304 C1305 1.382 . S
C1304 C1308 1.393 . S
C1304 C1311 1.500 . S
C1305 C1304 1.382 . S
C1305 C1306 1.400 . S
C1305 H1316 0.930 . S
C1306 C1305 1.400 . S
C1306 C1307 1.384 . S
C1307 C1306 1.384 . S
C1307 C1309 1.392 . S
C1307 H1317 0.931 . S
C1308 C1304 1.393 . S
C1308 C1309 1.401 . S
C1308 H1318 0.930 . S
C1309 C1307 1.392 . S
C1309 C1308 1.401 . S
C1309 H1319 0.930 . S
C1310 O1288 1.262 . S
C1310 O1289 1.260 . S
C1311 Tb1247 2.833 . S
C1311 O1286 1.251 . S
C1311 O1291 1.256 . S
C1311 C1304 1.500 . S
H1312 C1295 0.930 . S
H1313 C1296 0.931 . S
H1314 C1297 0.930 . S
H1315 C1298 0.930 . S
H1316 C1305 0.930 . S
H1317 C1307 0.931 . S
H1318 C1308 0.930 . S
H1319 C1309 0.930 . S
Tb1320 N1351 2.660 . S
Tb1320 N1358 2.600 . S
Tb1320 O1364 2.546 . S
Tb1320 O1365 2.610 . S
Tb1320 O1367 2.320 . S
Tb1320 O1368 2.552 . S
Tb1320 O1369 2.413 . S
Tb1320 O1371 2.362 . S
Tb1320 O1372 2.421 . S
Tb1320 C1384 2.833 . S
C1321 C1324 1.432 . S
C1321 C1325 1.414 . S
C1321 N1328 1.359 . S
C1322 C1324 1.417 . S
C1322 C1326 1.432 . S
C1322 C1334 1.410 . S
C1323 C1325 1.444 . S
C1323 C1326 1.317 . S
C1323 H1346 0.929 . S
C1324 C1321 1.432 . S
C1324 C1322 1.417 . S
C1324 N1332 1.360 . S
C1325 C1321 1.414 . S
C1325 C1323 1.444 . S
C1325 C1330 1.385 . S
C1326 C1322 1.432 . S
C1326 C1323 1.317 . S
C1326 H1338 0.930 . S
C1327 C1329 1.392 . S
C1327 C1330 1.370 . S
C1327 H1339 0.931 . S
N1328 C1321 1.359 . S
N1328 C1329 1.327 . S
N1328 Tb1331 2.600 . S
C1329 C1327 1.392 . S
C1329 N1328 1.327 . S
C1329 H1336 0.930 . S
C1330 C1325 1.385 . S
C1330 C1327 1.370 . S
C1330 H1349 0.930 . S
Tb1331 N1328 2.600 . S
Tb1331 N1332 2.660 . S
Tb1331 O1365 2.362 . S
Tb1331 O1366 2.421 . S
Tb1331 O1370 2.546 . S
Tb1331 O1371 2.610 . S
Tb1331 O1373 2.320 . S
Tb1331 O1374 2.552 . S
Tb1331 O1375 2.413 . S
Tb1331 C1395 2.833 . S
N1332 C1324 1.360 . S
N1332 Tb1331 2.660 . S
N1332 C1333 1.305 . S
C1333 N1332 1.305 . S
C1333 C1335 1.407 . S
C1333 H1340 0.930 . S
C1334 C1322 1.410 . S
C1334 C1335 1.345 . S
C1334 H1342 0.930 . S
C1335 C1333 1.407 . S
C1335 C1334 1.345 . S
C1335 H1337 0.930 . S
H1336 C1329 0.930 . S
H1337 C1335 0.930 . S
H1338 C1326 0.930 . S
H1339 C1327 0.931 . S
H1340 C1333 0.930 . S
H1341 C1355 0.930 . S
H1342 C1334 0.930 . S
H1343 C1361 0.930 . S
H1344 C1352 0.930 . S
H1345 C1359 0.931 . S
H1346 C1323 0.929 . S
H1347 C1353 0.930 . S
H1348 C1386 0.930 . S
H1349 C1330 0.930 . S
H1350 C1385 0.929 . S
N1351 Tb1320 2.660 . S
N1351 C1352 1.305 . S
N1351 C1356 1.360 . S
C1352 H1344 0.930 . S
C1352 N1351 1.305 . S
C1352 C1355 1.407 . S
C1353 H1347 0.930 . S
C1353 C1354 1.410 . S
C1353 C1355 1.345 . S
C1354 C1353 1.410 . S
C1354 C1356 1.417 . S
C1354 C1386 1.432 . S
C1355 H1341 0.930 . S
C1355 C1352 1.407 . S
C1355 C1353 1.345 . S
C1356 N1351 1.360 . S
C1356 C1354 1.417 . S
C1356 C1360 1.432 . S
H1357 C1362 0.930 . S
N1358 Tb1320 2.600 . S
N1358 C1360 1.359 . S
N1358 C1361 1.327 . S
C1359 H1345 0.931 . S
C1359 C1361 1.392 . S
C1359 C1362 1.370 . S
C1360 C1356 1.432 . S
C1360 N1358 1.359 . S
C1360 C1363 1.414 . S
C1361 H1343 0.930 . S
C1361 N1358 1.327 . S
C1361 C1359 1.392 . S
C1362 H1357 0.930 . S
C1362 C1359 1.370 . S
C1362 C1363 1.385 . S
C1363 C1360 1.414 . S
C1363 C1362 1.385 . S
C1363 C1385 1.444 . S
O1364 Tb1320 2.546 . S
O1364 C1384 1.251 . S
O1365 Tb1320 2.610 . S
O1365 Tb1331 2.362 . S
O1365 C1376 1.283 . S
O1366 Tb1331 2.421 . S
O1366 C1383 1.262 . S
O1367 Tb1320 2.320 . S
O1367 C1383 1.260 . S
O1368 Tb1320 2.552 . S
O1368 C1376 1.243 . S
O1369 Tb1320 2.413 . S
O1369 C1384 1.256 . S
O1370 Tb1331 2.546 . S
O1370 C1395 1.251 . S
O1371 Tb1320 2.362 . S
O1371 Tb1331 2.610 . S
O1371 C1387 1.283 . S
O1372 Tb1320 2.421 . S
O1372 C1394 1.262 . S
O1373 Tb1331 2.320 . S
O1373 C1394 1.260 . S
O1374 Tb1331 2.552 . S
O1374 C1387 1.243 . S
O1375 Tb1331 2.413 . S
O1375 C1395 1.256 . S
C1376 O1365 1.283 . S
C1376 O1368 1.243 . S
C1377 C1379 1.382 . S
C1377 C1381 1.393 . S
C1377 C1384 1.500 . S
C1378 C1379 1.400 . S
C1378 C1380 1.384 . S
C1379 C1377 1.382 . S
C1379 C1378 1.400 . S
C1379 H1396 0.930 . S
C1380 C1378 1.384 . S
C1380 C1382 1.392 . S
C1380 H1397 0.931 . S
C1381 C1377 1.393 . S
C1381 C1382 1.401 . S
C1381 H1398 0.930 . S
C1382 C1380 1.392 . S
C1382 C1381 1.401 . S
C1382 H1399 0.930 . S
C1383 O1366 1.262 . S
C1383 O1367 1.260 . S
C1384 Tb1320 2.833 . S
C1384 O1364 1.251 . S
C1384 O1369 1.256 . S
C1384 C1377 1.500 . S
C1385 H1350 0.929 . S
C1385 C1363 1.444 . S
C1385 C1386 1.317 . S
C1386 H1348 0.930 . S
C1386 C1354 1.432 . S
C1386 C1385 1.317 . S
C1387 O1371 1.283 . S
C1387 O1374 1.243 . S
C1388 C1389 1.382 . S
C1388 C1392 1.393 . S
C1388 C1395 1.500 . S
C1389 C1388 1.382 . S
C1389 C1390 1.400 . S
C1389 H1400 0.930 . S
C1390 C1389 1.400 . S
C1390 C1391 1.384 . S
C1391 C1390 1.384 . S
C1391 C1393 1.392 . S
C1391 H1401 0.931 . S
C1392 C1388 1.393 . S
C1392 C1393 1.401 . S
C1392 H1402 0.930 . S
C1393 C1391 1.392 . S
C1393 C1392 1.401 . S
C1393 H1403 0.930 . S
C1394 O1372 1.262 . S
C1394 O1373 1.260 . S
C1395 Tb1331 2.833 . S
C1395 O1370 1.251 . S
C1395 O1375 1.256 . S
C1395 C1388 1.500 . S
H1396 C1379 0.930 . S
H1397 C1380 0.931 . S
H1398 C1381 0.930 . S
H1399 C1382 0.930 . S
H1400 C1389 0.930 . S
H1401 C1391 0.931 . S
H1402 C1392 0.930 . S
H1403 C1393 0.930 . S
C1404 C1405 1.369 . S
C1404 C1406 1.419 . S
C1404 H1408 0.930 . S
C1405 C1404 1.369 . S
C1405 C1414 1.429 . S
C1406 C1404 1.419 . S
C1406 C1407 1.363 . S
C1406 H1409 0.929 . S
C1407 C1406 1.363 . S
C1407 C1413 1.428 . S
H1408 C1404 0.930 . S
H1409 C1406 0.929 . S
S1410 N1411 1.613 . S
S1410 N1412 1.610 . S
N1411 S1410 1.613 . S
N1411 C1414 1.350 . S
N1412 S1410 1.610 . S
N1412 C1413 1.351 . S
C1413 C1407 1.428 . S
C1413 N1412 1.351 . S
C1413 C1414 1.434 . S
C1414 C1405 1.429 . S
C1414 N1411 1.350 . S
C1414 C1413 1.434 . S
C1415 C1416 1.369 . S
C1415 C1417 1.419 . S
C1415 H1419 0.930 . S
C1416 C1415 1.369 . S
C1416 C1425 1.429 . S
C1417 C1415 1.419 . S
C1417 C1418 1.363 . S
C1417 H1420 0.929 . S
C1418 C1417 1.363 . S
C1418 C1424 1.428 . S
H1419 C1415 0.930 . S
H1420 C1417 0.929 . S
S1421 N1422 1.613 . S
S1421 N1423 1.610 . S
N1422 S1421 1.613 . S
N1422 C1425 1.350 . S
N1423 S1421 1.610 . S
N1423 C1424 1.351 . S
C1424 C1418 1.428 . S
C1424 N1423 1.351 . S
C1424 C1425 1.434 . S
C1425 C1416 1.429 . S
C1425 N1422 1.350 . S
C1425 C1424 1.434 . S
C1426 C1427 1.369 . S
C1426 C1428 1.419 . S
C1426 H1430 0.930 . S
C1427 C1426 1.369 . S
C1427 C1436 1.429 . S
C1428 C1426 1.419 . S
C1428 C1429 1.363 . S
C1428 H1431 0.929 . S
C1429 C1428 1.363 . S
C1429 C1435 1.428 . S
H1430 C1426 0.930 . S
H1431 C1428 0.929 . S
S1432 N1433 1.583 1_556 S
S1432 N1434 1.610 . S
N1433 S1432 1.583 1_554 S
N1433 C1436 1.378 . S
N1434 S1432 1.610 . S
N1434 C1435 1.351 1_556 S
C1435 C1429 1.428 . S
C1435 N1434 1.351 1_554 S
C1435 C1436 1.434 . S
C1436 C1427 1.429 . S
C1436 N1433 1.378 . S
C1436 C1435 1.434 . S
C1437 C1438 1.369 . S
C1437 C1439 1.419 . S
C1437 H1441 0.930 . S
C1438 C1437 1.369 . S
C1438 C1447 1.429 . S
C1439 C1437 1.419 . S
C1439 C1440 1.363 . S
C1439 H1442 0.929 . S
C1440 C1439 1.363 . S
C1440 C1446 1.428 . S
H1441 C1437 0.930 . S
H1442 C1439 0.929 . S
S1443 N1444 1.613 . S
S1443 N1445 1.610 . S
N1444 S1443 1.613 . S
N1444 C1447 1.350 . S
N1445 S1443 1.610 . S
N1445 C1446 1.351 . S
C1446 C1440 1.428 . S
C1446 N1445 1.351 . S
C1446 C1447 1.434 . S
C1447 C1438 1.429 . S
C1447 N1444 1.350 . S
C1447 C1446 1.434 . S
C1448 C1449 1.369 . S
C1448 C1450 1.419 . S
C1448 H1452 0.930 . S
C1449 C1448 1.369 . S
C1449 C1458 1.429 . S
C1450 C1448 1.419 . S
C1450 C1451 1.363 . S
C1450 H1453 0.929 . S
C1451 C1450 1.363 . S
C1451 C1457 1.428 . S
H1452 C1448 0.930 . S
H1453 C1450 0.929 . S
S1454 N1455 1.613 1_554 S
S1454 N1456 1.610 . S
N1455 S1454 1.613 1_556 S
N1455 C1458 1.350 . S
N1456 S1454 1.610 . S
N1456 C1457 1.351 1_554 S
C1457 C1451 1.428 . S
C1457 N1456 1.351 1_556 S
C1457 C1458 1.434 . S
C1458 C1449 1.429 . S
C1458 N1455 1.350 . S
C1458 C1457 1.434 . S
C1459 C1460 1.369 . S
C1459 C1461 1.419 . S
C1459 H1463 0.930 . S
C1460 C1459 1.369 . S
C1460 C1469 1.429 . S
C1461 C1459 1.419 . S
C1461 C1462 1.363 . S
C1461 H1464 0.929 1_556 S
C1462 C1461 1.363 . S
C1462 C1468 1.428 . S
H1463 C1459 0.930 . S
H1464 C1461 0.929 1_554 S
S1465 N1466 1.613 . S
S1465 N1467 1.610 . S
N1466 S1465 1.613 . S
N1466 C1469 1.350 . S
N1467 S1465 1.610 . S
N1467 C1468 1.351 . S
C1468 C1462 1.428 . S
C1468 N1467 1.351 . S
C1468 C1469 1.434 . S
C1469 C1460 1.429 . S
C1469 N1466 1.350 . S
C1469 C1468 1.434 . S
C1470 C1471 1.369 . S
C1470 C1472 1.419 . S
C1470 H1474 0.930 . S
C1471 C1470 1.369 . S
C1471 C1480 1.429 . S
C1472 C1470 1.419 . S
C1472 C1473 1.363 . S
C1472 H1475 0.929 . S
C1473 C1472 1.363 . S
C1473 C1479 1.428 . S
H1474 C1470 0.930 . S
H1475 C1472 0.929 . S
S1476 N1477 1.613 . S
S1476 N1478 1.610 . S
N1477 S1476 1.613 . S
N1477 C1480 1.350 . S
N1478 S1476 1.610 . S
N1478 C1479 1.351 . S
C1479 C1473 1.428 . S
C1479 N1478 1.351 . S
C1479 C1480 1.434 . S
C1480 C1471 1.429 . S
C1480 N1477 1.350 . S
C1480 C1479 1.434 . S
C1481 C1482 1.369 . S
C1481 C1483 1.419 . S
C1481 H1485 0.930 . S
C1482 C1481 1.369 . S
C1482 C1491 1.429 . S
C1483 C1481 1.419 . S
C1483 C1484 1.363 . S
C1483 H1486 0.929 . S
C1484 C1483 1.363 . S
C1484 C1490 1.428 . S
H1485 C1481 0.930 . S
H1486 C1483 0.929 . S
S1487 N1488 1.613 1_554 S
S1487 N1489 1.610 . S
N1488 S1487 1.613 1_556 S
N1488 C1491 1.350 . S
N1489 S1487 1.610 . S
N1489 C1490 1.351 1_554 S
C1490 C1484 1.428 . S
C1490 N1489 1.351 1_556 S
C1490 C1491 1.434 . S
C1491 C1482 1.429 . S
C1491 N1488 1.350 . S
C1491 C1490 1.434 . S
C1492 C1493 1.369 . S
C1492 C1494 1.419 . S
C1492 H1496 0.930 . S
C1493 C1492 1.369 . S
C1493 C1502 1.429 . S
C1494 C1492 1.419 . S
C1494 C1495 1.363 . S
C1494 H1497 0.929 1_556 S
C1495 C1494 1.363 . S
C1495 C1501 1.428 . S
H1496 C1492 0.930 . S
H1497 C1494 0.929 1_554 S
S1498 N1499 1.613 . S
S1498 N1500 1.610 . S
N1499 S1498 1.613 . S
N1499 C1502 1.350 . S
N1500 S1498 1.610 . S
N1500 C1501 1.351 . S
C1501 C1495 1.428 . S
C1501 N1500 1.351 . S
C1501 C1502 1.434 . S
C1502 C1493 1.429 . S
C1502 N1499 1.350 . S
C1502 C1501 1.434 . S
C1503 C1504 1.369 . S
C1503 C1505 1.419 . S
C1503 H1507 0.930 . S
C1504 C1503 1.369 . S
C1504 C1513 1.429 . S
C1505 C1503 1.419 . S
C1505 C1506 1.363 . S
C1505 H1508 0.929 . S
C1506 C1505 1.363 . S
C1506 C1512 1.428 . S
H1507 C1503 0.930 . S
H1508 C1505 0.929 . S
S1509 N1510 1.613 . S
S1509 N1511 1.610 . S
N1510 S1509 1.613 . S
N1510 C1513 1.350 . S
N1511 S1509 1.610 . S
N1511 C1512 1.351 . S
C1512 C1506 1.428 . S
C1512 N1511 1.351 . S
C1512 C1513 1.434 . S
C1513 C1504 1.429 . S
C1513 N1510 1.350 . S
C1513 C1512 1.434 . S
C1514 C1515 1.369 . S
C1514 C1516 1.419 . S
C1514 H1518 0.930 . S
C1515 C1514 1.369 . S
C1515 C1524 1.429 . S
C1516 C1514 1.419 . S
C1516 C1517 1.363 . S
C1516 H1519 0.929 1_554 S
C1517 C1516 1.363 . S
C1517 C1523 1.428 . S
H1518 C1514 0.930 . S
H1519 C1516 0.929 1_556 S
S1520 N1521 1.613 . S
S1520 N1522 1.610 . S
N1521 S1520 1.613 . S
N1521 C1524 1.350 . S
N1522 S1520 1.610 . S
N1522 C1523 1.351 . S
C1523 C1517 1.428 . S
C1523 N1522 1.351 . S
C1523 C1524 1.434 . S
C1524 C1515 1.429 . S
C1524 N1521 1.350 . S
C1524 C1523 1.434 . S
C1525 C1526 1.369 . S
C1525 C1527 1.419 . S
C1525 H1529 0.930 . S
C1526 C1525 1.369 . S
C1526 C1535 1.429 . S
C1527 C1525 1.419 . S
C1527 C1528 1.363 . S
C1527 H1530 0.929 . S
C1528 C1527 1.363 . S
C1528 C1534 1.428 . S
H1529 C1525 0.930 . S
H1530 C1527 0.929 . S
S1531 N1532 1.613 . S
S1531 N1533 1.610 . S
N1532 S1531 1.613 . S
N1532 C1535 1.350 . S
N1533 S1531 1.610 . S
N1533 C1534 1.351 . S
C1534 C1528 1.428 . S
C1534 N1533 1.351 . S
C1534 C1535 1.434 . S
C1535 C1526 1.429 . S
C1535 N1532 1.350 . S
C1535 C1534 1.434 . S
C1536 C1537 1.369 . S
C1536 C1538 1.419 . S
C1536 H1540 0.930 . S
C1537 C1536 1.369 . S
C1537 C1546 1.429 . S
C1538 C1536 1.419 . S
C1538 C1539 1.363 . S
C1538 H1541 0.929 . S
C1539 C1538 1.363 . S
C1539 C1545 1.428 . S
H1540 C1536 0.930 . S
H1541 C1538 0.929 . S
S1542 N1543 1.613 . S
S1542 N1544 1.610 . S
N1543 S1542 1.613 . S
N1543 C1546 1.350 . S
N1544 S1542 1.610 . S
N1544 C1545 1.351 . S
C1545 C1539 1.428 . S
C1545 N1544 1.351 . S
C1545 C1546 1.434 . S
C1546 C1537 1.429 . S
C1546 N1543 1.350 . S
C1546 C1545 1.434 . S
C1547 C1548 1.369 . S
C1547 C1549 1.419 . S
C1547 H1551 0.930 . S
C1548 C1547 1.369 . S
C1548 C1557 1.429 . S
C1549 C1547 1.419 . S
C1549 C1550 1.363 . S
C1549 H1552 0.929 . S
C1550 C1549 1.363 . S
C1550 C1556 1.428 . S
H1551 C1547 0.930 . S
H1552 C1549 0.929 . S
S1553 N1554 1.613 . S
S1553 N1555 1.610 . S
N1554 S1553 1.613 . S
N1554 C1557 1.350 . S
N1555 S1553 1.610 . S
N1555 C1556 1.351 . S
C1556 C1550 1.428 . S
C1556 N1555 1.351 . S
C1556 C1557 1.434 . S
C1557 C1548 1.429 . S
C1557 N1554 1.350 . S
C1557 C1556 1.434 . S
C1558 C1559 1.369 . S
C1558 C1560 1.419 . S
C1558 H1562 0.930 . S
C1559 C1558 1.369 . S
C1559 C1568 1.429 . S
C1560 C1558 1.419 . S
C1560 C1561 1.363 . S
C1560 H1563 0.929 . S
C1561 C1560 1.363 . S
C1561 C1567 1.428 . S
H1562 C1558 0.930 . S
H1563 C1560 0.929 . S
S1564 N1565 1.613 . S
S1564 N1566 1.610 . S
N1565 S1564 1.613 . S
N1565 C1568 1.350 . S
N1566 S1564 1.610 . S
N1566 C1567 1.351 . S
C1567 C1561 1.428 . S
C1567 N1566 1.351 . S
C1567 C1568 1.434 . S
C1568 C1559 1.429 . S
C1568 N1565 1.350 . S
C1568 C1567 1.434 . S
C1569 C1570 1.369 . S
C1569 C1571 1.419 . S
C1569 H1573 0.930 . S
C1570 C1569 1.369 . S
C1570 C1579 1.429 . S
C1571 C1569 1.419 . S
C1571 C1572 1.363 . S
C1571 H1574 0.929 . S
C1572 C1571 1.363 . S
C1572 C1578 1.428 . S
H1573 C1569 0.930 . S
H1574 C1571 0.929 . S
S1575 N1576 1.613 . S
S1575 N1577 1.610 . S
N1576 S1575 1.613 . S
N1576 C1579 1.350 . S
N1577 S1575 1.610 . S
N1577 C1578 1.351 . S
C1578 C1572 1.428 . S
C1578 N1577 1.351 . S
C1578 C1579 1.434 . S
C1579 C1570 1.429 . S
C1579 N1576 1.350 . S
C1579 C1578 1.434 . S
C1580 C1581 1.369 . S
C1580 C1582 1.419 . S
C1580 H1584 0.930 . S
C1581 C1580 1.369 . S
C1581 C1590 1.429 . S
C1582 C1580 1.419 . S
C1582 C1583 1.363 . S
C1582 H1585 0.929 . S
C1583 C1582 1.363 . S
C1583 C1589 1.428 . S
H1584 C1580 0.930 . S
H1585 C1582 0.929 . S
S1586 N1587 1.613 . S
S1586 N1588 1.610 . S
N1587 S1586 1.613 . S
N1587 C1590 1.350 . S
N1588 S1586 1.610 . S
N1588 C1589 1.351 . S
C1589 C1583 1.428 . S
C1589 N1588 1.351 . S
C1589 C1590 1.434 . S
C1590 C1581 1.429 . S
C1590 N1587 1.350 . S
C1590 C1589 1.434 . S
C1591 C1592 1.369 . S
C1591 C1593 1.419 . S
C1591 H1595 0.930 . S
C1592 C1591 1.369 . S
C1592 C1601 1.429 . S
C1593 C1591 1.419 . S
C1593 C1594 1.363 . S
C1593 H1596 0.929 . S
C1594 C1593 1.363 . S
C1594 C1600 1.428 . S
H1595 C1591 0.930 . S
H1596 C1593 0.929 . S
S1597 N1598 1.613 . S
S1597 N1599 1.610 . S
N1598 S1597 1.613 . S
N1598 C1601 1.350 . S
N1599 S1597 1.610 . S
N1599 C1600 1.351 . S
C1600 C1594 1.428 . S
C1600 N1599 1.351 . S
C1600 C1601 1.434 . S
C1601 C1592 1.429 . S
C1601 N1598 1.350 . S
C1601 C1600 1.434 . S
C1602 C1603 1.369 . S
C1602 C1604 1.419 . S
C1602 H1606 0.930 . S
C1603 C1602 1.369 . S
C1603 C1612 1.429 . S
C1604 C1602 1.419 . S
C1604 C1605 1.363 . S
C1604 H1607 0.929 . S
C1605 C1604 1.363 . S
C1605 C1611 1.428 . S
H1606 C1602 0.930 . S
H1607 C1604 0.929 . S
S1608 N1609 1.613 . S
S1608 N1610 1.610 . S
N1609 S1608 1.613 . S
N1609 C1612 1.350 . S
N1610 S1608 1.610 . S
N1610 C1611 1.351 . S
C1611 C1605 1.428 . S
C1611 N1610 1.351 . S
C1611 C1612 1.434 . S
C1612 C1603 1.429 . S
C1612 N1609 1.350 . S
C1612 C1611 1.434 . S
C1613 C1614 1.369 . S
C1613 C1615 1.419 . S
C1613 H1617 0.930 . S
C1614 C1613 1.369 . S
C1614 C1623 1.429 . S
C1615 C1613 1.419 . S
C1615 C1616 1.363 . S
C1615 H1618 0.929 . S
C1616 C1615 1.363 . S
C1616 C1622 1.428 . S
H1617 C1613 0.930 . S
H1618 C1615 0.929 . S
S1619 N1620 1.613 . S
S1619 N1621 1.610 . S
N1620 S1619 1.613 . S
N1620 C1623 1.350 . S
N1621 S1619 1.610 . S
N1621 C1622 1.351 . S
C1622 C1616 1.428 . S
C1622 N1621 1.351 . S
C1622 C1623 1.434 . S
C1623 C1614 1.429 . S
C1623 N1620 1.350 . S
C1623 C1622 1.434 . S
C1624 C1625 1.369 . S
C1624 C1626 1.419 . S
C1624 H1628 0.930 . S
C1625 C1624 1.369 . S
C1625 C1634 1.429 . S
C1626 C1624 1.419 . S
C1626 C1627 1.363 . S
C1626 H1629 0.929 . S
C1627 C1626 1.363 . S
C1627 C1633 1.428 . S
H1628 C1624 0.930 . S
H1629 C1626 0.929 . S
S1630 N1631 1.613 . S
S1630 N1632 1.610 . S
N1631 S1630 1.613 . S
N1631 C1634 1.350 . S
N1632 S1630 1.610 . S
N1632 C1633 1.351 . S
C1633 C1627 1.428 . S
C1633 N1632 1.351 . S
C1633 C1634 1.434 . S
C1634 C1625 1.429 . S
C1634 N1631 1.350 . S
C1634 C1633 1.434 . S
C1635 C1636 1.369 . S
C1635 C1637 1.419 . S
C1635 H1639 0.930 . S
C1636 C1635 1.369 . S
C1636 C1645 1.429 . S
C1637 C1635 1.419 . S
C1637 C1638 1.363 . S
C1637 H1640 0.929 . S
C1638 C1637 1.363 . S
C1638 C1644 1.428 . S
H1639 C1635 0.930 . S
H1640 C1637 0.929 . S
S1641 N1642 1.613 . S
S1641 N1643 1.610 . S
N1642 S1641 1.613 . S
N1642 C1645 1.350 . S
N1643 S1641 1.610 . S
N1643 C1644 1.351 . S
C1644 C1638 1.428 . S
C1644 N1643 1.351 . S
C1644 C1645 1.434 . S
C1645 C1636 1.429 . S
C1645 N1642 1.350 . S
C1645 C1644 1.434 . S
C1646 C1647 1.369 . S
C1646 C1648 1.419 . S
C1646 H1650 0.930 . S
C1647 C1646 1.369 . S
C1647 C1656 1.429 . S
C1648 C1646 1.419 . S
C1648 C1649 1.363 . S
C1648 H1651 0.929 . S
C1649 C1648 1.363 . S
C1649 C1655 1.428 . S
H1650 C1646 0.930 . S
H1651 C1648 0.929 . S
S1652 N1653 1.613 . S
S1652 N1654 1.610 . S
N1653 S1652 1.613 . S
N1653 C1656 1.350 . S
N1654 S1652 1.610 . S
N1654 C1655 1.351 . S
C1655 C1649 1.428 . S
C1655 N1654 1.351 . S
C1655 C1656 1.434 . S
C1656 C1647 1.429 . S
C1656 N1653 1.350 . S
C1656 C1655 1.434 . S
C1657 C1658 1.369 . S
C1657 C1659 1.419 . S
C1657 H1661 0.930 . S
C1658 C1657 1.369 . S
C1658 C1667 1.429 . S
C1659 C1657 1.419 . S
C1659 C1660 1.363 . S
C1659 H1662 0.929 . S
C1660 C1659 1.363 . S
C1660 C1666 1.428 . S
H1661 C1657 0.930 . S
H1662 C1659 0.929 . S
S1663 N1664 1.613 . S
S1663 N1665 1.610 . S
N1664 S1663 1.613 . S
N1664 C1667 1.350 . S
N1665 S1663 1.610 . S
N1665 C1666 1.351 . S
C1666 C1660 1.428 . S
C1666 N1665 1.351 . S
C1666 C1667 1.434 . S
C1667 C1658 1.429 . S
C1667 N1664 1.350 . S
C1667 C1666 1.434 . S
C1668 C1669 1.369 . S
C1668 C1670 1.419 . S
C1668 H1672 0.930 . S
C1669 C1668 1.369 . S
C1669 C1678 1.429 . S
C1670 C1668 1.419 . S
C1670 C1671 1.363 . S
C1670 H1673 0.929 . S
C1671 C1670 1.363 . S
C1671 C1677 1.428 . S
H1672 C1668 0.930 . S
H1673 C1670 0.929 . S
S1674 N1675 1.613 . S
S1674 N1676 1.610 . S
N1675 S1674 1.613 . S
N1675 C1678 1.350 . S
N1676 S1674 1.610 . S
N1676 C1677 1.351 . S
C1677 C1671 1.428 . S
C1677 N1676 1.351 . S
C1677 C1678 1.434 . S
C1678 C1669 1.429 . S
C1678 N1675 1.350 . S
C1678 C1677 1.434 . S
C1679 C1680 1.369 . S
C1679 C1681 1.419 . S
C1679 H1683 0.930 . S
C1680 C1679 1.369 . S
C1680 C1689 1.429 . S
C1681 C1679 1.419 . S
C1681 C1682 1.363 . S
C1681 H1684 0.929 . S
C1682 C1681 1.363 . S
C1682 C1688 1.428 . S
H1683 C1679 0.930 . S
H1684 C1681 0.929 . S
S1685 N1686 1.613 . S
S1685 N1687 1.610 . S
N1686 S1685 1.613 . S
N1686 C1689 1.350 . S
N1687 S1685 1.610 . S
N1687 C1688 1.351 . S
C1688 C1682 1.428 . S
C1688 N1687 1.351 . S
C1688 C1689 1.434 . S
C1689 C1680 1.429 . S
C1689 N1686 1.350 . S
C1689 C1688 1.434 . S
C1690 C1691 1.369 . S
C1690 C1692 1.419 . S
C1690 H1694 0.930 . S
C1691 C1690 1.369 . S
C1691 C1700 1.429 . S
C1692 C1690 1.419 . S
C1692 C1693 1.363 . S
C1692 H1695 0.929 . S
C1693 C1692 1.363 . S
C1693 C1699 1.428 . S
H1694 C1690 0.930 . S
H1695 C1692 0.929 . S
S1696 N1697 1.613 . S
S1696 N1698 1.610 . S
N1697 S1696 1.613 . S
N1697 C1700 1.350 . S
N1698 S1696 1.610 . S
N1698 C1699 1.351 . S
C1699 C1693 1.428 . S
C1699 N1698 1.351 . S
C1699 C1700 1.434 . S
C1700 C1691 1.429 . S
C1700 N1697 1.350 . S
C1700 C1699 1.434 . S
C1701 C1702 1.369 . S
C1701 C1703 1.419 . S
C1701 H1705 0.930 . S
C1702 C1701 1.369 . S
C1702 C1711 1.429 . S
C1703 C1701 1.419 . S
C1703 C1704 1.363 . S
C1703 H1706 0.929 . S
C1704 C1703 1.363 . S
C1704 C1710 1.428 . S
H1705 C1701 0.930 . S
H1706 C1703 0.929 . S
S1707 N1708 1.613 . S
S1707 N1709 1.610 . S
N1708 S1707 1.613 . S
N1708 C1711 1.350 . S
N1709 S1707 1.610 . S
N1709 C1710 1.351 . S
C1710 C1704 1.428 . S
C1710 N1709 1.351 . S
C1710 C1711 1.434 . S
C1711 C1702 1.429 . S
C1711 N1708 1.350 . S
C1711 C1710 1.434 . S
C1712 C1713 1.369 . S
C1712 C1714 1.419 . S
C1712 H1716 0.930 . S
C1713 C1712 1.369 . S
C1713 C1722 1.429 . S
C1714 C1712 1.419 . S
C1714 C1715 1.363 . S
C1714 H1717 0.929 . S
C1715 C1714 1.363 . S
C1715 C1721 1.428 . S
H1716 C1712 0.930 . S
H1717 C1714 0.929 . S
S1718 N1719 1.613 . S
S1718 N1720 1.610 . S
N1719 S1718 1.613 . S
N1719 C1722 1.350 . S
N1720 S1718 1.610 . S
N1720 C1721 1.351 . S
C1721 C1715 1.428 . S
C1721 N1720 1.351 . S
C1721 C1722 1.434 . S
C1722 C1713 1.429 . S
C1722 N1719 1.350 . S
C1722 C1721 1.434 . S
C1723 C1724 1.369 . S
C1723 C1725 1.419 . S
C1723 H1727 0.930 . S
C1724 C1723 1.369 . S
C1724 C1733 1.429 . S
C1725 C1723 1.419 . S
C1725 C1726 1.363 . S
C1725 H1728 0.929 . S
C1726 C1725 1.363 . S
C1726 C1732 1.428 . S
H1727 C1723 0.930 . S
H1728 C1725 0.929 . S
S1729 N1730 1.613 . S
S1729 N1731 1.610 . S
N1730 S1729 1.613 . S
N1730 C1733 1.350 . S
N1731 S1729 1.610 . S
N1731 C1732 1.351 . S
C1732 C1726 1.428 . S
C1732 N1731 1.351 . S
C1732 C1733 1.434 . S
C1733 C1724 1.429 . S
C1733 N1730 1.350 . S
C1733 C1732 1.434 . S
C1734 C1735 1.369 . S
C1734 C1736 1.419 . S
C1734 H1738 0.930 . S
C1735 C1734 1.369 . S
C1735 C1744 1.429 . S
C1736 C1734 1.419 . S
C1736 C1737 1.363 . S
C1736 H1739 0.929 . S
C1737 C1736 1.363 . S
C1737 C1743 1.428 . S
H1738 C1734 0.930 . S
H1739 C1736 0.929 . S
S1740 N1741 1.613 . S
S1740 N1742 1.610 . S
N1741 S1740 1.613 . S
N1741 C1744 1.350 . S
N1742 S1740 1.610 . S
N1742 C1743 1.351 . S
C1743 C1737 1.428 . S
C1743 N1742 1.351 . S
C1743 C1744 1.434 . S
C1744 C1735 1.429 . S
C1744 N1741 1.350 . S
C1744 C1743 1.434 . S
C1745 C1746 1.369 . S
C1745 C1747 1.419 . S
C1745 H1749 0.930 . S
C1746 C1745 1.369 . S
C1746 C1755 1.429 . S
C1747 C1745 1.419 . S
C1747 C1748 1.363 . S
C1747 H1750 0.929 . S
C1748 C1747 1.363 . S
C1748 C1754 1.428 . S
H1749 C1745 0.930 . S
H1750 C1747 0.929 . S
S1751 N1752 1.613 . S
S1751 N1753 1.610 . S
N1752 S1751 1.613 . S
N1752 C1755 1.350 . S
N1753 S1751 1.610 . S
N1753 C1754 1.351 . S
C1754 C1748 1.428 . S
C1754 N1753 1.351 . S
C1754 C1755 1.434 . S
C1755 C1746 1.429 . S
C1755 N1752 1.350 . S
C1755 C1754 1.434 . S
C1756 C1757 1.369 . S
C1756 C1758 1.419 . S
C1756 H1760 0.930 . S
C1757 C1756 1.369 . S
C1757 C1766 1.429 . S
C1758 C1756 1.419 . S
C1758 C1759 1.363 . S
C1758 H1761 0.929 . S
C1759 C1758 1.363 . S
C1759 C1765 1.428 . S
H1760 C1756 0.930 . S
H1761 C1758 0.929 . S
S1762 N1763 1.613 . S
S1762 N1764 1.610 . S
N1763 S1762 1.613 . S
N1763 C1766 1.350 . S
N1764 S1762 1.610 . S
N1764 C1765 1.351 . S
C1765 C1759 1.428 . S
C1765 N1764 1.351 . S
C1765 C1766 1.434 . S
C1766 C1757 1.429 . S
C1766 N1763 1.350 . S
C1766 C1765 1.434 . S
C1767 C1768 1.369 . S
C1767 C1769 1.419 . S
C1767 H1771 0.930 . S
C1768 C1767 1.369 . S
C1768 C1777 1.429 . S
C1769 C1767 1.419 . S
C1769 C1770 1.363 . S
C1769 H1772 0.929 . S
C1770 C1769 1.363 . S
C1770 C1776 1.428 . S
H1771 C1767 0.930 . S
H1772 C1769 0.929 . S
S1773 N1774 1.613 . S
S1773 N1775 1.610 . S
N1774 S1773 1.613 . S
N1774 C1777 1.350 . S
N1775 S1773 1.610 . S
N1775 C1776 1.351 . S
C1776 C1770 1.428 . S
C1776 N1775 1.351 . S
C1776 C1777 1.434 . S
C1777 C1768 1.429 . S
C1777 N1774 1.350 . S
C1777 C1776 1.434 . S
C1778 C1779 1.369 . S
C1778 C1780 1.419 . S
C1778 H1782 0.930 . S
C1779 C1778 1.369 . S
C1779 C1788 1.429 . S
C1780 C1778 1.419 . S
C1780 C1781 1.363 . S
C1780 H1783 0.929 . S
C1781 C1780 1.363 . S
C1781 C1787 1.428 . S
H1782 C1778 0.930 . S
H1783 C1780 0.929 . S
S1784 N1785 1.613 . S
S1784 N1786 1.610 . S
N1785 S1784 1.613 . S
N1785 C1788 1.350 . S
N1786 S1784 1.610 . S
N1786 C1787 1.351 . S
C1787 C1781 1.428 . S
C1787 N1786 1.351 . S
C1787 C1788 1.434 . S
C1788 C1779 1.429 . S
C1788 N1785 1.350 . S
C1788 C1787 1.434 . S
C1789 C1790 1.369 . S
C1789 C1791 1.419 . S
C1789 H1793 0.930 . S
C1790 C1789 1.369 . S
C1790 C1799 1.429 . S
C1791 C1789 1.419 . S
C1791 C1792 1.363 . S
C1791 H1794 0.929 . S
C1792 C1791 1.363 . S
C1792 C1798 1.428 . S
H1793 C1789 0.930 . S
H1794 C1791 0.929 . S
S1795 N1796 1.613 . S
S1795 N1797 1.610 . S
N1796 S1795 1.613 . S
N1796 C1799 1.350 . S
N1797 S1795 1.610 . S
N1797 C1798 1.351 . S
C1798 C1792 1.428 . S
C1798 N1797 1.351 . S
C1798 C1799 1.434 . S
C1799 C1790 1.429 . S
C1799 N1796 1.350 . S
C1799 C1798 1.434 . S
C1800 C1801 1.369 . S
C1800 C1802 1.419 . S
C1800 H1804 0.930 . S
C1801 C1800 1.369 . S
C1801 C1810 1.429 . S
C1802 C1800 1.419 . S
C1802 C1803 1.363 . S
C1802 H1805 0.929 1_565 S
C1803 C1802 1.363 . S
C1803 C1809 1.428 . S
H1804 C1800 0.930 . S
H1805 C1802 0.929 1_545 S
S1806 N1807 1.613 . S
S1806 N1808 1.610 . S
N1807 S1806 1.613 . S
N1807 C1810 1.350 . S
N1808 S1806 1.610 . S
N1808 C1809 1.351 . S
C1809 C1803 1.428 . S
C1809 N1808 1.351 . S
C1809 C1810 1.434 . S
C1810 C1801 1.429 . S
C1810 N1807 1.350 . S
C1810 C1809 1.434 . S
C1811 C1812 1.369 . S
C1811 C1813 1.419 . S
C1811 H1815 0.930 . S
C1812 C1811 1.369 . S
C1812 C1821 1.429 . S
C1813 C1811 1.419 . S
C1813 C1814 1.363 . S
C1813 H1816 0.929 . S
C1814 C1813 1.363 . S
C1814 C1820 1.428 . S
H1815 C1811 0.930 . S
H1816 C1813 0.929 . S
S1817 N1818 1.613 1_655 S
S1817 N1819 1.610 . S
N1818 S1817 1.613 1_455 S
N1818 C1821 1.350 . S
N1819 S1817 1.610 . S
N1819 C1820 1.351 1_655 S
C1820 C1814 1.428 . S
C1820 N1819 1.351 1_455 S
C1820 C1821 1.434 . S
C1821 C1812 1.429 . S
C1821 N1818 1.350 . S
C1821 C1820 1.434 . S
C1822 C1823 1.369 . S
C1822 C1824 1.419 . S
C1822 H1826 0.930 . S
C1823 C1822 1.369 . S
C1823 C1832 1.429 . S
C1824 C1822 1.419 . S
C1824 C1825 1.363 . S
C1824 H1827 0.929 . S
C1825 C1824 1.363 . S
C1825 C1831 1.428 . S
H1826 C1822 0.930 . S
H1827 C1824 0.929 . S
S1828 N1829 1.613 . S
S1828 N1830 1.610 . S
N1829 S1828 1.613 . S
N1829 C1832 1.350 . S
N1830 S1828 1.610 . S
N1830 C1831 1.351 . S
C1831 C1825 1.428 . S
C1831 N1830 1.351 . S
C1831 C1832 1.434 . S
C1832 C1823 1.429 . S
C1832 N1829 1.350 . S
C1832 C1831 1.434 . S
C1833 C1834 1.369 . S
C1833 C1835 1.419 . S
C1833 H1837 0.930 . S
C1834 C1833 1.369 . S
C1834 C1843 1.429 . S
C1835 C1833 1.419 . S
C1835 C1836 1.363 . S
C1835 H1838 0.929 . S
C1836 C1835 1.363 . S
C1836 C1842 1.428 . S
H1837 C1833 0.930 . S
H1838 C1835 0.929 . S
S1839 N1840 1.613 . S
S1839 N1841 1.610 . S
N1840 S1839 1.613 . S
N1840 C1843 1.350 . S
N1841 S1839 1.610 . S
N1841 C1842 1.351 . S
C1842 C1836 1.428 . S
C1842 N1841 1.351 . S
C1842 C1843 1.434 . S
C1843 C1834 1.429 . S
C1843 N1840 1.350 . S
C1843 C1842 1.434 . S
C1844 C1845 1.369 . S
C1844 C1846 1.419 . S
C1844 H1848 0.930 . S
C1845 C1844 1.369 . S
C1845 C1854 1.429 . S
C1846 C1844 1.419 . S
C1846 C1847 1.363 . S
C1846 H1849 0.929 . S
C1847 C1846 1.363 . S
C1847 C1853 1.428 . S
H1848 C1844 0.930 . S
H1849 C1846 0.929 . S
S1850 N1851 1.613 . S
S1850 N1852 1.610 . S
N1851 S1850 1.613 . S
N1851 C1854 1.350 . S
N1852 S1850 1.610 . S
N1852 C1853 1.351 . S
C1853 C1847 1.428 . S
C1853 N1852 1.351 . S
C1853 C1854 1.434 . S
C1854 C1845 1.429 . S
C1854 N1851 1.350 . S
C1854 C1853 1.434 . S
C1855 C1856 1.369 . S
C1855 C1857 1.419 . S
C1855 H1859 0.930 . S
C1856 C1855 1.369 . S
C1856 C1865 1.429 . S
C1857 C1855 1.419 . S
C1857 C1858 1.363 . S
C1857 H1860 0.929 . S
C1858 C1857 1.363 . S
C1858 C1864 1.428 . S
H1859 C1855 0.930 . S
H1860 C1857 0.929 . S
S1861 N1862 1.613 1_565 S
S1861 N1863 1.610 . S
N1862 S1861 1.613 1_545 S
N1862 C1865 1.350 . S
N1863 S1861 1.610 . S
N1863 C1864 1.351 1_565 S
C1864 C1858 1.428 . S
C1864 N1863 1.351 1_545 S
C1864 C1865 1.434 . S
C1865 C1856 1.429 . S
C1865 N1862 1.350 . S
C1865 C1864 1.434 . S
C1866 C1867 1.369 . S
C1866 C1868 1.419 . S
C1866 H1870 0.930 . S
C1867 C1866 1.369 . S
C1867 C1876 1.429 . S
C1868 C1866 1.419 . S
C1868 C1869 1.363 . S
C1868 H1871 0.929 . S
C1869 C1868 1.363 . S
C1869 C1875 1.428 . S
H1870 C1866 0.930 . S
H1871 C1868 0.929 . S
S1872 N1873 1.613 . S
S1872 N1874 1.610 . S
N1873 S1872 1.613 . S
N1873 C1876 1.350 . S
N1874 S1872 1.610 . S
N1874 C1875 1.351 . S
C1875 C1869 1.428 . S
C1875 N1874 1.351 . S
C1875 C1876 1.434 . S
C1876 C1867 1.429 . S
C1876 N1873 1.350 . S
C1876 C1875 1.434 . S
C1877 C1878 1.369 . S
C1877 C1879 1.419 . S
C1877 H1881 0.930 . S
C1878 C1877 1.369 . S
C1878 C1887 1.429 . S
C1879 C1877 1.419 . S
C1879 C1880 1.363 . S
C1879 H1882 0.929 . S
C1880 C1879 1.363 . S
C1880 C1886 1.428 . S
H1881 C1877 0.930 . S
H1882 C1879 0.929 . S
S1883 N1884 1.613 . S
S1883 N1885 1.610 . S
N1884 S1883 1.613 . S
N1884 C1887 1.350 . S
N1885 S1883 1.610 . S
N1885 C1886 1.351 . S
C1886 C1880 1.428 . S
C1886 N1885 1.351 . S
C1886 C1887 1.434 . S
C1887 C1878 1.429 . S
C1887 N1884 1.350 . S
C1887 C1886 1.434 . S
C1888 C1889 1.369 . S
C1888 C1890 1.419 . S
C1888 H1892 0.930 . S
C1889 C1888 1.369 . S
C1889 C1898 1.429 . S
C1890 C1888 1.419 . S
C1890 C1891 1.363 . S
C1890 H1893 0.929 . S
C1891 C1890 1.363 . S
C1891 C1897 1.428 . S
H1892 C1888 0.930 . S
H1893 C1890 0.929 . S
S1894 N1895 1.613 . S
S1894 N1896 1.610 . S
N1895 S1894 1.613 . S
N1895 C1898 1.350 . S
N1896 S1894 1.610 . S
N1896 C1897 1.351 . S
C1897 C1891 1.428 . S
C1897 N1896 1.351 . S
C1897 C1898 1.434 . S
C1898 C1889 1.429 . S
C1898 N1895 1.350 . S
C1898 C1897 1.434 . S
C1899 C1900 1.369 . S
C1899 C1901 1.419 . S
C1899 H1903 0.930 . S
C1900 C1899 1.369 . S
C1900 C1909 1.429 . S
C1901 C1899 1.419 . S
C1901 C1902 1.363 . S
C1901 H1904 0.929 . S
C1902 C1901 1.363 . S
C1902 C1908 1.428 . S
H1903 C1899 0.930 . S
H1904 C1901 0.929 . S
S1905 N1906 1.613 . S
S1905 N1907 1.610 . S
N1906 S1905 1.613 . S
N1906 C1909 1.350 . S
N1907 S1905 1.610 . S
N1907 C1908 1.351 . S
C1908 C1902 1.428 . S
C1908 N1907 1.351 . S
C1908 C1909 1.434 . S
C1909 C1900 1.429 . S
C1909 N1906 1.350 . S
C1909 C1908 1.434 . S
C1910 C1911 1.369 . S
C1910 C1912 1.419 . S
C1910 H1914 0.930 . S
C1911 C1910 1.369 . S
C1911 C1920 1.429 . S
C1912 C1910 1.419 . S
C1912 C1913 1.363 . S
C1912 H1915 0.929 . S
C1913 C1912 1.363 . S
C1913 C1919 1.428 . S
H1914 C1910 0.930 . S
H1915 C1912 0.929 . S
S1916 N1917 1.613 . S
S1916 N1918 1.610 . S
N1917 S1916 1.613 . S
N1917 C1920 1.350 . S
N1918 S1916 1.610 . S
N1918 C1919 1.351 . S
C1919 C1913 1.428 . S
C1919 N1918 1.351 . S
C1919 C1920 1.434 . S
C1920 C1911 1.429 . S
C1920 N1917 1.350 . S
C1920 C1919 1.434 . S
C1921 C1922 1.369 . S
C1921 C1923 1.419 . S
C1921 H1925 0.930 . S
C1922 C1921 1.369 . S
C1922 C1931 1.429 . S
C1923 C1921 1.419 . S
C1923 C1924 1.363 . S
C1923 H1926 0.929 . S
C1924 C1923 1.363 . S
C1924 C1930 1.428 . S
H1925 C1921 0.930 . S
H1926 C1923 0.929 . S
S1927 N1928 1.613 . S
S1927 N1929 1.610 . S
N1928 S1927 1.613 . S
N1928 C1931 1.350 . S
N1929 S1927 1.610 . S
N1929 C1930 1.351 . S
C1930 C1924 1.428 . S
C1930 N1929 1.351 . S
C1930 C1931 1.434 . S
C1931 C1922 1.429 . S
C1931 N1928 1.350 . S
C1931 C1930 1.434 . S
C1932 C1933 1.369 . S
C1932 C1934 1.419 . S
C1932 H1936 0.930 . S
C1933 C1932 1.369 . S
C1933 C1942 1.429 . S
C1934 C1932 1.419 . S
C1934 C1935 1.363 . S
C1934 H1937 0.929 . S
C1935 C1934 1.363 . S
C1935 C1941 1.428 . S
H1936 C1932 0.930 . S
H1937 C1934 0.929 . S
S1938 N1939 1.613 . S
S1938 N1940 1.610 . S
N1939 S1938 1.613 . S
N1939 C1942 1.350 . S
N1940 S1938 1.610 . S
N1940 C1941 1.351 . S
C1941 C1935 1.428 . S
C1941 N1940 1.351 . S
C1941 C1942 1.434 . S
C1942 C1933 1.429 . S
C1942 N1939 1.350 . S
C1942 C1941 1.434 . S
C1943 C1944 1.369 . S
C1943 C1945 1.419 . S
C1943 H1947 0.930 . S
C1944 C1943 1.369 . S
C1944 C1953 1.429 . S
C1945 C1943 1.419 . S
C1945 C1946 1.363 . S
C1945 H1948 0.929 . S
C1946 C1945 1.363 . S
C1946 C1952 1.428 . S
H1947 C1943 0.930 . S
H1948 C1945 0.929 . S
S1949 N1950 1.613 . S
S1949 N1951 1.610 . S
N1950 S1949 1.613 . S
N1950 C1953 1.350 . S
N1951 S1949 1.610 . S
N1951 C1952 1.351 . S
C1952 C1946 1.428 . S
C1952 N1951 1.351 . S
C1952 C1953 1.434 . S
C1953 C1944 1.429 . S
C1953 N1950 1.350 . S
C1953 C1952 1.434 . S
C1954 C1955 1.369 . S
C1954 C1956 1.419 . S
C1954 H1958 0.930 . S
C1955 C1954 1.369 . S
C1955 C1964 1.429 . S
C1956 C1954 1.419 . S
C1956 C1957 1.363 . S
C1956 H1959 0.929 . S
C1957 C1956 1.363 . S
C1957 C1963 1.428 . S
H1958 C1954 0.930 . S
H1959 C1956 0.929 . S
S1960 N1961 1.613 . S
S1960 N1962 1.610 . S
N1961 S1960 1.613 . S
N1961 C1964 1.350 . S
N1962 S1960 1.610 . S
N1962 C1963 1.351 . S
C1963 C1957 1.428 . S
C1963 N1962 1.351 . S
C1963 C1964 1.434 . S
C1964 C1955 1.429 . S
C1964 N1961 1.350 . S
C1964 C1963 1.434 . S
C1965 C1966 1.369 . S
C1965 C1967 1.419 . S
C1965 H1969 0.930 . S
C1966 C1965 1.369 . S
C1966 C1975 1.429 . S
C1967 C1965 1.419 . S
C1967 C1968 1.363 . S
C1967 H1970 0.929 . S
C1968 C1967 1.363 . S
C1968 C1974 1.428 . S
H1969 C1965 0.930 . S
H1970 C1967 0.929 . S
S1971 N1972 1.613 . S
S1971 N1973 1.610 . S
N1972 S1971 1.613 . S
N1972 C1975 1.350 . S
N1973 S1971 1.610 . S
N1973 C1974 1.351 . S
C1974 C1968 1.428 . S
C1974 N1973 1.351 . S
C1974 C1975 1.434 . S
C1975 C1966 1.429 . S
C1975 N1972 1.350 . S
C1975 C1974 1.434 . S
C1976 C1977 1.369 . S
C1976 C1978 1.419 . S
C1976 H1980 0.930 . S
C1977 C1976 1.369 . S
C1977 C1986 1.429 . S
C1978 C1976 1.419 . S
C1978 C1979 1.363 . S
C1978 H1981 0.929 . S
C1979 C1978 1.363 . S
C1979 C1985 1.428 . S
H1980 C1976 0.930 . S
H1981 C1978 0.929 . S
S1982 N1983 1.613 . S
S1982 N1984 1.610 . S
N1983 S1982 1.613 . S
N1983 C1986 1.350 . S
N1984 S1982 1.610 . S
N1984 C1985 1.351 . S
C1985 C1979 1.428 . S
C1985 N1984 1.351 . S
C1985 C1986 1.434 . S
C1986 C1977 1.429 . S
C1986 N1983 1.350 . S
C1986 C1985 1.434 . S
C1987 C1988 1.369 . S
C1987 C1989 1.419 . S
C1987 H1991 0.930 . S
C1988 C1987 1.369 . S
C1988 C1997 1.429 . S
C1989 C1987 1.419 . S
C1989 C1990 1.363 . S
C1989 H1992 0.929 . S
C1990 C1989 1.363 . S
C1990 C1996 1.428 . S
H1991 C1987 0.930 . S
H1992 C1989 0.929 . S
S1993 N1994 1.613 . S
S1993 N1995 1.610 . S
N1994 S1993 1.613 . S
N1994 C1997 1.350 . S
N1995 S1993 1.610 . S
N1995 C1996 1.351 . S
C1996 C1990 1.428 . S
C1996 N1995 1.351 . S
C1996 C1997 1.434 . S
C1997 C1988 1.429 . S
C1997 N1994 1.350 . S
C1997 C1996 1.434 . S
C1405 C469 1.487 . S
C1407 C715 1.397 . S
C1416 C505 1.496 . S
C1418 C799 1.420 . S
C1427 C433 1.525 . S
C1429 C879 1.455 . S
C1438 C397 1.475 . S
C1440 C795 1.420 . S
C1451 C883 1.365 . S
C1449 C325 1.441 . S
C1460 C361 1.473 . S
C1462 C711 1.405 . S
C1473 C704 1.399 . S
C1471 C421 1.487 . S
C1484 C788 1.421 . S
C1482 C349 1.496 . S
C1493 C385 1.521 . S
C1495 C890 1.460 . S
C1504 C493 1.474 . S
C1506 C806 1.415 . S
C1515 C529 1.442 . S
C1517 C872 1.360 . S
C1528 C722 1.402 . S
C1526 C457 1.474 . S
C1539 C967 1.398 . S
C1537 C37 1.488 1_455 S
C1548 C73 1.497 . S
C1550 C1051 1.416 . S
C1559 C1 1.523 1_565 S
C1561 C1131 1.459 . S
C1570 C613 1.475 . S
C1572 C1047 1.418 . S
C1581 C541 1.442 . S
C1583 C1135 1.363 . S
C1592 C577 1.474 . S
C1594 C963 1.402 . S
C1603 C637 1.487 . S
C1605 C956 1.408 . S
C1614 C565 1.494 . S
C1616 C1040 1.421 . S
C1627 C1142 1.457 . S
C1625 C601 1.522 . S
C1636 C61 1.474 1_565 S
C1638 C1058 1.416 . S
C1649 C1124 1.362 . S
C1647 C97 1.442 1_455 S
C1658 C25 1.472 . S
C1660 C974 1.410 . S
C1671 C1219 1.403 . S
C1669 C253 1.487 . S
C1680 C289 1.496 . S
C1682 C1303 1.425 . S
C1693 C1383 1.459 . S
C1691 C217 1.523 . S
C1704 C1299 1.414 . S
C1702 C181 1.477 1_545 S
C1715 C1387 1.363 . S
C1713 C109 1.441 1_655 S
C1724 C145 1.471 . S
C1726 C1215 1.407 . S
C1735 C205 1.485 1_655 S
C1737 C1208 1.400 . S
C1746 C133 1.495 . S
C1748 C1292 1.419 . S
C1759 C1394 1.454 . S
C1757 C169 1.525 1_545 S
C1768 C277 1.473 . S
C1770 C1310 1.421 . S
C1779 C313 1.444 . S
C1781 C1376 1.363 . S
C1790 C241 1.471 . S
C1792 C1226 1.410 . S
C1801 C571 1.475 . S
C1803 C718 1.379 . S
C1814 C802 1.364 . S
C1812 C607 1.519 . S
C1823 C643 1.491 . S
C1825 C874 1.365 . S
C1834 C247 1.519 . S
C1836 C790 1.369 . S
C1845 C283 1.492 . S
C1847 C886 1.365 . S
C1858 C706 1.370 . S
C1856 C319 1.472 . S
C1867 C139 1.475 . S
C1869 C970 1.378 . S
C1878 C175 1.518 . S
C1880 C1054 1.361 . S
C1889 C211 1.491 . S
C1891 C1126 1.357 . S
C1900 C463 1.520 . S
C1902 C1042 1.371 . S
C1913 C1138 1.362 . S
C1911 C499 1.491 . S
C1922 C535 1.472 . S
C1924 C958 1.371 . S
C1933 C355 1.473 . S
C1935 C1222 1.374 . S
C1944 C391 1.519 . S
C1946 C1306 1.372 . S
C1957 C1378 1.359 . S
C1955 C427 1.491 . S
C1966 C31 1.519 . S
C1968 C1294 1.364 . S
C1977 C67 1.492 . S
C1979 C1390 1.367 . S
C1988 C103 1.475 . S
C1990 C1210 1.379 . S
