# Generated by pormake.
# Topology ptr, (4,4)-cn, num edge types: 1
# Building blocks:
#     Node 0, Type 0, BuildingBlock: CEKHIL_clean_sbu_0, # of connection points: 4
#     Node 1, Type 0, BuildingBlock: CEKHIL_clean_sbu_0, # of connection points: 4
#     Node 2, Type 0, BuildingBlock: CEKHIL_clean_sbu_0, # of connection points: 4
#     Node 3, Type 0, BuildingBlock: CEKHIL_clean_sbu_0, # of connection points: 4
#     Node 4, Type 0, BuildingBlock: CEKHIL_clean_sbu_0, # of connection points: 4
#     Node 5, Type 0, BuildingBlock: CEKHIL_clean_sbu_0, # of connection points: 4
#     Node 6, Type 0, BuildingBlock: CEKHIL_clean_sbu_0, # of connection points: 4
#     Node 7, Type 0, BuildingBlock: CEKHIL_clean_sbu_0, # of connection points: 4
#     Node 8, Type 0, BuildingBlock: CEKHIL_clean_sbu_0, # of connection points: 4
#     Node 9, Type 0, BuildingBlock: CEKHIL_clean_sbu_0, # of connection points: 4
#     Node 10, Type 0, BuildingBlock: CEKHIL_clean_sbu_0, # of connection points: 4
#     Node 11, Type 0, BuildingBlock: CEKHIL_clean_sbu_0, # of connection points: 4
#     Node 12, Type 0, BuildingBlock: CEKHIL_clean_sbu_0, # of connection points: 4
#     Node 13, Type 0, BuildingBlock: CEKHIL_clean_sbu_0, # of connection points: 4
#     Node 14, Type 0, BuildingBlock: CEKHIL_clean_sbu_0, # of connection points: 4
#     Node 15, Type 0, BuildingBlock: CEKHIL_clean_sbu_0, # of connection points: 4
#     Node 16, Type 0, BuildingBlock: CEKHIL_clean_sbu_0, # of connection points: 4
#     Node 17, Type 0, BuildingBlock: CEKHIL_clean_sbu_0, # of connection points: 4
#     Node 18, Type 1, BuildingBlock: NAHDIM_clean_linker_0, # of connection points: 4
#     Node 19, Type 1, BuildingBlock: NAHDIM_clean_linker_0, # of connection points: 4
#     Node 20, Type 1, BuildingBlock: NAHDIM_clean_linker_0, # of connection points: 4
#     Node 21, Type 1, BuildingBlock: NAHDIM_clean_linker_0, # of connection points: 4
#     Node 22, Type 1, BuildingBlock: NAHDIM_clean_linker_0, # of connection points: 4
#     Node 23, Type 1, BuildingBlock: NAHDIM_clean_linker_0, # of connection points: 4
#     Node 24, Type 1, BuildingBlock: NAHDIM_clean_linker_0, # of connection points: 4
#     Node 25, Type 1, BuildingBlock: NAHDIM_clean_linker_0, # of connection points: 4
#     Node 26, Type 1, BuildingBlock: NAHDIM_clean_linker_0, # of connection points: 4
#     Node 27, Type 1, BuildingBlock: NAHDIM_clean_linker_0, # of connection points: 4
#     Node 28, Type 1, BuildingBlock: NAHDIM_clean_linker_0, # of connection points: 4
#     Node 29, Type 1, BuildingBlock: NAHDIM_clean_linker_0, # of connection points: 4
#     Node 30, Type 1, BuildingBlock: NAHDIM_clean_linker_0, # of connection points: 4
#     Node 31, Type 1, BuildingBlock: NAHDIM_clean_linker_0, # of connection points: 4
#     Node 32, Type 1, BuildingBlock: NAHDIM_clean_linker_0, # of connection points: 4
#     Node 33, Type 1, BuildingBlock: NAHDIM_clean_linker_0, # of connection points: 4
#     Node 34, Type 1, BuildingBlock: NAHDIM_clean_linker_0, # of connection points: 4
#     Node 35, Type 1, BuildingBlock: NAHDIM_clean_linker_0, # of connection points: 4
#     Edge 36, Type (0, 1), BuildingBlock: CIFDUS_clean_linker_0, # of connection points: 2
#     Edge 37, Type (0, 1), BuildingBlock: CIFDUS_clean_linker_0, # of connection points: 2
#     Edge 38, Type (0, 1), BuildingBlock: CIFDUS_clean_linker_0, # of connection points: 2
#     Edge 39, Type (0, 1), BuildingBlock: CIFDUS_clean_linker_0, # of connection points: 2
#     Edge 40, Type (0, 1), BuildingBlock: CIFDUS_clean_linker_0, # of connection points: 2
#     Edge 41, Type (0, 1), BuildingBlock: CIFDUS_clean_linker_0, # of connection points: 2
#     Edge 42, Type (0, 1), BuildingBlock: CIFDUS_clean_linker_0, # of connection points: 2
#     Edge 43, Type (0, 1), BuildingBlock: CIFDUS_clean_linker_0, # of connection points: 2
#     Edge 44, Type (0, 1), BuildingBlock: CIFDUS_clean_linker_0, # of connection points: 2
#     Edge 45, Type (0, 1), BuildingBlock: CIFDUS_clean_linker_0, # of connection points: 2
#     Edge 46, Type (0, 1), BuildingBlock: CIFDUS_clean_linker_0, # of connection points: 2
#     Edge 47, Type (0, 1), BuildingBlock: CIFDUS_clean_linker_0, # of connection points: 2
#     Edge 48, Type (0, 1), BuildingBlock: CIFDUS_clean_linker_0, # of connection points: 2
#     Edge 49, Type (0, 1), BuildingBlock: CIFDUS_clean_linker_0, # of connection points: 2
#     Edge 50, Type (0, 1), BuildingBlock: CIFDUS_clean_linker_0, # of connection points: 2
#     Edge 51, Type (0, 1), BuildingBlock: CIFDUS_clean_linker_0, # of connection points: 2
#     Edge 52, Type (0, 1), BuildingBlock: CIFDUS_clean_linker_0, # of connection points: 2
#     Edge 53, Type (0, 1), BuildingBlock: CIFDUS_clean_linker_0, # of connection points: 2
#     Edge 54, Type (0, 1), BuildingBlock: CIFDUS_clean_linker_0, # of connection points: 2
#     Edge 55, Type (0, 1), BuildingBlock: CIFDUS_clean_linker_0, # of connection points: 2
#     Edge 56, Type (0, 1), BuildingBlock: CIFDUS_clean_linker_0, # of connection points: 2
#     Edge 57, Type (0, 1), BuildingBlock: CIFDUS_clean_linker_0, # of connection points: 2
#     Edge 58, Type (0, 1), BuildingBlock: CIFDUS_clean_linker_0, # of connection points: 2
#     Edge 59, Type (0, 1), BuildingBlock: CIFDUS_clean_linker_0, # of connection points: 2
#     Edge 60, Type (0, 1), BuildingBlock: CIFDUS_clean_linker_0, # of connection points: 2
#     Edge 61, Type (0, 1), BuildingBlock: CIFDUS_clean_linker_0, # of connection points: 2
#     Edge 62, Type (0, 1), BuildingBlock: CIFDUS_clean_linker_0, # of connection points: 2
#     Edge 63, Type (0, 1), BuildingBlock: CIFDUS_clean_linker_0, # of connection points: 2
#     Edge 64, Type (0, 1), BuildingBlock: CIFDUS_clean_linker_0, # of connection points: 2
#     Edge 65, Type (0, 1), BuildingBlock: CIFDUS_clean_linker_0, # of connection points: 2
#     Edge 66, Type (0, 1), BuildingBlock: CIFDUS_clean_linker_0, # of connection points: 2
#     Edge 67, Type (0, 1), BuildingBlock: CIFDUS_clean_linker_0, # of connection points: 2
#     Edge 68, Type (0, 1), BuildingBlock: CIFDUS_clean_linker_0, # of connection points: 2
#     Edge 69, Type (0, 1), BuildingBlock: CIFDUS_clean_linker_0, # of connection points: 2
#     Edge 70, Type (0, 1), BuildingBlock: CIFDUS_clean_linker_0, # of connection points: 2
#     Edge 71, Type (0, 1), BuildingBlock: CIFDUS_clean_linker_0, # of connection points: 2
#     Edge 72, Type (0, 1), BuildingBlock: CIFDUS_clean_linker_0, # of connection points: 2
#     Edge 73, Type (0, 1), BuildingBlock: CIFDUS_clean_linker_0, # of connection points: 2
#     Edge 74, Type (0, 1), BuildingBlock: CIFDUS_clean_linker_0, # of connection points: 2
#     Edge 75, Type (0, 1), BuildingBlock: CIFDUS_clean_linker_0, # of connection points: 2
#     Edge 76, Type (0, 1), BuildingBlock: CIFDUS_clean_linker_0, # of connection points: 2
#     Edge 77, Type (0, 1), BuildingBlock: CIFDUS_clean_linker_0, # of connection points: 2
#     Edge 78, Type (0, 1), BuildingBlock: CIFDUS_clean_linker_0, # of connection points: 2
#     Edge 79, Type (0, 1), BuildingBlock: CIFDUS_clean_linker_0, # of connection points: 2
#     Edge 80, Type (0, 1), BuildingBlock: CIFDUS_clean_linker_0, # of connection points: 2
#     Edge 81, Type (0, 1), BuildingBlock: CIFDUS_clean_linker_0, # of connection points: 2
#     Edge 82, Type (0, 1), BuildingBlock: CIFDUS_clean_linker_0, # of connection points: 2
#     Edge 83, Type (0, 1), BuildingBlock: CIFDUS_clean_linker_0, # of connection points: 2
#     Edge 84, Type (0, 1), BuildingBlock: CIFDUS_clean_linker_0, # of connection points: 2
#     Edge 85, Type (0, 1), BuildingBlock: CIFDUS_clean_linker_0, # of connection points: 2
#     Edge 86, Type (0, 1), BuildingBlock: CIFDUS_clean_linker_0, # of connection points: 2
#     Edge 87, Type (0, 1), BuildingBlock: CIFDUS_clean_linker_0, # of connection points: 2
#     Edge 88, Type (0, 1), BuildingBlock: CIFDUS_clean_linker_0, # of connection points: 2
#     Edge 89, Type (0, 1), BuildingBlock: CIFDUS_clean_linker_0, # of connection points: 2
#     Edge 90, Type (0, 1), BuildingBlock: CIFDUS_clean_linker_0, # of connection points: 2
#     Edge 91, Type (0, 1), BuildingBlock: CIFDUS_clean_linker_0, # of connection points: 2
#     Edge 92, Type (0, 1), BuildingBlock: CIFDUS_clean_linker_0, # of connection points: 2
#     Edge 93, Type (0, 1), BuildingBlock: CIFDUS_clean_linker_0, # of connection points: 2
#     Edge 94, Type (0, 1), BuildingBlock: CIFDUS_clean_linker_0, # of connection points: 2
#     Edge 95, Type (0, 1), BuildingBlock: CIFDUS_clean_linker_0, # of connection points: 2
#     Edge 96, Type (0, 1), BuildingBlock: CIFDUS_clean_linker_0, # of connection points: 2
#     Edge 97, Type (0, 1), BuildingBlock: CIFDUS_clean_linker_0, # of connection points: 2
#     Edge 98, Type (0, 1), BuildingBlock: CIFDUS_clean_linker_0, # of connection points: 2
#     Edge 99, Type (0, 1), BuildingBlock: CIFDUS_clean_linker_0, # of connection points: 2
#     Edge 100, Type (0, 1), BuildingBlock: CIFDUS_clean_linker_0, # of connection points: 2
#     Edge 101, Type (0, 1), BuildingBlock: CIFDUS_clean_linker_0, # of connection points: 2
#     Edge 102, Type (0, 1), BuildingBlock: CIFDUS_clean_linker_0, # of connection points: 2
#     Edge 103, Type (0, 1), BuildingBlock: CIFDUS_clean_linker_0, # of connection points: 2
#     Edge 104, Type (0, 1), BuildingBlock: CIFDUS_clean_linker_0, # of connection points: 2
#     Edge 105, Type (0, 1), BuildingBlock: CIFDUS_clean_linker_0, # of connection points: 2
#     Edge 106, Type (0, 1), BuildingBlock: CIFDUS_clean_linker_0, # of connection points: 2
#     Edge 107, Type (0, 1), BuildingBlock: CIFDUS_clean_linker_0, # of connection points: 2
# Relax obj value: 0.031
# Max RMSD: 0.168
# Mean RMSD: 0.058
data_MOF--net-ptr--node1-CEKHIL_clean_sbu_0--node2-NAHDIM_clean_linker_0--edge1-CIFDUS_clean_linker_0
_symmetry_space_group_name_H-M    P1
_symmetry_Int_Tables_number       1
_symmetry_cell_setting            triclinic
loop_
_symmetry_equiv_pos_as_xyz
'x, y, z'
_cell_length_a     86.674057
_cell_length_b     85.161493
_cell_length_c     73.488048
_cell_angle_alpha  91.845755
_cell_angle_beta   89.90777
_cell_angle_gamma 121.14574
loop_
_atom_site_label
_atom_site_type_symbol
_atom_site_fract_x
_atom_site_fract_y
_atom_site_fract_z
_atom_type_partial_charge
Co0 Co 0.00254 0.32926 0.01479 0.0
O1 O 0.00537 0.31661 0.0344 0.0
O2 O 0.0272 0.34298 0.02416 0.0
C3 C 0.9876 0.30452 0.99585 0.0
O4 O 0.00439 0.34601 0.99451 0.0
Co5 Co 0.9642 0.31964 0.00388 0.0
O6 O 0.97651 0.3362 0.98359 0.0
C7 C 0.98101 0.342 0.03717 0.0
C8 C 0.02201 0.32995 0.03572 0.0
C9 C 0.99356 0.34692 0.98317 0.0
O10 O 0.99576 0.34293 0.03263 0.0
O11 O 0.96614 0.332 0.02833 0.0
O12 O 0.00507 0.31339 0.99708 0.0
O13 O 0.97959 0.30962 0.00737 0.0
Co14 Co 0.66475 0.6603 0.00961 0.0
O15 O 0.67935 0.67679 0.99126 0.0
O16 O 0.67776 0.65059 0.99677 0.0
C17 C 0.67366 0.68259 0.03154 0.0
O18 O 0.65177 0.64022 0.02796 0.0
Co19 Co 0.63454 0.66394 0.02777 0.0
O20 O 0.63477 0.64715 0.04562 0.0
C21 C 0.62922 0.64808 0.9903 0.0
C22 C 0.68498 0.6656 0.98771 0.0
C23 C 0.64179 0.63749 0.04192 0.0
O24 O 0.64377 0.64762 0.99185 0.0
O25 O 0.62406 0.65534 0.00254 0.0
O26 O 0.68324 0.6752 0.02797 0.0
O27 O 0.65963 0.67704 0.02115 0.0
Co28 Co 0.33731 0.00345 0.00584 0.0
O29 O 0.32522 0.01102 0.98967 0.0
O30 O 0.35167 0.02988 0.00296 0.0
C31 C 0.3128 0.98577 0.0226 0.0
O32 O 0.35327 0.00028 0.02404 0.0
Co33 Co 0.32518 0.96231 0.00598 0.0
O34 O 0.34167 0.97003 0.0274 0.0
C35 C 0.34752 0.98471 0.97611 0.0
C36 C 0.33854 0.02769 0.99246 0.0
C37 C 0.35306 0.98677 0.03176 0.0
O38 O 0.34971 0.99917 0.98465 0.0
O39 O 0.33689 0.96845 0.98154 0.0
O40 O 0.32257 0.00336 0.02586 0.0
O41 O 0.31718 0.97968 0.00837 0.0
Co42 Co 0.00382 0.67029 0.01749 0.0
O43 O 0.99896 0.68302 0.99954 0.0
O44 O 0.97884 0.65557 0.00917 0.0
C45 C 0.0178 0.69476 0.03693 0.0
O46 O 0.004 0.65343 0.03653 0.0
Co47 Co 0.04283 0.68238 0.02729 0.0
O48 O 0.03192 0.66712 0.04875 0.0
C49 C 0.02669 0.66087 0.99324 0.0
C50 C 0.98252 0.66927 0.99895 0.0
C51 C 0.01529 0.65466 0.04871 0.0
O52 O 0.0115 0.65885 0.99793 0.0
O53 O 0.04127 0.67079 0.00255 0.0
O54 O 1.00039 0.68415 0.03676 0.0
O55 O 0.02625 0.69108 0.02457 0.0
Co56 Co 0.34493 0.34319 0.99873 0.0
O57 O 0.33223 0.32793 0.01876 0.0
O58 O 0.33167 0.35267 0.01137 0.0
C59 C 0.33583 0.31913 0.97873 0.0
O60 O 0.35547 0.36207 0.97892 0.0
Co61 Co 0.37513 0.34151 0.97881 0.0
O62 O 0.37371 0.35751 0.9608 0.0
C63 C 0.3817 0.35816 0.01603 0.0
C64 C 0.32607 0.33876 0.02181 0.0
C65 C 0.36535 0.36577 0.96474 0.0
O66 O 0.36681 0.35804 0.01506 0.0
O67 O 0.38667 0.35094 0.00356 0.0
O68 O 0.32578 0.32606 0.98199 0.0
O69 O 0.35086 0.32664 0.9879 0.0
Co70 Co 0.66629 0.00484 0.0097 0.0
O71 O 0.67937 0.00091 0.0284 0.0
O72 O 0.6536 0.97924 0.0157 0.0
C73 C 0.69062 0.02203 0.99259 0.0
O74 O 0.64925 0.00317 0.9896 0.0
Co75 Co 0.67382 0.04343 0.0013 0.0
O76 O 0.65821 0.03116 0.97947 0.0
C77 C 0.65326 0.02514 0.03395 0.0
C78 C 0.66682 0.98369 0.0271 0.0
C79 C 0.64799 0.01376 0.97836 0.0
O80 O 0.65278 0.01032 0.0287 0.0
O81 O 0.66211 0.04021 0.02562 0.0
O82 O 0.68224 0.00422 0.99135 0.0
O83 O 0.68479 0.02885 0.00484 0.0
Co84 Co 0.66429 0.6693 0.34109 0.0
O85 O 0.66371 0.65444 0.36046 0.0
O86 O 0.68758 0.68105 0.35365 0.0
C87 C 0.65096 0.64609 0.32007 0.0
O88 O 0.66989 0.68808 0.32152 0.0
Co89 Co 0.62841 0.66243 0.3245 0.0
O90 O 0.64425 0.67943 0.30588 0.0
C91 C 0.64045 0.68074 0.36072 0.0
C92 C 0.68042 0.66686 0.36392 0.0
C93 C 0.66124 0.68981 0.3082 0.0
O94 O 0.6558 0.6821 0.35831 0.0
O95 O 0.62716 0.67201 0.34948 0.0
O96 O 0.66813 0.65407 0.32352 0.0
O97 O 0.64217 0.65118 0.33044 0.0
Co98 Co 0.33065 0.99575 0.35787 0.0
O99 O 0.34928 0.00889 0.34042 0.0
O100 O 0.34068 0.98111 0.34997 0.0
C101 C 0.33993 0.01964 0.3779 0.0
O102 O 0.31315 0.97825 0.37634 0.0
Co103 Co 0.30241 0.00626 0.36823 0.0
O104 O 0.29677 0.98935 0.38848 0.0
C105 C 0.29908 0.98712 0.33291 0.0
C106 C 0.35134 0.99483 0.34005 0.0
C107 C 0.30191 0.97779 0.3881 0.0
O108 O 0.31175 0.98441 0.3378 0.0
O109 O 0.29441 0.99676 0.34251 0.0
O110 O 0.34772 0.01007 0.37761 0.0
O111 O 0.32789 0.01543 0.36532 0.0
Co112 Co 0.01265 0.33652 0.34407 0.0
O113 O 0.0014 0.34257 0.32513 0.0
O114 O 0.02804 0.36189 0.33791 0.0
C115 C 0.98757 0.32186 0.36094 0.0
O116 O 0.02847 0.33637 0.3644 0.0
Co117 Co 0.0009 0.29724 0.35401 0.0
O118 O 0.01673 0.30849 0.37588 0.0
C119 C 0.02218 0.31264 0.32084 0.0
C120 C 0.01541 0.35909 0.32642 0.0
C121 C 0.0284 0.3256 0.37632 0.0
O122 O 0.02446 0.32847 0.32529 0.0
O123 O 0.01222 0.29827 0.32987 0.0
O124 O 0.99791 0.33961 0.36224 0.0
O125 O 0.99209 0.31354 0.34901 0.0
Co126 Co 0.66586 0.98925 0.35435 0.0
O127 O 0.66086 1.00002 0.33402 0.0
O128 O 0.64063 0.97516 0.34792 0.0
C129 C 0.68336 0.01629 0.36976 0.0
O130 O 0.66455 0.97418 0.37593 0.0
Co131 Co 0.70348 0.99795 0.36712 0.0
O132 O 0.69152 0.9843 0.38913 0.0
C133 C 0.68651 0.9753 0.3333 0.0
C134 C 0.6441 0.98702 0.33553 0.0
C135 C 0.67445 0.97387 0.38877 0.0
O136 O 0.67135 0.97398 0.33701 0.0
O137 O 0.70089 0.98521 0.34291 0.0
O138 O 0.66589 0.00784 0.37082 0.0
O139 O 0.68955 0.0085 0.35921 0.0
Co140 Co 0.0089 0.68582 0.34379 0.0
O141 O 0.99301 0.67016 0.36224 0.0
O142 O 0.99802 0.69775 0.35642 0.0
C143 C 0.99857 0.66354 0.32182 0.0
O144 O 0.023 0.70561 0.32544 0.0
Co145 Co 0.03742 0.67991 0.32478 0.0
O146 O 0.03905 0.6979 0.30728 0.0
C147 C 0.04371 0.69485 0.36275 0.0
C148 C 0.98914 0.68282 0.36545 0.0
C149 C 0.03286 0.70821 0.31141 0.0
O150 O 0.02999 0.69684 0.36154 0.0
O151 O 0.04795 0.68713 0.3501 0.0
O152 O 0.9899 0.6719 0.32551 0.0
O153 O 0.01246 0.66808 0.33206 0.0
Co154 Co 0.32425 0.33748 0.33837 0.0
O155 O 0.33692 0.33396 0.35786 0.0
O156 O 0.30965 0.31311 0.34749 0.0
C157 C 0.34822 0.35001 0.31985 0.0
O158 O 0.30716 0.33512 0.31797 0.0
Co159 Co 0.3353 0.37535 0.32395 0.0
O160 O 0.31927 0.36128 0.30291 0.0
C161 C 0.31665 0.36408 0.35912 0.0
C162 C 0.32316 0.31734 0.35839 0.0
C163 C 0.30735 0.34439 0.30439 0.0
O164 O 0.31366 0.34773 0.35623 0.0
O165 O 0.32605 0.37724 0.34848 0.0
O166 O 0.33798 0.3323 0.3207 0.0
O167 O 0.34415 0.35954 0.3307 0.0
Co168 Co 0.33888 0.01217 0.67149 0.0
O169 O 0.34517 0.00221 0.69137 0.0
O170 O 0.364 0.02819 0.67814 0.0
C171 C 0.32372 0.98559 0.65504 0.0
O172 O 0.33806 0.02669 0.65044 0.0
Co173 Co 0.29975 0.99961 0.661 0.0
O174 O 0.31 0.01452 0.63916 0.0
C175 C 0.3163 0.02289 0.6942 0.0
C176 C 0.36134 0.01645 0.69045 0.0
C177 C 0.32687 0.02604 0.63853 0.0
O178 O 0.33177 0.02567 0.68937 0.0
O179 O 0.30165 0.01174 0.6855 0.0
O180 O 0.34116 0.99571 0.65414 0.0
O181 O 0.31609 0.99111 0.66654 0.0
Co182 Co 0.99265 0.32605 0.67468 0.0
O183 O 0.00998 0.34474 0.65949 0.0
O184 O 0.00891 0.31876 0.66475 0.0
C185 C 0.99532 0.34533 0.69774 0.0
O186 O 0.97687 0.30407 0.69039 0.0
Co187 Co 0.95797 0.32683 0.68496 0.0
O188 O 0.95391 0.30684 0.70096 0.0
C189 C 0.96302 0.31727 0.64756 0.0
C190 C 0.01689 0.33452 0.65694 0.0
C191 C 0.96282 0.29873 0.7003 0.0
O192 O 0.97551 0.3145 0.65306 0.0
O193 O 0.95598 0.32426 0.65779 0.0
O194 O 0.00694 0.34006 0.69644 0.0
O195 O 0.98389 0.34019 0.68446 0.0
Co196 Co 0.67672 0.66761 0.672 0.0
O197 O 0.65952 0.66446 0.65356 0.0
O198 O 0.6859 0.68994 0.65878 0.0
C199 C 0.65608 0.65558 0.69423 0.0
O200 O 0.69771 0.67662 0.6901 0.0
Co201 Co 0.67445 0.63504 0.69148 0.0
O202 O 0.69408 0.65379 0.70748 0.0
C203 C 0.68982 0.64375 0.65466 0.0
C204 C 0.67063 0.68147 0.64979 0.0
C205 C 0.70269 0.67058 0.7033 0.0
O206 O 0.68807 0.65786 0.65448 0.0
O207 O 0.68456 0.63261 0.66771 0.0
O208 O 0.66344 0.6727 0.69022 0.0
O209 O 0.66068 0.64596 0.68418 0.0
Co210 Co 0.33261 0.32905 0.68102 0.0
O211 O 0.33226 0.34446 0.66251 0.0
O212 O 0.30837 0.31903 0.6718 0.0
C213 C 0.35011 0.35298 0.70045 0.0
O214 O 0.32669 0.30997 0.70008 0.0
Co215 Co 0.36655 0.33079 0.69546 0.0
O216 O 0.35129 0.31438 0.71476 0.0
C217 C 0.35193 0.31419 0.65885 0.0
C218 C 0.31492 0.33324 0.66167 0.0
C219 C 0.33425 0.30606 0.71273 0.0
O220 O 0.33756 0.31461 0.66212 0.0
O221 O 0.36551 0.32121 0.66985 0.0
O222 O 0.33275 0.34586 0.6997 0.0
O223 O 0.35641 0.34568 0.68931 0.0
Co224 Co 0.67674 0.01818 0.66156 0.0
O225 O 0.66192 0.00379 0.68122 0.0
O226 O 0.66468 0.02977 0.67257 0.0
C227 C 0.66698 0.99368 0.64203 0.0
O228 O 0.68962 0.03655 0.64167 0.0
Co229 Co 0.70625 0.01328 0.64433 0.0
O230 O 0.70709 0.02949 0.62515 0.0
C231 C 0.71207 0.03067 0.68113 0.0
C232 C 0.65714 0.01589 0.68319 0.0
C233 C 0.69982 0.03902 0.62797 0.0
O234 O 0.69794 0.0318 0.67896 0.0
O235 O 0.71682 0.02255 0.66945 0.0
O236 O 0.65791 0.00188 0.64408 0.0
O237 O 0.68136 1.0002 0.65213 0.0
Co238 Co 0.98257 0.66271 0.66928 0.0
O239 O 0.99321 0.65704 0.68921 0.0
O240 O 0.96694 0.63758 0.67581 0.0
C241 C 0.00818 0.67719 0.65317 0.0
O242 O 0.9673 0.66244 0.64804 0.0
Co243 Co 0.99489 0.70201 0.65779 0.0
O244 O 0.97987 0.69001 0.63558 0.0
C245 C 0.97354 0.68756 0.69117 0.0
C246 C 0.97913 0.64054 0.68795 0.0
C247 C 0.96801 0.67296 0.63547 0.0
O248 O 0.97049 0.67137 0.68704 0.0
O249 O 0.98391 0.70165 0.68195 0.0
O250 O 0.9981 0.65938 0.65222 0.0
O251 O 0.00294 0.68548 0.66428 0.0
C252 C 0.23175 0.27663 0.0813 0.0
C253 C 0.23292 0.29393 0.07402 0.0
C254 C 0.21881 0.30429 0.09669 0.0
C255 C 0.22198 0.31906 0.10821 0.0
C256 C 0.20781 0.31926 0.11726 0.0
C257 C 0.19005 0.30396 0.11517 0.0
C258 C 0.18672 0.28884 0.10368 0.0
C259 C 0.20109 0.28923 0.0944 0.0
C260 C 0.21184 0.33588 0.12899 0.0
C261 C 0.16799 0.27223 0.10127 0.0
C262 C 0.07983 0.32691 0.07309 0.0
C263 C 0.09009 0.32333 0.08686 0.0
C264 C 0.11729 0.32266 0.09099 0.0
C265 C 0.11075 0.30446 0.09564 0.0
C266 C 0.12141 0.29989 0.10594 0.0
C267 C 0.13883 0.31393 0.11199 0.0
C268 C 0.14556 0.33226 0.10696 0.0
C269 C 0.13476 0.33633 0.09626 0.0
C270 C 0.11406 0.28008 0.11031 0.0
C271 C 0.16408 0.34757 0.11306 0.0
C272 C 0.09524 0.29725 0.22716 0.0
C273 C 0.09202 0.28172 0.21659 0.0
C274 C 0.10611 0.28139 0.2075 0.0
C275 C 0.12373 0.29701 0.20863 0.0
C276 C 0.12702 0.31271 0.21909 0.0
C277 C 0.11272 0.31257 0.22829 0.0
C278 C 0.10216 0.26429 0.19666 0.0
C279 C 0.14561 0.32965 0.22048 0.0
C280 C 0.22828 0.26355 0.22857 0.0
C281 C 0.22642 0.27991 0.2343 0.0
C282 C 0.19776 0.27834 0.23061 0.0
C283 C 0.17998 0.26469 0.22634 0.0
C284 C 0.16857 0.26869 0.21661 0.0
C285 C 0.17502 0.28696 0.21158 0.0
C286 C 0.1927 0.30104 0.21689 0.0
C287 C 0.20395 0.29654 0.2262 0.0
C288 C 0.1498 0.25333 0.21133 0.0
C289 C 0.19981 0.3208 0.21249 0.0
C290 C 0.17495 0.30392 0.12483 0.0
C291 C 0.16392 0.30823 0.115 0.0
C292 C 0.15006 0.30942 0.12342 0.0
C293 C 0.14721 0.30646 0.14229 0.0
C294 C 0.13385 0.30821 0.15138 0.0
C295 C 0.13105 0.30509 0.16991 0.0
C296 C 0.14155 0.30019 0.1801 0.0
C297 C 0.13869 0.29683 0.1989 0.0
C298 C 0.14982 0.29263 0.20875 0.0
C299 C 0.16354 0.29124 0.20026 0.0
C300 C 0.16619 0.29394 0.18133 0.0
C301 C 0.17939 0.29197 0.17218 0.0
C302 C 0.1822 0.2951 0.15367 0.0
C303 C 0.17188 0.30025 0.14355 0.0
C304 C 0.1581 0.30175 0.15235 0.0
C305 C 0.15528 0.29863 0.17128 0.0
C306 C 0.05395 0.28534 0.22002 0.0
C307 C 0.06389 0.28472 0.23696 0.0
O308 O 0.23323 0.30515 0.08827 0.0
O309 O 0.20866 0.27356 0.23888 0.0
O310 O 0.08204 0.29814 0.23642 0.0
O311 O 0.10698 0.32727 0.08135 0.0
H312 H 0.22087 0.28942 0.0651 0.0
H313 H 0.21847 0.2677 0.08755 0.0
H314 H 0.24228 0.28021 0.09189 0.0
H315 H 0.23329 0.26857 0.07001 0.0
H316 H 0.23565 0.33063 0.10989 0.0
H317 H 0.1983 0.27763 0.08557 0.0
H318 H 0.20241 0.34054 0.12548 0.0
H319 H 0.22589 0.34747 0.12742 0.0
H320 H 0.20985 0.3322 0.14351 0.0
H321 H 0.1679 0.26084 0.09336 0.0
H322 H 0.15927 0.27609 0.09402 0.0
H323 H 0.16197 0.2672 0.11476 0.0
H324 H 0.08218 0.31002 0.09378 0.0
H325 H 0.0676 0.31305 0.06963 0.0
H326 H 0.0865 0.32796 0.05963 0.0
H327 H 0.07804 0.34875 0.08515 0.0
H328 H 0.09739 0.29382 0.09102 0.0
H329 H 0.13972 0.3503 0.09237 0.0
H330 H 0.12416 0.27612 0.10715 0.0
H331 H 0.10137 0.27061 0.10263 0.0
H332 H 0.11128 0.2783 0.12508 0.0
H333 H 0.16653 0.36129 0.10969 0.0
H334 H 0.17445 0.34559 0.10631 0.0
H335 H 0.16582 0.34727 0.12799 0.0
H336 H 0.06234 0.27094 0.23737 0.0
H337 H 0.07861 0.26976 0.21527 0.0
H338 H 0.11514 0.32451 0.2364 0.0
H339 H 0.10425 0.26732 0.18198 0.0
H340 H 0.08812 0.25274 0.19841 0.0
H341 H 0.1116 0.25987 0.20085 0.0
H342 H 0.14573 0.34116 0.22819 0.0
H343 H 0.15086 0.33421 0.20664 0.0
H344 H 0.15493 0.32637 0.2274 0.0
H345 H 0.23022 0.28871 0.22223 0.0
H346 H 0.24245 0.2683 0.22493 0.0
H347 H 0.21951 0.25626 0.21645 0.0
H348 H 0.22417 0.25369 0.2397 0.0
H349 H 0.17528 0.25072 0.23007 0.0
H350 H 0.21755 0.30721 0.23008 0.0
H351 H 0.14753 0.25319 0.19644 0.0
H352 H 0.13975 0.25564 0.21834 0.0
H353 H 0.14736 0.23968 0.21497 0.0
H354 H 0.21254 0.33037 0.22007 0.0
H355 H 0.18966 0.32466 0.21576 0.0
H356 H 0.20248 0.32255 0.1977 0.0
H357 H 0.16624 0.31084 0.1006 0.0
H358 H 0.1254 0.31201 0.14427 0.0
H359 H 0.12056 0.30662 0.17616 0.0
H360 H 0.14768 0.29027 0.2232 0.0
H361 H 0.18776 0.28803 0.17923 0.0
H362 H 0.1926 0.29343 0.14739 0.0
H363 H 0.03938 0.27475 0.22058 0.0
H364 H 0.05947 0.28252 0.20753 0.0
H365 H 0.05549 0.29906 0.21901 0.0
C366 C 0.70464 0.9151 0.06107 0.0
C367 C 0.69477 0.91923 0.07603 0.0
C368 C 0.7057 0.91291 0.10357 0.0
C369 C 0.68997 0.89792 0.11022 0.0
C370 C 0.69088 0.8853 0.1213 0.0
C371 C 0.70788 0.88769 0.12572 0.0
C372 C 0.72381 0.9032 0.11956 0.0
C373 C 0.7225 0.91578 0.10874 0.0
C374 C 0.67364 0.86918 0.12797 0.0
C375 C 0.74215 0.90618 0.12398 0.0
C376 C 0.71279 0.79312 0.06219 0.0
C377 C 0.7051 0.78035 0.0783 0.0
C378 C 0.69692 0.79781 0.09947 0.0
C379 C 0.71463 0.8118 0.10418 0.0
C380 C 0.71783 0.82672 0.11564 0.0
C381 C 0.70306 0.82747 0.12277 0.0
C382 C 0.68524 0.81318 0.11846 0.0
C383 C 0.68243 0.79856 0.10679 0.0
C384 C 0.73699 0.84181 0.11999 0.0
C385 C 0.66919 0.81348 0.12599 0.0
C386 C 0.71073 0.80077 0.23891 0.0
C387 C 0.72789 0.81566 0.23485 0.0
C388 C 0.72973 0.83085 0.22583 0.0
C389 C 0.71415 0.83131 0.22106 0.0
C390 C 0.69693 0.81661 0.22564 0.0
C391 C 0.69547 0.80151 0.2344 0.0
C392 C 0.74828 0.8463 0.22113 0.0
C393 C 0.68003 0.81676 0.22109 0.0
C394 C 0.72942 0.96955 0.23358 0.0
C395 C 0.7205 0.9508 0.24223 0.0
C396 C 0.72912 0.9277 0.23719 0.0
C397 C 0.7436 0.92587 0.23188 0.0
C398 C 0.74081 0.90908 0.22488 0.0
C399 C 0.72305 0.89375 0.22329 0.0
C400 C 0.70847 0.89511 0.23002 0.0
C401 C 0.71166 0.91209 0.23703 0.0
C402 C 0.75671 0.90797 0.21822 0.0
C403 C 0.68943 0.87887 0.22892 0.0
C404 C 0.70885 0.87335 0.13579 0.0
C405 C 0.70631 0.85794 0.12579 0.0
C406 C 0.70621 0.84347 0.13432 0.0
C407 C 0.70876 0.84427 0.15339 0.0
C408 C 0.70851 0.82982 0.16241 0.0
C409 C 0.71087 0.83067 0.18122 0.0
C410 C 0.71358 0.84602 0.19175 0.0
C411 C 0.71575 0.84692 0.21093 0.0
C412 C 0.71884 0.8626 0.2209 0.0
C413 C 0.71951 0.87732 0.21222 0.0
C414 C 0.71688 0.87644 0.19314 0.0
C415 C 0.71696 0.89082 0.18409 0.0
C416 C 0.71425 0.88981 0.16535 0.0
C417 C 0.71159 0.87451 0.15487 0.0
C418 C 0.71153 0.85988 0.16369 0.0
C419 C 0.71404 0.8608 0.18287 0.0
C420 C 0.72779 0.77564 0.235 0.0
C421 C 0.72087 0.78104 0.25188 0.0
O422 O 0.70499 0.92467 0.09204 0.0
O423 O 0.73259 0.94474 0.24207 0.0
O424 O 0.70811 0.78538 0.24691 0.0
O425 O 0.69308 0.7835 0.08779 0.0
H426 H 0.68153 0.9065 0.07804 0.0
H427 H 0.7065 0.90371 0.06511 0.0
H428 H 0.71812 0.9274 0.05877 0.0
H429 H 0.69668 0.91084 0.04812 0.0
H430 H 0.67698 0.89608 0.10679 0.0
H431 H 0.73456 0.92756 0.10371 0.0
H432 H 0.67133 0.8564 0.12093 0.0
H433 H 0.66177 0.87053 0.12534 0.0
H434 H 0.67473 0.86775 0.14281 0.0
H435 H 0.75321 0.91872 0.11783 0.0
H436 H 0.74286 0.89413 0.11897 0.0
H437 H 0.74431 0.90743 0.13897 0.0
H438 H 0.71631 0.78272 0.08756 0.0
H439 H 0.70176 0.79125 0.05297 0.0
H440 H 0.72204 0.79018 0.05434 0.0
H441 H 0.72055 0.80771 0.067 0.0
H442 H 0.72603 0.81136 0.09886 0.0
H443 H 0.66884 0.78766 0.10316 0.0
H444 H 0.7391 0.85515 0.11565 0.0
H445 H 0.74703 0.83933 0.11317 0.0
H446 H 0.73947 0.843 0.13492 0.0
H447 H 0.65625 0.8007 0.12235 0.0
H448 H 0.66884 0.82531 0.12058 0.0
H449 H 0.67043 0.81534 0.14105 0.0
H450 H 0.73238 0.79309 0.25912 0.0
H451 H 0.73989 0.8155 0.23849 0.0
H452 H 0.6823 0.79006 0.23769 0.0
H453 H 0.74903 0.84829 0.20622 0.0
H454 H 0.75905 0.8437 0.2253 0.0
H455 H 0.75087 0.85928 0.22797 0.0
H456 H 0.66779 0.80495 0.22677 0.0
H457 H 0.6783 0.81626 0.20607 0.0
H458 H 0.68124 0.8297 0.22646 0.0
H459 H 0.70831 0.94148 0.23374 0.0
H460 H 0.71999 0.97471 0.23328 0.0
H461 H 0.73315 0.96833 0.21935 0.0
H462 H 0.74185 0.97966 0.24131 0.0
H463 H 0.75708 0.93791 0.23248 0.0
H464 H 0.70046 0.91313 0.24202 0.0
H465 H 0.75603 0.90645 0.20313 0.0
H466 H 0.75625 0.8957 0.22363 0.0
H467 H 0.76978 0.9204 0.22232 0.0
H468 H 0.67979 0.88169 0.23612 0.0
H469 H 0.68886 0.86677 0.23488 0.0
H470 H 0.68508 0.87525 0.21441 0.0
H471 H 0.70418 0.8571 0.11115 0.0
H472 H 0.70644 0.81765 0.15502 0.0
H473 H 0.71055 0.81915 0.18741 0.0
H474 H 0.7206 0.86331 0.23557 0.0
H475 H 0.719 0.90301 0.19139 0.0
H476 H 0.71433 0.90122 0.15916 0.0
H477 H 0.73758 0.77163 0.23912 0.0
H478 H 0.73475 0.78729 0.2258 0.0
H479 H 0.71645 0.76395 0.22725 0.0
C480 C 0.20672 0.93496 0.06029 0.0
C481 C 0.22007 0.94014 0.07628 0.0
C482 C 0.20373 0.914 0.09629 0.0
C483 C 0.19088 0.91837 0.10219 0.0
C484 C 0.17686 0.90676 0.11363 0.0
C485 C 0.17563 0.89047 0.11936 0.0
C486 C 0.18869 0.88618 0.11377 0.0
C487 C 0.2026 0.89805 0.10234 0.0
C488 C 0.16314 0.91174 0.11938 0.0
C489 C 0.18777 0.86892 0.11966 0.0
C490 C 0.04582 0.80145 0.07325 0.0
C491 C 0.06159 0.79818 0.07425 0.0
C492 C 0.08169 0.81149 0.10059 0.0
C493 C 0.09206 0.80633 0.11032 0.0
C494 C 0.10797 0.81952 0.11941 0.0
C495 C 0.11294 0.83822 0.11965 0.0
C496 C 0.10234 0.84347 0.10986 0.0
C497 C 0.08695 0.83003 0.10017 0.0
C498 C 0.11932 0.81335 0.1288 0.0
C499 C 0.10709 0.86321 0.10981 0.0
C500 C 0.0839 0.81268 0.23479 0.0
C501 C 0.09619 0.80833 0.22728 0.0
C502 C 0.11193 0.82177 0.21899 0.0
C503 C 0.11538 0.8399 0.21811 0.0
C504 C 0.10345 0.8445 0.22647 0.0
C505 C 0.08794 0.83083 0.23492 0.0
C506 C 0.12466 0.81648 0.21077 0.0
C507 C 0.10677 0.8637 0.22592 0.0
C508 C 0.24949 0.95401 0.22599 0.0
C509 C 0.23706 0.94933 0.24233 0.0
C510 C 0.21105 0.9183 0.23597 0.0
C511 C 0.20745 0.9006 0.23174 0.0
C512 C 0.19137 0.8875 0.22277 0.0
C513 C 0.17846 0.89221 0.21822 0.0
C514 C 0.18162 0.90982 0.22319 0.0
C515 C 0.19786 0.92269 0.23207 0.0
C516 C 0.18832 0.86876 0.21781 0.0
C517 C 0.16789 0.91509 0.21891 0.0
C518 C 0.16012 0.87749 0.13038 0.0
C519 C 0.14443 0.86432 0.12107 0.0
C520 C 0.12896 0.85215 0.13043 0.0
C521 C 0.12906 0.85306 0.14969 0.0
C522 C 0.11354 0.8415 0.15956 0.0
C523 C 0.11404 0.84177 0.17848 0.0
C524 C 0.13003 0.8538 0.18829 0.0
C525 C 0.13087 0.85367 0.20752 0.0
C526 C 0.14679 0.86632 0.21688 0.0
C527 C 0.16204 0.87903 0.20751 0.0
C528 C 0.1616 0.87902 0.18827 0.0
C529 C 0.17683 0.89138 0.17841 0.0
C530 C 0.17635 0.89102 0.15946 0.0
C531 C 0.16066 0.87825 0.14964 0.0
C532 C 0.14509 0.86588 0.15931 0.0
C533 C 0.14556 0.86628 0.17864 0.0
C534 C 0.03865 0.7792 0.22951 0.0
C535 C 0.05708 0.78203 0.23455 0.0
O536 O 0.2172 0.92452 0.08468 0.0
O537 O 0.22714 0.93046 0.24416 0.0
O538 O 0.06804 0.79969 0.24187 0.0
O539 O 0.06633 0.79822 0.09223 0.0
H540 H 0.21819 0.94908 0.08626 0.0
H541 H 0.19266 0.92803 0.06517 0.0
H542 H 0.20779 0.92548 0.05034 0.0
H543 H 0.20945 0.94748 0.05325 0.0
H544 H 0.19147 0.93066 0.09782 0.0
H545 H 0.21257 0.89479 0.09782 0.0
H546 H 0.14965 0.90121 0.11381 0.0
H547 H 0.16648 0.92537 0.11458 0.0
H548 H 0.16223 0.91186 0.13445 0.0
H549 H 0.19913 0.86768 0.11439 0.0
H550 H 0.17488 0.85673 0.11474 0.0
H551 H 0.18797 0.86874 0.13476 0.0
H552 H 0.07315 0.80937 0.06692 0.0
H553 H 0.04157 0.80074 0.05884 0.0
H554 H 0.04992 0.81526 0.07911 0.0
H555 H 0.03413 0.79107 0.08097 0.0
H556 H 0.08781 0.79192 0.11046 0.0
H557 H 0.07878 0.83393 0.0927 0.0
H558 H 0.11644 0.81225 0.14357 0.0
H559 H 0.13392 0.82337 0.12717 0.0
H560 H 0.11629 0.79968 0.12342 0.0
H561 H 0.09601 0.86455 0.10402 0.0
H562 H 0.11926 0.87121 0.10149 0.0
H563 H 0.11027 0.86939 0.12385 0.0
H564 H 0.06261 0.78011 0.22152 0.0
H565 H 0.09344 0.79442 0.22783 0.0
H566 H 0.07851 0.8341 0.24104 0.0
H567 H 0.12383 0.81647 0.1957 0.0
H568 H 0.12141 0.80263 0.21477 0.0
H569 H 0.13878 0.82667 0.21503 0.0
H570 H 0.09594 0.86495 0.23263 0.0
H571 H 0.10772 0.86777 0.21156 0.0
H572 H 0.11983 0.8735 0.23282 0.0
H573 H 0.22819 0.95485 0.23973 0.0
H574 H 0.25795 0.96914 0.22479 0.0
H575 H 0.2584 0.9483 0.22732 0.0
H576 H 0.24127 0.94809 0.21329 0.0
H577 H 0.21753 0.89721 0.23511 0.0
H578 H 0.19991 0.93596 0.23611 0.0
H579 H 0.18679 0.8664 0.2028 0.0
H580 H 0.17561 0.85802 0.22391 0.0
H581 H 0.19957 0.86714 0.22253 0.0
H582 H 0.17191 0.92899 0.22452 0.0
H583 H 0.15463 0.90494 0.22454 0.0
H584 H 0.16611 0.91483 0.20392 0.0
H585 H 0.14425 0.86358 0.10629 0.0
H586 H 0.10083 0.83195 0.15278 0.0
H587 H 0.10173 0.83237 0.18531 0.0
H588 H 0.14736 0.8662 0.23162 0.0
H589 H 0.18933 0.90141 0.18522 0.0
H590 H 0.18848 0.90078 0.15259 0.0
H591 H 0.03238 0.78187 0.24148 0.0
H592 H 0.02948 0.76495 0.2241 0.0
H593 H 0.04027 0.78883 0.2188 0.0
C594 C 0.32206 0.11591 0.96998 0.0
C595 C 0.31277 0.0994 0.95646 0.0
C596 C 0.31206 0.1124 0.92761 0.0
C597 C 0.29345 0.10494 0.92507 0.0
C598 C 0.28695 0.1133 0.9137 0.0
C599 C 0.29931 0.12941 0.9047 0.0
C600 C 0.31807 0.13659 0.90682 0.0
C601 C 0.32417 0.12779 0.91804 0.0
C602 C 0.26687 0.10502 0.91142 0.0
C603 C 0.3317 0.15381 0.89757 0.0
C604 C 0.25934 0.20581 0.97027 0.0
C605 C 0.27353 0.21274 0.95538 0.0
C606 C 0.26993 0.19538 0.92723 0.0
C607 C 0.28807 0.20111 0.92424 0.0
C608 C 0.2927 0.19054 0.91308 0.0
C609 C 0.27888 0.17382 0.90493 0.0
C610 C 0.26058 0.16826 0.90758 0.0
C611 C 0.25637 0.17933 0.91848 0.0
C612 C 0.31234 0.19714 0.91015 0.0
C613 C 0.24549 0.15046 0.89924 0.0
C614 C 0.27899 0.20215 0.78994 0.0
C615 C 0.29586 0.20643 0.79684 0.0
C616 C 0.29805 0.19301 0.805 0.0
C617 C 0.28301 0.17498 0.80636 0.0
C618 C 0.26621 0.17041 0.79855 0.0
C619 C 0.26448 0.18407 0.79024 0.0
C620 C 0.31633 0.19822 0.81259 0.0
C621 C 0.24997 0.15129 0.79956 0.0
C622 C 0.30248 0.06249 0.79832 0.0
C623 C 0.29384 0.0658 0.78186 0.0
C624 C 0.29893 0.09672 0.7875 0.0
C625 C 0.31329 0.11469 0.79062 0.0
C626 C 0.31081 0.12787 0.79987 0.0
C627 C 0.29341 0.12298 0.80583 0.0
C628 C 0.27864 0.10507 0.80198 0.0
C629 C 0.28153 0.0921 0.79285 0.0
C630 C 0.32681 0.14692 0.80362 0.0
C631 C 0.25981 0.09959 0.80767 0.0
C632 C 0.29276 0.13933 0.89384 0.0
C633 C 0.2883 0.15094 0.90324 0.0
C634 C 0.28357 0.16197 0.89396 0.0
C635 C 0.28362 0.16175 0.87472 0.0
C636 C 0.27995 0.17343 0.86497 0.0
C637 C 0.28023 0.17327 0.84604 0.0
C638 C 0.28406 0.16133 0.83611 0.0
C639 C 0.28471 0.16131 0.81686 0.0
C640 C 0.28779 0.1487 0.80739 0.0
C641 C 0.29071 0.13635 0.81667 0.0
C642 C 0.29096 0.13677 0.83593 0.0
C643 C 0.29469 0.12512 0.84571 0.0
C644 C 0.29525 0.12589 0.86466 0.0
C645 C 0.29186 0.13815 0.87458 0.0
C646 C 0.28757 0.14964 0.865 0.0
C647 C 0.28747 0.1492 0.84567 0.0
C648 C 0.2684 0.23608 0.79598 0.0
C649 C 0.28365 0.23293 0.79036 0.0
O650 O 0.31876 0.105 0.93901 0.0
O651 O 0.30238 0.08447 0.77898 0.0
O652 O 0.27627 0.21519 0.78312 0.0
O653 O 0.26516 0.20488 0.93873 0.0
H654 H 0.2981 0.09413 0.95746 0.0
H655 H 0.31724 0.12547 0.96746 0.0
H656 H 0.33691 0.1236 0.96837 0.0
H657 H 0.31877 0.11134 0.9842 0.0
H658 H 0.28395 0.0925 0.93174 0.0
H659 H 0.33849 0.13327 0.91987 0.0
H660 H 0.26296 0.11439 0.91787 0.0
H661 H 0.25904 0.09143 0.9177 0.0
H662 H 0.26316 0.10342 0.89673 0.0
H663 H 0.34577 0.1584 0.90172 0.0
H664 H 0.32913 0.16508 0.90081 0.0
H665 H 0.33033 0.1513 0.88258 0.0
H666 H 0.28297 0.20809 0.95912 0.0
H667 H 0.26572 0.21233 0.98368 0.0
H668 H 0.25296 0.19071 0.97118 0.0
H669 H 0.24859 0.20881 0.96723 0.0
H670 H 0.29859 0.21385 0.93061 0.0
H671 H 0.24242 0.17514 0.92078 0.0
H672 H 0.31581 0.18787 0.91689 0.0
H673 H 0.32137 0.21134 0.91575 0.0
H674 H 0.31491 0.19672 0.89538 0.0
H675 H 0.23202 0.14737 0.90388 0.0
H676 H 0.24733 0.13893 0.90276 0.0
H677 H 0.2458 0.1512 0.88418 0.0
H678 H 0.29138 0.23484 0.80318 0.0
H679 H 0.30731 0.22026 0.79594 0.0
H680 H 0.25159 0.18085 0.78457 0.0
H681 H 0.31589 0.19816 0.82768 0.0
H682 H 0.32706 0.21207 0.80849 0.0
H683 H 0.31994 0.18801 0.80792 0.0
H684 H 0.23779 0.15 0.79304 0.0
H685 H 0.24705 0.14752 0.81402 0.0
H686 H 0.25288 0.1413 0.79272 0.0
H687 H 0.27938 0.05998 0.78489 0.0
H688 H 0.2961 0.04754 0.80038 0.0
H689 H 0.30048 0.06893 0.81078 0.0
H690 H 0.31719 0.06857 0.79645 0.0
H691 H 0.3266 0.11823 0.78616 0.0
H692 H 0.27006 0.07858 0.78973 0.0
H693 H 0.32849 0.15004 0.81852 0.0
H694 H 0.32441 0.15717 0.79732 0.0
H695 H 0.33951 0.14852 0.79824 0.0
H696 H 0.24956 0.08551 0.80263 0.0
H697 H 0.25622 0.10941 0.80246 0.0
H698 H 0.25927 0.10017 0.82276 0.0
H699 H 0.28877 0.15161 0.91802 0.0
H700 H 0.27697 0.18296 0.87188 0.0
H701 H 0.27735 0.18261 0.8393 0.0
H702 H 0.28805 0.1486 0.79262 0.0
H703 H 0.29743 0.11541 0.83881 0.0
H704 H 0.29831 0.11671 0.87147 0.0
H705 H 0.25897 0.23316 0.7844 0.0
H706 H 0.274 0.25048 0.8011 0.0
H707 H 0.26061 0.22678 0.80707 0.0
C708 C 0.79898 0.06661 0.96055 0.0
C709 C 0.7876 0.07054 0.94769 0.0
C710 C 0.80053 0.08014 0.91807 0.0
C711 C 0.79694 0.094 0.91444 0.0
C712 C 0.80831 0.10844 0.90324 0.0
C713 C 0.82368 0.10906 0.89577 0.0
C714 C 0.82698 0.09473 0.89901 0.0
C715 C 0.8151 0.08022 0.90987 0.0
C716 C 0.80412 0.12322 0.89975 0.0
C717 C 0.84337 0.09504 0.89156 0.0
C718 C 0.93209 0.23989 0.95358 0.0
C719 C 0.92198 0.22139 0.9444 0.0
C720 C 0.89641 0.20309 0.92361 0.0
C721 C 0.90034 0.18914 0.92044 0.0
C722 C 0.88955 0.17411 0.90856 0.0
C723 C 0.87456 0.17299 0.89963 0.0
C724 C 0.87064 0.18704 0.90265 0.0
C725 C 0.88165 0.20194 0.91462 0.0
C726 C 0.89406 0.15931 0.90567 0.0
C727 C 0.85471 0.18621 0.89337 0.0
C728 C 0.91334 0.20156 0.78497 0.0
C729 C 0.91572 0.18719 0.79015 0.0
C730 C 0.90172 0.17175 0.79851 0.0
C731 C 0.88508 0.17067 0.80163 0.0
C732 C 0.88258 0.18496 0.7961 0.0
C733 C 0.8968 0.20025 0.78793 0.0
C734 C 0.90478 0.15673 0.80433 0.0
C735 C 0.86497 0.18418 0.79906 0.0
C736 C 0.7639 0.0341 0.78017 0.0
C737 C 0.77238 0.05274 0.77133 0.0
C738 C 0.8038 0.07638 0.77871 0.0
C739 C 0.81992 0.07785 0.78423 0.0
C740 C 0.83337 0.09367 0.79362 0.0
C741 C 0.83062 0.10843 0.79736 0.0
C742 C 0.81477 0.10746 0.79087 0.0
C743 C 0.80154 0.09146 0.7815 0.0
C744 C 0.85026 0.09441 0.80006 0.0
C745 C 0.81165 0.12317 0.79423 0.0
C746 C 0.837 0.12533 0.88574 0.0
C747 C 0.84893 0.14117 0.896 0.0
C748 C 0.86256 0.15671 0.88772 0.0
C749 C 0.86467 0.15643 0.86865 0.0
C750 C 0.87874 0.17152 0.85996 0.0
C751 C 0.88075 0.17103 0.84119 0.0
C752 C 0.86864 0.15551 0.83037 0.0
C753 C 0.87046 0.15493 0.81126 0.0
C754 C 0.85799 0.13941 0.80088 0.0
C755 C 0.84369 0.12431 0.8091 0.0
C756 C 0.84181 0.1245 0.82822 0.0
C757 C 0.82772 0.10942 0.83695 0.0
C758 C 0.82605 0.10968 0.85577 0.0
C759 C 0.83836 0.12505 0.86658 0.0
C760 C 0.85243 0.14057 0.85804 0.0
C761 C 0.8543 0.14019 0.83886 0.0
C762 C 0.95662 0.22881 0.78796 0.0
C763 C 0.94343 0.22123 0.7716 0.0
O764 O 0.79041 0.06689 0.92988 0.0
O765 O 0.79089 0.06028 0.77066 0.0
O766 O 0.92656 0.21711 0.77747 0.0
O767 O 0.90647 0.21778 0.93517 0.0
H768 H 0.79219 0.08536 0.94986 0.0
H769 H 0.8135 0.07567 0.95752 0.0
H770 H 0.79544 0.0521 0.95885 0.0
H771 H 0.79684 0.06937 0.97493 0.0
H772 H 0.78535 0.09358 0.92054 0.0
H773 H 0.8176 0.06931 0.91272 0.0
H774 H 0.814 0.13604 0.90734 0.0
H775 H 0.79035 0.11931 0.90415 0.0
H776 H 0.80537 0.1262 0.88504 0.0
H777 H 0.84492 0.08384 0.89684 0.0
H778 H 0.85574 0.10841 0.89512 0.0
H779 H 0.84228 0.0935 0.87649 0.0
H780 H 0.91987 0.20987 0.95295 0.0
H781 H 0.95658 0.25331 0.93937 0.0
H782 H 0.9315 0.23721 0.96855 0.0
H783 H 0.92255 0.24517 0.95437 0.0
H784 H 0.91173 0.1898 0.92725 0.0
H785 H 0.87874 0.21275 0.91708 0.0
H786 H 0.88302 0.14622 0.91096 0.0
H787 H 0.90687 0.16279 0.91264 0.0
H788 H 0.89517 0.15699 0.89089 0.0
H789 H 0.85326 0.19807 0.89743 0.0
H790 H 0.84213 0.17332 0.89673 0.0
H791 H 0.85624 0.18602 0.87838 0.0
H792 H 0.94276 0.20872 0.76565 0.0
H793 H 0.92847 0.18804 0.78802 0.0
H794 H 0.89511 0.2114 0.78386 0.0
H795 H 0.90316 0.15528 0.81928 0.0
H796 H 0.9184 0.15948 0.80077 0.0
H797 H 0.8945 0.14344 0.79773 0.0
H798 H 0.86495 0.19608 0.79331 0.0
H799 H 0.86235 0.18397 0.81388 0.0
H800 H 0.85372 0.17134 0.79268 0.0
H801 H 0.76891 0.06135 0.78006 0.0
H802 H 0.74904 0.02774 0.78093 0.0
H803 H 0.76942 0.03593 0.79422 0.0
H804 H 0.76692 0.02468 0.77227 0.0
H805 H 0.8217 0.06628 0.78164 0.0
H806 H 0.78952 0.09083 0.7764 0.0
H807 H 0.85096 0.0953 0.81517 0.0
H808 H 0.86232 0.10691 0.79509 0.0
H809 H 0.85075 0.08216 0.7953 0.0
H810 H 0.79906 0.12067 0.78754 0.0
H811 H 0.82321 0.13602 0.78912 0.0
H812 H 0.81083 0.12532 0.8091 0.0
H813 H 0.84772 0.14135 0.9107 0.0
H814 H 0.88842 0.18384 0.86759 0.0
H815 H 0.89189 0.18301 0.83526 0.0
H816 H 0.85934 0.13915 0.78621 0.0
H817 H 0.81784 0.09718 0.82935 0.0
H818 H 0.81497 0.09768 0.86175 0.0
H819 H 0.9588 0.2423 0.79286 0.0
H820 H 0.96978 0.23041 0.78432 0.0
H821 H 0.95118 0.21924 0.79934 0.0
C822 C 0.79611 0.70963 0.96965 0.0
C823 C 0.78412 0.70291 0.95238 0.0
C824 C 0.80234 0.69844 0.92942 0.0
C825 C 0.81542 0.71715 0.92767 0.0
C826 C 0.82996 0.72259 0.9159 0.0
C827 C 0.83135 0.70911 0.90556 0.0
C828 C 0.81796 0.69035 0.90689 0.0
C829 C 0.80368 0.68528 0.91888 0.0
C830 C 0.844 0.74271 0.91469 0.0
C831 C 0.81892 0.67561 0.8959 0.0
C832 C 0.9153 0.70782 0.96586 0.0
C833 C 0.92008 0.69915 0.94993 0.0
C834 C 0.91534 0.71277 0.92368 0.0
C835 C 0.90123 0.69745 0.91437 0.0
C836 C 0.88921 0.69928 0.90318 0.0
C837 C 0.89135 0.7168 0.90141 0.0
C838 C 0.90618 0.73243 0.91001 0.0
C839 C 0.91817 0.73021 0.92091 0.0
C840 C 0.87384 0.68237 0.89383 0.0
C841 C 0.90895 0.7513 0.9082 0.0
C842 C 0.91998 0.73078 0.78487 0.0
C843 C 0.90506 0.71348 0.78857 0.0
C844 C 0.89043 0.71194 0.79828 0.0
C845 C 0.89065 0.72804 0.8042 0.0
C846 C 0.90521 0.74545 0.79964 0.0
C847 C 0.91967 0.74658 0.78989 0.0
C848 C 0.87484 0.69313 0.80249 0.0
C849 C 0.90568 0.76283 0.80548 0.0
C850 C 0.76095 0.70009 0.75789 0.0
C851 C 0.77659 0.71222 0.77015 0.0
C852 C 0.79641 0.70769 0.79041 0.0
C853 C 0.79873 0.69415 0.79778 0.0
C854 C 0.81494 0.69856 0.80642 0.0
C855 C 0.82903 0.71717 0.80824 0.0
C856 C 0.82677 0.73103 0.80088 0.0
C857 C 0.81048 0.72614 0.7919 0.0
C858 C 0.81693 0.68325 0.81359 0.0
C859 C 0.84148 0.75097 0.80268 0.0
C860 C 0.8473 0.71447 0.89411 0.0
C861 C 0.86216 0.71509 0.90221 0.0
C862 C 0.8771 0.71838 0.89202 0.0
C863 C 0.87742 0.72144 0.8732 0.0
C864 C 0.89216 0.72464 0.86252 0.0
C865 C 0.89195 0.72675 0.84384 0.0
C866 C 0.87691 0.72558 0.83512 0.0
C867 C 0.8761 0.7266 0.816 0.0
C868 C 0.86072 0.72476 0.80771 0.0
C869 C 0.84597 0.72192 0.81804 0.0
C870 C 0.84674 0.72138 0.83722 0.0
C871 C 0.8323 0.71891 0.84805 0.0
C872 C 0.83257 0.71697 0.86675 0.0
C873 C 0.84734 0.71752 0.87532 0.0
C874 C 0.8624 0.72085 0.8648 0.0
C875 C 0.86212 0.72286 0.84573 0.0
C876 C 0.95914 0.73303 0.79115 0.0
C877 C 0.94257 0.72233 0.77859 0.0
O878 O 0.78842 0.69238 0.94119 0.0
O879 O 0.78042 0.70225 0.78196 0.0
O880 O 0.93469 0.73277 0.77618 0.0
O881 O 0.92624 0.71101 0.93557 0.0
H882 H 0.78623 0.71508 0.94504 0.0
H883 H 0.81045 0.71892 0.96618 0.0
H884 H 0.79509 0.69792 0.97695 0.0
H885 H 0.79205 0.71737 0.97893 0.0
H886 H 0.81461 0.72761 0.93558 0.0
H887 H 0.7935 0.67092 0.92023 0.0
H888 H 0.85725 0.74519 0.91949 0.0
H889 H 0.84058 0.7516 0.92297 0.0
H890 H 0.84549 0.74676 0.90028 0.0
H891 H 0.80701 0.66172 0.8979 0.0
H892 H 0.83124 0.67559 0.8999 0.0
H893 H 0.81988 0.67855 0.8812 0.0
H894 H 0.90776 0.68593 0.94575 0.0
H895 H 0.91041 0.69854 0.97752 0.0
H896 H 0.90442 0.71024 0.96162 0.0
H897 H 0.92726 0.72118 0.97037 0.0
H898 H 0.89952 0.68405 0.91594 0.0
H899 H 0.92933 0.74199 0.92796 0.0
H900 H 0.87261 0.68497 0.87935 0.0
H901 H 0.86106 0.6789 0.90058 0.0
H902 H 0.87556 0.67034 0.89441 0.0
H903 H 0.92159 0.76217 0.91506 0.0
H904 H 0.89739 0.75169 0.91424 0.0
H905 H 0.90937 0.7544 0.89358 0.0
H906 H 0.93325 0.70929 0.78529 0.0
H907 H 0.9047 0.70114 0.78379 0.0
H908 H 0.93107 0.75985 0.78659 0.0
H909 H 0.87368 0.69164 0.81746 0.0
H910 H 0.87642 0.68195 0.79639 0.0
H911 H 0.86206 0.6915 0.79728 0.0
H912 H 0.91763 0.77528 0.80024 0.0
H913 H 0.90592 0.76406 0.82058 0.0
H914 H 0.89327 0.76224 0.80055 0.0
H915 H 0.77642 0.72401 0.77696 0.0
H916 H 0.7504 0.70354 0.76164 0.0
H917 H 0.75353 0.68617 0.76408 0.0
H918 H 0.77226 0.70427 0.73168 0.0
H919 H 0.78778 0.67997 0.79648 0.0
H920 H 0.80871 0.73672 0.78631 0.0
H921 H 0.81643 0.68356 0.82867 0.0
H922 H 0.83013 0.68507 0.80972 0.0
H923 H 0.80603 0.66952 0.80841 0.0
H924 H 0.83718 0.76021 0.79736 0.0
H925 H 0.85347 0.75313 0.79507 0.0
H926 H 0.84566 0.75485 0.8172 0.0
H927 H 0.86185 0.71235 0.91658 0.0
H928 H 0.90395 0.72537 0.86846 0.0
H929 H 0.90362 0.72904 0.83628 0.0
H930 H 0.85992 0.72479 0.79298 0.0
H931 H 0.82051 0.71819 0.84214 0.0
H932 H 0.82097 0.71479 0.87438 0.0
H933 H 0.96902 0.74642 0.78535 0.0
H934 H 0.96575 0.72497 0.79315 0.0
H935 H 0.95499 0.7357 0.80465 0.0
C936 C 0.8783 0.6291 0.38176 0.0
C937 C 0.88886 0.6404 0.39878 0.0
C938 C 0.86951 0.63125 0.42492 0.0
C939 C 0.87312 0.64823 0.4323 0.0
C940 C 0.8602 0.64953 0.44264 0.0
C941 C 0.84333 0.6335 0.44565 0.0
C942 C 0.83991 0.61626 0.43875 0.0
C943 C 0.85319 0.61534 0.42861 0.0
C944 C 0.86448 0.66807 0.45021 0.0
C945 C 0.82214 0.5989 0.44186 0.0
C946 C 0.73415 0.65785 0.40262 0.0
C947 C 0.74281 0.65172 0.41582 0.0
C948 C 0.77105 0.65318 0.42216 0.0
C949 C 0.7644 0.63559 0.42889 0.0
C950 C 0.77547 0.63166 0.43931 0.0
C951 C 0.7935 0.64569 0.44337 0.0
C952 C 0.80033 0.66333 0.4363 0.0
C953 C 0.78906 0.66674 0.42554 0.0
C954 C 0.76792 0.61244 0.44587 0.0
C955 C 0.81951 0.67861 0.44012 0.0
C956 C 0.7598 0.64325 0.56117 0.0
C957 C 0.75392 0.62773 0.54948 0.0
C958 C 0.76637 0.62473 0.54012 0.0
C959 C 0.78504 0.63804 0.54168 0.0
C960 C 0.79094 0.65382 0.55323 0.0
C961 C 0.77824 0.65599 0.5631 0.0
C962 C 0.75948 0.60726 0.52866 0.0
C963 C 0.81064 0.66848 0.55516 0.0
C964 C 0.8865 0.60055 0.55596 0.0
C965 C 0.88583 0.61698 0.564 0.0
C966 C 0.85721 0.61574 0.56158 0.0
C967 C 0.8393 0.60204 0.55793 0.0
C968 C 0.82756 0.60592 0.54865 0.0
C969 C 0.83386 0.62408 0.54339 0.0
C970 C 0.85168 0.63822 0.5481 0.0
C971 C 0.86321 0.63387 0.55706 0.0
C972 C 0.80862 0.59054 0.544 0.0
C973 C 0.85865 0.65787 0.54336 0.0
C974 C 0.82925 0.63494 0.45577 0.0
C975 C 0.81797 0.63896 0.44597 0.0
C976 C 0.80525 0.64181 0.45476 0.0
C977 C 0.80379 0.64074 0.47393 0.0
C978 C 0.79181 0.64441 0.48337 0.0
C979 C 0.79021 0.64296 0.50218 0.0
C980 C 0.80038 0.63758 0.51229 0.0
C981 C 0.7984 0.63544 0.53135 0.0
C982 C 0.80929 0.63078 0.54101 0.0
C983 C 0.82215 0.62817 0.53221 0.0
C984 C 0.82393 0.62973 0.5131 0.0
C985 C 0.83642 0.62676 0.50374 0.0
C986 C 0.83826 0.62856 0.48499 0.0
C987 C 0.8275 0.63313 0.47483 0.0
C988 C 0.81473 0.63606 0.48394 0.0
C989 C 0.81298 0.63442 0.50312 0.0
C990 C 0.72058 0.64172 0.58326 0.0
C991 C 0.72992 0.63846 0.56787 0.0
O992 O 0.88149 0.63 0.41401 0.0
O993 O 0.86839 0.61109 0.56947 0.0
O994 O 0.74827 0.64627 0.57111 0.0
O995 O 0.76061 0.65735 0.41207 0.0
H996 H 0.88759 0.65277 0.39944 0.0
H997 H 0.86405 0.62552 0.38266 0.0
H998 H 0.87848 0.61615 0.38044 0.0
H999 H 0.88417 0.63713 0.36936 0.0
H1000 H 0.88605 0.66045 0.42992 0.0
H1001 H 0.85067 0.60227 0.42301 0.0
H1002 H 0.8551 0.67173 0.44409 0.0
H1003 H 0.87853 0.67907 0.44743 0.0
H1004 H 0.86247 0.66753 0.46516 0.0
H1005 H 0.82149 0.58659 0.43538 0.0
H1006 H 0.81095 0.60017 0.43628 0.0
H1007 H 0.81999 0.59684 0.45669 0.0
H1008 H 0.73436 0.63704 0.41935 0.0
H1009 H 0.7229 0.64481 0.39598 0.0
H1010 H 0.74281 0.66208 0.39016 0.0
H1011 H 0.72955 0.67619 0.4183 0.0
H1012 H 0.7507 0.62476 0.4257 0.0
H1013 H 0.79416 0.68018 0.42004 0.0
H1014 H 0.77736 0.60759 0.44286 0.0
H1015 H 0.75459 0.60255 0.43948 0.0
H1016 H 0.76629 0.61246 0.46085 0.0
H1017 H 0.82198 0.6921 0.43583 0.0
H1018 H 0.82882 0.67552 0.43264 0.0
H1019 H 0.82281 0.67965 0.45488 0.0
H1020 H 0.72678 0.64123 0.55405 0.0
H1021 H 0.7397 0.61769 0.54784 0.0
H1022 H 0.78266 0.66788 0.57219 0.0
H1023 H 0.75937 0.61024 0.5141 0.0
H1024 H 0.74553 0.59664 0.53229 0.0
H1025 H 0.76834 0.60153 0.53027 0.0
H1026 H 0.81267 0.68117 0.56221 0.0
H1027 H 0.81696 0.67204 0.54158 0.0
H1028 H 0.81776 0.66322 0.56317 0.0
H1029 H 0.88986 0.62693 0.55291 0.0
H1030 H 0.9004 0.60492 0.55157 0.0
H1031 H 0.87732 0.59464 0.54389 0.0
H1032 H 0.88219 0.58969 0.56609 0.0
H1033 H 0.83473 0.58814 0.56178 0.0
H1034 H 0.87691 0.64461 0.56054 0.0
H1035 H 0.8062 0.58966 0.52907 0.0
H1036 H 0.79881 0.59345 0.55065 0.0
H1037 H 0.80602 0.57704 0.54845 0.0
H1038 H 0.87188 0.66754 0.55006 0.0
H1039 H 0.84883 0.66195 0.54743 0.0
H1040 H 0.86026 0.65916 0.5284 0.0
H1041 H 0.81923 0.64004 0.4313 0.0
H1042 H 0.78353 0.64847 0.47632 0.0
H1043 H 0.78081 0.64604 0.50868 0.0
H1044 H 0.80784 0.6293 0.55563 0.0
H1045 H 0.84495 0.62303 0.51079 0.0
H1046 H 0.84815 0.62618 0.47855 0.0
H1047 H 0.70277 0.61513 0.59265 0.0
H1048 H 0.71573 0.65058 0.57756 0.0
H1049 H 0.73138 0.6531 0.59223 0.0
C1050 C 0.34939 0.23861 0.38502 0.0
C1051 C 0.34575 0.24685 0.40216 0.0
C1052 C 0.36217 0.24032 0.42484 0.0
C1053 C 0.34783 0.22359 0.43083 0.0
C1054 C 0.35108 0.21167 0.44056 0.0
C1055 C 0.36904 0.21647 0.44433 0.0
C1056 C 0.38352 0.23343 0.43862 0.0
C1057 C 0.37987 0.24526 0.42913 0.0
C1058 C 0.33528 0.1939 0.44689 0.0
C1059 C 0.40281 0.23898 0.44248 0.0
C1060 C 0.37988 0.09346 0.40765 0.0
C1061 C 0.38637 0.11202 0.416 0.0
C1062 C 0.37526 0.13283 0.42184 0.0
C1063 C 0.39083 0.14684 0.43089 0.0
C1064 C 0.39062 0.16126 0.44042 0.0
C1065 C 0.37432 0.16131 0.4415 0.0
C1066 C 0.35869 0.14735 0.43215 0.0
C1067 C 0.35949 0.13346 0.42218 0.0
C1068 C 0.4078 0.17633 0.44949 0.0
C1069 C 0.34106 0.14688 0.4329 0.0
C1070 C 0.36861 0.12911 0.55811 0.0
C1071 C 0.38573 0.14336 0.55295 0.0
C1072 C 0.38768 0.15865 0.54409 0.0
C1073 C 0.37224 0.15965 0.54017 0.0
C1074 C 0.35506 0.14544 0.5455 0.0
C1075 C 0.35351 0.1304 0.55446 0.0
C1076 C 0.40621 0.17366 0.53869 0.0
C1077 C 0.33831 0.14606 0.54153 0.0
C1078 C 0.38549 0.29199 0.55556 0.0
C1079 C 0.37589 0.27618 0.56855 0.0
C1080 C 0.38304 0.25227 0.56163 0.0
C1081 C 0.39805 0.25121 0.55672 0.0
C1082 C 0.39606 0.23573 0.54715 0.0
C1083 C 0.37857 0.22085 0.54268 0.0
C1084 C 0.36328 0.22146 0.54839 0.0
C1085 C 0.36566 0.23715 0.55789 0.0
C1086 C 0.41265 0.23542 0.5415 0.0
C1087 C 0.34445 0.20559 0.54423 0.0
C1088 C 0.37242 0.20362 0.45432 0.0
C1089 C 0.37291 0.18966 0.44427 0.0
C1090 C 0.37352 0.17559 0.45294 0.0
C1091 C 0.37332 0.17524 0.47218 0.0
C1092 C 0.37247 0.16057 0.48137 0.0
C1093 C 0.37252 0.16046 0.50029 0.0
C1094 C 0.37362 0.17512 0.5108 0.0
C1095 C 0.37393 0.17527 0.53005 0.0
C1096 C 0.37549 0.19029 0.54006 0.0
C1097 C 0.37633 0.20506 0.53134 0.0
C1098 C 0.37536 0.20483 0.51212 0.0
C1099 C 0.37538 0.21909 0.50294 0.0
C1100 C 0.37422 0.21864 0.48403 0.0
C1101 C 0.37355 0.20419 0.47354 0.0
C1102 C 0.37381 0.18983 0.4825 0.0
C1103 C 0.37429 0.18994 0.50182 0.0
C1104 C 0.38282 0.10143 0.55319 0.0
C1105 C 0.37858 0.10907 0.5704 0.0
O1106 O 0.35946 0.25198 0.41498 0.0
O1107 O 0.38592 0.26784 0.57045 0.0
O1108 O 0.36593 0.11386 0.56646 0.0
O1109 O 0.3749 0.11849 0.41275 0.0
H1110 H 0.33258 0.23644 0.40772 0.0
H1111 H 0.34962 0.22611 0.38838 0.0
H1112 H 0.36261 0.24867 0.37921 0.0
H1113 H 0.33861 0.23463 0.37458 0.0
H1114 H 0.33404 0.2198 0.42826 0.0
H1115 H 0.39086 0.25826 0.42462 0.0
H1116 H 0.33575 0.18212 0.44065 0.0
H1117 H 0.32212 0.19236 0.44328 0.0
H1118 H 0.33612 0.19322 0.46189 0.0
H1119 H 0.41259 0.25248 0.43682 0.0
H1120 H 0.4054 0.22841 0.43657 0.0
H1121 H 0.40516 0.23974 0.45742 0.0
H1122 H 0.40084 0.1223 0.41367 0.0
H1123 H 0.3904 0.09554 0.39741 0.0
H1124 H 0.36941 0.09098 0.39701 0.0
H1125 H 0.37409 0.07665 0.43026 0.0
H1126 H 0.40323 0.14669 0.43043 0.0
H1127 H 0.34759 0.12266 0.41503 0.0
H1128 H 0.40951 0.18998 0.44731 0.0
H1129 H 0.41986 0.17635 0.44431 0.0
H1130 H 0.40715 0.17431 0.46438 0.0
H1131 H 0.32964 0.13378 0.42711 0.0
H1132 H 0.34217 0.15831 0.425 0.0
H1133 H 0.33796 0.14883 0.44717 0.0
H1134 H 0.39118 0.12134 0.57581 0.0
H1135 H 0.39762 0.14269 0.55564 0.0
H1136 H 0.34038 0.1194 0.55851 0.0
H1137 H 0.40683 0.17439 0.52363 0.0
H1138 H 0.417 0.17139 0.54359 0.0
H1139 H 0.4089 0.18714 0.54428 0.0
H1140 H 0.32589 0.13377 0.54631 0.0
H1141 H 0.33694 0.14702 0.52665 0.0
H1142 H 0.33949 0.1585 0.54827 0.0
H1143 H 0.36231 0.26647 0.56257 0.0
H1144 H 0.37771 0.29894 0.5539 0.0
H1145 H 0.38663 0.2866 0.54197 0.0
H1146 H 0.39927 0.30221 0.56077 0.0
H1147 H 0.41139 0.26278 0.56004 0.0
H1148 H 0.35394 0.23739 0.56254 0.0
H1149 H 0.41294 0.23435 0.52642 0.0
H1150 H 0.41217 0.22314 0.5469 0.0
H1151 H 0.4253 0.24789 0.54644 0.0
H1152 H 0.33395 0.20787 0.55019 0.0
H1153 H 0.34284 0.1928 0.54961 0.0
H1154 H 0.34222 0.20348 0.52925 0.0
H1155 H 0.37244 0.18953 0.42951 0.0
H1156 H 0.37164 0.14892 0.47403 0.0
H1157 H 0.37181 0.14879 0.50658 0.0
H1158 H 0.37599 0.19046 0.55482 0.0
H1159 H 0.37609 0.23068 0.51028 0.0
H1160 H 0.3741 0.22989 0.47773 0.0
H1161 H 0.39276 0.09735 0.55642 0.0
H1162 H 0.38869 0.11198 0.54271 0.0
H1163 H 0.37037 0.08928 0.54739 0.0
C1164 C 0.91368 0.26537 0.3812 0.0
C1165 C 0.89544 0.25446 0.38914 0.0
C1166 C 0.88031 0.23976 0.41657 0.0
C1167 C 0.86627 0.24339 0.41727 0.0
C1168 C 0.85048 0.23209 0.42687 0.0
C1169 C 0.8485 0.21653 0.43552 0.0
C1170 C 0.8626 0.21271 0.43456 0.0
C1171 C 0.87853 0.22469 0.42549 0.0
C1172 C 0.83597 0.23686 0.4278 0.0
C1173 C 0.86088 0.19594 0.44296 0.0
C1174 C 0.73284 0.13123 0.36758 0.0
C1175 C 0.73832 0.12451 0.38404 0.0
C1176 C 0.75313 0.14487 0.41051 0.0
C1177 C 0.76553 0.13954 0.41473 0.0
C1178 C 0.78086 0.15099 0.42562 0.0
C1179 C 0.78381 0.16808 0.43243 0.0
C1180 C 0.77114 0.17331 0.42846 0.0
C1181 C 0.75581 0.16148 0.41773 0.0
C1182 C 0.79388 0.14482 0.42996 0.0
C1183 C 0.77386 0.19143 0.4355 0.0
C1184 C 0.74948 0.13911 0.547 0.0
C1185 C 0.76152 0.13399 0.54038 0.0
C1186 C 0.77777 0.14687 0.53241 0.0
C1187 C 0.782 0.16522 0.53095 0.0
C1188 C 0.77025 0.17058 0.53833 0.0
C1189 C 0.75421 0.15745 0.54647 0.0
C1190 C 0.79029 0.14082 0.52526 0.0
C1191 C 0.77443 0.19005 0.53718 0.0
C1192 C 0.92006 0.26672 0.53859 0.0
C1193 C 0.90952 0.26548 0.55575 0.0
C1194 C 0.88035 0.2368 0.55129 0.0
C1195 C 0.87385 0.21815 0.54797 0.0
C1196 C 0.85717 0.2067 0.53917 0.0
C1197 C 0.84655 0.21407 0.53397 0.0
C1198 C 0.85249 0.23267 0.53837 0.0
C1199 C 0.8694 0.2439 0.54692 0.0
C1200 C 0.85113 0.18686 0.53494 0.0
C1201 C 0.84116 0.24076 0.53362 0.0
C1202 C 0.83174 0.20431 0.44557 0.0
C1203 C 0.81608 0.1923 0.43545 0.0
C1204 C 0.79993 0.18031 0.44402 0.0
C1205 C 0.79933 0.18002 0.46324 0.0
C1206 C 0.78339 0.16793 0.47228 0.0
C1207 C 0.78297 0.16758 0.49119 0.0
C1208 C 0.7985 0.1792 0.50183 0.0
C1209 C 0.79834 0.17858 0.52106 0.0
C1210 C 0.81405 0.19034 0.5312 0.0
C1211 C 0.83002 0.20272 0.52262 0.0
C1212 C 0.83042 0.20357 0.50342 0.0
C1213 C 0.84626 0.21591 0.49438 0.0
C1214 C 0.84662 0.21647 0.47549 0.0
C1215 C 0.83128 0.20439 0.46483 0.0
C1216 C 0.81507 0.19206 0.47367 0.0
C1217 C 0.81464 0.19167 0.49299 0.0
C1218 C 0.70371 0.10577 0.54214 0.0
C1219 C 0.72219 0.10879 0.5473 0.0
O1220 O 0.89559 0.25051 0.40727 0.0
O1221 O 0.89704 0.24725 0.55901 0.0
O1222 O 0.73324 0.12672 0.55388 0.0
O1223 O 0.73849 0.1343 0.39954 0.0
H1224 H 0.88542 0.24223 0.38071 0.0
H1225 H 0.91432 0.25586 0.37062 0.0
H1226 H 0.92341 0.26481 0.39095 0.0
H1227 H 0.91542 0.29018 0.3746 0.0
H1228 H 0.86776 0.25523 0.4106 0.0
H1229 H 0.88946 0.22202 0.42485 0.0
H1230 H 0.82409 0.22657 0.41952 0.0
H1231 H 0.84059 0.25068 0.42257 0.0
H1232 H 0.83152 0.23641 0.44205 0.0
H1233 H 0.87112 0.19289 0.43774 0.0
H1234 H 0.84725 0.18373 0.44022 0.0
H1235 H 0.86279 0.19827 0.45794 0.0
H1236 H 0.75213 0.12735 0.38108 0.0
H1237 H 0.73219 0.12324 0.35505 0.0
H1238 H 0.743 0.14593 0.36559 0.0
H1239 H 0.71952 0.12992 0.3696 0.0
H1240 H 0.76315 0.12637 0.40966 0.0
H1241 H 0.74605 0.16536 0.41453 0.0
H1242 H 0.79544 0.14476 0.44495 0.0
H1243 H 0.80735 0.15466 0.42452 0.0
H1244 H 0.78939 0.13089 0.42409 0.0
H1245 H 0.76329 0.19392 0.43036 0.0
H1246 H 0.78726 0.20282 0.4314 0.0
H1247 H 0.77365 0.19169 0.45061 0.0
H1248 H 0.72755 0.10632 0.53442 0.0
H1249 H 0.75823 0.11993 0.54143 0.0
H1250 H 0.74496 0.16133 0.5519 0.0
H1251 H 0.79061 0.14129 0.51018 0.0
H1252 H 0.78601 0.12664 0.52913 0.0
H1253 H 0.80422 0.15033 0.53052 0.0
H1254 H 0.76371 0.19194 0.54323 0.0
H1255 H 0.77602 0.19394 0.52272 0.0
H1256 H 0.78739 0.19956 0.5444 0.0
H1257 H 0.90274 0.27331 0.55352 0.0
H1258 H 0.93037 0.28128 0.53614 0.0
H1259 H 0.91072 0.2611 0.52661 0.0
H1260 H 0.92684 0.25874 0.53988 0.0
H1261 H 0.88223 0.21273 0.55179 0.0
H1262 H 0.87378 0.25806 0.55026 0.0
H1263 H 0.84875 0.18386 0.52005 0.0
H1264 H 0.83818 0.17783 0.54175 0.0
H1265 H 0.86118 0.18338 0.53949 0.0
H1266 H 0.84645 0.25461 0.54013 0.0
H1267 H 0.82703 0.2316 0.5379 0.0
H1268 H 0.84095 0.24193 0.51864 0.0
H1269 H 0.81646 0.19226 0.42069 0.0
H1270 H 0.77105 0.15853 0.46484 0.0
H1271 H 0.77031 0.15798 0.49737 0.0
H1272 H 0.81392 0.18966 0.54592 0.0
H1273 H 0.85862 0.22533 0.50177 0.0
H1274 H 0.85916 0.22639 0.46935 0.0
H1275 H 0.69446 0.09131 0.53733 0.0
H1276 H 0.7052 0.1149 0.53096 0.0
H1277 H 0.6976 0.10897 0.55389 0.0
C1278 C 0.00552 0.44885 0.30001 0.0
C1279 C 0.99872 0.43451 0.28422 0.0
C1280 C 0.00581 0.45267 0.25714 0.0
C1281 C 0.9884 0.44778 0.2513 0.0
C1282 C 0.98574 0.45919 0.24001 0.0
C1283 C 0.0008 0.47572 0.23426 0.0
C1284 C 0.01841 0.48032 0.23949 0.0
C1285 C 0.02068 0.46861 0.25077 0.0
C1286 C 0.96682 0.45366 0.2343 0.0
C1287 C 0.03477 0.49771 0.23338 0.0
C1288 C 0.973 0.58001 0.23711 0.0
C1289 C 0.97895 0.57836 0.25624 0.0
C1290 C 0.99203 0.55922 0.24854 0.0
C1291 C 0.00836 0.56059 0.24431 0.0
C1292 C 0.00886 0.54571 0.23633 0.0
C1293 C 0.99253 0.52891 0.23284 0.0
C1294 C 0.97595 0.52709 0.23796 0.0
C1295 C 0.97583 0.54234 0.24568 0.0
C1296 C 0.0268 0.54813 0.23112 0.0
C1297 C 0.95838 0.50918 0.23481 0.0
C1298 C 0.97495 0.54246 0.11635 0.0
C1299 C 0.99275 0.54965 0.12249 0.0
C1300 C 0.99777 0.53856 0.1314 0.0
C1301 C 0.9846 0.52001 0.13447 0.0
C1302 C 0.96679 0.5126 0.12766 0.0
C1303 C 0.96228 0.52389 0.11843 0.0
C1304 C 0.01705 0.54677 0.13782 0.0
C1305 C 0.95242 0.49285 0.13048 0.0
C1306 C 0.01246 0.41211 0.1366 0.0
C1307 C 0.00206 0.41365 0.12061 0.0
C1308 C 0.00656 0.44448 0.12124 0.0
C1309 C 0.02072 0.46248 0.12464 0.0
C1310 C 0.01749 0.47594 0.13189 0.0
C1311 C 0.99959 0.4712 0.13559 0.0
C1312 C 0.9851 0.45333 0.131 0.0
C1313 C 0.98872 0.44016 0.12373 0.0
C1314 C 0.03321 0.495 0.13628 0.0
C1315 C 0.96584 0.44801 0.13432 0.0
C1316 C 0.99804 0.48834 0.22309 0.0
C1317 C 0.9959 0.50175 0.2322 0.0
C1318 C 0.99288 0.51382 0.22257 0.0
C1319 C 0.99154 0.51233 0.20335 0.0
C1320 C 0.98788 0.52386 0.19331 0.0
C1321 C 0.98677 0.52243 0.17439 0.0
C1322 C 0.9898 0.50977 0.16473 0.0
C1323 C 0.98919 0.50855 0.14545 0.0
C1324 C 0.99254 0.49597 0.13631 0.0
C1325 C 0.99619 0.48431 0.14594 0.0
C1326 C 0.99649 0.48509 0.1652 0.0
C1327 C 0.99974 0.47327 0.17528 0.0
C1328 C 1.0001 0.47418 0.19422 0.0
C1329 C 0.99742 0.48708 0.20383 0.0
C1330 C 0.99408 0.49909 0.19394 0.0
C1331 C 0.99346 0.49799 0.17461 0.0
C1332 C 0.95591 0.56724 0.12434 0.0
C1333 C 0.97299 0.56986 0.11536 0.0
O1334 O 0.0087 0.44232 0.2688 0.0
O1335 O 0.01059 0.43174 0.11543 0.0
O1336 O 0.96969 0.55309 0.10827 0.0
O1337 O 0.9927 0.57461 0.25522 0.0
H1338 H 0.98433 0.43001 0.28192 0.0
H1339 H 0.0029 0.45993 0.29679 0.0
H1340 H 0.02025 0.45519 0.30235 0.0
H1341 H 0.99834 0.44246 0.31271 0.0
H1342 H 0.97684 0.43498 0.25533 0.0
H1343 H 0.03408 0.47212 0.25508 0.0
H1344 H 0.96384 0.46425 0.23929 0.0
H1345 H 0.95653 0.44019 0.23965 0.0
H1346 H 0.96565 0.45285 0.21921 0.0
H1347 H 0.04756 0.49911 0.23825 0.0
H1348 H 0.03417 0.50977 0.23856 0.0
H1349 H 0.03484 0.49792 0.21828 0.0
H1350 H 0.96731 0.56723 0.26343 0.0
H1351 H 0.96219 0.58333 0.23796 0.0
H1352 H 0.96755 0.56686 0.22915 0.0
H1353 H 0.98458 0.59096 0.22971 0.0
H1354 H 0.02077 0.57363 0.24677 0.0
H1355 H 0.96311 0.54101 0.24928 0.0
H1356 H 0.02699 0.54582 0.21618 0.0
H1357 H 0.02873 0.53777 0.23786 0.0
H1358 H 0.03829 0.56204 0.23498 0.0
H1359 H 0.94681 0.50949 0.24095 0.0
H1360 H 0.95927 0.4978 0.24065 0.0
H1361 H 0.95575 0.50615 0.21995 0.0
H1362 H 0.98366 0.5753 0.12621 0.0
H1363 H 0.00273 0.56389 0.12024 0.0
H1364 H 0.94864 0.51844 0.11334 0.0
H1365 H 0.01776 0.54837 0.1529 0.0
H1366 H 0.02613 0.56045 0.13211 0.0
H1367 H 0.02205 0.53749 0.13393 0.0
H1368 H 0.93892 0.48958 0.12555 0.0
H1369 H 0.9516 0.48982 0.14516 0.0
H1370 H 0.95603 0.48368 0.12305 0.0
H1371 H 0.98823 0.40882 0.12548 0.0
H1372 H 0.00617 0.39757 0.14045 0.0
H1373 H 0.01214 0.42025 0.14856 0.0
H1374 H 0.02678 0.41748 0.13313 0.0
H1375 H 0.03441 0.46579 0.12223 0.0
H1376 H 0.97759 0.42656 0.12004 0.0
H1377 H 0.03451 0.49755 0.15127 0.0
H1378 H 0.03081 0.50538 0.13031 0.0
H1379 H 0.04612 0.49696 0.1311 0.0
H1380 H 0.95603 0.43377 0.12933 0.0
H1381 H 0.96288 0.4576 0.12744 0.0
H1382 H 0.96388 0.44916 0.14914 0.0
H1383 H 0.99682 0.50294 0.24695 0.0
H1384 H 0.98569 0.53407 0.19994 0.0
H1385 H 0.98372 0.53155 0.16746 0.0
H1386 H 0.99217 0.49514 0.12154 0.0
H1387 H 0.00202 0.46312 0.16866 0.0
H1388 H 0.00265 0.46474 0.20123 0.0
H1389 H 0.94447 0.56139 0.11437 0.0
H1390 H 0.95825 0.58057 0.12999 0.0
H1391 H 0.95216 0.55767 0.13568 0.0
C1392 C 0.4585 0.40037 0.30531 0.0
C1393 C 0.45109 0.40855 0.29213 0.0
C1394 C 0.46425 0.4177 0.26245 0.0
C1395 C 0.46222 0.43277 0.25981 0.0
C1396 C 0.47387 0.44683 0.24839 0.0
C1397 C 0.48796 0.44585 0.2397 0.0
C1398 C 0.48964 0.43033 0.24194 0.0
C1399 C 0.47747 0.41625 0.25305 0.0
C1400 C 0.47136 0.4629 0.24592 0.0
C1401 C 0.50465 0.42891 0.23315 0.0
C1402 C 0.60734 0.57005 0.29425 0.0
C1403 C 0.59564 0.5522 0.28427 0.0
C1404 C 0.56832 0.5362 0.26524 0.0
C1405 C 0.57031 0.52119 0.26053 0.0
C1406 C 0.55771 0.50676 0.249 0.0
C1407 C 0.54286 0.50734 0.24192 0.0
C1408 C 0.54092 0.52251 0.24642 0.0
C1409 C 0.55369 0.53674 0.25805 0.0
C1410 C 0.56014 0.49076 0.24451 0.0
C1411 C 0.52525 0.52357 0.23906 0.0
C1412 C 0.57273 0.53716 0.12643 0.0
C1413 C 0.57376 0.52133 0.12818 0.0
C1414 C 0.55992 0.50585 0.13661 0.0
C1415 C 0.54469 0.50614 0.14312 0.0
C1416 C 0.54329 0.52176 0.14063 0.0
C1417 C 0.55741 0.5371 0.13243 0.0
C1418 C 0.56171 0.48932 0.13893 0.0
C1419 C 0.52704 0.5224 0.14698 0.0
C1420 C 0.42024 0.37471 0.12529 0.0
C1421 C 0.42758 0.3926 0.11525 0.0
C1422 C 0.45951 0.41528 0.12174 0.0
C1423 C 0.47544 0.41557 0.12553 0.0
C1424 C 0.48976 0.43047 0.13517 0.0
C1425 C 0.48813 0.44556 0.14087 0.0
C1426 C 0.47237 0.44575 0.13631 0.0
C1427 C 0.45823 0.43062 0.12671 0.0
C1428 C 0.50649 0.42997 0.13956 0.0
C1429 C 0.47043 0.46187 0.14177 0.0
C1430 C 0.50162 0.46155 0.22927 0.0
C1431 C 0.51515 0.47678 0.23915 0.0
C1432 C 0.52901 0.49175 0.23038 0.0
C1433 C 0.52963 0.4915 0.21115 0.0
C1434 C 0.54373 0.50603 0.20188 0.0
C1435 C 0.54417 0.50566 0.18295 0.0
C1436 C 0.53044 0.49083 0.17255 0.0
C1437 C 0.53057 0.49052 0.15328 0.0
C1438 C 0.51673 0.47557 0.14336 0.0
C1439 C 0.50261 0.46083 0.15218 0.0
C1440 C 0.50222 0.4609 0.17143 0.0
C1441 C 0.48819 0.4463 0.18073 0.0
C1442 C 0.48789 0.44652 0.19966 0.0
C1443 C 0.50164 0.46131 0.21003 0.0
C1444 C 0.51581 0.47627 0.20095 0.0
C1445 C 0.51617 0.47599 0.18163 0.0
C1446 C 0.61563 0.56011 0.12894 0.0
C1447 C 0.60274 0.55678 0.11301 0.0
O1448 O 0.45395 0.40469 0.27442 0.0
O1449 O 0.44596 0.40021 0.11285 0.0
O1450 O 0.5861 0.55289 0.11936 0.0
O1451 O 0.5801 0.55029 0.27664 0.0
H1452 H 0.45876 0.42366 0.29516 0.0
H1453 H 0.47323 0.40668 0.30338 0.0
H1454 H 0.4519 0.38529 0.30285 0.0
H1455 H 0.45625 0.40322 0.31962 0.0
H1456 H 0.45163 0.43357 0.26681 0.0
H1457 H 0.47876 0.40443 0.25512 0.0
H1458 H 0.48248 0.47526 0.25311 0.0
H1459 H 0.45834 0.46034 0.2514 0.0
H1460 H 0.47196 0.46593 0.23126 0.0
H1461 H 0.50511 0.41684 0.23772 0.0
H1462 H 0.51786 0.44153 0.23636 0.0
H1463 H 0.50273 0.42766 0.21814 0.0
H1464 H 0.59315 0.5399 0.29171 0.0
H1465 H 0.63098 0.58286 0.2786 0.0
H1466 H 0.6074 0.56642 0.30884 0.0
H1467 H 0.59875 0.57626 0.29687 0.0
H1468 H 0.58159 0.52056 0.26588 0.0
H1469 H 0.55227 0.54837 0.26165 0.0
H1470 H 0.54876 0.47807 0.25008 0.0
H1471 H 0.57296 0.49285 0.25021 0.0
H1472 H 0.55994 0.48857 0.22952 0.0
H1473 H 0.52551 0.53615 0.24405 0.0
H1474 H 0.51236 0.51136 0.24307 0.0
H1475 H 0.52552 0.5234 0.22395 0.0
H1476 H 0.60105 0.54515 0.10411 0.0
H1477 H 0.58537 0.52103 0.12326 0.0
H1478 H 0.55666 0.5493 0.13084 0.0
H1479 H 0.56098 0.48626 0.15359 0.0
H1480 H 0.57456 0.49137 0.13349 0.0
H1481 H 0.55031 0.47715 0.13179 0.0
H1482 H 0.52713 0.53471 0.14226 0.0
H1483 H 0.52679 0.52261 0.16208 0.0
H1484 H 0.51446 0.50991 0.14194 0.0
H1485 H 0.42474 0.40178 0.12381 0.0
H1486 H 0.40554 0.36836 0.12753 0.0
H1487 H 0.42712 0.37757 0.13878 0.0
H1488 H 0.42261 0.36482 0.11739 0.0
H1489 H 0.47644 0.40383 0.12127 0.0
H1490 H 0.44634 0.43097 0.12295 0.0
H1491 H 0.50849 0.43072 0.15456 0.0
H1492 H 0.51848 0.4421 0.13394 0.0
H1493 H 0.50575 0.41732 0.13396 0.0
H1494 H 0.45769 0.4603 0.13649 0.0
H1495 H 0.48198 0.4747 0.13661 0.0
H1496 H 0.47072 0.46339 0.15685 0.0
H1497 H 0.51498 0.4769 0.25393 0.0
H1498 H 0.5546 0.51782 0.20917 0.0
H1499 H 0.55541 0.5172 0.17658 0.0
H1500 H 0.51684 0.4755 0.1286 0.0
H1501 H 0.47726 0.43451 0.17348 0.0
H1502 H 0.47673 0.43495 0.20608 0.0
H1503 H 0.6291 0.56379 0.12374 0.0
H1504 H 0.6105 0.54758 0.13692 0.0
H1505 H 0.61715 0.5714 0.13822 0.0
C1506 C 0.42357 0.96541 0.29372 0.0
C1507 C 0.42454 0.98235 0.28591 0.0
C1508 C 0.43935 0.98617 0.25715 0.0
C1509 C 0.45392 0.00432 0.25799 0.0
C1510 C 0.46955 0.00942 0.24798 0.0
C1511 C 0.47063 0.99598 0.23712 0.0
C1512 C 0.45584 0.97764 0.23626 0.0
C1513 C 0.44023 0.97307 0.24604 0.0
C1514 C 0.4849 0.02913 0.24901 0.0
C1515 C 0.45661 0.9628 0.22523 0.0
C1516 C 0.56931 0.01598 0.30169 0.0
C1517 C 0.57222 0.00459 0.28705 0.0
C1518 C 0.56126 0.01083 0.25952 0.0
C1519 C 0.54663 0.99349 0.25426 0.0
C1520 C 0.53242 0.99178 0.24352 0.0
C1521 C 0.53283 0.00777 0.23802 0.0
C1522 C 0.54776 0.02529 0.24307 0.0
C1523 C 0.56195 0.02657 0.25352 0.0
C1524 C 0.51696 0.97288 0.23803 0.0
C1525 C 0.54863 0.04266 0.2376 0.0
C1526 C 0.5648 0.01446 0.12237 0.0
C1527 C 0.54993 0.9975 0.12714 0.0
C1528 C 0.53503 0.99659 0.1357 0.0
C1529 C 0.53504 0.01297 0.13971 0.0
C1530 C 0.54967 0.02998 0.1343 0.0
C1531 C 0.56428 0.03045 0.12548 0.0
C1532 C 0.51935 0.97813 0.14071 0.0
C1533 C 0.55005 0.04767 0.13826 0.0
C1534 C 0.41605 0.01452 0.13068 0.0
C1535 C 0.42664 0.0193 0.11294 0.0
C1536 C 0.44818 0.0095 0.11995 0.0
C1537 C 0.45033 0.99432 0.119 0.0
C1538 C 0.46409 0.99416 0.1289 0.0
C1539 C 0.47637 0.00985 0.13964 0.0
C1540 C 0.47468 0.02554 0.14015 0.0
C1541 C 0.46045 0.0251 0.13055 0.0
C1542 C 0.46537 0.97714 0.12801 0.0
C1543 C 0.48788 0.0428 0.15089 0.0
C1544 C 0.4872 0.00101 0.22674 0.0
C1545 C 0.502 0.00262 0.23616 0.0
C1546 C 0.51761 0.00616 0.22707 0.0
C1547 C 0.51844 0.00786 0.20795 0.0
C1548 C 0.53356 0.01055 0.19825 0.0
C1549 C 0.5342 0.01209 0.17944 0.0
C1550 C 0.51977 0.01105 0.1696 0.0
C1551 C 0.52019 0.01227 0.15044 0.0
C1552 C 0.50596 0.01195 0.14113 0.0
C1553 C 0.49092 0.00985 0.15039 0.0
C1554 C 0.48989 0.00773 0.16948 0.0
C1555 C 0.47462 0.00468 0.17916 0.0
C1556 C 0.47377 0.00264 0.19792 0.0
C1557 C 0.48811 0.00347 0.20773 0.0
C1558 C 0.5037 0.0067 0.19829 0.0
C1559 C 0.50448 0.00857 0.17912 0.0
C1560 C 0.59878 0.01306 0.13581 0.0
C1561 C 0.58743 0.00561 0.11824 0.0
O1562 O 0.42437 0.98103 0.26705 0.0
O1563 O 0.43417 0.00844 0.11042 0.0
O1564 O 0.57967 0.01593 0.11449 0.0
O1565 O 0.57484 0.01272 0.27037 0.0
H1566 H 0.43734 0.99468 0.29094 0.0
H1567 H 0.43551 0.9647 0.28949 0.0
H1568 H 0.41121 0.95266 0.28871 0.0
H1569 H 0.42351 0.96618 0.30884 0.0
H1570 H 0.45298 0.01448 0.26637 0.0
H1571 H 0.42882 0.9591 0.24549 0.0
H1572 H 0.49669 0.02999 0.25597 0.0
H1573 H 0.48127 0.03824 0.25658 0.0
H1574 H 0.48908 0.03427 0.23509 0.0
H1575 H 0.44504 0.94889 0.22793 0.0
H1576 H 0.46933 0.96315 0.22828 0.0
H1577 H 0.45644 0.96524 0.21051 0.0
H1578 H 0.55997 0.9906 0.28642 0.0
H1579 H 0.56738 0.00973 0.31518 0.0
H1580 H 0.55707 0.01644 0.29831 0.0
H1581 H 0.58106 0.03028 0.30259 0.0
H1582 H 0.5464 0.98128 0.25838 0.0
H1583 H 0.57341 0.0399 0.25753 0.0
H1584 H 0.51458 0.97182 0.22308 0.0
H1585 H 0.50447 0.97054 0.24469 0.0
H1586 H 0.51944 0.96188 0.24195 0.0
H1587 H 0.5603 0.05515 0.24405 0.0
H1588 H 0.53603 0.04225 0.24146 0.0
H1589 H 0.54979 0.04374 0.2226 0.0
H1590 H 0.57691 0.99104 0.12013 0.0
H1591 H 0.54969 0.98489 0.12403 0.0
H1592 H 0.57567 0.04343 0.12146 0.0
H1593 H 0.51884 0.97717 0.15575 0.0
H1594 H 0.52042 0.96657 0.13478 0.0
H1595 H 0.50646 0.9766 0.13598 0.0
H1596 H 0.56258 0.05982 0.13345 0.0
H1597 H 0.54897 0.04949 0.15314 0.0
H1598 H 0.53828 0.04705 0.13154 0.0
H1599 H 0.43744 0.03403 0.11354 0.0
H1600 H 0.40977 0.02298 0.13267 0.0
H1601 H 0.42518 0.01732 0.14251 0.0
H1602 H 0.4053 0.99976 0.13038 0.0
H1603 H 0.44089 0.98238 0.11072 0.0
H1604 H 0.45918 0.03708 0.13134 0.0
H1605 H 0.46648 0.97311 0.14195 0.0
H1606 H 0.47772 0.98007 0.12063 0.0
H1607 H 0.45354 0.96538 0.12088 0.0
H1608 H 0.4866 0.05468 0.14743 0.0
H1609 H 0.50194 0.04632 0.14836 0.0
H1610 H 0.48539 0.0405 0.16565 0.0
H1611 H 0.50127 0.00089 0.25077 0.0
H1612 H 0.54504 0.0114 0.20506 0.0
H1613 H 0.5462 0.01414 0.17273 0.0
H1614 H 0.50652 0.01315 0.12646 0.0
H1615 H 0.4631 0.00374 0.17233 0.0
H1616 H 0.4617 0.00039 0.20463 0.0
H1617 H 0.60937 0.02776 0.13466 0.0
H1618 H 0.6053 0.00508 0.13877 0.0
H1619 H 0.59004 0.01182 0.14742 0.0
C1620 C 0.55287 0.98148 0.7182 0.0
C1621 C 0.56644 0.9993 0.72855 0.0
C1622 C 0.55561 0.99839 0.75877 0.0
C1623 C 0.56013 0.01604 0.76472 0.0
C1624 C 0.54862 0.01867 0.77618 0.0
C1625 C 0.53216 0.00326 0.78152 0.0
C1626 C 0.52772 0.98537 0.77568 0.0
C1627 C 0.53967 0.98314 0.76452 0.0
C1628 C 0.55391 0.0379 0.78235 0.0
C1629 C 0.51019 0.96866 0.78089 0.0
C1630 C 0.44858 0.05461 0.76722 0.0
C1631 C 0.44983 0.04434 0.75027 0.0
C1632 C 0.45984 0.02473 0.76355 0.0
C1633 C 0.45418 0.00676 0.76812 0.0
C1634 C 0.46568 0.00264 0.77747 0.0
C1635 C 0.4833 0.01695 0.78248 0.0
C1636 C 0.48928 0.03515 0.77765 0.0
C1637 C 0.47753 0.03886 0.76815 0.0
C1638 C 0.45895 0.98303 0.78217 0.0
C1639 C 0.50803 0.0507 0.78271 0.0
C1640 C 0.45117 0.01328 0.89743 0.0
C1641 C 0.44692 0.99606 0.89 0.0
C1642 C 0.46015 0.99372 0.8815 0.0
C1643 C 0.47798 0.00888 0.88043 0.0
C1644 C 0.48247 0.02601 0.88864 0.0
C1645 C 0.469 0.02793 0.89721 0.0
C1646 C 0.45501 0.97511 0.87335 0.0
C1647 C 0.50137 0.0424 0.88789 0.0
C1648 C 0.57767 0.96812 0.88486 0.0
C1649 C 0.57814 0.98467 0.89429 0.0
C1650 C 0.55019 0.98486 0.89506 0.0
C1651 C 0.53193 0.97186 0.89219 0.0
C1652 C 0.52029 0.97671 0.88431 0.0
C1653 C 0.52707 0.99515 0.8797 0.0
C1654 C 0.54528 0.00862 0.88385 0.0
C1655 C 0.55669 0.00331 0.89139 0.0
C1656 C 0.5009 0.96202 0.88034 0.0
C1657 C 0.55281 0.02854 0.87982 0.0
C1658 C 0.51931 0.00595 0.79262 0.0
C1659 C 0.5077 0.01002 0.78353 0.0
C1660 C 0.49537 0.01291 0.79306 0.0
C1661 C 0.49454 0.01178 0.81223 0.0
C1662 C 0.48245 0.01483 0.82227 0.0
C1663 C 0.48152 0.01339 0.84109 0.0
C1664 C 0.49268 0.00887 0.85064 0.0
C1665 C 0.49157 0.00703 0.86974 0.0
C1666 C 0.50304 0.00278 0.87886 0.0
C1667 C 0.51552 1.00006 0.86935 0.0
C1668 C 0.51663 0.00159 0.85019 0.0
C1669 C 0.52882 0.99868 0.84013 0.0
C1670 C 0.52986 0.00027 0.82132 0.0
C1671 C 0.51854 0.00455 0.81177 0.0
C1672 C 0.5061 0.00747 0.8216 0.0
C1673 C 0.50518 0.00604 0.84083 0.0
C1674 C 0.42117 0.02186 0.88414 0.0
C1675 C 0.42111 0.00928 0.89859 0.0
O1676 O 0.56627 0.99604 0.74691 0.0
O1677 O 0.56126 0.97922 0.90118 0.0
O1678 O 0.43854 0.01617 0.90518 0.0
O1679 O 0.44773 0.0277 0.75493 0.0
H1680 H 0.56223 0.00949 0.72648 0.0
H1681 H 0.53903 0.97666 0.72306 0.0
H1682 H 0.55598 0.97055 0.72038 0.0
H1683 H 0.55314 0.98381 0.70338 0.0
H1684 H 0.57259 0.02772 0.7602 0.0
H1685 H 0.53638 0.96956 0.75977 0.0
H1686 H 0.54447 0.04146 0.77618 0.0
H1687 H 0.56786 0.04823 0.77842 0.0
H1688 H 0.55285 0.03871 0.79737 0.0
H1689 H 0.50842 0.95578 0.77461 0.0
H1690 H 0.49869 0.97007 0.7766 0.0
H1691 H 0.50971 0.96757 0.79591 0.0
H1692 H 0.46317 0.0529 0.74386 0.0
H1693 H 0.44991 0.06777 0.76337 0.0
H1694 H 0.45953 0.05785 0.77717 0.0
H1695 H 0.43545 0.04615 0.774 0.0
H1696 H 0.44057 0.99593 0.76444 0.0
H1697 H 0.48228 0.05283 0.76454 0.0
H1698 H 0.46853 0.97891 0.77728 0.0
H1699 H 0.44539 0.97331 0.77613 0.0
H1700 H 0.4582 0.98185 0.79718 0.0
H1701 H 0.51037 0.06423 0.77874 0.0
H1702 H 0.5181 0.0483 0.77588 0.0
H1703 H 0.51034 0.05116 0.79763 0.0
H1704 H 0.41567 0.99547 0.89197 0.0
H1705 H 0.43339 0.98436 0.89096 0.0
H1706 H 0.47223 0.04106 0.9033 0.0
H1707 H 0.45621 0.97586 0.85832 0.0
H1708 H 0.441 0.96436 0.87663 0.0
H1709 H 0.4644 0.97095 0.8784 0.0
H1710 H 0.50276 0.05473 0.89514 0.0
H1711 H 0.50521 0.04569 0.87348 0.0
H1712 H 0.511 0.0391 0.89408 0.0
H1713 H 0.58172 0.99484 0.88349 0.0
H1714 H 0.59128 0.97203 0.87989 0.0
H1715 H 0.56822 0.96325 0.87298 0.0
H1716 H 0.57299 0.95658 0.89422 0.0
H1717 H 0.527 0.95772 0.89541 0.0
H1718 H 0.57071 0.01351 0.89432 0.0
H1719 H 0.49775 0.96161 0.86563 0.0
H1720 H 0.49186 0.96533 0.88805 0.0
H1721 H 0.49791 0.94819 0.88409 0.0
H1722 H 0.56628 0.03763 0.88632 0.0
H1723 H 0.54349 0.03303 0.88462 0.0
H1724 H 0.55413 0.03022 0.86488 0.0
H1725 H 0.50827 0.01094 0.76883 0.0
H1726 H 0.47351 0.01833 0.81568 0.0
H1727 H 0.47191 0.01586 0.84804 0.0
H1728 H 0.5021 0.00137 0.8935 0.0
H1729 H 0.53774 0.99513 0.84667 0.0
H1730 H 0.53957 0.99798 0.81434 0.0
H1731 H 0.40723 0.01669 0.87904 0.0
H1732 H 0.42944 0.02216 0.87244 0.0
H1733 H 0.42696 0.03611 0.88979 0.0
C1734 C 0.99656 0.55809 0.72645 0.0
C1735 C 0.98921 0.56567 0.74104 0.0
C1736 C 0.99836 0.5573 0.76859 0.0
C1737 C 0.98178 0.5428 0.77441 0.0
C1738 C 0.98107 0.52944 0.78566 0.0
C1739 C 0.99727 0.53054 0.79111 0.0
C1740 C 0.01404 0.54543 0.78565 0.0
C1741 C 0.01435 0.55881 0.77468 0.0
C1742 C 0.96296 0.51396 0.79147 0.0
C1743 C 0.03158 0.54695 0.79096 0.0
C1744 C 0.97089 0.42497 0.72527 0.0
C1745 C 0.98132 0.42214 0.74036 0.0
C1746 C 0.97846 0.43669 0.76807 0.0
C1747 C 0.99657 0.45043 0.77127 0.0
C1748 C 0.00108 0.4662 0.78193 0.0
C1749 C 0.9872 0.46803 0.78985 0.0
C1750 C 0.96897 0.45385 0.78731 0.0
C1751 C 0.96485 0.43825 0.7765 0.0
C1752 C 0.02066 0.48092 0.78474 0.0
C1753 C 0.95389 0.45528 0.79587 0.0
C1754 C 0.00304 0.4452 0.90366 0.0
C1755 C 0.01952 0.4599 0.89777 0.0
C1756 C 0.02026 0.4749 0.88944 0.0
C1757 C 0.00427 0.4753 0.8871 0.0
C1758 C 0.98779 0.46084 0.89359 0.0
C1759 C 0.98742 0.44599 0.90178 0.0
C1760 C 0.03807 0.49017 0.88275 0.0
C1761 C 0.97049 0.46087 0.89144 0.0
C1762 C 0.0201 0.60729 0.88911 0.0
C1763 C 0.01131 0.59551 0.90562 0.0
C1764 C 0.01731 0.57045 0.90421 0.0
C1765 C 0.03191 0.56843 0.89996 0.0
C1766 C 0.02921 0.55191 0.8922 0.0
C1767 C 0.01143 0.53702 0.88898 0.0
C1768 C 0.99661 0.53855 0.8945 0.0
C1769 C 0.9997 0.55527 0.90211 0.0
C1770 C 0.04531 0.55062 0.88669 0.0
C1771 C 0.97749 0.52271 0.89173 0.0
C1772 C 0.99658 0.51556 0.80162 0.0
C1773 C 0.99269 0.49947 0.79201 0.0
C1774 C 0.99175 0.48475 0.80089 0.0
C1775 C 0.99503 0.48605 0.81985 0.0
C1776 C 0.99455 0.47159 0.82907 0.0
C1777 C 0.99779 0.473 0.84775 0.0
C1778 C 0.00146 0.48885 0.85796 0.0
C1779 C 0.00458 0.49033 0.87702 0.0
C1780 C 0.0079 0.50618 0.88679 0.0
C1781 C 0.00828 0.52069 0.87798 0.0
C1782 C 0.00545 0.51957 0.85892 0.0
C1783 C 0.00595 0.53404 0.84963 0.0
C1784 C 0.003 0.53276 0.8309 0.0
C1785 C 0.99952 0.517 0.8207 0.0
C1786 C 0.99887 0.50222 0.8298 0.0
C1787 C 0.00195 0.50355 0.84891 0.0
C1788 C 0.01757 0.4192 0.893 0.0
C1789 C 0.01425 0.42486 0.91197 0.0
O1790 O 0.99934 0.5699 0.75701 0.0
O1791 O 0.02073 0.58712 0.91048 0.0
O1792 O 0.00142 0.42993 0.91098 0.0
O1793 O 0.97369 0.42177 0.75703 0.0
H1794 H 0.97493 0.555 0.74345 0.0
H1795 H 0.99545 0.54524 0.73102 0.0
H1796 H 0.01097 0.56822 0.72386 0.0
H1797 H 0.98868 0.55486 0.71352 0.0
H1798 H 0.96938 0.54194 0.77031 0.0
H1799 H 0.02709 0.57016 0.77025 0.0
H1800 H 0.96007 0.50099 0.78435 0.0
H1801 H 0.95187 0.51639 0.78823 0.0
H1802 H 0.96312 0.51206 0.80634 0.0
H1803 H 0.04337 0.55866 0.78457 0.0
H1804 H 0.03121 0.53408 0.7869 0.0
H1805 H 0.03348 0.5488 0.80597 0.0
H1806 H 0.99544 0.43385 0.73983 0.0
H1807 H 0.97627 0.42434 0.71171 0.0
H1808 H 0.9724 0.43869 0.72724 0.0
H1809 H 0.95629 0.41443 0.7255 0.0
H1810 H 0.00724 0.44883 0.76563 0.0
H1811 H 0.95094 0.42739 0.7742 0.0
H1812 H 0.02414 0.48299 0.7995 0.0
H1813 H 0.02298 0.49414 0.77975 0.0
H1814 H 0.02986 0.47746 0.77755 0.0
H1815 H 0.94043 0.44297 0.79271 0.0
H1816 H 0.9541 0.46757 0.79094 0.0
H1817 H 0.95592 0.45706 0.81088 0.0
H1818 H 0.02708 0.43656 0.91774 0.0
H1819 H 0.03182 0.45971 0.89942 0.0
H1820 H 0.97479 0.43469 0.90649 0.0
H1821 H 0.03725 0.49102 0.86777 0.0
H1822 H 0.0494 0.4881 0.88598 0.0
H1823 H 0.04103 0.50351 0.889 0.0
H1824 H 0.95896 0.44908 0.89804 0.0
H1825 H 0.96721 0.46027 0.87674 0.0
H1826 H 0.9722 0.47383 0.89744 0.0
H1827 H 0.99715 0.58519 0.90164 0.0
H1828 H 0.01286 0.61433 0.88526 0.0
H1829 H 0.01944 0.59843 0.87734 0.0
H1830 H 0.03448 0.61775 0.89209 0.0
H1831 H 0.04546 0.58011 0.90207 0.0
H1832 H 0.98834 0.55638 0.90637 0.0
H1833 H 0.04512 0.54856 0.87168 0.0
H1834 H 0.04459 0.53855 0.89291 0.0
H1835 H 0.05827 0.56314 0.89087 0.0
H1836 H 0.96757 0.52535 0.89859 0.0
H1837 H 0.97611 0.50998 0.897 0.0
H1838 H 0.97414 0.52028 0.87694 0.0
H1839 H 0.9903 0.49835 0.7774 0.0
H1840 H 0.99171 0.45903 0.82194 0.0
H1841 H 0.9973 0.46145 0.85408 0.0
H1842 H 0.01011 0.50719 0.90141 0.0
H1843 H 0.00863 0.54657 0.85672 0.0
H1844 H 0.00348 0.54428 0.82451 0.0
H1845 H 0.02747 0.41466 0.89395 0.0
H1846 H 0.02312 0.4309 0.88378 0.0
H1847 H 0.00479 0.4078 0.88685 0.0
C1848 C 0.54843 0.59401 0.72549 0.0
C1849 C 0.56095 0.59583 0.74124 0.0
C1850 C 0.54043 0.56864 0.75866 0.0
C1851 C 0.52944 0.57516 0.76527 0.0
C1852 C 0.51391 0.56384 0.7752 0.0
C1853 C 0.50945 0.54578 0.77887 0.0
C1854 C 0.52069 0.53932 0.77261 0.0
C1855 C 0.53603 0.55086 0.76256 0.0
C1856 C 0.50219 0.57114 0.78169 0.0
C1857 C 0.51644 0.5202 0.77644 0.0
C1858 C 0.39456 0.46698 0.70982 0.0
C1859 C 0.40095 0.45961 0.72495 0.0
C1860 C 0.41459 0.47687 0.75331 0.0
C1861 C 0.42701 0.47128 0.75628 0.0
C1862 C 0.44207 0.48168 0.76784 0.0
C1863 C 0.44476 0.49801 0.77652 0.0
C1864 C 0.43198 0.50339 0.7739 0.0
C1865 C 0.41688 0.49254 0.76252 0.0
C1866 C 0.45521 0.47532 0.77065 0.0
C1867 C 0.43447 0.52079 0.78281 0.0
C1868 C 0.41138 0.4697 0.89076 0.0
C1869 C 0.42338 0.46451 0.88423 0.0
C1870 C 0.43982 0.47741 0.87659 0.0
C1871 C 0.44418 0.49581 0.87519 0.0
C1872 C 0.43245 0.50123 0.88254 0.0
C1873 C 0.41629 0.48811 0.8905 0.0
C1874 C 0.45232 0.47127 0.86962 0.0
C1875 C 0.4367 0.52074 0.88145 0.0
C1876 C 0.56762 0.62046 0.89039 0.0
C1877 C 0.5575 0.61014 0.90727 0.0
C1878 C 0.53694 0.57824 0.89618 0.0
C1879 C 0.53414 0.56053 0.89538 0.0
C1880 C 0.51922 0.54603 0.88595 0.0
C1881 C 0.50667 0.54936 0.87731 0.0
C1882 C 0.50914 0.56714 0.87844 0.0
C1883 C 0.52435 0.58144 0.88761 0.0
C1884 C 0.51706 0.52728 0.88487 0.0
C1885 C 0.49585 0.57115 0.86966 0.0
C1886 C 0.49294 0.53354 0.78914 0.0
C1887 C 0.47712 0.52174 0.77922 0.0
C1888 C 0.46114 0.50969 0.78798 0.0
C1889 C 0.46089 0.5092 0.8072 0.0
C1890 C 0.44517 0.49695 0.81643 0.0
C1891 C 0.44498 0.49683 0.83536 0.0
C1892 C 0.4605 0.50893 0.8458 0.0
C1893 C 0.46041 0.50903 0.86508 0.0
C1894 C 0.4758 0.52198 0.87501 0.0
C1895 C 0.49149 0.53463 0.86619 0.0
C1896 C 0.49215 0.53401 0.84697 0.0
C1897 C 0.50803 0.54586 0.83772 0.0
C1898 C 0.50841 0.54557 0.8188 0.0
C1899 C 0.49285 0.53359 0.80838 0.0
C1900 C 0.47675 0.52135 0.81743 0.0
C1901 C 0.47649 0.52137 0.83675 0.0
C1902 C 0.36515 0.43702 0.88557 0.0
C1903 C 0.38373 0.43974 0.8896 0.0
O1904 O 0.55522 0.57881 0.74836 0.0
O1905 O 0.55195 0.59171 0.90517 0.0
O1906 O 0.39492 0.45725 0.89715 0.0
O1907 O 0.40042 0.46757 0.7415 0.0
H1908 H 0.56104 0.60527 0.75211 0.0
H1909 H 0.53452 0.58879 0.73027 0.0
H1910 H 0.54793 0.58435 0.71464 0.0
H1911 H 0.55331 0.60761 0.71957 0.0
H1912 H 0.53274 0.58898 0.76268 0.0
H1913 H 0.54461 0.54596 0.75752 0.0
H1914 H 0.48815 0.56197 0.77653 0.0
H1915 H 0.50712 0.58527 0.77716 0.0
H1916 H 0.5018 0.57126 0.7968 0.0
H1917 H 0.52698 0.51754 0.77135 0.0
H1918 H 0.50334 0.50998 0.76985 0.0
H1919 H 0.51506 0.51808 0.79132 0.0
H1920 H 0.41508 0.46378 0.72156 0.0
H1921 H 0.39459 0.46053 0.69644 0.0
H1922 H 0.40381 0.48206 0.70913 0.0
H1923 H 0.38076 0.46421 0.71243 0.0
H1924 H 0.42493 0.4588 0.74958 0.0
H1925 H 0.40709 0.4966 0.76026 0.0
H1926 H 0.45777 0.47517 0.78542 0.0
H1927 H 0.46826 0.48511 0.76441 0.0
H1928 H 0.45025 0.46141 0.76446 0.0
H1929 H 0.42406 0.52378 0.77825 0.0
H1930 H 0.448 0.53261 0.77969 0.0
H1931 H 0.43373 0.51954 0.79781 0.0
H1932 H 0.38886 0.4382 0.87614 0.0
H1933 H 0.41988 0.45036 0.88503 0.0
H1934 H 0.40704 0.49201 0.89586 0.0
H1935 H 0.45202 0.47081 0.8545 0.0
H1936 H 0.44841 0.45743 0.87427 0.0
H1937 H 0.46641 0.48121 0.8742 0.0
H1938 H 0.42569 0.52249 0.88685 0.0
H1939 H 0.43908 0.52498 0.86709 0.0
H1940 H 0.44926 0.53009 0.88936 0.0
H1941 H 0.54563 0.6117 0.90915 0.0
H1942 H 0.57241 0.6353 0.89225 0.0
H1943 H 0.55854 0.615 0.87822 0.0
H1944 H 0.57938 0.61886 0.88782 0.0
H1945 H 0.54388 0.55814 0.90199 0.0
H1946 H 0.52625 0.59502 0.8878 0.0
H1947 H 0.51629 0.52274 0.87039 0.0
H1948 H 0.50424 0.51721 0.8913 0.0
H1949 H 0.52836 0.52709 0.89176 0.0
H1950 H 0.49816 0.58481 0.87411 0.0
H1951 H 0.48182 0.56047 0.87296 0.0
H1952 H 0.49715 0.5709 0.85464 0.0
H1953 H 0.47723 0.52198 0.76446 0.0
H1954 H 0.43282 0.48734 0.80912 0.0
H1955 H 0.43243 0.4872 0.84168 0.0
H1956 H 0.47547 0.5224 0.88977 0.0
H1957 H 0.52039 0.55549 0.84501 0.0
H1958 H 0.52101 0.55501 0.81244 0.0
H1959 H 0.3558 0.42286 0.88001 0.0
H1960 H 0.36641 0.44686 0.87527 0.0
H1961 H 0.3593 0.43946 0.89802 0.0
C1962 C 0.6301 0.74899 0.62696 0.0
C1963 C 0.63873 0.74597 0.60998 0.0
C1964 C 0.64541 0.77254 0.59181 0.0
C1965 C 0.62741 0.76661 0.58712 0.0
C1966 C 0.62319 0.77765 0.57702 0.0
C1967 C 0.63722 0.79485 0.57127 0.0
C1968 C 0.65534 0.80076 0.57573 0.0
C1969 C 0.65917 0.78952 0.58597 0.0
C1970 C 0.60371 0.77098 0.57252 0.0
C1971 C 0.67063 0.81898 0.56971 0.0
C1972 C 0.61123 0.88078 0.63804 0.0
C1973 C 0.62545 0.887 0.62324 0.0
C1974 C 0.61963 0.86945 0.59481 0.0
C1975 C 0.63703 0.87317 0.59098 0.0
C1976 C 0.63961 0.86119 0.57961 0.0
C1977 C 0.62442 0.84503 0.57217 0.0
C1978 C 0.60684 0.84142 0.57583 0.0
C1979 C 0.60471 0.85393 0.58683 0.0
C1980 C 0.65854 0.86568 0.57575 0.0
C1981 C 0.59029 0.82416 0.56849 0.0
C1982 C 0.60945 0.86357 0.45764 0.0
C1983 C 0.62718 0.86843 0.46196 0.0
C1984 C 0.63074 0.85579 0.46981 0.0
C1985 C 0.61624 0.83801 0.47356 0.0
C1986 C 0.59845 0.83281 0.46835 0.0
C1987 C 0.59533 0.84564 0.46021 0.0
C1988 C 0.64995 0.86159 0.47456 0.0
C1989 C 0.58268 0.81394 0.47199 0.0
C1990 C 0.61229 0.71288 0.46173 0.0
C1991 C 0.61124 0.72209 0.44458 0.0
C1992 C 0.62339 0.75439 0.45454 0.0
C1993 C 0.63848 0.77214 0.45419 0.0
C1994 C 0.63878 0.78695 0.46354 0.0
C1995 C 0.62345 0.78393 0.47328 0.0
C1996 C 0.60796 0.76608 0.47339 0.0
C1997 C 0.60815 0.75147 0.46424 0.0
C1998 C 0.65557 0.80577 0.46322 0.0
C1999 C 0.59121 0.76238 0.48337 0.0
C2000 C 0.63296 0.80671 0.56064 0.0
C2001 C 0.63074 0.81986 0.57017 0.0
C2002 C 0.62691 0.83164 0.56104 0.0
C2003 C 0.62532 0.83038 0.54182 0.0
C2004 C 0.62191 0.84228 0.53215 0.0
C2005 C 0.61999 0.84067 0.51328 0.0
C2006 C 0.62154 0.82718 0.5033 0.0
C2007 C 0.61953 0.82539 0.4841 0.0
C2008 C 0.6205 0.81139 0.47468 0.0
C2009 C 0.62376 0.79925 0.48391 0.0
C2010 C 0.62653 0.80131 0.50302 0.0
C2011 C 0.6306 0.78984 0.51264 0.0
C2012 C 0.63287 0.79168 0.53148 0.0
C2013 C 0.63104 0.80497 0.54146 0.0
C2014 C 0.62718 0.81685 0.53202 0.0
C2015 C 0.62513 0.81514 0.51276 0.0
C2016 C 0.59879 0.89722 0.46482 0.0
C2017 C 0.61342 0.89405 0.45717 0.0
O2018 O 0.65015 0.76255 0.602 0.0
O2019 O 0.62423 0.74066 0.44545 0.0
O2020 O 0.60555 0.87587 0.4511 0.0
O2021 O 0.61688 0.88043 0.60642 0.0
H2022 H 0.62794 0.73659 0.60003 0.0
H2023 H 0.62173 0.75485 0.62332 0.0
H2024 H 0.64063 0.75861 0.63696 0.0
H2025 H 0.62123 0.73572 0.63351 0.0
H2026 H 0.61652 0.75346 0.59133 0.0
H2027 H 0.67301 0.79399 0.58957 0.0
H2028 H 0.60028 0.78117 0.57773 0.0
H2029 H 0.5943 0.7575 0.57844 0.0
H2030 H 0.60163 0.76965 0.55752 0.0
H2031 H 0.68403 0.82133 0.57374 0.0
H2032 H 0.66919 0.83025 0.57579 0.0
H2033 H 0.67007 0.81967 0.55468 0.0
H2034 H 0.63377 0.88086 0.62639 0.0
H2035 H 0.61781 0.88597 0.65167 0.0
H2036 H 0.60318 0.86555 0.63804 0.0
H2037 H 0.60192 0.88585 0.63562 0.0
H2038 H 0.64858 0.88546 0.59689 0.0
H2039 H 0.59134 0.85128 0.58984 0.0
H2040 H 0.66014 0.86406 0.56094 0.0
H2041 H 0.66116 0.85596 0.58286 0.0
H2042 H 0.66882 0.87988 0.58044 0.0
H2043 H 0.57768 0.82236 0.57437 0.0
H2044 H 0.59117 0.81194 0.57147 0.0
H2045 H 0.58946 0.82471 0.55349 0.0
H2046 H 0.62309 0.89715 0.46865 0.0
H2047 H 0.63822 0.88212 0.45928 0.0
H2048 H 0.58173 0.84195 0.4565 0.0
H2049 H 0.65188 0.8632 0.48957 0.0
H2050 H 0.65982 0.87481 0.46848 0.0
H2051 H 0.65283 0.85087 0.4698 0.0
H2052 H 0.56962 0.8122 0.46756 0.0
H2053 H 0.58213 0.81138 0.48677 0.0
H2054 H 0.58449 0.80339 0.4647 0.0
H2055 H 0.59759 0.72021 0.44351 0.0
H2056 H 0.60211 0.69794 0.46089 0.0
H2057 H 0.60951 0.71892 0.47399 0.0
H2058 H 0.62592 0.71482 0.4634 0.0
H2059 H 0.65018 0.77432 0.44671 0.0
H2060 H 0.59635 0.73787 0.46489 0.0
H2061 H 0.66017 0.81123 0.47736 0.0
H2062 H 0.65249 0.81531 0.45642 0.0
H2063 H 0.66674 0.80564 0.45591 0.0
H2064 H 0.57951 0.74845 0.48001 0.0
H2065 H 0.58758 0.7727 0.48001 0.0
H2066 H 0.59386 0.76355 0.49827 0.0
H2067 H 0.63199 0.82092 0.58491 0.0
H2068 H 0.62061 0.85294 0.53908 0.0
H2069 H 0.61718 0.85011 0.50664 0.0
H2070 H 0.61854 0.80984 0.46001 0.0
H2071 H 0.63209 0.7793 0.50571 0.0
H2072 H 0.63595 0.78244 0.53814 0.0
H2073 H 0.60477 0.91174 0.46968 0.0
H2074 H 0.59231 0.88826 0.47652 0.0
H2075 H 0.58823 0.89392 0.45431 0.0
C2076 C 0.11973 0.73948 0.64351 0.0
C2077 C 0.1111 0.74581 0.62966 0.0
C2078 C 0.12736 0.75631 0.60157 0.0
C2079 C 0.12604 0.7717 0.59826 0.0
C2080 C 0.13893 0.78594 0.58776 0.0
C2081 C 0.15351 0.78479 0.58062 0.0
C2082 C 0.15469 0.76911 0.58376 0.0
C2083 C 0.14136 0.75489 0.59395 0.0
C2084 C 0.137 0.80221 0.58431 0.0
C2085 C 0.17014 0.76748 0.57657 0.0
C2086 C 0.26637 0.90982 0.63769 0.0
C2087 C 0.25352 0.89156 0.62954 0.0
C2088 C 0.23456 0.87708 0.60262 0.0
C2089 C 0.23425 0.86043 0.60293 0.0
C2090 C 0.22177 0.84513 0.59218 0.0
C2091 C 0.20891 0.84629 0.58135 0.0
C2092 C 0.20898 0.86298 0.58133 0.0
C2093 C 0.22216 0.87829 0.59158 0.0
C2094 C 0.22238 0.82773 0.59241 0.0
C2095 C 0.19507 0.8647 0.57067 0.0
C2096 C 0.238 0.8717 0.4644 0.0
C2097 C 0.24023 0.85708 0.46904 0.0
C2098 C 0.22662 0.84197 0.47811 0.0
C2099 C 0.21052 0.8415 0.48265 0.0
C2100 C 0.20812 0.85601 0.4777 0.0
C2101 C 0.22189 0.87089 0.4686 0.0
C2102 C 0.22953 0.82664 0.48314 0.0
C2103 C 0.1911 0.85593 0.48229 0.0
C2104 C 0.08277 0.70999 0.47191 0.0
C2105 C 0.09125 0.72776 0.4615 0.0
C2106 C 0.12372 0.7497 0.46579 0.0
C2107 C 0.13953 0.74979 0.4697 0.0
C2108 C 0.1545 0.76529 0.47788 0.0
C2109 C 0.15362 0.78114 0.48204 0.0
C2110 C 0.13806 0.78153 0.47709 0.0
C2111 C 0.12327 0.76582 0.4689 0.0
C2112 C 0.17102 0.76455 0.48266 0.0
C2113 C 0.1369 0.79841 0.4809 0.0
C2114 C 0.16758 0.79999 0.56994 0.0
C2115 C 0.18115 0.81551 0.57945 0.0
C2116 C 0.19525 0.83001 0.57031 0.0
C2117 C 0.19598 0.82892 0.5511 0.0
C2118 C 0.21033 0.84281 0.54146 0.0
C2119 C 0.21056 0.84196 0.52252 0.0
C2120 C 0.19656 0.82704 0.51249 0.0
C2121 C 0.19646 0.82622 0.49322 0.0
C2122 C 0.18244 0.81108 0.48366 0.0
C2123 C 0.16833 0.7967 0.49286 0.0
C2124 C 0.16811 0.79735 0.51211 0.0
C2125 C 0.15402 0.78318 0.52177 0.0
C2126 C 0.1538 0.78401 0.54069 0.0
C2127 C 0.16768 0.79903 0.55071 0.0
C2128 C 0.18198 0.81351 0.54127 0.0
C2129 C 0.18225 0.8126 0.52194 0.0
C2130 C 0.28037 0.89829 0.46905 0.0
C2131 C 0.26832 0.89146 0.45187 0.0
O2132 O 0.11537 0.74278 0.61223 0.0
O2133 O 0.10934 0.7339 0.4589 0.0
O2134 O 0.25091 0.88689 0.45608 0.0
O2135 O 0.24654 0.89213 0.6128 0.0
H2136 H 0.11689 0.76077 0.63261 0.0
H2137 H 0.13463 0.74755 0.64224 0.0
H2138 H 0.11504 0.72471 0.64114 0.0
H2139 H 0.11633 0.74166 0.65759 0.0
H2140 H 0.11487 0.77249 0.60385 0.0
H2141 H 0.14214 0.74285 0.59652 0.0
H2142 H 0.14825 0.81468 0.59123 0.0
H2143 H 0.12405 0.80025 0.58936 0.0
H2144 H 0.13785 0.80471 0.5695 0.0
H2145 H 0.17006 0.75533 0.58176 0.0
H2146 H 0.18319 0.78002 0.58046 0.0
H2147 H 0.1693 0.76626 0.56148 0.0
H2148 H 0.24312 0.88202 0.63907 0.0
H2149 H 0.29151 0.91154 0.63852 0.0
H2150 H 0.26307 0.92051 0.63424 0.0
H2151 H 0.26307 0.92051 0.63424 0.0
H2152 H 0.2439 0.85939 0.61132 0.0
H2153 H 0.22248 0.89119 0.59146 0.0
H2154 H 0.21071 0.81726 0.60006 0.0
H2155 H 0.23493 0.83 0.59901 0.0
H2156 H 0.22139 0.8221 0.57834 0.0
H2157 H 0.19444 0.87689 0.57534 0.0
H2158 H 0.18148 0.85225 0.57187 0.0
H2159 H 0.1986 0.86618 0.55606 0.0
H2160 H 0.26815 0.87924 0.44578 0.0
H2161 H 0.25255 0.85737 0.46582 0.0
H2162 H 0.22025 0.88217 0.4649 0.0
H2163 H 0.2295 0.82577 0.49819 0.0
H2164 H 0.24246 0.82864 0.47799 0.0
H2165 H 0.21828 0.81332 0.47754 0.0
H2166 H 0.19125 0.8682 0.47736 0.0
H2167 H 0.18934 0.85548 0.49728 0.0
H2168 H 0.17925 0.84342 0.47613 0.0
H2169 H 0.0895 0.73774 0.47002 0.0
H2170 H 0.06825 0.70476 0.47423 0.0
H2171 H 0.08967 0.71263 0.48537 0.0
H2172 H 0.0841 0.69929 0.46425 0.0
H2173 H 0.13988 0.73741 0.46684 0.0
H2174 H 0.11146 0.76623 0.46496 0.0
H2175 H 0.17288 0.76555 0.49769 0.0
H2176 H 0.18319 0.77643 0.47696 0.0
H2177 H 0.17005 0.75166 0.47746 0.0
H2178 H 0.12417 0.79681 0.47553 0.0
H2179 H 0.14848 0.81046 0.47468 0.0
H2180 H 0.13776 0.80133 0.49582 0.0
H2181 H 0.18075 0.8163 0.5942 0.0
H2182 H 0.22153 0.85459 0.54844 0.0
H2183 H 0.22186 0.85317 0.51586 0.0
H2184 H 0.1824 0.81058 0.46889 0.0
H2185 H 0.14294 0.77127 0.51483 0.0
H2186 H 0.14256 0.77275 0.54735 0.0
H2187 H 0.29439 0.90227 0.46558 0.0
H2188 H 0.27539 0.88734 0.47911 0.0
H2189 H 0.28051 0.91035 0.47549 0.0
C2190 C 0.12814 0.37752 0.63647 0.0
C2191 C 0.11581 0.36978 0.61948 0.0
C2192 C 0.13404 0.36356 0.59798 0.0
C2193 C 0.14692 0.38203 0.5947 0.0
C2194 C 0.16174 0.38658 0.58355 0.0
C2195 C 0.1637 0.37244 0.57545 0.0
C2196 C 0.1506 0.35388 0.57842 0.0
C2197 C 0.13594 0.34971 0.58964 0.0
C2198 C 0.17545 0.40651 0.58056 0.0
C2199 C 0.15224 0.33843 0.56995 0.0
C2200 C 0.26634 0.39472 0.64073 0.0
C2201 C 0.26336 0.38095 0.62521 0.0
C2202 C 0.25362 0.38754 0.59711 0.0
C2203 C 0.23928 0.37012 0.59163 0.0
C2204 C 0.22527 0.36823 0.58047 0.0
C2205 C 0.22563 0.38413 0.57474 0.0
C2206 C 0.24044 0.40173 0.57974 0.0
C2207 C 0.25441 0.40319 0.5907 0.0
C2208 C 0.20993 0.34925 0.57504 0.0
C2209 C 0.24127 0.41896 0.57385 0.0
C2210 C 0.25236 0.38248 0.45803 0.0
C2211 C 0.23732 0.36583 0.46312 0.0
C2212 C 0.22293 0.36555 0.4722 0.0
C2213 C 0.22352 0.38224 0.47609 0.0
C2214 C 0.23827 0.39894 0.47023 0.0
C2215 C 0.25246 0.39881 0.46114 0.0
C2216 C 0.20717 0.34743 0.47786 0.0
C2217 C 0.2392 0.41693 0.47398 0.0
C2218 C 0.10678 0.38738 0.46143 0.0
C2219 C 0.11354 0.38176 0.44461 0.0
C2220 C 0.13337 0.37212 0.45791 0.0
C2221 C 0.13466 0.3569 0.46187 0.0
C2222 C 0.14967 0.3589 0.47131 0.0
C2223 C 0.1638 0.37665 0.47689 0.0
C2224 C 0.16278 0.39218 0.47272 0.0
C2225 C 0.14758 0.38979 0.46329 0.0
C2226 C 0.15035 0.34204 0.4755 0.0
C2227 C 0.17769 0.4113 0.47841 0.0
C2228 C 0.17979 0.37699 0.56446 0.0
C2229 C 0.19505 0.37941 0.57359 0.0
C2230 C 0.21022 0.3823 0.56407 0.0
C2231 C 0.21023 0.38269 0.54486 0.0
C2232 C 0.22498 0.38484 0.53482 0.0
C2233 C 0.22469 0.3848 0.51589 0.0
C2234 C 0.20968 0.38272 0.50627 0.0
C2235 C 0.20908 0.38219 0.48702 0.0
C2236 C 0.19413 0.3805 0.47788 0.0
C2237 C 0.17946 0.3789 0.48747 0.0
C2238 C 0.17958 0.37887 0.50673 0.0
C2239 C 0.16481 0.37667 0.51679 0.0
C2240 C 0.16485 0.37611 0.5357 0.0
C2241 C 0.17976 0.37796 0.54529 0.0
C2242 C 0.19498 0.38063 0.53545 0.0
C2243 C 0.19479 0.38086 0.51614 0.0
C2244 C 0.29049 0.38389 0.46652 0.0
C2245 C 0.27438 0.37288 0.45348 0.0
O2246 O 0.11976 0.35843 0.60917 0.0
O2247 O 0.11819 0.36901 0.44908 0.0
O2248 O 0.26675 0.38331 0.44969 0.0
O2249 O 0.2667 0.38956 0.60875 0.0
H2250 H 0.11784 0.38138 0.61118 0.0
H2251 H 0.14245 0.38612 0.63259 0.0
H2252 H 0.12679 0.36623 0.6448 0.0
H2253 H 0.12461 0.38624 0.64491 0.0
H2254 H 0.14569 0.39302 0.60087 0.0
H2255 H 0.12595 0.33553 0.59216 0.0
H2256 H 0.18878 0.40989 0.58608 0.0
H2257 H 0.17166 0.41592 0.5872 0.0
H2258 H 0.17697 0.409 0.56574 0.0
H2259 H 0.14081 0.32471 0.57344 0.0
H2260 H 0.165 0.33967 0.57465 0.0
H2261 H 0.15278 0.3394 0.55491 0.0
H2262 H 0.24903 0.36959 0.62589 0.0
H2263 H 0.2639 0.38811 0.65408 0.0
H2264 H 0.2568 0.39962 0.6391 0.0
H2265 H 0.28031 0.40678 0.64067 0.0
H2266 H 0.23904 0.35801 0.59614 0.0
H2267 H 0.2657 0.41658 0.59486 0.0
H2268 H 0.2074 0.34813 0.56011 0.0
H2269 H 0.19746 0.34677 0.58184 0.0
H2270 H 0.21263 0.33837 0.57888 0.0
H2271 H 0.25341 0.43161 0.57941 0.0
H2272 H 0.22906 0.41897 0.57842 0.0
H2273 H 0.24143 0.41929 0.55876 0.0
H2274 H 0.26469 0.3601 0.46035 0.0
H2275 H 0.2366 0.35299 0.45986 0.0
H2276 H 0.26396 0.41156 0.4568 0.0
H2277 H 0.2063 0.34736 0.49293 0.0
H2278 H 0.20832 0.33558 0.47307 0.0
H2279 H 0.19442 0.34564 0.47235 0.0
H2280 H 0.25141 0.4287 0.46819 0.0
H2281 H 0.23925 0.41944 0.48891 0.0
H2282 H 0.22706 0.41626 0.46812 0.0
H2283 H 0.1255 0.39412 0.4392 0.0
H2284 H 0.10282 0.39739 0.45776 0.0
H2285 H 0.11752 0.39397 0.47211 0.0
H2286 H 0.09496 0.37518 0.46722 0.0
H2287 H 0.1237 0.34334 0.45765 0.0
H2288 H 0.14692 0.40179 0.46033 0.0
H2289 H 0.15149 0.34127 0.49045 0.0
H2290 H 0.16248 0.34299 0.46932 0.0
H2291 H 0.13821 0.32918 0.4703 0.0
H2292 H 0.17516 0.42204 0.4737 0.0
H2293 H 0.1907 0.4139 0.47285 0.0
H2294 H 0.17912 0.41251 0.49349 0.0
H2295 H 0.19498 0.37869 0.58831 0.0
H2296 H 0.23686 0.38643 0.54147 0.0
H2297 H 0.2364 0.38641 0.5089 0.0
H2298 H 0.19376 0.38007 0.4631 0.0
H2299 H 0.15295 0.37516 0.51015 0.0
H2300 H 0.15305 0.37422 0.54273 0.0
H2301 H 0.29689 0.37583 0.46963 0.0
H2302 H 0.2859 0.38707 0.4795 0.0
H2303 H 0.30069 0.39703 0.46052 0.0
H2304 H 0.01075 0.37089 0.05314 0.0
H2305 H 0.95273 0.33916 0.05674 0.0
H2306 H 0.95417 0.35838 0.08294 0.0
H2307 H 0.972 0.3842 0.10482 0.0
H2308 H 0.02985 0.41648 0.10016 0.0
H2309 H 0.02838 0.39692 0.07433 0.0
C2310 C 0.99838 0.36808 0.05966 0.0
C2311 C 0.98165 0.35352 0.05302 0.0
C2312 C 0.9993 0.37926 0.07453 0.0
C2313 C 0.96578 0.35028 0.06155 0.0
C2314 C 0.9666 0.36124 0.07654 0.0
C2315 C 0.98427 0.38691 0.09814 0.0
C2316 C 0.00103 0.40161 0.10451 0.0
C2317 C 0.98329 0.37577 0.08314 0.0
C2318 C 0.01682 0.4051 0.09563 0.0
C2319 C 0.01598 0.39397 0.08085 0.0
H2320 H 0.62743 0.63187 0.07553 0.0
H2321 H 0.64611 0.60813 0.03484 0.0
H2322 H 0.63623 0.58132 0.05344 0.0
H2323 H 0.62076 0.5639 0.08069 0.0
H2324 H 0.60268 0.58834 0.12121 0.0
H2325 H 0.61386 0.6156 0.10322 0.0
C2326 C 0.62941 0.62088 0.0707 0.0
C2327 C 0.63732 0.62194 0.05371 0.0
C2328 C 0.62367 0.60554 0.08139 0.0
C2329 C 0.64002 0.60767 0.04785 0.0
C2330 C 0.63431 0.59229 0.05844 0.0
C2331 C 0.61929 0.57522 0.08552 0.0
C2332 C 0.61047 0.5739 0.10199 0.0
C2333 C 0.62586 0.59095 0.07512 0.0
C2334 C 0.60905 0.58885 0.10836 0.0
C2335 C 0.61548 0.60446 0.09812 0.0
H2336 H 0.37482 0.01885 0.0514 0.0
H2337 H 0.36211 0.96281 0.04433 0.0
H2338 H 0.38375 0.96792 0.06822 0.0
H2339 H 0.40569 0.98786 0.09182 0.0
H2340 H 0.41868 0.04385 0.0993 0.0
H2341 H 0.39742 0.03912 0.07482 0.0
C2342 C 0.37685 0.00779 0.05503 0.0
C2343 C 0.36672 0.99045 0.04609 0.0
C2344 C 0.38935 0.01077 0.06894 0.0
C2345 C 0.36952 0.97627 0.05106 0.0
C2346 C 0.38195 0.97916 0.06473 0.0
C2347 C 0.40409 0.99912 0.08791 0.0
C2348 C 0.41412 0.01634 0.09706 0.0
C2349 C 0.39186 0.9963 0.07385 0.0
C2350 C 0.41143 0.0306 0.09217 0.0
C2351 C 0.39923 0.02788 0.07822 0.0
H2352 H 0.37894 0.01515 0.96674 0.0
H2353 H 0.34107 0.95909 0.94918 0.0
H2354 H 0.36026 0.96191 0.92363 0.0
H2355 H 0.38823 0.97991 0.9068 0.0
H2356 H 0.42668 0.03554 0.92487 0.0
H2357 H 0.40684 0.03329 0.9497 0.0
C2358 C 0.37479 0.0036 0.95723 0.0
C2359 C 0.35857 0.98693 0.95989 0.0
C2360 C 0.38608 0.00519 0.94275 0.0
C2361 C 0.35351 0.97205 0.94751 0.0
C2362 C 0.36449 0.97364 0.9329 0.0
C2363 C 0.39228 0.99151 0.91622 0.0
C2364 C 0.40897 0.00781 0.91413 0.0
C2365 C 0.38089 0.99006 0.93051 0.0
C2366 C 0.41396 0.02281 0.92632 0.0
C2367 C 0.40261 0.02153 0.94047 0.0
H2368 H 0.97473 0.35274 0.95745 0.0
H2369 H 0.02867 0.37497 0.97914 0.0
H2370 H 0.03977 0.40093 0.95911 0.0
H2371 H 0.03389 0.41788 0.93608 0.0
H2372 H 0.97984 0.39522 0.91474 0.0
H2373 H 0.96905 0.36892 0.93411 0.0
C2374 C 0.98896 0.36317 0.9578 0.0
C2375 C 0.0008 0.36185 0.96991 0.0
C2376 C 0.9952 0.37813 0.94644 0.0
C2377 C 0.0192 0.37555 0.96999 0.0
C2378 C 0.02556 0.39047 0.95858 0.0
C2379 C 0.01974 0.40723 0.93582 0.0
C2380 C 0.0076 0.40878 0.92438 0.0
C2381 C 0.01363 0.39201 0.94691 0.0
C2382 C 0.98937 0.39461 0.92376 0.0
C2383 C 0.98322 0.37951 0.93475 0.0
H2384 H 0.59979 0.64959 0.98073 0.0
H2385 H 0.63283 0.62802 0.96237 0.0
H2386 H 0.61354 0.61427 0.93524 0.0
H2387 H 0.5871 0.60826 0.91677 0.0
H2388 H 0.55481 0.63059 0.93522 0.0
H2389 H 0.57401 0.64409 0.96234 0.0
C2390 C 0.60282 0.64186 0.97086 0.0
C2391 C 0.61773 0.63981 0.97369 0.0
C2392 C 0.59177 0.63407 0.9553 0.0
C2393 C 0.62145 0.62983 0.96059 0.0
C2394 C 0.61041 0.62194 0.94507 0.0
C2395 C 0.5843 0.61607 0.92679 0.0
C2396 C 0.56946 0.61827 0.92409 0.0
C2397 C 0.59551 0.62395 0.9423 0.0
C2398 C 0.56604 0.62855 0.93706 0.0
C2399 C 0.57703 0.6363 0.95255 0.0
H2400 H 0.99862 0.63824 0.97037 0.0
H2401 H 0.05569 0.6605 0.9788 0.0
H2402 H 0.05597 0.64256 0.95237 0.0
H2403 H 0.03987 0.61991 0.92734 0.0
H2404 H 0.98289 0.59762 0.9191 0.0
H2405 H 0.98275 0.61628 0.94502 0.0
C2406 C 0.01117 0.63925 0.96645 0.0
C2407 C 0.0271 0.65068 0.97667 0.0
C2408 C 0.01124 0.62883 0.95131 0.0
C2409 C 0.04321 0.65181 0.97125 0.0
C2410 C 0.04339 0.64153 0.95614 0.0
C2411 C 0.02744 0.61915 0.93129 0.0
C2412 C 0.01136 0.60722 0.92154 0.0
C2413 C 0.02746 0.62989 0.94618 0.0
C2414 C 0.99538 0.60653 0.92656 0.0
C2415 C 0.9953 0.61721 0.94134 0.0
H2416 H 0.38013 0.37378 0.93109 0.0
H2417 H 0.35582 0.39136 0.97194 0.0
H2418 H 0.36025 0.41628 0.95288 0.0
H2419 H 0.37087 0.43303 0.92447 0.0
H2420 H 0.39375 0.41442 0.88311 0.0
H2421 H 0.39041 0.39024 0.90268 0.0
C2422 C 0.3758 0.38305 0.93586 0.0
C2423 C 0.36764 0.38064 0.95295 0.0
C2424 C 0.37823 0.39727 0.92478 0.0
C2425 C 0.36205 0.39278 0.95882 0.0
C2426 C 0.36463 0.40711 0.94796 0.0
C2427 C 0.37505 0.42362 0.91974 0.0
C2428 C 0.38237 0.4254 0.90229 0.0
C2429 C 0.37268 0.40946 0.93089 0.0
C2430 C 0.38798 0.41328 0.89644 0.0
C2431 C 0.38603 0.39942 0.9076 0.0
H2432 H 0.64421 0.03049 0.94918 0.0
H2433 H 0.61934 0.97841 0.97531 0.0
H2434 H 0.59522 0.96511 0.95226 0.0
H2435 H 0.5811 0.96827 0.92467 0.0
H2436 H 0.60673 0.01998 0.89795 0.0
H2437 H 0.6304 0.03351 0.92148 0.0
C2438 C 0.63353 0.01623 0.94987 0.0
C2439 C 0.63364 0.00551 0.96401 0.0
C2440 C 0.61975 0.00861 0.93652 0.0
C2441 C 0.61969 0.987 0.96457 0.0
C2442 C 0.60583 0.97938 0.95142 0.0
C2443 C 0.59194 0.98246 0.92395 0.0
C2444 C 0.59229 0.99302 0.90942 0.0
C2445 C 0.60572 0.99006 0.93733 0.0
C2446 C 0.60623 0.01151 0.90889 0.0
C2447 C 0.61979 0.01925 0.92232 0.0
H2448 H 0.63118 0.99568 0.05424 0.0
H2449 H 0.65141 0.05362 0.04986 0.0
H2450 H 0.63312 0.05272 0.07547 0.0
H2451 H 0.61093 0.03543 0.09884 0.0
H2452 H 0.59055 0.97757 0.10311 0.0
H2453 H 0.60943 0.97855 0.07789 0.0
C2454 C 0.63166 0.00815 0.05889 0.0
C2455 C 0.64266 0.02467 0.05002 0.0
C2456 C 0.62101 0.00755 0.07358 0.0
C2457 C 0.64307 0.04067 0.05634 0.0
C2458 C 0.63259 0.04019 0.071 0.0
C2459 C 0.61056 0.02303 0.09413 0.0
C2460 C 0.59908 0.00637 0.10254 0.0
C2461 C 0.62142 0.02369 0.07963 0.0
C2462 C 0.59903 0.99048 0.09662 0.0
C2463 C 0.60985 0.99104 0.08225 0.0
H2464 H 0.98613 0.61965 0.04752 0.0
H2465 H 0.03076 0.65875 0.08201 0.0
H2466 H 0.02173 0.63606 0.10537 0.0
H2467 H 0.00139 0.6051 0.11602 0.0
H2468 H 0.95723 0.56546 0.08156 0.0
H2469 H 0.96585 0.5883 0.05816 0.0
C2470 C 0.99379 0.62322 0.0602 0.0
C2471 C 0.00909 0.64088 0.063 0.0
C2472 C 0.9887 0.60996 0.07352 0.0
C2473 C 0.01899 0.64523 0.07944 0.0
C2474 C 0.01384 0.63227 0.09283 0.0
C2475 C 0.99374 0.60143 0.10333 0.0
C2476 C 0.97882 0.58359 0.10044 0.0
C2477 C 0.9988 0.61458 0.08998 0.0
C2478 C 0.96889 0.57908 0.084 0.0
C2479 C 0.97377 0.59214 0.07067 0.0
H2480 H 0.37521 0.37252 0.04692 0.0
H2481 H 0.41431 0.36157 0.02265 0.0
H2482 H 0.43217 0.3719 0.05072 0.0
H2483 H 0.43588 0.38223 0.08272 0.0
H2484 H 0.39719 0.39343 0.10726 0.0
H2485 H 0.37994 0.3847 0.07855 0.0
C2486 C 0.38773 0.37256 0.04768 0.0
C2487 C 0.39328 0.36613 0.03264 0.0
C2488 C 0.39799 0.37848 0.06396 0.0
C2489 C 0.40958 0.36633 0.03396 0.0
C2490 C 0.41985 0.37222 0.05005 0.0
C2491 C 0.42387 0.3831 0.08169 0.0
C2492 C 0.418 0.38881 0.09699 0.0
C2493 C 0.41406 0.37806 0.0652 0.0
C2494 C 0.40213 0.38938 0.09556 0.0
C2495 C 0.39224 0.38433 0.07919 0.0
H2496 H 0.60939 0.6779 0.37271 0.0
H2497 H 0.66617 0.704 0.3859 0.0
H2498 H 0.66223 0.71915 0.41274 0.0
H2499 H 0.64263 0.72512 0.43249 0.0
H2500 H 0.58586 0.69841 0.41944 0.0
H2501 H 0.58986 0.68339 0.39254 0.0
C2502 C 0.62095 0.68693 0.38139 0.0
C2503 C 0.63806 0.68983 0.37716 0.0
C2504 C 0.6186 0.69554 0.39685 0.0
C2505 C 0.65282 0.70148 0.38875 0.0
C2506 C 0.6506 0.71019 0.40412 0.0
C2507 C 0.63119 0.71608 0.42367 0.0
C2508 C 0.61403 0.71312 0.42778 0.0
C2509 C 0.63356 0.70736 0.40828 0.0
C2510 C 0.59924 0.70112 0.41643 0.0
C2511 C 0.60151 0.6925 0.40107 0.0
H2512 H 0.30632 0.94835 0.38939 0.0
H2513 H 0.28058 0.97405 0.41711 0.0
H2514 H 0.26807 0.94982 0.4391 0.0
H2515 H 0.26442 0.92135 0.45058 0.0
H2516 H 0.28978 0.89541 0.42281 0.0
H2517 H 0.30258 0.91982 0.40081 0.0
C2518 C 0.298 0.9487 0.40024 0.0
C2519 C 0.29442 0.96305 0.40152 0.0
C2520 C 0.29074 0.93465 0.41283 0.0
C2521 C 0.28355 0.96319 0.4157 0.0
C2522 C 0.27638 0.94933 0.42833 0.0
C2523 C 0.27259 0.92096 0.43959 0.0
C2524 C 0.27582 0.90638 0.43806 0.0
C2525 C 0.27985 0.93498 0.427 0.0
C2526 C 0.28684 0.90631 0.42404 0.0
C2527 C 0.29419 0.92028 0.41152 0.0
H2528 H 0.05783 0.36021 0.37906 0.0
H2529 H 0.0314 0.30845 0.40588 0.0
H2530 H 0.05532 0.32113 0.42914 0.0
H2531 H 0.08377 0.34695 0.44193 0.0
H2532 H 0.11016 0.39851 0.41496 0.0
H2533 H 0.08617 0.38587 0.39172 0.0
C2534 C 0.05723 0.35166 0.38999 0.0
C2535 C 0.04277 0.33337 0.39066 0.0
C2536 C 0.07107 0.35899 0.40328 0.0
C2537 C 0.04234 0.32256 0.40495 0.0
C2538 C 0.05602 0.32979 0.41829 0.0
C2539 C 0.08433 0.35533 0.43085 0.0
C2540 C 0.09891 0.37352 0.42994 0.0
C2541 C 0.07048 0.34797 0.41755 0.0
C2542 C 0.09925 0.38438 0.41576 0.0
C2543 C 0.08551 0.37718 0.40252 0.0
H2544 H 0.02098 0.28178 0.30784 0.0
H2545 H 0.04466 0.33935 0.2975 0.0
H2546 H 0.06006 0.336 0.27109 0.0
H2547 H 0.06649 0.31649 0.25063 0.0
H2548 H 0.04217 0.25894 0.26112 0.0
H2549 H 0.02741 0.26257 0.28783 0.0
C2550 C 0.0295 0.29366 0.29987 0.0
C2551 C 0.03159 0.3108 0.30473 0.0
C2552 C 0.03828 0.29164 0.28473 0.0
C2553 C 0.04274 0.32597 0.29413 0.0
C2554 C 0.05158 0.32408 0.27901 0.0
C2555 C 0.05806 0.30482 0.25888 0.0
C2556 C 0.05561 0.28752 0.25402 0.0
C2557 C 0.04943 0.30696 0.27417 0.0
C2558 C 0.04445 0.27243 0.26468 0.0
C2559 C 0.03595 0.27448 0.27991 0.0
H2560 H 0.6953 0.72032 0.31179 0.0
H2561 H 0.64878 0.69343 0.27559 0.0
H2562 H 0.66299 0.71898 0.25533 0.0
H2563 H 0.68813 0.74934 0.24806 0.0
H2564 H 0.73482 0.77672 0.28374 0.0
H2565 H 0.7211 0.75069 0.30392 0.0
C2566 C 0.68835 0.71998 0.29939 0.0
C2567 C 0.67093 0.70493 0.29535 0.0
C2568 C 0.69656 0.73491 0.28773 0.0
C2569 C 0.66213 0.70481 0.2792 0.0
C2570 C 0.67023 0.71946 0.26755 0.0
C2571 C 0.69525 0.74964 0.26032 0.0
C2572 C 0.7123 0.76508 0.26458 0.0
C2573 C 0.68733 0.73465 0.27177 0.0
C2574 C 0.72153 0.76512 0.28032 0.0
C2575 C 0.71373 0.75021 0.29182 0.0
H2576 H 0.27557 0.99387 0.31553 0.0
H2577 H 0.30028 0.96102 0.31111 0.0
H2578 H 0.28327 0.94641 0.28288 0.0
H2579 H 0.261 0.94268 0.25964 0.0
H2580 H 0.23707 0.97619 0.26393 0.0
H2581 H 0.25408 0.99073 0.29213 0.0
C2582 C 0.27727 0.98351 0.30844 0.0
C2583 C 0.28916 0.97853 0.31552 0.0
C2584 C 0.26754 0.97524 0.2922 0.0
C2585 C 0.29125 0.96516 0.306 0.0
C2586 C 0.28149 0.95676 0.28986 0.0
C2587 C 0.25962 0.95323 0.26673 0.0
C2588 C 0.24782 0.95837 0.2597 0.0
C2589 C 0.26957 0.96166 0.28287 0.0
C2590 C 0.24605 0.972 0.26906 0.0
C2591 C 0.25578 0.98032 0.28517 0.0
H2592 H 0.7143 0.97085 0.32417 0.0
H2593 H 0.66249 0.95952 0.30444 0.0
H2594 H 0.66778 0.94911 0.27493 0.0
H2595 H 0.68866 0.94648 0.2538 0.0
H2596 H 0.74106 0.95984 0.27363 0.0
H2597 H 0.73399 0.96622 0.30405 0.0
C2598 C 0.70403 0.96595 0.31351 0.0
C2599 C 0.68812 0.96621 0.31647 0.0
C2600 C 0.70734 0.96044 0.29654 0.0
C2601 C 0.67489 0.95952 0.30255 0.0
C2602 C 0.67795 0.95367 0.28563 0.0
C2603 C 0.69834 0.95044 0.26491 0.0
C2604 C 0.71523 0.9524 0.26153 0.0
C2605 C 0.69435 0.95455 0.28233 0.0
C2606 C 0.72786 0.95792 0.27592 0.0
C2607 C 0.72386 0.96167 0.2933 0.0
H2608 H 0.04971 0.71583 0.27873 0.0
H2609 H 0.02573 0.73573 0.3176 0.0
H2610 H 0.03215 0.76088 0.29791 0.0
H2611 H 0.04376 0.77676 0.26919 0.0
H2612 H 0.06643 0.75598 0.22986 0.0
H2613 H 0.06167 0.73189 0.25036 0.0
C2614 C 0.04594 0.7257 0.28299 0.0
C2615 C 0.0372 0.7238 0.29965 0.0
C2616 C 0.04949 0.74003 0.27152 0.0
C2617 C 0.03241 0.73675 0.30484 0.0
C2618 C 0.0361 0.75119 0.29359 0.0
C2619 C 0.04764 0.76694 0.26514 0.0
C2620 C 0.05524 0.76802 0.24794 0.0
C2621 C 0.0445 0.75288 0.27684 0.0
C2622 C 0.06044 0.75536 0.24296 0.0
C2623 C 0.05768 0.74157 0.25466 0.0
H2624 H 0.27536 0.31181 0.30591 0.0
H2625 H 0.3076 0.35618 0.27024 0.0
H2626 H 0.28512 0.34059 0.24589 0.0
H2627 H 0.25691 0.31383 0.23424 0.0
H2628 H 0.22426 0.2697 0.26982 0.0
H2629 H 0.24623 0.28576 0.29472 0.0
C2630 C 0.27746 0.31809 0.29283 0.0
C2631 C 0.29323 0.33511 0.28992 0.0
C2632 C 0.26439 0.30911 0.27886 0.0
C2633 C 0.29561 0.34312 0.27291 0.0
C2634 C 0.28276 0.3342 0.25893 0.0
C2635 C 0.25453 0.30784 0.24751 0.0
C2636 C 0.23901 0.29062 0.2502 0.0
C2637 C 0.26719 0.31714 0.26171 0.0
C2638 C 0.2361 0.28297 0.26746 0.0
C2639 C 0.24868 0.29211 0.28165 0.0
H2640 H 0.29769 0.34114 0.38655 0.0
H2641 H 0.31872 0.39637 0.36873 0.0
H2642 H 0.30727 0.40371 0.39587 0.0
H2643 H 0.29189 0.39485 0.42506 0.0
H2644 H 0.27094 0.33991 0.44324 0.0
H2645 H 0.28179 0.33211 0.41564 0.0
C2646 C 0.29971 0.35476 0.38854 0.0
C2647 C 0.30911 0.36814 0.37553 0.0
C2648 C 0.29311 0.35898 0.40428 0.0
C2649 C 0.3116 0.38574 0.37845 0.0
C2650 C 0.30505 0.39 0.39401 0.0
C2651 C 0.28954 0.38111 0.42286 0.0
C2652 C 0.28037 0.36788 0.436 0.0
C2653 C 0.29586 0.37677 0.40704 0.0
C2654 C 0.27774 0.35025 0.43318 0.0
C2655 C 0.28398 0.3458 0.41744 0.0
H2656 H 0.64099 0.94315 0.38772 0.0
H2657 H 0.6883 0.97418 0.42229 0.0
H2658 H 0.67384 0.952 0.44613 0.0
H2659 H 0.64751 0.92411 0.45743 0.0
H2660 H 0.60055 0.8927 0.42264 0.0
H2661 H 0.61515 0.91467 0.39856 0.0
C2662 C 0.64813 0.94511 0.40049 0.0
C2663 C 0.66567 0.9604 0.40324 0.0
C2664 C 0.63983 0.93219 0.41406 0.0
C2665 C 0.6748 0.96256 0.41979 0.0
C2666 C 0.66654 0.94988 0.43345 0.0
C2667 C 0.64056 0.92201 0.4445 0.0
C2668 C 0.62302 0.90679 0.44177 0.0
C2669 C 0.64905 0.93467 0.43075 0.0
C2670 C 0.61411 0.90427 0.425 0.0
C2671 C 0.62242 0.91686 0.41128 0.0
H2672 H 0.04016 0.71231 0.39302 0.0
H2673 H 0.07281 0.6918 0.37057 0.0
H2674 H 0.09062 0.70077 0.3986 0.0
H2675 H 0.09627 0.71316 0.42997 0.0
H2676 H 0.06404 0.73381 0.45277 0.0
H2677 H 0.04674 0.72601 0.42417 0.0
C2678 C 0.05123 0.70989 0.3942 0.0
C2679 C 0.05501 0.70129 0.37964 0.0
C2680 C 0.06152 0.71508 0.41045 0.0
C2681 C 0.06947 0.69833 0.38149 0.0
C2682 C 0.07972 0.70344 0.39756 0.0
C2683 C 0.08566 0.71623 0.42856 0.0
C2684 C 0.08164 0.72434 0.44333 0.0
C2685 C 0.07577 0.71167 0.41216 0.0
C2686 C 0.06755 0.72783 0.44147 0.0
C2687 C 0.05762 0.72331 0.42517 0.0
H2688 H 0.28622 0.01638 0.71214 0.0
H2689 H 0.34415 0.05208 0.71313 0.0
H2690 H 0.34231 0.06864 0.74002 0.0
H2691 H 0.32418 0.07297 0.76332 0.0
H2692 H 0.26643 0.03654 0.76262 0.0
H2693 H 0.26829 0.02036 0.73547 0.0
C2694 C 0.29847 0.02782 0.71816 0.0
C2695 C 0.31529 0.03299 0.71054 0.0
C2696 C 0.29735 0.03718 0.73368 0.0
C2697 C 0.33101 0.04776 0.71869 0.0
C2698 C 0.32998 0.05727 0.73407 0.0
C2699 C 0.31203 0.06147 0.7572 0.0
C2700 C 0.29519 0.05599 0.76493 0.0
C2701 C 0.31322 0.05209 0.74168 0.0
C2702 C 0.27954 0.04107 0.75689 0.0
C2703 C 0.28059 0.0318 0.74138 0.0
H2704 H 0.98173 0.28339 0.71305 0.0
H2705 H 0.92913 0.27749 0.71317 0.0
H2706 H 0.91846 0.2528 0.73431 0.0
H2707 H 0.92423 0.23426 0.75403 0.0
H2708 H 0.97629 0.23889 0.75429 0.0
H2709 H 0.98687 0.26263 0.7317 0.0
C2710 C 0.9679 0.27655 0.71757 0.0
C2711 C 0.95636 0.2825 0.7117 0.0
C2712 C 0.96177 0.26231 0.72999 0.0
C2713 C 0.93844 0.27344 0.71767 0.0
C2714 C 0.93227 0.25927 0.72977 0.0
C2715 C 0.93797 0.2404 0.74938 0.0
C2716 C 0.94966 0.23522 0.75665 0.0
C2717 C 0.9439 0.25386 0.73631 0.0
C2718 C 0.96714 0.24303 0.74956 0.0
C2719 C 0.97319 0.25655 0.73652 0.0
H2720 H 0.72517 0.66137 0.71789 0.0
H2721 H 0.7175 0.70701 0.7094 0.0
H2722 H 0.74572 0.72979 0.72438 0.0
H2723 H 0.77854 0.74085 0.74484 0.0
H2724 H 0.78915 0.68715 0.7525 0.0
H2725 H 0.75539 0.66356 0.73315 0.0
C2726 C 0.72996 0.67585 0.71983 0.0
C2727 C 0.71987 0.68325 0.71314 0.0
C2728 C 0.74644 0.68694 0.7284 0.0
C2729 C 0.72591 0.70226 0.71489 0.0
C2730 C 0.74215 0.71558 0.7235 0.0
C2731 C 0.77479 0.72678 0.74187 0.0
C2732 C 0.78579 0.71587 0.75363 0.0
C2733 C 0.75367 0.71065 0.73073 0.0
C2734 C 0.78146 0.69262 0.74685 0.0
C2735 C 0.7601 0.67795 0.73558 0.0
H2736 H 0.67993 0.63836 0.61917 0.0
H2737 H 0.71896 0.64144 0.65797 0.0
H2738 H 0.73465 0.63306 0.63595 0.0
H2739 H 0.73979 0.62206 0.60017 0.0
H2740 H 0.69149 0.61442 0.55395 0.0
H2741 H 0.67605 0.62576 0.58278 0.0
C2742 C 0.69172 0.63742 0.62175 0.0
C2743 C 0.69902 0.64038 0.63954 0.0
C2744 C 0.6987 0.63195 0.60763 0.0
C2745 C 0.71414 0.63889 0.64395 0.0
C2746 C 0.72332 0.63405 0.63145 0.0
C2747 C 0.72762 0.62213 0.59707 0.0
C2748 C 0.71931 0.62029 0.57327 0.0
C2749 C 0.71754 0.62994 0.61355 0.0
C2750 C 0.69681 0.61703 0.56775 0.0
C2751 C 0.68796 0.6251 0.58546 0.0
H2752 H 0.36102 0.05522 0.63526 0.0
H2753 H 0.30838 0.02779 0.6092 0.0
H2754 H 0.31964 0.0509 0.58598 0.0
H2755 H 0.3444 0.0791 0.57317 0.0
H2756 H 0.39685 0.10653 0.59943 0.0
H2757 H 0.38569 0.08316 0.62243 0.0
C2758 C 0.35198 0.0542 0.62448 0.0
C2759 C 0.33384 0.03973 0.62405 0.0
C2760 C 0.35849 0.06761 0.61124 0.0
C2761 C 0.32238 0.03876 0.60995 0.0
C2762 C 0.32881 0.05199 0.59665 0.0
C2763 C 0.35332 0.08002 0.58404 0.0
C2764 C 0.37133 0.09474 0.58483 0.0
C2765 C 0.34681 0.06653 0.59721 0.0
C2766 C 0.38286 0.09552 0.59873 0.0
C2767 C 0.3765 0.08213 0.61183 0.0
H2768 H 0.95905 0.28821 0.62687 0.0
H2769 H 0.94993 0.33344 0.62662 0.0
H2770 H 0.93368 0.32209 0.5976 0.0
H2771 H 0.9199 0.29805 0.57361 0.0
H2772 H 0.92759 0.25194 0.57412 0.0
H2773 H 0.94661 0.26488 0.60161 0.0
C2774 C 0.95376 0.2957 0.62026 0.0
C2775 C 0.95556 0.31154 0.62888 0.0
C2776 C 0.94398 0.28882 0.60375 0.0
C2777 C 0.94854 0.32109 0.62029 0.0
C2778 C 0.93923 0.31461 0.60372 0.0
C2779 C 0.92581 0.29089 0.57971 0.0
C2780 C 0.92213 0.27395 0.57207 0.0
C2781 C 0.93648 0.29826 0.59556 0.0
C2782 C 0.93008 0.26492 0.57994 0.0
C2783 C 0.94095 0.2723 0.59562 0.0
H2784 H 0.3805 0.31218 0.64663 0.0
H2785 H 0.3261 0.29679 0.63183 0.0
H2786 H 0.32861 0.28336 0.60292 0.0
H2787 H 0.34653 0.27652 0.58155 0.0
H2788 H 0.40108 0.29274 0.5963 0.0
H2789 H 0.39821 0.30533 0.62556 0.0
C2790 C 0.36912 0.30583 0.63717 0.0
C2791 C 0.35312 0.30551 0.64149 0.0
C2792 C 0.37068 0.29826 0.62055 0.0
C2793 C 0.33858 0.29725 0.62893 0.0
C2794 C 0.34 0.28957 0.61236 0.0
C2795 C 0.35769 0.28266 0.59128 0.0
C2796 C 0.37384 0.28333 0.58695 0.0
C2797 C 0.35601 0.29005 0.60801 0.0
C2798 C 0.38839 0.29171 0.59948 0.0
C2799 C 0.38678 0.29898 0.61616 0.0
H2800 H 0.71598 0.04503 0.59497 0.0
H2801 H 0.69193 0.06616 0.6323 0.0
H2802 H 0.69774 0.09018 0.61129 0.0
H2803 H 0.70905 0.10485 0.58197 0.0
H2804 H 0.73171 0.08276 0.54413 0.0
H2805 H 0.72738 0.05973 0.56584 0.0
C2806 C 0.71204 0.05491 0.59857 0.0
C2807 C 0.70348 0.05371 0.61522 0.0
C2808 C 0.71524 0.06859 0.58635 0.0
C2809 C 0.69844 0.06664 0.61956 0.0
C2810 C 0.7018 0.08044 0.60757 0.0
C2811 C 0.71301 0.09496 0.5785 0.0
C2812 C 0.7205 0.09538 0.56138 0.0
C2813 C 0.71009 0.08148 0.59088 0.0
C2814 C 0.72581 0.08265 0.55716 0.0
C2815 C 0.7233 0.06945 0.56955 0.0
H2816 H 0.93544 0.64098 0.63517 0.0
H2817 H 0.96952 0.6873 0.60235 0.0
H2818 H 0.94697 0.67439 0.57775 0.0
H2819 H 0.91783 0.64966 0.56527 0.0
H2820 H 0.88339 0.60371 0.5982 0.0
H2821 H 0.90577 0.61679 0.6231 0.0
C2822 C 0.93796 0.64824 0.62263 0.0
C2823 C 0.95422 0.66506 0.6206 0.0
C2824 C 0.92483 0.64084 0.60859 0.0
C2825 C 0.95714 0.67436 0.60431 0.0
C2826 C 0.94425 0.66698 0.59022 0.0
C2827 C 0.91517 0.64262 0.57797 0.0
C2828 C 0.89896 0.62579 0.57994 0.0
C2829 C 0.92807 0.65023 0.59219 0.0
C2830 C 0.89573 0.61673 0.59643 0.0
C2831 C 0.90854 0.62418 0.61061 0.0
H2832 H 0.97388 0.71856 0.70185 0.0
H2833 H 0.95447 0.66301 0.71761 0.0
H2834 H 0.94258 0.66868 0.74562 0.0
H2835 H 0.93895 0.68992 0.7663 0.0
H2836 H 0.95892 0.74547 0.75046 0.0
H2837 H 0.9694 0.73926 0.72177 0.0
C2838 C 0.967 0.70761 0.71134 0.0
C2839 C 0.96519 0.6904 0.70761 0.0
C2840 C 0.96032 0.71098 0.72743 0.0
C2841 C 0.95608 0.67639 0.72007 0.0
C2842 C 0.94932 0.67964 0.73614 0.0
C2843 C 0.94542 0.70057 0.75645 0.0
C2844 C 0.94795 0.71805 0.76037 0.0
C2845 C 0.95153 0.69694 0.74004 0.0
C2846 C 0.95661 0.73185 0.74763 0.0
C2847 C 0.96265 0.72832 0.73128 0.0
H2848 H 0.34403 0.29721 0.74432 0.0
H2849 H 0.29822 0.28096 0.70869 0.0
H2850 H 0.27891 0.25631 0.72876 0.0
H2851 H 0.27479 0.23967 0.75678 0.0
H2852 H 0.32014 0.25691 0.79325 0.0
H2853 H 0.3399 0.28051 0.7723 0.0
C2854 C 0.32983 0.28826 0.7409 0.0
C2855 C 0.32263 0.29103 0.72501 0.0
C2856 C 0.3187 0.2742 0.75263 0.0
C2857 C 0.30416 0.27928 0.72087 0.0
C2858 C 0.29308 0.26511 0.73232 0.0
C2859 C 0.28898 0.24866 0.76018 0.0
C2860 C 0.29591 0.24675 0.77671 0.0
C2861 C 0.30017 0.26251 0.7483 0.0
C2862 C 0.31442 0.25824 0.78071 0.0
C2863 C 0.32572 0.27176 0.76876 0.0
H2864 H 0.74298 0.03163 0.6901 0.0
H2865 H 0.70529 0.04629 0.71098 0.0
H2866 H 0.72142 0.0556 0.74026 0.0
H2867 H 0.74496 0.05748 0.76063 0.0
H2868 H 0.78178 0.04175 0.73979 0.0
H2869 H 0.76723 0.03497 0.70978 0.0
C2870 C 0.73832 0.037 0.70096 0.0
C2871 C 0.72283 0.03812 0.6983 0.0
C2872 C 0.74749 0.04209 0.71782 0.0
C2873 C 0.71713 0.04523 0.71259 0.0
C2874 C 0.72632 0.05051 0.72939 0.0
C2875 C 0.74994 0.05285 0.74941 0.0
C2876 C 0.76459 0.05039 0.75234 0.0
C2877 C 0.74132 0.0487 0.73225 0.0
C2878 C 0.77072 0.04404 0.7378 0.0
C2879 C 0.76235 0.04007 0.72067 0.0
H2880 H 0.0587 0.34978 0.037 0.0
H2881 H 0.01106 0.31112 0.06606 0.0
H2882 H 0.02746 0.30958 0.09175 0.0
H2883 H 0.05965 0.31775 0.11076 0.0
H2884 H 0.11728 0.36441 0.07803 0.0
H2885 H 0.09442 0.36524 0.0497 0.0
C2886 C 0.05287 0.34151 0.0488 0.0
C2887 C 0.03396 0.33036 0.05036 0.0
C2888 C 0.06429 0.34199 0.0623 0.0
C2889 C 0.02564 0.31931 0.06561 0.0
C2890 C 0.03488 0.31829 0.08066 0.0
C2891 C 0.06616 0.32736 0.10005 0.0
C2892 C 0.09075 0.33841 0.09588 0.0
C2893 C 0.05339 0.32826 0.08135 0.0
C2894 C 0.10276 0.35686 0.07914 0.0
C2895 C 0.08845 0.35659 0.0612 0.0
H2896 H 0.65804 0.70265 0.03821 0.0
H2897 H 0.70422 0.6989 0.05275 0.0
H2898 H 0.71746 0.72832 0.06968 0.0
H2899 H 0.7172 0.75644 0.07781 0.0
H2900 H 0.67144 0.76048 0.06229 0.0
H2901 H 0.65675 0.72962 0.04822 0.0
C2902 C 0.67088 0.70813 0.04531 0.0
C2903 C 0.68022 0.69872 0.0441 0.0
C2904 C 0.67856 0.72519 0.05468 0.0
C2905 C 0.6968 0.70594 0.05342 0.0
C2906 C 0.70442 0.7228 0.06303 0.0
C2907 C 0.70389 0.75041 0.07159 0.0
C2908 C 0.69534 0.76062 0.07123 0.0
C2909 C 0.69563 0.73276 0.06335 0.0
C2910 C 0.6782 0.75278 0.0629 0.0
C2911 C 0.66983 0.73519 0.05482 0.0
H2912 H 0.29805 0.99699 0.04848 0.0
H2913 H 0.29052 0.94842 0.01987 0.0
H2914 H 0.26177 0.92971 0.03509 0.0
H2915 H 0.23781 0.92761 0.05497 0.0
H2916 H 0.24499 0.97671 0.08205 0.0
H2917 H 0.27489 0.99475 0.06908 0.0
C2918 C 0.29023 0.98228 0.0457 0.0
C2919 C 0.29636 0.9741 0.03301 0.0
C2920 C 0.2736 0.97172 0.05418 0.0
C2921 C 0.28604 0.95503 0.02954 0.0
C2922 C 0.2696 0.94435 0.03821 0.0
C2923 C 0.24604 0.94223 0.05815 0.0
C2924 C 0.23922 0.9508 0.0695 0.0
C2925 C 0.26309 0.95261 0.05031 0.0
C2926 C 0.24995 0.96977 0.07344 0.0
C2927 C 0.26703 0.98011 0.06598 0.0
H2928 H 0.30997 0.02608 0.97593 0.0
H2929 H 0.36518 0.06421 0.99247 0.0
H2930 H 0.36261 0.08975 0.98166 0.0
H2931 H 0.34415 0.10117 0.96864 0.0
H2932 H 0.28842 0.06272 0.95397 0.0
H2933 H 0.29187 0.03727 0.96261 0.0
C2934 C 0.32153 0.03995 0.97707 0.0
C2935 C 0.33776 0.04323 0.98501 0.0
C2936 C 0.31983 0.0545 0.97122 0.0
C2937 C 0.35254 0.06132 0.98644 0.0
C2938 C 0.35106 0.07591 0.98028 0.0
C2939 C 0.33269 0.08728 0.9675 0.0
C2940 C 0.31582 0.08395 0.96125 0.0
C2941 C 0.33467 0.07268 0.97287 0.0
C2942 C 0.30139 0.06571 0.95917 0.0
C2943 C 0.30336 0.05115 0.96409 0.0
H2944 H 0.9651 0.29736 0.96735 0.0
H2945 H 0.98954 0.27513 0.00113 0.0
H2946 H 0.9766 0.246 0.98412 0.0
H2947 H 0.95501 0.22053 0.9553 0.0
H2948 H 0.9281 0.24714 0.9122 0.0
H2949 H 0.94488 0.28043 0.93518 0.0
C2950 C 0.96672 0.28592 0.97033 0.0
C2951 C 0.97779 0.28724 0.98505 0.0
C2952 C 0.95863 0.27037 0.95892 0.0
C2953 C 0.98087 0.273 0.98952 0.0
C2954 C 0.97356 0.25617 0.97988 0.0
C2955 C 0.95381 0.2319 0.95102 0.0
C2956 C 0.93714 0.22899 0.93331 0.0
C2957 C 0.96283 0.25271 0.9647 0.0
C2958 C 0.93663 0.24878 0.92372 0.0
C2959 C 0.94635 0.269 0.93857 0.0
H2960 H 0.70711 0.65171 0.98584 0.0
H2961 H 0.69853 0.693 0.96374 0.0
H2962 H 0.72801 0.70741 0.94969 0.0
H2963 H 0.75759 0.71053 0.94686 0.0
H2964 H 0.76662 0.66955 0.96883 0.0
H2965 H 0.73565 0.65279 0.97977 0.0
C2966 C 0.71152 0.66358 0.97756 0.0
C2967 C 0.70075 0.67139 0.976 0.0
C2968 C 0.72872 0.67208 0.96981 0.0
C2969 C 0.70665 0.68681 0.96528 0.0
C2970 C 0.72355 0.69513 0.95731 0.0
C2971 C 0.75271 0.69782 0.95386 0.0
C2972 C 0.76446 0.69149 0.95738 0.0
C2973 C 0.73494 0.68827 0.96004 0.0
C2974 C 0.75788 0.67485 0.96625 0.0
C2975 C 0.74018 0.66525 0.97245 0.0
H2976 H 0.98781 0.69708 0.97816 0.0
H2977 H 0.9461 0.64422 0.99622 0.0
H2978 H 0.92318 0.64837 0.9814 0.0
H2979 H 0.91502 0.66817 0.96528 0.0
H2980 H 0.95707 0.72175 0.94923 0.0
H2981 H 0.9799 0.71616 0.96136 0.0
C2982 C 0.97372 0.68632 0.97873 0.0
C2983 C 0.96865 0.67038 0.98834 0.0
C2984 C 0.9607 0.689 0.9706 0.0
C2985 C 0.95035 0.65661 0.9889 0.0
C2986 C 0.93725 0.65903 0.9805 0.0
C2987 C 0.92921 0.67846 0.9642 0.0
C2988 C 0.93435 0.69516 0.95599 0.0
C2989 C 0.94227 0.67532 0.9716 0.0
C2990 C 0.95276 0.70862 0.9551 0.0
C2991 C 0.96582 0.70548 0.96212 0.0
H2992 H 0.30264 0.29775 0.96276 0.0
H2993 H 0.35196 0.299 0.97503 0.0
H2994 H 0.33736 0.26631 0.96708 0.0
H2995 H 0.30955 0.23669 0.96088 0.0
H2996 H 0.26025 0.23523 0.94825 0.0
H2997 H 0.27588 0.26869 0.95205 0.0
C2998 C 0.3103 0.29096 0.96332 0.0
C2999 C 0.32826 0.30073 0.96982 0.0
C3000 C 0.30174 0.27206 0.95899 0.0
C3001 C 0.33806 0.29177 0.97027 0.0
C3002 C 0.3297 0.27304 0.96582 0.0
C3003 C 0.30229 0.24373 0.95872 0.0
C3004 C 0.28367 0.23349 0.95483 0.0
C3005 C 0.31136 0.26292 0.96087 0.0
C3006 C 0.27451 0.24281 0.95167 0.0
C3007 C 0.28344 0.26192 0.95381 0.0
H3008 H 0.70813 0.01104 0.96959 0.0
H3009 H 0.71082 0.05937 0.99352 0.0
H3010 H 0.74049 0.07872 0.98052 0.0
H3011 H 0.76676 0.08167 0.96471 0.0
H3012 H 0.7645 0.03347 0.94121 0.0
H3013 H 0.73354 0.01427 0.95164 0.0
C3014 C 0.7151 0.02583 0.97174 0.0
C3015 C 0.70736 0.03375 0.98264 0.0
C3016 C 0.73229 0.03687 0.96443 0.0
C3017 C 0.71653 0.05293 0.98527 0.0
C3018 C 0.73353 0.06401 0.97788 0.0
C3019 C 0.75937 0.06699 0.96164 0.0
C3020 C 0.76785 0.05897 0.9522 0.0
C3021 C 0.7417 0.05609 0.96781 0.0
C3022 C 0.75819 0.03993 0.9484 0.0
C3023 C 0.74054 0.02897 0.9544 0.0
H3024 H 0.69472 0.98906 0.0486 0.0
H3025 H 0.64237 0.94686 0.02784 0.0
H3026 H 0.64602 0.92345 0.04216 0.0
H3027 H 0.66487 0.91479 0.05898 0.0
H3028 H 0.71767 0.95685 0.07863 0.0
H3029 H 0.71306 0.98051 0.06638 0.0
C3030 C 0.68401 0.97476 0.04737 0.0
C3031 C 0.6683 0.96971 0.03714 0.0
C3032 C 0.68632 0.96135 0.05541 0.0
C3033 C 0.6546 0.95112 0.03562 0.0
C3034 C 0.6567 0.93771 0.04377 0.0
C3035 C 0.67522 0.92917 0.06083 0.0
C3036 C 0.69141 0.93408 0.07005 0.0
C3037 C 0.6726 0.94265 0.05347 0.0
C3038 C 0.70494 0.95274 0.07194 0.0
C3039 C 0.70235 0.96625 0.06484 0.0
H3040 H 0.04601 0.72748 0.02719 0.0
H3041 H 0.00823 0.70098 0.07021 0.0
H3042 H 0.0191 0.73067 0.086 0.0
H3043 H 0.03769 0.76424 0.08636 0.0
H3044 H 0.07402 0.7911 0.04238 0.0
H3045 H 0.06532 0.76123 0.02803 0.0
C3046 C 0.04047 0.72824 0.04022 0.0
C3047 C 0.02648 0.71217 0.04767 0.0
C3048 C 0.0463 0.74541 0.04883 0.0
C3049 C 0.01909 0.71324 0.06432 0.0
C3050 C 0.02521 0.73019 0.07327 0.0
C3051 C 0.04371 0.76351 0.07365 0.0
C3052 C 0.05642 0.7798 0.06539 0.0
C3053 C 0.0385 0.74637 0.06543 0.0
C3054 C 0.06417 0.77873 0.04895 0.0
C3055 C 0.05924 0.76168 0.04078 0.0
H3056 H 0.29379 0.33511 0.01556 0.0
H3057 H 0.32607 0.33057 0.05716 0.0
H3058 H 0.30047 0.31799 0.07784 0.0
H3059 H 0.26834 0.30607 0.08305 0.0
H3060 H 0.23515 0.30703 0.03992 0.0
H3061 H 0.26164 0.32344 0.02093 0.0
C3062 C 0.29524 0.33171 0.02931 0.0
C3063 C 0.31172 0.33396 0.03505 0.0
C3064 C 0.28023 0.32359 0.04069 0.0
C3065 C 0.31346 0.32907 0.05263 0.0
C3066 C 0.29883 0.3218 0.06437 0.0
C3067 C 0.26684 0.30969 0.06944 0.0
C3068 C 0.24965 0.30479 0.06272 0.0
C3069 C 0.28203 0.31856 0.05837 0.0
C3070 C 0.24814 0.31026 0.04528 0.0
C3071 C 0.26329 0.31968 0.03443 0.0
H3072 H 0.71663 0.68704 0.3709 0.0
H3073 H 0.6659 0.6418 0.38944 0.0
H3074 H 0.67905 0.63519 0.41474 0.0
H3075 H 0.7087 0.63995 0.43626 0.0
H3076 H 0.76966 0.69431 0.41646 0.0
H3077 H 0.75039 0.70051 0.388 0.0
C3078 C 0.70941 0.67628 0.38046 0.0
C3079 C 0.69047 0.66459 0.37894 0.0
C3080 C 0.7191 0.67418 0.3942 0.0
C3081 C 0.68039 0.65032 0.39125 0.0
C3082 C 0.68774 0.64629 0.40602 0.0
C3083 C 0.71637 0.65181 0.42804 0.0
C3084 C 0.74143 0.66431 0.42741 0.0
C3085 C 0.706 0.65634 0.40946 0.0
C3086 C 0.7551 0.68625 0.41534 0.0
C3087 C 0.74311 0.6894 0.39717 0.0
H3088 H 0.37289 0.04176 0.39284 0.0
H3089 H 0.31813 0.03051 0.39133 0.0
H3090 H 0.32417 0.0561 0.41177 0.0
H3091 H 0.34793 0.08974 0.4318 0.0
H3092 H 0.41364 0.10463 0.4332 0.0
H3093 H 0.40181 0.07084 0.41219 0.0
C3094 C 0.36317 0.04535 0.39735 0.0
C3095 C 0.34507 0.03498 0.39119 0.0
C3096 C 0.36904 0.0608 0.40858 0.0
C3097 C 0.33179 0.03913 0.39658 0.0
C3098 C 0.33502 0.05381 0.4084 0.0
C3099 C 0.35776 0.08577 0.42913 0.0
C3100 C 0.3825 0.10232 0.4321 0.0
C3101 C 0.35215 0.0657 0.41526 0.0
C3102 C 0.39951 0.09524 0.43002 0.0
C3103 C 0.39217 0.0747 0.41617 0.0
H3104 H 0.9561 0.29786 0.34475 0.0
H3105 H 0.98133 0.32568 0.39604 0.0
H3106 H 0.9532 0.31236 0.41269 0.0
H3107 H 0.9143 0.28983 0.41529 0.0
H3108 H 0.88372 0.26062 0.3531 0.0
H3109 H 0.91922 0.27737 0.33743 0.0
C3110 C 0.95471 0.3001 0.35911 0.0
C3111 C 0.96999 0.31217 0.36996 0.0
C3112 C 0.9376 0.29196 0.36618 0.0
C3113 C 0.96896 0.31617 0.38866 0.0
C3114 C 0.95286 0.30859 0.39843 0.0
C3115 C 0.91518 0.28792 0.40078 0.0
C3116 C 0.89539 0.27066 0.38659 0.0
C3117 C 0.93653 0.29686 0.38975 0.0
C3118 C 0.89569 0.26965 0.36122 0.0
C3119 C 0.91781 0.27923 0.35184 0.0
H3120 H 0.98794 0.35886 0.30864 0.0
H3121 H 0.04448 0.39363 0.32234 0.0
H3122 H 0.04479 0.41969 0.30886 0.0
H3123 H 0.02838 0.43308 0.2952 0.0
H3124 H 0.97136 0.39852 0.28366 0.0
H3125 H 0.97193 0.37186 0.29392 0.0
C3126 C 1.0004 0.37208 0.30847 0.0
C3127 C 0.01615 0.37432 0.31652 0.0
C3128 C 1.00036 0.38709 0.30116 0.0
C3129 C 0.03215 0.39156 0.31628 0.0
C3130 C 0.03233 0.40648 0.3086 0.0
C3131 C 0.0161 0.41972 0.29496 0.0
C3132 C 0.99977 0.41789 0.28906 0.0
C3133 C 0.01641 0.4045 0.30136 0.0
C3134 C 0.98405 0.40037 0.28839 0.0
C3135 C 0.98435 0.38511 0.29427 0.0
H3136 H 0.65211 0.61557 0.32193 0.0
H3137 H 0.62998 0.64228 0.29157 0.0
H3138 H 0.61411 0.61707 0.26909 0.0
H3139 H 0.60168 0.58035 0.25476 0.0
H3140 H 0.62751 0.54797 0.291 0.0
H3141 H 0.64675 0.58087 0.31401 0.0
C3142 C 0.64384 0.61505 0.31061 0.0
C3143 C 0.64169 0.63004 0.30746 0.0
C3144 C 0.63531 0.59939 0.29951 0.0
C3145 C 0.631 0.63022 0.29298 0.0
C3146 C 0.62183 0.61584 0.27991 0.0
C3147 C 0.61074 0.58074 0.26511 0.0
C3148 C 0.61011 0.55954 0.27228 0.0
C3149 C 0.62248 0.60002 0.28094 0.0
C3150 C 0.62721 0.56018 0.28806 0.0
C3151 C 0.6383 0.5803 0.30289 0.0
H3152 H 0.35056 0.97486 0.3101 0.0
H3153 H 0.38621 0.01611 0.34982 0.0
H3154 H 0.41214 0.01634 0.33626 0.0
H3155 H 0.42446 0.00404 0.3138 0.0
H3156 H 0.38924 0.9634 0.27334 0.0
H3157 H 0.36337 0.96388 0.28617 0.0
C3158 C 0.36407 0.98396 0.31559 0.0
C3159 C 0.36667 0.99547 0.33083 0.0
C3160 C 0.37893 0.9842 0.30752 0.0
C3161 C 0.38409 0.00728 0.33796 0.0
C3162 C 0.39885 0.00737 0.33025 0.0
C3163 C 0.41116 0.9955 0.30763 0.0
C3164 C 0.40879 0.98388 0.29252 0.0
C3165 C 0.39642 0.99583 0.3151 0.0
C3166 C 0.39142 0.97262 0.28485 0.0
C3167 C 0.37663 0.97282 0.29225 0.0
H3168 H 0.64602 0.01313 0.3134 0.0
H3169 H 0.60889 0.95966 0.33393 0.0
H3170 H 0.58371 0.95987 0.31952 0.0
H3171 H 0.57188 0.97619 0.30327 0.0
H3172 H 0.6085 0.03002 0.28344 0.0
H3173 H 0.63421 0.02872 0.29529 0.0
C3174 C 0.63245 0.00142 0.31448 0.0
C3175 C 0.62935 0.98645 0.32482 0.0
C3176 C 0.61791 0.00174 0.30636 0.0
C3177 C 0.61167 0.97141 0.32614 0.0
C3178 C 0.59722 0.97152 0.31793 0.0
C3179 C 0.58552 0.98749 0.30125 0.0
C3180 C 0.58829 0.00305 0.29227 0.0
C3181 C 0.60014 0.98675 0.30833 0.0
C3182 C 0.60603 0.01777 0.29007 0.0
C3183 C 0.62071 0.01706 0.29693 0.0
H3184 H 0.01862 0.65422 0.30138 0.0
H3185 H 0.96371 0.63863 0.31221 0.0
H3186 H 0.9527 0.61083 0.29277 0.0
H3187 H 0.95893 0.59009 0.27412 0.0
H3188 H 0.01406 0.60738 0.26159 0.0
H3189 H 0.02473 0.63535 0.28018 0.0
C3190 C 0.00425 0.6448 0.2993 0.0
C3191 C 0.99197 0.64828 0.30823 0.0
C3192 C 0.99808 0.62906 0.28797 0.0
C3193 C 0.97339 0.6362 0.30533 0.0
C3194 C 0.96711 0.62027 0.29434 0.0
C3195 C 0.97326 0.60001 0.27551 0.0
C3196 C 0.98564 0.59624 0.2671 0.0
C3197 C 0.97935 0.6164 0.28584 0.0
C3198 C 0.00419 0.60952 0.26845 0.0
C3199 C 0.01035 0.62563 0.27899 0.0
H3200 H 0.37358 0.3862 0.3197 0.0
H3201 H 0.36146 0.33325 0.29799 0.0
H3202 H 0.39184 0.34712 0.28574 0.0
H3203 H 0.42283 0.37375 0.28415 0.0
H3204 H 0.43508 0.42619 0.30738 0.0
H3205 H 0.40365 0.41311 0.31599 0.0
C3206 C 0.37748 0.37772 0.31205 0.0
C3207 C 0.36536 0.3587 0.30991 0.0
C3208 C 0.39506 0.38569 0.30546 0.0
C3209 C 0.37058 0.34793 0.2999 0.0
C3210 C 0.38797 0.35583 0.29296 0.0
C3211 C 0.4185 0.38232 0.29086 0.0
C3212 C 0.43123 0.40087 0.29519 0.0
C3213 C 0.40048 0.37461 0.29612 0.0
C3214 C 0.42552 0.41187 0.30392 0.0
C3215 C 0.40758 0.4044 0.30888 0.0
H3216 H 0.35244 0.32006 0.37502 0.0
H3217 H 0.29543 0.28288 0.36534 0.0
H3218 H 0.29731 0.2583 0.37942 0.0
H3219 H 0.31559 0.24672 0.39206 0.0
H3220 H 0.37288 0.28331 0.39998 0.0
H3221 H 0.37048 0.3088 0.38902 0.0
C3222 C 0.34036 0.30666 0.37627 0.0
C3223 C 0.32381 0.3033 0.36914 0.0
C3224 C 0.34164 0.29247 0.38394 0.0
C3225 C 0.30833 0.28582 0.37071 0.0
C3226 C 0.30941 0.27175 0.3787 0.0
C3227 C 0.32748 0.26036 0.39169 0.0
C3228 C 0.34431 0.26319 0.39719 0.0
C3229 C 0.32606 0.27482 0.385 0.0
C3230 C 0.35972 0.28084 0.39619 0.0
C3231 C 0.35836 0.29539 0.38983 0.0
H3232 H 0.67472 0.04137 0.38218 0.0
H3233 H 0.71964 0.0336 0.37357 0.0
H3234 H 0.74073 0.0663 0.37916 0.0
H3235 H 0.74631 0.09751 0.3823 0.0
H3236 H 0.70183 0.10587 0.39092 0.0
H3237 H 0.68071 0.07261 0.38964 0.0
C3238 C 0.68913 0.0468 0.38198 0.0
C3239 C 0.6956 0.03513 0.37721 0.0
C3240 C 0.70126 0.06577 0.38487 0.0
C3241 C 0.71431 0.04233 0.377 0.0
C3242 C 0.7264 0.06106 0.38013 0.0
C3243 C 0.73202 0.09204 0.38416 0.0
C3244 C 0.72558 0.1041 0.38621 0.0
C3245 C 0.72002 0.07298 0.38337 0.0
C3246 C 0.70706 0.09683 0.38894 0.0
C3247 C 0.69499 0.07783 0.38822 0.0
H3248 H 0.96493 0.65093 0.3811 0.0
H3249 H 0.97745 0.70637 0.37368 0.0
H3250 H 0.94801 0.69848 0.38534 0.0
H3251 H 0.91734 0.67487 0.39354 0.0
H3252 H 0.90438 0.61925 0.40026 0.0
H3253 H 0.93539 0.62817 0.39303 0.0
C3254 C 0.96139 0.6614 0.38242 0.0
C3255 C 0.97329 0.67916 0.3763 0.0
C3256 C 0.94425 0.65665 0.38874 0.0
C3257 C 0.9685 0.69257 0.37816 0.0
C3258 C 0.95162 0.68804 0.38473 0.0
C3259 C 0.9214 0.66479 0.39375 0.0
C3260 C 0.90858 0.64641 0.39726 0.0
C3261 C 0.93916 0.66997 0.3894 0.0
C3262 C 0.91402 0.63347 0.39752 0.0
C3263 C 0.93172 0.63856 0.39335 0.0
H3264 H 0.39698 0.04277 0.68949 0.0
H3265 H 0.35846 0.99601 0.71943 0.0
H3266 H 0.38234 0.00027 0.74025 0.0
H3267 H 0.41407 0.01752 0.75028 0.0
H3268 H 0.45273 0.06412 0.72037 0.0
H3269 H 0.42891 0.05971 0.69923 0.0
C3270 C 0.39382 0.03352 0.70057 0.0
C3271 C 0.37596 0.01912 0.70292 0.0
C3272 C 0.40765 0.03598 0.71246 0.0
C3273 C 0.37209 0.0072 0.7173 0.0
C3274 C 0.38574 0.00962 0.72923 0.0
C3275 C 0.4173 0.02656 0.73899 0.0
C3276 C 0.43519 0.0409 0.73667 0.0
C3277 C 0.40355 0.02397 0.72695 0.0
C3278 C 0.43911 0.05279 0.72225 0.0
C3279 C 0.42549 0.05032 0.71021 0.0
H3280 H 0.96743 0.34491 0.71397 0.0
H3281 H 0.02543 0.37549 0.71193 0.0
H3282 H 0.02635 0.40198 0.72722 0.0
H3283 H 0.01021 0.41778 0.736 0.0
H3284 H 0.95213 0.38686 0.73824 0.0
H3285 H 0.95161 0.35898 0.72812 0.0
C3286 C 0.98027 0.35722 0.71737 0.0
C3287 C 0.99632 0.35851 0.7117 0.0
C3288 C 0.98061 0.37237 0.72578 0.0
C3289 C 0.01293 0.3743 0.71629 0.0
C3290 C 0.01342 0.38948 0.7248 0.0
C3291 C 0.99747 0.40488 0.73449 0.0
C3292 C 0.98118 0.40448 0.73707 0.0
C3293 C 0.99729 0.38893 0.72877 0.0
C3294 C 0.96478 0.38759 0.73568 0.0
C3295 C 0.96449 0.37166 0.72999 0.0
H3296 H 0.63304 0.61916 0.69896 0.0
H3297 H 0.64478 0.67284 0.71772 0.0
H3298 H 0.61713 0.65891 0.73528 0.0
H3299 H 0.58817 0.63168 0.74283 0.0
H3300 H 0.57576 0.57814 0.72291 0.0
H3301 H 0.60507 0.59177 0.70831 0.0
C3302 C 0.6297 0.62779 0.70714 0.0
C3303 C 0.64088 0.64701 0.70694 0.0
C3304 C 0.61356 0.61971 0.71688 0.0
C3305 C 0.63635 0.65801 0.71757 0.0
C3306 C 0.6205 0.65006 0.72756 0.0
C3307 C 0.59207 0.62299 0.7356 0.0
C3308 C 0.57994 0.60391 0.73421 0.0
C3309 C 0.60879 0.63096 0.72695 0.0
C3310 C 0.58498 0.59282 0.72445 0.0
C3311 C 0.6017 0.60062 0.71601 0.0
H3312 H 0.68621 0.71838 0.64654 0.0
H3313 H 0.6418 0.66625 0.62644 0.0
H3314 H 0.62892 0.68184 0.61092 0.0
H3315 H 0.62844 0.70992 0.60595 0.0
H3316 H 0.67211 0.76202 0.62688 0.0
H3317 H 0.68712 0.74686 0.63915 0.0
C3318 C 0.67392 0.71047 0.63843 0.0
C3319 C 0.66492 0.69118 0.63774 0.0
C3320 C 0.66634 0.71952 0.62987 0.0
C3321 C 0.64895 0.68111 0.62727 0.0
C3322 C 0.64152 0.69001 0.61844 0.0
C3323 C 0.64142 0.71798 0.61288 0.0
C3324 C 0.64922 0.73706 0.61536 0.0
C3325 C 0.64981 0.70915 0.6201 0.0
C3326 C 0.66593 0.74733 0.62463 0.0
C3327 C 0.67447 0.73865 0.6317 0.0
H3328 H 0.30513 0.954 0.67179 0.0
H3329 H 0.32109 0.97822 0.61915 0.0
H3330 H 0.30512 0.949 0.60188 0.0
H3331 H 0.28231 0.90951 0.59887 0.0
H3332 H 0.26669 0.88008 0.66171 0.0
H3333 H 0.28659 0.91663 0.6782 0.0
C3334 C 0.30448 0.95209 0.6571 0.0
C3335 C 0.31356 0.96733 0.64596 0.0
C3336 C 0.29529 0.93447 0.64959 0.0
C3337 C 0.31367 0.96579 0.6267 0.0
C3338 C 0.30452 0.94908 0.61659 0.0
C3339 C 0.28375 0.91077 0.61355 0.0
C3340 C 0.26958 0.89118 0.62852 0.0
C3341 C 0.29503 0.9327 0.62538 0.0
C3342 C 0.27405 0.89198 0.65347 0.0
C3343 C 0.28549 0.91476 0.66354 0.0
H3344 H 0.03877 0.32015 0.65424 0.0
H3345 H 0.03308 0.36484 0.63671 0.0
H3346 H 0.06252 0.37896 0.62271 0.0
H3347 H 0.09087 0.38002 0.61742 0.0
H3348 H 0.09727 0.33585 0.63484 0.0
H3349 H 0.06665 0.32014 0.64685 0.0
C3350 C 0.04388 0.33283 0.64712 0.0
C3351 C 0.03377 0.34147 0.64665 0.0
C3352 C 0.06103 0.34107 0.63919 0.0
C3353 C 0.0406 0.35793 0.63741 0.0
C3354 C 0.05748 0.36607 0.6294 0.0
C3355 C 0.08546 0.36682 0.6236 0.0
C3356 C 0.09628 0.35908 0.62517 0.0
C3357 C 0.06796 0.35797 0.63052 0.0
C3358 C 0.08914 0.34203 0.63339 0.0
C3359 C 0.07167 0.33308 0.64029 0.0
H3360 H 0.32464 0.36415 0.64327 0.0
H3361 H 0.2783 0.3126 0.65804 0.0
H3362 H 0.25824 0.32226 0.64645 0.0
H3363 H 0.25393 0.34664 0.63537 0.0
H3364 H 0.30012 0.39843 0.62118 0.0
H3365 H 0.3202 0.38739 0.62926 0.0
C3366 C 0.31015 0.35489 0.64365 0.0
C3367 C 0.30298 0.33775 0.65168 0.0
C3368 C 0.29868 0.36067 0.63727 0.0
C3369 C 0.28418 0.32591 0.65203 0.0
C3370 C 0.27269 0.33145 0.64548 0.0
C3371 C 0.26838 0.35538 0.63376 0.0
C3372 C 0.27556 0.37333 0.62776 0.0
C3373 C 0.27979 0.34901 0.63858 0.0
C3374 C 0.2943 0.38456 0.62578 0.0
C3375 C 0.30577 0.37827 0.63044 0.0
H3376 H 0.68021 0.97098 0.64156 0.0
H3377 H 0.63536 0.97495 0.62238 0.0
H3378 H 0.61929 0.94248 0.61276 0.0
H3379 H 0.61646 0.91213 0.61349 0.0
H3380 H 0.6607 0.90816 0.63449 0.0
H3381 H 0.67857 0.94143 0.6396 0.0
C3382 C 0.66706 0.96485 0.63496 0.0
C3383 C 0.65891 0.97532 0.63289 0.0
C3384 C 0.65769 0.94608 0.62999 0.0
C3385 C 0.6419 0.96717 0.62424 0.0
C3386 C 0.63265 0.94857 0.61882 0.0
C3387 C 0.63012 0.91864 0.61889 0.0
C3388 C 0.63723 0.90773 0.62369 0.0
C3389 C 0.64017 0.93775 0.62221 0.0
C3390 C 0.65493 0.91627 0.63071 0.0
C3391 C 0.66513 0.93528 0.63369 0.0
H3392 H 0.03048 0.71398 0.65324 0.0
H3393 H 0.02562 0.66338 0.63328 0.0
H3394 H 0.05668 0.68043 0.62255 0.0
H3395 H 0.08616 0.70949 0.62166 0.0
H3396 H 0.09086 0.75958 0.64304 0.0
H3397 H 0.05889 0.74298 0.65028 0.0
C3398 C 0.03612 0.70667 0.64634 0.0
C3399 C 0.02583 0.68743 0.64422 0.0
C3400 C 0.05402 0.71648 0.64057 0.0
C3401 C 0.03329 0.67819 0.63512 0.0
C3402 C 0.05107 0.68793 0.62907 0.0
C3403 C 0.08007 0.71675 0.62767 0.0
C3404 C 0.09085 0.73572 0.63186 0.0
C3405 C 0.06171 0.70703 0.63214 0.0
C3406 C 0.08285 0.745 0.63969 0.0
C3407 C 0.06459 0.73551 0.64388 0.0
H3408 H 0.00484 0.64111 0.70973 0.0
H3409 H 0.94993 0.60603 0.69041 0.0
H3410 H 0.94796 0.58025 0.70611 0.0
H3411 H 0.96236 0.56716 0.72372 0.0
H3412 H 0.0176 0.60168 0.74203 0.0
H3413 H 0.01893 0.62819 0.72839 0.0
C3414 C 0.99237 0.62788 0.70914 0.0
C3415 C 0.97756 0.6255 0.69888 0.0
C3416 C 0.99142 0.613 0.71798 0.0
C3417 C 0.96155 0.60824 0.69816 0.0
C3418 C 0.96041 0.59347 0.70712 0.0
C3419 C 0.97458 0.58057 0.72498 0.0
C3420 C 0.98972 0.58253 0.73422 0.0
C3421 C 0.97533 0.59562 0.71684 0.0
C3422 C 0.00565 0.59989 0.73533 0.0
C3423 C 0.00643 0.61502 0.72744 0.0
H3424 H 0.34075 0.37544 0.71804 0.0
H3425 H 0.38678 0.37181 0.70203 0.0
H3426 H 0.40684 0.4043 0.71 0.0
H3427 H 0.41085 0.43449 0.71751 0.0
H3428 H 0.36503 0.43842 0.73339 0.0
H3429 H 0.34534 0.40507 0.72955 0.0
C3430 C 0.3552 0.38166 0.71668 0.0
C3431 C 0.36222 0.37128 0.70917 0.0
C3432 C 0.36667 0.40048 0.72097 0.0
C3433 C 0.381 0.37953 0.7076 0.0
C3434 C 0.39249 0.39815 0.71207 0.0
C3435 C 0.3966 0.428 0.72039 0.0
C3436 C 0.38932 0.43889 0.72536 0.0
C3437 C 0.3854 0.40888 0.7181 0.0
C3438 C 0.37087 0.4303 0.72929 0.0
C3439 C 0.35963 0.41126 0.7271 0.0
H3440 H 0.63867 0.0337 0.68399 0.0
H3441 H 0.64235 0.99096 0.70985 0.0
H3442 H 0.61547 0.98306 0.72741 0.0
H3443 H 0.58935 0.98649 0.73335 0.0
H3444 H 0.58499 0.02824 0.7063 0.0
H3445 H 0.61366 0.03835 0.69132 0.0
C3446 C 0.63377 0.02286 0.69369 0.0
C3447 C 0.64245 0.01289 0.69556 0.0
C3448 C 0.61806 0.01811 0.70342 0.0
C3449 C 0.63586 0.9988 0.7081 0.0
C3450 C 0.62045 0.99423 0.71811 0.0
C3451 C 0.59487 0.99799 0.72441 0.0
C3452 C 0.58515 0.00671 0.72105 0.0
C3453 C 0.6112 0.00351 0.71557 0.0
C3454 C 0.5923 0.02143 0.70922 0.0
C3455 C 0.60865 0.02717 0.70061 0.0
loop_
_geom_bond_atom_site_label_1
_geom_bond_atom_site_label_2
_geom_bond_distance
_geom_bond_site_symmetry_2
_ccdc_geom_bond_type
Co0 O1 2.216 . S
Co0 O2 2.091 . S
Co0 O4 2.004 1_554 S
Co0 O10 2.021 . S
Co0 O12 2.144 1_454 S
Co0 O13 2.246 1_455 S
O1 Co0 2.216 . S
O1 C8 1.247 . S
O2 Co0 2.091 . S
O2 C8 1.261 . S
C3 O12 1.311 . S
C3 O13 1.265 1_556 S
O4 Co0 2.004 1_556 S
O4 C9 1.259 . S
Co5 O6 2.080 . S
Co5 O11 2.022 1_556 S
Co5 O13 2.133 1_556 S
O6 Co5 2.080 . S
O6 C9 1.235 1_655 S
C7 O10 1.238 1_655 S
C7 O11 1.241 . S
C8 O1 1.247 . S
C8 O2 1.261 . S
C9 O4 1.259 . S
C9 O6 1.235 1_455 S
O10 Co0 2.021 . S
O10 C7 1.238 1_455 S
O11 Co5 2.022 1_554 S
O11 C7 1.241 . S
O12 Co0 2.144 1_656 S
O12 C3 1.311 . S
O13 Co0 2.246 1_655 S
O13 C3 1.265 1_554 S
O13 Co5 2.133 1_554 S
Co14 O15 2.216 1_554 S
Co14 O16 2.091 . S
Co14 O18 2.004 . S
Co14 O24 2.021 1_554 S
Co14 O26 2.137 . S
Co14 O27 2.244 . S
O15 Co14 2.216 1_556 S
O15 C22 1.247 . S
O16 Co14 2.091 . S
O16 C22 1.261 1_554 S
C17 O26 1.247 . S
C17 O27 1.272 . S
O18 Co14 2.004 . S
O18 C23 1.259 . S
Co19 O20 2.061 . S
Co19 O25 2.052 . S
Co19 O27 2.135 . S
O20 Co19 2.061 . S
O20 C23 1.235 . S
C21 O24 1.238 . S
C21 O25 1.241 1_556 S
C22 O15 1.247 . S
C22 O16 1.261 1_556 S
C23 O18 1.259 . S
C23 O20 1.235 . S
O24 Co14 2.021 1_556 S
O24 C21 1.238 . S
O25 Co19 2.052 . S
O25 C21 1.241 1_554 S
O26 Co14 2.137 . S
O26 C17 1.247 . S
O27 Co14 2.244 . S
O27 C17 1.272 . S
O27 Co19 2.135 . S
Co28 O29 2.216 1_554 S
Co28 O30 2.091 . S
Co28 O32 2.004 . S
Co28 O38 2.021 1_554 S
Co28 O40 2.137 . S
Co28 O41 2.244 1_545 S
O29 Co28 2.216 1_556 S
O29 C36 1.247 . S
O30 Co28 2.091 . S
O30 C36 1.261 1_554 S
C31 O40 1.247 1_565 S
C31 O41 1.272 . S
O32 Co28 2.004 . S
O32 C37 1.259 . S
Co33 O34 2.061 . S
Co33 O39 2.052 1_554 S
Co33 O41 2.135 . S
O34 Co33 2.061 . S
O34 C37 1.235 1_565 S
C35 O38 1.238 1_565 S
C35 O39 1.241 . S
C36 O29 1.247 . S
C36 O30 1.261 1_556 S
C37 O32 1.259 . S
C37 O34 1.235 1_545 S
O38 Co28 2.021 1_556 S
O38 C35 1.238 1_545 S
O39 Co33 2.052 1_556 S
O39 C35 1.241 . S
O40 Co28 2.137 . S
O40 C31 1.247 1_545 S
O41 Co28 2.244 1_565 S
O41 C31 1.272 . S
O41 Co33 2.135 . S
Co42 O43 2.216 1_554 S
Co42 O44 2.091 . S
Co42 O46 2.004 . S
Co42 O52 2.021 1_554 S
Co42 O54 2.137 1_655 S
Co42 O55 2.244 1_655 S
O43 Co42 2.216 1_556 S
O43 C50 1.247 . S
O44 Co42 2.091 . S
O44 C50 1.261 1_554 S
C45 O54 1.247 . S
C45 O55 1.272 . S
O46 Co42 2.004 . S
O46 C51 1.259 . S
Co47 O48 2.061 . S
Co47 O53 2.052 1_554 S
Co47 O55 2.135 . S
O48 Co47 2.061 . S
O48 C51 1.235 1_455 S
C49 O52 1.238 1_455 S
C49 O53 1.241 . S
C50 O43 1.247 . S
C50 O44 1.261 1_556 S
C51 O46 1.259 . S
C51 O48 1.235 1_655 S
O52 Co42 2.021 1_556 S
O52 C49 1.238 1_655 S
O53 Co47 2.052 1_556 S
O53 C49 1.241 . S
O54 Co42 2.137 1_455 S
O54 C45 1.247 . S
O55 Co42 2.244 1_455 S
O55 C45 1.272 . S
O55 Co47 2.135 . S
Co56 O57 2.216 . S
Co56 O58 2.091 . S
Co56 O60 2.004 1_554 S
Co56 O66 2.021 . S
Co56 O68 2.137 1_554 S
Co56 O69 2.244 1_554 S
O57 Co56 2.216 . S
O57 C64 1.247 . S
O58 Co56 2.091 . S
O58 C64 1.261 . S
C59 O68 1.247 . S
C59 O69 1.272 . S
O60 Co56 2.004 1_556 S
O60 C65 1.259 . S
Co61 O62 2.061 . S
Co61 O67 2.052 1_556 S
Co61 O69 2.135 . S
O62 Co61 2.061 . S
O62 C65 1.235 . S
C63 O66 1.238 . S
C63 O67 1.241 . S
C64 O57 1.247 . S
C64 O58 1.261 . S
C65 O60 1.259 . S
C65 O62 1.235 . S
O66 Co56 2.021 . S
O66 C63 1.238 . S
O67 Co61 2.052 1_554 S
O67 C63 1.241 . S
O68 Co56 2.137 1_556 S
O68 C59 1.247 . S
O69 Co56 2.244 1_556 S
O69 C59 1.272 . S
O69 Co61 2.135 . S
Co70 O71 2.216 . S
Co70 O72 2.091 . S
Co70 O74 2.004 1_554 S
Co70 O80 2.021 . S
Co70 O82 2.137 1_564 S
Co70 O83 2.244 1_565 S
O71 Co70 2.216 . S
O71 C78 1.247 . S
O72 Co70 2.091 . S
O72 C78 1.261 . S
C73 O82 1.247 . S
C73 O83 1.272 1_556 S
O74 Co70 2.004 1_556 S
O74 C79 1.259 . S
Co75 O76 2.061 1_554 S
Co75 O81 2.052 . S
Co75 O83 2.135 . S
O76 Co75 2.061 1_556 S
O76 C79 1.235 1_545 S
C77 O80 1.238 1_545 S
C77 O81 1.241 . S
C78 O71 1.247 . S
C78 O72 1.261 . S
C79 O74 1.259 . S
C79 O76 1.235 1_565 S
O80 Co70 2.021 . S
O80 C77 1.238 1_565 S
O81 Co75 2.052 . S
O81 C77 1.241 . S
O82 Co70 2.137 1_546 S
O82 C73 1.247 . S
O83 Co70 2.244 1_545 S
O83 C73 1.272 1_554 S
O83 Co75 2.135 . S
Co84 O85 2.216 . S
Co84 O86 2.091 . S
Co84 O88 2.004 . S
Co84 O94 2.021 . S
Co84 O96 2.137 . S
Co84 O97 2.244 . S
O85 Co84 2.216 . S
O85 C92 1.247 . S
O86 Co84 2.091 . S
O86 C92 1.261 . S
C87 O96 1.247 . S
C87 O97 1.272 . S
O88 Co84 2.004 . S
O88 C93 1.259 . S
Co89 O90 2.061 . S
Co89 O95 2.052 . S
Co89 O97 2.135 . S
O90 Co89 2.061 . S
O90 C93 1.235 . S
C91 O94 1.238 . S
C91 O95 1.241 . S
C92 O85 1.247 . S
C92 O86 1.261 . S
C93 O88 1.259 . S
C93 O90 1.235 . S
O94 Co84 2.021 . S
O94 C91 1.238 . S
O95 Co89 2.052 . S
O95 C91 1.241 . S
O96 Co84 2.137 . S
O96 C87 1.247 . S
O97 Co84 2.244 . S
O97 C87 1.272 . S
O97 Co89 2.135 . S
Co98 O99 2.216 . S
Co98 O100 2.091 . S
Co98 O102 2.004 . S
Co98 O108 2.021 . S
Co98 O110 2.137 1_565 S
Co98 O111 2.244 1_565 S
O99 Co98 2.216 . S
O99 C106 1.247 . S
O100 Co98 2.091 . S
O100 C106 1.261 . S
C101 O110 1.247 . S
C101 O111 1.272 . S
O102 Co98 2.004 . S
O102 C107 1.259 . S
Co103 O104 2.061 . S
Co103 O109 2.052 . S
Co103 O111 2.135 1_565 S
O104 Co103 2.061 . S
O104 C107 1.235 . S
C105 O108 1.238 . S
C105 O109 1.241 . S
C106 O99 1.247 . S
C106 O100 1.261 . S
C107 O102 1.259 . S
C107 O104 1.235 . S
O108 Co98 2.021 . S
O108 C105 1.238 . S
O109 Co103 2.052 . S
O109 C105 1.241 . S
O110 Co98 2.137 1_545 S
O110 C101 1.247 . S
O111 Co98 2.244 1_545 S
O111 C101 1.272 . S
O111 Co103 2.135 1_545 S
Co112 O113 2.216 . S
Co112 O114 2.091 . S
Co112 O116 2.004 . S
Co112 O122 2.021 . S
Co112 O124 2.137 . S
Co112 O125 2.244 . S
O113 Co112 2.216 . S
O113 C120 1.247 . S
O114 Co112 2.091 . S
O114 C120 1.261 . S
C115 O124 1.247 1_655 S
C115 O125 1.272 1_655 S
O116 Co112 2.004 . S
O116 C121 1.259 . S
Co117 O118 2.061 . S
Co117 O123 2.052 . S
Co117 O125 2.135 . S
O118 Co117 2.061 . S
O118 C121 1.235 . S
C119 O122 1.238 . S
C119 O123 1.241 . S
C120 O113 1.247 . S
C120 O114 1.261 . S
C121 O116 1.259 . S
C121 O118 1.235 . S
O122 Co112 2.021 . S
O122 C119 1.238 . S
O123 Co117 2.052 . S
O123 C119 1.241 . S
O124 Co112 2.137 . S
O124 C115 1.247 1_455 S
O125 Co112 2.244 . S
O125 C115 1.272 1_455 S
O125 Co117 2.135 . S
Co126 O127 2.249 . S
Co126 O128 2.091 . S
Co126 O130 2.004 . S
Co126 O136 2.021 . S
Co126 O138 2.137 1_565 S
Co126 O139 2.244 1_565 S
O127 Co126 2.249 . S
O127 C134 1.249 . S
O128 Co126 2.091 . S
O128 C134 1.261 . S
C129 O138 1.247 . S
C129 O139 1.272 . S
O130 Co126 2.004 . S
O130 C135 1.259 . S
Co131 O132 2.061 . S
Co131 O137 2.052 . S
Co131 O139 2.135 1_565 S
O132 Co131 2.061 . S
O132 C135 1.235 . S
C133 O136 1.238 . S
C133 O137 1.241 . S
C134 O127 1.249 . S
C134 O128 1.261 . S
C135 O130 1.259 . S
C135 O132 1.235 . S
O136 Co126 2.021 . S
O136 C133 1.238 . S
O137 Co131 2.052 . S
O137 C133 1.241 . S
O138 Co126 2.137 1_545 S
O138 C129 1.247 . S
O139 Co126 2.244 1_545 S
O139 C129 1.272 . S
O139 Co131 2.135 1_545 S
Co140 O141 2.216 1_455 S
Co140 O142 2.091 1_455 S
Co140 O144 2.004 . S
Co140 O150 2.021 . S
Co140 O152 2.137 1_455 S
Co140 O153 2.244 . S
O141 Co140 2.216 1_655 S
O141 C148 1.247 . S
O142 Co140 2.091 1_655 S
O142 C148 1.261 . S
C143 O152 1.247 1_455 S
C143 O153 1.272 . S
O144 Co140 2.004 . S
O144 C149 1.259 . S
Co145 O146 2.061 . S
Co145 O151 2.052 . S
Co145 O153 2.135 . S
O146 Co145 2.061 . S
O146 C149 1.235 . S
C147 O150 1.238 . S
C147 O151 1.241 . S
C148 O141 1.247 . S
C148 O142 1.261 . S
C149 O144 1.259 . S
C149 O146 1.235 . S
O150 Co140 2.021 . S
O150 C147 1.238 . S
O151 Co145 2.052 . S
O151 C147 1.241 . S
O152 Co140 2.137 1_655 S
O152 C143 1.247 1_655 S
O153 Co140 2.244 . S
O153 C143 1.272 . S
O153 Co145 2.135 . S
Co154 O155 2.216 . S
Co154 O156 2.091 . S
Co154 O158 2.004 . S
Co154 O164 2.021 . S
Co154 O166 2.137 . S
Co154 O167 2.244 . S
O155 Co154 2.216 . S
O155 C162 1.247 . S
O156 Co154 2.091 . S
O156 C162 1.261 . S
C157 O166 1.247 . S
C157 O167 1.272 . S
O158 Co154 2.004 . S
O158 C163 1.259 . S
Co159 O160 2.061 . S
Co159 O165 2.052 . S
Co159 O167 2.135 . S
O160 Co159 2.061 . S
O160 C163 1.235 . S
C161 O164 1.238 . S
C161 O165 1.241 . S
C162 O155 1.247 . S
C162 O156 1.261 . S
C163 O158 1.259 . S
C163 O160 1.235 . S
O164 Co154 2.021 . S
O164 C161 1.238 . S
O165 Co159 2.052 . S
O165 C161 1.241 . S
O166 Co154 2.137 . S
O166 C157 1.247 . S
O167 Co154 2.244 . S
O167 C157 1.272 . S
O167 Co159 2.135 . S
Co168 O169 2.216 . S
Co168 O170 2.091 . S
Co168 O172 2.004 . S
Co168 O178 2.021 . S
Co168 O180 2.137 1_545 S
Co168 O181 2.244 . S
O169 Co168 2.216 . S
O169 C176 1.247 . S
O170 Co168 2.091 . S
O170 C176 1.261 . S
C171 O180 1.247 . S
C171 O181 1.272 1_565 S
O172 Co168 2.004 . S
O172 C177 1.259 . S
Co173 O174 2.061 . S
Co173 O179 2.052 . S
Co173 O181 2.135 . S
O174 Co173 2.061 . S
O174 C177 1.235 . S
C175 O178 1.238 . S
C175 O179 1.241 . S
C176 O169 1.247 . S
C176 O170 1.261 . S
C177 O172 1.259 . S
C177 O174 1.235 . S
O178 Co168 2.021 . S
O178 C175 1.238 . S
O179 Co173 2.052 . S
O179 C175 1.241 . S
O180 Co168 2.137 1_565 S
O180 C171 1.247 . S
O181 Co168 2.244 . S
O181 C171 1.272 1_545 S
O181 Co173 2.135 . S
Co182 O183 2.216 1_655 S
Co182 O184 2.091 1_655 S
Co182 O186 2.004 . S
Co182 O192 2.021 . S
Co182 O194 2.137 1_655 S
Co182 O195 2.244 . S
O183 Co182 2.216 1_455 S
O183 C190 1.247 . S
O184 Co182 2.091 1_455 S
O184 C190 1.261 . S
C185 O194 1.247 1_655 S
C185 O195 1.272 . S
O186 Co182 2.004 . S
O186 C191 1.259 . S
Co187 O188 2.061 . S
Co187 O193 2.052 . S
Co187 O195 2.135 . S
O188 Co187 2.061 . S
O188 C191 1.235 . S
C189 O192 1.238 . S
C189 O193 1.241 . S
C190 O183 1.247 . S
C190 O184 1.261 . S
C191 O186 1.259 . S
C191 O188 1.235 . S
O192 Co182 2.021 . S
O192 C189 1.238 . S
O193 Co187 2.052 . S
O193 C189 1.241 . S
O194 Co182 2.137 1_455 S
O194 C185 1.247 1_455 S
O195 Co182 2.244 . S
O195 C185 1.272 . S
O195 Co187 2.135 . S
Co196 O197 2.216 . S
Co196 O198 2.091 . S
Co196 O200 2.004 . S
Co196 O206 2.021 . S
Co196 O208 2.137 . S
Co196 O209 2.244 . S
O197 Co196 2.216 . S
O197 C204 1.247 . S
O198 Co196 2.091 . S
O198 C204 1.261 . S
C199 O208 1.247 . S
C199 O209 1.272 . S
O200 Co196 2.004 . S
O200 C205 1.259 . S
Co201 O202 2.061 . S
Co201 O207 2.052 . S
Co201 O209 2.135 . S
O202 Co201 2.061 . S
O202 C205 1.235 . S
C203 O206 1.238 . S
C203 O207 1.241 . S
C204 O197 1.247 . S
C204 O198 1.261 . S
C205 O200 1.259 . S
C205 O202 1.235 . S
O206 Co196 2.021 . S
O206 C203 1.238 . S
O207 Co201 2.052 . S
O207 C203 1.241 . S
O208 Co196 2.137 . S
O208 C199 1.247 . S
O209 Co196 2.244 . S
O209 C199 1.272 . S
O209 Co201 2.135 . S
Co210 O211 2.216 . S
Co210 O212 2.091 . S
Co210 O214 2.004 . S
Co210 O220 2.021 . S
Co210 O222 2.137 . S
Co210 O223 2.244 . S
O211 Co210 2.216 . S
O211 C218 1.247 . S
O212 Co210 2.091 . S
O212 C218 1.261 . S
C213 O222 1.247 . S
C213 O223 1.272 . S
O214 Co210 2.004 . S
O214 C219 1.259 . S
Co215 O216 2.061 . S
Co215 O221 2.052 . S
Co215 O223 2.135 . S
O216 Co215 2.061 . S
O216 C219 1.235 . S
C217 O220 1.238 . S
C217 O221 1.241 . S
C218 O211 1.247 . S
C218 O212 1.261 . S
C219 O214 1.259 . S
C219 O216 1.235 . S
O220 Co210 2.021 . S
O220 C217 1.238 . S
O221 Co215 2.052 . S
O221 C217 1.241 . S
O222 Co210 2.137 . S
O222 C213 1.247 . S
O223 Co210 2.244 . S
O223 C213 1.272 . S
O223 Co215 2.135 . S
Co224 O225 2.216 . S
Co224 O226 2.091 . S
Co224 O228 2.004 . S
Co224 O234 2.021 . S
Co224 O236 2.137 1_545 S
Co224 O237 2.244 . S
O225 Co224 2.216 . S
O225 C232 1.247 . S
O226 Co224 2.091 . S
O226 C232 1.261 . S
C227 O236 1.247 . S
C227 O237 1.272 1_565 S
O228 Co224 2.004 . S
O228 C233 1.259 . S
Co229 O230 2.061 . S
Co229 O235 2.052 . S
Co229 O237 2.135 . S
O230 Co229 2.061 . S
O230 C233 1.235 . S
C231 O234 1.238 . S
C231 O235 1.241 . S
C232 O225 1.247 . S
C232 O226 1.261 . S
C233 O228 1.259 . S
C233 O230 1.235 . S
O234 Co224 2.021 . S
O234 C231 1.238 . S
O235 Co229 2.052 . S
O235 C231 1.241 . S
O236 Co224 2.137 1_565 S
O236 C227 1.247 . S
O237 Co224 2.244 . S
O237 C227 1.272 1_545 S
O237 Co229 2.135 . S
Co238 O239 2.216 . S
Co238 O240 2.091 . S
Co238 O242 2.004 . S
Co238 O248 2.021 . S
Co238 O250 2.139 . S
Co238 O251 2.244 . S
O239 Co238 2.216 . S
O239 C246 1.247 . S
O240 Co238 2.091 . S
O240 C246 1.261 . S
C241 O250 1.247 1_455 S
C241 O251 1.272 1_455 S
O242 Co238 2.004 . S
O242 C247 1.259 . S
Co243 O244 2.061 . S
Co243 O249 2.052 . S
Co243 O251 2.135 . S
O244 Co243 2.061 . S
O244 C247 1.235 . S
C245 O248 1.238 . S
C245 O249 1.241 . S
C246 O239 1.247 . S
C246 O240 1.261 . S
C247 O242 1.259 . S
C247 O244 1.235 . S
O248 Co238 2.021 . S
O248 C245 1.238 . S
O249 Co243 2.052 . S
O249 C245 1.241 . S
O250 Co238 2.139 . S
O250 C241 1.247 1_655 S
O251 Co238 2.244 . S
O251 C241 1.272 1_655 S
O251 Co243 2.135 . S
C252 C253 1.560 . S
C252 H313 0.959 . S
C252 H314 0.959 . S
C252 H315 0.960 . S
C253 C252 1.560 . S
C253 O308 1.426 . S
C253 H312 0.980 . S
C254 C255 1.407 . S
C254 C259 1.418 . S
C254 O308 1.334 . S
C255 C254 1.407 . S
C255 C256 1.360 . S
C255 H316 0.929 . S
C256 C255 1.360 . S
C256 C257 1.401 . S
C256 C260 1.527 . S
C257 C256 1.401 . S
C257 C258 1.405 . S
C257 C290 1.587 . S
C258 C257 1.405 . S
C258 C259 1.332 . S
C258 C261 1.496 . S
C259 C254 1.418 . S
C259 C258 1.332 . S
C259 H317 0.929 . S
C260 C256 1.527 . S
C260 H318 0.959 . S
C260 H319 0.961 . S
C260 H320 0.961 . S
C261 C258 1.496 . S
C261 H321 0.960 . S
C261 H322 0.960 . S
C261 H323 0.961 . S
C262 C263 1.517 . S
C262 H325 0.961 . S
C262 H326 0.960 . S
C262 H327 0.959 . S
C263 C262 1.517 . S
C263 O311 1.468 . S
C263 H324 0.980 . S
C264 C265 1.349 . S
C264 C269 1.367 . S
C264 O311 1.408 . S
C265 C264 1.349 . S
C265 C266 1.407 . S
C265 H328 0.930 . S
C266 C265 1.407 . S
C266 C267 1.449 . S
C266 C270 1.535 . S
C267 C266 1.449 . S
C267 C268 1.384 . S
C267 C292 1.553 . S
C268 C267 1.384 . S
C268 C269 1.364 . S
C268 C271 1.450 . S
C269 C264 1.367 . S
C269 C268 1.364 . S
C269 H329 0.931 . S
C270 C266 1.535 . S
C270 H330 0.959 . S
C270 H331 0.961 . S
C270 H332 0.959 . S
C271 C268 1.450 . S
C271 H333 0.960 . S
C271 H334 0.960 . S
C271 H335 0.960 . S
C272 C273 1.309 . S
C272 C277 1.304 . S
C272 O310 1.435 . S
C273 C272 1.309 . S
C273 C274 1.476 . S
C273 H337 0.930 . S
C274 C273 1.476 . S
C274 C275 1.400 . S
C274 C278 1.567 . S
C275 C274 1.400 . S
C275 C276 1.373 . S
C275 C297 1.432 . S
C276 C275 1.373 . S
C276 C277 1.339 . S
C276 C279 1.530 . S
C277 C272 1.304 . S
C277 C276 1.339 . S
C277 H338 0.930 . S
C278 C274 1.567 . S
C278 H339 0.961 . S
C278 H340 0.960 . S
C278 H341 0.958 . S
C279 C276 1.530 . S
C279 H342 0.961 . S
C279 H343 0.960 . S
C279 H344 0.960 . S
C280 C281 1.530 . S
C280 H346 0.961 . S
C280 H347 0.961 . S
C280 H348 0.959 . S
C281 C280 1.530 . S
C281 O309 1.412 . S
C281 H345 0.980 . S
C282 C283 1.288 . S
C282 C287 1.377 . S
C282 O309 1.393 . S
C283 C282 1.288 . S
C283 C284 1.369 . S
C283 H349 0.932 . S
C284 C283 1.369 . S
C284 C285 1.398 . S
C284 C288 1.527 . S
C285 C284 1.398 . S
C285 C286 1.380 . S
C285 C299 1.497 . S
C286 C285 1.380 . S
C286 C287 1.383 . S
C286 C289 1.603 . S
C287 C282 1.377 . S
C287 C286 1.383 . S
C287 H350 0.929 . S
C288 C284 1.527 . S
C288 H351 0.961 . S
C288 H352 0.959 . S
C288 H353 0.959 . S
C289 C286 1.603 . S
C289 H354 0.960 . S
C289 H355 0.962 . S
C289 H356 0.961 . S
C290 C257 1.587 . S
C290 C291 1.360 . S
C290 C303 1.412 . S
C291 C290 1.360 . S
C291 C292 1.365 . S
C291 H357 0.929 . S
C292 C267 1.553 . S
C292 C291 1.365 . S
C292 C293 1.404 . S
C293 C292 1.404 . S
C293 C294 1.395 . S
C293 C304 1.451 . S
C294 C293 1.395 . S
C294 C295 1.322 . S
C294 H358 0.930 . S
C295 C294 1.322 . S
C295 C296 1.459 . S
C295 H359 0.929 . S
C296 C295 1.459 . S
C296 C297 1.445 . S
C296 C305 1.395 . S
C297 C275 1.432 . S
C297 C296 1.445 . S
C297 C298 1.370 . S
C298 C297 1.370 . S
C298 C299 1.438 . S
C298 H360 0.930 . S
C299 C285 1.497 . S
C299 C298 1.438 . S
C299 C300 1.360 . S
C300 C299 1.360 . S
C300 C301 1.401 . S
C300 C305 1.446 . S
C301 C300 1.401 . S
C301 C302 1.347 . S
C301 H361 0.929 . S
C302 C301 1.347 . S
C302 C303 1.455 . S
C302 H362 0.930 . S
C303 C290 1.412 . S
C303 C302 1.455 . S
C303 C304 1.331 . S
C304 C293 1.451 . S
C304 C303 1.331 . S
C304 C305 1.497 . S
C305 C296 1.395 . S
C305 C300 1.446 . S
C305 C304 1.497 . S
C306 C307 1.582 . S
C306 H363 0.962 . S
C306 H364 0.959 . S
C306 H365 0.958 . S
C307 C306 1.582 . S
C307 O310 1.458 . S
C307 H336 0.980 . S
O308 C253 1.426 . S
O308 C254 1.334 . S
O309 C281 1.412 . S
O309 C282 1.393 . S
O310 C272 1.435 . S
O310 C307 1.458 . S
O311 C263 1.468 . S
O311 C264 1.408 . S
H312 C253 0.980 . S
H313 C252 0.959 . S
H314 C252 0.959 . S
H315 C252 0.960 . S
H316 C255 0.929 . S
H317 C259 0.929 . S
H318 C260 0.959 . S
H319 C260 0.961 . S
H320 C260 0.961 . S
H321 C261 0.960 . S
H322 C261 0.960 . S
H323 C261 0.961 . S
H324 C263 0.980 . S
H325 C262 0.961 . S
H326 C262 0.960 . S
H327 C262 0.959 . S
H328 C265 0.930 . S
H329 C269 0.931 . S
H330 C270 0.959 . S
H331 C270 0.961 . S
H332 C270 0.959 . S
H333 C271 0.960 . S
H334 C271 0.960 . S
H335 C271 0.960 . S
H336 C307 0.980 . S
H337 C273 0.930 . S
H338 C277 0.930 . S
H339 C278 0.961 . S
H340 C278 0.960 . S
H341 C278 0.958 . S
H342 C279 0.961 . S
H343 C279 0.960 . S
H344 C279 0.960 . S
H345 C281 0.980 . S
H346 C280 0.961 . S
H347 C280 0.961 . S
H348 C280 0.959 . S
H349 C283 0.932 . S
H350 C287 0.929 . S
H351 C288 0.961 . S
H352 C288 0.959 . S
H353 C288 0.959 . S
H354 C289 0.960 . S
H355 C289 0.962 . S
H356 C289 0.961 . S
H357 C291 0.929 . S
H358 C294 0.930 . S
H359 C295 0.929 . S
H360 C298 0.930 . S
H361 C301 0.929 . S
H362 C302 0.930 . S
H363 C306 0.962 . S
H364 C306 0.959 . S
H365 C306 0.958 . S
C366 C367 1.560 . S
C366 H427 0.959 . S
C366 H428 0.959 . S
C366 H429 0.960 . S
C367 C366 1.560 . S
C367 O422 1.426 . S
C367 H426 0.980 . S
C368 C369 1.407 . S
C368 C373 1.418 . S
C368 O422 1.334 . S
C369 C368 1.407 . S
C369 C370 1.360 . S
C369 H430 0.929 . S
C370 C369 1.360 . S
C370 C371 1.401 . S
C370 C374 1.527 . S
C371 C370 1.401 . S
C371 C372 1.405 . S
C371 C404 1.587 . S
C372 C371 1.405 . S
C372 C373 1.332 . S
C372 C375 1.496 . S
C373 C368 1.418 . S
C373 C372 1.332 . S
C373 H431 0.929 . S
C374 C370 1.527 . S
C374 H432 0.959 . S
C374 H433 0.961 . S
C374 H434 0.961 . S
C375 C372 1.496 . S
C375 H435 0.960 . S
C375 H436 0.960 . S
C375 H437 0.961 . S
C376 C377 1.517 . S
C376 H439 0.961 . S
C376 H440 0.960 . S
C376 H441 0.959 . S
C377 C376 1.517 . S
C377 O425 1.468 . S
C377 H438 0.980 . S
C378 C379 1.349 . S
C378 C383 1.367 . S
C378 O425 1.408 . S
C379 C378 1.349 . S
C379 C380 1.407 . S
C379 H442 0.930 . S
C380 C379 1.407 . S
C380 C381 1.449 . S
C380 C384 1.535 . S
C381 C380 1.449 . S
C381 C382 1.384 . S
C381 C406 1.553 . S
C382 C381 1.384 . S
C382 C383 1.364 . S
C382 C385 1.450 . S
C383 C378 1.367 . S
C383 C382 1.364 . S
C383 H443 0.931 . S
C384 C380 1.535 . S
C384 H444 0.959 . S
C384 H445 0.961 . S
C384 H446 0.959 . S
C385 C382 1.450 . S
C385 H447 0.960 . S
C385 H448 0.960 . S
C385 H449 0.960 . S
C386 C387 1.309 . S
C386 C391 1.304 . S
C386 O424 1.435 . S
C387 C386 1.309 . S
C387 C388 1.476 . S
C387 H451 0.930 . S
C388 C387 1.476 . S
C388 C389 1.400 . S
C388 C392 1.567 . S
C389 C388 1.400 . S
C389 C390 1.373 . S
C389 C411 1.432 . S
C390 C389 1.373 . S
C390 C391 1.339 . S
C390 C393 1.530 . S
C391 C386 1.304 . S
C391 C390 1.339 . S
C391 H452 0.930 . S
C392 C388 1.567 . S
C392 H453 0.961 . S
C392 H454 0.960 . S
C392 H455 0.958 . S
C393 C390 1.530 . S
C393 H456 0.961 . S
C393 H457 0.960 . S
C393 H458 0.960 . S
C394 C395 1.530 . S
C394 H460 0.961 . S
C394 H461 0.961 . S
C394 H462 0.959 . S
C395 C394 1.530 . S
C395 O423 1.412 . S
C395 H459 0.980 . S
C396 C397 1.288 . S
C396 C401 1.377 . S
C396 O423 1.393 . S
C397 C396 1.288 . S
C397 C398 1.369 . S
C397 H463 0.932 . S
C398 C397 1.369 . S
C398 C399 1.398 . S
C398 C402 1.527 . S
C399 C398 1.398 . S
C399 C400 1.380 . S
C399 C413 1.497 . S
C400 C399 1.380 . S
C400 C401 1.383 . S
C400 C403 1.603 . S
C401 C396 1.377 . S
C401 C400 1.383 . S
C401 H464 0.929 . S
C402 C398 1.527 . S
C402 H465 0.961 . S
C402 H466 0.959 . S
C402 H467 0.959 . S
C403 C400 1.603 . S
C403 H468 0.960 . S
C403 H469 0.962 . S
C403 H470 0.961 . S
C404 C371 1.587 . S
C404 C405 1.360 . S
C404 C417 1.412 . S
C405 C404 1.360 . S
C405 C406 1.365 . S
C405 H471 0.929 . S
C406 C381 1.553 . S
C406 C405 1.365 . S
C406 C407 1.404 . S
C407 C406 1.404 . S
C407 C408 1.395 . S
C407 C418 1.451 . S
C408 C407 1.395 . S
C408 C409 1.322 . S
C408 H472 0.930 . S
C409 C408 1.322 . S
C409 C410 1.459 . S
C409 H473 0.929 . S
C410 C409 1.459 . S
C410 C411 1.445 . S
C410 C419 1.395 . S
C411 C389 1.432 . S
C411 C410 1.445 . S
C411 C412 1.370 . S
C412 C411 1.370 . S
C412 C413 1.438 . S
C412 H474 0.930 . S
C413 C399 1.497 . S
C413 C412 1.438 . S
C413 C414 1.360 . S
C414 C413 1.360 . S
C414 C415 1.401 . S
C414 C419 1.446 . S
C415 C414 1.401 . S
C415 C416 1.347 . S
C415 H475 0.929 . S
C416 C415 1.347 . S
C416 C417 1.455 . S
C416 H476 0.930 . S
C417 C404 1.412 . S
C417 C416 1.455 . S
C417 C418 1.331 . S
C418 C407 1.451 . S
C418 C417 1.331 . S
C418 C419 1.497 . S
C419 C410 1.395 . S
C419 C414 1.446 . S
C419 C418 1.497 . S
C420 C421 1.582 . S
C420 H477 0.962 . S
C420 H478 0.959 . S
C420 H479 0.958 . S
C421 C420 1.582 . S
C421 O424 1.458 . S
C421 H450 0.980 . S
O422 C367 1.426 . S
O422 C368 1.334 . S
O423 C395 1.412 . S
O423 C396 1.393 . S
O424 C386 1.435 . S
O424 C421 1.458 . S
O425 C377 1.468 . S
O425 C378 1.408 . S
H426 C367 0.980 . S
H427 C366 0.959 . S
H428 C366 0.959 . S
H429 C366 0.960 . S
H430 C369 0.929 . S
H431 C373 0.929 . S
H432 C374 0.959 . S
H433 C374 0.961 . S
H434 C374 0.961 . S
H435 C375 0.960 . S
H436 C375 0.960 . S
H437 C375 0.961 . S
H438 C377 0.980 . S
H439 C376 0.961 . S
H440 C376 0.960 . S
H441 C376 0.959 . S
H442 C379 0.930 . S
H443 C383 0.931 . S
H444 C384 0.959 . S
H445 C384 0.961 . S
H446 C384 0.959 . S
H447 C385 0.960 . S
H448 C385 0.960 . S
H449 C385 0.960 . S
H450 C421 0.980 . S
H451 C387 0.930 . S
H452 C391 0.930 . S
H453 C392 0.961 . S
H454 C392 0.960 . S
H455 C392 0.958 . S
H456 C393 0.961 . S
H457 C393 0.960 . S
H458 C393 0.960 . S
H459 C395 0.980 . S
H460 C394 0.961 . S
H461 C394 0.961 . S
H462 C394 0.959 . S
H463 C397 0.932 . S
H464 C401 0.929 . S
H465 C402 0.961 . S
H466 C402 0.959 . S
H467 C402 0.959 . S
H468 C403 0.960 . S
H469 C403 0.962 . S
H470 C403 0.961 . S
H471 C405 0.929 . S
H472 C408 0.930 . S
H473 C409 0.929 . S
H474 C412 0.930 . S
H475 C415 0.929 . S
H476 C416 0.930 . S
H477 C420 0.962 . S
H478 C420 0.959 . S
H479 C420 0.958 . S
C480 C481 1.560 . S
C480 H541 0.959 . S
C480 H542 0.959 . S
C480 H543 0.960 . S
C481 C480 1.560 . S
C481 O536 1.426 . S
C481 H540 0.980 . S
C482 C483 1.407 . S
C482 C487 1.418 . S
C482 O536 1.334 . S
C483 C482 1.407 . S
C483 C484 1.360 . S
C483 H544 0.929 . S
C484 C483 1.360 . S
C484 C485 1.401 . S
C484 C488 1.527 . S
C485 C484 1.401 . S
C485 C486 1.405 . S
C485 C518 1.587 . S
C486 C485 1.405 . S
C486 C487 1.332 . S
C486 C489 1.496 . S
C487 C482 1.418 . S
C487 C486 1.332 . S
C487 H545 0.929 . S
C488 C484 1.527 . S
C488 H546 0.959 . S
C488 H547 0.961 . S
C488 H548 0.961 . S
C489 C486 1.496 . S
C489 H549 0.960 . S
C489 H550 0.960 . S
C489 H551 0.961 . S
C490 C491 1.517 . S
C490 H553 0.961 . S
C490 H554 0.960 . S
C490 H555 0.959 . S
C491 C490 1.517 . S
C491 O539 1.468 . S
C491 H552 0.980 . S
C492 C493 1.349 . S
C492 C497 1.367 . S
C492 O539 1.408 . S
C493 C492 1.349 . S
C493 C494 1.407 . S
C493 H556 0.930 . S
C494 C493 1.407 . S
C494 C495 1.449 . S
C494 C498 1.535 . S
C495 C494 1.449 . S
C495 C496 1.384 . S
C495 C520 1.553 . S
C496 C495 1.384 . S
C496 C497 1.364 . S
C496 C499 1.450 . S
C497 C492 1.367 . S
C497 C496 1.364 . S
C497 H557 0.931 . S
C498 C494 1.535 . S
C498 H558 0.959 . S
C498 H559 0.961 . S
C498 H560 0.959 . S
C499 C496 1.450 . S
C499 H561 0.960 . S
C499 H562 0.960 . S
C499 H563 0.960 . S
C500 C501 1.309 . S
C500 C505 1.304 . S
C500 O538 1.435 . S
C501 C500 1.309 . S
C501 C502 1.476 . S
C501 H565 0.930 . S
C502 C501 1.476 . S
C502 C503 1.400 . S
C502 C506 1.567 . S
C503 C502 1.400 . S
C503 C504 1.373 . S
C503 C525 1.432 . S
C504 C503 1.373 . S
C504 C505 1.339 . S
C504 C507 1.530 . S
C505 C500 1.304 . S
C505 C504 1.339 . S
C505 H566 0.930 . S
C506 C502 1.567 . S
C506 H567 0.961 . S
C506 H568 0.960 . S
C506 H569 0.958 . S
C507 C504 1.530 . S
C507 H570 0.961 . S
C507 H571 0.960 . S
C507 H572 0.960 . S
C508 C509 1.530 . S
C508 H574 0.961 . S
C508 H575 0.961 . S
C508 H576 0.959 . S
C509 C508 1.530 . S
C509 O537 1.412 . S
C509 H573 0.980 . S
C510 C511 1.288 . S
C510 C515 1.377 . S
C510 O537 1.393 . S
C511 C510 1.288 . S
C511 C512 1.369 . S
C511 H577 0.932 . S
C512 C511 1.369 . S
C512 C513 1.398 . S
C512 C516 1.527 . S
C513 C512 1.398 . S
C513 C514 1.380 . S
C513 C527 1.497 . S
C514 C513 1.380 . S
C514 C515 1.383 . S
C514 C517 1.603 . S
C515 C510 1.377 . S
C515 C514 1.383 . S
C515 H578 0.929 . S
C516 C512 1.527 . S
C516 H579 0.961 . S
C516 H580 0.959 . S
C516 H581 0.959 . S
C517 C514 1.603 . S
C517 H582 0.960 . S
C517 H583 0.962 . S
C517 H584 0.961 . S
C518 C485 1.587 . S
C518 C519 1.360 . S
C518 C531 1.412 . S
C519 C518 1.360 . S
C519 C520 1.365 . S
C519 H585 0.929 . S
C520 C495 1.553 . S
C520 C519 1.365 . S
C520 C521 1.404 . S
C521 C520 1.404 . S
C521 C522 1.395 . S
C521 C532 1.451 . S
C522 C521 1.395 . S
C522 C523 1.322 . S
C522 H586 0.930 . S
C523 C522 1.322 . S
C523 C524 1.459 . S
C523 H587 0.929 . S
C524 C523 1.459 . S
C524 C525 1.445 . S
C524 C533 1.395 . S
C525 C503 1.432 . S
C525 C524 1.445 . S
C525 C526 1.370 . S
C526 C525 1.370 . S
C526 C527 1.438 . S
C526 H588 0.930 . S
C527 C513 1.497 . S
C527 C526 1.438 . S
C527 C528 1.360 . S
C528 C527 1.360 . S
C528 C529 1.401 . S
C528 C533 1.446 . S
C529 C528 1.401 . S
C529 C530 1.347 . S
C529 H589 0.929 . S
C530 C529 1.347 . S
C530 C531 1.455 . S
C530 H590 0.930 . S
C531 C518 1.412 . S
C531 C530 1.455 . S
C531 C532 1.331 . S
C532 C521 1.451 . S
C532 C531 1.331 . S
C532 C533 1.497 . S
C533 C524 1.395 . S
C533 C528 1.446 . S
C533 C532 1.497 . S
C534 C535 1.582 . S
C534 H591 0.962 . S
C534 H592 0.959 . S
C534 H593 0.958 . S
C535 C534 1.582 . S
C535 O538 1.458 . S
C535 H564 0.980 . S
O536 C481 1.426 . S
O536 C482 1.334 . S
O537 C509 1.412 . S
O537 C510 1.393 . S
O538 C500 1.435 . S
O538 C535 1.458 . S
O539 C491 1.468 . S
O539 C492 1.408 . S
H540 C481 0.980 . S
H541 C480 0.959 . S
H542 C480 0.959 . S
H543 C480 0.960 . S
H544 C483 0.929 . S
H545 C487 0.929 . S
H546 C488 0.959 . S
H547 C488 0.961 . S
H548 C488 0.961 . S
H549 C489 0.960 . S
H550 C489 0.960 . S
H551 C489 0.961 . S
H552 C491 0.980 . S
H553 C490 0.961 . S
H554 C490 0.960 . S
H555 C490 0.959 . S
H556 C493 0.930 . S
H557 C497 0.931 . S
H558 C498 0.959 . S
H559 C498 0.961 . S
H560 C498 0.959 . S
H561 C499 0.960 . S
H562 C499 0.960 . S
H563 C499 0.960 . S
H564 C535 0.980 . S
H565 C501 0.930 . S
H566 C505 0.930 . S
H567 C506 0.961 . S
H568 C506 0.960 . S
H569 C506 0.958 . S
H570 C507 0.961 . S
H571 C507 0.960 . S
H572 C507 0.960 . S
H573 C509 0.980 . S
H574 C508 0.961 . S
H575 C508 0.961 . S
H576 C508 0.959 . S
H577 C511 0.932 . S
H578 C515 0.929 . S
H579 C516 0.961 . S
H580 C516 0.959 . S
H581 C516 0.959 . S
H582 C517 0.960 . S
H583 C517 0.962 . S
H584 C517 0.961 . S
H585 C519 0.929 . S
H586 C522 0.930 . S
H587 C523 0.929 . S
H588 C526 0.930 . S
H589 C529 0.929 . S
H590 C530 0.930 . S
H591 C534 0.962 . S
H592 C534 0.959 . S
H593 C534 0.958 . S
C594 C595 1.560 . S
C594 H655 0.959 . S
C594 H656 0.959 . S
C594 H657 0.960 . S
C595 C594 1.560 . S
C595 O650 1.426 . S
C595 H654 0.980 . S
C596 C597 1.407 . S
C596 C601 1.418 . S
C596 O650 1.334 . S
C597 C596 1.407 . S
C597 C598 1.360 . S
C597 H658 0.929 . S
C598 C597 1.360 . S
C598 C599 1.401 . S
C598 C602 1.527 . S
C599 C598 1.401 . S
C599 C600 1.405 . S
C599 C632 1.587 . S
C600 C599 1.405 . S
C600 C601 1.332 . S
C600 C603 1.496 . S
C601 C596 1.418 . S
C601 C600 1.332 . S
C601 H659 0.929 . S
C602 C598 1.527 . S
C602 H660 0.959 . S
C602 H661 0.961 . S
C602 H662 0.961 . S
C603 C600 1.496 . S
C603 H663 0.960 . S
C603 H664 0.960 . S
C603 H665 0.961 . S
C604 C605 1.517 . S
C604 H667 0.961 . S
C604 H668 0.960 . S
C604 H669 0.959 . S
C605 C604 1.517 . S
C605 O653 1.468 . S
C605 H666 0.980 . S
C606 C607 1.349 . S
C606 C611 1.367 . S
C606 O653 1.408 . S
C607 C606 1.349 . S
C607 C608 1.407 . S
C607 H670 0.930 . S
C608 C607 1.407 . S
C608 C609 1.449 . S
C608 C612 1.535 . S
C609 C608 1.449 . S
C609 C610 1.384 . S
C609 C634 1.553 . S
C610 C609 1.384 . S
C610 C611 1.364 . S
C610 C613 1.450 . S
C611 C606 1.367 . S
C611 C610 1.364 . S
C611 H671 0.931 . S
C612 C608 1.535 . S
C612 H672 0.959 . S
C612 H673 0.961 . S
C612 H674 0.959 . S
C613 C610 1.450 . S
C613 H675 0.960 . S
C613 H676 0.960 . S
C613 H677 0.960 . S
C614 C615 1.309 . S
C614 C619 1.304 . S
C614 O652 1.435 . S
C615 C614 1.309 . S
C615 C616 1.476 . S
C615 H679 0.930 . S
C616 C615 1.476 . S
C616 C617 1.400 . S
C616 C620 1.567 . S
C617 C616 1.400 . S
C617 C618 1.373 . S
C617 C639 1.432 . S
C618 C617 1.373 . S
C618 C619 1.339 . S
C618 C621 1.530 . S
C619 C614 1.304 . S
C619 C618 1.339 . S
C619 H680 0.930 . S
C620 C616 1.567 . S
C620 H681 0.961 . S
C620 H682 0.960 . S
C620 H683 0.958 . S
C621 C618 1.530 . S
C621 H684 0.961 . S
C621 H685 0.960 . S
C621 H686 0.960 . S
C622 C623 1.530 . S
C622 H688 0.961 . S
C622 H689 0.961 . S
C622 H690 0.959 . S
C623 C622 1.530 . S
C623 O651 1.412 . S
C623 H687 0.980 . S
C624 C625 1.288 . S
C624 C629 1.377 . S
C624 O651 1.393 . S
C625 C624 1.288 . S
C625 C626 1.369 . S
C625 H691 0.932 . S
C626 C625 1.369 . S
C626 C627 1.398 . S
C626 C630 1.527 . S
C627 C626 1.398 . S
C627 C628 1.380 . S
C627 C641 1.497 . S
C628 C627 1.380 . S
C628 C629 1.383 . S
C628 C631 1.603 . S
C629 C624 1.377 . S
C629 C628 1.383 . S
C629 H692 0.929 . S
C630 C626 1.527 . S
C630 H693 0.961 . S
C630 H694 0.959 . S
C630 H695 0.959 . S
C631 C628 1.603 . S
C631 H696 0.960 . S
C631 H697 0.962 . S
C631 H698 0.961 . S
C632 C599 1.587 . S
C632 C633 1.360 . S
C632 C645 1.412 . S
C633 C632 1.360 . S
C633 C634 1.365 . S
C633 H699 0.929 . S
C634 C609 1.553 . S
C634 C633 1.365 . S
C634 C635 1.404 . S
C635 C634 1.404 . S
C635 C636 1.395 . S
C635 C646 1.451 . S
C636 C635 1.395 . S
C636 C637 1.322 . S
C636 H700 0.930 . S
C637 C636 1.322 . S
C637 C638 1.459 . S
C637 H701 0.929 . S
C638 C637 1.459 . S
C638 C639 1.445 . S
C638 C647 1.395 . S
C639 C617 1.432 . S
C639 C638 1.445 . S
C639 C640 1.370 . S
C640 C639 1.370 . S
C640 C641 1.438 . S
C640 H702 0.930 . S
C641 C627 1.497 . S
C641 C640 1.438 . S
C641 C642 1.360 . S
C642 C641 1.360 . S
C642 C643 1.401 . S
C642 C647 1.446 . S
C643 C642 1.401 . S
C643 C644 1.347 . S
C643 H703 0.929 . S
C644 C643 1.347 . S
C644 C645 1.455 . S
C644 H704 0.930 . S
C645 C632 1.412 . S
C645 C644 1.455 . S
C645 C646 1.331 . S
C646 C635 1.451 . S
C646 C645 1.331 . S
C646 C647 1.497 . S
C647 C638 1.395 . S
C647 C642 1.446 . S
C647 C646 1.497 . S
C648 C649 1.582 . S
C648 H705 0.962 . S
C648 H706 0.959 . S
C648 H707 0.958 . S
C649 C648 1.582 . S
C649 O652 1.458 . S
C649 H678 0.980 . S
O650 C595 1.426 . S
O650 C596 1.334 . S
O651 C623 1.412 . S
O651 C624 1.393 . S
O652 C614 1.435 . S
O652 C649 1.458 . S
O653 C605 1.468 . S
O653 C606 1.408 . S
H654 C595 0.980 . S
H655 C594 0.959 . S
H656 C594 0.959 . S
H657 C594 0.960 . S
H658 C597 0.929 . S
H659 C601 0.929 . S
H660 C602 0.959 . S
H661 C602 0.961 . S
H662 C602 0.961 . S
H663 C603 0.960 . S
H664 C603 0.960 . S
H665 C603 0.961 . S
H666 C605 0.980 . S
H667 C604 0.961 . S
H668 C604 0.960 . S
H669 C604 0.959 . S
H670 C607 0.930 . S
H671 C611 0.931 . S
H672 C612 0.959 . S
H673 C612 0.961 . S
H674 C612 0.959 . S
H675 C613 0.960 . S
H676 C613 0.960 . S
H677 C613 0.960 . S
H678 C649 0.980 . S
H679 C615 0.930 . S
H680 C619 0.930 . S
H681 C620 0.961 . S
H682 C620 0.960 . S
H683 C620 0.958 . S
H684 C621 0.961 . S
H685 C621 0.960 . S
H686 C621 0.960 . S
H687 C623 0.980 . S
H688 C622 0.961 . S
H689 C622 0.961 . S
H690 C622 0.959 . S
H691 C625 0.932 . S
H692 C629 0.929 . S
H693 C630 0.961 . S
H694 C630 0.959 . S
H695 C630 0.959 . S
H696 C631 0.960 . S
H697 C631 0.962 . S
H698 C631 0.961 . S
H699 C633 0.929 . S
H700 C636 0.930 . S
H701 C637 0.929 . S
H702 C640 0.930 . S
H703 C643 0.929 . S
H704 C644 0.930 . S
H705 C648 0.962 . S
H706 C648 0.959 . S
H707 C648 0.958 . S
C708 C709 1.560 . S
C708 H769 0.959 . S
C708 H770 0.959 . S
C708 H771 0.960 . S
C709 C708 1.560 . S
C709 O764 1.426 . S
C709 H768 0.980 . S
C710 C711 1.407 . S
C710 C715 1.418 . S
C710 O764 1.334 . S
C711 C710 1.407 . S
C711 C712 1.360 . S
C711 H772 0.929 . S
C712 C711 1.360 . S
C712 C713 1.401 . S
C712 C716 1.527 . S
C713 C712 1.401 . S
C713 C714 1.405 . S
C713 C746 1.587 . S
C714 C713 1.405 . S
C714 C715 1.332 . S
C714 C717 1.496 . S
C715 C710 1.418 . S
C715 C714 1.332 . S
C715 H773 0.929 . S
C716 C712 1.527 . S
C716 H774 0.959 . S
C716 H775 0.961 . S
C716 H776 0.961 . S
C717 C714 1.496 . S
C717 H777 0.960 . S
C717 H778 0.960 . S
C717 H779 0.961 . S
C718 C719 1.517 . S
C718 H781 0.961 . S
C718 H782 0.960 . S
C718 H783 0.959 . S
C719 C718 1.517 . S
C719 O767 1.468 . S
C719 H780 0.980 . S
C720 C721 1.349 . S
C720 C725 1.367 . S
C720 O767 1.408 . S
C721 C720 1.349 . S
C721 C722 1.407 . S
C721 H784 0.930 . S
C722 C721 1.407 . S
C722 C723 1.449 . S
C722 C726 1.535 . S
C723 C722 1.449 . S
C723 C724 1.384 . S
C723 C748 1.553 . S
C724 C723 1.384 . S
C724 C725 1.364 . S
C724 C727 1.450 . S
C725 C720 1.367 . S
C725 C724 1.364 . S
C725 H785 0.931 . S
C726 C722 1.535 . S
C726 H786 0.959 . S
C726 H787 0.961 . S
C726 H788 0.959 . S
C727 C724 1.450 . S
C727 H789 0.960 . S
C727 H790 0.960 . S
C727 H791 0.960 . S
C728 C729 1.309 . S
C728 C733 1.304 . S
C728 O766 1.435 . S
C729 C728 1.309 . S
C729 C730 1.476 . S
C729 H793 0.930 . S
C730 C729 1.476 . S
C730 C731 1.400 . S
C730 C734 1.567 . S
C731 C730 1.400 . S
C731 C732 1.373 . S
C731 C753 1.432 . S
C732 C731 1.373 . S
C732 C733 1.339 . S
C732 C735 1.530 . S
C733 C728 1.304 . S
C733 C732 1.339 . S
C733 H794 0.930 . S
C734 C730 1.567 . S
C734 H795 0.961 . S
C734 H796 0.960 . S
C734 H797 0.958 . S
C735 C732 1.530 . S
C735 H798 0.961 . S
C735 H799 0.960 . S
C735 H800 0.960 . S
C736 C737 1.530 . S
C736 H802 0.961 . S
C736 H803 0.961 . S
C736 H804 0.959 . S
C737 C736 1.530 . S
C737 O765 1.412 . S
C737 H801 0.980 . S
C738 C739 1.288 . S
C738 C743 1.377 . S
C738 O765 1.393 . S
C739 C738 1.288 . S
C739 C740 1.369 . S
C739 H805 0.932 . S
C740 C739 1.369 . S
C740 C741 1.398 . S
C740 C744 1.527 . S
C741 C740 1.398 . S
C741 C742 1.380 . S
C741 C755 1.497 . S
C742 C741 1.380 . S
C742 C743 1.383 . S
C742 C745 1.603 . S
C743 C738 1.377 . S
C743 C742 1.383 . S
C743 H806 0.929 . S
C744 C740 1.527 . S
C744 H807 0.961 . S
C744 H808 0.959 . S
C744 H809 0.959 . S
C745 C742 1.603 . S
C745 H810 0.960 . S
C745 H811 0.962 . S
C745 H812 0.961 . S
C746 C713 1.587 . S
C746 C747 1.360 . S
C746 C759 1.412 . S
C747 C746 1.360 . S
C747 C748 1.365 . S
C747 H813 0.929 . S
C748 C723 1.553 . S
C748 C747 1.365 . S
C748 C749 1.404 . S
C749 C748 1.404 . S
C749 C750 1.395 . S
C749 C760 1.451 . S
C750 C749 1.395 . S
C750 C751 1.322 . S
C750 H814 0.930 . S
C751 C750 1.322 . S
C751 C752 1.459 . S
C751 H815 0.929 . S
C752 C751 1.459 . S
C752 C753 1.445 . S
C752 C761 1.395 . S
C753 C731 1.432 . S
C753 C752 1.445 . S
C753 C754 1.370 . S
C754 C753 1.370 . S
C754 C755 1.438 . S
C754 H816 0.930 . S
C755 C741 1.497 . S
C755 C754 1.438 . S
C755 C756 1.360 . S
C756 C755 1.360 . S
C756 C757 1.401 . S
C756 C761 1.446 . S
C757 C756 1.401 . S
C757 C758 1.347 . S
C757 H817 0.929 . S
C758 C757 1.347 . S
C758 C759 1.455 . S
C758 H818 0.930 . S
C759 C746 1.412 . S
C759 C758 1.455 . S
C759 C760 1.331 . S
C760 C749 1.451 . S
C760 C759 1.331 . S
C760 C761 1.497 . S
C761 C752 1.395 . S
C761 C756 1.446 . S
C761 C760 1.497 . S
C762 C763 1.582 . S
C762 H819 0.962 . S
C762 H820 0.959 . S
C762 H821 0.958 . S
C763 C762 1.582 . S
C763 O766 1.458 . S
C763 H792 0.980 . S
O764 C709 1.426 . S
O764 C710 1.334 . S
O765 C737 1.412 . S
O765 C738 1.393 . S
O766 C728 1.435 . S
O766 C763 1.458 . S
O767 C719 1.468 . S
O767 C720 1.408 . S
H768 C709 0.980 . S
H769 C708 0.959 . S
H770 C708 0.959 . S
H771 C708 0.960 . S
H772 C711 0.929 . S
H773 C715 0.929 . S
H774 C716 0.959 . S
H775 C716 0.961 . S
H776 C716 0.961 . S
H777 C717 0.960 . S
H778 C717 0.960 . S
H779 C717 0.961 . S
H780 C719 0.980 . S
H781 C718 0.961 . S
H782 C718 0.960 . S
H783 C718 0.959 . S
H784 C721 0.930 . S
H785 C725 0.931 . S
H786 C726 0.959 . S
H787 C726 0.961 . S
H788 C726 0.959 . S
H789 C727 0.960 . S
H790 C727 0.960 . S
H791 C727 0.960 . S
H792 C763 0.980 . S
H793 C729 0.930 . S
H794 C733 0.930 . S
H795 C734 0.961 . S
H796 C734 0.960 . S
H797 C734 0.958 . S
H798 C735 0.961 . S
H799 C735 0.960 . S
H800 C735 0.960 . S
H801 C737 0.980 . S
H802 C736 0.961 . S
H803 C736 0.961 . S
H804 C736 0.959 . S
H805 C739 0.932 . S
H806 C743 0.929 . S
H807 C744 0.961 . S
H808 C744 0.959 . S
H809 C744 0.959 . S
H810 C745 0.960 . S
H811 C745 0.962 . S
H812 C745 0.961 . S
H813 C747 0.929 . S
H814 C750 0.930 . S
H815 C751 0.929 . S
H816 C754 0.930 . S
H817 C757 0.929 . S
H818 C758 0.930 . S
H819 C762 0.962 . S
H820 C762 0.959 . S
H821 C762 0.958 . S
C822 C823 1.560 . S
C822 H883 0.959 . S
C822 H884 0.959 . S
C822 H885 0.960 . S
C823 C822 1.560 . S
C823 O878 1.426 . S
C823 H882 0.980 . S
C824 C825 1.407 . S
C824 C829 1.418 . S
C824 O878 1.334 . S
C825 C824 1.407 . S
C825 C826 1.360 . S
C825 H886 0.929 . S
C826 C825 1.360 . S
C826 C827 1.401 . S
C826 C830 1.527 . S
C827 C826 1.401 . S
C827 C828 1.405 . S
C827 C860 1.587 . S
C828 C827 1.405 . S
C828 C829 1.332 . S
C828 C831 1.496 . S
C829 C824 1.418 . S
C829 C828 1.332 . S
C829 H887 0.929 . S
C830 C826 1.527 . S
C830 H888 0.959 . S
C830 H889 0.961 . S
C830 H890 0.961 . S
C831 C828 1.496 . S
C831 H891 0.960 . S
C831 H892 0.960 . S
C831 H893 0.961 . S
C832 C833 1.517 . S
C832 H895 0.961 . S
C832 H896 0.960 . S
C832 H897 0.959 . S
C833 C832 1.517 . S
C833 O881 1.468 . S
C833 H894 0.980 . S
C834 C835 1.349 . S
C834 C839 1.367 . S
C834 O881 1.408 . S
C835 C834 1.349 . S
C835 C836 1.407 . S
C835 H898 0.930 . S
C836 C835 1.407 . S
C836 C837 1.449 . S
C836 C840 1.535 . S
C837 C836 1.449 . S
C837 C838 1.384 . S
C837 C862 1.553 . S
C838 C837 1.384 . S
C838 C839 1.364 . S
C838 C841 1.450 . S
C839 C834 1.367 . S
C839 C838 1.364 . S
C839 H899 0.931 . S
C840 C836 1.535 . S
C840 H900 0.959 . S
C840 H901 0.961 . S
C840 H902 0.959 . S
C841 C838 1.450 . S
C841 H903 0.960 . S
C841 H904 0.960 . S
C841 H905 0.960 . S
C842 C843 1.309 . S
C842 C847 1.304 . S
C842 O880 1.435 . S
C843 C842 1.309 . S
C843 C844 1.476 . S
C843 H907 0.930 . S
C844 C843 1.476 . S
C844 C845 1.400 . S
C844 C848 1.567 . S
C845 C844 1.400 . S
C845 C846 1.373 . S
C845 C867 1.432 . S
C846 C845 1.373 . S
C846 C847 1.339 . S
C846 C849 1.530 . S
C847 C842 1.304 . S
C847 C846 1.339 . S
C847 H908 0.930 . S
C848 C844 1.567 . S
C848 H909 0.961 . S
C848 H910 0.960 . S
C848 H911 0.958 . S
C849 C846 1.530 . S
C849 H912 0.961 . S
C849 H913 0.960 . S
C849 H914 0.960 . S
C850 C851 1.530 . S
C850 H916 0.961 . S
C850 H917 0.961 . S
C850 H918 0.959 . S
C851 C850 1.530 . S
C851 O879 1.412 . S
C851 H915 0.980 . S
C852 C853 1.288 . S
C852 C857 1.377 . S
C852 O879 1.393 . S
C853 C852 1.288 . S
C853 C854 1.369 . S
C853 H919 0.932 . S
C854 C853 1.369 . S
C854 C855 1.398 . S
C854 C858 1.527 . S
C855 C854 1.398 . S
C855 C856 1.380 . S
C855 C869 1.497 . S
C856 C855 1.380 . S
C856 C857 1.383 . S
C856 C859 1.603 . S
C857 C852 1.377 . S
C857 C856 1.383 . S
C857 H920 0.929 . S
C858 C854 1.527 . S
C858 H921 0.961 . S
C858 H922 0.959 . S
C858 H923 0.959 . S
C859 C856 1.603 . S
C859 H924 0.960 . S
C859 H925 0.962 . S
C859 H926 0.961 . S
C860 C827 1.587 . S
C860 C861 1.360 . S
C860 C873 1.412 . S
C861 C860 1.360 . S
C861 C862 1.365 . S
C861 H927 0.929 . S
C862 C837 1.553 . S
C862 C861 1.365 . S
C862 C863 1.404 . S
C863 C862 1.404 . S
C863 C864 1.395 . S
C863 C874 1.451 . S
C864 C863 1.395 . S
C864 C865 1.322 . S
C864 H928 0.930 . S
C865 C864 1.322 . S
C865 C866 1.459 . S
C865 H929 0.929 . S
C866 C865 1.459 . S
C866 C867 1.445 . S
C866 C875 1.395 . S
C867 C845 1.432 . S
C867 C866 1.445 . S
C867 C868 1.370 . S
C868 C867 1.370 . S
C868 C869 1.438 . S
C868 H930 0.930 . S
C869 C855 1.497 . S
C869 C868 1.438 . S
C869 C870 1.360 . S
C870 C869 1.360 . S
C870 C871 1.401 . S
C870 C875 1.446 . S
C871 C870 1.401 . S
C871 C872 1.347 . S
C871 H931 0.929 . S
C872 C871 1.347 . S
C872 C873 1.455 . S
C872 H932 0.930 . S
C873 C860 1.412 . S
C873 C872 1.455 . S
C873 C874 1.331 . S
C874 C863 1.451 . S
C874 C873 1.331 . S
C874 C875 1.497 . S
C875 C866 1.395 . S
C875 C870 1.446 . S
C875 C874 1.497 . S
C876 C877 1.582 . S
C876 H933 0.962 . S
C876 H934 0.959 . S
C876 H935 0.958 . S
C877 C876 1.582 . S
C877 O880 1.458 . S
C877 H906 0.980 . S
O878 C823 1.426 . S
O878 C824 1.334 . S
O879 C851 1.412 . S
O879 C852 1.393 . S
O880 C842 1.435 . S
O880 C877 1.458 . S
O881 C833 1.468 . S
O881 C834 1.408 . S
H882 C823 0.980 . S
H883 C822 0.959 . S
H884 C822 0.959 . S
H885 C822 0.960 . S
H886 C825 0.929 . S
H887 C829 0.929 . S
H888 C830 0.959 . S
H889 C830 0.961 . S
H890 C830 0.961 . S
H891 C831 0.960 . S
H892 C831 0.960 . S
H893 C831 0.961 . S
H894 C833 0.980 . S
H895 C832 0.961 . S
H896 C832 0.960 . S
H897 C832 0.959 . S
H898 C835 0.930 . S
H899 C839 0.931 . S
H900 C840 0.959 . S
H901 C840 0.961 . S
H902 C840 0.959 . S
H903 C841 0.960 . S
H904 C841 0.960 . S
H905 C841 0.960 . S
H906 C877 0.980 . S
H907 C843 0.930 . S
H908 C847 0.930 . S
H909 C848 0.961 . S
H910 C848 0.960 . S
H911 C848 0.958 . S
H912 C849 0.961 . S
H913 C849 0.960 . S
H914 C849 0.960 . S
H915 C851 0.980 . S
H916 C850 0.961 . S
H917 C850 0.961 . S
H918 C850 0.959 . S
H919 C853 0.932 . S
H920 C857 0.929 . S
H921 C858 0.961 . S
H922 C858 0.959 . S
H923 C858 0.959 . S
H924 C859 0.960 . S
H925 C859 0.962 . S
H926 C859 0.961 . S
H927 C861 0.929 . S
H928 C864 0.930 . S
H929 C865 0.929 . S
H930 C868 0.930 . S
H931 C871 0.929 . S
H932 C872 0.930 . S
H933 C876 0.962 . S
H934 C876 0.959 . S
H935 C876 0.958 . S
C936 C937 1.560 . S
C936 H997 0.959 . S
C936 H998 0.959 . S
C936 H999 0.960 . S
C937 C936 1.560 . S
C937 O992 1.426 . S
C937 H996 0.980 . S
C938 C939 1.407 . S
C938 C943 1.418 . S
C938 O992 1.334 . S
C939 C938 1.407 . S
C939 C940 1.360 . S
C939 H1000 0.929 . S
C940 C939 1.360 . S
C940 C941 1.401 . S
C940 C944 1.527 . S
C941 C940 1.401 . S
C941 C942 1.405 . S
C941 C974 1.587 . S
C942 C941 1.405 . S
C942 C943 1.332 . S
C942 C945 1.496 . S
C943 C938 1.418 . S
C943 C942 1.332 . S
C943 H1001 0.929 . S
C944 C940 1.527 . S
C944 H1002 0.959 . S
C944 H1003 0.961 . S
C944 H1004 0.961 . S
C945 C942 1.496 . S
C945 H1005 0.960 . S
C945 H1006 0.960 . S
C945 H1007 0.961 . S
C946 C947 1.517 . S
C946 H1009 0.961 . S
C946 H1010 0.960 . S
C946 H1011 0.959 . S
C947 C946 1.517 . S
C947 O995 1.468 . S
C947 H1008 0.980 . S
C948 C949 1.349 . S
C948 C953 1.367 . S
C948 O995 1.408 . S
C949 C948 1.349 . S
C949 C950 1.407 . S
C949 H1012 0.930 . S
C950 C949 1.407 . S
C950 C951 1.449 . S
C950 C954 1.535 . S
C951 C950 1.449 . S
C951 C952 1.384 . S
C951 C976 1.553 . S
C952 C951 1.384 . S
C952 C953 1.364 . S
C952 C955 1.450 . S
C953 C948 1.367 . S
C953 C952 1.364 . S
C953 H1013 0.931 . S
C954 C950 1.535 . S
C954 H1014 0.959 . S
C954 H1015 0.961 . S
C954 H1016 0.959 . S
C955 C952 1.450 . S
C955 H1017 0.960 . S
C955 H1018 0.960 . S
C955 H1019 0.960 . S
C956 C957 1.309 . S
C956 C961 1.304 . S
C956 O994 1.435 . S
C957 C956 1.309 . S
C957 C958 1.476 . S
C957 H1021 0.930 . S
C958 C957 1.476 . S
C958 C959 1.400 . S
C958 C962 1.567 . S
C959 C958 1.400 . S
C959 C960 1.373 . S
C959 C981 1.432 . S
C960 C959 1.373 . S
C960 C961 1.339 . S
C960 C963 1.530 . S
C961 C956 1.304 . S
C961 C960 1.339 . S
C961 H1022 0.930 . S
C962 C958 1.567 . S
C962 H1023 0.961 . S
C962 H1024 0.960 . S
C962 H1025 0.958 . S
C963 C960 1.530 . S
C963 H1026 0.961 . S
C963 H1027 0.960 . S
C963 H1028 0.960 . S
C964 C965 1.530 . S
C964 H1030 0.961 . S
C964 H1031 0.961 . S
C964 H1032 0.959 . S
C965 C964 1.530 . S
C965 O993 1.412 . S
C965 H1029 0.980 . S
C966 C967 1.288 . S
C966 C971 1.377 . S
C966 O993 1.393 . S
C967 C966 1.288 . S
C967 C968 1.369 . S
C967 H1033 0.932 . S
C968 C967 1.369 . S
C968 C969 1.398 . S
C968 C972 1.527 . S
C969 C968 1.398 . S
C969 C970 1.380 . S
C969 C983 1.497 . S
C970 C969 1.380 . S
C970 C971 1.383 . S
C970 C973 1.603 . S
C971 C966 1.377 . S
C971 C970 1.383 . S
C971 H1034 0.929 . S
C972 C968 1.527 . S
C972 H1035 0.961 . S
C972 H1036 0.959 . S
C972 H1037 0.959 . S
C973 C970 1.603 . S
C973 H1038 0.960 . S
C973 H1039 0.962 . S
C973 H1040 0.961 . S
C974 C941 1.587 . S
C974 C975 1.360 . S
C974 C987 1.412 . S
C975 C974 1.360 . S
C975 C976 1.365 . S
C975 H1041 0.929 . S
C976 C951 1.553 . S
C976 C975 1.365 . S
C976 C977 1.404 . S
C977 C976 1.404 . S
C977 C978 1.395 . S
C977 C988 1.451 . S
C978 C977 1.395 . S
C978 C979 1.322 . S
C978 H1042 0.930 . S
C979 C978 1.322 . S
C979 C980 1.459 . S
C979 H1043 0.929 . S
C980 C979 1.459 . S
C980 C981 1.445 . S
C980 C989 1.395 . S
C981 C959 1.432 . S
C981 C980 1.445 . S
C981 C982 1.370 . S
C982 C981 1.370 . S
C982 C983 1.438 . S
C982 H1044 0.930 . S
C983 C969 1.497 . S
C983 C982 1.438 . S
C983 C984 1.360 . S
C984 C983 1.360 . S
C984 C985 1.401 . S
C984 C989 1.446 . S
C985 C984 1.401 . S
C985 C986 1.347 . S
C985 H1045 0.929 . S
C986 C985 1.347 . S
C986 C987 1.455 . S
C986 H1046 0.930 . S
C987 C974 1.412 . S
C987 C986 1.455 . S
C987 C988 1.331 . S
C988 C977 1.451 . S
C988 C987 1.331 . S
C988 C989 1.497 . S
C989 C980 1.395 . S
C989 C984 1.446 . S
C989 C988 1.497 . S
C990 C991 1.582 . S
C990 H1047 0.962 . S
C990 H1048 0.959 . S
C990 H1049 0.958 . S
C991 C990 1.582 . S
C991 O994 1.458 . S
C991 H1020 0.980 . S
O992 C937 1.426 . S
O992 C938 1.334 . S
O993 C965 1.412 . S
O993 C966 1.393 . S
O994 C956 1.435 . S
O994 C991 1.458 . S
O995 C947 1.468 . S
O995 C948 1.408 . S
H996 C937 0.980 . S
H997 C936 0.959 . S
H998 C936 0.959 . S
H999 C936 0.960 . S
H1000 C939 0.929 . S
H1001 C943 0.929 . S
H1002 C944 0.959 . S
H1003 C944 0.961 . S
H1004 C944 0.961 . S
H1005 C945 0.960 . S
H1006 C945 0.960 . S
H1007 C945 0.961 . S
H1008 C947 0.980 . S
H1009 C946 0.961 . S
H1010 C946 0.960 . S
H1011 C946 0.959 . S
H1012 C949 0.930 . S
H1013 C953 0.931 . S
H1014 C954 0.959 . S
H1015 C954 0.961 . S
H1016 C954 0.959 . S
H1017 C955 0.960 . S
H1018 C955 0.960 . S
H1019 C955 0.960 . S
H1020 C991 0.980 . S
H1021 C957 0.930 . S
H1022 C961 0.930 . S
H1023 C962 0.961 . S
H1024 C962 0.960 . S
H1025 C962 0.958 . S
H1026 C963 0.961 . S
H1027 C963 0.960 . S
H1028 C963 0.960 . S
H1029 C965 0.980 . S
H1030 C964 0.961 . S
H1031 C964 0.961 . S
H1032 C964 0.959 . S
H1033 C967 0.932 . S
H1034 C971 0.929 . S
H1035 C972 0.961 . S
H1036 C972 0.959 . S
H1037 C972 0.959 . S
H1038 C973 0.960 . S
H1039 C973 0.962 . S
H1040 C973 0.961 . S
H1041 C975 0.929 . S
H1042 C978 0.930 . S
H1043 C979 0.929 . S
H1044 C982 0.930 . S
H1045 C985 0.929 . S
H1046 C986 0.930 . S
H1047 C990 0.962 . S
H1048 C990 0.959 . S
H1049 C990 0.958 . S
C1050 C1051 1.560 . S
C1050 H1111 0.959 . S
C1050 H1112 0.959 . S
C1050 H1113 0.960 . S
C1051 C1050 1.560 . S
C1051 O1106 1.426 . S
C1051 H1110 0.980 . S
C1052 C1053 1.407 . S
C1052 C1057 1.418 . S
C1052 O1106 1.334 . S
C1053 C1052 1.407 . S
C1053 C1054 1.360 . S
C1053 H1114 0.929 . S
C1054 C1053 1.360 . S
C1054 C1055 1.401 . S
C1054 C1058 1.527 . S
C1055 C1054 1.401 . S
C1055 C1056 1.405 . S
C1055 C1088 1.587 . S
C1056 C1055 1.405 . S
C1056 C1057 1.332 . S
C1056 C1059 1.496 . S
C1057 C1052 1.418 . S
C1057 C1056 1.332 . S
C1057 H1115 0.929 . S
C1058 C1054 1.527 . S
C1058 H1116 0.959 . S
C1058 H1117 0.961 . S
C1058 H1118 0.961 . S
C1059 C1056 1.496 . S
C1059 H1119 0.960 . S
C1059 H1120 0.960 . S
C1059 H1121 0.961 . S
C1060 C1061 1.517 . S
C1060 H1123 0.961 . S
C1060 H1124 0.960 . S
C1060 H1125 0.959 . S
C1061 C1060 1.517 . S
C1061 O1109 1.468 . S
C1061 H1122 0.980 . S
C1062 C1063 1.349 . S
C1062 C1067 1.367 . S
C1062 O1109 1.408 . S
C1063 C1062 1.349 . S
C1063 C1064 1.407 . S
C1063 H1126 0.930 . S
C1064 C1063 1.407 . S
C1064 C1065 1.449 . S
C1064 C1068 1.535 . S
C1065 C1064 1.449 . S
C1065 C1066 1.384 . S
C1065 C1090 1.553 . S
C1066 C1065 1.384 . S
C1066 C1067 1.364 . S
C1066 C1069 1.450 . S
C1067 C1062 1.367 . S
C1067 C1066 1.364 . S
C1067 H1127 0.931 . S
C1068 C1064 1.535 . S
C1068 H1128 0.959 . S
C1068 H1129 0.961 . S
C1068 H1130 0.959 . S
C1069 C1066 1.450 . S
C1069 H1131 0.960 . S
C1069 H1132 0.960 . S
C1069 H1133 0.960 . S
C1070 C1071 1.309 . S
C1070 C1075 1.304 . S
C1070 O1108 1.435 . S
C1071 C1070 1.309 . S
C1071 C1072 1.476 . S
C1071 H1135 0.930 . S
C1072 C1071 1.476 . S
C1072 C1073 1.400 . S
C1072 C1076 1.567 . S
C1073 C1072 1.400 . S
C1073 C1074 1.373 . S
C1073 C1095 1.432 . S
C1074 C1073 1.373 . S
C1074 C1075 1.339 . S
C1074 C1077 1.530 . S
C1075 C1070 1.304 . S
C1075 C1074 1.339 . S
C1075 H1136 0.930 . S
C1076 C1072 1.567 . S
C1076 H1137 0.961 . S
C1076 H1138 0.960 . S
C1076 H1139 0.958 . S
C1077 C1074 1.530 . S
C1077 H1140 0.961 . S
C1077 H1141 0.960 . S
C1077 H1142 0.960 . S
C1078 C1079 1.530 . S
C1078 H1144 0.961 . S
C1078 H1145 0.961 . S
C1078 H1146 0.959 . S
C1079 C1078 1.530 . S
C1079 O1107 1.412 . S
C1079 H1143 0.980 . S
C1080 C1081 1.288 . S
C1080 C1085 1.377 . S
C1080 O1107 1.393 . S
C1081 C1080 1.288 . S
C1081 C1082 1.369 . S
C1081 H1147 0.932 . S
C1082 C1081 1.369 . S
C1082 C1083 1.398 . S
C1082 C1086 1.527 . S
C1083 C1082 1.398 . S
C1083 C1084 1.380 . S
C1083 C1097 1.497 . S
C1084 C1083 1.380 . S
C1084 C1085 1.383 . S
C1084 C1087 1.603 . S
C1085 C1080 1.377 . S
C1085 C1084 1.383 . S
C1085 H1148 0.929 . S
C1086 C1082 1.527 . S
C1086 H1149 0.961 . S
C1086 H1150 0.959 . S
C1086 H1151 0.959 . S
C1087 C1084 1.603 . S
C1087 H1152 0.960 . S
C1087 H1153 0.962 . S
C1087 H1154 0.961 . S
C1088 C1055 1.587 . S
C1088 C1089 1.360 . S
C1088 C1101 1.412 . S
C1089 C1088 1.360 . S
C1089 C1090 1.365 . S
C1089 H1155 0.929 . S
C1090 C1065 1.553 . S
C1090 C1089 1.365 . S
C1090 C1091 1.404 . S
C1091 C1090 1.404 . S
C1091 C1092 1.395 . S
C1091 C1102 1.451 . S
C1092 C1091 1.395 . S
C1092 C1093 1.322 . S
C1092 H1156 0.930 . S
C1093 C1092 1.322 . S
C1093 C1094 1.459 . S
C1093 H1157 0.929 . S
C1094 C1093 1.459 . S
C1094 C1095 1.445 . S
C1094 C1103 1.395 . S
C1095 C1073 1.432 . S
C1095 C1094 1.445 . S
C1095 C1096 1.370 . S
C1096 C1095 1.370 . S
C1096 C1097 1.438 . S
C1096 H1158 0.930 . S
C1097 C1083 1.497 . S
C1097 C1096 1.438 . S
C1097 C1098 1.360 . S
C1098 C1097 1.360 . S
C1098 C1099 1.401 . S
C1098 C1103 1.446 . S
C1099 C1098 1.401 . S
C1099 C1100 1.347 . S
C1099 H1159 0.929 . S
C1100 C1099 1.347 . S
C1100 C1101 1.455 . S
C1100 H1160 0.930 . S
C1101 C1088 1.412 . S
C1101 C1100 1.455 . S
C1101 C1102 1.331 . S
C1102 C1091 1.451 . S
C1102 C1101 1.331 . S
C1102 C1103 1.497 . S
C1103 C1094 1.395 . S
C1103 C1098 1.446 . S
C1103 C1102 1.497 . S
C1104 C1105 1.582 . S
C1104 H1161 0.962 . S
C1104 H1162 0.959 . S
C1104 H1163 0.958 . S
C1105 C1104 1.582 . S
C1105 O1108 1.458 . S
C1105 H1134 0.980 . S
O1106 C1051 1.426 . S
O1106 C1052 1.334 . S
O1107 C1079 1.412 . S
O1107 C1080 1.393 . S
O1108 C1070 1.435 . S
O1108 C1105 1.458 . S
O1109 C1061 1.468 . S
O1109 C1062 1.408 . S
H1110 C1051 0.980 . S
H1111 C1050 0.959 . S
H1112 C1050 0.959 . S
H1113 C1050 0.960 . S
H1114 C1053 0.929 . S
H1115 C1057 0.929 . S
H1116 C1058 0.959 . S
H1117 C1058 0.961 . S
H1118 C1058 0.961 . S
H1119 C1059 0.960 . S
H1120 C1059 0.960 . S
H1121 C1059 0.961 . S
H1122 C1061 0.980 . S
H1123 C1060 0.961 . S
H1124 C1060 0.960 . S
H1125 C1060 0.959 . S
H1126 C1063 0.930 . S
H1127 C1067 0.931 . S
H1128 C1068 0.959 . S
H1129 C1068 0.961 . S
H1130 C1068 0.959 . S
H1131 C1069 0.960 . S
H1132 C1069 0.960 . S
H1133 C1069 0.960 . S
H1134 C1105 0.980 . S
H1135 C1071 0.930 . S
H1136 C1075 0.930 . S
H1137 C1076 0.961 . S
H1138 C1076 0.960 . S
H1139 C1076 0.958 . S
H1140 C1077 0.961 . S
H1141 C1077 0.960 . S
H1142 C1077 0.960 . S
H1143 C1079 0.980 . S
H1144 C1078 0.961 . S
H1145 C1078 0.961 . S
H1146 C1078 0.959 . S
H1147 C1081 0.932 . S
H1148 C1085 0.929 . S
H1149 C1086 0.961 . S
H1150 C1086 0.959 . S
H1151 C1086 0.959 . S
H1152 C1087 0.960 . S
H1153 C1087 0.962 . S
H1154 C1087 0.961 . S
H1155 C1089 0.929 . S
H1156 C1092 0.930 . S
H1157 C1093 0.929 . S
H1158 C1096 0.930 . S
H1159 C1099 0.929 . S
H1160 C1100 0.930 . S
H1161 C1104 0.962 . S
H1162 C1104 0.959 . S
H1163 C1104 0.958 . S
C1164 C1165 1.560 . S
C1164 H1225 0.959 . S
C1164 H1226 0.959 . S
C1164 H1227 0.960 . S
C1165 C1164 1.560 . S
C1165 O1220 1.426 . S
C1165 H1224 0.980 . S
C1166 C1167 1.407 . S
C1166 C1171 1.418 . S
C1166 O1220 1.334 . S
C1167 C1166 1.407 . S
C1167 C1168 1.360 . S
C1167 H1228 0.929 . S
C1168 C1167 1.360 . S
C1168 C1169 1.401 . S
C1168 C1172 1.527 . S
C1169 C1168 1.401 . S
C1169 C1170 1.405 . S
C1169 C1202 1.587 . S
C1170 C1169 1.405 . S
C1170 C1171 1.332 . S
C1170 C1173 1.496 . S
C1171 C1166 1.418 . S
C1171 C1170 1.332 . S
C1171 H1229 0.929 . S
C1172 C1168 1.527 . S
C1172 H1230 0.959 . S
C1172 H1231 0.961 . S
C1172 H1232 0.961 . S
C1173 C1170 1.496 . S
C1173 H1233 0.960 . S
C1173 H1234 0.960 . S
C1173 H1235 0.961 . S
C1174 C1175 1.517 . S
C1174 H1237 0.961 . S
C1174 H1238 0.960 . S
C1174 H1239 0.959 . S
C1175 C1174 1.517 . S
C1175 O1223 1.468 . S
C1175 H1236 0.980 . S
C1176 C1177 1.349 . S
C1176 C1181 1.367 . S
C1176 O1223 1.408 . S
C1177 C1176 1.349 . S
C1177 C1178 1.407 . S
C1177 H1240 0.930 . S
C1178 C1177 1.407 . S
C1178 C1179 1.449 . S
C1178 C1182 1.535 . S
C1179 C1178 1.449 . S
C1179 C1180 1.384 . S
C1179 C1204 1.553 . S
C1180 C1179 1.384 . S
C1180 C1181 1.364 . S
C1180 C1183 1.450 . S
C1181 C1176 1.367 . S
C1181 C1180 1.364 . S
C1181 H1241 0.931 . S
C1182 C1178 1.535 . S
C1182 H1242 0.959 . S
C1182 H1243 0.961 . S
C1182 H1244 0.959 . S
C1183 C1180 1.450 . S
C1183 H1245 0.960 . S
C1183 H1246 0.960 . S
C1183 H1247 0.960 . S
C1184 C1185 1.309 . S
C1184 C1189 1.304 . S
C1184 O1222 1.435 . S
C1185 C1184 1.309 . S
C1185 C1186 1.476 . S
C1185 H1249 0.930 . S
C1186 C1185 1.476 . S
C1186 C1187 1.400 . S
C1186 C1190 1.567 . S
C1187 C1186 1.400 . S
C1187 C1188 1.373 . S
C1187 C1209 1.432 . S
C1188 C1187 1.373 . S
C1188 C1189 1.339 . S
C1188 C1191 1.530 . S
C1189 C1184 1.304 . S
C1189 C1188 1.339 . S
C1189 H1250 0.930 . S
C1190 C1186 1.567 . S
C1190 H1251 0.961 . S
C1190 H1252 0.960 . S
C1190 H1253 0.958 . S
C1191 C1188 1.530 . S
C1191 H1254 0.961 . S
C1191 H1255 0.960 . S
C1191 H1256 0.960 . S
C1192 C1193 1.530 . S
C1192 H1258 0.961 . S
C1192 H1259 0.961 . S
C1192 H1260 0.959 . S
C1193 C1192 1.530 . S
C1193 O1221 1.412 . S
C1193 H1257 0.980 . S
C1194 C1195 1.288 . S
C1194 C1199 1.377 . S
C1194 O1221 1.393 . S
C1195 C1194 1.288 . S
C1195 C1196 1.369 . S
C1195 H1261 0.932 . S
C1196 C1195 1.369 . S
C1196 C1197 1.398 . S
C1196 C1200 1.527 . S
C1197 C1196 1.398 . S
C1197 C1198 1.380 . S
C1197 C1211 1.497 . S
C1198 C1197 1.380 . S
C1198 C1199 1.383 . S
C1198 C1201 1.603 . S
C1199 C1194 1.377 . S
C1199 C1198 1.383 . S
C1199 H1262 0.929 . S
C1200 C1196 1.527 . S
C1200 H1263 0.961 . S
C1200 H1264 0.959 . S
C1200 H1265 0.959 . S
C1201 C1198 1.603 . S
C1201 H1266 0.960 . S
C1201 H1267 0.962 . S
C1201 H1268 0.961 . S
C1202 C1169 1.587 . S
C1202 C1203 1.360 . S
C1202 C1215 1.412 . S
C1203 C1202 1.360 . S
C1203 C1204 1.365 . S
C1203 H1269 0.929 . S
C1204 C1179 1.553 . S
C1204 C1203 1.365 . S
C1204 C1205 1.404 . S
C1205 C1204 1.404 . S
C1205 C1206 1.395 . S
C1205 C1216 1.451 . S
C1206 C1205 1.395 . S
C1206 C1207 1.322 . S
C1206 H1270 0.930 . S
C1207 C1206 1.322 . S
C1207 C1208 1.459 . S
C1207 H1271 0.929 . S
C1208 C1207 1.459 . S
C1208 C1209 1.445 . S
C1208 C1217 1.395 . S
C1209 C1187 1.432 . S
C1209 C1208 1.445 . S
C1209 C1210 1.370 . S
C1210 C1209 1.370 . S
C1210 C1211 1.438 . S
C1210 H1272 0.930 . S
C1211 C1197 1.497 . S
C1211 C1210 1.438 . S
C1211 C1212 1.360 . S
C1212 C1211 1.360 . S
C1212 C1213 1.401 . S
C1212 C1217 1.446 . S
C1213 C1212 1.401 . S
C1213 C1214 1.347 . S
C1213 H1273 0.929 . S
C1214 C1213 1.347 . S
C1214 C1215 1.455 . S
C1214 H1274 0.930 . S
C1215 C1202 1.412 . S
C1215 C1214 1.455 . S
C1215 C1216 1.331 . S
C1216 C1205 1.451 . S
C1216 C1215 1.331 . S
C1216 C1217 1.497 . S
C1217 C1208 1.395 . S
C1217 C1212 1.446 . S
C1217 C1216 1.497 . S
C1218 C1219 1.582 . S
C1218 H1275 0.962 . S
C1218 H1276 0.959 . S
C1218 H1277 0.958 . S
C1219 C1218 1.582 . S
C1219 O1222 1.458 . S
C1219 H1248 0.980 . S
O1220 C1165 1.426 . S
O1220 C1166 1.334 . S
O1221 C1193 1.412 . S
O1221 C1194 1.393 . S
O1222 C1184 1.435 . S
O1222 C1219 1.458 . S
O1223 C1175 1.468 . S
O1223 C1176 1.408 . S
H1224 C1165 0.980 . S
H1225 C1164 0.959 . S
H1226 C1164 0.959 . S
H1227 C1164 0.960 . S
H1228 C1167 0.929 . S
H1229 C1171 0.929 . S
H1230 C1172 0.959 . S
H1231 C1172 0.961 . S
H1232 C1172 0.961 . S
H1233 C1173 0.960 . S
H1234 C1173 0.960 . S
H1235 C1173 0.961 . S
H1236 C1175 0.980 . S
H1237 C1174 0.961 . S
H1238 C1174 0.960 . S
H1239 C1174 0.959 . S
H1240 C1177 0.930 . S
H1241 C1181 0.931 . S
H1242 C1182 0.959 . S
H1243 C1182 0.961 . S
H1244 C1182 0.959 . S
H1245 C1183 0.960 . S
H1246 C1183 0.960 . S
H1247 C1183 0.960 . S
H1248 C1219 0.980 . S
H1249 C1185 0.930 . S
H1250 C1189 0.930 . S
H1251 C1190 0.961 . S
H1252 C1190 0.960 . S
H1253 C1190 0.958 . S
H1254 C1191 0.961 . S
H1255 C1191 0.960 . S
H1256 C1191 0.960 . S
H1257 C1193 0.980 . S
H1258 C1192 0.961 . S
H1259 C1192 0.961 . S
H1260 C1192 0.959 . S
H1261 C1195 0.932 . S
H1262 C1199 0.929 . S
H1263 C1200 0.961 . S
H1264 C1200 0.959 . S
H1265 C1200 0.959 . S
H1266 C1201 0.960 . S
H1267 C1201 0.962 . S
H1268 C1201 0.961 . S
H1269 C1203 0.929 . S
H1270 C1206 0.930 . S
H1271 C1207 0.929 . S
H1272 C1210 0.930 . S
H1273 C1213 0.929 . S
H1274 C1214 0.930 . S
H1275 C1218 0.962 . S
H1276 C1218 0.959 . S
H1277 C1218 0.958 . S
C1278 C1279 1.560 . S
C1278 H1339 0.959 . S
C1278 H1340 0.959 . S
C1278 H1341 0.960 . S
C1279 C1278 1.560 . S
C1279 O1334 1.426 . S
C1279 H1338 0.980 . S
C1280 C1281 1.407 1_455 S
C1280 C1285 1.418 . S
C1280 O1334 1.334 . S
C1281 C1280 1.407 1_655 S
C1281 C1282 1.360 . S
C1281 H1342 0.929 . S
C1282 C1281 1.360 . S
C1282 C1283 1.401 1_655 S
C1282 C1286 1.527 . S
C1283 C1282 1.401 1_455 S
C1283 C1284 1.405 . S
C1283 C1316 1.587 1_455 S
C1284 C1283 1.405 . S
C1284 C1285 1.332 . S
C1284 C1287 1.496 . S
C1285 C1280 1.418 . S
C1285 C1284 1.332 . S
C1285 H1343 0.929 . S
C1286 C1282 1.527 . S
C1286 H1344 0.959 . S
C1286 H1345 0.961 . S
C1286 H1346 0.961 . S
C1287 C1284 1.496 . S
C1287 H1347 0.960 . S
C1287 H1348 0.960 . S
C1287 H1349 0.961 . S
C1288 C1289 1.517 . S
C1288 H1351 0.961 . S
C1288 H1352 0.960 . S
C1288 H1353 0.959 . S
C1289 C1288 1.517 . S
C1289 O1337 1.468 . S
C1289 H1350 0.980 1_655 S
C1290 C1291 1.349 . S
C1290 C1295 1.367 . S
C1290 O1337 1.408 . S
C1291 C1290 1.349 . S
C1291 C1292 1.371 1_655 S
C1291 H1354 0.930 1_655 S
C1292 C1291 1.371 1_455 S
C1292 C1293 1.420 1_455 S
C1292 C1296 1.596 . S
C1293 C1292 1.420 1_655 S
C1293 C1294 1.384 . S
C1293 C1318 1.553 . S
C1294 C1293 1.384 . S
C1294 C1295 1.364 . S
C1294 C1297 1.450 . S
C1295 C1290 1.367 . S
C1295 C1294 1.364 . S
C1295 H1355 0.931 . S
C1296 C1292 1.596 . S
C1296 H1356 0.959 . S
C1296 H1357 0.961 . S
C1296 H1358 0.959 . S
C1297 C1294 1.450 . S
C1297 H1359 0.960 . S
C1297 H1360 0.960 . S
C1297 H1361 0.960 . S
C1298 C1299 1.309 . S
C1298 C1303 1.304 . S
C1298 O1336 1.435 . S
C1299 C1298 1.309 . S
C1299 C1300 1.474 . S
C1299 H1363 0.930 1_655 S
C1300 C1299 1.474 . S
C1300 C1301 1.399 . S
C1300 C1304 1.569 1_655 S
C1301 C1300 1.399 . S
C1301 C1302 1.373 . S
C1301 C1323 1.432 . S
C1302 C1301 1.373 . S
C1302 C1303 1.339 . S
C1302 C1305 1.530 . S
C1303 C1298 1.304 . S
C1303 C1302 1.339 . S
C1303 H1364 0.930 . S
C1304 C1300 1.569 1_455 S
C1304 H1365 0.961 . S
C1304 H1366 0.960 . S
C1304 H1367 0.958 . S
C1305 C1302 1.530 . S
C1305 H1368 0.961 . S
C1305 H1369 0.960 . S
C1305 H1370 0.960 . S
C1306 C1307 1.541 . S
C1306 H1372 0.961 . S
C1306 H1373 0.961 . S
C1306 H1374 0.959 . S
C1307 C1306 1.541 . S
C1307 O1335 1.414 . S
C1307 H1371 0.977 1_455 S
C1308 C1309 1.288 . S
C1308 C1313 1.377 1_455 S
C1308 O1335 1.393 . S
C1309 C1308 1.288 . S
C1309 C1310 1.369 . S
C1309 H1375 0.932 . S
C1310 C1309 1.369 . S
C1310 C1311 1.398 1_455 S
C1310 C1314 1.527 . S
C1311 C1310 1.398 1_655 S
C1311 C1312 1.380 . S
C1311 C1325 1.497 . S
C1312 C1311 1.380 . S
C1312 C1313 1.383 . S
C1312 C1315 1.603 . S
C1313 C1308 1.377 1_655 S
C1313 C1312 1.383 . S
C1313 H1376 0.929 . S
C1314 C1310 1.527 . S
C1314 H1377 0.961 . S
C1314 H1378 0.959 . S
C1314 H1379 0.959 . S
C1315 C1312 1.603 . S
C1315 H1380 0.960 . S
C1315 H1381 0.962 . S
C1315 H1382 0.961 . S
C1316 C1283 1.587 1_655 S
C1316 C1317 1.360 . S
C1316 C1329 1.412 . S
C1317 C1316 1.360 . S
C1317 C1318 1.365 . S
C1317 H1383 0.929 . S
C1318 C1293 1.553 . S
C1318 C1317 1.365 . S
C1318 C1319 1.404 . S
C1319 C1318 1.404 . S
C1319 C1320 1.395 . S
C1319 C1330 1.451 . S
C1320 C1319 1.395 . S
C1320 C1321 1.322 . S
C1320 H1384 0.930 . S
C1321 C1320 1.322 . S
C1321 C1322 1.459 . S
C1321 H1385 0.929 . S
C1322 C1321 1.459 . S
C1322 C1323 1.445 . S
C1322 C1331 1.395 . S
C1323 C1301 1.432 . S
C1323 C1322 1.445 . S
C1323 C1324 1.370 . S
C1324 C1323 1.370 . S
C1324 C1325 1.438 . S
C1324 H1386 0.930 . S
C1325 C1311 1.497 . S
C1325 C1324 1.438 . S
C1325 C1326 1.360 . S
C1326 C1325 1.360 . S
C1326 C1327 1.401 . S
C1326 C1331 1.446 . S
C1327 C1326 1.401 . S
C1327 C1328 1.347 . S
C1327 H1387 0.929 . S
C1328 C1327 1.347 . S
C1328 C1329 1.455 . S
C1328 H1388 0.930 . S
C1329 C1316 1.412 . S
C1329 C1328 1.455 . S
C1329 C1330 1.331 . S
C1330 C1319 1.451 . S
C1330 C1329 1.331 . S
C1330 C1331 1.497 . S
C1331 C1322 1.395 . S
C1331 C1326 1.446 . S
C1331 C1330 1.497 . S
C1332 C1333 1.582 . S
C1332 H1389 0.962 . S
C1332 H1390 0.959 . S
C1332 H1391 0.958 . S
C1333 C1332 1.582 . S
C1333 O1336 1.458 . S
C1333 H1362 0.980 . S
O1334 C1279 1.426 . S
O1334 C1280 1.334 . S
O1335 C1307 1.414 . S
O1335 C1308 1.393 . S
O1336 C1298 1.435 . S
O1336 C1333 1.458 . S
O1337 C1289 1.468 . S
O1337 C1290 1.408 . S
H1338 C1279 0.980 . S
H1339 C1278 0.959 . S
H1340 C1278 0.959 . S
H1341 C1278 0.960 . S
H1342 C1281 0.929 . S
H1343 C1285 0.929 . S
H1344 C1286 0.959 . S
H1345 C1286 0.961 . S
H1346 C1286 0.961 . S
H1347 C1287 0.960 . S
H1348 C1287 0.960 . S
H1349 C1287 0.961 . S
H1350 C1289 0.980 1_455 S
H1351 C1288 0.961 . S
H1352 C1288 0.960 . S
H1353 C1288 0.959 . S
H1354 C1291 0.930 1_455 S
H1355 C1295 0.931 . S
H1356 C1296 0.959 . S
H1357 C1296 0.961 . S
H1358 C1296 0.959 . S
H1359 C1297 0.960 . S
H1360 C1297 0.960 . S
H1361 C1297 0.960 . S
H1362 C1333 0.980 . S
H1363 C1299 0.930 1_455 S
H1364 C1303 0.930 . S
H1365 C1304 0.961 . S
H1366 C1304 0.960 . S
H1367 C1304 0.958 . S
H1368 C1305 0.961 . S
H1369 C1305 0.960 . S
H1370 C1305 0.960 . S
H1371 C1307 0.977 1_655 S
H1372 C1306 0.961 . S
H1373 C1306 0.961 . S
H1374 C1306 0.959 . S
H1375 C1309 0.932 . S
H1376 C1313 0.929 . S
H1377 C1314 0.961 . S
H1378 C1314 0.959 . S
H1379 C1314 0.959 . S
H1380 C1315 0.960 . S
H1381 C1315 0.962 . S
H1382 C1315 0.961 . S
H1383 C1317 0.929 . S
H1384 C1320 0.930 . S
H1385 C1321 0.929 . S
H1386 C1324 0.930 . S
H1387 C1327 0.929 . S
H1388 C1328 0.930 . S
H1389 C1332 0.962 . S
H1390 C1332 0.959 . S
H1391 C1332 0.958 . S
C1392 C1393 1.560 . S
C1392 H1453 0.959 . S
C1392 H1454 0.959 . S
C1392 H1455 0.960 . S
C1393 C1392 1.560 . S
C1393 O1448 1.426 . S
C1393 H1452 0.980 . S
C1394 C1395 1.407 . S
C1394 C1399 1.418 . S
C1394 O1448 1.334 . S
C1395 C1394 1.407 . S
C1395 C1396 1.360 . S
C1395 H1456 0.929 . S
C1396 C1395 1.360 . S
C1396 C1397 1.401 . S
C1396 C1400 1.527 . S
C1397 C1396 1.401 . S
C1397 C1398 1.405 . S
C1397 C1430 1.587 . S
C1398 C1397 1.405 . S
C1398 C1399 1.332 . S
C1398 C1401 1.496 . S
C1399 C1394 1.418 . S
C1399 C1398 1.332 . S
C1399 H1457 0.929 . S
C1400 C1396 1.527 . S
C1400 H1458 0.959 . S
C1400 H1459 0.961 . S
C1400 H1460 0.961 . S
C1401 C1398 1.496 . S
C1401 H1461 0.960 . S
C1401 H1462 0.960 . S
C1401 H1463 0.961 . S
C1402 C1403 1.517 . S
C1402 H1465 0.961 . S
C1402 H1466 0.960 . S
C1402 H1467 0.959 . S
C1403 C1402 1.517 . S
C1403 O1451 1.468 . S
C1403 H1464 0.980 . S
C1404 C1405 1.349 . S
C1404 C1409 1.367 . S
C1404 O1451 1.408 . S
C1405 C1404 1.349 . S
C1405 C1406 1.407 . S
C1405 H1468 0.930 . S
C1406 C1405 1.407 . S
C1406 C1407 1.449 . S
C1406 C1410 1.535 . S
C1407 C1406 1.449 . S
C1407 C1408 1.384 . S
C1407 C1432 1.553 . S
C1408 C1407 1.384 . S
C1408 C1409 1.364 . S
C1408 C1411 1.450 . S
C1409 C1404 1.367 . S
C1409 C1408 1.364 . S
C1409 H1469 0.931 . S
C1410 C1406 1.535 . S
C1410 H1470 0.959 . S
C1410 H1471 0.961 . S
C1410 H1472 0.959 . S
C1411 C1408 1.450 . S
C1411 H1473 0.960 . S
C1411 H1474 0.960 . S
C1411 H1475 0.960 . S
C1412 C1413 1.309 . S
C1412 C1417 1.304 . S
C1412 O1450 1.435 . S
C1413 C1412 1.309 . S
C1413 C1414 1.476 . S
C1413 H1477 0.930 . S
C1414 C1413 1.476 . S
C1414 C1415 1.400 . S
C1414 C1418 1.567 . S
C1415 C1414 1.400 . S
C1415 C1416 1.373 . S
C1415 C1437 1.432 . S
C1416 C1415 1.373 . S
C1416 C1417 1.339 . S
C1416 C1419 1.530 . S
C1417 C1412 1.304 . S
C1417 C1416 1.339 . S
C1417 H1478 0.930 . S
C1418 C1414 1.567 . S
C1418 H1479 0.961 . S
C1418 H1480 0.960 . S
C1418 H1481 0.958 . S
C1419 C1416 1.530 . S
C1419 H1482 0.961 . S
C1419 H1483 0.960 . S
C1419 H1484 0.960 . S
C1420 C1421 1.530 . S
C1420 H1486 0.961 . S
C1420 H1487 0.961 . S
C1420 H1488 0.959 . S
C1421 C1420 1.530 . S
C1421 O1449 1.412 . S
C1421 H1485 0.980 . S
C1422 C1423 1.288 . S
C1422 C1427 1.377 . S
C1422 O1449 1.393 . S
C1423 C1422 1.288 . S
C1423 C1424 1.369 . S
C1423 H1489 0.932 . S
C1424 C1423 1.369 . S
C1424 C1425 1.398 . S
C1424 C1428 1.527 . S
C1425 C1424 1.398 . S
C1425 C1426 1.380 . S
C1425 C1439 1.497 . S
C1426 C1425 1.380 . S
C1426 C1427 1.383 . S
C1426 C1429 1.603 . S
C1427 C1422 1.377 . S
C1427 C1426 1.383 . S
C1427 H1490 0.929 . S
C1428 C1424 1.527 . S
C1428 H1491 0.961 . S
C1428 H1492 0.959 . S
C1428 H1493 0.959 . S
C1429 C1426 1.603 . S
C1429 H1494 0.960 . S
C1429 H1495 0.962 . S
C1429 H1496 0.961 . S
C1430 C1397 1.587 . S
C1430 C1431 1.360 . S
C1430 C1443 1.412 . S
C1431 C1430 1.360 . S
C1431 C1432 1.365 . S
C1431 H1497 0.929 . S
C1432 C1407 1.553 . S
C1432 C1431 1.365 . S
C1432 C1433 1.404 . S
C1433 C1432 1.404 . S
C1433 C1434 1.395 . S
C1433 C1444 1.451 . S
C1434 C1433 1.395 . S
C1434 C1435 1.322 . S
C1434 H1498 0.930 . S
C1435 C1434 1.322 . S
C1435 C1436 1.459 . S
C1435 H1499 0.929 . S
C1436 C1435 1.459 . S
C1436 C1437 1.445 . S
C1436 C1445 1.395 . S
C1437 C1415 1.432 . S
C1437 C1436 1.445 . S
C1437 C1438 1.370 . S
C1438 C1437 1.370 . S
C1438 C1439 1.438 . S
C1438 H1500 0.930 . S
C1439 C1425 1.497 . S
C1439 C1438 1.438 . S
C1439 C1440 1.360 . S
C1440 C1439 1.360 . S
C1440 C1441 1.401 . S
C1440 C1445 1.446 . S
C1441 C1440 1.401 . S
C1441 C1442 1.347 . S
C1441 H1501 0.929 . S
C1442 C1441 1.347 . S
C1442 C1443 1.455 . S
C1442 H1502 0.930 . S
C1443 C1430 1.412 . S
C1443 C1442 1.455 . S
C1443 C1444 1.331 . S
C1444 C1433 1.451 . S
C1444 C1443 1.331 . S
C1444 C1445 1.497 . S
C1445 C1436 1.395 . S
C1445 C1440 1.446 . S
C1445 C1444 1.497 . S
C1446 C1447 1.582 . S
C1446 H1503 0.962 . S
C1446 H1504 0.959 . S
C1446 H1505 0.958 . S
C1447 C1446 1.582 . S
C1447 O1450 1.458 . S
C1447 H1476 0.980 . S
O1448 C1393 1.426 . S
O1448 C1394 1.334 . S
O1449 C1421 1.412 . S
O1449 C1422 1.393 . S
O1450 C1412 1.435 . S
O1450 C1447 1.458 . S
O1451 C1403 1.468 . S
O1451 C1404 1.408 . S
H1452 C1393 0.980 . S
H1453 C1392 0.959 . S
H1454 C1392 0.959 . S
H1455 C1392 0.960 . S
H1456 C1395 0.929 . S
H1457 C1399 0.929 . S
H1458 C1400 0.959 . S
H1459 C1400 0.961 . S
H1460 C1400 0.961 . S
H1461 C1401 0.960 . S
H1462 C1401 0.960 . S
H1463 C1401 0.961 . S
H1464 C1403 0.980 . S
H1465 C1402 0.961 . S
H1466 C1402 0.960 . S
H1467 C1402 0.959 . S
H1468 C1405 0.930 . S
H1469 C1409 0.931 . S
H1470 C1410 0.959 . S
H1471 C1410 0.961 . S
H1472 C1410 0.959 . S
H1473 C1411 0.960 . S
H1474 C1411 0.960 . S
H1475 C1411 0.960 . S
H1476 C1447 0.980 . S
H1477 C1413 0.930 . S
H1478 C1417 0.930 . S
H1479 C1418 0.961 . S
H1480 C1418 0.960 . S
H1481 C1418 0.958 . S
H1482 C1419 0.961 . S
H1483 C1419 0.960 . S
H1484 C1419 0.960 . S
H1485 C1421 0.980 . S
H1486 C1420 0.961 . S
H1487 C1420 0.961 . S
H1488 C1420 0.959 . S
H1489 C1423 0.932 . S
H1490 C1427 0.929 . S
H1491 C1428 0.961 . S
H1492 C1428 0.959 . S
H1493 C1428 0.959 . S
H1494 C1429 0.960 . S
H1495 C1429 0.962 . S
H1496 C1429 0.961 . S
H1497 C1431 0.929 . S
H1498 C1434 0.930 . S
H1499 C1435 0.929 . S
H1500 C1438 0.930 . S
H1501 C1441 0.929 . S
H1502 C1442 0.930 . S
H1503 C1446 0.962 . S
H1504 C1446 0.959 . S
H1505 C1446 0.958 . S
C1506 C1507 1.560 . S
C1506 H1567 0.959 . S
C1506 H1568 0.959 . S
C1506 H1569 0.960 . S
C1507 C1506 1.560 . S
C1507 O1562 1.426 . S
C1507 H1566 0.980 . S
C1508 C1509 1.407 1_565 S
C1508 C1513 1.418 . S
C1508 O1562 1.334 . S
C1509 C1508 1.407 1_545 S
C1509 C1510 1.360 . S
C1509 H1570 0.929 . S
C1510 C1509 1.360 . S
C1510 C1511 1.401 1_545 S
C1510 C1514 1.527 . S
C1511 C1510 1.401 1_565 S
C1511 C1512 1.405 . S
C1511 C1544 1.587 1_565 S
C1512 C1511 1.405 . S
C1512 C1513 1.332 . S
C1512 C1515 1.496 . S
C1513 C1508 1.418 . S
C1513 C1512 1.332 . S
C1513 H1571 0.929 . S
C1514 C1510 1.527 . S
C1514 H1572 0.959 . S
C1514 H1573 0.961 . S
C1514 H1574 0.961 . S
C1515 C1512 1.496 . S
C1515 H1575 0.960 . S
C1515 H1576 0.960 . S
C1515 H1577 0.961 . S
C1516 C1517 1.517 . S
C1516 H1579 0.961 1_545 S
C1516 H1580 0.960 . S
C1516 H1581 0.959 . S
C1517 C1516 1.517 . S
C1517 O1565 1.468 . S
C1517 H1578 0.980 1_545 S
C1518 C1519 1.364 . S
C1518 C1523 1.367 . S
C1518 O1565 1.408 . S
C1519 C1518 1.364 . S
C1519 C1520 1.417 1_545 S
C1519 H1582 0.905 1_545 S
C1520 C1519 1.417 1_565 S
C1520 C1521 1.449 1_565 S
C1520 C1524 1.535 . S
C1521 C1520 1.449 1_545 S
C1521 C1522 1.384 . S
C1521 C1546 1.553 . S
C1522 C1521 1.384 . S
C1522 C1523 1.364 . S
C1522 C1525 1.450 . S
C1523 C1518 1.367 . S
C1523 C1522 1.364 . S
C1523 H1583 0.931 . S
C1524 C1520 1.535 . S
C1524 H1584 0.959 . S
C1524 H1585 0.961 . S
C1524 H1586 0.959 . S
C1525 C1522 1.450 . S
C1525 H1587 0.960 . S
C1525 H1588 0.960 . S
C1525 H1589 0.960 . S
C1526 C1527 1.309 . S
C1526 C1531 1.304 . S
C1526 O1564 1.435 . S
C1527 C1526 1.309 . S
C1527 C1528 1.492 1_545 S
C1527 H1591 0.930 1_545 S
C1528 C1527 1.492 1_565 S
C1528 C1529 1.348 1_565 S
C1528 C1532 1.602 . S
C1529 C1528 1.348 1_545 S
C1529 C1530 1.373 . S
C1529 C1551 1.432 . S
C1530 C1529 1.373 . S
C1530 C1531 1.339 . S
C1530 C1533 1.530 . S
C1531 C1526 1.304 . S
C1531 C1530 1.339 . S
C1531 H1592 0.930 . S
C1532 C1528 1.602 . S
C1532 H1593 0.961 . S
C1532 H1594 0.960 . S
C1532 H1595 0.958 . S
C1533 C1530 1.530 . S
C1533 H1596 0.961 . S
C1533 H1597 0.960 . S
C1533 H1598 0.960 . S
C1534 C1535 1.530 1_565 S
C1534 H1600 0.961 . S
C1534 H1601 0.961 . S
C1534 H1602 0.959 . S
C1535 C1534 1.530 1_545 S
C1535 O1563 1.412 1_545 S
C1535 H1599 0.980 . S
C1536 C1537 1.288 . S
C1536 C1541 1.377 1_565 S
C1536 O1563 1.393 . S
C1537 C1536 1.288 . S
C1537 C1538 1.369 . S
C1537 H1603 0.932 . S
C1538 C1537 1.369 . S
C1538 C1539 1.398 1_565 S
C1538 C1542 1.527 . S
C1539 C1538 1.398 1_545 S
C1539 C1540 1.380 . S
C1539 C1553 1.497 . S
C1540 C1539 1.380 . S
C1540 C1541 1.383 . S
C1540 C1543 1.603 . S
C1541 C1536 1.377 1_545 S
C1541 C1540 1.383 . S
C1541 H1604 0.929 . S
C1542 C1538 1.527 . S
C1542 H1605 0.961 . S
C1542 H1606 0.959 . S
C1542 H1607 0.959 . S
C1543 C1540 1.603 . S
C1543 H1608 0.960 . S
C1543 H1609 0.962 . S
C1543 H1610 0.961 . S
C1544 C1511 1.587 1_545 S
C1544 C1545 1.360 . S
C1544 C1557 1.412 . S
C1545 C1544 1.360 . S
C1545 C1546 1.365 . S
C1545 H1611 0.929 . S
C1546 C1521 1.553 . S
C1546 C1545 1.365 . S
C1546 C1547 1.404 . S
C1547 C1546 1.404 . S
C1547 C1548 1.395 . S
C1547 C1558 1.451 . S
C1548 C1547 1.395 . S
C1548 C1549 1.322 . S
C1548 H1612 0.930 . S
C1549 C1548 1.322 . S
C1549 C1550 1.459 . S
C1549 H1613 0.929 . S
C1550 C1549 1.459 . S
C1550 C1551 1.445 . S
C1550 C1559 1.395 . S
C1551 C1529 1.432 . S
C1551 C1550 1.445 . S
C1551 C1552 1.370 . S
C1552 C1551 1.370 . S
C1552 C1553 1.438 . S
C1552 H1614 0.930 . S
C1553 C1539 1.497 . S
C1553 C1552 1.438 . S
C1553 C1554 1.360 . S
C1554 C1553 1.360 . S
C1554 C1555 1.401 . S
C1554 C1559 1.446 . S
C1555 C1554 1.401 . S
C1555 C1556 1.347 . S
C1555 H1615 0.929 . S
C1556 C1555 1.347 . S
C1556 C1557 1.455 . S
C1556 H1616 0.930 . S
C1557 C1544 1.412 . S
C1557 C1556 1.455 . S
C1557 C1558 1.331 . S
C1558 C1547 1.451 . S
C1558 C1557 1.331 . S
C1558 C1559 1.497 . S
C1559 C1550 1.395 . S
C1559 C1554 1.446 . S
C1559 C1558 1.497 . S
C1560 C1561 1.582 . S
C1560 H1617 0.962 . S
C1560 H1618 0.959 . S
C1560 H1619 0.958 . S
C1561 C1560 1.582 . S
C1561 O1564 1.458 . S
C1561 H1590 0.980 . S
O1562 C1507 1.426 . S
O1562 C1508 1.334 . S
O1563 C1535 1.412 1_565 S
O1563 C1536 1.393 . S
O1564 C1526 1.435 . S
O1564 C1561 1.458 . S
O1565 C1517 1.468 . S
O1565 C1518 1.408 . S
H1566 C1507 0.980 . S
H1567 C1506 0.959 . S
H1568 C1506 0.959 . S
H1569 C1506 0.960 . S
H1570 C1509 0.929 . S
H1571 C1513 0.929 . S
H1572 C1514 0.959 . S
H1573 C1514 0.961 . S
H1574 C1514 0.961 . S
H1575 C1515 0.960 . S
H1576 C1515 0.960 . S
H1577 C1515 0.961 . S
H1578 C1517 0.980 1_565 S
H1579 C1516 0.961 1_565 S
H1580 C1516 0.960 . S
H1581 C1516 0.959 . S
H1582 C1519 0.905 1_565 S
H1583 C1523 0.931 . S
H1584 C1524 0.959 . S
H1585 C1524 0.961 . S
H1586 C1524 0.959 . S
H1587 C1525 0.960 . S
H1588 C1525 0.960 . S
H1589 C1525 0.960 . S
H1590 C1561 0.980 . S
H1591 C1527 0.930 1_565 S
H1592 C1531 0.930 . S
H1593 C1532 0.961 . S
H1594 C1532 0.960 . S
H1595 C1532 0.958 . S
H1596 C1533 0.961 . S
H1597 C1533 0.960 . S
H1598 C1533 0.960 . S
H1599 C1535 0.980 . S
H1600 C1534 0.961 . S
H1601 C1534 0.961 . S
H1602 C1534 0.959 . S
H1603 C1537 0.932 . S
H1604 C1541 0.929 . S
H1605 C1542 0.961 . S
H1606 C1542 0.959 . S
H1607 C1542 0.959 . S
H1608 C1543 0.960 . S
H1609 C1543 0.962 . S
H1610 C1543 0.961 . S
H1611 C1545 0.929 . S
H1612 C1548 0.930 . S
H1613 C1549 0.929 . S
H1614 C1552 0.930 . S
H1615 C1555 0.929 . S
H1616 C1556 0.930 . S
H1617 C1560 0.962 . S
H1618 C1560 0.959 . S
H1619 C1560 0.958 . S
C1620 C1621 1.560 . S
C1620 H1681 0.959 . S
C1620 H1682 0.959 . S
C1620 H1683 0.960 . S
C1621 C1620 1.560 . S
C1621 O1676 1.426 . S
C1621 H1680 0.980 1_565 S
C1622 C1623 1.407 1_565 S
C1622 C1627 1.418 . S
C1622 O1676 1.334 . S
C1623 C1622 1.407 1_545 S
C1623 C1624 1.360 . S
C1623 H1684 0.929 . S
C1624 C1623 1.360 . S
C1624 C1625 1.401 . S
C1624 C1628 1.527 . S
C1625 C1624 1.401 . S
C1625 C1626 1.405 1_545 S
C1625 C1658 1.587 . S
C1626 C1625 1.405 1_565 S
C1626 C1627 1.332 . S
C1626 C1629 1.496 . S
C1627 C1622 1.418 . S
C1627 C1626 1.332 . S
C1627 H1685 0.929 . S
C1628 C1624 1.527 . S
C1628 H1686 0.959 . S
C1628 H1687 0.961 . S
C1628 H1688 0.961 . S
C1629 C1626 1.496 . S
C1629 H1689 0.960 . S
C1629 H1690 0.960 . S
C1629 H1691 0.961 . S
C1630 C1631 1.517 . S
C1630 H1693 0.961 . S
C1630 H1694 0.960 . S
C1630 H1695 0.959 . S
C1631 C1630 1.517 . S
C1631 O1679 1.468 . S
C1631 H1692 0.980 . S
C1632 C1633 1.349 . S
C1632 C1637 1.367 . S
C1632 O1679 1.408 . S
C1633 C1632 1.349 . S
C1633 C1634 1.407 . S
C1633 H1696 0.932 . S
C1634 C1633 1.407 . S
C1634 C1635 1.449 . S
C1634 C1638 1.535 1_545 S
C1635 C1634 1.449 . S
C1635 C1636 1.384 . S
C1635 C1660 1.553 . S
C1636 C1635 1.384 . S
C1636 C1637 1.364 . S
C1636 C1639 1.450 . S
C1637 C1632 1.367 . S
C1637 C1636 1.364 . S
C1637 H1697 0.931 . S
C1638 C1634 1.535 1_565 S
C1638 H1698 0.959 . S
C1638 H1699 0.961 . S
C1638 H1700 0.959 . S
C1639 C1636 1.450 . S
C1639 H1701 0.960 . S
C1639 H1702 0.960 . S
C1639 H1703 0.960 . S
C1640 C1641 1.309 1_545 S
C1640 C1645 1.304 . S
C1640 O1678 1.435 . S
C1641 C1640 1.309 1_565 S
C1641 C1642 1.476 . S
C1641 H1705 0.930 . S
C1642 C1641 1.476 . S
C1642 C1643 1.400 1_565 S
C1642 C1646 1.567 . S
C1643 C1642 1.400 1_545 S
C1643 C1644 1.373 . S
C1643 C1665 1.432 . S
C1644 C1643 1.373 . S
C1644 C1645 1.339 . S
C1644 C1647 1.530 . S
C1645 C1640 1.304 . S
C1645 C1644 1.339 . S
C1645 H1706 0.930 . S
C1646 C1642 1.567 . S
C1646 H1707 0.961 . S
C1646 H1708 0.960 . S
C1646 H1709 0.958 . S
C1647 C1644 1.530 . S
C1647 H1710 0.961 . S
C1647 H1711 0.960 . S
C1647 H1712 0.960 . S
C1648 C1649 1.530 . S
C1648 H1714 0.961 . S
C1648 H1715 0.961 . S
C1648 H1716 0.959 . S
C1649 C1648 1.530 . S
C1649 O1677 1.412 . S
C1649 H1713 0.980 . S
C1650 C1651 1.288 . S
C1650 C1655 1.377 1_565 S
C1650 O1677 1.393 . S
C1651 C1650 1.288 . S
C1651 C1652 1.369 . S
C1651 H1717 0.932 . S
C1652 C1651 1.369 . S
C1652 C1653 1.398 . S
C1652 C1656 1.527 . S
C1653 C1652 1.398 . S
C1653 C1654 1.380 1_565 S
C1653 C1667 1.497 1_565 S
C1654 C1653 1.380 1_545 S
C1654 C1655 1.383 . S
C1654 C1657 1.603 . S
C1655 C1650 1.377 1_545 S
C1655 C1654 1.383 . S
C1655 H1718 0.929 . S
C1656 C1652 1.527 . S
C1656 H1719 0.961 . S
C1656 H1720 0.959 . S
C1656 H1721 0.959 . S
C1657 C1654 1.603 . S
C1657 H1722 0.960 . S
C1657 H1723 0.962 . S
C1657 H1724 0.961 . S
C1658 C1625 1.587 . S
C1658 C1659 1.360 . S
C1658 C1671 1.412 . S
C1659 C1658 1.360 . S
C1659 C1660 1.365 . S
C1659 H1725 0.929 . S
C1660 C1635 1.553 . S
C1660 C1659 1.365 . S
C1660 C1661 1.404 . S
C1661 C1660 1.404 . S
C1661 C1662 1.395 . S
C1661 C1672 1.451 . S
C1662 C1661 1.395 . S
C1662 C1663 1.322 . S
C1662 H1726 0.930 . S
C1663 C1662 1.322 . S
C1663 C1664 1.459 . S
C1663 H1727 0.929 . S
C1664 C1663 1.459 . S
C1664 C1665 1.445 . S
C1664 C1673 1.395 . S
C1665 C1643 1.432 . S
C1665 C1664 1.445 . S
C1665 C1666 1.370 . S
C1666 C1665 1.370 . S
C1666 C1667 1.438 . S
C1666 H1728 0.930 . S
C1667 C1653 1.497 1_545 S
C1667 C1666 1.438 . S
C1667 C1668 1.360 . S
C1668 C1667 1.360 . S
C1668 C1669 1.401 . S
C1668 C1673 1.446 . S
C1669 C1668 1.401 . S
C1669 C1670 1.347 . S
C1669 H1729 0.954 . S
C1670 C1669 1.347 . S
C1670 C1671 1.455 . S
C1670 H1730 0.930 . S
C1671 C1658 1.412 . S
C1671 C1670 1.455 . S
C1671 C1672 1.331 . S
C1672 C1661 1.451 . S
C1672 C1671 1.331 . S
C1672 C1673 1.497 . S
C1673 C1664 1.395 . S
C1673 C1668 1.446 . S
C1673 C1672 1.497 . S
C1674 C1675 1.582 . S
C1674 H1731 0.962 . S
C1674 H1732 0.959 . S
C1674 H1733 0.958 . S
C1675 C1674 1.582 . S
C1675 O1678 1.458 . S
C1675 H1704 0.980 1_545 S
O1676 C1621 1.426 . S
O1676 C1622 1.334 . S
O1677 C1649 1.412 . S
O1677 C1650 1.393 . S
O1678 C1640 1.435 . S
O1678 C1675 1.458 . S
O1679 C1631 1.468 . S
O1679 C1632 1.408 . S
H1680 C1621 0.980 1_545 S
H1681 C1620 0.959 . S
H1682 C1620 0.959 . S
H1683 C1620 0.960 . S
H1684 C1623 0.929 . S
H1685 C1627 0.929 . S
H1686 C1628 0.959 . S
H1687 C1628 0.961 . S
H1688 C1628 0.961 . S
H1689 C1629 0.960 . S
H1690 C1629 0.960 . S
H1691 C1629 0.961 . S
H1692 C1631 0.980 . S
H1693 C1630 0.961 . S
H1694 C1630 0.960 . S
H1695 C1630 0.959 . S
H1696 C1633 0.932 . S
H1697 C1637 0.931 . S
H1698 C1638 0.959 . S
H1699 C1638 0.961 . S
H1700 C1638 0.959 . S
H1701 C1639 0.960 . S
H1702 C1639 0.960 . S
H1703 C1639 0.960 . S
H1704 C1675 0.980 1_565 S
H1705 C1641 0.930 . S
H1706 C1645 0.930 . S
H1707 C1646 0.961 . S
H1708 C1646 0.960 . S
H1709 C1646 0.958 . S
H1710 C1647 0.961 . S
H1711 C1647 0.960 . S
H1712 C1647 0.960 . S
H1713 C1649 0.980 . S
H1714 C1648 0.961 . S
H1715 C1648 0.961 . S
H1716 C1648 0.959 . S
H1717 C1651 0.932 . S
H1718 C1655 0.929 . S
H1719 C1656 0.961 . S
H1720 C1656 0.959 . S
H1721 C1656 0.959 . S
H1722 C1657 0.960 . S
H1723 C1657 0.962 . S
H1724 C1657 0.961 . S
H1725 C1659 0.929 . S
H1726 C1662 0.930 . S
H1727 C1663 0.929 . S
H1728 C1666 0.930 . S
H1729 C1669 0.954 . S
H1730 C1670 0.930 . S
H1731 C1674 0.962 . S
H1732 C1674 0.959 . S
H1733 C1674 0.958 . S
C1734 C1735 1.560 . S
C1734 H1795 0.959 . S
C1734 H1796 0.959 . S
C1734 H1797 0.960 . S
C1735 C1734 1.560 . S
C1735 O1790 1.426 . S
C1735 H1794 0.980 1_455 S
C1736 C1737 1.407 1_455 S
C1736 C1741 1.418 . S
C1736 O1790 1.334 . S
C1737 C1736 1.407 1_655 S
C1737 C1738 1.360 . S
C1737 H1798 0.929 . S
C1738 C1737 1.360 . S
C1738 C1739 1.401 . S
C1738 C1742 1.527 . S
C1739 C1738 1.401 . S
C1739 C1740 1.405 1_655 S
C1739 C1772 1.587 . S
C1740 C1739 1.405 1_455 S
C1740 C1741 1.332 . S
C1740 C1743 1.496 . S
C1741 C1736 1.418 . S
C1741 C1740 1.332 . S
C1741 H1799 0.929 . S
C1742 C1738 1.527 . S
C1742 H1800 0.959 . S
C1742 H1801 0.961 . S
C1742 H1802 0.961 . S
C1743 C1740 1.496 . S
C1743 H1803 0.960 . S
C1743 H1804 0.960 . S
C1743 H1805 0.961 . S
C1744 C1745 1.517 . S
C1744 H1807 0.961 . S
C1744 H1808 0.960 . S
C1744 H1809 0.959 . S
C1745 C1744 1.517 . S
C1745 O1793 1.468 . S
C1745 H1806 0.980 . S
C1746 C1747 1.349 . S
C1746 C1751 1.367 . S
C1746 O1793 1.408 . S
C1747 C1746 1.349 . S
C1747 C1748 1.407 . S
C1747 H1810 0.898 1_655 S
C1748 C1747 1.407 . S
C1748 C1749 1.449 . S
C1748 C1752 1.535 1_655 S
C1749 C1748 1.449 . S
C1749 C1750 1.384 . S
C1749 C1774 1.553 . S
C1750 C1749 1.384 . S
C1750 C1751 1.364 . S
C1750 C1753 1.450 . S
C1751 C1746 1.367 . S
C1751 C1750 1.364 . S
C1751 H1811 0.931 . S
C1752 C1748 1.535 1_455 S
C1752 H1812 0.959 . S
C1752 H1813 0.961 . S
C1752 H1814 0.959 . S
C1753 C1750 1.450 . S
C1753 H1815 0.960 . S
C1753 H1816 0.960 . S
C1753 H1817 0.960 . S
C1754 C1755 1.309 1_655 S
C1754 C1759 1.304 . S
C1754 O1792 1.435 . S
C1755 C1754 1.309 1_455 S
C1755 C1756 1.476 . S
C1755 H1819 0.930 . S
C1756 C1755 1.476 . S
C1756 C1757 1.400 1_455 S
C1756 C1760 1.567 . S
C1757 C1756 1.400 1_655 S
C1757 C1758 1.373 . S
C1757 C1779 1.432 . S
C1758 C1757 1.373 . S
C1758 C1759 1.339 . S
C1758 C1761 1.530 . S
C1759 C1754 1.304 . S
C1759 C1758 1.339 . S
C1759 H1820 0.930 . S
C1760 C1756 1.567 . S
C1760 H1821 0.961 . S
C1760 H1822 0.960 . S
C1760 H1823 0.958 . S
C1761 C1758 1.530 . S
C1761 H1824 0.961 . S
C1761 H1825 0.960 . S
C1761 H1826 0.960 . S
C1762 C1763 1.530 . S
C1762 H1828 0.961 . S
C1762 H1829 0.961 . S
C1762 H1830 0.959 . S
C1763 C1762 1.530 . S
C1763 O1791 1.412 . S
C1763 H1827 0.969 1_455 S
C1764 C1765 1.288 . S
C1764 C1769 1.377 1_455 S
C1764 O1791 1.393 . S
C1765 C1764 1.288 . S
C1765 C1766 1.369 . S
C1765 H1831 0.932 . S
C1766 C1765 1.369 . S
C1766 C1767 1.398 . S
C1766 C1770 1.527 . S
C1767 C1766 1.398 . S
C1767 C1768 1.380 1_455 S
C1767 C1781 1.497 1_455 S
C1768 C1767 1.380 1_655 S
C1768 C1769 1.383 . S
C1768 C1771 1.603 . S
C1769 C1764 1.377 1_655 S
C1769 C1768 1.383 . S
C1769 H1832 0.929 . S
C1770 C1766 1.527 . S
C1770 H1833 0.961 . S
C1770 H1834 0.959 . S
C1770 H1835 0.959 . S
C1771 C1768 1.603 . S
C1771 H1836 0.960 . S
C1771 H1837 0.962 . S
C1771 H1838 0.961 . S
C1772 C1739 1.587 . S
C1772 C1773 1.360 . S
C1772 C1785 1.412 . S
C1773 C1772 1.360 . S
C1773 C1774 1.365 . S
C1773 H1839 0.929 . S
C1774 C1749 1.553 . S
C1774 C1773 1.365 . S
C1774 C1775 1.404 . S
C1775 C1774 1.404 . S
C1775 C1776 1.395 . S
C1775 C1786 1.451 . S
C1776 C1775 1.395 . S
C1776 C1777 1.322 . S
C1776 H1840 0.930 . S
C1777 C1776 1.322 . S
C1777 C1778 1.459 . S
C1777 H1841 0.929 . S
C1778 C1777 1.459 . S
C1778 C1779 1.445 . S
C1778 C1787 1.395 . S
C1779 C1757 1.432 . S
C1779 C1778 1.445 . S
C1779 C1780 1.370 . S
C1780 C1779 1.370 . S
C1780 C1781 1.438 . S
C1780 H1842 0.930 . S
C1781 C1767 1.497 1_655 S
C1781 C1780 1.438 . S
C1781 C1782 1.360 . S
C1782 C1781 1.360 . S
C1782 C1783 1.401 . S
C1782 C1787 1.446 . S
C1783 C1782 1.401 . S
C1783 C1784 1.347 . S
C1783 H1843 0.929 . S
C1784 C1783 1.347 . S
C1784 C1785 1.455 . S
C1784 H1844 0.930 . S
C1785 C1772 1.412 . S
C1785 C1784 1.455 . S
C1785 C1786 1.331 . S
C1786 C1775 1.451 . S
C1786 C1785 1.331 . S
C1786 C1787 1.497 . S
C1787 C1778 1.395 . S
C1787 C1782 1.446 . S
C1787 C1786 1.497 . S
C1788 C1789 1.582 1_655 S
C1788 H1845 0.915 1_655 S
C1788 H1846 0.959 . S
C1788 H1847 0.958 . S
C1789 C1788 1.582 1_455 S
C1789 O1792 1.458 1_455 S
C1789 H1818 0.980 . S
O1790 C1735 1.426 . S
O1790 C1736 1.334 . S
O1791 C1763 1.412 . S
O1791 C1764 1.393 . S
O1792 C1754 1.435 . S
O1792 C1789 1.458 1_655 S
O1793 C1745 1.468 . S
O1793 C1746 1.408 . S
H1794 C1735 0.980 1_655 S
H1795 C1734 0.959 . S
H1796 C1734 0.959 . S
H1797 C1734 0.960 . S
H1798 C1737 0.929 . S
H1799 C1741 0.929 . S
H1800 C1742 0.959 . S
H1801 C1742 0.961 . S
H1802 C1742 0.961 . S
H1803 C1743 0.960 . S
H1804 C1743 0.960 . S
H1805 C1743 0.961 . S
H1806 C1745 0.980 . S
H1807 C1744 0.961 . S
H1808 C1744 0.960 . S
H1809 C1744 0.959 . S
H1810 C1747 0.898 1_455 S
H1811 C1751 0.931 . S
H1812 C1752 0.959 . S
H1813 C1752 0.961 . S
H1814 C1752 0.959 . S
H1815 C1753 0.960 . S
H1816 C1753 0.960 . S
H1817 C1753 0.960 . S
H1818 C1789 0.980 . S
H1819 C1755 0.930 . S
H1820 C1759 0.930 . S
H1821 C1760 0.961 . S
H1822 C1760 0.960 . S
H1823 C1760 0.958 . S
H1824 C1761 0.961 . S
H1825 C1761 0.960 . S
H1826 C1761 0.960 . S
H1827 C1763 0.969 1_655 S
H1828 C1762 0.961 . S
H1829 C1762 0.961 . S
H1830 C1762 0.959 . S
H1831 C1765 0.932 . S
H1832 C1769 0.929 . S
H1833 C1770 0.961 . S
H1834 C1770 0.959 . S
H1835 C1770 0.959 . S
H1836 C1771 0.960 . S
H1837 C1771 0.962 . S
H1838 C1771 0.961 . S
H1839 C1773 0.929 . S
H1840 C1776 0.930 . S
H1841 C1777 0.929 . S
H1842 C1780 0.930 . S
H1843 C1783 0.929 . S
H1844 C1784 0.930 . S
H1845 C1788 0.915 1_455 S
H1846 C1788 0.959 . S
H1847 C1788 0.958 . S
C1848 C1849 1.560 . S
C1848 H1909 0.959 . S
C1848 H1910 0.959 . S
C1848 H1911 0.960 . S
C1849 C1848 1.560 . S
C1849 O1904 1.426 . S
C1849 H1908 0.980 . S
C1850 C1851 1.407 . S
C1850 C1855 1.418 . S
C1850 O1904 1.334 . S
C1851 C1850 1.407 . S
C1851 C1852 1.360 . S
C1851 H1912 0.929 . S
C1852 C1851 1.360 . S
C1852 C1853 1.401 . S
C1852 C1856 1.527 . S
C1853 C1852 1.401 . S
C1853 C1854 1.405 . S
C1853 C1886 1.587 . S
C1854 C1853 1.405 . S
C1854 C1855 1.332 . S
C1854 C1857 1.496 . S
C1855 C1850 1.418 . S
C1855 C1854 1.332 . S
C1855 H1913 0.929 . S
C1856 C1852 1.527 . S
C1856 H1914 0.959 . S
C1856 H1915 0.961 . S
C1856 H1916 0.961 . S
C1857 C1854 1.496 . S
C1857 H1917 0.960 . S
C1857 H1918 0.960 . S
C1857 H1919 0.961 . S
C1858 C1859 1.517 . S
C1858 H1921 0.961 . S
C1858 H1922 0.960 . S
C1858 H1923 0.959 . S
C1859 C1858 1.517 . S
C1859 O1907 1.468 . S
C1859 H1920 0.980 . S
C1860 C1861 1.349 . S
C1860 C1865 1.367 . S
C1860 O1907 1.408 . S
C1861 C1860 1.349 . S
C1861 C1862 1.407 . S
C1861 H1924 0.930 . S
C1862 C1861 1.407 . S
C1862 C1863 1.449 . S
C1862 C1866 1.535 . S
C1863 C1862 1.449 . S
C1863 C1864 1.384 . S
C1863 C1888 1.553 . S
C1864 C1863 1.384 . S
C1864 C1865 1.364 . S
C1864 C1867 1.450 . S
C1865 C1860 1.367 . S
C1865 C1864 1.364 . S
C1865 H1925 0.931 . S
C1866 C1862 1.535 . S
C1866 H1926 0.959 . S
C1866 H1927 0.961 . S
C1866 H1928 0.959 . S
C1867 C1864 1.450 . S
C1867 H1929 0.960 . S
C1867 H1930 0.960 . S
C1867 H1931 0.960 . S
C1868 C1869 1.309 . S
C1868 C1873 1.304 . S
C1868 O1906 1.435 . S
C1869 C1868 1.309 . S
C1869 C1870 1.476 . S
C1869 H1933 0.930 . S
C1870 C1869 1.476 . S
C1870 C1871 1.400 . S
C1870 C1874 1.567 . S
C1871 C1870 1.400 . S
C1871 C1872 1.373 . S
C1871 C1893 1.432 . S
C1872 C1871 1.373 . S
C1872 C1873 1.339 . S
C1872 C1875 1.530 . S
C1873 C1868 1.304 . S
C1873 C1872 1.339 . S
C1873 H1934 0.930 . S
C1874 C1870 1.567 . S
C1874 H1935 0.961 . S
C1874 H1936 0.960 . S
C1874 H1937 0.958 . S
C1875 C1872 1.530 . S
C1875 H1938 0.961 . S
C1875 H1939 0.960 . S
C1875 H1940 0.960 . S
C1876 C1877 1.530 . S
C1876 H1942 0.961 . S
C1876 H1943 0.961 . S
C1876 H1944 0.959 . S
C1877 C1876 1.530 . S
C1877 O1905 1.412 . S
C1877 H1941 0.980 . S
C1878 C1879 1.288 . S
C1878 C1883 1.377 . S
C1878 O1905 1.393 . S
C1879 C1878 1.288 . S
C1879 C1880 1.369 . S
C1879 H1945 0.932 . S
C1880 C1879 1.369 . S
C1880 C1881 1.398 . S
C1880 C1884 1.527 . S
C1881 C1880 1.398 . S
C1881 C1882 1.380 . S
C1881 C1895 1.497 . S
C1882 C1881 1.380 . S
C1882 C1883 1.383 . S
C1882 C1885 1.603 . S
C1883 C1878 1.377 . S
C1883 C1882 1.383 . S
C1883 H1946 0.929 . S
C1884 C1880 1.527 . S
C1884 H1947 0.961 . S
C1884 H1948 0.959 . S
C1884 H1949 0.959 . S
C1885 C1882 1.603 . S
C1885 H1950 0.960 . S
C1885 H1951 0.962 . S
C1885 H1952 0.961 . S
C1886 C1853 1.587 . S
C1886 C1887 1.360 . S
C1886 C1899 1.412 . S
C1887 C1886 1.360 . S
C1887 C1888 1.365 . S
C1887 H1953 0.929 . S
C1888 C1863 1.553 . S
C1888 C1887 1.365 . S
C1888 C1889 1.404 . S
C1889 C1888 1.404 . S
C1889 C1890 1.395 . S
C1889 C1900 1.451 . S
C1890 C1889 1.395 . S
C1890 C1891 1.322 . S
C1890 H1954 0.930 . S
C1891 C1890 1.322 . S
C1891 C1892 1.459 . S
C1891 H1955 0.929 . S
C1892 C1891 1.459 . S
C1892 C1893 1.445 . S
C1892 C1901 1.395 . S
C1893 C1871 1.432 . S
C1893 C1892 1.445 . S
C1893 C1894 1.370 . S
C1894 C1893 1.370 . S
C1894 C1895 1.438 . S
C1894 H1956 0.930 . S
C1895 C1881 1.497 . S
C1895 C1894 1.438 . S
C1895 C1896 1.360 . S
C1896 C1895 1.360 . S
C1896 C1897 1.401 . S
C1896 C1901 1.446 . S
C1897 C1896 1.401 . S
C1897 C1898 1.347 . S
C1897 H1957 0.929 . S
C1898 C1897 1.347 . S
C1898 C1899 1.455 . S
C1898 H1958 0.930 . S
C1899 C1886 1.412 . S
C1899 C1898 1.455 . S
C1899 C1900 1.331 . S
C1900 C1889 1.451 . S
C1900 C1899 1.331 . S
C1900 C1901 1.497 . S
C1901 C1892 1.395 . S
C1901 C1896 1.446 . S
C1901 C1900 1.497 . S
C1902 C1903 1.582 . S
C1902 H1959 0.962 . S
C1902 H1960 0.959 . S
C1902 H1961 0.958 . S
C1903 C1902 1.582 . S
C1903 O1906 1.458 . S
C1903 H1932 0.980 . S
O1904 C1849 1.426 . S
O1904 C1850 1.334 . S
O1905 C1877 1.412 . S
O1905 C1878 1.393 . S
O1906 C1868 1.435 . S
O1906 C1903 1.458 . S
O1907 C1859 1.468 . S
O1907 C1860 1.408 . S
H1908 C1849 0.980 . S
H1909 C1848 0.959 . S
H1910 C1848 0.959 . S
H1911 C1848 0.960 . S
H1912 C1851 0.929 . S
H1913 C1855 0.929 . S
H1914 C1856 0.959 . S
H1915 C1856 0.961 . S
H1916 C1856 0.961 . S
H1917 C1857 0.960 . S
H1918 C1857 0.960 . S
H1919 C1857 0.961 . S
H1920 C1859 0.980 . S
H1921 C1858 0.961 . S
H1922 C1858 0.960 . S
H1923 C1858 0.959 . S
H1924 C1861 0.930 . S
H1925 C1865 0.931 . S
H1926 C1866 0.959 . S
H1927 C1866 0.961 . S
H1928 C1866 0.959 . S
H1929 C1867 0.960 . S
H1930 C1867 0.960 . S
H1931 C1867 0.960 . S
H1932 C1903 0.980 . S
H1933 C1869 0.930 . S
H1934 C1873 0.930 . S
H1935 C1874 0.961 . S
H1936 C1874 0.960 . S
H1937 C1874 0.958 . S
H1938 C1875 0.961 . S
H1939 C1875 0.960 . S
H1940 C1875 0.960 . S
H1941 C1877 0.980 . S
H1942 C1876 0.961 . S
H1943 C1876 0.961 . S
H1944 C1876 0.959 . S
H1945 C1879 0.932 . S
H1946 C1883 0.929 . S
H1947 C1884 0.961 . S
H1948 C1884 0.959 . S
H1949 C1884 0.959 . S
H1950 C1885 0.960 . S
H1951 C1885 0.962 . S
H1952 C1885 0.961 . S
H1953 C1887 0.929 . S
H1954 C1890 0.930 . S
H1955 C1891 0.929 . S
H1956 C1894 0.930 . S
H1957 C1897 0.929 . S
H1958 C1898 0.930 . S
H1959 C1902 0.962 . S
H1960 C1902 0.959 . S
H1961 C1902 0.958 . S
C1962 C1963 1.560 . S
C1962 H2023 0.959 . S
C1962 H2024 0.959 . S
C1962 H2025 0.960 . S
C1963 C1962 1.560 . S
C1963 O2018 1.426 . S
C1963 H2022 0.980 . S
C1964 C1965 1.407 . S
C1964 C1969 1.418 . S
C1964 O2018 1.334 . S
C1965 C1964 1.407 . S
C1965 C1966 1.360 . S
C1965 H2026 0.929 . S
C1966 C1965 1.360 . S
C1966 C1967 1.401 . S
C1966 C1970 1.527 . S
C1967 C1966 1.401 . S
C1967 C1968 1.405 . S
C1967 C2000 1.587 . S
C1968 C1967 1.405 . S
C1968 C1969 1.332 . S
C1968 C1971 1.496 . S
C1969 C1964 1.418 . S
C1969 C1968 1.332 . S
C1969 H2027 0.929 . S
C1970 C1966 1.527 . S
C1970 H2028 0.959 . S
C1970 H2029 0.961 . S
C1970 H2030 0.961 . S
C1971 C1968 1.496 . S
C1971 H2031 0.960 . S
C1971 H2032 0.960 . S
C1971 H2033 0.961 . S
C1972 C1973 1.517 . S
C1972 H2035 0.961 . S
C1972 H2036 0.960 . S
C1972 H2037 0.959 . S
C1973 C1972 1.517 . S
C1973 O2021 1.468 . S
C1973 H2034 0.980 . S
C1974 C1975 1.349 . S
C1974 C1979 1.367 . S
C1974 O2021 1.408 . S
C1975 C1974 1.349 . S
C1975 C1976 1.407 . S
C1975 H2038 0.930 . S
C1976 C1975 1.407 . S
C1976 C1977 1.449 . S
C1976 C1980 1.535 . S
C1977 C1976 1.449 . S
C1977 C1978 1.384 . S
C1977 C2002 1.553 . S
C1978 C1977 1.384 . S
C1978 C1979 1.364 . S
C1978 C1981 1.450 . S
C1979 C1974 1.367 . S
C1979 C1978 1.364 . S
C1979 H2039 0.931 . S
C1980 C1976 1.535 . S
C1980 H2040 0.959 . S
C1980 H2041 0.961 . S
C1980 H2042 0.959 . S
C1981 C1978 1.450 . S
C1981 H2043 0.960 . S
C1981 H2044 0.960 . S
C1981 H2045 0.960 . S
C1982 C1983 1.309 . S
C1982 C1987 1.304 . S
C1982 O2020 1.435 . S
C1983 C1982 1.309 . S
C1983 C1984 1.476 . S
C1983 H2047 0.930 . S
C1984 C1983 1.476 . S
C1984 C1985 1.400 . S
C1984 C1988 1.567 . S
C1985 C1984 1.400 . S
C1985 C1986 1.373 . S
C1985 C2007 1.432 . S
C1986 C1985 1.373 . S
C1986 C1987 1.339 . S
C1986 C1989 1.530 . S
C1987 C1982 1.304 . S
C1987 C1986 1.339 . S
C1987 H2048 0.930 . S
C1988 C1984 1.567 . S
C1988 H2049 0.961 . S
C1988 H2050 0.960 . S
C1988 H2051 0.958 . S
C1989 C1986 1.530 . S
C1989 H2052 0.961 . S
C1989 H2053 0.960 . S
C1989 H2054 0.960 . S
C1990 C1991 1.530 . S
C1990 H2056 0.961 . S
C1990 H2057 0.961 . S
C1990 H2058 0.959 . S
C1991 C1990 1.530 . S
C1991 O2019 1.412 . S
C1991 H2055 0.980 . S
C1992 C1993 1.288 . S
C1992 C1997 1.377 . S
C1992 O2019 1.393 . S
C1993 C1992 1.288 . S
C1993 C1994 1.369 . S
C1993 H2059 0.932 . S
C1994 C1993 1.369 . S
C1994 C1995 1.398 . S
C1994 C1998 1.527 . S
C1995 C1994 1.398 . S
C1995 C1996 1.380 . S
C1995 C2009 1.497 . S
C1996 C1995 1.380 . S
C1996 C1997 1.383 . S
C1996 C1999 1.603 . S
C1997 C1992 1.377 . S
C1997 C1996 1.383 . S
C1997 H2060 0.929 . S
C1998 C1994 1.527 . S
C1998 H2061 0.961 . S
C1998 H2062 0.959 . S
C1998 H2063 0.959 . S
C1999 C1996 1.603 . S
C1999 H2064 0.960 . S
C1999 H2065 0.962 . S
C1999 H2066 0.961 . S
C2000 C1967 1.587 . S
C2000 C2001 1.360 . S
C2000 C2013 1.412 . S
C2001 C2000 1.360 . S
C2001 C2002 1.365 . S
C2001 H2067 0.929 . S
C2002 C1977 1.553 . S
C2002 C2001 1.365 . S
C2002 C2003 1.404 . S
C2003 C2002 1.404 . S
C2003 C2004 1.395 . S
C2003 C2014 1.451 . S
C2004 C2003 1.395 . S
C2004 C2005 1.322 . S
C2004 H2068 0.930 . S
C2005 C2004 1.322 . S
C2005 C2006 1.459 . S
C2005 H2069 0.929 . S
C2006 C2005 1.459 . S
C2006 C2007 1.445 . S
C2006 C2015 1.395 . S
C2007 C1985 1.432 . S
C2007 C2006 1.445 . S
C2007 C2008 1.370 . S
C2008 C2007 1.370 . S
C2008 C2009 1.438 . S
C2008 H2070 0.930 . S
C2009 C1995 1.497 . S
C2009 C2008 1.438 . S
C2009 C2010 1.360 . S
C2010 C2009 1.360 . S
C2010 C2011 1.401 . S
C2010 C2015 1.446 . S
C2011 C2010 1.401 . S
C2011 C2012 1.347 . S
C2011 H2071 0.929 . S
C2012 C2011 1.347 . S
C2012 C2013 1.455 . S
C2012 H2072 0.930 . S
C2013 C2000 1.412 . S
C2013 C2012 1.455 . S
C2013 C2014 1.331 . S
C2014 C2003 1.451 . S
C2014 C2013 1.331 . S
C2014 C2015 1.497 . S
C2015 C2006 1.395 . S
C2015 C2010 1.446 . S
C2015 C2014 1.497 . S
C2016 C2017 1.582 . S
C2016 H2073 0.962 . S
C2016 H2074 0.959 . S
C2016 H2075 0.958 . S
C2017 C2016 1.582 . S
C2017 O2020 1.458 . S
C2017 H2046 0.980 . S
O2018 C1963 1.426 . S
O2018 C1964 1.334 . S
O2019 C1991 1.412 . S
O2019 C1992 1.393 . S
O2020 C1982 1.435 . S
O2020 C2017 1.458 . S
O2021 C1973 1.468 . S
O2021 C1974 1.408 . S
H2022 C1963 0.980 . S
H2023 C1962 0.959 . S
H2024 C1962 0.959 . S
H2025 C1962 0.960 . S
H2026 C1965 0.929 . S
H2027 C1969 0.929 . S
H2028 C1970 0.959 . S
H2029 C1970 0.961 . S
H2030 C1970 0.961 . S
H2031 C1971 0.960 . S
H2032 C1971 0.960 . S
H2033 C1971 0.961 . S
H2034 C1973 0.980 . S
H2035 C1972 0.961 . S
H2036 C1972 0.960 . S
H2037 C1972 0.959 . S
H2038 C1975 0.930 . S
H2039 C1979 0.931 . S
H2040 C1980 0.959 . S
H2041 C1980 0.961 . S
H2042 C1980 0.959 . S
H2043 C1981 0.960 . S
H2044 C1981 0.960 . S
H2045 C1981 0.960 . S
H2046 C2017 0.980 . S
H2047 C1983 0.930 . S
H2048 C1987 0.930 . S
H2049 C1988 0.961 . S
H2050 C1988 0.960 . S
H2051 C1988 0.958 . S
H2052 C1989 0.961 . S
H2053 C1989 0.960 . S
H2054 C1989 0.960 . S
H2055 C1991 0.980 . S
H2056 C1990 0.961 . S
H2057 C1990 0.961 . S
H2058 C1990 0.959 . S
H2059 C1993 0.932 . S
H2060 C1997 0.929 . S
H2061 C1998 0.961 . S
H2062 C1998 0.959 . S
H2063 C1998 0.959 . S
H2064 C1999 0.960 . S
H2065 C1999 0.962 . S
H2066 C1999 0.961 . S
H2067 C2001 0.929 . S
H2068 C2004 0.930 . S
H2069 C2005 0.929 . S
H2070 C2008 0.930 . S
H2071 C2011 0.929 . S
H2072 C2012 0.930 . S
H2073 C2016 0.962 . S
H2074 C2016 0.959 . S
H2075 C2016 0.958 . S
C2076 C2077 1.560 . S
C2076 H2137 0.959 . S
C2076 H2138 0.959 . S
C2076 H2139 0.960 . S
C2077 C2076 1.560 . S
C2077 O2132 1.426 . S
C2077 H2136 0.980 . S
C2078 C2079 1.407 . S
C2078 C2083 1.418 . S
C2078 O2132 1.334 . S
C2079 C2078 1.407 . S
C2079 C2080 1.360 . S
C2079 H2140 0.929 . S
C2080 C2079 1.360 . S
C2080 C2081 1.401 . S
C2080 C2084 1.527 . S
C2081 C2080 1.401 . S
C2081 C2082 1.405 . S
C2081 C2114 1.587 . S
C2082 C2081 1.405 . S
C2082 C2083 1.332 . S
C2082 C2085 1.496 . S
C2083 C2078 1.418 . S
C2083 C2082 1.332 . S
C2083 H2141 0.929 . S
C2084 C2080 1.527 . S
C2084 H2142 0.959 . S
C2084 H2143 0.961 . S
C2084 H2144 0.961 . S
C2085 C2082 1.496 . S
C2085 H2145 0.960 . S
C2085 H2146 0.960 . S
C2085 H2147 0.961 . S
C2086 C2087 1.517 . S
C2086 H2149 0.961 . S
C2086 H2150 0.960 . S
C2086 H2151 0.959 . S
C2087 C2086 1.517 . S
C2087 O2135 1.468 . S
C2087 H2148 0.980 . S
C2088 C2089 1.349 . S
C2088 C2093 1.367 . S
C2088 O2135 1.408 . S
C2089 C2088 1.349 . S
C2089 C2090 1.407 . S
C2089 H2152 0.930 . S
C2090 C2089 1.407 . S
C2090 C2091 1.449 . S
C2090 C2094 1.535 . S
C2091 C2090 1.449 . S
C2091 C2092 1.384 . S
C2091 C2116 1.553 . S
C2092 C2091 1.384 . S
C2092 C2093 1.364 . S
C2092 C2095 1.450 . S
C2093 C2088 1.367 . S
C2093 C2092 1.364 . S
C2093 H2153 0.931 . S
C2094 C2090 1.535 . S
C2094 H2154 0.959 . S
C2094 H2155 0.961 . S
C2094 H2156 0.959 . S
C2095 C2092 1.450 . S
C2095 H2157 0.960 . S
C2095 H2158 0.960 . S
C2095 H2159 0.960 . S
C2096 C2097 1.309 . S
C2096 C2101 1.304 . S
C2096 O2134 1.435 . S
C2097 C2096 1.309 . S
C2097 C2098 1.476 . S
C2097 H2161 0.930 . S
C2098 C2097 1.476 . S
C2098 C2099 1.400 . S
C2098 C2102 1.567 . S
C2099 C2098 1.400 . S
C2099 C2100 1.373 . S
C2099 C2121 1.432 . S
C2100 C2099 1.373 . S
C2100 C2101 1.339 . S
C2100 C2103 1.530 . S
C2101 C2096 1.304 . S
C2101 C2100 1.339 . S
C2101 H2162 0.930 . S
C2102 C2098 1.567 . S
C2102 H2163 0.961 . S
C2102 H2164 0.960 . S
C2102 H2165 0.958 . S
C2103 C2100 1.530 . S
C2103 H2166 0.961 . S
C2103 H2167 0.960 . S
C2103 H2168 0.960 . S
C2104 C2105 1.530 . S
C2104 H2170 0.961 . S
C2104 H2171 0.961 . S
C2104 H2172 0.959 . S
C2105 C2104 1.530 . S
C2105 O2133 1.412 . S
C2105 H2169 0.980 . S
C2106 C2107 1.288 . S
C2106 C2111 1.377 . S
C2106 O2133 1.393 . S
C2107 C2106 1.288 . S
C2107 C2108 1.369 . S
C2107 H2173 0.932 . S
C2108 C2107 1.369 . S
C2108 C2109 1.398 . S
C2108 C2112 1.527 . S
C2109 C2108 1.398 . S
C2109 C2110 1.380 . S
C2109 C2123 1.497 . S
C2110 C2109 1.380 . S
C2110 C2111 1.383 . S
C2110 C2113 1.603 . S
C2111 C2106 1.377 . S
C2111 C2110 1.383 . S
C2111 H2174 0.929 . S
C2112 C2108 1.527 . S
C2112 H2175 0.961 . S
C2112 H2176 0.959 . S
C2112 H2177 0.959 . S
C2113 C2110 1.603 . S
C2113 H2178 0.960 . S
C2113 H2179 0.962 . S
C2113 H2180 0.961 . S
C2114 C2081 1.587 . S
C2114 C2115 1.360 . S
C2114 C2127 1.412 . S
C2115 C2114 1.360 . S
C2115 C2116 1.365 . S
C2115 H2181 0.929 . S
C2116 C2091 1.553 . S
C2116 C2115 1.365 . S
C2116 C2117 1.404 . S
C2117 C2116 1.404 . S
C2117 C2118 1.395 . S
C2117 C2128 1.451 . S
C2118 C2117 1.395 . S
C2118 C2119 1.322 . S
C2118 H2182 0.930 . S
C2119 C2118 1.322 . S
C2119 C2120 1.459 . S
C2119 H2183 0.929 . S
C2120 C2119 1.459 . S
C2120 C2121 1.445 . S
C2120 C2129 1.395 . S
C2121 C2099 1.432 . S
C2121 C2120 1.445 . S
C2121 C2122 1.370 . S
C2122 C2121 1.370 . S
C2122 C2123 1.438 . S
C2122 H2184 0.930 . S
C2123 C2109 1.497 . S
C2123 C2122 1.438 . S
C2123 C2124 1.360 . S
C2124 C2123 1.360 . S
C2124 C2125 1.401 . S
C2124 C2129 1.446 . S
C2125 C2124 1.401 . S
C2125 C2126 1.347 . S
C2125 H2185 0.929 . S
C2126 C2125 1.347 . S
C2126 C2127 1.455 . S
C2126 H2186 0.930 . S
C2127 C2114 1.412 . S
C2127 C2126 1.455 . S
C2127 C2128 1.331 . S
C2128 C2117 1.451 . S
C2128 C2127 1.331 . S
C2128 C2129 1.497 . S
C2129 C2120 1.395 . S
C2129 C2124 1.446 . S
C2129 C2128 1.497 . S
C2130 C2131 1.582 . S
C2130 H2187 0.962 . S
C2130 H2188 0.959 . S
C2130 H2189 0.958 . S
C2131 C2130 1.582 . S
C2131 O2134 1.458 . S
C2131 H2160 0.980 . S
O2132 C2077 1.426 . S
O2132 C2078 1.334 . S
O2133 C2105 1.412 . S
O2133 C2106 1.393 . S
O2134 C2096 1.435 . S
O2134 C2131 1.458 . S
O2135 C2087 1.468 . S
O2135 C2088 1.408 . S
H2136 C2077 0.980 . S
H2137 C2076 0.959 . S
H2138 C2076 0.959 . S
H2139 C2076 0.960 . S
H2140 C2079 0.929 . S
H2141 C2083 0.929 . S
H2142 C2084 0.959 . S
H2143 C2084 0.961 . S
H2144 C2084 0.961 . S
H2145 C2085 0.960 . S
H2146 C2085 0.960 . S
H2147 C2085 0.961 . S
H2148 C2087 0.980 . S
H2149 C2086 0.961 . S
H2150 C2086 0.960 . S
H2151 C2086 0.959 . S
H2152 C2089 0.930 . S
H2153 C2093 0.931 . S
H2154 C2094 0.959 . S
H2155 C2094 0.961 . S
H2156 C2094 0.959 . S
H2157 C2095 0.960 . S
H2158 C2095 0.960 . S
H2159 C2095 0.960 . S
H2160 C2131 0.980 . S
H2161 C2097 0.930 . S
H2162 C2101 0.930 . S
H2163 C2102 0.961 . S
H2164 C2102 0.960 . S
H2165 C2102 0.958 . S
H2166 C2103 0.961 . S
H2167 C2103 0.960 . S
H2168 C2103 0.960 . S
H2169 C2105 0.980 . S
H2170 C2104 0.961 . S
H2171 C2104 0.961 . S
H2172 C2104 0.959 . S
H2173 C2107 0.932 . S
H2174 C2111 0.929 . S
H2175 C2112 0.961 . S
H2176 C2112 0.959 . S
H2177 C2112 0.959 . S
H2178 C2113 0.960 . S
H2179 C2113 0.962 . S
H2180 C2113 0.961 . S
H2181 C2115 0.929 . S
H2182 C2118 0.930 . S
H2183 C2119 0.929 . S
H2184 C2122 0.930 . S
H2185 C2125 0.929 . S
H2186 C2126 0.930 . S
H2187 C2130 0.962 . S
H2188 C2130 0.959 . S
H2189 C2130 0.958 . S
C2190 C2191 1.560 . S
C2190 H2251 0.959 . S
C2190 H2252 0.959 . S
C2190 H2253 0.960 . S
C2191 C2190 1.560 . S
C2191 O2246 1.426 . S
C2191 H2250 0.980 . S
C2192 C2193 1.407 . S
C2192 C2197 1.418 . S
C2192 O2246 1.334 . S
C2193 C2192 1.407 . S
C2193 C2194 1.360 . S
C2193 H2254 0.929 . S
C2194 C2193 1.360 . S
C2194 C2195 1.401 . S
C2194 C2198 1.527 . S
C2195 C2194 1.401 . S
C2195 C2196 1.405 . S
C2195 C2228 1.587 . S
C2196 C2195 1.405 . S
C2196 C2197 1.332 . S
C2196 C2199 1.496 . S
C2197 C2192 1.418 . S
C2197 C2196 1.332 . S
C2197 H2255 0.929 . S
C2198 C2194 1.527 . S
C2198 H2256 0.959 . S
C2198 H2257 0.961 . S
C2198 H2258 0.961 . S
C2199 C2196 1.496 . S
C2199 H2259 0.960 . S
C2199 H2260 0.960 . S
C2199 H2261 0.961 . S
C2200 C2201 1.517 . S
C2200 H2263 0.961 . S
C2200 H2264 0.960 . S
C2200 H2265 0.959 . S
C2201 C2200 1.517 . S
C2201 O2249 1.468 . S
C2201 H2262 0.980 . S
C2202 C2203 1.349 . S
C2202 C2207 1.367 . S
C2202 O2249 1.408 . S
C2203 C2202 1.349 . S
C2203 C2204 1.407 . S
C2203 H2266 0.930 . S
C2204 C2203 1.407 . S
C2204 C2205 1.449 . S
C2204 C2208 1.535 . S
C2205 C2204 1.449 . S
C2205 C2206 1.384 . S
C2205 C2230 1.553 . S
C2206 C2205 1.384 . S
C2206 C2207 1.364 . S
C2206 C2209 1.450 . S
C2207 C2202 1.367 . S
C2207 C2206 1.364 . S
C2207 H2267 0.931 . S
C2208 C2204 1.535 . S
C2208 H2268 0.959 . S
C2208 H2269 0.961 . S
C2208 H2270 0.959 . S
C2209 C2206 1.450 . S
C2209 H2271 0.960 . S
C2209 H2272 0.960 . S
C2209 H2273 0.960 . S
C2210 C2211 1.309 . S
C2210 C2215 1.304 . S
C2210 O2248 1.435 . S
C2211 C2210 1.309 . S
C2211 C2212 1.476 . S
C2211 H2275 0.930 . S
C2212 C2211 1.476 . S
C2212 C2213 1.400 . S
C2212 C2216 1.567 . S
C2213 C2212 1.400 . S
C2213 C2214 1.373 . S
C2213 C2235 1.432 . S
C2214 C2213 1.373 . S
C2214 C2215 1.339 . S
C2214 C2217 1.530 . S
C2215 C2210 1.304 . S
C2215 C2214 1.339 . S
C2215 H2276 0.930 . S
C2216 C2212 1.567 . S
C2216 H2277 0.961 . S
C2216 H2278 0.960 . S
C2216 H2279 0.958 . S
C2217 C2214 1.530 . S
C2217 H2280 0.961 . S
C2217 H2281 0.960 . S
C2217 H2282 0.960 . S
C2218 C2219 1.530 . S
C2218 H2284 0.961 . S
C2218 H2285 0.961 . S
C2218 H2286 0.959 . S
C2219 C2218 1.530 . S
C2219 O2247 1.412 . S
C2219 H2283 0.980 . S
C2220 C2221 1.288 . S
C2220 C2225 1.377 . S
C2220 O2247 1.393 . S
C2221 C2220 1.288 . S
C2221 C2222 1.369 . S
C2221 H2287 0.932 . S
C2222 C2221 1.369 . S
C2222 C2223 1.398 . S
C2222 C2226 1.527 . S
C2223 C2222 1.398 . S
C2223 C2224 1.380 . S
C2223 C2237 1.497 . S
C2224 C2223 1.380 . S
C2224 C2225 1.383 . S
C2224 C2227 1.603 . S
C2225 C2220 1.377 . S
C2225 C2224 1.383 . S
C2225 H2288 0.929 . S
C2226 C2222 1.527 . S
C2226 H2289 0.961 . S
C2226 H2290 0.959 . S
C2226 H2291 0.959 . S
C2227 C2224 1.603 . S
C2227 H2292 0.960 . S
C2227 H2293 0.962 . S
C2227 H2294 0.961 . S
C2228 C2195 1.587 . S
C2228 C2229 1.360 . S
C2228 C2241 1.412 . S
C2229 C2228 1.360 . S
C2229 C2230 1.365 . S
C2229 H2295 0.929 . S
C2230 C2205 1.553 . S
C2230 C2229 1.365 . S
C2230 C2231 1.404 . S
C2231 C2230 1.404 . S
C2231 C2232 1.395 . S
C2231 C2242 1.451 . S
C2232 C2231 1.395 . S
C2232 C2233 1.322 . S
C2232 H2296 0.930 . S
C2233 C2232 1.322 . S
C2233 C2234 1.459 . S
C2233 H2297 0.929 . S
C2234 C2233 1.459 . S
C2234 C2235 1.445 . S
C2234 C2243 1.395 . S
C2235 C2213 1.432 . S
C2235 C2234 1.445 . S
C2235 C2236 1.370 . S
C2236 C2235 1.370 . S
C2236 C2237 1.438 . S
C2236 H2298 0.930 . S
C2237 C2223 1.497 . S
C2237 C2236 1.438 . S
C2237 C2238 1.360 . S
C2238 C2237 1.360 . S
C2238 C2239 1.401 . S
C2238 C2243 1.446 . S
C2239 C2238 1.401 . S
C2239 C2240 1.347 . S
C2239 H2299 0.929 . S
C2240 C2239 1.347 . S
C2240 C2241 1.455 . S
C2240 H2300 0.930 . S
C2241 C2228 1.412 . S
C2241 C2240 1.455 . S
C2241 C2242 1.331 . S
C2242 C2231 1.451 . S
C2242 C2241 1.331 . S
C2242 C2243 1.497 . S
C2243 C2234 1.395 . S
C2243 C2238 1.446 . S
C2243 C2242 1.497 . S
C2244 C2245 1.582 . S
C2244 H2301 0.962 . S
C2244 H2302 0.959 . S
C2244 H2303 0.958 . S
C2245 C2244 1.582 . S
C2245 O2248 1.458 . S
C2245 H2274 0.980 . S
O2246 C2191 1.426 . S
O2246 C2192 1.334 . S
O2247 C2219 1.412 . S
O2247 C2220 1.393 . S
O2248 C2210 1.435 . S
O2248 C2245 1.458 . S
O2249 C2201 1.468 . S
O2249 C2202 1.408 . S
H2250 C2191 0.980 . S
H2251 C2190 0.959 . S
H2252 C2190 0.959 . S
H2253 C2190 0.960 . S
H2254 C2193 0.929 . S
H2255 C2197 0.929 . S
H2256 C2198 0.959 . S
H2257 C2198 0.961 . S
H2258 C2198 0.961 . S
H2259 C2199 0.960 . S
H2260 C2199 0.960 . S
H2261 C2199 0.961 . S
H2262 C2201 0.980 . S
H2263 C2200 0.961 . S
H2264 C2200 0.960 . S
H2265 C2200 0.959 . S
H2266 C2203 0.930 . S
H2267 C2207 0.931 . S
H2268 C2208 0.959 . S
H2269 C2208 0.961 . S
H2270 C2208 0.959 . S
H2271 C2209 0.960 . S
H2272 C2209 0.960 . S
H2273 C2209 0.960 . S
H2274 C2245 0.980 . S
H2275 C2211 0.930 . S
H2276 C2215 0.930 . S
H2277 C2216 0.961 . S
H2278 C2216 0.960 . S
H2279 C2216 0.958 . S
H2280 C2217 0.961 . S
H2281 C2217 0.960 . S
H2282 C2217 0.960 . S
H2283 C2219 0.980 . S
H2284 C2218 0.961 . S
H2285 C2218 0.961 . S
H2286 C2218 0.959 . S
H2287 C2221 0.932 . S
H2288 C2225 0.929 . S
H2289 C2226 0.961 . S
H2290 C2226 0.959 . S
H2291 C2226 0.959 . S
H2292 C2227 0.960 . S
H2293 C2227 0.962 . S
H2294 C2227 0.961 . S
H2295 C2229 0.929 . S
H2296 C2232 0.930 . S
H2297 C2233 0.929 . S
H2298 C2236 0.930 . S
H2299 C2239 0.929 . S
H2300 C2240 0.930 . S
H2301 C2244 0.962 . S
H2302 C2244 0.959 . S
H2303 C2244 0.958 . S
H2304 C2310 0.930 . S
H2305 C2313 0.930 . S
H2306 C2314 0.930 . S
H2307 C2315 0.930 . S
H2308 C2318 0.930 . S
H2309 C2319 0.930 . S
C2310 H2304 0.930 . S
C2310 C2311 1.355 1_455 S
C2310 C2312 1.415 . S
C2311 C2310 1.355 1_655 S
C2311 C2313 1.419 . S
C2312 C2310 1.415 . S
C2312 C2317 1.425 1_455 S
C2312 C2319 1.409 . S
C2313 H2305 0.930 . S
C2313 C2311 1.419 . S
C2313 C2314 1.362 . S
C2314 H2306 0.930 . S
C2314 C2313 1.362 . S
C2314 C2317 1.409 . S
C2315 H2307 0.930 . S
C2315 C2316 1.355 . S
C2315 C2317 1.415 . S
C2316 C2315 1.355 . S
C2316 C2318 1.419 1_655 S
C2317 C2312 1.425 1_655 S
C2317 C2314 1.409 . S
C2317 C2315 1.415 . S
C2318 H2308 0.930 . S
C2318 C2316 1.419 1_455 S
C2318 C2319 1.362 . S
C2319 H2309 0.930 . S
C2319 C2312 1.409 . S
C2319 C2318 1.362 . S
H2320 C2326 0.930 . S
H2321 C2329 0.930 . S
H2322 C2330 0.930 . S
H2323 C2331 0.930 . S
H2324 C2334 0.930 . S
H2325 C2335 0.930 . S
C2326 H2320 0.930 . S
C2326 C2327 1.355 . S
C2326 C2328 1.415 . S
C2327 C2326 1.355 . S
C2327 C2329 1.419 . S
C2328 C2326 1.415 . S
C2328 C2333 1.425 . S
C2328 C2335 1.409 . S
C2329 H2321 0.930 . S
C2329 C2327 1.419 . S
C2329 C2330 1.362 . S
C2330 H2322 0.930 . S
C2330 C2329 1.362 . S
C2330 C2333 1.409 . S
C2331 H2323 0.930 . S
C2331 C2332 1.355 . S
C2331 C2333 1.415 . S
C2332 C2331 1.355 . S
C2332 C2334 1.419 . S
C2333 C2328 1.425 . S
C2333 C2330 1.409 . S
C2333 C2331 1.415 . S
C2334 H2324 0.930 . S
C2334 C2332 1.419 . S
C2334 C2335 1.362 . S
C2335 H2325 0.930 . S
C2335 C2328 1.409 . S
C2335 C2334 1.362 . S
H2336 C2342 0.930 . S
H2337 C2345 0.930 . S
H2338 C2346 0.930 . S
H2339 C2347 0.930 . S
H2340 C2350 0.930 . S
H2341 C2351 0.930 . S
C2342 H2336 0.930 . S
C2342 C2343 1.355 . S
C2342 C2344 1.415 . S
C2343 C2342 1.355 . S
C2343 C2345 1.419 . S
C2344 C2342 1.415 . S
C2344 C2349 1.425 . S
C2344 C2351 1.409 . S
C2345 H2337 0.930 . S
C2345 C2343 1.419 . S
C2345 C2346 1.362 . S
C2346 H2338 0.930 . S
C2346 C2345 1.362 . S
C2346 C2349 1.409 . S
C2347 H2339 0.930 . S
C2347 C2348 1.355 . S
C2347 C2349 1.415 . S
C2348 C2347 1.355 . S
C2348 C2350 1.419 . S
C2349 C2344 1.425 . S
C2349 C2346 1.409 . S
C2349 C2347 1.415 . S
C2350 H2340 0.930 . S
C2350 C2348 1.419 . S
C2350 C2351 1.362 . S
C2351 H2341 0.930 . S
C2351 C2344 1.409 . S
C2351 C2350 1.362 . S
H2352 C2358 0.930 . S
H2353 C2361 0.930 . S
H2354 C2362 0.930 . S
H2355 C2363 0.930 . S
H2356 C2366 0.930 . S
H2357 C2367 0.930 . S
C2358 H2352 0.930 . S
C2358 C2359 1.355 1_545 S
C2358 C2360 1.415 . S
C2359 C2358 1.355 1_565 S
C2359 C2361 1.419 . S
C2360 C2358 1.415 . S
C2360 C2365 1.425 1_545 S
C2360 C2367 1.409 . S
C2361 H2353 0.930 . S
C2361 C2359 1.419 . S
C2361 C2362 1.362 . S
C2362 H2354 0.930 . S
C2362 C2361 1.362 . S
C2362 C2365 1.409 . S
C2363 H2355 0.930 . S
C2363 C2364 1.355 . S
C2363 C2365 1.415 . S
C2364 C2363 1.355 . S
C2364 C2366 1.419 1_565 S
C2365 C2360 1.425 1_565 S
C2365 C2362 1.409 . S
C2365 C2363 1.415 . S
C2366 H2356 0.930 . S
C2366 C2364 1.419 1_545 S
C2366 C2367 1.362 . S
C2367 H2357 0.930 . S
C2367 C2360 1.409 . S
C2367 C2366 1.362 . S
H2368 C2374 0.930 . S
H2369 C2377 0.930 . S
H2370 C2378 0.930 . S
H2371 C2379 0.930 . S
H2372 C2382 0.930 . S
H2373 C2383 0.930 . S
C2374 H2368 0.930 . S
C2374 C2375 1.355 1_655 S
C2374 C2376 1.415 1_655 S
C2375 C2374 1.355 1_455 S
C2375 C2377 1.419 . S
C2376 C2374 1.415 1_455 S
C2376 C2381 1.425 . S
C2376 C2383 1.409 1_455 S
C2377 H2369 0.930 . S
C2377 C2375 1.419 . S
C2377 C2378 1.362 . S
C2378 H2370 0.930 . S
C2378 C2377 1.362 . S
C2378 C2381 1.409 . S
C2379 H2371 0.930 . S
C2379 C2380 1.355 . S
C2379 C2381 1.415 . S
C2380 C2379 1.355 . S
C2380 C2382 1.419 1_455 S
C2381 C2376 1.425 . S
C2381 C2378 1.409 . S
C2381 C2379 1.415 . S
C2382 H2372 0.930 . S
C2382 C2380 1.419 1_655 S
C2382 C2383 1.362 . S
C2383 H2373 0.930 . S
C2383 C2376 1.409 1_655 S
C2383 C2382 1.362 . S
H2384 C2390 0.930 . S
H2385 C2393 0.930 . S
H2386 C2394 0.930 . S
H2387 C2395 0.930 . S
H2388 C2398 0.930 . S
H2389 C2399 0.930 . S
C2390 H2384 0.930 . S
C2390 C2391 1.355 . S
C2390 C2392 1.415 . S
C2391 C2390 1.355 . S
C2391 C2393 1.419 . S
C2392 C2390 1.415 . S
C2392 C2397 1.425 . S
C2392 C2399 1.409 . S
C2393 H2385 0.930 . S
C2393 C2391 1.419 . S
C2393 C2394 1.362 . S
C2394 H2386 0.930 . S
C2394 C2393 1.362 . S
C2394 C2397 1.409 . S
C2395 H2387 0.930 . S
C2395 C2396 1.355 . S
C2395 C2397 1.415 . S
C2396 C2395 1.355 . S
C2396 C2398 1.419 . S
C2397 C2392 1.425 . S
C2397 C2394 1.409 . S
C2397 C2395 1.415 . S
C2398 H2388 0.930 . S
C2398 C2396 1.419 . S
C2398 C2399 1.362 . S
C2399 H2389 0.930 . S
C2399 C2392 1.409 . S
C2399 C2398 1.362 . S
H2400 C2406 0.930 . S
H2401 C2409 0.930 . S
H2402 C2410 0.930 . S
H2403 C2411 0.930 . S
H2404 C2414 0.930 . S
H2405 C2415 0.930 . S
C2406 H2400 0.930 . S
C2406 C2407 1.355 1_655 S
C2406 C2408 1.415 . S
C2407 C2406 1.355 1_455 S
C2407 C2409 1.419 . S
C2408 C2406 1.415 . S
C2408 C2413 1.425 1_655 S
C2408 C2415 1.409 . S
C2409 H2401 0.930 . S
C2409 C2407 1.419 . S
C2409 C2410 1.362 . S
C2410 H2402 0.930 . S
C2410 C2409 1.362 . S
C2410 C2413 1.409 . S
C2411 H2403 0.930 . S
C2411 C2412 1.351 1_455 S
C2411 C2413 1.415 . S
C2412 C2411 1.351 1_655 S
C2412 C2414 1.426 . S
C2413 C2408 1.425 1_455 S
C2413 C2410 1.409 . S
C2413 C2411 1.415 . S
C2414 H2404 0.930 . S
C2414 C2412 1.426 . S
C2414 C2415 1.362 . S
C2415 H2405 0.930 . S
C2415 C2408 1.409 . S
C2415 C2414 1.362 . S
H2416 C2422 0.930 . S
H2417 C2425 0.930 . S
H2418 C2426 0.930 . S
H2419 C2427 0.930 . S
H2420 C2430 0.930 . S
H2421 C2431 0.930 . S
C2422 H2416 0.930 . S
C2422 C2423 1.355 . S
C2422 C2424 1.415 . S
C2423 C2422 1.355 . S
C2423 C2425 1.419 . S
C2424 C2422 1.415 . S
C2424 C2429 1.425 . S
C2424 C2431 1.409 . S
C2425 H2417 0.930 . S
C2425 C2423 1.419 . S
C2425 C2426 1.362 . S
C2426 H2418 0.930 . S
C2426 C2425 1.362 . S
C2426 C2429 1.409 . S
C2427 H2419 0.930 . S
C2427 C2428 1.355 . S
C2427 C2429 1.415 . S
C2428 C2427 1.355 . S
C2428 C2430 1.419 . S
C2429 C2424 1.425 . S
C2429 C2426 1.409 . S
C2429 C2427 1.415 . S
C2430 H2420 0.930 . S
C2430 C2428 1.419 . S
C2430 C2431 1.362 . S
C2431 H2421 0.930 . S
C2431 C2424 1.409 . S
C2431 C2430 1.362 . S
H2432 C2438 0.930 . S
H2433 C2441 0.930 . S
H2434 C2442 0.956 . S
H2435 C2443 0.930 . S
H2436 C2446 0.930 . S
H2437 C2447 0.930 . S
C2438 H2432 0.930 . S
C2438 C2439 1.355 . S
C2438 C2440 1.415 . S
C2439 C2438 1.355 . S
C2439 C2441 1.419 . S
C2440 C2438 1.415 . S
C2440 C2445 1.425 . S
C2440 C2447 1.409 . S
C2441 H2433 0.930 . S
C2441 C2439 1.419 . S
C2441 C2442 1.362 . S
C2442 H2434 0.956 . S
C2442 C2441 1.362 . S
C2442 C2445 1.409 . S
C2443 H2435 0.930 . S
C2443 C2444 1.355 . S
C2443 C2445 1.415 . S
C2444 C2443 1.355 . S
C2444 C2446 1.419 . S
C2445 C2440 1.425 . S
C2445 C2442 1.409 . S
C2445 C2443 1.415 . S
C2446 H2436 0.930 . S
C2446 C2444 1.419 . S
C2446 C2447 1.362 . S
C2447 H2437 0.930 . S
C2447 C2440 1.409 . S
C2447 C2446 1.362 . S
H2448 C2454 0.930 . S
H2449 C2457 0.930 . S
H2450 C2458 0.953 1_565 S
H2451 C2459 0.929 1_565 S
H2452 C2462 0.930 . S
H2453 C2463 0.930 . S
C2454 H2448 0.930 . S
C2454 C2455 1.355 . S
C2454 C2456 1.415 . S
C2455 C2454 1.355 . S
C2455 C2457 1.419 . S
C2456 C2454 1.415 . S
C2456 C2461 1.425 . S
C2456 C2463 1.409 . S
C2457 H2449 0.930 . S
C2457 C2455 1.419 . S
C2457 C2458 1.362 . S
C2458 H2450 0.953 1_545 S
C2458 C2457 1.362 . S
C2458 C2461 1.409 . S
C2459 H2451 0.929 1_545 S
C2459 C2460 1.355 . S
C2459 C2461 1.415 . S
C2460 C2459 1.355 . S
C2460 C2462 1.419 . S
C2461 C2456 1.425 . S
C2461 C2458 1.409 . S
C2461 C2459 1.415 . S
C2462 H2452 0.930 . S
C2462 C2460 1.419 . S
C2462 C2463 1.362 . S
C2463 H2453 0.930 . S
C2463 C2456 1.409 . S
C2463 C2462 1.362 . S
H2464 C2470 0.930 . S
H2465 C2473 0.930 . S
H2466 C2474 0.930 . S
H2467 C2475 0.930 . S
H2468 C2478 0.930 . S
H2469 C2479 0.930 . S
C2470 H2464 0.930 . S
C2470 C2471 1.355 . S
C2470 C2472 1.415 . S
C2471 C2470 1.355 . S
C2471 C2473 1.419 1_655 S
C2472 C2470 1.415 . S
C2472 C2477 1.430 . S
C2472 C2479 1.409 . S
C2473 H2465 0.930 . S
C2473 C2471 1.419 1_455 S
C2473 C2474 1.362 . S
C2474 H2466 0.930 . S
C2474 C2473 1.362 . S
C2474 C2477 1.416 1_455 S
C2475 H2467 0.930 . S
C2475 C2476 1.355 1_455 S
C2475 C2477 1.404 1_455 S
C2476 C2475 1.355 1_655 S
C2476 C2478 1.419 . S
C2477 C2472 1.430 . S
C2477 C2474 1.416 1_655 S
C2477 C2475 1.404 1_655 S
C2478 H2468 0.930 . S
C2478 C2476 1.419 . S
C2478 C2479 1.362 . S
C2479 H2469 0.930 . S
C2479 C2472 1.409 . S
C2479 C2478 1.362 . S
H2480 C2486 0.930 . S
H2481 C2489 0.930 . S
H2482 C2490 0.930 . S
H2483 C2491 0.930 . S
H2484 C2494 0.930 . S
H2485 C2495 0.930 . S
C2486 H2480 0.930 . S
C2486 C2487 1.355 . S
C2486 C2488 1.415 . S
C2487 C2486 1.355 . S
C2487 C2489 1.419 . S
C2488 C2486 1.415 . S
C2488 C2493 1.425 . S
C2488 C2495 1.409 . S
C2489 H2481 0.930 . S
C2489 C2487 1.419 . S
C2489 C2490 1.362 . S
C2490 H2482 0.930 . S
C2490 C2489 1.362 . S
C2490 C2493 1.409 . S
C2491 H2483 0.930 . S
C2491 C2492 1.355 . S
C2491 C2493 1.415 . S
C2492 C2491 1.355 . S
C2492 C2494 1.419 . S
C2493 C2488 1.425 . S
C2493 C2490 1.409 . S
C2493 C2491 1.415 . S
C2494 H2484 0.930 . S
C2494 C2492 1.419 . S
C2494 C2495 1.362 . S
C2495 H2485 0.930 . S
C2495 C2488 1.409 . S
C2495 C2494 1.362 . S
H2496 C2502 0.930 . S
H2497 C2505 0.930 . S
H2498 C2506 0.930 . S
H2499 C2507 0.930 . S
H2500 C2510 0.930 . S
H2501 C2511 0.930 . S
C2502 H2496 0.930 . S
C2502 C2503 1.355 . S
C2502 C2504 1.415 . S
C2503 C2502 1.355 . S
C2503 C2505 1.419 . S
C2504 C2502 1.415 . S
C2504 C2509 1.425 . S
C2504 C2511 1.409 . S
C2505 H2497 0.930 . S
C2505 C2503 1.419 . S
C2505 C2506 1.362 . S
C2506 H2498 0.930 . S
C2506 C2505 1.362 . S
C2506 C2509 1.409 . S
C2507 H2499 0.930 . S
C2507 C2508 1.355 . S
C2507 C2509 1.415 . S
C2508 C2507 1.355 . S
C2508 C2510 1.419 . S
C2509 C2504 1.425 . S
C2509 C2506 1.409 . S
C2509 C2507 1.415 . S
C2510 H2500 0.930 . S
C2510 C2508 1.419 . S
C2510 C2511 1.362 . S
C2511 H2501 0.930 . S
C2511 C2504 1.409 . S
C2511 C2510 1.362 . S
H2512 C2518 0.930 . S
H2513 C2521 0.930 . S
H2514 C2522 0.930 . S
H2515 C2523 0.930 . S
H2516 C2526 0.930 . S
H2517 C2527 0.930 . S
C2518 H2512 0.930 . S
C2518 C2519 1.355 . S
C2518 C2520 1.415 . S
C2519 C2518 1.355 . S
C2519 C2521 1.419 . S
C2520 C2518 1.415 . S
C2520 C2525 1.425 . S
C2520 C2527 1.409 . S
C2521 H2513 0.930 . S
C2521 C2519 1.419 . S
C2521 C2522 1.362 . S
C2522 H2514 0.930 . S
C2522 C2521 1.362 . S
C2522 C2525 1.409 . S
C2523 H2515 0.930 . S
C2523 C2524 1.355 . S
C2523 C2525 1.415 . S
C2524 C2523 1.355 . S
C2524 C2526 1.419 . S
C2525 C2520 1.425 . S
C2525 C2522 1.409 . S
C2525 C2523 1.415 . S
C2526 H2516 0.930 . S
C2526 C2524 1.419 . S
C2526 C2527 1.362 . S
C2527 H2517 0.930 . S
C2527 C2520 1.409 . S
C2527 C2526 1.362 . S
H2528 C2534 0.930 . S
H2529 C2537 0.930 . S
H2530 C2538 0.930 . S
H2531 C2539 0.930 . S
H2532 C2542 0.930 . S
H2533 C2543 0.930 . S
C2534 H2528 0.930 . S
C2534 C2535 1.355 . S
C2534 C2536 1.415 . S
C2535 C2534 1.355 . S
C2535 C2537 1.419 . S
C2536 C2534 1.415 . S
C2536 C2541 1.425 . S
C2536 C2543 1.409 . S
C2537 H2529 0.930 . S
C2537 C2535 1.419 . S
C2537 C2538 1.362 . S
C2538 H2530 0.930 . S
C2538 C2537 1.362 . S
C2538 C2541 1.409 . S
C2539 H2531 0.930 . S
C2539 C2540 1.355 . S
C2539 C2541 1.415 . S
C2540 C2539 1.355 . S
C2540 C2542 1.419 . S
C2541 C2536 1.425 . S
C2541 C2538 1.409 . S
C2541 C2539 1.415 . S
C2542 H2532 0.930 . S
C2542 C2540 1.419 . S
C2542 C2543 1.362 . S
C2543 H2533 0.930 . S
C2543 C2536 1.409 . S
C2543 C2542 1.362 . S
H2544 C2550 0.930 . S
H2545 C2553 0.930 . S
H2546 C2554 0.930 . S
H2547 C2555 0.930 . S
H2548 C2558 0.930 . S
H2549 C2559 0.930 . S
C2550 H2544 0.930 . S
C2550 C2551 1.355 . S
C2550 C2552 1.415 . S
C2551 C2550 1.355 . S
C2551 C2553 1.419 . S
C2552 C2550 1.415 . S
C2552 C2557 1.425 . S
C2552 C2559 1.409 . S
C2553 H2545 0.930 . S
C2553 C2551 1.419 . S
C2553 C2554 1.362 . S
C2554 H2546 0.930 . S
C2554 C2553 1.362 . S
C2554 C2557 1.409 . S
C2555 H2547 0.930 . S
C2555 C2556 1.355 . S
C2555 C2557 1.415 . S
C2556 C2555 1.355 . S
C2556 C2558 1.419 . S
C2557 C2552 1.425 . S
C2557 C2554 1.409 . S
C2557 C2555 1.415 . S
C2558 H2548 0.930 . S
C2558 C2556 1.419 . S
C2558 C2559 1.362 . S
C2559 H2549 0.930 . S
C2559 C2552 1.409 . S
C2559 C2558 1.362 . S
H2560 C2566 0.930 . S
H2561 C2569 0.930 . S
H2562 C2570 0.930 . S
H2563 C2571 0.930 . S
H2564 C2574 0.930 . S
H2565 C2575 0.930 . S
C2566 H2560 0.930 . S
C2566 C2567 1.355 . S
C2566 C2568 1.415 . S
C2567 C2566 1.355 . S
C2567 C2569 1.419 . S
C2568 C2566 1.415 . S
C2568 C2573 1.425 . S
C2568 C2575 1.409 . S
C2569 H2561 0.930 . S
C2569 C2567 1.419 . S
C2569 C2570 1.362 . S
C2570 H2562 0.930 . S
C2570 C2569 1.362 . S
C2570 C2573 1.409 . S
C2571 H2563 0.930 . S
C2571 C2572 1.355 . S
C2571 C2573 1.415 . S
C2572 C2571 1.355 . S
C2572 C2574 1.419 . S
C2573 C2568 1.425 . S
C2573 C2570 1.409 . S
C2573 C2571 1.415 . S
C2574 H2564 0.930 . S
C2574 C2572 1.419 . S
C2574 C2575 1.362 . S
C2575 H2565 0.930 . S
C2575 C2568 1.409 . S
C2575 C2574 1.362 . S
H2576 C2582 0.930 . S
H2577 C2585 0.930 . S
H2578 C2586 0.930 . S
H2579 C2587 0.930 . S
H2580 C2590 0.930 . S
H2581 C2591 0.930 . S
C2582 H2576 0.930 . S
C2582 C2583 1.355 . S
C2582 C2584 1.415 . S
C2583 C2582 1.355 . S
C2583 C2585 1.419 . S
C2584 C2582 1.415 . S
C2584 C2589 1.425 . S
C2584 C2591 1.409 . S
C2585 H2577 0.930 . S
C2585 C2583 1.419 . S
C2585 C2586 1.362 . S
C2586 H2578 0.930 . S
C2586 C2585 1.362 . S
C2586 C2589 1.409 . S
C2587 H2579 0.930 . S
C2587 C2588 1.355 . S
C2587 C2589 1.415 . S
C2588 C2587 1.355 . S
C2588 C2590 1.419 . S
C2589 C2584 1.425 . S
C2589 C2586 1.409 . S
C2589 C2587 1.415 . S
C2590 H2580 0.930 . S
C2590 C2588 1.419 . S
C2590 C2591 1.362 . S
C2591 H2581 0.930 . S
C2591 C2584 1.409 . S
C2591 C2590 1.362 . S
H2592 C2598 0.930 . S
H2593 C2601 0.930 . S
H2594 C2602 0.930 . S
H2595 C2603 0.930 . S
H2596 C2606 0.930 . S
H2597 C2607 0.930 . S
C2598 H2592 0.930 . S
C2598 C2599 1.355 . S
C2598 C2600 1.415 . S
C2599 C2598 1.355 . S
C2599 C2601 1.419 . S
C2600 C2598 1.415 . S
C2600 C2605 1.425 . S
C2600 C2607 1.409 . S
C2601 H2593 0.930 . S
C2601 C2599 1.419 . S
C2601 C2602 1.362 . S
C2602 H2594 0.930 . S
C2602 C2601 1.362 . S
C2602 C2605 1.409 . S
C2603 H2595 0.930 . S
C2603 C2604 1.355 . S
C2603 C2605 1.415 . S
C2604 C2603 1.355 . S
C2604 C2606 1.419 . S
C2605 C2600 1.425 . S
C2605 C2602 1.409 . S
C2605 C2603 1.415 . S
C2606 H2596 0.930 . S
C2606 C2604 1.419 . S
C2606 C2607 1.362 . S
C2607 H2597 0.930 . S
C2607 C2600 1.409 . S
C2607 C2606 1.362 . S
H2608 C2614 0.930 . S
H2609 C2617 0.930 . S
H2610 C2618 0.930 . S
H2611 C2619 0.930 . S
H2612 C2622 0.930 . S
H2613 C2623 0.930 . S
C2614 H2608 0.930 . S
C2614 C2615 1.355 . S
C2614 C2616 1.415 . S
C2615 C2614 1.355 . S
C2615 C2617 1.419 . S
C2616 C2614 1.415 . S
C2616 C2621 1.425 . S
C2616 C2623 1.409 . S
C2617 H2609 0.930 . S
C2617 C2615 1.419 . S
C2617 C2618 1.362 . S
C2618 H2610 0.930 . S
C2618 C2617 1.362 . S
C2618 C2621 1.409 . S
C2619 H2611 0.930 . S
C2619 C2620 1.355 . S
C2619 C2621 1.415 . S
C2620 C2619 1.355 . S
C2620 C2622 1.419 . S
C2621 C2616 1.425 . S
C2621 C2618 1.409 . S
C2621 C2619 1.415 . S
C2622 H2612 0.930 . S
C2622 C2620 1.419 . S
C2622 C2623 1.362 . S
C2623 H2613 0.930 . S
C2623 C2616 1.409 . S
C2623 C2622 1.362 . S
H2624 C2630 0.930 . S
H2625 C2633 0.930 . S
H2626 C2634 0.930 . S
H2627 C2635 0.930 . S
H2628 C2638 0.930 . S
H2629 C2639 0.930 . S
C2630 H2624 0.930 . S
C2630 C2631 1.355 . S
C2630 C2632 1.415 . S
C2631 C2630 1.355 . S
C2631 C2633 1.419 . S
C2632 C2630 1.415 . S
C2632 C2637 1.425 . S
C2632 C2639 1.409 . S
C2633 H2625 0.930 . S
C2633 C2631 1.419 . S
C2633 C2634 1.362 . S
C2634 H2626 0.930 . S
C2634 C2633 1.362 . S
C2634 C2637 1.409 . S
C2635 H2627 0.930 . S
C2635 C2636 1.355 . S
C2635 C2637 1.415 . S
C2636 C2635 1.355 . S
C2636 C2638 1.419 . S
C2637 C2632 1.425 . S
C2637 C2634 1.409 . S
C2637 C2635 1.415 . S
C2638 H2628 0.930 . S
C2638 C2636 1.419 . S
C2638 C2639 1.362 . S
C2639 H2629 0.930 . S
C2639 C2632 1.409 . S
C2639 C2638 1.362 . S
H2640 C2646 0.930 . S
H2641 C2649 0.930 . S
H2642 C2650 0.930 . S
H2643 C2651 0.930 . S
H2644 C2654 0.930 . S
H2645 C2655 0.930 . S
C2646 H2640 0.930 . S
C2646 C2647 1.355 . S
C2646 C2648 1.415 . S
C2647 C2646 1.355 . S
C2647 C2649 1.419 . S
C2648 C2646 1.415 . S
C2648 C2653 1.425 . S
C2648 C2655 1.409 . S
C2649 H2641 0.930 . S
C2649 C2647 1.419 . S
C2649 C2650 1.362 . S
C2650 H2642 0.930 . S
C2650 C2649 1.362 . S
C2650 C2653 1.409 . S
C2651 H2643 0.930 . S
C2651 C2652 1.355 . S
C2651 C2653 1.415 . S
C2652 C2651 1.355 . S
C2652 C2654 1.419 . S
C2653 C2648 1.425 . S
C2653 C2650 1.409 . S
C2653 C2651 1.415 . S
C2654 H2644 0.930 . S
C2654 C2652 1.419 . S
C2654 C2655 1.362 . S
C2655 H2645 0.930 . S
C2655 C2648 1.409 . S
C2655 C2654 1.362 . S
H2656 C2662 0.930 . S
H2657 C2665 0.930 . S
H2658 C2666 0.930 . S
H2659 C2667 0.930 . S
H2660 C2670 0.930 . S
H2661 C2671 0.930 . S
C2662 H2656 0.930 . S
C2662 C2663 1.355 . S
C2662 C2664 1.415 . S
C2663 C2662 1.355 . S
C2663 C2665 1.419 . S
C2664 C2662 1.415 . S
C2664 C2669 1.425 . S
C2664 C2671 1.409 . S
C2665 H2657 0.930 . S
C2665 C2663 1.419 . S
C2665 C2666 1.362 . S
C2666 H2658 0.930 . S
C2666 C2665 1.362 . S
C2666 C2669 1.409 . S
C2667 H2659 0.930 . S
C2667 C2668 1.355 . S
C2667 C2669 1.415 . S
C2668 C2667 1.355 . S
C2668 C2670 1.419 . S
C2669 C2664 1.425 . S
C2669 C2666 1.409 . S
C2669 C2667 1.415 . S
C2670 H2660 0.930 . S
C2670 C2668 1.419 . S
C2670 C2671 1.362 . S
C2671 H2661 0.930 . S
C2671 C2664 1.409 . S
C2671 C2670 1.362 . S
H2672 C2678 0.930 . S
H2673 C2681 0.930 . S
H2674 C2682 0.930 . S
H2675 C2683 0.930 . S
H2676 C2686 0.930 . S
H2677 C2687 0.930 . S
C2678 H2672 0.930 . S
C2678 C2679 1.355 . S
C2678 C2680 1.415 . S
C2679 C2678 1.355 . S
C2679 C2681 1.419 . S
C2680 C2678 1.415 . S
C2680 C2685 1.425 . S
C2680 C2687 1.409 . S
C2681 H2673 0.930 . S
C2681 C2679 1.419 . S
C2681 C2682 1.362 . S
C2682 H2674 0.930 . S
C2682 C2681 1.362 . S
C2682 C2685 1.409 . S
C2683 H2675 0.930 . S
C2683 C2684 1.355 . S
C2683 C2685 1.415 . S
C2684 C2683 1.355 . S
C2684 C2686 1.419 . S
C2685 C2680 1.425 . S
C2685 C2682 1.409 . S
C2685 C2683 1.415 . S
C2686 H2676 0.930 . S
C2686 C2684 1.419 . S
C2686 C2687 1.362 . S
C2687 H2677 0.930 . S
C2687 C2680 1.409 . S
C2687 C2686 1.362 . S
H2688 C2694 0.930 . S
H2689 C2697 0.930 . S
H2690 C2698 0.930 . S
H2691 C2699 0.930 . S
H2692 C2702 0.930 . S
H2693 C2703 0.930 . S
C2694 H2688 0.930 . S
C2694 C2695 1.355 . S
C2694 C2696 1.415 . S
C2695 C2694 1.355 . S
C2695 C2697 1.419 . S
C2696 C2694 1.415 . S
C2696 C2701 1.425 . S
C2696 C2703 1.409 . S
C2697 H2689 0.930 . S
C2697 C2695 1.419 . S
C2697 C2698 1.362 . S
C2698 H2690 0.930 . S
C2698 C2697 1.362 . S
C2698 C2701 1.409 . S
C2699 H2691 0.930 . S
C2699 C2700 1.355 . S
C2699 C2701 1.415 . S
C2700 C2699 1.355 . S
C2700 C2702 1.419 . S
C2701 C2696 1.425 . S
C2701 C2698 1.409 . S
C2701 C2699 1.415 . S
C2702 H2692 0.930 . S
C2702 C2700 1.419 . S
C2702 C2703 1.362 . S
C2703 H2693 0.930 . S
C2703 C2696 1.409 . S
C2703 C2702 1.362 . S
H2704 C2710 0.930 . S
H2705 C2713 0.930 . S
H2706 C2714 0.930 . S
H2707 C2715 0.930 . S
H2708 C2718 0.930 . S
H2709 C2719 0.930 . S
C2710 H2704 0.930 . S
C2710 C2711 1.355 . S
C2710 C2712 1.415 . S
C2711 C2710 1.355 . S
C2711 C2713 1.419 . S
C2712 C2710 1.415 . S
C2712 C2717 1.425 . S
C2712 C2719 1.409 . S
C2713 H2705 0.930 . S
C2713 C2711 1.419 . S
C2713 C2714 1.362 . S
C2714 H2706 0.930 . S
C2714 C2713 1.362 . S
C2714 C2717 1.409 . S
C2715 H2707 0.930 . S
C2715 C2716 1.355 . S
C2715 C2717 1.415 . S
C2716 C2715 1.355 . S
C2716 C2718 1.419 . S
C2717 C2712 1.425 . S
C2717 C2714 1.409 . S
C2717 C2715 1.415 . S
C2718 H2708 0.930 . S
C2718 C2716 1.419 . S
C2718 C2719 1.362 . S
C2719 H2709 0.930 . S
C2719 C2712 1.409 . S
C2719 C2718 1.362 . S
H2720 C2726 0.930 . S
H2721 C2729 0.930 . S
H2722 C2730 0.930 . S
H2723 C2731 0.930 . S
H2724 C2734 0.930 . S
H2725 C2735 0.930 . S
C2726 H2720 0.930 . S
C2726 C2727 1.355 . S
C2726 C2728 1.415 . S
C2727 C2726 1.355 . S
C2727 C2729 1.419 . S
C2728 C2726 1.415 . S
C2728 C2733 1.425 . S
C2728 C2735 1.409 . S
C2729 H2721 0.930 . S
C2729 C2727 1.419 . S
C2729 C2730 1.362 . S
C2730 H2722 0.930 . S
C2730 C2729 1.362 . S
C2730 C2733 1.409 . S
C2731 H2723 0.930 . S
C2731 C2732 1.355 . S
C2731 C2733 1.415 . S
C2732 C2731 1.355 . S
C2732 C2734 1.419 . S
C2733 C2728 1.425 . S
C2733 C2730 1.409 . S
C2733 C2731 1.415 . S
C2734 H2724 0.930 . S
C2734 C2732 1.419 . S
C2734 C2735 1.362 . S
C2735 H2725 0.930 . S
C2735 C2728 1.409 . S
C2735 C2734 1.362 . S
H2736 C2742 0.930 . S
H2737 C2745 0.930 . S
H2738 C2746 0.930 . S
H2739 C2747 0.930 . S
H2740 C2750 0.930 . S
H2741 C2751 0.930 . S
C2742 H2736 0.930 . S
C2742 C2743 1.355 . S
C2742 C2744 1.415 . S
C2743 C2742 1.355 . S
C2743 C2745 1.419 . S
C2744 C2742 1.415 . S
C2744 C2749 1.425 . S
C2744 C2751 1.409 . S
C2745 H2737 0.930 . S
C2745 C2743 1.419 . S
C2745 C2746 1.362 . S
C2746 H2738 0.930 . S
C2746 C2745 1.362 . S
C2746 C2749 1.409 . S
C2747 H2739 0.930 . S
C2747 C2748 1.355 . S
C2747 C2749 1.415 . S
C2748 C2747 1.355 . S
C2748 C2750 1.419 . S
C2749 C2744 1.425 . S
C2749 C2746 1.409 . S
C2749 C2747 1.415 . S
C2750 H2740 0.930 . S
C2750 C2748 1.419 . S
C2750 C2751 1.362 . S
C2751 H2741 0.930 . S
C2751 C2744 1.409 . S
C2751 C2750 1.362 . S
H2752 C2758 0.930 . S
H2753 C2761 0.930 . S
H2754 C2762 0.930 . S
H2755 C2763 0.930 . S
H2756 C2766 0.930 . S
H2757 C2767 0.930 . S
C2758 H2752 0.930 . S
C2758 C2759 1.355 . S
C2758 C2760 1.415 . S
C2759 C2758 1.355 . S
C2759 C2761 1.419 . S
C2760 C2758 1.415 . S
C2760 C2765 1.425 . S
C2760 C2767 1.409 . S
C2761 H2753 0.930 . S
C2761 C2759 1.419 . S
C2761 C2762 1.362 . S
C2762 H2754 0.930 . S
C2762 C2761 1.362 . S
C2762 C2765 1.409 . S
C2763 H2755 0.930 . S
C2763 C2764 1.355 . S
C2763 C2765 1.415 . S
C2764 C2763 1.355 . S
C2764 C2766 1.419 . S
C2765 C2760 1.425 . S
C2765 C2762 1.409 . S
C2765 C2763 1.415 . S
C2766 H2756 0.930 . S
C2766 C2764 1.419 . S
C2766 C2767 1.362 . S
C2767 H2757 0.930 . S
C2767 C2760 1.409 . S
C2767 C2766 1.362 . S
H2768 C2774 0.930 . S
H2769 C2777 0.930 . S
H2770 C2778 0.930 . S
H2771 C2779 0.930 . S
H2772 C2782 0.930 . S
H2773 C2783 0.930 . S
C2774 H2768 0.930 . S
C2774 C2775 1.355 . S
C2774 C2776 1.415 . S
C2775 C2774 1.355 . S
C2775 C2777 1.419 . S
C2776 C2774 1.415 . S
C2776 C2781 1.425 . S
C2776 C2783 1.409 . S
C2777 H2769 0.930 . S
C2777 C2775 1.419 . S
C2777 C2778 1.362 . S
C2778 H2770 0.930 . S
C2778 C2777 1.362 . S
C2778 C2781 1.409 . S
C2779 H2771 0.930 . S
C2779 C2780 1.355 . S
C2779 C2781 1.415 . S
C2780 C2779 1.355 . S
C2780 C2782 1.419 . S
C2781 C2776 1.425 . S
C2781 C2778 1.409 . S
C2781 C2779 1.415 . S
C2782 H2772 0.930 . S
C2782 C2780 1.419 . S
C2782 C2783 1.362 . S
C2783 H2773 0.930 . S
C2783 C2776 1.409 . S
C2783 C2782 1.362 . S
H2784 C2790 0.930 . S
H2785 C2793 0.930 . S
H2786 C2794 0.930 . S
H2787 C2795 0.930 . S
H2788 C2798 0.930 . S
H2789 C2799 0.930 . S
C2790 H2784 0.930 . S
C2790 C2791 1.355 . S
C2790 C2792 1.415 . S
C2791 C2790 1.355 . S
C2791 C2793 1.419 . S
C2792 C2790 1.415 . S
C2792 C2797 1.425 . S
C2792 C2799 1.409 . S
C2793 H2785 0.930 . S
C2793 C2791 1.419 . S
C2793 C2794 1.362 . S
C2794 H2786 0.930 . S
C2794 C2793 1.362 . S
C2794 C2797 1.409 . S
C2795 H2787 0.930 . S
C2795 C2796 1.355 . S
C2795 C2797 1.415 . S
C2796 C2795 1.355 . S
C2796 C2798 1.419 . S
C2797 C2792 1.425 . S
C2797 C2794 1.409 . S
C2797 C2795 1.415 . S
C2798 H2788 0.930 . S
C2798 C2796 1.419 . S
C2798 C2799 1.362 . S
C2799 H2789 0.930 . S
C2799 C2792 1.409 . S
C2799 C2798 1.362 . S
H2800 C2806 0.930 . S
H2801 C2809 0.930 . S
H2802 C2810 0.930 . S
H2803 C2811 0.930 . S
H2804 C2814 0.930 . S
H2805 C2815 0.930 . S
C2806 H2800 0.930 . S
C2806 C2807 1.355 . S
C2806 C2808 1.415 . S
C2807 C2806 1.355 . S
C2807 C2809 1.419 . S
C2808 C2806 1.415 . S
C2808 C2813 1.425 . S
C2808 C2815 1.409 . S
C2809 H2801 0.930 . S
C2809 C2807 1.419 . S
C2809 C2810 1.362 . S
C2810 H2802 0.930 . S
C2810 C2809 1.362 . S
C2810 C2813 1.409 . S
C2811 H2803 0.930 . S
C2811 C2812 1.355 . S
C2811 C2813 1.415 . S
C2812 C2811 1.355 . S
C2812 C2814 1.419 . S
C2813 C2808 1.425 . S
C2813 C2810 1.409 . S
C2813 C2811 1.415 . S
C2814 H2804 0.930 . S
C2814 C2812 1.419 . S
C2814 C2815 1.362 . S
C2815 H2805 0.930 . S
C2815 C2808 1.409 . S
C2815 C2814 1.362 . S
H2816 C2822 0.930 . S
H2817 C2825 0.930 . S
H2818 C2826 0.930 . S
H2819 C2827 0.930 . S
H2820 C2830 0.930 . S
H2821 C2831 0.930 . S
C2822 H2816 0.930 . S
C2822 C2823 1.355 . S
C2822 C2824 1.415 . S
C2823 C2822 1.355 . S
C2823 C2825 1.419 . S
C2824 C2822 1.415 . S
C2824 C2829 1.425 . S
C2824 C2831 1.409 . S
C2825 H2817 0.930 . S
C2825 C2823 1.419 . S
C2825 C2826 1.362 . S
C2826 H2818 0.930 . S
C2826 C2825 1.362 . S
C2826 C2829 1.409 . S
C2827 H2819 0.930 . S
C2827 C2828 1.355 . S
C2827 C2829 1.415 . S
C2828 C2827 1.355 . S
C2828 C2830 1.419 . S
C2829 C2824 1.425 . S
C2829 C2826 1.409 . S
C2829 C2827 1.415 . S
C2830 H2820 0.930 . S
C2830 C2828 1.419 . S
C2830 C2831 1.362 . S
C2831 H2821 0.930 . S
C2831 C2824 1.409 . S
C2831 C2830 1.362 . S
H2832 C2838 0.930 . S
H2833 C2841 0.930 . S
H2834 C2842 0.930 . S
H2835 C2843 0.930 . S
H2836 C2846 0.930 . S
H2837 C2847 0.930 . S
C2838 H2832 0.930 . S
C2838 C2839 1.355 . S
C2838 C2840 1.415 . S
C2839 C2838 1.355 . S
C2839 C2841 1.419 . S
C2840 C2838 1.415 . S
C2840 C2845 1.425 . S
C2840 C2847 1.409 . S
C2841 H2833 0.930 . S
C2841 C2839 1.419 . S
C2841 C2842 1.362 . S
C2842 H2834 0.930 . S
C2842 C2841 1.362 . S
C2842 C2845 1.409 . S
C2843 H2835 0.930 . S
C2843 C2844 1.355 . S
C2843 C2845 1.415 . S
C2844 C2843 1.355 . S
C2844 C2846 1.419 . S
C2845 C2840 1.425 . S
C2845 C2842 1.409 . S
C2845 C2843 1.415 . S
C2846 H2836 0.930 . S
C2846 C2844 1.419 . S
C2846 C2847 1.362 . S
C2847 H2837 0.930 . S
C2847 C2840 1.409 . S
C2847 C2846 1.362 . S
H2848 C2854 0.930 . S
H2849 C2857 0.930 . S
H2850 C2858 0.930 . S
H2851 C2859 0.930 . S
H2852 C2862 0.930 . S
H2853 C2863 0.930 . S
C2854 H2848 0.930 . S
C2854 C2855 1.355 . S
C2854 C2856 1.415 . S
C2855 C2854 1.355 . S
C2855 C2857 1.419 . S
C2856 C2854 1.415 . S
C2856 C2861 1.425 . S
C2856 C2863 1.409 . S
C2857 H2849 0.930 . S
C2857 C2855 1.419 . S
C2857 C2858 1.362 . S
C2858 H2850 0.930 . S
C2858 C2857 1.362 . S
C2858 C2861 1.409 . S
C2859 H2851 0.930 . S
C2859 C2860 1.355 . S
C2859 C2861 1.415 . S
C2860 C2859 1.355 . S
C2860 C2862 1.419 . S
C2861 C2856 1.425 . S
C2861 C2858 1.409 . S
C2861 C2859 1.415 . S
C2862 H2852 0.930 . S
C2862 C2860 1.419 . S
C2862 C2863 1.362 . S
C2863 H2853 0.930 . S
C2863 C2856 1.409 . S
C2863 C2862 1.362 . S
H2864 C2870 0.930 . S
H2865 C2873 0.930 . S
H2866 C2874 0.930 . S
H2867 C2875 0.930 . S
H2868 C2878 0.930 . S
H2869 C2879 0.930 . S
C2870 H2864 0.930 . S
C2870 C2871 1.355 . S
C2870 C2872 1.415 . S
C2871 C2870 1.355 . S
C2871 C2873 1.419 . S
C2872 C2870 1.415 . S
C2872 C2877 1.425 . S
C2872 C2879 1.409 . S
C2873 H2865 0.930 . S
C2873 C2871 1.419 . S
C2873 C2874 1.362 . S
C2874 H2866 0.930 . S
C2874 C2873 1.362 . S
C2874 C2877 1.409 . S
C2875 H2867 0.930 . S
C2875 C2876 1.355 . S
C2875 C2877 1.415 . S
C2876 C2875 1.355 . S
C2876 C2878 1.419 . S
C2877 C2872 1.425 . S
C2877 C2874 1.409 . S
C2877 C2875 1.415 . S
C2878 H2868 0.930 . S
C2878 C2876 1.419 . S
C2878 C2879 1.362 . S
C2879 H2869 0.930 . S
C2879 C2872 1.409 . S
C2879 C2878 1.362 . S
H2880 C2886 0.930 . S
H2881 C2889 0.930 . S
H2882 C2890 0.930 . S
H2883 C2891 0.930 . S
H2884 C2894 0.930 . S
H2885 C2895 0.930 . S
C2886 H2880 0.930 . S
C2886 C2887 1.355 . S
C2886 C2888 1.415 . S
C2887 C2886 1.355 . S
C2887 C2889 1.419 . S
C2888 C2886 1.415 . S
C2888 C2893 1.425 . S
C2888 C2895 1.409 . S
C2889 H2881 0.930 . S
C2889 C2887 1.419 . S
C2889 C2890 1.362 . S
C2890 H2882 0.930 . S
C2890 C2889 1.362 . S
C2890 C2893 1.409 . S
C2891 H2883 0.930 . S
C2891 C2892 1.355 . S
C2891 C2893 1.415 . S
C2892 C2891 1.355 . S
C2892 C2894 1.419 . S
C2893 C2888 1.425 . S
C2893 C2890 1.409 . S
C2893 C2891 1.415 . S
C2894 H2884 0.930 . S
C2894 C2892 1.419 . S
C2894 C2895 1.362 . S
C2895 H2885 0.930 . S
C2895 C2888 1.409 . S
C2895 C2894 1.362 . S
H2896 C2902 0.930 . S
H2897 C2905 0.930 . S
H2898 C2906 0.930 . S
H2899 C2907 0.930 . S
H2900 C2910 0.930 . S
H2901 C2911 0.930 . S
C2902 H2896 0.930 . S
C2902 C2903 1.355 . S
C2902 C2904 1.415 . S
C2903 C2902 1.355 . S
C2903 C2905 1.419 . S
C2904 C2902 1.415 . S
C2904 C2909 1.425 . S
C2904 C2911 1.409 . S
C2905 H2897 0.930 . S
C2905 C2903 1.419 . S
C2905 C2906 1.362 . S
C2906 H2898 0.930 . S
C2906 C2905 1.362 . S
C2906 C2909 1.409 . S
C2907 H2899 0.930 . S
C2907 C2908 1.355 . S
C2907 C2909 1.415 . S
C2908 C2907 1.355 . S
C2908 C2910 1.419 . S
C2909 C2904 1.425 . S
C2909 C2906 1.409 . S
C2909 C2907 1.415 . S
C2910 H2900 0.930 . S
C2910 C2908 1.419 . S
C2910 C2911 1.362 . S
C2911 H2901 0.930 . S
C2911 C2904 1.409 . S
C2911 C2910 1.362 . S
H2912 C2918 0.930 . S
H2913 C2921 0.930 . S
H2914 C2922 0.930 . S
H2915 C2923 0.930 . S
H2916 C2926 0.930 . S
H2917 C2927 0.930 . S
C2918 H2912 0.930 . S
C2918 C2919 1.355 . S
C2918 C2920 1.415 . S
C2919 C2918 1.355 . S
C2919 C2921 1.419 . S
C2920 C2918 1.415 . S
C2920 C2925 1.425 . S
C2920 C2927 1.409 . S
C2921 H2913 0.930 . S
C2921 C2919 1.419 . S
C2921 C2922 1.362 . S
C2922 H2914 0.930 . S
C2922 C2921 1.362 . S
C2922 C2925 1.409 . S
C2923 H2915 0.930 . S
C2923 C2924 1.355 . S
C2923 C2925 1.415 . S
C2924 C2923 1.355 . S
C2924 C2926 1.419 . S
C2925 C2920 1.425 . S
C2925 C2922 1.409 . S
C2925 C2923 1.415 . S
C2926 H2916 0.930 . S
C2926 C2924 1.419 . S
C2926 C2927 1.362 . S
C2927 H2917 0.930 . S
C2927 C2920 1.409 . S
C2927 C2926 1.362 . S
H2928 C2934 0.930 . S
H2929 C2937 0.930 . S
H2930 C2938 0.930 . S
H2931 C2939 0.930 . S
H2932 C2942 0.930 . S
H2933 C2943 0.930 . S
C2934 H2928 0.930 . S
C2934 C2935 1.355 . S
C2934 C2936 1.415 . S
C2935 C2934 1.355 . S
C2935 C2937 1.419 . S
C2936 C2934 1.415 . S
C2936 C2941 1.425 . S
C2936 C2943 1.409 . S
C2937 H2929 0.930 . S
C2937 C2935 1.419 . S
C2937 C2938 1.362 . S
C2938 H2930 0.930 . S
C2938 C2937 1.362 . S
C2938 C2941 1.409 . S
C2939 H2931 0.930 . S
C2939 C2940 1.355 . S
C2939 C2941 1.415 . S
C2940 C2939 1.355 . S
C2940 C2942 1.419 . S
C2941 C2936 1.425 . S
C2941 C2938 1.409 . S
C2941 C2939 1.415 . S
C2942 H2932 0.930 . S
C2942 C2940 1.419 . S
C2942 C2943 1.362 . S
C2943 H2933 0.930 . S
C2943 C2936 1.409 . S
C2943 C2942 1.362 . S
H2944 C2950 0.930 . S
H2945 C2953 0.930 1_554 S
H2946 C2954 0.930 . S
H2947 C2955 0.930 . S
H2948 C2958 0.930 . S
H2949 C2959 0.930 . S
C2950 H2944 0.930 . S
C2950 C2951 1.355 . S
C2950 C2952 1.415 . S
C2951 C2950 1.355 . S
C2951 C2953 1.419 . S
C2952 C2950 1.415 . S
C2952 C2957 1.425 . S
C2952 C2959 1.409 . S
C2953 H2945 0.930 1_556 S
C2953 C2951 1.419 . S
C2953 C2954 1.362 . S
C2954 H2946 0.930 . S
C2954 C2953 1.362 . S
C2954 C2957 1.409 . S
C2955 H2947 0.930 . S
C2955 C2956 1.355 . S
C2955 C2957 1.415 . S
C2956 C2955 1.355 . S
C2956 C2958 1.419 . S
C2957 C2952 1.425 . S
C2957 C2954 1.409 . S
C2957 C2955 1.415 . S
C2958 H2948 0.930 . S
C2958 C2956 1.419 . S
C2958 C2959 1.362 . S
C2959 H2949 0.930 . S
C2959 C2952 1.409 . S
C2959 C2958 1.362 . S
H2960 C2966 0.930 . S
H2961 C2969 0.930 1_554 S
H2962 C2970 0.930 . S
H2963 C2971 0.930 . S
H2964 C2974 0.930 . S
H2965 C2975 0.930 . S
C2966 H2960 0.930 . S
C2966 C2967 1.355 . S
C2966 C2968 1.415 . S
C2967 C2966 1.355 . S
C2967 C2969 1.419 . S
C2968 C2966 1.415 . S
C2968 C2973 1.425 . S
C2968 C2975 1.409 . S
C2969 H2961 0.930 1_556 S
C2969 C2967 1.419 . S
C2969 C2970 1.362 . S
C2970 H2962 0.930 . S
C2970 C2969 1.362 . S
C2970 C2973 1.409 . S
C2971 H2963 0.930 . S
C2971 C2972 1.355 . S
C2971 C2973 1.415 . S
C2972 C2971 1.355 . S
C2972 C2974 1.419 . S
C2973 C2968 1.425 . S
C2973 C2970 1.409 . S
C2973 C2971 1.415 . S
C2974 H2964 0.930 . S
C2974 C2972 1.419 . S
C2974 C2975 1.362 . S
C2975 H2965 0.930 . S
C2975 C2968 1.409 . S
C2975 C2974 1.362 . S
H2976 C2982 0.930 . S
H2977 C2985 0.930 . S
H2978 C2986 0.930 . S
H2979 C2987 0.930 . S
H2980 C2990 0.930 . S
H2981 C2991 0.930 . S
C2982 H2976 0.930 . S
C2982 C2983 1.355 . S
C2982 C2984 1.415 . S
C2983 C2982 1.355 . S
C2983 C2985 1.419 . S
C2984 C2982 1.415 . S
C2984 C2989 1.425 . S
C2984 C2991 1.409 . S
C2985 H2977 0.930 . S
C2985 C2983 1.419 . S
C2985 C2986 1.362 . S
C2986 H2978 0.930 . S
C2986 C2985 1.362 . S
C2986 C2989 1.409 . S
C2987 H2979 0.930 . S
C2987 C2988 1.355 . S
C2987 C2989 1.415 . S
C2988 C2987 1.355 . S
C2988 C2990 1.419 . S
C2989 C2984 1.425 . S
C2989 C2986 1.409 . S
C2989 C2987 1.415 . S
C2990 H2980 0.930 . S
C2990 C2988 1.419 . S
C2990 C2991 1.362 . S
C2991 H2981 0.930 . S
C2991 C2984 1.409 . S
C2991 C2990 1.362 . S
H2992 C2998 0.930 . S
H2993 C3001 0.930 . S
H2994 C3002 0.930 . S
H2995 C3003 0.930 . S
H2996 C3006 0.930 . S
H2997 C3007 0.930 . S
C2998 H2992 0.930 . S
C2998 C2999 1.355 . S
C2998 C3000 1.415 . S
C2999 C2998 1.355 . S
C2999 C3001 1.419 . S
C3000 C2998 1.415 . S
C3000 C3005 1.425 . S
C3000 C3007 1.409 . S
C3001 H2993 0.930 . S
C3001 C2999 1.419 . S
C3001 C3002 1.362 . S
C3002 H2994 0.930 . S
C3002 C3001 1.362 . S
C3002 C3005 1.409 . S
C3003 H2995 0.930 . S
C3003 C3004 1.355 . S
C3003 C3005 1.415 . S
C3004 C3003 1.355 . S
C3004 C3006 1.419 . S
C3005 C3000 1.425 . S
C3005 C3002 1.409 . S
C3005 C3003 1.415 . S
C3006 H2996 0.930 . S
C3006 C3004 1.419 . S
C3006 C3007 1.362 . S
C3007 H2997 0.930 . S
C3007 C3000 1.409 . S
C3007 C3006 1.362 . S
H3008 C3014 0.930 . S
H3009 C3017 0.930 1_554 S
H3010 C3018 0.930 1_554 S
H3011 C3019 0.930 . S
H3012 C3022 0.930 . S
H3013 C3023 0.930 . S
C3014 H3008 0.930 . S
C3014 C3015 1.355 . S
C3014 C3016 1.415 . S
C3015 C3014 1.355 . S
C3015 C3017 1.419 . S
C3016 C3014 1.415 . S
C3016 C3021 1.425 . S
C3016 C3023 1.409 . S
C3017 H3009 0.930 1_556 S
C3017 C3015 1.419 . S
C3017 C3018 1.362 . S
C3018 H3010 0.930 1_556 S
C3018 C3017 1.362 . S
C3018 C3021 1.409 . S
C3019 H3011 0.930 . S
C3019 C3020 1.355 . S
C3019 C3021 1.415 . S
C3020 C3019 1.355 . S
C3020 C3022 1.419 . S
C3021 C3016 1.425 . S
C3021 C3018 1.409 . S
C3021 C3019 1.415 . S
C3022 H3012 0.930 . S
C3022 C3020 1.419 . S
C3022 C3023 1.362 . S
C3023 H3013 0.930 . S
C3023 C3016 1.409 . S
C3023 C3022 1.362 . S
H3024 C3030 0.930 . S
H3025 C3033 0.930 . S
H3026 C3034 0.930 . S
H3027 C3035 0.930 . S
H3028 C3038 0.930 . S
H3029 C3039 0.930 . S
C3030 H3024 0.930 . S
C3030 C3031 1.355 . S
C3030 C3032 1.415 . S
C3031 C3030 1.355 . S
C3031 C3033 1.419 . S
C3032 C3030 1.415 . S
C3032 C3037 1.425 . S
C3032 C3039 1.409 . S
C3033 H3025 0.930 . S
C3033 C3031 1.419 . S
C3033 C3034 1.362 . S
C3034 H3026 0.930 . S
C3034 C3033 1.362 . S
C3034 C3037 1.409 . S
C3035 H3027 0.930 . S
C3035 C3036 1.355 . S
C3035 C3037 1.415 . S
C3036 C3035 1.355 . S
C3036 C3038 1.419 . S
C3037 C3032 1.425 . S
C3037 C3034 1.409 . S
C3037 C3035 1.415 . S
C3038 H3028 0.930 . S
C3038 C3036 1.419 . S
C3038 C3039 1.362 . S
C3039 H3029 0.930 . S
C3039 C3032 1.409 . S
C3039 C3038 1.362 . S
H3040 C3046 0.930 . S
H3041 C3049 0.930 . S
H3042 C3050 0.930 . S
H3043 C3051 0.930 . S
H3044 C3054 0.930 . S
H3045 C3055 0.930 . S
C3046 H3040 0.930 . S
C3046 C3047 1.355 . S
C3046 C3048 1.415 . S
C3047 C3046 1.355 . S
C3047 C3049 1.419 . S
C3048 C3046 1.415 . S
C3048 C3053 1.425 . S
C3048 C3055 1.409 . S
C3049 H3041 0.930 . S
C3049 C3047 1.419 . S
C3049 C3050 1.362 . S
C3050 H3042 0.930 . S
C3050 C3049 1.362 . S
C3050 C3053 1.409 . S
C3051 H3043 0.930 . S
C3051 C3052 1.355 . S
C3051 C3053 1.415 . S
C3052 C3051 1.355 . S
C3052 C3054 1.419 . S
C3053 C3048 1.425 . S
C3053 C3050 1.409 . S
C3053 C3051 1.415 . S
C3054 H3044 0.930 . S
C3054 C3052 1.419 . S
C3054 C3055 1.362 . S
C3055 H3045 0.930 . S
C3055 C3048 1.409 . S
C3055 C3054 1.362 . S
H3056 C3062 0.930 . S
H3057 C3065 0.930 . S
H3058 C3066 0.930 . S
H3059 C3067 0.930 . S
H3060 C3070 0.930 . S
H3061 C3071 0.930 . S
C3062 H3056 0.930 . S
C3062 C3063 1.355 . S
C3062 C3064 1.415 . S
C3063 C3062 1.355 . S
C3063 C3065 1.419 . S
C3064 C3062 1.415 . S
C3064 C3069 1.425 . S
C3064 C3071 1.409 . S
C3065 H3057 0.930 . S
C3065 C3063 1.419 . S
C3065 C3066 1.362 . S
C3066 H3058 0.930 . S
C3066 C3065 1.362 . S
C3066 C3069 1.409 . S
C3067 H3059 0.930 . S
C3067 C3068 1.355 . S
C3067 C3069 1.415 . S
C3068 C3067 1.355 . S
C3068 C3070 1.419 . S
C3069 C3064 1.425 . S
C3069 C3066 1.409 . S
C3069 C3067 1.415 . S
C3070 H3060 0.930 . S
C3070 C3068 1.419 . S
C3070 C3071 1.362 . S
C3071 H3061 0.930 . S
C3071 C3064 1.409 . S
C3071 C3070 1.362 . S
H3072 C3078 0.930 . S
H3073 C3081 0.930 . S
H3074 C3082 0.930 . S
H3075 C3083 0.930 . S
H3076 C3086 0.930 . S
H3077 C3087 0.930 . S
C3078 H3072 0.930 . S
C3078 C3079 1.355 . S
C3078 C3080 1.415 . S
C3079 C3078 1.355 . S
C3079 C3081 1.419 . S
C3080 C3078 1.415 . S
C3080 C3085 1.425 . S
C3080 C3087 1.409 . S
C3081 H3073 0.930 . S
C3081 C3079 1.419 . S
C3081 C3082 1.362 . S
C3082 H3074 0.930 . S
C3082 C3081 1.362 . S
C3082 C3085 1.409 . S
C3083 H3075 0.930 . S
C3083 C3084 1.355 . S
C3083 C3085 1.415 . S
C3084 C3083 1.355 . S
C3084 C3086 1.419 . S
C3085 C3080 1.425 . S
C3085 C3082 1.409 . S
C3085 C3083 1.415 . S
C3086 H3076 0.930 . S
C3086 C3084 1.419 . S
C3086 C3087 1.362 . S
C3087 H3077 0.930 . S
C3087 C3080 1.409 . S
C3087 C3086 1.362 . S
H3088 C3094 0.930 . S
H3089 C3097 0.930 . S
H3090 C3098 0.930 . S
H3091 C3099 0.930 . S
H3092 C3102 0.930 . S
H3093 C3103 0.930 . S
C3094 H3088 0.930 . S
C3094 C3095 1.355 . S
C3094 C3096 1.415 . S
C3095 C3094 1.355 . S
C3095 C3097 1.419 . S
C3096 C3094 1.415 . S
C3096 C3101 1.425 . S
C3096 C3103 1.409 . S
C3097 H3089 0.930 . S
C3097 C3095 1.419 . S
C3097 C3098 1.362 . S
C3098 H3090 0.930 . S
C3098 C3097 1.362 . S
C3098 C3101 1.409 . S
C3099 H3091 0.930 . S
C3099 C3100 1.355 . S
C3099 C3101 1.415 . S
C3100 C3099 1.355 . S
C3100 C3102 1.419 . S
C3101 C3096 1.425 . S
C3101 C3098 1.409 . S
C3101 C3099 1.415 . S
C3102 H3092 0.930 . S
C3102 C3100 1.419 . S
C3102 C3103 1.362 . S
C3103 H3093 0.930 . S
C3103 C3096 1.409 . S
C3103 C3102 1.362 . S
H3104 C3110 0.930 . S
H3105 C3113 0.930 . S
H3106 C3114 0.930 . S
H3107 C3115 0.930 . S
H3108 C3118 0.930 . S
H3109 C3119 0.930 . S
C3110 H3104 0.930 . S
C3110 C3111 1.355 . S
C3110 C3112 1.415 . S
C3111 C3110 1.355 . S
C3111 C3113 1.419 . S
C3112 C3110 1.415 . S
C3112 C3117 1.425 . S
C3112 C3119 1.409 . S
C3113 H3105 0.930 . S
C3113 C3111 1.419 . S
C3113 C3114 1.362 . S
C3114 H3106 0.930 . S
C3114 C3113 1.362 . S
C3114 C3117 1.409 . S
C3115 H3107 0.930 . S
C3115 C3116 1.355 . S
C3115 C3117 1.415 . S
C3116 C3115 1.355 . S
C3116 C3118 1.419 . S
C3117 C3112 1.425 . S
C3117 C3114 1.409 . S
C3117 C3115 1.415 . S
C3118 H3108 0.930 . S
C3118 C3116 1.419 . S
C3118 C3119 1.362 . S
C3119 H3109 0.930 . S
C3119 C3112 1.409 . S
C3119 C3118 1.362 . S
H3120 C3126 0.930 1_655 S
H3121 C3129 0.930 . S
H3122 C3130 0.930 . S
H3123 C3131 0.930 . S
H3124 C3134 0.930 . S
H3125 C3135 0.930 . S
C3126 H3120 0.930 1_455 S
C3126 C3127 1.355 . S
C3126 C3128 1.415 . S
C3127 C3126 1.355 . S
C3127 C3129 1.419 . S
C3128 C3126 1.415 . S
C3128 C3133 1.425 . S
C3128 C3135 1.409 1_455 S
C3129 H3121 0.930 . S
C3129 C3127 1.419 . S
C3129 C3130 1.362 . S
C3130 H3122 0.930 . S
C3130 C3129 1.362 . S
C3130 C3133 1.409 . S
C3131 H3123 0.930 . S
C3131 C3132 1.355 . S
C3131 C3133 1.415 . S
C3132 C3131 1.355 . S
C3132 C3134 1.419 1_455 S
C3133 C3128 1.425 . S
C3133 C3130 1.409 . S
C3133 C3131 1.415 . S
C3134 H3124 0.930 . S
C3134 C3132 1.419 1_655 S
C3134 C3135 1.362 . S
C3135 H3125 0.930 . S
C3135 C3128 1.409 1_655 S
C3135 C3134 1.362 . S
H3136 C3142 0.930 . S
H3137 C3145 0.930 . S
H3138 C3146 0.930 . S
H3139 C3147 0.930 . S
H3140 C3150 0.930 . S
H3141 C3151 0.930 . S
C3142 H3136 0.930 . S
C3142 C3143 1.355 . S
C3142 C3144 1.415 . S
C3143 C3142 1.355 . S
C3143 C3145 1.419 . S
C3144 C3142 1.415 . S
C3144 C3149 1.425 . S
C3144 C3151 1.409 . S
C3145 H3137 0.930 . S
C3145 C3143 1.419 . S
C3145 C3146 1.362 . S
C3146 H3138 0.930 . S
C3146 C3145 1.362 . S
C3146 C3149 1.409 . S
C3147 H3139 0.930 . S
C3147 C3148 1.355 . S
C3147 C3149 1.415 . S
C3148 C3147 1.355 . S
C3148 C3150 1.419 . S
C3149 C3144 1.425 . S
C3149 C3146 1.409 . S
C3149 C3147 1.415 . S
C3150 H3140 0.930 . S
C3150 C3148 1.419 . S
C3150 C3151 1.362 . S
C3151 H3141 0.930 . S
C3151 C3144 1.409 . S
C3151 C3150 1.362 . S
H3152 C3158 0.930 . S
H3153 C3161 0.930 . S
H3154 C3162 0.930 . S
H3155 C3163 0.930 . S
H3156 C3166 0.930 . S
H3157 C3167 0.930 . S
C3158 H3152 0.930 . S
C3158 C3159 1.355 . S
C3158 C3160 1.415 . S
C3159 C3158 1.355 . S
C3159 C3161 1.419 . S
C3160 C3158 1.415 . S
C3160 C3165 1.425 . S
C3160 C3167 1.409 . S
C3161 H3153 0.930 . S
C3161 C3159 1.419 . S
C3161 C3162 1.362 . S
C3162 H3154 0.930 . S
C3162 C3161 1.362 . S
C3162 C3165 1.409 . S
C3163 H3155 0.930 . S
C3163 C3164 1.355 . S
C3163 C3165 1.415 . S
C3164 C3163 1.355 . S
C3164 C3166 1.419 . S
C3165 C3160 1.425 . S
C3165 C3162 1.409 . S
C3165 C3163 1.415 . S
C3166 H3156 0.930 . S
C3166 C3164 1.419 . S
C3166 C3167 1.362 . S
C3167 H3157 0.930 . S
C3167 C3160 1.409 . S
C3167 C3166 1.362 . S
H3168 C3174 0.930 . S
H3169 C3177 0.931 . S
H3170 C3178 0.927 1_545 S
H3171 C3179 0.898 1_545 S
H3172 C3182 0.930 . S
H3173 C3183 0.930 . S
C3174 H3168 0.930 . S
C3174 C3175 1.355 . S
C3174 C3176 1.415 . S
C3175 C3174 1.355 . S
C3175 C3177 1.419 . S
C3176 C3174 1.415 . S
C3176 C3181 1.425 . S
C3176 C3183 1.409 . S
C3177 H3169 0.931 . S
C3177 C3175 1.419 . S
C3177 C3178 1.365 . S
C3178 H3170 0.927 1_565 S
C3178 C3177 1.365 . S
C3178 C3181 1.409 . S
C3179 H3171 0.898 1_565 S
C3179 C3180 1.355 . S
C3179 C3181 1.415 . S
C3180 C3179 1.355 . S
C3180 C3182 1.419 . S
C3181 C3176 1.425 . S
C3181 C3178 1.409 . S
C3181 C3179 1.415 . S
C3182 H3172 0.930 . S
C3182 C3180 1.419 . S
C3182 C3183 1.362 . S
C3183 H3173 0.930 . S
C3183 C3176 1.409 . S
C3183 C3182 1.362 . S
H3184 C3190 0.930 . S
H3185 C3193 0.930 . S
H3186 C3194 0.930 . S
H3187 C3195 0.930 . S
H3188 C3198 0.930 . S
H3189 C3199 0.930 . S
C3190 H3184 0.930 . S
C3190 C3191 1.355 . S
C3190 C3192 1.415 . S
C3191 C3190 1.355 . S
C3191 C3193 1.419 1_455 S
C3192 C3190 1.415 . S
C3192 C3197 1.425 1_455 S
C3192 C3199 1.409 . S
C3193 H3185 0.930 . S
C3193 C3191 1.419 1_655 S
C3193 C3194 1.362 . S
C3194 H3186 0.930 . S
C3194 C3193 1.362 . S
C3194 C3197 1.409 . S
C3195 H3187 0.930 . S
C3195 C3196 1.355 1_655 S
C3195 C3197 1.415 . S
C3196 C3195 1.355 1_455 S
C3196 C3198 1.419 . S
C3197 C3192 1.425 1_655 S
C3197 C3194 1.409 . S
C3197 C3195 1.415 . S
C3198 H3188 0.930 . S
C3198 C3196 1.419 . S
C3198 C3199 1.362 . S
C3199 H3189 0.930 . S
C3199 C3192 1.409 . S
C3199 C3198 1.362 . S
H3200 C3206 0.930 . S
H3201 C3209 0.930 . S
H3202 C3210 0.930 . S
H3203 C3211 0.930 . S
H3204 C3214 0.930 . S
H3205 C3215 0.930 . S
C3206 H3200 0.930 . S
C3206 C3207 1.355 . S
C3206 C3208 1.415 . S
C3207 C3206 1.355 . S
C3207 C3209 1.419 . S
C3208 C3206 1.415 . S
C3208 C3213 1.425 . S
C3208 C3215 1.409 . S
C3209 H3201 0.930 . S
C3209 C3207 1.419 . S
C3209 C3210 1.362 . S
C3210 H3202 0.930 . S
C3210 C3209 1.362 . S
C3210 C3213 1.409 . S
C3211 H3203 0.930 . S
C3211 C3212 1.355 . S
C3211 C3213 1.415 . S
C3212 C3211 1.355 . S
C3212 C3214 1.419 . S
C3213 C3208 1.425 . S
C3213 C3210 1.409 . S
C3213 C3211 1.415 . S
C3214 H3204 0.930 . S
C3214 C3212 1.419 . S
C3214 C3215 1.362 . S
C3215 H3205 0.930 . S
C3215 C3208 1.409 . S
C3215 C3214 1.362 . S
H3216 C3222 0.930 . S
H3217 C3225 0.930 . S
H3218 C3226 0.930 . S
H3219 C3227 0.930 . S
H3220 C3230 0.930 . S
H3221 C3231 0.930 . S
C3222 H3216 0.930 . S
C3222 C3223 1.355 . S
C3222 C3224 1.415 . S
C3223 C3222 1.355 . S
C3223 C3225 1.419 . S
C3224 C3222 1.415 . S
C3224 C3229 1.425 . S
C3224 C3231 1.409 . S
C3225 H3217 0.930 . S
C3225 C3223 1.419 . S
C3225 C3226 1.362 . S
C3226 H3218 0.930 . S
C3226 C3225 1.362 . S
C3226 C3229 1.409 . S
C3227 H3219 0.930 . S
C3227 C3228 1.355 . S
C3227 C3229 1.415 . S
C3228 C3227 1.355 . S
C3228 C3230 1.419 . S
C3229 C3224 1.425 . S
C3229 C3226 1.409 . S
C3229 C3227 1.415 . S
C3230 H3220 0.930 . S
C3230 C3228 1.419 . S
C3230 C3231 1.362 . S
C3231 H3221 0.930 . S
C3231 C3224 1.409 . S
C3231 C3230 1.362 . S
H3232 C3238 0.930 . S
H3233 C3241 0.930 . S
H3234 C3242 0.930 . S
H3235 C3243 0.930 . S
H3236 C3246 0.930 . S
H3237 C3247 0.930 . S
C3238 H3232 0.930 . S
C3238 C3239 1.355 . S
C3238 C3240 1.415 . S
C3239 C3238 1.355 . S
C3239 C3241 1.419 . S
C3240 C3238 1.415 . S
C3240 C3245 1.425 . S
C3240 C3247 1.409 . S
C3241 H3233 0.930 . S
C3241 C3239 1.419 . S
C3241 C3242 1.362 . S
C3242 H3234 0.930 . S
C3242 C3241 1.362 . S
C3242 C3245 1.409 . S
C3243 H3235 0.930 . S
C3243 C3244 1.355 . S
C3243 C3245 1.415 . S
C3244 C3243 1.355 . S
C3244 C3246 1.419 . S
C3245 C3240 1.425 . S
C3245 C3242 1.409 . S
C3245 C3243 1.415 . S
C3246 H3236 0.930 . S
C3246 C3244 1.419 . S
C3246 C3247 1.362 . S
C3247 H3237 0.930 . S
C3247 C3240 1.409 . S
C3247 C3246 1.362 . S
H3248 C3254 0.930 . S
H3249 C3257 0.930 . S
H3250 C3258 0.930 . S
H3251 C3259 0.930 . S
H3252 C3262 0.930 . S
H3253 C3263 0.930 . S
C3254 H3248 0.930 . S
C3254 C3255 1.355 . S
C3254 C3256 1.415 . S
C3255 C3254 1.355 . S
C3255 C3257 1.419 . S
C3256 C3254 1.415 . S
C3256 C3261 1.425 . S
C3256 C3263 1.409 . S
C3257 H3249 0.930 . S
C3257 C3255 1.419 . S
C3257 C3258 1.362 . S
C3258 H3250 0.930 . S
C3258 C3257 1.362 . S
C3258 C3261 1.409 . S
C3259 H3251 0.930 . S
C3259 C3260 1.355 . S
C3259 C3261 1.415 . S
C3260 C3259 1.355 . S
C3260 C3262 1.419 . S
C3261 C3256 1.425 . S
C3261 C3258 1.409 . S
C3261 C3259 1.415 . S
C3262 H3252 0.930 . S
C3262 C3260 1.419 . S
C3262 C3263 1.362 . S
C3263 H3253 0.930 . S
C3263 C3256 1.409 . S
C3263 C3262 1.362 . S
H3264 C3270 0.930 . S
H3265 C3273 0.930 . S
H3266 C3274 0.930 . S
H3267 C3275 0.930 . S
H3268 C3278 0.930 . S
H3269 C3279 0.930 . S
C3270 H3264 0.930 . S
C3270 C3271 1.355 . S
C3270 C3272 1.415 . S
C3271 C3270 1.355 . S
C3271 C3273 1.419 . S
C3272 C3270 1.415 . S
C3272 C3277 1.425 . S
C3272 C3279 1.409 . S
C3273 H3265 0.930 . S
C3273 C3271 1.419 . S
C3273 C3274 1.362 . S
C3274 H3266 0.930 . S
C3274 C3273 1.362 . S
C3274 C3277 1.409 . S
C3275 H3267 0.930 . S
C3275 C3276 1.355 . S
C3275 C3277 1.415 . S
C3276 C3275 1.355 . S
C3276 C3278 1.419 . S
C3277 C3272 1.425 . S
C3277 C3274 1.409 . S
C3277 C3275 1.415 . S
C3278 H3268 0.930 . S
C3278 C3276 1.419 . S
C3278 C3279 1.362 . S
C3279 H3269 0.930 . S
C3279 C3272 1.409 . S
C3279 C3278 1.362 . S
H3280 C3286 0.930 . S
H3281 C3289 0.930 . S
H3282 C3290 0.930 . S
H3283 C3291 0.930 . S
H3284 C3294 0.930 . S
H3285 C3295 0.930 . S
C3286 H3280 0.930 . S
C3286 C3287 1.355 1_455 S
C3286 C3288 1.415 . S
C3287 C3286 1.355 1_655 S
C3287 C3289 1.419 . S
C3288 C3286 1.415 . S
C3288 C3293 1.425 1_455 S
C3288 C3295 1.409 . S
C3289 H3281 0.930 . S
C3289 C3287 1.419 . S
C3289 C3290 1.362 . S
C3290 H3282 0.930 . S
C3290 C3289 1.362 . S
C3290 C3293 1.409 . S
C3291 H3283 0.930 . S
C3291 C3292 1.355 . S
C3291 C3293 1.415 . S
C3292 C3291 1.355 . S
C3292 C3294 1.419 1_655 S
C3293 C3288 1.425 1_655 S
C3293 C3290 1.409 . S
C3293 C3291 1.415 . S
C3294 H3284 0.930 . S
C3294 C3292 1.419 1_455 S
C3294 C3295 1.362 . S
C3295 H3285 0.930 . S
C3295 C3288 1.409 . S
C3295 C3294 1.362 . S
H3296 C3302 0.930 . S
H3297 C3305 0.930 . S
H3298 C3306 0.930 . S
H3299 C3307 0.930 . S
H3300 C3310 0.930 . S
H3301 C3311 0.930 . S
C3302 H3296 0.930 . S
C3302 C3303 1.355 . S
C3302 C3304 1.415 . S
C3303 C3302 1.355 . S
C3303 C3305 1.419 . S
C3304 C3302 1.415 . S
C3304 C3309 1.425 . S
C3304 C3311 1.409 . S
C3305 H3297 0.930 . S
C3305 C3303 1.419 . S
C3305 C3306 1.362 . S
C3306 H3298 0.930 . S
C3306 C3305 1.362 . S
C3306 C3309 1.409 . S
C3307 H3299 0.930 . S
C3307 C3308 1.355 . S
C3307 C3309 1.415 . S
C3308 C3307 1.355 . S
C3308 C3310 1.419 . S
C3309 C3304 1.425 . S
C3309 C3306 1.409 . S
C3309 C3307 1.415 . S
C3310 H3300 0.930 . S
C3310 C3308 1.419 . S
C3310 C3311 1.362 . S
C3311 H3301 0.930 . S
C3311 C3304 1.409 . S
C3311 C3310 1.362 . S
H3312 C3318 0.930 . S
H3313 C3321 0.930 . S
H3314 C3322 0.930 . S
H3315 C3323 0.930 . S
H3316 C3326 0.930 . S
H3317 C3327 0.930 . S
C3318 H3312 0.930 . S
C3318 C3319 1.355 . S
C3318 C3320 1.415 . S
C3319 C3318 1.355 . S
C3319 C3321 1.419 . S
C3320 C3318 1.415 . S
C3320 C3325 1.425 . S
C3320 C3327 1.409 . S
C3321 H3313 0.930 . S
C3321 C3319 1.419 . S
C3321 C3322 1.362 . S
C3322 H3314 0.930 . S
C3322 C3321 1.362 . S
C3322 C3325 1.409 . S
C3323 H3315 0.930 . S
C3323 C3324 1.355 . S
C3323 C3325 1.415 . S
C3324 C3323 1.355 . S
C3324 C3326 1.419 . S
C3325 C3320 1.425 . S
C3325 C3322 1.409 . S
C3325 C3323 1.415 . S
C3326 H3316 0.930 . S
C3326 C3324 1.419 . S
C3326 C3327 1.362 . S
C3327 H3317 0.930 . S
C3327 C3320 1.409 . S
C3327 C3326 1.362 . S
H3328 C3334 0.930 . S
H3329 C3337 0.930 . S
H3330 C3338 0.930 . S
H3331 C3339 0.930 . S
H3332 C3342 0.930 . S
H3333 C3343 0.930 . S
C3334 H3328 0.930 . S
C3334 C3335 1.355 . S
C3334 C3336 1.415 . S
C3335 C3334 1.355 . S
C3335 C3337 1.419 . S
C3336 C3334 1.415 . S
C3336 C3341 1.425 . S
C3336 C3343 1.409 . S
C3337 H3329 0.930 . S
C3337 C3335 1.419 . S
C3337 C3338 1.362 . S
C3338 H3330 0.930 . S
C3338 C3337 1.362 . S
C3338 C3341 1.409 . S
C3339 H3331 0.930 . S
C3339 C3340 1.355 . S
C3339 C3341 1.415 . S
C3340 C3339 1.355 . S
C3340 C3342 1.419 . S
C3341 C3336 1.425 . S
C3341 C3338 1.409 . S
C3341 C3339 1.415 . S
C3342 H3332 0.930 . S
C3342 C3340 1.419 . S
C3342 C3343 1.362 . S
C3343 H3333 0.930 . S
C3343 C3336 1.409 . S
C3343 C3342 1.362 . S
H3344 C3350 0.930 . S
H3345 C3353 0.930 . S
H3346 C3354 0.930 . S
H3347 C3355 0.930 . S
H3348 C3358 0.930 . S
H3349 C3359 0.930 . S
C3350 H3344 0.930 . S
C3350 C3351 1.355 . S
C3350 C3352 1.415 . S
C3351 C3350 1.355 . S
C3351 C3353 1.419 . S
C3352 C3350 1.415 . S
C3352 C3357 1.425 . S
C3352 C3359 1.409 . S
C3353 H3345 0.930 . S
C3353 C3351 1.419 . S
C3353 C3354 1.362 . S
C3354 H3346 0.930 . S
C3354 C3353 1.362 . S
C3354 C3357 1.409 . S
C3355 H3347 0.930 . S
C3355 C3356 1.355 . S
C3355 C3357 1.415 . S
C3356 C3355 1.355 . S
C3356 C3358 1.419 . S
C3357 C3352 1.425 . S
C3357 C3354 1.409 . S
C3357 C3355 1.415 . S
C3358 H3348 0.930 . S
C3358 C3356 1.419 . S
C3358 C3359 1.362 . S
C3359 H3349 0.930 . S
C3359 C3352 1.409 . S
C3359 C3358 1.362 . S
H3360 C3366 0.930 . S
H3361 C3369 0.930 . S
H3362 C3370 0.930 . S
H3363 C3371 0.930 . S
H3364 C3374 0.930 . S
H3365 C3375 0.930 . S
C3366 H3360 0.930 . S
C3366 C3367 1.355 . S
C3366 C3368 1.415 . S
C3367 C3366 1.355 . S
C3367 C3369 1.419 . S
C3368 C3366 1.415 . S
C3368 C3373 1.425 . S
C3368 C3375 1.409 . S
C3369 H3361 0.930 . S
C3369 C3367 1.419 . S
C3369 C3370 1.362 . S
C3370 H3362 0.930 . S
C3370 C3369 1.362 . S
C3370 C3373 1.409 . S
C3371 H3363 0.930 . S
C3371 C3372 1.355 . S
C3371 C3373 1.415 . S
C3372 C3371 1.355 . S
C3372 C3374 1.419 . S
C3373 C3368 1.425 . S
C3373 C3370 1.409 . S
C3373 C3371 1.415 . S
C3374 H3364 0.930 . S
C3374 C3372 1.419 . S
C3374 C3375 1.362 . S
C3375 H3365 0.930 . S
C3375 C3368 1.409 . S
C3375 C3374 1.362 . S
H3376 C3382 0.930 . S
H3377 C3385 0.930 . S
H3378 C3386 0.930 . S
H3379 C3387 0.930 . S
H3380 C3390 0.930 . S
H3381 C3391 0.930 . S
C3382 H3376 0.930 . S
C3382 C3383 1.355 . S
C3382 C3384 1.415 . S
C3383 C3382 1.355 . S
C3383 C3385 1.419 . S
C3384 C3382 1.415 . S
C3384 C3389 1.425 . S
C3384 C3391 1.409 . S
C3385 H3377 0.930 . S
C3385 C3383 1.419 . S
C3385 C3386 1.362 . S
C3386 H3378 0.930 . S
C3386 C3385 1.362 . S
C3386 C3389 1.409 . S
C3387 H3379 0.930 . S
C3387 C3388 1.355 . S
C3387 C3389 1.415 . S
C3388 C3387 1.355 . S
C3388 C3390 1.419 . S
C3389 C3384 1.425 . S
C3389 C3386 1.409 . S
C3389 C3387 1.415 . S
C3390 H3380 0.930 . S
C3390 C3388 1.419 . S
C3390 C3391 1.362 . S
C3391 H3381 0.930 . S
C3391 C3384 1.409 . S
C3391 C3390 1.362 . S
H3392 C3398 0.930 . S
H3393 C3401 0.930 . S
H3394 C3402 0.930 . S
H3395 C3403 0.930 . S
H3396 C3406 0.930 . S
H3397 C3407 0.930 . S
C3398 H3392 0.930 . S
C3398 C3399 1.355 . S
C3398 C3400 1.415 . S
C3399 C3398 1.355 . S
C3399 C3401 1.419 . S
C3400 C3398 1.415 . S
C3400 C3405 1.425 . S
C3400 C3407 1.409 . S
C3401 H3393 0.930 . S
C3401 C3399 1.419 . S
C3401 C3402 1.362 . S
C3402 H3394 0.930 . S
C3402 C3401 1.362 . S
C3402 C3405 1.409 . S
C3403 H3395 0.930 . S
C3403 C3404 1.355 . S
C3403 C3405 1.415 . S
C3404 C3403 1.355 . S
C3404 C3406 1.419 . S
C3405 C3400 1.425 . S
C3405 C3402 1.409 . S
C3405 C3403 1.415 . S
C3406 H3396 0.930 . S
C3406 C3404 1.419 . S
C3406 C3407 1.362 . S
C3407 H3397 0.930 . S
C3407 C3400 1.409 . S
C3407 C3406 1.362 . S
H3408 C3414 0.930 . S
H3409 C3417 0.930 . S
H3410 C3418 0.922 1_455 S
H3411 C3419 0.957 . S
H3412 C3422 0.930 . S
H3413 C3423 0.930 . S
C3414 H3408 0.930 . S
C3414 C3415 1.355 . S
C3414 C3416 1.415 . S
C3415 C3414 1.355 . S
C3415 C3417 1.419 . S
C3416 C3414 1.415 . S
C3416 C3421 1.425 . S
C3416 C3423 1.409 . S
C3417 H3409 0.930 . S
C3417 C3415 1.419 . S
C3417 C3418 1.362 . S
C3418 H3410 0.922 1_655 S
C3418 C3417 1.362 . S
C3418 C3421 1.409 . S
C3419 H3411 0.957 . S
C3419 C3420 1.355 . S
C3419 C3421 1.415 . S
C3420 C3419 1.355 . S
C3420 C3422 1.419 . S
C3421 C3416 1.425 . S
C3421 C3418 1.409 . S
C3421 C3419 1.415 . S
C3422 H3412 0.930 . S
C3422 C3420 1.419 . S
C3422 C3423 1.362 . S
C3423 H3413 0.930 . S
C3423 C3416 1.409 . S
C3423 C3422 1.362 . S
H3424 C3430 0.930 . S
H3425 C3433 0.930 . S
H3426 C3434 0.930 . S
H3427 C3435 0.930 . S
H3428 C3438 0.930 . S
H3429 C3439 0.930 . S
C3430 H3424 0.930 . S
C3430 C3431 1.355 . S
C3430 C3432 1.415 . S
C3431 C3430 1.355 . S
C3431 C3433 1.419 . S
C3432 C3430 1.415 . S
C3432 C3437 1.425 . S
C3432 C3439 1.409 . S
C3433 H3425 0.930 . S
C3433 C3431 1.419 . S
C3433 C3434 1.362 . S
C3434 H3426 0.930 . S
C3434 C3433 1.362 . S
C3434 C3437 1.409 . S
C3435 H3427 0.930 . S
C3435 C3436 1.355 . S
C3435 C3437 1.415 . S
C3436 C3435 1.355 . S
C3436 C3438 1.419 . S
C3437 C3432 1.425 . S
C3437 C3434 1.409 . S
C3437 C3435 1.415 . S
C3438 H3428 0.930 . S
C3438 C3436 1.419 . S
C3438 C3439 1.362 . S
C3439 H3429 0.930 . S
C3439 C3432 1.409 . S
C3439 C3438 1.362 . S
H3440 C3446 0.930 . S
H3441 C3449 0.930 . S
H3442 C3450 0.930 . S
H3443 C3451 0.930 . S
H3444 C3454 0.930 . S
H3445 C3455 0.930 . S
C3446 H3440 0.930 . S
C3446 C3447 1.355 . S
C3446 C3448 1.415 . S
C3447 C3446 1.355 . S
C3447 C3449 1.419 . S
C3448 C3446 1.415 . S
C3448 C3453 1.425 . S
C3448 C3455 1.409 1_545 S
C3449 H3441 0.930 . S
C3449 C3447 1.419 . S
C3449 C3450 1.362 . S
C3450 H3442 0.930 . S
C3450 C3449 1.362 . S
C3450 C3453 1.409 . S
C3451 H3443 0.930 . S
C3451 C3452 1.348 . S
C3451 C3453 1.415 . S
C3452 C3451 1.348 . S
C3452 C3454 1.416 1_545 S
C3453 C3448 1.425 . S
C3453 C3450 1.409 . S
C3453 C3451 1.415 . S
C3454 H3444 0.930 . S
C3454 C3452 1.416 1_565 S
C3454 C3455 1.362 . S
C3455 H3445 0.930 . S
C3455 C3448 1.409 1_565 S
C3455 C3454 1.362 . S
C2311 C7 1.303 . S
C2316 C1307 1.008 1_655 S
C2327 C23 1.786 . S
C2332 C1447 1.090 . S
C2348 C1535 1.068 . S
C2343 C37 1.355 . S
C2359 C35 1.443 . S
C2364 C1675 1.088 1_565 S
C2375 C9 1.422 . S
C2380 C1789 0.995 . S
C2391 C21 1.774 . S
C2396 C1877 1.384 . S
C2407 C49 1.291 . S
C2412 C1763 1.086 1_655 S
C2428 C1903 1.435 . S
C2423 C65 1.670 . S
C2444 C1649 1.075 . S
C2439 C79 1.343 . S
C2455 C77 1.388 . S
C2460 C1561 0.960 . S
C2476 C1333 1.134 . S
C2471 C51 1.398 . S
C2487 C63 1.614 . S
C2492 C1421 1.530 . S
C2503 C91 1.827 . S
C2508 C1991 1.390 . S
C2519 C107 1.879 . S
C2524 C2131 1.242 . S
C2540 C2219 1.390 . S
C2535 C121 1.847 . S
C2551 C119 1.877 . S
C2556 C307 1.268 . S
C2567 C93 1.920 . S
C2572 C421 1.227 . S
C2583 C105 1.859 . S
C2588 C509 1.453 . S
C2599 C133 1.562 . S
C2604 C395 1.524 . S
C2615 C149 1.746 . S
C2620 C535 1.589 . S
C2636 C281 1.579 . S
C2631 C163 1.732 . S
C2652 C2245 1.727 . S
C2647 C161 1.850 . S
C2668 C2017 1.559 . S
C2663 C135 1.770 . S
C2684 C2105 1.678 . S
C2679 C147 1.697 . S
C2695 C175 1.646 . S
C2700 C623 1.158 . S
C2711 C191 1.866 . S
C2716 C763 1.138 . S
C2727 C205 1.862 . S
C2732 C851 1.273 . S
C2743 C203 1.967 . S
C2748 C991 1.272 . S
C2764 C1105 1.263 . S
C2759 C177 1.914 . S
C2780 C1193 1.397 . S
C2775 C189 1.826 . S
C2796 C1079 1.632 . S
C2791 C217 1.734 . S
C2812 C1219 1.532 . S
C2807 C233 1.765 . S
C2823 C247 1.709 . S
C2828 C965 1.606 . S
C2844 C877 1.637 . S
C2839 C245 1.721 . S
C2855 C219 1.797 . S
C2860 C649 1.622 . S
C2876 C737 1.678 . S
C2871 C231 1.734 . S
C2892 C263 0.946 . S
C2887 C8 1.835 . S
C2903 C17 1.657 . S
C2908 C377 1.007 . S
C2924 C481 1.279 . S
C2919 C31 1.774 . S
C2940 C595 1.173 . S
C2935 C36 1.720 . S
C2956 C719 1.094 . S
C2951 C3 1.810 . S
C2972 C823 1.218 . S
C2967 C22 1.681 . S
C2983 C50 1.983 . S
C2988 C833 1.532 . S
C2999 C59 1.752 . S
C3004 C605 1.477 . S
C3015 C73 1.856 . S
C3020 C709 1.746 . S
C3031 C78 1.845 . S
C3036 C367 1.720 . S
C3052 C491 1.486 . S
C3047 C45 1.920 . S
C3063 C64 1.840 . S
C3068 C253 1.607 . S
C3084 C947 0.947 . S
C3079 C92 1.754 . S
C3095 C101 1.835 . S
C3100 C1061 1.126 . S
C3111 C115 1.802 . S
C3116 C1165 1.304 . S
C3132 C1279 1.078 . S
C3127 C120 1.301 . S
C3143 C87 1.702 . S
C3148 C1403 0.876 . S
C3159 C106 1.338 . S
C3164 C1507 1.183 . S
C3175 C134 1.457 . S
C3180 C1517 1.029 1_565 S
C3191 C143 1.366 . S
C3196 C1289 1.016 1_455 S
C3212 C1393 1.648 . S
C3207 C157 1.784 . S
C3223 C162 1.809 . S
C3228 C1051 1.603 . S
C3239 C129 1.948 . S
C3244 C1175 1.540 . S
C3260 C937 1.756 . S
C3255 C148 1.965 . S
C3276 C1631 0.830 . S
C3271 C176 1.464 . S
C3287 C185 1.347 . S
C3292 C1745 0.988 . S
C3303 C199 1.676 . S
C3308 C1849 1.181 . S
C3324 C1963 1.214 . S
C3319 C204 1.635 . S
C3340 C2087 1.011 . S
C3335 C171 1.821 . S
C3351 C190 1.829 . S
C3356 C2191 1.319 . S
C3367 C218 1.895 . S
C3372 C2201 1.461 . S
C3383 C227 1.907 . S
C3388 C1973 1.558 . S
C3404 C2077 1.746 . S
C3399 C241 1.883 . S
C3420 C1735 1.182 1_655 S
C3415 C246 1.294 . S
C3436 C1859 1.520 . S
C3431 C213 1.818 . S
C3447 C232 1.374 . S
C3452 C1621 1.060 1_545 S
