# Generated by pormake.
# Topology rtl, (3,6)-cn, num edge types: 1
# Building blocks:
#     Node 0, Type 0, BuildingBlock: VETTIZ_charged_linker_0, # of connection points: 3
#     Node 1, Type 0, BuildingBlock: VETTIZ_charged_linker_0, # of connection points: 3
#     Node 2, Type 0, BuildingBlock: VETTIZ_charged_linker_0, # of connection points: 3
#     Node 3, Type 0, BuildingBlock: VETTIZ_charged_linker_0, # of connection points: 3
#     Node 4, Type 1, BuildingBlock: KUMJIN_clean_sbu_1, # of connection points: 6
#     Node 5, Type 1, BuildingBlock: KUMJIN_clean_sbu_1, # of connection points: 6
#     Edge 6, Type (0, 1), BuildingBlock: EZIPEK_clean_linker_0, # of connection points: 2
#     Edge 7, Type (0, 1), BuildingBlock: EZIPEK_clean_linker_0, # of connection points: 2
#     Edge 8, Type (0, 1), BuildingBlock: EZIPEK_clean_linker_0, # of connection points: 2
#     Edge 9, Type (0, 1), BuildingBlock: EZIPEK_clean_linker_0, # of connection points: 2
#     Edge 10, Type (0, 1), BuildingBlock: EZIPEK_clean_linker_0, # of connection points: 2
#     Edge 11, Type (0, 1), BuildingBlock: EZIPEK_clean_linker_0, # of connection points: 2
#     Edge 12, Type (0, 1), BuildingBlock: EZIPEK_clean_linker_0, # of connection points: 2
#     Edge 13, Type (0, 1), BuildingBlock: EZIPEK_clean_linker_0, # of connection points: 2
#     Edge 14, Type (0, 1), BuildingBlock: EZIPEK_clean_linker_0, # of connection points: 2
#     Edge 15, Type (0, 1), BuildingBlock: EZIPEK_clean_linker_0, # of connection points: 2
#     Edge 16, Type (0, 1), BuildingBlock: EZIPEK_clean_linker_0, # of connection points: 2
#     Edge 17, Type (0, 1), BuildingBlock: EZIPEK_clean_linker_0, # of connection points: 2
# Relax obj value: 0.018
# Max RMSD: 0.114
# Mean RMSD: 0.067
data_MOF--net-rtl--node1-KUMJIN_clean_sbu_1--node2-VETTIZ_charged_linker_0--edge1-EZIPEK_clean_linker_0
_symmetry_space_group_name_H-M    P1
_symmetry_Int_Tables_number       1
_symmetry_cell_setting            triclinic
loop_
_symmetry_equiv_pos_as_xyz
'x, y, z'
_cell_length_a     30.836345
_cell_length_b     31.653285
_cell_length_c     28.164776
_cell_angle_alpha  77.266844
_cell_angle_beta   99.370323
_cell_angle_gamma 90.634023
loop_
_atom_site_label
_atom_site_type_symbol
_atom_site_fract_x
_atom_site_fract_y
_atom_site_fract_z
_atom_type_partial_charge
C0 C 0.1717 0.92398 0.84617 0.0
C1 C 0.13462 0.95173 0.83544 0.0
C2 C 0.11698 0.96287 0.87419 0.0
C3 C 0.171 0.91551 0.93389 0.0
C4 C 0.1892 0.90605 0.89555 0.0
C5 C 0.22682 0.87363 0.91352 0.0
H6 H 0.32271 0.70884 0.09055 0.0
C7 C 0.19404 0.88822 0.98054 0.0
C8 C 0.2267 0.86355 0.96889 0.0
H9 H 0.35964 0.76027 0.94772 0.0
H10 H 0.30843 0.82058 0.93422 0.0
H11 H 0.33349 0.80183 0.116 0.0
H12 H 0.21624 0.73586 0.07076 0.0
H13 H 0.21187 0.75588 0.12395 0.0
H14 H 0.25456 0.71693 0.12674 0.0
H15 H 0.30798 0.76425 0.15993 0.0
H16 H 0.29136 0.82087 0.14158 0.0
C17 C 0.26957 0.89594 0.89983 0.0
C18 C 0.2152 0.83373 0.89092 0.0
C19 C 0.14262 0.89185 0.14205 0.0
C20 C 0.15516 0.86822 0.1907 0.0
C21 C 0.18806 0.83544 0.20085 0.0
C22 C 0.20804 0.82613 0.16273 0.0
C23 C 0.19515 0.85008 0.11411 0.0
C24 C 0.16307 0.88244 0.10455 0.0
C25 C 0.15331 0.90448 0.0508 0.0
C26 C 0.18613 0.8814 0.02994 0.0
C27 C 0.21015 0.84911 0.06698 0.0
C28 C 0.16337 0.95316 0.04575 0.0
C29 C 0.10503 0.89524 0.03076 0.0
C30 C 0.31941 0.73298 0.05623 0.0
C31 C 0.34372 0.72875 0.01909 0.0
C32 C 0.34017 0.762 0.97602 0.0
C33 C 0.31051 0.79691 0.96821 0.0
C34 C 0.28481 0.79938 1.00432 0.0
C35 C 0.29138 0.76935 0.0487 0.0
C36 C 0.26715 0.78239 0.08593 0.0
C37 C 0.24204 0.82294 0.05478 0.0
C38 C 0.25154 0.83159 0.00653 0.0
C39 C 0.3015 0.79267 0.12834 0.0
C40 C 0.23579 0.74585 0.10311 0.0
H41 H 0.11984 0.95409 0.95146 0.0
H42 H 0.18561 0.91521 0.81664 0.0
H43 H 0.18205 0.82212 0.8975 0.0
H44 H 0.23829 0.80604 0.90663 0.0
H45 H 0.2149 0.84202 0.85043 0.0
H46 H 0.26574 0.93188 0.88995 0.0
H47 H 0.27954 0.88579 0.86776 0.0
H48 H 0.29721 0.88903 0.93125 0.0
H49 H 0.11725 0.91705 0.13343 0.0
H50 H 0.19795 0.81688 0.23823 0.0
H51 H 0.23249 0.80048 0.1724 0.0
H52 H 0.19405 0.95743 0.07097 0.0
H53 H 0.13629 0.97083 0.05537 0.0
H54 H 0.16918 0.96921 0.00843 0.0
H55 H 0.09416 0.86407 0.05189 0.0
H56 H 0.10045 0.89134 0.99223 0.0
H57 H 0.08215 0.92118 0.03338 0.0
H58 H 0.08832 0.98433 0.8662 0.0
C59 C 0.13513 0.94504 0.92344 0.0
C60 C 0.63906 0.64929 0.79124 0.0
C61 C 0.61121 0.61278 0.79704 0.0
C62 C 0.61571 0.58349 0.7663 0.0
C63 C 0.65816 0.6341 0.71603 0.0
C64 C 0.6615 0.65959 0.75025 0.0
C65 C 0.69252 0.69653 0.73821 0.0
H66 H 0.81957 0.80647 0.57493 0.0
C67 C 0.68319 0.65376 0.67652 0.0
C68 C 0.70428 0.6903 0.68944 0.0
H69 H 0.80595 0.83296 0.7155 0.0
H70 H 0.75549 0.77315 0.72948 0.0
H71 H 0.82864 0.70509 0.61006 0.0
H72 H 0.71959 0.7923 0.54202 0.0
H73 H 0.70932 0.74646 0.51705 0.0
H74 H 0.75818 0.77693 0.50727 0.0
H75 H 0.82051 0.73247 0.54621 0.0
H76 H 0.79716 0.68037 0.56647 0.0
C77 C 0.73301 0.68964 0.77964 0.0
C78 C 0.66723 0.73976 0.73179 0.0
C79 C 0.66571 0.59688 0.51798 0.0
C80 C 0.68328 0.6104 0.47408 0.0
C81 C 0.71215 0.6452 0.46985 0.0
C82 C 0.72339 0.66654 0.50844 0.0
C83 C 0.7056 0.65309 0.55209 0.0
C84 C 0.67747 0.61864 0.5566 0.0
C85 C 0.66312 0.60829 0.60658 0.0
C86 C 0.68575 0.64359 0.63019 0.0
C87 C 0.71062 0.66937 0.59802 0.0
C88 C 0.68095 0.56224 0.63421 0.0
C89 C 0.61247 0.61322 0.59865 0.0
C90 C 0.80574 0.79925 0.60874 0.0
C91 C 0.81662 0.82402 0.6442 0.0
C92 C 0.79794 0.81398 0.68778 0.0
C93 C 0.76887 0.77926 0.69581 0.0
C94 C 0.7585 0.75436 0.65989 0.0
C95 C 0.77697 0.76492 0.61725 0.0
C96 C 0.76267 0.73589 0.58259 0.0
C97 C 0.73352 0.70513 0.61163 0.0
C98 C 0.73063 0.71585 0.657 0.0
C99 C 0.80418 0.71229 0.57541 0.0
C100 C 0.73632 0.76406 0.5345 0.0
H101 H 0.63738 0.57133 0.70288 0.0
H102 H 0.64472 0.66916 0.8181 0.0
H103 H 0.6349 0.73985 0.70756 0.0
H104 H 0.68477 0.76795 0.71421 0.0
H105 H 0.66101 0.74474 0.76797 0.0
H106 H 0.7431 0.65477 0.79148 0.0
H107 H 0.72564 0.70045 0.81249 0.0
H108 H 0.76216 0.70655 0.76768 0.0
H109 H 0.64364 0.56995 0.5221 0.0
H110 H 0.72596 0.65595 0.43633 0.0
H111 H 0.74554 0.69279 0.50259 0.0
H112 H 0.70742 0.55077 0.6172 0.0
H113 H 0.65453 0.53808 0.63415 0.0
H114 H 0.69633 0.56133 0.67288 0.0
H115 H 0.60147 0.64535 0.57458 0.0
H116 H 0.59948 0.61103 0.6333 0.0
H117 H 0.59675 0.58779 0.58055 0.0
H118 H 0.60312 0.55119 0.77342 0.0
C119 C 0.63732 0.59448 0.72545 0.0
C120 C 0.84872 0.09865 0.24481 0.0
C121 C 0.87986 0.06466 0.25424 0.0
C122 C 0.8917 0.0494 0.21474 0.0
C123 C 0.8425 0.10314 0.15675 0.0
C124 C 0.83052 0.11739 0.19592 0.0
C125 C 0.79821 0.15501 0.17925 0.0
H126 H 0.66815 0.29242 0.99392 0.0
C127 C 0.81849 0.13045 0.11063 0.0
C128 C 0.79228 0.16068 0.1236 0.0
H129 H 0.68838 0.29003 0.14989 0.0
H130 H 0.74 0.22981 0.16591 0.0
H131 H 0.7703 0.28428 0.99134 0.0
H132 H 0.6709 0.18749 1.00092 0.0
H133 H 0.70322 0.17917 0.95746 0.0
H134 H 0.67239 0.22939 0.94664 0.0
H135 H 0.73112 0.27896 0.93859 0.0
H136 H 0.78221 0.24795 0.95613 0.0
C137 C 0.81993 0.19474 0.1965 0.0
C138 C 0.75532 0.14088 0.1996 0.0
C139 C 0.84908 0.11102 0.9449 0.0
C140 C 0.83311 0.1326 0.89617 0.0
C141 C 0.79876 0.16374 0.88681 0.0
C142 C 0.78167 0.17456 0.92594 0.0
C143 C 0.79926 0.15406 0.97482 0.0
C144 C 0.83176 0.12221 0.98355 0.0
C145 C 0.84643 0.10376 0.03771 0.0
C146 C 0.81857 0.13082 0.06013 0.0
C147 C 0.79109 0.16033 0.02316 0.0
C148 C 0.89613 0.11214 0.05042 0.0
C149 C 0.83442 0.05528 0.04892 0.0
C150 C 0.68376 0.27866 0.03142 0.0
C151 C 0.6741 0.29548 0.07085 0.0
C152 C 0.69534 0.27731 0.11914 0.0
C153 C 0.72524 0.24239 0.12829 0.0
C154 C 0.73466 0.22582 0.08865 0.0
C155 C 0.71466 0.24438 0.04108 0.0
C156 C 0.73162 0.22475 1.00336 0.0
C157 C 0.76396 0.19047 0.0363 0.0
C158 C 0.76512 0.19099 0.08621 0.0
C159 C 0.75482 0.26063 0.97021 0.0
C160 C 0.69264 0.20426 0.97516 0.0
H161 H 0.88364 0.05575 0.13727 0.0
H162 H 0.83964 0.11105 0.27486 0.0
H163 H 0.74705 0.1074 0.19557 0.0
H164 H 0.72639 0.16123 0.17964 0.0
H165 H 0.75892 0.14113 0.23943 0.0
H166 H 0.85641 0.19261 0.20061 0.0
H167 H 0.81165 0.19722 0.23275 0.0
H168 H 0.81067 0.22558 0.16941 0.0
H169 H 0.87541 0.08687 0.95273 0.0
H170 H 0.78608 0.18044 0.84928 0.0
H171 H 0.756 0.199 0.9167 0.0
H172 H 0.90419 0.14483 0.03013 0.0
H173 H 0.91638 0.08791 0.04001 0.0
H174 H 0.90694 0.11201 0.08976 0.0
H175 H 0.80403 0.04945 0.02416 0.0
H176 H 0.82683 0.04386 0.0866 0.0
H177 H 0.86116 0.03448 0.04353 0.0
H178 H 0.91594 0.02331 0.22175 0.0
C179 C 0.87303 0.06838 0.16594 0.0
C180 C 0.35655 0.36228 0.29624 0.0
C181 C 0.38701 0.3959 0.29073 0.0
C182 C 0.40271 0.4143 0.3311 0.0
C183 C 0.35813 0.36637 0.3818 0.0
C184 C 0.34279 0.34779 0.34237 0.0
C185 C 0.31161 0.31158 0.3563 0.0
H186 H 0.20343 0.19344 0.533 0.0
C187 C 0.33789 0.3445 0.4245 0.0
C188 C 0.31064 0.312 0.41022 0.0
H189 H 0.19714 0.17852 0.38353 0.0
H190 H 0.24864 0.23694 0.368 0.0
H191 H 0.30781 0.20517 0.55475 0.0
H192 H 0.19827 0.29589 0.50691 0.0
H193 H 0.23593 0.31693 0.54895 0.0
H194 H 0.21164 0.26537 0.56934 0.0
H195 H 0.27146 0.21445 0.59531 0.0
H196 H 0.31912 0.247 0.58649 0.0
C197 C 0.33205 0.26888 0.35084 0.0
C198 C 0.26627 0.3239 0.32364 0.0
C199 C 0.37036 0.39819 0.5837 0.0
C200 C 0.35587 0.3855 0.62932 0.0
C201 C 0.32783 0.35017 0.6372 0.0
C202 C 0.31382 0.32799 0.59968 0.0
C203 C 0.32797 0.34139 0.55374 0.0
C204 C 0.35604 0.37574 0.54657 0.0
C205 C 0.36771 0.38548 0.49558 0.0
C206 C 0.34157 0.35171 0.473 0.0
C207 C 0.31837 0.32605 0.50715 0.0
C208 C 0.41803 0.37785 0.50043 0.0
C209 C 0.35096 0.43223 0.46972 0.0
C210 C 0.21337 0.20275 0.49702 0.0
C211 C 0.19645 0.18167 0.45941 0.0
C212 C 0.20992 0.19454 0.41295 0.0
C213 C 0.23971 0.22838 0.40411 0.0
C214 C 0.25621 0.2495 0.44218 0.0
C215 C 0.24293 0.23631 0.48772 0.0
C216 C 0.26315 0.26212 0.52401 0.0
C217 C 0.291 0.29298 0.49317 0.0
C218 C 0.28701 0.28576 0.44505 0.0
C219 C 0.29172 0.23081 0.56776 0.0
C220 C 0.22557 0.28623 0.53858 0.0
H221 H 0.40177 0.41541 0.40552 0.0
H222 H 0.34427 0.3475 0.26564 0.0
H223 H 0.25787 0.35863 0.32036 0.0
H224 H 0.23924 0.3056 0.33908 0.0
H225 H 0.26627 0.31881 0.28584 0.0
H226 H 0.36806 0.26714 0.36463 0.0
H227 H 0.32709 0.26652 0.31156 0.0
H228 H 0.31877 0.23986 0.37275 0.0
H229 H 0.39194 0.42534 0.57697 0.0
H230 H 0.31645 0.34011 0.6723 0.0
H231 H 0.29223 0.30152 0.6078 0.0
H232 H 0.43088 0.35269 0.53402 0.0
H233 H 0.43617 0.40797 0.50312 0.0
H234 H 0.42706 0.36524 0.46963 0.0
H235 H 0.319 0.43937 0.48022 0.0
H236 H 0.34423 0.43763 0.42911 0.0
H237 H 0.37467 0.45653 0.48036 0.0
H238 H 0.42618 0.44008 0.32743 0.0
C239 C 0.38847 0.39984 0.37641 0.0
Eu240 Eu 0.02896 0.95017 0.53434 0.0
C241 C 0.94547 0.14776 0.47699 0.0
N242 N 0.9779 0.132 0.51556 0.0
C243 C 0.01414 0.20006 0.50211 0.0
C244 C 0.94652 0.19053 0.449 0.0
C245 C 0.0118 0.15751 0.52878 0.0
C246 C 0.9815 0.21658 0.4619 0.0
C247 C 0.87669 0.13685 0.4258 0.0
C248 C 0.91096 0.12116 0.46541 0.0
C249 C 0.87792 0.17925 0.39763 0.0
C250 C 0.91273 0.20598 0.40917 0.0
Eu251 Eu 0.97197 0.05896 0.55632 0.0
N252 N 0.91115 0.07978 0.49239 0.0
C253 C 0.84214 0.10944 0.41565 0.0
C254 C 0.87707 0.05331 0.48336 0.0
C255 C 0.84217 0.06762 0.44483 0.0
H256 H 0.037 0.14503 0.56013 0.0
H257 H 0.81572 0.0461 0.43711 0.0
H258 H 0.95166 0.88356 0.49774 0.0
H259 H 0.18199 0.91015 0.66591 0.0
H260 H 0.8782 0.02035 0.50392 0.0
H261 H 0.81531 0.12025 0.38544 0.0
H262 H 0.13117 0.95476 0.59654 0.0
H263 H 0.0412 0.22003 0.51249 0.0
H264 H 0.85201 0.19173 0.36691 0.0
H265 H 0.91311 0.23867 0.38717 0.0
H266 H 0.92917 0.8079 0.52484 0.0
H267 H 0.98351 0.24954 0.44121 0.0
H268 H 0.16119 0.83618 0.70394 0.0
N269 N 0.00706 0.87761 0.55482 0.0
C270 C 0.03262 0.85099 0.59339 0.0
C271 C 0.95826 0.81965 0.54451 0.0
C272 C 0.02134 0.80751 0.60975 0.0
C273 C 0.97092 0.86243 0.52943 0.0
C274 C 0.98338 0.79214 0.58507 0.0
N275 N 0.08128 0.90868 0.59812 0.0
C276 C 0.1217 0.92328 0.61372 0.0
C277 C 0.0988 0.83979 0.65485 0.0
C278 C 0.07065 0.86707 0.61591 0.0
C279 C 0.13868 0.85605 0.67398 0.0
C280 C 0.15053 0.89777 0.65267 0.0
H281 H 0.97348 0.75902 0.59668 0.0
H282 H 0.03995 0.74744 0.6633 0.0
H283 H 0.10796 0.77561 0.70256 0.0
O284 O 0.05964 0.97123 0.46854 0.0
O285 O 0.04309 0.96231 0.61232 0.0
O286 O 0.03511 0.03599 0.60821 0.0
O287 O 0.05187 0.90315 0.49681 0.0
O288 O 0.06573 0.01419 0.51452 0.0
O289 O 0.04362 0.06911 0.54957 0.0
O290 O 0.92837 0.0501 0.6115 0.0
O291 O 0.9674 0.04796 0.478 0.0
O292 O 0.96496 0.97441 0.48631 0.0
O293 O 0.96187 0.1102 0.59459 0.0
O294 O 0.94726 0.99303 0.59194 0.0
O295 O 0.95619 0.94622 0.54206 0.0
C296 C 0.04801 0.99652 0.63208 0.0
C297 C 0.04496 0.927 0.41069 0.0
C298 C 0.05589 0.91226 0.33188 0.0
C299 C 0.01032 0.91695 0.31544 0.0
C300 C 0.99945 0.9304 0.39396 0.0
C301 C 0.98232 0.92597 0.34639 0.0
C302 C 0.07319 0.91758 0.37964 0.0
C303 C 0.06845 0.05391 0.52284 0.0
C304 C 0.06273 0.93237 0.46077 0.0
C305 C 0.0483 0.7808 0.64989 0.0
C306 C 0.08696 0.79689 0.67236 0.0
C307 C 0.95941 0.01368 0.45903 0.0
C308 C 0.95131 0.08476 0.67678 0.0
C309 C 0.93397 0.092 0.75596 0.0
C310 C 0.9774 0.07958 0.77814 0.0
C311 C 0.99483 0.07313 0.69943 0.0
C312 C 0.92083 0.09423 0.70523 0.0
C313 C 0.00765 0.07011 0.74992 0.0
C314 C 0.93777 0.95702 0.57697 0.0
C315 C 0.93778 0.0869 0.62371 0.0
H316 H 0.99644 0.91312 0.27878 0.0
H317 H 0.97713 0.93608 0.41784 0.0
H318 H 0.94719 0.92907 0.33366 0.0
H319 H 0.10832 0.91403 0.3926 0.0
H320 H 0.98793 0.07775 0.81718 0.0
H321 H 0.01903 0.06681 0.67806 0.0
H322 H 0.88728 0.10377 0.68803 0.0
H323 H 0.04123 0.06086 0.76707 0.0
Eu324 Eu 0.45385 0.47938 0.0066 0.0
C325 C 0.64169 0.56826 0.0594 0.0
N326 N 0.62456 0.52871 0.07367 0.0
C327 C 0.69025 0.49424 0.06364 0.0
C328 C 0.68329 0.57234 0.0444 0.0
C329 C 0.64895 0.49194 0.07833 0.0
C330 C 0.7072 0.53463 0.04575 0.0
C331 C 0.636 0.64613 0.04916 0.0
C332 C 0.61832 0.60461 0.06183 0.0
C333 C 0.67659 0.65052 0.03229 0.0
C334 C 0.7002 0.6137 0.02992 0.0
Eu335 Eu 0.55385 0.52718 0.09575 0.0
N336 N 0.57914 0.5993 0.07832 0.0
C337 C 0.61271 0.68197 0.0546 0.0
C338 C 0.55755 0.634 0.0862 0.0
C339 C 0.5736 0.67578 0.07379 0.0
H340 H 0.63704 0.4608 0.09426 0.0
H341 H 0.55598 0.70314 0.07952 0.0
H342 H 0.36381 0.54712 0.99006 0.0
H343 H 0.46357 0.3045 0.07526 0.0
H344 H 0.52818 0.62972 0.10277 0.0
H345 H 0.62517 0.71437 0.04524 0.0
H346 H 0.48482 0.37553 0.02895 0.0
H347 H 0.70915 0.46488 0.06665 0.0
H348 H 0.69044 0.68219 0.02194 0.0
H349 H 0.73193 0.6175 0.01788 0.0
H350 H 0.29441 0.54726 0.02199 0.0
H351 H 0.73932 0.53637 0.03464 0.0
H352 H 0.39847 0.29997 0.11717 0.0
N353 N 0.38372 0.48321 0.03092 0.0
C354 C 0.37044 0.4458 0.05833 0.0
C355 C 0.31582 0.51871 0.03319 0.0
C356 C 0.3303 0.44424 0.07658 0.0
C357 C 0.35586 0.51873 0.01596 0.0
C358 C 0.30336 0.48159 0.06443 0.0
N359 N 0.43371 0.41039 0.04681 0.0
C360 C 0.45666 0.37366 0.04758 0.0
C361 C 0.38245 0.36862 0.0928 0.0
C362 C 0.39594 0.40827 0.06614 0.0
C363 C 0.40775 0.33109 0.09703 0.0
C364 C 0.44453 0.3335 0.07346 0.0
H365 H 0.27229 0.48169 0.07765 0.0
H366 H 0.28744 0.40369 0.1202 0.0
H367 H 0.33321 0.3375 0.13455 0.0
O368 O 0.4592 0.44873 0.94509 0.0
O369 O 0.4716 0.45042 0.0887 0.0
O370 O 0.4872 0.51094 0.11852 0.0
O371 O 0.39951 0.48286 0.9456 0.0
O372 O 0.52255 0.45132 0.01349 0.0
O373 O 0.55563 0.45605 0.09201 0.0
O374 O 0.56811 0.5525 0.16259 0.0
O375 O 0.56238 0.53379 0.01493 0.0
O376 O 0.49092 0.53815 0.97223 0.0
O377 O 0.58797 0.48687 0.16503 0.0
O378 O 0.49413 0.57225 0.06898 0.0
O379 O 0.44077 0.54824 0.01262 0.0
C380 C 0.46954 0.4728 0.1222 0.0
C381 C 0.41961 0.48503 0.86827 0.0
C382 C 0.40572 0.48196 0.78153 0.0
C383 C 0.41308 0.52653 0.76841 0.0
C384 C 0.42703 0.52961 0.85472 0.0
C385 C 0.42368 0.55021 0.80496 0.0
C386 C 0.40914 0.46127 0.83157 0.0
C387 C 0.55291 0.4393 0.05275 0.0
C388 C 0.42106 0.46339 0.92034 0.0
C389 C 0.31778 0.40526 0.10522 0.0
C390 C 0.34381 0.36755 0.11335 0.0
C391 C 0.53359 0.54349 0.97357 0.0
C392 C 0.62969 0.52402 0.22141 0.0
C393 C 0.66604 0.54446 0.29657 0.0
C394 C 0.70681 0.54136 0.28132 0.0
C395 C 0.67071 0.52126 0.20669 0.0
C396 C 0.62754 0.53525 0.26664 0.0
C397 C 0.70906 0.52967 0.23672 0.0
C398 C 0.45641 0.5768 0.03843 0.0
C399 C 0.58858 0.51753 0.18936 0.0
H400 H 0.41046 0.54291 0.72995 0.0
H401 H 0.43508 0.54849 0.88255 0.0
H402 H 0.42938 0.58457 0.7947 0.0
H403 H 0.40301 0.42692 0.84177 0.0
H404 H 0.73684 0.54836 0.3038 0.0
H405 H 0.67311 0.51296 0.17196 0.0
H406 H 0.59592 0.53782 0.27806 0.0
H407 H 0.74061 0.52757 0.22514 0.0
C408 C 0.17903 0.10581 0.50008 0.0
C409 C 0.16424 0.14653 0.46944 0.0
C410 C 0.08808 0.12225 0.46555 0.0
C411 C 0.10223 0.08395 0.50196 0.0
N412 N 0.16153 0.04225 0.55827 0.0
N413 N 0.10424 0.19571 0.42678 0.0
C414 C 0.14792 0.07629 0.51997 0.0
C415 C 0.11864 0.15522 0.45282 0.0
N416 N 0.22294 0.09528 0.50999 0.0
N417 N 0.04546 0.12686 0.44223 0.0
H418 H 0.12548 0.22058 0.4161 0.0
H419 H 0.07127 0.20565 0.41885 0.0
H420 H 0.02179 0.10435 0.45162 0.0
H421 H 0.0343 0.15126 0.41132 0.0
H422 H 0.23556 0.06449 0.52797 0.0
H423 H 0.24652 0.11627 0.49616 0.0
H424 H 0.19373 0.03735 0.57697 0.0
H425 H 0.13934 0.02142 0.57446 0.0
C426 C 0.40481 0.67592 0.06742 0.0
C427 C 0.37281 0.68984 0.02459 0.0
C428 C 0.40253 0.63573 0.98763 0.0
C429 C 0.42873 0.61659 0.03361 0.0
N430 N 0.44291 0.61346 0.12197 0.0
N431 N 0.33369 0.67301 0.94946 0.0
C432 C 0.42666 0.63518 0.07501 0.0
C433 C 0.3693 0.66674 0.98629 0.0
N434 N 0.41566 0.70182 0.10021 0.0
N435 N 0.41036 0.62622 0.94474 0.0
H436 H 0.30698 0.69317 0.94881 0.0
H437 H 0.32859 0.65416 0.92308 0.0
H438 H 0.43729 0.60737 0.943 0.0
H439 H 0.39357 0.64193 0.91025 0.0
H440 H 0.44152 0.69402 0.12979 0.0
H441 H 0.4025 0.73306 0.09462 0.0
H442 H 0.43855 0.62498 0.15287 0.0
H443 H 0.45559 0.58191 0.13073 0.0
C444 C 0.83145 0.90245 0.61021 0.0
C445 C 0.8478 0.86025 0.63484 0.0
C446 C 0.92341 0.88492 0.63162 0.0
C447 C 0.90698 0.92576 0.60228 0.0
N448 N 0.8471 0.97827 0.5842 0.0
N449 N 0.90912 0.81033 0.66867 0.0
C450 C 0.86144 0.93608 0.59745 0.0
C451 C 0.8938 0.85141 0.6461 0.0
N452 N 0.78707 0.91003 0.59718 0.0
N453 N 0.96734 0.87943 0.64905 0.0
H454 H 0.88864 0.78547 0.68162 0.0
H455 H 0.94172 0.80015 0.67237 0.0
H456 H 0.98964 0.90345 0.63958 0.0
H457 H 0.98121 0.85306 0.67617 0.0
H458 H 0.77305 0.93822 0.57333 0.0
H459 H 0.76407 0.88683 0.60754 0.0
H460 H 0.81499 0.98825 0.58395 0.0
H461 H 0.86853 0.00379 0.58028 0.0
C462 C 0.64859 0.37311 0.03358 0.0
C463 C 0.6413 0.33166 0.06246 0.0
C464 C 0.57733 0.36117 0.08676 0.0
C465 C 0.58236 0.40176 0.05476 0.0
N466 N 0.61794 0.44372 0.99006 0.0
N467 N 0.5919 0.28385 0.10544 0.0
C468 C 0.61616 0.4067 0.02531 0.0
C469 C 0.60364 0.325 0.08583 0.0
N470 N 0.6876 0.38132 0.01659 0.0
N471 N 0.54767 0.35697 0.11841 0.0
H472 H 0.60944 0.25634 0.10383 0.0
H473 H 0.5623 0.27685 0.11847 0.0
H474 H 0.52567 0.3817 0.11799 0.0
H475 H 0.54656 0.32975 0.14675 0.0
H476 H 0.69656 0.4122 0.99998 0.0
H477 H 0.71293 0.35817 0.02326 0.0
H478 H 0.63872 0.44699 0.96385 0.0
H479 H 0.59672 0.47024 0.985 0.0
C480 C 0.10173 0.84876 0.25049 0.0
C481 C 0.13306 0.87773 0.23061 0.0
C482 C 0.11428 0.93017 0.27726 0.0
C483 C 0.08478 0.90021 0.29905 0.0
N484 N 0.05615 0.82961 0.31504 0.0
N485 N 0.17555 0.94198 0.23201 0.0
C486 C 0.08045 0.85882 0.28802 0.0
C487 C 0.14131 0.91725 0.24619 0.0
N488 N 0.09068 0.81307 0.23167 0.0
N489 N 0.115 0.97153 0.28437 0.0
H490 H 0.19608 0.93339 0.20946 0.0
H491 H 0.18604 0.96886 0.246 0.0
H492 H 0.09549 0.98211 0.30664 0.0
H493 H 0.1322 0.99626 0.2652 0.0
H494 H 0.06429 0.79367 0.24011 0.0
H495 H 0.10557 0.80469 0.20423 0.0
H496 H 0.0531 0.79722 0.31288 0.0
H497 H 0.0531 0.79722 0.31288 0.0
C498 C 0.55499 0.56461 0.84047 0.0
C499 C 0.58143 0.60182 0.83701 0.0
C500 C 0.56318 0.60826 0.91761 0.0
C501 C 0.54935 0.5645 0.92622 0.0
N502 N 0.53438 0.50023 0.89382 0.0
N503 N 0.57827 0.67171 0.85684 0.0
C504 C 0.54579 0.54253 0.88702 0.0
C505 C 0.57728 0.62772 0.87164 0.0
N506 N 0.53278 0.55428 0.79873 0.0
N507 N 0.56111 0.63174 0.9524 0.0
H508 H 0.57693 0.68682 0.81974 0.0
H509 H 0.5732 0.69316 0.87869 0.0
H510 H 0.54547 0.62051 0.98273 0.0
H511 H 0.57562 0.66167 0.95174 0.0
H512 H 0.51124 0.52862 0.7994 0.0
H513 H 0.53178 0.57496 0.76408 0.0
H514 H 0.53473 0.48231 0.8669 0.0
H515 H 0.52892 0.48226 0.9277 0.0
C516 C 0.94267 0.06487 0.32255 0.0
C517 C 0.9023 0.04725 0.30542 0.0
C518 C 0.90054 0.00306 0.3884 0.0
C519 C 0.94132 0.02071 0.40547 0.0
N520 N 0.00766 0.05573 0.3847 0.0
N521 N 0.84742 0.99314 0.31806 0.0
C522 C 0.96428 0.04792 0.3713 0.0
C523 C 0.88274 0.01417 0.33715 0.0
N524 N 0.9599 0.09869 0.29274 0.0
N525 N 0.87775 0.97738 0.42104 0.0
H526 H 0.83315 0.00121 0.2809 0.0
H527 H 0.83451 0.96553 0.33788 0.0
H528 H 0.88954 0.96738 0.45859 0.0
H529 H 0.84551 0.96827 0.41161 0.0
H530 H 0.98639 0.1162 0.30548 0.0
H531 H 0.94575 0.11145 0.25617 0.0
H532 H 0.02737 0.07155 0.35991 0.0
H533 H 0.0251 0.04236 0.41955 0.0
C534 C 0.41176 0.40433 0.6966 0.0
C535 C 0.36885 0.41016 0.66838 0.0
C536 C 0.3492 0.46025 0.7171 0.0
C537 C 0.3931 0.4571 0.74262 0.0
N538 N 0.46804 0.4315 0.75237 0.0
N539 N 0.29892 0.44878 0.64567 0.0
C540 C 0.42496 0.4306 0.73118 0.0
C541 C 0.33813 0.43955 0.67695 0.0
N542 N 0.4394 0.37281 0.69132 0.0
N543 N 0.3178 0.482 0.73219 0.0
H544 H 0.28954 0.43418 0.61591 0.0
H545 H 0.27726 0.47346 0.6466 0.0
H546 H 0.3247 0.49793 0.76117 0.0
H547 H 0.28433 0.48136 0.71875 0.0
H548 H 0.46927 0.36372 0.71446 0.0
H549 H 0.43097 0.35322 0.66607 0.0
H550 H 0.49363 0.41667 0.74162 0.0
H551 H 0.47879 0.44998 0.77826 0.0
C552 C 0.69043 0.54832 0.43253 0.0
C553 C 0.67169 0.58936 0.4314 0.0
C554 C 0.64642 0.60001 0.34223 0.0
C555 C 0.66412 0.55845 0.34349 0.0
N556 N 0.69288 0.48882 0.39138 0.0
N557 N 0.62217 0.64885 0.38856 0.0
C558 C 0.68288 0.53122 0.38925 0.0
C559 C 0.64641 0.61336 0.38725 0.0
N560 N 0.71726 0.52665 0.47408 0.0
N561 N 0.63191 0.62777 0.29798 0.0
H562 H 0.62129 0.65921 0.42111 0.0
H563 H 0.59973 0.66531 0.35865 0.0
H564 H 0.63186 0.61967 0.26405 0.0
H565 H 0.62334 0.66013 0.29472 0.0
H566 H 0.73601 0.49917 0.47522 0.0
H567 H 0.72329 0.53782 0.50665 0.0
H568 H 0.70263 0.46623 0.42433 0.0
H569 H 0.68735 0.47523 0.36043 0.0
C570 C 0.88499 0.15451 0.83554 0.0
C571 C 0.85462 0.12439 0.85545 0.0
C572 C 0.87379 0.07373 0.80711 0.0
C573 C 0.90317 0.10443 0.78622 0.0
N574 N 0.92976 0.17724 0.77162 0.0
N575 N 0.81348 0.05948 0.85371 0.0
C576 C 0.90644 0.14592 0.79758 0.0
C577 C 0.84692 0.08524 0.83912 0.0
N578 N 0.89504 0.19025 0.85464 0.0
N579 N 0.87285 0.0331 0.79779 0.0
H580 H 0.79336 0.06703 0.87726 0.0
H581 H 0.80327 0.03268 0.83944 0.0
H582 H 0.89122 0.02397 0.77353 0.0
H583 H 0.85603 0.00763 0.81628 0.0
H584 H 0.92066 0.2106 0.84578 0.0
H585 H 0.88004 0.19791 0.88239 0.0
H586 H 0.92963 0.20947 0.77452 0.0
H587 H 0.94615 0.17191 0.74377 0.0
C588 C 0.44153 0.39267 0.23458 0.0
C589 C 0.40373 0.41271 0.24347 0.0
C590 C 0.40826 0.47282 0.17216 0.0
C591 C 0.44783 0.45391 0.16549 0.0
N592 N 0.50828 0.40308 0.19925 0.0
N593 N 0.35153 0.47249 0.22318 0.0
C594 C 0.46596 0.41555 0.19884 0.0
C595 C 0.38713 0.45301 0.21276 0.0
N596 N 0.45442 0.35183 0.26069 0.0
N597 N 0.39068 0.50939 0.13931 0.0
H598 H 0.33378 0.45748 0.25053 0.0
H599 H 0.34028 0.50391 0.20631 0.0
H600 H 0.40569 0.52513 0.10999 0.0
H601 H 0.36019 0.52316 0.13914 0.0
H602 H 0.4789 0.33374 0.25214 0.0
H603 H 0.43801 0.33447 0.28809 0.0
H604 H 0.52501 0.37769 0.22559 0.0
H605 H 0.52845 0.42154 0.1768 0.0
C606 C 0.07333 0.94417 0.76822 0.0
C607 C 0.1117 0.96571 0.78385 0.0
C608 C 0.1078 0.01055 0.70011 0.0
C609 C 0.06858 0.98952 0.68497 0.0
N610 N 0.0062 0.94933 0.70984 0.0
N611 N 0.16133 0.02446 0.76816 0.0
C612 C 0.04912 0.95996 0.72051 0.0
C613 C 0.12776 1.00047 0.75078 0.0
N614 N 0.0604 0.90795 0.79847 0.0
N615 N 0.12648 0.03943 0.6662 0.0
H616 H 0.17691 0.01747 0.80488 0.0
H617 H 0.17157 0.05309 0.74741 0.0
H618 H 0.11121 0.0505 0.6299 0.0
H619 H 0.15793 0.05125 0.67344 0.0
H620 H 0.03544 0.88837 0.78653 0.0
H621 H 0.07702 0.89526 0.83406 0.0
H622 H 0.98901 0.93103 0.73586 0.0
H623 H 0.98634 0.96346 0.67673 0.0
loop_
_geom_bond_atom_site_label_1
_geom_bond_atom_site_label_2
_geom_bond_distance
_geom_bond_site_symmetry_2
_ccdc_geom_bond_type
C0 C1 1.391 . S
C0 C4 1.391 . S
C0 H42 0.948 . S
C1 C0 1.391 . S
C1 C2 1.391 . S
C2 C1 1.391 . S
C2 H58 0.947 . S
C2 C59 1.392 . S
C3 C4 1.391 . S
C3 C7 1.397 . S
C3 C59 1.419 . S
C4 C0 1.391 . S
C4 C3 1.391 . S
C4 C5 1.399 . S
C5 C4 1.399 . S
C5 C8 1.396 . S
C5 C17 1.453 . S
C5 C18 1.684 . S
H6 C30 0.948 . S
C7 C3 1.397 . S
C7 C8 1.394 . S
C7 C26 1.723 1_556 S
C8 C5 1.396 . S
C8 C7 1.394 . S
C8 C38 1.723 1_556 S
H9 C32 0.947 . S
H10 C33 0.948 . S
H11 C39 0.982 . S
H12 C40 0.979 . S
H13 C40 0.980 . S
H14 C40 0.983 . S
H15 C39 0.979 . S
H16 C39 0.977 . S
C17 C5 1.453 . S
C17 H46 0.982 . S
C17 H47 0.979 . S
C17 H48 0.977 . S
C18 C5 1.684 . S
C18 H43 0.979 . S
C18 H44 0.980 . S
C18 H45 0.983 . S
C19 C20 1.391 . S
C19 C24 1.391 . S
C19 H49 0.948 . S
C20 C19 1.391 . S
C20 C21 1.391 . S
C21 C20 1.391 . S
C21 C22 1.392 . S
C21 H50 0.947 . S
C22 C21 1.392 . S
C22 C23 1.419 . S
C22 H51 0.948 . S
C23 C22 1.419 . S
C23 C24 1.391 . S
C23 C27 1.397 . S
C24 C19 1.391 . S
C24 C23 1.391 . S
C24 C25 1.399 . S
C25 C24 1.399 . S
C25 C26 1.396 . S
C25 C28 1.453 . S
C25 C29 1.684 . S
C26 C7 1.723 1_554 S
C26 C25 1.396 . S
C26 C27 1.394 . S
C27 C23 1.397 . S
C27 C26 1.394 . S
C27 C37 1.723 . S
C28 C25 1.453 . S
C28 H52 0.982 . S
C28 H53 0.979 . S
C28 H54 0.977 1_554 S
C29 C25 1.684 . S
C29 H55 0.979 . S
C29 H56 0.980 1_554 S
C29 H57 0.983 . S
C30 H6 0.948 . S
C30 C31 1.391 . S
C30 C35 1.391 . S
C31 C30 1.391 . S
C31 C32 1.391 1_554 S
C32 H9 0.947 . S
C32 C31 1.391 1_556 S
C32 C33 1.392 . S
C33 H10 0.948 . S
C33 C32 1.392 . S
C33 C34 1.419 1_556 S
C34 C33 1.419 1_554 S
C34 C35 1.391 . S
C34 C38 1.397 . S
C35 C30 1.391 . S
C35 C34 1.391 . S
C35 C36 1.399 . S
C36 C35 1.399 . S
C36 C37 1.396 . S
C36 C39 1.453 . S
C36 C40 1.684 . S
C37 C27 1.723 . S
C37 C36 1.396 . S
C37 C38 1.394 . S
C38 C8 1.723 1_554 S
C38 C34 1.397 . S
C38 C37 1.394 . S
C39 H11 0.982 . S
C39 H15 0.979 . S
C39 H16 0.977 . S
C39 C36 1.453 . S
C40 H12 0.979 . S
C40 H13 0.980 . S
C40 H14 0.983 . S
C40 C36 1.684 . S
H41 C59 0.948 . S
H42 C0 0.948 . S
H43 C18 0.979 . S
H44 C18 0.980 . S
H45 C18 0.983 . S
H46 C17 0.982 . S
H47 C17 0.979 . S
H48 C17 0.977 . S
H49 C19 0.948 . S
H50 C21 0.947 . S
H51 C22 0.948 . S
H52 C28 0.982 . S
H53 C28 0.979 . S
H54 C28 0.977 1_556 S
H55 C29 0.979 . S
H56 C29 0.980 1_556 S
H57 C29 0.983 . S
H58 C2 0.947 . S
C59 C2 1.392 . S
C59 C3 1.419 . S
C59 H41 0.948 . S
C60 C61 1.391 . S
C60 C64 1.391 . S
C60 H102 0.948 . S
C61 C60 1.391 . S
C61 C62 1.391 . S
C62 C61 1.391 . S
C62 H118 0.947 . S
C62 C119 1.392 . S
C63 C64 1.391 . S
C63 C67 1.397 . S
C63 C119 1.419 . S
C64 C60 1.391 . S
C64 C63 1.391 . S
C64 C65 1.399 . S
C65 C64 1.399 . S
C65 C68 1.396 . S
C65 C77 1.453 . S
C65 C78 1.684 . S
H66 C90 0.948 . S
C67 C63 1.397 . S
C67 C68 1.394 . S
C67 C86 1.723 . S
C68 C65 1.396 . S
C68 C67 1.394 . S
C68 C98 1.723 . S
H69 C92 0.947 . S
H70 C93 0.948 . S
H71 C99 0.982 . S
H72 C100 0.979 . S
H73 C100 0.980 . S
H74 C100 0.983 . S
H75 C99 0.979 . S
H76 C99 0.977 . S
C77 C65 1.453 . S
C77 H106 0.982 . S
C77 H107 0.979 . S
C77 H108 0.977 . S
C78 C65 1.684 . S
C78 H103 0.979 . S
C78 H104 0.980 . S
C78 H105 0.983 . S
C79 C80 1.391 . S
C79 C84 1.391 . S
C79 H109 0.948 . S
C80 C79 1.391 . S
C80 C81 1.391 . S
C81 C80 1.391 . S
C81 C82 1.392 . S
C81 H110 0.947 . S
C82 C81 1.392 . S
C82 C83 1.419 . S
C82 H111 0.948 . S
C83 C82 1.419 . S
C83 C84 1.391 . S
C83 C87 1.397 . S
C84 C79 1.391 . S
C84 C83 1.391 . S
C84 C85 1.399 . S
C85 C84 1.399 . S
C85 C86 1.396 . S
C85 C88 1.453 . S
C85 C89 1.684 . S
C86 C67 1.723 . S
C86 C85 1.396 . S
C86 C87 1.394 . S
C87 C83 1.397 . S
C87 C86 1.394 . S
C87 C97 1.723 . S
C88 C85 1.453 . S
C88 H112 0.982 . S
C88 H113 0.979 . S
C88 H114 0.977 . S
C89 C85 1.684 . S
C89 H115 0.979 . S
C89 H116 0.980 . S
C89 H117 0.983 . S
C90 H66 0.948 . S
C90 C91 1.391 . S
C90 C95 1.391 . S
C91 C90 1.391 . S
C91 C92 1.391 . S
C92 H69 0.947 . S
C92 C91 1.391 . S
C92 C93 1.392 . S
C93 H70 0.948 . S
C93 C92 1.392 . S
C93 C94 1.419 . S
C94 C93 1.419 . S
C94 C95 1.391 . S
C94 C98 1.397 . S
C95 C90 1.391 . S
C95 C94 1.391 . S
C95 C96 1.399 . S
C96 C95 1.399 . S
C96 C97 1.396 . S
C96 C99 1.453 . S
C96 C100 1.684 . S
C97 C87 1.723 . S
C97 C96 1.396 . S
C97 C98 1.394 . S
C98 C68 1.723 . S
C98 C94 1.397 . S
C98 C97 1.394 . S
C99 H71 0.982 . S
C99 H75 0.979 . S
C99 H76 0.977 . S
C99 C96 1.453 . S
C100 H72 0.979 . S
C100 H73 0.980 . S
C100 H74 0.983 . S
C100 C96 1.684 . S
H101 C119 0.948 . S
H102 C60 0.948 . S
H103 C78 0.979 . S
H104 C78 0.980 . S
H105 C78 0.983 . S
H106 C77 0.982 . S
H107 C77 0.979 . S
H108 C77 0.977 . S
H109 C79 0.948 . S
H110 C81 0.947 . S
H111 C82 0.948 . S
H112 C88 0.982 . S
H113 C88 0.979 . S
H114 C88 0.977 . S
H115 C89 0.979 . S
H116 C89 0.980 . S
H117 C89 0.983 . S
H118 C62 0.947 . S
C119 C62 1.392 . S
C119 C63 1.419 . S
C119 H101 0.948 . S
C120 C121 1.391 . S
C120 C124 1.391 . S
C120 H162 0.948 . S
C121 C120 1.391 . S
C121 C122 1.391 . S
C122 C121 1.391 . S
C122 H178 0.947 . S
C122 C179 1.392 . S
C123 C124 1.391 . S
C123 C127 1.397 . S
C123 C179 1.419 . S
C124 C120 1.391 . S
C124 C123 1.391 . S
C124 C125 1.399 . S
C125 C124 1.399 . S
C125 C128 1.396 . S
C125 C137 1.453 . S
C125 C138 1.684 . S
H126 C150 0.948 1_556 S
C127 C123 1.397 . S
C127 C128 1.394 . S
C127 C146 1.723 . S
C128 C125 1.396 . S
C128 C127 1.394 . S
C128 C158 1.723 . S
H129 C152 0.947 . S
H130 C153 0.948 . S
H131 C159 0.982 . S
H132 C160 0.979 . S
H133 C160 0.980 . S
H134 C160 0.983 . S
H135 C159 0.979 . S
H136 C159 0.977 . S
C137 C125 1.453 . S
C137 H166 0.982 . S
C137 H167 0.979 . S
C137 H168 0.977 . S
C138 C125 1.684 . S
C138 H163 0.979 . S
C138 H164 0.980 . S
C138 H165 0.983 . S
C139 C140 1.391 . S
C139 C144 1.391 . S
C139 H169 0.948 . S
C140 C139 1.391 . S
C140 C141 1.391 . S
C141 C140 1.391 . S
C141 C142 1.392 . S
C141 H170 0.947 . S
C142 C141 1.392 . S
C142 C143 1.419 . S
C142 H171 0.948 . S
C143 C142 1.419 . S
C143 C144 1.391 . S
C143 C147 1.397 1_556 S
C144 C139 1.391 . S
C144 C143 1.391 . S
C144 C145 1.399 1_556 S
C145 C144 1.399 1_554 S
C145 C146 1.396 . S
C145 C148 1.453 . S
C145 C149 1.684 . S
C146 C127 1.723 . S
C146 C145 1.396 . S
C146 C147 1.394 . S
C147 C143 1.397 1_554 S
C147 C146 1.394 . S
C147 C157 1.723 . S
C148 C145 1.453 . S
C148 H172 0.982 . S
C148 H173 0.979 . S
C148 H174 0.977 . S
C149 C145 1.684 . S
C149 H175 0.979 . S
C149 H176 0.980 . S
C149 H177 0.983 . S
C150 H126 0.948 1_554 S
C150 C151 1.391 . S
C150 C155 1.391 . S
C151 C150 1.391 . S
C151 C152 1.391 . S
C152 H129 0.947 . S
C152 C151 1.391 . S
C152 C153 1.392 . S
C153 H130 0.948 . S
C153 C152 1.392 . S
C153 C154 1.419 . S
C154 C153 1.419 . S
C154 C155 1.391 . S
C154 C158 1.397 . S
C155 C150 1.391 . S
C155 C154 1.391 . S
C155 C156 1.399 1_554 S
C156 C155 1.399 1_556 S
C156 C157 1.396 1_556 S
C156 C159 1.453 . S
C156 C160 1.684 . S
C157 C147 1.723 . S
C157 C156 1.396 1_554 S
C157 C158 1.394 . S
C158 C128 1.723 . S
C158 C154 1.397 . S
C158 C157 1.394 . S
C159 H131 0.982 . S
C159 H135 0.979 . S
C159 H136 0.977 . S
C159 C156 1.453 . S
C160 H132 0.979 . S
C160 H133 0.980 . S
C160 H134 0.983 . S
C160 C156 1.684 . S
H161 C179 0.948 . S
H162 C120 0.948 . S
H163 C138 0.979 . S
H164 C138 0.980 . S
H165 C138 0.983 . S
H166 C137 0.982 . S
H167 C137 0.979 . S
H168 C137 0.977 . S
H169 C139 0.948 . S
H170 C141 0.947 . S
H171 C142 0.948 . S
H172 C148 0.982 . S
H173 C148 0.979 . S
H174 C148 0.977 . S
H175 C149 0.979 . S
H176 C149 0.980 . S
H177 C149 0.983 . S
H178 C122 0.947 . S
C179 C122 1.392 . S
C179 C123 1.419 . S
C179 H161 0.948 . S
C180 C181 1.391 . S
C180 C184 1.391 . S
C180 H222 0.948 . S
C181 C180 1.391 . S
C181 C182 1.391 . S
C182 C181 1.391 . S
C182 H238 0.947 . S
C182 C239 1.392 . S
C183 C184 1.391 . S
C183 C187 1.397 . S
C183 C239 1.419 . S
C184 C180 1.391 . S
C184 C183 1.391 . S
C184 C185 1.399 . S
C185 C184 1.399 . S
C185 C188 1.396 . S
C185 C197 1.453 . S
C185 C198 1.684 . S
H186 C210 0.948 . S
C187 C183 1.397 . S
C187 C188 1.394 . S
C187 C206 1.723 . S
C188 C185 1.396 . S
C188 C187 1.394 . S
C188 C218 1.723 . S
H189 C212 0.947 . S
H190 C213 0.948 . S
H191 C219 0.982 . S
H192 C220 0.979 . S
H193 C220 0.980 . S
H194 C220 0.983 . S
H195 C219 0.979 . S
H196 C219 0.977 . S
C197 C185 1.453 . S
C197 H226 0.982 . S
C197 H227 0.979 . S
C197 H228 0.977 . S
C198 C185 1.684 . S
C198 H223 0.979 . S
C198 H224 0.980 . S
C198 H225 0.983 . S
C199 C200 1.391 . S
C199 C204 1.391 . S
C199 H229 0.948 . S
C200 C199 1.391 . S
C200 C201 1.391 . S
C201 C200 1.391 . S
C201 C202 1.392 . S
C201 H230 0.947 . S
C202 C201 1.392 . S
C202 C203 1.419 . S
C202 H231 0.948 . S
C203 C202 1.419 . S
C203 C204 1.391 . S
C203 C207 1.397 . S
C204 C199 1.391 . S
C204 C203 1.391 . S
C204 C205 1.399 . S
C205 C204 1.399 . S
C205 C206 1.396 . S
C205 C208 1.453 . S
C205 C209 1.684 . S
C206 C187 1.723 . S
C206 C205 1.396 . S
C206 C207 1.394 . S
C207 C203 1.397 . S
C207 C206 1.394 . S
C207 C217 1.723 . S
C208 C205 1.453 . S
C208 H232 0.982 . S
C208 H233 0.979 . S
C208 H234 0.977 . S
C209 C205 1.684 . S
C209 H235 0.979 . S
C209 H236 0.980 . S
C209 H237 0.983 . S
C210 H186 0.948 . S
C210 C211 1.391 . S
C210 C215 1.391 . S
C211 C210 1.391 . S
C211 C212 1.391 . S
C212 H189 0.947 . S
C212 C211 1.391 . S
C212 C213 1.392 . S
C213 H190 0.948 . S
C213 C212 1.392 . S
C213 C214 1.419 . S
C214 C213 1.419 . S
C214 C215 1.391 . S
C214 C218 1.397 . S
C215 C210 1.391 . S
C215 C214 1.391 . S
C215 C216 1.399 . S
C216 C215 1.399 . S
C216 C217 1.396 . S
C216 C219 1.453 . S
C216 C220 1.684 . S
C217 C207 1.723 . S
C217 C216 1.396 . S
C217 C218 1.394 . S
C218 C188 1.723 . S
C218 C214 1.397 . S
C218 C217 1.394 . S
C219 H191 0.982 . S
C219 H195 0.979 . S
C219 H196 0.977 . S
C219 C216 1.453 . S
C220 H192 0.979 . S
C220 H193 0.980 . S
C220 H194 0.983 . S
C220 C216 1.684 . S
H221 C239 0.948 . S
H222 C180 0.948 . S
H223 C198 0.979 . S
H224 C198 0.980 . S
H225 C198 0.983 . S
H226 C197 0.982 . S
H227 C197 0.979 . S
H228 C197 0.977 . S
H229 C199 0.948 . S
H230 C201 0.947 . S
H231 C202 0.948 . S
H232 C208 0.982 . S
H233 C208 0.979 . S
H234 C208 0.977 . S
H235 C209 0.979 . S
H236 C209 0.980 . S
H237 C209 0.983 . S
H238 C182 0.947 . S
C239 C182 1.392 . S
C239 C183 1.419 . S
C239 H221 0.948 . S
Eu240 N269 2.600 . S
Eu240 N275 2.562 . S
Eu240 O284 2.462 . S
Eu240 O285 2.373 . S
Eu240 O287 2.432 . S
Eu240 O288 2.291 1_565 S
Eu240 O292 2.336 1_455 S
Eu240 O295 2.372 1_455 S
Eu240 C304 2.787 . S
C241 N242 1.365 . S
C241 C244 1.405 . S
C241 C248 1.448 . S
N242 C241 1.365 . S
N242 C245 1.319 . S
N242 Eu251 2.600 . S
C243 C245 1.397 . S
C243 C246 1.367 . S
C243 H263 0.931 1_655 S
C244 C241 1.405 . S
C244 C246 1.403 . S
C244 C250 1.439 . S
C245 N242 1.319 . S
C245 C243 1.397 . S
C245 H256 0.930 1_655 S
C246 C243 1.367 . S
C246 C244 1.403 . S
C246 H267 0.929 . S
C247 C248 1.430 . S
C247 C249 1.387 . S
C247 C253 1.404 . S
C248 C241 1.448 . S
C248 C247 1.430 . S
C248 N252 1.351 . S
C249 C247 1.387 . S
C249 C250 1.374 . S
C249 H264 0.931 . S
C250 C244 1.439 . S
C250 C249 1.374 . S
C250 H265 0.931 . S
Eu251 N242 2.600 . S
Eu251 N252 2.562 . S
Eu251 O286 2.335 1_655 S
Eu251 O289 2.372 1_655 S
Eu251 O290 2.462 . S
Eu251 O291 2.373 . S
Eu251 O293 2.432 . S
Eu251 O294 2.291 1_545 S
Eu251 C315 2.787 . S
N252 C248 1.351 . S
N252 Eu251 2.562 . S
N252 C254 1.325 . S
C253 C247 1.404 . S
C253 C255 1.366 . S
C253 H261 0.930 . S
C254 N252 1.325 . S
C254 C255 1.416 . S
C254 H260 0.929 . S
C255 C253 1.366 . S
C255 C254 1.416 . S
C255 H257 0.930 . S
H256 C245 0.930 1_455 S
H257 C255 0.930 . S
H258 C273 0.930 1_655 S
H259 C280 0.930 . S
H260 C254 0.929 . S
H261 C253 0.930 . S
H262 C276 0.929 . S
H263 C243 0.931 1_455 S
H264 C249 0.931 . S
H265 C250 0.931 . S
H266 C271 0.931 1_655 S
H267 C246 0.929 . S
H268 C279 0.930 . S
N269 Eu240 2.600 . S
N269 C270 1.365 . S
N269 C273 1.319 . S
C270 N269 1.365 . S
C270 C272 1.405 . S
C270 C278 1.448 . S
C271 H266 0.931 1_455 S
C271 C273 1.397 . S
C271 C274 1.367 . S
C272 C270 1.405 . S
C272 C274 1.403 . S
C272 C305 1.439 . S
C273 H258 0.930 1_455 S
C273 N269 1.319 . S
C273 C271 1.397 . S
C274 C271 1.367 . S
C274 C272 1.403 . S
C274 H281 0.929 . S
N275 Eu240 2.562 . S
N275 C276 1.325 . S
N275 C278 1.351 . S
C276 H262 0.929 . S
C276 N275 1.325 . S
C276 C280 1.416 . S
C277 C278 1.430 . S
C277 C279 1.404 . S
C277 C306 1.387 . S
C278 C270 1.448 . S
C278 N275 1.351 . S
C278 C277 1.430 . S
C279 H268 0.930 . S
C279 C277 1.404 . S
C279 C280 1.366 . S
C280 H259 0.930 . S
C280 C276 1.416 . S
C280 C279 1.366 . S
H281 C274 0.929 . S
H282 C305 0.931 . S
H283 C306 0.931 . S
O284 Eu240 2.462 . S
O284 C304 1.252 . S
O285 Eu240 2.373 . S
O285 C296 1.249 . S
O286 Eu251 2.335 1_455 S
O286 C296 1.264 1_545 S
O287 Eu240 2.432 . S
O287 C304 1.268 . S
O288 Eu240 2.291 1_545 S
O288 C303 1.255 . S
O289 Eu251 2.372 1_455 S
O289 C303 1.257 . S
O290 Eu251 2.462 . S
O290 C315 1.252 . S
O291 Eu251 2.373 . S
O291 C307 1.249 . S
O292 Eu240 2.336 1_655 S
O292 C307 1.262 1_565 S
O293 Eu251 2.432 . S
O293 C315 1.268 . S
O294 Eu251 2.291 1_565 S
O294 C314 1.255 . S
O295 Eu240 2.372 1_655 S
O295 C314 1.257 . S
C296 O285 1.249 . S
C296 O286 1.264 1_565 S
C297 C300 1.382 . S
C297 C302 1.390 . S
C297 C304 1.506 . S
C298 C299 1.398 . S
C298 C302 1.392 . S
C299 C298 1.398 . S
C299 C301 1.372 . S
C299 H316 0.931 . S
C300 C297 1.382 . S
C300 C301 1.390 . S
C300 H317 0.931 . S
C301 C299 1.372 . S
C301 C300 1.390 . S
C301 H318 0.929 . S
C302 C297 1.390 . S
C302 C298 1.392 . S
C302 H319 0.930 . S
C303 O288 1.255 . S
C303 O289 1.257 . S
C304 Eu240 2.787 . S
C304 O284 1.252 . S
C304 O287 1.268 . S
C304 C297 1.506 . S
C305 C272 1.439 . S
C305 H282 0.931 . S
C305 C306 1.374 . S
C306 C277 1.387 . S
C306 H283 0.931 . S
C306 C305 1.374 . S
C307 O291 1.249 . S
C307 O292 1.262 1_545 S
C308 C311 1.382 . S
C308 C312 1.390 . S
C308 C315 1.506 . S
C309 C310 1.398 . S
C309 C312 1.392 . S
C310 C309 1.398 . S
C310 C313 1.372 . S
C310 H320 0.931 . S
C311 C308 1.382 . S
C311 C313 1.390 . S
C311 H321 0.931 . S
C312 C308 1.390 . S
C312 C309 1.392 . S
C312 H322 0.930 . S
C313 C310 1.372 . S
C313 C311 1.390 . S
C313 H323 0.929 . S
C314 O294 1.255 . S
C314 O295 1.257 . S
C315 Eu251 2.787 . S
C315 O290 1.252 . S
C315 O293 1.268 . S
C315 C308 1.506 . S
H316 C299 0.931 . S
H317 C300 0.931 . S
H318 C301 0.929 . S
H319 C302 0.930 . S
H320 C310 0.931 . S
H321 C311 0.931 . S
H322 C312 0.930 . S
H323 C313 0.929 . S
Eu324 N353 2.600 . S
Eu324 N359 2.562 1_556 S
Eu324 O368 2.462 . S
Eu324 O369 2.373 1_556 S
Eu324 O371 2.432 . S
Eu324 O372 2.291 1_556 S
Eu324 O376 2.335 . S
Eu324 O379 2.372 1_556 S
Eu324 C388 2.787 . S
C325 N326 1.365 . S
C325 C328 1.405 . S
C325 C332 1.448 . S
N326 C325 1.365 . S
N326 C329 1.319 . S
N326 Eu335 2.600 . S
C327 C329 1.397 . S
C327 C330 1.367 . S
C327 H347 0.931 . S
C328 C325 1.405 . S
C328 C330 1.403 . S
C328 C334 1.439 . S
C329 N326 1.319 . S
C329 C327 1.397 . S
C329 H340 0.930 . S
C330 C327 1.367 . S
C330 C328 1.403 . S
C330 H351 0.929 . S
C331 C332 1.430 . S
C331 C333 1.387 . S
C331 C337 1.404 . S
C332 C325 1.448 . S
C332 C331 1.430 . S
C332 N336 1.351 . S
C333 C331 1.387 . S
C333 C334 1.374 . S
C333 H348 0.931 . S
C334 C328 1.439 . S
C334 C333 1.374 . S
C334 H349 0.931 . S
Eu335 N326 2.600 . S
Eu335 N336 2.562 . S
Eu335 O370 2.335 . S
Eu335 O373 2.372 . S
Eu335 O374 2.462 . S
Eu335 O375 2.373 . S
Eu335 O377 2.432 . S
Eu335 O378 2.291 . S
Eu335 C399 2.787 . S
N336 C332 1.351 . S
N336 Eu335 2.562 . S
N336 C338 1.325 . S
C337 C331 1.404 . S
C337 C339 1.366 . S
C337 H345 0.930 . S
C338 N336 1.325 . S
C338 C339 1.416 . S
C338 H344 0.929 . S
C339 C337 1.366 . S
C339 C338 1.416 . S
C339 H341 0.930 . S
H340 C329 0.930 . S
H341 C339 0.930 . S
H342 C357 0.930 . S
H343 C364 0.930 . S
H344 C338 0.929 . S
H345 C337 0.930 . S
H346 C360 0.929 . S
H347 C327 0.931 . S
H348 C333 0.931 . S
H349 C334 0.931 . S
H350 C355 0.931 . S
H351 C330 0.929 . S
H352 C363 0.930 . S
N353 Eu324 2.600 . S
N353 C354 1.365 1_556 S
N353 C357 1.319 . S
C354 N353 1.365 1_554 S
C354 C356 1.405 . S
C354 C362 1.448 . S
C355 H350 0.931 . S
C355 C357 1.397 . S
C355 C358 1.367 1_556 S
C356 C354 1.405 . S
C356 C358 1.403 . S
C356 C389 1.439 . S
C357 H342 0.930 . S
C357 N353 1.319 . S
C357 C355 1.397 . S
C358 C355 1.367 1_554 S
C358 C356 1.403 . S
C358 H365 0.929 . S
N359 Eu324 2.562 1_554 S
N359 C360 1.325 . S
N359 C362 1.351 . S
C360 H346 0.929 . S
C360 N359 1.325 . S
C360 C364 1.416 . S
C361 C362 1.430 . S
C361 C363 1.404 . S
C361 C390 1.387 . S
C362 C354 1.448 . S
C362 N359 1.351 . S
C362 C361 1.430 . S
C363 H352 0.930 . S
C363 C361 1.404 . S
C363 C364 1.366 . S
C364 H343 0.930 . S
C364 C360 1.416 . S
C364 C363 1.366 . S
H365 C358 0.929 . S
H366 C389 0.931 . S
H367 C390 0.931 . S
O368 Eu324 2.462 . S
O368 C388 1.252 . S
O369 Eu324 2.373 1_554 S
O369 C380 1.249 . S
O370 Eu335 2.335 . S
O370 C380 1.264 . S
O371 Eu324 2.432 . S
O371 C388 1.268 . S
O372 Eu324 2.291 1_554 S
O372 C387 1.255 . S
O373 Eu335 2.372 . S
O373 C387 1.257 . S
O374 Eu335 2.462 . S
O374 C399 1.252 . S
O375 Eu335 2.373 . S
O375 C391 1.249 1_554 S
O376 Eu324 2.335 . S
O376 C391 1.264 . S
O377 Eu335 2.432 . S
O377 C399 1.268 . S
O378 Eu335 2.291 . S
O378 C398 1.255 . S
O379 Eu324 2.372 1_554 S
O379 C398 1.257 . S
C380 O369 1.249 . S
C380 O370 1.264 . S
C381 C384 1.382 . S
C381 C386 1.390 . S
C381 C388 1.506 . S
C382 C383 1.398 . S
C382 C386 1.392 . S
C383 C382 1.398 . S
C383 C385 1.372 . S
C383 H400 0.931 . S
C384 C381 1.382 . S
C384 C385 1.390 . S
C384 H401 0.931 . S
C385 C383 1.372 . S
C385 C384 1.390 . S
C385 H402 0.929 . S
C386 C381 1.390 . S
C386 C382 1.392 . S
C386 H403 0.930 . S
C387 O372 1.255 . S
C387 O373 1.257 . S
C388 Eu324 2.787 . S
C388 O368 1.252 . S
C388 O371 1.268 . S
C388 C381 1.506 . S
C389 C356 1.439 . S
C389 H366 0.931 . S
C389 C390 1.374 . S
C390 C361 1.387 . S
C390 H367 0.931 . S
C390 C389 1.374 . S
C391 O375 1.249 1_556 S
C391 O376 1.264 . S
C392 C395 1.382 . S
C392 C396 1.390 . S
C392 C399 1.506 . S
C393 C394 1.398 . S
C393 C396 1.392 . S
C394 C393 1.398 . S
C394 C397 1.372 . S
C394 H404 0.931 . S
C395 C392 1.382 . S
C395 C397 1.390 . S
C395 H405 0.931 . S
C396 C392 1.390 . S
C396 C393 1.392 . S
C396 H406 0.930 . S
C397 C394 1.372 . S
C397 C395 1.390 . S
C397 H407 0.929 . S
C398 O378 1.255 . S
C398 O379 1.257 . S
C399 Eu335 2.787 . S
C399 O374 1.252 . S
C399 O377 1.268 . S
C399 C392 1.506 . S
H400 C383 0.931 . S
H401 C384 0.931 . S
H402 C385 0.929 . S
H403 C386 0.930 . S
H404 C394 0.931 . S
H405 C395 0.931 . S
H406 C396 0.930 . S
H407 C397 0.929 . S
C408 C409 1.363 . S
C408 C414 1.379 . S
C408 N416 1.356 . S
C409 C408 1.363 . S
C409 C415 1.363 . S
C410 C411 1.363 . S
C410 C415 1.379 . S
C410 N417 1.356 . S
C411 C410 1.363 . S
C411 C414 1.363 . S
N412 C414 1.356 . S
N412 H424 0.984 . S
N412 H425 0.985 . S
N413 C415 1.356 . S
N413 H418 0.984 . S
N413 H419 0.985 . S
C414 C408 1.379 . S
C414 C411 1.363 . S
C414 N412 1.356 . S
C415 C409 1.363 . S
C415 C410 1.379 . S
C415 N413 1.356 . S
N416 C408 1.356 . S
N416 H422 0.984 . S
N416 H423 0.984 . S
N417 C410 1.356 . S
N417 H420 0.984 . S
N417 H421 0.985 . S
H418 N413 0.984 . S
H419 N413 0.985 . S
H420 N417 0.984 . S
H421 N417 0.985 . S
H422 N416 0.984 . S
H423 N416 0.984 . S
H424 N412 0.984 . S
H425 N412 0.985 . S
C426 C427 1.363 . S
C426 C432 1.379 . S
C426 N434 1.356 . S
C427 C426 1.363 . S
C427 C433 1.363 . S
C428 C429 1.363 . S
C428 C433 1.379 . S
C428 N435 1.356 1_554 S
C429 C428 1.363 . S
C429 C432 1.363 . S
N430 C432 1.356 . S
N430 H442 0.984 . S
N430 H443 0.985 . S
N431 C433 1.356 1_556 S
N431 H436 0.984 . S
N431 H437 0.985 . S
C432 C426 1.379 . S
C432 C429 1.363 . S
C432 N430 1.356 . S
C433 C427 1.363 . S
C433 C428 1.379 . S
C433 N431 1.356 1_554 S
N434 C426 1.356 . S
N434 H440 0.984 . S
N434 H441 0.984 . S
N435 C428 1.356 1_556 S
N435 H438 0.984 . S
N435 H439 0.985 . S
H436 N431 0.984 . S
H437 N431 0.985 . S
H438 N435 0.984 . S
H439 N435 0.985 . S
H440 N434 0.984 . S
H441 N434 0.984 . S
H442 N430 0.984 . S
H443 N430 0.985 . S
C444 C445 1.363 . S
C444 C450 1.379 . S
C444 N452 1.356 . S
C445 C444 1.363 . S
C445 C451 1.363 . S
C446 C447 1.363 . S
C446 C451 1.379 . S
C446 N453 1.356 . S
C447 C446 1.363 . S
C447 C450 1.363 . S
N448 C450 1.356 . S
N448 H460 0.984 1_565 S
N448 H461 0.985 . S
N449 C451 1.356 . S
N449 H454 0.984 . S
N449 H455 0.985 . S
C450 C444 1.379 . S
C450 C447 1.363 . S
C450 N448 1.356 . S
C451 C445 1.363 . S
C451 C446 1.379 . S
C451 N449 1.356 . S
N452 C444 1.356 . S
N452 H458 0.984 . S
N452 H459 0.984 . S
N453 C446 1.356 . S
N453 H456 0.984 . S
N453 H457 0.985 . S
H454 N449 0.984 . S
H455 N449 0.985 . S
H456 N453 0.984 . S
H457 N453 0.985 . S
H458 N452 0.984 . S
H459 N452 0.984 . S
H460 N448 0.984 1_545 S
H461 N448 0.985 . S
C462 C463 1.363 . S
C462 C468 1.379 . S
C462 N470 1.356 1_554 S
C463 C462 1.363 . S
C463 C469 1.363 . S
C464 C465 1.363 . S
C464 C469 1.379 . S
C464 N471 1.356 . S
C465 C464 1.363 . S
C465 C468 1.363 . S
N466 C468 1.356 . S
N466 H478 0.984 1_554 S
N466 H479 0.985 . S
N467 C469 1.356 . S
N467 H472 0.984 . S
N467 H473 0.985 . S
C468 C462 1.379 . S
C468 C465 1.363 . S
C468 N466 1.356 . S
C469 C463 1.363 . S
C469 C464 1.379 . S
C469 N467 1.356 . S
N470 C462 1.356 1_556 S
N470 H476 0.984 . S
N470 H477 0.987 1_556 S
N471 C464 1.356 . S
N471 H474 0.984 . S
N471 H475 0.985 . S
H472 N467 0.984 . S
H473 N467 0.985 . S
H474 N471 0.984 . S
H475 N471 0.985 . S
H476 N470 0.984 . S
H477 N470 0.987 1_554 S
H478 N466 0.984 1_556 S
H479 N466 0.985 . S
C480 C481 1.363 . S
C480 C486 1.379 . S
C480 N488 1.356 . S
C481 C480 1.363 . S
C481 C487 1.363 . S
C482 C483 1.363 . S
C482 C487 1.379 . S
C482 N489 1.356 1_565 S
C483 C482 1.363 . S
C483 C486 1.363 . S
N484 C486 1.356 . S
N484 H496 0.984 . S
N484 H497 0.985 . S
N485 C487 1.356 . S
N485 H490 0.984 . S
N485 H491 0.985 1_565 S
C486 C480 1.379 . S
C486 C483 1.363 . S
C486 N484 1.356 . S
C487 C481 1.363 . S
C487 C482 1.379 . S
C487 N485 1.356 . S
N488 C480 1.356 . S
N488 H494 0.984 . S
N488 H495 0.984 . S
N489 C482 1.356 1_545 S
N489 H492 0.984 . S
N489 H493 0.985 . S
H490 N485 0.984 . S
H491 N485 0.985 1_545 S
H492 N489 0.984 . S
H493 N489 0.985 . S
H494 N488 0.984 . S
H495 N488 0.984 . S
H496 N484 0.984 . S
H497 N484 0.985 . S
C498 C499 1.363 . S
C498 C504 1.379 . S
C498 N506 1.356 . S
C499 C498 1.363 . S
C499 C505 1.363 . S
C500 C501 1.363 . S
C500 C505 1.379 . S
C500 N507 1.356 . S
C501 C500 1.363 . S
C501 C504 1.363 . S
N502 C504 1.356 . S
N502 H514 0.984 . S
N502 H515 0.985 . S
N503 C505 1.356 . S
N503 H508 0.984 . S
N503 H509 0.985 . S
C504 C498 1.379 . S
C504 C501 1.363 . S
C504 N502 1.356 . S
C505 C499 1.363 . S
C505 C500 1.379 . S
C505 N503 1.356 . S
N506 C498 1.356 . S
N506 H512 0.984 . S
N506 H513 0.984 . S
N507 C500 1.356 . S
N507 H510 0.984 . S
N507 H511 0.985 . S
H508 N503 0.984 . S
H509 N503 0.985 . S
H510 N507 0.984 . S
H511 N507 0.985 . S
H512 N506 0.984 . S
H513 N506 0.984 . S
H514 N502 0.984 . S
H515 N502 0.985 . S
C516 C517 1.363 . S
C516 C522 1.379 . S
C516 N524 1.356 . S
C517 C516 1.363 . S
C517 C523 1.363 . S
C518 C519 1.363 . S
C518 C523 1.379 . S
C518 N525 1.356 1_545 S
C519 C518 1.363 . S
C519 C522 1.363 . S
N520 C522 1.356 . S
N520 H532 0.984 . S
N520 H533 0.985 . S
N521 C523 1.356 1_565 S
N521 H526 0.984 . S
N521 H527 0.985 . S
C522 C516 1.379 . S
C522 C519 1.363 . S
C522 N520 1.356 . S
C523 C517 1.363 . S
C523 C518 1.379 . S
C523 N521 1.356 1_545 S
N524 C516 1.356 . S
N524 H530 0.984 . S
N524 H531 0.984 . S
N525 C518 1.356 1_565 S
N525 H528 0.984 . S
N525 H529 0.985 . S
H526 N521 0.984 . S
H527 N521 0.985 . S
H528 N525 0.984 . S
H529 N525 0.985 . S
H530 N524 0.984 . S
H531 N524 0.984 . S
H532 N520 0.984 . S
H533 N520 0.985 . S
C534 C535 1.363 . S
C534 C540 1.379 . S
C534 N542 1.356 . S
C535 C534 1.363 . S
C535 C541 1.363 . S
C536 C537 1.363 . S
C536 C541 1.379 . S
C536 N543 1.356 . S
C537 C536 1.363 . S
C537 C540 1.363 . S
N538 C540 1.356 . S
N538 H550 0.984 . S
N538 H551 0.985 . S
N539 C541 1.356 . S
N539 H544 0.984 . S
N539 H545 0.985 . S
C540 C534 1.379 . S
C540 C537 1.363 . S
C540 N538 1.356 . S
C541 C535 1.363 . S
C541 C536 1.379 . S
C541 N539 1.356 . S
N542 C534 1.356 . S
N542 H548 0.984 . S
N542 H549 0.984 . S
N543 C536 1.356 . S
N543 H546 0.984 . S
N543 H547 0.985 . S
H544 N539 0.984 . S
H545 N539 0.985 . S
H546 N543 0.984 . S
H547 N543 0.985 . S
H548 N542 0.984 . S
H549 N542 0.984 . S
H550 N538 0.984 . S
H551 N538 0.985 . S
C552 C553 1.363 . S
C552 C558 1.379 . S
C552 N560 1.356 . S
C553 C552 1.363 . S
C553 C559 1.363 . S
C554 C555 1.363 . S
C554 C559 1.379 . S
C554 N561 1.356 . S
C555 C554 1.363 . S
C555 C558 1.363 . S
N556 C558 1.356 . S
N556 H568 0.984 . S
N556 H569 0.985 . S
N557 C559 1.356 . S
N557 H562 0.984 . S
N557 H563 0.985 . S
C558 C552 1.379 . S
C558 C555 1.363 . S
C558 N556 1.356 . S
C559 C553 1.363 . S
C559 C554 1.379 . S
C559 N557 1.356 . S
N560 C552 1.356 . S
N560 H566 0.984 . S
N560 H567 0.984 . S
N561 C554 1.356 . S
N561 H564 0.984 . S
N561 H565 0.985 . S
H562 N557 0.984 . S
H563 N557 0.985 . S
H564 N561 0.984 . S
H565 N561 0.985 . S
H566 N560 0.984 . S
H567 N560 0.984 . S
H568 N556 0.984 . S
H569 N556 0.985 . S
C570 C571 1.363 . S
C570 C576 1.379 . S
C570 N578 1.356 . S
C571 C570 1.363 . S
C571 C577 1.363 . S
C572 C573 1.363 . S
C572 C577 1.379 . S
C572 N579 1.356 . S
C573 C572 1.363 . S
C573 C576 1.363 . S
N574 C576 1.356 . S
N574 H586 0.984 . S
N574 H587 0.985 . S
N575 C577 1.356 . S
N575 H580 0.984 . S
N575 H581 0.985 1_545 S
C576 C570 1.379 . S
C576 C573 1.363 . S
C576 N574 1.356 . S
C577 C571 1.363 . S
C577 C572 1.379 . S
C577 N575 1.356 . S
N578 C570 1.356 . S
N578 H584 0.984 . S
N578 H585 0.984 . S
N579 C572 1.356 . S
N579 H582 0.984 . S
N579 H583 0.985 1_545 S
H580 N575 0.984 . S
H581 N575 0.985 1_565 S
H582 N579 0.984 . S
H583 N579 0.985 1_565 S
H584 N578 0.984 . S
H585 N578 0.984 . S
H586 N574 0.984 . S
H587 N574 0.985 . S
C588 C589 1.363 . S
C588 C594 1.379 . S
C588 N596 1.356 . S
C589 C588 1.363 . S
C589 C595 1.363 . S
C590 C591 1.363 . S
C590 C595 1.379 . S
C590 N597 1.356 . S
C591 C590 1.363 . S
C591 C594 1.363 . S
N592 C594 1.356 . S
N592 H604 0.984 . S
N592 H605 0.985 . S
N593 C595 1.356 . S
N593 H598 0.984 . S
N593 H599 0.985 . S
C594 C588 1.379 . S
C594 C591 1.363 . S
C594 N592 1.356 . S
C595 C589 1.363 . S
C595 C590 1.379 . S
C595 N593 1.356 . S
N596 C588 1.356 . S
N596 H602 0.984 . S
N596 H603 0.984 . S
N597 C590 1.356 . S
N597 H600 0.984 . S
N597 H601 0.985 . S
H598 N593 0.984 . S
H599 N593 0.985 . S
H600 N597 0.984 . S
H601 N597 0.985 . S
H602 N596 0.984 . S
H603 N596 0.984 . S
H604 N592 0.984 . S
H605 N592 0.985 . S
C606 C607 1.363 . S
C606 C612 1.379 . S
C606 N614 1.356 . S
C607 C606 1.363 . S
C607 C613 1.363 . S
C608 C609 1.363 . S
C608 C613 1.379 . S
C608 N615 1.356 1_565 S
C609 C608 1.363 . S
C609 C612 1.363 . S
N610 C612 1.356 . S
N610 H622 0.984 . S
N610 H623 0.985 . S
N611 C613 1.356 1_545 S
N611 H616 0.984 . S
N611 H617 0.985 . S
C612 C606 1.379 . S
C612 C609 1.363 . S
C612 N610 1.356 . S
C613 C607 1.363 . S
C613 C608 1.379 . S
C613 N611 1.356 1_565 S
N614 C606 1.356 . S
N614 H620 0.984 . S
N614 H621 0.984 . S
N615 C608 1.356 1_545 S
N615 H618 0.984 . S
N615 H619 0.985 . S
H616 N611 0.984 . S
H617 N611 0.985 . S
H618 N615 0.984 . S
H619 N615 0.985 . S
H620 N614 0.984 . S
H621 N614 0.984 . S
H622 N610 0.984 . S
H623 N610 0.985 . S
C411 C303 1.672 . S
C409 C211 1.644 . S
C427 C31 1.555 . S
C429 C398 1.666 . S
C445 C91 1.683 . S
C447 C314 1.672 . S
C463 C151 1.624 . S
C465 C387 1.666 . S
C483 C298 1.433 . S
C481 C20 1.518 . S
C501 C391 1.632 . S
C499 C61 1.574 . S
C517 C121 1.653 . S
C519 C307 1.671 . S
C535 C200 1.482 . S
C537 C382 1.412 . S
C555 C393 1.412 . S
C553 C80 1.502 . S
C573 C309 1.433 . S
C571 C140 1.553 . S
C591 C380 1.632 . S
C589 C181 1.533 . S
C607 C1 1.581 . S
C609 C296 1.671 . S
