# Generated by pormake.
# Topology zzz, (3,6)-cn, num edge types: 1
# Building blocks:
#     Node 0, Type 0, BuildingBlock: BETDAH_clean_linker_0, # of connection points: 3
#     Node 1, Type 0, BuildingBlock: BETDAH_clean_linker_0, # of connection points: 3
#     Node 2, Type 0, BuildingBlock: BETDAH_clean_linker_0, # of connection points: 3
#     Node 3, Type 0, BuildingBlock: BETDAH_clean_linker_0, # of connection points: 3
#     Node 4, Type 0, BuildingBlock: BETDAH_clean_linker_0, # of connection points: 3
#     Node 5, Type 0, BuildingBlock: BETDAH_clean_linker_0, # of connection points: 3
#     Node 6, Type 0, BuildingBlock: BETDAH_clean_linker_0, # of connection points: 3
#     Node 7, Type 0, BuildingBlock: BETDAH_clean_linker_0, # of connection points: 3
#     Node 8, Type 1, BuildingBlock: KUMBOL_clean_sbu_0, # of connection points: 6
#     Node 9, Type 1, BuildingBlock: KUMBOL_clean_sbu_0, # of connection points: 6
#     Node 10, Type 1, BuildingBlock: KUMBOL_clean_sbu_0, # of connection points: 6
#     Node 11, Type 1, BuildingBlock: KUMBOL_clean_sbu_0, # of connection points: 6
#     Edge 12, Type (0, 1), BuildingBlock: AJUNOK_clean_linker_0, # of connection points: 2
#     Edge 13, Type (0, 1), BuildingBlock: AJUNOK_clean_linker_0, # of connection points: 2
#     Edge 14, Type (0, 1), BuildingBlock: AJUNOK_clean_linker_0, # of connection points: 2
#     Edge 15, Type (0, 1), BuildingBlock: AJUNOK_clean_linker_0, # of connection points: 2
#     Edge 16, Type (0, 1), BuildingBlock: AJUNOK_clean_linker_0, # of connection points: 2
#     Edge 17, Type (0, 1), BuildingBlock: AJUNOK_clean_linker_0, # of connection points: 2
#     Edge 18, Type (0, 1), BuildingBlock: AJUNOK_clean_linker_0, # of connection points: 2
#     Edge 19, Type (0, 1), BuildingBlock: AJUNOK_clean_linker_0, # of connection points: 2
#     Edge 20, Type (0, 1), BuildingBlock: AJUNOK_clean_linker_0, # of connection points: 2
#     Edge 21, Type (0, 1), BuildingBlock: AJUNOK_clean_linker_0, # of connection points: 2
#     Edge 22, Type (0, 1), BuildingBlock: AJUNOK_clean_linker_0, # of connection points: 2
#     Edge 23, Type (0, 1), BuildingBlock: AJUNOK_clean_linker_0, # of connection points: 2
#     Edge 24, Type (0, 1), BuildingBlock: AJUNOK_clean_linker_0, # of connection points: 2
#     Edge 25, Type (0, 1), BuildingBlock: AJUNOK_clean_linker_0, # of connection points: 2
#     Edge 26, Type (0, 1), BuildingBlock: AJUNOK_clean_linker_0, # of connection points: 2
#     Edge 27, Type (0, 1), BuildingBlock: AJUNOK_clean_linker_0, # of connection points: 2
#     Edge 28, Type (0, 1), BuildingBlock: AJUNOK_clean_linker_0, # of connection points: 2
#     Edge 29, Type (0, 1), BuildingBlock: AJUNOK_clean_linker_0, # of connection points: 2
#     Edge 30, Type (0, 1), BuildingBlock: AJUNOK_clean_linker_0, # of connection points: 2
#     Edge 31, Type (0, 1), BuildingBlock: AJUNOK_clean_linker_0, # of connection points: 2
#     Edge 32, Type (0, 1), BuildingBlock: AJUNOK_clean_linker_0, # of connection points: 2
#     Edge 33, Type (0, 1), BuildingBlock: AJUNOK_clean_linker_0, # of connection points: 2
#     Edge 34, Type (0, 1), BuildingBlock: AJUNOK_clean_linker_0, # of connection points: 2
#     Edge 35, Type (0, 1), BuildingBlock: AJUNOK_clean_linker_0, # of connection points: 2
# Relax obj value: 0.231
# Max RMSD: 0.182
# Mean RMSD: 0.119
data_MOF--net-zzz--node1-KUMBOL_clean_sbu_0--node2-BETDAH_clean_linker_0--edge1-AJUNOK_clean_linker_0
_symmetry_space_group_name_H-M    P1
_symmetry_Int_Tables_number       1
_symmetry_cell_setting            triclinic
loop_
_symmetry_equiv_pos_as_xyz
'x, y, z'
_cell_length_a     36.788596
_cell_length_b     36.631271
_cell_length_c     11.022255
_cell_angle_alpha  91.753272
_cell_angle_beta   89.491424
_cell_angle_gamma 89.963551
loop_
_atom_site_label
_atom_site_type_symbol
_atom_site_fract_x
_atom_site_fract_y
_atom_site_fract_z
_atom_type_partial_charge
H0 H 0.8553 0.60863 0.313 0.0
H1 H 0.74555 0.60466 0.17803 0.0
H2 H 0.78001 0.53098 0.45113 0.0
C3 C 0.82804 0.59761 0.31343 0.0
C4 C 0.82126 0.56957 0.39417 0.0
C5 C 0.80217 0.60834 0.22619 0.0
C6 C 0.76649 0.59495 0.23679 0.0
C7 C 0.758 0.5666 0.31432 0.0
C8 C 0.78587 0.55346 0.39251 0.0
N9 N 0.72246 0.54992 0.30935 0.0
C10 C 0.69382 0.55811 0.22849 0.0
H11 H 0.98372 0.86079 0.24669 0.0
H12 H 0.98419 0.74532 0.16644 0.0
H13 H 0.04049 0.78908 0.47948 0.0
C14 C 0.98954 0.83318 0.2731 0.0
C15 C 1.00852 0.82863 0.38173 0.0
C16 C 0.98274 0.80342 0.19162 0.0
C17 C 0.9912 0.7681 0.22645 0.0
C18 C 1.01455 0.76249 0.32286 0.0
C19 C 1.02261 0.79292 0.40342 0.0
N20 N 0.03228 0.72754 0.33174 0.0
C21 C 0.03223 0.699 0.24104 0.0
H22 H 0.69427 0.0388 0.29461 0.0
H23 H 0.80291 1.02101 0.16511 0.0
H24 H 0.77801 1.01151 0.54694 0.0
C25 C 0.72212 0.03134 0.31355 0.0
C26 C 0.73162 1.02393 0.43338 0.0
C27 C 0.7479 0.0312 0.21843 0.0
C28 C 0.78378 1.02181 0.24025 0.0
C29 C 0.79566 1.01566 0.35769 0.0
C30 C 0.76923 1.01609 0.45527 0.0
N31 N 0.83404 1.011 0.37765 0.0
C32 C 0.86159 1.01213 0.28645 0.0
H33 H 0.59833 0.7018 0.32488 0.0
H34 H 0.60313 0.81148 0.19247 0.0
H35 H 0.54473 0.78878 0.52136 0.0
C36 C 0.5925 0.7307 0.33351 0.0
C37 C 0.57195 0.74209 0.43515 0.0
C38 C 0.60203 0.75459 0.23957 0.0
C39 C 0.59411 0.7921 0.25767 0.0
C40 C 0.57281 0.80488 0.35656 0.0
C41 C 0.56155 0.77949 0.44541 0.0
N42 N 0.56123 0.84249 0.36565 0.0
C43 C 0.566 0.86966 0.27791 0.0
H44 H 0.21477 0.57689 0.10207 0.0
H45 H 0.31677 0.57063 0.28729 0.0
H46 H 0.27987 0.4801 0.0585 0.0
C47 C 0.23997 0.56237 0.11772 0.0
C48 C 0.24369 0.52704 0.06904 0.0
C49 C 0.26579 0.57803 0.19631 0.0
C50 C 0.29766 0.55879 0.2231 0.0
C51 C 0.30389 0.52371 0.17137 0.0
C52 C 0.27632 0.50767 0.09477 0.0
N53 N 0.33631 0.50343 0.19891 0.0
C54 C 0.36593 0.51424 0.27373 0.0
H55 H 0.10378 0.19154 0.16142 0.0
H56 H 0.09191 0.29891 0.33103 0.0
H57 H 1.01988 0.26338 0.04723 0.0
C58 C 0.0908 0.21792 0.16918 0.0
C59 C 0.06142 0.22388 0.09185 0.0
C60 C 0.10037 0.24319 0.26404 0.0
C61 C 0.08395 0.27815 0.26527 0.0
C62 C 0.05495 0.28604 0.18875 0.0
C63 C 0.0432 0.25827 0.10353 0.0
N64 N 0.03597 0.32056 0.20101 0.0
C65 C 0.04247 0.34982 0.28607 0.0
H66 H 0.36207 0.07916 0.19923 0.0
H67 H 0.24824 0.0836 0.28482 0.0
H68 H 0.28498 0.03777 0.93925 0.0
C69 C 0.33416 0.07556 0.17127 0.0
C70 C 0.32781 0.05999 0.0553 0.0
C71 C 0.30546 0.08312 0.25507 0.0
C72 C 0.2697 0.0775 0.21947 0.0
C73 C 0.26164 0.05974 0.10925 0.0
C74 C 0.29086 0.05149 0.02521 0.0
N75 N 0.22486 0.04793 0.08776 0.0
C76 C 0.19649 0.04948 0.17609 0.0
H77 H 0.46583 0.3519 0.12879 0.0
H78 H 0.48402 0.24648 0.27635 0.0
H79 H 0.52646 0.27193 0.92128 0.0
C80 C 0.47568 0.32415 0.11814 0.0
C81 C 0.49516 0.3151 1.01226 0.0
C82 C 0.47236 0.30026 0.21524 0.0
C83 C 0.48648 0.26483 0.20153 0.0
C84 C 0.5058 0.25396 0.09554 0.0
C85 C 0.51064 0.27958 1.0014 0.0
N86 N 0.52192 0.21832 0.08473 0.0
C87 C 0.52205 0.1923 0.17641 0.0
Gd88 Gd 0.99062 0.04236 0.62631 0.0
Gd89 Gd 0.06444 1.01848 0.81878 0.0
C90 C 0.11737 0.10514 0.0673 0.0
C91 C 0.17518 0.11491 0.96544 0.0
C92 C 0.13307 0.06887 0.88767 0.0
C93 C 0.10842 0.07819 0.97842 0.0
C94 C 0.16733 0.08612 0.88284 0.0
C95 C 0.15021 0.12441 0.05764 0.0
C96 C 0.09396 0.11056 0.16654 0.0
C97 C 0.06412 0.08774 0.18021 0.0
N98 N 0.07732 0.05842 0.98668 0.0
C99 C 0.05689 0.06091 0.09107 0.0
H100 H 0.03574 0.04171 0.10993 0.0
C101 C 0.15104 1.02574 0.73503 0.0
N102 N 0.12483 0.04062 0.81087 0.0
C103 C 0.18531 0.04199 0.72642 0.0
C104 C 0.19327 0.07279 0.79902 0.0
H105 H 0.14476 1.00226 0.67708 0.0
H106 H 0.15734 0.14548 0.12421 0.0
H107 H 1.017 1.00274 0.35739 0.0
H108 H 0.09985 0.13067 0.23669 0.0
H109 H 0.04725 0.09012 0.26102 0.0
H110 H 0.20115 0.1288 0.96232 0.0
H111 H 0.91342 0.07153 0.76412 0.0
H112 H 0.94208 0.91807 0.26354 0.0
H113 H 0.99933 0.95119 0.22359 0.0
H114 H 0.84264 0.94196 0.53732 0.0
H115 H 0.20548 0.03086 0.66343 0.0
H116 H 0.21992 0.0852 0.79288 0.0
H117 H 0.88406 0.91396 0.38428 0.0
H118 H 0.84947 0.05196 0.78489 0.0
N119 N 0.97292 0.99692 0.48069 0.0
C120 C 0.95032 0.94026 0.32425 0.0
C121 C 0.98265 0.95881 0.30175 0.0
C122 C 0.92795 0.95208 0.42082 0.0
C123 C 0.9399 0.98131 0.49682 0.0
C124 C 0.99312 0.98769 0.37982 0.0
N125 N 0.92833 0.02689 0.64548 0.0
C126 C 0.91667 0.99701 0.5818 0.0
C127 C 0.86813 0.03615 0.72781 0.0
C128 C 0.85645 1.0041 0.66848 0.0
C129 C 0.9043 0.04726 0.71521 0.0
C130 C 0.88077 0.98411 0.5941 0.0
H131 H 0.82857 0.99526 0.67962 0.0
O132 O 0.95549 0.08676 0.57491 0.0
O133 O 0.03337 0.06536 0.75209 0.0
O134 O 1.01068 1.02343 0.93107 0.0
O135 O 0.96531 1.01475 0.78932 0.0
O136 O 0.98272 0.08755 0.77229 0.0
O137 O 1.00377 0.07432 0.46883 0.0
O138 O 0.10508 0.9792 0.87272 0.0
O139 O 1.02249 0.99451 0.69036 0.0
O140 O 0.04389 0.03773 0.5131 0.0
O141 O 0.08796 0.04871 0.65735 0.0
O142 O 0.0753 0.97789 0.66321 0.0
O143 O 0.04977 0.97461 0.93758 0.0
C144 C 1.01546 0.08975 0.81155 0.0
C145 C 0.86988 0.95277 0.52729 0.0
C146 C 0.89343 0.93686 0.44013 0.0
C147 C 0.97846 0.09827 0.49485 0.0
C148 C 0.98978 0.13654 0.5134 0.0
C149 C 0.96331 0.16402 0.51505 0.0
C150 C 0.02626 0.14573 0.53696 0.0
C151 C 0.03688 0.18251 0.55367 0.0
C152 C 0.97308 0.20025 0.53815 0.0
C153 C 1.00944 0.20957 0.55583 0.0
C154 C 0.97605 1.01668 0.90357 0.0
C155 C 0.04245 0.97215 0.62809 0.0
C156 C 0.0806 0.95776 0.91737 0.0
C157 C 0.07814 0.92064 0.86157 0.0
C158 C 0.10431 0.90736 0.77752 0.0
C159 C 0.04699 0.89987 0.88237 0.0
C160 C 0.04028 0.86728 0.81551 0.0
C161 C 0.09838 0.87463 0.71236 0.0
C162 C 0.06629 0.85501 0.72931 0.0
C163 C 0.07804 0.0458 0.54246 0.0
H164 H 0.93501 0.15738 0.49931 0.0
H165 H 0.04642 0.12425 0.539 0.0
H166 H 0.95251 0.2214 0.5386 0.0
H167 H 1.01587 0.23832 0.56405 0.0
H168 H 0.12882 0.9227 0.75938 0.0
H169 H 0.0283 0.90911 0.95335 0.0
H170 H 0.11848 0.86471 0.64705 0.0
H171 H 0.06227 0.82981 0.67723 0.0
Gd172 Gd 0.52202 0.99905 0.64831 0.0
Gd173 Gd 0.54081 0.07407 0.84198 0.0
C174 C 0.44867 0.1056 0.10944 0.0
C175 C 0.43005 0.16447 0.03699 0.0
C176 C 0.47631 0.12861 0.92717 0.0
C177 C 0.4746 0.10223 1.01417 0.0
C178 C 0.45442 0.16039 0.93936 0.0
C179 C 0.42649 0.1367 0.11968 0.0
C180 C 0.44457 0.07692 0.18864 0.0
C181 C 0.46477 0.04533 0.1696 0.0
N182 N 0.49554 0.07174 0.99928 0.0
C183 C 0.48931 0.04283 0.07275 0.0
H184 H 0.49991 1.01635 0.05168 0.0
C185 C 0.49919 0.14832 0.73991 0.0
N186 N 0.49787 0.12253 0.82788 0.0
C187 C 0.47854 0.18026 0.74947 0.0
C188 C 0.45631 0.18655 0.85023 0.0
H189 H 0.51805 0.14655 0.66546 0.0
H190 H 0.40586 0.13933 0.18946 0.0
H191 H 0.56796 0.03741 0.42129 0.0
H192 H 0.42461 0.07798 0.26072 0.0
H193 H 0.46024 1.02213 0.22597 0.0
H194 H 0.41271 0.18833 0.04642 0.0
H195 H 0.50083 0.91903 0.77084 0.0
H196 H 0.65527 0.96742 0.30823 0.0
H197 H 0.62126 1.0252 0.29062 0.0
H198 H 0.63304 0.8594 0.52983 0.0
H199 H 0.48044 0.20042 0.67988 0.0
H200 H 0.44018 0.2113 0.85716 0.0
H201 H 0.65986 0.90584 0.3999 0.0
H202 H 0.52407 0.85584 0.77077 0.0
N203 N 0.57331 0.9892 0.52105 0.0
C204 C 0.6323 0.97316 0.36802 0.0
C205 C 0.61323 1.00579 0.35793 0.0
C206 C 0.62036 0.94756 0.45105 0.0
C207 C 0.59024 0.9564 0.52689 0.0
C208 C 0.58331 1.01304 0.434 0.0
N209 N 0.54513 0.93918 0.66671 0.0
C210 C 0.5755 0.93047 0.60124 0.0
C211 C 0.5391 0.87662 0.72404 0.0
C212 C 0.57142 0.86781 0.66276 0.0
C213 C 0.52603 0.91242 0.72383 0.0
C214 C 0.58996 0.89475 0.59982 0.0
H215 H 0.58138 0.83997 0.66184 0.0
O216 O 0.47927 0.96144 0.59715 0.0
O217 O 0.49282 0.04457 0.75701 0.0
O218 O 0.55451 1.02469 0.95994 0.0
O219 O 0.54564 0.97575 0.82228 0.0
O220 O 0.47565 0.9914 0.78114 0.0
O221 O 0.50469 0.99409 0.46064 0.0
O222 O 0.56719 0.12525 0.80655 0.0
O223 O 0.56614 0.03869 0.69465 0.0
O224 O 0.51044 0.05104 0.54391 0.0
O225 O 0.54827 0.09103 0.64607 0.0
O226 O 0.59643 0.04651 0.84836 0.0
O227 O 0.5658 0.10609 0.98919 0.0
C228 C 0.46843 1.02506 0.80869 0.0
C229 C 0.6213 0.88654 0.53059 0.0
C230 C 0.63651 0.91294 0.45642 0.0
C231 C 0.47925 0.97075 0.48467 0.0
C232 C 0.44364 0.97837 0.43621 0.0
C233 C 0.43154 0.95781 0.33541 0.0
C234 C 0.4213 1.00524 0.49168 0.0
C235 C 0.38646 1.0111 0.44687 0.0
C236 C 0.39713 0.96406 0.28912 0.0
C237 C 0.37473 0.99055 0.344 0.0
C238 C 0.55435 0.98883 0.93207 0.0
C239 C 0.59712 0.03164 0.74025 0.0
C240 C 0.57651 0.13188 0.91787 0.0
C241 C 0.61366 0.14504 0.9322 0.0
C242 C 0.62053 0.17848 0.9921 0.0
C243 C 0.64254 0.12282 0.89383 0.0
C244 C 0.67737 0.12895 0.93988 0.0
C245 C 0.65607 0.18766 0.02385 0.0
C246 C 0.68416 0.16247 1.00261 0.0
C247 C 0.52839 0.08231 0.55056 0.0
H248 H 0.44879 0.93709 0.29244 0.0
H249 H 0.4309 1.02128 0.56922 0.0
H250 H 0.38786 0.94849 0.21029 0.0
H251 H 0.34838 0.99544 0.30438 0.0
H252 H 0.59842 0.1967 0.01824 0.0
H253 H 0.63712 0.09847 0.83977 0.0
H254 H 0.66138 0.21305 0.07333 0.0
H255 H 0.71016 0.1684 0.04353 0.0
Gd256 Gd 0.49103 0.54623 0.84106 0.0
Gd257 Gd 0.56962 0.51917 0.66251 0.0
C258 C 0.67318 0.47589 0.83476 0.0
C259 C 0.72014 0.50713 0.72226 0.0
C260 C 0.65624 0.52062 0.68811 0.0
C261 C 0.64625 0.49471 0.77062 0.0
C262 C 0.69339 0.52827 0.66755 0.0
C263 C 0.71005 0.481 0.80604 0.0
C264 C 0.66247 0.45445 0.93146 0.0
C265 C 0.62605 0.45397 0.96682 0.0
N266 N 0.61047 0.49217 0.80096 0.0
C267 C 0.60048 0.47339 0.9015 0.0
H268 H 0.57281 0.47344 0.93343 0.0
C269 C 0.63881 0.57216 0.57951 0.0
N270 N 0.62966 0.54195 0.64272 0.0
C271 C 0.67518 0.5808 0.5567 0.0
C272 C 0.70259 0.5584 0.59908 0.0
H273 H 0.6183 0.58987 0.54536 0.0
H274 H 0.73103 0.46634 0.85292 0.0
H275 H 0.44242 0.5878 0.62745 0.0
H276 H 0.68231 0.43976 0.98328 0.0
H277 H 0.61761 0.43882 0.04502 0.0
H278 H 0.74875 0.51215 0.70544 0.0
H279 H 0.48596 0.49916 0.09696 0.0
H280 H 0.33568 0.5416 0.62153 0.0
H281 H 0.38039 0.5858 0.54442 0.0
H282 H 0.33766 0.45786 0.94617 0.0
H283 H 0.68203 0.6047 0.50589 0.0
H284 H 0.73074 0.56552 0.58292 0.0
H285 H 0.32024 0.49335 0.76999 0.0
H286 H 0.44298 0.4579 0.19823 0.0
N287 N 0.43347 0.5444 0.74808 0.0
C288 C 0.36288 0.54236 0.65839 0.0
C289 C 0.38802 0.56734 0.61469 0.0
C290 C 0.37277 0.51954 0.7521 0.0
C291 C 0.40854 0.5217 0.79732 0.0
C292 C 0.42323 0.56821 0.66143 0.0
N293 N 0.45175 0.50709 0.94554 0.0
C294 C 0.41798 0.50239 0.89857 0.0
C295 C 0.43596 0.46963 0.1128 0.0
C296 C 0.40222 0.46225 0.06088 0.0
C297 C 0.46018 0.493 0.05536 0.0
C298 C 0.39235 0.47964 0.95475 0.0
H299 H 0.38345 0.44426 0.10611 0.0
O300 O 0.48464 0.57417 0.01683 0.0
O301 O 0.55216 0.55011 0.82919 0.0
O302 O 0.54521 0.46716 0.73975 0.0
O303 O 0.49054 0.4833 0.83545 0.0
O304 O 0.53034 0.54068 0.99674 0.0
O305 O 0.4594 0.59569 0.85711 0.0
O306 O 0.58342 0.51554 0.47066 0.0
O307 O 0.50837 0.51948 0.66668 0.0
O308 O 0.50741 0.59252 0.71142 0.0
O309 O 0.56877 0.58157 0.67328 0.0
O310 O 0.53228 0.53646 0.50927 0.0
O311 O 0.58673 0.46755 0.58126 0.0
C312 C 0.56038 0.54672 0.94003 0.0
C313 C 0.35751 0.47562 0.90516 0.0
C314 C 0.34765 0.49572 0.80459 0.0
C315 C 0.46614 0.60086 0.97172 0.0
C316 C 0.47786 0.63768 1.00404 0.0
C317 C 0.45263 0.66222 0.05614 0.0
C318 C 0.51306 0.6493 0.97434 0.0
C319 C 0.52296 0.68578 0.99584 0.0
C320 C 0.4624 0.69847 0.07861 0.0
C321 C 0.49727 0.71025 0.04885 0.0
C322 C 0.51507 0.45845 0.79923 0.0
C323 C 0.50145 0.52938 0.55962 0.0
C324 C 0.58494 0.47998 0.47166 0.0
C325 C 0.55995 0.46045 0.3893 0.0
C326 C 0.56085 0.46692 0.26465 0.0
C327 C 0.53389 0.4363 0.43587 0.0
C328 C 0.50989 0.41772 0.35848 0.0
C329 C 0.53641 0.44899 0.18738 0.0
C330 C 0.51124 0.42444 0.23353 0.0
C331 C 0.54006 0.60368 0.67351 0.0
H332 H 0.42532 0.65339 0.07829 0.0
H333 H 0.53259 0.63008 0.93497 0.0
H334 H 0.44302 0.71741 0.11996 0.0
H335 H 0.5045 0.73829 0.07149 0.0
H336 H 0.58038 0.48576 0.22734 0.0
H337 H 0.5327 0.43102 0.53191 0.0
H338 H 0.53718 0.45366 0.09115 0.0
H339 H 0.49373 0.40975 0.1706 0.0
Gd340 Gd 1.0133 0.49789 0.84104 0.0
Gd341 Gd 0.05153 0.56145 0.63784 0.0
C342 C 0.11376 0.65782 0.81435 0.0
C343 C 0.06571 0.70184 0.85491 0.0
C344 C 0.05187 0.64272 0.75895 0.0
C345 C 0.08805 0.63285 0.7655 0.0
C346 C 0.04065 0.67802 0.79917 0.0
C347 C 0.10215 0.69164 0.8635 0.0
C348 C 0.15064 0.64901 0.80594 0.0
C349 C 0.16132 0.61784 0.73967 0.0
N350 N 0.09868 0.60056 0.71282 0.0
C351 C 0.1349 0.59525 0.68663 0.0
H352 H 0.14334 0.57251 0.62853 0.0
C353 C 0.9936 0.6301 0.6811 0.0
N354 N 0.02808 0.61881 0.70639 0.0
C355 C 0.98152 0.66503 0.71664 0.0
C356 C 1.00489 0.68884 0.77846 0.0
H357 H 0.97544 0.61297 0.62972 0.0
H358 H 0.12145 0.71084 0.90288 0.0
H359 H 0.96268 0.45851 0.6228 0.0
H360 H 0.17113 0.66722 0.84336 0.0
H361 H 0.18989 0.61165 0.72757 0.0
H362 H 0.05749 0.7287 0.88801 0.0
H363 H 0.05601 0.48265 0.10441 0.0
H364 H 0.98773 0.34453 0.60231 0.0
H365 H 0.95257 0.39722 0.5315 0.0
H366 H 0.07067 0.32967 0.92888 0.0
H367 H 0.95411 0.67352 0.69642 0.0
H368 H 0.99536 0.71579 0.80688 0.0
H369 H 0.03133 0.31967 0.75168 0.0
H370 H 0.09041 0.43291 0.19712 0.0
N371 N 1.00436 0.44122 0.74081 0.0
C372 C 0.99248 0.37148 0.64233 0.0
C373 C 0.97249 0.40111 0.60237 0.0
C374 C 1.0173 0.37671 0.73674 0.0
C375 C 1.02255 0.41234 0.78572 0.0
C376 C 0.97845 0.43591 0.65403 0.0
N377 N 0.04435 0.45169 0.9427 0.0
C378 C 0.04359 0.41785 0.88863 0.0
C379 C 0.0776 0.42836 0.10995 0.0
C380 C 0.07946 0.3941 0.05123 0.0
C381 C 0.05831 0.45651 0.05691 0.0
C382 C 0.06095 0.38804 0.9421 0.0
H383 H 0.09373 0.37208 0.09385 0.0
O384 O 0.97692 0.51751 0.98544 0.0
O385 O 1.02293 0.55811 0.81699 0.0
O386 O 0.09752 0.54131 0.75813 0.0
O387 O 0.07522 0.49158 0.86049 0.0
O388 O 0.03799 0.53658 0.98145 0.0
O389 O 0.97075 0.46301 0.91107 0.0
O390 O 0.037 0.59551 0.48668 0.0
O391 O 0.02852 0.50445 0.64582 0.0
O392 O 0.96589 0.5185 0.7263 0.0
O393 O 0.99208 0.55296 0.5748 0.0
O394 O 0.07758 0.50979 0.55665 0.0
O395 O 0.08594 0.56329 0.47717 0.0
C396 C 0.03629 0.5663 0.92149 0.0
C397 C 0.05762 0.3529 0.88887 0.0
C398 C 0.03544 0.3472 0.78746 0.0
C399 C 0.95617 0.48889 0.97734 0.0
C400 C 0.91709 0.4948 0.95856 0.0
C401 C 0.89308 0.46512 0.96068 0.0
C402 C 0.90343 0.52991 0.93996 0.0
C403 C 0.8658 0.53631 0.93678 0.0
C404 C 0.85583 0.47071 0.94813 0.0
C405 C 0.84212 0.50605 0.93884 0.0
C406 C 0.10241 0.51323 0.82903 0.0
C407 C 0.05319 0.48649 0.58721 0.0
C408 C 0.06892 0.59144 0.43632 0.0
C409 C 0.09146 0.62471 0.42369 0.0
C410 C 0.07832 0.65951 0.46003 0.0
C411 C 0.12829 0.62102 0.39149 0.0
C412 C 0.152 0.65105 0.39884 0.0
C413 C 0.1017 0.68966 0.46437 0.0
C414 C 0.13846 0.68553 0.43382 0.0
C415 C 0.96304 0.53821 0.62774 0.0
H416 H 0.90313 0.43768 0.97318 0.0
H417 H 0.92215 0.55257 0.934 0.0
H418 H 0.83737 0.44775 0.95119 0.0
H419 H 0.81292 0.50951 0.9407 0.0
H420 H 0.05024 0.66337 0.48767 0.0
H421 H 0.13896 0.59435 0.36443 0.0
H422 H 0.09141 0.71621 0.49367 0.0
H423 H 0.15638 0.70896 0.43951 0.0
C424 C 0.16518 0.07381 0.36784 0.0
C425 C 0.1662 0.04943 0.26603 0.0
C426 C 0.13663 0.07287 0.45563 0.0
C427 C 0.10732 0.04801 0.44468 0.0
H428 H 0.18677 0.09359 0.38067 0.0
H429 H 0.13752 0.09185 0.53285 0.0
S430 S 0.09847 0.97707 0.19911 0.0
N431 N 0.13602 0.99895 0.16257 0.0
N432 N 0.08304 0.99726 0.32498 0.0
C433 C 0.10838 1.0236 0.34319 0.0
C434 C 0.1375 1.02432 0.25483 0.0
C435 C 0.49306 0.15415 0.33541 0.0
C436 C 0.52401 0.16404 0.26816 0.0
C437 C 0.49474 0.12679 0.42312 0.0
C438 C 0.52718 0.10843 0.44823 0.0
H439 H 0.46751 0.168 0.32141 0.0
H440 H 0.47108 0.1209 0.47688 0.0
S441 S 0.61654 0.12558 0.30149 0.0
N442 N 0.58851 0.15387 0.23528 0.0
N443 N 0.59163 0.1036 0.40095 0.0
C444 C 0.55849 0.11869 0.38318 0.0
C445 C 0.55681 0.14612 0.29287 0.0
C446 C 0.42541 0.54589 0.32597 0.0
C447 C 0.39958 0.51827 0.34734 0.0
C448 C 0.45819 0.54874 0.39333 0.0
C449 C 0.46661 0.52452 0.48704 0.0
H450 H 0.42037 0.56543 0.25625 0.0
H451 H 0.47681 0.57071 0.37354 0.0
S452 S 0.41039 0.44447 0.56685 0.0
N453 N 0.3866 0.46418 0.46079 0.0
N454 N 0.4474 0.46944 0.58631 0.0
C455 C 0.4417 0.49582 0.50487 0.0
C456 C 0.40849 0.49286 0.43589 0.0
C457 C 0.06995 0.38791 0.45913 0.0
C458 C 0.04462 0.38378 0.36407 0.0
C459 C 0.07224 0.42075 0.53152 0.0
C460 C 0.04887 0.45085 0.5141 0.0
H461 H 0.08832 0.36567 0.47755 0.0
H462 H 0.09237 0.4225 0.60256 0.0
S463 S 0.97963 0.45519 0.27194 0.0
N464 N 0.99681 0.41366 0.25399 0.0
N465 N 1.00138 0.47466 0.38738 0.0
C466 C 1.02417 0.44725 0.41727 0.0
C467 C 1.02179 0.41393 0.34402 0.0
C468 C 0.92328 0.03196 0.20868 0.0
C469 C 0.89057 1.01243 0.19146 0.0
C470 C 0.95089 0.03257 0.11747 0.0
C471 C 0.94732 1.0137 1.00399 0.0
H472 H 0.92756 0.04716 0.2932 0.0
H473 H 0.97475 0.04895 0.13542 0.0
S474 S 0.86702 0.95723 0.91624 0.0
N475 N 0.85662 0.97304 0.05394 0.0
N476 N 0.90763 0.9739 0.88411 0.0
C477 C 0.91463 0.99379 0.98716 0.0
C478 C 0.88669 0.99317 0.08012 0.0
C479 C 0.54926 0.93398 0.22716 0.0
C480 C 0.56715 0.90095 0.19544 0.0
C481 C 0.54779 0.9635 0.14676 0.0
C482 C 0.56276 0.9609 0.02788 0.0
H483 H 0.53589 0.93695 0.31481 0.0
H484 H 0.53383 0.98791 0.17823 0.0
S485 S 0.62066 0.88393 0.91304 0.0
N486 N 0.60638 0.8705 0.04688 0.0
N487 N 0.60184 0.92427 0.8937 0.0
C488 C 0.58285 0.92882 0.99915 0.0
C489 C 0.58535 0.89934 0.08276 0.0
C490 C 0.66221 0.55958 0.02426 0.0
C491 C 0.66088 0.5622 0.15223 0.0
C492 C 0.62982 0.55946 0.95427 0.0
C493 C 0.59509 0.55688 1.00793 0.0
H494 H 0.68824 0.55799 0.97782 0.0
H495 H 0.63184 0.5617 0.85841 0.0
S496 S 0.57713 0.58502 0.32812 0.0
N497 N 0.6217 0.57964 0.32127 0.0
N498 N 0.562 0.57328 0.19239 0.0
C499 C 0.5937 0.56508 0.13348 0.0
C500 C 0.62631 0.56842 0.20425 0.0
C501 C 0.06533 0.64638 0.13516 0.0
C502 C 0.03351 0.66754 0.15212 0.0
C503 C 0.06616 0.61457 0.05801 0.0
C504 C 0.03557 0.60287 0.99039 0.0
H505 H 0.0898 0.65415 0.1832 0.0
H506 H 0.09109 0.59883 0.05155 0.0
S507 S 0.946 0.64967 0.9981 0.0
N508 N 0.97098 0.67494 0.09146 0.0
N509 N 0.97224 0.61565 0.94834 0.0
C510 C 1.00374 0.62417 1.00559 0.0
C511 C 1.0029 0.6564 0.08486 0.0
C512 C 0.12326 0.19185 0.38475 0.0
C513 C 0.11955 0.22999 0.37608 0.0
C514 C 0.09892 0.17331 0.46019 0.0
C515 C 0.07594 0.19342 0.54106 0.0
H516 H 0.13818 0.17631 0.31587 0.0
H517 H 0.09537 0.14433 0.44382 0.0
S518 S 0.09855 0.28719 0.65043 0.0
N519 N 0.12046 0.28214 0.5194 0.0
N520 N 0.0766 0.24845 0.67159 0.0
C521 C 0.08737 0.22923 0.57033 0.0
C522 C 0.1107 0.24743 0.48811 0.0
C523 C 0.30027 0.05528 0.45261 0.0
C524 C 0.31294 0.08532 0.38724 0.0
C525 C 0.32551 0.0325 0.50696 0.0
C526 C 0.36277 0.04054 0.49705 0.0
H527 H 0.27324 0.04444 0.43754 0.0
H528 H 0.31681 1.00541 0.53136 0.0
S529 S 0.39957 0.13232 0.43827 0.0
N530 N 0.35702 0.13405 0.39329 0.0
N531 N 0.40613 0.09066 0.48841 0.0
C532 C 0.37218 0.07691 0.47525 0.0
C533 C 0.346 0.10023 0.42389 0.0
C534 C 0.43884 0.34628 0.33893 0.0
C535 C 0.46338 0.31664 0.33739 0.0
C536 C 0.45236 0.38164 0.36209 0.0
C537 C 0.48834 0.3865 0.40178 0.0
H538 H 0.41366 0.34375 0.2891 0.0
H539 H 0.43678 0.40472 0.33216 0.0
S540 S 0.54872 0.31379 0.51108 0.0
N541 N 0.51467 0.29178 0.44513 0.0
N542 N 0.53934 0.35768 0.50097 0.0
C543 C 0.50662 0.35586 0.44489 0.0
C544 C 0.49326 0.3203 0.41511 0.0
C545 C 0.24144 0.60251 0.38854 0.0
C546 C 0.25327 0.6099 0.27041 0.0
C547 C 0.21019 0.61935 0.43676 0.0
C548 C 0.19086 0.64505 0.37058 0.0
H549 H 0.25254 0.57949 0.43547 0.0
H550 H 0.19885 0.60909 0.51954 0.0
S551 S 0.21744 0.68143 0.07351 0.0
N552 N 0.24848 0.65011 0.10021 0.0
N553 N 0.19003 0.68261 0.19314 0.0
C554 C 0.20613 0.65723 0.26223 0.0
C555 C 0.23775 0.63975 0.21227 0.0
C556 C 1.00402 0.79036 0.98011 0.0
C557 C 0.9799 0.80975 0.05921 0.0
C558 C 1.01905 0.80697 0.87939 0.0
C559 C 1.01027 0.84327 0.8554 0.0
H560 H 1.01622 0.76489 1.00545 0.0
H561 H 0.0419 0.79348 0.83461 0.0
S562 S 0.93305 0.89555 0.9899 0.0
N563 N 0.93647 0.85949 0.0751 0.0
N564 N 0.96436 0.89076 0.8823 0.0
C565 C 0.97894 0.85821 0.91208 0.0
C566 C 0.9639 0.84144 0.01602 0.0
C567 C 0.7036 0.0381 0.05342 0.0
C568 C 0.73777 0.04657 0.10114 0.0
C569 C 0.68562 0.063 0.98255 0.0
C570 C 0.70167 0.0969 0.95506 0.0
H571 H 0.68871 1.01454 0.08427 0.0
H572 H 0.65734 0.05727 0.96519 0.0
S573 S 0.79775 0.12245 1.00726 0.0
N574 N 0.79181 0.08475 0.08333 0.0
N575 N 0.75864 0.13016 0.94023 0.0
C576 C 0.73892 0.1012 0.97791 0.0
C577 C 0.75697 0.0763 0.05369 0.0
C578 C 0.6157 0.70043 0.10406 0.0
C579 C 0.61149 0.73879 0.11469 0.0
C580 C 0.58832 0.6798 0.04619 0.0
C581 C 0.56107 0.69779 0.98197 0.0
H582 H 0.63359 0.68651 0.16504 0.0
H583 H 0.5856 0.65121 0.0671 0.0
S584 S 0.56706 0.79229 0.87732 0.0
N585 N 0.59797 0.78987 0.98461 0.0
N586 N 0.54847 0.75135 0.8652 0.0
C587 C 0.5682 0.73365 0.94879 0.0
C588 C 0.59451 0.7544 1.01437 0.0
C589 C 0.8525 0.62785 0.09524 0.0
C590 C 0.81462 0.62474 0.10842 0.0
C591 C 0.87074 0.59885 0.03525 0.0
C592 C 0.8515 0.57399 0.95902 0.0
H593 H 0.8677 0.64467 0.15939 0.0
H594 H 0.89846 0.59385 0.061 0.0
S595 S 0.75813 0.59133 0.85151 0.0
N596 N 0.76302 0.61928 0.97089 0.0
N597 N 0.79686 0.56866 0.83561 0.0
C598 C 0.81585 0.58398 0.92911 0.0
C599 C 0.79764 0.61117 1.00203 0.0
C600 C 0.07058 0.17517 0.9206 0.0
C601 C 0.04824 0.19152 1.01291 0.0
C602 C 0.06084 0.142 0.85773 0.0
C603 C 0.02868 0.12281 0.88607 0.0
H604 H 0.09606 0.18808 0.89714 0.0
H605 H 0.07856 0.13148 0.78583 0.0
S606 S 0.96236 0.15138 0.12721 0.0
N607 N 0.99338 0.18397 0.13271 0.0
N608 N 0.97531 0.12257 0.01694 0.0
C609 C 1.00648 0.13867 0.97897 0.0
C610 C 1.01622 0.17243 0.0419 0.0
C611 C 0.38015 1.01812 0.9952 0.0
C612 C 0.36098 0.05076 0.97526 0.0
C613 C 0.41439 1.01065 0.94337 0.0
C614 C 0.43147 0.03548 0.86788 0.0
H615 H 0.36871 0.99854 0.05643 0.0
H616 H 0.42783 0.98533 0.96457 0.0
S617 S 0.39151 0.12959 0.74534 0.0
N618 N 0.40083 0.08873 0.81218 0.0
N619 N 0.41792 0.09292 0.76432 0.0
C620 C 0.40852 0.06931 0.84243 0.0
C621 C 0.37431 0.07853 0.8984 0.0
C622 C 0.53547 0.36076 0.90438 0.0
C623 C 0.50073 0.34577 0.92472 0.0
C624 C 0.53987 0.39616 0.85713 0.0
C625 C 0.50978 0.41885 0.8322 0.0
H626 H 0.55939 0.34607 0.93225 0.0
H627 H 0.56719 0.40646 0.84649 0.0
S628 S 0.41324 0.38988 0.84961 0.0
N629 N 0.43598 0.35442 0.898 0.0
N630 N 0.44411 0.42093 0.81758 0.0
C631 C 0.47512 0.40308 0.84488 0.0
C632 C 0.4707 0.36672 0.88856 0.0
C633 C 0.1779 0.50688 0.06843 0.0
C634 C 0.21065 0.51201 1.00258 0.0
C635 C 0.14352 0.50502 1.01127 0.0
C636 C 0.13975 0.50842 0.8848 0.0
H637 H 0.17862 0.50691 0.16668 0.0
H638 H 0.11951 0.50347 0.06817 0.0
S639 S 0.2168 0.51877 0.66787 0.0
N640 N 0.23669 0.51851 0.80173 0.0
N641 N 0.17285 0.51348 0.69434 0.0
C642 C 0.17242 0.51144 0.81705 0.0
C643 C 0.20747 0.51356 0.87553 0.0
C644 C 0.99196 0.88239 0.52834 0.0
C645 C 1.01815 0.86312 0.45586 0.0
C646 C 0.9992 0.91746 0.58328 0.0
C647 C 0.03253 0.9358 0.56465 0.0
H648 H 0.96544 0.87034 0.54215 0.0
H649 H 0.97855 0.93018 0.64095 0.0
S650 S 0.11037 0.89732 0.38366 0.0
N651 N 0.07883 0.86545 0.37071 0.0
N652 N 0.09233 0.93037 0.46984 0.0
C653 C 0.05876 0.91657 0.49238 0.0
C654 C 0.05159 0.88084 0.43878 0.0
C655 C 0.67666 0.0572 0.52785 0.0
C656 C 0.70109 0.02718 0.5292 0.0
C657 C 0.64382 0.05834 0.59622 0.0
C658 C 0.63291 0.02944 0.66957 0.0
H659 H 0.68253 0.07994 0.47034 0.0
H660 H 0.6266 0.08216 0.59129 0.0
S661 S 0.68819 0.94655 0.72128 0.0
N662 N 0.7126 0.96901 0.62142 0.0
N663 N 0.65172 0.97175 0.75118 0.0
C664 C 0.65804 1.00045 0.67915 0.0
C665 C 0.69163 0.99911 0.60875 0.0
C666 C 0.58677 0.69356 0.58595 0.0
C667 C 0.5602 0.71249 0.52068 0.0
C668 C 0.57954 0.65948 0.6386 0.0
C669 C 0.54532 0.64216 0.62858 0.0
H670 H 0.61414 0.70435 0.59109 0.0
H671 H 0.60145 0.64609 0.68485 0.0
S672 S 0.46618 0.67957 0.46597 0.0
N673 N 0.49807 0.71081 0.44919 0.0
N674 N 0.4843 0.6475 0.54868 0.0
C675 C 0.51806 0.66139 0.56735 0.0
C676 C 0.52554 0.69613 0.51321 0.0
C677 C 0.8765 0.52827 0.42783 0.0
C678 C 0.85344 0.55708 0.4697 0.0
C679 C 0.91131 0.52194 0.47959 0.0
C680 C 0.9252 0.54421 0.5756 0.0
H681 H 0.86824 0.51136 0.35059 0.0
H682 H 0.92778 0.49977 0.44237 0.0
S683 S 0.87664 0.62383 0.7174 0.0
N684 N 0.84827 0.60854 0.61226 0.0
N685 N 0.91191 0.5959 0.71166 0.0
C686 C 0.90203 0.57244 0.62012 0.0
C687 C 0.86692 0.57913 0.56659 0.0
loop_
_geom_bond_atom_site_label_1
_geom_bond_atom_site_label_2
_geom_bond_distance
_geom_bond_site_symmetry_2
_ccdc_geom_bond_type
H0 C3 0.929 . S
H1 C6 0.929 . S
H2 C8 0.930 . S
C3 H0 0.929 . S
C3 C4 1.398 . S
C3 C5 1.396 . S
C4 C3 1.398 . S
C4 C8 1.407 . S
C5 C3 1.396 . S
C5 C6 1.394 . S
C6 H1 0.929 . S
C6 C5 1.394 . S
C6 C7 1.382 . S
C7 C6 1.382 . S
C7 C8 1.392 . S
C7 N9 1.420 . S
C8 H2 0.930 . S
C8 C4 1.407 . S
C8 C7 1.392 . S
N9 C7 1.420 . S
N9 C10 1.244 . S
C10 N9 1.244 . S
H11 C14 0.929 . S
H12 C17 0.929 . S
H13 C19 0.930 . S
C14 H11 0.929 . S
C14 C15 1.398 . S
C14 C16 1.396 . S
C15 C14 1.398 . S
C15 C19 1.407 . S
C16 C14 1.396 . S
C16 C17 1.394 . S
C17 H12 0.929 . S
C17 C16 1.394 . S
C17 C18 1.382 . S
C18 C17 1.382 . S
C18 C19 1.392 . S
C18 N20 1.420 . S
C19 H13 0.930 . S
C19 C15 1.407 . S
C19 C18 1.392 . S
N20 C18 1.420 . S
N20 C21 1.244 . S
C21 N20 1.244 . S
H22 C25 0.929 . S
H23 C28 0.929 . S
H24 C30 0.930 . S
C25 H22 0.929 . S
C25 C26 1.398 . S
C25 C27 1.396 . S
C26 C25 1.398 . S
C26 C30 1.407 . S
C27 C25 1.396 . S
C27 C28 1.394 . S
C28 H23 0.929 . S
C28 C27 1.394 . S
C28 C29 1.382 . S
C29 C28 1.382 . S
C29 C30 1.392 . S
C29 N31 1.420 . S
C30 H24 0.930 . S
C30 C26 1.407 . S
C30 C29 1.392 . S
N31 C29 1.420 . S
N31 C32 1.244 . S
C32 N31 1.244 . S
H33 C36 0.929 . S
H34 C39 0.929 . S
H35 C41 0.930 . S
C36 H33 0.929 . S
C36 C37 1.398 . S
C36 C38 1.396 . S
C37 C36 1.398 . S
C37 C41 1.407 . S
C38 C36 1.396 . S
C38 C39 1.394 . S
C39 H34 0.929 . S
C39 C38 1.394 . S
C39 C40 1.382 . S
C40 C39 1.382 . S
C40 C41 1.392 . S
C40 N42 1.420 . S
C41 H35 0.930 . S
C41 C37 1.407 . S
C41 C40 1.392 . S
N42 C40 1.420 . S
N42 C43 1.244 . S
C43 N42 1.244 . S
H44 C47 0.929 . S
H45 C50 0.929 . S
H46 C52 0.930 . S
C47 H44 0.929 . S
C47 C48 1.398 . S
C47 C49 1.396 1_556 S
C48 C47 1.398 . S
C48 C52 1.407 . S
C49 C47 1.396 1_554 S
C49 C50 1.394 . S
C50 H45 0.929 . S
C50 C49 1.394 . S
C50 C51 1.382 . S
C51 C50 1.382 . S
C51 C52 1.392 1_554 S
C51 N53 1.420 . S
C52 H46 0.930 . S
C52 C48 1.407 . S
C52 C51 1.392 1_556 S
N53 C51 1.420 . S
N53 C54 1.244 . S
C54 N53 1.244 . S
H55 C58 0.929 . S
H56 C61 0.929 . S
H57 C63 0.930 . S
C58 H55 0.929 . S
C58 C59 1.398 . S
C58 C60 1.396 1_556 S
C59 C58 1.398 . S
C59 C63 1.407 . S
C60 C58 1.396 1_554 S
C60 C61 1.394 . S
C61 H56 0.929 . S
C61 C60 1.394 . S
C61 C62 1.382 . S
C62 C61 1.382 . S
C62 C63 1.392 1_554 S
C62 N64 1.420 . S
C63 H57 0.930 . S
C63 C59 1.407 . S
C63 C62 1.392 1_556 S
N64 C62 1.420 . S
N64 C65 1.244 . S
C65 N64 1.244 . S
H66 C69 0.929 . S
H67 C72 0.929 . S
H68 C74 0.930 . S
C69 H66 0.929 . S
C69 C70 1.398 . S
C69 C71 1.396 1_556 S
C70 C69 1.398 . S
C70 C74 1.407 . S
C71 C69 1.396 1_554 S
C71 C72 1.394 . S
C72 H67 0.929 . S
C72 C71 1.394 . S
C72 C73 1.382 . S
C73 C72 1.382 . S
C73 C74 1.392 1_554 S
C73 N75 1.420 . S
C74 H68 0.930 . S
C74 C70 1.407 . S
C74 C73 1.392 1_556 S
N75 C73 1.420 . S
N75 C76 1.244 . S
C76 N75 1.244 . S
H77 C80 0.929 . S
H78 C83 0.929 . S
H79 C85 0.930 . S
C80 H77 0.929 . S
C80 C81 1.398 . S
C80 C82 1.396 1_556 S
C81 C80 1.398 . S
C81 C85 1.407 . S
C82 C80 1.396 1_554 S
C82 C83 1.394 . S
C83 H78 0.929 . S
C83 C82 1.394 . S
C83 C84 1.382 . S
C84 C83 1.382 . S
C84 C85 1.392 1_554 S
C84 N86 1.420 . S
C85 H79 0.930 . S
C85 C81 1.407 . S
C85 C84 1.392 1_556 S
N86 C84 1.420 . S
N86 C87 1.244 . S
C87 N86 1.244 . S
Gd88 N119 2.661 1_545 S
Gd88 N125 2.601 . S
Gd88 O132 2.545 . S
Gd88 O133 2.606 1_655 S
Gd88 O135 2.429 . S
Gd88 O136 2.545 1_655 S
Gd88 O137 2.412 . S
Gd88 O139 2.362 1_545 S
Gd88 O140 2.324 1_655 S
Gd88 C147 2.828 . S
Gd89 N98 2.661 1_566 S
Gd89 N102 2.601 1_565 S
Gd89 O133 2.362 1_565 S
Gd89 O134 2.324 1_455 S
Gd89 O138 2.545 . S
Gd89 O139 2.606 1_455 S
Gd89 O141 2.429 . S
Gd89 O142 2.545 . S
Gd89 O143 2.412 1_556 S
Gd89 C156 2.828 . S
C90 C93 1.417 . S
C90 C95 1.431 . S
C90 C96 1.412 . S
C91 C94 1.437 . S
C91 C95 1.317 . S
C91 H110 0.929 . S
C92 C93 1.426 . S
C92 C94 1.413 . S
C92 N102 1.359 1_554 S
C93 C90 1.417 . S
C93 C92 1.426 . S
C93 N98 1.350 . S
C94 C91 1.437 . S
C94 C92 1.413 . S
C94 C104 1.391 . S
C95 C90 1.431 . S
C95 C91 1.317 . S
C95 H106 0.930 . S
C96 C90 1.412 . S
C96 C97 1.355 . S
C96 H108 0.930 . S
C97 C96 1.355 . S
C97 C99 1.402 . S
C97 H109 0.930 1_455 S
N98 Gd89 2.661 1_544 S
N98 C93 1.350 . S
N98 C99 1.307 . S
C99 C97 1.402 . S
C99 N98 1.307 . S
C99 H100 0.930 1_455 S
H100 C99 0.930 1_655 S
C101 N102 1.334 1_565 S
C101 C103 1.394 . S
C101 H105 0.930 . S
N102 Gd89 2.601 1_545 S
N102 C92 1.359 1_556 S
N102 C101 1.334 1_545 S
C103 C101 1.394 . S
C103 C104 1.359 1_566 S
C103 H115 0.930 . S
C104 C94 1.391 . S
C104 C103 1.359 1_544 S
C104 H116 0.929 . S
H105 C101 0.930 . S
H106 C95 0.930 . S
H107 C124 0.930 . S
H108 C96 0.930 . S
H109 C97 0.930 1_655 S
H110 C91 0.929 . S
H111 C129 0.930 . S
H112 C120 0.930 . S
H113 C121 0.930 . S
H114 C145 0.929 . S
H115 C103 0.930 . S
H116 C104 0.929 . S
H117 C146 0.930 . S
H118 C127 0.930 . S
N119 Gd88 2.661 1_565 S
N119 C123 1.350 . S
N119 C124 1.307 1_655 S
C120 H112 0.930 . S
C120 C121 1.355 1_655 S
C120 C122 1.412 . S
C121 H113 0.930 . S
C121 C120 1.355 1_455 S
C121 C124 1.402 . S
C122 C120 1.412 . S
C122 C123 1.417 . S
C122 C146 1.431 . S
C123 N119 1.350 . S
C123 C122 1.417 . S
C123 C126 1.426 . S
C124 H107 0.930 . S
C124 N119 1.307 1_455 S
C124 C121 1.402 . S
N125 Gd88 2.601 . S
N125 C126 1.359 1_545 S
N125 C129 1.334 . S
C126 C123 1.426 . S
C126 N125 1.359 1_565 S
C126 C130 1.413 . S
C127 H118 0.930 . S
C127 C128 1.359 . S
C127 C129 1.394 . S
C128 C127 1.359 . S
C128 C130 1.391 1_545 S
C128 H131 0.929 . S
C129 H111 0.930 . S
C129 N125 1.334 . S
C129 C127 1.394 . S
C130 C126 1.413 . S
C130 C128 1.391 1_565 S
C130 C145 1.437 . S
H131 C128 0.929 . S
O132 Gd88 2.545 . S
O132 C147 1.258 . S
O133 Gd88 2.606 1_455 S
O133 Gd89 2.362 1_545 S
O133 C144 1.284 . S
O134 Gd89 2.324 1_655 S
O134 C154 1.254 1_565 S
O135 Gd88 2.429 . S
O135 C154 1.268 . S
O136 Gd88 2.545 1_455 S
O136 C144 1.250 . S
O137 Gd88 2.412 . S
O137 C147 1.252 . S
O138 Gd89 2.545 . S
O138 C156 1.258 . S
O139 Gd88 2.362 1_565 S
O139 Gd89 2.606 1_655 S
O139 C155 1.284 . S
O140 Gd88 2.324 1_455 S
O140 C163 1.254 . S
O141 Gd89 2.429 . S
O141 C163 1.268 1_565 S
O142 Gd89 2.545 . S
O142 C155 1.250 1_455 S
O143 Gd89 2.412 1_554 S
O143 C156 1.252 1_554 S
C144 O133 1.284 . S
C144 O136 1.250 . S
C145 H114 0.929 . S
C145 C130 1.437 . S
C145 C146 1.317 . S
C146 H117 0.930 . S
C146 C122 1.431 . S
C146 C145 1.317 . S
C147 Gd88 2.828 . S
C147 O132 1.258 . S
C147 O137 1.252 . S
C147 C148 1.497 . S
C148 C147 1.497 . S
C148 C149 1.395 . S
C148 C150 1.380 . S
C149 C148 1.395 . S
C149 C152 1.398 . S
C149 H164 0.930 . S
C150 C148 1.380 . S
C150 C151 1.391 . S
C150 H165 0.930 1_655 S
C151 C150 1.391 . S
C151 C153 1.387 . S
C152 C149 1.398 . S
C152 C153 1.380 . S
C152 H166 0.930 . S
C153 C151 1.387 . S
C153 C152 1.380 . S
C153 H167 0.930 . S
C154 O134 1.254 1_545 S
C154 O135 1.268 . S
C155 O139 1.284 . S
C155 O142 1.250 1_655 S
C156 Gd89 2.828 . S
C156 O138 1.258 . S
C156 O143 1.252 1_556 S
C156 C157 1.497 1_556 S
C157 C156 1.497 1_554 S
C157 C158 1.395 . S
C157 C159 1.380 . S
C158 C157 1.395 . S
C158 C161 1.398 . S
C158 H168 0.930 . S
C159 C157 1.380 . S
C159 C160 1.391 . S
C159 H169 0.930 . S
C160 C159 1.391 . S
C160 C162 1.387 . S
C161 C158 1.398 . S
C161 C162 1.380 . S
C161 H170 0.930 . S
C162 C160 1.387 . S
C162 C161 1.380 . S
C162 H171 0.930 . S
C163 O140 1.254 . S
C163 O141 1.268 1_545 S
H164 C149 0.930 . S
H165 C150 0.930 1_455 S
H166 C152 0.930 . S
H167 C153 0.930 . S
H168 C158 0.930 . S
H169 C159 0.930 . S
H170 C161 0.930 . S
H171 C162 0.930 . S
Gd172 N203 2.661 . S
Gd172 N209 2.601 . S
Gd172 O216 2.545 . S
Gd172 O217 2.606 1_565 S
Gd172 O219 2.429 . S
Gd172 O220 2.545 1_565 S
Gd172 O221 2.412 . S
Gd172 O223 2.362 . S
Gd172 O224 2.324 1_565 S
Gd172 C231 2.828 . S
Gd173 N182 2.661 1_556 S
Gd173 N186 2.601 . S
Gd173 O217 2.362 . S
Gd173 O218 2.324 1_545 S
Gd173 O222 2.545 . S
Gd173 O223 2.606 1_545 S
Gd173 O225 2.429 . S
Gd173 O226 2.545 . S
Gd173 O227 2.412 1_556 S
Gd173 C240 2.828 . S
C174 C177 1.417 . S
C174 C179 1.431 . S
C174 C180 1.412 . S
C175 C178 1.437 . S
C175 C179 1.317 . S
C175 H194 0.929 . S
C176 C177 1.426 . S
C176 C178 1.413 . S
C176 N186 1.359 1_554 S
C177 C174 1.417 . S
C177 C176 1.426 . S
C177 N182 1.350 . S
C178 C175 1.437 . S
C178 C176 1.413 . S
C178 C188 1.391 . S
C179 C174 1.431 . S
C179 C175 1.317 . S
C179 H190 0.930 . S
C180 C174 1.412 . S
C180 C181 1.355 . S
C180 H192 0.930 . S
C181 C180 1.355 . S
C181 C183 1.402 . S
C181 H193 0.930 1_545 S
N182 Gd173 2.661 1_554 S
N182 C177 1.350 . S
N182 C183 1.307 . S
C183 C181 1.402 . S
C183 N182 1.307 . S
C183 H184 0.930 1_545 S
H184 C183 0.930 1_565 S
C185 N186 1.334 . S
C185 C187 1.394 . S
C185 H189 0.930 . S
N186 Gd173 2.601 . S
N186 C176 1.359 1_556 S
N186 C185 1.334 . S
C187 C185 1.394 . S
C187 C188 1.359 1_556 S
C187 H199 0.930 . S
C188 C178 1.391 . S
C188 C187 1.359 1_554 S
C188 H200 0.929 . S
H189 C185 0.930 . S
H190 C179 0.930 . S
H191 C208 0.930 . S
H192 C180 0.930 . S
H193 C181 0.930 1_565 S
H194 C175 0.929 . S
H195 C213 0.930 . S
H196 C204 0.930 . S
H197 C205 0.930 . S
H198 C229 0.929 . S
H199 C187 0.930 . S
H200 C188 0.929 . S
H201 C230 0.930 . S
H202 C211 0.930 . S
N203 Gd172 2.661 . S
N203 C207 1.350 . S
N203 C208 1.307 1_565 S
C204 H196 0.930 . S
C204 C205 1.355 1_565 S
C204 C206 1.412 . S
C205 H197 0.930 . S
C205 C204 1.355 1_545 S
C205 C208 1.402 . S
C206 C204 1.412 . S
C206 C207 1.417 . S
C206 C230 1.431 . S
C207 N203 1.350 . S
C207 C206 1.417 . S
C207 C210 1.426 . S
C208 H191 0.930 . S
C208 N203 1.307 1_545 S
C208 C205 1.402 . S
N209 Gd172 2.601 . S
N209 C210 1.359 . S
N209 C213 1.334 . S
C210 C207 1.426 . S
C210 N209 1.359 . S
C210 C214 1.413 . S
C211 H202 0.930 . S
C211 C212 1.359 . S
C211 C213 1.394 . S
C212 C211 1.359 . S
C212 C214 1.391 . S
C212 H215 0.929 . S
C213 H195 0.930 . S
C213 N209 1.334 . S
C213 C211 1.394 . S
C214 C210 1.413 . S
C214 C212 1.391 . S
C214 C229 1.437 . S
H215 C212 0.929 . S
O216 Gd172 2.545 . S
O216 C231 1.258 . S
O217 Gd172 2.606 1_545 S
O217 Gd173 2.362 . S
O217 C228 1.284 . S
O218 Gd173 2.324 1_565 S
O218 C238 1.254 . S
O219 Gd172 2.429 . S
O219 C238 1.268 . S
O220 Gd172 2.545 1_545 S
O220 C228 1.250 . S
O221 Gd172 2.412 . S
O221 C231 1.252 . S
O222 Gd173 2.545 . S
O222 C240 1.258 . S
O223 Gd172 2.362 . S
O223 Gd173 2.606 1_565 S
O223 C239 1.284 . S
O224 Gd172 2.324 1_545 S
O224 C247 1.254 . S
O225 Gd173 2.429 . S
O225 C247 1.268 . S
O226 Gd173 2.545 . S
O226 C239 1.250 1_545 S
O227 Gd173 2.412 1_554 S
O227 C240 1.252 1_554 S
C228 O217 1.284 . S
C228 O220 1.250 . S
C229 H198 0.929 . S
C229 C214 1.437 . S
C229 C230 1.317 . S
C230 H201 0.930 . S
C230 C206 1.431 . S
C230 C229 1.317 . S
C231 Gd172 2.828 . S
C231 O216 1.258 . S
C231 O221 1.252 . S
C231 C232 1.497 . S
C232 C231 1.497 . S
C232 C233 1.395 . S
C232 C234 1.380 . S
C233 C232 1.395 . S
C233 C236 1.398 . S
C233 H248 0.930 . S
C234 C232 1.380 . S
C234 C235 1.391 . S
C234 H249 0.930 1_565 S
C235 C234 1.391 . S
C235 C237 1.387 . S
C236 C233 1.398 . S
C236 C237 1.380 . S
C236 H250 0.930 . S
C237 C235 1.387 . S
C237 C236 1.380 . S
C237 H251 0.930 . S
C238 O218 1.254 . S
C238 O219 1.268 . S
C239 O223 1.284 . S
C239 O226 1.250 1_565 S
C240 Gd173 2.828 . S
C240 O222 1.258 . S
C240 O227 1.252 1_556 S
C240 C241 1.497 1_556 S
C241 C240 1.497 1_554 S
C241 C242 1.395 . S
C241 C243 1.380 . S
C242 C241 1.395 . S
C242 C245 1.398 . S
C242 H252 0.930 . S
C243 C241 1.380 . S
C243 C244 1.391 . S
C243 H253 0.930 . S
C244 C243 1.391 . S
C244 C246 1.387 . S
C245 C242 1.398 . S
C245 C246 1.380 . S
C245 H254 0.930 . S
C246 C244 1.387 . S
C246 C245 1.380 . S
C246 H255 0.930 . S
C247 O224 1.254 . S
C247 O225 1.268 . S
H248 C233 0.930 . S
H249 C234 0.930 1_545 S
H250 C236 0.930 . S
H251 C237 0.930 . S
H252 C242 0.930 . S
H253 C243 0.930 . S
H254 C245 0.930 . S
H255 C246 0.930 . S
Gd256 N287 2.661 . S
Gd256 N293 2.601 . S
Gd256 O300 2.545 1_556 S
Gd256 O301 2.606 . S
Gd256 O303 2.429 . S
Gd256 O304 2.545 . S
Gd256 O305 2.412 . S
Gd256 O307 2.362 . S
Gd256 O308 2.324 . S
Gd256 C315 2.828 1_556 S
Gd257 N266 2.661 . S
Gd257 N270 2.601 . S
Gd257 O301 2.362 . S
Gd257 O302 2.324 . S
Gd257 O306 2.545 . S
Gd257 O307 2.606 . S
Gd257 O309 2.429 . S
Gd257 O310 2.545 . S
Gd257 O311 2.412 . S
Gd257 C324 2.828 . S
C258 C261 1.417 . S
C258 C263 1.431 . S
C258 C264 1.412 . S
C259 C262 1.437 . S
C259 C263 1.317 . S
C259 H278 0.929 . S
C260 C261 1.426 . S
C260 C262 1.413 . S
C260 N270 1.359 . S
C261 C258 1.417 . S
C261 C260 1.426 . S
C261 N266 1.350 . S
C262 C259 1.437 . S
C262 C260 1.413 . S
C262 C272 1.391 . S
C263 C258 1.431 . S
C263 C259 1.317 . S
C263 H274 0.930 . S
C264 C258 1.412 . S
C264 C265 1.355 . S
C264 H276 0.930 . S
C265 C264 1.355 . S
C265 C267 1.402 . S
C265 H277 0.930 . S
N266 Gd257 2.661 . S
N266 C261 1.350 . S
N266 C267 1.307 . S
C267 C265 1.402 . S
C267 N266 1.307 . S
C267 H268 0.930 . S
H268 C267 0.930 . S
C269 N270 1.334 . S
C269 C271 1.394 . S
C269 H273 0.930 . S
N270 Gd257 2.601 . S
N270 C260 1.359 . S
N270 C269 1.334 . S
C271 C269 1.394 . S
C271 C272 1.359 . S
C271 H283 0.930 . S
C272 C262 1.391 . S
C272 C271 1.359 . S
C272 H284 0.929 . S
H273 C269 0.930 . S
H274 C263 0.930 . S
H275 C292 0.930 . S
H276 C264 0.930 . S
H277 C265 0.930 . S
H278 C259 0.929 . S
H279 C297 0.930 . S
H280 C288 0.930 . S
H281 C289 0.930 . S
H282 C313 0.929 . S
H283 C271 0.930 . S
H284 C272 0.929 . S
H285 C314 0.930 . S
H286 C295 0.930 . S
N287 Gd256 2.661 . S
N287 C291 1.350 . S
N287 C292 1.307 . S
C288 H280 0.930 . S
C288 C289 1.355 . S
C288 C290 1.412 . S
C289 H281 0.930 . S
C289 C288 1.355 . S
C289 C292 1.402 . S
C290 C288 1.412 . S
C290 C291 1.417 . S
C290 C314 1.431 . S
C291 N287 1.350 . S
C291 C290 1.417 . S
C291 C294 1.426 . S
C292 H275 0.930 . S
C292 N287 1.307 . S
C292 C289 1.402 . S
N293 Gd256 2.601 . S
N293 C294 1.359 . S
N293 C297 1.334 1_556 S
C294 C291 1.426 . S
C294 N293 1.359 . S
C294 C298 1.413 . S
C295 H286 0.930 . S
C295 C296 1.359 . S
C295 C297 1.394 . S
C296 C295 1.359 . S
C296 C298 1.391 1_554 S
C296 H299 0.929 . S
C297 H279 0.930 . S
C297 N293 1.334 1_554 S
C297 C295 1.394 . S
C298 C294 1.413 . S
C298 C296 1.391 1_556 S
C298 C313 1.437 . S
H299 C296 0.929 . S
O300 Gd256 2.545 1_554 S
O300 C315 1.258 . S
O301 Gd256 2.606 . S
O301 Gd257 2.362 . S
O301 C312 1.284 . S
O302 Gd257 2.324 . S
O302 C322 1.254 . S
O303 Gd256 2.429 . S
O303 C322 1.268 . S
O304 Gd256 2.545 . S
O304 C312 1.250 . S
O305 Gd256 2.412 . S
O305 C315 1.252 1_556 S
O306 Gd257 2.545 . S
O306 C324 1.258 . S
O307 Gd256 2.362 . S
O307 Gd257 2.606 . S
O307 C323 1.284 . S
O308 Gd256 2.324 . S
O308 C331 1.254 . S
O309 Gd257 2.429 . S
O309 C331 1.268 . S
O310 Gd257 2.545 . S
O310 C323 1.250 . S
O311 Gd257 2.412 . S
O311 C324 1.252 . S
C312 O301 1.284 . S
C312 O304 1.250 . S
C313 H282 0.929 . S
C313 C298 1.437 . S
C313 C314 1.317 . S
C314 H285 0.930 . S
C314 C290 1.431 . S
C314 C313 1.317 . S
C315 Gd256 2.828 1_554 S
C315 O300 1.258 . S
C315 O305 1.252 1_554 S
C315 C316 1.497 . S
C316 C315 1.497 . S
C316 C317 1.395 . S
C316 C318 1.380 . S
C317 C316 1.395 . S
C317 C320 1.398 . S
C317 H332 0.930 . S
C318 C316 1.380 . S
C318 C319 1.391 . S
C318 H333 0.930 . S
C319 C318 1.391 . S
C319 C321 1.387 . S
C320 C317 1.398 . S
C320 C321 1.380 . S
C320 H334 0.930 . S
C321 C319 1.387 . S
C321 C320 1.380 . S
C321 H335 0.930 . S
C322 O302 1.254 . S
C322 O303 1.268 . S
C323 O307 1.284 . S
C323 O310 1.250 . S
C324 Gd257 2.828 . S
C324 O306 1.258 . S
C324 O311 1.252 . S
C324 C325 1.497 . S
C325 C324 1.497 . S
C325 C326 1.395 . S
C325 C327 1.380 . S
C326 C325 1.395 . S
C326 C329 1.398 . S
C326 H336 0.930 . S
C327 C325 1.380 . S
C327 C328 1.391 . S
C327 H337 0.930 . S
C328 C327 1.391 . S
C328 C330 1.387 . S
C329 C326 1.398 . S
C329 C330 1.380 . S
C329 H338 0.930 . S
C330 C328 1.387 . S
C330 C329 1.380 . S
C330 H339 0.930 . S
C331 O308 1.254 . S
C331 O309 1.268 . S
H332 C317 0.930 . S
H333 C318 0.930 . S
H334 C320 0.930 . S
H335 C321 0.930 . S
H336 C326 0.930 . S
H337 C327 0.930 . S
H338 C329 0.930 . S
H339 C330 0.930 . S
Gd340 N371 2.661 . S
Gd340 N377 2.609 . S
Gd340 O384 2.545 1_556 S
Gd340 O385 2.606 1_655 S
Gd340 O387 2.429 1_655 S
Gd340 O388 2.545 . S
Gd340 O389 2.412 . S
Gd340 O391 2.362 1_655 S
Gd340 O392 2.324 . S
Gd340 C399 2.828 1_556 S
Gd341 N350 2.661 . S
Gd341 N354 2.601 . S
Gd341 O385 2.362 . S
Gd341 O386 2.324 . S
Gd341 O390 2.545 . S
Gd341 O391 2.606 . S
Gd341 O393 2.429 1_455 S
Gd341 O394 2.545 . S
Gd341 O395 2.412 . S
Gd341 C408 2.828 . S
C342 C345 1.417 . S
C342 C347 1.431 . S
C342 C348 1.412 . S
C343 C346 1.437 . S
C343 C347 1.317 . S
C343 H362 0.929 . S
C344 C345 1.426 . S
C344 C346 1.413 . S
C344 N354 1.359 . S
C345 C342 1.417 . S
C345 C344 1.426 . S
C345 N350 1.350 . S
C346 C343 1.437 . S
C346 C344 1.413 . S
C346 C356 1.391 . S
C347 C342 1.431 . S
C347 C343 1.317 . S
C347 H358 0.930 . S
C348 C342 1.412 . S
C348 C349 1.355 . S
C348 H360 0.930 . S
C349 C348 1.355 . S
C349 C351 1.402 . S
C349 H361 0.930 . S
N350 Gd341 2.661 . S
N350 C345 1.350 . S
N350 C351 1.307 . S
C351 C349 1.402 . S
C351 N350 1.307 . S
C351 H352 0.930 . S
H352 C351 0.930 . S
C353 N354 1.334 1_655 S
C353 C355 1.394 . S
C353 H357 0.930 . S
N354 Gd341 2.601 . S
N354 C344 1.359 . S
N354 C353 1.334 1_455 S
C355 C353 1.394 . S
C355 C356 1.359 1_655 S
C355 H367 0.930 . S
C356 C346 1.391 . S
C356 C355 1.359 1_455 S
C356 H368 0.929 1_455 S
H357 C353 0.930 . S
H358 C347 0.930 . S
H359 C376 0.930 . S
H360 C348 0.930 . S
H361 C349 0.930 . S
H362 C343 0.929 . S
H363 C381 0.930 . S
H364 C372 0.930 . S
H365 C373 0.930 . S
H366 C397 0.929 . S
H367 C355 0.930 . S
H368 C356 0.929 1_655 S
H369 C398 0.930 . S
H370 C379 0.930 . S
N371 Gd340 2.661 . S
N371 C375 1.350 . S
N371 C376 1.307 . S
C372 H364 0.930 . S
C372 C373 1.355 . S
C372 C374 1.412 . S
C373 H365 0.930 . S
C373 C372 1.355 . S
C373 C376 1.402 . S
C374 C372 1.412 . S
C374 C375 1.417 . S
C374 C398 1.431 . S
C375 N371 1.350 . S
C375 C374 1.417 . S
C375 C378 1.426 . S
C376 H359 0.930 . S
C376 N371 1.307 . S
C376 C373 1.402 . S
N377 Gd340 2.609 . S
N377 C378 1.374 . S
N377 C381 1.314 1_656 S
C378 C375 1.426 . S
C378 N377 1.374 . S
C378 C382 1.413 . S
C379 H370 0.930 . S
C379 C380 1.359 . S
C379 C381 1.394 . S
C380 C379 1.359 . S
C380 C382 1.391 1_454 S
C380 H383 0.929 . S
C381 H363 0.930 . S
C381 N377 1.314 1_454 S
C381 C379 1.394 . S
C382 C378 1.413 . S
C382 C380 1.391 1_656 S
C382 C397 1.437 . S
H383 C380 0.929 . S
O384 Gd340 2.545 1_554 S
O384 C399 1.258 . S
O385 Gd340 2.606 1_455 S
O385 Gd341 2.362 . S
O385 C396 1.284 1_455 S
O386 Gd341 2.324 . S
O386 C406 1.254 . S
O387 Gd340 2.429 1_455 S
O387 C406 1.268 . S
O388 Gd340 2.545 . S
O388 C396 1.250 . S
O389 Gd340 2.412 . S
O389 C399 1.252 1_556 S
O390 Gd341 2.545 . S
O390 C408 1.258 . S
O391 Gd340 2.362 1_455 S
O391 Gd341 2.606 . S
O391 C407 1.284 . S
O392 Gd340 2.324 . S
O392 C415 1.254 . S
O393 Gd341 2.429 1_655 S
O393 C415 1.268 . S
O394 Gd341 2.545 . S
O394 C407 1.250 . S
O395 Gd341 2.412 . S
O395 C408 1.252 . S
C396 O385 1.284 1_655 S
C396 O388 1.250 . S
C397 H366 0.929 . S
C397 C382 1.437 . S
C397 C398 1.317 . S
C398 H369 0.930 . S
C398 C374 1.431 . S
C398 C397 1.317 . S
C399 Gd340 2.828 1_554 S
C399 O384 1.258 . S
C399 O389 1.252 1_554 S
C399 C400 1.497 . S
C400 C399 1.497 . S
C400 C401 1.395 . S
C400 C402 1.380 . S
C401 C400 1.395 . S
C401 C404 1.398 . S
C401 H416 0.930 . S
C402 C400 1.380 . S
C402 C403 1.391 . S
C402 H417 0.930 . S
C403 C402 1.391 . S
C403 C405 1.387 . S
C404 C401 1.398 . S
C404 C405 1.380 . S
C404 H418 0.930 . S
C405 C403 1.387 . S
C405 C404 1.380 . S
C405 H419 0.930 . S
C406 O386 1.254 . S
C406 O387 1.268 . S
C407 O391 1.284 . S
C407 O394 1.250 . S
C408 Gd341 2.828 . S
C408 O390 1.258 . S
C408 O395 1.252 . S
C408 C409 1.497 . S
C409 C408 1.497 . S
C409 C410 1.395 . S
C409 C411 1.380 . S
C410 C409 1.395 . S
C410 C413 1.398 . S
C410 H420 0.930 . S
C411 C409 1.380 . S
C411 C412 1.391 . S
C411 H421 0.930 . S
C412 C411 1.391 . S
C412 C414 1.387 . S
C413 C410 1.398 . S
C413 C414 1.380 . S
C413 H422 0.930 . S
C414 C412 1.387 . S
C414 C413 1.380 . S
C414 H423 0.930 . S
C415 O392 1.254 . S
C415 O393 1.268 . S
H416 C401 0.930 . S
H417 C402 0.930 . S
H418 C404 0.930 . S
H419 C405 0.930 . S
H420 C410 0.930 . S
H421 C411 0.930 . S
H422 C413 0.930 . S
H423 C414 0.930 . S
C424 C425 1.369 . S
C424 C426 1.419 . S
C424 H428 0.930 . S
C425 C424 1.369 . S
C425 C434 1.429 . S
C426 C424 1.419 . S
C426 C427 1.363 . S
C426 H429 0.929 . S
C427 C426 1.363 . S
C427 C433 1.428 . S
H428 C424 0.930 . S
H429 C426 0.929 . S
S430 N431 1.613 . S
S430 N432 1.610 . S
N431 S430 1.613 . S
N431 C434 1.350 . S
N432 S430 1.610 . S
N432 C433 1.351 . S
C433 C427 1.428 . S
C433 N432 1.351 . S
C433 C434 1.434 . S
C434 C425 1.429 . S
C434 N431 1.350 . S
C434 C433 1.434 . S
C435 C436 1.369 . S
C435 C437 1.419 . S
C435 H439 0.930 . S
C436 C435 1.369 . S
C436 C445 1.429 . S
C437 C435 1.419 . S
C437 C438 1.363 . S
C437 H440 0.929 . S
C438 C437 1.363 . S
C438 C444 1.428 . S
H439 C435 0.930 . S
H440 C437 0.929 . S
S441 N442 1.613 . S
S441 N443 1.610 . S
N442 S441 1.613 . S
N442 C445 1.350 . S
N443 S441 1.610 . S
N443 C444 1.351 . S
C444 C438 1.428 . S
C444 N443 1.351 . S
C444 C445 1.434 . S
C445 C436 1.429 . S
C445 N442 1.350 . S
C445 C444 1.434 . S
C446 C447 1.369 . S
C446 C448 1.419 . S
C446 H450 0.930 . S
C447 C446 1.369 . S
C447 C456 1.429 . S
C448 C446 1.419 . S
C448 C449 1.363 . S
C448 H451 0.929 . S
C449 C448 1.363 . S
C449 C455 1.428 . S
H450 C446 0.930 . S
H451 C448 0.929 . S
S452 N453 1.613 . S
S452 N454 1.610 . S
N453 S452 1.613 . S
N453 C456 1.350 . S
N454 S452 1.610 . S
N454 C455 1.351 . S
C455 C449 1.428 . S
C455 N454 1.351 . S
C455 C456 1.434 . S
C456 C447 1.429 . S
C456 N453 1.350 . S
C456 C455 1.434 . S
C457 C458 1.369 . S
C457 C459 1.419 . S
C457 H461 0.930 . S
C458 C457 1.369 . S
C458 C467 1.429 . S
C459 C457 1.419 . S
C459 C460 1.363 . S
C459 H462 0.929 . S
C460 C459 1.363 . S
C460 C466 1.428 . S
H461 C457 0.930 . S
H462 C459 0.929 . S
S463 N464 1.613 1_655 S
S463 N465 1.610 . S
N464 S463 1.613 1_455 S
N464 C467 1.350 . S
N465 S463 1.610 . S
N465 C466 1.351 1_655 S
C466 C460 1.428 . S
C466 N465 1.351 1_455 S
C466 C467 1.434 . S
C467 C458 1.429 . S
C467 N464 1.350 . S
C467 C466 1.434 . S
C468 C469 1.366 1_545 S
C468 C470 1.419 . S
C468 H472 0.933 . S
C469 C468 1.366 1_565 S
C469 C478 1.429 . S
C470 C468 1.419 . S
C470 C471 1.363 1_544 S
C470 H473 0.929 1_554 S
C471 C470 1.363 1_566 S
C471 C477 1.428 1_556 S
H472 C468 0.933 . S
H473 C470 0.929 1_556 S
S474 N475 1.613 . S
S474 N476 1.610 . S
N475 S474 1.613 . S
N475 C478 1.350 . S
N476 S474 1.610 . S
N476 C477 1.351 . S
C477 C471 1.428 1_554 S
C477 N476 1.351 . S
C477 C478 1.434 . S
C478 C469 1.429 . S
C478 N475 1.350 . S
C478 C477 1.434 . S
C479 C480 1.369 . S
C479 C481 1.419 . S
C479 H483 0.930 . S
C480 C479 1.369 . S
C480 C489 1.429 . S
C481 C479 1.419 . S
C481 C482 1.363 1_554 S
C481 H484 0.929 . S
C482 C481 1.363 1_556 S
C482 C488 1.428 1_556 S
H483 C479 0.930 . S
H484 C481 0.929 . S
S485 N486 1.613 1_556 S
S485 N487 1.610 . S
N486 S485 1.613 1_554 S
N486 C489 1.350 . S
N487 S485 1.610 . S
N487 C488 1.351 1_556 S
C488 C482 1.428 1_554 S
C488 N487 1.351 1_554 S
C488 C489 1.434 . S
C489 C480 1.429 . S
C489 N486 1.350 . S
C489 C488 1.434 . S
C490 C491 1.369 . S
C490 C492 1.419 . S
C490 H494 0.930 . S
C491 C490 1.369 . S
C491 C500 1.429 . S
C492 C490 1.419 . S
C492 C493 1.363 1_554 S
C492 H495 0.929 1_554 S
C493 C492 1.363 1_556 S
C493 C499 1.428 1_556 S
H494 C490 0.930 . S
H495 C492 0.929 1_556 S
S496 N497 1.613 . S
S496 N498 1.610 . S
N497 S496 1.613 . S
N497 C500 1.350 . S
N498 S496 1.610 . S
N498 C499 1.351 . S
C499 C493 1.428 1_554 S
C499 N498 1.351 . S
C499 C500 1.434 . S
C500 C491 1.429 . S
C500 N497 1.350 . S
C500 C499 1.434 . S
C501 C502 1.369 . S
C501 C503 1.419 . S
C501 H505 0.930 . S
C502 C501 1.369 . S
C502 C511 1.429 . S
C503 C501 1.419 . S
C503 C504 1.363 1_554 S
C503 H506 0.929 . S
C504 C503 1.363 1_556 S
C504 C510 1.428 . S
H505 C501 0.930 . S
H506 C503 0.929 . S
S507 N508 1.613 1_556 S
S507 N509 1.610 . S
N508 S507 1.613 1_554 S
N508 C511 1.350 . S
N509 S507 1.610 . S
N509 C510 1.351 . S
C510 C504 1.428 . S
C510 N509 1.351 . S
C510 C511 1.434 1_556 S
C511 C502 1.429 . S
C511 N508 1.350 . S
C511 C510 1.434 1_554 S
C512 C513 1.369 . S
C512 C514 1.419 . S
C512 H516 0.930 . S
C513 C512 1.369 . S
C513 C522 1.429 . S
C514 C512 1.419 . S
C514 C515 1.337 1_455 S
C514 H517 0.929 . S
C515 C514 1.337 1_655 S
C515 C521 1.435 . S
H516 C512 0.930 . S
H517 C514 0.929 . S
S518 N519 1.613 1_655 S
S518 N520 1.610 . S
N519 S518 1.613 1_455 S
N519 C522 1.350 . S
N520 S518 1.610 . S
N520 C521 1.351 . S
C521 C515 1.435 . S
C521 N520 1.351 . S
C521 C522 1.434 1_655 S
C522 C513 1.429 . S
C522 N519 1.350 . S
C522 C521 1.434 1_455 S
C523 C524 1.369 . S
C523 C525 1.419 . S
C523 H527 0.930 . S
C524 C523 1.369 . S
C524 C533 1.429 . S
C525 C523 1.419 . S
C525 C526 1.362 1_545 S
C525 H528 0.929 1_545 S
C526 C525 1.362 1_565 S
C526 C532 1.419 1_565 S
H527 C523 0.930 . S
H528 C525 0.929 1_565 S
S529 N530 1.613 1_556 S
S529 N531 1.610 1_556 S
N530 S529 1.613 1_554 S
N530 C533 1.350 . S
N531 S529 1.610 1_554 S
N531 C532 1.351 . S
C532 C526 1.419 1_545 S
C532 N531 1.351 . S
C532 C533 1.434 . S
C533 C524 1.429 . S
C533 N530 1.350 . S
C533 C532 1.434 . S
C534 C535 1.369 . S
C534 C536 1.419 . S
C534 H538 0.930 . S
C535 C534 1.369 . S
C535 C544 1.429 . S
C536 C534 1.419 . S
C536 C537 1.363 . S
C536 H539 0.929 . S
C537 C536 1.363 . S
C537 C543 1.428 . S
H538 C534 0.930 . S
H539 C536 0.929 . S
S540 N541 1.613 . S
S540 N542 1.610 . S
N541 S540 1.613 . S
N541 C544 1.350 . S
N542 S540 1.610 . S
N542 C543 1.351 . S
C543 C537 1.428 . S
C543 N542 1.351 . S
C543 C544 1.434 . S
C544 C535 1.429 . S
C544 N541 1.350 . S
C544 C543 1.434 . S
C545 C546 1.369 . S
C545 C547 1.419 . S
C545 H549 0.930 . S
C546 C545 1.369 . S
C546 C555 1.429 . S
C547 C545 1.419 . S
C547 C548 1.363 . S
C547 H550 0.929 . S
C548 C547 1.363 . S
C548 C554 1.428 . S
H549 C545 0.930 . S
H550 C547 0.929 . S
S551 N552 1.613 . S
S551 N553 1.610 1_556 S
N552 S551 1.613 . S
N552 C555 1.350 1_556 S
N553 S551 1.610 1_554 S
N553 C554 1.351 . S
C554 C548 1.428 . S
C554 N553 1.351 . S
C554 C555 1.434 . S
C555 C546 1.429 . S
C555 N552 1.350 1_554 S
C555 C554 1.434 . S
C556 C557 1.369 . S
C556 C558 1.419 1_655 S
C556 H560 0.930 1_655 S
C557 C556 1.369 . S
C557 C566 1.429 . S
C558 C556 1.419 1_455 S
C558 C559 1.363 . S
C558 H561 0.929 . S
C559 C558 1.363 . S
C559 C565 1.428 1_455 S
H560 C556 0.930 1_455 S
H561 C558 0.929 . S
S562 N563 1.613 . S
S562 N564 1.610 . S
N563 S562 1.613 . S
N563 C566 1.350 . S
N564 S562 1.610 . S
N564 C565 1.351 . S
C565 C559 1.428 1_655 S
C565 N564 1.351 . S
C565 C566 1.434 . S
C566 C557 1.429 . S
C566 N563 1.350 . S
C566 C565 1.434 . S
C567 C568 1.369 . S
C567 C569 1.419 . S
C567 H571 0.930 . S
C568 C567 1.369 . S
C568 C577 1.429 1_565 S
C569 C567 1.419 . S
C569 C570 1.363 1_565 S
C569 H572 0.929 . S
C570 C569 1.363 1_545 S
C570 C576 1.428 . S
H571 C567 0.930 . S
H572 C569 0.929 . S
S573 N574 1.613 . S
S573 N575 1.610 . S
N574 S573 1.613 . S
N574 C577 1.350 . S
N575 S573 1.610 . S
N575 C576 1.351 . S
C576 C570 1.428 . S
C576 N575 1.351 . S
C576 C577 1.434 . S
C577 C568 1.429 1_545 S
C577 N574 1.350 . S
C577 C576 1.434 . S
C578 C579 1.369 . S
C578 C580 1.419 . S
C578 H582 0.930 . S
C579 C578 1.369 . S
C579 C588 1.429 . S
C580 C578 1.419 . S
C580 C581 1.363 . S
C580 H583 0.929 . S
C581 C580 1.363 . S
C581 C587 1.428 . S
H582 C578 0.930 . S
H583 C580 0.929 . S
S584 N585 1.613 1_556 S
S584 N586 1.610 1_556 S
N585 S584 1.613 1_554 S
N585 C588 1.350 . S
N586 S584 1.610 1_554 S
N586 C587 1.351 . S
C587 C581 1.428 . S
C587 N586 1.351 . S
C587 C588 1.434 . S
C588 C579 1.429 . S
C588 N585 1.350 . S
C588 C587 1.434 . S
C589 C590 1.369 . S
C589 C591 1.419 . S
C589 H593 0.930 . S
C590 C589 1.369 . S
C590 C599 1.429 . S
C591 C589 1.419 . S
C591 C592 1.363 . S
C591 H594 0.929 . S
C592 C591 1.363 . S
C592 C598 1.428 . S
H593 C589 0.930 . S
H594 C591 0.929 . S
S595 N596 1.613 . S
S595 N597 1.610 . S
N596 S595 1.613 . S
N596 C599 1.350 . S
N597 S595 1.610 . S
N597 C598 1.351 . S
C598 C592 1.428 . S
C598 N597 1.351 . S
C598 C599 1.434 . S
C599 C590 1.429 . S
C599 N596 1.350 . S
C599 C598 1.434 . S
C600 C601 1.369 . S
C600 C602 1.419 . S
C600 H604 0.930 . S
C601 C600 1.369 . S
C601 C610 1.429 . S
C602 C600 1.419 . S
C602 C603 1.363 . S
C602 H605 0.929 . S
C603 C602 1.363 . S
C603 C609 1.428 . S
H604 C600 0.930 . S
H605 C602 0.929 . S
S606 N607 1.613 . S
S606 N608 1.610 . S
N607 S606 1.613 . S
N607 C610 1.350 1_554 S
N608 S606 1.610 . S
N608 C609 1.351 1_554 S
C609 C603 1.428 . S
C609 N608 1.351 1_556 S
C609 C610 1.434 . S
C610 C601 1.429 . S
C610 N607 1.350 1_556 S
C610 C609 1.434 . S
C611 C612 1.369 . S
C611 C613 1.419 . S
C611 H615 0.930 . S
C612 C611 1.369 . S
C612 C621 1.429 . S
C613 C611 1.419 . S
C613 C614 1.363 . S
C613 H616 0.929 . S
C614 C613 1.363 . S
C614 C620 1.428 . S
H615 C611 0.930 . S
H616 C613 0.929 . S
S617 N618 1.613 . S
S617 N619 1.610 . S
N618 S617 1.613 . S
N618 C621 1.350 1_554 S
N619 S617 1.610 . S
N619 C620 1.351 1_554 S
C620 C614 1.428 . S
C620 N619 1.351 1_556 S
C620 C621 1.434 . S
C621 C612 1.429 . S
C621 N618 1.350 1_556 S
C621 C620 1.434 . S
C622 C623 1.369 . S
C622 C624 1.419 . S
C622 H626 0.930 . S
C623 C622 1.369 . S
C623 C632 1.429 . S
C624 C622 1.419 . S
C624 C625 1.363 . S
C624 H627 0.929 . S
C625 C624 1.363 . S
C625 C631 1.428 . S
H626 C622 0.930 . S
H627 C624 0.929 . S
S628 N629 1.613 . S
S628 N630 1.610 . S
N629 S628 1.613 . S
N629 C632 1.350 . S
N630 S628 1.610 . S
N630 C631 1.351 . S
C631 C625 1.428 . S
C631 N630 1.351 . S
C631 C632 1.434 . S
C632 C623 1.429 . S
C632 N629 1.350 . S
C632 C631 1.434 . S
C633 C634 1.369 . S
C633 C635 1.419 . S
C633 H637 0.930 . S
C634 C633 1.369 . S
C634 C643 1.429 . S
C635 C633 1.419 . S
C635 C636 1.363 . S
C635 H638 0.929 . S
C636 C635 1.363 . S
C636 C642 1.428 . S
H637 C633 0.930 . S
H638 C635 0.929 . S
S639 N640 1.613 . S
S639 N641 1.610 . S
N640 S639 1.613 . S
N640 C643 1.350 . S
N641 S639 1.610 . S
N641 C642 1.351 . S
C642 C636 1.428 . S
C642 N641 1.351 . S
C642 C643 1.434 . S
C643 C634 1.429 . S
C643 N640 1.350 . S
C643 C642 1.434 . S
C644 C645 1.369 . S
C644 C646 1.419 . S
C644 H648 0.930 . S
C645 C644 1.369 . S
C645 C654 1.428 . S
C646 C644 1.419 . S
C646 C647 1.363 . S
C646 H649 0.929 . S
C647 C646 1.363 . S
C647 C653 1.428 1_655 S
H648 C644 0.930 . S
H649 C646 0.929 . S
S650 N651 1.613 . S
S650 N652 1.610 . S
N651 S650 1.613 . S
N651 C654 1.351 1_455 S
N652 S650 1.610 . S
N652 C653 1.351 . S
C653 C647 1.428 1_455 S
C653 N652 1.351 . S
C653 C654 1.434 1_455 S
C654 C645 1.428 . S
C654 N651 1.351 1_655 S
C654 C653 1.434 1_655 S
C655 C656 1.369 . S
C655 C657 1.419 . S
C655 H659 0.930 . S
C656 C655 1.369 . S
C656 C665 1.429 . S
C657 C655 1.419 . S
C657 C658 1.363 . S
C657 H660 0.929 . S
C658 C657 1.363 . S
C658 C664 1.428 . S
H659 C655 0.930 . S
H660 C657 0.929 . S
S661 N662 1.613 . S
S661 N663 1.610 . S
N662 S661 1.613 . S
N662 C665 1.350 . S
N663 S661 1.610 . S
N663 C664 1.351 . S
C664 C658 1.428 . S
C664 N663 1.351 . S
C664 C665 1.434 . S
C665 C656 1.429 . S
C665 N662 1.350 . S
C665 C664 1.434 . S
C666 C667 1.369 . S
C666 C668 1.419 . S
C666 H670 0.930 . S
C667 C666 1.369 . S
C667 C676 1.429 . S
C668 C666 1.419 . S
C668 C669 1.363 . S
C668 H671 0.929 . S
C669 C668 1.363 . S
C669 C675 1.428 . S
H670 C666 0.930 . S
H671 C668 0.929 . S
S672 N673 1.613 . S
S672 N674 1.610 . S
N673 S672 1.613 . S
N673 C676 1.350 . S
N674 S672 1.610 . S
N674 C675 1.351 . S
C675 C669 1.428 . S
C675 N674 1.351 . S
C675 C676 1.434 . S
C676 C667 1.429 . S
C676 N673 1.350 . S
C676 C675 1.434 . S
C677 C678 1.369 . S
C677 C679 1.419 . S
C677 H681 0.930 . S
C678 C677 1.369 . S
C678 C687 1.429 . S
C679 C677 1.419 . S
C679 C680 1.363 . S
C679 H682 0.929 . S
C680 C679 1.363 . S
C680 C686 1.428 . S
H681 C677 0.930 . S
H682 C679 0.929 . S
S683 N684 1.613 . S
S683 N685 1.610 . S
N684 S683 1.613 . S
N684 C687 1.350 . S
N685 S683 1.610 . S
N685 C686 1.351 . S
C686 C680 1.428 . S
C686 N685 1.351 . S
C686 C687 1.434 . S
C687 C678 1.429 . S
C687 N684 1.350 . S
C687 C686 1.434 . S
C425 C76 1.960 . S
C427 C163 2.084 . S
C438 C247 2.094 . S
C436 C87 1.969 . S
C449 C323 1.998 . S
C447 C54 2.031 . S
C460 C407 1.985 . S
C458 C65 2.029 . S
C471 C154 2.084 1_565 S
C469 C32 1.967 . S
C480 C43 1.965 . S
C482 C238 2.098 . S
C491 C10 2.046 . S
C493 C312 1.992 . S
C502 C21 2.028 . S
C504 C396 1.994 . S
C515 C151 0.951 . S
C513 C60 0.884 . S
C526 C235 0.910 . S
C524 C71 0.854 . S
C537 C328 0.875 . S
C535 C82 0.838 . S
C546 C49 0.849 . S
C548 C412 0.902 . S
C557 C16 0.888 . S
C559 C160 0.933 . S
C570 C244 0.896 . S
C568 C27 0.844 . S
C581 C319 0.876 . S
C579 C38 0.840 . S
C590 C5 0.843 . S
C592 C403 0.904 . S
C601 C59 2.092 . S
C603 C144 2.204 . S
C612 C70 2.072 . S
C614 C228 2.185 . S
C625 C322 2.281 . S
C623 C81 2.003 . S
C636 C406 2.295 . S
C634 C48 2.021 . S
C645 C15 2.091 . S
C647 C155 2.198 . S
C658 C239 2.181 . S
C656 C26 2.077 . S
C669 C331 2.277 . S
C667 C37 1.994 . S
C678 C4 2.007 . S
C680 C415 2.298 . S
