# Generated by pormake.
# Topology pyr, (3,6)-cn, num edge types: 1
# Building blocks:
#     Node 0, Type 0, BuildingBlock: VETTIZ_charged_linker_0, # of connection points: 3
#     Node 1, Type 0, BuildingBlock: VETTIZ_charged_linker_0, # of connection points: 3
#     Node 2, Type 0, BuildingBlock: VETTIZ_charged_linker_0, # of connection points: 3
#     Node 3, Type 0, BuildingBlock: VETTIZ_charged_linker_0, # of connection points: 3
#     Node 4, Type 0, BuildingBlock: VETTIZ_charged_linker_0, # of connection points: 3
#     Node 5, Type 0, BuildingBlock: VETTIZ_charged_linker_0, # of connection points: 3
#     Node 6, Type 0, BuildingBlock: VETTIZ_charged_linker_0, # of connection points: 3
#     Node 7, Type 0, BuildingBlock: VETTIZ_charged_linker_0, # of connection points: 3
#     Node 8, Type 1, BuildingBlock: FUNLAD_clean_sbu_0, # of connection points: 6
#     Node 9, Type 1, BuildingBlock: FUNLAD_clean_sbu_0, # of connection points: 6
#     Node 10, Type 1, BuildingBlock: FUNLAD_clean_sbu_0, # of connection points: 6
#     Node 11, Type 1, BuildingBlock: FUNLAD_clean_sbu_0, # of connection points: 6
#     Edge 12, Type (0, 1), BuildingBlock: TEMPAE_clean_linker_10, # of connection points: 2
#     Edge 13, Type (0, 1), BuildingBlock: TEMPAE_clean_linker_10, # of connection points: 2
#     Edge 14, Type (0, 1), BuildingBlock: TEMPAE_clean_linker_10, # of connection points: 2
#     Edge 15, Type (0, 1), BuildingBlock: TEMPAE_clean_linker_10, # of connection points: 2
#     Edge 16, Type (0, 1), BuildingBlock: TEMPAE_clean_linker_10, # of connection points: 2
#     Edge 17, Type (0, 1), BuildingBlock: TEMPAE_clean_linker_10, # of connection points: 2
#     Edge 18, Type (0, 1), BuildingBlock: TEMPAE_clean_linker_10, # of connection points: 2
#     Edge 19, Type (0, 1), BuildingBlock: TEMPAE_clean_linker_10, # of connection points: 2
#     Edge 20, Type (0, 1), BuildingBlock: TEMPAE_clean_linker_10, # of connection points: 2
#     Edge 21, Type (0, 1), BuildingBlock: TEMPAE_clean_linker_10, # of connection points: 2
#     Edge 22, Type (0, 1), BuildingBlock: TEMPAE_clean_linker_10, # of connection points: 2
#     Edge 23, Type (0, 1), BuildingBlock: TEMPAE_clean_linker_10, # of connection points: 2
#     Edge 24, Type (0, 1), BuildingBlock: TEMPAE_clean_linker_10, # of connection points: 2
#     Edge 25, Type (0, 1), BuildingBlock: TEMPAE_clean_linker_10, # of connection points: 2
#     Edge 26, Type (0, 1), BuildingBlock: TEMPAE_clean_linker_10, # of connection points: 2
#     Edge 27, Type (0, 1), BuildingBlock: TEMPAE_clean_linker_10, # of connection points: 2
#     Edge 28, Type (0, 1), BuildingBlock: TEMPAE_clean_linker_10, # of connection points: 2
#     Edge 29, Type (0, 1), BuildingBlock: TEMPAE_clean_linker_10, # of connection points: 2
#     Edge 30, Type (0, 1), BuildingBlock: TEMPAE_clean_linker_10, # of connection points: 2
#     Edge 31, Type (0, 1), BuildingBlock: TEMPAE_clean_linker_10, # of connection points: 2
#     Edge 32, Type (0, 1), BuildingBlock: TEMPAE_clean_linker_10, # of connection points: 2
#     Edge 33, Type (0, 1), BuildingBlock: TEMPAE_clean_linker_10, # of connection points: 2
#     Edge 34, Type (0, 1), BuildingBlock: TEMPAE_clean_linker_10, # of connection points: 2
#     Edge 35, Type (0, 1), BuildingBlock: TEMPAE_clean_linker_10, # of connection points: 2
# Relax obj value: 0.055
# Max RMSD: 0.063
# Mean RMSD: 0.027
data_MOF--net-pry--node1-FUNLAD_clean_sbu_0--node2-VETTIZ_charged_linker_0--edge1-TEMPAE_clean_linker_10
_symmetry_space_group_name_H-M    P1
_symmetry_Int_Tables_number       1
_symmetry_cell_setting            triclinic
loop_
_symmetry_equiv_pos_as_xyz
'x, y, z'
_cell_length_a     44.233437
_cell_length_b     46.674914
_cell_length_c     46.893658
_cell_angle_alpha  90.096962
_cell_angle_beta   90.070073
_cell_angle_gamma 85.561541
loop_
_atom_site_label
_atom_site_type_symbol
_atom_site_fract_x
_atom_site_fract_y
_atom_site_fract_z
_atom_type_partial_charge
C0 C 0.12645 0.11773 0.26693 0.0
C1 C 0.10068 0.12832 0.28246 0.0
C2 C 0.08463 0.15389 0.27282 0.0
C3 C 0.11981 0.15754 0.2333 0.0
C4 C 0.13555 0.13256 0.24273 0.0
C5 C 0.16264 0.12406 0.22436 0.0
H6 H 0.2487 0.14745 0.10842 0.0
C7 C 0.13539 0.16756 0.20739 0.0
C8 C 0.16055 0.14782 0.2022 0.0
H9 H 0.26264 0.07979 0.17088 0.0
H10 H 0.21835 0.09888 0.19686 0.0
H11 H 0.23566 0.19646 0.15243 0.0
H12 H 0.17534 0.1471 0.10441 0.0
H13 H 0.1603 0.18306 0.10343 0.0
H14 H 0.19744 0.17368 0.08881 0.0
H15 H 0.22644 0.20461 0.11595 0.0
H16 H 0.20395 0.22016 0.14502 0.0
C17 C 0.19155 0.1248 0.24299 0.0
C18 C 0.15804 0.09435 0.21095 0.0
C19 C 0.09619 0.25929 0.15421 0.0
C20 C 0.10719 0.27345 0.13014 0.0
C21 C 0.13312 0.26094 0.11611 0.0
C22 C 0.14804 0.23525 0.12577 0.0
C23 C 0.13722 0.22157 0.14994 0.0
C24 C 0.11171 0.2335 0.16384 0.0
C25 C 0.10416 0.21583 0.18957 0.0
C26 C 0.12937 0.19154 0.18872 0.0
C27 C 0.14851 0.19513 0.16527 0.0
C28 C 0.10628 0.23476 0.21649 0.0
C29 C 0.07257 0.20463 0.18478 0.0
C30 C 0.24201 0.13662 0.12755 0.0
C31 C 0.25907 0.11195 0.13749 0.0
C32 C 0.24996 0.09887 0.16284 0.0
C33 C 0.22415 0.10997 0.17784 0.0
C34 C 0.20728 0.13465 0.16762 0.0
C35 C 0.21651 0.14765 0.14299 0.0
C36 C 0.19669 0.17433 0.13589 0.0
C37 C 0.17372 0.17501 0.16002 0.0
C38 C 0.17985 0.15161 0.17846 0.0
C39 C 0.21653 0.20033 0.13713 0.0
C40 C 0.1817 0.16961 0.10653 0.0
H41 H 0.08081 0.18776 0.24239 0.0
H42 H 0.13925 0.09804 0.27323 0.0
H43 H 0.13398 0.09297 0.20452 0.0
H44 H 0.17127 0.09015 0.19126 0.0
H45 H 0.16395 0.07675 0.22637 0.0
H46 H 0.18865 0.14185 0.2596 0.0
H47 H 0.19682 0.104 0.25407 0.0
H48 H 0.2116 0.13023 0.23067 0.0
H49 H 0.07641 0.26838 0.16557 0.0
H50 H 0.14183 0.271 0.09734 0.0
H51 H 0.16758 0.22708 0.11396 0.0
H52 H 0.12611 0.24797 0.21508 0.0
H53 H 0.0856 0.24965 0.21894 0.0
H54 H 0.1098 0.22207 0.2362 0.0
H55 H 0.07013 0.1973 0.16236 0.0
H56 H 0.06866 0.18581 0.19808 0.0
H57 H 0.05428 0.22179 0.18897 0.0
H58 H 0.06499 0.16298 0.28439 0.0
C59 C 0.09398 0.16845 0.24844 0.0
C60 C 0.26974 0.88786 0.62659 0.0
C61 C 0.25249 0.9123 0.63681 0.0
C62 C 0.26153 0.92525 0.66231 0.0
C63 C 0.30451 0.88979 0.66669 0.0
C64 C 0.29535 0.87692 0.6419 0.0
C65 C 0.31539 0.85048 0.63445 0.0
H66 H 0.43692 0.75754 0.6626 0.0
C67 C 0.33211 0.87296 0.67731 0.0
C68 C 0.33843 0.84981 0.65857 0.0
H69 H 0.37106 0.75472 0.59463 0.0
H70 H 0.34483 0.79821 0.61189 0.0
H71 H 0.44216 0.82877 0.66056 0.0
H72 H 0.38727 0.77653 0.71241 0.0
H73 H 0.40298 0.8025 0.73399 0.0
H74 H 0.42773 0.77554 0.7164 0.0
H75 H 0.45845 0.80407 0.68673 0.0
H76 H 0.44367 0.83977 0.69648 0.0
C77 C 0.33022 0.85565 0.60515 0.0
C78 C 0.29585 0.82426 0.63536 0.0
C79 C 0.38533 0.90634 0.76628 0.0
C80 C 0.41121 0.89577 0.78169 0.0
C81 C 0.42751 0.87046 0.77169 0.0
C82 C 0.41827 0.85612 0.74707 0.0
C83 C 0.39232 0.867 0.73206 0.0
C84 C 0.37635 0.89172 0.74185 0.0
C85 C 0.34915 0.9002 0.72359 0.0
C86 C 0.35143 0.8767 0.7011 0.0
C87 C 0.3768 0.85714 0.70601 0.0
C88 C 0.3534 0.93013 0.71062 0.0
C89 C 0.32032 0.89897 0.74218 0.0
C90 C 0.41694 0.76652 0.65144 0.0
C91 C 0.40596 0.75248 0.62723 0.0
C92 C 0.37976 0.76477 0.61347 0.0
C93 C 0.36457 0.79018 0.62351 0.0
C94 C 0.37539 0.80376 0.64781 0.0
C95 C 0.40114 0.792 0.66148 0.0
C96 C 0.40855 0.80943 0.68748 0.0
C97 C 0.38304 0.83343 0.687 0.0
C98 C 0.36385 0.82989 0.66353 0.0
C99 C 0.43994 0.82109 0.68286 0.0
C100 C 0.4068 0.79011 0.71409 0.0
H101 H 0.29319 0.92521 0.69636 0.0
H102 H 0.26311 0.87711 0.60733 0.0
H103 H 0.27665 0.82785 0.65059 0.0
H104 H 0.30863 0.80451 0.64315 0.0
H105 H 0.28607 0.81999 0.61409 0.0
H106 H 0.33634 0.87826 0.60333 0.0
H107 H 0.31446 0.85164 0.58738 0.0
H108 H 0.35172 0.84243 0.60186 0.0
H109 H 0.37236 0.92585 0.77287 0.0
H110 H 0.44723 0.8614 0.78316 0.0
H111 H 0.43162 0.83701 0.74073 0.0
H112 H 0.37743 0.93182 0.70427 0.0
H113 H 0.34732 0.94751 0.72627 0.0
H114 H 0.34013 0.93441 0.69095 0.0
H115 H 0.32341 0.88171 0.7585 0.0
H116 H 0.30029 0.89356 0.72977 0.0
H117 H 0.31491 0.9196 0.75361 0.0
H118 H 0.24868 0.94417 0.67057 0.0
C119 C 0.28745 0.91424 0.67721 0.0
C120 C 0.58304 0.34914 0.98688 0.0
C121 C 0.5552 0.33952 0.97789 0.0
C122 C 0.53488 0.35825 0.96233 0.0
C123 C 0.5724 0.3932 0.96032 0.0
C124 C 0.59107 0.37613 0.978 0.0
C125 C 0.62059 0.38905 0.98386 0.0
H126 H 0.71625 0.49086 0.95342 0.0
C127 C 0.58908 0.41771 0.95125 0.0
C128 C 0.61699 0.41598 0.96563 0.0
H129 H 0.73045 0.41865 1.01116 0.0
H130 H 0.67969 0.40603 1.00247 0.0
H131 H 0.64293 0.5096 0.96789 0.0
H132 H 0.69381 0.45754 0.90698 0.0
H133 H 0.65876 0.46529 0.89011 0.0
H134 H 0.68185 0.49419 0.89927 0.0
H135 H 0.66726 0.52224 0.94075 0.0
H136 H 0.62809 0.51702 0.93337 0.0
C137 C 0.62193 0.39624 0.01608 0.0
C138 C 0.64676 0.36769 0.97319 0.0
C139 C 0.5559 0.47027 0.86133 0.0
C140 C 0.57089 0.48875 0.8436 0.0
C141 C 0.59562 0.50261 0.8545 0.0
C142 C 0.6071 0.49581 0.88177 0.0
C143 C 0.59396 0.47467 0.89792 0.0
C144 C 0.56802 0.46316 0.88813 0.0
C145 C 0.55801 0.4399 0.90723 0.0
C146 C 0.58322 0.43826 0.92932 0.0
C147 C 0.60427 0.45854 0.92366 0.0
C148 C 0.52688 0.45017 0.92038 0.0
C149 C 0.55778 0.41192 0.88929 0.0
C150 C 0.70866 0.47224 0.9642 0.0
C151 C 0.72778 0.45591 0.98315 0.0
C152 C 0.71633 0.43212 0.99691 0.0
C153 C 0.68681 0.42455 0.9916 0.0
C154 C 0.6686 0.44041 0.97176 0.0
C155 C 0.67958 0.46385 0.95847 0.0
C156 C 0.65807 0.47675 0.93626 0.0
C157 C 0.63183 0.45784 0.93928 0.0
C158 C 0.63816 0.43661 0.96009 0.0
C159 C 0.64858 0.50817 0.94479 0.0
C160 C 0.67378 0.4735 0.90663 0.0
H161 H 0.5274 0.3981 0.94096 0.0
H162 H 0.59876 0.33542 0.99947 0.0
H163 H 0.6403 0.35712 0.95303 0.0
H164 H 0.66758 0.37812 0.96792 0.0
H165 H 0.65239 0.35054 0.98915 0.0
H166 H 0.59892 0.40272 0.02458 0.0
H167 H 0.63126 0.37738 0.02856 0.0
H168 H 0.63533 0.41474 0.02062 0.0
H169 H 0.53649 0.4598 0.85352 0.0
H170 H 0.60737 0.51712 0.84122 0.0
H171 H 0.62673 0.50608 0.88861 0.0
H172 H 0.52277 0.47399 0.91985 0.0
H173 H 0.50794 0.44113 0.90867 0.0
H174 H 0.52547 0.44448 0.94325 0.0
H175 H 0.57879 0.40871 0.87628 0.0
H176 H 0.557 0.3923 0.90211 0.0
H177 H 0.53809 0.41291 0.87451 0.0
H178 H 0.51324 0.35138 0.9553 0.0
C179 C 0.54326 0.38519 0.95373 0.0
C180 C 0.95633 0.66598 0.46695 0.0
C181 C 0.93888 0.68841 0.48051 0.0
C182 C 0.90976 0.68331 0.49064 0.0
C183 C 0.91431 0.63569 0.4696 0.0
C184 C 0.94341 0.64025 0.46106 0.0
C185 C 0.95721 0.61648 0.44251 0.0
H186 H 0.9272 0.52133 0.34367 0.0
C187 C 0.90635 0.60824 0.45696 0.0
C188 C 0.93128 0.59699 0.44089 0.0
H189 H 0.00937 0.56365 0.35778 0.0
H190 H 0.99223 0.57771 0.40501 0.0
H191 H 0.92462 0.49498 0.40758 0.0
H192 H 0.87836 0.56845 0.36783 0.0
H193 H 0.85297 0.54666 0.38558 0.0
H194 H 0.87648 0.53134 0.35791 0.0
H195 H 0.88688 0.49361 0.39422 0.0
H196 H 0.89378 0.5047 0.4304 0.0
C197 C 0.98471 0.60169 0.45859 0.0
C198 C 0.96525 0.62928 0.41299 0.0
C199 C 0.79944 0.57698 0.46749 0.0
C200 C 0.78543 0.55249 0.45821 0.0
C201 C 0.80294 0.5311 0.44277 0.0
C202 C 0.83324 0.53457 0.43583 0.0
C203 C 0.84631 0.55961 0.44435 0.0
C204 C 0.8299 0.57974 0.46085 0.0
C205 C 0.84855 0.60372 0.4701 0.0
C206 C 0.87892 0.59436 0.45661 0.0
C207 C 0.87702 0.5691 0.44063 0.0
C208 C 0.85035 0.60366 0.50309 0.0
C209 C 0.8341 0.63207 0.45703 0.0
C210 C 0.94162 0.53318 0.35727 0.0
C211 C 0.96906 0.54238 0.34684 0.0
C212 C 0.98773 0.55715 0.36516 0.0
C213 C 0.9776 0.56568 0.39228 0.0
C214 C 0.94828 0.56001 0.40076 0.0
C215 C 0.93157 0.54232 0.38441 0.0
C216 C 0.90133 0.53785 0.39789 0.0
C217 C 0.90144 0.55883 0.42285 0.0
C218 C 0.92885 0.57204 0.42395 0.0
C219 C 0.90149 0.50619 0.40798 0.0
C220 C 0.87581 0.5465 0.37622 0.0
H221 H 0.8749 0.65469 0.49293 0.0
H222 H 0.97896 0.66902 0.45931 0.0
H223 H 0.95792 0.65252 0.41103 0.0
H224 H 0.95364 0.6191 0.39511 0.0
H225 H 0.99007 0.62726 0.40903 0.0
H226 H 0.97931 0.59894 0.48155 0.0
H227 H 1.00462 0.61475 0.45727 0.0
H228 H 0.9912 0.57981 0.45049 0.0
H229 H 0.78701 0.59395 0.47934 0.0
H230 H 0.79335 0.51149 0.43619 0.0
H231 H 0.84543 0.51778 0.42396 0.0
H232 H 0.85185 0.5813 0.51147 0.0
H233 H 0.82993 0.6153 0.51259 0.0
H234 H 0.87082 0.61304 0.51129 0.0
H235 H 0.82436 0.62819 0.4356 0.0
H236 H 0.85063 0.64818 0.4533 0.0
H237 H 0.81549 0.6417 0.4707 0.0
H238 H 0.89575 0.70022 0.50114 0.0
C239 C 0.89751 0.65695 0.4855 0.0
C240 C 0.89328 0.76811 0.89683 0.0
C241 C 0.91899 0.75171 0.88654 0.0
C242 C 0.93356 0.7615 0.86198 0.0
C243 C 0.89649 0.80282 0.85835 0.0
C244 C 0.88258 0.79331 0.8826 0.0
C245 C 0.85565 0.81289 0.89133 0.0
H246 H 0.75871 0.92957 0.86743 0.0
C247 C 0.87919 0.82982 0.84875 0.0
C248 C 0.85528 0.83564 0.86824 0.0
H249 H 0.75959 0.8699 0.93784 0.0
H250 H 0.80395 0.84358 0.9186 0.0
H251 H 0.77667 0.88168 0.81742 0.0
H252 H 0.82848 0.93662 0.86866 0.0
H253 H 0.84631 0.9343 0.83527 0.0
H254 H 0.80771 0.94983 0.8379 0.0
H255 H 0.77482 0.92003 0.81344 0.0
H256 H 0.80291 0.89694 0.79498 0.0
C257 C 0.8272 0.79551 0.88994 0.0
C258 C 0.8622 0.8254 0.92121 0.0
C259 C 0.90929 0.88351 0.75881 0.0
C260 C 0.89673 0.90876 0.74522 0.0
C261 C 0.87099 0.92361 0.75765 0.0
C262 C 0.85778 0.91357 0.78248 0.0
C263 C 0.87028 0.88832 0.79556 0.0
C264 C 0.89571 0.87371 0.78388 0.0
C265 C 0.90584 0.84734 0.80122 0.0
C266 C 0.88236 0.84871 0.82512 0.0
C267 C 0.86154 0.87283 0.8215 0.0
C268 C 0.90362 0.82054 0.78216 0.0
C269 C 0.9381 0.85098 0.81266 0.0
C270 C 0.76842 0.9107 0.87852 0.0
C271 C 0.75557 0.90176 0.90418 0.0
C272 C 0.76918 0.87736 0.9182 0.0
C273 C 0.79493 0.86203 0.9069 0.0
C274 C 0.80758 0.87117 0.88129 0.0
C275 C 0.79451 0.89529 0.86766 0.0
C276 C 0.81193 0.90244 0.84132 0.0
C277 C 0.83732 0.87843 0.84124 0.0
C278 C 0.83442 0.86007 0.86456 0.0
C279 C 0.7906 0.90042 0.8153 0.0
C280 C 0.82416 0.9324 0.84571 0.0
H281 H 0.93441 0.79299 0.82919 0.0
H282 H 0.88179 0.76168 0.91589 0.0
H283 H 0.88694 0.8269 0.92459 0.0
H284 H 0.85218 0.84767 0.92401 0.0
H285 H 0.85397 0.81173 0.93847 0.0
H286 H 0.82829 0.78091 0.87111 0.0
H287 H 0.8254 0.78205 0.90928 0.0
H288 H 0.80588 0.80914 0.88726 0.0
H289 H 0.92895 0.87141 0.74996 0.0
H290 H 0.86112 0.94339 0.74833 0.0
H291 H 0.83826 0.926 0.79057 0.0
H292 H 0.8823 0.82243 0.76945 0.0
H293 H 0.92294 0.81805 0.76701 0.0
H294 H 0.90285 0.80054 0.79452 0.0
H295 H 0.94012 0.87344 0.81999 0.0
H296 H 0.94391 0.83737 0.83138 0.0
H297 H 0.95538 0.84614 0.7958 0.0
H298 H 0.95332 0.74929 0.85343 0.0
C299 C 0.92244 0.78684 0.84783 0.0
C300 C 0.74231 0.13617 0.39982 0.0
C301 C 0.7595 0.11161 0.38981 0.0
C302 C 0.75042 0.09843 0.36444 0.0
C303 C 0.7075 0.13394 0.35978 0.0
C304 C 0.71671 0.14701 0.38444 0.0
C305 C 0.69676 0.17355 0.39168 0.0
H306 H 0.57603 0.26703 0.36253 0.0
C307 C 0.67994 0.15075 0.34903 0.0
C308 C 0.67373 0.17409 0.36757 0.0
H309 H 0.64161 0.26976 0.43076 0.0
H310 H 0.66747 0.22595 0.41394 0.0
H311 H 0.57004 0.19594 0.36539 0.0
H312 H 0.62556 0.24702 0.31297 0.0
H313 H 0.60952 0.22102 0.29167 0.0
H314 H 0.58507 0.24838 0.30902 0.0
H315 H 0.55402 0.22036 0.33885 0.0
H316 H 0.56856 0.18442 0.32965 0.0
C317 C 0.6819 0.16868 0.42103 0.0
C318 C 0.71641 0.19969 0.39053 0.0
C319 C 0.6264 0.11679 0.26046 0.0
C320 C 0.60054 0.12734 0.24501 0.0
C321 C 0.58443 0.15285 0.25478 0.0
C322 C 0.59382 0.16738 0.27921 0.0
C323 C 0.61973 0.15652 0.29428 0.0
C324 C 0.63553 0.13161 0.28471 0.0
C325 C 0.66272 0.12318 0.30301 0.0
C326 C 0.6606 0.1469 0.32528 0.0
C327 C 0.63533 0.16654 0.3202 0.0
C328 C 0.65834 0.09341 0.31627 0.0
C329 C 0.69155 0.12409 0.28436 0.0
C330 C 0.59587 0.25797 0.37385 0.0
C331 C 0.6069 0.27211 0.39797 0.0
C332 C 0.63289 0.25967 0.41196 0.0
C333 C 0.64788 0.23406 0.40217 0.0
C334 C 0.63704 0.22041 0.37792 0.0
C335 C 0.61145 0.23226 0.36408 0.0
C336 C 0.60391 0.21463 0.33825 0.0
C337 C 0.62923 0.19046 0.33899 0.0
C338 C 0.64841 0.19408 0.36245 0.0
C339 C 0.57239 0.20327 0.343 0.0
C340 C 0.60586 0.23364 0.31145 0.0
H341 H 0.71872 0.09822 0.33042 0.0
H342 H 0.74897 0.14708 0.41897 0.0
H343 H 0.73553 0.19594 0.37524 0.0
H344 H 0.70369 0.21945 0.38268 0.0
H345 H 0.72631 0.20404 0.41173 0.0
H346 H 0.67589 0.14606 0.42313 0.0
H347 H 0.69759 0.17299 0.43877 0.0
H348 H 0.66033 0.18184 0.42413 0.0
H349 H 0.63924 0.09715 0.25404 0.0
H350 H 0.56474 0.16191 0.24326 0.0
H351 H 0.58061 0.18664 0.28537 0.0
H352 H 0.63433 0.09194 0.3228 0.0
H353 H 0.66419 0.07587 0.30074 0.0
H354 H 0.67174 0.08921 0.33589 0.0
H355 H 0.68853 0.14121 0.26788 0.0
H356 H 0.71163 0.12951 0.29669 0.0
H357 H 0.69683 0.10334 0.27311 0.0
H358 H 0.76323 0.07942 0.35634 0.0
C359 C 0.72451 0.10935 0.34947 0.0
C360 C 0.45262 0.54961 0.16491 0.0
C361 C 0.43859 0.52897 0.18094 0.0
C362 C 0.41405 0.51562 0.16885 0.0
C363 C 0.41481 0.54693 0.12776 0.0
C364 C 0.4404 0.55825 0.13853 0.0
C365 C 0.45081 0.58203 0.12034 0.0
H366 H 0.41456 0.686 0.02586 0.0
C367 C 0.40522 0.56358 0.10212 0.0
C368 C 0.42656 0.58378 0.09732 0.0
H369 H 0.49664 0.67173 0.07566 0.0
H370 H 0.48213 0.62502 0.08946 0.0
H371 H 0.36858 0.66175 0.07089 0.0
H372 H 0.41719 0.62135 1.00025 0.0
H373 H 0.38353 0.60396 1.00353 0.0
H374 H 0.38163 0.64186 0.99517 0.0
H375 H 0.36262 0.67176 0.0342 0.0
H376 H 0.34345 0.6432 0.04969 0.0
C377 C 0.44982 0.60964 0.1389 0.0
C378 C 0.4826 0.57239 0.10821 0.0
C379 C 0.30097 0.55273 0.06009 0.0
C380 C 0.28419 0.56726 0.03829 0.0
C381 C 0.29798 0.58822 0.02224 0.0
C382 C 0.32751 0.59526 0.02849 0.0
C383 C 0.3434 0.58138 0.05115 0.0
C384 C 0.33041 0.55997 0.066 0.0
C385 C 0.35081 0.54718 0.08907 0.0
C386 C 0.37829 0.56441 0.08555 0.0
C387 C 0.37351 0.58486 0.06373 0.0
C388 C 0.3346 0.55324 0.11801 0.0
C389 C 0.3583 0.51488 0.0824 0.0
C390 C 0.42941 0.67262 0.0396 0.0
C391 C 0.45638 0.6827 0.05026 0.0
C392 C 0.47569 0.66446 0.06731 0.0
C393 C 0.46708 0.6375 0.07557 0.0
C394 C 0.43872 0.62891 0.06703 0.0
C395 C 0.42111 0.64559 0.04814 0.0
C396 C 0.39237 0.63212 0.04034 0.0
C397 C 0.395 0.60541 0.05899 0.0
C398 C 0.42184 0.60418 0.07507 0.0
C399 C 0.36517 0.65321 0.04905 0.0
C400 C 0.39345 0.62453 1.00815 0.0
H401 H 0.3829 0.51412 0.13459 0.0
H402 H 0.47145 0.56036 0.17353 0.0
H403 H 0.48692 0.54858 0.10816 0.0
H404 H 0.485 0.57872 0.0856 0.0
H405 H 0.50088 0.58125 0.12099 0.0
H406 H 0.4284 0.61213 0.15139 0.0
H407 H 0.46904 0.60875 0.15422 0.0
H408 H 0.45038 0.62958 0.12651 0.0
H409 H 0.29109 0.53666 0.073 0.0
H410 H 0.28586 0.59932 1.00492 0.0
H411 H 0.33663 0.61163 0.01581 0.0
H412 H 0.32361 0.5755 0.11857 0.0
H413 H 0.31667 0.53822 0.12149 0.0
H414 H 0.35003 0.55189 0.13647 0.0
H415 H 0.35808 0.51074 0.05902 0.0
H416 H 0.3814 0.50709 0.08935 0.0
H417 H 0.34155 0.50145 0.09235 0.0
H418 H 0.4033 0.49913 0.18044 0.0
C419 C 0.4022 0.52439 0.14226 0.0
C420 C 0.06206 0.35308 0.54677 0.0
C421 C 0.07792 0.33494 0.52711 0.0
C422 C 0.10473 0.34369 0.51476 0.0
C423 C 0.10146 0.38637 0.54446 0.0
C424 C 0.07436 0.37837 0.55539 0.0
C425 C 0.06274 0.39741 0.57941 0.0
H426 H 0.09094 0.49539 0.67886 0.0
C427 C 0.11005 0.41161 0.56082 0.0
C428 C 0.08739 0.41815 0.58126 0.0
H429 H 0.01582 0.4414 0.67347 0.0
H430 H 0.03178 0.42596 0.6267 0.0
H431 H 0.09014 0.51543 0.61077 0.0
H432 H 0.13899 0.44865 0.65922 0.0
H433 H 0.16504 0.46323 0.63628 0.0
H434 H 0.14584 0.48591 0.66266 0.0
H435 H 0.12106 0.52258 0.63386 0.0
H436 H 0.12723 0.51187 0.59713 0.0
C437 C 0.03208 0.4128 0.57005 0.0
C438 C 0.06109 0.37866 0.60671 0.0
C439 C 0.21297 0.45024 0.54511 0.0
C440 C 0.22849 0.47134 0.55924 0.0
C441 C 0.21324 0.48812 0.58062 0.0
C442 C 0.18351 0.48335 0.58842 0.0
C443 C 0.16893 0.46123 0.57509 0.0
C444 C 0.18338 0.44553 0.5534 0.0
C445 C 0.16452 0.4226 0.54198 0.0
C446 C 0.13636 0.42721 0.5604 0.0
C447 C 0.13928 0.44963 0.58 0.0
C448 C 0.15747 0.42915 0.51021 0.0
C449 C 0.18197 0.39298 0.54742 0.0
C450 C 0.0778 0.48036 0.66753 0.0
C451 C 0.05233 0.4693 0.68024 0.0
C452 C 0.03544 0.45043 0.66434 0.0
C453 C 0.045 0.44112 0.63723 0.0
C454 C 0.07211 0.4502 0.62608 0.0
C455 C 0.08751 0.47024 0.64071 0.0
C456 C 0.11659 0.47641 0.62614 0.0
C457 C 0.11654 0.45598 0.6009 0.0
C458 C 0.09051 0.44063 0.60114 0.0
C459 C 0.11393 0.50825 0.61657 0.0
C460 C 0.14315 0.46839 0.64702 0.0
H461 H 0.13734 0.37468 0.51355 0.0
H462 H 0.04178 0.34658 0.55709 0.0
H463 H 0.07696 0.359 0.60556 0.0
H464 H 0.06815 0.38967 0.62621 0.0
H465 H 0.03794 0.37157 0.6099 0.0
H466 H 0.03279 0.41916 0.54721 0.0
H467 H 0.01331 0.39852 0.57259 0.0
H468 H 0.0264 0.43304 0.5818 0.0
H469 H 0.22378 0.43728 0.52827 0.0
H470 H 0.22463 0.50435 0.59206 0.0
H471 H 0.17338 0.49648 0.60516 0.0
H472 H 0.15266 0.45266 0.50684 0.0
H473 H 0.177 0.42184 0.49645 0.0
H474 H 0.13703 0.41934 0.50255 0.0
H475 H 0.19572 0.39331 0.5673 0.0
H476 H 0.16688 0.37556 0.55086 0.0
H477 H 0.19771 0.38691 0.52959 0.0
H478 H 0.11721 0.32999 0.49945 0.0
C479 C 0.11642 0.36951 0.52311 0.0
C480 C 0.03115 0.03019 0.46246 0.0
N481 N 0.01584 0.0734 0.53919 0.0
C482 C 0.04361 0.0824 0.53294 0.0
C483 C 0.04847 0.11142 0.53403 0.0
C484 C 0.02464 0.13133 0.5418 0.0
C485 C 0.99698 0.12146 0.55056 0.0
C486 C 0.99295 0.09205 0.54891 0.0
Zn487 Zn 0.00828 0.03352 0.5245 0.0
C488 C 0.94958 0.03363 0.4931 0.0
N489 N 0.99644 0.95233 0.48757 0.0
C490 C 0.01919 0.93502 0.47567 0.0
C491 C 0.96883 0.94259 0.49295 0.0
C492 C 0.96362 0.91409 0.48757 0.0
C493 C 0.98706 0.89532 0.47659 0.0
C494 C 0.01496 0.9062 0.46999 0.0
Zn495 Zn 1.00374 0.99187 0.50297 0.0
O496 O 0.02763 0.04555 0.48478 0.0
C497 C 0.06241 0.99163 0.53434 0.0
O498 O 0.02336 1.0045 0.4632 0.0
H499 H 0.9512 0.95656 0.50281 0.0
H500 H 0.06138 0.06741 0.52483 0.0
H501 H 0.04099 0.94324 0.4717 0.0
O502 O 0.0517 0.01706 0.53999 0.0
O503 O 0.04715 0.97588 0.51858 0.0
H504 H 0.97097 0.08445 0.55343 0.0
O505 O 0.98442 0.97974 0.54282 0.0
O506 O 0.98851 0.02107 0.56413 0.0
O507 O 0.96028 1.00816 0.48765 0.0
O508 O 0.96487 0.0495 0.5087 0.0
C509 C 0.9808 0.99532 0.56503 0.0
H510 H 0.07015 0.11842 0.52732 0.0
H511 H 0.97815 0.13644 0.55663 0.0
H512 H 0.94193 0.90652 0.49342 0.0
H513 H 0.03351 0.89242 0.46126 0.0
C514 C 0.56181 0.99082 0.99311 0.0
N515 N 0.51356 0.07168 0.98756 0.0
C516 C 0.54066 0.08228 0.99349 0.0
C517 C 0.54432 0.11138 0.99008 0.0
C518 C 0.51989 0.12972 0.98041 0.0
C519 C 0.49288 0.11798 0.97237 0.0
C520 C 0.49012 0.08861 0.97629 0.0
Zn521 Zn 0.50744 0.03192 1.00293 0.0
C522 C 0.48003 0.99303 0.96275 0.0
N523 N 0.49684 0.95073 0.04008 0.0
C524 C 0.5202 0.93399 0.05175 0.0
C525 C 0.46991 0.93993 0.03384 0.0
C526 C 0.4664 0.91081 0.03732 0.0
C527 C 0.49075 0.89268 0.04747 0.0
C528 C 0.51755 0.90462 0.05582 0.0
Zn529 Zn 0.50293 0.9905 0.02469 0.0
O530 O 0.5511 0.01621 0.98728 0.0
C531 C 0.5304 0.02942 0.06483 0.0
O532 O 0.54651 0.97523 1.00892 0.0
H533 H 0.4517 0.95355 0.02443 0.0
H534 H 0.55893 0.06852 1.00261 0.0
H535 H 0.54146 0.94305 0.05633 0.0
O536 O 0.52689 0.04466 0.04246 0.0
O537 O 0.52255 1.00374 0.0642 0.0
H538 H 0.46872 0.07971 0.97195 0.0
O539 O 0.45926 1.00609 0.04018 0.0
O540 O 0.46385 0.04727 0.01894 0.0
O541 O 0.48366 0.97771 0.98506 0.0
O542 O 0.48767 0.01878 0.96349 0.0
C543 C 0.44856 0.03153 0.03461 0.0
H544 H 0.56562 0.1197 0.99611 0.0
H545 H 0.47357 0.13159 0.96484 0.0
H546 H 0.44527 0.90231 0.03102 0.0
H547 H 0.53678 0.89115 0.06371 0.0
C548 C 0.5226 0.45762 0.49128 0.0
N549 N 0.52693 0.49357 0.57356 0.0
C550 C 0.51447 0.47227 0.5882 0.0
C551 C 0.52001 0.46888 0.61739 0.0
C552 C 0.53884 0.48736 0.63132 0.0
C553 C 0.5524 0.50826 0.61543 0.0
C554 C 0.54591 0.51116 0.58651 0.0
Zn555 Zn 0.51392 0.50395 0.53302 0.0
C556 C 0.56575 0.52602 0.50045 0.0
N557 N 0.48803 0.53174 0.44989 0.0
C558 C 0.47003 0.513 0.4373 0.0
C559 C 0.50041 0.55259 0.4345 0.0
C560 C 0.49615 0.55403 0.40493 0.0
C561 C 0.47904 0.5338 0.39136 0.0
C562 C 0.46499 0.51385 0.4081 0.0
Zn563 Zn 0.5007 0.522 0.49076 0.0
O564 O 0.52472 0.46094 0.51815 0.0
C565 C 0.44887 0.49964 0.52317 0.0
O566 O 0.51354 0.47916 0.47611 0.0
H567 H 0.51488 0.5671 0.44487 0.0
H568 H 0.49933 0.45863 0.5775 0.0
H569 H 0.46088 0.49615 0.44959 0.0
O570 O 0.46896 0.49434 0.54218 0.0
O571 O 0.45626 0.51078 0.49978 0.0
H572 H 0.55503 0.5284 0.57472 0.0
O573 O 0.48825 0.5646 0.50586 0.0
O574 O 0.50272 0.54717 0.5475 0.0
O575 O 0.54519 0.53335 0.48241 0.0
O576 O 0.55886 0.5133 0.52316 0.0
C577 C 0.49203 0.56832 0.53251 0.0
H578 H 0.50928 0.45243 0.62907 0.0
H579 H 0.56669 0.52315 0.62555 0.0
H580 H 0.50737 0.56977 0.39272 0.0
H581 H 0.45108 0.49828 0.39858 0.0
C582 C 0.98904 0.56694 0.99064 0.0
N583 N 0.99114 0.53531 0.07515 0.0
C584 C 0.00605 0.55634 0.08791 0.0
C585 C 1.00347 0.56083 0.11732 0.0
C586 C 0.98494 0.54388 0.13337 0.0
C587 C 0.96869 0.52341 0.11947 0.0
C588 C 0.9724 0.51922 0.09028 0.0
Zn589 Zn 1.00044 0.52258 0.03428 0.0
C590 C 0.94624 0.4991 1.00718 0.0
N591 N 0.01929 0.48995 0.95119 0.0
C592 C 0.03627 0.50736 0.9357 0.0
C593 C 1.00562 0.46799 0.93869 0.0
C594 C 0.00752 0.46391 0.90916 0.0
C595 C 0.02375 0.48255 0.89258 0.0
C596 C 0.0391 0.5038 0.9064 0.0
Zn597 Zn 0.01039 0.50248 0.99216 0.0
O598 O 0.98904 0.56496 0.01773 0.0
C599 C 0.06469 0.5261 0.01903 0.0
O600 O 0.99652 0.54454 0.97599 0.0
H601 H 0.99206 0.45452 0.95138 0.0
H602 H 0.02095 0.56878 0.07554 0.0
H603 H 0.04652 0.52505 0.94578 0.0
O604 O 0.04622 0.53203 0.03928 0.0
O605 O 0.05545 0.51399 0.99676 0.0
H606 H 0.96142 0.50206 0.08003 0.0
O607 O 0.02393 0.46076 1.00873 0.0
O608 O 0.01223 0.47989 0.05037 0.0
O609 O 0.96542 0.49081 0.98823 0.0
O610 O 0.95463 0.51333 0.02846 0.0
C611 C 0.0218 0.45808 0.03567 0.0
H612 H 0.01631 0.57684 0.12752 0.0
H613 H 0.95454 0.50969 0.13131 0.0
H614 H 0.99529 0.44725 0.89935 0.0
H615 H 0.05249 0.5182 0.89458 0.0
C616 C 0.11226 0.09952 0.32742 0.0
C617 C 0.09078 0.11287 0.30858 0.0
C618 C 0.10337 0.08493 0.35196 0.0
C619 C 0.07216 0.08371 0.35821 0.0
C620 C 0.05034 0.09705 0.33931 0.0
C621 C 0.05986 0.11131 0.3148 0.0
C622 C 0.12747 0.0711 0.37142 0.0
C623 C 0.01683 0.09645 0.34513 0.0
C624 C 0.04689 0.02717 0.41054 0.0
C625 C 0.0428 0.04313 0.43585 0.0
C626 C 0.05667 0.03995 0.38522 0.0
C627 C 0.06236 0.06948 0.38504 0.0
C628 C 0.05846 0.08558 0.41058 0.0
C629 C 0.04888 0.07227 0.43554 0.0
C630 C 0.06074 0.0219 0.35858 0.0
C631 C 0.06408 0.11709 0.41152 0.0
H632 H 0.1362 0.10086 0.32329 0.0
H633 H 0.04295 0.12105 0.30033 0.0
H634 H 0.12588 0.08147 0.39272 0.0
H635 H 0.12383 0.04805 0.37448 0.0
H636 H 0.15071 0.07279 0.36297 0.0
H637 H 1.00269 0.10743 0.32821 0.0
H638 H 0.01073 0.07391 0.34681 0.0
H639 H 0.01117 0.10707 0.36584 0.0
H640 H 0.04227 1.0047 0.41044 0.0
H641 H 0.04579 0.08495 0.45485 0.0
H642 H 0.08426 0.02244 0.35053 0.0
H643 H 0.04533 0.0309 0.3416 0.0
H644 H 0.05604 0.99917 0.36228 0.0
H645 H 0.08775 0.12006 0.40506 0.0
H646 H 0.06016 0.1266 0.43307 0.0
H647 H 0.04892 0.12919 0.39613 0.0
C648 C 0.39938 0.92387 0.82705 0.0
C649 C 0.42096 0.91098 0.80805 0.0
C650 C 0.40813 0.93829 0.85179 0.0
C651 C 0.43932 0.93977 0.85808 0.0
C652 C 0.46124 0.92687 0.83905 0.0
C653 C 0.45185 0.91278 0.81432 0.0
C654 C 0.38394 0.95169 0.87141 0.0
C655 C 0.49472 0.92776 0.84492 0.0
C656 C 0.46404 0.9962 0.91095 0.0
C657 C 0.46842 0.98009 0.93608 0.0
C658 C 0.45432 0.9835 0.88552 0.0
C659 C 0.44899 0.9539 0.88505 0.0
C660 C 0.45315 0.93764 0.91043 0.0
C661 C 0.46266 0.95088 0.93551 0.0
C662 C 0.44995 1.00172 0.85906 0.0
C663 C 0.4479 0.90605 0.91103 0.0
H664 H 0.37547 0.92232 0.82287 0.0
H665 H 0.46883 0.9034 0.79972 0.0
H666 H 0.38573 0.94116 0.8926 0.0
H667 H 0.38728 0.97478 0.87471 0.0
H668 H 0.36071 0.94978 0.86294 0.0
H669 H 0.50895 0.91702 0.82791 0.0
H670 H 0.50057 0.95038 0.84682 0.0
H671 H 0.50054 0.91707 0.86553 0.0
H672 H 0.46839 0.01874 0.91106 0.0
H673 H 0.46598 0.9381 0.9547 0.0
H674 H 0.42643 1.00096 0.851 0.0
H675 H 0.46541 0.99302 0.84199 0.0
H676 H 0.45435 0.0245 0.863 0.0
H677 H 0.4243 0.90287 0.90446 0.0
H678 H 0.45191 0.89644 0.93249 0.0
H679 H 0.4632 0.8942 0.89557 0.0
C680 C 0.5606 0.5156 0.79785 0.0
C681 C 0.56386 0.4896 0.81278 0.0
C682 C 0.55542 0.51588 0.76828 0.0
C683 C 0.55408 0.4895 0.75347 0.0
C684 C 0.55733 0.46324 0.76853 0.0
C685 C 0.56208 0.46363 0.798 0.0
C686 C 0.5517 0.54428 0.75284 0.0
C687 C 0.55652 0.43468 0.75343 0.0
C688 C 0.51747 0.4872 0.68046 0.0
C689 C 0.54285 0.48643 0.66257 0.0
C690 C 0.52074 0.48874 0.71015 0.0
C691 C 0.55011 0.48912 0.72209 0.0
C692 C 0.57584 0.48795 0.70409 0.0
C693 C 0.57187 0.48681 0.67448 0.0
C694 C 0.4928 0.49018 0.72873 0.0
C695 C 0.60755 0.48777 0.7161 0.0
H696 H 0.56203 0.53565 0.80931 0.0
H697 H 0.56528 0.44345 0.80944 0.0
H698 H 0.57017 0.54557 0.73702 0.0
H699 H 0.52996 0.54603 0.7409 0.0
H700 H 0.55207 0.56287 0.76763 0.0
H701 H 0.55897 0.41622 0.76841 0.0
H702 H 0.53485 0.4338 0.74166 0.0
H703 H 0.57509 0.43219 0.73753 0.0
H704 H 0.495 0.48738 0.67118 0.0
H705 H 0.59147 0.48615 0.66056 0.0
H706 H 0.49198 0.50976 0.74225 0.0
H707 H 0.49371 0.47141 0.74326 0.0
H708 H 0.47156 0.49049 0.71603 0.0
H709 H 0.60978 0.50731 0.72921 0.0
H710 H 0.62511 0.48692 0.69914 0.0
H711 H 0.61211 0.46894 0.73031 0.0
C712 C 0.98096 0.56683 0.30178 0.0
C713 C 0.97554 0.5413 0.31594 0.0
C714 C 0.9838 0.56757 0.27209 0.0
C715 C 0.98161 0.54204 0.25623 0.0
C716 C 0.97712 0.51595 0.27047 0.0
C717 C 0.97375 0.51595 0.30025 0.0
C718 C 0.98793 0.59592 0.25765 0.0
C719 C 0.97521 0.48822 0.2542 0.0
C720 C 0.95645 0.54889 0.17911 0.0
C721 C 0.98423 0.54557 0.16476 0.0
C722 C 0.95531 0.548 0.20895 0.0
C723 C 0.98259 0.54306 0.22464 0.0
C724 C 0.01072 0.53978 0.2102 0.0
C725 C 0.01122 0.54136 0.18035 0.0
C726 C 0.92493 0.55226 0.22366 0.0
C727 C 0.04019 0.53408 0.22624 0.0
H728 H 0.9817 0.58659 0.31387 0.0
H729 H 0.96949 0.49626 0.31126 0.0
H730 H 0.00839 0.59407 0.24392 0.0
H731 H 0.96819 0.60179 0.24362 0.0
H732 H 0.99017 0.61362 0.27319 0.0
H733 H 0.97392 0.46947 0.26859 0.0
H734 H 0.95483 0.48979 0.24031 0.0
H735 H 0.99526 0.48431 0.24013 0.0
H736 H 0.93563 0.5521 0.16691 0.0
H737 H 0.03264 0.53832 0.1691 0.0
H738 H 0.92492 0.57054 0.23882 0.0
H739 H 0.92071 0.53286 0.23623 0.0
H740 H 0.90596 0.55654 0.20834 0.0
H741 H 0.04341 0.55195 0.24129 0.0
H742 H 0.06008 0.53163 0.21176 0.0
H743 H 0.03949 0.51421 0.2391 0.0
C744 C 0.28519 0.0957 0.09206 0.0
C745 C 0.28641 0.10005 0.12164 0.0
C746 C 0.31079 0.0843 0.07686 0.0
C747 C 0.33848 0.07755 0.09147 0.0
C748 C 0.33989 0.08217 0.12132 0.0
C749 C 0.3138 0.0931 0.13605 0.0
C750 C 0.30813 0.07925 0.04518 0.0
C751 C 0.36906 0.0758 0.13767 0.0
C752 C 0.39946 0.02472 0.05962 0.0
C753 C 0.41951 0.0432 0.04759 0.0
C754 C 0.37269 0.03558 0.07333 0.0
C755 C 0.36602 0.06569 0.07562 0.0
C756 C 0.38606 0.08445 0.06331 0.0
C757 C 0.41236 0.07299 0.04923 0.0
C758 C 0.3517 0.01481 0.08567 0.0
C759 C 0.3801 0.11666 0.06562 0.0
H760 H 0.26401 0.1008 0.08086 0.0
H761 H 0.31495 0.09671 0.15886 0.0
H762 H 0.32428 0.09198 0.03352 0.0
H763 H 0.31422 0.05628 0.04022 0.0
H764 H 0.28489 0.08519 0.03705 0.0
H765 H 0.36656 0.08109 0.16069 0.0
H766 H 0.37678 0.05271 0.13557 0.0
H767 H 0.38711 0.08829 0.12861 0.0
H768 H 0.40472 1.00168 0.05836 0.0
H769 H 0.42781 0.08746 0.04019 0.0
H770 H 0.32844 0.01945 0.07711 0.0
H771 H 0.35039 0.01749 0.10915 0.0
H772 H 0.3593 0.99208 0.08083 0.0
H773 H 0.35764 0.12354 0.05633 0.0
H774 H 0.39767 0.12832 0.05461 0.0
H775 H 0.37949 0.12313 0.08841 0.0
C776 C 0.19766 0.93071 0.63548 0.0
C777 C 0.22506 0.92409 0.62104 0.0
C778 C 0.17146 0.94144 0.62079 0.0
C779 C 0.17278 0.94615 0.59098 0.0
C780 C 0.20048 0.93973 0.57634 0.0
C781 C 0.2262 0.92854 0.5915 0.0
C782 C 0.14228 0.94752 0.63715 0.0
C783 C 0.20303 0.94487 0.54469 0.0
C784 C 0.09885 0.9503 0.54874 0.0
C785 C 0.09152 0.98006 0.54728 0.0
C786 C 0.12526 0.93898 0.56276 0.0
C787 C 0.14516 0.95786 0.57519 0.0
C788 C 0.13828 0.98794 0.57308 0.0
C789 C 0.11144 0.99866 0.55941 0.0
C790 C 0.13147 0.90678 0.56486 0.0
C791 C 0.15913 1.00882 0.58557 0.0
H792 H 0.19659 0.927 0.65826 0.0
H793 H 0.24741 0.92368 0.58029 0.0
H794 H 0.13433 0.97056 0.63518 0.0
H795 H 0.12434 0.93489 0.628 0.0
H796 H 0.14487 0.94218 0.66014 0.0
H797 H 0.22628 0.93913 0.53653 0.0
H798 H 0.18695 0.93206 0.53295 0.0
H799 H 0.19674 0.96783 0.53986 0.0
H800 H 0.08349 0.93576 0.5396 0.0
H801 H 0.10603 0.02168 0.55826 0.0
H802 H 0.13216 0.90024 0.58761 0.0
H803 H 0.15396 0.90009 0.55556 0.0
H804 H 0.114 0.89503 0.55374 0.0
H805 H 0.16052 1.00606 0.60904 0.0
H806 H 0.15135 0.03153 0.58089 0.0
H807 H 0.18239 1.00438 0.57698 0.0
C808 C 0.77623 0.47409 0.96499 0.0
C809 C 0.75985 0.46279 0.98746 0.0
C810 C 0.80642 0.48054 0.96858 0.0
C811 C 0.82111 0.47448 0.99492 0.0
C812 C 0.80506 0.46267 0.01757 0.0
C813 C 0.77449 0.45748 0.01376 0.0
C814 C 0.82259 0.49382 0.94414 0.0
C815 C 0.82027 0.45523 0.04574 0.0
C816 C 0.90708 0.46645 0.99257 0.0
C817 C 0.91438 0.49259 1.00441 0.0
C818 C 0.87677 0.45991 0.9901 0.0
C819 C 0.85333 0.48051 0.99869 0.0
C820 C 0.86067 0.50712 1.01031 0.0
C821 C 0.8912 0.51262 0.01352 0.0
C822 C 0.86984 0.43095 0.97847 0.0
C823 C 0.8363 0.52999 0.01876 0.0
H824 H 0.76567 0.47762 0.94432 0.0
H825 H 0.76211 0.44929 0.03149 0.0
H826 H 0.83217 0.51392 0.95128 0.0
H827 H 0.8418 0.47895 0.93686 0.0
H828 H 0.80734 0.49889 0.92568 0.0
H829 H 0.80501 0.44493 0.06075 0.0
H830 H 0.84078 0.44041 0.0422 0.0
H831 H 0.82782 0.47492 0.05593 0.0
H832 H 0.92513 0.4509 0.98576 0.0
H833 H 0.89695 0.53294 0.02247 0.0
H834 H 0.85689 0.43371 0.95827 0.0
H835 H 0.85543 0.42005 0.99376 0.0
H836 H 0.89071 0.41677 0.97432 0.0
H837 H 0.8217 0.53588 1.00008 0.0
H838 H 0.84585 0.54971 0.02701 0.0
H839 H 0.82153 0.52165 0.03541 0.0
C840 C 0.73959 0.5602 0.4899 0.0
C841 C 0.75281 0.54929 0.46448 0.0
C842 C 0.70878 0.55787 0.49572 0.0
C843 C 0.69093 0.54339 0.47616 0.0
C844 C 0.70407 0.53202 0.45067 0.0
C845 C 0.73467 0.53552 0.44492 0.0
C846 C 0.69537 0.57081 0.52287 0.0
C847 C 0.68589 0.51585 0.42959 0.0
C848 C 0.62084 0.51183 0.50527 0.0
C849 C 0.59762 0.53102 0.49465 0.0
C850 C 0.6513 0.51546 0.49914 0.0
C851 C 0.6587 0.53937 0.48276 0.0
C852 C 0.63535 0.55918 0.47249 0.0
C853 C 0.60497 0.55448 0.47816 0.0
C854 C 0.6755 0.49341 0.50975 0.0
C855 C 0.64246 0.58539 0.45568 0.0
H856 H 0.75333 0.57036 0.50551 0.0
H857 H 0.74427 0.52757 0.42492 0.0
H858 H 0.675 0.58535 0.51792 0.0
H859 H 0.68797 0.55357 0.5369 0.0
H860 H 0.71176 0.58314 0.53484 0.0
H861 H 0.69972 0.50768 0.41111 0.0
H862 H 0.6764 0.49736 0.4403 0.0
H863 H 0.66648 0.53001 0.42152 0.0
H864 H 0.61511 0.4935 0.51778 0.0
H865 H 0.58698 0.5694 0.4701 0.0
H866 H 0.69153 0.50377 0.52392 0.0
H867 H 0.68877 0.48404 0.49146 0.0
H868 H 0.66585 0.47571 0.52167 0.0
H869 H 0.65803 0.59821 0.46807 0.0
H870 H 0.62175 0.59933 0.4503 0.0
H871 H 0.65423 0.57876 0.43559 0.0
C872 C 0.11028 0.32361 0.11162 0.0
C873 C 0.0924 0.30124 0.11927 0.0
C874 C 0.09748 0.34896 0.09884 0.0
C875 C 0.06591 0.3522 0.09331 0.0
C876 C 0.04757 0.33001 0.10162 0.0
C877 C 0.06099 0.30488 0.11463 0.0
C878 C 0.11793 0.37212 0.09082 0.0
C879 C 0.01386 0.3325 0.09606 0.0
C880 C 0.03159 0.42871 0.08015 0.0
C881 C 0.03135 0.43037 0.05021 0.0
C882 C 0.04204 0.4033 0.0944 0.0
C883 C 0.05243 0.37868 0.07845 0.0
C884 C 0.05154 0.37997 0.04823 0.0
C885 C 0.04113 0.40574 0.03451 0.0
C886 C 0.04275 0.40308 0.12659 0.0
C887 C 0.06221 0.35424 0.03034 0.0
H888 H 0.13451 0.32115 0.11546 0.0
H889 H 0.04705 0.28765 0.12027 0.0
H890 H 0.11735 0.3754 0.06739 0.0
H891 H 0.10974 0.39281 0.10088 0.0
H892 H 0.14182 0.36674 0.09743 0.0
H893 H 1.00256 0.31392 0.10467 0.0
H894 H 1.00328 0.35251 0.10579 0.0
H895 H 0.00959 0.33389 0.07277 0.0
H896 H 0.0241 0.44752 0.0926 0.0
H897 H 0.04099 0.40667 1.01141 0.0
H898 H 0.06655 0.39972 0.13411 0.0
H899 H 0.03046 0.385 0.13487 0.0
H900 H 0.03246 0.42345 0.13592 0.0
H901 H 0.0868 0.34887 0.03393 0.0
H902 H 0.05839 0.35808 1.0072 0.0
H903 H 0.05026 0.33525 0.0368 0.0
C904 C 0.57122 0.28741 0.97415 0.0
C905 C 0.5489 0.3091 0.98153 0.0
C906 C 0.56502 0.25847 0.97448 0.0
C907 C 0.53584 0.25105 0.98257 0.0
C908 C 0.51336 0.27278 0.99065 0.0
C909 C 0.52013 0.30165 0.98987 0.0
C910 C 0.58952 0.23589 0.96556 0.0
C911 C 0.48214 0.26554 0.99977 0.0
C912 C 0.51422 0.17813 0.95734 0.0
C913 C 0.52204 0.16111 0.98116 0.0
C914 C 0.51784 0.20774 0.95772 0.0
C915 C 0.52912 0.22044 0.98264 0.0
C916 C 0.53591 0.20345 1.00709 0.0
C917 C 0.53241 0.17394 1.006 0.0
C918 C 0.51062 0.22522 0.93118 0.0
C919 C 0.54763 0.21629 0.03415 0.0
H920 H 0.5933 0.29316 0.96714 0.0
H921 H 0.50289 0.31843 0.99563 0.0
H922 H 0.59418 0.22019 0.98306 0.0
H923 H 0.58177 0.22381 0.94687 0.0
H924 H 0.61103 0.24529 0.9599 0.0
H925 H 0.4675 0.28491 1.00612 0.0
H926 H 0.47091 0.25463 0.98208 0.0
H927 H 0.48391 0.25038 0.01801 0.0
H928 H 0.50617 0.16813 0.93818 0.0
H929 H 0.53791 0.16078 0.02461 0.0
H930 H 0.53167 0.23358 0.92279 0.0
H931 H 0.49468 0.24405 0.93627 0.0
H932 H 0.50047 0.21243 0.91415 0.0
H933 H 0.57027 0.2242 0.03021 0.0
H934 H 0.54969 0.20051 0.0519 0.0
H935 H 0.53233 0.23501 0.04095 0.0
C936 C 0.94419 0.73601 0.50432 0.0
C937 C 0.94951 0.71778 0.48078 0.0
C938 C 0.9521 0.76454 0.50354 0.0
C939 C 0.96571 0.77495 0.47867 0.0
C940 C 0.97188 0.75645 0.45517 0.0
C941 C 0.96353 0.72817 0.45643 0.0
C942 C 0.94516 0.78378 0.52899 0.0
C943 C 0.98641 0.76677 0.42832 0.0
C944 C 0.95526 0.85495 0.46465 0.0
C945 C 0.98285 0.86421 0.47441 0.0
C946 C 0.94951 0.82589 0.46572 0.0
C947 C 0.97201 0.8056 0.47661 0.0
C948 C 1.0003 0.81464 0.48559 0.0
C949 C 1.00537 0.8439 0.48444 0.0
C950 C 0.91911 0.817 0.45578 0.0
C951 C 0.0249 0.7935 0.49706 0.0
H952 H 0.93359 0.72804 0.52324 0.0
H953 H 0.96711 0.71447 0.43787 0.0
H954 H 0.966 0.79341 0.53624 0.0
H955 H 0.92851 0.80173 0.52286 0.0
H956 H 0.93574 0.77206 0.54713 0.0
H957 H 0.99167 0.7491 0.41278 0.0
H958 H 0.97098 0.7835 0.41794 0.0
H959 H 0.00771 0.77674 0.43355 0.0
H960 H 0.93794 0.87055 0.45655 0.0
H961 H 0.02658 0.85099 0.49239 0.0
H962 H 0.90732 0.8071 0.47371 0.0
H963 H 0.92228 0.80056 0.43872 0.0
H964 H 0.90425 0.83541 0.44751 0.0
H965 H 0.01692 0.78344 0.5168 0.0
H966 H 0.0461 0.80384 0.50197 0.0
H967 H 0.03015 0.776 0.48138 0.0
C968 C 0.45228 0.72209 0.61051 0.0
C969 C 0.42102 0.72501 0.61598 0.0
C970 C 0.46587 0.69721 0.59714 0.0
C971 C 0.44785 0.67455 0.58939 0.0
C972 C 0.41645 0.6771 0.59573 0.0
C973 C 0.40347 0.70225 0.60878 0.0
C974 C 0.49937 0.69547 0.59068 0.0
C975 C 0.39641 0.65337 0.58838 0.0
C976 C 0.47193 0.62044 0.5308 0.0
C977 C 0.48274 0.5963 0.54667 0.0
C978 C 0.46149 0.64632 0.54437 0.0
C979 C 0.46155 0.64815 0.57458 0.0
C980 C 0.47302 0.62404 0.59066 0.0
C981 C 0.48356 0.59857 0.57657 0.0
C982 C 0.4497 0.67155 0.52637 0.0
C983 C 0.47327 0.62481 0.62285 0.0
H984 H 0.46593 0.73967 0.61579 0.0
H985 H 0.37935 0.70421 0.61322 0.0
H986 H 0.5108 0.67588 0.60044 0.0
H987 H 0.50292 0.69374 0.5673 0.0
H988 H 0.51039 0.71452 0.59865 0.0
H989 H 0.37262 0.65831 0.59549 0.0
H990 H 0.39643 0.64982 0.56499 0.0
H991 H 0.40536 0.63295 0.59845 0.0
H992 H 0.47125 0.61902 0.50774 0.0
H993 H 0.49182 0.58012 0.58915 0.0
H994 H 0.46123 0.69098 0.53235 0.0
H995 H 0.42512 0.67636 0.53037 0.0
H996 H 0.4531 0.66744 0.50321 0.0
H997 H 0.48525 0.64337 0.63053 0.0
H998 H 0.48439 0.60484 0.63223 0.0
H999 H 0.44966 0.62771 0.63092 0.0
C1000 C 0.89078 0.93241 0.69695 0.0
C1001 C 0.90993 0.92004 0.71833 0.0
C1002 C 0.90247 0.94479 0.67235 0.0
C1003 C 0.93424 0.94468 0.66857 0.0
C1004 C 0.95378 0.93172 0.68971 0.0
C1005 C 0.94144 0.91962 0.71428 0.0
C1006 C 0.88071 0.95814 0.65041 0.0
C1007 C 0.98777 0.93088 0.68649 0.0
C1008 C 0.96282 0.95361 0.59244 0.0
C1009 C 0.96872 0.98278 0.59166 0.0
C1010 C 0.95209 0.94094 0.61732 0.0
C1011 C 0.94685 0.95775 0.64226 0.0
C1012 C 0.95275 0.98721 0.64168 0.0
C1013 C 0.96366 0.99933 0.61648 0.0
C1014 C 0.94626 0.90948 0.61684 0.0
C1015 C 0.9473 1.00601 0.66766 0.0
H1016 H 0.86643 0.93239 0.69938 0.0
H1017 H 0.95653 0.91041 0.73063 0.0
H1018 H 0.88485 0.98107 0.64731 0.0
H1019 H 0.8845 0.94721 0.62955 0.0
H1020 H 0.85663 0.95683 0.65662 0.0
H1021 H 0.99991 0.91965 0.70452 0.0
H1022 H 0.99481 0.91982 0.66634 0.0
H1023 H 0.99498 0.95308 0.68521 0.0
H1024 H 0.96671 0.94046 0.57353 0.0
H1025 H 0.96817 0.02183 0.61624 0.0
H1026 H 0.92198 0.90696 0.62128 0.0
H1027 H 0.95964 0.89784 0.63383 0.0
H1028 H 0.95219 0.89916 0.59601 0.0
H1029 H 0.92305 1.00668 0.67385 0.0
H1030 H 0.95343 0.02834 0.664 0.0
H1031 H 0.96074 0.99683 0.68592 0.0
C1032 C 0.55965 0.11028 0.2127 0.0
C1033 C 0.59059 0.11192 0.21885 0.0
C1034 C 0.55007 0.09606 0.18812 0.0
C1035 C 0.57185 0.08286 0.16912 0.0
C1036 C 0.60308 0.08416 0.1753 0.0
C1037 C 0.61203 0.09871 0.1999 0.0
C1038 C 0.51655 0.09537 0.18236 0.0
C1039 C 0.62712 0.07045 0.15572 0.0
C1040 C 0.54646 0.02638 0.11663 0.0
C1041 C 0.54215 0.04239 0.09142 0.0
C1042 C 0.55637 0.03913 0.14196 0.0
C1043 C 0.56197 0.06867 0.14226 0.0
C1044 C 0.55788 0.08482 0.11681 0.0
C1045 C 0.54817 0.07154 0.09182 0.0
C1046 C 0.56066 0.02103 0.1685 0.0
C1047 C 0.56341 0.11634 0.11602 0.0
H1048 H 0.54279 0.1199 0.22727 0.0
H1049 H 0.63598 0.10013 0.20399 0.0
H1050 H 0.51075 0.10601 0.16172 0.0
H1051 H 0.51052 0.0728 0.18058 0.0
H1052 H 0.50245 0.10628 0.19936 0.0
H1053 H 0.6504 0.07219 0.16413 0.0
H1054 H 0.62355 0.04739 0.15254 0.0
H1055 H 0.6254 0.08088 0.13447 0.0
H1056 H 0.54191 1.0039 0.11664 0.0
H1057 H 0.54492 0.08424 0.07258 0.0
H1058 H 0.54532 0.02993 0.18557 0.0
H1059 H 0.58422 0.02164 0.1765 0.0
H1060 H 0.55604 0.99828 0.1647 0.0
H1061 H 0.54826 0.12839 0.13146 0.0
H1062 H 0.55943 0.12587 0.09452 0.0
H1063 H 0.58708 0.11937 0.1225 0.0
C1064 C 0.47739 0.52461 0.22009 0.0
C1065 C 0.44705 0.52444 0.21132 0.0
C1066 C 0.48498 0.52519 0.24912 0.0
C1067 C 0.46171 0.52522 0.26978 0.0
C1068 C 0.43125 0.52359 0.26111 0.0
C1069 C 0.42427 0.52338 0.23199 0.0
C1070 C 0.51773 0.52688 0.25765 0.0
C1071 C 0.40585 0.52319 0.28259 0.0
C1072 C 0.47946 0.50514 0.3464 0.0
C1073 C 0.47694 0.5321 0.35988 0.0
C1074 C 0.47534 0.50262 0.31694 0.0
C1075 C 0.46891 0.5277 0.30052 0.0
C1076 C 0.46762 0.55508 0.31376 0.0
C1077 C 0.47161 0.55696 0.34338 0.0
C1078 C 0.47685 0.47307 0.30358 0.0
C1079 C 0.46107 0.58231 0.29678 0.0
H1080 H 0.49515 0.52505 0.20423 0.0
H1081 H 0.40073 0.52374 0.22547 0.0
H1082 H 0.52042 0.54762 0.26861 0.0
H1083 H 0.52473 0.50951 0.27295 0.0
H1084 H 0.53326 0.52517 0.23902 0.0
H1085 H 0.38365 0.52015 0.27237 0.0
H1086 H 0.41086 0.50567 0.29826 0.0
H1087 H 0.40388 0.54373 0.29463 0.0
H1088 H 0.48435 0.48587 0.35898 0.0
H1089 H 0.46962 0.57781 0.35373 0.0
H1090 H 0.49308 0.4718 0.28552 0.0
H1091 H 0.45428 0.46889 0.29483 0.0
H1092 H 0.48382 0.45584 0.31909 0.0
H1093 H 0.47696 0.58282 0.27854 0.0
H1094 H 0.46297 0.60191 0.30993 0.0
H1095 H 0.43779 0.58288 0.28785 0.0
C1096 C 0.06957 0.47477 0.7306 0.0
C1097 C 0.04563 0.47444 0.71095 0.0
C1098 C 0.06403 0.47681 0.75993 0.0
C1099 C 0.03384 0.47794 0.76997 0.0
C1100 C 0.00949 0.47802 0.75037 0.0
C1101 C 0.01567 0.47654 0.72104 0.0
C1102 C 0.09059 0.47714 0.7802 0.0
C1103 C 0.97701 0.47899 0.76043 0.0
C1104 C 0.02658 0.45446 0.84683 0.0
C1105 C 0.02382 0.481 0.86099 0.0
C1106 C 0.02852 0.45313 0.81698 0.0
C1107 C 0.02802 0.47893 0.80108 0.0
C1108 C 0.02421 0.50575 0.81517 0.0
C1109 C 0.02185 0.50644 0.84492 0.0
C1110 C 0.03215 0.42413 0.80255 0.0
C1111 C 0.02385 0.53372 0.79896 0.0
H1112 H 0.09282 0.47247 0.72318 0.0
H1113 H 0.99702 0.47664 0.70603 0.0
H1114 H 0.08778 0.49625 0.79433 0.0
H1115 H 0.09149 0.45784 0.79404 0.0
H1116 H 0.11259 0.47749 0.76884 0.0
H1117 H 0.96065 0.47927 0.74242 0.0
H1118 H 0.97376 0.45998 0.77394 0.0
H1119 H 0.97164 0.49834 0.77378 0.0
H1120 H 0.02816 0.43474 0.85909 0.0
H1121 H 0.01883 0.52705 0.85566 0.0
H1122 H 0.05506 0.42092 0.79292 0.0
H1123 H 0.01541 0.42305 0.78501 0.0
H1124 H 0.02923 0.40623 0.81764 0.0
H1125 H 0.04621 0.53552 0.78869 0.0
H1126 H 0.01893 0.55272 0.81298 0.0
H1127 H 0.00662 0.53426 0.78173 0.0
C1128 C 0.72724 0.92493 0.94554 0.0
C1129 C 0.72805 0.91748 0.91653 0.0
C1130 C 0.70088 0.93825 0.95802 0.0
C1131 C 0.67444 0.94385 0.94124 0.0
C1132 C 0.67527 0.93676 0.91182 0.0
C1133 C 0.70215 0.9239 0.89977 0.0
C1134 C 0.70121 0.94592 0.98931 0.0
C1135 C 0.6475 0.94196 0.89325 0.0
C1136 C 0.59863 0.94927 0.98022 0.0
C1137 C 0.59105 0.97904 0.98055 0.0
C1138 C 0.62548 0.93759 0.96727 0.0
C1139 C 0.64564 0.9561 0.95475 0.0
C1140 C 0.63834 0.9862 0.95538 0.0
C1141 C 0.61103 0.99728 0.96803 0.0
C1142 C 0.63213 0.90537 0.96674 0.0
C1143 C 0.65942 1.00671 0.94274 0.0
H1144 H 0.74731 0.92027 0.95851 0.0
H1145 H 0.7026 0.91797 0.8774 0.0
H1146 H 0.69368 0.96896 0.99229 0.0
H1147 H 0.68506 0.93325 1.00104 0.0
H1148 H 0.72406 0.94172 0.99898 0.0
H1149 H 0.65207 0.93599 0.87063 0.0
H1150 H 0.62914 0.92923 0.90132 0.0
H1151 H 0.63897 0.96492 0.89418 0.0
H1152 H 0.58324 0.93497 0.98962 0.0
H1153 H 0.60541 0.0203 0.96825 0.0
H1154 H 0.65376 0.89938 0.97801 0.0
H1155 H 0.6349 0.89778 0.94439 0.0
H1156 H 0.61387 0.89391 0.97691 0.0
H1157 H 0.68206 1.00353 0.95298 0.0
H1158 H 0.65076 0.02953 0.94543 0.0
H1159 H 0.6626 1.00223 0.91965 0.0
C1160 C 0.78578 0.09585 0.43527 0.0
C1161 C 0.78692 0.09996 0.40567 0.0
C1162 C 0.81151 0.0849 0.45055 0.0
C1163 C 0.83924 0.07836 0.43597 0.0
C1164 C 0.84055 0.0827 0.4061 0.0
C1165 C 0.81434 0.0932 0.39129 0.0
C1166 C 0.80897 0.08014 0.48226 0.0
C1167 C 0.86975 0.07648 0.3898 0.0
C1168 C 0.91313 0.07479 0.47827 0.0
C1169 C 0.92047 0.04505 0.48009 0.0
C1170 C 0.88673 0.08592 0.46411 0.0
C1171 C 0.86686 0.06688 0.45189 0.0
C1172 C 0.87374 0.03683 0.45436 0.0
C1173 C 0.90056 0.0263 0.46818 0.0
C1174 C 0.8805 0.11808 0.46161 0.0
C1175 C 0.85293 0.01578 0.44212 0.0
H1176 H 0.76457 0.10081 0.44644 0.0
H1177 H 0.81541 0.09664 0.36847 0.0
H1178 H 0.8153 0.05725 0.48737 0.0
H1179 H 0.82501 0.09314 0.49384 0.0
H1180 H 0.78571 0.08595 0.49036 0.0
H1181 H 0.86716 0.08153 0.36675 0.0
H1182 H 0.88765 0.08926 0.39879 0.0
H1183 H 0.87774 0.05348 0.39205 0.0
H1184 H 0.92847 0.08944 0.48723 0.0
H1185 H 0.90599 1.00329 0.46959 0.0
H1186 H 0.85799 0.12487 0.47084 0.0
H1187 H 0.87982 0.12435 0.43879 0.0
H1188 H 0.89795 0.12999 0.4726 0.0
H1189 H 0.82966 0.0203 0.45065 0.0
H1190 H 0.86074 0.99313 0.44705 0.0
H1191 H 0.85156 0.01827 0.41862 0.0
C1192 C 0.23011 0.58404 0.0278 0.0
C1193 C 0.25209 0.56137 0.03324 0.0
C1194 C 0.19943 0.57901 0.02469 0.0
C1195 C 0.19046 0.5507 0.02741 0.0
C1196 C 0.21252 0.52768 0.03255 0.0
C1197 C 0.24308 0.53327 0.03519 0.0
C1198 C 0.17654 0.60406 0.01894 0.0
C1199 C 0.20377 0.4972 0.03567 0.0
C1200 C 0.10888 0.54055 0.0475 0.0
C1201 C 0.09663 0.53305 0.02119 0.0
C1202 C 0.13942 0.54643 0.04983 0.0
C1203 C 0.15795 0.54513 0.02518 0.0
C1204 C 0.14557 0.53805 0.99849 0.0
C1205 C 0.11509 0.53191 0.99685 0.0
C1206 C 0.15197 0.55364 0.07871 0.0
C1207 C 0.16454 0.53685 0.97169 0.0
H1208 H 0.23677 0.60587 0.02669 0.0
H1209 H 0.25996 0.51558 0.03893 0.0
H1210 H 0.16335 0.59993 0.99942 0.0
H1211 H 0.16021 0.6066 0.03687 0.0
H1212 H 0.18738 0.62456 0.01619 0.0
H1213 H 0.22369 0.48173 0.03964 0.0
H1214 H 0.18761 0.4959 0.05362 0.0
H1215 H 0.19209 0.4905 0.01609 0.0
H1216 H 0.09473 0.54139 0.06639 0.0
H1217 H 0.10569 0.52633 0.9764 0.0
H1218 H 0.16139 0.57497 0.07803 0.0
H1219 H 0.17083 0.53763 0.08447 0.0
H1220 H 0.1345 0.55395 0.09573 0.0
H1221 H 0.17437 0.55774 0.96833 0.0
H1222 H 0.15122 0.5318 0.95247 0.0
H1223 H 0.18374 0.52025 0.97392 0.0
C1224 C 0.28116 0.45082 0.54788 0.0
C1225 C 0.26086 0.47496 0.55277 0.0
C1226 C 0.31199 0.45376 0.54274 0.0
C1227 C 0.32286 0.48147 0.54285 0.0
C1228 C 0.30255 0.50593 0.5477 0.0
C1229 C 0.27176 0.50239 0.55242 0.0
C1230 C 0.33296 0.4272 0.53738 0.0
C1231 C 0.31338 0.53584 0.54808 0.0
C1232 C 0.40671 0.48849 0.55584 0.0
C1233 C 0.41701 0.49367 0.5282 0.0
C1234 C 0.3761 0.48431 0.56092 0.0
C1235 C 0.35549 0.48495 0.53775 0.0
C1236 C 0.36593 0.48949 0.50974 0.0
C1237 C 0.39653 0.49398 0.50532 0.0
C1238 C 0.36569 0.47979 0.59112 0.0
C1239 C 0.34471 0.48987 0.48445 0.0
H1240 H 0.27309 0.4295 0.54862 0.0
H1241 H 0.25618 0.52118 0.55576 0.0
H1242 H 0.34461 0.42903 0.5166 0.0
H1243 H 0.35076 0.42517 0.55409 0.0
H1244 H 0.32075 0.40728 0.53724 0.0
H1245 H 0.29476 0.55257 0.55262 0.0
H1246 H 0.33129 0.53725 0.5645 0.0
H1247 H 0.3236 0.54063 0.5272 0.0
H1248 H 0.42243 0.48833 0.5736 0.0
H1249 H 0.40441 0.49776 0.48387 0.0
H1250 H 0.35476 0.45925 0.59271 0.0
H1251 H 0.34844 0.49726 0.5972 0.0
H1252 H 0.38467 0.4794 0.60669 0.0
H1253 H 0.33325 0.46957 0.48355 0.0
H1254 H 0.35667 0.4926 0.46393 0.0
H1255 H 0.32678 0.50769 0.48678 0.0
C1256 C 0.96128 0.71794 0.90645 0.0
C1257 C 0.9302 0.72455 0.90147 0.0
C1258 C 0.97181 0.6929 0.92138 0.0
C1259 C 0.95085 0.67374 0.93144 0.0
C1260 C 0.91949 0.68017 0.92624 0.0
C1261 C 0.9096 0.70541 0.91145 0.0
C1262 C 1.0054 0.68701 0.92654 0.0
C1263 C 0.89632 0.66028 0.93618 0.0
C1264 C 0.978 0.59542 0.94588 0.0
C1265 C 0.98 0.59462 0.97581 0.0
C1266 C 0.96886 0.62096 0.93127 0.0
C1267 C 0.96164 0.64663 0.94681 0.0
C1268 C 0.96397 0.64611 0.97699 0.0
C1269 C 0.973 0.62015 0.99112 0.0
C1270 C 0.96653 0.62033 0.89915 0.0
C1271 C 0.95666 0.67296 0.99441 0.0
H1272 H 0.97738 0.73267 0.89915 0.0
H1273 H 0.88559 0.71003 0.90741 0.0
H1274 H 0.00993 0.68516 0.94977 0.0
H1275 H 0.01352 0.66621 0.91667 0.0
H1276 H 0.01874 0.70414 0.91771 0.0
H1277 H 0.87278 0.66841 0.93066 0.0
H1278 H 0.90104 0.63875 0.92638 0.0
H1279 H 0.89788 0.65746 0.95964 0.0
H1280 H 0.9833 0.57591 0.93372 0.0
H1281 H 0.97451 0.61987 0.01418 0.0
H1282 H 0.98101 0.63621 0.88971 0.0
H1283 H 0.94284 0.62651 0.8925 0.0
H1284 H 0.97348 0.5988 0.89014 0.0
H1285 H 0.97077 0.69022 0.98723 0.0
H1286 H 0.96055 0.6693 0.01757 0.0
H1287 H 0.9326 0.68084 0.99113 0.0
C1288 C 0.43985 0.73476 0.05275 0.0
C1289 C 0.46266 0.71311 0.04662 0.0
C1290 C 0.44591 0.76374 0.05249 0.0
C1291 C 0.47542 0.77124 0.04565 0.0
C1292 C 0.4984 0.74953 0.03878 0.0
C1293 C 0.49179 0.72062 0.03954 0.0
C1294 C 0.42088 0.7863 0.06016 0.0
C1295 C 0.52999 0.75684 0.03093 0.0
C1296 C 0.47958 0.84814 0.02177 0.0
C1297 C 0.4888 0.86128 0.04688 0.0
C1298 C 0.47626 0.81859 0.02077 0.0
C1299 C 0.48197 0.8019 0.04561 0.0
C1300 C 0.49205 0.81494 0.07086 0.0
C1301 C 0.49559 0.84456 0.07112 0.0
C1302 C 0.46591 0.80539 0.99336 0.0
C1303 C 0.49804 0.7978 0.09783 0.0
H1304 H 0.41747 0.72895 0.05877 0.0
H1305 H 0.5094 0.70385 0.03477 0.0
H1306 H 0.42765 0.79868 0.07903 0.0
H1307 H 0.41696 0.80175 0.04234 0.0
H1308 H 0.39918 0.77684 0.06501 0.0
H1309 H 0.54501 0.73747 0.02536 0.0
H1310 H 0.52903 0.7718 0.01254 0.0
H1311 H 0.54028 0.76799 0.04901 0.0
H1312 H 0.47485 0.86109 1.00287 0.0
H1313 H 0.50274 0.85483 0.09049 0.0
H1314 H 0.44314 0.79743 0.99641 0.0
H1315 H 0.48159 0.78665 0.98736 0.0
H1316 H 0.46465 0.82095 0.97542 0.0
H1317 H 0.47666 0.78938 0.10534 0.0
H1318 H 0.50723 0.81085 0.11518 0.0
H1319 H 0.51434 0.77901 0.09359 0.0
C1320 C 0.03834 0.30041 0.51866 0.0
C1321 C 0.06882 0.30539 0.52321 0.0
C1322 C 0.02877 0.27247 0.51971 0.0
C1323 C 0.05016 0.24918 0.52592 0.0
C1324 C 0.08113 0.25403 0.52956 0.0
C1325 C 0.09011 0.2821 0.52798 0.0
C1326 C 0.99568 0.26798 0.51514 0.0
C1327 C 0.10458 0.22974 0.53642 0.0
C1328 C 0.02535 0.18141 0.56046 0.0
C1329 C 0.02806 0.16216 0.53759 0.0
C1330 C 0.03165 0.21019 0.55679 0.0
C1331 C 0.04026 0.21977 0.5295 0.0
C1332 C 0.04151 0.2006 0.50607 0.0
C1333 C 0.03563 0.17192 0.51047 0.0
C1334 C 0.03041 0.23 0.58231 0.0
C1335 C 0.05006 0.21012 0.47659 0.0
H1336 H 0.02189 0.31848 0.51498 0.0
H1337 H 0.11359 0.28599 0.53201 0.0
H1338 H 0.99319 0.25109 0.4988 0.0
H1339 H 0.98574 0.26044 0.53522 0.0
H1340 H 0.98245 0.28798 0.50826 0.0
H1341 H 0.12785 0.23705 0.53783 0.0
H1342 H 0.099 0.21985 0.55707 0.0
H1343 H 0.10439 0.21273 0.51989 0.0
H1344 H 0.0195 0.17366 0.58137 0.0
H1345 H 0.03735 0.15691 0.49276 0.0
H1346 H 0.01566 0.24976 0.57773 0.0
H1347 H 0.05345 0.23669 0.58693 0.0
H1348 H 0.02177 0.21964 0.60167 0.0
H1349 H 0.03596 0.22983 0.47041 0.0
H1350 H 0.04728 0.19325 0.46025 0.0
H1351 H 0.07405 0.21549 0.4765 0.0
C1352 C 0.56077 0.30332 0.41386 0.0
C1353 C 0.59212 0.29984 0.40891 0.0
C1354 C 0.5474 0.32845 0.42694 0.0
C1355 C 0.56574 0.35078 0.43496 0.0
C1356 C 0.59724 0.34767 0.42914 0.0
C1357 C 0.60999 0.32231 0.41633 0.0
C1358 C 0.51377 0.33082 0.43281 0.0
C1359 C 0.61764 0.37101 0.43684 0.0
C1360 C 0.53149 0.42734 0.44731 0.0
C1361 C 0.53171 0.42955 0.47722 0.0
C1362 C 0.54169 0.40169 0.43335 0.0
C1363 C 0.55229 0.37739 0.44958 0.0
C1364 C 0.55178 0.37919 0.47979 0.0
C1365 C 0.54162 0.40522 0.49323 0.0
C1366 C 0.542 0.40092 0.40116 0.0
C1367 C 0.56268 0.35377 0.49794 0.0
H1368 H 0.54687 0.28598 0.4084 0.0
H1369 H 0.63418 0.31995 0.41225 0.0
H1370 H 0.50978 0.33256 0.45612 0.0
H1371 H 0.50294 0.35061 0.42291 0.0
H1372 H 0.50249 0.31202 0.42456 0.0
H1373 H 0.6415 0.36563 0.43018 0.0
H1374 H 0.60931 0.39154 0.4266 0.0
H1375 H 0.61721 0.37462 0.46023 0.0
H1376 H 0.52387 0.44591 0.43463 0.0
H1377 H 0.54183 0.4066 0.5163 0.0
H1378 H 0.52984 0.38258 0.39325 0.0
H1379 H 0.56573 0.39768 0.39346 0.0
H1380 H 0.53138 0.42104 0.39164 0.0
H1381 H 0.5508 0.33462 0.49175 0.0
H1382 H 0.55895 0.35794 0.52105 0.0
H1383 H 0.58726 0.34847 0.49433 0.0
loop_
_geom_bond_atom_site_label_1
_geom_bond_atom_site_label_2
_geom_bond_distance
_geom_bond_site_symmetry_2
_ccdc_geom_bond_type
C0 C1 1.391 . S
C0 C4 1.391 . S
C0 H42 0.948 . S
C1 C0 1.391 . S
C1 C2 1.391 . S
C2 C1 1.391 . S
C2 H58 0.947 . S
C2 C59 1.392 . S
C3 C4 1.391 . S
C3 C7 1.397 . S
C3 C59 1.419 . S
C4 C0 1.391 . S
C4 C3 1.391 . S
C4 C5 1.399 . S
C5 C4 1.399 . S
C5 C8 1.396 . S
C5 C17 1.453 . S
C5 C18 1.684 . S
H6 C30 0.948 . S
C7 C3 1.397 . S
C7 C8 1.394 . S
C7 C26 1.723 . S
C8 C5 1.396 . S
C8 C7 1.394 . S
C8 C38 1.723 . S
H9 C32 0.947 . S
H10 C33 0.948 . S
H11 C39 0.982 . S
H12 C40 0.979 . S
H13 C40 0.980 . S
H14 C40 0.983 . S
H15 C39 0.979 . S
H16 C39 0.977 . S
C17 C5 1.453 . S
C17 H46 0.982 . S
C17 H47 0.979 . S
C17 H48 0.977 . S
C18 C5 1.684 . S
C18 H43 0.979 . S
C18 H44 0.980 . S
C18 H45 0.983 . S
C19 C20 1.391 . S
C19 C24 1.391 . S
C19 H49 0.948 . S
C20 C19 1.391 . S
C20 C21 1.391 . S
C21 C20 1.391 . S
C21 C22 1.392 . S
C21 H50 0.947 . S
C22 C21 1.392 . S
C22 C23 1.419 . S
C22 H51 0.948 . S
C23 C22 1.419 . S
C23 C24 1.391 . S
C23 C27 1.397 . S
C24 C19 1.391 . S
C24 C23 1.391 . S
C24 C25 1.399 . S
C25 C24 1.399 . S
C25 C26 1.396 . S
C25 C28 1.453 . S
C25 C29 1.684 . S
C26 C7 1.723 . S
C26 C25 1.396 . S
C26 C27 1.394 . S
C27 C23 1.397 . S
C27 C26 1.394 . S
C27 C37 1.723 . S
C28 C25 1.453 . S
C28 H52 0.982 . S
C28 H53 0.979 . S
C28 H54 0.977 . S
C29 C25 1.684 . S
C29 H55 0.979 . S
C29 H56 0.980 . S
C29 H57 0.983 . S
C30 H6 0.948 . S
C30 C31 1.391 . S
C30 C35 1.391 . S
C31 C30 1.391 . S
C31 C32 1.391 . S
C32 H9 0.947 . S
C32 C31 1.391 . S
C32 C33 1.392 . S
C33 H10 0.948 . S
C33 C32 1.392 . S
C33 C34 1.419 . S
C34 C33 1.419 . S
C34 C35 1.391 . S
C34 C38 1.397 . S
C35 C30 1.391 . S
C35 C34 1.391 . S
C35 C36 1.399 . S
C36 C35 1.399 . S
C36 C37 1.396 . S
C36 C39 1.453 . S
C36 C40 1.684 . S
C37 C27 1.723 . S
C37 C36 1.396 . S
C37 C38 1.394 . S
C38 C8 1.723 . S
C38 C34 1.397 . S
C38 C37 1.394 . S
C39 H11 0.982 . S
C39 H15 0.979 . S
C39 H16 0.977 . S
C39 C36 1.453 . S
C40 H12 0.979 . S
C40 H13 0.980 . S
C40 H14 0.983 . S
C40 C36 1.684 . S
H41 C59 0.948 . S
H42 C0 0.948 . S
H43 C18 0.979 . S
H44 C18 0.980 . S
H45 C18 0.983 . S
H46 C17 0.982 . S
H47 C17 0.979 . S
H48 C17 0.977 . S
H49 C19 0.948 . S
H50 C21 0.947 . S
H51 C22 0.948 . S
H52 C28 0.982 . S
H53 C28 0.979 . S
H54 C28 0.977 . S
H55 C29 0.979 . S
H56 C29 0.980 . S
H57 C29 0.983 . S
H58 C2 0.947 . S
C59 C2 1.392 . S
C59 C3 1.419 . S
C59 H41 0.948 . S
C60 C61 1.391 . S
C60 C64 1.391 . S
C60 H102 0.948 . S
C61 C60 1.391 . S
C61 C62 1.391 . S
C62 C61 1.391 . S
C62 H118 0.947 . S
C62 C119 1.392 . S
C63 C64 1.391 . S
C63 C67 1.397 . S
C63 C119 1.419 . S
C64 C60 1.391 . S
C64 C63 1.391 . S
C64 C65 1.399 . S
C65 C64 1.399 . S
C65 C68 1.396 . S
C65 C77 1.453 . S
C65 C78 1.684 . S
H66 C90 0.948 . S
C67 C63 1.397 . S
C67 C68 1.394 . S
C67 C86 1.723 . S
C68 C65 1.396 . S
C68 C67 1.394 . S
C68 C98 1.723 . S
H69 C92 0.947 . S
H70 C93 0.948 . S
H71 C99 0.982 . S
H72 C100 0.979 . S
H73 C100 0.980 . S
H74 C100 0.983 . S
H75 C99 0.979 . S
H76 C99 0.977 . S
C77 C65 1.453 . S
C77 H106 0.982 . S
C77 H107 0.979 . S
C77 H108 0.977 . S
C78 C65 1.684 . S
C78 H103 0.979 . S
C78 H104 0.980 . S
C78 H105 0.983 . S
C79 C80 1.391 . S
C79 C84 1.391 . S
C79 H109 0.948 . S
C80 C79 1.391 . S
C80 C81 1.391 . S
C81 C80 1.391 . S
C81 C82 1.392 . S
C81 H110 0.947 . S
C82 C81 1.392 . S
C82 C83 1.419 . S
C82 H111 0.948 . S
C83 C82 1.419 . S
C83 C84 1.391 . S
C83 C87 1.397 . S
C84 C79 1.391 . S
C84 C83 1.391 . S
C84 C85 1.399 . S
C85 C84 1.399 . S
C85 C86 1.396 . S
C85 C88 1.453 . S
C85 C89 1.684 . S
C86 C67 1.723 . S
C86 C85 1.396 . S
C86 C87 1.394 . S
C87 C83 1.397 . S
C87 C86 1.394 . S
C87 C97 1.723 . S
C88 C85 1.453 . S
C88 H112 0.982 . S
C88 H113 0.979 . S
C88 H114 0.977 . S
C89 C85 1.684 . S
C89 H115 0.979 . S
C89 H116 0.980 . S
C89 H117 0.983 . S
C90 H66 0.948 . S
C90 C91 1.391 . S
C90 C95 1.391 . S
C91 C90 1.391 . S
C91 C92 1.391 . S
C92 H69 0.947 . S
C92 C91 1.391 . S
C92 C93 1.392 . S
C93 H70 0.948 . S
C93 C92 1.392 . S
C93 C94 1.419 . S
C94 C93 1.419 . S
C94 C95 1.391 . S
C94 C98 1.397 . S
C95 C90 1.391 . S
C95 C94 1.391 . S
C95 C96 1.399 . S
C96 C95 1.399 . S
C96 C97 1.396 . S
C96 C99 1.453 . S
C96 C100 1.684 . S
C97 C87 1.723 . S
C97 C96 1.396 . S
C97 C98 1.394 . S
C98 C68 1.723 . S
C98 C94 1.397 . S
C98 C97 1.394 . S
C99 H71 0.982 . S
C99 H75 0.979 . S
C99 H76 0.977 . S
C99 C96 1.453 . S
C100 H72 0.979 . S
C100 H73 0.980 . S
C100 H74 0.983 . S
C100 C96 1.684 . S
H101 C119 0.948 . S
H102 C60 0.948 . S
H103 C78 0.979 . S
H104 C78 0.980 . S
H105 C78 0.983 . S
H106 C77 0.982 . S
H107 C77 0.979 . S
H108 C77 0.977 . S
H109 C79 0.948 . S
H110 C81 0.947 . S
H111 C82 0.948 . S
H112 C88 0.982 . S
H113 C88 0.979 . S
H114 C88 0.977 . S
H115 C89 0.979 . S
H116 C89 0.980 . S
H117 C89 0.983 . S
H118 C62 0.947 . S
C119 C62 1.392 . S
C119 C63 1.419 . S
C119 H101 0.948 . S
C120 C121 1.391 . S
C120 C124 1.391 . S
C120 H162 0.948 . S
C121 C120 1.391 . S
C121 C122 1.391 . S
C122 C121 1.391 . S
C122 H178 0.947 . S
C122 C179 1.392 . S
C123 C124 1.391 . S
C123 C127 1.397 . S
C123 C179 1.419 . S
C124 C120 1.391 . S
C124 C123 1.391 . S
C124 C125 1.399 . S
C125 C124 1.399 . S
C125 C128 1.396 . S
C125 C137 1.453 . S
C125 C138 1.684 . S
H126 C150 0.948 . S
C127 C123 1.397 . S
C127 C128 1.394 . S
C127 C146 1.723 . S
C128 C125 1.396 . S
C128 C127 1.394 . S
C128 C158 1.723 . S
H129 C152 0.947 . S
H130 C153 0.948 . S
H131 C159 0.982 . S
H132 C160 0.979 . S
H133 C160 0.980 . S
H134 C160 0.983 . S
H135 C159 0.979 . S
H136 C159 0.977 . S
C137 C125 1.453 . S
C137 H166 0.982 . S
C137 H167 0.979 . S
C137 H168 0.977 . S
C138 C125 1.684 . S
C138 H163 0.979 . S
C138 H164 0.980 . S
C138 H165 0.983 . S
C139 C140 1.391 . S
C139 C144 1.391 . S
C139 H169 0.948 . S
C140 C139 1.391 . S
C140 C141 1.391 . S
C141 C140 1.391 . S
C141 C142 1.392 . S
C141 H170 0.947 . S
C142 C141 1.392 . S
C142 C143 1.419 . S
C142 H171 0.948 . S
C143 C142 1.419 . S
C143 C144 1.391 . S
C143 C147 1.397 . S
C144 C139 1.391 . S
C144 C143 1.391 . S
C144 C145 1.399 . S
C145 C144 1.399 . S
C145 C146 1.396 . S
C145 C148 1.453 . S
C145 C149 1.684 . S
C146 C127 1.723 . S
C146 C145 1.396 . S
C146 C147 1.394 . S
C147 C143 1.397 . S
C147 C146 1.394 . S
C147 C157 1.723 . S
C148 C145 1.453 . S
C148 H172 0.982 . S
C148 H173 0.979 . S
C148 H174 0.977 . S
C149 C145 1.684 . S
C149 H175 0.979 . S
C149 H176 0.980 . S
C149 H177 0.983 . S
C150 H126 0.948 . S
C150 C151 1.391 . S
C150 C155 1.391 . S
C151 C150 1.391 . S
C151 C152 1.391 . S
C152 H129 0.947 . S
C152 C151 1.391 . S
C152 C153 1.392 . S
C153 H130 0.948 . S
C153 C152 1.392 . S
C153 C154 1.419 . S
C154 C153 1.419 . S
C154 C155 1.391 . S
C154 C158 1.397 . S
C155 C150 1.391 . S
C155 C154 1.391 . S
C155 C156 1.399 . S
C156 C155 1.399 . S
C156 C157 1.396 . S
C156 C159 1.453 . S
C156 C160 1.684 . S
C157 C147 1.723 . S
C157 C156 1.396 . S
C157 C158 1.394 . S
C158 C128 1.723 . S
C158 C154 1.397 . S
C158 C157 1.394 . S
C159 H131 0.982 . S
C159 H135 0.979 . S
C159 H136 0.977 . S
C159 C156 1.453 . S
C160 H132 0.979 . S
C160 H133 0.980 . S
C160 H134 0.983 . S
C160 C156 1.684 . S
H161 C179 0.948 . S
H162 C120 0.948 . S
H163 C138 0.979 . S
H164 C138 0.980 . S
H165 C138 0.983 . S
H166 C137 0.982 . S
H167 C137 0.979 . S
H168 C137 0.977 . S
H169 C139 0.948 . S
H170 C141 0.947 . S
H171 C142 0.948 . S
H172 C148 0.982 . S
H173 C148 0.979 . S
H174 C148 0.977 . S
H175 C149 0.979 . S
H176 C149 0.980 . S
H177 C149 0.983 . S
H178 C122 0.947 . S
C179 C122 1.392 . S
C179 C123 1.419 . S
C179 H161 0.948 . S
C180 C181 1.391 . S
C180 C184 1.391 . S
C180 H222 0.948 . S
C181 C180 1.391 . S
C181 C182 1.391 . S
C182 C181 1.391 . S
C182 H238 0.947 . S
C182 C239 1.392 . S
C183 C184 1.391 . S
C183 C187 1.397 . S
C183 C239 1.419 . S
C184 C180 1.391 . S
C184 C183 1.391 . S
C184 C185 1.399 . S
C185 C184 1.399 . S
C185 C188 1.396 . S
C185 C197 1.453 . S
C185 C198 1.684 . S
H186 C210 0.948 . S
C187 C183 1.397 . S
C187 C188 1.394 . S
C187 C206 1.723 . S
C188 C185 1.396 . S
C188 C187 1.394 . S
C188 C218 1.723 . S
H189 C212 0.947 . S
H190 C213 0.948 . S
H191 C219 0.982 . S
H192 C220 0.979 . S
H193 C220 0.980 . S
H194 C220 0.983 . S
H195 C219 0.979 . S
H196 C219 0.977 . S
C197 C185 1.453 . S
C197 H226 0.982 . S
C197 H227 0.979 . S
C197 H228 0.977 . S
C198 C185 1.684 . S
C198 H223 0.979 . S
C198 H224 0.980 . S
C198 H225 0.983 . S
C199 C200 1.391 . S
C199 C204 1.391 . S
C199 H229 0.948 . S
C200 C199 1.391 . S
C200 C201 1.391 . S
C201 C200 1.391 . S
C201 C202 1.392 . S
C201 H230 0.947 . S
C202 C201 1.392 . S
C202 C203 1.419 . S
C202 H231 0.948 . S
C203 C202 1.419 . S
C203 C204 1.391 . S
C203 C207 1.397 . S
C204 C199 1.391 . S
C204 C203 1.391 . S
C204 C205 1.399 . S
C205 C204 1.399 . S
C205 C206 1.396 . S
C205 C208 1.453 . S
C205 C209 1.684 . S
C206 C187 1.723 . S
C206 C205 1.396 . S
C206 C207 1.394 . S
C207 C203 1.397 . S
C207 C206 1.394 . S
C207 C217 1.723 . S
C208 C205 1.453 . S
C208 H232 0.982 . S
C208 H233 0.979 . S
C208 H234 0.977 . S
C209 C205 1.684 . S
C209 H235 0.979 . S
C209 H236 0.980 . S
C209 H237 0.983 . S
C210 H186 0.948 . S
C210 C211 1.391 . S
C210 C215 1.391 . S
C211 C210 1.391 . S
C211 C212 1.391 . S
C212 H189 0.947 . S
C212 C211 1.391 . S
C212 C213 1.392 . S
C213 H190 0.948 . S
C213 C212 1.392 . S
C213 C214 1.419 . S
C214 C213 1.419 . S
C214 C215 1.391 . S
C214 C218 1.397 . S
C215 C210 1.391 . S
C215 C214 1.391 . S
C215 C216 1.399 . S
C216 C215 1.399 . S
C216 C217 1.396 . S
C216 C219 1.453 . S
C216 C220 1.684 . S
C217 C207 1.723 . S
C217 C216 1.396 . S
C217 C218 1.394 . S
C218 C188 1.723 . S
C218 C214 1.397 . S
C218 C217 1.394 . S
C219 H191 0.982 . S
C219 H195 0.979 . S
C219 H196 0.977 . S
C219 C216 1.453 . S
C220 H192 0.979 . S
C220 H193 0.980 . S
C220 H194 0.983 . S
C220 C216 1.684 . S
H221 C239 0.948 . S
H222 C180 0.948 . S
H223 C198 0.979 . S
H224 C198 0.980 . S
H225 C198 0.983 . S
H226 C197 0.982 . S
H227 C197 0.979 . S
H228 C197 0.977 . S
H229 C199 0.948 . S
H230 C201 0.947 . S
H231 C202 0.948 . S
H232 C208 0.982 . S
H233 C208 0.979 . S
H234 C208 0.977 . S
H235 C209 0.979 . S
H236 C209 0.980 . S
H237 C209 0.983 . S
H238 C182 0.947 . S
C239 C182 1.392 . S
C239 C183 1.419 . S
C239 H221 0.948 . S
C240 C241 1.391 . S
C240 C244 1.391 . S
C240 H282 0.948 . S
C241 C240 1.391 . S
C241 C242 1.391 . S
C242 C241 1.391 . S
C242 H298 0.947 . S
C242 C299 1.392 . S
C243 C244 1.391 . S
C243 C247 1.397 . S
C243 C299 1.419 . S
C244 C240 1.391 . S
C244 C243 1.391 . S
C244 C245 1.399 . S
C245 C244 1.399 . S
C245 C248 1.396 . S
C245 C257 1.453 . S
C245 C258 1.684 . S
H246 C270 0.948 . S
C247 C243 1.397 . S
C247 C248 1.394 . S
C247 C266 1.723 . S
C248 C245 1.396 . S
C248 C247 1.394 . S
C248 C278 1.723 . S
H249 C272 0.947 . S
H250 C273 0.948 . S
H251 C279 0.982 . S
H252 C280 0.979 . S
H253 C280 0.980 . S
H254 C280 0.983 . S
H255 C279 0.979 . S
H256 C279 0.977 . S
C257 C245 1.453 . S
C257 H286 0.982 . S
C257 H287 0.979 . S
C257 H288 0.977 . S
C258 C245 1.684 . S
C258 H283 0.979 . S
C258 H284 0.980 . S
C258 H285 0.983 . S
C259 C260 1.391 . S
C259 C264 1.391 . S
C259 H289 0.948 . S
C260 C259 1.391 . S
C260 C261 1.391 . S
C261 C260 1.391 . S
C261 C262 1.392 . S
C261 H290 0.947 . S
C262 C261 1.392 . S
C262 C263 1.419 . S
C262 H291 0.948 . S
C263 C262 1.419 . S
C263 C264 1.391 . S
C263 C267 1.397 . S
C264 C259 1.391 . S
C264 C263 1.391 . S
C264 C265 1.399 . S
C265 C264 1.399 . S
C265 C266 1.396 . S
C265 C268 1.453 . S
C265 C269 1.684 . S
C266 C247 1.723 . S
C266 C265 1.396 . S
C266 C267 1.394 . S
C267 C263 1.397 . S
C267 C266 1.394 . S
C267 C277 1.723 . S
C268 C265 1.453 . S
C268 H292 0.982 . S
C268 H293 0.979 . S
C268 H294 0.977 . S
C269 C265 1.684 . S
C269 H295 0.979 . S
C269 H296 0.980 . S
C269 H297 0.983 . S
C270 H246 0.948 . S
C270 C271 1.391 . S
C270 C275 1.391 . S
C271 C270 1.391 . S
C271 C272 1.391 . S
C272 H249 0.947 . S
C272 C271 1.391 . S
C272 C273 1.392 . S
C273 H250 0.948 . S
C273 C272 1.392 . S
C273 C274 1.419 . S
C274 C273 1.419 . S
C274 C275 1.391 . S
C274 C278 1.397 . S
C275 C270 1.391 . S
C275 C274 1.391 . S
C275 C276 1.399 . S
C276 C275 1.399 . S
C276 C277 1.396 . S
C276 C279 1.453 . S
C276 C280 1.684 . S
C277 C267 1.723 . S
C277 C276 1.396 . S
C277 C278 1.394 . S
C278 C248 1.723 . S
C278 C274 1.397 . S
C278 C277 1.394 . S
C279 H251 0.982 . S
C279 H255 0.979 . S
C279 H256 0.977 . S
C279 C276 1.453 . S
C280 H252 0.979 . S
C280 H253 0.980 . S
C280 H254 0.983 . S
C280 C276 1.684 . S
H281 C299 0.948 . S
H282 C240 0.948 . S
H283 C258 0.979 . S
H284 C258 0.980 . S
H285 C258 0.983 . S
H286 C257 0.982 . S
H287 C257 0.979 . S
H288 C257 0.977 . S
H289 C259 0.948 . S
H290 C261 0.947 . S
H291 C262 0.948 . S
H292 C268 0.982 . S
H293 C268 0.979 . S
H294 C268 0.977 . S
H295 C269 0.979 . S
H296 C269 0.980 . S
H297 C269 0.983 . S
H298 C242 0.947 . S
C299 C242 1.392 . S
C299 C243 1.419 . S
C299 H281 0.948 . S
C300 C301 1.391 . S
C300 C304 1.391 . S
C300 H342 0.948 . S
C301 C300 1.391 . S
C301 C302 1.391 . S
C302 C301 1.391 . S
C302 H358 0.947 . S
C302 C359 1.392 . S
C303 C304 1.391 . S
C303 C307 1.397 . S
C303 C359 1.419 . S
C304 C300 1.391 . S
C304 C303 1.391 . S
C304 C305 1.399 . S
C305 C304 1.399 . S
C305 C308 1.396 . S
C305 C317 1.453 . S
C305 C318 1.684 . S
H306 C330 0.948 . S
C307 C303 1.397 . S
C307 C308 1.394 . S
C307 C326 1.723 . S
C308 C305 1.396 . S
C308 C307 1.394 . S
C308 C338 1.723 . S
H309 C332 0.947 . S
H310 C333 0.948 . S
H311 C339 0.982 . S
H312 C340 0.979 . S
H313 C340 0.980 . S
H314 C340 0.983 . S
H315 C339 0.979 . S
H316 C339 0.977 . S
C317 C305 1.453 . S
C317 H346 0.982 . S
C317 H347 0.979 . S
C317 H348 0.977 . S
C318 C305 1.684 . S
C318 H343 0.979 . S
C318 H344 0.980 . S
C318 H345 0.983 . S
C319 C320 1.391 . S
C319 C324 1.391 . S
C319 H349 0.948 . S
C320 C319 1.391 . S
C320 C321 1.391 . S
C321 C320 1.391 . S
C321 C322 1.392 . S
C321 H350 0.947 . S
C322 C321 1.392 . S
C322 C323 1.419 . S
C322 H351 0.948 . S
C323 C322 1.419 . S
C323 C324 1.391 . S
C323 C327 1.397 . S
C324 C319 1.391 . S
C324 C323 1.391 . S
C324 C325 1.399 . S
C325 C324 1.399 . S
C325 C326 1.396 . S
C325 C328 1.453 . S
C325 C329 1.684 . S
C326 C307 1.723 . S
C326 C325 1.396 . S
C326 C327 1.394 . S
C327 C323 1.397 . S
C327 C326 1.394 . S
C327 C337 1.723 . S
C328 C325 1.453 . S
C328 H352 0.982 . S
C328 H353 0.979 . S
C328 H354 0.977 . S
C329 C325 1.684 . S
C329 H355 0.979 . S
C329 H356 0.980 . S
C329 H357 0.983 . S
C330 H306 0.948 . S
C330 C331 1.391 . S
C330 C335 1.391 . S
C331 C330 1.391 . S
C331 C332 1.391 . S
C332 H309 0.947 . S
C332 C331 1.391 . S
C332 C333 1.392 . S
C333 H310 0.948 . S
C333 C332 1.392 . S
C333 C334 1.419 . S
C334 C333 1.419 . S
C334 C335 1.391 . S
C334 C338 1.397 . S
C335 C330 1.391 . S
C335 C334 1.391 . S
C335 C336 1.399 . S
C336 C335 1.399 . S
C336 C337 1.396 . S
C336 C339 1.453 . S
C336 C340 1.684 . S
C337 C327 1.723 . S
C337 C336 1.396 . S
C337 C338 1.394 . S
C338 C308 1.723 . S
C338 C334 1.397 . S
C338 C337 1.394 . S
C339 H311 0.982 . S
C339 H315 0.979 . S
C339 H316 0.977 . S
C339 C336 1.453 . S
C340 H312 0.979 . S
C340 H313 0.980 . S
C340 H314 0.983 . S
C340 C336 1.684 . S
H341 C359 0.948 . S
H342 C300 0.948 . S
H343 C318 0.979 . S
H344 C318 0.980 . S
H345 C318 0.983 . S
H346 C317 0.982 . S
H347 C317 0.979 . S
H348 C317 0.977 . S
H349 C319 0.948 . S
H350 C321 0.947 . S
H351 C322 0.948 . S
H352 C328 0.982 . S
H353 C328 0.979 . S
H354 C328 0.977 . S
H355 C329 0.979 . S
H356 C329 0.980 . S
H357 C329 0.983 . S
H358 C302 0.947 . S
C359 C302 1.392 . S
C359 C303 1.419 . S
C359 H341 0.948 . S
C360 C361 1.391 . S
C360 C364 1.391 . S
C360 H402 0.948 . S
C361 C360 1.391 . S
C361 C362 1.391 . S
C362 C361 1.391 . S
C362 H418 0.947 . S
C362 C419 1.392 . S
C363 C364 1.391 . S
C363 C367 1.397 . S
C363 C419 1.419 . S
C364 C360 1.391 . S
C364 C363 1.391 . S
C364 C365 1.399 . S
C365 C364 1.399 . S
C365 C368 1.396 . S
C365 C377 1.453 . S
C365 C378 1.684 . S
H366 C390 0.948 . S
C367 C363 1.397 . S
C367 C368 1.394 . S
C367 C386 1.723 . S
C368 C365 1.396 . S
C368 C367 1.394 . S
C368 C398 1.723 . S
H369 C392 0.947 . S
H370 C393 0.948 . S
H371 C399 0.982 . S
H372 C400 0.979 . S
H373 C400 0.980 . S
H374 C400 0.983 . S
H375 C399 0.979 . S
H376 C399 0.977 . S
C377 C365 1.453 . S
C377 H406 0.982 . S
C377 H407 0.979 . S
C377 H408 0.977 . S
C378 C365 1.684 . S
C378 H403 0.979 . S
C378 H404 0.980 . S
C378 H405 0.983 . S
C379 C380 1.391 . S
C379 C384 1.391 . S
C379 H409 0.948 . S
C380 C379 1.391 . S
C380 C381 1.391 . S
C381 C380 1.391 . S
C381 C382 1.392 . S
C381 H410 0.947 . S
C382 C381 1.392 . S
C382 C383 1.419 . S
C382 H411 0.948 . S
C383 C382 1.419 . S
C383 C384 1.391 . S
C383 C387 1.397 . S
C384 C379 1.391 . S
C384 C383 1.391 . S
C384 C385 1.399 . S
C385 C384 1.399 . S
C385 C386 1.396 . S
C385 C388 1.453 . S
C385 C389 1.684 . S
C386 C367 1.723 . S
C386 C385 1.396 . S
C386 C387 1.394 . S
C387 C383 1.397 . S
C387 C386 1.394 . S
C387 C397 1.723 . S
C388 C385 1.453 . S
C388 H412 0.982 . S
C388 H413 0.979 . S
C388 H414 0.977 . S
C389 C385 1.684 . S
C389 H415 0.979 . S
C389 H416 0.980 . S
C389 H417 0.983 . S
C390 H366 0.948 . S
C390 C391 1.391 . S
C390 C395 1.391 . S
C391 C390 1.391 . S
C391 C392 1.391 . S
C392 H369 0.947 . S
C392 C391 1.391 . S
C392 C393 1.392 . S
C393 H370 0.948 . S
C393 C392 1.392 . S
C393 C394 1.419 . S
C394 C393 1.419 . S
C394 C395 1.391 . S
C394 C398 1.397 . S
C395 C390 1.391 . S
C395 C394 1.391 . S
C395 C396 1.399 . S
C396 C395 1.399 . S
C396 C397 1.396 . S
C396 C399 1.453 . S
C396 C400 1.684 . S
C397 C387 1.723 . S
C397 C396 1.396 . S
C397 C398 1.394 . S
C398 C368 1.723 . S
C398 C394 1.397 . S
C398 C397 1.394 . S
C399 H371 0.982 . S
C399 H375 0.979 . S
C399 H376 0.977 . S
C399 C396 1.453 . S
C400 H372 0.979 . S
C400 H373 0.980 . S
C400 H374 0.983 . S
C400 C396 1.684 . S
H401 C419 0.948 . S
H402 C360 0.948 . S
H403 C378 0.979 . S
H404 C378 0.980 . S
H405 C378 0.983 . S
H406 C377 0.982 . S
H407 C377 0.979 . S
H408 C377 0.977 . S
H409 C379 0.948 . S
H410 C381 0.947 . S
H411 C382 0.948 . S
H412 C388 0.982 . S
H413 C388 0.979 . S
H414 C388 0.977 . S
H415 C389 0.979 . S
H416 C389 0.980 . S
H417 C389 0.983 . S
H418 C362 0.947 . S
C419 C362 1.392 . S
C419 C363 1.419 . S
C419 H401 0.948 . S
C420 C421 1.391 . S
C420 C424 1.391 . S
C420 H462 0.948 . S
C421 C420 1.391 . S
C421 C422 1.391 . S
C422 C421 1.391 . S
C422 H478 0.947 . S
C422 C479 1.392 . S
C423 C424 1.391 . S
C423 C427 1.397 . S
C423 C479 1.419 . S
C424 C420 1.391 . S
C424 C423 1.391 . S
C424 C425 1.399 . S
C425 C424 1.399 . S
C425 C428 1.396 . S
C425 C437 1.453 . S
C425 C438 1.684 . S
H426 C450 0.948 . S
C427 C423 1.397 . S
C427 C428 1.394 . S
C427 C446 1.723 . S
C428 C425 1.396 . S
C428 C427 1.394 . S
C428 C458 1.723 . S
H429 C452 0.947 . S
H430 C453 0.948 . S
H431 C459 0.982 . S
H432 C460 0.979 . S
H433 C460 0.980 . S
H434 C460 0.983 . S
H435 C459 0.979 . S
H436 C459 0.977 . S
C437 C425 1.453 . S
C437 H466 0.982 . S
C437 H467 0.979 . S
C437 H468 0.977 . S
C438 C425 1.684 . S
C438 H463 0.979 . S
C438 H464 0.980 . S
C438 H465 0.983 . S
C439 C440 1.391 . S
C439 C444 1.391 . S
C439 H469 0.948 . S
C440 C439 1.391 . S
C440 C441 1.391 . S
C441 C440 1.391 . S
C441 C442 1.392 . S
C441 H470 0.947 . S
C442 C441 1.392 . S
C442 C443 1.419 . S
C442 H471 0.948 . S
C443 C442 1.419 . S
C443 C444 1.391 . S
C443 C447 1.397 . S
C444 C439 1.391 . S
C444 C443 1.391 . S
C444 C445 1.399 . S
C445 C444 1.399 . S
C445 C446 1.396 . S
C445 C448 1.453 . S
C445 C449 1.684 . S
C446 C427 1.723 . S
C446 C445 1.396 . S
C446 C447 1.394 . S
C447 C443 1.397 . S
C447 C446 1.394 . S
C447 C457 1.723 . S
C448 C445 1.453 . S
C448 H472 0.982 . S
C448 H473 0.979 . S
C448 H474 0.977 . S
C449 C445 1.684 . S
C449 H475 0.979 . S
C449 H476 0.980 . S
C449 H477 0.983 . S
C450 H426 0.948 . S
C450 C451 1.391 . S
C450 C455 1.391 . S
C451 C450 1.391 . S
C451 C452 1.391 . S
C452 H429 0.947 . S
C452 C451 1.391 . S
C452 C453 1.392 . S
C453 H430 0.948 . S
C453 C452 1.392 . S
C453 C454 1.419 . S
C454 C453 1.419 . S
C454 C455 1.391 . S
C454 C458 1.397 . S
C455 C450 1.391 . S
C455 C454 1.391 . S
C455 C456 1.399 . S
C456 C455 1.399 . S
C456 C457 1.396 . S
C456 C459 1.453 . S
C456 C460 1.684 . S
C457 C447 1.723 . S
C457 C456 1.396 . S
C457 C458 1.394 . S
C458 C428 1.723 . S
C458 C454 1.397 . S
C458 C457 1.394 . S
C459 H431 0.982 . S
C459 H435 0.979 . S
C459 H436 0.977 . S
C459 C456 1.453 . S
C460 H432 0.979 . S
C460 H433 0.980 . S
C460 H434 0.983 . S
C460 C456 1.684 . S
H461 C479 0.948 . S
H462 C420 0.948 . S
H463 C438 0.979 . S
H464 C438 0.980 . S
H465 C438 0.983 . S
H466 C437 0.982 . S
H467 C437 0.979 . S
H468 C437 0.977 . S
H469 C439 0.948 . S
H470 C441 0.947 . S
H471 C442 0.948 . S
H472 C448 0.982 . S
H473 C448 0.979 . S
H474 C448 0.977 . S
H475 C449 0.979 . S
H476 C449 0.980 . S
H477 C449 0.983 . S
H478 C422 0.947 . S
C479 C422 1.392 . S
C479 C423 1.419 . S
C479 H461 0.948 . S
C480 O496 1.251 . S
C480 O498 1.254 1_545 S
N481 C482 1.333 . S
N481 C486 1.307 . S
N481 Zn487 2.020 . S
C482 N481 1.333 . S
C482 C483 1.379 . S
C482 H500 0.952 . S
C483 C482 1.379 . S
C483 C484 1.390 . S
C483 H510 0.949 . S
C484 C483 1.390 . S
C484 C485 1.357 . S
C485 C484 1.357 . S
C485 C486 1.370 . S
C485 H511 0.950 . S
C486 N481 1.307 . S
C486 C485 1.370 . S
C486 H504 0.948 1_455 S
Zn487 N481 2.020 . S
Zn487 O496 2.039 . S
Zn487 O502 2.034 . S
Zn487 O506 2.025 1_455 S
Zn487 O508 2.024 1_455 S
C488 O507 1.246 1_545 S
C488 O508 1.249 . S
N489 C490 1.307 . S
N489 C491 1.333 . S
N489 Zn495 2.020 . S
C490 N489 1.307 . S
C490 C494 1.370 . S
C490 H501 0.948 1_655 S
C491 N489 1.333 . S
C491 C492 1.379 . S
C491 H499 0.952 . S
C492 C491 1.379 . S
C492 C493 1.390 . S
C492 H512 0.949 . S
C493 C492 1.390 . S
C493 C494 1.357 . S
C494 C490 1.370 . S
C494 C493 1.357 . S
C494 H513 0.950 . S
Zn495 N489 2.020 . S
Zn495 O498 2.025 1_655 S
Zn495 O503 2.024 1_655 S
Zn495 O505 2.039 . S
Zn495 O507 2.034 . S
O496 C480 1.251 . S
O496 Zn487 2.039 . S
C497 O502 1.246 1_565 S
C497 O503 1.249 . S
O498 C480 1.254 1_565 S
O498 Zn495 2.025 1_455 S
H499 C491 0.952 . S
H500 C482 0.952 . S
H501 C490 0.948 1_455 S
O502 Zn487 2.034 . S
O502 C497 1.246 1_545 S
O503 Zn495 2.024 1_455 S
O503 C497 1.249 . S
H504 C486 0.948 1_655 S
O505 Zn495 2.039 . S
O505 C509 1.251 . S
O506 Zn487 2.025 1_655 S
O506 C509 1.254 1_545 S
O507 C488 1.246 1_565 S
O507 Zn495 2.034 . S
O508 Zn487 2.024 1_655 S
O508 C488 1.249 . S
C509 O505 1.251 . S
C509 O506 1.254 1_565 S
H510 C483 0.949 . S
H511 C485 0.950 . S
H512 C492 0.949 . S
H513 C494 0.950 . S
C514 O530 1.251 1_565 S
C514 O532 1.254 . S
N515 C516 1.333 . S
N515 C520 1.307 . S
N515 Zn521 2.020 . S
C516 N515 1.333 . S
C516 C517 1.379 . S
C516 H534 0.952 . S
C517 C516 1.379 . S
C517 C518 1.390 . S
C517 H544 0.949 . S
C518 C517 1.390 . S
C518 C519 1.357 . S
C519 C518 1.357 . S
C519 C520 1.370 . S
C519 H545 0.950 . S
C520 N515 1.307 . S
C520 C519 1.370 . S
C520 H538 0.948 . S
Zn521 N515 2.020 . S
Zn521 O530 2.039 . S
Zn521 O536 2.034 1_556 S
Zn521 O540 2.025 1_556 S
Zn521 O542 2.024 . S
C522 O541 1.246 . S
C522 O542 1.249 1_565 S
N523 C524 1.307 . S
N523 C525 1.333 . S
N523 Zn529 2.020 . S
C524 N523 1.307 . S
C524 C528 1.370 . S
C524 H535 0.948 . S
C525 N523 1.333 . S
C525 C526 1.379 . S
C525 H533 0.952 . S
C526 C525 1.379 . S
C526 C527 1.390 . S
C526 H546 0.949 . S
C527 C526 1.390 . S
C527 C528 1.357 . S
C528 C524 1.370 . S
C528 C527 1.357 . S
C528 H547 0.950 . S
Zn529 N523 2.020 . S
Zn529 O532 2.025 1_554 S
Zn529 O537 2.024 . S
Zn529 O539 2.039 . S
Zn529 O541 2.034 1_554 S
O530 C514 1.251 1_545 S
O530 Zn521 2.039 . S
C531 O536 1.246 . S
C531 O537 1.249 1_545 S
O532 C514 1.254 . S
O532 Zn529 2.025 1_556 S
H533 C525 0.952 . S
H534 C516 0.952 . S
H535 C524 0.948 . S
O536 Zn521 2.034 1_554 S
O536 C531 1.246 . S
O537 Zn529 2.024 . S
O537 C531 1.249 1_565 S
H538 C520 0.948 . S
O539 Zn529 2.039 . S
O539 C543 1.251 1_565 S
O540 Zn521 2.025 1_554 S
O540 C543 1.254 . S
O541 C522 1.246 . S
O541 Zn529 2.034 1_556 S
O542 Zn521 2.024 . S
O542 C522 1.249 1_545 S
C543 O539 1.251 1_545 S
C543 O540 1.254 . S
H544 C517 0.949 . S
H545 C519 0.950 . S
H546 C526 0.949 . S
H547 C528 0.950 . S
C548 O564 1.251 . S
C548 O566 1.254 . S
N549 C550 1.333 . S
N549 C554 1.307 . S
N549 Zn555 2.020 . S
C550 N549 1.333 . S
C550 C551 1.379 . S
C550 H568 0.952 . S
C551 C550 1.379 . S
C551 C552 1.390 . S
C551 H578 0.949 . S
C552 C551 1.390 . S
C552 C553 1.357 . S
C553 C552 1.357 . S
C553 C554 1.370 . S
C553 H579 0.950 . S
C554 N549 1.307 . S
C554 C553 1.370 . S
C554 H572 0.948 . S
Zn555 N549 2.020 . S
Zn555 O564 2.039 . S
Zn555 O570 2.034 . S
Zn555 O574 2.025 . S
Zn555 O576 2.024 . S
C556 O575 1.246 . S
C556 O576 1.249 . S
N557 C558 1.307 . S
N557 C559 1.333 . S
N557 Zn563 2.020 . S
C558 N557 1.307 . S
C558 C562 1.370 . S
C558 H569 0.948 . S
C559 N557 1.333 . S
C559 C560 1.379 . S
C559 H567 0.952 . S
C560 C559 1.379 . S
C560 C561 1.390 . S
C560 H580 0.949 . S
C561 C560 1.390 . S
C561 C562 1.357 . S
C562 C558 1.370 . S
C562 C561 1.357 . S
C562 H581 0.950 . S
Zn563 N557 2.020 . S
Zn563 O566 2.025 . S
Zn563 O571 2.024 . S
Zn563 O573 2.039 . S
Zn563 O575 2.034 . S
O564 C548 1.251 . S
O564 Zn555 2.039 . S
C565 O570 1.246 . S
C565 O571 1.249 . S
O566 C548 1.254 . S
O566 Zn563 2.025 . S
H567 C559 0.952 . S
H568 C550 0.952 . S
H569 C558 0.948 . S
O570 Zn555 2.034 . S
O570 C565 1.246 . S
O571 Zn563 2.024 . S
O571 C565 1.249 . S
H572 C554 0.948 . S
O573 Zn563 2.039 . S
O573 C577 1.251 . S
O574 Zn555 2.025 . S
O574 C577 1.254 . S
O575 C556 1.246 . S
O575 Zn563 2.034 . S
O576 Zn555 2.024 . S
O576 C556 1.249 . S
C577 O573 1.251 . S
C577 O574 1.254 . S
H578 C551 0.949 . S
H579 C553 0.950 . S
H580 C560 0.949 . S
H581 C562 0.950 . S
C582 O598 1.251 1_556 S
C582 O600 1.254 . S
N583 C584 1.333 . S
N583 C588 1.307 . S
N583 Zn589 2.020 . S
C584 N583 1.333 . S
C584 C585 1.379 . S
C584 H602 0.952 . S
C585 C584 1.379 . S
C585 C586 1.390 . S
C585 H612 0.949 . S
C586 C585 1.390 . S
C586 C587 1.357 . S
C587 C586 1.357 . S
C587 C588 1.370 . S
C587 H613 0.950 . S
C588 N583 1.307 . S
C588 C587 1.370 . S
C588 H606 0.948 . S
Zn589 N583 2.020 . S
Zn589 O598 2.039 . S
Zn589 O604 2.034 1_655 S
Zn589 O608 2.025 1_655 S
Zn589 O610 2.024 . S
C590 O609 1.246 . S
C590 O610 1.249 1_556 S
N591 C592 1.307 . S
N591 C593 1.333 . S
N591 Zn597 2.020 . S
C592 N591 1.307 . S
C592 C596 1.370 . S
C592 H603 0.948 . S
C593 N591 1.333 . S
C593 C594 1.379 . S
C593 H601 0.952 . S
C594 C593 1.379 . S
C594 C595 1.390 . S
C594 H614 0.949 . S
C595 C594 1.390 . S
C595 C596 1.357 . S
C596 C592 1.370 . S
C596 C595 1.357 . S
C596 H615 0.950 . S
Zn597 N591 2.020 . S
Zn597 O600 2.025 1_455 S
Zn597 O605 2.024 . S
Zn597 O607 2.039 . S
Zn597 O609 2.034 1_455 S
O598 C582 1.251 1_554 S
O598 Zn589 2.039 . S
C599 O604 1.246 . S
C599 O605 1.249 1_554 S
O600 C582 1.254 . S
O600 Zn597 2.025 1_655 S
H601 C593 0.952 . S
H602 C584 0.952 . S
H603 C592 0.948 . S
O604 Zn589 2.034 1_455 S
O604 C599 1.246 . S
O605 Zn597 2.024 . S
O605 C599 1.249 1_556 S
H606 C588 0.948 . S
O607 Zn597 2.039 . S
O607 C611 1.251 1_556 S
O608 Zn589 2.025 1_455 S
O608 C611 1.254 . S
O609 C590 1.246 . S
O609 Zn597 2.034 1_655 S
O610 Zn589 2.024 . S
O610 C590 1.249 1_554 S
C611 O607 1.251 1_554 S
C611 O608 1.254 . S
H612 C585 0.949 . S
H613 C587 0.950 . S
H614 C594 0.949 . S
H615 C596 0.950 . S
C616 C617 1.391 . S
C616 C618 1.394 . S
C616 H632 0.931 . S
C617 C616 1.391 . S
C617 C621 1.376 . S
C618 C616 1.394 . S
C618 C619 1.369 . S
C618 C622 1.531 . S
C619 C618 1.369 . S
C619 C620 1.410 . S
C619 C627 1.503 . S
C620 C619 1.410 . S
C620 C621 1.392 . S
C620 C623 1.511 . S
C621 C617 1.376 . S
C621 C620 1.392 . S
C621 H633 0.929 . S
C622 C618 1.531 . S
C622 H634 0.960 . S
C622 H635 0.962 . S
C622 H636 0.960 . S
C623 C620 1.511 . S
C623 H637 0.961 . S
C623 H638 0.961 . S
C623 H639 0.961 1_455 S
C624 C625 1.370 . S
C624 C626 1.363 . S
C624 H640 0.931 . S
C625 C624 1.370 . S
C625 C629 1.408 . S
C626 C624 1.363 . S
C626 C627 1.370 . S
C626 C630 1.524 . S
C627 C619 1.503 . S
C627 C626 1.370 . S
C627 C628 1.403 . S
C628 C627 1.403 . S
C628 C629 1.404 . S
C628 C631 1.539 1_455 S
C629 C625 1.408 . S
C629 C628 1.404 . S
C629 H641 0.930 1_455 S
C630 C626 1.524 . S
C630 H642 0.956 . S
C630 H643 0.961 . S
C630 H644 0.961 1_545 S
C631 C628 1.539 1_655 S
C631 H645 0.958 . S
C631 H646 0.961 . S
C631 H647 0.960 . S
H632 C616 0.931 . S
H633 C621 0.929 . S
H634 C622 0.960 . S
H635 C622 0.962 . S
H636 C622 0.960 . S
H637 C623 0.961 . S
H638 C623 0.961 . S
H639 C623 0.961 1_655 S
H640 C624 0.931 . S
H641 C629 0.930 1_655 S
H642 C630 0.956 . S
H643 C630 0.961 . S
H644 C630 0.961 1_565 S
H645 C631 0.958 . S
H646 C631 0.961 . S
H647 C631 0.960 . S
C648 C649 1.391 . S
C648 C650 1.394 . S
C648 H664 0.931 . S
C649 C648 1.391 . S
C649 C653 1.376 . S
C650 C648 1.394 . S
C650 C651 1.369 . S
C650 C654 1.531 . S
C651 C650 1.369 . S
C651 C652 1.410 . S
C651 C659 1.503 . S
C652 C651 1.410 . S
C652 C653 1.392 . S
C652 C655 1.511 . S
C653 C649 1.376 . S
C653 C652 1.392 . S
C653 H665 0.929 . S
C654 C650 1.531 . S
C654 H666 0.960 . S
C654 H667 0.962 1_565 S
C654 H668 0.960 . S
C655 C652 1.511 . S
C655 H669 0.961 . S
C655 H670 0.961 . S
C655 H671 0.961 . S
C656 C657 1.370 . S
C656 C658 1.363 . S
C656 H672 0.931 . S
C657 C656 1.370 . S
C657 C661 1.408 . S
C658 C656 1.363 . S
C658 C659 1.370 . S
C658 C662 1.524 . S
C659 C651 1.503 . S
C659 C658 1.370 . S
C659 C660 1.403 . S
C660 C659 1.403 . S
C660 C661 1.404 . S
C660 C663 1.539 . S
C661 C657 1.408 . S
C661 C660 1.404 . S
C661 H673 0.930 . S
C662 C658 1.524 . S
C662 H674 0.956 . S
C662 H675 0.961 . S
C662 H676 0.961 . S
C663 C660 1.539 . S
C663 H677 0.958 . S
C663 H678 0.961 . S
C663 H679 0.960 . S
H664 C648 0.931 . S
H665 C653 0.929 . S
H666 C654 0.960 . S
H667 C654 0.962 1_545 S
H668 C654 0.960 . S
H669 C655 0.961 . S
H670 C655 0.961 . S
H671 C655 0.961 . S
H672 C656 0.931 . S
H673 C661 0.930 . S
H674 C662 0.956 . S
H675 C662 0.961 . S
H676 C662 0.961 . S
H677 C663 0.958 . S
H678 C663 0.961 . S
H679 C663 0.960 . S
C680 C681 1.391 . S
C680 C682 1.394 . S
C680 H696 0.931 . S
C681 C680 1.391 . S
C681 C685 1.376 . S
C682 C680 1.394 . S
C682 C683 1.369 . S
C682 C686 1.531 . S
C683 C682 1.369 . S
C683 C684 1.410 . S
C683 C691 1.503 . S
C684 C683 1.410 . S
C684 C685 1.392 . S
C684 C687 1.511 . S
C685 C681 1.376 . S
C685 C684 1.392 . S
C685 H697 0.929 . S
C686 C682 1.531 . S
C686 H698 0.960 . S
C686 H699 0.962 . S
C686 H700 0.960 . S
C687 C684 1.511 . S
C687 H701 0.961 . S
C687 H702 0.961 . S
C687 H703 0.961 . S
C688 C689 1.370 . S
C688 C690 1.363 . S
C688 H704 0.931 . S
C689 C688 1.370 . S
C689 C693 1.408 . S
C690 C688 1.363 . S
C690 C691 1.370 . S
C690 C694 1.524 . S
C691 C683 1.503 . S
C691 C690 1.370 . S
C691 C692 1.403 . S
C692 C691 1.403 . S
C692 C693 1.404 . S
C692 C695 1.539 . S
C693 C689 1.408 . S
C693 C692 1.404 . S
C693 H705 0.930 . S
C694 C690 1.524 . S
C694 H706 0.956 . S
C694 H707 0.961 . S
C694 H708 0.961 . S
C695 C692 1.539 . S
C695 H709 0.958 . S
C695 H710 0.961 . S
C695 H711 0.960 . S
H696 C680 0.931 . S
H697 C685 0.929 . S
H698 C686 0.960 . S
H699 C686 0.962 . S
H700 C686 0.960 . S
H701 C687 0.961 . S
H702 C687 0.961 . S
H703 C687 0.961 . S
H704 C688 0.931 . S
H705 C693 0.930 . S
H706 C694 0.956 . S
H707 C694 0.961 . S
H708 C694 0.961 . S
H709 C695 0.958 . S
H710 C695 0.961 . S
H711 C695 0.960 . S
C712 C713 1.391 . S
C712 C714 1.394 . S
C712 H728 0.931 . S
C713 C712 1.391 . S
C713 C717 1.376 . S
C714 C712 1.394 . S
C714 C715 1.369 . S
C714 C718 1.531 . S
C715 C714 1.369 . S
C715 C716 1.410 . S
C715 C723 1.503 . S
C716 C715 1.410 . S
C716 C717 1.392 . S
C716 C719 1.511 . S
C717 C713 1.376 . S
C717 C716 1.392 . S
C717 H729 0.929 . S
C718 C714 1.531 . S
C718 H730 0.960 . S
C718 H731 0.962 . S
C718 H732 0.960 . S
C719 C716 1.511 . S
C719 H733 0.961 . S
C719 H734 0.961 . S
C719 H735 0.961 . S
C720 C721 1.370 . S
C720 C722 1.363 . S
C720 H736 0.931 . S
C721 C720 1.370 . S
C721 C725 1.408 . S
C722 C720 1.363 . S
C722 C723 1.370 . S
C722 C726 1.524 . S
C723 C715 1.503 . S
C723 C722 1.370 . S
C723 C724 1.403 . S
C724 C723 1.403 . S
C724 C725 1.404 . S
C724 C727 1.539 . S
C725 C721 1.408 . S
C725 C724 1.404 . S
C725 H737 0.930 . S
C726 C722 1.524 . S
C726 H738 0.956 . S
C726 H739 0.961 . S
C726 H740 0.961 . S
C727 C724 1.539 . S
C727 H741 0.958 . S
C727 H742 0.961 . S
C727 H743 0.960 . S
H728 C712 0.931 . S
H729 C717 0.929 . S
H730 C718 0.960 . S
H731 C718 0.962 . S
H732 C718 0.960 . S
H733 C719 0.961 . S
H734 C719 0.961 . S
H735 C719 0.961 . S
H736 C720 0.931 . S
H737 C725 0.930 . S
H738 C726 0.956 . S
H739 C726 0.961 . S
H740 C726 0.961 . S
H741 C727 0.958 . S
H742 C727 0.961 . S
H743 C727 0.960 . S
C744 C745 1.391 . S
C744 C746 1.394 . S
C744 H760 0.931 . S
C745 C744 1.391 . S
C745 C749 1.376 . S
C746 C744 1.394 . S
C746 C747 1.369 . S
C746 C750 1.531 . S
C747 C746 1.369 . S
C747 C748 1.410 . S
C747 C755 1.503 . S
C748 C747 1.410 . S
C748 C749 1.392 . S
C748 C751 1.511 . S
C749 C745 1.376 . S
C749 C748 1.392 . S
C749 H761 0.929 . S
C750 C746 1.531 . S
C750 H762 0.960 . S
C750 H763 0.962 1_545 S
C750 H764 0.960 . S
C751 C748 1.511 . S
C751 H765 0.961 . S
C751 H766 0.961 . S
C751 H767 0.961 . S
C752 C753 1.370 . S
C752 C754 1.363 . S
C752 H768 0.931 . S
C753 C752 1.370 . S
C753 C757 1.408 . S
C754 C752 1.363 . S
C754 C755 1.370 . S
C754 C758 1.524 . S
C755 C747 1.503 . S
C755 C754 1.370 . S
C755 C756 1.403 . S
C756 C755 1.403 . S
C756 C757 1.404 . S
C756 C759 1.539 . S
C757 C753 1.408 . S
C757 C756 1.404 . S
C757 H769 0.930 1_554 S
C758 C754 1.524 . S
C758 H770 0.956 1_545 S
C758 H771 0.961 . S
C758 H772 0.961 1_545 S
C759 C756 1.539 . S
C759 H773 0.958 1_554 S
C759 H774 0.961 1_554 S
C759 H775 0.960 . S
H760 C744 0.931 . S
H761 C749 0.929 . S
H762 C750 0.960 . S
H763 C750 0.962 1_565 S
H764 C750 0.960 . S
H765 C751 0.961 . S
H766 C751 0.961 . S
H767 C751 0.961 . S
H768 C752 0.931 . S
H769 C757 0.930 1_556 S
H770 C758 0.956 1_565 S
H771 C758 0.961 . S
H772 C758 0.961 1_565 S
H773 C759 0.958 1_556 S
H774 C759 0.961 1_556 S
H775 C759 0.960 . S
C776 C777 1.391 . S
C776 C778 1.394 . S
C776 H792 0.931 . S
C777 C776 1.391 . S
C777 C781 1.376 . S
C778 C776 1.394 . S
C778 C779 1.369 . S
C778 C782 1.531 . S
C779 C778 1.369 . S
C779 C780 1.410 . S
C779 C787 1.503 . S
C780 C779 1.410 . S
C780 C781 1.392 . S
C780 C783 1.511 . S
C781 C777 1.376 . S
C781 C780 1.392 . S
C781 H793 0.929 . S
C782 C778 1.531 . S
C782 H794 0.960 . S
C782 H795 0.962 . S
C782 H796 0.960 . S
C783 C780 1.511 . S
C783 H797 0.961 . S
C783 H798 0.961 . S
C783 H799 0.961 . S
C784 C785 1.370 . S
C784 C786 1.363 . S
C784 H800 0.931 . S
C785 C784 1.370 . S
C785 C789 1.408 . S
C786 C784 1.363 . S
C786 C787 1.370 . S
C786 C790 1.524 . S
C787 C779 1.503 . S
C787 C786 1.370 . S
C787 C788 1.403 . S
C788 C787 1.403 . S
C788 C789 1.404 . S
C788 C791 1.539 1_565 S
C789 C785 1.408 . S
C789 C788 1.404 . S
C789 H801 0.930 1_565 S
C790 C786 1.524 . S
C790 H802 0.956 . S
C790 H803 0.961 . S
C790 H804 0.961 . S
C791 C788 1.539 1_545 S
C791 H805 0.958 . S
C791 H806 0.961 . S
C791 H807 0.960 . S
H792 C776 0.931 . S
H793 C781 0.929 . S
H794 C782 0.960 . S
H795 C782 0.962 . S
H796 C782 0.960 . S
H797 C783 0.961 . S
H798 C783 0.961 . S
H799 C783 0.961 . S
H800 C784 0.931 . S
H801 C789 0.930 1_545 S
H802 C790 0.956 . S
H803 C790 0.961 . S
H804 C790 0.961 . S
H805 C791 0.958 . S
H806 C791 0.961 . S
H807 C791 0.960 . S
C808 C809 1.391 . S
C808 C810 1.394 . S
C808 H824 0.931 . S
C809 C808 1.391 . S
C809 C813 1.376 . S
C810 C808 1.394 . S
C810 C811 1.369 . S
C810 C814 1.531 . S
C811 C810 1.369 . S
C811 C812 1.410 . S
C811 C819 1.503 . S
C812 C811 1.410 . S
C812 C813 1.392 . S
C812 C815 1.511 1_556 S
C813 C809 1.376 . S
C813 C812 1.392 . S
C813 H825 0.929 . S
C814 C810 1.531 . S
C814 H826 0.960 . S
C814 H827 0.962 . S
C814 H828 0.960 . S
C815 C812 1.511 1_554 S
C815 H829 0.961 . S
C815 H830 0.961 . S
C815 H831 0.961 . S
C816 C817 1.370 . S
C816 C818 1.363 . S
C816 H832 0.931 . S
C817 C816 1.370 . S
C817 C821 1.408 . S
C818 C816 1.363 . S
C818 C819 1.370 . S
C818 C822 1.524 . S
C819 C811 1.503 . S
C819 C818 1.370 . S
C819 C820 1.403 . S
C820 C819 1.403 . S
C820 C821 1.404 . S
C820 C823 1.539 . S
C821 C817 1.408 . S
C821 C820 1.404 . S
C821 H833 0.930 . S
C822 C818 1.524 . S
C822 H834 0.956 . S
C822 H835 0.961 . S
C822 H836 0.961 . S
C823 C820 1.539 . S
C823 H837 0.958 . S
C823 H838 0.938 1_556 S
C823 H839 0.960 . S
H824 C808 0.931 . S
H825 C813 0.929 . S
H826 C814 0.960 . S
H827 C814 0.962 . S
H828 C814 0.960 . S
H829 C815 0.961 . S
H830 C815 0.961 . S
H831 C815 0.961 . S
H832 C816 0.931 . S
H833 C821 0.930 . S
H834 C822 0.956 . S
H835 C822 0.961 . S
H836 C822 0.961 . S
H837 C823 0.958 . S
H838 C823 0.938 1_554 S
H839 C823 0.960 . S
C840 C841 1.391 . S
C840 C842 1.394 . S
C840 H856 0.931 . S
C841 C840 1.391 . S
C841 C845 1.376 . S
C842 C840 1.394 . S
C842 C843 1.369 . S
C842 C846 1.531 . S
C843 C842 1.369 . S
C843 C844 1.410 . S
C843 C851 1.503 . S
C844 C843 1.410 . S
C844 C845 1.392 . S
C844 C847 1.511 . S
C845 C841 1.376 . S
C845 C844 1.392 . S
C845 H857 0.929 . S
C846 C842 1.531 . S
C846 H858 0.960 . S
C846 H859 0.962 . S
C846 H860 0.960 . S
C847 C844 1.511 . S
C847 H861 0.961 . S
C847 H862 0.961 . S
C847 H863 0.961 . S
C848 C849 1.370 . S
C848 C850 1.363 . S
C848 H864 0.931 . S
C849 C848 1.370 . S
C849 C853 1.408 . S
C850 C848 1.363 . S
C850 C851 1.370 . S
C850 C854 1.524 . S
C851 C843 1.503 . S
C851 C850 1.370 . S
C851 C852 1.403 . S
C852 C851 1.403 . S
C852 C853 1.404 . S
C852 C855 1.539 . S
C853 C849 1.408 . S
C853 C852 1.404 . S
C853 H865 0.930 . S
C854 C850 1.524 . S
C854 H866 0.956 . S
C854 H867 0.961 . S
C854 H868 0.961 . S
C855 C852 1.539 . S
C855 H869 0.958 . S
C855 H870 0.961 . S
C855 H871 0.960 . S
H856 C840 0.931 . S
H857 C845 0.929 . S
H858 C846 0.960 . S
H859 C846 0.962 . S
H860 C846 0.960 . S
H861 C847 0.961 . S
H862 C847 0.961 . S
H863 C847 0.961 . S
H864 C848 0.931 . S
H865 C853 0.930 . S
H866 C854 0.956 . S
H867 C854 0.961 . S
H868 C854 0.961 . S
H869 C855 0.958 . S
H870 C855 0.961 . S
H871 C855 0.960 . S
C872 C873 1.391 . S
C872 C874 1.394 . S
C872 H888 0.931 . S
C873 C872 1.391 . S
C873 C877 1.376 . S
C874 C872 1.394 . S
C874 C875 1.369 . S
C874 C878 1.531 . S
C875 C874 1.369 . S
C875 C876 1.410 . S
C875 C883 1.503 . S
C876 C875 1.410 . S
C876 C877 1.392 . S
C876 C879 1.511 . S
C877 C873 1.376 . S
C877 C876 1.392 . S
C877 H889 0.929 . S
C878 C874 1.531 . S
C878 H890 0.960 . S
C878 H891 0.962 . S
C878 H892 0.960 . S
C879 C876 1.511 . S
C879 H893 0.961 1_554 S
C879 H894 0.955 1_554 S
C879 H895 0.961 . S
C880 C881 1.370 . S
C880 C882 1.363 . S
C880 H896 0.931 1_455 S
C881 C880 1.370 . S
C881 C885 1.408 . S
C882 C880 1.363 . S
C882 C883 1.370 . S
C882 C886 1.524 1_455 S
C883 C875 1.503 . S
C883 C882 1.370 . S
C883 C884 1.403 . S
C884 C883 1.403 . S
C884 C885 1.404 . S
C884 C887 1.539 . S
C885 C881 1.408 . S
C885 C884 1.404 . S
C885 H897 0.930 . S
C886 C882 1.524 1_655 S
C886 H898 0.956 . S
C886 H899 0.961 . S
C886 H900 0.961 . S
C887 C884 1.539 . S
C887 H901 0.958 . S
C887 H902 0.961 . S
C887 H903 0.960 . S
H888 C872 0.931 . S
H889 C877 0.929 . S
H890 C878 0.960 . S
H891 C878 0.962 . S
H892 C878 0.960 . S
H893 C879 0.961 1_556 S
H894 C879 0.955 1_556 S
H895 C879 0.961 . S
H896 C880 0.931 1_655 S
H897 C885 0.930 . S
H898 C886 0.956 . S
H899 C886 0.961 . S
H900 C886 0.961 . S
H901 C887 0.958 . S
H902 C887 0.961 . S
H903 C887 0.960 . S
C904 C905 1.391 . S
C904 C906 1.394 . S
C904 H920 0.931 . S
C905 C904 1.391 . S
C905 C909 1.376 . S
C906 C904 1.394 . S
C906 C907 1.369 . S
C906 C910 1.531 . S
C907 C906 1.369 . S
C907 C908 1.410 . S
C907 C915 1.503 . S
C908 C907 1.410 . S
C908 C909 1.392 . S
C908 C911 1.511 . S
C909 C905 1.376 . S
C909 C908 1.392 . S
C909 H921 0.929 . S
C910 C906 1.531 . S
C910 H922 0.960 . S
C910 H923 0.962 . S
C910 H924 0.960 . S
C911 C908 1.511 . S
C911 H925 0.961 . S
C911 H926 0.961 . S
C911 H927 0.961 1_556 S
C912 C913 1.370 . S
C912 C914 1.363 . S
C912 H928 0.931 . S
C913 C912 1.370 . S
C913 C917 1.408 . S
C914 C912 1.363 . S
C914 C915 1.370 . S
C914 C918 1.524 . S
C915 C907 1.503 . S
C915 C914 1.370 . S
C915 C916 1.403 . S
C916 C915 1.403 . S
C916 C917 1.404 . S
C916 C919 1.539 . S
C917 C913 1.408 . S
C917 C916 1.404 . S
C917 H929 0.930 . S
C918 C914 1.524 . S
C918 H930 0.956 . S
C918 H931 0.961 . S
C918 H932 0.961 . S
C919 C916 1.539 . S
C919 H933 0.958 . S
C919 H934 0.961 1_556 S
C919 H935 0.959 . S
H920 C904 0.931 . S
H921 C909 0.929 . S
H922 C910 0.960 . S
H923 C910 0.962 . S
H924 C910 0.960 . S
H925 C911 0.961 . S
H926 C911 0.961 . S
H927 C911 0.961 1_554 S
H928 C912 0.931 . S
H929 C917 0.930 . S
H930 C918 0.956 . S
H931 C918 0.961 . S
H932 C918 0.961 . S
H933 C919 0.958 . S
H934 C919 0.961 1_554 S
H935 C919 0.959 . S
C936 C937 1.391 . S
C936 C938 1.394 . S
C936 H952 0.931 . S
C937 C936 1.391 . S
C937 C941 1.376 . S
C938 C936 1.394 . S
C938 C939 1.369 . S
C938 C942 1.531 . S
C939 C938 1.369 . S
C939 C940 1.410 . S
C939 C947 1.503 . S
C940 C939 1.410 . S
C940 C941 1.392 . S
C940 C943 1.511 . S
C941 C937 1.376 . S
C941 C940 1.392 . S
C941 H953 0.929 . S
C942 C938 1.531 . S
C942 H954 0.960 . S
C942 H955 0.962 . S
C942 H956 0.960 . S
C943 C940 1.511 . S
C943 H957 0.961 . S
C943 H958 0.961 . S
C943 H959 0.961 . S
C944 C945 1.370 . S
C944 C946 1.363 . S
C944 H960 0.931 . S
C945 C944 1.370 . S
C945 C949 1.408 . S
C946 C944 1.363 . S
C946 C947 1.370 . S
C946 C950 1.524 . S
C947 C939 1.503 . S
C947 C946 1.370 . S
C947 C948 1.403 . S
C948 C947 1.403 . S
C948 C949 1.404 . S
C948 C951 1.539 . S
C949 C945 1.408 . S
C949 C948 1.404 . S
C949 H961 0.957 . S
C950 C946 1.524 . S
C950 H962 0.956 . S
C950 H963 0.961 . S
C950 H964 0.961 . S
C951 C948 1.539 . S
C951 H965 0.958 1_655 S
C951 H966 0.961 1_655 S
C951 H967 0.960 . S
H952 C936 0.931 . S
H953 C941 0.929 . S
H954 C942 0.960 . S
H955 C942 0.962 . S
H956 C942 0.960 . S
H957 C943 0.961 . S
H958 C943 0.961 . S
H959 C943 0.961 . S
H960 C944 0.931 . S
H961 C949 0.957 . S
H962 C950 0.956 . S
H963 C950 0.961 . S
H964 C950 0.961 . S
H965 C951 0.958 1_455 S
H966 C951 0.961 1_455 S
H967 C951 0.960 . S
C968 C969 1.391 . S
C968 C970 1.394 . S
C968 H984 0.931 . S
C969 C968 1.391 . S
C969 C973 1.376 . S
C970 C968 1.394 . S
C970 C971 1.369 . S
C970 C974 1.531 . S
C971 C970 1.369 . S
C971 C972 1.410 . S
C971 C979 1.503 . S
C972 C971 1.410 . S
C972 C973 1.392 . S
C972 C975 1.511 . S
C973 C969 1.376 . S
C973 C972 1.392 . S
C973 H985 0.929 . S
C974 C970 1.531 . S
C974 H986 0.960 . S
C974 H987 0.962 . S
C974 H988 0.960 . S
C975 C972 1.511 . S
C975 H989 0.961 . S
C975 H990 0.961 . S
C975 H991 0.961 . S
C976 C977 1.370 . S
C976 C978 1.363 . S
C976 H992 0.931 . S
C977 C976 1.370 . S
C977 C981 1.408 . S
C978 C976 1.363 . S
C978 C979 1.370 . S
C978 C982 1.524 . S
C979 C971 1.503 . S
C979 C978 1.370 . S
C979 C980 1.403 . S
C980 C979 1.403 . S
C980 C981 1.404 . S
C980 C983 1.539 . S
C981 C977 1.408 . S
C981 C980 1.404 . S
C981 H993 0.930 . S
C982 C978 1.524 . S
C982 H994 0.956 . S
C982 H995 0.961 . S
C982 H996 0.961 . S
C983 C980 1.539 . S
C983 H997 0.958 . S
C983 H998 0.961 . S
C983 H999 0.960 . S
H984 C968 0.931 . S
H985 C973 0.929 . S
H986 C974 0.960 . S
H987 C974 0.962 . S
H988 C974 0.960 . S
H989 C975 0.961 . S
H990 C975 0.961 . S
H991 C975 0.961 . S
H992 C976 0.931 . S
H993 C981 0.930 . S
H994 C982 0.956 . S
H995 C982 0.961 . S
H996 C982 0.961 . S
H997 C983 0.958 . S
H998 C983 0.961 . S
H999 C983 0.960 . S
C1000 C1001 1.391 . S
C1000 C1002 1.394 . S
C1000 H1016 0.931 . S
C1001 C1000 1.391 . S
C1001 C1005 1.376 . S
C1002 C1000 1.394 . S
C1002 C1003 1.369 . S
C1002 C1006 1.531 . S
C1003 C1002 1.369 . S
C1003 C1004 1.410 . S
C1003 C1011 1.503 . S
C1004 C1003 1.410 . S
C1004 C1005 1.392 . S
C1004 C1007 1.511 . S
C1005 C1001 1.376 . S
C1005 C1004 1.392 . S
C1005 H1017 0.929 . S
C1006 C1002 1.531 . S
C1006 H1018 0.960 1_565 S
C1006 H1019 0.962 . S
C1006 H1020 0.960 1_565 S
C1007 C1004 1.511 . S
C1007 H1021 0.961 . S
C1007 H1022 0.961 . S
C1007 H1023 0.961 1_655 S
C1008 C1009 1.370 . S
C1008 C1010 1.363 . S
C1008 H1024 0.931 . S
C1009 C1008 1.370 . S
C1009 C1013 1.408 . S
C1010 C1008 1.363 . S
C1010 C1011 1.370 . S
C1010 C1014 1.524 . S
C1011 C1003 1.503 . S
C1011 C1010 1.370 . S
C1011 C1012 1.403 . S
C1012 C1011 1.403 . S
C1012 C1013 1.404 . S
C1012 C1015 1.539 1_655 S
C1013 C1009 1.408 . S
C1013 C1012 1.404 . S
C1013 H1025 0.957 1_655 S
C1014 C1010 1.524 . S
C1014 H1026 0.956 . S
C1014 H1027 0.961 . S
C1014 H1028 0.961 . S
C1015 C1012 1.539 1_455 S
C1015 H1029 0.958 1_465 S
C1015 H1030 0.961 . S
C1015 H1031 0.960 . S
H1016 C1000 0.931 . S
H1017 C1005 0.929 . S
H1018 C1006 0.960 1_545 S
H1019 C1006 0.962 . S
H1020 C1006 0.960 1_545 S
H1021 C1007 0.961 . S
H1022 C1007 0.961 . S
H1023 C1007 0.961 1_455 S
H1024 C1008 0.931 . S
H1025 C1013 0.957 1_455 S
H1026 C1014 0.956 . S
H1027 C1014 0.961 . S
H1028 C1014 0.961 . S
H1029 C1015 0.958 1_645 S
H1030 C1015 0.961 . S
H1031 C1015 0.960 . S
C1032 C1033 1.391 . S
C1032 C1034 1.394 . S
C1032 H1048 0.931 . S
C1033 C1032 1.391 . S
C1033 C1037 1.376 . S
C1034 C1032 1.394 . S
C1034 C1035 1.369 . S
C1034 C1038 1.531 . S
C1035 C1034 1.369 . S
C1035 C1036 1.410 . S
C1035 C1043 1.503 . S
C1036 C1035 1.410 . S
C1036 C1037 1.392 . S
C1036 C1039 1.511 . S
C1037 C1033 1.376 . S
C1037 C1036 1.392 . S
C1037 H1049 0.929 . S
C1038 C1034 1.531 . S
C1038 H1050 0.960 . S
C1038 H1051 0.962 . S
C1038 H1052 0.960 . S
C1039 C1036 1.511 . S
C1039 H1053 0.961 . S
C1039 H1054 0.961 . S
C1039 H1055 0.961 . S
C1040 C1041 1.370 . S
C1040 C1042 1.363 . S
C1040 H1056 0.931 1_545 S
C1041 C1040 1.370 . S
C1041 C1045 1.408 . S
C1042 C1040 1.363 . S
C1042 C1043 1.370 . S
C1042 C1046 1.524 1_545 S
C1043 C1035 1.503 . S
C1043 C1042 1.370 . S
C1043 C1044 1.403 . S
C1044 C1043 1.403 . S
C1044 C1045 1.404 . S
C1044 C1047 1.539 . S
C1045 C1041 1.408 . S
C1045 C1044 1.404 . S
C1045 H1057 0.930 . S
C1046 C1042 1.524 1_565 S
C1046 H1058 0.959 . S
C1046 H1059 0.961 . S
C1046 H1060 0.961 . S
C1047 C1044 1.539 . S
C1047 H1061 0.958 . S
C1047 H1062 0.961 . S
C1047 H1063 0.960 . S
H1048 C1032 0.931 . S
H1049 C1037 0.929 . S
H1050 C1038 0.960 . S
H1051 C1038 0.962 . S
H1052 C1038 0.960 . S
H1053 C1039 0.961 . S
H1054 C1039 0.961 . S
H1055 C1039 0.961 . S
H1056 C1040 0.931 1_565 S
H1057 C1045 0.930 . S
H1058 C1046 0.959 . S
H1059 C1046 0.961 . S
H1060 C1046 0.961 . S
H1061 C1047 0.958 . S
H1062 C1047 0.961 . S
H1063 C1047 0.960 . S
C1064 C1065 1.391 . S
C1064 C1066 1.394 . S
C1064 H1080 0.931 . S
C1065 C1064 1.391 . S
C1065 C1069 1.376 . S
C1066 C1064 1.394 . S
C1066 C1067 1.369 . S
C1066 C1070 1.531 . S
C1067 C1066 1.369 . S
C1067 C1068 1.410 . S
C1067 C1075 1.503 . S
C1068 C1067 1.410 . S
C1068 C1069 1.392 . S
C1068 C1071 1.511 . S
C1069 C1065 1.376 . S
C1069 C1068 1.392 . S
C1069 H1081 0.929 . S
C1070 C1066 1.531 . S
C1070 H1082 0.960 . S
C1070 H1083 0.962 . S
C1070 H1084 0.960 . S
C1071 C1068 1.511 . S
C1071 H1085 0.961 . S
C1071 H1086 0.961 . S
C1071 H1087 0.961 . S
C1072 C1073 1.370 . S
C1072 C1074 1.363 . S
C1072 H1088 0.931 . S
C1073 C1072 1.370 . S
C1073 C1077 1.408 . S
C1074 C1072 1.363 . S
C1074 C1075 1.370 . S
C1074 C1078 1.524 . S
C1075 C1067 1.503 . S
C1075 C1074 1.370 . S
C1075 C1076 1.403 . S
C1076 C1075 1.403 . S
C1076 C1077 1.404 . S
C1076 C1079 1.539 . S
C1077 C1073 1.408 . S
C1077 C1076 1.404 . S
C1077 H1089 0.930 . S
C1078 C1074 1.524 . S
C1078 H1090 0.956 . S
C1078 H1091 0.961 . S
C1078 H1092 0.961 . S
C1079 C1076 1.539 . S
C1079 H1093 0.958 . S
C1079 H1094 0.961 . S
C1079 H1095 0.960 . S
H1080 C1064 0.931 . S
H1081 C1069 0.929 . S
H1082 C1070 0.960 . S
H1083 C1070 0.962 . S
H1084 C1070 0.960 . S
H1085 C1071 0.961 . S
H1086 C1071 0.961 . S
H1087 C1071 0.961 . S
H1088 C1072 0.931 . S
H1089 C1077 0.930 . S
H1090 C1078 0.956 . S
H1091 C1078 0.961 . S
H1092 C1078 0.961 . S
H1093 C1079 0.958 . S
H1094 C1079 0.961 . S
H1095 C1079 0.960 . S
C1096 C1097 1.391 . S
C1096 C1098 1.394 . S
C1096 H1112 0.931 . S
C1097 C1096 1.391 . S
C1097 C1101 1.376 . S
C1098 C1096 1.394 . S
C1098 C1099 1.369 . S
C1098 C1102 1.531 . S
C1099 C1098 1.369 . S
C1099 C1100 1.410 . S
C1099 C1107 1.503 . S
C1100 C1099 1.410 . S
C1100 C1101 1.392 . S
C1100 C1103 1.511 . S
C1101 C1097 1.376 . S
C1101 C1100 1.392 . S
C1101 H1113 0.929 . S
C1102 C1098 1.531 . S
C1102 H1114 0.960 . S
C1102 H1115 0.962 . S
C1102 H1116 0.960 . S
C1103 C1100 1.511 . S
C1103 H1117 0.961 . S
C1103 H1118 0.961 . S
C1103 H1119 0.961 . S
C1104 C1105 1.370 . S
C1104 C1106 1.363 . S
C1104 H1120 0.931 . S
C1105 C1104 1.370 . S
C1105 C1109 1.408 . S
C1106 C1104 1.363 . S
C1106 C1107 1.370 . S
C1106 C1110 1.524 . S
C1107 C1099 1.503 . S
C1107 C1106 1.370 . S
C1107 C1108 1.403 . S
C1108 C1107 1.403 . S
C1108 C1109 1.404 . S
C1108 C1111 1.539 . S
C1109 C1105 1.408 . S
C1109 C1108 1.404 . S
C1109 H1121 0.930 . S
C1110 C1106 1.524 . S
C1110 H1122 0.956 . S
C1110 H1123 0.961 . S
C1110 H1124 0.961 . S
C1111 C1108 1.539 . S
C1111 H1125 0.958 . S
C1111 H1126 0.961 . S
C1111 H1127 0.960 . S
H1112 C1096 0.931 . S
H1113 C1101 0.929 . S
H1114 C1102 0.960 . S
H1115 C1102 0.962 . S
H1116 C1102 0.960 . S
H1117 C1103 0.961 . S
H1118 C1103 0.961 . S
H1119 C1103 0.961 . S
H1120 C1104 0.931 . S
H1121 C1109 0.930 . S
H1122 C1110 0.956 . S
H1123 C1110 0.961 . S
H1124 C1110 0.961 . S
H1125 C1111 0.958 . S
H1126 C1111 0.961 . S
H1127 C1111 0.960 . S
C1128 C1129 1.391 . S
C1128 C1130 1.394 . S
C1128 H1144 0.931 . S
C1129 C1128 1.391 . S
C1129 C1133 1.376 . S
C1130 C1128 1.394 . S
C1130 C1131 1.369 . S
C1130 C1134 1.531 . S
C1131 C1130 1.369 . S
C1131 C1132 1.410 . S
C1131 C1139 1.503 . S
C1132 C1131 1.410 . S
C1132 C1133 1.392 . S
C1132 C1135 1.511 . S
C1133 C1129 1.376 . S
C1133 C1132 1.392 . S
C1133 H1145 0.929 . S
C1134 C1130 1.531 . S
C1134 H1146 0.960 1_556 S
C1134 H1147 0.962 . S
C1134 H1148 0.960 1_556 S
C1135 C1132 1.511 . S
C1135 H1149 0.961 . S
C1135 H1150 0.961 . S
C1135 H1151 0.961 1_565 S
C1136 C1137 1.370 . S
C1136 C1138 1.363 . S
C1136 H1152 0.931 . S
C1137 C1136 1.370 . S
C1137 C1141 1.408 . S
C1138 C1136 1.363 . S
C1138 C1139 1.370 . S
C1138 C1142 1.524 . S
C1139 C1131 1.503 . S
C1139 C1138 1.370 . S
C1139 C1140 1.403 . S
C1140 C1139 1.403 . S
C1140 C1141 1.404 . S
C1140 C1143 1.539 1_565 S
C1141 C1137 1.408 . S
C1141 C1140 1.404 . S
C1141 H1153 0.930 1_565 S
C1142 C1138 1.524 . S
C1142 H1154 0.956 . S
C1142 H1155 0.961 . S
C1142 H1156 0.961 . S
C1143 C1140 1.539 1_545 S
C1143 H1157 0.958 1_556 S
C1143 H1158 0.961 . S
C1143 H1159 0.960 . S
H1144 C1128 0.931 . S
H1145 C1133 0.929 . S
H1146 C1134 0.960 1_554 S
H1147 C1134 0.962 . S
H1148 C1134 0.960 1_554 S
H1149 C1135 0.961 . S
H1150 C1135 0.961 . S
H1151 C1135 0.961 1_545 S
H1152 C1136 0.931 . S
H1153 C1141 0.930 1_545 S
H1154 C1142 0.956 . S
H1155 C1142 0.961 . S
H1156 C1142 0.961 . S
H1157 C1143 0.958 1_554 S
H1158 C1143 0.961 . S
H1159 C1143 0.960 . S
C1160 C1161 1.391 . S
C1160 C1162 1.394 . S
C1160 H1176 0.931 . S
C1161 C1160 1.391 . S
C1161 C1165 1.376 . S
C1162 C1160 1.394 . S
C1162 C1163 1.369 . S
C1162 C1166 1.531 . S
C1163 C1162 1.369 . S
C1163 C1164 1.410 . S
C1163 C1171 1.503 . S
C1164 C1163 1.410 . S
C1164 C1165 1.392 . S
C1164 C1167 1.511 . S
C1165 C1161 1.376 . S
C1165 C1164 1.392 . S
C1165 H1177 0.929 . S
C1166 C1162 1.531 . S
C1166 H1178 0.960 . S
C1166 H1179 0.962 . S
C1166 H1180 0.960 . S
C1167 C1164 1.511 . S
C1167 H1181 0.961 . S
C1167 H1182 0.961 . S
C1167 H1183 0.961 . S
C1168 C1169 1.370 . S
C1168 C1170 1.363 . S
C1168 H1184 0.931 . S
C1169 C1168 1.370 . S
C1169 C1173 1.408 . S
C1170 C1168 1.363 . S
C1170 C1171 1.370 . S
C1170 C1174 1.524 . S
C1171 C1163 1.503 . S
C1171 C1170 1.370 . S
C1171 C1172 1.403 . S
C1172 C1171 1.403 . S
C1172 C1173 1.404 . S
C1172 C1175 1.539 1_545 S
C1173 C1169 1.408 . S
C1173 C1172 1.404 . S
C1173 H1185 0.930 1_545 S
C1174 C1170 1.524 . S
C1174 H1186 0.956 . S
C1174 H1187 0.961 . S
C1174 H1188 0.961 . S
C1175 C1172 1.539 1_565 S
C1175 H1189 0.958 . S
C1175 H1190 0.961 . S
C1175 H1191 0.960 . S
H1176 C1160 0.931 . S
H1177 C1165 0.929 . S
H1178 C1166 0.960 . S
H1179 C1166 0.962 . S
H1180 C1166 0.960 . S
H1181 C1167 0.961 . S
H1182 C1167 0.961 . S
H1183 C1167 0.961 . S
H1184 C1168 0.931 . S
H1185 C1173 0.930 1_565 S
H1186 C1174 0.956 . S
H1187 C1174 0.961 . S
H1188 C1174 0.961 . S
H1189 C1175 0.958 . S
H1190 C1175 0.961 . S
H1191 C1175 0.960 . S
C1192 C1193 1.391 . S
C1192 C1194 1.394 . S
C1192 H1208 0.931 . S
C1193 C1192 1.391 . S
C1193 C1197 1.376 . S
C1194 C1192 1.394 . S
C1194 C1195 1.369 . S
C1194 C1198 1.531 . S
C1195 C1194 1.369 . S
C1195 C1196 1.410 . S
C1195 C1203 1.503 . S
C1196 C1195 1.410 . S
C1196 C1197 1.392 . S
C1196 C1199 1.511 1_554 S
C1197 C1193 1.376 . S
C1197 C1196 1.392 . S
C1197 H1209 0.929 . S
C1198 C1194 1.531 . S
C1198 H1210 0.960 . S
C1198 H1211 0.962 . S
C1198 H1212 0.960 . S
C1199 C1196 1.511 1_556 S
C1199 H1213 0.961 . S
C1199 H1214 0.961 1_556 S
C1199 H1215 0.961 . S
C1200 C1201 1.370 . S
C1200 C1202 1.363 . S
C1200 H1216 0.931 . S
C1201 C1200 1.370 . S
C1201 C1205 1.408 . S
C1202 C1200 1.363 . S
C1202 C1203 1.370 . S
C1202 C1206 1.524 . S
C1203 C1195 1.503 . S
C1203 C1202 1.370 . S
C1203 C1204 1.403 . S
C1204 C1203 1.403 . S
C1204 C1205 1.404 . S
C1204 C1207 1.539 1_554 S
C1205 C1201 1.408 . S
C1205 C1204 1.404 . S
C1205 H1217 0.930 1_554 S
C1206 C1202 1.524 . S
C1206 H1218 0.956 . S
C1206 H1219 0.961 . S
C1206 H1220 0.961 . S
C1207 C1204 1.539 1_556 S
C1207 H1221 0.958 . S
C1207 H1222 0.961 . S
C1207 H1223 0.960 . S
H1208 C1192 0.931 . S
H1209 C1197 0.929 . S
H1210 C1198 0.960 . S
H1211 C1198 0.962 . S
H1212 C1198 0.960 . S
H1213 C1199 0.961 . S
H1214 C1199 0.961 1_554 S
H1215 C1199 0.961 . S
H1216 C1200 0.931 . S
H1217 C1205 0.930 1_556 S
H1218 C1206 0.956 . S
H1219 C1206 0.961 . S
H1220 C1206 0.961 . S
H1221 C1207 0.958 . S
H1222 C1207 0.961 . S
H1223 C1207 0.960 . S
C1224 C1225 1.391 . S
C1224 C1226 1.394 . S
C1224 H1240 0.931 . S
C1225 C1224 1.391 . S
C1225 C1229 1.376 . S
C1226 C1224 1.394 . S
C1226 C1227 1.369 . S
C1226 C1230 1.531 . S
C1227 C1226 1.369 . S
C1227 C1228 1.410 . S
C1227 C1235 1.503 . S
C1228 C1227 1.410 . S
C1228 C1229 1.392 . S
C1228 C1231 1.511 . S
C1229 C1225 1.376 . S
C1229 C1228 1.392 . S
C1229 H1241 0.929 . S
C1230 C1226 1.531 . S
C1230 H1242 0.960 . S
C1230 H1243 0.962 . S
C1230 H1244 0.960 . S
C1231 C1228 1.511 . S
C1231 H1245 0.961 . S
C1231 H1246 0.961 . S
C1231 H1247 0.961 . S
C1232 C1233 1.370 . S
C1232 C1234 1.363 . S
C1232 H1248 0.931 . S
C1233 C1232 1.370 . S
C1233 C1237 1.408 . S
C1234 C1232 1.363 . S
C1234 C1235 1.370 . S
C1234 C1238 1.524 . S
C1235 C1227 1.503 . S
C1235 C1234 1.370 . S
C1235 C1236 1.403 . S
C1236 C1235 1.403 . S
C1236 C1237 1.404 . S
C1236 C1239 1.539 . S
C1237 C1233 1.408 . S
C1237 C1236 1.404 . S
C1237 H1249 0.930 . S
C1238 C1234 1.524 . S
C1238 H1250 0.956 . S
C1238 H1251 0.961 . S
C1238 H1252 0.961 . S
C1239 C1236 1.539 . S
C1239 H1253 0.958 . S
C1239 H1254 0.961 . S
C1239 H1255 0.960 . S
H1240 C1224 0.931 . S
H1241 C1229 0.929 . S
H1242 C1230 0.960 . S
H1243 C1230 0.962 . S
H1244 C1230 0.960 . S
H1245 C1231 0.961 . S
H1246 C1231 0.961 . S
H1247 C1231 0.961 . S
H1248 C1232 0.931 . S
H1249 C1237 0.930 . S
H1250 C1238 0.956 . S
H1251 C1238 0.961 . S
H1252 C1238 0.961 . S
H1253 C1239 0.958 . S
H1254 C1239 0.961 . S
H1255 C1239 0.960 . S
C1256 C1257 1.391 . S
C1256 C1258 1.394 . S
C1256 H1272 0.931 . S
C1257 C1256 1.391 . S
C1257 C1261 1.376 . S
C1258 C1256 1.394 . S
C1258 C1259 1.369 . S
C1258 C1262 1.531 . S
C1259 C1258 1.369 . S
C1259 C1260 1.410 . S
C1259 C1267 1.503 . S
C1260 C1259 1.410 . S
C1260 C1261 1.392 . S
C1260 C1263 1.511 . S
C1261 C1257 1.376 . S
C1261 C1260 1.392 . S
C1261 H1273 0.929 . S
C1262 C1258 1.531 . S
C1262 H1274 0.960 1_556 S
C1262 H1275 0.962 . S
C1262 H1276 0.960 1_556 S
C1263 C1260 1.511 . S
C1263 H1277 0.961 . S
C1263 H1278 0.961 . S
C1263 H1279 0.961 . S
C1264 C1265 1.370 . S
C1264 C1266 1.363 . S
C1264 H1280 0.931 1_655 S
C1265 C1264 1.370 . S
C1265 C1269 1.408 . S
C1266 C1264 1.363 . S
C1266 C1267 1.370 . S
C1266 C1270 1.507 1_655 S
C1267 C1259 1.503 . S
C1267 C1266 1.370 . S
C1267 C1268 1.403 . S
C1268 C1267 1.403 . S
C1268 C1269 1.404 . S
C1268 C1271 1.539 . S
C1269 C1265 1.408 . S
C1269 C1268 1.404 . S
C1269 H1281 0.930 . S
C1270 C1266 1.507 1_455 S
C1270 H1282 0.969 . S
C1270 H1283 0.946 1_455 S
C1270 H1284 0.980 . S
C1271 C1268 1.539 . S
C1271 H1285 0.958 1_556 S
C1271 H1286 0.961 . S
C1271 H1287 0.960 . S
H1272 C1256 0.931 . S
H1273 C1261 0.929 . S
H1274 C1262 0.960 1_554 S
H1275 C1262 0.962 . S
H1276 C1262 0.960 1_554 S
H1277 C1263 0.961 . S
H1278 C1263 0.961 . S
H1279 C1263 0.961 . S
H1280 C1264 0.931 1_455 S
H1281 C1269 0.930 . S
H1282 C1270 0.969 . S
H1283 C1270 0.946 1_655 S
H1284 C1270 0.980 . S
H1285 C1271 0.958 1_554 S
H1286 C1271 0.961 . S
H1287 C1271 0.960 . S
C1288 C1289 1.391 . S
C1288 C1290 1.394 . S
C1288 H1304 0.931 . S
C1289 C1288 1.391 . S
C1289 C1293 1.376 . S
C1290 C1288 1.394 . S
C1290 C1291 1.369 . S
C1290 C1294 1.531 . S
C1291 C1290 1.369 . S
C1291 C1292 1.410 . S
C1291 C1299 1.503 . S
C1292 C1291 1.410 . S
C1292 C1293 1.392 . S
C1292 C1295 1.511 . S
C1293 C1289 1.376 . S
C1293 C1292 1.392 . S
C1293 H1305 0.929 . S
C1294 C1290 1.531 . S
C1294 H1306 0.960 . S
C1294 H1307 0.962 . S
C1294 H1308 0.960 . S
C1295 C1292 1.511 . S
C1295 H1309 0.961 1_554 S
C1295 H1310 0.961 . S
C1295 H1311 0.961 . S
C1296 C1297 1.370 . S
C1296 C1298 1.363 . S
C1296 H1312 0.931 . S
C1297 C1296 1.370 . S
C1297 C1301 1.408 . S
C1298 C1296 1.363 . S
C1298 C1299 1.370 . S
C1298 C1302 1.524 . S
C1299 C1291 1.503 . S
C1299 C1298 1.370 . S
C1299 C1300 1.403 . S
C1300 C1299 1.403 . S
C1300 C1301 1.404 . S
C1300 C1303 1.539 . S
C1301 C1297 1.408 . S
C1301 C1300 1.404 . S
C1301 H1313 0.930 . S
C1302 C1298 1.524 . S
C1302 H1314 0.956 . S
C1302 H1315 0.961 . S
C1302 H1316 0.961 . S
C1303 C1300 1.539 . S
C1303 H1317 0.958 . S
C1303 H1318 0.961 . S
C1303 H1319 0.960 . S
H1304 C1288 0.931 . S
H1305 C1293 0.929 . S
H1306 C1294 0.960 . S
H1307 C1294 0.962 . S
H1308 C1294 0.960 . S
H1309 C1295 0.961 1_556 S
H1310 C1295 0.961 . S
H1311 C1295 0.961 . S
H1312 C1296 0.931 . S
H1313 C1301 0.930 . S
H1314 C1302 0.956 . S
H1315 C1302 0.961 . S
H1316 C1302 0.961 . S
H1317 C1303 0.958 . S
H1318 C1303 0.961 . S
H1319 C1303 0.960 . S
C1320 C1321 1.391 . S
C1320 C1322 1.394 . S
C1320 H1336 0.931 . S
C1321 C1320 1.391 . S
C1321 C1325 1.376 . S
C1322 C1320 1.394 . S
C1322 C1323 1.369 . S
C1322 C1326 1.531 . S
C1323 C1322 1.369 . S
C1323 C1324 1.410 . S
C1323 C1331 1.503 . S
C1324 C1323 1.410 . S
C1324 C1325 1.392 . S
C1324 C1327 1.511 . S
C1325 C1321 1.376 . S
C1325 C1324 1.392 . S
C1325 H1337 0.929 . S
C1326 C1322 1.531 . S
C1326 H1338 0.960 . S
C1326 H1339 0.962 . S
C1326 H1340 0.960 . S
C1327 C1324 1.511 . S
C1327 H1341 0.961 . S
C1327 H1342 0.961 . S
C1327 H1343 0.961 . S
C1328 C1329 1.370 . S
C1328 C1330 1.363 . S
C1328 H1344 0.931 . S
C1329 C1328 1.370 . S
C1329 C1333 1.408 . S
C1330 C1328 1.363 . S
C1330 C1331 1.370 . S
C1330 C1334 1.524 . S
C1331 C1323 1.503 . S
C1331 C1330 1.370 . S
C1331 C1332 1.403 . S
C1332 C1331 1.403 . S
C1332 C1333 1.404 . S
C1332 C1335 1.539 . S
C1333 C1329 1.408 . S
C1333 C1332 1.404 . S
C1333 H1345 0.930 . S
C1334 C1330 1.524 . S
C1334 H1346 0.956 . S
C1334 H1347 0.961 . S
C1334 H1348 0.961 . S
C1335 C1332 1.539 . S
C1335 H1349 0.958 . S
C1335 H1350 0.961 . S
C1335 H1351 0.960 . S
H1336 C1320 0.931 . S
H1337 C1325 0.929 . S
H1338 C1326 0.960 . S
H1339 C1326 0.962 . S
H1340 C1326 0.960 . S
H1341 C1327 0.961 . S
H1342 C1327 0.961 . S
H1343 C1327 0.961 . S
H1344 C1328 0.931 . S
H1345 C1333 0.930 . S
H1346 C1334 0.956 . S
H1347 C1334 0.961 . S
H1348 C1334 0.961 . S
H1349 C1335 0.958 . S
H1350 C1335 0.961 . S
H1351 C1335 0.960 . S
C1352 C1353 1.391 . S
C1352 C1354 1.394 . S
C1352 H1368 0.931 . S
C1353 C1352 1.391 . S
C1353 C1357 1.376 . S
C1354 C1352 1.394 . S
C1354 C1355 1.369 . S
C1354 C1358 1.531 . S
C1355 C1354 1.369 . S
C1355 C1356 1.410 . S
C1355 C1363 1.503 . S
C1356 C1355 1.410 . S
C1356 C1357 1.392 . S
C1356 C1359 1.511 . S
C1357 C1353 1.376 . S
C1357 C1356 1.392 . S
C1357 H1369 0.929 . S
C1358 C1354 1.531 . S
C1358 H1370 0.960 . S
C1358 H1371 0.962 . S
C1358 H1372 0.960 . S
C1359 C1356 1.511 . S
C1359 H1373 0.961 . S
C1359 H1374 0.961 . S
C1359 H1375 0.961 . S
C1360 C1361 1.370 . S
C1360 C1362 1.363 . S
C1360 H1376 0.931 . S
C1361 C1360 1.370 . S
C1361 C1365 1.408 . S
C1362 C1360 1.363 . S
C1362 C1363 1.370 . S
C1362 C1366 1.524 . S
C1363 C1355 1.503 . S
C1363 C1362 1.370 . S
C1363 C1364 1.403 . S
C1364 C1363 1.403 . S
C1364 C1365 1.404 . S
C1364 C1367 1.539 . S
C1365 C1361 1.408 . S
C1365 C1364 1.404 . S
C1365 H1377 0.930 . S
C1366 C1362 1.524 . S
C1366 H1378 0.956 . S
C1366 H1379 0.961 . S
C1366 H1380 0.961 . S
C1367 C1364 1.539 . S
C1367 H1381 0.958 . S
C1367 H1382 0.961 . S
C1367 H1383 0.960 . S
H1368 C1352 0.931 . S
H1369 C1357 0.929 . S
H1370 C1358 0.960 . S
H1371 C1358 0.962 . S
H1372 C1358 0.960 . S
H1373 C1359 0.961 . S
H1374 C1359 0.961 . S
H1375 C1359 0.961 . S
H1376 C1360 0.931 . S
H1377 C1365 0.930 . S
H1378 C1366 0.956 . S
H1379 C1366 0.961 . S
H1380 C1366 0.961 . S
H1381 C1367 0.958 . S
H1382 C1367 0.961 . S
H1383 C1367 0.960 . S
C617 C1 2.298 . S
C625 C480 2.328 . S
C649 C80 2.212 . S
C657 C522 2.303 . S
C689 C552 1.012 . S
C681 C140 0.975 . S
C713 C211 0.987 . S
C721 C586 1.078 . S
C753 C543 1.872 . S
C745 C31 1.865 . S
C785 C497 1.867 . S
C777 C61 1.819 . S
C817 C590 1.378 . S
C809 C151 1.357 . S
C849 C556 1.439 . S
C841 C200 1.357 . S
C873 C20 2.175 . S
C881 C611 2.224 . S
C913 C518 1.149 . S
C905 C121 1.127 . S
C937 C181 1.152 . S
C945 C493 1.172 . S
C969 C91 2.136 . S
C977 C577 2.197 . S
C1009 C509 2.330 . S
C1001 C260 2.303 . S
C1033 C320 2.209 . S
C1041 C531 2.297 . S
C1065 C361 1.006 . S
C1073 C561 1.027 . S
C1097 C451 1.081 . S
C1105 C595 1.065 . S
C1129 C271 1.848 . S
C1137 C514 1.871 . S
C1169 C488 1.870 . S
C1161 C301 1.808 . S
C1201 C599 1.375 . S
C1193 C380 1.341 . S
C1233 C565 1.435 . S
C1225 C440 1.391 . S
C1257 C241 2.218 . S
C1265 C582 2.227 . S
C1297 C527 1.155 . S
C1289 C391 1.101 . S
C1329 C484 1.161 . S
C1321 C421 1.135 . S
C1353 C331 2.106 . S
C1361 C548 2.200 . S
