# Generated by pormake.
# Topology tbo, (3,4)-cn, num edge types: 1
# Building blocks:
#     Node 0, Type 0, BuildingBlock: OLANEW_clean_sbu_2, # of connection points: 3
#     Node 1, Type 0, BuildingBlock: OLANEW_clean_sbu_2, # of connection points: 3
#     Node 2, Type 0, BuildingBlock: OLANEW_clean_sbu_2, # of connection points: 3
#     Node 3, Type 0, BuildingBlock: OLANEW_clean_sbu_2, # of connection points: 3
#     Node 4, Type 0, BuildingBlock: OLANEW_clean_sbu_2, # of connection points: 3
#     Node 5, Type 0, BuildingBlock: OLANEW_clean_sbu_2, # of connection points: 3
#     Node 6, Type 0, BuildingBlock: OLANEW_clean_sbu_2, # of connection points: 3
#     Node 7, Type 0, BuildingBlock: OLANEW_clean_sbu_2, # of connection points: 3
#     Node 8, Type 0, BuildingBlock: OLANEW_clean_sbu_2, # of connection points: 3
#     Node 9, Type 0, BuildingBlock: OLANEW_clean_sbu_2, # of connection points: 3
#     Node 10, Type 0, BuildingBlock: OLANEW_clean_sbu_2, # of connection points: 3
#     Node 11, Type 0, BuildingBlock: OLANEW_clean_sbu_2, # of connection points: 3
#     Node 12, Type 0, BuildingBlock: OLANEW_clean_sbu_2, # of connection points: 3
#     Node 13, Type 0, BuildingBlock: OLANEW_clean_sbu_2, # of connection points: 3
#     Node 14, Type 0, BuildingBlock: OLANEW_clean_sbu_2, # of connection points: 3
#     Node 15, Type 0, BuildingBlock: OLANEW_clean_sbu_2, # of connection points: 3
#     Node 16, Type 0, BuildingBlock: OLANEW_clean_sbu_2, # of connection points: 3
#     Node 17, Type 0, BuildingBlock: OLANEW_clean_sbu_2, # of connection points: 3
#     Node 18, Type 0, BuildingBlock: OLANEW_clean_sbu_2, # of connection points: 3
#     Node 19, Type 0, BuildingBlock: OLANEW_clean_sbu_2, # of connection points: 3
#     Node 20, Type 0, BuildingBlock: OLANEW_clean_sbu_2, # of connection points: 3
#     Node 21, Type 0, BuildingBlock: OLANEW_clean_sbu_2, # of connection points: 3
#     Node 22, Type 0, BuildingBlock: OLANEW_clean_sbu_2, # of connection points: 3
#     Node 23, Type 0, BuildingBlock: OLANEW_clean_sbu_2, # of connection points: 3
#     Node 24, Type 0, BuildingBlock: OLANEW_clean_sbu_2, # of connection points: 3
#     Node 25, Type 0, BuildingBlock: OLANEW_clean_sbu_2, # of connection points: 3
#     Node 26, Type 0, BuildingBlock: OLANEW_clean_sbu_2, # of connection points: 3
#     Node 27, Type 0, BuildingBlock: OLANEW_clean_sbu_2, # of connection points: 3
#     Node 28, Type 0, BuildingBlock: OLANEW_clean_sbu_2, # of connection points: 3
#     Node 29, Type 0, BuildingBlock: OLANEW_clean_sbu_2, # of connection points: 3
#     Node 30, Type 0, BuildingBlock: OLANEW_clean_sbu_2, # of connection points: 3
#     Node 31, Type 0, BuildingBlock: OLANEW_clean_sbu_2, # of connection points: 3
#     Node 32, Type 1, BuildingBlock: AZAVOO_clean_linker_0, # of connection points: 4
#     Node 33, Type 1, BuildingBlock: AZAVOO_clean_linker_0, # of connection points: 4
#     Node 34, Type 1, BuildingBlock: AZAVOO_clean_linker_0, # of connection points: 4
#     Node 35, Type 1, BuildingBlock: AZAVOO_clean_linker_0, # of connection points: 4
#     Node 36, Type 1, BuildingBlock: AZAVOO_clean_linker_0, # of connection points: 4
#     Node 37, Type 1, BuildingBlock: AZAVOO_clean_linker_0, # of connection points: 4
#     Node 38, Type 1, BuildingBlock: AZAVOO_clean_linker_0, # of connection points: 4
#     Node 39, Type 1, BuildingBlock: AZAVOO_clean_linker_0, # of connection points: 4
#     Node 40, Type 1, BuildingBlock: AZAVOO_clean_linker_0, # of connection points: 4
#     Node 41, Type 1, BuildingBlock: AZAVOO_clean_linker_0, # of connection points: 4
#     Node 42, Type 1, BuildingBlock: AZAVOO_clean_linker_0, # of connection points: 4
#     Node 43, Type 1, BuildingBlock: AZAVOO_clean_linker_0, # of connection points: 4
#     Node 44, Type 1, BuildingBlock: AZAVOO_clean_linker_0, # of connection points: 4
#     Node 45, Type 1, BuildingBlock: AZAVOO_clean_linker_0, # of connection points: 4
#     Node 46, Type 1, BuildingBlock: AZAVOO_clean_linker_0, # of connection points: 4
#     Node 47, Type 1, BuildingBlock: AZAVOO_clean_linker_0, # of connection points: 4
#     Node 48, Type 1, BuildingBlock: AZAVOO_clean_linker_0, # of connection points: 4
#     Node 49, Type 1, BuildingBlock: AZAVOO_clean_linker_0, # of connection points: 4
#     Node 50, Type 1, BuildingBlock: AZAVOO_clean_linker_0, # of connection points: 4
#     Node 51, Type 1, BuildingBlock: AZAVOO_clean_linker_0, # of connection points: 4
#     Node 52, Type 1, BuildingBlock: AZAVOO_clean_linker_0, # of connection points: 4
#     Node 53, Type 1, BuildingBlock: AZAVOO_clean_linker_0, # of connection points: 4
#     Node 54, Type 1, BuildingBlock: AZAVOO_clean_linker_0, # of connection points: 4
#     Node 55, Type 1, BuildingBlock: AZAVOO_clean_linker_0, # of connection points: 4
#     Edge 56, Type (0, 1), None
#     Edge 57, Type (0, 1), None
#     Edge 58, Type (0, 1), None
#     Edge 59, Type (0, 1), None
#     Edge 60, Type (0, 1), None
#     Edge 61, Type (0, 1), None
#     Edge 62, Type (0, 1), None
#     Edge 63, Type (0, 1), None
#     Edge 64, Type (0, 1), None
#     Edge 65, Type (0, 1), None
#     Edge 66, Type (0, 1), None
#     Edge 67, Type (0, 1), None
#     Edge 68, Type (0, 1), None
#     Edge 69, Type (0, 1), None
#     Edge 70, Type (0, 1), None
#     Edge 71, Type (0, 1), None
#     Edge 72, Type (0, 1), None
#     Edge 73, Type (0, 1), None
#     Edge 74, Type (0, 1), None
#     Edge 75, Type (0, 1), None
#     Edge 76, Type (0, 1), None
#     Edge 77, Type (0, 1), None
#     Edge 78, Type (0, 1), None
#     Edge 79, Type (0, 1), None
#     Edge 80, Type (0, 1), None
#     Edge 81, Type (0, 1), None
#     Edge 82, Type (0, 1), None
#     Edge 83, Type (0, 1), None
#     Edge 84, Type (0, 1), None
#     Edge 85, Type (0, 1), None
#     Edge 86, Type (0, 1), None
#     Edge 87, Type (0, 1), None
#     Edge 88, Type (0, 1), None
#     Edge 89, Type (0, 1), None
#     Edge 90, Type (0, 1), None
#     Edge 91, Type (0, 1), None
#     Edge 92, Type (0, 1), None
#     Edge 93, Type (0, 1), None
#     Edge 94, Type (0, 1), None
#     Edge 95, Type (0, 1), None
#     Edge 96, Type (0, 1), None
#     Edge 97, Type (0, 1), None
#     Edge 98, Type (0, 1), None
#     Edge 99, Type (0, 1), None
#     Edge 100, Type (0, 1), None
#     Edge 101, Type (0, 1), None
#     Edge 102, Type (0, 1), None
#     Edge 103, Type (0, 1), None
#     Edge 104, Type (0, 1), None
#     Edge 105, Type (0, 1), None
#     Edge 106, Type (0, 1), None
#     Edge 107, Type (0, 1), None
#     Edge 108, Type (0, 1), None
#     Edge 109, Type (0, 1), None
#     Edge 110, Type (0, 1), None
#     Edge 111, Type (0, 1), None
#     Edge 112, Type (0, 1), None
#     Edge 113, Type (0, 1), None
#     Edge 114, Type (0, 1), None
#     Edge 115, Type (0, 1), None
#     Edge 116, Type (0, 1), None
#     Edge 117, Type (0, 1), None
#     Edge 118, Type (0, 1), None
#     Edge 119, Type (0, 1), None
#     Edge 120, Type (0, 1), None
#     Edge 121, Type (0, 1), None
#     Edge 122, Type (0, 1), None
#     Edge 123, Type (0, 1), None
#     Edge 124, Type (0, 1), None
#     Edge 125, Type (0, 1), None
#     Edge 126, Type (0, 1), None
#     Edge 127, Type (0, 1), None
#     Edge 128, Type (0, 1), None
#     Edge 129, Type (0, 1), None
#     Edge 130, Type (0, 1), None
#     Edge 131, Type (0, 1), None
#     Edge 132, Type (0, 1), None
#     Edge 133, Type (0, 1), None
#     Edge 134, Type (0, 1), None
#     Edge 135, Type (0, 1), None
#     Edge 136, Type (0, 1), None
#     Edge 137, Type (0, 1), None
#     Edge 138, Type (0, 1), None
#     Edge 139, Type (0, 1), None
#     Edge 140, Type (0, 1), None
#     Edge 141, Type (0, 1), None
#     Edge 142, Type (0, 1), None
#     Edge 143, Type (0, 1), None
#     Edge 144, Type (0, 1), None
#     Edge 145, Type (0, 1), None
#     Edge 146, Type (0, 1), None
#     Edge 147, Type (0, 1), None
#     Edge 148, Type (0, 1), None
#     Edge 149, Type (0, 1), None
#     Edge 150, Type (0, 1), None
#     Edge 151, Type (0, 1), None
# Relax obj value: 0.103
# Max RMSD: 0.252
# Mean RMSD: 0.148
data_MOF--net-tbo--node1-OLANEW_clean_sbu_2--node2-AZAVOO_clean_linker_0--edge1-none
_symmetry_space_group_name_H-M    P1
_symmetry_Int_Tables_number       1
_symmetry_cell_setting            triclinic
loop_
_symmetry_equiv_pos_as_xyz
'x, y, z'
_cell_length_a     47.052503
_cell_length_b     48.144481
_cell_length_c     46.336961
_cell_angle_alpha  97.291992
_cell_angle_beta   86.255861
_cell_angle_gamma 96.442254
loop_
_atom_site_label
_atom_site_type_symbol
_atom_site_fract_x
_atom_site_fract_y
_atom_site_fract_z
_atom_type_partial_charge
O0 O 0.25298 0.19903 0.2451 0.0
Cd1 Cd 0.23595 0.19036 0.29458 0.0
O2 O 0.24344 0.24298 0.25458 0.0
Cd3 Cd 0.21419 0.23505 0.2916 0.0
O4 O 0.16869 0.24011 0.29729 0.0
C5 C 0.15916 0.24934 0.27568 0.0
O6 O 0.1768 0.25397 0.25321 0.0
C7 C 0.25438 0.22369 0.23764 0.0
C8 C 0.2403 0.13554 0.30557 0.0
O9 O 0.2164 0.14283 0.29895 0.0
O10 O 0.26206 0.15413 0.30697 0.0
O11 O 0.92283 0.25593 0.19932 0.0
Cd12 Cd 0.89954 0.22033 0.16346 0.0
O13 O 0.88654 0.26257 0.23097 0.0
Cd14 Cd 0.86127 0.2298 0.20454 0.0
O15 O 0.85678 0.1843 0.20132 0.0
C16 C 0.8757 0.17482 0.21463 0.0
O17 O 0.89601 0.19265 0.22672 0.0
C18 C 0.91264 0.26825 0.22304 0.0
C19 C 0.86825 0.24241 0.12453 0.0
O20 O 0.89562 0.24374 0.12167 0.0
O21 O 0.85557 0.23079 0.14593 0.0
O22 O 0.91193 0.82806 0.13392 0.0
Cd23 Cd 0.95353 0.85745 0.15442 0.0
O24 O 0.88082 0.84304 0.16843 0.0
Cd25 Cd 0.90936 0.87257 0.1954 0.0
O26 O 0.89908 0.91089 0.22243 0.0
C27 C 0.8724 0.91347 0.22421 0.0
O28 O 0.85493 0.89329 0.21105 0.0
C29 C 0.88635 0.82785 0.14471 0.0
C30 C 0.98569 0.83004 0.18837 0.0
O31 O 0.96627 0.84522 0.19998 0.0
O32 O 0.98975 0.82753 0.16058 0.0
O33 O 0.15869 0.94314 0.18715 0.0
Cd34 Cd 0.13846 0.92675 0.14048 0.0
O35 O 0.15581 0.89827 0.1919 0.0
Cd36 Cd 0.16947 0.86133 0.20725 0.0
O37 O 0.18859 0.82177 0.19904 0.0
C38 C 0.17582 0.7973 0.20083 0.0
O39 O 0.18995 0.77537 0.19247 0.0
C40 C 0.16488 0.92354 0.20079 0.0
C41 C 0.18093 0.89581 0.11248 0.0
O42 O 0.18172 0.9223 0.11109 0.0
O43 O 0.15906 0.8836 0.12552 0.0
O44 O 0.24533 0.96357 0.89962 0.0
Cd45 Cd 0.21826 0.94846 0.94295 0.0
O46 O 0.20698 0.97994 0.88654 0.0
Cd47 Cd 0.17772 0.95605 0.9148 0.0
O48 O 0.14509 0.9216 0.90304 0.0
C49 C 0.14588 0.91444 0.87566 0.0
O50 O 0.16573 0.92738 0.85936 0.0
C51 C 0.23355 0.97722 0.88275 0.0
C52 C 0.24237 0.91007 0.97156 0.0
O53 O 0.25102 0.93642 0.97547 0.0
O54 O 0.22272 0.90172 0.95357 0.0
O55 O 0.20787 0.16818 0.96073 0.0
Cd56 Cd 0.18089 0.14047 0.92202 0.0
O57 O 0.17417 0.19431 0.97953 0.0
Cd58 Cd 0.14504 0.18066 0.94453 0.0
O59 O 0.11553 0.1898 0.91336 0.0
C60 C 0.0986 0.20815 0.92264 0.0
O61 O 0.09907 0.2191 0.95009 0.0
C62 C 0.19915 0.18682 0.98016 0.0
C63 C 0.21938 0.11539 0.8813 0.0
O64 O 0.21173 0.10481 0.90497 0.0
O65 O 0.20849 0.13753 0.8766 0.0
O66 O 0.79955 0.21842 0.85563 0.0
Cd67 Cd 0.81662 0.19751 0.80747 0.0
O68 O 0.8372 0.20671 0.87519 0.0
Cd69 Cd 0.83592 0.16849 0.84454 0.0
O70 O 0.81756 0.12771 0.82419 0.0
C71 C 0.80085 0.11241 0.83984 0.0
O72 O 0.7962 0.12138 0.86755 0.0
C73 C 0.81632 0.2215 0.87649 0.0
C74 C 0.8743 0.21827 0.80098 0.0
O75 O 0.85435 0.23383 0.79898 0.0
O76 O 0.8672 0.19245 0.80457 0.0
O77 O 0.88959 0.9058 0.87075 0.0
Cd78 Cd 0.85318 0.93078 0.90049 0.0
O79 O 0.88959 0.87036 0.89675 0.0
Cd80 Cd 0.85837 0.87986 0.93251 0.0
O81 O 0.84021 0.86054 0.97085 0.0
C82 C 0.85093 0.83834 0.97503 0.0
O83 O 0.87167 0.8296 0.95696 0.0
C84 C 0.89896 0.88293 0.87496 0.0
C85 C 0.815 0.9512 0.86641 0.0
O86 O 0.83977 0.96445 0.871 0.0
O87 O 0.80823 0.92833 0.87786 0.0
O88 O 0.18161 0.67116 0.65001 0.0
Cd89 Cd 0.1477 0.64846 0.68478 0.0
O90 O 0.15268 0.70037 0.63783 0.0
Cd91 Cd 0.11765 0.69481 0.67082 0.0
O92 O 0.0855 0.71344 0.7016 0.0
C93 C 0.07209 0.73253 0.6937 0.0
O94 O 0.07685 0.73906 0.667 0.0
C95 C 0.17648 0.6898 0.6344 0.0
C96 C 0.1739 0.62058 0.72387 0.0
O97 O 0.17019 0.60933 0.69763 0.0
O98 O 0.16551 0.64498 0.73159 0.0
O99 O 0.88726 0.83935 0.73648 0.0
Cd100 Cd 0.83802 0.84476 0.72568 0.0
O101 O 0.87999 0.79328 0.72866 0.0
Cd102 Cd 0.893 0.75113 0.7278 0.0
O103 O 0.8951 0.70926 0.73977 0.0
C104 C 0.88633 0.68776 0.72262 0.0
O105 O 0.87786 0.69131 0.69699 0.0
C106 C 0.89641 0.81545 0.73621 0.0
C107 C 0.82635 0.82787 0.66758 0.0
O108 O 0.83743 0.85292 0.67596 0.0
O109 O 0.82081 0.81073 0.68673 0.0
O110 O 0.88803 0.32763 0.6524 0.0
Cd111 Cd 0.92217 0.36008 0.68141 0.0
O112 O 0.84988 0.34306 0.67643 0.0
Cd113 Cd 0.873 0.37366 0.70749 0.0
O114 O 0.87132 0.41478 0.73275 0.0
C115 C 0.84747 0.42455 0.73169 0.0
O116 O 0.82729 0.40919 0.71673 0.0
C117 C 0.86093 0.32697 0.65593 0.0
C118 C 0.94952 0.3356 0.7219 0.0
O119 O 0.9585 0.33384 0.69508 0.0
O120 O 0.92735 0.34856 0.7295 0.0
O121 O 0.19722 0.48317 0.6932 0.0
Cd122 Cd 0.1786 0.45944 0.64835 0.0
O123 O 0.16618 0.45612 0.71708 0.0
Cd124 Cd 0.14567 0.43499 0.75316 0.0
O125 O 0.12138 0.39765 0.76834 0.0
C126 C 0.09673 0.39833 0.78119 0.0
O127 O 0.08586 0.42253 0.78697 0.0
C128 C 0.18702 0.47534 0.71722 0.0
C129 C 0.20782 0.41255 0.6311 0.0
O130 O 0.21778 0.43698 0.62458 0.0
O131 O 0.18381 0.41024 0.6458 0.0
O132 O 0.17797 0.41674 0.34119 0.0
Cd133 Cd 0.1406 0.39967 0.37519 0.0
O134 O 0.19352 0.45336 0.37202 0.0
Cd135 Cd 0.15486 0.45084 0.40098 0.0
O136 O 0.11039 0.43356 0.40709 0.0
C137 C 0.09407 0.43788 0.38771 0.0
O138 O 0.1028 0.45778 0.3712 0.0
C139 C 0.19643 0.43755 0.34797 0.0
C140 C 0.16583 0.37497 0.41683 0.0
O141 O 0.16639 0.40174 0.41827 0.0
O142 O 0.15249 0.35975 0.39629 0.0
O143 O 0.31581 0.69636 0.36548 0.0
Cd144 Cd 0.33904 0.69775 0.31721 0.0
O145 O 0.28321 0.71907 0.35039 0.0
Cd146 Cd 0.24392 0.73884 0.3504 0.0
O147 O 0.20519 0.7518 0.33561 0.0
C148 C 0.19622 0.73905 0.31169 0.0
O149 O 0.21074 0.71936 0.29748 0.0
C150 C 0.29223 0.707 0.37032 0.0
C151 C 0.3316 0.64281 0.29047 0.0
O152 O 0.35407 0.65214 0.30437 0.0
O153 O 0.31317 0.65995 0.28807 0.0
O154 O 0.90616 0.66103 0.44184 0.0
Cd155 Cd 0.93165 0.62823 0.40847 0.0
O156 O 0.86484 0.63496 0.44451 0.0
Cd157 Cd 0.87782 0.60038 0.41355 0.0
O158 O 0.85725 0.5737 0.37785 0.0
C159 C 0.83014 0.57009 0.38146 0.0
O160 O 0.81801 0.58113 0.40596 0.0
C161 C 0.88037 0.65777 0.45173 0.0
C162 C 0.96345 0.6618 0.37093 0.0
O163 O 0.93992 0.64768 0.36303 0.0
O164 O 0.9724 0.65898 0.39581 0.0
O165 O 0.89485 0.38992 0.36865 0.0
Cd166 Cd 0.85453 0.41197 0.39459 0.0
O167 O 0.91351 0.38159 0.40877 0.0
Cd168 Cd 0.87855 0.39043 0.44059 0.0
O169 O 0.85624 0.36935 0.47596 0.0
C170 C 0.86828 0.34903 0.48313 0.0
O171 O 0.89289 0.34334 0.46992 0.0
C172 C 0.91487 0.38134 0.38123 0.0
C173 C 0.82014 0.43214 0.35657 0.0
O174 O 0.84456 0.4451 0.36316 0.0
O175 O 0.81165 0.40953 0.36792 0.0
O176 O 0.70812 0.20289 0.69659 0.0
Cd177 Cd 0.67416 0.18149 0.73191 0.0
O178 O 0.67722 0.23006 0.68438 0.0
Cd179 Cd 0.64108 0.22179 0.71512 0.0
O180 O 0.60167 0.23772 0.73489 0.0
C181 C 0.58937 0.25332 0.72047 0.0
O182 O 0.60011 0.25778 0.69437 0.0
C183 C 0.70175 0.22102 0.68102 0.0
C184 C 0.69035 0.13051 0.74505 0.0
O185 O 0.67905 0.13223 0.72103 0.0
O186 O 0.69408 0.15285 0.76319 0.0
O187 O 0.39707 0.26678 0.68256 0.0
Cd188 Cd 0.36934 0.23714 0.64503 0.0
O189 O 0.42242 0.23224 0.68821 0.0
Cd190 Cd 0.39907 0.19931 0.65971 0.0
O191 O 0.38083 0.15772 0.66913 0.0
C192 C 0.3937 0.1488 0.68885 0.0
O193 O 0.41661 0.16404 0.69911 0.0
C194 C 0.41691 0.25756 0.69486 0.0
C195 C 0.33421 0.26542 0.61484 0.0
O196 O 0.36064 0.26387 0.6068 0.0
O197 O 0.32447 0.25408 0.63757 0.0
O198 O 0.34933 0.7969 0.66249 0.0
Cd199 Cd 0.37178 0.82322 0.70515 0.0
O200 O 0.30783 0.81379 0.67314 0.0
Cd201 Cd 0.32298 0.84441 0.70915 0.0
O202 O 0.32799 0.8867 0.73286 0.0
C203 C 0.30606 0.90016 0.73481 0.0
O204 O 0.28223 0.88745 0.72395 0.0
C205 C 0.3233 0.79748 0.65694 0.0
C206 C 0.42497 0.80582 0.71348 0.0
O207 O 0.40155 0.79177 0.72116 0.0
O208 O 0.42344 0.82824 0.70166 0.0
O209 O 0.68315 0.93257 0.62504 0.0
Cd210 Cd 0.67877 0.922 0.57297 0.0
O211 O 0.65059 0.89771 0.63245 0.0
Cd212 Cd 0.62294 0.86455 0.65165 0.0
O213 O 0.59495 0.83158 0.62704 0.0
C214 C 0.57872 0.80965 0.63242 0.0
O215 O 0.56552 0.79457 0.61063 0.0
C216 C 0.66923 0.91707 0.64248 0.0
C217 C 0.71822 0.88349 0.55634 0.0
O218 O 0.72542 0.90994 0.55613 0.0
O219 O 0.69204 0.87529 0.56307 0.0
O220 O 0.75714 0.9382 0.37526 0.0
Cd221 Cd 0.7297 0.91507 0.41381 0.0
O222 O 0.71788 0.94945 0.35842 0.0
Cd223 Cd 0.68863 0.92507 0.38644 0.0
O224 O 0.65005 0.89638 0.39178 0.0
C225 C 0.62781 0.9041 0.38237 0.0
O226 O 0.62957 0.92895 0.37306 0.0
C227 C 0.74503 0.95053 0.35748 0.0
C228 C 0.75613 0.87266 0.43353 0.0
O229 O 0.73604 0.86647 0.41568 0.0
O230 O 0.76386 0.8987 0.44162 0.0
O231 O 0.6828 0.14914 0.4274 0.0
Cd232 Cd 0.65855 0.11835 0.3888 0.0
O233 O 0.68792 0.18902 0.40773 0.0
Cd234 Cd 0.66421 0.17599 0.36856 0.0
O235 O 0.63712 0.18831 0.33683 0.0
C236 C 0.63706 0.21458 0.33571 0.0
O237 O 0.65388 0.23237 0.35254 0.0
C238 C 0.69204 0.17506 0.42833 0.0
C239 C 0.70028 0.09101 0.35476 0.0
O240 O 0.68985 0.11196 0.3464 0.0
O241 O 0.69045 0.08243 0.37887 0.0
O242 O 0.3337 0.20019 0.44129 0.0
Cd243 Cd 0.35906 0.16294 0.41412 0.0
O244 O 0.32242 0.17919 0.4806 0.0
Cd245 Cd 0.33769 0.14061 0.4585 0.0
O246 O 0.33186 0.10378 0.42616 0.0
C247 C 0.3076 0.0894 0.42782 0.0
O248 O 0.28929 0.09668 0.44935 0.0
C249 C 0.32257 0.20058 0.46706 0.0
C250 C 0.3995 0.18784 0.37622 0.0
O251 O 0.37538 0.17617 0.36706 0.0
O252 O 0.40463 0.18701 0.4029 0.0
O253 O 0.44412 0.92275 0.40372 0.0
Cd254 Cd 0.41138 0.95453 0.42949 0.0
O255 O 0.43694 0.89537 0.43817 0.0
Cd256 Cd 0.43454 0.85837 0.46164 0.0
O257 O 0.41191 0.82609 0.48636 0.0
C258 C 0.39254 0.83363 0.50525 0.0
O259 O 0.38843 0.86041 0.51013 0.0
C260 C 0.44884 0.90037 0.41361 0.0
C261 C 0.36553 0.95856 0.39537 0.0
O262 O 0.38964 0.9734 0.39219 0.0
O263 O 0.36283 0.94175 0.41495 0.0
O264 O 0.77366 0.72439 0.23291 0.0
Cd265 Cd 0.76682 0.71315 0.28311 0.0
O266 O 0.74053 0.75379 0.23662 0.0
Cd267 Cd 0.72369 0.75065 0.28123 0.0
O268 O 0.68355 0.75935 0.30547 0.0
C269 C 0.67419 0.78225 0.30141 0.0
O270 O 0.69006 0.79928 0.28537 0.0
C271 C 0.75996 0.74126 0.22162 0.0
C272 C 0.76087 0.65481 0.28378 0.0
O273 O 0.78568 0.66879 0.28289 0.0
O274 O 0.73886 0.66844 0.28474 0.0
O275 O 0.4434 0.72027 0.18597 0.0
Cd276 Cd 0.41675 0.69623 0.14502 0.0
O277 O 0.43238 0.68745 0.21499 0.0
Cd278 Cd 0.4091 0.65771 0.18324 0.0
O279 O 0.38499 0.61631 0.17752 0.0
C280 C 0.39707 0.59607 0.18471 0.0
O281 O 0.42383 0.60085 0.19212 0.0
C282 C 0.44481 0.71141 0.21046 0.0
C283 C 0.37947 0.73161 0.12815 0.0
O284 O 0.40627 0.73456 0.12089 0.0
O285 O 0.36997 0.71167 0.14322 0.0
O286 O 0.43453 0.3398 0.10512 0.0
Cd287 Cd 0.47231 0.36939 0.13124 0.0
O288 O 0.41962 0.37093 0.08035 0.0
Cd289 Cd 0.44458 0.40437 0.10644 0.0
O290 O 0.42229 0.42677 0.14324 0.0
C291 C 0.39688 0.43057 0.13812 0.0
O292 O 0.38778 0.42257 0.11184 0.0
C293 C 0.41824 0.34586 0.08654 0.0
C294 C 0.48531 0.34052 0.17635 0.0
O295 O 0.49759 0.33639 0.15089 0.0
O296 O 0.46743 0.35903 0.18083 0.0
O297 O 0.66431 0.45199 0.12218 0.0
Cd298 Cd 0.64652 0.42867 0.07638 0.0
O299 O 0.64586 0.41614 0.14457 0.0
Cd300 Cd 0.63852 0.39049 0.18073 0.0
O301 O 0.61734 0.36359 0.21211 0.0
C302 C 0.6181 0.33705 0.20854 0.0
O303 O 0.63329 0.32566 0.18625 0.0
C304 C 0.66089 0.43985 0.14514 0.0
C305 C 0.68618 0.39121 0.05622 0.0
O306 O 0.68962 0.41661 0.05004 0.0
O307 O 0.66331 0.38322 0.07085 0.0
O308 O 0.73947 0.44795 0.87083 0.0
Cd309 Cd 0.70755 0.42086 0.9034 0.0
O310 O 0.70521 0.47297 0.86218 0.0
Cd311 Cd 0.67033 0.44949 0.88494 0.0
O312 O 0.62677 0.42882 0.88365 0.0
C313 C 0.61 0.43992 0.86913 0.0
O314 O 0.6195 0.46327 0.85813 0.0
C315 C 0.73118 0.46771 0.85874 0.0
C316 C 0.73372 0.38002 0.92661 0.0
O317 O 0.73879 0.40622 0.93586 0.0
O318 O 0.71639 0.37285 0.9061 0.0
O319 O 0.67437 0.64243 0.96164 0.0
Cd320 Cd 0.65734 0.61446 0.91752 0.0
O321 O 0.66837 0.68362 0.94823 0.0
Cd322 Cd 0.65071 0.66985 0.90581 0.0
O323 O 0.63353 0.68418 0.86824 0.0
C324 C 0.6343 0.71077 0.86912 0.0
O325 O 0.64556 0.72681 0.89147 0.0
C326 C 0.67622 0.6691 0.96677 0.0
C327 C 0.7048 0.60129 0.88146 0.0
O328 O 0.69611 0.58688 0.90234 0.0
O329 O 0.69074 0.62161 0.87724 0.0
O330 O 0.33101 0.77924 0.89065 0.0
Cd331 Cd 0.34019 0.75988 0.83944 0.0
O332 O 0.3729 0.77993 0.90995 0.0
Cd333 Cd 0.38361 0.7442 0.88005 0.0
O334 O 0.36668 0.701 0.8665 0.0
C335 C 0.34844 0.68943 0.88394 0.0
O336 O 0.3423 0.70338 0.90943 0.0
C337 C 0.34757 0.787 0.91152 0.0
C338 C 0.39791 0.7616 0.82106 0.0
O339 O 0.38303 0.73823 0.82463 0.0
O340 O 0.38531 0.78412 0.82541 0.0
O341 O 0.33804 0.36707 0.84404 0.0
Cd342 Cd 0.29465 0.38059 0.87192 0.0
O343 O 0.34485 0.33003 0.86543 0.0
Cd344 Cd 0.30951 0.32904 0.89835 0.0
O345 O 0.29747 0.31368 0.94046 0.0
C346 C 0.31407 0.29731 0.9485 0.0
O347 O 0.33618 0.29073 0.93118 0.0
C348 C 0.35255 0.34682 0.8466 0.0
C349 C 0.28029 0.43107 0.85557 0.0
O350 O 0.30089 0.43065 0.87218 0.0
O351 O 0.26588 0.40769 0.84679 0.0
H352 H 0.15778 0.11271 0.12468 0.0
H353 H 0.40258 0.35722 0.22202 0.0
H354 H 0.28666 0.20046 0.02371 0.0
H355 H 0.25482 0.17815 0.9859 0.0
H356 H 0.18697 0.2256 0.02661 0.0
H357 H 0.21918 0.24786 0.06426 0.0
H358 H 0.2626 0.17579 0.08271 0.0
H359 H 0.22191 0.14255 0.0956 0.0
H360 H 0.18088 0.21119 0.14429 0.0
H361 H 0.22159 0.24423 0.13099 0.0
H362 H 0.29157 0.19647 0.14398 0.0
H363 H 0.27721 0.18731 0.19403 0.0
H364 H 0.25773 0.27352 0.21481 0.0
H365 H 0.27143 0.28209 0.16478 0.0
H366 H 0.35134 0.24005 0.14061 0.0
H367 H 0.38479 0.2638 0.17649 0.0
H368 H 0.35021 0.3425 0.1716 0.0
H369 H 0.31715 0.31856 0.13555 0.0
H370 H 0.37238 0.25594 0.08144 0.0
H371 H 0.41589 0.28883 0.08286 0.0
H372 H 0.36617 0.35608 0.06996 0.0
H373 H 0.32259 0.3231 0.0694 0.0
H374 H 0.33989 0.24628 0.01974 0.0
H375 H 0.34657 0.26296 0.97179 0.0
H376 H 0.2711 0.30713 0.99021 0.0
H377 H 0.26479 0.29045 0.03824 0.0
O378 O 0.17355 0.12624 0.11968 0.0
O379 O 0.15324 0.1623 0.14419 0.0
O380 O 0.4091 0.30719 0.20679 0.0
O381 O 0.38936 0.34723 0.20818 0.0
C382 C 0.27471 0.23907 0.06943 0.0
C383 C 0.26993 0.23238 0.09833 0.0
C384 C 0.28865 0.24504 0.12001 0.0
C385 C 0.31264 0.26354 0.11256 0.0
C386 C 0.31797 0.26935 0.0834 0.0
C387 C 0.2984 0.25807 0.06208 0.0
C388 C 0.25518 0.22572 0.04664 0.0
C389 C 0.26493 0.20602 0.02437 0.0
C390 C 0.24666 0.19326 0.00287 0.0
C391 C 0.21832 0.20007 0.00325 0.0
C392 C 0.20865 0.21987 0.02568 0.0
C393 C 0.22696 0.23258 0.04722 0.0
C394 C 0.24503 0.21237 0.10596 0.0
C395 C 0.24474 0.18359 0.09606 0.0
C396 C 0.2215 0.16466 0.10351 0.0
C397 C 0.19815 0.1742 0.12102 0.0
C398 C 0.19852 0.20313 0.1308 0.0
C399 C 0.22175 0.22204 0.12329 0.0
C400 C 0.28242 0.23992 0.15081 0.0
C401 C 0.28439 0.21336 0.1595 0.0
C402 C 0.27629 0.20822 0.18809 0.0
C403 C 0.26621 0.22964 0.2084 0.0
C404 C 0.26537 0.25652 0.19977 0.0
C405 C 0.27325 0.26153 0.17122 0.0
C406 C 0.33191 0.2776 0.13546 0.0
C407 C 0.35095 0.26237 0.14745 0.0
C408 C 0.37007 0.27601 0.16786 0.0
C409 C 0.37021 0.30508 0.17687 0.0
C410 C 0.35072 0.32013 0.16513 0.0
C411 C 0.33181 0.30652 0.14454 0.0
C412 C 0.34437 0.28729 0.07578 0.0
C413 C 0.37106 0.27758 0.07797 0.0
C414 C 0.39586 0.29637 0.07875 0.0
C415 C 0.39433 0.32503 0.07685 0.0
C416 C 0.36799 0.33406 0.07135 0.0
C417 C 0.34307 0.31529 0.07105 0.0
C418 C 0.30192 0.26721 0.03248 0.0
C419 C 0.32482 0.25952 0.01337 0.0
C420 C 0.32853 0.26906 0.98597 0.0
C421 C 0.30939 0.28648 0.97718 0.0
C422 C 0.28623 0.2938 0.99628 0.0
C423 C 0.28255 0.28424 0.02369 0.0
C424 C 0.17358 0.154 0.12904 0.0
C425 C 0.39073 0.31977 0.19821 0.0
H426 H 0.91555 0.16644 0.97081 0.0
H427 H 0.76401 0.34023 0.20919 0.0
H428 H 0.84716 0.28465 0.95479 0.0
H429 H 0.85565 0.25598 0.90804 0.0
H430 H 0.7649 0.2306 0.90417 0.0
H431 H 0.75674 0.25748 0.95199 0.0
H432 H 0.86779 0.27316 0.00717 0.0
H433 H 0.89551 0.23308 0.99319 0.0
H434 H 0.81684 0.17846 0.97981 0.0
H435 H 0.78936 0.21872 0.99424 0.0
H436 H 0.85867 0.30372 0.05706 0.0
H437 H 0.88572 0.28561 0.0928 0.0
H438 H 0.81385 0.22436 0.10874 0.0
H439 H 0.78748 0.24173 0.07185 0.0
H440 H 0.81059 0.3559 0.07255 0.0
H441 H 0.80696 0.37496 0.12407 0.0
H442 H 0.75207 0.30039 0.14256 0.0
H443 H 0.75554 0.28181 0.09089 0.0
H444 H 0.77852 0.37301 0.02344 0.0
H445 H 0.74097 0.4046 0.03519 0.0
H446 H 0.68209 0.33462 0.05906 0.0
H447 H 0.71957 0.30313 0.04643 0.0
H448 H 0.80795 0.35099 0.97219 0.0
H449 H 0.7881 0.38323 0.94383 0.0
H450 H 0.70819 0.32957 0.94085 0.0
H451 H 0.72766 0.29819 0.97075 0.0
O452 O 0.90415 0.18196 0.97645 0.0
O453 O 0.86313 0.1549 0.96912 0.0
O454 O 0.78955 0.37338 0.17735 0.0
O455 O 0.76467 0.33377 0.18854 0.0
C456 C 0.79706 0.28485 0.98787 0.0
C457 C 0.80974 0.27318 0.00984 0.0
C458 C 0.80567 0.28422 0.03932 0.0
C459 C 0.78726 0.30541 0.04719 0.0
C460 C 0.77362 0.31615 0.02545 0.0
C461 C 0.77954 0.30684 0.99572 0.0
C462 C 0.80135 0.27299 0.95694 0.0
C463 C 0.82908 0.27311 0.94375 0.0
C464 C 0.83391 0.25676 0.91715 0.0
C465 C 0.81091 0.24103 0.90281 0.0
C466 C 0.78292 0.24268 0.91487 0.0
C467 C 0.77822 0.25821 0.942 0.0
C468 C 0.82658 0.24875 0.00205 0.0
C469 C 0.85659 0.25245 0.00162 0.0
C470 C 0.87237 0.22955 0.99343 0.0
C471 C 0.8584 0.20254 0.98541 0.0
C472 C 0.82827 0.19896 0.98589 0.0
C473 C 0.81252 0.22188 0.99416 0.0
C474 C 0.82124 0.27394 0.06191 0.0
C475 C 0.84886 0.28634 0.06823 0.0
C476 C 0.86423 0.27599 0.08856 0.0
C477 C 0.85181 0.25363 0.10347 0.0
C478 C 0.82382 0.24172 0.09763 0.0
C479 C 0.80877 0.25156 0.07664 0.0
C480 C 0.78352 0.31742 0.07812 0.0
C481 C 0.79761 0.34385 0.08776 0.0
C482 C 0.79555 0.35464 0.11718 0.0
C483 C 0.77941 0.33907 0.13748 0.0
C484 C 0.76484 0.31281 0.12755 0.0
C485 C 0.7668 0.30213 0.09808 0.0
C486 C 0.75162 0.33581 0.03387 0.0
C487 C 0.75743 0.36453 0.03095 0.0
C488 C 0.73595 0.38249 0.03763 0.0
C489 C 0.7085 0.37202 0.04784 0.0
C490 C 0.70296 0.34327 0.05113 0.0
C491 C 0.72434 0.32531 0.04408 0.0
C492 C 0.76933 0.32215 0.97326 0.0
C493 C 0.7864 0.34584 0.96481 0.0
C494 C 0.77501 0.36429 0.94885 0.0
C495 C 0.74668 0.3588 0.94026 0.0
C496 C 0.73019 0.33407 0.94705 0.0
C497 C 0.74129 0.31609 0.96392 0.0
C498 C 0.87525 0.17831 0.97649 0.0
C499 C 0.77815 0.34991 0.16893 0.0
H500 H 0.61618 0.66231 0.15494 0.0
H501 H 0.75922 0.71739 0.87482 0.0
H502 H 0.73523 0.77384 0.13761 0.0
H503 H 0.7303 0.77115 0.1899 0.0
H504 H 0.80097 0.71999 0.1825 0.0
H505 H 0.80579 0.72309 0.12988 0.0
H506 H 0.69241 0.73969 0.09001 0.0
H507 H 0.65446 0.71292 0.11671 0.0
H508 H 0.71588 0.65922 0.13793 0.0
H509 H 0.75352 0.68569 0.11044 0.0
H510 H 0.70417 0.75015 0.02738 0.0
H511 H 0.67394 0.72369 0.99024 0.0
H512 H 0.7104 0.64765 0.0022 0.0
H513 H 0.74105 0.67457 0.03897 0.0
H514 H 0.75304 0.78909 0.00763 0.0
H515 H 0.74869 0.78719 0.95505 0.0
H516 H 0.77753 0.70411 0.94257 0.0
H517 H 0.78236 0.70655 0.99512 0.0
H518 H 0.78817 0.82145 0.05419 0.0
H519 H 0.81277 0.85254 0.02034 0.0
H520 H 0.8612 0.78486 0.98149 0.0
H521 H 0.83613 0.75394 0.01505 0.0
H522 H 0.78998 0.80837 0.12601 0.0
H523 H 0.82951 0.8344 0.15282 0.0
H524 H 0.88914 0.78414 0.10081 0.0
H525 H 0.84913 0.75738 0.07481 0.0
O526 O 0.63153 0.67265 0.14453 0.0
O527 O 0.66504 0.65061 0.16112 0.0
O528 O 0.75227 0.76379 0.90228 0.0
O529 O 0.7621 0.71924 0.8955 0.0
C530 C 0.7711 0.74779 0.09788 0.0
C531 C 0.74876 0.73139 0.08248 0.0
C532 C 0.74798 0.73154 0.05215 0.0
C533 C 0.76909 0.74839 0.03722 0.0
C534 C 0.7909 0.76536 0.05266 0.0
C535 C 0.79249 0.76446 0.08287 0.0
C536 C 0.77077 0.74859 0.13001 0.0
C537 C 0.7499 0.76241 0.14738 0.0
C538 C 0.74714 0.7608 0.17727 0.0
C539 C 0.7651 0.74514 0.19041 0.0
C540 C 0.78673 0.73212 0.17306 0.0
C541 C 0.7896 0.73393 0.14306 0.0
C542 C 0.72571 0.71462 0.09824 0.0
C543 C 0.69758 0.72196 0.10018 0.0
C544 C 0.67595 0.70669 0.11553 0.0
C545 C 0.68215 0.68396 0.12948 0.0
C546 C 0.71041 0.67666 0.12749 0.0
C547 C 0.73195 0.69175 0.11185 0.0
C548 C 0.72502 0.7143 0.03549 0.0
C549 C 0.70509 0.72765 0.02245 0.0
C550 C 0.68795 0.71252 0.00118 0.0
C551 C 0.69017 0.68369 0.99296 0.0
C552 C 0.70829 0.66986 0.00801 0.0
C553 C 0.72573 0.68514 0.02907 0.0
C554 C 0.76821 0.74805 0.00513 0.0
C555 C 0.75888 0.77072 0.99345 0.0
C556 C 0.75625 0.7695 0.96343 0.0
C557 C 0.76265 0.74543 0.94462 0.0
C558 C 0.77234 0.72291 0.95643 0.0
C559 C 0.77518 0.72426 0.98642 0.0
C560 C 0.81048 0.78551 0.03709 0.0
C561 C 0.80468 0.81365 0.03888 0.0
C562 C 0.81853 0.83127 0.01935 0.0
C563 C 0.83865 0.82106 0.99798 0.0
C564 C 0.84574 0.79337 0.9976 0.0
C565 C 0.83162 0.77569 0.01687 0.0
C566 C 0.81661 0.78082 0.09864 0.0
C567 C 0.81151 0.80272 0.12066 0.0
C568 C 0.83416 0.81757 0.13593 0.0
C569 C 0.86247 0.81119 0.12904 0.0
C570 C 0.86759 0.78951 0.10664 0.0
C571 C 0.8448 0.77431 0.09171 0.0
C572 C 0.65916 0.66802 0.14604 0.0
C573 C 0.75876 0.74352 0.91287 0.0
H574 H 0.43666 0.71481 0.97855 0.0
H575 H 0.23941 0.80886 0.24456 0.0
H576 H 0.35947 0.83397 0.00405 0.0
H577 H 0.37714 0.82047 0.9539 0.0
H578 H 0.29217 0.78276 0.93259 0.0
H579 H 0.27512 0.79501 0.98302 0.0
H580 H 0.37733 0.80434 0.04577 0.0
H581 H 0.40946 0.77125 0.02103 0.0
H582 H 0.33616 0.71566 0.99017 0.0
H583 H 0.30428 0.74881 0.01534 0.0
H584 H 0.36119 0.81727 0.10172 0.0
H585 H 0.39128 0.78721 0.12246 0.0
H586 H 0.32445 0.71808 0.11203 0.0
H587 H 0.2951 0.74785 0.08971 0.0
H588 H 0.30097 0.86432 0.12806 0.0
H589 H 0.28716 0.86943 0.18015 0.0
H590 H 0.24779 0.78341 0.17145 0.0
H591 H 0.26099 0.77884 0.11926 0.0
H592 H 0.27563 0.89174 0.07849 0.0
H593 H 0.23443 0.91751 0.0949 0.0
H594 H 0.18292 0.83881 0.10504 0.0
H595 H 0.22404 0.81319 0.08761 0.0
H596 H 0.31253 0.88419 0.02578 0.0
H597 H 0.29384 0.91651 0.99667 0.0
H598 H 0.21723 0.85876 0.98408 0.0
H599 H 0.23578 0.82696 0.01405 0.0
O600 O 0.42356 0.72728 0.98877 0.0
O601 O 0.38514 0.69931 0.97375 0.0
O602 O 0.26175 0.85268 0.2263 0.0
O603 O 0.24546 0.80732 0.2241 0.0
C604 C 0.30736 0.81687 0.02856 0.0
C605 C 0.31895 0.79953 0.04614 0.0
C606 C 0.31103 0.80104 0.07615 0.0
C607 C 0.29003 0.81857 0.08823 0.0
C608 C 0.27718 0.8347 0.07013 0.0
C609 C 0.28663 0.83455 0.04052 0.0
C610 C 0.31614 0.81514 0.99716 0.0
C611 C 0.3446 0.8233 0.98835 0.0
C612 C 0.35462 0.81562 0.95978 0.0
C613 C 0.33606 0.80038 0.93951 0.0
C614 C 0.30692 0.79462 0.94774 0.0
C615 C 0.2971 0.80167 0.9765 0.0
C616 C 0.33851 0.77878 0.03261 0.0
C617 C 0.36827 0.78479 0.03406 0.0
C618 C 0.38656 0.76594 0.01972 0.0
C619 C 0.37538 0.7408 0.00359 0.0
C620 C 0.34548 0.73479 0.00242 0.0
C621 C 0.32723 0.75363 0.01683 0.0
C622 C 0.32588 0.7848 0.09454 0.0
C623 C 0.35282 0.79582 0.10451 0.0
C624 C 0.37002 0.77861 0.11609 0.0
C625 C 0.36015 0.75037 0.11867 0.0
C626 C 0.33243 0.73985 0.11039 0.0
C627 C 0.31559 0.75684 0.09789 0.0
C628 C 0.28229 0.8211 0.11995 0.0
C629 C 0.28938 0.84659 0.13746 0.0
C630 C 0.28146 0.84946 0.16719 0.0
C631 C 0.26641 0.8268 0.17998 0.0
C632 C 0.25944 0.80124 0.16234 0.0
C633 C 0.26716 0.79849 0.13254 0.0
C634 C 0.25278 0.8506 0.08169 0.0
C635 C 0.25537 0.88008 0.08397 0.0
C636 C 0.23179 0.89474 0.09328 0.0
C637 C 0.20534 0.88015 0.10096 0.0
C638 C 0.20295 0.85062 0.09908 0.0
C639 C 0.22644 0.83598 0.08936 0.0
C640 C 0.27541 0.85339 0.02207 0.0
C641 C 0.29172 0.87857 0.01669 0.0
C642 C 0.28103 0.89696 0.00012 0.0
C643 C 0.25412 0.8901 0.9881 0.0
C644 C 0.23812 0.86448 0.99295 0.0
C645 C 0.24857 0.84638 0.01009 0.0
C646 C 0.39488 0.72113 0.98781 0.0
C647 C 0.25782 0.82981 0.21152 0.0
H648 H 0.00268 0.17868 0.1586 0.0
H649 H 0.21477 0.33363 0.35079 0.0
H650 H 0.99876 0.32143 0.23926 0.0
H651 H 0.95924 0.30288 0.2083 0.0
H652 H 0.9114 0.27142 0.28226 0.0
H653 H 0.95169 0.28916 0.31303 0.0
H654 H 0.04546 0.28385 0.22708 0.0
H655 H 0.03281 0.24273 0.1918 0.0
H656 H 0.97964 0.20412 0.25861 0.0
H657 H 0.99281 0.2452 0.29376 0.0
H658 H 0.09368 0.3056 0.25021 0.0
H659 H 0.13895 0.28476 0.2425 0.0
H660 H 0.11352 0.2338 0.31207 0.0
H661 H 0.06772 0.25424 0.31894 0.0
H662 H 0.09749 0.36411 0.29273 0.0
H663 H 0.14922 0.37289 0.29855 0.0
H664 H 0.14288 0.30951 0.35762 0.0
H665 H 0.09112 0.30186 0.35258 0.0
H666 H 0.03649 0.39399 0.31509 0.0
H667 H 0.05975 0.43642 0.34208 0.0
H668 H 0.07991 0.38695 0.40825 0.0
H669 H 0.05636 0.34476 0.38114 0.0
H670 H 0.9724 0.36518 0.296 0.0
H671 H 0.93149 0.38517 0.32359 0.0
H672 H 0.95409 0.35148 0.4002 0.0
H673 H 0.99389 0.33107 0.37249 0.0
O674 O 0.00778 0.19454 0.17301 0.0
O675 O 0.98038 0.17584 0.20805 0.0
O676 O 0.19676 0.36146 0.3159 0.0
O677 O 0.19425 0.33141 0.34891 0.0
C678 C 0.00508 0.31055 0.29377 0.0
C679 C 0.02677 0.29286 0.2841 0.0
C680 C 0.05429 0.2993 0.29483 0.0
C681 C 0.06043 0.3237 0.31464 0.0
C682 C 0.03831 0.34023 0.32582 0.0
C683 C 0.01026 0.33303 0.31616 0.0
C684 C 0.97814 0.30634 0.27825 0.0
C685 C 0.97939 0.31131 0.24899 0.0
C686 C 0.95686 0.30073 0.23135 0.0
C687 C 0.93246 0.28565 0.24291 0.0
C688 C 0.92996 0.28322 0.27294 0.0
C689 C 0.95288 0.29329 0.29052 0.0
C690 C 0.02031 0.26734 0.26303 0.0
C691 C 0.03146 0.2663 0.23415 0.0
C692 C 0.02402 0.24287 0.214 0.0
C693 C 0.00521 0.22012 0.22238 0.0
C694 C 0.9942 0.22124 0.25143 0.0
C695 C 0.00173 0.24464 0.27156 0.0
C696 C 0.07744 0.28129 0.28499 0.0
C697 C 0.0974 0.28908 0.26292 0.0
C698 C 0.12335 0.27733 0.25878 0.0
C699 C 0.12994 0.258 0.27705 0.0
C700 C 0.1091 0.24885 0.29788 0.0
C701 C 0.08285 0.26023 0.3016 0.0
C702 C 0.09062 0.33235 0.32222 0.0
C703 C 0.10725 0.35269 0.30749 0.0
C704 C 0.13682 0.35742 0.3106 0.0
C705 C 0.15024 0.3417 0.32835 0.0
C706 C 0.13327 0.32194 0.34374 0.0
C707 C 0.10368 0.31761 0.34101 0.0
C708 C 0.04535 0.36628 0.34586 0.0
C709 C 0.04504 0.39254 0.33593 0.0
C710 C 0.05837 0.41676 0.35141 0.0
C711 C 0.07229 0.41496 0.37697 0.0
C712 C 0.06964 0.38907 0.38851 0.0
C713 C 0.05631 0.36488 0.373 0.0
C714 C 0.98609 0.34658 0.33221 0.0
C715 C 0.96834 0.36207 0.3187 0.0
C716 C 0.94506 0.37351 0.33449 0.0
C717 C 0.93955 0.36994 0.3641 0.0
C718 C 0.95774 0.35479 0.37751 0.0
C719 C 0.98058 0.34312 0.36171 0.0
C720 C 0.99699 0.19546 0.20082 0.0
C721 C 0.1818 0.34558 0.33063 0.0
H722 H 0.95052 0.99725 0.12717 0.0
H723 H 0.78753 0.22288 0.3384 0.0
H724 H 0.80207 0.97464 0.23915 0.0
H725 H 0.8188 0.92904 0.22161 0.0
H726 H 0.90081 0.95731 0.25813 0.0
H727 H 0.88344 0.00269 0.27653 0.0
H728 H 0.84425 0.01303 0.19717 0.0
H729 H 0.88352 0.00209 0.16176 0.0
H730 H 0.94413 0.04874 0.2209 0.0
H731 H 0.90466 0.05924 0.25625 0.0
H732 H 0.82936 0.0844 0.20366 0.0
H733 H 0.84404 0.12997 0.18591 0.0
H734 H 0.89773 0.1538 0.25914 0.0
H735 H 0.88212 0.1087 0.27714 0.0
H736 H 0.78919 0.10718 0.24248 0.0
H737 H 0.77727 0.15555 0.25508 0.0
H738 H 0.81295 0.15827 0.3392 0.0
H739 H 0.82516 0.11001 0.3261 0.0
H740 H 0.75176 0.06871 0.26801 0.0
H741 H 0.70998 0.08572 0.29605 0.0
H742 H 0.74413 0.0678 0.37517 0.0
H743 H 0.7869 0.0524 0.34713 0.0
H744 H 0.75372 0.0022 0.27872 0.0
H745 H 0.72652 0.9706 0.31028 0.0
H746 H 0.8024 0.9683 0.3574 0.0
H747 H 0.82926 0.00053 0.32612 0.0
O748 O 0.93531 0.00194 0.14143 0.0
O749 O 0.96556 0.02639 0.1725 0.0
O750 O 0.77545 0.20183 0.28869 0.0
O751 O 0.79229 0.20383 0.33274 0.0
C752 C 0.83282 0.02095 0.26539 0.0
C753 C 0.84777 0.04286 0.25092 0.0
C754 C 0.83946 0.07029 0.25652 0.0
C755 C 0.81573 0.07585 0.27571 0.0
C756 C 0.79958 0.05375 0.28862 0.0
C757 C 0.80864 0.02639 0.28427 0.0
C758 C 0.84156 0.99202 0.259 0.0
C759 C 0.82336 0.97072 0.24407 0.0
C760 C 0.83306 0.94474 0.2339 0.0
C761 C 0.86129 0.93973 0.23814 0.0
C762 C 0.87906 0.96065 0.25429 0.0
C763 C 0.86916 0.98652 0.26485 0.0
C764 C 0.87163 0.03697 0.22921 0.0
C765 C 0.86603 0.02089 0.2024 0.0
C766 C 0.8885 0.01467 0.18222 0.0
C767 C 0.91697 0.02454 0.18849 0.0
C768 C 0.92245 0.04083 0.21537 0.0
C769 C 0.89996 0.04697 0.23554 0.0
C770 C 0.85463 0.09349 0.24169 0.0
C771 C 0.84502 0.09916 0.21526 0.0
C772 C 0.85324 0.1252 0.2053 0.0
C773 C 0.87165 0.14552 0.2214 0.0
C774 C 0.88345 0.13857 0.24632 0.0
C775 C 0.87472 0.1128 0.25658 0.0
C776 C 0.80834 0.10524 0.28325 0.0
C777 C 0.7947 0.11837 0.26348 0.0
C778 C 0.78778 0.14595 0.2708 0.0
C779 C 0.7942 0.16081 0.29815 0.0
C780 C 0.80773 0.14746 0.31795 0.0
C781 C 0.81473 0.11991 0.31055 0.0
C782 C 0.77254 0.05964 0.30557 0.0
C783 C 0.75019 0.06835 0.2914 0.0
C784 C 0.72636 0.07801 0.30737 0.0
C785 C 0.72399 0.07816 0.3377 0.0
C786 C 0.74548 0.06776 0.35173 0.0
C787 C 0.76983 0.05891 0.3358 0.0
C788 C 0.79335 0.00393 0.30036 0.0
C789 C 0.76451 0.99465 0.29569 0.0
C790 C 0.74902 0.97664 0.31378 0.0
C791 C 0.76224 0.96723 0.33658 0.0
C792 C 0.7916 0.97524 0.3401 0.0
C793 C 0.80699 0.99357 0.3222 0.0
C794 C 0.94081 0.01776 0.16708 0.0
C795 C 0.78672 0.19005 0.30612 0.0
H796 H 0.12641 0.67196 0.41949 0.0
H797 H 0.86739 0.74461 0.24456 0.0
H798 H 0.11664 0.78872 0.31756 0.0
H799 H 0.16539 0.7834 0.33 0.0
H800 H 0.16428 0.70645 0.27053 0.0
H801 H 0.11537 0.71179 0.25872 0.0
H802 H 0.08539 0.75452 0.35426 0.0
H803 H 0.10463 0.72668 0.38761 0.0
H804 H 0.08177 0.65088 0.3296 0.0
H805 H 0.06288 0.67908 0.29626 0.0
H806 H 0.02426 0.74238 0.35868 0.0
H807 H 0.99654 0.70986 0.38891 0.0
H808 H 0.96587 0.65865 0.31151 0.0
H809 H 0.99513 0.69048 0.28121 0.0
H810 H 0.98483 0.77469 0.3208 0.0
H811 H 0.93339 0.77641 0.31735 0.0
H812 H 0.93838 0.73269 0.22997 0.0
H813 H 0.98973 0.73085 0.23382 0.0
H814 H 0.01627 0.81481 0.27771 0.0
H815 H 0.99118 0.84072 0.24702 0.0
H816 H 0.01833 0.78667 0.17088 0.0
H817 H 0.04258 0.76018 0.20198 0.0
H818 H 0.10247 0.81803 0.2695 0.0
H819 H 0.14819 0.83087 0.2435 0.0
H820 H 0.13661 0.75301 0.18597 0.0
H821 H 0.09121 0.74032 0.21214 0.0
O822 O 0.11848 0.68252 0.40609 0.0
O823 O 0.10578 0.6441 0.37585 0.0
O824 O 0.88654 0.76771 0.29102 0.0
O825 O 0.88765 0.74406 0.24657 0.0
C826 C 0.0816 0.7511 0.28424 0.0
C827 C 0.062 0.73591 0.30222 0.0
C828 C 0.0323 0.73597 0.29966 0.0
C829 C 0.0223 0.75202 0.27962 0.0
C830 C 0.04212 0.7674 0.26155 0.0
C831 C 0.07181 0.76617 0.26332 0.0
C832 C 0.11263 0.75059 0.28735 0.0
C833 C 0.12724 0.77106 0.30683 0.0
C834 C 0.15494 0.76788 0.31402 0.0
C835 C 0.16847 0.74431 0.30152 0.0
C836 C 0.15437 0.72478 0.28058 0.0
C837 C 0.12653 0.7278 0.27372 0.0
C838 C 0.07287 0.7188 0.32284 0.0
C839 C 0.08465 0.73191 0.34878 0.0
C840 C 0.09556 0.71595 0.3678 0.0
C841 C 0.09479 0.68655 0.36125 0.0
C842 C 0.08272 0.67348 0.33529 0.0
C843 C 0.07188 0.6895 0.31625 0.0
C844 C 0.01198 0.71864 0.31775 0.0
C845 C 0.0116 0.72413 0.34822 0.0
C846 C 0.99587 0.70551 0.36543 0.0
C847 C 0.97945 0.68157 0.35246 0.0
C848 C 0.97851 0.6769 0.32198 0.0
C849 C 0.99498 0.69514 0.30471 0.0
C850 C 0.991 0.75268 0.27756 0.0
C851 C 0.97473 0.76538 0.301 0.0
C852 C 0.94538 0.7664 0.29893 0.0
C853 C 0.93178 0.75473 0.27334 0.0
C854 C 0.94817 0.7419 0.24996 0.0
C855 C 0.97751 0.74087 0.25207 0.0
C856 C 0.03138 0.78569 0.24209 0.0
C857 C 0.01714 0.80882 0.25435 0.0
C858 C 0.00267 0.82347 0.23681 0.0
C859 C 0.00257 0.81557 0.20657 0.0
C860 C 0.01803 0.79325 0.19413 0.0
C861 C 0.03214 0.77826 0.2118 0.0
C862 C 0.09328 0.77847 0.24239 0.0
C863 C 0.10914 0.80447 0.25036 0.0
C864 C 0.13531 0.81172 0.23553 0.0
C865 C 0.14594 0.79294 0.21268 0.0
C866 C 0.12897 0.76787 0.20352 0.0
C867 C 0.10284 0.76076 0.21818 0.0
C868 C 0.10662 0.66969 0.38142 0.0
C869 C 0.90064 0.75593 0.27096 0.0
H870 H 0.1618 0.06089 0.18004 0.0
H871 H 0.25605 0.80416 0.30737 0.0
H872 H 0.29203 0.0587 0.30167 0.0
H873 H 0.28837 0.10839 0.29832 0.0
H874 H 0.19821 0.09664 0.32347 0.0
H875 H 0.20243 0.04718 0.32859 0.0
H876 H 0.25083 0.03 0.24865 0.0
H877 H 0.2202 0.04683 0.21534 0.0
H878 H 0.14533 0.00904 0.26073 0.0
H879 H 0.17623 0.99268 0.29414 0.0
H880 H 0.25135 0.96617 0.23318 0.0
H881 H 0.21882 0.9478 0.19451 0.0
H882 H 0.15758 0.91406 0.25783 0.0
H883 H 0.18968 0.93388 0.29693 0.0
H884 H 0.29954 0.93458 0.27665 0.0
H885 H 0.3064 0.88441 0.27132 0.0
H886 H 0.2308 0.86892 0.32766 0.0
H887 H 0.22442 0.91911 0.33298 0.0
H888 H 0.32934 0.98738 0.31469 0.0
H889 H 0.36883 0.97941 0.3433 0.0
H890 H 0.30812 0.94378 0.4062 0.0
H891 H 0.26849 0.95272 0.37765 0.0
H892 H 0.32113 0.03809 0.33682 0.0
H893 H 0.33809 0.07224 0.37746 0.0
H894 H 0.25701 0.05576 0.42505 0.0
H895 H 0.24045 0.02172 0.3844 0.0
O896 O 0.1735 0.05416 0.19355 0.0
O897 O 0.13572 0.03408 0.21741 0.0
O898 O 0.29297 0.83318 0.28075 0.0
O899 O 0.25406 0.82412 0.30931 0.0
C900 C 0.24954 0.01856 0.31445 0.0
C901 C 0.23449 0.99953 0.29362 0.0
C902 C 0.23793 0.97046 0.29095 0.0
C903 C 0.25727 0.9606 0.30836 0.0
C904 C 0.27283 0.97979 0.32871 0.0
C905 C 0.26795 0.00847 0.33261 0.0
C906 C 0.24758 0.04932 0.31564 0.0
C907 C 0.2717 0.06703 0.30743 0.0
C908 C 0.26952 0.09535 0.30526 0.0
C909 C 0.24296 0.10627 0.31043 0.0
C910 C 0.21889 0.08868 0.31916 0.0
C911 C 0.22128 0.0605 0.32215 0.0
C912 C 0.21573 0.01015 0.27379 0.0
C913 C 0.2278 0.02554 0.25145 0.0
C914 C 0.21026 0.03505 0.23241 0.0
C915 C 0.18031 0.02926 0.23534 0.0
C916 C 0.16831 0.01385 0.25784 0.0
C917 C 0.18588 0.00445 0.27692 0.0
C918 C 0.22288 0.95136 0.26783 0.0
C919 C 0.23136 0.95402 0.23865 0.0
C920 C 0.21269 0.94383 0.21669 0.0
C921 C 0.18572 0.93001 0.2235 0.0
C922 C 0.17833 0.92478 0.25228 0.0
C923 C 0.19675 0.93574 0.27447 0.0
C924 C 0.26143 0.93033 0.30507 0.0
C925 C 0.28454 0.92027 0.28781 0.0
C926 C 0.28838 0.89164 0.28483 0.0
C927 C 0.2691 0.87263 0.29904 0.0
C928 C 0.24601 0.88294 0.31639 0.0
C929 C 0.24227 0.91157 0.31942 0.0
C930 C 0.29613 0.97081 0.34425 0.0
C931 C 0.32459 0.97761 0.33452 0.0
C932 C 0.34709 0.97316 0.35095 0.0
C933 C 0.34155 0.96127 0.37716 0.0
C934 C 0.313 0.95305 0.38612 0.0
C935 C 0.29039 0.95802 0.36985 0.0
C936 C 0.27959 0.02747 0.35775 0.0
C937 C 0.30728 0.04157 0.35624 0.0
C938 C 0.31688 0.06109 0.37945 0.0
C939 C 0.29884 0.0668 0.40444 0.0
C940 C 0.27143 0.05192 0.40612 0.0
C941 C 0.2619 0.03247 0.38295 0.0
C942 C 0.16174 0.03925 0.21497 0.0
C943 C 0.27289 0.84217 0.29578 0.0
H944 H 0.99918 0.95223 0.96801 0.0
H945 H 0.19349 0.77363 0.73611 0.0
H946 H 0.95907 0.81362 0.84546 0.0
H947 H 0.91613 0.83035 0.8711 0.0
H948 H 0.93507 0.90968 0.83573 0.0
H949 H 0.97823 0.89254 0.81005 0.0
H950 H 0.00137 0.84979 0.88552 0.0
H951 H 0.99652 0.88745 0.92573 0.0
H952 H 0.03734 0.94816 0.87077 0.0
H953 H 0.04175 0.91031 0.83065 0.0
H954 H 0.06637 0.84784 0.87873 0.0
H955 H 0.10608 0.8782 0.90182 0.0
H956 H 0.13483 0.90507 0.81823 0.0
H957 H 0.09466 0.87578 0.79577 0.0
H958 H 0.08255 0.79324 0.83113 0.0
H959 H 0.12823 0.77384 0.81817 0.0
H960 H 0.13313 0.80863 0.73619 0.0
H961 H 0.08769 0.82826 0.74961 0.0
H962 H 0.03675 0.75779 0.78805 0.0
H963 H 0.05638 0.72409 0.75013 0.0
H964 H 0.04926 0.7809 0.68643 0.0
H965 H 0.03021 0.81468 0.72468 0.0
H966 H 0.95971 0.78018 0.7917 0.0
H967 H 0.91336 0.778 0.76981 0.0
H968 H 0.9442 0.85065 0.72642 0.0
H969 H 0.99017 0.85306 0.74894 0.0
O970 O 0.00128 0.93767 0.95181 0.0
O971 O 0.0225 0.96801 0.92271 0.0
O972 O 0.17225 0.76426 0.78456 0.0
O973 O 0.17554 0.78129 0.7419 0.0
C974 C 0.00019 0.84322 0.81531 0.0
C975 C 0.02451 0.85452 0.83077 0.0
C976 C 0.05141 0.84498 0.82212 0.0
C977 C 0.05361 0.82307 0.799 0.0
C978 C 0.02922 0.81197 0.78316 0.0
C979 C 0.00282 0.82307 0.79059 0.0
C980 C 0.97171 0.85188 0.826 0.0
C981 C 0.95355 0.83433 0.84268 0.0
C982 C 0.92914 0.84404 0.85746 0.0
C983 C 0.92238 0.8715 0.85575 0.0
C984 C 0.9397 0.88845 0.83751 0.0
C985 C 0.9643 0.87872 0.82282 0.0
C986 C 0.02191 0.87737 0.85524 0.0
C987 C 0.00917 0.87126 0.88223 0.0
C988 C 0.00648 0.8928 0.90515 0.0
C989 C 0.01656 0.92082 0.90148 0.0
C990 C 0.02937 0.92681 0.87434 0.0
C991 C 0.03196 0.90526 0.85142 0.0
C992 C 0.07757 0.85973 0.83561 0.0
C993 C 0.08143 0.86016 0.86546 0.0
C994 C 0.10406 0.87748 0.87858 0.0
C995 C 0.12341 0.89416 0.86187 0.0
C996 C 0.12029 0.89248 0.83172 0.0
C997 C 0.09744 0.87562 0.81878 0.0
C998 C 0.08171 0.81194 0.79122 0.0
C999 C 0.0936 0.79674 0.81045 0.0
C1000 C 0.11965 0.78563 0.80296 0.0
C1001 C 0.13428 0.78958 0.77607 0.0
C1002 C 0.12239 0.8051 0.757 0.0
C1003 C 0.09639 0.81626 0.76456 0.0
C1004 C 0.03209 0.78873 0.75915 0.0
C1005 C 0.03849 0.7625 0.76571 0.0
C1006 C 0.04996 0.74337 0.74405 0.0
C1007 C 0.05494 0.75003 0.71536 0.0
C1008 C 0.04591 0.77518 0.70835 0.0
C1009 C 0.03468 0.79444 0.73012 0.0
C1010 C 0.97841 0.81645 0.77146 0.0
C1011 C 0.95682 0.79482 0.77647 0.0
C1012 C 0.9304 0.79358 0.76386 0.0
C1013 C 0.92537 0.81389 0.74599 0.0
C1014 C 0.94757 0.83467 0.73996 0.0
C1015 C 0.97389 0.83588 0.75253 0.0
C1016 C 0.01369 0.94365 0.92588 0.0
C1017 C 0.16182 0.77759 0.76789 0.0
H1018 H 0.39103 0.95838 0.61252 0.0
H1019 H 0.34404 0.23525 0.8259 0.0
H1020 H 0.26771 0.9857 0.75352 0.0
H1021 H 0.26369 0.93497 0.73887 0.0
H1022 H 0.35252 0.93376 0.75701 0.0
H1023 H 0.35613 0.98465 0.77216 0.0
H1024 H 0.31077 0.00684 0.70154 0.0
H1025 H 0.33723 0.98358 0.65983 0.0
H1026 H 0.41672 0.01207 0.70144 0.0
H1027 H 0.38994 0.03501 0.74314 0.0
H1028 H 0.3222 0.07583 0.70118 0.0
H1029 H 0.34744 0.1115 0.67269 0.0
H1030 H 0.4108 0.131 0.73785 0.0
H1031 H 0.3852 0.09569 0.76616 0.0
H1032 H 0.29766 0.11556 0.74572 0.0
H1033 H 0.30256 0.16705 0.75385 0.0
H1034 H 0.34673 0.16475 0.83235 0.0
H1035 H 0.34199 0.11326 0.82375 0.0
H1036 H 0.25624 0.09299 0.78707 0.0
H1037 H 0.22268 0.11569 0.82256 0.0
H1038 H 0.26306 0.08608 0.89225 0.0
H1039 H 0.2979 0.06499 0.85676 0.0
H1040 H 0.24087 0.02502 0.80113 0.0
H1041 H 0.21327 0.00202 0.83959 0.0
H1042 H 0.29168 0.9808 0.87107 0.0
H1043 H 0.31913 0.00431 0.83262 0.0
O1044 O 0.38099 0.96772 0.62924 0.0
O1045 O 0.42127 0.98297 0.65151 0.0
O1046 O 0.3188 0.2149 0.78173 0.0
O1047 O 0.34171 0.21489 0.82222 0.0
C1048 C 0.31502 0.02007 0.7698 0.0
C1049 C 0.33229 0.03641 0.7507 0.0
C1050 C 0.33381 0.06603 0.75546 0.0
C1051 C 0.31744 0.07945 0.77869 0.0
C1052 C 0.29942 0.06321 0.7972 0.0
C1053 C 0.29893 0.03349 0.79331 0.0
C1054 C 0.3122 0.98886 0.76385 0.0
C1055 C 0.28614 0.97439 0.75485 0.0
C1056 C 0.28395 0.9454 0.74636 0.0
C1057 C 0.30786 0.93033 0.74656 0.0
C1058 C 0.33373 0.94476 0.75653 0.0
C1059 C 0.33585 0.9738 0.76516 0.0
C1060 C 0.34846 0.02254 0.72533 0.0
C1061 C 0.33389 0.00796 0.70161 0.0
C1062 C 0.34906 0.99473 0.67781 0.0
C1063 C 0.3791 0.99596 0.67729 0.0
C1064 C 0.39361 0.01072 0.70113 0.0
C1065 C 0.37839 0.02389 0.72493 0.0
C1066 C 0.35187 0.08341 0.73573 0.0
C1067 C 0.34192 0.08741 0.70885 0.0
C1068 C 0.35627 0.10784 0.69272 0.0
C1069 C 0.3809 0.1243 0.7032 0.0
C1070 C 0.39182 0.11878 0.72921 0.0
C1071 C 0.37732 0.09859 0.74541 0.0
C1072 C 0.31967 0.11072 0.78403 0.0
C1073 C 0.30852 0.12623 0.76457 0.0
C1074 C 0.31127 0.15563 0.76932 0.0
C1075 C 0.32512 0.17003 0.79373 0.0
C1076 C 0.336 0.15435 0.81332 0.0
C1077 C 0.33327 0.12494 0.80851 0.0
C1078 C 0.27961 0.07734 0.81926 0.0
C1079 C 0.25821 0.09183 0.81003 0.0
C1080 C 0.23897 0.10465 0.83027 0.0
C1081 C 0.24021 0.10245 0.86006 0.0
C1082 C 0.26152 0.08785 0.86934 0.0
C1083 C 0.28138 0.0758 0.84914 0.0
C1084 C 0.28197 0.01652 0.81427 0.0
C1085 C 0.25202 0.01521 0.81621 0.0
C1086 C 0.23635 0.00216 0.83829 0.0
C1087 C 0.25033 0.98991 0.85867 0.0
C1088 C 0.28029 0.9902 0.85587 0.0
C1089 C 0.29599 0.00346 0.83384 0.0
C1090 C 0.39515 0.98187 0.65198 0.0
C1091 C 0.32828 0.20128 0.79877 0.0
H1092 H 0.93888 0.11217 0.88882 0.0
H1093 H 0.18791 0.35178 0.89 0.0
H1094 H 0.97215 0.21221 0.78662 0.0
H1095 H 0.92199 0.19318 0.78009 0.0
H1096 H 0.89427 0.27005 0.8259 0.0
H1097 H 0.94406 0.28791 0.83449 0.0
H1098 H 0.0129 0.19178 0.82455 0.0
H1099 H 0.98636 0.15245 0.84668 0.0
H1100 H 0.93661 0.21092 0.90134 0.0
H1101 H 0.96359 0.25006 0.87925 0.0
H1102 H 0.06777 0.21365 0.83028 0.0
H1103 H 0.09505 0.19286 0.86383 0.0
H1104 H 0.0612 0.24793 0.93586 0.0
H1105 H 0.03414 0.26846 0.90207 0.0
H1106 H 0.09813 0.25953 0.81127 0.0
H1107 H 0.14701 0.27656 0.82483 0.0
H1108 H 0.11425 0.34292 0.88532 0.0
H1109 H 0.06545 0.32547 0.87171 0.0
H1110 H 0.08024 0.3007 0.77513 0.0
H1111 H 0.10731 0.34418 0.76207 0.0
H1112 H 0.04866 0.39291 0.81738 0.0
H1113 H 0.02233 0.3493 0.83102 0.0
H1114 H 0.01046 0.27411 0.74756 0.0
H1115 H 0.98646 0.29511 0.71152 0.0
H1116 H 0.94668 0.34852 0.78103 0.0
H1117 H 0.97157 0.32811 0.81675 0.0
O1118 O 0.94931 0.12805 0.88056 0.0
O1119 O 0.92357 0.15889 0.90728 0.0
O1120 O 0.18449 0.30985 0.85315 0.0
O1121 O 0.16879 0.34452 0.88435 0.0
C1122 C 0.99188 0.26182 0.81777 0.0
C1123 C 0.00595 0.24754 0.83661 0.0
C1124 C 0.03453 0.25675 0.84335 0.0
C1125 C 0.04875 0.28086 0.83225 0.0
C1126 C 0.03452 0.29563 0.81405 0.0
C1127 C 0.00628 0.28578 0.80633 0.0
C1128 C 0.96184 0.25173 0.81054 0.0
C1129 C 0.95523 0.22503 0.79499 0.0
C1130 C 0.92668 0.21422 0.79123 0.0
C1131 C 0.90442 0.23037 0.80213 0.0
C1132 C 0.91111 0.25746 0.81673 0.0
C1133 C 0.93955 0.26779 0.82143 0.0
C1134 C 0.99025 0.22373 0.85042 0.0
C1135 C 0.99645 0.19604 0.84149 0.0
C1136 C 0.98117 0.17363 0.85409 0.0
C1137 C 0.95935 0.17854 0.87577 0.0
C1138 C 0.95327 0.20639 0.88469 0.0
C1139 C 0.96863 0.22878 0.87214 0.0
C1140 C 0.04906 0.24251 0.86384 0.0
C1141 C 0.06606 0.22091 0.85337 0.0
C1142 C 0.08161 0.20911 0.87256 0.0
C1143 C 0.0804 0.21882 0.90251 0.0
C1144 C 0.06266 0.23998 0.91293 0.0
C1145 C 0.04715 0.25174 0.89373 0.0
C1146 C 0.07833 0.29122 0.84061 0.0
C1147 C 0.10158 0.27764 0.82756 0.0
C1148 C 0.12946 0.28746 0.83528 0.0
C1149 C 0.13454 0.31111 0.85618 0.0
C1150 C 0.1111 0.32466 0.86918 0.0
C1151 C 0.08323 0.31477 0.86145 0.0
C1152 C 0.04918 0.32184 0.80382 0.0
C1153 C 0.07319 0.32078 0.78428 0.0
C1154 C 0.08868 0.34564 0.77698 0.0
C1155 C 0.08019 0.37201 0.78881 0.0
C1156 C 0.05572 0.37295 0.80786 0.0
C1157 C 0.0405 0.34807 0.81548 0.0
C1158 C 0.99247 0.29937 0.78473 0.0
C1159 C 0.99669 0.29047 0.75492 0.0
C1160 C 0.98296 0.30245 0.73442 0.0
C1161 C 0.96446 0.32325 0.7435 0.0
C1162 C 0.96053 0.3323 0.77341 0.0
C1163 C 0.97471 0.32069 0.79382 0.0
C1164 C 0.94295 0.15466 0.8889 0.0
C1165 C 0.16414 0.32169 0.86439 0.0
H1166 H 0.60641 0.02226 0.63018 0.0
H1167 H 0.72258 0.81108 0.79348 0.0
H1168 H 0.72588 0.04476 0.71694 0.0
H1169 H 0.71446 0.09097 0.70737 0.0
H1170 H 0.68492 0.10903 0.79722 0.0
H1171 H 0.69427 0.06169 0.80622 0.0
H1172 H 0.70271 0.99424 0.6906 0.0
H1173 H 0.66732 0.00403 0.65791 0.0
H1174 H 0.60996 0.02516 0.73229 0.0
H1175 H 0.64543 0.01488 0.76474 0.0
H1176 H 0.73656 0.9445 0.70964 0.0
H1177 H 0.72201 0.92213 0.66211 0.0
H1178 H 0.63316 0.9232 0.69141 0.0
H1179 H 0.64792 0.94575 0.73967 0.0
H1180 H 0.77127 0.93878 0.75857 0.0
H1181 H 0.77952 0.89012 0.76228 0.0
H1182 H 0.69122 0.87264 0.79266 0.0
H1183 H 0.6833 0.92144 0.78906 0.0
H1184 H 0.7952 0.99884 0.79013 0.0
H1185 H 0.82813 0.98451 0.8229 0.0
H1186 H 0.75673 0.94143 0.86836 0.0
H1187 H 0.72372 0.95725 0.83667 0.0
H1188 H 0.77586 0.04721 0.76053 0.0
H1189 H 0.80427 0.08897 0.78304 0.0
H1190 H 0.76203 0.07595 0.86672 0.0
H1191 H 0.73353 0.03416 0.8438 0.0
O1192 O 0.62006 0.01841 0.64351 0.0
O1193 O 0.59142 0.02918 0.68248 0.0
O1194 O 0.76413 0.83956 0.77281 0.0
O1195 O 0.71986 0.83038 0.79159 0.0
C1196 C 0.7137 0.01986 0.76654 0.0
C1197 C 0.69784 0.99739 0.75 0.0
C1198 C 0.70291 0.96926 0.75176 0.0
C1199 C 0.72186 0.96345 0.77211 0.0
C1200 C 0.73698 0.98586 0.7897 0.0
C1201 C 0.73375 0.0141 0.78591 0.0
C1202 C 0.71023 0.04947 0.7621 0.0
C1203 C 0.71664 0.05851 0.73453 0.0
C1204 C 0.71026 0.08493 0.72911 0.0
C1205 C 0.69859 0.10336 0.7515 0.0
C1206 C 0.69389 0.09512 0.7796 0.0
C1207 C 0.69928 0.06818 0.78477 0.0
C1208 C 0.67647 0.00352 0.73002 0.0
C1209 C 0.68239 0.00076 0.69977 0.0
C1210 C 0.66219 0.00649 0.68116 0.0
C1211 C 0.63577 0.01532 0.69248 0.0
C1212 C 0.63006 0.01832 0.72285 0.0
C1213 C 0.65026 0.01248 0.74143 0.0
C1214 C 0.69334 0.9471 0.72802 0.0
C1215 C 0.71395 0.93869 0.70646 0.0
C1216 C 0.70562 0.9261 0.67922 0.0
C1217 C 0.67653 0.92145 0.67317 0.0
C1218 C 0.65571 0.92656 0.69574 0.0
C1219 C 0.66412 0.9394 0.72321 0.0
C1220 C 0.72677 0.93373 0.77385 0.0
C1221 C 0.75377 0.92445 0.76616 0.0
C1222 C 0.7584 0.89662 0.76821 0.0
C1223 C 0.73605 0.87752 0.77792 0.0
C1224 C 0.70892 0.88683 0.78524 0.0
C1225 C 0.70432 0.91466 0.78315 0.0
C1226 C 0.75692 0.97938 0.8111 0.0
C1227 C 0.78654 0.98704 0.80768 0.0
C1228 C 0.80536 0.97863 0.82627 0.0
C1229 C 0.79498 0.9617 0.84805 0.0
C1230 C 0.76534 0.9543 0.85163 0.0
C1231 C 0.74648 0.96338 0.8336 0.0
C1232 C 0.75254 0.03781 0.80053 0.0
C1233 C 0.77293 0.0533 0.78377 0.0
C1234 C 0.78914 0.07713 0.79668 0.0
C1235 C 0.78527 0.08591 0.82664 0.0
C1236 C 0.76546 0.06979 0.84357 0.0
C1237 C 0.74921 0.04589 0.83058 0.0
C1238 C 0.61435 0.02141 0.67263 0.0
C1239 C 0.74096 0.84804 0.78053 0.0
H1240 H 0.1063 0.63959 0.47276 0.0
H1241 H 0.3812 0.7517 0.35508 0.0
H1242 H 0.20509 0.7406 0.55665 0.0
H1243 H 0.17067 0.72635 0.59512 0.0
H1244 H 0.23098 0.67445 0.62211 0.0
H1245 H 0.26536 0.68896 0.5833 0.0
H1246 H 0.20334 0.72628 0.48841 0.0
H1247 H 0.15901 0.69587 0.47824 0.0
H1248 H 0.19249 0.62901 0.5154 0.0
H1249 H 0.23688 0.65955 0.52511 0.0
H1250 H 0.2457 0.75031 0.45172 0.0
H1251 H 0.25871 0.74558 0.39967 0.0
H1252 H 0.29216 0.66688 0.40655 0.0
H1253 H 0.27974 0.67221 0.45883 0.0
H1254 H 0.29599 0.78807 0.47129 0.0
H1255 H 0.32158 0.79981 0.426 0.0
H1256 H 0.3594 0.72114 0.41755 0.0
H1257 H 0.33378 0.70977 0.46293 0.0
H1258 H 0.30157 0.80494 0.54145 0.0
H1259 H 0.34048 0.84145 0.53289 0.0
H1260 H 0.39701 0.77732 0.50457 0.0
H1261 H 0.35809 0.74095 0.51419 0.0
H1262 H 0.25543 0.77685 0.58679 0.0
H1263 H 0.27229 0.80089 0.63316 0.0
H1264 H 0.34745 0.75574 0.62127 0.0
H1265 H 0.32998 0.73129 0.57526 0.0
O1266 O 0.124 0.65125 0.47702 0.0
O1267 O 0.14214 0.61755 0.49639 0.0
O1268 O 0.35112 0.78799 0.37878 0.0
O1269 O 0.37265 0.74869 0.37415 0.0
C1270 C 0.25765 0.7233 0.54242 0.0
C1271 C 0.25022 0.7136 0.51337 0.0
C1272 C 0.26851 0.72165 0.48988 0.0
C1273 C 0.29421 0.73916 0.49521 0.0
C1274 C 0.30161 0.74906 0.52393 0.0
C1275 C 0.28349 0.74099 0.54767 0.0
C1276 C 0.23768 0.71576 0.56711 0.0
C1277 C 0.2109 0.72625 0.57096 0.0
C1278 C 0.19126 0.71805 0.593 0.0
C1279 C 0.19796 0.6991 0.61169 0.0
C1280 C 0.22507 0.68898 0.60807 0.0
C1281 C 0.24479 0.69731 0.586 0.0
C1282 C 0.22333 0.69508 0.50741 0.0
C1283 C 0.20111 0.70501 0.49419 0.0
C1284 C 0.17578 0.68762 0.4885 0.0
C1285 C 0.1722 0.66 0.496 0.0
C1286 C 0.19454 0.65017 0.50934 0.0
C1287 C 0.2199 0.66757 0.51495 0.0
C1288 C 0.26206 0.71174 0.4591 0.0
C1289 C 0.25419 0.73118 0.44166 0.0
C1290 C 0.26182 0.72853 0.41184 0.0
C1291 C 0.27692 0.70612 0.39913 0.0
C1292 C 0.28095 0.68462 0.41592 0.0
C1293 C 0.27338 0.68733 0.44572 0.0
C1294 C 0.31289 0.74799 0.47014 0.0
C1295 C 0.31021 0.77367 0.45986 0.0
C1296 C 0.32471 0.78022 0.43392 0.0
C1297 C 0.34221 0.7612 0.41796 0.0
C1298 C 0.34595 0.73614 0.42919 0.0
C1299 C 0.33141 0.72962 0.45512 0.0
C1300 C 0.32693 0.77031 0.52817 0.0
C1301 C 0.32269 0.79883 0.53469 0.0
C1302 C 0.34494 0.81966 0.5295 0.0
C1303 C 0.37161 0.81222 0.5173 0.0
C1304 C 0.37658 0.7837 0.51356 0.0
C1305 C 0.35444 0.7629 0.51925 0.0
C1306 C 0.29142 0.75226 0.5777 0.0
C1307 C 0.27511 0.77158 0.59461 0.0
C1308 C 0.28492 0.78544 0.62101 0.0
C1309 C 0.3114 0.78046 0.63075 0.0
C1310 C 0.32709 0.76021 0.61429 0.0
C1311 C 0.31711 0.74615 0.58806 0.0
C1312 C 0.14527 0.64158 0.48987 0.0
C1313 C 0.35569 0.76695 0.38922 0.0
H1314 H 0.88332 0.67363 0.63438 0.0
H1315 H 0.85231 0.72947 0.32601 0.0
H1316 H 0.78955 0.76337 0.59231 0.0
H1317 H 0.79587 0.77944 0.64404 0.0
H1318 H 0.84447 0.85585 0.62099 0.0
H1319 H 0.83885 0.8392 0.56944 0.0
H1320 H 0.81237 0.71355 0.55242 0.0
H1321 H 0.83633 0.68983 0.58614 0.0
H1322 H 0.90063 0.7614 0.59724 0.0
H1323 H 0.87663 0.78474 0.5632 0.0
H1324 H 0.80202 0.70374 0.48879 0.0
H1325 H 0.82381 0.6618 0.46683 0.0
H1326 H 0.9078 0.70819 0.47439 0.0
H1327 H 0.8856 0.74997 0.4966 0.0
H1328 H 0.77482 0.74174 0.45204 0.0
H1329 H 0.77822 0.72535 0.39983 0.0
H1330 H 0.86686 0.7607 0.39575 0.0
H1331 H 0.86302 0.7772 0.44795 0.0
H1332 H 0.75086 0.78708 0.47081 0.0
H1333 H 0.73111 0.82066 0.44384 0.0
H1334 H 0.81035 0.8752 0.45124 0.0
H1335 H 0.83032 0.841 0.47691 0.0
H1336 H 0.74456 0.79248 0.54391 0.0
H1337 H 0.70934 0.82642 0.55553 0.0
H1338 H 0.77562 0.89433 0.54298 0.0
H1339 H 0.81072 0.86006 0.53159 0.0
O1340 O 0.87424 0.68338 0.62107 0.0
O1341 O 0.90626 0.72106 0.62673 0.0
O1342 O 0.80439 0.7191 0.34968 0.0
O1343 O 0.8503 0.73603 0.3466 0.0
C1344 C 0.81348 0.78893 0.54575 0.0
C1345 C 0.82806 0.76528 0.5351 0.0
C1346 C 0.82873 0.7555 0.50505 0.0
C1347 C 0.81654 0.77028 0.48535 0.0
C1348 C 0.80254 0.79414 0.49593 0.0
C1349 C 0.79991 0.80267 0.52619 0.0
C1350 C 0.81375 0.80011 0.57711 0.0
C1351 C 0.80135 0.78367 0.5985 0.0
C1352 C 0.80505 0.79285 0.628 0.0
C1353 C 0.82085 0.81883 0.63657 0.0
C1354 C 0.83219 0.83575 0.6151 0.0
C1355 C 0.82881 0.82637 0.58564 0.0
C1356 C 0.84282 0.7508 0.55534 0.0
C1357 C 0.83174 0.72397 0.56202 0.0
C1358 C 0.84542 0.71052 0.58135 0.0
C1359 C 0.87039 0.72372 0.59441 0.0
C1360 C 0.88143 0.75064 0.58759 0.0
C1361 C 0.86777 0.76403 0.56818 0.0
C1362 C 0.8423 0.72976 0.494 0.0
C1363 C 0.82513 0.70463 0.486 0.0
C1364 C 0.83765 0.68071 0.47362 0.0
C1365 C 0.86755 0.6817 0.46878 0.0
C1366 C 0.88472 0.70676 0.47781 0.0
C1367 C 0.87215 0.73062 0.49042 0.0
C1368 C 0.8186 0.76082 0.45363 0.0
C1369 C 0.79486 0.74612 0.43975 0.0
C1370 C 0.79691 0.7367 0.40997 0.0
C1371 C 0.82282 0.74174 0.39359 0.0
C1372 C 0.84658 0.75648 0.40769 0.0
C1373 C 0.84447 0.76595 0.43747 0.0
C1374 C 0.79204 0.8116 0.47558 0.0
C1375 C 0.76422 0.80582 0.46569 0.0
C1376 C 0.75298 0.82504 0.45046 0.0
C1377 C 0.76919 0.85056 0.4457 0.0
C1378 C 0.79739 0.85574 0.45476 0.0
C1379 C 0.80885 0.83621 0.46924 0.0
C1380 C 0.78013 0.82389 0.53717 0.0
C1381 C 0.7515 0.81474 0.54419 0.0
C1382 C 0.7314 0.83414 0.55051 0.0
C1383 C 0.73964 0.86304 0.54983 0.0
C1384 C 0.76857 0.87219 0.54347 0.0
C1385 C 0.78868 0.85272 0.5372 0.0
C1386 C 0.88478 0.70941 0.61505 0.0
C1387 C 0.82516 0.73159 0.36199 0.0
H1388 H 0.60334 0.15426 0.58473 0.0
H1389 H 0.84138 0.23997 0.36164 0.0
H1390 H 0.72363 0.27258 0.60336 0.0
H1391 H 0.69616 0.2627 0.6479 0.0
H1392 H 0.75233 0.20032 0.65989 0.0
H1393 H 0.78004 0.21078 0.61501 0.0
H1394 H 0.69417 0.23812 0.54893 0.0
H1395 H 0.65068 0.20826 0.56154 0.0
H1396 H 0.70268 0.14712 0.58567 0.0
H1397 H 0.74597 0.17711 0.57272 0.0
H1398 H 0.72673 0.25477 0.48781 0.0
H1399 H 0.69939 0.23119 0.44698 0.0
H1400 H 0.72079 0.15072 0.46626 0.0
H1401 H 0.7492 0.17471 0.50642 0.0
H1402 H 0.77573 0.29276 0.48526 0.0
H1403 H 0.79224 0.29697 0.43467 0.0
H1404 H 0.82524 0.21601 0.42871 0.0
H1405 H 0.80891 0.21226 0.47945 0.0
H1406 H 0.79104 0.32163 0.54436 0.0
H1407 H 0.8206 0.35712 0.51904 0.0
H1408 H 0.88163 0.29701 0.49159 0.0
H1409 H 0.85164 0.26162 0.51655 0.0
H1410 H 0.77441 0.30379 0.61145 0.0
H1411 H 0.80435 0.33035 0.64875 0.0
H1412 H 0.8752 0.28365 0.61524 0.0
H1413 H 0.84464 0.25643 0.5786 0.0
O1414 O 0.62079 0.16564 0.57968 0.0
O1415 O 0.6485 0.1349 0.59181 0.0
O1416 O 0.81602 0.27973 0.38539 0.0
O1417 O 0.83449 0.2388 0.38164 0.0
C1418 C 0.76523 0.24385 0.57566 0.0
C1419 C 0.74944 0.22826 0.55291 0.0
C1420 C 0.75786 0.23127 0.52362 0.0
C1421 C 0.78199 0.24995 0.517 0.0
C1422 C 0.79733 0.26612 0.53969 0.0
C1423 C 0.78953 0.26249 0.56906 0.0
C1424 C 0.75386 0.2425 0.60609 0.0
C1425 C 0.73059 0.25747 0.61614 0.0
C1426 C 0.71476 0.25156 0.64149 0.0
C1427 C 0.72175 0.23035 0.65724 0.0
C1428 C 0.74635 0.21671 0.64822 0.0
C1429 C 0.76231 0.22275 0.62273 0.0
C1430 C 0.72314 0.20974 0.55993 0.0
C1431 C 0.69607 0.2182 0.5568 0.0
C1432 C 0.6713 0.20113 0.56409 0.0
C1433 C 0.6732 0.17531 0.57466 0.0
C1434 C 0.70045 0.16688 0.57763 0.0
C1435 C 0.7252 0.18396 0.57028 0.0
C1436 C 0.74022 0.21647 0.49981 0.0
C1437 C 0.72572 0.23207 0.48304 0.0
C1438 C 0.71007 0.21857 0.45981 0.0
C1439 C 0.70806 0.18914 0.45339 0.0
C1440 C 0.72191 0.17344 0.47077 0.0
C1441 C 0.7381 0.18705 0.49368 0.0
C1442 C 0.79139 0.25234 0.48607 0.0
C1443 C 0.78668 0.27606 0.47304 0.0
C1444 C 0.79604 0.27835 0.44411 0.0
C1445 C 0.81015 0.25685 0.42766 0.0
C1446 C 0.81453 0.23298 0.44076 0.0
C1447 C 0.8052 0.23075 0.46971 0.0
C1448 C 0.81922 0.28909 0.53221 0.0
C1449 C 0.81131 0.3165 0.53373 0.0
C1450 C 0.82806 0.33663 0.51899 0.0
C1451 C 0.85316 0.3297 0.50286 0.0
C1452 C 0.86232 0.30297 0.50366 0.0
C1453 C 0.84537 0.28275 0.5181 0.0
C1454 C 0.8072 0.27792 0.59253 0.0
C1455 C 0.79615 0.29881 0.6126 0.0
C1456 C 0.81338 0.31405 0.63383 0.0
C1457 C 0.84217 0.30906 0.635 0.0
C1458 C 0.85313 0.28799 0.61494 0.0
C1459 C 0.83573 0.27246 0.59399 0.0
C1460 C 0.64684 0.15733 0.58258 0.0
C1461 C 0.82032 0.25924 0.39698 0.0
H1462 H 0.14792 0.46487 0.58302 0.0
H1463 H 0.22701 0.21638 0.34474 0.0
H1464 H 0.278 0.37281 0.57148 0.0
H1465 H 0.26209 0.41081 0.60666 0.0
H1466 H 0.18514 0.35754 0.62719 0.0
H1467 H 0.2012 0.31981 0.59182 0.0
H1468 H 0.23857 0.39523 0.53712 0.0
H1469 H 0.20668 0.43108 0.5552 0.0
H1470 H 0.13536 0.3662 0.55715 0.0
H1471 H 0.16762 0.33052 0.53924 0.0
H1472 H 0.2378 0.37806 0.48088 0.0
H1473 H 0.21121 0.39925 0.44737 0.0
H1474 H 0.15555 0.32168 0.4324 0.0
H1475 H 0.18141 0.30104 0.46744 0.0
H1476 H 0.2665 0.32667 0.44147 0.0
H1477 H 0.26517 0.30477 0.39086 0.0
H1478 H 0.22052 0.22893 0.41987 0.0
H1479 H 0.2217 0.2512 0.47032 0.0
H1480 H 0.3059 0.29413 0.47139 0.0
H1481 H 0.33191 0.25395 0.45235 0.0
H1482 H 0.28169 0.20321 0.51175 0.0
H1483 H 0.25497 0.24327 0.52987 0.0
H1484 H 0.31811 0.31404 0.53799 0.0
H1485 H 0.34966 0.29568 0.56921 0.0
H1486 H 0.27585 0.26496 0.62108 0.0
H1487 H 0.2444 0.28289 0.58927 0.0
O1488 O 0.16001 0.45041 0.57523 0.0
O1489 O 0.12374 0.41651 0.57427 0.0
O1490 O 0.25188 0.26461 0.35074 0.0
O1491 O 0.22833 0.22541 0.36458 0.0
C1492 C 0.24167 0.32919 0.54869 0.0
C1493 C 0.2251 0.33832 0.52797 0.0
C1494 C 0.22678 0.32638 0.49865 0.0
C1495 C 0.24392 0.30423 0.49014 0.0
C1496 C 0.26047 0.29496 0.51085 0.0
C1497 C 0.2599 0.30796 0.5401 0.0
C1498 C 0.24047 0.34383 0.57874 0.0
C1499 C 0.2586 0.36874 0.5849 0.0
C1500 C 0.24922 0.39061 0.60469 0.0
C1501 C 0.22184 0.38745 0.61872 0.0
C1502 C 0.20611 0.36074 0.61629 0.0
C1503 C 0.21544 0.33896 0.59635 0.0
C1504 C 0.20541 0.3603 0.53717 0.0
C1505 C 0.21604 0.38883 0.54141 0.0
C1506 C 0.19777 0.40925 0.55173 0.0
C1507 C 0.16849 0.40149 0.5578 0.0
C1508 C 0.15781 0.37288 0.5528 0.0
C1509 C 0.17614 0.35248 0.54251 0.0
C1510 C 0.21132 0.33815 0.47685 0.0
C1511 C 0.21962 0.36575 0.47068 0.0
C1512 C 0.20444 0.37781 0.45156 0.0
C1513 C 0.18118 0.36217 0.43758 0.0
C1514 C 0.17335 0.3342 0.44305 0.0
C1515 C 0.18813 0.32237 0.46288 0.0
C1516 C 0.24415 0.29053 0.45953 0.0
C1517 C 0.25645 0.30533 0.43682 0.0
C1518 C 0.25569 0.29276 0.40795 0.0
C1519 C 0.24267 0.26511 0.40131 0.0
C1520 C 0.23067 0.25026 0.4242 0.0
C1521 C 0.23138 0.26288 0.45305 0.0
C1522 C 0.2783 0.2715 0.50172 0.0
C1523 C 0.30055 0.27435 0.4803 0.0
C1524 C 0.3154 0.25142 0.46952 0.0
C1525 C 0.30866 0.22541 0.48044 0.0
C1526 C 0.28737 0.22302 0.50297 0.0
C1527 C 0.27212 0.24585 0.51335 0.0
C1528 C 0.27893 0.2997 0.56124 0.0
C1529 C 0.30877 0.30355 0.55625 0.0
C1530 C 0.32676 0.29303 0.57411 0.0
C1531 C 0.31526 0.27869 0.59753 0.0
C1532 C 0.2854 0.27591 0.60323 0.0
C1533 C 0.26738 0.28624 0.58517 0.0
C1534 C 0.1493 0.42316 0.56954 0.0
C1535 C 0.24134 0.2518 0.37065 0.0
H1536 H 0.94564 0.51207 0.63815 0.0
H1537 H 0.81896 0.74561 0.86488 0.0
H1538 H 0.79396 0.50074 0.74835 0.0
H1539 H 0.80072 0.45241 0.72849 0.0
H1540 H 0.88357 0.46151 0.76594 0.0
H1541 H 0.87624 0.50988 0.78633 0.0
H1542 H 0.84238 0.53358 0.71112 0.0
H1543 H 0.88004 0.52096 0.67444 0.0
H1544 H 0.94423 0.55836 0.73447 0.0
H1545 H 0.90632 0.57061 0.77107 0.0
H1546 H 0.84036 0.59732 0.71826 0.0
H1547 H 0.85824 0.63958 0.69586 0.0
H1548 H 0.90162 0.67325 0.77422 0.0
H1549 H 0.88402 0.63056 0.79618 0.0
H1550 H 0.80246 0.63352 0.7644 0.0
H1551 H 0.79818 0.68351 0.77959 0.0
H1552 H 0.82928 0.67543 0.8636 0.0
H1553 H 0.83375 0.62553 0.84801 0.0
H1554 H 0.75903 0.60019 0.79421 0.0
H1555 H 0.7172 0.6121 0.82554 0.0
H1556 H 0.75015 0.57587 0.89551 0.0
H1557 H 0.7929 0.56551 0.86457 0.0
H1558 H 0.75167 0.53208 0.79192 0.0
H1559 H 0.71873 0.49953 0.81765 0.0
H1560 H 0.78966 0.47583 0.86051 0.0
H1561 H 0.82245 0.50931 0.83534 0.0
O1562 O 0.93109 0.51727 0.65297 0.0
O1563 O 0.96323 0.53692 0.68459 0.0
O1564 O 0.80192 0.72837 0.81583 0.0
O1565 O 0.82019 0.72585 0.85838 0.0
C1566 C 0.83101 0.53876 0.77886 0.0
C1567 C 0.84875 0.56018 0.76618 0.0
C1568 C 0.84437 0.58868 0.77438 0.0
C1569 C 0.82245 0.59589 0.79545 0.0
C1570 C 0.80419 0.57452 0.80754 0.0
C1571 C 0.80861 0.54588 0.79939 0.0
C1572 C 0.83455 0.50876 0.76884 0.0
C1573 C 0.81334 0.49213 0.75269 0.0
C1574 C 0.81734 0.46456 0.74125 0.0
C1575 C 0.84277 0.45317 0.74552 0.0
C1576 C 0.8638 0.46971 0.76221 0.0
C1577 C 0.85966 0.49729 0.77387 0.0
C1578 C 0.87164 0.55284 0.74379 0.0
C1579 C 0.86459 0.53891 0.71633 0.0
C1580 C 0.88615 0.53179 0.69541 0.0
C1581 C 0.91516 0.5386 0.70154 0.0
C1582 C 0.92211 0.55277 0.72905 0.0
C1583 C 0.90052 0.55983 0.74997 0.0
C1584 C 0.86067 0.61105 0.75892 0.0
C1585 C 0.85454 0.61342 0.73018 0.0
C1586 C 0.86465 0.63766 0.71749 0.0
C1587 C 0.88086 0.66 0.7335 0.0
C1588 C 0.8889 0.65654 0.76144 0.0
C1589 C 0.87896 0.63217 0.77401 0.0
C1590 C 0.81864 0.62598 0.80503 0.0
C1591 C 0.80839 0.64261 0.78604 0.0
C1592 C 0.80591 0.67113 0.79481 0.0
C1593 C 0.81354 0.6835 0.82278 0.0
C1594 C 0.82336 0.66661 0.84188 0.0
C1595 C 0.82585 0.6381 0.83307 0.0
C1596 C 0.77919 0.58218 0.82714 0.0
C1597 C 0.75753 0.59532 0.81649 0.0
C1598 C 0.73357 0.60195 0.83431 0.0
C1599 C 0.73042 0.59478 0.86285 0.0
C1600 C 0.75198 0.58143 0.87348 0.0
C1601 C 0.77638 0.57555 0.85589 0.0
C1602 C 0.78937 0.5234 0.81212 0.0
C1603 C 0.76012 0.51978 0.80678 0.0
C1604 C 0.74135 0.5012 0.8215 0.0
C1605 C 0.7516 0.48537 0.84135 0.0
C1606 C 0.78117 0.48778 0.84539 0.0
C1607 C 0.7999 0.50682 0.83101 0.0
C1608 C 0.93801 0.53094 0.67928 0.0
C1609 C 0.81146 0.71391 0.83202 0.0
H1610 H 0.3887 0.53646 0.9447 0.0
H1611 H 0.23976 0.75089 0.81718 0.0
H1612 H 0.30915 0.51604 0.82061 0.0
H1613 H 0.31821 0.47019 0.83337 0.0
H1614 H 0.22846 0.45197 0.85688 0.0
H1615 H 0.21974 0.4991 0.84641 0.0
H1616 H 0.33466 0.56916 0.84582 0.0
H1617 H 0.36478 0.5583 0.88308 0.0
H1618 H 0.28887 0.5325 0.93488 0.0
H1619 H 0.25896 0.54378 0.89758 0.0
H1620 H 0.32187 0.61585 0.81312 0.0
H1621 H 0.35317 0.65746 0.83121 0.0
H1622 H 0.30595 0.66023 0.91465 0.0
H1623 H 0.27467 0.6184 0.89614 0.0
H1624 H 0.27454 0.62123 0.7718 0.0
H1625 H 0.27279 0.66992 0.76252 0.0
H1626 H 0.23381 0.68902 0.84887 0.0
H1627 H 0.23539 0.64018 0.85772 0.0
H1628 H 0.24145 0.56427 0.74605 0.0
H1629 H 0.21406 0.58339 0.71138 0.0
H1630 H 0.16566 0.62547 0.78296 0.0
H1631 H 0.19179 0.60479 0.81748 0.0
H1632 H 0.26642 0.51528 0.76577 0.0
H1633 H 0.24339 0.48452 0.72602 0.0
H1634 H 0.16038 0.49668 0.7681 0.0
H1635 H 0.18365 0.52837 0.80775 0.0
O1636 O 0.37636 0.54099 0.93043 0.0
O1637 O 0.33667 0.52839 0.95644 0.0
O1638 O 0.26106 0.72067 0.77619 0.0
O1639 O 0.24077 0.73153 0.82029 0.0
C1640 C 0.25973 0.54106 0.82993 0.0
C1641 C 0.2762 0.56343 0.84621 0.0
C1642 C 0.27518 0.59139 0.84059 0.0
C1643 C 0.25584 0.59751 0.82086 0.0
C1644 C 0.23822 0.57551 0.80561 0.0
C1645 C 0.24081 0.54716 0.80952 0.0
C1646 C 0.2639 0.51135 0.83325 0.0
C1647 C 0.29141 0.50234 0.82874 0.0
C1648 C 0.29657 0.47614 0.8359 0.0
C1649 C 0.27406 0.45783 0.84634 0.0
C1650 C 0.24613 0.46586 0.84891 0.0
C1651 C 0.24113 0.49265 0.8428 0.0
C1652 C 0.29461 0.55755 0.86914 0.0
C1653 C 0.32457 0.56153 0.8654 0.0
C1654 C 0.34173 0.55512 0.88664 0.0
C1655 C 0.32923 0.54455 0.91198 0.0
C1656 C 0.29918 0.54064 0.91565 0.0
C1657 C 0.28205 0.54709 0.8944 0.0
C1658 C 0.29599 0.61432 0.85331 0.0
C1659 C 0.31861 0.62524 0.83545 0.0
C1660 C 0.33644 0.649 0.84583 0.0
C1661 C 0.33188 0.6623 0.87429 0.0
C1662 C 0.30994 0.65051 0.89259 0.0
C1663 C 0.2921 0.62663 0.88215 0.0
C1664 C 0.25496 0.62718 0.81536 0.0
C1665 C 0.26552 0.63595 0.78862 0.0
C1666 C 0.26456 0.66378 0.78341 0.0
C1667 C 0.25311 0.68337 0.80496 0.0
C1668 C 0.24272 0.67449 0.83181 0.0
C1669 C 0.24365 0.64664 0.83695 0.0
C1670 C 0.21847 0.58279 0.7844 0.0
C1671 C 0.22416 0.57662 0.75426 0.0
C1672 C 0.20872 0.58786 0.73447 0.0
C1673 C 0.18799 0.60619 0.74452 0.0
C1674 C 0.18171 0.61162 0.77462 0.0
C1675 C 0.19648 0.59967 0.79434 0.0
C1676 C 0.22668 0.52413 0.78947 0.0
C1677 C 0.24332 0.5107 0.76689 0.0
C1678 C 0.23017 0.49324 0.74423 0.0
C1679 C 0.20021 0.48841 0.74416 0.0
C1680 C 0.18354 0.49997 0.76795 0.0
C1681 C 0.19675 0.51805 0.79043 0.0
C1682 C 0.34753 0.53748 0.93435 0.0
C1683 C 0.25195 0.71294 0.79951 0.0
H1684 H 0.17486 0.576 0.37151 0.0
H1685 H 0.30903 0.30808 0.2407 0.0
H1686 H 0.27447 0.56489 0.24842 0.0
H1687 H 0.28476 0.6157 0.26273 0.0
H1688 H 0.36608 0.60164 0.29375 0.0
H1689 H 0.35537 0.55115 0.27984 0.0
H1690 H 0.23082 0.51159 0.27258 0.0
H1691 H 0.20009 0.53621 0.30963 0.0
H1692 H 0.27343 0.56348 0.36163 0.0
H1693 H 0.30385 0.53846 0.32457 0.0
H1694 H 0.23658 0.44433 0.25469 0.0
H1695 H 0.19834 0.42717 0.28863 0.0
H1696 H 0.24956 0.46229 0.36114 0.0
H1697 H 0.28826 0.4779 0.32713 0.0
H1698 H 0.27977 0.4296 0.20044 0.0
H1699 H 0.27831 0.37831 0.19113 0.0
H1700 H 0.31777 0.37747 0.27268 0.0
H1701 H 0.31927 0.42886 0.28163 0.0
H1702 H 0.31465 0.47282 0.16998 0.0
H1703 H 0.34707 0.45239 0.1316 0.0
H1704 H 0.4023 0.43578 0.19704 0.0
H1705 H 0.36936 0.45584 0.23529 0.0
H1706 H 0.30985 0.54216 0.19336 0.0
H1707 H 0.34104 0.57972 0.17299 0.0
H1708 H 0.41361 0.55306 0.21076 0.0
H1709 H 0.3821 0.51595 0.23144 0.0
O1710 O 0.18738 0.56633 0.35719 0.0
O1711 O 0.22581 0.57996 0.383 0.0
O1712 O 0.28713 0.32992 0.20342 0.0
O1713 O 0.30904 0.32833 0.24417 0.0
C1714 C 0.30791 0.52359 0.25579 0.0
C1715 C 0.28799 0.50816 0.27324 0.0
C1716 C 0.28529 0.47835 0.26888 0.0
C1717 C 0.30195 0.46414 0.24635 0.0
C1718 C 0.32117 0.47986 0.22824 0.0
C1719 C 0.32383 0.50951 0.23274 0.0
C1720 C 0.31415 0.55445 0.26323 0.0
C1721 C 0.2945 0.57292 0.25822 0.0
C1722 C 0.3005 0.60188 0.26625 0.0
C1723 C 0.32625 0.61266 0.27936 0.0
C1724 C 0.3461 0.59404 0.28366 0.0
C1725 C 0.34003 0.5652 0.27576 0.0
C1726 C 0.26955 0.52335 0.29584 0.0
C1727 C 0.24018 0.52287 0.29201 0.0
C1728 C 0.22269 0.53697 0.3132 0.0
C1729 C 0.23431 0.55187 0.33857 0.0
C1730 C 0.26381 0.55226 0.34232 0.0
C1731 C 0.28125 0.53808 0.32115 0.0
C1732 C 0.26507 0.46259 0.28846 0.0
C1733 C 0.23992 0.44741 0.27783 0.0
C1734 C 0.21805 0.43788 0.29724 0.0
C1735 C 0.22084 0.44403 0.32747 0.0
C1736 C 0.2467 0.45773 0.33795 0.0
C1737 C 0.26884 0.46648 0.31857 0.0
C1738 C 0.29961 0.43292 0.2417 0.0
C1739 C 0.288 0.41829 0.2163 0.0
C1740 C 0.2872 0.389 0.21105 0.0
C1741 C 0.298 0.37379 0.23114 0.0
C1742 C 0.30932 0.38853 0.25675 0.0
C1743 C 0.31009 0.41786 0.26198 0.0
C1744 C 0.33963 0.46557 0.20529 0.0
C1745 C 0.3336 0.46447 0.17595 0.0
C1746 C 0.35219 0.45293 0.15413 0.0
C1747 C 0.37735 0.44273 0.16135 0.0
C1748 C 0.38323 0.44373 0.19084 0.0
C1749 C 0.36437 0.45491 0.21267 0.0
C1750 C 0.34372 0.52648 0.21398 0.0
C1751 C 0.33265 0.54391 0.19639 0.0
C1752 C 0.35048 0.56542 0.18489 0.0
C1753 C 0.3797 0.5697 0.19074 0.0
C1754 C 0.39117 0.55044 0.20601 0.0
C1755 C 0.37325 0.52905 0.21768 0.0
C1756 C 0.21569 0.56692 0.36099 0.0
C1757 C 0.29765 0.34271 0.22533 0.0
H1758 H 0.69355 0.6056 0.13394 0.0
H1759 H 0.66613 0.32471 0.25364 0.0
H1760 H 0.79556 0.56744 0.26272 0.0
H1761 H 0.80186 0.61895 0.26824 0.0
H1762 H 0.71261 0.62044 0.29649 0.0
H1763 H 0.70683 0.56891 0.29201 0.0
H1764 H 0.75839 0.55088 0.20976 0.0
H1765 H 0.73914 0.57771 0.17549 0.0
H1766 H 0.65337 0.55442 0.21004 0.0
H1767 H 0.67295 0.52781 0.24439 0.0
H1768 H 0.74026 0.48919 0.18811 0.0
H1769 H 0.71359 0.46837 0.1458 0.0
H1770 H 0.64283 0.44005 0.20276 0.0
H1771 H 0.66954 0.4616 0.24526 0.0
H1772 H 0.75534 0.43545 0.22053 0.0
H1773 H 0.73765 0.38559 0.21006 0.0
H1774 H 0.6795 0.39324 0.28616 0.0
H1775 H 0.69683 0.44314 0.29591 0.0
H1776 H 0.8091 0.47576 0.2751 0.0
H1777 H 0.8378 0.45396 0.30653 0.0
H1778 H 0.76254 0.43584 0.36213 0.0
H1779 H 0.73431 0.45965 0.33178 0.0
H1780 H 0.8172 0.52893 0.28628 0.0
H1781 H 0.84749 0.5511 0.32561 0.0
H1782 H 0.77226 0.55628 0.3841 0.0
H1783 H 0.74231 0.53382 0.34465 0.0
O1784 O 0.70074 0.59581 0.14848 0.0
O1785 O 0.65724 0.5852 0.16849 0.0
O1786 O 0.7039 0.3414 0.21841 0.0
O1787 O 0.6744 0.34401 0.25792 0.0
C1788 C 0.74638 0.53311 0.27187 0.0
C1789 C 0.72885 0.52009 0.24934 0.0
C1790 C 0.7232 0.49043 0.24498 0.0
C1791 C 0.73506 0.47372 0.26312 0.0
C1792 C 0.75389 0.48662 0.28457 0.0
C1793 C 0.75932 0.51632 0.28905 0.0
C1794 C 0.75085 0.56439 0.27736 0.0
C1795 C 0.77759 0.57889 0.27088 0.0
C1796 C 0.78108 0.60833 0.27384 0.0
C1797 C 0.7577 0.62376 0.28274 0.0
C1798 C 0.73101 0.60916 0.28952 0.0
C1799 C 0.72768 0.57975 0.28703 0.0
C1800 C 0.71706 0.53746 0.22957 0.0
C1801 C 0.73547 0.55184 0.21009 0.0
C1802 C 0.72441 0.56704 0.19045 0.0
C1803 C 0.69471 0.56812 0.18995 0.0
C1804 C 0.67635 0.55398 0.20983 0.0
C1805 C 0.68745 0.53877 0.22945 0.0
C1806 C 0.70684 0.47687 0.21971 0.0
C1807 C 0.71898 0.47855 0.19148 0.0
C1808 C 0.70372 0.46671 0.16738 0.0
C1809 C 0.67628 0.45242 0.17109 0.0
C1810 C 0.66418 0.45046 0.19937 0.0
C1811 C 0.67933 0.4628 0.22358 0.0
C1812 C 0.72769 0.44276 0.25924 0.0
C1813 C 0.73918 0.42615 0.2352 0.0
C1814 C 0.72895 0.39772 0.22921 0.0
C1815 C 0.70717 0.3854 0.24729 0.0
C1816 C 0.69632 0.402 0.27183 0.0
C1817 C 0.7064 0.43046 0.27764 0.0
C1818 C 0.76963 0.46932 0.30115 0.0
C1819 C 0.79876 0.46696 0.29397 0.0
C1820 C 0.8151 0.45458 0.3119 0.0
C1821 C 0.80231 0.44333 0.33668 0.0
C1822 C 0.77279 0.44425 0.343 0.0
C1823 C 0.75664 0.45764 0.32562 0.0
C1824 C 0.77764 0.52986 0.31273 0.0
C1825 C 0.80738 0.53475 0.30767 0.0
C1826 C 0.82461 0.54735 0.33014 0.0
C1827 C 0.81227 0.55541 0.35797 0.0
C1828 C 0.78242 0.55032 0.36292 0.0
C1829 C 0.76526 0.53758 0.34046 0.0
C1830 C 0.683 0.58359 0.16844 0.0
C1831 C 0.69521 0.35559 0.24029 0.0
H1832 H 0.41083 0.44809 0.94779 0.0
H1833 H 0.68927 0.36643 0.76959 0.0
H1834 H 0.43637 0.30462 0.82512 0.0
H1835 H 0.38654 0.30402 0.8434 0.0
H1836 H 0.3822 0.38477 0.81322 0.0
H1837 H 0.43216 0.38491 0.79462 0.0
H1838 H 0.46207 0.3569 0.87412 0.0
H1839 H 0.43867 0.38931 0.91074 0.0
H1840 H 0.45827 0.45566 0.85552 0.0
H1841 H 0.48136 0.42293 0.819 0.0
H1842 H 0.54113 0.363 0.86953 0.0
H1843 H 0.58187 0.39329 0.89055 0.0
H1844 H 0.57583 0.45129 0.82773 0.0
H1845 H 0.53581 0.42049 0.8065 0.0
H1846 H 0.56304 0.32098 0.83087 0.0
H1847 H 0.61531 0.32214 0.82726 0.0
H1848 H 0.61912 0.37641 0.75923 0.0
H1849 H 0.56683 0.37501 0.7631 0.0
H1850 H 0.52783 0.27947 0.7991 0.0
H1851 H 0.56131 0.24836 0.77343 0.0
H1852 H 0.56406 0.29423 0.69871 0.0
H1853 H 0.53068 0.32541 0.72484 0.0
H1854 H 0.47356 0.27026 0.77479 0.0
H1855 H 0.44672 0.24073 0.73683 0.0
H1856 H 0.42333 0.31518 0.70494 0.0
H1857 H 0.45138 0.34466 0.74228 0.0
O1858 O 0.42033 0.43568 0.93311 0.0
O1859 O 0.43102 0.46908 0.90395 0.0
O1860 O 0.66545 0.33749 0.80637 0.0
O1861 O 0.66858 0.3655 0.77139 0.0
C1862 C 0.46959 0.3475 0.80358 0.0
C1863 C 0.48686 0.36769 0.82161 0.0
C1864 C 0.51686 0.36805 0.81906 0.0
C1865 C 0.52962 0.34748 0.79969 0.0
C1866 C 0.51252 0.32702 0.78207 0.0
C1867 C 0.48253 0.32786 0.78291 0.0
C1868 C 0.43798 0.34496 0.80888 0.0
C1869 C 0.42442 0.3218 0.82172 0.0
C1870 C 0.39595 0.32159 0.8323 0.0
C1871 C 0.38049 0.34458 0.83022 0.0
C1872 C 0.3935 0.36679 0.8153 0.0
C1873 C 0.42206 0.36696 0.80471 0.0
C1874 C 0.47352 0.38767 0.84406 0.0
C1875 C 0.46136 0.37848 0.87007 0.0
C1876 C 0.44799 0.39702 0.89091 0.0
C1877 C 0.44662 0.42509 0.88608 0.0
C1878 C 0.459 0.43421 0.85996 0.0
C1879 C 0.47231 0.41562 0.83913 0.0
C1880 C 0.53556 0.38966 0.83659 0.0
C1881 C 0.54811 0.38271 0.86098 0.0
C1882 C 0.57147 0.39992 0.8728 0.0
C1883 C 0.58231 0.42447 0.86053 0.0
C1884 C 0.56806 0.43249 0.83764 0.0
C1885 C 0.54503 0.41506 0.8256 0.0
C1886 C 0.56129 0.34789 0.79722 0.0
C1887 C 0.57525 0.33304 0.81518 0.0
C1888 C 0.60508 0.33377 0.81308 0.0
C1889 C 0.62141 0.3494 0.79295 0.0
C1890 C 0.60722 0.36419 0.77495 0.0
C1891 C 0.57739 0.36342 0.77708 0.0
C1892 C 0.52675 0.30455 0.76373 0.0
C1893 C 0.53503 0.28222 0.77685 0.0
C1894 C 0.55433 0.26461 0.76223 0.0
C1895 C 0.56566 0.26904 0.73418 0.0
C1896 C 0.55581 0.29031 0.72035 0.0
C1897 C 0.53658 0.30803 0.7351 0.0
C1898 C 0.46489 0.30963 0.76104 0.0
C1899 C 0.46303 0.28022 0.75938 0.0
C1900 C 0.44758 0.2634 0.73771 0.0
C1901 C 0.43315 0.27568 0.7177 0.0
C1902 C 0.43429 0.30514 0.71997 0.0
C1903 C 0.45022 0.32196 0.74133 0.0
C1904 C 0.43223 0.44469 0.90817 0.0
C1905 C 0.65311 0.35036 0.79073 0.0
H1906 H 0.49689 0.68649 0.93714 0.0
H1907 H 0.73226 0.79651 0.72266 0.0
H1908 H 0.48074 0.71875 0.79342 0.0
H1909 H 0.42971 0.71718 0.80786 0.0
H1910 H 0.43612 0.80815 0.81638 0.0
H1911 H 0.48731 0.80945 0.80251 0.0
H1912 H 0.5332 0.70314 0.81684 0.0
H1913 H 0.51894 0.68787 0.86456 0.0
H1914 H 0.51099 0.77436 0.90002 0.0
H1915 H 0.52558 0.78934 0.8522 0.0
H1916 H 0.58702 0.70544 0.78315 0.0
H1917 H 0.61464 0.68518 0.81686 0.0
H1918 H 0.62256 0.76523 0.87136 0.0
H1919 H 0.59456 0.78499 0.83783 0.0
H1920 H 0.59895 0.73222 0.71948 0.0
H1921 H 0.64875 0.73529 0.70014 0.0
H1922 H 0.66954 0.80726 0.7639 0.0
H1923 H 0.61971 0.80389 0.78301 0.0
H1924 H 0.54136 0.74534 0.69504 0.0
H1925 H 0.55164 0.76007 0.64671 0.0
H1926 H 0.5948 0.8388 0.68523 0.0
H1927 H 0.58459 0.82357 0.73362 0.0
H1928 H 0.48125 0.7387 0.73424 0.0
H1929 H 0.43754 0.75265 0.71695 0.0
H1930 H 0.47503 0.83917 0.72408 0.0
H1931 H 0.51823 0.82525 0.7429 0.0
O1932 O 0.5028 0.69301 0.91854 0.0
O1933 O 0.49896 0.7378 0.93568 0.0
O1934 O 0.70099 0.7568 0.69856 0.0
O1935 O 0.7125 0.79464 0.73003 0.0
C1936 C 0.51794 0.76493 0.78559 0.0
C1937 C 0.53886 0.75652 0.8021 0.0
C1938 C 0.56758 0.75699 0.79104 0.0
C1939 C 0.57549 0.76649 0.76374 0.0
C1940 C 0.55441 0.77466 0.74702 0.0
C1941 C 0.52555 0.77346 0.75776 0.0
C1942 C 0.4877 0.7642 0.79707 0.0
C1943 C 0.47119 0.73832 0.79892 0.0
C1944 C 0.44201 0.73748 0.80689 0.0
C1945 C 0.42885 0.76255 0.81297 0.0
C1946 C 0.4456 0.78848 0.81162 0.0
C1947 C 0.47483 0.78929 0.80386 0.0
C1948 C 0.5306 0.74734 0.83117 0.0
C1949 C 0.5286 0.71876 0.83502 0.0
C1950 C 0.52034 0.7101 0.86227 0.0
C1951 C 0.51381 0.7299 0.88612 0.0
C1952 C 0.51587 0.75856 0.88212 0.0
C1953 C 0.52419 0.76719 0.85487 0.0
C1954 C 0.58891 0.74666 0.80809 0.0
C1955 C 0.59534 0.7187 0.80205 0.0
C1956 C 0.61089 0.70713 0.82142 0.0
C1957 C 0.62051 0.72351 0.84693 0.0
C1958 C 0.61541 0.75201 0.85195 0.0
C1959 C 0.59956 0.76343 0.83278 0.0
C1960 C 0.60581 0.76781 0.75263 0.0
C1961 C 0.61434 0.74856 0.72926 0.0
C1962 C 0.64278 0.75038 0.71828 0.0
C1963 C 0.66316 0.77154 0.73049 0.0
C1964 C 0.65446 0.79069 0.75403 0.0
C1965 C 0.62603 0.78879 0.76503 0.0
C1966 C 0.56219 0.78339 0.71775 0.0
C1967 C 0.55322 0.76569 0.69297 0.0
C1968 C 0.55913 0.77422 0.66538 0.0
C1969 C 0.57415 0.80068 0.66197 0.0
C1970 C 0.58355 0.81822 0.6869 0.0
C1971 C 0.57764 0.80959 0.7146 0.0
C1972 C 0.50276 0.78101 0.74023 0.0
C1973 C 0.48025 0.7606 0.73157 0.0
C1974 C 0.45528 0.7686 0.72183 0.0
C1975 C 0.45281 0.79702 0.71961 0.0
C1976 C 0.4764 0.81711 0.72567 0.0
C1977 C 0.50113 0.80918 0.73622 0.0
C1978 C 0.50476 0.7206 0.91497 0.0
C1979 C 0.69332 0.77377 0.71867 0.0
H1980 H 0.59783 0.65123 0.21739 0.0
H1981 H 0.35247 0.83758 0.28042 0.0
H1982 H 0.58298 0.7562 0.34065 0.0
H1983 H 0.63387 0.74981 0.33157 0.0
H1984 H 0.64702 0.82726 0.29208 0.0
H1985 H 0.5962 0.83307 0.30072 0.0
H1986 H 0.53204 0.72069 0.30445 0.0
H1987 H 0.55573 0.68496 0.27214 0.0
H1988 H 0.59839 0.75 0.22348 0.0
H1989 H 0.57428 0.78539 0.25567 0.0
H1990 H 0.46852 0.73537 0.30704 0.0
H1991 H 0.44149 0.70609 0.26869 0.0
H1992 H 0.48489 0.75616 0.20465 0.0
H1993 H 0.51203 0.78489 0.24305 0.0
H1994 H 0.44931 0.79216 0.35741 0.0
H1995 H 0.40023 0.80252 0.35275 0.0
H1996 H 0.42428 0.82901 0.26806 0.0
H1997 H 0.47353 0.81992 0.27355 0.0
H1998 H 0.50248 0.82324 0.39872 0.0
H1999 H 0.47611 0.85745 0.43038 0.0
H2000 H 0.46212 0.89844 0.35553 0.0
H2001 H 0.48933 0.86499 0.32448 0.0
H2002 H 0.57735 0.81559 0.3842 0.0
H2003 H 0.61489 0.85229 0.40162 0.0
H2004 H 0.58361 0.90944 0.34925 0.0
H2005 H 0.54744 0.87254 0.33102 0.0
O2006 O 0.58838 0.66559 0.2297 0.0
O2007 O 0.61125 0.70015 0.20683 0.0
O2008 O 0.36001 0.81869 0.32616 0.0
O2009 O 0.37164 0.83309 0.28279 0.0
C2010 C 0.55441 0.79641 0.32224 0.0
C2011 C 0.53784 0.77731 0.30263 0.0
C2012 C 0.50852 0.77996 0.30073 0.0
C2013 C 0.49527 0.80085 0.3193 0.0
C2014 C 0.51155 0.81944 0.33967 0.0
C2015 C 0.54136 0.81793 0.34038 0.0
C2016 C 0.5859 0.79511 0.32139 0.0
C2017 C 0.59704 0.77203 0.33057 0.0
C2018 C 0.62609 0.76841 0.32532 0.0
C2019 C 0.64447 0.7879 0.31087 0.0
C2020 C 0.63348 0.8118 0.30318 0.0
C2021 C 0.60444 0.81528 0.30826 0.0
C2022 C 0.55166 0.7556 0.28253 0.0
C2023 C 0.54642 0.72712 0.28672 0.0
C2024 C 0.56001 0.70679 0.26827 0.0
C2025 C 0.57908 0.71465 0.24532 0.0
C2026 C 0.58395 0.74324 0.24102 0.0
C2027 C 0.57026 0.7635 0.25939 0.0
C2028 C 0.49219 0.76211 0.27771 0.0
C2029 C 0.47216 0.73986 0.2847 0.0
C2030 C 0.45684 0.72321 0.26279 0.0
C2031 C 0.46106 0.72888 0.23366 0.0
C2032 C 0.48107 0.75135 0.22687 0.0
C2033 C 0.49665 0.76769 0.2487 0.0
C2034 C 0.46491 0.80491 0.31566 0.0
C2035 C 0.44387 0.8 0.33779 0.0
C2036 C 0.41582 0.80585 0.33503 0.0
C2037 C 0.40819 0.81627 0.30988 0.0
C2038 C 0.42932 0.82085 0.28764 0.0
C2039 C 0.45744 0.81541 0.2906 0.0
C2040 C 0.49747 0.84139 0.35924 0.0
C2041 C 0.49381 0.83976 0.3893 0.0
C2042 C 0.47834 0.85905 0.40729 0.0
C2043 C 0.46621 0.8802 0.39543 0.0
C2044 C 0.47089 0.88228 0.36542 0.0
C2045 C 0.48639 0.86314 0.34757 0.0
C2046 C 0.55965 0.84133 0.35628 0.0
C2047 C 0.5783 0.83624 0.37702 0.0
C2048 C 0.59971 0.8572 0.38691 0.0
C2049 C 0.60239 0.88366 0.37655 0.0
C2050 C 0.58218 0.88932 0.35766 0.0
C2051 C 0.56125 0.86826 0.34738 0.0
C2052 C 0.59389 0.69311 0.22606 0.0
C2053 C 0.37847 0.82269 0.30688 0.0
H2054 H 0.55373 0.15779 0.42677 0.0
H2055 H 0.33403 0.26162 0.22888 0.0
H2056 H 0.58045 0.28334 0.31947 0.0
H2057 H 0.62241 0.26835 0.33923 0.0
H2058 H 0.60284 0.18453 0.2947 0.0
H2059 H 0.56139 0.19997 0.27447 0.0
H2060 H 0.53994 0.2492 0.35864 0.0
H2061 H 0.54935 0.21715 0.393 0.0
H2062 H 0.51009 0.14695 0.33635 0.0
H2063 H 0.50119 0.17923 0.30195 0.0
H2064 H 0.47736 0.25301 0.36057 0.0
H2065 H 0.44131 0.22949 0.39214 0.0
H2066 H 0.40536 0.17912 0.31668 0.0
H2067 H 0.44256 0.20186 0.28519 0.0
H2068 H 0.44369 0.28782 0.31634 0.0
H2069 H 0.39431 0.29374 0.3067 0.0
H2070 H 0.40385 0.24434 0.22261 0.0
H2071 H 0.45321 0.23865 0.2325 0.0
H2072 H 0.4797 0.32134 0.27266 0.0
H2073 H 0.47088 0.35005 0.23473 0.0
H2074 H 0.51205 0.29261 0.17022 0.0
H2075 H 0.51964 0.2635 0.20795 0.0
H2076 H 0.54766 0.32466 0.28205 0.0
H2077 H 0.58324 0.354 0.25544 0.0
H2078 H 0.61008 0.27935 0.20368 0.0
H2079 H 0.57415 0.25015 0.23047 0.0
O2080 O 0.54972 0.1701 0.4129 0.0
O2081 O 0.52896 0.13477 0.38323 0.0
O2082 O 0.35063 0.28722 0.27544 0.0
O2083 O 0.35353 0.25974 0.23322 0.0
C2084 C 0.53847 0.24915 0.29089 0.0
C2085 C 0.515 0.23598 0.30653 0.0
C2086 C 0.48676 0.24136 0.30224 0.0
C2087 C 0.4818 0.25884 0.28119 0.0
C2088 C 0.50529 0.27238 0.26583 0.0
C2089 C 0.53371 0.26836 0.27156 0.0
C2090 C 0.5678 0.24271 0.2957 0.0
C2091 C 0.58592 0.26209 0.31304 0.0
C2092 C 0.60973 0.25336 0.32453 0.0
C2093 C 0.61554 0.22505 0.31905 0.0
C2094 C 0.59872 0.20635 0.29964 0.0
C2095 C 0.57518 0.2152 0.28787 0.0
C2096 C 0.52004 0.21651 0.32775 0.0
C2097 C 0.53351 0.22688 0.35365 0.0
C2098 C 0.53879 0.20853 0.37326 0.0
C2099 C 0.53052 0.17947 0.36741 0.0
C2100 C 0.51676 0.1692 0.34152 0.0
C2101 C 0.51159 0.18758 0.32187 0.0
C2102 C 0.46269 0.22906 0.3206 0.0
C2103 C 0.46172 0.23689 0.35083 0.0
C2104 C 0.44119 0.22339 0.36883 0.0
C2105 C 0.42073 0.20232 0.35685 0.0
C2106 C 0.42093 0.19528 0.32645 0.0
C2107 C 0.442 0.20834 0.30846 0.0
C2108 C 0.45198 0.26279 0.27514 0.0
C2109 C 0.43505 0.27831 0.29586 0.0
C2110 C 0.40688 0.28167 0.29028 0.0
C2111 C 0.3951 0.26946 0.26388 0.0
C2112 C 0.41221 0.25398 0.24316 0.0
C2113 C 0.44043 0.25075 0.24872 0.0
C2114 C 0.50024 0.29025 0.24308 0.0
C2115 C 0.48659 0.31487 0.25029 0.0
C2116 C 0.48172 0.33131 0.22865 0.0
C2117 C 0.49092 0.32367 0.19952 0.0
C2118 C 0.5049 0.29919 0.19248 0.0
C2119 C 0.50927 0.28253 0.214 0.0
C2120 C 0.55819 0.28531 0.25806 0.0
C2121 C 0.56154 0.31463 0.26526 0.0
C2122 C 0.58188 0.33136 0.24999 0.0
C2123 C 0.5993 0.31905 0.22718 0.0
C2124 C 0.59692 0.2895 0.22104 0.0
C2125 C 0.5765 0.27276 0.23637 0.0
C2126 C 0.53629 0.16002 0.38824 0.0
C2127 C 0.36509 0.27277 0.25796 0.0
loop_
_geom_bond_atom_site_label_1
_geom_bond_atom_site_label_2
_geom_bond_distance
_geom_bond_site_symmetry_2
_ccdc_geom_bond_type
O0 Cd1 2.300 . S
O0 C7 1.275 . S
Cd1 O0 2.300 . S
Cd1 O9 2.381 . S
Cd1 O10 2.378 . S
O2 Cd3 2.385 . S
O2 C7 1.255 . S
Cd3 O2 2.385 . S
Cd3 O4 2.317 . S
O4 Cd3 2.317 . S
O4 C5 1.232 . S
C5 O4 1.232 . S
C5 O6 1.218 . S
O6 C5 1.218 . S
C7 O0 1.275 . S
C7 O2 1.255 . S
C8 O9 1.258 . S
C8 O10 1.256 . S
O9 Cd1 2.381 . S
O9 C8 1.258 . S
O10 Cd1 2.378 . S
O10 C8 1.256 . S
O11 Cd12 2.300 . S
O11 C18 1.275 . S
Cd12 O11 2.300 . S
Cd12 O20 2.381 . S
Cd12 O21 2.378 . S
O13 Cd14 2.385 . S
O13 C18 1.255 . S
Cd14 O13 2.385 . S
Cd14 O15 2.317 . S
O15 Cd14 2.317 . S
O15 C16 1.232 . S
C16 O15 1.232 . S
C16 O17 1.218 . S
O17 C16 1.218 . S
C18 O11 1.275 . S
C18 O13 1.255 . S
C19 O20 1.258 . S
C19 O21 1.256 . S
O20 Cd12 2.381 . S
O20 C19 1.258 . S
O21 Cd12 2.378 . S
O21 C19 1.256 . S
O22 Cd23 2.300 . S
O22 C29 1.275 . S
Cd23 O22 2.300 . S
Cd23 O31 2.381 . S
Cd23 O32 2.378 . S
O24 Cd25 2.385 . S
O24 C29 1.255 . S
Cd25 O24 2.385 . S
Cd25 O26 2.317 . S
O26 Cd25 2.317 . S
O26 C27 1.232 . S
C27 O26 1.232 . S
C27 O28 1.218 . S
O28 C27 1.218 . S
C29 O22 1.275 . S
C29 O24 1.255 . S
C30 O31 1.258 . S
C30 O32 1.256 . S
O31 Cd23 2.381 . S
O31 C30 1.258 . S
O32 Cd23 2.378 . S
O32 C30 1.256 . S
O33 Cd34 2.300 . S
O33 C40 1.275 . S
Cd34 O33 2.300 . S
Cd34 O42 2.381 . S
Cd34 O43 2.378 . S
O35 Cd36 2.385 . S
O35 C40 1.255 . S
Cd36 O35 2.385 . S
Cd36 O37 2.317 . S
O37 Cd36 2.317 . S
O37 C38 1.232 . S
C38 O37 1.232 . S
C38 O39 1.218 . S
O39 C38 1.218 . S
C40 O33 1.275 . S
C40 O35 1.255 . S
C41 O42 1.258 . S
C41 O43 1.256 . S
O42 Cd34 2.381 . S
O42 C41 1.258 . S
O43 Cd34 2.378 . S
O43 C41 1.256 . S
O44 Cd45 2.300 . S
O44 C51 1.275 . S
Cd45 O44 2.300 . S
Cd45 O53 2.381 . S
Cd45 O54 2.378 . S
O46 Cd47 2.385 . S
O46 C51 1.255 . S
Cd47 O46 2.385 . S
Cd47 O48 2.317 . S
O48 Cd47 2.317 . S
O48 C49 1.232 . S
C49 O48 1.232 . S
C49 O50 1.218 . S
O50 C49 1.218 . S
C51 O44 1.275 . S
C51 O46 1.255 . S
C52 O53 1.258 . S
C52 O54 1.256 . S
O53 Cd45 2.381 . S
O53 C52 1.258 . S
O54 Cd45 2.378 . S
O54 C52 1.256 . S
O55 Cd56 2.300 . S
O55 C62 1.275 . S
Cd56 O55 2.300 . S
Cd56 O64 2.381 . S
Cd56 O65 2.378 . S
O57 Cd58 2.385 . S
O57 C62 1.255 . S
Cd58 O57 2.385 . S
Cd58 O59 2.317 . S
O59 Cd58 2.317 . S
O59 C60 1.232 . S
C60 O59 1.232 . S
C60 O61 1.218 . S
O61 C60 1.218 . S
C62 O55 1.275 . S
C62 O57 1.255 . S
C63 O64 1.258 . S
C63 O65 1.256 . S
O64 Cd56 2.381 . S
O64 C63 1.258 . S
O65 Cd56 2.378 . S
O65 C63 1.256 . S
O66 Cd67 2.300 . S
O66 C73 1.275 . S
Cd67 O66 2.300 . S
Cd67 O75 2.381 . S
Cd67 O76 2.378 . S
O68 Cd69 2.385 . S
O68 C73 1.255 . S
Cd69 O68 2.385 . S
Cd69 O70 2.317 . S
O70 Cd69 2.317 . S
O70 C71 1.232 . S
C71 O70 1.232 . S
C71 O72 1.218 . S
O72 C71 1.218 . S
C73 O66 1.275 . S
C73 O68 1.255 . S
C74 O75 1.258 . S
C74 O76 1.256 . S
O75 Cd67 2.381 . S
O75 C74 1.258 . S
O76 Cd67 2.378 . S
O76 C74 1.256 . S
O77 Cd78 2.300 . S
O77 C84 1.275 . S
Cd78 O77 2.300 . S
Cd78 O86 2.381 . S
Cd78 O87 2.378 . S
O79 Cd80 2.385 . S
O79 C84 1.255 . S
Cd80 O79 2.385 . S
Cd80 O81 2.317 . S
O81 Cd80 2.317 . S
O81 C82 1.232 . S
C82 O81 1.232 . S
C82 O83 1.218 . S
O83 C82 1.218 . S
C84 O77 1.275 . S
C84 O79 1.255 . S
C85 O86 1.258 . S
C85 O87 1.256 . S
O86 Cd78 2.381 . S
O86 C85 1.258 . S
O87 Cd78 2.378 . S
O87 C85 1.256 . S
O88 Cd89 2.300 . S
O88 C95 1.275 . S
Cd89 O88 2.300 . S
Cd89 O97 2.381 . S
Cd89 O98 2.378 . S
O90 Cd91 2.385 . S
O90 C95 1.255 . S
Cd91 O90 2.385 . S
Cd91 O92 2.317 . S
O92 Cd91 2.317 . S
O92 C93 1.232 . S
C93 O92 1.232 . S
C93 O94 1.218 . S
O94 C93 1.218 . S
C95 O88 1.275 . S
C95 O90 1.255 . S
C96 O97 1.258 . S
C96 O98 1.256 . S
O97 Cd89 2.381 . S
O97 C96 1.258 . S
O98 Cd89 2.378 . S
O98 C96 1.256 . S
O99 Cd100 2.300 . S
O99 C106 1.275 . S
Cd100 O99 2.300 . S
Cd100 O108 2.381 . S
Cd100 O109 2.378 . S
O101 Cd102 2.385 . S
O101 C106 1.255 . S
Cd102 O101 2.385 . S
Cd102 O103 2.317 . S
O103 Cd102 2.317 . S
O103 C104 1.232 . S
C104 O103 1.232 . S
C104 O105 1.218 . S
O105 C104 1.218 . S
C106 O99 1.275 . S
C106 O101 1.255 . S
C107 O108 1.258 . S
C107 O109 1.256 . S
O108 Cd100 2.381 . S
O108 C107 1.258 . S
O109 Cd100 2.378 . S
O109 C107 1.256 . S
O110 Cd111 2.300 . S
O110 C117 1.275 . S
Cd111 O110 2.300 . S
Cd111 O119 2.381 . S
Cd111 O120 2.378 . S
O112 Cd113 2.385 . S
O112 C117 1.255 . S
Cd113 O112 2.385 . S
Cd113 O114 2.317 . S
O114 Cd113 2.317 . S
O114 C115 1.232 . S
C115 O114 1.232 . S
C115 O116 1.218 . S
O116 C115 1.218 . S
C117 O110 1.275 . S
C117 O112 1.255 . S
C118 O119 1.258 . S
C118 O120 1.256 . S
O119 Cd111 2.381 . S
O119 C118 1.258 . S
O120 Cd111 2.378 . S
O120 C118 1.256 . S
O121 Cd122 2.300 . S
O121 C128 1.275 . S
Cd122 O121 2.300 . S
Cd122 O130 2.381 . S
Cd122 O131 2.378 . S
O123 Cd124 2.385 . S
O123 C128 1.255 . S
Cd124 O123 2.385 . S
Cd124 O125 2.317 . S
O125 Cd124 2.317 . S
O125 C126 1.232 . S
C126 O125 1.232 . S
C126 O127 1.218 . S
O127 C126 1.218 . S
C128 O121 1.275 . S
C128 O123 1.255 . S
C129 O130 1.258 . S
C129 O131 1.256 . S
O130 Cd122 2.381 . S
O130 C129 1.258 . S
O131 Cd122 2.378 . S
O131 C129 1.256 . S
O132 Cd133 2.300 . S
O132 C139 1.275 . S
Cd133 O132 2.300 . S
Cd133 O141 2.381 . S
Cd133 O142 2.378 . S
O134 Cd135 2.385 . S
O134 C139 1.255 . S
Cd135 O134 2.385 . S
Cd135 O136 2.317 . S
O136 Cd135 2.317 . S
O136 C137 1.232 . S
C137 O136 1.232 . S
C137 O138 1.218 . S
O138 C137 1.218 . S
C139 O132 1.275 . S
C139 O134 1.255 . S
C140 O141 1.258 . S
C140 O142 1.256 . S
O141 Cd133 2.381 . S
O141 C140 1.258 . S
O142 Cd133 2.378 . S
O142 C140 1.256 . S
O143 Cd144 2.300 . S
O143 C150 1.275 . S
Cd144 O143 2.300 . S
Cd144 O152 2.381 . S
Cd144 O153 2.378 . S
O145 Cd146 2.385 . S
O145 C150 1.255 . S
Cd146 O145 2.385 . S
Cd146 O147 2.317 . S
O147 Cd146 2.317 . S
O147 C148 1.232 . S
C148 O147 1.232 . S
C148 O149 1.218 . S
O149 C148 1.218 . S
C150 O143 1.275 . S
C150 O145 1.255 . S
C151 O152 1.258 . S
C151 O153 1.256 . S
O152 Cd144 2.381 . S
O152 C151 1.258 . S
O153 Cd144 2.378 . S
O153 C151 1.256 . S
O154 Cd155 2.300 . S
O154 C161 1.275 . S
Cd155 O154 2.300 . S
Cd155 O163 2.381 . S
Cd155 O164 2.378 . S
O156 Cd157 2.385 . S
O156 C161 1.255 . S
Cd157 O156 2.385 . S
Cd157 O158 2.317 . S
O158 Cd157 2.317 . S
O158 C159 1.232 . S
C159 O158 1.232 . S
C159 O160 1.218 . S
O160 C159 1.218 . S
C161 O154 1.275 . S
C161 O156 1.255 . S
C162 O163 1.258 . S
C162 O164 1.256 . S
O163 Cd155 2.381 . S
O163 C162 1.258 . S
O164 Cd155 2.378 . S
O164 C162 1.256 . S
O165 Cd166 2.300 . S
O165 C172 1.275 . S
Cd166 O165 2.300 . S
Cd166 O174 2.381 . S
Cd166 O175 2.378 . S
O167 Cd168 2.385 . S
O167 C172 1.255 . S
Cd168 O167 2.385 . S
Cd168 O169 2.317 . S
O169 Cd168 2.317 . S
O169 C170 1.232 . S
C170 O169 1.232 . S
C170 O171 1.218 . S
O171 C170 1.218 . S
C172 O165 1.275 . S
C172 O167 1.255 . S
C173 O174 1.258 . S
C173 O175 1.256 . S
O174 Cd166 2.381 . S
O174 C173 1.258 . S
O175 Cd166 2.378 . S
O175 C173 1.256 . S
O176 Cd177 2.300 . S
O176 C183 1.275 . S
Cd177 O176 2.300 . S
Cd177 O185 2.381 . S
Cd177 O186 2.378 . S
O178 Cd179 2.385 . S
O178 C183 1.255 . S
Cd179 O178 2.385 . S
Cd179 O180 2.317 . S
O180 Cd179 2.317 . S
O180 C181 1.232 . S
C181 O180 1.232 . S
C181 O182 1.218 . S
O182 C181 1.218 . S
C183 O176 1.275 . S
C183 O178 1.255 . S
C184 O185 1.258 . S
C184 O186 1.256 . S
O185 Cd177 2.381 . S
O185 C184 1.258 . S
O186 Cd177 2.378 . S
O186 C184 1.256 . S
O187 Cd188 2.300 . S
O187 C194 1.275 . S
Cd188 O187 2.300 . S
Cd188 O196 2.381 . S
Cd188 O197 2.378 . S
O189 Cd190 2.385 . S
O189 C194 1.255 . S
Cd190 O189 2.385 . S
Cd190 O191 2.317 . S
O191 Cd190 2.317 . S
O191 C192 1.232 . S
C192 O191 1.232 . S
C192 O193 1.218 . S
O193 C192 1.218 . S
C194 O187 1.275 . S
C194 O189 1.255 . S
C195 O196 1.258 . S
C195 O197 1.256 . S
O196 Cd188 2.381 . S
O196 C195 1.258 . S
O197 Cd188 2.378 . S
O197 C195 1.256 . S
O198 Cd199 2.300 . S
O198 C205 1.275 . S
Cd199 O198 2.300 . S
Cd199 O207 2.381 . S
Cd199 O208 2.378 . S
O200 Cd201 2.385 . S
O200 C205 1.255 . S
Cd201 O200 2.385 . S
Cd201 O202 2.317 . S
O202 Cd201 2.317 . S
O202 C203 1.232 . S
C203 O202 1.232 . S
C203 O204 1.218 . S
O204 C203 1.218 . S
C205 O198 1.275 . S
C205 O200 1.255 . S
C206 O207 1.258 . S
C206 O208 1.256 . S
O207 Cd199 2.381 . S
O207 C206 1.258 . S
O208 Cd199 2.378 . S
O208 C206 1.256 . S
O209 Cd210 2.300 . S
O209 C216 1.275 . S
Cd210 O209 2.300 . S
Cd210 O218 2.381 . S
Cd210 O219 2.378 . S
O211 Cd212 2.385 . S
O211 C216 1.255 . S
Cd212 O211 2.385 . S
Cd212 O213 2.317 . S
O213 Cd212 2.317 . S
O213 C214 1.232 . S
C214 O213 1.232 . S
C214 O215 1.218 . S
O215 C214 1.218 . S
C216 O209 1.275 . S
C216 O211 1.255 . S
C217 O218 1.258 . S
C217 O219 1.256 . S
O218 Cd210 2.381 . S
O218 C217 1.258 . S
O219 Cd210 2.378 . S
O219 C217 1.256 . S
O220 Cd221 2.300 . S
O220 C227 1.275 . S
Cd221 O220 2.300 . S
Cd221 O229 2.381 . S
Cd221 O230 2.378 . S
O222 Cd223 2.385 . S
O222 C227 1.255 . S
Cd223 O222 2.385 . S
Cd223 O224 2.317 . S
O224 Cd223 2.317 . S
O224 C225 1.232 . S
C225 O224 1.232 . S
C225 O226 1.218 . S
O226 C225 1.218 . S
C227 O220 1.275 . S
C227 O222 1.255 . S
C228 O229 1.258 . S
C228 O230 1.256 . S
O229 Cd221 2.381 . S
O229 C228 1.258 . S
O230 Cd221 2.378 . S
O230 C228 1.256 . S
O231 Cd232 2.300 . S
O231 C238 1.275 . S
Cd232 O231 2.300 . S
Cd232 O240 2.381 . S
Cd232 O241 2.378 . S
O233 Cd234 2.385 . S
O233 C238 1.255 . S
Cd234 O233 2.385 . S
Cd234 O235 2.317 . S
O235 Cd234 2.317 . S
O235 C236 1.232 . S
C236 O235 1.232 . S
C236 O237 1.218 . S
O237 C236 1.218 . S
C238 O231 1.275 . S
C238 O233 1.255 . S
C239 O240 1.258 . S
C239 O241 1.256 . S
O240 Cd232 2.381 . S
O240 C239 1.258 . S
O241 Cd232 2.378 . S
O241 C239 1.256 . S
O242 Cd243 2.300 . S
O242 C249 1.275 . S
Cd243 O242 2.300 . S
Cd243 O251 2.381 . S
Cd243 O252 2.378 . S
O244 Cd245 2.385 . S
O244 C249 1.255 . S
Cd245 O244 2.385 . S
Cd245 O246 2.317 . S
O246 Cd245 2.317 . S
O246 C247 1.232 . S
C247 O246 1.232 . S
C247 O248 1.218 . S
O248 C247 1.218 . S
C249 O242 1.275 . S
C249 O244 1.255 . S
C250 O251 1.258 . S
C250 O252 1.256 . S
O251 Cd243 2.381 . S
O251 C250 1.258 . S
O252 Cd243 2.378 . S
O252 C250 1.256 . S
O253 Cd254 2.300 . S
O253 C260 1.275 . S
Cd254 O253 2.300 . S
Cd254 O262 2.381 . S
Cd254 O263 2.378 . S
O255 Cd256 2.385 . S
O255 C260 1.255 . S
Cd256 O255 2.385 . S
Cd256 O257 2.317 . S
O257 Cd256 2.317 . S
O257 C258 1.232 . S
C258 O257 1.232 . S
C258 O259 1.218 . S
O259 C258 1.218 . S
C260 O253 1.275 . S
C260 O255 1.255 . S
C261 O262 1.258 . S
C261 O263 1.256 . S
O262 Cd254 2.381 . S
O262 C261 1.258 . S
O263 Cd254 2.378 . S
O263 C261 1.256 . S
O264 Cd265 2.300 . S
O264 C271 1.275 . S
Cd265 O264 2.300 . S
Cd265 O273 2.381 . S
Cd265 O274 2.378 . S
O266 Cd267 2.385 . S
O266 C271 1.255 . S
Cd267 O266 2.385 . S
Cd267 O268 2.317 . S
O268 Cd267 2.317 . S
O268 C269 1.232 . S
C269 O268 1.232 . S
C269 O270 1.218 . S
O270 C269 1.218 . S
C271 O264 1.275 . S
C271 O266 1.255 . S
C272 O273 1.258 . S
C272 O274 1.256 . S
O273 Cd265 2.381 . S
O273 C272 1.258 . S
O274 Cd265 2.378 . S
O274 C272 1.256 . S
O275 Cd276 2.300 . S
O275 C282 1.275 . S
Cd276 O275 2.300 . S
Cd276 O284 2.381 . S
Cd276 O285 2.378 . S
O277 Cd278 2.385 . S
O277 C282 1.255 . S
Cd278 O277 2.385 . S
Cd278 O279 2.317 . S
O279 Cd278 2.317 . S
O279 C280 1.232 . S
C280 O279 1.232 . S
C280 O281 1.218 . S
O281 C280 1.218 . S
C282 O275 1.275 . S
C282 O277 1.255 . S
C283 O284 1.258 . S
C283 O285 1.256 . S
O284 Cd276 2.381 . S
O284 C283 1.258 . S
O285 Cd276 2.378 . S
O285 C283 1.256 . S
O286 Cd287 2.300 . S
O286 C293 1.275 . S
Cd287 O286 2.300 . S
Cd287 O295 2.381 . S
Cd287 O296 2.378 . S
O288 Cd289 2.385 . S
O288 C293 1.255 . S
Cd289 O288 2.385 . S
Cd289 O290 2.317 . S
O290 Cd289 2.317 . S
O290 C291 1.232 . S
C291 O290 1.232 . S
C291 O292 1.218 . S
O292 C291 1.218 . S
C293 O286 1.275 . S
C293 O288 1.255 . S
C294 O295 1.258 . S
C294 O296 1.256 . S
O295 Cd287 2.381 . S
O295 C294 1.258 . S
O296 Cd287 2.378 . S
O296 C294 1.256 . S
O297 Cd298 2.300 . S
O297 C304 1.275 . S
Cd298 O297 2.300 . S
Cd298 O306 2.381 . S
Cd298 O307 2.378 . S
O299 Cd300 2.385 . S
O299 C304 1.255 . S
Cd300 O299 2.385 . S
Cd300 O301 2.317 . S
O301 Cd300 2.317 . S
O301 C302 1.232 . S
C302 O301 1.232 . S
C302 O303 1.218 . S
O303 C302 1.218 . S
C304 O297 1.275 . S
C304 O299 1.255 . S
C305 O306 1.258 . S
C305 O307 1.256 . S
O306 Cd298 2.381 . S
O306 C305 1.258 . S
O307 Cd298 2.378 . S
O307 C305 1.256 . S
O308 Cd309 2.300 . S
O308 C315 1.275 . S
Cd309 O308 2.300 . S
Cd309 O317 2.381 . S
Cd309 O318 2.378 . S
O310 Cd311 2.385 . S
O310 C315 1.255 . S
Cd311 O310 2.385 . S
Cd311 O312 2.317 . S
O312 Cd311 2.317 . S
O312 C313 1.232 . S
C313 O312 1.232 . S
C313 O314 1.218 . S
O314 C313 1.218 . S
C315 O308 1.275 . S
C315 O310 1.255 . S
C316 O317 1.258 . S
C316 O318 1.256 . S
O317 Cd309 2.381 . S
O317 C316 1.258 . S
O318 Cd309 2.378 . S
O318 C316 1.256 . S
O319 Cd320 2.300 . S
O319 C326 1.275 . S
Cd320 O319 2.300 . S
Cd320 O328 2.381 . S
Cd320 O329 2.378 . S
O321 Cd322 2.385 . S
O321 C326 1.255 . S
Cd322 O321 2.385 . S
Cd322 O323 2.317 . S
O323 Cd322 2.317 . S
O323 C324 1.232 . S
C324 O323 1.232 . S
C324 O325 1.218 . S
O325 C324 1.218 . S
C326 O319 1.275 . S
C326 O321 1.255 . S
C327 O328 1.258 . S
C327 O329 1.256 . S
O328 Cd320 2.381 . S
O328 C327 1.258 . S
O329 Cd320 2.378 . S
O329 C327 1.256 . S
O330 Cd331 2.300 . S
O330 C337 1.275 . S
Cd331 O330 2.300 . S
Cd331 O339 2.381 . S
Cd331 O340 2.378 . S
O332 Cd333 2.385 . S
O332 C337 1.255 . S
Cd333 O332 2.385 . S
Cd333 O334 2.317 . S
O334 Cd333 2.317 . S
O334 C335 1.232 . S
C335 O334 1.232 . S
C335 O336 1.218 . S
O336 C335 1.218 . S
C337 O330 1.275 . S
C337 O332 1.255 . S
C338 O339 1.258 . S
C338 O340 1.256 . S
O339 Cd331 2.381 . S
O339 C338 1.258 . S
O340 Cd331 2.378 . S
O340 C338 1.256 . S
O341 Cd342 2.300 . S
O341 C348 1.275 . S
Cd342 O341 2.300 . S
Cd342 O350 2.381 . S
Cd342 O351 2.378 . S
O343 Cd344 2.385 . S
O343 C348 1.255 . S
Cd344 O343 2.385 . S
Cd344 O345 2.317 . S
O345 Cd344 2.317 . S
O345 C346 1.232 . S
C346 O345 1.232 . S
C346 O347 1.218 . S
O347 C346 1.218 . S
C348 O341 1.275 . S
C348 O343 1.255 . S
C349 O350 1.258 . S
C349 O351 1.256 . S
O350 Cd342 2.381 . S
O350 C349 1.258 . S
O351 Cd342 2.378 . S
O351 C349 1.256 . S
H352 O378 0.856 . S
H353 O381 0.854 . S
H354 C389 0.930 . S
H355 C390 0.930 . S
H356 C392 0.930 . S
H357 C393 0.930 . S
H358 C395 0.931 . S
H359 C396 0.930 . S
H360 C398 0.930 . S
H361 C399 0.929 . S
H362 C401 0.930 . S
H363 C402 0.931 . S
H364 C404 0.930 . S
H365 C405 0.929 . S
H366 C407 0.931 . S
H367 C408 0.930 . S
H368 C410 0.930 . S
H369 C411 0.932 . S
H370 C413 0.930 . S
H371 C414 0.929 . S
H372 C416 0.931 . S
H373 C417 0.930 . S
H374 C419 0.929 . S
H375 C420 0.931 . S
H376 C422 0.930 . S
H377 C423 0.929 . S
O378 H352 0.856 . S
O378 C424 1.300 . S
O379 C424 1.209 . S
O380 C425 1.199 . S
O381 H353 0.854 . S
O381 C425 1.297 . S
C382 C383 1.404 . S
C382 C387 1.397 . S
C382 C388 1.492 . S
C383 C382 1.404 . S
C383 C384 1.396 . S
C383 C394 1.492 . S
C384 C383 1.396 . S
C384 C385 1.397 . S
C384 C400 1.509 . S
C385 C384 1.397 . S
C385 C386 1.412 . S
C385 C406 1.485 . S
C386 C385 1.412 . S
C386 C387 1.388 . S
C386 C412 1.490 . S
C387 C382 1.397 . S
C387 C386 1.388 . S
C387 C418 1.519 . S
C388 C382 1.492 . S
C388 C389 1.363 . S
C388 C393 1.390 . S
C389 H354 0.930 . S
C389 C388 1.363 . S
C389 C390 1.372 1_554 S
C390 H355 0.930 . S
C390 C389 1.372 1_556 S
C390 C391 1.383 . S
C391 C390 1.383 . S
C391 C392 1.395 . S
C392 H356 0.930 . S
C392 C391 1.395 . S
C392 C393 1.362 1_556 S
C393 H357 0.930 . S
C393 C388 1.390 . S
C393 C392 1.362 1_554 S
C394 C383 1.492 . S
C394 C395 1.377 . S
C394 C399 1.397 . S
C395 H358 0.931 . S
C395 C394 1.377 . S
C395 C396 1.376 . S
C396 H359 0.930 . S
C396 C395 1.376 . S
C396 C397 1.376 . S
C397 C396 1.376 . S
C397 C398 1.378 . S
C397 C424 1.486 . S
C398 H360 0.930 . S
C398 C397 1.378 . S
C398 C399 1.376 . S
C399 H361 0.929 . S
C399 C394 1.397 . S
C399 C398 1.376 . S
C400 C384 1.509 . S
C400 C401 1.391 . S
C400 C405 1.386 . S
C401 H362 0.930 . S
C401 C400 1.391 . S
C401 C402 1.375 . S
C402 H363 0.931 . S
C402 C401 1.375 . S
C402 C403 1.375 . S
C403 C402 1.375 . S
C403 C404 1.361 . S
C404 H364 0.930 . S
C404 C403 1.361 . S
C404 C405 1.399 . S
C405 H365 0.929 . S
C405 C400 1.386 . S
C405 C404 1.399 . S
C406 C385 1.485 . S
C406 C407 1.394 . S
C406 C411 1.360 . S
C407 H366 0.931 . S
C407 C406 1.394 . S
C407 C408 1.372 . S
C408 H367 0.930 . S
C408 C407 1.372 . S
C408 C409 1.397 . S
C409 C408 1.397 . S
C409 C410 1.390 . S
C409 C425 1.476 . S
C410 H368 0.930 . S
C410 C409 1.390 . S
C410 C411 1.366 . S
C411 H369 0.932 . S
C411 C406 1.360 . S
C411 C410 1.366 . S
C412 C386 1.490 . S
C412 C413 1.380 . S
C412 C417 1.386 . S
C413 H370 0.930 . S
C413 C412 1.380 . S
C413 C414 1.381 . S
C414 H371 0.929 . S
C414 C413 1.381 . S
C414 C415 1.371 . S
C415 C414 1.371 . S
C415 C416 1.380 . S
C416 H372 0.931 . S
C416 C415 1.380 . S
C416 C417 1.387 . S
C417 H373 0.930 . S
C417 C412 1.386 . S
C417 C416 1.387 . S
C418 C387 1.519 . S
C418 C419 1.377 . S
C418 C423 1.361 . S
C419 H374 0.929 . S
C419 C418 1.377 . S
C419 C420 1.386 1_554 S
C420 H375 0.931 . S
C420 C419 1.386 1_556 S
C420 C421 1.363 . S
C421 C420 1.363 . S
C421 C422 1.385 1_556 S
C422 H376 0.930 . S
C422 C421 1.385 1_554 S
C422 C423 1.396 . S
C423 H377 0.929 . S
C423 C418 1.361 . S
C423 C422 1.396 . S
C424 O378 1.300 . S
C424 O379 1.209 . S
C424 C397 1.486 . S
C425 O380 1.199 . S
C425 O381 1.297 . S
C425 C409 1.476 . S
H426 O452 0.856 . S
H427 O455 0.854 . S
H428 C463 0.930 . S
H429 C464 0.930 . S
H430 C466 0.930 . S
H431 C467 0.930 . S
H432 C469 0.938 . S
H433 C470 0.930 . S
H434 C472 0.930 . S
H435 C473 0.929 . S
H436 C475 0.930 . S
H437 C476 0.931 . S
H438 C478 0.930 . S
H439 C479 0.929 . S
H440 C481 0.931 . S
H441 C482 0.930 . S
H442 C484 0.930 . S
H443 C485 0.932 . S
H444 C487 0.930 . S
H445 C488 0.929 . S
H446 C490 0.931 . S
H447 C491 0.930 . S
H448 C493 0.929 . S
H449 C494 0.931 . S
H450 C496 0.930 . S
H451 C497 0.929 . S
O452 H426 0.856 . S
O452 C498 1.300 . S
O453 C498 1.209 . S
O454 C499 1.199 . S
O455 H427 0.854 . S
O455 C499 1.297 . S
C456 C457 1.404 1_556 S
C456 C461 1.397 1_556 S
C456 C462 1.492 . S
C457 C456 1.404 1_554 S
C457 C458 1.396 . S
C457 C468 1.492 1_554 S
C458 C457 1.396 . S
C458 C459 1.397 . S
C458 C474 1.509 . S
C459 C458 1.397 . S
C459 C460 1.412 . S
C459 C480 1.485 . S
C460 C459 1.412 . S
C460 C461 1.388 . S
C460 C486 1.490 . S
C461 C456 1.397 1_554 S
C461 C460 1.388 . S
C461 C492 1.519 1_554 S
C462 C456 1.492 . S
C462 C463 1.363 . S
C462 C467 1.390 . S
C463 H428 0.930 . S
C463 C462 1.363 . S
C463 C464 1.372 . S
C464 H429 0.930 . S
C464 C463 1.372 . S
C464 C465 1.383 . S
C465 C464 1.383 . S
C465 C466 1.395 . S
C466 H430 0.930 . S
C466 C465 1.395 . S
C466 C467 1.362 . S
C467 H431 0.930 . S
C467 C462 1.390 . S
C467 C466 1.362 . S
C468 C457 1.492 1_556 S
C468 C469 1.375 1_556 S
C468 C473 1.397 . S
C469 H432 0.938 . S
C469 C468 1.375 1_554 S
C469 C470 1.372 1_554 S
C470 H433 0.930 . S
C470 C469 1.372 1_556 S
C470 C471 1.376 . S
C471 C470 1.376 . S
C471 C472 1.378 . S
C471 C498 1.486 . S
C472 H434 0.930 . S
C472 C471 1.378 . S
C472 C473 1.376 . S
C473 H435 0.929 . S
C473 C468 1.397 . S
C473 C472 1.376 . S
C474 C458 1.509 . S
C474 C475 1.391 . S
C474 C479 1.386 . S
C475 H436 0.930 . S
C475 C474 1.391 . S
C475 C476 1.375 . S
C476 H437 0.931 . S
C476 C475 1.375 . S
C476 C477 1.375 . S
C477 C476 1.375 . S
C477 C478 1.361 . S
C478 H438 0.930 . S
C478 C477 1.361 . S
C478 C479 1.399 . S
C479 H439 0.929 . S
C479 C474 1.386 . S
C479 C478 1.399 . S
C480 C459 1.485 . S
C480 C481 1.394 . S
C480 C485 1.360 . S
C481 H440 0.931 . S
C481 C480 1.394 . S
C481 C482 1.372 . S
C482 H441 0.930 . S
C482 C481 1.372 . S
C482 C483 1.397 . S
C483 C482 1.397 . S
C483 C484 1.390 . S
C483 C499 1.476 . S
C484 H442 0.930 . S
C484 C483 1.390 . S
C484 C485 1.366 . S
C485 H443 0.932 . S
C485 C480 1.360 . S
C485 C484 1.366 . S
C486 C460 1.490 . S
C486 C487 1.380 . S
C486 C491 1.386 . S
C487 H444 0.930 . S
C487 C486 1.380 . S
C487 C488 1.381 . S
C488 H445 0.929 . S
C488 C487 1.381 . S
C488 C489 1.371 . S
C489 C488 1.371 . S
C489 C490 1.380 . S
C490 H446 0.931 . S
C490 C489 1.380 . S
C490 C491 1.387 . S
C491 H447 0.930 . S
C491 C486 1.386 . S
C491 C490 1.387 . S
C492 C461 1.519 1_556 S
C492 C493 1.377 . S
C492 C497 1.361 . S
C493 H448 0.929 . S
C493 C492 1.377 . S
C493 C494 1.386 . S
C494 H449 0.931 . S
C494 C493 1.386 . S
C494 C495 1.363 . S
C495 C494 1.363 . S
C495 C496 1.385 . S
C496 H450 0.930 . S
C496 C495 1.385 . S
C496 C497 1.396 . S
C497 H451 0.929 . S
C497 C492 1.361 . S
C497 C496 1.396 . S
C498 O452 1.300 . S
C498 O453 1.209 . S
C498 C471 1.486 . S
C499 O454 1.199 . S
C499 O455 1.297 . S
C499 C483 1.476 . S
H500 O526 0.856 . S
H501 O529 0.854 . S
H502 C537 0.930 . S
H503 C538 0.930 . S
H504 C540 0.930 . S
H505 C541 0.930 . S
H506 C543 0.931 . S
H507 C544 0.930 . S
H508 C546 0.930 . S
H509 C547 0.929 . S
H510 C549 0.930 . S
H511 C550 0.931 . S
H512 C552 0.930 . S
H513 C553 0.929 . S
H514 C555 0.931 . S
H515 C556 0.930 . S
H516 C558 0.930 . S
H517 C559 0.932 . S
H518 C561 0.930 . S
H519 C562 0.929 . S
H520 C564 0.931 . S
H521 C565 0.930 . S
H522 C567 0.929 . S
H523 C568 0.931 . S
H524 C570 0.930 . S
H525 C571 0.929 . S
O526 H500 0.856 . S
O526 C572 1.300 . S
O527 C572 1.209 . S
O528 C573 1.199 . S
O529 H501 0.854 . S
O529 C573 1.297 . S
C530 C531 1.404 . S
C530 C535 1.397 . S
C530 C536 1.492 . S
C531 C530 1.404 . S
C531 C532 1.396 . S
C531 C542 1.492 . S
C532 C531 1.396 . S
C532 C533 1.397 . S
C532 C548 1.509 . S
C533 C532 1.397 . S
C533 C534 1.412 . S
C533 C554 1.485 1_554 S
C534 C533 1.412 . S
C534 C535 1.388 . S
C534 C560 1.490 . S
C535 C530 1.397 . S
C535 C534 1.388 . S
C535 C566 1.519 . S
C536 C530 1.492 . S
C536 C537 1.363 . S
C536 C541 1.390 . S
C537 H502 0.930 . S
C537 C536 1.363 . S
C537 C538 1.372 . S
C538 H503 0.930 . S
C538 C537 1.372 . S
C538 C539 1.383 . S
C539 C538 1.383 . S
C539 C540 1.395 . S
C540 H504 0.930 . S
C540 C539 1.395 . S
C540 C541 1.362 . S
C541 H505 0.930 . S
C541 C536 1.390 . S
C541 C540 1.362 . S
C542 C531 1.492 . S
C542 C543 1.377 . S
C542 C547 1.397 . S
C543 H506 0.931 . S
C543 C542 1.377 . S
C543 C544 1.376 . S
C544 H507 0.930 . S
C544 C543 1.376 . S
C544 C545 1.376 . S
C545 C544 1.376 . S
C545 C546 1.378 . S
C545 C572 1.486 . S
C546 H508 0.930 . S
C546 C545 1.378 . S
C546 C547 1.376 . S
C547 H509 0.929 . S
C547 C542 1.397 . S
C547 C546 1.376 . S
C548 C532 1.509 . S
C548 C549 1.391 . S
C548 C553 1.386 . S
C549 H510 0.930 . S
C549 C548 1.391 . S
C549 C550 1.375 1_554 S
C550 H511 0.931 . S
C550 C549 1.375 1_556 S
C550 C551 1.375 . S
C551 C550 1.375 . S
C551 C552 1.361 . S
C552 H512 0.930 . S
C552 C551 1.361 . S
C552 C553 1.399 1_556 S
C553 H513 0.929 . S
C553 C548 1.386 . S
C553 C552 1.399 1_554 S
C554 C533 1.485 1_556 S
C554 C555 1.394 . S
C554 C559 1.360 . S
C555 H514 0.931 . S
C555 C554 1.394 . S
C555 C556 1.372 . S
C556 H515 0.930 . S
C556 C555 1.372 . S
C556 C557 1.397 . S
C557 C556 1.397 . S
C557 C558 1.390 . S
C557 C573 1.476 . S
C558 H516 0.930 . S
C558 C557 1.390 . S
C558 C559 1.366 . S
C559 H517 0.932 . S
C559 C554 1.360 . S
C559 C558 1.366 . S
C560 C534 1.490 . S
C560 C561 1.380 . S
C560 C565 1.386 . S
C561 H518 0.930 . S
C561 C560 1.380 . S
C561 C562 1.381 . S
C562 H519 0.929 . S
C562 C561 1.381 . S
C562 C563 1.371 . S
C563 C562 1.371 . S
C563 C564 1.380 1_554 S
C564 H520 0.931 . S
C564 C563 1.380 1_556 S
C564 C565 1.387 1_556 S
C565 H521 0.930 . S
C565 C560 1.386 . S
C565 C564 1.387 1_554 S
C566 C535 1.519 . S
C566 C567 1.377 . S
C566 C571 1.361 . S
C567 H522 0.929 . S
C567 C566 1.377 . S
C567 C568 1.386 . S
C568 H523 0.931 . S
C568 C567 1.386 . S
C568 C569 1.363 . S
C569 C568 1.363 . S
C569 C570 1.385 . S
C570 H524 0.930 . S
C570 C569 1.385 . S
C570 C571 1.396 . S
C571 H525 0.929 . S
C571 C566 1.361 . S
C571 C570 1.396 . S
C572 O526 1.300 . S
C572 O527 1.209 . S
C572 C545 1.486 . S
C573 O528 1.199 . S
C573 O529 1.297 . S
C573 C557 1.476 . S
H574 O600 0.856 . S
H575 O603 0.854 . S
H576 C611 0.930 . S
H577 C612 0.930 . S
H578 C614 0.930 . S
H579 C615 0.930 . S
H580 C617 0.931 . S
H581 C618 0.930 . S
H582 C620 0.930 . S
H583 C621 0.929 . S
H584 C623 0.930 . S
H585 C624 0.931 . S
H586 C626 0.930 . S
H587 C627 0.929 . S
H588 C629 0.931 . S
H589 C630 0.930 . S
H590 C632 0.930 . S
H591 C633 0.932 . S
H592 C635 0.930 . S
H593 C636 0.929 . S
H594 C638 0.931 . S
H595 C639 0.930 . S
H596 C641 0.929 . S
H597 C642 0.931 . S
H598 C644 0.930 . S
H599 C645 0.929 . S
O600 H574 0.856 . S
O600 C646 1.300 . S
O601 C646 1.209 . S
O602 C647 1.199 . S
O603 H575 0.854 . S
O603 C647 1.297 . S
C604 C605 1.404 1_556 S
C604 C609 1.397 1_556 S
C604 C610 1.492 . S
C605 C604 1.404 1_554 S
C605 C606 1.396 . S
C605 C616 1.492 1_554 S
C606 C605 1.396 . S
C606 C607 1.397 . S
C606 C622 1.509 . S
C607 C606 1.397 . S
C607 C608 1.412 . S
C607 C628 1.485 . S
C608 C607 1.412 . S
C608 C609 1.388 . S
C608 C634 1.490 . S
C609 C604 1.397 1_554 S
C609 C608 1.388 . S
C609 C640 1.519 1_554 S
C610 C604 1.492 . S
C610 C611 1.363 . S
C610 C615 1.390 . S
C611 H576 0.930 . S
C611 C610 1.363 . S
C611 C612 1.372 . S
C612 H577 0.930 . S
C612 C611 1.372 . S
C612 C613 1.383 . S
C613 C612 1.383 . S
C613 C614 1.395 . S
C614 H578 0.930 . S
C614 C613 1.395 . S
C614 C615 1.362 . S
C615 H579 0.930 . S
C615 C610 1.390 . S
C615 C614 1.362 . S
C616 C605 1.492 1_556 S
C616 C617 1.377 1_556 S
C616 C621 1.397 . S
C617 H580 0.931 . S
C617 C616 1.377 1_554 S
C617 C618 1.376 1_554 S
C618 H581 0.930 . S
C618 C617 1.376 1_556 S
C618 C619 1.376 . S
C619 C618 1.376 . S
C619 C620 1.378 . S
C619 C646 1.486 . S
C620 H582 0.930 . S
C620 C619 1.378 . S
C620 C621 1.376 . S
C621 H583 0.929 . S
C621 C616 1.397 . S
C621 C620 1.376 . S
C622 C606 1.509 . S
C622 C623 1.391 . S
C622 C627 1.386 . S
C623 H584 0.930 . S
C623 C622 1.391 . S
C623 C624 1.375 . S
C624 H585 0.931 . S
C624 C623 1.375 . S
C624 C625 1.375 . S
C625 C624 1.375 . S
C625 C626 1.361 . S
C626 H586 0.930 . S
C626 C625 1.361 . S
C626 C627 1.399 . S
C627 H587 0.929 . S
C627 C622 1.386 . S
C627 C626 1.399 . S
C628 C607 1.485 . S
C628 C629 1.394 . S
C628 C633 1.360 . S
C629 H588 0.931 . S
C629 C628 1.394 . S
C629 C630 1.372 . S
C630 H589 0.930 . S
C630 C629 1.372 . S
C630 C631 1.397 . S
C631 C630 1.397 . S
C631 C632 1.390 . S
C631 C647 1.476 . S
C632 H590 0.930 . S
C632 C631 1.390 . S
C632 C633 1.366 . S
C633 H591 0.932 . S
C633 C628 1.360 . S
C633 C632 1.366 . S
C634 C608 1.490 . S
C634 C635 1.380 . S
C634 C639 1.386 . S
C635 H592 0.930 . S
C635 C634 1.380 . S
C635 C636 1.381 . S
C636 H593 0.929 . S
C636 C635 1.381 . S
C636 C637 1.371 . S
C637 C636 1.371 . S
C637 C638 1.380 . S
C638 H594 0.931 . S
C638 C637 1.380 . S
C638 C639 1.387 . S
C639 H595 0.930 . S
C639 C634 1.386 . S
C639 C638 1.387 . S
C640 C609 1.519 1_556 S
C640 C641 1.377 . S
C640 C645 1.361 . S
C641 H596 0.929 . S
C641 C640 1.377 . S
C641 C642 1.386 . S
C642 H597 0.931 . S
C642 C641 1.386 . S
C642 C643 1.363 . S
C643 C642 1.363 . S
C643 C644 1.385 . S
C644 H598 0.930 . S
C644 C643 1.385 . S
C644 C645 1.396 . S
C645 H599 0.929 . S
C645 C640 1.361 . S
C645 C644 1.396 . S
C646 O600 1.300 . S
C646 O601 1.209 . S
C646 C619 1.486 . S
C647 O602 1.199 . S
C647 O603 1.297 . S
C647 C631 1.476 . S
H648 O674 0.856 . S
H649 O677 0.854 . S
H650 C685 0.930 . S
H651 C686 0.930 . S
H652 C688 0.930 . S
H653 C689 0.930 . S
H654 C691 0.931 . S
H655 C692 0.930 . S
H656 C694 0.930 . S
H657 C695 0.929 . S
H658 C697 0.930 . S
H659 C698 0.931 . S
H660 C700 0.930 . S
H661 C701 0.929 . S
H662 C703 0.931 . S
H663 C704 0.930 . S
H664 C706 0.930 . S
H665 C707 0.932 . S
H666 C709 0.930 . S
H667 C710 0.929 . S
H668 C712 0.931 . S
H669 C713 0.930 . S
H670 C715 0.929 . S
H671 C716 0.931 . S
H672 C718 0.930 . S
H673 C719 0.929 . S
O674 H648 0.856 . S
O674 C720 1.300 1_455 S
O675 C720 1.209 . S
O676 C721 1.199 . S
O677 H649 0.854 . S
O677 C721 1.297 . S
C678 C679 1.389 1_655 S
C678 C683 1.394 1_655 S
C678 C684 1.509 . S
C679 C678 1.389 1_455 S
C679 C680 1.396 . S
C679 C690 1.492 . S
C680 C679 1.396 . S
C680 C681 1.397 . S
C680 C696 1.509 . S
C681 C680 1.397 . S
C681 C682 1.412 . S
C681 C702 1.485 . S
C682 C681 1.412 . S
C682 C683 1.388 . S
C682 C708 1.490 . S
C683 C678 1.394 1_455 S
C683 C682 1.388 . S
C683 C714 1.519 1_455 S
C684 C678 1.509 . S
C684 C685 1.363 . S
C684 C689 1.390 . S
C685 H650 0.930 . S
C685 C684 1.363 . S
C685 C686 1.372 . S
C686 H651 0.930 . S
C686 C685 1.372 . S
C686 C687 1.383 . S
C687 C686 1.383 . S
C687 C688 1.395 . S
C688 H652 0.930 . S
C688 C687 1.395 . S
C688 C689 1.362 . S
C689 H653 0.930 . S
C689 C684 1.390 . S
C689 C688 1.362 . S
C690 C679 1.492 . S
C690 C691 1.377 . S
C690 C695 1.397 1_455 S
C691 H654 0.931 . S
C691 C690 1.377 . S
C691 C692 1.376 . S
C692 H655 0.930 . S
C692 C691 1.376 . S
C692 C693 1.376 . S
C693 C692 1.376 . S
C693 C694 1.378 1_455 S
C693 C720 1.486 1_455 S
C694 H656 0.930 . S
C694 C693 1.378 1_655 S
C694 C695 1.376 . S
C695 H657 0.929 . S
C695 C690 1.397 1_655 S
C695 C694 1.376 . S
C696 C680 1.509 . S
C696 C697 1.391 . S
C696 C701 1.386 . S
C697 H658 0.930 . S
C697 C696 1.391 . S
C697 C698 1.375 . S
C698 H659 0.931 . S
C698 C697 1.375 . S
C698 C699 1.375 . S
C699 C698 1.375 . S
C699 C700 1.361 . S
C700 H660 0.930 . S
C700 C699 1.361 . S
C700 C701 1.399 . S
C701 H661 0.929 . S
C701 C696 1.386 . S
C701 C700 1.399 . S
C702 C681 1.485 . S
C702 C703 1.394 . S
C702 C707 1.360 . S
C703 H662 0.931 . S
C703 C702 1.394 . S
C703 C704 1.372 . S
C704 H663 0.930 . S
C704 C703 1.372 . S
C704 C705 1.397 . S
C705 C704 1.397 . S
C705 C706 1.390 . S
C705 C721 1.476 . S
C706 H664 0.930 . S
C706 C705 1.390 . S
C706 C707 1.366 . S
C707 H665 0.932 . S
C707 C702 1.360 . S
C707 C706 1.366 . S
C708 C682 1.490 . S
C708 C709 1.380 . S
C708 C713 1.386 . S
C709 H666 0.930 . S
C709 C708 1.380 . S
C709 C710 1.381 . S
C710 H667 0.929 . S
C710 C709 1.381 . S
C710 C711 1.371 . S
C711 C710 1.371 . S
C711 C712 1.380 . S
C712 H668 0.931 . S
C712 C711 1.380 . S
C712 C713 1.387 . S
C713 H669 0.930 . S
C713 C708 1.386 . S
C713 C712 1.387 . S
C714 C683 1.519 1_655 S
C714 C715 1.377 . S
C714 C719 1.361 . S
C715 H670 0.929 . S
C715 C714 1.377 . S
C715 C716 1.386 . S
C716 H671 0.931 . S
C716 C715 1.386 . S
C716 C717 1.363 . S
C717 C716 1.363 . S
C717 C718 1.385 . S
C718 H672 0.930 . S
C718 C717 1.385 . S
C718 C719 1.396 . S
C719 H673 0.929 . S
C719 C714 1.361 . S
C719 C718 1.396 . S
C720 O674 1.300 1_655 S
C720 O675 1.209 . S
C720 C693 1.486 1_655 S
C721 O676 1.199 . S
C721 O677 1.297 . S
C721 C705 1.476 . S
H722 O748 0.856 1_565 S
H723 O751 0.854 . S
H724 C759 0.930 . S
H725 C760 0.930 . S
H726 C762 0.930 . S
H727 C763 0.930 . S
H728 C765 0.931 . S
H729 C766 0.930 . S
H730 C768 0.930 1_565 S
H731 C769 0.929 . S
H732 C771 0.930 . S
H733 C772 0.931 . S
H734 C774 0.930 . S
H735 C775 0.929 . S
H736 C777 0.931 . S
H737 C778 0.930 . S
H738 C780 0.930 . S
H739 C781 0.932 . S
H740 C783 0.930 . S
H741 C784 0.929 . S
H742 C786 0.931 . S
H743 C787 0.930 . S
H744 C789 0.929 . S
H745 C790 0.931 . S
H746 C792 0.930 . S
H747 C793 0.929 1_545 S
O748 H722 0.856 1_545 S
O748 C794 1.300 1_545 S
O749 C794 1.209 . S
O750 C795 1.199 . S
O751 H723 0.854 . S
O751 C795 1.297 . S
C752 C753 1.404 . S
C752 C757 1.397 . S
C752 C758 1.492 1_545 S
C753 C752 1.404 . S
C753 C754 1.396 . S
C753 C764 1.492 . S
C754 C753 1.396 . S
C754 C755 1.397 . S
C754 C770 1.509 . S
C755 C754 1.397 . S
C755 C756 1.412 . S
C755 C776 1.485 . S
C756 C755 1.412 . S
C756 C757 1.388 . S
C756 C782 1.490 . S
C757 C752 1.397 . S
C757 C756 1.388 . S
C757 C788 1.519 1_545 S
C758 C752 1.492 1_565 S
C758 C759 1.363 . S
C758 C763 1.390 . S
C759 H724 0.930 . S
C759 C758 1.363 . S
C759 C760 1.372 . S
C760 H725 0.930 . S
C760 C759 1.372 . S
C760 C761 1.383 . S
C761 C760 1.383 . S
C761 C762 1.395 . S
C762 H726 0.930 . S
C762 C761 1.395 . S
C762 C763 1.362 . S
C763 H727 0.930 . S
C763 C758 1.390 . S
C763 C762 1.362 . S
C764 C753 1.492 . S
C764 C765 1.377 . S
C764 C769 1.397 . S
C765 H728 0.931 . S
C765 C764 1.377 . S
C765 C766 1.376 . S
C766 H729 0.930 . S
C766 C765 1.376 . S
C766 C767 1.376 . S
C767 C766 1.376 . S
C767 C768 1.378 . S
C767 C794 1.486 1_545 S
C768 H730 0.930 1_545 S
C768 C767 1.378 . S
C768 C769 1.376 . S
C769 H731 0.929 . S
C769 C764 1.397 . S
C769 C768 1.376 . S
C770 C754 1.509 . S
C770 C771 1.391 . S
C770 C775 1.386 . S
C771 H732 0.930 . S
C771 C770 1.391 . S
C771 C772 1.375 . S
C772 H733 0.931 . S
C772 C771 1.375 . S
C772 C773 1.375 . S
C773 C772 1.375 . S
C773 C774 1.361 . S
C774 H734 0.930 . S
C774 C773 1.361 . S
C774 C775 1.399 . S
C775 H735 0.929 . S
C775 C770 1.386 . S
C775 C774 1.399 . S
C776 C755 1.485 . S
C776 C777 1.394 . S
C776 C781 1.360 . S
C777 H736 0.931 . S
C777 C776 1.394 . S
C777 C778 1.372 . S
C778 H737 0.930 . S
C778 C777 1.372 . S
C778 C779 1.397 . S
C779 C778 1.397 . S
C779 C780 1.390 . S
C779 C795 1.476 . S
C780 H738 0.930 . S
C780 C779 1.390 . S
C780 C781 1.366 . S
C781 H739 0.932 . S
C781 C776 1.360 . S
C781 C780 1.366 . S
C782 C756 1.490 . S
C782 C783 1.380 . S
C782 C787 1.386 . S
C783 H740 0.930 . S
C783 C782 1.380 . S
C783 C784 1.381 . S
C784 H741 0.929 . S
C784 C783 1.381 . S
C784 C785 1.371 . S
C785 C784 1.371 . S
C785 C786 1.380 . S
C786 H742 0.931 . S
C786 C785 1.380 . S
C786 C787 1.387 . S
C787 H743 0.930 . S
C787 C782 1.386 . S
C787 C786 1.387 . S
C788 C757 1.519 1_565 S
C788 C789 1.377 . S
C788 C793 1.361 . S
C789 H744 0.929 . S
C789 C788 1.377 . S
C789 C790 1.386 . S
C790 H745 0.931 . S
C790 C789 1.386 . S
C790 C791 1.363 . S
C791 C790 1.363 . S
C791 C792 1.385 . S
C792 H746 0.930 . S
C792 C791 1.385 . S
C792 C793 1.396 . S
C793 H747 0.929 1_565 S
C793 C788 1.361 . S
C793 C792 1.396 . S
C794 O748 1.300 1_565 S
C794 O749 1.209 . S
C794 C767 1.486 1_565 S
C795 O750 1.199 . S
C795 O751 1.297 . S
C795 C779 1.476 . S
H796 O822 0.856 . S
H797 O825 0.854 . S
H798 C833 0.930 . S
H799 C834 0.930 . S
H800 C836 0.930 . S
H801 C837 0.930 . S
H802 C839 0.931 . S
H803 C840 0.930 . S
H804 C842 0.930 . S
H805 C843 0.929 . S
H806 C845 0.930 . S
H807 C846 0.931 . S
H808 C848 0.930 . S
H809 C849 0.929 . S
H810 C851 0.931 . S
H811 C852 0.930 . S
H812 C854 0.930 . S
H813 C855 0.932 . S
H814 C857 0.930 . S
H815 C858 0.929 . S
H816 C860 0.931 1_655 S
H817 C861 0.930 . S
H818 C863 0.929 . S
H819 C864 0.931 . S
H820 C866 0.930 . S
H821 C867 0.929 . S
O822 H796 0.856 . S
O822 C868 1.300 . S
O823 C868 1.209 . S
O824 C869 1.199 . S
O825 H797 0.854 . S
O825 C869 1.297 . S
C826 C827 1.404 . S
C826 C831 1.397 . S
C826 C832 1.492 . S
C827 C826 1.404 . S
C827 C828 1.396 . S
C827 C838 1.492 . S
C828 C827 1.396 . S
C828 C829 1.397 . S
C828 C844 1.509 . S
C829 C828 1.397 . S
C829 C830 1.412 . S
C829 C850 1.485 1_455 S
C830 C829 1.412 . S
C830 C831 1.388 . S
C830 C856 1.490 . S
C831 C826 1.397 . S
C831 C830 1.388 . S
C831 C862 1.519 . S
C832 C826 1.492 . S
C832 C833 1.363 . S
C832 C837 1.390 . S
C833 H798 0.930 . S
C833 C832 1.363 . S
C833 C834 1.372 . S
C834 H799 0.930 . S
C834 C833 1.372 . S
C834 C835 1.383 . S
C835 C834 1.383 . S
C835 C836 1.395 . S
C836 H800 0.930 . S
C836 C835 1.395 . S
C836 C837 1.362 . S
C837 H801 0.930 . S
C837 C832 1.390 . S
C837 C836 1.362 . S
C838 C827 1.492 . S
C838 C839 1.377 . S
C838 C843 1.397 . S
C839 H802 0.931 . S
C839 C838 1.377 . S
C839 C840 1.376 . S
C840 H803 0.930 . S
C840 C839 1.376 . S
C840 C841 1.376 . S
C841 C840 1.376 . S
C841 C842 1.378 . S
C841 C868 1.486 . S
C842 H804 0.930 . S
C842 C841 1.378 . S
C842 C843 1.376 . S
C843 H805 0.929 . S
C843 C838 1.397 . S
C843 C842 1.376 . S
C844 C828 1.509 . S
C844 C845 1.391 1_455 S
C844 C849 1.386 . S
C845 H806 0.930 . S
C845 C844 1.391 1_655 S
C845 C846 1.375 . S
C846 H807 0.931 . S
C846 C845 1.375 . S
C846 C847 1.375 . S
C847 C846 1.375 . S
C847 C848 1.361 . S
C848 H808 0.930 . S
C848 C847 1.361 . S
C848 C849 1.399 1_655 S
C849 H809 0.929 . S
C849 C844 1.386 . S
C849 C848 1.399 1_455 S
C850 C829 1.485 1_655 S
C850 C851 1.394 . S
C850 C855 1.360 . S
C851 H810 0.931 . S
C851 C850 1.394 . S
C851 C852 1.372 . S
C852 H811 0.930 . S
C852 C851 1.372 . S
C852 C853 1.397 . S
C853 C852 1.397 . S
C853 C854 1.390 . S
C853 C869 1.476 . S
C854 H812 0.930 . S
C854 C853 1.390 . S
C854 C855 1.366 . S
C855 H813 0.932 . S
C855 C850 1.360 . S
C855 C854 1.366 . S
C856 C830 1.490 . S
C856 C857 1.380 . S
C856 C861 1.386 . S
C857 H814 0.930 . S
C857 C856 1.380 . S
C857 C858 1.381 . S
C858 H815 0.929 . S
C858 C857 1.381 . S
C858 C859 1.371 . S
C859 C858 1.371 . S
C859 C860 1.380 . S
C860 H816 0.931 1_455 S
C860 C859 1.380 . S
C860 C861 1.387 . S
C861 H817 0.930 . S
C861 C856 1.386 . S
C861 C860 1.387 . S
C862 C831 1.519 . S
C862 C863 1.377 . S
C862 C867 1.361 . S
C863 H818 0.929 . S
C863 C862 1.377 . S
C863 C864 1.386 . S
C864 H819 0.931 . S
C864 C863 1.386 . S
C864 C865 1.363 . S
C865 C864 1.363 . S
C865 C866 1.385 . S
C866 H820 0.930 . S
C866 C865 1.385 . S
C866 C867 1.396 . S
C867 H821 0.929 . S
C867 C862 1.361 . S
C867 C866 1.396 . S
C868 O822 1.300 . S
C868 O823 1.209 . S
C868 C841 1.486 . S
C869 O824 1.199 . S
C869 O825 1.297 . S
C869 C853 1.476 . S
H870 O896 0.856 . S
H871 O899 0.854 . S
H872 C907 0.930 . S
H873 C908 0.930 . S
H874 C910 0.930 . S
H875 C911 0.930 . S
H876 C913 0.934 . S
H877 C914 0.930 . S
H878 C916 0.930 . S
H879 C917 0.929 . S
H880 C919 0.930 . S
H881 C920 0.931 . S
H882 C922 0.930 . S
H883 C923 0.929 . S
H884 C925 0.931 . S
H885 C926 0.930 . S
H886 C928 0.930 . S
H887 C929 0.932 . S
H888 C931 0.933 . S
H889 C932 0.929 1_545 S
H890 C934 0.931 . S
H891 C935 0.930 . S
H892 C937 0.929 . S
H893 C938 0.931 . S
H894 C940 0.930 . S
H895 C941 0.929 . S
O896 H870 0.856 . S
O896 C942 1.300 . S
O897 C942 1.209 . S
O898 C943 1.199 . S
O899 H871 0.854 . S
O899 C943 1.297 . S
C900 C901 1.404 . S
C900 C905 1.397 . S
C900 C906 1.492 . S
C901 C900 1.404 . S
C901 C902 1.396 1_545 S
C901 C912 1.492 . S
C902 C901 1.396 1_565 S
C902 C903 1.397 . S
C902 C918 1.509 . S
C903 C902 1.397 . S
C903 C904 1.412 . S
C903 C924 1.485 . S
C904 C903 1.412 . S
C904 C905 1.388 1_565 S
C904 C930 1.490 . S
C905 C900 1.397 . S
C905 C904 1.388 1_545 S
C905 C936 1.519 . S
C906 C900 1.492 . S
C906 C907 1.363 . S
C906 C911 1.390 . S
C907 H872 0.930 . S
C907 C906 1.363 . S
C907 C908 1.372 . S
C908 H873 0.930 . S
C908 C907 1.372 . S
C908 C909 1.383 . S
C909 C908 1.383 . S
C909 C910 1.395 . S
C910 H874 0.930 . S
C910 C909 1.395 . S
C910 C911 1.362 . S
C911 H875 0.930 . S
C911 C906 1.390 . S
C911 C910 1.362 . S
C912 C901 1.492 . S
C912 C913 1.377 . S
C912 C917 1.397 . S
C913 H876 0.934 . S
C913 C912 1.377 . S
C913 C914 1.376 . S
C914 H877 0.930 . S
C914 C913 1.376 . S
C914 C915 1.376 . S
C915 C914 1.376 . S
C915 C916 1.378 . S
C915 C942 1.486 . S
C916 H878 0.930 . S
C916 C915 1.378 . S
C916 C917 1.376 . S
C917 H879 0.929 . S
C917 C912 1.397 . S
C917 C916 1.376 . S
C918 C902 1.509 . S
C918 C919 1.391 . S
C918 C923 1.386 . S
C919 H880 0.930 . S
C919 C918 1.391 . S
C919 C920 1.375 . S
C920 H881 0.931 . S
C920 C919 1.375 . S
C920 C921 1.375 . S
C921 C920 1.375 . S
C921 C922 1.361 . S
C922 H882 0.930 . S
C922 C921 1.361 . S
C922 C923 1.399 . S
C923 H883 0.929 . S
C923 C918 1.386 . S
C923 C922 1.399 . S
C924 C903 1.485 . S
C924 C925 1.394 . S
C924 C929 1.360 . S
C925 H884 0.931 . S
C925 C924 1.394 . S
C925 C926 1.372 . S
C926 H885 0.930 . S
C926 C925 1.372 . S
C926 C927 1.397 . S
C927 C926 1.397 . S
C927 C928 1.390 . S
C927 C943 1.476 . S
C928 H886 0.930 . S
C928 C927 1.390 . S
C928 C929 1.366 . S
C929 H887 0.932 . S
C929 C924 1.360 . S
C929 C928 1.366 . S
C930 C904 1.490 . S
C930 C931 1.379 1_565 S
C930 C935 1.386 . S
C931 H888 0.933 . S
C931 C930 1.379 1_545 S
C931 C932 1.379 1_545 S
C932 H889 0.929 1_565 S
C932 C931 1.379 1_565 S
C932 C933 1.371 . S
C933 C932 1.371 . S
C933 C934 1.380 . S
C934 H890 0.931 . S
C934 C933 1.380 . S
C934 C935 1.387 . S
C935 H891 0.930 . S
C935 C930 1.386 . S
C935 C934 1.387 . S
C936 C905 1.519 . S
C936 C937 1.377 . S
C936 C941 1.361 . S
C937 H892 0.929 . S
C937 C936 1.377 . S
C937 C938 1.386 . S
C938 H893 0.931 . S
C938 C937 1.386 . S
C938 C939 1.363 . S
C939 C938 1.363 . S
C939 C940 1.385 . S
C940 H894 0.930 . S
C940 C939 1.385 . S
C940 C941 1.396 . S
C941 H895 0.929 . S
C941 C936 1.361 . S
C941 C940 1.396 . S
C942 O896 1.300 . S
C942 O897 1.209 . S
C942 C915 1.486 . S
C943 O898 1.199 . S
C943 O899 1.297 . S
C943 C927 1.476 . S
H944 O970 0.856 . S
H945 O973 0.854 . S
H946 C981 0.930 . S
H947 C982 0.930 . S
H948 C984 0.930 . S
H949 C985 0.930 . S
H950 C987 0.931 . S
H951 C988 0.930 . S
H952 C990 0.930 . S
H953 C991 0.929 . S
H954 C993 0.930 . S
H955 C994 0.931 . S
H956 C996 0.930 . S
H957 C997 0.929 . S
H958 C999 0.931 . S
H959 C1000 0.930 . S
H960 C1002 0.930 . S
H961 C1003 0.932 . S
H962 C1005 0.930 . S
H963 C1006 0.929 . S
H964 C1008 0.931 . S
H965 C1009 0.930 . S
H966 C1011 0.929 . S
H967 C1012 0.931 . S
H968 C1014 0.930 . S
H969 C1015 0.912 1_455 S
O970 H944 0.856 . S
O970 C1016 1.300 . S
O971 C1016 1.209 . S
O972 C1017 1.199 . S
O973 H945 0.854 . S
O973 C1017 1.297 . S
C974 C975 1.404 . S
C974 C979 1.397 . S
C974 C980 1.492 1_455 S
C975 C974 1.404 . S
C975 C976 1.396 . S
C975 C986 1.492 . S
C976 C975 1.396 . S
C976 C977 1.397 . S
C976 C992 1.509 . S
C977 C976 1.397 . S
C977 C978 1.412 . S
C977 C998 1.485 . S
C978 C977 1.412 . S
C978 C979 1.388 . S
C978 C1004 1.490 . S
C979 C974 1.397 . S
C979 C978 1.388 . S
C979 C1010 1.519 1_455 S
C980 C974 1.492 1_655 S
C980 C981 1.363 . S
C980 C985 1.390 . S
C981 H946 0.930 . S
C981 C980 1.363 . S
C981 C982 1.372 . S
C982 H947 0.930 . S
C982 C981 1.372 . S
C982 C983 1.383 . S
C983 C982 1.383 . S
C983 C984 1.395 . S
C984 H948 0.930 . S
C984 C983 1.395 . S
C984 C985 1.362 . S
C985 H949 0.930 . S
C985 C980 1.390 . S
C985 C984 1.362 . S
C986 C975 1.492 . S
C986 C987 1.377 . S
C986 C991 1.397 . S
C987 H950 0.931 . S
C987 C986 1.377 . S
C987 C988 1.376 . S
C988 H951 0.930 . S
C988 C987 1.376 . S
C988 C989 1.376 . S
C989 C988 1.376 . S
C989 C990 1.378 . S
C989 C1016 1.486 . S
C990 H952 0.930 . S
C990 C989 1.378 . S
C990 C991 1.376 . S
C991 H953 0.929 . S
C991 C986 1.397 . S
C991 C990 1.376 . S
C992 C976 1.509 . S
C992 C993 1.391 . S
C992 C997 1.386 . S
C993 H954 0.930 . S
C993 C992 1.391 . S
C993 C994 1.375 . S
C994 H955 0.931 . S
C994 C993 1.375 . S
C994 C995 1.375 . S
C995 C994 1.375 . S
C995 C996 1.361 . S
C996 H956 0.930 . S
C996 C995 1.361 . S
C996 C997 1.399 . S
C997 H957 0.929 . S
C997 C992 1.386 . S
C997 C996 1.399 . S
C998 C977 1.485 . S
C998 C999 1.394 . S
C998 C1003 1.360 . S
C999 H958 0.931 . S
C999 C998 1.394 . S
C999 C1000 1.372 . S
C1000 H959 0.930 . S
C1000 C999 1.372 . S
C1000 C1001 1.397 . S
C1001 C1000 1.397 . S
C1001 C1002 1.390 . S
C1001 C1017 1.476 . S
C1002 H960 0.930 . S
C1002 C1001 1.390 . S
C1002 C1003 1.366 . S
C1003 H961 0.932 . S
C1003 C998 1.360 . S
C1003 C1002 1.366 . S
C1004 C978 1.490 . S
C1004 C1005 1.380 . S
C1004 C1009 1.386 . S
C1005 H962 0.930 . S
C1005 C1004 1.380 . S
C1005 C1006 1.381 . S
C1006 H963 0.929 . S
C1006 C1005 1.381 . S
C1006 C1007 1.371 . S
C1007 C1006 1.371 . S
C1007 C1008 1.380 . S
C1008 H964 0.931 . S
C1008 C1007 1.380 . S
C1008 C1009 1.387 . S
C1009 H965 0.930 . S
C1009 C1004 1.386 . S
C1009 C1008 1.387 . S
C1010 C979 1.519 1_655 S
C1010 C1011 1.377 . S
C1010 C1015 1.361 . S
C1011 H966 0.929 . S
C1011 C1010 1.377 . S
C1011 C1012 1.386 . S
C1012 H967 0.931 . S
C1012 C1011 1.386 . S
C1012 C1013 1.363 . S
C1013 C1012 1.363 . S
C1013 C1014 1.385 . S
C1014 H968 0.930 . S
C1014 C1013 1.385 . S
C1014 C1015 1.396 . S
C1015 H969 0.912 1_655 S
C1015 C1010 1.361 . S
C1015 C1014 1.396 . S
C1016 O970 1.300 . S
C1016 O971 1.209 . S
C1016 C989 1.486 . S
C1017 O972 1.199 . S
C1017 O973 1.297 . S
C1017 C1001 1.476 . S
H1018 O1044 0.856 . S
H1019 O1047 0.854 . S
H1020 C1055 0.930 . S
H1021 C1056 0.930 . S
H1022 C1058 0.930 . S
H1023 C1059 0.930 . S
H1024 C1061 0.931 . S
H1025 C1062 0.930 . S
H1026 C1064 0.930 . S
H1027 C1065 0.929 . S
H1028 C1067 0.930 . S
H1029 C1068 0.931 . S
H1030 C1070 0.930 . S
H1031 C1071 0.929 . S
H1032 C1073 0.931 . S
H1033 C1074 0.930 . S
H1034 C1076 0.930 . S
H1035 C1077 0.932 . S
H1036 C1079 0.930 . S
H1037 C1080 0.929 . S
H1038 C1082 0.931 . S
H1039 C1083 0.930 . S
H1040 C1085 0.929 . S
H1041 C1086 0.931 . S
H1042 C1088 0.930 . S
H1043 C1089 0.929 . S
O1044 H1018 0.856 . S
O1044 C1090 1.300 . S
O1045 C1090 1.209 1_565 S
O1046 C1091 1.199 . S
O1047 H1019 0.854 . S
O1047 C1091 1.297 . S
C1048 C1049 1.404 . S
C1048 C1053 1.397 . S
C1048 C1054 1.492 1_545 S
C1049 C1048 1.404 . S
C1049 C1050 1.396 . S
C1049 C1060 1.492 . S
C1050 C1049 1.396 . S
C1050 C1051 1.397 . S
C1050 C1066 1.509 . S
C1051 C1050 1.397 . S
C1051 C1052 1.412 . S
C1051 C1072 1.485 . S
C1052 C1051 1.412 . S
C1052 C1053 1.388 . S
C1052 C1078 1.490 . S
C1053 C1048 1.397 . S
C1053 C1052 1.388 . S
C1053 C1084 1.519 . S
C1054 C1048 1.492 1_565 S
C1054 C1055 1.363 . S
C1054 C1059 1.390 . S
C1055 H1020 0.930 . S
C1055 C1054 1.363 . S
C1055 C1056 1.372 . S
C1056 H1021 0.930 . S
C1056 C1055 1.372 . S
C1056 C1057 1.383 . S
C1057 C1056 1.383 . S
C1057 C1058 1.395 . S
C1058 H1022 0.930 . S
C1058 C1057 1.395 . S
C1058 C1059 1.362 . S
C1059 H1023 0.930 . S
C1059 C1054 1.390 . S
C1059 C1058 1.362 . S
C1060 C1049 1.492 . S
C1060 C1061 1.377 . S
C1060 C1065 1.397 . S
C1061 H1024 0.931 . S
C1061 C1060 1.377 . S
C1061 C1062 1.376 . S
C1062 H1025 0.930 . S
C1062 C1061 1.376 . S
C1062 C1063 1.376 . S
C1063 C1062 1.376 . S
C1063 C1064 1.378 . S
C1063 C1090 1.486 . S
C1064 H1026 0.930 . S
C1064 C1063 1.378 . S
C1064 C1065 1.376 . S
C1065 H1027 0.929 . S
C1065 C1060 1.397 . S
C1065 C1064 1.376 . S
C1066 C1050 1.509 . S
C1066 C1067 1.391 . S
C1066 C1071 1.386 . S
C1067 H1028 0.930 . S
C1067 C1066 1.391 . S
C1067 C1068 1.375 . S
C1068 H1029 0.931 . S
C1068 C1067 1.375 . S
C1068 C1069 1.375 . S
C1069 C1068 1.375 . S
C1069 C1070 1.361 . S
C1070 H1030 0.930 . S
C1070 C1069 1.361 . S
C1070 C1071 1.399 . S
C1071 H1031 0.929 . S
C1071 C1066 1.386 . S
C1071 C1070 1.399 . S
C1072 C1051 1.485 . S
C1072 C1073 1.394 . S
C1072 C1077 1.360 . S
C1073 H1032 0.931 . S
C1073 C1072 1.394 . S
C1073 C1074 1.372 . S
C1074 H1033 0.930 . S
C1074 C1073 1.372 . S
C1074 C1075 1.397 . S
C1075 C1074 1.397 . S
C1075 C1076 1.390 . S
C1075 C1091 1.476 . S
C1076 H1034 0.930 . S
C1076 C1075 1.390 . S
C1076 C1077 1.366 . S
C1077 H1035 0.932 . S
C1077 C1072 1.360 . S
C1077 C1076 1.366 . S
C1078 C1052 1.490 . S
C1078 C1079 1.380 . S
C1078 C1083 1.386 . S
C1079 H1036 0.930 . S
C1079 C1078 1.380 . S
C1079 C1080 1.381 . S
C1080 H1037 0.929 . S
C1080 C1079 1.381 . S
C1080 C1081 1.371 . S
C1081 C1080 1.371 . S
C1081 C1082 1.380 . S
C1082 H1038 0.931 . S
C1082 C1081 1.380 . S
C1082 C1083 1.387 . S
C1083 H1039 0.930 . S
C1083 C1078 1.386 . S
C1083 C1082 1.387 . S
C1084 C1053 1.519 . S
C1084 C1085 1.377 1_545 S
C1084 C1089 1.361 . S
C1085 H1040 0.929 . S
C1085 C1084 1.377 1_565 S
C1085 C1086 1.386 . S
C1086 H1041 0.931 . S
C1086 C1085 1.386 . S
C1086 C1087 1.363 . S
C1087 C1086 1.363 . S
C1087 C1088 1.385 . S
C1088 H1042 0.930 . S
C1088 C1087 1.385 . S
C1088 C1089 1.396 1_565 S
C1089 H1043 0.929 . S
C1089 C1084 1.361 . S
C1089 C1088 1.396 1_545 S
C1090 O1044 1.300 . S
C1090 O1045 1.209 1_545 S
C1090 C1063 1.486 . S
C1091 O1046 1.199 . S
C1091 O1047 1.297 . S
C1091 C1075 1.476 . S
H1092 O1118 0.856 . S
H1093 O1121 0.854 . S
H1094 C1129 0.930 . S
H1095 C1130 0.930 . S
H1096 C1132 0.930 . S
H1097 C1133 0.930 . S
H1098 C1135 0.931 . S
H1099 C1136 0.930 . S
H1100 C1138 0.930 . S
H1101 C1139 0.929 1_655 S
H1102 C1141 0.930 . S
H1103 C1142 0.931 . S
H1104 C1144 0.930 . S
H1105 C1145 0.929 . S
H1106 C1147 0.931 . S
H1107 C1148 0.930 . S
H1108 C1150 0.930 . S
H1109 C1151 0.932 . S
H1110 C1153 0.930 . S
H1111 C1154 0.929 . S
H1112 C1156 0.931 . S
H1113 C1157 0.930 . S
H1114 C1159 0.929 . S
H1115 C1160 0.931 . S
H1116 C1162 0.930 . S
H1117 C1163 0.929 . S
O1118 H1092 0.856 . S
O1118 C1164 1.300 . S
O1119 C1164 1.209 . S
O1120 C1165 1.199 . S
O1121 H1093 0.854 . S
O1121 C1165 1.297 . S
C1122 C1123 1.404 . S
C1122 C1127 1.397 . S
C1122 C1128 1.492 1_455 S
C1123 C1122 1.404 . S
C1123 C1124 1.396 . S
C1123 C1134 1.492 . S
C1124 C1123 1.396 . S
C1124 C1125 1.397 . S
C1124 C1140 1.509 . S
C1125 C1124 1.397 . S
C1125 C1126 1.412 . S
C1125 C1146 1.485 . S
C1126 C1125 1.412 . S
C1126 C1127 1.388 . S
C1126 C1152 1.490 . S
C1127 C1122 1.397 . S
C1127 C1126 1.388 . S
C1127 C1158 1.519 . S
C1128 C1122 1.492 1_655 S
C1128 C1129 1.363 . S
C1128 C1133 1.390 . S
C1129 H1094 0.930 . S
C1129 C1128 1.363 . S
C1129 C1130 1.372 . S
C1130 H1095 0.930 . S
C1130 C1129 1.372 . S
C1130 C1131 1.383 . S
C1131 C1130 1.383 . S
C1131 C1132 1.395 . S
C1132 H1096 0.930 . S
C1132 C1131 1.395 . S
C1132 C1133 1.362 . S
C1133 H1097 0.930 . S
C1133 C1128 1.390 . S
C1133 C1132 1.362 . S
C1134 C1123 1.492 . S
C1134 C1135 1.377 . S
C1134 C1139 1.397 . S
C1135 H1098 0.931 . S
C1135 C1134 1.377 . S
C1135 C1136 1.376 . S
C1136 H1099 0.930 . S
C1136 C1135 1.376 . S
C1136 C1137 1.376 1_455 S
C1137 C1136 1.376 1_655 S
C1137 C1138 1.378 . S
C1137 C1164 1.486 . S
C1138 H1100 0.930 . S
C1138 C1137 1.378 . S
C1138 C1139 1.376 1_655 S
C1139 H1101 0.929 1_455 S
C1139 C1134 1.397 . S
C1139 C1138 1.376 1_455 S
C1140 C1124 1.509 . S
C1140 C1141 1.391 . S
C1140 C1145 1.386 . S
C1141 H1102 0.930 . S
C1141 C1140 1.391 . S
C1141 C1142 1.375 . S
C1142 H1103 0.931 . S
C1142 C1141 1.375 . S
C1142 C1143 1.375 . S
C1143 C1142 1.375 . S
C1143 C1144 1.361 . S
C1144 H1104 0.930 . S
C1144 C1143 1.361 . S
C1144 C1145 1.399 . S
C1145 H1105 0.929 . S
C1145 C1140 1.386 . S
C1145 C1144 1.399 . S
C1146 C1125 1.485 . S
C1146 C1147 1.394 . S
C1146 C1151 1.360 . S
C1147 H1106 0.931 . S
C1147 C1146 1.394 . S
C1147 C1148 1.372 . S
C1148 H1107 0.930 . S
C1148 C1147 1.372 . S
C1148 C1149 1.397 . S
C1149 C1148 1.397 . S
C1149 C1150 1.390 . S
C1149 C1165 1.476 . S
C1150 H1108 0.930 . S
C1150 C1149 1.390 . S
C1150 C1151 1.366 . S
C1151 H1109 0.932 . S
C1151 C1146 1.360 . S
C1151 C1150 1.366 . S
C1152 C1126 1.490 . S
C1152 C1153 1.380 . S
C1152 C1157 1.386 . S
C1153 H1110 0.930 . S
C1153 C1152 1.380 . S
C1153 C1154 1.381 . S
C1154 H1111 0.929 . S
C1154 C1153 1.381 . S
C1154 C1155 1.371 . S
C1155 C1154 1.371 . S
C1155 C1156 1.380 . S
C1156 H1112 0.931 . S
C1156 C1155 1.380 . S
C1156 C1157 1.387 . S
C1157 H1113 0.930 . S
C1157 C1152 1.386 . S
C1157 C1156 1.387 . S
C1158 C1127 1.519 . S
C1158 C1159 1.377 1_455 S
C1158 C1163 1.361 . S
C1159 H1114 0.929 . S
C1159 C1158 1.377 1_655 S
C1159 C1160 1.386 . S
C1160 H1115 0.931 . S
C1160 C1159 1.386 . S
C1160 C1161 1.363 . S
C1161 C1160 1.363 . S
C1161 C1162 1.385 . S
C1162 H1116 0.930 . S
C1162 C1161 1.385 . S
C1162 C1163 1.396 1_655 S
C1163 H1117 0.929 . S
C1163 C1158 1.361 . S
C1163 C1162 1.396 1_455 S
C1164 O1118 1.300 . S
C1164 O1119 1.209 . S
C1164 C1137 1.486 . S
C1165 O1120 1.199 . S
C1165 O1121 1.297 . S
C1165 C1149 1.476 . S
H1166 O1192 0.856 . S
H1167 O1195 0.854 . S
H1168 C1203 0.930 . S
H1169 C1204 0.930 . S
H1170 C1206 0.930 . S
H1171 C1207 0.930 . S
H1172 C1209 0.931 1_565 S
H1173 C1210 0.930 . S
H1174 C1212 0.930 . S
H1175 C1213 0.929 . S
H1176 C1215 0.930 . S
H1177 C1216 0.931 . S
H1178 C1218 0.930 . S
H1179 C1219 0.929 . S
H1180 C1221 0.931 . S
H1181 C1222 0.930 . S
H1182 C1224 0.930 . S
H1183 C1225 0.932 . S
H1184 C1227 0.930 . S
H1185 C1228 0.929 . S
H1186 C1230 0.931 . S
H1187 C1231 0.930 . S
H1188 C1233 0.929 . S
H1189 C1234 0.931 . S
H1190 C1236 0.930 . S
H1191 C1237 0.929 . S
O1192 H1166 0.856 . S
O1192 C1238 1.300 . S
O1193 C1238 1.209 . S
O1194 C1239 1.199 . S
O1195 H1167 0.854 . S
O1195 C1239 1.297 . S
C1196 C1197 1.404 . S
C1196 C1201 1.397 . S
C1196 C1202 1.492 . S
C1197 C1196 1.404 . S
C1197 C1198 1.396 1_545 S
C1197 C1208 1.492 . S
C1198 C1197 1.396 1_565 S
C1198 C1199 1.397 . S
C1198 C1214 1.509 . S
C1199 C1198 1.397 . S
C1199 C1200 1.412 1_565 S
C1199 C1220 1.485 . S
C1200 C1199 1.412 1_545 S
C1200 C1201 1.388 . S
C1200 C1226 1.490 . S
C1201 C1196 1.397 . S
C1201 C1200 1.388 . S
C1201 C1232 1.519 . S
C1202 C1196 1.492 . S
C1202 C1203 1.363 . S
C1202 C1207 1.390 . S
C1203 H1168 0.930 . S
C1203 C1202 1.363 . S
C1203 C1204 1.372 . S
C1204 H1169 0.930 . S
C1204 C1203 1.372 . S
C1204 C1205 1.383 . S
C1205 C1204 1.383 . S
C1205 C1206 1.395 . S
C1206 H1170 0.930 . S
C1206 C1205 1.395 . S
C1206 C1207 1.362 . S
C1207 H1171 0.930 . S
C1207 C1202 1.390 . S
C1207 C1206 1.362 . S
C1208 C1197 1.492 . S
C1208 C1209 1.377 . S
C1208 C1213 1.397 . S
C1209 H1172 0.931 1_545 S
C1209 C1208 1.377 . S
C1209 C1210 1.376 . S
C1210 H1173 0.930 . S
C1210 C1209 1.376 . S
C1210 C1211 1.376 . S
C1211 C1210 1.376 . S
C1211 C1212 1.378 . S
C1211 C1238 1.486 . S
C1212 H1174 0.930 . S
C1212 C1211 1.378 . S
C1212 C1213 1.376 . S
C1213 H1175 0.929 . S
C1213 C1208 1.397 . S
C1213 C1212 1.376 . S
C1214 C1198 1.509 . S
C1214 C1215 1.391 . S
C1214 C1219 1.386 . S
C1215 H1176 0.930 . S
C1215 C1214 1.391 . S
C1215 C1216 1.375 . S
C1216 H1177 0.931 . S
C1216 C1215 1.375 . S
C1216 C1217 1.375 . S
C1217 C1216 1.375 . S
C1217 C1218 1.361 . S
C1218 H1178 0.930 . S
C1218 C1217 1.361 . S
C1218 C1219 1.399 . S
C1219 H1179 0.929 . S
C1219 C1214 1.386 . S
C1219 C1218 1.399 . S
C1220 C1199 1.485 . S
C1220 C1221 1.394 . S
C1220 C1225 1.360 . S
C1221 H1180 0.931 . S
C1221 C1220 1.394 . S
C1221 C1222 1.372 . S
C1222 H1181 0.930 . S
C1222 C1221 1.372 . S
C1222 C1223 1.397 . S
C1223 C1222 1.397 . S
C1223 C1224 1.390 . S
C1223 C1239 1.476 . S
C1224 H1182 0.930 . S
C1224 C1223 1.390 . S
C1224 C1225 1.366 . S
C1225 H1183 0.932 . S
C1225 C1220 1.360 . S
C1225 C1224 1.366 . S
C1226 C1200 1.490 . S
C1226 C1227 1.380 . S
C1226 C1231 1.386 1_545 S
C1227 H1184 0.930 . S
C1227 C1226 1.380 . S
C1227 C1228 1.381 . S
C1228 H1185 0.929 . S
C1228 C1227 1.381 . S
C1228 C1229 1.371 . S
C1229 C1228 1.371 . S
C1229 C1230 1.380 1_545 S
C1230 H1186 0.931 . S
C1230 C1229 1.380 1_565 S
C1230 C1231 1.387 . S
C1231 H1187 0.930 . S
C1231 C1226 1.386 1_565 S
C1231 C1230 1.387 . S
C1232 C1201 1.519 . S
C1232 C1233 1.377 . S
C1232 C1237 1.361 . S
C1233 H1188 0.929 . S
C1233 C1232 1.377 . S
C1233 C1234 1.386 . S
C1234 H1189 0.931 . S
C1234 C1233 1.386 . S
C1234 C1235 1.363 . S
C1235 C1234 1.363 . S
C1235 C1236 1.385 . S
C1236 H1190 0.930 . S
C1236 C1235 1.385 . S
C1236 C1237 1.396 . S
C1237 H1191 0.929 . S
C1237 C1232 1.361 . S
C1237 C1236 1.396 . S
C1238 O1192 1.300 . S
C1238 O1193 1.209 . S
C1238 C1211 1.486 . S
C1239 O1194 1.199 . S
C1239 O1195 1.297 . S
C1239 C1223 1.476 . S
H1240 O1266 0.856 . S
H1241 O1269 0.854 . S
H1242 C1277 0.930 . S
H1243 C1278 0.930 . S
H1244 C1280 0.930 . S
H1245 C1281 0.930 . S
H1246 C1283 0.931 . S
H1247 C1284 0.930 . S
H1248 C1286 0.930 . S
H1249 C1287 0.929 . S
H1250 C1289 0.930 . S
H1251 C1290 0.931 . S
H1252 C1292 0.930 . S
H1253 C1293 0.929 . S
H1254 C1295 0.931 . S
H1255 C1296 0.930 . S
H1256 C1298 0.930 . S
H1257 C1299 0.932 . S
H1258 C1301 0.930 . S
H1259 C1302 0.929 . S
H1260 C1304 0.931 . S
H1261 C1305 0.930 . S
H1262 C1307 0.929 . S
H1263 C1308 0.931 . S
H1264 C1310 0.930 . S
H1265 C1311 0.929 . S
O1266 H1240 0.856 . S
O1266 C1312 1.300 . S
O1267 C1312 1.209 . S
O1268 C1313 1.199 . S
O1269 H1241 0.854 . S
O1269 C1313 1.297 . S
C1270 C1271 1.404 . S
C1270 C1275 1.397 . S
C1270 C1276 1.492 . S
C1271 C1270 1.404 . S
C1271 C1272 1.396 . S
C1271 C1282 1.492 . S
C1272 C1271 1.396 . S
C1272 C1273 1.397 . S
C1272 C1288 1.509 . S
C1273 C1272 1.397 . S
C1273 C1274 1.412 . S
C1273 C1294 1.485 . S
C1274 C1273 1.412 . S
C1274 C1275 1.388 . S
C1274 C1300 1.490 . S
C1275 C1270 1.397 . S
C1275 C1274 1.388 . S
C1275 C1306 1.519 . S
C1276 C1270 1.492 . S
C1276 C1277 1.363 . S
C1276 C1281 1.390 . S
C1277 H1242 0.930 . S
C1277 C1276 1.363 . S
C1277 C1278 1.372 . S
C1278 H1243 0.930 . S
C1278 C1277 1.372 . S
C1278 C1279 1.383 . S
C1279 C1278 1.383 . S
C1279 C1280 1.395 . S
C1280 H1244 0.930 . S
C1280 C1279 1.395 . S
C1280 C1281 1.362 . S
C1281 H1245 0.930 . S
C1281 C1276 1.390 . S
C1281 C1280 1.362 . S
C1282 C1271 1.492 . S
C1282 C1283 1.377 . S
C1282 C1287 1.397 . S
C1283 H1246 0.931 . S
C1283 C1282 1.377 . S
C1283 C1284 1.376 . S
C1284 H1247 0.930 . S
C1284 C1283 1.376 . S
C1284 C1285 1.376 . S
C1285 C1284 1.376 . S
C1285 C1286 1.378 . S
C1285 C1312 1.486 . S
C1286 H1248 0.930 . S
C1286 C1285 1.378 . S
C1286 C1287 1.376 . S
C1287 H1249 0.929 . S
C1287 C1282 1.397 . S
C1287 C1286 1.376 . S
C1288 C1272 1.509 . S
C1288 C1289 1.391 . S
C1288 C1293 1.386 . S
C1289 H1250 0.930 . S
C1289 C1288 1.391 . S
C1289 C1290 1.375 . S
C1290 H1251 0.931 . S
C1290 C1289 1.375 . S
C1290 C1291 1.375 . S
C1291 C1290 1.375 . S
C1291 C1292 1.361 . S
C1292 H1252 0.930 . S
C1292 C1291 1.361 . S
C1292 C1293 1.399 . S
C1293 H1253 0.929 . S
C1293 C1288 1.386 . S
C1293 C1292 1.399 . S
C1294 C1273 1.485 . S
C1294 C1295 1.394 . S
C1294 C1299 1.360 . S
C1295 H1254 0.931 . S
C1295 C1294 1.394 . S
C1295 C1296 1.372 . S
C1296 H1255 0.930 . S
C1296 C1295 1.372 . S
C1296 C1297 1.397 . S
C1297 C1296 1.397 . S
C1297 C1298 1.390 . S
C1297 C1313 1.476 . S
C1298 H1256 0.930 . S
C1298 C1297 1.390 . S
C1298 C1299 1.366 . S
C1299 H1257 0.932 . S
C1299 C1294 1.360 . S
C1299 C1298 1.366 . S
C1300 C1274 1.490 . S
C1300 C1301 1.380 . S
C1300 C1305 1.386 . S
C1301 H1258 0.930 . S
C1301 C1300 1.380 . S
C1301 C1302 1.381 . S
C1302 H1259 0.929 . S
C1302 C1301 1.381 . S
C1302 C1303 1.371 . S
C1303 C1302 1.371 . S
C1303 C1304 1.380 . S
C1304 H1260 0.931 . S
C1304 C1303 1.380 . S
C1304 C1305 1.387 . S
C1305 H1261 0.930 . S
C1305 C1300 1.386 . S
C1305 C1304 1.387 . S
C1306 C1275 1.519 . S
C1306 C1307 1.377 . S
C1306 C1311 1.361 . S
C1307 H1262 0.929 . S
C1307 C1306 1.377 . S
C1307 C1308 1.386 . S
C1308 H1263 0.931 . S
C1308 C1307 1.386 . S
C1308 C1309 1.363 . S
C1309 C1308 1.363 . S
C1309 C1310 1.385 . S
C1310 H1264 0.930 . S
C1310 C1309 1.385 . S
C1310 C1311 1.396 . S
C1311 H1265 0.929 . S
C1311 C1306 1.361 . S
C1311 C1310 1.396 . S
C1312 O1266 1.300 . S
C1312 O1267 1.209 . S
C1312 C1285 1.486 . S
C1313 O1268 1.199 . S
C1313 O1269 1.297 . S
C1313 C1297 1.476 . S
H1314 O1340 0.856 . S
H1315 O1343 0.854 . S
H1316 C1351 0.930 . S
H1317 C1352 0.930 . S
H1318 C1354 0.930 . S
H1319 C1355 0.930 . S
H1320 C1357 0.931 . S
H1321 C1358 0.930 . S
H1322 C1360 0.930 . S
H1323 C1361 0.929 . S
H1324 C1363 0.930 . S
H1325 C1364 0.931 . S
H1326 C1366 0.930 . S
H1327 C1367 0.929 . S
H1328 C1369 0.931 . S
H1329 C1370 0.930 . S
H1330 C1372 0.930 . S
H1331 C1373 0.932 . S
H1332 C1375 0.930 . S
H1333 C1376 0.929 . S
H1334 C1378 0.931 . S
H1335 C1379 0.930 . S
H1336 C1381 0.929 . S
H1337 C1382 0.931 . S
H1338 C1384 0.930 . S
H1339 C1385 0.929 . S
O1340 H1314 0.856 . S
O1340 C1386 1.300 . S
O1341 C1386 1.209 . S
O1342 C1387 1.199 . S
O1343 H1315 0.854 . S
O1343 C1387 1.297 . S
C1344 C1345 1.404 . S
C1344 C1349 1.397 . S
C1344 C1350 1.492 . S
C1345 C1344 1.404 . S
C1345 C1346 1.396 . S
C1345 C1356 1.492 . S
C1346 C1345 1.396 . S
C1346 C1347 1.397 . S
C1346 C1362 1.509 . S
C1347 C1346 1.397 . S
C1347 C1348 1.412 . S
C1347 C1368 1.485 . S
C1348 C1347 1.412 . S
C1348 C1349 1.388 . S
C1348 C1374 1.490 . S
C1349 C1344 1.397 . S
C1349 C1348 1.388 . S
C1349 C1380 1.519 . S
C1350 C1344 1.492 . S
C1350 C1351 1.363 . S
C1350 C1355 1.390 . S
C1351 H1316 0.930 . S
C1351 C1350 1.363 . S
C1351 C1352 1.372 . S
C1352 H1317 0.930 . S
C1352 C1351 1.372 . S
C1352 C1353 1.383 . S
C1353 C1352 1.383 . S
C1353 C1354 1.395 . S
C1354 H1318 0.930 . S
C1354 C1353 1.395 . S
C1354 C1355 1.362 . S
C1355 H1319 0.930 . S
C1355 C1350 1.390 . S
C1355 C1354 1.362 . S
C1356 C1345 1.492 . S
C1356 C1357 1.377 . S
C1356 C1361 1.397 . S
C1357 H1320 0.931 . S
C1357 C1356 1.377 . S
C1357 C1358 1.376 . S
C1358 H1321 0.930 . S
C1358 C1357 1.376 . S
C1358 C1359 1.376 . S
C1359 C1358 1.376 . S
C1359 C1360 1.378 . S
C1359 C1386 1.486 . S
C1360 H1322 0.930 . S
C1360 C1359 1.378 . S
C1360 C1361 1.376 . S
C1361 H1323 0.929 . S
C1361 C1356 1.397 . S
C1361 C1360 1.376 . S
C1362 C1346 1.509 . S
C1362 C1363 1.391 . S
C1362 C1367 1.386 . S
C1363 H1324 0.930 . S
C1363 C1362 1.391 . S
C1363 C1364 1.375 . S
C1364 H1325 0.931 . S
C1364 C1363 1.375 . S
C1364 C1365 1.375 . S
C1365 C1364 1.375 . S
C1365 C1366 1.361 . S
C1366 H1326 0.930 . S
C1366 C1365 1.361 . S
C1366 C1367 1.399 . S
C1367 H1327 0.929 . S
C1367 C1362 1.386 . S
C1367 C1366 1.399 . S
C1368 C1347 1.485 . S
C1368 C1369 1.394 . S
C1368 C1373 1.360 . S
C1369 H1328 0.931 . S
C1369 C1368 1.394 . S
C1369 C1370 1.372 . S
C1370 H1329 0.930 . S
C1370 C1369 1.372 . S
C1370 C1371 1.397 . S
C1371 C1370 1.397 . S
C1371 C1372 1.390 . S
C1371 C1387 1.476 . S
C1372 H1330 0.930 . S
C1372 C1371 1.390 . S
C1372 C1373 1.366 . S
C1373 H1331 0.932 . S
C1373 C1368 1.360 . S
C1373 C1372 1.366 . S
C1374 C1348 1.490 . S
C1374 C1375 1.380 . S
C1374 C1379 1.386 . S
C1375 H1332 0.930 . S
C1375 C1374 1.380 . S
C1375 C1376 1.381 . S
C1376 H1333 0.929 . S
C1376 C1375 1.381 . S
C1376 C1377 1.371 . S
C1377 C1376 1.371 . S
C1377 C1378 1.380 . S
C1378 H1334 0.931 . S
C1378 C1377 1.380 . S
C1378 C1379 1.387 . S
C1379 H1335 0.930 . S
C1379 C1374 1.386 . S
C1379 C1378 1.387 . S
C1380 C1349 1.519 . S
C1380 C1381 1.377 . S
C1380 C1385 1.361 . S
C1381 H1336 0.929 . S
C1381 C1380 1.377 . S
C1381 C1382 1.386 . S
C1382 H1337 0.931 . S
C1382 C1381 1.386 . S
C1382 C1383 1.363 . S
C1383 C1382 1.363 . S
C1383 C1384 1.385 . S
C1384 H1338 0.930 . S
C1384 C1383 1.385 . S
C1384 C1385 1.396 . S
C1385 H1339 0.929 . S
C1385 C1380 1.361 . S
C1385 C1384 1.396 . S
C1386 O1340 1.300 . S
C1386 O1341 1.209 . S
C1386 C1359 1.486 . S
C1387 O1342 1.199 . S
C1387 O1343 1.297 . S
C1387 C1371 1.476 . S
H1388 O1414 0.856 . S
H1389 O1417 0.854 . S
H1390 C1425 0.930 . S
H1391 C1426 0.930 . S
H1392 C1428 0.930 . S
H1393 C1429 0.930 . S
H1394 C1431 0.931 . S
H1395 C1432 0.930 . S
H1396 C1434 0.930 . S
H1397 C1435 0.929 . S
H1398 C1437 0.930 . S
H1399 C1438 0.931 . S
H1400 C1440 0.930 . S
H1401 C1441 0.929 . S
H1402 C1443 0.931 . S
H1403 C1444 0.930 . S
H1404 C1446 0.930 . S
H1405 C1447 0.932 . S
H1406 C1449 0.930 . S
H1407 C1450 0.929 . S
H1408 C1452 0.931 . S
H1409 C1453 0.930 . S
H1410 C1455 0.929 . S
H1411 C1456 0.931 . S
H1412 C1458 0.930 . S
H1413 C1459 0.929 . S
O1414 H1388 0.856 . S
O1414 C1460 1.300 . S
O1415 C1460 1.209 . S
O1416 C1461 1.199 . S
O1417 H1389 0.854 . S
O1417 C1461 1.297 . S
C1418 C1419 1.404 . S
C1418 C1423 1.397 . S
C1418 C1424 1.492 . S
C1419 C1418 1.404 . S
C1419 C1420 1.396 . S
C1419 C1430 1.492 . S
C1420 C1419 1.396 . S
C1420 C1421 1.397 . S
C1420 C1436 1.509 . S
C1421 C1420 1.397 . S
C1421 C1422 1.412 . S
C1421 C1442 1.485 . S
C1422 C1421 1.412 . S
C1422 C1423 1.388 . S
C1422 C1448 1.490 . S
C1423 C1418 1.397 . S
C1423 C1422 1.388 . S
C1423 C1454 1.519 . S
C1424 C1418 1.492 . S
C1424 C1425 1.363 . S
C1424 C1429 1.390 . S
C1425 H1390 0.930 . S
C1425 C1424 1.363 . S
C1425 C1426 1.372 . S
C1426 H1391 0.930 . S
C1426 C1425 1.372 . S
C1426 C1427 1.383 . S
C1427 C1426 1.383 . S
C1427 C1428 1.395 . S
C1428 H1392 0.930 . S
C1428 C1427 1.395 . S
C1428 C1429 1.362 . S
C1429 H1393 0.930 . S
C1429 C1424 1.390 . S
C1429 C1428 1.362 . S
C1430 C1419 1.492 . S
C1430 C1431 1.377 . S
C1430 C1435 1.397 . S
C1431 H1394 0.931 . S
C1431 C1430 1.377 . S
C1431 C1432 1.376 . S
C1432 H1395 0.930 . S
C1432 C1431 1.376 . S
C1432 C1433 1.376 . S
C1433 C1432 1.376 . S
C1433 C1434 1.378 . S
C1433 C1460 1.486 . S
C1434 H1396 0.930 . S
C1434 C1433 1.378 . S
C1434 C1435 1.376 . S
C1435 H1397 0.929 . S
C1435 C1430 1.397 . S
C1435 C1434 1.376 . S
C1436 C1420 1.509 . S
C1436 C1437 1.391 . S
C1436 C1441 1.386 . S
C1437 H1398 0.930 . S
C1437 C1436 1.391 . S
C1437 C1438 1.375 . S
C1438 H1399 0.931 . S
C1438 C1437 1.375 . S
C1438 C1439 1.375 . S
C1439 C1438 1.375 . S
C1439 C1440 1.361 . S
C1440 H1400 0.930 . S
C1440 C1439 1.361 . S
C1440 C1441 1.399 . S
C1441 H1401 0.929 . S
C1441 C1436 1.386 . S
C1441 C1440 1.399 . S
C1442 C1421 1.485 . S
C1442 C1443 1.394 . S
C1442 C1447 1.360 . S
C1443 H1402 0.931 . S
C1443 C1442 1.394 . S
C1443 C1444 1.372 . S
C1444 H1403 0.930 . S
C1444 C1443 1.372 . S
C1444 C1445 1.397 . S
C1445 C1444 1.397 . S
C1445 C1446 1.390 . S
C1445 C1461 1.476 . S
C1446 H1404 0.930 . S
C1446 C1445 1.390 . S
C1446 C1447 1.366 . S
C1447 H1405 0.932 . S
C1447 C1442 1.360 . S
C1447 C1446 1.366 . S
C1448 C1422 1.490 . S
C1448 C1449 1.380 . S
C1448 C1453 1.386 . S
C1449 H1406 0.930 . S
C1449 C1448 1.380 . S
C1449 C1450 1.381 . S
C1450 H1407 0.929 . S
C1450 C1449 1.381 . S
C1450 C1451 1.371 . S
C1451 C1450 1.371 . S
C1451 C1452 1.380 . S
C1452 H1408 0.931 . S
C1452 C1451 1.380 . S
C1452 C1453 1.387 . S
C1453 H1409 0.930 . S
C1453 C1448 1.386 . S
C1453 C1452 1.387 . S
C1454 C1423 1.519 . S
C1454 C1455 1.377 . S
C1454 C1459 1.361 . S
C1455 H1410 0.929 . S
C1455 C1454 1.377 . S
C1455 C1456 1.386 . S
C1456 H1411 0.931 . S
C1456 C1455 1.386 . S
C1456 C1457 1.363 . S
C1457 C1456 1.363 . S
C1457 C1458 1.385 . S
C1458 H1412 0.930 . S
C1458 C1457 1.385 . S
C1458 C1459 1.396 . S
C1459 H1413 0.929 . S
C1459 C1454 1.361 . S
C1459 C1458 1.396 . S
C1460 O1414 1.300 . S
C1460 O1415 1.209 . S
C1460 C1433 1.486 . S
C1461 O1416 1.199 . S
C1461 O1417 1.297 . S
C1461 C1445 1.476 . S
H1462 O1488 0.856 . S
H1463 O1491 0.854 . S
H1464 C1499 0.930 . S
H1465 C1500 0.930 . S
H1466 C1502 0.930 . S
H1467 C1503 0.930 . S
H1468 C1505 0.931 . S
H1469 C1506 0.930 . S
H1470 C1508 0.930 . S
H1471 C1509 0.929 . S
H1472 C1511 0.930 . S
H1473 C1512 0.931 . S
H1474 C1514 0.930 . S
H1475 C1515 0.929 . S
H1476 C1517 0.931 . S
H1477 C1518 0.930 . S
H1478 C1520 0.930 . S
H1479 C1521 0.932 . S
H1480 C1523 0.930 . S
H1481 C1524 0.929 . S
H1482 C1526 0.931 . S
H1483 C1527 0.930 . S
H1484 C1529 0.929 . S
H1485 C1530 0.931 . S
H1486 C1532 0.930 . S
H1487 C1533 0.929 . S
O1488 H1462 0.856 . S
O1488 C1534 1.300 . S
O1489 C1534 1.209 . S
O1490 C1535 1.199 . S
O1491 H1463 0.854 . S
O1491 C1535 1.297 . S
C1492 C1493 1.404 . S
C1492 C1497 1.397 . S
C1492 C1498 1.492 . S
C1493 C1492 1.404 . S
C1493 C1494 1.396 . S
C1493 C1504 1.492 . S
C1494 C1493 1.396 . S
C1494 C1495 1.397 . S
C1494 C1510 1.509 . S
C1495 C1494 1.397 . S
C1495 C1496 1.412 . S
C1495 C1516 1.485 . S
C1496 C1495 1.412 . S
C1496 C1497 1.388 . S
C1496 C1522 1.490 . S
C1497 C1492 1.397 . S
C1497 C1496 1.388 . S
C1497 C1528 1.519 . S
C1498 C1492 1.492 . S
C1498 C1499 1.363 . S
C1498 C1503 1.390 . S
C1499 H1464 0.930 . S
C1499 C1498 1.363 . S
C1499 C1500 1.372 . S
C1500 H1465 0.930 . S
C1500 C1499 1.372 . S
C1500 C1501 1.383 . S
C1501 C1500 1.383 . S
C1501 C1502 1.395 . S
C1502 H1466 0.930 . S
C1502 C1501 1.395 . S
C1502 C1503 1.362 . S
C1503 H1467 0.930 . S
C1503 C1498 1.390 . S
C1503 C1502 1.362 . S
C1504 C1493 1.492 . S
C1504 C1505 1.377 . S
C1504 C1509 1.397 . S
C1505 H1468 0.931 . S
C1505 C1504 1.377 . S
C1505 C1506 1.376 . S
C1506 H1469 0.930 . S
C1506 C1505 1.376 . S
C1506 C1507 1.376 . S
C1507 C1506 1.376 . S
C1507 C1508 1.378 . S
C1507 C1534 1.486 . S
C1508 H1470 0.930 . S
C1508 C1507 1.378 . S
C1508 C1509 1.376 . S
C1509 H1471 0.929 . S
C1509 C1504 1.397 . S
C1509 C1508 1.376 . S
C1510 C1494 1.509 . S
C1510 C1511 1.391 . S
C1510 C1515 1.386 . S
C1511 H1472 0.930 . S
C1511 C1510 1.391 . S
C1511 C1512 1.375 . S
C1512 H1473 0.931 . S
C1512 C1511 1.375 . S
C1512 C1513 1.375 . S
C1513 C1512 1.375 . S
C1513 C1514 1.361 . S
C1514 H1474 0.930 . S
C1514 C1513 1.361 . S
C1514 C1515 1.399 . S
C1515 H1475 0.929 . S
C1515 C1510 1.386 . S
C1515 C1514 1.399 . S
C1516 C1495 1.485 . S
C1516 C1517 1.394 . S
C1516 C1521 1.360 . S
C1517 H1476 0.931 . S
C1517 C1516 1.394 . S
C1517 C1518 1.372 . S
C1518 H1477 0.930 . S
C1518 C1517 1.372 . S
C1518 C1519 1.397 . S
C1519 C1518 1.397 . S
C1519 C1520 1.390 . S
C1519 C1535 1.476 . S
C1520 H1478 0.930 . S
C1520 C1519 1.390 . S
C1520 C1521 1.366 . S
C1521 H1479 0.932 . S
C1521 C1516 1.360 . S
C1521 C1520 1.366 . S
C1522 C1496 1.490 . S
C1522 C1523 1.380 . S
C1522 C1527 1.386 . S
C1523 H1480 0.930 . S
C1523 C1522 1.380 . S
C1523 C1524 1.381 . S
C1524 H1481 0.929 . S
C1524 C1523 1.381 . S
C1524 C1525 1.371 . S
C1525 C1524 1.371 . S
C1525 C1526 1.380 . S
C1526 H1482 0.931 . S
C1526 C1525 1.380 . S
C1526 C1527 1.387 . S
C1527 H1483 0.930 . S
C1527 C1522 1.386 . S
C1527 C1526 1.387 . S
C1528 C1497 1.519 . S
C1528 C1529 1.377 . S
C1528 C1533 1.361 . S
C1529 H1484 0.929 . S
C1529 C1528 1.377 . S
C1529 C1530 1.386 . S
C1530 H1485 0.931 . S
C1530 C1529 1.386 . S
C1530 C1531 1.363 . S
C1531 C1530 1.363 . S
C1531 C1532 1.385 . S
C1532 H1486 0.930 . S
C1532 C1531 1.385 . S
C1532 C1533 1.396 . S
C1533 H1487 0.929 . S
C1533 C1528 1.361 . S
C1533 C1532 1.396 . S
C1534 O1488 1.300 . S
C1534 O1489 1.209 . S
C1534 C1507 1.486 . S
C1535 O1490 1.199 . S
C1535 O1491 1.297 . S
C1535 C1519 1.476 . S
H1536 O1562 0.856 . S
H1537 O1565 0.854 . S
H1538 C1573 0.930 . S
H1539 C1574 0.930 . S
H1540 C1576 0.930 . S
H1541 C1577 0.930 . S
H1542 C1579 0.931 . S
H1543 C1580 0.930 . S
H1544 C1582 0.930 . S
H1545 C1583 0.929 . S
H1546 C1585 0.930 . S
H1547 C1586 0.931 . S
H1548 C1588 0.930 . S
H1549 C1589 0.929 . S
H1550 C1591 0.931 . S
H1551 C1592 0.930 . S
H1552 C1594 0.930 . S
H1553 C1595 0.932 . S
H1554 C1597 0.930 . S
H1555 C1598 0.929 . S
H1556 C1600 0.931 . S
H1557 C1601 0.930 . S
H1558 C1603 0.929 . S
H1559 C1604 0.931 . S
H1560 C1606 0.930 . S
H1561 C1607 0.929 . S
O1562 H1536 0.856 . S
O1562 C1608 1.300 . S
O1563 C1608 1.209 . S
O1564 C1609 1.199 . S
O1565 H1537 0.854 . S
O1565 C1609 1.297 . S
C1566 C1567 1.404 . S
C1566 C1571 1.397 . S
C1566 C1572 1.492 . S
C1567 C1566 1.404 . S
C1567 C1568 1.396 . S
C1567 C1578 1.492 . S
C1568 C1567 1.396 . S
C1568 C1569 1.397 . S
C1568 C1584 1.509 . S
C1569 C1568 1.397 . S
C1569 C1570 1.412 . S
C1569 C1590 1.485 . S
C1570 C1569 1.412 . S
C1570 C1571 1.388 . S
C1570 C1596 1.490 . S
C1571 C1566 1.397 . S
C1571 C1570 1.388 . S
C1571 C1602 1.519 . S
C1572 C1566 1.492 . S
C1572 C1573 1.363 . S
C1572 C1577 1.390 . S
C1573 H1538 0.930 . S
C1573 C1572 1.363 . S
C1573 C1574 1.372 . S
C1574 H1539 0.930 . S
C1574 C1573 1.372 . S
C1574 C1575 1.383 . S
C1575 C1574 1.383 . S
C1575 C1576 1.395 . S
C1576 H1540 0.930 . S
C1576 C1575 1.395 . S
C1576 C1577 1.362 . S
C1577 H1541 0.930 . S
C1577 C1572 1.390 . S
C1577 C1576 1.362 . S
C1578 C1567 1.492 . S
C1578 C1579 1.377 . S
C1578 C1583 1.397 . S
C1579 H1542 0.931 . S
C1579 C1578 1.377 . S
C1579 C1580 1.376 . S
C1580 H1543 0.930 . S
C1580 C1579 1.376 . S
C1580 C1581 1.376 . S
C1581 C1580 1.376 . S
C1581 C1582 1.378 . S
C1581 C1608 1.486 . S
C1582 H1544 0.930 . S
C1582 C1581 1.378 . S
C1582 C1583 1.376 . S
C1583 H1545 0.929 . S
C1583 C1578 1.397 . S
C1583 C1582 1.376 . S
C1584 C1568 1.509 . S
C1584 C1585 1.391 . S
C1584 C1589 1.386 . S
C1585 H1546 0.930 . S
C1585 C1584 1.391 . S
C1585 C1586 1.375 . S
C1586 H1547 0.931 . S
C1586 C1585 1.375 . S
C1586 C1587 1.375 . S
C1587 C1586 1.375 . S
C1587 C1588 1.361 . S
C1588 H1548 0.930 . S
C1588 C1587 1.361 . S
C1588 C1589 1.399 . S
C1589 H1549 0.929 . S
C1589 C1584 1.386 . S
C1589 C1588 1.399 . S
C1590 C1569 1.485 . S
C1590 C1591 1.394 . S
C1590 C1595 1.360 . S
C1591 H1550 0.931 . S
C1591 C1590 1.394 . S
C1591 C1592 1.372 . S
C1592 H1551 0.930 . S
C1592 C1591 1.372 . S
C1592 C1593 1.397 . S
C1593 C1592 1.397 . S
C1593 C1594 1.390 . S
C1593 C1609 1.476 . S
C1594 H1552 0.930 . S
C1594 C1593 1.390 . S
C1594 C1595 1.366 . S
C1595 H1553 0.932 . S
C1595 C1590 1.360 . S
C1595 C1594 1.366 . S
C1596 C1570 1.490 . S
C1596 C1597 1.380 . S
C1596 C1601 1.386 . S
C1597 H1554 0.930 . S
C1597 C1596 1.380 . S
C1597 C1598 1.381 . S
C1598 H1555 0.929 . S
C1598 C1597 1.381 . S
C1598 C1599 1.371 . S
C1599 C1598 1.371 . S
C1599 C1600 1.380 . S
C1600 H1556 0.931 . S
C1600 C1599 1.380 . S
C1600 C1601 1.387 . S
C1601 H1557 0.930 . S
C1601 C1596 1.386 . S
C1601 C1600 1.387 . S
C1602 C1571 1.519 . S
C1602 C1603 1.377 . S
C1602 C1607 1.361 . S
C1603 H1558 0.929 . S
C1603 C1602 1.377 . S
C1603 C1604 1.386 . S
C1604 H1559 0.931 . S
C1604 C1603 1.386 . S
C1604 C1605 1.363 . S
C1605 C1604 1.363 . S
C1605 C1606 1.385 . S
C1606 H1560 0.930 . S
C1606 C1605 1.385 . S
C1606 C1607 1.396 . S
C1607 H1561 0.929 . S
C1607 C1602 1.361 . S
C1607 C1606 1.396 . S
C1608 O1562 1.300 . S
C1608 O1563 1.209 . S
C1608 C1581 1.486 . S
C1609 O1564 1.199 . S
C1609 O1565 1.297 . S
C1609 C1593 1.476 . S
H1610 O1636 0.856 . S
H1611 O1639 0.854 . S
H1612 C1647 0.930 . S
H1613 C1648 0.930 . S
H1614 C1650 0.930 . S
H1615 C1651 0.930 . S
H1616 C1653 0.931 . S
H1617 C1654 0.930 . S
H1618 C1656 0.930 . S
H1619 C1657 0.929 . S
H1620 C1659 0.930 . S
H1621 C1660 0.931 . S
H1622 C1662 0.930 . S
H1623 C1663 0.929 . S
H1624 C1665 0.931 . S
H1625 C1666 0.930 . S
H1626 C1668 0.930 . S
H1627 C1669 0.932 . S
H1628 C1671 0.930 . S
H1629 C1672 0.929 . S
H1630 C1674 0.931 . S
H1631 C1675 0.930 . S
H1632 C1677 0.929 . S
H1633 C1678 0.931 . S
H1634 C1680 0.930 . S
H1635 C1681 0.929 . S
O1636 H1610 0.856 . S
O1636 C1682 1.300 . S
O1637 C1682 1.209 . S
O1638 C1683 1.199 . S
O1639 H1611 0.854 . S
O1639 C1683 1.297 . S
C1640 C1641 1.404 . S
C1640 C1645 1.397 . S
C1640 C1646 1.492 . S
C1641 C1640 1.404 . S
C1641 C1642 1.396 . S
C1641 C1652 1.492 . S
C1642 C1641 1.396 . S
C1642 C1643 1.397 . S
C1642 C1658 1.509 . S
C1643 C1642 1.397 . S
C1643 C1644 1.412 . S
C1643 C1664 1.485 . S
C1644 C1643 1.412 . S
C1644 C1645 1.388 . S
C1644 C1670 1.490 . S
C1645 C1640 1.397 . S
C1645 C1644 1.388 . S
C1645 C1676 1.519 . S
C1646 C1640 1.492 . S
C1646 C1647 1.363 . S
C1646 C1651 1.390 . S
C1647 H1612 0.930 . S
C1647 C1646 1.363 . S
C1647 C1648 1.372 . S
C1648 H1613 0.930 . S
C1648 C1647 1.372 . S
C1648 C1649 1.383 . S
C1649 C1648 1.383 . S
C1649 C1650 1.395 . S
C1650 H1614 0.930 . S
C1650 C1649 1.395 . S
C1650 C1651 1.362 . S
C1651 H1615 0.930 . S
C1651 C1646 1.390 . S
C1651 C1650 1.362 . S
C1652 C1641 1.492 . S
C1652 C1653 1.377 . S
C1652 C1657 1.397 . S
C1653 H1616 0.931 . S
C1653 C1652 1.377 . S
C1653 C1654 1.376 . S
C1654 H1617 0.930 . S
C1654 C1653 1.376 . S
C1654 C1655 1.376 . S
C1655 C1654 1.376 . S
C1655 C1656 1.378 . S
C1655 C1682 1.486 . S
C1656 H1618 0.930 . S
C1656 C1655 1.378 . S
C1656 C1657 1.376 . S
C1657 H1619 0.929 . S
C1657 C1652 1.397 . S
C1657 C1656 1.376 . S
C1658 C1642 1.509 . S
C1658 C1659 1.391 . S
C1658 C1663 1.386 . S
C1659 H1620 0.930 . S
C1659 C1658 1.391 . S
C1659 C1660 1.375 . S
C1660 H1621 0.931 . S
C1660 C1659 1.375 . S
C1660 C1661 1.375 . S
C1661 C1660 1.375 . S
C1661 C1662 1.361 . S
C1662 H1622 0.930 . S
C1662 C1661 1.361 . S
C1662 C1663 1.399 . S
C1663 H1623 0.929 . S
C1663 C1658 1.386 . S
C1663 C1662 1.399 . S
C1664 C1643 1.485 . S
C1664 C1665 1.394 . S
C1664 C1669 1.360 . S
C1665 H1624 0.931 . S
C1665 C1664 1.394 . S
C1665 C1666 1.372 . S
C1666 H1625 0.930 . S
C1666 C1665 1.372 . S
C1666 C1667 1.397 . S
C1667 C1666 1.397 . S
C1667 C1668 1.390 . S
C1667 C1683 1.476 . S
C1668 H1626 0.930 . S
C1668 C1667 1.390 . S
C1668 C1669 1.366 . S
C1669 H1627 0.932 . S
C1669 C1664 1.360 . S
C1669 C1668 1.366 . S
C1670 C1644 1.490 . S
C1670 C1671 1.380 . S
C1670 C1675 1.386 . S
C1671 H1628 0.930 . S
C1671 C1670 1.380 . S
C1671 C1672 1.381 . S
C1672 H1629 0.929 . S
C1672 C1671 1.381 . S
C1672 C1673 1.371 . S
C1673 C1672 1.371 . S
C1673 C1674 1.380 . S
C1674 H1630 0.931 . S
C1674 C1673 1.380 . S
C1674 C1675 1.387 . S
C1675 H1631 0.930 . S
C1675 C1670 1.386 . S
C1675 C1674 1.387 . S
C1676 C1645 1.519 . S
C1676 C1677 1.377 . S
C1676 C1681 1.361 . S
C1677 H1632 0.929 . S
C1677 C1676 1.377 . S
C1677 C1678 1.386 . S
C1678 H1633 0.931 . S
C1678 C1677 1.386 . S
C1678 C1679 1.363 . S
C1679 C1678 1.363 . S
C1679 C1680 1.385 . S
C1680 H1634 0.930 . S
C1680 C1679 1.385 . S
C1680 C1681 1.396 . S
C1681 H1635 0.929 . S
C1681 C1676 1.361 . S
C1681 C1680 1.396 . S
C1682 O1636 1.300 . S
C1682 O1637 1.209 . S
C1682 C1655 1.486 . S
C1683 O1638 1.199 . S
C1683 O1639 1.297 . S
C1683 C1667 1.476 . S
H1684 O1710 0.856 . S
H1685 O1713 0.854 . S
H1686 C1721 0.930 . S
H1687 C1722 0.930 . S
H1688 C1724 0.930 . S
H1689 C1725 0.930 . S
H1690 C1727 0.931 . S
H1691 C1728 0.930 . S
H1692 C1730 0.930 . S
H1693 C1731 0.929 . S
H1694 C1733 0.930 . S
H1695 C1734 0.931 . S
H1696 C1736 0.930 . S
H1697 C1737 0.929 . S
H1698 C1739 0.931 . S
H1699 C1740 0.930 . S
H1700 C1742 0.930 . S
H1701 C1743 0.932 . S
H1702 C1745 0.930 . S
H1703 C1746 0.929 . S
H1704 C1748 0.931 . S
H1705 C1749 0.930 . S
H1706 C1751 0.929 . S
H1707 C1752 0.931 . S
H1708 C1754 0.930 . S
H1709 C1755 0.929 . S
O1710 H1684 0.856 . S
O1710 C1756 1.300 . S
O1711 C1756 1.209 . S
O1712 C1757 1.199 . S
O1713 H1685 0.854 . S
O1713 C1757 1.297 . S
C1714 C1715 1.404 . S
C1714 C1719 1.397 . S
C1714 C1720 1.492 . S
C1715 C1714 1.404 . S
C1715 C1716 1.396 . S
C1715 C1726 1.492 . S
C1716 C1715 1.396 . S
C1716 C1717 1.397 . S
C1716 C1732 1.509 . S
C1717 C1716 1.397 . S
C1717 C1718 1.412 . S
C1717 C1738 1.485 . S
C1718 C1717 1.412 . S
C1718 C1719 1.388 . S
C1718 C1744 1.490 . S
C1719 C1714 1.397 . S
C1719 C1718 1.388 . S
C1719 C1750 1.519 . S
C1720 C1714 1.492 . S
C1720 C1721 1.363 . S
C1720 C1725 1.390 . S
C1721 H1686 0.930 . S
C1721 C1720 1.363 . S
C1721 C1722 1.372 . S
C1722 H1687 0.930 . S
C1722 C1721 1.372 . S
C1722 C1723 1.383 . S
C1723 C1722 1.383 . S
C1723 C1724 1.395 . S
C1724 H1688 0.930 . S
C1724 C1723 1.395 . S
C1724 C1725 1.362 . S
C1725 H1689 0.930 . S
C1725 C1720 1.390 . S
C1725 C1724 1.362 . S
C1726 C1715 1.492 . S
C1726 C1727 1.377 . S
C1726 C1731 1.397 . S
C1727 H1690 0.931 . S
C1727 C1726 1.377 . S
C1727 C1728 1.376 . S
C1728 H1691 0.930 . S
C1728 C1727 1.376 . S
C1728 C1729 1.376 . S
C1729 C1728 1.376 . S
C1729 C1730 1.378 . S
C1729 C1756 1.486 . S
C1730 H1692 0.930 . S
C1730 C1729 1.378 . S
C1730 C1731 1.376 . S
C1731 H1693 0.929 . S
C1731 C1726 1.397 . S
C1731 C1730 1.376 . S
C1732 C1716 1.509 . S
C1732 C1733 1.391 . S
C1732 C1737 1.386 . S
C1733 H1694 0.930 . S
C1733 C1732 1.391 . S
C1733 C1734 1.375 . S
C1734 H1695 0.931 . S
C1734 C1733 1.375 . S
C1734 C1735 1.375 . S
C1735 C1734 1.375 . S
C1735 C1736 1.361 . S
C1736 H1696 0.930 . S
C1736 C1735 1.361 . S
C1736 C1737 1.399 . S
C1737 H1697 0.929 . S
C1737 C1732 1.386 . S
C1737 C1736 1.399 . S
C1738 C1717 1.485 . S
C1738 C1739 1.394 . S
C1738 C1743 1.360 . S
C1739 H1698 0.931 . S
C1739 C1738 1.394 . S
C1739 C1740 1.372 . S
C1740 H1699 0.930 . S
C1740 C1739 1.372 . S
C1740 C1741 1.397 . S
C1741 C1740 1.397 . S
C1741 C1742 1.390 . S
C1741 C1757 1.476 . S
C1742 H1700 0.930 . S
C1742 C1741 1.390 . S
C1742 C1743 1.366 . S
C1743 H1701 0.932 . S
C1743 C1738 1.360 . S
C1743 C1742 1.366 . S
C1744 C1718 1.490 . S
C1744 C1745 1.380 . S
C1744 C1749 1.386 . S
C1745 H1702 0.930 . S
C1745 C1744 1.380 . S
C1745 C1746 1.381 . S
C1746 H1703 0.929 . S
C1746 C1745 1.381 . S
C1746 C1747 1.371 . S
C1747 C1746 1.371 . S
C1747 C1748 1.380 . S
C1748 H1704 0.931 . S
C1748 C1747 1.380 . S
C1748 C1749 1.387 . S
C1749 H1705 0.930 . S
C1749 C1744 1.386 . S
C1749 C1748 1.387 . S
C1750 C1719 1.519 . S
C1750 C1751 1.377 . S
C1750 C1755 1.361 . S
C1751 H1706 0.929 . S
C1751 C1750 1.377 . S
C1751 C1752 1.386 . S
C1752 H1707 0.931 . S
C1752 C1751 1.386 . S
C1752 C1753 1.363 . S
C1753 C1752 1.363 . S
C1753 C1754 1.385 . S
C1754 H1708 0.930 . S
C1754 C1753 1.385 . S
C1754 C1755 1.396 . S
C1755 H1709 0.929 . S
C1755 C1750 1.361 . S
C1755 C1754 1.396 . S
C1756 O1710 1.300 . S
C1756 O1711 1.209 . S
C1756 C1729 1.486 . S
C1757 O1712 1.199 . S
C1757 O1713 1.297 . S
C1757 C1741 1.476 . S
H1758 O1784 0.856 . S
H1759 O1787 0.854 . S
H1760 C1795 0.930 . S
H1761 C1796 0.930 . S
H1762 C1798 0.930 . S
H1763 C1799 0.930 . S
H1764 C1801 0.931 . S
H1765 C1802 0.930 . S
H1766 C1804 0.930 . S
H1767 C1805 0.929 . S
H1768 C1807 0.930 . S
H1769 C1808 0.931 . S
H1770 C1810 0.930 . S
H1771 C1811 0.929 . S
H1772 C1813 0.931 . S
H1773 C1814 0.930 . S
H1774 C1816 0.930 . S
H1775 C1817 0.932 . S
H1776 C1819 0.930 . S
H1777 C1820 0.929 . S
H1778 C1822 0.931 . S
H1779 C1823 0.930 . S
H1780 C1825 0.929 . S
H1781 C1826 0.931 . S
H1782 C1828 0.930 . S
H1783 C1829 0.929 . S
O1784 H1758 0.856 . S
O1784 C1830 1.300 . S
O1785 C1830 1.209 . S
O1786 C1831 1.199 . S
O1787 H1759 0.854 . S
O1787 C1831 1.297 . S
C1788 C1789 1.404 . S
C1788 C1793 1.397 . S
C1788 C1794 1.492 . S
C1789 C1788 1.404 . S
C1789 C1790 1.396 . S
C1789 C1800 1.492 . S
C1790 C1789 1.396 . S
C1790 C1791 1.397 . S
C1790 C1806 1.509 . S
C1791 C1790 1.397 . S
C1791 C1792 1.412 . S
C1791 C1812 1.485 . S
C1792 C1791 1.412 . S
C1792 C1793 1.388 . S
C1792 C1818 1.490 . S
C1793 C1788 1.397 . S
C1793 C1792 1.388 . S
C1793 C1824 1.519 . S
C1794 C1788 1.492 . S
C1794 C1795 1.363 . S
C1794 C1799 1.390 . S
C1795 H1760 0.930 . S
C1795 C1794 1.363 . S
C1795 C1796 1.372 . S
C1796 H1761 0.930 . S
C1796 C1795 1.372 . S
C1796 C1797 1.383 . S
C1797 C1796 1.383 . S
C1797 C1798 1.395 . S
C1798 H1762 0.930 . S
C1798 C1797 1.395 . S
C1798 C1799 1.362 . S
C1799 H1763 0.930 . S
C1799 C1794 1.390 . S
C1799 C1798 1.362 . S
C1800 C1789 1.492 . S
C1800 C1801 1.377 . S
C1800 C1805 1.397 . S
C1801 H1764 0.931 . S
C1801 C1800 1.377 . S
C1801 C1802 1.376 . S
C1802 H1765 0.930 . S
C1802 C1801 1.376 . S
C1802 C1803 1.376 . S
C1803 C1802 1.376 . S
C1803 C1804 1.378 . S
C1803 C1830 1.486 . S
C1804 H1766 0.930 . S
C1804 C1803 1.378 . S
C1804 C1805 1.376 . S
C1805 H1767 0.929 . S
C1805 C1800 1.397 . S
C1805 C1804 1.376 . S
C1806 C1790 1.509 . S
C1806 C1807 1.391 . S
C1806 C1811 1.386 . S
C1807 H1768 0.930 . S
C1807 C1806 1.391 . S
C1807 C1808 1.375 . S
C1808 H1769 0.931 . S
C1808 C1807 1.375 . S
C1808 C1809 1.375 . S
C1809 C1808 1.375 . S
C1809 C1810 1.361 . S
C1810 H1770 0.930 . S
C1810 C1809 1.361 . S
C1810 C1811 1.399 . S
C1811 H1771 0.929 . S
C1811 C1806 1.386 . S
C1811 C1810 1.399 . S
C1812 C1791 1.485 . S
C1812 C1813 1.394 . S
C1812 C1817 1.360 . S
C1813 H1772 0.931 . S
C1813 C1812 1.394 . S
C1813 C1814 1.372 . S
C1814 H1773 0.930 . S
C1814 C1813 1.372 . S
C1814 C1815 1.397 . S
C1815 C1814 1.397 . S
C1815 C1816 1.390 . S
C1815 C1831 1.476 . S
C1816 H1774 0.930 . S
C1816 C1815 1.390 . S
C1816 C1817 1.366 . S
C1817 H1775 0.932 . S
C1817 C1812 1.360 . S
C1817 C1816 1.366 . S
C1818 C1792 1.490 . S
C1818 C1819 1.380 . S
C1818 C1823 1.386 . S
C1819 H1776 0.930 . S
C1819 C1818 1.380 . S
C1819 C1820 1.381 . S
C1820 H1777 0.929 . S
C1820 C1819 1.381 . S
C1820 C1821 1.371 . S
C1821 C1820 1.371 . S
C1821 C1822 1.380 . S
C1822 H1778 0.931 . S
C1822 C1821 1.380 . S
C1822 C1823 1.387 . S
C1823 H1779 0.930 . S
C1823 C1818 1.386 . S
C1823 C1822 1.387 . S
C1824 C1793 1.519 . S
C1824 C1825 1.377 . S
C1824 C1829 1.361 . S
C1825 H1780 0.929 . S
C1825 C1824 1.377 . S
C1825 C1826 1.386 . S
C1826 H1781 0.931 . S
C1826 C1825 1.386 . S
C1826 C1827 1.363 . S
C1827 C1826 1.363 . S
C1827 C1828 1.385 . S
C1828 H1782 0.930 . S
C1828 C1827 1.385 . S
C1828 C1829 1.396 . S
C1829 H1783 0.929 . S
C1829 C1824 1.361 . S
C1829 C1828 1.396 . S
C1830 O1784 1.300 . S
C1830 O1785 1.209 . S
C1830 C1803 1.486 . S
C1831 O1786 1.199 . S
C1831 O1787 1.297 . S
C1831 C1815 1.476 . S
H1832 O1858 0.856 . S
H1833 O1861 0.854 . S
H1834 C1869 0.930 . S
H1835 C1870 0.930 . S
H1836 C1872 0.930 . S
H1837 C1873 0.930 . S
H1838 C1875 0.931 . S
H1839 C1876 0.930 . S
H1840 C1878 0.930 . S
H1841 C1879 0.929 . S
H1842 C1881 0.930 . S
H1843 C1882 0.931 . S
H1844 C1884 0.930 . S
H1845 C1885 0.929 . S
H1846 C1887 0.931 . S
H1847 C1888 0.930 . S
H1848 C1890 0.930 . S
H1849 C1891 0.932 . S
H1850 C1893 0.930 . S
H1851 C1894 0.929 . S
H1852 C1896 0.931 . S
H1853 C1897 0.930 . S
H1854 C1899 0.929 . S
H1855 C1900 0.931 . S
H1856 C1902 0.930 . S
H1857 C1903 0.929 . S
O1858 H1832 0.856 . S
O1858 C1904 1.300 . S
O1859 C1904 1.209 . S
O1860 C1905 1.199 . S
O1861 H1833 0.854 . S
O1861 C1905 1.297 . S
C1862 C1863 1.404 . S
C1862 C1867 1.397 . S
C1862 C1868 1.492 . S
C1863 C1862 1.404 . S
C1863 C1864 1.396 . S
C1863 C1874 1.492 . S
C1864 C1863 1.396 . S
C1864 C1865 1.397 . S
C1864 C1880 1.509 . S
C1865 C1864 1.397 . S
C1865 C1866 1.412 . S
C1865 C1886 1.485 . S
C1866 C1865 1.412 . S
C1866 C1867 1.388 . S
C1866 C1892 1.490 . S
C1867 C1862 1.397 . S
C1867 C1866 1.388 . S
C1867 C1898 1.519 . S
C1868 C1862 1.492 . S
C1868 C1869 1.363 . S
C1868 C1873 1.390 . S
C1869 H1834 0.930 . S
C1869 C1868 1.363 . S
C1869 C1870 1.372 . S
C1870 H1835 0.930 . S
C1870 C1869 1.372 . S
C1870 C1871 1.383 . S
C1871 C1870 1.383 . S
C1871 C1872 1.395 . S
C1872 H1836 0.930 . S
C1872 C1871 1.395 . S
C1872 C1873 1.362 . S
C1873 H1837 0.930 . S
C1873 C1868 1.390 . S
C1873 C1872 1.362 . S
C1874 C1863 1.492 . S
C1874 C1875 1.377 . S
C1874 C1879 1.397 . S
C1875 H1838 0.931 . S
C1875 C1874 1.377 . S
C1875 C1876 1.376 . S
C1876 H1839 0.930 . S
C1876 C1875 1.376 . S
C1876 C1877 1.376 . S
C1877 C1876 1.376 . S
C1877 C1878 1.378 . S
C1877 C1904 1.486 . S
C1878 H1840 0.930 . S
C1878 C1877 1.378 . S
C1878 C1879 1.376 . S
C1879 H1841 0.929 . S
C1879 C1874 1.397 . S
C1879 C1878 1.376 . S
C1880 C1864 1.509 . S
C1880 C1881 1.391 . S
C1880 C1885 1.386 . S
C1881 H1842 0.930 . S
C1881 C1880 1.391 . S
C1881 C1882 1.375 . S
C1882 H1843 0.931 . S
C1882 C1881 1.375 . S
C1882 C1883 1.375 . S
C1883 C1882 1.375 . S
C1883 C1884 1.361 . S
C1884 H1844 0.930 . S
C1884 C1883 1.361 . S
C1884 C1885 1.399 . S
C1885 H1845 0.929 . S
C1885 C1880 1.386 . S
C1885 C1884 1.399 . S
C1886 C1865 1.485 . S
C1886 C1887 1.394 . S
C1886 C1891 1.360 . S
C1887 H1846 0.931 . S
C1887 C1886 1.394 . S
C1887 C1888 1.372 . S
C1888 H1847 0.930 . S
C1888 C1887 1.372 . S
C1888 C1889 1.397 . S
C1889 C1888 1.397 . S
C1889 C1890 1.390 . S
C1889 C1905 1.476 . S
C1890 H1848 0.930 . S
C1890 C1889 1.390 . S
C1890 C1891 1.366 . S
C1891 H1849 0.932 . S
C1891 C1886 1.360 . S
C1891 C1890 1.366 . S
C1892 C1866 1.490 . S
C1892 C1893 1.380 . S
C1892 C1897 1.386 . S
C1893 H1850 0.930 . S
C1893 C1892 1.380 . S
C1893 C1894 1.381 . S
C1894 H1851 0.929 . S
C1894 C1893 1.381 . S
C1894 C1895 1.371 . S
C1895 C1894 1.371 . S
C1895 C1896 1.380 . S
C1896 H1852 0.931 . S
C1896 C1895 1.380 . S
C1896 C1897 1.387 . S
C1897 H1853 0.930 . S
C1897 C1892 1.386 . S
C1897 C1896 1.387 . S
C1898 C1867 1.519 . S
C1898 C1899 1.377 . S
C1898 C1903 1.361 . S
C1899 H1854 0.929 . S
C1899 C1898 1.377 . S
C1899 C1900 1.386 . S
C1900 H1855 0.931 . S
C1900 C1899 1.386 . S
C1900 C1901 1.363 . S
C1901 C1900 1.363 . S
C1901 C1902 1.385 . S
C1902 H1856 0.930 . S
C1902 C1901 1.385 . S
C1902 C1903 1.396 . S
C1903 H1857 0.929 . S
C1903 C1898 1.361 . S
C1903 C1902 1.396 . S
C1904 O1858 1.300 . S
C1904 O1859 1.209 . S
C1904 C1877 1.486 . S
C1905 O1860 1.199 . S
C1905 O1861 1.297 . S
C1905 C1889 1.476 . S
H1906 O1932 0.856 . S
H1907 O1935 0.854 . S
H1908 C1943 0.930 . S
H1909 C1944 0.930 . S
H1910 C1946 0.930 . S
H1911 C1947 0.930 . S
H1912 C1949 0.931 . S
H1913 C1950 0.930 . S
H1914 C1952 0.930 . S
H1915 C1953 0.929 . S
H1916 C1955 0.930 . S
H1917 C1956 0.931 . S
H1918 C1958 0.930 . S
H1919 C1959 0.929 . S
H1920 C1961 0.931 . S
H1921 C1962 0.930 . S
H1922 C1964 0.930 . S
H1923 C1965 0.932 . S
H1924 C1967 0.930 . S
H1925 C1968 0.929 . S
H1926 C1970 0.931 . S
H1927 C1971 0.930 . S
H1928 C1973 0.929 . S
H1929 C1974 0.931 . S
H1930 C1976 0.930 . S
H1931 C1977 0.929 . S
O1932 H1906 0.856 . S
O1932 C1978 1.300 . S
O1933 C1978 1.209 . S
O1934 C1979 1.199 . S
O1935 H1907 0.854 . S
O1935 C1979 1.297 . S
C1936 C1937 1.404 . S
C1936 C1941 1.397 . S
C1936 C1942 1.492 . S
C1937 C1936 1.404 . S
C1937 C1938 1.396 . S
C1937 C1948 1.492 . S
C1938 C1937 1.396 . S
C1938 C1939 1.397 . S
C1938 C1954 1.509 . S
C1939 C1938 1.397 . S
C1939 C1940 1.412 . S
C1939 C1960 1.485 . S
C1940 C1939 1.412 . S
C1940 C1941 1.388 . S
C1940 C1966 1.490 . S
C1941 C1936 1.397 . S
C1941 C1940 1.388 . S
C1941 C1972 1.519 . S
C1942 C1936 1.492 . S
C1942 C1943 1.363 . S
C1942 C1947 1.390 . S
C1943 H1908 0.930 . S
C1943 C1942 1.363 . S
C1943 C1944 1.372 . S
C1944 H1909 0.930 . S
C1944 C1943 1.372 . S
C1944 C1945 1.383 . S
C1945 C1944 1.383 . S
C1945 C1946 1.395 . S
C1946 H1910 0.930 . S
C1946 C1945 1.395 . S
C1946 C1947 1.362 . S
C1947 H1911 0.930 . S
C1947 C1942 1.390 . S
C1947 C1946 1.362 . S
C1948 C1937 1.492 . S
C1948 C1949 1.377 . S
C1948 C1953 1.397 . S
C1949 H1912 0.931 . S
C1949 C1948 1.377 . S
C1949 C1950 1.376 . S
C1950 H1913 0.930 . S
C1950 C1949 1.376 . S
C1950 C1951 1.376 . S
C1951 C1950 1.376 . S
C1951 C1952 1.378 . S
C1951 C1978 1.486 . S
C1952 H1914 0.930 . S
C1952 C1951 1.378 . S
C1952 C1953 1.376 . S
C1953 H1915 0.929 . S
C1953 C1948 1.397 . S
C1953 C1952 1.376 . S
C1954 C1938 1.509 . S
C1954 C1955 1.391 . S
C1954 C1959 1.386 . S
C1955 H1916 0.930 . S
C1955 C1954 1.391 . S
C1955 C1956 1.375 . S
C1956 H1917 0.931 . S
C1956 C1955 1.375 . S
C1956 C1957 1.375 . S
C1957 C1956 1.375 . S
C1957 C1958 1.361 . S
C1958 H1918 0.930 . S
C1958 C1957 1.361 . S
C1958 C1959 1.399 . S
C1959 H1919 0.929 . S
C1959 C1954 1.386 . S
C1959 C1958 1.399 . S
C1960 C1939 1.485 . S
C1960 C1961 1.394 . S
C1960 C1965 1.360 . S
C1961 H1920 0.931 . S
C1961 C1960 1.394 . S
C1961 C1962 1.372 . S
C1962 H1921 0.930 . S
C1962 C1961 1.372 . S
C1962 C1963 1.397 . S
C1963 C1962 1.397 . S
C1963 C1964 1.390 . S
C1963 C1979 1.476 . S
C1964 H1922 0.930 . S
C1964 C1963 1.390 . S
C1964 C1965 1.366 . S
C1965 H1923 0.932 . S
C1965 C1960 1.360 . S
C1965 C1964 1.366 . S
C1966 C1940 1.490 . S
C1966 C1967 1.380 . S
C1966 C1971 1.386 . S
C1967 H1924 0.930 . S
C1967 C1966 1.380 . S
C1967 C1968 1.381 . S
C1968 H1925 0.929 . S
C1968 C1967 1.381 . S
C1968 C1969 1.371 . S
C1969 C1968 1.371 . S
C1969 C1970 1.380 . S
C1970 H1926 0.931 . S
C1970 C1969 1.380 . S
C1970 C1971 1.387 . S
C1971 H1927 0.930 . S
C1971 C1966 1.386 . S
C1971 C1970 1.387 . S
C1972 C1941 1.519 . S
C1972 C1973 1.377 . S
C1972 C1977 1.361 . S
C1973 H1928 0.929 . S
C1973 C1972 1.377 . S
C1973 C1974 1.386 . S
C1974 H1929 0.931 . S
C1974 C1973 1.386 . S
C1974 C1975 1.363 . S
C1975 C1974 1.363 . S
C1975 C1976 1.385 . S
C1976 H1930 0.930 . S
C1976 C1975 1.385 . S
C1976 C1977 1.396 . S
C1977 H1931 0.929 . S
C1977 C1972 1.361 . S
C1977 C1976 1.396 . S
C1978 O1932 1.300 . S
C1978 O1933 1.209 . S
C1978 C1951 1.486 . S
C1979 O1934 1.199 . S
C1979 O1935 1.297 . S
C1979 C1963 1.476 . S
H1980 O2006 0.856 . S
H1981 O2009 0.854 . S
H1982 C2017 0.930 . S
H1983 C2018 0.930 . S
H1984 C2020 0.930 . S
H1985 C2021 0.930 . S
H1986 C2023 0.931 . S
H1987 C2024 0.930 . S
H1988 C2026 0.930 . S
H1989 C2027 0.929 . S
H1990 C2029 0.930 . S
H1991 C2030 0.931 . S
H1992 C2032 0.930 . S
H1993 C2033 0.929 . S
H1994 C2035 0.931 . S
H1995 C2036 0.930 . S
H1996 C2038 0.930 . S
H1997 C2039 0.932 . S
H1998 C2041 0.930 . S
H1999 C2042 0.929 . S
H2000 C2044 0.931 . S
H2001 C2045 0.930 . S
H2002 C2047 0.929 . S
H2003 C2048 0.931 . S
H2004 C2050 0.930 . S
H2005 C2051 0.929 . S
O2006 H1980 0.856 . S
O2006 C2052 1.300 . S
O2007 C2052 1.209 . S
O2008 C2053 1.199 . S
O2009 H1981 0.854 . S
O2009 C2053 1.297 . S
C2010 C2011 1.404 . S
C2010 C2015 1.397 . S
C2010 C2016 1.492 . S
C2011 C2010 1.404 . S
C2011 C2012 1.396 . S
C2011 C2022 1.492 . S
C2012 C2011 1.396 . S
C2012 C2013 1.397 . S
C2012 C2028 1.509 . S
C2013 C2012 1.397 . S
C2013 C2014 1.412 . S
C2013 C2034 1.485 . S
C2014 C2013 1.412 . S
C2014 C2015 1.388 . S
C2014 C2040 1.490 . S
C2015 C2010 1.397 . S
C2015 C2014 1.388 . S
C2015 C2046 1.519 . S
C2016 C2010 1.492 . S
C2016 C2017 1.363 . S
C2016 C2021 1.390 . S
C2017 H1982 0.930 . S
C2017 C2016 1.363 . S
C2017 C2018 1.372 . S
C2018 H1983 0.930 . S
C2018 C2017 1.372 . S
C2018 C2019 1.383 . S
C2019 C2018 1.383 . S
C2019 C2020 1.395 . S
C2020 H1984 0.930 . S
C2020 C2019 1.395 . S
C2020 C2021 1.362 . S
C2021 H1985 0.930 . S
C2021 C2016 1.390 . S
C2021 C2020 1.362 . S
C2022 C2011 1.492 . S
C2022 C2023 1.377 . S
C2022 C2027 1.397 . S
C2023 H1986 0.931 . S
C2023 C2022 1.377 . S
C2023 C2024 1.376 . S
C2024 H1987 0.930 . S
C2024 C2023 1.376 . S
C2024 C2025 1.376 . S
C2025 C2024 1.376 . S
C2025 C2026 1.378 . S
C2025 C2052 1.486 . S
C2026 H1988 0.930 . S
C2026 C2025 1.378 . S
C2026 C2027 1.376 . S
C2027 H1989 0.929 . S
C2027 C2022 1.397 . S
C2027 C2026 1.376 . S
C2028 C2012 1.509 . S
C2028 C2029 1.391 . S
C2028 C2033 1.386 . S
C2029 H1990 0.930 . S
C2029 C2028 1.391 . S
C2029 C2030 1.375 . S
C2030 H1991 0.931 . S
C2030 C2029 1.375 . S
C2030 C2031 1.375 . S
C2031 C2030 1.375 . S
C2031 C2032 1.361 . S
C2032 H1992 0.930 . S
C2032 C2031 1.361 . S
C2032 C2033 1.399 . S
C2033 H1993 0.929 . S
C2033 C2028 1.386 . S
C2033 C2032 1.399 . S
C2034 C2013 1.485 . S
C2034 C2035 1.394 . S
C2034 C2039 1.360 . S
C2035 H1994 0.931 . S
C2035 C2034 1.394 . S
C2035 C2036 1.372 . S
C2036 H1995 0.930 . S
C2036 C2035 1.372 . S
C2036 C2037 1.397 . S
C2037 C2036 1.397 . S
C2037 C2038 1.390 . S
C2037 C2053 1.476 . S
C2038 H1996 0.930 . S
C2038 C2037 1.390 . S
C2038 C2039 1.366 . S
C2039 H1997 0.932 . S
C2039 C2034 1.360 . S
C2039 C2038 1.366 . S
C2040 C2014 1.490 . S
C2040 C2041 1.380 . S
C2040 C2045 1.386 . S
C2041 H1998 0.930 . S
C2041 C2040 1.380 . S
C2041 C2042 1.381 . S
C2042 H1999 0.929 . S
C2042 C2041 1.381 . S
C2042 C2043 1.371 . S
C2043 C2042 1.371 . S
C2043 C2044 1.380 . S
C2044 H2000 0.931 . S
C2044 C2043 1.380 . S
C2044 C2045 1.387 . S
C2045 H2001 0.930 . S
C2045 C2040 1.386 . S
C2045 C2044 1.387 . S
C2046 C2015 1.519 . S
C2046 C2047 1.377 . S
C2046 C2051 1.361 . S
C2047 H2002 0.929 . S
C2047 C2046 1.377 . S
C2047 C2048 1.386 . S
C2048 H2003 0.931 . S
C2048 C2047 1.386 . S
C2048 C2049 1.363 . S
C2049 C2048 1.363 . S
C2049 C2050 1.385 . S
C2050 H2004 0.930 . S
C2050 C2049 1.385 . S
C2050 C2051 1.396 . S
C2051 H2005 0.929 . S
C2051 C2046 1.361 . S
C2051 C2050 1.396 . S
C2052 O2006 1.300 . S
C2052 O2007 1.209 . S
C2052 C2025 1.486 . S
C2053 O2008 1.199 . S
C2053 O2009 1.297 . S
C2053 C2037 1.476 . S
H2054 O2080 0.856 . S
H2055 O2083 0.854 . S
H2056 C2091 0.930 . S
H2057 C2092 0.930 . S
H2058 C2094 0.930 . S
H2059 C2095 0.930 . S
H2060 C2097 0.931 . S
H2061 C2098 0.930 . S
H2062 C2100 0.930 . S
H2063 C2101 0.929 . S
H2064 C2103 0.930 . S
H2065 C2104 0.931 . S
H2066 C2106 0.930 . S
H2067 C2107 0.929 . S
H2068 C2109 0.931 . S
H2069 C2110 0.930 . S
H2070 C2112 0.930 . S
H2071 C2113 0.932 . S
H2072 C2115 0.930 . S
H2073 C2116 0.929 . S
H2074 C2118 0.931 . S
H2075 C2119 0.930 . S
H2076 C2121 0.929 . S
H2077 C2122 0.931 . S
H2078 C2124 0.930 . S
H2079 C2125 0.929 . S
O2080 H2054 0.856 . S
O2080 C2126 1.300 . S
O2081 C2126 1.209 . S
O2082 C2127 1.199 . S
O2083 H2055 0.854 . S
O2083 C2127 1.297 . S
C2084 C2085 1.404 . S
C2084 C2089 1.397 . S
C2084 C2090 1.492 . S
C2085 C2084 1.404 . S
C2085 C2086 1.396 . S
C2085 C2096 1.492 . S
C2086 C2085 1.396 . S
C2086 C2087 1.397 . S
C2086 C2102 1.509 . S
C2087 C2086 1.397 . S
C2087 C2088 1.412 . S
C2087 C2108 1.485 . S
C2088 C2087 1.412 . S
C2088 C2089 1.388 . S
C2088 C2114 1.490 . S
C2089 C2084 1.397 . S
C2089 C2088 1.388 . S
C2089 C2120 1.519 . S
C2090 C2084 1.492 . S
C2090 C2091 1.363 . S
C2090 C2095 1.390 . S
C2091 H2056 0.930 . S
C2091 C2090 1.363 . S
C2091 C2092 1.372 . S
C2092 H2057 0.930 . S
C2092 C2091 1.372 . S
C2092 C2093 1.383 . S
C2093 C2092 1.383 . S
C2093 C2094 1.395 . S
C2094 H2058 0.930 . S
C2094 C2093 1.395 . S
C2094 C2095 1.362 . S
C2095 H2059 0.930 . S
C2095 C2090 1.390 . S
C2095 C2094 1.362 . S
C2096 C2085 1.492 . S
C2096 C2097 1.377 . S
C2096 C2101 1.397 . S
C2097 H2060 0.931 . S
C2097 C2096 1.377 . S
C2097 C2098 1.376 . S
C2098 H2061 0.930 . S
C2098 C2097 1.376 . S
C2098 C2099 1.376 . S
C2099 C2098 1.376 . S
C2099 C2100 1.378 . S
C2099 C2126 1.486 . S
C2100 H2062 0.930 . S
C2100 C2099 1.378 . S
C2100 C2101 1.376 . S
C2101 H2063 0.929 . S
C2101 C2096 1.397 . S
C2101 C2100 1.376 . S
C2102 C2086 1.509 . S
C2102 C2103 1.391 . S
C2102 C2107 1.386 . S
C2103 H2064 0.930 . S
C2103 C2102 1.391 . S
C2103 C2104 1.375 . S
C2104 H2065 0.931 . S
C2104 C2103 1.375 . S
C2104 C2105 1.375 . S
C2105 C2104 1.375 . S
C2105 C2106 1.361 . S
C2106 H2066 0.930 . S
C2106 C2105 1.361 . S
C2106 C2107 1.399 . S
C2107 H2067 0.929 . S
C2107 C2102 1.386 . S
C2107 C2106 1.399 . S
C2108 C2087 1.485 . S
C2108 C2109 1.394 . S
C2108 C2113 1.360 . S
C2109 H2068 0.931 . S
C2109 C2108 1.394 . S
C2109 C2110 1.372 . S
C2110 H2069 0.930 . S
C2110 C2109 1.372 . S
C2110 C2111 1.397 . S
C2111 C2110 1.397 . S
C2111 C2112 1.390 . S
C2111 C2127 1.476 . S
C2112 H2070 0.930 . S
C2112 C2111 1.390 . S
C2112 C2113 1.366 . S
C2113 H2071 0.932 . S
C2113 C2108 1.360 . S
C2113 C2112 1.366 . S
C2114 C2088 1.490 . S
C2114 C2115 1.380 . S
C2114 C2119 1.386 . S
C2115 H2072 0.930 . S
C2115 C2114 1.380 . S
C2115 C2116 1.381 . S
C2116 H2073 0.929 . S
C2116 C2115 1.381 . S
C2116 C2117 1.371 . S
C2117 C2116 1.371 . S
C2117 C2118 1.380 . S
C2118 H2074 0.931 . S
C2118 C2117 1.380 . S
C2118 C2119 1.387 . S
C2119 H2075 0.930 . S
C2119 C2114 1.386 . S
C2119 C2118 1.387 . S
C2120 C2089 1.519 . S
C2120 C2121 1.377 . S
C2120 C2125 1.361 . S
C2121 H2076 0.929 . S
C2121 C2120 1.377 . S
C2121 C2122 1.386 . S
C2122 H2077 0.931 . S
C2122 C2121 1.386 . S
C2122 C2123 1.363 . S
C2123 C2122 1.363 . S
C2123 C2124 1.385 . S
C2124 H2078 0.930 . S
C2124 C2123 1.385 . S
C2124 C2125 1.396 . S
C2125 H2079 0.929 . S
C2125 C2120 1.361 . S
C2125 C2124 1.396 . S
C2126 O2080 1.300 . S
C2126 O2081 1.209 . S
C2126 C2099 1.486 . S
C2127 O2082 1.199 . S
C2127 O2083 1.297 . S
C2127 C2111 1.476 . S
C403 C7 1.702 . S
C477 C19 1.522 . S
C29 C569 2.276 . S
C637 C41 1.716 . S
C52 C643 2.085 . S
C62 C391 2.729 . S
C73 C465 2.585 . S
C563 C82 2.272 1_554 S
C699 C5 2.117 . S
C16 C773 1.165 . S
C30 C859 2.180 1_655 S
C921 C40 2.777 . S
C49 C995 1.470 . S
C1081 C63 1.707 . S
C74 C1131 1.059 . S
C1229 C85 2.174 1_545 S
C8 C909 1.325 . S
C51 C1087 2.284 . S
C1143 C60 2.098 . S
C71 C1235 1.692 . S
C983 C84 2.893 . S
C761 C27 3.093 . S
C38 C865 1.212 . S
C687 C18 3.252 . S
C1279 C95 3.379 . S
C107 C1353 1.813 . S
C117 C1457 2.895 . S
C1501 C129 1.899 . S
C140 C1513 2.117 . S
C150 C1291 2.682 . S
C161 C1365 2.738 . S
C170 C1451 2.265 . S
C1007 C93 2.228 . S
C104 C1587 1.656 . S
C1161 C118 3.133 . S
C128 C1679 2.491 . S
C137 C711 1.361 . S
C1723 C151 1.961 . S
C162 C847 1.033 . S
C1821 C173 1.927 . S
C96 C1673 2.434 . S
C1735 C139 2.568 . S
C148 C835 1.383 . S
C1827 C159 2.627 . S
C172 C717 3.201 . S
C115 C1575 2.166 . S
C126 C1155 1.161 . S
C106 C1013 1.956 . S
C183 C1427 2.494 . S
C1531 C195 2.276 . S
C205 C1309 2.834 . S
C217 C1383 2.277 . S
C228 C1377 2.325 . S
C238 C1439 1.529 . S
C1525 C249 2.337 . S
C258 C1303 1.896 . S
C1895 C181 2.080 . S
C192 C1069 1.473 . S
C1975 C206 2.938 . S
C216 C1217 2.484 . S
C225 C2049 2.184 . S
C239 C785 1.598 . S
C2105 C250 1.226 . S
C261 C933 2.423 . S
C1205 C184 1.804 . S
C791 C227 2.767 . S
C236 C2093 3.428 . S
C247 C939 1.975 . S
C2043 C260 2.710 . S
C1057 C203 1.744 . S
C1969 C214 0.818 . S
C1901 C194 2.397 . S
C271 C539 2.365 . S
C283 C625 1.317 . S
C415 C293 2.238 . S
C489 C305 2.029 . S
C495 C316 2.727 . S
C551 C326 1.915 . S
C613 C337 1.781 . S
C346 C421 2.402 . S
C269 C2019 2.356 . S
C1753 C280 2.446 . S
C2117 C294 3.011 . S
C1809 C304 2.368 . S
C313 C1883 1.269 . S
C1599 C327 1.589 . S
C1945 C338 0.635 . S
C349 C1649 2.102 . S
C1797 C272 2.232 . S
C1605 C315 2.715 . S
C1957 C324 3.380 . S
C335 C1661 1.607 . S
C348 C1871 2.491 . S
C291 C1747 2.417 . S
C302 C2123 1.849 . S
C2031 C282 2.569 . S
