# Generated by pormake.
# Topology llj, (12,3)-cn, num edge types: 1
# Building blocks:
#     Node 0, Type 0, BuildingBlock: QEWDON_clean_sbu_0, # of connection points: 12
#     Node 1, Type 0, BuildingBlock: QEWDON_clean_sbu_0, # of connection points: 12
#     Node 2, Type 1, BuildingBlock: VETTIZ_charged_linker_0, # of connection points: 3
#     Node 3, Type 1, BuildingBlock: VETTIZ_charged_linker_0, # of connection points: 3
#     Node 4, Type 1, BuildingBlock: VETTIZ_charged_linker_0, # of connection points: 3
#     Node 5, Type 1, BuildingBlock: VETTIZ_charged_linker_0, # of connection points: 3
#     Node 6, Type 1, BuildingBlock: VETTIZ_charged_linker_0, # of connection points: 3
#     Node 7, Type 1, BuildingBlock: VETTIZ_charged_linker_0, # of connection points: 3
#     Node 8, Type 1, BuildingBlock: VETTIZ_charged_linker_0, # of connection points: 3
#     Node 9, Type 1, BuildingBlock: VETTIZ_charged_linker_0, # of connection points: 3
#     Edge 10, Type (0, 1), BuildingBlock: OJICUG_clean_linker_0, # of connection points: 2
#     Edge 11, Type (0, 1), BuildingBlock: OJICUG_clean_linker_0, # of connection points: 2
#     Edge 12, Type (0, 1), BuildingBlock: OJICUG_clean_linker_0, # of connection points: 2
#     Edge 13, Type (0, 1), BuildingBlock: OJICUG_clean_linker_0, # of connection points: 2
#     Edge 14, Type (0, 1), BuildingBlock: OJICUG_clean_linker_0, # of connection points: 2
#     Edge 15, Type (0, 1), BuildingBlock: OJICUG_clean_linker_0, # of connection points: 2
#     Edge 16, Type (0, 1), BuildingBlock: OJICUG_clean_linker_0, # of connection points: 2
#     Edge 17, Type (0, 1), BuildingBlock: OJICUG_clean_linker_0, # of connection points: 2
#     Edge 18, Type (0, 1), BuildingBlock: OJICUG_clean_linker_0, # of connection points: 2
#     Edge 19, Type (0, 1), BuildingBlock: OJICUG_clean_linker_0, # of connection points: 2
#     Edge 20, Type (0, 1), BuildingBlock: OJICUG_clean_linker_0, # of connection points: 2
#     Edge 21, Type (0, 1), BuildingBlock: OJICUG_clean_linker_0, # of connection points: 2
#     Edge 22, Type (0, 1), BuildingBlock: OJICUG_clean_linker_0, # of connection points: 2
#     Edge 23, Type (0, 1), BuildingBlock: OJICUG_clean_linker_0, # of connection points: 2
#     Edge 24, Type (0, 1), BuildingBlock: OJICUG_clean_linker_0, # of connection points: 2
#     Edge 25, Type (0, 1), BuildingBlock: OJICUG_clean_linker_0, # of connection points: 2
#     Edge 26, Type (0, 1), BuildingBlock: OJICUG_clean_linker_0, # of connection points: 2
#     Edge 27, Type (0, 1), BuildingBlock: OJICUG_clean_linker_0, # of connection points: 2
#     Edge 28, Type (0, 1), BuildingBlock: OJICUG_clean_linker_0, # of connection points: 2
#     Edge 29, Type (0, 1), BuildingBlock: OJICUG_clean_linker_0, # of connection points: 2
#     Edge 30, Type (0, 1), BuildingBlock: OJICUG_clean_linker_0, # of connection points: 2
#     Edge 31, Type (0, 1), BuildingBlock: OJICUG_clean_linker_0, # of connection points: 2
#     Edge 32, Type (0, 1), BuildingBlock: OJICUG_clean_linker_0, # of connection points: 2
#     Edge 33, Type (0, 1), BuildingBlock: OJICUG_clean_linker_0, # of connection points: 2
# Relax obj value: 0.012
# Max RMSD: 0.060
# Mean RMSD: 0.055
data_MOF--net-llj--node1-QEWDON_clean_sbu_0--node2-VETTIZ_charged_linker_0--edge1-OJICUG_clean_linker_0
_symmetry_space_group_name_H-M    P1
_symmetry_Int_Tables_number       1
_symmetry_cell_setting            triclinic
loop_
_symmetry_equiv_pos_as_xyz
'x, y, z'
_cell_length_a     35.971641
_cell_length_b     35.941032
_cell_length_c     25.162707
_cell_angle_alpha  89.851275
_cell_angle_beta   90.11487
_cell_angle_gamma 90.019377
loop_
_atom_site_label
_atom_site_type_symbol
_atom_site_fract_x
_atom_site_fract_y
_atom_site_fract_z
_atom_type_partial_charge
Zn0 Zn 0.93147 0.07216 0.94361 0.0
Zn1 Zn 0.94034 0.0776 0.07005 0.0
O2 O 0.96816 0.06665 0.0039 0.0
H3 H 0.98884 0.04962 0.00211 0.0
C4 C 0.92284 0.97464 0.88536 0.0
O5 O 0.89417 0.97297 0.91757 0.0
Zn6 Zn 0.06555 0.92524 0.0745 0.0
Zn7 Zn 0.03793 0.88115 0.97424 0.0
O8 O 0.02836 0.92697 0.01659 0.0
H9 H 0.0118 0.9471 0.00736 0.0
Zn10 Zn 0.94931 0.93552 0.97334 0.0
O11 O 0.94259 0.97704 0.02596 0.0
Zn12 Zn 0.93742 0.94593 0.09107 0.0
H13 H 0.9275 0.99806 0.01551 0.0
Zn14 Zn 0.07243 0.04881 0.93799 0.0
O15 O 0.05887 0.02323 0.0067 0.0
H16 H 0.03912 0.00515 0.00901 0.0
Zn17 Zn 0.07107 0.0587 0.0643 0.0
C18 C 0.07468 0.98003 0.87777 0.0
O19 O 0.06936 0.96657 0.92572 0.0
O20 O 0.88241 0.09627 0.96644 0.0
O21 O 0.89151 0.10479 0.05315 0.0
O22 O 0.09049 0.85945 0.98271 0.0
O23 O 0.10917 0.89223 0.05288 0.0
O24 O 0.91106 0.89411 0.98756 0.0
O25 O 0.90189 0.90304 0.07415 0.0
C26 C 0.00814 0.10331 0.11838 0.0
O27 O 0.10527 0.09559 0.9477 0.0
O28 O 0.10652 0.09832 0.0363 0.0
O29 O 0.0073 0.87656 0.90588 0.0
C30 C 0.87172 0.10871 0.01124 0.0
O31 O 0.95355 0.09015 0.87236 0.0
C32 C 0.00574 0.91082 0.14502 0.0
O33 O 0.9525 0.95778 0.89834 0.0
C34 C 0.11522 0.86783 0.01706 0.0
O35 O 0.07731 0.01507 0.87153 0.0
C36 C 0.92154 0.01365 0.14743 0.0
O37 O 0.97311 0.10797 0.11882 0.0
O38 O 0.02153 0.08089 0.08439 0.0
C39 C 0.8949 0.88566 0.03099 0.0
O40 O 0.04043 0.90519 0.14033 0.0
O41 O 0.98903 0.92706 0.1069 0.0
C42 C 0.09134 0.99534 0.12799 0.0
O43 O 0.92041 0.97841 0.15247 0.0
O44 O 0.93066 0.02704 0.10256 0.0
C45 C 0.11661 0.11046 0.99078 0.0
O46 O 0.09215 0.0307 0.12781 0.0
O47 O 0.08049 0.97869 0.08628 0.0
C48 C 0.97758 0.8576 0.90706 0.0
O49 O 0.96893 0.83918 0.95049 0.0
C50 C 0.98861 0.09344 0.86886 0.0
O51 O 0.00939 0.08472 0.90997 0.0
Zn52 Zn 0.43946 0.5744 0.43523 0.0
Zn53 Zn 0.44798 0.5819 0.55994 0.0
O54 O 0.47704 0.57199 0.49419 0.0
H55 H 0.50337 0.57531 0.48846 0.0
C56 C 0.40662 0.49839 0.38489 0.0
O57 O 0.39013 0.50954 0.4286 0.0
Zn58 Zn 0.56593 0.41313 0.57913 0.0
Zn59 Zn 0.53917 0.36021 0.48776 0.0
O60 O 0.53208 0.41178 0.51685 0.0
H61 H 0.51518 0.43074 0.50424 0.0
Zn62 Zn 0.43213 0.44495 0.46017 0.0
O63 O 0.45101 0.47684 0.52004 0.0
Zn64 Zn 0.43947 0.44797 0.58594 0.0
H65 H 0.47065 0.49495 0.51619 0.0
Zn66 Zn 0.56861 0.54044 0.44027 0.0
O67 O 0.5577 0.51354 0.50912 0.0
H68 H 0.53803 0.49549 0.51313 0.0
Zn69 Zn 0.57333 0.54865 0.56515 0.0
C70 C 0.56894 0.472 0.38054 0.0
O71 O 0.56749 0.45894 0.42924 0.0
O72 O 0.39223 0.60332 0.45578 0.0
O73 O 0.40064 0.61144 0.54252 0.0
O74 O 0.58985 0.33693 0.50634 0.0
O75 O 0.60923 0.37679 0.56808 0.0
O76 O 0.39109 0.40954 0.4839 0.0
O77 O 0.39805 0.40931 0.57182 0.0
C78 C 0.51486 0.60196 0.61282 0.0
O79 O 0.60532 0.58453 0.44827 0.0
O80 O 0.61172 0.58508 0.53642 0.0
O81 O 0.51222 0.34945 0.41709 0.0
C82 C 0.38174 0.61662 0.50012 0.0
O83 O 0.46279 0.58679 0.36289 0.0
C84 C 0.50253 0.40803 0.64619 0.0
O85 O 0.42709 0.46967 0.38667 0.0
C86 C 0.61442 0.34796 0.53938 0.0
O87 O 0.57005 0.50702 0.37332 0.0
C88 C 0.42717 0.51915 0.63717 0.0
O89 O 0.48073 0.61076 0.61004 0.0
O90 O 0.52623 0.57594 0.58291 0.0
C91 C 0.3817 0.39786 0.52971 0.0
O92 O 0.53651 0.39855 0.64392 0.0
O93 O 0.48824 0.42365 0.60557 0.0
C94 C 0.5907 0.48433 0.62988 0.0
O95 O 0.42509 0.48413 0.64419 0.0
O96 O 0.43613 0.53121 0.59134 0.0
C97 C 0.62031 0.59744 0.49038 0.0
O98 O 0.59152 0.51971 0.62933 0.0
O99 O 0.58157 0.46712 0.58767 0.0
C100 C 0.47783 0.35743 0.41686 0.0
O101 O 0.46243 0.36924 0.46099 0.0
C102 C 0.47452 0.61974 0.35608 0.0
O103 O 0.47097 0.64392 0.39482 0.0
C104 C 0.39094 0.36242 0.84329 0.0
C105 C 0.4231 0.38467 0.84302 0.0
C106 C 0.43694 0.39854 0.89155 0.0
C107 C 0.38839 0.36612 0.93946 0.0
C108 C 0.37409 0.35356 0.89176 0.0
C109 C 0.34071 0.3289 0.89931 0.0
H110 H 0.22195 0.24257 0.06724 0.0
C111 C 0.36551 0.35045 0.98264 0.0
C112 C 0.33719 0.32901 0.95939 0.0
H113 H 0.22882 0.23144 0.89616 0.0
H114 H 0.2773 0.27753 0.89373 0.0
H115 H 0.30242 0.23319 0.08442 0.0
H116 H 0.23853 0.33375 0.0755 0.0
H117 H 0.26935 0.33768 0.12979 0.0
H118 H 0.23561 0.30056 0.1288 0.0
H119 H 0.27919 0.2515 0.14157 0.0
H120 H 0.32622 0.26462 0.12511 0.0
C121 C 0.35015 0.2897 0.87747 0.0
C122 C 0.30697 0.34776 0.8721 0.0
C123 C 0.40625 0.3657 0.17455 0.0
C124 C 0.39211 0.35158 0.22261 0.0
C125 C 0.35751 0.33313 0.2224 0.0
C126 C 0.33814 0.32739 0.17485 0.0
C127 C 0.35368 0.33979 0.12682 0.0
C128 C 0.38671 0.35939 0.12728 0.0
C129 C 0.39907 0.37024 0.07232 0.0
C130 C 0.36871 0.35255 0.03876 0.0
C131 C 0.34238 0.33466 0.07096 0.0
C132 C 0.43758 0.35227 0.06232 0.0
C133 C 0.39873 0.4133 0.06817 0.0
C134 C 0.23379 0.24979 0.02907 0.0
C135 C 0.22129 0.23285 0.98191 0.0
C136 C 0.2373 0.24411 0.93322 0.0
C137 C 0.2659 0.27066 0.93187 0.0
C138 C 0.27924 0.28574 0.97972 0.0
C139 C 0.26307 0.27531 0.02719 0.0
C140 C 0.28278 0.29142 0.07452 0.0
C141 C 0.31329 0.31361 0.0476 0.0
C142 C 0.31086 0.31055 0.99211 0.0
C143 C 0.29835 0.25876 0.10857 0.0
C144 C 0.25525 0.31709 0.10421 0.0
H145 H 0.43168 0.4007 0.97526 0.0
H146 H 0.37984 0.35101 0.80675 0.0
H147 H 0.30683 0.37817 0.88027 0.0
H148 H 0.28004 0.33734 0.88688 0.0
H149 H 0.30798 0.34402 0.82832 0.0
H150 H 0.38042 0.28372 0.88092 0.0
H151 H 0.34246 0.28724 0.83485 0.0
H152 H 0.33663 0.26707 0.90011 0.0
H153 H 0.43237 0.38067 0.17356 0.0
H154 H 0.34601 0.32183 0.25877 0.0
H155 H 0.31235 0.31252 0.17718 0.0
H156 H 0.43798 0.32303 0.07692 0.0
H157 H 0.45979 0.36772 0.08361 0.0
H158 H 0.44506 0.35067 0.01995 0.0
H159 H 0.37795 0.42571 0.09562 0.0
H160 H 0.39034 0.42323 0.02825 0.0
H161 H 0.42631 0.42522 0.07844 0.0
H162 H 0.46134 0.41621 0.89227 0.0
C163 C 0.41965 0.38955 0.93968 0.0
C164 C 0.62927 0.3739 0.83461 0.0
C165 C 0.6019 0.40141 0.82654 0.0
C166 C 0.57561 0.40772 0.86716 0.0
C167 C 0.60685 0.36324 0.92408 0.0
C168 C 0.63074 0.35479 0.88306 0.0
C169 C 0.65694 0.32369 0.89727 0.0
H170 H 0.72978 0.20953 0.08444 0.0
C171 C 0.6177 0.3407 0.97061 0.0
C172 C 0.64635 0.31671 0.95485 0.0
H173 H 0.75423 0.21377 0.91614 0.0
H174 H 0.70809 0.26126 0.90386 0.0
H175 H 0.7292 0.293 0.10074 0.0
H176 H 0.63762 0.21877 0.07397 0.0
H177 H 0.6266 0.24878 0.12721 0.0
H178 H 0.6665 0.21875 0.13232 0.0
H179 H 0.70697 0.26937 0.15478 0.0
H180 H 0.69107 0.31422 0.13157 0.0
C181 C 0.69726 0.33839 0.89211 0.0
C182 C 0.64799 0.28982 0.86128 0.0
C183 C 0.57302 0.3797 0.15256 0.0
C184 C 0.58567 0.37092 0.20398 0.0
C185 C 0.60914 0.3398 0.21089 0.0
C186 C 0.62179 0.31952 0.16702 0.0
C187 C 0.61148 0.33082 0.1156 0.0
C188 C 0.58683 0.35996 0.10907 0.0
C189 C 0.58115 0.37006 0.05162 0.0
C190 C 0.6074 0.34288 0.02488 0.0
C191 C 0.62488 0.3198 0.06252 0.0
C192 C 0.59355 0.41108 0.0441 0.0
C193 C 0.54 0.36256 0.03664 0.0
C194 C 0.72514 0.22063 0.04494 0.0
C195 C 0.74554 0.20742 0.00117 0.0
C196 C 0.73846 0.22271 0.95042 0.0
C197 C 0.71176 0.25055 0.94331 0.0
C198 C 0.69195 0.26369 0.98737 0.0
C199 C 0.69853 0.24864 0.03709 0.0
C200 C 0.67525 0.26686 0.07935 0.0
C201 C 0.65268 0.29421 0.04625 0.0
C202 C 0.66302 0.29248 0.99259 0.0
C203 C 0.70173 0.28676 0.11899 0.0
C204 C 0.65019 0.23683 0.10503 0.0
H205 H 0.55747 0.39513 0.94527 0.0
H206 H 0.64973 0.36766 0.80448 0.0
H207 H 0.61911 0.29103 0.84544 0.0
H208 H 0.64931 0.26311 0.88324 0.0
H209 H 0.66705 0.28855 0.82665 0.0
H210 H 0.69976 0.36648 0.91026 0.0
H211 H 0.70551 0.34072 0.84971 0.0
H212 H 0.71785 0.32084 0.91285 0.0
H213 H 0.5543 0.40284 0.14591 0.0
H214 H 0.6195 0.3323 0.2499 0.0
H215 H 0.64042 0.29684 0.17467 0.0
H216 H 0.62058 0.4161 0.06445 0.0
H217 H 0.57278 0.43051 0.06122 0.0
H218 H 0.59798 0.4191 0.00241 0.0
H219 H 0.52741 0.34097 0.06279 0.0
H220 H 0.537 0.35134 -0.0041 0.0
H221 H 0.52292 0.38816 0.04031 0.0
H222 H 0.55307 0.4273 0.86156 0.0
C223 C 0.57794 0.38878 0.91572 0.0
C224 C 0.58186 0.67974 0.16186 0.0
C225 C 0.54795 0.66021 0.16061 0.0
C226 C 0.53296 0.64938 0.11129 0.0
C227 C 0.58588 0.67611 0.06585 0.0
C228 C 0.60038 0.68723 0.11412 0.0
C229 C 0.63706 0.70702 0.10805 0.0
H230 H 0.77627 0.76468 0.94701 0.0
C231 C 0.61251 0.68677 0.02407 0.0
C232 C 0.6427 0.70466 0.0483 0.0
H233 H 0.76073 0.78805 0.11446 0.0
H234 H 0.70533 0.75096 0.11478 0.0
H235 H 0.74687 0.6784 0.94658 0.0
H236 H 0.69171 0.78327 0.91824 0.0
H237 H 0.67693 0.75146 0.8697 0.0
H238 H 0.72521 0.76442 0.87286 0.0
H239 H 0.75538 0.7058 0.88807 0.0
H240 H 0.71717 0.67335 0.89138 0.0
C241 C 0.66699 0.68471 0.13883 0.0
C242 C 0.63224 0.74774 0.12715 0.0
C243 C 0.5814 0.65787 0.83297 0.0
C244 C 0.60052 0.66214 0.78491 0.0
C245 C 0.63714 0.67605 0.78547 0.0
C246 C 0.65391 0.68677 0.83361 0.0
C247 C 0.63379 0.68335 0.88136 0.0
C248 C 0.5984 0.66847 0.8803 0.0
C249 C 0.58141 0.66503 0.93435 0.0
C250 C 0.61212 0.68111 0.96844 0.0
C251 C 0.64254 0.69234 0.93738 0.0
C252 C 0.57435 0.62313 0.94599 0.0
C253 C 0.54609 0.68968 0.93541 0.0
C254 C 0.76103 0.76217 0.98387 0.0
C255 C 0.77356 0.77958 0.0308 0.0
C256 C 0.75268 0.77456 0.07781 0.0
C257 C 0.72 0.75335 0.07788 0.0
C258 C 0.70739 0.73737 0.03033 0.0
C259 C 0.72771 0.74201 0.9843 0.0
C260 C 0.70844 0.72564 0.9366 0.0
C261 C 0.67326 0.7104 0.96174 0.0
C262 C 0.67308 0.71692 0.0168 0.0
C263 C 0.73318 0.69427 0.91394 0.0
C264 C 0.70021 0.75759 0.89683 0.0
H265 H 0.53881 0.64811 0.02792 0.0
H266 H 0.59414 0.68825 0.19924 0.0
H267 H 0.60281 0.75703 0.12397 0.0
H268 H 0.64792 0.76783 0.10244 0.0
H269 H 0.64081 0.75089 0.16934 0.0
H270 H 0.66403 0.65441 0.1309 0.0
H271 H 0.66423 0.68898 0.18236 0.0
H272 H 0.69561 0.69195 0.12702 0.0
H273 H 0.55364 0.64613 0.83382 0.0
H274 H 0.65245 0.67915 0.7487 0.0
H275 H 0.68174 0.6975 0.83182 0.0
H276 H 0.59185 0.60481 0.9207 0.0
H277 H 0.54488 0.61552 0.93845 0.0
H278 H 0.58184 0.61525 0.98721 0.0
H279 H 0.55178 0.71729 0.91703 0.0
H280 H 0.53613 0.69572 0.9759 0.0
H281 H 0.52317 0.67652 0.91258 0.0
H282 H 0.50662 0.63483 0.1093 0.0
C283 C 0.5517 0.65722 0.064 0.0
C284 C 0.37429 0.61699 0.18796 0.0
C285 C 0.40187 0.58947 0.19453 0.0
C286 C 0.42792 0.58434 0.15315 0.0
C287 C 0.39502 0.62873 0.09802 0.0
C288 C 0.37199 0.63672 0.14017 0.0
C289 C 0.34528 0.6677 0.12772 0.0
H290 H 0.2602 0.7749 0.94401 0.0
C291 C 0.38241 0.65086 0.05199 0.0
C292 C 0.35403 0.67462 0.06954 0.0
H293 H 0.24542 0.77576 0.11464 0.0
H294 H 0.29474 0.73105 0.12468 0.0
H295 H 0.35343 0.77045 0.94521 0.0
H296 H 0.26339 0.69288 0.93199 0.0
H297 H 0.3005 0.67125 0.8993 0.0
H298 H 0.28263 0.71489 0.87436 0.0
H299 H 0.32191 0.76756 0.88991 0.0
H300 H 0.36321 0.73931 0.89286 0.0
C301 C 0.35533 0.70165 0.16299 0.0
C302 C 0.30519 0.65298 0.13561 0.0
C303 C 0.41886 0.6095 0.86686 0.0
C304 C 0.4036 0.61733 0.81647 0.0
C305 C 0.37855 0.64739 0.81145 0.0
C306 C 0.36757 0.66789 0.85593 0.0
C307 C 0.38092 0.6578 0.90637 0.0
C308 C 0.40657 0.6294 0.91121 0.0
C309 C 0.41547 0.62056 0.96833 0.0
C310 C 0.39007 0.64775 -0.00314 0.0
C311 C 0.37022 0.66968 0.96026 0.0
C312 C 0.45703 0.62929 0.97859 0.0
C313 C 0.40458 0.57943 0.97853 0.0
C314 C 0.2677 0.76559 0.98357 0.0
C315 C 0.24882 0.77897 0.02856 0.0
C316 C 0.25978 0.76635 0.07935 0.0
C317 C 0.2883 0.74017 0.08515 0.0
C318 C 0.30597 0.72615 0.03974 0.0
C319 C 0.29611 0.73933 0.99009 0.0
C320 C 0.31767 0.72078 0.94637 0.0
C321 C 0.34287 0.69514 0.97828 0.0
C322 C 0.33535 0.698 0.03275 0.0
C323 C 0.3402 0.75097 0.91655 0.0
C324 C 0.28984 0.69896 0.91082 0.0
H325 H 0.44467 0.59809 0.07468 0.0
H326 H 0.35394 0.62261 0.21841 0.0
H327 H 0.30193 0.62515 0.1169 0.0
H328 H 0.28386 0.67089 0.1172 0.0
H329 H 0.29854 0.65013 0.17852 0.0
H330 H 0.38437 0.70006 0.17818 0.0
H331 H 0.33673 0.70354 0.19805 0.0
H332 H 0.35419 0.72821 0.14058 0.0
H333 H 0.43885 0.58731 0.8722 0.0
H334 H 0.36591 0.65413 0.77357 0.0
H335 H 0.34792 0.68987 0.84955 0.0
H336 H 0.46692 0.65205 0.95219 0.0
H337 H 0.47474 0.60453 0.97121 0.0
H338 H 0.46217 0.63961 0.01932 0.0
H339 H 0.37634 0.57364 0.96241 0.0
H340 H 0.4035 0.57174 0.02076 0.0
H341 H 0.42441 0.56024 0.9588 0.0
H342 H 0.45083 0.56508 0.15748 0.0
C343 C 0.42458 0.60376 0.10504 0.0
C344 C 0.90014 0.84548 0.33942 0.0
C345 C 0.93154 0.86888 0.33992 0.0
C346 C 0.94468 0.88269 0.38883 0.0
C347 C 0.89566 0.85 0.43532 0.0
C348 C 0.88265 0.83649 0.38743 0.0
C349 C 0.84925 0.81164 0.39432 0.0
H350 H 0.72524 0.73056 0.56064 0.0
C351 C 0.87119 0.83583 0.47769 0.0
C352 C 0.84363 0.81368 0.45406 0.0
H353 H 0.73868 0.71192 0.39187 0.0
H354 H 0.78675 0.75865 0.38881 0.0
H355 H 0.8119 0.72775 0.58393 0.0
H356 H 0.73613 0.81915 0.56117 0.0
H357 H 0.76763 0.83273 0.61095 0.0
H358 H 0.73767 0.7931 0.62207 0.0
H359 H 0.77625 0.73943 0.63085 0.0
H360 H 0.82131 0.76093 0.63319 0.0
C361 C 0.8599 0.77192 0.37588 0.0
C362 C 0.81623 0.82901 0.36356 0.0
C363 C 0.90366 0.86064 0.67018 0.0
C364 C 0.88632 0.85129 0.71852 0.0
C365 C 0.85038 0.83553 0.71712 0.0
C366 C 0.83328 0.82688 0.66864 0.0
C367 C 0.85223 0.83404 0.62096 0.0
C368 C 0.88604 0.85216 0.62222 0.0
C369 C 0.9011 0.8597 0.5676 0.0
C370 C 0.8718 0.84092 0.53349 0.0
C371 C 0.84359 0.82546 0.56497 0.0
C372 C 0.9395 0.84041 0.56276 0.0
C373 C 0.902 0.90248 0.55888 0.0
C374 C 0.73856 0.73624 0.52294 0.0
C375 C 0.72809 0.71705 0.47658 0.0
C376 C 0.74576 0.72632 0.42824 0.0
C377 C 0.77405 0.75322 0.42659 0.0
C378 C 0.78524 0.77078 0.47384 0.0
C379 C 0.76738 0.76227 0.52086 0.0
C380 C 0.78448 0.78152 0.56787 0.0
C381 C 0.81571 0.80294 0.54136 0.0
C382 C 0.81588 0.79682 0.48623 0.0
C383 C 0.79916 0.75111 0.60641 0.0
C384 C 0.75507 0.80787 0.59231 0.0
H385 H 0.93831 0.88479 0.47226 0.0
H386 H 0.88968 0.834 0.30255 0.0
H387 H 0.81506 0.85957 0.3703 0.0
H388 H 0.78902 0.81814 0.37653 0.0
H389 H 0.8191 0.82434 0.32014 0.0
H390 H 0.89011 0.76652 0.3816 0.0
H391 H 0.85356 0.76789 0.33306 0.0
H392 H 0.84598 0.7499 0.39925 0.0
H393 H 0.93118 0.87281 0.66925 0.0
H394 H 0.83567 0.8292 0.75354 0.0
H395 H 0.80635 0.81409 0.67018 0.0
H396 H 0.93881 0.81232 0.58146 0.0
H397 H 0.9615 0.85684 0.583 0.0
H398 H 0.9481 0.83567 0.52128 0.0
H399 H 0.88157 0.91701 0.58471 0.0
H400 H 0.89396 0.91052 0.51794 0.0
H401 H 0.92988 0.91415 0.568 0.0
H402 H 0.96852 0.9011 0.39025 0.0
C403 C 0.92689 0.87344 0.43642 0.0
C404 C 0.13511 0.88293 0.32865 0.0
C405 C 0.10752 0.91038 0.32199 0.0
C406 C 0.08214 0.91659 0.36377 0.0
C407 C 0.11506 0.87251 0.41939 0.0
C408 C 0.13796 0.86405 0.37721 0.0
C409 C 0.16505 0.83352 0.39064 0.0
H410 H 0.24338 0.72097 0.57547 0.0
C411 C 0.12746 0.85056 0.46572 0.0
C412 C 0.15611 0.82693 0.44892 0.0
H413 H 0.26458 0.72542 0.40621 0.0
H414 H 0.21781 0.77242 0.39579 0.0
H415 H 0.24205 0.80615 0.59035 0.0
H416 H 0.15125 0.72969 0.56951 0.0
H417 H 0.14124 0.75988 0.62296 0.0
H418 H 0.18149 0.73024 0.62643 0.0
H419 H 0.22305 0.78075 0.64534 0.0
H420 H 0.20449 0.82528 0.62509 0.0
C421 C 0.20494 0.84883 0.383 0.0
C422 C 0.15569 0.79916 0.35584 0.0
C423 C 0.08529 0.88959 0.64893 0.0
C424 C 0.09842 0.88099 0.70014 0.0
C425 C 0.12279 0.85053 0.70659 0.0
C426 C 0.13565 0.8306 0.66241 0.0
C427 C 0.12446 0.84152 0.61115 0.0
C428 C 0.09906 0.87008 0.60519 0.0
C429 C 0.09206 0.8797 0.5479 0.0
C430 C 0.11839 0.85295 0.52044 0.0
C431 C 0.1371 0.83045 0.55761 0.0
C432 C 0.10338 0.92095 0.53949 0.0
C433 C 0.05079 0.87112 0.53473 0.0
C434 C 0.23799 0.73205 0.53615 0.0
C435 C 0.2576 0.71885 0.49156 0.0
C436 C 0.24944 0.73419 0.44115 0.0
C437 C 0.22236 0.7618 0.4351 0.0
C438 C 0.20327 0.77479 0.47991 0.0
C439 C 0.21104 0.75992 0.52939 0.0
C440 C 0.18852 0.77814 0.57256 0.0
C441 C 0.16492 0.80515 0.54031 0.0
C442 C 0.17409 0.80327 0.48619 0.0
C443 C 0.21568 0.7985 0.61069 0.0
C444 C 0.16438 0.74803 0.59976 0.0
H445 H 0.06601 0.9042 0.4428 0.0
H446 H 0.15478 0.87679 0.2974 0.0
H447 H 0.1262 0.79946 0.3424 0.0
H448 H 0.15863 0.77264 0.37793 0.0
H449 H 0.17337 0.79823 0.31972 0.0
H450 H 0.20734 0.87733 0.39985 0.0
H451 H 0.21221 0.85044 0.34017 0.0
H452 H 0.22632 0.83213 0.40355 0.0
H453 H 0.06596 0.91228 0.64266 0.0
H454 H 0.13346 0.84323 0.74551 0.0
H455 H 0.1549 0.80836 0.66967 0.0
H456 H 0.1303 0.9269 0.55961 0.0
H457 H 0.08216 0.94002 0.55628 0.0
H458 H 0.10766 0.92864 0.49763 0.0
H459 H 0.03944 0.84898 0.56111 0.0
H460 H 0.04715 0.86012 0.49399 0.0
H461 H 0.03306 0.89616 0.53971 0.0
H462 H 0.05947 0.93616 0.35917 0.0
C463 C 0.08575 0.8978 0.41228 0.0
C464 C 0.08836 0.16492 0.67318 0.0
C465 C 0.05594 0.14303 0.67322 0.0
C466 C 0.04024 0.13198 0.62446 0.0
C467 C 0.08919 0.16406 0.57682 0.0
C468 C 0.10442 0.17514 0.62466 0.0
C469 C 0.13866 0.19868 0.61725 0.0
H470 H 0.26243 0.27935 0.45081 0.0
C471 C 0.11291 0.17872 0.53385 0.0
C472 C 0.142 0.19894 0.55707 0.0
H473 H 0.25454 0.29053 0.6218 0.0
H474 H 0.20308 0.24789 0.62294 0.0
H475 H 0.2437 0.19033 0.44373 0.0
H476 H 0.17418 0.28796 0.43148 0.0
H477 H 0.16217 0.25686 0.38038 0.0
H478 H 0.2082 0.2764 0.38205 0.0
H479 H 0.24577 0.22117 0.38755 0.0
H480 H 0.21213 0.18401 0.39098 0.0
C481 C 0.17181 0.17842 0.64391 0.0
C482 C 0.13064 0.238 0.63982 0.0
C483 C 0.07702 0.15292 0.34337 0.0
C484 C 0.09293 0.16164 0.29411 0.0
C485 C 0.12743 0.18028 0.29283 0.0
C486 C 0.14505 0.19116 0.34033 0.0
C487 C 0.12796 0.18321 0.38941 0.0
C488 C 0.09477 0.16388 0.39004 0.0
C489 C 0.08059 0.15687 0.44505 0.0
C490 C 0.11069 0.1752 0.4779 0.0
C491 C 0.13812 0.19119 0.44536 0.0
C492 C 0.07852 0.11416 0.45422 0.0
C493 C 0.04297 0.17745 0.45044 0.0
C494 C 0.24958 0.27294 0.48859 0.0
C495 C 0.26291 0.28868 0.53629 0.0
C496 C 0.24552 0.27861 0.58447 0.0
C497 C 0.21522 0.25409 0.58505 0.0
C498 C 0.20166 0.23963 0.53695 0.0
C499 C 0.2188 0.24907 0.48975 0.0
C500 C 0.19934 0.23257 0.44224 0.0
C501 C 0.16759 0.21185 0.46877 0.0
C502 C 0.16933 0.21587 0.5243 0.0
C503 C 0.22654 0.20574 0.41414 0.0
C504 C 0.18531 0.26492 0.40671 0.0
H505 H 0.04361 0.13258 0.54072 0.0
H506 H 0.10076 0.17421 0.71011 0.0
H507 H 0.10047 0.24472 0.63802 0.0
H508 H 0.14412 0.26037 0.61655 0.0
H509 H 0.13947 0.24016 0.68202 0.0
H510 H 0.17088 0.1481 0.63517 0.0
H511 H 0.17106 0.18178 0.68777 0.0
H512 H 0.19906 0.18803 0.62922 0.0
H513 H 0.05108 0.13766 0.34567 0.0
H514 H 0.14033 0.18704 0.25516 0.0
H515 H 0.17108 0.2056 0.33706 0.0
H516 H 0.09721 0.09875 0.42681 0.0
H517 H 0.04988 0.10353 0.4477 0.0
H518 H 0.088 0.10593 0.49445 0.0
H519 H 0.04516 0.20626 0.43442 0.0
H520 H 0.03365 0.18061 0.49189 0.0
H521 H 0.02098 0.16291 0.42751 0.0
H522 H 0.01549 0.11479 0.62356 0.0
C523 C 0.05675 0.14223 0.57634 0.0
C524 C 0.89297 0.10523 0.70525 0.0
C525 C 0.91718 0.07438 0.70502 0.0
C526 C 0.93752 0.06659 0.65858 0.0
C527 C 0.90516 0.11583 0.61187 0.0
C528 C 0.88719 0.12537 0.65825 0.0
C529 C 0.85949 0.15633 0.64982 0.0
H530 H 0.7573 0.25722 0.47472 0.0
C531 C 0.88895 0.138 0.56831 0.0
C532 C 0.8623 0.16209 0.59009 0.0
H533 H 0.75143 0.26025 0.64623 0.0
H534 H 0.80431 0.21863 0.65208 0.0
H535 H 0.84971 0.25821 0.46627 0.0
H536 H 0.76373 0.17544 0.46472 0.0
H537 H 0.79904 0.15705 0.4249 0.0
H538 H 0.77669 0.19997 0.4055 0.0
H539 H 0.81661 0.25256 0.41338 0.0
H540 H 0.85958 0.22677 0.41455 0.0
C541 C 0.87303 0.19085 0.68097 0.0
C542 C 0.82063 0.14203 0.66672 0.0
C543 C 0.91661 0.09983 0.37899 0.0
C544 C 0.89892 0.10798 0.33046 0.0
C545 C 0.87291 0.13734 0.32856 0.0
C546 C 0.86324 0.15673 0.37468 0.0
C547 C 0.87913 0.14627 0.42351 0.0
C548 C 0.90584 0.11871 0.42493 0.0
C549 C 0.91778 0.10933 0.48063 0.0
C550 C 0.89296 0.13512 0.51246 0.0
C551 C 0.87087 0.15702 0.47881 0.0
C552 C 0.95913 0.12036 0.48665 0.0
C553 C 0.90954 0.06742 0.49116 0.0
C554 C 0.76733 0.24898 0.51363 0.0
C555 C 0.74981 0.26164 0.56001 0.0
C556 C 0.76441 0.25088 0.60984 0.0
C557 C 0.79489 0.22649 0.61315 0.0
C558 C 0.81071 0.21247 0.56618 0.0
C559 C 0.79736 0.22452 0.51757 0.0
C560 C 0.81686 0.2066 0.47165 0.0
C561 C 0.84447 0.18196 0.50054 0.0
C562 C 0.84057 0.18505 0.55593 0.0
C563 C 0.83664 0.23748 0.43928 0.0
C564 C 0.78781 0.18373 0.43962 0.0
H565 H 0.94735 0.0793 0.57786 0.0
H566 H 0.87783 0.11279 0.74077 0.0
H567 H 0.81613 0.11313 0.65233 0.0
H568 H 0.79757 0.15843 0.64991 0.0
H569 H 0.81785 0.14181 0.71068 0.0
H570 H 0.9039 0.19278 0.68046 0.0
H571 H 0.86413 0.18947 0.72318 0.0
H572 H 0.86324 0.21725 0.66325 0.0
H573 H 0.93722 0.07795 0.38187 0.0
H574 H 0.85861 0.14425 0.29195 0.0
H575 H 0.84261 0.1781 0.3708 0.0
H576 H 0.96396 0.14831 0.46899 0.0
H577 H 0.97747 0.10018 0.46602 0.0
H578 H 0.9681 0.12277 0.52851 0.0
H579 H 0.88989 0.05555 0.4615 0.0
H580 H 0.89565 0.06259 0.52975 0.0
H581 H 0.93535 0.05049 0.48956 0.0
H582 H 0.95646 0.04322 0.65705 0.0
C583 C 0.93187 0.08736 0.61225 0.0
C584 C 0.14334 0.16603 0.94412 0.0
C585 C 0.14271 0.14208 0.9883 0.0
H586 H 0.16733 0.21439 0.90827 0.0
C587 C 0.16756 0.14832 0.03034 0.0
H588 H 0.12423 0.16197 0.91131 0.0
C589 C 0.193 0.17753 0.02798 0.0
C590 C 0.19359 0.20199 0.98414 0.0
H591 H 0.16799 0.13002 0.06464 0.0
H592 H 0.21269 0.1803 0.0603 0.0
C593 C 0.16823 0.19594 0.94232 0.0
C594 C 0.81119 0.12792 0.97108 0.0
C595 C 0.83681 0.1304 0.01314 0.0
H596 H 0.76173 0.14934 0.93529 0.0
C597 C 0.83013 0.15592 0.05425 0.0
H598 H 0.81521 0.10815 0.93918 0.0
C599 C 0.79965 0.18008 0.05155 0.0
C600 C 0.77513 0.1789 0.00793 0.0
H601 H 0.8494 0.15849 0.08719 0.0
H602 H 0.79636 0.20079 0.08236 0.0
C603 C 0.78062 0.15171 0.96868 0.0
C604 C 0.84507 0.85048 0.984 0.0
C605 C 0.86585 0.85666 0.03039 0.0
H606 H 0.79901 0.82307 0.94821 0.0
C607 C 0.85758 0.83604 0.07627 0.0
H608 H 0.85067 0.86622 0.94811 0.0
C609 C 0.82868 0.80996 0.0759 0.0
C610 C 0.80667 0.80476 0.03007 0.0
H611 H 0.8735 0.83999 0.11242 0.0
H612 H 0.82359 0.79412 0.11178 0.0
C613 C 0.81554 0.82531 0.98403 0.0
C614 C 0.15755 0.81915 0.97981 0.0
C615 C 0.15094 0.8474 0.01715 0.0
H616 H 0.19337 0.77523 0.95448 0.0
C617 C 0.17803 0.85463 0.05616 0.0
H618 H 0.13733 0.81285 0.94918 0.0
C619 C 0.21038 0.83321 0.05887 0.0
C620 C 0.21634 0.80409 0.02269 0.0
H621 H 0.17396 0.87634 0.08536 0.0
H622 H 0.23053 0.83917 0.08974 0.0
C623 C 0.18985 0.79772 0.9826 0.0
C624 C 0.64983 0.65025 0.44046 0.0
C625 C 0.64802 0.62769 0.48611 0.0
H626 H 0.67552 0.69684 0.40218 0.0
C627 C 0.67271 0.63455 0.52821 0.0
H628 H 0.63094 0.6458 0.40749 0.0
C629 C 0.69876 0.6632 0.52474 0.0
C630 C 0.70033 0.68631 0.47951 0.0
H631 H 0.67226 0.61745 0.56373 0.0
H632 H 0.718 0.66682 0.55746 0.0
C633 C 0.67552 0.67942 0.43734 0.0
C634 C 0.32255 0.63897 0.45882 0.0
C635 C 0.34792 0.64009 0.50132 0.0
H636 H 0.27359 0.66177 0.42344 0.0
C637 C 0.34173 0.66536 0.54292 0.0
H638 H 0.32621 0.61947 0.42648 0.0
C639 C 0.31182 0.69026 0.54067 0.0
C640 C 0.28725 0.69013 0.49703 0.0
H641 H 0.36082 0.66693 0.5762 0.0
H642 H 0.30888 0.71056 0.5721 0.0
C643 C 0.29248 0.66345 0.45692 0.0
C644 C 0.32541 0.36781 0.49107 0.0
C645 C 0.35106 0.37051 0.53305 0.0
H646 H 0.27712 0.34129 0.45998 0.0
C647 C 0.34755 0.34631 0.57665 0.0
H648 H 0.32711 0.3863 0.45708 0.0
C649 C 0.3193 0.31945 0.57763 0.0
C650 C 0.29355 0.31671 0.53546 0.0
H651 H 0.36712 0.34756 0.60939 0.0
H652 H 0.31804 0.30054 0.61112 0.0
C653 C 0.29686 0.34159 0.49249 0.0
C654 C 0.67625 0.33588 0.58339 0.0
C655 C 0.64931 0.32634 0.54509 0.0
H656 H 0.72929 0.32302 0.61815 0.0
C657 C 0.65566 0.29529 0.51253 0.0
H658 H 0.67217 0.35955 0.6093 0.0
C659 C 0.68811 0.27442 0.51783 0.0
C660 C 0.71521 0.28402 0.55572 0.0
H661 H 0.63549 0.28692 0.48286 0.0
H662 H 0.69176 0.2504 0.49247 0.0
C663 C 0.70886 0.31485 0.58874 0.0
C664 C 0.07013 0.11742 0.16141 0.0
C665 C 0.0313 0.12173 0.15946 0.0
H666 H 0.12042 0.12687 0.20554 0.0
C667 C 0.01383 0.14265 0.1994 0.0
H668 H 0.08457 0.10206 0.13121 0.0
C669 C 0.03432 0.15712 0.24157 0.0
C670 C 0.07281 0.15104 0.24503 0.0
H671 H 0.98402 0.14696 0.19916 0.0
H672 H 0.0198 0.17224 0.27241 0.0
C673 C 0.09076 0.13198 0.20381 0.0
C674 C 0.91507 0.02263 0.24527 0.0
C675 C 0.91482 0.03782 0.19381 0.0
H676 H 0.90963 0.03256 0.3284 0.0
C677 C 0.90899 0.07618 0.18757 0.0
H678 H 0.91924 0.99308 0.25153 0.0
C679 C 0.90475 0.09915 0.23175 0.0
C680 C 0.90526 0.08406 0.2833 0.0
H681 H 0.90743 0.08857 0.14865 0.0
H682 H 0.90115 0.12874 0.22538 0.0
C683 C 0.91015 0.04543 0.28946 0.0
C684 C 0.94754 0.89871 0.19733 0.0
C685 C 0.98647 0.89978 0.19452 0.0
H686 H 0.89959 0.88849 0.24537 0.0
C687 C 0.00726 0.89003 0.23985 0.0
H688 H 0.93071 0.90546 0.16331 0.0
C689 C 0.98948 0.87994 0.28699 0.0
C690 C 0.95048 0.87913 0.28975 0.0
H691 H 0.03733 0.8903 0.23909 0.0
H692 H 0.00631 0.87241 0.32112 0.0
C693 C 0.9297 0.88852 0.24437 0.0
C694 C 0.11146 0.93791 0.1762 0.0
C695 C 0.09838 0.97461 0.17762 0.0
H696 H 0.12306 0.88824 0.21975 0.0
C697 C 0.09059 0.99095 0.22692 0.0
H698 H 0.11883 0.92514 0.13894 0.0
C699 C 0.09411 0.97029 0.27373 0.0
C700 C 0.10532 0.93276 0.27222 0.0
H701 H 0.08089 0.01944 0.22926 0.0
H702 H 0.08797 0.98384 0.31107 0.0
C703 C 0.11448 0.91701 0.22282 0.0
C704 C 0.08353 0.9688 0.78058 0.0
C705 C 0.07874 0.95458 0.83209 0.0
H706 H 0.09406 0.95688 0.699 0.0
C707 C 0.07877 0.9158 0.83975 0.0
H708 H 0.08365 0.99852 0.77332 0.0
C709 C 0.08411 0.89174 0.79686 0.0
C710 C 0.08973 0.90599 0.74544 0.0
H711 H 0.0753 0.90397 0.87904 0.0
H712 H 0.08409 0.86202 0.80405 0.0
C713 C 0.0891 0.94482 0.73782 0.0
C714 C 0.04457 0.10492 0.8125 0.0
C715 C 0.00587 0.10688 0.81928 0.0
H716 H 0.09071 0.11469 0.76072 0.0
C717 C 0.98384 0.12171 0.77824 0.0
H718 H 0.0623 0.09369 0.84346 0.0
C719 C 7e-05 0.13349 0.73078 0.0
C720 C 0.03874 0.13122 0.72384 0.0
H721 H 0.95403 0.12421 0.78279 0.0
H722 H 0.98241 0.1447 0.6997 0.0
C723 C 0.06086 0.11706 0.76526 0.0
C724 C 0.95385 0.00642 0.80859 0.0
C725 C 0.92153 0.99877 0.83793 0.0
H726 H 0.97822 0.03721 0.74469 0.0
C727 C 0.88804 0.01603 0.82331 0.0
H728 H 0.98019 0.99378 0.81923 0.0
C729 C 0.88683 0.04064 0.7805 0.0
C730 C 0.91916 0.04886 0.75146 0.0
H731 H 0.86263 0.0106 0.84501 0.0
H732 H 0.86032 0.05279 0.76975 0.0
C733 C 0.95269 0.03128 0.76582 0.0
C734 C 0.95615 0.88458 0.82091 0.0
C735 C 0.95262 0.85731 0.86064 0.0
H736 H 0.93648 0.90562 0.74671 0.0
C737 C 0.92516 0.82985 0.85549 0.0
H738 H 0.97677 0.90644 0.82418 0.0
C739 C 0.90283 0.82857 0.81011 0.0
C740 C 0.90692 0.85529 0.76949 0.0
H741 H 0.92174 0.80858 0.88567 0.0
H742 H 0.8834 0.80574 0.80616 0.0
C743 C 0.93317 0.88394 0.77627 0.0
C744 C 0.57676 0.61104 0.65834 0.0
C745 C 0.53923 0.62093 0.65168 0.0
H746 H 0.62609 0.61672 0.70588 0.0
C747 C 0.52391 0.6481 0.68521 0.0
H748 H 0.58959 0.59069 0.63302 0.0
C749 C 0.54481 0.66318 0.72644 0.0
C750 C 0.58152 0.65146 0.7352 0.0
H751 H 0.49521 0.65681 0.68102 0.0
H752 H 0.53176 0.68299 0.75291 0.0
C753 C 0.59782 0.62622 0.69979 0.0
C754 C 0.42163 0.53037 0.73482 0.0
C755 C 0.42141 0.54449 0.68271 0.0
H756 H 0.41541 0.54177 0.81742 0.0
C757 C 0.41563 0.58269 0.67504 0.0
H758 H 0.42568 0.50094 0.74231 0.0
C759 C 0.41134 0.60655 0.71825 0.0
C760 C 0.41128 0.59252 0.77045 0.0
H761 H 0.41388 0.59429 0.63574 0.0
H762 H 0.40784 0.63597 0.71047 0.0
C763 C 0.41634 0.554 0.77809 0.0
C764 C 0.50106 0.39408 0.74331 0.0
C765 C 0.48169 0.4026 0.69625 0.0
H766 H 0.49781 0.38169 0.82629 0.0
C767 C 0.44282 0.40557 0.698 0.0
H768 H 0.53099 0.39122 0.74339 0.0
C769 C 0.42372 0.4003 0.74573 0.0
C770 C 0.44318 0.39187 0.79271 0.0
H771 H 0.42703 0.4114 0.66257 0.0
H772 H 0.39372 0.40286 0.74586 0.0
C773 C 0.48207 0.38889 0.79099 0.0
C774 C 0.5854 0.48056 0.72863 0.0
C775 C 0.59588 0.46416 0.6804 0.0
H776 H 0.57993 0.47416 0.81256 0.0
C777 C 0.61044 0.42808 0.6808 0.0
H778 H 0.57456 0.50867 0.72958 0.0
C779 C 0.61221 0.4076 0.72788 0.0
C780 C 0.60068 0.42339 0.77625 0.0
H781 H 0.62032 0.41563 0.64463 0.0
H782 H 0.62195 0.37917 0.72579 0.0
C783 C 0.58796 0.46047 0.77609 0.0
C784 C 0.56986 0.40747 0.34355 0.0
C785 C 0.57065 0.44614 0.33511 0.0
H786 H 0.57304 0.3533 0.30883 0.0
C787 C 0.57418 0.45979 0.28309 0.0
H788 H 0.56712 0.3961 0.38323 0.0
C789 C 0.57799 0.4353 0.24055 0.0
C790 C 0.57802 0.39653 0.24894 0.0
H791 H 0.57494 0.48943 0.27526 0.0
H792 H 0.5823 0.44693 0.20131 0.0
C793 C 0.57346 0.38292 0.30092 0.0
C794 C 0.49616 0.60448 0.26443 0.0
C795 C 0.49267 0.63042 0.30578 0.0
H796 H 0.51666 0.59355 0.18634 0.0
C797 C 0.50718 0.66641 0.29891 0.0
H798 H 0.48549 0.57645 0.26862 0.0
C799 C 0.5251 0.67618 0.25172 0.0
C800 C 0.52863 0.6502 0.21046 0.0
H801 H 0.5049 0.68702 0.33006 0.0
H802 H 0.53592 0.70414 0.24733 0.0
C803 C 0.51389 0.6143 0.21722 0.0
C804 C 0.41846 0.5073 0.28767 0.0
C805 C 0.4037 0.52055 0.3356 0.0
H806 H 0.428 0.51755 0.20545 0.0
C807 C 0.38746 0.55598 0.33666 0.0
H808 H 0.43066 0.4798 0.28538 0.0
C809 C 0.38795 0.57869 0.2917 0.0
C810 C 0.40279 0.56575 0.24338 0.0
H811 H 0.37539 0.56677 0.37275 0.0
H812 H 0.37715 0.6066 0.29566 0.0
C813 C 0.41745 0.52937 0.24191 0.0
C814 C 0.47337 0.34827 0.3185 0.0
C815 C 0.45593 0.35555 0.36725 0.0
H816 H 0.46691 0.34125 0.23465 0.0
C817 C 0.41742 0.36196 0.36801 0.0
H818 H 0.50295 0.34299 0.3166 0.0
C819 C 0.39678 0.36137 0.32102 0.0
C820 C 0.4142 0.35411 0.27224 0.0
H821 H 0.40306 0.36719 0.4049 0.0
H822 H 0.36718 0.3667 0.32293 0.0
C823 C 0.45275 0.34761 0.27147 0.0
loop_
_geom_bond_atom_site_label_1
_geom_bond_atom_site_label_2
_geom_bond_distance
_geom_bond_site_symmetry_2
_ccdc_geom_bond_type
Zn0 O2 1.933 1_556 S
Zn0 O20 1.985 . S
Zn0 O31 1.955 . S
Zn1 O2 1.911 . S
Zn1 O21 1.970 . S
Zn1 O37 1.945 . S
Zn1 O44 1.981 . S
O2 Zn0 1.933 1_554 S
O2 Zn1 1.911 . S
O2 H3 0.841 1_655 S
H3 O2 0.841 1_455 S
C4 O5 1.246 . S
C4 O33 1.276 1_545 S
O5 C4 1.246 . S
Zn6 O8 1.911 . S
Zn6 O23 1.970 . S
Zn6 O40 1.945 . S
Zn6 O47 1.981 . S
Zn7 O8 1.933 1_556 S
Zn7 O22 1.985 . S
Zn7 O29 1.955 . S
O8 Zn6 1.911 . S
O8 Zn7 1.933 1_554 S
O8 H9 0.841 1_455 S
H9 O8 0.841 1_655 S
Zn10 O11 1.933 1_556 S
Zn10 O24 1.985 . S
Zn10 O33 1.955 . S
O11 Zn10 1.933 1_554 S
O11 Zn12 1.911 . S
O11 H13 0.841 1_565 S
Zn12 O11 1.911 . S
Zn12 O25 1.970 . S
Zn12 O41 1.981 . S
Zn12 O43 1.945 . S
H13 O11 0.841 1_545 S
Zn14 O15 1.933 1_556 S
Zn14 O27 1.985 . S
Zn14 O35 1.955 . S
O15 Zn14 1.933 1_554 S
O15 H16 0.841 1_545 S
O15 Zn17 1.911 . S
H16 O15 0.841 1_565 S
Zn17 O15 1.911 . S
Zn17 O28 1.970 . S
Zn17 O38 1.981 . S
Zn17 O46 1.945 . S
C18 O19 1.246 . S
C18 O35 1.276 1_565 S
O19 C18 1.246 . S
O20 Zn0 1.985 . S
O20 C30 1.245 1_556 S
O21 Zn1 1.970 . S
O21 C30 1.263 . S
O22 Zn7 1.985 . S
O22 C34 1.245 1_556 S
O23 Zn6 1.970 . S
O23 C34 1.263 . S
O24 Zn10 1.985 . S
O24 C39 1.245 1_556 S
O25 Zn12 1.970 . S
O25 C39 1.263 . S
C26 O37 1.262 1_455 S
C26 O38 1.245 . S
O27 Zn14 1.985 . S
O27 C45 1.245 1_556 S
O28 Zn17 1.970 . S
O28 C45 1.263 . S
O29 Zn7 1.955 . S
O29 C48 1.276 1_455 S
C30 O20 1.245 1_554 S
C30 O21 1.263 . S
O31 Zn0 1.955 . S
O31 C50 1.276 1_655 S
C32 O40 1.262 1_655 S
C32 O41 1.245 . S
O33 C4 1.276 1_565 S
O33 Zn10 1.955 . S
C34 O22 1.245 1_554 S
C34 O23 1.263 . S
O35 Zn14 1.955 . S
O35 C18 1.276 1_545 S
C36 O43 1.262 1_545 S
C36 O44 1.245 . S
O37 Zn1 1.945 . S
O37 C26 1.262 1_655 S
O38 Zn17 1.981 . S
O38 C26 1.245 . S
C39 O24 1.245 1_554 S
C39 O25 1.263 . S
O40 Zn6 1.945 . S
O40 C32 1.262 1_455 S
O41 Zn12 1.981 . S
O41 C32 1.245 . S
C42 O46 1.262 1_565 S
C42 O47 1.245 . S
O43 Zn12 1.945 . S
O43 C36 1.262 1_565 S
O44 Zn1 1.981 . S
O44 C36 1.245 . S
C45 O27 1.245 1_554 S
C45 O28 1.263 . S
O46 Zn17 1.945 . S
O46 C42 1.262 1_545 S
O47 Zn6 1.981 . S
O47 C42 1.245 . S
C48 O29 1.276 1_655 S
C48 O49 1.246 . S
O49 C48 1.246 . S
C50 O31 1.276 1_455 S
C50 O51 1.246 . S
O51 C50 1.246 . S
Zn52 O54 1.933 . S
Zn52 O72 1.985 . S
Zn52 O83 1.955 . S
Zn53 O54 1.911 . S
Zn53 O73 1.970 . S
Zn53 O89 1.945 . S
Zn53 O96 1.981 . S
O54 Zn52 1.933 . S
O54 Zn53 1.911 . S
O54 H55 0.841 . S
H55 O54 0.841 . S
C56 O57 1.246 . S
C56 O85 1.276 . S
O57 C56 1.246 . S
Zn58 O60 1.911 . S
Zn58 O75 1.970 . S
Zn58 O92 1.945 . S
Zn58 O99 1.981 . S
Zn59 O60 1.933 . S
Zn59 O74 1.985 . S
Zn59 O81 1.955 . S
O60 Zn58 1.911 . S
O60 Zn59 1.933 . S
O60 H61 0.841 . S
H61 O60 0.841 . S
Zn62 O63 1.933 . S
Zn62 O76 1.985 . S
Zn62 O85 1.955 . S
O63 Zn62 1.933 . S
O63 Zn64 1.911 . S
O63 H65 0.841 . S
Zn64 O63 1.911 . S
Zn64 O77 1.970 . S
Zn64 O93 1.981 . S
Zn64 O95 1.945 . S
H65 O63 0.841 . S
Zn66 O67 1.933 . S
Zn66 O79 1.985 . S
Zn66 O87 1.955 . S
O67 Zn66 1.933 . S
O67 H68 0.841 . S
O67 Zn69 1.911 . S
H68 O67 0.841 . S
Zn69 O67 1.911 . S
Zn69 O80 1.970 . S
Zn69 O90 1.981 . S
Zn69 O98 1.945 . S
C70 O71 1.246 . S
C70 O87 1.276 . S
O71 C70 1.246 . S
O72 Zn52 1.985 . S
O72 C82 1.245 . S
O73 Zn53 1.970 . S
O73 C82 1.263 . S
O74 Zn59 1.985 . S
O74 C86 1.245 . S
O75 Zn58 1.970 . S
O75 C86 1.263 . S
O76 Zn62 1.985 . S
O76 C91 1.245 . S
O77 Zn64 1.970 . S
O77 C91 1.263 . S
C78 O89 1.262 . S
C78 O90 1.245 . S
O79 Zn66 1.985 . S
O79 C97 1.245 . S
O80 Zn69 1.970 . S
O80 C97 1.263 . S
O81 Zn59 1.955 . S
O81 C100 1.276 . S
C82 O72 1.245 . S
C82 O73 1.263 . S
O83 Zn52 1.955 . S
O83 C102 1.276 . S
C84 O92 1.262 . S
C84 O93 1.245 . S
O85 C56 1.276 . S
O85 Zn62 1.955 . S
C86 O74 1.245 . S
C86 O75 1.263 . S
O87 Zn66 1.955 . S
O87 C70 1.276 . S
C88 O95 1.262 . S
C88 O96 1.245 . S
O89 Zn53 1.945 . S
O89 C78 1.262 . S
O90 Zn69 1.981 . S
O90 C78 1.245 . S
C91 O76 1.245 . S
C91 O77 1.263 . S
O92 Zn58 1.945 . S
O92 C84 1.262 . S
O93 Zn64 1.981 . S
O93 C84 1.245 . S
C94 O98 1.262 . S
C94 O99 1.245 . S
O95 Zn64 1.945 . S
O95 C88 1.262 . S
O96 Zn53 1.981 . S
O96 C88 1.245 . S
C97 O79 1.245 . S
C97 O80 1.263 . S
O98 Zn69 1.945 . S
O98 C94 1.262 . S
O99 Zn58 1.981 . S
O99 C94 1.245 . S
C100 O81 1.276 . S
C100 O101 1.246 . S
O101 C100 1.246 . S
C102 O83 1.276 . S
C102 O103 1.246 . S
O103 C102 1.246 . S
C104 C105 1.391 . S
C104 C108 1.391 . S
C104 H146 0.948 . S
C105 C104 1.391 . S
C105 C106 1.391 . S
C106 C105 1.391 . S
C106 H162 0.947 . S
C106 C163 1.392 . S
C107 C108 1.391 . S
C107 C111 1.397 . S
C107 C163 1.419 . S
C108 C104 1.391 . S
C108 C107 1.391 . S
C108 C109 1.399 . S
C109 C108 1.399 . S
C109 C112 1.396 . S
C109 C121 1.453 . S
C109 C122 1.684 . S
H110 C134 0.948 . S
C111 C107 1.397 . S
C111 C112 1.394 . S
C111 C130 1.723 1_556 S
C112 C109 1.396 . S
C112 C111 1.394 . S
C112 C142 1.723 1_556 S
H113 C136 0.947 . S
H114 C137 0.948 . S
H115 C143 0.982 . S
H116 C144 0.979 . S
H117 C144 0.980 . S
H118 C144 0.983 . S
H119 C143 0.979 . S
H120 C143 0.977 . S
C121 C109 1.453 . S
C121 H150 0.982 . S
C121 H151 0.979 . S
C121 H152 0.977 . S
C122 C109 1.684 . S
C122 H147 0.979 . S
C122 H148 0.980 . S
C122 H149 0.983 . S
C123 C124 1.391 . S
C123 C128 1.391 . S
C123 H153 0.948 . S
C124 C123 1.391 . S
C124 C125 1.391 . S
C125 C124 1.391 . S
C125 C126 1.392 . S
C125 H154 0.947 . S
C126 C125 1.392 . S
C126 C127 1.419 . S
C126 H155 0.948 . S
C127 C126 1.419 . S
C127 C128 1.391 . S
C127 C131 1.397 . S
C128 C123 1.391 . S
C128 C127 1.391 . S
C128 C129 1.399 . S
C129 C128 1.399 . S
C129 C130 1.396 . S
C129 C132 1.453 . S
C129 C133 1.684 . S
C130 C111 1.723 1_554 S
C130 C129 1.396 . S
C130 C131 1.394 . S
C131 C127 1.397 . S
C131 C130 1.394 . S
C131 C141 1.723 . S
C132 C129 1.453 . S
C132 H156 0.982 . S
C132 H157 0.979 . S
C132 H158 0.977 . S
C133 C129 1.684 . S
C133 H159 0.979 . S
C133 H160 0.980 . S
C133 H161 0.983 . S
C134 H110 0.948 . S
C134 C135 1.391 . S
C134 C139 1.391 . S
C135 C134 1.391 . S
C135 C136 1.391 1_554 S
C136 H113 0.947 . S
C136 C135 1.391 1_556 S
C136 C137 1.392 . S
C137 H114 0.948 . S
C137 C136 1.392 . S
C137 C138 1.419 . S
C138 C137 1.419 . S
C138 C139 1.391 1_556 S
C138 C142 1.397 1_556 S
C139 C134 1.391 . S
C139 C138 1.391 1_554 S
C139 C140 1.399 . S
C140 C139 1.399 . S
C140 C141 1.396 . S
C140 C143 1.453 . S
C140 C144 1.684 . S
C141 C131 1.723 . S
C141 C140 1.396 . S
C141 C142 1.394 . S
C142 C112 1.723 1_554 S
C142 C138 1.397 1_554 S
C142 C141 1.394 . S
C143 H115 0.982 . S
C143 H119 0.979 . S
C143 H120 0.977 . S
C143 C140 1.453 . S
C144 H116 0.979 . S
C144 H117 0.980 . S
C144 H118 0.983 . S
C144 C140 1.684 . S
H145 C163 0.948 . S
H146 C104 0.948 . S
H147 C122 0.979 . S
H148 C122 0.980 . S
H149 C122 0.983 . S
H150 C121 0.982 . S
H151 C121 0.979 . S
H152 C121 0.977 . S
H153 C123 0.948 . S
H154 C125 0.947 . S
H155 C126 0.948 . S
H156 C132 0.982 . S
H157 C132 0.979 . S
H158 C132 0.977 . S
H159 C133 0.979 . S
H160 C133 0.980 . S
H161 C133 0.983 . S
H162 C106 0.947 . S
C163 C106 1.392 . S
C163 C107 1.419 . S
C163 H145 0.948 . S
C164 C165 1.391 . S
C164 C168 1.391 . S
C164 H206 0.948 . S
C165 C164 1.391 . S
C165 C166 1.391 . S
C166 C165 1.391 . S
C166 H222 0.947 . S
C166 C223 1.392 . S
C167 C168 1.391 . S
C167 C171 1.397 . S
C167 C223 1.419 . S
C168 C164 1.391 . S
C168 C167 1.391 . S
C168 C169 1.399 . S
C169 C168 1.399 . S
C169 C172 1.396 . S
C169 C181 1.453 . S
C169 C182 1.684 . S
H170 C194 0.948 . S
C171 C167 1.397 . S
C171 C172 1.394 . S
C171 C190 1.723 1_556 S
C172 C169 1.396 . S
C172 C171 1.394 . S
C172 C202 1.723 1_556 S
H173 C196 0.947 . S
H174 C197 0.948 . S
H175 C203 0.982 . S
H176 C204 0.979 . S
H177 C204 0.980 . S
H178 C204 0.983 . S
H179 C203 0.979 . S
H180 C203 0.977 . S
C181 C169 1.453 . S
C181 H210 0.982 . S
C181 H211 0.979 . S
C181 H212 0.977 . S
C182 C169 1.684 . S
C182 H207 0.979 . S
C182 H208 0.980 . S
C182 H209 0.983 . S
C183 C184 1.391 . S
C183 C188 1.391 . S
C183 H213 0.948 . S
C184 C183 1.391 . S
C184 C185 1.391 . S
C185 C184 1.391 . S
C185 C186 1.392 . S
C185 H214 0.947 . S
C186 C185 1.392 . S
C186 C187 1.419 . S
C186 H215 0.948 . S
C187 C186 1.419 . S
C187 C188 1.391 . S
C187 C191 1.397 . S
C188 C183 1.391 . S
C188 C187 1.391 . S
C188 C189 1.399 . S
C189 C188 1.399 . S
C189 C190 1.396 . S
C189 C192 1.453 . S
C189 C193 1.684 . S
C190 C171 1.723 1_554 S
C190 C189 1.396 . S
C190 C191 1.394 . S
C191 C187 1.397 . S
C191 C190 1.394 . S
C191 C201 1.723 . S
C192 C189 1.453 . S
C192 H216 0.982 . S
C192 H217 0.979 . S
C192 H218 0.977 . S
C193 C189 1.684 . S
C193 H219 0.979 . S
C193 H220 0.980 . S
C193 H221 0.983 . S
C194 H170 0.948 . S
C194 C195 1.391 . S
C194 C199 1.391 . S
C195 C194 1.391 . S
C195 C196 1.391 1_554 S
C196 H173 0.947 . S
C196 C195 1.391 1_556 S
C196 C197 1.392 . S
C197 H174 0.948 . S
C197 C196 1.392 . S
C197 C198 1.419 . S
C198 C197 1.419 . S
C198 C199 1.391 1_556 S
C198 C202 1.397 1_556 S
C199 C194 1.391 . S
C199 C198 1.391 1_554 S
C199 C200 1.399 . S
C200 C199 1.399 . S
C200 C201 1.396 . S
C200 C203 1.453 . S
C200 C204 1.684 . S
C201 C191 1.723 . S
C201 C200 1.396 . S
C201 C202 1.394 . S
C202 C172 1.723 1_554 S
C202 C198 1.397 1_554 S
C202 C201 1.394 . S
C203 H175 0.982 . S
C203 H179 0.979 . S
C203 H180 0.977 . S
C203 C200 1.453 . S
C204 H176 0.979 . S
C204 H177 0.980 . S
C204 H178 0.983 . S
C204 C200 1.684 . S
H205 C223 0.948 . S
H206 C164 0.948 . S
H207 C182 0.979 . S
H208 C182 0.980 . S
H209 C182 0.983 . S
H210 C181 0.982 . S
H211 C181 0.979 . S
H212 C181 0.977 . S
H213 C183 0.948 . S
H214 C185 0.947 . S
H215 C186 0.948 . S
H216 C192 0.982 . S
H217 C192 0.979 . S
H218 C192 0.977 . S
H219 C193 0.979 . S
H220 C193 0.980 . S
H221 C193 0.983 . S
H222 C166 0.947 . S
C223 C166 1.392 . S
C223 C167 1.419 . S
C223 H205 0.948 . S
C224 C225 1.391 . S
C224 C228 1.391 . S
C224 H266 0.948 . S
C225 C224 1.391 . S
C225 C226 1.391 . S
C226 C225 1.391 . S
C226 H282 0.947 . S
C226 C283 1.392 . S
C227 C228 1.391 . S
C227 C231 1.397 . S
C227 C283 1.419 . S
C228 C224 1.391 . S
C228 C227 1.391 . S
C228 C229 1.399 . S
C229 C228 1.399 . S
C229 C232 1.396 . S
C229 C241 1.453 . S
C229 C242 1.684 . S
H230 C254 0.948 . S
C231 C227 1.397 . S
C231 C232 1.394 . S
C231 C250 1.723 1_554 S
C232 C229 1.396 . S
C232 C231 1.394 . S
C232 C262 1.723 . S
H233 C256 0.947 . S
H234 C257 0.948 . S
H235 C263 0.982 . S
H236 C264 0.979 . S
H237 C264 0.980 . S
H238 C264 0.983 . S
H239 C263 0.979 . S
H240 C263 0.977 . S
C241 C229 1.453 . S
C241 H270 0.982 . S
C241 H271 0.979 . S
C241 H272 0.977 . S
C242 C229 1.684 . S
C242 H267 0.979 . S
C242 H268 0.980 . S
C242 H269 0.983 . S
C243 C244 1.391 . S
C243 C248 1.391 . S
C243 H273 0.948 . S
C244 C243 1.391 . S
C244 C245 1.391 . S
C245 C244 1.391 . S
C245 C246 1.392 . S
C245 H274 0.947 . S
C246 C245 1.392 . S
C246 C247 1.419 . S
C246 H275 0.948 . S
C247 C246 1.419 . S
C247 C248 1.391 . S
C247 C251 1.397 . S
C248 C243 1.391 . S
C248 C247 1.391 . S
C248 C249 1.399 . S
C249 C248 1.399 . S
C249 C250 1.396 . S
C249 C252 1.453 . S
C249 C253 1.684 . S
C250 C231 1.723 1_556 S
C250 C249 1.396 . S
C250 C251 1.394 . S
C251 C247 1.397 . S
C251 C250 1.394 . S
C251 C261 1.723 . S
C252 C249 1.453 . S
C252 H276 0.982 . S
C252 H277 0.979 . S
C252 H278 0.977 1_556 S
C253 C249 1.684 . S
C253 H279 0.979 . S
C253 H280 0.980 1_556 S
C253 H281 0.983 . S
C254 H230 0.948 . S
C254 C255 1.391 1_556 S
C254 C259 1.391 . S
C255 C254 1.391 1_554 S
C255 C256 1.391 . S
C256 H233 0.947 . S
C256 C255 1.391 . S
C256 C257 1.392 . S
C257 H234 0.948 . S
C257 C256 1.392 . S
C257 C258 1.419 . S
C258 C257 1.419 . S
C258 C259 1.391 1_554 S
C258 C262 1.397 . S
C259 C254 1.391 . S
C259 C258 1.391 1_556 S
C259 C260 1.399 . S
C260 C259 1.399 . S
C260 C261 1.396 . S
C260 C263 1.453 . S
C260 C264 1.684 . S
C261 C251 1.723 . S
C261 C260 1.396 . S
C261 C262 1.394 1_556 S
C262 C232 1.723 . S
C262 C258 1.397 . S
C262 C261 1.394 1_554 S
C263 H235 0.982 . S
C263 H239 0.979 . S
C263 H240 0.977 . S
C263 C260 1.453 . S
C264 H236 0.979 . S
C264 H237 0.980 . S
C264 H238 0.983 . S
C264 C260 1.684 . S
H265 C283 0.948 . S
H266 C224 0.948 . S
H267 C242 0.979 . S
H268 C242 0.980 . S
H269 C242 0.983 . S
H270 C241 0.982 . S
H271 C241 0.979 . S
H272 C241 0.977 . S
H273 C243 0.948 . S
H274 C245 0.947 . S
H275 C246 0.948 . S
H276 C252 0.982 . S
H277 C252 0.979 . S
H278 C252 0.977 1_554 S
H279 C253 0.979 . S
H280 C253 0.980 1_554 S
H281 C253 0.983 . S
H282 C226 0.947 . S
C283 C226 1.392 . S
C283 C227 1.419 . S
C283 H265 0.948 . S
C284 C285 1.391 . S
C284 C288 1.391 . S
C284 H326 0.948 . S
C285 C284 1.391 . S
C285 C286 1.391 . S
C286 C285 1.391 . S
C286 H342 0.947 . S
C286 C343 1.392 . S
C287 C288 1.391 . S
C287 C291 1.397 . S
C287 C343 1.419 . S
C288 C284 1.391 . S
C288 C287 1.391 . S
C288 C289 1.399 . S
C289 C288 1.399 . S
C289 C292 1.396 . S
C289 C301 1.453 . S
C289 C302 1.684 . S
H290 C314 0.948 . S
C291 C287 1.397 . S
C291 C292 1.394 . S
C291 C310 1.723 1_554 S
C292 C289 1.396 . S
C292 C291 1.394 . S
C292 C322 1.723 . S
H293 C316 0.947 . S
H294 C317 0.948 . S
H295 C323 0.982 . S
H296 C324 0.979 . S
H297 C324 0.980 . S
H298 C324 0.983 . S
H299 C323 0.979 . S
H300 C323 0.977 . S
C301 C289 1.453 . S
C301 H330 0.982 . S
C301 H331 0.979 . S
C301 H332 0.977 . S
C302 C289 1.684 . S
C302 H327 0.979 . S
C302 H328 0.980 . S
C302 H329 0.983 . S
C303 C304 1.391 . S
C303 C308 1.391 . S
C303 H333 0.948 . S
C304 C303 1.391 . S
C304 C305 1.391 . S
C305 C304 1.391 . S
C305 C306 1.392 . S
C305 H334 0.947 . S
C306 C305 1.392 . S
C306 C307 1.419 . S
C306 H335 0.948 . S
C307 C306 1.419 . S
C307 C308 1.391 . S
C307 C311 1.397 . S
C308 C303 1.391 . S
C308 C307 1.391 . S
C308 C309 1.399 . S
C309 C308 1.399 . S
C309 C310 1.396 . S
C309 C312 1.453 . S
C309 C313 1.684 . S
C310 C291 1.723 1_556 S
C310 C309 1.396 . S
C310 C311 1.394 . S
C311 C307 1.397 . S
C311 C310 1.394 . S
C311 C321 1.723 . S
C312 C309 1.453 . S
C312 H336 0.982 . S
C312 H337 0.979 . S
C312 H338 0.977 1_556 S
C313 C309 1.684 . S
C313 H339 0.979 . S
C313 H340 0.980 1_556 S
C313 H341 0.983 . S
C314 H290 0.948 . S
C314 C315 1.391 1_556 S
C314 C319 1.391 . S
C315 C314 1.391 1_554 S
C315 C316 1.391 . S
C316 H293 0.947 . S
C316 C315 1.391 . S
C316 C317 1.392 . S
C317 H294 0.948 . S
C317 C316 1.392 . S
C317 C318 1.419 . S
C318 C317 1.419 . S
C318 C319 1.391 1_554 S
C318 C322 1.397 . S
C319 C314 1.391 . S
C319 C318 1.391 1_556 S
C319 C320 1.399 . S
C320 C319 1.399 . S
C320 C321 1.396 . S
C320 C323 1.453 . S
C320 C324 1.684 . S
C321 C311 1.723 . S
C321 C320 1.396 . S
C321 C322 1.394 1_556 S
C322 C292 1.723 . S
C322 C318 1.397 . S
C322 C321 1.394 1_554 S
C323 H295 0.982 . S
C323 H299 0.979 . S
C323 H300 0.977 . S
C323 C320 1.453 . S
C324 H296 0.979 . S
C324 H297 0.980 . S
C324 H298 0.983 . S
C324 C320 1.684 . S
H325 C343 0.948 . S
H326 C284 0.948 . S
H327 C302 0.979 . S
H328 C302 0.980 . S
H329 C302 0.983 . S
H330 C301 0.982 . S
H331 C301 0.979 . S
H332 C301 0.977 . S
H333 C303 0.948 . S
H334 C305 0.947 . S
H335 C306 0.948 . S
H336 C312 0.982 . S
H337 C312 0.979 . S
H338 C312 0.977 1_554 S
H339 C313 0.979 . S
H340 C313 0.980 1_554 S
H341 C313 0.983 . S
H342 C286 0.947 . S
C343 C286 1.392 . S
C343 C287 1.419 . S
C343 H325 0.948 . S
C344 C345 1.391 . S
C344 C348 1.391 . S
C344 H386 0.948 . S
C345 C344 1.391 . S
C345 C346 1.391 . S
C346 C345 1.391 . S
C346 H402 0.947 . S
C346 C403 1.392 . S
C347 C348 1.391 . S
C347 C351 1.397 . S
C347 C403 1.419 . S
C348 C344 1.391 . S
C348 C347 1.391 . S
C348 C349 1.399 . S
C349 C348 1.399 . S
C349 C352 1.396 . S
C349 C361 1.453 . S
C349 C362 1.684 . S
H350 C374 0.948 . S
C351 C347 1.397 . S
C351 C352 1.394 . S
C351 C370 1.723 . S
C352 C349 1.396 . S
C352 C351 1.394 . S
C352 C382 1.723 . S
H353 C376 0.947 . S
H354 C377 0.948 . S
H355 C383 0.982 . S
H356 C384 0.979 . S
H357 C384 0.980 . S
H358 C384 0.983 . S
H359 C383 0.979 . S
H360 C383 0.977 . S
C361 C349 1.453 . S
C361 H390 0.982 . S
C361 H391 0.979 . S
C361 H392 0.977 . S
C362 C349 1.684 . S
C362 H387 0.979 . S
C362 H388 0.980 . S
C362 H389 0.983 . S
C363 C364 1.391 . S
C363 C368 1.391 . S
C363 H393 0.948 . S
C364 C363 1.391 . S
C364 C365 1.391 . S
C365 C364 1.391 . S
C365 C366 1.392 . S
C365 H394 0.947 . S
C366 C365 1.392 . S
C366 C367 1.419 . S
C366 H395 0.948 . S
C367 C366 1.419 . S
C367 C368 1.391 . S
C367 C371 1.397 . S
C368 C363 1.391 . S
C368 C367 1.391 . S
C368 C369 1.399 . S
C369 C368 1.399 . S
C369 C370 1.396 . S
C369 C372 1.453 . S
C369 C373 1.684 . S
C370 C351 1.723 . S
C370 C369 1.396 . S
C370 C371 1.394 . S
C371 C367 1.397 . S
C371 C370 1.394 . S
C371 C381 1.723 . S
C372 C369 1.453 . S
C372 H396 0.982 . S
C372 H397 0.979 . S
C372 H398 0.977 . S
C373 C369 1.684 . S
C373 H399 0.979 . S
C373 H400 0.980 . S
C373 H401 0.983 . S
C374 H350 0.948 . S
C374 C375 1.391 . S
C374 C379 1.391 . S
C375 C374 1.391 . S
C375 C376 1.391 . S
C376 H353 0.947 . S
C376 C375 1.391 . S
C376 C377 1.392 . S
C377 H354 0.948 . S
C377 C376 1.392 . S
C377 C378 1.419 . S
C378 C377 1.419 . S
C378 C379 1.391 . S
C378 C382 1.397 . S
C379 C374 1.391 . S
C379 C378 1.391 . S
C379 C380 1.399 . S
C380 C379 1.399 . S
C380 C381 1.396 . S
C380 C383 1.453 . S
C380 C384 1.684 . S
C381 C371 1.723 . S
C381 C380 1.396 . S
C381 C382 1.394 . S
C382 C352 1.723 . S
C382 C378 1.397 . S
C382 C381 1.394 . S
C383 H355 0.982 . S
C383 H359 0.979 . S
C383 H360 0.977 . S
C383 C380 1.453 . S
C384 H356 0.979 . S
C384 H357 0.980 . S
C384 H358 0.983 . S
C384 C380 1.684 . S
H385 C403 0.948 . S
H386 C344 0.948 . S
H387 C362 0.979 . S
H388 C362 0.980 . S
H389 C362 0.983 . S
H390 C361 0.982 . S
H391 C361 0.979 . S
H392 C361 0.977 . S
H393 C363 0.948 . S
H394 C365 0.947 . S
H395 C366 0.948 . S
H396 C372 0.982 . S
H397 C372 0.979 . S
H398 C372 0.977 . S
H399 C373 0.979 . S
H400 C373 0.980 . S
H401 C373 0.983 . S
H402 C346 0.947 . S
C403 C346 1.392 . S
C403 C347 1.419 . S
C403 H385 0.948 . S
C404 C405 1.391 . S
C404 C408 1.391 . S
C404 H446 0.948 . S
C405 C404 1.391 . S
C405 C406 1.391 . S
C406 C405 1.391 . S
C406 H462 0.947 . S
C406 C463 1.392 . S
C407 C408 1.391 . S
C407 C411 1.397 . S
C407 C463 1.419 . S
C408 C404 1.391 . S
C408 C407 1.391 . S
C408 C409 1.399 . S
C409 C408 1.399 . S
C409 C412 1.396 . S
C409 C421 1.453 . S
C409 C422 1.684 . S
H410 C434 0.948 . S
C411 C407 1.397 . S
C411 C412 1.394 . S
C411 C430 1.723 . S
C412 C409 1.396 . S
C412 C411 1.394 . S
C412 C442 1.723 . S
H413 C436 0.947 . S
H414 C437 0.948 . S
H415 C443 0.982 . S
H416 C444 0.979 . S
H417 C444 0.980 . S
H418 C444 0.983 . S
H419 C443 0.979 . S
H420 C443 0.977 . S
C421 C409 1.453 . S
C421 H450 0.982 . S
C421 H451 0.979 . S
C421 H452 0.977 . S
C422 C409 1.684 . S
C422 H447 0.979 . S
C422 H448 0.980 . S
C422 H449 0.983 . S
C423 C424 1.391 . S
C423 C428 1.391 . S
C423 H453 0.948 . S
C424 C423 1.391 . S
C424 C425 1.391 . S
C425 C424 1.391 . S
C425 C426 1.392 . S
C425 H454 0.947 . S
C426 C425 1.392 . S
C426 C427 1.419 . S
C426 H455 0.948 . S
C427 C426 1.419 . S
C427 C428 1.391 . S
C427 C431 1.397 . S
C428 C423 1.391 . S
C428 C427 1.391 . S
C428 C429 1.399 . S
C429 C428 1.399 . S
C429 C430 1.396 . S
C429 C432 1.453 . S
C429 C433 1.684 . S
C430 C411 1.723 . S
C430 C429 1.396 . S
C430 C431 1.394 . S
C431 C427 1.397 . S
C431 C430 1.394 . S
C431 C441 1.723 . S
C432 C429 1.453 . S
C432 H456 0.982 . S
C432 H457 0.979 . S
C432 H458 0.977 . S
C433 C429 1.684 . S
C433 H459 0.979 . S
C433 H460 0.980 . S
C433 H461 0.983 . S
C434 H410 0.948 . S
C434 C435 1.391 . S
C434 C439 1.391 . S
C435 C434 1.391 . S
C435 C436 1.391 . S
C436 H413 0.947 . S
C436 C435 1.391 . S
C436 C437 1.392 . S
C437 H414 0.948 . S
C437 C436 1.392 . S
C437 C438 1.419 . S
C438 C437 1.419 . S
C438 C439 1.391 . S
C438 C442 1.397 . S
C439 C434 1.391 . S
C439 C438 1.391 . S
C439 C440 1.399 . S
C440 C439 1.399 . S
C440 C441 1.396 . S
C440 C443 1.453 . S
C440 C444 1.684 . S
C441 C431 1.723 . S
C441 C440 1.396 . S
C441 C442 1.394 . S
C442 C412 1.723 . S
C442 C438 1.397 . S
C442 C441 1.394 . S
C443 H415 0.982 . S
C443 H419 0.979 . S
C443 H420 0.977 . S
C443 C440 1.453 . S
C444 H416 0.979 . S
C444 H417 0.980 . S
C444 H418 0.983 . S
C444 C440 1.684 . S
H445 C463 0.948 . S
H446 C404 0.948 . S
H447 C422 0.979 . S
H448 C422 0.980 . S
H449 C422 0.983 . S
H450 C421 0.982 . S
H451 C421 0.979 . S
H452 C421 0.977 . S
H453 C423 0.948 . S
H454 C425 0.947 . S
H455 C426 0.948 . S
H456 C432 0.982 . S
H457 C432 0.979 . S
H458 C432 0.977 . S
H459 C433 0.979 . S
H460 C433 0.980 . S
H461 C433 0.983 . S
H462 C406 0.947 . S
C463 C406 1.392 . S
C463 C407 1.419 . S
C463 H445 0.948 . S
C464 C465 1.391 . S
C464 C468 1.391 . S
C464 H506 0.948 . S
C465 C464 1.391 . S
C465 C466 1.391 . S
C466 C465 1.391 . S
C466 H522 0.947 . S
C466 C523 1.392 . S
C467 C468 1.391 . S
C467 C471 1.397 . S
C467 C523 1.419 . S
C468 C464 1.391 . S
C468 C467 1.391 . S
C468 C469 1.399 . S
C469 C468 1.399 . S
C469 C472 1.396 . S
C469 C481 1.453 . S
C469 C482 1.684 . S
H470 C494 0.948 . S
C471 C467 1.397 . S
C471 C472 1.394 . S
C471 C490 1.723 . S
C472 C469 1.396 . S
C472 C471 1.394 . S
C472 C502 1.723 . S
H473 C496 0.947 . S
H474 C497 0.948 . S
H475 C503 0.982 . S
H476 C504 0.979 . S
H477 C504 0.980 . S
H478 C504 0.983 . S
H479 C503 0.979 . S
H480 C503 0.977 . S
C481 C469 1.453 . S
C481 H510 0.982 . S
C481 H511 0.979 . S
C481 H512 0.977 . S
C482 C469 1.684 . S
C482 H507 0.979 . S
C482 H508 0.980 . S
C482 H509 0.983 . S
C483 C484 1.391 . S
C483 C488 1.391 . S
C483 H513 0.948 . S
C484 C483 1.391 . S
C484 C485 1.391 . S
C485 C484 1.391 . S
C485 C486 1.392 . S
C485 H514 0.947 . S
C486 C485 1.392 . S
C486 C487 1.419 . S
C486 H515 0.948 . S
C487 C486 1.419 . S
C487 C488 1.391 . S
C487 C491 1.397 . S
C488 C483 1.391 . S
C488 C487 1.391 . S
C488 C489 1.399 . S
C489 C488 1.399 . S
C489 C490 1.396 . S
C489 C492 1.453 . S
C489 C493 1.684 . S
C490 C471 1.723 . S
C490 C489 1.396 . S
C490 C491 1.394 . S
C491 C487 1.397 . S
C491 C490 1.394 . S
C491 C501 1.723 . S
C492 C489 1.453 . S
C492 H516 0.982 . S
C492 H517 0.979 . S
C492 H518 0.977 . S
C493 C489 1.684 . S
C493 H519 0.979 1_455 S
C493 H520 0.980 . S
C493 H521 0.983 1_455 S
C494 H470 0.948 . S
C494 C495 1.391 . S
C494 C499 1.391 . S
C495 C494 1.391 . S
C495 C496 1.391 . S
C496 H473 0.947 . S
C496 C495 1.391 . S
C496 C497 1.392 . S
C497 H474 0.948 . S
C497 C496 1.392 . S
C497 C498 1.419 . S
C498 C497 1.419 . S
C498 C499 1.391 . S
C498 C502 1.397 . S
C499 C494 1.391 . S
C499 C498 1.391 . S
C499 C500 1.399 . S
C500 C499 1.399 . S
C500 C501 1.396 . S
C500 C503 1.453 . S
C500 C504 1.684 . S
C501 C491 1.723 . S
C501 C500 1.396 . S
C501 C502 1.394 . S
C502 C472 1.723 . S
C502 C498 1.397 . S
C502 C501 1.394 . S
C503 H475 0.982 . S
C503 H479 0.979 . S
C503 H480 0.977 . S
C503 C500 1.453 . S
C504 H476 0.979 . S
C504 H477 0.980 . S
C504 H478 0.983 . S
C504 C500 1.684 . S
H505 C523 0.948 . S
H506 C464 0.948 . S
H507 C482 0.979 . S
H508 C482 0.980 . S
H509 C482 0.983 . S
H510 C481 0.982 . S
H511 C481 0.979 . S
H512 C481 0.977 . S
H513 C483 0.948 . S
H514 C485 0.947 . S
H515 C486 0.948 . S
H516 C492 0.982 . S
H517 C492 0.979 . S
H518 C492 0.977 . S
H519 C493 0.979 1_655 S
H520 C493 0.980 . S
H521 C493 0.983 1_655 S
H522 C466 0.947 . S
C523 C466 1.392 . S
C523 C467 1.419 . S
C523 H505 0.948 . S
C524 C525 1.391 . S
C524 C528 1.391 . S
C524 H566 0.948 . S
C525 C524 1.391 . S
C525 C526 1.391 . S
C526 C525 1.391 . S
C526 H582 0.947 . S
C526 C583 1.392 . S
C527 C528 1.391 . S
C527 C531 1.397 . S
C527 C583 1.419 . S
C528 C524 1.391 . S
C528 C527 1.391 . S
C528 C529 1.399 . S
C529 C528 1.399 . S
C529 C532 1.396 . S
C529 C541 1.453 . S
C529 C542 1.684 . S
H530 C554 0.948 . S
C531 C527 1.397 . S
C531 C532 1.394 . S
C531 C550 1.723 . S
C532 C529 1.396 . S
C532 C531 1.394 . S
C532 C562 1.723 . S
H533 C556 0.947 . S
H534 C557 0.948 . S
H535 C563 0.982 . S
H536 C564 0.979 . S
H537 C564 0.980 . S
H538 C564 0.983 . S
H539 C563 0.979 . S
H540 C563 0.977 . S
C541 C529 1.453 . S
C541 H570 0.982 . S
C541 H571 0.979 . S
C541 H572 0.977 . S
C542 C529 1.684 . S
C542 H567 0.979 . S
C542 H568 0.980 . S
C542 H569 0.983 . S
C543 C544 1.391 . S
C543 C548 1.391 . S
C543 H573 0.948 . S
C544 C543 1.391 . S
C544 C545 1.391 . S
C545 C544 1.391 . S
C545 C546 1.392 . S
C545 H574 0.947 . S
C546 C545 1.392 . S
C546 C547 1.419 . S
C546 H575 0.948 . S
C547 C546 1.419 . S
C547 C548 1.391 . S
C547 C551 1.397 . S
C548 C543 1.391 . S
C548 C547 1.391 . S
C548 C549 1.399 . S
C549 C548 1.399 . S
C549 C550 1.396 . S
C549 C552 1.453 . S
C549 C553 1.684 . S
C550 C531 1.723 . S
C550 C549 1.396 . S
C550 C551 1.394 . S
C551 C547 1.397 . S
C551 C550 1.394 . S
C551 C561 1.723 . S
C552 C549 1.453 . S
C552 H576 0.982 . S
C552 H577 0.979 . S
C552 H578 0.977 . S
C553 C549 1.684 . S
C553 H579 0.979 1_545 S
C553 H580 0.980 . S
C553 H581 0.983 1_545 S
C554 H530 0.948 . S
C554 C555 1.391 . S
C554 C559 1.391 . S
C555 C554 1.391 . S
C555 C556 1.391 . S
C556 H533 0.947 . S
C556 C555 1.391 . S
C556 C557 1.392 . S
C557 H534 0.948 . S
C557 C556 1.392 . S
C557 C558 1.419 . S
C558 C557 1.419 . S
C558 C559 1.391 . S
C558 C562 1.397 . S
C559 C554 1.391 . S
C559 C558 1.391 . S
C559 C560 1.399 . S
C560 C559 1.399 . S
C560 C561 1.396 . S
C560 C563 1.453 . S
C560 C564 1.684 . S
C561 C551 1.723 . S
C561 C560 1.396 . S
C561 C562 1.394 . S
C562 C532 1.723 . S
C562 C558 1.397 . S
C562 C561 1.394 . S
C563 H535 0.982 . S
C563 H539 0.979 . S
C563 H540 0.977 . S
C563 C560 1.453 . S
C564 H536 0.979 . S
C564 H537 0.980 . S
C564 H538 0.983 . S
C564 C560 1.684 . S
H565 C583 0.948 . S
H566 C524 0.948 . S
H567 C542 0.979 . S
H568 C542 0.980 . S
H569 C542 0.983 . S
H570 C541 0.982 . S
H571 C541 0.979 . S
H572 C541 0.977 . S
H573 C543 0.948 . S
H574 C545 0.947 . S
H575 C546 0.948 . S
H576 C552 0.982 . S
H577 C552 0.979 . S
H578 C552 0.977 . S
H579 C553 0.979 1_565 S
H580 C553 0.980 . S
H581 C553 0.983 1_565 S
H582 C526 0.947 . S
C583 C526 1.392 . S
C583 C527 1.419 . S
C583 H565 0.948 . S
C584 C585 1.387 1_556 S
C584 H588 0.950 . S
C584 C593 1.390 . S
C585 C584 1.387 1_554 S
C585 C587 1.387 . S
H586 C593 0.950 . S
C587 C585 1.387 . S
C587 C589 1.390 . S
C587 H591 0.950 . S
H588 C584 0.950 . S
C589 C587 1.390 . S
C589 C590 1.387 . S
C589 H592 0.950 . S
C590 C589 1.387 . S
C590 C593 1.387 1_554 S
H591 C587 0.950 . S
H592 C589 0.950 . S
C593 C584 1.390 . S
C593 H586 0.950 . S
C593 C590 1.387 1_556 S
C594 C595 1.387 1_556 S
C594 H598 0.950 . S
C594 C603 1.390 . S
C595 C594 1.387 1_554 S
C595 C597 1.387 . S
H596 C603 0.950 . S
C597 C595 1.387 . S
C597 C599 1.390 . S
C597 H601 0.950 . S
H598 C594 0.950 . S
C599 C597 1.390 . S
C599 C600 1.387 . S
C599 H602 0.950 . S
C600 C599 1.387 . S
C600 C603 1.387 1_554 S
H601 C597 0.950 . S
H602 C599 0.950 . S
C603 C594 1.390 . S
C603 H596 0.950 . S
C603 C600 1.387 1_556 S
C604 C605 1.387 1_556 S
C604 H608 0.950 . S
C604 C613 1.390 . S
C605 C604 1.387 1_554 S
C605 C607 1.387 . S
H606 C613 0.950 . S
C607 C605 1.387 . S
C607 C609 1.390 . S
C607 H611 0.950 . S
H608 C604 0.950 . S
C609 C607 1.390 . S
C609 C610 1.387 . S
C609 H612 0.950 . S
C610 C609 1.387 . S
C610 C613 1.387 1_554 S
H611 C607 0.950 . S
H612 C609 0.950 . S
C613 C604 1.390 . S
C613 H606 0.950 . S
C613 C610 1.387 1_556 S
C614 C615 1.387 1_556 S
C614 H618 0.950 . S
C614 C623 1.390 . S
C615 C614 1.387 1_554 S
C615 C617 1.387 . S
H616 C623 0.950 . S
C617 C615 1.387 . S
C617 C619 1.390 . S
C617 H621 0.950 . S
H618 C614 0.950 . S
C619 C617 1.390 . S
C619 C620 1.387 . S
C619 H622 0.950 . S
C620 C619 1.387 . S
C620 C623 1.387 1_554 S
H621 C617 0.950 . S
H622 C619 0.950 . S
C623 C614 1.390 . S
C623 H616 0.950 . S
C623 C620 1.387 1_556 S
C624 C625 1.387 . S
C624 H628 0.950 . S
C624 C633 1.390 . S
C625 C624 1.387 . S
C625 C627 1.387 . S
H626 C633 0.950 . S
C627 C625 1.387 . S
C627 C629 1.390 . S
C627 H631 0.950 . S
H628 C624 0.950 . S
C629 C627 1.390 . S
C629 C630 1.387 . S
C629 H632 0.950 . S
C630 C629 1.387 . S
C630 C633 1.387 . S
H631 C627 0.950 . S
H632 C629 0.950 . S
C633 C624 1.390 . S
C633 H626 0.950 . S
C633 C630 1.387 . S
C634 C635 1.387 . S
C634 H638 0.950 . S
C634 C643 1.390 . S
C635 C634 1.387 . S
C635 C637 1.387 . S
H636 C643 0.950 . S
C637 C635 1.387 . S
C637 C639 1.390 . S
C637 H641 0.950 . S
H638 C634 0.950 . S
C639 C637 1.390 . S
C639 C640 1.387 . S
C639 H642 0.950 . S
C640 C639 1.387 . S
C640 C643 1.387 . S
H641 C637 0.950 . S
H642 C639 0.950 . S
C643 C634 1.390 . S
C643 H636 0.950 . S
C643 C640 1.387 . S
C644 C645 1.387 . S
C644 H648 0.950 . S
C644 C653 1.390 . S
C645 C644 1.387 . S
C645 C647 1.387 . S
H646 C653 0.950 . S
C647 C645 1.387 . S
C647 C649 1.390 . S
C647 H651 0.950 . S
H648 C644 0.950 . S
C649 C647 1.390 . S
C649 C650 1.387 . S
C649 H652 0.950 . S
C650 C649 1.387 . S
C650 C653 1.387 . S
H651 C647 0.950 . S
H652 C649 0.950 . S
C653 C644 1.390 . S
C653 H646 0.950 . S
C653 C650 1.387 . S
C654 C655 1.387 . S
C654 H658 0.950 . S
C654 C663 1.390 . S
C655 C654 1.387 . S
C655 C657 1.387 . S
H656 C663 0.950 . S
C657 C655 1.387 . S
C657 C659 1.390 . S
C657 H661 0.950 . S
H658 C654 0.950 . S
C659 C657 1.390 . S
C659 C660 1.387 . S
C659 H662 0.950 . S
C660 C659 1.387 . S
C660 C663 1.387 . S
H661 C657 0.950 . S
H662 C659 0.950 . S
C663 C654 1.390 . S
C663 H656 0.950 . S
C663 C660 1.387 . S
C664 C665 1.387 . S
C664 H668 0.950 . S
C664 C673 1.390 . S
C665 C664 1.387 . S
C665 C667 1.387 . S
H666 C673 0.950 . S
C667 C665 1.387 . S
C667 C669 1.390 . S
C667 H671 0.950 1_455 S
H668 C664 0.950 . S
C669 C667 1.390 . S
C669 C670 1.387 . S
C669 H672 0.950 1_455 S
C670 C669 1.387 . S
C670 C673 1.387 . S
H671 C667 0.950 1_655 S
H672 C669 0.950 1_655 S
C673 C664 1.390 . S
C673 H666 0.950 . S
C673 C670 1.387 . S
C674 C675 1.387 . S
C674 H678 0.950 1_545 S
C674 C683 1.390 . S
C675 C674 1.387 . S
C675 C677 1.387 . S
H676 C683 0.950 1_565 S
C677 C675 1.387 . S
C677 C679 1.390 . S
C677 H681 0.950 . S
H678 C674 0.950 1_565 S
C679 C677 1.390 . S
C679 C680 1.387 . S
C679 H682 0.950 . S
C680 C679 1.387 . S
C680 C683 1.387 . S
H681 C677 0.950 . S
H682 C679 0.950 . S
C683 C674 1.390 . S
C683 H676 0.950 1_545 S
C683 C680 1.387 . S
C684 C685 1.387 . S
C684 H688 0.950 . S
C684 C693 1.390 . S
C685 C684 1.387 . S
C685 C687 1.387 . S
H686 C693 0.950 . S
C687 C685 1.387 . S
C687 C689 1.390 . S
C687 H691 0.950 1_655 S
H688 C684 0.950 . S
C689 C687 1.390 . S
C689 C690 1.387 . S
C689 H692 0.950 1_655 S
C690 C689 1.387 . S
C690 C693 1.387 . S
H691 C687 0.950 1_455 S
H692 C689 0.950 1_455 S
C693 C684 1.390 . S
C693 H686 0.950 . S
C693 C690 1.387 . S
C694 C695 1.387 . S
C694 H698 0.950 . S
C694 C703 1.390 . S
C695 C694 1.387 . S
C695 C697 1.387 . S
H696 C703 0.950 . S
C697 C695 1.387 . S
C697 C699 1.390 . S
C697 H701 0.950 1_565 S
H698 C694 0.950 . S
C699 C697 1.390 . S
C699 C700 1.387 . S
C699 H702 0.950 1_565 S
C700 C699 1.387 . S
C700 C703 1.387 . S
H701 C697 0.950 1_545 S
H702 C699 0.950 1_545 S
C703 C694 1.390 . S
C703 H696 0.950 . S
C703 C700 1.387 . S
C704 C705 1.387 . S
C704 H708 0.950 1_565 S
C704 C713 1.390 . S
C705 C704 1.387 . S
C705 C707 1.387 . S
H706 C713 0.950 1_545 S
C707 C705 1.387 . S
C707 C709 1.390 . S
C707 H711 0.950 . S
H708 C704 0.950 1_545 S
C709 C707 1.390 . S
C709 C710 1.387 . S
C709 H712 0.950 . S
C710 C709 1.387 . S
C710 C713 1.387 . S
H711 C707 0.950 . S
H712 C709 0.950 . S
C713 C704 1.390 . S
C713 H706 0.950 1_565 S
C713 C710 1.387 . S
C714 C715 1.387 . S
C714 H718 0.950 . S
C714 C723 1.390 . S
C715 C714 1.387 . S
C715 C717 1.387 . S
H716 C723 0.950 . S
C717 C715 1.387 . S
C717 C719 1.390 . S
C717 H721 0.950 1_455 S
H718 C714 0.950 . S
C719 C717 1.390 . S
C719 C720 1.387 . S
C719 H722 0.950 1_455 S
C720 C719 1.387 . S
C720 C723 1.387 . S
H721 C717 0.950 1_655 S
H722 C719 0.950 1_655 S
C723 C714 1.390 . S
C723 H716 0.950 . S
C723 C720 1.387 . S
C724 C725 1.387 . S
C724 H728 0.950 . S
C724 C733 1.390 . S
C725 C724 1.387 . S
C725 C727 1.387 . S
H726 C733 0.950 . S
C727 C725 1.387 . S
C727 C729 1.390 . S
C727 H731 0.950 . S
H728 C724 0.950 . S
C729 C727 1.390 . S
C729 C730 1.387 . S
C729 H732 0.950 . S
C730 C729 1.387 . S
C730 C733 1.387 . S
H731 C727 0.950 . S
H732 C729 0.950 . S
C733 C724 1.390 . S
C733 H726 0.950 . S
C733 C730 1.387 . S
C734 C735 1.387 . S
C734 H738 0.950 . S
C734 C743 1.390 . S
C735 C734 1.387 . S
C735 C737 1.387 . S
H736 C743 0.950 . S
C737 C735 1.387 . S
C737 C739 1.390 . S
C737 H741 0.950 . S
H738 C734 0.950 . S
C739 C737 1.390 . S
C739 C740 1.387 . S
C739 H742 0.950 . S
C740 C739 1.387 . S
C740 C743 1.387 . S
H741 C737 0.950 . S
H742 C739 0.950 . S
C743 C734 1.390 . S
C743 H736 0.950 . S
C743 C740 1.387 . S
C744 C745 1.387 . S
C744 H748 0.950 . S
C744 C753 1.390 . S
C745 C744 1.387 . S
C745 C747 1.387 . S
H746 C753 0.950 . S
C747 C745 1.387 . S
C747 C749 1.390 . S
C747 H751 0.950 . S
H748 C744 0.950 . S
C749 C747 1.390 . S
C749 C750 1.387 . S
C749 H752 0.950 . S
C750 C749 1.387 . S
C750 C753 1.387 . S
H751 C747 0.950 . S
H752 C749 0.950 . S
C753 C744 1.390 . S
C753 H746 0.950 . S
C753 C750 1.387 . S
C754 C755 1.387 . S
C754 H758 0.950 . S
C754 C763 1.390 . S
C755 C754 1.387 . S
C755 C757 1.387 . S
H756 C763 0.950 . S
C757 C755 1.387 . S
C757 C759 1.390 . S
C757 H761 0.950 . S
H758 C754 0.950 . S
C759 C757 1.390 . S
C759 C760 1.387 . S
C759 H762 0.950 . S
C760 C759 1.387 . S
C760 C763 1.387 . S
H761 C757 0.950 . S
H762 C759 0.950 . S
C763 C754 1.390 . S
C763 H756 0.950 . S
C763 C760 1.387 . S
C764 C765 1.387 . S
C764 H768 0.950 . S
C764 C773 1.390 . S
C765 C764 1.387 . S
C765 C767 1.387 . S
H766 C773 0.950 . S
C767 C765 1.387 . S
C767 C769 1.390 . S
C767 H771 0.950 . S
H768 C764 0.950 . S
C769 C767 1.390 . S
C769 C770 1.387 . S
C769 H772 0.950 . S
C770 C769 1.387 . S
C770 C773 1.387 . S
H771 C767 0.950 . S
H772 C769 0.950 . S
C773 C764 1.390 . S
C773 H766 0.950 . S
C773 C770 1.387 . S
C774 C775 1.387 . S
C774 H778 0.950 . S
C774 C783 1.390 . S
C775 C774 1.387 . S
C775 C777 1.387 . S
H776 C783 0.950 . S
C777 C775 1.387 . S
C777 C779 1.390 . S
C777 H781 0.950 . S
H778 C774 0.950 . S
C779 C777 1.390 . S
C779 C780 1.387 . S
C779 H782 0.950 . S
C780 C779 1.387 . S
C780 C783 1.387 . S
H781 C777 0.950 . S
H782 C779 0.950 . S
C783 C774 1.390 . S
C783 H776 0.950 . S
C783 C780 1.387 . S
C784 C785 1.387 . S
C784 H788 0.950 . S
C784 C793 1.390 . S
C785 C784 1.387 . S
C785 C787 1.387 . S
H786 C793 0.950 . S
C787 C785 1.387 . S
C787 C789 1.390 . S
C787 H791 0.950 . S
H788 C784 0.950 . S
C789 C787 1.390 . S
C789 C790 1.387 . S
C789 H792 0.950 . S
C790 C789 1.387 . S
C790 C793 1.387 . S
H791 C787 0.950 . S
H792 C789 0.950 . S
C793 C784 1.390 . S
C793 H786 0.950 . S
C793 C790 1.387 . S
C794 C795 1.387 . S
C794 H798 0.950 . S
C794 C803 1.390 . S
C795 C794 1.387 . S
C795 C797 1.387 . S
H796 C803 0.950 . S
C797 C795 1.387 . S
C797 C799 1.390 . S
C797 H801 0.950 . S
H798 C794 0.950 . S
C799 C797 1.390 . S
C799 C800 1.387 . S
C799 H802 0.950 . S
C800 C799 1.387 . S
C800 C803 1.387 . S
H801 C797 0.950 . S
H802 C799 0.950 . S
C803 C794 1.390 . S
C803 H796 0.950 . S
C803 C800 1.387 . S
C804 C805 1.387 . S
C804 H808 0.950 . S
C804 C813 1.390 . S
C805 C804 1.387 . S
C805 C807 1.387 . S
H806 C813 0.950 . S
C807 C805 1.387 . S
C807 C809 1.390 . S
C807 H811 0.950 . S
H808 C804 0.950 . S
C809 C807 1.390 . S
C809 C810 1.387 . S
C809 H812 0.950 . S
C810 C809 1.387 . S
C810 C813 1.387 . S
H811 C807 0.950 . S
H812 C809 0.950 . S
C813 C804 1.390 . S
C813 H806 0.950 . S
C813 C810 1.387 . S
C814 C815 1.387 . S
C814 H818 0.950 . S
C814 C823 1.390 . S
C815 C814 1.387 . S
C815 C817 1.387 . S
H816 C823 0.950 . S
C817 C815 1.387 . S
C817 C819 1.390 . S
C817 H821 0.950 . S
H818 C814 0.950 . S
C819 C817 1.390 . S
C819 C820 1.387 . S
C819 H822 0.950 . S
C820 C819 1.387 . S
C820 C823 1.387 . S
H821 C817 0.950 . S
H822 C819 0.950 . S
C823 C814 1.390 . S
C823 H816 0.950 . S
C823 C820 1.387 . S
C585 C45 1.631 . S
C590 C135 1.581 . S
C595 C30 1.631 . S
C600 C195 1.585 . S
C605 C39 1.630 . S
C610 C255 1.664 . S
C620 C315 1.660 . S
C615 C34 1.632 . S
C625 C97 1.630 . S
C630 C375 1.586 . S
C640 C435 1.586 . S
C635 C82 1.630 . S
C650 C495 1.660 . S
C645 C91 1.630 . S
C660 C555 1.661 . S
C655 C86 1.633 . S
C670 C484 1.609 . S
C665 C26 1.507 . S
C680 C544 1.609 . S
C675 C36 1.507 . S
C690 C345 1.493 . S
C685 C32 1.512 . S
C700 C405 1.494 . S
C695 C42 1.510 . S
C705 C18 1.578 . S
C710 C424 1.626 . S
C720 C465 1.655 . S
C715 C50 1.572 . S
C725 C4 1.577 . S
C730 C525 1.657 . S
C735 C48 1.578 . S
C740 C364 1.631 . S
C750 C244 1.608 . S
C745 C78 1.508 . S
C755 C88 1.507 . S
C760 C304 1.609 . S
C770 C105 1.489 . S
C765 C84 1.507 . S
C780 C165 1.489 . S
C775 C94 1.507 . S
C790 C184 1.625 . S
C785 C70 1.574 . S
C800 C225 1.656 . S
C795 C102 1.577 . S
C805 C56 1.578 . S
C810 C285 1.658 . S
C815 C100 1.578 . S
C820 C124 1.627 . S
