# Generated by pormake.
# Topology anh, (6,3)-cn, num edge types: 1
# Building blocks:
#     Node 0, Type 0, BuildingBlock: BETDIP_clean_sbu_0, # of connection points: 6
#     Node 1, Type 0, BuildingBlock: BETDIP_clean_sbu_0, # of connection points: 6
#     Node 2, Type 0, BuildingBlock: BETDIP_clean_sbu_0, # of connection points: 6
#     Node 3, Type 1, BuildingBlock: BETDAH_clean_linker_0, # of connection points: 3
#     Node 4, Type 1, BuildingBlock: BETDAH_clean_linker_0, # of connection points: 3
#     Node 5, Type 1, BuildingBlock: BETDAH_clean_linker_0, # of connection points: 3
#     Node 6, Type 1, BuildingBlock: BETDAH_clean_linker_0, # of connection points: 3
#     Node 7, Type 1, BuildingBlock: BETDAH_clean_linker_0, # of connection points: 3
#     Node 8, Type 1, BuildingBlock: BETDAH_clean_linker_0, # of connection points: 3
#     Edge 9, Type (0, 1), BuildingBlock: AJUNOK_clean_linker_0, # of connection points: 2
#     Edge 10, Type (0, 1), BuildingBlock: AJUNOK_clean_linker_0, # of connection points: 2
#     Edge 11, Type (0, 1), BuildingBlock: AJUNOK_clean_linker_0, # of connection points: 2
#     Edge 12, Type (0, 1), BuildingBlock: AJUNOK_clean_linker_0, # of connection points: 2
#     Edge 13, Type (0, 1), BuildingBlock: AJUNOK_clean_linker_0, # of connection points: 2
#     Edge 14, Type (0, 1), BuildingBlock: AJUNOK_clean_linker_0, # of connection points: 2
#     Edge 15, Type (0, 1), BuildingBlock: AJUNOK_clean_linker_0, # of connection points: 2
#     Edge 16, Type (0, 1), BuildingBlock: AJUNOK_clean_linker_0, # of connection points: 2
#     Edge 17, Type (0, 1), BuildingBlock: AJUNOK_clean_linker_0, # of connection points: 2
#     Edge 18, Type (0, 1), BuildingBlock: AJUNOK_clean_linker_0, # of connection points: 2
#     Edge 19, Type (0, 1), BuildingBlock: AJUNOK_clean_linker_0, # of connection points: 2
#     Edge 20, Type (0, 1), BuildingBlock: AJUNOK_clean_linker_0, # of connection points: 2
#     Edge 21, Type (0, 1), BuildingBlock: AJUNOK_clean_linker_0, # of connection points: 2
#     Edge 22, Type (0, 1), BuildingBlock: AJUNOK_clean_linker_0, # of connection points: 2
#     Edge 23, Type (0, 1), BuildingBlock: AJUNOK_clean_linker_0, # of connection points: 2
#     Edge 24, Type (0, 1), BuildingBlock: AJUNOK_clean_linker_0, # of connection points: 2
#     Edge 25, Type (0, 1), BuildingBlock: AJUNOK_clean_linker_0, # of connection points: 2
#     Edge 26, Type (0, 1), BuildingBlock: AJUNOK_clean_linker_0, # of connection points: 2
# Relax obj value: 0.377
# Max RMSD: 0.159
# Mean RMSD: 0.123
data_MOF--net-anh--node1-BETDIP_clean_sbu_0--node2-BETDAH_clean_linker_0--edge1-AJUNOK_clean_linker_0
_symmetry_space_group_name_H-M    P1
_symmetry_Int_Tables_number       1
_symmetry_cell_setting            triclinic
loop_
_symmetry_equiv_pos_as_xyz
'x, y, z'
_cell_length_a     23.047989
_cell_length_b     23.202039
_cell_length_c     36.668421
_cell_angle_alpha  93.172693
_cell_angle_beta   91.883055
_cell_angle_gamma 119.62741
loop_
_atom_site_label
_atom_site_type_symbol
_atom_site_fract_x
_atom_site_fract_y
_atom_site_fract_z
_atom_type_partial_charge
Tb0 Tb 0.17922 0.74142 0.1428 0.0
Tb1 Tb 1.11966 0.60095 0.13383 0.0
C2 C 0.24624 0.86414 0.16101 0.0
C3 C 0.31375 0.91684 0.15424 0.0
C4 C 0.35766 0.95548 0.18414 0.0
C5 C 0.42521 0.99669 0.17934 0.0
C6 C 0.45005 1.00018 0.14442 0.0
C7 C 0.40464 0.9671 0.11391 0.0
C8 C 0.33694 0.92509 0.11881 0.0
C9 C 1.15043 0.68912 0.07379 0.0
C10 C 0.27972 0.67714 0.13193 0.0
C11 C 1.04906 0.47896 0.11337 0.0
C12 C 1.03592 0.41588 0.12693 0.0
C13 C 1.006 0.35803 0.10301 0.0
C14 C 0.98562 0.29622 0.11651 0.0
C15 C 0.9947 0.29188 0.15411 0.0
C16 C 1.0279 0.35037 0.17765 0.0
C17 C 1.04841 0.41204 0.16414 0.0
C18 C 1.15268 0.6445 0.20454 0.0
C19 C 1.02312 0.66795 0.12846 0.0
O20 O 0.24324 0.81883 0.1819 0.0
O21 O 0.20354 0.83824 0.1325 0.0
O22 O 0.17554 0.67562 0.10002 0.0
O23 O 1.13975 0.7363 0.08563 0.0
O24 O 0.27386 0.73115 0.14123 0.0
O25 O 0.22317 0.61901 0.12533 0.0
O26 O 1.02819 0.51266 0.13318 0.0
O27 O 1.10889 0.5168 0.1028 0.0
O28 O 1.12809 0.66704 0.1813 0.0
O29 O 0.1558 0.5955 0.18814 0.0
O30 O 1.03447 0.61917 0.11618 0.0
O31 O 1.0741 0.72032 0.14705 0.0
H32 H 0.3406 0.95032 0.21159 0.0
H33 H 0.45872 1.02099 0.20358 0.0
H34 H 0.42211 0.96991 0.08666 0.0
H35 H 0.30373 0.8964 0.0951 0.0
H36 H 0.99624 0.36045 0.07418 0.0
H37 H 0.95993 0.25165 0.09794 0.0
H38 H 1.03604 0.34812 0.20668 0.0
H39 H 1.07178 0.45641 0.18291 0.0
Tb40 Tb 0.67582 0.11422 0.48867 0.0
Tb41 Tb 0.60263 0.16514 0.4591 0.0
C42 C 0.72055 1.0652 0.53346 0.0
C43 C 0.72963 1.00785 0.53748 0.0
C44 C 0.74583 0.99725 0.57263 0.0
C45 C 0.77816 0.96056 0.57702 0.0
C46 C 0.7947 0.93437 0.54622 0.0
C47 C 0.77176 0.93883 0.51111 0.0
C48 C 0.73901 0.97523 0.50675 0.0
C49 C 0.67814 0.10411 0.41748 0.0
C50 C 0.514 1.01015 0.46184 0.0
C51 C 0.562 0.23492 0.43024 0.0
C52 C 0.59218 0.30693 0.44059 0.0
C53 C 0.64463 0.35226 0.42073 0.0
C54 C 0.69628 0.41112 0.43859 0.0
C55 C 0.69535 0.42474 0.47616 0.0
C56 C 0.63741 0.38581 0.4941 0.0
C57 C 0.58556 0.32766 0.47625 0.0
C58 C 0.61532 0.17579 0.53335 0.0
C59 C 0.76418 0.26444 0.46669 0.0
O60 O 0.66035 1.0572 0.53415 0.0
O61 O 0.75483 0.10335 0.50842 0.0
O62 O 0.62741 1.0942 0.43444 0.0
O63 O 0.72653 0.11471 0.44054 0.0
O64 O 0.56901 1.02055 0.48214 0.0
O65 O 0.51927 1.06211 0.44572 0.0
O66 O 0.60187 0.21774 0.41444 0.0
O67 O 0.53089 0.19578 0.45575 0.0
O68 O 0.65962 0.18957 0.51125 0.0
O69 O 0.55962 0.15317 0.51389 0.0
O70 O 0.70608 0.24935 0.44938 0.0
O71 O 0.76214 0.22004 0.48903 0.0
H72 H 0.73904 1.02227 0.59658 0.0
H73 H 0.79458 0.95677 0.60437 0.0
H74 H 0.7842 0.91929 0.48695 0.0
H75 H 0.72691 0.9832 0.47935 0.0
H76 H 0.65021 0.33839 0.39291 0.0
H77 H 0.73964 0.44248 0.42407 0.0
H78 H 0.6347 0.39742 0.52282 0.0
H79 H 0.54473 0.29514 0.49208 0.0
Tb80 Tb 0.62436 0.64868 0.79945 0.0
Tb81 Tb 0.7666 0.72642 0.80419 0.0
C82 C 0.507 0.59578 0.81763 0.0
C83 C 0.43802 0.56511 0.82889 0.0
C84 C 0.42607 0.57955 0.86461 0.0
C85 C 0.36275 0.54306 0.87759 0.0
C86 C 0.3102 0.49159 0.85506 0.0
C87 C 0.3216 0.47803 0.81906 0.0
C88 C 0.38507 0.51472 0.80601 0.0
C89 C 0.67539 0.66685 0.73516 0.0
C90 C 0.69243 0.81202 0.79333 0.0
C91 C 0.88891 0.76684 0.79874 0.0
C92 C 0.92432 0.73138 0.80916 0.0
C93 C 0.94231 0.69973 0.78151 0.0
C94 C 0.94979 0.64516 0.78888 0.0
C95 C 0.9391 0.62207 0.82387 0.0
C96 C 0.92991 0.65899 0.85239 0.0
C97 C 0.92281 0.71337 0.84518 0.0
C98 C 0.71514 0.70544 0.86973 0.0
C99 C 0.69557 0.56119 0.79236 0.0
O100 O 0.55839 0.63662 0.84006 0.0
O101 O 0.52155 0.58802 0.78414 0.0
O102 O 0.69403 0.70877 0.76241 0.0
O103 O 0.62248 0.61269 0.74254 0.0
O104 O 0.63757 0.75363 0.79864 0.0
O105 O 0.75024 0.81168 0.79131 0.0
O106 O 0.84341 0.73548 0.77197 0.0
O107 O 0.86627 0.78862 0.82522 0.0
O108 O 0.69784 0.66311 0.84228 0.0
O109 O 0.76275 0.76129 0.86044 0.0
O110 O 0.75029 0.62125 0.79113 0.0
O111 O 0.63894 0.56011 0.79979 0.0
H112 H 0.46617 0.61748 0.88303 0.0
H113 H 0.35538 0.55377 0.90564 0.0
H114 H 0.28163 0.43866 0.80122 0.0
H115 H 0.39321 0.50203 0.7785 0.0
H116 H 0.94394 0.71289 0.75351 0.0
H117 H 0.95873 0.61821 0.7668 0.0
H118 H 0.9238 0.64304 0.87993 0.0
H119 H 0.9098 0.73696 0.86725 0.0
H120 H 0.62061 1.03416 0.24782 0.0
H121 H 0.76298 0.97798 0.2847 0.0
H122 H 0.73302 0.99187 0.17009 0.0
C123 C 0.65596 1.01759 0.24166 0.0
C124 C 0.6712 1.01253 0.20525 0.0
C125 C 0.68848 1.00526 0.27048 0.0
C126 C 0.73494 0.98455 0.26258 0.0
C127 C 0.75075 0.97931 0.22642 0.0
C128 C 0.71833 0.99284 0.19778 0.0
N129 N 0.80935 0.97622 0.21999 0.0
C130 C 0.86133 1.03187 0.20672 0.0
H131 H 0.81259 0.57406 0.6129 0.0
H132 H 0.92261 0.7883 0.63096 0.0
H133 H 0.97605 0.68995 0.54849 0.0
C134 C 0.85221 0.62244 0.60717 0.0
C135 C 0.89077 0.62604 0.57764 0.0
C136 C 0.85986 0.68063 0.62595 0.0
C137 C 0.91532 0.74172 0.61842 0.0
C138 C 0.96004 0.74442 0.59238 0.0
C139 C 0.94706 0.68652 0.5718 0.0
N140 N 1.00823 0.8063 0.58079 0.0
C141 C 0.98533 0.84777 0.56946 0.0
H142 H 0.97043 0.52539 0.93352 0.0
H143 H 1.01681 0.39519 -0.00869 0.0
H144 H 0.93806 0.34275 0.87925 0.0
C145 C 0.96828 0.47783 0.93523 0.0
C146 C 0.94608 0.43286 0.90404 0.0
C147 C 0.99536 0.46594 0.9667 0.0
C148 C 0.99494 0.40512 0.96756 0.0
C149 C 0.97446 0.36062 0.93604 0.0
C150 C 0.94953 0.37452 0.90432 0.0
N151 N 0.99722 0.31428 0.93288 0.0
C152 C 1.05734 0.33547 0.91677 0.0
H153 H 0.2657 0.76861 0.36607 0.0
H154 H 1.08185 0.58615 0.3776 0.0
H155 H 0.20959 0.70209 0.4737 0.0
C156 C 0.23109 0.73377 0.38392 0.0
C157 C 0.24762 0.74595 0.42226 0.0
C158 C 0.17279 0.67674 0.36743 0.0
C159 C 1.12682 0.62901 0.39009 0.0
C160 C 1.13808 0.63613 0.42864 0.0
C161 C 0.19973 0.69521 0.44427 0.0
N162 N 1.0901 0.58657 0.45225 0.0
C163 C 1.02632 0.52439 0.44624 0.0
H164 H 0.67117 0.31223 0.69424 0.0
H165 H 0.66351 0.12394 0.7039 0.0
H166 H 0.69683 0.25482 0.801 0.0
C167 C 0.67426 0.27744 0.71165 0.0
C168 C 0.68504 0.29387 0.75001 0.0
C169 C 0.66558 0.21664 0.69496 0.0
C170 C 0.66955 0.1698 0.71695 0.0
C171 C 0.68163 0.18193 0.75545 0.0
C172 C 0.68818 0.24438 0.77159 0.0
N173 N 0.68732 0.13417 0.77859 0.0
C174 C 0.68495 1.07037 0.77202 0.0
H175 H 0.78967 0.66907 0.02806 0.0
H176 H 0.61045 0.68227 0.03896 0.0
H177 H 0.72094 0.67638 0.13534 0.0
C178 C 0.75359 0.67089 0.04562 0.0
C179 C 0.76421 0.67146 0.08394 0.0
C180 C 0.69926 0.67508 0.0291 0.0
C181 C 0.65182 0.67917 0.05163 0.0
C182 C 0.65732 0.67881 0.09025 0.0
C183 C 0.71505 0.67607 0.10591 0.0
N184 N 0.60788 0.68142 0.11418 0.0
C185 C 0.54546 0.68239 0.10875 0.0
C186 C 0.35509 0.63516 0.10083 0.0
C187 C 0.34928 0.68125 0.12582 0.0
C188 C 0.41747 0.63669 0.09469 0.0
C189 C 0.4796 0.6838 0.1135 0.0
H190 H 0.31042 0.59685 0.08544 0.0
H191 H 0.41653 0.59946 0.07514 0.0
S192 S 0.4945 0.8119 0.18524 0.0
N193 N 0.41452 0.77431 0.17087 0.0
N194 N 0.5282 0.77523 0.16094 0.0
C195 C 0.4744 0.72915 0.13926 0.0
C196 C 0.4111 0.72853 0.14489 0.0
C197 C 0.88973 0.35809 0.48529 0.0
C198 C 0.83125 0.33128 0.46085 0.0
C199 C 0.95109 0.41897 0.48028 0.0
C200 C 0.96009 0.45843 0.45017 0.0
H201 H 0.88819 0.33195 0.50912 0.0
H202 H 0.99239 0.43538 0.50065 0.0
S203 S 0.82607 0.41182 0.37627 0.0
N204 N 0.79013 0.35154 0.40386 0.0
N205 N 0.90233 0.46274 0.3949 0.0
C206 C 0.90241 0.43214 0.42537 0.0
C207 C 0.83976 0.37031 0.43053 0.0
C208 C 0.74618 0.93878 0.77996 0.0
C209 C 0.68887 0.87751 0.78719 0.0
C210 C 0.74444 0.99923 0.77435 0.0
C211 C 0.68513 1.00397 0.7752 0.0
H212 H 0.79389 0.94055 0.77877 0.0
H213 H 0.79092 1.04329 0.7696 0.0
S214 S 0.51976 0.86052 0.79309 0.0
N215 N 0.5698 0.82853 0.79469 0.0
N216 N 0.56686 0.93909 0.78447 0.0
C217 C 0.6275 0.94331 0.78231 0.0
C218 C 0.62921 0.88174 0.78808 0.0
C219 C 0.93924 0.71461 0.13405 0.0
C220 C 0.95473 0.66602 0.11901 0.0
C221 C 0.87777 0.71468 0.12453 0.0
C222 C 0.82686 0.66666 0.09872 0.0
H223 H 0.97554 0.75401 0.15339 0.0
H224 H 0.87126 0.75447 0.13677 0.0
S225 S 0.83856 0.52652 0.05134 0.0
N226 N 0.90937 0.5666 0.07717 0.0
N227 N 0.79808 0.56759 0.05912 0.0
C228 C 0.84153 0.61754 0.08385 0.0
C229 C 0.90341 0.61692 0.09391 0.0
C230 C 0.39539 0.93404 0.42856 0.0
C231 C 0.44642 0.94101 0.45445 0.0
C232 C 0.33302 0.8733 0.41993 0.0
C233 C 0.31432 0.8128 0.43648 0.0
H234 H 0.40375 0.97656 0.41402 0.0
H235 H 0.29856 0.87413 0.39947 0.0
S236 S 0.42702 0.79995 0.50704 0.0
N237 N 0.471 0.87825 0.49714 0.0
N238 N 0.35584 0.76638 0.4814 0.0
C239 C 0.36425 0.81884 0.46303 0.0
C240 C 0.42876 0.88126 0.47168 0.0
C241 C 0.64781 0.43162 0.7961 0.0
C242 C 0.69678 0.49392 0.78409 0.0
C243 C 0.64631 0.36915 0.78728 0.0
C244 C 0.69299 0.36308 0.76508 0.0
H245 H 0.60921 0.43071 0.81249 0.0
H246 H 0.60621 0.32446 0.79701 0.0
S247 S 0.83107 0.50844 0.72486 0.0
N248 N 0.79372 0.54241 0.74802 0.0
N249 N 0.78986 0.42828 0.73106 0.0
C250 C 0.7421 0.42496 0.75295 0.0
C251 C 0.74438 0.48858 0.76247 0.0
C252 C 0.90477 0.95298 0.57142 0.0
C253 C 0.84393 0.91173 0.55057 0.0
C254 C 0.95299 0.93361 0.57606 0.0
C255 C 0.94187 0.87285 0.55965 0.0
H256 H 0.91504 1.00051 0.58437 0.0
H257 H 0.99823 0.96542 0.59326 0.0
S258 S 0.79155 0.74652 0.50312 0.0
N259 N 0.77556 0.8072 0.5137 0.0
N260 N 0.86682 0.77106 0.52233 0.0
C261 C 0.88214 0.83157 0.53839 0.0
C262 C 0.83292 0.85105 0.53374 0.0
C263 C 0.87436 0.51153 0.8476 0.0
C264 C 0.93197 0.55726 0.8312 0.0
C265 C 0.87474 0.46166 0.86707 0.0
C266 C 0.93233 0.45579 0.87005 0.0
H267 H 0.83141 0.51876 0.84865 0.0
H268 H 0.83298 0.43297 0.88336 0.0
S269 S 1.08863 0.55149 0.82371 0.0
N270 N 1.0427 0.58551 0.81305 0.0
N271 N 1.0426 0.48991 0.84889 0.0
C272 C 0.98597 0.49425 0.84893 0.0
C273 C 0.98604 0.54579 0.82957 0.0
C274 C 0.56803 1.07957 0.1659 0.0
C275 C 0.52249 1.02423 0.14245 0.0
C276 C 0.62434 1.08128 0.18253 0.0
C277 C 0.63638 1.02786 0.17591 0.0
H278 H 0.55491 0.11632 0.17565 0.0
H279 H 0.65346 0.12009 0.20408 0.0
S280 S 0.55198 0.89144 0.10218 0.0
N281 N 0.50735 0.9293 0.10282 0.0
N282 N 0.61348 0.93261 0.1342 0.0
C283 C 0.60047 0.98129 0.14615 0.0
C284 C 0.54316 0.97963 0.12914 0.0
C285 C 0.78738 0.54158 0.49033 0.0
C286 C 0.75642 0.47462 0.49779 0.0
C287 C 0.8378 0.59062 0.51471 0.0
C288 C 0.85846 0.57394 0.54716 0.0
H289 H 0.76941 0.55648 0.467 0.0
H290 H 0.85637 0.64224 0.50975 0.0
S291 S 0.80321 0.40427 0.57431 0.0
N292 N 0.75771 0.39271 0.53598 0.0
N293 N 0.85188 0.4856 0.58227 0.0
C294 C 0.83262 0.50668 0.55281 0.0
C295 C 0.78158 0.45675 0.52797 0.0
C296 C 0.21338 0.38152 0.86775 0.0
C297 C 0.24401 0.45144 0.86959 0.0
C298 C 1.15219 0.34315 0.88328 0.0
C299 C 1.12011 0.37384 0.90073 0.0
H300 H 0.23755 0.35657 0.8549 0.0
H301 H 1.13015 0.28955 0.88177 0.0
S302 S 0.1773 0.55425 0.91095 0.0
N303 N 0.23619 0.54905 0.88905 0.0
N304 N 1.1211 0.47697 0.91762 0.0
C305 C 1.14934 0.44322 0.902 0.0
C306 C 0.2115 0.48215 0.88658 0.0
C307 C 0.9767 0.17621 0.15508 0.0
C308 C 0.96409 0.22634 0.16925 0.0
C309 C 0.94505 0.11274 0.16824 0.0
C310 C 0.90027 0.09824 0.19582 0.0
H311 H 1.01068 0.18603 0.13354 0.0
H312 H 0.95452 1.07466 0.1563 0.0
S313 S 0.84679 0.21012 0.2401 0.0
N314 N 0.90114 0.25566 0.21101 0.0
N315 N 0.84313 0.13717 0.23615 0.0
C316 C 0.88739 0.14769 0.21019 0.0
C317 C 0.91902 0.21175 0.19678 0.0
C318 C 1.0499 0.62292 0.02988 0.0
C319 C 1.11461 0.63921 0.04279 0.0
C320 C 1.01059 0.56542 0.00628 0.0
C321 C 1.03473 0.52245 -0.00515 0.0
H322 H 1.02859 0.6531 0.0392 0.0
H323 H 0.96065 0.55416 -0.00285 0.0
S324 S 0.2043 0.54813 0.01883 0.0
N325 N 0.20324 0.61162 0.04069 0.0
N326 N 1.12982 0.50365 -0.00299 0.0
C327 C 1.10032 0.5398 0.00704 0.0
C328 C 1.14023 0.59838 0.03061 0.0
C329 C 0.73843 1.09753 0.36439 0.0
C330 C 0.67687 1.07959 0.37932 0.0
C331 C 0.74133 1.0714 0.32972 0.0
C332 C 0.68274 1.0261 0.30851 0.0
H333 H 0.78511 0.13213 0.37973 0.0
H334 H 0.78998 1.08802 0.31912 0.0
S335 S 0.50864 0.96196 0.3351 0.0
N336 N 0.55566 1.01339 0.37038 0.0
N337 N 0.56101 0.9637 0.30488 0.0
C338 C 0.62058 1.00774 0.32294 0.0
C339 C 0.61764 1.03468 0.35841 0.0
C340 C 0.78045 0.72894 0.7034 0.0
C341 C 0.71659 0.67309 0.70385 0.0
C342 C 0.82643 0.73009 0.67903 0.0
C343 C 0.80838 0.6784 0.6512 0.0
H344 H 0.79645 0.77109 0.7233 0.0
H345 H 0.87683 0.7717 0.68299 0.0
S346 S 0.6359 0.53323 0.632 0.0
N347 N 0.63212 0.57073 0.67066 0.0
N348 N 0.7132 0.57836 0.62004 0.0
C349 C 0.74042 0.62671 0.64812 0.0
C350 C 0.69557 0.6231 0.67518 0.0
C351 C 0.69137 0.22597 0.5916 0.0
C352 C 0.62662 0.18402 0.57464 0.0
C353 C 0.70363 0.23593 0.6302 0.0
C354 C 0.65211 0.20276 0.65382 0.0
H355 H 0.73304 0.25219 0.57485 0.0
H356 H 0.754 0.26995 0.64168 0.0
S357 S 0.47439 1.08431 0.62399 0.0
N358 N 0.5106 0.10767 0.58518 0.0
N359 N 0.53402 0.12444 0.65713 0.0
C360 C 0.58754 0.1594 0.63729 0.0
C361 C 0.57473 0.15047 0.598 0.0
C362 C 0.70387 0.7413 0.93438 0.0
C363 C 0.70225 0.6918 0.90939 0.0
C364 C 0.69929 0.73405 0.97249 0.0
C365 C 0.69475 0.67764 0.98783 0.0
H366 H 0.70982 0.78688 0.92441 0.0
H367 H 0.70214 0.77432 -0.00969 0.0
S368 S 0.68867 0.53319 0.93484 0.0
N369 N 0.6941 0.58333 0.90319 0.0
N370 N 0.6881 0.57072 0.97438 0.0
C371 C 0.69238 0.62739 0.9631 0.0
C372 C 0.69535 0.63409 0.92415 0.0
C373 C 0.16455 0.71106 0.26536 0.0
C374 C 1.15246 0.65151 0.24594 0.0
C375 C 0.16994 0.71861 0.30431 0.0
C376 C 0.16214 0.66657 0.32583 0.0
H377 H 0.17182 0.75284 0.25041 0.0
H378 H 0.18071 0.76594 0.31773 0.0
S379 S 1.12735 0.4995 0.28874 0.0
N380 N 1.13121 0.5388 0.25196 0.0
N381 N 1.14058 0.55297 0.32396 0.0
C382 C 1.14834 0.60639 0.30664 0.0
C383 C 1.14379 0.59897 0.26721 0.0
loop_
_geom_bond_atom_site_label_1
_geom_bond_atom_site_label_2
_geom_bond_distance
_geom_bond_site_symmetry_2
_ccdc_geom_bond_type
Tb0 C2 2.809 . S
Tb0 O20 2.484 . S
Tb0 O21 2.440 . S
Tb0 O22 2.658 1_455 S
Tb0 O23 2.409 . S
Tb0 O24 2.378 . S
Tb0 O28 2.325 . S
Tb0 O31 2.341 1_455 S
Tb1 C11 2.809 . S
Tb1 O22 2.325 . S
Tb1 O25 2.341 1_655 S
Tb1 O26 2.484 . S
Tb1 O27 2.440 . S
Tb1 O28 2.658 1_655 S
Tb1 O29 2.409 . S
Tb1 O30 2.378 . S
C2 Tb0 2.809 . S
C2 C3 1.514 . S
C2 O20 1.248 . S
C2 O21 1.266 . S
C3 C2 1.514 . S
C3 C4 1.359 . S
C3 C8 1.348 . S
C4 C3 1.359 . S
C4 C5 1.380 . S
C4 H32 0.929 . S
C5 C4 1.380 . S
C5 C6 1.347 . S
C5 H33 0.931 . S
C6 C5 1.347 . S
C6 C7 1.369 . S
C7 C6 1.369 . S
C7 C8 1.408 . S
C7 H34 0.930 . S
C8 C3 1.348 . S
C8 C7 1.408 . S
C8 H35 0.930 . S
C9 O22 1.281 1_455 S
C9 O23 1.254 . S
C10 O24 1.236 . S
C10 O25 1.266 . S
C11 Tb1 2.809 . S
C11 C12 1.514 . S
C11 O26 1.248 . S
C11 O27 1.266 . S
C12 C11 1.514 . S
C12 C13 1.359 . S
C12 C17 1.348 . S
C13 C12 1.359 . S
C13 C14 1.380 . S
C13 H36 0.929 . S
C14 C13 1.380 . S
C14 C15 1.347 . S
C14 H37 0.931 . S
C15 C14 1.347 . S
C15 C16 1.369 . S
C16 C15 1.369 . S
C16 C17 1.408 . S
C16 H38 0.930 . S
C17 C12 1.348 . S
C17 C16 1.408 . S
C17 H39 0.930 . S
C18 O28 1.281 . S
C18 O29 1.254 1_455 S
C19 O30 1.236 . S
C19 O31 1.266 . S
O20 Tb0 2.484 . S
O20 C2 1.248 . S
O21 Tb0 2.440 . S
O21 C2 1.266 . S
O22 Tb0 2.658 1_655 S
O22 Tb1 2.325 . S
O22 C9 1.281 1_655 S
O23 Tb0 2.409 . S
O23 C9 1.254 . S
O24 Tb0 2.378 . S
O24 C10 1.236 . S
O25 Tb1 2.341 1_455 S
O25 C10 1.266 . S
O26 Tb1 2.484 . S
O26 C11 1.248 . S
O27 Tb1 2.440 . S
O27 C11 1.266 . S
O28 Tb0 2.325 . S
O28 Tb1 2.658 1_455 S
O28 C18 1.281 . S
O29 Tb1 2.409 . S
O29 C18 1.254 1_655 S
O30 Tb1 2.378 . S
O30 C19 1.236 . S
O31 Tb0 2.341 1_655 S
O31 C19 1.266 . S
H32 C4 0.929 . S
H33 C5 0.931 . S
H34 C7 0.930 . S
H35 C8 0.930 . S
H36 C13 0.929 . S
H37 C14 0.931 . S
H38 C16 0.930 . S
H39 C17 0.930 . S
Tb40 C42 2.827 . S
Tb40 O60 2.500 . S
Tb40 O61 2.458 . S
Tb40 O62 2.643 1_565 S
Tb40 O63 2.405 1_565 S
Tb40 O64 2.380 . S
Tb40 O68 2.316 1_565 S
Tb40 O71 2.327 1_565 S
Tb41 C51 2.809 . S
Tb41 O62 2.325 . S
Tb41 O65 2.341 1_545 S
Tb41 O66 2.484 . S
Tb41 O67 2.440 . S
Tb41 O68 2.658 . S
Tb41 O69 2.409 . S
Tb41 O70 2.378 . S
C42 Tb40 2.827 . S
C42 C43 1.514 . S
C42 O60 1.248 . S
C42 O61 1.266 . S
C43 C42 1.514 . S
C43 C44 1.359 . S
C43 C48 1.348 . S
C44 C43 1.359 . S
C44 C45 1.380 . S
C44 H72 0.929 . S
C45 C44 1.380 . S
C45 C46 1.347 . S
C45 H73 0.931 . S
C46 C45 1.347 . S
C46 C47 1.369 . S
C47 C46 1.369 . S
C47 C48 1.408 . S
C47 H74 0.930 . S
C48 C43 1.348 . S
C48 C47 1.408 . S
C48 H75 0.930 . S
C49 O62 1.281 . S
C49 O63 1.254 . S
C50 O64 1.236 . S
C50 O65 1.266 . S
C51 Tb41 2.809 . S
C51 C52 1.514 . S
C51 O66 1.248 . S
C51 O67 1.266 . S
C52 C51 1.514 . S
C52 C53 1.359 . S
C52 C57 1.348 . S
C53 C52 1.359 . S
C53 C54 1.380 . S
C53 H76 0.929 . S
C54 C53 1.380 . S
C54 C55 1.347 . S
C54 H77 0.931 . S
C55 C54 1.347 . S
C55 C56 1.369 . S
C56 C55 1.369 . S
C56 C57 1.408 . S
C56 H78 0.930 . S
C57 C52 1.348 . S
C57 C56 1.408 . S
C57 H79 0.930 . S
C58 O68 1.281 . S
C58 O69 1.254 . S
C59 O70 1.236 . S
C59 O71 1.266 . S
O60 Tb40 2.500 . S
O60 C42 1.248 . S
O61 Tb40 2.458 . S
O61 C42 1.266 . S
O62 Tb40 2.643 1_545 S
O62 Tb41 2.325 . S
O62 C49 1.281 . S
O63 Tb40 2.405 1_545 S
O63 C49 1.254 . S
O64 Tb40 2.380 . S
O64 C50 1.236 . S
O65 Tb41 2.341 1_565 S
O65 C50 1.266 . S
O66 Tb41 2.484 . S
O66 C51 1.248 . S
O67 Tb41 2.440 . S
O67 C51 1.266 . S
O68 Tb40 2.316 1_545 S
O68 Tb41 2.658 . S
O68 C58 1.281 . S
O69 Tb41 2.409 . S
O69 C58 1.254 . S
O70 Tb41 2.378 . S
O70 C59 1.236 . S
O71 Tb40 2.327 1_545 S
O71 C59 1.266 . S
H72 C44 0.929 . S
H73 C45 0.931 . S
H74 C47 0.930 . S
H75 C48 0.930 . S
H76 C53 0.929 . S
H77 C54 0.931 . S
H78 C56 0.930 . S
H79 C57 0.930 . S
Tb80 C82 2.809 . S
Tb80 O100 2.484 . S
Tb80 O101 2.440 . S
Tb80 O102 2.658 . S
Tb80 O103 2.409 . S
Tb80 O104 2.378 . S
Tb80 O108 2.325 . S
Tb80 O111 2.341 . S
Tb81 C91 2.809 . S
Tb81 O102 2.325 . S
Tb81 O105 2.341 . S
Tb81 O106 2.484 . S
Tb81 O107 2.440 . S
Tb81 O108 2.658 . S
Tb81 O109 2.409 . S
Tb81 O110 2.378 . S
C82 Tb80 2.809 . S
C82 C83 1.514 . S
C82 O100 1.248 . S
C82 O101 1.266 . S
C83 C82 1.514 . S
C83 C84 1.359 . S
C83 C88 1.348 . S
C84 C83 1.359 . S
C84 C85 1.380 . S
C84 H112 0.929 . S
C85 C84 1.380 . S
C85 C86 1.347 . S
C85 H113 0.931 . S
C86 C85 1.347 . S
C86 C87 1.369 . S
C87 C86 1.369 . S
C87 C88 1.408 . S
C87 H114 0.930 . S
C88 C83 1.348 . S
C88 C87 1.408 . S
C88 H115 0.930 . S
C89 O102 1.281 . S
C89 O103 1.254 . S
C90 O104 1.236 . S
C90 O105 1.266 . S
C91 Tb81 2.809 . S
C91 C92 1.514 . S
C91 O106 1.248 . S
C91 O107 1.266 . S
C92 C91 1.514 . S
C92 C93 1.359 . S
C92 C97 1.348 . S
C93 C92 1.359 . S
C93 C94 1.380 . S
C93 H116 0.929 . S
C94 C93 1.380 . S
C94 C95 1.347 . S
C94 H117 0.931 . S
C95 C94 1.347 . S
C95 C96 1.369 . S
C96 C95 1.369 . S
C96 C97 1.408 . S
C96 H118 0.930 . S
C97 C92 1.348 . S
C97 C96 1.408 . S
C97 H119 0.930 . S
C98 O108 1.281 . S
C98 O109 1.254 . S
C99 O110 1.236 . S
C99 O111 1.266 . S
O100 Tb80 2.484 . S
O100 C82 1.248 . S
O101 Tb80 2.440 . S
O101 C82 1.266 . S
O102 Tb80 2.658 . S
O102 Tb81 2.325 . S
O102 C89 1.281 . S
O103 Tb80 2.409 . S
O103 C89 1.254 . S
O104 Tb80 2.378 . S
O104 C90 1.236 . S
O105 Tb81 2.341 . S
O105 C90 1.266 . S
O106 Tb81 2.484 . S
O106 C91 1.248 . S
O107 Tb81 2.440 . S
O107 C91 1.266 . S
O108 Tb80 2.325 . S
O108 Tb81 2.658 . S
O108 C98 1.281 . S
O109 Tb81 2.409 . S
O109 C98 1.254 . S
O110 Tb81 2.378 . S
O110 C99 1.236 . S
O111 Tb80 2.341 . S
O111 C99 1.266 . S
H112 C84 0.929 . S
H113 C85 0.931 . S
H114 C87 0.930 . S
H115 C88 0.930 . S
H116 C93 0.929 . S
H117 C94 0.931 . S
H118 C96 0.930 . S
H119 C97 0.930 . S
H120 C123 0.929 . S
H121 C126 0.929 . S
H122 C128 0.930 . S
C123 H120 0.929 . S
C123 C124 1.398 . S
C123 C125 1.396 1_565 S
C124 C123 1.398 . S
C124 C128 1.407 1_565 S
C125 C123 1.396 1_545 S
C125 C126 1.394 . S
C126 H121 0.929 . S
C126 C125 1.394 . S
C126 C127 1.382 . S
C127 C126 1.382 . S
C127 C128 1.392 . S
C127 N129 1.420 . S
C128 H122 0.930 . S
C128 C124 1.407 1_545 S
C128 C127 1.392 . S
N129 C127 1.420 . S
N129 C130 1.244 . S
C130 N129 1.244 . S
H131 C134 0.929 . S
H132 C137 0.929 . S
H133 C139 0.930 . S
C134 H131 0.929 . S
C134 C135 1.398 . S
C134 C136 1.396 . S
C135 C134 1.398 . S
C135 C139 1.407 . S
C136 C134 1.396 . S
C136 C137 1.394 . S
C137 H132 0.929 . S
C137 C136 1.394 . S
C137 C138 1.382 . S
C138 C137 1.382 . S
C138 C139 1.392 . S
C138 N140 1.420 . S
C139 H133 0.930 . S
C139 C135 1.407 . S
C139 C138 1.392 . S
N140 C138 1.420 . S
N140 C141 1.244 . S
C141 N140 1.244 . S
H142 C145 0.929 . S
H143 C148 0.929 . S
H144 C150 0.930 . S
C145 H142 0.929 . S
C145 C146 1.398 . S
C145 C147 1.396 . S
C146 C145 1.398 . S
C146 C150 1.407 . S
C147 C145 1.396 . S
C147 C148 1.394 1_655 S
C148 H143 0.929 . S
C148 C147 1.394 1_455 S
C148 C149 1.382 . S
C149 C148 1.382 . S
C149 C150 1.392 1_455 S
C149 N151 1.420 . S
C150 H144 0.930 . S
C150 C146 1.407 . S
C150 C149 1.392 1_655 S
N151 C149 1.420 . S
N151 C152 1.244 . S
C152 N151 1.244 . S
H153 C156 0.929 . S
H154 C159 0.929 1_655 S
H155 C161 0.930 . S
C156 H153 0.929 . S
C156 C157 1.398 . S
C156 C158 1.396 . S
C157 C156 1.398 . S
C157 C161 1.407 . S
C158 C156 1.396 . S
C158 C159 1.394 . S
C159 H154 0.929 1_455 S
C159 C158 1.394 . S
C159 C160 1.382 . S
C160 C159 1.382 . S
C160 C161 1.392 . S
C160 N162 1.420 1_455 S
C161 H155 0.930 . S
C161 C157 1.407 . S
C161 C160 1.392 . S
N162 C160 1.420 1_655 S
N162 C163 1.244 . S
C163 N162 1.244 . S
H164 C167 0.929 . S
H165 C170 0.929 . S
H166 C172 0.930 . S
C167 H164 0.929 . S
C167 C168 1.398 . S
C167 C169 1.396 . S
C168 C167 1.398 . S
C168 C172 1.407 . S
C169 C167 1.396 . S
C169 C170 1.394 1_545 S
C170 H165 0.929 . S
C170 C169 1.394 1_565 S
C170 C171 1.382 1_565 S
C171 C170 1.382 1_545 S
C171 C172 1.392 . S
C171 N173 1.420 1_545 S
C172 H166 0.930 . S
C172 C168 1.407 . S
C172 C171 1.392 . S
N173 C171 1.420 1_565 S
N173 C174 1.244 . S
C174 N173 1.244 . S
H175 C178 0.929 . S
H176 C181 0.929 . S
H177 C183 0.930 . S
C178 H175 0.929 . S
C178 C179 1.398 . S
C178 C180 1.396 . S
C179 C178 1.398 . S
C179 C183 1.407 . S
C180 C178 1.396 . S
C180 C181 1.394 . S
C181 H176 0.929 . S
C181 C180 1.394 . S
C181 C182 1.382 . S
C182 C181 1.382 . S
C182 C183 1.392 . S
C182 N184 1.420 . S
C183 H177 0.930 . S
C183 C179 1.407 . S
C183 C182 1.392 . S
N184 C182 1.420 . S
N184 C185 1.244 . S
C185 N184 1.244 . S
C186 C187 1.369 . S
C186 C188 1.419 . S
C186 H190 0.930 . S
C187 C186 1.369 . S
C187 C196 1.429 . S
C188 C186 1.419 . S
C188 C189 1.363 . S
C188 H191 0.929 . S
C189 C188 1.363 . S
C189 C195 1.428 . S
H190 C186 0.930 . S
H191 C188 0.929 . S
S192 N193 1.613 . S
S192 N194 1.610 . S
N193 S192 1.613 . S
N193 C196 1.350 . S
N194 S192 1.610 . S
N194 C195 1.351 . S
C195 C189 1.428 . S
C195 N194 1.351 . S
C195 C196 1.434 . S
C196 C187 1.429 . S
C196 N193 1.350 . S
C196 C195 1.434 . S
C197 C198 1.369 . S
C197 C199 1.419 . S
C197 H201 0.930 . S
C198 C197 1.369 . S
C198 C207 1.429 . S
C199 C197 1.419 . S
C199 C200 1.363 . S
C199 H202 0.929 . S
C200 C199 1.363 . S
C200 C206 1.428 . S
H201 C197 0.930 . S
H202 C199 0.929 . S
S203 N204 1.613 . S
S203 N205 1.610 . S
N204 S203 1.613 . S
N204 C207 1.350 . S
N205 S203 1.610 . S
N205 C206 1.351 . S
C206 C200 1.428 . S
C206 N205 1.351 . S
C206 C207 1.434 . S
C207 C198 1.429 . S
C207 N204 1.350 . S
C207 C206 1.434 . S
C208 C209 1.369 . S
C208 C210 1.419 . S
C208 H212 0.930 . S
C209 C208 1.369 . S
C209 C218 1.429 . S
C210 C208 1.419 . S
C210 C211 1.363 . S
C210 H213 0.929 . S
C211 C210 1.363 . S
C211 C217 1.428 . S
H212 C208 0.930 . S
H213 C210 0.929 . S
S214 N215 1.613 . S
S214 N216 1.610 . S
N215 S214 1.613 . S
N215 C218 1.350 . S
N216 S214 1.610 . S
N216 C217 1.351 . S
C217 C211 1.428 . S
C217 N216 1.351 . S
C217 C218 1.434 . S
C218 C209 1.429 . S
C218 N215 1.350 . S
C218 C217 1.434 . S
C219 C220 1.369 . S
C219 C221 1.419 . S
C219 H223 0.930 . S
C220 C219 1.369 . S
C220 C229 1.429 . S
C221 C219 1.419 . S
C221 C222 1.363 . S
C221 H224 0.929 . S
C222 C221 1.363 . S
C222 C228 1.428 . S
H223 C219 0.930 . S
H224 C221 0.929 . S
S225 N226 1.613 . S
S225 N227 1.610 . S
N226 S225 1.613 . S
N226 C229 1.350 . S
N227 S225 1.610 . S
N227 C228 1.351 . S
C228 C222 1.428 . S
C228 N227 1.351 . S
C228 C229 1.434 . S
C229 C220 1.429 . S
C229 N226 1.350 . S
C229 C228 1.434 . S
C230 C231 1.369 . S
C230 C232 1.419 . S
C230 H234 0.930 . S
C231 C230 1.369 . S
C231 C240 1.429 . S
C232 C230 1.419 . S
C232 C233 1.363 . S
C232 H235 0.929 . S
C233 C232 1.363 . S
C233 C239 1.428 . S
H234 C230 0.930 . S
H235 C232 0.929 . S
S236 N237 1.613 . S
S236 N238 1.610 . S
N237 S236 1.613 . S
N237 C240 1.350 . S
N238 S236 1.610 . S
N238 C239 1.351 . S
C239 C233 1.428 . S
C239 N238 1.351 . S
C239 C240 1.434 . S
C240 C231 1.429 . S
C240 N237 1.350 . S
C240 C239 1.434 . S
C241 C242 1.369 . S
C241 C243 1.419 . S
C241 H245 0.930 . S
C242 C241 1.369 . S
C242 C251 1.429 . S
C243 C241 1.419 . S
C243 C244 1.363 . S
C243 H246 0.929 . S
C244 C243 1.363 . S
C244 C250 1.428 . S
H245 C241 0.930 . S
H246 C243 0.929 . S
S247 N248 1.613 . S
S247 N249 1.610 . S
N248 S247 1.613 . S
N248 C251 1.350 . S
N249 S247 1.610 . S
N249 C250 1.351 . S
C250 C244 1.428 . S
C250 N249 1.351 . S
C250 C251 1.434 . S
C251 C242 1.429 . S
C251 N248 1.350 . S
C251 C250 1.434 . S
C252 C253 1.369 . S
C252 C254 1.419 . S
C252 H256 0.930 . S
C253 C252 1.369 . S
C253 C262 1.429 . S
C254 C252 1.419 . S
C254 C255 1.363 . S
C254 H257 0.929 . S
C255 C254 1.363 . S
C255 C261 1.428 . S
H256 C252 0.930 . S
H257 C254 0.929 . S
S258 N259 1.613 . S
S258 N260 1.610 . S
N259 S258 1.613 . S
N259 C262 1.350 . S
N260 S258 1.610 . S
N260 C261 1.351 . S
C261 C255 1.428 . S
C261 N260 1.351 . S
C261 C262 1.434 . S
C262 C253 1.429 . S
C262 N259 1.350 . S
C262 C261 1.434 . S
C263 C264 1.369 . S
C263 C265 1.419 . S
C263 H267 0.930 . S
C264 C263 1.369 . S
C264 C273 1.429 . S
C265 C263 1.419 . S
C265 C266 1.363 . S
C265 H268 0.929 . S
C266 C265 1.363 . S
C266 C272 1.428 . S
H267 C263 0.930 . S
H268 C265 0.929 . S
S269 N270 1.613 . S
S269 N271 1.610 . S
N270 S269 1.613 . S
N270 C273 1.350 . S
N271 S269 1.610 . S
N271 C272 1.351 . S
C272 C266 1.428 . S
C272 N271 1.351 . S
C272 C273 1.434 . S
C273 C264 1.429 . S
C273 N270 1.350 . S
C273 C272 1.434 . S
C274 C275 1.369 . S
C274 C276 1.419 . S
C274 H278 0.930 . S
C275 C274 1.369 . S
C275 C284 1.429 . S
C276 C274 1.419 . S
C276 C277 1.363 . S
C276 H279 0.929 1_565 S
C277 C276 1.363 . S
C277 C283 1.428 . S
H278 C274 0.930 . S
H279 C276 0.929 1_545 S
S280 N281 1.613 . S
S280 N282 1.610 . S
N281 S280 1.613 . S
N281 C284 1.350 . S
N282 S280 1.610 . S
N282 C283 1.351 . S
C283 C277 1.428 . S
C283 N282 1.351 . S
C283 C284 1.434 . S
C284 C275 1.429 . S
C284 N281 1.350 . S
C284 C283 1.434 . S
C285 C286 1.369 . S
C285 C287 1.419 . S
C285 H289 0.930 . S
C286 C285 1.369 . S
C286 C295 1.429 . S
C287 C285 1.419 . S
C287 C288 1.363 . S
C287 H290 0.929 . S
C288 C287 1.363 . S
C288 C294 1.428 . S
H289 C285 0.930 . S
H290 C287 0.929 . S
S291 N292 1.613 . S
S291 N293 1.610 . S
N292 S291 1.613 . S
N292 C295 1.350 . S
N293 S291 1.610 . S
N293 C294 1.351 . S
C294 C288 1.428 . S
C294 N293 1.351 . S
C294 C295 1.434 . S
C295 C286 1.429 . S
C295 N292 1.350 . S
C295 C294 1.434 . S
C296 C297 1.369 . S
C296 C298 1.419 . S
C296 H300 0.930 . S
C297 C296 1.369 . S
C297 C306 1.429 . S
C298 C296 1.419 . S
C298 C299 1.363 . S
C298 H301 0.929 . S
C299 C298 1.363 . S
C299 C305 1.428 . S
H300 C296 0.930 . S
H301 C298 0.929 . S
S302 N303 1.613 . S
S302 N304 1.610 . S
N303 S302 1.613 . S
N303 C306 1.350 . S
N304 S302 1.610 . S
N304 C305 1.351 . S
C305 C299 1.428 . S
C305 N304 1.351 . S
C305 C306 1.434 . S
C306 C297 1.429 . S
C306 N303 1.350 . S
C306 C305 1.434 . S
C307 C308 1.369 . S
C307 C309 1.419 . S
C307 H311 0.930 . S
C308 C307 1.369 . S
C308 C317 1.429 . S
C309 C307 1.419 . S
C309 C310 1.363 . S
C309 H312 0.929 . S
C310 C309 1.363 . S
C310 C316 1.428 . S
H311 C307 0.930 . S
H312 C309 0.929 . S
S313 N314 1.613 . S
S313 N315 1.610 . S
N314 S313 1.613 . S
N314 C317 1.350 . S
N315 S313 1.610 . S
N315 C316 1.351 . S
C316 C310 1.428 . S
C316 N315 1.351 . S
C316 C317 1.434 . S
C317 C308 1.429 . S
C317 N314 1.350 . S
C317 C316 1.434 . S
C318 C319 1.369 1_655 S
C318 C320 1.419 1_554 S
C318 H322 0.930 . S
C319 C318 1.369 1_455 S
C319 C328 1.429 . S
C320 C318 1.419 1_556 S
C320 C321 1.363 . S
C320 H323 0.929 . S
C321 C320 1.363 . S
C321 C327 1.428 1_655 S
H322 C318 0.930 . S
H323 C320 0.929 . S
S324 N325 1.613 . S
S324 N326 1.610 1_554 S
N325 S324 1.613 . S
N325 C328 1.350 . S
N326 S324 1.610 1_556 S
N326 C327 1.351 . S
C327 C321 1.428 1_455 S
C327 N326 1.351 . S
C327 C328 1.434 1_556 S
C328 C319 1.429 . S
C328 N325 1.350 . S
C328 C327 1.434 1_554 S
C329 C330 1.369 . S
C329 C331 1.419 . S
C329 H333 0.930 . S
C330 C329 1.369 . S
C330 C339 1.429 1_545 S
C331 C329 1.419 . S
C331 C332 1.363 . S
C331 H334 0.929 . S
C332 C331 1.363 . S
C332 C338 1.428 1_545 S
H333 C329 0.930 . S
H334 C331 0.929 . S
S335 N336 1.613 . S
S335 N337 1.610 . S
N336 S335 1.613 . S
N336 C339 1.350 . S
N337 S335 1.610 . S
N337 C338 1.351 . S
C338 C332 1.428 1_565 S
C338 N337 1.351 . S
C338 C339 1.434 . S
C339 C330 1.429 1_565 S
C339 N336 1.350 . S
C339 C338 1.434 . S
C340 C341 1.369 . S
C340 C342 1.419 . S
C340 H344 0.930 . S
C341 C340 1.369 . S
C341 C350 1.429 . S
C342 C340 1.419 . S
C342 C343 1.363 . S
C342 H345 0.929 . S
C343 C342 1.363 . S
C343 C349 1.428 . S
H344 C340 0.930 . S
H345 C342 0.929 . S
S346 N347 1.613 . S
S346 N348 1.610 . S
N347 S346 1.613 . S
N347 C350 1.350 . S
N348 S346 1.610 . S
N348 C349 1.351 . S
C349 C343 1.428 . S
C349 N348 1.351 . S
C349 C350 1.434 . S
C350 C341 1.429 . S
C350 N347 1.350 . S
C350 C349 1.434 . S
C351 C352 1.369 . S
C351 C353 1.419 . S
C351 H355 0.930 . S
C352 C351 1.369 . S
C352 C361 1.429 1_545 S
C353 C351 1.419 . S
C353 C354 1.363 . S
C353 H356 0.929 . S
C354 C353 1.363 . S
C354 C360 1.428 1_545 S
H355 C351 0.930 . S
H356 C353 0.929 . S
S357 N358 1.613 . S
S357 N359 1.610 . S
N358 S357 1.613 . S
N358 C361 1.350 . S
N359 S357 1.610 . S
N359 C360 1.351 . S
C360 C354 1.428 1_565 S
C360 N359 1.351 . S
C360 C361 1.434 . S
C361 C352 1.429 1_565 S
C361 N358 1.350 . S
C361 C360 1.434 . S
C362 C363 1.369 . S
C362 C364 1.419 . S
C362 H366 0.930 . S
C363 C362 1.369 . S
C363 C372 1.429 . S
C364 C362 1.419 . S
C364 C365 1.363 1_556 S
C364 H367 0.929 1_556 S
C365 C364 1.363 1_554 S
C365 C371 1.428 . S
H366 C362 0.930 . S
H367 C364 0.929 1_554 S
S368 N369 1.613 . S
S368 N370 1.610 1_556 S
N369 S368 1.613 . S
N369 C372 1.350 . S
N370 S368 1.610 1_554 S
N370 C371 1.351 . S
C371 C365 1.428 . S
C371 N370 1.351 . S
C371 C372 1.434 1_554 S
C372 C363 1.429 . S
C372 N369 1.350 . S
C372 C371 1.434 1_556 S
C373 C374 1.369 . S
C373 C375 1.419 . S
C373 H377 0.930 . S
C374 C373 1.369 . S
C374 C383 1.429 . S
C375 C373 1.419 . S
C375 C376 1.363 . S
C375 H378 0.929 . S
C376 C375 1.363 . S
C376 C382 1.428 . S
H377 C373 0.930 . S
H378 C375 0.929 . S
S379 N380 1.613 . S
S379 N381 1.610 . S
N380 S379 1.613 . S
N380 C383 1.350 . S
N381 S379 1.610 . S
N381 C382 1.351 . S
C382 C376 1.428 . S
C382 N381 1.351 . S
C382 C383 1.434 . S
C383 C374 1.429 . S
C383 N380 1.350 . S
C383 C382 1.434 . S
C187 C10 3.097 . S
C189 C185 3.041 . S
C198 C59 3.162 . S
C200 C163 3.086 . S
C209 C90 3.089 . S
C211 C174 3.030 . S
C220 C19 3.053 . S
C222 C179 3.009 . S
C233 C157 2.971 . S
C231 C50 3.005 . S
C244 C168 3.019 . S
C242 C99 3.062 . S
C253 C46 0.835 . S
C255 C141 0.852 . S
C264 C95 0.642 . S
C266 C146 0.578 . S
C275 C6 0.523 . S
C277 C124 0.429 . S
C288 C135 0.606 . S
C286 C55 0.650 . S
C299 C152 0.737 . S
C297 C86 0.744 . S
C308 C15 0.751 . S
C310 C130 0.727 . S
C321 C147 1.181 . S
C319 C9 1.185 . S
C330 C49 1.066 . S
C332 C125 1.106 . S
C341 C89 1.141 . S
C343 C136 1.147 . S
C354 C169 1.770 . S
C352 C58 1.723 . S
C365 C180 1.792 . S
C363 C98 1.722 . S
C374 C18 1.702 . S
C376 C158 1.832 . S
