# Generated by pormake.
# Topology anh, (6,3)-cn, num edge types: 1
# Building blocks:
#     Node 0, Type 0, BuildingBlock: VOLQOD_clean_sbu_1, # of connection points: 6
#     Node 1, Type 0, BuildingBlock: VOLQOD_clean_sbu_1, # of connection points: 6
#     Node 2, Type 0, BuildingBlock: VOLQOD_clean_sbu_1, # of connection points: 6
#     Node 3, Type 1, BuildingBlock: BETDAH_clean_linker_0, # of connection points: 3
#     Node 4, Type 1, BuildingBlock: BETDAH_clean_linker_0, # of connection points: 3
#     Node 5, Type 1, BuildingBlock: BETDAH_clean_linker_0, # of connection points: 3
#     Node 6, Type 1, BuildingBlock: BETDAH_clean_linker_0, # of connection points: 3
#     Node 7, Type 1, BuildingBlock: BETDAH_clean_linker_0, # of connection points: 3
#     Node 8, Type 1, BuildingBlock: BETDAH_clean_linker_0, # of connection points: 3
#     Edge 9, Type (0, 1), BuildingBlock: AJUNOK_clean_linker_0, # of connection points: 2
#     Edge 10, Type (0, 1), BuildingBlock: AJUNOK_clean_linker_0, # of connection points: 2
#     Edge 11, Type (0, 1), BuildingBlock: AJUNOK_clean_linker_0, # of connection points: 2
#     Edge 12, Type (0, 1), BuildingBlock: AJUNOK_clean_linker_0, # of connection points: 2
#     Edge 13, Type (0, 1), BuildingBlock: AJUNOK_clean_linker_0, # of connection points: 2
#     Edge 14, Type (0, 1), BuildingBlock: AJUNOK_clean_linker_0, # of connection points: 2
#     Edge 15, Type (0, 1), BuildingBlock: AJUNOK_clean_linker_0, # of connection points: 2
#     Edge 16, Type (0, 1), BuildingBlock: AJUNOK_clean_linker_0, # of connection points: 2
#     Edge 17, Type (0, 1), BuildingBlock: AJUNOK_clean_linker_0, # of connection points: 2
#     Edge 18, Type (0, 1), BuildingBlock: AJUNOK_clean_linker_0, # of connection points: 2
#     Edge 19, Type (0, 1), BuildingBlock: AJUNOK_clean_linker_0, # of connection points: 2
#     Edge 20, Type (0, 1), BuildingBlock: AJUNOK_clean_linker_0, # of connection points: 2
#     Edge 21, Type (0, 1), BuildingBlock: AJUNOK_clean_linker_0, # of connection points: 2
#     Edge 22, Type (0, 1), BuildingBlock: AJUNOK_clean_linker_0, # of connection points: 2
#     Edge 23, Type (0, 1), BuildingBlock: AJUNOK_clean_linker_0, # of connection points: 2
#     Edge 24, Type (0, 1), BuildingBlock: AJUNOK_clean_linker_0, # of connection points: 2
#     Edge 25, Type (0, 1), BuildingBlock: AJUNOK_clean_linker_0, # of connection points: 2
#     Edge 26, Type (0, 1), BuildingBlock: AJUNOK_clean_linker_0, # of connection points: 2
# Relax obj value: 0.160
# Max RMSD: 0.216
# Mean RMSD: 0.133
data_MOF--net-anh--node1-VOLQOD_clean_sbu_1--node2-BETDAH_clean_linker_0--edge1-AJUNOK_clean_linker_0
_symmetry_space_group_name_H-M    P1
_symmetry_Int_Tables_number       1
_symmetry_cell_setting            triclinic
loop_
_symmetry_equiv_pos_as_xyz
'x, y, z'
_cell_length_a     22.058351
_cell_length_b     22.123424
_cell_length_c     41.601036
_cell_angle_alpha  92.625468
_cell_angle_beta   92.730726
_cell_angle_gamma 120.23818
loop_
_atom_site_label
_atom_site_type_symbol
_atom_site_fract_x
_atom_site_fract_y
_atom_site_fract_z
_atom_type_partial_charge
O0 O 0.98465 0.58193 0.24592 0.0
Zn1 Zn 0.9888 0.6081 0.19981 0.0
O2 O 0.00144 0.54301 0.17124 0.0
Zn3 Zn 0.91956 0.4864 0.1417 0.0
Zn4 Zn 0.01784 0.48102 0.19759 0.0
Zn5 Zn 0.07943 0.59551 0.14512 0.0
O6 O 0.94078 0.49508 0.09488 0.0
O7 O 0.05021 0.58495 0.09738 0.0
O8 O 0.89894 0.60854 0.186 0.0
O9 O 0.85248 0.51912 0.14813 0.0
O10 O 0.86815 0.38547 0.15167 0.0
O11 O 0.93371 0.38278 0.19293 0.0
O12 O 0.10311 0.47758 0.18448 0.0
O13 O 0.07573 0.70462 0.2018 0.0
O14 O 0.1438 0.55721 0.14851 0.0
O15 O 0.13612 0.69671 0.16209 0.0
C16 C 0.00802 0.54747 0.26053 0.0
C17 C 0.99389 0.53916 0.08098 0.0
C18 C 0.87854 0.35246 0.1735 0.0
C19 C 0.84907 0.56612 0.16531 0.0
C20 C 0.14788 0.51145 0.16441 0.0
C21 C 0.1292 0.73172 0.1853 0.0
O22 O 0.02923 0.51169 0.24488 0.0
O23 O 0.52816 0.09658 0.42812 0.0
Zn24 Zn 0.50243 0.08625 0.4745 0.0
O25 O 0.56798 0.07134 0.50108 0.0
Zn26 Zn 0.62654 0.14973 0.53149 0.0
Zn27 Zn 0.62713 0.05515 0.47327 0.0
Zn28 Zn 0.51664 0.99478 0.52748 0.0
O29 O 0.62952 0.12292 0.57695 0.0
O30 O 0.52507 0.02589 0.57467 0.0
O31 O 0.49811 0.17028 0.49378 0.0
O32 O 0.58354 0.20922 0.53347 0.0
O33 O 0.72386 0.20718 0.51737 0.0
O34 O 0.72495 0.14047 0.47623 0.0
O35 O 0.63282 0.97106 0.48664 0.0
O36 O 0.40636 -0.00155 0.47173 0.0
O37 O 0.55824 0.93321 0.52504 0.0
O38 O 0.41558 0.93698 0.51055 0.0
C39 C 0.55778 0.06936 0.41216 0.0
C40 C 0.57929 0.07523 0.59096 0.0
C41 C 0.7553 0.19696 0.49472 0.0
C42 C 0.53444 0.21295 0.51811 0.0
C43 C 0.6027 0.9287 0.50819 0.0
C44 C 0.37986 0.94442 0.48779 0.0
O45 O 0.59073 0.04333 0.42654 0.0
O46 O 0.48699 0.52742 0.75838 0.0
Zn47 Zn 0.47082 0.49446 0.80351 0.0
O48 O 0.54772 0.56335 0.83415 0.0
Zn49 Zn 0.51652 0.61282 0.86227 0.0
Zn50 Zn 0.62693 0.62941 0.81084 0.0
Zn51 Zn 0.5762 0.51335 0.86164 0.0
O52 O 0.53678 0.60863 0.9102 0.0
O53 O 0.56448 0.52538 0.90808 0.0
O54 O 0.37674 0.4797 0.81715 0.0
O55 O 0.41222 0.56729 0.85519 0.0
O56 O 0.55981 0.71272 0.85135 0.0
O57 O 0.6425 0.72713 0.81895 0.0
O58 O 0.7171 0.62713 0.82269 0.0
O59 O 0.47224 0.40278 0.80054 0.0
O60 O 0.67661 0.54625 0.85822 0.0
O61 O 0.53101 0.4129 0.84709 0.0
C62 C 0.54328 0.5689 0.74554 0.0
C63 C 0.55248 0.56776 0.92426 0.0
C64 C 0.60968 0.75138 0.83437 0.0
C65 C 0.36318 0.51496 0.83781 0.0
C66 C 0.72602 0.58928 0.84242 0.0
C67 C 0.49773 0.37811 0.82072 0.0
O68 O 0.6013 0.60645 0.76275 0.0
H69 H 0.391 0.97589 0.2791 0.0
H70 H 0.60732 0.07139 0.25681 0.0
H71 H 0.44226 0.94175 0.1839 0.0
C72 C 0.42954 0.9862 0.26176 0.0
C73 C 0.40684 0.95679 0.22969 0.0
C74 C 0.50173 0.02548 0.27212 0.0
C75 C 0.5516 0.03996 0.24935 0.0
C76 C 0.52957 0.01037 0.21737 0.0
C77 C 0.45783 0.96752 0.2081 0.0
N78 N 0.5783 0.01919 0.19443 0.0
C79 C 0.64163 0.08128 0.19301 0.0
H80 H 0.49691 0.43849 0.60812 0.0
H81 H 0.62025 0.66041 0.59754 0.0
H82 H 0.60327 0.51266 0.52213 0.0
C83 C 0.52736 0.48151 0.5935 0.0
C84 C 0.54349 0.46698 0.56291 0.0
C85 C 0.55513 0.55109 0.60642 0.0
C86 C 0.59732 0.6065 0.58768 0.0
C87 C 0.61342 0.59209 0.55696 0.0
C88 C 0.58721 0.52277 0.54503 0.0
N89 N 0.66009 0.6462 0.53849 0.0
C90 C 0.65646 0.7062 0.53492 0.0
H91 H 0.9327 0.58055 0.935 0.0
H92 H 0.03323 0.45709 0.93785 0.0
H93 H 0.95764 0.48844 0.84683 0.0
C94 C 0.95374 0.55205 0.9224 0.0
C95 C 0.94386 0.54102 0.88853 0.0
C96 C 0.98605 0.5222 0.94041 0.0
C97 C 0.01036 0.48234 0.92421 0.0
C98 C 0.00018 0.47049 0.89044 0.0
C99 C 0.96723 0.49986 0.8728 0.0
N100 N 0.01409 0.42152 0.87444 0.0
C101 C 0.08144 0.43961 0.86695 0.0
H102 H 0.11667 0.69674 0.3966 0.0
H103 H 0.02418 0.47703 0.41076 0.0
H104 H 0.1676 0.63119 0.48467 0.0
C105 C 0.10873 0.65552 0.41195 0.0
C106 C 0.14477 0.67332 0.44281 0.0
C107 C 0.06616 0.58493 0.39994 0.0
C108 C 0.0566 0.5316 0.41984 0.0
C109 C 0.09226 0.54879 0.45074 0.0
C110 C 0.13735 0.61915 0.4616 0.0
N111 N 0.08698 0.49646 0.47072 0.0
C112 C 0.02467 0.43356 0.47247 0.0
H113 H 0.53202 0.16532 0.72512 0.0
H114 H 0.64587 0.0581 0.74367 0.0
H115 H 0.60273 0.15812 0.82253 0.0
C116 C 0.55563 0.14614 0.74224 0.0
C117 C 0.56128 0.16509 0.77545 0.0
C118 C 0.58558 0.10719 0.73063 0.0
C119 C 0.621 0.08649 0.75247 0.0
C120 C 0.62748 0.1058 0.78557 0.0
C121 C 0.59704 0.14389 0.79683 0.0
N122 N 0.66982 0.09331 0.80773 0.0
C123 C 0.66157 0.0274 0.8101 0.0
H124 H 0.65105 0.59581 0.07637 0.0
H125 H 0.42634 0.4738 0.05535 0.0
H126 H 0.51665 0.48276 0.15011 0.0
C127 C 0.59889 0.5641 0.08446 0.0
C128 C 0.59149 0.54243 0.116 0.0
C129 C 0.5396 0.53998 0.06237 0.0
C130 C 0.47233 0.49561 0.07245 0.0
C131 C 0.46455 0.4753 0.10406 0.0
C132 C 0.52364 0.50012 0.12592 0.0
N133 N 0.39846 0.42283 0.11275 0.0
C134 C 0.35279 0.44084 0.12587 0.0
C135 C 0.25337 0.53475 0.13563 0.0
C136 C 0.20379 0.49533 0.15753 0.0
C137 C 0.3029 0.51739 0.12601 0.0
C138 C 0.30476 0.46033 0.13801 0.0
H139 H 0.25322 0.57864 0.12519 0.0
H140 H 0.33905 0.548 0.1086 0.0
S141 S 0.19134 0.34261 0.19703 0.0
N142 N 0.16285 0.39803 0.19199 0.0
N143 N 0.25676 0.36602 0.1736 0.0
C144 C 0.25779 0.42169 0.16054 0.0
C145 C 0.20708 0.43915 0.17045 0.0
C146 C 0.86572 0.30934 0.513 0.0
C147 C 0.82686 0.25404 0.48889 0.0
C148 C 0.93085 0.36708 0.50748 0.0
C149 C 0.95928 0.37169 0.4777 0.0
H150 H 0.84538 0.30857 0.53627 0.0
H151 H 0.95866 0.40892 0.52653 0.0
S152 S 0.88081 0.24239 0.40659 0.0
N153 N 0.82321 0.2081 0.43394 0.0
N154 N 0.94597 0.31744 0.4239 0.0
C155 C 0.92235 0.31703 0.45351 0.0
C156 C 0.85601 0.25783 0.45906 0.0
C157 C 0.67523 0.86497 0.80847 0.0
C158 C 0.6257 0.82417 0.83012 0.0
C159 C 0.68693 0.93148 0.80188 0.0
C160 C 0.64952 0.95917 0.81671 0.0
H161 H 0.70446 0.84508 0.79606 0.0
H162 H 0.72503 0.9611 0.78497 0.0
S163 S 0.51669 0.8771 0.87588 0.0
N164 N 0.54068 0.81903 0.86703 0.0
N165 N 0.56324 0.94387 0.85428 0.0
C166 C 0.60111 0.92035 0.83866 0.0
C167 C 0.58906 0.85283 0.84551 0.0
C168 C 0.781 0.62494 0.15128 0.0
C169 C 0.78263 0.56622 0.16157 0.0
C170 C 0.71755 0.61835 0.13855 0.0
C171 C 0.65424 0.55297 0.13593 0.0
H172 H 0.82951 0.67466 0.15079 0.0
H173 H 0.71868 0.66371 0.12912 0.0
S174 S 0.63161 0.38537 0.16281 0.0
N175 N 0.71597 0.44299 0.17136 0.0
N176 N 0.59751 0.42966 0.14683 0.0
C177 C 0.65507 0.49525 0.14838 0.0
C178 C 0.7192 0.50219 0.16137 0.0
C179 C 0.29871 0.85966 0.44327 0.0
C180 C 0.31132 0.88318 0.47614 0.0
C181 C 0.24262 0.79294 0.43241 0.0
C182 C 0.19624 0.74789 0.45397 0.0
H183 H 0.33544 0.89081 0.42616 0.0
H184 H 0.23839 0.7752 0.40728 0.0
S185 S 0.19923 0.79172 0.54151 0.0
N186 N 0.26922 0.8607 0.52957 0.0
N187 N 0.16075 0.73684 0.50897 0.0
C188 C 0.20494 0.77373 0.48648 0.0
C189 C 0.2632 0.84099 0.49762 0.0
C190 C 0.56676 0.3182 0.82281 0.0
C191 C 0.50572 0.31757 0.81073 0.0
C192 C 0.58327 0.2686 0.81133 0.0
C193 C 0.53875 0.21449 0.78775 0.0
H194 H 0.60449 0.35959 0.84031 0.0
H195 H 0.63295 0.27451 0.82043 0.0
S196 S 0.36912 0.1855 0.75001 0.0
N197 N 0.39908 0.25729 0.77454 0.0
N198 N 0.42804 0.16057 0.75404 0.0
C199 C 0.47607 0.21153 0.77609 0.0
C200 C 0.46001 0.26368 0.78736 0.0
C201 C 0.59482 0.83504 0.54206 0.0
C202 C 0.61985 0.87344 0.51474 0.0
C203 C 0.6085 0.78156 0.54892 0.0
C204 C 0.64771 0.76476 0.52877 0.0
H205 H 0.56399 0.84594 0.55834 0.0
H206 H 0.58743 0.75258 0.56985 0.0
S207 S 0.72585 0.8478 0.45465 0.0
N208 N 0.68664 0.89014 0.4676 0.0
N209 N 0.71192 0.78903 0.48081 0.0
C210 C 0.67381 0.80243 0.5017 0.0
C211 C 0.66006 0.85709 0.4946 0.0
C212 C 0.78849 0.52391 0.83798 0.0
C213 C 0.7919 0.58805 0.84578 0.0
C214 C 0.84104 0.51126 0.84992 0.0
C215 C 0.89866 0.56215 0.87044 0.0
H216 H 0.74217 0.48126 0.82447 0.0
H217 H 0.83344 0.45927 0.84506 0.0
S218 S 0.93615 0.74202 0.89459 0.0
N219 N 0.86004 0.70534 0.87252 0.0
N220 N 0.96005 0.68222 0.89491 0.0
C221 C 0.90534 0.62855 0.87638 0.0
C222 C 0.85164 0.64141 0.86402 0.0
C223 C 0.21875 0.80533 0.22982 0.0
C224 C 0.19178 0.79854 0.19775 0.0
C225 C 0.28711 0.85882 0.24046 0.0
C226 C 0.33056 0.90851 0.21958 0.0
H227 H 0.18894 0.7658 0.24613 0.0
H228 H 0.30726 0.85824 0.26461 0.0
S229 S 0.27784 0.92116 0.13508 0.0
N230 N 0.20945 0.84954 0.14625 0.0
N231 N 0.33622 0.95365 0.16674 0.0
C232 C 0.30126 0.90582 0.18826 0.0
C233 C 0.23234 0.84996 0.17721 0.0
C234 C 0.54085 0.29562 0.56212 0.0
C235 C 0.52186 0.26952 0.5295 0.0
C236 C 0.54273 0.35703 0.57316 0.0
C237 C 0.52566 0.39486 0.55201 0.0
H238 H 0.55757 0.2701 0.5791 0.0
H239 H 0.56212 0.37726 0.598 0.0
S240 S 0.46214 0.34336 0.46546 0.0
N241 N 0.47808 0.28181 0.4769 0.0
N242 N 0.48096 0.39774 0.49785 0.0
C243 C 0.50134 0.36663 0.51988 0.0
C244 C 0.4993 0.30364 0.50859 0.0
C245 C 0.27657 0.54128 0.86203 0.0
C246 C 0.28936 0.49474 0.84315 0.0
C247 C 0.20848 0.523 0.86949 0.0
C248 C 0.15076 0.45762 0.85839 0.0
H249 H 0.31955 0.59234 0.87143 0.0
H250 H 0.20109 0.56011 0.88424 0.0
S251 S 0.15342 0.3168 0.80798 0.0
N252 N 0.23679 0.38008 0.81323 0.0
N253 N 0.10868 0.34628 0.82743 0.0
C254 C 0.16177 0.41078 0.83923 0.0
C255 C 0.23116 0.42926 0.8315 0.0
C256 C 0.76334 0.24514 0.15497 0.0
C257 C 0.82194 0.27969 0.17796 0.0
C258 C 0.70534 0.17981 0.15997 0.0
C259 C 0.70377 0.1467 0.18805 0.0
H260 H 0.76141 0.26925 0.13316 0.0
H261 H 0.66088 0.15563 0.14194 0.0
S262 S 0.84282 0.21159 0.2553 0.0
N263 N 0.87457 0.27337 0.22974 0.0
N264 N 0.76474 0.15031 0.23874 0.0
C265 C 0.76186 0.17892 0.2109 0.0
C266 C 0.8213 0.24551 0.20591 0.0
C267 C 0.0533 0.56194 0.02919 0.0
C268 C 0.99085 0.53573 0.04511 0.0
C269 C 0.05155 0.55685 0.99532 0.0
C270 C 0.98744 0.52667 0.97616 0.0
H271 H 0.10392 0.58553 0.04299 0.0
H272 H 0.10066 0.57719 0.98402 0.0
S273 S 0.80929 0.45062 0.0055 0.0
N274 N 0.86302 0.47841 0.03873 0.0
N275 N 0.86015 0.4698 0.97526 0.0
C276 C 0.92479 0.50074 0.99165 0.0
C277 C 0.92638 0.50501 0.02605 0.0
C278 C 0.50581 0.08399 0.36004 0.0
C279 C 0.55038 0.0646 0.37617 0.0
C280 C 0.49265 0.074 0.32632 0.0
C281 C 0.52381 0.04465 0.30724 0.0
H282 H 0.4791 0.10529 0.37357 0.0
H283 H 0.45657 0.08804 0.31512 0.0
S284 S 0.64755 0.98828 0.337 0.0
N285 N 0.62867 0.01782 0.36992 0.0
N286 N 0.60281 -0.00194 0.30678 0.0
C287 C 0.57045 0.02737 0.32283 0.0
C288 C 0.58393 0.03751 0.35718 0.0
C289 C 0.60671 0.60974 0.69541 0.0
C290 C 0.54277 0.57076 0.70974 0.0
C291 C 0.60947 0.60659 0.66181 0.0
C292 C 0.54849 0.56444 0.64108 0.0
H293 H 0.65574 0.64101 0.71023 0.0
H294 H 0.66044 0.63452 0.65212 0.0
S295 S 0.36647 0.46012 0.6655 0.0
N296 N 0.41566 0.49423 0.69993 0.0
N297 N 0.42136 0.48885 0.63681 0.0
C298 C 0.48367 0.52859 0.65481 0.0
C299 C 0.4807 0.53167 0.68906 0.0
C300 C 0.51962 0.05038 0.64242 0.0
C301 C 0.58236 0.07936 0.62672 0.0
C302 C 0.52101 0.05838 0.67614 0.0
C303 C 0.58513 0.09421 0.69537 0.0
H304 H 0.46897 0.02326 0.62853 0.0
H305 H 0.47161 0.03707 0.68726 0.0
S306 S 0.764 0.17683 0.66652 0.0
N307 N 0.71046 0.14349 0.63325 0.0
N308 N 0.71273 0.15743 0.69663 0.0
C309 C 0.64816 0.12157 0.68015 0.0
C310 C 0.64685 0.11445 0.64582 0.0
C311 C 0.5138 0.58635 0.9778 0.0
C312 C 0.55493 0.5671 0.95991 0.0
C313 C 0.51001 0.57879 0.01113 0.0
C314 C 0.54819 0.55297 0.02776 0.0
H315 H 0.48239 0.60502 0.96582 0.0
H316 H 0.47636 0.59243 0.02391 0.0
S317 S 0.6663 0.49847 0.99248 0.0
N318 N 0.63696 0.52388 0.96175 0.0
N319 N 0.6293 0.50936 0.02406 0.0
C320 C 0.59105 0.53554 0.01035 0.0
C321 C 0.59457 0.54272 0.97652 0.0
C322 C 0.04415 0.51692 0.3125 0.0
C323 C 0.0141 0.55157 0.29647 0.0
C324 C 0.05706 0.52497 0.34615 0.0
C325 C 0.04052 0.56794 0.36523 0.0
H326 H 0.06006 0.48497 0.29896 0.0
H327 H 0.08335 0.49991 0.35716 0.0
S328 S 0.95279 0.663 0.33613 0.0
N329 N 0.96214 0.62557 0.30296 0.0
N330 N 0.98643 0.64012 0.36626 0.0
C331 C 0.00708 0.5999 0.34987 0.0
C332 C 0.9938 0.59177 0.31553 0.0
loop_
_geom_bond_atom_site_label_1
_geom_bond_atom_site_label_2
_geom_bond_distance
_geom_bond_site_symmetry_2
_ccdc_geom_bond_type
O0 Zn1 1.953 . S
O0 C16 1.225 . S
Zn1 O0 1.953 . S
Zn1 O2 1.949 . S
Zn1 O8 1.919 1_455 S
Zn1 O13 1.924 . S
O2 Zn1 1.949 . S
O2 Zn3 1.923 1_455 S
O2 Zn4 1.950 . S
O2 Zn5 1.945 . S
Zn3 O2 1.923 1_655 S
Zn3 O6 1.933 . S
Zn3 O9 1.941 . S
Zn3 O10 1.965 . S
Zn4 O2 1.950 . S
Zn4 O11 1.938 1_455 S
Zn4 O12 1.906 . S
Zn4 O22 1.953 . S
Zn5 O2 1.945 . S
Zn5 O7 1.932 . S
Zn5 O14 1.977 . S
Zn5 O15 1.910 . S
O6 Zn3 1.933 . S
O6 C17 1.226 1_655 S
O7 Zn5 1.932 . S
O7 C17 1.307 . S
O8 Zn1 1.919 1_655 S
O8 C19 1.253 . S
O9 Zn3 1.941 . S
O9 C19 1.283 . S
O10 Zn3 1.965 . S
O10 C18 1.303 . S
O11 Zn4 1.938 1_655 S
O11 C18 1.247 . S
O12 Zn4 1.906 . S
O12 C20 1.304 . S
O13 Zn1 1.924 . S
O13 C21 1.311 . S
O14 Zn5 1.977 . S
O14 C20 1.272 . S
O15 Zn5 1.910 . S
O15 C21 1.231 . S
C16 O0 1.225 . S
C16 O22 1.298 . S
C17 O6 1.226 1_455 S
C17 O7 1.307 . S
C18 O10 1.303 . S
C18 O11 1.247 . S
C19 O8 1.253 . S
C19 O9 1.283 . S
C20 O12 1.304 . S
C20 O14 1.272 . S
C21 O13 1.311 . S
C21 O15 1.231 . S
O22 Zn4 1.953 . S
O22 C16 1.298 . S
O23 Zn24 1.953 . S
O23 C39 1.225 . S
Zn24 O23 1.953 . S
Zn24 O25 1.949 . S
Zn24 O31 1.919 . S
Zn24 O36 1.924 1_545 S
O25 Zn24 1.949 . S
O25 Zn26 1.923 . S
O25 Zn27 1.950 . S
O25 Zn28 1.945 1_545 S
Zn26 O25 1.923 . S
Zn26 O29 1.933 . S
Zn26 O32 1.941 . S
Zn26 O33 1.965 . S
Zn27 O25 1.950 . S
Zn27 O34 1.938 . S
Zn27 O35 1.906 1_545 S
Zn27 O45 1.953 . S
Zn28 O25 1.945 1_565 S
Zn28 O30 1.932 1_565 S
Zn28 O37 1.977 . S
Zn28 O38 1.910 . S
O29 Zn26 1.933 . S
O29 C40 1.226 . S
O30 Zn28 1.932 1_545 S
O30 C40 1.307 . S
O31 Zn24 1.919 . S
O31 C42 1.253 . S
O32 Zn26 1.941 . S
O32 C42 1.283 . S
O33 Zn26 1.965 . S
O33 C41 1.303 . S
O34 Zn27 1.938 . S
O34 C41 1.247 . S
O35 Zn27 1.906 1_565 S
O35 C43 1.304 . S
O36 Zn24 1.924 1_565 S
O36 C44 1.311 . S
O37 Zn28 1.977 . S
O37 C43 1.272 . S
O38 Zn28 1.910 . S
O38 C44 1.231 . S
C39 O23 1.225 . S
C39 O45 1.298 . S
C40 O29 1.226 . S
C40 O30 1.307 . S
C41 O33 1.303 . S
C41 O34 1.247 . S
C42 O31 1.253 . S
C42 O32 1.283 . S
C43 O35 1.304 . S
C43 O37 1.272 . S
C44 O36 1.311 . S
C44 O38 1.231 . S
O45 Zn27 1.953 . S
O45 C39 1.298 . S
O46 Zn47 1.953 . S
O46 C62 1.225 . S
Zn47 O46 1.953 . S
Zn47 O48 1.949 . S
Zn47 O54 1.919 . S
Zn47 O59 1.924 . S
O48 Zn47 1.949 . S
O48 Zn49 1.923 . S
O48 Zn50 1.950 . S
O48 Zn51 1.945 . S
Zn49 O48 1.923 . S
Zn49 O52 1.933 . S
Zn49 O55 1.941 . S
Zn49 O56 1.965 . S
Zn50 O48 1.950 . S
Zn50 O57 1.938 . S
Zn50 O58 1.906 . S
Zn50 O68 1.953 . S
Zn51 O48 1.945 . S
Zn51 O53 1.932 . S
Zn51 O60 1.977 . S
Zn51 O61 1.910 . S
O52 Zn49 1.933 . S
O52 C63 1.226 . S
O53 Zn51 1.932 . S
O53 C63 1.307 . S
O54 Zn47 1.919 . S
O54 C65 1.253 . S
O55 Zn49 1.941 . S
O55 C65 1.283 . S
O56 Zn49 1.965 . S
O56 C64 1.303 . S
O57 Zn50 1.938 . S
O57 C64 1.247 . S
O58 Zn50 1.906 . S
O58 C66 1.304 . S
O59 Zn47 1.924 . S
O59 C67 1.311 . S
O60 Zn51 1.977 . S
O60 C66 1.272 . S
O61 Zn51 1.910 . S
O61 C67 1.231 . S
C62 O46 1.225 . S
C62 O68 1.298 . S
C63 O52 1.226 . S
C63 O53 1.307 . S
C64 O56 1.303 . S
C64 O57 1.247 . S
C65 O54 1.253 . S
C65 O55 1.283 . S
C66 O58 1.304 . S
C66 O60 1.272 . S
C67 O59 1.311 . S
C67 O61 1.231 . S
O68 Zn50 1.953 . S
O68 C62 1.298 . S
H69 C72 0.929 . S
H70 C75 0.929 . S
H71 C77 0.930 . S
C72 H69 0.929 . S
C72 C73 1.398 . S
C72 C74 1.396 1_565 S
C73 C72 1.398 . S
C73 C77 1.407 1_565 S
C74 C72 1.396 1_545 S
C74 C75 1.394 . S
C75 H70 0.929 . S
C75 C74 1.394 . S
C75 C76 1.382 . S
C76 C75 1.382 . S
C76 C77 1.392 . S
C76 N78 1.420 . S
C77 H71 0.930 . S
C77 C73 1.407 1_545 S
C77 C76 1.392 . S
N78 C76 1.420 . S
N78 C79 1.244 . S
C79 N78 1.244 . S
H80 C83 0.929 . S
H81 C86 0.929 . S
H82 C88 0.930 . S
C83 H80 0.929 . S
C83 C84 1.398 . S
C83 C85 1.396 . S
C84 C83 1.398 . S
C84 C88 1.407 . S
C85 C83 1.396 . S
C85 C86 1.394 . S
C86 H81 0.929 . S
C86 C85 1.394 . S
C86 C87 1.382 . S
C87 C86 1.382 . S
C87 C88 1.392 . S
C87 N89 1.420 . S
C88 H82 0.930 . S
C88 C84 1.407 . S
C88 C87 1.392 . S
N89 C87 1.420 . S
N89 C90 1.244 . S
C90 N89 1.244 . S
H91 C94 0.929 . S
H92 C97 0.929 . S
H93 C99 0.930 . S
C94 H91 0.929 . S
C94 C95 1.398 . S
C94 C96 1.396 1_655 S
C95 C94 1.398 . S
C95 C99 1.407 1_655 S
C96 C94 1.396 1_455 S
C96 C97 1.394 . S
C97 H92 0.929 . S
C97 C96 1.394 . S
C97 C98 1.382 . S
C98 C97 1.382 . S
C98 C99 1.392 . S
C98 N100 1.420 . S
C99 H93 0.930 . S
C99 C95 1.407 1_455 S
C99 C98 1.392 . S
N100 C98 1.420 . S
N100 C101 1.244 . S
C101 N100 1.244 . S
H102 C105 0.929 . S
H103 C108 0.929 1_655 S
H104 C110 0.930 . S
C105 H102 0.929 . S
C105 C106 1.398 . S
C105 C107 1.396 . S
C106 C105 1.398 . S
C106 C110 1.407 . S
C107 C105 1.396 . S
C107 C108 1.394 . S
C108 H103 0.929 1_455 S
C108 C107 1.394 . S
C108 C109 1.382 . S
C109 C108 1.382 . S
C109 C110 1.392 . S
C109 N111 1.420 1_455 S
C110 H104 0.930 . S
C110 C106 1.407 . S
C110 C109 1.392 . S
N111 C109 1.420 1_655 S
N111 C112 1.244 . S
C112 N111 1.244 . S
H113 C116 0.929 . S
H114 C119 0.929 1_565 S
H115 C121 0.930 . S
C116 H113 0.929 . S
C116 C117 1.398 . S
C116 C118 1.396 . S
C117 C116 1.398 . S
C117 C121 1.407 . S
C118 C116 1.396 . S
C118 C119 1.394 . S
C119 H114 0.929 1_545 S
C119 C118 1.394 . S
C119 C120 1.382 . S
C120 C119 1.382 . S
C120 C121 1.392 . S
C120 N122 1.420 1_545 S
C121 H115 0.930 . S
C121 C117 1.407 . S
C121 C120 1.392 . S
N122 C120 1.420 1_565 S
N122 C123 1.244 . S
C123 N122 1.244 . S
H124 C127 0.929 . S
H125 C130 0.929 . S
H126 C132 0.930 . S
C127 H124 0.929 . S
C127 C128 1.398 . S
C127 C129 1.396 . S
C128 C127 1.398 . S
C128 C132 1.407 . S
C129 C127 1.396 . S
C129 C130 1.394 . S
C130 H125 0.929 . S
C130 C129 1.394 . S
C130 C131 1.382 . S
C131 C130 1.382 . S
C131 C132 1.392 . S
C131 N133 1.420 . S
C132 H126 0.930 . S
C132 C128 1.407 . S
C132 C131 1.392 . S
N133 C131 1.420 . S
N133 C134 1.244 . S
C134 N133 1.244 . S
C135 C136 1.369 . S
C135 C137 1.419 . S
C135 H139 0.930 . S
C136 C135 1.369 . S
C136 C145 1.429 . S
C137 C135 1.419 . S
C137 C138 1.363 . S
C137 H140 0.929 . S
C138 C137 1.363 . S
C138 C144 1.428 . S
H139 C135 0.930 . S
H140 C137 0.929 . S
S141 N142 1.613 . S
S141 N143 1.610 . S
N142 S141 1.613 . S
N142 C145 1.350 . S
N143 S141 1.610 . S
N143 C144 1.351 . S
C144 C138 1.428 . S
C144 N143 1.351 . S
C144 C145 1.434 . S
C145 C136 1.429 . S
C145 N142 1.350 . S
C145 C144 1.434 . S
C146 C147 1.369 . S
C146 C148 1.419 . S
C146 H150 0.930 . S
C147 C146 1.369 . S
C147 C156 1.429 . S
C148 C146 1.419 . S
C148 C149 1.363 . S
C148 H151 0.929 . S
C149 C148 1.363 . S
C149 C155 1.428 . S
H150 C146 0.930 . S
H151 C148 0.929 . S
S152 N153 1.613 . S
S152 N154 1.610 . S
N153 S152 1.613 . S
N153 C156 1.350 . S
N154 S152 1.610 . S
N154 C155 1.351 . S
C155 C149 1.428 . S
C155 N154 1.351 . S
C155 C156 1.434 . S
C156 C147 1.429 . S
C156 N153 1.350 . S
C156 C155 1.434 . S
C157 C158 1.369 . S
C157 C159 1.419 . S
C157 H161 0.930 . S
C158 C157 1.369 . S
C158 C167 1.429 . S
C159 C157 1.419 . S
C159 C160 1.363 . S
C159 H162 0.929 . S
C160 C159 1.363 . S
C160 C166 1.428 . S
H161 C157 0.930 . S
H162 C159 0.929 . S
S163 N164 1.613 . S
S163 N165 1.610 . S
N164 S163 1.613 . S
N164 C167 1.350 . S
N165 S163 1.610 . S
N165 C166 1.351 . S
C166 C160 1.428 . S
C166 N165 1.351 . S
C166 C167 1.434 . S
C167 C158 1.429 . S
C167 N164 1.350 . S
C167 C166 1.434 . S
C168 C169 1.369 . S
C168 C170 1.419 . S
C168 H172 0.930 . S
C169 C168 1.369 . S
C169 C178 1.429 . S
C170 C168 1.419 . S
C170 C171 1.363 . S
C170 H173 0.929 . S
C171 C170 1.363 . S
C171 C177 1.428 . S
H172 C168 0.930 . S
H173 C170 0.929 . S
S174 N175 1.613 . S
S174 N176 1.610 . S
N175 S174 1.613 . S
N175 C178 1.350 . S
N176 S174 1.610 . S
N176 C177 1.351 . S
C177 C171 1.428 . S
C177 N176 1.351 . S
C177 C178 1.434 . S
C178 C169 1.429 . S
C178 N175 1.350 . S
C178 C177 1.434 . S
C179 C180 1.369 . S
C179 C181 1.419 . S
C179 H183 0.930 . S
C180 C179 1.369 . S
C180 C189 1.429 . S
C181 C179 1.419 . S
C181 C182 1.363 . S
C181 H184 0.929 . S
C182 C181 1.363 . S
C182 C188 1.428 . S
H183 C179 0.930 . S
H184 C181 0.929 . S
S185 N186 1.613 . S
S185 N187 1.610 . S
N186 S185 1.613 . S
N186 C189 1.350 . S
N187 S185 1.610 . S
N187 C188 1.351 . S
C188 C182 1.428 . S
C188 N187 1.351 . S
C188 C189 1.434 . S
C189 C180 1.429 . S
C189 N186 1.350 . S
C189 C188 1.434 . S
C190 C191 1.369 . S
C190 C192 1.419 . S
C190 H194 0.930 . S
C191 C190 1.369 . S
C191 C200 1.429 . S
C192 C190 1.419 . S
C192 C193 1.363 . S
C192 H195 0.929 . S
C193 C192 1.363 . S
C193 C199 1.428 . S
H194 C190 0.930 . S
H195 C192 0.929 . S
S196 N197 1.613 . S
S196 N198 1.610 . S
N197 S196 1.613 . S
N197 C200 1.350 . S
N198 S196 1.610 . S
N198 C199 1.351 . S
C199 C193 1.428 . S
C199 N198 1.351 . S
C199 C200 1.434 . S
C200 C191 1.429 . S
C200 N197 1.350 . S
C200 C199 1.434 . S
C201 C202 1.369 . S
C201 C203 1.419 . S
C201 H205 0.930 . S
C202 C201 1.369 . S
C202 C211 1.429 . S
C203 C201 1.419 . S
C203 C204 1.363 . S
C203 H206 0.929 . S
C204 C203 1.363 . S
C204 C210 1.428 . S
H205 C201 0.930 . S
H206 C203 0.929 . S
S207 N208 1.613 . S
S207 N209 1.610 . S
N208 S207 1.613 . S
N208 C211 1.350 . S
N209 S207 1.610 . S
N209 C210 1.351 . S
C210 C204 1.428 . S
C210 N209 1.351 . S
C210 C211 1.434 . S
C211 C202 1.429 . S
C211 N208 1.350 . S
C211 C210 1.434 . S
C212 C213 1.369 . S
C212 C214 1.419 . S
C212 H216 0.930 . S
C213 C212 1.369 . S
C213 C222 1.429 . S
C214 C212 1.419 . S
C214 C215 1.363 . S
C214 H217 0.929 . S
C215 C214 1.363 . S
C215 C221 1.428 . S
H216 C212 0.930 . S
H217 C214 0.929 . S
S218 N219 1.613 1_455 S
S218 N220 1.610 . S
N219 S218 1.613 1_655 S
N219 C222 1.350 . S
N220 S218 1.610 . S
N220 C221 1.351 1_455 S
C221 C215 1.428 . S
C221 N220 1.351 1_655 S
C221 C222 1.434 . S
C222 C213 1.429 . S
C222 N219 1.350 . S
C222 C221 1.434 . S
C223 C224 1.369 . S
C223 C225 1.419 . S
C223 H227 0.930 . S
C224 C223 1.369 . S
C224 C233 1.429 . S
C225 C223 1.419 . S
C225 C226 1.363 . S
C225 H228 0.929 . S
C226 C225 1.363 . S
C226 C232 1.428 . S
H227 C223 0.930 . S
H228 C225 0.929 . S
S229 N230 1.613 1_545 S
S229 N231 1.610 . S
N230 S229 1.613 1_565 S
N230 C233 1.350 . S
N231 S229 1.610 . S
N231 C232 1.351 1_545 S
C232 C226 1.428 . S
C232 N231 1.351 1_565 S
C232 C233 1.434 . S
C233 C224 1.429 . S
C233 N230 1.350 . S
C233 C232 1.434 . S
C234 C235 1.369 . S
C234 C236 1.419 . S
C234 H238 0.930 . S
C235 C234 1.369 . S
C235 C244 1.429 . S
C236 C234 1.419 . S
C236 C237 1.363 . S
C236 H239 0.929 . S
C237 C236 1.363 . S
C237 C243 1.428 . S
H238 C234 0.930 . S
H239 C236 0.929 . S
S240 N241 1.613 . S
S240 N242 1.610 . S
N241 S240 1.613 . S
N241 C244 1.350 . S
N242 S240 1.610 . S
N242 C243 1.351 . S
C243 C237 1.428 . S
C243 N242 1.351 . S
C243 C244 1.434 . S
C244 C235 1.429 . S
C244 N241 1.350 . S
C244 C243 1.434 . S
C245 C246 1.369 . S
C245 C247 1.419 . S
C245 H249 0.930 . S
C246 C245 1.369 . S
C246 C255 1.429 . S
C247 C245 1.419 . S
C247 C248 1.363 . S
C247 H250 0.929 . S
C248 C247 1.363 . S
C248 C254 1.428 . S
H249 C245 0.930 . S
H250 C247 0.929 . S
S251 N252 1.613 . S
S251 N253 1.610 . S
N252 S251 1.613 . S
N252 C255 1.350 . S
N253 S251 1.610 . S
N253 C254 1.351 . S
C254 C248 1.428 . S
C254 N253 1.351 . S
C254 C255 1.434 . S
C255 C246 1.429 . S
C255 N252 1.350 . S
C255 C254 1.434 . S
C256 C257 1.369 . S
C256 C258 1.419 . S
C256 H260 0.930 . S
C257 C256 1.369 . S
C257 C266 1.429 . S
C258 C256 1.419 . S
C258 C259 1.363 . S
C258 H261 0.929 . S
C259 C258 1.363 . S
C259 C265 1.428 . S
H260 C256 0.930 . S
H261 C258 0.929 . S
S262 N263 1.613 . S
S262 N264 1.610 . S
N263 S262 1.613 . S
N263 C266 1.350 . S
N264 S262 1.610 . S
N264 C265 1.351 . S
C265 C259 1.428 . S
C265 N264 1.351 . S
C265 C266 1.434 . S
C266 C257 1.429 . S
C266 N263 1.350 . S
C266 C265 1.434 . S
C267 C268 1.369 . S
C267 C269 1.401 1_554 S
C267 H271 0.930 . S
C268 C267 1.369 . S
C268 C277 1.429 1_455 S
C269 C267 1.401 1_556 S
C269 C270 1.375 . S
C269 H272 0.934 . S
C270 C269 1.375 . S
C270 C276 1.418 1_455 S
H271 C267 0.930 . S
H272 C269 0.934 . S
S273 N274 1.613 1_556 S
S273 N275 1.610 . S
N274 S273 1.613 1_554 S
N274 C277 1.350 . S
N275 S273 1.610 . S
N275 C276 1.360 . S
C276 C270 1.418 1_655 S
C276 N275 1.360 . S
C276 C277 1.436 1_556 S
C277 C268 1.429 1_655 S
C277 N274 1.350 . S
C277 C276 1.436 1_554 S
C278 C279 1.369 . S
C278 C280 1.419 . S
C278 H282 0.929 1_545 S
C279 C278 1.369 . S
C279 C288 1.429 . S
C280 C278 1.419 . S
C280 C281 1.363 . S
C280 H283 0.929 . S
C281 C280 1.363 . S
C281 C287 1.428 . S
H282 C278 0.929 1_565 S
H283 C280 0.929 . S
S284 N285 1.613 . S
S284 N286 1.610 . S
N285 S284 1.613 . S
N285 C288 1.350 . S
N286 S284 1.610 . S
N286 C287 1.351 . S
C287 C281 1.428 . S
C287 N286 1.351 . S
C287 C288 1.434 . S
C288 C279 1.429 . S
C288 N285 1.350 . S
C288 C287 1.434 . S
C289 C290 1.369 . S
C289 C291 1.419 . S
C289 H293 0.930 . S
C290 C289 1.369 . S
C290 C299 1.429 . S
C291 C289 1.419 . S
C291 C292 1.363 . S
C291 H294 0.929 . S
C292 C291 1.363 . S
C292 C298 1.428 . S
H293 C289 0.930 . S
H294 C291 0.929 . S
S295 N296 1.613 . S
S295 N297 1.610 . S
N296 S295 1.613 . S
N296 C299 1.350 . S
N297 S295 1.610 . S
N297 C298 1.351 . S
C298 C292 1.428 . S
C298 N297 1.351 . S
C298 C299 1.434 . S
C299 C290 1.429 . S
C299 N296 1.350 . S
C299 C298 1.434 . S
C300 C301 1.369 . S
C300 C302 1.419 . S
C300 H304 0.930 . S
C301 C300 1.369 . S
C301 C310 1.429 . S
C302 C300 1.419 . S
C302 C303 1.363 . S
C302 H305 0.929 . S
C303 C302 1.363 . S
C303 C309 1.428 . S
H304 C300 0.930 . S
H305 C302 0.929 . S
S306 N307 1.613 . S
S306 N308 1.610 . S
N307 S306 1.613 . S
N307 C310 1.350 1_565 S
N308 S306 1.610 . S
N308 C309 1.351 1_565 S
C309 C303 1.428 . S
C309 N308 1.351 1_545 S
C309 C310 1.434 . S
C310 C301 1.429 . S
C310 N307 1.350 1_545 S
C310 C309 1.434 . S
C311 C312 1.369 . S
C311 C313 1.419 1_556 S
C311 H315 0.930 . S
C312 C311 1.369 . S
C312 C321 1.429 . S
C313 C311 1.419 1_554 S
C313 C314 1.363 . S
C313 H316 0.929 . S
C314 C313 1.363 . S
C314 C320 1.428 . S
H315 C311 0.930 . S
H316 C313 0.929 . S
S317 N318 1.613 . S
S317 N319 1.610 1_556 S
N318 S317 1.613 . S
N318 C321 1.350 . S
N319 S317 1.610 1_554 S
N319 C320 1.351 . S
C320 C314 1.428 . S
C320 N319 1.351 . S
C320 C321 1.434 1_554 S
C321 C312 1.429 . S
C321 N318 1.350 . S
C321 C320 1.434 1_556 S
C322 C323 1.369 . S
C322 C324 1.419 . S
C322 H326 0.930 . S
C323 C322 1.369 . S
C323 C332 1.429 . S
C324 C322 1.419 . S
C324 C325 1.363 . S
C324 H327 0.929 . S
C325 C324 1.363 . S
C325 C331 1.428 . S
H326 C322 0.930 . S
H327 C324 0.929 . S
S328 N329 1.613 . S
S328 N330 1.610 . S
N329 S328 1.613 . S
N329 C332 1.350 1_655 S
N330 S328 1.610 . S
N330 C331 1.351 1_655 S
C331 C325 1.428 . S
C331 N330 1.351 1_455 S
C331 C332 1.434 . S
C332 C323 1.429 . S
C332 N329 1.350 1_455 S
C332 C331 1.434 . S
C136 C20 1.348 . S
C138 C134 1.373 . S
C147 C41 1.398 . S
C149 C112 1.377 . S
C158 C64 1.430 . S
C160 C123 1.415 . S
C169 C19 1.358 . S
C171 C128 1.465 . S
C182 C106 1.419 . S
C180 C44 1.402 . S
C193 C117 1.359 . S
C191 C67 1.356 . S
C202 C43 1.340 . S
C204 C90 1.372 . S
C213 C66 1.288 . S
C215 C95 1.348 . S
C224 C21 1.398 . S
C226 C73 1.419 . S
C237 C84 1.444 . S
C235 C42 1.347 . S
C248 C101 1.412 . S
C246 C65 1.369 . S
C257 C18 1.399 . S
C259 C79 1.379 . S
C270 C96 1.522 . S
C268 C17 1.523 . S
C279 C39 1.535 . S
C281 C74 1.531 . S
C290 C62 1.533 . S
C292 C85 1.524 . S
C303 C118 1.520 . S
C301 C40 1.514 . S
C314 C129 1.516 . S
C312 C63 1.524 . S
C323 C16 1.535 . S
C325 C107 1.526 . S
