# Generated by pormake.
# Topology zzz, (3,6)-cn, num edge types: 1
# Building blocks:
#     Node 0, Type 0, BuildingBlock: KAKCAD_clean_linker_0, # of connection points: 3
#     Node 1, Type 0, BuildingBlock: KAKCAD_clean_linker_0, # of connection points: 3
#     Node 2, Type 0, BuildingBlock: KAKCAD_clean_linker_0, # of connection points: 3
#     Node 3, Type 0, BuildingBlock: KAKCAD_clean_linker_0, # of connection points: 3
#     Node 4, Type 0, BuildingBlock: KAKCAD_clean_linker_0, # of connection points: 3
#     Node 5, Type 0, BuildingBlock: KAKCAD_clean_linker_0, # of connection points: 3
#     Node 6, Type 0, BuildingBlock: KAKCAD_clean_linker_0, # of connection points: 3
#     Node 7, Type 0, BuildingBlock: KAKCAD_clean_linker_0, # of connection points: 3
#     Node 8, Type 1, BuildingBlock: HISSIN_clean_sbu_0, # of connection points: 6
#     Node 9, Type 1, BuildingBlock: HISSIN_clean_sbu_0, # of connection points: 6
#     Node 10, Type 1, BuildingBlock: HISSIN_clean_sbu_0, # of connection points: 6
#     Node 11, Type 1, BuildingBlock: HISSIN_clean_sbu_0, # of connection points: 6
#     Edge 12, Type (0, 1), BuildingBlock: OJICUG_clean_linker_0, # of connection points: 2
#     Edge 13, Type (0, 1), BuildingBlock: OJICUG_clean_linker_0, # of connection points: 2
#     Edge 14, Type (0, 1), BuildingBlock: OJICUG_clean_linker_0, # of connection points: 2
#     Edge 15, Type (0, 1), BuildingBlock: OJICUG_clean_linker_0, # of connection points: 2
#     Edge 16, Type (0, 1), BuildingBlock: OJICUG_clean_linker_0, # of connection points: 2
#     Edge 17, Type (0, 1), BuildingBlock: OJICUG_clean_linker_0, # of connection points: 2
#     Edge 18, Type (0, 1), BuildingBlock: OJICUG_clean_linker_0, # of connection points: 2
#     Edge 19, Type (0, 1), BuildingBlock: OJICUG_clean_linker_0, # of connection points: 2
#     Edge 20, Type (0, 1), BuildingBlock: OJICUG_clean_linker_0, # of connection points: 2
#     Edge 21, Type (0, 1), BuildingBlock: OJICUG_clean_linker_0, # of connection points: 2
#     Edge 22, Type (0, 1), BuildingBlock: OJICUG_clean_linker_0, # of connection points: 2
#     Edge 23, Type (0, 1), BuildingBlock: OJICUG_clean_linker_0, # of connection points: 2
#     Edge 24, Type (0, 1), BuildingBlock: OJICUG_clean_linker_0, # of connection points: 2
#     Edge 25, Type (0, 1), BuildingBlock: OJICUG_clean_linker_0, # of connection points: 2
#     Edge 26, Type (0, 1), BuildingBlock: OJICUG_clean_linker_0, # of connection points: 2
#     Edge 27, Type (0, 1), BuildingBlock: OJICUG_clean_linker_0, # of connection points: 2
#     Edge 28, Type (0, 1), BuildingBlock: OJICUG_clean_linker_0, # of connection points: 2
#     Edge 29, Type (0, 1), BuildingBlock: OJICUG_clean_linker_0, # of connection points: 2
#     Edge 30, Type (0, 1), BuildingBlock: OJICUG_clean_linker_0, # of connection points: 2
#     Edge 31, Type (0, 1), BuildingBlock: OJICUG_clean_linker_0, # of connection points: 2
#     Edge 32, Type (0, 1), BuildingBlock: OJICUG_clean_linker_0, # of connection points: 2
#     Edge 33, Type (0, 1), BuildingBlock: OJICUG_clean_linker_0, # of connection points: 2
#     Edge 34, Type (0, 1), BuildingBlock: OJICUG_clean_linker_0, # of connection points: 2
#     Edge 35, Type (0, 1), BuildingBlock: OJICUG_clean_linker_0, # of connection points: 2
# Relax obj value: 0.449
# Max RMSD: 0.239
# Mean RMSD: 0.194
data_MOF--net-zzz--node1-HISSIN_clean_sbu_0--node2-KAKCAD_clean_linker_0--edge1-OJICUG_clean_linker_0
_symmetry_space_group_name_H-M    P1
_symmetry_Int_Tables_number       1
_symmetry_cell_setting            triclinic
loop_
_symmetry_equiv_pos_as_xyz
'x, y, z'
_cell_length_a     44.031279
_cell_length_b     44.065196
_cell_length_c     17.004724
_cell_angle_alpha  90.036568
_cell_angle_beta   91.816044
_cell_angle_gamma 91.593205
loop_
_atom_site_label
_atom_site_type_symbol
_atom_site_fract_x
_atom_site_fract_y
_atom_site_fract_z
_atom_type_partial_charge
C0 C 0.84564 0.62185 0.14328 0.0
C1 C 0.84641 0.60462 0.07391 0.0
C2 C 0.81868 0.62324 0.18414 0.0
C3 C 0.79259 0.60671 0.15686 0.0
C4 C 0.79206 0.59506 0.07985 0.0
C5 C 0.8188 0.59413 0.0385 0.0
C6 C 0.771 0.59343 0.21379 0.0
C7 C 0.74102 0.58561 0.19054 0.0
C8 C 0.72364 0.5645 0.23342 0.0
C9 C 0.73658 0.55168 0.30313 0.0
C10 C 0.76611 0.56133 0.33021 0.0
C11 C 0.7827 0.58206 0.28501 0.0
C12 C 0.78262 0.5493 0.40115 0.0
C13 C 0.79307 0.57016 0.45935 0.0
C14 C 0.79669 0.52105 0.39769 0.0
C15 C 0.8222 0.51494 0.4468 0.0
C16 C 0.83442 0.53717 0.49936 0.0
C17 C 0.69347 0.55481 0.1976 0.0
C18 C 0.67246 0.57704 0.17586 0.0
C19 C 0.68863 0.52526 0.1678 0.0
C20 C 0.66461 0.51871 0.11321 0.0
C21 C 0.64481 0.54157 0.08704 0.0
C22 C 0.6485 0.57054 0.12164 0.0
C23 C 0.81872 0.56429 0.50731 0.0
H24 H 0.86648 0.63102 0.17061 0.0
H25 H 0.8194 0.63368 0.24189 0.0
H26 H 0.77235 0.5826 0.05582 0.0
H27 H 0.81842 0.58111 0.98442 0.0
H28 H 0.73185 0.59434 0.13537 0.0
H29 H 0.80613 0.58726 0.30285 0.0
H30 H 0.72389 0.53475 0.3357 0.0
H31 H 0.78319 0.59236 0.4624 0.0
H32 H 0.78979 0.50487 0.35211 0.0
H33 H 0.83381 0.49385 0.43907 0.0
H34 H 0.67583 0.60014 0.1969 0.0
H35 H 0.70467 0.50776 0.18232 0.0
H36 H 0.82735 0.58177 0.5476 0.0
H37 H 0.6341 0.5889 0.10313 0.0
H38 H 0.66227 0.49596 0.08933 0.0
C39 C 0.93697 0.84199 0.04475 0.0
C40 C 0.92562 0.86389 0.09532 0.0
C41 C 0.93731 0.81159 0.06776 0.0
C42 C 0.92601 0.80308 0.1411 0.0
C43 C 0.9078 0.82366 0.1805 0.0
C44 C 0.90839 0.85427 0.15905 0.0
C45 C 0.94289 0.78012 0.18773 0.0
C46 C 0.95219 0.75293 0.15431 0.0
C47 C 0.97484 0.73555 0.19156 0.0
C48 C 0.98877 0.74623 0.2636 0.0
C49 C 0.97889 0.77342 0.29845 0.0
C50 C 0.95572 0.78936 0.26054 0.0
C51 C 0.99312 0.78892 0.36946 0.0
C52 C 0.97499 0.79338 0.43504 0.0
C53 C 0.01858 0.80854 0.36061 0.0
C54 C 0.02431 0.83327 0.41227 0.0
C55 C 1.00445 0.83931 0.47357 0.0
C56 C 0.98468 0.70792 0.14897 0.0
C57 C 0.97042 0.67944 0.16146 0.0
C58 C 1.00347 0.7112 0.08404 0.0
C59 C 1.00733 0.68695 0.0318 0.0
C60 C 0.99227 0.65861 0.0423 0.0
C61 C 0.9743 0.65506 0.10921 0.0
C62 C 0.98049 0.81818 0.48608 0.0
H63 H 0.95005 0.84886 0.99453 0.0
H64 H 0.95088 0.79623 0.03477 0.0
H65 H 0.89781 0.81735 0.23577 0.0
H66 H 0.89903 0.87075 0.19818 0.0
H67 H 0.94274 0.74591 0.09728 0.0
H68 H 0.9497 0.81101 0.28528 0.0
H69 H 1.00717 0.7339 0.29119 0.0
H70 H 0.95471 0.77931 0.44247 0.0
H71 H 0.03239 0.80651 0.30936 0.0
H72 H 0.04293 0.849 0.40033 0.0
H73 H 0.95507 0.67644 0.20956 0.0
H74 H 0.01421 0.73303 0.07175 0.0
H75 H 0.96496 0.82167 0.53316 0.0
H76 H 0.96203 0.63385 0.1193 0.0
H77 H 0.02175 0.69065 0.98211 0.0
C78 C 0.73717 0.90558 0.99521 0.0
C79 C 0.70646 0.90763 1.01382 0.0
C80 C 0.7593 0.90627 0.05584 0.0
C81 C 0.75042 0.90849 0.13479 0.0
C82 C 0.72055 0.89816 0.15008 0.0
C83 C 0.69825 0.89888 0.0899 0.0
C84 C 0.7664 0.93127 0.18952 0.0
C85 C 0.79401 0.94543 0.16871 0.0
C86 C 0.80299 0.97432 0.19693 0.0
C87 C 0.78519 0.98831 0.25497 0.0
C88 C 0.75932 0.97248 0.2852 0.0
C89 C 0.75058 0.94434 0.25136 0.0
C90 C 0.73877 0.98421 0.34776 0.0
C91 C 0.73058 0.96471 0.40997 0.0
C92 C 0.72185 0.01069 0.33709 0.0
C93 C 0.69663 0.01646 0.38441 0.0
C94 C 0.68727 0.99567 0.4429 0.0
C95 C 0.82915 0.98931 0.15544 0.0
C96 C 0.85902 0.97958 0.17042 0.0
C97 C 0.82342 1.00519 0.08485 0.0
C98 C 0.84638 0.01013 0.02978 0.0
C99 C 0.87601 0.99938 0.04325 0.0
C100 C 0.88211 0.98481 0.11579 0.0
C101 C 0.70531 0.97018 0.45605 0.0
H102 H 0.74426 0.90919 0.93542 0.0
H103 H 0.78254 0.90978 0.03893 0.0
H104 H 0.71315 0.89442 0.20936 0.0
H105 H 0.67468 0.89748 0.10616 0.0
H106 H 0.80788 0.9353 0.12504 0.0
H107 H 0.72963 0.93396 0.27064 0.0
H108 H 0.7915 0.01079 0.2766 0.0
H109 H 0.7428 0.94398 0.42002 0.0
H110 H 0.72687 0.02595 0.28904 0.0
H111 H 0.68343 0.03639 0.37221 0.0
H112 H 0.86405 0.96615 0.2223 0.0
H113 H 0.80051 0.01199 0.06966 0.0
H114 H 0.69942 0.95386 0.50107 0.0
H115 H 0.90436 0.9758 0.12855 0.0
H116 H 0.84062 0.02171 0.97541 0.0
C117 C 0.49067 0.70471 0.43943 0.0
C118 C 0.5183 0.68929 0.44068 0.0
C119 C 0.48535 0.72853 0.38676 0.0
C120 C 0.50715 0.73769 0.33209 0.0
C121 C 0.53548 0.72368 0.3358 0.0
C122 C 0.541 0.69986 0.38945 0.0
C123 C 0.49786 0.75775 0.26452 0.0
C124 C 0.516 0.78241 0.23647 0.0
C125 C 0.50542 0.79989 0.17155 0.0
C126 C 0.47733 0.79223 0.13472 0.0
C127 C 0.45981 0.76735 0.15968 0.0
C128 C 0.47003 0.75061 0.22485 0.0
C129 C 0.43307 0.75613 0.11164 0.0
C130 C 0.40719 0.74376 0.14744 0.0
C131 C 0.43521 0.75374 0.02967 0.0
C132 C 0.41386 0.73636 0.98582 0.0
C133 C 0.38988 0.72091 0.02299 0.0
C134 C 0.52287 0.8256 0.13617 0.0
C135 C 0.51513 0.85556 0.15341 0.0
C136 C 0.53947 0.82037 0.06844 0.0
C137 C 0.54644 0.84418 1.01653 0.0
C138 C 0.53682 0.87389 0.03073 0.0
C139 C 0.52219 0.87943 0.10171 0.0
C140 C 0.38568 0.72642 0.10339 0.0
H141 H 0.47227 0.6975 0.47634 0.0
H142 H 0.4633 0.73888 0.38611 0.0
H143 H 0.55277 0.72998 0.29448 0.0
H144 H 0.56289 0.6893 0.38923 0.0
H145 H 0.53782 0.788 0.26479 0.0
H146 H 0.45696 0.73065 0.24227 0.0
H147 H 0.46948 0.80531 0.08437 0.0
H148 H 0.40458 0.74588 0.21032 0.0
H149 H 0.45489 0.7629 1.00017 0.0
H150 H 0.41812 0.73257 0.92428 0.0
H151 H 0.50146 0.86013 0.20371 0.0
H152 H 0.54498 0.79741 0.05244 0.0
H153 H 0.36709 0.71539 0.13351 0.0
H154 H 0.51412 0.90182 0.11467 0.0
H155 H 0.55812 0.839 0.96328 0.0
C156 C 0.24591 0.45483 0.38428 0.0
C157 C 0.21576 0.44389 0.37345 0.0
C158 C 0.26702 0.45016 0.32695 0.0
C159 C 0.25847 0.43461 0.25709 0.0
C160 C 0.23032 0.41876 0.25337 0.0
C161 C 0.20915 0.42316 0.31167 0.0
C162 C 0.27489 0.44246 0.18447 0.0
C163 C 0.30596 0.44978 0.18999 0.0
C164 C 0.31923 0.47064 0.13831 0.0
C165 C 0.30157 0.48151 0.07338 0.0
C166 C 0.27114 0.47053 0.06072 0.0
C167 C 0.2582 0.45134 0.11714 0.0
C168 C 0.25036 0.48049 0.99507 0.0
C169 C 0.23554 0.50825 0.99989 0.0
C170 C 0.23898 0.45885 0.94006 0.0
C171 C 0.21265 0.46413 0.89387 0.0
C172 C 0.19654 0.49111 0.90192 0.0
C173 C 0.34938 0.48378 0.16534 0.0
C174 C 0.35033 0.51138 0.20699 0.0
C175 C 0.37411 0.46442 0.1752 0.0
C176 C 0.39786 0.47124 0.23007 0.0
C177 C 0.3974 0.49749 0.27731 0.0
C178 C 0.37398 0.51813 0.26233 0.0
C179 C 0.20905 0.51355 0.95378 0.0
H180 H 0.25256 0.47048 0.43113 0.0
H181 H 0.28854 0.46254 0.33327 0.0
H182 H 0.22349 0.40553 0.20176 0.0
H183 H 0.18668 0.41281 0.30377 0.0
H184 H 0.31906 0.44238 0.24125 0.0
H185 H 0.23406 0.44584 0.11186 0.0
H186 H 0.31118 0.49826 0.03405 0.0
H187 H 0.24314 0.52497 0.04345 0.0
H188 H 0.24947 0.43697 0.93622 0.0
H189 H 0.20433 0.44649 0.85371 0.0
H190 H 0.33129 0.5264 0.2024 0.0
H191 H 0.37363 0.4426 0.14575 0.0
H192 H 0.19738 0.53452 0.96257 0.0
H193 H 0.37306 0.53886 0.29632 0.0
H194 H 0.41528 0.45466 0.23975 0.0
C195 C 0.11401 0.20734 0.36225 0.0
C196 C 0.1238 0.18252 0.31856 0.0
C197 C 0.11109 0.2356 0.32651 0.0
C198 C 0.11833 0.2393 0.24716 0.0
C199 C 0.13538 0.21677 0.21153 0.0
C200 C 0.13766 0.18821 0.24662 0.0
C201 C 0.09944 0.25975 0.19749 0.0
C202 C 0.09012 0.28776 0.22586 0.0
C203 C 0.06546 0.30287 0.19035 0.0
C204 C 0.0501 0.28929 0.12335 0.0
C205 C 0.06064 0.26174 0.09152 0.0
C206 C 0.08518 0.24772 0.12916 0.0
C207 C 0.04661 0.24462 0.02258 0.0
C208 C 0.02148 0.22472 0.03315 0.0
C209 C 0.0646 0.23982 0.95685 0.0
C210 C 0.05922 0.21461 0.90712 0.0
C211 C 0.03547 0.19341 0.92089 0.0
C212 C 0.0559 0.33159 0.22948 0.0
C213 C 0.02689 0.33403 0.26092 0.0
C214 C 0.07794 0.35439 0.24908 0.0
C215 C 0.0718 0.37798 0.30138 0.0
C216 C 0.04332 0.3797 0.3365 0.0
C217 C 0.02071 0.35769 0.31373 0.0
C218 C 0.01581 0.19961 0.98255 0.0
H219 H 0.10378 0.20398 0.4188 0.0
H220 H 0.09866 0.25262 0.35706 0.0
H221 H 0.14267 0.21954 0.15164 0.0
H222 H 0.14633 0.16968 0.21278 0.0
H223 H 0.10102 0.29702 0.27905 0.0
H224 H 0.09155 0.22566 0.1078 0.0
H225 H 0.03063 0.30009 0.09619 0.0
H226 H 1.0078 0.22702 0.08453 0.0
H227 H 0.08462 0.25412 0.94807 0.0
H228 H 0.07463 0.21094 0.85984 0.0
H229 H 1.0095 0.31671 0.24821 0.0
H230 H 0.10064 0.35313 0.22668 0.0
H231 H 0.99735 0.18381 0.99536 0.0
H232 H 0.9983 0.35832 0.338 0.0
H233 H 0.09006 0.394 0.31719 0.0
C234 C 0.30125 0.13441 0.39225 0.0
C235 C 0.33192 0.13202 0.37357 0.0
C236 C 0.27904 0.13283 0.33186 0.0
C237 C 0.28784 0.12967 0.25308 0.0
C238 C 0.31764 0.13992 0.23675 0.0
C239 C 0.34002 0.14 0.29683 0.0
C240 C 0.27183 0.10631 0.20012 0.0
C241 C 0.24406 0.09266 0.2215 0.0
C242 C 0.23453 0.06376 0.19415 0.0
C243 C 0.25221 0.04915 0.13674 0.0
C244 C 0.27838 0.06441 0.10618 0.0
C245 C 0.28756 0.09256 0.13919 0.0
C246 C 0.29855 0.0524 0.04313 0.0
C247 C 0.31617 0.02642 0.05476 0.0
C248 C 0.30598 0.07151 0.97947 0.0
C249 C 0.33113 0.06618 0.93276 0.0
C250 C 0.34983 0.04122 0.94671 0.0
C251 C 0.20732 0.04983 0.23412 0.0
C252 C 0.21118 0.02791 0.29364 0.0
C253 C 0.17944 0.06485 0.2303 0.0
C254 C 0.15679 0.05919 0.28565 0.0
C255 C 0.16108 0.03831 0.34778 0.0
C256 C 0.18847 0.0222 0.34931 0.0
C257 C 0.34125 0.02077 1.00681 0.0
H258 H 0.29425 0.13151 0.45237 0.0
H259 H 0.25584 0.12943 0.34923 0.0
H260 H 0.32495 0.14297 0.17713 0.0
H261 H 0.36355 0.14124 0.28029 0.0
H262 H 0.23038 0.10334 0.26463 0.0
H263 H 0.30867 0.1025 0.11961 0.0
H264 H 0.24541 0.02677 0.11526 0.0
H265 H 0.3118 0.01153 0.10399 0.0
H266 H 0.2933 0.0919 0.96881 0.0
H267 H 0.33641 0.08222 0.8866 0.0
H268 H 0.23262 0.01657 0.30035 0.0
H269 H 0.17595 0.08262 0.18721 0.0
H270 H 0.35497 1.00127 0.01974 0.0
H271 H 0.19281 1.0056 0.39489 0.0
H272 H 0.13655 0.07258 0.28196 0.0
C273 C 0.50011 0.33421 0.98229 0.0
C274 C 0.52257 0.34394 0.92939 0.0
C275 C 0.50548 0.3105 0.03628 0.0
C276 C 0.53343 0.2958 0.03889 0.0
C277 C 0.55497 0.30413 0.98266 0.0
C278 C 0.54972 0.32778 0.92919 0.0
C279 C 0.54269 0.27593 0.10692 0.0
C280 C 0.52422 0.25177 0.13639 0.0
C281 C 0.53463 0.23456 0.202 0.0
C282 C 0.56289 0.24204 0.23807 0.0
C283 C 0.58066 0.2666 0.21216 0.0
C284 C 0.57066 0.28298 0.14605 0.0
C285 C 0.60729 0.27798 0.26048 0.0
C286 C 0.60502 0.28024 0.34247 0.0
C287 C 0.63325 0.29043 0.22516 0.0
C288 C 0.65478 0.30754 0.26979 0.0
C289 C 0.65056 0.31272 0.35035 0.0
C290 C 0.51679 0.20954 0.23936 0.0
C291 C 0.50074 0.21577 0.30745 0.0
C292 C 0.52373 0.17924 0.22362 0.0
C293 C 0.51639 0.15598 0.27693 0.0
C294 C 0.50228 0.16249 0.34811 0.0
C295 C 0.49351 0.19257 0.36099 0.0
C296 C 0.6264 0.29734 0.38688 0.0
H297 H 0.47858 0.34544 0.9836 0.0
H298 H 0.48842 0.30486 0.07882 0.0
H299 H 0.57674 0.29327 0.98259 0.0
H300 H 0.56781 0.33436 0.89056 0.0
H301 H 0.50223 0.24639 0.10872 0.0
H302 H 0.58393 0.30265 0.1276 0.0
H303 H 0.57062 0.22916 0.28891 0.0
H304 H 0.58527 0.27112 0.37172 0.0
H305 H 0.63598 0.28844 0.1623 0.0
H306 H 0.67348 0.31856 0.24011 0.0
H307 H 0.49587 0.239 0.32237 0.0
H308 H 0.537 0.17389 0.17312 0.0
H309 H 0.62207 0.30092 0.44847 0.0
H310 H 0.48226 0.19851 0.41435 0.0
H311 H 0.52382 0.13327 0.26493 0.0
Eu312 Eu 0.9947 0.02643 0.63392 0.0
Eu313 Eu 0.04442 1.00511 0.76328 0.0
C314 C 0.02704 0.07559 0.75774 0.0
C315 C 0.98094 0.06912 0.45779 0.0
C316 C 0.98995 0.09836 0.48407 0.0
C317 C 0.01968 0.07247 0.35865 0.0
C318 C 0.01517 0.11313 0.45286 0.0
C319 C 0.99461 0.05733 0.39086 0.0
C320 C 0.03144 0.09934 0.39355 0.0
C321 C 0.96564 0.04817 0.51297 0.0
O322 O 0.99868 1.00635 0.8253 0.0
O323 O 0.96209 0.01225 0.72781 0.0
C324 C 0.9698 1.0079 0.80216 0.0
O325 O 0.99001 0.97517 0.63033 0.0
O326 O 0.0756 0.01216 0.86513 0.0
O327 O 0.06359 0.96668 0.82602 0.0
O328 O 0.038 0.96583 0.67599 0.0
C329 C 0.01288 0.95681 0.63797 0.0
O330 O 0.04088 0.031 0.57518 0.0
O331 O 0.077 0.01545 0.66564 0.0
O332 O 0.04887 0.05636 0.77132 0.0
O333 O 0.97597 0.02071 0.51414 0.0
O334 O 0.96234 0.0585 0.58413 0.0
O335 O 1.00279 0.06758 0.71451 0.0
C336 C 0.06186 0.97543 0.96062 0.0
C337 C 0.06294 0.94512 0.98551 0.0
C338 C 0.01932 0.98304 0.04564 0.0
C339 C 0.04072 0.93331 0.03463 0.0
C340 C 0.0413 0.99486 0.99572 0.0
C341 C 0.01751 0.95183 0.05993 0.0
C342 C 0.07455 0.98345 0.88391 0.0
C343 C 0.06942 0.02514 0.59467 0.0
H344 H 0.97958 0.10859 0.5342 0.0
H345 H 0.0314 0.06182 0.31131 0.0
H346 H 0.02295 0.13465 0.47818 0.0
H347 H 0.98799 0.035 0.36859 0.0
H348 H 0.07851 0.92971 0.9593 0.0
H349 H 1.00204 0.99765 0.06707 0.0
H350 H 0.03967 0.90907 0.04535 0.0
H351 H 0.03998 0.01842 0.97816 0.0
Eu352 Eu 0.53433 0.04343 0.75142 0.0
Eu353 Eu 0.50196 0.99463 0.6339 0.0
C354 C 0.53227 0.96932 0.79229 0.0
C355 C 0.59558 0.05685 0.88919 0.0
C356 C 0.59212 0.03927 0.9575 0.0
C357 C 0.63987 0.02786 0.85819 0.0
C358 C 0.61108 0.01498 0.97298 0.0
C359 C 0.62096 0.05215 0.84277 0.0
C360 C 0.63416 1.00813 0.92115 0.0
C361 C 0.56881 0.07195 0.85399 0.0
O362 O 0.46625 1.00534 0.72481 0.0
O363 O 0.48471 0.04997 0.77859 0.0
C364 C 0.46272 0.02929 0.76982 0.0
O365 O 0.5152 0.0759 0.66223 0.0
O366 O 0.46624 0.96031 0.60763 0.0
O367 O 0.4933 0.97815 0.51388 0.0
O368 O 0.50009 0.04011 0.57019 0.0
C369 C 0.5049 0.06863 0.59127 0.0
O370 O 0.57063 0.03201 0.66285 0.0
O371 O 0.55144 0.98829 0.60528 0.0
O372 O 0.52257 0.96221 0.72076 0.0
O373 O 0.56992 0.07775 0.77885 0.0
O374 O 0.54262 0.05966 0.87182 0.0
O375 O 0.53598 0.99782 0.81469 0.0
C376 C 0.44035 0.98112 0.49752 0.0
C377 C 0.44369 0.99838 0.4286 0.0
C378 C 0.39682 0.01101 0.52964 0.0
C379 C 0.4251 0.02299 0.41341 0.0
C380 C 0.41534 0.98641 0.54477 0.0
C381 C 0.40254 0.03047 0.46612 0.0
C382 C 0.46714 0.96597 0.53237 0.0
C383 C 0.5738 1.00844 0.61627 0.0
H384 H 0.573 0.04244 0.99497 0.0
H385 H 0.65771 0.02344 0.81764 0.0
H386 H 0.60686 1.0008 0.02371 0.0
H387 H 0.62458 0.06534 0.78999 0.0
H388 H 0.46251 0.99474 0.39048 0.0
H389 H 0.37934 0.01591 0.57086 0.0
H390 H 0.42928 0.03693 0.36222 0.0
H391 H 0.41181 0.97347 0.59801 0.0
Eu392 Eu 0.49207 0.52743 0.73937 0.0
Eu393 Eu 0.54944 0.50612 0.63257 0.0
C394 C 0.56026 0.52581 0.81571 0.0
C395 C 0.42201 0.56373 0.82524 0.0
C396 C 0.42574 0.59184 0.78776 0.0
C397 C 0.37777 0.58226 0.88957 0.0
C398 C 0.40681 0.61564 0.80523 0.0
C399 C 0.39698 0.55854 0.87271 0.0
C400 C 0.38378 0.61163 0.86031 0.0
C401 C 0.44632 0.54165 0.82517 0.0
O402 O 0.53308 0.46145 0.68589 0.0
O403 O 0.50248 0.47994 0.78099 0.0
C404 C 0.517 0.45751 0.74942 0.0
O405 O 0.46969 0.516 0.62057 0.0
O406 O 0.59806 0.51188 0.61102 0.0
O407 O 0.56947 0.48225 0.53631 0.0
O408 O 0.51004 0.50472 0.54381 0.0
C409 C 0.48088 0.50897 0.55221 0.0
O410 O 0.50079 0.5693 0.6659 0.0
O411 O 0.54546 0.55664 0.60845 0.0
O412 O 0.56772 0.50775 0.75845 0.0
O413 O 0.44456 0.52046 0.77161 0.0
O414 O 0.47385 0.55293 0.83539 0.0
O415 O 0.53459 0.54037 0.81217 0.0
C416 C 0.62063 0.46948 0.55318 0.0
C417 C 0.61567 0.4411 0.5883 0.0
C418 C 0.66493 0.45038 0.49035 0.0
C419 C 0.63414 0.41697 0.57051 0.0
C420 C 0.64625 0.47446 0.50768 0.0
C421 C 0.65785 0.42091 0.51735 0.0
C422 C 0.59705 0.49231 0.55338 0.0
C423 C 0.52384 0.576 0.62103 0.0
H424 H 0.44481 0.59614 0.75017 0.0
H425 H 0.35982 0.5782 0.93068 0.0
H426 H 0.41234 0.63784 0.78155 0.0
H427 H 0.39357 0.53679 0.9013 0.0
H428 H 0.59609 0.43697 0.62422 0.0
H429 H 0.68336 0.45431 0.45058 0.0
H430 H 0.6278 0.39466 0.59226 0.0
H431 H 0.65056 0.4964 0.48086 0.0
Eu432 Eu 0.02856 0.54216 0.64119 0.0
Eu433 Eu 1.00475 0.48992 0.75781 0.0
C434 C 0.07528 0.5059 0.75495 0.0
C435 C 0.08822 0.57248 0.52572 0.0
C436 C 0.10873 0.56105 0.58262 0.0
C437 C 0.11621 0.5479 0.4244 0.0
C438 C 0.13064 0.54073 0.56148 0.0
C439 C 0.09345 0.56745 0.44603 0.0
C440 C 0.13349 0.53246 0.48231 0.0
C441 C 0.05731 0.57909 0.54991 0.0
O442 O 1.00847 0.53403 0.82905 0.0
O443 O 1.00439 0.56927 0.73156 0.0
C444 C 1.00375 0.56212 0.80638 0.0
O445 O 0.97887 0.53864 0.60436 0.0
O446 O 1.01128 0.468 0.872 0.0
O447 O 0.97282 0.45465 0.7969 0.0
O448 O 0.96097 0.50765 0.7025 0.0
C449 C 0.95635 0.52467 0.63981 0.0
O450 O 0.03879 0.49756 0.57982 0.0
O451 O 1.00915 0.46298 0.64561 0.0
O452 O 0.05545 0.48313 0.75339 0.0
O453 O 0.03668 0.55953 0.52328 0.0
O454 O 0.05437 0.58468 0.62465 0.0
O455 O 0.06699 0.53267 0.72975 0.0
C456 C 0.96303 0.46848 0.92752 0.0
C457 C 0.9752 0.48602 0.99097 0.0
C458 C 0.91534 0.49419 0.93815 0.0
C459 C 0.9583 0.50906 0.02319 0.0
C460 C 0.93207 0.47104 0.90649 0.0
C461 C 0.92904 0.51466 0.9927 0.0
C462 C 0.98374 0.45623 0.86917 0.0
C463 C 0.02583 0.4703 0.58529 0.0
H464 H 0.10573 0.56495 0.64465 0.0
H465 H 0.11885 0.54349 0.36241 0.0
H466 H 0.14341 0.52983 0.60836 0.0
H467 H 0.07808 0.57613 0.40095 0.0
H468 H 0.99881 0.48425 1.00983 0.0
H469 H 0.89225 0.49725 0.91631 0.0
H470 H 0.96906 0.52406 0.06691 0.0
H471 H 0.9217 0.45743 0.85927 0.0
C472 C 0.14628 0.02812 0.49066 0.0
C473 C 0.13768 0.03441 0.41156 0.0
H474 H 0.13228 0.02057 0.6096 0.0
C475 C 0.10633 0.0377 0.39458 0.0
H476 H 0.17002 0.02583 0.50746 0.0
C477 C 0.08468 0.03483 0.45368 0.0
C478 C 0.09325 0.02876 0.53261 0.0
H479 H 0.09824 0.04204 0.33499 0.0
H480 H 0.06096 0.03692 0.43703 0.0
C481 C 0.12451 0.02534 0.54995 0.0
C482 C 0.49255 0.10816 0.39304 0.0
C483 C 0.49958 0.13878 0.41147 0.0
H484 H 0.48815 0.06233 0.43451 0.0
C485 C 0.50617 0.14627 0.49096 0.0
H486 H 0.48697 0.10145 0.33291 0.0
C487 C 0.50684 0.12378 0.54951 0.0
C488 C 0.50085 0.09303 0.53064 0.0
H489 H 0.51209 0.16944 0.50778 0.0
H490 H 0.51294 0.13047 0.60937 0.0
C491 C 0.49309 0.08567 0.45168 0.0
C492 C 0.45002 0.49362 0.34221 0.0
C493 C 0.41938 0.50175 0.3464 0.0
H494 H 0.49328 0.48955 0.40257 0.0
C495 C 0.40936 0.51241 0.41907 0.0
H496 H 0.45872 0.48546 0.28745 0.0
C497 C 0.42916 0.51459 0.48539 0.0
C498 C 0.45975 0.50634 0.48135 0.0
H499 H 0.38588 0.5184 0.42546 0.0
H500 H 0.42036 0.52275 0.54004 0.0
C501 C 0.46991 0.49601 0.40848 0.0
C502 C 0.01998 0.3966 0.46422 0.0
C503 C 0.03801 0.40337 0.39901 0.0
H504 H 1.00221 0.41175 0.57323 0.0
C505 C 0.05194 0.4326 0.39615 0.0
H506 H 1.00922 0.37437 0.47003 0.0
C507 C 0.04814 0.45409 0.45621 0.0
C508 C 0.03025 0.4472 0.52151 0.0
H509 H 0.06571 0.43912 0.34699 0.0
H510 H 0.05928 0.4762 0.45121 0.0
C511 C 0.01618 0.4181 0.52428 0.0
C512 C 0.93069 1.00877 1.00121 0.0
C513 C 0.89992 1.00211 0.9809 0.0
H514 H 0.97594 0.0173 0.9611 0.0
C515 C 0.89236 0.99767 0.90019 0.0
H516 H 0.93763 0.01288 0.06203 0.0
C517 C 0.91473 0.99945 0.8424 0.0
C518 C 0.94551 1.00583 0.86307 0.0
H519 H 0.8691 0.99222 0.88156 0.0
H520 H 0.90789 0.99555 0.78142 0.0
C521 C 0.9529 0.01095 0.94328 0.0
C522 C 0.54519 0.92876 0.98879 0.0
C523 C 0.53912 0.89812 0.96869 0.0
H524 H 0.54834 0.97498 0.94963 0.0
C525 C 0.533 0.89105 0.88876 0.0
H526 H 0.55038 0.93516 0.04933 0.0
C527 C 0.53184 0.91393 0.83135 0.0
C528 C 0.53683 0.94466 0.85187 0.0
H529 H 0.52781 0.86787 0.8707 0.0
H530 H 0.52613 0.90752 0.77108 0.0
C531 C 0.54415 0.95166 0.93127 0.0
C532 C 0.59391 0.55057 1.01688 0.0
C533 C 0.62214 0.53615 0.01985 0.0
H534 H 0.55246 0.55879 0.95127 0.0
C535 C 0.62935 0.51791 0.95533 0.0
H536 H 0.58722 0.56452 0.06546 0.0
C537 C 0.60931 0.51454 0.88983 0.0
C538 C 0.58134 0.52934 0.88633 0.0
H539 H 0.65097 0.50682 0.95418 0.0
H540 H 0.61601 0.50052 0.84135 0.0
C541 C 0.57385 0.54723 0.95119 0.0
C542 C 0.99508 0.64025 0.90099 0.0
C543 C 0.99442 0.63354 0.98206 0.0
H544 H 0.99812 0.62355 0.78302 0.0
C545 C 0.99582 0.60276 1.00434 0.0
H546 H 0.99344 0.66346 0.88078 0.0
C547 C 0.99854 0.57969 0.94771 0.0
C548 C 0.99955 0.58652 0.86679 0.0
H549 H 0.99553 0.59648 0.06586 0.0
H550 H 1.00024 0.55646 0.96757 0.0
C551 C 0.99752 0.61719 0.84446 0.0
C552 C 0.09143 0.13835 0.2741 0.0
C553 C 0.10962 0.15233 0.33432 0.0
H554 H 0.05174 0.11073 0.24598 0.0
C555 C 0.10619 0.14257 0.41215 0.0
H556 H 0.09342 0.14534 0.21337 0.0
C557 C 0.08202 0.123 0.43065 0.0
C558 C 0.06109 0.11281 0.37154 0.0
H559 H 0.12015 0.15257 0.45952 0.0
H560 H 0.07833 0.1177 0.49188 0.0
C561 C 0.06725 0.11876 0.29267 0.0
C562 C 0.383 0.11143 0.41345 0.0
C563 C 0.35115 0.11026 0.41823 0.0
H564 H 0.42429 0.08699 0.4247 0.0
C565 C 0.33717 0.08386 0.44923 0.0
H566 H 0.39464 0.13145 0.39116 0.0
C567 C 0.35403 0.05843 0.46734 0.0
C568 C 0.38536 0.05869 0.45556 0.0
H569 H 0.31273 0.08152 0.45308 0.0
H570 H 0.34211 0.03794 0.48577 0.0
C571 C 0.39993 0.08583 0.43171 0.0
C572 C 0.66828 0.36689 0.35179 0.0
C573 C 0.66585 0.33901 0.39158 0.0
H574 H 0.66796 0.41497 0.36091 0.0
C575 C 0.67057 0.33879 0.47383 0.0
H576 H 0.66493 0.36813 0.28854 0.0
C577 C 0.67222 0.36607 0.51603 0.0
C578 C 0.66934 0.3939 0.47644 0.0
H579 H 0.66983 0.31761 0.50611 0.0
H580 H 0.67271 0.36523 0.57971 0.0
C581 C 0.67003 0.39406 0.39381 0.0
C582 C 0.19686 0.47549 0.48419 0.0
C583 C 0.19106 0.46013 0.41245 0.0
H584 H 0.18528 0.51177 0.55906 0.0
C585 C 0.16389 0.466 0.37 0.0
H586 H 0.2168 0.47084 0.52059 0.0
C587 C 0.14474 0.48853 0.39458 0.0
C588 C 0.15261 0.50653 0.46086 0.0
H589 H 0.15817 0.45482 0.31464 0.0
H590 H 0.12419 0.49234 0.35977 0.0
C591 C 0.17839 0.49893 0.50697 0.0
C592 C 0.94215 0.91196 0.02969 0.0
C593 C 0.94118 0.89397 0.09754 0.0
H594 H 0.96743 0.94554 0.96619 0.0
C595 C 0.96208 0.90016 0.16033 0.0
H596 H 0.9266 0.90726 0.98026 0.0
C597 C 0.98586 0.92139 0.15155 0.0
C598 C 0.9884 0.9373 0.08085 0.0
H599 H 0.96213 0.88615 0.21271 0.0
H600 H 1.00352 0.92358 0.1972 0.0
C601 C 0.9655 0.93374 0.02176 0.0
C602 C 0.70064 0.95614 0.94001 0.0
C603 C 0.68699 0.92931 0.96964 0.0
H604 H 0.69494 1.00204 0.90424 0.0
C605 C 0.65513 0.92748 0.97325 0.0
H606 H 0.72508 0.95897 0.93727 0.0
C607 C 0.63776 0.95276 0.95483 0.0
C608 C 0.6519 0.98027 0.93207 0.0
H609 H 0.64376 0.90713 0.99457 0.0
H610 H 0.61336 0.95106 0.96076 0.0
C611 C 0.68334 0.98125 0.92173 0.0
C612 C 0.37001 0.69383 0.9008 0.0
C613 C 0.37495 0.69416 0.98297 0.0
H614 H 0.36779 0.66675 0.79604 0.0
C615 C 0.37304 0.66651 0.02392 0.0
H616 H 0.37036 0.71482 0.86767 0.0
C617 C 0.3716 0.63907 0.98307 0.0
C618 C 0.37201 0.63873 0.90039 0.0
H619 H 0.37658 0.66568 0.08718 0.0
H620 H 0.37408 0.61843 1.01686 0.0
C621 C 0.36857 0.66628 0.85976 0.0
C622 C 0.89186 0.5749 0.1112 0.0
C623 C 0.87464 0.58964 0.05211 0.0
H624 H 0.92231 0.53904 0.13868 0.0
C625 C 0.87984 0.58308 0.97296 0.0
H626 H 0.88826 0.5792 0.17288 0.0
C627 C 0.89897 0.5597 0.95369 0.0
C628 C 0.91334 0.54264 1.01321 0.0
H629 H 0.86722 0.59434 0.92624 0.0
H630 H 0.90129 0.55391 0.89227 0.0
C631 C 0.91109 0.55157 0.09184 0.0
C632 C 1.00494 0.15176 0.84673 0.0
C633 C 0.03308 0.16385 0.87578 0.0
H634 H 0.98099 0.11515 0.7855 0.0
C635 C 0.05922 0.14689 0.86343 0.0
H636 H 0.98433 0.16407 0.85486 0.0
C637 C 0.05727 0.11863 0.82471 0.0
C638 C 0.02919 0.10651 0.79555 0.0
H639 H 0.08125 0.15513 0.88563 0.0
H640 H 0.07789 0.10618 0.81787 0.0
C641 C 1.00308 0.12371 0.80647 0.0
C642 C 0.38707 0.00968 0.86989 0.0
C643 C 0.37876 0.0378 0.90123 0.0
H644 H 0.41909 0.98502 0.80308 0.0
C645 C 0.39843 0.06307 0.88821 0.0
H646 H 0.37266 0.98969 0.87802 0.0
C647 C 0.4254 0.06033 0.84623 0.0
C648 C 0.43356 0.03232 0.81402 0.0
H649 H 0.39319 0.0851 0.9117 0.0
H650 H 0.43983 0.08034 0.8386 0.0
C651 C 0.41376 1.00707 0.82631 0.0
C652 C 0.53265 0.37487 0.80525 0.0
C653 C 0.51889 0.37197 0.87901 0.0
H654 H 0.54296 0.40358 0.70675 0.0
C655 C 0.50321 0.39708 0.90666 0.0
H656 H 0.54453 0.35609 0.78068 0.0
C657 C 0.50196 0.42421 0.86351 0.0
C658 C 0.5165 0.42743 0.79114 0.0
H659 H 0.49271 0.39633 0.96335 0.0
H660 H 0.49016 0.44301 0.88839 0.0
C661 C 0.53157 0.40218 0.76221 0.0
C662 C 0.15651 0.52333 0.83324 0.0
C663 C 0.16596 0.49483 0.86074 0.0
H664 H 0.12104 0.54921 0.77886 0.0
C665 C 0.14533 0.4699 0.85109 0.0
H666 H 0.17162 0.54308 0.83863 0.0
C667 C 0.11627 0.47339 0.81606 0.0
C668 C 0.10674 0.50193 0.78944 0.0
H669 H 0.15127 0.44764 0.8725 0.0
H670 H 0.10111 0.45366 0.81081 0.0
C671 C 0.12742 0.52682 0.79819 0.0
C672 C 0.03511 0.88117 0.54647 0.0
C673 C 1.00686 0.86872 0.51928 0.0
H674 H 0.05919 0.91806 0.60612 0.0
C675 C 0.98064 0.88532 0.53349 0.0
H676 H 0.0558 0.86916 0.53692 0.0
C677 C 0.9826 0.91354 0.57236 0.0
C678 C 1.0108 0.92602 0.5995 0.0
H679 H 0.9585 0.87687 0.5126 0.0
H680 H 0.96189 0.92566 0.58078 0.0
C681 C 0.03702 0.90923 0.5866 0.0
C682 C 0.6379 0.97436 0.49809 0.0
C683 C 0.65821 0.99931 0.48748 0.0
H684 H 0.59586 0.95754 0.54507 0.0
C685 C 0.65039 0.02733 0.52035 0.0
H686 H 0.64276 0.95244 0.47334 0.0
C687 C 0.62354 0.03013 0.56312 0.0
C688 C 0.60311 1.00519 0.573 0.0
H689 H 0.66531 0.04707 0.51406 0.0
H690 H 0.61858 0.05207 0.5876 0.0
C691 C 0.61078 0.97731 0.53927 0.0
C692 C 0.50665 0.65766 0.56234 0.0
C693 C 0.52228 0.66136 0.49147 0.0
H694 H 0.49462 0.62828 0.65789 0.0
C695 C 0.54008 0.63712 0.46721 0.0
H696 H 0.49333 0.67577 0.58505 0.0
C697 C 0.54146 0.61002 0.51073 0.0
C698 C 0.52473 0.60598 0.57937 0.0
H699 H 0.55215 0.63846 0.41283 0.0
H700 H 0.55478 0.59175 0.48869 0.0
C701 C 0.50757 0.63034 0.60495 0.0
C702 C 0.8726 0.5082 0.58327 0.0
C703 C 0.86517 0.53394 0.53842 0.0
H704 H 0.90686 0.48541 0.65224 0.0
C705 C 0.88779 0.55673 0.52886 0.0
H706 H 0.85572 0.49025 0.5917 0.0
C707 C 0.91715 0.55371 0.56191 0.0
C708 C 0.92466 0.52811 0.60713 0.0
H709 H 0.88294 0.57671 0.49407 0.0
H710 H 0.93401 0.57157 0.55213 0.0
C711 C 0.90187 0.50553 0.61818 0.0
loop_
_geom_bond_atom_site_label_1
_geom_bond_atom_site_label_2
_geom_bond_distance
_geom_bond_site_symmetry_2
_ccdc_geom_bond_type
C0 C1 1.386 . S
C0 C2 1.397 . S
C0 H24 0.931 . S
C1 C0 1.386 . S
C1 C5 1.397 . S
C2 C0 1.397 . S
C2 C3 1.384 . S
C2 H25 0.930 . S
C3 C2 1.384 . S
C3 C4 1.377 . S
C3 C6 1.481 . S
C4 C3 1.377 . S
C4 C5 1.389 . S
C4 H26 0.929 . S
C5 C1 1.397 . S
C5 C4 1.389 . S
C5 H27 0.931 . S
C6 C3 1.481 . S
C6 C7 1.387 . S
C6 C11 1.390 . S
C7 C6 1.387 . S
C7 C8 1.401 . S
C7 H28 0.930 . S
C8 C7 1.401 . S
C8 C9 1.376 . S
C8 C17 1.511 . S
C9 C8 1.376 . S
C9 C10 1.392 . S
C9 H30 0.931 . S
C10 C9 1.392 . S
C10 C11 1.361 . S
C10 C12 1.500 . S
C11 C6 1.390 . S
C11 C10 1.361 . S
C11 H29 0.931 . S
C12 C10 1.500 . S
C12 C13 1.371 . S
C12 C14 1.365 . S
C13 C12 1.371 . S
C13 C23 1.386 . S
C13 H31 0.931 . S
C14 C12 1.365 . S
C14 C15 1.409 . S
C14 H32 0.929 . S
C15 C14 1.409 . S
C15 C16 1.380 . S
C15 H33 0.930 . S
C16 C15 1.380 . S
C16 C23 1.357 . S
C17 C8 1.511 . S
C17 C18 1.341 . S
C17 C19 1.371 . S
C18 C17 1.341 . S
C18 C22 1.394 . S
C18 H34 0.930 . S
C19 C17 1.371 . S
C19 C20 1.392 . S
C19 H35 0.931 . S
C20 C19 1.392 . S
C20 C21 1.331 . S
C20 H38 0.932 . S
C21 C20 1.331 . S
C21 C22 1.336 . S
C22 C18 1.394 . S
C22 C21 1.336 . S
C22 H37 0.929 . S
C23 C13 1.386 . S
C23 C16 1.357 . S
C23 H36 0.928 . S
H24 C0 0.931 . S
H25 C2 0.930 . S
H26 C4 0.929 . S
H27 C5 0.931 . S
H28 C7 0.930 . S
H29 C11 0.931 . S
H30 C9 0.931 . S
H31 C13 0.931 . S
H32 C14 0.929 . S
H33 C15 0.930 . S
H34 C18 0.930 . S
H35 C19 0.931 . S
H36 C23 0.928 . S
H37 C22 0.929 . S
H38 C20 0.932 . S
C39 C40 1.386 . S
C39 C41 1.397 . S
C39 H63 0.931 . S
C40 C39 1.386 . S
C40 C44 1.397 . S
C41 C39 1.397 . S
C41 C42 1.384 . S
C41 H64 0.930 . S
C42 C41 1.384 . S
C42 C43 1.377 . S
C42 C45 1.481 . S
C43 C42 1.377 . S
C43 C44 1.389 . S
C43 H65 0.929 . S
C44 C40 1.397 . S
C44 C43 1.389 . S
C44 H66 0.931 . S
C45 C42 1.481 . S
C45 C46 1.387 . S
C45 C50 1.390 . S
C46 C45 1.387 . S
C46 C47 1.401 . S
C46 H67 0.930 . S
C47 C46 1.401 . S
C47 C48 1.376 . S
C47 C56 1.511 . S
C48 C47 1.376 . S
C48 C49 1.392 . S
C48 H69 0.931 . S
C49 C48 1.392 . S
C49 C50 1.361 . S
C49 C51 1.500 . S
C50 C45 1.390 . S
C50 C49 1.361 . S
C50 H68 0.931 . S
C51 C49 1.500 . S
C51 C52 1.371 . S
C51 C53 1.365 . S
C52 C51 1.371 . S
C52 C62 1.386 . S
C52 H70 0.931 . S
C53 C51 1.365 . S
C53 C54 1.409 . S
C53 H71 0.929 . S
C54 C53 1.409 . S
C54 C55 1.380 . S
C54 H72 0.930 . S
C55 C54 1.380 . S
C55 C62 1.357 . S
C56 C47 1.511 . S
C56 C57 1.341 . S
C56 C58 1.371 . S
C57 C56 1.341 . S
C57 C61 1.394 . S
C57 H73 0.930 . S
C58 C56 1.371 . S
C58 C59 1.392 . S
C58 H74 0.931 . S
C59 C58 1.392 . S
C59 C60 1.331 . S
C59 H77 0.932 . S
C60 C59 1.331 . S
C60 C61 1.336 . S
C61 C57 1.394 . S
C61 C60 1.336 . S
C61 H76 0.929 . S
C62 C52 1.386 . S
C62 C55 1.357 . S
C62 H75 0.928 . S
H63 C39 0.931 . S
H64 C41 0.930 . S
H65 C43 0.929 . S
H66 C44 0.931 . S
H67 C46 0.930 . S
H68 C50 0.931 . S
H69 C48 0.931 . S
H70 C52 0.931 . S
H71 C53 0.929 . S
H72 C54 0.930 . S
H73 C57 0.930 . S
H74 C58 0.931 . S
H75 C62 0.928 . S
H76 C61 0.929 . S
H77 C59 0.932 . S
C78 C79 1.386 . S
C78 C80 1.397 . S
C78 H102 0.931 . S
C79 C78 1.386 . S
C79 C83 1.397 . S
C80 C78 1.397 . S
C80 C81 1.384 . S
C80 H103 0.930 . S
C81 C80 1.384 . S
C81 C82 1.377 . S
C81 C84 1.481 . S
C82 C81 1.377 . S
C82 C83 1.389 . S
C82 H104 0.932 1_565 S
C83 C79 1.397 . S
C83 C82 1.389 . S
C83 H105 0.909 1_565 S
C84 C81 1.481 . S
C84 C85 1.387 . S
C84 C89 1.390 . S
C85 C84 1.387 . S
C85 C86 1.401 . S
C85 H106 0.930 . S
C86 C85 1.401 . S
C86 C87 1.376 . S
C86 C95 1.511 . S
C87 C86 1.376 . S
C87 C88 1.392 . S
C87 H108 0.931 . S
C88 C87 1.392 . S
C88 C89 1.361 . S
C88 C90 1.500 . S
C89 C84 1.390 . S
C89 C88 1.361 . S
C89 H107 0.931 . S
C90 C88 1.500 . S
C90 C91 1.371 . S
C90 C92 1.365 . S
C91 C90 1.371 . S
C91 C101 1.386 . S
C91 H109 0.931 . S
C92 C90 1.365 . S
C92 C93 1.409 . S
C92 H110 0.929 . S
C93 C92 1.409 . S
C93 C94 1.380 . S
C93 H111 0.930 . S
C94 C93 1.380 . S
C94 C101 1.357 . S
C95 C86 1.511 . S
C95 C96 1.341 . S
C95 C97 1.371 . S
C96 C95 1.341 . S
C96 C100 1.394 . S
C96 H112 0.930 . S
C97 C95 1.371 . S
C97 C98 1.392 . S
C97 H113 0.931 . S
C98 C97 1.392 . S
C98 C99 1.331 . S
C98 H116 0.932 . S
C99 C98 1.331 . S
C99 C100 1.336 . S
C100 C96 1.394 . S
C100 C99 1.336 . S
C100 H115 0.929 . S
C101 C91 1.386 . S
C101 C94 1.357 . S
C101 H114 0.928 . S
H102 C78 0.931 . S
H103 C80 0.930 . S
H104 C82 0.932 1_545 S
H105 C83 0.909 1_545 S
H106 C85 0.930 . S
H107 C89 0.931 . S
H108 C87 0.931 . S
H109 C91 0.931 . S
H110 C92 0.929 . S
H111 C93 0.930 . S
H112 C96 0.930 . S
H113 C97 0.931 . S
H114 C101 0.928 . S
H115 C100 0.929 . S
H116 C98 0.932 . S
C117 C118 1.386 . S
C117 C119 1.397 . S
C117 H141 0.931 . S
C118 C117 1.386 . S
C118 C122 1.397 . S
C119 C117 1.397 . S
C119 C120 1.384 . S
C119 H142 0.930 . S
C120 C119 1.384 . S
C120 C121 1.377 . S
C120 C123 1.481 . S
C121 C120 1.377 . S
C121 C122 1.389 . S
C121 H143 0.929 . S
C122 C118 1.397 . S
C122 C121 1.389 . S
C122 H144 0.931 . S
C123 C120 1.481 . S
C123 C124 1.387 . S
C123 C128 1.390 . S
C124 C123 1.387 . S
C124 C125 1.401 . S
C124 H145 0.930 . S
C125 C124 1.401 . S
C125 C126 1.376 . S
C125 C134 1.511 . S
C126 C125 1.376 . S
C126 C127 1.392 . S
C126 H147 0.931 . S
C127 C126 1.392 . S
C127 C128 1.361 . S
C127 C129 1.500 . S
C128 C123 1.390 . S
C128 C127 1.361 . S
C128 H146 0.931 . S
C129 C127 1.500 . S
C129 C130 1.371 . S
C129 C131 1.365 . S
C130 C129 1.371 . S
C130 C140 1.386 . S
C130 H148 0.931 . S
C131 C129 1.365 . S
C131 C132 1.409 . S
C131 H149 0.929 . S
C132 C131 1.409 . S
C132 C133 1.380 . S
C132 H150 0.930 . S
C133 C132 1.380 . S
C133 C140 1.357 . S
C134 C125 1.511 . S
C134 C135 1.341 . S
C134 C136 1.371 . S
C135 C134 1.341 . S
C135 C139 1.394 . S
C135 H151 0.930 . S
C136 C134 1.371 . S
C136 C137 1.392 . S
C136 H152 0.931 . S
C137 C136 1.392 . S
C137 C138 1.331 . S
C137 H155 0.932 . S
C138 C137 1.331 . S
C138 C139 1.336 . S
C139 C135 1.394 . S
C139 C138 1.336 . S
C139 H154 0.929 . S
C140 C130 1.386 . S
C140 C133 1.357 . S
C140 H153 0.928 1_554 S
H141 C117 0.931 . S
H142 C119 0.930 . S
H143 C121 0.929 . S
H144 C122 0.931 . S
H145 C124 0.930 . S
H146 C128 0.931 . S
H147 C126 0.931 . S
H148 C130 0.931 . S
H149 C131 0.929 . S
H150 C132 0.930 . S
H151 C135 0.930 . S
H152 C136 0.931 . S
H153 C140 0.928 1_556 S
H154 C139 0.929 . S
H155 C137 0.932 . S
C156 C157 1.386 . S
C156 C158 1.397 . S
C156 H180 0.931 . S
C157 C156 1.386 . S
C157 C161 1.397 . S
C158 C156 1.397 . S
C158 C159 1.384 . S
C158 H181 0.930 . S
C159 C158 1.384 . S
C159 C160 1.377 . S
C159 C162 1.481 . S
C160 C159 1.377 . S
C160 C161 1.389 . S
C160 H182 0.929 . S
C161 C157 1.397 . S
C161 C160 1.389 . S
C161 H183 0.931 . S
C162 C159 1.481 . S
C162 C163 1.387 . S
C162 C167 1.390 . S
C163 C162 1.387 . S
C163 C164 1.401 . S
C163 H184 0.930 . S
C164 C163 1.401 . S
C164 C165 1.376 . S
C164 C173 1.511 . S
C165 C164 1.376 . S
C165 C166 1.392 1_554 S
C165 H186 0.931 1_554 S
C166 C165 1.392 1_556 S
C166 C167 1.361 1_556 S
C166 C168 1.500 . S
C167 C162 1.390 . S
C167 C166 1.361 1_554 S
C167 H185 0.931 . S
C168 C166 1.500 . S
C168 C169 1.371 . S
C168 C170 1.365 . S
C169 C168 1.371 . S
C169 C179 1.386 . S
C169 H187 0.931 . S
C170 C168 1.365 . S
C170 C171 1.409 . S
C170 H188 0.929 . S
C171 C170 1.409 . S
C171 C172 1.380 . S
C171 H189 0.930 . S
C172 C171 1.380 . S
C172 C179 1.357 . S
C173 C164 1.511 . S
C173 C174 1.341 . S
C173 C175 1.371 . S
C174 C173 1.341 . S
C174 C178 1.394 . S
C174 H190 0.930 . S
C175 C173 1.371 . S
C175 C176 1.392 . S
C175 H191 0.931 . S
C176 C175 1.392 . S
C176 C177 1.331 . S
C176 H194 0.932 . S
C177 C176 1.331 . S
C177 C178 1.336 . S
C178 C174 1.394 . S
C178 C177 1.336 . S
C178 H193 0.929 . S
C179 C169 1.386 . S
C179 C172 1.357 . S
C179 H192 0.928 . S
H180 C156 0.931 . S
H181 C158 0.930 . S
H182 C160 0.929 . S
H183 C161 0.931 . S
H184 C163 0.930 . S
H185 C167 0.931 . S
H186 C165 0.931 1_556 S
H187 C169 0.931 . S
H188 C170 0.929 . S
H189 C171 0.930 . S
H190 C174 0.930 . S
H191 C175 0.931 . S
H192 C179 0.928 . S
H193 C178 0.929 . S
H194 C176 0.932 . S
C195 C196 1.386 . S
C195 C197 1.397 . S
C195 H219 0.931 . S
C196 C195 1.386 . S
C196 C200 1.397 . S
C197 C195 1.397 . S
C197 C198 1.384 . S
C197 H220 0.930 . S
C198 C197 1.384 . S
C198 C199 1.377 . S
C198 C201 1.481 . S
C199 C198 1.377 . S
C199 C200 1.389 . S
C199 H221 0.929 . S
C200 C196 1.397 . S
C200 C199 1.389 . S
C200 H222 0.931 . S
C201 C198 1.481 . S
C201 C202 1.387 . S
C201 C206 1.390 . S
C202 C201 1.387 . S
C202 C203 1.401 . S
C202 H223 0.930 . S
C203 C202 1.401 . S
C203 C204 1.376 1_554 S
C203 C212 1.511 . S
C204 C203 1.376 1_556 S
C204 C205 1.392 . S
C204 H225 0.931 . S
C205 C204 1.392 . S
C205 C206 1.361 1_556 S
C205 C207 1.500 . S
C206 C201 1.390 . S
C206 C205 1.361 1_554 S
C206 H224 0.931 . S
C207 C205 1.500 . S
C207 C208 1.371 . S
C207 C209 1.365 . S
C208 C207 1.371 . S
C208 C218 1.386 . S
C208 H226 0.931 . S
C209 C207 1.365 . S
C209 C210 1.409 . S
C209 H227 0.929 . S
C210 C209 1.409 . S
C210 C211 1.380 . S
C210 H228 0.930 . S
C211 C210 1.380 . S
C211 C218 1.357 . S
C212 C203 1.511 . S
C212 C213 1.341 . S
C212 C214 1.371 . S
C213 C212 1.341 . S
C213 C217 1.394 . S
C213 H229 0.930 . S
C214 C212 1.371 . S
C214 C215 1.392 . S
C214 H230 0.931 1_554 S
C215 C214 1.392 . S
C215 C216 1.331 . S
C215 H233 0.932 . S
C216 C215 1.331 . S
C216 C217 1.336 . S
C217 C213 1.394 . S
C217 C216 1.336 . S
C217 H232 0.929 . S
C218 C208 1.386 . S
C218 C211 1.357 . S
C218 H231 0.928 . S
H219 C195 0.931 . S
H220 C197 0.930 . S
H221 C199 0.929 . S
H222 C200 0.931 . S
H223 C202 0.930 . S
H224 C206 0.931 . S
H225 C204 0.931 . S
H226 C208 0.931 . S
H227 C209 0.929 . S
H228 C210 0.930 . S
H229 C213 0.930 . S
H230 C214 0.931 1_556 S
H231 C218 0.928 . S
H232 C217 0.929 . S
H233 C215 0.932 . S
C234 C235 1.386 . S
C234 C236 1.397 . S
C234 H258 0.931 . S
C235 C234 1.386 . S
C235 C239 1.397 . S
C236 C234 1.397 . S
C236 C237 1.384 . S
C236 H259 0.930 . S
C237 C236 1.384 . S
C237 C238 1.377 . S
C237 C240 1.481 . S
C238 C237 1.377 . S
C238 C239 1.389 . S
C238 H260 0.929 . S
C239 C235 1.397 . S
C239 C238 1.389 . S
C239 H261 0.931 . S
C240 C237 1.481 . S
C240 C241 1.387 . S
C240 C245 1.390 1_554 S
C241 C240 1.387 . S
C241 C242 1.401 . S
C241 H262 0.930 . S
C242 C241 1.401 . S
C242 C243 1.376 1_554 S
C242 C251 1.511 . S
C243 C242 1.376 1_556 S
C243 C244 1.392 . S
C243 H264 0.931 . S
C244 C243 1.392 . S
C244 C245 1.361 . S
C244 C246 1.500 . S
C245 C240 1.390 1_556 S
C245 C244 1.361 . S
C245 H263 0.931 . S
C246 C244 1.500 . S
C246 C247 1.371 . S
C246 C248 1.365 . S
C247 C246 1.371 . S
C247 C257 1.386 . S
C247 H265 0.931 . S
C248 C246 1.365 . S
C248 C249 1.409 . S
C248 H266 0.929 . S
C249 C248 1.409 . S
C249 C250 1.380 . S
C249 H267 0.930 . S
C250 C249 1.380 . S
C250 C257 1.357 . S
C251 C242 1.511 . S
C251 C252 1.341 . S
C251 C253 1.371 1_554 S
C252 C251 1.341 . S
C252 C256 1.394 . S
C252 H268 0.930 . S
C253 C251 1.371 1_556 S
C253 C254 1.392 1_556 S
C253 H269 0.931 . S
C254 C253 1.392 1_554 S
C254 C255 1.331 . S
C254 H272 0.932 1_554 S
C255 C254 1.331 . S
C255 C256 1.336 . S
C256 C252 1.394 . S
C256 C255 1.336 . S
C256 H271 0.929 . S
C257 C247 1.386 . S
C257 C250 1.357 . S
C257 H270 0.928 . S
H258 C234 0.931 . S
H259 C236 0.930 . S
H260 C238 0.929 . S
H261 C239 0.931 . S
H262 C241 0.930 . S
H263 C245 0.931 . S
H264 C243 0.931 . S
H265 C247 0.931 . S
H266 C248 0.929 . S
H267 C249 0.930 . S
H268 C252 0.930 . S
H269 C253 0.931 . S
H270 C257 0.928 . S
H271 C256 0.929 . S
H272 C254 0.932 1_556 S
C273 C274 1.386 . S
C273 C275 1.397 . S
C273 H297 0.931 . S
C274 C273 1.386 . S
C274 C278 1.397 . S
C275 C273 1.397 . S
C275 C276 1.384 . S
C275 H298 0.930 . S
C276 C275 1.384 . S
C276 C277 1.377 . S
C276 C279 1.481 . S
C277 C276 1.377 . S
C277 C278 1.389 . S
C277 H299 0.929 . S
C278 C274 1.397 . S
C278 C277 1.389 . S
C278 H300 0.931 . S
C279 C276 1.481 . S
C279 C280 1.387 1_556 S
C279 C284 1.390 1_556 S
C280 C279 1.387 1_554 S
C280 C281 1.401 . S
C280 H301 0.930 1_554 S
C281 C280 1.401 . S
C281 C282 1.376 . S
C281 C290 1.511 . S
C282 C281 1.376 . S
C282 C283 1.392 . S
C282 H303 0.931 . S
C283 C282 1.392 . S
C283 C284 1.361 . S
C283 C285 1.500 . S
C284 C279 1.390 1_554 S
C284 C283 1.361 . S
C284 H302 0.931 . S
C285 C283 1.500 . S
C285 C286 1.371 . S
C285 C287 1.365 . S
C286 C285 1.371 . S
C286 C296 1.386 . S
C286 H304 0.931 . S
C287 C285 1.365 . S
C287 C288 1.409 . S
C287 H305 0.929 . S
C288 C287 1.409 . S
C288 C289 1.380 . S
C288 H306 0.930 . S
C289 C288 1.380 . S
C289 C296 1.357 . S
C290 C281 1.511 . S
C290 C291 1.341 . S
C290 C292 1.371 . S
C291 C290 1.341 . S
C291 C295 1.394 . S
C291 H307 0.930 . S
C292 C290 1.371 . S
C292 C293 1.392 . S
C292 H308 0.931 . S
C293 C292 1.392 . S
C293 C294 1.331 . S
C293 H311 0.932 . S
C294 C293 1.331 . S
C294 C295 1.336 . S
C295 C291 1.394 . S
C295 C294 1.336 . S
C295 H310 0.929 . S
C296 C286 1.386 . S
C296 C289 1.357 . S
C296 H309 0.928 . S
H297 C273 0.931 . S
H298 C275 0.930 . S
H299 C277 0.929 . S
H300 C278 0.931 . S
H301 C280 0.930 1_556 S
H302 C284 0.931 . S
H303 C282 0.931 . S
H304 C286 0.931 . S
H305 C287 0.929 . S
H306 C288 0.930 . S
H307 C291 0.930 . S
H308 C292 0.931 . S
H309 C296 0.928 . S
H310 C295 0.929 . S
H311 C293 0.932 . S
Eu312 C321 2.828 . S
Eu312 O323 2.392 . S
Eu312 O325 2.418 1_545 S
Eu312 O330 2.373 1_655 S
Eu312 O333 2.488 . S
Eu312 O334 2.471 . S
Eu312 O335 2.349 1_655 S
Eu313 O322 2.373 1_455 S
Eu313 O326 2.488 . S
Eu313 O327 2.471 . S
Eu313 O328 2.349 . S
Eu313 O331 2.392 1_565 S
Eu313 O332 2.418 1_565 S
Eu313 C342 2.828 . S
C314 O332 1.244 . S
C314 O335 1.265 . S
C315 C316 1.379 1_655 S
C315 C319 1.373 . S
C315 C321 1.505 . S
C316 C315 1.379 1_455 S
C316 C318 1.369 . S
C316 H344 0.930 . S
C317 C319 1.383 . S
C317 C320 1.382 . S
C317 H345 0.930 . S
C318 C316 1.369 . S
C318 C320 1.392 1_455 S
C318 H346 0.930 . S
C319 C315 1.373 . S
C319 C317 1.383 . S
C319 H347 0.931 . S
C320 C317 1.382 . S
C320 C318 1.392 1_655 S
C321 Eu312 2.828 . S
C321 C315 1.505 . S
C321 O333 1.249 . S
C321 O334 1.244 . S
O322 Eu313 2.373 1_655 S
O322 C324 1.262 . S
O323 Eu312 2.392 . S
O323 C324 1.235 1_545 S
C324 O322 1.262 . S
C324 O323 1.235 1_565 S
O325 Eu312 2.418 1_565 S
O325 C329 1.244 . S
O326 Eu313 2.488 . S
O326 C342 1.249 . S
O327 Eu313 2.471 . S
O327 C342 1.244 . S
O328 Eu313 2.349 . S
O328 C329 1.265 1_455 S
C329 O325 1.244 . S
C329 O328 1.265 1_655 S
O330 Eu312 2.373 1_455 S
O330 C343 1.258 . S
O331 Eu313 2.392 1_545 S
O331 C343 1.242 . S
O332 Eu313 2.418 1_545 S
O332 C314 1.244 . S
O333 Eu312 2.488 . S
O333 C321 1.249 . S
O334 Eu312 2.471 . S
O334 C321 1.244 . S
O335 Eu312 2.349 1_455 S
O335 C314 1.265 . S
C336 C337 1.379 . S
C336 C340 1.373 1_556 S
C336 C342 1.505 . S
C337 C336 1.379 . S
C337 C339 1.369 . S
C337 H348 0.930 1_455 S
C338 C340 1.383 . S
C338 C341 1.382 . S
C338 H349 0.930 . S
C339 C337 1.369 . S
C339 C341 1.392 1_556 S
C339 H350 0.930 1_455 S
C340 C336 1.373 1_554 S
C340 C338 1.383 . S
C340 H351 0.931 . S
C341 C338 1.382 . S
C341 C339 1.392 1_554 S
C342 Eu313 2.828 . S
C342 O326 1.249 . S
C342 O327 1.244 . S
C342 C336 1.505 . S
C343 O330 1.258 . S
C343 O331 1.242 . S
H344 C316 0.930 . S
H345 C317 0.930 . S
H346 C318 0.930 . S
H347 C319 0.931 . S
H348 C337 0.930 1_655 S
H349 C338 0.930 . S
H350 C339 0.930 1_655 S
H351 C340 0.931 . S
Eu352 C361 2.828 . S
Eu352 O363 2.392 . S
Eu352 O365 2.418 . S
Eu352 O370 2.373 . S
Eu352 O373 2.488 . S
Eu352 O374 2.471 . S
Eu352 O375 2.349 1_545 S
Eu353 O362 2.373 1_565 S
Eu353 O366 2.488 . S
Eu353 O367 2.471 1_565 S
Eu353 O368 2.349 1_565 S
Eu353 O371 2.392 . S
Eu353 O372 2.418 . S
Eu353 C382 2.828 . S
C354 O372 1.244 . S
C354 O375 1.265 . S
C355 C356 1.379 . S
C355 C359 1.373 . S
C355 C361 1.505 . S
C356 C355 1.379 . S
C356 C358 1.369 . S
C356 H384 0.930 1_545 S
C357 C359 1.383 . S
C357 C360 1.382 . S
C357 H385 0.930 . S
C358 C356 1.369 . S
C358 C360 1.392 . S
C358 H386 0.930 1_545 S
C359 C355 1.373 . S
C359 C357 1.383 . S
C359 H387 0.931 . S
C360 C357 1.382 . S
C360 C358 1.392 . S
C361 Eu352 2.828 . S
C361 C355 1.505 . S
C361 O373 1.249 . S
C361 O374 1.244 . S
O362 Eu353 2.373 1_545 S
O362 C364 1.258 . S
O363 Eu352 2.392 . S
O363 C364 1.242 . S
C364 O362 1.258 . S
C364 O363 1.242 . S
O365 Eu352 2.418 . S
O365 C369 1.244 . S
O366 Eu353 2.488 . S
O366 C382 1.249 . S
O367 Eu353 2.471 1_545 S
O367 C382 1.244 1_545 S
O368 Eu353 2.349 1_545 S
O368 C369 1.265 . S
C369 O365 1.244 . S
C369 O368 1.265 . S
O370 Eu352 2.373 . S
O370 C383 1.258 1_545 S
O371 Eu353 2.392 . S
O371 C383 1.242 . S
O372 Eu353 2.418 . S
O372 C354 1.244 . S
O373 Eu352 2.488 . S
O373 C361 1.249 . S
O374 Eu352 2.471 . S
O374 C361 1.244 . S
O375 Eu352 2.349 1_565 S
O375 C354 1.265 . S
C376 C377 1.379 1_565 S
C376 C380 1.373 . S
C376 C382 1.505 . S
C377 C376 1.379 1_545 S
C377 C379 1.369 . S
C377 H388 0.930 . S
C378 C380 1.383 . S
C378 C381 1.382 . S
C378 H389 0.930 . S
C379 C377 1.369 . S
C379 C381 1.392 1_545 S
C379 H390 0.930 . S
C380 C376 1.373 . S
C380 C378 1.383 . S
C380 H391 0.931 . S
C381 C378 1.382 . S
C381 C379 1.392 1_565 S
C382 Eu353 2.828 . S
C382 O366 1.249 . S
C382 O367 1.244 1_565 S
C382 C376 1.505 . S
C383 O370 1.258 1_565 S
C383 O371 1.242 . S
H384 C356 0.930 1_565 S
H385 C357 0.930 . S
H386 C358 0.930 1_565 S
H387 C359 0.931 . S
H388 C377 0.930 . S
H389 C378 0.930 . S
H390 C379 0.930 . S
H391 C380 0.931 . S
Eu392 C401 2.828 . S
Eu392 O403 2.392 . S
Eu392 O405 2.418 . S
Eu392 O410 2.373 . S
Eu392 O413 2.488 . S
Eu392 O414 2.471 . S
Eu392 O415 2.349 . S
Eu393 O402 2.373 . S
Eu393 O406 2.488 . S
Eu393 O407 2.471 . S
Eu393 O408 2.349 . S
Eu393 O411 2.392 . S
Eu393 O412 2.418 . S
Eu393 C422 2.828 . S
C394 O412 1.244 . S
C394 O415 1.265 . S
C395 C396 1.379 . S
C395 C399 1.373 . S
C395 C401 1.505 . S
C396 C395 1.379 . S
C396 C398 1.369 . S
C396 H424 0.930 . S
C397 C399 1.383 . S
C397 C400 1.382 . S
C397 H425 0.930 . S
C398 C396 1.369 . S
C398 C400 1.392 . S
C398 H426 0.930 . S
C399 C395 1.373 . S
C399 C397 1.383 . S
C399 H427 0.931 . S
C400 C397 1.382 . S
C400 C398 1.392 . S
C401 Eu392 2.828 . S
C401 C395 1.505 . S
C401 O413 1.249 . S
C401 O414 1.244 . S
O402 Eu393 2.373 . S
O402 C404 1.258 . S
O403 Eu392 2.392 . S
O403 C404 1.242 . S
C404 O402 1.258 . S
C404 O403 1.242 . S
O405 Eu392 2.418 . S
O405 C409 1.244 . S
O406 Eu393 2.488 . S
O406 C422 1.249 . S
O407 Eu393 2.471 . S
O407 C422 1.244 . S
O408 Eu393 2.349 . S
O408 C409 1.265 . S
C409 O405 1.244 . S
C409 O408 1.265 . S
O410 Eu392 2.373 . S
O410 C423 1.258 . S
O411 Eu393 2.392 . S
O411 C423 1.242 . S
O412 Eu393 2.418 . S
O412 C394 1.244 . S
O413 Eu392 2.488 . S
O413 C401 1.249 . S
O414 Eu392 2.471 . S
O414 C401 1.244 . S
O415 Eu392 2.349 . S
O415 C394 1.265 . S
C416 C417 1.379 . S
C416 C420 1.373 . S
C416 C422 1.505 . S
C417 C416 1.379 . S
C417 C419 1.369 . S
C417 H428 0.930 . S
C418 C420 1.383 . S
C418 C421 1.382 . S
C418 H429 0.930 . S
C419 C417 1.369 . S
C419 C421 1.392 . S
C419 H430 0.930 . S
C420 C416 1.373 . S
C420 C418 1.383 . S
C420 H431 0.931 . S
C421 C418 1.382 . S
C421 C419 1.392 . S
C422 Eu393 2.828 . S
C422 O406 1.249 . S
C422 O407 1.244 . S
C422 C416 1.505 . S
C423 O410 1.258 . S
C423 O411 1.242 . S
H424 C396 0.930 . S
H425 C397 0.930 . S
H426 C398 0.930 . S
H427 C399 0.931 . S
H428 C417 0.930 . S
H429 C418 0.930 . S
H430 C419 0.930 . S
H431 C420 0.931 . S
Eu432 C441 2.828 . S
Eu432 O443 2.392 . S
Eu432 O445 2.418 1_455 S
Eu432 O450 2.373 . S
Eu432 O453 2.488 . S
Eu432 O454 2.471 . S
Eu432 O455 2.349 . S
Eu433 O442 2.373 . S
Eu433 O446 2.488 . S
Eu433 O447 2.471 . S
Eu433 O448 2.349 . S
Eu433 O451 2.392 1_655 S
Eu433 O452 2.418 1_655 S
Eu433 C462 2.828 . S
C434 O452 1.244 . S
C434 O455 1.265 . S
C435 C436 1.379 . S
C435 C439 1.373 . S
C435 C441 1.505 . S
C436 C435 1.379 . S
C436 C438 1.369 . S
C436 H464 0.930 . S
C437 C439 1.383 . S
C437 C440 1.382 . S
C437 H465 0.930 . S
C438 C436 1.369 . S
C438 C440 1.392 . S
C438 H466 0.930 . S
C439 C435 1.373 . S
C439 C437 1.383 . S
C439 H467 0.931 . S
C440 C437 1.382 . S
C440 C438 1.392 . S
C441 Eu432 2.828 . S
C441 C435 1.505 . S
C441 O453 1.249 . S
C441 O454 1.244 . S
O442 Eu433 2.373 . S
O442 C444 1.258 . S
O443 Eu432 2.392 . S
O443 C444 1.242 1_455 S
C444 O442 1.258 . S
C444 O443 1.242 1_655 S
O445 Eu432 2.418 1_655 S
O445 C449 1.244 . S
O446 Eu433 2.488 . S
O446 C462 1.249 . S
O447 Eu433 2.471 . S
O447 C462 1.244 . S
O448 Eu433 2.349 . S
O448 C449 1.265 . S
C449 O445 1.244 . S
C449 O448 1.265 . S
O450 Eu432 2.373 . S
O450 C463 1.258 . S
O451 Eu433 2.392 1_455 S
O451 C463 1.242 . S
O452 Eu433 2.418 1_455 S
O452 C434 1.244 . S
O453 Eu432 2.488 . S
O453 C441 1.249 . S
O454 Eu432 2.471 . S
O454 C441 1.244 . S
O455 Eu432 2.349 . S
O455 C434 1.265 . S
C456 C457 1.379 . S
C456 C460 1.373 . S
C456 C462 1.505 . S
C457 C456 1.379 . S
C457 C459 1.369 . S
C457 H468 0.930 . S
C458 C460 1.383 1_554 S
C458 C461 1.382 . S
C458 H469 0.930 . S
C459 C457 1.369 . S
C459 C461 1.392 1_556 S
C459 H470 0.930 . S
C460 C456 1.373 . S
C460 C458 1.383 1_556 S
C460 H471 0.931 1_556 S
C461 C458 1.382 . S
C461 C459 1.392 1_554 S
C462 Eu433 2.828 . S
C462 O446 1.249 . S
C462 O447 1.244 . S
C462 C456 1.505 . S
C463 O450 1.258 . S
C463 O451 1.242 . S
H464 C436 0.930 . S
H465 C437 0.930 . S
H466 C438 0.930 . S
H467 C439 0.931 . S
H468 C457 0.930 . S
H469 C458 0.930 . S
H470 C459 0.930 . S
H471 C460 0.931 1_554 S
C472 C473 1.387 . S
C472 H476 0.950 . S
C472 C481 1.390 . S
C473 C472 1.387 . S
C473 C475 1.387 . S
H474 C481 0.951 1_565 S
C475 C473 1.387 . S
C475 C477 1.390 . S
C475 H479 0.950 . S
H476 C472 0.950 . S
C477 C475 1.390 . S
C477 C478 1.387 . S
C477 H480 0.950 . S
C478 C477 1.387 . S
C478 C481 1.387 . S
H479 C475 0.950 . S
H480 C477 0.950 . S
C481 C472 1.390 . S
C481 H474 0.951 1_545 S
C481 C478 1.387 . S
C482 C483 1.387 . S
C482 H486 0.950 . S
C482 C491 1.390 . S
C483 C482 1.387 . S
C483 C485 1.387 . S
H484 C491 0.950 . S
C485 C483 1.387 . S
C485 C487 1.390 . S
C485 H489 0.950 . S
H486 C482 0.950 . S
C487 C485 1.390 . S
C487 C488 1.387 . S
C487 H490 0.950 . S
C488 C487 1.387 . S
C488 C491 1.387 . S
H489 C485 0.950 . S
H490 C487 0.950 . S
C491 C482 1.390 . S
C491 H484 0.950 . S
C491 C488 1.387 . S
C492 C493 1.387 . S
C492 H496 0.950 . S
C492 C501 1.390 . S
C493 C492 1.387 . S
C493 C495 1.387 . S
H494 C501 0.950 . S
C495 C493 1.387 . S
C495 C497 1.390 . S
C495 H499 0.950 . S
H496 C492 0.950 . S
C497 C495 1.390 . S
C497 C498 1.387 . S
C497 H500 0.950 . S
C498 C497 1.387 . S
C498 C501 1.387 . S
H499 C495 0.950 . S
H500 C497 0.950 . S
C501 C492 1.390 . S
C501 H494 0.950 . S
C501 C498 1.387 . S
C502 C503 1.387 . S
C502 H506 0.950 . S
C502 C511 1.390 . S
C503 C502 1.387 . S
C503 C505 1.387 . S
H504 C511 0.950 . S
C505 C503 1.387 . S
C505 C507 1.390 . S
C505 H509 0.950 . S
H506 C502 0.950 . S
C507 C505 1.390 . S
C507 C508 1.387 . S
C507 H510 0.950 . S
C508 C507 1.387 . S
C508 C511 1.387 . S
H509 C505 0.950 . S
H510 C507 0.950 . S
C511 C502 1.390 . S
C511 H504 0.950 . S
C511 C508 1.387 . S
C512 C513 1.387 . S
C512 H516 0.950 . S
C512 C521 1.390 1_554 S
C513 C512 1.387 . S
C513 C515 1.387 . S
H514 C521 0.950 . S
C515 C513 1.387 . S
C515 C517 1.390 1_554 S
C515 H519 0.950 . S
H516 C512 0.950 . S
C517 C515 1.390 1_556 S
C517 C518 1.387 . S
C517 H520 0.950 1_565 S
C518 C517 1.387 . S
C518 C521 1.387 . S
H519 C515 0.950 . S
H520 C517 0.950 1_545 S
C521 C512 1.390 1_556 S
C521 H514 0.950 . S
C521 C518 1.387 . S
C522 C523 1.387 . S
C522 H526 0.950 . S
C522 C531 1.390 1_554 S
C523 C522 1.387 . S
C523 C525 1.387 . S
H524 C531 0.950 . S
C525 C523 1.387 . S
C525 C527 1.390 1_554 S
C525 H529 0.950 . S
H526 C522 0.950 . S
C527 C525 1.390 1_556 S
C527 C528 1.387 . S
C527 H530 0.950 . S
C528 C527 1.387 . S
C528 C531 1.387 . S
H529 C525 0.950 . S
H530 C527 0.950 . S
C531 C522 1.390 1_556 S
C531 H524 0.950 . S
C531 C528 1.387 . S
C532 C533 1.387 . S
C532 H536 0.950 . S
C532 C541 1.390 1_554 S
C533 C532 1.387 . S
C533 C535 1.387 . S
H534 C541 0.950 . S
C535 C533 1.387 . S
C535 C537 1.390 1_554 S
C535 H539 0.950 . S
H536 C532 0.950 . S
C537 C535 1.390 1_556 S
C537 C538 1.387 . S
C537 H540 0.950 . S
C538 C537 1.387 . S
C538 C541 1.387 . S
H539 C535 0.950 . S
H540 C537 0.950 . S
C541 C532 1.390 1_556 S
C541 H534 0.950 . S
C541 C538 1.387 . S
C542 C543 1.387 . S
C542 H546 0.950 . S
C542 C551 1.390 1_554 S
C543 C542 1.387 . S
C543 C545 1.387 . S
H544 C551 0.950 . S
C545 C543 1.387 . S
C545 C547 1.390 1_554 S
C545 H549 0.950 . S
H546 C542 0.950 . S
C547 C545 1.390 1_556 S
C547 C548 1.387 . S
C547 H550 0.950 . S
C548 C547 1.387 . S
C548 C551 1.387 . S
H549 C545 0.950 . S
H550 C547 0.950 . S
C551 C542 1.390 1_556 S
C551 H544 0.950 . S
C551 C548 1.387 . S
C552 C553 1.387 . S
C552 H556 0.950 . S
C552 C561 1.390 . S
C553 C552 1.387 . S
C553 C555 1.387 . S
H554 C561 0.950 1_655 S
C555 C553 1.387 . S
C555 C557 1.390 . S
C555 H559 0.950 . S
H556 C552 0.950 . S
C557 C555 1.390 . S
C557 C558 1.388 . S
C557 H560 0.950 . S
C558 C557 1.388 . S
C558 C561 1.388 . S
H559 C555 0.950 . S
H560 C557 0.950 . S
C561 C552 1.390 . S
C561 H554 0.950 1_455 S
C561 C558 1.388 . S
C562 C563 1.387 . S
C562 H566 0.950 . S
C562 C571 1.390 . S
C563 C562 1.387 . S
C563 C565 1.387 . S
H564 C571 0.950 . S
C565 C563 1.387 . S
C565 C567 1.390 1_545 S
C565 H569 0.950 . S
H566 C562 0.950 . S
C567 C565 1.390 1_565 S
C567 C568 1.387 . S
C567 H570 0.950 . S
C568 C567 1.387 . S
C568 C571 1.387 1_565 S
H569 C565 0.950 . S
H570 C567 0.950 . S
C571 C562 1.390 . S
C571 H564 0.950 . S
C571 C568 1.387 1_545 S
C572 C573 1.387 . S
C572 H576 0.950 . S
C572 C581 1.390 . S
C573 C572 1.387 . S
C573 C575 1.387 . S
H574 C581 0.950 . S
C575 C573 1.387 . S
C575 C577 1.390 . S
C575 H579 0.950 . S
H576 C572 0.950 . S
C577 C575 1.390 . S
C577 C578 1.387 . S
C577 H580 0.950 . S
C578 C577 1.387 . S
C578 C581 1.387 . S
H579 C575 0.950 . S
H580 C577 0.950 . S
C581 C572 1.390 . S
C581 H574 0.950 . S
C581 C578 1.387 . S
C582 C583 1.387 . S
C582 H586 0.950 . S
C582 C591 1.390 . S
C583 C582 1.387 . S
C583 C585 1.387 . S
H584 C591 0.950 . S
C585 C583 1.387 . S
C585 C587 1.390 . S
C585 H589 0.950 . S
H586 C582 0.950 . S
C587 C585 1.390 . S
C587 C588 1.387 . S
C587 H590 0.950 . S
C588 C587 1.387 . S
C588 C591 1.387 . S
H589 C585 0.950 . S
H590 C587 0.950 . S
C591 C582 1.390 . S
C591 H584 0.950 . S
C591 C588 1.387 . S
C592 C593 1.387 . S
C592 H596 0.950 . S
C592 C601 1.403 . S
C593 C592 1.387 . S
C593 C595 1.392 . S
H594 C601 0.946 1_455 S
C595 C593 1.392 . S
C595 C597 1.391 1_655 S
C595 H599 0.944 1_554 S
H596 C592 0.950 . S
C597 C595 1.391 1_455 S
C597 C598 1.387 . S
C597 H600 0.950 1_554 S
C598 C597 1.387 . S
C598 C601 1.378 1_455 S
H599 C595 0.944 1_556 S
H600 C597 0.950 1_556 S
C601 C592 1.403 . S
C601 H594 0.946 1_655 S
C601 C598 1.378 1_655 S
C602 C603 1.387 1_545 S
C602 H606 0.950 . S
C602 C611 1.390 . S
C603 C602 1.387 1_565 S
C603 C605 1.387 . S
H604 C611 0.950 . S
C605 C603 1.387 . S
C605 C607 1.390 1_554 S
C605 H609 0.950 . S
H606 C602 0.950 . S
C607 C605 1.390 1_556 S
C607 C608 1.387 1_565 S
C607 H610 0.950 . S
C608 C607 1.387 1_545 S
C608 C611 1.387 1_556 S
H609 C605 0.950 . S
H610 C607 0.950 . S
C611 C602 1.390 . S
C611 H604 0.950 . S
C611 C608 1.387 1_554 S
C612 C613 1.387 1_556 S
C612 H616 0.950 . S
C612 C621 1.390 . S
C613 C612 1.387 1_554 S
C613 C615 1.387 . S
H614 C621 0.950 . S
C615 C613 1.387 . S
C615 C617 1.390 1_554 S
C615 H619 0.950 . S
H616 C612 0.950 . S
C617 C615 1.390 1_556 S
C617 C618 1.387 . S
C617 H620 0.950 1_556 S
C618 C617 1.387 . S
C618 C621 1.387 . S
H619 C615 0.950 . S
H620 C617 0.950 1_554 S
C621 C612 1.390 . S
C621 H614 0.950 . S
C621 C618 1.387 . S
C622 C623 1.387 . S
C622 H626 0.950 . S
C622 C631 1.390 . S
C623 C622 1.387 . S
C623 C625 1.387 1_554 S
H624 C631 0.950 . S
C625 C623 1.387 1_556 S
C625 C627 1.390 . S
C625 H629 0.950 . S
H626 C622 0.950 . S
C627 C625 1.390 . S
C627 C628 1.387 1_556 S
C627 H630 0.950 . S
C628 C627 1.387 1_554 S
C628 C631 1.387 . S
H629 C625 0.950 . S
H630 C627 0.950 . S
C631 C622 1.390 . S
C631 H624 0.950 . S
C631 C628 1.387 . S
C632 C633 1.387 . S
C632 H636 0.950 . S
C632 C641 1.390 . S
C633 C632 1.387 . S
C633 C635 1.387 . S
H634 C641 0.950 . S
C635 C633 1.387 . S
C635 C637 1.390 . S
C635 H639 0.950 . S
H636 C632 0.950 . S
C637 C635 1.390 . S
C637 C638 1.387 . S
C637 H640 0.950 . S
C638 C637 1.387 . S
C638 C641 1.387 . S
H639 C635 0.950 . S
H640 C637 0.950 . S
C641 C632 1.390 . S
C641 H634 0.950 . S
C641 C638 1.387 . S
C642 C643 1.387 . S
C642 H646 0.950 1_545 S
C642 C651 1.390 . S
C643 C642 1.387 . S
C643 C645 1.387 . S
H644 C651 0.950 1_565 S
C645 C643 1.387 . S
C645 C647 1.390 . S
C645 H649 0.950 . S
H646 C642 0.950 1_565 S
C647 C645 1.390 . S
C647 C648 1.387 . S
C647 H650 0.950 . S
C648 C647 1.387 . S
C648 C651 1.387 . S
H649 C645 0.950 . S
H650 C647 0.950 . S
C651 C642 1.390 . S
C651 H644 0.950 1_545 S
C651 C648 1.387 . S
C652 C653 1.387 . S
C652 H656 0.950 . S
C652 C661 1.390 . S
C653 C652 1.387 . S
C653 C655 1.387 . S
H654 C661 0.950 . S
C655 C653 1.387 . S
C655 C657 1.390 . S
C655 H659 0.950 . S
H656 C652 0.950 . S
C657 C655 1.390 . S
C657 C658 1.387 . S
C657 H660 0.950 . S
C658 C657 1.387 . S
C658 C661 1.387 . S
H659 C655 0.950 . S
H660 C657 0.950 . S
C661 C652 1.390 . S
C661 H654 0.950 . S
C661 C658 1.387 . S
C662 C663 1.387 . S
C662 H666 0.950 . S
C662 C671 1.390 . S
C663 C662 1.387 . S
C663 C665 1.387 . S
H664 C671 0.950 . S
C665 C663 1.387 . S
C665 C667 1.390 . S
C665 H669 0.950 . S
H666 C662 0.950 . S
C667 C665 1.390 . S
C667 C668 1.387 . S
C667 H670 0.950 . S
C668 C667 1.387 . S
C668 C671 1.387 . S
H669 C665 0.950 . S
H670 C667 0.950 . S
C671 C662 1.390 . S
C671 H664 0.950 . S
C671 C668 1.387 . S
C672 C673 1.387 . S
C672 H676 0.956 . S
C672 C681 1.390 . S
C673 C672 1.387 . S
C673 C675 1.387 . S
H674 C681 0.950 1_455 S
C675 C673 1.387 . S
C675 C677 1.390 . S
C675 H679 0.950 . S
H676 C672 0.956 . S
C677 C675 1.390 . S
C677 C678 1.387 . S
C677 H680 0.950 . S
C678 C677 1.387 . S
C678 C681 1.387 . S
H679 C675 0.950 . S
H680 C677 0.950 . S
C681 C672 1.390 . S
C681 H674 0.950 1_655 S
C681 C678 1.387 . S
C682 C683 1.387 . S
C682 H686 0.950 . S
C682 C691 1.390 . S
C683 C682 1.387 . S
C683 C685 1.387 . S
H684 C691 0.950 . S
C685 C683 1.387 . S
C685 C687 1.390 . S
C685 H689 0.950 1_565 S
H686 C682 0.950 . S
C687 C685 1.390 . S
C687 C688 1.387 . S
C687 H690 0.950 1_565 S
C688 C687 1.387 . S
C688 C691 1.387 . S
H689 C685 0.950 1_545 S
H690 C687 0.950 1_545 S
C691 C682 1.390 . S
C691 H684 0.950 . S
C691 C688 1.387 . S
C692 C693 1.387 . S
C692 H696 0.950 . S
C692 C701 1.390 . S
C693 C692 1.387 . S
C693 C695 1.387 . S
H694 C701 0.950 . S
C695 C693 1.387 . S
C695 C697 1.390 . S
C695 H699 0.950 . S
H696 C692 0.950 . S
C697 C695 1.390 . S
C697 C698 1.387 . S
C697 H700 0.950 . S
C698 C697 1.387 . S
C698 C701 1.387 . S
H699 C695 0.950 . S
H700 C697 0.950 . S
C701 C692 1.390 . S
C701 H694 0.950 . S
C701 C698 1.387 . S
C702 C703 1.387 . S
C702 H706 0.950 . S
C702 C711 1.390 . S
C703 C702 1.387 . S
C703 C705 1.387 . S
H704 C711 0.950 . S
C705 C703 1.387 . S
C705 C707 1.390 . S
C705 H709 0.950 . S
H706 C702 0.950 . S
C707 C705 1.390 . S
C707 C708 1.387 . S
C707 H710 0.950 . S
C708 C707 1.387 . S
C708 C711 1.387 . S
H709 C705 0.950 . S
H710 C707 0.950 . S
C711 C702 1.390 . S
C711 H704 0.950 . S
C711 C708 1.387 . S
C473 C255 3.014 . S
C478 C343 3.288 . S
C488 C369 2.959 . S
C483 C294 2.565 . S
C498 C409 2.831 . S
C493 C177 2.507 . S
C508 C463 3.184 . S
C503 C216 2.936 . S
C518 C324 3.291 . S
C513 C99 3.022 . S
C523 C138 2.574 . S
C528 C354 2.960 . S
C533 C21 2.516 . S
C538 C394 2.833 . S
C543 C60 2.946 . S
C548 C444 3.185 . S
C558 C320 0.873 1_455 S
C553 C196 0.857 . S
C568 C381 0.958 . S
C563 C235 0.962 . S
C578 C421 0.614 . S
C573 C289 0.590 . S
C583 C157 0.760 . S
C588 C440 0.760 . S
C593 C40 0.866 . S
C598 C341 0.874 . S
C608 C360 0.958 . S
C603 C79 0.969 . S
C618 C400 0.616 . S
C613 C133 0.587 . S
C623 C1 0.760 . S
C628 C461 0.760 . S
C633 C211 2.905 . S
C638 C314 3.423 . S
C643 C250 3.360 . S
C648 C364 3.818 . S
C658 C404 3.589 . S
C653 C274 3.159 . S
C668 C434 3.149 . S
C663 C172 2.660 . S
C673 C55 2.905 . S
C678 C329 3.423 . S
C688 C383 3.818 . S
C683 C94 3.360 . S
C698 C423 3.588 . S
C693 C118 3.164 . S
C703 C16 2.662 . S
C708 C449 3.150 . S
