# Generated by pormake.
# Topology pyr, (3,6)-cn, num edge types: 1
# Building blocks:
#     Node 0, Type 0, BuildingBlock: BELTOD_clean_linker_0, # of connection points: 3
#     Node 1, Type 0, BuildingBlock: BELTOD_clean_linker_0, # of connection points: 3
#     Node 2, Type 0, BuildingBlock: BELTOD_clean_linker_0, # of connection points: 3
#     Node 3, Type 0, BuildingBlock: BELTOD_clean_linker_0, # of connection points: 3
#     Node 4, Type 0, BuildingBlock: BELTOD_clean_linker_0, # of connection points: 3
#     Node 5, Type 0, BuildingBlock: BELTOD_clean_linker_0, # of connection points: 3
#     Node 6, Type 0, BuildingBlock: BELTOD_clean_linker_0, # of connection points: 3
#     Node 7, Type 0, BuildingBlock: BELTOD_clean_linker_0, # of connection points: 3
#     Node 8, Type 1, BuildingBlock: MIFKUJ_clean_sbu_0, # of connection points: 6
#     Node 9, Type 1, BuildingBlock: MIFKUJ_clean_sbu_0, # of connection points: 6
#     Node 10, Type 1, BuildingBlock: MIFKUJ_clean_sbu_0, # of connection points: 6
#     Node 11, Type 1, BuildingBlock: MIFKUJ_clean_sbu_0, # of connection points: 6
#     Edge 12, Type (0, 1), BuildingBlock: AJUNOK_clean_linker_0, # of connection points: 2
#     Edge 13, Type (0, 1), BuildingBlock: AJUNOK_clean_linker_0, # of connection points: 2
#     Edge 14, Type (0, 1), BuildingBlock: AJUNOK_clean_linker_0, # of connection points: 2
#     Edge 15, Type (0, 1), BuildingBlock: AJUNOK_clean_linker_0, # of connection points: 2
#     Edge 16, Type (0, 1), BuildingBlock: AJUNOK_clean_linker_0, # of connection points: 2
#     Edge 17, Type (0, 1), BuildingBlock: AJUNOK_clean_linker_0, # of connection points: 2
#     Edge 18, Type (0, 1), BuildingBlock: AJUNOK_clean_linker_0, # of connection points: 2
#     Edge 19, Type (0, 1), BuildingBlock: AJUNOK_clean_linker_0, # of connection points: 2
#     Edge 20, Type (0, 1), BuildingBlock: AJUNOK_clean_linker_0, # of connection points: 2
#     Edge 21, Type (0, 1), BuildingBlock: AJUNOK_clean_linker_0, # of connection points: 2
#     Edge 22, Type (0, 1), BuildingBlock: AJUNOK_clean_linker_0, # of connection points: 2
#     Edge 23, Type (0, 1), BuildingBlock: AJUNOK_clean_linker_0, # of connection points: 2
#     Edge 24, Type (0, 1), BuildingBlock: AJUNOK_clean_linker_0, # of connection points: 2
#     Edge 25, Type (0, 1), BuildingBlock: AJUNOK_clean_linker_0, # of connection points: 2
#     Edge 26, Type (0, 1), BuildingBlock: AJUNOK_clean_linker_0, # of connection points: 2
#     Edge 27, Type (0, 1), BuildingBlock: AJUNOK_clean_linker_0, # of connection points: 2
#     Edge 28, Type (0, 1), BuildingBlock: AJUNOK_clean_linker_0, # of connection points: 2
#     Edge 29, Type (0, 1), BuildingBlock: AJUNOK_clean_linker_0, # of connection points: 2
#     Edge 30, Type (0, 1), BuildingBlock: AJUNOK_clean_linker_0, # of connection points: 2
#     Edge 31, Type (0, 1), BuildingBlock: AJUNOK_clean_linker_0, # of connection points: 2
#     Edge 32, Type (0, 1), BuildingBlock: AJUNOK_clean_linker_0, # of connection points: 2
#     Edge 33, Type (0, 1), BuildingBlock: AJUNOK_clean_linker_0, # of connection points: 2
#     Edge 34, Type (0, 1), BuildingBlock: AJUNOK_clean_linker_0, # of connection points: 2
#     Edge 35, Type (0, 1), BuildingBlock: AJUNOK_clean_linker_0, # of connection points: 2
# Relax obj value: 0.036
# Max RMSD: 0.090
# Mean RMSD: 0.054
data_MOF--net-pyr--node1-MIFKUJ_clean_sbu_0--node2-BELTOD_clean_linker_0--edge1-AJUNOK_clean_linker_0
_symmetry_space_group_name_H-M    P1
_symmetry_Int_Tables_number       1
_symmetry_cell_setting            triclinic
loop_
_symmetry_equiv_pos_as_xyz
'x, y, z'
_cell_length_a     35.055789
_cell_length_b     31.662
_cell_length_c     33.034176
_cell_angle_alpha  85.242293
_cell_angle_beta   87.498611
_cell_angle_gamma 96.922103
loop_
_atom_site_label
_atom_site_type_symbol
_atom_site_fract_x
_atom_site_fract_y
_atom_site_fract_z
_atom_type_partial_charge
P0 P 0.24171 0.22926 0.26293 0.0
H1 H 0.26765 0.23933 0.17617 0.0
H2 H 0.30643 0.19806 0.13515 0.0
H3 H 0.3248 0.11742 0.24281 0.0
H4 H 0.28429 0.15757 0.28339 0.0
H5 H 0.22135 0.31639 0.26165 0.0
H6 H 0.17936 0.35552 0.2192 0.0
H7 H 0.1503 0.24372 0.15499 0.0
H8 H 0.1921 0.20449 0.19779 0.0
H9 H 0.21448 0.23345 0.34743 0.0
H10 H 0.20031 0.14513 0.25501 0.0
O11 O 0.2698 0.26309 0.28827 0.0
H12 H 0.16829 0.18567 0.39322 0.0
H13 H 0.15471 0.09708 0.30074 0.0
C14 C 0.27208 0.20066 0.23264 0.0
C15 C 0.27959 0.21249 0.19093 0.0
C16 C 0.30227 0.18922 0.16756 0.0
C17 C 0.31874 0.1545 0.18576 0.0
C18 C 0.31206 0.14362 0.22782 0.0
C19 C 0.28905 0.16663 0.25105 0.0
C20 C 0.21049 0.2579 0.23217 0.0
C21 C 0.20593 0.30025 0.23851 0.0
C22 C 0.18168 0.32244 0.21454 0.0
C23 C 0.16158 0.30249 0.18399 0.0
C24 C 0.1656 0.25976 0.1783 0.0
C25 C 0.1895 0.23746 0.2026 0.0
C26 C 0.21128 0.19237 0.29818 0.0
C27 C 0.20207 0.20337 0.33734 0.0
C28 C 0.17586 0.17602 0.36351 0.0
C29 C 0.15832 0.13749 0.35063 0.0
C30 C 0.16792 0.12653 0.31144 0.0
C31 C 0.19405 0.15386 0.28538 0.0
P32 P 0.38506 0.89925 0.6531 0.0
H33 H 0.45348 0.93793 0.68917 0.0
H34 H 0.47033 0.94624 0.75926 0.0
H35 H 0.3597 0.879 0.80261 0.0
H36 H 0.34299 0.87047 0.73193 0.0
H37 H 0.41481 0.8787 0.57447 0.0
H38 H 0.43124 0.81255 0.5489 0.0
H39 H 0.40119 0.74572 0.66735 0.0
H40 H 0.38478 0.81231 0.69301 0.0
H41 H 0.33112 0.95299 0.68553 0.0
H42 H 0.32979 0.85719 0.59987 0.0
O43 O 0.41037 0.94011 0.62479 0.0
H44 H 0.26637 0.96637 0.66751 0.0
H45 H 0.26505 0.8703 0.58201 0.0
C46 C 0.39672 0.90427 0.70532 0.0
C47 C 0.43271 0.92511 0.71367 0.0
C48 C 0.4423 0.92993 0.75375 0.0
C49 C 0.41628 0.91349 0.78642 0.0
C50 C 0.38042 0.89181 0.77806 0.0
C51 C 0.37076 0.88713 0.73774 0.0
C52 C 0.3991 0.85057 0.63578 0.0
C53 C 0.41209 0.84997 0.59512 0.0
C54 C 0.4212 0.81211 0.58043 0.0
C55 C 0.41725 0.77403 0.60611 0.0
C56 C 0.40464 0.77473 0.64702 0.0
C57 C 0.39527 0.8127 0.66166 0.0
C58 C 0.33508 0.90348 0.64476 0.0
C59 C 0.31662 0.93417 0.66353 0.0
C60 C 0.27969 0.94192 0.65308 0.0
C61 C 0.26081 0.91962 0.62309 0.0
C62 C 0.27912 0.88839 0.60479 0.0
C63 C 0.31601 0.88055 0.61538 0.0
P64 P 0.67786 0.3097 0.77467 0.0
H65 H 0.72787 0.28055 0.83592 0.0
H66 H 0.77901 0.31757 0.87281 0.0
H67 H 0.75511 0.43848 0.81553 0.0
H68 H 0.70427 0.40136 0.77845 0.0
H69 H 0.64368 0.22262 0.7652 0.0
H70 H 0.60465 0.16833 0.8116 0.0
H71 H 0.60202 0.25872 0.9023 0.0
H72 H 0.64111 0.31311 0.85564 0.0
H73 H 0.69713 0.35866 0.69655 0.0
H74 H 0.60157 0.33885 0.78566 0.0
O75 O 0.70269 0.28293 0.74343 0.0
H76 H 0.66059 0.40223 0.65165 0.0
H77 H 0.56505 0.38272 0.74097 0.0
C78 C 0.71214 0.33819 0.80469 0.0
C79 C 0.73326 0.31509 0.83181 0.0
C80 C 0.76229 0.33625 0.85302 0.0
C81 C 0.77075 0.3809 0.84727 0.0
C82 C 0.74912 0.40402 0.82049 0.0
C83 C 0.72001 0.38282 0.79936 0.0
C84 C 0.64586 0.27153 0.80736 0.0
C85 C 0.63449 0.23089 0.79493 0.0
C86 C 0.61217 0.19995 0.82138 0.0
C87 C 0.60042 0.2094 0.86047 0.0
C88 C 0.61039 0.25079 0.87218 0.0
C89 C 0.63294 0.28169 0.84572 0.0
C90 C 0.65168 0.34466 0.74391 0.0
C91 C 0.66836 0.36387 0.70652 0.0
C92 C 0.64761 0.38899 0.68104 0.0
C93 C 0.60982 0.39528 0.69263 0.0
C94 C 0.59387 0.37765 0.73101 0.0
C95 C 0.61473 0.35262 0.75655 0.0
P96 P 0.81068 0.67097 0.27177 0.0
H97 H 0.86785 0.74505 0.25153 0.0
H98 H 0.9038 0.79491 0.29303 0.0
H99 H 0.85416 0.71991 0.40199 0.0
H100 H 0.81944 0.66942 0.36037 0.0
H101 H 0.78577 0.60645 0.21771 0.0
H102 H 0.8206 0.56463 0.1729 0.0
H103 H 0.92825 0.61994 0.21626 0.0
H104 H 0.89325 0.66058 0.26183 0.0
H105 H 0.7395 0.69661 0.30463 0.0
H106 H 0.79454 0.5818 0.30758 0.0
O107 O 0.79263 0.7038 0.23756 0.0
H108 H 0.68349 0.6574 0.34402 0.0
H109 H 0.73858 0.54246 0.34699 0.0
C110 C 0.84068 0.70384 0.30282 0.0
C111 C 0.86523 0.73899 0.28435 0.0
C112 C 0.88563 0.76751 0.30809 0.0
C113 C 0.8818 0.7614 0.3508 0.0
C114 C 0.85825 0.72517 0.3692 0.0
C115 C 0.83805 0.69646 0.34537 0.0
C116 C 0.8368 0.63632 0.24342 0.0
C117 C 0.81683 0.60887 0.21818 0.0
C118 C 0.83677 0.58521 0.19241 0.0
C119 C 0.87719 0.58872 0.19119 0.0
C120 C 0.8971 0.61575 0.21709 0.0
C121 C 0.87707 0.6393 0.24302 0.0
C122 C 0.77058 0.64178 0.30216 0.0
C123 C 0.73947 0.66294 0.31371 0.0
C124 C 0.70767 0.64066 0.33645 0.0
C125 C 0.70652 0.59681 0.34798 0.0
C126 C 0.73846 0.57608 0.33777 0.0
C127 C 0.77037 0.59848 0.31521 0.0
P128 P 0.84287 0.86648 0.83023 0.0
H129 H 0.79398 0.83164 0.90203 0.0
H130 H 0.73068 0.84568 0.92736 0.0
H131 H 0.7223 0.93023 0.81942 0.0
H132 H 0.78435 0.91415 0.79318 0.0
H133 H 0.91334 0.84073 0.86322 0.0
H134 H 0.93079 0.77172 0.89027 0.0
H135 H 0.81972 0.71033 0.8615 0.0
H136 H 0.80218 0.77961 0.83499 0.0
H137 H 0.8546 0.94469 0.7763 0.0
H138 H 0.85217 0.80958 0.7649 0.0
O139 O 0.8703 0.90405 0.85202 0.0
H140 H 0.8757 0.95975 0.70451 0.0
H141 H 0.87437 0.82477 0.69329 0.0
C142 C 0.79375 0.8712 0.84534 0.0
C143 C 0.77807 0.85222 0.88324 0.0
C144 C 0.74213 0.86081 0.89802 0.0
C145 C 0.72184 0.88968 0.87571 0.0
C146 C 0.73714 0.90766 0.83722 0.0
C147 C 0.7728 0.89854 0.82222 0.0
C148 C 0.85606 0.81533 0.84829 0.0
C149 C 0.89268 0.81246 0.86289 0.0
C150 C 0.90274 0.77303 0.87804 0.0
C151 C 0.87634 0.7359 0.87862 0.0
C152 C 0.84024 0.73866 0.86231 0.0
C153 C 0.83022 0.77811 0.84715 0.0
C154 C 0.85231 0.87612 0.77609 0.0
C155 C 0.85783 0.91823 0.75816 0.0
C156 C 0.8695 0.9268 0.71709 0.0
C157 C 0.87629 0.89333 0.69347 0.0
C158 C 0.86895 0.851 0.71093 0.0
C159 C 0.85659 0.8424 0.75192 0.0
P160 P 0.7076 0.21325 0.29865 0.0
H161 H 0.72671 0.27817 0.35394 0.0
H162 H 0.68775 0.31677 0.39774 0.0
H163 H 0.58466 0.24221 0.3636 0.0
H164 H 0.6238 0.20399 0.31929 0.0
H165 H 0.77589 0.17701 0.27309 0.0
H166 H 0.82205 0.13909 0.31053 0.0
H167 H 0.75063 0.13545 0.42089 0.0
H168 H 0.70426 0.17319 0.38316 0.0
H169 H 0.68296 0.24487 0.22042 0.0
H170 H 0.66773 0.12583 0.29619 0.0
O171 O 0.73797 0.25222 0.27341 0.0
H172 H 0.64037 0.21336 0.1716 0.0
H173 H 0.624 0.09408 0.24737 0.0
C174 C 0.67819 0.23849 0.33315 0.0
C175 C 0.69574 0.26989 0.35611 0.0
C176 C 0.67347 0.2917 0.38136 0.0
C177 C 0.63316 0.28221 0.38438 0.0
C178 C 0.61565 0.2502 0.36178 0.0
C179 C 0.63803 0.22831 0.33652 0.0
C180 C 0.7369 0.17831 0.32538 0.0
C181 C 0.76981 0.16742 0.30519 0.0
C182 C 0.79624 0.14598 0.32664 0.0
C183 C 0.79007 0.13465 0.36867 0.0
C184 C 0.75601 0.14359 0.38848 0.0
C185 C 0.72957 0.16528 0.36694 0.0
C186 C 0.6789 0.18752 0.26162 0.0
C187 C 0.67072 0.21175 0.22636 0.0
C188 C 0.64607 0.19383 0.19864 0.0
C189 C 0.62846 0.15144 0.20596 0.0
C190 C 0.63726 0.1268 0.24097 0.0
C191 C 0.66216 0.14486 0.2688 0.0
P192 P 0.37564 0.63365 0.16543 0.0
H193 H 0.33879 0.63088 0.08877 0.0
H194 H 0.27236 0.61258 0.071 0.0
H195 H 0.2381 0.58261 0.19844 0.0
H196 H 0.30428 0.60341 0.21606 0.0
H197 H 0.44228 0.68901 0.18783 0.0
H198 H 0.46587 0.76418 0.16848 0.0
H199 H 0.36255 0.77825 0.10478 0.0
H200 H 0.33833 0.704 0.12565 0.0
H201 H 0.41361 0.56113 0.19608 0.0
H202 H 0.35969 0.66215 0.24604 0.0
O203 O 0.40355 0.61252 0.13234 0.0
H204 H 0.43195 0.53702 0.26373 0.0
H205 H 0.37661 0.63702 0.31442 0.0
C206 C 0.32649 0.61846 0.15367 0.0
C207 C 0.3169 0.62057 0.11289 0.0
C208 C 0.27893 0.61004 0.10278 0.0
C209 C 0.24979 0.59652 0.13329 0.0
C210 C 0.2596 0.59406 0.17423 0.0
C211 C 0.2976 0.6054 0.18436 0.0
C212 C 0.38862 0.69066 0.15814 0.0
C213 C 0.42428 0.70853 0.17055 0.0
C214 C 0.4379 0.75135 0.15913 0.0
C215 C 0.41639 0.77677 0.13434 0.0
C216 C 0.37976 0.75942 0.12383 0.0
C217 C 0.366 0.7167 0.1356 0.0
C218 C 0.38585 0.61385 0.21602 0.0
C219 C 0.40545 0.57796 0.22169 0.0
C220 C 0.41573 0.56402 0.26046 0.0
C221 C 0.40629 0.5855 0.29439 0.0
C222 C 0.38524 0.62051 0.28877 0.0
C223 C 0.37527 0.63468 0.24982 0.0
P224 P 0.19475 0.31797 0.74842 0.0
H225 H 0.21104 0.23853 0.71774 0.0
H226 H 0.1776 0.19049 0.67322 0.0
H227 H 0.08613 0.27037 0.66541 0.0
H228 H 0.12053 0.31926 0.70944 0.0
H229 H 0.24536 0.39296 0.76713 0.0
H230 H 0.29934 0.43709 0.72873 0.0
H231 H 0.2772 0.36563 0.62461 0.0
H232 H 0.22285 0.32272 0.66246 0.0
H233 H 0.15763 0.29329 0.82869 0.0
H234 H 0.16281 0.40011 0.73791 0.0
O235 O 0.21991 0.28887 0.7793 0.0
H236 H 0.11872 0.32968 0.87457 0.0
H237 H 0.12385 0.43699 0.78404 0.0
C238 C 0.16788 0.28195 0.71756 0.0
C239 C 0.18362 0.24557 0.70679 0.0
C240 C 0.16449 0.21815 0.68128 0.0
C241 C 0.1292 0.22658 0.66581 0.0
C242 C 0.1135 0.26329 0.67645 0.0
C243 C 0.13289 0.29097 0.70195 0.0
C244 C 0.22959 0.355 0.71758 0.0
C245 C 0.25151 0.38758 0.73568 0.0
C246 C 0.28254 0.4125 0.71383 0.0
C247 C 0.2924 0.40502 0.67353 0.0
C248 C 0.26986 0.37286 0.65525 0.0
C249 C 0.23876 0.3481 0.67707 0.0
C250 C 0.16368 0.34435 0.78023 0.0
C251 C 0.15033 0.32459 0.8186 0.0
C252 C 0.12815 0.34543 0.84483 0.0
C253 C 0.11841 0.38624 0.83298 0.0
C254 C 0.1307 0.40543 0.79388 0.0
C255 C 0.15312 0.38453 0.76762 0.0
Zn256 Zn 0.05546 0.01007 0.54063 0.0
Zn257 Zn 0.95768 0.98739 0.46365 0.0
C258 C 0.06357 0.10252 0.55893 0.0
O259 O 0.0499 0.11282 0.52356 0.0
C260 C 0.94583 0.89562 0.44837 0.0
O261 O 0.96109 0.88777 0.4834 0.0
O262 O 0.10338 0.98026 0.54368 0.0
O263 O 0.01189 0.97334 0.57228 0.0
O264 O 0.97243 0.97283 0.52191 0.0
C265 C 0.11249 0.97106 0.57997 0.0
O266 O 0.08941 0.97911 0.61004 0.0
O267 O 0.06688 0.06364 0.56937 0.0
C268 C 0.91556 0.05961 0.44564 0.0
O269 O 0.95049 0.07987 0.43863 0.0
O270 O 0.91162 0.02059 0.45967 0.0
O271 O 0.00327 0.0214 0.43078 0.0
O272 O 0.03593 0.01934 0.48503 0.0
O273 O 0.94265 0.93401 0.43575 0.0
C274 C 0.97901 0.96227 0.55878 0.0
C275 C 0.03443 0.03182 0.44778 0.0
Zn276 Zn 0.53149 0.98411 0.99454 0.0
Zn277 Zn 0.47508 0.03526 0.04141 0.0
C278 C 0.47769 0.93718 0.94502 0.0
O279 O 0.48813 0.90427 0.96676 0.0
C280 C 0.52309 0.08795 0.08676 0.0
O281 O 0.50481 0.11517 0.06534 0.0
O282 O 0.57661 0.95638 0.97502 0.0
O283 O 0.55075 0.04619 0.99201 0.0
O284 O 0.49301 0.06522 0.98594 0.0
C285 C 0.58442 0.95455 0.93733 0.0
O286 O 0.56225 0.9707 0.91061 0.0
O287 O 0.49082 0.97461 0.95314 0.0
C288 C 0.41396 0.05205 0.09578 0.0
O289 O 0.42066 0.01546 0.11412 0.0
O290 O 0.43223 0.06583 0.06232 0.0
O291 O 0.45579 0.97179 0.04775 0.0
O292 O 0.51419 0.95363 0.04868 0.0
O293 O 0.51709 0.04862 0.08058 0.0
C294 C 0.529 0.07198 0.97709 0.0
C295 C 0.47849 0.94479 0.05784 0.0
Zn296 Zn 0.50928 0.4654 0.48438 0.0
Zn297 Zn 0.4862 0.54143 0.53152 0.0
C298 C 0.56487 0.50573 0.42691 0.0
O299 O 0.54105 0.48251 0.40554 0.0
C300 C 0.43264 0.49703 0.59207 0.0
O301 O 0.45936 0.51321 0.61504 0.0
O302 O 0.52104 0.41063 0.46154 0.0
O303 O 0.50597 0.45295 0.54507 0.0
O304 O 0.53193 0.5172 0.55627 0.0
C305 C 0.55108 0.39641 0.47464 0.0
O306 O 0.5692 0.4159 0.50316 0.0
O307 O 0.55661 0.50667 0.46472 0.0
C308 C 0.45145 0.61543 0.54276 0.0
O309 O 0.42809 0.59568 0.51841 0.0
O310 O 0.4808 0.59823 0.55363 0.0
O311 O 0.48433 0.55205 0.47028 0.0
O312 O 0.4637 0.48627 0.45789 0.0
O313 O 0.43788 0.50361 0.5536 0.0
C314 C 0.52672 0.47719 0.56628 0.0
C315 C 0.46575 0.52627 0.4485 0.0
Zn316 Zn 0.95531 0.5051 0.97152 0.0
Zn317 Zn 0.0427 0.47927 0.0488 0.0
C318 C 0.90393 0.46849 0.91832 0.0
O319 O 0.92952 0.49269 0.89356 0.0
C320 C 0.09498 0.53411 0.09105 0.0
O321 O 0.06788 0.52457 0.12023 0.0
O322 O 0.94942 0.56302 0.9439 0.0
O323 O 0.95124 0.5127 0.03163 0.0
O324 O 0.99634 0.50066 0.07456 0.0
C325 C 0.91695 0.57508 0.95263 0.0
O326 O 0.89249 0.54978 0.97769 0.0
O327 O 0.90873 0.46699 0.95633 0.0
C328 C 0.08429 0.41214 0.07422 0.0
O329 O 0.10505 0.4289 0.04146 0.0
O330 O 0.0532 0.42697 0.0832 0.0
O331 O 0.04467 0.46655 0.98981 0.0
O332 O 0.00083 0.48139 0.94623 0.0
O333 O 0.08949 0.52049 0.05639 0.0
C334 C 0.96362 0.51205 0.06726 0.0
C335 C 0.03218 0.46688 0.95422 0.0
C336 C 0.09247 0.0975 0.35995 0.0
C337 C 0.12782 0.11021 0.37651 0.0
C338 C 0.06275 0.07214 0.38332 0.0
C339 C 0.06712 0.05826 0.42429 0.0
H340 H 0.08751 0.10772 0.3287 0.0
H341 H 0.03603 0.06358 0.36901 0.0
S342 S 0.15485 0.08175 0.48168 0.0
N343 N 0.16615 0.10649 0.43595 0.0
N344 N 0.11019 0.05862 0.48017 0.0
C345 C 0.10251 0.07055 0.44123 0.0
C346 C 0.13284 0.09663 0.41731 0.0
C347 C 0.4424 0.95987 0.8392 0.0
C348 C 0.42721 0.91923 0.82885 0.0
C349 C 0.45677 0.96568 0.87758 0.0
C350 C 0.45696 0.93098 0.90714 0.0
H351 H 0.44392 0.98736 0.81708 0.0
H352 H 0.4692 -0.00254 0.88342 0.0
S353 S 0.41799 0.81833 0.89607 0.0
N354 N 0.41134 0.84404 0.85188 0.0
N355 N 0.43823 0.85476 0.92408 0.0
C356 C 0.44035 0.8904 0.89774 0.0
C357 C 0.42548 0.88458 0.85864 0.0
C358 C 0.60118 0.45796 0.64367 0.0
C359 C 0.58652 0.41781 0.66344 0.0
C360 C 0.58092 0.47797 0.61338 0.0
C361 C 0.54565 0.45812 0.60132 0.0
H362 H 0.62876 0.47371 0.65132 0.0
H363 H 0.59366 0.50841 0.59832 0.0
S364 S 0.49422 0.35377 0.64487 0.0
N365 N 0.53409 0.35961 0.66972 0.0
N366 N 0.49603 0.39703 0.61298 0.0
C367 C 0.53025 0.4185 0.62165 0.0
C368 C 0.55066 0.3984 0.65267 0.0
C369 C 0.88843 0.56894 0.12013 0.0
C370 C 0.89843 0.56656 0.16097 0.0
C371 C 0.90903 0.55035 0.09045 0.0
C372 C 0.94063 0.52853 0.10023 0.0
H373 H 0.86506 0.58634 0.11072 0.0
H374 H 0.90053 0.5541 0.05938 0.0
S375 S 0.97639 0.51 0.20372 0.0
N376 N 0.94037 0.53832 0.21031 0.0
N377 N 0.97937 0.50357 0.15465 0.0
C378 C 0.95028 0.52491 0.14129 0.0
C379 C 0.9292 0.5439 0.17155 0.0
C380 C 0.33654 0.08428 0.16642 0.0
C381 C 0.34251 0.12921 0.1611 0.0
C382 C 0.3593 0.05958 0.14456 0.0
C383 C 0.38859 0.07882 0.11617 0.0
H384 H 0.3141 0.06802 0.18774 0.0
H385 H 0.35393 0.02511 0.15004 0.0
S386 S 0.41725 0.19528 0.0923 0.0
N387 N 0.38101 0.19195 0.12651 0.0
N388 N 0.42302 0.14555 0.08454 0.0
C389 C 0.39467 0.12371 0.1102 0.0
C390 C 0.37181 0.14889 0.13286 0.0
C391 C 0.19307 0.93193 0.64047 0.0
C392 C 0.22243 0.92979 0.61066 0.0
C393 C 0.1574 0.94403 0.62995 0.0
C394 C 0.14956 0.95479 0.58914 0.0
H395 H 0.19782 0.92447 0.67232 0.0
H396 H 0.13603 0.94559 0.65429 0.0
S397 S 0.21701 0.9543 0.49938 0.0
N398 N 0.24147 0.93922 0.53851 0.0
N399 N 0.17435 0.9619 0.5186 0.0
C400 C 0.17847 0.952 0.55886 0.0
C401 C 0.21488 0.93952 0.56964 0.0
C402 C 0.83164 0.43107 0.84271 0.0
C403 C 0.80384 0.40311 0.86677 0.0
C404 C 0.86387 0.45163 0.85976 0.0
C405 C 0.86957 0.44531 0.90167 0.0
H406 H 0.82876 0.43665 0.81024 0.0
H407 H 0.88442 0.47274 0.83972 0.0
S408 S 0.80434 0.37592 0.9781 0.0
N409 N 0.78343 0.37057 0.93466 0.0
N410 N 0.84411 0.40923 0.96697 0.0
C411 C 0.8418 0.41753 0.92619 0.0
C412 C 0.80897 0.39639 0.90868 0.0
C413 C 0.65464 0.58624 0.40419 0.0
C414 C 0.67123 0.57246 0.36879 0.0
C415 C 0.62054 0.56418 0.42337 0.0
C416 C 0.60147 0.52811 0.40729 0.0
H417 H 0.66819 0.6142 0.4172 0.0
H418 H 0.60869 0.5759 0.4505 0.0
S419 S 0.6334 0.47915 0.31521 0.0
N420 N 0.66623 0.52051 0.31858 0.0
N421 N 0.60235 0.47916 0.35423 0.0
C422 C 0.61796 0.514 0.37197 0.0
C423 C 0.65279 0.53612 0.35283 0.0
C424 C 0.14675 0.33016 0.1143 0.0
C425 C 0.1384 0.32708 0.1565 0.0
C426 C 0.12803 0.35664 0.08779 0.0
C427 C 0.09983 0.3805 0.10245 0.0
H428 H 0.16898 0.31323 0.10181 0.0
H429 H 0.13631 0.35909 0.05561 0.0
S430 S 0.06558 0.38087 0.21036 0.0
N431 N 0.09884 0.34809 0.21173 0.0
N432 N 0.06318 0.3976 0.16194 0.0
C433 C 0.09004 0.37623 0.1445 0.0
C434 C 0.10951 0.34966 0.17153 0.0
C435 C 0.59755 0.13715 0.89731 0.0
C436 C 0.58076 0.17497 0.88993 0.0
C437 C 0.58055 0.10427 0.92563 0.0
C438 C 0.54578 0.10764 0.94739 0.0
H439 H 0.62443 0.13318 0.88144 0.0
H440 H 0.59472 0.0758 0.93023 0.0
S441 S 0.48997 0.20007 0.93883 0.0
N442 N 0.52743 0.21408 0.90635 0.0
N443 N 0.49505 0.15189 0.95954 0.0
C444 C 0.52844 0.14517 0.94007 0.0
C445 C 0.54609 0.17898 0.91146 0.0
C446 C 0.89597 0.83779 0.36521 0.0
C447 C 0.89982 0.79463 0.37575 0.0
C448 C 0.91122 0.86993 0.38869 0.0
C449 C 0.931 0.86039 0.42387 0.0
H450 H 0.88032 0.84684 0.33895 0.0
H451 H 0.90697 0.90254 0.37926 0.0
S452 S 0.95078 0.75235 0.46346 0.0
N453 N 0.92625 0.744 0.42271 0.0
N454 N 0.95465 0.80434 0.46731 0.0
C455 C 0.93551 0.81732 0.43454 0.0
C456 C 0.91996 0.7845 0.41045 0.0
C457 C 0.45157 0.70876 0.60854 0.0
C458 C 0.42548 0.73356 0.58981 0.0
C459 C 0.46031 0.67095 0.59281 0.0
C460 C 0.44282 0.65623 0.55814 0.0
H461 H 0.46568 0.71895 0.63524 0.0
H462 H 0.48059 0.6529 0.60825 0.0
S463 S 0.37168 0.70937 0.4986 0.0
N464 N 0.38177 0.7406 0.5353 0.0
N465 N 0.39796 0.66976 0.50572 0.0
C466 C 0.41645 0.68075 0.53936 0.0
C467 C 0.40786 0.71933 0.55517 0.0
C468 C 0.93463 0.89067 0.64928 0.0
C469 C 0.89778 0.90342 0.65372 0.0
C470 C 0.95997 0.90793 0.61665 0.0
C471 C 0.94907 0.93789 0.58694 0.0
H472 H 0.94499 0.8696 0.67274 0.0
H473 H 0.98897 0.89931 0.61572 0.0
S474 S 0.85389 0.97718 0.58177 0.0
N475 N 0.85021 0.94462 0.62393 0.0
N476 N 0.89774 0.9763 0.56161 0.0
C477 C 0.91123 0.9482 0.58911 0.0
C478 C 0.8856 0.93121 0.62288 0.0
C479 C 0.60354 0.09498 0.16093 0.0
C480 C 0.60007 0.13397 0.17755 0.0
C481 C 0.57825 0.07978 0.13195 0.0
C482 C 0.54874 0.10315 0.11853 0.0
H483 H 0.62652 0.07666 0.16963 0.0
H484 H 0.58238 0.05005 0.11934 0.0
S485 S 0.52438 0.20414 0.15697 0.0
N486 N 0.56254 0.19333 0.18152 0.0
N487 N 0.51549 0.16531 0.12704 0.0
C488 C 0.5442 0.14137 0.13613 0.0
C489 C 0.56972 0.15663 0.16563 0.0
C490 C 0.41539 0.52798 0.34875 0.0
C491 C 0.41934 0.57166 0.33512 0.0
C492 C 0.42983 0.51375 0.38568 0.0
C493 C 0.4489 0.54261 0.41059 0.0
H494 H 0.40119 0.50447 0.33057 0.0
H495 H 0.42637 0.47972 0.39443 0.0
S496 S 0.46628 0.66067 0.38895 0.0
N497 N 0.44359 0.6438 0.34945 0.0
N498 N 0.47001 0.61737 0.41921 0.0
C499 C 0.45232 0.58657 0.3977 0.0
C500 C 0.4377 0.601 0.35997 0.0
C501 C 0.1092 0.41198 0.90189 0.0
C502 C 0.09667 0.40889 0.86228 0.0
C503 C 0.08862 0.43148 0.93088 0.0
C504 C 0.05434 0.44853 0.92171 0.0
H505 H 0.13523 0.39913 0.91063 0.0
H506 H 0.09964 0.4327 0.96089 0.0
S507 S 0.00928 0.44847 0.82182 0.0
N508 N 0.04809 0.42453 0.815 0.0
N509 N 0.00918 0.46124 0.86927 0.0
C510 C 0.04176 0.44611 0.88183 0.0
C511 C 0.06296 0.42635 0.85221 0.0
C512 C 0.65422 0.90645 0.86909 0.0
C513 C 0.68601 0.90325 0.89323 0.0
C514 C 0.62128 0.92248 0.88385 0.0
C515 C 0.61875 0.93565 0.92342 0.0
H516 H 0.65493 0.89682 0.83838 0.0
H517 H 0.59769 0.92471 0.86398 0.0
S518 S 0.69441 0.93477 0.99857 0.0
N519 N 0.71323 0.91555 0.95836 0.0
N520 N 0.65093 0.94453 0.9865 0.0
C521 C 0.65004 0.93192 0.94817 0.0
C522 C 0.68374 0.91599 0.93299 0.0
C523 C 0.85854 0.13669 0.38718 0.0
C524 C 0.82055 0.11617 0.39173 0.0
C525 C 0.88858 0.11909 0.40636 0.0
C526 C 0.88204 0.0799 0.43062 0.0
H527 H 0.86522 0.16649 0.3682 0.0
H528 H 0.91738 0.13586 0.40093 0.0
S529 S 0.78707 0.0146 0.4541 0.0
N530 N 0.77747 0.05567 0.42374 0.0
N531 N 0.83391 0.02223 0.45982 0.0
C532 C 0.84383 0.05973 0.43659 0.0
C533 C 0.81313 0.07795 0.41718 0.0
C534 C 0.2035 0.55744 0.08956 0.0
C535 C 0.20976 0.58321 0.12197 0.0
C536 C 0.16627 0.54316 0.07882 0.0
C537 C 0.13373 0.5536 0.10038 0.0
H538 H 0.22757 0.54724 0.07291 0.0
H539 H 0.16305 0.52249 0.05432 0.0
S540 S 0.13409 0.62338 0.18518 0.0
N541 N 0.18008 0.62145 0.17338 0.0
N542 N 0.10997 0.59321 0.15407 0.0
C543 C 0.13942 0.58007 0.13225 0.0
C544 C 0.17743 0.59516 0.14286 0.0
C545 C 0.36241 0.43313 0.67149 0.0
C546 C 0.32759 0.42874 0.65171 0.0
C547 C 0.39621 0.45479 0.65172 0.0
C548 C 0.39667 0.47275 0.61126 0.0
H549 H 0.36369 0.41932 0.70245 0.0
H550 H 0.42226 0.45725 0.6683 0.0
S551 S 0.31279 0.47186 0.54642 0.0
N552 N 0.29532 0.44547 0.58979 0.0
N553 N 0.35903 0.48559 0.55234 0.0
C554 C 0.3621 0.46853 0.59101 0.0
C555 C 0.32755 0.44669 0.61129 0.0
C556 C 0.92101 0.67995 0.88645 0.0
C557 C 0.88606 0.69469 0.89744 0.0
C558 C 0.93086 0.64131 0.90446 0.0
C559 C 0.9062 0.61612 0.9343 0.0
H560 H 0.94073 0.69825 0.8635 0.0
H561 H 0.95795 0.63111 0.89476 0.0
S562 S 0.81227 0.64236 0.9754 0.0
N563 N 0.82754 0.68237 0.94108 0.0
N564 N 0.84567 0.60983 0.97489 0.0
C565 C 0.8713 0.63092 0.94583 0.0
C566 C 0.86132 0.67015 0.9274 0.0
C567 C 0.41177 0.85471 0.11689 0.0
C568 C 0.43328 0.81994 0.11656 0.0
C569 C 0.42661 0.8951 0.09809 0.0
C570 C 0.46353 0.9022 0.07836 0.0
H571 H 0.38323 0.85062 0.13172 0.0
H572 H 0.40902 0.92091 0.09908 0.0
S573 S 0.53022 0.82073 0.06644 0.0
N574 N 0.49242 0.79467 0.09301 0.0
N575 N 0.52062 0.87039 0.05839 0.0
C576 C 0.48524 0.86756 0.07776 0.0
C577 C 0.47006 0.82652 0.09668 0.0
C578 C 0.10575 0.15225 0.65043 0.0
C579 C 0.10919 0.19639 0.63912 0.0
C580 C 0.09014 0.12254 0.62468 0.0
C581 C 0.07722 0.13555 0.58635 0.0
H582 H 0.11564 0.14046 0.67936 0.0
H583 H 0.0888 0.08895 0.63487 0.0
S584 S 0.07874 0.24777 0.54281 0.0
N585 N 0.09769 0.25195 0.58742 0.0
N586 N 0.06784 0.19608 0.539 0.0
C587 C 0.07944 0.17973 0.57509 0.0
C588 C 0.09547 0.21011 0.60147 0.0
C589 C 0.57888 0.32622 0.39295 0.0
C590 C 0.60958 0.30714 0.40968 0.0
C591 C 0.55886 0.35359 0.41484 0.0
C592 C 0.56882 0.3629 0.45426 0.0
H593 H 0.57128 0.32133 0.3621 0.0
H594 H 0.53648 0.36886 0.40005 0.0
S595 S 0.64362 0.31638 0.51369 0.0
N596 N 0.6464 0.296 0.4694 0.0
N597 N 0.60913 0.34751 0.51047 0.0
C598 C 0.59821 0.34229 0.47203 0.0
C599 C 0.61851 0.31444 0.44976 0.0
loop_
_geom_bond_atom_site_label_1
_geom_bond_atom_site_label_2
_geom_bond_distance
_geom_bond_site_symmetry_2
_ccdc_geom_bond_type
P0 O11 1.490 . S
P0 C14 1.812 . S
P0 C20 1.803 . S
P0 C26 1.819 . S
H1 C15 0.941 . S
H2 C16 0.939 . S
H3 C18 0.940 . S
H4 C19 0.940 . S
H5 C21 0.939 . S
H6 C22 0.942 . S
H7 C24 0.940 . S
H8 C25 0.939 . S
H9 C27 0.941 . S
H10 C31 0.939 . S
O11 P0 1.490 . S
H12 C28 0.939 . S
H13 C30 0.940 . S
C14 P0 1.812 . S
C14 C15 1.389 . S
C14 C19 1.391 . S
C15 H1 0.941 . S
C15 C14 1.389 . S
C15 C16 1.397 . S
C16 H2 0.939 . S
C16 C15 1.397 . S
C16 C17 1.378 . S
C17 C16 1.378 . S
C17 C18 1.378 . S
C18 H3 0.940 . S
C18 C17 1.378 . S
C18 C19 1.396 . S
C19 H4 0.940 . S
C19 C14 1.391 . S
C19 C18 1.396 . S
C20 P0 1.803 . S
C20 C21 1.378 . S
C20 C25 1.400 . S
C21 H5 0.939 . S
C21 C20 1.378 . S
C21 C22 1.361 . S
C22 H6 0.942 . S
C22 C21 1.361 . S
C22 C23 1.369 . S
C23 C22 1.369 . S
C23 C24 1.404 . S
C24 H7 0.940 . S
C24 C23 1.404 . S
C24 C25 1.389 . S
C25 H8 0.939 . S
C25 C20 1.400 . S
C25 C24 1.389 . S
C26 P0 1.819 . S
C26 C27 1.391 . S
C26 C31 1.391 . S
C27 H9 0.941 . S
C27 C26 1.391 . S
C27 C28 1.396 . S
C28 H12 0.939 . S
C28 C27 1.396 . S
C28 C29 1.397 . S
C29 C28 1.397 . S
C29 C30 1.385 . S
C30 H13 0.940 . S
C30 C29 1.385 . S
C30 C31 1.388 . S
C31 H10 0.939 . S
C31 C26 1.391 . S
C31 C30 1.388 . S
P32 O43 1.490 . S
P32 C46 1.812 . S
P32 C52 1.803 . S
P32 C58 1.819 . S
H33 C47 0.941 . S
H34 C48 0.939 . S
H35 C50 0.940 . S
H36 C51 0.940 . S
H37 C53 0.939 . S
H38 C54 0.942 . S
H39 C56 0.940 . S
H40 C57 0.939 . S
H41 C59 0.941 . S
H42 C63 0.939 . S
O43 P32 1.490 . S
H44 C60 0.939 . S
H45 C62 0.940 . S
C46 P32 1.812 . S
C46 C47 1.389 . S
C46 C51 1.391 . S
C47 H33 0.941 . S
C47 C46 1.389 . S
C47 C48 1.397 . S
C48 H34 0.939 . S
C48 C47 1.397 . S
C48 C49 1.378 . S
C49 C48 1.378 . S
C49 C50 1.378 . S
C50 H35 0.940 . S
C50 C49 1.378 . S
C50 C51 1.396 . S
C51 H36 0.940 . S
C51 C46 1.391 . S
C51 C50 1.396 . S
C52 P32 1.803 . S
C52 C53 1.378 . S
C52 C57 1.400 . S
C53 H37 0.939 . S
C53 C52 1.378 . S
C53 C54 1.361 . S
C54 H38 0.942 . S
C54 C53 1.361 . S
C54 C55 1.369 . S
C55 C54 1.369 . S
C55 C56 1.404 . S
C56 H39 0.940 . S
C56 C55 1.404 . S
C56 C57 1.389 . S
C57 H40 0.939 . S
C57 C52 1.400 . S
C57 C56 1.389 . S
C58 P32 1.819 . S
C58 C59 1.391 . S
C58 C63 1.391 . S
C59 H41 0.941 . S
C59 C58 1.391 . S
C59 C60 1.396 . S
C60 H44 0.939 . S
C60 C59 1.396 . S
C60 C61 1.397 . S
C61 C60 1.397 . S
C61 C62 1.385 . S
C62 H45 0.940 . S
C62 C61 1.385 . S
C62 C63 1.388 . S
C63 H42 0.939 . S
C63 C58 1.391 . S
C63 C62 1.388 . S
P64 O75 1.490 . S
P64 C78 1.812 . S
P64 C84 1.803 . S
P64 C90 1.819 . S
H65 C79 0.941 . S
H66 C80 0.939 . S
H67 C82 0.940 . S
H68 C83 0.940 . S
H69 C85 0.939 . S
H70 C86 0.942 . S
H71 C88 0.940 . S
H72 C89 0.939 . S
H73 C91 0.941 . S
H74 C95 0.939 . S
O75 P64 1.490 . S
H76 C92 0.939 . S
H77 C94 0.940 . S
C78 P64 1.812 . S
C78 C79 1.389 . S
C78 C83 1.391 . S
C79 H65 0.941 . S
C79 C78 1.389 . S
C79 C80 1.397 . S
C80 H66 0.939 . S
C80 C79 1.397 . S
C80 C81 1.378 . S
C81 C80 1.378 . S
C81 C82 1.378 . S
C82 H67 0.940 . S
C82 C81 1.378 . S
C82 C83 1.396 . S
C83 H68 0.940 . S
C83 C78 1.391 . S
C83 C82 1.396 . S
C84 P64 1.803 . S
C84 C85 1.378 . S
C84 C89 1.400 . S
C85 H69 0.939 . S
C85 C84 1.378 . S
C85 C86 1.361 . S
C86 H70 0.942 . S
C86 C85 1.361 . S
C86 C87 1.369 . S
C87 C86 1.369 . S
C87 C88 1.404 . S
C88 H71 0.940 . S
C88 C87 1.404 . S
C88 C89 1.389 . S
C89 H72 0.939 . S
C89 C84 1.400 . S
C89 C88 1.389 . S
C90 P64 1.819 . S
C90 C91 1.391 . S
C90 C95 1.391 . S
C91 H73 0.941 . S
C91 C90 1.391 . S
C91 C92 1.396 . S
C92 H76 0.939 . S
C92 C91 1.396 . S
C92 C93 1.397 . S
C93 C92 1.397 . S
C93 C94 1.385 . S
C94 H77 0.940 . S
C94 C93 1.385 . S
C94 C95 1.388 . S
C95 H74 0.939 . S
C95 C90 1.391 . S
C95 C94 1.388 . S
P96 O107 1.490 . S
P96 C110 1.812 . S
P96 C116 1.803 . S
P96 C122 1.819 . S
H97 C111 0.941 . S
H98 C112 0.939 . S
H99 C114 0.940 . S
H100 C115 0.940 . S
H101 C117 0.939 . S
H102 C118 0.942 . S
H103 C120 0.940 . S
H104 C121 0.939 . S
H105 C123 0.941 . S
H106 C127 0.939 . S
O107 P96 1.490 . S
H108 C124 0.939 . S
H109 C126 0.940 . S
C110 P96 1.812 . S
C110 C111 1.389 . S
C110 C115 1.391 . S
C111 H97 0.941 . S
C111 C110 1.389 . S
C111 C112 1.397 . S
C112 H98 0.939 . S
C112 C111 1.397 . S
C112 C113 1.378 . S
C113 C112 1.378 . S
C113 C114 1.378 . S
C114 H99 0.940 . S
C114 C113 1.378 . S
C114 C115 1.396 . S
C115 H100 0.940 . S
C115 C110 1.391 . S
C115 C114 1.396 . S
C116 P96 1.803 . S
C116 C117 1.378 . S
C116 C121 1.400 . S
C117 H101 0.939 . S
C117 C116 1.378 . S
C117 C118 1.361 . S
C118 H102 0.942 . S
C118 C117 1.361 . S
C118 C119 1.369 . S
C119 C118 1.369 . S
C119 C120 1.404 . S
C120 H103 0.940 . S
C120 C119 1.404 . S
C120 C121 1.389 . S
C121 H104 0.939 . S
C121 C116 1.400 . S
C121 C120 1.389 . S
C122 P96 1.819 . S
C122 C123 1.391 . S
C122 C127 1.391 . S
C123 H105 0.941 . S
C123 C122 1.391 . S
C123 C124 1.396 . S
C124 H108 0.939 . S
C124 C123 1.396 . S
C124 C125 1.397 . S
C125 C124 1.397 . S
C125 C126 1.385 . S
C126 H109 0.940 . S
C126 C125 1.385 . S
C126 C127 1.388 . S
C127 H106 0.939 . S
C127 C122 1.391 . S
C127 C126 1.388 . S
P128 O139 1.490 . S
P128 C142 1.812 . S
P128 C148 1.803 . S
P128 C154 1.819 . S
H129 C143 0.941 . S
H130 C144 0.939 . S
H131 C146 0.940 . S
H132 C147 0.940 . S
H133 C149 0.939 . S
H134 C150 0.942 . S
H135 C152 0.940 . S
H136 C153 0.939 . S
H137 C155 0.941 . S
H138 C159 0.939 . S
O139 P128 1.490 . S
H140 C156 0.939 . S
H141 C158 0.940 . S
C142 P128 1.812 . S
C142 C143 1.389 . S
C142 C147 1.391 . S
C143 H129 0.941 . S
C143 C142 1.389 . S
C143 C144 1.397 . S
C144 H130 0.939 . S
C144 C143 1.397 . S
C144 C145 1.378 . S
C145 C144 1.378 . S
C145 C146 1.378 . S
C146 H131 0.940 . S
C146 C145 1.378 . S
C146 C147 1.396 . S
C147 H132 0.940 . S
C147 C142 1.391 . S
C147 C146 1.396 . S
C148 P128 1.803 . S
C148 C149 1.378 . S
C148 C153 1.400 . S
C149 H133 0.939 . S
C149 C148 1.378 . S
C149 C150 1.361 . S
C150 H134 0.942 . S
C150 C149 1.361 . S
C150 C151 1.369 . S
C151 C150 1.369 . S
C151 C152 1.404 . S
C152 H135 0.940 . S
C152 C151 1.404 . S
C152 C153 1.389 . S
C153 H136 0.939 . S
C153 C148 1.400 . S
C153 C152 1.389 . S
C154 P128 1.819 . S
C154 C155 1.391 . S
C154 C159 1.391 . S
C155 H137 0.941 . S
C155 C154 1.391 . S
C155 C156 1.396 . S
C156 H140 0.939 . S
C156 C155 1.396 . S
C156 C157 1.397 . S
C157 C156 1.397 . S
C157 C158 1.385 . S
C158 H141 0.940 . S
C158 C157 1.385 . S
C158 C159 1.388 . S
C159 H138 0.939 . S
C159 C154 1.391 . S
C159 C158 1.388 . S
P160 O171 1.490 . S
P160 C174 1.812 . S
P160 C180 1.803 . S
P160 C186 1.819 . S
H161 C175 0.941 . S
H162 C176 0.939 . S
H163 C178 0.940 . S
H164 C179 0.940 . S
H165 C181 0.939 . S
H166 C182 0.942 . S
H167 C184 0.940 . S
H168 C185 0.939 . S
H169 C187 0.941 . S
H170 C191 0.939 . S
O171 P160 1.490 . S
H172 C188 0.939 . S
H173 C190 0.940 . S
C174 P160 1.812 . S
C174 C175 1.389 . S
C174 C179 1.391 . S
C175 H161 0.941 . S
C175 C174 1.389 . S
C175 C176 1.397 . S
C176 H162 0.939 . S
C176 C175 1.397 . S
C176 C177 1.378 . S
C177 C176 1.378 . S
C177 C178 1.378 . S
C178 H163 0.940 . S
C178 C177 1.378 . S
C178 C179 1.396 . S
C179 H164 0.940 . S
C179 C174 1.391 . S
C179 C178 1.396 . S
C180 P160 1.803 . S
C180 C181 1.378 . S
C180 C185 1.400 . S
C181 H165 0.939 . S
C181 C180 1.378 . S
C181 C182 1.361 . S
C182 H166 0.942 . S
C182 C181 1.361 . S
C182 C183 1.369 . S
C183 C182 1.369 . S
C183 C184 1.404 . S
C184 H167 0.940 . S
C184 C183 1.404 . S
C184 C185 1.389 . S
C185 H168 0.939 . S
C185 C180 1.400 . S
C185 C184 1.389 . S
C186 P160 1.819 . S
C186 C187 1.391 . S
C186 C191 1.391 . S
C187 H169 0.941 . S
C187 C186 1.391 . S
C187 C188 1.396 . S
C188 H172 0.939 . S
C188 C187 1.396 . S
C188 C189 1.397 . S
C189 C188 1.397 . S
C189 C190 1.385 . S
C190 H173 0.940 . S
C190 C189 1.385 . S
C190 C191 1.388 . S
C191 H170 0.939 . S
C191 C186 1.391 . S
C191 C190 1.388 . S
P192 O203 1.490 . S
P192 C206 1.812 . S
P192 C212 1.803 . S
P192 C218 1.819 . S
H193 C207 0.941 . S
H194 C208 0.939 . S
H195 C210 0.940 . S
H196 C211 0.940 . S
H197 C213 0.939 . S
H198 C214 0.942 . S
H199 C216 0.940 . S
H200 C217 0.939 . S
H201 C219 0.941 . S
H202 C223 0.939 . S
O203 P192 1.490 . S
H204 C220 0.939 . S
H205 C222 0.940 . S
C206 P192 1.812 . S
C206 C207 1.389 . S
C206 C211 1.391 . S
C207 H193 0.941 . S
C207 C206 1.389 . S
C207 C208 1.397 . S
C208 H194 0.939 . S
C208 C207 1.397 . S
C208 C209 1.378 . S
C209 C208 1.378 . S
C209 C210 1.378 . S
C210 H195 0.940 . S
C210 C209 1.378 . S
C210 C211 1.396 . S
C211 H196 0.940 . S
C211 C206 1.391 . S
C211 C210 1.396 . S
C212 P192 1.803 . S
C212 C213 1.378 . S
C212 C217 1.400 . S
C213 H197 0.939 . S
C213 C212 1.378 . S
C213 C214 1.361 . S
C214 H198 0.942 . S
C214 C213 1.361 . S
C214 C215 1.369 . S
C215 C214 1.369 . S
C215 C216 1.404 . S
C216 H199 0.940 . S
C216 C215 1.404 . S
C216 C217 1.389 . S
C217 H200 0.939 . S
C217 C212 1.400 . S
C217 C216 1.389 . S
C218 P192 1.819 . S
C218 C219 1.391 . S
C218 C223 1.391 . S
C219 H201 0.941 . S
C219 C218 1.391 . S
C219 C220 1.396 . S
C220 H204 0.939 . S
C220 C219 1.396 . S
C220 C221 1.397 . S
C221 C220 1.397 . S
C221 C222 1.385 . S
C222 H205 0.940 . S
C222 C221 1.385 . S
C222 C223 1.388 . S
C223 H202 0.939 . S
C223 C218 1.391 . S
C223 C222 1.388 . S
P224 O235 1.490 . S
P224 C238 1.812 . S
P224 C244 1.803 . S
P224 C250 1.819 . S
H225 C239 0.941 . S
H226 C240 0.939 . S
H227 C242 0.940 . S
H228 C243 0.940 . S
H229 C245 0.939 . S
H230 C246 0.942 . S
H231 C248 0.940 . S
H232 C249 0.939 . S
H233 C251 0.941 . S
H234 C255 0.939 . S
O235 P224 1.490 . S
H236 C252 0.939 . S
H237 C254 0.940 . S
C238 P224 1.812 . S
C238 C239 1.389 . S
C238 C243 1.391 . S
C239 H225 0.941 . S
C239 C238 1.389 . S
C239 C240 1.397 . S
C240 H226 0.939 . S
C240 C239 1.397 . S
C240 C241 1.378 . S
C241 C240 1.378 . S
C241 C242 1.378 . S
C242 H227 0.940 . S
C242 C241 1.378 . S
C242 C243 1.396 . S
C243 H228 0.940 . S
C243 C238 1.391 . S
C243 C242 1.396 . S
C244 P224 1.803 . S
C244 C245 1.378 . S
C244 C249 1.400 . S
C245 H229 0.939 . S
C245 C244 1.378 . S
C245 C246 1.361 . S
C246 H230 0.942 . S
C246 C245 1.361 . S
C246 C247 1.369 . S
C247 C246 1.369 . S
C247 C248 1.404 . S
C248 H231 0.940 . S
C248 C247 1.404 . S
C248 C249 1.389 . S
C249 H232 0.939 . S
C249 C244 1.400 . S
C249 C248 1.389 . S
C250 P224 1.819 . S
C250 C251 1.391 . S
C250 C255 1.391 . S
C251 H233 0.941 . S
C251 C250 1.391 . S
C251 C252 1.396 . S
C252 H236 0.939 . S
C252 C251 1.396 . S
C252 C253 1.397 . S
C253 C252 1.397 . S
C253 C254 1.385 . S
C254 H237 0.940 . S
C254 C253 1.385 . S
C254 C255 1.388 . S
C255 H234 0.939 . S
C255 C250 1.391 . S
C255 C254 1.388 . S
Zn256 O262 1.969 1_545 S
Zn256 O263 1.965 1_545 S
Zn256 O267 2.024 . S
Zn256 O272 1.969 . S
Zn257 O264 1.969 . S
Zn257 O270 1.969 1_565 S
Zn257 O271 1.965 1_665 S
Zn257 O273 2.024 . S
C258 O259 1.229 . S
C258 O267 1.058 . S
O259 C258 1.229 . S
C260 O261 1.229 . S
C260 O273 1.058 . S
O261 C260 1.229 . S
O262 Zn256 1.969 1_565 S
O262 C265 1.267 . S
O263 Zn256 1.965 1_565 S
O263 C274 1.260 1_455 S
O264 Zn257 1.969 . S
O264 C274 1.258 . S
C265 O262 1.267 . S
C265 O266 1.228 . S
O266 C265 1.228 . S
O267 Zn256 2.024 . S
O267 C258 1.058 . S
C268 O269 1.228 . S
C268 O270 1.267 . S
O269 C268 1.228 . S
O270 Zn257 1.969 1_545 S
O270 C268 1.267 . S
O271 Zn257 1.965 1_445 S
O271 C275 1.260 . S
O272 Zn256 1.969 . S
O272 C275 1.258 . S
O273 Zn257 2.024 . S
O273 C260 1.058 . S
C274 O263 1.260 1_655 S
C274 O264 1.258 . S
C275 O271 1.260 . S
C275 O272 1.258 . S
Zn276 O282 1.969 . S
Zn276 O283 1.965 1_565 S
Zn276 O287 2.024 . S
Zn276 O292 1.969 1_556 S
Zn277 O284 1.969 . S
Zn277 O290 1.969 . S
Zn277 O291 1.965 1_545 S
Zn277 O293 2.024 . S
C278 O279 1.229 . S
C278 O287 1.058 . S
O279 C278 1.229 . S
C280 O281 1.229 . S
C280 O293 1.058 . S
O281 C280 1.229 . S
O282 Zn276 1.969 . S
O282 C285 1.267 . S
O283 Zn276 1.965 1_545 S
O283 C294 1.260 . S
O284 Zn277 1.969 . S
O284 C294 1.258 1_554 S
C285 O282 1.267 . S
C285 O286 1.228 . S
O286 C285 1.228 . S
O287 Zn276 2.024 . S
O287 C278 1.058 . S
C288 O289 1.228 . S
C288 O290 1.267 . S
O289 C288 1.228 . S
O290 Zn277 1.969 . S
O290 C288 1.267 . S
O291 Zn277 1.965 1_565 S
O291 C295 1.260 . S
O292 Zn276 1.969 1_554 S
O292 C295 1.258 . S
O293 Zn277 2.024 . S
O293 C280 1.058 . S
C294 O283 1.260 . S
C294 O284 1.258 1_556 S
C295 O291 1.260 . S
C295 O292 1.258 . S
Zn296 O302 1.969 . S
Zn296 O303 1.965 . S
Zn296 O307 2.024 . S
Zn296 O312 1.969 . S
Zn297 O304 1.969 . S
Zn297 O310 1.969 . S
Zn297 O311 1.965 . S
Zn297 O313 2.024 . S
C298 O299 1.229 . S
C298 O307 1.058 . S
O299 C298 1.229 . S
C300 O301 1.229 . S
C300 O313 1.058 . S
O301 C300 1.229 . S
O302 Zn296 1.969 . S
O302 C305 1.267 . S
O303 Zn296 1.965 . S
O303 C314 1.260 . S
O304 Zn297 1.969 . S
O304 C314 1.258 . S
C305 O302 1.267 . S
C305 O306 1.228 . S
O306 C305 1.228 . S
O307 Zn296 2.024 . S
O307 C298 1.058 . S
C308 O309 1.228 . S
C308 O310 1.267 . S
O309 C308 1.228 . S
O310 Zn297 1.969 . S
O310 C308 1.267 . S
O311 Zn297 1.965 . S
O311 C315 1.260 . S
O312 Zn296 1.969 . S
O312 C315 1.258 . S
O313 Zn297 2.024 . S
O313 C300 1.058 . S
C314 O303 1.260 . S
C314 O304 1.258 . S
C315 O311 1.260 . S
C315 O312 1.258 . S
Zn316 O322 1.969 . S
Zn316 O323 1.965 1_556 S
Zn316 O327 2.024 . S
Zn316 O332 1.969 1_655 S
Zn317 O324 1.969 . S
Zn317 O330 1.969 . S
Zn317 O331 1.965 1_554 S
Zn317 O333 2.024 . S
C318 O319 1.229 . S
C318 O327 1.058 . S
O319 C318 1.229 . S
C320 O321 1.229 . S
C320 O333 1.058 . S
O321 C320 1.229 . S
O322 Zn316 1.969 . S
O322 C325 1.267 . S
O323 Zn316 1.965 1_554 S
O323 C334 1.260 . S
O324 Zn317 1.969 . S
O324 C334 1.258 1_455 S
C325 O322 1.267 . S
C325 O326 1.228 . S
O326 C325 1.228 . S
O327 Zn316 2.024 . S
O327 C318 1.058 . S
C328 O329 1.228 . S
C328 O330 1.267 . S
O329 C328 1.228 . S
O330 Zn317 1.969 . S
O330 C328 1.267 . S
O331 Zn317 1.965 1_556 S
O331 C335 1.260 . S
O332 Zn316 1.969 1_455 S
O332 C335 1.258 . S
O333 Zn317 2.024 . S
O333 C320 1.058 . S
C334 O323 1.260 . S
C334 O324 1.258 1_655 S
C335 O331 1.260 . S
C335 O332 1.258 . S
C336 C337 1.369 . S
C336 C338 1.419 . S
C336 H340 0.930 . S
C337 C336 1.369 . S
C337 C346 1.429 . S
C338 C336 1.419 . S
C338 C339 1.363 . S
C338 H341 0.929 . S
C339 C338 1.363 . S
C339 C345 1.428 . S
H340 C336 0.930 . S
H341 C338 0.929 . S
S342 N343 1.613 . S
S342 N344 1.610 . S
N343 S342 1.613 . S
N343 C346 1.350 . S
N344 S342 1.610 . S
N344 C345 1.351 . S
C345 C339 1.428 . S
C345 N344 1.351 . S
C345 C346 1.434 . S
C346 C337 1.429 . S
C346 N343 1.350 . S
C346 C345 1.434 . S
C347 C348 1.369 . S
C347 C349 1.419 . S
C347 H351 0.930 . S
C348 C347 1.369 . S
C348 C357 1.429 . S
C349 C347 1.419 . S
C349 C350 1.363 . S
C349 H352 0.929 . S
C350 C349 1.363 . S
C350 C356 1.428 . S
H351 C347 0.930 . S
H352 C349 0.929 . S
S353 N354 1.613 . S
S353 N355 1.610 . S
N354 S353 1.613 . S
N354 C357 1.350 . S
N355 S353 1.610 . S
N355 C356 1.351 . S
C356 C350 1.428 . S
C356 N355 1.351 . S
C356 C357 1.434 . S
C357 C348 1.429 . S
C357 N354 1.350 . S
C357 C356 1.434 . S
C358 C359 1.369 . S
C358 C360 1.419 . S
C358 H362 0.930 . S
C359 C358 1.369 . S
C359 C368 1.429 . S
C360 C358 1.419 . S
C360 C361 1.363 . S
C360 H363 0.929 . S
C361 C360 1.363 . S
C361 C367 1.428 . S
H362 C358 0.930 . S
H363 C360 0.929 . S
S364 N365 1.613 . S
S364 N366 1.610 . S
N365 S364 1.613 . S
N365 C368 1.350 . S
N366 S364 1.610 . S
N366 C367 1.351 . S
C367 C361 1.428 . S
C367 N366 1.351 . S
C367 C368 1.434 . S
C368 C359 1.429 . S
C368 N365 1.350 . S
C368 C367 1.434 . S
C369 C370 1.369 . S
C369 C371 1.419 . S
C369 H373 0.930 . S
C370 C369 1.369 . S
C370 C379 1.429 . S
C371 C369 1.419 . S
C371 C372 1.363 . S
C371 H374 0.929 . S
C372 C371 1.363 . S
C372 C378 1.428 . S
H373 C369 0.930 . S
H374 C371 0.929 . S
S375 N376 1.613 . S
S375 N377 1.610 . S
N376 S375 1.613 . S
N376 C379 1.350 . S
N377 S375 1.610 . S
N377 C378 1.351 . S
C378 C372 1.428 . S
C378 N377 1.351 . S
C378 C379 1.434 . S
C379 C370 1.429 . S
C379 N376 1.350 . S
C379 C378 1.434 . S
C380 C381 1.369 . S
C380 C382 1.419 . S
C380 H384 0.930 . S
C381 C380 1.369 . S
C381 C390 1.429 . S
C382 C380 1.419 . S
C382 C383 1.363 . S
C382 H385 0.929 . S
C383 C382 1.363 . S
C383 C389 1.428 . S
H384 C380 0.930 . S
H385 C382 0.929 . S
S386 N387 1.613 . S
S386 N388 1.610 . S
N387 S386 1.613 . S
N387 C390 1.350 . S
N388 S386 1.610 . S
N388 C389 1.351 . S
C389 C383 1.428 . S
C389 N388 1.351 . S
C389 C390 1.434 . S
C390 C381 1.429 . S
C390 N387 1.350 . S
C390 C389 1.434 . S
C391 C392 1.369 . S
C391 C393 1.419 . S
C391 H395 0.930 . S
C392 C391 1.369 . S
C392 C401 1.429 . S
C393 C391 1.419 . S
C393 C394 1.363 . S
C393 H396 0.929 . S
C394 C393 1.363 . S
C394 C400 1.428 . S
H395 C391 0.930 . S
H396 C393 0.929 . S
S397 N398 1.613 . S
S397 N399 1.610 . S
N398 S397 1.613 . S
N398 C401 1.350 . S
N399 S397 1.610 . S
N399 C400 1.351 . S
C400 C394 1.428 . S
C400 N399 1.351 . S
C400 C401 1.434 . S
C401 C392 1.429 . S
C401 N398 1.350 . S
C401 C400 1.434 . S
C402 C403 1.369 . S
C402 C404 1.419 . S
C402 H406 0.930 . S
C403 C402 1.369 . S
C403 C412 1.429 . S
C404 C402 1.419 . S
C404 C405 1.363 . S
C404 H407 0.929 . S
C405 C404 1.363 . S
C405 C411 1.428 . S
H406 C402 0.930 . S
H407 C404 0.929 . S
S408 N409 1.613 . S
S408 N410 1.610 . S
N409 S408 1.613 . S
N409 C412 1.350 . S
N410 S408 1.610 . S
N410 C411 1.351 . S
C411 C405 1.428 . S
C411 N410 1.351 . S
C411 C412 1.434 . S
C412 C403 1.429 . S
C412 N409 1.350 . S
C412 C411 1.434 . S
C413 C414 1.369 . S
C413 C415 1.419 . S
C413 H417 0.930 . S
C414 C413 1.369 . S
C414 C423 1.429 . S
C415 C413 1.419 . S
C415 C416 1.363 . S
C415 H418 0.929 . S
C416 C415 1.363 . S
C416 C422 1.428 . S
H417 C413 0.930 . S
H418 C415 0.929 . S
S419 N420 1.613 . S
S419 N421 1.610 . S
N420 S419 1.613 . S
N420 C423 1.350 . S
N421 S419 1.610 . S
N421 C422 1.351 . S
C422 C416 1.428 . S
C422 N421 1.351 . S
C422 C423 1.434 . S
C423 C414 1.429 . S
C423 N420 1.350 . S
C423 C422 1.434 . S
C424 C425 1.369 . S
C424 C426 1.419 . S
C424 H428 0.930 . S
C425 C424 1.369 . S
C425 C434 1.429 . S
C426 C424 1.419 . S
C426 C427 1.363 . S
C426 H429 0.929 . S
C427 C426 1.363 . S
C427 C433 1.428 . S
H428 C424 0.930 . S
H429 C426 0.929 . S
S430 N431 1.613 . S
S430 N432 1.610 . S
N431 S430 1.613 . S
N431 C434 1.350 . S
N432 S430 1.610 . S
N432 C433 1.351 . S
C433 C427 1.428 . S
C433 N432 1.351 . S
C433 C434 1.434 . S
C434 C425 1.429 . S
C434 N431 1.350 . S
C434 C433 1.434 . S
C435 C436 1.369 . S
C435 C437 1.419 . S
C435 H439 0.930 . S
C436 C435 1.369 . S
C436 C445 1.429 . S
C437 C435 1.419 . S
C437 C438 1.363 . S
C437 H440 0.929 . S
C438 C437 1.363 . S
C438 C444 1.428 . S
H439 C435 0.930 . S
H440 C437 0.929 . S
S441 N442 1.613 . S
S441 N443 1.610 . S
N442 S441 1.613 . S
N442 C445 1.350 . S
N443 S441 1.610 . S
N443 C444 1.351 . S
C444 C438 1.428 . S
C444 N443 1.351 . S
C444 C445 1.434 . S
C445 C436 1.429 . S
C445 N442 1.350 . S
C445 C444 1.434 . S
C446 C447 1.369 . S
C446 C448 1.419 . S
C446 H450 0.930 . S
C447 C446 1.369 . S
C447 C456 1.429 . S
C448 C446 1.419 . S
C448 C449 1.363 . S
C448 H451 0.929 . S
C449 C448 1.363 . S
C449 C455 1.428 . S
H450 C446 0.930 . S
H451 C448 0.929 . S
S452 N453 1.613 . S
S452 N454 1.610 . S
N453 S452 1.613 . S
N453 C456 1.350 . S
N454 S452 1.610 . S
N454 C455 1.351 . S
C455 C449 1.428 . S
C455 N454 1.351 . S
C455 C456 1.434 . S
C456 C447 1.429 . S
C456 N453 1.350 . S
C456 C455 1.434 . S
C457 C458 1.369 . S
C457 C459 1.419 . S
C457 H461 0.930 . S
C458 C457 1.369 . S
C458 C467 1.429 . S
C459 C457 1.419 . S
C459 C460 1.363 . S
C459 H462 0.929 . S
C460 C459 1.363 . S
C460 C466 1.428 . S
H461 C457 0.930 . S
H462 C459 0.929 . S
S463 N464 1.613 . S
S463 N465 1.610 . S
N464 S463 1.613 . S
N464 C467 1.350 . S
N465 S463 1.610 . S
N465 C466 1.351 . S
C466 C460 1.428 . S
C466 N465 1.351 . S
C466 C467 1.434 . S
C467 C458 1.429 . S
C467 N464 1.350 . S
C467 C466 1.434 . S
C468 C469 1.369 . S
C468 C470 1.419 . S
C468 H472 0.930 . S
C469 C468 1.369 . S
C469 C478 1.429 . S
C470 C468 1.419 . S
C470 C471 1.363 . S
C470 H473 0.929 . S
C471 C470 1.363 . S
C471 C477 1.428 . S
H472 C468 0.930 . S
H473 C470 0.929 . S
S474 N475 1.613 1_545 S
S474 N476 1.610 . S
N475 S474 1.613 1_565 S
N475 C478 1.350 . S
N476 S474 1.610 . S
N476 C477 1.351 1_545 S
C477 C471 1.428 . S
C477 N476 1.351 1_565 S
C477 C478 1.434 . S
C478 C469 1.429 . S
C478 N475 1.350 . S
C478 C477 1.434 . S
C479 C480 1.369 . S
C479 C481 1.419 . S
C479 H483 0.930 . S
C480 C479 1.369 . S
C480 C489 1.429 . S
C481 C479 1.419 . S
C481 C482 1.363 . S
C481 H484 0.929 . S
C482 C481 1.363 . S
C482 C488 1.428 . S
H483 C479 0.930 . S
H484 C481 0.929 . S
S485 N486 1.613 . S
S485 N487 1.610 . S
N486 S485 1.613 . S
N486 C489 1.350 . S
N487 S485 1.610 . S
N487 C488 1.351 . S
C488 C482 1.428 . S
C488 N487 1.351 . S
C488 C489 1.434 . S
C489 C480 1.429 . S
C489 N486 1.350 . S
C489 C488 1.434 . S
C490 C491 1.369 . S
C490 C492 1.419 . S
C490 H494 0.930 . S
C491 C490 1.369 . S
C491 C500 1.429 . S
C492 C490 1.419 . S
C492 C493 1.363 . S
C492 H495 0.929 . S
C493 C492 1.363 . S
C493 C499 1.428 . S
H494 C490 0.930 . S
H495 C492 0.929 . S
S496 N497 1.613 . S
S496 N498 1.610 . S
N497 S496 1.613 . S
N497 C500 1.350 . S
N498 S496 1.610 . S
N498 C499 1.351 . S
C499 C493 1.428 . S
C499 N498 1.351 . S
C499 C500 1.434 . S
C500 C491 1.429 . S
C500 N497 1.350 . S
C500 C499 1.434 . S
C501 C502 1.369 . S
C501 C503 1.419 . S
C501 H505 0.930 . S
C502 C501 1.369 . S
C502 C511 1.429 . S
C503 C501 1.419 . S
C503 C504 1.363 . S
C503 H506 0.929 . S
C504 C503 1.363 . S
C504 C510 1.428 . S
H505 C501 0.930 . S
H506 C503 0.929 . S
S507 N508 1.613 . S
S507 N509 1.610 . S
N508 S507 1.613 . S
N508 C511 1.350 . S
N509 S507 1.610 . S
N509 C510 1.351 . S
C510 C504 1.428 . S
C510 N509 1.351 . S
C510 C511 1.434 . S
C511 C502 1.429 . S
C511 N508 1.350 . S
C511 C510 1.434 . S
C512 C513 1.369 . S
C512 C514 1.419 . S
C512 H516 0.930 . S
C513 C512 1.369 . S
C513 C522 1.429 . S
C514 C512 1.419 . S
C514 C515 1.363 . S
C514 H517 0.929 . S
C515 C514 1.363 . S
C515 C521 1.428 . S
H516 C512 0.930 . S
H517 C514 0.929 . S
S518 N519 1.613 . S
S518 N520 1.610 . S
N519 S518 1.613 . S
N519 C522 1.350 . S
N520 S518 1.610 . S
N520 C521 1.351 . S
C521 C515 1.428 . S
C521 N520 1.351 . S
C521 C522 1.434 . S
C522 C513 1.429 . S
C522 N519 1.350 . S
C522 C521 1.434 . S
C523 C524 1.369 . S
C523 C525 1.419 . S
C523 H527 0.930 . S
C524 C523 1.369 . S
C524 C533 1.429 . S
C525 C523 1.419 . S
C525 C526 1.363 . S
C525 H528 0.929 . S
C526 C525 1.363 . S
C526 C532 1.428 . S
H527 C523 0.930 . S
H528 C525 0.929 . S
S529 N530 1.613 1_565 S
S529 N531 1.610 1_565 S
N530 S529 1.613 1_545 S
N530 C533 1.350 . S
N531 S529 1.610 1_545 S
N531 C532 1.353 . S
C532 C526 1.428 . S
C532 N531 1.353 . S
C532 C533 1.434 . S
C533 C524 1.429 . S
C533 N530 1.350 . S
C533 C532 1.434 . S
C534 C535 1.369 . S
C534 C536 1.419 . S
C534 H538 0.930 . S
C535 C534 1.369 . S
C535 C544 1.429 . S
C536 C534 1.419 . S
C536 C537 1.363 . S
C536 H539 0.929 . S
C537 C536 1.363 . S
C537 C543 1.428 . S
H538 C534 0.930 . S
H539 C536 0.929 . S
S540 N541 1.613 . S
S540 N542 1.610 . S
N541 S540 1.613 . S
N541 C544 1.350 . S
N542 S540 1.610 . S
N542 C543 1.351 . S
C543 C537 1.428 . S
C543 N542 1.351 . S
C543 C544 1.434 . S
C544 C535 1.429 . S
C544 N541 1.350 . S
C544 C543 1.434 . S
C545 C546 1.369 . S
C545 C547 1.419 . S
C545 H549 0.930 . S
C546 C545 1.369 . S
C546 C555 1.429 . S
C547 C545 1.419 . S
C547 C548 1.363 . S
C547 H550 0.929 . S
C548 C547 1.363 . S
C548 C554 1.428 . S
H549 C545 0.930 . S
H550 C547 0.929 . S
S551 N552 1.613 . S
S551 N553 1.610 . S
N552 S551 1.613 . S
N552 C555 1.350 . S
N553 S551 1.610 . S
N553 C554 1.351 . S
C554 C548 1.428 . S
C554 N553 1.351 . S
C554 C555 1.434 . S
C555 C546 1.429 . S
C555 N552 1.350 . S
C555 C554 1.434 . S
C556 C557 1.369 . S
C556 C558 1.419 . S
C556 H560 0.930 . S
C557 C556 1.369 . S
C557 C566 1.429 . S
C558 C556 1.419 . S
C558 C559 1.363 . S
C558 H561 0.929 . S
C559 C558 1.363 . S
C559 C565 1.428 . S
H560 C556 0.930 . S
H561 C558 0.929 . S
S562 N563 1.613 . S
S562 N564 1.610 . S
N563 S562 1.613 . S
N563 C566 1.350 . S
N564 S562 1.610 . S
N564 C565 1.351 . S
C565 C559 1.428 . S
C565 N564 1.351 . S
C565 C566 1.434 . S
C566 C557 1.429 . S
C566 N563 1.350 . S
C566 C565 1.434 . S
C567 C568 1.369 . S
C567 C569 1.419 . S
C567 H571 0.930 . S
C568 C567 1.369 . S
C568 C577 1.429 . S
C569 C567 1.419 . S
C569 C570 1.363 . S
C569 H572 0.929 . S
C570 C569 1.363 . S
C570 C576 1.428 . S
H571 C567 0.930 . S
H572 C569 0.929 . S
S573 N574 1.613 . S
S573 N575 1.610 . S
N574 S573 1.613 . S
N574 C577 1.350 . S
N575 S573 1.610 . S
N575 C576 1.351 . S
C576 C570 1.428 . S
C576 N575 1.351 . S
C576 C577 1.434 . S
C577 C568 1.429 . S
C577 N574 1.350 . S
C577 C576 1.434 . S
C578 C579 1.369 . S
C578 C580 1.419 . S
C578 H582 0.930 . S
C579 C578 1.369 . S
C579 C588 1.429 . S
C580 C578 1.419 . S
C580 C581 1.363 . S
C580 H583 0.929 . S
C581 C580 1.363 . S
C581 C587 1.428 . S
H582 C578 0.930 . S
H583 C580 0.929 . S
S584 N585 1.613 . S
S584 N586 1.610 . S
N585 S584 1.613 . S
N585 C588 1.350 . S
N586 S584 1.610 . S
N586 C587 1.351 . S
C587 C581 1.428 . S
C587 N586 1.351 . S
C587 C588 1.434 . S
C588 C579 1.429 . S
C588 N585 1.350 . S
C588 C587 1.434 . S
C589 C590 1.369 . S
C589 C591 1.419 . S
C589 H593 0.930 . S
C590 C589 1.369 . S
C590 C599 1.429 . S
C591 C589 1.419 . S
C591 C592 1.363 . S
C591 H594 0.929 . S
C592 C591 1.363 . S
C592 C598 1.428 . S
H593 C589 0.930 . S
H594 C591 0.929 . S
S595 N596 1.613 . S
S595 N597 1.610 . S
N596 S595 1.613 . S
N596 C599 1.350 . S
N597 S595 1.610 . S
N597 C598 1.351 . S
C598 C592 1.428 . S
C598 N597 1.351 . S
C598 C599 1.434 . S
C599 C590 1.429 . S
C599 N596 1.350 . S
C599 C598 1.434 . S
C337 C29 1.576 . S
C339 C275 1.511 . S
C348 C49 1.229 . S
C350 C278 1.235 . S
C361 C314 1.822 . S
C359 C93 1.814 . S
C370 C119 1.677 . S
C372 C334 1.648 . S
C383 C288 1.610 . S
C381 C17 1.647 . S
C394 C265 1.509 . S
C392 C61 1.489 . S
C405 C318 1.567 . S
C403 C81 1.687 . S
C416 C298 1.417 . S
C414 C125 1.532 . S
C425 C23 1.380 . S
C427 C328 1.301 . S
C438 C294 1.647 . S
C436 C87 1.642 . S
C447 C113 1.661 . S
C449 C260 1.607 . S
C458 C55 1.299 . S
C460 C308 1.292 . S
C471 C274 1.464 . S
C469 C157 1.397 . S
C480 C189 1.287 . S
C482 C280 1.249 . S
C491 C221 1.762 . S
C493 C315 1.799 . S
C502 C253 1.728 . S
C504 C335 1.701 . S
C513 C145 1.617 . S
C515 C285 1.651 . S
C526 C268 1.443 . S
C524 C183 1.445 . S
C537 C320 1.592 . S
C535 C209 1.672 . S
C548 C300 1.396 . S
C546 C247 1.502 . S
C557 C151 1.303 . S
C559 C325 1.293 . S
C570 C295 1.634 . S
C568 C215 1.606 . S
C581 C258 1.626 . S
C579 C241 1.641 . S
C590 C177 1.328 . S
C592 C305 1.319 . S
