# Generated by pormake.
# Topology cml, (3,6)-cn, num edge types: 1
# Building blocks:
#     Node 0, Type 0, BuildingBlock: QEWDON_clean_linker_0, # of connection points: 3
#     Node 1, Type 0, BuildingBlock: QEWDON_clean_linker_0, # of connection points: 3
#     Node 2, Type 0, BuildingBlock: QEWDON_clean_linker_0, # of connection points: 3
#     Node 3, Type 0, BuildingBlock: QEWDON_clean_linker_0, # of connection points: 3
#     Node 4, Type 0, BuildingBlock: QEWDON_clean_linker_0, # of connection points: 3
#     Node 5, Type 0, BuildingBlock: QEWDON_clean_linker_0, # of connection points: 3
#     Node 6, Type 0, BuildingBlock: QEWDON_clean_linker_0, # of connection points: 3
#     Node 7, Type 0, BuildingBlock: QEWDON_clean_linker_0, # of connection points: 3
#     Node 8, Type 1, BuildingBlock: OJICUG_clean_sbu_0, # of connection points: 6
#     Node 9, Type 1, BuildingBlock: OJICUG_clean_sbu_0, # of connection points: 6
#     Node 10, Type 1, BuildingBlock: OJICUG_clean_sbu_0, # of connection points: 6
#     Node 11, Type 1, BuildingBlock: OJICUG_clean_sbu_0, # of connection points: 6
#     Edge 12, Type (0, 1), BuildingBlock: UVAHIK_clean_linker_0, # of connection points: 2
#     Edge 13, Type (0, 1), BuildingBlock: UVAHIK_clean_linker_0, # of connection points: 2
#     Edge 14, Type (0, 1), BuildingBlock: UVAHIK_clean_linker_0, # of connection points: 2
#     Edge 15, Type (0, 1), BuildingBlock: UVAHIK_clean_linker_0, # of connection points: 2
#     Edge 16, Type (0, 1), BuildingBlock: UVAHIK_clean_linker_0, # of connection points: 2
#     Edge 17, Type (0, 1), BuildingBlock: UVAHIK_clean_linker_0, # of connection points: 2
#     Edge 18, Type (0, 1), BuildingBlock: UVAHIK_clean_linker_0, # of connection points: 2
#     Edge 19, Type (0, 1), BuildingBlock: UVAHIK_clean_linker_0, # of connection points: 2
#     Edge 20, Type (0, 1), BuildingBlock: UVAHIK_clean_linker_0, # of connection points: 2
#     Edge 21, Type (0, 1), BuildingBlock: UVAHIK_clean_linker_0, # of connection points: 2
#     Edge 22, Type (0, 1), BuildingBlock: UVAHIK_clean_linker_0, # of connection points: 2
#     Edge 23, Type (0, 1), BuildingBlock: UVAHIK_clean_linker_0, # of connection points: 2
#     Edge 24, Type (0, 1), BuildingBlock: UVAHIK_clean_linker_0, # of connection points: 2
#     Edge 25, Type (0, 1), BuildingBlock: UVAHIK_clean_linker_0, # of connection points: 2
#     Edge 26, Type (0, 1), BuildingBlock: UVAHIK_clean_linker_0, # of connection points: 2
#     Edge 27, Type (0, 1), BuildingBlock: UVAHIK_clean_linker_0, # of connection points: 2
#     Edge 28, Type (0, 1), BuildingBlock: UVAHIK_clean_linker_0, # of connection points: 2
#     Edge 29, Type (0, 1), BuildingBlock: UVAHIK_clean_linker_0, # of connection points: 2
#     Edge 30, Type (0, 1), BuildingBlock: UVAHIK_clean_linker_0, # of connection points: 2
#     Edge 31, Type (0, 1), BuildingBlock: UVAHIK_clean_linker_0, # of connection points: 2
#     Edge 32, Type (0, 1), BuildingBlock: UVAHIK_clean_linker_0, # of connection points: 2
#     Edge 33, Type (0, 1), BuildingBlock: UVAHIK_clean_linker_0, # of connection points: 2
#     Edge 34, Type (0, 1), BuildingBlock: UVAHIK_clean_linker_0, # of connection points: 2
#     Edge 35, Type (0, 1), BuildingBlock: UVAHIK_clean_linker_0, # of connection points: 2
# Relax obj value: 0.004
# Max RMSD: 0.112
# Mean RMSD: 0.081
data_MOF--net-cml--node1-OJICUG_clean_sbu_0--node2-QEWDON_clean_linker_0--edge1-UVAHIK_clean_linker_0
_symmetry_space_group_name_H-M    P1
_symmetry_Int_Tables_number       1
_symmetry_cell_setting            triclinic
loop_
_symmetry_equiv_pos_as_xyz
'x, y, z'
_cell_length_a     54.564024
_cell_length_b     51.909366
_cell_length_c     45.736797
_cell_angle_alpha  90.002273
_cell_angle_beta   90.033045
_cell_angle_gamma 89.862618
loop_
_atom_site_label
_atom_site_type_symbol
_atom_site_fract_x
_atom_site_fract_y
_atom_site_fract_z
_atom_type_partial_charge
H0 H 0.25476 0.42558 0.98142 0.0
C1 C 0.26325 0.42056 0.00209 0.0
C2 C 0.28835 0.42511 0.00649 0.0
C3 C 0.24892 0.41011 0.02462 0.0
H4 H 0.31809 0.42295 0.0375 0.0
C5 C 0.29886 0.41897 0.03363 0.0
C6 C 0.28468 0.40856 0.05626 0.0
C7 C 0.25968 0.40397 0.05161 0.0
C8 C 0.2223 0.40748 0.02065 0.0
H9 H 0.24847 0.3964 0.06918 0.0
C10 C 0.21266 0.38704 0.00423 0.0
C11 C 0.18725 0.38518 -0.00032 0.0
C12 C 0.20649 0.42593 0.03278 0.0
H13 H 0.21372 0.4418 0.04551 0.0
C14 C 0.18126 0.42421 0.0282 0.0
H15 H 0.22491 0.37279 0.99484 0.0
C16 C 0.17165 0.40402 0.01162 0.0
H17 H 0.152 0.4029 0.00848 0.0
H18 H 0.16912 0.43855 0.03749 0.0
H19 H 0.75104 0.57413 0.48618 0.0
C20 C 0.74062 0.58156 0.50453 0.0
C21 C 0.71525 0.57743 0.506 0.0
C22 C 0.75263 0.59471 0.52722 0.0
H23 H 0.68254 0.58266 0.5317 0.0
C24 C 0.70205 0.58642 0.53024 0.0
C25 C 0.71398 0.59908 0.55327 0.0
C26 C 0.73927 0.60347 0.55148 0.0
C27 C 0.77941 0.59788 0.52676 0.0
H28 H 0.74873 0.61285 0.56941 0.0
C29 C 0.79022 0.61686 0.50918 0.0
C30 C 0.81572 0.62096 0.51013 0.0
C31 C 0.7941 0.58264 0.54503 0.0
H32 H 0.78594 0.56803 0.55884 0.0
C33 C 0.81941 0.58626 0.5457 0.0
H34 H 0.77871 0.62855 0.4951 0.0
C35 C 0.83019 0.60533 0.52849 0.0
H36 H 0.84979 0.60821 0.5301 0.0
H37 H 0.83069 0.57449 0.55991 0.0
H38 H 0.70967 0.35591 0.95874 0.0
C39 C 0.70582 0.35789 0.98188 0.0
C40 C 0.696 0.38104 0.99273 0.0
C41 C 0.70948 0.33688 0.00072 0.0
H42 H 0.68112 0.40041 0.03029 0.0
C43 C 0.68997 0.383 0.02248 0.0
C44 C 0.693 0.36194 0.04143 0.0
C45 C 0.70318 0.33905 0.03036 0.0
C46 C 0.71696 0.31154 0.98915 0.0
H47 H 0.70557 0.32253 0.04459 0.0
C48 C 0.74129 0.3067 0.9806 0.0
C49 C 0.74849 0.28168 0.9722 0.0
C50 C 0.69974 0.29152 0.98846 0.0
H51 H 0.68095 0.29494 0.99509 0.0
C52 C 0.70666 0.26691 0.97943 0.0
H53 H 0.75471 0.32204 0.98165 0.0
C54 C 0.73089 0.26193 0.97152 0.0
H55 H 0.73589 0.24261 0.96481 0.0
H56 H 0.69326 0.25157 0.9789 0.0
H57 H 0.29316 0.64103 0.46036 0.0
C58 C 0.2979 0.64113 0.48338 0.0
C59 C 0.30779 0.61886 0.49647 0.0
C60 C 0.29543 0.66399 0.49958 0.0
H61 H 0.32347 0.60309 0.53585 0.0
C62 C 0.31459 0.6197 0.52611 0.0
C63 C 0.31217 0.64237 0.54259 0.0
C64 C 0.30245 0.66443 0.52912 0.0
C65 C 0.28849 0.68836 0.48503 0.0
H66 H 0.30081 0.68222 0.5414 0.0
C67 C 0.26506 0.6919 0.47275 0.0
C68 C 0.25863 0.7157 0.4599 0.0
C69 C 0.30553 0.70855 0.4841 0.0
H70 H 0.32365 0.70615 0.49344 0.0
C71 C 0.2994 0.73194 0.47107 0.0
H72 H 0.25189 0.67632 0.47353 0.0
C73 C 0.27613 0.73558 0.45914 0.0
H74 H 0.27167 0.75422 0.4499 0.0
H75 H 0.31263 0.74743 0.4705 0.0
H76 H 0.76612 0.93198 0.97644 0.0
C77 C 0.7717 0.92295 0.99676 0.0
C78 C 0.79499 0.92811 0.00834 0.0
C79 C 0.75528 0.90673 0.01165 0.0
H80 H 0.81964 0.92077 0.04427 0.0
C81 C 0.80168 0.91693 0.03507 0.0
C82 C 0.78556 0.90067 0.05012 0.0
C83 C 0.76248 0.89516 0.03812 0.0
C84 C 0.73007 0.90356 0.00034 0.0
H85 H 0.74979 0.88301 0.05 0.0
C86 C 0.72041 0.87898 0.99452 0.0
C87 C 0.69706 0.87651 0.98171 0.0
C88 C 0.71587 0.92554 0.99428 0.0
H89 H 0.7229 0.94463 -0.0012 0.0
C90 C 0.69247 0.9231 0.98237 0.0
H91 H 0.73143 0.86197 -0.0013 0.0
C92 C 0.68315 0.89878 0.97591 0.0
H93 H 0.66504 0.89734 0.96635 0.0
H94 H 0.68163 0.94013 0.97783 0.0
H95 H 0.23791 0.0795 0.46367 0.0
C96 C 0.22932 0.08675 0.48341 0.0
C97 C 0.20419 0.0828 0.48815 0.0
C98 C 0.24364 0.09958 0.50434 0.0
H99 H 0.17449 0.08782 0.51875 0.0
C100 C 0.19366 0.09163 0.51429 0.0
C101 C 0.20783 0.1042 0.53552 0.0
C102 C 0.2328 0.10863 0.53022 0.0
C103 C 0.27041 0.10058 0.50057 0.0
H104 H 0.24403 0.11766 0.54686 0.0
C105 C 0.28209 0.12335 0.49165 0.0
C106 C 0.30746 0.12333 0.48604 0.0
C107 C 0.2842 0.07803 0.50466 0.0
H108 H 0.27539 0.06034 0.51149 0.0
C109 C 0.30942 0.07811 0.49981 0.0
H110 H 0.27136 0.14066 0.48801 0.0
C111 C 0.321 0.10055 0.49039 0.0
H112 H 0.34058 0.10013 0.48646 0.0
H113 H 0.31999 0.06067 0.50304 0.0
H114 H 0.2155 0.86537 0.94918 0.0
C115 C 0.20785 0.86643 0.97101 0.0
C116 C 0.1985 0.88994 0.98168 0.0
C117 C 0.20584 0.84386 0.98774 0.0
H118 H 0.18078 0.90852 0.01819 0.0
C119 C 0.18825 0.89062 0.0099 0.0
C120 C 0.18575 0.86812 0.02668 0.0
C121 C 0.19479 0.84483 0.01541 0.0
C122 C 0.21221 0.81854 0.97515 0.0
H123 H 0.19221 0.82707 0.02748 0.0
C124 C 0.23667 0.81185 0.96908 0.0
C125 C 0.24248 0.78669 0.95981 0.0
C126 C 0.19358 0.80031 0.97085 0.0
H127 H 0.17463 0.80518 0.9754 0.0
C128 C 0.19923 0.77563 0.96089 0.0
H129 H 0.25116 0.82572 0.97283 0.0
C130 C 0.22353 0.76875 0.95562 0.0
H131 H 0.22757 0.74936 0.94826 0.0
H132 H 0.18477 0.76169 0.95763 0.0
H133 H 0.79124 0.13519 0.4584 0.0
C134 C 0.79575 0.13474 0.48147 0.0
C135 C 0.8061 0.11242 0.49398 0.0
C136 C 0.79262 0.15713 0.49829 0.0
H137 H 0.82183 0.09626 0.53321 0.0
C138 C 0.81249 0.11273 0.52379 0.0
C139 C 0.80912 0.13489 0.54096 0.0
C140 C 0.799 0.15697 0.52799 0.0
C141 C 0.78613 0.18183 0.48426 0.0
H142 H 0.79672 0.17442 0.54074 0.0
C143 C 0.76275 0.1861 0.47225 0.0
C144 C 0.75675 0.21027 0.46004 0.0
C145 C 0.80361 0.20161 0.48366 0.0
H146 H 0.82171 0.19863 0.49283 0.0
C147 C 0.7979 0.22538 0.47124 0.0
H148 H 0.74927 0.1708 0.47278 0.0
C149 C 0.77465 0.22977 0.45962 0.0
H150 H 0.77053 0.24869 0.4509 0.0
H151 H 0.81146 0.24057 0.47095 0.0
Sc152 Sc 0.98978 0.83204 0.31692 0.0
Sc153 Sc 0.98759 0.89971 0.31323 0.0
Sc154 Sc 0.99057 0.86896 0.3818 0.0
O155 O 0.9893 0.86688 0.33735 0.0
C156 C 0.95539 0.82052 0.37173 0.0
C157 C 0.94986 0.86343 0.27975 0.0
C158 C 0.95274 0.91399 0.36727 0.0
C159 C 0.02329 0.86495 0.27419 0.0
C160 C 0.02877 0.82365 0.36844 0.0
C161 C 0.02599 0.91522 0.36241 0.0
O162 O 0.96252 0.81635 0.34571 0.0
O163 O 0.95729 0.8855 0.2879 0.0
O164 O 0.96063 0.89637 0.38422 0.0
O165 O 0.01728 0.84368 0.28584 0.0
O166 O 0.02071 0.84198 0.38426 0.0
O167 O 0.0177 0.91698 0.33649 0.0
O168 O 0.01915 0.81763 0.34403 0.0
O169 O 0.01355 0.88629 0.2813 0.0
O170 O 0.01738 0.89951 0.38114 0.0
O171 O 0.9603 0.84256 0.28756 0.0
O172 O 0.96412 0.83846 0.38756 0.0
O173 O 0.96139 0.91759 0.34183 0.0
Sc174 Sc 0.01101 0.16769 0.81781 0.0
Sc175 Sc 0.01144 0.09985 0.81704 0.0
Sc176 Sc 0.01708 0.13303 0.8839 0.0
O177 O 0.01321 0.13354 0.83961 0.0
C178 C 0.05039 0.18126 0.86721 0.0
C179 C 0.04582 0.13462 0.77627 0.0
C180 C 0.05303 0.08751 0.8645 0.0
C181 C 0.97222 0.13362 0.78247 0.0
C182 C 0.97733 0.1778 0.87374 0.0
C183 C 0.97973 0.0864 0.87344 0.0
O184 O 0.03979 0.18521 0.84289 0.0
O185 O 0.03735 0.11309 0.78488 0.0
O186 O 0.04652 0.10496 0.88248 0.0
O187 O 0.98162 0.15502 0.78984 0.0
O188 O 0.98786 0.16086 0.88957 0.0
O189 O 0.98539 0.08304 0.84677 0.0
O190 O 0.98361 0.18235 0.84743 0.0
O191 O 0.98075 0.11211 0.79099 0.0
O192 O 0.98993 0.10331 0.88942 0.0
O193 O 0.03836 0.15612 0.78632 0.0
O194 O 0.04454 0.16287 0.88414 0.0
O195 O 0.04184 0.08349 0.84055 0.0
Sc196 Sc 0.49318 0.3417 0.32311 0.0
Sc197 Sc 0.49482 0.40954 0.32407 0.0
Sc198 Sc 0.49409 0.37482 0.39043 0.0
O199 O 0.494 0.37535 0.3459 0.0
C200 C 0.45726 0.32881 0.37643 0.0
C201 C 0.45646 0.37679 0.28636 0.0
C202 C 0.4582 0.42225 0.37663 0.0
C203 C 0.53027 0.37526 0.28464 0.0
C204 C 0.53054 0.32834 0.37458 0.0
C205 C 0.53193 0.4202 0.37652 0.0
O206 O 0.46589 0.32493 0.35101 0.0
O207 O 0.46629 0.39784 0.29435 0.0
O208 O 0.46621 0.40453 0.3934 0.0
O209 O 0.52069 0.35405 0.29241 0.0
O210 O 0.52201 0.34519 0.3921 0.0
O211 O 0.52323 0.42519 0.35138 0.0
O212 O 0.52221 0.32508 0.34887 0.0
O213 O 0.52318 0.39688 0.29459 0.0
O214 O 0.52344 0.40258 0.39295 0.0
O215 O 0.46389 0.35491 0.29522 0.0
O216 O 0.46511 0.34656 0.39315 0.0
O217 O 0.46677 0.42615 0.35118 0.0
Sc218 Sc 0.51037 0.6632 0.8291 0.0
Sc219 Sc 0.50884 0.5955 0.82437 0.0
Sc220 Sc 0.50979 0.62552 0.89347 0.0
O221 O 0.50971 0.62808 0.84901 0.0
C222 C 0.54706 0.6719 0.88285 0.0
C223 C 0.54648 0.63069 0.78867 0.0
C224 C 0.54572 0.57935 0.87545 0.0
C225 C 0.47286 0.63222 0.78848 0.0
C226 C 0.47334 0.67294 0.882 0.0
C227 C 0.47205 0.5811 0.87607 0.0
O228 O 0.53827 0.67761 0.85794 0.0
O229 O 0.53682 0.60922 0.79532 0.0
O230 O 0.53732 0.5955 0.89388 0.0
O231 O 0.48246 0.65297 0.79778 0.0
O232 O 0.48201 0.65491 0.89781 0.0
O233 O 0.48068 0.578 0.85052 0.0
O234 O 0.48158 0.67812 0.85666 0.0
O235 O 0.48011 0.61006 0.79658 0.0
O236 O 0.48059 0.59758 0.89394 0.0
O237 O 0.53924 0.65199 0.79941 0.0
O238 O 0.53894 0.65337 0.89823 0.0
O239 O 0.53751 0.57741 0.84952 0.0
C240 C 0.16049 0.36837 0.95974 0.0
C241 C 0.17684 0.36355 0.98277 0.0
C242 C 0.14946 0.348 0.94484 0.0
C243 C 0.15203 0.27665 0.93403 0.0
H244 H 0.08428 0.28691 0.91106 0.0
C245 C 0.08343 0.19537 0.90205 0.0
C246 C 0.06899 0.20011 0.8771 0.0
C247 C 0.0991 0.21441 0.91292 0.0
C248 C 0.10327 0.28386 0.91711 0.0
H249 H 0.19484 0.33383 0.00815 0.0
H250 H 0.17488 0.2981 0.98294 0.0
H251 H 0.10653 0.32191 0.93415 0.0
H252 H 0.06052 0.22827 0.8434 0.0
H253 H 0.08754 0.26143 0.86269 0.0
H254 H 0.14808 0.23802 0.91787 0.0
C255 C 0.17101 0.31755 0.97573 0.0
C256 C 0.11612 0.30397 0.93022 0.0
C257 C 0.18238 0.33798 0.9903 0.0
C258 C 0.07129 0.22393 0.86269 0.0
C259 C 0.08668 0.243 0.87377 0.0
C260 C 0.13898 0.25635 0.92128 0.0
C261 C 0.15415 0.3223 0.95303 0.0
C262 C 0.14072 0.30073 0.93874 0.0
C263 C 0.10037 0.2386 0.89927 0.0
C264 C 0.11453 0.25986 0.91258 0.0
H265 H 0.1562 0.38796 0.9533 0.0
H266 H 0.13712 0.35246 0.92699 0.0
H267 H 0.17102 0.2735 0.93994 0.0
H268 H 0.0822 0.1772 0.91358 0.0
H269 H 0.10944 0.2106 0.93269 0.0
C270 C 0.81571 0.6662 0.49048 0.0
C271 C 0.82718 0.64199 0.49287 0.0
C272 C 0.82712 0.68637 0.47554 0.0
C273 C 0.86224 0.72953 0.4598 0.0
H274 H 0.90106 0.71599 0.39051 0.0
C275 C 0.93329 0.80173 0.41482 0.0
C276 C 0.93694 0.80288 0.38443 0.0
C277 C 0.91749 0.78342 0.42689 0.0
C278 C 0.89004 0.72025 0.40959 0.0
H279 H 0.85934 0.61985 0.48063 0.0
H280 H 0.87953 0.65514 0.45539 0.0
H281 H 0.87762 0.68131 0.41254 0.0
H282 H 0.92582 0.7866 0.34278 0.0
H283 H 0.89789 0.75518 0.36375 0.0
H284 H 0.87436 0.76861 0.45652 0.0
C285 C 0.86156 0.6585 0.46471 0.0
C286 C 0.87685 0.70023 0.42248 0.0
C287 C 0.85012 0.63832 0.47953 0.0
C288 C 0.92368 0.78603 0.36632 0.0
C289 C 0.90775 0.7679 0.37835 0.0
C290 C 0.87534 0.74961 0.4468 0.0
C291 C 0.8503 0.68283 0.46271 0.0
C292 C 0.86305 0.70453 0.44796 0.0
C293 C 0.90482 0.76601 0.40882 0.0
C294 C 0.88963 0.74515 0.42172 0.0
H295 H 0.79816 0.66979 0.50076 0.0
H296 H 0.81779 0.70477 0.47412 0.0
H297 H 0.85198 0.7335 0.47956 0.0
H298 H 0.94325 0.81437 0.42942 0.0
H299 H 0.9159 0.78235 0.45045 0.0
C300 C 0.78744 0.29066 0.94475 0.0
C301 C 0.77435 0.27565 0.96495 0.0
C302 C 0.81118 0.28351 0.93634 0.0
C303 C 0.86452 0.24399 0.95821 0.0
H304 H 0.87703 0.23887 0.87499 0.0
C305 C 0.94467 0.18397 0.91179 0.0
C306 C 0.95629 0.19234 0.88608 0.0
C307 C 0.92396 0.19682 0.92245 0.0
C308 C 0.8741 0.24061 0.89832 0.0
H309 H 0.77617 0.2422 0.99322 0.0
H310 H 0.81758 0.22984 0.97875 0.0
H311 H 0.83858 0.2574 0.89212 0.0
H312 H 0.95567 0.22142 0.85199 0.0
H313 H 0.92002 0.24417 0.87097 0.0
H314 H 0.89996 0.22717 0.96453 0.0
C315 C 0.80954 0.24703 0.9693 0.0
C316 C 0.85201 0.25122 0.90811 0.0
C317 C 0.78576 0.25397 0.97739 0.0
C318 C 0.94706 0.21428 0.87171 0.0
C319 C 0.9265 0.22727 0.88252 0.0
C320 C 0.88672 0.23359 0.94845 0.0
C321 C 0.82237 0.26147 0.94836 0.0
C322 C 0.84681 0.25263 0.93814 0.0
C323 C 0.91448 0.21853 0.90783 0.0
C324 C 0.89164 0.23135 0.91835 0.0
H325 H 0.77902 0.30743 0.9348 0.0
H326 H 0.82072 0.29508 0.92029 0.0
H327 H 0.86113 0.24512 0.98151 0.0
H328 H 0.95116 0.16705 0.92333 0.0
H329 H 0.91501 0.18924 0.94173 0.0
C330 C 0.21272 0.71283 0.46418 0.0
C331 C 0.23353 0.72057 0.44837 0.0
C332 C 0.18923 0.72017 0.45501 0.0
C333 C 0.14494 0.75429 0.4428 0.0
H334 H 0.1282 0.7608 0.36074 0.0
C335 C 0.06419 0.81727 0.4029 0.0
C336 C 0.05059 0.80896 0.37854 0.0
C337 C 0.08525 0.80395 0.41172 0.0
C338 C 0.13238 0.75883 0.38378 0.0
H339 H 0.24586 0.74082 0.40963 0.0
H340 H 0.20515 0.75407 0.39404 0.0
H341 H 0.16668 0.74046 0.3747 0.0
H342 H 0.04829 0.77963 0.34481 0.0
H343 H 0.08467 0.75621 0.36051 0.0
H344 H 0.11049 0.7724 0.45188 0.0
C345 C 0.20682 0.74219 0.41341 0.0
C346 C 0.15463 0.74742 0.39178 0.0
C347 C 0.23024 0.73483 0.42253 0.0
C348 C 0.05837 0.78673 0.36355 0.0
C349 C 0.07935 0.77334 0.37247 0.0
C350 C 0.12264 0.76562 0.4348 0.0
C351 C 0.18603 0.73538 0.4298 0.0
C352 C 0.16138 0.74535 0.42138 0.0
C353 C 0.09319 0.78189 0.39652 0.0
C354 C 0.11622 0.76838 0.40517 0.0
H355 H 0.21462 0.70195 0.48426 0.0
H356 H 0.1736 0.71427 0.46793 0.0
H357 H 0.1496 0.75328 0.46579 0.0
H358 H 0.05885 0.83436 0.41491 0.0
H359 H 0.09563 0.81135 0.43006 0.0
C360 C 0.67785 0.84751 0.94481 0.0
C361 C 0.68737 0.851 0.97305 0.0
C362 C 0.66729 0.82413 0.93678 0.0
C363 C 0.63462 0.76945 0.96709 0.0
H364 H 0.64442 0.74087 0.88962 0.0
C365 C 0.57632 0.68452 0.92305 0.0
C366 C 0.56727 0.68805 0.8945 0.0
C367 C 0.59454 0.70077 0.93419 0.0
C368 C 0.64143 0.74863 0.91131 0.0
H369 H 0.69382 0.83267 0.0149 0.0
H370 H 0.67488 0.79156 0.0009 0.0
H371 H 0.67037 0.77606 0.90646 0.0
H372 H 0.57083 0.71114 0.85511 0.0
H373 H 0.6021 0.7394 0.87456 0.0
H374 H 0.60496 0.74278 0.97148 0.0
C375 C 0.67572 0.80701 0.98503 0.0
C376 C 0.65634 0.76872 0.92097 0.0
C377 C 0.68664 0.8304 0.99297 0.0
C378 C 0.57727 0.7078 0.8772 0.0
C379 C 0.59543 0.72393 0.88828 0.0
C380 C 0.61958 0.74939 0.95736 0.0
C381 C 0.6658 0.80373 0.95688 0.0
C382 C 0.65264 0.77984 0.94862 0.0
C383 C 0.60418 0.72078 0.91697 0.0
C384 C 0.62235 0.73928 0.92901 0.0
H385 H 0.67838 0.86302 0.92897 0.0
H386 H 0.65956 0.82232 0.91505 0.0
H387 H 0.63124 0.77776 0.98844 0.0
H388 H 0.5691 0.66947 0.93697 0.0
H389 H 0.60103 0.69772 0.9563 0.0
C390 C 0.33509 0.14444 0.44992 0.0
C391 C 0.31989 0.14653 0.47453 0.0
C392 C 0.34809 0.16571 0.43977 0.0
C393 C 0.35296 0.23705 0.44457 0.0
H394 H 0.41843 0.22303 0.41558 0.0
C395 C 0.42661 0.31475 0.41446 0.0
C396 C 0.43842 0.31068 0.38748 0.0
C397 C 0.41042 0.2963 0.42567 0.0
C398 C 0.40013 0.22722 0.42348 0.0
H399 H 0.30581 0.1726 0.50747 0.0
H400 H 0.32915 0.20989 0.49021 0.0
H401 H 0.39374 0.18789 0.43448 0.0
H402 H 0.44168 0.28434 0.35073 0.0
H403 H 0.41385 0.25231 0.37046 0.0
H404 H 0.35995 0.2767 0.43396 0.0
C405 C 0.33071 0.19187 0.47843 0.0
C406 C 0.38589 0.20707 0.43418 0.0
C407 C 0.3174 0.17054 0.48839 0.0
C408 C 0.43306 0.28816 0.37161 0.0
C409 C 0.41718 0.2697 0.38295 0.0
C410 C 0.36742 0.25735 0.43414 0.0
C411 C 0.34653 0.18958 0.45423 0.0
C412 C 0.36193 0.21159 0.44436 0.0
C413 C 0.40603 0.27335 0.41027 0.0
C414 C 0.39097 0.25249 0.42303 0.0
H415 H 0.33696 0.12624 0.43851 0.0
H416 H 0.35948 0.16336 0.42057 0.0
H417 H 0.33456 0.24123 0.45209 0.0
H418 H 0.43022 0.33193 0.42719 0.0
H419 H 0.40204 0.29953 0.44683 0.0
C420 C 0.2839 0.792 0.93674 0.0
C421 C 0.26821 0.77846 0.95553 0.0
C422 C 0.30741 0.78248 0.93067 0.0
C423 C 0.3423 0.72102 0.93286 0.0
H424 H 0.39852 0.76475 0.9184 0.0
C425 C 0.43893 0.67903 0.91768 0.0
C426 C 0.45192 0.68768 0.89302 0.0
C427 C 0.41763 0.69166 0.92678 0.0
C428 C 0.38291 0.75235 0.92228 0.0
H429 H 0.26512 0.74544 0.98419 0.0
H430 H 0.30624 0.72931 0.97455 0.0
H431 H 0.35931 0.78421 0.93222 0.0
H432 H 0.45312 0.71709 0.85929 0.0
H433 H 0.41595 0.73923 0.87542 0.0
H434 H 0.36591 0.6892 0.92323 0.0
C435 C 0.30028 0.74668 0.96352 0.0
C436 C 0.36044 0.76347 0.9301 0.0
C437 C 0.27677 0.75598 0.96922 0.0
C438 C 0.44353 0.70983 0.8783 0.0
C439 C 0.42232 0.72262 0.88761 0.0
C440 C 0.36475 0.70995 0.92538 0.0
C441 C 0.31571 0.75941 0.9436 0.0
C442 C 0.33983 0.74791 0.93553 0.0
C443 C 0.40893 0.71338 0.91162 0.0
C444 C 0.3853 0.72546 0.92001 0.0
H445 H 0.27764 0.80935 0.92587 0.0
H446 H 0.31869 0.7927 0.91507 0.0
H447 H 0.32675 0.70842 0.93608 0.0
H448 H 0.44482 0.66207 0.92958 0.0
H449 H 0.40781 0.68428 0.94556 0.0
C450 C 0.71085 0.20809 0.46459 0.0
C451 C 0.7317 0.21591 0.4489 0.0
C452 C 0.68744 0.21611 0.45589 0.0
C453 C 0.64376 0.25141 0.44552 0.0
H454 H 0.627 0.26164 0.36397 0.0
C455 C 0.56508 0.31868 0.40925 0.0
C456 C 0.55148 0.31215 0.38422 0.0
C457 C 0.58553 0.30409 0.41746 0.0
C458 C 0.63116 0.25861 0.38687 0.0
H459 H 0.74415 0.23697 0.41078 0.0
H460 H 0.70363 0.25148 0.3961 0.0
H461 H 0.66489 0.2396 0.37665 0.0
H462 H 0.54832 0.28458 0.34873 0.0
H463 H 0.58357 0.25887 0.36341 0.0
H464 H 0.60983 0.27009 0.45572 0.0
C465 C 0.70519 0.239 0.41498 0.0
C466 C 0.65309 0.24624 0.39415 0.0
C467 C 0.72851 0.23093 0.42361 0.0
C468 C 0.55849 0.29032 0.36799 0.0
C469 C 0.57881 0.27562 0.37633 0.0
C470 C 0.62173 0.26365 0.43824 0.0
C471 C 0.68438 0.23211 0.43131 0.0
C472 C 0.6599 0.24288 0.42356 0.0
C473 C 0.59278 0.28248 0.40097 0.0
C474 C 0.61534 0.26779 0.40881 0.0
H475 H 0.71267 0.19664 0.48427 0.0
H476 H 0.67179 0.21012 0.46872 0.0
H477 H 0.64848 0.2494 0.46841 0.0
H478 H 0.56029 0.33544 0.42217 0.0
H479 H 0.59604 0.31021 0.43629 0.0
C480 C 0.29498 0.46053 0.97007 0.0
C481 C 0.30349 0.43809 0.98398 0.0
C482 C 0.31076 0.47517 0.95269 0.0
C483 C 0.35291 0.51153 0.94024 0.0
H484 H 0.4047 0.48249 0.89238 0.0
C485 C 0.44097 0.56743 0.9134 0.0
C486 C 0.45106 0.56491 0.88527 0.0
C487 C 0.4212 0.55216 0.92202 0.0
C488 C 0.39019 0.49097 0.90537 0.0
H489 H 0.33454 0.41233 0.98882 0.0
H490 H 0.36215 0.43799 0.95892 0.0
H491 H 0.37235 0.4546 0.91099 0.0
H492 H 0.44797 0.5444 0.84402 0.0
H493 H 0.41343 0.51793 0.85907 0.0
H494 H 0.37076 0.54785 0.93472 0.0
C495 C 0.34333 0.44431 0.96127 0.0
C496 C 0.37177 0.47494 0.91624 0.0
C497 C 0.32758 0.42972 0.97864 0.0
C498 C 0.44078 0.54681 0.86592 0.0
C499 C 0.42101 0.53154 0.87456 0.0
C500 C 0.37131 0.52753 0.92937 0.0
C501 C 0.33532 0.46762 0.94881 0.0
C502 C 0.35317 0.48496 0.93424 0.0
C503 C 0.41102 0.53401 0.90272 0.0
C504 C 0.39042 0.51736 0.91228 0.0
H505 H 0.27653 0.46751 0.97388 0.0
H506 H 0.30394 0.49284 0.94302 0.0
H507 H 0.33903 0.51985 0.95429 0.0
H508 H 0.44839 0.58112 0.92891 0.0
H509 H 0.41418 0.55427 0.94403 0.0
C510 C 0.68217 0.57154 0.46896 0.0
C511 C 0.70243 0.56151 0.48411 0.0
C512 C 0.66705 0.55527 0.45266 0.0
C513 C 0.64314 0.49147 0.45642 0.0
H514 H 0.61979 0.50217 0.37729 0.0
C515 C 0.57025 0.4245 0.40619 0.0
C516 C 0.5531 0.43538 0.38689 0.0
C517 C 0.59056 0.43869 0.41548 0.0
C518 C 0.62581 0.49908 0.39957 0.0
H519 H 0.72336 0.52705 0.4936 0.0
H520 H 0.69647 0.49835 0.46558 0.0
H521 H 0.65218 0.52963 0.39683 0.0
H522 H 0.54353 0.46971 0.36245 0.0
H523 H 0.57808 0.49498 0.37983 0.0
H524 H 0.61601 0.46217 0.46022 0.0
C525 C 0.69257 0.51882 0.46595 0.0
C526 C 0.64455 0.51467 0.41058 0.0
C527 C 0.70799 0.53519 0.48175 0.0
C528 C 0.55656 0.46077 0.3772 0.0
C529 C 0.57656 0.47517 0.38699 0.0
C530 C 0.62408 0.47625 0.44569 0.0
C531 C 0.67167 0.52866 0.45186 0.0
C532 C 0.65329 0.51103 0.43912 0.0
C533 C 0.59391 0.46433 0.40623 0.0
C534 C 0.615 0.4799 0.41716 0.0
H535 H 0.67748 0.59177 0.47078 0.0
H536 H 0.65092 0.56324 0.44216 0.0
H537 H 0.64932 0.48859 0.4787 0.0
H538 H 0.56822 0.40482 0.4137 0.0
H539 H 0.60371 0.42938 0.42973 0.0
C540 C 0.67063 0.3977 0.95154 0.0
C541 C 0.68858 0.40213 0.97288 0.0
C542 C 0.65946 0.41838 0.93712 0.0
C543 C 0.64758 0.48813 0.94861 0.0
H544 H 0.61603 0.48172 0.87308 0.0
C545 C 0.56892 0.55571 0.91444 0.0
C546 C 0.5655 0.56154 0.88474 0.0
C547 C 0.5867 0.53785 0.9231 0.0
C548 C 0.62501 0.48415 0.894 0.0
H549 H 0.71027 0.43125 0.99457 0.0
H550 H 0.69192 0.46738 0.96823 0.0
H551 H 0.64394 0.44826 0.88954 0.0
H552 H 0.57871 0.55391 0.84087 0.0
H553 H 0.61039 0.52358 0.85599 0.0
H554 H 0.62938 0.52441 0.95266 0.0
C555 C 0.68563 0.44809 0.96332 0.0
C556 C 0.64079 0.46466 0.90369 0.0
C557 C 0.69642 0.42742 0.97816 0.0
C558 C 0.58072 0.54962 0.86393 0.0
C559 C 0.59881 0.53208 0.87262 0.0
C560 C 0.63215 0.5078 0.93872 0.0
C561 C 0.6663 0.44395 0.94344 0.0
C562 C 0.65187 0.46606 0.93144 0.0
C563 C 0.60187 0.52568 0.90232 0.0
C564 C 0.62015 0.50583 0.91159 0.0
H565 H 0.66404 0.37835 0.94745 0.0
H566 H 0.64449 0.41426 0.92232 0.0
H567 H 0.65541 0.48994 0.97026 0.0
H568 H 0.55736 0.56439 0.931 0.0
H569 H 0.58805 0.53312 0.94609 0.0
C570 C 0.31123 0.57088 0.49095 0.0
C571 C 0.31417 0.59564 0.47897 0.0
C572 C 0.32194 0.54944 0.4776 0.0
C573 C 0.35197 0.52542 0.41028 0.0
H574 H 0.39216 0.48633 0.46447 0.0
C575 C 0.43249 0.4621 0.37164 0.0
C576 C 0.43829 0.43948 0.38712 0.0
C577 C 0.41428 0.47883 0.3817 0.0
C578 C 0.38071 0.49661 0.44902 0.0
H579 H 0.32923 0.61696 0.4424 0.0
H580 H 0.34759 0.57944 0.41883 0.0
H581 H 0.3644 0.51918 0.48299 0.0
H582 H 0.42888 0.4164 0.425 0.0
H583 H 0.3967 0.44534 0.44225 0.0
H584 H 0.36839 0.50297 0.37626 0.0
C585 C 0.33702 0.57665 0.43861 0.0
C586 C 0.36478 0.51551 0.45968 0.0
C587 C 0.32641 0.59816 0.45208 0.0
C588 C 0.42506 0.43377 0.41267 0.0
C589 C 0.40665 0.45044 0.42262 0.0
C590 C 0.36775 0.50632 0.39962 0.0
C591 C 0.33567 0.55223 0.45182 0.0
C592 C 0.35053 0.53042 0.44041 0.0
C593 C 0.40117 0.47332 0.40739 0.0
C594 C 0.38268 0.49198 0.41882 0.0
H595 H 0.30155 0.56826 0.51141 0.0
H596 H 0.32021 0.53078 0.48799 0.0
H597 H 0.34103 0.53643 0.39494 0.0
H598 H 0.44235 0.46724 0.35194 0.0
H599 H 0.41096 0.49646 0.36966 0.0
C600 C 0.82545 0.9641 0.00896 0.0
C601 C 0.81227 0.94556 0.99307 0.0
C602 C 0.84283 0.97955 0.99514 0.0
C603 C 0.86347 0.00304 0.92293 0.0
H604 H 0.92458 0.01462 0.9642 0.0
C605 C 0.94759 0.05195 0.86934 0.0
C606 C 0.9603 0.07006 0.88647 0.0
C607 C 0.92922 0.03668 0.88167 0.0
C608 C 0.90753 0.01179 0.95251 0.0
H609 H 0.8066 0.92903 0.9501 0.0
H610 H 0.83716 0.956 0.92585 0.0
H611 H 0.89283 0.98842 0.98669 0.0
H612 H 0.96344 0.08633 0.93006 0.0
H613 H 0.93141 0.0598 0.9514 0.0
H614 H 0.87834 0.02641 0.88867 0.0
C615 C 0.83386 0.95873 0.94899 0.0
C616 C 0.8893 0.99679 0.96541 0.0
C617 C 0.81637 0.94329 0.96285 0.0
C618 C 0.95414 0.07253 0.91619 0.0
C619 C 0.93585 0.05722 0.92851 0.0
C620 C 0.88176 0.01803 0.90998 0.0
C621 C 0.84751 0.9768 0.96508 0.0
C622 C 0.86698 0.99238 0.95089 0.0
C623 C 0.9232 0.0391 0.91141 0.0
C624 C 0.90393 0.02271 0.92472 0.0
H625 H 0.82233 0.96666 0.03218 0.0
H626 H 0.85261 0.99368 0.00805 0.0
H627 H 0.84639 1.00022 0.91129 0.0
H628 H 0.95181 0.04951 0.84636 0.0
H629 H 0.91997 0.02271 0.86799 0.0
C630 C 0.16491 0.07507 0.46107 0.0
C631 C 0.18914 0.06763 0.46728 0.0
C632 C 0.14959 0.0591 0.4447 0.0
C633 C 0.12257 0.02572 0.40084 0.0
H634 H 0.12504 0.95359 0.42274 0.0
C635 C 0.05675 0.94991 0.35141 0.0
C636 C 0.04653 0.93222 0.37127 0.0
C637 C 0.0759 0.96611 0.35997 0.0
C638 C 0.12407 0.97368 0.41643 0.0
H639 H 0.21665 0.0381 0.46 0.0
H640 H 0.19006 0.01044 0.43083 0.0
H641 H 0.15543 0.98324 0.44222 0.0
H642 H 0.04868 0.91772 0.41574 0.0
H643 H 0.08175 0.94611 0.43066 0.0
H644 H 0.09054 0.01629 0.37604 0.0
C645 C 0.18279 0.02847 0.43905 0.0
C646 C 0.14171 0.99063 0.42727 0.0
C647 C 0.19811 0.04447 0.45546 0.0
C648 C 0.05608 0.93103 0.39981 0.0
C649 C 0.07521 0.9472 0.40833 0.0
C650 C 0.1049 0.00874 0.38999 0.0
C651 C 0.15817 0.03531 0.4341 0.0
C652 C 0.14094 0.01694 0.42 0.0
C653 C 0.08532 0.96497 0.38856 0.0
C654 C 0.1052 0.98261 0.39809 0.0
H655 H 0.15756 0.09297 0.46959 0.0
H656 H 0.1307 0.0649 0.44151 0.0
H657 H 0.12161 0.04581 0.39456 0.0
H658 H 0.04994 0.95132 0.32922 0.0
H659 H 0.08345 0.9794 0.34413 0.0
C660 C 0.19671 0.93788 0.97368 0.0
C661 C 0.19536 0.91275 0.96223 0.0
C662 C 0.18711 0.95878 0.95813 0.0
C663 C 0.13906 0.96965 0.90284 0.0
H664 H 0.15677 0.04142 0.9128 0.0
C665 C 0.08081 0.0504 0.85273 0.0
C666 C 0.07402 0.07041 0.87189 0.0
C667 C 0.09931 0.03304 0.8603 0.0
C668 C 0.15163 0.02144 0.90989 0.0
H669 H 0.18546 0.89051 0.92383 0.0
H670 H 0.17013 0.92704 0.89612 0.0
H671 H 0.18451 0.00764 0.93027 0.0
H672 H 0.08228 0.08839 0.91358 0.0
H673 H 0.11462 0.05785 0.92683 0.0
H674 H 0.10615 0.98336 0.88279 0.0
C675 C 0.17756 0.93047 0.91773 0.0
C676 C 0.16749 0.00208 0.91989 0.0
C677 C 0.1868 0.90951 0.93347 0.0
C678 C 0.08692 0.07317 0.89836 0.0
C679 C 0.10557 0.05578 0.90588 0.0
C680 C 0.1234 0.98893 0.89265 0.0
C681 C 0.17631 0.95511 0.93051 0.0
C682 C 0.16123 0.9759 0.91687 0.0
C683 C 0.1116 0.03523 0.88716 0.0
C684 C 0.12932 0.01503 0.89639 0.0
H685 H 0.20374 0.94118 0.99551 0.0
H686 H 0.18663 0.97741 0.96874 0.0
H687 H 0.13318 0.94983 0.90076 0.0
H688 H 0.07151 0.04775 0.83203 0.0
H689 H 0.10378 0.01761 0.84525 0.0
C690 C 0.82406 0.09371 0.44799 0.0
C691 C 0.81341 0.08993 0.47564 0.0
C692 C 0.83504 0.0732 0.43311 0.0
C693 C 0.84424 0.0016 0.43386 0.0
H694 H 0.90618 0.01989 0.39803 0.0
C695 C 0.92177 0.92842 0.40487 0.0
C696 C 0.93331 0.93188 0.37764 0.0
C697 C 0.90448 0.94635 0.41496 0.0
C698 C 0.8888 0.01449 0.40766 0.0
H699 H 0.80412 0.06104 0.50805 0.0
H700 H 0.82417 0.02561 0.48281 0.0
H701 H 0.88007 0.05351 0.41787 0.0
H702 H 0.93503 0.95665 0.33936 0.0
H703 H 0.90522 0.98773 0.35708 0.0
H704 H 0.85376 0.9623 0.42444 0.0
C705 C 0.82387 0.04432 0.47238 0.0
C706 C 0.87369 0.0338 0.4189 0.0
C707 C 0.81259 0.06477 0.48707 0.0
C708 C 0.92668 0.95333 0.3605 0.0
C709 C 0.90963 0.97127 0.37067 0.0
C710 C 0.85955 0.9822 0.42286 0.0
C711 C 0.83597 0.04844 0.44564 0.0
C712 C 0.85119 0.02768 0.43219 0.0
C713 C 0.89859 0.96818 0.39814 0.0
C714 C 0.88199 0.98848 0.40965 0.0
H715 H 0.82518 0.11277 0.43848 0.0
H716 H 0.84358 0.07699 0.41219 0.0
H717 H 0.82694 0.99615 0.44364 0.0
H718 H 0.92634 0.9121 0.41859 0.0
H719 H 0.89631 0.94357 0.4363 0.0
C720 C 0.29511 0.37933 0.09813 0.0
C721 C 0.29613 0.40376 0.08504 0.0
C722 C 0.30833 0.37434 0.12377 0.0
C723 C 0.33995 0.40596 0.18555 0.0
H724 H 0.38444 0.34767 0.1823 0.0
C725 C 0.42748 0.40171 0.25455 0.0
C726 C 0.43527 0.37795 0.26607 0.0
C727 C 0.40755 0.40297 0.23548 0.0
C728 C 0.37183 0.36375 0.18388 0.0
H729 H 0.3105 0.44246 0.08898 0.0
H730 H 0.33337 0.4339 0.13374 0.0
H731 H 0.35349 0.35312 0.14426 0.0
H732 H 0.42791 0.33686 0.26671 0.0
H733 H 0.39295 0.33916 0.23353 0.0
H734 H 0.35852 0.41693 0.22477 0.0
C735 C 0.32249 0.41856 0.12433 0.0
C736 C 0.35408 0.36684 0.16209 0.0
C737 C 0.30958 0.42342 0.09862 0.0
C738 C 0.42251 0.35548 0.25814 0.0
C739 C 0.4025 0.35677 0.23907 0.0
C740 C 0.35757 0.40281 0.20739 0.0
C741 C 0.3224 0.39386 0.13688 0.0
C742 C 0.33843 0.38837 0.16229 0.0
C743 C 0.39481 0.38054 0.2275 0.0
C744 C 0.37418 0.38207 0.20636 0.0
H745 H 0.28487 0.36388 0.08794 0.0
H746 H 0.30788 0.35517 0.13309 0.0
H747 H 0.32787 0.42254 0.18645 0.0
H748 H 0.43687 0.41942 0.26006 0.0
H749 H 0.40244 0.42154 0.22654 0.0
C750 C 0.70139 0.63027 0.59254 0.0
C751 C 0.70029 0.60551 0.58019 0.0
C752 C 0.68795 0.63604 0.6178 0.0
C753 C 0.65917 0.60551 0.68138 0.0
H754 H 0.61316 0.66257 0.6804 0.0
C755 C 0.57508 0.60722 0.75524 0.0
C756 C 0.56701 0.6306 0.76744 0.0
C757 C 0.59417 0.60679 0.73505 0.0
C758 C 0.62625 0.64688 0.6813 0.0
H759 H 0.68502 0.56724 0.58479 0.0
H760 H 0.6618 0.57718 0.62888 0.0
H761 H 0.64221 0.65726 0.6401 0.0
H762 H 0.57297 0.67194 0.76803 0.0
H763 H 0.60658 0.6711 0.73269 0.0
H764 H 0.64312 0.59477 0.72217 0.0
C765 C 0.67289 0.59216 0.61909 0.0
C766 C 0.64284 0.64384 0.65823 0.0
C767 C 0.68597 0.58654 0.59374 0.0
C768 C 0.57867 0.65359 0.75902 0.0
C769 C 0.59787 0.65314 0.73871 0.0
C770 C 0.64277 0.60863 0.70448 0.0
C771 C 0.67366 0.61696 0.63132 0.0
C772 C 0.65889 0.62266 0.65766 0.0
C773 C 0.60582 0.6297 0.72653 0.0
C774 C 0.62557 0.62883 0.70423 0.0
H775 H 0.71233 0.64519 0.58241 0.0
H776 H 0.68883 0.65529 0.62687 0.0
H777 H 0.67166 0.58925 0.68167 0.0
H778 H 0.56654 0.58912 0.76107 0.0
H779 H 0.59947 0.58845 0.72565 0.0
C780 C 0.68391 0.38581 0.08816 0.0
C781 C 0.68277 0.36301 0.07157 0.0
C782 C 0.67139 0.38781 0.11474 0.0
C783 C 0.6406 0.34997 0.17257 0.0
H784 H 0.59821 0.40973 0.17934 0.0
C785 C 0.55694 0.35154 0.24895 0.0
C786 C 0.55056 0.37467 0.26306 0.0
C787 C 0.57577 0.35096 0.22831 0.0
C788 C 0.61024 0.39315 0.17815 0.0
H789 H 0.66808 0.32417 0.07056 0.0
H790 H 0.64677 0.32753 0.11702 0.0
H791 H 0.62747 0.40712 0.13925 0.0
H792 H 0.55947 0.41527 0.26687 0.0
H793 H 0.59257 0.41414 0.23114 0.0
H794 H 0.6232 0.33582 0.21125 0.0
C795 C 0.65746 0.34381 0.10956 0.0
C796 C 0.62702 0.39166 0.15515 0.0
C797 C 0.66978 0.34187 0.08291 0.0
C798 C 0.56374 0.39715 0.25627 0.0
C799 C 0.58268 0.39653 0.2357 0.0
C800 C 0.62393 0.35152 0.19569 0.0
C801 C 0.65765 0.36697 0.12543 0.0
C802 C 0.64203 0.36983 0.15178 0.0
C803 C 0.58885 0.37345 0.22134 0.0
C804 C 0.60818 0.37288 0.19841 0.0
H805 H 0.69405 0.40232 0.0803 0.0
H806 H 0.67211 0.40579 0.12671 0.0
H807 H 0.65218 0.33306 0.17074 0.0
H808 H 0.54716 0.33386 0.25352 0.0
H809 H 0.5797 0.33294 0.21732 0.0
C810 C 0.31995 0.62224 0.59171 0.0
C811 C 0.32232 0.64343 0.57276 0.0
C812 C 0.33247 0.62165 0.61836 0.0
C813 C 0.36589 0.6613 0.67229 0.0
H814 H 0.40429 0.59922 0.68412 0.0
C815 C 0.44777 0.65711 0.75212 0.0
C816 C 0.45259 0.63393 0.76696 0.0
C817 C 0.42932 0.65842 0.73095 0.0
C818 C 0.39337 0.61652 0.68158 0.0
H819 H 0.33892 0.68112 0.56767 0.0
H820 H 0.36039 0.68024 0.61438 0.0
H821 H 0.37559 0.60154 0.64354 0.0
H822 H 0.44113 0.59416 0.77191 0.0
H823 H 0.40862 0.5966 0.73556 0.0
H824 H 0.38375 0.67635 0.71027 0.0
C825 C 0.34878 0.66412 0.60861 0.0
C826 C 0.37692 0.61785 0.65824 0.0
C827 C 0.3364 0.66464 0.58186 0.0
C828 C 0.43811 0.61225 0.76066 0.0
C829 C 0.41951 0.61363 0.7397 0.0
C830 C 0.38221 0.65991 0.69583 0.0
C831 C 0.34747 0.64233 0.62676 0.0
C832 C 0.36324 0.64036 0.65311 0.0
C833 C 0.41508 0.63663 0.72429 0.0
C834 C 0.39643 0.63762 0.70053 0.0
H835 H 0.3089 0.60579 0.5856 0.0
H836 H 0.33082 0.60477 0.63214 0.0
H837 H 0.3554 0.67881 0.669 0.0
H838 H 0.45861 0.67416 0.75635 0.0
H839 H 0.42671 0.67635 0.71926 0.0
C840 C 0.79884 0.90862 0.10118 0.0
C841 C 0.79296 0.89093 0.07912 0.0
C842 C 0.81006 0.90036 0.1269 0.0
C843 C 0.85209 0.85062 0.15165 0.0
H844 H 0.84268 0.88417 0.22658 0.0
C845 C 0.92094 0.83873 0.24732 0.0
C846 C 0.92811 0.86211 0.26032 0.0
C847 C 0.9008 0.83787 0.22836 0.0
C848 C 0.84552 0.87459 0.20581 0.0
H849 H 0.793 0.85069 0.06687 0.0
H850 H 0.8129 0.836 0.11217 0.0
H851 H 0.81219 0.88979 0.18804 0.0
H852 H 0.91925 0.90279 0.26403 0.0
H853 H 0.88444 0.90128 0.23099 0.0
H854 H 0.88593 0.83629 0.16902 0.0
C855 C 0.80879 0.85629 0.10951 0.0
C856 C 0.82803 0.87776 0.18378 0.0
C857 C 0.79728 0.8646 0.08376 0.0
C858 C 0.91436 0.88445 0.25438 0.0
C859 C 0.89421 0.88355 0.23562 0.0
C860 C 0.86959 0.84743 0.17372 0.0
C861 C 0.81585 0.87421 0.13102 0.0
C862 C 0.83155 0.86655 0.15611 0.0
C863 C 0.88729 0.86032 0.22222 0.0
C864 C 0.8669 0.86013 0.20068 0.0
H865 H 0.79573 0.92905 0.09791 0.0
H866 H 0.81551 0.91473 0.14279 0.0
H867 H 0.85548 0.84193 0.1305 0.0
H868 H 0.93106 0.82113 0.25145 0.0
H869 H 0.89583 0.81966 0.21846 0.0
C870 C 0.18487 0.09055 0.57978 0.0
C871 C 0.19673 0.11018 0.56421 0.0
C872 C 0.17267 0.096 0.6058 0.0
C873 C 0.13994 0.14732 0.64294 0.0
H874 H 0.14208 0.09985 0.70838 0.0
C875 C 0.07627 0.1575 0.74411 0.0
C876 C 0.06553 0.13443 0.75392 0.0
C877 C 0.09508 0.15703 0.7233 0.0
C878 C 0.14119 0.11324 0.69025 0.0
H879 H 0.20581 0.15074 0.56378 0.0
H880 H 0.18396 0.16052 0.60955 0.0
H881 H 0.171 0.09475 0.66818 0.0
H882 H 0.06622 0.09278 0.74929 0.0
H883 H 0.09855 0.09206 0.71293 0.0
H884 H 0.10948 0.16521 0.66447 0.0
C885 C 0.18422 0.1409 0.6015 0.0
C886 C 0.15783 0.11038 0.66731 0.0
C887 C 0.19677 0.13533 0.57551 0.0
C888 C 0.07405 0.11094 0.74239 0.0
C889 C 0.09279 0.1105 0.72167 0.0
C890 C 0.12319 0.15013 0.66588 0.0
C891 C 0.17189 0.12127 0.61675 0.0
C892 C 0.15694 0.12694 0.64305 0.0
C893 C 0.1036 0.1335 0.71193 0.0
C894 C 0.1232 0.13266 0.68939 0.0
H895 H 0.18474 0.07098 0.57155 0.0
H896 H 0.16311 0.08054 0.61684 0.0
H897 H 0.13872 0.16024 0.62439 0.0
H898 H 0.07024 0.17594 0.75257 0.0
H899 H 0.10312 0.17507 0.71636 0.0
C900 C 0.15021 0.88399 0.05657 0.0
C901 C 0.17126 0.86843 0.0543 0.0
C902 C 0.13567 0.88335 0.08158 0.0
C903 C 0.13404 0.86146 0.15905 0.0
H904 H 0.06398 0.86903 0.14724 0.0
C905 C 0.05861 0.84443 0.24769 0.0
C906 C 0.0419 0.86494 0.25069 0.0
C907 C 0.07571 0.84434 0.22489 0.0
C908 C 0.08352 0.86697 0.15083 0.0
H909 H 0.19368 0.84031 0.07714 0.0
H910 H 0.16755 0.83823 0.1203 0.0
H911 H 0.09127 0.8693 0.10525 0.0
H912 H 0.03012 0.90146 0.23223 0.0
H913 H 0.05954 0.9009 0.19213 0.0
H914 H 0.12579 0.85834 0.20484 0.0
C915 C 0.16264 0.85141 0.10291 0.0
C916 C 0.09923 0.86731 0.12682 0.0
C917 C 0.17747 0.85236 0.07797 0.0
C918 C 0.04276 0.8854 0.23059 0.0
C919 C 0.05951 0.88506 0.20757 0.0
C920 C 0.1182 0.86069 0.18311 0.0
C921 C 0.14137 0.8667 0.10487 0.0
C922 C 0.12474 0.86502 0.1306 0.0
C923 C 0.07602 0.86449 0.20443 0.0
C924 C 0.09286 0.86383 0.17917 0.0
H925 H 0.14444 0.89625 0.03869 0.0
H926 H 0.11977 0.89585 0.08249 0.0
H927 H 0.15357 0.85986 0.16286 0.0
H928 H 0.05848 0.82846 0.26294 0.0
H929 H 0.08825 0.82824 0.22279 0.0
C930 C 0.81714 0.11401 0.58968 0.0
C931 C 0.81886 0.13568 0.57133 0.0
C932 C 0.82911 0.11358 0.6167 0.0
C933 C 0.85956 0.15432 0.67218 0.0
H934 H 0.9018 0.09493 0.68316 0.0
C935 C 0.94382 0.15633 0.74786 0.0
C936 C 0.95076 0.1337 0.76261 0.0
C937 C 0.92437 0.15611 0.72799 0.0
C938 C 0.88978 0.11144 0.68087 0.0
H939 H 0.83388 0.17424 0.56759 0.0
H940 H 0.85429 0.17362 0.61484 0.0
H941 H 0.87271 0.0955 0.64286 0.0
H942 H 0.94197 0.09332 0.76892 0.0
H943 H 0.90776 0.09309 0.73472 0.0
H944 H 0.87685 0.17043 0.70997 0.0
C945 C 0.84357 0.15703 0.6084 0.0
C946 C 0.8731 0.11175 0.65771 0.0
C947 C 0.83179 0.15739 0.5813 0.0
C948 C 0.93731 0.11103 0.75768 0.0
C949 C 0.91773 0.11087 0.73798 0.0
C950 C 0.87612 0.15394 0.69551 0.0
C951 C 0.84286 0.1349 0.62604 0.0
C952 C 0.85819 0.13341 0.65276 0.0
C953 C 0.91124 0.13332 0.72257 0.0
C954 C 0.89181 0.13272 0.69975 0.0
H955 H 0.807 0.09713 0.58286 0.0
H956 H 0.82802 0.09639 0.63005 0.0
H957 H 0.84807 0.17115 0.66906 0.0
H958 H 0.95379 0.17412 0.75106 0.0
H959 H 0.92016 0.17367 0.71621 0.0
loop_
_geom_bond_atom_site_label_1
_geom_bond_atom_site_label_2
_geom_bond_distance
_geom_bond_site_symmetry_2
_ccdc_geom_bond_type
H0 C1 0.949 . S
C1 H0 0.949 . S
C1 C2 1.395 1_556 S
C1 C3 1.391 1_556 S
C2 C1 1.395 1_554 S
C2 C5 1.390 . S
C3 C1 1.391 1_554 S
C3 C7 1.387 . S
C3 C8 1.491 . S
H4 C5 0.950 . S
C5 C2 1.390 . S
C5 H4 0.950 . S
C5 C6 1.378 . S
C6 C5 1.378 . S
C6 C7 1.409 . S
C7 C3 1.387 . S
C7 C6 1.409 . S
C7 H9 0.951 . S
C8 C3 1.491 . S
C8 C10 1.382 1_554 S
C8 C12 1.404 . S
H9 C7 0.951 . S
C10 C8 1.382 1_556 S
C10 C11 1.390 . S
C10 H15 0.949 . S
C11 C10 1.390 . S
C11 C16 1.399 1_556 S
C12 C8 1.404 . S
C12 H13 0.950 . S
C12 C14 1.375 . S
H13 C12 0.950 . S
C14 C12 1.375 . S
C14 C16 1.382 . S
C14 H18 0.950 . S
H15 C10 0.949 . S
C16 C11 1.399 1_554 S
C16 C14 1.382 . S
C16 H17 0.952 . S
H17 C16 0.952 . S
H18 C14 0.950 . S
H19 C20 0.949 . S
C20 H19 0.949 . S
C20 C21 1.395 . S
C20 C22 1.391 . S
C21 C20 1.395 . S
C21 C24 1.390 . S
C22 C20 1.391 . S
C22 C26 1.387 . S
C22 C27 1.491 . S
H23 C24 0.950 . S
C24 C21 1.390 . S
C24 H23 0.950 . S
C24 C25 1.378 . S
C25 C24 1.378 . S
C25 C26 1.409 . S
C26 C22 1.387 . S
C26 C25 1.409 . S
C26 H28 0.951 . S
C27 C22 1.491 . S
C27 C29 1.382 . S
C27 C31 1.404 . S
H28 C26 0.951 . S
C29 C27 1.382 . S
C29 C30 1.390 . S
C29 H34 0.949 . S
C30 C29 1.390 . S
C30 C35 1.399 . S
C31 C27 1.404 . S
C31 H32 0.950 . S
C31 C33 1.375 . S
H32 C31 0.950 . S
C33 C31 1.375 . S
C33 C35 1.382 . S
C33 H37 0.950 . S
H34 C29 0.949 . S
C35 C30 1.399 . S
C35 C33 1.382 . S
C35 H36 0.952 . S
H36 C35 0.952 . S
H37 C33 0.950 . S
H38 C39 0.949 . S
C39 H38 0.949 . S
C39 C40 1.395 1_556 S
C39 C41 1.391 1_556 S
C40 C39 1.395 1_554 S
C40 C43 1.390 . S
C41 C39 1.391 1_554 S
C41 C45 1.387 . S
C41 C46 1.491 . S
H42 C43 0.950 . S
C43 C40 1.390 . S
C43 H42 0.950 . S
C43 C44 1.378 . S
C44 C43 1.378 . S
C44 C45 1.409 . S
C45 C41 1.387 . S
C45 C44 1.409 . S
C45 H47 0.951 . S
C46 C41 1.491 . S
C46 C48 1.382 1_554 S
C46 C50 1.404 . S
H47 C45 0.951 . S
C48 C46 1.382 1_556 S
C48 C49 1.390 . S
C48 H53 0.949 . S
C49 C48 1.390 . S
C49 C54 1.399 . S
C50 C46 1.404 . S
C50 H51 0.950 . S
C50 C52 1.375 . S
H51 C50 0.950 . S
C52 C50 1.375 . S
C52 C54 1.382 1_554 S
C52 H56 0.950 . S
H53 C48 0.949 . S
C54 C49 1.399 . S
C54 C52 1.382 1_556 S
C54 H55 0.952 . S
H55 C54 0.952 . S
H56 C52 0.950 . S
H57 C58 0.949 . S
C58 H57 0.949 . S
C58 C59 1.395 . S
C58 C60 1.391 . S
C59 C58 1.395 . S
C59 C62 1.390 . S
C60 C58 1.391 . S
C60 C64 1.387 . S
C60 C65 1.491 . S
H61 C62 0.950 . S
C62 C59 1.390 . S
C62 H61 0.950 . S
C62 C63 1.378 . S
C63 C62 1.378 . S
C63 C64 1.409 . S
C64 C60 1.387 . S
C64 C63 1.409 . S
C64 H66 0.951 . S
C65 C60 1.491 . S
C65 C67 1.382 . S
C65 C69 1.404 . S
H66 C64 0.951 . S
C67 C65 1.382 . S
C67 C68 1.390 . S
C67 H72 0.949 . S
C68 C67 1.390 . S
C68 C73 1.399 . S
C69 C65 1.404 . S
C69 H70 0.950 . S
C69 C71 1.375 . S
H70 C69 0.950 . S
C71 C69 1.375 . S
C71 C73 1.382 . S
C71 H75 0.950 . S
H72 C67 0.949 . S
C73 C68 1.399 . S
C73 C71 1.382 . S
C73 H74 0.952 . S
H74 C73 0.952 . S
H75 C71 0.950 . S
H76 C77 0.949 . S
C77 H76 0.949 . S
C77 C78 1.395 1_556 S
C77 C79 1.391 1_556 S
C78 C77 1.395 1_554 S
C78 C81 1.390 . S
C79 C77 1.391 1_554 S
C79 C83 1.387 . S
C79 C84 1.491 . S
H80 C81 0.950 . S
C81 C78 1.390 . S
C81 H80 0.950 . S
C81 C82 1.378 . S
C82 C81 1.378 . S
C82 C83 1.409 . S
C83 C79 1.387 . S
C83 C82 1.409 . S
C83 H85 0.951 . S
C84 C79 1.491 . S
C84 C86 1.382 1_554 S
C84 C88 1.404 . S
H85 C83 0.951 . S
C86 C84 1.382 1_556 S
C86 C87 1.390 . S
C86 H91 0.949 . S
C87 C86 1.390 . S
C87 C92 1.399 1_556 S
C88 C84 1.404 . S
C88 H89 0.950 . S
C88 C90 1.375 . S
H89 C88 0.950 . S
C90 C88 1.375 . S
C90 C92 1.382 . S
C90 H94 0.950 . S
H91 C86 0.949 . S
C92 C87 1.399 1_554 S
C92 C90 1.382 . S
C92 H93 0.952 . S
H93 C92 0.952 . S
H94 C90 0.950 . S
H95 C96 0.949 . S
C96 H95 0.949 . S
C96 C97 1.395 . S
C96 C98 1.391 . S
C97 C96 1.395 . S
C97 C100 1.390 . S
C98 C96 1.391 . S
C98 C102 1.387 . S
C98 C103 1.491 . S
H99 C100 0.950 . S
C100 C97 1.390 . S
C100 H99 0.950 . S
C100 C101 1.378 . S
C101 C100 1.378 . S
C101 C102 1.409 . S
C102 C98 1.387 . S
C102 C101 1.409 . S
C102 H104 0.951 . S
C103 C98 1.491 . S
C103 C105 1.382 . S
C103 C107 1.404 . S
H104 C102 0.951 . S
C105 C103 1.382 . S
C105 C106 1.390 . S
C105 H110 0.949 . S
C106 C105 1.390 . S
C106 C111 1.399 . S
C107 C103 1.404 . S
C107 H108 0.950 . S
C107 C109 1.375 . S
H108 C107 0.950 . S
C109 C107 1.375 . S
C109 C111 1.382 . S
C109 H113 0.950 . S
H110 C105 0.949 . S
C111 C106 1.399 . S
C111 C109 1.382 . S
C111 H112 0.952 . S
H112 C111 0.952 . S
H113 C109 0.950 . S
H114 C115 0.949 . S
C115 H114 0.949 . S
C115 C116 1.395 1_556 S
C115 C117 1.391 1_556 S
C116 C115 1.395 1_554 S
C116 C119 1.390 . S
C117 C115 1.391 1_554 S
C117 C121 1.387 . S
C117 C122 1.491 . S
H118 C119 0.950 . S
C119 C116 1.390 . S
C119 H118 0.950 . S
C119 C120 1.378 . S
C120 C119 1.378 . S
C120 C121 1.409 . S
C121 C117 1.387 . S
C121 C120 1.409 . S
C121 H123 0.951 . S
C122 C117 1.491 . S
C122 C124 1.382 1_554 S
C122 C126 1.404 . S
H123 C121 0.951 . S
C124 C122 1.382 1_556 S
C124 C125 1.390 . S
C124 H129 0.949 . S
C125 C124 1.390 . S
C125 C130 1.399 . S
C126 C122 1.404 . S
C126 H127 0.950 . S
C126 C128 1.375 . S
H127 C126 0.950 . S
C128 C126 1.375 . S
C128 C130 1.382 1_554 S
C128 H132 0.950 . S
H129 C124 0.949 . S
C130 C125 1.399 . S
C130 C128 1.382 1_556 S
C130 H131 0.952 . S
H131 C130 0.952 . S
H132 C128 0.950 . S
H133 C134 0.949 . S
C134 H133 0.949 . S
C134 C135 1.395 . S
C134 C136 1.391 . S
C135 C134 1.395 . S
C135 C138 1.390 . S
C136 C134 1.391 . S
C136 C140 1.387 . S
C136 C141 1.491 . S
H137 C138 0.950 . S
C138 C135 1.390 . S
C138 H137 0.950 . S
C138 C139 1.378 . S
C139 C138 1.378 . S
C139 C140 1.409 . S
C140 C136 1.387 . S
C140 C139 1.409 . S
C140 H142 0.951 . S
C141 C136 1.491 . S
C141 C143 1.382 . S
C141 C145 1.404 . S
H142 C140 0.951 . S
C143 C141 1.382 . S
C143 C144 1.390 . S
C143 H148 0.949 . S
C144 C143 1.390 . S
C144 C149 1.399 . S
C145 C141 1.404 . S
C145 H146 0.950 . S
C145 C147 1.375 . S
H146 C145 0.950 . S
C147 C145 1.375 . S
C147 C149 1.382 . S
C147 H151 0.950 . S
H148 C143 0.949 . S
C149 C144 1.399 . S
C149 C147 1.382 . S
C149 H150 0.952 . S
H150 C149 0.952 . S
H151 C147 0.950 . S
Sc152 O155 2.025 . S
Sc152 O162 2.105 1_455 S
Sc152 O165 2.105 . S
Sc152 O168 2.105 . S
Sc152 O171 2.105 1_455 S
Sc153 O155 2.025 . S
Sc153 O163 2.105 1_455 S
Sc153 O167 2.105 . S
Sc153 O169 2.105 . S
Sc153 O173 2.105 1_455 S
Sc154 O155 2.025 . S
Sc154 O164 2.105 1_455 S
Sc154 O166 2.105 . S
Sc154 O170 2.105 . S
Sc154 O172 2.105 1_455 S
O155 Sc152 2.025 . S
O155 Sc153 2.025 . S
O155 Sc154 2.025 . S
C156 O162 1.268 . S
C156 O172 1.268 . S
C157 O163 1.268 . S
C157 O171 1.268 . S
C158 O164 1.268 . S
C158 O173 1.268 . S
C159 O165 1.268 . S
C159 O169 1.268 . S
C160 O166 1.268 . S
C160 O168 1.268 . S
C161 O167 1.268 . S
C161 O170 1.268 . S
O162 Sc152 2.105 1_655 S
O162 C156 1.268 . S
O163 Sc153 2.105 1_655 S
O163 C157 1.268 . S
O164 Sc154 2.105 1_655 S
O164 C158 1.268 . S
O165 Sc152 2.105 . S
O165 C159 1.268 . S
O166 Sc154 2.105 . S
O166 C160 1.268 . S
O167 Sc153 2.105 . S
O167 C161 1.268 . S
O168 Sc152 2.105 . S
O168 C160 1.268 . S
O169 Sc153 2.105 . S
O169 C159 1.268 . S
O170 Sc154 2.105 . S
O170 C161 1.268 . S
O171 Sc152 2.105 1_655 S
O171 C157 1.268 . S
O172 Sc154 2.105 1_655 S
O172 C156 1.268 . S
O173 Sc153 2.105 1_655 S
O173 C158 1.268 . S
Sc174 O177 2.025 . S
Sc174 O184 2.105 . S
Sc174 O187 2.105 1_455 S
Sc174 O190 2.105 1_455 S
Sc174 O193 2.105 . S
Sc175 O177 2.025 . S
Sc175 O185 2.105 . S
Sc175 O189 2.105 1_455 S
Sc175 O191 2.105 1_455 S
Sc175 O195 2.105 . S
Sc176 O177 2.025 . S
Sc176 O186 2.105 . S
Sc176 O188 2.105 1_455 S
Sc176 O192 2.105 1_455 S
Sc176 O194 2.105 . S
O177 Sc174 2.025 . S
O177 Sc175 2.025 . S
O177 Sc176 2.025 . S
C178 O184 1.268 . S
C178 O194 1.268 . S
C179 O185 1.268 . S
C179 O193 1.268 . S
C180 O186 1.268 . S
C180 O195 1.268 . S
C181 O187 1.268 . S
C181 O191 1.268 . S
C182 O188 1.268 . S
C182 O190 1.268 . S
C183 O189 1.268 . S
C183 O192 1.268 . S
O184 Sc174 2.105 . S
O184 C178 1.268 . S
O185 Sc175 2.105 . S
O185 C179 1.268 . S
O186 Sc176 2.105 . S
O186 C180 1.268 . S
O187 Sc174 2.105 1_655 S
O187 C181 1.268 . S
O188 Sc176 2.105 1_655 S
O188 C182 1.268 . S
O189 Sc175 2.105 1_655 S
O189 C183 1.268 . S
O190 Sc174 2.105 1_655 S
O190 C182 1.268 . S
O191 Sc175 2.105 1_655 S
O191 C181 1.268 . S
O192 Sc176 2.105 1_655 S
O192 C183 1.268 . S
O193 Sc174 2.105 . S
O193 C179 1.268 . S
O194 Sc176 2.105 . S
O194 C178 1.268 . S
O195 Sc175 2.105 . S
O195 C180 1.268 . S
Sc196 O199 2.025 . S
Sc196 O206 2.105 . S
Sc196 O209 2.105 . S
Sc196 O212 2.105 . S
Sc196 O215 2.105 . S
Sc197 O199 2.025 . S
Sc197 O207 2.105 . S
Sc197 O211 2.105 . S
Sc197 O213 2.105 . S
Sc197 O217 2.105 . S
Sc198 O199 2.025 . S
Sc198 O208 2.105 . S
Sc198 O210 2.105 . S
Sc198 O214 2.105 . S
Sc198 O216 2.105 . S
O199 Sc196 2.025 . S
O199 Sc197 2.025 . S
O199 Sc198 2.025 . S
C200 O206 1.268 . S
C200 O216 1.268 . S
C201 O207 1.268 . S
C201 O215 1.268 . S
C202 O208 1.268 . S
C202 O217 1.268 . S
C203 O209 1.268 . S
C203 O213 1.268 . S
C204 O210 1.268 . S
C204 O212 1.268 . S
C205 O211 1.268 . S
C205 O214 1.268 . S
O206 Sc196 2.105 . S
O206 C200 1.268 . S
O207 Sc197 2.105 . S
O207 C201 1.268 . S
O208 Sc198 2.105 . S
O208 C202 1.268 . S
O209 Sc196 2.105 . S
O209 C203 1.268 . S
O210 Sc198 2.105 . S
O210 C204 1.268 . S
O211 Sc197 2.105 . S
O211 C205 1.268 . S
O212 Sc196 2.105 . S
O212 C204 1.268 . S
O213 Sc197 2.105 . S
O213 C203 1.268 . S
O214 Sc198 2.105 . S
O214 C205 1.268 . S
O215 Sc196 2.105 . S
O215 C201 1.268 . S
O216 Sc198 2.105 . S
O216 C200 1.268 . S
O217 Sc197 2.105 . S
O217 C202 1.268 . S
Sc218 O221 2.025 . S
Sc218 O228 2.105 . S
Sc218 O231 2.105 . S
Sc218 O234 2.105 . S
Sc218 O237 2.105 . S
Sc219 O221 2.025 . S
Sc219 O229 2.105 . S
Sc219 O233 2.105 . S
Sc219 O235 2.105 . S
Sc219 O239 2.105 . S
Sc220 O221 2.025 . S
Sc220 O230 2.105 . S
Sc220 O232 2.105 . S
Sc220 O236 2.105 . S
Sc220 O238 2.105 . S
O221 Sc218 2.025 . S
O221 Sc219 2.025 . S
O221 Sc220 2.025 . S
C222 O228 1.268 . S
C222 O238 1.268 . S
C223 O229 1.268 . S
C223 O237 1.268 . S
C224 O230 1.268 . S
C224 O239 1.268 . S
C225 O231 1.268 . S
C225 O235 1.268 . S
C226 O232 1.268 . S
C226 O234 1.268 . S
C227 O233 1.268 . S
C227 O236 1.268 . S
O228 Sc218 2.105 . S
O228 C222 1.268 . S
O229 Sc219 2.105 . S
O229 C223 1.268 . S
O230 Sc220 2.105 . S
O230 C224 1.268 . S
O231 Sc218 2.105 . S
O231 C225 1.268 . S
O232 Sc220 2.105 . S
O232 C226 1.268 . S
O233 Sc219 2.105 . S
O233 C227 1.268 . S
O234 Sc218 2.105 . S
O234 C226 1.268 . S
O235 Sc219 2.105 . S
O235 C225 1.268 . S
O236 Sc220 2.105 . S
O236 C227 1.268 . S
O237 Sc218 2.105 . S
O237 C223 1.268 . S
O238 Sc220 2.105 . S
O238 C222 1.268 . S
O239 Sc219 2.105 . S
O239 C224 1.268 . S
C240 C241 1.349 . S
C240 C242 1.327 . S
C240 H265 0.950 . S
C241 C240 1.349 . S
C241 C257 1.349 . S
C242 C240 1.327 . S
C242 C261 1.429 . S
C242 H266 0.950 . S
C243 C260 1.574 . S
C243 C262 1.368 . S
C243 H267 0.949 . S
H244 C248 0.949 . S
C245 C246 1.349 . S
C245 C247 1.327 . S
C245 H268 0.950 . S
C246 C245 1.349 . S
C246 C258 1.349 . S
C247 C245 1.327 . S
C247 C263 1.429 . S
C247 H269 0.950 . S
C248 H244 0.949 . S
C248 C256 1.574 . S
C248 C264 1.368 . S
H249 C257 0.950 . S
H250 C255 0.950 . S
H251 C256 0.949 . S
H252 C258 0.950 . S
H253 C259 0.950 . S
H254 C260 0.949 . S
C255 H250 0.950 . S
C255 C257 1.327 . S
C255 C261 1.429 . S
C256 C248 1.574 . S
C256 H251 0.949 . S
C256 C262 1.368 . S
C257 C241 1.349 . S
C257 H249 0.950 . S
C257 C255 1.327 . S
C258 C246 1.349 . S
C258 H252 0.950 . S
C258 C259 1.327 . S
C259 H253 0.950 . S
C259 C258 1.327 . S
C259 C263 1.429 . S
C260 C243 1.574 . S
C260 H254 0.949 . S
C260 C264 1.368 . S
C261 C242 1.429 . S
C261 C255 1.429 . S
C261 C262 1.523 . S
C262 C243 1.368 . S
C262 C256 1.368 . S
C262 C261 1.523 . S
C263 C247 1.429 . S
C263 C259 1.429 . S
C263 C264 1.523 . S
C264 C248 1.368 . S
C264 C260 1.368 . S
C264 C263 1.523 . S
H265 C240 0.950 . S
H266 C242 0.950 . S
H267 C243 0.949 . S
H268 C245 0.950 . S
H269 C247 0.950 . S
C270 C271 1.349 . S
C270 C272 1.327 . S
C270 H295 0.950 . S
C271 C270 1.349 . S
C271 C287 1.349 . S
C272 C270 1.327 . S
C272 C291 1.429 . S
C272 H296 0.950 . S
C273 C290 1.574 . S
C273 C292 1.368 . S
C273 H297 0.949 . S
H274 C278 0.949 . S
C275 C276 1.349 . S
C275 C277 1.327 . S
C275 H298 0.950 . S
C276 C275 1.349 . S
C276 C288 1.349 . S
C277 C275 1.327 . S
C277 C293 1.429 . S
C277 H299 0.950 . S
C278 H274 0.949 . S
C278 C286 1.574 . S
C278 C294 1.368 . S
H279 C287 0.950 . S
H280 C285 0.950 . S
H281 C286 0.949 . S
H282 C288 0.950 . S
H283 C289 0.950 . S
H284 C290 0.949 . S
C285 H280 0.950 . S
C285 C287 1.327 . S
C285 C291 1.429 . S
C286 C278 1.574 . S
C286 H281 0.949 . S
C286 C292 1.368 . S
C287 C271 1.349 . S
C287 H279 0.950 . S
C287 C285 1.327 . S
C288 C276 1.349 . S
C288 H282 0.950 . S
C288 C289 1.327 . S
C289 H283 0.950 . S
C289 C288 1.327 . S
C289 C293 1.429 . S
C290 C273 1.574 . S
C290 H284 0.949 . S
C290 C294 1.368 . S
C291 C272 1.429 . S
C291 C285 1.429 . S
C291 C292 1.523 . S
C292 C273 1.368 . S
C292 C286 1.368 . S
C292 C291 1.523 . S
C293 C277 1.429 . S
C293 C289 1.429 . S
C293 C294 1.523 . S
C294 C278 1.368 . S
C294 C290 1.368 . S
C294 C293 1.523 . S
H295 C270 0.950 . S
H296 C272 0.950 . S
H297 C273 0.949 . S
H298 C275 0.950 . S
H299 C277 0.950 . S
C300 C301 1.349 . S
C300 C302 1.327 . S
C300 H325 0.950 . S
C301 C300 1.349 . S
C301 C317 1.349 . S
C302 C300 1.327 . S
C302 C321 1.429 . S
C302 H326 0.950 . S
C303 C320 1.574 . S
C303 C322 1.368 . S
C303 H327 0.949 . S
H304 C308 0.949 . S
C305 C306 1.349 . S
C305 C307 1.327 . S
C305 H328 0.950 . S
C306 C305 1.349 . S
C306 C318 1.349 . S
C307 C305 1.327 . S
C307 C323 1.429 . S
C307 H329 0.950 . S
C308 H304 0.949 . S
C308 C316 1.574 . S
C308 C324 1.368 . S
H309 C317 0.950 . S
H310 C315 0.950 . S
H311 C316 0.949 . S
H312 C318 0.950 . S
H313 C319 0.950 . S
H314 C320 0.949 . S
C315 H310 0.950 . S
C315 C317 1.327 . S
C315 C321 1.429 . S
C316 C308 1.574 . S
C316 H311 0.949 . S
C316 C322 1.368 . S
C317 C301 1.349 . S
C317 H309 0.950 . S
C317 C315 1.327 . S
C318 C306 1.349 . S
C318 H312 0.950 . S
C318 C319 1.327 . S
C319 H313 0.950 . S
C319 C318 1.327 . S
C319 C323 1.429 . S
C320 C303 1.574 . S
C320 H314 0.949 . S
C320 C324 1.368 . S
C321 C302 1.429 . S
C321 C315 1.429 . S
C321 C322 1.523 . S
C322 C303 1.368 . S
C322 C316 1.368 . S
C322 C321 1.523 . S
C323 C307 1.429 . S
C323 C319 1.429 . S
C323 C324 1.523 . S
C324 C308 1.368 . S
C324 C320 1.368 . S
C324 C323 1.523 . S
H325 C300 0.950 . S
H326 C302 0.950 . S
H327 C303 0.949 . S
H328 C305 0.950 . S
H329 C307 0.950 . S
C330 C331 1.349 . S
C330 C332 1.327 . S
C330 H355 0.950 . S
C331 C330 1.349 . S
C331 C347 1.349 . S
C332 C330 1.327 . S
C332 C351 1.429 . S
C332 H356 0.950 . S
C333 C350 1.574 . S
C333 C352 1.368 . S
C333 H357 0.949 . S
H334 C338 0.949 . S
C335 C336 1.349 . S
C335 C337 1.327 . S
C335 H358 0.950 . S
C336 C335 1.349 . S
C336 C348 1.349 . S
C337 C335 1.327 . S
C337 C353 1.429 . S
C337 H359 0.950 . S
C338 H334 0.949 . S
C338 C346 1.574 . S
C338 C354 1.368 . S
H339 C347 0.950 . S
H340 C345 0.950 . S
H341 C346 0.949 . S
H342 C348 0.950 . S
H343 C349 0.950 . S
H344 C350 0.949 . S
C345 H340 0.950 . S
C345 C347 1.327 . S
C345 C351 1.429 . S
C346 C338 1.574 . S
C346 H341 0.949 . S
C346 C352 1.368 . S
C347 C331 1.349 . S
C347 H339 0.950 . S
C347 C345 1.327 . S
C348 C336 1.349 . S
C348 H342 0.950 . S
C348 C349 1.327 . S
C349 H343 0.950 . S
C349 C348 1.327 . S
C349 C353 1.429 . S
C350 C333 1.574 . S
C350 H344 0.949 . S
C350 C354 1.368 . S
C351 C332 1.429 . S
C351 C345 1.429 . S
C351 C352 1.523 . S
C352 C333 1.368 . S
C352 C346 1.368 . S
C352 C351 1.523 . S
C353 C337 1.429 . S
C353 C349 1.429 . S
C353 C354 1.523 . S
C354 C338 1.368 . S
C354 C350 1.368 . S
C354 C353 1.523 . S
H355 C330 0.950 . S
H356 C332 0.950 . S
H357 C333 0.949 . S
H358 C335 0.950 . S
H359 C337 0.950 . S
C360 C361 1.349 . S
C360 C362 1.327 . S
C360 H385 0.950 . S
C361 C360 1.349 . S
C361 C377 1.349 . S
C362 C360 1.327 . S
C362 C381 1.429 . S
C362 H386 0.950 . S
C363 C380 1.574 . S
C363 C382 1.368 . S
C363 H387 0.949 . S
H364 C368 0.949 . S
C365 C366 1.349 . S
C365 C367 1.327 . S
C365 H388 0.950 . S
C366 C365 1.349 . S
C366 C378 1.349 . S
C367 C365 1.327 . S
C367 C383 1.429 . S
C367 H389 0.950 . S
C368 H364 0.949 . S
C368 C376 1.574 . S
C368 C384 1.368 . S
H369 C377 0.950 . S
H370 C375 0.950 . S
H371 C376 0.949 . S
H372 C378 0.950 . S
H373 C379 0.950 . S
H374 C380 0.949 . S
C375 H370 0.950 . S
C375 C377 1.327 . S
C375 C381 1.429 . S
C376 C368 1.574 . S
C376 H371 0.949 . S
C376 C382 1.368 . S
C377 C361 1.349 . S
C377 H369 0.950 . S
C377 C375 1.327 . S
C378 C366 1.349 . S
C378 H372 0.950 . S
C378 C379 1.327 . S
C379 H373 0.950 . S
C379 C378 1.327 . S
C379 C383 1.429 . S
C380 C363 1.574 . S
C380 H374 0.949 . S
C380 C384 1.368 . S
C381 C362 1.429 . S
C381 C375 1.429 . S
C381 C382 1.523 . S
C382 C363 1.368 . S
C382 C376 1.368 . S
C382 C381 1.523 . S
C383 C367 1.429 . S
C383 C379 1.429 . S
C383 C384 1.523 . S
C384 C368 1.368 . S
C384 C380 1.368 . S
C384 C383 1.523 . S
H385 C360 0.950 . S
H386 C362 0.950 . S
H387 C363 0.949 . S
H388 C365 0.950 . S
H389 C367 0.950 . S
C390 C391 1.349 . S
C390 C392 1.327 . S
C390 H415 0.950 . S
C391 C390 1.349 . S
C391 C407 1.349 . S
C392 C390 1.327 . S
C392 C411 1.429 . S
C392 H416 0.950 . S
C393 C410 1.574 . S
C393 C412 1.368 . S
C393 H417 0.949 . S
H394 C398 0.949 . S
C395 C396 1.349 . S
C395 C397 1.327 . S
C395 H418 0.950 . S
C396 C395 1.349 . S
C396 C408 1.349 . S
C397 C395 1.327 . S
C397 C413 1.429 . S
C397 H419 0.950 . S
C398 H394 0.949 . S
C398 C406 1.574 . S
C398 C414 1.368 . S
H399 C407 0.950 . S
H400 C405 0.950 . S
H401 C406 0.949 . S
H402 C408 0.950 . S
H403 C409 0.950 . S
H404 C410 0.949 . S
C405 H400 0.950 . S
C405 C407 1.327 . S
C405 C411 1.429 . S
C406 C398 1.574 . S
C406 H401 0.949 . S
C406 C412 1.368 . S
C407 C391 1.349 . S
C407 H399 0.950 . S
C407 C405 1.327 . S
C408 C396 1.349 . S
C408 H402 0.950 . S
C408 C409 1.327 . S
C409 H403 0.950 . S
C409 C408 1.327 . S
C409 C413 1.429 . S
C410 C393 1.574 . S
C410 H404 0.949 . S
C410 C414 1.368 . S
C411 C392 1.429 . S
C411 C405 1.429 . S
C411 C412 1.523 . S
C412 C393 1.368 . S
C412 C406 1.368 . S
C412 C411 1.523 . S
C413 C397 1.429 . S
C413 C409 1.429 . S
C413 C414 1.523 . S
C414 C398 1.368 . S
C414 C410 1.368 . S
C414 C413 1.523 . S
H415 C390 0.950 . S
H416 C392 0.950 . S
H417 C393 0.949 . S
H418 C395 0.950 . S
H419 C397 0.950 . S
C420 C421 1.349 . S
C420 C422 1.327 . S
C420 H445 0.950 . S
C421 C420 1.349 . S
C421 C437 1.349 . S
C422 C420 1.327 . S
C422 C441 1.429 . S
C422 H446 0.950 . S
C423 C440 1.574 . S
C423 C442 1.368 . S
C423 H447 0.949 . S
H424 C428 0.949 . S
C425 C426 1.349 . S
C425 C427 1.327 . S
C425 H448 0.950 . S
C426 C425 1.349 . S
C426 C438 1.349 . S
C427 C425 1.327 . S
C427 C443 1.429 . S
C427 H449 0.950 . S
C428 H424 0.949 . S
C428 C436 1.574 . S
C428 C444 1.368 . S
H429 C437 0.950 . S
H430 C435 0.950 . S
H431 C436 0.949 . S
H432 C438 0.950 . S
H433 C439 0.950 . S
H434 C440 0.949 . S
C435 H430 0.950 . S
C435 C437 1.327 . S
C435 C441 1.429 . S
C436 C428 1.574 . S
C436 H431 0.949 . S
C436 C442 1.368 . S
C437 C421 1.349 . S
C437 H429 0.950 . S
C437 C435 1.327 . S
C438 C426 1.349 . S
C438 H432 0.950 . S
C438 C439 1.327 . S
C439 H433 0.950 . S
C439 C438 1.327 . S
C439 C443 1.429 . S
C440 C423 1.574 . S
C440 H434 0.949 . S
C440 C444 1.368 . S
C441 C422 1.429 . S
C441 C435 1.429 . S
C441 C442 1.523 . S
C442 C423 1.368 . S
C442 C436 1.368 . S
C442 C441 1.523 . S
C443 C427 1.429 . S
C443 C439 1.429 . S
C443 C444 1.523 . S
C444 C428 1.368 . S
C444 C440 1.368 . S
C444 C443 1.523 . S
H445 C420 0.950 . S
H446 C422 0.950 . S
H447 C423 0.949 . S
H448 C425 0.950 . S
H449 C427 0.950 . S
C450 C451 1.349 . S
C450 C452 1.327 . S
C450 H475 0.950 . S
C451 C450 1.349 . S
C451 C467 1.349 . S
C452 C450 1.327 . S
C452 C471 1.429 . S
C452 H476 0.950 . S
C453 C470 1.574 . S
C453 C472 1.368 . S
C453 H477 0.949 . S
H454 C458 0.949 . S
C455 C456 1.349 . S
C455 C457 1.327 . S
C455 H478 0.950 . S
C456 C455 1.349 . S
C456 C468 1.349 . S
C457 C455 1.327 . S
C457 C473 1.429 . S
C457 H479 0.950 . S
C458 H454 0.949 . S
C458 C466 1.574 . S
C458 C474 1.368 . S
H459 C467 0.950 . S
H460 C465 0.950 . S
H461 C466 0.949 . S
H462 C468 0.950 . S
H463 C469 0.950 . S
H464 C470 0.949 . S
C465 H460 0.950 . S
C465 C467 1.327 . S
C465 C471 1.429 . S
C466 C458 1.574 . S
C466 H461 0.949 . S
C466 C472 1.368 . S
C467 C451 1.349 . S
C467 H459 0.950 . S
C467 C465 1.327 . S
C468 C456 1.349 . S
C468 H462 0.950 . S
C468 C469 1.327 . S
C469 H463 0.950 . S
C469 C468 1.327 . S
C469 C473 1.429 . S
C470 C453 1.574 . S
C470 H464 0.949 . S
C470 C474 1.368 . S
C471 C452 1.429 . S
C471 C465 1.429 . S
C471 C472 1.523 . S
C472 C453 1.368 . S
C472 C466 1.368 . S
C472 C471 1.523 . S
C473 C457 1.429 . S
C473 C469 1.429 . S
C473 C474 1.523 . S
C474 C458 1.368 . S
C474 C470 1.368 . S
C474 C473 1.523 . S
H475 C450 0.950 . S
H476 C452 0.950 . S
H477 C453 0.949 . S
H478 C455 0.950 . S
H479 C457 0.950 . S
C480 C481 1.349 . S
C480 C482 1.327 . S
C480 H505 0.950 . S
C481 C480 1.349 . S
C481 C497 1.349 . S
C482 C480 1.327 . S
C482 C501 1.429 . S
C482 H506 0.950 . S
C483 C500 1.574 . S
C483 C502 1.368 . S
C483 H507 0.949 . S
H484 C488 0.949 . S
C485 C486 1.349 . S
C485 C487 1.327 . S
C485 H508 0.950 . S
C486 C485 1.349 . S
C486 C498 1.349 . S
C487 C485 1.327 . S
C487 C503 1.429 . S
C487 H509 0.950 . S
C488 H484 0.949 . S
C488 C496 1.574 . S
C488 C504 1.368 . S
H489 C497 0.950 1_554 S
H490 C495 0.950 . S
H491 C496 0.949 . S
H492 C498 0.950 . S
H493 C499 0.950 . S
H494 C500 0.949 . S
C495 H490 0.950 . S
C495 C497 1.327 . S
C495 C501 1.429 . S
C496 C488 1.574 . S
C496 H491 0.949 . S
C496 C502 1.368 . S
C497 C481 1.349 . S
C497 H489 0.950 1_556 S
C497 C495 1.327 . S
C498 C486 1.349 . S
C498 H492 0.950 . S
C498 C499 1.327 . S
C499 H493 0.950 . S
C499 C498 1.327 . S
C499 C503 1.429 . S
C500 C483 1.574 . S
C500 H494 0.949 . S
C500 C504 1.368 . S
C501 C482 1.429 . S
C501 C495 1.429 . S
C501 C502 1.523 . S
C502 C483 1.368 . S
C502 C496 1.368 . S
C502 C501 1.523 . S
C503 C487 1.429 . S
C503 C499 1.429 . S
C503 C504 1.523 . S
C504 C488 1.368 . S
C504 C500 1.368 . S
C504 C503 1.523 . S
H505 C480 0.950 . S
H506 C482 0.950 . S
H507 C483 0.949 . S
H508 C485 0.950 . S
H509 C487 0.950 . S
C510 C511 1.349 . S
C510 C512 1.327 . S
C510 H535 0.950 . S
C511 C510 1.349 . S
C511 C527 1.349 . S
C512 C510 1.327 . S
C512 C531 1.429 . S
C512 H536 0.950 . S
C513 C530 1.574 . S
C513 C532 1.368 . S
C513 H537 0.949 . S
H514 C518 0.949 . S
C515 C516 1.349 . S
C515 C517 1.327 . S
C515 H538 0.950 . S
C516 C515 1.349 . S
C516 C528 1.349 . S
C517 C515 1.327 . S
C517 C533 1.429 . S
C517 H539 0.950 . S
C518 H514 0.949 . S
C518 C526 1.574 . S
C518 C534 1.368 . S
H519 C527 0.950 . S
H520 C525 0.950 . S
H521 C526 0.949 . S
H522 C528 0.950 . S
H523 C529 0.950 . S
H524 C530 0.949 . S
C525 H520 0.950 . S
C525 C527 1.327 . S
C525 C531 1.429 . S
C526 C518 1.574 . S
C526 H521 0.949 . S
C526 C532 1.368 . S
C527 C511 1.349 . S
C527 H519 0.950 . S
C527 C525 1.327 . S
C528 C516 1.349 . S
C528 H522 0.950 . S
C528 C529 1.327 . S
C529 H523 0.950 . S
C529 C528 1.327 . S
C529 C533 1.429 . S
C530 C513 1.574 . S
C530 H524 0.949 . S
C530 C534 1.368 . S
C531 C512 1.429 . S
C531 C525 1.429 . S
C531 C532 1.523 . S
C532 C513 1.368 . S
C532 C526 1.368 . S
C532 C531 1.523 . S
C533 C517 1.429 . S
C533 C529 1.429 . S
C533 C534 1.523 . S
C534 C518 1.368 . S
C534 C530 1.368 . S
C534 C533 1.523 . S
H535 C510 0.950 . S
H536 C512 0.950 . S
H537 C513 0.949 . S
H538 C515 0.950 . S
H539 C517 0.950 . S
C540 C541 1.349 . S
C540 C542 1.327 . S
C540 H565 0.950 . S
C541 C540 1.349 . S
C541 C557 1.349 . S
C542 C540 1.327 . S
C542 C561 1.429 . S
C542 H566 0.950 . S
C543 C560 1.574 . S
C543 C562 1.368 . S
C543 H567 0.949 . S
H544 C548 0.949 . S
C545 C546 1.349 . S
C545 C547 1.327 . S
C545 H568 0.950 . S
C546 C545 1.349 . S
C546 C558 1.349 . S
C547 C545 1.327 . S
C547 C563 1.429 . S
C547 H569 0.950 . S
C548 H544 0.949 . S
C548 C556 1.574 . S
C548 C564 1.368 . S
H549 C557 0.936 1_554 S
H550 C555 0.950 . S
H551 C556 0.949 . S
H552 C558 0.950 . S
H553 C559 0.950 . S
H554 C560 0.949 . S
C555 H550 0.950 . S
C555 C557 1.327 . S
C555 C561 1.429 . S
C556 C548 1.574 . S
C556 H551 0.949 . S
C556 C562 1.368 . S
C557 C541 1.349 . S
C557 H549 0.936 1_556 S
C557 C555 1.327 . S
C558 C546 1.349 . S
C558 H552 0.950 . S
C558 C559 1.327 . S
C559 H553 0.950 . S
C559 C558 1.327 . S
C559 C563 1.429 . S
C560 C543 1.574 . S
C560 H554 0.949 . S
C560 C564 1.368 . S
C561 C542 1.429 . S
C561 C555 1.429 . S
C561 C562 1.523 . S
C562 C543 1.368 . S
C562 C556 1.368 . S
C562 C561 1.523 . S
C563 C547 1.429 . S
C563 C559 1.429 . S
C563 C564 1.523 . S
C564 C548 1.368 . S
C564 C560 1.368 . S
C564 C563 1.523 . S
H565 C540 0.950 . S
H566 C542 0.950 . S
H567 C543 0.949 . S
H568 C545 0.950 . S
H569 C547 0.950 . S
C570 C571 1.349 . S
C570 C572 1.327 . S
C570 H595 0.950 . S
C571 C570 1.349 . S
C571 C587 1.349 . S
C572 C570 1.327 . S
C572 C591 1.429 . S
C572 H596 0.950 . S
C573 C590 1.574 . S
C573 C592 1.368 . S
C573 H597 0.949 . S
H574 C578 0.949 . S
C575 C576 1.349 . S
C575 C577 1.327 . S
C575 H598 0.950 . S
C576 C575 1.349 . S
C576 C588 1.349 . S
C577 C575 1.327 . S
C577 C593 1.429 . S
C577 H599 0.950 . S
C578 H574 0.949 . S
C578 C586 1.574 . S
C578 C594 1.368 . S
H579 C587 0.950 . S
H580 C585 0.950 . S
H581 C586 0.949 . S
H582 C588 0.950 . S
H583 C589 0.950 . S
H584 C590 0.949 . S
C585 H580 0.950 . S
C585 C587 1.327 . S
C585 C591 1.429 . S
C586 C578 1.574 . S
C586 H581 0.949 . S
C586 C592 1.368 . S
C587 C571 1.349 . S
C587 H579 0.950 . S
C587 C585 1.327 . S
C588 C576 1.349 . S
C588 H582 0.950 . S
C588 C589 1.327 . S
C589 H583 0.950 . S
C589 C588 1.327 . S
C589 C593 1.429 . S
C590 C573 1.574 . S
C590 H584 0.949 . S
C590 C594 1.368 . S
C591 C572 1.429 . S
C591 C585 1.429 . S
C591 C592 1.523 . S
C592 C573 1.368 . S
C592 C586 1.368 . S
C592 C591 1.523 . S
C593 C577 1.429 . S
C593 C589 1.429 . S
C593 C594 1.523 . S
C594 C578 1.368 . S
C594 C590 1.368 . S
C594 C593 1.523 . S
H595 C570 0.950 . S
H596 C572 0.950 . S
H597 C573 0.949 . S
H598 C575 0.950 . S
H599 C577 0.950 . S
C600 C601 1.349 . S
C600 C602 1.327 . S
C600 H625 0.950 1_556 S
C601 C600 1.349 . S
C601 C617 1.349 . S
C602 C600 1.327 . S
C602 C621 1.429 . S
C602 H626 0.960 . S
C603 C620 1.574 . S
C603 C622 1.368 . S
C603 H627 0.949 . S
H604 C608 0.949 1_545 S
C605 C606 1.349 . S
C605 C607 1.327 . S
C605 H628 0.950 . S
C606 C605 1.349 . S
C606 C618 1.349 . S
C607 C605 1.327 . S
C607 C623 1.429 . S
C607 H629 0.950 . S
C608 H604 0.949 1_565 S
C608 C616 1.574 . S
C608 C624 1.368 1_565 S
H609 C617 0.950 . S
H610 C615 0.950 . S
H611 C616 0.949 . S
H612 C618 0.950 . S
H613 C619 0.950 . S
H614 C620 0.945 1_545 S
C615 H610 0.950 . S
C615 C617 1.327 . S
C615 C621 1.429 . S
C616 C608 1.574 . S
C616 H611 0.949 . S
C616 C622 1.368 . S
C617 C601 1.349 . S
C617 H609 0.950 . S
C617 C615 1.327 . S
C618 C606 1.349 . S
C618 H612 0.950 . S
C618 C619 1.327 . S
C619 H613 0.950 . S
C619 C618 1.327 . S
C619 C623 1.429 . S
C620 C603 1.574 . S
C620 H614 0.945 1_565 S
C620 C624 1.368 1_565 S
C621 C602 1.429 . S
C621 C615 1.429 . S
C621 C622 1.523 . S
C622 C603 1.368 . S
C622 C616 1.368 . S
C622 C621 1.523 . S
C623 C607 1.429 . S
C623 C619 1.429 . S
C623 C624 1.523 . S
C624 C608 1.368 1_545 S
C624 C620 1.368 1_545 S
C624 C623 1.523 . S
H625 C600 0.950 1_554 S
H626 C602 0.960 . S
H627 C603 0.949 . S
H628 C605 0.950 . S
H629 C607 0.950 . S
C630 C631 1.349 . S
C630 C632 1.327 . S
C630 H655 0.950 . S
C631 C630 1.349 . S
C631 C647 1.349 . S
C632 C630 1.327 . S
C632 C651 1.429 . S
C632 H656 0.950 . S
C633 C650 1.574 . S
C633 C652 1.368 . S
C633 H657 0.949 . S
H634 C638 0.946 1_565 S
C635 C636 1.349 . S
C635 C637 1.327 . S
C635 H658 0.950 . S
C636 C635 1.349 . S
C636 C648 1.349 . S
C637 C635 1.327 . S
C637 C653 1.429 . S
C637 H659 0.950 . S
C638 H634 0.946 1_545 S
C638 C646 1.574 . S
C638 C654 1.368 1_545 S
H639 C647 0.950 . S
H640 C645 0.950 . S
H641 C646 0.949 . S
H642 C648 0.950 . S
H643 C649 0.950 . S
H644 C650 0.949 1_565 S
C645 H640 0.950 . S
C645 C647 1.327 . S
C645 C651 1.429 . S
C646 C638 1.574 . S
C646 H641 0.949 . S
C646 C652 1.368 . S
C647 C631 1.349 . S
C647 H639 0.950 . S
C647 C645 1.327 . S
C648 C636 1.349 . S
C648 H642 0.950 . S
C648 C649 1.327 . S
C649 H643 0.950 . S
C649 C648 1.327 . S
C649 C653 1.429 . S
C650 C633 1.574 . S
C650 H644 0.949 1_545 S
C650 C654 1.368 1_545 S
C651 C632 1.429 . S
C651 C645 1.429 . S
C651 C652 1.523 . S
C652 C633 1.368 . S
C652 C646 1.368 . S
C652 C651 1.523 . S
C653 C637 1.429 . S
C653 C649 1.429 . S
C653 C654 1.523 . S
C654 C638 1.368 1_565 S
C654 C650 1.368 1_565 S
C654 C653 1.523 . S
H655 C630 0.950 . S
H656 C632 0.950 . S
H657 C633 0.949 . S
H658 C635 0.950 . S
H659 C637 0.950 . S
C660 C661 1.349 . S
C660 C662 1.327 . S
C660 H685 0.950 . S
C661 C660 1.349 . S
C661 C677 1.349 . S
C662 C660 1.327 . S
C662 C681 1.429 . S
C662 H686 0.950 . S
C663 C680 1.574 . S
C663 C682 1.368 . S
C663 H687 0.949 . S
H664 C668 0.949 . S
C665 C666 1.349 . S
C665 C667 1.327 . S
C665 H688 0.950 . S
C666 C665 1.349 . S
C666 C678 1.349 . S
C667 C665 1.327 . S
C667 C683 1.429 . S
C667 H689 0.950 1_545 S
C668 H664 0.949 . S
C668 C676 1.574 1_545 S
C668 C684 1.368 . S
H669 C677 0.950 . S
H670 C675 0.950 . S
H671 C676 0.949 1_545 S
H672 C678 0.950 . S
H673 C679 0.950 . S
H674 C680 0.949 . S
C675 H670 0.950 . S
C675 C677 1.327 . S
C675 C681 1.429 . S
C676 C668 1.574 1_565 S
C676 H671 0.949 1_565 S
C676 C682 1.368 . S
C677 C661 1.349 . S
C677 H669 0.950 . S
C677 C675 1.327 . S
C678 C666 1.349 . S
C678 H672 0.950 . S
C678 C679 1.327 . S
C679 H673 0.950 . S
C679 C678 1.327 . S
C679 C683 1.429 . S
C680 C663 1.574 . S
C680 H674 0.949 . S
C680 C684 1.368 1_565 S
C681 C662 1.429 . S
C681 C675 1.429 . S
C681 C682 1.523 . S
C682 C663 1.368 . S
C682 C676 1.368 . S
C682 C681 1.523 . S
C683 C667 1.429 . S
C683 C679 1.429 . S
C683 C684 1.523 . S
C684 C668 1.368 . S
C684 C680 1.368 1_545 S
C684 C683 1.523 . S
H685 C660 0.950 . S
H686 C662 0.950 . S
H687 C663 0.949 . S
H688 C665 0.950 . S
H689 C667 0.950 1_565 S
C690 C691 1.349 . S
C690 C692 1.327 . S
C690 H715 0.950 . S
C691 C690 1.349 . S
C691 C707 1.349 . S
C692 C690 1.327 . S
C692 C711 1.429 . S
C692 H716 0.950 . S
C693 C710 1.574 1_545 S
C693 C712 1.368 . S
C693 H717 0.949 1_545 S
H694 C698 0.949 . S
C695 C696 1.349 . S
C695 C697 1.327 . S
C695 H718 0.950 . S
C696 C695 1.349 . S
C696 C708 1.349 . S
C697 C695 1.327 . S
C697 C713 1.429 . S
C697 H719 0.950 . S
C698 H694 0.949 . S
C698 C706 1.574 . S
C698 C714 1.368 1_545 S
H699 C707 0.950 . S
H700 C705 0.950 . S
H701 C706 0.949 . S
H702 C708 0.950 . S
H703 C709 0.950 1_545 S
H704 C710 0.949 . S
C705 H700 0.950 . S
C705 C707 1.327 . S
C705 C711 1.429 . S
C706 C698 1.574 . S
C706 H701 0.949 . S
C706 C712 1.368 . S
C707 C691 1.349 . S
C707 H699 0.950 . S
C707 C705 1.327 . S
C708 C696 1.349 . S
C708 H702 0.950 . S
C708 C709 1.327 . S
C709 H703 0.950 1_565 S
C709 C708 1.327 . S
C709 C713 1.429 . S
C710 C693 1.574 1_565 S
C710 H704 0.949 . S
C710 C714 1.368 . S
C711 C692 1.429 . S
C711 C705 1.429 . S
C711 C712 1.523 . S
C712 C693 1.368 . S
C712 C706 1.368 . S
C712 C711 1.523 . S
C713 C697 1.429 . S
C713 C709 1.429 . S
C713 C714 1.523 . S
C714 C698 1.368 1_565 S
C714 C710 1.368 . S
C714 C713 1.523 . S
H715 C690 0.950 . S
H716 C692 0.950 . S
H717 C693 0.949 1_565 S
H718 C695 0.950 . S
H719 C697 0.950 . S
C720 C721 1.349 . S
C720 C722 1.327 . S
C720 H745 0.950 . S
C721 C720 1.349 . S
C721 C737 1.349 . S
C722 C720 1.327 . S
C722 C741 1.429 . S
C722 H746 0.950 . S
C723 C740 1.574 . S
C723 C742 1.368 . S
C723 H747 0.949 . S
H724 C728 0.949 . S
C725 C726 1.349 . S
C725 C727 1.327 . S
C725 H748 0.950 . S
C726 C725 1.349 . S
C726 C738 1.349 . S
C727 C725 1.327 . S
C727 C743 1.429 . S
C727 H749 0.950 . S
C728 H724 0.949 . S
C728 C736 1.574 . S
C728 C744 1.368 . S
H729 C737 0.950 . S
H730 C735 0.950 . S
H731 C736 0.949 . S
H732 C738 0.950 . S
H733 C739 0.950 . S
H734 C740 0.949 . S
C735 H730 0.950 . S
C735 C737 1.327 . S
C735 C741 1.429 . S
C736 C728 1.574 . S
C736 H731 0.949 . S
C736 C742 1.368 . S
C737 C721 1.349 . S
C737 H729 0.950 . S
C737 C735 1.327 . S
C738 C726 1.349 . S
C738 H732 0.950 . S
C738 C739 1.327 . S
C739 H733 0.950 . S
C739 C738 1.327 . S
C739 C743 1.429 . S
C740 C723 1.574 . S
C740 H734 0.949 . S
C740 C744 1.368 . S
C741 C722 1.429 . S
C741 C735 1.429 . S
C741 C742 1.523 . S
C742 C723 1.368 . S
C742 C736 1.368 . S
C742 C741 1.523 . S
C743 C727 1.429 . S
C743 C739 1.429 . S
C743 C744 1.523 . S
C744 C728 1.368 . S
C744 C740 1.368 . S
C744 C743 1.523 . S
H745 C720 0.950 . S
H746 C722 0.950 . S
H747 C723 0.949 . S
H748 C725 0.950 . S
H749 C727 0.950 . S
C750 C751 1.349 . S
C750 C752 1.327 . S
C750 H775 0.950 . S
C751 C750 1.349 . S
C751 C767 1.349 . S
C752 C750 1.327 . S
C752 C771 1.429 . S
C752 H776 0.950 . S
C753 C770 1.574 . S
C753 C772 1.368 . S
C753 H777 0.949 . S
H754 C758 0.949 . S
C755 C756 1.349 . S
C755 C757 1.327 . S
C755 H778 0.950 . S
C756 C755 1.349 . S
C756 C768 1.349 . S
C757 C755 1.327 . S
C757 C773 1.429 . S
C757 H779 0.950 . S
C758 H754 0.949 . S
C758 C766 1.574 . S
C758 C774 1.368 . S
H759 C767 0.950 . S
H760 C765 0.950 . S
H761 C766 0.949 . S
H762 C768 0.950 . S
H763 C769 0.950 . S
H764 C770 0.949 . S
C765 H760 0.950 . S
C765 C767 1.327 . S
C765 C771 1.429 . S
C766 C758 1.574 . S
C766 H761 0.949 . S
C766 C772 1.368 . S
C767 C751 1.349 . S
C767 H759 0.950 . S
C767 C765 1.327 . S
C768 C756 1.349 . S
C768 H762 0.950 . S
C768 C769 1.327 . S
C769 H763 0.950 . S
C769 C768 1.327 . S
C769 C773 1.429 . S
C770 C753 1.574 . S
C770 H764 0.949 . S
C770 C774 1.368 . S
C771 C752 1.429 . S
C771 C765 1.429 . S
C771 C772 1.523 . S
C772 C753 1.368 . S
C772 C766 1.368 . S
C772 C771 1.523 . S
C773 C757 1.429 . S
C773 C769 1.429 . S
C773 C774 1.523 . S
C774 C758 1.368 . S
C774 C770 1.368 . S
C774 C773 1.523 . S
H775 C750 0.950 . S
H776 C752 0.950 . S
H777 C753 0.949 . S
H778 C755 0.950 . S
H779 C757 0.950 . S
C780 C781 1.349 . S
C780 C782 1.327 . S
C780 H805 0.950 . S
C781 C780 1.349 . S
C781 C797 1.349 . S
C782 C780 1.327 . S
C782 C801 1.429 . S
C782 H806 0.950 . S
C783 C800 1.574 . S
C783 C802 1.368 . S
C783 H807 0.949 . S
H784 C788 0.949 . S
C785 C786 1.349 . S
C785 C787 1.327 . S
C785 H808 0.950 . S
C786 C785 1.349 . S
C786 C798 1.349 . S
C787 C785 1.327 . S
C787 C803 1.429 . S
C787 H809 0.950 . S
C788 H784 0.949 . S
C788 C796 1.574 . S
C788 C804 1.368 . S
H789 C797 0.950 . S
H790 C795 0.950 . S
H791 C796 0.949 . S
H792 C798 0.950 . S
H793 C799 0.950 . S
H794 C800 0.949 . S
C795 H790 0.950 . S
C795 C797 1.327 . S
C795 C801 1.429 . S
C796 C788 1.574 . S
C796 H791 0.949 . S
C796 C802 1.368 . S
C797 C781 1.349 . S
C797 H789 0.950 . S
C797 C795 1.327 . S
C798 C786 1.349 . S
C798 H792 0.950 . S
C798 C799 1.327 . S
C799 H793 0.950 . S
C799 C798 1.327 . S
C799 C803 1.429 . S
C800 C783 1.574 . S
C800 H794 0.949 . S
C800 C804 1.368 . S
C801 C782 1.429 . S
C801 C795 1.429 . S
C801 C802 1.523 . S
C802 C783 1.368 . S
C802 C796 1.368 . S
C802 C801 1.523 . S
C803 C787 1.429 . S
C803 C799 1.429 . S
C803 C804 1.523 . S
C804 C788 1.368 . S
C804 C800 1.368 . S
C804 C803 1.523 . S
H805 C780 0.950 . S
H806 C782 0.950 . S
H807 C783 0.949 . S
H808 C785 0.950 . S
H809 C787 0.950 . S
C810 C811 1.349 . S
C810 C812 1.327 . S
C810 H835 0.950 . S
C811 C810 1.349 . S
C811 C827 1.349 . S
C812 C810 1.327 . S
C812 C831 1.429 . S
C812 H836 0.950 . S
C813 C830 1.574 . S
C813 C832 1.368 . S
C813 H837 0.949 . S
H814 C818 0.949 . S
C815 C816 1.349 . S
C815 C817 1.327 . S
C815 H838 0.950 . S
C816 C815 1.349 . S
C816 C828 1.349 . S
C817 C815 1.327 . S
C817 C833 1.429 . S
C817 H839 0.950 . S
C818 H814 0.949 . S
C818 C826 1.574 . S
C818 C834 1.368 . S
H819 C827 0.950 . S
H820 C825 0.950 . S
H821 C826 0.949 . S
H822 C828 0.950 . S
H823 C829 0.950 . S
H824 C830 0.949 . S
C825 H820 0.950 . S
C825 C827 1.327 . S
C825 C831 1.429 . S
C826 C818 1.574 . S
C826 H821 0.949 . S
C826 C832 1.368 . S
C827 C811 1.349 . S
C827 H819 0.950 . S
C827 C825 1.327 . S
C828 C816 1.349 . S
C828 H822 0.950 . S
C828 C829 1.327 . S
C829 H823 0.950 . S
C829 C828 1.327 . S
C829 C833 1.429 . S
C830 C813 1.574 . S
C830 H824 0.949 . S
C830 C834 1.368 . S
C831 C812 1.429 . S
C831 C825 1.429 . S
C831 C832 1.523 . S
C832 C813 1.368 . S
C832 C826 1.368 . S
C832 C831 1.523 . S
C833 C817 1.429 . S
C833 C829 1.429 . S
C833 C834 1.523 . S
C834 C818 1.368 . S
C834 C830 1.368 . S
C834 C833 1.523 . S
H835 C810 0.950 . S
H836 C812 0.950 . S
H837 C813 0.949 . S
H838 C815 0.950 . S
H839 C817 0.950 . S
C840 C841 1.349 . S
C840 C842 1.327 . S
C840 H865 0.950 . S
C841 C840 1.349 . S
C841 C857 1.349 . S
C842 C840 1.327 . S
C842 C861 1.429 . S
C842 H866 0.950 . S
C843 C860 1.574 . S
C843 C862 1.368 . S
C843 H867 0.949 . S
H844 C848 0.949 . S
C845 C846 1.349 . S
C845 C847 1.327 . S
C845 H868 0.950 . S
C846 C845 1.349 . S
C846 C858 1.349 . S
C847 C845 1.327 . S
C847 C863 1.429 . S
C847 H869 0.950 . S
C848 H844 0.949 . S
C848 C856 1.574 . S
C848 C864 1.368 . S
H849 C857 0.950 . S
H850 C855 0.950 . S
H851 C856 0.949 . S
H852 C858 0.950 . S
H853 C859 0.950 . S
H854 C860 0.949 . S
C855 H850 0.950 . S
C855 C857 1.327 . S
C855 C861 1.429 . S
C856 C848 1.574 . S
C856 H851 0.949 . S
C856 C862 1.368 . S
C857 C841 1.349 . S
C857 H849 0.950 . S
C857 C855 1.327 . S
C858 C846 1.349 . S
C858 H852 0.950 . S
C858 C859 1.327 . S
C859 H853 0.950 . S
C859 C858 1.327 . S
C859 C863 1.429 . S
C860 C843 1.574 . S
C860 H854 0.949 . S
C860 C864 1.368 . S
C861 C842 1.429 . S
C861 C855 1.429 . S
C861 C862 1.523 . S
C862 C843 1.368 . S
C862 C856 1.368 . S
C862 C861 1.523 . S
C863 C847 1.429 . S
C863 C859 1.429 . S
C863 C864 1.523 . S
C864 C848 1.368 . S
C864 C860 1.368 . S
C864 C863 1.523 . S
H865 C840 0.950 . S
H866 C842 0.950 . S
H867 C843 0.949 . S
H868 C845 0.950 . S
H869 C847 0.950 . S
C870 C871 1.349 . S
C870 C872 1.327 . S
C870 H895 0.950 . S
C871 C870 1.349 . S
C871 C887 1.349 . S
C872 C870 1.327 . S
C872 C891 1.429 . S
C872 H896 0.950 . S
C873 C890 1.574 . S
C873 C892 1.368 . S
C873 H897 0.949 . S
H874 C878 0.949 . S
C875 C876 1.349 . S
C875 C877 1.327 . S
C875 H898 0.950 . S
C876 C875 1.349 . S
C876 C888 1.349 . S
C877 C875 1.327 . S
C877 C893 1.429 . S
C877 H899 0.950 . S
C878 H874 0.949 . S
C878 C886 1.574 . S
C878 C894 1.368 . S
H879 C887 0.950 . S
H880 C885 0.950 . S
H881 C886 0.949 . S
H882 C888 0.950 . S
H883 C889 0.950 . S
H884 C890 0.949 . S
C885 H880 0.950 . S
C885 C887 1.327 . S
C885 C891 1.429 . S
C886 C878 1.574 . S
C886 H881 0.949 . S
C886 C892 1.368 . S
C887 C871 1.349 . S
C887 H879 0.950 . S
C887 C885 1.327 . S
C888 C876 1.349 . S
C888 H882 0.950 . S
C888 C889 1.327 . S
C889 H883 0.950 . S
C889 C888 1.327 . S
C889 C893 1.429 . S
C890 C873 1.574 . S
C890 H884 0.949 . S
C890 C894 1.368 . S
C891 C872 1.429 . S
C891 C885 1.429 . S
C891 C892 1.523 . S
C892 C873 1.368 . S
C892 C886 1.368 . S
C892 C891 1.523 . S
C893 C877 1.429 . S
C893 C889 1.429 . S
C893 C894 1.523 . S
C894 C878 1.368 . S
C894 C890 1.368 . S
C894 C893 1.523 . S
H895 C870 0.950 . S
H896 C872 0.950 . S
H897 C873 0.949 . S
H898 C875 0.950 . S
H899 C877 0.950 . S
C900 C901 1.349 . S
C900 C902 1.327 . S
C900 H925 0.950 . S
C901 C900 1.349 . S
C901 C917 1.349 . S
C902 C900 1.327 . S
C902 C921 1.429 . S
C902 H926 0.950 . S
C903 C920 1.574 . S
C903 C922 1.368 . S
C903 H927 0.949 . S
H904 C908 0.949 . S
C905 C906 1.349 . S
C905 C907 1.327 . S
C905 H928 0.950 . S
C906 C905 1.349 . S
C906 C918 1.349 . S
C907 C905 1.327 . S
C907 C923 1.429 . S
C907 H929 0.950 . S
C908 H904 0.949 . S
C908 C916 1.574 . S
C908 C924 1.368 . S
H909 C917 0.950 . S
H910 C915 0.950 . S
H911 C916 0.949 . S
H912 C918 0.950 . S
H913 C919 0.950 . S
H914 C920 0.949 . S
C915 H910 0.950 . S
C915 C917 1.327 . S
C915 C921 1.429 . S
C916 C908 1.574 . S
C916 H911 0.949 . S
C916 C922 1.368 . S
C917 C901 1.349 . S
C917 H909 0.950 . S
C917 C915 1.327 . S
C918 C906 1.349 . S
C918 H912 0.950 . S
C918 C919 1.327 . S
C919 H913 0.950 . S
C919 C918 1.327 . S
C919 C923 1.429 . S
C920 C903 1.574 . S
C920 H914 0.949 . S
C920 C924 1.368 . S
C921 C902 1.429 . S
C921 C915 1.429 . S
C921 C922 1.523 . S
C922 C903 1.368 . S
C922 C916 1.368 . S
C922 C921 1.523 . S
C923 C907 1.429 . S
C923 C919 1.429 . S
C923 C924 1.523 . S
C924 C908 1.368 . S
C924 C920 1.368 . S
C924 C923 1.523 . S
H925 C900 0.950 . S
H926 C902 0.950 . S
H927 C903 0.949 . S
H928 C905 0.950 . S
H929 C907 0.950 . S
C930 C931 1.349 . S
C930 C932 1.327 . S
C930 H955 0.950 . S
C931 C930 1.349 . S
C931 C947 1.349 . S
C932 C930 1.327 . S
C932 C951 1.429 . S
C932 H956 0.950 . S
C933 C950 1.574 . S
C933 C952 1.368 . S
C933 H957 0.949 . S
H934 C938 0.949 . S
C935 C936 1.349 . S
C935 C937 1.327 . S
C935 H958 0.950 . S
C936 C935 1.349 . S
C936 C948 1.349 . S
C937 C935 1.327 . S
C937 C953 1.429 . S
C937 H959 0.950 . S
C938 H934 0.949 . S
C938 C946 1.574 . S
C938 C954 1.368 . S
H939 C947 0.950 . S
H940 C945 0.950 . S
H941 C946 0.949 . S
H942 C948 0.950 . S
H943 C949 0.950 . S
H944 C950 0.949 . S
C945 H940 0.950 . S
C945 C947 1.327 . S
C945 C951 1.429 . S
C946 C938 1.574 . S
C946 H941 0.949 . S
C946 C952 1.368 . S
C947 C931 1.349 . S
C947 H939 0.950 . S
C947 C945 1.327 . S
C948 C936 1.349 . S
C948 H942 0.950 . S
C948 C949 1.327 . S
C949 H943 0.950 . S
C949 C948 1.327 . S
C949 C953 1.429 . S
C950 C933 1.574 . S
C950 H944 0.949 . S
C950 C954 1.368 . S
C951 C932 1.429 . S
C951 C945 1.429 . S
C951 C952 1.523 . S
C952 C933 1.368 . S
C952 C946 1.368 . S
C952 C951 1.523 . S
C953 C937 1.429 . S
C953 C949 1.429 . S
C953 C954 1.523 . S
C954 C938 1.368 . S
C954 C950 1.368 . S
C954 C953 1.523 . S
H955 C930 0.950 . S
H956 C932 0.950 . S
H957 C933 0.949 . S
H958 C935 0.950 . S
H959 C937 0.950 . S
C241 C11 1.475 . S
C246 C178 1.544 . S
C276 C156 1.547 . S
C271 C30 1.477 . S
C306 C182 1.547 . S
C301 C49 1.407 . S
C336 C160 1.547 . S
C331 C68 1.400 . S
C366 C222 1.547 . S
C361 C87 1.475 . S
C396 C200 1.547 . S
C391 C106 1.476 . S
C421 C125 1.404 . S
C426 C226 1.547 . S
C456 C204 1.547 . S
C451 C144 1.404 . S
C481 C2 1.540 1_556 S
C486 C227 1.576 . S
C516 C205 1.575 . S
C511 C21 1.539 . S
C541 C40 1.538 1_556 S
C546 C224 1.575 . S
C571 C59 1.538 . S
C576 C202 1.575 . S
C606 C183 1.575 . S
C601 C78 1.542 1_556 S
C631 C97 1.539 . S
C636 C161 1.572 . S
C666 C180 1.575 . S
C661 C116 1.536 1_556 S
C696 C158 1.575 . S
C691 C135 1.540 . S
C726 C201 1.517 . S
C721 C6 1.527 . S
C756 C223 1.517 . S
C751 C25 1.527 . S
C781 C44 1.523 . S
C786 C203 1.517 . S
C816 C225 1.517 . S
C811 C63 1.523 . S
C846 C157 1.517 . S
C841 C82 1.529 . S
C871 C101 1.527 . S
C876 C179 1.514 . S
C901 C120 1.523 . S
C906 C159 1.514 . S
C931 C139 1.523 . S
C936 C181 1.520 . S
