# Generated by pormake.
# Topology wbl, (4,4)-cn, num edge types: 1
# Building blocks:
#     Node 0, Type 0, BuildingBlock: NAWXER_clean_linker_0, # of connection points: 4
#     Node 1, Type 0, BuildingBlock: NAWXER_clean_linker_0, # of connection points: 4
#     Node 2, Type 0, BuildingBlock: NAWXER_clean_linker_0, # of connection points: 4
#     Node 3, Type 0, BuildingBlock: NAWXER_clean_linker_0, # of connection points: 4
#     Node 4, Type 0, BuildingBlock: NAWXER_clean_linker_0, # of connection points: 4
#     Node 5, Type 0, BuildingBlock: NAWXER_clean_linker_0, # of connection points: 4
#     Node 6, Type 0, BuildingBlock: NAWXER_clean_linker_0, # of connection points: 4
#     Node 7, Type 0, BuildingBlock: NAWXER_clean_linker_0, # of connection points: 4
#     Node 8, Type 1, BuildingBlock: CEKHIL_clean_sbu_0, # of connection points: 4
#     Node 9, Type 1, BuildingBlock: CEKHIL_clean_sbu_0, # of connection points: 4
#     Node 10, Type 1, BuildingBlock: CEKHIL_clean_sbu_0, # of connection points: 4
#     Node 11, Type 1, BuildingBlock: CEKHIL_clean_sbu_0, # of connection points: 4
#     Node 12, Type 1, BuildingBlock: CEKHIL_clean_sbu_0, # of connection points: 4
#     Node 13, Type 1, BuildingBlock: CEKHIL_clean_sbu_0, # of connection points: 4
#     Node 14, Type 1, BuildingBlock: CEKHIL_clean_sbu_0, # of connection points: 4
#     Node 15, Type 1, BuildingBlock: CEKHIL_clean_sbu_0, # of connection points: 4
#     Edge 16, Type (0, 1), BuildingBlock: OJICUG_clean_linker_0, # of connection points: 2
#     Edge 17, Type (0, 1), BuildingBlock: OJICUG_clean_linker_0, # of connection points: 2
#     Edge 18, Type (0, 1), BuildingBlock: OJICUG_clean_linker_0, # of connection points: 2
#     Edge 19, Type (0, 1), BuildingBlock: OJICUG_clean_linker_0, # of connection points: 2
#     Edge 20, Type (0, 1), BuildingBlock: OJICUG_clean_linker_0, # of connection points: 2
#     Edge 21, Type (0, 1), BuildingBlock: OJICUG_clean_linker_0, # of connection points: 2
#     Edge 22, Type (0, 1), BuildingBlock: OJICUG_clean_linker_0, # of connection points: 2
#     Edge 23, Type (0, 1), BuildingBlock: OJICUG_clean_linker_0, # of connection points: 2
#     Edge 24, Type (0, 1), BuildingBlock: OJICUG_clean_linker_0, # of connection points: 2
#     Edge 25, Type (0, 1), BuildingBlock: OJICUG_clean_linker_0, # of connection points: 2
#     Edge 26, Type (0, 1), BuildingBlock: OJICUG_clean_linker_0, # of connection points: 2
#     Edge 27, Type (0, 1), BuildingBlock: OJICUG_clean_linker_0, # of connection points: 2
#     Edge 28, Type (0, 1), BuildingBlock: OJICUG_clean_linker_0, # of connection points: 2
#     Edge 29, Type (0, 1), BuildingBlock: OJICUG_clean_linker_0, # of connection points: 2
#     Edge 30, Type (0, 1), BuildingBlock: OJICUG_clean_linker_0, # of connection points: 2
#     Edge 31, Type (0, 1), BuildingBlock: OJICUG_clean_linker_0, # of connection points: 2
#     Edge 32, Type (0, 1), BuildingBlock: OJICUG_clean_linker_0, # of connection points: 2
#     Edge 33, Type (0, 1), BuildingBlock: OJICUG_clean_linker_0, # of connection points: 2
#     Edge 34, Type (0, 1), BuildingBlock: OJICUG_clean_linker_0, # of connection points: 2
#     Edge 35, Type (0, 1), BuildingBlock: OJICUG_clean_linker_0, # of connection points: 2
#     Edge 36, Type (0, 1), BuildingBlock: OJICUG_clean_linker_0, # of connection points: 2
#     Edge 37, Type (0, 1), BuildingBlock: OJICUG_clean_linker_0, # of connection points: 2
#     Edge 38, Type (0, 1), BuildingBlock: OJICUG_clean_linker_0, # of connection points: 2
#     Edge 39, Type (0, 1), BuildingBlock: OJICUG_clean_linker_0, # of connection points: 2
#     Edge 40, Type (0, 1), BuildingBlock: OJICUG_clean_linker_0, # of connection points: 2
#     Edge 41, Type (0, 1), BuildingBlock: OJICUG_clean_linker_0, # of connection points: 2
#     Edge 42, Type (0, 1), BuildingBlock: OJICUG_clean_linker_0, # of connection points: 2
#     Edge 43, Type (0, 1), BuildingBlock: OJICUG_clean_linker_0, # of connection points: 2
#     Edge 44, Type (0, 1), BuildingBlock: OJICUG_clean_linker_0, # of connection points: 2
#     Edge 45, Type (0, 1), BuildingBlock: OJICUG_clean_linker_0, # of connection points: 2
#     Edge 46, Type (0, 1), BuildingBlock: OJICUG_clean_linker_0, # of connection points: 2
#     Edge 47, Type (0, 1), BuildingBlock: OJICUG_clean_linker_0, # of connection points: 2
# Relax obj value: 0.169
# Max RMSD: 0.173
# Mean RMSD: 0.146
data_MOF--net-wbl--node1-CEKHIL_clean_sbu_0--node2-NAWXER_clean_linker_0--edge1-OJICUG_clean_linker_0
_symmetry_space_group_name_H-M    P1
_symmetry_Int_Tables_number       1
_symmetry_cell_setting            triclinic
loop_
_symmetry_equiv_pos_as_xyz
'x, y, z'
_cell_length_a     34.655019
_cell_length_b     34.813393
_cell_length_c     60.783242
_cell_angle_alpha  90.29925
_cell_angle_beta   90.124575
_cell_angle_gamma 89.978374
loop_
_atom_site_label
_atom_site_type_symbol
_atom_site_fract_x
_atom_site_fract_y
_atom_site_fract_z
_atom_type_partial_charge
C0 C 0.14651 0.95217 0.36731 0.0
C1 C 0.15272 0.97091 0.38764 0.0
C2 C 0.12822 0.97111 0.34993 0.0
C3 C 0.11743 0.0099 0.35202 0.0
C4 C 0.14339 0.01021 0.38924 0.0
C5 C 0.12649 0.02944 0.37162 0.0
C6 C 0.09081 0.02852 0.33609 0.0
C7 C 0.19213 0.99429 0.29607 0.0
C8 C 0.18526 0.96267 0.28213 0.0
C9 C 0.16148 0.01401 0.30577 0.0
C10 C 0.12329 0.00255 0.30176 0.0
C11 C 0.14696 0.95159 0.27779 0.0
C12 C 0.11617 0.97169 0.28735 0.0
C13 C 0.09109 0.02232 0.31303 0.0
C14 C 0.95749 0.1227 0.28424 0.0
C15 C 0.93045 0.09564 0.27647 0.0
C16 C 0.99188 0.11061 0.2941 0.0
C17 C 9e-05 0.07131 0.29611 0.0
C18 C 0.93986 0.05628 0.27768 0.0
C19 C 0.97447 0.0443 0.28724 0.0
C20 C 0.03262 0.05817 0.3098 0.0
C21 C 0.94526 0.0825 0.36681 0.0
C22 C 0.9533 0.1189 0.37582 0.0
C23 C 0.96981 0.06639 0.35105 0.0
C24 C 0.0028 0.08634 0.34428 0.0
C25 C 0.98487 0.13989 0.36778 0.0
C26 C 0.0097 0.1235 0.35229 0.0
C27 C 0.03354 0.06577 0.3325 0.0
H28 H 0.15414 0.92229 0.36501 0.0
H29 H 0.1206 0.95452 0.33548 0.0
H30 H 0.1468 0.02599 0.40449 0.0
H31 H 0.11832 0.05926 0.37384 0.0
H32 H 0.22132 0.00334 0.29985 0.0
H33 H 0.16763 0.03806 0.31661 0.0
H34 H 0.14086 0.92755 0.26696 0.0
H35 H 0.08687 0.96252 0.28397 0.0
H36 H 0.95171 0.1532 0.28324 0.0
H37 H 0.01151 0.13188 0.30081 0.0
H38 H 0.91967 0.03442 0.27232 0.0
H39 H 0.98017 0.01384 0.28888 0.0
H40 H 0.92108 0.06582 0.37274 0.0
H41 H 0.96444 0.03742 0.34521 0.0
H42 H 0.99196 0.16779 0.37464 0.0
H43 H 0.03541 0.13898 0.34745 0.0
N44 N 0.06219 0.05039 0.34474 0.0
N45 N 0.06149 0.03675 0.30073 0.0
C46 C 0.92211 0.45063 0.61626 0.0
C47 C 0.944 0.43603 0.63387 0.0
C48 C 0.93988 0.47219 0.59976 0.0
C49 C 0.97964 0.47944 0.60075 0.0
C50 C 0.98434 0.44038 0.63352 0.0
C51 C 0.00191 0.46233 0.61726 0.0
C52 C 0.99682 0.51022 0.58749 0.0
C53 C 0.99213 0.4051 0.54661 0.0
C54 C 0.96091 0.40656 0.53184 0.0
C55 C 0.00587 0.43855 0.55661 0.0
C56 C 0.98878 0.47411 0.55197 0.0
C57 C 0.9444 0.44238 0.5268 0.0
C58 C 0.95848 0.476 0.53669 0.0
C59 C 0.00062 0.50856 0.56446 0.0
C60 C 0.09869 0.6307 0.53203 0.0
C61 C 0.08279 0.66767 0.53443 0.0
C62 C 0.08004 0.5988 0.54104 0.0
C63 C 0.04557 0.60355 0.55279 0.0
C64 C 0.04741 0.67192 0.54546 0.0
C65 C 0.029 0.64017 0.55453 0.0
C66 C 0.02862 0.57111 0.56487 0.0
C67 C 0.02227 0.64789 0.63178 0.0
C68 C 0.06112 0.64809 0.63854 0.0
C69 C 0.01072 0.62587 0.6137 0.0
C70 C 0.03792 0.60464 0.60174 0.0
C71 C 0.08881 0.62996 0.62513 0.0
C72 C 0.07723 0.60834 0.6068 0.0
C73 C 0.02456 0.57251 0.5879 0.0
H74 H 0.89098 0.44798 0.61608 0.0
H75 H 0.92222 0.48559 0.58723 0.0
H76 H 0.00212 0.42873 0.64656 0.0
H77 H 0.03268 0.46767 0.61823 0.0
H78 H 0.0052 0.37791 0.55098 0.0
H79 H 0.02934 0.43657 0.56836 0.0
H80 H 0.92052 0.44434 0.51534 0.0
H81 H 0.94487 0.50325 0.533 0.0
H82 H 0.12571 0.62654 0.52342 0.0
H83 H 0.09325 0.57069 0.53958 0.0
H84 H 0.03458 0.70003 0.54778 0.0
H85 H 0.00228 0.64434 0.56346 0.0
H86 H 0.00037 0.66216 0.64154 0.0
H87 H 0.98023 0.62322 0.61001 0.0
H88 H 0.11892 0.62936 0.62993 0.0
H89 H 0.09854 0.59175 0.59784 0.0
N90 N 0.00891 0.54206 0.59832 0.0
N91 N 0.01651 0.5391 0.5538 0.0
C92 C 0.58745 0.4291 0.8593 0.0
C93 C 0.60574 0.45064 0.87595 0.0
C94 C 0.56505 0.44747 0.84335 0.0
C95 C 0.56078 0.48757 0.84379 0.0
C96 C 0.60428 0.49098 0.87502 0.0
C97 C 0.58162 0.50925 0.85922 0.0
C98 C 0.52957 0.50605 0.83116 0.0
C99 C 0.62469 0.48943 0.7841 0.0
C100 C 0.62222 0.45234 0.77495 0.0
C101 C 0.59272 0.50634 0.79404 0.0
C102 C 0.55751 0.48671 0.79487 0.0
C103 C 0.58667 0.43288 0.77543 0.0
C104 C 0.55433 0.45018 0.78517 0.0
C105 C 0.52594 0.50298 0.80815 0.0
C106 C 0.39599 0.60478 0.78307 0.0
C107 C 0.36244 0.58204 0.78192 0.0
C108 C 0.43036 0.58958 0.79147 0.0
C109 C 0.43172 0.55145 0.7987 0.0
C110 C 0.36445 0.54353 0.78885 0.0
C111 C 0.39879 0.5284 0.79711 0.0
C112 C 0.46619 0.53662 0.80991 0.0
C113 C 0.39271 0.54766 0.87529 0.0
C114 C 0.40059 0.58403 0.8844 0.0
C115 C 0.41289 0.53472 0.8568 0.0
C116 C 0.44116 0.55795 0.84718 0.0
C117 C 0.42644 0.60852 0.8735 0.0
C118 C 0.44685 0.5954 0.8551 0.0
C119 C 0.47033 0.54018 0.83283 0.0
H120 H 0.58769 0.39801 0.85969 0.0
H121 H 0.54859 0.43013 0.83185 0.0
H122 H 0.6186 0.50836 0.88741 0.0
H123 H 0.57865 0.54023 0.85982 0.0
H124 H 0.65181 0.5049 0.78425 0.0
H125 H 0.59575 0.53438 0.80167 0.0
H126 H 0.58403 0.4043 0.76847 0.0
H127 H 0.52739 0.43449 0.78594 0.0
H128 H 0.39559 0.63439 0.77772 0.0
H129 H 0.45559 0.60781 0.79283 0.0
H130 H 0.3391 0.52536 0.7887 0.0
H131 H 0.39931 0.49905 0.80296 0.0
H132 H 0.37284 0.5283 0.88334 0.0
H133 H 0.40854 0.50552 0.85104 0.0
H134 H 0.4334 0.63651 0.8803 0.0
H135 H 0.46907 0.61343 0.84807 0.0
N136 N 0.50175 0.52468 0.84264 0.0
N137 N 0.49427 0.51833 0.79815 0.0
C138 C 0.50745 0.8679 0.03749 0.0
C139 C 0.47069 0.87157 0.02791 0.0
C140 C 0.5262 0.89969 0.04643 0.0
C141 C 0.50876 0.93599 0.04601 0.0
C142 C 0.45347 0.90817 0.02703 0.0
C143 C 0.47262 0.94032 0.03585 0.0
C144 C 0.52761 0.96801 0.05788 0.0
C145 C 0.46076 0.91288 0.11357 0.0
C146 C 0.48375 0.8958 0.12994 0.0
C147 C 0.47782 0.93284 0.09623 0.0
C148 C 0.51812 0.93608 0.095 0.0
C149 C 0.52411 0.89639 0.12753 0.0
C150 C 0.54112 0.91672 0.11036 0.0
C151 C 0.53583 0.96503 0.08052 0.0
C152 C 0.59833 0.09676 0.12079 0.0
C153 C 0.63519 0.08415 0.12729 0.0
C154 C 0.57947 0.07921 0.10301 0.0
C155 C 0.59735 0.04915 0.09145 0.0
C156 C 0.65439 0.05674 0.11421 0.0
C157 C 0.63545 0.03913 0.09656 0.0
C158 C 0.57358 0.02182 0.07885 0.0
C159 C 0.62925 0.10026 0.03075 0.0
C160 C 0.60239 0.12786 0.02356 0.0
C161 C 0.61679 0.06652 0.04087 0.0
C162 C 0.57728 0.05955 0.04382 0.0
C163 C 0.56273 0.12003 0.02599 0.0
C164 C 0.55034 0.08606 0.03587 0.0
C165 C 0.56403 0.02608 0.05648 0.0
H166 H 0.52128 0.8401 0.0388 0.0
H167 H 0.55407 0.89576 0.05423 0.0
H168 H 0.42519 0.91182 0.0197 0.0
H169 H 0.45866 0.96816 0.03549 0.0
H170 H 0.42962 0.9134 0.11499 0.0
H171 H 0.45946 0.94821 0.08484 0.0
H172 H 0.54266 0.88281 0.13956 0.0
H173 H 0.57228 0.91889 0.10969 0.0
H174 H 0.58269 0.1176 0.13061 0.0
H175 H 0.54975 0.08676 0.09952 0.0
H176 H 0.683 0.04685 0.11863 0.0
H177 H 0.64946 0.01559 0.088 0.0
H178 H 0.65994 0.10483 0.02876 0.0
H179 H 0.63802 0.04608 0.04668 0.0
H180 H 0.54113 0.14073 0.02102 0.0
H181 H 0.51972 0.08121 0.03812 0.0
N182 N 0.54153 0.99879 0.04657 0.0
N183 N 0.55879 0.99179 0.09007 0.0
C184 C 0.08544 0.61394 0.89634 0.0
C185 C 0.10271 0.59269 0.87926 0.0
C186 C 0.0644 0.59531 0.91271 0.0
C187 C 0.06043 0.55518 0.91229 0.0
C188 C 0.10145 0.55233 0.88005 0.0
C189 C 0.08014 0.53378 0.89629 0.0
C190 C 0.03041 0.5364 0.92565 0.0
C191 C 0.12735 0.55537 0.97099 0.0
C192 C 0.12507 0.5922 0.98047 0.0
C193 C 0.09498 0.53842 0.96146 0.0
C194 C 0.05951 0.55773 0.96132 0.0
C195 C 0.08934 0.6114 0.98067 0.0
C196 C 0.05658 0.59405 0.97132 0.0
C197 C 0.02729 0.54112 0.94859 0.0
C198 C 0.88779 0.4399 0.96593 0.0
C199 C 0.86375 0.46521 0.9777 0.0
C200 C 0.92287 0.45259 0.9574 0.0
C201 C 0.93441 0.49098 0.96014 0.0
C202 C 0.87691 0.50283 0.98191 0.0
C203 C 0.91197 0.51557 0.97322 0.0
C204 C 0.96808 0.50616 0.94807 0.0
C205 C 0.88703 0.48915 0.88727 0.0
C206 C 0.89773 0.45588 0.87557 0.0
C207 C 0.90933 0.502 0.90507 0.0
C208 C 0.94282 0.48202 0.91112 0.0
C209 C 0.92944 0.43427 0.88292 0.0
C210 C 0.95212 0.44755 0.90037 0.0
C211 C 0.97201 0.50078 0.92515 0.0
H212 H 0.08549 0.64504 0.8961 0.0
H213 H 0.0487 0.61249 0.9246 0.0
H214 H 0.11506 0.53513 0.86735 0.0
H215 H 0.07738 0.50279 0.89567 0.0
H216 H 0.15456 0.54007 0.97034 0.0
H217 H 0.09783 0.51051 0.95363 0.0
H218 H 0.08684 0.63977 0.98793 0.0
H219 H 0.02945 0.6095 0.97113 0.0
H220 H 0.87869 0.4108 0.96228 0.0
H221 H 0.94032 0.43272 0.94792 0.0
H222 H 0.85953 0.52283 0.99133 0.0
H223 H 0.92059 0.54517 0.97581 0.0
H224 H 0.86283 0.50637 0.88182 0.0
H225 H 0.9021 0.52899 0.913 0.0
H226 H 0.93867 0.40887 0.87399 0.0
H227 H 0.97821 0.43211 0.90466 0.0
N228 N 0.00284 0.51623 0.91484 0.0
N229 N 0.99608 0.52607 0.95912 0.0
C230 C 0.39788 0.56276 0.13565 0.0
C231 C 0.41942 0.5942 0.12809 0.0
C232 C 0.41378 0.5374 0.15093 0.0
C233 C 0.45095 0.54372 0.15929 0.0
C234 C 0.45589 0.60156 0.13733 0.0
C235 C 0.47144 0.5766 0.15296 0.0
C236 C 0.47105 0.51273 0.17107 0.0
C237 C 0.4949 0.61163 0.22175 0.0
C238 C 0.4561 0.62222 0.22533 0.0
C239 C 0.50413 0.57602 0.21245 0.0
C240 C 0.47481 0.5506 0.20618 0.0
C241 C 0.42695 0.59552 0.22011 0.0
C242 C 0.43622 0.56019 0.21047 0.0
C243 C 0.48422 0.51632 0.1929 0.0
C244 C 0.59607 0.40128 0.21874 0.0
C245 C 0.58265 0.36326 0.21677 0.0
C246 C 0.57401 0.43187 0.21059 0.0
C247 C 0.53863 0.42474 0.20005 0.0
C248 C 0.54671 0.35654 0.20671 0.0
C249 C 0.52493 0.38691 0.19853 0.0
C250 C 0.5166 0.45613 0.18958 0.0
C251 C 0.50626 0.38701 0.11871 0.0
C252 C 0.54591 0.38675 0.11381 0.0
C253 C 0.49271 0.40592 0.13746 0.0
C254 C 0.5186 0.42409 0.15188 0.0
C255 C 0.57201 0.40172 0.12939 0.0
C256 C 0.55844 0.42033 0.14827 0.0
C257 C 0.50405 0.45322 0.16753 0.0
H258 H 0.36991 0.55624 0.12857 0.0
H259 H 0.39785 0.51184 0.15542 0.0
H260 H 0.47305 0.62556 0.13168 0.0
H261 H 0.50048 0.58154 0.15899 0.0
H262 H 0.51822 0.63149 0.22511 0.0
H263 H 0.53405 0.56924 0.20902 0.0
H264 H 0.39687 0.60219 0.22301 0.0
H265 H 0.41319 0.54074 0.20576 0.0
H266 H 0.62348 0.40733 0.22661 0.0
H267 H 0.58505 0.4609 0.21194 0.0
H268 H 0.5357 0.32761 0.20473 0.0
H269 H 0.4975 0.38076 0.19068 0.0
H270 H 0.48549 0.37511 0.10721 0.0
H271 H 0.46186 0.40851 0.13996 0.0
H272 H 0.60269 0.40231 0.12604 0.0
H273 H 0.57897 0.43474 0.15894 0.0
N274 N 0.48158 0.48149 0.1592 0.0
N275 N 0.50659 0.48787 0.20154 0.0
C276 C 0.455 0.92688 0.3899 0.0
C277 C 0.43918 0.94396 0.37103 0.0
C278 C 0.47133 0.94961 0.40648 0.0
C279 C 0.47227 0.98976 0.40434 0.0
C280 C 0.43707 0.98419 0.36988 0.0
C281 C 0.45384 0.0069 0.38631 0.0
C282 C 0.49867 0.01284 0.41821 0.0
C283 C 0.40093 0.98697 0.46179 0.0
C284 C 0.40815 0.95817 0.47729 0.0
C285 C 0.43115 0.00348 0.45021 0.0
C286 C 0.46925 0.99157 0.45392 0.0
C287 C 0.44617 0.94604 0.48115 0.0
C288 C 0.47674 0.96305 0.46965 0.0
C289 C 0.50066 0.00966 0.44132 0.0
C290 C 0.62864 0.12097 0.46344 0.0
C291 C 0.65817 0.09691 0.47138 0.0
C292 C 0.59486 0.10527 0.45459 0.0
C293 C 0.58973 0.06532 0.45386 0.0
C294 C 0.65198 0.05686 0.47133 0.0
C295 C 0.61793 0.0413 0.46284 0.0
C296 C 0.55728 0.04837 0.44155 0.0
C297 C 0.64242 0.07097 0.38448 0.0
C298 C 0.63115 0.10386 0.3728 0.0
C299 C 0.61852 0.0559 0.40079 0.0
C300 C 0.5829 0.07328 0.40538 0.0
C301 C 0.5966 0.12255 0.37849 0.0
C302 C 0.57243 0.10707 0.3945 0.0
C303 C 0.5541 0.05289 0.41864 0.0
H304 H 0.45698 0.8959 0.39114 0.0
H305 H 0.48599 0.93564 0.42001 0.0
H306 H 0.42542 0.99808 0.3554 0.0
H307 H 0.4545 0.0378 0.38428 0.0
H308 H 0.37173 0.99673 0.45866 0.0
H309 H 0.42475 0.02588 0.43843 0.0
H310 H 0.45215 0.92394 0.49316 0.0
H311 H 0.50604 0.95366 0.47278 0.0
H312 H 0.63193 0.15189 0.46359 0.0
H313 H 0.57319 0.12422 0.44774 0.0
H314 H 0.67415 0.0372 0.47682 0.0
H315 H 0.61456 0.01037 0.46216 0.0
H316 H 0.66891 0.05608 0.38033 0.0
H317 H 0.62673 0.02947 0.40889 0.0
H318 H 0.58705 0.14765 0.36954 0.0
H319 H 0.54478 0.1205 0.3977 0.0
N320 N 0.52523 0.03469 0.40778 0.0
N321 N 0.53027 0.02711 0.45226 0.0
C322 C 0.11885 0.95392 0.64691 0.0
C323 C 0.10012 0.93811 0.62843 0.0
C324 C 0.09774 0.97365 0.66296 0.0
C325 C 0.0577 0.97808 0.66059 0.0
C326 C 0.05966 0.93934 0.62729 0.0
C327 C 0.03866 0.95955 0.64314 0.0
C328 C 0.03734 0.00835 0.67304 0.0
C329 C 0.04511 0.90941 0.71797 0.0
C330 C 0.07821 0.91221 0.73128 0.0
C331 C 0.03079 0.94158 0.70713 0.0
C332 C 0.04902 0.97728 0.70953 0.0
C333 C 0.09622 0.94815 0.73393 0.0
C334 C 0.08143 0.98063 0.72327 0.0
C335 C 0.03565 0.00991 0.69617 0.0
C336 C 0.9439 0.13772 0.72949 0.0
C337 C 0.96033 0.1735 0.72432 0.0
C338 C 0.95877 0.10382 0.72023 0.0
C339 C 0.98966 0.10545 0.70537 0.0
C340 C 0.99185 0.17468 0.70982 0.0
C341 C 0.00632 0.14107 0.70046 0.0
C342 C 0.00393 0.07059 0.69411 0.0
C343 C 0.99007 0.13222 0.62233 0.0
C344 C 0.94968 0.13205 0.62054 0.0
C345 C 0.00813 0.11401 0.63998 0.0
C346 C 0.98606 0.09628 0.65635 0.0
C347 C 0.92759 0.11678 0.63778 0.0
C348 C 0.94571 0.09925 0.6557 0.0
C349 C 0.00455 0.06811 0.67097 0.0
H350 H 0.15004 0.95336 0.64811 0.0
H351 H 0.11307 0.98825 0.6761 0.0
H352 H 0.04453 0.92778 0.61312 0.0
H353 H 0.00781 0.96296 0.64096 0.0
H354 H 0.03091 0.88202 0.71542 0.0
H355 H 0.00584 0.93847 0.69649 0.0
H356 H 0.12171 0.95103 0.74414 0.0
H357 H 0.09599 0.00798 0.72515 0.0
H358 H 0.91969 0.136 0.74068 0.0
H359 H 0.94556 0.07653 0.72419 0.0
H360 H 0.00483 0.20181 0.70528 0.0
H361 H 0.03035 0.14292 0.68914 0.0
H362 H 0.00772 0.14338 0.60913 0.0
H363 H 0.03931 0.11161 0.64013 0.0
H364 H 0.89639 0.11623 0.63668 0.0
H365 H 0.92823 0.08525 0.66804 0.0
N366 N 0.02146 0.03731 0.66134 0.0
N367 N 0.01921 0.04115 0.70606 0.0
Co368 Co 0.33659 0.66541 0.01296 0.0
O369 O 0.29871 0.62549 0.01357 0.0
O370 O 0.2872 0.68485 0.0025 0.0
C371 C 0.36061 0.65351 0.04681 0.0
O372 O 0.36932 0.71417 0.01125 0.0
Co373 Co 0.42304 0.64095 0.01476 0.0
O374 O 0.43168 0.69716 0.01585 0.0
C375 C 0.37787 0.62729 0.97468 0.0
C376 C 0.27419 0.65034 0.00614 0.0
C377 C 0.40546 0.72246 0.01317 0.0
O378 O 0.35139 0.64996 0.98193 0.0
O379 O 0.40655 0.61636 0.98636 0.0
O380 O 0.32967 0.67423 0.04459 0.0
O381 O 0.37337 0.63801 0.02894 0.0
Co382 Co 0.37901 0.85485 0.24486 0.0
O383 O 0.35056 0.90215 0.24486 0.0
O384 O 0.3263 0.84569 0.25411 0.0
C385 C 0.40742 0.863 0.21193 0.0
O386 O 0.39958 0.79979 0.24575 0.0
Co387 Co 0.46882 0.85699 0.24498 0.0
O388 O 0.4642 0.80078 0.24138 0.0
C389 C 0.42651 0.87509 0.28561 0.0
C390 C 0.32119 0.88249 0.25168 0.0
C391 C 0.43241 0.78282 0.24339 0.0
O392 O 0.39462 0.86496 0.2764 0.0
O393 O 0.45878 0.87636 0.27546 0.0
O394 O 0.37246 0.84962 0.21303 0.0
O395 O 0.42225 0.87427 0.23036 0.0
Co396 Co 0.18606 0.86611 0.50305 0.0
O397 O 0.13915 0.83687 0.5026 0.0
O398 O 0.19593 0.81463 0.51351 0.0
C399 C 0.17957 0.89163 0.46935 0.0
O400 O 0.24088 0.8876 0.50466 0.0
Co401 Co 0.18146 0.95556 0.50114 0.0
O402 O 0.23814 0.95165 0.49943 0.0
C403 C 0.16416 0.91613 0.54262 0.0
C404 C 0.15935 0.80841 0.51009 0.0
C405 C 0.25702 0.92069 0.50236 0.0
O406 O 0.17426 0.88376 0.53409 0.0
O407 O 0.16273 0.94755 0.53184 0.0
O408 O 0.19295 0.85701 0.47155 0.0
O409 O 0.16678 0.90777 0.48706 0.0
Co410 Co 0.14883 0.70323 0.7671 0.0
O411 O 0.10832 0.74067 0.76851 0.0
O412 O 0.16815 0.75289 0.75792 0.0
C413 C 0.13729 0.67597 0.79996 0.0
O414 O 0.1983 0.67166 0.76469 0.0
Co415 Co 0.12686 0.61629 0.76647 0.0
O416 O 0.18344 0.60888 0.76824 0.0
C417 C 0.1105 0.66461 0.7282 0.0
C418 C 0.13325 0.76541 0.7614 0.0
C419 C 0.20792 0.63599 0.76624 0.0
O420 O 0.13351 0.69057 0.73573 0.0
O421 O 0.10057 0.63504 0.73924 0.0
O422 O 0.15736 0.70748 0.79898 0.0
O423 O 0.12197 0.66488 0.78168 0.0
Co424 Co 0.88158 0.20131 0.49145 0.0
O425 O 0.92559 0.23452 0.4939 0.0
O426 O 0.8657 0.25124 0.50227 0.0
C427 C 0.89561 0.17825 0.45769 0.0
O428 O 0.82883 0.17523 0.49009 0.0
Co429 Co 0.89323 0.11289 0.48801 0.0
O430 O 0.83668 0.11168 0.48418 0.0
C431 C 0.90145 0.15126 0.53103 0.0
C432 C 0.90195 0.26072 0.50092 0.0
C433 C 0.81542 0.14118 0.48675 0.0
O434 O 0.89044 0.18327 0.5226 0.0
O435 O 0.90656 0.12052 0.51978 0.0
O436 O 0.87835 0.21117 0.45992 0.0
O437 O 0.90691 0.16229 0.47574 0.0
Co438 Co 0.83466 0.38104 0.7455 0.0
O439 O 0.79628 0.42042 0.74417 0.0
O440 O 0.78471 0.36029 0.75385 0.0
C441 C 0.86241 0.39479 0.71298 0.0
O442 O 0.86793 0.33273 0.74744 0.0
Co443 Co 0.92091 0.40655 0.74726 0.0
O444 O 0.93005 0.35068 0.74341 0.0
C445 C 0.87126 0.41798 0.78567 0.0
C446 C 0.77154 0.39481 0.75037 0.0
C447 C 0.90411 0.32486 0.7452 0.0
O448 O 0.84602 0.39508 0.77725 0.0
O449 O 0.90089 0.42984 0.7752 0.0
O450 O 0.8315 0.37366 0.7135 0.0
O451 O 0.87259 0.40964 0.73156 0.0
Co452 Co 0.65266 0.34384 0.98912 0.0
O453 O 0.61669 0.302 0.98675 0.0
O454 O 0.67636 0.29714 -0.00034 0.0
C455 C 0.64141 0.36899 0.95566 0.0
O456 O 0.69845 0.38019 0.99287 0.0
Co457 Co 0.62364 0.4285 0.98787 0.0
O458 O 0.67933 0.44042 0.98512 0.0
C459 C 0.6073 0.37998 0.02615 0.0
C460 C 0.64358 0.28061 0.99515 0.0
C461 C 0.70571 0.41594 0.98928 0.0
O462 O 0.63287 0.35562 0.01968 0.0
O463 O 0.59667 0.40874 0.01459 0.0
O464 O 0.66457 0.33976 0.95758 0.0
O465 O 0.62352 0.37899 0.97333 0.0
Co466 Co 0.69654 0.17317 0.2542 0.0
O467 O 0.64823 0.1996 0.25189 0.0
O468 O 0.70433 0.22353 0.24133 0.0
C469 C 0.68749 0.15342 0.2891 0.0
O470 O 0.75243 0.1544 0.25523 0.0
Co471 Co 0.69655 0.08478 0.26128 0.0
O472 O 0.75295 0.0914 0.26384 0.0
C473 C 0.67963 0.11574 0.21728 0.0
C474 C 0.66726 0.22814 0.24367 0.0
C475 C 0.77018 0.1228 0.25964 0.0
O476 O 0.68831 0.1498 0.224 0.0
O477 O 0.67833 0.08664 0.23004 0.0
O478 O 0.7003 0.18775 0.28519 0.0
O479 O 0.67751 0.13364 0.27198 0.0
C480 C 0.24941 0.96166 0.26342 0.0
C481 C 0.21829 0.9414 0.27246 0.0
H482 H 0.3059 0.95894 0.2496 0.0
C483 C 0.22006 0.90106 0.27327 0.0
H484 H 0.24864 0.9927 0.26231 0.0
C485 C 0.2531 0.88153 0.26601 0.0
C486 C 0.28473 0.90205 0.25765 0.0
H487 H 0.19653 0.88473 0.28027 0.0
H488 H 0.25421 0.85055 0.26741 0.0
C489 C 0.28217 0.94224 0.25606 0.0
C490 C 0.14324 0.70677 0.53023 0.0
C491 C 0.10346 0.70214 0.52639 0.0
H492 H 0.19225 0.74419 0.52817 0.0
C493 C 0.08296 0.73185 0.51609 0.0
H494 H 0.15973 0.68449 0.53833 0.0
C495 C 0.10144 0.76596 0.51043 0.0
C496 C 0.14088 0.77117 0.51493 0.0
H497 H 0.05242 0.72891 0.51263 0.0
H498 H 0.08455 0.78849 0.50283 0.0
C499 C 0.1618 0.74102 0.52456 0.0
C500 C 0.29825 0.57593 0.76303 0.0
C501 C 0.32482 0.59859 0.77483 0.0
H502 H 0.24049 0.57015 0.75103 0.0
C503 C 0.3138 0.63591 0.78134 0.0
H504 H 0.30602 0.54751 0.75722 0.0
C505 C 0.27634 0.64926 0.77729 0.0
C506 C 0.24913 0.62533 0.76696 0.0
H507 H 0.33338 0.65409 0.79059 0.0
H508 H 0.26804 0.67734 0.78343 0.0
C509 C 0.26076 0.58899 0.75934 0.0
C510 C 0.41202 0.82884 0.02619 0.0
C511 C 0.4504 0.83648 0.02005 0.0
H512 H 0.36723 0.78634 0.02867 0.0
C513 C 0.47117 0.80804 0.00867 0.0
H514 H 0.39535 0.8502 0.03505 0.0
C515 C 0.45538 0.7717 0.0053 0.0
C516 C 0.41821 0.76298 0.01297 0.0
H517 H 0.50048 0.81331 0.00329 0.0
H518 H 0.47296 0.74985 0.99746 0.0
C519 C 0.39596 0.79232 0.0226 0.0
C520 C 0.18526 0.58827 0.00282 0.0
C521 C 0.16056 0.61012 0.98954 0.0
H522 H 0.24009 0.58403 0.01855 0.0
C523 C 0.17194 0.64734 0.98337 0.0
H524 H 0.177 0.55975 0.0081 0.0
C525 C 0.20846 0.66146 0.98938 0.0
C526 C 0.23393 0.63851 0.00164 0.0
H527 H 0.15345 0.66471 0.97303 0.0
H528 H 0.21726 0.68956 0.98372 0.0
C529 C 0.22145 0.60225 0.00878 0.0
C530 C 0.41362 0.68114 0.22448 0.0
C531 C 0.44629 0.66189 0.23286 0.0
H532 H 0.38315 0.73463 0.22166 0.0
C533 C 0.47127 0.68207 0.24707 0.0
H534 H 0.39391 0.66686 0.21329 0.0
C535 C 0.46552 0.72106 0.25133 0.0
C536 C 0.4341 0.74059 0.242 0.0
H537 H 0.49604 0.66809 0.25439 0.0
H538 H 0.48631 0.73628 0.26147 0.0
C539 C 0.4074 0.72006 0.2292 0.0
C540 C 0.35941 0.90663 0.48348 0.0
C541 C 0.37514 0.94238 0.48943 0.0
H542 H 0.30873 0.87106 0.48339 0.0
C543 C 0.35432 0.96698 0.50331 0.0
H544 H 0.375 0.88753 0.47252 0.0
C545 C 0.31675 0.95781 0.50936 0.0
C546 C 0.29937 0.9239 0.5016 0.0
H547 H 0.36598 0.99475 0.50796 0.0
H548 H 0.30027 0.97865 0.51875 0.0
C549 C 0.32161 0.89728 0.48966 0.0
C550 C 0.06913 0.85155 0.75232 0.0
C551 C 0.09404 0.87711 0.74163 0.0
H552 H 0.06215 0.79662 0.76717 0.0
C553 C 0.13315 0.86718 0.73924 0.0
H554 H 0.03897 0.85869 0.75461 0.0
C555 C 0.14656 0.83132 0.74637 0.0
C556 C 0.12108 0.80505 0.75612 0.0
H557 H 0.1529 0.88633 0.73094 0.0
H558 H 0.17646 0.82371 0.74357 0.0
C559 C 0.0825 0.81601 0.75953 0.0
C560 C 0.6691 0.39725 0.77233 0.0
C561 C 0.65743 0.4342 0.76578 0.0
H562 H 0.7148 0.35544 0.77257 0.0
C563 C 0.68178 0.4557 0.75217 0.0
H564 H 0.65087 0.38015 0.78291 0.0
C565 C 0.71806 0.44179 0.74641 0.0
C566 C 0.73091 0.40597 0.75407 0.0
H567 H 0.67327 0.48398 0.7466 0.0
H568 H 0.73657 0.45981 0.7365 0.0
C569 C 0.70566 0.38319 0.7665 0.0
C570 C 0.64821 0.1841 0.02335 0.0
C571 C 0.61547 0.16545 0.0146 0.0
H572 H 0.68307 0.23497 0.02386 0.0
C573 C 0.59411 0.18409 0.99808 0.0
H574 H 0.66513 0.17099 0.03629 0.0
C575 C 0.60401 0.22107 0.99133 0.0
C576 C 0.63589 0.24007 0.00063 0.0
H577 H 0.56932 0.17036 0.99056 0.0
H578 H 0.58631 0.23502 0.97902 0.0
C579 C 0.65846 0.2209 0.01631 0.0
C580 C 0.87135 0.08625 0.25294 0.0
C581 C 0.8913 0.1078 0.26897 0.0
H582 H 0.81699 0.07427 0.23753 0.0
C583 C 0.87191 0.13855 0.27938 0.0
H584 H 0.88546 0.06314 0.24409 0.0
C585 C 0.83291 0.14575 0.27495 0.0
C586 C 0.81255 0.12194 0.26036 0.0
H587 H 0.88602 0.15558 0.29199 0.0
H588 H 0.81804 0.16803 0.28411 0.0
C589 C 0.83226 0.09287 0.24895 0.0
C590 C 0.90528 0.36332 0.5222 0.0
C591 C 0.94522 0.37047 0.52234 0.0
H592 H 0.86012 0.32277 0.51545 0.0
C593 C 0.97039 0.34197 0.51447 0.0
H594 H 0.88523 0.38469 0.52835 0.0
C595 C 0.9561 0.3067 0.50714 0.0
C596 C 0.9163 0.29903 0.5076 0.0
H597 H 0.00126 0.34684 0.51416 0.0
H598 H 0.97643 0.28521 0.50146 0.0
C599 C 0.89094 0.32783 0.51495 0.0
C600 C 0.71874 0.09445 0.49421 0.0
C601 C 0.69642 0.11287 0.47802 0.0
H602 H 0.77423 0.08902 0.50945 0.0
C603 C 0.71254 0.14442 0.46683 0.0
H604 H 0.7071 0.07089 0.50366 0.0
C605 C 0.7507 0.15568 0.47083 0.0
C606 C 0.77354 0.13509 0.48571 0.0
H607 H 0.69657 0.15913 0.45408 0.0
H608 H 0.76307 0.17875 0.46125 0.0
C609 C 0.75706 0.10505 0.49773 0.0
C610 C 0.96984 0.2387 0.74071 0.0
C611 C 0.94452 0.20999 0.73324 0.0
H612 H 0.97687 0.29711 0.75064 0.0
C613 C 0.90475 0.21797 0.73236 0.0
H614 H 0.00053 0.23316 0.74197 0.0
C615 C 0.89098 0.25487 0.73742 0.0
C616 C 0.91682 0.2843 0.74339 0.0
H617 H 0.88458 0.19636 0.72661 0.0
H618 H 0.86048 0.26081 0.73553 0.0
C619 C 0.9562 0.27537 0.74569 0.0
C620 C 0.81536 0.41568 0.99005 0.0
C621 C 0.82376 0.4535 0.98353 0.0
H622 H 0.77163 0.37407 0.99712 0.0
C623 C 0.79306 0.4794 0.98064 0.0
H624 H 0.83833 0.39513 0.99273 0.0
C625 C 0.75495 0.46747 0.98334 0.0
C626 C 0.7464 0.42922 0.98887 0.0
H627 H 0.79827 0.50856 0.97529 0.0
H628 H 0.73216 0.48807 0.98031 0.0
C629 C 0.7771 0.40365 0.99267 0.0
C630 C 0.58708 0.30031 0.23615 0.0
C631 C 0.60562 0.33028 0.225 0.0
H632 H 0.5919 0.24493 0.25066 0.0
C633 C 0.64545 0.32728 0.2208 0.0
H634 H 0.5566 0.30203 0.23998 0.0
C635 C 0.66595 0.29432 0.22704 0.0
C636 C 0.64692 0.26392 0.23759 0.0
H637 H 0.66046 0.34986 0.21211 0.0
H638 H 0.69642 0.29236 0.22328 0.0
C639 C 0.60741 0.26757 0.24231 0.0
C640 C 0.1829 0.96777 0.42556 0.0
C641 C 0.16477 0.94904 0.40767 0.0
H642 H 0.20066 0.96454 0.45932 0.0
C643 C 0.15494 0.90993 0.41002 0.0
H644 H 0.19233 0.9973 0.42439 0.0
C645 C 0.16171 0.89076 0.42979 0.0
C646 C 0.17713 0.91052 0.44788 0.0
H647 H 0.14029 0.89429 0.39706 0.0
H648 H 0.15287 0.86104 0.43131 0.0
C649 C 0.18814 0.94897 0.44559 0.0
C650 C 0.10637 0.67805 0.66643 0.0
C651 C 0.07124 0.65968 0.66139 0.0
H652 H 0.14627 0.69486 0.69186 0.0
C653 C 0.04758 0.64737 0.67873 0.0
H654 H 0.12514 0.68792 0.65341 0.0
C655 C 0.05972 0.651 0.70046 0.0
C656 C 0.09569 0.6673 0.70549 0.0
H657 H 0.02066 0.63255 0.67553 0.0
H658 H 0.04151 0.63959 0.71334 0.0
C659 C 0.11837 0.68217 0.68839 0.0
C660 C 0.39507 0.56711 0.92399 0.0
C661 C 0.38787 0.5935 0.90706 0.0
H662 H 0.39763 0.55737 0.95869 0.0
C663 C 0.37325 0.63002 0.9125 0.0
H664 H 0.40684 0.53896 0.92035 0.0
C665 C 0.36736 0.64036 0.93457 0.0
C666 C 0.37703 0.61467 0.95147 0.0
H667 H 0.36759 0.6509 0.89974 0.0
H668 H 0.35747 0.66913 0.93844 0.0
C669 C 0.39007 0.57772 0.94595 0.0
C670 C 0.42979 0.86416 0.15095 0.0
C671 C 0.46602 0.88241 0.1508 0.0
H672 H 0.38278 0.84347 0.17049 0.0
C673 C 0.48377 0.89138 0.17102 0.0
H674 H 0.41551 0.85648 0.13569 0.0
C675 C 0.46522 0.88371 0.19083 0.0
C676 C 0.42834 0.86711 0.19095 0.0
H677 H 0.51129 0.90608 0.17161 0.0
H678 H 0.47929 0.89209 0.20605 0.0
C679 C 0.41111 0.85659 0.17086 0.0
C680 C 0.10557 0.59762 0.83839 0.0
C681 C 0.11628 0.61236 0.85908 0.0
H682 H 0.10376 0.60611 0.80372 0.0
C683 C 0.13629 0.64751 0.86012 0.0
H684 H 0.08945 0.57108 0.83695 0.0
C685 C 0.14438 0.66792 0.84085 0.0
C686 C 0.13225 0.65363 0.82031 0.0
H687 H 0.14504 0.65952 0.87583 0.0
H688 H 0.15908 0.6953 0.84209 0.0
C689 C 0.11344 0.61798 0.81928 0.0
C690 C 0.42983 0.6167 0.08975 0.0
C691 C 0.40619 0.61545 0.10847 0.0
H692 H 0.43369 0.6296 0.05542 0.0
C693 C 0.36863 0.63047 0.10731 0.0
H694 H 0.45876 0.6049 0.09017 0.0
C695 C 0.35448 0.6452 0.08748 0.0
C696 C 0.37737 0.64417 0.06843 0.0
H697 H 0.34991 0.62972 0.12154 0.0
H698 H 0.32498 0.65543 0.08679 0.0
C699 C 0.41542 0.63059 0.06985 0.0
C700 C 0.4613 0.89665 0.34304 0.0
C701 C 0.43189 0.92071 0.35101 0.0
H702 H 0.48259 0.86351 0.31595 0.0
C703 C 0.39854 0.9262 0.3382 0.0
H704 H 0.48753 0.89232 0.35244 0.0
C705 C 0.39549 0.90918 0.31734 0.0
C706 C 0.42619 0.88733 0.30884 0.0
H707 H 0.37557 0.94475 0.344 0.0
H708 H 0.37022 0.915 0.30737 0.0
C709 C 0.45863 0.88043 0.3221 0.0
C710 C 0.11382 0.89446 0.59625 0.0
C711 C 0.12231 0.92783 0.60847 0.0
H712 H 0.12146 0.86401 0.56571 0.0
C713 C 0.14807 0.95487 0.59975 0.0
H714 H 0.09387 0.87332 0.60261 0.0
C715 C 0.16296 0.95004 0.57865 0.0
C716 C 0.15305 0.91769 0.56599 0.0
H717 H 0.15469 0.9811 0.60865 0.0
H718 H 0.18122 0.97231 0.57191 0.0
C719 C 0.12956 0.88916 0.57523 0.0
C720 C 0.64042 0.39653 0.89531 0.0
C721 C 0.61988 0.43141 0.89615 0.0
H722 H 0.66398 0.34933 0.91367 0.0
C723 C 0.60894 0.44626 0.91673 0.0
H724 H 0.64922 0.38441 0.87966 0.0
C725 C 0.61699 0.42625 0.93592 0.0
C726 C 0.63642 0.3909 0.93514 0.0
H727 H 0.59238 0.47257 0.91802 0.0
H728 H 0.607 0.43821 0.95136 0.0
C729 C 0.6489 0.37653 0.91471 0.0
C730 C 0.66403 0.06451 0.16308 0.0
C731 C 0.65037 0.09406 0.14947 0.0
H732 H 0.68381 0.0482 0.19493 0.0
C733 C 0.64807 0.13161 0.15804 0.0
H734 H 0.66548 0.03514 0.15717 0.0
C735 C 0.65868 0.13919 0.17993 0.0
C736 C 0.67106 0.10919 0.19368 0.0
H737 H 0.63756 0.15492 0.14793 0.0
H738 H 0.65605 0.16822 0.18626 0.0
C739 C 0.67411 0.07194 0.18487 0.0
C740 C 0.92982 0.10873 0.41408 0.0
C741 C 0.93265 0.13269 0.39563 0.0
H742 H 0.91604 0.10453 0.44829 0.0
C743 C 0.9198 0.17086 0.39723 0.0
H744 H 0.93994 0.0793 0.41336 0.0
C745 C 0.90572 0.18521 0.4172 0.0
C746 C 0.90508 0.16181 0.43596 0.0
H747 H 0.92169 0.18986 0.38321 0.0
H748 H 0.89711 0.21508 0.41819 0.0
C749 C 0.91643 0.12324 0.43411 0.0
C750 C 0.93823 0.43357 0.67476 0.0
C751 C 0.92469 0.42161 0.65401 0.0
H752 H 0.9293 0.43441 0.70945 0.0
C753 C 0.89121 0.39883 0.65286 0.0
H754 H 0.9634 0.45183 0.6763 0.0
C755 C 0.87129 0.38903 0.67207 0.0
C756 C 0.88444 0.40208 0.69269 0.0
H757 H 0.88016 0.38904 0.63712 0.0
H758 H 0.8452 0.37205 0.67074 0.0
C759 C 0.91841 0.42389 0.69383 0.0
C760 C 0.65886 0.0889 0.33595 0.0
C761 C 0.65217 0.11577 0.35284 0.0
H762 H 0.67522 0.0799 0.30236 0.0
C763 C 0.66126 0.15454 0.34932 0.0
H764 H 0.65171 0.05888 0.33819 0.0
C765 C 0.67517 0.16651 0.3289 0.0
C766 C 0.67937 0.13998 0.31157 0.0
H767 H 0.65633 0.17574 0.36212 0.0
H768 H 0.68058 0.1968 0.32635 0.0
C769 C 0.67205 0.10095 0.31543 0.0
C770 C 0.91022 0.11183 0.5884 0.0
C771 C 0.93164 0.14066 0.59906 0.0
H772 H 0.8843 0.09258 0.55833 0.0
C773 C 0.94004 0.17477 0.58778 0.0
H774 H 0.90387 0.08504 0.59663 0.0
C775 C 0.92822 0.17937 0.56589 0.0
C776 C 0.90895 0.1494 0.55487 0.0
H777 H 0.95678 0.19724 0.59566 0.0
H778 H 0.936 0.20537 0.55724 0.0
C779 C 0.89936 0.11598 0.56644 0.0
C780 C 0.87042 0.41019 0.84743 0.0
C781 C 0.88128 0.44767 0.85355 0.0
H782 H 0.85734 0.37154 0.82077 0.0
C783 C 0.88281 0.4763 0.83739 0.0
H784 H 0.86925 0.38762 0.85962 0.0
C785 C 0.87692 0.46698 0.81529 0.0
C786 C 0.86846 0.42907 0.80901 0.0
H787 H 0.89159 0.5053 0.8416 0.0
H788 H 0.88092 0.48901 0.80297 0.0
C789 C 0.86353 0.40105 0.82529 0.0
C790 C 0.53843 0.39379 0.07332 0.0
C791 C 0.55913 0.37831 0.09109 0.0
H792 H 0.5374 0.40622 0.03902 0.0
C793 C 0.59446 0.35969 0.08694 0.0
H794 H 0.51147 0.40889 0.07588 0.0
C795 C 0.60953 0.35825 0.06556 0.0
C796 C 0.58975 0.37599 0.04814 0.0
H797 H 0.61097 0.3474 0.10032 0.0
H798 H 0.63742 0.34501 0.06289 0.0
C799 C 0.55358 0.39272 0.05216 0.0
loop_
_geom_bond_atom_site_label_1
_geom_bond_atom_site_label_2
_geom_bond_distance
_geom_bond_site_symmetry_2
_ccdc_geom_bond_type
C0 C1 1.384 . S
C0 C2 1.384 . S
C0 H28 0.931 . S
C1 C0 1.384 . S
C1 C4 1.382 . S
C2 C0 1.384 . S
C2 C3 1.381 . S
C2 H29 0.930 . S
C3 C2 1.381 . S
C3 C5 1.381 1_565 S
C3 C6 1.487 1_565 S
C4 C1 1.382 . S
C4 C5 1.387 1_565 S
C4 H30 0.930 1_565 S
C5 C3 1.381 1_545 S
C5 C4 1.387 1_545 S
C5 H31 0.931 . S
C6 C3 1.487 1_545 S
C6 C13 1.399 . S
C6 N44 1.343 . S
C7 C8 1.384 . S
C7 C9 1.384 . S
C7 H32 0.931 . S
C8 C7 1.384 . S
C8 C11 1.382 . S
C9 C7 1.384 . S
C9 C10 1.381 . S
C9 H33 0.930 1_565 S
C10 C9 1.381 . S
C10 C12 1.381 . S
C10 C13 1.487 1_565 S
C11 C8 1.382 . S
C11 C12 1.387 . S
C11 H34 0.930 . S
C12 C10 1.381 . S
C12 C11 1.387 . S
C12 H35 0.931 . S
C13 C6 1.399 . S
C13 C10 1.487 1_545 S
C13 N45 1.343 . S
C14 C15 1.384 . S
C14 C16 1.384 . S
C14 H36 0.931 . S
C15 C14 1.384 . S
C15 C18 1.382 . S
C16 C14 1.384 . S
C16 C17 1.381 . S
C16 H37 0.930 . S
C17 C16 1.381 . S
C17 C19 1.381 . S
C17 C20 1.487 1_655 S
C18 C15 1.382 . S
C18 C19 1.387 . S
C18 H38 0.930 . S
C19 C17 1.381 . S
C19 C18 1.387 . S
C19 H39 0.931 . S
C20 C17 1.487 1_455 S
C20 C27 1.399 . S
C20 N45 1.343 . S
C21 C22 1.384 . S
C21 C23 1.384 . S
C21 H40 0.931 . S
C22 C21 1.384 . S
C22 C25 1.382 . S
C23 C21 1.384 . S
C23 C24 1.381 . S
C23 H41 0.930 . S
C24 C23 1.381 . S
C24 C26 1.381 . S
C24 C27 1.487 1_655 S
C25 C22 1.382 . S
C25 C26 1.387 . S
C25 H42 0.930 . S
C26 C24 1.381 . S
C26 C25 1.387 . S
C26 H43 0.931 1_655 S
C27 C20 1.399 . S
C27 C24 1.487 1_455 S
C27 N44 1.343 . S
H28 C0 0.931 . S
H29 C2 0.930 . S
H30 C4 0.930 1_545 S
H31 C5 0.931 . S
H32 C7 0.931 . S
H33 C9 0.930 1_545 S
H34 C11 0.930 . S
H35 C12 0.931 . S
H36 C14 0.931 . S
H37 C16 0.930 . S
H38 C18 0.930 . S
H39 C19 0.931 . S
H40 C21 0.931 . S
H41 C23 0.930 . S
H42 C25 0.930 . S
H43 C26 0.931 1_455 S
N44 C6 1.343 . S
N44 C27 1.343 . S
N45 C13 1.343 . S
N45 C20 1.343 . S
C46 C47 1.384 . S
C46 C48 1.384 . S
C46 H74 0.931 . S
C47 C46 1.384 . S
C47 C50 1.382 . S
C48 C46 1.384 . S
C48 C49 1.381 . S
C48 H75 0.930 . S
C49 C48 1.381 . S
C49 C51 1.381 . S
C49 C52 1.487 . S
C50 C47 1.382 . S
C50 C51 1.387 . S
C50 H76 0.930 . S
C51 C49 1.381 . S
C51 C50 1.387 . S
C51 H77 0.931 1_655 S
C52 C49 1.487 . S
C52 C59 1.399 . S
C52 N90 1.343 1_655 S
C53 C54 1.384 . S
C53 C55 1.384 . S
C53 H78 0.931 . S
C54 C53 1.384 . S
C54 C57 1.382 . S
C55 C53 1.384 . S
C55 C56 1.381 . S
C55 H79 0.930 . S
C56 C55 1.381 . S
C56 C58 1.381 . S
C56 C59 1.487 . S
C57 C54 1.382 . S
C57 C58 1.387 . S
C57 H80 0.930 . S
C58 C56 1.381 . S
C58 C57 1.387 . S
C58 H81 0.931 . S
C59 C52 1.399 . S
C59 C56 1.487 . S
C59 N91 1.343 1_655 S
C60 C61 1.384 . S
C60 C62 1.384 . S
C60 H82 0.931 . S
C61 C60 1.384 . S
C61 C64 1.382 . S
C62 C60 1.384 . S
C62 C63 1.381 . S
C62 H83 0.930 . S
C63 C62 1.381 . S
C63 C65 1.381 . S
C63 C66 1.487 . S
C64 C61 1.382 . S
C64 C65 1.387 . S
C64 H84 0.930 . S
C65 C63 1.381 . S
C65 C64 1.387 . S
C65 H85 0.931 . S
C66 C63 1.487 . S
C66 C73 1.399 . S
C66 N91 1.343 . S
C67 C68 1.384 . S
C67 C69 1.384 . S
C67 H86 0.931 . S
C68 C67 1.384 . S
C68 C71 1.382 . S
C69 C67 1.384 . S
C69 C70 1.381 . S
C69 H87 0.930 . S
C70 C69 1.381 . S
C70 C72 1.381 . S
C70 C73 1.487 . S
C71 C68 1.382 . S
C71 C72 1.387 . S
C71 H88 0.930 . S
C72 C70 1.381 . S
C72 C71 1.387 . S
C72 H89 0.931 . S
C73 C66 1.399 . S
C73 C70 1.487 . S
C73 N90 1.343 . S
H74 C46 0.931 . S
H75 C48 0.930 . S
H76 C50 0.930 . S
H77 C51 0.931 1_455 S
H78 C53 0.931 . S
H79 C55 0.930 . S
H80 C57 0.930 . S
H81 C58 0.931 . S
H82 C60 0.931 . S
H83 C62 0.930 . S
H84 C64 0.930 . S
H85 C65 0.931 . S
H86 C67 0.931 . S
H87 C69 0.930 . S
H88 C71 0.930 . S
H89 C72 0.931 . S
N90 C52 1.343 1_455 S
N90 C73 1.343 . S
N91 C59 1.343 1_455 S
N91 C66 1.343 . S
C92 C93 1.384 . S
C92 C94 1.384 . S
C92 H120 0.931 . S
C93 C92 1.384 . S
C93 C96 1.382 . S
C94 C92 1.384 . S
C94 C95 1.381 . S
C94 H121 0.930 . S
C95 C94 1.381 . S
C95 C97 1.381 . S
C95 C98 1.487 . S
C96 C93 1.382 . S
C96 C97 1.387 . S
C96 H122 0.930 . S
C97 C95 1.381 . S
C97 C96 1.387 . S
C97 H123 0.931 . S
C98 C95 1.487 . S
C98 C105 1.399 . S
C98 N136 1.343 . S
C99 C100 1.384 . S
C99 C101 1.384 . S
C99 H124 0.931 . S
C100 C99 1.384 . S
C100 C103 1.382 . S
C101 C99 1.384 . S
C101 C102 1.381 . S
C101 H125 0.930 . S
C102 C101 1.381 . S
C102 C104 1.381 . S
C102 C105 1.487 . S
C103 C100 1.382 . S
C103 C104 1.387 . S
C103 H126 0.930 . S
C104 C102 1.381 . S
C104 C103 1.387 . S
C104 H127 0.931 . S
C105 C98 1.399 . S
C105 C102 1.487 . S
C105 N137 1.343 . S
C106 C107 1.384 . S
C106 C108 1.384 . S
C106 H128 0.931 . S
C107 C106 1.384 . S
C107 C110 1.382 . S
C108 C106 1.384 . S
C108 C109 1.381 . S
C108 H129 0.930 . S
C109 C108 1.381 . S
C109 C111 1.381 . S
C109 C112 1.487 . S
C110 C107 1.382 . S
C110 C111 1.387 . S
C110 H130 0.930 . S
C111 C109 1.381 . S
C111 C110 1.387 . S
C111 H131 0.931 . S
C112 C109 1.487 . S
C112 C119 1.399 . S
C112 N137 1.343 . S
C113 C114 1.384 . S
C113 C115 1.384 . S
C113 H132 0.931 . S
C114 C113 1.384 . S
C114 C117 1.382 . S
C115 C113 1.384 . S
C115 C116 1.381 . S
C115 H133 0.930 . S
C116 C115 1.381 . S
C116 C118 1.381 . S
C116 C119 1.487 . S
C117 C114 1.382 . S
C117 C118 1.387 . S
C117 H134 0.930 . S
C118 C116 1.381 . S
C118 C117 1.387 . S
C118 H135 0.931 . S
C119 C112 1.399 . S
C119 C116 1.487 . S
C119 N136 1.343 . S
H120 C92 0.931 . S
H121 C94 0.930 . S
H122 C96 0.930 . S
H123 C97 0.931 . S
H124 C99 0.931 . S
H125 C101 0.930 . S
H126 C103 0.930 . S
H127 C104 0.931 . S
H128 C106 0.931 . S
H129 C108 0.930 . S
H130 C110 0.930 . S
H131 C111 0.931 . S
H132 C113 0.931 . S
H133 C115 0.930 . S
H134 C117 0.930 . S
H135 C118 0.931 . S
N136 C98 1.343 . S
N136 C119 1.343 . S
N137 C105 1.343 . S
N137 C112 1.343 . S
C138 C139 1.384 . S
C138 C140 1.384 . S
C138 H166 0.931 . S
C139 C138 1.384 . S
C139 C142 1.382 . S
C140 C138 1.384 . S
C140 C141 1.381 . S
C140 H167 0.930 . S
C141 C140 1.381 . S
C141 C143 1.381 . S
C141 C144 1.487 . S
C142 C139 1.382 . S
C142 C143 1.387 . S
C142 H168 0.930 . S
C143 C141 1.381 . S
C143 C142 1.387 . S
C143 H169 0.931 . S
C144 C141 1.487 . S
C144 C151 1.399 . S
C144 N182 1.343 1_565 S
C145 C146 1.384 . S
C145 C147 1.384 . S
C145 H170 0.931 . S
C146 C145 1.384 . S
C146 C149 1.382 . S
C147 C145 1.384 . S
C147 C148 1.381 . S
C147 H171 0.930 . S
C148 C147 1.381 . S
C148 C150 1.381 . S
C148 C151 1.487 . S
C149 C146 1.382 . S
C149 C150 1.387 . S
C149 H172 0.930 . S
C150 C148 1.381 . S
C150 C149 1.387 . S
C150 H173 0.931 . S
C151 C144 1.399 . S
C151 C148 1.487 . S
C151 N183 1.343 . S
C152 C153 1.384 . S
C152 C154 1.384 . S
C152 H174 0.931 . S
C153 C152 1.384 . S
C153 C156 1.382 . S
C154 C152 1.384 . S
C154 C155 1.381 . S
C154 H175 0.930 . S
C155 C154 1.381 . S
C155 C157 1.381 . S
C155 C158 1.487 . S
C156 C153 1.382 . S
C156 C157 1.387 . S
C156 H176 0.930 . S
C157 C155 1.381 . S
C157 C156 1.387 . S
C157 H177 0.931 . S
C158 C155 1.487 . S
C158 C165 1.399 . S
C158 N183 1.343 1_545 S
C159 C160 1.384 . S
C159 C161 1.384 . S
C159 H178 0.931 . S
C160 C159 1.384 . S
C160 C163 1.382 . S
C161 C159 1.384 . S
C161 C162 1.381 . S
C161 H179 0.930 . S
C162 C161 1.381 . S
C162 C164 1.381 . S
C162 C165 1.487 . S
C163 C160 1.382 . S
C163 C164 1.387 . S
C163 H180 0.930 . S
C164 C162 1.381 . S
C164 C163 1.387 . S
C164 H181 0.931 . S
C165 C158 1.399 . S
C165 C162 1.487 . S
C165 N182 1.343 . S
H166 C138 0.931 . S
H167 C140 0.930 . S
H168 C142 0.930 . S
H169 C143 0.931 . S
H170 C145 0.931 . S
H171 C147 0.930 . S
H172 C149 0.930 . S
H173 C150 0.931 . S
H174 C152 0.931 . S
H175 C154 0.930 . S
H176 C156 0.930 . S
H177 C157 0.931 . S
H178 C159 0.931 . S
H179 C161 0.930 . S
H180 C163 0.930 . S
H181 C164 0.931 . S
N182 C144 1.343 1_545 S
N182 C165 1.343 . S
N183 C151 1.343 . S
N183 C158 1.343 1_565 S
C184 C185 1.384 . S
C184 C186 1.384 . S
C184 H212 0.931 . S
C185 C184 1.384 . S
C185 C188 1.382 . S
C186 C184 1.384 . S
C186 C187 1.381 . S
C186 H213 0.930 . S
C187 C186 1.381 . S
C187 C189 1.381 . S
C187 C190 1.487 . S
C188 C185 1.382 . S
C188 C189 1.387 . S
C188 H214 0.930 . S
C189 C187 1.381 . S
C189 C188 1.387 . S
C189 H215 0.931 . S
C190 C187 1.487 . S
C190 C197 1.399 . S
C190 N228 1.343 . S
C191 C192 1.384 . S
C191 C193 1.384 . S
C191 H216 0.931 . S
C192 C191 1.384 . S
C192 C195 1.382 . S
C193 C191 1.384 . S
C193 C194 1.381 . S
C193 H217 0.930 . S
C194 C193 1.381 . S
C194 C196 1.381 . S
C194 C197 1.487 . S
C195 C192 1.382 . S
C195 C196 1.387 . S
C195 H218 0.930 . S
C196 C194 1.381 . S
C196 C195 1.387 . S
C196 H219 0.931 . S
C197 C190 1.399 . S
C197 C194 1.487 . S
C197 N229 1.343 1_455 S
C198 C199 1.384 . S
C198 C200 1.384 . S
C198 H220 0.931 . S
C199 C198 1.384 . S
C199 C202 1.382 . S
C200 C198 1.384 . S
C200 C201 1.381 . S
C200 H221 0.930 . S
C201 C200 1.381 . S
C201 C203 1.381 . S
C201 C204 1.487 . S
C202 C199 1.382 . S
C202 C203 1.387 . S
C202 H222 0.930 . S
C203 C201 1.381 . S
C203 C202 1.387 . S
C203 H223 0.931 . S
C204 C201 1.487 . S
C204 C211 1.399 . S
C204 N229 1.343 . S
C205 C206 1.384 . S
C205 C207 1.384 . S
C205 H224 0.931 . S
C206 C205 1.384 . S
C206 C209 1.382 . S
C207 C205 1.384 . S
C207 C208 1.381 . S
C207 H225 0.930 . S
C208 C207 1.381 . S
C208 C210 1.381 . S
C208 C211 1.487 . S
C209 C206 1.382 . S
C209 C210 1.387 . S
C209 H226 0.930 . S
C210 C208 1.381 . S
C210 C209 1.387 . S
C210 H227 0.931 . S
C211 C204 1.399 . S
C211 C208 1.487 . S
C211 N228 1.343 1_655 S
H212 C184 0.931 . S
H213 C186 0.930 . S
H214 C188 0.930 . S
H215 C189 0.931 . S
H216 C191 0.931 . S
H217 C193 0.930 . S
H218 C195 0.930 . S
H219 C196 0.931 . S
H220 C198 0.931 . S
H221 C200 0.930 . S
H222 C202 0.930 . S
H223 C203 0.931 . S
H224 C205 0.931 . S
H225 C207 0.930 . S
H226 C209 0.930 . S
H227 C210 0.931 . S
N228 C190 1.343 . S
N228 C211 1.343 1_455 S
N229 C197 1.343 1_655 S
N229 C204 1.343 . S
C230 C231 1.384 . S
C230 C232 1.384 . S
C230 H258 0.931 . S
C231 C230 1.384 . S
C231 C234 1.382 . S
C232 C230 1.384 . S
C232 C233 1.381 . S
C232 H259 0.930 . S
C233 C232 1.381 . S
C233 C235 1.381 . S
C233 C236 1.487 . S
C234 C231 1.382 . S
C234 C235 1.387 . S
C234 H260 0.930 . S
C235 C233 1.381 . S
C235 C234 1.387 . S
C235 H261 0.931 . S
C236 C233 1.487 . S
C236 C243 1.399 . S
C236 N274 1.343 . S
C237 C238 1.384 . S
C237 C239 1.384 . S
C237 H262 0.931 . S
C238 C237 1.384 . S
C238 C241 1.382 . S
C239 C237 1.384 . S
C239 C240 1.381 . S
C239 H263 0.930 . S
C240 C239 1.381 . S
C240 C242 1.381 . S
C240 C243 1.487 . S
C241 C238 1.382 . S
C241 C242 1.387 . S
C241 H264 0.930 . S
C242 C240 1.381 . S
C242 C241 1.387 . S
C242 H265 0.931 . S
C243 C236 1.399 . S
C243 C240 1.487 . S
C243 N275 1.343 . S
C244 C245 1.384 . S
C244 C246 1.384 . S
C244 H266 0.931 . S
C245 C244 1.384 . S
C245 C248 1.382 . S
C246 C244 1.384 . S
C246 C247 1.381 . S
C246 H267 0.930 . S
C247 C246 1.381 . S
C247 C249 1.381 . S
C247 C250 1.487 . S
C248 C245 1.382 . S
C248 C249 1.387 . S
C248 H268 0.930 . S
C249 C247 1.381 . S
C249 C248 1.387 . S
C249 H269 0.931 . S
C250 C247 1.487 . S
C250 C257 1.399 . S
C250 N275 1.343 . S
C251 C252 1.384 . S
C251 C253 1.384 . S
C251 H270 0.931 . S
C252 C251 1.384 . S
C252 C255 1.382 . S
C253 C251 1.384 . S
C253 C254 1.381 . S
C253 H271 0.930 . S
C254 C253 1.381 . S
C254 C256 1.381 . S
C254 C257 1.487 . S
C255 C252 1.382 . S
C255 C256 1.387 . S
C255 H272 0.930 . S
C256 C254 1.381 . S
C256 C255 1.387 . S
C256 H273 0.931 . S
C257 C250 1.399 . S
C257 C254 1.487 . S
C257 N274 1.343 . S
H258 C230 0.931 . S
H259 C232 0.930 . S
H260 C234 0.930 . S
H261 C235 0.931 . S
H262 C237 0.931 . S
H263 C239 0.930 . S
H264 C241 0.930 . S
H265 C242 0.931 . S
H266 C244 0.931 . S
H267 C246 0.930 . S
H268 C248 0.930 . S
H269 C249 0.931 . S
H270 C251 0.931 . S
H271 C253 0.930 . S
H272 C255 0.930 . S
H273 C256 0.931 . S
N274 C236 1.343 . S
N274 C257 1.343 . S
N275 C243 1.343 . S
N275 C250 1.343 . S
C276 C277 1.384 . S
C276 C278 1.384 . S
C276 H304 0.931 . S
C277 C276 1.384 . S
C277 C280 1.382 . S
C278 C276 1.384 . S
C278 C279 1.381 . S
C278 H305 0.930 . S
C279 C278 1.381 . S
C279 C281 1.381 . S
C279 C282 1.487 . S
C280 C277 1.382 . S
C280 C281 1.387 . S
C280 H306 0.930 . S
C281 C279 1.381 . S
C281 C280 1.387 . S
C281 H307 0.931 1_565 S
C282 C279 1.487 . S
C282 C289 1.399 . S
C282 N320 1.343 1_565 S
C283 C284 1.384 . S
C283 C285 1.384 . S
C283 H308 0.931 . S
C284 C283 1.384 . S
C284 C287 1.382 . S
C285 C283 1.384 . S
C285 C286 1.381 . S
C285 H309 0.930 . S
C286 C285 1.381 . S
C286 C288 1.381 . S
C286 C289 1.487 . S
C287 C284 1.382 . S
C287 C288 1.387 . S
C287 H310 0.930 . S
C288 C286 1.381 . S
C288 C287 1.387 . S
C288 H311 0.931 . S
C289 C282 1.399 . S
C289 C286 1.487 . S
C289 N321 1.343 1_565 S
C290 C291 1.384 . S
C290 C292 1.384 . S
C290 H312 0.931 . S
C291 C290 1.384 . S
C291 C294 1.382 . S
C292 C290 1.384 . S
C292 C293 1.381 . S
C292 H313 0.930 . S
C293 C292 1.381 . S
C293 C295 1.381 . S
C293 C296 1.487 . S
C294 C291 1.382 . S
C294 C295 1.387 . S
C294 H314 0.930 . S
C295 C293 1.381 . S
C295 C294 1.387 . S
C295 H315 0.931 . S
C296 C293 1.487 . S
C296 C303 1.399 . S
C296 N321 1.343 . S
C297 C298 1.384 . S
C297 C299 1.384 . S
C297 H316 0.931 . S
C298 C297 1.384 . S
C298 C301 1.382 . S
C299 C297 1.384 . S
C299 C300 1.381 . S
C299 H317 0.930 . S
C300 C299 1.381 . S
C300 C302 1.381 . S
C300 C303 1.487 . S
C301 C298 1.382 . S
C301 C302 1.387 . S
C301 H318 0.930 . S
C302 C300 1.381 . S
C302 C301 1.387 . S
C302 H319 0.931 . S
C303 C296 1.399 . S
C303 C300 1.487 . S
C303 N320 1.343 . S
H304 C276 0.931 . S
H305 C278 0.930 . S
H306 C280 0.930 . S
H307 C281 0.931 1_545 S
H308 C283 0.931 . S
H309 C285 0.930 . S
H310 C287 0.930 . S
H311 C288 0.931 . S
H312 C290 0.931 . S
H313 C292 0.930 . S
H314 C294 0.930 . S
H315 C295 0.931 . S
H316 C297 0.931 . S
H317 C299 0.930 . S
H318 C301 0.930 . S
H319 C302 0.931 . S
N320 C282 1.343 1_545 S
N320 C303 1.343 . S
N321 C289 1.343 1_545 S
N321 C296 1.343 . S
C322 C323 1.384 . S
C322 C324 1.384 . S
C322 H350 0.931 . S
C323 C322 1.384 . S
C323 C326 1.382 . S
C324 C322 1.384 . S
C324 C325 1.381 . S
C324 H351 0.930 . S
C325 C324 1.381 . S
C325 C327 1.381 . S
C325 C328 1.487 1_565 S
C326 C323 1.382 . S
C326 C327 1.387 . S
C326 H352 0.930 . S
C327 C325 1.381 . S
C327 C326 1.387 . S
C327 H353 0.931 . S
C328 C325 1.487 1_545 S
C328 C335 1.399 . S
C328 N366 1.343 . S
C329 C330 1.384 . S
C329 C331 1.384 . S
C329 H354 0.931 . S
C330 C329 1.384 . S
C330 C333 1.382 . S
C331 C329 1.384 . S
C331 C332 1.381 . S
C331 H355 0.930 . S
C332 C331 1.381 . S
C332 C334 1.381 1_565 S
C332 C335 1.487 1_565 S
C333 C330 1.382 . S
C333 C334 1.387 1_565 S
C333 H356 0.930 . S
C334 C332 1.381 1_545 S
C334 C333 1.387 1_545 S
C334 H357 0.931 . S
C335 C328 1.399 . S
C335 C332 1.487 1_545 S
C335 N367 1.343 . S
C336 C337 1.384 . S
C336 C338 1.384 . S
C336 H358 0.931 . S
C337 C336 1.384 . S
C337 C340 1.382 . S
C338 C336 1.384 . S
C338 C339 1.381 . S
C338 H359 0.930 . S
C339 C338 1.381 . S
C339 C341 1.381 1_655 S
C339 C342 1.487 1_655 S
C340 C337 1.382 . S
C340 C341 1.387 1_655 S
C340 H360 0.930 1_655 S
C341 C339 1.381 1_455 S
C341 C340 1.387 1_455 S
C341 H361 0.931 . S
C342 C339 1.487 1_455 S
C342 C349 1.399 . S
C342 N367 1.343 . S
C343 C344 1.384 . S
C343 C345 1.384 . S
C343 H362 0.931 . S
C344 C343 1.384 . S
C344 C347 1.382 . S
C345 C343 1.384 . S
C345 C346 1.381 . S
C345 H363 0.930 1_655 S
C346 C345 1.381 . S
C346 C348 1.381 . S
C346 C349 1.487 1_655 S
C347 C344 1.382 . S
C347 C348 1.387 . S
C347 H364 0.930 . S
C348 C346 1.381 . S
C348 C347 1.387 . S
C348 H365 0.931 . S
C349 C342 1.399 . S
C349 C346 1.487 1_455 S
C349 N366 1.343 . S
H350 C322 0.931 . S
H351 C324 0.930 . S
H352 C326 0.930 . S
H353 C327 0.931 . S
H354 C329 0.931 . S
H355 C331 0.930 . S
H356 C333 0.930 . S
H357 C334 0.931 . S
H358 C336 0.931 . S
H359 C338 0.930 . S
H360 C340 0.930 1_455 S
H361 C341 0.931 . S
H362 C343 0.931 . S
H363 C345 0.930 1_455 S
H364 C347 0.930 . S
H365 C348 0.931 . S
N366 C328 1.343 . S
N366 C349 1.343 . S
N367 C335 1.343 . S
N367 C342 1.343 . S
Co368 O369 2.216 . S
Co368 O370 2.091 . S
Co368 O372 2.004 . S
Co368 O378 2.021 1_554 S
Co368 O380 2.137 . S
Co368 O381 2.244 . S
O369 Co368 2.216 . S
O369 C376 1.244 1_554 S
O370 Co368 2.091 . S
O370 C376 1.258 1_554 S
C371 O380 1.247 . S
C371 O381 1.272 . S
O372 Co368 2.004 . S
O372 C377 1.259 . S
Co373 O374 2.061 . S
Co373 O379 2.052 1_554 S
Co373 O381 2.135 . S
O374 Co373 2.061 . S
O374 C377 1.235 . S
C375 O378 1.238 . S
C375 O379 1.241 . S
C376 O369 1.244 1_556 S
C376 O370 1.258 1_556 S
C377 O372 1.259 . S
C377 O374 1.235 . S
O378 Co368 2.021 1_556 S
O378 C375 1.238 . S
O379 Co373 2.052 1_556 S
O379 C375 1.241 . S
O380 Co368 2.137 . S
O380 C371 1.247 . S
O381 Co368 2.244 . S
O381 C371 1.272 . S
O381 Co373 2.135 . S
Co382 O383 2.216 . S
Co382 O384 2.091 . S
Co382 O386 2.004 . S
Co382 O392 2.021 . S
Co382 O394 2.137 . S
Co382 O395 2.244 . S
O383 Co382 2.216 . S
O383 C390 1.247 . S
O384 Co382 2.091 . S
O384 C390 1.261 . S
C385 O394 1.247 . S
C385 O395 1.272 . S
O386 Co382 2.004 . S
O386 C391 1.259 . S
Co387 O388 2.061 . S
Co387 O393 2.052 . S
Co387 O395 2.135 . S
O388 Co387 2.061 . S
O388 C391 1.235 . S
C389 O392 1.238 . S
C389 O393 1.241 . S
C390 O383 1.247 . S
C390 O384 1.261 . S
C391 O386 1.259 . S
C391 O388 1.235 . S
O392 Co382 2.021 . S
O392 C389 1.238 . S
O393 Co387 2.052 . S
O393 C389 1.241 . S
O394 Co382 2.137 . S
O394 C385 1.247 . S
O395 Co382 2.244 . S
O395 C385 1.272 . S
O395 Co387 2.135 . S
Co396 O397 2.216 . S
Co396 O398 2.091 . S
Co396 O400 2.004 . S
Co396 O406 2.021 . S
Co396 O408 2.137 . S
Co396 O409 2.244 . S
O397 Co396 2.216 . S
O397 C404 1.247 . S
O398 Co396 2.091 . S
O398 C404 1.261 . S
C399 O408 1.247 . S
C399 O409 1.272 . S
O400 Co396 2.004 . S
O400 C405 1.259 . S
Co401 O402 2.061 . S
Co401 O407 2.052 . S
Co401 O409 2.135 . S
O402 Co401 2.061 . S
O402 C405 1.235 . S
C403 O406 1.238 . S
C403 O407 1.241 . S
C404 O397 1.247 . S
C404 O398 1.261 . S
C405 O400 1.259 . S
C405 O402 1.235 . S
O406 Co396 2.021 . S
O406 C403 1.238 . S
O407 Co401 2.052 . S
O407 C403 1.241 . S
O408 Co396 2.137 . S
O408 C399 1.247 . S
O409 Co396 2.244 . S
O409 C399 1.272 . S
O409 Co401 2.135 . S
Co410 O411 2.216 . S
Co410 O412 2.091 . S
Co410 O414 2.004 . S
Co410 O420 2.021 . S
Co410 O422 2.137 . S
Co410 O423 2.244 . S
O411 Co410 2.216 . S
O411 C418 1.247 . S
O412 Co410 2.091 . S
O412 C418 1.261 . S
C413 O422 1.247 . S
C413 O423 1.272 . S
O414 Co410 2.004 . S
O414 C419 1.259 . S
Co415 O416 2.061 . S
Co415 O421 2.052 . S
Co415 O423 2.135 . S
O416 Co415 2.061 . S
O416 C419 1.235 . S
C417 O420 1.238 . S
C417 O421 1.241 . S
C418 O411 1.247 . S
C418 O412 1.261 . S
C419 O414 1.259 . S
C419 O416 1.235 . S
O420 Co410 2.021 . S
O420 C417 1.238 . S
O421 Co415 2.052 . S
O421 C417 1.241 . S
O422 Co410 2.137 . S
O422 C413 1.247 . S
O423 Co410 2.244 . S
O423 C413 1.272 . S
O423 Co415 2.135 . S
Co424 O425 2.216 . S
Co424 O426 2.091 . S
Co424 O428 2.004 . S
Co424 O434 2.021 . S
Co424 O436 2.137 . S
Co424 O437 2.244 . S
O425 Co424 2.216 . S
O425 C432 1.247 . S
O426 Co424 2.091 . S
O426 C432 1.261 . S
C427 O436 1.247 . S
C427 O437 1.272 . S
O428 Co424 2.004 . S
O428 C433 1.259 . S
Co429 O430 2.061 . S
Co429 O435 2.052 . S
Co429 O437 2.135 . S
O430 Co429 2.061 . S
O430 C433 1.235 . S
C431 O434 1.238 . S
C431 O435 1.241 . S
C432 O425 1.247 . S
C432 O426 1.261 . S
C433 O428 1.259 . S
C433 O430 1.235 . S
O434 Co424 2.021 . S
O434 C431 1.238 . S
O435 Co429 2.052 . S
O435 C431 1.241 . S
O436 Co424 2.137 . S
O436 C427 1.247 . S
O437 Co424 2.244 . S
O437 C427 1.272 . S
O437 Co429 2.135 . S
Co438 O439 2.216 . S
Co438 O440 2.091 . S
Co438 O442 2.004 . S
Co438 O448 2.021 . S
Co438 O450 2.137 . S
Co438 O451 2.244 . S
O439 Co438 2.216 . S
O439 C446 1.247 . S
O440 Co438 2.091 . S
O440 C446 1.261 . S
C441 O450 1.247 . S
C441 O451 1.272 . S
O442 Co438 2.004 . S
O442 C447 1.259 . S
Co443 O444 2.061 . S
Co443 O449 2.052 . S
Co443 O451 2.135 . S
O444 Co443 2.061 . S
O444 C447 1.235 . S
C445 O448 1.238 . S
C445 O449 1.241 . S
C446 O439 1.247 . S
C446 O440 1.261 . S
C447 O442 1.259 . S
C447 O444 1.235 . S
O448 Co438 2.021 . S
O448 C445 1.238 . S
O449 Co443 2.052 . S
O449 C445 1.241 . S
O450 Co438 2.137 . S
O450 C441 1.247 . S
O451 Co438 2.244 . S
O451 C441 1.272 . S
O451 Co443 2.135 . S
Co452 O453 2.216 1_556 S
Co452 O454 2.091 1_556 S
Co452 O456 2.004 . S
Co452 O462 2.021 1_556 S
Co452 O464 2.137 . S
Co452 O465 2.244 . S
O453 Co452 2.216 1_554 S
O453 C460 1.247 . S
O454 Co452 2.091 1_554 S
O454 C460 1.261 . S
C455 O464 1.247 . S
C455 O465 1.272 . S
O456 Co452 2.004 . S
O456 C461 1.259 . S
Co457 O458 2.061 . S
Co457 O463 2.052 1_556 S
Co457 O465 2.135 . S
O458 Co457 2.061 . S
O458 C461 1.235 . S
C459 O462 1.238 . S
C459 O463 1.241 . S
C460 O453 1.247 . S
C460 O454 1.261 . S
C461 O456 1.259 . S
C461 O458 1.235 . S
O462 Co452 2.021 1_554 S
O462 C459 1.238 . S
O463 Co457 2.052 1_554 S
O463 C459 1.241 . S
O464 Co452 2.137 . S
O464 C455 1.247 . S
O465 Co452 2.244 . S
O465 C455 1.272 . S
O465 Co457 2.135 . S
Co466 O467 2.216 . S
Co466 O468 2.091 . S
Co466 O470 2.004 . S
Co466 O476 2.021 . S
Co466 O478 2.137 . S
Co466 O479 2.244 . S
O467 Co466 2.216 . S
O467 C474 1.247 . S
O468 Co466 2.091 . S
O468 C474 1.261 . S
C469 O478 1.247 . S
C469 O479 1.272 . S
O470 Co466 2.004 . S
O470 C475 1.259 . S
Co471 O472 2.061 . S
Co471 O477 2.052 . S
Co471 O479 2.135 . S
O472 Co471 2.061 . S
O472 C475 1.235 . S
C473 O476 1.238 . S
C473 O477 1.241 . S
C474 O467 1.247 . S
C474 O468 1.261 . S
C475 O470 1.259 . S
C475 O472 1.235 . S
O476 Co466 2.021 . S
O476 C473 1.238 . S
O477 Co471 2.052 . S
O477 C473 1.241 . S
O478 Co466 2.137 . S
O478 C469 1.247 . S
O479 Co466 2.244 . S
O479 C469 1.272 . S
O479 Co471 2.135 . S
C480 C481 1.387 . S
C480 H484 0.950 . S
C480 C489 1.390 . S
C481 C480 1.387 . S
C481 C483 1.387 . S
H482 C489 0.950 . S
C483 C481 1.387 . S
C483 C485 1.390 . S
C483 H487 0.950 . S
H484 C480 0.950 . S
C485 C483 1.390 . S
C485 C486 1.387 . S
C485 H488 0.950 . S
C486 C485 1.387 . S
C486 C489 1.387 . S
H487 C483 0.950 . S
H488 C485 0.950 . S
C489 C480 1.390 . S
C489 H482 0.950 . S
C489 C486 1.387 . S
C490 C491 1.387 . S
C490 H494 0.950 . S
C490 C499 1.390 . S
C491 C490 1.387 . S
C491 C493 1.387 . S
H492 C499 0.950 . S
C493 C491 1.387 . S
C493 C495 1.390 . S
C493 H497 0.950 . S
H494 C490 0.950 . S
C495 C493 1.390 . S
C495 C496 1.387 . S
C495 H498 0.950 . S
C496 C495 1.387 . S
C496 C499 1.387 . S
H497 C493 0.950 . S
H498 C495 0.950 . S
C499 C490 1.390 . S
C499 H492 0.950 . S
C499 C496 1.387 . S
C500 C501 1.387 . S
C500 H504 0.950 . S
C500 C509 1.390 . S
C501 C500 1.387 . S
C501 C503 1.387 . S
H502 C509 0.950 . S
C503 C501 1.387 . S
C503 C505 1.390 . S
C503 H507 0.950 . S
H504 C500 0.950 . S
C505 C503 1.390 . S
C505 C506 1.387 . S
C505 H508 0.950 . S
C506 C505 1.387 . S
C506 C509 1.387 . S
H507 C503 0.950 . S
H508 C505 0.950 . S
C509 C500 1.390 . S
C509 H502 0.950 . S
C509 C506 1.387 . S
C510 C511 1.387 . S
C510 H514 0.950 . S
C510 C519 1.390 . S
C511 C510 1.387 . S
C511 C513 1.387 . S
H512 C519 0.950 . S
C513 C511 1.387 . S
C513 C515 1.390 . S
C513 H517 0.950 1_554 S
H514 C510 0.950 . S
C515 C513 1.390 . S
C515 C516 1.391 . S
C515 H518 0.946 1_554 S
C516 C515 1.391 . S
C516 C519 1.387 . S
H517 C513 0.950 1_556 S
H518 C515 0.946 1_556 S
C519 C510 1.390 . S
C519 H512 0.950 . S
C519 C516 1.387 . S
C520 C521 1.387 1_554 S
C520 H524 0.950 . S
C520 C529 1.390 . S
C521 C520 1.387 1_556 S
C521 C523 1.387 . S
H522 C529 0.950 . S
C523 C521 1.387 . S
C523 C525 1.390 . S
C523 H527 0.950 . S
H524 C520 0.950 . S
C525 C523 1.390 . S
C525 C526 1.387 . S
C525 H528 0.950 . S
C526 C525 1.387 . S
C526 C529 1.387 1_556 S
H527 C523 0.950 . S
H528 C525 0.950 . S
C529 C520 1.390 . S
C529 H522 0.950 . S
C529 C526 1.387 1_554 S
C530 C531 1.387 . S
C530 H534 0.950 . S
C530 C539 1.390 . S
C531 C530 1.387 . S
C531 C533 1.387 . S
H532 C539 0.950 . S
C533 C531 1.387 . S
C533 C535 1.390 . S
C533 H537 0.950 . S
H534 C530 0.950 . S
C535 C533 1.390 . S
C535 C536 1.387 . S
C535 H538 0.950 . S
C536 C535 1.387 . S
C536 C539 1.387 . S
H537 C533 0.950 . S
H538 C535 0.950 . S
C539 C530 1.390 . S
C539 H532 0.950 . S
C539 C536 1.387 . S
C540 C541 1.387 . S
C540 H544 0.950 . S
C540 C549 1.390 . S
C541 C540 1.387 . S
C541 C543 1.387 . S
H542 C549 0.950 . S
C543 C541 1.387 . S
C543 C545 1.390 . S
C543 H547 0.950 . S
H544 C540 0.950 . S
C545 C543 1.390 . S
C545 C546 1.387 . S
C545 H548 0.950 . S
C546 C545 1.387 . S
C546 C549 1.387 . S
H547 C543 0.950 . S
H548 C545 0.950 . S
C549 C540 1.390 . S
C549 H542 0.950 . S
C549 C546 1.387 . S
C550 C551 1.387 . S
C550 H554 0.950 . S
C550 C559 1.390 . S
C551 C550 1.387 . S
C551 C553 1.387 . S
H552 C559 0.950 . S
C553 C551 1.387 . S
C553 C555 1.390 . S
C553 H557 0.950 . S
H554 C550 0.950 . S
C555 C553 1.390 . S
C555 C556 1.387 . S
C555 H558 0.950 . S
C556 C555 1.387 . S
C556 C559 1.387 . S
H557 C553 0.950 . S
H558 C555 0.950 . S
C559 C550 1.390 . S
C559 H552 0.950 . S
C559 C556 1.387 . S
C560 C561 1.387 . S
C560 H564 0.950 . S
C560 C569 1.390 . S
C561 C560 1.387 . S
C561 C563 1.387 . S
H562 C569 0.950 . S
C563 C561 1.387 . S
C563 C565 1.390 . S
C563 H567 0.950 . S
H564 C560 0.950 . S
C565 C563 1.390 . S
C565 C566 1.387 . S
C565 H568 0.950 . S
C566 C565 1.387 . S
C566 C569 1.387 . S
H567 C563 0.950 . S
H568 C565 0.950 . S
C569 C560 1.390 . S
C569 H562 0.950 . S
C569 C566 1.387 . S
C570 C571 1.387 . S
C570 H574 0.950 . S
C570 C579 1.390 . S
C571 C570 1.387 . S
C571 C573 1.387 1_554 S
H572 C579 0.950 . S
C573 C571 1.387 1_556 S
C573 C575 1.390 . S
C573 H577 0.950 . S
H574 C570 0.950 . S
C575 C573 1.390 . S
C575 C576 1.387 1_556 S
C575 H578 0.950 . S
C576 C575 1.387 1_554 S
C576 C579 1.387 . S
H577 C573 0.950 . S
H578 C575 0.950 . S
C579 C570 1.390 . S
C579 H572 0.950 . S
C579 C576 1.387 . S
C580 C581 1.387 . S
C580 H584 0.950 . S
C580 C589 1.390 . S
C581 C580 1.387 . S
C581 C583 1.387 . S
H582 C589 0.950 . S
C583 C581 1.387 . S
C583 C585 1.390 . S
C583 H587 0.950 . S
H584 C580 0.950 . S
C585 C583 1.390 . S
C585 C586 1.387 . S
C585 H588 0.950 . S
C586 C585 1.387 . S
C586 C589 1.387 . S
H587 C583 0.950 . S
H588 C585 0.950 . S
C589 C580 1.390 . S
C589 H582 0.950 . S
C589 C586 1.387 . S
C590 C591 1.387 . S
C590 H594 0.950 . S
C590 C599 1.390 . S
C591 C590 1.387 . S
C591 C593 1.387 . S
H592 C599 0.950 . S
C593 C591 1.387 . S
C593 C595 1.390 . S
C593 H597 0.950 . S
H594 C590 0.950 . S
C595 C593 1.390 . S
C595 C596 1.387 . S
C595 H598 0.950 . S
C596 C595 1.387 . S
C596 C599 1.387 . S
H597 C593 0.950 . S
H598 C595 0.950 . S
C599 C590 1.390 . S
C599 H592 0.950 . S
C599 C596 1.387 . S
C600 C601 1.387 . S
C600 H604 0.950 . S
C600 C609 1.390 . S
C601 C600 1.387 . S
C601 C603 1.387 . S
H602 C609 0.950 . S
C603 C601 1.387 . S
C603 C605 1.390 . S
C603 H607 0.950 . S
H604 C600 0.950 . S
C605 C603 1.390 . S
C605 C606 1.387 . S
C605 H608 0.950 . S
C606 C605 1.387 . S
C606 C609 1.387 . S
H607 C603 0.950 . S
H608 C605 0.950 . S
C609 C600 1.390 . S
C609 H602 0.950 . S
C609 C606 1.387 . S
C610 C611 1.387 . S
C610 H614 0.950 . S
C610 C619 1.390 . S
C611 C610 1.387 . S
C611 C613 1.387 . S
H612 C619 0.950 . S
C613 C611 1.387 . S
C613 C615 1.390 . S
C613 H617 0.950 . S
H614 C610 0.950 . S
C615 C613 1.390 . S
C615 C616 1.387 . S
C615 H618 0.950 . S
C616 C615 1.387 . S
C616 C619 1.387 . S
H617 C613 0.950 . S
H618 C615 0.950 . S
C619 C610 1.390 . S
C619 H612 0.950 . S
C619 C616 1.387 . S
C620 C621 1.387 . S
C620 H624 0.950 . S
C620 C629 1.390 . S
C621 C620 1.387 . S
C621 C623 1.387 . S
H622 C629 0.950 . S
C623 C621 1.387 . S
C623 C625 1.390 . S
C623 H627 0.950 1_556 S
H624 C620 0.950 . S
C625 C623 1.390 . S
C625 C626 1.387 . S
C625 H628 0.950 1_556 S
C626 C625 1.387 . S
C626 C629 1.387 . S
H627 C623 0.950 1_554 S
H628 C625 0.950 1_554 S
C629 C620 1.390 . S
C629 H622 0.950 . S
C629 C626 1.387 . S
C630 C631 1.387 . S
C630 H634 0.950 . S
C630 C639 1.390 . S
C631 C630 1.387 . S
C631 C633 1.387 . S
H632 C639 0.950 . S
C633 C631 1.387 . S
C633 C635 1.390 . S
C633 H637 0.950 . S
H634 C630 0.950 . S
C635 C633 1.390 . S
C635 C636 1.387 . S
C635 H638 0.950 . S
C636 C635 1.387 . S
C636 C639 1.387 . S
H637 C633 0.950 . S
H638 C635 0.950 . S
C639 C630 1.390 . S
C639 H632 0.950 . S
C639 C636 1.387 . S
C640 C641 1.387 . S
C640 H644 0.950 . S
C640 C649 1.390 . S
C641 C640 1.387 . S
C641 C643 1.387 . S
H642 C649 0.950 . S
C643 C641 1.387 . S
C643 C645 1.390 . S
C643 H647 0.950 . S
H644 C640 0.950 . S
C645 C643 1.390 . S
C645 C646 1.387 . S
C645 H648 0.950 . S
C646 C645 1.387 . S
C646 C649 1.387 . S
H647 C643 0.950 . S
H648 C645 0.950 . S
C649 C640 1.390 . S
C649 H642 0.950 . S
C649 C646 1.387 . S
C650 C651 1.387 . S
C650 H654 0.950 . S
C650 C659 1.390 . S
C651 C650 1.387 . S
C651 C653 1.387 . S
H652 C659 0.950 . S
C653 C651 1.387 . S
C653 C655 1.390 . S
C653 H657 0.950 . S
H654 C650 0.950 . S
C655 C653 1.390 . S
C655 C656 1.387 . S
C655 H658 0.950 . S
C656 C655 1.387 . S
C656 C659 1.387 . S
H657 C653 0.950 . S
H658 C655 0.950 . S
C659 C650 1.390 . S
C659 H652 0.950 . S
C659 C656 1.387 . S
C660 C661 1.387 . S
C660 H664 0.950 . S
C660 C669 1.390 . S
C661 C660 1.387 . S
C661 C663 1.387 . S
H662 C669 0.950 . S
C663 C661 1.387 . S
C663 C665 1.390 . S
C663 H667 0.950 . S
H664 C660 0.950 . S
C665 C663 1.390 . S
C665 C666 1.387 . S
C665 H668 0.950 . S
C666 C665 1.387 . S
C666 C669 1.387 . S
H667 C663 0.950 . S
H668 C665 0.950 . S
C669 C660 1.390 . S
C669 H662 0.950 . S
C669 C666 1.387 . S
C670 C671 1.387 . S
C670 H674 0.950 . S
C670 C679 1.390 . S
C671 C670 1.387 . S
C671 C673 1.387 . S
H672 C679 0.950 . S
C673 C671 1.387 . S
C673 C675 1.390 . S
C673 H677 0.950 . S
H674 C670 0.950 . S
C675 C673 1.390 . S
C675 C676 1.387 . S
C675 H678 0.950 . S
C676 C675 1.387 . S
C676 C679 1.387 . S
H677 C673 0.950 . S
H678 C675 0.950 . S
C679 C670 1.390 . S
C679 H672 0.950 . S
C679 C676 1.387 . S
C680 C681 1.387 . S
C680 H684 0.950 . S
C680 C689 1.390 . S
C681 C680 1.387 . S
C681 C683 1.387 . S
H682 C689 0.950 . S
C683 C681 1.387 . S
C683 C685 1.390 . S
C683 H687 0.950 . S
H684 C680 0.950 . S
C685 C683 1.390 . S
C685 C686 1.387 . S
C685 H688 0.950 . S
C686 C685 1.387 . S
C686 C689 1.387 . S
H687 C683 0.950 . S
H688 C685 0.950 . S
C689 C680 1.390 . S
C689 H682 0.950 . S
C689 C686 1.387 . S
C690 C691 1.387 . S
C690 H694 0.950 . S
C690 C699 1.390 . S
C691 C690 1.387 . S
C691 C693 1.387 . S
H692 C699 0.950 . S
C693 C691 1.387 . S
C693 C695 1.390 . S
C693 H697 0.950 . S
H694 C690 0.950 . S
C695 C693 1.390 . S
C695 C696 1.387 . S
C695 H698 0.950 . S
C696 C695 1.387 . S
C696 C699 1.387 . S
H697 C693 0.950 . S
H698 C695 0.950 . S
C699 C690 1.390 . S
C699 H692 0.950 . S
C699 C696 1.387 . S
C700 C701 1.387 . S
C700 H704 0.950 . S
C700 C709 1.390 . S
C701 C700 1.387 . S
C701 C703 1.387 . S
H702 C709 0.950 . S
C703 C701 1.387 . S
C703 C705 1.390 . S
C703 H707 0.950 . S
H704 C700 0.950 . S
C705 C703 1.390 . S
C705 C706 1.387 . S
C705 H708 0.950 . S
C706 C705 1.387 . S
C706 C709 1.387 . S
H707 C703 0.950 . S
H708 C705 0.950 . S
C709 C700 1.390 . S
C709 H702 0.950 . S
C709 C706 1.387 . S
C710 C711 1.387 . S
C710 H714 0.950 . S
C710 C719 1.390 . S
C711 C710 1.387 . S
C711 C713 1.387 . S
H712 C719 0.950 . S
C713 C711 1.387 . S
C713 C715 1.390 . S
C713 H717 0.950 . S
H714 C710 0.950 . S
C715 C713 1.390 . S
C715 C716 1.387 . S
C715 H718 0.950 . S
C716 C715 1.387 . S
C716 C719 1.387 . S
H717 C713 0.950 . S
H718 C715 0.950 . S
C719 C710 1.390 . S
C719 H712 0.950 . S
C719 C716 1.387 . S
C720 C721 1.387 . S
C720 H724 0.950 . S
C720 C729 1.390 . S
C721 C720 1.387 . S
C721 C723 1.387 . S
H722 C729 0.950 . S
C723 C721 1.387 . S
C723 C725 1.390 . S
C723 H727 0.950 . S
H724 C720 0.950 . S
C725 C723 1.390 . S
C725 C726 1.387 . S
C725 H728 0.950 . S
C726 C725 1.387 . S
C726 C729 1.387 . S
H727 C723 0.950 . S
H728 C725 0.950 . S
C729 C720 1.390 . S
C729 H722 0.950 . S
C729 C726 1.387 . S
C730 C731 1.387 . S
C730 H734 0.950 . S
C730 C739 1.390 . S
C731 C730 1.387 . S
C731 C733 1.387 . S
H732 C739 0.950 . S
C733 C731 1.387 . S
C733 C735 1.390 . S
C733 H737 0.950 . S
H734 C730 0.950 . S
C735 C733 1.390 . S
C735 C736 1.387 . S
C735 H738 0.950 . S
C736 C735 1.387 . S
C736 C739 1.387 . S
H737 C733 0.950 . S
H738 C735 0.950 . S
C739 C730 1.390 . S
C739 H732 0.950 . S
C739 C736 1.387 . S
C740 C741 1.387 . S
C740 H744 0.950 . S
C740 C749 1.390 . S
C741 C740 1.387 . S
C741 C743 1.387 . S
H742 C749 0.950 . S
C743 C741 1.387 . S
C743 C745 1.390 . S
C743 H747 0.950 . S
H744 C740 0.950 . S
C745 C743 1.390 . S
C745 C746 1.387 . S
C745 H748 0.950 . S
C746 C745 1.387 . S
C746 C749 1.387 . S
H747 C743 0.950 . S
H748 C745 0.950 . S
C749 C740 1.390 . S
C749 H742 0.950 . S
C749 C746 1.387 . S
C750 C751 1.387 . S
C750 H754 0.950 . S
C750 C759 1.390 . S
C751 C750 1.387 . S
C751 C753 1.387 . S
H752 C759 0.950 . S
C753 C751 1.387 . S
C753 C755 1.390 . S
C753 H757 0.950 . S
H754 C750 0.950 . S
C755 C753 1.390 . S
C755 C756 1.387 . S
C755 H758 0.950 . S
C756 C755 1.387 . S
C756 C759 1.387 . S
H757 C753 0.950 . S
H758 C755 0.950 . S
C759 C750 1.390 . S
C759 H752 0.950 . S
C759 C756 1.387 . S
C760 C761 1.387 . S
C760 H764 0.950 . S
C760 C769 1.390 . S
C761 C760 1.387 . S
C761 C763 1.387 . S
H762 C769 0.950 . S
C763 C761 1.387 . S
C763 C765 1.390 . S
C763 H767 0.950 . S
H764 C760 0.950 . S
C765 C763 1.390 . S
C765 C766 1.387 . S
C765 H768 0.950 . S
C766 C765 1.387 . S
C766 C769 1.387 . S
H767 C763 0.950 . S
H768 C765 0.950 . S
C769 C760 1.390 . S
C769 H762 0.950 . S
C769 C766 1.387 . S
C770 C771 1.387 . S
C770 H774 0.950 . S
C770 C779 1.390 . S
C771 C770 1.387 . S
C771 C773 1.387 . S
H772 C779 0.950 . S
C773 C771 1.387 . S
C773 C775 1.390 . S
C773 H777 0.950 . S
H774 C770 0.950 . S
C775 C773 1.390 . S
C775 C776 1.387 . S
C775 H778 0.950 . S
C776 C775 1.387 . S
C776 C779 1.387 . S
H777 C773 0.950 . S
H778 C775 0.950 . S
C779 C770 1.390 . S
C779 H772 0.950 . S
C779 C776 1.387 . S
C780 C781 1.387 . S
C780 H784 0.950 . S
C780 C789 1.390 . S
C781 C780 1.387 . S
C781 C783 1.387 . S
H782 C789 0.950 . S
C783 C781 1.387 . S
C783 C785 1.390 . S
C783 H787 0.950 . S
H784 C780 0.950 . S
C785 C783 1.390 . S
C785 C786 1.387 . S
C785 H788 0.950 . S
C786 C785 1.387 . S
C786 C789 1.387 . S
H787 C783 0.950 . S
H788 C785 0.950 . S
C789 C780 1.390 . S
C789 H782 0.950 . S
C789 C786 1.387 . S
C790 C791 1.387 . S
C790 H794 0.950 . S
C790 C799 1.390 . S
C791 C790 1.387 . S
C791 C793 1.387 . S
H792 C799 0.950 . S
C793 C791 1.387 . S
C793 C795 1.390 . S
C793 H797 0.950 . S
H794 C790 0.950 . S
C795 C793 1.390 . S
C795 C796 1.387 . S
C795 H798 0.950 . S
C796 C795 1.387 . S
C796 C799 1.387 . S
H797 C793 0.950 . S
H798 C795 0.950 . S
C799 C790 1.390 . S
C799 H792 0.950 . S
C799 C796 1.387 . S
C486 C390 1.441 . S
C481 C8 1.390 . S
C496 C404 1.442 . S
C491 C61 1.392 . S
C506 C419 1.420 . S
C501 C107 1.407 . S
C511 C139 1.395 . S
C516 C377 1.410 . S
C521 C192 1.364 . S
C526 C376 1.428 . S
C531 C238 1.360 . S
C536 C391 1.395 . S
C546 C405 1.447 . S
C541 C284 1.405 . S
C556 C418 1.450 . S
C551 C330 1.392 . S
C561 C100 1.367 . S
C566 C446 1.427 . S
C576 C460 1.463 . S
C571 C160 1.391 . S
C581 C15 1.360 . S
C586 C475 1.402 . S
C596 C432 1.403 . S
C591 C54 1.346 . S
C601 C291 1.403 . S
C606 C433 1.417 . S
C611 C337 1.408 . S
C616 C447 1.418 . S
C626 C461 1.421 . S
C621 C199 1.403 . S
C631 C245 1.405 . S
C636 C474 1.458 . S
C646 C399 1.746 . S
C641 C1 1.741 . S
C656 C417 1.738 . S
C651 C68 1.729 . S
C661 C114 1.741 . S
C666 C375 1.752 . S
C671 C146 1.763 . S
C676 C385 1.770 . S
C681 C185 1.667 . S
C686 C413 1.661 . S
C696 C371 1.671 . S
C691 C231 1.675 . S
C706 C389 1.651 . S
C701 C277 1.672 . S
C716 C403 1.644 . S
C711 C323 1.670 . S
C726 C455 1.659 . S
C721 C93 1.664 . S
C736 C473 1.642 . S
C731 C153 1.657 . S
C741 C22 1.659 . S
C746 C427 1.665 . S
C756 C441 1.660 . S
C751 C47 1.665 . S
C766 C469 1.766 . S
C761 C298 1.743 . S
C771 C344 1.750 . S
C776 C431 1.764 . S
C786 C445 1.753 . S
C781 C206 1.740 . S
C796 C459 1.734 . S
C791 C252 1.728 . S
