# Generated by pormake.
# Topology zzz, (3,6)-cn, num edge types: 1
# Building blocks:
#     Node 0, Type 0, BuildingBlock: VETTIZ_charged_linker_0, # of connection points: 3
#     Node 1, Type 0, BuildingBlock: VETTIZ_charged_linker_0, # of connection points: 3
#     Node 2, Type 0, BuildingBlock: VETTIZ_charged_linker_0, # of connection points: 3
#     Node 3, Type 0, BuildingBlock: VETTIZ_charged_linker_0, # of connection points: 3
#     Node 4, Type 0, BuildingBlock: VETTIZ_charged_linker_0, # of connection points: 3
#     Node 5, Type 0, BuildingBlock: VETTIZ_charged_linker_0, # of connection points: 3
#     Node 6, Type 0, BuildingBlock: VETTIZ_charged_linker_0, # of connection points: 3
#     Node 7, Type 0, BuildingBlock: VETTIZ_charged_linker_0, # of connection points: 3
#     Node 8, Type 1, BuildingBlock: HISSIN_clean_sbu_0, # of connection points: 6
#     Node 9, Type 1, BuildingBlock: HISSIN_clean_sbu_0, # of connection points: 6
#     Node 10, Type 1, BuildingBlock: HISSIN_clean_sbu_0, # of connection points: 6
#     Node 11, Type 1, BuildingBlock: HISSIN_clean_sbu_0, # of connection points: 6
#     Edge 12, Type (0, 1), BuildingBlock: XIVTED_clean_linker_0, # of connection points: 2
#     Edge 13, Type (0, 1), BuildingBlock: XIVTED_clean_linker_0, # of connection points: 2
#     Edge 14, Type (0, 1), BuildingBlock: XIVTED_clean_linker_0, # of connection points: 2
#     Edge 15, Type (0, 1), BuildingBlock: XIVTED_clean_linker_0, # of connection points: 2
#     Edge 16, Type (0, 1), BuildingBlock: XIVTED_clean_linker_0, # of connection points: 2
#     Edge 17, Type (0, 1), BuildingBlock: XIVTED_clean_linker_0, # of connection points: 2
#     Edge 18, Type (0, 1), BuildingBlock: XIVTED_clean_linker_0, # of connection points: 2
#     Edge 19, Type (0, 1), BuildingBlock: XIVTED_clean_linker_0, # of connection points: 2
#     Edge 20, Type (0, 1), BuildingBlock: XIVTED_clean_linker_0, # of connection points: 2
#     Edge 21, Type (0, 1), BuildingBlock: XIVTED_clean_linker_0, # of connection points: 2
#     Edge 22, Type (0, 1), BuildingBlock: XIVTED_clean_linker_0, # of connection points: 2
#     Edge 23, Type (0, 1), BuildingBlock: XIVTED_clean_linker_0, # of connection points: 2
#     Edge 24, Type (0, 1), BuildingBlock: XIVTED_clean_linker_0, # of connection points: 2
#     Edge 25, Type (0, 1), BuildingBlock: XIVTED_clean_linker_0, # of connection points: 2
#     Edge 26, Type (0, 1), BuildingBlock: XIVTED_clean_linker_0, # of connection points: 2
#     Edge 27, Type (0, 1), BuildingBlock: XIVTED_clean_linker_0, # of connection points: 2
#     Edge 28, Type (0, 1), BuildingBlock: XIVTED_clean_linker_0, # of connection points: 2
#     Edge 29, Type (0, 1), BuildingBlock: XIVTED_clean_linker_0, # of connection points: 2
#     Edge 30, Type (0, 1), BuildingBlock: XIVTED_clean_linker_0, # of connection points: 2
#     Edge 31, Type (0, 1), BuildingBlock: XIVTED_clean_linker_0, # of connection points: 2
#     Edge 32, Type (0, 1), BuildingBlock: XIVTED_clean_linker_0, # of connection points: 2
#     Edge 33, Type (0, 1), BuildingBlock: XIVTED_clean_linker_0, # of connection points: 2
#     Edge 34, Type (0, 1), BuildingBlock: XIVTED_clean_linker_0, # of connection points: 2
#     Edge 35, Type (0, 1), BuildingBlock: XIVTED_clean_linker_0, # of connection points: 2
# Relax obj value: 0.401
# Max RMSD: 0.225
# Mean RMSD: 0.194
data_MOF--net-zzz--node1-HISSIN_clean_sbu_0--node2-VETTIZ_charged_linker_0--edge1-XIVTED_clean_linker_0
_symmetry_space_group_name_H-M    P1
_symmetry_Int_Tables_number       1
_symmetry_cell_setting            triclinic
loop_
_symmetry_equiv_pos_as_xyz
'x, y, z'
_cell_length_a     55.873682
_cell_length_b     56.186198
_cell_length_c     21.425063
_cell_angle_alpha  89.976677
_cell_angle_beta   91.338306
_cell_angle_gamma 91.731676
loop_
_atom_site_label
_atom_site_type_symbol
_atom_site_fract_x
_atom_site_fract_y
_atom_site_fract_z
_atom_type_partial_charge
C0 C 0.8107 0.56196 0.33434 0.0
C1 C 0.83038 0.57493 0.36263 0.0
C2 C 0.8347 0.59878 0.34401 0.0
C3 C 0.80435 0.59473 0.26318 0.0
C4 C 0.79733 0.57274 0.28542 0.0
C5 C 0.77417 0.56421 0.25217 0.0
H6 H 0.69261 0.58724 1.01369 0.0
C7 C 0.78951 0.60077 0.2092 0.0
C8 C 0.77044 0.58403 0.20358 0.0
H9 H 0.68812 0.52853 0.14282 0.0
H10 H 0.72544 0.5426 0.19479 0.0
H11 H 0.71327 0.6299 0.10621 0.0
H12 H 0.73756 0.58084 0.97683 0.0
H13 H 0.765 0.59607 0.99256 0.0
H14 H 0.73998 0.61146 0.95798 0.0
H15 H 0.70984 0.6293 0.02253 0.0
H16 H 0.73522 0.64437 0.06001 0.0
C17 C 0.75409 0.56323 0.30029 0.0
C18 C 0.77824 0.53998 0.22121 0.0
C19 C 0.8308 0.63855 0.02836 0.0
C20 C 0.8226 0.64144 0.96622 0.0
C21 C 0.79795 0.64482 0.95504 0.0
C22 C 0.78156 0.64078 1.00273 0.0
C23 C 0.78996 0.63277 0.06102 0.0
C24 C 0.81417 0.63391 0.07499 0.0
C25 C 0.8197 0.62605 0.14078 0.0
C26 C 0.79488 0.61671 0.16005 0.0
C27 C 0.77793 0.61975 0.11179 0.0
C28 C 0.82908 0.6481 0.17837 0.0
C29 C 0.83819 0.60605 0.14028 0.0
C30 C 0.6993 0.57768 0.05411 0.0
C31 C 0.68712 0.55721 0.0752 0.0
C32 C 0.69706 0.5446 0.12622 0.0
C33 C 0.71859 0.55284 0.15645 0.0
C34 C 0.73052 0.57357 0.13449 0.0
C35 C 0.7209 0.58519 0.08312 0.0
C36 C 0.73686 0.60499 0.06002 0.0
C37 C 0.75683 0.60497 0.10918 0.0
C38 C 0.75326 0.58658 0.15339 0.0
C39 C 0.72311 0.62846 0.06186 0.0
C40 C 0.74534 0.59819 0.99366 0.0
H41 H 0.82388 0.62739 0.28566 0.0
H42 H 0.80589 0.54417 0.35003 0.0
H43 H 0.79451 0.54099 0.1923 0.0
H44 H 0.76315 0.53433 0.18998 0.0
H45 H 0.78077 0.52594 0.25711 0.0
H46 H 0.75422 0.57998 0.32798 0.0
H47 H 0.75657 0.54817 0.33322 0.0
H48 H 0.73612 0.56136 0.27821 0.0
H49 H 0.84965 0.63684 0.03925 0.0
H50 H 0.79118 0.64836 0.90828 0.0
H51 H 0.7629 0.64258 0.99173 0.0
H52 H 0.83688 0.66215 0.14766 0.0
H53 H 0.84391 0.64359 0.21118 0.0
H54 H 0.81449 0.65629 0.20456 0.0
H55 H 0.83161 0.59099 0.11022 0.0
H56 H 0.84186 0.59902 0.18761 0.0
H57 H 0.85568 0.61273 0.12276 0.0
H58 H 0.84889 0.60964 0.36578 0.0
C59 C 0.82129 0.60884 0.29574 0.0
C60 C 0.89384 0.78406 0.98146 0.0
C61 C 0.89059 0.80885 0.9824 0.0
C62 C 0.88765 0.81971 0.04116 0.0
C63 C 0.90358 0.78513 0.0919 0.0
C64 C 0.90152 0.77274 0.03646 0.0
C65 C 0.91272 0.74874 0.04119 0.0
H66 H 1.0077 0.69173 0.10995 0.0
C67 C 0.92001 0.77241 0.1342 0.0
C68 C 0.92467 0.75059 0.10644 0.0
H69 H 0.94115 0.66336 0.02773 0.0
H70 H 0.91991 0.69562 0.07508 0.0
H71 H 1.00192 0.75314 0.10482 0.0
H72 H 0.97153 0.70656 0.24696 0.0
H73 H 0.98912 0.7313 0.2753 0.0
H74 H 1.00333 0.70774 0.23504 0.0
H75 H 0.02084 0.73367 0.14935 0.0
H76 H 1.00996 0.76016 0.18431 0.0
C77 C 0.93132 0.74636 0.98919 0.0
C78 C 0.89245 0.72936 0.03596 0.0
C79 C 0.96112 0.82243 0.30269 0.0
C80 C 0.98129 0.8205 0.34241 0.0
C81 C 0.99568 0.80033 0.33438 0.0
C82 C 0.9894 0.78243 0.28917 0.0
C83 C 0.96848 0.78457 0.25158 0.0
C84 C 0.95503 0.80461 0.25914 0.0
C85 C 0.93389 0.80536 0.21535 0.0
C86 C 0.93551 0.78162 0.18254 0.0
C87 C 0.95602 0.76923 0.20244 0.0
C88 C 0.93768 0.82708 0.1708 0.0
C89 C 0.91092 0.8062 0.25439 0.0
C90 C 0.98875 0.69311 0.09947 0.0
C91 C 0.97641 0.67574 0.06099 0.0
C92 C 0.95133 0.67694 0.05369 0.0
C93 C 0.93909 0.69591 0.07813 0.0
C94 C 0.952 0.71449 0.10742 0.0
C95 C 0.97566 0.71214 0.12441 0.0
C96 C 0.98291 0.73117 0.17317 0.0
C97 C 0.96055 0.74664 0.17381 0.0
C98 C 0.94344 0.73684 0.13121 0.0
C99 C 1.00521 0.74537 0.15186 0.0
C100 C 0.98705 0.71861 0.23624 0.0
H101 H 0.89252 0.81711 0.13928 0.0
H102 H 0.8938 0.77452 0.93764 0.0
H103 H 0.87618 0.73602 1.01155 0.0
H104 H 0.88693 0.72303 0.08278 0.0
H105 H 0.89779 0.71397 1.00759 0.0
H106 H 0.945 0.76113 0.99216 0.0
H107 H 0.92258 0.74667 0.94216 0.0
H108 H 0.9407 0.72937 0.99208 0.0
H109 H 0.95012 0.83794 0.30428 0.0
H110 H 0.01157 0.79819 0.36346 0.0
H111 H 1.00099 0.76766 0.28462 0.0
H112 H 0.95494 0.83699 0.17992 0.0
H113 H 0.92352 0.84034 0.17585 0.0
H114 H 0.9384 0.82159 0.12117 0.0
H115 H 0.91229 0.79437 0.29591 0.0
H116 H 0.89475 0.7997 0.22811 0.0
H117 H 0.90795 0.82454 0.27131 0.0
H118 H 0.88365 0.83834 0.04525 0.0
C119 C 0.89372 0.80767 0.09614 0.0
C120 C 0.83035 0.98706 0.06796 0.0
C121 C 0.83523 0.98246 1.00387 0.0
C122 C 0.81607 0.97407 0.96497 0.0
C123 C 0.79064 0.96879 0.05338 0.0
C124 C 0.80732 0.98056 0.09148 0.0
C125 C 0.79739 0.98285 0.15737 0.0
H126 H 0.70417 0.94587 0.34743 0.0
C127 C 0.77113 0.95912 0.09124 0.0
C128 C 0.77295 0.96935 0.15096 0.0
H129 H 0.72303 0.02013 0.32235 0.0
H130 H 0.75251 0.00931 0.2437 0.0
H131 H 0.69059 0.93453 0.24807 0.0
H132 H 0.75922 0.91948 0.31003 0.0
H133 H 0.7474 0.89624 0.2614 0.0
H134 H 0.7301 0.90653 0.3255 0.0
H135 H 0.69956 0.90521 0.23652 0.0
H136 H 0.70092 0.92696 0.1743 0.0
C137 C 0.79492 0.00925 0.17388 0.0
C138 C 0.81387 0.97053 0.20513 0.0
C139 C 0.7189 0.89082 1.00861 0.0
C140 C 0.70225 0.87578 0.03928 0.0
C141 C 0.70597 0.87142 0.10363 0.0
C142 C 0.7228 0.88533 0.13829 0.0
C143 C 0.73513 0.904 0.10835 0.0
C144 C 0.73498 0.90503 0.04418 0.0
C145 C 0.75039 0.92536 0.02042 0.0
C146 C 0.75784 0.93751 0.08166 0.0
C147 C 0.74789 0.92548 0.13256 0.0
C148 C 0.73466 0.94182 0.97963 0.0
C149 C 0.77176 0.91496 0.98524 0.0
C150 C 0.71522 0.95991 0.32713 0.0
C151 C 0.7113 0.98377 0.34188 0.0
C152 C 0.72599 1.0015 0.31331 0.0
C153 C 0.74328 0.99531 0.26873 0.0
C154 C 0.74613 0.97122 0.25308 0.0
C155 C 0.73118 0.95419 0.28021 0.0
C156 C 0.73062 0.93094 0.24538 0.0
C157 C 0.74646 0.93738 0.19065 0.0
C158 C 0.75764 0.96002 0.19861 0.0
C159 C 0.70428 0.92397 0.22492 0.0
C160 C 0.74237 0.91216 0.28779 0.0
H161 H 0.7804 0.96056 0.95742 0.0
H162 H 0.84421 0.99448 0.09897 0.0
H163 H 0.81621 0.95161 0.19198 0.0
H164 H 0.80609 0.97093 0.25237 0.0
H165 H 0.83181 0.97963 0.20761 0.0
H166 H 0.78031 0.01724 0.14553 0.0
H167 H 0.81187 0.01939 0.16485 0.0
H168 H 0.79127 0.01139 0.22416 0.0
H169 H 0.71726 0.89423 0.95901 0.0
H170 H 0.69427 0.85906 0.12809 0.0
H171 H 0.72461 0.88221 0.18749 0.0
H172 H 0.71698 0.94423 1.00122 0.0
H173 H 0.73142 0.93419 0.93225 0.0
H174 H 0.74271 0.95992 0.97474 0.0
H175 H 0.77019 0.89526 0.98034 0.0
H176 H 0.7891 0.91878 1.01017 0.0
H177 H 0.7729 0.92197 0.93693 0.0
H178 H 0.81831 0.97206 0.91518 0.0
C179 C 0.79407 0.96714 0.98931 0.0
C180 C 0.50546 0.71103 0.28852 0.0
C181 C 0.49318 0.69199 0.31904 0.0
C182 C 0.46967 0.6858 0.29918 0.0
C183 C 0.47064 0.71647 0.21995 0.0
C184 C 0.49359 0.72334 0.23929 0.0
C185 C 0.50257 0.74477 0.2018 0.0
H186 H 0.47734 0.82338 0.9629 0.0
C187 C 0.46293 0.73199 0.16816 0.0
C188 C 0.48125 0.74917 0.15717 0.0
H189 H 0.54312 0.82265 0.07248 0.0
H190 H 0.52706 0.78933 0.1339 0.0
H191 H 0.47361 0.77049 0.94073 0.0
H192 H 0.44171 0.81538 0.0751 0.0
H193 H 0.41912 0.79476 0.05075 0.0
H194 H 0.43272 0.81444 0.99417 0.0
H195 H 0.44763 0.78724 0.92204 0.0
H196 H 0.44533 0.75732 0.95227 0.0
C197 C 0.52496 0.73769 0.16635 0.0
C198 C 0.5074 0.76584 0.24683 0.0
C199 C 0.38783 0.70796 0.04401 0.0
C200 C 0.37747 0.71679 0.9884 0.0
C201 C 0.38454 0.73983 0.96842 0.0
C202 C 0.40344 0.75245 0.99884 0.0
C203 C 0.41546 0.74198 0.04987 0.0
C204 C 0.40675 0.72072 0.07356 0.0
C205 C 0.42151 0.71231 0.12835 0.0
C206 C 0.44168 0.73111 0.13046 0.0
C207 C 0.4381 0.74827 0.08424 0.0
C208 C 0.43072 0.68726 0.11253 0.0
C209 C 0.40575 0.7132 0.18708 0.0
C210 C 0.48859 0.81608 0.99959 0.0
C211 C 0.51171 0.82555 1.01167 0.0
C212 C 0.52523 0.81568 0.06163 0.0
C213 C 0.51592 0.7963 0.09714 0.0
C214 C 0.49277 0.78677 0.08297 0.0
C215 C 0.47968 0.79701 0.03485 0.0
C216 C 0.4558 0.78497 0.02354 0.0
C217 C 0.4562 0.76583 0.07296 0.0
C218 C 0.47783 0.76654 0.10858 0.0
C219 C 0.4553 0.77454 0.95624 0.0
C220 C 0.43618 0.80325 0.03597 0.0
H221 H 0.44069 0.69175 0.23782 0.0
H222 H 0.5235 0.71636 0.30319 0.0
H223 H 0.49186 0.76809 0.27759 0.0
H224 H 0.5101 0.78287 0.22198 0.0
H225 H 0.52346 0.76277 0.277 0.0
H226 H 0.52146 0.72066 0.14086 0.0
H227 H 0.54036 0.73524 0.19925 0.0
H228 H 0.53027 0.75106 0.13119 0.0
H229 H 0.38302 0.6904 0.06128 0.0
H230 H 0.37645 0.7475 0.92693 0.0
H231 H 0.40879 0.76931 0.97925 0.0
H232 H 0.43607 0.68643 0.06289 0.0
H233 H 0.41661 0.67324 0.11972 0.0
H234 H 0.44685 0.68246 0.13974 0.0
H235 H 0.39038 0.72517 0.18039 0.0
H236 H 0.41577 0.72061 0.22831 0.0
H237 H 0.3982 0.69529 0.19888 0.0
H238 H 0.45991 0.67124 0.32127 0.0
C239 C 0.45845 0.69782 0.25041 0.0
C240 C 0.33068 0.46806 0.24923 0.0
C241 C 0.33715 0.4623 0.31184 0.0
C242 C 0.31985 0.45069 0.349 0.0
C243 C 0.29205 0.44763 0.26136 0.0
C244 C 0.30776 0.46071 0.22501 0.0
C245 C 0.29702 0.46463 0.15982 0.0
H246 H 0.20435 0.43431 0.95502 0.0
C247 C 0.27136 0.43969 0.22247 0.0
C248 C 0.27303 0.45054 0.16366 0.0
H249 H 0.23133 0.50614 0.98272 0.0
H250 H 0.25753 0.49255 0.06768 0.0
H251 H 0.25216 0.39922 1.01098 0.0
H252 H 0.18765 0.42971 0.05464 0.0
H253 H 0.19526 0.421 0.13065 0.0
H254 H 0.19005 0.3991 0.06937 0.0
H255 H 0.22147 0.39181 0.98974 0.0
H256 H 0.2351 0.38002 0.05983 0.0
C257 C 0.31299 0.45375 0.11039 0.0
C258 C 0.29435 0.49154 0.14894 0.0
C259 C 0.20326 0.38917 0.304 0.0
C260 C 0.18344 0.37862 0.27125 0.0
C261 C 0.18669 0.37071 0.20959 0.0
C262 C 0.20715 0.37803 0.17726 0.0
C263 C 0.22378 0.39367 0.20683 0.0
C264 C 0.22339 0.39662 0.27056 0.0
C265 C 0.24444 0.41178 0.2941 0.0
C266 C 0.25433 0.42093 0.2326 0.0
C267 C 0.24143 0.41092 0.18181 0.0
C268 C 0.26208 0.39538 0.32946 0.0
C269 C 0.23538 0.43244 0.33431 0.0
C270 C 0.2172 0.44689 0.97624 0.0
C271 C 0.21638 0.47106 0.96068 0.0
C272 C 0.23237 0.48724 0.99186 0.0
C273 C 0.24796 0.47934 0.04016 0.0
C274 C 0.24769 0.45512 0.05711 0.0
C275 C 0.23123 0.43971 0.02745 0.0
C276 C 0.22573 0.41788 0.06585 0.0
C277 C 0.24168 0.42272 0.12322 0.0
C278 C 0.25603 0.44352 0.11567 0.0
C279 C 0.23395 0.39594 0.02971 0.0
C280 C 0.19846 0.41672 0.08103 0.0
H281 H 0.28542 0.43446 0.35503 0.0
H282 H 0.34328 0.47742 0.21967 0.0
H283 H 0.27788 0.49798 0.17074 0.0
H284 H 0.29416 0.49585 0.09847 0.0
H285 H 0.30989 0.50191 0.16923 0.0
H286 H 0.31581 0.43459 0.12029 0.0
H287 H 0.33077 0.46316 0.10976 0.0
H288 H 0.30449 0.4552 0.06319 0.0
H289 H 0.20187 0.39461 0.35217 0.0
H290 H 0.1723 0.36128 0.18434 0.0
H291 H 0.20863 0.37282 0.12939 0.0
H292 H 0.25727 0.37615 0.32316 0.0
H293 H 0.26237 0.39887 0.38051 0.0
H294 H 0.28059 0.39753 0.31222 0.0
H295 H 0.21976 0.44079 0.31088 0.0
H296 H 0.24904 0.44685 0.3417 0.0
H297 H 0.22972 0.42593 0.38082 0.0
H298 H 0.32359 0.44707 0.39788 0.0
C299 C 0.29761 0.44325 0.32416 0.0
C300 C 0.15272 0.24234 0.35282 0.0
C301 C 0.15578 0.21752 0.35269 0.0
C302 C 0.15944 0.20646 0.29457 0.0
C303 C 0.14425 0.24095 0.24178 0.0
C304 C 0.14574 0.25354 0.297 0.0
C305 C 0.13428 0.2774 0.29104 0.0
H306 H 0.03827 0.33118 0.22283 0.0
C307 C 0.12792 0.25327 0.19838 0.0
C308 C 0.12283 0.27516 0.2253 0.0
H309 H 0.10392 0.36202 0.3034 0.0
H310 H 0.12646 0.3307 0.25468 0.0
H311 H 0.07431 0.31767 0.08415 0.0
H312 H 0.04604 0.27091 0.22877 0.0
H313 H 0.03794 0.26294 0.15002 0.0
H314 H 0.02632 0.28935 0.18349 0.0
H315 H 0.04259 0.31521 0.09655 0.0
H316 H 0.05774 0.29219 0.05655 0.0
C317 C 0.15423 0.29709 0.29662 0.0
C318 C 0.11527 0.27976 0.34207 0.0
C319 C 0.08763 0.20205 0.0304 0.0
C320 C 0.06692 0.20331 0.99235 0.0
C321 C 0.05207 0.22307 1.00093 0.0
C322 C 0.05832 0.24126 0.04518 0.0
C323 C 0.0796 0.23976 0.08155 0.0
C324 C 0.09354 0.22007 0.07367 0.0
C325 C 0.11467 0.21975 0.11768 0.0
C326 C 0.11265 0.24357 0.15014 0.0
C327 C 0.09186 0.25546 0.13009 0.0
C328 C 0.13773 0.21914 0.07899 0.0
C329 C 0.11116 0.19808 0.16251 0.0
C330 C 0.05736 0.33062 0.23225 0.0
C331 C 0.06919 0.34826 0.27072 0.0
C332 C 0.09433 0.34816 0.27712 0.0
C333 C 0.10726 0.32977 0.2519 0.0
C334 C 0.09487 0.31076 0.2228 0.0
C335 C 0.07106 0.31225 0.20656 0.0
C336 C 0.06412 0.29286 0.15867 0.0
C337 C 0.08692 0.27807 0.15785 0.0
C338 C 0.10394 0.28852 0.19965 0.0
C339 C 0.05932 0.30503 0.09537 0.0
C340 C 0.04234 0.27815 0.18133 0.0
H341 H 0.15595 0.2089 0.19598 0.0
H342 H 0.1522 0.25195 0.39645 0.0
H343 H 0.10178 0.26481 0.3389 0.0
H344 H 0.10569 0.29661 0.33835 0.0
H345 H 0.12369 0.27976 0.38949 0.0
H346 H 0.17027 0.29084 0.32279 0.0
H347 H 0.14833 0.31265 0.32344 0.0
H348 H 0.16021 0.30309 0.2499 0.0
H349 H 0.09903 0.18685 0.02796 0.0
H350 H 0.0358 0.22462 0.97301 0.0
H351 H 0.04635 0.25568 0.05016 0.0
H352 H 0.13641 0.23117 0.03786 0.0
H353 H 0.14075 0.20088 0.06156 0.0
H354 H 0.15382 0.22549 0.10583 0.0
H355 H 0.09429 0.1876 0.15257 0.0
H356 H 0.10981 0.20371 0.21189 0.0
H357 H 0.12577 0.18525 0.15866 0.0
H358 H 0.16336 0.18778 0.29135 0.0
C359 C 0.15418 0.2184 0.23885 0.0
C360 C 0.31646 0.04632 1.01763 0.0
C361 C 0.3343 0.05977 0.98459 0.0
C362 C 0.33602 0.0846 0.99479 0.0
C363 C 0.30716 0.08166 0.07603 0.0
C364 C 0.30237 0.0581 0.06235 0.0
C365 C 0.28033 0.04938 0.0985 0.0
H366 H 0.19824 0.0812 0.32178 0.0
C367 C 0.29217 0.08925 0.12643 0.0
C368 C 0.27479 0.07137 0.13846 0.0
H369 H 0.19726 0.01408 0.22445 0.0
H370 H 0.23307 0.02714 0.16709 0.0
H371 H 0.24364 0.08119 0.36251 0.0
H372 H 0.21359 0.11742 0.21088 0.0
H373 H 0.23493 0.13692 0.24802 0.0
H374 H 0.21158 0.12299 0.29322 0.0
H375 H 0.24373 0.11262 0.36591 0.0
H376 H 0.26967 0.09707 0.3404 0.0
C377 C 0.28705 0.02797 0.13934 0.0
C378 C 0.25986 0.04327 0.05139 0.0
C379 C 0.3308 0.14112 0.29143 0.0
C380 C 0.3224 0.1473 0.35061 0.0
C381 C 0.29755 0.14986 0.35726 0.0
C382 C 0.28145 0.14171 0.31028 0.0
C383 C 0.29041 0.13042 0.25767 0.0
C384 C 0.3145 0.13236 0.24585 0.0
C385 C 0.32051 0.12083 0.18507 0.0
C386 C 0.29634 0.10856 0.16791 0.0
C387 C 0.27933 0.11326 0.21274 0.0
C388 C 0.34044 0.10261 0.19596 0.0
C389 C 0.32832 0.14081 0.13937 0.0
C390 C 0.20523 0.06939 0.28708 0.0
C391 C 0.19442 0.04692 0.27667 0.0
C392 C 0.20502 0.0317 0.23302 0.0
C393 C 0.22564 0.03932 0.19953 0.0
C394 C 0.23606 0.06217 0.21073 0.0
C395 C 0.22588 0.07636 0.25526 0.0
C396 C 0.24019 0.09871 0.2687 0.0
C397 C 0.25971 0.09698 0.22113 0.0
C398 C 0.25758 0.07556 0.1862 0.0
C399 C 0.24984 0.09753 0.33759 0.0
C400 C 0.22427 0.12026 0.25489 0.0
H401 H 0.32222 0.11459 0.04088 0.0
H402 H 0.31343 0.02753 1.00828 0.0
H403 H 0.25682 0.05853 0.01941 0.0
H404 H 0.2428 0.03927 0.07468 0.0
H405 H 0.26429 0.0276 0.02271 0.0
H406 H 0.30288 0.03262 0.16985 0.0
H407 H 0.29156 0.01255 0.10982 0.0
H408 H 0.27226 0.02236 0.16994 0.0
H409 H 0.34976 0.13998 0.28346 0.0
H410 H 0.29053 0.15583 0.40107 0.0
H411 H 0.26266 0.14299 0.31819 0.0
H412 H 0.33503 0.08924 0.23164 0.0
H413 H 0.35748 0.11157 0.21182 0.0
H414 H 0.34445 0.093 0.15257 0.0
H415 H 0.33608 0.15669 0.1644 0.0
H416 H 0.31291 0.14685 0.11037 0.0
H417 H 0.34283 0.13508 0.10881 0.0
H418 H 0.34851 0.09579 0.96926 0.0
C419 C 0.32199 0.09554 0.03857 0.0
C420 C 0.53348 0.30638 0.03188 0.0
C421 C 0.54593 0.3251 1.00058 0.0
C422 C 0.57016 0.32981 1.01629 0.0
C423 C 0.56914 0.29923 0.09576 0.0
C424 C 0.54573 0.29326 0.07878 0.0
C425 C 0.53673 0.27173 0.11574 0.0
H426 H 0.5617 0.19259 0.35314 0.0
C427 C 0.57694 0.28354 0.14697 0.0
C428 C 0.55842 0.26661 0.15843 0.0
H429 H 0.4958 0.19389 0.24456 0.0
H430 H 0.51222 0.22683 0.18195 0.0
H431 H 0.5979 0.20073 0.23774 0.0
H432 H 0.56624 0.24213 0.37852 0.0
H433 H 0.59191 0.25923 0.36148 0.0
H434 H 0.59488 0.22944 0.3916 0.0
H435 H 0.60595 0.20022 0.31932 0.0
H436 H 0.62056 0.2206 0.26618 0.0
C437 C 0.53106 0.2511 0.06981 0.0
C438 C 0.51489 0.2789 0.15329 0.0
C439 C 0.64874 0.30965 0.2811 0.0
C440 C 0.65796 0.30079 0.33801 0.0
C441 C 0.65207 0.27709 0.35469 0.0
C442 C 0.63487 0.26374 0.32 0.0
C443 C 0.62335 0.27421 0.26826 0.0
C444 C 0.6314 0.29615 0.24727 0.0
C445 C 0.6175 0.30416 0.19042 0.0
C446 C 0.59802 0.2846 0.18537 0.0
C447 C 0.60151 0.26733 0.23137 0.0
C448 C 0.63453 0.3041 0.13409 0.0
C449 C 0.60707 0.32881 0.20457 0.0
C450 C 0.55067 0.19981 0.31582 0.0
C451 C 0.52736 0.1908 0.30452 0.0
C452 C 0.51386 0.20058 0.25454 0.0
C453 C 0.52338 0.21971 0.21845 0.0
C454 C 0.5467 0.22899 0.23218 0.0
C455 C 0.55979 0.21862 0.28009 0.0
C456 C 0.58373 0.2305 0.29149 0.0
C457 C 0.58343 0.24969 0.24213 0.0
C458 C 0.56179 0.24911 0.2066 0.0
C459 C 0.60319 0.21213 0.27855 0.0
C460 C 0.58445 0.24079 0.3591 0.0
H461 H 0.60005 0.32188 0.07308 0.0
H462 H 0.51494 0.30203 0.01979 0.0
H463 H 0.51903 0.2956 0.17977 0.0
H464 H 0.50964 0.26526 0.1878 0.0
H465 H 0.49924 0.282 0.12168 0.0
H466 H 0.54609 0.24901 0.0373 0.0
H467 H 0.51462 0.25458 0.04149 0.0
H468 H 0.52861 0.23386 0.09375 0.0
H469 H 0.65304 0.32764 0.26623 0.0
H470 H 0.65948 0.26947 0.39709 0.0
H471 H 0.6302 0.24633 0.33711 0.0
H472 H 0.65135 0.29462 0.14463 0.0
H473 H 0.63985 0.32249 0.1199 0.0
H474 H 0.62628 0.29458 0.09321 0.0
H475 H 0.59864 0.32867 0.25111 0.0
H476 H 0.59304 0.33412 0.1709 0.0
H477 H 0.62134 0.34301 0.20483 0.0
H478 H 0.58012 0.34392 0.99291 0.0
C479 C 0.58174 0.31702 0.06314 0.0
Eu480 Eu 1.00554 0.02603 0.61754 0.0
Eu481 Eu 0.03997 0.9994 0.71532 0.0
C482 C 0.03471 0.05531 0.72742 0.0
C483 C 0.99521 0.07745 0.52256 0.0
C484 C 1.00062 0.09481 0.56863 0.0
C485 C 0.02448 0.09674 0.45559 0.0
C486 C 0.0187 0.11205 0.55956 0.0
C487 C 1.00632 0.07952 0.46457 0.0
C488 C 0.03165 0.11238 0.50419 0.0
C489 C 0.98416 0.05427 0.5407 0.0
O490 O 1.00455 1.00502 0.76353 0.0
O491 O 0.97891 1.0067 0.67935 0.0
C492 C 0.98263 1.00405 0.73973 0.0
O493 O 1.00495 0.98865 0.57776 0.0
O494 O 0.05042 0.99308 0.81275 0.0
O495 O 0.06676 0.97322 0.73994 0.0
O496 O 0.0211 0.969 0.66196 0.0
C497 C 0.01101 0.96882 0.60582 0.0
O498 O 0.04341 0.03415 0.58476 0.0
O499 O 0.06372 1.00407 0.63163 0.0
O500 O 0.05056 0.03845 0.72884 0.0
O501 O 0.99559 0.03577 0.52196 0.0
O502 O 0.97802 0.05215 0.59894 0.0
O503 O 0.01416 0.05181 0.69727 0.0
C504 C 0.04961 0.95137 0.82279 0.0
C505 C 0.04688 0.93129 0.78363 0.0
C506 C 0.01737 0.9354 0.88623 0.0
C507 C 0.02856 0.91437 0.79328 0.0
C508 C 0.0357 0.95237 0.87652 0.0
C509 C 0.01279 0.91699 0.84276 0.0
C510 C 0.06108 0.97352 0.79863 0.0
C511 C 0.06219 0.0206 0.58847 0.0
H512 H 0.99246 0.09386 0.61397 0.0
H513 H 0.03372 0.09703 0.4117 0.0
H514 H 0.0237 0.12392 0.59782 0.0
H515 H 1.00252 0.06646 0.42818 0.0
H516 H 0.05739 0.92974 0.74204 0.0
H517 H 1.006 0.93742 0.92603 0.0
H518 H 0.02567 0.9003 0.75916 0.0
H519 H 0.0375 0.96744 0.90799 0.0
Eu520 Eu 0.53559 0.02689 0.7203 0.0
Eu521 Eu 0.50478 0.9955 0.61909 0.0
C522 C 0.52878 0.96883 0.73376 0.0
C523 C 0.58125 0.0269 0.83773 0.0
C524 C 0.5955 0.01408 0.79714 0.0
C525 C 0.58999 0.99812 0.91936 0.0
C526 C 0.60543 0.99276 0.81594 0.0
C527 C 0.57947 0.01928 0.89988 0.0
C528 C 0.60213 0.98397 0.87667 0.0
C529 C 0.56303 0.0426 0.81051 0.0
O530 O 0.48119 1.00155 0.70257 0.0
O531 O 0.4971 0.03716 0.73579 0.0
C532 C 0.47925 0.02138 0.73415 0.0
O533 O 0.52868 0.05482 0.64767 0.0
O534 O 0.47514 0.97008 0.5992 0.0
O535 O 0.49297 0.98782 0.52314 0.0
O536 O 0.50015 0.03404 0.58894 0.0
C537 C 0.51288 0.05366 0.60135 0.0
O538 O 0.56399 0.01278 0.65628 0.0
O539 O 0.54157 0.99503 0.57696 0.0
O540 O 0.5232 0.96668 0.67409 0.0
O541 O 0.56618 0.04923 0.75273 0.0
O542 O 0.54105 0.03512 0.81942 0.0
O543 O 0.53013 0.98987 0.76042 0.0
C544 C 0.45121 0.99004 0.5244 0.0
C545 C 0.44991 1.002 0.46689 0.0
C546 C 0.42023 0.01532 0.56344 0.0
C547 C 0.43504 0.02138 0.45919 0.0
C548 C 0.43514 0.99601 0.57125 0.0
C549 C 0.421 0.02895 0.5086 0.0
C550 C 0.47321 0.97731 0.54144 0.0
C551 C 0.56236 1.00248 0.60104 0.0
H552 H 0.59727 0.01927 0.74877 0.0
H553 H 0.58772 0.99244 0.96718 0.0
H554 H 0.61435 0.98256 0.78108 0.0
H555 H 0.56842 0.02867 0.93203 0.0
H556 H 0.46201 0.9978 0.42994 0.0
H557 H 0.40948 0.0206 0.60222 0.0
H558 H 0.43545 0.03118 0.41566 0.0
H559 H 0.43556 0.98723 0.61626 0.0
Eu560 Eu 0.49771 0.52115 0.72041 0.0
Eu561 Eu 0.53785 0.50298 0.62426 0.0
C562 C 0.55378 0.52098 0.76268 0.0
C563 C 0.44239 0.54994 0.78724 0.0
C564 C 0.44269 0.57246 0.75888 0.0
C565 C 0.40102 0.5553 0.81559 0.0
C566 C 0.42267 0.58666 0.76115 0.0
C567 C 0.42119 0.54119 0.81391 0.0
C568 C 0.40179 0.57859 0.79127 0.0
C569 C 0.4643 0.53605 0.79281 0.0
O570 O 0.52575 0.4695 0.67664 0.0
O571 O 0.50988 0.48673 0.76301 0.0
C572 C 0.51776 0.46799 0.73408 0.0
O573 O 0.47765 0.49971 0.64563 0.0
O574 O 0.57294 0.50797 0.5833 0.0
O575 O 0.54904 0.47919 0.55071 0.0
O576 O 0.50355 0.50566 0.56606 0.0
C577 C 0.48203 0.5001 0.58575 0.0
O578 O 0.49904 0.54925 0.64444 0.0
O579 O 0.53679 0.54295 0.6103 0.0
O580 O 0.55764 0.50594 0.71733 0.0
O581 O 0.46363 0.51504 0.76701 0.0
O582 O 0.48466 0.5475 0.78458 0.0
O583 O 0.53351 0.53222 0.76545 0.0
C584 C 0.59053 0.47336 0.54601 0.0
C585 C 0.59926 0.46246 0.60053 0.0
C586 C 0.61918 0.45233 0.48536 0.0
C587 C 0.61774 0.44625 0.59726 0.0
C588 C 0.60084 0.46852 0.48876 0.0
C589 C 0.62764 0.44067 0.53938 0.0
C590 C 0.57031 0.48932 0.5473 0.0
C591 C 0.51785 0.5562 0.61267 0.0
H592 H 0.45871 0.57957 0.73725 0.0
H593 H 0.38515 0.54829 0.83808 0.0
H594 H 0.42423 0.60455 0.74258 0.0
H595 H 0.4205 0.52373 0.8354 0.0
H596 H 0.59149 0.46615 0.64525 0.0
H597 H 0.6259 0.44815 0.43979 0.0
H598 H 0.62391 0.43774 0.63978 0.0
H599 H 0.59425 0.4768 0.44628 0.0
Eu600 Eu 0.03385 0.53262 0.61221 0.0
Eu601 Eu 1.00619 0.49541 0.7016 0.0
C602 C 0.06378 0.5027 0.71662 0.0
C603 C 0.07114 0.54236 0.47956 0.0
C604 C 0.09316 0.53296 0.49885 0.0
C605 C 0.0691 0.51399 0.39349 0.0
C606 C 0.10204 0.5132 0.46865 0.0
C607 C 0.06018 0.53379 0.42379 0.0
C608 C 0.08922 0.50255 0.41826 0.0
C609 C 0.05665 0.55508 0.52534 0.0
O610 O 0.9998 0.53234 0.74088 0.0
O611 O 0.03066 0.55462 0.69994 0.0
C612 C 0.01392 0.55158 0.74164 0.0
O613 O 0.99483 0.54267 0.60698 0.0
O614 O 0.99649 0.48332 0.79479 0.0
O615 O 0.9787 0.46735 0.71396 0.0
O616 O 0.98079 0.50491 0.62237 0.0
C617 C 0.97744 0.52652 0.60181 0.0
O618 O 0.0277 0.49809 0.55799 0.0
O619 O 0.02463 0.4706 0.63607 0.0
O620 O 0.04363 0.4961 0.74293 0.0
O621 O 0.03367 0.55028 0.52141 0.0
O622 O 0.06449 0.5548 0.58329 0.0
O623 O 0.06397 0.51353 0.66217 0.0
C624 C 0.95453 0.48265 0.79299 0.0
C625 C 0.93715 0.48872 0.74749 0.0
C626 C 0.93753 0.51092 0.86408 0.0
C627 C 0.92117 0.50674 0.75892 0.0
C628 C 0.95348 0.49283 0.85272 0.0
C629 C 0.92214 0.51891 0.81615 0.0
C630 C 0.97717 0.47222 0.77331 0.0
C631 C 0.02825 0.47587 0.57717 0.0
H632 H 0.10243 0.53937 0.54083 0.0
H633 H 0.05897 0.50646 0.35418 0.0
H634 H 0.11821 0.50541 0.48718 0.0
H635 H 0.04333 0.54078 0.40717 0.0
H636 H 0.93729 0.48125 0.70091 0.0
H637 H 0.93818 0.51957 0.90929 0.0
H638 H 0.90943 0.51237 0.72113 0.0
H639 H 0.96656 0.48849 0.88876 0.0
H640 H 0.1538 0.07215 0.28988 0.0
H641 H 0.10207 0.99343 0.57283 0.0
H642 H 0.18596 0.00718 0.35094 0.0
H643 H 0.067 0.05461 0.4961 0.0
H644 H 0.1328 0.99787 0.49326 0.0
H645 H 0.12164 0.06528 0.36383 0.0
C646 C 0.1539 0.05618 0.31825 0.0
C647 C 0.17268 0.04018 0.31372 0.0
C648 C 0.11839 0.01032 0.49381 0.0
C649 C 0.13579 0.03236 0.40041 0.0
C650 C 0.10083 0.00789 0.53959 0.0
C651 C 0.08177 0.02371 0.54184 0.0
C652 C 0.11714 0.0288 0.44961 0.0
C653 C 0.08125 0.04196 0.49679 0.0
C654 C 0.13552 0.05232 0.36085 0.0
C655 C 0.17178 0.01987 0.35213 0.0
N656 N 0.09858 0.044 0.45299 0.0
N657 N 0.15384 0.01666 0.39414 0.0
H658 H 0.50587 0.14683 0.27601 0.0
H659 H 0.52869 0.09959 0.62367 0.0
H660 H 0.52813 0.19151 0.43148 0.0
H661 H 0.49083 0.05645 0.48468 0.0
H662 H 0.52737 0.13348 0.55279 0.0
H663 H 0.49826 0.11378 0.34967 0.0
C664 C 0.50864 0.14984 0.32561 0.0
C665 C 0.51788 0.17192 0.34749 0.0
C666 C 0.51915 0.11669 0.53772 0.0
C667 C 0.5097 0.13417 0.43182 0.0
C668 C 0.51994 0.09723 0.57836 0.0
C669 C 0.51 0.07497 0.5603 0.0
C670 C 0.50865 0.11402 0.47769 0.0
C671 C 0.49879 0.07322 0.50077 0.0
C672 C 0.50448 0.13094 0.36763 0.0
C673 C 0.52133 0.17473 0.41233 0.0
N674 N 0.49867 0.09237 0.46137 0.0
N675 N 0.51754 0.15612 0.45179 0.0
H676 H 0.36709 0.50266 0.30075 0.0
H677 H 0.44284 0.47115 0.60427 0.0
H678 H 0.36317 0.43359 0.3887 0.0
H679 H 0.47571 0.51559 0.46416 0.0
H680 H 0.40969 0.46178 0.53105 0.0
H681 H 0.40417 0.51186 0.36246 0.0
C682 C 0.37409 0.48934 0.33221 0.0
C683 C 0.36154 0.46751 0.34043 0.0
C684 C 0.42419 0.47353 0.51614 0.0
C685 C 0.40348 0.47814 0.41189 0.0
C686 C 0.44309 0.47896 0.55804 0.0
C687 C 0.46218 0.49407 0.5403 0.0
C688 C 0.42389 0.4837 0.45621 0.0
C689 C 0.46146 0.50366 0.47955 0.0
C690 C 0.39517 0.49465 0.36758 0.0
C691 C 0.37162 0.45096 0.38204 0.0
N692 N 0.44249 0.49853 0.43981 0.0
N693 N 0.39161 0.45676 0.41671 0.0
H694 H 0.04097 0.34163 0.37239 0.0
H695 H 0.03795 0.48121 0.45318 0.0
H696 H 0.07111 0.39663 0.25557 0.0
H697 H 0.02702 0.42666 0.59203 0.0
H698 H 0.04459 0.45049 0.37555 0.0
H699 H 0.02942 0.37234 0.44709 0.0
C700 C 0.04438 0.36023 0.36141 0.0
C701 C 0.05653 0.36659 0.3069 0.0
C702 C 0.04074 0.44516 0.42294 0.0
C703 C 0.04398 0.40186 0.39304 0.0
C704 C 0.03701 0.46277 0.46761 0.0
C705 C 0.03214 0.45672 0.52988 0.0
C706 C 0.03934 0.42101 0.43982 0.0
C707 C 0.03086 0.43232 0.54493 0.0
C708 C 0.03815 0.37773 0.40454 0.0
C709 C 0.06132 0.39095 0.29625 0.0
N710 N 0.03439 0.41542 0.50035 0.0
N711 N 0.05506 0.4076 0.33872 0.0
H712 H 0.85504 0.95185 0.92211 0.0
H713 H 0.9802 0.01717 0.86331 0.0
H714 H 0.87168 0.01789 0.0186 0.0
H715 H 0.93761 0.98443 0.71466 0.0
H716 H 0.94585 0.01253 0.93295 0.0
H717 H 0.89066 0.95779 0.86022 0.0
C718 C 0.86617 0.96769 0.9306 0.0
C719 C 0.85964 0.98476 0.9749 0.0
C720 C 0.94407 1.00643 0.88508 0.0
C721 C 0.90151 0.99122 0.90415 0.0
C722 C 0.96369 0.00892 0.84527 0.0
C723 C 0.96189 1.00118 0.78269 0.0
C724 C 0.92262 0.99544 0.86294 0.0
C725 C 0.93991 0.99075 0.76221 0.0
C726 C 0.88662 0.97099 0.89496 0.0
C727 C 0.87567 1.00432 0.98488 0.0
N728 N 0.92136 0.98794 0.80225 0.0
N729 N 0.89582 0.00706 0.94966 0.0
H730 H 0.53778 0.86637 0.04637 0.0
H731 H 0.54285 0.96749 0.85709 0.0
H732 H 0.50643 0.83074 0.88468 0.0
H733 H 0.52081 0.92113 0.70453 0.0
H734 H 0.5432 0.93351 0.92662 0.0
H735 H 0.54703 0.90104 0.98152 0.0
C736 C 0.53298 0.86576 0.99712 0.0
C737 C 0.5208 0.84568 0.97161 0.0
C738 C 0.5388 0.93039 0.87794 0.0
C739 C 0.5305 0.88599 0.89633 0.0
C740 C 0.53837 0.95005 0.83783 0.0
C741 C 0.53156 0.94738 0.77448 0.0
C742 C 0.53258 0.90752 0.85493 0.0
C743 C 0.52612 0.9242 0.75283 0.0
C744 C 0.53793 0.88585 0.95985 0.0
C745 C 0.5152 0.84601 0.90714 0.0
N746 N 0.52657 0.9053 0.79296 0.0
N747 N 0.51984 0.8658 0.87222 0.0
H748 H 0.6468 0.58236 0.05423 0.0
H749 H 0.59469 0.49586 0.78451 0.0
H750 H 0.67728 0.51465 1.0149 0.0
H751 H 0.55584 0.55485 0.85576 0.0
H752 H 0.6253 0.50255 0.86687 0.0
H753 H 0.61331 0.57247 0.98221 0.0
C754 C 0.64616 0.56518 0.03123 0.0
C755 C 0.66475 0.54922 0.04096 0.0
C756 C 0.61003 0.51396 0.86466 0.0
C757 C 0.62671 0.53798 0.95667 0.0
C758 C 0.59256 0.51025 0.81734 0.0
C759 C 0.57259 0.52488 0.8127 0.0
C760 C 0.60779 0.53263 0.90759 0.0
C761 C 0.57086 0.54312 0.85716 0.0
C762 C 0.62709 0.55957 0.98984 0.0
C763 C 0.66316 0.52731 1.00937 0.0
N764 N 0.58824 0.54655 0.90227 0.0
N765 N 0.64466 0.52246 0.96809 0.0
H766 H 0.96674 0.62789 0.06752 0.0
H767 H 0.03677 0.5958 0.75589 0.0
H768 H 0.01139 0.67931 0.97223 0.0
H769 H 0.9837 0.54975 0.84123 0.0
H770 H 0.03135 0.62522 0.8389 0.0
H771 H 0.97741 0.59757 0.99211 0.0
C772 C 0.97936 0.63264 0.03163 0.0
C773 C 0.9883 0.65622 0.0267 0.0
C774 C 0.02092 0.60866 0.83945 0.0
C775 C 1.0002 0.62147 0.93822 0.0
C776 C 0.02397 0.59182 0.79188 0.0
C777 C 0.01062 0.57014 0.79093 0.0
C778 C 1.00454 0.60385 0.88708 0.0
C779 C 0.99437 0.56614 0.83935 0.0
C780 C 0.98525 0.61535 0.98798 0.0
C781 C 1.00435 0.66133 0.97851 0.0
N782 N 0.99185 0.58271 0.88508 0.0
N783 N 1.00959 0.64421 0.93586 0.0
H784 H 0.16649 0.17092 0.38613 0.0
H785 H 0.0389 0.15872 0.54224 0.0
H786 H 0.12374 0.22982 0.44265 0.0
H787 H 0.07475 0.10053 0.45669 0.0
H788 H 0.07517 0.1836 0.53163 0.0
H789 H 0.13901 0.14389 0.44042 0.0
C790 C 0.15176 0.17838 0.4107 0.0
C791 C 0.14691 0.20278 0.40613 0.0
C792 C 0.07518 0.16532 0.51565 0.0
C793 C 0.1157 0.17185 0.46952 0.0
C794 C 0.05445 0.15113 0.52158 0.0
C795 C 0.05361 0.12768 0.49905 0.0
C796 C 0.09524 0.15604 0.48688 0.0
C797 C 0.07437 0.11875 0.47294 0.0
C798 C 0.13608 0.16285 0.44184 0.0
C799 C 0.12827 0.21127 0.44258 0.0
N800 N 0.09425 0.13301 0.467 0.0
N801 N 0.11306 0.19579 0.47125 0.0
H802 H 0.31027 0.12548 0.46014 0.0
H803 H 0.43825 0.07141 0.46304 0.0
H804 H 0.37085 0.15805 0.36794 0.0
H805 H 0.37595 0.03898 0.54755 0.0
H806 H 0.41692 0.10854 0.45173 0.0
H807 H 0.33733 0.10164 0.52177 0.0
C808 C 0.32933 0.12846 0.45437 0.0
C809 C 0.33817 0.14302 0.40617 0.0
C810 C 0.40801 0.09341 0.47346 0.0
C811 C 0.36925 0.1148 0.47528 0.0
C812 C 0.42005 0.0721 0.47911 0.0
C813 C 0.40859 0.05187 0.50462 0.0
C814 C 0.38426 0.09447 0.49309 0.0
C815 C 0.38536 0.05405 0.52694 0.0
C816 C 0.34483 0.11442 0.48917 0.0
C817 C 0.36315 0.14619 0.40239 0.0
N818 N 0.37385 0.07485 0.51979 0.0
N819 N 0.37781 0.1315 0.43471 0.0
H820 H 0.68885 0.33949 0.32018 0.0
H821 H 0.6274 0.39811 0.60222 0.0
H822 H 0.65059 0.3014 0.46381 0.0
H823 H 0.66617 0.43762 0.46211 0.0
H824 H 0.64768 0.36238 0.57216 0.0
H825 H 0.69271 0.37403 0.38932 0.0
C826 C 0.68185 0.33811 0.36679 0.0
C827 C 0.66855 0.31777 0.38508 0.0
C828 C 0.65218 0.37895 0.54876 0.0
C829 C 0.67281 0.35723 0.4643 0.0
C830 C 0.64068 0.39951 0.5663 0.0
C831 C 0.64444 0.42081 0.53322 0.0
C832 C 0.66719 0.37958 0.49701 0.0
C833 C 0.66197 0.42136 0.4872 0.0
C834 C 0.68409 0.35786 0.40634 0.0
C835 C 0.66065 0.31674 0.44687 0.0
N836 N 0.67223 0.40091 0.46931 0.0
N837 N 0.66233 0.33641 0.48356 0.0
H838 H 0.16581 0.37599 0.39075 0.0
H839 H 0.08852 0.48555 0.29757 0.0
H840 H 0.14545 0.39397 0.20133 0.0
H841 H 0.10337 0.46446 0.48798 0.0
H842 H 0.10127 0.44669 0.26241 0.0
H843 H 0.13425 0.40121 0.42805 0.0
C844 C 0.15421 0.38456 0.35692 0.0
C845 C 0.159 0.38359 0.29295 0.0
C846 C 0.10156 0.45047 0.31197 0.0
C847 C 0.12327 0.41285 0.33516 0.0
C848 C 0.09432 0.47272 0.33203 0.0
C849 C 0.09568 0.47863 0.39565 0.0
C850 C 0.11042 0.43408 0.35576 0.0
C851 C 0.10305 0.4611 0.43822 0.0
C852 C 0.13627 0.39911 0.37823 0.0
C853 C 0.1429 0.3945 0.25122 0.0
N854 N 0.11048 0.4398 0.41747 0.0
N855 N 0.12627 0.40928 0.27309 0.0
H856 H 0.92071 0.7968 0.88735 0.0
H857 H 0.96755 0.93032 0.87144 0.0
H858 H 0.87977 0.85579 0.95197 0.0
H859 H 1.00751 0.86907 0.81965 0.0
H860 H 0.93157 0.90472 0.87914 0.0
H861 H 0.94638 0.82433 0.83297 0.0
C862 C 0.9164 0.81541 0.88921 0.0
C863 C 0.89858 0.82383 0.92844 0.0
C864 C 0.94815 0.89695 0.86543 0.0
C865 C 0.92923 0.8558 0.86705 0.0
C866 C 0.96879 0.91147 0.86192 0.0
C867 C 0.99074 0.90171 0.84628 0.0
C868 C 0.94946 0.87249 0.85325 0.0
C869 C 0.99106 0.87736 0.83219 0.0
C870 C 0.93158 0.83129 0.85836 0.0
C871 C 0.89418 0.84837 0.92616 0.0
N872 N 0.97081 0.86358 0.83666 0.0
N873 N 0.90996 0.8636 0.89806 0.0
H874 H 0.68995 0.86527 0.91621 0.0
H875 H 0.58243 0.95177 0.96028 0.0
H876 H 0.65861 0.87928 0.09414 0.0
H877 H 0.64073 0.96026 0.83202 0.0
H878 H 0.59752 0.91282 0.98991 0.0
H879 H 0.65637 0.88473 0.86453 0.0
C880 C 0.67551 0.87139 0.94438 0.0
C881 C 0.67803 0.87225 1.00976 0.0
C882 C 0.60652 0.92312 0.95419 0.0
C883 C 0.63964 0.89405 0.95116 0.0
C884 C 0.59824 0.94556 0.93793 0.0
C885 C 0.61041 0.95976 0.89393 0.0
C886 C 0.62691 0.91463 0.92567 0.0
C887 C 0.63041 0.95017 0.8655 0.0
C888 C 0.65643 0.88263 0.9148 0.0
C889 C 0.65812 0.87923 0.04363 0.0
N890 N 0.63806 0.92835 0.88216 0.0
N891 N 0.64014 0.89079 1.01405 0.0
H892 H 0.37843 0.71483 0.86034 0.0
H893 H 0.37506 0.58126 0.897 0.0
H894 H 0.34565 0.67994 0.01788 0.0
H895 H 0.38494 0.61535 0.71832 0.0
H896 H 0.35359 0.61545 0.93167 0.0
H897 H 0.3696 0.67973 0.79776 0.0
C898 C 0.36858 0.70018 0.88157 0.0
C899 C 0.36385 0.70006 0.94574 0.0
C900 C 0.35986 0.61528 0.88424 0.0
C901 C 0.35461 0.65915 0.87422 0.0
C902 C 0.37212 0.59555 0.86408 0.0
C903 C 0.38275 0.59569 0.80527 0.0
C904 C 0.35876 0.63555 0.84604 0.0
C905 C 0.37808 0.61488 0.76513 0.0
C906 C 0.36369 0.67989 0.84554 0.0
C907 C 0.35082 0.68041 0.96952 0.0
N908 N 0.36708 0.63435 0.7869 0.0
N909 N 0.34744 0.6604 0.93444 0.0
H910 H 0.80956 0.61459 0.86381 0.0
H911 H 0.9383 0.56079 0.86927 0.0
H912 H 0.87139 0.64937 0.95255 0.0
H913 H 0.87603 0.52794 0.77809 0.0
H914 H 0.91611 0.59712 0.8828 0.0
H915 H 0.83579 0.58866 0.8091 0.0
C916 C 0.8287 0.6175 0.87024 0.0
C917 C 0.83816 0.63371 0.91503 0.0
C918 C 0.90735 0.58206 0.85931 0.0
C919 C 0.86834 0.6031 0.85406 0.0
C920 C 0.9199 0.56119 0.85235 0.0
C921 C 0.9088 0.5411 0.82379 0.0
C922 C 0.88345 0.58285 0.83791 0.0
C923 C 0.88522 0.54292 0.80081 0.0
C924 C 0.84372 0.60229 0.83949 0.0
C925 C 0.86321 0.63648 0.92047 0.0
N926 N 0.87324 0.56332 0.80906 0.0
N927 N 0.87743 0.62079 0.89193 0.0
H928 H 0.09854 0.1787 0.92176 0.0
H929 H 1.00239 0.08952 0.75533 0.0
H930 H 0.02287 0.18246 0.95506 0.0
H931 H 0.07697 0.07349 0.78099 0.0
H932 H 1.00939 0.12631 0.81545 0.0
H933 H 0.09067 0.14355 0.85714 0.0
C934 C 0.08019 0.17219 0.9158 0.0
C935 C 0.06142 0.18358 0.94568 0.0
C936 C 0.02422 0.11477 0.8079 0.0
C937 C 0.05224 0.14303 0.86927 0.0
C938 C 0.0203 0.09371 0.77332 0.0
C939 C 0.03911 0.07813 0.76293 0.0
C940 C 0.04726 0.12072 0.83174 0.0
C941 C 0.06187 0.08475 0.78777 0.0
C942 C 0.07574 0.15203 0.87845 0.0
C943 C 0.038 0.17448 0.93345 0.0
N944 N 0.06529 0.10548 0.82059 0.0
N945 N 0.0341 0.15477 0.89652 0.0
H946 H 0.34712 0.07722 0.87002 0.0
H947 H 0.44927 0.9878 0.78753 0.0
H948 H 0.36173 0.01925 0.99581 0.0
H949 H 0.45804 0.06364 0.76244 0.0
H950 H 0.41249 0.99432 0.84569 0.0
H951 H 0.382 0.06716 0.80989 0.0
C952 C 0.35744 0.06211 0.88472 0.0
C953 C 0.35153 0.04942 0.93934 0.0
C954 C 0.42249 0.00949 0.82745 0.0
C955 C 0.39168 0.03748 0.86884 0.0
C956 C 0.44346 1.00583 0.79404 0.0
C957 C 0.45695 0.02522 0.77008 0.0
C958 C 0.41437 0.03268 0.83536 0.0
C959 C 0.44843 0.04815 0.78027 0.0
C960 C 0.37747 0.05648 0.85026 0.0
C961 C 0.36545 0.02961 0.95436 0.0
N962 N 0.42764 0.0512 0.81132 0.0
N963 N 0.38491 0.02431 0.91955 0.0
H964 H 0.55733 0.32965 0.87807 0.0
H965 H 0.49797 0.45703 0.84708 0.0
H966 H 0.51114 0.3579 1.01603 0.0
H967 H 0.53851 0.42584 0.70069 0.0
H968 H 0.5003 0.41992 0.90594 0.0
H969 H 0.54765 0.3628 0.80847 0.0
C970 C 0.54451 0.34246 0.89284 0.0
C971 C 0.53475 0.34079 0.95262 0.0
C972 C 0.50856 0.42107 0.86078 0.0
C973 C 0.52426 0.37952 0.87398 0.0
C974 C 0.50731 0.44237 0.827 0.0
C975 C 0.51817 0.4448 0.76861 0.0
C976 C 0.52092 0.40185 0.83662 0.0
C977 C 0.52987 0.42494 0.74536 0.0
C978 C 0.53918 0.36156 0.85335 0.0
C979 C 0.51871 0.35823 0.96997 0.0
N980 N 0.53108 0.40446 0.77953 0.0
N981 N 0.51422 0.37699 0.93127 0.0
H982 H 0.21389 0.49601 0.84849 0.0
H983 H 0.07019 0.4808 0.82962 0.0
H984 H 0.17003 0.46398 0.99036 0.0
H985 H 0.11018 0.51487 0.68267 0.0
H986 H 0.10735 0.47517 0.88801 0.0
H987 H 0.17709 0.50454 0.78691 0.0
C988 C 0.19656 0.49104 0.86689 0.0
C989 C 0.19499 0.47911 0.92435 0.0
C990 C 0.10815 0.48388 0.84299 0.0
C991 C 0.15302 0.48854 0.85447 0.0
C992 C 0.0868 0.48706 0.80931 0.0
C993 C 0.08686 0.49833 0.75081 0.0
C994 C 0.13007 0.49197 0.81849 0.0
C995 C 0.10917 0.50604 0.72749 0.0
C996 C 0.17559 0.49575 0.83169 0.0
C997 C 0.1721 0.47297 0.94601 0.0
N998 N 0.12986 0.50273 0.76134 0.0
N999 N 0.15219 0.47763 0.91116 0.0
H1000 H 0.9491 0.8466 0.40752 0.0
H1001 H 0.03705 0.92803 0.61606 0.0
H1002 H 0.0253 0.83904 0.38927 0.0
H1003 H 0.97599 0.95653 0.51832 0.0
H1004 H 0.03125 0.89073 0.55605 0.0
H1005 H 0.95684 0.88181 0.47174 0.0
C1006 C 0.96755 0.85226 0.41651 0.0
C1007 C 0.98654 0.83992 0.39034 0.0
C1008 C 0.01914 0.90516 0.54798 0.0
C1009 C 0.99542 0.88024 0.46767 0.0
C1010 C 0.0223 0.9264 0.58247 0.0
C1011 C 1.00696 0.94556 0.57236 0.0
C1012 C 1.00005 0.90269 0.5044 0.0
C1013 C 0.98829 0.94238 0.52774 0.0
C1014 C 0.97187 0.87241 0.45382 0.0
C1015 C 1.00999 0.84784 0.40751 0.0
N1016 N 0.98522 0.92137 0.49613 0.0
N1017 N 0.01377 0.86747 0.44493 0.0
H1018 H 0.70718 0.01399 0.44445 0.0
H1019 H 0.56724 0.97927 0.48896 0.0
H1020 H 0.6656 0.96597 0.32507 0.0
H1021 H 0.60861 0.01991 0.62646 0.0
H1022 H 0.60302 0.97637 0.42642 0.0
H1023 H 0.67141 0.01906 0.50854 0.0
C1024 C 0.69056 1.00469 0.43135 0.0
C1025 C 0.68962 0.98932 0.37943 0.0
C1026 C 0.60439 0.98591 0.47032 0.0
C1027 C 0.64851 0.995 0.45268 0.0
C1028 C 0.58383 0.98755 0.50634 0.0
C1029 C 0.58465 0.99979 0.56365 0.0
C1030 C 0.62625 0.9967 0.49092 0.0
C1031 C 0.60694 0.01018 0.58293 0.0
C1032 C 0.67016 0.00746 0.4682 0.0
C1033 C 0.66745 0.97771 0.36505 0.0
N1034 N 0.62672 0.00845 0.54677 0.0
N1035 N 0.64803 0.98076 0.40117 0.0
H1036 H 0.5322 0.66303 0.31904 0.0
H1037 H 0.48508 0.59166 0.61808 0.0
H1038 H 0.47617 0.68691 0.43632 0.0
H1039 H 0.54907 0.57273 0.52325 0.0
H1040 H 0.48299 0.62756 0.55397 0.0
H1041 H 0.54095 0.63158 0.39582 0.0
C1042 C 0.52232 0.66218 0.36192 0.0
C1043 C 0.50355 0.67776 0.37147 0.0
C1044 C 0.49763 0.61568 0.54735 0.0
C1045 C 0.51281 0.64129 0.45851 0.0
C1046 C 0.4988 0.59507 0.58401 0.0
C1047 C 0.51725 0.57895 0.57624 0.0
C1048 C 0.51486 0.62032 0.50164 0.0
C1049 C 0.53451 0.58456 0.53116 0.0
C1050 C 0.52708 0.64402 0.40541 0.0
C1051 C 0.49089 0.67539 0.42721 0.0
N1052 N 0.53278 0.60458 0.49531 0.0
N1053 N 0.49552 0.65742 0.46796 0.0
H1054 H 0.84898 0.59543 0.4702 0.0
H1055 H 0.94357 0.49547 0.55069 0.0
H1056 H 0.8512 0.53091 0.36177 0.0
H1057 H 0.95782 0.57037 0.58313 0.0
H1058 H 0.90535 0.50503 0.49904 0.0
H1059 H 0.88372 0.58278 0.53156 0.0
C1060 C 0.85656 0.5784 0.45973 0.0
C1061 C 0.84733 0.56445 0.40964 0.0
C1062 C 0.91684 0.51933 0.51761 0.0
C1063 C 0.88721 0.54974 0.48077 0.0
C1064 C 0.93865 0.51393 0.54722 0.0
C1065 C 0.95408 0.53218 0.57103 0.0
C1066 C 0.91005 0.54312 0.51297 0.0
C1067 C 0.94666 0.55574 0.56509 0.0
C1068 C 0.87648 0.57126 0.49477 0.0
C1069 C 0.85764 0.54228 0.39972 0.0
N1070 N 0.92517 0.5605 0.53705 0.0
N1071 N 0.87715 0.53568 0.43458 0.0
loop_
_geom_bond_atom_site_label_1
_geom_bond_atom_site_label_2
_geom_bond_distance
_geom_bond_site_symmetry_2
_ccdc_geom_bond_type
C0 C1 1.391 . S
C0 C4 1.391 . S
C0 H42 0.948 . S
C1 C0 1.391 . S
C1 C2 1.391 . S
C2 C1 1.391 . S
C2 H58 0.947 . S
C2 C59 1.392 . S
C3 C4 1.391 . S
C3 C7 1.397 . S
C3 C59 1.419 . S
C4 C0 1.391 . S
C4 C3 1.391 . S
C4 C5 1.399 . S
C5 C4 1.399 . S
C5 C8 1.396 . S
C5 C17 1.453 . S
C5 C18 1.684 . S
H6 C30 0.948 . S
C7 C3 1.397 . S
C7 C8 1.394 . S
C7 C26 1.723 . S
C8 C5 1.396 . S
C8 C7 1.394 . S
C8 C38 1.723 . S
H9 C32 0.947 . S
H10 C33 0.948 . S
H11 C39 0.982 . S
H12 C40 0.979 . S
H13 C40 0.980 . S
H14 C40 0.983 . S
H15 C39 0.979 . S
H16 C39 0.977 . S
C17 C5 1.453 . S
C17 H46 0.982 . S
C17 H47 0.979 . S
C17 H48 0.977 . S
C18 C5 1.684 . S
C18 H43 0.979 . S
C18 H44 0.980 . S
C18 H45 0.983 . S
C19 C20 1.391 . S
C19 C24 1.391 . S
C19 H49 0.948 . S
C20 C19 1.391 . S
C20 C21 1.391 . S
C21 C20 1.391 . S
C21 C22 1.392 . S
C21 H50 0.947 1_554 S
C22 C21 1.392 . S
C22 C23 1.419 . S
C22 H51 0.948 . S
C23 C22 1.419 . S
C23 C24 1.391 . S
C23 C27 1.397 . S
C24 C19 1.391 . S
C24 C23 1.391 . S
C24 C25 1.399 . S
C25 C24 1.399 . S
C25 C26 1.396 . S
C25 C28 1.453 . S
C25 C29 1.684 . S
C26 C7 1.723 . S
C26 C25 1.396 . S
C26 C27 1.394 . S
C27 C23 1.397 . S
C27 C26 1.394 . S
C27 C37 1.723 . S
C28 C25 1.453 . S
C28 H52 0.982 . S
C28 H53 0.979 . S
C28 H54 0.977 . S
C29 C25 1.684 . S
C29 H55 0.979 . S
C29 H56 0.980 . S
C29 H57 0.983 . S
C30 H6 0.948 . S
C30 C31 1.391 . S
C30 C35 1.391 . S
C31 C30 1.391 . S
C31 C32 1.391 . S
C32 H9 0.947 . S
C32 C31 1.391 . S
C32 C33 1.392 . S
C33 H10 0.948 . S
C33 C32 1.392 . S
C33 C34 1.419 . S
C34 C33 1.419 . S
C34 C35 1.391 . S
C34 C38 1.397 . S
C35 C30 1.391 . S
C35 C34 1.391 . S
C35 C36 1.399 . S
C36 C35 1.399 . S
C36 C37 1.396 . S
C36 C39 1.453 . S
C36 C40 1.684 . S
C37 C27 1.723 . S
C37 C36 1.396 . S
C37 C38 1.394 . S
C38 C8 1.723 . S
C38 C34 1.397 . S
C38 C37 1.394 . S
C39 H11 0.982 . S
C39 H15 0.979 . S
C39 H16 0.977 . S
C39 C36 1.453 . S
C40 H12 0.979 . S
C40 H13 0.980 . S
C40 H14 0.983 . S
C40 C36 1.684 . S
H41 C59 0.948 . S
H42 C0 0.948 . S
H43 C18 0.979 . S
H44 C18 0.980 . S
H45 C18 0.983 . S
H46 C17 0.982 . S
H47 C17 0.979 . S
H48 C17 0.977 . S
H49 C19 0.948 . S
H50 C21 0.947 1_556 S
H51 C22 0.948 . S
H52 C28 0.982 . S
H53 C28 0.979 . S
H54 C28 0.977 . S
H55 C29 0.979 . S
H56 C29 0.980 . S
H57 C29 0.983 . S
H58 C2 0.947 . S
C59 C2 1.392 . S
C59 C3 1.419 . S
C59 H41 0.948 . S
C60 C61 1.391 . S
C60 C64 1.391 . S
C60 H102 0.948 . S
C61 C60 1.391 . S
C61 C62 1.391 . S
C62 C61 1.391 . S
C62 H118 0.947 . S
C62 C119 1.392 . S
C63 C64 1.391 . S
C63 C67 1.397 . S
C63 C119 1.419 . S
C64 C60 1.391 . S
C64 C63 1.391 . S
C64 C65 1.399 . S
C65 C64 1.399 . S
C65 C68 1.396 . S
C65 C77 1.453 . S
C65 C78 1.684 . S
H66 C90 0.948 . S
C67 C63 1.397 . S
C67 C68 1.394 . S
C67 C86 1.723 . S
C68 C65 1.396 . S
C68 C67 1.394 . S
C68 C98 1.723 . S
H69 C92 0.947 . S
H70 C93 0.948 . S
H71 C99 0.982 . S
H72 C100 0.979 . S
H73 C100 0.980 . S
H74 C100 0.983 . S
H75 C99 0.979 . S
H76 C99 0.977 . S
C77 C65 1.453 . S
C77 H106 0.982 . S
C77 H107 0.979 . S
C77 H108 0.977 . S
C78 C65 1.684 . S
C78 H103 0.979 . S
C78 H104 0.980 . S
C78 H105 0.983 . S
C79 C80 1.391 . S
C79 C84 1.391 . S
C79 H109 0.948 . S
C80 C79 1.391 . S
C80 C81 1.391 . S
C81 C80 1.391 . S
C81 C82 1.392 . S
C81 H110 0.947 . S
C82 C81 1.392 . S
C82 C83 1.419 . S
C82 H111 0.948 . S
C83 C82 1.419 . S
C83 C84 1.391 . S
C83 C87 1.397 . S
C84 C79 1.391 . S
C84 C83 1.391 . S
C84 C85 1.399 . S
C85 C84 1.399 . S
C85 C86 1.396 . S
C85 C88 1.453 . S
C85 C89 1.684 . S
C86 C67 1.723 . S
C86 C85 1.396 . S
C86 C87 1.394 . S
C87 C83 1.397 . S
C87 C86 1.394 . S
C87 C97 1.723 . S
C88 C85 1.453 . S
C88 H112 0.982 . S
C88 H113 0.979 . S
C88 H114 0.977 . S
C89 C85 1.684 . S
C89 H115 0.979 . S
C89 H116 0.980 . S
C89 H117 0.983 . S
C90 H66 0.948 . S
C90 C91 1.391 . S
C90 C95 1.391 . S
C91 C90 1.391 . S
C91 C92 1.391 . S
C92 H69 0.947 . S
C92 C91 1.391 . S
C92 C93 1.392 . S
C93 H70 0.948 . S
C93 C92 1.392 . S
C93 C94 1.419 . S
C94 C93 1.419 . S
C94 C95 1.391 . S
C94 C98 1.397 . S
C95 C90 1.391 . S
C95 C94 1.391 . S
C95 C96 1.399 . S
C96 C95 1.399 . S
C96 C97 1.396 . S
C96 C99 1.453 . S
C96 C100 1.684 . S
C97 C87 1.723 . S
C97 C96 1.396 . S
C97 C98 1.394 . S
C98 C68 1.723 . S
C98 C94 1.397 . S
C98 C97 1.394 . S
C99 H71 0.982 . S
C99 H75 0.979 . S
C99 H76 0.977 . S
C99 C96 1.453 . S
C100 H72 0.979 . S
C100 H73 0.980 . S
C100 H74 0.983 . S
C100 C96 1.684 . S
H101 C119 0.948 . S
H102 C60 0.948 . S
H103 C78 0.979 . S
H104 C78 0.980 . S
H105 C78 0.983 . S
H106 C77 0.982 . S
H107 C77 0.979 . S
H108 C77 0.977 . S
H109 C79 0.948 . S
H110 C81 0.947 . S
H111 C82 0.948 . S
H112 C88 0.982 . S
H113 C88 0.979 . S
H114 C88 0.977 . S
H115 C89 0.979 . S
H116 C89 0.980 . S
H117 C89 0.983 . S
H118 C62 0.947 . S
C119 C62 1.392 . S
C119 C63 1.419 . S
C119 H101 0.948 . S
C120 C121 1.391 . S
C120 C124 1.391 . S
C120 H162 0.948 . S
C121 C120 1.391 . S
C121 C122 1.391 . S
C122 C121 1.391 . S
C122 H178 0.947 . S
C122 C179 1.392 . S
C123 C124 1.391 . S
C123 C127 1.397 . S
C123 C179 1.419 . S
C124 C120 1.391 . S
C124 C123 1.391 . S
C124 C125 1.399 . S
C125 C124 1.399 . S
C125 C128 1.396 . S
C125 C137 1.453 . S
C125 C138 1.684 . S
H126 C150 0.948 . S
C127 C123 1.397 . S
C127 C128 1.394 . S
C127 C146 1.723 . S
C128 C125 1.396 . S
C128 C127 1.394 . S
C128 C158 1.723 . S
H129 C152 0.947 . S
H130 C153 0.948 . S
H131 C159 0.982 . S
H132 C160 0.979 . S
H133 C160 0.980 . S
H134 C160 0.983 . S
H135 C159 0.979 . S
H136 C159 0.977 . S
C137 C125 1.453 . S
C137 H166 0.982 . S
C137 H167 0.979 . S
C137 H168 0.977 . S
C138 C125 1.684 . S
C138 H163 0.979 . S
C138 H164 0.980 . S
C138 H165 0.983 . S
C139 C140 1.391 . S
C139 C144 1.391 . S
C139 H169 0.948 . S
C140 C139 1.391 . S
C140 C141 1.391 . S
C141 C140 1.391 . S
C141 C142 1.392 . S
C141 H170 0.947 . S
C142 C141 1.392 . S
C142 C143 1.419 . S
C142 H171 0.948 . S
C143 C142 1.419 . S
C143 C144 1.391 . S
C143 C147 1.397 . S
C144 C139 1.391 . S
C144 C143 1.391 . S
C144 C145 1.399 . S
C145 C144 1.399 . S
C145 C146 1.396 . S
C145 C148 1.453 . S
C145 C149 1.684 . S
C146 C127 1.723 . S
C146 C145 1.396 . S
C146 C147 1.394 . S
C147 C143 1.397 . S
C147 C146 1.394 . S
C147 C157 1.723 . S
C148 C145 1.453 . S
C148 H172 0.982 . S
C148 H173 0.979 . S
C148 H174 0.977 . S
C149 C145 1.684 . S
C149 H175 0.979 . S
C149 H176 0.980 . S
C149 H177 0.983 . S
C150 H126 0.948 . S
C150 C151 1.391 . S
C150 C155 1.391 . S
C151 C150 1.391 . S
C151 C152 1.391 . S
C152 H129 0.947 . S
C152 C151 1.391 . S
C152 C153 1.392 . S
C153 H130 0.948 . S
C153 C152 1.392 . S
C153 C154 1.419 . S
C154 C153 1.419 . S
C154 C155 1.391 . S
C154 C158 1.397 . S
C155 C150 1.391 . S
C155 C154 1.391 . S
C155 C156 1.399 . S
C156 C155 1.399 . S
C156 C157 1.396 . S
C156 C159 1.453 . S
C156 C160 1.684 . S
C157 C147 1.723 . S
C157 C156 1.396 . S
C157 C158 1.394 . S
C158 C128 1.723 . S
C158 C154 1.397 . S
C158 C157 1.394 . S
C159 H131 0.982 . S
C159 H135 0.979 . S
C159 H136 0.977 . S
C159 C156 1.453 . S
C160 H132 0.979 . S
C160 H133 0.980 . S
C160 H134 0.983 . S
C160 C156 1.684 . S
H161 C179 0.948 . S
H162 C120 0.948 . S
H163 C138 0.979 . S
H164 C138 0.980 . S
H165 C138 0.983 . S
H166 C137 0.982 . S
H167 C137 0.979 . S
H168 C137 0.977 . S
H169 C139 0.948 . S
H170 C141 0.947 . S
H171 C142 0.948 . S
H172 C148 0.982 . S
H173 C148 0.979 . S
H174 C148 0.977 . S
H175 C149 0.979 . S
H176 C149 0.980 . S
H177 C149 0.983 . S
H178 C122 0.947 . S
C179 C122 1.392 . S
C179 C123 1.419 . S
C179 H161 0.948 . S
C180 C181 1.391 . S
C180 C184 1.391 . S
C180 H222 0.948 . S
C181 C180 1.391 . S
C181 C182 1.391 . S
C182 C181 1.391 . S
C182 H238 0.947 . S
C182 C239 1.392 . S
C183 C184 1.391 . S
C183 C187 1.397 . S
C183 C239 1.419 . S
C184 C180 1.391 . S
C184 C183 1.391 . S
C184 C185 1.399 . S
C185 C184 1.399 . S
C185 C188 1.396 . S
C185 C197 1.453 . S
C185 C198 1.684 . S
H186 C210 0.948 . S
C187 C183 1.397 . S
C187 C188 1.394 . S
C187 C206 1.723 . S
C188 C185 1.396 . S
C188 C187 1.394 . S
C188 C218 1.723 . S
H189 C212 0.947 . S
H190 C213 0.948 . S
H191 C219 0.982 . S
H192 C220 0.979 . S
H193 C220 0.980 . S
H194 C220 0.983 . S
H195 C219 0.979 . S
H196 C219 0.977 . S
C197 C185 1.453 . S
C197 H226 0.982 . S
C197 H227 0.979 . S
C197 H228 0.977 . S
C198 C185 1.684 . S
C198 H223 0.979 . S
C198 H224 0.980 . S
C198 H225 0.983 . S
C199 C200 1.391 . S
C199 C204 1.391 . S
C199 H229 0.948 . S
C200 C199 1.391 . S
C200 C201 1.391 . S
C201 C200 1.391 . S
C201 C202 1.392 . S
C201 H230 0.947 1_554 S
C202 C201 1.392 . S
C202 C203 1.419 . S
C202 H231 0.948 . S
C203 C202 1.419 . S
C203 C204 1.391 . S
C203 C207 1.397 . S
C204 C199 1.391 . S
C204 C203 1.391 . S
C204 C205 1.399 . S
C205 C204 1.399 . S
C205 C206 1.396 . S
C205 C208 1.453 . S
C205 C209 1.684 . S
C206 C187 1.723 . S
C206 C205 1.396 . S
C206 C207 1.394 . S
C207 C203 1.397 . S
C207 C206 1.394 . S
C207 C217 1.723 . S
C208 C205 1.453 . S
C208 H232 0.982 . S
C208 H233 0.979 . S
C208 H234 0.977 . S
C209 C205 1.684 . S
C209 H235 0.979 . S
C209 H236 0.980 . S
C209 H237 0.983 . S
C210 H186 0.948 . S
C210 C211 1.391 . S
C210 C215 1.391 . S
C211 C210 1.391 . S
C211 C212 1.391 . S
C212 H189 0.947 . S
C212 C211 1.391 . S
C212 C213 1.392 . S
C213 H190 0.948 . S
C213 C212 1.392 . S
C213 C214 1.419 . S
C214 C213 1.419 . S
C214 C215 1.391 . S
C214 C218 1.397 . S
C215 C210 1.391 . S
C215 C214 1.391 . S
C215 C216 1.399 . S
C216 C215 1.399 . S
C216 C217 1.396 . S
C216 C219 1.453 . S
C216 C220 1.684 . S
C217 C207 1.723 . S
C217 C216 1.396 . S
C217 C218 1.394 . S
C218 C188 1.723 . S
C218 C214 1.397 . S
C218 C217 1.394 . S
C219 H191 0.982 . S
C219 H195 0.979 . S
C219 H196 0.977 . S
C219 C216 1.453 . S
C220 H192 0.979 . S
C220 H193 0.980 . S
C220 H194 0.983 . S
C220 C216 1.684 . S
H221 C239 0.948 . S
H222 C180 0.948 . S
H223 C198 0.979 . S
H224 C198 0.980 . S
H225 C198 0.983 . S
H226 C197 0.982 . S
H227 C197 0.979 . S
H228 C197 0.977 . S
H229 C199 0.948 . S
H230 C201 0.947 1_556 S
H231 C202 0.948 . S
H232 C208 0.982 . S
H233 C208 0.979 . S
H234 C208 0.977 . S
H235 C209 0.979 . S
H236 C209 0.980 . S
H237 C209 0.983 . S
H238 C182 0.947 . S
C239 C182 1.392 . S
C239 C183 1.419 . S
C239 H221 0.948 . S
C240 C241 1.391 . S
C240 C244 1.391 . S
C240 H282 0.948 . S
C241 C240 1.391 . S
C241 C242 1.391 . S
C242 C241 1.391 . S
C242 H298 0.947 . S
C242 C299 1.392 . S
C243 C244 1.391 . S
C243 C247 1.397 . S
C243 C299 1.419 . S
C244 C240 1.391 . S
C244 C243 1.391 . S
C244 C245 1.399 . S
C245 C244 1.399 . S
C245 C248 1.396 . S
C245 C257 1.453 1_554 S
C245 C258 1.684 1_554 S
H246 C270 0.948 . S
C247 C243 1.397 . S
C247 C248 1.394 . S
C247 C266 1.723 . S
C248 C245 1.396 . S
C248 C247 1.394 . S
C248 C278 1.723 . S
H249 C272 0.947 . S
H250 C273 0.948 . S
H251 C279 0.982 . S
H252 C280 0.977 1_556 S
H253 C280 0.980 . S
H254 C280 0.983 1_556 S
H255 C279 0.979 1_556 S
H256 C279 0.977 . S
C257 C245 1.453 1_556 S
C257 H286 0.982 1_556 S
C257 H287 0.979 . S
C257 H288 0.977 . S
C258 C245 1.684 1_556 S
C258 H283 0.979 . S
C258 H284 0.980 . S
C258 H285 0.983 . S
C259 C260 1.391 . S
C259 C264 1.391 . S
C259 H289 0.948 . S
C260 C259 1.391 . S
C260 C261 1.391 . S
C261 C260 1.391 . S
C261 C262 1.392 . S
C261 H290 0.947 . S
C262 C261 1.392 . S
C262 C263 1.419 . S
C262 H291 0.948 . S
C263 C262 1.419 . S
C263 C264 1.391 . S
C263 C267 1.397 . S
C264 C259 1.391 . S
C264 C263 1.391 . S
C264 C265 1.399 . S
C265 C264 1.399 . S
C265 C266 1.396 . S
C265 C268 1.453 . S
C265 C269 1.684 . S
C266 C247 1.723 . S
C266 C265 1.396 . S
C266 C267 1.394 . S
C267 C263 1.397 . S
C267 C266 1.394 . S
C267 C277 1.723 . S
C268 C265 1.453 . S
C268 H292 0.982 . S
C268 H293 0.979 . S
C268 H294 0.977 . S
C269 C265 1.684 . S
C269 H295 0.979 . S
C269 H296 0.980 . S
C269 H297 0.983 . S
C270 H246 0.948 . S
C270 C271 1.391 . S
C270 C275 1.391 . S
C271 C270 1.391 . S
C271 C272 1.391 . S
C272 H249 0.947 . S
C272 C271 1.391 . S
C272 C273 1.392 . S
C273 H250 0.948 . S
C273 C272 1.392 . S
C273 C274 1.419 . S
C274 C273 1.419 . S
C274 C275 1.391 . S
C274 C278 1.397 1_556 S
C275 C270 1.391 . S
C275 C274 1.391 . S
C275 C276 1.399 . S
C276 C275 1.399 . S
C276 C277 1.396 1_556 S
C276 C279 1.453 1_556 S
C276 C280 1.684 1_556 S
C277 C267 1.723 . S
C277 C276 1.396 1_554 S
C277 C278 1.394 . S
C278 C248 1.723 . S
C278 C274 1.397 1_554 S
C278 C277 1.394 . S
C279 H251 0.982 . S
C279 H255 0.979 1_554 S
C279 H256 0.977 . S
C279 C276 1.453 1_554 S
C280 H252 0.977 1_554 S
C280 H253 0.980 . S
C280 H254 0.983 1_554 S
C280 C276 1.684 1_554 S
H281 C299 0.948 . S
H282 C240 0.948 . S
H283 C258 0.979 . S
H284 C258 0.980 . S
H285 C258 0.983 . S
H286 C257 0.982 1_554 S
H287 C257 0.979 . S
H288 C257 0.977 . S
H289 C259 0.948 . S
H290 C261 0.947 . S
H291 C262 0.948 . S
H292 C268 0.982 . S
H293 C268 0.979 . S
H294 C268 0.977 . S
H295 C269 0.979 . S
H296 C269 0.980 . S
H297 C269 0.983 . S
H298 C242 0.947 . S
C299 C242 1.392 . S
C299 C243 1.419 . S
C299 H281 0.948 . S
C300 C301 1.391 . S
C300 C304 1.391 . S
C300 H342 0.948 . S
C301 C300 1.391 . S
C301 C302 1.391 . S
C302 C301 1.391 . S
C302 H358 0.947 . S
C302 C359 1.392 . S
C303 C304 1.391 . S
C303 C307 1.397 . S
C303 C359 1.419 . S
C304 C300 1.391 . S
C304 C303 1.391 . S
C304 C305 1.399 . S
C305 C304 1.399 . S
C305 C308 1.396 . S
C305 C317 1.453 . S
C305 C318 1.684 . S
H306 C330 0.948 . S
C307 C303 1.397 . S
C307 C308 1.394 . S
C307 C326 1.710 1_554 S
C308 C305 1.396 . S
C308 C307 1.394 . S
C308 C338 1.723 . S
H309 C332 0.947 . S
H310 C333 0.948 . S
H311 C339 0.982 . S
H312 C340 0.979 . S
H313 C340 0.980 . S
H314 C340 0.983 . S
H315 C339 0.979 . S
H316 C339 0.977 . S
C317 C305 1.453 . S
C317 H346 0.982 . S
C317 H347 0.979 . S
C317 H348 0.977 . S
C318 C305 1.684 . S
C318 H343 0.979 . S
C318 H344 0.980 . S
C318 H345 0.983 . S
C319 C320 1.391 . S
C319 C324 1.391 . S
C319 H349 0.948 . S
C320 C319 1.391 . S
C320 C321 1.391 . S
C321 C320 1.391 . S
C321 C322 1.392 . S
C321 H350 0.947 . S
C322 C321 1.392 . S
C322 C323 1.419 . S
C322 H351 0.948 . S
C323 C322 1.419 . S
C323 C324 1.391 . S
C323 C327 1.397 . S
C324 C319 1.391 . S
C324 C323 1.391 . S
C324 C325 1.399 . S
C325 C324 1.399 . S
C325 C326 1.406 . S
C325 C328 1.453 . S
C325 C329 1.684 . S
C326 C307 1.710 1_556 S
C326 C325 1.406 . S
C326 C327 1.400 . S
C327 C323 1.397 . S
C327 C326 1.400 . S
C327 C337 1.719 1_556 S
C328 C325 1.453 . S
C328 H352 0.982 . S
C328 H353 0.979 . S
C328 H354 0.977 1_556 S
C329 C325 1.684 . S
C329 H355 0.979 . S
C329 H356 0.980 1_556 S
C329 H357 0.983 . S
C330 H306 0.948 . S
C330 C331 1.391 . S
C330 C335 1.391 . S
C331 C330 1.391 . S
C331 C332 1.391 . S
C332 H309 0.947 . S
C332 C331 1.391 . S
C332 C333 1.392 . S
C333 H310 0.948 . S
C333 C332 1.392 . S
C333 C334 1.419 . S
C334 C333 1.419 . S
C334 C335 1.391 . S
C334 C338 1.397 . S
C335 C330 1.391 . S
C335 C334 1.391 . S
C335 C336 1.399 1_554 S
C336 C335 1.399 1_556 S
C336 C337 1.394 1_556 S
C336 C339 1.453 . S
C336 C340 1.684 . S
C337 C327 1.719 1_554 S
C337 C336 1.394 1_554 S
C337 C338 1.403 . S
C338 C308 1.723 . S
C338 C334 1.397 . S
C338 C337 1.403 . S
C339 H311 0.982 . S
C339 H315 0.979 . S
C339 H316 0.977 . S
C339 C336 1.453 . S
C340 H312 0.979 . S
C340 H313 0.980 . S
C340 H314 0.983 . S
C340 C336 1.684 . S
H341 C359 0.948 . S
H342 C300 0.948 . S
H343 C318 0.979 . S
H344 C318 0.980 . S
H345 C318 0.983 . S
H346 C317 0.982 . S
H347 C317 0.979 . S
H348 C317 0.977 . S
H349 C319 0.948 . S
H350 C321 0.947 . S
H351 C322 0.948 . S
H352 C328 0.982 . S
H353 C328 0.979 . S
H354 C328 0.977 1_554 S
H355 C329 0.979 . S
H356 C329 0.980 1_554 S
H357 C329 0.983 . S
H358 C302 0.947 . S
C359 C302 1.392 . S
C359 C303 1.419 . S
C359 H341 0.948 . S
C360 C361 1.391 . S
C360 C364 1.391 . S
C360 H402 0.948 . S
C361 C360 1.391 . S
C361 C362 1.391 . S
C362 C361 1.391 . S
C362 H418 0.947 . S
C362 C419 1.392 . S
C363 C364 1.391 . S
C363 C367 1.397 . S
C363 C419 1.419 . S
C364 C360 1.391 . S
C364 C363 1.391 . S
C364 C365 1.399 . S
C365 C364 1.399 . S
C365 C368 1.396 . S
C365 C377 1.453 . S
C365 C378 1.684 . S
H366 C390 0.948 . S
C367 C363 1.397 . S
C367 C368 1.394 . S
C367 C386 1.723 1_556 S
C368 C365 1.396 . S
C368 C367 1.394 . S
C368 C398 1.723 1_556 S
H369 C392 0.947 . S
H370 C393 0.948 . S
H371 C399 0.982 . S
H372 C400 0.979 . S
H373 C400 0.980 . S
H374 C400 0.983 . S
H375 C399 0.979 . S
H376 C399 0.977 . S
C377 C365 1.453 . S
C377 H406 0.982 . S
C377 H407 0.979 . S
C377 H408 0.977 . S
C378 C365 1.684 . S
C378 H403 0.979 . S
C378 H404 0.980 . S
C378 H405 0.983 . S
C379 C380 1.391 . S
C379 C384 1.391 . S
C379 H409 0.948 . S
C380 C379 1.391 . S
C380 C381 1.391 . S
C381 C380 1.391 . S
C381 C382 1.392 . S
C381 H410 0.947 . S
C382 C381 1.392 . S
C382 C383 1.419 . S
C382 H411 0.948 . S
C383 C382 1.419 . S
C383 C384 1.391 . S
C383 C387 1.397 . S
C384 C379 1.391 . S
C384 C383 1.391 . S
C384 C385 1.399 . S
C385 C384 1.399 . S
C385 C386 1.396 . S
C385 C388 1.453 . S
C385 C389 1.684 . S
C386 C367 1.723 1_554 S
C386 C385 1.396 . S
C386 C387 1.394 . S
C387 C383 1.397 . S
C387 C386 1.394 . S
C387 C397 1.723 . S
C388 C385 1.453 . S
C388 H412 0.982 . S
C388 H413 0.979 . S
C388 H414 0.977 1_554 S
C389 C385 1.684 . S
C389 H415 0.979 . S
C389 H416 0.980 1_554 S
C389 H417 0.983 . S
C390 H366 0.948 . S
C390 C391 1.391 . S
C390 C395 1.391 . S
C391 C390 1.391 . S
C391 C392 1.391 1_554 S
C392 H369 0.947 . S
C392 C391 1.391 1_556 S
C392 C393 1.392 . S
C393 H370 0.948 . S
C393 C392 1.392 . S
C393 C394 1.419 1_556 S
C394 C393 1.419 1_554 S
C394 C395 1.391 . S
C394 C398 1.397 . S
C395 C390 1.391 . S
C395 C394 1.391 . S
C395 C396 1.399 . S
C396 C395 1.399 . S
C396 C397 1.396 . S
C396 C399 1.453 . S
C396 C400 1.684 . S
C397 C387 1.723 . S
C397 C396 1.396 . S
C397 C398 1.394 . S
C398 C368 1.723 1_554 S
C398 C394 1.397 . S
C398 C397 1.394 . S
C399 H371 0.982 . S
C399 H375 0.979 . S
C399 H376 0.977 . S
C399 C396 1.453 . S
C400 H372 0.979 . S
C400 H373 0.980 . S
C400 H374 0.983 . S
C400 C396 1.684 . S
H401 C419 0.948 . S
H402 C360 0.948 . S
H403 C378 0.979 . S
H404 C378 0.980 . S
H405 C378 0.983 . S
H406 C377 0.982 . S
H407 C377 0.979 . S
H408 C377 0.977 . S
H409 C379 0.948 . S
H410 C381 0.947 . S
H411 C382 0.948 . S
H412 C388 0.982 . S
H413 C388 0.979 . S
H414 C388 0.977 1_556 S
H415 C389 0.979 . S
H416 C389 0.980 1_556 S
H417 C389 0.983 . S
H418 C362 0.947 . S
C419 C362 1.392 . S
C419 C363 1.419 . S
C419 H401 0.948 . S
C420 C421 1.391 . S
C420 C424 1.391 . S
C420 H462 0.948 . S
C421 C420 1.391 . S
C421 C422 1.391 . S
C422 C421 1.391 . S
C422 H478 0.947 . S
C422 C479 1.392 . S
C423 C424 1.391 . S
C423 C427 1.397 1_556 S
C423 C479 1.419 . S
C424 C420 1.391 . S
C424 C423 1.391 . S
C424 C425 1.399 . S
C425 C424 1.399 . S
C425 C428 1.396 1_556 S
C425 C437 1.453 . S
C425 C438 1.684 . S
H426 C450 0.948 . S
C427 C423 1.397 1_554 S
C427 C428 1.394 . S
C427 C446 1.723 . S
C428 C425 1.396 1_554 S
C428 C427 1.394 . S
C428 C458 1.723 . S
H429 C452 0.947 . S
H430 C453 0.948 1_556 S
H431 C459 0.982 . S
H432 C460 0.979 . S
H433 C460 0.980 . S
H434 C460 0.983 . S
H435 C459 0.979 . S
H436 C459 0.977 . S
C437 C425 1.453 . S
C437 H466 0.982 . S
C437 H467 0.979 . S
C437 H468 0.977 . S
C438 C425 1.684 . S
C438 H463 0.979 . S
C438 H464 0.980 . S
C438 H465 0.983 . S
C439 C440 1.391 . S
C439 C444 1.391 . S
C439 H469 0.948 . S
C440 C439 1.391 . S
C440 C441 1.391 . S
C441 C440 1.391 . S
C441 C442 1.392 . S
C441 H470 0.947 . S
C442 C441 1.392 . S
C442 C443 1.419 . S
C442 H471 0.948 . S
C443 C442 1.419 . S
C443 C444 1.391 . S
C443 C447 1.397 . S
C444 C439 1.391 . S
C444 C443 1.391 . S
C444 C445 1.399 . S
C445 C444 1.399 . S
C445 C446 1.396 . S
C445 C448 1.453 . S
C445 C449 1.684 . S
C446 C427 1.723 . S
C446 C445 1.396 . S
C446 C447 1.394 . S
C447 C443 1.397 . S
C447 C446 1.394 . S
C447 C457 1.723 . S
C448 C445 1.453 . S
C448 H472 0.982 . S
C448 H473 0.979 . S
C448 H474 0.977 . S
C449 C445 1.684 . S
C449 H475 0.979 . S
C449 H476 0.980 . S
C449 H477 0.983 . S
C450 H426 0.948 . S
C450 C451 1.391 . S
C450 C455 1.391 . S
C451 C450 1.391 . S
C451 C452 1.391 . S
C452 H429 0.947 . S
C452 C451 1.391 . S
C452 C453 1.392 . S
C453 H430 0.948 1_554 S
C453 C452 1.392 . S
C453 C454 1.419 . S
C454 C453 1.419 . S
C454 C455 1.391 . S
C454 C458 1.397 . S
C455 C450 1.391 . S
C455 C454 1.391 . S
C455 C456 1.399 . S
C456 C455 1.399 . S
C456 C457 1.396 . S
C456 C459 1.453 . S
C456 C460 1.684 . S
C457 C447 1.723 . S
C457 C456 1.396 . S
C457 C458 1.394 . S
C458 C428 1.723 . S
C458 C454 1.397 . S
C458 C457 1.394 . S
C459 H431 0.982 . S
C459 H435 0.979 . S
C459 H436 0.977 . S
C459 C456 1.453 . S
C460 H432 0.979 . S
C460 H433 0.980 . S
C460 H434 0.983 . S
C460 C456 1.684 . S
H461 C479 0.948 . S
H462 C420 0.948 . S
H463 C438 0.979 . S
H464 C438 0.980 . S
H465 C438 0.983 . S
H466 C437 0.982 . S
H467 C437 0.979 . S
H468 C437 0.977 . S
H469 C439 0.948 . S
H470 C441 0.947 . S
H471 C442 0.948 . S
H472 C448 0.982 . S
H473 C448 0.979 . S
H474 C448 0.977 . S
H475 C449 0.979 . S
H476 C449 0.980 . S
H477 C449 0.983 . S
H478 C422 0.947 . S
C479 C422 1.392 . S
C479 C423 1.419 . S
C479 H461 0.948 . S
Eu480 C489 2.828 . S
Eu480 O491 2.392 . S
Eu480 O493 2.418 1_545 S
Eu480 O498 2.373 1_655 S
Eu480 O501 2.488 . S
Eu480 O502 2.471 . S
Eu480 O503 2.349 1_655 S
Eu481 O490 2.373 1_455 S
Eu481 O494 2.488 . S
Eu481 O495 2.471 . S
Eu481 O496 2.349 . S
Eu481 O499 2.392 1_565 S
Eu481 O500 2.418 1_565 S
Eu481 C510 2.828 . S
C482 O500 1.244 . S
C482 O503 1.265 . S
C483 C484 1.379 1_655 S
C483 C487 1.373 . S
C483 C489 1.505 . S
C484 C483 1.379 1_455 S
C484 C486 1.369 . S
C484 H512 0.930 . S
C485 C487 1.383 . S
C485 C488 1.370 1_655 S
C485 H513 0.930 . S
C486 C484 1.369 . S
C486 C488 1.401 . S
C486 H514 0.930 . S
C487 C483 1.373 . S
C487 C485 1.383 . S
C487 H515 0.931 . S
C488 C485 1.370 1_455 S
C488 C486 1.401 . S
C489 Eu480 2.828 . S
C489 C483 1.505 . S
C489 O501 1.249 . S
C489 O502 1.244 . S
O490 Eu481 2.373 1_655 S
O490 C492 1.258 . S
O491 Eu480 2.392 . S
O491 C492 1.242 1_545 S
C492 O490 1.258 . S
C492 O491 1.242 1_565 S
O493 Eu480 2.418 1_565 S
O493 C497 1.244 . S
O494 Eu481 2.488 . S
O494 C510 1.249 . S
O495 Eu481 2.471 . S
O495 C510 1.244 . S
O496 Eu481 2.349 . S
O496 C497 1.265 1_455 S
C497 O493 1.244 . S
C497 O496 1.265 1_655 S
O498 Eu480 2.373 1_455 S
O498 C511 1.258 . S
O499 Eu481 2.392 1_545 S
O499 C511 1.242 . S
O500 Eu481 2.418 1_545 S
O500 C482 1.244 . S
O501 Eu480 2.488 . S
O501 C489 1.249 . S
O502 Eu480 2.471 . S
O502 C489 1.244 . S
O503 Eu480 2.349 1_455 S
O503 C482 1.265 . S
C504 C505 1.379 . S
C504 C508 1.373 . S
C504 C510 1.505 . S
C505 C504 1.379 . S
C505 C507 1.369 . S
C505 H516 0.930 1_455 S
C506 C508 1.383 . S
C506 C509 1.382 . S
C506 H517 0.930 . S
C507 C505 1.369 . S
C507 C509 1.392 . S
C507 H518 0.930 1_455 S
C508 C504 1.373 . S
C508 C506 1.383 . S
C508 H519 0.931 . S
C509 C506 1.382 . S
C509 C507 1.392 . S
C510 Eu481 2.828 . S
C510 O494 1.249 . S
C510 O495 1.244 . S
C510 C504 1.505 . S
C511 O498 1.258 . S
C511 O499 1.242 . S
H512 C484 0.930 . S
H513 C485 0.930 . S
H514 C486 0.930 . S
H515 C487 0.931 . S
H516 C505 0.930 1_655 S
H517 C506 0.930 . S
H518 C507 0.930 1_655 S
H519 C508 0.931 . S
Eu520 C529 2.828 . S
Eu520 O531 2.392 . S
Eu520 O533 2.418 . S
Eu520 O538 2.373 . S
Eu520 O541 2.488 . S
Eu520 O542 2.471 . S
Eu520 O543 2.349 1_545 S
Eu521 O530 2.373 1_565 S
Eu521 O534 2.488 . S
Eu521 O535 2.471 1_565 S
Eu521 O536 2.349 1_565 S
Eu521 O539 2.392 . S
Eu521 O540 2.418 . S
Eu521 C550 2.828 . S
C522 O540 1.244 . S
C522 O543 1.265 . S
C523 C524 1.379 1_545 S
C523 C527 1.373 . S
C523 C529 1.505 . S
C524 C523 1.379 1_565 S
C524 C526 1.369 . S
C524 H552 0.930 . S
C525 C527 1.383 . S
C525 C528 1.382 . S
C525 H553 0.930 . S
C526 C524 1.369 . S
C526 C528 1.392 1_565 S
C526 H554 0.930 . S
C527 C523 1.373 . S
C527 C525 1.383 . S
C527 H555 0.931 . S
C528 C525 1.382 . S
C528 C526 1.392 1_545 S
C529 Eu520 2.828 . S
C529 C523 1.505 . S
C529 O541 1.249 . S
C529 O542 1.244 . S
O530 Eu521 2.373 1_545 S
O530 C532 1.258 . S
O531 Eu520 2.392 . S
O531 C532 1.242 . S
C532 O530 1.258 . S
C532 O531 1.242 . S
O533 Eu520 2.418 . S
O533 C537 1.244 . S
O534 Eu521 2.488 . S
O534 C550 1.249 . S
O535 Eu521 2.471 1_545 S
O535 C550 1.244 1_545 S
O536 Eu521 2.349 1_545 S
O536 C537 1.265 . S
C537 O533 1.244 . S
C537 O536 1.265 . S
O538 Eu520 2.373 . S
O538 C551 1.258 1_545 S
O539 Eu521 2.392 . S
O539 C551 1.242 . S
O540 Eu521 2.418 . S
O540 C522 1.244 . S
O541 Eu520 2.488 . S
O541 C529 1.249 . S
O542 Eu520 2.471 . S
O542 C529 1.244 . S
O543 Eu520 2.349 1_565 S
O543 C522 1.265 . S
C544 C545 1.379 1_565 S
C544 C548 1.373 . S
C544 C550 1.505 . S
C545 C544 1.379 1_545 S
C545 C547 1.369 . S
C545 H556 0.930 . S
C546 C548 1.383 . S
C546 C549 1.382 . S
C546 H557 0.930 . S
C547 C545 1.369 . S
C547 C549 1.392 1_545 S
C547 H558 0.930 . S
C548 C544 1.373 . S
C548 C546 1.383 . S
C548 H559 0.931 . S
C549 C546 1.382 . S
C549 C547 1.392 1_565 S
C550 Eu521 2.828 . S
C550 O534 1.249 . S
C550 O535 1.244 1_565 S
C550 C544 1.505 . S
C551 O538 1.258 1_565 S
C551 O539 1.242 . S
H552 C524 0.930 . S
H553 C525 0.930 . S
H554 C526 0.930 . S
H555 C527 0.931 . S
H556 C545 0.930 . S
H557 C546 0.930 . S
H558 C547 0.930 . S
H559 C548 0.931 . S
Eu560 C569 2.828 . S
Eu560 O571 2.392 . S
Eu560 O573 2.418 . S
Eu560 O578 2.373 . S
Eu560 O581 2.488 . S
Eu560 O582 2.471 . S
Eu560 O583 2.349 . S
Eu561 O570 2.373 . S
Eu561 O574 2.488 . S
Eu561 O575 2.471 . S
Eu561 O576 2.349 . S
Eu561 O579 2.392 . S
Eu561 O580 2.418 . S
Eu561 C590 2.828 . S
C562 O580 1.244 . S
C562 O583 1.265 . S
C563 C564 1.379 . S
C563 C567 1.373 . S
C563 C569 1.505 . S
C564 C563 1.379 . S
C564 C566 1.369 . S
C564 H592 0.930 . S
C565 C567 1.383 . S
C565 C568 1.382 . S
C565 H593 0.930 . S
C566 C564 1.369 . S
C566 C568 1.392 . S
C566 H594 0.930 . S
C567 C563 1.373 . S
C567 C565 1.383 . S
C567 H595 0.931 . S
C568 C565 1.382 . S
C568 C566 1.392 . S
C569 Eu560 2.828 . S
C569 C563 1.505 . S
C569 O581 1.249 . S
C569 O582 1.244 . S
O570 Eu561 2.373 . S
O570 C572 1.258 . S
O571 Eu560 2.392 . S
O571 C572 1.242 . S
C572 O570 1.258 . S
C572 O571 1.242 . S
O573 Eu560 2.418 . S
O573 C577 1.244 . S
O574 Eu561 2.488 . S
O574 C590 1.249 . S
O575 Eu561 2.471 . S
O575 C590 1.244 . S
O576 Eu561 2.349 . S
O576 C577 1.265 . S
C577 O573 1.244 . S
C577 O576 1.265 . S
O578 Eu560 2.373 . S
O578 C591 1.258 . S
O579 Eu561 2.392 . S
O579 C591 1.242 . S
O580 Eu561 2.418 . S
O580 C562 1.244 . S
O581 Eu560 2.488 . S
O581 C569 1.249 . S
O582 Eu560 2.471 . S
O582 C569 1.244 . S
O583 Eu560 2.349 . S
O583 C562 1.265 . S
C584 C585 1.379 . S
C584 C588 1.373 . S
C584 C590 1.505 . S
C585 C584 1.379 . S
C585 C587 1.369 . S
C585 H596 0.930 . S
C586 C588 1.383 . S
C586 C589 1.382 . S
C586 H597 0.930 . S
C587 C585 1.369 . S
C587 C589 1.392 . S
C587 H598 0.930 . S
C588 C584 1.373 . S
C588 C586 1.383 . S
C588 H599 0.931 . S
C589 C586 1.382 . S
C589 C587 1.392 . S
C590 Eu561 2.828 . S
C590 O574 1.249 . S
C590 O575 1.244 . S
C590 C584 1.505 . S
C591 O578 1.258 . S
C591 O579 1.242 . S
H592 C564 0.930 . S
H593 C565 0.930 . S
H594 C566 0.930 . S
H595 C567 0.931 . S
H596 C585 0.930 . S
H597 C586 0.930 . S
H598 C587 0.930 . S
H599 C588 0.931 . S
Eu600 C609 2.828 . S
Eu600 O611 2.392 . S
Eu600 O613 2.418 1_455 S
Eu600 O618 2.373 . S
Eu600 O621 2.488 . S
Eu600 O622 2.471 . S
Eu600 O623 2.349 . S
Eu601 O610 2.373 . S
Eu601 O614 2.488 . S
Eu601 O615 2.471 . S
Eu601 O616 2.349 . S
Eu601 O619 2.392 1_655 S
Eu601 O620 2.418 1_655 S
Eu601 C630 2.828 . S
C602 O620 1.244 . S
C602 O623 1.265 . S
C603 C604 1.379 . S
C603 C607 1.373 . S
C603 C609 1.505 . S
C604 C603 1.379 . S
C604 C606 1.369 . S
C604 H632 0.930 . S
C605 C607 1.383 . S
C605 C608 1.382 . S
C605 H633 0.930 . S
C606 C604 1.369 . S
C606 C608 1.392 . S
C606 H634 0.930 . S
C607 C603 1.373 . S
C607 C605 1.383 . S
C607 H635 0.931 . S
C608 C605 1.382 . S
C608 C606 1.392 . S
C609 Eu600 2.828 . S
C609 C603 1.505 . S
C609 O621 1.249 . S
C609 O622 1.244 . S
O610 Eu601 2.373 . S
O610 C612 1.258 1_655 S
O611 Eu600 2.392 . S
O611 C612 1.242 . S
C612 O610 1.258 1_455 S
C612 O611 1.242 . S
O613 Eu600 2.418 1_655 S
O613 C617 1.244 . S
O614 Eu601 2.488 . S
O614 C630 1.249 . S
O615 Eu601 2.471 . S
O615 C630 1.244 . S
O616 Eu601 2.349 . S
O616 C617 1.265 . S
C617 O613 1.244 . S
C617 O616 1.265 . S
O618 Eu600 2.373 . S
O618 C631 1.258 . S
O619 Eu601 2.392 1_455 S
O619 C631 1.242 . S
O620 Eu601 2.418 1_455 S
O620 C602 1.244 . S
O621 Eu600 2.488 . S
O621 C609 1.249 . S
O622 Eu600 2.471 . S
O622 C609 1.244 . S
O623 Eu600 2.349 . S
O623 C602 1.265 . S
C624 C625 1.379 . S
C624 C628 1.373 . S
C624 C630 1.505 . S
C625 C624 1.379 . S
C625 C627 1.369 . S
C625 H636 0.930 . S
C626 C628 1.383 . S
C626 C629 1.382 . S
C626 H637 0.930 . S
C627 C625 1.369 . S
C627 C629 1.392 . S
C627 H638 0.930 . S
C628 C624 1.373 . S
C628 C626 1.383 . S
C628 H639 0.931 . S
C629 C626 1.382 . S
C629 C627 1.392 . S
C630 Eu601 2.828 . S
C630 O614 1.249 . S
C630 O615 1.244 . S
C630 C624 1.505 . S
C631 O618 1.258 . S
C631 O619 1.242 . S
H632 C604 0.930 . S
H633 C605 0.930 . S
H634 C606 0.930 . S
H635 C607 0.931 . S
H636 C625 0.930 . S
H637 C626 0.930 . S
H638 C627 0.930 . S
H639 C628 0.931 . S
H640 C646 0.930 . S
H641 C650 0.930 1_565 S
H642 C655 0.929 . S
H643 C653 0.929 . S
H644 C648 0.928 . S
H645 C654 0.929 . S
C646 H640 0.930 . S
C646 C647 1.367 . S
C646 C654 1.378 . S
C647 C646 1.367 . S
C647 C655 1.433 . S
C648 H644 0.928 . S
C648 C650 1.378 . S
C648 C652 1.350 . S
C649 C652 1.463 . S
C649 C654 1.350 . S
C649 N657 1.427 . S
C650 H641 0.930 1_545 S
C650 C648 1.378 . S
C650 C651 1.367 . S
C651 C650 1.367 . S
C651 C653 1.433 . S
C652 C648 1.350 . S
C652 C649 1.463 . S
C652 N656 1.427 . S
C653 H643 0.929 . S
C653 C651 1.433 . S
C653 N656 1.384 . S
C654 H645 0.929 . S
C654 C646 1.378 . S
C654 C649 1.350 . S
C655 H642 0.929 . S
C655 C647 1.433 . S
C655 N657 1.384 . S
N656 C652 1.427 . S
N656 C653 1.384 . S
N657 C649 1.427 . S
N657 C655 1.384 . S
H658 C664 0.930 . S
H659 C668 0.930 . S
H660 C673 0.929 . S
H661 C671 0.929 . S
H662 C666 0.929 . S
H663 C672 0.929 . S
C664 H658 0.930 . S
C664 C665 1.367 . S
C664 C672 1.378 . S
C665 C664 1.367 . S
C665 C673 1.433 . S
C666 H662 0.929 . S
C666 C668 1.378 . S
C666 C670 1.350 . S
C667 C670 1.463 . S
C667 C672 1.350 . S
C667 N675 1.427 . S
C668 H659 0.930 . S
C668 C666 1.378 . S
C668 C669 1.367 . S
C669 C668 1.367 . S
C669 C671 1.433 . S
C670 C666 1.350 . S
C670 C667 1.463 . S
C670 N674 1.427 . S
C671 H661 0.929 . S
C671 C669 1.433 . S
C671 N674 1.384 . S
C672 H663 0.929 . S
C672 C664 1.378 . S
C672 C667 1.350 . S
C673 H660 0.929 . S
C673 C665 1.433 . S
C673 N675 1.384 . S
N674 C670 1.427 . S
N674 C671 1.384 . S
N675 C667 1.427 . S
N675 C673 1.384 . S
H676 C682 0.930 . S
H677 C686 0.930 . S
H678 C691 0.929 . S
H679 C689 0.929 . S
H680 C684 0.929 . S
H681 C690 0.929 . S
C682 H676 0.930 . S
C682 C683 1.367 . S
C682 C690 1.378 . S
C683 C682 1.367 . S
C683 C691 1.433 . S
C684 H680 0.929 . S
C684 C686 1.378 . S
C684 C688 1.350 . S
C685 C688 1.463 . S
C685 C690 1.350 . S
C685 N693 1.427 . S
C686 H677 0.930 . S
C686 C684 1.378 . S
C686 C687 1.367 . S
C687 C686 1.367 . S
C687 C689 1.433 . S
C688 C684 1.350 . S
C688 C685 1.463 . S
C688 N692 1.427 . S
C689 H679 0.929 . S
C689 C687 1.433 . S
C689 N692 1.384 . S
C690 H681 0.929 . S
C690 C682 1.378 . S
C690 C685 1.350 . S
C691 H678 0.929 . S
C691 C683 1.433 . S
C691 N693 1.384 . S
N692 C688 1.427 . S
N692 C689 1.384 . S
N693 C685 1.427 . S
N693 C691 1.384 . S
H694 C700 0.930 . S
H695 C704 0.930 . S
H696 C709 0.929 . S
H697 C707 0.929 . S
H698 C702 0.929 . S
H699 C708 0.929 . S
C700 H694 0.930 . S
C700 C701 1.367 . S
C700 C708 1.378 . S
C701 C700 1.367 . S
C701 C709 1.433 . S
C702 H698 0.929 . S
C702 C704 1.378 . S
C702 C706 1.350 . S
C703 C706 1.463 . S
C703 C708 1.350 . S
C703 N711 1.427 . S
C704 H695 0.930 . S
C704 C702 1.378 . S
C704 C705 1.367 . S
C705 C704 1.367 . S
C705 C707 1.433 . S
C706 C702 1.350 . S
C706 C703 1.463 . S
C706 N710 1.427 . S
C707 H697 0.929 . S
C707 C705 1.433 . S
C707 N710 1.384 . S
C708 H699 0.929 . S
C708 C700 1.378 . S
C708 C703 1.350 . S
C709 H696 0.929 . S
C709 C701 1.433 . S
C709 N711 1.384 . S
N710 C706 1.427 . S
N710 C707 1.384 . S
N711 C703 1.427 . S
N711 C709 1.384 . S
H712 C718 0.930 . S
H713 C722 0.930 1_545 S
H714 C727 0.929 . S
H715 C725 0.929 . S
H716 C720 0.911 1_545 S
H717 C726 0.929 1_556 S
C718 H712 0.930 . S
C718 C719 1.367 . S
C718 C726 1.378 . S
C719 C718 1.367 . S
C719 C727 1.433 . S
C720 H716 0.911 1_565 S
C720 C722 1.378 . S
C720 C724 1.350 . S
C721 C724 1.463 1_554 S
C721 C726 1.350 . S
C721 N729 1.427 . S
C722 H713 0.930 1_565 S
C722 C720 1.378 . S
C722 C723 1.367 . S
C723 C722 1.367 . S
C723 C725 1.433 . S
C724 C720 1.350 . S
C724 C721 1.463 1_556 S
C724 N728 1.427 . S
C725 H715 0.929 . S
C725 C723 1.433 . S
C725 N728 1.384 . S
C726 H717 0.929 1_554 S
C726 C718 1.378 . S
C726 C721 1.350 . S
C727 H714 0.929 . S
C727 C719 1.433 . S
C727 N729 1.384 . S
N728 C724 1.427 . S
N728 C725 1.384 . S
N729 C721 1.427 . S
N729 C727 1.384 . S
H730 C736 0.930 . S
H731 C740 0.930 . S
H732 C745 0.929 . S
H733 C743 0.929 . S
H734 C738 0.929 . S
H735 C744 0.929 . S
C736 H730 0.930 . S
C736 C737 1.367 . S
C736 C744 1.378 1_554 S
C737 C736 1.367 . S
C737 C745 1.433 . S
C738 H734 0.929 . S
C738 C740 1.378 . S
C738 C742 1.350 . S
C739 C742 1.463 . S
C739 C744 1.350 . S
C739 N747 1.427 1_556 S
C740 H731 0.930 . S
C740 C738 1.378 . S
C740 C741 1.367 . S
C741 C740 1.367 . S
C741 C743 1.433 . S
C742 C738 1.350 . S
C742 C739 1.463 . S
C742 N746 1.427 . S
C743 H733 0.929 . S
C743 C741 1.433 . S
C743 N746 1.384 . S
C744 H735 0.929 . S
C744 C736 1.378 1_556 S
C744 C739 1.350 . S
C745 H732 0.929 . S
C745 C737 1.433 . S
C745 N747 1.384 . S
N746 C742 1.427 . S
N746 C743 1.384 . S
N747 C739 1.427 1_554 S
N747 C745 1.384 . S
H748 C754 0.930 . S
H749 C758 0.930 . S
H750 C763 0.929 . S
H751 C761 0.929 . S
H752 C756 0.929 . S
H753 C762 0.929 . S
C754 H748 0.930 . S
C754 C755 1.367 . S
C754 C762 1.378 1_554 S
C755 C754 1.367 . S
C755 C763 1.433 . S
C756 H752 0.929 . S
C756 C758 1.378 . S
C756 C760 1.350 . S
C757 C760 1.463 . S
C757 C762 1.350 . S
C757 N765 1.427 . S
C758 H749 0.930 . S
C758 C756 1.378 . S
C758 C759 1.367 . S
C759 C758 1.367 . S
C759 C761 1.433 . S
C760 C756 1.350 . S
C760 C757 1.463 . S
C760 N764 1.427 . S
C761 H751 0.929 . S
C761 C759 1.433 . S
C761 N764 1.384 . S
C762 H753 0.929 . S
C762 C754 1.378 1_556 S
C762 C757 1.350 . S
C763 H750 0.929 . S
C763 C755 1.433 . S
C763 N765 1.384 1_554 S
N764 C760 1.427 . S
N764 C761 1.384 . S
N765 C757 1.427 . S
N765 C763 1.384 1_556 S
H766 C772 0.930 . S
H767 C776 0.930 . S
H768 C781 0.929 . S
H769 C779 0.929 . S
H770 C774 0.929 . S
H771 C780 0.929 . S
C772 H766 0.930 . S
C772 C773 1.367 . S
C772 C780 1.378 . S
C773 C772 1.367 . S
C773 C781 1.433 . S
C774 H770 0.929 . S
C774 C776 1.378 . S
C774 C778 1.350 1_455 S
C775 C778 1.463 . S
C775 C780 1.350 1_556 S
C775 N783 1.427 1_556 S
C776 H767 0.930 . S
C776 C774 1.378 . S
C776 C777 1.367 1_455 S
C777 C776 1.367 1_655 S
C777 C779 1.433 . S
C778 C774 1.350 1_655 S
C778 C775 1.463 . S
C778 N782 1.427 . S
C779 H769 0.929 . S
C779 C777 1.433 . S
C779 N782 1.384 . S
C780 H771 0.929 . S
C780 C772 1.378 . S
C780 C775 1.350 1_554 S
C781 H768 0.929 . S
C781 C773 1.433 . S
C781 N783 1.384 . S
N782 C778 1.427 . S
N782 C779 1.384 . S
N783 C775 1.427 1_554 S
N783 C781 1.384 . S
H784 C790 0.930 . S
H785 C794 0.930 . S
H786 C799 0.929 . S
H787 C797 0.929 1_655 S
H788 C792 0.929 . S
H789 C798 0.929 . S
C790 H784 0.930 . S
C790 C791 1.367 . S
C790 C798 1.378 . S
C791 C790 1.367 . S
C791 C799 1.433 . S
C792 H788 0.929 . S
C792 C794 1.378 . S
C792 C796 1.350 . S
C793 C796 1.463 . S
C793 C798 1.350 . S
C793 N801 1.427 . S
C794 H785 0.930 . S
C794 C792 1.378 . S
C794 C795 1.367 1_455 S
C795 C794 1.367 1_655 S
C795 C797 1.433 1_655 S
C796 C792 1.350 . S
C796 C793 1.463 . S
C796 N800 1.427 . S
C797 H787 0.929 1_455 S
C797 C795 1.433 1_455 S
C797 N800 1.384 . S
C798 H789 0.929 . S
C798 C790 1.378 . S
C798 C793 1.350 . S
C799 H786 0.929 . S
C799 C791 1.433 . S
C799 N801 1.384 . S
N800 C796 1.427 . S
N800 C797 1.384 . S
N801 C793 1.427 . S
N801 C799 1.384 . S
H802 C808 0.930 . S
H803 C812 0.930 . S
H804 C817 0.929 . S
H805 C815 0.929 . S
H806 C810 0.929 . S
H807 C816 0.929 . S
C808 H802 0.930 . S
C808 C809 1.367 . S
C808 C816 1.378 . S
C809 C808 1.367 . S
C809 C817 1.433 . S
C810 H806 0.929 . S
C810 C812 1.378 . S
C810 C814 1.350 . S
C811 C814 1.463 . S
C811 C816 1.350 . S
C811 N819 1.427 . S
C812 H803 0.930 . S
C812 C810 1.378 . S
C812 C813 1.367 1_545 S
C813 C812 1.367 1_565 S
C813 C815 1.433 . S
C814 C810 1.350 . S
C814 C811 1.463 . S
C814 N818 1.427 1_545 S
C815 H805 0.929 . S
C815 C813 1.433 . S
C815 N818 1.384 . S
C816 H807 0.929 . S
C816 C808 1.378 . S
C816 C811 1.350 . S
C817 H804 0.929 . S
C817 C809 1.433 . S
C817 N819 1.384 . S
N818 C814 1.427 1_565 S
N818 C815 1.384 . S
N819 C811 1.427 . S
N819 C817 1.384 . S
H820 C826 0.930 . S
H821 C830 0.930 . S
H822 C835 0.929 . S
H823 C833 0.929 . S
H824 C828 0.929 . S
H825 C834 0.929 . S
C826 H820 0.930 . S
C826 C827 1.367 . S
C826 C834 1.378 . S
C827 C826 1.367 . S
C827 C835 1.433 . S
C828 H824 0.929 . S
C828 C830 1.378 . S
C828 C832 1.350 . S
C829 C832 1.463 . S
C829 C834 1.350 . S
C829 N837 1.427 . S
C830 H821 0.930 . S
C830 C828 1.378 . S
C830 C831 1.367 . S
C831 C830 1.367 . S
C831 C833 1.433 . S
C832 C828 1.350 . S
C832 C829 1.463 . S
C832 N836 1.427 . S
C833 H823 0.929 . S
C833 C831 1.433 . S
C833 N836 1.384 . S
C834 H825 0.929 . S
C834 C826 1.378 . S
C834 C829 1.350 . S
C835 H822 0.929 . S
C835 C827 1.433 . S
C835 N837 1.384 . S
N836 C832 1.427 . S
N836 C833 1.384 . S
N837 C829 1.427 . S
N837 C835 1.384 . S
H838 C844 0.930 . S
H839 C848 0.930 . S
H840 C853 0.929 . S
H841 C851 0.929 . S
H842 C846 0.929 . S
H843 C852 0.929 . S
C844 H838 0.930 . S
C844 C845 1.367 . S
C844 C852 1.378 . S
C845 C844 1.367 . S
C845 C853 1.433 . S
C846 H842 0.929 . S
C846 C848 1.378 . S
C846 C850 1.350 . S
C847 C850 1.463 . S
C847 C852 1.350 . S
C847 N855 1.427 . S
C848 H839 0.930 . S
C848 C846 1.378 . S
C848 C849 1.367 . S
C849 C848 1.367 . S
C849 C851 1.433 . S
C850 C846 1.350 . S
C850 C847 1.463 . S
C850 N854 1.427 . S
C851 H841 0.929 . S
C851 C849 1.433 . S
C851 N854 1.384 . S
C852 H843 0.929 . S
C852 C844 1.378 . S
C852 C847 1.350 . S
C853 H840 0.929 . S
C853 C845 1.433 . S
C853 N855 1.384 . S
N854 C850 1.427 . S
N854 C851 1.384 . S
N855 C847 1.427 . S
N855 C853 1.384 . S
H856 C862 0.930 . S
H857 C866 0.930 . S
H858 C871 0.929 1_556 S
H859 C869 0.929 . S
H860 C864 0.929 . S
H861 C870 0.929 1_455 S
C862 H856 0.930 . S
C862 C863 1.367 . S
C862 C870 1.378 . S
C863 C862 1.367 . S
C863 C871 1.433 . S
C864 H860 0.929 . S
C864 C866 1.378 . S
C864 C868 1.350 . S
C865 C868 1.463 1_554 S
C865 C870 1.350 . S
C865 N873 1.427 1_554 S
C866 H857 0.930 . S
C866 C864 1.378 . S
C866 C867 1.367 1_655 S
C867 C866 1.367 1_455 S
C867 C869 1.433 1_556 S
C868 C864 1.350 . S
C868 C865 1.463 1_556 S
C868 N872 1.427 1_656 S
C869 H859 0.929 . S
C869 C867 1.433 1_554 S
C869 N872 1.384 . S
C870 H861 0.929 1_655 S
C870 C862 1.378 . S
C870 C865 1.350 . S
C871 H858 0.929 1_554 S
C871 C863 1.433 . S
C871 N873 1.384 1_554 S
N872 C868 1.427 1_454 S
N872 C869 1.384 . S
N873 C865 1.427 1_556 S
N873 C871 1.384 1_556 S
H874 C880 0.930 . S
H875 C884 0.930 . S
H876 C889 0.929 . S
H877 C887 0.929 . S
H878 C882 0.929 1_554 S
H879 C888 0.929 . S
C880 H874 0.930 . S
C880 C881 1.367 . S
C880 C888 1.378 1_554 S
C881 C880 1.367 . S
C881 C889 1.433 . S
C882 H878 0.929 1_556 S
C882 C884 1.378 . S
C882 C886 1.350 1_545 S
C883 C886 1.463 . S
C883 C888 1.350 . S
C883 N891 1.427 1_556 S
C884 H875 0.930 . S
C884 C882 1.378 . S
C884 C885 1.367 . S
C885 C884 1.367 . S
C885 C887 1.433 1_545 S
C886 C882 1.350 1_565 S
C886 C883 1.463 . S
C886 N890 1.427 . S
C887 H877 0.929 . S
C887 C885 1.433 1_565 S
C887 N890 1.384 . S
C888 H879 0.929 . S
C888 C880 1.378 1_556 S
C888 C883 1.350 . S
C889 H876 0.929 . S
C889 C881 1.433 . S
C889 N891 1.384 . S
N890 C886 1.427 . S
N890 C887 1.384 . S
N891 C883 1.427 1_554 S
N891 C889 1.384 . S
H892 C898 0.930 . S
H893 C902 0.930 . S
H894 C907 0.929 . S
H895 C905 0.929 . S
H896 C900 0.929 . S
H897 C906 0.929 . S
C898 H892 0.930 . S
C898 C899 1.367 1_556 S
C898 C906 1.378 . S
C899 C898 1.367 1_554 S
C899 C907 1.433 . S
C900 H896 0.929 . S
C900 C902 1.378 . S
C900 C904 1.350 . S
C901 C904 1.463 . S
C901 C906 1.350 . S
C901 N909 1.427 1_556 S
C902 H893 0.930 . S
C902 C900 1.378 . S
C902 C903 1.367 . S
C903 C902 1.367 . S
C903 C905 1.433 . S
C904 C900 1.350 . S
C904 C901 1.463 . S
C904 N908 1.427 . S
C905 H895 0.929 . S
C905 C903 1.433 . S
C905 N908 1.384 . S
C906 H897 0.929 . S
C906 C898 1.378 . S
C906 C901 1.350 . S
C907 H894 0.929 . S
C907 C899 1.433 . S
C907 N909 1.384 . S
N908 C904 1.427 . S
N908 C905 1.384 . S
N909 C901 1.427 1_554 S
N909 C907 1.384 . S
H910 C916 0.930 . S
H911 C920 0.930 . S
H912 C925 0.929 . S
H913 C923 0.929 1_554 S
H914 C918 0.929 . S
H915 C924 0.929 . S
C916 H910 0.930 . S
C916 C917 1.367 . S
C916 C924 1.378 . S
C917 C916 1.367 . S
C917 C925 1.433 1_554 S
C918 H914 0.929 . S
C918 C920 1.378 . S
C918 C922 1.350 . S
C919 C922 1.463 . S
C919 C924 1.350 1_556 S
C919 N927 1.427 . S
C920 H911 0.930 . S
C920 C918 1.378 . S
C920 C921 1.367 . S
C921 C920 1.367 . S
C921 C923 1.433 . S
C922 C918 1.350 . S
C922 C919 1.463 . S
C922 N926 1.427 1_556 S
C923 H913 0.929 1_556 S
C923 C921 1.433 . S
C923 N926 1.384 1_556 S
C924 H915 0.929 . S
C924 C916 1.378 . S
C924 C919 1.350 1_554 S
C925 H912 0.929 . S
C925 C917 1.433 1_556 S
C925 N927 1.384 . S
N926 C922 1.427 1_554 S
N926 C923 1.384 1_554 S
N927 C919 1.427 . S
N927 C925 1.384 . S
H928 C934 0.930 . S
H929 C938 0.930 . S
H930 C943 0.929 . S
H931 C941 0.929 . S
H932 C936 0.929 . S
H933 C942 0.929 . S
C934 H928 0.930 . S
C934 C935 1.367 . S
C934 C942 1.378 . S
C935 C934 1.367 . S
C935 C943 1.433 . S
C936 H932 0.929 . S
C936 C938 1.378 . S
C936 C940 1.350 . S
C937 C940 1.463 . S
C937 C942 1.350 . S
C937 N945 1.427 . S
C938 H929 0.930 . S
C938 C936 1.378 . S
C938 C939 1.367 . S
C939 C938 1.367 . S
C939 C941 1.433 . S
C940 C936 1.350 . S
C940 C937 1.463 . S
C940 N944 1.427 . S
C941 H931 0.929 . S
C941 C939 1.433 . S
C941 N944 1.384 . S
C942 H933 0.929 . S
C942 C934 1.378 . S
C942 C937 1.350 . S
C943 H930 0.929 . S
C943 C935 1.433 . S
C943 N945 1.384 . S
N944 C940 1.427 . S
N944 C941 1.384 . S
N945 C937 1.427 . S
N945 C943 1.384 . S
H946 C952 0.930 . S
H947 C956 0.930 . S
H948 C961 0.929 . S
H949 C959 0.929 . S
H950 C954 0.929 . S
H951 C960 0.929 . S
C952 H946 0.930 . S
C952 C953 1.367 . S
C952 C960 1.378 . S
C953 C952 1.367 . S
C953 C961 1.433 . S
C954 H950 0.929 . S
C954 C956 1.378 . S
C954 C958 1.350 . S
C955 C958 1.463 . S
C955 C960 1.350 . S
C955 N963 1.427 . S
C956 H947 0.930 . S
C956 C954 1.378 . S
C956 C957 1.367 . S
C957 C956 1.367 . S
C957 C959 1.433 . S
C958 C954 1.350 . S
C958 C955 1.463 . S
C958 N962 1.427 . S
C959 H949 0.929 . S
C959 C957 1.433 . S
C959 N962 1.384 . S
C960 H951 0.929 . S
C960 C952 1.378 . S
C960 C955 1.350 . S
C961 H948 0.929 . S
C961 C953 1.433 . S
C961 N963 1.384 . S
N962 C958 1.427 . S
N962 C959 1.384 . S
N963 C955 1.427 . S
N963 C961 1.384 . S
H964 C970 0.930 . S
H965 C974 0.930 . S
H966 C979 0.929 . S
H967 C977 0.929 . S
H968 C972 0.929 . S
H969 C978 0.929 . S
C970 H964 0.930 . S
C970 C971 1.367 . S
C970 C978 1.378 . S
C971 C970 1.367 . S
C971 C979 1.433 . S
C972 H968 0.929 . S
C972 C974 1.378 . S
C972 C976 1.350 . S
C973 C976 1.463 . S
C973 C978 1.350 . S
C973 N981 1.427 . S
C974 H965 0.930 . S
C974 C972 1.378 . S
C974 C975 1.367 . S
C975 C974 1.367 . S
C975 C977 1.433 . S
C976 C972 1.350 . S
C976 C973 1.463 . S
C976 N980 1.427 . S
C977 H967 0.929 . S
C977 C975 1.433 . S
C977 N980 1.384 . S
C978 H969 0.929 . S
C978 C970 1.378 . S
C978 C973 1.350 . S
C979 H966 0.929 . S
C979 C971 1.433 . S
C979 N981 1.384 . S
N980 C976 1.427 . S
N980 C977 1.384 . S
N981 C973 1.427 . S
N981 C979 1.384 . S
H982 C988 0.930 . S
H983 C992 0.930 . S
H984 C997 0.929 . S
H985 C995 0.929 . S
H986 C990 0.929 . S
H987 C996 0.929 . S
C988 H982 0.930 . S
C988 C989 1.367 . S
C988 C996 1.378 . S
C989 C988 1.367 . S
C989 C997 1.433 . S
C990 H986 0.929 . S
C990 C992 1.378 . S
C990 C994 1.350 . S
C991 C994 1.463 . S
C991 C996 1.350 . S
C991 N999 1.427 . S
C992 H983 0.930 . S
C992 C990 1.378 . S
C992 C993 1.367 . S
C993 C992 1.367 . S
C993 C995 1.433 . S
C994 C990 1.350 . S
C994 C991 1.463 . S
C994 N998 1.427 . S
C995 H985 0.929 . S
C995 C993 1.433 . S
C995 N998 1.384 . S
C996 H987 0.929 . S
C996 C988 1.378 . S
C996 C991 1.350 . S
C997 H984 0.929 . S
C997 C989 1.433 . S
C997 N999 1.384 . S
N998 C994 1.427 . S
N998 C995 1.384 . S
N999 C991 1.427 . S
N999 C997 1.384 . S
H1000 C1006 0.930 . S
H1001 C1010 0.930 1_455 S
H1002 C1015 0.929 . S
H1003 C1013 0.929 . S
H1004 C1008 0.929 1_455 S
H1005 C1014 0.929 . S
C1006 H1000 0.930 . S
C1006 C1007 1.367 . S
C1006 C1014 1.378 . S
C1007 C1006 1.367 . S
C1007 C1015 1.433 . S
C1008 H1004 0.929 1_655 S
C1008 C1010 1.378 . S
C1008 C1012 1.350 . S
C1009 C1012 1.463 . S
C1009 C1014 1.350 . S
C1009 N1017 1.427 . S
C1010 H1001 0.930 1_655 S
C1010 C1008 1.378 . S
C1010 C1011 1.367 . S
C1011 C1010 1.367 . S
C1011 C1013 1.433 . S
C1012 C1008 1.350 . S
C1012 C1009 1.463 . S
C1012 N1016 1.427 . S
C1013 H1003 0.929 . S
C1013 C1011 1.433 . S
C1013 N1016 1.384 . S
C1014 H1005 0.929 . S
C1014 C1006 1.378 . S
C1014 C1009 1.350 . S
C1015 H1002 0.929 . S
C1015 C1007 1.433 . S
C1015 N1017 1.384 . S
N1016 C1012 1.427 . S
N1016 C1013 1.384 . S
N1017 C1009 1.427 . S
N1017 C1015 1.384 . S
H1018 C1024 0.930 . S
H1019 C1028 0.930 . S
H1020 C1033 0.929 . S
H1021 C1031 0.929 . S
H1022 C1026 0.929 . S
H1023 C1032 0.929 . S
C1024 H1018 0.930 . S
C1024 C1025 1.367 . S
C1024 C1032 1.378 . S
C1025 C1024 1.367 . S
C1025 C1033 1.433 . S
C1026 H1022 0.929 . S
C1026 C1028 1.378 . S
C1026 C1030 1.350 . S
C1027 C1030 1.463 . S
C1027 C1032 1.350 . S
C1027 N1035 1.427 . S
C1028 H1019 0.930 . S
C1028 C1026 1.378 . S
C1028 C1029 1.367 . S
C1029 C1028 1.367 . S
C1029 C1031 1.433 . S
C1030 C1026 1.350 . S
C1030 C1027 1.463 . S
C1030 N1034 1.427 . S
C1031 H1021 0.929 . S
C1031 C1029 1.433 . S
C1031 N1034 1.384 . S
C1032 H1023 0.929 . S
C1032 C1024 1.378 . S
C1032 C1027 1.350 . S
C1033 H1020 0.929 . S
C1033 C1025 1.433 . S
C1033 N1035 1.384 . S
N1034 C1030 1.427 . S
N1034 C1031 1.384 . S
N1035 C1027 1.427 . S
N1035 C1033 1.384 . S
H1036 C1042 0.930 . S
H1037 C1046 0.930 . S
H1038 C1051 0.929 . S
H1039 C1049 0.929 . S
H1040 C1044 0.929 . S
H1041 C1050 0.929 . S
C1042 H1036 0.930 . S
C1042 C1043 1.367 . S
C1042 C1050 1.378 . S
C1043 C1042 1.367 . S
C1043 C1051 1.433 . S
C1044 H1040 0.929 . S
C1044 C1046 1.378 . S
C1044 C1048 1.350 . S
C1045 C1048 1.463 . S
C1045 C1050 1.350 . S
C1045 N1053 1.427 . S
C1046 H1037 0.930 . S
C1046 C1044 1.378 . S
C1046 C1047 1.367 . S
C1047 C1046 1.367 . S
C1047 C1049 1.433 . S
C1048 C1044 1.350 . S
C1048 C1045 1.463 . S
C1048 N1052 1.427 . S
C1049 H1039 0.929 . S
C1049 C1047 1.433 . S
C1049 N1052 1.384 . S
C1050 H1041 0.929 . S
C1050 C1042 1.378 . S
C1050 C1045 1.350 . S
C1051 H1038 0.929 . S
C1051 C1043 1.433 . S
C1051 N1053 1.384 . S
N1052 C1048 1.427 . S
N1052 C1049 1.384 . S
N1053 C1045 1.427 . S
N1053 C1051 1.384 . S
H1054 C1060 0.930 . S
H1055 C1064 0.930 . S
H1056 C1069 0.929 . S
H1057 C1067 0.929 . S
H1058 C1062 0.929 . S
H1059 C1068 0.929 . S
C1060 H1054 0.930 . S
C1060 C1061 1.367 . S
C1060 C1068 1.378 . S
C1061 C1060 1.367 . S
C1061 C1069 1.433 . S
C1062 H1058 0.929 . S
C1062 C1064 1.378 . S
C1062 C1066 1.350 . S
C1063 C1066 1.463 . S
C1063 C1068 1.350 . S
C1063 N1071 1.427 . S
C1064 H1055 0.930 . S
C1064 C1062 1.378 . S
C1064 C1065 1.367 . S
C1065 C1064 1.367 . S
C1065 C1067 1.433 . S
C1066 C1062 1.350 . S
C1066 C1063 1.463 . S
C1066 N1070 1.427 . S
C1067 H1057 0.929 . S
C1067 C1065 1.433 . S
C1067 N1070 1.384 . S
C1068 H1059 0.929 . S
C1068 C1060 1.378 . S
C1068 C1063 1.350 . S
C1069 H1056 0.929 . S
C1069 C1061 1.433 . S
C1069 N1071 1.384 . S
N1070 C1066 1.427 . S
N1070 C1067 1.384 . S
N1071 C1063 1.427 . S
N1071 C1069 1.384 . S
C647 C391 2.875 . S
C651 C511 2.932 . S
C669 C537 2.369 . S
C665 C451 2.251 . S
C687 C577 2.360 . S
C683 C241 1.972 . S
C705 C631 2.858 . S
C701 C331 2.479 . S
C723 C492 2.929 . S
C719 C121 2.555 . S
C737 C211 2.278 . S
C741 C522 2.365 . S
C755 C31 2.246 . S
C759 C562 2.358 . S
C773 C91 2.536 . S
C777 C612 2.863 1_655 S
C795 C488 0.379 1_655 S
C791 C301 0.600 . S
C813 C549 0.639 . S
C809 C380 0.633 . S
C831 C589 0.362 . S
C827 C440 0.339 . S
C845 C260 0.699 . S
C849 C608 0.388 . S
C863 C61 0.480 . S
C867 C509 0.380 . S
C885 C528 0.650 . S
C881 C140 0.655 . S
C903 C568 0.369 . S
C899 C200 0.357 . S
C917 C20 0.459 . S
C921 C629 0.332 . S
C935 C320 2.658 . S
C939 C482 2.888 . S
C953 C361 2.963 . S
C957 C532 3.505 . S
C975 C572 3.225 . S
C971 C421 2.671 . S
C993 C602 2.601 . S
C989 C271 2.401 . S
C1007 C80 2.690 . S
C1011 C497 2.888 . S
C1029 C551 3.507 . S
C1025 C151 3.326 . S
C1047 C591 3.222 . S
C1043 C181 2.720 . S
C1061 C1 2.054 . S
C1065 C617 2.601 . S
