# Generated by pormake.
# Topology ctn, (3,4)-cn, num edge types: 1
# Building blocks:
#     Node 0, Type 0, BuildingBlock: MIDCAF_clean_linker_0, # of connection points: 3
#     Node 1, Type 0, BuildingBlock: MIDCAF_clean_linker_0, # of connection points: 3
#     Node 2, Type 0, BuildingBlock: MIDCAF_clean_linker_0, # of connection points: 3
#     Node 3, Type 0, BuildingBlock: MIDCAF_clean_linker_0, # of connection points: 3
#     Node 4, Type 0, BuildingBlock: MIDCAF_clean_linker_0, # of connection points: 3
#     Node 5, Type 0, BuildingBlock: MIDCAF_clean_linker_0, # of connection points: 3
#     Node 6, Type 0, BuildingBlock: MIDCAF_clean_linker_0, # of connection points: 3
#     Node 7, Type 0, BuildingBlock: MIDCAF_clean_linker_0, # of connection points: 3
#     Node 8, Type 0, BuildingBlock: MIDCAF_clean_linker_0, # of connection points: 3
#     Node 9, Type 0, BuildingBlock: MIDCAF_clean_linker_0, # of connection points: 3
#     Node 10, Type 0, BuildingBlock: MIDCAF_clean_linker_0, # of connection points: 3
#     Node 11, Type 0, BuildingBlock: MIDCAF_clean_linker_0, # of connection points: 3
#     Node 12, Type 0, BuildingBlock: MIDCAF_clean_linker_0, # of connection points: 3
#     Node 13, Type 0, BuildingBlock: MIDCAF_clean_linker_0, # of connection points: 3
#     Node 14, Type 0, BuildingBlock: MIDCAF_clean_linker_0, # of connection points: 3
#     Node 15, Type 0, BuildingBlock: MIDCAF_clean_linker_0, # of connection points: 3
#     Node 16, Type 1, BuildingBlock: NAHDIM_clean_sbu_0, # of connection points: 4
#     Node 17, Type 1, BuildingBlock: NAHDIM_clean_sbu_0, # of connection points: 4
#     Node 18, Type 1, BuildingBlock: NAHDIM_clean_sbu_0, # of connection points: 4
#     Node 19, Type 1, BuildingBlock: NAHDIM_clean_sbu_0, # of connection points: 4
#     Node 20, Type 1, BuildingBlock: NAHDIM_clean_sbu_0, # of connection points: 4
#     Node 21, Type 1, BuildingBlock: NAHDIM_clean_sbu_0, # of connection points: 4
#     Node 22, Type 1, BuildingBlock: NAHDIM_clean_sbu_0, # of connection points: 4
#     Node 23, Type 1, BuildingBlock: NAHDIM_clean_sbu_0, # of connection points: 4
#     Node 24, Type 1, BuildingBlock: NAHDIM_clean_sbu_0, # of connection points: 4
#     Node 25, Type 1, BuildingBlock: NAHDIM_clean_sbu_0, # of connection points: 4
#     Node 26, Type 1, BuildingBlock: NAHDIM_clean_sbu_0, # of connection points: 4
#     Node 27, Type 1, BuildingBlock: NAHDIM_clean_sbu_0, # of connection points: 4
#     Edge 28, Type (0, 1), BuildingBlock: TEMPAE_clean_linker_10, # of connection points: 2
#     Edge 29, Type (0, 1), BuildingBlock: TEMPAE_clean_linker_10, # of connection points: 2
#     Edge 30, Type (0, 1), BuildingBlock: TEMPAE_clean_linker_10, # of connection points: 2
#     Edge 31, Type (0, 1), BuildingBlock: TEMPAE_clean_linker_10, # of connection points: 2
#     Edge 32, Type (0, 1), BuildingBlock: TEMPAE_clean_linker_10, # of connection points: 2
#     Edge 33, Type (0, 1), BuildingBlock: TEMPAE_clean_linker_10, # of connection points: 2
#     Edge 34, Type (0, 1), BuildingBlock: TEMPAE_clean_linker_10, # of connection points: 2
#     Edge 35, Type (0, 1), BuildingBlock: TEMPAE_clean_linker_10, # of connection points: 2
#     Edge 36, Type (0, 1), BuildingBlock: TEMPAE_clean_linker_10, # of connection points: 2
#     Edge 37, Type (0, 1), BuildingBlock: TEMPAE_clean_linker_10, # of connection points: 2
#     Edge 38, Type (0, 1), BuildingBlock: TEMPAE_clean_linker_10, # of connection points: 2
#     Edge 39, Type (0, 1), BuildingBlock: TEMPAE_clean_linker_10, # of connection points: 2
#     Edge 40, Type (0, 1), BuildingBlock: TEMPAE_clean_linker_10, # of connection points: 2
#     Edge 41, Type (0, 1), BuildingBlock: TEMPAE_clean_linker_10, # of connection points: 2
#     Edge 42, Type (0, 1), BuildingBlock: TEMPAE_clean_linker_10, # of connection points: 2
#     Edge 43, Type (0, 1), BuildingBlock: TEMPAE_clean_linker_10, # of connection points: 2
#     Edge 44, Type (0, 1), BuildingBlock: TEMPAE_clean_linker_10, # of connection points: 2
#     Edge 45, Type (0, 1), BuildingBlock: TEMPAE_clean_linker_10, # of connection points: 2
#     Edge 46, Type (0, 1), BuildingBlock: TEMPAE_clean_linker_10, # of connection points: 2
#     Edge 47, Type (0, 1), BuildingBlock: TEMPAE_clean_linker_10, # of connection points: 2
#     Edge 48, Type (0, 1), BuildingBlock: TEMPAE_clean_linker_10, # of connection points: 2
#     Edge 49, Type (0, 1), BuildingBlock: TEMPAE_clean_linker_10, # of connection points: 2
#     Edge 50, Type (0, 1), BuildingBlock: TEMPAE_clean_linker_10, # of connection points: 2
#     Edge 51, Type (0, 1), BuildingBlock: TEMPAE_clean_linker_10, # of connection points: 2
#     Edge 52, Type (0, 1), BuildingBlock: TEMPAE_clean_linker_10, # of connection points: 2
#     Edge 53, Type (0, 1), BuildingBlock: TEMPAE_clean_linker_10, # of connection points: 2
#     Edge 54, Type (0, 1), BuildingBlock: TEMPAE_clean_linker_10, # of connection points: 2
#     Edge 55, Type (0, 1), BuildingBlock: TEMPAE_clean_linker_10, # of connection points: 2
#     Edge 56, Type (0, 1), BuildingBlock: TEMPAE_clean_linker_10, # of connection points: 2
#     Edge 57, Type (0, 1), BuildingBlock: TEMPAE_clean_linker_10, # of connection points: 2
#     Edge 58, Type (0, 1), BuildingBlock: TEMPAE_clean_linker_10, # of connection points: 2
#     Edge 59, Type (0, 1), BuildingBlock: TEMPAE_clean_linker_10, # of connection points: 2
#     Edge 60, Type (0, 1), BuildingBlock: TEMPAE_clean_linker_10, # of connection points: 2
#     Edge 61, Type (0, 1), BuildingBlock: TEMPAE_clean_linker_10, # of connection points: 2
#     Edge 62, Type (0, 1), BuildingBlock: TEMPAE_clean_linker_10, # of connection points: 2
#     Edge 63, Type (0, 1), BuildingBlock: TEMPAE_clean_linker_10, # of connection points: 2
#     Edge 64, Type (0, 1), BuildingBlock: TEMPAE_clean_linker_10, # of connection points: 2
#     Edge 65, Type (0, 1), BuildingBlock: TEMPAE_clean_linker_10, # of connection points: 2
#     Edge 66, Type (0, 1), BuildingBlock: TEMPAE_clean_linker_10, # of connection points: 2
#     Edge 67, Type (0, 1), BuildingBlock: TEMPAE_clean_linker_10, # of connection points: 2
#     Edge 68, Type (0, 1), BuildingBlock: TEMPAE_clean_linker_10, # of connection points: 2
#     Edge 69, Type (0, 1), BuildingBlock: TEMPAE_clean_linker_10, # of connection points: 2
#     Edge 70, Type (0, 1), BuildingBlock: TEMPAE_clean_linker_10, # of connection points: 2
#     Edge 71, Type (0, 1), BuildingBlock: TEMPAE_clean_linker_10, # of connection points: 2
#     Edge 72, Type (0, 1), BuildingBlock: TEMPAE_clean_linker_10, # of connection points: 2
#     Edge 73, Type (0, 1), BuildingBlock: TEMPAE_clean_linker_10, # of connection points: 2
#     Edge 74, Type (0, 1), BuildingBlock: TEMPAE_clean_linker_10, # of connection points: 2
#     Edge 75, Type (0, 1), BuildingBlock: TEMPAE_clean_linker_10, # of connection points: 2
# Relax obj value: 0.002
# Max RMSD: 0.033
# Mean RMSD: 0.016
data_MOF--net-ctn--node1-NAHDIM_clean_sbu_0--node2-MIDCAF_clean_linker_0--edge1-TEMPAE_clean_linker_10
_symmetry_space_group_name_H-M    P1
_symmetry_Int_Tables_number       1
_symmetry_cell_setting            triclinic
loop_
_symmetry_equiv_pos_as_xyz
'x, y, z'
_cell_length_a     67.897153
_cell_length_b     68.27943
_cell_length_c     67.59814
_cell_angle_alpha  91.197255
_cell_angle_beta   90.026953
_cell_angle_gamma 92.217058
loop_
_atom_site_label
_atom_site_type_symbol
_atom_site_fract_x
_atom_site_fract_y
_atom_site_fract_z
_atom_type_partial_charge
C0 C 0.97326 0.04829 0.08694 0.0
C1 C 0.97846 0.03535 0.10177 0.0
C2 C 0.99609 0.02537 0.09991 0.0
C3 C 0.00826 0.02823 0.0835 0.0
H4 H 0.05331 0.00315 0.05295 0.0
H5 H 0.0816 0.98277 0.04796 0.0
H6 H 0.10064 0.01846 -0.00097 0.0
H7 H 0.0725 0.03905 0.00406 0.0
H8 H 0.04313 0.06973 0.98754 0.0
H9 H 0.03801 0.09698 0.96566 0.0
H10 H 0.9937 0.11874 0.00535 0.0
H11 H -0.00116 0.09161 0.0274 0.0
H12 H 0.98108 0.06141 0.05946 0.0
H13 H 0.95982 0.05629 0.0881 0.0
H14 H 0.00035 0.01516 0.11104 0.0
H15 H 0.02173 0.02028 0.08253 0.0
N16 N 0.03158 0.03269 0.04804 0.0
N17 N 0.04021 0.0503 0.01975 0.0
N18 N 0.0129 0.05912 0.03867 0.0
C19 C 0.04366 0.03551 0.03227 0.0
C20 C 0.02486 0.06217 0.02284 0.0
C21 C 0.01615 0.0444 0.05134 0.0
C22 C 0.06061 0.02281 0.02895 0.0
C23 C 0.06347 0.00668 0.0411 0.0
C24 C 0.07963 0.99491 0.03818 0.0
C25 C 0.09332 -0.00096 0.02312 0.0
C26 C 0.09043 0.01506 0.0109 0.0
C27 C 0.07423 0.02679 0.01374 0.0
C28 C 0.02143 0.07847 0.00928 0.0
C29 C 0.03227 0.08028 0.99164 0.0
C30 C 0.02928 0.09583 0.97903 0.0
C31 C 0.01549 0.10997 0.98383 0.0
C32 C 0.00458 0.10815 0.00139 0.0
C33 C 0.00747 0.09253 0.01395 0.0
C34 C 0.00314 0.04126 0.06866 0.0
C35 C 0.98551 0.05129 0.07059 0.0
C36 C 0.24426 0.65178 0.24136 0.0
C37 C 0.22772 0.64813 0.22916 0.0
C38 C 0.22412 0.66102 0.21377 0.0
C39 C 0.23684 0.6772 0.21058 0.0
H40 H 0.24005 0.73143 0.18352 0.0
H41 H 0.2324 0.75491 0.15816 0.0
H42 H 0.29311 0.77613 0.15806 0.0
H43 H 0.30088 0.75276 0.18351 0.0
H44 H 0.32662 0.74346 0.2216 0.0
H45 H 0.35562 0.74947 0.24236 0.0
H46 H 0.33644 0.70213 0.28002 0.0
H47 H 0.30726 0.69616 0.25945 0.0
H48 H 0.2697 0.67023 0.24777 0.0
H49 H 0.24751 0.64198 0.25322 0.0
H50 H 0.21135 0.6587 0.20427 0.0
H51 H 0.2336 0.6868 0.19855 0.0
N52 N 0.26315 0.7107 0.2047 0.0
N53 N 0.29238 0.72876 0.21208 0.0
N54 N 0.28385 0.70068 0.23002 0.0
C55 C 0.27569 0.72618 0.2011 0.0
C56 C 0.29654 0.71612 0.22661 0.0
C57 C 0.26715 0.69783 0.21908 0.0
C58 C 0.27108 0.74023 0.18555 0.0
C59 C 0.2518 0.74106 0.17809 0.0
C60 C 0.24737 0.75456 0.16366 0.0
C61 C 0.26217 0.76729 0.15622 0.0
C62 C 0.28147 0.76637 0.1635 0.0
C63 C 0.28586 0.75306 0.17813 0.0
C64 C 0.31452 0.71935 0.23886 0.0
C65 C 0.32854 0.73428 0.23427 0.0
C66 C 0.34524 0.73767 0.2461 0.0
C67 C 0.34826 0.72629 0.26282 0.0
C68 C 0.33437 0.71127 0.26734 0.0
C69 C 0.31771 0.7078 0.25546 0.0
C70 C 0.2535 0.68082 0.22269 0.0
C71 C 0.25703 0.66793 0.23815 0.0
C72 C 0.99682 0.41126 0.99243 0.0
C73 C 0.98745 0.41078 0.97388 0.0
C74 C 0.9746 0.42571 0.96936 0.0
C75 C 0.97108 0.4407 0.98315 0.0
H76 H 0.93068 0.48258 0.99735 0.0
H77 H 0.90378 0.50458 0.99268 0.0
H78 H 0.92329 0.53895 0.0439 0.0
H79 H 0.94987 0.51671 0.04894 0.0
H80 H 0.97836 0.4975 0.07901 0.0
H81 H 0.99662 0.49914 0.11001 0.0
H82 H 0.03275 0.45229 0.08917 0.0
H83 H 0.01427 0.45028 0.05829 0.0
H84 H 0.00076 0.42605 0.02038 0.0
H85 H 0.00658 0.39982 0.9965 0.0
H86 H 0.96736 0.42591 0.95509 0.0
H87 H 0.96107 0.45195 0.97917 0.0
N88 N 0.96214 0.46974 0.01331 0.0
N89 N 0.96905 0.48524 0.04393 0.0
N90 N 0.98703 0.45828 0.03361 0.0
C91 C 0.95835 0.484 0.02694 0.0
C92 C 0.98342 0.47245 0.04738 0.0
C93 C 0.97649 0.45683 0.01653 0.0
C94 C 0.94243 0.49779 0.02358 0.0
C95 C 0.9293 0.49485 0.0076 0.0
C96 C 0.91391 0.50753 0.00485 0.0
C97 C 0.91136 0.52349 0.01794 0.0
C98 C 0.92465 0.5266 0.03374 0.0
C99 C 0.93997 0.51388 0.03656 0.0
C100 C 0.9948 0.47373 0.06611 0.0
C101 C 0.9902 0.48754 0.08097 0.0
C102 C 0.00073 0.48856 0.09873 0.0
C103 C 0.01612 0.47584 0.10204 0.0
C104 C 0.02079 0.46211 0.08717 0.0
C105 C 0.01025 0.46105 0.06941 0.0
C106 C 0.9804 0.44113 0.00175 0.0
C107 C 0.99339 0.42628 0.00618 0.0
C108 C 0.73608 0.76322 0.1372 0.0
C109 C 0.72291 0.74813 0.13062 0.0
C110 C 0.70428 0.74612 0.13954 0.0
C111 C 0.69905 0.75879 0.155 0.0
H112 H 0.66259 0.76108 0.20382 0.0
H113 H 0.63457 0.7527 0.22492 0.0
H114 H 0.64391 0.80727 0.25761 0.0
H115 H 0.67182 0.81586 0.23646 0.0
H116 H 0.71903 0.8338 0.23438 0.0
H117 H 0.74164 0.86128 0.2427 0.0
H118 H 0.76044 0.86351 0.18163 0.0
H119 H 0.73856 0.83543 0.1736 0.0
H120 H 0.74138 0.78742 0.15727 0.0
H121 H 0.75046 0.76521 0.13043 0.0
H122 H 0.6939 0.73451 0.1348 0.0
H123 H 0.68465 0.75672 0.1617 0.0
N124 N 0.69118 0.78256 0.18997 0.0
N125 N 0.69838 0.81037 0.21 0.0
N126 N 0.71847 0.80324 0.1828 0.0
C127 C 0.68672 0.79421 0.20576 0.0
C128 C 0.71423 0.81501 0.19853 0.0
C129 C 0.70705 0.78697 0.17844 0.0
C130 C 0.66952 0.78916 0.21842 0.0
C131 C 0.65869 0.77135 0.21545 0.0
C132 C 0.64268 0.76647 0.22761 0.0
C133 C 0.63708 0.77932 0.24291 0.0
C134 C 0.64778 0.79717 0.2458 0.0
C135 C 0.66385 0.80202 0.23373 0.0
C136 C 0.7271 0.83238 0.20337 0.0
C137 C 0.72795 0.84022 0.22274 0.0
C138 C 0.74086 0.85606 0.22747 0.0
C139 C 0.75297 0.86463 0.21286 0.0
C140 C 0.7517 0.85704 0.19337 0.0
C141 C 0.73905 0.841 0.18873 0.0
C142 C 0.71228 0.77385 0.1617 0.0
C143 C 0.7308 0.77601 0.1525 0.0
C144 C 0.02482 0.92459 0.51859 0.0
C145 C 0.011 0.90933 0.51405 0.0
C146 C -0.00048 0.91037 0.49685 0.0
C147 C 0.00187 0.92634 0.48436 0.0
H148 H 0.97013 0.9649 0.44625 0.0
H149 H 0.94666 0.97029 0.41961 0.0
H150 H 0.99284 -0.00119 0.38567 0.0
H151 H 0.01632 0.99385 0.41241 0.0
H152 H 0.0487 0.01817 0.44365 0.0
H153 H 0.07734 0.04036 0.44866 0.0
H154 H 0.09652 0.0051 0.49683 0.0
H155 H 0.06781 0.98317 0.49219 0.0
H156 H 0.03824 0.95188 0.50991 0.0
H157 H 0.03398 0.92407 0.53169 0.0
H158 H 0.98864 0.89886 0.49311 0.0
H159 H 0.99286 0.92664 0.47115 0.0
N160 N 0.00608 0.96095 0.46026 0.0
N161 N 0.02538 0.98808 0.44987 0.0
N162 N 0.03504 0.97043 0.47735 0.0
C163 C 0.00919 0.97592 0.44757 0.0
C164 C 0.03835 0.98547 0.46481 0.0
C165 C 0.019 0.95808 0.47517 0.0
C166 C 0.99505 0.97897 0.43141 0.0
C167 C 0.97529 0.97231 0.43311 0.0
C168 C 0.96185 0.97545 0.41796 0.0
C169 C 0.96803 0.98493 0.4007 0.0
C170 C 0.9878 0.9914 0.39886 0.0
C171 C 0.00116 0.98863 0.41418 0.0
C172 C 0.05587 -0.00113 0.46753 0.0
C173 C 0.059 0.01513 0.45532 0.0
C174 C 0.07546 0.02782 0.45813 0.0
C175 C 0.08914 0.02452 0.47319 0.0
C176 C 0.08607 0.00823 0.48531 0.0
C177 C 0.06964 0.99557 0.48254 0.0
C178 C 0.01591 0.94149 0.48873 0.0
C179 C 0.02731 0.94046 0.50604 0.0
C180 C 0.23103 0.75687 0.87163 0.0
C181 C 0.21697 0.7702 0.87787 0.0
C182 C 0.19903 0.77075 0.86758 0.0
C183 C 0.19528 0.75829 0.85124 0.0
H184 H 0.16586 0.75528 0.79543 0.0
H185 H 0.139 0.76057 0.77256 0.0
H186 H 0.141 0.70026 0.75205 0.0
H187 H 0.16847 0.69528 0.77427 0.0
H188 H 0.21506 0.68031 0.77494 0.0
H189 H 0.23885 0.65554 0.76686 0.0
H190 H 0.27004 0.66948 0.82135 0.0
H191 H 0.24623 0.69408 0.82964 0.0
H192 H 0.23844 0.73421 0.85104 0.0
H193 H 0.24489 0.756 0.87944 0.0
H194 H 0.18799 0.781 0.87202 0.0
H195 H 0.18133 0.75912 0.84359 0.0
N196 N 0.18973 0.73407 0.81574 0.0
N197 N 0.19882 0.70732 0.79586 0.0
N198 N 0.2179 0.71699 0.82349 0.0
C199 C 0.18628 0.72193 0.79982 0.0
C200 C 0.21469 0.70478 0.80763 0.0
C201 C 0.2055 0.73163 0.82769 0.0
C202 C 0.16935 0.72489 0.7866 0.0
C203 C 0.16052 0.74314 0.78608 0.0
C204 C 0.14503 0.74614 0.77301 0.0
C205 C 0.13781 0.73087 0.76037 0.0
C206 C 0.14643 0.71249 0.76123 0.0
C207 C 0.16211 0.70959 0.77407 0.0
C208 C 0.22872 0.68926 0.80293 0.0
C209 C 0.22692 0.67807 0.78527 0.0
C210 C 0.24061 0.66395 0.78056 0.0
C211 C 0.25632 0.66064 0.79345 0.0
C212 C 0.25798 0.67161 0.81122 0.0
C213 C 0.24436 0.68578 0.81589 0.0
C214 C 0.20935 0.7449 0.84498 0.0
C215 C 0.22724 0.74431 0.85542 0.0
C216 C 0.99333 0.60518 0.50173 0.0
C217 C 0.98442 0.60684 0.52042 0.0
C218 C 0.97126 0.59177 0.52655 0.0
C219 C 0.96717 0.57538 0.51433 0.0
H220 H 0.92509 0.5311 0.50357 0.0
H221 H 0.89795 0.50831 0.51132 0.0
H222 H 0.91971 0.46659 0.46847 0.0
H223 H 0.94661 0.48961 0.46025 0.0
H224 H 0.98295 0.50238 0.43303 0.0
H225 H 0.00453 0.4964 0.40486 0.0
H226 H 0.02896 0.55557 0.41052 0.0
H227 H 0.00739 0.56171 0.43854 0.0
H228 H 0.99652 0.58793 0.47526 0.0
H229 H 0.00329 0.61667 0.49642 0.0
H230 H 0.96436 0.59244 0.54098 0.0
H231 H 0.9571 0.56397 0.51963 0.0
N232 N 0.95769 0.54278 0.48758 0.0
N233 N 0.96594 0.52307 0.46023 0.0
N234 N 0.9838 0.55254 0.46693 0.0
C235 C 0.95432 0.52634 0.47624 0.0
C236 C 0.98069 0.53614 0.45546 0.0
C237 C 0.97242 0.55594 0.48304 0.0
C238 C 0.93805 0.51223 0.48124 0.0
C239 C 0.92416 0.51706 0.4958 0.0
C240 C 0.90863 0.50393 0.50034 0.0
C241 C 0.90667 0.48561 0.49054 0.0
C242 C 0.92064 0.4807 0.4761 0.0
C243 C 0.93612 0.49388 0.47146 0.0
C244 C 0.99344 0.53252 0.4381 0.0
C245 C 0.99285 0.51416 0.42824 0.0
C246 C 0.00528 0.51067 0.41218 0.0
C247 C 0.01841 0.52552 0.40554 0.0
C248 C 0.01885 0.54392 0.41522 0.0
C249 C 0.00656 0.54737 0.43136 0.0
C250 C 0.97627 0.57361 0.49573 0.0
C251 C 0.98936 0.58873 0.48955 0.0
C252 C 0.84652 0.75617 0.74456 0.0
C253 C 0.85135 0.76938 0.7295 0.0
C254 C 0.84027 0.78621 0.72764 0.0
C255 C 0.82484 0.78987 0.7407 0.0
H256 H 0.77406 0.82258 0.74791 0.0
H257 H 0.75391 0.85104 0.74417 0.0
H258 H 0.7359 0.8469 0.80533 0.0
H259 H 0.75537 0.81808 0.80883 0.0
H260 H 0.75287 0.76893 0.82116 0.0
H261 H 0.747 0.74769 0.84934 0.0
H262 H 0.80583 0.72647 0.84367 0.0
H263 H 0.81176 0.74754 0.81531 0.0
H264 H 0.8279 0.74936 0.76912 0.0
H265 H 0.8546 0.74293 0.7462 0.0
H266 H 0.84379 0.7968 0.71634 0.0
H267 H 0.81677 0.80309 0.73894 0.0
N268 N 0.79283 0.79665 0.76782 0.0
N269 N 0.77516 0.78862 0.79649 0.0
N270 N 0.80088 0.76909 0.78584 0.0
C271 C 0.77832 0.80062 0.78097 0.0
C272 C 0.78635 0.77283 0.79901 0.0
C273 C 0.80418 0.7809 0.77016 0.0
C274 C 0.76626 0.81801 0.77864 0.0
C275 C 0.76577 0.82774 0.76054 0.0
C276 C 0.7543 0.84413 0.75843 0.0
C277 C 0.74325 0.85126 0.77444 0.0
C278 C 0.74391 0.8416 0.79257 0.0
C279 C 0.75518 0.8251 0.79461 0.0
C280 C 0.78279 0.75991 0.81601 0.0
C281 C 0.76457 0.75975 0.8259 0.0
C282 C 0.76115 0.74754 0.84194 0.0
C283 C 0.77597 0.73551 0.84859 0.0
C284 C 0.79422 0.73572 0.83883 0.0
C285 C 0.79755 0.7477 0.82257 0.0
C286 C 0.82018 0.77679 0.75595 0.0
C287 C 0.83114 0.75984 0.75765 0.0
C288 C 0.35004 0.26085 0.25231 0.0
C289 C 0.35215 0.27281 0.23574 0.0
C290 C 0.33848 0.28739 0.23271 0.0
C291 C 0.32301 0.28996 0.24603 0.0
H292 H 0.27656 0.32533 0.25882 0.0
H293 H 0.25537 0.35317 0.25665 0.0
H294 H 0.2279 0.33735 0.312 0.0
H295 H 0.24865 0.30925 0.31398 0.0
H296 H 0.25198 0.26304 0.32542 0.0
H297 H 0.2455 0.23846 0.35036 0.0
H298 H 0.30427 0.21744 0.34234 0.0
H299 H 0.3105 0.24154 0.31687 0.0
H300 H 0.33334 0.25378 0.27812 0.0
H301 H 0.36025 0.24936 0.2549 0.0
H302 H 0.33987 0.29693 0.22015 0.0
H303 H 0.31273 0.30133 0.24325 0.0
N304 N 0.29234 0.29579 0.27514 0.0
N305 N 0.2738 0.28448 0.30213 0.0
N306 N 0.30081 0.26705 0.29094 0.0
C307 C 0.27711 0.29799 0.28793 0.0
C308 C 0.28557 0.26897 0.30372 0.0
C309 C 0.30427 0.28035 0.27657 0.0
C310 C 0.26431 0.31499 0.28655 0.0
C311 C 0.266 0.32775 0.27054 0.0
C312 C 0.25393 0.34379 0.26933 0.0
C313 C 0.23995 0.34748 0.28415 0.0
C314 C 0.2383 0.33475 0.30019 0.0
C315 C 0.25029 0.31867 0.30135 0.0
C316 C 0.28175 0.25425 0.31913 0.0
C317 C 0.26353 0.25319 0.32897 0.0
C318 C 0.25984 0.23914 0.34336 0.0
C319 C 0.27436 0.22597 0.34839 0.0
C320 C 0.29263 0.22712 0.3386 0.0
C321 C 0.29624 0.24103 0.32406 0.0
C322 C 0.32082 0.27791 0.26257 0.0
C323 C 0.33453 0.26333 0.26555 0.0
C324 C 0.49867 0.91025 0.48877 0.0
C325 C 0.48952 0.90965 0.4701 0.0
C326 C 0.47726 0.92492 0.46507 0.0
C327 C 0.47399 0.94027 0.47852 0.0
H328 H 0.43247 0.98158 0.49284 0.0
H329 H 0.40491 0.00296 0.48868 0.0
H330 H 0.42512 0.03824 0.53903 0.0
H331 H 0.45233 0.0167 0.54354 0.0
H332 H 0.47832 0.99564 0.57499 0.0
H333 H 0.49692 -0.00145 0.60576 0.0
H334 H 0.5379 0.95675 0.58326 0.0
H335 H 0.5194 0.95381 0.5523 0.0
H336 H 0.50263 0.92547 0.51649 0.0
H337 H 0.50795 0.89858 0.49325 0.0
H338 H 0.47023 0.92506 0.45069 0.0
H339 H 0.46439 0.95173 0.47418 0.0
N340 N 0.46461 0.96941 0.50845 0.0
N341 N 0.47147 0.98532 0.53885 0.0
N342 N 0.48976 0.95849 0.52881 0.0
C343 C 0.46072 0.98378 0.52193 0.0
C344 C 0.48601 0.97278 0.54242 0.0
C345 C 0.47914 0.95672 0.51178 0.0
C346 C 0.44457 0.99731 0.51861 0.0
C347 C 0.4311 0.99394 0.50298 0.0
C348 C 0.41534 0.00625 0.50053 0.0
C349 C 0.41276 0.02223 0.5136 0.0
C350 C 0.42648 0.02584 0.52894 0.0
C351 C 0.44215 0.01351 0.53144 0.0
C352 C 0.49737 0.9745 0.56112 0.0
C353 C 0.4913 0.98705 0.57652 0.0
C354 C 0.50186 0.98864 0.59423 0.0
C355 C 0.5188 0.97784 0.59689 0.0
C356 C 0.52495 0.96534 0.58152 0.0
C357 C 0.51429 0.96361 0.56384 0.0
C358 C 0.48301 0.94077 0.49726 0.0
C359 C 0.49551 0.92565 0.50216 0.0
C360 C 0.24363 0.25892 0.64081 0.0
C361 C 0.22995 0.24374 0.63558 0.0
C362 C 0.21208 0.24207 0.646 0.0
C363 C 0.20795 0.25535 0.66129 0.0
H364 H 0.17398 0.26216 0.71306 0.0
H365 H 0.14476 0.25752 0.73346 0.0
H366 H 0.14729 0.3193 0.74912 0.0
H367 H 0.17707 0.32372 0.72943 0.0
H368 H 0.2229 0.34231 0.72986 0.0
H369 H 0.24606 0.36966 0.73701 0.0
H370 H 0.28322 0.35069 0.68903 0.0
H371 H 0.26001 0.32348 0.6816 0.0
H372 H 0.25033 0.28384 0.65958 0.0
H373 H 0.25743 0.2607 0.6329 0.0
H374 H 0.20135 0.23038 0.64241 0.0
H375 H 0.19402 0.25362 0.66898 0.0
N376 N 0.20035 0.28273 0.69331 0.0
N377 N 0.20871 0.31149 0.71148 0.0
N378 N 0.22961 0.30056 0.68634 0.0
C379 C 0.19605 0.29594 0.70782 0.0
C380 C 0.22557 0.31387 0.70083 0.0
C381 C 0.21707 0.28497 0.68245 0.0
C382 C 0.17789 0.29329 0.71969 0.0
C383 C 0.16827 0.27476 0.72083 0.0
C384 C 0.15142 0.27213 0.73245 0.0
C385 C 0.1436 0.28803 0.74298 0.0
C386 C 0.15309 0.30664 0.74155 0.0
C387 C 0.17012 0.30921 0.73017 0.0
C388 C 0.23954 0.33064 0.70513 0.0
C389 C 0.23597 0.34394 0.72078 0.0
C390 C 0.24931 0.35956 0.72498 0.0
C391 C 0.26647 0.36228 0.71361 0.0
C392 C 0.27002 0.34907 0.69793 0.0
C393 C 0.25673 0.33342 0.69374 0.0
C394 C 0.22157 0.27065 0.66646 0.0
C395 C 0.23948 0.27225 0.65605 0.0
C396 C 0.74011 0.15665 0.74813 0.0
C397 C 0.72808 0.14808 0.7331 0.0
C398 C 0.73 0.15513 0.71377 0.0
C399 C 0.74355 0.17037 0.70958 0.0
H400 H 0.74846 0.2244 0.67723 0.0
H401 H 0.74462 0.24489 0.64855 0.0
H402 H 0.80702 0.26016 0.64998 0.0
H403 H 0.81064 0.24041 0.67918 0.0
H404 H 0.82649 0.24376 0.72561 0.0
H405 H 0.85419 0.25153 0.74747 0.0
H406 H 0.83838 0.20123 0.78266 0.0
H407 H 0.81024 0.19364 0.76104 0.0
H408 H 0.7629 0.17798 0.75581 0.0
H409 H 0.73881 0.15182 0.76325 0.0
H410 H 0.72128 0.14865 0.70173 0.0
H411 H 0.74472 0.17532 0.69449 0.0
N412 N 0.76851 0.20499 0.70315 0.0
N413 N 0.79732 0.22346 0.71113 0.0
N414 N 0.7857 0.19892 0.73238 0.0
C415 C 0.78197 0.21942 0.69865 0.0
C416 C 0.79929 0.21333 0.72804 0.0
C417 C 0.7703 0.19465 0.71997 0.0
C418 C 0.77982 0.2309 0.68055 0.0
C419 C 0.76136 0.23208 0.67136 0.0
C420 C 0.75919 0.24375 0.65483 0.0
C421 C 0.77549 0.25428 0.64696 0.0
C422 C 0.79406 0.25263 0.65588 0.0
C423 C 0.79616 0.24121 0.67258 0.0
C424 C 0.81611 0.21803 0.74151 0.0
C425 C 0.82885 0.23431 0.73799 0.0
C426 C 0.84483 0.23873 0.75048 0.0
C427 C 0.84856 0.22694 0.76674 0.0
C428 C 0.83578 0.21072 0.77037 0.0
C429 C 0.81971 0.20633 0.7579 0.0
C430 C 0.75571 0.17876 0.72457 0.0
C431 C 0.75387 0.17172 0.74389 0.0
C432 C 0.48071 0.54893 0.58531 0.0
C433 C 0.48293 0.53399 0.599 0.0
C434 C 0.49749 0.52024 0.5957 0.0
C435 C 0.50969 0.52147 0.57912 0.0
H436 H 0.56354 0.50411 0.55879 0.0
H437 H 0.59275 0.48452 0.5566 0.0
H438 H 0.60224 0.50304 0.49656 0.0
H439 H 0.57299 0.52257 0.49858 0.0
H440 H 0.5494 0.55757 0.48283 0.0
H441 H 0.54481 0.5826 0.45833 0.0
H442 H 0.49803 0.60639 0.49362 0.0
H443 H 0.50226 0.58113 0.51797 0.0
H444 H 0.49074 0.56185 0.5584 0.0
H445 H 0.46948 0.55963 0.5874 0.0
H446 H 0.49968 0.50868 0.60613 0.0
H447 H 0.52083 0.51067 0.57713 0.0
N448 N 0.53631 0.52612 0.5462 0.0
N449 N 0.54505 0.54064 0.5162 0.0
N450 N 0.51743 0.5511 0.53368 0.0
C451 C 0.54856 0.52741 0.53037 0.0
C452 C 0.52953 0.55254 0.51773 0.0
C453 C 0.52067 0.53786 0.54794 0.0
C454 C 0.56591 0.51497 0.52887 0.0
C455 C 0.57176 0.50396 0.54507 0.0
C456 C 0.58856 0.49282 0.54389 0.0
C457 C 0.59976 0.49231 0.52644 0.0
C458 C 0.59377 0.50305 0.51014 0.0
C459 C 0.57707 0.51432 0.51136 0.0
C460 C 0.52625 0.56734 0.50246 0.0
C461 C 0.53806 0.56807 0.48538 0.0
C462 C 0.53551 0.58248 0.47135 0.0
C463 C 0.52112 0.59653 0.47407 0.0
C464 C 0.5091 0.59563 0.49097 0.0
C465 C 0.51161 0.58119 0.50499 0.0
C466 C 0.50754 0.53645 0.5654 0.0
C467 C 0.49284 0.55012 0.56864 0.0
C468 C 0.5325 0.41322 0.00378 0.0
C469 C 0.51477 0.40203 0.00204 0.0
C470 C 0.49967 0.40871 0.98999 0.0
C471 C 0.50227 0.42623 0.97984 0.0
H472 H 0.47665 0.45977 0.9387 0.0
H473 H 0.45317 0.46774 0.91326 0.0
H474 H 0.49072 0.51709 0.89636 0.0
H475 H 0.51417 0.5094 0.92212 0.0
H476 H 0.55373 0.51921 0.94676 0.0
H477 H 0.58379 0.53914 0.95306 0.0
H478 H 0.60076 0.49897 -0.00203 0.0
H479 H 0.57109 0.4789 0.99154 0.0
H480 H 0.54893 0.43904 0.99549 0.0
H481 H 0.5443 0.40853 0.01316 0.0
H482 H 0.48591 0.40028 0.98828 0.0
H483 H 0.49035 0.43095 0.97066 0.0
N484 N 0.50936 0.46154 0.95751 0.0
N485 N 0.52843 0.49009 0.95108 0.0
N486 N 0.53907 0.46788 0.97442 0.0
C487 C 0.51204 0.47848 0.94747 0.0
C488 C 0.542 0.48489 0.96461 0.0
C489 C 0.52282 0.45613 0.97098 0.0
C490 C 0.49741 0.48387 0.93243 0.0
C491 C 0.47995 0.47237 0.92964 0.0
C492 C 0.46649 0.47688 0.91498 0.0
C493 C 0.47015 0.49296 0.9027 0.0
C494 C 0.4874 0.5047 0.9057 0.0
C495 C 0.50088 0.50022 0.92042 0.0
C496 C 0.55997 0.49738 0.96857 0.0
C497 C 0.56385 0.51462 0.95799 0.0
C498 C 0.58103 0.5261 0.96165 0.0
C499 C 0.59468 0.52057 0.97595 0.0
C500 C 0.59069 0.50346 0.98664 0.0
C501 C 0.57358 0.492 0.98299 0.0
C502 C 0.51999 0.43751 0.98165 0.0
C503 C 0.53507 0.43078 0.99374 0.0
C504 C 0.73212 0.25937 0.35793 0.0
C505 C 0.72095 0.2759 0.36188 0.0
C506 C 0.70427 0.27896 0.35021 0.0
C507 C 0.69885 0.26577 0.33492 0.0
H508 H 0.66207 0.25912 0.28735 0.0
H509 H 0.63457 0.26596 0.26578 0.0
H510 H 0.64069 0.21008 0.23577 0.0
H511 H 0.66808 0.20302 0.25745 0.0
H512 H 0.7112 0.18268 0.26333 0.0
H513 H 0.7311 0.15415 0.25782 0.0
H514 H 0.75266 0.15962 0.31795 0.0
H515 H 0.73343 0.18856 0.32318 0.0
H516 H 0.73569 0.23361 0.34004 0.0
H517 H 0.7452 0.25675 0.3665 0.0
H518 H 0.69521 0.29142 0.35306 0.0
H519 H 0.68586 0.26856 0.32627 0.0
N520 N 0.68912 0.23892 0.30247 0.0
N521 N 0.6943 0.20977 0.2846 0.0
N522 N 0.71438 0.2186 0.31181 0.0
C523 C 0.68399 0.22628 0.28739 0.0
C524 C 0.70948 0.20583 0.29679 0.0
C525 C 0.70432 0.2352 0.31473 0.0
C526 C 0.66734 0.23049 0.27417 0.0
C527 C 0.6576 0.24825 0.27618 0.0
C528 C 0.64189 0.25224 0.26376 0.0
C529 C 0.6355 0.23856 0.2491 0.0
C530 C 0.64517 0.22081 0.24708 0.0
C531 C 0.66094 0.21683 0.25945 0.0
C532 C 0.72082 0.18797 0.29365 0.0
C533 C 0.72015 0.17775 0.27539 0.0
C534 C 0.7315 0.16132 0.27226 0.0
C535 C 0.74357 0.15461 0.28741 0.0
C536 C 0.74387 0.16462 0.30581 0.0
C537 C 0.73274 0.18116 0.30885 0.0
C538 C 0.70999 0.24919 0.33098 0.0
C539 C 0.72669 0.24615 0.34268 0.0
C540 C 0.50956 0.09137 0.01013 0.0
C541 C 0.49732 0.09647 0.02601 0.0
C542 C 0.48142 0.08375 0.03097 0.0
C543 C 0.47755 0.06648 0.01998 0.0
H544 H 0.43441 0.02415 0.01029 0.0
H545 H 0.40424 0.00481 0.01623 0.0
H546 H 0.42045 0.96332 0.97051 0.0
H547 H 0.45043 0.98286 0.96418 0.0
H548 H 0.48139 0.00393 0.92984 0.0
H549 H 0.50225 0.9975 0.90108 0.0
H550 H 0.55234 0.02435 0.93187 0.0
H551 H 0.5315 0.03122 0.96052 0.0
H552 H 0.51538 0.07072 0.98689 0.0
H553 H 0.52206 0.10079 0.00613 0.0
H554 H 0.47163 0.0874 0.04303 0.0
H555 H 0.46497 0.05719 0.02403 0.0
N556 N 0.4681 0.03277 0.99478 0.0
N557 N 0.47524 0.01222 0.96773 0.0
N558 N 0.49678 0.03874 0.97625 0.0
C559 C 0.46323 0.01694 0.98303 0.0
C560 C 0.49206 0.02301 0.96432 0.0
C561 C 0.48484 0.04376 0.99149 0.0
C562 C 0.4449 0.0051 0.98674 0.0
C563 C 0.43159 0.01091 0.00147 0.0
C564 C 0.41432 -0.00023 0.00497 0.0
C565 C 0.40996 0.98252 0.99386 0.0
C566 C 0.42325 0.97668 0.97914 0.0
C567 C 0.44051 0.98785 0.9756 0.0
C568 C 0.50482 0.01813 0.94739 0.0
C569 C 0.49688 0.00834 0.93053 0.0
C570 C 0.50874 0.00473 0.91408 0.0
C571 C 0.52881 0.01044 0.9144 0.0
C572 C 0.53689 0.01974 0.9314 0.0
C573 C 0.52496 0.02374 0.94769 0.0
C574 C 0.48956 0.06152 0.00383 0.0
C575 C 0.50576 0.07406 -0.00082 0.0
C576 C 0.21232 0.91596 0.00916 0.0
O577 O 0.21907 0.9108 0.99168 0.0
O578 O 0.23981 0.87489 -0.00192 0.0
Zn579 Zn 0.24391 0.89279 0.02191 0.0
O580 O 0.26861 0.90938 0.01826 0.0
C581 C 0.23366 0.86288 0.04944 0.0
O582 O 0.21907 0.85962 0.03688 0.0
O583 O 0.22079 0.91004 0.02458 0.0
C584 C 0.28528 0.90158 0.01873 0.0
O585 O 0.28603 0.88271 0.02188 0.0
C586 C 0.24657 0.85781 0.99689 0.0
O587 O 0.25695 0.85137 0.01164 0.0
O588 O 0.24619 0.87678 0.04631 0.0
C589 C 0.15301 0.46337 0.27406 0.0
O590 O 0.15262 0.47674 0.28829 0.0
O591 O 0.10888 0.49285 0.27879 0.0
Zn592 Zn 0.12663 0.48919 0.25528 0.0
O593 O 0.14468 0.51286 0.25238 0.0
C594 C 0.09173 0.4846 0.23061 0.0
O595 O 0.0824 0.48543 0.2476 0.0
O596 O 0.14284 0.46554 0.25853 0.0
C597 C 0.13747 0.5294 0.24924 0.0
O598 O 0.11824 0.53064 0.24811 0.0
C599 C 0.11366 0.50383 0.29356 0.0
O600 O 0.13102 0.513 0.29389 0.0
O601 O 0.11046 0.48576 0.23044 0.0
C602 C 0.79666 0.61116 5e-05 0.0
O603 O 0.79953 0.63018 -0.00172 0.0
O604 O 0.76151 0.63708 0.97053 0.0
Zn605 Zn 0.75652 0.6212 0.99475 0.0
O606 O 0.73174 0.60486 0.99009 0.0
C607 C 0.76097 0.65619 0.01976 0.0
O608 O 0.77264 0.66236 0.00551 0.0
O609 O 0.7792 0.60381 -0.00088 0.0
C610 C 0.72067 0.59939 0.00423 0.0
O611 O 0.72579 0.60417 0.0225 0.0
C612 C 0.75019 0.65088 0.96668 0.0
O613 O 0.73549 0.65446 0.97869 0.0
O614 O 0.75289 0.63911 0.01844 0.0
C615 C 0.83001 0.03922 0.26545 0.0
O616 O 0.8265 0.02279 0.27482 0.0
O617 O 0.87866 0.01457 0.27445 0.0
Zn618 Zn 0.86227 0.01784 0.2499 0.0
O619 O 0.84519 0.99374 0.24339 0.0
C620 C 0.89043 0.01001 0.21934 0.0
O621 O 0.88904 0.99237 0.2267 0.0
O622 O 0.84472 0.04059 0.25388 0.0
C623 C 0.84925 0.97631 0.24771 0.0
O624 O 0.86575 0.97306 0.25703 0.0
C625 C 0.87271 0.00529 0.28956 0.0
O626 O 0.85484 0.99721 0.28974 0.0
O627 O 0.88033 0.0235 0.22698 0.0
C628 C 0.29491 0.10675 0.50152 0.0
O629 O 0.29712 0.1259 0.50032 0.0
O630 O 0.25921 0.13206 0.47328 0.0
Zn631 Zn 0.25472 0.11611 0.49764 0.0
O632 O 0.22975 0.09966 0.49486 0.0
C633 C 0.25742 0.15216 0.52079 0.0
O634 O 0.26483 0.15922 0.50434 0.0
O635 O 0.27764 0.09891 0.50094 0.0
C636 C 0.21335 0.10799 0.4946 0.0
O637 O 0.21321 0.1272 0.49629 0.0
C638 C 0.24995 0.12918 0.45708 0.0
O639 O 0.2366 0.11479 0.45554 0.0
O640 O 0.25236 0.13407 0.52143 0.0
C641 C 0.35554 0.55906 0.75977 0.0
O642 O 0.37442 0.56216 0.76343 0.0
O643 O 0.38505 0.51786 0.77195 0.0
Zn644 Zn 0.36757 0.52041 0.74828 0.0
O645 O 0.35087 0.49585 0.74431 0.0
C646 C 0.40218 0.52222 0.72362 0.0
O647 O 0.41072 0.51632 0.73977 0.0
O648 O 0.34946 0.54243 0.75299 0.0
C649 C 0.35826 0.47915 0.74209 0.0
O650 O 0.3775 0.47781 0.74257 0.0
C651 C 0.37799 0.51633 0.78926 0.0
O652 O 0.35879 0.5164 0.79171 0.0
O653 O 0.38381 0.52512 0.72383 0.0
C654 C 0.72339 0.41587 0.51432 0.0
O655 O 0.73775 0.42229 0.50285 0.0
O656 O 0.74285 0.3687 0.49073 0.0
Zn657 Zn 0.74801 0.38299 0.51661 0.0
O658 O 0.7725 0.40059 0.51498 0.0
C659 C 0.75827 0.34689 0.53452 0.0
O660 O 0.76494 0.34298 0.51669 0.0
O661 O 0.72467 0.39928 0.52229 0.0
C662 C 0.7897 0.39488 0.51866 0.0
O663 O 0.79194 0.37676 0.52409 0.0
C664 C 0.75575 0.36637 0.47736 0.0
O665 O 0.77369 0.37382 0.4801 0.0
O666 O 0.75049 0.36324 0.53804 0.0
C667 C 0.65876 0.96889 0.76436 0.0
O668 O 0.66304 0.98507 0.77456 0.0
O669 O 0.60882 0.99037 0.77864 0.0
Zn670 Zn 0.62461 0.98985 0.7534 0.0
O671 O 0.64052 0.01508 0.74977 0.0
C672 C 0.59716 -0.00103 0.72265 0.0
O673 O 0.59909 0.01667 0.73056 0.0
O674 O 0.64305 0.96763 0.75414 0.0
C675 C 0.63555 0.03176 0.75634 0.0
O676 O 0.61895 0.03326 0.76613 0.0
C677 C 0.61559 -0.00178 0.79458 0.0
O678 O 0.63344 0.00636 0.79481 0.0
O679 O 0.60649 0.98515 0.73015 0.0
C680 C 0.9965 0.22442 0.89478 0.0
O681 O 0.97892 0.23147 0.89257 0.0
O682 O 0.98096 0.24942 0.85342 0.0
Zn683 Zn 0.00625 0.25517 0.86837 0.0
O684 O 0.0042 0.27928 0.88589 0.0
C685 C 0.02618 0.2664 0.83247 0.0
O686 O 0.00874 0.27271 0.82793 0.0
O687 O 0.01102 0.23233 0.88568 0.0
C688 C 0.00849 0.29655 0.88019 0.0
O689 O 0.01466 0.29918 0.862 0.0
C690 C 0.96766 0.26181 0.85134 0.0
O691 O 0.97029 0.27951 0.85909 0.0
O692 O 0.02863 0.25838 0.84905 0.0
C693 C 0.50673 0.70927 0.38172 0.0
O694 O 0.50456 0.70656 0.36253 0.0
O695 O 0.47697 0.74392 0.35616 0.0
Zn696 Zn 0.50215 0.74925 0.37138 0.0
O697 O 0.50024 0.77375 0.38821 0.0
C698 C 0.52369 0.74722 0.33445 0.0
O699 O 0.50707 0.73914 0.32772 0.0
O700 O 0.50641 0.72656 0.38899 0.0
C701 C 0.50609 0.7904 0.38194 0.0
O702 O 0.5135 0.79164 0.36403 0.0
C703 C 0.4672 0.75752 0.34884 0.0
O704 O 0.47343 0.77583 0.35158 0.0
O705 O 0.52499 0.75238 0.35259 0.0
C706 C -0.00177 0.79229 0.60225 0.0
O707 O 0.98117 0.7827 0.60386 0.0
O708 O 0.9833 0.76426 0.64234 0.0
Zn709 Zn 0.00896 0.76212 0.62766 0.0
O710 O 0.00775 0.73874 0.60894 0.0
C711 C 0.02774 0.75083 0.66334 0.0
O712 O 0.01018 0.7427 0.66641 0.0
O713 O 0.01305 0.78622 0.61147 0.0
C714 C 0.01258 0.72167 0.6137 0.0
O715 O 0.01905 0.71878 0.63167 0.0
C716 C 0.97 0.75065 0.64262 0.0
O717 O 0.97278 0.73414 0.63289 0.0
O718 O 0.03093 0.76014 0.64748 0.0
C719 C 0.49813 0.28193 0.08537 0.0
O720 O 0.4879 0.26624 0.07923 0.0
O721 O 0.4756 0.26412 0.13615 0.0
Zn722 Zn 0.50049 0.25997 0.12096 0.0
O723 O 0.49801 0.23472 0.10527 0.0
C724 C 0.52235 0.26427 0.1578 0.0
O725 O 0.50619 0.2721 0.16439 0.0
O726 O 0.50519 0.28249 0.10279 0.0
C727 C 0.51331 0.2257 0.10028 0.0
O728 O 0.53074 0.23325 0.1053 0.0
C729 C 0.46576 0.24978 0.14338 0.0
O730 O 0.47182 0.23192 0.1404 0.0
O731 O 0.5232 0.25845 0.13985 0.0
C732 C 0.2069 0.78569 0.90998 0.0
C733 C 0.22107 0.78347 0.89511 0.0
C734 C 0.21083 0.79784 0.92661 0.0
C735 C 0.22929 0.8081 0.92829 0.0
C736 C 0.24357 0.80608 0.91321 0.0
C737 C 0.23931 0.79372 0.89682 0.0
C738 C 0.19532 0.79953 0.9425 0.0
C739 C 0.26335 0.81695 0.9144 0.0
C740 C 0.23323 0.85275 0.96261 0.0
C741 C 0.24233 0.84515 0.97928 0.0
C742 C 0.22895 0.84086 0.94588 0.0
C743 C 0.23375 0.82088 0.94588 0.0
C744 C 0.24289 0.8131 0.96266 0.0
C745 C 0.24715 0.82536 0.97914 0.0
C746 C 0.21933 0.84968 0.92818 0.0
C747 C 0.24809 0.79181 0.96323 0.0
H748 H 0.19288 0.77762 0.90877 0.0
H749 H 0.25019 0.79219 0.88522 0.0
H750 H 0.2012 0.79462 0.9568 0.0
H751 H 0.19142 0.81506 0.94459 0.0
H752 H 0.18168 0.79065 0.93889 0.0
H753 H 0.2727 0.81399 0.90127 0.0
H754 H 0.26125 0.83297 0.91565 0.0
H755 H 0.27135 0.81267 0.92785 0.0
H756 H 0.2295 0.86804 0.9626 0.0
H757 H 0.2541 0.81937 0.99199 0.0
H758 H 0.20503 0.84186 0.92495 0.0
H759 H 0.22878 0.84791 0.91492 0.0
H760 H 0.21668 0.86552 0.93049 0.0
H761 H 0.23465 0.78228 0.96091 0.0
H762 H 0.25498 0.78802 0.97749 0.0
H763 H 0.25845 0.78842 0.95106 0.0
C764 C 0.03416 0.53549 0.37368 0.0
C765 C 0.03186 0.52179 0.38875 0.0
C766 C 0.04724 0.53242 0.35798 0.0
C767 C 0.05837 0.51531 0.35744 0.0
C768 C 0.05601 0.50136 0.37254 0.0
C769 C 0.04271 0.50474 0.388 0.0
C770 C 0.04922 0.54751 0.34201 0.0
C771 C 0.06774 0.48302 0.37252 0.0
C772 C 0.08013 0.49903 0.30838 0.0
C773 C 0.09961 0.5065 0.31003 0.0
C774 C 0.06654 0.50177 0.32371 0.0
C775 C 0.07263 0.51211 0.34115 0.0
C776 C 0.09232 0.51954 0.34299 0.0
C777 C 0.10556 0.51672 0.32736 0.0
C778 C 0.04562 0.49377 0.32117 0.0
C779 C 0.09936 0.53052 0.36145 0.0
H780 H 0.02562 0.54858 0.37413 0.0
H781 H 0.0411 0.49424 0.39975 0.0
H782 H 0.06461 0.55356 0.34149 0.0
H783 H 0.0459 0.54055 0.32734 0.0
H784 H 0.03921 0.55983 0.34442 0.0
H785 H 0.06401 0.47354 0.38525 0.0
H786 H 0.06501 0.47441 0.35863 0.0
H787 H 0.08373 0.48701 0.37309 0.0
H788 H 0.0754 0.49118 0.295 0.0
H789 H 0.1206 0.52248 0.32877 0.0
H790 H 0.03523 0.50589 0.32236 0.0
H791 H 0.04187 0.48341 0.33315 0.0
H792 H 0.04325 0.48604 0.30669 0.0
H793 H 0.09069 0.54382 0.36379 0.0
H794 H 0.11523 0.53505 0.36069 0.0
H795 H 0.09699 0.52122 0.37457 0.0
C796 C 0.78561 0.72347 0.88168 0.0
C797 C 0.77239 0.72282 0.86575 0.0
C798 C 0.78213 0.71185 0.89827 0.0
C799 C 0.76522 0.69907 0.89869 0.0
C800 C 0.75196 0.69818 0.8825 0.0
C801 C 0.75563 0.71023 0.86626 0.0
C802 C 0.7964 0.71342 0.91542 0.0
C803 C 0.73397 0.68447 0.8823 0.0
C804 C 0.76576 0.65643 0.93373 0.0
C805 C 0.75391 0.66313 0.94924 0.0
C806 C 0.76942 0.66792 0.91708 0.0
C807 C 0.76133 0.68667 0.91614 0.0
C808 C 0.7495 0.69358 0.93184 0.0
C809 C 0.74578 0.68163 0.94815 0.0
C810 C 0.78184 0.65995 0.90045 0.0
C811 C 0.74091 0.71364 0.93149 0.0
H812 H 0.79847 0.73337 0.8813 0.0
H813 H 0.74551 0.70965 0.85383 0.0
H814 H 0.78855 0.71782 0.9291 0.0
H815 H 0.80266 0.69893 0.91808 0.0
H816 H 0.80873 0.72423 0.91282 0.0
H817 H 0.7254 0.68523 0.86835 0.0
H818 H 0.73842 0.66916 0.88418 0.0
H819 H 0.72419 0.68812 0.89488 0.0
H820 H 0.77199 0.64209 0.93448 0.0
H821 H 0.73673 0.68691 0.96019 0.0
H822 H 0.79507 0.66971 0.89827 0.0
H823 H 0.77334 0.65961 0.88641 0.0
H824 H 0.78672 0.64493 0.90332 0.0
H825 H 0.7529 0.72503 0.93 0.0
H826 H 0.73234 0.71696 0.94506 0.0
H827 H 0.7311 0.71472 0.91847 0.0
C828 C 0.93661 -0.00194 0.38847 0.0
C829 C 0.95387 0.98808 0.38461 0.0
C830 C 0.92314 0.00135 0.37328 0.0
C831 C 0.92686 0.99406 0.35393 0.0
C832 C 0.94419 0.98375 0.35004 0.0
C833 C 0.95763 0.98108 0.36543 0.0
C834 C 0.90504 0.01278 0.37787 0.0
C835 C 0.94845 0.97541 0.3297 0.0
C836 C 0.88344 0.98673 0.31882 0.0
C837 C 0.88619 0.00276 0.30636 0.0
C838 C 0.89663 0.98367 0.33433 0.0
C839 C 0.91264 0.99723 0.33771 0.0
C840 C 0.91522 0.01367 0.32544 0.0
C841 C 0.90209 0.01611 0.30974 0.0
C842 C 0.89365 0.96574 0.34685 0.0
C843 C 0.93187 0.02867 0.32887 0.0
H844 H 0.93385 0.00357 0.40333 0.0
H845 H 0.97095 0.97323 0.36256 0.0
H846 H 0.90467 0.02578 0.36831 0.0
H847 H 0.89155 0.0036 0.3746 0.0
H848 H 0.90455 0.01781 0.39359 0.0
H849 H 0.96233 0.96731 0.32928 0.0
H850 H 0.93613 0.96529 0.32482 0.0
H851 H 0.94961 0.98737 0.31886 0.0
H852 H 0.87124 0.9763 0.31613 0.0
H853 H 0.90416 0.02859 0.30019 0.0
H854 H 0.89186 0.97016 0.36261 0.0
H855 H 0.90685 0.95668 0.34589 0.0
H856 H 0.88054 0.95655 0.34219 0.0
H857 H 0.93131 0.03461 0.34426 0.0
H858 H 0.93132 0.04106 0.31852 0.0
H859 H 0.94624 0.02166 0.32704 0.0
C860 C 0.25284 0.22176 0.61749 0.0
C861 C 0.23422 0.22984 0.61914 0.0
C862 C 0.25715 0.20882 0.60184 0.0
C863 C 0.24251 0.20393 0.58747 0.0
C864 C 0.22366 0.21198 0.58909 0.0
C865 C 0.21973 0.22482 0.60494 0.0
C866 C 0.27738 0.20042 0.60065 0.0
C867 C 0.20772 0.20719 0.57397 0.0
C868 C 0.25832 0.18552 0.5368 0.0
C869 C 0.25427 0.16529 0.53809 0.0
C870 C 0.25471 0.19825 0.55283 0.0
C871 C 0.24695 0.19055 0.57059 0.0
C872 C 0.24309 0.17012 0.57211 0.0
C873 C 0.24676 0.15773 0.55582 0.0
C874 C 0.25896 0.21998 0.55066 0.0
C875 C 0.23488 0.16138 0.59087 0.0
H876 H 0.26399 0.22543 0.62858 0.0
H877 H 0.2054 0.23123 0.60602 0.0
H878 H 0.27609 0.18417 0.60067 0.0
H879 H 0.28461 0.20465 0.58657 0.0
H880 H 0.28703 0.20553 0.61314 0.0
H881 H 0.19378 0.21452 0.5775 0.0
H882 H 0.21277 0.2118 0.55911 0.0
H883 H 0.20462 0.19112 0.57312 0.0
H884 H 0.2641 0.19149 0.52316 0.0
H885 H 0.24363 0.14211 0.55697 0.0
H886 H 0.26943 0.22544 0.56231 0.0
H887 H 0.24518 0.22801 0.55268 0.0
H888 H 0.26529 0.22358 0.53597 0.0
H889 H 0.24468 0.16546 0.60355 0.0
H890 H 0.23321 0.14514 0.58983 0.0
H891 H 0.22025 0.16739 0.59415 0.0
C892 C 0.46686 0.5497 0.62829 0.0
C893 C 0.47027 0.53282 0.61683 0.0
C894 C 0.45548 0.54868 0.64558 0.0
C895 C 0.44726 0.53034 0.65145 0.0
C896 C 0.4504 0.5133 0.63978 0.0
C897 C 0.46192 0.51474 0.62263 0.0
C898 C 0.45253 0.56714 0.65773 0.0
C899 C 0.44174 0.49351 0.6455 0.0
C900 C 0.43423 0.52292 0.70541 0.0
C901 C 0.41374 0.5249 0.70525 0.0
C902 C 0.44534 0.52491 0.68804 0.0
C903 C 0.43572 0.52887 0.67006 0.0
C904 C 0.41508 0.53105 0.66981 0.0
C905 C 0.40434 0.52909 0.68743 0.0
C906 C 0.46736 0.52259 0.68889 0.0
C907 C 0.40433 0.53521 0.65089 0.0
H908 H 0.47347 0.56367 0.62396 0.0
H909 H 0.46433 0.5017 0.61366 0.0
H910 H 0.43656 0.56951 0.65964 0.0
H911 H 0.4589 0.56561 0.67271 0.0
H912 H 0.45951 0.58031 0.65085 0.0
H913 H 0.44516 0.48178 0.63454 0.0
H914 H 0.44755 0.48946 0.66014 0.0
H915 H 0.42549 0.49414 0.64692 0.0
H916 H 0.44162 0.51974 0.71913 0.0
H917 H 0.38851 0.53062 0.68718 0.0
H918 H 0.47515 0.5359 0.6832 0.0
H919 H 0.4715 0.51005 0.67925 0.0
H920 H 0.47265 0.52005 0.70414 0.0
H921 H 0.41055 0.54884 0.6443 0.0
H922 H 0.38828 0.53682 0.65327 0.0
H923 H 0.40638 0.52312 0.63994 0.0
C924 C 0.76002 0.26194 0.61438 0.0
C925 C 0.77308 0.26732 0.62984 0.0
C926 C 0.75721 0.27442 0.59848 0.0
C927 C 0.76796 0.29257 0.59786 0.0
C928 C 0.78138 0.29797 0.61321 0.0
C929 C 0.78363 0.28538 0.6291 0.0
C930 C 0.7426 0.26829 0.58245 0.0
C931 C 0.79327 0.31713 0.61294 0.0
C932 C 0.77395 0.31781 0.54865 0.0
C933 C 0.76037 0.33269 0.55049 0.0
C934 C 0.77654 0.30458 0.56394 0.0
C935 C 0.76501 0.30609 0.5813 0.0
C936 C 0.75099 0.32084 0.58307 0.0
C937 C 0.74897 0.33409 0.5677 0.0
C938 C 0.79187 0.28924 0.56169 0.0
C939 C 0.7382 0.32267 0.60124 0.0
H940 H 0.75203 0.2479 0.61463 0.0
H941 H 0.79347 0.28988 0.64112 0.0
H942 H 0.73113 0.27935 0.58135 0.0
H943 H 0.75016 0.26757 0.56792 0.0
H944 H 0.73527 0.25378 0.58524 0.0
H945 H 0.80371 0.31875 0.62559 0.0
H946 H 0.80178 0.3182 0.59897 0.0
H947 H 0.78326 0.32958 0.61348 0.0
H948 H 0.78287 0.31673 0.5354 0.0
H949 H 0.73835 0.34549 0.56912 0.0
H950 H 0.78493 0.27439 0.56328 0.0
H951 H 0.80308 0.29129 0.57359 0.0
H952 H 0.79947 0.28989 0.54716 0.0
H953 H 0.72999 0.30859 0.60383 0.0
H954 H 0.72744 0.33443 0.59994 0.0
H955 H 0.74755 0.32592 0.61445 0.0
C956 C 0.55067 0.98269 0.61519 0.0
C957 C 0.53012 0.97986 0.61559 0.0
C958 C 0.5615 0.98539 0.63277 0.0
C959 C 0.55151 0.9851 0.65115 0.0
C960 C 0.5308 0.98191 0.65166 0.0
C961 C 0.52034 0.9794 0.63384 0.0
C962 C 0.58356 0.9889 0.63167 0.0
C963 C 0.5197 0.98131 0.671 0.0
C964 C 0.5818 0.9762 0.69705 0.0
C965 C 0.58492 0.99531 0.70475 0.0
C966 C 0.57074 0.97262 0.67973 0.0
C967 C 0.56273 0.98855 0.66984 0.0
C968 C 0.56566 0.00785 0.67762 0.0
C969 C 0.57668 0.01099 0.69503 0.0
C970 C 0.56777 0.95183 0.67193 0.0
C971 C 0.55739 0.0252 0.66741 0.0
H972 H 0.55823 0.98325 0.60108 0.0
H973 H 0.50447 0.97699 0.63417 0.0
H974 H 0.58773 0.00347 0.63832 0.0
H975 H 0.59109 0.97777 0.64032 0.0
H976 H 0.58911 0.98834 0.61621 0.0
H977 H 0.50366 0.97812 0.66884 0.0
H978 H 0.52565 0.96994 0.68058 0.0
H979 H 0.52172 0.99558 0.67904 0.0
H980 H 0.58807 0.964 0.70451 0.0
H981 H 0.57904 0.0258 0.70086 0.0
H982 H 0.57436 0.95046 0.65697 0.0
H983 H 0.5518 0.94801 0.67044 0.0
H984 H 0.57452 0.94103 0.68168 0.0
H985 H 0.56349 0.02624 0.65223 0.0
H986 H 0.56082 0.03925 0.67551 0.0
H987 H 0.54115 0.02323 0.66598 0.0
C988 C 0.86416 0.23024 0.80036 0.0
C989 C 0.86583 0.23155 0.77974 0.0
C990 C 0.88034 0.23488 0.81275 0.0
C991 C 0.89855 0.24104 0.8043 0.0
C992 C 0.90036 0.2423 0.78351 0.0
C993 C 0.884 0.23748 0.77149 0.0
C994 C 0.87791 0.2333 0.83487 0.0
C995 C 0.91957 0.24879 0.77397 0.0
C996 C 0.93603 0.2706 0.83543 0.0
C997 C 0.94961 0.25639 0.83991 0.0
C998 C 0.91917 0.26574 0.82407 0.0
C999 C 0.9158 0.24619 0.81715 0.0
C1000 C 0.92926 0.2317 0.82194 0.0
C1001 C 0.94604 0.23698 0.83322 0.0
C1002 C 0.90517 0.2816 0.81917 0.0
C1003 C 0.92607 0.21067 0.81492 0.0
H1004 H 0.85011 0.22589 0.80684 0.0
H1005 H 0.88548 0.2382 0.75555 0.0
H1006 H 0.88874 0.22315 0.84079 0.0
H1007 H 0.88094 0.24783 0.84212 0.0
H1008 H 0.86286 0.22794 0.83906 0.0
H1009 H 0.91847 0.24913 0.75758 0.0
H1010 H 0.92422 0.26365 0.77956 0.0
H1011 H 0.93132 0.23874 0.77796 0.0
H1012 H 0.93868 0.28562 0.84055 0.0
H1013 H 0.95641 0.22588 0.83672 0.0
H1014 H 0.89004 0.27737 0.82411 0.0
H1015 H 0.90457 0.28339 0.8029 0.0
H1016 H 0.90959 0.29596 0.82619 0.0
H1017 H 0.9114 0.20487 0.81977 0.0
H1018 H 0.93752 0.20103 0.82057 0.0
H1019 H 0.92623 0.20988 0.79851 0.0
C1020 C 0.511 0.88477 0.45412 0.0
C1021 C 0.49242 0.8929 0.45614 0.0
C1022 C 0.51372 0.86839 0.44171 0.0
C1023 C 0.49751 0.86003 0.43092 0.0
C1024 C 0.47881 0.8684 0.43254 0.0
C1025 C 0.47647 0.88467 0.44521 0.0
C1026 C 0.53387 0.85983 0.44037 0.0
C1027 C 0.4612 0.85994 0.42118 0.0
C1028 C 0.50758 0.82687 0.38658 0.0
C1029 C 0.50415 0.80822 0.39449 0.0
C1030 C 0.50546 0.84389 0.39825 0.0
C1031 C 0.49996 0.84219 0.41835 0.0
C1032 C 0.49665 0.82341 0.42648 0.0
C1033 C 0.4987 0.80665 0.41443 0.0
C1034 C 0.50894 0.86369 0.38906 0.0
C1035 C 0.49093 0.82102 0.44791 0.0
H1036 H 0.52346 0.89124 0.46227 0.0
H1037 H 0.46201 0.89068 0.44688 0.0
H1038 H 0.5331 0.84446 0.44543 0.0
H1039 H 0.53893 0.85951 0.42478 0.0
H1040 H 0.54502 0.86827 0.44947 0.0
H1041 H 0.44791 0.86872 0.42337 0.0
H1042 H 0.4646 0.85916 0.40514 0.0
H1043 H 0.45772 0.84475 0.42597 0.0
H1044 H 0.51172 0.8282 0.37117 0.0
H1045 H 0.4961 0.79229 0.42067 0.0
H1046 H 0.52076 0.87215 0.39719 0.0
H1047 H 0.49539 0.87222 0.39021 0.0
H1048 H 0.51319 0.86249 0.37322 0.0
H1049 H 0.50228 0.8283 0.45765 0.0
H1050 H 0.48919 0.80538 0.45201 0.0
H1051 H 0.47684 0.82824 0.45089 0.0
C1052 C 0.12439 0.29528 0.77384 0.0
C1053 C 0.12583 0.28514 0.75564 0.0
C1054 C 0.10787 0.29252 0.78605 0.0
C1055 C 0.09256 0.27901 0.78012 0.0
C1056 C 0.09387 0.26871 0.76182 0.0
C1057 C 0.11039 0.27203 0.74972 0.0
C1058 C 0.10687 0.30395 0.80537 0.0
C1059 C 0.0779 0.25404 0.75511 0.0
C1060 C 0.05987 0.25837 0.82079 0.0
C1061 C 0.04295 0.2693 0.8188 0.0
C1062 C 0.076 0.26115 0.80806 0.0
C1063 C 0.07531 0.27545 0.79325 0.0
C1064 C 0.05827 0.28655 0.79118 0.0
C1065 C 0.04221 0.28321 0.80388 0.0
C1066 C 0.09379 0.24879 0.81049 0.0
C1067 C 0.05715 0.30217 0.77577 0.0
H1068 H 0.13635 0.30517 0.77875 0.0
H1069 H 0.11115 0.26439 0.73555 0.0
H1070 H 0.09306 0.31211 0.80607 0.0
H1071 H 0.1066 0.29373 0.81792 0.0
H1072 H 0.11958 0.31454 0.80739 0.0
H1073 H 0.08125 0.24709 0.74055 0.0
H1074 H 0.076 0.24236 0.7662 0.0
H1075 H 0.06363 0.26131 0.75398 0.0
H1076 H 0.06045 0.24751 0.83223 0.0
H1077 H 0.02921 0.29178 0.80236 0.0
H1078 H 0.10693 0.25833 0.81416 0.0
H1079 H 0.09694 0.24094 0.79637 0.0
H1080 H 0.09171 0.23784 0.8223 0.0
H1081 H 0.06915 0.31346 0.77825 0.0
H1082 H 0.04281 0.30948 0.77607 0.0
H1083 H 0.0593 0.29567 0.7608 0.0
C1084 C 0.53578 0.62203 0.45176 0.0
C1085 C 0.51901 0.61238 0.4596 0.0
C1086 C 0.53405 0.63743 0.43855 0.0
C1087 C 0.5151 0.64337 0.43311 0.0
C1088 C 0.49811 0.63356 0.44078 0.0
C1089 C 0.50027 0.61816 0.45392 0.0
C1090 C 0.55251 0.64756 0.43068 0.0
C1091 C 0.47765 0.6395 0.43528 0.0
C1092 C 0.51035 0.69531 0.41537 0.0
C1093 C 0.5091 0.6924 0.3948 0.0
C1094 C 0.51229 0.67947 0.428 0.0
C1095 C 0.51306 0.66025 0.41985 0.0
C1096 C 0.5119 0.6572 0.39911 0.0
C1097 C 0.50991 0.67332 0.38681 0.0
C1098 C 0.51346 0.68329 0.45007 0.0
C1099 C 0.51274 0.6369 0.38991 0.0
H1100 H 0.5503 0.61782 0.45631 0.0
H1101 H 0.48726 0.61058 0.45971 0.0
H1102 H 0.5523 0.64725 0.41427 0.0
H1103 H 0.55311 0.66318 0.43558 0.0
H1104 H 0.56612 0.64066 0.43576 0.0
H1105 H 0.46596 0.63009 0.4422 0.0
H1106 H 0.47558 0.65494 0.44001 0.0
H1107 H 0.47573 0.63866 0.41898 0.0
H1108 H 0.50972 0.71 0.42168 0.0
H1109 H 0.50897 0.67094 0.37093 0.0
H1110 H 0.52745 0.67786 0.45595 0.0
H1111 H 0.50122 0.67516 0.45756 0.0
H1112 H 0.51265 0.69911 0.45403 0.0
H1113 H 0.52672 0.63016 0.39407 0.0
H1114 H 0.51171 0.63702 0.37351 0.0
H1115 H 0.5005 0.62739 0.39564 0.0
C1116 C 0.86669 0.76941 0.69577 0.0
C1117 C 0.86818 0.76586 0.71607 0.0
C1118 C 0.88271 0.76666 0.68306 0.0
C1119 C 0.90061 0.76016 0.69085 0.0
C1120 C 0.90214 0.7563 0.71127 0.0
C1121 C 0.88592 0.75924 0.72364 0.0
C1122 C 0.88057 0.77091 0.66135 0.0
C1123 C 0.92102 0.74936 0.7201 0.0
C1124 C 0.9381 0.73757 0.65651 0.0
C1125 C 0.95187 0.75322 0.65434 0.0
C1126 C 0.92119 0.73968 0.66817 0.0
C1127 C 0.91797 0.75789 0.67778 0.0
C1128 C 0.93164 0.77383 0.67537 0.0
C1129 C 0.94844 0.7713 0.66371 0.0
C1130 C 0.90693 0.72235 0.67047 0.0
C1131 C 0.92864 0.7935 0.68533 0.0
H1132 H 0.85293 0.77427 0.6898 0.0
H1133 H 0.88726 0.75674 0.73936 0.0
H1134 H 0.89135 0.78271 0.65714 0.0
H1135 H 0.88386 0.75771 0.65228 0.0
H1136 H 0.86553 0.77551 0.65758 0.0
H1137 H 0.91956 0.74638 0.73614 0.0
H1138 H 0.92552 0.73578 0.71233 0.0
H1139 H 0.93304 0.76061 0.71811 0.0
H1140 H 0.94064 0.72356 0.64932 0.0
H1141 H 0.95897 0.78349 0.66203 0.0
H1142 H 0.89191 0.72629 0.66595 0.0
H1143 H 0.90614 0.71821 0.68624 0.0
H1144 H 0.91126 0.70938 0.66152 0.0
H1145 H 0.91414 0.79909 0.68105 0.0
H1146 H 0.94034 0.80458 0.68145 0.0
H1147 H 0.92852 0.79192 0.70163 0.0
C1148 C 0.00747 0.89502 0.54767 0.0
C1149 C 0.00882 0.89225 0.52712 0.0
C1150 C 0.00568 0.87896 0.56024 0.0
C1151 C 0.00541 0.85971 0.55202 0.0
C1152 C 0.0068 0.85683 0.53128 0.0
C1153 C 0.00839 0.87316 0.51906 0.0
C1154 C 0.00401 0.88259 0.58227 0.0
C1155 C 0.00674 0.83651 0.52201 0.0
C1156 C 0.01874 0.81811 0.58527 0.0
C1157 C 0.00012 0.80971 0.58966 0.0
C1158 C 0.02069 0.8344 0.57301 0.0
C1159 C 0.00359 0.84256 0.56513 0.0
C1160 C 0.98476 0.83428 0.56967 0.0
C1161 C 0.98325 0.81789 0.58181 0.0
C1162 C 0.04104 0.84277 0.56835 0.0
C1163 C 0.96619 0.84271 0.56167 0.0
H1164 H 0.00761 0.90978 0.5539 0.0
H1165 H 0.00967 0.871 0.50318 0.0
H1166 H 0.99007 0.8757 0.58783 0.0
H1167 H 0.01629 0.87572 0.59003 0.0
H1168 H 0.00432 0.89847 0.58627 0.0
H1169 H 0.00807 0.83681 0.50564 0.0
H1170 H 0.01915 0.82832 0.52799 0.0
H1171 H 0.99292 0.82826 0.52585 0.0
H1172 H 0.03185 0.81182 0.59124 0.0
H1173 H 0.9688 0.81153 0.5852 0.0
H1174 H 0.04234 0.85839 0.57321 0.0
H1175 H 0.04351 0.84225 0.55213 0.0
H1176 H 0.05283 0.83469 0.57565 0.0
H1177 H 0.96547 0.85837 0.56623 0.0
H1178 H 0.95265 0.83477 0.56691 0.0
H1179 H 0.96635 0.84207 0.54526 0.0
C1180 C 0.12165 0.7254 0.72721 0.0
C1181 C 0.12155 0.73414 0.74619 0.0
C1182 C 0.10636 0.72819 0.71373 0.0
C1183 C 0.09076 0.74033 0.7192 0.0
C1184 C 0.09064 0.74941 0.7382 0.0
C1185 C 0.10593 0.74606 0.75153 0.0
C1186 C 0.10686 0.71807 0.69366 0.0
C1187 C 0.07433 0.76262 0.74447 0.0
C1188 C 0.0607 0.76081 0.67759 0.0
C1189 C 0.04375 0.74843 0.67778 0.0
C1190 C 0.076 0.75856 0.69121 0.0
C1191 C 0.07443 0.74332 0.70508 0.0
C1192 C 0.05738 0.73073 0.70529 0.0
C1193 C 0.04216 0.73356 0.69175 0.0
C1194 C 0.09383 0.77247 0.69079 0.0
C1195 C 0.05534 0.71411 0.71964 0.0
H1196 H 0.1338 0.71648 0.72276 0.0
H1197 H 0.10552 0.75264 0.76624 0.0
H1198 H 0.09328 0.70871 0.69142 0.0
H1199 H 0.10722 0.72912 0.68185 0.0
H1200 H 0.11984 0.70879 0.69185 0.0
H1201 H 0.0768 0.76915 0.7595 0.0
H1202 H 0.0731 0.77466 0.73381 0.0
H1203 H 0.06002 0.75422 0.74436 0.0
H1204 H 0.06193 0.77241 0.66689 0.0
H1205 H 0.02914 0.72386 0.69188 0.0
H1206 H 0.10725 0.76421 0.6876 0.0
H1207 H 0.09596 0.77977 0.7055 0.0
H1208 H 0.09249 0.78391 0.67948 0.0
H1209 H 0.0676 0.70399 0.71746 0.0
H1210 H 0.04115 0.7056 0.71783 0.0
H1211 H 0.05635 0.7199 0.73507 0.0
C1212 C 0.97404 0.63265 0.54475 0.0
C1213 C 0.989 0.6241 0.53359 0.0
C1214 C 0.97823 0.64864 0.55761 0.0
C1215 C 0.99781 0.6564 0.55921 0.0
C1216 C 0.01294 0.64803 0.54782 0.0
C1217 C 0.00837 0.63192 0.53522 0.0
C1218 C 0.96172 0.65717 0.56957 0.0
C1219 C 0.03397 0.656 0.54908 0.0
C1220 C 0.00462 0.70832 0.57979 0.0
C1221 C 0.00972 0.70502 0.59953 0.0
C1222 C 0.00105 0.69263 0.5664 0.0
C1223 C 0.00245 0.67319 0.57295 0.0
C1224 C 0.00783 0.66975 0.59278 0.0
C1225 C 0.01149 0.68573 0.60581 0.0
C1226 C 0.99554 0.69684 0.5453 0.0
C1227 C 0.00934 0.64919 0.60031 0.0
H1228 H 0.95899 0.6269 0.54335 0.0
H1229 H 0.02005 0.62523 0.52687 0.0
H1230 H 0.96509 0.65643 0.5856 0.0
H1231 H 0.96033 0.67286 0.56609 0.0
H1232 H 0.94731 0.64936 0.56668 0.0
H1233 H 0.0439 0.64817 0.53882 0.0
H1234 H 0.03465 0.67181 0.54555 0.0
H1235 H 0.03959 0.6547 0.56439 0.0
H1236 H 0.00331 0.7232 0.57481 0.0
H1237 H 0.01537 0.68305 0.62105 0.0
H1238 H 0.98054 0.69059 0.54201 0.0
H1239 H 0.00584 0.68971 0.53492 0.0
H1240 H 0.9958 0.7128 0.54238 0.0
H1241 H 0.99483 0.64123 0.59894 0.0
H1242 H 0.01411 0.64904 0.61603 0.0
H1243 H 0.01998 0.64099 0.59122 0.0
C1244 C 0.78574 0.88244 0.20899 0.0
C1245 C 0.76709 0.88118 0.21797 0.0
C1246 C 0.79919 0.89796 0.21357 0.0
C1247 C 0.79408 0.91237 0.22779 0.0
C1248 C 0.77542 0.91114 0.23708 0.0
C1249 C 0.76208 0.89567 0.23191 0.0
C1250 C 0.81888 0.89895 0.20316 0.0
C1251 C 0.76956 0.92613 0.2525 0.0
C1252 C 0.83593 0.94215 0.2525 0.0
C1253 C 0.83529 0.9599 0.24253 0.0
C1254 C 0.82244 0.92661 0.24801 0.0
C1255 C 0.80828 0.92878 0.23291 0.0
C1256 C 0.80773 0.9466 0.22263 0.0
C1257 C 0.82112 0.96203 0.22771 0.0
C1258 C 0.82322 0.90794 0.25953 0.0
C1259 C 0.79308 0.9493 0.20618 0.0
H1260 H 0.78995 0.87115 0.1985 0.0
H1261 H 0.74762 0.89506 0.23871 0.0
H1262 H 0.8209 0.91316 0.19562 0.0
H1263 H 0.83097 0.89813 0.21412 0.0
H1264 H 0.82034 0.8869 0.19202 0.0
H1265 H 0.75472 0.92274 0.25877 0.0
H1266 H 0.78047 0.92686 0.26475 0.0
H1267 H 0.76954 0.94088 0.24593 0.0
H1268 H 0.84676 0.94052 0.26408 0.0
H1269 H 0.82067 0.9757 0.21987 0.0
H1270 H 0.82602 0.8954 0.24936 0.0
H1271 H 0.80881 0.90482 0.26676 0.0
H1272 H 0.8349 0.90875 0.27107 0.0
H1273 H 0.79489 0.93791 0.19445 0.0
H1274 H 0.79482 0.96396 0.19943 0.0
H1275 H 0.77783 0.94748 0.21192 0.0
C1276 C 0.74898 0.12114 0.27275 0.0
C1277 C 0.75605 0.13743 0.284 0.0
C1278 C 0.76072 0.10495 0.26931 0.0
C1279 C 0.77988 0.10494 0.27755 0.0
C1280 C 0.78707 0.12125 0.28902 0.0
C1281 C 0.77515 0.13735 0.29196 0.0
C1282 C 0.75263 0.08786 0.25685 0.0
C1283 C 0.80739 0.1217 0.29818 0.0
C1284 C 0.80373 0.05617 0.28424 0.0
C1285 C 0.81703 0.05591 0.26839 0.0
C1286 C 0.79152 0.07204 0.28739 0.0
C1287 C 0.79246 0.08788 0.2742 0.0
C1288 C 0.80566 0.08758 0.25801 0.0
C1289 C 0.81791 0.07165 0.25538 0.0
C1290 C 0.77781 0.07199 0.30498 0.0
C1291 C 0.80687 0.1041 0.24349 0.0
H1292 H 0.73416 0.12093 0.26677 0.0
H1293 H 0.7809 0.15 0.30036 0.0
H1294 H 0.76252 0.0852 0.2441 0.0
H1295 H 0.75206 0.07435 0.2657 0.0
H1296 H 0.7376 0.09034 0.25115 0.0
H1297 H 0.81059 0.1353 0.3071 0.0
H1298 H 0.80886 0.1089 0.30785 0.0
H1299 H 0.81871 0.1206 0.28642 0.0
H1300 H 0.80305 0.04408 0.29439 0.0
H1301 H 0.82807 0.07147 0.24302 0.0
H1302 H 0.76235 0.07319 0.29996 0.0
H1303 H 0.78136 0.08491 0.31476 0.0
H1304 H 0.77881 0.05851 0.31379 0.0
H1305 H 0.79215 0.10618 0.2369 0.0
H1306 H 0.81752 0.10136 0.23136 0.0
H1307 H 0.81141 0.11801 0.25128 0.0
C1308 C 0.38041 0.9626 0.9818 0.0
C1309 C 0.39162 0.97064 0.99763 0.0
C1310 C 0.36308 0.95132 0.98515 0.0
C1311 C 0.35677 0.94808 0.00481 0.0
C1312 C 0.36797 0.95618 0.02085 0.0
C1313 C 0.38529 0.96733 0.01707 0.0
C1314 C 0.3515 0.9429 0.96767 0.0
C1315 C 0.36168 0.95303 0.04201 0.0
C1316 C 0.30289 0.93386 0.01318 0.0
C1317 C 0.30359 0.91352 0.01542 0.0
C1318 C 0.32011 0.94531 0.00982 0.0
C1319 C 0.33844 0.93618 0.00858 0.0
C1320 C 0.33927 0.91567 0.01085 0.0
C1321 C 0.32182 0.90459 0.01429 0.0
C1322 C 0.3187 0.96717 0.00755 0.0
C1323 C 0.35856 0.90542 0.00954 0.0
H1324 H 0.38507 0.96534 0.96674 0.0
H1325 H 0.39403 0.97326 0.02938 0.0
H1326 H 0.35008 0.92671 0.96864 0.0
H1327 H 0.33638 0.9485 0.96785 0.0
H1328 H 0.35852 0.94665 0.95332 0.0
H1329 H 0.37193 0.96052 0.0528 0.0
H1330 H 0.3467 0.95856 0.0444 0.0
H1331 H 0.36094 0.93712 0.04511 0.0
H1332 H 0.28886 0.94089 0.01407 0.0
H1333 H 0.32249 0.88887 0.01596 0.0
H1334 H 0.32437 0.97153 0.99283 0.0
H1335 H 0.32801 0.97508 0.01885 0.0
H1336 H 0.30333 0.97203 0.00908 0.0
H1337 H 0.36541 0.9079 0.99486 0.0
H1338 H 0.35668 0.88938 0.01171 0.0
H1339 H 0.36899 0.91163 0.02087 0.0
C1340 C 0.2071 0.36263 0.28799 0.0
C1341 C 0.22711 0.36453 0.28291 0.0
C1342 C 0.19481 0.37861 0.28695 0.0
C1343 C 0.20269 0.39688 0.28053 0.0
C1344 C 0.22285 0.39892 0.27537 0.0
C1345 C 0.23484 0.38273 0.27669 0.0
C1346 C 0.17337 0.37592 0.2926 0.0
C1347 C 0.23174 0.41819 0.26843 0.0
C1348 C 0.16747 0.43306 0.25981 0.0
C1349 C 0.16548 0.44621 0.27585 0.0
C1350 C 0.17954 0.41694 0.26114 0.0
C1351 C 0.18976 0.41383 0.27898 0.0
C1352 C 0.1877 0.42694 0.29528 0.0
C1353 C 0.17561 0.44301 0.2935 0.0
C1354 C 0.18147 0.40331 0.24342 0.0
C1355 C 0.19829 0.42399 0.31458 0.0
H1356 H 0.20097 0.34855 0.29255 0.0
H1357 H 0.25034 0.38438 0.27302 0.0
H1358 H 0.16972 0.38654 0.30456 0.0
H1359 H 0.16388 0.37891 0.27973 0.0
H1360 H 0.16967 0.36087 0.29772 0.0
H1361 H 0.24767 0.41732 0.26494 0.0
H1362 H 0.22391 0.42285 0.25502 0.0
H1363 H 0.22993 0.42975 0.28 0.0
H1364 H 0.15972 0.43545 0.2461 0.0
H1365 H 0.17411 0.45307 0.30598 0.0
H1366 H 0.17678 0.38815 0.24739 0.0
H1367 H 0.19712 0.40299 0.23875 0.0
H1368 H 0.17249 0.40776 0.23065 0.0
H1369 H 0.19407 0.40939 0.32051 0.0
H1370 H 0.19494 0.43539 0.32592 0.0
H1371 H 0.21445 0.42429 0.31209 0.0
C1372 C 0.11272 0.04354 0.49544 0.0
C1373 C 0.10668 0.0379 0.47624 0.0
C1374 C 0.12972 0.05549 0.49862 0.0
C1375 C 0.1409 0.06201 0.4822 0.0
C1376 C 0.13469 0.0567 0.46277 0.0
C1377 C 0.11765 0.04468 0.46001 0.0
C1378 C 0.13588 0.0609 0.51957 0.0
C1379 C 0.14625 0.06341 0.4449 0.0
C1380 C 0.17681 0.10554 0.4897 0.0
C1381 C 0.19477 0.09627 0.49164 0.0
C1382 C 0.15914 0.09458 0.48655 0.0
C1383 C 0.15946 0.07388 0.48541 0.0
C1384 C 0.17752 0.06443 0.48743 0.0
C1385 C 0.19496 0.07575 0.49049 0.0
C1386 C 0.14014 0.10513 0.48441 0.0
C1387 C 0.17841 0.04236 0.48637 0.0
H1388 H 0.10412 0.03861 0.50801 0.0
H1389 H 0.11317 0.04019 0.44515 0.0
H1390 H 0.1506 0.05512 0.52264 0.0
H1391 H 0.1372 0.07707 0.52148 0.0
H1392 H 0.12528 0.05503 0.53068 0.0
H1393 H 0.13898 0.05868 0.43078 0.0
H1394 H 0.14815 0.07962 0.44519 0.0
H1395 H 0.1612 0.0574 0.44523 0.0
H1396 H 0.17654 0.1214 0.49052 0.0
H1397 H 0.20877 0.06847 0.49199 0.0
H1398 H 0.12952 0.10034 0.49597 0.0
H1399 H 0.13328 0.10135 0.46985 0.0
H1400 H 0.14241 0.12132 0.48562 0.0
H1401 H 0.16894 0.03576 0.49803 0.0
H1402 H 0.19364 0.0373 0.48824 0.0
H1403 H 0.17262 0.03674 0.47189 0.0
C1404 C 0.71874 0.11706 0.75067 0.0
C1405 C 0.71379 0.13166 0.73743 0.0
C1406 C 0.70564 0.10118 0.75442 0.0
C1407 C 0.6873 0.09968 0.74445 0.0
C1408 C 0.68212 0.11441 0.73121 0.0
C1409 C 0.69535 0.1303 0.72799 0.0
C1410 C 0.71158 0.08584 0.76882 0.0
C1411 C 0.66275 0.1132 0.72017 0.0
C1412 C 0.66322 0.04886 0.73859 0.0
C1413 C 0.64853 0.04925 0.75315 0.0
C1414 C 0.67578 0.06528 0.73545 0.0
C1415 C 0.6738 0.08236 0.7474 0.0
C1416 C 0.65905 0.08283 0.76217 0.0
C1417 C 0.64646 0.0663 0.76476 0.0
C1418 C 0.69114 0.06435 0.71934 0.0
C1419 C 0.65673 0.1007 0.77538 0.0
H1420 H 0.73304 0.11778 0.75781 0.0
H1421 H 0.69122 0.14169 0.71804 0.0
H1422 H 0.70006 0.08382 0.78032 0.0
H1423 H 0.71291 0.07154 0.76093 0.0
H1424 H 0.72584 0.08976 0.77622 0.0
H1425 H 0.66089 0.12596 0.7105 0.0
H1426 H 0.6618 0.09961 0.71086 0.0
H1427 H 0.65031 0.11242 0.73078 0.0
H1428 H 0.6648 0.03576 0.72949 0.0
H1429 H 0.63521 0.06662 0.77612 0.0
H1430 H 0.70609 0.06655 0.72583 0.0
H1431 H 0.68915 0.07631 0.70874 0.0
H1432 H 0.69042 0.05012 0.71104 0.0
H1433 H 0.67064 0.10409 0.78361 0.0
H1434 H 0.64456 0.09867 0.78621 0.0
H1435 H 0.65377 0.11362 0.76631 0.0
C1436 C 0.3894 0.04068 0.49287 0.0
C1437 C 0.39559 0.03487 0.51158 0.0
C1438 C 0.37309 0.05249 0.49084 0.0
C1439 C 0.36281 0.05867 0.50793 0.0
C1440 C 0.36902 0.05293 0.52685 0.0
C1441 C 0.38529 0.04104 0.52844 0.0
C1442 C 0.36684 0.05833 0.47042 0.0
C1443 C 0.35842 0.05924 0.54542 0.0
C1444 C 0.33126 0.10319 0.50498 0.0
C1445 C 0.31228 0.09447 0.50316 0.0
C1446 C 0.34786 0.09171 0.50648 0.0
C1447 C 0.34542 0.07103 0.50605 0.0
C1448 C 0.32632 0.06213 0.50414 0.0
C1449 C 0.30997 0.07396 0.50276 0.0
C1450 C 0.36801 0.1017 0.50861 0.0
C1451 C 0.32317 0.0401 0.50357 0.0
H1452 H 0.39743 0.03616 0.47981 0.0
H1453 H 0.3898 0.03633 0.54292 0.0
H1454 H 0.35139 0.05313 0.46756 0.0
H1455 H 0.36732 0.07454 0.46941 0.0
H1456 H 0.37638 0.05224 0.45863 0.0
H1457 H 0.36536 0.0538 0.55903 0.0
H1458 H 0.35828 0.07548 0.54644 0.0
H1459 H 0.34284 0.05371 0.54487 0.0
H1460 H 0.33316 0.11903 0.50532 0.0
H1461 H 0.29537 0.0671 0.5013 0.0
H1462 H 0.37772 0.09692 0.49638 0.0
H1463 H 0.37493 0.09739 0.52266 0.0
H1464 H 0.3674 0.11794 0.50853 0.0
H1465 H 0.33166 0.03367 0.49118 0.0
H1466 H 0.30739 0.03549 0.50174 0.0
H1467 H 0.32871 0.03387 0.51744 0.0
C1468 C 0.63174 0.48221 0.54063 0.0
C1469 C 0.61781 0.48084 0.5253 0.0
C1470 C 0.64913 0.47181 0.53953 0.0
C1471 C 0.65256 0.45966 0.52276 0.0
C1472 C 0.63845 0.45806 0.50733 0.0
C1473 C 0.62126 0.46875 0.50875 0.0
C1474 C 0.66394 0.47399 0.55618 0.0
C1475 C 0.64151 0.44509 0.48931 0.0
C1476 C 0.70483 0.44638 0.50985 0.0
C1477 C 0.70555 0.42737 0.51719 0.0
C1478 C 0.68775 0.45719 0.51184 0.0
C1479 C 0.67098 0.44869 0.52125 0.0
C1480 C 0.67167 0.42959 0.52887 0.0
C1481 C 0.68899 0.41917 0.52682 0.0
C1482 C 0.68759 0.4776 0.50368 0.0
C1483 C 0.65402 0.42002 0.5389 0.0
H1484 H 0.6292 0.49173 0.55333 0.0
H1485 H 0.6104 0.46752 0.49698 0.0
H1486 H 0.66661 0.45946 0.56249 0.0
H1487 H 0.67824 0.47986 0.55044 0.0
H1488 H 0.65897 0.48393 0.56825 0.0
H1489 H 0.62896 0.44525 0.47877 0.0
H1490 H 0.65515 0.44995 0.48149 0.0
H1491 H 0.64347 0.42977 0.49387 0.0
H1492 H 0.71759 0.45284 0.50246 0.0
H1493 H 0.68942 0.40447 0.53249 0.0
H1494 H 0.68365 0.48824 0.51553 0.0
H1495 H 0.67622 0.47821 0.49195 0.0
H1496 H 0.70207 0.48233 0.49736 0.0
H1497 H 0.64936 0.42926 0.55163 0.0
H1498 H 0.65708 0.40519 0.54432 0.0
H1499 H 0.64144 0.41871 0.52842 0.0
C1500 C 0.73272 0.28277 0.39652 0.0
C1501 C 0.7266 0.28981 0.37826 0.0
C1502 C 0.73788 0.29569 0.41222 0.0
C1503 C 0.73679 0.31613 0.40963 0.0
C1504 C 0.73074 0.32336 0.39121 0.0
C1505 C 0.72574 0.3101 0.37573 0.0
C1506 C 0.74424 0.28745 0.43168 0.0
C1507 C 0.72941 0.34507 0.38793 0.0
C1508 C 0.73138 0.34724 0.45623 0.0
C1509 C 0.75079 0.35439 0.45945 0.0
C1510 C 0.72656 0.33508 0.43984 0.0
C1511 C 0.74153 0.32989 0.42639 0.0
C1512 C 0.76108 0.33732 0.42933 0.0
C1513 C 0.76548 0.34954 0.44582 0.0
C1514 C 0.70551 0.32751 0.43713 0.0
C1515 C 0.77743 0.33204 0.41528 0.0
H1516 H 0.73315 0.2671 0.39866 0.0
H1517 H 0.72128 0.31562 0.36156 0.0
H1518 H 0.75901 0.29371 0.43591 0.0
H1519 H 0.73383 0.29165 0.44353 0.0
H1520 H 0.74487 0.27121 0.43107 0.0
H1521 H 0.72472 0.34831 0.37264 0.0
H1522 H 0.71873 0.35138 0.39848 0.0
H1523 H 0.74392 0.35262 0.39084 0.0
H1524 H 0.71991 0.35099 0.46664 0.0
H1525 H 0.78051 0.355 0.4482 0.0
H1526 H 0.70479 0.31128 0.43792 0.0
H1527 H 0.70004 0.33135 0.42229 0.0
H1528 H 0.69548 0.33353 0.44851 0.0
H1529 H 0.7794 0.31598 0.41537 0.0
H1530 H 0.79169 0.33964 0.41924 0.0
H1531 H 0.77349 0.33586 0.39995 0.0
C1532 C 0.55849 0.99699 0.89812 0.0
C1533 C 0.54119 0.00737 0.89676 0.0
C1534 C 0.57064 0.99446 0.88155 0.0
C1535 C 0.56553 0.00299 0.86342 0.0
C1536 C 0.54803 0.0135 0.86203 0.0
C1537 C 0.53593 0.01538 0.8787 0.0
C1538 C 0.58895 0.98278 0.88345 0.0
C1539 C 0.54233 0.02316 0.84307 0.0
C1540 C 0.60653 0.01394 0.82673 0.0
C1541 C 0.60313 -0.00094 0.81242 0.0
C1542 C 0.59436 0.01541 0.8434 0.0
C1543 C 0.57874 0.00136 0.84602 0.0
C1544 C 0.57553 0.98603 0.83182 0.0
C1545 C 0.58762 0.98521 0.81503 0.0
C1546 C 0.59796 0.03222 0.85799 0.0
C1547 C 0.5593 0.97054 0.83437 0.0
H1548 H 0.56243 0.99074 0.91213 0.0
H1549 H 0.52259 0.02356 0.87779 0.0
H1550 H 0.58886 0.97082 0.87208 0.0
H1551 H 0.60223 0.99234 0.88082 0.0
H1552 H 0.59025 0.97626 0.89829 0.0
H1553 H 0.52824 0.03082 0.84447 0.0
H1554 H 0.5541 0.03396 0.83874 0.0
H1555 H 0.54083 0.01205 0.8309 0.0
H1556 H 0.61843 0.02475 0.82465 0.0
H1557 H 0.58507 0.9736 0.80403 0.0
H1558 H 0.60084 0.02652 0.87292 0.0
H1559 H 0.58462 0.04107 0.85912 0.0
H1560 H 0.61065 0.04199 0.85371 0.0
H1561 H 0.5609 0.96339 0.84885 0.0
H1562 H 0.55935 0.95909 0.82245 0.0
H1563 H 0.54476 0.9774 0.83438 0.0
C1564 C 0.26002 0.21608 0.38103 0.0
C1565 C 0.27052 0.21117 0.36387 0.0
C1566 C 0.25637 0.20232 0.39581 0.0
C1567 C 0.26365 0.18327 0.39352 0.0
C1568 C 0.27426 0.17818 0.37628 0.0
C1569 C 0.27745 0.19215 0.36159 0.0
C1570 C 0.24489 0.20823 0.41397 0.0
C1571 C 0.28237 0.15803 0.37343 0.0
C1572 C 0.27056 0.15508 0.44056 0.0
C1573 C 0.2538 0.14241 0.4404 0.0
C1574 C 0.27414 0.16818 0.42517 0.0
C1575 C 0.26048 0.1688 0.4094 0.0
C1576 C 0.24361 0.15595 0.40906 0.0
C1577 C 0.24054 0.14279 0.42452 0.0
C1578 C 0.29244 0.18148 0.42589 0.0
C1579 C 0.22862 0.1564 0.39258 0.0
H1580 H 0.25488 0.23082 0.38307 0.0
H1581 H 0.28529 0.18812 0.34825 0.0
H1582 H 0.23198 0.19798 0.41594 0.0
H1583 H 0.25427 0.20732 0.42733 0.0
H1584 H 0.23958 0.22338 0.41311 0.0
H1585 H 0.29033 0.15642 0.35917 0.0
H1586 H 0.29264 0.15504 0.38568 0.0
H1587 H 0.27022 0.14671 0.37387 0.0
H1588 H 0.28093 0.15476 0.45274 0.0
H1589 H 0.22751 0.13309 0.42437 0.0
H1590 H 0.28824 0.19702 0.42669 0.0
H1591 H 0.30116 0.17953 0.41216 0.0
H1592 H 0.30196 0.17862 0.4388 0.0
H1593 H 0.22218 0.17108 0.39222 0.0
H1594 H 0.21648 0.14519 0.39432 0.0
H1595 H 0.23584 0.15387 0.37809 0.0
C1596 C 0.44816 0.48166 0.87468 0.0
C1597 C 0.45624 0.49709 0.88649 0.0
C1598 C 0.43514 0.48523 0.85918 0.0
C1599 C 0.43012 0.50471 0.85535 0.0
C1600 C 0.43817 0.52037 0.86723 0.0
C1601 C 0.45114 0.51636 0.88268 0.0
C1602 C 0.42691 0.46816 0.84678 0.0
C1603 C 0.43313 0.54133 0.86357 0.0
C1604 C 0.41179 0.51443 0.8036 0.0
C1605 C 0.3913 0.51409 0.80635 0.0
C1606 C 0.42461 0.51177 0.81951 0.0
C1607 C 0.41675 0.50866 0.83862 0.0
C1608 C 0.39611 0.5086 0.84157 0.0
C1609 C 0.38361 0.51134 0.82539 0.0
C1610 C 0.44655 0.51197 0.81579 0.0
C1611 C 0.38721 0.5053 0.86176 0.0
H1612 H 0.45228 0.46676 0.87734 0.0
H1613 H 0.45718 0.52832 0.8919 0.0
H1614 H 0.41057 0.46787 0.84711 0.0
H1615 H 0.43148 0.46987 0.83114 0.0
H1616 H 0.43195 0.45386 0.85199 0.0
H1617 H 0.44047 0.5518 0.87428 0.0
H1618 H 0.43762 0.54543 0.84838 0.0
H1619 H 0.41695 0.54289 0.86459 0.0
H1620 H 0.41787 0.51662 0.78896 0.0
H1621 H 0.3678 0.51109 0.82765 0.0
H1622 H 0.45238 0.4975 0.81936 0.0
H1623 H 0.45419 0.52306 0.8256 0.0
H1624 H 0.45032 0.51527 0.80019 0.0
H1625 H 0.39082 0.49055 0.86694 0.0
H1626 H 0.37093 0.50642 0.86172 0.0
H1627 H 0.39359 0.51618 0.87262 0.0
C1628 C 0.71592 0.73002 0.0987 0.0
C1629 C 0.7287 0.73441 0.1146 0.0
C1630 C 0.72135 0.71723 0.08332 0.0
C1631 C 0.7399 0.70848 0.08403 0.0
C1632 C 0.75279 0.71273 0.10015 0.0
C1633 C 0.74706 0.72574 0.11521 0.0
C1634 C 0.70732 0.7132 0.06625 0.0
C1635 C 0.77258 0.70348 0.10151 0.0
C1636 C 0.74601 0.66215 0.05303 0.0
C1637 C 0.75629 0.6694 0.03657 0.0
C1638 C 0.74083 0.67467 0.06873 0.0
C1639 C 0.74586 0.69494 0.06783 0.0
C1640 C 0.75635 0.70233 0.05133 0.0
C1641 C 0.76155 0.68944 0.03594 0.0
C1642 C 0.72983 0.66624 0.08621 0.0
C1643 C 0.76182 0.7239 0.04979 0.0
H1644 H 0.70179 0.73687 0.09814 0.0
H1645 H 0.75686 0.72895 0.12762 0.0
H1646 H 0.71452 0.7175 0.05217 0.0
H1647 H 0.70349 0.69728 0.06502 0.0
H1648 H 0.69349 0.72126 0.06791 0.0
H1649 H 0.78075 0.70814 0.11516 0.0
H1650 H 0.77058 0.68728 0.10128 0.0
H1651 H 0.78173 0.70747 0.0885 0.0
H1652 H 0.74197 0.64666 0.05365 0.0
H1653 H 0.76941 0.69516 0.02322 0.0
H1654 H 0.71522 0.67287 0.08756 0.0
H1655 H 0.73804 0.66988 0.10009 0.0
H1656 H 0.72758 0.65006 0.08492 0.0
H1657 H 0.74829 0.73251 0.05005 0.0
H1658 H 0.77013 0.72726 0.03604 0.0
H1659 H 0.77094 0.72889 0.06269 0.0
C1660 C 0.94515 0.02883 0.11656 0.0
C1661 C 0.9655 0.03217 0.11913 0.0
C1662 C 0.93276 0.02543 0.13283 0.0
C1663 C 0.94093 0.02553 0.1521 0.0
C1664 C 0.96144 0.0291 0.1548 0.0
C1665 C 0.9735 0.0323 0.13825 0.0
C1666 C 0.91098 0.02149 0.12937 0.0
C1667 C 0.97064 0.0295 0.17515 0.0
C1668 C 0.90663 0.03327 0.19565 0.0
C1669 C 0.90344 0.01405 0.20223 0.0
C1670 C 0.91889 0.03724 0.17941 0.0
C1671 C 0.92805 0.0216 0.16943 0.0
C1672 C 0.92488 0.00218 0.17597 0.0
C1673 C 0.91267 -0.00135 0.19234 0.0
C1674 C 0.92205 0.05816 0.17292 0.0
C1675 C 0.93431 0.98512 0.16561 0.0
H1676 H 0.93897 0.02852 0.10176 0.0
H1677 H 0.9892 0.03511 0.14028 0.0
H1678 H 0.9065 0.00679 0.1349 0.0
H1679 H 0.90239 0.03238 0.13776 0.0
H1680 H 0.90694 0.02211 0.11347 0.0
H1681 H 0.98678 0.03286 0.17473 0.0
H1682 H 0.96365 0.04067 0.1847 0.0
H1683 H 0.96803 0.0151 0.18221 0.0
H1684 H 0.89959 0.04526 0.20325 0.0
H1685 H 0.91024 0.98375 0.19729 0.0
H1686 H 0.91703 0.05953 0.15741 0.0
H1687 H 0.938 0.06237 0.17333 0.0
H1688 H 0.91403 0.06867 0.1824 0.0
H1689 H 0.92977 0.98436 0.14984 0.0
H1690 H 0.93026 0.97089 0.17249 0.0
H1691 H 0.95059 0.98725 0.16595 0.0
C1692 C 0.24146 0.7937 0.14339 0.0
C1693 C 0.25747 0.78154 0.14089 0.0
C1694 C 0.23695 0.80739 0.12905 0.0
C1695 C 0.24855 0.80868 0.1117 0.0
C1696 C 0.26464 0.7963 0.10905 0.0
C1697 C 0.269 0.78296 0.12377 0.0
C1698 C 0.21987 0.82056 0.13251 0.0
C1699 C 0.27717 0.79706 0.0906 0.0
C1700 C 0.22691 0.83096 0.06598 0.0
C1701 C 0.23655 0.84949 0.06599 0.0
C1702 C 0.23055 0.81757 0.08087 0.0
C1703 C 0.24392 0.82298 0.09629 0.0
C1704 C 0.25328 0.84187 0.09668 0.0
C1705 C 0.2496 0.85486 0.08143 0.0
C1706 C 0.2205 0.79745 0.07983 0.0
C1707 C 0.26739 0.84826 0.11306 0.0
H1708 H 0.23267 0.79271 0.15674 0.0
H1709 H 0.28127 0.77341 0.12178 0.0
H1710 H 0.22512 0.83615 0.13222 0.0
H1711 H 0.20885 0.81829 0.12048 0.0
H1712 H 0.21245 0.81785 0.1469 0.0
H1713 H 0.28894 0.7862 0.09069 0.0
H1714 H 0.2678 0.79418 0.07733 0.0
H1715 H 0.28416 0.81191 0.08915 0.0
H1716 H 0.2169 0.8267 0.05402 0.0
H1717 H 0.25702 0.86921 0.08156 0.0
H1718 H 0.21213 0.79465 0.09364 0.0
H1719 H 0.23173 0.78611 0.07852 0.0
H1720 H 0.21021 0.79568 0.06708 0.0
H1721 H 0.26017 0.84645 0.12766 0.0
H1722 H 0.27266 0.86378 0.11174 0.0
H1723 H 0.28036 0.83886 0.1128 0.0
C1724 C 0.03209 0.45965 0.13049 0.0
C1725 C 0.02723 0.47687 0.12097 0.0
C1726 C 0.04256 0.46041 0.1484 0.0
C1727 C 0.04824 0.47885 0.15699 0.0
C1728 C 0.04337 0.49629 0.14748 0.0
C1729 C 0.03294 0.49509 0.12956 0.0
C1730 C 0.0475 0.44151 0.15814 0.0
C1731 C 0.04923 0.51621 0.15621 0.0
C1732 C 0.05992 0.48207 0.21189 0.0
C1733 C 0.08059 0.48273 0.21181 0.0
C1734 C 0.04919 0.48069 0.19415 0.0
C1735 C 0.05938 0.47992 0.17591 0.0
C1736 C 0.08023 0.48041 0.17572 0.0
C1737 C 0.09059 0.48182 0.19367 0.0
C1738 C 0.02694 0.48021 0.1949 0.0
C1739 C 0.0916 0.47957 0.15653 0.0
H1740 H 0.02748 0.44553 0.12406 0.0
H1741 H 0.02946 0.50844 0.12214 0.0
H1742 H 0.06369 0.4408 0.15996 0.0
H1743 H 0.0409 0.44097 0.17314 0.0
H1744 H 0.04208 0.42838 0.14947 0.0
H1745 H 0.04412 0.52835 0.14705 0.0
H1746 H 0.04297 0.51782 0.17129 0.0
H1747 H 0.0655 0.51769 0.15765 0.0
H1748 H 0.05207 0.48276 0.22583 0.0
H1749 H 0.10657 0.48229 0.19347 0.0
H1750 H 0.02086 0.46672 0.18734 0.0
H1751 H 0.02132 0.49288 0.18691 0.0
H1752 H 0.02125 0.48066 0.2103 0.0
H1753 H 0.08723 0.46604 0.148 0.0
H1754 H 0.1078 0.47983 0.15896 0.0
H1755 H 0.08803 0.4922 0.1473 0.0
C1756 C 0.36362 0.73111 0.2963 0.0
C1757 C 0.36571 0.7303 0.27567 0.0
C1758 C 0.37991 0.73535 0.30864 0.0
C1759 C 0.39873 0.73878 0.30011 0.0
C1760 C 0.40097 0.7378 0.27929 0.0
C1761 C 0.38441 0.73362 0.26731 0.0
C1762 C 0.37696 0.73638 0.33077 0.0
C1763 C 0.42085 0.74123 0.26969 0.0
C1764 C 0.43793 0.76768 0.32968 0.0
C1765 C 0.44942 0.75271 0.33678 0.0
C1766 C 0.42128 0.76334 0.31786 0.0
C1767 C 0.41608 0.74356 0.31295 0.0
C1768 C 0.42756 0.72837 0.32013 0.0
C1769 C 0.44407 0.73312 0.33201 0.0
C1770 C 0.40932 0.77992 0.31053 0.0
C1771 C 0.42249 0.70711 0.31513 0.0
H1772 H 0.34915 0.72878 0.3028 0.0
H1773 H 0.3861 0.73278 0.25138 0.0
H1774 H 0.38644 0.72581 0.33808 0.0
H1775 H 0.38143 0.75123 0.33654 0.0
H1776 H 0.3614 0.73313 0.33505 0.0
H1777 H 0.42012 0.73969 0.25331 0.0
H1778 H 0.42684 0.75615 0.27361 0.0
H1779 H 0.43141 0.73065 0.2753 0.0
H1780 H 0.44194 0.78285 0.33333 0.0
H1781 H 0.4529 0.72146 0.33739 0.0
H1782 H 0.39377 0.77792 0.31537 0.0
H1783 H 0.4093 0.77983 0.29411 0.0
H1784 H 0.41512 0.79448 0.31599 0.0
H1785 H 0.40732 0.7032 0.32016 0.0
H1786 H 0.43283 0.69704 0.32204 0.0
H1787 H 0.42281 0.70468 0.29885 0.0
C1788 C 0.97512 0.38593 0.94852 0.0
C1789 C 0.99087 0.39457 0.95944 0.0
C1790 C 0.97804 0.37027 0.93523 0.0
C1791 C 0.99715 0.36299 0.9329 0.0
C1792 C 0.01315 0.37172 0.94373 0.0
C1793 C 0.00983 0.38745 0.95682 0.0
C1794 C 0.96064 0.36135 0.92388 0.0
C1795 C 0.03374 0.36432 0.94164 0.0
C1796 C 0.00105 0.31069 0.91365 0.0
C1797 C 0.00592 0.31356 0.89373 0.0
C1798 C -0.0017 0.32667 0.92659 0.0
C1799 C 0.00033 0.34596 0.9194 0.0
C1800 C 0.00528 0.34897 0.89933 0.0
C1801 C 0.00808 0.33272 0.88674 0.0
C1802 C 0.99317 0.32291 0.94796 0.0
C1803 C 0.00745 0.36934 0.89113 0.0
H1804 H 0.96039 0.39116 0.95066 0.0
H1805 H 0.02213 0.39425 0.96497 0.0
H1806 H 0.96365 0.36163 0.90775 0.0
H1807 H 0.95822 0.34577 0.92789 0.0
H1808 H 0.94687 0.36917 0.92687 0.0
H1809 H 0.0446 0.37284 0.95099 0.0
H1810 H 0.03387 0.3487 0.94585 0.0
H1811 H 0.03855 0.36509 0.92598 0.0
H1812 H -0.0006 0.29593 0.91918 0.0
H1813 H 0.01178 0.33506 0.87135 0.0
H1814 H 0.97874 0.32916 0.95158 0.0
H1815 H 0.00433 0.33031 0.95783 0.0
H1816 H 0.99239 0.30703 0.95126 0.0
H1817 H 0.99343 0.37701 0.89298 0.0
H1818 H 0.01144 0.36917 0.87519 0.0
H1819 H 0.01896 0.37803 0.89946 0.0
C1820 C 0.61826 0.75525 0.26378 0.0
C1821 C 0.62023 0.77407 0.25595 0.0
C1822 C 0.6026 0.75021 0.27646 0.0
C1823 C 0.58856 0.76432 0.28131 0.0
C1824 C 0.59036 0.78329 0.27329 0.0
C1825 C 0.60622 0.78795 0.26074 0.0
C1826 C 0.60121 0.72987 0.28485 0.0
C1827 C 0.57558 0.79867 0.27802 0.0
C1828 C 0.53843 0.74715 0.30055 0.0
C1829 C 0.54048 0.75097 0.32093 0.0
C1830 C 0.55402 0.75129 0.28748 0.0
C1831 C 0.57209 0.75935 0.295 0.0
C1832 C 0.57435 0.76298 0.31558 0.0
C1833 C 0.5585 0.75879 0.3283 0.0
C1834 C 0.55106 0.74729 0.2656 0.0
C1835 C 0.59346 0.77147 0.32414 0.0
H1836 H 0.62919 0.74455 0.26028 0.0
H1837 H 0.60757 0.80245 0.2545 0.0
H1838 H 0.60199 0.73082 0.30124 0.0
H1839 H 0.58682 0.7226 0.28088 0.0
H1840 H 0.61318 0.72053 0.27938 0.0
H1841 H 0.57893 0.81262 0.27032 0.0
H1842 H 0.56056 0.79319 0.27369 0.0
H1843 H 0.57536 0.80176 0.2942 0.0
H1844 H 0.52455 0.74114 0.29473 0.0
H1845 H 0.56023 0.76174 0.34403 0.0
H1846 H 0.56232 0.73722 0.26 0.0
H1847 H 0.55302 0.76115 0.25741 0.0
H1848 H 0.53621 0.7407 0.26217 0.0
H1849 H 0.6058 0.76204 0.31995 0.0
H1850 H 0.59299 0.77293 0.34053 0.0
H1851 H 0.59677 0.78615 0.31796 0.0
C1852 C 0.01081 0.12361 0.95016 0.0
C1853 C 0.01262 0.1267 0.97066 0.0
C1854 C 0.00814 0.13933 0.93753 0.0
C1855 C 0.00741 0.15858 0.94561 0.0
C1856 C 0.00929 0.16179 0.96629 0.0
C1857 C 0.01181 0.14579 0.97858 0.0
C1858 C 0.00602 0.13534 0.91556 0.0
C1859 C 0.00874 0.18214 0.97542 0.0
C1860 C 0.01833 0.20132 0.9118 0.0
C1861 C -0.00068 0.20752 0.90769 0.0
C1862 C 0.02118 0.18541 0.92414 0.0
C1863 C 0.00462 0.17539 0.93244 0.0
C1864 C 0.9854 0.18149 0.92825 0.0
C1865 C 0.98299 0.19753 0.91598 0.0
C1866 C 0.0419 0.17938 0.92838 0.0
C1867 C 0.9674 0.17106 0.93675 0.0
H1868 H 0.01123 0.10884 0.94403 0.0
H1869 H 0.01345 0.14823 0.9944 0.0
H1870 H 0.99168 0.14054 0.91032 0.0
H1871 H 0.01776 0.14357 0.90745 0.0
H1872 H 0.00687 0.11951 0.91166 0.0
H1873 H 0.01052 0.18214 0.99176 0.0
H1874 H 0.02065 0.19166 0.96909 0.0
H1875 H 0.99455 0.18879 0.97187 0.0
H1876 H 0.03102 0.20899 0.90549 0.0
H1877 H 0.96825 0.20218 0.91282 0.0
H1878 H 0.04366 0.16392 0.92355 0.0
H1879 H 0.04476 0.18025 0.94455 0.0
H1880 H 0.05319 0.18873 0.9208 0.0
H1881 H 0.9671 0.15533 0.93225 0.0
H1882 H 0.95347 0.17748 0.93183 0.0
H1883 H 0.968 0.1718 0.95315 0.0
C1884 C 0.36503 0.26947 0.2012 0.0
C1885 C 0.36854 0.26997 0.22165 0.0
C1886 C 0.38035 0.26628 0.18774 0.0
C1887 C 0.39963 0.26365 0.19494 0.0
C1888 C 0.4033 0.26434 0.21556 0.0
C1889 C 0.38769 0.26745 0.22867 0.0
C1890 C 0.37589 0.26552 0.16584 0.0
C1891 C 0.42371 0.26178 0.22377 0.0
C1892 C 0.43675 0.23753 0.16297 0.0
C1893 C 0.4483 0.25332 0.15583 0.0
C1894 C 0.42061 0.2407 0.17543 0.0
C1895 C 0.41601 0.26011 0.18094 0.0
C1896 C 0.42743 0.27611 0.17357 0.0
C1897 C 0.44341 0.27253 0.16105 0.0
C1898 C 0.40867 0.22328 0.18293 0.0
C1899 C 0.423 0.29701 0.1792 0.0
H1900 H 0.35019 0.27121 0.19575 0.0
H1901 H 0.39049 0.26807 0.24447 0.0
H1902 H 0.38509 0.27678 0.15816 0.0
H1903 H 0.37965 0.25104 0.15948 0.0
H1904 H 0.36013 0.268 0.16267 0.0
H1905 H 0.42411 0.26292 0.24019 0.0
H1906 H 0.42908 0.24725 0.21912 0.0
H1907 H 0.43412 0.27307 0.21775 0.0
H1908 H 0.44039 0.22266 0.15894 0.0
H1909 H 0.45227 0.28481 0.15561 0.0
H1910 H 0.39288 0.22467 0.17919 0.0
H1911 H 0.40975 0.22285 0.19929 0.0
H1912 H 0.41369 0.20918 0.17663 0.0
H1913 H 0.40756 0.30003 0.17531 0.0
H1914 H 0.43297 0.30782 0.17174 0.0
H1915 H 0.42455 0.29924 0.19544 0.0
C1916 C 0.52696 0.37004 0.01342 0.0
C1917 C 0.51199 0.38361 0.01306 0.0
C1918 C 0.52485 0.35292 0.02444 0.0
C1919 C 0.50739 0.34938 0.03543 0.0
C1920 C 0.4921 0.36288 0.0349 0.0
C1921 C 0.49456 0.37982 0.02366 0.0
C1922 C 0.54139 0.33876 0.02453 0.0
C1923 C 0.47332 0.35964 0.04655 0.0
C1924 C 0.49448 0.29792 0.05268 0.0
C1925 C 0.50091 0.29899 0.07241 0.0
C1926 C 0.49668 0.31416 0.04038 0.0
C1927 C 0.50538 0.33189 0.04806 0.0
C1928 C 0.512 0.33304 0.06792 0.0
C1929 C 0.50974 0.31655 0.07984 0.0
C1930 C 0.48958 0.31239 0.01922 0.0
C1931 C 0.52128 0.35174 0.07664 0.0
H1932 H 0.54035 0.37283 0.00503 0.0
H1933 H 0.48305 0.39039 0.02357 0.0
H1934 H 0.5473 0.33767 0.03975 0.0
H1935 H 0.53578 0.3239 0.01987 0.0
H1936 H 0.55367 0.3433 0.01456 0.0
H1937 H 0.46261 0.37123 0.04404 0.0
H1938 H 0.46622 0.34521 0.04246 0.0
H1939 H 0.47677 0.35939 0.06259 0.0
H1940 H 0.48771 0.28438 0.04682 0.0
H1941 H 0.51472 0.31752 0.09508 0.0
H1942 H 0.50189 0.31603 0.00897 0.0
H1943 H 0.47796 0.32303 0.01667 0.0
H1944 H 0.48354 0.29743 0.0154 0.0
H1945 H 0.53448 0.35627 0.06794 0.0
H1946 H 0.52575 0.35017 0.09232 0.0
H1947 H 0.51075 0.36373 0.07583 0.0
C1948 C 0.61769 0.26127 0.22737 0.0
C1949 C 0.6188 0.24282 0.23594 0.0
C1950 C 0.60206 0.26544 0.21476 0.0
C1951 C 0.58718 0.25082 0.2107 0.0
C1952 C 0.58814 0.23221 0.21942 0.0
C1953 C 0.60398 0.22842 0.23192 0.0
C1954 C 0.60157 0.2854 0.20561 0.0
C1955 C 0.57246 0.2163 0.21553 0.0
C1956 C 0.5376 0.26601 0.19152 0.0
C1957 C 0.53915 0.26149 0.17126 0.0
C1958 C 0.55319 0.26274 0.20454 0.0
C1959 C 0.57074 0.25485 0.19707 0.0
C1960 C 0.5725 0.25052 0.1766 0.0
C1961 C 0.55667 0.25385 0.16395 0.0
C1962 C 0.55079 0.26748 0.2263 0.0
C1963 C 0.59104 0.24218 0.1681 0.0
H1964 H 0.62924 0.27236 0.23027 0.0
H1965 H 0.60466 0.21423 0.23873 0.0
H1966 H 0.60199 0.28387 0.18925 0.0
H1967 H 0.58762 0.29247 0.20954 0.0
H1968 H 0.61413 0.29524 0.21052 0.0
H1969 H 0.57525 0.20272 0.2237 0.0
H1970 H 0.55781 0.22156 0.21992 0.0
H1971 H 0.57177 0.21261 0.19948 0.0
H1972 H 0.52411 0.27188 0.19729 0.0
H1973 H 0.55801 0.25036 0.1483 0.0
H1974 H 0.56266 0.27803 0.23136 0.0
H1975 H 0.55215 0.25399 0.23499 0.0
H1976 H 0.53632 0.27383 0.22968 0.0
H1977 H 0.60394 0.25207 0.17174 0.0
H1978 H 0.59023 0.24006 0.15178 0.0
H1979 H 0.5937 0.22783 0.17483 0.0
C1980 C 0.49962 0.11606 0.05772 0.0
C1981 C 0.50076 0.11531 0.03701 0.0
C1982 C 0.50218 0.13391 0.06823 0.0
C1983 C 0.50587 0.1514 0.05774 0.0
C1984 C 0.50723 0.15071 0.03685 0.0
C1985 C 0.50469 0.13265 0.02673 0.0
C1986 C 0.50077 0.13408 0.09052 0.0
C1987 C 0.51102 0.16908 0.02517 0.0
C1988 C 0.49294 0.19942 0.08278 0.0
C1989 C 0.51147 0.20678 0.08924 0.0
C1990 C 0.49092 0.18143 0.07247 0.0
C1991 C 0.50784 0.1705 0.0686 0.0
C1992 C 0.52659 0.17783 0.07505 0.0
C1993 C 0.52819 0.19593 0.08526 0.0
C1994 C 0.47069 0.1741 0.06572 0.0
C1995 C 0.54494 0.16653 0.07123 0.0
H1996 H 0.4968 0.10264 0.06572 0.0
H1997 H 0.50532 0.13216 0.01071 0.0
H1998 H 0.51448 0.14075 0.09712 0.0
H1999 H 0.48844 0.14321 0.0954 0.0
H2000 H 0.49834 0.11913 0.09646 0.0
H2001 H 0.51215 0.16596 0.00902 0.0
H2002 H 0.49893 0.1793 0.02772 0.0
H2003 H 0.52489 0.17673 0.03024 0.0
H2004 H 0.47995 0.20774 0.08576 0.0
H2005 H 0.54255 0.2015 0.09023 0.0
H2006 H 0.46697 0.15972 0.07238 0.0
H2007 H 0.47055 0.17184 0.04942 0.0
H2008 H 0.45905 0.18444 0.06981 0.0
H2009 H 0.54339 0.15188 0.07797 0.0
H2010 H 0.5584 0.17423 0.0773 0.0
H2011 H 0.54693 0.16413 0.05508 0.0
C2012 C 0.28599 0.38365 0.73764 0.0
C2013 C 0.2806 0.37892 0.71804 0.0
C2014 C 0.29912 0.39951 0.74204 0.0
C2015 C 0.30698 0.41092 0.72647 0.0
C2016 C 0.30173 0.40611 0.70664 0.0
C2017 C 0.28861 0.39015 0.70266 0.0
C2018 C 0.30444 0.40417 0.76336 0.0
C2019 C 0.30974 0.41802 0.68964 0.0
C2020 C 0.3247 0.46325 0.73794 0.0
C2021 C 0.34522 0.46154 0.73854 0.0
C2022 C 0.3121 0.44686 0.73417 0.0
C2023 C 0.3202 0.42829 0.73093 0.0
C2024 C 0.34087 0.42639 0.73169 0.0
C2025 C 0.35316 0.44306 0.73549 0.0
C2026 C 0.29011 0.44945 0.73348 0.0
C2027 C 0.35001 0.40679 0.72833 0.0
H2028 H 0.28004 0.37483 0.74955 0.0
H2029 H 0.2843 0.38669 0.6875 0.0
H2030 H 0.32066 0.4041 0.76534 0.0
H2031 H 0.29975 0.41909 0.76749 0.0
H2032 H 0.29744 0.39355 0.7737 0.0
H2033 H 0.30465 0.41199 0.67504 0.0
H2034 H 0.30502 0.43335 0.6912 0.0
H2035 H 0.32609 0.41849 0.6899 0.0
H2036 H 0.31842 0.47747 0.74031 0.0
H2037 H 0.36899 0.44161 0.73595 0.0
H2038 H 0.28261 0.4399 0.74446 0.0
H2039 H 0.28429 0.44492 0.71867 0.0
H2040 H 0.28617 0.46485 0.73657 0.0
H2041 H 0.34399 0.39607 0.73909 0.0
H2042 H 0.36632 0.40772 0.72981 0.0
H2043 H 0.34619 0.40096 0.71331 0.0
C2044 C 0.27732 0.63289 0.80254 0.0
C2045 C 0.27108 0.64594 0.7883 0.0
C2046 C 0.29134 0.61897 0.7979 0.0
C2047 C 0.29934 0.61816 0.77858 0.0
C2048 C 0.29317 0.63137 0.76416 0.0
C2049 C 0.27906 0.64508 0.76919 0.0
C2050 C 0.29746 0.60501 0.81361 0.0
C2051 C 0.30145 0.63098 0.74344 0.0
C2052 C 0.34777 0.59292 0.77149 0.0
C2053 C 0.3413 0.57443 0.76412 0.0
C2054 C 0.33427 0.60739 0.77611 0.0
C2055 C 0.31386 0.60321 0.77334 0.0
C2056 C 0.30725 0.58463 0.76578 0.0
C2057 C 0.32105 0.57048 0.76123 0.0
C2058 C 0.34183 0.6271 0.7841 0.0
C2059 C 0.28559 0.57963 0.76267 0.0
H2060 H 0.27101 0.63338 0.81726 0.0
H2061 H 0.27445 0.65533 0.75823 0.0
H2062 H 0.29389 0.58968 0.80869 0.0
H2063 H 0.31363 0.60637 0.81592 0.0
H2064 H 0.29003 0.60775 0.82799 0.0
H2065 H 0.2953 0.64244 0.73406 0.0
H2066 H 0.31772 0.63319 0.74395 0.0
H2067 H 0.29819 0.61644 0.73629 0.0
H2068 H 0.36338 0.59609 0.77374 0.0
H2069 H 0.3159 0.55622 0.75556 0.0
H2070 H 0.33573 0.62979 0.79909 0.0
H2071 H 0.33679 0.63892 0.77453 0.0
H2072 H 0.35818 0.62815 0.785 0.0
H2073 H 0.27762 0.58089 0.77694 0.0
H2074 H 0.2829 0.56456 0.75648 0.0
H2075 H 0.27917 0.59018 0.75246 0.0
C2076 C 0.88369 0.46944 0.51483 0.0
C2077 C 0.88994 0.4718 0.4952 0.0
C2078 C 0.86755 0.4569 0.51937 0.0
C2079 C 0.85753 0.44633 0.50393 0.0
C2080 C 0.8639 0.44843 0.48413 0.0
C2081 C 0.87997 0.4612 0.48 0.0
C2082 C 0.86113 0.45506 0.54066 0.0
C2083 C 0.85361 0.43734 0.46729 0.0
C2084 C 0.82616 0.40103 0.51631 0.0
C2085 C 0.8071 0.40821 0.51569 0.0
C2086 C 0.84274 0.41332 0.51264 0.0
C2087 C 0.84018 0.43327 0.50843 0.0
C2088 C 0.82101 0.44069 0.50814 0.0
C2089 C 0.80468 0.42805 0.5117 0.0
C2090 C 0.86297 0.40487 0.51294 0.0
C2091 C 0.81773 0.46195 0.50388 0.0
H2092 H 0.89149 0.47735 0.52669 0.0
H2093 H 0.88452 0.46315 0.46478 0.0
H2094 H 0.84564 0.45947 0.54227 0.0
H2095 H 0.86164 0.43956 0.54518 0.0
H2096 H 0.87053 0.46426 0.55093 0.0
H2097 H 0.86077 0.44016 0.4528 0.0
H2098 H 0.85348 0.42135 0.46996 0.0
H2099 H 0.83803 0.44158 0.46642 0.0
H2100 H 0.82814 0.38571 0.51933 0.0
H2101 H 0.79 0.43372 0.51127 0.0
H2102 H 0.87255 0.41313 0.52377 0.0
H2103 H 0.86997 0.40638 0.4982 0.0
H2104 H 0.86246 0.38913 0.51685 0.0
H2105 H 0.82619 0.47157 0.51453 0.0
H2106 H 0.80193 0.46553 0.50479 0.0
H2107 H 0.82321 0.46544 0.48885 0.0
C2108 C 0.73793 0.88478 0.7613 0.0
C2109 C 0.73104 0.86871 0.7723 0.0
C2110 C 0.72659 0.90137 0.75935 0.0
C2111 C 0.70805 0.90201 0.76884 0.0
C2112 C 0.70101 0.88589 0.77997 0.0
C2113 C 0.71252 0.86938 0.78143 0.0
C2114 C 0.73446 0.91825 0.74719 0.0
C2115 C 0.68135 0.8861 0.79041 0.0
C2116 C 0.68629 0.9514 0.77984 0.0
C2117 C 0.67183 0.95212 0.76509 0.0
C2118 C 0.6983 0.93522 0.78115 0.0
C2119 C 0.69596 0.91956 0.76719 0.0
C2120 C 0.68169 0.92039 0.75201 0.0
C2121 C 0.66968 0.93661 0.75123 0.0
C2122 C 0.71321 0.9347 0.7977 0.0
C2123 C 0.67898 0.90408 0.7367 0.0
H2124 H 0.75234 0.88452 0.75443 0.0
H2125 H 0.7069 0.8569 0.78965 0.0
H2126 H 0.72383 0.92141 0.73532 0.0
H2127 H 0.73622 0.93167 0.75665 0.0
H2128 H 0.74891 0.91521 0.7403 0.0
H2129 H 0.67819 0.87251 0.79878 0.0
H2130 H 0.68103 0.89884 0.80085 0.0
H2131 H 0.66936 0.88776 0.77948 0.0
H2132 H 0.68797 0.96331 0.79064 0.0
H2133 H 0.65862 0.93716 0.7397 0.0
H2134 H 0.72818 0.93286 0.79154 0.0
H2135 H 0.70981 0.92191 0.80715 0.0
H2136 H 0.71342 0.94822 0.80714 0.0
H2137 H 0.69317 0.90147 0.72915 0.0
H2138 H 0.66779 0.90737 0.72537 0.0
H2139 H 0.67431 0.89026 0.744 0.0
C2140 C 0.63101 0.52322 0.9822 0.0
C2141 C 0.61311 0.53246 0.97971 0.0
C2142 C 0.64851 0.53415 0.9862 0.0
C2143 C 0.6481 0.55483 0.9877 0.0
C2144 C 0.63012 0.56428 0.98505 0.0
C2145 C 0.61281 0.55297 0.98108 0.0
C2146 C 0.66743 0.52357 0.98884 0.0
C2147 C 0.62914 0.58632 0.98655 0.0
C2148 C 0.68989 0.58167 0.01559 0.0
C2149 C 0.70206 0.58805 6e-05 0.0
C2150 C 0.67219 0.57096 0.01177 0.0
C2151 C 0.66655 0.56655 0.99197 0.0
C2152 C 0.67871 0.57302 0.97623 0.0
C2153 C 0.69633 0.58367 0.98046 0.0
C2154 C 0.65958 0.56425 0.02893 0.0
C2155 C 0.67316 0.5686 0.95491 0.0
H2156 H 0.63138 0.50739 0.98085 0.0
H2157 H 0.59898 0.56016 0.97938 0.0
H2158 H 0.67844 0.52857 0.97774 0.0
H2159 H 0.67377 0.5271 0.00368 0.0
H2160 H 0.66521 0.5074 0.98729 0.0
H2161 H 0.61403 0.5914 0.98392 0.0
H2162 H 0.63408 0.59158 0.00144 0.0
H2163 H 0.63926 0.59322 0.97561 0.0
H2164 H 0.69419 0.585 0.03077 0.0
H2165 H 0.70562 0.58858 0.96836 0.0
H2166 H 0.65795 0.54801 0.02866 0.0
H2167 H 0.64459 0.57 0.02762 0.0
H2168 H 0.66591 0.56913 0.04345 0.0
H2169 H 0.67191 0.55251 0.95226 0.0
H2170 H 0.6841 0.57495 0.94438 0.0
H2171 H 0.65854 0.57452 0.95167 0.0
C2172 C 0.20766 0.61911 0.21624 0.0
C2173 C 0.21432 0.63082 0.23236 0.0
C2174 C 0.19505 0.60266 0.21901 0.0
C2175 C 0.18893 0.59784 0.23838 0.0
C2176 C 0.19555 0.60962 0.25472 0.0
C2177 C 0.2082 0.62597 0.25151 0.0
C2178 C 0.18839 0.59036 0.20124 0.0
C2179 C 0.18924 0.60496 0.27557 0.0
C2180 C 0.14268 0.56534 0.24369 0.0
C2181 C 0.1506 0.54698 0.24677 0.0
C2182 C 0.155 0.58207 0.24108 0.0
C2183 C 0.1757 0.58036 0.24153 0.0
C2184 C 0.18379 0.5619 0.24475 0.0
C2185 C 0.17114 0.54543 0.24735 0.0
C2186 C 0.14586 0.60154 0.23772 0.0
C2187 C 0.20581 0.55952 0.24529 0.0
H2188 H 0.21257 0.62267 0.20143 0.0
H2189 H 0.21313 0.63511 0.26399 0.0
H2190 H 0.19315 0.57511 0.2028 0.0
H2191 H 0.17206 0.58972 0.20033 0.0
H2192 H 0.19439 0.59619 0.18716 0.0
H2193 H 0.19565 0.61565 0.28665 0.0
H2194 H 0.17294 0.60494 0.27671 0.0
H2195 H 0.19382 0.59008 0.27938 0.0
H2196 H 0.12684 0.56667 0.24325 0.0
H2197 H 0.17739 0.5313 0.24974 0.0
H2198 H 0.15053 0.60728 0.22315 0.0
H2199 H 0.15108 0.61241 0.24917 0.0
H2200 H 0.1295 0.60045 0.23812 0.0
H2201 H 0.21243 0.56399 0.23099 0.0
H2202 H 0.20972 0.54418 0.24814 0.0
H2203 H 0.21256 0.56923 0.257 0.0
C2204 C 0.88403 0.54325 0.03178 0.0
C2205 C 0.89471 0.5367 0.01532 0.0
C2206 C 0.86818 0.55559 0.02955 0.0
C2207 C 0.86279 0.5614 0.01038 0.0
C2208 C 0.87349 0.55486 0.9937 0.0
C2209 C 0.88937 0.54263 0.99638 0.0
C2210 C 0.85712 0.56231 0.04768 0.0
C2211 C 0.86813 0.56075 0.97303 0.0
C2212 C 0.81069 0.57798 0.00274 0.0
C2213 C 0.81355 0.59844 0.00282 0.0
C2214 C 0.82661 0.56575 0.00513 0.0
C2215 C 0.84582 0.57419 0.00777 0.0
C2216 C 0.84881 0.59482 0.00797 0.0
C2217 C 0.83264 0.6067 0.00543 0.0
C2218 C 0.82288 0.54379 0.00475 0.0
C2219 C 0.86909 0.60433 0.01088 0.0
H2220 H 0.88788 0.53849 0.04643 0.0
H2221 H 0.89772 0.53785 0.98362 0.0
H2222 H 0.85735 0.57856 0.04856 0.0
H2223 H 0.84146 0.55712 0.04666 0.0
H2224 H 0.86347 0.55682 0.06157 0.0
H2225 H 0.87791 0.55435 0.96163 0.0
H2226 H 0.85268 0.55591 0.96966 0.0
H2227 H 0.86907 0.57694 0.97194 0.0
H2228 H 0.796 0.57148 0.00069 0.0
H2229 H 0.83497 0.6225 0.00556 0.0
H2230 H 0.82781 0.53758 0.01887 0.0
H2231 H 0.83157 0.537 0.99271 0.0
H2232 H 0.80706 0.53956 0.00247 0.0
H2233 H 0.87534 0.59986 0.02519 0.0
H2234 H 0.8689 0.62059 0.01075 0.0
H2235 H 0.87913 0.5993 -0.00096 0.0
C2236 C 0.10867 0.96633 0.02085 0.0
C2237 C 0.11073 0.98682 0.02038 0.0
C2238 C 0.12508 0.95462 0.01867 0.0
C2239 C 0.14399 0.96366 0.01604 0.0
C2240 C 0.14614 0.98434 0.01542 0.0
C2241 C 0.12946 0.99568 0.01757 0.0
C2242 C 0.12221 0.9326 0.01926 0.0
C2243 C 0.1661 0.99449 0.01276 0.0
C2244 C 0.18853 0.93484 0.02953 0.0
C2245 C 0.19493 0.92828 0.0109 0.0
C2246 C 0.172 0.94642 0.0314 0.0
C2247 C 0.16157 0.95148 0.01424 0.0
C2248 C 0.16793 0.94492 0.99539 0.0
C2249 C 0.18457 0.93343 0.99394 0.0
C2250 C 0.16568 0.95323 0.05175 0.0
C2251 C 0.1571 0.94998 0.97677 0.0
H2252 H 0.09416 0.95944 0.02279 0.0
H2253 H 0.13114 0.01153 0.01743 0.0
H2254 H 0.12785 0.92583 0.00542 0.0
H2255 H 0.13077 0.92683 0.03169 0.0
H2256 H 0.10648 0.92787 0.02107 0.0
H2257 H 0.1652 0.01068 0.01229 0.0
H2258 H 0.17599 0.99082 0.0251 0.0
H2259 H 0.17299 0.98924 -0.00115 0.0
H2260 H 0.19647 0.93095 0.04271 0.0
H2261 H 0.18939 0.92839 0.97949 0.0
H2262 H 0.15041 0.94773 0.05476 0.0
H2263 H 0.16566 0.96948 0.05249 0.0
H2264 H 0.17549 0.94814 0.0636 0.0
H2265 H 0.14154 0.94447 0.97757 0.0
H2266 H 0.16391 0.94367 0.96325 0.0
H2267 H 0.15692 0.96613 0.97535 0.0
loop_
_geom_bond_atom_site_label_1
_geom_bond_atom_site_label_2
_geom_bond_distance
_geom_bond_site_symmetry_2
_ccdc_geom_bond_type
C0 C1 1.384 . S
C0 H13 0.947 . S
C0 C35 1.382 . S
C1 C0 1.384 . S
C1 C2 1.378 1_655 S
C2 C1 1.378 1_455 S
C2 C3 1.378 . S
C2 H14 0.952 . S
C3 C2 1.378 . S
C3 H15 0.950 . S
C3 C34 1.383 . S
H4 C23 0.947 . S
H5 C24 0.946 . S
H6 C26 0.953 . S
H7 C27 0.945 . S
H8 C29 0.946 1_556 S
H9 C30 0.949 . S
H10 C32 0.950 . S
H11 C33 0.948 . S
H12 C35 0.951 . S
H13 C0 0.947 . S
H14 C2 0.952 . S
H15 C3 0.950 . S
N16 C19 1.382 . S
N16 C21 1.363 . S
N17 C19 1.371 . S
N17 C20 1.372 . S
N18 C20 1.361 . S
N18 C21 1.377 . S
C19 N16 1.382 . S
C19 N17 1.371 . S
C19 C22 1.480 . S
C20 N17 1.372 . S
C20 N18 1.361 . S
C20 C28 1.457 . S
C21 N16 1.363 . S
C21 N18 1.377 . S
C21 C34 1.479 . S
C22 C19 1.480 . S
C22 C23 1.383 . S
C22 C27 1.385 . S
C23 H4 0.947 . S
C23 C22 1.383 . S
C23 C24 1.388 1_545 S
C24 H5 0.946 . S
C24 C23 1.388 1_565 S
C24 C25 1.384 . S
C25 C24 1.384 . S
C25 C26 1.377 1_565 S
C26 H6 0.953 . S
C26 C25 1.377 1_545 S
C26 C27 1.369 . S
C27 H7 0.945 . S
C27 C22 1.385 . S
C27 C26 1.369 . S
C28 C20 1.457 . S
C28 C29 1.372 . S
C28 C33 1.364 . S
C29 H8 0.946 1_554 S
C29 C28 1.372 . S
C29 C30 1.389 1_554 S
C30 H9 0.949 . S
C30 C29 1.389 1_556 S
C30 C31 1.387 . S
C31 C30 1.387 . S
C31 C32 1.372 1_556 S
C32 H10 0.950 . S
C32 C31 1.372 1_554 S
C32 C33 1.379 . S
C33 H11 0.948 . S
C33 C28 1.364 . S
C33 C32 1.379 . S
C34 C3 1.383 . S
C34 C21 1.479 . S
C34 C35 1.398 1_455 S
C35 C0 1.382 . S
C35 H12 0.951 . S
C35 C34 1.398 1_655 S
C36 C37 1.384 . S
C36 H49 0.947 . S
C36 C71 1.382 . S
C37 C36 1.384 . S
C37 C38 1.378 . S
C38 C37 1.378 . S
C38 C39 1.378 . S
C38 H50 0.952 . S
C39 C38 1.378 . S
C39 H51 0.950 . S
C39 C70 1.383 . S
H40 C59 0.947 . S
H41 C60 0.946 . S
H42 C62 0.953 . S
H43 C63 0.945 . S
H44 C65 0.952 . S
H45 C66 0.949 . S
H46 C68 0.950 . S
H47 C69 0.948 . S
H48 C71 0.951 . S
H49 C36 0.947 . S
H50 C38 0.952 . S
H51 C39 0.950 . S
N52 C55 1.382 . S
N52 C57 1.363 . S
N53 C55 1.371 . S
N53 C56 1.372 . S
N54 C56 1.361 . S
N54 C57 1.377 . S
C55 N52 1.382 . S
C55 N53 1.371 . S
C55 C58 1.480 . S
C56 N53 1.372 . S
C56 N54 1.361 . S
C56 C64 1.457 . S
C57 N52 1.363 . S
C57 N54 1.377 . S
C57 C70 1.479 . S
C58 C55 1.480 . S
C58 C59 1.383 . S
C58 C63 1.385 . S
C59 H40 0.947 . S
C59 C58 1.383 . S
C59 C60 1.388 . S
C60 H41 0.946 . S
C60 C59 1.388 . S
C60 C61 1.384 . S
C61 C60 1.384 . S
C61 C62 1.377 . S
C62 H42 0.953 . S
C62 C61 1.377 . S
C62 C63 1.369 . S
C63 H43 0.945 . S
C63 C58 1.385 . S
C63 C62 1.369 . S
C64 C56 1.457 . S
C64 C65 1.372 . S
C64 C69 1.364 . S
C65 H44 0.952 . S
C65 C64 1.372 . S
C65 C66 1.389 . S
C66 H45 0.949 . S
C66 C65 1.389 . S
C66 C67 1.387 . S
C67 C66 1.387 . S
C67 C68 1.372 . S
C68 H46 0.950 . S
C68 C67 1.372 . S
C68 C69 1.379 . S
C69 H47 0.948 . S
C69 C64 1.364 . S
C69 C68 1.379 . S
C70 C39 1.383 . S
C70 C57 1.479 . S
C70 C71 1.398 . S
C71 C36 1.382 . S
C71 H48 0.951 . S
C71 C70 1.398 . S
C72 C73 1.384 1_554 S
C72 H85 0.947 . S
C72 C107 1.382 . S
C73 C72 1.384 1_556 S
C73 C74 1.378 . S
C74 C73 1.378 . S
C74 C75 1.378 . S
C74 H86 0.952 . S
C75 C74 1.378 . S
C75 H87 0.950 . S
C75 C106 1.383 1_556 S
H76 C95 0.947 . S
H77 C96 0.946 . S
H78 C98 0.953 . S
H79 C99 0.945 . S
H80 C101 0.952 . S
H81 C102 0.950 1_655 S
H82 C104 0.950 . S
H83 C105 0.948 . S
H84 C107 0.951 . S
H85 C72 0.947 . S
H86 C74 0.952 . S
H87 C75 0.950 . S
N88 C91 1.382 . S
N88 C93 1.363 . S
N89 C91 1.371 . S
N89 C92 1.372 . S
N90 C92 1.361 . S
N90 C93 1.377 . S
C91 N88 1.382 . S
C91 N89 1.371 . S
C91 C94 1.480 . S
C92 N89 1.372 . S
C92 N90 1.361 . S
C92 C100 1.457 . S
C93 N88 1.363 . S
C93 N90 1.377 . S
C93 C106 1.479 . S
C94 C91 1.480 . S
C94 C95 1.383 . S
C94 C99 1.385 . S
C95 H76 0.947 . S
C95 C94 1.383 . S
C95 C96 1.388 . S
C96 H77 0.946 . S
C96 C95 1.388 . S
C96 C97 1.384 . S
C97 C96 1.384 . S
C97 C98 1.377 . S
C98 H78 0.953 . S
C98 C97 1.377 . S
C98 C99 1.369 . S
C99 H79 0.945 . S
C99 C94 1.385 . S
C99 C98 1.369 . S
C100 C92 1.457 . S
C100 C101 1.372 . S
C100 C105 1.364 1_655 S
C101 H80 0.952 . S
C101 C100 1.372 . S
C101 C102 1.391 1_655 S
C102 H81 0.950 1_455 S
C102 C101 1.391 1_455 S
C102 C103 1.383 . S
C103 C102 1.383 . S
C103 C104 1.372 . S
C104 H82 0.950 . S
C104 C103 1.372 . S
C104 C105 1.379 . S
C105 H83 0.948 . S
C105 C100 1.364 1_455 S
C105 C104 1.379 . S
C106 C75 1.383 1_554 S
C106 C93 1.479 . S
C106 C107 1.398 . S
C107 C72 1.382 . S
C107 H84 0.951 . S
C107 C106 1.398 . S
C108 C109 1.384 . S
C108 H121 0.947 . S
C108 C143 1.382 . S
C109 C108 1.384 . S
C109 C110 1.378 . S
C110 C109 1.378 . S
C110 C111 1.378 . S
C110 H122 0.952 . S
C111 C110 1.378 . S
C111 H123 0.950 . S
C111 C142 1.383 . S
H112 C131 0.947 . S
H113 C132 0.946 . S
H114 C134 0.953 . S
H115 C135 0.945 . S
H116 C137 0.952 . S
H117 C138 0.949 . S
H118 C140 0.950 . S
H119 C141 0.948 . S
H120 C143 0.951 . S
H121 C108 0.947 . S
H122 C110 0.952 . S
H123 C111 0.950 . S
N124 C127 1.382 . S
N124 C129 1.363 . S
N125 C127 1.371 . S
N125 C128 1.372 . S
N126 C128 1.361 . S
N126 C129 1.377 . S
C127 N124 1.382 . S
C127 N125 1.371 . S
C127 C130 1.480 . S
C128 N125 1.372 . S
C128 N126 1.361 . S
C128 C136 1.457 . S
C129 N124 1.363 . S
C129 N126 1.377 . S
C129 C142 1.479 . S
C130 C127 1.480 . S
C130 C131 1.383 . S
C130 C135 1.385 . S
C131 H112 0.947 . S
C131 C130 1.383 . S
C131 C132 1.388 . S
C132 H113 0.946 . S
C132 C131 1.388 . S
C132 C133 1.384 . S
C133 C132 1.384 . S
C133 C134 1.377 . S
C134 H114 0.953 . S
C134 C133 1.377 . S
C134 C135 1.369 . S
C135 H115 0.945 . S
C135 C130 1.385 . S
C135 C134 1.369 . S
C136 C128 1.457 . S
C136 C137 1.372 . S
C136 C141 1.364 . S
C137 H116 0.952 . S
C137 C136 1.372 . S
C137 C138 1.389 . S
C138 H117 0.949 . S
C138 C137 1.389 . S
C138 C139 1.387 . S
C139 C138 1.387 . S
C139 C140 1.372 . S
C140 H118 0.950 . S
C140 C139 1.372 . S
C140 C141 1.379 . S
C141 H119 0.948 . S
C141 C136 1.364 . S
C141 C140 1.379 . S
C142 C111 1.383 . S
C142 C129 1.479 . S
C142 C143 1.398 . S
C143 C108 1.382 . S
C143 H120 0.951 . S
C143 C142 1.398 . S
C144 C145 1.384 . S
C144 H157 0.947 . S
C144 C179 1.382 . S
C145 C144 1.384 . S
C145 C146 1.378 . S
C146 C145 1.378 . S
C146 C147 1.378 . S
C146 H158 0.952 . S
C147 C146 1.378 . S
C147 H159 0.950 . S
C147 C178 1.383 . S
H148 C167 0.947 . S
H149 C168 0.946 . S
H150 C170 0.953 1_545 S
H151 C171 0.945 1_545 S
H152 C173 0.952 . S
H153 C174 0.949 . S
H154 C176 0.950 . S
H155 C177 0.948 . S
H156 C179 0.951 . S
H157 C144 0.947 . S
H158 C146 0.952 . S
H159 C147 0.950 . S
N160 C163 1.382 . S
N160 C165 1.363 . S
N161 C163 1.371 . S
N161 C164 1.372 . S
N162 C164 1.361 . S
N162 C165 1.377 . S
C163 N160 1.382 . S
C163 N161 1.371 . S
C163 C166 1.480 . S
C164 N161 1.372 . S
C164 N162 1.361 . S
C164 C172 1.457 . S
C165 N160 1.363 . S
C165 N162 1.377 . S
C165 C178 1.479 . S
C166 C163 1.480 . S
C166 C167 1.383 1_455 S
C166 C171 1.385 . S
C167 H148 0.947 . S
C167 C166 1.383 1_655 S
C167 C168 1.388 . S
C168 H149 0.946 . S
C168 C167 1.388 . S
C168 C169 1.384 . S
C169 C168 1.384 . S
C169 C170 1.377 1_655 S
C170 H150 0.953 1_565 S
C170 C169 1.377 1_455 S
C170 C171 1.369 . S
C171 H151 0.945 1_565 S
C171 C166 1.385 . S
C171 C170 1.369 . S
C172 C164 1.457 . S
C172 C173 1.372 1_565 S
C172 C177 1.364 . S
C173 H152 0.952 . S
C173 C172 1.372 1_545 S
C173 C174 1.389 . S
C174 H153 0.949 . S
C174 C173 1.389 . S
C174 C175 1.387 . S
C175 C174 1.387 . S
C175 C176 1.372 . S
C176 H154 0.950 . S
C176 C175 1.372 . S
C176 C177 1.379 1_545 S
C177 H155 0.948 . S
C177 C172 1.364 . S
C177 C176 1.379 1_565 S
C178 C147 1.383 . S
C178 C165 1.479 . S
C178 C179 1.398 . S
C179 C144 1.382 . S
C179 H156 0.951 . S
C179 C178 1.398 . S
C180 C181 1.384 . S
C180 H193 0.947 . S
C180 C215 1.382 . S
C181 C180 1.384 . S
C181 C182 1.378 . S
C182 C181 1.378 . S
C182 C183 1.378 . S
C182 H194 0.952 . S
C183 C182 1.378 . S
C183 H195 0.950 . S
C183 C214 1.383 . S
H184 C203 0.947 . S
H185 C204 0.946 . S
H186 C206 0.953 . S
H187 C207 0.945 . S
H188 C209 0.952 . S
H189 C210 0.949 . S
H190 C212 0.950 . S
H191 C213 0.948 . S
H192 C215 0.951 . S
H193 C180 0.947 . S
H194 C182 0.952 . S
H195 C183 0.950 . S
N196 C199 1.382 . S
N196 C201 1.363 . S
N197 C199 1.371 . S
N197 C200 1.372 . S
N198 C200 1.361 . S
N198 C201 1.377 . S
C199 N196 1.382 . S
C199 N197 1.371 . S
C199 C202 1.480 . S
C200 N197 1.372 . S
C200 N198 1.361 . S
C200 C208 1.457 . S
C201 N196 1.363 . S
C201 N198 1.377 . S
C201 C214 1.479 . S
C202 C199 1.480 . S
C202 C203 1.383 . S
C202 C207 1.385 . S
C203 H184 0.947 . S
C203 C202 1.383 . S
C203 C204 1.388 . S
C204 H185 0.946 . S
C204 C203 1.388 . S
C204 C205 1.384 . S
C205 C204 1.384 . S
C205 C206 1.377 . S
C206 H186 0.953 . S
C206 C205 1.377 . S
C206 C207 1.369 . S
C207 H187 0.945 . S
C207 C202 1.385 . S
C207 C206 1.369 . S
C208 C200 1.457 . S
C208 C209 1.372 . S
C208 C213 1.364 . S
C209 H188 0.952 . S
C209 C208 1.372 . S
C209 C210 1.389 . S
C210 H189 0.949 . S
C210 C209 1.389 . S
C210 C211 1.387 . S
C211 C210 1.387 . S
C211 C212 1.372 . S
C212 H190 0.950 . S
C212 C211 1.372 . S
C212 C213 1.379 . S
C213 H191 0.948 . S
C213 C208 1.364 . S
C213 C212 1.379 . S
C214 C183 1.383 . S
C214 C201 1.479 . S
C214 C215 1.398 . S
C215 C180 1.382 . S
C215 H192 0.951 . S
C215 C214 1.398 . S
C216 C217 1.384 . S
C216 H229 0.933 1_655 S
C216 C251 1.382 . S
C217 C216 1.384 . S
C217 C218 1.378 . S
C218 C217 1.378 . S
C218 C219 1.378 . S
C218 H230 0.952 . S
C219 C218 1.378 . S
C219 H231 0.950 . S
C219 C250 1.383 . S
H220 C239 0.947 . S
H221 C240 0.946 . S
H222 C242 0.953 . S
H223 C243 0.945 . S
H224 C245 0.952 . S
H225 C246 0.949 . S
H226 C248 0.950 . S
H227 C249 0.948 . S
H228 C251 0.951 . S
H229 C216 0.933 1_455 S
H230 C218 0.952 . S
H231 C219 0.950 . S
N232 C235 1.382 . S
N232 C237 1.363 . S
N233 C235 1.371 . S
N233 C236 1.372 . S
N234 C236 1.361 . S
N234 C237 1.377 . S
C235 N232 1.382 . S
C235 N233 1.371 . S
C235 C238 1.480 . S
C236 N233 1.372 . S
C236 N234 1.361 . S
C236 C244 1.457 . S
C237 N232 1.363 . S
C237 N234 1.377 . S
C237 C250 1.479 . S
C238 C235 1.480 . S
C238 C239 1.383 . S
C238 C243 1.385 . S
C239 H220 0.947 . S
C239 C238 1.383 . S
C239 C240 1.388 . S
C240 H221 0.946 . S
C240 C239 1.388 . S
C240 C241 1.384 . S
C241 C240 1.384 . S
C241 C242 1.377 . S
C242 H222 0.953 . S
C242 C241 1.377 . S
C242 C243 1.369 . S
C243 H223 0.945 . S
C243 C238 1.385 . S
C243 C242 1.369 . S
C244 C236 1.457 . S
C244 C245 1.372 . S
C244 C249 1.364 1_655 S
C245 H224 0.952 . S
C245 C244 1.372 . S
C245 C246 1.389 . S
C246 H225 0.949 . S
C246 C245 1.389 . S
C246 C247 1.387 1_655 S
C247 C246 1.387 1_455 S
C247 C248 1.372 . S
C248 H226 0.950 . S
C248 C247 1.372 . S
C248 C249 1.379 . S
C249 H227 0.948 . S
C249 C244 1.364 1_455 S
C249 C248 1.379 . S
C250 C219 1.383 . S
C250 C237 1.479 . S
C250 C251 1.398 . S
C251 C216 1.382 . S
C251 H228 0.951 . S
C251 C250 1.398 . S
C252 C253 1.384 . S
C252 H265 0.947 . S
C252 C287 1.382 . S
C253 C252 1.384 . S
C253 C254 1.378 . S
C254 C253 1.378 . S
C254 C255 1.378 . S
C254 H266 0.952 . S
C255 C254 1.378 . S
C255 H267 0.950 . S
C255 C286 1.383 . S
H256 C275 0.947 . S
H257 C276 0.946 . S
H258 C278 0.953 . S
H259 C279 0.945 . S
H260 C281 0.952 . S
H261 C282 0.949 . S
H262 C284 0.950 . S
H263 C285 0.948 . S
H264 C287 0.951 . S
H265 C252 0.947 . S
H266 C254 0.952 . S
H267 C255 0.950 . S
N268 C271 1.382 . S
N268 C273 1.363 . S
N269 C271 1.371 . S
N269 C272 1.372 . S
N270 C272 1.361 . S
N270 C273 1.377 . S
C271 N268 1.382 . S
C271 N269 1.371 . S
C271 C274 1.480 . S
C272 N269 1.372 . S
C272 N270 1.361 . S
C272 C280 1.457 . S
C273 N268 1.363 . S
C273 N270 1.377 . S
C273 C286 1.479 . S
C274 C271 1.480 . S
C274 C275 1.383 . S
C274 C279 1.385 . S
C275 H256 0.947 . S
C275 C274 1.383 . S
C275 C276 1.388 . S
C276 H257 0.946 . S
C276 C275 1.388 . S
C276 C277 1.384 . S
C277 C276 1.384 . S
C277 C278 1.377 . S
C278 H258 0.953 . S
C278 C277 1.377 . S
C278 C279 1.369 . S
C279 H259 0.945 . S
C279 C274 1.385 . S
C279 C278 1.369 . S
C280 C272 1.457 . S
C280 C281 1.372 . S
C280 C285 1.364 . S
C281 H260 0.952 . S
C281 C280 1.372 . S
C281 C282 1.389 . S
C282 H261 0.949 . S
C282 C281 1.389 . S
C282 C283 1.387 . S
C283 C282 1.387 . S
C283 C284 1.372 . S
C284 H262 0.950 . S
C284 C283 1.372 . S
C284 C285 1.379 . S
C285 H263 0.948 . S
C285 C280 1.364 . S
C285 C284 1.379 . S
C286 C255 1.383 . S
C286 C273 1.479 . S
C286 C287 1.398 . S
C287 C252 1.382 . S
C287 H264 0.951 . S
C287 C286 1.398 . S
C288 C289 1.384 . S
C288 H301 0.947 . S
C288 C323 1.382 . S
C289 C288 1.384 . S
C289 C290 1.378 . S
C290 C289 1.378 . S
C290 C291 1.378 . S
C290 H302 0.952 . S
C291 C290 1.378 . S
C291 H303 0.950 . S
C291 C322 1.383 . S
H292 C311 0.947 . S
H293 C312 0.946 . S
H294 C314 0.953 . S
H295 C315 0.945 . S
H296 C317 0.952 . S
H297 C318 0.949 . S
H298 C320 0.950 . S
H299 C321 0.948 . S
H300 C323 0.951 . S
H301 C288 0.947 . S
H302 C290 0.952 . S
H303 C291 0.950 . S
N304 C307 1.382 . S
N304 C309 1.363 . S
N305 C307 1.371 . S
N305 C308 1.372 . S
N306 C308 1.361 . S
N306 C309 1.377 . S
C307 N304 1.382 . S
C307 N305 1.371 . S
C307 C310 1.480 . S
C308 N305 1.372 . S
C308 N306 1.361 . S
C308 C316 1.457 . S
C309 N304 1.363 . S
C309 N306 1.377 . S
C309 C322 1.479 . S
C310 C307 1.480 . S
C310 C311 1.383 . S
C310 C315 1.385 . S
C311 H292 0.947 . S
C311 C310 1.383 . S
C311 C312 1.388 . S
C312 H293 0.946 . S
C312 C311 1.388 . S
C312 C313 1.384 . S
C313 C312 1.384 . S
C313 C314 1.377 . S
C314 H294 0.953 . S
C314 C313 1.377 . S
C314 C315 1.369 . S
C315 H295 0.945 . S
C315 C310 1.385 . S
C315 C314 1.369 . S
C316 C308 1.457 . S
C316 C317 1.372 . S
C316 C321 1.364 . S
C317 H296 0.952 . S
C317 C316 1.372 . S
C317 C318 1.389 . S
C318 H297 0.949 . S
C318 C317 1.389 . S
C318 C319 1.387 . S
C319 C318 1.387 . S
C319 C320 1.372 . S
C320 H298 0.950 . S
C320 C319 1.372 . S
C320 C321 1.379 . S
C321 H299 0.948 . S
C321 C316 1.364 . S
C321 C320 1.379 . S
C322 C291 1.383 . S
C322 C309 1.479 . S
C322 C323 1.398 . S
C323 C288 1.382 . S
C323 H300 0.951 . S
C323 C322 1.398 . S
C324 C325 1.384 . S
C324 H337 0.947 . S
C324 C359 1.382 . S
C325 C324 1.384 . S
C325 C326 1.378 . S
C326 C325 1.378 . S
C326 C327 1.378 . S
C326 H338 0.952 . S
C327 C326 1.378 . S
C327 H339 0.950 . S
C327 C358 1.383 . S
H328 C347 0.947 . S
H329 C348 0.936 1_565 S
H330 C350 0.953 . S
H331 C351 0.945 . S
H332 C353 0.952 . S
H333 C354 0.949 1_545 S
H334 C356 0.950 . S
H335 C357 0.948 . S
H336 C359 0.951 . S
H337 C324 0.947 . S
H338 C326 0.952 . S
H339 C327 0.950 . S
N340 C343 1.382 . S
N340 C345 1.363 . S
N341 C343 1.371 . S
N341 C344 1.372 . S
N342 C344 1.361 . S
N342 C345 1.377 . S
C343 N340 1.382 . S
C343 N341 1.371 . S
C343 C346 1.480 . S
C344 N341 1.372 . S
C344 N342 1.361 . S
C344 C352 1.457 . S
C345 N340 1.363 . S
C345 N342 1.377 . S
C345 C358 1.479 . S
C346 C343 1.480 . S
C346 C347 1.383 . S
C346 C351 1.385 1_565 S
C347 H328 0.947 . S
C347 C346 1.383 . S
C347 C348 1.388 1_565 S
C348 H329 0.936 1_545 S
C348 C347 1.388 1_545 S
C348 C349 1.384 . S
C349 C348 1.384 . S
C349 C350 1.377 . S
C350 H330 0.953 . S
C350 C349 1.377 . S
C350 C351 1.369 . S
C351 H331 0.945 . S
C351 C346 1.385 1_545 S
C351 C350 1.369 . S
C352 C344 1.457 . S
C352 C353 1.372 . S
C352 C357 1.364 . S
C353 H332 0.952 . S
C353 C352 1.372 . S
C353 C354 1.389 . S
C354 H333 0.949 1_565 S
C354 C353 1.389 . S
C354 C355 1.387 . S
C355 C354 1.387 . S
C355 C356 1.372 . S
C356 H334 0.950 . S
C356 C355 1.372 . S
C356 C357 1.379 . S
C357 H335 0.948 . S
C357 C352 1.364 . S
C357 C356 1.379 . S
C358 C327 1.383 . S
C358 C345 1.479 . S
C358 C359 1.398 . S
C359 C324 1.382 . S
C359 H336 0.951 . S
C359 C358 1.398 . S
C360 C361 1.384 . S
C360 H373 0.947 . S
C360 C395 1.382 . S
C361 C360 1.384 . S
C361 C362 1.378 . S
C362 C361 1.378 . S
C362 C363 1.378 . S
C362 H374 0.952 . S
C363 C362 1.378 . S
C363 H375 0.950 . S
C363 C394 1.383 . S
H364 C383 0.947 . S
H365 C384 0.946 . S
H366 C386 0.953 . S
H367 C387 0.945 . S
H368 C389 0.952 . S
H369 C390 0.949 . S
H370 C392 0.950 . S
H371 C393 0.948 . S
H372 C395 0.951 . S
H373 C360 0.947 . S
H374 C362 0.952 . S
H375 C363 0.950 . S
N376 C379 1.382 . S
N376 C381 1.363 . S
N377 C379 1.371 . S
N377 C380 1.372 . S
N378 C380 1.361 . S
N378 C381 1.377 . S
C379 N376 1.382 . S
C379 N377 1.371 . S
C379 C382 1.480 . S
C380 N377 1.372 . S
C380 N378 1.361 . S
C380 C388 1.457 . S
C381 N376 1.363 . S
C381 N378 1.377 . S
C381 C394 1.479 . S
C382 C379 1.480 . S
C382 C383 1.383 . S
C382 C387 1.385 . S
C383 H364 0.947 . S
C383 C382 1.383 . S
C383 C384 1.388 . S
C384 H365 0.946 . S
C384 C383 1.388 . S
C384 C385 1.384 . S
C385 C384 1.384 . S
C385 C386 1.377 . S
C386 H366 0.953 . S
C386 C385 1.377 . S
C386 C387 1.369 . S
C387 H367 0.945 . S
C387 C382 1.385 . S
C387 C386 1.369 . S
C388 C380 1.457 . S
C388 C389 1.372 . S
C388 C393 1.364 . S
C389 H368 0.952 . S
C389 C388 1.372 . S
C389 C390 1.389 . S
C390 H369 0.949 . S
C390 C389 1.389 . S
C390 C391 1.387 . S
C391 C390 1.387 . S
C391 C392 1.372 . S
C392 H370 0.950 . S
C392 C391 1.372 . S
C392 C393 1.379 . S
C393 H371 0.948 . S
C393 C388 1.364 . S
C393 C392 1.379 . S
C394 C363 1.383 . S
C394 C381 1.479 . S
C394 C395 1.398 . S
C395 C360 1.382 . S
C395 H372 0.951 . S
C395 C394 1.398 . S
C396 C397 1.384 . S
C396 H409 0.947 . S
C396 C431 1.382 . S
C397 C396 1.384 . S
C397 C398 1.378 . S
C398 C397 1.378 . S
C398 C399 1.378 . S
C398 H410 0.952 . S
C399 C398 1.378 . S
C399 H411 0.950 . S
C399 C430 1.383 . S
H400 C419 0.947 . S
H401 C420 0.946 . S
H402 C422 0.953 . S
H403 C423 0.945 . S
H404 C425 0.952 . S
H405 C426 0.949 . S
H406 C428 0.950 . S
H407 C429 0.948 . S
H408 C431 0.951 . S
H409 C396 0.947 . S
H410 C398 0.952 . S
H411 C399 0.950 . S
N412 C415 1.382 . S
N412 C417 1.363 . S
N413 C415 1.371 . S
N413 C416 1.372 . S
N414 C416 1.361 . S
N414 C417 1.377 . S
C415 N412 1.382 . S
C415 N413 1.371 . S
C415 C418 1.480 . S
C416 N413 1.372 . S
C416 N414 1.361 . S
C416 C424 1.457 . S
C417 N412 1.363 . S
C417 N414 1.377 . S
C417 C430 1.479 . S
C418 C415 1.480 . S
C418 C419 1.383 . S
C418 C423 1.385 . S
C419 H400 0.947 . S
C419 C418 1.383 . S
C419 C420 1.388 . S
C420 H401 0.946 . S
C420 C419 1.388 . S
C420 C421 1.384 . S
C421 C420 1.384 . S
C421 C422 1.377 . S
C422 H402 0.953 . S
C422 C421 1.377 . S
C422 C423 1.369 . S
C423 H403 0.945 . S
C423 C418 1.385 . S
C423 C422 1.369 . S
C424 C416 1.457 . S
C424 C425 1.372 . S
C424 C429 1.364 . S
C425 H404 0.952 . S
C425 C424 1.372 . S
C425 C426 1.389 . S
C426 H405 0.949 . S
C426 C425 1.389 . S
C426 C427 1.387 . S
C427 C426 1.387 . S
C427 C428 1.372 . S
C428 H406 0.950 . S
C428 C427 1.372 . S
C428 C429 1.379 . S
C429 H407 0.948 . S
C429 C424 1.364 . S
C429 C428 1.379 . S
C430 C399 1.383 . S
C430 C417 1.479 . S
C430 C431 1.398 . S
C431 C396 1.382 . S
C431 H408 0.951 . S
C431 C430 1.398 . S
C432 C433 1.384 . S
C432 H445 0.947 . S
C432 C467 1.382 . S
C433 C432 1.384 . S
C433 C434 1.378 . S
C434 C433 1.378 . S
C434 C435 1.378 . S
C434 H446 0.952 . S
C435 C434 1.378 . S
C435 H447 0.950 . S
C435 C466 1.383 . S
H436 C455 0.947 . S
H437 C456 0.946 . S
H438 C458 0.953 . S
H439 C459 0.945 . S
H440 C461 0.952 . S
H441 C462 0.949 . S
H442 C464 0.950 . S
H443 C465 0.948 . S
H444 C467 0.951 . S
H445 C432 0.947 . S
H446 C434 0.952 . S
H447 C435 0.950 . S
N448 C451 1.382 . S
N448 C453 1.363 . S
N449 C451 1.371 . S
N449 C452 1.372 . S
N450 C452 1.361 . S
N450 C453 1.377 . S
C451 N448 1.382 . S
C451 N449 1.371 . S
C451 C454 1.480 . S
C452 N449 1.372 . S
C452 N450 1.361 . S
C452 C460 1.457 . S
C453 N448 1.363 . S
C453 N450 1.377 . S
C453 C466 1.479 . S
C454 C451 1.480 . S
C454 C455 1.383 . S
C454 C459 1.385 . S
C455 H436 0.947 . S
C455 C454 1.383 . S
C455 C456 1.388 . S
C456 H437 0.946 . S
C456 C455 1.388 . S
C456 C457 1.384 . S
C457 C456 1.384 . S
C457 C458 1.377 . S
C458 H438 0.953 . S
C458 C457 1.377 . S
C458 C459 1.369 . S
C459 H439 0.945 . S
C459 C454 1.385 . S
C459 C458 1.369 . S
C460 C452 1.457 . S
C460 C461 1.372 . S
C460 C465 1.364 . S
C461 H440 0.952 . S
C461 C460 1.372 . S
C461 C462 1.389 . S
C462 H441 0.949 . S
C462 C461 1.389 . S
C462 C463 1.387 . S
C463 C462 1.387 . S
C463 C464 1.372 . S
C464 H442 0.950 . S
C464 C463 1.372 . S
C464 C465 1.379 . S
C465 H443 0.948 . S
C465 C460 1.364 . S
C465 C464 1.379 . S
C466 C435 1.383 . S
C466 C453 1.479 . S
C466 C467 1.398 . S
C467 C432 1.382 . S
C467 H444 0.951 . S
C467 C466 1.398 . S
C468 C469 1.384 . S
C468 H481 0.947 . S
C468 C503 1.379 1_554 S
C469 C468 1.384 . S
C469 C470 1.378 1_554 S
C470 C469 1.378 1_556 S
C470 C471 1.378 . S
C470 H482 0.952 . S
C471 C470 1.378 . S
C471 H483 0.950 . S
C471 C502 1.383 . S
H472 C491 0.947 . S
H473 C492 0.946 . S
H474 C494 0.953 . S
H475 C495 0.945 . S
H476 C497 0.952 . S
H477 C498 0.949 . S
H478 C500 0.950 . S
H479 C501 0.948 . S
H480 C503 0.950 1_554 S
H481 C468 0.947 . S
H482 C470 0.952 . S
H483 C471 0.950 . S
N484 C487 1.382 . S
N484 C489 1.363 . S
N485 C487 1.371 . S
N485 C488 1.372 . S
N486 C488 1.361 . S
N486 C489 1.377 . S
C487 N484 1.382 . S
C487 N485 1.371 . S
C487 C490 1.480 . S
C488 N485 1.372 . S
C488 N486 1.361 . S
C488 C496 1.457 . S
C489 N484 1.363 . S
C489 N486 1.377 . S
C489 C502 1.479 . S
C490 C487 1.480 . S
C490 C491 1.383 . S
C490 C495 1.385 . S
C491 H472 0.947 . S
C491 C490 1.383 . S
C491 C492 1.388 . S
C492 H473 0.946 . S
C492 C491 1.388 . S
C492 C493 1.384 . S
C493 C492 1.384 . S
C493 C494 1.377 . S
C494 H474 0.953 . S
C494 C493 1.377 . S
C494 C495 1.369 . S
C495 H475 0.945 . S
C495 C490 1.385 . S
C495 C494 1.369 . S
C496 C488 1.457 . S
C496 C497 1.372 . S
C496 C501 1.364 . S
C497 H476 0.952 . S
C497 C496 1.372 . S
C497 C498 1.389 . S
C498 H477 0.949 . S
C498 C497 1.389 . S
C498 C499 1.387 . S
C499 C498 1.387 . S
C499 C500 1.372 . S
C500 H478 0.950 . S
C500 C499 1.372 . S
C500 C501 1.379 . S
C501 H479 0.948 . S
C501 C496 1.364 . S
C501 C500 1.379 . S
C502 C471 1.383 . S
C502 C489 1.479 . S
C502 C503 1.402 . S
C503 C468 1.379 1_556 S
C503 H480 0.950 1_556 S
C503 C502 1.402 . S
C504 C505 1.384 . S
C504 H517 0.947 . S
C504 C539 1.382 . S
C505 C504 1.384 . S
C505 C506 1.378 . S
C506 C505 1.378 . S
C506 C507 1.378 . S
C506 H518 0.952 . S
C507 C506 1.378 . S
C507 H519 0.950 . S
C507 C538 1.383 . S
H508 C527 0.947 . S
H509 C528 0.946 . S
H510 C530 0.953 . S
H511 C531 0.945 . S
H512 C533 0.952 . S
H513 C534 0.949 . S
H514 C536 0.950 . S
H515 C537 0.948 . S
H516 C539 0.951 . S
H517 C504 0.947 . S
H518 C506 0.952 . S
H519 C507 0.950 . S
N520 C523 1.382 . S
N520 C525 1.363 . S
N521 C523 1.371 . S
N521 C524 1.372 . S
N522 C524 1.361 . S
N522 C525 1.377 . S
C523 N520 1.382 . S
C523 N521 1.371 . S
C523 C526 1.480 . S
C524 N521 1.372 . S
C524 N522 1.361 . S
C524 C532 1.457 . S
C525 N520 1.363 . S
C525 N522 1.377 . S
C525 C538 1.479 . S
C526 C523 1.480 . S
C526 C527 1.383 . S
C526 C531 1.385 . S
C527 H508 0.947 . S
C527 C526 1.383 . S
C527 C528 1.388 . S
C528 H509 0.946 . S
C528 C527 1.388 . S
C528 C529 1.384 . S
C529 C528 1.384 . S
C529 C530 1.377 . S
C530 H510 0.953 . S
C530 C529 1.377 . S
C530 C531 1.369 . S
C531 H511 0.945 . S
C531 C526 1.385 . S
C531 C530 1.369 . S
C532 C524 1.457 . S
C532 C533 1.372 . S
C532 C537 1.364 . S
C533 H512 0.952 . S
C533 C532 1.372 . S
C533 C534 1.389 . S
C534 H513 0.949 . S
C534 C533 1.389 . S
C534 C535 1.387 . S
C535 C534 1.387 . S
C535 C536 1.372 . S
C536 H514 0.950 . S
C536 C535 1.372 . S
C536 C537 1.379 . S
C537 H515 0.948 . S
C537 C532 1.364 . S
C537 C536 1.379 . S
C538 C507 1.383 . S
C538 C525 1.479 . S
C538 C539 1.398 . S
C539 C504 1.382 . S
C539 H516 0.951 . S
C539 C538 1.398 . S
C540 C541 1.384 . S
C540 H553 0.947 1_554 S
C540 C575 1.382 1_554 S
C541 C540 1.384 . S
C541 C542 1.378 . S
C542 C541 1.378 . S
C542 C543 1.378 . S
C542 H554 0.952 . S
C543 C542 1.378 . S
C543 H555 0.950 . S
C543 C574 1.383 1_554 S
H544 C563 0.975 . S
H545 C564 0.911 1_554 S
H546 C566 0.953 . S
H547 C567 0.945 . S
H548 C569 0.952 . S
H549 C570 0.949 . S
H550 C572 0.950 . S
H551 C573 0.948 . S
H552 C575 0.951 . S
H553 C540 0.947 1_556 S
H554 C542 0.952 . S
H555 C543 0.950 . S
N556 C559 1.382 . S
N556 C561 1.363 . S
N557 C559 1.371 . S
N557 C560 1.372 . S
N558 C560 1.361 . S
N558 C561 1.377 . S
C559 N556 1.382 . S
C559 N557 1.371 . S
C559 C562 1.480 . S
C560 N557 1.372 . S
C560 N558 1.361 . S
C560 C568 1.457 . S
C561 N556 1.363 . S
C561 N558 1.377 . S
C561 C574 1.479 . S
C562 C559 1.480 . S
C562 C563 1.383 . S
C562 C567 1.385 1_545 S
C563 H544 0.975 . S
C563 C562 1.383 . S
C563 C564 1.388 . S
C564 H545 0.911 1_556 S
C564 C563 1.388 . S
C564 C565 1.384 1_545 S
C565 C564 1.384 1_565 S
C565 C566 1.377 . S
C566 H546 0.953 . S
C566 C565 1.377 . S
C566 C567 1.369 . S
C567 H547 0.945 . S
C567 C562 1.385 1_565 S
C567 C566 1.369 . S
C568 C560 1.457 . S
C568 C569 1.372 . S
C568 C573 1.364 . S
C569 H548 0.952 . S
C569 C568 1.372 . S
C569 C570 1.389 . S
C570 H549 0.949 . S
C570 C569 1.389 . S
C570 C571 1.387 . S
C571 C570 1.387 . S
C571 C572 1.372 . S
C572 H550 0.950 . S
C572 C571 1.372 . S
C572 C573 1.379 . S
C573 H551 0.948 . S
C573 C568 1.364 . S
C573 C572 1.379 . S
C574 C543 1.383 1_556 S
C574 C561 1.479 . S
C574 C575 1.398 . S
C575 C540 1.382 1_556 S
C575 H552 0.951 . S
C575 C574 1.398 . S
C576 O577 1.160 1_554 S
C576 O583 1.185 . S
O577 C576 1.160 1_556 S
O578 Zn579 1.899 1_556 S
O578 C586 1.284 . S
Zn579 O578 1.899 1_554 S
Zn579 O580 2.032 . S
Zn579 O583 2.086 . S
Zn579 O588 1.977 . S
O580 Zn579 2.032 . S
O580 C584 1.278 . S
C581 O582 1.203 . S
C581 O588 1.267 . S
O582 C581 1.203 . S
O583 C576 1.185 . S
O583 Zn579 2.086 . S
C584 O580 1.278 . S
C584 O585 1.211 . S
O585 C584 1.211 . S
C586 O578 1.284 . S
C586 O587 1.273 . S
O587 C586 1.273 . S
O588 Zn579 1.977 . S
O588 C581 1.267 . S
C589 O590 1.160 . S
C589 O596 1.185 . S
O590 C589 1.160 . S
O591 Zn592 1.899 . S
O591 C599 1.284 . S
Zn592 O591 1.899 . S
Zn592 O593 2.032 . S
Zn592 O596 2.086 . S
Zn592 O601 1.977 . S
O593 Zn592 2.032 . S
O593 C597 1.278 . S
C594 O595 1.203 . S
C594 O601 1.267 . S
O595 C594 1.203 . S
O596 C589 1.185 . S
O596 Zn592 2.086 . S
C597 O593 1.278 . S
C597 O598 1.211 . S
O598 C597 1.211 . S
C599 O591 1.284 . S
C599 O600 1.273 . S
O600 C599 1.273 . S
O601 Zn592 1.977 . S
O601 C594 1.267 . S
C602 O603 1.160 1_554 S
C602 O609 1.185 . S
O603 C602 1.160 1_556 S
O604 Zn605 1.899 1_556 S
O604 C612 1.284 . S
Zn605 O604 1.899 1_554 S
Zn605 O606 2.032 1_554 S
Zn605 O609 2.086 . S
Zn605 O614 1.977 . S
O606 Zn605 2.032 1_556 S
O606 C610 1.278 . S
C607 O608 1.203 . S
C607 O614 1.267 . S
O608 C607 1.203 . S
O609 C602 1.185 . S
O609 Zn605 2.086 . S
C610 O606 1.278 . S
C610 O611 1.211 1_556 S
O611 C610 1.211 1_554 S
C612 O604 1.284 . S
C612 O613 1.273 . S
O613 C612 1.273 . S
O614 Zn605 1.977 . S
O614 C607 1.267 . S
C615 O616 1.160 . S
C615 O622 1.185 . S
O616 C615 1.160 . S
O617 Zn618 1.899 . S
O617 C625 1.284 . S
Zn618 O617 1.899 . S
Zn618 O619 2.028 1_545 S
Zn618 O622 2.086 . S
Zn618 O627 1.977 . S
O619 Zn618 2.028 1_565 S
O619 C623 1.282 . S
C620 O621 1.203 . S
C620 O627 1.267 . S
O621 C620 1.203 . S
O622 C615 1.185 . S
O622 Zn618 2.086 . S
C623 O619 1.282 . S
C623 O624 1.211 . S
O624 C623 1.211 . S
C625 O617 1.284 . S
C625 O626 1.273 1_545 S
O626 C625 1.273 1_565 S
O627 Zn618 1.977 . S
O627 C620 1.267 . S
C628 O629 1.160 . S
C628 O635 1.185 . S
O629 C628 1.160 . S
O630 Zn631 1.899 . S
O630 C638 1.284 . S
Zn631 O630 1.899 . S
Zn631 O632 2.032 . S
Zn631 O635 2.086 . S
Zn631 O640 1.977 . S
O632 Zn631 2.032 . S
O632 C636 1.278 . S
C633 O634 1.203 . S
C633 O640 1.267 . S
O634 C633 1.203 . S
O635 C628 1.185 . S
O635 Zn631 2.086 . S
C636 O632 1.278 . S
C636 O637 1.211 . S
O637 C636 1.211 . S
C638 O630 1.284 . S
C638 O639 1.273 . S
O639 C638 1.273 . S
O640 Zn631 1.977 . S
O640 C633 1.267 . S
C641 O642 1.160 . S
C641 O648 1.185 . S
O642 C641 1.160 . S
O643 Zn644 1.899 . S
O643 C651 1.284 . S
Zn644 O643 1.899 . S
Zn644 O645 2.032 . S
Zn644 O648 2.086 . S
Zn644 O653 1.977 . S
O645 Zn644 2.032 . S
O645 C649 1.278 . S
C646 O647 1.203 . S
C646 O653 1.267 . S
O647 C646 1.203 . S
O648 C641 1.185 . S
O648 Zn644 2.086 . S
C649 O645 1.278 . S
C649 O650 1.211 . S
O650 C649 1.211 . S
C651 O643 1.284 . S
C651 O652 1.273 . S
O652 C651 1.273 . S
O653 Zn644 1.977 . S
O653 C646 1.267 . S
C654 O655 1.160 . S
C654 O661 1.185 . S
O655 C654 1.160 . S
O656 Zn657 1.899 . S
O656 C664 1.284 . S
Zn657 O656 1.899 . S
Zn657 O658 2.032 . S
Zn657 O661 2.086 . S
Zn657 O666 1.977 . S
O658 Zn657 2.032 . S
O658 C662 1.278 . S
C659 O660 1.203 . S
C659 O666 1.267 . S
O660 C659 1.203 . S
O661 C654 1.185 . S
O661 Zn657 2.086 . S
C662 O658 1.278 . S
C662 O663 1.211 . S
O663 C662 1.211 . S
C664 O656 1.284 . S
C664 O665 1.273 . S
O665 C664 1.273 . S
O666 Zn657 1.977 . S
O666 C659 1.267 . S
C667 O668 1.160 . S
C667 O674 1.185 . S
O668 C667 1.160 . S
O669 Zn670 1.899 . S
O669 C677 1.284 1_565 S
Zn670 O669 1.899 . S
Zn670 O671 2.032 1_565 S
Zn670 O674 2.086 . S
Zn670 O679 1.977 . S
O671 Zn670 2.032 1_545 S
O671 C675 1.278 . S
C672 O673 1.203 1_565 S
C672 O679 1.267 . S
O673 C672 1.203 1_545 S
O674 C667 1.185 . S
O674 Zn670 2.086 . S
C675 O671 1.278 . S
C675 O676 1.211 . S
O676 C675 1.211 . S
C677 O669 1.284 1_545 S
C677 O678 1.273 . S
O678 C677 1.273 . S
O679 Zn670 1.977 . S
O679 C672 1.267 . S
C680 O681 1.160 1_455 S
C680 O687 1.185 . S
O681 C680 1.160 1_655 S
O682 Zn683 1.899 1_655 S
O682 C690 1.284 . S
Zn683 O682 1.899 1_455 S
Zn683 O684 2.032 1_455 S
Zn683 O687 2.086 . S
Zn683 O692 1.977 . S
O684 Zn683 2.032 1_655 S
O684 C688 1.278 1_655 S
C685 O686 1.203 . S
C685 O692 1.267 . S
O686 C685 1.203 . S
O687 C680 1.185 . S
O687 Zn683 2.086 . S
C688 O684 1.278 1_455 S
C688 O689 1.209 . S
O689 C688 1.209 . S
C690 O682 1.284 . S
C690 O691 1.273 . S
O691 C690 1.273 . S
O692 Zn683 1.977 . S
O692 C685 1.267 . S
C693 O694 1.160 . S
C693 O700 1.185 . S
O694 C693 1.160 . S
O695 Zn696 1.899 . S
O695 C703 1.284 . S
Zn696 O695 1.899 . S
Zn696 O697 2.032 . S
Zn696 O700 2.086 . S
Zn696 O705 1.977 . S
O697 Zn696 2.032 . S
O697 C701 1.278 . S
C698 O699 1.203 . S
C698 O705 1.267 . S
O699 C698 1.203 . S
O700 C693 1.185 . S
O700 Zn696 2.086 . S
C701 O697 1.278 . S
C701 O702 1.211 . S
O702 C701 1.211 . S
C703 O695 1.284 . S
C703 O704 1.273 . S
O704 C703 1.273 . S
O705 Zn696 1.977 . S
O705 C698 1.267 . S
C706 O707 1.160 1_455 S
C706 O713 1.185 . S
O707 C706 1.160 1_655 S
O708 Zn709 1.899 1_655 S
O708 C716 1.284 . S
Zn709 O708 1.899 1_455 S
Zn709 O710 2.032 1_455 S
Zn709 O713 2.086 . S
Zn709 O718 1.977 . S
O710 Zn709 2.032 1_655 S
O710 C714 1.278 1_655 S
C711 O712 1.203 . S
C711 O718 1.267 . S
O712 C711 1.203 . S
O713 C706 1.185 . S
O713 Zn709 2.086 . S
C714 O710 1.278 1_455 S
C714 O715 1.210 . S
O715 C714 1.210 . S
C716 O708 1.284 . S
C716 O717 1.273 . S
O717 C716 1.273 . S
O718 Zn709 1.977 . S
O718 C711 1.267 . S
C719 O720 1.160 . S
C719 O726 1.185 . S
O720 C719 1.160 . S
O721 Zn722 1.899 . S
O721 C729 1.284 . S
Zn722 O721 1.899 . S
Zn722 O723 2.032 . S
Zn722 O726 2.086 . S
Zn722 O731 1.977 . S
O723 Zn722 2.032 . S
O723 C727 1.278 . S
C724 O725 1.203 . S
C724 O731 1.267 . S
O725 C724 1.203 . S
O726 C719 1.185 . S
O726 Zn722 2.086 . S
C727 O723 1.278 . S
C727 O728 1.211 . S
O728 C727 1.211 . S
C729 O721 1.284 . S
C729 O730 1.273 . S
O730 C729 1.273 . S
O731 Zn722 1.977 . S
O731 C724 1.267 . S
C732 C733 1.391 . S
C732 C734 1.394 . S
C732 H748 0.931 . S
C733 C732 1.391 . S
C733 C737 1.376 . S
C734 C732 1.394 . S
C734 C735 1.369 . S
C734 C738 1.531 . S
C735 C734 1.369 . S
C735 C736 1.410 . S
C735 C743 1.503 . S
C736 C735 1.410 . S
C736 C737 1.392 . S
C736 C739 1.511 . S
C737 C733 1.376 . S
C737 C736 1.392 . S
C737 H749 0.929 . S
C738 C734 1.531 . S
C738 H750 0.960 . S
C738 H751 0.962 . S
C738 H752 0.960 . S
C739 C736 1.511 . S
C739 H753 0.961 . S
C739 H754 0.961 . S
C739 H755 0.961 . S
C740 C741 1.370 . S
C740 C742 1.363 . S
C740 H756 0.931 . S
C741 C740 1.370 . S
C741 C745 1.408 . S
C742 C740 1.363 . S
C742 C743 1.370 . S
C742 C746 1.524 . S
C743 C735 1.503 . S
C743 C742 1.370 . S
C743 C744 1.403 . S
C744 C743 1.403 . S
C744 C745 1.404 . S
C744 C747 1.539 . S
C745 C741 1.408 . S
C745 C744 1.404 . S
C745 H757 0.930 . S
C746 C742 1.524 . S
C746 H758 0.956 . S
C746 H759 0.961 . S
C746 H760 0.961 . S
C747 C744 1.539 . S
C747 H761 0.958 . S
C747 H762 0.961 . S
C747 H763 0.960 . S
H748 C732 0.931 . S
H749 C737 0.929 . S
H750 C738 0.960 . S
H751 C738 0.962 . S
H752 C738 0.960 . S
H753 C739 0.961 . S
H754 C739 0.961 . S
H755 C739 0.961 . S
H756 C740 0.931 . S
H757 C745 0.930 . S
H758 C746 0.956 . S
H759 C746 0.961 . S
H760 C746 0.961 . S
H761 C747 0.958 . S
H762 C747 0.961 . S
H763 C747 0.960 . S
C764 C765 1.391 . S
C764 C766 1.394 . S
C764 H780 0.931 . S
C765 C764 1.391 . S
C765 C769 1.376 . S
C766 C764 1.394 . S
C766 C767 1.369 . S
C766 C770 1.531 . S
C767 C766 1.369 . S
C767 C768 1.410 . S
C767 C775 1.503 . S
C768 C767 1.410 . S
C768 C769 1.392 . S
C768 C771 1.511 . S
C769 C765 1.376 . S
C769 C768 1.392 . S
C769 H781 0.929 . S
C770 C766 1.531 . S
C770 H782 0.960 . S
C770 H783 0.962 . S
C770 H784 0.960 . S
C771 C768 1.511 . S
C771 H785 0.961 . S
C771 H786 0.961 . S
C771 H787 0.961 . S
C772 C773 1.370 . S
C772 C774 1.363 . S
C772 H788 0.931 . S
C773 C772 1.370 . S
C773 C777 1.408 . S
C774 C772 1.363 . S
C774 C775 1.370 . S
C774 C778 1.524 . S
C775 C767 1.503 . S
C775 C774 1.370 . S
C775 C776 1.403 . S
C776 C775 1.403 . S
C776 C777 1.404 . S
C776 C779 1.539 . S
C777 C773 1.408 . S
C777 C776 1.404 . S
C777 H789 0.930 . S
C778 C774 1.524 . S
C778 H790 0.956 . S
C778 H791 0.961 . S
C778 H792 0.961 . S
C779 C776 1.539 . S
C779 H793 0.958 . S
C779 H794 0.961 . S
C779 H795 0.960 . S
H780 C764 0.931 . S
H781 C769 0.929 . S
H782 C770 0.960 . S
H783 C770 0.962 . S
H784 C770 0.960 . S
H785 C771 0.961 . S
H786 C771 0.961 . S
H787 C771 0.961 . S
H788 C772 0.931 . S
H789 C777 0.930 . S
H790 C778 0.956 . S
H791 C778 0.961 . S
H792 C778 0.961 . S
H793 C779 0.958 . S
H794 C779 0.961 . S
H795 C779 0.960 . S
C796 C797 1.391 . S
C796 C798 1.394 . S
C796 H812 0.931 . S
C797 C796 1.391 . S
C797 C801 1.376 . S
C798 C796 1.394 . S
C798 C799 1.369 . S
C798 C802 1.531 . S
C799 C798 1.369 . S
C799 C800 1.410 . S
C799 C807 1.503 . S
C800 C799 1.410 . S
C800 C801 1.392 . S
C800 C803 1.511 . S
C801 C797 1.376 . S
C801 C800 1.392 . S
C801 H813 0.929 . S
C802 C798 1.531 . S
C802 H814 0.960 . S
C802 H815 0.962 . S
C802 H816 0.960 . S
C803 C800 1.511 . S
C803 H817 0.961 . S
C803 H818 0.961 . S
C803 H819 0.961 . S
C804 C805 1.370 . S
C804 C806 1.363 . S
C804 H820 0.931 . S
C805 C804 1.370 . S
C805 C809 1.408 . S
C806 C804 1.363 . S
C806 C807 1.370 . S
C806 C810 1.524 . S
C807 C799 1.503 . S
C807 C806 1.370 . S
C807 C808 1.403 . S
C808 C807 1.403 . S
C808 C809 1.404 . S
C808 C811 1.539 . S
C809 C805 1.408 . S
C809 C808 1.404 . S
C809 H821 0.930 . S
C810 C806 1.524 . S
C810 H822 0.956 . S
C810 H823 0.961 . S
C810 H824 0.961 . S
C811 C808 1.539 . S
C811 H825 0.958 . S
C811 H826 0.961 . S
C811 H827 0.960 . S
H812 C796 0.931 . S
H813 C801 0.929 . S
H814 C802 0.960 . S
H815 C802 0.962 . S
H816 C802 0.960 . S
H817 C803 0.961 . S
H818 C803 0.961 . S
H819 C803 0.961 . S
H820 C804 0.931 . S
H821 C809 0.930 . S
H822 C810 0.956 . S
H823 C810 0.961 . S
H824 C810 0.961 . S
H825 C811 0.958 . S
H826 C811 0.961 . S
H827 C811 0.960 . S
C828 C829 1.408 . S
C828 C830 1.385 1_565 S
C828 H844 0.925 1_565 S
C829 C828 1.408 . S
C829 C833 1.376 . S
C830 C828 1.385 1_545 S
C830 C831 1.370 . S
C830 C834 1.531 . S
C831 C830 1.370 . S
C831 C832 1.408 1_545 S
C831 C839 1.504 . S
C832 C831 1.408 1_565 S
C832 C833 1.392 . S
C832 C835 1.511 . S
C833 C829 1.376 . S
C833 C832 1.392 . S
C833 H845 0.929 . S
C834 C830 1.531 . S
C834 H846 0.960 . S
C834 H847 0.962 . S
C834 H848 0.960 . S
C835 C832 1.511 . S
C835 H849 0.961 . S
C835 H850 0.961 . S
C835 H851 0.961 1_565 S
C836 C837 1.370 1_565 S
C836 C838 1.363 . S
C836 H852 0.931 . S
C837 C836 1.370 1_545 S
C837 C841 1.408 . S
C838 C836 1.363 . S
C838 C839 1.370 1_565 S
C838 C842 1.524 . S
C839 C831 1.504 . S
C839 C838 1.370 1_545 S
C839 C840 1.403 . S
C840 C839 1.403 . S
C840 C841 1.404 . S
C840 C843 1.539 . S
C841 C837 1.408 . S
C841 C840 1.404 . S
C841 H853 0.930 . S
C842 C838 1.524 . S
C842 H854 0.956 . S
C842 H855 0.961 . S
C842 H856 0.961 . S
C843 C840 1.539 . S
C843 H857 0.958 . S
C843 H858 0.961 . S
C843 H859 0.960 . S
H844 C828 0.925 1_545 S
H845 C833 0.929 . S
H846 C834 0.960 . S
H847 C834 0.962 . S
H848 C834 0.960 . S
H849 C835 0.961 . S
H850 C835 0.961 . S
H851 C835 0.961 1_545 S
H852 C836 0.931 . S
H853 C841 0.930 . S
H854 C842 0.956 . S
H855 C842 0.961 . S
H856 C842 0.961 . S
H857 C843 0.958 . S
H858 C843 0.961 . S
H859 C843 0.960 . S
C860 C861 1.391 . S
C860 C862 1.394 . S
C860 H876 0.931 . S
C861 C860 1.391 . S
C861 C865 1.376 . S
C862 C860 1.394 . S
C862 C863 1.369 . S
C862 C866 1.531 . S
C863 C862 1.369 . S
C863 C864 1.410 . S
C863 C871 1.503 . S
C864 C863 1.410 . S
C864 C865 1.392 . S
C864 C867 1.511 . S
C865 C861 1.376 . S
C865 C864 1.392 . S
C865 H877 0.929 . S
C866 C862 1.531 . S
C866 H878 0.960 . S
C866 H879 0.962 . S
C866 H880 0.960 . S
C867 C864 1.511 . S
C867 H881 0.961 . S
C867 H882 0.961 . S
C867 H883 0.961 . S
C868 C869 1.370 . S
C868 C870 1.363 . S
C868 H884 0.931 . S
C869 C868 1.370 . S
C869 C873 1.408 . S
C870 C868 1.363 . S
C870 C871 1.370 . S
C870 C874 1.524 . S
C871 C863 1.503 . S
C871 C870 1.370 . S
C871 C872 1.403 . S
C872 C871 1.403 . S
C872 C873 1.404 . S
C872 C875 1.539 . S
C873 C869 1.408 . S
C873 C872 1.404 . S
C873 H885 0.930 . S
C874 C870 1.524 . S
C874 H886 0.956 . S
C874 H887 0.961 . S
C874 H888 0.961 . S
C875 C872 1.539 . S
C875 H889 0.958 . S
C875 H890 0.961 . S
C875 H891 0.960 . S
H876 C860 0.931 . S
H877 C865 0.929 . S
H878 C866 0.960 . S
H879 C866 0.962 . S
H880 C866 0.960 . S
H881 C867 0.961 . S
H882 C867 0.961 . S
H883 C867 0.961 . S
H884 C868 0.931 . S
H885 C873 0.930 . S
H886 C874 0.956 . S
H887 C874 0.961 . S
H888 C874 0.961 . S
H889 C875 0.958 . S
H890 C875 0.961 . S
H891 C875 0.960 . S
C892 C893 1.391 . S
C892 C894 1.394 . S
C892 H908 0.931 . S
C893 C892 1.391 . S
C893 C897 1.376 . S
C894 C892 1.394 . S
C894 C895 1.369 . S
C894 C898 1.531 . S
C895 C894 1.369 . S
C895 C896 1.410 . S
C895 C903 1.503 . S
C896 C895 1.410 . S
C896 C897 1.392 . S
C896 C899 1.511 . S
C897 C893 1.376 . S
C897 C896 1.392 . S
C897 H909 0.929 . S
C898 C894 1.531 . S
C898 H910 0.960 . S
C898 H911 0.962 . S
C898 H912 0.960 . S
C899 C896 1.511 . S
C899 H913 0.961 . S
C899 H914 0.961 . S
C899 H915 0.961 . S
C900 C901 1.370 . S
C900 C902 1.363 . S
C900 H916 0.931 . S
C901 C900 1.370 . S
C901 C905 1.408 . S
C902 C900 1.363 . S
C902 C903 1.370 . S
C902 C906 1.524 . S
C903 C895 1.503 . S
C903 C902 1.370 . S
C903 C904 1.403 . S
C904 C903 1.403 . S
C904 C905 1.404 . S
C904 C907 1.539 . S
C905 C901 1.408 . S
C905 C904 1.404 . S
C905 H917 0.930 . S
C906 C902 1.524 . S
C906 H918 0.956 . S
C906 H919 0.961 . S
C906 H920 0.961 . S
C907 C904 1.539 . S
C907 H921 0.958 . S
C907 H922 0.961 . S
C907 H923 0.960 . S
H908 C892 0.931 . S
H909 C897 0.929 . S
H910 C898 0.960 . S
H911 C898 0.962 . S
H912 C898 0.960 . S
H913 C899 0.961 . S
H914 C899 0.961 . S
H915 C899 0.961 . S
H916 C900 0.931 . S
H917 C905 0.930 . S
H918 C906 0.956 . S
H919 C906 0.961 . S
H920 C906 0.961 . S
H921 C907 0.958 . S
H922 C907 0.961 . S
H923 C907 0.960 . S
C924 C925 1.391 . S
C924 C926 1.394 . S
C924 H940 0.931 . S
C925 C924 1.391 . S
C925 C929 1.376 . S
C926 C924 1.394 . S
C926 C927 1.369 . S
C926 C930 1.531 . S
C927 C926 1.369 . S
C927 C928 1.410 . S
C927 C935 1.503 . S
C928 C927 1.410 . S
C928 C929 1.392 . S
C928 C931 1.511 . S
C929 C925 1.376 . S
C929 C928 1.392 . S
C929 H941 0.929 . S
C930 C926 1.531 . S
C930 H942 0.960 . S
C930 H943 0.962 . S
C930 H944 0.960 . S
C931 C928 1.511 . S
C931 H945 0.961 . S
C931 H946 0.961 . S
C931 H947 0.961 . S
C932 C933 1.370 . S
C932 C934 1.363 . S
C932 H948 0.931 . S
C933 C932 1.370 . S
C933 C937 1.408 . S
C934 C932 1.363 . S
C934 C935 1.370 . S
C934 C938 1.524 . S
C935 C927 1.503 . S
C935 C934 1.370 . S
C935 C936 1.403 . S
C936 C935 1.403 . S
C936 C937 1.404 . S
C936 C939 1.539 . S
C937 C933 1.408 . S
C937 C936 1.404 . S
C937 H949 0.930 . S
C938 C934 1.524 . S
C938 H950 0.956 . S
C938 H951 0.961 . S
C938 H952 0.961 . S
C939 C936 1.539 . S
C939 H953 0.958 . S
C939 H954 0.961 . S
C939 H955 0.960 . S
H940 C924 0.931 . S
H941 C929 0.929 . S
H942 C930 0.960 . S
H943 C930 0.962 . S
H944 C930 0.960 . S
H945 C931 0.961 . S
H946 C931 0.961 . S
H947 C931 0.961 . S
H948 C932 0.931 . S
H949 C937 0.930 . S
H950 C938 0.956 . S
H951 C938 0.961 . S
H952 C938 0.961 . S
H953 C939 0.958 . S
H954 C939 0.961 . S
H955 C939 0.960 . S
C956 C957 1.391 . S
C956 C958 1.394 . S
C956 H972 0.931 . S
C957 C956 1.391 . S
C957 C961 1.376 . S
C958 C956 1.394 . S
C958 C959 1.369 . S
C958 C962 1.531 1_565 S
C959 C958 1.369 . S
C959 C960 1.410 . S
C959 C967 1.503 . S
C960 C959 1.410 . S
C960 C961 1.392 . S
C960 C963 1.511 . S
C961 C957 1.376 . S
C961 C960 1.392 . S
C961 H973 0.929 . S
C962 C958 1.531 1_545 S
C962 H974 0.960 . S
C962 H975 0.962 1_545 S
C962 H976 0.960 . S
C963 C960 1.511 . S
C963 H977 0.961 . S
C963 H978 0.961 . S
C963 H979 0.961 . S
C964 C965 1.370 . S
C964 C966 1.363 . S
C964 H980 0.931 . S
C965 C964 1.370 . S
C965 C969 1.408 1_565 S
C966 C964 1.363 . S
C966 C967 1.370 . S
C966 C970 1.524 . S
C967 C959 1.503 . S
C967 C966 1.370 . S
C967 C968 1.403 1_565 S
C968 C967 1.403 1_545 S
C968 C969 1.404 . S
C968 C971 1.539 . S
C969 C965 1.408 1_545 S
C969 C968 1.404 . S
C969 H981 0.930 . S
C970 C966 1.524 . S
C970 H982 0.956 . S
C970 H983 0.961 . S
C970 H984 0.961 . S
C971 C968 1.539 . S
C971 H985 0.958 . S
C971 H986 0.961 . S
C971 H987 0.960 . S
H972 C956 0.931 . S
H973 C961 0.929 . S
H974 C962 0.960 . S
H975 C962 0.962 1_565 S
H976 C962 0.960 . S
H977 C963 0.961 . S
H978 C963 0.961 . S
H979 C963 0.961 . S
H980 C964 0.931 . S
H981 C969 0.930 . S
H982 C970 0.956 . S
H983 C970 0.961 . S
H984 C970 0.961 . S
H985 C971 0.958 . S
H986 C971 0.961 . S
H987 C971 0.960 . S
C988 C989 1.391 . S
C988 C990 1.394 . S
C988 H1004 0.931 . S
C989 C988 1.391 . S
C989 C993 1.376 . S
C990 C988 1.394 . S
C990 C991 1.369 . S
C990 C994 1.531 . S
C991 C990 1.369 . S
C991 C992 1.410 . S
C991 C999 1.503 . S
C992 C991 1.410 . S
C992 C993 1.392 . S
C992 C995 1.511 . S
C993 C989 1.376 . S
C993 C992 1.392 . S
C993 H1005 0.929 . S
C994 C990 1.531 . S
C994 H1006 0.960 . S
C994 H1007 0.962 . S
C994 H1008 0.960 . S
C995 C992 1.511 . S
C995 H1009 0.961 . S
C995 H1010 0.961 . S
C995 H1011 0.961 . S
C996 C997 1.370 . S
C996 C998 1.363 . S
C996 H1012 0.931 . S
C997 C996 1.370 . S
C997 C1001 1.408 . S
C998 C996 1.363 . S
C998 C999 1.370 . S
C998 C1002 1.524 . S
C999 C991 1.503 . S
C999 C998 1.370 . S
C999 C1000 1.403 . S
C1000 C999 1.403 . S
C1000 C1001 1.404 . S
C1000 C1003 1.539 . S
C1001 C997 1.408 . S
C1001 C1000 1.404 . S
C1001 H1013 0.930 . S
C1002 C998 1.524 . S
C1002 H1014 0.956 . S
C1002 H1015 0.961 . S
C1002 H1016 0.961 . S
C1003 C1000 1.539 . S
C1003 H1017 0.958 . S
C1003 H1018 0.961 . S
C1003 H1019 0.960 . S
H1004 C988 0.931 . S
H1005 C993 0.929 . S
H1006 C994 0.960 . S
H1007 C994 0.962 . S
H1008 C994 0.960 . S
H1009 C995 0.961 . S
H1010 C995 0.961 . S
H1011 C995 0.961 . S
H1012 C996 0.931 . S
H1013 C1001 0.930 . S
H1014 C1002 0.956 . S
H1015 C1002 0.961 . S
H1016 C1002 0.961 . S
H1017 C1003 0.958 . S
H1018 C1003 0.961 . S
H1019 C1003 0.960 . S
C1020 C1021 1.391 . S
C1020 C1022 1.394 . S
C1020 H1036 0.931 . S
C1021 C1020 1.391 . S
C1021 C1025 1.376 . S
C1022 C1020 1.394 . S
C1022 C1023 1.369 . S
C1022 C1026 1.531 . S
C1023 C1022 1.369 . S
C1023 C1024 1.410 . S
C1023 C1031 1.503 . S
C1024 C1023 1.410 . S
C1024 C1025 1.392 . S
C1024 C1027 1.511 . S
C1025 C1021 1.376 . S
C1025 C1024 1.392 . S
C1025 H1037 0.929 . S
C1026 C1022 1.531 . S
C1026 H1038 0.960 . S
C1026 H1039 0.962 . S
C1026 H1040 0.960 . S
C1027 C1024 1.511 . S
C1027 H1041 0.961 . S
C1027 H1042 0.961 . S
C1027 H1043 0.961 . S
C1028 C1029 1.370 . S
C1028 C1030 1.363 . S
C1028 H1044 0.931 . S
C1029 C1028 1.370 . S
C1029 C1033 1.408 . S
C1030 C1028 1.363 . S
C1030 C1031 1.370 . S
C1030 C1034 1.524 . S
C1031 C1023 1.503 . S
C1031 C1030 1.370 . S
C1031 C1032 1.403 . S
C1032 C1031 1.403 . S
C1032 C1033 1.404 . S
C1032 C1035 1.539 . S
C1033 C1029 1.408 . S
C1033 C1032 1.404 . S
C1033 H1045 0.930 . S
C1034 C1030 1.524 . S
C1034 H1046 0.956 . S
C1034 H1047 0.961 . S
C1034 H1048 0.961 . S
C1035 C1032 1.539 . S
C1035 H1049 0.958 . S
C1035 H1050 0.961 . S
C1035 H1051 0.960 . S
H1036 C1020 0.931 . S
H1037 C1025 0.929 . S
H1038 C1026 0.960 . S
H1039 C1026 0.962 . S
H1040 C1026 0.960 . S
H1041 C1027 0.961 . S
H1042 C1027 0.961 . S
H1043 C1027 0.961 . S
H1044 C1028 0.931 . S
H1045 C1033 0.930 . S
H1046 C1034 0.956 . S
H1047 C1034 0.961 . S
H1048 C1034 0.961 . S
H1049 C1035 0.958 . S
H1050 C1035 0.961 . S
H1051 C1035 0.960 . S
C1052 C1053 1.391 . S
C1052 C1054 1.394 . S
C1052 H1068 0.931 . S
C1053 C1052 1.391 . S
C1053 C1057 1.376 . S
C1054 C1052 1.394 . S
C1054 C1055 1.369 . S
C1054 C1058 1.531 . S
C1055 C1054 1.369 . S
C1055 C1056 1.410 . S
C1055 C1063 1.503 . S
C1056 C1055 1.410 . S
C1056 C1057 1.392 . S
C1056 C1059 1.511 . S
C1057 C1053 1.376 . S
C1057 C1056 1.392 . S
C1057 H1069 0.929 . S
C1058 C1054 1.531 . S
C1058 H1070 0.960 . S
C1058 H1071 0.962 . S
C1058 H1072 0.960 . S
C1059 C1056 1.511 . S
C1059 H1073 0.961 . S
C1059 H1074 0.961 . S
C1059 H1075 0.961 . S
C1060 C1061 1.370 . S
C1060 C1062 1.363 . S
C1060 H1076 0.931 . S
C1061 C1060 1.370 . S
C1061 C1065 1.408 . S
C1062 C1060 1.363 . S
C1062 C1063 1.370 . S
C1062 C1066 1.524 . S
C1063 C1055 1.503 . S
C1063 C1062 1.370 . S
C1063 C1064 1.403 . S
C1064 C1063 1.403 . S
C1064 C1065 1.404 . S
C1064 C1067 1.539 . S
C1065 C1061 1.408 . S
C1065 C1064 1.404 . S
C1065 H1077 0.930 . S
C1066 C1062 1.524 . S
C1066 H1078 0.956 . S
C1066 H1079 0.961 . S
C1066 H1080 0.961 . S
C1067 C1064 1.539 . S
C1067 H1081 0.958 . S
C1067 H1082 0.961 . S
C1067 H1083 0.960 . S
H1068 C1052 0.931 . S
H1069 C1057 0.929 . S
H1070 C1058 0.960 . S
H1071 C1058 0.962 . S
H1072 C1058 0.960 . S
H1073 C1059 0.961 . S
H1074 C1059 0.961 . S
H1075 C1059 0.961 . S
H1076 C1060 0.931 . S
H1077 C1065 0.930 . S
H1078 C1066 0.956 . S
H1079 C1066 0.961 . S
H1080 C1066 0.961 . S
H1081 C1067 0.958 . S
H1082 C1067 0.961 . S
H1083 C1067 0.960 . S
C1084 C1085 1.391 . S
C1084 C1086 1.394 . S
C1084 H1100 0.931 . S
C1085 C1084 1.391 . S
C1085 C1089 1.376 . S
C1086 C1084 1.394 . S
C1086 C1087 1.369 . S
C1086 C1090 1.531 . S
C1087 C1086 1.369 . S
C1087 C1088 1.410 . S
C1087 C1095 1.503 . S
C1088 C1087 1.410 . S
C1088 C1089 1.392 . S
C1088 C1091 1.511 . S
C1089 C1085 1.376 . S
C1089 C1088 1.392 . S
C1089 H1101 0.929 . S
C1090 C1086 1.531 . S
C1090 H1102 0.960 . S
C1090 H1103 0.962 . S
C1090 H1104 0.960 . S
C1091 C1088 1.511 . S
C1091 H1105 0.961 . S
C1091 H1106 0.961 . S
C1091 H1107 0.961 . S
C1092 C1093 1.370 . S
C1092 C1094 1.363 . S
C1092 H1108 0.931 . S
C1093 C1092 1.370 . S
C1093 C1097 1.408 . S
C1094 C1092 1.363 . S
C1094 C1095 1.370 . S
C1094 C1098 1.524 . S
C1095 C1087 1.503 . S
C1095 C1094 1.370 . S
C1095 C1096 1.403 . S
C1096 C1095 1.403 . S
C1096 C1097 1.404 . S
C1096 C1099 1.539 . S
C1097 C1093 1.408 . S
C1097 C1096 1.404 . S
C1097 H1109 0.930 . S
C1098 C1094 1.524 . S
C1098 H1110 0.956 . S
C1098 H1111 0.961 . S
C1098 H1112 0.961 . S
C1099 C1096 1.539 . S
C1099 H1113 0.958 . S
C1099 H1114 0.961 . S
C1099 H1115 0.960 . S
H1100 C1084 0.931 . S
H1101 C1089 0.929 . S
H1102 C1090 0.960 . S
H1103 C1090 0.962 . S
H1104 C1090 0.960 . S
H1105 C1091 0.961 . S
H1106 C1091 0.961 . S
H1107 C1091 0.961 . S
H1108 C1092 0.931 . S
H1109 C1097 0.930 . S
H1110 C1098 0.956 . S
H1111 C1098 0.961 . S
H1112 C1098 0.961 . S
H1113 C1099 0.958 . S
H1114 C1099 0.961 . S
H1115 C1099 0.960 . S
C1116 C1117 1.391 . S
C1116 C1118 1.394 . S
C1116 H1132 0.931 . S
C1117 C1116 1.391 . S
C1117 C1121 1.376 . S
C1118 C1116 1.394 . S
C1118 C1119 1.369 . S
C1118 C1122 1.531 . S
C1119 C1118 1.369 . S
C1119 C1120 1.410 . S
C1119 C1127 1.503 . S
C1120 C1119 1.410 . S
C1120 C1121 1.392 . S
C1120 C1123 1.511 . S
C1121 C1117 1.376 . S
C1121 C1120 1.392 . S
C1121 H1133 0.929 . S
C1122 C1118 1.531 . S
C1122 H1134 0.960 . S
C1122 H1135 0.962 . S
C1122 H1136 0.960 . S
C1123 C1120 1.511 . S
C1123 H1137 0.961 . S
C1123 H1138 0.961 . S
C1123 H1139 0.961 . S
C1124 C1125 1.370 . S
C1124 C1126 1.363 . S
C1124 H1140 0.931 . S
C1125 C1124 1.370 . S
C1125 C1129 1.408 . S
C1126 C1124 1.363 . S
C1126 C1127 1.370 . S
C1126 C1130 1.524 . S
C1127 C1119 1.503 . S
C1127 C1126 1.370 . S
C1127 C1128 1.403 . S
C1128 C1127 1.403 . S
C1128 C1129 1.404 . S
C1128 C1131 1.539 . S
C1129 C1125 1.408 . S
C1129 C1128 1.404 . S
C1129 H1141 0.930 . S
C1130 C1126 1.524 . S
C1130 H1142 0.956 . S
C1130 H1143 0.961 . S
C1130 H1144 0.961 . S
C1131 C1128 1.539 . S
C1131 H1145 0.958 . S
C1131 H1146 0.961 . S
C1131 H1147 0.960 . S
H1132 C1116 0.931 . S
H1133 C1121 0.929 . S
H1134 C1122 0.960 . S
H1135 C1122 0.962 . S
H1136 C1122 0.960 . S
H1137 C1123 0.961 . S
H1138 C1123 0.961 . S
H1139 C1123 0.961 . S
H1140 C1124 0.931 . S
H1141 C1129 0.930 . S
H1142 C1130 0.956 . S
H1143 C1130 0.961 . S
H1144 C1130 0.961 . S
H1145 C1131 0.958 . S
H1146 C1131 0.961 . S
H1147 C1131 0.960 . S
C1148 C1149 1.391 . S
C1148 C1150 1.394 . S
C1148 H1164 0.931 . S
C1149 C1148 1.391 . S
C1149 C1153 1.376 . S
C1150 C1148 1.394 . S
C1150 C1151 1.369 . S
C1150 C1154 1.531 . S
C1151 C1150 1.369 . S
C1151 C1152 1.410 . S
C1151 C1159 1.503 . S
C1152 C1151 1.410 . S
C1152 C1153 1.392 . S
C1152 C1155 1.511 1_455 S
C1153 C1149 1.376 . S
C1153 C1152 1.392 . S
C1153 H1165 0.929 . S
C1154 C1150 1.531 . S
C1154 H1166 0.960 . S
C1154 H1167 0.962 . S
C1154 H1168 0.960 . S
C1155 C1152 1.511 1_655 S
C1155 H1169 0.961 . S
C1155 H1170 0.961 . S
C1155 H1171 0.961 . S
C1156 C1157 1.370 . S
C1156 C1158 1.363 . S
C1156 H1172 0.931 . S
C1157 C1156 1.370 . S
C1157 C1161 1.408 1_455 S
C1158 C1156 1.363 . S
C1158 C1159 1.370 . S
C1158 C1162 1.524 . S
C1159 C1151 1.503 . S
C1159 C1158 1.370 . S
C1159 C1160 1.403 1_455 S
C1160 C1159 1.403 1_655 S
C1160 C1161 1.404 . S
C1160 C1163 1.539 . S
C1161 C1157 1.408 1_655 S
C1161 C1160 1.404 . S
C1161 H1173 0.930 . S
C1162 C1158 1.524 . S
C1162 H1174 0.956 . S
C1162 H1175 0.961 . S
C1162 H1176 0.961 . S
C1163 C1160 1.539 . S
C1163 H1177 0.958 . S
C1163 H1178 0.961 . S
C1163 H1179 0.960 . S
H1164 C1148 0.931 . S
H1165 C1153 0.929 . S
H1166 C1154 0.960 . S
H1167 C1154 0.962 . S
H1168 C1154 0.960 . S
H1169 C1155 0.961 . S
H1170 C1155 0.961 . S
H1171 C1155 0.961 . S
H1172 C1156 0.931 . S
H1173 C1161 0.930 . S
H1174 C1162 0.956 . S
H1175 C1162 0.961 . S
H1176 C1162 0.961 . S
H1177 C1163 0.958 . S
H1178 C1163 0.961 . S
H1179 C1163 0.960 . S
C1180 C1181 1.391 . S
C1180 C1182 1.394 . S
C1180 H1196 0.931 . S
C1181 C1180 1.391 . S
C1181 C1185 1.376 . S
C1182 C1180 1.394 . S
C1182 C1183 1.369 . S
C1182 C1186 1.531 . S
C1183 C1182 1.369 . S
C1183 C1184 1.410 . S
C1183 C1191 1.503 . S
C1184 C1183 1.410 . S
C1184 C1185 1.392 . S
C1184 C1187 1.511 . S
C1185 C1181 1.376 . S
C1185 C1184 1.392 . S
C1185 H1197 0.929 . S
C1186 C1182 1.531 . S
C1186 H1198 0.960 . S
C1186 H1199 0.962 . S
C1186 H1200 0.960 . S
C1187 C1184 1.511 . S
C1187 H1201 0.961 . S
C1187 H1202 0.961 . S
C1187 H1203 0.961 . S
C1188 C1189 1.370 . S
C1188 C1190 1.363 . S
C1188 H1204 0.931 . S
C1189 C1188 1.370 . S
C1189 C1193 1.408 . S
C1190 C1188 1.363 . S
C1190 C1191 1.370 . S
C1190 C1194 1.524 . S
C1191 C1183 1.503 . S
C1191 C1190 1.370 . S
C1191 C1192 1.403 . S
C1192 C1191 1.403 . S
C1192 C1193 1.404 . S
C1192 C1195 1.539 . S
C1193 C1189 1.408 . S
C1193 C1192 1.404 . S
C1193 H1205 0.930 . S
C1194 C1190 1.524 . S
C1194 H1206 0.956 . S
C1194 H1207 0.961 . S
C1194 H1208 0.961 . S
C1195 C1192 1.539 . S
C1195 H1209 0.958 . S
C1195 H1210 0.961 . S
C1195 H1211 0.960 . S
H1196 C1180 0.931 . S
H1197 C1185 0.929 . S
H1198 C1186 0.960 . S
H1199 C1186 0.962 . S
H1200 C1186 0.960 . S
H1201 C1187 0.961 . S
H1202 C1187 0.961 . S
H1203 C1187 0.961 . S
H1204 C1188 0.931 . S
H1205 C1193 0.930 . S
H1206 C1194 0.956 . S
H1207 C1194 0.961 . S
H1208 C1194 0.961 . S
H1209 C1195 0.958 . S
H1210 C1195 0.961 . S
H1211 C1195 0.960 . S
C1212 C1213 1.391 . S
C1212 C1214 1.394 . S
C1212 H1228 0.931 . S
C1213 C1212 1.391 . S
C1213 C1217 1.337 1_655 S
C1214 C1212 1.394 . S
C1214 C1215 1.369 . S
C1214 C1218 1.531 . S
C1215 C1214 1.369 . S
C1215 C1216 1.410 1_655 S
C1215 C1223 1.503 . S
C1216 C1215 1.410 1_455 S
C1216 C1217 1.398 . S
C1216 C1219 1.511 . S
C1217 C1213 1.337 1_455 S
C1217 C1216 1.398 . S
C1217 H1229 0.964 . S
C1218 C1214 1.531 . S
C1218 H1230 0.960 . S
C1218 H1231 0.962 . S
C1218 H1232 0.960 . S
C1219 C1216 1.511 . S
C1219 H1233 0.961 . S
C1219 H1234 0.961 . S
C1219 H1235 0.961 . S
C1220 C1221 1.370 . S
C1220 C1222 1.363 . S
C1220 H1236 0.931 . S
C1221 C1220 1.370 . S
C1221 C1225 1.408 . S
C1222 C1220 1.363 . S
C1222 C1223 1.370 . S
C1222 C1226 1.524 . S
C1223 C1215 1.503 . S
C1223 C1222 1.370 . S
C1223 C1224 1.403 . S
C1224 C1223 1.403 . S
C1224 C1225 1.404 . S
C1224 C1227 1.539 . S
C1225 C1221 1.408 . S
C1225 C1224 1.404 . S
C1225 H1237 0.930 . S
C1226 C1222 1.524 . S
C1226 H1238 0.956 . S
C1226 H1239 0.961 . S
C1226 H1240 0.961 . S
C1227 C1224 1.539 . S
C1227 H1241 0.958 . S
C1227 H1242 0.961 1_655 S
C1227 H1243 0.944 1_655 S
H1228 C1212 0.931 . S
H1229 C1217 0.964 . S
H1230 C1218 0.960 . S
H1231 C1218 0.962 . S
H1232 C1218 0.960 . S
H1233 C1219 0.961 . S
H1234 C1219 0.961 . S
H1235 C1219 0.961 . S
H1236 C1220 0.931 . S
H1237 C1225 0.930 . S
H1238 C1226 0.956 . S
H1239 C1226 0.961 . S
H1240 C1226 0.961 . S
H1241 C1227 0.958 . S
H1242 C1227 0.961 1_455 S
H1243 C1227 0.944 1_455 S
C1244 C1245 1.391 . S
C1244 C1246 1.394 . S
C1244 H1260 0.931 . S
C1245 C1244 1.391 . S
C1245 C1249 1.376 . S
C1246 C1244 1.394 . S
C1246 C1247 1.369 . S
C1246 C1250 1.531 . S
C1247 C1246 1.369 . S
C1247 C1248 1.410 . S
C1247 C1255 1.503 . S
C1248 C1247 1.410 . S
C1248 C1249 1.392 . S
C1248 C1251 1.511 . S
C1249 C1245 1.376 . S
C1249 C1248 1.392 . S
C1249 H1261 0.929 . S
C1250 C1246 1.531 . S
C1250 H1262 0.960 . S
C1250 H1263 0.962 . S
C1250 H1264 0.960 . S
C1251 C1248 1.511 . S
C1251 H1265 0.961 . S
C1251 H1266 0.961 . S
C1251 H1267 0.961 . S
C1252 C1253 1.370 . S
C1252 C1254 1.363 . S
C1252 H1268 0.931 . S
C1253 C1252 1.370 . S
C1253 C1257 1.408 . S
C1254 C1252 1.363 . S
C1254 C1255 1.370 . S
C1254 C1258 1.524 . S
C1255 C1247 1.503 . S
C1255 C1254 1.370 . S
C1255 C1256 1.403 . S
C1256 C1255 1.403 . S
C1256 C1257 1.404 . S
C1256 C1259 1.539 . S
C1257 C1253 1.408 . S
C1257 C1256 1.404 . S
C1257 H1269 0.930 . S
C1258 C1254 1.524 . S
C1258 H1270 0.956 . S
C1258 H1271 0.961 . S
C1258 H1272 0.961 . S
C1259 C1256 1.539 . S
C1259 H1273 0.958 . S
C1259 H1274 0.961 . S
C1259 H1275 0.960 . S
H1260 C1244 0.931 . S
H1261 C1249 0.929 . S
H1262 C1250 0.960 . S
H1263 C1250 0.962 . S
H1264 C1250 0.960 . S
H1265 C1251 0.961 . S
H1266 C1251 0.961 . S
H1267 C1251 0.961 . S
H1268 C1252 0.931 . S
H1269 C1257 0.930 . S
H1270 C1258 0.956 . S
H1271 C1258 0.961 . S
H1272 C1258 0.961 . S
H1273 C1259 0.958 . S
H1274 C1259 0.961 . S
H1275 C1259 0.960 . S
C1276 C1277 1.391 . S
C1276 C1278 1.394 . S
C1276 H1292 0.931 . S
C1277 C1276 1.391 . S
C1277 C1281 1.376 . S
C1278 C1276 1.394 . S
C1278 C1279 1.369 . S
C1278 C1282 1.531 . S
C1279 C1278 1.369 . S
C1279 C1280 1.410 . S
C1279 C1287 1.503 . S
C1280 C1279 1.410 . S
C1280 C1281 1.392 . S
C1280 C1283 1.511 . S
C1281 C1277 1.376 . S
C1281 C1280 1.392 . S
C1281 H1293 0.929 . S
C1282 C1278 1.531 . S
C1282 H1294 0.960 . S
C1282 H1295 0.962 . S
C1282 H1296 0.960 . S
C1283 C1280 1.511 . S
C1283 H1297 0.961 . S
C1283 H1298 0.961 . S
C1283 H1299 0.961 . S
C1284 C1285 1.370 . S
C1284 C1286 1.363 . S
C1284 H1300 0.931 . S
C1285 C1284 1.370 . S
C1285 C1289 1.408 . S
C1286 C1284 1.363 . S
C1286 C1287 1.370 . S
C1286 C1290 1.524 . S
C1287 C1279 1.503 . S
C1287 C1286 1.370 . S
C1287 C1288 1.403 . S
C1288 C1287 1.403 . S
C1288 C1289 1.404 . S
C1288 C1291 1.539 . S
C1289 C1285 1.408 . S
C1289 C1288 1.404 . S
C1289 H1301 0.930 . S
C1290 C1286 1.524 . S
C1290 H1302 0.956 . S
C1290 H1303 0.961 . S
C1290 H1304 0.961 . S
C1291 C1288 1.539 . S
C1291 H1305 0.958 . S
C1291 H1306 0.961 . S
C1291 H1307 0.960 . S
H1292 C1276 0.931 . S
H1293 C1281 0.929 . S
H1294 C1282 0.960 . S
H1295 C1282 0.962 . S
H1296 C1282 0.960 . S
H1297 C1283 0.961 . S
H1298 C1283 0.961 . S
H1299 C1283 0.961 . S
H1300 C1284 0.931 . S
H1301 C1289 0.930 . S
H1302 C1290 0.956 . S
H1303 C1290 0.961 . S
H1304 C1290 0.961 . S
H1305 C1291 0.958 . S
H1306 C1291 0.961 . S
H1307 C1291 0.960 . S
C1308 C1309 1.391 . S
C1308 C1310 1.394 . S
C1308 H1324 0.931 . S
C1309 C1308 1.391 . S
C1309 C1313 1.376 1_556 S
C1310 C1308 1.394 . S
C1310 C1311 1.369 . S
C1310 C1314 1.531 . S
C1311 C1310 1.369 . S
C1311 C1312 1.410 1_556 S
C1311 C1319 1.503 . S
C1312 C1311 1.410 1_554 S
C1312 C1313 1.392 . S
C1312 C1315 1.511 . S
C1313 C1309 1.376 1_554 S
C1313 C1312 1.392 . S
C1313 H1325 0.929 . S
C1314 C1310 1.531 . S
C1314 H1326 0.960 . S
C1314 H1327 0.962 . S
C1314 H1328 0.960 . S
C1315 C1312 1.511 . S
C1315 H1329 0.961 . S
C1315 H1330 0.961 . S
C1315 H1331 0.961 . S
C1316 C1317 1.370 1_556 S
C1316 C1318 1.363 . S
C1316 H1332 0.931 . S
C1317 C1316 1.370 1_554 S
C1317 C1321 1.408 . S
C1318 C1316 1.363 . S
C1318 C1319 1.370 . S
C1318 C1322 1.524 . S
C1319 C1311 1.503 . S
C1319 C1318 1.370 . S
C1319 C1320 1.403 1_556 S
C1320 C1319 1.403 1_554 S
C1320 C1321 1.404 . S
C1320 C1323 1.539 . S
C1321 C1317 1.408 . S
C1321 C1320 1.404 . S
C1321 H1333 0.930 . S
C1322 C1318 1.524 . S
C1322 H1334 0.956 . S
C1322 H1335 0.961 . S
C1322 H1336 0.961 . S
C1323 C1320 1.539 . S
C1323 H1337 0.957 1_554 S
C1323 H1338 0.961 . S
C1323 H1339 0.960 . S
H1324 C1308 0.931 . S
H1325 C1313 0.929 . S
H1326 C1314 0.960 . S
H1327 C1314 0.962 . S
H1328 C1314 0.960 . S
H1329 C1315 0.961 . S
H1330 C1315 0.961 . S
H1331 C1315 0.961 . S
H1332 C1316 0.931 . S
H1333 C1321 0.930 . S
H1334 C1322 0.956 . S
H1335 C1322 0.961 . S
H1336 C1322 0.961 . S
H1337 C1323 0.957 1_556 S
H1338 C1323 0.961 . S
H1339 C1323 0.960 . S
C1340 C1341 1.391 . S
C1340 C1342 1.394 . S
C1340 H1356 0.931 . S
C1341 C1340 1.391 . S
C1341 C1345 1.376 . S
C1342 C1340 1.394 . S
C1342 C1343 1.369 . S
C1342 C1346 1.531 . S
C1343 C1342 1.369 . S
C1343 C1344 1.410 . S
C1343 C1351 1.503 . S
C1344 C1343 1.410 . S
C1344 C1345 1.392 . S
C1344 C1347 1.511 . S
C1345 C1341 1.376 . S
C1345 C1344 1.392 . S
C1345 H1357 0.929 . S
C1346 C1342 1.531 . S
C1346 H1358 0.960 . S
C1346 H1359 0.962 . S
C1346 H1360 0.960 . S
C1347 C1344 1.511 . S
C1347 H1361 0.961 . S
C1347 H1362 0.961 . S
C1347 H1363 0.961 . S
C1348 C1349 1.370 . S
C1348 C1350 1.363 . S
C1348 H1364 0.931 . S
C1349 C1348 1.370 . S
C1349 C1353 1.408 . S
C1350 C1348 1.363 . S
C1350 C1351 1.370 . S
C1350 C1354 1.524 . S
C1351 C1343 1.503 . S
C1351 C1350 1.370 . S
C1351 C1352 1.403 . S
C1352 C1351 1.403 . S
C1352 C1353 1.404 . S
C1352 C1355 1.539 . S
C1353 C1349 1.408 . S
C1353 C1352 1.404 . S
C1353 H1365 0.930 . S
C1354 C1350 1.524 . S
C1354 H1366 0.956 . S
C1354 H1367 0.961 . S
C1354 H1368 0.961 . S
C1355 C1352 1.539 . S
C1355 H1369 0.958 . S
C1355 H1370 0.961 . S
C1355 H1371 0.960 . S
H1356 C1340 0.931 . S
H1357 C1345 0.929 . S
H1358 C1346 0.960 . S
H1359 C1346 0.962 . S
H1360 C1346 0.960 . S
H1361 C1347 0.961 . S
H1362 C1347 0.961 . S
H1363 C1347 0.961 . S
H1364 C1348 0.931 . S
H1365 C1353 0.930 . S
H1366 C1354 0.956 . S
H1367 C1354 0.961 . S
H1368 C1354 0.961 . S
H1369 C1355 0.958 . S
H1370 C1355 0.961 . S
H1371 C1355 0.960 . S
C1372 C1373 1.391 . S
C1372 C1374 1.394 . S
C1372 H1388 0.931 . S
C1373 C1372 1.391 . S
C1373 C1377 1.376 . S
C1374 C1372 1.394 . S
C1374 C1375 1.369 . S
C1374 C1378 1.531 . S
C1375 C1374 1.369 . S
C1375 C1376 1.410 . S
C1375 C1383 1.503 . S
C1376 C1375 1.410 . S
C1376 C1377 1.392 . S
C1376 C1379 1.511 . S
C1377 C1373 1.376 . S
C1377 C1376 1.392 . S
C1377 H1389 0.929 . S
C1378 C1374 1.531 . S
C1378 H1390 0.960 . S
C1378 H1391 0.962 . S
C1378 H1392 0.960 . S
C1379 C1376 1.511 . S
C1379 H1393 0.961 . S
C1379 H1394 0.961 . S
C1379 H1395 0.961 . S
C1380 C1381 1.370 . S
C1380 C1382 1.363 . S
C1380 H1396 0.931 . S
C1381 C1380 1.370 . S
C1381 C1385 1.408 . S
C1382 C1380 1.363 . S
C1382 C1383 1.370 . S
C1382 C1386 1.524 . S
C1383 C1375 1.503 . S
C1383 C1382 1.370 . S
C1383 C1384 1.403 . S
C1384 C1383 1.403 . S
C1384 C1385 1.404 . S
C1384 C1387 1.539 . S
C1385 C1381 1.408 . S
C1385 C1384 1.404 . S
C1385 H1397 0.930 . S
C1386 C1382 1.524 . S
C1386 H1398 0.956 . S
C1386 H1399 0.961 . S
C1386 H1400 0.961 . S
C1387 C1384 1.539 . S
C1387 H1401 0.958 . S
C1387 H1402 0.961 . S
C1387 H1403 0.960 . S
H1388 C1372 0.931 . S
H1389 C1377 0.929 . S
H1390 C1378 0.960 . S
H1391 C1378 0.962 . S
H1392 C1378 0.960 . S
H1393 C1379 0.961 . S
H1394 C1379 0.961 . S
H1395 C1379 0.961 . S
H1396 C1380 0.931 . S
H1397 C1385 0.930 . S
H1398 C1386 0.956 . S
H1399 C1386 0.961 . S
H1400 C1386 0.961 . S
H1401 C1387 0.958 . S
H1402 C1387 0.961 . S
H1403 C1387 0.960 . S
C1404 C1405 1.391 . S
C1404 C1406 1.394 . S
C1404 H1420 0.931 . S
C1405 C1404 1.391 . S
C1405 C1409 1.376 . S
C1406 C1404 1.394 . S
C1406 C1407 1.369 . S
C1406 C1410 1.531 . S
C1407 C1406 1.369 . S
C1407 C1408 1.410 . S
C1407 C1415 1.503 . S
C1408 C1407 1.410 . S
C1408 C1409 1.392 . S
C1408 C1411 1.511 . S
C1409 C1405 1.376 . S
C1409 C1408 1.392 . S
C1409 H1421 0.929 . S
C1410 C1406 1.531 . S
C1410 H1422 0.960 . S
C1410 H1423 0.962 . S
C1410 H1424 0.960 . S
C1411 C1408 1.511 . S
C1411 H1425 0.961 . S
C1411 H1426 0.961 . S
C1411 H1427 0.961 . S
C1412 C1413 1.370 . S
C1412 C1414 1.363 . S
C1412 H1428 0.931 . S
C1413 C1412 1.370 . S
C1413 C1417 1.408 . S
C1414 C1412 1.363 . S
C1414 C1415 1.370 . S
C1414 C1418 1.524 . S
C1415 C1407 1.503 . S
C1415 C1414 1.370 . S
C1415 C1416 1.403 . S
C1416 C1415 1.403 . S
C1416 C1417 1.404 . S
C1416 C1419 1.539 . S
C1417 C1413 1.408 . S
C1417 C1416 1.404 . S
C1417 H1429 0.930 . S
C1418 C1414 1.524 . S
C1418 H1430 0.956 . S
C1418 H1431 0.961 . S
C1418 H1432 0.961 . S
C1419 C1416 1.539 . S
C1419 H1433 0.958 . S
C1419 H1434 0.961 . S
C1419 H1435 0.960 . S
H1420 C1404 0.931 . S
H1421 C1409 0.929 . S
H1422 C1410 0.960 . S
H1423 C1410 0.962 . S
H1424 C1410 0.960 . S
H1425 C1411 0.961 . S
H1426 C1411 0.961 . S
H1427 C1411 0.961 . S
H1428 C1412 0.931 . S
H1429 C1417 0.930 . S
H1430 C1418 0.956 . S
H1431 C1418 0.961 . S
H1432 C1418 0.961 . S
H1433 C1419 0.958 . S
H1434 C1419 0.961 . S
H1435 C1419 0.960 . S
C1436 C1437 1.391 . S
C1436 C1438 1.394 . S
C1436 H1452 0.931 . S
C1437 C1436 1.391 . S
C1437 C1441 1.376 . S
C1438 C1436 1.394 . S
C1438 C1439 1.369 . S
C1438 C1442 1.531 . S
C1439 C1438 1.369 . S
C1439 C1440 1.410 . S
C1439 C1447 1.503 . S
C1440 C1439 1.410 . S
C1440 C1441 1.392 . S
C1440 C1443 1.511 . S
C1441 C1437 1.376 . S
C1441 C1440 1.392 . S
C1441 H1453 0.929 . S
C1442 C1438 1.531 . S
C1442 H1454 0.960 . S
C1442 H1455 0.962 . S
C1442 H1456 0.960 . S
C1443 C1440 1.511 . S
C1443 H1457 0.961 . S
C1443 H1458 0.961 . S
C1443 H1459 0.961 . S
C1444 C1445 1.370 . S
C1444 C1446 1.363 . S
C1444 H1460 0.931 . S
C1445 C1444 1.370 . S
C1445 C1449 1.408 . S
C1446 C1444 1.363 . S
C1446 C1447 1.370 . S
C1446 C1450 1.524 . S
C1447 C1439 1.503 . S
C1447 C1446 1.370 . S
C1447 C1448 1.403 . S
C1448 C1447 1.403 . S
C1448 C1449 1.404 . S
C1448 C1451 1.539 . S
C1449 C1445 1.408 . S
C1449 C1448 1.404 . S
C1449 H1461 0.930 . S
C1450 C1446 1.524 . S
C1450 H1462 0.956 . S
C1450 H1463 0.961 . S
C1450 H1464 0.961 . S
C1451 C1448 1.539 . S
C1451 H1465 0.958 . S
C1451 H1466 0.961 . S
C1451 H1467 0.960 . S
H1452 C1436 0.931 . S
H1453 C1441 0.929 . S
H1454 C1442 0.960 . S
H1455 C1442 0.962 . S
H1456 C1442 0.960 . S
H1457 C1443 0.961 . S
H1458 C1443 0.961 . S
H1459 C1443 0.961 . S
H1460 C1444 0.931 . S
H1461 C1449 0.930 . S
H1462 C1450 0.956 . S
H1463 C1450 0.961 . S
H1464 C1450 0.961 . S
H1465 C1451 0.958 . S
H1466 C1451 0.961 . S
H1467 C1451 0.960 . S
C1468 C1469 1.391 . S
C1468 C1470 1.394 . S
C1468 H1484 0.931 . S
C1469 C1468 1.391 . S
C1469 C1473 1.376 . S
C1470 C1468 1.394 . S
C1470 C1471 1.369 . S
C1470 C1474 1.531 . S
C1471 C1470 1.369 . S
C1471 C1472 1.410 . S
C1471 C1479 1.503 . S
C1472 C1471 1.410 . S
C1472 C1473 1.392 . S
C1472 C1475 1.511 . S
C1473 C1469 1.376 . S
C1473 C1472 1.392 . S
C1473 H1485 0.929 . S
C1474 C1470 1.531 . S
C1474 H1486 0.960 . S
C1474 H1487 0.962 . S
C1474 H1488 0.960 . S
C1475 C1472 1.511 . S
C1475 H1489 0.961 . S
C1475 H1490 0.961 . S
C1475 H1491 0.961 . S
C1476 C1477 1.370 . S
C1476 C1478 1.363 . S
C1476 H1492 0.931 . S
C1477 C1476 1.370 . S
C1477 C1481 1.408 . S
C1478 C1476 1.363 . S
C1478 C1479 1.370 . S
C1478 C1482 1.524 . S
C1479 C1471 1.503 . S
C1479 C1478 1.370 . S
C1479 C1480 1.403 . S
C1480 C1479 1.403 . S
C1480 C1481 1.404 . S
C1480 C1483 1.539 . S
C1481 C1477 1.408 . S
C1481 C1480 1.404 . S
C1481 H1493 0.930 . S
C1482 C1478 1.524 . S
C1482 H1494 0.956 . S
C1482 H1495 0.961 . S
C1482 H1496 0.961 . S
C1483 C1480 1.539 . S
C1483 H1497 0.958 . S
C1483 H1498 0.961 . S
C1483 H1499 0.960 . S
H1484 C1468 0.931 . S
H1485 C1473 0.929 . S
H1486 C1474 0.960 . S
H1487 C1474 0.962 . S
H1488 C1474 0.960 . S
H1489 C1475 0.961 . S
H1490 C1475 0.961 . S
H1491 C1475 0.961 . S
H1492 C1476 0.931 . S
H1493 C1481 0.930 . S
H1494 C1482 0.956 . S
H1495 C1482 0.961 . S
H1496 C1482 0.961 . S
H1497 C1483 0.958 . S
H1498 C1483 0.961 . S
H1499 C1483 0.960 . S
C1500 C1501 1.391 . S
C1500 C1502 1.394 . S
C1500 H1516 0.931 . S
C1501 C1500 1.391 . S
C1501 C1505 1.376 . S
C1502 C1500 1.394 . S
C1502 C1503 1.369 . S
C1502 C1506 1.531 . S
C1503 C1502 1.369 . S
C1503 C1504 1.410 . S
C1503 C1511 1.503 . S
C1504 C1503 1.410 . S
C1504 C1505 1.392 . S
C1504 C1507 1.511 . S
C1505 C1501 1.376 . S
C1505 C1504 1.392 . S
C1505 H1517 0.929 . S
C1506 C1502 1.531 . S
C1506 H1518 0.960 . S
C1506 H1519 0.962 . S
C1506 H1520 0.960 . S
C1507 C1504 1.511 . S
C1507 H1521 0.961 . S
C1507 H1522 0.961 . S
C1507 H1523 0.961 . S
C1508 C1509 1.370 . S
C1508 C1510 1.363 . S
C1508 H1524 0.931 . S
C1509 C1508 1.370 . S
C1509 C1513 1.408 . S
C1510 C1508 1.363 . S
C1510 C1511 1.370 . S
C1510 C1514 1.524 . S
C1511 C1503 1.503 . S
C1511 C1510 1.370 . S
C1511 C1512 1.403 . S
C1512 C1511 1.403 . S
C1512 C1513 1.404 . S
C1512 C1515 1.539 . S
C1513 C1509 1.408 . S
C1513 C1512 1.404 . S
C1513 H1525 0.930 . S
C1514 C1510 1.524 . S
C1514 H1526 0.956 . S
C1514 H1527 0.961 . S
C1514 H1528 0.961 . S
C1515 C1512 1.539 . S
C1515 H1529 0.958 . S
C1515 H1530 0.961 . S
C1515 H1531 0.960 . S
H1516 C1500 0.931 . S
H1517 C1505 0.929 . S
H1518 C1506 0.960 . S
H1519 C1506 0.962 . S
H1520 C1506 0.960 . S
H1521 C1507 0.961 . S
H1522 C1507 0.961 . S
H1523 C1507 0.961 . S
H1524 C1508 0.931 . S
H1525 C1513 0.930 . S
H1526 C1514 0.956 . S
H1527 C1514 0.961 . S
H1528 C1514 0.961 . S
H1529 C1515 0.958 . S
H1530 C1515 0.961 . S
H1531 C1515 0.960 . S
C1532 C1533 1.391 . S
C1532 C1534 1.394 . S
C1532 H1548 0.931 . S
C1533 C1532 1.391 . S
C1533 C1537 1.376 . S
C1534 C1532 1.394 . S
C1534 C1535 1.369 . S
C1534 C1538 1.531 1_545 S
C1535 C1534 1.369 . S
C1535 C1536 1.410 . S
C1535 C1543 1.503 . S
C1536 C1535 1.410 . S
C1536 C1537 1.392 . S
C1536 C1539 1.511 . S
C1537 C1533 1.376 . S
C1537 C1536 1.392 . S
C1537 H1549 0.929 . S
C1538 C1534 1.531 1_565 S
C1538 H1550 0.960 . S
C1538 H1551 0.978 . S
C1538 H1552 0.960 . S
C1539 C1536 1.511 . S
C1539 H1553 0.961 . S
C1539 H1554 0.961 . S
C1539 H1555 0.961 . S
C1540 C1541 1.370 . S
C1540 C1542 1.363 . S
C1540 H1556 0.931 . S
C1541 C1540 1.370 . S
C1541 C1545 1.408 1_545 S
C1542 C1540 1.363 . S
C1542 C1543 1.370 . S
C1542 C1546 1.524 . S
C1543 C1535 1.503 . S
C1543 C1542 1.370 . S
C1543 C1544 1.403 1_545 S
C1544 C1543 1.403 1_565 S
C1544 C1545 1.404 . S
C1544 C1547 1.539 . S
C1545 C1541 1.408 1_565 S
C1545 C1544 1.404 . S
C1545 H1557 0.930 . S
C1546 C1542 1.524 . S
C1546 H1558 0.956 . S
C1546 H1559 0.961 . S
C1546 H1560 0.961 . S
C1547 C1544 1.539 . S
C1547 H1561 0.958 . S
C1547 H1562 0.961 . S
C1547 H1563 0.960 . S
H1548 C1532 0.931 . S
H1549 C1537 0.929 . S
H1550 C1538 0.960 . S
H1551 C1538 0.978 . S
H1552 C1538 0.960 . S
H1553 C1539 0.961 . S
H1554 C1539 0.961 . S
H1555 C1539 0.961 . S
H1556 C1540 0.931 . S
H1557 C1545 0.930 . S
H1558 C1546 0.956 . S
H1559 C1546 0.961 . S
H1560 C1546 0.961 . S
H1561 C1547 0.958 . S
H1562 C1547 0.961 . S
H1563 C1547 0.960 . S
C1564 C1565 1.391 . S
C1564 C1566 1.394 . S
C1564 H1580 0.931 . S
C1565 C1564 1.391 . S
C1565 C1569 1.376 . S
C1566 C1564 1.394 . S
C1566 C1567 1.369 . S
C1566 C1570 1.531 . S
C1567 C1566 1.369 . S
C1567 C1568 1.410 . S
C1567 C1575 1.503 . S
C1568 C1567 1.410 . S
C1568 C1569 1.392 . S
C1568 C1571 1.511 . S
C1569 C1565 1.376 . S
C1569 C1568 1.392 . S
C1569 H1581 0.929 . S
C1570 C1566 1.531 . S
C1570 H1582 0.960 . S
C1570 H1583 0.962 . S
C1570 H1584 0.960 . S
C1571 C1568 1.511 . S
C1571 H1585 0.961 . S
C1571 H1586 0.961 . S
C1571 H1587 0.961 . S
C1572 C1573 1.370 . S
C1572 C1574 1.363 . S
C1572 H1588 0.931 . S
C1573 C1572 1.370 . S
C1573 C1577 1.408 . S
C1574 C1572 1.363 . S
C1574 C1575 1.370 . S
C1574 C1578 1.524 . S
C1575 C1567 1.503 . S
C1575 C1574 1.370 . S
C1575 C1576 1.403 . S
C1576 C1575 1.403 . S
C1576 C1577 1.404 . S
C1576 C1579 1.539 . S
C1577 C1573 1.408 . S
C1577 C1576 1.404 . S
C1577 H1589 0.930 . S
C1578 C1574 1.524 . S
C1578 H1590 0.956 . S
C1578 H1591 0.961 . S
C1578 H1592 0.961 . S
C1579 C1576 1.539 . S
C1579 H1593 0.958 . S
C1579 H1594 0.961 . S
C1579 H1595 0.960 . S
H1580 C1564 0.931 . S
H1581 C1569 0.929 . S
H1582 C1570 0.960 . S
H1583 C1570 0.962 . S
H1584 C1570 0.960 . S
H1585 C1571 0.961 . S
H1586 C1571 0.961 . S
H1587 C1571 0.961 . S
H1588 C1572 0.931 . S
H1589 C1577 0.930 . S
H1590 C1578 0.956 . S
H1591 C1578 0.961 . S
H1592 C1578 0.961 . S
H1593 C1579 0.958 . S
H1594 C1579 0.961 . S
H1595 C1579 0.960 . S
C1596 C1597 1.391 . S
C1596 C1598 1.394 . S
C1596 H1612 0.931 . S
C1597 C1596 1.391 . S
C1597 C1601 1.376 . S
C1598 C1596 1.394 . S
C1598 C1599 1.369 . S
C1598 C1602 1.531 . S
C1599 C1598 1.369 . S
C1599 C1600 1.410 . S
C1599 C1607 1.503 . S
C1600 C1599 1.410 . S
C1600 C1601 1.392 . S
C1600 C1603 1.511 . S
C1601 C1597 1.376 . S
C1601 C1600 1.392 . S
C1601 H1613 0.929 . S
C1602 C1598 1.531 . S
C1602 H1614 0.960 . S
C1602 H1615 0.962 . S
C1602 H1616 0.960 . S
C1603 C1600 1.511 . S
C1603 H1617 0.961 . S
C1603 H1618 0.961 . S
C1603 H1619 0.961 . S
C1604 C1605 1.370 . S
C1604 C1606 1.363 . S
C1604 H1620 0.931 . S
C1605 C1604 1.370 . S
C1605 C1609 1.408 . S
C1606 C1604 1.363 . S
C1606 C1607 1.370 . S
C1606 C1610 1.524 . S
C1607 C1599 1.503 . S
C1607 C1606 1.370 . S
C1607 C1608 1.403 . S
C1608 C1607 1.403 . S
C1608 C1609 1.404 . S
C1608 C1611 1.539 . S
C1609 C1605 1.408 . S
C1609 C1608 1.404 . S
C1609 H1621 0.930 . S
C1610 C1606 1.524 . S
C1610 H1622 0.956 . S
C1610 H1623 0.961 . S
C1610 H1624 0.961 . S
C1611 C1608 1.539 . S
C1611 H1625 0.958 . S
C1611 H1626 0.961 . S
C1611 H1627 0.960 . S
H1612 C1596 0.931 . S
H1613 C1601 0.929 . S
H1614 C1602 0.960 . S
H1615 C1602 0.962 . S
H1616 C1602 0.960 . S
H1617 C1603 0.961 . S
H1618 C1603 0.961 . S
H1619 C1603 0.961 . S
H1620 C1604 0.931 . S
H1621 C1609 0.930 . S
H1622 C1610 0.956 . S
H1623 C1610 0.961 . S
H1624 C1610 0.961 . S
H1625 C1611 0.958 . S
H1626 C1611 0.961 . S
H1627 C1611 0.960 . S
C1628 C1629 1.391 . S
C1628 C1630 1.394 . S
C1628 H1644 0.931 . S
C1629 C1628 1.391 . S
C1629 C1633 1.376 . S
C1630 C1628 1.394 . S
C1630 C1631 1.369 . S
C1630 C1634 1.531 . S
C1631 C1630 1.369 . S
C1631 C1632 1.410 . S
C1631 C1639 1.503 . S
C1632 C1631 1.410 . S
C1632 C1633 1.392 . S
C1632 C1635 1.511 . S
C1633 C1629 1.376 . S
C1633 C1632 1.392 . S
C1633 H1645 0.929 . S
C1634 C1630 1.531 . S
C1634 H1646 0.960 . S
C1634 H1647 0.962 . S
C1634 H1648 0.960 . S
C1635 C1632 1.511 . S
C1635 H1649 0.961 . S
C1635 H1650 0.961 . S
C1635 H1651 0.961 . S
C1636 C1637 1.370 . S
C1636 C1638 1.363 . S
C1636 H1652 0.931 . S
C1637 C1636 1.370 . S
C1637 C1641 1.408 . S
C1638 C1636 1.363 . S
C1638 C1639 1.370 . S
C1638 C1642 1.524 . S
C1639 C1631 1.503 . S
C1639 C1638 1.370 . S
C1639 C1640 1.403 . S
C1640 C1639 1.403 . S
C1640 C1641 1.404 . S
C1640 C1643 1.539 . S
C1641 C1637 1.408 . S
C1641 C1640 1.404 . S
C1641 H1653 0.930 . S
C1642 C1638 1.524 . S
C1642 H1654 0.956 . S
C1642 H1655 0.961 . S
C1642 H1656 0.961 . S
C1643 C1640 1.539 . S
C1643 H1657 0.958 . S
C1643 H1658 0.961 . S
C1643 H1659 0.960 . S
H1644 C1628 0.931 . S
H1645 C1633 0.929 . S
H1646 C1634 0.960 . S
H1647 C1634 0.962 . S
H1648 C1634 0.960 . S
H1649 C1635 0.961 . S
H1650 C1635 0.961 . S
H1651 C1635 0.961 . S
H1652 C1636 0.931 . S
H1653 C1641 0.930 . S
H1654 C1642 0.956 . S
H1655 C1642 0.961 . S
H1656 C1642 0.961 . S
H1657 C1643 0.958 . S
H1658 C1643 0.961 . S
H1659 C1643 0.960 . S
C1660 C1661 1.391 . S
C1660 C1662 1.394 . S
C1660 H1676 0.931 . S
C1661 C1660 1.391 . S
C1661 C1665 1.376 . S
C1662 C1660 1.394 . S
C1662 C1663 1.369 . S
C1662 C1666 1.531 . S
C1663 C1662 1.369 . S
C1663 C1664 1.410 . S
C1663 C1671 1.503 . S
C1664 C1663 1.410 . S
C1664 C1665 1.392 . S
C1664 C1667 1.511 . S
C1665 C1661 1.376 . S
C1665 C1664 1.392 . S
C1665 H1677 0.929 . S
C1666 C1662 1.531 . S
C1666 H1678 0.960 . S
C1666 H1679 0.962 . S
C1666 H1680 0.960 . S
C1667 C1664 1.511 . S
C1667 H1681 0.961 . S
C1667 H1682 0.961 . S
C1667 H1683 0.961 1_545 S
C1668 C1669 1.370 . S
C1668 C1670 1.363 . S
C1668 H1684 0.931 . S
C1669 C1668 1.370 . S
C1669 C1673 1.408 . S
C1670 C1668 1.363 . S
C1670 C1671 1.370 . S
C1670 C1674 1.524 . S
C1671 C1663 1.503 . S
C1671 C1670 1.370 . S
C1671 C1672 1.403 . S
C1672 C1671 1.403 . S
C1672 C1673 1.404 . S
C1672 C1675 1.539 1_545 S
C1673 C1669 1.408 . S
C1673 C1672 1.404 . S
C1673 H1685 0.930 1_545 S
C1674 C1670 1.524 . S
C1674 H1686 0.956 . S
C1674 H1687 0.961 . S
C1674 H1688 0.961 . S
C1675 C1672 1.539 1_565 S
C1675 H1689 0.958 . S
C1675 H1690 0.961 . S
C1675 H1691 0.960 . S
H1676 C1660 0.931 . S
H1677 C1665 0.929 . S
H1678 C1666 0.960 . S
H1679 C1666 0.962 . S
H1680 C1666 0.960 . S
H1681 C1667 0.961 . S
H1682 C1667 0.961 . S
H1683 C1667 0.961 1_565 S
H1684 C1668 0.931 . S
H1685 C1673 0.930 1_565 S
H1686 C1674 0.956 . S
H1687 C1674 0.961 . S
H1688 C1674 0.961 . S
H1689 C1675 0.958 . S
H1690 C1675 0.961 . S
H1691 C1675 0.960 . S
C1692 C1693 1.391 . S
C1692 C1694 1.394 . S
C1692 H1708 0.931 . S
C1693 C1692 1.391 . S
C1693 C1697 1.376 . S
C1694 C1692 1.394 . S
C1694 C1695 1.369 . S
C1694 C1698 1.531 . S
C1695 C1694 1.369 . S
C1695 C1696 1.410 . S
C1695 C1703 1.503 . S
C1696 C1695 1.410 . S
C1696 C1697 1.392 . S
C1696 C1699 1.511 . S
C1697 C1693 1.376 . S
C1697 C1696 1.392 . S
C1697 H1709 0.929 . S
C1698 C1694 1.531 . S
C1698 H1710 0.960 . S
C1698 H1711 0.962 . S
C1698 H1712 0.960 . S
C1699 C1696 1.511 . S
C1699 H1713 0.961 . S
C1699 H1714 0.961 . S
C1699 H1715 0.961 . S
C1700 C1701 1.370 . S
C1700 C1702 1.363 . S
C1700 H1716 0.931 . S
C1701 C1700 1.370 . S
C1701 C1705 1.408 . S
C1702 C1700 1.363 . S
C1702 C1703 1.370 . S
C1702 C1706 1.524 . S
C1703 C1695 1.503 . S
C1703 C1702 1.370 . S
C1703 C1704 1.403 . S
C1704 C1703 1.403 . S
C1704 C1705 1.404 . S
C1704 C1707 1.539 . S
C1705 C1701 1.408 . S
C1705 C1704 1.404 . S
C1705 H1717 0.930 . S
C1706 C1702 1.524 . S
C1706 H1718 0.956 . S
C1706 H1719 0.961 . S
C1706 H1720 0.961 . S
C1707 C1704 1.539 . S
C1707 H1721 0.958 . S
C1707 H1722 0.961 . S
C1707 H1723 0.960 . S
H1708 C1692 0.931 . S
H1709 C1697 0.929 . S
H1710 C1698 0.960 . S
H1711 C1698 0.962 . S
H1712 C1698 0.960 . S
H1713 C1699 0.961 . S
H1714 C1699 0.961 . S
H1715 C1699 0.961 . S
H1716 C1700 0.931 . S
H1717 C1705 0.930 . S
H1718 C1706 0.956 . S
H1719 C1706 0.961 . S
H1720 C1706 0.961 . S
H1721 C1707 0.958 . S
H1722 C1707 0.961 . S
H1723 C1707 0.960 . S
C1724 C1725 1.391 . S
C1724 C1726 1.394 . S
C1724 H1740 0.931 . S
C1725 C1724 1.391 . S
C1725 C1729 1.376 . S
C1726 C1724 1.394 . S
C1726 C1727 1.369 . S
C1726 C1730 1.531 . S
C1727 C1726 1.369 . S
C1727 C1728 1.410 . S
C1727 C1735 1.503 . S
C1728 C1727 1.410 . S
C1728 C1729 1.392 . S
C1728 C1731 1.511 . S
C1729 C1725 1.376 . S
C1729 C1728 1.392 . S
C1729 H1741 0.929 . S
C1730 C1726 1.531 . S
C1730 H1742 0.960 . S
C1730 H1743 0.962 . S
C1730 H1744 0.960 . S
C1731 C1728 1.511 . S
C1731 H1745 0.961 . S
C1731 H1746 0.961 . S
C1731 H1747 0.961 . S
C1732 C1733 1.370 . S
C1732 C1734 1.363 . S
C1732 H1748 0.931 . S
C1733 C1732 1.370 . S
C1733 C1737 1.408 . S
C1734 C1732 1.363 . S
C1734 C1735 1.370 . S
C1734 C1738 1.524 . S
C1735 C1727 1.503 . S
C1735 C1734 1.370 . S
C1735 C1736 1.403 . S
C1736 C1735 1.403 . S
C1736 C1737 1.404 . S
C1736 C1739 1.539 . S
C1737 C1733 1.408 . S
C1737 C1736 1.404 . S
C1737 H1749 0.930 . S
C1738 C1734 1.524 . S
C1738 H1750 0.956 . S
C1738 H1751 0.961 . S
C1738 H1752 0.961 . S
C1739 C1736 1.539 . S
C1739 H1753 0.958 . S
C1739 H1754 0.961 . S
C1739 H1755 0.960 . S
H1740 C1724 0.931 . S
H1741 C1729 0.929 . S
H1742 C1730 0.960 . S
H1743 C1730 0.962 . S
H1744 C1730 0.960 . S
H1745 C1731 0.961 . S
H1746 C1731 0.961 . S
H1747 C1731 0.961 . S
H1748 C1732 0.931 . S
H1749 C1737 0.930 . S
H1750 C1738 0.956 . S
H1751 C1738 0.961 . S
H1752 C1738 0.961 . S
H1753 C1739 0.958 . S
H1754 C1739 0.961 . S
H1755 C1739 0.960 . S
C1756 C1757 1.391 . S
C1756 C1758 1.394 . S
C1756 H1772 0.931 . S
C1757 C1756 1.391 . S
C1757 C1761 1.376 . S
C1758 C1756 1.394 . S
C1758 C1759 1.369 . S
C1758 C1762 1.531 . S
C1759 C1758 1.369 . S
C1759 C1760 1.410 . S
C1759 C1767 1.503 . S
C1760 C1759 1.410 . S
C1760 C1761 1.392 . S
C1760 C1763 1.511 . S
C1761 C1757 1.376 . S
C1761 C1760 1.392 . S
C1761 H1773 0.929 . S
C1762 C1758 1.531 . S
C1762 H1774 0.960 . S
C1762 H1775 0.962 . S
C1762 H1776 0.960 . S
C1763 C1760 1.511 . S
C1763 H1777 0.961 . S
C1763 H1778 0.961 . S
C1763 H1779 0.961 . S
C1764 C1765 1.370 . S
C1764 C1766 1.363 . S
C1764 H1780 0.931 . S
C1765 C1764 1.370 . S
C1765 C1769 1.408 . S
C1766 C1764 1.363 . S
C1766 C1767 1.370 . S
C1766 C1770 1.524 . S
C1767 C1759 1.503 . S
C1767 C1766 1.370 . S
C1767 C1768 1.403 . S
C1768 C1767 1.403 . S
C1768 C1769 1.404 . S
C1768 C1771 1.539 . S
C1769 C1765 1.408 . S
C1769 C1768 1.404 . S
C1769 H1781 0.930 . S
C1770 C1766 1.524 . S
C1770 H1782 0.956 . S
C1770 H1783 0.961 . S
C1770 H1784 0.961 . S
C1771 C1768 1.539 . S
C1771 H1785 0.958 . S
C1771 H1786 0.961 . S
C1771 H1787 0.960 . S
H1772 C1756 0.931 . S
H1773 C1761 0.929 . S
H1774 C1762 0.960 . S
H1775 C1762 0.962 . S
H1776 C1762 0.960 . S
H1777 C1763 0.961 . S
H1778 C1763 0.961 . S
H1779 C1763 0.961 . S
H1780 C1764 0.931 . S
H1781 C1769 0.930 . S
H1782 C1770 0.956 . S
H1783 C1770 0.961 . S
H1784 C1770 0.961 . S
H1785 C1771 0.958 . S
H1786 C1771 0.961 . S
H1787 C1771 0.960 . S
C1788 C1789 1.391 . S
C1788 C1790 1.394 . S
C1788 H1804 0.931 . S
C1789 C1788 1.391 . S
C1789 C1793 1.428 . S
C1790 C1788 1.394 . S
C1790 C1791 1.369 . S
C1790 C1794 1.531 . S
C1791 C1790 1.369 . S
C1791 C1792 1.410 1_655 S
C1791 C1799 1.503 . S
C1792 C1791 1.410 1_455 S
C1792 C1793 1.382 1_455 S
C1792 C1795 1.511 . S
C1793 C1789 1.428 . S
C1793 C1792 1.382 1_655 S
C1793 H1805 0.889 1_655 S
C1794 C1790 1.531 . S
C1794 H1806 0.960 . S
C1794 H1807 0.962 . S
C1794 H1808 0.960 . S
C1795 C1792 1.511 . S
C1795 H1809 0.961 . S
C1795 H1810 0.961 . S
C1795 H1811 0.961 . S
C1796 C1797 1.370 . S
C1796 C1798 1.363 . S
C1796 H1812 0.931 . S
C1797 C1796 1.370 . S
C1797 C1801 1.408 . S
C1798 C1796 1.363 . S
C1798 C1799 1.370 . S
C1798 C1802 1.524 . S
C1799 C1791 1.503 . S
C1799 C1798 1.370 . S
C1799 C1800 1.403 . S
C1800 C1799 1.403 . S
C1800 C1801 1.404 . S
C1800 C1803 1.529 1_655 S
C1801 C1797 1.408 . S
C1801 C1800 1.404 . S
C1801 H1813 0.930 1_655 S
C1802 C1798 1.524 . S
C1802 H1814 0.956 . S
C1802 H1815 0.961 . S
C1802 H1816 0.961 . S
C1803 C1800 1.529 1_455 S
C1803 H1817 0.913 1_455 S
C1803 H1818 1.004 . S
C1803 H1819 0.976 . S
H1804 C1788 0.931 . S
H1805 C1793 0.889 1_455 S
H1806 C1794 0.960 . S
H1807 C1794 0.962 . S
H1808 C1794 0.960 . S
H1809 C1795 0.961 . S
H1810 C1795 0.961 . S
H1811 C1795 0.961 . S
H1812 C1796 0.931 . S
H1813 C1801 0.930 1_455 S
H1814 C1802 0.956 . S
H1815 C1802 0.961 . S
H1816 C1802 0.961 . S
H1817 C1803 0.913 1_655 S
H1818 C1803 1.004 . S
H1819 C1803 0.976 . S
C1820 C1821 1.391 . S
C1820 C1822 1.394 . S
C1820 H1836 0.931 . S
C1821 C1820 1.391 . S
C1821 C1825 1.376 . S
C1822 C1820 1.394 . S
C1822 C1823 1.369 . S
C1822 C1826 1.531 . S
C1823 C1822 1.369 . S
C1823 C1824 1.410 . S
C1823 C1831 1.503 . S
C1824 C1823 1.410 . S
C1824 C1825 1.392 . S
C1824 C1827 1.511 . S
C1825 C1821 1.376 . S
C1825 C1824 1.392 . S
C1825 H1837 0.929 . S
C1826 C1822 1.531 . S
C1826 H1838 0.960 . S
C1826 H1839 0.962 . S
C1826 H1840 0.960 . S
C1827 C1824 1.511 . S
C1827 H1841 0.961 . S
C1827 H1842 0.961 . S
C1827 H1843 0.961 . S
C1828 C1829 1.370 . S
C1828 C1830 1.363 . S
C1828 H1844 0.931 . S
C1829 C1828 1.370 . S
C1829 C1833 1.408 . S
C1830 C1828 1.363 . S
C1830 C1831 1.370 . S
C1830 C1834 1.524 . S
C1831 C1823 1.503 . S
C1831 C1830 1.370 . S
C1831 C1832 1.403 . S
C1832 C1831 1.403 . S
C1832 C1833 1.404 . S
C1832 C1835 1.539 . S
C1833 C1829 1.408 . S
C1833 C1832 1.404 . S
C1833 H1845 0.930 . S
C1834 C1830 1.524 . S
C1834 H1846 0.956 . S
C1834 H1847 0.961 . S
C1834 H1848 0.961 . S
C1835 C1832 1.539 . S
C1835 H1849 0.958 . S
C1835 H1850 0.961 . S
C1835 H1851 0.960 . S
H1836 C1820 0.931 . S
H1837 C1825 0.929 . S
H1838 C1826 0.960 . S
H1839 C1826 0.962 . S
H1840 C1826 0.960 . S
H1841 C1827 0.961 . S
H1842 C1827 0.961 . S
H1843 C1827 0.961 . S
H1844 C1828 0.931 . S
H1845 C1833 0.930 . S
H1846 C1834 0.956 . S
H1847 C1834 0.961 . S
H1848 C1834 0.961 . S
H1849 C1835 0.958 . S
H1850 C1835 0.961 . S
H1851 C1835 0.960 . S
C1852 C1853 1.391 . S
C1852 C1854 1.394 . S
C1852 H1868 0.931 . S
C1853 C1852 1.391 . S
C1853 C1857 1.376 . S
C1854 C1852 1.394 . S
C1854 C1855 1.369 . S
C1854 C1858 1.531 . S
C1855 C1854 1.369 . S
C1855 C1856 1.410 . S
C1855 C1863 1.503 . S
C1856 C1855 1.410 . S
C1856 C1857 1.392 . S
C1856 C1859 1.511 . S
C1857 C1853 1.376 . S
C1857 C1856 1.392 . S
C1857 H1869 0.931 1_556 S
C1858 C1854 1.531 . S
C1858 H1870 0.960 . S
C1858 H1871 0.962 . S
C1858 H1872 0.960 . S
C1859 C1856 1.511 . S
C1859 H1873 0.961 . S
C1859 H1874 0.961 . S
C1859 H1875 0.961 1_455 S
C1860 C1861 1.370 . S
C1860 C1862 1.363 . S
C1860 H1876 0.931 . S
C1861 C1860 1.370 . S
C1861 C1865 1.408 1_455 S
C1862 C1860 1.363 . S
C1862 C1863 1.370 . S
C1862 C1866 1.524 . S
C1863 C1855 1.503 . S
C1863 C1862 1.370 . S
C1863 C1864 1.403 1_455 S
C1864 C1863 1.403 1_655 S
C1864 C1865 1.404 . S
C1864 C1867 1.539 . S
C1865 C1861 1.408 1_655 S
C1865 C1864 1.404 . S
C1865 H1877 0.930 . S
C1866 C1862 1.524 . S
C1866 H1878 0.956 . S
C1866 H1879 0.961 . S
C1866 H1880 0.961 . S
C1867 C1864 1.539 . S
C1867 H1881 0.958 . S
C1867 H1882 0.961 . S
C1867 H1883 0.960 . S
H1868 C1852 0.931 . S
H1869 C1857 0.931 1_554 S
H1870 C1858 0.960 . S
H1871 C1858 0.962 . S
H1872 C1858 0.960 . S
H1873 C1859 0.961 . S
H1874 C1859 0.961 . S
H1875 C1859 0.961 1_655 S
H1876 C1860 0.931 . S
H1877 C1865 0.930 . S
H1878 C1866 0.956 . S
H1879 C1866 0.961 . S
H1880 C1866 0.961 . S
H1881 C1867 0.958 . S
H1882 C1867 0.961 . S
H1883 C1867 0.960 . S
C1884 C1885 1.391 . S
C1884 C1886 1.394 . S
C1884 H1900 0.931 . S
C1885 C1884 1.391 . S
C1885 C1889 1.376 . S
C1886 C1884 1.394 . S
C1886 C1887 1.369 . S
C1886 C1890 1.531 . S
C1887 C1886 1.369 . S
C1887 C1888 1.410 . S
C1887 C1895 1.503 . S
C1888 C1887 1.410 . S
C1888 C1889 1.392 . S
C1888 C1891 1.511 . S
C1889 C1885 1.376 . S
C1889 C1888 1.392 . S
C1889 H1901 0.929 . S
C1890 C1886 1.531 . S
C1890 H1902 0.960 . S
C1890 H1903 0.962 . S
C1890 H1904 0.960 . S
C1891 C1888 1.511 . S
C1891 H1905 0.961 . S
C1891 H1906 0.961 . S
C1891 H1907 0.961 . S
C1892 C1893 1.370 . S
C1892 C1894 1.363 . S
C1892 H1908 0.931 . S
C1893 C1892 1.370 . S
C1893 C1897 1.408 . S
C1894 C1892 1.363 . S
C1894 C1895 1.370 . S
C1894 C1898 1.524 . S
C1895 C1887 1.503 . S
C1895 C1894 1.370 . S
C1895 C1896 1.403 . S
C1896 C1895 1.403 . S
C1896 C1897 1.404 . S
C1896 C1899 1.539 . S
C1897 C1893 1.408 . S
C1897 C1896 1.404 . S
C1897 H1909 0.930 . S
C1898 C1894 1.524 . S
C1898 H1910 0.956 . S
C1898 H1911 0.961 . S
C1898 H1912 0.961 . S
C1899 C1896 1.539 . S
C1899 H1913 0.958 . S
C1899 H1914 0.961 . S
C1899 H1915 0.960 . S
H1900 C1884 0.931 . S
H1901 C1889 0.929 . S
H1902 C1890 0.960 . S
H1903 C1890 0.962 . S
H1904 C1890 0.960 . S
H1905 C1891 0.961 . S
H1906 C1891 0.961 . S
H1907 C1891 0.961 . S
H1908 C1892 0.931 . S
H1909 C1897 0.930 . S
H1910 C1898 0.956 . S
H1911 C1898 0.961 . S
H1912 C1898 0.961 . S
H1913 C1899 0.958 . S
H1914 C1899 0.961 . S
H1915 C1899 0.960 . S
C1916 C1917 1.391 . S
C1916 C1918 1.394 . S
C1916 H1932 0.931 . S
C1917 C1916 1.391 . S
C1917 C1921 1.376 . S
C1918 C1916 1.394 . S
C1918 C1919 1.369 . S
C1918 C1922 1.531 . S
C1919 C1918 1.369 . S
C1919 C1920 1.410 . S
C1919 C1927 1.503 . S
C1920 C1919 1.410 . S
C1920 C1921 1.392 . S
C1920 C1923 1.511 . S
C1921 C1917 1.376 . S
C1921 C1920 1.392 . S
C1921 H1933 0.929 . S
C1922 C1918 1.531 . S
C1922 H1934 0.960 . S
C1922 H1935 0.962 . S
C1922 H1936 0.960 . S
C1923 C1920 1.511 . S
C1923 H1937 0.961 . S
C1923 H1938 0.961 . S
C1923 H1939 0.961 . S
C1924 C1925 1.370 . S
C1924 C1926 1.363 . S
C1924 H1940 0.931 . S
C1925 C1924 1.370 . S
C1925 C1929 1.408 . S
C1926 C1924 1.363 . S
C1926 C1927 1.370 . S
C1926 C1930 1.524 . S
C1927 C1919 1.503 . S
C1927 C1926 1.370 . S
C1927 C1928 1.403 . S
C1928 C1927 1.403 . S
C1928 C1929 1.404 . S
C1928 C1931 1.539 . S
C1929 C1925 1.408 . S
C1929 C1928 1.404 . S
C1929 H1941 0.930 . S
C1930 C1926 1.524 . S
C1930 H1942 0.956 . S
C1930 H1943 0.961 . S
C1930 H1944 0.961 . S
C1931 C1928 1.539 . S
C1931 H1945 0.958 . S
C1931 H1946 0.961 . S
C1931 H1947 0.960 . S
H1932 C1916 0.931 . S
H1933 C1921 0.929 . S
H1934 C1922 0.960 . S
H1935 C1922 0.962 . S
H1936 C1922 0.960 . S
H1937 C1923 0.961 . S
H1938 C1923 0.961 . S
H1939 C1923 0.961 . S
H1940 C1924 0.931 . S
H1941 C1929 0.930 . S
H1942 C1930 0.956 . S
H1943 C1930 0.961 . S
H1944 C1930 0.961 . S
H1945 C1931 0.958 . S
H1946 C1931 0.961 . S
H1947 C1931 0.960 . S
C1948 C1949 1.391 . S
C1948 C1950 1.394 . S
C1948 H1964 0.931 . S
C1949 C1948 1.391 . S
C1949 C1953 1.376 . S
C1950 C1948 1.394 . S
C1950 C1951 1.369 . S
C1950 C1954 1.531 . S
C1951 C1950 1.369 . S
C1951 C1952 1.410 . S
C1951 C1959 1.503 . S
C1952 C1951 1.410 . S
C1952 C1953 1.392 . S
C1952 C1955 1.511 . S
C1953 C1949 1.376 . S
C1953 C1952 1.392 . S
C1953 H1965 0.929 . S
C1954 C1950 1.531 . S
C1954 H1966 0.960 . S
C1954 H1967 0.962 . S
C1954 H1968 0.960 . S
C1955 C1952 1.511 . S
C1955 H1969 0.961 . S
C1955 H1970 0.961 . S
C1955 H1971 0.961 . S
C1956 C1957 1.370 . S
C1956 C1958 1.363 . S
C1956 H1972 0.931 . S
C1957 C1956 1.370 . S
C1957 C1961 1.408 . S
C1958 C1956 1.363 . S
C1958 C1959 1.370 . S
C1958 C1962 1.524 . S
C1959 C1951 1.503 . S
C1959 C1958 1.370 . S
C1959 C1960 1.403 . S
C1960 C1959 1.403 . S
C1960 C1961 1.404 . S
C1960 C1963 1.539 . S
C1961 C1957 1.408 . S
C1961 C1960 1.404 . S
C1961 H1973 0.930 . S
C1962 C1958 1.524 . S
C1962 H1974 0.956 . S
C1962 H1975 0.961 . S
C1962 H1976 0.961 . S
C1963 C1960 1.539 . S
C1963 H1977 0.958 . S
C1963 H1978 0.961 . S
C1963 H1979 0.960 . S
H1964 C1948 0.931 . S
H1965 C1953 0.929 . S
H1966 C1954 0.960 . S
H1967 C1954 0.962 . S
H1968 C1954 0.960 . S
H1969 C1955 0.961 . S
H1970 C1955 0.961 . S
H1971 C1955 0.961 . S
H1972 C1956 0.931 . S
H1973 C1961 0.930 . S
H1974 C1962 0.956 . S
H1975 C1962 0.961 . S
H1976 C1962 0.961 . S
H1977 C1963 0.958 . S
H1978 C1963 0.961 . S
H1979 C1963 0.960 . S
C1980 C1981 1.391 . S
C1980 C1982 1.394 . S
C1980 H1996 0.931 . S
C1981 C1980 1.391 . S
C1981 C1985 1.376 . S
C1982 C1980 1.394 . S
C1982 C1983 1.369 . S
C1982 C1986 1.531 . S
C1983 C1982 1.369 . S
C1983 C1984 1.410 . S
C1983 C1991 1.503 . S
C1984 C1983 1.410 . S
C1984 C1985 1.392 . S
C1984 C1987 1.511 . S
C1985 C1981 1.376 . S
C1985 C1984 1.392 . S
C1985 H1997 0.929 . S
C1986 C1982 1.531 . S
C1986 H1998 0.960 . S
C1986 H1999 0.962 . S
C1986 H2000 0.960 . S
C1987 C1984 1.511 . S
C1987 H2001 0.961 . S
C1987 H2002 0.961 . S
C1987 H2003 0.961 . S
C1988 C1989 1.370 . S
C1988 C1990 1.363 . S
C1988 H2004 0.931 . S
C1989 C1988 1.370 . S
C1989 C1993 1.408 . S
C1990 C1988 1.363 . S
C1990 C1991 1.370 . S
C1990 C1994 1.524 . S
C1991 C1983 1.503 . S
C1991 C1990 1.370 . S
C1991 C1992 1.403 . S
C1992 C1991 1.403 . S
C1992 C1993 1.404 . S
C1992 C1995 1.539 . S
C1993 C1989 1.408 . S
C1993 C1992 1.404 . S
C1993 H2005 0.930 . S
C1994 C1990 1.524 . S
C1994 H2006 0.956 . S
C1994 H2007 0.961 . S
C1994 H2008 0.961 . S
C1995 C1992 1.539 . S
C1995 H2009 0.958 . S
C1995 H2010 0.961 . S
C1995 H2011 0.960 . S
H1996 C1980 0.931 . S
H1997 C1985 0.929 . S
H1998 C1986 0.960 . S
H1999 C1986 0.962 . S
H2000 C1986 0.960 . S
H2001 C1987 0.961 . S
H2002 C1987 0.961 . S
H2003 C1987 0.961 . S
H2004 C1988 0.931 . S
H2005 C1993 0.930 . S
H2006 C1994 0.956 . S
H2007 C1994 0.961 . S
H2008 C1994 0.961 . S
H2009 C1995 0.958 . S
H2010 C1995 0.961 . S
H2011 C1995 0.960 . S
C2012 C2013 1.391 . S
C2012 C2014 1.394 . S
C2012 H2028 0.931 . S
C2013 C2012 1.391 . S
C2013 C2017 1.376 . S
C2014 C2012 1.394 . S
C2014 C2015 1.369 . S
C2014 C2018 1.531 . S
C2015 C2014 1.369 . S
C2015 C2016 1.410 . S
C2015 C2023 1.503 . S
C2016 C2015 1.410 . S
C2016 C2017 1.392 . S
C2016 C2019 1.511 . S
C2017 C2013 1.376 . S
C2017 C2016 1.392 . S
C2017 H2029 0.929 . S
C2018 C2014 1.531 . S
C2018 H2030 0.960 . S
C2018 H2031 0.962 . S
C2018 H2032 0.960 . S
C2019 C2016 1.511 . S
C2019 H2033 0.961 . S
C2019 H2034 0.961 . S
C2019 H2035 0.961 . S
C2020 C2021 1.370 . S
C2020 C2022 1.363 . S
C2020 H2036 0.931 . S
C2021 C2020 1.370 . S
C2021 C2025 1.408 . S
C2022 C2020 1.363 . S
C2022 C2023 1.370 . S
C2022 C2026 1.524 . S
C2023 C2015 1.503 . S
C2023 C2022 1.370 . S
C2023 C2024 1.403 . S
C2024 C2023 1.403 . S
C2024 C2025 1.404 . S
C2024 C2027 1.539 . S
C2025 C2021 1.408 . S
C2025 C2024 1.404 . S
C2025 H2037 0.930 . S
C2026 C2022 1.524 . S
C2026 H2038 0.956 . S
C2026 H2039 0.961 . S
C2026 H2040 0.961 . S
C2027 C2024 1.539 . S
C2027 H2041 0.958 . S
C2027 H2042 0.961 . S
C2027 H2043 0.960 . S
H2028 C2012 0.931 . S
H2029 C2017 0.929 . S
H2030 C2018 0.960 . S
H2031 C2018 0.962 . S
H2032 C2018 0.960 . S
H2033 C2019 0.961 . S
H2034 C2019 0.961 . S
H2035 C2019 0.961 . S
H2036 C2020 0.931 . S
H2037 C2025 0.930 . S
H2038 C2026 0.956 . S
H2039 C2026 0.961 . S
H2040 C2026 0.961 . S
H2041 C2027 0.958 . S
H2042 C2027 0.961 . S
H2043 C2027 0.960 . S
C2044 C2045 1.391 . S
C2044 C2046 1.394 . S
C2044 H2060 0.931 . S
C2045 C2044 1.391 . S
C2045 C2049 1.376 . S
C2046 C2044 1.394 . S
C2046 C2047 1.369 . S
C2046 C2050 1.531 . S
C2047 C2046 1.369 . S
C2047 C2048 1.410 . S
C2047 C2055 1.503 . S
C2048 C2047 1.410 . S
C2048 C2049 1.392 . S
C2048 C2051 1.511 . S
C2049 C2045 1.376 . S
C2049 C2048 1.392 . S
C2049 H2061 0.929 . S
C2050 C2046 1.531 . S
C2050 H2062 0.960 . S
C2050 H2063 0.962 . S
C2050 H2064 0.960 . S
C2051 C2048 1.511 . S
C2051 H2065 0.961 . S
C2051 H2066 0.961 . S
C2051 H2067 0.961 . S
C2052 C2053 1.370 . S
C2052 C2054 1.363 . S
C2052 H2068 0.931 . S
C2053 C2052 1.370 . S
C2053 C2057 1.408 . S
C2054 C2052 1.363 . S
C2054 C2055 1.370 . S
C2054 C2058 1.524 . S
C2055 C2047 1.503 . S
C2055 C2054 1.370 . S
C2055 C2056 1.403 . S
C2056 C2055 1.403 . S
C2056 C2057 1.404 . S
C2056 C2059 1.539 . S
C2057 C2053 1.408 . S
C2057 C2056 1.404 . S
C2057 H2069 0.930 . S
C2058 C2054 1.524 . S
C2058 H2070 0.956 . S
C2058 H2071 0.961 . S
C2058 H2072 0.961 . S
C2059 C2056 1.539 . S
C2059 H2073 0.958 . S
C2059 H2074 0.961 . S
C2059 H2075 0.960 . S
H2060 C2044 0.931 . S
H2061 C2049 0.929 . S
H2062 C2050 0.960 . S
H2063 C2050 0.962 . S
H2064 C2050 0.960 . S
H2065 C2051 0.961 . S
H2066 C2051 0.961 . S
H2067 C2051 0.961 . S
H2068 C2052 0.931 . S
H2069 C2057 0.930 . S
H2070 C2058 0.956 . S
H2071 C2058 0.961 . S
H2072 C2058 0.961 . S
H2073 C2059 0.958 . S
H2074 C2059 0.961 . S
H2075 C2059 0.960 . S
C2076 C2077 1.391 . S
C2076 C2078 1.394 . S
C2076 H2092 0.931 . S
C2077 C2076 1.391 . S
C2077 C2081 1.376 . S
C2078 C2076 1.394 . S
C2078 C2079 1.369 . S
C2078 C2082 1.531 . S
C2079 C2078 1.369 . S
C2079 C2080 1.410 . S
C2079 C2087 1.503 . S
C2080 C2079 1.410 . S
C2080 C2081 1.392 . S
C2080 C2083 1.511 . S
C2081 C2077 1.376 . S
C2081 C2080 1.392 . S
C2081 H2093 0.929 . S
C2082 C2078 1.531 . S
C2082 H2094 0.960 . S
C2082 H2095 0.962 . S
C2082 H2096 0.960 . S
C2083 C2080 1.511 . S
C2083 H2097 0.961 . S
C2083 H2098 0.961 . S
C2083 H2099 0.961 . S
C2084 C2085 1.370 . S
C2084 C2086 1.363 . S
C2084 H2100 0.931 . S
C2085 C2084 1.370 . S
C2085 C2089 1.408 . S
C2086 C2084 1.363 . S
C2086 C2087 1.370 . S
C2086 C2090 1.524 . S
C2087 C2079 1.503 . S
C2087 C2086 1.370 . S
C2087 C2088 1.403 . S
C2088 C2087 1.403 . S
C2088 C2089 1.404 . S
C2088 C2091 1.539 . S
C2089 C2085 1.408 . S
C2089 C2088 1.404 . S
C2089 H2101 0.930 . S
C2090 C2086 1.524 . S
C2090 H2102 0.956 . S
C2090 H2103 0.961 . S
C2090 H2104 0.961 . S
C2091 C2088 1.539 . S
C2091 H2105 0.958 . S
C2091 H2106 0.961 . S
C2091 H2107 0.960 . S
H2092 C2076 0.931 . S
H2093 C2081 0.929 . S
H2094 C2082 0.960 . S
H2095 C2082 0.962 . S
H2096 C2082 0.960 . S
H2097 C2083 0.961 . S
H2098 C2083 0.961 . S
H2099 C2083 0.961 . S
H2100 C2084 0.931 . S
H2101 C2089 0.930 . S
H2102 C2090 0.956 . S
H2103 C2090 0.961 . S
H2104 C2090 0.961 . S
H2105 C2091 0.958 . S
H2106 C2091 0.961 . S
H2107 C2091 0.960 . S
C2108 C2109 1.391 . S
C2108 C2110 1.394 . S
C2108 H2124 0.931 . S
C2109 C2108 1.391 . S
C2109 C2113 1.376 . S
C2110 C2108 1.394 . S
C2110 C2111 1.369 . S
C2110 C2114 1.531 . S
C2111 C2110 1.369 . S
C2111 C2112 1.410 . S
C2111 C2119 1.503 . S
C2112 C2111 1.410 . S
C2112 C2113 1.392 . S
C2112 C2115 1.511 . S
C2113 C2109 1.376 . S
C2113 C2112 1.392 . S
C2113 H2125 0.929 . S
C2114 C2110 1.531 . S
C2114 H2126 0.960 . S
C2114 H2127 0.962 . S
C2114 H2128 0.960 . S
C2115 C2112 1.511 . S
C2115 H2129 0.961 . S
C2115 H2130 0.961 . S
C2115 H2131 0.961 . S
C2116 C2117 1.370 . S
C2116 C2118 1.363 . S
C2116 H2132 0.931 . S
C2117 C2116 1.370 . S
C2117 C2121 1.408 . S
C2118 C2116 1.363 . S
C2118 C2119 1.370 . S
C2118 C2122 1.524 . S
C2119 C2111 1.503 . S
C2119 C2118 1.370 . S
C2119 C2120 1.403 . S
C2120 C2119 1.403 . S
C2120 C2121 1.404 . S
C2120 C2123 1.539 . S
C2121 C2117 1.408 . S
C2121 C2120 1.404 . S
C2121 H2133 0.930 . S
C2122 C2118 1.524 . S
C2122 H2134 0.956 . S
C2122 H2135 0.961 . S
C2122 H2136 0.961 . S
C2123 C2120 1.539 . S
C2123 H2137 0.958 . S
C2123 H2138 0.961 . S
C2123 H2139 0.960 . S
H2124 C2108 0.931 . S
H2125 C2113 0.929 . S
H2126 C2114 0.960 . S
H2127 C2114 0.962 . S
H2128 C2114 0.960 . S
H2129 C2115 0.961 . S
H2130 C2115 0.961 . S
H2131 C2115 0.961 . S
H2132 C2116 0.931 . S
H2133 C2121 0.930 . S
H2134 C2122 0.956 . S
H2135 C2122 0.961 . S
H2136 C2122 0.961 . S
H2137 C2123 0.958 . S
H2138 C2123 0.961 . S
H2139 C2123 0.960 . S
C2140 C2141 1.391 . S
C2140 C2142 1.394 . S
C2140 H2156 0.931 . S
C2141 C2140 1.391 . S
C2141 C2145 1.376 . S
C2142 C2140 1.394 . S
C2142 C2143 1.369 . S
C2142 C2146 1.531 . S
C2143 C2142 1.369 . S
C2143 C2144 1.410 . S
C2143 C2151 1.503 . S
C2144 C2143 1.410 . S
C2144 C2145 1.392 . S
C2144 C2147 1.511 . S
C2145 C2141 1.376 . S
C2145 C2144 1.392 . S
C2145 H2157 0.929 . S
C2146 C2142 1.531 . S
C2146 H2158 0.960 . S
C2146 H2159 0.962 . S
C2146 H2160 0.960 . S
C2147 C2144 1.511 . S
C2147 H2161 0.961 . S
C2147 H2162 0.961 . S
C2147 H2163 0.961 . S
C2148 C2149 1.370 1_554 S
C2148 C2150 1.373 . S
C2148 H2164 0.931 . S
C2149 C2148 1.370 1_556 S
C2149 C2153 1.408 . S
C2150 C2148 1.373 . S
C2150 C2151 1.326 1_554 S
C2150 C2154 1.560 . S
C2151 C2143 1.503 . S
C2151 C2150 1.326 1_556 S
C2151 C2152 1.403 . S
C2152 C2151 1.403 . S
C2152 C2153 1.404 . S
C2152 C2155 1.539 . S
C2153 C2149 1.408 . S
C2153 C2152 1.404 . S
C2153 H2165 0.930 . S
C2154 C2150 1.560 . S
C2154 H2166 0.956 . S
C2154 H2167 0.961 . S
C2154 H2168 0.961 . S
C2155 C2152 1.539 . S
C2155 H2169 0.958 . S
C2155 H2170 0.961 . S
C2155 H2171 0.960 . S
H2156 C2140 0.931 . S
H2157 C2145 0.929 . S
H2158 C2146 0.960 . S
H2159 C2146 0.962 . S
H2160 C2146 0.960 . S
H2161 C2147 0.961 . S
H2162 C2147 0.961 . S
H2163 C2147 0.961 . S
H2164 C2148 0.931 . S
H2165 C2153 0.930 . S
H2166 C2154 0.956 . S
H2167 C2154 0.961 . S
H2168 C2154 0.961 . S
H2169 C2155 0.958 . S
H2170 C2155 0.961 . S
H2171 C2155 0.960 . S
C2172 C2173 1.391 . S
C2172 C2174 1.394 . S
C2172 H2188 0.931 . S
C2173 C2172 1.391 . S
C2173 C2177 1.376 . S
C2174 C2172 1.394 . S
C2174 C2175 1.369 . S
C2174 C2178 1.531 . S
C2175 C2174 1.369 . S
C2175 C2176 1.410 . S
C2175 C2183 1.503 . S
C2176 C2175 1.410 . S
C2176 C2177 1.392 . S
C2176 C2179 1.511 . S
C2177 C2173 1.376 . S
C2177 C2176 1.392 . S
C2177 H2189 0.929 . S
C2178 C2174 1.531 . S
C2178 H2190 0.960 . S
C2178 H2191 0.962 . S
C2178 H2192 0.960 . S
C2179 C2176 1.511 . S
C2179 H2193 0.961 . S
C2179 H2194 0.961 . S
C2179 H2195 0.961 . S
C2180 C2181 1.370 . S
C2180 C2182 1.363 . S
C2180 H2196 0.931 . S
C2181 C2180 1.370 . S
C2181 C2185 1.408 . S
C2182 C2180 1.363 . S
C2182 C2183 1.370 . S
C2182 C2186 1.524 . S
C2183 C2175 1.503 . S
C2183 C2182 1.370 . S
C2183 C2184 1.403 . S
C2184 C2183 1.403 . S
C2184 C2185 1.404 . S
C2184 C2187 1.539 . S
C2185 C2181 1.408 . S
C2185 C2184 1.404 . S
C2185 H2197 0.930 . S
C2186 C2182 1.524 . S
C2186 H2198 0.956 . S
C2186 H2199 0.961 . S
C2186 H2200 0.961 . S
C2187 C2184 1.539 . S
C2187 H2201 0.958 . S
C2187 H2202 0.961 . S
C2187 H2203 0.960 . S
H2188 C2172 0.931 . S
H2189 C2177 0.929 . S
H2190 C2178 0.960 . S
H2191 C2178 0.962 . S
H2192 C2178 0.960 . S
H2193 C2179 0.961 . S
H2194 C2179 0.961 . S
H2195 C2179 0.961 . S
H2196 C2180 0.931 . S
H2197 C2185 0.930 . S
H2198 C2186 0.956 . S
H2199 C2186 0.961 . S
H2200 C2186 0.961 . S
H2201 C2187 0.958 . S
H2202 C2187 0.961 . S
H2203 C2187 0.960 . S
C2204 C2205 1.391 . S
C2204 C2206 1.394 . S
C2204 H2220 0.931 . S
C2205 C2204 1.391 . S
C2205 C2209 1.376 . S
C2206 C2204 1.394 . S
C2206 C2207 1.369 . S
C2206 C2210 1.531 . S
C2207 C2206 1.369 . S
C2207 C2208 1.410 1_554 S
C2207 C2215 1.503 . S
C2208 C2207 1.410 1_556 S
C2208 C2209 1.392 1_556 S
C2208 C2211 1.511 . S
C2209 C2205 1.376 . S
C2209 C2208 1.392 1_554 S
C2209 H2221 0.929 1_554 S
C2210 C2206 1.531 . S
C2210 H2222 0.960 . S
C2210 H2223 0.962 . S
C2210 H2224 0.960 . S
C2211 C2208 1.511 . S
C2211 H2225 0.961 . S
C2211 H2226 0.961 . S
C2211 H2227 0.961 . S
C2212 C2213 1.370 . S
C2212 C2214 1.363 . S
C2212 H2228 0.931 . S
C2213 C2212 1.370 . S
C2213 C2217 1.408 . S
C2214 C2212 1.363 . S
C2214 C2215 1.370 . S
C2214 C2218 1.524 . S
C2215 C2207 1.503 . S
C2215 C2214 1.370 . S
C2215 C2216 1.403 . S
C2216 C2215 1.403 . S
C2216 C2217 1.404 . S
C2216 C2219 1.539 . S
C2217 C2213 1.408 . S
C2217 C2216 1.404 . S
C2217 H2229 0.940 . S
C2218 C2214 1.524 . S
C2218 H2230 0.956 . S
C2218 H2231 0.961 . S
C2218 H2232 0.961 . S
C2219 C2216 1.539 . S
C2219 H2233 0.958 . S
C2219 H2234 0.961 1_554 S
C2219 H2235 0.960 1_554 S
H2220 C2204 0.931 . S
H2221 C2209 0.929 1_556 S
H2222 C2210 0.960 . S
H2223 C2210 0.962 . S
H2224 C2210 0.960 . S
H2225 C2211 0.961 . S
H2226 C2211 0.961 . S
H2227 C2211 0.961 . S
H2228 C2212 0.931 . S
H2229 C2217 0.940 . S
H2230 C2218 0.956 . S
H2231 C2218 0.961 . S
H2232 C2218 0.961 . S
H2233 C2219 0.958 . S
H2234 C2219 0.961 1_556 S
H2235 C2219 0.960 1_556 S
C2236 C2237 1.391 . S
C2236 C2238 1.394 . S
C2236 H2252 0.931 . S
C2237 C2236 1.391 . S
C2237 C2241 1.376 . S
C2238 C2236 1.394 . S
C2238 C2239 1.369 . S
C2238 C2242 1.531 . S
C2239 C2238 1.369 . S
C2239 C2240 1.410 . S
C2239 C2247 1.503 . S
C2240 C2239 1.410 . S
C2240 C2241 1.392 . S
C2240 C2243 1.511 1_554 S
C2241 C2237 1.376 . S
C2241 C2240 1.392 . S
C2241 H2253 0.929 . S
C2242 C2238 1.531 . S
C2242 H2254 0.960 . S
C2242 H2255 0.962 . S
C2242 H2256 0.960 . S
C2243 C2240 1.511 1_556 S
C2243 H2257 0.961 . S
C2243 H2258 0.957 1_556 S
C2243 H2259 0.961 . S
C2244 C2245 1.370 . S
C2244 C2246 1.363 . S
C2244 H2260 0.931 . S
C2245 C2244 1.370 . S
C2245 C2249 1.408 . S
C2246 C2244 1.363 . S
C2246 C2247 1.370 . S
C2246 C2250 1.524 . S
C2247 C2239 1.503 . S
C2247 C2246 1.370 . S
C2247 C2248 1.403 . S
C2248 C2247 1.403 . S
C2248 C2249 1.404 . S
C2248 C2251 1.539 1_554 S
C2249 C2245 1.408 . S
C2249 C2248 1.404 . S
C2249 H2261 0.930 1_554 S
C2250 C2246 1.524 . S
C2250 H2262 0.956 . S
C2250 H2263 0.961 . S
C2250 H2264 0.961 . S
C2251 C2248 1.539 1_556 S
C2251 H2265 0.958 . S
C2251 H2266 0.961 . S
C2251 H2267 0.960 . S
H2252 C2236 0.931 . S
H2253 C2241 0.929 . S
H2254 C2242 0.960 . S
H2255 C2242 0.962 . S
H2256 C2242 0.960 . S
H2257 C2243 0.961 . S
H2258 C2243 0.957 1_554 S
H2259 C2243 0.961 . S
H2260 C2244 0.931 . S
H2261 C2249 0.930 1_556 S
H2262 C2250 0.956 . S
H2263 C2250 0.961 . S
H2264 C2250 0.961 . S
H2265 C2251 0.958 . S
H2266 C2251 0.961 . S
H2267 C2251 0.960 . S
C741 C586 1.404 . S
C733 C181 1.413 . S
C773 C599 1.596 . S
C765 C247 1.602 . S
C797 C283 1.452 . S
C805 C612 1.448 . S
C837 C625 1.528 . S
C829 C169 1.522 . S
C869 C633 1.468 . S
C861 C361 1.486 . S
C901 C646 1.420 . S
C893 C433 1.431 . S
C925 C421 1.520 . S
C933 C659 1.500 . S
C965 C672 1.501 . S
C957 C355 1.523 . S
C989 C427 1.436 . S
C997 C690 1.446 . S
C1029 C701 1.523 . S
C1021 C325 1.542 . S
C1053 C385 1.446 . S
C1061 C685 1.429 . S
C1093 C693 1.453 . S
C1085 C463 1.489 . S
C1117 C253 1.494 . S
C1125 C716 1.502 . S
C1149 C145 1.518 . S
C1157 C706 1.479 . S
C1181 C205 1.481 . S
C1189 C711 1.455 . S
C1213 C217 1.553 . S
C1221 C714 1.522 1_655 S
C1245 C139 1.453 . S
C1253 C623 1.430 . S
C1277 C535 1.424 . S
C1285 C615 1.407 . S
C1317 C584 1.519 . S
C1309 C565 1.545 . S
C1349 C589 1.491 . S
C1341 C313 1.494 . S
C1373 C175 1.541 . S
C1381 C636 1.527 . S
C1413 C675 1.500 . S
C1405 C397 1.525 . S
C1445 C628 1.492 . S
C1437 C349 1.512 . S
C1477 C654 1.453 . S
C1469 C457 1.481 . S
C1509 C664 1.403 . S
C1501 C505 1.414 . S
C1533 C571 1.610 . S
C1541 C677 1.604 . S
C1565 C319 1.462 . S
C1573 C638 1.442 . S
C1605 C651 1.519 . S
C1597 C493 1.532 . S
C1629 C109 1.492 . S
C1637 C607 1.457 . S
C1669 C620 1.407 . S
C1661 C1 1.427 . S
C1701 C581 1.496 . S
C1693 C61 1.507 . S
C1733 C594 1.508 . S
C1725 C103 1.516 . S
C1757 C67 1.438 . S
C1765 C703 1.445 . S
C1789 C73 1.535 . S
C1797 C688 1.505 1_655 S
C1821 C133 1.452 . S
C1829 C698 1.439 . S
C1853 C31 1.484 . S
C1861 C680 1.455 . S
C1893 C729 1.503 . S
C1885 C289 1.493 . S
C1925 C719 1.480 . S
C1917 C469 1.520 . S
C1957 C724 1.469 . S
C1949 C529 1.486 . S
C1981 C541 1.558 . S
C1989 C727 1.523 . S
C2013 C391 1.454 . S
C2021 C649 1.424 . S
C2053 C641 1.411 . S
C2045 C211 1.421 . S
C2085 C662 1.532 . S
C2077 C241 1.554 . S
C2117 C667 1.497 . S
C2109 C277 1.518 . S
C2141 C499 1.546 . S
C2149 C610 1.527 . S
C2181 C597 1.511 . S
C2173 C37 1.528 . S
C2205 C97 1.500 . S
C2213 C602 1.474 . S
C2245 C576 1.444 . S
C2237 C25 1.485 . S
