# Generated by pormake.
# Topology pth, (4,4)-cn, num edge types: 1
# Building blocks:
#     Node 0, Type 0, BuildingBlock: CEKHIL_clean_sbu_0, # of connection points: 4
#     Node 1, Type 0, BuildingBlock: CEKHIL_clean_sbu_0, # of connection points: 4
#     Node 2, Type 0, BuildingBlock: CEKHIL_clean_sbu_0, # of connection points: 4
#     Node 3, Type 1, BuildingBlock: NAHDIM_clean_linker_0, # of connection points: 4
#     Node 4, Type 1, BuildingBlock: NAHDIM_clean_linker_0, # of connection points: 4
#     Node 5, Type 1, BuildingBlock: NAHDIM_clean_linker_0, # of connection points: 4
#     Edge 6, Type (0, 1), BuildingBlock: AJUNOK_clean_linker_0, # of connection points: 2
#     Edge 7, Type (0, 1), BuildingBlock: AJUNOK_clean_linker_0, # of connection points: 2
#     Edge 8, Type (0, 1), BuildingBlock: AJUNOK_clean_linker_0, # of connection points: 2
#     Edge 9, Type (0, 1), BuildingBlock: AJUNOK_clean_linker_0, # of connection points: 2
#     Edge 10, Type (0, 1), BuildingBlock: AJUNOK_clean_linker_0, # of connection points: 2
#     Edge 11, Type (0, 1), BuildingBlock: AJUNOK_clean_linker_0, # of connection points: 2
#     Edge 12, Type (0, 1), BuildingBlock: AJUNOK_clean_linker_0, # of connection points: 2
#     Edge 13, Type (0, 1), BuildingBlock: AJUNOK_clean_linker_0, # of connection points: 2
#     Edge 14, Type (0, 1), BuildingBlock: AJUNOK_clean_linker_0, # of connection points: 2
#     Edge 15, Type (0, 1), BuildingBlock: AJUNOK_clean_linker_0, # of connection points: 2
#     Edge 16, Type (0, 1), BuildingBlock: AJUNOK_clean_linker_0, # of connection points: 2
#     Edge 17, Type (0, 1), BuildingBlock: AJUNOK_clean_linker_0, # of connection points: 2
# Relax obj value: 0.007
# Max RMSD: 0.047
# Mean RMSD: 0.045
data_MOF--net-pth--node1-CEKHIL_clean_sbu_0--node2-NAHDIM_clean_linker_0--edge1-AJUNOK_clean_linker_0
_symmetry_space_group_name_H-M    P1
_symmetry_Int_Tables_number       1
_symmetry_cell_setting            triclinic
loop_
_symmetry_equiv_pos_as_xyz
'x, y, z'
_cell_length_a     25.532669
_cell_length_b     25.598457
_cell_length_c     66.4583
_cell_angle_alpha  90.749342
_cell_angle_beta   90.633377
_cell_angle_gamma 120.32153
loop_
_atom_site_label
_atom_site_type_symbol
_atom_site_fract_x
_atom_site_fract_y
_atom_site_fract_z
_atom_type_partial_charge
Co0 Co 0.01887 0.04842 0.07459 0.0
O1 O 0.98507 0.98552 0.09401 0.0
O2 O 0.06156 0.00416 0.07424 0.0
C3 C 0.02519 0.12108 0.09549 0.0
O4 O 0.06818 0.10994 0.05357 0.0
Co5 Co 0.95296 0.11248 0.05953 0.0
O6 O 0.03012 0.16951 0.04647 0.0
C7 C 0.91849 0.99248 0.04246 0.0
C8 C 0.02622 0.97281 0.08872 0.0
C9 C 0.07107 0.15545 0.04462 0.0
O10 O 0.96031 0.99265 0.05338 0.0
O11 O 0.90613 0.0351 0.04318 0.0
O12 O 0.06717 0.10672 0.09537 0.0
O13 O 0.9782 0.08862 0.08384 0.0
Co14 Co 0.01853 0.04408 0.40257 0.0
O15 O 0.99358 0.07645 0.38102 0.0
O16 O 0.07404 0.12998 0.40098 0.0
C17 C 0.00927 0.96365 0.38544 0.0
O18 O 0.06045 0.02687 0.4255 0.0
Co19 Co 0.93215 0.9184 0.42033 0.0
O20 O 0.00785 0.92808 0.43266 0.0
C21 C 0.92343 0.0243 0.43366 0.0
C22 C 0.04112 0.12837 0.38565 0.0
C23 C 0.0551 0.98033 0.43451 0.0
O24 O 0.96759 0.05856 0.42224 0.0
O25 O 0.90066 0.96687 0.43431 0.0
O26 O 0.05725 0.01663 0.38358 0.0
O27 O 0.9659 0.96206 0.39579 0.0
Co28 Co 0.01601 0.01926 0.72499 0.0
O29 O 0.08442 0.05942 0.70761 0.0
O30 O 0.05989 0.9761 0.72424 0.0
C31 C 0.95088 0.02452 0.70302 0.0
O32 O 0.94824 0.962 0.74314 0.0
Co33 Co 0.94485 0.07748 0.74137 0.0
O34 O 0.88325 0.99461 0.74928 0.0
C35 C 0.06887 0.11804 0.75675 0.0
C36 C 0.09523 0.01612 0.71147 0.0
C37 C 0.89799 0.95404 0.75008 0.0
O38 O 0.06682 0.07136 0.74843 0.0
O39 O 0.02685 0.13093 0.7544 0.0
O40 O 0.96315 0.98116 0.70153 0.0
O41 O 0.97936 0.0639 0.71734 0.0
C42 C 0.9577 0.68818 0.37301 0.0
C43 C 0.99508 0.73885 0.35835 0.0
C44 C 0.98549 0.70059 0.32393 0.0
C45 C 0.04693 0.72361 0.3196 0.0
C46 C 0.06399 0.6952 0.30502 0.0
C47 C 0.01863 0.64335 0.29449 0.0
C48 C 0.95664 0.62336 0.29763 0.0
C49 C 0.94089 0.65274 0.31226 0.0
C50 C 0.13044 0.71881 0.30152 0.0
C51 C 0.90709 0.56883 0.28639 0.0
C52 C 0.16579 0.34424 0.32119 0.0
C53 C 0.1211 0.34306 0.33671 0.0
C54 C 0.06899 0.38678 0.31778 0.0
C55 C 0.014 0.3725 0.30843 0.0
C56 C 0.00776 0.41585 0.2977 0.0
C57 C 0.0584 0.4748 0.29605 0.0
C58 C 0.11395 0.49015 0.30587 0.0
C59 C 0.11858 0.44609 0.31682 0.0
C60 C 0.94731 0.3984 0.28792 0.0
C61 C 0.16858 0.55291 0.30455 0.0
C62 C 0.0787 0.37686 0.1701 0.0
C63 C 0.0233 0.37586 0.17131 0.0
C64 C 0.0207 0.42438 0.18021 0.0
C65 C 0.07479 0.47554 0.1875 0.0
C66 C 0.13117 0.47865 0.1849 0.0
C67 C 0.13233 0.42902 0.17622 0.0
C68 C 0.95998 0.42051 0.18216 0.0
C69 C 0.18985 0.53353 0.19187 0.0
C70 C 0.11911 0.88736 0.16208 0.0
C71 C 0.09571 0.84309 0.14392 0.0
C72 C 0.05442 0.74564 0.16101 0.0
C73 C 0.00078 0.69451 0.16676 0.0
C74 C 0.00191 0.65075 0.17892 0.0
C75 C 0.05836 0.65896 0.18565 0.0
C76 C 0.11295 0.71026 0.17974 0.0
C77 C 0.1105 0.75285 0.16732 0.0
C78 C 0.9429 0.59566 0.1845 0.0
C79 C 0.17391 0.7199 0.1865 0.0
C80 C 0.03548 0.60455 0.28281 0.0
C81 C 0.04147 0.56118 0.2935 0.0
C82 C 0.05355 0.52004 0.28372 0.0
C83 C 0.05927 0.5214 0.2626 0.0
C84 C 0.06955 0.47929 0.25224 0.0
C85 C 0.07312 0.47968 0.2314 0.0
C86 C 0.06833 0.5233 0.22016 0.0
C87 C 0.07154 0.52379 0.19895 0.0
C88 C 0.06825 0.56854 0.18824 0.0
C89 C 0.06061 0.61264 0.19813 0.0
C90 C 0.05533 0.61195 0.21932 0.0
C91 C 0.04579 0.65458 0.22973 0.0
C92 C 0.0391 0.65228 0.25055 0.0
C93 C 0.04289 0.60803 0.26173 0.0
C94 C 0.05413 0.5657 0.25158 0.0
C95 C 0.05952 0.56716 0.23035 0.0
C96 C 0.05949 0.24275 0.18231 0.0
C97 C 0.0398 0.26829 0.16499 0.0
O98 O 0.96777 0.72289 0.33938 0.0
O99 O 0.04965 0.78659 0.14951 0.0
O100 O 0.08247 0.32905 0.1629 0.0
O101 O 0.07173 0.34158 0.32727 0.0
H102 H 0.04063 0.74327 0.35833 0.0
H103 H 0.95786 0.64645 0.36832 0.0
H104 H 0.90985 0.67762 0.37323 0.0
H105 H 0.97771 0.7014 0.38847 0.0
H106 H 0.08163 0.76303 0.3278 0.0
H107 H 0.89358 0.63641 0.31538 0.0
H108 H 0.14314 0.68642 0.3076 0.0
H109 H 0.15983 0.76377 0.30891 0.0
H110 H 0.13936 0.72244 0.28513 0.0
H111 H 0.86134 0.56202 0.28936 0.0
H112 H 0.90796 0.52769 0.29094 0.0
H113 H 0.91501 0.57385 0.26995 0.0
H114 H 0.14471 0.38406 0.34669 0.0
H115 H 0.20413 0.34339 0.32894 0.0
H116 H 0.18496 0.38597 0.31225 0.0
H117 H 0.14297 0.30471 0.31062 0.0
H118 H 0.97587 0.32677 0.30944 0.0
H119 H 0.1611 0.45827 0.32436 0.0
H120 H 0.93372 0.43202 0.29203 0.0
H121 H 0.91093 0.35278 0.29238 0.0
H122 H 0.95132 0.39845 0.27131 0.0
H123 H 0.20935 0.55693 0.31223 0.0
H124 H 0.15827 0.58627 0.31153 0.0
H125 H 0.17915 0.565 0.28852 0.0
H126 H 0.9949 0.26161 0.16904 0.0
H127 H 0.98195 0.33762 0.16532 0.0
H128 H 0.17504 0.43002 0.1747 0.0
H129 H 0.95167 0.42583 0.19822 0.0
H130 H 0.9219 0.37686 0.17619 0.0
H131 H 0.96026 0.45799 0.17385 0.0
H132 H 0.23019 0.53171 0.18677 0.0
H133 H 0.19135 0.53666 0.20857 0.0
H134 H 0.19238 0.57532 0.18617 0.0
H135 H 0.13369 0.8389 0.13766 0.0
H136 H 0.15471 0.933 0.15732 0.0
H137 H 0.13947 0.87225 0.1738 0.0
H138 H 0.08157 0.89099 0.16895 0.0
H139 H 0.95778 0.68908 0.16167 0.0
H140 H 0.15256 0.79146 0.16269 0.0
H141 H 0.93803 0.59469 0.20109 0.0
H142 H 0.94309 0.55396 0.17981 0.0
H143 H 0.90293 0.5949 0.1774 0.0
H144 H 0.21207 0.76428 0.18183 0.0
H145 H 0.18038 0.68343 0.17999 0.0
H146 H 0.17561 0.71727 0.20314 0.0
H147 H 0.0358 0.55885 0.3097 0.0
H148 H 0.07417 0.44499 0.26008 0.0
H149 H 0.08003 0.44546 0.22425 0.0
H150 H 0.07103 0.56867 0.17195 0.0
H151 H 0.04267 0.68971 0.22187 0.0
H152 H 0.03112 0.68568 0.25781 0.0
H153 H 0.02657 0.19366 0.18388 0.0
H154 H 0.06099 0.26637 0.19664 0.0
H155 H 0.10533 0.24926 0.17978 0.0
C156 C 0.21977 0.92559 0.64751 0.0
C157 C 0.26007 0.96882 0.66458 0.0
C158 C 0.3569 0.02657 0.64681 0.0
C159 C 0.39487 0.08207 0.63797 0.0
C160 C 0.44497 0.0914 0.62678 0.0
C161 C 0.4569 0.04345 0.62417 0.0
C162 C 0.41944 0.9874 0.63342 0.0
C163 C 0.37009 0.97965 0.64484 0.0
C164 C 0.48486 0.15243 0.61763 0.0
C165 C 0.43127 0.93556 0.63108 0.0
C166 C 0.93716 0.15057 0.62484 0.0
C167 C 0.87533 0.10804 0.63384 0.0
C168 C 0.78854 0.12395 0.63455 0.0
C169 C 0.74298 0.06302 0.63184 0.0
C170 C 0.68436 0.04774 0.62541 0.0
C171 C 0.67117 0.09429 0.62186 0.0
C172 C 0.71542 0.15522 0.62634 0.0
C173 C 0.7737 0.16923 0.63271 0.0
C174 C 0.63742 0.98215 0.6214 0.0
C175 C 0.70221 0.20575 0.62322 0.0
C176 C 0.7758 0.15271 0.49527 0.0
C177 C 0.74135 0.09114 0.49989 0.0
C178 C 0.68452 0.06776 0.50883 0.0
C179 C 0.66229 0.10705 0.5135 0.0
C180 C 0.69559 0.16846 0.50789 0.0
C181 C 0.75169 0.19028 0.49856 0.0
C182 C 0.64918 0.00158 0.51389 0.0
C183 C 0.67294 0.21151 0.5124 0.0
C184 C 0.20859 0.98753 0.51397 0.0
C185 C 0.24054 0.01864 0.49461 0.0
C186 C 0.33303 0.01271 0.49658 0.0
C187 C 0.34904 0.96811 0.49784 0.0
C188 C 0.40372 0.98042 0.50722 0.0
C189 C 0.44363 0.0392 0.51514 0.0
C190 C 0.42924 0.08543 0.51294 0.0
C191 C 0.37405 0.07172 0.50368 0.0
C192 C 0.41821 0.93038 0.50913 0.0
C193 C 0.47187 0.14915 0.52063 0.0
C194 C 0.50863 0.05233 0.61174 0.0
C195 C 0.56304 0.06659 0.62162 0.0
C196 C 0.61475 0.08011 0.61076 0.0
C197 C 0.61293 0.08068 0.58949 0.0
C198 C 0.66505 0.09687 0.57818 0.0
C199 C 0.66327 0.09874 0.55732 0.0
C200 C 0.60899 0.08318 0.54686 0.0
C201 C 0.60685 0.08534 0.52562 0.0
C202 C 0.55213 0.06943 0.5157 0.0
C203 C 0.49929 0.05201 0.52647 0.0
C204 C 0.50058 0.05 0.54773 0.0
C205 C 0.44831 0.03323 0.55903 0.0
C206 C 0.45064 0.03349 0.57998 0.0
C207 C 0.5052 0.05006 0.59043 0.0
C208 C 0.55787 0.06523 0.5793 0.0
C209 C 0.55572 0.06576 0.55794 0.0
C210 C 0.93629 0.21863 0.49805 0.0
C211 C 0.8749 0.16127 0.49398 0.0
O212 O 0.30827 0.02073 0.65691 0.0
O213 O 0.278 0.9972 0.48835 0.0
O214 O 0.83285 0.17742 0.4881 0.0
O215 O 0.84735 0.14097 0.63847 0.0
H216 H 0.2779 0.94556 0.67409 0.0
H217 H 0.24511 0.90949 0.63838 0.0
H218 H 0.20312 0.94849 0.63737 0.0
H219 H 0.18011 0.88522 0.65385 0.0
H220 H 0.3847 0.11817 0.63975 0.0
H221 H 0.34204 0.93687 0.65202 0.0
H222 H 0.53334 0.16878 0.62126 0.0
H223 H 0.47367 0.18685 0.62303 0.0
H224 H 0.47912 0.14821 0.601 0.0
H225 H 0.39534 0.89341 0.63791 0.0
H226 H 0.47551 0.94807 0.63839 0.0
H227 H 0.43426 0.92642 0.61488 0.0
H228 H 0.84884 0.07301 0.622 0.0
H229 H 0.96049 0.12525 0.62081 0.0
H230 H 0.96634 0.18779 0.63569 0.0
H231 H 0.93104 0.17076 0.61096 0.0
H232 H 0.75329 0.0274 0.63428 0.0
H233 H 0.80883 0.21599 0.63534 0.0
H234 H 0.59448 0.97088 0.62894 0.0
H235 H 0.65282 0.95103 0.6267 0.0
H236 H 0.62742 0.97433 0.60497 0.0
H237 H 0.73903 0.24975 0.62946 0.0
H238 H 0.65889 0.1948 0.63042 0.0
H239 H 0.69689 0.21057 0.60686 0.0
H240 H 0.86181 0.13777 0.50863 0.0
H241 H 0.75901 0.06145 0.49668 0.0
H242 H 0.77831 0.23752 0.49464 0.0
H243 H 0.64974 0.99686 0.53046 0.0
H244 H 0.66848 0.97555 0.50685 0.0
H245 H 0.60108 0.98145 0.50885 0.0
H246 H 0.70537 0.25842 0.50776 0.0
H247 H 0.66496 0.21211 0.52878 0.0
H248 H 0.62894 0.19568 0.50438 0.0
H249 H 0.26742 0.068 0.49794 0.0
H250 H 0.17727 0.00342 0.51871 0.0
H251 H 0.24273 -0.00113 0.52626 0.0
H252 H 0.1824 0.93757 0.5118 0.0
H253 H 0.31756 0.92299 0.49199 0.0
H254 H 0.36385 0.10756 0.50191 0.0
H255 H 0.42338 0.92297 0.52528 0.0
H256 H 0.46208 0.94381 0.50187 0.0
H257 H 0.38245 0.88709 0.50212 0.0
H258 H 0.4562 0.18096 0.51643 0.0
H259 H 0.51788 0.1659 0.51457 0.0
H260 H 0.47579 0.14934 0.53729 0.0
H261 H 0.5654 0.06794 0.63794 0.0
H262 H 0.70817 0.10906 0.58531 0.0
H263 H 0.70511 0.11248 0.54952 0.0
H264 H 0.5509 0.07177 0.49942 0.0
H265 H 0.40507 0.02018 0.55183 0.0
H266 H 0.40912 0.02058 0.58788 0.0
H267 H 0.95194 0.24735 0.48455 0.0
H268 H 0.97091 0.2066 0.50251 0.0
H269 H 0.93222 0.24551 0.51056 0.0
C270 C 0.74282 0.66807 0.76713 0.0
C271 C 0.73696 0.71278 0.78111 0.0
C272 C 0.71419 0.68825 0.81632 0.0
C273 C 0.67339 0.70905 0.81923 0.0
C274 C 0.62962 0.68458 0.83422 0.0
C275 C 0.62662 0.6383 0.84643 0.0
C276 C 0.67043 0.62022 0.84436 0.0
C277 C 0.71437 0.64632 0.82947 0.0
C278 C 0.58496 0.70633 0.83645 0.0
C279 C 0.66893 0.57112 0.85711 0.0
C280 C 0.3419 0.31032 0.78632 0.0
C281 C 0.29155 0.28276 0.80193 0.0
C282 C 0.32981 0.3709 0.82505 0.0
C283 C 0.3771 0.36566 0.83392 0.0
C284 C 0.42185 0.41278 0.84597 0.0
C285 C 0.41928 0.46618 0.84919 0.0
C286 C 0.37066 0.47081 0.84086 0.0
C287 C 0.32616 0.42271 0.82901 0.0
C288 C 0.47281 0.4061 0.85484 0.0
C289 C 0.36656 0.52704 0.84413 0.0
C290 C 0.33105 0.39293 0.97734 0.0
C291 C 0.37456 0.38268 0.96816 0.0
C292 C 0.42424 0.4293 0.95842 0.0
C293 C 0.43008 0.4872 0.95745 0.0
C294 C 0.38738 0.49823 0.96706 0.0
C295 C 0.33858 0.45092 0.97703 0.0
C296 C 0.46961 0.41603 0.9487 0.0
C297 C 0.39245 0.55947 0.96634 0.0
C298 C 0.91672 0.84673 0.96575 0.0
C299 C 0.85386 0.8315 0.97284 0.0
C300 C 0.76013 0.73342 0.97022 0.0
C301 C 0.73943 0.67221 0.96658 0.0
C302 C 0.68066 0.63329 0.95895 0.0
C303 C 0.64148 0.65633 0.95524 0.0
C304 C 0.66061 0.71726 0.96034 0.0
C305 C 0.71995 0.75537 0.96778 0.0
C306 C 0.66117 0.56807 0.95422 0.0
C307 C 0.61911 0.74251 0.9572 0.0
C308 C 0.57301 0.60297 0.85915 0.0
C309 C 0.52047 0.55758 0.84948 0.0
C310 C 0.46952 0.51817 0.86034 0.0
C311 C 0.46993 0.5248 0.88146 0.0
C312 C 0.41915 0.48612 0.89279 0.0
C313 C 0.42127 0.49063 0.91369 0.0
C314 C 0.47462 0.53332 0.92405 0.0
C315 C 0.47892 0.5347 0.94531 0.0
C316 C 0.5328 0.5772 0.95515 0.0
C317 C 0.58314 0.6181 0.94425 0.0
C318 C 0.57969 0.61754 0.92297 0.0
C319 C 0.62971 0.65784 0.91154 0.0
C320 C 0.62708 0.6544 0.8906 0.0
C321 C 0.57475 0.60991 0.88033 0.0
C322 C 0.52309 0.5703 0.89152 0.0
C323 C 0.52548 0.57437 0.91286 0.0
C324 C 0.23123 0.25916 0.96525 0.0
C325 C 0.26067 0.28687 0.98584 0.0
O326 O 0.75253 0.7064 0.80061 0.0
O327 O 0.81925 0.76978 0.97573 0.0
O328 O 0.28105 0.34842 0.98638 0.0
O329 O 0.28745 0.32777 0.81239 0.0
H330 H 0.68841 0.70008 0.78002 0.0
H331 H 0.71057 0.621 0.77167 0.0
H332 H 0.78944 0.67511 0.76789 0.0
H333 H 0.73178 0.67335 0.75134 0.0
H334 H 0.675 0.74351 0.80954 0.0
H335 H 0.74696 0.63155 0.82729 0.0
H336 H 0.54 0.67115 0.83028 0.0
H337 H 0.59937 0.749 0.82831 0.0
H338 H 0.57938 0.71374 0.8526 0.0
H339 H 0.70431 0.56016 0.85286 0.0
H340 H 0.62381 0.52931 0.85562 0.0
H341 H 0.6761 0.5857 0.87318 0.0
H342 H 0.30155 0.2559 0.81271 0.0
H343 H 0.34331 0.27392 0.77748 0.0
H344 H 0.38694 0.33844 0.79381 0.0
H345 H 0.33405 0.33928 0.77584 0.0
H346 H 0.37987 0.32534 0.83136 0.0
H347 H 0.28916 0.42607 0.82226 0.0
H348 H 0.47723 0.41594 0.87129 0.0
H349 H 0.51625 0.43937 0.84797 0.0
H350 H 0.46576 0.36 0.85225 0.0
H351 H 0.32502 0.52299 0.83704 0.0
H352 H 0.40695 0.56652 0.83775 0.0
H353 H 0.36671 0.53627 0.86051 0.0
H354 H 0.29955 0.27976 0.98862 0.0
H355 H 0.37014 0.33844 0.96826 0.0
H356 H 0.30512 0.45863 0.98423 0.0
H357 H 0.46312 0.41365 0.93211 0.0
H358 H 0.46446 0.37241 0.95364 0.0
H359 H 0.51665 0.45277 0.95229 0.0
H360 H 0.35497 0.56052 0.97432 0.0
H361 H 0.39197 0.572 0.95043 0.0
H362 H 0.43636 0.59421 0.9733 0.0
H363 H 0.83368 0.84521 0.9605 0.0
H364 H 0.94531 0.89611 0.96324 0.0
H365 H 0.9123 0.82231 0.95131 0.0
H366 H 0.93984 0.83308 0.97699 0.0
H367 H 0.77047 0.65555 0.96897 0.0
H368 H 0.7349 0.80225 0.97143 0.0
H369 H 0.64793 0.55752 0.93806 0.0
H370 H 0.62083 0.53801 0.96317 0.0
H371 H 0.69755 0.55759 0.95763 0.0
H372 H 0.63825 0.78871 0.96391 0.0
H373 H 0.5743 0.71225 0.96392 0.0
H374 H 0.61141 0.74447 0.94082 0.0
H375 H 0.52009 0.55121 0.83328 0.0
H376 H 0.37737 0.45155 0.88563 0.0
H377 H 0.38088 0.45937 0.92162 0.0
H378 H 0.5365 0.57665 0.97142 0.0
H379 H 0.67175 0.69212 0.91863 0.0
H380 H 0.667 0.68618 0.88256 0.0
H381 H 0.19263 0.26654 0.96209 0.0
H382 H 0.21435 0.20975 0.96488 0.0
H383 H 0.2647 0.28009 0.95313 0.0
C384 C 0.08353 0.20637 0.1197 0.0
C385 C 0.02718 0.16398 0.11092 0.0
C386 C 0.08713 0.24119 0.1366 0.0
C387 C 0.03446 0.23461 0.14549 0.0
H388 H 0.12525 0.21147 0.11383 0.0
H389 H 0.13146 0.27219 0.14315 0.0
S390 S 0.87591 0.13231 0.12754 0.0
N391 N 0.91762 0.11954 0.11163 0.0
N392 N 0.92427 0.18458 0.14365 0.0
C393 C 0.97785 0.19404 0.13639 0.0
C394 C 0.97424 0.15894 0.119 0.0
C395 C 0.9075 0.10977 0.44365 0.0
C396 C 0.90241 0.05386 0.44817 0.0
C397 C 0.89586 0.14267 0.45816 0.0
C398 C 0.8801 0.12161 0.47789 0.0
H399 H 0.92181 0.12888 0.4289 0.0
H400 H 0.9012 0.18592 0.45412 0.0
S401 S 0.85821 0.97665 0.4972 0.0
N402 N 0.87746 0.97743 0.47353 0.0
N403 N 0.85742 0.04012 0.50092 0.0
C404 C 0.87297 0.06488 0.48242 0.0
C405 C 0.88364 0.03081 0.46754 0.0
C406 C 0.87949 0.8604 0.76742 0.0
C407 C 0.85619 0.89517 0.75925 0.0
C408 C 0.84103 0.80286 0.77503 0.0
C409 C 0.77761 0.77728 0.77446 0.0
H410 H 0.92794 0.8776 0.76785 0.0
H411 H 0.86102 0.7776 0.78103 0.0
S412 S 0.69358 0.85023 0.75522 0.0
N413 N 0.76565 0.90065 0.75169 0.0
N414 N 0.69325 0.79191 0.76566 0.0
C415 C 0.75371 0.81204 0.76676 0.0
C416 C 0.79298 0.87108 0.75924 0.0
C417 C 0.09264 0.9314 0.09848 0.0
C418 C 0.03754 0.93076 0.10051 0.0
C419 C 0.10969 0.90076 0.11197 0.0
C420 C 0.07196 0.8677 0.12784 0.0
H421 H 0.12438 0.95826 0.08703 0.0
H422 H 0.15379 0.90486 0.11041 0.0
S423 S 0.92018 0.84682 0.13853 0.0
N424 N 0.94302 0.89033 0.11867 0.0
N425 N 0.9753 0.83324 0.14409 0.0
C426 C 0.01535 0.86423 0.12942 0.0
C427 C 0.998 0.89541 0.1157 0.0
C428 C 0.1397 0.04572 0.45847 0.0
C429 C 0.10384 0.98906 0.44878 0.0
C430 C 0.18375 0.05473 0.47297 0.0
C431 C 0.19447 0.00777 0.47814 0.0
H432 H 0.13264 0.08312 0.45525 0.0
H433 H 0.20925 0.09879 0.48035 0.0
S434 S 0.11532 0.85178 0.45628 0.0
N435 N 0.08336 0.88577 0.44479 0.0
N436 N 0.16684 0.90296 0.47196 0.0
C437 C 0.15976 0.95115 0.46827 0.0
C438 C 0.11439 0.94178 0.4536 0.0
C439 C 0.15838 0.13896 0.77848 0.0
C440 C 0.12326 0.16006 0.769 0.0
C441 C 0.21143 0.17851 0.78944 0.0
C442 C 0.23155 0.24071 0.79128 0.0
H443 H 0.14492 0.09152 0.77739 0.0
H444 H 0.23745 0.16042 0.7963 0.0
S445 S 0.15838 0.3196 0.768 0.0
N446 N 0.11362 0.24771 0.76151 0.0
N447 N 0.21387 0.32207 0.78172 0.0
C448 C 0.19731 0.26256 0.78159 0.0
C449 C 0.14296 0.22222 0.77064 0.0
C450 C 0.91755 0.09146 0.6877 0.0
C451 C 0.91978 0.03767 0.68661 0.0
C452 C 0.90028 0.11228 0.67098 0.0
C453 C 0.8835 0.07961 0.65258 0.0
H454 H 0.93234 0.1196 0.70125 0.0
H455 H 0.90262 0.15564 0.67224 0.0
S456 S 0.87493 0.93266 0.64241 0.0
N457 N 0.89871 0.94946 0.66608 0.0
N458 N 0.86588 0.98866 0.63464 0.0
C459 C 0.88198 0.02396 0.65161 0.0
C460 C 0.89986 0.00279 0.66866 0.0
C461 C 0.87093 0.95807 0.00821 0.0
C462 C 0.88965 0.94493 0.02651 0.0
C463 C 0.85651 0.91965 0.9913 0.0
C464 C 0.85944 0.8663 0.99212 0.0
H465 H 0.87115 0.00021 0.00652 0.0
H466 H 0.84555 0.93315 0.97722 0.0
S467 S 0.8974 0.807 0.03724 0.0
N468 N 0.90394 0.87155 0.04505 0.0
N469 N 0.87685 0.79943 0.01325 0.0
C470 C 0.87406 0.85057 0.01069 0.0
C471 C 0.88897 0.88977 0.02789 0.0
C472 C 0.95099 0.85616 0.37349 0.0
C473 C 0.00715 0.90791 0.37823 0.0
C474 C 0.94763 0.80239 0.36684 0.0
C475 C 0.00022 0.79796 0.3652 0.0
H476 H 0.90934 0.85737 0.37471 0.0
H477 H 0.90346 0.76387 0.36304 0.0
S478 S 0.15831 0.92061 0.37639 0.0
N479 N 0.11653 0.95175 0.38098 0.0
N480 N 0.11022 0.85027 0.36895 0.0
C481 C 0.05671 0.84953 0.36997 0.0
C482 C 0.06017 0.90457 0.37641 0.0
C483 C 0.15753 0.96666 0.70663 0.0
C484 C 0.14178 0.00943 0.70047 0.0
C485 C 0.19698 0.95527 0.69534 0.0
C486 C 0.22229 0.98625 0.67748 0.0
H487 H 0.13837 0.94084 0.72007 0.0
H488 H 0.20676 0.921 0.70042 0.0
S489 S 0.19466 0.10194 0.65454 0.0
N490 N 0.15465 0.08294 0.67525 0.0
N491 N 0.22788 0.06092 0.65398 0.0
C492 C 0.2072 0.02948 0.67122 0.0
C493 C 0.16743 0.04138 0.68277 0.0
C494 C 0.12679 0.24115 0.02093 0.0
C495 C 0.12197 0.19048 0.03076 0.0
C496 C 0.17207 0.27272 0.00686 0.0
C497 C 0.21491 0.25543 0.00221 0.0
H498 H 0.09473 0.25614 0.02384 0.0
H499 H 0.17297 0.31044 -0.00066 0.0
S500 S 0.22197 0.12545 0.02317 0.0
N501 N 0.16423 0.12426 0.0345 0.0
N502 N 0.24888 0.18367 0.00806 0.0
C503 C 0.21076 0.20501 0.01188 0.0
C504 C 0.16469 0.17276 0.0262 0.0
C505 C 0.10358 0.24005 0.38055 0.0
C506 C 0.05886 0.18237 0.37334 0.0
C507 C 0.12293 0.29148 0.36879 0.0
C508 C 0.09829 0.28714 0.34938 0.0
H509 H 0.12403 0.2456 0.39537 0.0
H510 H 0.15769 0.33496 0.37488 0.0
S511 S 0.98235 0.14608 0.32304 0.0
N512 N 0.99176 0.12371 0.34528 0.0
N513 N 0.0286 0.22005 0.32315 0.0
C514 C 0.05408 0.22954 0.3419 0.0
C515 C 0.03409 0.17733 0.35391 0.0
loop_
_geom_bond_atom_site_label_1
_geom_bond_atom_site_label_2
_geom_bond_distance
_geom_bond_site_symmetry_2
_ccdc_geom_bond_type
Co0 O1 2.216 1_445 S
Co0 O2 2.091 1_545 S
Co0 O4 2.004 . S
Co0 O10 2.021 1_445 S
Co0 O12 2.137 . S
Co0 O13 2.244 1_455 S
O1 Co0 2.216 1_665 S
O1 C8 1.247 1_655 S
O2 Co0 2.091 1_565 S
O2 C8 1.261 . S
C3 O12 1.247 . S
C3 O13 1.272 1_455 S
O4 Co0 2.004 . S
O4 C9 1.259 . S
Co5 O6 2.061 1_655 S
Co5 O11 2.052 . S
Co5 O13 2.135 . S
O6 Co5 2.061 1_455 S
O6 C9 1.235 . S
C7 O10 1.238 . S
C7 O11 1.241 1_565 S
C8 O1 1.247 1_455 S
C8 O2 1.261 . S
C9 O4 1.259 . S
C9 O6 1.235 . S
O10 Co0 2.021 1_665 S
O10 C7 1.238 . S
O11 Co5 2.052 . S
O11 C7 1.241 1_545 S
O12 Co0 2.137 . S
O12 C3 1.247 . S
O13 Co0 2.244 1_655 S
O13 C3 1.272 1_655 S
O13 Co5 2.135 . S
Co14 O15 2.216 . S
Co14 O16 2.091 . S
Co14 O18 2.004 . S
Co14 O24 2.021 . S
Co14 O26 2.137 . S
Co14 O27 2.244 1_545 S
O15 Co14 2.216 . S
O15 C22 1.247 . S
O16 Co14 2.091 . S
O16 C22 1.261 . S
C17 O26 1.247 1_565 S
C17 O27 1.272 . S
O18 Co14 2.004 . S
O18 C23 1.259 . S
Co19 O20 2.061 1_565 S
Co19 O25 2.052 1_455 S
Co19 O27 2.135 . S
O20 Co19 2.061 1_545 S
O20 C23 1.235 . S
C21 O24 1.238 1_655 S
C21 O25 1.241 1_545 S
C22 O15 1.247 . S
C22 O16 1.261 . S
C23 O18 1.259 . S
C23 O20 1.235 . S
O24 Co14 2.021 . S
O24 C21 1.238 1_455 S
O25 Co19 2.052 1_655 S
O25 C21 1.241 1_565 S
O26 Co14 2.137 . S
O26 C17 1.247 1_545 S
O27 Co14 2.244 1_565 S
O27 C17 1.272 . S
O27 Co19 2.135 . S
Co28 O29 2.216 . S
Co28 O30 2.091 1_545 S
Co28 O32 2.004 1_445 S
Co28 O38 2.021 . S
Co28 O40 2.137 1_455 S
Co28 O41 2.244 1_455 S
O29 Co28 2.216 . S
O29 C36 1.247 . S
O30 Co28 2.091 1_565 S
O30 C36 1.261 1_565 S
C31 O40 1.247 . S
C31 O41 1.272 . S
O32 Co28 2.004 1_665 S
O32 C37 1.259 . S
Co33 O34 2.061 . S
Co33 O39 2.052 1_655 S
Co33 O41 2.135 . S
O34 Co33 2.061 . S
O34 C37 1.235 1_545 S
C35 O38 1.238 . S
C35 O39 1.241 . S
C36 O29 1.247 . S
C36 O30 1.261 1_545 S
C37 O32 1.259 . S
C37 O34 1.235 1_565 S
O38 Co28 2.021 . S
O38 C35 1.238 . S
O39 Co33 2.052 1_455 S
O39 C35 1.241 . S
O40 Co28 2.137 1_655 S
O40 C31 1.247 . S
O41 Co28 2.244 1_655 S
O41 C31 1.272 . S
O41 Co33 2.135 . S
C42 C43 1.560 1_655 S
C42 H103 0.959 . S
C42 H104 0.959 . S
C42 H105 0.960 . S
C43 C42 1.560 1_455 S
C43 O98 1.426 1_455 S
C43 H102 0.980 . S
C44 C45 1.407 . S
C44 C49 1.418 1_455 S
C44 O98 1.334 1_455 S
C45 C44 1.407 . S
C45 C46 1.360 . S
C45 H106 0.929 . S
C46 C45 1.360 . S
C46 C47 1.401 . S
C46 C50 1.527 . S
C47 C46 1.401 . S
C47 C48 1.405 1_455 S
C47 C80 1.587 . S
C48 C47 1.405 1_655 S
C48 C49 1.332 . S
C48 C51 1.496 . S
C49 C44 1.418 1_655 S
C49 C48 1.332 . S
C49 H107 0.929 . S
C50 C46 1.527 . S
C50 H108 0.959 . S
C50 H109 0.961 . S
C50 H110 0.961 . S
C51 C48 1.496 . S
C51 H111 0.960 . S
C51 H112 0.960 . S
C51 H113 0.961 . S
C52 C53 1.517 . S
C52 H115 0.961 . S
C52 H116 0.960 . S
C52 H117 0.959 . S
C53 C52 1.517 . S
C53 O101 1.468 . S
C53 H114 0.980 . S
C54 C55 1.349 . S
C54 C59 1.367 . S
C54 O101 1.408 . S
C55 C54 1.349 . S
C55 C56 1.407 . S
C55 H118 0.930 . S
C56 C55 1.407 . S
C56 C57 1.449 . S
C56 C60 1.535 1_455 S
C57 C56 1.449 . S
C57 C58 1.384 . S
C57 C82 1.553 . S
C58 C57 1.384 . S
C58 C59 1.364 . S
C58 C61 1.450 . S
C59 C54 1.367 . S
C59 C58 1.364 . S
C59 H119 0.931 . S
C60 C56 1.535 1_655 S
C60 H120 0.959 . S
C60 H121 0.961 . S
C60 H122 0.959 . S
C61 C58 1.450 . S
C61 H123 0.960 . S
C61 H124 0.960 . S
C61 H125 0.960 . S
C62 C63 1.309 . S
C62 C67 1.304 . S
C62 O100 1.435 . S
C63 C62 1.309 . S
C63 C64 1.476 . S
C63 H127 0.930 1_455 S
C64 C63 1.476 . S
C64 C65 1.400 . S
C64 C68 1.567 1_455 S
C65 C64 1.400 . S
C65 C66 1.373 . S
C65 C87 1.432 . S
C66 C65 1.373 . S
C66 C67 1.339 . S
C66 C69 1.530 . S
C67 C62 1.304 . S
C67 C66 1.339 . S
C67 H128 0.930 . S
C68 C64 1.567 1_655 S
C68 H129 0.961 . S
C68 H130 0.960 . S
C68 H131 0.958 . S
C69 C66 1.530 . S
C69 H132 0.961 . S
C69 H133 0.960 . S
C69 H134 0.960 . S
C70 C71 1.530 1_655 S
C70 H136 0.961 . S
C70 H137 0.961 . S
C70 H138 0.959 . S
C71 C70 1.530 1_455 S
C71 O99 1.412 1_455 S
C71 H135 0.980 . S
C72 C73 1.288 . S
C72 C77 1.377 1_655 S
C72 O99 1.393 . S
C73 C72 1.288 . S
C73 C74 1.369 . S
C73 H139 0.932 . S
C74 C73 1.369 . S
C74 C75 1.398 1_655 S
C74 C78 1.527 . S
C75 C74 1.398 1_455 S
C75 C76 1.380 . S
C75 C89 1.497 . S
C76 C75 1.380 . S
C76 C77 1.383 . S
C76 C79 1.603 . S
C77 C72 1.377 1_455 S
C77 C76 1.383 . S
C77 H140 0.929 . S
C78 C74 1.527 . S
C78 H141 0.961 . S
C78 H142 0.959 . S
C78 H143 0.959 . S
C79 C76 1.603 . S
C79 H144 0.960 . S
C79 H145 0.962 . S
C79 H146 0.961 . S
C80 C47 1.587 . S
C80 C81 1.360 . S
C80 C93 1.412 . S
C81 C80 1.360 . S
C81 C82 1.365 . S
C81 H147 0.929 . S
C82 C57 1.553 . S
C82 C81 1.365 . S
C82 C83 1.404 . S
C83 C82 1.404 . S
C83 C84 1.395 . S
C83 C94 1.451 . S
C84 C83 1.395 . S
C84 C85 1.322 . S
C84 H148 0.930 . S
C85 C84 1.322 . S
C85 C86 1.459 . S
C85 H149 0.929 . S
C86 C85 1.459 . S
C86 C87 1.445 . S
C86 C95 1.395 . S
C87 C65 1.432 . S
C87 C86 1.445 . S
C87 C88 1.370 . S
C88 C87 1.370 . S
C88 C89 1.438 . S
C88 H150 0.930 . S
C89 C75 1.497 . S
C89 C88 1.438 . S
C89 C90 1.360 . S
C90 C89 1.360 . S
C90 C91 1.401 . S
C90 C95 1.446 . S
C91 C90 1.401 . S
C91 C92 1.347 . S
C91 H151 0.929 . S
C92 C91 1.347 . S
C92 C93 1.455 . S
C92 H152 0.930 . S
C93 C80 1.412 . S
C93 C92 1.455 . S
C93 C94 1.331 . S
C94 C83 1.451 . S
C94 C93 1.331 . S
C94 C95 1.497 . S
C95 C86 1.395 . S
C95 C90 1.446 . S
C95 C94 1.497 . S
C96 C97 1.582 . S
C96 H153 0.962 . S
C96 H154 0.959 . S
C96 H155 0.958 . S
C97 C96 1.582 . S
C97 O100 1.458 . S
C97 H126 0.980 . S
O98 C43 1.426 1_655 S
O98 C44 1.334 1_655 S
O99 C71 1.412 1_655 S
O99 C72 1.393 . S
O100 C62 1.435 . S
O100 C97 1.458 . S
O101 C53 1.468 . S
O101 C54 1.408 . S
H102 C43 0.980 . S
H103 C42 0.959 . S
H104 C42 0.959 . S
H105 C42 0.960 . S
H106 C45 0.929 . S
H107 C49 0.929 . S
H108 C50 0.959 . S
H109 C50 0.961 . S
H110 C50 0.961 . S
H111 C51 0.960 . S
H112 C51 0.960 . S
H113 C51 0.961 . S
H114 C53 0.980 . S
H115 C52 0.961 . S
H116 C52 0.960 . S
H117 C52 0.959 . S
H118 C55 0.930 . S
H119 C59 0.931 . S
H120 C60 0.959 . S
H121 C60 0.961 . S
H122 C60 0.959 . S
H123 C61 0.960 . S
H124 C61 0.960 . S
H125 C61 0.960 . S
H126 C97 0.980 . S
H127 C63 0.930 1_655 S
H128 C67 0.930 . S
H129 C68 0.961 . S
H130 C68 0.960 . S
H131 C68 0.958 . S
H132 C69 0.961 . S
H133 C69 0.960 . S
H134 C69 0.960 . S
H135 C71 0.980 . S
H136 C70 0.961 . S
H137 C70 0.961 . S
H138 C70 0.959 . S
H139 C73 0.932 . S
H140 C77 0.929 . S
H141 C78 0.961 . S
H142 C78 0.959 . S
H143 C78 0.959 . S
H144 C79 0.960 . S
H145 C79 0.962 . S
H146 C79 0.961 . S
H147 C81 0.929 . S
H148 C84 0.930 . S
H149 C85 0.929 . S
H150 C88 0.930 . S
H151 C91 0.929 . S
H152 C92 0.930 . S
H153 C96 0.962 . S
H154 C96 0.959 . S
H155 C96 0.958 . S
C156 C157 1.560 1_565 S
C156 H217 0.959 . S
C156 H218 0.959 . S
C156 H219 0.960 . S
C157 C156 1.560 1_545 S
C157 O212 1.426 1_545 S
C157 H216 0.980 . S
C158 C159 1.407 . S
C158 C163 1.418 1_545 S
C158 O212 1.334 1_545 S
C159 C158 1.407 . S
C159 C160 1.360 . S
C159 H220 0.929 . S
C160 C159 1.360 . S
C160 C161 1.401 . S
C160 C164 1.527 . S
C161 C160 1.401 . S
C161 C162 1.405 1_545 S
C161 C194 1.587 . S
C162 C161 1.405 1_565 S
C162 C163 1.332 . S
C162 C165 1.496 . S
C163 C158 1.418 1_565 S
C163 C162 1.332 . S
C163 H221 0.929 . S
C164 C160 1.527 . S
C164 H222 0.959 . S
C164 H223 0.961 . S
C164 H224 0.961 . S
C165 C162 1.496 . S
C165 H225 0.960 . S
C165 H226 0.960 . S
C165 H227 0.961 . S
C166 C167 1.517 . S
C166 H229 0.961 . S
C166 H230 0.960 . S
C166 H231 0.959 . S
C167 C166 1.517 . S
C167 O215 1.468 . S
C167 H228 0.980 . S
C168 C169 1.349 . S
C168 C173 1.367 . S
C168 O215 1.408 . S
C169 C168 1.349 . S
C169 C170 1.407 . S
C169 H232 0.930 . S
C170 C169 1.407 . S
C170 C171 1.449 . S
C170 C174 1.535 1_545 S
C171 C170 1.449 . S
C171 C172 1.384 . S
C171 C196 1.553 . S
C172 C171 1.384 . S
C172 C173 1.364 . S
C172 C175 1.450 . S
C173 C168 1.367 . S
C173 C172 1.364 . S
C173 H233 0.931 . S
C174 C170 1.535 1_565 S
C174 H234 0.959 . S
C174 H235 0.961 . S
C174 H236 0.959 . S
C175 C172 1.450 . S
C175 H237 0.960 . S
C175 H238 0.960 . S
C175 H239 0.960 . S
C176 C177 1.309 . S
C176 C181 1.304 . S
C176 O214 1.435 . S
C177 C176 1.309 . S
C177 C178 1.476 . S
C177 H241 0.930 . S
C178 C177 1.476 . S
C178 C179 1.400 . S
C178 C182 1.567 1_545 S
C179 C178 1.400 . S
C179 C180 1.373 . S
C179 C201 1.432 . S
C180 C179 1.373 . S
C180 C181 1.339 . S
C180 C183 1.530 . S
C181 C176 1.304 . S
C181 C180 1.339 . S
C181 H242 0.930 . S
C182 C178 1.567 1_565 S
C182 H243 0.961 . S
C182 H244 0.960 . S
C182 H245 0.958 . S
C183 C180 1.530 . S
C183 H246 0.961 . S
C183 H247 0.960 . S
C183 H248 0.960 . S
C184 C185 1.530 . S
C184 H250 0.961 . S
C184 H251 0.961 1_545 S
C184 H252 0.959 1_545 S
C185 C184 1.530 . S
C185 O213 1.412 . S
C185 H249 0.980 . S
C186 C187 1.288 1_545 S
C186 C191 1.377 . S
C186 O213 1.393 . S
C187 C186 1.288 1_565 S
C187 C188 1.369 . S
C187 H253 0.932 . S
C188 C187 1.369 . S
C188 C189 1.398 1_565 S
C188 C192 1.527 . S
C189 C188 1.398 1_545 S
C189 C190 1.380 . S
C189 C203 1.497 . S
C190 C189 1.380 . S
C190 C191 1.383 . S
C190 C193 1.603 . S
C191 C186 1.377 . S
C191 C190 1.383 . S
C191 H254 0.929 . S
C192 C188 1.527 . S
C192 H255 0.961 . S
C192 H256 0.959 . S
C192 H257 0.959 . S
C193 C190 1.603 . S
C193 H258 0.960 . S
C193 H259 0.962 . S
C193 H260 0.961 . S
C194 C161 1.587 . S
C194 C195 1.360 . S
C194 C207 1.412 . S
C195 C194 1.360 . S
C195 C196 1.365 . S
C195 H261 0.929 . S
C196 C171 1.553 . S
C196 C195 1.365 . S
C196 C197 1.404 . S
C197 C196 1.404 . S
C197 C198 1.395 . S
C197 C208 1.451 . S
C198 C197 1.395 . S
C198 C199 1.322 . S
C198 H262 0.930 . S
C199 C198 1.322 . S
C199 C200 1.459 . S
C199 H263 0.929 . S
C200 C199 1.459 . S
C200 C201 1.445 . S
C200 C209 1.395 . S
C201 C179 1.432 . S
C201 C200 1.445 . S
C201 C202 1.370 . S
C202 C201 1.370 . S
C202 C203 1.438 . S
C202 H264 0.930 . S
C203 C189 1.497 . S
C203 C202 1.438 . S
C203 C204 1.360 . S
C204 C203 1.360 . S
C204 C205 1.401 . S
C204 C209 1.446 . S
C205 C204 1.401 . S
C205 C206 1.347 . S
C205 H265 0.929 . S
C206 C205 1.347 . S
C206 C207 1.455 . S
C206 H266 0.930 . S
C207 C194 1.412 . S
C207 C206 1.455 . S
C207 C208 1.331 . S
C208 C197 1.451 . S
C208 C207 1.331 . S
C208 C209 1.497 . S
C209 C200 1.395 . S
C209 C204 1.446 . S
C209 C208 1.497 . S
C210 C211 1.582 . S
C210 H267 0.962 . S
C210 H268 0.959 . S
C210 H269 0.958 . S
C211 C210 1.582 . S
C211 O214 1.458 . S
C211 H240 0.980 . S
O212 C157 1.426 1_565 S
O212 C158 1.334 1_565 S
O213 C185 1.412 . S
O213 C186 1.393 . S
O214 C176 1.435 . S
O214 C211 1.458 . S
O215 C167 1.468 . S
O215 C168 1.408 . S
H216 C157 0.980 . S
H217 C156 0.959 . S
H218 C156 0.959 . S
H219 C156 0.960 . S
H220 C159 0.929 . S
H221 C163 0.929 . S
H222 C164 0.959 . S
H223 C164 0.961 . S
H224 C164 0.961 . S
H225 C165 0.960 . S
H226 C165 0.960 . S
H227 C165 0.961 . S
H228 C167 0.980 . S
H229 C166 0.961 . S
H230 C166 0.960 . S
H231 C166 0.959 . S
H232 C169 0.930 . S
H233 C173 0.931 . S
H234 C174 0.959 . S
H235 C174 0.961 . S
H236 C174 0.959 . S
H237 C175 0.960 . S
H238 C175 0.960 . S
H239 C175 0.960 . S
H240 C211 0.980 . S
H241 C177 0.930 . S
H242 C181 0.930 . S
H243 C182 0.961 . S
H244 C182 0.960 . S
H245 C182 0.958 . S
H246 C183 0.961 . S
H247 C183 0.960 . S
H248 C183 0.960 . S
H249 C185 0.980 . S
H250 C184 0.961 . S
H251 C184 0.961 1_565 S
H252 C184 0.959 1_565 S
H253 C187 0.932 . S
H254 C191 0.929 . S
H255 C192 0.961 . S
H256 C192 0.959 . S
H257 C192 0.959 . S
H258 C193 0.960 . S
H259 C193 0.962 . S
H260 C193 0.961 . S
H261 C195 0.929 . S
H262 C198 0.930 . S
H263 C199 0.929 . S
H264 C202 0.930 . S
H265 C205 0.929 . S
H266 C206 0.930 . S
H267 C210 0.962 . S
H268 C210 0.959 . S
H269 C210 0.958 . S
C270 C271 1.560 . S
C270 H331 0.959 . S
C270 H332 0.959 . S
C270 H333 0.960 . S
C271 C270 1.560 . S
C271 O326 1.426 . S
C271 H330 0.980 . S
C272 C273 1.407 . S
C272 C277 1.418 . S
C272 O326 1.334 . S
C273 C272 1.407 . S
C273 C274 1.360 . S
C273 H334 0.929 . S
C274 C273 1.360 . S
C274 C275 1.401 . S
C274 C278 1.527 . S
C275 C274 1.401 . S
C275 C276 1.405 . S
C275 C308 1.587 . S
C276 C275 1.405 . S
C276 C277 1.332 . S
C276 C279 1.496 . S
C277 C272 1.418 . S
C277 C276 1.332 . S
C277 H335 0.929 . S
C278 C274 1.527 . S
C278 H336 0.959 . S
C278 H337 0.961 . S
C278 H338 0.961 . S
C279 C276 1.496 . S
C279 H339 0.960 . S
C279 H340 0.960 . S
C279 H341 0.961 . S
C280 C281 1.517 . S
C280 H343 0.961 . S
C280 H344 0.960 . S
C280 H345 0.959 . S
C281 C280 1.517 . S
C281 O329 1.468 . S
C281 H342 0.980 . S
C282 C283 1.349 . S
C282 C287 1.367 . S
C282 O329 1.408 . S
C283 C282 1.349 . S
C283 C284 1.407 . S
C283 H346 0.930 . S
C284 C283 1.407 . S
C284 C285 1.449 . S
C284 C288 1.535 . S
C285 C284 1.449 . S
C285 C286 1.384 . S
C285 C310 1.553 . S
C286 C285 1.384 . S
C286 C287 1.364 . S
C286 C289 1.450 . S
C287 C282 1.367 . S
C287 C286 1.364 . S
C287 H347 0.931 . S
C288 C284 1.535 . S
C288 H348 0.959 . S
C288 H349 0.961 . S
C288 H350 0.959 . S
C289 C286 1.450 . S
C289 H351 0.960 . S
C289 H352 0.960 . S
C289 H353 0.960 . S
C290 C291 1.309 . S
C290 C295 1.304 . S
C290 O328 1.435 . S
C291 C290 1.309 . S
C291 C292 1.476 . S
C291 H355 0.930 . S
C292 C291 1.476 . S
C292 C293 1.400 . S
C292 C296 1.567 . S
C293 C292 1.400 . S
C293 C294 1.373 . S
C293 C315 1.432 . S
C294 C293 1.373 . S
C294 C295 1.339 . S
C294 C297 1.530 . S
C295 C290 1.304 . S
C295 C294 1.339 . S
C295 H356 0.930 . S
C296 C292 1.567 . S
C296 H357 0.961 . S
C296 H358 0.960 . S
C296 H359 0.958 . S
C297 C294 1.530 . S
C297 H360 0.961 . S
C297 H361 0.960 . S
C297 H362 0.960 . S
C298 C299 1.528 . S
C298 H364 0.962 1_556 S
C298 H365 0.956 . S
C298 H366 0.964 1_556 S
C299 C298 1.528 . S
C299 O327 1.412 . S
C299 H363 0.980 . S
C300 C301 1.288 . S
C300 C305 1.377 . S
C300 O327 1.393 . S
C301 C300 1.288 . S
C301 C302 1.369 . S
C301 H367 0.932 . S
C302 C301 1.369 . S
C302 C303 1.398 . S
C302 C306 1.527 . S
C303 C302 1.398 . S
C303 C304 1.380 . S
C303 C317 1.497 . S
C304 C303 1.380 . S
C304 C305 1.383 . S
C304 C307 1.603 . S
C305 C300 1.377 . S
C305 C304 1.383 . S
C305 H368 0.929 . S
C306 C302 1.527 . S
C306 H369 0.961 . S
C306 H370 0.959 . S
C306 H371 0.959 . S
C307 C304 1.603 . S
C307 H372 0.960 . S
C307 H373 0.962 . S
C307 H374 0.961 . S
C308 C275 1.587 . S
C308 C309 1.360 . S
C308 C321 1.412 . S
C309 C308 1.360 . S
C309 C310 1.365 . S
C309 H375 0.929 . S
C310 C285 1.553 . S
C310 C309 1.365 . S
C310 C311 1.404 . S
C311 C310 1.404 . S
C311 C312 1.395 . S
C311 C322 1.451 . S
C312 C311 1.395 . S
C312 C313 1.322 . S
C312 H376 0.930 . S
C313 C312 1.322 . S
C313 C314 1.459 . S
C313 H377 0.929 . S
C314 C313 1.459 . S
C314 C315 1.445 . S
C314 C323 1.395 . S
C315 C293 1.432 . S
C315 C314 1.445 . S
C315 C316 1.370 . S
C316 C315 1.370 . S
C316 C317 1.438 . S
C316 H378 0.930 . S
C317 C303 1.497 . S
C317 C316 1.438 . S
C317 C318 1.360 . S
C318 C317 1.360 . S
C318 C319 1.401 . S
C318 C323 1.446 . S
C319 C318 1.401 . S
C319 C320 1.347 . S
C319 H379 0.929 . S
C320 C319 1.347 . S
C320 C321 1.455 . S
C320 H380 0.930 . S
C321 C308 1.412 . S
C321 C320 1.455 . S
C321 C322 1.331 . S
C322 C311 1.451 . S
C322 C321 1.331 . S
C322 C323 1.497 . S
C323 C314 1.395 . S
C323 C318 1.446 . S
C323 C322 1.497 . S
C324 C325 1.582 . S
C324 H381 0.962 1_556 S
C324 H382 0.959 . S
C324 H383 0.958 1_556 S
C325 C324 1.582 . S
C325 O328 1.458 . S
C325 H354 0.980 . S
O326 C271 1.426 . S
O326 C272 1.334 . S
O327 C299 1.412 . S
O327 C300 1.393 . S
O328 C290 1.435 . S
O328 C325 1.458 . S
O329 C281 1.468 . S
O329 C282 1.408 . S
H330 C271 0.980 . S
H331 C270 0.959 . S
H332 C270 0.959 . S
H333 C270 0.960 . S
H334 C273 0.929 . S
H335 C277 0.929 . S
H336 C278 0.959 . S
H337 C278 0.961 . S
H338 C278 0.961 . S
H339 C279 0.960 . S
H340 C279 0.960 . S
H341 C279 0.961 . S
H342 C281 0.980 . S
H343 C280 0.961 . S
H344 C280 0.960 . S
H345 C280 0.959 . S
H346 C283 0.930 . S
H347 C287 0.931 . S
H348 C288 0.959 . S
H349 C288 0.961 . S
H350 C288 0.959 . S
H351 C289 0.960 . S
H352 C289 0.960 . S
H353 C289 0.960 . S
H354 C325 0.980 . S
H355 C291 0.930 . S
H356 C295 0.930 . S
H357 C296 0.961 . S
H358 C296 0.960 . S
H359 C296 0.958 . S
H360 C297 0.961 . S
H361 C297 0.960 . S
H362 C297 0.960 . S
H363 C299 0.980 . S
H364 C298 0.962 1_554 S
H365 C298 0.956 . S
H366 C298 0.964 1_554 S
H367 C301 0.932 . S
H368 C305 0.929 . S
H369 C306 0.961 . S
H370 C306 0.959 . S
H371 C306 0.959 . S
H372 C307 0.960 . S
H373 C307 0.962 . S
H374 C307 0.961 . S
H375 C309 0.929 . S
H376 C312 0.930 . S
H377 C313 0.929 . S
H378 C316 0.930 . S
H379 C319 0.929 . S
H380 C320 0.930 . S
H381 C324 0.962 1_554 S
H382 C324 0.959 . S
H383 C324 0.958 1_554 S
C384 C385 1.369 . S
C384 C386 1.419 . S
C384 H388 0.930 . S
C385 C384 1.369 . S
C385 C394 1.429 1_455 S
C386 C384 1.419 . S
C386 C387 1.363 . S
C386 H389 0.929 . S
C387 C386 1.363 . S
C387 C393 1.428 1_455 S
H388 C384 0.930 . S
H389 C386 0.929 . S
S390 N391 1.613 . S
S390 N392 1.610 . S
N391 S390 1.613 . S
N391 C394 1.350 . S
N392 S390 1.610 . S
N392 C393 1.351 . S
C393 C387 1.428 1_655 S
C393 N392 1.351 . S
C393 C394 1.434 . S
C394 C385 1.429 1_655 S
C394 N391 1.350 . S
C394 C393 1.434 . S
C395 C396 1.369 . S
C395 C397 1.419 . S
C395 H399 0.930 . S
C396 C395 1.369 . S
C396 C405 1.429 . S
C397 C395 1.419 . S
C397 C398 1.363 . S
C397 H400 0.929 . S
C398 C397 1.363 . S
C398 C404 1.428 . S
H399 C395 0.930 . S
H400 C397 0.929 . S
S401 N402 1.613 . S
S401 N403 1.610 . S
N402 S401 1.613 . S
N402 C405 1.350 . S
N403 S401 1.610 . S
N403 C404 1.351 . S
C404 C398 1.428 . S
C404 N403 1.351 . S
C404 C405 1.434 . S
C405 C396 1.429 . S
C405 N402 1.350 . S
C405 C404 1.434 . S
C406 C407 1.369 . S
C406 C408 1.419 . S
C406 H410 0.930 . S
C407 C406 1.369 . S
C407 C416 1.429 . S
C408 C406 1.419 . S
C408 C409 1.363 . S
C408 H411 0.929 . S
C409 C408 1.363 . S
C409 C415 1.428 . S
H410 C406 0.930 . S
H411 C408 0.929 . S
S412 N413 1.613 . S
S412 N414 1.610 . S
N413 S412 1.613 . S
N413 C416 1.350 . S
N414 S412 1.610 . S
N414 C415 1.351 . S
C415 C409 1.428 . S
C415 N414 1.351 . S
C415 C416 1.434 . S
C416 C407 1.429 . S
C416 N413 1.350 . S
C416 C415 1.434 . S
C417 C418 1.369 . S
C417 C419 1.419 . S
C417 H421 0.930 . S
C418 C417 1.369 . S
C418 C427 1.429 1_455 S
C419 C417 1.419 . S
C419 C420 1.363 . S
C419 H422 0.929 . S
C420 C419 1.363 . S
C420 C426 1.428 1_455 S
H421 C417 0.930 . S
H422 C419 0.929 . S
S423 N424 1.613 . S
S423 N425 1.610 . S
N424 S423 1.613 . S
N424 C427 1.350 . S
N425 S423 1.610 . S
N425 C426 1.351 . S
C426 C420 1.428 1_655 S
C426 N425 1.351 . S
C426 C427 1.434 . S
C427 C418 1.429 1_655 S
C427 N424 1.350 . S
C427 C426 1.434 . S
C428 C429 1.369 . S
C428 C430 1.419 . S
C428 H432 0.930 . S
C429 C428 1.369 . S
C429 C438 1.429 . S
C430 C428 1.419 . S
C430 C431 1.363 . S
C430 H433 0.929 . S
C431 C430 1.363 . S
C431 C437 1.428 . S
H432 C428 0.930 . S
H433 C430 0.929 . S
S434 N435 1.613 . S
S434 N436 1.610 . S
N435 S434 1.613 . S
N435 C438 1.350 . S
N436 S434 1.610 . S
N436 C437 1.351 . S
C437 C431 1.428 . S
C437 N436 1.351 . S
C437 C438 1.434 . S
C438 C429 1.429 . S
C438 N435 1.350 . S
C438 C437 1.434 . S
C439 C440 1.369 . S
C439 C441 1.419 . S
C439 H443 0.930 . S
C440 C439 1.369 . S
C440 C449 1.429 . S
C441 C439 1.419 . S
C441 C442 1.363 . S
C441 H444 0.929 . S
C442 C441 1.363 . S
C442 C448 1.428 . S
H443 C439 0.930 . S
H444 C441 0.929 . S
S445 N446 1.613 . S
S445 N447 1.610 . S
N446 S445 1.613 . S
N446 C449 1.350 . S
N447 S445 1.610 . S
N447 C448 1.351 . S
C448 C442 1.428 . S
C448 N447 1.351 . S
C448 C449 1.434 . S
C449 C440 1.429 . S
C449 N446 1.350 . S
C449 C448 1.434 . S
C450 C451 1.369 . S
C450 C452 1.419 . S
C450 H454 0.930 . S
C451 C450 1.369 . S
C451 C460 1.429 . S
C452 C450 1.419 . S
C452 C453 1.363 . S
C452 H455 0.929 . S
C453 C452 1.363 . S
C453 C459 1.428 . S
H454 C450 0.930 . S
H455 C452 0.929 . S
S456 N457 1.613 . S
S456 N458 1.610 . S
N457 S456 1.613 . S
N457 C460 1.350 1_565 S
N458 S456 1.610 . S
N458 C459 1.351 1_565 S
C459 C453 1.428 . S
C459 N458 1.351 1_545 S
C459 C460 1.434 . S
C460 C451 1.429 . S
C460 N457 1.350 1_545 S
C460 C459 1.434 . S
C461 C462 1.369 . S
C461 C463 1.419 . S
C461 H465 0.930 . S
C462 C461 1.369 . S
C462 C471 1.429 . S
C463 C461 1.419 . S
C463 C464 1.363 . S
C463 H466 0.929 1_554 S
C464 C463 1.363 . S
C464 C470 1.428 . S
H465 C461 0.930 . S
H466 C463 0.929 1_556 S
S467 N468 1.613 . S
S467 N469 1.610 . S
N468 S467 1.613 . S
N468 C471 1.350 . S
N469 S467 1.610 . S
N469 C470 1.351 . S
C470 C464 1.428 . S
C470 N469 1.351 . S
C470 C471 1.434 . S
C471 C462 1.429 . S
C471 N468 1.350 . S
C471 C470 1.434 . S
C472 C473 1.369 1_655 S
C472 C474 1.419 . S
C472 H476 0.930 . S
C473 C472 1.369 1_455 S
C473 C482 1.429 . S
C474 C472 1.419 . S
C474 C475 1.363 1_655 S
C474 H477 0.929 . S
C475 C474 1.363 1_455 S
C475 C481 1.428 . S
H476 C472 0.930 . S
H477 C474 0.929 . S
S478 N479 1.613 . S
S478 N480 1.610 . S
N479 S478 1.613 . S
N479 C482 1.350 . S
N480 S478 1.610 . S
N480 C481 1.351 . S
C481 C475 1.428 . S
C481 N480 1.351 . S
C481 C482 1.434 . S
C482 C473 1.429 . S
C482 N479 1.350 . S
C482 C481 1.434 . S
C483 C484 1.369 . S
C483 C485 1.419 . S
C483 H487 0.930 . S
C484 C483 1.369 . S
C484 C493 1.429 . S
C485 C483 1.419 . S
C485 C486 1.363 . S
C485 H488 0.929 . S
C486 C485 1.363 . S
C486 C492 1.428 . S
H487 C483 0.930 . S
H488 C485 0.929 . S
S489 N490 1.613 . S
S489 N491 1.610 . S
N490 S489 1.613 . S
N490 C493 1.350 . S
N491 S489 1.610 . S
N491 C492 1.351 . S
C492 C486 1.428 . S
C492 N491 1.351 . S
C492 C493 1.434 . S
C493 C484 1.429 . S
C493 N490 1.350 . S
C493 C492 1.434 . S
C494 C495 1.369 . S
C494 C496 1.419 . S
C494 H498 0.930 . S
C495 C494 1.369 . S
C495 C504 1.429 . S
C496 C494 1.419 . S
C496 C497 1.340 1_554 S
C496 H499 0.929 . S
C497 C496 1.340 1_556 S
C497 C503 1.434 . S
H498 C494 0.930 . S
H499 C496 0.929 . S
S500 N501 1.570 1_556 S
S500 N502 1.610 . S
N501 S500 1.570 1_554 S
N501 C504 1.367 . S
N502 S500 1.610 . S
N502 C503 1.351 . S
C503 C497 1.434 . S
C503 N502 1.351 . S
C503 C504 1.434 1_556 S
C504 C495 1.429 . S
C504 N501 1.367 . S
C504 C503 1.434 1_554 S
C505 C506 1.369 . S
C505 C507 1.419 . S
C505 H509 0.930 . S
C506 C505 1.369 . S
C506 C515 1.429 . S
C507 C505 1.419 . S
C507 C508 1.363 . S
C507 H510 0.929 . S
C508 C507 1.363 . S
C508 C514 1.428 . S
H509 C505 0.930 . S
H510 C507 0.929 . S
S511 N512 1.613 . S
S511 N513 1.610 . S
N512 S511 1.613 . S
N512 C515 1.350 . S
N513 S511 1.610 . S
N513 C514 1.351 . S
C514 C508 1.428 . S
C514 N513 1.351 . S
C514 C515 1.434 . S
C515 C506 1.429 . S
C515 N512 1.350 . S
C515 C514 1.434 . S
C387 C97 1.146 . S
C385 C3 1.575 . S
C396 C21 1.577 . S
C398 C211 1.185 . S
C407 C37 1.354 . S
C409 C271 1.080 . S
C418 C8 1.450 . S
C420 C71 1.141 . S
C431 C185 1.148 . S
C429 C23 1.454 . S
C440 C35 1.485 . S
C442 C281 0.954 . S
C453 C167 0.903 . S
C451 C31 1.503 . S
C462 C7 1.456 . S
C464 C299 1.117 1_554 S
C475 C43 1.123 . S
C473 C17 1.376 . S
C486 C157 1.089 . S
C484 C36 1.346 . S
C497 C325 1.223 . S
C495 C9 1.554 . S
C506 C22 1.496 . S
C508 C53 0.871 . S
