# Generated by pormake.
# Topology sqc, (4,8)-cn, num edge types: 1
# Building blocks:
#     Node 0, Type 0, BuildingBlock: MIFKUJ_clean_linker_1, # of connection points: 4
#     Node 1, Type 0, BuildingBlock: MIFKUJ_clean_linker_1, # of connection points: 4
#     Node 2, Type 0, BuildingBlock: MIFKUJ_clean_linker_1, # of connection points: 4
#     Node 3, Type 0, BuildingBlock: MIFKUJ_clean_linker_1, # of connection points: 4
#     Node 4, Type 0, BuildingBlock: MIFKUJ_clean_linker_1, # of connection points: 4
#     Node 5, Type 0, BuildingBlock: MIFKUJ_clean_linker_1, # of connection points: 4
#     Node 6, Type 0, BuildingBlock: MIFKUJ_clean_linker_1, # of connection points: 4
#     Node 7, Type 0, BuildingBlock: MIFKUJ_clean_linker_1, # of connection points: 4
#     Node 8, Type 1, BuildingBlock: VETTIZ_charged_sbu_0, # of connection points: 8
#     Node 9, Type 1, BuildingBlock: VETTIZ_charged_sbu_0, # of connection points: 8
#     Node 10, Type 1, BuildingBlock: VETTIZ_charged_sbu_0, # of connection points: 8
#     Node 11, Type 1, BuildingBlock: VETTIZ_charged_sbu_0, # of connection points: 8
#     Edge 12, Type (0, 1), BuildingBlock: XUDNAN_clean_linker_2, # of connection points: 2
#     Edge 13, Type (0, 1), BuildingBlock: XUDNAN_clean_linker_2, # of connection points: 2
#     Edge 14, Type (0, 1), BuildingBlock: XUDNAN_clean_linker_2, # of connection points: 2
#     Edge 15, Type (0, 1), BuildingBlock: XUDNAN_clean_linker_2, # of connection points: 2
#     Edge 16, Type (0, 1), BuildingBlock: XUDNAN_clean_linker_2, # of connection points: 2
#     Edge 17, Type (0, 1), BuildingBlock: XUDNAN_clean_linker_2, # of connection points: 2
#     Edge 18, Type (0, 1), BuildingBlock: XUDNAN_clean_linker_2, # of connection points: 2
#     Edge 19, Type (0, 1), BuildingBlock: XUDNAN_clean_linker_2, # of connection points: 2
#     Edge 20, Type (0, 1), BuildingBlock: XUDNAN_clean_linker_2, # of connection points: 2
#     Edge 21, Type (0, 1), BuildingBlock: XUDNAN_clean_linker_2, # of connection points: 2
#     Edge 22, Type (0, 1), BuildingBlock: XUDNAN_clean_linker_2, # of connection points: 2
#     Edge 23, Type (0, 1), BuildingBlock: XUDNAN_clean_linker_2, # of connection points: 2
#     Edge 24, Type (0, 1), BuildingBlock: XUDNAN_clean_linker_2, # of connection points: 2
#     Edge 25, Type (0, 1), BuildingBlock: XUDNAN_clean_linker_2, # of connection points: 2
#     Edge 26, Type (0, 1), BuildingBlock: XUDNAN_clean_linker_2, # of connection points: 2
#     Edge 27, Type (0, 1), BuildingBlock: XUDNAN_clean_linker_2, # of connection points: 2
#     Edge 28, Type (0, 1), BuildingBlock: XUDNAN_clean_linker_2, # of connection points: 2
#     Edge 29, Type (0, 1), BuildingBlock: XUDNAN_clean_linker_2, # of connection points: 2
#     Edge 30, Type (0, 1), BuildingBlock: XUDNAN_clean_linker_2, # of connection points: 2
#     Edge 31, Type (0, 1), BuildingBlock: XUDNAN_clean_linker_2, # of connection points: 2
#     Edge 32, Type (0, 1), BuildingBlock: XUDNAN_clean_linker_2, # of connection points: 2
#     Edge 33, Type (0, 1), BuildingBlock: XUDNAN_clean_linker_2, # of connection points: 2
#     Edge 34, Type (0, 1), BuildingBlock: XUDNAN_clean_linker_2, # of connection points: 2
#     Edge 35, Type (0, 1), BuildingBlock: XUDNAN_clean_linker_2, # of connection points: 2
#     Edge 36, Type (0, 1), BuildingBlock: XUDNAN_clean_linker_2, # of connection points: 2
#     Edge 37, Type (0, 1), BuildingBlock: XUDNAN_clean_linker_2, # of connection points: 2
#     Edge 38, Type (0, 1), BuildingBlock: XUDNAN_clean_linker_2, # of connection points: 2
#     Edge 39, Type (0, 1), BuildingBlock: XUDNAN_clean_linker_2, # of connection points: 2
#     Edge 40, Type (0, 1), BuildingBlock: XUDNAN_clean_linker_2, # of connection points: 2
#     Edge 41, Type (0, 1), BuildingBlock: XUDNAN_clean_linker_2, # of connection points: 2
#     Edge 42, Type (0, 1), BuildingBlock: XUDNAN_clean_linker_2, # of connection points: 2
#     Edge 43, Type (0, 1), BuildingBlock: XUDNAN_clean_linker_2, # of connection points: 2
# Relax obj value: 0.137
# Max RMSD: 0.270
# Mean RMSD: 0.176
data_MOF--net-sqc--node1-VETTIZ_charged_sbu_0--node2-MIFKUJ_clean_linker_1--edge1-XUDNAN_clean_linker_2
_symmetry_space_group_name_H-M    P1
_symmetry_Int_Tables_number       1
_symmetry_cell_setting            triclinic
loop_
_symmetry_equiv_pos_as_xyz
'x, y, z'
_cell_length_a     28.332018
_cell_length_b     28.397466
_cell_length_c     81.906282
_cell_angle_alpha  89.842281
_cell_angle_beta   89.729838
_cell_angle_gamma 91.221998
loop_
_atom_site_label
_atom_site_type_symbol
_atom_site_fract_x
_atom_site_fract_y
_atom_site_fract_z
_atom_type_partial_charge
H0 H 0.95608 0.95865 0.48582 0.0
H1 H 0.88425 0.94201 0.47045 0.0
H2 H 0.85224 0.09006 0.47047 0.0
H3 H 0.92527 0.10678 0.48573 0.0
H4 H 0.03289 0.00907 0.47877 0.0
H5 H 0.90767 0.01117 0.51781 0.0
H6 H 0.83333 0.03673 0.52982 0.0
H7 H 0.89432 0.17557 0.53732 0.0
H8 H 0.96832 0.15027 0.52484 0.0
H9 H 0.1574 0.09456 0.50608 0.0
H10 H 0.22958 0.10287 0.52205 0.0
H11 H 0.1614 0.02906 0.56224 0.0
H12 H 0.08895 0.02175 0.54623 0.0
H13 H 0.03033 0.08543 0.53317 0.0
H14 H 0.13024 0.05397 0.47358 0.0
H15 H 0.19794 0.01098 0.46304 0.0
H16 H 0.1752 0.90502 0.50053 0.0
H17 H 0.10997 0.94982 0.51144 0.0
C18 C 0.94596 0.0339 0.48702 0.0
C19 C 0.93386 0.98765 0.48244 0.0
C20 C 0.89255 0.97815 0.47376 0.0
C21 C 0.86232 0.01469 0.4694 0.0
C22 C 0.87492 0.06124 0.47364 0.0
C23 C 0.9164 0.07076 0.48243 0.0
C24 C 0.98937 0.04267 0.49677 0.0
C25 C 0.03229 0.02646 0.49055 0.0
C26 C 0.98841 0.06393 0.51241 0.0
C27 C 0.94348 0.07903 0.52011 0.0
C28 C 0.9049 0.04735 0.52178 0.0
C29 C 0.86239 0.06196 0.52866 0.0
C30 C 0.85789 0.10824 0.53439 0.0
C31 C 0.8968 0.13964 0.53304 0.0
C32 C 0.93911 0.12521 0.52593 0.0
C33 C 0.11767 0.05734 0.52489 0.0
C34 C 0.15807 0.07987 0.51829 0.0
C35 C 0.19953 0.08437 0.52745 0.0
C36 C 0.20169 0.06642 0.54347 0.0
C37 C 0.16105 0.04385 0.55004 0.0
C38 C 0.11951 0.03955 0.54088 0.0
C39 C 0.07373 0.05216 0.51504 0.0
C40 C 0.03086 0.0691 0.52122 0.0
C41 C 0.07403 0.03012 0.49959 0.0
C42 C 0.11582 1.00536 0.49342 0.0
C43 C 0.14045 0.02171 0.47957 0.0
C44 C 0.17878 0.99676 0.47347 0.0
C45 C 0.19245 0.95445 0.48094 0.0
C46 C 0.16679 0.93798 0.49467 0.0
C47 C 0.12923 0.9634 0.50092 0.0
H48 H 0.26103 0.84331 0.79816 0.0
H49 H 0.23672 0.91837 0.8096 0.0
H50 H 0.15518 0.94539 0.76619 0.0
H51 H 0.18085 0.87067 0.75468 0.0
H52 H 0.20797 0.76352 0.7872 0.0
H53 H 0.33174 0.86979 0.76689 0.0
H54 H 0.35846 0.94586 0.75605 0.0
H55 H 0.26644 0.92648 0.71449 0.0
H56 H 0.24188 0.84902 0.72516 0.0
H57 H 0.23294 0.65504 0.73529 0.0
H58 H 0.2724 0.58913 0.7226 0.0
H59 H 0.40437 0.63659 0.74419 0.0
H60 H 0.36294 0.69856 0.75832 0.0
H61 H 0.30484 0.76679 0.73655 0.0
H62 H 0.19282 0.64377 0.75961 0.0
H63 H 0.17462 0.57137 0.77482 0.0
H64 H 0.24895 0.62757 0.81653 0.0
H65 H 0.26931 0.69912 0.80091 0.0
C66 C 0.22254 0.85142 0.77564 0.0
C67 C 0.23765 0.8653 0.79119 0.0
C68 C 0.22369 0.90824 0.79768 0.0
C69 C 0.19381 0.93792 0.78883 0.0
C70 C 0.17869 0.92378 0.77323 0.0
C71 C 0.19296 0.88091 0.76671 0.0
C72 C 0.23973 0.80727 0.7684 0.0
C73 C 0.22893 0.76391 0.77608 0.0
C74 C 0.26752 0.80837 0.75405 0.0
C75 C 0.2848 0.85378 0.74685 0.0
C76 C 0.31766 0.88184 0.75537 0.0
C77 C 0.3325 0.92572 0.74919 0.0
C78 C 0.31432 0.94312 0.73441 0.0
C79 C 0.28179 0.91437 0.72578 0.0
C80 C 0.26748 0.87005 0.73189 0.0
C81 C 0.2946 0.68032 0.7483 0.0
C82 C 0.2699 0.64973 0.73785 0.0
C83 C 0.29304 0.61274 0.73021 0.0
C84 C 0.34202 0.607 0.73222 0.0
C85 C 0.36657 0.63845 0.74261 0.0
C86 C 0.343 0.67433 0.75066 0.0
C87 C 0.27199 0.72245 0.75503 0.0
C88 C 0.28268 0.7659 0.7474 0.0
C89 C 0.24485 0.72114 0.76964 0.0
C90 C 0.23415 0.67644 0.77879 0.0
C91 C 0.20688 0.63994 0.77176 0.0
C92 C 0.19591 0.59869 0.78058 0.0
C93 C 0.21068 0.59346 0.79686 0.0
C94 C 0.23706 0.63044 0.80403 0.0
C95 C 0.24881 0.67132 0.79508 0.0
H96 H 0.44246 0.05626 0.06166 0.0
H97 H 0.37055 0.03245 0.07673 0.0
H98 H 0.3261 0.94689 0.03588 0.0
H99 H 0.3976 0.97103 0.02087 0.0
H100 H 0.51595 1.00118 0.04813 0.0
H101 H 0.39838 0.10694 0.03118 0.0
H102 H 0.32396 0.13489 0.02041 0.0
H103 H 0.35562 0.07077 0.97388 0.0
H104 H 0.4279 0.03977 0.98516 0.0
H105 H 0.563 0.01987 0.98061 0.0
H106 H 0.63065 0.03447 0.96257 0.0
H107 H 0.69901 0.11654 1.00035 0.0
H108 H 0.63051 0.10249 0.0183 0.0
H109 H 0.50273 0.08135 0.99451 0.0
H110 H 0.61158 0.96224 0.01404 0.0
H111 H 0.68897 0.93822 0.02409 0.0
H112 H 0.67693 0.03556 0.06424 0.0
H113 H 0.59965 0.05929 0.05418 0.0
C114 C 0.42537 0.01555 0.04012 0.0
C115 C 0.41725 0.0323 0.05599 0.0
C116 C 0.376 0.019 0.06452 0.0
C117 C 0.3426 0.9879 0.05747 0.0
C118 C 0.35123 0.97071 0.04167 0.0
C119 C 0.39202 0.98456 0.03307 0.0
C120 C 0.4681 0.03092 0.0307 0.0
C121 C 0.51301 0.01924 0.0365 0.0
C122 C 0.46445 0.05423 0.01546 0.0
C123 C 0.41856 0.07057 0.00908 0.0
C124 C 0.3887 0.09785 0.01879 0.0
C125 C 0.34641 0.11453 0.01251 0.0
C126 C 0.33353 0.1052 0.99624 0.0
C127 C 0.36365 0.07793 0.98655 0.0
C128 C 0.40547 0.06062 0.99293 0.0
C129 C 0.59179 0.05962 1.00088 0.0
C130 C 0.59247 0.04112 0.98501 0.0
C131 C 0.63134 0.04928 0.97474 0.0
C132 C 0.67042 0.07644 0.98005 0.0
C133 C 0.66938 0.0957 0.99586 0.0
C134 C 0.63046 0.0873 0.00619 0.0
C135 C 0.55012 0.05024 0.01165 0.0
C136 C 0.50546 0.06328 0.00614 0.0
C137 C 0.55397 0.02823 0.02709 0.0
C138 C 0.60008 0.01267 0.03335 0.0
C139 C 0.62569 0.97833 0.02501 0.0
C140 C 0.66974 0.96457 0.03077 0.0
C141 C 0.68908 0.9853 0.04486 0.0
C142 C 0.66317 0.01948 0.05322 0.0
C143 C 0.61892 0.03278 0.04758 0.0
H144 H 0.21095 0.15334 0.29337 0.0
H145 H 0.25125 0.09327 0.30932 0.0
H146 H 0.37787 0.11792 0.28073 0.0
H147 H 0.33699 0.1774 0.26462 0.0
H148 H 0.27656 0.25105 0.29228 0.0
H149 H 0.18427 0.13141 0.26251 0.0
H150 H 0.16808 0.06665 0.2435 0.0
H151 H 0.24266 0.14352 0.20544 0.0
H152 H 0.25892 0.20785 0.22446 0.0
H153 H 0.22996 0.33879 0.2295 0.0
H154 H 0.19705 0.41101 0.219 0.0
H155 H 0.13788 0.43988 0.26665 0.0
H156 H 0.16694 0.36512 0.27659 0.0
H157 H 0.19556 0.26249 0.23899 0.0
H158 H 0.29629 0.37576 0.26601 0.0
H159 H 0.32132 0.44237 0.28311 0.0
H160 H 0.2478 0.3793 0.32429 0.0
H161 H 0.22229 0.31338 0.3071 0.0
C162 C 0.2709 0.16911 0.27771 0.0
C163 C 0.24677 0.14437 0.29013 0.0
C164 C 0.26984 0.11027 0.29925 0.0
C165 C 0.3177 0.10138 0.2963 0.0
C166 C 0.34102 0.12441 0.28327 0.0
C167 C 0.31766 0.15795 0.27398 0.0
C168 C 0.25126 0.21299 0.2713 0.0
C169 C 0.25817 0.25367 0.28072 0.0
C170 C 0.22947 0.21608 0.2559 0.0
C171 C 0.22308 0.17457 0.24498 0.0
C172 C 0.19816 0.13385 0.2502 0.0
C173 C 0.18881 0.09683 0.23929 0.0
C174 C 0.2038 0.10002 0.22291 0.0
C175 C 0.22999 0.14019 0.2179 0.0
C176 C 0.23942 0.17699 0.22878 0.0
C177 C 0.20163 0.34652 0.25393 0.0
C178 C 0.20954 0.36042 0.23767 0.0
C179 C 0.19119 0.40234 0.23174 0.0
C180 C 0.16512 0.43201 0.24199 0.0
C181 C 0.15729 0.41798 0.25829 0.0
C182 C 0.17473 0.37544 0.26411 0.0
C183 C 0.22044 0.30122 0.26004 0.0
C184 C 0.21378 0.26022 0.25057 0.0
C185 C 0.24402 0.29789 0.27521 0.0
C186 C 0.25703 0.33975 0.28523 0.0
C187 C 0.28507 0.37662 0.27867 0.0
C188 C 0.29975 0.41442 0.28849 0.0
C189 C 0.28658 0.41613 0.30507 0.0
C190 C 0.25811 0.37937 0.31154 0.0
C191 C 0.2437 0.34152 0.30175 0.0
H192 H 0.71946 0.38693 0.25366 0.0
H193 H 0.73194 0.45578 0.23629 0.0
H194 H 0.87672 0.41613 0.22832 0.0
H195 H 0.86476 0.34896 0.24665 0.0
H196 H 0.8146 0.27443 0.24439 0.0
H197 H 0.67509 0.34971 0.28851 0.0
H198 H 0.65607 0.42277 0.30261 0.0
H199 H 0.8019 0.46919 0.29868 0.0
H200 H 0.82084 0.39568 0.28473 0.0
H201 H 0.78059 0.2185 0.31228 0.0
H202 H 0.75782 0.14927 0.32838 0.0
H203 H 0.69526 0.08562 0.28552 0.0
H204 H 0.7158 0.15623 0.26972 0.0
H205 H 0.73317 0.28178 0.29799 0.0
H206 H 0.84126 0.16713 0.27987 0.0
H207 H 0.87027 0.09426 0.26826 0.0
H208 H 0.80718 0.12989 0.22196 0.0
H209 H 0.77504 0.20046 0.23406 0.0
C210 C 0.7913 0.36282 0.25175 0.0
C211 C 0.75423 0.39352 0.24849 0.0
C212 C 0.76126 0.43265 0.23826 0.0
C213 C 0.80535 0.44172 0.23073 0.0
C214 C 0.84246 0.41091 0.23403 0.0
C215 C 0.83552 0.37204 0.24442 0.0
C216 C 0.78331 0.32003 0.26217 0.0
C217 C 0.79681 0.27601 0.25613 0.0
C218 C 0.76102 0.32199 0.27766 0.0
C219 C 0.74932 0.36733 0.28551 0.0
C220 C 0.70292 0.3757 0.29063 0.0
C221 C 0.69205 0.41761 0.29857 0.0
C222 C 0.7275 0.45176 0.30172 0.0
C223 C 0.77393 0.4434 0.29651 0.0
C224 C 0.78471 0.4016 0.28845 0.0
C225 C 0.75041 0.19269 0.28969 0.0
C226 C 0.76173 0.18977 0.30635 0.0
C227 C 0.7491 0.14976 0.31552 0.0
C228 C 0.72488 0.11139 0.30829 0.0
C229 C 0.71341 0.11449 0.2916 0.0
C230 C 0.72571 0.15474 0.28246 0.0
C231 C 0.76359 0.23584 0.28007 0.0
C232 C 0.75098 0.27999 0.28626 0.0
C233 C 0.78779 0.23396 0.26488 0.0
C234 C 0.80526 0.18913 0.25794 0.0
C235 C 0.83275 0.1587 0.26732 0.0
C236 C 0.85001 0.11727 0.26056 0.0
C237 C 0.84121 0.10585 0.24411 0.0
C238 C 0.81396 0.13669 0.23474 0.0
C239 C 0.796 0.17759 0.2416 0.0
H240 H 0.62877 0.83389 0.76371 0.0
H241 H 0.59478 0.89671 0.74741 0.0
H242 H 0.73201 0.92568 0.72569 0.0
H243 H 0.76584 0.86484 0.74285 0.0
H244 H 0.67929 0.75758 0.74594 0.0
H245 H 0.69523 0.87402 0.78772 0.0
H246 H 0.71943 0.94609 0.80195 0.0
H247 H 0.86561 0.90981 0.79571 0.0
H248 H 0.84132 0.83817 0.78128 0.0
H249 H 0.80444 0.65333 0.75592 0.0
H250 H 0.83442 0.5783 0.76507 0.0
H251 H 0.7997 0.61469 0.81493 0.0
H252 H 0.76513 0.68751 0.80535 0.0
H253 H 0.79692 0.76378 0.7906 0.0
H254 H 0.74005 0.68459 0.73076 0.0
H255 H 0.71908 0.60758 0.71955 0.0
H256 H 0.64612 0.57166 0.76463 0.0
H257 H 0.67082 0.64743 0.77603 0.0
C258 C 0.69977 0.84521 0.75454 0.0
C259 C 0.65156 0.85473 0.75571 0.0
C260 C 0.63214 0.89022 0.7462 0.0
C261 C 0.66038 0.916 0.73498 0.0
C262 C 0.70913 0.90721 0.7343 0.0
C263 C 0.72865 0.87232 0.74408 0.0
C264 C 0.71852 0.80276 0.76239 0.0
C265 C 0.7048 0.75896 0.75578 0.0
C266 C 0.75174 0.80501 0.77525 0.0
C267 C 0.76634 0.8505 0.78318 0.0
C268 C 0.73255 0.88196 0.78906 0.0
C269 C 0.74645 0.92323 0.79729 0.0
C270 C 0.79451 0.93384 0.80006 0.0
C271 C 0.82827 0.90254 0.79403 0.0
C272 C 0.81438 0.8615 0.78571 0.0
C273 C 0.78107 0.67546 0.77987 0.0
C274 C 0.80231 0.64467 0.76879 0.0
C275 C 0.82032 0.60196 0.77411 0.0
C276 C 0.81917 0.58975 0.79077 0.0
C277 C 0.79996 0.6219 0.80195 0.0
C278 C 0.78081 0.66409 0.79653 0.0
C279 C 0.75815 0.71885 0.77398 0.0
C280 C 0.77118 0.76267 0.78085 0.0
C281 C 0.72388 0.71699 0.76148 0.0
C282 C 0.70723 0.67162 0.75425 0.0
C283 C 0.71937 0.66003 0.73816 0.0
C284 C 0.70696 0.61582 0.73174 0.0
C285 C 0.6808 0.5825 0.7411 0.0
C286 C 0.66731 0.59528 0.75708 0.0
C287 C 0.68085 0.63903 0.76361 0.0
H288 H 0.42967 0.40476 0.99565 0.0
H289 H 0.36658 0.38464 0.97655 0.0
H290 H 0.32136 0.52876 0.97696 0.0
H291 H 0.38571 0.54937 0.99582 0.0
H292 H 0.50244 0.45669 0.99173 0.0
H293 H 0.37085 0.4595 0.02652 0.0
H294 H 0.29392 0.47996 0.03698 0.0
H295 H 0.34712 0.62052 0.04771 0.0
H296 H 0.42229 0.60125 0.03528 0.0
H297 H 0.56448 0.6032 0.03549 0.0
H298 H 0.63508 0.62641 0.0508 0.0
H299 H 0.67293 0.48034 0.05495 0.0
H300 H 0.60205 0.45732 0.03974 0.0
H301 H 0.48762 0.54865 0.04277 0.0
H302 H 0.61664 0.53967 1.00182 0.0
H303 H 0.69129 0.51016 0.99095 0.0
H304 H 0.63912 0.36726 0.99742 0.0
H305 H 0.56483 0.39689 0.00826 0.0
C306 C 0.4128 0.47866 0.99722 0.0
C307 C 0.40633 0.4322 0.99167 0.0
C308 C 0.37014 0.42066 0.98077 0.0
C309 C 0.33919 0.45518 0.97521 0.0
C310 C 0.3445 0.50139 0.98114 0.0
C311 C 0.38128 0.51314 0.99192 0.0
C312 C 0.45382 0.49088 0.00794 0.0
C313 C 0.4988 0.4764 1.00298 0.0
C314 C 0.44944 0.51676 0.02268 0.0
C315 C 0.40247 0.52907 0.02964 0.0
C316 C 0.36564 0.49521 0.03064 0.0
C317 C 0.32158 0.50681 0.03703 0.0
C318 C 0.31354 0.55208 0.04334 0.0
C319 C 0.35094 0.58564 0.04266 0.0
C320 C 0.39457 0.57441 0.03576 0.0
C321 C 0.57802 0.52854 0.03623 0.0
C322 C 0.58777 0.5761 0.03979 0.0
C323 C 0.62822 0.58933 0.04858 0.0
C324 C 0.65995 0.55528 0.05408 0.0
C325 C 0.64979 0.50758 0.05068 0.0
C326 C 0.60916 0.49436 0.04198 0.0
C327 C 0.53573 0.515 0.02632 0.0
C328 C 0.49069 0.52918 0.03146 0.0
C329 C 0.5395 0.48767 0.01198 0.0
C330 C 0.58535 0.47043 0.00589 0.0
C331 C 0.6215 0.50201 1.00098 0.0
C332 C 0.66396 0.48514 0.99472 0.0
C333 C 0.67104 0.4364 0.99339 0.0
C334 C 0.63491 0.40495 0.99849 0.0
C335 C 0.59237 0.42182 1.00457 0.0
H336 H 0.93856 0.45041 0.47541 0.0
H337 H 0.86927 0.45833 0.45811 0.0
H338 H 0.82517 0.57656 0.48726 0.0
H339 H 0.89369 0.56667 0.50495 0.0
H340 H 1.00596 0.53325 0.4812 0.0
H341 H 0.8897 0.4287 0.50919 0.0
H342 H 0.81633 0.41655 0.52463 0.0
H343 H 0.86941 0.50907 0.56238 0.0
H344 H 0.94239 0.52182 0.54675 0.0
H345 H 0.08405 0.49225 0.5476 0.0
H346 H 0.1548 0.45873 0.5591 0.0
H347 H 0.19505 0.41003 0.51105 0.0
H348 H 0.12152 0.43784 0.50024 0.0
H349 H 0.01016 0.46086 0.53626 0.0
H350 H 0.12883 0.55915 0.51221 0.0
H351 H 0.20059 0.58258 0.49733 0.0
H352 H 0.14088 0.52396 0.45312 0.0
H353 H 0.07194 0.49695 0.46828 0.0
C354 C 0.92102 0.5079 0.49143 0.0
C355 C 0.91355 0.47767 0.47814 0.0
C356 C 0.87409 0.4825 0.4682 0.0
C357 C 0.84162 0.51829 0.47116 0.0
C358 C 0.84892 0.5481 0.48472 0.0
C359 C 0.88821 0.54279 0.49481 0.0
C360 C 0.96494 0.50411 0.50097 0.0
C361 C 1.0074 0.51709 0.4932 0.0
C362 C 0.96568 0.48628 0.51709 0.0
C363 C 0.92146 0.4769 0.52663 0.0
C364 C 0.88536 0.44696 0.52066 0.0
C365 C 0.84335 0.43999 0.52953 0.0
C366 C 0.83678 0.46214 0.5447 0.0
C367 C 0.87337 0.4913 0.55079 0.0
C368 C 0.91515 0.4986 0.54186 0.0
C369 C 0.09739 0.46859 0.52292 0.0
C370 C 0.10788 0.47386 0.53957 0.0
C371 C 0.14911 0.45519 0.54611 0.0
C372 C 0.1816 0.43157 0.53609 0.0
C373 C 0.17104 0.42692 0.51938 0.0
C374 C 0.12911 0.44404 0.51301 0.0
C375 C 0.05259 0.48673 0.51596 0.0
C376 C 0.00964 0.47738 0.52432 0.0
C377 C 0.05137 0.5096 0.50051 0.0
C378 C 0.0949 0.52555 0.4915 0.0
C379 C 0.1316 0.55063 0.49937 0.0
C380 C 0.17247 0.56468 0.49075 0.0
C381 C 0.17716 0.55484 0.47398 0.0
C382 C 0.13958 0.5311 0.46609 0.0
C383 C 0.09943 0.51621 0.47474 0.0
Fe384 Fe 1.00051 0.76895 0.15995 0.0
O385 O 0.03467 0.73591 0.14213 0.0
Fe386 Fe 0.89604 0.80216 0.14159 0.0
Fe387 Fe 0.10403 0.73381 0.14143 0.0
O388 O 0.96473 0.79773 0.14172 0.0
O389 O 0.96512 0.79831 0.14014 0.0
O390 O 0.03445 0.73556 0.14043 0.0
Fe391 Fe 0.99977 0.76625 0.12208 0.0
C392 C 0.09082 0.82469 0.16095 0.0
O393 O 0.04211 0.73346 0.17704 0.0
O394 O 0.09322 0.69047 0.16134 0.0
O395 O 0.95003 0.71109 0.12138 0.0
O396 O 0.8841 0.75206 0.12407 0.0
O397 O 0.88506 0.75026 0.1593 0.0
O398 O 0.95351 0.71343 0.16184 0.0
O399 O 0.09195 0.68563 0.12303 0.0
O400 O 0.04191 0.72645 0.1059 0.0
C401 C 0.90903 0.71491 0.16376 0.0
O402 O 0.95816 0.80456 0.10555 0.0
O403 O 0.90819 0.84747 0.12216 0.0
O404 O 0.04666 0.82497 0.15875 0.0
O405 O 0.11522 0.78829 0.15824 0.0
C406 C 0.07179 0.69955 0.17497 0.0
C407 C 0.07166 0.69294 0.10905 0.0
C408 C 0.09263 0.81712 0.11799 0.0
O409 O 0.11473 0.78105 0.12264 0.0
O410 O 0.04878 0.82189 0.12098 0.0
C411 C 0.90559 0.71559 0.11936 0.0
O412 O 0.90864 0.84872 0.16056 0.0
O413 O 0.9613 0.80859 0.17648 0.0
C414 C 0.92843 0.83832 0.10825 0.0
C415 C 0.93169 0.84224 0.17402 0.0
Fe416 Fe 0.54839 0.75555 0.42833 0.0
O417 O 0.54864 0.75821 0.40434 0.0
Fe418 Fe 0.5202 0.81788 0.39332 0.0
Fe419 Fe 0.51866 0.70928 0.39004 0.0
O420 O 0.54861 0.76269 0.40449 0.0
O421 O 0.48825 0.76887 0.37945 0.0
O422 O 0.48846 0.76411 0.37926 0.0
Fe423 Fe 0.48748 0.77172 0.35545 0.0
C424 C 0.58515 0.66224 0.41527 0.0
O425 O 0.49295 0.70672 0.43004 0.0
O426 O 0.46137 0.70198 0.40514 0.0
O427 O 0.44283 0.8268 0.36027 0.0
O428 O 0.48574 0.86903 0.37948 0.0
O429 O 0.4623 0.8161 0.40904 0.0
O430 O 0.50174 0.80823 0.43215 0.0
O431 O 0.48191 0.66472 0.37368 0.0
O432 O 0.44014 0.71544 0.3573 0.0
C433 C 0.46396 0.81673 0.42457 0.0
O434 O 0.53908 0.82394 0.35387 0.0
O435 O 0.57723 0.82313 0.37754 0.0
O436 O 0.59136 0.6995 0.42419 0.0
O437 O 0.55523 0.65784 0.40328 0.0
C438 C 0.45952 0.69486 0.42043 0.0
C439 C 0.44833 0.67413 0.36341 0.0
C440 C 0.57307 0.70756 0.35931 0.0
O441 O 0.57576 0.71389 0.37462 0.0
O442 O 0.53759 0.72099 0.35114 0.0
C443 C 0.45399 0.86544 0.36802 0.0
O444 O 0.56002 0.86171 0.40933 0.0
O445 O 0.59778 0.80922 0.42626 0.0
C446 C 0.57389 0.83654 0.36274 0.0
C447 C 0.59263 0.85082 0.41989 0.0
Fe448 Fe 0.51396 0.26273 0.66062 0.0
O449 O 0.55955 0.26855 0.64208 0.0
Fe450 Fe 0.40609 0.27671 0.64008 0.0
Fe451 Fe 0.62578 0.25577 0.6424 0.0
O452 O 0.4718 0.26047 0.64123 0.0
O453 O 0.47431 0.27773 0.63892 0.0
O454 O 0.55776 0.25153 0.63959 0.0
Fe455 Fe 0.51752 0.26447 0.62021 0.0
C456 C 0.60157 0.2989 0.67648 0.0
O457 O 0.53346 0.19212 0.66093 0.0
O458 O 0.61362 0.19672 0.6571 0.0
O459 O 0.479 0.19953 0.61871 0.0
O460 O 0.40276 0.21941 0.62479 0.0
O461 O 0.3997 0.23221 0.6604 0.0
O462 O 0.46115 0.24744 0.67729 0.0
O463 O 0.62566 0.21594 0.62115 0.0
O464 O 0.56775 0.2404 0.60384 0.0
C465 C 0.4212 0.22754 0.6741 0.0
O466 O 0.47028 0.28798 0.60294 0.0
O467 O 0.4131 0.31878 0.61926 0.0
O468 O 0.56314 0.27506 0.67861 0.0
O469 O 0.62537 0.29856 0.66309 0.0
C470 C 0.57534 0.17505 0.66196 0.0
C471 C 0.60695 0.21958 0.60685 0.0
C472 C 0.60047 0.33929 0.61983 0.0
O473 O 0.63053 0.31398 0.6275 0.0
O474 O 0.5554 0.32979 0.6191 0.0
C475 C 0.43348 0.192 0.61833 0.0
O476 O 0.41684 0.3341 0.65563 0.0
O477 O 0.4954 0.33318 0.66189 0.0
C478 C 0.43297 0.31252 0.60523 0.0
C479 C 0.4545 0.35234 0.66218 0.0
Fe480 Fe 1.00438 0.26777 0.91014 0.0
O481 O 0.03377 0.22963 0.89263 0.0
Fe482 Fe 0.97615 0.37123 0.8907 0.0
Fe483 Fe 0.03548 0.16112 0.89326 0.0
O484 O 0.97514 0.30191 0.89158 0.0
O485 O 0.97542 0.30177 0.88985 0.0
O486 O 0.0349 0.23002 0.89103 0.0
Fe487 Fe 1.00646 0.26423 0.87218 0.0
C488 C 0.07343 0.19762 0.92574 0.0
O489 O 0.9466 0.22317 0.91178 0.0
O490 O 0.98207 0.15387 0.91054 0.0
O491 O 0.97134 0.30675 0.85524 0.0
O492 O 0.93118 0.36068 0.87109 0.0
O493 O 0.92847 0.36252 0.90967 0.0
O494 O 0.96866 0.31196 0.92633 0.0
O495 O 0.98638 0.14964 0.87535 0.0
O496 O 0.94898 0.21701 0.87128 0.0
C497 C 0.93508 0.34151 0.92355 0.0
O498 O 0.06417 0.31082 0.87083 0.0
O499 O 0.02781 0.37942 0.87322 0.0
O500 O 0.04056 0.22848 0.92753 0.0
O501 O 0.08071 0.17357 0.91254 0.0
C502 C 0.94683 0.17897 0.9143 0.0
C503 C 0.95191 0.17234 0.86961 0.0
C504 C 0.07431 0.18616 0.8598 0.0
O505 O 0.08286 0.1698 0.87433 0.0
O506 O 0.04382 0.21883 0.85649 0.0
C507 C 0.94034 0.33975 0.8573 0.0
O508 O 0.02802 0.38075 0.90864 0.0
O509 O 0.06241 0.31131 0.90916 0.0
C510 C 0.06243 0.35525 0.86839 0.0
C511 C 0.06386 0.35544 0.91123 0.0
H512 H 0.22361 0.94428 0.44892 0.0
H513 H 0.25619 0.90526 0.49894 0.0
H514 H 0.3233 0.86001 0.48916 0.0
H515 H 0.25993 0.83505 0.42947 0.0
H516 H 0.28632 0.86455 0.41206 0.0
H517 H 0.23731 0.89052 0.42258 0.0
H518 H 0.28693 0.96712 0.42697 0.0
H519 H 0.33592 0.94142 0.41641 0.0
H520 H 0.34358 0.96393 0.43681 0.0
H521 H 0.38761 0.82158 0.47476 0.0
H522 H 0.4513 0.79695 0.45662 0.0
H523 H 0.38266 0.86372 0.4155 0.0
C524 C 0.24483 0.92634 0.45785 0.0
C525 C 0.23366 0.92781 0.47475 0.0
C526 C 0.26266 0.90364 0.48593 0.0
C527 C 0.30119 0.87795 0.4805 0.0
C528 C 0.31089 0.87706 0.46385 0.0
C529 C 0.28406 0.90091 0.45265 0.0
C530 C 0.30458 0.89649 0.43555 0.0
C531 C 0.26996 0.87007 0.42425 0.0
C532 C 0.31859 0.94513 0.42853 0.0
C533 C 0.34769 0.86728 0.43902 0.0
C534 C 0.34986 0.85598 0.45542 0.0
C535 C 0.38647 0.83029 0.4619 0.0
C536 C 0.42264 0.81666 0.45144 0.0
C537 C 0.42239 0.82889 0.43463 0.0
C538 C 0.3838 0.85377 0.42826 0.0
H539 H 0.32589 0.97355 0.70234 0.0
H540 H 0.33531 0.02264 0.75245 0.0
H541 H 0.3622 0.10066 0.74259 0.0
H542 H 0.42607 0.03729 0.68683 0.0
H543 H 0.39955 0.05108 0.66749 0.0
H544 H 0.38136 0.99852 0.67837 0.0
H545 H 0.29444 0.02499 0.67784 0.0
H546 H 0.3122 0.07754 0.66685 0.0
H547 H 0.27979 0.08205 0.68576 0.0
H548 H 0.39293 0.17273 0.72728 0.0
H549 H 0.41951 0.23413 0.70748 0.0
H550 H 0.38248 0.14096 0.66751 0.0
C551 C 0.33288 1.00072 0.7113 0.0
C552 C 0.32887 0.99115 0.72826 0.0
C553 C 0.33918 0.02813 0.73943 0.0
C554 C 0.35412 0.07294 0.73394 0.0
C555 C 0.35801 0.08088 0.7172 0.0
C556 C 0.3472 0.04595 0.70603 0.0
C557 C 0.3541 0.06378 0.68868 0.0
C558 C 0.39255 0.03601 0.67982 0.0
C559 C 0.30734 0.06199 0.67923 0.0
C560 C 0.37034 0.11416 0.69185 0.0
C561 C 0.37298 0.12319 0.70839 0.0
C562 C 0.39018 0.16631 0.7143 0.0
C563 C 0.40517 0.20098 0.703 0.0
C564 C 0.4019 0.19271 0.68601 0.0
C565 C 0.38394 0.14879 0.68043 0.0
H566 H 0.27381 0.06442 0.97368 0.0
H567 H 0.29462 0.19149 1.00242 0.0
H568 H 0.22503 0.22593 0.98942 0.0
H569 H 0.24726 0.12331 0.93725 0.0
H570 H 0.20447 0.07984 0.93045 0.0
H571 H 0.25184 0.06275 0.9436 0.0
H572 H 0.19112 0.02789 0.96437 0.0
H573 H 0.14348 0.04494 0.95126 0.0
H574 H 0.14503 0.06453 0.97217 0.0
H575 H 0.15612 0.24877 0.97186 0.0
H576 H 0.09632 0.25923 0.95032 0.0
H577 H 0.12467 0.11924 0.93205 0.0
C578 C 0.26386 0.09946 0.97732 0.0
C579 C 0.28981 0.12499 0.98919 0.0
C580 C 0.27492 0.17062 0.99364 0.0
C581 C 0.2355 0.19067 0.98626 0.0
C582 C 0.21138 0.16478 0.97439 0.0
C583 C 0.22512 0.12022 0.96993 0.0
C584 C 0.19569 0.10116 0.95598 0.0
C585 C 0.22667 0.09121 0.94093 0.0
C586 C 0.16714 0.05702 0.96127 0.0
C587 C 0.16388 0.14238 0.95305 0.0
C588 C 0.17286 0.17846 0.96396 0.0
C589 C 0.14854 0.2206 0.96333 0.0
C590 C 0.11458 0.22617 0.95109 0.0
C591 C 0.10588 0.19005 0.93952 0.0
C592 C 0.13059 0.14752 0.94069 0.0
H593 H 0.20326 1.0028 0.22624 0.0
H594 H 0.17048 0.11474 0.19218 0.0
H595 H 0.14427 0.05575 0.172 0.0
H596 H 0.24586 0.91951 0.19575 0.0
H597 H 0.22006 0.86873 0.20591 0.0
H598 H 0.23844 0.9195 0.21762 0.0
H599 H 0.15436 0.92484 0.23 0.0
H600 H 0.13592 0.87395 0.21842 0.0
H601 H 0.1043 0.92809 0.21656 0.0
H602 H 0.11498 0.9862 0.15648 0.0
H603 H 0.08662 0.90909 0.14616 0.0
H604 H 0.14191 0.84029 0.18902 0.0
C605 C 0.19077 0.01482 0.2145 0.0
C606 C 0.18939 0.06352 0.21076 0.0
C607 C 0.17276 0.07774 0.19525 0.0
C608 C 0.15758 0.04447 0.18371 0.0
C609 C 0.15947 0.9969 0.18775 0.0
C610 C 0.1758 0.98191 0.20272 0.0
C611 C 0.17289 0.92851 0.20401 0.0
C612 C 0.22226 0.90785 0.20594 0.0
C613 C 0.1399 0.91295 0.21808 0.0
C614 C 0.15178 0.91601 0.18753 0.0
C615 C 0.14424 0.95619 0.1784 0.0
C616 C 0.1217 0.95442 0.16333 0.0
C617 C 0.10595 0.91055 0.15751 0.0
C618 C 0.11362 0.86891 0.16651 0.0
C619 C 0.13727 0.87155 0.18164 0.0
H620 H 0.20862 0.08608 0.57627 0.0
H621 H 0.2945 0.06211 0.5332 0.0
H622 H 0.36644 0.07924 0.54924 0.0
H623 H 0.27203 0.18132 0.59087 0.0
H624 H 0.26533 0.1662 0.61216 0.0
H625 H 0.22182 0.14637 0.59771 0.0
H626 H 0.2341 0.06009 0.607 0.0
H627 H 0.27817 0.07981 0.6214 0.0
H628 H 0.29245 0.03602 0.60637 0.0
H629 H 0.42862 0.10884 0.5694 0.0
H630 H 0.47272 0.15154 0.59102 0.0
H631 H 0.34635 0.15056 0.6211 0.0
C632 C 0.24253 0.08293 0.57027 0.0
C633 C 0.24558 0.07263 0.55342 0.0
C634 C 0.29092 0.07045 0.54603 0.0
C635 C 0.33214 0.07961 0.5551 0.0
C636 C 0.32773 0.09028 0.57164 0.0
C637 C 0.28395 0.09165 0.57915 0.0
C638 C 0.28817 0.10787 0.59668 0.0
C639 C 0.26021 0.15311 0.59951 0.0
C640 C 0.27228 0.06859 0.60856 0.0
C641 C 0.3409 0.11717 0.59771 0.0
C642 C 0.36343 0.10625 0.58326 0.0
C643 C 0.41148 0.11653 0.58089 0.0
C644 C 0.43648 0.14043 0.59332 0.0
C645 C 0.41322 0.15409 0.60784 0.0
C646 C 0.36542 0.14012 0.61024 0.0
H647 H 0.16789 0.9524 0.82049 0.0
H648 H 0.18159 0.02415 0.77381 0.0
H649 H 0.15327 0.09751 0.78654 0.0
H650 H 0.06378 0.0085 0.83379 0.0
H651 H 0.08197 0.01091 0.85483 0.0
H652 H 0.10259 0.96467 0.8418 0.0
H653 H 0.18939 0.98804 0.8485 0.0
H654 H 0.16918 0.0343 0.86161 0.0
H655 H 0.20975 0.0479 0.84516 0.0
H656 H 0.12058 0.16342 0.80514 0.0
H657 H 0.08977 0.21353 0.82754 0.0
H658 H 0.1041 0.09652 0.86124 0.0
C659 C 0.1657 0.98359 0.81292 0.0
C660 C 0.17725 0.98249 0.79617 0.0
C661 C 0.17253 0.02399 0.78667 0.0
C662 C 0.15673 0.06589 0.79381 0.0
C663 C 0.14598 0.06567 0.81045 0.0
C664 C 0.15049 0.02543 0.81982 0.0
C665 C 0.13686 0.03355 0.83736 0.0
C666 C 0.09375 1.00259 0.84223 0.0
C667 C 0.1788 0.02548 0.84883 0.0
C668 C 0.12447 0.08485 0.83654 0.0
C669 C 0.12923 0.10306 0.82096 0.0
C670 C 0.11728 0.14953 0.81742 0.0
C671 C 0.0999 0.17776 0.83017 0.0
C672 C 0.09547 0.15941 0.84622 0.0
C673 C 0.10822 0.1124 0.84926 0.0
H674 H 0.30788 0.89802 0.0614 0.0
H675 H 0.28024 0.04267 0.07444 0.0
H676 H 0.20857 0.01609 0.0897 0.0
H677 H 0.18674 0.86079 0.05633 0.0
H678 H 0.19311 0.80347 0.06522 0.0
H679 H 0.24237 0.83143 0.05478 0.0
H680 H 0.29598 0.82562 0.07972 0.0
H681 H 0.24984 0.79542 0.09099 0.0
H682 H 0.27676 0.84821 0.09914 0.0
H683 H 0.13835 0.97175 0.1036 0.0
H684 H 0.08388 0.9141 0.11727 0.0
H685 H 0.16257 0.79969 0.09631 0.0
C686 C 0.28644 0.9242 0.0673 0.0
C687 C 0.2994 0.97245 0.06663 0.0
C688 C 0.27096 1.00549 0.07482 0.0
C689 C 0.23004 0.99073 0.08341 0.0
C690 C 0.21822 0.94275 0.08381 0.0
C691 C 0.24603 0.91006 0.07607 0.0
C692 C 0.22762 0.86041 0.07902 0.0
C693 C 0.21158 0.83766 0.06289 0.0
C694 C 0.26474 0.83067 0.08772 0.0
C695 C 0.18588 0.86992 0.09002 0.0
C696 C 0.18002 0.9176 0.09235 0.0
C697 C 0.14301 0.93434 0.10194 0.0
C698 C 0.11223 0.90144 0.10967 0.0
C699 C 0.11966 0.85251 0.10816 0.0
C700 C 0.15641 0.83692 0.09791 0.0
H701 H 0.29491 0.0127 0.30756 0.0
H702 H 0.40004 0.12533 0.3114 0.0
H703 H 0.44242 0.07977 0.33227 0.0
H704 H 0.29238 0.97877 0.35014 0.0
H705 H 0.28692 0.91661 0.34595 0.0
H706 H 0.26367 0.95869 0.33175 0.0
H707 H 0.31382 0.92339 0.3084 0.0
H708 H 0.33657 0.8808 0.32247 0.0
H709 H 0.37667 0.91845 0.31101 0.0
H710 H 0.47283 0.02254 0.35276 0.0
H711 H 0.49549 0.95304 0.36878 0.0
H712 H 0.37187 0.87645 0.351 0.0
C713 C 0.32681 0.02766 0.31284 0.0
C714 C 0.34434 0.07238 0.30793 0.0
C715 C 0.3864 0.09084 0.31493 0.0
C716 C 0.41038 0.0655 0.32689 0.0
C717 C 0.39189 0.02171 0.33163 0.0
C718 C 0.35151 1.00258 0.32465 0.0
C719 C 0.34071 0.95364 0.33122 0.0
C720 C 0.29309 0.95185 0.34031 0.0
C721 C 0.34205 0.91691 0.31746 0.0
C722 C 0.38148 0.94817 0.34291 0.0
C723 C 0.41013 0.98814 0.34316 0.0
C724 C 0.45055 0.99111 0.35275 0.0
C725 C 0.46288 0.95156 0.36193 0.0
C726 C 0.43521 0.90944 0.36124 0.0
C727 C 0.39348 0.90826 0.35187 0.0
H728 H 0.84796 0.15616 0.56305 0.0
H729 H 0.76709 0.09346 0.52359 0.0
H730 H 0.6929 0.11726 0.53712 0.0
H731 H 0.77065 0.11961 0.59492 0.0
H732 H 0.77916 0.17249 0.60677 0.0
H733 H 0.82536 0.15298 0.59341 0.0
H734 H 0.82657 0.23403 0.57865 0.0
H735 H 0.78052 0.25373 0.59207 0.0
H736 H 0.77261 0.25613 0.57027 0.0
H737 H 0.62685 0.14919 0.55546 0.0
H738 H 0.5764 0.1809 0.57764 0.0
H739 H 0.70226 0.21862 0.605 0.0
C740 C 0.81468 0.14803 0.55713 0.0
C741 C 0.81325 0.12331 0.54221 0.0
C742 C 0.76892 0.11231 0.53505 0.0
C743 C 0.72665 0.1259 0.5426 0.0
C744 C 0.72933 0.15016 0.55737 0.0
C745 C 0.77233 0.16084 0.56456 0.0
C746 C 0.76595 0.18511 0.5808 0.0
C747 C 0.78648 0.15578 0.5948 0.0
C748 C 0.78769 0.23522 0.58041 0.0
C749 C 0.71269 0.18611 0.58172 0.0
C750 C 0.69191 0.16648 0.56805 0.0
C751 C 0.64283 0.16442 0.56626 0.0
C752 C 0.61445 0.18252 0.57886 0.0
C753 C 0.63539 0.20148 0.59312 0.0
C754 C 0.68511 0.20348 0.59439 0.0
H755 H 0.64384 0.05592 0.30609 0.0
H756 H 0.77521 0.06952 0.33294 0.0
H757 H 0.752 1.00038 0.34968 0.0
H758 H 0.57032 0.01927 0.33963 0.0
H759 H 0.53577 0.97825 0.32765 0.0
H760 H 0.5626 0.02937 0.31808 0.0
H761 H 0.60458 0.97543 0.29727 0.0
H762 H 0.57796 0.92425 0.3069 0.0
H763 H 0.64121 0.92884 0.30464 0.0
H764 H 0.71245 0.93026 0.3643 0.0
H765 H 0.6614 0.86437 0.37449 0.0
H766 H 0.55932 0.89466 0.33673 0.0
C767 C 0.66816 0.04418 0.31533 0.0
C768 C 0.71139 0.06867 0.31816 0.0
C769 C 0.74152 0.05216 0.33065 0.0
C770 C 0.7288 0.0126 0.34018 0.0
C771 C 0.68592 0.98948 0.33706 0.0
C772 C 0.6562 1.00459 0.32486 0.0
C773 C 0.61219 0.97352 0.32388 0.0
C774 C 0.56761 1.0018 0.32753 0.0
C775 C 0.60882 0.94906 0.30718 0.0
C776 C 0.62182 0.93855 0.33739 0.0
C777 C 0.66429 0.94841 0.34498 0.0
C778 C 0.6794 0.9219 0.35829 0.0
C779 C 0.65024 0.88449 0.36399 0.0
C780 C 0.60677 0.87361 0.35625 0.0
C781 C 0.59282 0.90112 0.34272 0.0
H782 H 0.7207 0.89571 0.04947 0.0
H783 H 0.76202 0.04273 0.05475 0.0
H784 H 0.8369 0.01928 0.06745 0.0
H785 H 0.7596 0.86021 0.08706 0.0
H786 H 0.78034 0.80344 0.08084 0.0
H787 H 0.73398 0.83085 0.06962 0.0
H788 H 0.78271 0.82476 0.04294 0.0
H789 H 0.82925 0.79678 0.05406 0.0
H790 H 0.842 0.84903 0.04214 0.0
H791 H 0.9006 0.98096 0.08316 0.0
H792 H 0.94688 0.93039 0.10151 0.0
H793 H 0.86637 0.80803 0.08549 0.0
C794 C 0.74622 0.92285 0.05284 0.0
C795 C 0.73581 0.97102 0.05105 0.0
C796 C 0.76934 1.00564 0.05607 0.0
C797 C 0.81211 0.99263 0.06315 0.0
C798 C 0.82098 0.94484 0.06505 0.0
C799 C 0.78902 0.91043 0.06001 0.0
C800 C 0.80454 0.86185 0.06514 0.0
C801 C 0.7674 0.83771 0.07633 0.0
C802 C 0.81527 0.83131 0.05017 0.0
C803 C 0.84925 0.87445 0.07437 0.0
C804 C 0.85853 0.92248 0.07395 0.0
C805 C 0.89463 0.9432 0.08318 0.0
C806 C 0.92088 0.91432 0.09349 0.0
C807 C 0.91112 0.86541 0.09434 0.0
C808 C 0.87579 0.84509 0.08438 0.0
H809 H 0.86335 0.94064 0.82351 0.0
H810 H 0.75946 0.02371 0.79834 0.0
H811 H 0.78488 0.09398 0.81417 0.0
H812 H 0.85092 0.99551 0.86283 0.0
H813 H 0.91293 0.99257 0.86745 0.0
H814 H 0.88581 0.94919 0.85429 0.0
H815 H 0.94728 0.96929 0.8316 0.0
H816 H 0.97468 0.01236 0.84478 0.0
H817 H 0.95471 0.02946 0.82481 0.0
H818 H 0.8255 0.15702 0.83257 0.0
H819 H 0.87625 0.20427 0.85134 0.0
H820 H 0.95055 0.07747 0.86433 0.0
C821 C 0.84606 0.97362 0.82121 0.0
C822 C 0.80945 0.97651 0.80959 0.0
C823 C 0.78732 0.02038 0.80725 0.0
C824 C 0.80166 0.06058 0.81615 0.0
C825 C 0.83798 0.05644 0.82749 0.0
C826 C 0.85969 0.01386 0.83003 0.0
C827 C 0.89789 0.01824 0.84281 0.0
C828 C 0.88616 0.98703 0.85773 0.0
C829 C 0.9465 1.00666 0.83556 0.0
C830 C 0.8948 0.06998 0.84697 0.0
C831 C 0.86017 0.09175 0.83809 0.0
C832 C 0.85247 0.14007 0.83966 0.0
C833 C 0.88134 0.16669 0.8504 0.0
C834 C 0.91743 0.14489 0.85946 0.0
C835 C 0.92331 0.09568 0.85775 0.0
H836 H 0.79924 0.94395 0.47657 0.0
H837 H 0.82456 0.05926 0.44265 0.0
H838 H 0.75332 0.03459 0.42706 0.0
H839 H 0.76622 0.86009 0.44764 0.0
H840 H 0.72212 0.83151 0.46038 0.0
H841 H 0.77164 0.86174 0.46955 0.0
H842 H 0.7146 0.913 0.48642 0.0
H843 H 0.66481 0.8828 0.4773 0.0
H844 H 0.67007 0.94608 0.47606 0.0
H845 H 0.68205 0.99121 0.41381 0.0
H846 H 0.61931 0.93476 0.40475 0.0
H847 H 0.64346 0.84974 0.4479 0.0
C848 C 0.78965 0.9643 0.46593 0.0
C849 C 0.8175 1.00336 0.46077 0.0
C850 C 0.80345 0.02938 0.44689 0.0
C851 C 0.76315 0.01553 0.43795 0.0
C852 C 0.7371 0.97597 0.44319 0.0
C853 C 0.74979 0.95109 0.45697 0.0
C854 C 0.71794 0.90853 0.45974 0.0
C855 C 0.74617 0.86279 0.45929 0.0
C856 C 0.69021 0.91289 0.47583 0.0
C857 C 0.68591 0.91244 0.44515 0.0
C858 C 0.6969 0.95164 0.43574 0.0
C859 C 0.67288 0.96075 0.42123 0.0
C860 C 0.63723 0.92861 0.41618 0.0
C861 C 0.62646 0.88777 0.42558 0.0
C862 C 0.65079 0.88044 0.44035 0.0
H863 H 0.8015 0.04871 0.22045 0.0
H864 H 0.92695 0.06545 0.25039 0.0
H865 H 0.96104 0.99601 0.23721 0.0
H866 H 0.79838 0.92123 0.21847 0.0
H867 H 0.78044 0.92022 0.19739 0.0
H868 H 0.76383 0.96836 0.21034 0.0
H869 H 0.8024 0.02777 0.18994 0.0
H870 H 0.81902 0.97987 0.17693 0.0
H871 H 0.86335 0.02119 0.18412 0.0
H872 H 0.9831 0.92633 0.21984 0.0
H873 H 0.99265 0.86492 0.19882 0.0
H874 H 0.85517 0.89779 0.17913 0.0
C875 C 0.83621 0.03807 0.22427 0.0
C876 C 0.86122 0.06273 0.23661 0.0
C877 C 0.90637 0.04679 0.24127 0.0
C878 C 0.92627 0.00746 0.23377 0.0
C879 C 0.90082 0.9845 0.22153 0.0
C880 C 0.85687 0.9994 0.21676 0.0
C881 C 0.83799 0.97053 0.20263 0.0
C882 C 0.79247 0.94348 0.20751 0.0
C883 C 0.83026 1.0017 0.18751 0.0
C884 C 0.87847 0.93741 0.20004 0.0
C885 C 0.91411 0.94555 0.2112 0.0
C886 C 0.9553 0.91954 0.21109 0.0
C887 C 0.96034 0.88463 0.19913 0.0
C888 C 0.92465 0.87654 0.18734 0.0
C889 C 0.88314 0.9032 0.18794 0.0
H890 H 0.72291 0.1582 0.97441 0.0
H891 H 0.71301 0.01042 0.96115 0.0
H892 H 0.78129 0.02122 0.94264 0.0
H893 H 0.75574 0.20327 0.93468 0.0
H894 H 0.79673 0.24711 0.94245 0.0
H895 H 0.74692 0.22799 0.95469 0.0
H896 H 0.80358 0.20695 0.97802 0.0
H897 H 0.85413 0.22417 0.9658 0.0
H898 H 0.85006 0.1658 0.97437 0.0
H899 H 0.85138 0.04705 0.92602 0.0
H900 H 0.91836 0.0869 0.91194 0.0
H901 H 0.88258 0.2186 0.93526 0.0
C902 C 0.73528 0.12809 0.96767 0.0
C903 C 0.71233 0.08346 0.96917 0.0
C904 C 0.72948 0.04506 0.96004 0.0
C905 C 0.76841 0.05078 0.94954 0.0
C906 C 0.78992 0.09519 0.94823 0.0
C907 C 0.77404 0.13326 0.95701 0.0
C908 C 0.8039 0.17714 0.95336 0.0
C909 C 0.77403 0.21617 0.94584 0.0
C910 C 0.8294 0.19453 0.96881 0.0
C911 C 0.83857 0.1578 0.94103 0.0
C912 C 0.83009 0.11034 0.93839 0.0
C913 C 0.85826 0.08425 0.92793 0.0
C914 C 0.89628 0.10717 0.92001 0.0
C915 C 0.90558 0.15585 0.92242 0.0
C916 C 0.87601 0.18147 0.93301 0.0
H917 H 0.699 0.99924 0.72301 0.0
H918 H 0.57292 0.90966 0.7205 0.0
H919 H 0.53777 0.96517 0.70113 0.0
H920 H 0.64289 0.10981 0.72003 0.0
H921 H 0.68832 0.13611 0.70727 0.0
H922 H 0.70278 0.08997 0.72138 0.0
H923 H 0.73785 0.04157 0.6976 0.0
H924 H 0.72325 0.08749 0.6834 0.0
H925 H 0.70185 0.02808 0.68007 0.0
H926 H 0.5154 0.03198 0.68251 0.0
H927 H 0.50869 0.1041 0.66571 0.0
H928 H 0.65218 0.14517 0.67862 0.0
C929 C 0.66421 0.99081 0.71831 0.0
C930 C 0.63876 0.95004 0.72349 0.0
C931 C 0.59291 0.94112 0.71712 0.0
C932 C 0.57273 0.97221 0.70594 0.0
C933 C 0.59904 0.01174 0.70103 0.0
C934 C 0.64388 0.02094 0.70694 0.0
C935 C 0.66504 0.06554 0.69958 0.0
C936 C 0.67534 0.10253 0.71286 0.0
C937 C 0.70963 0.05502 0.68957 0.0
C938 C 0.62495 0.08016 0.68868 0.0
C939 C 0.58704 0.04889 0.68975 0.0
C940 C 0.54504 0.05647 0.68143 0.0
C941 C 0.54159 0.09742 0.67191 0.0
C942 C 0.5802 0.12979 0.67063 0.0
C943 C 0.62247 0.12055 0.67901 0.0
H944 H 0.7158 0.46611 0.96539 0.0
H945 H 0.72513 0.36479 1.0049 0.0
H946 H 0.7962 0.33153 0.99202 0.0
H947 H 0.74769 0.38806 0.93382 0.0
H948 H 0.78082 0.43164 0.92223 0.0
H949 H 0.73281 0.44936 0.93514 0.0
H950 H 0.78903 0.50741 0.95034 0.0
H951 H 0.83723 0.48993 0.93744 0.0
H952 H 0.84241 0.48585 0.95932 0.0
H953 H 0.86526 0.30836 0.97439 0.0
H954 H 0.9244 0.2943 0.95278 0.0
H955 H 0.86864 0.41047 0.92471 0.0
C956 C 0.73333 0.43751 0.97148 0.0
C957 C 0.71522 0.4182 0.9862 0.0
C958 C 0.73843 0.37999 0.9936 0.0
C959 C 0.77889 0.36105 0.98642 0.0
C960 C 0.7956 0.38066 0.97183 0.0
C961 C 0.77347 0.41797 0.96443 0.0
C962 C 0.79701 0.43106 0.94837 0.0
C963 C 0.76252 0.42463 0.93405 0.0
C964 C 0.81765 0.48156 0.94891 0.0
C965 C 0.83564 0.3951 0.94782 0.0
C966 C 0.83454 0.3666 0.96151 0.0
C967 C 0.86648 0.33045 0.9636 0.0
C968 C 0.90009 0.32289 0.95128 0.0
C969 C 0.90139 0.3513 0.937 0.0
C970 C 0.86877 0.38804 0.93542 0.0
H971 H 0.88492 0.49885 0.22624 0.0
H972 H 0.74146 0.47703 0.20886 0.0
H973 H 0.75184 0.5447 0.19022 0.0
H974 H 0.88519 0.62377 0.22486 0.0
H975 H 0.94475 0.6317 0.21753 0.0
H976 H 0.92903 0.58095 0.22982 0.0
H977 H 0.95773 0.52389 0.20786 0.0
H978 H 0.97637 0.57312 0.19533 0.0
H979 H 0.93643 0.52893 0.18723 0.0
H980 H 0.77722 0.61658 0.17377 0.0
H981 H 0.81741 0.68403 0.15991 0.0
H982 H 0.94563 0.65518 0.18651 0.0
C983 C 0.85575 0.50777 0.21841 0.0
C984 C 0.81215 0.48244 0.21923 0.0
C985 C 0.77488 0.49622 0.20884 0.0
C986 C 0.78053 0.5345 0.19807 0.0
C987 C 0.82383 0.55864 0.19763 0.0
C988 C 0.86093 0.5456 0.20744 0.0
C989 C 0.9039 0.57737 0.20457 0.0
C990 C 0.91647 0.60504 0.22013 0.0
C991 C 0.94609 0.54913 0.19838 0.0
C992 C 0.88541 0.60973 0.19143 0.0
C993 C 0.83891 0.59885 0.18776 0.0
C994 C 0.81374 0.62518 0.17647 0.0
C995 C 0.83677 0.6635 0.1687 0.0
C996 C 0.88468 0.6747 0.17207 0.0
C997 C 0.90916 0.64718 0.18355 0.0
H998 H 0.75171 0.54634 0.47862 0.0
H999 H 0.84127 0.509 0.4377 0.0
H1000 H 0.77709 0.52737 0.41869 0.0
H1001 H 0.63661 0.50841 0.4607 0.0
H1002 H 0.60706 0.55838 0.4692 0.0
H1003 H 0.6564 0.53347 0.47974 0.0
H1004 H 0.69931 0.6151 0.47979 0.0
H1005 H 0.65 0.64016 0.46946 0.0
H1006 H 0.70836 0.64599 0.46073 0.0
H1007 H 0.70699 0.56026 0.40384 0.0
H1008 H 0.64104 0.61039 0.39498 0.0
H1009 H 0.59957 0.62848 0.44548 0.0
C1010 C 0.75777 0.54141 0.46568 0.0
C1011 C 0.8016 0.52577 0.45975 0.0
C1012 C 0.80775 0.51983 0.44267 0.0
C1013 C 0.77144 0.53027 0.43172 0.0
C1014 C 0.72901 0.54649 0.43799 0.0
C1015 C 0.72213 0.55207 0.4546 0.0
C1016 C 0.67585 0.57549 0.45819 0.0
C1017 C 0.64198 0.54192 0.46751 0.0
C1018 C 0.68389 0.62193 0.46758 0.0
C1019 C 0.65874 0.58418 0.44101 0.0
C1020 C 0.68912 0.56616 0.42946 0.0
C1021 C 0.68244 0.57367 0.41276 0.0
C1022 C 0.64481 0.60186 0.4078 0.0
C1023 C 0.61523 0.62259 0.41958 0.0
C1024 C 0.62139 0.61221 0.43627 0.0
H1025 H 0.66513 0.55666 0.7088 0.0
H1026 H 0.669 0.49825 0.75791 0.0
H1027 H 0.64771 0.42019 0.74697 0.0
H1028 H 0.57082 0.48553 0.69334 0.0
H1029 H 0.59699 0.47748 0.67348 0.0
H1030 H 0.61032 0.53001 0.68499 0.0
H1031 H 0.69965 0.51415 0.68318 0.0
H1032 H 0.68723 0.46201 0.67135 0.0
H1033 H 0.72142 0.45807 0.68979 0.0
H1034 H 0.62297 0.3478 0.73056 0.0
H1035 H 0.60404 0.28695 0.70973 0.0
H1036 H 0.62657 0.39073 0.67145 0.0
C1037 C 0.6622 0.52766 0.71736 0.0
C1038 C 0.66835 0.53462 0.73437 0.0
C1039 C 0.6632 0.49496 0.74492 0.0
C1040 C 0.6515 0.45005 0.73879 0.0
C1041 C 0.64584 0.44472 0.72202 0.0
C1042 C 0.65166 0.48237 0.71143 0.0
C1043 C 0.64554 0.46695 0.69385 0.0
C1044 C 0.60341 0.49144 0.68595 0.0
C1045 C 0.69118 0.47582 0.68396 0.0
C1046 C 0.63553 0.41473 0.69619 0.0
C1047 C 0.63503 0.40264 0.71255 0.0
C1048 C 0.62402 0.35676 0.71771 0.0
C1049 C 0.6134 0.32243 0.70584 0.0
C1050 C 0.61511 0.33395 0.68903 0.0
C1051 C 0.62643 0.38068 0.68422 0.0
H1052 H 0.66829 0.62241 0.07805 0.0
H1053 H 0.74988 0.52087 0.05107 0.0
H1054 H 0.82176 0.54642 0.066 0.0
H1055 H 0.75537 0.71407 0.07789 0.0
H1056 H 0.74104 0.73415 0.09815 0.0
H1057 H 0.69635 0.7058 0.08586 0.0
H1058 H 0.68084 0.64447 0.10892 0.0
H1059 H 0.72577 0.67256 0.12122 0.0
H1060 H 0.72917 0.61071 0.1166 0.0
H1061 H 0.88656 0.58741 0.08342 0.0
H1062 H 0.93595 0.63959 0.10103 0.0
H1063 H 0.80984 0.71206 0.11628 0.0
C1064 C 0.70123 0.60551 0.07522 0.0
C1065 C 0.70326 0.56959 0.06335 0.0
C1066 C 0.74718 0.54809 0.06024 0.0
C1067 C 0.78829 0.56251 0.06863 0.0
C1068 C 0.785 0.59827 0.0802 0.0
C1069 C 0.74239 0.61929 0.0835 0.0
C1070 C 0.748 0.65764 0.09615 0.0
C1071 C 0.7344 0.70575 0.08909 0.0
C1072 C 0.71924 0.6456 0.11164 0.0
C1073 C 0.80048 0.65554 0.09932 0.0
C1074 C 0.8215 0.62108 0.09012 0.0
C1075 C 0.87025 0.61424 0.09076 0.0
C1076 C 0.89807 0.64391 0.10085 0.0
C1077 C 0.87704 0.68002 0.11011 0.0
C1078 C 0.82742 0.68492 0.10944 0.0
H1079 H 0.6516 0.50882 0.29751 0.0
H1080 H 0.77713 0.49196 0.3269 0.0
H1081 H 0.75513 0.56078 0.34349 0.0
H1082 H 0.65112 0.63823 0.29826 0.0
H1083 H 0.58764 0.63989 0.29956 0.0
H1084 H 0.61556 0.59194 0.28919 0.0
H1085 H 0.57019 0.53255 0.30781 0.0
H1086 H 0.54281 0.58007 0.31851 0.0
H1087 H 0.57585 0.53722 0.32967 0.0
H1088 H 0.71479 0.62614 0.35865 0.0
H1089 H 0.66086 0.68443 0.37047 0.0
H1090 H 0.5632 0.65969 0.33057 0.0
C1091 C 0.67469 0.51989 0.30734 0.0
C1092 C 0.71614 0.49514 0.3109 0.0
C1093 C 0.74553 0.5108 0.32383 0.0
C1094 C 0.73325 0.54974 0.33335 0.0
C1095 C 0.69177 0.57297 0.32965 0.0
C1096 C 0.66317 0.55885 0.31686 0.0
C1097 C 0.61945 0.58838 0.31586 0.0
C1098 C 0.61841 0.61627 0.29976 0.0
C1099 C 0.57444 0.55769 0.31809 0.0
C1100 C 0.62734 0.62068 0.3303 0.0
C1101 C 0.66927 0.61135 0.3381 0.0
C1102 C 0.68231 0.63437 0.35246 0.0
C1103 C 0.65144 0.66738 0.35909 0.0
C1104 C 0.60814 0.67718 0.35132 0.0
C1105 C 0.59653 0.65392 0.3366 0.0
H1106 H 0.82794 0.44474 0.57754 0.0
H1107 H 0.74536 0.46003 0.53348 0.0
H1108 H 0.67228 0.44293 0.54929 0.0
H1109 H 0.76438 0.34802 0.59289 0.0
H1110 H 0.76957 0.36508 0.61399 0.0
H1111 H 0.81383 0.38404 0.59948 0.0
H1112 H 0.80013 0.47096 0.60765 0.0
H1113 H 0.75523 0.45214 0.62206 0.0
H1114 H 0.74161 0.49439 0.6064 0.0
H1115 H 0.60876 0.4166 0.56967 0.0
H1116 H 0.56322 0.37669 0.59173 0.0
H1117 H 0.68755 0.38142 0.62244 0.0
C1118 C 0.79439 0.44569 0.57128 0.0
C1119 C 0.79242 0.45412 0.55428 0.0
C1120 C 0.74783 0.45351 0.54648 0.0
C1121 C 0.70606 0.44429 0.5554 0.0
C1122 C 0.70932 0.43588 0.57214 0.0
C1123 C 0.75249 0.43638 0.57997 0.0
C1124 C 0.74721 0.42177 0.59768 0.0
C1125 C 0.77539 0.37709 0.60121 0.0
C1126 C 0.76192 0.46224 0.60912 0.0
C1127 C 0.6945 0.41197 0.59855 0.0
C1128 C 0.67298 0.42087 0.5838 0.0
C1129 C 0.62513 0.41029 0.58136 0.0
C1130 C 0.59932 0.388 0.59405 0.0
C1131 C 0.62157 0.37611 0.60892 0.0
C1132 C 0.66919 0.39046 0.61133 0.0
H1133 H 0.78771 0.53473 0.81656 0.0
H1134 H 0.89445 0.54099 0.77828 0.0
H1135 H 0.92697 0.46685 0.78838 0.0
H1136 H 0.86549 0.50278 0.84694 0.0
H1137 H 0.82364 0.46571 0.8579 0.0
H1138 H 0.80315 0.51373 0.8457 0.0
H1139 H 0.74906 0.45556 0.82964 0.0
H1140 H 0.77002 0.40716 0.84171 0.0
H1141 H 0.77444 0.40535 0.81976 0.0
H1142 H 0.9535 0.39686 0.8043 0.0
H1143 H 0.97764 0.3437 0.82648 0.0
H1144 H 0.85736 0.38655 0.8554 0.0
C1145 C 0.81779 0.52064 0.81018 0.0
C1146 C 0.838 0.5439 0.79647 0.0
C1147 C 0.87725 0.52355 0.78853 0.0
C1148 C 0.89614 0.48132 0.7942 0.0
C1149 C 0.87566 0.4598 0.80787 0.0
C1150 C 0.83762 0.47908 0.81585 0.0
C1151 C 0.82602 0.45277 0.8315 0.0
C1152 C 0.82984 0.4857 0.84638 0.0
C1153 C 0.77697 0.42878 0.83059 0.0
C1154 C 0.86467 0.41682 0.83141 0.0
C1155 C 0.89209 0.42049 0.81744 0.0
C1156 C 0.93189 0.39317 0.81517 0.0
C1157 C 0.94517 0.36281 0.82781 0.0
C1158 C 0.91923 0.36088 0.84263 0.0
C1159 C 0.87757 0.38698 0.84414 0.0
H1160 H 0.27022 0.63883 0.04531 0.0
H1161 H 0.2516 0.49213 0.05985 0.0
H1162 H 0.17749 0.51135 0.07358 0.0
H1163 H 0.23949 0.67935 0.08335 0.0
H1164 H 0.20978 0.73151 0.07709 0.0
H1165 H 0.25609 0.70849 0.06452 0.0
H1166 H 0.20238 0.701 0.03951 0.0
H1167 H 0.15539 0.72717 0.05103 0.0
H1168 H 0.14588 0.67095 0.04127 0.0
H1169 H 0.11139 0.54718 0.08895 0.0
H1170 H 0.06275 0.59821 0.10639 0.0
H1171 H 0.12484 0.72189 0.08315 0.0
C1172 C 0.25063 0.6104 0.05121 0.0
C1173 C 0.2671 0.56359 0.05108 0.0
C1174 C 0.23964 0.52798 0.05912 0.0
C1175 C 0.19728 0.53857 0.06709 0.0
C1176 C 0.18259 0.58504 0.06711 0.0
C1177 C 0.20866 0.62047 0.0595 0.0
C1178 C 0.18902 0.66842 0.06339 0.0
C1179 C 0.22582 0.69872 0.07261 0.0
C1180 C 0.17216 0.69335 0.04787 0.0
C1181 C 0.14784 0.65447 0.07438 0.0
C1182 C 0.1445 0.60608 0.07624 0.0
C1183 C 0.1128 0.58499 0.08726 0.0
C1184 C 0.0851 0.61413 0.09703 0.0
C1185 C 0.08898 0.66368 0.09562 0.0
C1186 C 0.1197 0.68402 0.08384 0.0
H1187 H 0.17194 0.58757 0.82767 0.0
H1188 H 0.21849 0.50127 0.78738 0.0
H1189 H 0.19405 0.42939 0.80271 0.0
H1190 H 0.20411 0.50769 0.86099 0.0
H1191 H 0.15216 0.52052 0.87282 0.0
H1192 H 0.17756 0.56463 0.85936 0.0
H1193 H 0.09726 0.57217 0.84463 0.0
H1194 H 0.07163 0.52848 0.85812 0.0
H1195 H 0.06875 0.5202 0.83634 0.0
H1196 H 0.16077 0.36634 0.82236 0.0
H1197 H 0.11488 0.31992 0.84292 0.0
H1198 H 0.08848 0.44814 0.86976 0.0
C1199 C 0.17782 0.5535 0.82221 0.0
C1200 C 0.19761 0.55006 0.80638 0.0
C1201 C 0.20345 0.50479 0.79949 0.0
C1202 C 0.18994 0.46374 0.80816 0.0
C1203 C 0.1703 0.46836 0.82372 0.0
C1204 C 0.16394 0.51223 0.83061 0.0
C1205 C 0.13851 0.508 0.84689 0.0
C1206 C 0.16997 0.5263 0.86084 0.0
C1207 C 0.09124 0.53372 0.84646 0.0
C1208 C 0.13093 0.45506 0.84801 0.0
C1209 C 0.15016 0.43256 0.83469 0.0
C1210 C 0.14591 0.38367 0.83288 0.0
C1211 C 0.12011 0.35745 0.8447 0.0
C1212 C 0.09829 0.38026 0.85801 0.0
C1213 C 0.10497 0.42955 0.85979 0.0
H1214 H 0.23336 0.46114 0.56309 0.0
H1215 H 0.22969 0.35346 0.5254 0.0
H1216 H 0.30129 0.31952 0.53675 0.0
H1217 H 0.36081 0.47233 0.56791 0.0
H1218 H 0.35717 0.47676 0.58983 0.0
H1219 H 0.30968 0.49763 0.57736 0.0
H1220 H 0.25012 0.44362 0.59311 0.0
H1221 H 0.29729 0.42311 0.60572 0.0
H1222 H 0.26099 0.38143 0.59461 0.0
H1223 H 0.37142 0.29402 0.553 0.0
H1224 H 0.42687 0.27298 0.57494 0.0
H1225 H 0.3796 0.39153 0.60352 0.0
C1226 C 0.2472 0.43041 0.55713 0.0
C1227 C 0.22559 0.41098 0.54302 0.0
C1228 C 0.24589 0.37064 0.53578 0.0
C1229 C 0.28668 0.35067 0.54223 0.0
C1230 C 0.30672 0.37073 0.55611 0.0
C1231 C 0.2872 0.40923 0.56363 0.0
C1232 C 0.31235 0.42083 0.57945 0.0
C1233 C 0.33643 0.4698 0.57858 0.0
C1234 C 0.27816 0.41699 0.59408 0.0
C1235 C 0.34845 0.38224 0.57979 0.0
C1236 C 0.34545 0.35444 0.566 0.0
C1237 C 0.3743 0.31574 0.5638 0.0
C1238 C 0.40596 0.30424 0.57627 0.0
C1239 C 0.4077 0.33079 0.59086 0.0
C1240 C 0.37926 0.37084 0.59243 0.0
H1241 H 0.37513 0.45774 0.30643 0.0
H1242 H 0.23484 0.46393 0.32773 0.0
H1243 H 0.26196 0.52844 0.34579 0.0
H1244 H 0.43983 0.48024 0.34325 0.0
H1245 H 0.48481 0.51656 0.3336 0.0
H1246 H 0.45515 0.47077 0.32214 0.0
H1247 H 0.43067 0.53098 0.30034 0.0
H1248 H 0.4599 0.57783 0.31138 0.0
H1249 H 0.3984 0.58221 0.30634 0.0
H1250 H 0.30357 0.59411 0.36092 0.0
H1251 H 0.3573 0.65608 0.37206 0.0
H1252 H 0.47079 0.60607 0.3415 0.0
C1253 C 0.35002 0.47286 0.31482 0.0
C1254 C 0.30283 0.45568 0.31568 0.0
C1255 C 0.27127 0.47611 0.32697 0.0
C1256 C 0.28631 0.51287 0.33725 0.0
C1257 C 0.33309 0.52875 0.33616 0.0
C1258 C 0.36451 0.5094 0.32524 0.0
C1259 C 0.41276 0.53325 0.32639 0.0
C1260 C 0.45035 0.4981 0.33166 0.0
C1261 C 0.42622 0.55749 0.31015 0.0
C1262 C 0.4036 0.56901 0.33967 0.0
C1263 C 0.35733 0.56594 0.3451 0.0
C1264 C 0.33996 0.59655 0.35688 0.0
C1265 C 0.37058 0.63148 0.36315 0.0
C1266 C 0.41796 0.63499 0.35776 0.0
C1267 C 0.4348 0.60325 0.34599 0.0
H1268 H 0.24348 0.47308 0.97508 0.0
H1269 H 0.35473 0.40916 0.94674 0.0
H1270 H 0.29663 0.38457 0.92596 0.0
H1271 H 0.15751 0.38316 0.96804 0.0
H1272 H 0.10812 0.42193 0.96671 0.0
H1273 H 0.15889 0.43873 0.97865 0.0
H1274 H 0.16765 0.51622 0.96204 0.0
H1275 H 0.11695 0.49948 0.94998 0.0
H1276 H 0.17245 0.51365 0.9401 0.0
H1277 H 0.22729 0.36141 0.90946 0.0
H1278 H 0.14936 0.33839 0.89843 0.0
H1279 H 0.08074 0.41699 0.93678 0.0
C1280 C 0.25555 0.45465 0.96434 0.0
C1281 C 0.30366 0.44306 0.96249 0.0
C1282 C 0.31807 0.41813 0.94844 0.0
C1283 C 0.28537 0.4043 0.93652 0.0
C1284 C 0.23822 0.41564 0.93877 0.0
C1285 C 0.22311 0.44014 0.95231 0.0
C1286 C 0.1697 0.44468 0.9522 0.0
C1287 C 0.14725 0.42069 0.96729 0.0
C1288 C 0.15588 0.49661 0.95101 0.0
C1289 C 0.15724 0.41819 0.93664 0.0
C1290 C 0.19756 0.4022 0.92906 0.0
C1291 C 0.19552 0.37428 0.91513 0.0
C1292 C 0.15114 0.3614 0.90896 0.0
C1293 C 0.10926 0.37653 0.91661 0.0
C1294 C 0.11231 0.40609 0.93046 0.0
H1295 H 0.32037 0.56749 0.70213 0.0
H1296 H 0.42187 0.56005 0.74174 0.0
H1297 H 0.46607 0.50144 0.72631 0.0
H1298 H 0.31586 0.44295 0.69572 0.0
H1299 H 0.3079 0.4479 0.67396 0.0
H1300 H 0.2871 0.49344 0.68725 0.0
H1301 H 0.33652 0.55541 0.67088 0.0
H1302 H 0.35798 0.50988 0.65767 0.0
H1303 H 0.39915 0.54772 0.6684 0.0
H1304 H 0.49921 0.44318 0.7069 0.0
H1305 H 0.51285 0.38087 0.68678 0.0
H1306 H 0.38478 0.4187 0.66134 0.0
C1307 C 0.35153 0.55346 0.70777 0.0
C1308 C 0.36772 0.56963 0.72317 0.0
C1309 C 0.40921 0.54999 0.72978 0.0
C1310 C 0.43459 0.51627 0.72114 0.0
C1311 C 0.41769 0.50163 0.70603 0.0
C1312 C 0.37661 0.51882 0.69954 0.0
C1313 C 0.36387 0.49406 0.68374 0.0
C1314 C 0.31585 0.46804 0.68527 0.0
C1315 C 0.36443 0.52886 0.66932 0.0
C1316 C 0.40405 0.45991 0.68246 0.0
C1317 C 0.43524 0.46572 0.69525 0.0
C1318 C 0.47506 0.43829 0.69682 0.0
C1319 C 0.48258 0.40308 0.68524 0.0
C1320 C 0.4498 0.39478 0.67245 0.0
C1321 C 0.41045 0.42419 0.67094 0.0
H1322 H 0.23692 0.63316 0.47801 0.0
H1323 H 0.21823 0.50628 0.44891 0.0
H1324 H 0.28682 0.52966 0.43219 0.0
H1325 H 0.27666 0.71048 0.446 0.0
H1326 H 0.32084 0.74059 0.45808 0.0
H1327 H 0.26902 0.71534 0.46779 0.0
H1328 H 0.32162 0.66672 0.48704 0.0
H1329 H 0.37357 0.69219 0.47744 0.0
H1330 H 0.36567 0.62908 0.47842 0.0
H1331 H 0.35358 0.56818 0.4174 0.0
H1332 H 0.42174 0.61563 0.40735 0.0
H1333 H 0.40484 0.71298 0.44756 0.0
C1334 C 0.24745 0.60991 0.46827 0.0
C1335 C 0.22098 0.56825 0.46464 0.0
C1336 C 0.23641 0.53917 0.45168 0.0
C1337 C 0.27576 0.5519 0.44215 0.0
C1338 C 0.30031 0.59337 0.44587 0.0
C1339 C 0.28743 0.62163 0.45876 0.0
C1340 C 0.32126 0.66368 0.46032 0.0
C1341 C 0.29539 0.71027 0.4579 0.0
C1342 C 0.34706 0.66284 0.47679 0.0
C1343 C 0.35483 0.6545 0.44623 0.0
C1344 C 0.34145 0.61408 0.43794 0.0
C1345 C 0.36494 0.59947 0.42393 0.0
C1346 C 0.40345 0.62666 0.41829 0.0
C1347 C 0.41872 0.66742 0.42683 0.0
C1348 C 0.39425 0.68145 0.44102 0.0
H1349 H 0.20415 0.49137 0.21867 0.0
H1350 H 0.08154 0.47441 0.2504 0.0
H1351 H 0.04874 0.54701 0.23895 0.0
H1352 H 0.21112 0.61944 0.21785 0.0
H1353 H 0.22627 0.6215 0.19646 0.0
H1354 H 0.24326 0.572 0.20875 0.0
H1355 H 0.20047 0.51495 0.18875 0.0
H1356 H 0.18363 0.56418 0.17638 0.0
H1357 H 0.1391 0.52362 0.18414 0.0
H1358 H 0.02783 0.62033 0.22307 0.0
H1359 H 0.01593 0.68166 0.20198 0.0
H1360 H 0.14889 0.64499 0.1793 0.0
C1361 C 0.17037 0.5026 0.22328 0.0
C1362 C 0.14581 0.47693 0.23559 0.0
C1363 C 0.10187 0.49377 0.24129 0.0
C1364 C 0.08275 0.53499 0.2348 0.0
C1365 C 0.10775 0.55892 0.22255 0.0
C1366 C 0.15039 0.543 0.21675 0.0
C1367 C 0.16819 0.5723 0.20247 0.0
C1368 C 0.21498 0.59783 0.20664 0.0
C1369 C 0.17311 0.54195 0.18702 0.0
C1370 C 0.12842 0.60663 0.2009 0.0
C1371 C 0.09438 0.59915 0.2128 0.0
C1372 C 0.05407 0.62639 0.21362 0.0
C1373 C 0.0477 0.66118 0.20163 0.0
C1374 C 0.08115 0.6677 0.18887 0.0
C1375 C 0.12242 0.64063 0.1888 0.0
loop_
_geom_bond_atom_site_label_1
_geom_bond_atom_site_label_2
_geom_bond_distance
_geom_bond_site_symmetry_2
_ccdc_geom_bond_type
H0 C19 0.949 . S
H1 C20 0.950 . S
H2 C22 0.938 1_545 S
H3 C23 0.950 . S
H4 C25 0.950 . S
H5 C28 0.950 1_565 S
H6 C29 0.950 . S
H7 C31 0.951 . S
H8 C32 0.949 . S
H9 C34 0.949 . S
H10 C35 0.950 . S
H11 C37 0.950 . S
H12 C38 0.950 1_565 S
H13 C40 0.950 . S
H14 C43 0.950 . S
H15 C44 0.950 1_545 S
H16 C46 0.951 . S
H17 C47 0.949 . S
C18 C19 1.376 . S
C18 C23 1.386 1_565 S
C18 C24 1.483 . S
C19 H0 0.949 . S
C19 C18 1.376 . S
C19 C20 1.397 . S
C20 H1 0.950 . S
C20 C19 1.397 . S
C20 C21 1.391 . S
C21 C20 1.391 . S
C21 C22 1.423 . S
C22 H2 0.938 1_565 S
C22 C21 1.423 . S
C22 C23 1.362 1_565 S
C23 H3 0.950 . S
C23 C18 1.386 1_545 S
C23 C22 1.362 1_545 S
C24 C18 1.483 . S
C24 C25 1.382 . S
C24 C26 1.403 1_565 S
C25 H4 0.950 . S
C25 C24 1.382 . S
C25 C41 1.411 1_655 S
C26 C24 1.403 1_545 S
C26 C27 1.489 . S
C26 C40 1.411 1_655 S
C27 C26 1.489 . S
C27 C28 1.383 . S
C27 C32 1.382 . S
C28 H5 0.950 1_545 S
C28 C27 1.383 . S
C28 C29 1.395 . S
C29 H6 0.950 . S
C29 C28 1.395 . S
C29 C30 1.288 . S
C30 C29 1.288 . S
C30 C31 1.392 . S
C31 H7 0.951 . S
C31 C30 1.392 . S
C31 C32 1.392 . S
C32 H8 0.949 . S
C32 C27 1.382 . S
C32 C31 1.392 . S
C33 C34 1.376 . S
C33 C38 1.386 . S
C33 C39 1.483 . S
C34 H9 0.949 . S
C34 C33 1.376 . S
C34 C35 1.397 . S
C35 H10 0.950 . S
C35 C34 1.397 . S
C35 C36 1.391 . S
C36 C35 1.391 . S
C36 C37 1.405 . S
C37 H11 0.950 . S
C37 C36 1.405 . S
C37 C38 1.367 . S
C38 H12 0.950 1_545 S
C38 C33 1.386 . S
C38 C37 1.367 . S
C39 C33 1.483 . S
C39 C40 1.382 . S
C39 C41 1.403 1_545 S
C40 H13 0.950 . S
C40 C26 1.411 1_455 S
C40 C39 1.382 . S
C41 C25 1.411 1_455 S
C41 C39 1.403 1_565 S
C41 C42 1.489 . S
C42 C41 1.489 . S
C42 C43 1.383 1_565 S
C42 C47 1.382 . S
C43 H14 0.950 . S
C43 C42 1.383 1_545 S
C43 C44 1.395 1_545 S
C44 H15 0.950 1_565 S
C44 C43 1.395 1_565 S
C44 C45 1.288 . S
C45 C44 1.288 . S
C45 C46 1.392 . S
C46 H16 0.951 . S
C46 C45 1.392 . S
C46 C47 1.392 . S
C47 H17 0.949 . S
C47 C42 1.382 . S
C47 C46 1.392 . S
H48 C67 0.949 . S
H49 C68 0.950 . S
H50 C70 0.950 . S
H51 C71 0.950 . S
H52 C73 0.950 . S
H53 C76 0.950 . S
H54 C77 0.950 . S
H55 C79 0.951 . S
H56 C80 0.949 . S
H57 C82 0.949 . S
H58 C83 0.950 . S
H59 C85 0.950 . S
H60 C86 0.950 . S
H61 C88 0.950 . S
H62 C91 0.950 . S
H63 C92 0.950 . S
H64 C94 0.951 . S
H65 C95 0.949 . S
C66 C67 1.376 . S
C66 C71 1.386 . S
C66 C72 1.483 . S
C67 H48 0.949 . S
C67 C66 1.376 . S
C67 C68 1.397 . S
C68 H49 0.950 . S
C68 C67 1.397 . S
C68 C69 1.391 . S
C69 C68 1.391 . S
C69 C70 1.405 . S
C70 H50 0.950 . S
C70 C69 1.405 . S
C70 C71 1.367 . S
C71 H51 0.950 . S
C71 C66 1.386 . S
C71 C70 1.367 . S
C72 C66 1.483 . S
C72 C73 1.382 . S
C72 C74 1.403 . S
C73 H52 0.950 . S
C73 C72 1.382 . S
C73 C89 1.411 . S
C74 C72 1.403 . S
C74 C75 1.489 . S
C74 C88 1.411 . S
C75 C74 1.489 . S
C75 C76 1.383 . S
C75 C80 1.382 . S
C76 H53 0.950 . S
C76 C75 1.383 . S
C76 C77 1.395 . S
C77 H54 0.950 . S
C77 C76 1.395 . S
C77 C78 1.288 . S
C78 C77 1.288 . S
C78 C79 1.392 . S
C79 H55 0.951 . S
C79 C78 1.392 . S
C79 C80 1.392 . S
C80 H56 0.949 . S
C80 C75 1.382 . S
C80 C79 1.392 . S
C81 C82 1.376 . S
C81 C86 1.386 . S
C81 C87 1.483 . S
C82 H57 0.949 . S
C82 C81 1.376 . S
C82 C83 1.397 . S
C83 H58 0.950 . S
C83 C82 1.397 . S
C83 C84 1.391 . S
C84 C83 1.391 . S
C84 C85 1.405 . S
C85 H59 0.950 . S
C85 C84 1.405 . S
C85 C86 1.367 . S
C86 H60 0.950 . S
C86 C81 1.386 . S
C86 C85 1.367 . S
C87 C81 1.483 . S
C87 C88 1.382 . S
C87 C89 1.403 . S
C88 H61 0.950 . S
C88 C74 1.411 . S
C88 C87 1.382 . S
C89 C73 1.411 . S
C89 C87 1.403 . S
C89 C90 1.489 . S
C90 C89 1.489 . S
C90 C91 1.383 . S
C90 C95 1.382 . S
C91 H62 0.950 . S
C91 C90 1.383 . S
C91 C92 1.395 . S
C92 H63 0.950 . S
C92 C91 1.395 . S
C92 C93 1.288 . S
C93 C92 1.288 . S
C93 C94 1.392 . S
C94 H64 0.951 . S
C94 C93 1.392 . S
C94 C95 1.392 . S
C95 H65 0.949 . S
C95 C90 1.382 . S
C95 C94 1.392 . S
H96 C115 0.949 1_545 S
H97 C116 0.950 . S
H98 C118 0.950 . S
H99 C119 0.950 . S
H100 C121 0.950 . S
H101 C124 0.950 . S
H102 C125 0.950 . S
H103 C127 0.951 . S
H104 C128 0.949 . S
H105 C130 0.949 1_565 S
H106 C131 0.950 . S
H107 C133 0.949 . S
H108 C134 0.950 . S
H109 C136 0.950 . S
H110 C139 0.950 . S
H111 C140 0.950 . S
H112 C142 0.951 . S
H113 C143 0.955 . S
C114 C115 1.376 . S
C114 C119 1.386 . S
C114 C120 1.483 . S
C115 H96 0.949 1_565 S
C115 C114 1.376 . S
C115 C116 1.397 . S
C116 H97 0.950 . S
C116 C115 1.397 . S
C116 C117 1.391 . S
C117 C116 1.391 . S
C117 C118 1.405 . S
C118 H98 0.950 . S
C118 C117 1.405 . S
C118 C119 1.367 . S
C119 H99 0.950 . S
C119 C114 1.386 . S
C119 C118 1.367 . S
C120 C114 1.483 . S
C120 C121 1.382 . S
C120 C122 1.403 1_565 S
C121 H100 0.950 . S
C121 C120 1.382 . S
C121 C137 1.411 . S
C122 C120 1.403 1_545 S
C122 C123 1.489 1_554 S
C122 C136 1.411 1_554 S
C123 C122 1.489 1_556 S
C123 C124 1.383 1_556 S
C123 C128 1.382 . S
C124 H101 0.950 . S
C124 C123 1.383 1_554 S
C124 C125 1.395 1_554 S
C125 H102 0.950 . S
C125 C124 1.395 1_556 S
C125 C126 1.288 . S
C126 C125 1.288 . S
C126 C127 1.392 . S
C127 H103 0.951 . S
C127 C126 1.392 . S
C127 C128 1.392 . S
C128 H104 0.949 . S
C128 C123 1.382 . S
C128 C127 1.392 . S
C129 C130 1.376 . S
C129 C134 1.386 1_556 S
C129 C135 1.483 1_556 S
C130 H105 0.949 1_545 S
C130 C129 1.376 . S
C130 C131 1.397 . S
C131 H106 0.950 . S
C131 C130 1.397 . S
C131 C132 1.391 . S
C132 C131 1.391 . S
C132 C133 1.405 . S
C133 H107 0.949 . S
C133 C132 1.405 . S
C133 C134 1.367 1_556 S
C134 H108 0.950 . S
C134 C129 1.386 1_554 S
C134 C133 1.367 1_554 S
C135 C129 1.483 1_554 S
C135 C136 1.382 1_554 S
C135 C137 1.403 1_545 S
C136 H109 0.950 . S
C136 C122 1.411 1_556 S
C136 C135 1.382 1_556 S
C137 C121 1.411 . S
C137 C135 1.403 1_565 S
C137 C138 1.489 . S
C138 C137 1.489 . S
C138 C139 1.383 . S
C138 C143 1.382 . S
C139 H110 0.950 . S
C139 C138 1.383 . S
C139 C140 1.395 . S
C140 H111 0.950 . S
C140 C139 1.395 . S
C140 C141 1.288 . S
C141 C140 1.288 . S
C141 C142 1.392 . S
C142 H112 0.951 . S
C142 C141 1.392 . S
C142 C143 1.392 . S
C143 H113 0.955 . S
C143 C138 1.382 . S
C143 C142 1.392 . S
H144 C163 0.949 . S
H145 C164 0.950 . S
H146 C166 0.950 . S
H147 C167 0.950 . S
H148 C169 0.950 . S
H149 C172 0.950 . S
H150 C173 0.950 . S
H151 C175 0.951 . S
H152 C176 0.949 . S
H153 C178 0.949 . S
H154 C179 0.950 . S
H155 C181 0.950 . S
H156 C182 0.950 . S
H157 C184 0.950 . S
H158 C187 0.950 . S
H159 C188 0.950 . S
H160 C190 0.951 . S
H161 C191 0.949 . S
C162 C163 1.376 . S
C162 C167 1.386 . S
C162 C168 1.483 . S
C163 H144 0.949 . S
C163 C162 1.376 . S
C163 C164 1.397 . S
C164 H145 0.950 . S
C164 C163 1.397 . S
C164 C165 1.391 . S
C165 C164 1.391 . S
C165 C166 1.405 . S
C166 H146 0.950 . S
C166 C165 1.405 . S
C166 C167 1.367 . S
C167 H147 0.950 . S
C167 C162 1.386 . S
C167 C166 1.367 . S
C168 C162 1.483 . S
C168 C169 1.382 . S
C168 C170 1.403 . S
C169 H148 0.950 . S
C169 C168 1.382 . S
C169 C185 1.411 . S
C170 C168 1.403 . S
C170 C171 1.489 . S
C170 C184 1.411 . S
C171 C170 1.489 . S
C171 C172 1.383 . S
C171 C176 1.382 . S
C172 H149 0.950 . S
C172 C171 1.383 . S
C172 C173 1.395 . S
C173 H150 0.950 . S
C173 C172 1.395 . S
C173 C174 1.288 . S
C174 C173 1.288 . S
C174 C175 1.392 . S
C175 H151 0.951 . S
C175 C174 1.392 . S
C175 C176 1.392 . S
C176 H152 0.949 . S
C176 C171 1.382 . S
C176 C175 1.392 . S
C177 C178 1.376 . S
C177 C182 1.386 . S
C177 C183 1.483 . S
C178 H153 0.949 . S
C178 C177 1.376 . S
C178 C179 1.397 . S
C179 H154 0.950 . S
C179 C178 1.397 . S
C179 C180 1.391 . S
C180 C179 1.391 . S
C180 C181 1.405 . S
C181 H155 0.950 . S
C181 C180 1.405 . S
C181 C182 1.367 . S
C182 H156 0.950 . S
C182 C177 1.386 . S
C182 C181 1.367 . S
C183 C177 1.483 . S
C183 C184 1.382 . S
C183 C185 1.403 . S
C184 H157 0.950 . S
C184 C170 1.411 . S
C184 C183 1.382 . S
C185 C169 1.411 . S
C185 C183 1.403 . S
C185 C186 1.489 . S
C186 C185 1.489 . S
C186 C187 1.383 . S
C186 C191 1.382 . S
C187 H158 0.950 . S
C187 C186 1.383 . S
C187 C188 1.395 . S
C188 H159 0.950 . S
C188 C187 1.395 . S
C188 C189 1.288 . S
C189 C188 1.288 . S
C189 C190 1.392 . S
C190 H160 0.951 . S
C190 C189 1.392 . S
C190 C191 1.392 . S
C191 H161 0.949 . S
C191 C186 1.382 . S
C191 C190 1.392 . S
H192 C211 0.949 . S
H193 C212 0.950 . S
H194 C214 0.950 . S
H195 C215 0.950 . S
H196 C217 0.950 . S
H197 C220 0.950 . S
H198 C221 0.950 . S
H199 C223 0.951 . S
H200 C224 0.949 . S
H201 C226 0.949 . S
H202 C227 0.950 . S
H203 C229 0.950 . S
H204 C230 0.950 . S
H205 C232 0.950 . S
H206 C235 0.950 . S
H207 C236 0.950 . S
H208 C238 0.951 . S
H209 C239 0.949 . S
C210 C211 1.376 . S
C210 C215 1.386 . S
C210 C216 1.483 . S
C211 H192 0.949 . S
C211 C210 1.376 . S
C211 C212 1.397 . S
C212 H193 0.950 . S
C212 C211 1.397 . S
C212 C213 1.391 . S
C213 C212 1.391 . S
C213 C214 1.405 . S
C214 H194 0.950 . S
C214 C213 1.405 . S
C214 C215 1.367 . S
C215 H195 0.950 . S
C215 C210 1.386 . S
C215 C214 1.367 . S
C216 C210 1.483 . S
C216 C217 1.382 . S
C216 C218 1.403 . S
C217 H196 0.950 . S
C217 C216 1.382 . S
C217 C233 1.411 . S
C218 C216 1.403 . S
C218 C219 1.489 . S
C218 C232 1.411 . S
C219 C218 1.489 . S
C219 C220 1.383 . S
C219 C224 1.382 . S
C220 H197 0.950 . S
C220 C219 1.383 . S
C220 C221 1.395 . S
C221 H198 0.950 . S
C221 C220 1.395 . S
C221 C222 1.288 . S
C222 C221 1.288 . S
C222 C223 1.392 . S
C223 H199 0.951 . S
C223 C222 1.392 . S
C223 C224 1.392 . S
C224 H200 0.949 . S
C224 C219 1.382 . S
C224 C223 1.392 . S
C225 C226 1.376 . S
C225 C230 1.386 . S
C225 C231 1.483 . S
C226 H201 0.949 . S
C226 C225 1.376 . S
C226 C227 1.397 . S
C227 H202 0.950 . S
C227 C226 1.397 . S
C227 C228 1.391 . S
C228 C227 1.391 . S
C228 C229 1.405 . S
C229 H203 0.950 . S
C229 C228 1.405 . S
C229 C230 1.367 . S
C230 H204 0.950 . S
C230 C225 1.386 . S
C230 C229 1.367 . S
C231 C225 1.483 . S
C231 C232 1.382 . S
C231 C233 1.403 . S
C232 H205 0.950 . S
C232 C218 1.411 . S
C232 C231 1.382 . S
C233 C217 1.411 . S
C233 C231 1.403 . S
C233 C234 1.489 . S
C234 C233 1.489 . S
C234 C235 1.383 . S
C234 C239 1.382 . S
C235 H206 0.950 . S
C235 C234 1.383 . S
C235 C236 1.395 . S
C236 H207 0.950 . S
C236 C235 1.395 . S
C236 C237 1.288 . S
C237 C236 1.288 . S
C237 C238 1.392 . S
C238 H208 0.951 . S
C238 C237 1.392 . S
C238 C239 1.392 . S
C239 H209 0.949 . S
C239 C234 1.382 . S
C239 C238 1.392 . S
H240 C259 0.949 . S
H241 C260 0.950 . S
H242 C262 0.950 . S
H243 C263 0.950 . S
H244 C265 0.950 . S
H245 C268 0.950 . S
H246 C269 0.950 . S
H247 C271 0.951 . S
H248 C272 0.949 . S
H249 C274 0.949 . S
H250 C275 0.950 . S
H251 C277 0.950 . S
H252 C278 0.950 . S
H253 C280 0.950 . S
H254 C283 0.950 . S
H255 C284 0.950 . S
H256 C286 0.951 . S
H257 C287 0.949 . S
C258 C259 1.376 . S
C258 C263 1.386 . S
C258 C264 1.483 . S
C259 H240 0.949 . S
C259 C258 1.376 . S
C259 C260 1.397 . S
C260 H241 0.950 . S
C260 C259 1.397 . S
C260 C261 1.391 . S
C261 C260 1.391 . S
C261 C262 1.405 . S
C262 H242 0.950 . S
C262 C261 1.405 . S
C262 C263 1.367 . S
C263 H243 0.950 . S
C263 C258 1.386 . S
C263 C262 1.367 . S
C264 C258 1.483 . S
C264 C265 1.382 . S
C264 C266 1.403 . S
C265 H244 0.950 . S
C265 C264 1.382 . S
C265 C281 1.411 . S
C266 C264 1.403 . S
C266 C267 1.489 . S
C266 C280 1.411 . S
C267 C266 1.489 . S
C267 C268 1.383 . S
C267 C272 1.382 . S
C268 H245 0.950 . S
C268 C267 1.383 . S
C268 C269 1.395 . S
C269 H246 0.950 . S
C269 C268 1.395 . S
C269 C270 1.288 . S
C270 C269 1.288 . S
C270 C271 1.392 . S
C271 H247 0.951 . S
C271 C270 1.392 . S
C271 C272 1.392 . S
C272 H248 0.949 . S
C272 C267 1.382 . S
C272 C271 1.392 . S
C273 C274 1.376 . S
C273 C278 1.386 . S
C273 C279 1.483 . S
C274 H249 0.949 . S
C274 C273 1.376 . S
C274 C275 1.397 . S
C275 H250 0.950 . S
C275 C274 1.397 . S
C275 C276 1.391 . S
C276 C275 1.391 . S
C276 C277 1.405 . S
C277 H251 0.950 . S
C277 C276 1.405 . S
C277 C278 1.367 . S
C278 H252 0.950 . S
C278 C273 1.386 . S
C278 C277 1.367 . S
C279 C273 1.483 . S
C279 C280 1.382 . S
C279 C281 1.403 . S
C280 H253 0.950 . S
C280 C266 1.411 . S
C280 C279 1.382 . S
C281 C265 1.411 . S
C281 C279 1.403 . S
C281 C282 1.489 . S
C282 C281 1.489 . S
C282 C283 1.383 . S
C282 C287 1.382 . S
C283 H254 0.950 . S
C283 C282 1.383 . S
C283 C284 1.395 . S
C284 H255 0.950 . S
C284 C283 1.395 . S
C284 C285 1.288 . S
C285 C284 1.288 . S
C285 C286 1.392 . S
C286 H256 0.951 . S
C286 C285 1.392 . S
C286 C287 1.392 . S
C287 H257 0.949 . S
C287 C282 1.382 . S
C287 C286 1.392 . S
H288 C307 0.952 . S
H289 C308 0.950 . S
H290 C310 0.950 . S
H291 C311 0.950 . S
H292 C313 0.950 . S
H293 C316 0.950 . S
H294 C317 0.950 . S
H295 C319 0.951 . S
H296 C320 0.949 . S
H297 C322 0.949 . S
H298 C323 0.950 . S
H299 C325 0.950 . S
H300 C326 0.950 . S
H301 C328 0.950 . S
H302 C331 0.950 . S
H303 C332 0.950 . S
H304 C334 0.951 . S
H305 C335 0.949 . S
C306 C307 1.376 . S
C306 C311 1.386 . S
C306 C312 1.483 1_556 S
C307 H288 0.952 . S
C307 C306 1.376 . S
C307 C308 1.397 . S
C308 H289 0.950 . S
C308 C307 1.397 . S
C308 C309 1.391 . S
C309 C308 1.391 . S
C309 C310 1.405 . S
C310 H290 0.950 . S
C310 C309 1.405 . S
C310 C311 1.367 . S
C311 H291 0.950 . S
C311 C306 1.386 . S
C311 C310 1.367 . S
C312 C306 1.483 1_554 S
C312 C313 1.382 1_554 S
C312 C314 1.403 . S
C313 H292 0.950 . S
C313 C312 1.382 1_556 S
C313 C329 1.411 1_556 S
C314 C312 1.403 . S
C314 C315 1.489 . S
C314 C328 1.411 . S
C315 C314 1.489 . S
C315 C316 1.383 . S
C315 C320 1.382 . S
C316 H293 0.950 . S
C316 C315 1.383 . S
C316 C317 1.395 . S
C317 H294 0.950 . S
C317 C316 1.395 . S
C317 C318 1.288 . S
C318 C317 1.288 . S
C318 C319 1.392 . S
C319 H295 0.951 . S
C319 C318 1.392 . S
C319 C320 1.392 . S
C320 H296 0.949 . S
C320 C315 1.382 . S
C320 C319 1.392 . S
C321 C322 1.376 . S
C321 C326 1.386 . S
C321 C327 1.483 . S
C322 H297 0.949 . S
C322 C321 1.376 . S
C322 C323 1.397 . S
C323 H298 0.950 . S
C323 C322 1.397 . S
C323 C324 1.391 . S
C324 C323 1.391 . S
C324 C325 1.405 . S
C325 H299 0.950 . S
C325 C324 1.405 . S
C325 C326 1.367 . S
C326 H300 0.950 . S
C326 C321 1.386 . S
C326 C325 1.367 . S
C327 C321 1.483 . S
C327 C328 1.382 . S
C327 C329 1.403 . S
C328 H301 0.950 . S
C328 C314 1.411 . S
C328 C327 1.382 . S
C329 C313 1.411 1_554 S
C329 C327 1.403 . S
C329 C330 1.489 1_554 S
C330 C329 1.489 1_556 S
C330 C331 1.383 . S
C330 C335 1.382 . S
C331 H302 0.950 . S
C331 C330 1.383 . S
C331 C332 1.395 . S
C332 H303 0.950 . S
C332 C331 1.395 . S
C332 C333 1.288 . S
C333 C332 1.288 . S
C333 C334 1.392 . S
C334 H304 0.951 . S
C334 C333 1.392 . S
C334 C335 1.392 . S
C335 H305 0.949 . S
C335 C330 1.382 . S
C335 C334 1.392 . S
H336 C355 0.949 . S
H337 C356 0.950 . S
H338 C358 0.950 . S
H339 C359 0.950 . S
H340 C361 0.950 . S
H341 C364 0.950 . S
H342 C365 0.950 . S
H343 C367 0.951 . S
H344 C368 0.949 . S
H345 C370 0.949 . S
H346 C371 0.950 . S
H347 C373 0.950 . S
H348 C374 0.950 . S
H349 C376 0.950 . S
H350 C379 0.950 . S
H351 C380 0.950 . S
H352 C382 0.951 . S
H353 C383 0.949 . S
C354 C355 1.376 . S
C354 C359 1.386 . S
C354 C360 1.483 . S
C355 H336 0.949 . S
C355 C354 1.376 . S
C355 C356 1.397 . S
C356 H337 0.950 . S
C356 C355 1.397 . S
C356 C357 1.391 . S
C357 C356 1.391 . S
C357 C358 1.405 . S
C358 H338 0.950 . S
C358 C357 1.405 . S
C358 C359 1.367 . S
C359 H339 0.950 . S
C359 C354 1.386 . S
C359 C358 1.367 . S
C360 C354 1.483 . S
C360 C361 1.382 . S
C360 C362 1.403 . S
C361 H340 0.950 . S
C361 C360 1.382 . S
C361 C377 1.411 1_655 S
C362 C360 1.403 . S
C362 C363 1.489 . S
C362 C376 1.411 1_655 S
C363 C362 1.489 . S
C363 C364 1.383 . S
C363 C368 1.382 . S
C364 H341 0.950 . S
C364 C363 1.383 . S
C364 C365 1.395 . S
C365 H342 0.950 . S
C365 C364 1.395 . S
C365 C366 1.288 . S
C366 C365 1.288 . S
C366 C367 1.392 . S
C367 H343 0.951 . S
C367 C366 1.392 . S
C367 C368 1.392 . S
C368 H344 0.949 . S
C368 C363 1.382 . S
C368 C367 1.392 . S
C369 C370 1.376 . S
C369 C374 1.386 . S
C369 C375 1.483 . S
C370 H345 0.949 . S
C370 C369 1.376 . S
C370 C371 1.397 . S
C371 H346 0.950 . S
C371 C370 1.397 . S
C371 C372 1.391 . S
C372 C371 1.391 . S
C372 C373 1.405 . S
C373 H347 0.950 . S
C373 C372 1.405 . S
C373 C374 1.367 . S
C374 H348 0.950 . S
C374 C369 1.386 . S
C374 C373 1.367 . S
C375 C369 1.483 . S
C375 C376 1.382 . S
C375 C377 1.403 . S
C376 H349 0.950 . S
C376 C362 1.411 1_455 S
C376 C375 1.382 . S
C377 C361 1.411 1_455 S
C377 C375 1.403 . S
C377 C378 1.489 . S
C378 C377 1.489 . S
C378 C379 1.383 . S
C378 C383 1.382 . S
C379 H350 0.950 . S
C379 C378 1.383 . S
C379 C380 1.395 . S
C380 H351 0.950 . S
C380 C379 1.395 . S
C380 C381 1.288 . S
C381 C380 1.288 . S
C381 C382 1.392 . S
C382 H352 0.951 . S
C382 C381 1.392 . S
C382 C383 1.392 . S
C383 H353 0.949 . S
C383 C378 1.382 . S
C383 C382 1.392 . S
Fe384 O385 1.886 . S
Fe384 O388 1.715 1_455 S
Fe384 O393 2.077 . S
Fe384 O398 1.935 1_455 S
Fe384 O404 2.077 . S
Fe384 O413 1.935 1_455 S
O385 Fe384 1.886 . S
O385 Fe387 1.715 . S
Fe386 O388 1.886 . S
Fe386 O389 1.715 . S
Fe386 O396 1.935 . S
Fe386 O397 2.077 . S
Fe386 O403 1.935 . S
Fe386 O412 2.077 . S
Fe387 O385 1.715 . S
Fe387 O390 1.886 . S
Fe387 O394 1.935 . S
Fe387 O399 2.077 . S
Fe387 O405 1.935 . S
Fe387 O409 2.077 . S
O388 Fe384 1.715 1_655 S
O388 Fe386 1.886 . S
O389 Fe386 1.715 . S
O389 Fe391 1.902 . S
O390 Fe387 1.886 . S
O390 Fe391 1.699 1_455 S
Fe391 O389 1.902 . S
Fe391 O390 1.699 1_655 S
Fe391 O395 2.092 . S
Fe391 O400 1.923 1_655 S
Fe391 O402 2.092 . S
Fe391 O410 1.923 1_655 S
C392 O404 1.381 . S
C392 O405 1.421 . S
O393 Fe384 2.077 . S
O393 C406 1.381 . S
O394 Fe387 1.935 . S
O394 C406 1.421 . S
O395 Fe391 2.092 . S
O395 C411 1.381 . S
O396 Fe386 1.935 . S
O396 C411 1.421 . S
O397 Fe386 2.077 . S
O397 C401 1.381 . S
O398 Fe384 1.935 1_655 S
O398 C401 1.421 . S
O399 Fe387 2.077 . S
O399 C407 1.381 . S
O400 Fe391 1.923 1_455 S
O400 C407 1.421 . S
C401 O397 1.381 . S
C401 O398 1.421 . S
O402 Fe391 2.092 . S
O402 C414 1.381 . S
O403 Fe386 1.935 . S
O403 C414 1.421 . S
O404 Fe384 2.077 . S
O404 C392 1.381 . S
O405 Fe387 1.935 . S
O405 C392 1.421 . S
C406 O393 1.381 . S
C406 O394 1.421 . S
C407 O399 1.381 . S
C407 O400 1.421 . S
C408 O409 1.381 . S
C408 O410 1.421 . S
O409 Fe387 2.077 . S
O409 C408 1.381 . S
O410 Fe391 1.923 1_455 S
O410 C408 1.421 . S
C411 O395 1.381 . S
C411 O396 1.421 . S
O412 Fe386 2.077 . S
O412 C415 1.381 . S
O413 Fe384 1.935 1_655 S
O413 C415 1.421 . S
C414 O402 1.381 . S
C414 O403 1.421 . S
C415 O412 1.381 . S
C415 O413 1.421 . S
Fe416 O417 1.886 . S
Fe416 O420 1.715 . S
Fe416 O425 2.077 . S
Fe416 O430 1.935 . S
Fe416 O436 2.077 . S
Fe416 O445 1.935 . S
O417 Fe416 1.886 . S
O417 Fe419 1.715 . S
Fe418 O420 1.886 . S
Fe418 O421 1.715 . S
Fe418 O428 1.935 . S
Fe418 O429 2.077 . S
Fe418 O435 1.935 . S
Fe418 O444 2.077 . S
Fe419 O417 1.715 . S
Fe419 O422 1.886 . S
Fe419 O426 1.935 . S
Fe419 O431 2.077 . S
Fe419 O437 1.935 . S
Fe419 O441 2.077 . S
O420 Fe416 1.715 . S
O420 Fe418 1.886 . S
O421 Fe418 1.715 . S
O421 Fe423 1.886 . S
O422 Fe419 1.886 . S
O422 Fe423 1.715 . S
Fe423 O421 1.886 . S
Fe423 O422 1.715 . S
Fe423 O427 2.077 . S
Fe423 O432 1.935 . S
Fe423 O434 2.077 . S
Fe423 O442 1.935 . S
C424 O436 1.381 . S
C424 O437 1.421 . S
O425 Fe416 2.077 . S
O425 C438 1.381 . S
O426 Fe419 1.935 . S
O426 C438 1.421 . S
O427 Fe423 2.077 . S
O427 C443 1.381 . S
O428 Fe418 1.935 . S
O428 C443 1.421 . S
O429 Fe418 2.077 . S
O429 C433 1.381 . S
O430 Fe416 1.935 . S
O430 C433 1.421 . S
O431 Fe419 2.077 . S
O431 C439 1.381 . S
O432 Fe423 1.935 . S
O432 C439 1.421 . S
C433 O429 1.381 . S
C433 O430 1.421 . S
O434 Fe423 2.077 . S
O434 C446 1.381 . S
O435 Fe418 1.935 . S
O435 C446 1.421 . S
O436 Fe416 2.077 . S
O436 C424 1.381 . S
O437 Fe419 1.935 . S
O437 C424 1.421 . S
C438 O425 1.381 . S
C438 O426 1.421 . S
C439 O431 1.381 . S
C439 O432 1.421 . S
C440 O441 1.381 . S
C440 O442 1.421 . S
O441 Fe419 2.077 . S
O441 C440 1.381 . S
O442 Fe423 1.935 . S
O442 C440 1.421 . S
C443 O427 1.381 . S
C443 O428 1.421 . S
O444 Fe418 2.077 . S
O444 C447 1.381 . S
O445 Fe416 1.935 . S
O445 C447 1.421 . S
C446 O434 1.381 . S
C446 O435 1.421 . S
C447 O444 1.381 . S
C447 O445 1.421 . S
Fe448 O449 1.886 . S
Fe448 O452 1.715 . S
Fe448 O457 2.077 . S
Fe448 O462 1.935 . S
Fe448 O468 2.077 . S
Fe448 O477 1.935 . S
O449 Fe448 1.886 . S
O449 Fe451 1.715 . S
Fe450 O452 1.886 . S
Fe450 O453 1.715 . S
Fe450 O460 1.935 . S
Fe450 O461 2.077 . S
Fe450 O467 1.935 . S
Fe450 O476 2.077 . S
Fe451 O449 1.715 . S
Fe451 O454 1.886 . S
Fe451 O458 1.935 . S
Fe451 O463 2.077 . S
Fe451 O469 1.935 . S
Fe451 O473 2.077 . S
O452 Fe448 1.715 . S
O452 Fe450 1.886 . S
O453 Fe450 1.715 . S
O453 Fe455 1.886 . S
O454 Fe451 1.886 . S
O454 Fe455 1.715 . S
Fe455 O453 1.886 . S
Fe455 O454 1.715 . S
Fe455 O459 2.077 . S
Fe455 O464 1.935 . S
Fe455 O466 2.077 . S
Fe455 O474 1.935 . S
C456 O468 1.381 . S
C456 O469 1.421 . S
O457 Fe448 2.077 . S
O457 C470 1.381 . S
O458 Fe451 1.935 . S
O458 C470 1.421 . S
O459 Fe455 2.077 . S
O459 C475 1.381 . S
O460 Fe450 1.935 . S
O460 C475 1.421 . S
O461 Fe450 2.077 . S
O461 C465 1.381 . S
O462 Fe448 1.935 . S
O462 C465 1.421 . S
O463 Fe451 2.077 . S
O463 C471 1.381 . S
O464 Fe455 1.935 . S
O464 C471 1.421 . S
C465 O461 1.381 . S
C465 O462 1.421 . S
O466 Fe455 2.077 . S
O466 C478 1.381 . S
O467 Fe450 1.935 . S
O467 C478 1.421 . S
O468 Fe448 2.077 . S
O468 C456 1.381 . S
O469 Fe451 1.935 . S
O469 C456 1.421 . S
C470 O457 1.381 . S
C470 O458 1.421 . S
C471 O463 1.381 . S
C471 O464 1.421 . S
C472 O473 1.381 . S
C472 O474 1.421 . S
O473 Fe451 2.077 . S
O473 C472 1.381 . S
O474 Fe455 1.935 . S
O474 C472 1.421 . S
C475 O459 1.381 . S
C475 O460 1.421 . S
O476 Fe450 2.077 . S
O476 C479 1.381 . S
O477 Fe448 1.935 . S
O477 C479 1.421 . S
C478 O466 1.381 . S
C478 O467 1.421 . S
C479 O476 1.381 . S
C479 O477 1.421 . S
Fe480 O481 1.886 . S
Fe480 O484 1.715 . S
Fe480 O489 2.076 1_455 S
Fe480 O494 1.934 1_455 S
Fe480 O500 2.078 . S
Fe480 O509 1.936 . S
O481 Fe480 1.886 . S
O481 Fe483 1.715 . S
Fe482 O484 1.886 . S
Fe482 O485 1.715 . S
Fe482 O492 1.935 1_455 S
Fe482 O493 2.077 1_455 S
Fe482 O499 1.936 . S
Fe482 O508 2.078 . S
Fe483 O481 1.715 . S
Fe483 O486 1.886 . S
Fe483 O490 1.935 1_455 S
Fe483 O495 2.077 1_455 S
Fe483 O501 1.936 . S
Fe483 O505 2.078 . S
O484 Fe480 1.715 . S
O484 Fe482 1.886 . S
O485 Fe482 1.715 . S
O485 Fe487 1.886 . S
O486 Fe483 1.886 . S
O486 Fe487 1.715 . S
Fe487 O485 1.886 . S
Fe487 O486 1.715 . S
Fe487 O491 2.077 1_455 S
Fe487 O496 1.935 1_455 S
Fe487 O498 2.077 . S
Fe487 O506 1.935 . S
C488 O500 1.381 . S
C488 O501 1.421 . S
O489 Fe480 2.076 1_655 S
O489 C502 1.381 . S
O490 Fe483 1.935 1_655 S
O490 C502 1.421 . S
O491 Fe487 2.077 1_655 S
O491 C507 1.381 . S
O492 Fe482 1.935 1_655 S
O492 C507 1.421 . S
O493 Fe482 2.077 1_655 S
O493 C497 1.381 . S
O494 Fe480 1.934 1_655 S
O494 C497 1.421 . S
O495 Fe483 2.077 1_655 S
O495 C503 1.381 . S
O496 Fe487 1.935 1_655 S
O496 C503 1.421 . S
C497 O493 1.381 . S
C497 O494 1.421 . S
O498 Fe487 2.077 . S
O498 C510 1.381 . S
O499 Fe482 1.936 . S
O499 C510 1.421 . S
O500 Fe480 2.078 . S
O500 C488 1.381 . S
O501 Fe483 1.936 . S
O501 C488 1.421 . S
C502 O489 1.381 . S
C502 O490 1.421 . S
C503 O495 1.381 . S
C503 O496 1.421 . S
C504 O505 1.381 . S
C504 O506 1.421 . S
O505 Fe483 2.078 . S
O505 C504 1.381 . S
O506 Fe487 1.935 . S
O506 C504 1.421 . S
C507 O491 1.381 . S
C507 O492 1.421 . S
O508 Fe482 2.078 . S
O508 C511 1.381 . S
O509 Fe480 1.936 . S
O509 C511 1.421 . S
C510 O498 1.381 . S
C510 O499 1.421 . S
C511 O508 1.381 . S
C511 O509 1.421 . S
H512 C524 0.930 . S
H513 C526 0.930 . S
H514 C527 0.930 . S
H515 C531 0.959 . S
H516 C531 0.959 . S
H517 C531 0.961 . S
H518 C532 0.960 1_545 S
H519 C532 0.961 . S
H520 C532 0.959 . S
H521 C535 0.929 . S
H522 C536 0.931 . S
H523 C538 0.930 . S
C524 H512 0.930 . S
C524 C525 1.399 . S
C524 C529 1.399 . S
C525 C524 1.399 . S
C525 C526 1.376 . S
C526 H513 0.930 . S
C526 C525 1.376 . S
C526 C527 1.388 . S
C527 H514 0.930 . S
C527 C526 1.388 . S
C527 C528 1.390 . S
C528 C527 1.390 . S
C528 C529 1.394 . S
C528 C534 1.465 . S
C529 C524 1.399 . S
C529 C528 1.394 . S
C529 C530 1.516 . S
C530 C529 1.516 . S
C530 C531 1.502 . S
C530 C532 1.561 . S
C530 C533 1.526 . S
C531 H515 0.959 . S
C531 H516 0.959 . S
C531 H517 0.961 . S
C531 C530 1.502 . S
C532 H518 0.960 1_565 S
C532 H519 0.961 . S
C532 H520 0.959 . S
C532 C530 1.561 . S
C533 C530 1.526 . S
C533 C534 1.396 . S
C533 C538 1.390 . S
C534 C528 1.465 . S
C534 C533 1.396 . S
C534 C535 1.399 . S
C535 H521 0.929 . S
C535 C534 1.399 . S
C535 C536 1.385 . S
C536 H522 0.931 . S
C536 C535 1.385 . S
C536 C537 1.389 . S
C537 C536 1.389 . S
C537 C538 1.387 . S
C538 H523 0.930 . S
C538 C533 1.390 . S
C538 C537 1.387 . S
H539 C551 0.930 . S
H540 C553 0.930 . S
H541 C554 0.930 . S
H542 C558 0.959 1_565 S
H543 C558 0.959 . S
H544 C558 0.961 1_565 S
H545 C559 0.960 . S
H546 C559 0.961 . S
H547 C559 0.959 . S
H548 C562 0.929 . S
H549 C563 0.931 . S
H550 C565 0.930 . S
C551 H539 0.930 . S
C551 C552 1.399 . S
C551 C556 1.399 1_565 S
C552 C551 1.399 . S
C552 C553 1.376 . S
C553 H540 0.930 . S
C553 C552 1.376 . S
C553 C554 1.388 1_565 S
C554 H541 0.930 . S
C554 C553 1.388 1_545 S
C554 C555 1.390 . S
C555 C554 1.390 . S
C555 C556 1.394 . S
C555 C561 1.465 . S
C556 C551 1.399 1_545 S
C556 C555 1.394 . S
C556 C557 1.516 . S
C557 C556 1.516 . S
C557 C558 1.502 . S
C557 C559 1.561 . S
C557 C560 1.526 . S
C558 H542 0.959 1_545 S
C558 H543 0.959 . S
C558 H544 0.961 1_545 S
C558 C557 1.502 . S
C559 H545 0.960 . S
C559 H546 0.961 . S
C559 H547 0.959 . S
C559 C557 1.561 . S
C560 C557 1.526 . S
C560 C561 1.396 . S
C560 C565 1.390 . S
C561 C555 1.465 . S
C561 C560 1.396 . S
C561 C562 1.399 . S
C562 H548 0.929 . S
C562 C561 1.399 . S
C562 C563 1.385 . S
C563 H549 0.931 . S
C563 C562 1.385 . S
C563 C564 1.389 . S
C564 C563 1.389 . S
C564 C565 1.387 . S
C565 H550 0.930 . S
C565 C560 1.390 . S
C565 C564 1.387 . S
H566 C578 0.930 . S
H567 C580 0.930 . S
H568 C581 0.930 . S
H569 C585 0.959 . S
H570 C585 0.959 . S
H571 C585 0.961 . S
H572 C586 0.960 . S
H573 C586 0.961 . S
H574 C586 0.959 . S
H575 C589 0.929 . S
H576 C590 0.931 . S
H577 C592 0.930 . S
C578 H566 0.930 . S
C578 C579 1.399 . S
C578 C583 1.399 . S
C579 C578 1.399 . S
C579 C580 1.376 . S
C580 H567 0.930 . S
C580 C579 1.376 . S
C580 C581 1.388 . S
C581 H568 0.930 . S
C581 C580 1.388 . S
C581 C582 1.390 . S
C582 C581 1.390 . S
C582 C583 1.394 . S
C582 C588 1.465 . S
C583 C578 1.399 . S
C583 C582 1.394 . S
C583 C584 1.516 . S
C584 C583 1.516 . S
C584 C585 1.502 . S
C584 C586 1.561 . S
C584 C587 1.526 . S
C585 H569 0.959 . S
C585 H570 0.959 . S
C585 H571 0.961 . S
C585 C584 1.502 . S
C586 H572 0.960 . S
C586 H573 0.961 . S
C586 H574 0.959 . S
C586 C584 1.561 . S
C587 C584 1.526 . S
C587 C588 1.396 . S
C587 C592 1.390 . S
C588 C582 1.465 . S
C588 C587 1.396 . S
C588 C589 1.399 . S
C589 H575 0.929 . S
C589 C588 1.399 . S
C589 C590 1.385 . S
C590 H576 0.931 . S
C590 C589 1.385 . S
C590 C591 1.389 . S
C591 C590 1.389 . S
C591 C592 1.387 . S
C592 H577 0.930 . S
C592 C587 1.390 . S
C592 C591 1.387 . S
H593 C605 0.930 1_565 S
H594 C607 0.930 . S
H595 C608 0.930 . S
H596 C612 0.959 . S
H597 C612 0.959 . S
H598 C612 0.961 . S
H599 C613 0.960 . S
H600 C613 0.961 . S
H601 C613 0.959 . S
H602 C616 0.929 . S
H603 C617 0.931 . S
H604 C619 0.930 . S
C605 H593 0.930 1_545 S
C605 C606 1.399 . S
C605 C610 1.399 1_545 S
C606 C605 1.399 . S
C606 C607 1.376 . S
C607 H594 0.930 . S
C607 C606 1.376 . S
C607 C608 1.388 . S
C608 H595 0.930 . S
C608 C607 1.388 . S
C608 C609 1.390 1_545 S
C609 C608 1.390 1_565 S
C609 C610 1.394 . S
C609 C615 1.465 . S
C610 C605 1.399 1_565 S
C610 C609 1.394 . S
C610 C611 1.516 . S
C611 C610 1.516 . S
C611 C612 1.502 . S
C611 C613 1.561 . S
C611 C614 1.526 . S
C612 H596 0.959 . S
C612 H597 0.959 . S
C612 H598 0.961 . S
C612 C611 1.502 . S
C613 H599 0.960 . S
C613 H600 0.961 . S
C613 H601 0.959 . S
C613 C611 1.561 . S
C614 C611 1.526 . S
C614 C615 1.396 . S
C614 C619 1.390 . S
C615 C609 1.465 . S
C615 C614 1.396 . S
C615 C616 1.399 . S
C616 H602 0.929 . S
C616 C615 1.399 . S
C616 C617 1.385 . S
C617 H603 0.931 . S
C617 C616 1.385 . S
C617 C618 1.389 . S
C618 C617 1.389 . S
C618 C619 1.387 . S
C619 H604 0.930 . S
C619 C614 1.390 . S
C619 C618 1.387 . S
H620 C632 0.930 . S
H621 C634 0.930 . S
H622 C635 0.930 . S
H623 C639 0.959 . S
H624 C639 0.959 . S
H625 C639 0.961 . S
H626 C640 0.960 . S
H627 C640 0.961 . S
H628 C640 0.959 . S
H629 C643 0.929 . S
H630 C644 0.931 . S
H631 C646 0.930 . S
C632 H620 0.930 . S
C632 C633 1.399 . S
C632 C637 1.399 . S
C633 C632 1.399 . S
C633 C634 1.376 . S
C634 H621 0.930 . S
C634 C633 1.376 . S
C634 C635 1.388 . S
C635 H622 0.930 . S
C635 C634 1.388 . S
C635 C636 1.390 . S
C636 C635 1.390 . S
C636 C637 1.394 . S
C636 C642 1.465 . S
C637 C632 1.399 . S
C637 C636 1.394 . S
C637 C638 1.516 . S
C638 C637 1.516 . S
C638 C639 1.502 . S
C638 C640 1.561 . S
C638 C641 1.526 . S
C639 H623 0.959 . S
C639 H624 0.959 . S
C639 H625 0.961 . S
C639 C638 1.502 . S
C640 H626 0.960 . S
C640 H627 0.961 . S
C640 H628 0.959 . S
C640 C638 1.561 . S
C641 C638 1.526 . S
C641 C642 1.396 . S
C641 C646 1.390 . S
C642 C636 1.465 . S
C642 C641 1.396 . S
C642 C643 1.399 . S
C643 H629 0.929 . S
C643 C642 1.399 . S
C643 C644 1.385 . S
C644 H630 0.931 . S
C644 C643 1.385 . S
C644 C645 1.389 . S
C645 C644 1.389 . S
C645 C646 1.387 . S
C646 H631 0.930 . S
C646 C641 1.390 . S
C646 C645 1.387 . S
H647 C659 0.930 . S
H648 C661 0.930 . S
H649 C662 0.930 . S
H650 C666 0.959 . S
H651 C666 0.959 . S
H652 C666 0.961 1_565 S
H653 C667 0.960 . S
H654 C667 0.961 1_545 S
H655 C667 0.959 . S
H656 C670 0.929 . S
H657 C671 0.931 . S
H658 C673 0.930 . S
C659 H647 0.930 . S
C659 C660 1.399 . S
C659 C664 1.399 1_565 S
C660 C659 1.399 . S
C660 C661 1.376 . S
C661 H648 0.930 . S
C661 C660 1.376 . S
C661 C662 1.388 1_565 S
C662 H649 0.930 . S
C662 C661 1.388 1_545 S
C662 C663 1.390 . S
C663 C662 1.390 . S
C663 C664 1.394 . S
C663 C669 1.465 . S
C664 C659 1.399 1_545 S
C664 C663 1.394 . S
C664 C665 1.516 . S
C665 C664 1.516 . S
C665 C666 1.502 . S
C665 C667 1.561 1_545 S
C665 C668 1.526 . S
C666 H650 0.959 . S
C666 H651 0.959 . S
C666 H652 0.961 1_545 S
C666 C665 1.502 . S
C667 H653 0.960 . S
C667 H654 0.961 1_565 S
C667 H655 0.959 . S
C667 C665 1.561 1_565 S
C668 C665 1.526 . S
C668 C669 1.396 . S
C668 C673 1.390 . S
C669 C663 1.465 . S
C669 C668 1.396 . S
C669 C670 1.399 . S
C670 H656 0.929 . S
C670 C669 1.399 . S
C670 C671 1.385 . S
C671 H657 0.931 . S
C671 C670 1.385 . S
C671 C672 1.389 . S
C672 C671 1.389 . S
C672 C673 1.387 . S
C673 H658 0.930 . S
C673 C668 1.390 . S
C673 C672 1.387 . S
H674 C686 0.930 . S
H675 C688 0.930 . S
H676 C689 0.930 . S
H677 C693 0.959 . S
H678 C693 0.959 . S
H679 C693 0.961 . S
H680 C694 0.960 . S
H681 C694 0.961 . S
H682 C694 0.959 . S
H683 C697 0.929 . S
H684 C698 0.931 . S
H685 C700 0.930 . S
C686 H674 0.930 . S
C686 C687 1.399 . S
C686 C691 1.399 . S
C687 C686 1.399 . S
C687 C688 1.376 . S
C688 H675 0.930 . S
C688 C687 1.376 . S
C688 C689 1.388 . S
C689 H676 0.930 . S
C689 C688 1.388 . S
C689 C690 1.390 . S
C690 C689 1.390 . S
C690 C691 1.394 . S
C690 C696 1.465 . S
C691 C686 1.399 . S
C691 C690 1.394 . S
C691 C692 1.516 . S
C692 C691 1.516 . S
C692 C693 1.502 . S
C692 C694 1.561 . S
C692 C695 1.526 . S
C693 H677 0.959 . S
C693 H678 0.959 . S
C693 H679 0.961 . S
C693 C692 1.502 . S
C694 H680 0.960 . S
C694 H681 0.961 . S
C694 H682 0.959 . S
C694 C692 1.561 . S
C695 C692 1.526 . S
C695 C696 1.396 . S
C695 C700 1.390 . S
C696 C690 1.465 . S
C696 C695 1.396 . S
C696 C697 1.399 . S
C697 H683 0.929 . S
C697 C696 1.399 . S
C697 C698 1.385 . S
C698 H684 0.931 . S
C698 C697 1.385 . S
C698 C699 1.389 . S
C699 C698 1.389 . S
C699 C700 1.387 . S
C700 H685 0.930 . S
C700 C695 1.390 . S
C700 C699 1.387 . S
H701 C713 0.930 . S
H702 C715 0.930 . S
H703 C716 0.930 . S
H704 C720 0.959 . S
H705 C720 0.959 . S
H706 C720 0.961 . S
H707 C721 0.960 . S
H708 C721 0.961 . S
H709 C721 0.959 . S
H710 C724 0.929 . S
H711 C725 0.931 . S
H712 C727 0.930 . S
C713 H701 0.930 . S
C713 C714 1.399 . S
C713 C718 1.399 1_545 S
C714 C713 1.399 . S
C714 C715 1.376 . S
C715 H702 0.930 . S
C715 C714 1.376 . S
C715 C716 1.388 . S
C716 H703 0.930 . S
C716 C715 1.388 . S
C716 C717 1.390 1_545 S
C717 C716 1.390 1_565 S
C717 C718 1.394 . S
C717 C723 1.465 . S
C718 C713 1.399 1_565 S
C718 C717 1.394 . S
C718 C719 1.516 . S
C719 C718 1.516 . S
C719 C720 1.502 . S
C719 C721 1.561 . S
C719 C722 1.526 . S
C720 H704 0.959 . S
C720 H705 0.959 . S
C720 H706 0.961 . S
C720 C719 1.502 . S
C721 H707 0.960 . S
C721 H708 0.961 . S
C721 H709 0.959 . S
C721 C719 1.561 . S
C722 C719 1.526 . S
C722 C723 1.396 . S
C722 C727 1.390 . S
C723 C717 1.465 . S
C723 C722 1.396 . S
C723 C724 1.399 . S
C724 H710 0.929 . S
C724 C723 1.399 . S
C724 C725 1.385 . S
C725 H711 0.931 . S
C725 C724 1.385 . S
C725 C726 1.389 . S
C726 C725 1.389 . S
C726 C727 1.387 . S
C727 H712 0.930 . S
C727 C722 1.390 . S
C727 C726 1.387 . S
H728 C740 0.930 . S
H729 C742 0.930 . S
H730 C743 0.930 . S
H731 C747 0.959 . S
H732 C747 0.959 . S
H733 C747 0.961 . S
H734 C748 0.960 . S
H735 C748 0.961 . S
H736 C748 0.959 . S
H737 C751 0.929 . S
H738 C752 0.931 . S
H739 C754 0.930 . S
C740 H728 0.930 . S
C740 C741 1.399 . S
C740 C745 1.399 . S
C741 C740 1.399 . S
C741 C742 1.376 . S
C742 H729 0.930 . S
C742 C741 1.376 . S
C742 C743 1.388 . S
C743 H730 0.930 . S
C743 C742 1.388 . S
C743 C744 1.390 . S
C744 C743 1.390 . S
C744 C745 1.394 . S
C744 C750 1.465 . S
C745 C740 1.399 . S
C745 C744 1.394 . S
C745 C746 1.516 . S
C746 C745 1.516 . S
C746 C747 1.502 . S
C746 C748 1.561 . S
C746 C749 1.526 . S
C747 H731 0.959 . S
C747 H732 0.959 . S
C747 H733 0.961 . S
C747 C746 1.502 . S
C748 H734 0.960 . S
C748 H735 0.961 . S
C748 H736 0.959 . S
C748 C746 1.561 . S
C749 C746 1.526 . S
C749 C750 1.396 . S
C749 C754 1.390 . S
C750 C744 1.465 . S
C750 C749 1.396 . S
C750 C751 1.399 . S
C751 H737 0.929 . S
C751 C750 1.399 . S
C751 C752 1.385 . S
C752 H738 0.931 . S
C752 C751 1.385 . S
C752 C753 1.389 . S
C753 C752 1.389 . S
C753 C754 1.387 . S
C754 H739 0.930 . S
C754 C749 1.390 . S
C754 C753 1.387 . S
H755 C767 0.930 . S
H756 C769 0.930 . S
H757 C770 0.930 . S
H758 C774 0.959 . S
H759 C774 0.959 . S
H760 C774 0.961 . S
H761 C775 0.960 . S
H762 C775 0.961 . S
H763 C775 0.959 . S
H764 C778 0.929 . S
H765 C779 0.931 . S
H766 C781 0.930 . S
C767 H755 0.930 . S
C767 C768 1.399 . S
C767 C772 1.399 1_545 S
C768 C767 1.399 . S
C768 C769 1.376 . S
C769 H756 0.930 . S
C769 C768 1.376 . S
C769 C770 1.388 . S
C770 H757 0.930 . S
C770 C769 1.388 . S
C770 C771 1.390 1_545 S
C771 C770 1.390 1_565 S
C771 C772 1.394 . S
C771 C777 1.465 . S
C772 C767 1.399 1_565 S
C772 C771 1.394 . S
C772 C773 1.516 . S
C773 C772 1.516 . S
C773 C774 1.502 . S
C773 C775 1.561 . S
C773 C776 1.526 . S
C774 H758 0.959 . S
C774 H759 0.959 . S
C774 H760 0.961 . S
C774 C773 1.502 . S
C775 H761 0.960 . S
C775 H762 0.961 . S
C775 H763 0.959 . S
C775 C773 1.561 . S
C776 C773 1.526 . S
C776 C777 1.396 . S
C776 C781 1.390 . S
C777 C771 1.465 . S
C777 C776 1.396 . S
C777 C778 1.399 . S
C778 H764 0.929 . S
C778 C777 1.399 . S
C778 C779 1.385 . S
C779 H765 0.931 . S
C779 C778 1.385 . S
C779 C780 1.389 . S
C780 C779 1.389 . S
C780 C781 1.387 . S
C781 H766 0.930 . S
C781 C776 1.390 . S
C781 C780 1.387 . S
H782 C794 0.930 . S
H783 C796 0.930 . S
H784 C797 0.930 . S
H785 C801 0.959 . S
H786 C801 0.959 . S
H787 C801 0.961 . S
H788 C802 0.960 . S
H789 C802 0.961 . S
H790 C802 0.959 . S
H791 C805 0.929 . S
H792 C806 0.931 . S
H793 C808 0.930 . S
C794 H782 0.930 . S
C794 C795 1.399 . S
C794 C799 1.399 . S
C795 C794 1.399 . S
C795 C796 1.376 . S
C796 H783 0.930 . S
C796 C795 1.376 . S
C796 C797 1.388 . S
C797 H784 0.930 . S
C797 C796 1.388 . S
C797 C798 1.390 . S
C798 C797 1.390 . S
C798 C799 1.394 . S
C798 C804 1.465 . S
C799 C794 1.399 . S
C799 C798 1.394 . S
C799 C800 1.516 . S
C800 C799 1.516 . S
C800 C801 1.502 . S
C800 C802 1.561 . S
C800 C803 1.526 . S
C801 H785 0.959 . S
C801 H786 0.959 . S
C801 H787 0.961 . S
C801 C800 1.502 . S
C802 H788 0.960 . S
C802 H789 0.961 . S
C802 H790 0.959 . S
C802 C800 1.561 . S
C803 C800 1.526 . S
C803 C804 1.396 . S
C803 C808 1.390 . S
C804 C798 1.465 . S
C804 C803 1.396 . S
C804 C805 1.399 . S
C805 H791 0.929 . S
C805 C804 1.399 . S
C805 C806 1.385 . S
C806 H792 0.931 . S
C806 C805 1.385 . S
C806 C807 1.389 . S
C807 C806 1.389 . S
C807 C808 1.387 . S
C808 H793 0.930 . S
C808 C803 1.390 . S
C808 C807 1.387 . S
H809 C821 0.930 . S
H810 C823 0.930 . S
H811 C824 0.930 . S
H812 C828 0.959 . S
H813 C828 0.959 . S
H814 C828 0.961 1_565 S
H815 C829 0.960 . S
H816 C829 0.961 1_545 S
H817 C829 0.959 . S
H818 C832 0.929 . S
H819 C833 0.931 . S
H820 C835 0.930 . S
C821 H809 0.930 . S
C821 C822 1.399 . S
C821 C826 1.399 1_565 S
C822 C821 1.399 . S
C822 C823 1.376 . S
C823 H810 0.930 . S
C823 C822 1.376 . S
C823 C824 1.388 1_565 S
C824 H811 0.930 . S
C824 C823 1.388 1_545 S
C824 C825 1.390 . S
C825 C824 1.390 . S
C825 C826 1.394 . S
C825 C831 1.465 . S
C826 C821 1.399 1_545 S
C826 C825 1.394 . S
C826 C827 1.516 . S
C827 C826 1.516 . S
C827 C828 1.502 . S
C827 C829 1.561 1_545 S
C827 C830 1.526 . S
C828 H812 0.959 . S
C828 H813 0.959 . S
C828 H814 0.961 1_545 S
C828 C827 1.502 . S
C829 H815 0.960 . S
C829 H816 0.961 1_565 S
C829 H817 0.959 . S
C829 C827 1.561 1_565 S
C830 C827 1.526 . S
C830 C831 1.396 . S
C830 C835 1.390 . S
C831 C825 1.465 . S
C831 C830 1.396 . S
C831 C832 1.399 . S
C832 H818 0.929 . S
C832 C831 1.399 . S
C832 C833 1.385 . S
C833 H819 0.931 . S
C833 C832 1.385 . S
C833 C834 1.389 . S
C834 C833 1.389 . S
C834 C835 1.387 . S
C835 H820 0.930 . S
C835 C830 1.390 . S
C835 C834 1.387 . S
H836 C848 0.930 . S
H837 C850 0.930 1_545 S
H838 C851 0.930 . S
H839 C855 0.959 . S
H840 C855 0.959 . S
H841 C855 0.961 . S
H842 C856 0.960 . S
H843 C856 0.961 . S
H844 C856 0.959 . S
H845 C859 0.929 . S
H846 C860 0.931 . S
H847 C862 0.930 . S
C848 H836 0.930 . S
C848 C849 1.399 . S
C848 C853 1.399 . S
C849 C848 1.399 . S
C849 C850 1.376 . S
C850 H837 0.930 1_565 S
C850 C849 1.376 . S
C850 C851 1.388 . S
C851 H838 0.930 . S
C851 C850 1.388 . S
C851 C852 1.390 . S
C852 C851 1.390 . S
C852 C853 1.394 . S
C852 C858 1.465 . S
C853 C848 1.399 . S
C853 C852 1.394 . S
C853 C854 1.516 . S
C854 C853 1.516 . S
C854 C855 1.502 . S
C854 C856 1.561 . S
C854 C857 1.526 . S
C855 H839 0.959 . S
C855 H840 0.959 . S
C855 H841 0.961 . S
C855 C854 1.502 . S
C856 H842 0.960 . S
C856 H843 0.961 . S
C856 H844 0.959 . S
C856 C854 1.561 . S
C857 C854 1.526 . S
C857 C858 1.396 . S
C857 C862 1.390 . S
C858 C852 1.465 . S
C858 C857 1.396 . S
C858 C859 1.399 . S
C859 H845 0.929 . S
C859 C858 1.399 . S
C859 C860 1.385 . S
C860 H846 0.931 . S
C860 C859 1.385 . S
C860 C861 1.389 . S
C861 C860 1.389 . S
C861 C862 1.387 . S
C862 H847 0.930 . S
C862 C857 1.390 . S
C862 C861 1.387 . S
H863 C875 0.930 . S
H864 C877 0.930 . S
H865 C878 0.930 1_565 S
H866 C882 0.959 . S
H867 C882 0.959 . S
H868 C882 0.961 . S
H869 C883 0.947 1_545 S
H870 C883 0.970 . S
H871 C883 0.953 1_545 S
H872 C886 0.929 . S
H873 C887 0.931 . S
H874 C889 0.930 . S
C875 H863 0.930 . S
C875 C876 1.399 . S
C875 C880 1.399 1_545 S
C876 C875 1.399 . S
C876 C877 1.376 . S
C877 H864 0.930 . S
C877 C876 1.376 . S
C877 C878 1.388 . S
C878 H865 0.930 1_545 S
C878 C877 1.388 . S
C878 C879 1.390 1_545 S
C879 C878 1.390 1_565 S
C879 C880 1.394 . S
C879 C885 1.465 . S
C880 C875 1.399 1_565 S
C880 C879 1.394 . S
C880 C881 1.516 . S
C881 C880 1.516 . S
C881 C882 1.502 . S
C881 C883 1.572 . S
C881 C884 1.526 . S
C882 H866 0.959 . S
C882 H867 0.959 . S
C882 H868 0.961 . S
C882 C881 1.502 . S
C883 H869 0.947 1_565 S
C883 H870 0.970 . S
C883 H871 0.953 1_565 S
C883 C881 1.572 . S
C884 C881 1.526 . S
C884 C885 1.396 . S
C884 C889 1.390 . S
C885 C879 1.465 . S
C885 C884 1.396 . S
C885 C886 1.399 . S
C886 H872 0.929 . S
C886 C885 1.399 . S
C886 C887 1.385 . S
C887 H873 0.931 . S
C887 C886 1.385 . S
C887 C888 1.389 . S
C888 C887 1.389 . S
C888 C889 1.387 . S
C889 H874 0.930 . S
C889 C884 1.390 . S
C889 C888 1.387 . S
H890 C902 0.930 . S
H891 C904 0.930 . S
H892 C905 0.930 . S
H893 C909 0.959 . S
H894 C909 0.959 . S
H895 C909 0.961 . S
H896 C910 0.960 . S
H897 C910 0.961 . S
H898 C910 0.959 . S
H899 C913 0.929 . S
H900 C914 0.931 . S
H901 C916 0.930 . S
C902 H890 0.930 . S
C902 C903 1.399 . S
C902 C907 1.399 . S
C903 C902 1.399 . S
C903 C904 1.376 . S
C904 H891 0.930 . S
C904 C903 1.376 . S
C904 C905 1.388 . S
C905 H892 0.930 . S
C905 C904 1.388 . S
C905 C906 1.390 . S
C906 C905 1.390 . S
C906 C907 1.394 . S
C906 C912 1.465 . S
C907 C902 1.399 . S
C907 C906 1.394 . S
C907 C908 1.516 . S
C908 C907 1.516 . S
C908 C909 1.502 . S
C908 C910 1.561 . S
C908 C911 1.526 . S
C909 H893 0.959 . S
C909 H894 0.959 . S
C909 H895 0.961 . S
C909 C908 1.502 . S
C910 H896 0.960 . S
C910 H897 0.961 . S
C910 H898 0.959 . S
C910 C908 1.561 . S
C911 C908 1.526 . S
C911 C912 1.396 . S
C911 C916 1.390 . S
C912 C906 1.465 . S
C912 C911 1.396 . S
C912 C913 1.399 . S
C913 H899 0.929 . S
C913 C912 1.399 . S
C913 C914 1.385 . S
C914 H900 0.931 . S
C914 C913 1.385 . S
C914 C915 1.389 . S
C915 C914 1.389 . S
C915 C916 1.387 . S
C916 H901 0.930 . S
C916 C911 1.390 . S
C916 C915 1.387 . S
H917 C929 0.930 . S
H918 C931 0.930 . S
H919 C932 0.930 . S
H920 C936 0.959 . S
H921 C936 0.959 . S
H922 C936 0.961 . S
H923 C937 0.960 . S
H924 C937 0.961 . S
H925 C937 0.959 . S
H926 C940 0.929 . S
H927 C941 0.931 . S
H928 C943 0.930 . S
C929 H917 0.930 . S
C929 C930 1.399 1_545 S
C929 C934 1.399 . S
C930 C929 1.399 1_565 S
C930 C931 1.376 . S
C931 H918 0.930 . S
C931 C930 1.376 . S
C931 C932 1.388 . S
C932 H919 0.930 . S
C932 C931 1.388 . S
C932 C933 1.390 1_565 S
C933 C932 1.390 1_545 S
C933 C934 1.394 . S
C933 C939 1.465 . S
C934 C929 1.399 . S
C934 C933 1.394 . S
C934 C935 1.516 . S
C935 C934 1.516 . S
C935 C936 1.502 . S
C935 C937 1.561 . S
C935 C938 1.526 . S
C936 H920 0.959 . S
C936 H921 0.959 . S
C936 H922 0.961 . S
C936 C935 1.502 . S
C937 H923 0.960 . S
C937 H924 0.961 . S
C937 H925 0.959 . S
C937 C935 1.561 . S
C938 C935 1.526 . S
C938 C939 1.396 . S
C938 C943 1.390 . S
C939 C933 1.465 . S
C939 C938 1.396 . S
C939 C940 1.399 . S
C940 H926 0.929 . S
C940 C939 1.399 . S
C940 C941 1.385 . S
C941 H927 0.931 . S
C941 C940 1.385 . S
C941 C942 1.389 . S
C942 C941 1.389 . S
C942 C943 1.387 . S
C943 H928 0.930 . S
C943 C938 1.390 . S
C943 C942 1.387 . S
H944 C956 0.930 . S
H945 C958 0.930 . S
H946 C959 0.930 . S
H947 C963 0.959 . S
H948 C963 0.959 . S
H949 C963 0.961 . S
H950 C964 0.960 . S
H951 C964 0.961 . S
H952 C964 0.959 . S
H953 C967 0.929 . S
H954 C968 0.931 . S
H955 C970 0.930 . S
C956 H944 0.930 . S
C956 C957 1.399 . S
C956 C961 1.399 . S
C957 C956 1.399 . S
C957 C958 1.376 . S
C958 H945 0.930 . S
C958 C957 1.376 . S
C958 C959 1.388 . S
C959 H946 0.930 . S
C959 C958 1.388 . S
C959 C960 1.390 . S
C960 C959 1.390 . S
C960 C961 1.394 . S
C960 C966 1.465 . S
C961 C956 1.399 . S
C961 C960 1.394 . S
C961 C962 1.516 . S
C962 C961 1.516 . S
C962 C963 1.502 . S
C962 C964 1.561 . S
C962 C965 1.526 . S
C963 H947 0.959 . S
C963 H948 0.959 . S
C963 H949 0.961 . S
C963 C962 1.502 . S
C964 H950 0.960 . S
C964 H951 0.961 . S
C964 H952 0.959 . S
C964 C962 1.561 . S
C965 C962 1.526 . S
C965 C966 1.396 . S
C965 C970 1.390 . S
C966 C960 1.465 . S
C966 C965 1.396 . S
C966 C967 1.399 . S
C967 H953 0.929 . S
C967 C966 1.399 . S
C967 C968 1.385 . S
C968 H954 0.931 . S
C968 C967 1.385 . S
C968 C969 1.389 . S
C969 C968 1.389 . S
C969 C970 1.387 . S
C970 H955 0.930 . S
C970 C965 1.390 . S
C970 C969 1.387 . S
H971 C983 0.930 . S
H972 C985 0.930 . S
H973 C986 0.930 . S
H974 C990 0.959 . S
H975 C990 0.959 . S
H976 C990 0.961 . S
H977 C991 0.960 . S
H978 C991 0.961 . S
H979 C991 0.959 . S
H980 C994 0.929 . S
H981 C995 0.931 . S
H982 C997 0.930 . S
C983 H971 0.930 . S
C983 C984 1.399 . S
C983 C988 1.399 . S
C984 C983 1.399 . S
C984 C985 1.376 . S
C985 H972 0.930 . S
C985 C984 1.376 . S
C985 C986 1.388 . S
C986 H973 0.930 . S
C986 C985 1.388 . S
C986 C987 1.390 . S
C987 C986 1.390 . S
C987 C988 1.394 . S
C987 C993 1.465 . S
C988 C983 1.399 . S
C988 C987 1.394 . S
C988 C989 1.516 . S
C989 C988 1.516 . S
C989 C990 1.502 . S
C989 C991 1.561 . S
C989 C992 1.526 . S
C990 H974 0.959 . S
C990 H975 0.959 . S
C990 H976 0.961 . S
C990 C989 1.502 . S
C991 H977 0.960 . S
C991 H978 0.961 . S
C991 H979 0.959 . S
C991 C989 1.561 . S
C992 C989 1.526 . S
C992 C993 1.396 . S
C992 C997 1.390 . S
C993 C987 1.465 . S
C993 C992 1.396 . S
C993 C994 1.399 . S
C994 H980 0.929 . S
C994 C993 1.399 . S
C994 C995 1.385 . S
C995 H981 0.931 . S
C995 C994 1.385 . S
C995 C996 1.389 . S
C996 C995 1.389 . S
C996 C997 1.387 . S
C997 H982 0.930 . S
C997 C992 1.390 . S
C997 C996 1.387 . S
H998 C1010 0.930 . S
H999 C1012 0.930 . S
H1000 C1013 0.930 . S
H1001 C1017 0.959 . S
H1002 C1017 0.959 . S
H1003 C1017 0.961 . S
H1004 C1018 0.960 . S
H1005 C1018 0.961 . S
H1006 C1018 0.959 . S
H1007 C1021 0.929 . S
H1008 C1022 0.931 . S
H1009 C1024 0.930 . S
C1010 H998 0.930 . S
C1010 C1011 1.399 . S
C1010 C1015 1.399 . S
C1011 C1010 1.399 . S
C1011 C1012 1.376 . S
C1012 H999 0.930 . S
C1012 C1011 1.376 . S
C1012 C1013 1.388 . S
C1013 H1000 0.930 . S
C1013 C1012 1.388 . S
C1013 C1014 1.390 . S
C1014 C1013 1.390 . S
C1014 C1015 1.394 . S
C1014 C1020 1.465 . S
C1015 C1010 1.399 . S
C1015 C1014 1.394 . S
C1015 C1016 1.516 . S
C1016 C1015 1.516 . S
C1016 C1017 1.502 . S
C1016 C1018 1.561 . S
C1016 C1019 1.526 . S
C1017 H1001 0.959 . S
C1017 H1002 0.959 . S
C1017 H1003 0.961 . S
C1017 C1016 1.502 . S
C1018 H1004 0.960 . S
C1018 H1005 0.961 . S
C1018 H1006 0.959 . S
C1018 C1016 1.561 . S
C1019 C1016 1.526 . S
C1019 C1020 1.396 . S
C1019 C1024 1.390 . S
C1020 C1014 1.465 . S
C1020 C1019 1.396 . S
C1020 C1021 1.399 . S
C1021 H1007 0.929 . S
C1021 C1020 1.399 . S
C1021 C1022 1.385 . S
C1022 H1008 0.931 . S
C1022 C1021 1.385 . S
C1022 C1023 1.389 . S
C1023 C1022 1.389 . S
C1023 C1024 1.387 . S
C1024 H1009 0.930 . S
C1024 C1019 1.390 . S
C1024 C1023 1.387 . S
H1025 C1037 0.930 . S
H1026 C1039 0.930 . S
H1027 C1040 0.930 . S
H1028 C1044 0.959 . S
H1029 C1044 0.959 . S
H1030 C1044 0.961 . S
H1031 C1045 0.960 . S
H1032 C1045 0.961 . S
H1033 C1045 0.959 . S
H1034 C1048 0.929 . S
H1035 C1049 0.931 . S
H1036 C1051 0.930 . S
C1037 H1025 0.930 . S
C1037 C1038 1.399 . S
C1037 C1042 1.399 . S
C1038 C1037 1.399 . S
C1038 C1039 1.376 . S
C1039 H1026 0.930 . S
C1039 C1038 1.376 . S
C1039 C1040 1.388 . S
C1040 H1027 0.930 . S
C1040 C1039 1.388 . S
C1040 C1041 1.390 . S
C1041 C1040 1.390 . S
C1041 C1042 1.394 . S
C1041 C1047 1.465 . S
C1042 C1037 1.399 . S
C1042 C1041 1.394 . S
C1042 C1043 1.516 . S
C1043 C1042 1.516 . S
C1043 C1044 1.502 . S
C1043 C1045 1.561 . S
C1043 C1046 1.526 . S
C1044 H1028 0.959 . S
C1044 H1029 0.959 . S
C1044 H1030 0.961 . S
C1044 C1043 1.502 . S
C1045 H1031 0.960 . S
C1045 H1032 0.961 . S
C1045 H1033 0.959 . S
C1045 C1043 1.561 . S
C1046 C1043 1.526 . S
C1046 C1047 1.396 . S
C1046 C1051 1.390 . S
C1047 C1041 1.465 . S
C1047 C1046 1.396 . S
C1047 C1048 1.399 . S
C1048 H1034 0.929 . S
C1048 C1047 1.399 . S
C1048 C1049 1.385 . S
C1049 H1035 0.931 . S
C1049 C1048 1.385 . S
C1049 C1050 1.389 . S
C1050 C1049 1.389 . S
C1050 C1051 1.387 . S
C1051 H1036 0.930 . S
C1051 C1046 1.390 . S
C1051 C1050 1.387 . S
H1052 C1064 0.930 . S
H1053 C1066 0.930 . S
H1054 C1067 0.930 . S
H1055 C1071 0.959 . S
H1056 C1071 0.959 . S
H1057 C1071 0.961 . S
H1058 C1072 0.960 . S
H1059 C1072 0.961 . S
H1060 C1072 0.959 . S
H1061 C1075 0.929 . S
H1062 C1076 0.931 . S
H1063 C1078 0.930 . S
C1064 H1052 0.930 . S
C1064 C1065 1.399 . S
C1064 C1069 1.399 . S
C1065 C1064 1.399 . S
C1065 C1066 1.376 . S
C1066 H1053 0.930 . S
C1066 C1065 1.376 . S
C1066 C1067 1.388 . S
C1067 H1054 0.930 . S
C1067 C1066 1.388 . S
C1067 C1068 1.390 . S
C1068 C1067 1.390 . S
C1068 C1069 1.394 . S
C1068 C1074 1.465 . S
C1069 C1064 1.399 . S
C1069 C1068 1.394 . S
C1069 C1070 1.516 . S
C1070 C1069 1.516 . S
C1070 C1071 1.502 . S
C1070 C1072 1.561 . S
C1070 C1073 1.526 . S
C1071 H1055 0.959 . S
C1071 H1056 0.959 . S
C1071 H1057 0.961 . S
C1071 C1070 1.502 . S
C1072 H1058 0.960 . S
C1072 H1059 0.961 . S
C1072 H1060 0.959 . S
C1072 C1070 1.561 . S
C1073 C1070 1.526 . S
C1073 C1074 1.396 . S
C1073 C1078 1.390 . S
C1074 C1068 1.465 . S
C1074 C1073 1.396 . S
C1074 C1075 1.399 . S
C1075 H1061 0.929 . S
C1075 C1074 1.399 . S
C1075 C1076 1.385 . S
C1076 H1062 0.931 . S
C1076 C1075 1.385 . S
C1076 C1077 1.389 . S
C1077 C1076 1.389 . S
C1077 C1078 1.387 . S
C1078 H1063 0.930 . S
C1078 C1073 1.390 . S
C1078 C1077 1.387 . S
H1079 C1091 0.930 . S
H1080 C1093 0.930 . S
H1081 C1094 0.930 . S
H1082 C1098 0.959 . S
H1083 C1098 0.959 . S
H1084 C1098 0.961 . S
H1085 C1099 0.960 . S
H1086 C1099 0.961 . S
H1087 C1099 0.959 . S
H1088 C1102 0.929 . S
H1089 C1103 0.931 . S
H1090 C1105 0.930 . S
C1091 H1079 0.930 . S
C1091 C1092 1.399 . S
C1091 C1096 1.399 . S
C1092 C1091 1.399 . S
C1092 C1093 1.376 . S
C1093 H1080 0.930 . S
C1093 C1092 1.376 . S
C1093 C1094 1.388 . S
C1094 H1081 0.930 . S
C1094 C1093 1.388 . S
C1094 C1095 1.390 . S
C1095 C1094 1.390 . S
C1095 C1096 1.394 . S
C1095 C1101 1.465 . S
C1096 C1091 1.399 . S
C1096 C1095 1.394 . S
C1096 C1097 1.516 . S
C1097 C1096 1.516 . S
C1097 C1098 1.502 . S
C1097 C1099 1.561 . S
C1097 C1100 1.526 . S
C1098 H1082 0.959 . S
C1098 H1083 0.959 . S
C1098 H1084 0.961 . S
C1098 C1097 1.502 . S
C1099 H1085 0.960 . S
C1099 H1086 0.961 . S
C1099 H1087 0.959 . S
C1099 C1097 1.561 . S
C1100 C1097 1.526 . S
C1100 C1101 1.396 . S
C1100 C1105 1.390 . S
C1101 C1095 1.465 . S
C1101 C1100 1.396 . S
C1101 C1102 1.399 . S
C1102 H1088 0.929 . S
C1102 C1101 1.399 . S
C1102 C1103 1.385 . S
C1103 H1089 0.931 . S
C1103 C1102 1.385 . S
C1103 C1104 1.389 . S
C1104 C1103 1.389 . S
C1104 C1105 1.387 . S
C1105 H1090 0.930 . S
C1105 C1100 1.390 . S
C1105 C1104 1.387 . S
H1106 C1118 0.930 . S
H1107 C1120 0.930 . S
H1108 C1121 0.930 . S
H1109 C1125 0.959 . S
H1110 C1125 0.959 . S
H1111 C1125 0.961 . S
H1112 C1126 0.960 . S
H1113 C1126 0.961 . S
H1114 C1126 0.959 . S
H1115 C1129 0.929 . S
H1116 C1130 0.931 . S
H1117 C1132 0.930 . S
C1118 H1106 0.930 . S
C1118 C1119 1.399 . S
C1118 C1123 1.399 . S
C1119 C1118 1.399 . S
C1119 C1120 1.376 . S
C1120 H1107 0.930 . S
C1120 C1119 1.376 . S
C1120 C1121 1.388 . S
C1121 H1108 0.930 . S
C1121 C1120 1.388 . S
C1121 C1122 1.390 . S
C1122 C1121 1.390 . S
C1122 C1123 1.394 . S
C1122 C1128 1.465 . S
C1123 C1118 1.399 . S
C1123 C1122 1.394 . S
C1123 C1124 1.516 . S
C1124 C1123 1.516 . S
C1124 C1125 1.502 . S
C1124 C1126 1.561 . S
C1124 C1127 1.526 . S
C1125 H1109 0.959 . S
C1125 H1110 0.959 . S
C1125 H1111 0.961 . S
C1125 C1124 1.502 . S
C1126 H1112 0.960 . S
C1126 H1113 0.961 . S
C1126 H1114 0.959 . S
C1126 C1124 1.561 . S
C1127 C1124 1.526 . S
C1127 C1128 1.396 . S
C1127 C1132 1.390 . S
C1128 C1122 1.465 . S
C1128 C1127 1.396 . S
C1128 C1129 1.399 . S
C1129 H1115 0.929 . S
C1129 C1128 1.399 . S
C1129 C1130 1.385 . S
C1130 H1116 0.931 . S
C1130 C1129 1.385 . S
C1130 C1131 1.389 . S
C1131 C1130 1.389 . S
C1131 C1132 1.387 . S
C1132 H1117 0.930 . S
C1132 C1127 1.390 . S
C1132 C1131 1.387 . S
H1133 C1145 0.930 . S
H1134 C1147 0.930 . S
H1135 C1148 0.930 . S
H1136 C1152 0.959 . S
H1137 C1152 0.959 . S
H1138 C1152 0.961 . S
H1139 C1153 0.960 . S
H1140 C1153 0.961 . S
H1141 C1153 0.959 . S
H1142 C1156 0.929 . S
H1143 C1157 0.931 . S
H1144 C1159 0.930 . S
C1145 H1133 0.930 . S
C1145 C1146 1.399 . S
C1145 C1150 1.399 . S
C1146 C1145 1.399 . S
C1146 C1147 1.376 . S
C1147 H1134 0.930 . S
C1147 C1146 1.376 . S
C1147 C1148 1.388 . S
C1148 H1135 0.930 . S
C1148 C1147 1.388 . S
C1148 C1149 1.390 . S
C1149 C1148 1.390 . S
C1149 C1150 1.394 . S
C1149 C1155 1.465 . S
C1150 C1145 1.399 . S
C1150 C1149 1.394 . S
C1150 C1151 1.516 . S
C1151 C1150 1.516 . S
C1151 C1152 1.502 . S
C1151 C1153 1.561 . S
C1151 C1154 1.526 . S
C1152 H1136 0.959 . S
C1152 H1137 0.959 . S
C1152 H1138 0.961 . S
C1152 C1151 1.502 . S
C1153 H1139 0.960 . S
C1153 H1140 0.961 . S
C1153 H1141 0.959 . S
C1153 C1151 1.561 . S
C1154 C1151 1.526 . S
C1154 C1155 1.396 . S
C1154 C1159 1.390 . S
C1155 C1149 1.465 . S
C1155 C1154 1.396 . S
C1155 C1156 1.399 . S
C1156 H1142 0.929 . S
C1156 C1155 1.399 . S
C1156 C1157 1.385 . S
C1157 H1143 0.931 . S
C1157 C1156 1.385 . S
C1157 C1158 1.389 . S
C1158 C1157 1.389 . S
C1158 C1159 1.387 . S
C1159 H1144 0.930 . S
C1159 C1154 1.390 . S
C1159 C1158 1.387 . S
H1160 C1172 0.930 . S
H1161 C1174 0.930 . S
H1162 C1175 0.930 . S
H1163 C1179 0.959 . S
H1164 C1179 0.959 . S
H1165 C1179 0.961 . S
H1166 C1180 0.960 . S
H1167 C1180 0.961 . S
H1168 C1180 0.959 . S
H1169 C1183 0.929 . S
H1170 C1184 0.931 . S
H1171 C1186 0.930 . S
C1172 H1160 0.930 . S
C1172 C1173 1.399 . S
C1172 C1177 1.399 . S
C1173 C1172 1.399 . S
C1173 C1174 1.376 . S
C1174 H1161 0.930 . S
C1174 C1173 1.376 . S
C1174 C1175 1.388 . S
C1175 H1162 0.930 . S
C1175 C1174 1.388 . S
C1175 C1176 1.390 . S
C1176 C1175 1.390 . S
C1176 C1177 1.394 . S
C1176 C1182 1.465 . S
C1177 C1172 1.399 . S
C1177 C1176 1.394 . S
C1177 C1178 1.516 . S
C1178 C1177 1.516 . S
C1178 C1179 1.502 . S
C1178 C1180 1.561 . S
C1178 C1181 1.526 . S
C1179 H1163 0.959 . S
C1179 H1164 0.959 . S
C1179 H1165 0.961 . S
C1179 C1178 1.502 . S
C1180 H1166 0.960 . S
C1180 H1167 0.961 . S
C1180 H1168 0.959 . S
C1180 C1178 1.561 . S
C1181 C1178 1.526 . S
C1181 C1182 1.396 . S
C1181 C1186 1.390 . S
C1182 C1176 1.465 . S
C1182 C1181 1.396 . S
C1182 C1183 1.399 . S
C1183 H1169 0.929 . S
C1183 C1182 1.399 . S
C1183 C1184 1.385 . S
C1184 H1170 0.931 . S
C1184 C1183 1.385 . S
C1184 C1185 1.389 . S
C1185 C1184 1.389 . S
C1185 C1186 1.387 . S
C1186 H1171 0.930 . S
C1186 C1181 1.390 . S
C1186 C1185 1.387 . S
H1187 C1199 0.930 . S
H1188 C1201 0.930 . S
H1189 C1202 0.930 . S
H1190 C1206 0.959 . S
H1191 C1206 0.959 . S
H1192 C1206 0.961 . S
H1193 C1207 0.960 . S
H1194 C1207 0.961 . S
H1195 C1207 0.959 . S
H1196 C1210 0.929 . S
H1197 C1211 0.931 . S
H1198 C1213 0.930 . S
C1199 H1187 0.930 . S
C1199 C1200 1.399 . S
C1199 C1204 1.399 . S
C1200 C1199 1.399 . S
C1200 C1201 1.376 . S
C1201 H1188 0.930 . S
C1201 C1200 1.376 . S
C1201 C1202 1.388 . S
C1202 H1189 0.930 . S
C1202 C1201 1.388 . S
C1202 C1203 1.390 . S
C1203 C1202 1.390 . S
C1203 C1204 1.394 . S
C1203 C1209 1.465 . S
C1204 C1199 1.399 . S
C1204 C1203 1.394 . S
C1204 C1205 1.516 . S
C1205 C1204 1.516 . S
C1205 C1206 1.502 . S
C1205 C1207 1.561 . S
C1205 C1208 1.526 . S
C1206 H1190 0.959 . S
C1206 H1191 0.959 . S
C1206 H1192 0.961 . S
C1206 C1205 1.502 . S
C1207 H1193 0.960 . S
C1207 H1194 0.961 . S
C1207 H1195 0.959 . S
C1207 C1205 1.561 . S
C1208 C1205 1.526 . S
C1208 C1209 1.396 . S
C1208 C1213 1.390 . S
C1209 C1203 1.465 . S
C1209 C1208 1.396 . S
C1209 C1210 1.399 . S
C1210 H1196 0.929 . S
C1210 C1209 1.399 . S
C1210 C1211 1.385 . S
C1211 H1197 0.931 . S
C1211 C1210 1.385 . S
C1211 C1212 1.389 . S
C1212 C1211 1.389 . S
C1212 C1213 1.387 . S
C1213 H1198 0.930 . S
C1213 C1208 1.390 . S
C1213 C1212 1.387 . S
H1214 C1226 0.930 . S
H1215 C1228 0.930 . S
H1216 C1229 0.930 . S
H1217 C1233 0.959 . S
H1218 C1233 0.959 . S
H1219 C1233 0.961 . S
H1220 C1234 0.960 . S
H1221 C1234 0.961 . S
H1222 C1234 0.959 . S
H1223 C1237 0.929 . S
H1224 C1238 0.931 . S
H1225 C1240 0.930 . S
C1226 H1214 0.930 . S
C1226 C1227 1.399 . S
C1226 C1231 1.399 . S
C1227 C1226 1.399 . S
C1227 C1228 1.376 . S
C1228 H1215 0.930 . S
C1228 C1227 1.376 . S
C1228 C1229 1.388 . S
C1229 H1216 0.930 . S
C1229 C1228 1.388 . S
C1229 C1230 1.390 . S
C1230 C1229 1.390 . S
C1230 C1231 1.394 . S
C1230 C1236 1.465 . S
C1231 C1226 1.399 . S
C1231 C1230 1.394 . S
C1231 C1232 1.516 . S
C1232 C1231 1.516 . S
C1232 C1233 1.502 . S
C1232 C1234 1.561 . S
C1232 C1235 1.526 . S
C1233 H1217 0.959 . S
C1233 H1218 0.959 . S
C1233 H1219 0.961 . S
C1233 C1232 1.502 . S
C1234 H1220 0.960 . S
C1234 H1221 0.961 . S
C1234 H1222 0.959 . S
C1234 C1232 1.561 . S
C1235 C1232 1.526 . S
C1235 C1236 1.396 . S
C1235 C1240 1.390 . S
C1236 C1230 1.465 . S
C1236 C1235 1.396 . S
C1236 C1237 1.399 . S
C1237 H1223 0.929 . S
C1237 C1236 1.399 . S
C1237 C1238 1.385 . S
C1238 H1224 0.931 . S
C1238 C1237 1.385 . S
C1238 C1239 1.389 . S
C1239 C1238 1.389 . S
C1239 C1240 1.387 . S
C1240 H1225 0.930 . S
C1240 C1235 1.390 . S
C1240 C1239 1.387 . S
H1241 C1253 0.930 . S
H1242 C1255 0.930 . S
H1243 C1256 0.930 . S
H1244 C1260 0.959 . S
H1245 C1260 0.959 . S
H1246 C1260 0.961 . S
H1247 C1261 0.960 . S
H1248 C1261 0.961 . S
H1249 C1261 0.959 . S
H1250 C1264 0.929 . S
H1251 C1265 0.931 . S
H1252 C1267 0.930 . S
C1253 H1241 0.930 . S
C1253 C1254 1.399 . S
C1253 C1258 1.399 . S
C1254 C1253 1.399 . S
C1254 C1255 1.376 . S
C1255 H1242 0.930 . S
C1255 C1254 1.376 . S
C1255 C1256 1.388 . S
C1256 H1243 0.930 . S
C1256 C1255 1.388 . S
C1256 C1257 1.390 . S
C1257 C1256 1.390 . S
C1257 C1258 1.394 . S
C1257 C1263 1.465 . S
C1258 C1253 1.399 . S
C1258 C1257 1.394 . S
C1258 C1259 1.516 . S
C1259 C1258 1.516 . S
C1259 C1260 1.502 . S
C1259 C1261 1.561 . S
C1259 C1262 1.526 . S
C1260 H1244 0.959 . S
C1260 H1245 0.959 . S
C1260 H1246 0.961 . S
C1260 C1259 1.502 . S
C1261 H1247 0.960 . S
C1261 H1248 0.961 . S
C1261 H1249 0.959 . S
C1261 C1259 1.561 . S
C1262 C1259 1.526 . S
C1262 C1263 1.396 . S
C1262 C1267 1.390 . S
C1263 C1257 1.465 . S
C1263 C1262 1.396 . S
C1263 C1264 1.399 . S
C1264 H1250 0.929 . S
C1264 C1263 1.399 . S
C1264 C1265 1.385 . S
C1265 H1251 0.931 . S
C1265 C1264 1.385 . S
C1265 C1266 1.389 . S
C1266 C1265 1.389 . S
C1266 C1267 1.387 . S
C1267 H1252 0.930 . S
C1267 C1262 1.390 . S
C1267 C1266 1.387 . S
H1268 C1280 0.930 . S
H1269 C1282 0.930 . S
H1270 C1283 0.930 . S
H1271 C1287 0.959 . S
H1272 C1287 0.959 . S
H1273 C1287 0.961 . S
H1274 C1288 0.960 . S
H1275 C1288 0.961 . S
H1276 C1288 0.959 . S
H1277 C1291 0.929 . S
H1278 C1292 0.931 . S
H1279 C1294 0.930 . S
C1280 H1268 0.930 . S
C1280 C1281 1.399 . S
C1280 C1285 1.399 . S
C1281 C1280 1.399 . S
C1281 C1282 1.376 . S
C1282 H1269 0.930 . S
C1282 C1281 1.376 . S
C1282 C1283 1.388 . S
C1283 H1270 0.930 . S
C1283 C1282 1.388 . S
C1283 C1284 1.390 . S
C1284 C1283 1.390 . S
C1284 C1285 1.394 . S
C1284 C1290 1.465 . S
C1285 C1280 1.399 . S
C1285 C1284 1.394 . S
C1285 C1286 1.516 . S
C1286 C1285 1.516 . S
C1286 C1287 1.502 . S
C1286 C1288 1.561 . S
C1286 C1289 1.526 . S
C1287 H1271 0.959 . S
C1287 H1272 0.959 . S
C1287 H1273 0.961 . S
C1287 C1286 1.502 . S
C1288 H1274 0.960 . S
C1288 H1275 0.961 . S
C1288 H1276 0.959 . S
C1288 C1286 1.561 . S
C1289 C1286 1.526 . S
C1289 C1290 1.396 . S
C1289 C1294 1.390 . S
C1290 C1284 1.465 . S
C1290 C1289 1.396 . S
C1290 C1291 1.399 . S
C1291 H1277 0.929 . S
C1291 C1290 1.399 . S
C1291 C1292 1.385 . S
C1292 H1278 0.931 . S
C1292 C1291 1.385 . S
C1292 C1293 1.389 . S
C1293 C1292 1.389 . S
C1293 C1294 1.387 . S
C1294 H1279 0.930 . S
C1294 C1289 1.390 . S
C1294 C1293 1.387 . S
H1295 C1307 0.930 . S
H1296 C1309 0.930 . S
H1297 C1310 0.930 . S
H1298 C1314 0.959 . S
H1299 C1314 0.959 . S
H1300 C1314 0.961 . S
H1301 C1315 0.960 . S
H1302 C1315 0.961 . S
H1303 C1315 0.959 . S
H1304 C1318 0.929 . S
H1305 C1319 0.931 . S
H1306 C1321 0.930 . S
C1307 H1295 0.930 . S
C1307 C1308 1.399 . S
C1307 C1312 1.399 . S
C1308 C1307 1.399 . S
C1308 C1309 1.376 . S
C1309 H1296 0.930 . S
C1309 C1308 1.376 . S
C1309 C1310 1.388 . S
C1310 H1297 0.930 . S
C1310 C1309 1.388 . S
C1310 C1311 1.390 . S
C1311 C1310 1.390 . S
C1311 C1312 1.394 . S
C1311 C1317 1.465 . S
C1312 C1307 1.399 . S
C1312 C1311 1.394 . S
C1312 C1313 1.516 . S
C1313 C1312 1.516 . S
C1313 C1314 1.502 . S
C1313 C1315 1.561 . S
C1313 C1316 1.526 . S
C1314 H1298 0.959 . S
C1314 H1299 0.959 . S
C1314 H1300 0.961 . S
C1314 C1313 1.502 . S
C1315 H1301 0.960 . S
C1315 H1302 0.961 . S
C1315 H1303 0.959 . S
C1315 C1313 1.561 . S
C1316 C1313 1.526 . S
C1316 C1317 1.396 . S
C1316 C1321 1.390 . S
C1317 C1311 1.465 . S
C1317 C1316 1.396 . S
C1317 C1318 1.399 . S
C1318 H1304 0.929 . S
C1318 C1317 1.399 . S
C1318 C1319 1.385 . S
C1319 H1305 0.931 . S
C1319 C1318 1.385 . S
C1319 C1320 1.389 . S
C1320 C1319 1.389 . S
C1320 C1321 1.387 . S
C1321 H1306 0.930 . S
C1321 C1316 1.390 . S
C1321 C1320 1.387 . S
H1322 C1334 0.930 . S
H1323 C1336 0.930 . S
H1324 C1337 0.930 . S
H1325 C1341 0.959 . S
H1326 C1341 0.959 . S
H1327 C1341 0.961 . S
H1328 C1342 0.960 . S
H1329 C1342 0.961 . S
H1330 C1342 0.959 . S
H1331 C1345 0.929 . S
H1332 C1346 0.931 . S
H1333 C1348 0.930 . S
C1334 H1322 0.930 . S
C1334 C1335 1.399 . S
C1334 C1339 1.399 . S
C1335 C1334 1.399 . S
C1335 C1336 1.376 . S
C1336 H1323 0.930 . S
C1336 C1335 1.376 . S
C1336 C1337 1.388 . S
C1337 H1324 0.930 . S
C1337 C1336 1.388 . S
C1337 C1338 1.390 . S
C1338 C1337 1.390 . S
C1338 C1339 1.394 . S
C1338 C1344 1.465 . S
C1339 C1334 1.399 . S
C1339 C1338 1.394 . S
C1339 C1340 1.516 . S
C1340 C1339 1.516 . S
C1340 C1341 1.502 . S
C1340 C1342 1.561 . S
C1340 C1343 1.526 . S
C1341 H1325 0.959 . S
C1341 H1326 0.959 . S
C1341 H1327 0.961 . S
C1341 C1340 1.502 . S
C1342 H1328 0.960 . S
C1342 H1329 0.961 . S
C1342 H1330 0.959 . S
C1342 C1340 1.561 . S
C1343 C1340 1.526 . S
C1343 C1344 1.396 . S
C1343 C1348 1.390 . S
C1344 C1338 1.465 . S
C1344 C1343 1.396 . S
C1344 C1345 1.399 . S
C1345 H1331 0.929 . S
C1345 C1344 1.399 . S
C1345 C1346 1.385 . S
C1346 H1332 0.931 . S
C1346 C1345 1.385 . S
C1346 C1347 1.389 . S
C1347 C1346 1.389 . S
C1347 C1348 1.387 . S
C1348 H1333 0.930 . S
C1348 C1343 1.390 . S
C1348 C1347 1.387 . S
H1349 C1361 0.930 . S
H1350 C1363 0.930 . S
H1351 C1364 0.930 . S
H1352 C1368 0.959 . S
H1353 C1368 0.959 . S
H1354 C1368 0.961 . S
H1355 C1369 0.960 . S
H1356 C1369 0.961 . S
H1357 C1369 0.959 . S
H1358 C1372 0.929 . S
H1359 C1373 0.931 . S
H1360 C1375 0.930 . S
C1361 H1349 0.930 . S
C1361 C1362 1.399 . S
C1361 C1366 1.399 . S
C1362 C1361 1.399 . S
C1362 C1363 1.376 . S
C1363 H1350 0.930 . S
C1363 C1362 1.376 . S
C1363 C1364 1.388 . S
C1364 H1351 0.930 . S
C1364 C1363 1.388 . S
C1364 C1365 1.390 . S
C1365 C1364 1.390 . S
C1365 C1366 1.394 . S
C1365 C1371 1.465 . S
C1366 C1361 1.399 . S
C1366 C1365 1.394 . S
C1366 C1367 1.516 . S
C1367 C1366 1.516 . S
C1367 C1368 1.502 . S
C1367 C1369 1.561 . S
C1367 C1370 1.526 . S
C1368 H1352 0.959 . S
C1368 H1353 0.959 . S
C1368 H1354 0.961 . S
C1368 C1367 1.502 . S
C1369 H1355 0.960 . S
C1369 H1356 0.961 . S
C1369 H1357 0.959 . S
C1369 C1367 1.561 . S
C1370 C1367 1.526 . S
C1370 C1371 1.396 . S
C1370 C1375 1.390 . S
C1371 C1365 1.465 . S
C1371 C1370 1.396 . S
C1371 C1372 1.399 . S
C1372 H1358 0.929 . S
C1372 C1371 1.399 . S
C1372 C1373 1.385 . S
C1373 H1359 0.931 . S
C1373 C1372 1.385 . S
C1373 C1374 1.389 . S
C1374 C1373 1.389 . S
C1374 C1375 1.387 . S
C1375 H1360 0.930 . S
C1375 C1370 1.390 . S
C1375 C1374 1.387 . S
C537 C433 1.487 . S
C525 C45 1.521 . S
C552 C78 1.530 . S
C564 C465 1.480 . S
C579 C126 1.499 . S
C591 C488 1.530 . S
C618 C392 1.535 . S
C606 C174 1.507 . S
C645 C475 1.306 . S
C633 C36 1.498 . S
C672 C504 1.427 . S
C660 C69 1.485 . S
C699 C408 1.414 . S
C687 C117 1.483 . S
C726 C443 1.303 . S
C714 C165 1.502 . S
C741 C30 1.500 . S
C753 C471 1.407 . S
C768 C228 1.480 . S
C780 C446 1.402 . S
C795 C141 1.480 . S
C807 C414 1.417 . S
C834 C503 1.339 . S
C822 C270 1.486 . S
C861 C447 1.516 . S
C849 C21 1.531 . S
C876 C237 1.527 . S
C888 C415 1.493 . S
C903 C132 1.528 . S
C915 C502 1.510 . S
C942 C470 1.538 . S
C930 C261 1.530 . S
C957 C333 1.516 . S
C969 C497 1.489 . S
C984 C213 1.532 . S
C996 C401 1.511 . S
C1011 C357 1.521 . S
C1023 C424 1.533 . S
C1038 C285 1.522 . S
C1050 C456 1.506 . S
C1077 C411 1.424 . S
C1065 C324 1.496 . S
C1092 C222 1.480 . S
C1104 C440 1.340 . S
C1119 C366 1.495 . S
C1131 C472 1.359 . S
C1158 C507 1.328 . S
C1146 C276 1.497 . S
C1173 C318 1.493 . S
C1185 C407 1.408 . S
C1200 C93 1.498 . S
C1212 C510 1.356 . S
C1227 C372 1.494 . S
C1239 C478 1.302 . S
C1266 C439 1.411 . S
C1254 C189 1.459 . S
C1293 C511 1.518 . S
C1281 C309 1.530 . S
C1320 C479 1.486 . S
C1308 C84 1.537 . S
C1347 C438 1.517 . S
C1335 C381 1.508 . S
C1374 C406 1.534 . S
C1362 C180 1.524 . S
