# Generated by pormake.
# Topology eea, (3,6)-cn, num edge types: 1
# Building blocks:
#     Node 0, Type 0, BuildingBlock: KAKCAD_clean_linker_0, # of connection points: 3
#     Node 1, Type 0, BuildingBlock: KAKCAD_clean_linker_0, # of connection points: 3
#     Node 2, Type 0, BuildingBlock: KAKCAD_clean_linker_0, # of connection points: 3
#     Node 3, Type 0, BuildingBlock: KAKCAD_clean_linker_0, # of connection points: 3
#     Node 4, Type 0, BuildingBlock: KAKCAD_clean_linker_0, # of connection points: 3
#     Node 5, Type 0, BuildingBlock: KAKCAD_clean_linker_0, # of connection points: 3
#     Node 6, Type 0, BuildingBlock: KAKCAD_clean_linker_0, # of connection points: 3
#     Node 7, Type 0, BuildingBlock: KAKCAD_clean_linker_0, # of connection points: 3
#     Node 8, Type 0, BuildingBlock: KAKCAD_clean_linker_0, # of connection points: 3
#     Node 9, Type 0, BuildingBlock: KAKCAD_clean_linker_0, # of connection points: 3
#     Node 10, Type 0, BuildingBlock: KAKCAD_clean_linker_0, # of connection points: 3
#     Node 11, Type 0, BuildingBlock: KAKCAD_clean_linker_0, # of connection points: 3
#     Node 12, Type 0, BuildingBlock: KAKCAD_clean_linker_0, # of connection points: 3
#     Node 13, Type 0, BuildingBlock: KAKCAD_clean_linker_0, # of connection points: 3
#     Node 14, Type 0, BuildingBlock: KAKCAD_clean_linker_0, # of connection points: 3
#     Node 15, Type 0, BuildingBlock: KAKCAD_clean_linker_0, # of connection points: 3
#     Node 16, Type 0, BuildingBlock: KAKCAD_clean_linker_0, # of connection points: 3
#     Node 17, Type 0, BuildingBlock: KAKCAD_clean_linker_0, # of connection points: 3
#     Node 18, Type 1, BuildingBlock: CUKXOW_clean_sbu_0, # of connection points: 6
#     Node 19, Type 1, BuildingBlock: CUKXOW_clean_sbu_0, # of connection points: 6
#     Node 20, Type 1, BuildingBlock: CUKXOW_clean_sbu_0, # of connection points: 6
#     Node 21, Type 1, BuildingBlock: CUKXOW_clean_sbu_0, # of connection points: 6
#     Node 22, Type 1, BuildingBlock: CUKXOW_clean_sbu_0, # of connection points: 6
#     Node 23, Type 1, BuildingBlock: CUKXOW_clean_sbu_0, # of connection points: 6
#     Node 24, Type 1, BuildingBlock: CUKXOW_clean_sbu_0, # of connection points: 6
#     Node 25, Type 1, BuildingBlock: CUKXOW_clean_sbu_0, # of connection points: 6
#     Node 26, Type 1, BuildingBlock: CUKXOW_clean_sbu_0, # of connection points: 6
#     Edge 27, Type (0, 1), None
#     Edge 28, Type (0, 1), None
#     Edge 29, Type (0, 1), None
#     Edge 30, Type (0, 1), None
#     Edge 31, Type (0, 1), None
#     Edge 32, Type (0, 1), None
#     Edge 33, Type (0, 1), None
#     Edge 34, Type (0, 1), None
#     Edge 35, Type (0, 1), None
#     Edge 36, Type (0, 1), None
#     Edge 37, Type (0, 1), None
#     Edge 38, Type (0, 1), None
#     Edge 39, Type (0, 1), None
#     Edge 40, Type (0, 1), None
#     Edge 41, Type (0, 1), None
#     Edge 42, Type (0, 1), None
#     Edge 43, Type (0, 1), None
#     Edge 44, Type (0, 1), None
#     Edge 45, Type (0, 1), None
#     Edge 46, Type (0, 1), None
#     Edge 47, Type (0, 1), None
#     Edge 48, Type (0, 1), None
#     Edge 49, Type (0, 1), None
#     Edge 50, Type (0, 1), None
#     Edge 51, Type (0, 1), None
#     Edge 52, Type (0, 1), None
#     Edge 53, Type (0, 1), None
#     Edge 54, Type (0, 1), None
#     Edge 55, Type (0, 1), None
#     Edge 56, Type (0, 1), None
#     Edge 57, Type (0, 1), None
#     Edge 58, Type (0, 1), None
#     Edge 59, Type (0, 1), None
#     Edge 60, Type (0, 1), None
#     Edge 61, Type (0, 1), None
#     Edge 62, Type (0, 1), None
#     Edge 63, Type (0, 1), None
#     Edge 64, Type (0, 1), None
#     Edge 65, Type (0, 1), None
#     Edge 66, Type (0, 1), None
#     Edge 67, Type (0, 1), None
#     Edge 68, Type (0, 1), None
#     Edge 69, Type (0, 1), None
#     Edge 70, Type (0, 1), None
#     Edge 71, Type (0, 1), None
#     Edge 72, Type (0, 1), None
#     Edge 73, Type (0, 1), None
#     Edge 74, Type (0, 1), None
#     Edge 75, Type (0, 1), None
#     Edge 76, Type (0, 1), None
#     Edge 77, Type (0, 1), None
#     Edge 78, Type (0, 1), None
#     Edge 79, Type (0, 1), None
#     Edge 80, Type (0, 1), None
# Relax obj value: 0.018
# Max RMSD: 0.123
# Mean RMSD: 0.065
data_MOF--net-eea--node1-CUKXOW_clean_sbu_0--node2-KAKCAD_clean_linker_0--edge1-none
_symmetry_space_group_name_H-M    P1
_symmetry_Int_Tables_number       1
_symmetry_cell_setting            triclinic
loop_
_symmetry_equiv_pos_as_xyz
'x, y, z'
_cell_length_a     38.873317
_cell_length_b     35.185055
_cell_length_c     38.459564
_cell_angle_alpha  93.459467
_cell_angle_beta   93.055789
_cell_angle_gamma 120.0714
loop_
_atom_site_label
_atom_site_type_symbol
_atom_site_fract_x
_atom_site_fract_y
_atom_site_fract_z
_atom_type_partial_charge
C0 C 0.29141 0.16409 0.58206 0.0
C1 C 0.32836 0.16615 0.58729 0.0
C2 C 0.27378 0.15934 0.54818 0.0
C3 C 0.29225 0.15518 0.51898 0.0
C4 C 0.32917 0.15722 0.52413 0.0
C5 C 0.34721 0.163 0.55798 0.0
C6 C 0.27131 0.14467 0.48342 0.0
C7 C 0.25944 0.17282 0.46954 0.0
C8 C 0.2376 0.16117 0.43646 0.0
C9 C 0.22707 0.12077 0.41774 0.0
C10 C 0.23893 0.09259 0.43125 0.0
C11 C 0.26151 0.10498 0.46389 0.0
C12 C 0.22644 0.04942 0.41188 0.0
C13 C 0.1861 0.02051 0.39994 0.0
C14 C 0.25445 0.03619 0.40638 0.0
C15 C 0.24217 0.99425 0.39007 0.0
C16 C 0.20153 0.96449 0.37954 0.0
C17 C 0.22583 0.19098 0.42101 0.0
C18 C 0.18645 0.17448 0.40642 0.0
C19 C 0.25419 0.23561 0.41945 0.0
C20 C 0.24343 0.26323 0.40339 0.0
C21 C 0.20392 0.24686 0.38903 0.0
C22 C 0.17553 0.2022 0.3908 0.0
C23 C 0.1737 0.97828 0.38414 0.0
H24 H 0.27522 0.16413 0.60397 0.0
H25 H 0.24484 0.15685 0.54481 0.0
H26 H 0.34377 0.15372 0.50195 0.0
H27 H 0.3755 0.16397 0.56123 0.0
H28 H 0.26696 0.20352 0.48454 0.0
H29 H 0.27003 0.08283 0.4748 0.0
H30 H 0.21026 0.11158 0.39222 0.0
H31 H 0.16394 0.02998 0.40401 0.0
H32 H 0.28577 0.05811 0.41511 0.0
H33 H 0.26438 0.9846 0.38709 0.0
H34 H 0.16398 0.14017 0.4074 0.0
H35 H 0.28484 0.24898 0.43019 0.0
H36 H 0.14221 0.95611 0.3763 0.0
H37 H 0.14483 0.18859 0.38013 0.0
H38 H 0.26596 0.29758 0.40279 0.0
C39 C 0.81039 0.17613 0.56357 0.0
C40 C 0.83079 0.17044 0.59218 0.0
C41 C 0.82082 0.17315 0.52959 0.0
C42 C 0.85247 0.16567 0.52396 0.0
C43 C 0.87397 0.16205 0.55271 0.0
C44 C 0.86286 0.16376 0.58641 0.0
C45 C 0.8599 0.15576 0.4882 0.0
C46 C 0.89783 0.18047 0.47617 0.0
C47 C 0.90582 0.16734 0.44374 0.0
C48 C 0.87559 0.12938 0.42371 0.0
C49 C 0.8383 0.10373 0.43597 0.0
C50 C 0.83019 0.11765 0.46784 0.0
C51 C 0.80962 0.06026 0.41703 0.0
C52 C 0.76909 0.04686 0.41081 0.0
C53 C 0.8228 0.03128 0.40603 0.0
C54 C 0.79579 0.9892 0.38986 0.0
C55 C 0.75506 0.97534 0.38419 0.0
C56 C 0.94579 0.19156 0.4307 0.0
C57 C 0.96701 0.23787 0.43259 0.0
C58 C 0.96185 0.16795 0.41418 0.0
C59 C 0.99728 0.18991 0.39844 0.0
C60 C 0.01774 0.23597 0.39934 0.0
C61 C 0.00282 0.25993 0.41708 0.0
C62 C 0.74207 0.00487 0.39431 0.0
H63 H 0.78535 0.18095 0.56724 0.0
H64 H 0.80359 0.17554 0.50764 0.0
H65 H 0.89796 0.15541 0.54889 0.0
H66 H 0.87848 0.15811 0.60775 0.0
H67 H 0.92124 0.20898 0.49246 0.0
H68 H 0.80168 0.09728 0.47794 0.0
H69 H 0.88123 0.11914 0.39852 0.0
H70 H 0.7583 0.06874 0.41888 0.0
H71 H 0.85391 0.04067 0.41087 0.0
H72 H 0.80677 0.96729 0.38245 0.0
H73 H 0.95533 0.25691 0.44503 0.0
H74 H 0.94674 0.13229 0.41306 0.0
H75 H 0.71083 0.9952 0.39047 0.0
H76 H 0.01839 0.29562 0.41836 0.0
H77 H 0.00859 0.17078 0.38547 0.0
C78 C 0.86386 0.6942 0.58667 0.0
C79 C 0.82837 0.6546 0.58985 0.0
C80 C 0.87537 0.70774 0.55375 0.0
C81 C 0.8509 0.68256 0.52343 0.0
C82 C 0.81543 0.64288 0.5264 0.0
C83 C 0.80442 0.6288 0.55938 0.0
C84 C 0.8599 0.70066 0.48933 0.0
C85 C 0.89455 0.70795 0.47423 0.0
C86 C 0.9042 0.72817 0.44287 0.0
C87 C 0.87889 0.74149 0.42737 0.0
C88 C 0.84446 0.73484 0.44242 0.0
C89 C 0.83494 0.71387 0.47326 0.0
C90 C 0.81934 0.7512 0.42646 0.0
C91 C 0.8371 0.79185 0.41192 0.0
C92 C 0.7775 0.72642 0.4256 0.0
C93 C 0.75402 0.74193 0.41054 0.0
C94 C 0.7719 0.78218 0.39569 0.0
C95 C 0.94146 0.7378 0.42685 0.0
C96 C 0.97711 0.75119 0.44794 0.0
C97 C 0.94235 0.73673 0.3902 0.0
C98 C 0.97823 0.75112 0.37521 0.0
C99 C 0.01374 0.76549 0.39642 0.0
C100 C 0.01283 0.76447 0.43281 0.0
C101 C 0.81356 0.807 0.39642 0.0
H102 H 0.88176 0.71596 0.60948 0.0
H103 H 0.90229 0.73906 0.55203 0.0
H104 H 0.79586 0.62336 0.50324 0.0
H105 H 0.77662 0.59841 0.56107 0.0
H106 H 0.91368 0.69766 0.4869 0.0
H107 H 0.80904 0.70956 0.48578 0.0
H108 H 0.88636 0.75794 0.40369 0.0
H109 H 0.86926 0.81232 0.41285 0.0
H110 H 0.76284 0.69478 0.43617 0.0
H111 H 0.72184 0.72221 0.41023 0.0
H112 H 0.97785 0.75303 0.47619 0.0
H113 H 0.91537 0.72539 0.37298 0.0
H114 H 0.82799 0.8384 0.38545 0.0
H115 H 0.04001 0.77552 0.44969 0.0
H116 H 0.97821 0.75103 0.34703 0.0
C117 C 0.13865 0.31715 0.4538 0.0
C118 C 0.17025 0.3594 0.44903 0.0
C119 C 0.12805 0.30513 0.48723 0.0
C120 C 0.14969 0.33455 0.51689 0.0
C121 C 0.18097 0.37712 0.51238 0.0
C122 C 0.19082 0.38968 0.47866 0.0
C123 C 0.14283 0.31826 0.55199 0.0
C124 C 0.17284 0.3143 0.57054 0.0
C125 C 0.16528 0.29243 0.60111 0.0
C126 C 0.12786 0.27681 0.61392 0.0
C127 C 0.09744 0.28061 0.59606 0.0
C128 C 0.10509 0.30121 0.56479 0.0
C129 C 0.05769 0.26161 0.61017 0.0
C130 C 0.04208 0.22196 0.62619 0.0
C131 C 0.03616 0.28394 0.60977 0.0
C132 C 0.00061 0.26768 0.62591 0.0
C133 C 0.98625 0.22915 0.64312 0.0
C134 C 0.19416 0.2811 0.61767 0.0
C135 C 0.2165 0.26907 0.59677 0.0
C136 C 0.19648 0.2775 0.65396 0.0
C137 C 0.21841 0.25973 0.66849 0.0
C138 C 0.23955 0.24666 0.64725 0.0
C139 C 0.2393 0.25254 0.6115 0.0
C140 C 0.00708 0.20625 0.64284 0.0
H141 H 0.12327 0.29241 0.4318 0.0
H142 H 0.10445 0.27182 0.49001 0.0
H143 H 0.19842 0.40017 0.53497 0.0
H144 H 0.21568 0.42222 0.4759 0.0
H145 H 0.20149 0.32654 0.56013 0.0
H146 H 0.08154 0.30297 0.5499 0.0
H147 H 0.12179 0.26014 0.63749 0.0
H148 H 0.05704 0.20299 0.62609 0.0
H149 H 0.0473 0.31458 0.59785 0.0
H150 H 0.98477 0.2857 0.62549 0.0
H151 H 0.21507 0.27047 0.56872 0.0
H152 H 0.18066 0.28751 0.67115 0.0
H153 H 0.99615 0.17595 0.65523 0.0
H154 H 0.25548 0.24265 0.59459 0.0
H155 H 0.21879 0.25617 0.69627 0.0
C156 C 0.64587 0.82569 0.47656 0.0
C157 C 0.66802 0.83125 0.44762 0.0
C158 C 0.66323 0.82964 0.51057 0.0
C159 C 0.70257 0.83797 0.51605 0.0
C160 C 0.72405 0.84174 0.48705 0.0
C161 C 0.70719 0.83908 0.45332 0.0
C162 C 0.72324 0.8482 0.55181 0.0
C163 C 0.73674 0.82101 0.56511 0.0
C164 C 0.76056 0.83403 0.59732 0.0
C165 C 0.77114 0.87455 0.61577 0.0
C166 C 0.75776 0.90179 0.60297 0.0
C167 C 0.73329 0.88813 0.57121 0.0
C168 C 0.77106 0.9454 0.62214 0.0
C169 C 0.74345 0.95868 0.62942 0.0
C170 C 0.81174 0.9742 0.63307 0.0
C171 C 0.82473 0.01604 0.65005 0.0
C172 C 0.79721 0.02967 0.6569 0.0
C173 C 0.7748 0.80598 0.61235 0.0
C174 C 0.74754 0.7625 0.61855 0.0
C175 C 0.81551 0.82386 0.62335 0.0
C176 C 0.82871 0.7988 0.64038 0.0
C177 C 0.80134 0.75561 0.6474 0.0
C178 C 0.76061 0.73768 0.63616 0.0
C179 C 0.75634 1.00026 0.6469 0.0
H180 H 0.61583 0.82018 0.47307 0.0
H181 H 0.64631 0.82719 0.53266 0.0
H182 H 0.75468 0.84905 0.49068 0.0
H183 H 0.72553 0.84495 0.43185 0.0
H184 H 0.72941 0.79036 0.55015 0.0
H185 H 0.72379 0.90966 0.56065 0.0
H186 H 0.78949 0.88469 0.64057 0.0
H187 H 0.7119 0.93692 0.62151 0.0
H188 H 0.83368 0.9648 0.62763 0.0
H189 H 0.85639 0.03795 0.6573 0.0
H190 H 0.71598 0.74815 0.61063 0.0
H191 H 0.83712 0.85739 0.61888 0.0
H192 H 0.73436 0.00985 0.6515 0.0
H193 H 0.7388 0.70425 0.64066 0.0
H194 H 0.86027 0.81345 0.64841 0.0
C195 C 0.14566 0.84549 0.45713 0.0
C196 C 0.17318 0.83151 0.45108 0.0
C197 C 0.13606 0.85037 0.49093 0.0
C198 C 0.15448 0.84248 0.51963 0.0
C199 C 0.18192 0.82837 0.51394 0.0
C200 C 0.19092 0.82249 0.47981 0.0
C201 C 0.14832 0.85448 0.55534 0.0
C202 C 0.11276 0.82744 0.57031 0.0
C203 C 0.10434 0.84225 0.602 0.0
C204 C 0.13198 0.88497 0.61773 0.0
C205 C 0.16782 0.91173 0.6034 0.0
C206 C 0.17607 0.89611 0.5724 0.0
C207 C 0.19574 0.95683 0.62022 0.0
C208 C 0.18183 0.98585 0.62876 0.0
C209 C 0.23626 0.97097 0.6281 0.0
C210 C 0.26247 0.01343 0.64428 0.0
C211 C 0.24875 0.04281 0.65237 0.0
C212 C 0.06634 0.81472 0.61821 0.0
C213 C 0.03061 0.78504 0.59744 0.0
C214 C 0.06502 0.8195 0.65479 0.0
C215 C 0.02893 0.79733 0.6698 0.0
C216 C 0.99358 0.76837 0.64887 0.0
C217 C 0.99477 0.76166 0.61271 0.0
C218 C 0.20814 0.02856 0.64444 0.0
H219 H 0.13245 0.85422 0.43587 0.0
H220 H 0.11549 0.86221 0.49483 0.0
H221 H 0.19694 0.82284 0.53589 0.0
H222 H 0.21257 0.81218 0.47603 0.0
H223 H 0.0918 0.7952 0.55698 0.0
H224 H 0.2031 0.91733 0.56052 0.0
H225 H 0.12561 0.89815 0.64109 0.0
H226 H 0.15069 0.97573 0.62275 0.0
H227 H 0.24759 0.94906 0.62193 0.0
H228 H 0.29367 0.02352 0.6497 0.0
H229 H 0.02983 0.78069 0.56927 0.0
H230 H 0.09185 0.84063 0.67206 0.0
H231 H 0.19668 0.05043 0.6502 0.0
H232 H 0.96766 0.73951 0.59601 0.0
H233 H 0.02875 0.80249 0.69784 0.0
C234 C 0.95808 0.49742 0.91539 0.0
C235 C 0.99503 0.49949 0.92062 0.0
C236 C 0.94045 0.49268 0.88152 0.0
C237 C 0.95891 0.48852 0.85231 0.0
C238 C 0.99583 0.49055 0.85747 0.0
C239 C 0.01387 0.49633 0.89132 0.0
C240 C 0.93797 0.478 0.81675 0.0
C241 C 0.9261 0.50615 0.80288 0.0
C242 C 0.90427 0.4945 0.76979 0.0
C243 C 0.89374 0.45411 0.75107 0.0
C244 C 0.90559 0.42592 0.76458 0.0
C245 C 0.92817 0.43831 0.79722 0.0
C246 C 0.89311 0.38275 0.74521 0.0
C247 C 0.85277 0.35384 0.73327 0.0
C248 C 0.92111 0.36952 0.73971 0.0
C249 C 0.90884 0.32758 0.72341 0.0
C250 C 0.8682 0.29782 0.71287 0.0
C251 C 0.89249 0.52431 0.75435 0.0
C252 C 0.85311 0.50782 0.73976 0.0
C253 C 0.92086 0.56895 0.75278 0.0
C254 C 0.91009 0.59656 0.73672 0.0
C255 C 0.87058 0.58019 0.72237 0.0
C256 C 0.8422 0.53553 0.72413 0.0
C257 C 0.84037 0.31161 0.71748 0.0
H258 H 0.94188 0.49746 0.9373 0.0
H259 H 0.91151 0.49018 0.87814 0.0
H260 H 0.01043 0.48706 0.83528 0.0
H261 H 0.04217 0.4973 0.89456 0.0
H262 H 0.93362 0.53686 0.81788 0.0
H263 H 0.9367 0.41616 0.80813 0.0
H264 H 0.87693 0.44492 0.72556 0.0
H265 H 0.8306 0.36332 0.73734 0.0
H266 H 0.95243 0.39144 0.74844 0.0
H267 H 0.93105 0.31794 0.72042 0.0
H268 H 0.83065 0.4735 0.74074 0.0
H269 H 0.95151 0.58232 0.76352 0.0
H270 H 0.80888 0.28944 0.70963 0.0
H271 H 0.8115 0.52192 0.71346 0.0
H272 H 0.93262 0.63092 0.73613 0.0
C273 C 0.47705 0.50946 0.8969 0.0
C274 C 0.49746 0.50378 0.92551 0.0
C275 C 0.48749 0.50648 0.86293 0.0
C276 C 0.51913 0.499 0.8573 0.0
C277 C 0.54064 0.49538 0.88604 0.0
C278 C 0.52953 0.49709 0.91974 0.0
C279 C 0.52657 0.48909 0.82154 0.0
C280 C 0.5645 0.51381 0.8095 0.0
C281 C 0.57249 0.50068 0.77707 0.0
C282 C 0.54226 0.46271 0.75704 0.0
C283 C 0.50497 0.43706 0.7693 0.0
C284 C 0.49685 0.45098 0.80117 0.0
C285 C 0.47628 0.3936 0.75037 0.0
C286 C 0.43576 0.3802 0.74414 0.0
C287 C 0.48947 0.36461 0.73936 0.0
C288 C 0.46246 0.32254 0.72319 0.0
C289 C 0.42173 0.30868 0.71753 0.0
C290 C 0.61246 0.5249 0.76404 0.0
C291 C 0.63368 0.5712 0.76592 0.0
C292 C 0.62852 0.50128 0.74752 0.0
C293 C 0.66395 0.52324 0.73177 0.0
C294 C 0.68441 0.56931 0.73268 0.0
C295 C 0.66949 0.59326 0.75041 0.0
C296 C 0.40874 0.33821 0.72764 0.0
H297 H 0.45202 0.51428 0.90058 0.0
H298 H 0.47026 0.50887 0.84097 0.0
H299 H 0.56463 0.48875 0.88223 0.0
H300 H 0.54515 0.49144 0.94108 0.0
H301 H 0.58791 0.54231 0.82579 0.0
H302 H 0.46835 0.43061 0.81128 0.0
H303 H 0.5479 0.45247 0.73185 0.0
H304 H 0.42497 0.40208 0.75222 0.0
H305 H 0.52057 0.37401 0.74421 0.0
H306 H 0.47343 0.30063 0.71578 0.0
H307 H 0.622 0.59024 0.77837 0.0
H308 H 0.61341 0.46562 0.74639 0.0
H309 H 0.3775 0.32853 0.7238 0.0
H310 H 0.68506 0.62895 0.7517 0.0
H311 H 0.67525 0.50412 0.7188 0.0
C312 C 0.53053 0.02753 0.92 0.0
C313 C 0.49504 0.98793 0.92319 0.0
C314 C 0.54204 0.04107 0.88708 0.0
C315 C 0.51756 0.0159 0.85676 0.0
C316 C 0.48209 0.97622 0.85973 0.0
C317 C 0.47109 0.96213 0.89271 0.0
C318 C 0.52657 0.03399 0.82266 0.0
C319 C 0.56122 0.04128 0.80756 0.0
C320 C 0.57087 0.06151 0.7762 0.0
C321 C 0.54556 0.07483 0.7607 0.0
C322 C 0.51113 0.06817 0.77575 0.0
C323 C 0.50161 0.0472 0.80659 0.0
C324 C 0.48601 0.08453 0.75979 0.0
C325 C 0.50377 0.12518 0.74525 0.0
C326 C 0.44417 0.05975 0.75893 0.0
C327 C 0.42068 0.07526 0.74387 0.0
C328 C 0.43857 0.11551 0.72902 0.0
C329 C 0.60813 0.07113 0.76018 0.0
C330 C 0.64378 0.08452 0.78127 0.0
C331 C 0.60901 0.07007 0.72353 0.0
C332 C 0.6449 0.08445 0.70854 0.0
C333 C 0.6804 0.09882 0.72976 0.0
C334 C 0.67949 0.0978 0.76614 0.0
C335 C 0.48023 0.14033 0.72975 0.0
H336 H 0.54843 0.04929 0.94281 0.0
H337 H 0.56896 0.07239 0.88536 0.0
H338 H 0.46253 0.95669 0.83658 0.0
H339 H 0.44328 0.93174 0.8944 0.0
H340 H 0.58035 0.03099 0.82023 0.0
H341 H 0.47571 0.04289 0.81911 0.0
H342 H 0.55303 0.09128 0.73703 0.0
H343 H 0.53592 0.14565 0.74618 0.0
H344 H 0.42951 0.02812 0.7695 0.0
H345 H 0.38851 0.05554 0.74356 0.0
H346 H 0.64452 0.08636 0.80952 0.0
H347 H 0.58204 0.05873 0.70632 0.0
H348 H 0.49466 0.17173 0.71878 0.0
H349 H 0.70668 0.10885 0.78303 0.0
H350 H 0.64488 0.08436 0.68036 0.0
C351 C 0.80532 0.65048 0.78713 0.0
C352 C 0.83692 0.69273 0.78236 0.0
C353 C 0.79471 0.63846 0.82057 0.0
C354 C 0.81636 0.66788 0.85022 0.0
C355 C 0.84763 0.71046 0.84572 0.0
C356 C 0.85749 0.72301 0.812 0.0
C357 C 0.8095 0.65159 0.88533 0.0
C358 C 0.8395 0.64763 0.90387 0.0
C359 C 0.83194 0.62576 0.93444 0.0
C360 C 0.79453 0.61015 0.94725 0.0
C361 C 0.7641 0.61394 0.92939 0.0
C362 C 0.77175 0.63454 0.89812 0.0
C363 C 0.72435 0.59495 0.94351 0.0
C364 C 0.70875 0.55529 0.95952 0.0
C365 C 0.70282 0.61727 0.9431 0.0
C366 C 0.66728 0.60101 0.95924 0.0
C367 C 0.65292 0.56249 0.97645 0.0
C368 C 0.86083 0.61444 0.951 0.0
C369 C 0.88316 0.6024 0.9301 0.0
C370 C 0.86315 0.61083 0.9873 0.0
C371 C 0.88507 0.59306 1.00182 0.0
C372 C 0.90621 0.58 0.98058 0.0
C373 C 0.90597 0.58587 0.94483 0.0
C374 C 0.67375 0.53959 0.97617 0.0
H375 H 0.78994 0.62574 0.76514 0.0
H376 H 0.77112 0.60515 0.82334 0.0
H377 H 0.86509 0.7335 0.8683 0.0
H378 H 0.88234 0.75555 0.80923 0.0
H379 H 0.86816 0.65988 0.89347 0.0
H380 H 0.74821 0.6363 0.88324 0.0
H381 H 0.78846 0.59348 0.97082 0.0
H382 H 0.7237 0.53632 0.95942 0.0
H383 H 0.71396 0.64791 0.93119 0.0
H384 H 0.65143 0.61903 0.95882 0.0
H385 H 0.88174 0.6038 0.90206 0.0
H386 H 0.84732 0.62084 1.00448 0.0
H387 H 0.66282 0.50928 0.98857 0.0
H388 H 0.92214 0.57598 0.92793 0.0
H389 H 0.88546 0.5895 0.0296 0.0
C390 C 0.31254 0.15902 0.80989 0.0
C391 C 0.33469 0.16458 0.78096 0.0
C392 C 0.3299 0.16297 0.8439 0.0
C393 C 0.36924 0.17131 0.84938 0.0
C394 C 0.39071 0.17507 0.82039 0.0
C395 C 0.37386 0.17242 0.78665 0.0
C396 C 0.38991 0.18154 0.88515 0.0
C397 C 0.4034 0.15435 0.89844 0.0
C398 C 0.42723 0.16737 0.93065 0.0
C399 C 0.43781 0.20788 0.94911 0.0
C400 C 0.42443 0.23512 0.9363 0.0
C401 C 0.39996 0.22147 0.90454 0.0
C402 C 0.43773 0.27874 0.95548 0.0
C403 C 0.41011 0.29201 0.96275 0.0
C404 C 0.47841 0.30754 0.9664 0.0
C405 C 0.49139 0.34937 0.98339 0.0
C406 C 0.46388 0.36301 0.99023 0.0
C407 C 0.44147 0.13931 0.94568 0.0
C408 C 0.4142 0.09583 0.95189 0.0
C409 C 0.48218 0.15719 0.95668 0.0
C410 C 0.49537 0.13213 0.97371 0.0
C411 C 0.46801 0.08895 0.98073 0.0
C412 C 0.42728 0.07101 0.9695 0.0
C413 C 0.42301 0.3336 0.98024 0.0
H414 H 0.2825 0.15351 0.80641 0.0
H415 H 0.31298 0.16053 0.86599 0.0
H416 H 0.42134 0.18238 0.82401 0.0
H417 H 0.39219 0.17829 0.76518 0.0
H418 H 0.39607 0.12369 0.88349 0.0
H419 H 0.39045 0.24299 0.89398 0.0
H420 H 0.45615 0.21803 0.9739 0.0
H421 H 0.37857 0.27025 0.95484 0.0
H422 H 0.50034 0.29813 0.96096 0.0
H423 H 0.52306 0.37128 0.99063 0.0
H424 H 0.38264 0.08149 0.94397 0.0
H425 H 0.50379 0.19073 0.95221 0.0
H426 H 0.40103 0.34319 0.98483 0.0
H427 H 0.40546 0.03758 0.97399 0.0
H428 H 0.52694 0.14678 0.98175 0.0
C429 C 0.81233 0.17882 0.79046 0.0
C430 C 0.83984 0.16485 0.78442 0.0
C431 C 0.80273 0.1837 0.82426 0.0
C432 C 0.82114 0.17582 0.85297 0.0
C433 C 0.84858 0.1617 0.84727 0.0
C434 C 0.85759 0.15582 0.81315 0.0
C435 C 0.81499 0.18782 0.88867 0.0
C436 C 0.77943 0.16077 0.90364 0.0
C437 C 0.77101 0.17558 0.93533 0.0
C438 C 0.79865 0.21831 0.95107 0.0
C439 C 0.83448 0.24506 0.93673 0.0
C440 C 0.84273 0.22945 0.90574 0.0
C441 C 0.8624 0.29016 0.95356 0.0
C442 C 0.8485 0.31919 0.9621 0.0
C443 C 0.90293 0.3043 0.96143 0.0
C444 C 0.92914 0.34676 0.97762 0.0
C445 C 0.91542 0.37614 0.9857 0.0
C446 C 0.733 0.14805 0.95155 0.0
C447 C 0.69727 0.11837 0.93078 0.0
C448 C 0.73169 0.15283 0.98812 0.0
C449 C 0.6956 0.13066 1.00314 0.0
C450 C 0.66024 0.1017 0.98221 0.0
C451 C 0.66144 0.09499 0.94604 0.0
C452 C 0.87481 0.36189 0.97778 0.0
H453 H 0.79912 0.18755 0.7692 0.0
H454 H 0.78215 0.19554 0.82817 0.0
H455 H 0.86361 0.15617 0.86922 0.0
H456 H 0.87923 0.14552 0.80936 0.0
H457 H 0.75847 0.12854 0.89032 0.0
H458 H 0.86976 0.25066 0.89385 0.0
H459 H 0.79227 0.23148 0.97443 0.0
H460 H 0.81736 0.30906 0.95608 0.0
H461 H 0.91426 0.28239 0.95526 0.0
H462 H 0.96034 0.35685 0.98303 0.0
H463 H 0.6965 0.11402 0.9026 0.0
H464 H 0.75851 0.17396 1.00539 0.0
H465 H 0.86335 0.38376 0.98354 0.0
H466 H 0.63433 0.07284 0.92934 0.0
H467 H 0.69541 0.13582 0.03117 0.0
C468 C 0.62474 0.83076 0.24873 0.0
C469 C 0.66169 0.83282 0.25396 0.0
C470 C 0.60711 0.82601 0.21485 0.0
C471 C 0.62558 0.82185 0.18564 0.0
C472 C 0.6625 0.82388 0.1908 0.0
C473 C 0.68054 0.82967 0.22465 0.0
C474 C 0.60464 0.81134 0.15008 0.0
C475 C 0.59277 0.83949 0.13621 0.0
C476 C 0.57093 0.82783 0.10313 0.0
C477 C 0.5604 0.78744 0.08441 0.0
C478 C 0.57226 0.75925 0.09792 0.0
C479 C 0.59484 0.77164 0.13056 0.0
C480 C 0.55977 0.71608 0.07855 0.0
C481 C 0.51944 0.68717 0.06661 0.0
C482 C 0.58778 0.70285 0.07304 0.0
C483 C 0.57551 0.66092 0.05674 0.0
C484 C 0.53487 0.63115 0.04621 0.0
C485 C 0.55916 0.85765 0.08768 0.0
C486 C 0.51978 0.84115 0.07309 0.0
C487 C 0.58753 0.90228 0.08611 0.0
C488 C 0.57676 0.9299 0.07005 0.0
C489 C 0.53725 0.91352 0.0557 0.0
C490 C 0.50887 0.86886 0.05746 0.0
C491 C 0.50703 0.64495 0.05081 0.0
H492 H 0.60855 0.8308 0.27063 0.0
H493 H 0.57818 0.82352 0.21148 0.0
H494 H 0.6771 0.82039 0.16862 0.0
H495 H 0.70883 0.83064 0.22789 0.0
H496 H 0.60029 0.87019 0.15121 0.0
H497 H 0.60336 0.7495 0.14147 0.0
H498 H 0.54359 0.77825 0.05889 0.0
H499 H 0.49727 0.69665 0.07068 0.0
H500 H 0.6191 0.72478 0.08177 0.0
H501 H 0.59771 0.65127 0.05376 0.0
H502 H 0.49732 0.80684 0.07407 0.0
H503 H 0.61817 0.91565 0.09685 0.0
H504 H 0.47554 0.62277 0.04297 0.0
H505 H 0.47817 0.85526 0.04679 0.0
H506 H 0.59929 0.96425 0.06946 0.0
C507 C 0.14372 0.84279 0.23023 0.0
C508 C 0.16412 0.83711 0.25885 0.0
C509 C 0.15415 0.83981 0.19626 0.0
C510 C 0.1858 0.83234 0.19063 0.0
C511 C 0.20731 0.82872 0.21938 0.0
C512 C 0.19619 0.83042 0.25307 0.0
C513 C 0.19324 0.82243 0.15487 0.0
C514 C 0.23117 0.84714 0.14284 0.0
C515 C 0.23915 0.83401 0.1104 0.0
C516 C 0.20893 0.79604 0.09037 0.0
C517 C 0.17164 0.77039 0.10263 0.0
C518 C 0.16352 0.78432 0.1345 0.0
C519 C 0.14295 0.72693 0.0837 0.0
C520 C 0.10242 0.71353 0.07747 0.0
C521 C 0.15613 0.69794 0.07269 0.0
C522 C 0.12913 0.65587 0.05652 0.0
C523 C 0.0884 0.64201 0.05086 0.0
C524 C 0.27912 0.85823 0.09737 0.0
C525 C 0.30034 0.90453 0.09925 0.0
C526 C 0.29518 0.83462 0.08085 0.0
C527 C 0.33062 0.85658 0.0651 0.0
C528 C 0.35107 0.90264 0.06601 0.0
C529 C 0.33615 0.92659 0.08374 0.0
C530 C 0.0754 0.67154 0.06097 0.0
H531 H 0.11869 0.84762 0.23391 0.0
H532 H 0.13693 0.84221 0.1743 0.0
H533 H 0.2313 0.82208 0.21556 0.0
H534 H 0.21181 0.82478 0.27442 0.0
H535 H 0.25458 0.87564 0.15912 0.0
H536 H 0.13501 0.76395 0.14461 0.0
H537 H 0.21456 0.78581 0.06518 0.0
H538 H 0.09163 0.73541 0.08555 0.0
H539 H 0.18724 0.70734 0.07754 0.0
H540 H 0.1401 0.63396 0.04912 0.0
H541 H 0.28867 0.92357 0.1117 0.0
H542 H 0.28007 0.79895 0.07972 0.0
H543 H 0.04416 0.66186 0.05714 0.0
H544 H 0.35173 0.96229 0.08503 0.0
H545 H 0.34192 0.83745 0.05213 0.0
C546 C 0.19719 0.36087 0.25334 0.0
C547 C 0.1617 0.32127 0.25652 0.0
C548 C 0.2087 0.3744 0.22042 0.0
C549 C 0.18423 0.34923 0.1901 0.0
C550 C 0.14876 0.30955 0.19306 0.0
C551 C 0.13776 0.29546 0.22604 0.0
C552 C 0.19323 0.36733 0.15599 0.0
C553 C 0.22789 0.37462 0.1409 0.0
C554 C 0.23753 0.39484 0.10953 0.0
C555 C 0.21223 0.40816 0.09403 0.0
C556 C 0.1778 0.40151 0.10909 0.0
C557 C 0.16827 0.38054 0.13992 0.0
C558 C 0.15267 0.41787 0.09313 0.0
C559 C 0.17043 0.45851 0.07858 0.0
C560 C 0.11084 0.39308 0.09226 0.0
C561 C 0.08735 0.40859 0.0772 0.0
C562 C 0.10524 0.44884 0.06236 0.0
C563 C 0.27479 0.40446 0.09352 0.0
C564 C 0.31044 0.41785 0.1146 0.0
C565 C 0.27568 0.4034 0.05687 0.0
C566 C 0.31157 0.41779 0.04187 0.0
C567 C 0.34707 0.43216 0.06309 0.0
C568 C 0.34616 0.43114 0.09947 0.0
C569 C 0.14689 0.47366 0.06308 0.0
H570 H 0.21509 0.38263 0.27615 0.0
H571 H 0.23563 0.40573 0.21869 0.0
H572 H 0.12919 0.29003 0.16991 0.0
H573 H 0.10995 0.26508 0.22774 0.0
H574 H 0.24701 0.36432 0.15356 0.0
H575 H 0.14238 0.37622 0.15244 0.0
H576 H 0.21969 0.42461 0.07036 0.0
H577 H 0.20259 0.47898 0.07952 0.0
H578 H 0.09617 0.36145 0.10284 0.0
H579 H 0.05517 0.38888 0.0769 0.0
H580 H 0.31118 0.4197 0.14286 0.0
H581 H 0.24871 0.39206 0.03965 0.0
H582 H 0.16132 0.50506 0.05211 0.0
H583 H 0.37335 0.44218 0.11636 0.0
H584 H 0.31154 0.41769 1.01369 0.0
C585 C 0.47198 0.98381 0.12047 0.0
C586 C 0.50358 0.02606 0.1157 0.0
C587 C 0.46138 0.9718 0.1539 0.0
C588 C 0.48302 1.00122 0.18355 0.0
C589 C 0.5143 0.04379 0.17905 0.0
C590 C 0.52415 0.05635 0.14533 0.0
C591 C 0.47616 0.98492 0.21866 0.0
C592 C 0.50617 0.98097 0.23721 0.0
C593 C 0.49861 0.95909 0.26777 0.0
C594 C 0.4612 0.94348 0.28058 0.0
C595 C 0.43077 0.94727 0.26273 0.0
C596 C 0.43842 0.96788 0.23146 0.0
C597 C 0.39102 0.92828 0.27684 0.0
C598 C 0.37541 0.88862 0.29286 0.0
C599 C 0.36949 0.95061 0.27643 0.0
C600 C 0.33395 0.93434 0.29258 0.0
C601 C 0.31958 0.89582 0.30979 0.0
C602 C 0.5275 0.94777 0.28434 0.0
C603 C 0.54983 0.93574 0.26343 0.0
C604 C 0.52981 0.94416 0.32063 0.0
C605 C 0.55174 0.9264 0.33515 0.0
C606 C 0.57288 0.91333 0.31391 0.0
C607 C 0.57264 0.91921 0.27817 0.0
C608 C 0.34041 0.87292 0.30951 0.0
H609 H 0.45661 0.95908 0.09847 0.0
H610 H 0.43779 0.93849 0.15668 0.0
H611 H 0.53175 0.06684 0.20164 0.0
H612 H 0.54901 0.08889 0.14256 0.0
H613 H 0.53483 0.99321 0.2268 0.0
H614 H 0.41487 0.96963 0.21657 0.0
H615 H 0.45513 0.92681 0.30415 0.0
H616 H 0.39037 0.86965 0.29276 0.0
H617 H 0.38063 0.98125 0.26452 0.0
H618 H 0.3181 0.95237 0.29215 0.0
H619 H 0.54841 0.93714 0.23539 0.0
H620 H 0.51399 0.95417 0.33782 0.0
H621 H 0.32948 0.84261 0.3219 0.0
H622 H 0.58881 0.90932 0.26126 0.0
H623 H 0.55213 0.92284 0.36293 0.0
C624 C 0.97921 0.49235 0.14322 0.0
C625 C 0.00135 0.49792 0.11429 0.0
C626 C 0.99656 0.4963 0.17724 0.0
C627 C 0.0359 0.50464 0.18271 0.0
C628 C 0.05738 0.5084 0.15372 0.0
C629 C 0.04053 0.50575 0.11999 0.0
C630 C 0.05658 0.51487 0.21848 0.0
C631 C 0.07007 0.48768 0.23178 0.0
C632 C 0.0939 0.5007 0.26398 0.0
C633 C 0.10447 0.54121 0.28244 0.0
C634 C 0.0911 0.56846 0.26963 0.0
C635 C 0.06662 0.5548 0.23788 0.0
C636 C 0.10439 0.61207 0.28881 0.0
C637 C 0.07678 0.62535 0.29608 0.0
C638 C 0.14508 0.64087 0.29974 0.0
C639 C 0.15806 0.6827 0.31672 0.0
C640 C 0.13055 0.69634 0.32356 0.0
C641 C 0.10814 0.47264 0.27902 0.0
C642 C 0.08087 0.42917 0.28522 0.0
C643 C 0.14884 0.49053 0.29001 0.0
C644 C 0.16204 0.46546 0.30704 0.0
C645 C 0.13467 0.42228 0.31407 0.0
C646 C 0.09395 0.40435 0.30283 0.0
C647 C 0.08967 0.66693 0.31357 0.0
H648 H 0.94916 0.48685 0.13974 0.0
H649 H 0.97965 0.49386 0.19933 0.0
H650 H 0.08801 0.51571 0.15735 0.0
H651 H 0.05886 0.51162 0.09852 0.0
H652 H 0.06274 0.45703 0.21682 0.0
H653 H 0.05712 0.57632 0.22732 0.0
H654 H 0.12282 0.55136 0.30724 0.0
H655 H 0.04523 0.60358 0.28817 0.0
H656 H 0.16701 0.63146 0.29429 0.0
H657 H 0.18972 0.70461 0.32397 0.0
H658 H 0.04931 0.41482 0.2773 0.0
H659 H 0.17045 0.52406 0.28555 0.0
H660 H 0.06769 0.67652 0.31817 0.0
H661 H 0.07213 0.37091 0.30733 0.0
H662 H 0.1936 0.48012 0.31508 0.0
C663 C 0.479 0.51216 0.12379 0.0
C664 C 0.50651 0.49818 0.11775 0.0
C665 C 0.4694 0.51704 0.1576 0.0
C666 C 0.48781 0.50915 0.1863 0.0
C667 C 0.51525 0.49504 0.1806 0.0
C668 C 0.52425 0.48915 0.14648 0.0
C669 C 0.48166 0.52115 0.222 0.0
C670 C 0.44609 0.4941 0.23698 0.0
C671 C 0.43767 0.50892 0.26866 0.0
C672 C 0.46532 0.55164 0.2844 0.0
C673 C 0.50115 0.5784 0.27007 0.0
C674 C 0.5094 0.56278 0.23907 0.0
C675 C 0.52907 0.62349 0.28689 0.0
C676 C 0.51517 0.65252 0.29543 0.0
C677 C 0.56959 0.63764 0.29476 0.0
C678 C 0.59581 0.6801 0.31095 0.0
C679 C 0.58208 0.70947 0.31903 0.0
C680 C 0.39967 0.48138 0.28488 0.0
C681 C 0.36394 0.4517 0.26411 0.0
C682 C 0.39836 0.48617 0.32146 0.0
C683 C 0.36227 0.46399 0.33647 0.0
C684 C 0.32691 0.43504 0.31554 0.0
C685 C 0.3281 0.42832 0.27938 0.0
C686 C 0.54147 0.69522 0.31111 0.0
H687 H 0.46579 0.52089 0.10254 0.0
H688 H 0.44882 0.52887 0.1615 0.0
H689 H 0.53028 0.4895 0.20256 0.0
H690 H 0.5459 0.47885 0.14269 0.0
H691 H 0.42514 0.46187 0.22365 0.0
H692 H 0.53643 0.58399 0.22718 0.0
H693 H 0.45894 0.56482 0.30776 0.0
H694 H 0.48403 0.6424 0.28941 0.0
H695 H 0.58092 0.61572 0.28859 0.0
H696 H 0.62701 0.69019 0.31637 0.0
H697 H 0.36317 0.44736 0.23593 0.0
H698 H 0.42518 0.50729 0.33873 0.0
H699 H 0.53002 0.7171 0.31687 0.0
H700 H 0.30099 0.40618 0.26268 0.0
H701 H 0.36208 0.46916 0.3645 0.0
Tb702 Tb 0.54954 0.04043 0.02056 0.0
C703 C 0.52519 0.94348 0.04104 0.0
Tb704 Tb 0.45717 0.96677 0.02143 0.0
O705 O 0.54958 0.07078 0.0729 0.0
O706 O 0.50865 0.00576 0.0563 0.0
O707 O 0.55395 0.98327 0.03423 0.0
C708 C 0.38809 0.9255 0.04887 0.0
O709 O 0.48648 0.93103 0.03906 0.0
C710 C 0.48121 0.97541 0.95795 0.0
C711 C 0.48187 0.06174 0.99789 0.0
O712 O 0.40247 0.90622 0.02935 0.0
O713 O 0.4123 0.96795 0.0524 0.0
O714 O 0.44489 0.94669 0.96411 0.0
O715 O 0.49998 0.99444 0.98708 0.0
O716 O 0.4549 0.02613 1.01171 0.0
O717 O 0.51969 0.07206 0.99613 0.0
C718 C 0.62193 0.07911 0.99762 0.0
O719 O 0.61154 0.09538 0.02361 0.0
O720 O 0.59195 0.04113 0.98516 0.0
C721 C 0.51737 0.03565 0.08032 0.0
Tb722 Tb 0.96759 0.52102 0.01838 0.0
C723 C 0.05917 0.596 0.03717 0.0
Tb724 Tb 0.03544 0.49529 0.02049 0.0
O725 O 0.95164 0.49746 0.0705 0.0
O726 O 0.00805 0.51808 0.05522 0.0
O727 O 0.02145 0.58572 0.02989 0.0
C728 C 0.08044 0.46512 0.04674 0.0
O729 O 0.07083 0.56617 0.03698 0.0
C730 C 0.01271 0.5014 0.95613 0.0
C731 C 0.94389 0.42218 1.00011 0.0
O732 O 0.09294 0.49849 0.02809 0.0
O733 O 0.04274 0.44884 0.05045 0.0
O734 O 0.04097 0.49259 0.96337 0.0
O735 O 0.00126 0.5071 0.98482 0.0
O736 O 0.97975 0.43152 1.01394 0.0
O737 O 0.93355 0.45255 0.99614 0.0
C738 C 0.92826 0.5598 0.9951 0.0
O739 O 0.92095 0.53851 0.02284 0.0
O740 O 0.95727 0.55896 0.98078 0.0
C741 C 0.98584 0.50009 0.07878 0.0
Tb742 Tb 0.45589 0.48366 0.02209 0.0
C743 C 0.47792 0.40894 1.0045 0.0
Tb744 Tb 0.54483 0.51012 0.01949 0.0
O745 O 0.45295 0.50375 0.96932 0.0
O746 O 0.49313 0.48383 0.98447 0.0
O747 O 0.45104 0.41872 1.01522 0.0
C748 C 0.61561 0.54539 0.99356 0.0
O749 O 0.51531 0.43989 1.00071 0.0
C750 C 0.5183 0.49644 0.08188 0.0
C751 C 0.52133 0.58478 0.03398 0.0
O752 O 0.60264 0.51438 1.01456 0.0
O753 O 0.58916 0.55698 0.9879 0.0
O754 O 0.54954 0.49437 0.07384 0.0
O755 O 0.50806 0.51103 0.05689 0.0
O756 O 0.54873 0.57474 0.02513 0.0
O757 O 0.4837 0.55426 0.03742 0.0
C758 C 0.3852 0.44919 0.04762 0.0
O759 O 0.39295 0.46576 0.01773 0.0
O760 O 0.41701 0.45195 0.06281 0.0
C761 C 0.48369 0.5009 0.96083 0.0
Tb762 Tb 0.21621 0.37376 0.35389 0.0
C763 C 0.19186 0.27681 0.37437 0.0
Tb764 Tb 0.12383 0.3001 0.35476 0.0
O765 O 0.21624 0.40412 0.40623 0.0
O766 O 0.17532 0.33909 0.38963 0.0
O767 O 0.22061 0.31661 0.36757 0.0
C768 C 0.05476 0.25883 0.38221 0.0
O769 O 0.15315 0.26436 0.3724 0.0
C770 C 0.14788 0.30875 0.29129 0.0
C771 C 0.14854 0.39508 0.33123 0.0
O772 O 0.06914 0.23955 0.36268 0.0
O773 O 0.07897 0.30129 0.38574 0.0
O774 O 0.11156 0.28002 0.29744 0.0
O775 O 0.16664 0.32777 0.32042 0.0
O776 O 0.12157 0.35947 0.34504 0.0
O777 O 0.18636 0.4054 0.32946 0.0
C778 C 0.2886 0.41245 0.33096 0.0
O779 O 0.27821 0.42872 0.35695 0.0
O780 O 0.25862 0.37446 0.3185 0.0
C781 C 0.18404 0.36898 0.41366 0.0
Tb782 Tb 0.63425 0.85435 0.35172 0.0
C783 C 0.72584 0.92934 0.37051 0.0
Tb784 Tb 0.70211 0.82862 0.35382 0.0
O785 O 0.6183 0.8308 0.40384 0.0
O786 O 0.67472 0.85142 0.38855 0.0
O787 O 0.68811 0.91905 0.36322 0.0
C788 C 0.7471 0.79845 0.38007 0.0
O789 O 0.73749 0.8995 0.37031 0.0
C790 C 0.67938 0.83474 0.28946 0.0
C791 C 0.61056 0.75551 0.33345 0.0
O792 O 0.75961 0.83182 0.36143 0.0
O793 O 0.70941 0.78217 0.38379 0.0
O794 O 0.70764 0.82592 0.29671 0.0
O795 O 0.66793 0.84044 0.31816 0.0
O796 O 0.64642 0.76486 0.34727 0.0
O797 O 0.60022 0.78589 0.32947 0.0
C798 C 0.59493 0.89313 0.32843 0.0
O799 O 0.58762 0.87185 0.35617 0.0
O800 O 0.62394 0.8923 0.31411 0.0
C801 C 0.65251 0.83343 0.41212 0.0
Tb802 Tb 0.12255 0.81699 0.35542 0.0
C803 C 0.14459 0.74228 0.33783 0.0
Tb804 Tb 0.2115 0.84345 0.35282 0.0
O805 O 0.11962 0.83709 0.30266 0.0
O806 O 0.1598 0.81717 0.31781 0.0
O807 O 0.1177 0.75206 0.34855 0.0
C808 C 0.28228 0.87872 0.32689 0.0
O809 O 0.18198 0.77323 0.33404 0.0
C810 C 0.18497 0.82977 0.41522 0.0
C811 C 0.18799 0.91811 0.36731 0.0
O812 O 0.26931 0.84772 0.34789 0.0
O813 O 0.25582 0.89031 0.32123 0.0
O814 O 0.21621 0.8277 0.40718 0.0
O815 O 0.17473 0.84437 0.39023 0.0
O816 O 0.2154 0.90807 0.35846 0.0
O817 O 0.15037 0.8876 0.37075 0.0
C818 C 0.05186 0.78252 0.38095 0.0
O819 O 0.05961 0.79909 0.35106 0.0
O820 O 0.08368 0.78528 0.39614 0.0
C821 C 0.15035 0.83424 0.29416 0.0
Tb822 Tb 0.88288 0.70709 0.68723 0.0
C823 C 0.85852 0.61015 0.7077 0.0
Tb824 Tb 0.7905 0.63344 0.68809 0.0
O825 O 0.88291 0.73745 0.73956 0.0
O826 O 0.84199 0.67243 0.72297 0.0
O827 O 0.88728 0.64994 0.7009 0.0
C828 C 0.72143 0.59216 0.71554 0.0
O829 O 0.81982 0.5977 0.70573 0.0
C830 C 0.81455 0.64208 0.62462 0.0
C831 C 0.81521 0.72841 0.66456 0.0
O832 O 0.73581 0.57289 0.69602 0.0
O833 O 0.74564 0.63462 0.71907 0.0
O834 O 0.77822 0.61335 0.63078 0.0
O835 O 0.83331 0.6611 0.65375 0.0
O836 O 0.78823 0.6928 0.67838 0.0
O837 O 0.85303 0.73873 0.66279 0.0
C838 C 0.95526 0.74578 0.66429 0.0
O839 O 0.94488 0.76205 0.69028 0.0
O840 O 0.92528 0.70779 0.65183 0.0
C841 C 0.8507 0.70231 0.74699 0.0
Tb842 Tb 0.30092 0.18768 0.68505 0.0
C843 C 0.39251 0.26267 0.70384 0.0
Tb844 Tb 0.36877 0.16196 0.68715 0.0
O845 O 0.28497 0.16413 0.73717 0.0
O846 O 0.34139 0.18475 0.72189 0.0
O847 O 0.35478 0.25238 0.69655 0.0
C848 C 0.41377 0.13178 0.71341 0.0
O849 O 0.40416 0.23284 0.70365 0.0
C850 C 0.34605 0.16807 0.6228 0.0
C851 C 0.27723 0.08884 0.66678 0.0
O852 O 0.42627 0.16516 0.69476 0.0
O853 O 0.37608 0.11551 0.71712 0.0
O854 O 0.3743 0.15925 0.63004 0.0
O855 O 0.33459 0.17377 0.65149 0.0
O856 O 0.31309 0.09819 0.6806 0.0
O857 O 0.26689 0.11922 0.6628 0.0
C858 C 0.2616 0.22647 0.66177 0.0
O859 O 0.25428 0.20518 0.6895 0.0
O860 O 0.2906 0.22563 0.64744 0.0
C861 C 0.31917 0.16676 0.74545 0.0
Tb862 Tb 0.78922 0.15032 0.68876 0.0
C863 C 0.81126 0.07561 0.67117 0.0
Tb864 Tb 0.87816 0.17678 0.68615 0.0
O865 O 0.78629 0.17042 0.63599 0.0
O866 O 0.82646 0.1505 0.65114 0.0
O867 O 0.78437 0.08539 0.68188 0.0
C868 C 0.94894 0.21206 0.66022 0.0
O869 O 0.84865 0.10656 0.66737 0.0
C870 C 0.85163 0.16311 0.74855 0.0
C871 C 0.85466 0.25144 0.70065 0.0
O872 O 0.93597 0.18105 0.68123 0.0
O873 O 0.92249 0.22364 0.65456 0.0
O874 O 0.88288 0.16104 0.74051 0.0
O875 O 0.84139 0.1777 0.72356 0.0
O876 O 0.88207 0.2414 0.69179 0.0
O877 O 0.81703 0.22093 0.70408 0.0
C878 C 0.71853 0.11586 0.71428 0.0
O879 O 0.72628 0.13242 0.68439 0.0
O880 O 0.75034 0.11862 0.72948 0.0
C881 C 0.81702 0.16757 0.62749 0.0
loop_
_geom_bond_atom_site_label_1
_geom_bond_atom_site_label_2
_geom_bond_distance
_geom_bond_site_symmetry_2
_ccdc_geom_bond_type
C0 C1 1.386 . S
C0 C2 1.397 . S
C0 H24 0.931 . S
C1 C0 1.386 . S
C1 C5 1.397 . S
C2 C0 1.397 . S
C2 C3 1.384 . S
C2 H25 0.930 . S
C3 C2 1.384 . S
C3 C4 1.377 . S
C3 C6 1.481 . S
C4 C3 1.377 . S
C4 C5 1.389 . S
C4 H26 0.929 . S
C5 C1 1.397 . S
C5 C4 1.389 . S
C5 H27 0.931 . S
C6 C3 1.481 . S
C6 C7 1.387 . S
C6 C11 1.390 . S
C7 C6 1.387 . S
C7 C8 1.401 . S
C7 H28 0.930 . S
C8 C7 1.401 . S
C8 C9 1.376 . S
C8 C17 1.511 . S
C9 C8 1.376 . S
C9 C10 1.392 . S
C9 H30 0.931 . S
C10 C9 1.392 . S
C10 C11 1.361 . S
C10 C12 1.500 . S
C11 C6 1.390 . S
C11 C10 1.361 . S
C11 H29 0.931 . S
C12 C10 1.500 . S
C12 C13 1.371 . S
C12 C14 1.365 . S
C13 C12 1.371 . S
C13 C23 1.386 1_545 S
C13 H31 0.931 . S
C14 C12 1.365 . S
C14 C15 1.407 . S
C14 H32 0.929 . S
C15 C14 1.407 . S
C15 C16 1.380 1_545 S
C15 H33 0.932 1_545 S
C16 C15 1.380 1_565 S
C16 C23 1.357 . S
C17 C8 1.511 . S
C17 C18 1.341 . S
C17 C19 1.371 . S
C18 C17 1.341 . S
C18 C22 1.394 . S
C18 H34 0.930 . S
C19 C17 1.371 . S
C19 C20 1.392 . S
C19 H35 0.931 . S
C20 C19 1.392 . S
C20 C21 1.331 . S
C20 H38 0.932 . S
C21 C20 1.331 . S
C21 C22 1.336 . S
C22 C18 1.394 . S
C22 C21 1.336 . S
C22 H37 0.929 . S
C23 C13 1.386 1_565 S
C23 C16 1.357 . S
C23 H36 0.928 . S
H24 C0 0.931 . S
H25 C2 0.930 . S
H26 C4 0.929 . S
H27 C5 0.931 . S
H28 C7 0.930 . S
H29 C11 0.931 . S
H30 C9 0.931 . S
H31 C13 0.931 . S
H32 C14 0.929 . S
H33 C15 0.932 1_565 S
H34 C18 0.930 . S
H35 C19 0.931 . S
H36 C23 0.928 . S
H37 C22 0.929 . S
H38 C20 0.932 . S
C39 C40 1.386 . S
C39 C41 1.397 . S
C39 H63 0.931 . S
C40 C39 1.386 . S
C40 C44 1.397 . S
C41 C39 1.397 . S
C41 C42 1.384 . S
C41 H64 0.930 . S
C42 C41 1.384 . S
C42 C43 1.377 . S
C42 C45 1.481 . S
C43 C42 1.377 . S
C43 C44 1.389 . S
C43 H65 0.929 . S
C44 C40 1.397 . S
C44 C43 1.389 . S
C44 H66 0.931 . S
C45 C42 1.481 . S
C45 C46 1.387 . S
C45 C50 1.390 . S
C46 C45 1.387 . S
C46 C47 1.401 . S
C46 H67 0.930 . S
C47 C46 1.401 . S
C47 C48 1.376 . S
C47 C56 1.511 . S
C48 C47 1.376 . S
C48 C49 1.392 . S
C48 H69 0.931 . S
C49 C48 1.392 . S
C49 C50 1.361 . S
C49 C51 1.500 . S
C50 C45 1.390 . S
C50 C49 1.361 . S
C50 H68 0.931 . S
C51 C49 1.500 . S
C51 C52 1.371 . S
C51 C53 1.365 . S
C52 C51 1.371 . S
C52 C62 1.386 . S
C52 H70 0.931 . S
C53 C51 1.365 . S
C53 C54 1.409 1_545 S
C53 H71 0.929 . S
C54 C53 1.409 1_565 S
C54 C55 1.380 . S
C54 H72 0.930 . S
C55 C54 1.380 . S
C55 C62 1.357 1_565 S
C56 C47 1.511 . S
C56 C57 1.341 . S
C56 C58 1.371 . S
C57 C56 1.341 . S
C57 C61 1.396 . S
C57 H73 0.930 . S
C58 C56 1.371 . S
C58 C59 1.392 . S
C58 H74 0.931 . S
C59 C58 1.392 . S
C59 C60 1.331 1_655 S
C59 H77 0.932 . S
C60 C59 1.331 1_455 S
C60 C61 1.334 1_455 S
C61 C57 1.396 . S
C61 C60 1.334 1_655 S
C61 H76 0.929 1_655 S
C62 C52 1.386 . S
C62 C55 1.357 1_545 S
C62 H75 0.928 . S
H63 C39 0.931 . S
H64 C41 0.930 . S
H65 C43 0.929 . S
H66 C44 0.931 . S
H67 C46 0.930 . S
H68 C50 0.931 . S
H69 C48 0.931 . S
H70 C52 0.931 . S
H71 C53 0.929 . S
H72 C54 0.930 . S
H73 C57 0.930 . S
H74 C58 0.931 . S
H75 C62 0.928 . S
H76 C61 0.929 1_455 S
H77 C59 0.932 . S
C78 C79 1.386 . S
C78 C80 1.397 . S
C78 H102 0.931 . S
C79 C78 1.386 . S
C79 C83 1.397 . S
C80 C78 1.397 . S
C80 C81 1.384 . S
C80 H103 0.930 . S
C81 C80 1.384 . S
C81 C82 1.377 . S
C81 C84 1.481 . S
C82 C81 1.377 . S
C82 C83 1.389 . S
C82 H104 0.929 . S
C83 C79 1.397 . S
C83 C82 1.389 . S
C83 H105 0.931 . S
C84 C81 1.481 . S
C84 C85 1.387 . S
C84 C89 1.390 . S
C85 C84 1.387 . S
C85 C86 1.401 . S
C85 H106 0.930 . S
C86 C85 1.401 . S
C86 C87 1.376 . S
C86 C95 1.511 . S
C87 C86 1.376 . S
C87 C88 1.392 . S
C87 H108 0.931 . S
C88 C87 1.392 . S
C88 C89 1.361 . S
C88 C90 1.500 . S
C89 C84 1.390 . S
C89 C88 1.361 . S
C89 H107 0.931 . S
C90 C88 1.500 . S
C90 C91 1.371 . S
C90 C92 1.365 . S
C91 C90 1.371 . S
C91 C101 1.386 . S
C91 H109 0.931 . S
C92 C90 1.365 . S
C92 C93 1.409 . S
C92 H110 0.929 . S
C93 C92 1.409 . S
C93 C94 1.380 . S
C93 H111 0.930 . S
C94 C93 1.380 . S
C94 C101 1.357 . S
C95 C86 1.511 . S
C95 C96 1.341 . S
C95 C97 1.371 . S
C96 C95 1.341 . S
C96 C100 1.394 1_655 S
C96 H112 0.930 . S
C97 C95 1.371 . S
C97 C98 1.392 . S
C97 H113 0.931 . S
C98 C97 1.392 . S
C98 C99 1.331 1_655 S
C98 H116 0.932 . S
C99 C98 1.331 1_455 S
C99 C100 1.336 . S
C100 C96 1.394 1_455 S
C100 C99 1.336 . S
C100 H115 0.929 . S
C101 C91 1.386 . S
C101 C94 1.357 . S
C101 H114 0.928 . S
H102 C78 0.931 . S
H103 C80 0.930 . S
H104 C82 0.929 . S
H105 C83 0.931 . S
H106 C85 0.930 . S
H107 C89 0.931 . S
H108 C87 0.931 . S
H109 C91 0.931 . S
H110 C92 0.929 . S
H111 C93 0.930 . S
H112 C96 0.930 . S
H113 C97 0.931 . S
H114 C101 0.928 . S
H115 C100 0.929 . S
H116 C98 0.932 . S
C117 C118 1.386 . S
C117 C119 1.397 . S
C117 H141 0.931 . S
C118 C117 1.386 . S
C118 C122 1.397 . S
C119 C117 1.397 . S
C119 C120 1.384 . S
C119 H142 0.930 . S
C120 C119 1.384 . S
C120 C121 1.377 . S
C120 C123 1.481 . S
C121 C120 1.377 . S
C121 C122 1.389 . S
C121 H143 0.929 . S
C122 C118 1.397 . S
C122 C121 1.389 . S
C122 H144 0.931 . S
C123 C120 1.481 . S
C123 C124 1.387 . S
C123 C128 1.390 . S
C124 C123 1.387 . S
C124 C125 1.401 . S
C124 H145 0.930 . S
C125 C124 1.401 . S
C125 C126 1.376 . S
C125 C134 1.511 . S
C126 C125 1.376 . S
C126 C127 1.392 . S
C126 H147 0.931 . S
C127 C126 1.392 . S
C127 C128 1.361 . S
C127 C129 1.500 . S
C128 C123 1.390 . S
C128 C127 1.361 . S
C128 H146 0.931 . S
C129 C127 1.500 . S
C129 C130 1.371 . S
C129 C131 1.365 . S
C130 C129 1.371 . S
C130 C140 1.386 . S
C130 H148 0.931 . S
C131 C129 1.365 . S
C131 C132 1.409 . S
C131 H149 0.929 . S
C132 C131 1.409 . S
C132 C133 1.380 1_455 S
C132 H150 0.930 1_455 S
C133 C132 1.380 1_655 S
C133 C140 1.357 1_655 S
C134 C125 1.511 . S
C134 C135 1.341 . S
C134 C136 1.371 . S
C135 C134 1.341 . S
C135 C139 1.394 . S
C135 H151 0.930 . S
C136 C134 1.371 . S
C136 C137 1.392 . S
C136 H152 0.931 . S
C137 C136 1.392 . S
C137 C138 1.331 . S
C137 H155 0.932 . S
C138 C137 1.331 . S
C138 C139 1.336 . S
C139 C135 1.394 . S
C139 C138 1.336 . S
C139 H154 0.929 . S
C140 C130 1.386 . S
C140 C133 1.357 1_455 S
C140 H153 0.928 1_455 S
H141 C117 0.931 . S
H142 C119 0.930 . S
H143 C121 0.929 . S
H144 C122 0.931 . S
H145 C124 0.930 . S
H146 C128 0.931 . S
H147 C126 0.931 . S
H148 C130 0.931 . S
H149 C131 0.929 . S
H150 C132 0.930 1_655 S
H151 C135 0.930 . S
H152 C136 0.931 . S
H153 C140 0.928 1_655 S
H154 C139 0.929 . S
H155 C137 0.932 . S
C156 C157 1.386 . S
C156 C158 1.397 . S
C156 H180 0.931 . S
C157 C156 1.386 . S
C157 C161 1.397 . S
C158 C156 1.397 . S
C158 C159 1.384 . S
C158 H181 0.930 . S
C159 C158 1.384 . S
C159 C160 1.377 . S
C159 C162 1.481 . S
C160 C159 1.377 . S
C160 C161 1.389 . S
C160 H182 0.929 . S
C161 C157 1.397 . S
C161 C160 1.389 . S
C161 H183 0.931 . S
C162 C159 1.481 . S
C162 C163 1.387 . S
C162 C167 1.390 . S
C163 C162 1.387 . S
C163 C164 1.401 . S
C163 H184 0.930 . S
C164 C163 1.401 . S
C164 C165 1.376 . S
C164 C173 1.511 . S
C165 C164 1.376 . S
C165 C166 1.392 . S
C165 H186 0.931 . S
C166 C165 1.392 . S
C166 C167 1.361 . S
C166 C168 1.500 . S
C167 C162 1.390 . S
C167 C166 1.361 . S
C167 H185 0.931 . S
C168 C166 1.500 . S
C168 C169 1.371 . S
C168 C170 1.365 . S
C169 C168 1.371 . S
C169 C179 1.386 . S
C169 H187 0.931 . S
C170 C168 1.365 . S
C170 C171 1.409 1_565 S
C170 H188 0.929 . S
C171 C170 1.409 1_545 S
C171 C172 1.380 . S
C171 H189 0.930 . S
C172 C171 1.380 . S
C172 C179 1.357 1_545 S
C173 C164 1.511 . S
C173 C174 1.341 . S
C173 C175 1.371 . S
C174 C173 1.341 . S
C174 C178 1.394 . S
C174 H190 0.930 . S
C175 C173 1.371 . S
C175 C176 1.392 . S
C175 H191 0.931 . S
C176 C175 1.392 . S
C176 C177 1.331 . S
C176 H194 0.932 . S
C177 C176 1.331 . S
C177 C178 1.336 . S
C178 C174 1.394 . S
C178 C177 1.336 . S
C178 H193 0.929 . S
C179 C169 1.386 . S
C179 C172 1.357 1_565 S
C179 H192 0.928 . S
H180 C156 0.931 . S
H181 C158 0.930 . S
H182 C160 0.929 . S
H183 C161 0.931 . S
H184 C163 0.930 . S
H185 C167 0.931 . S
H186 C165 0.931 . S
H187 C169 0.931 . S
H188 C170 0.929 . S
H189 C171 0.930 . S
H190 C174 0.930 . S
H191 C175 0.931 . S
H192 C179 0.928 . S
H193 C178 0.929 . S
H194 C176 0.932 . S
C195 C196 1.386 . S
C195 C197 1.397 . S
C195 H219 0.931 . S
C196 C195 1.386 . S
C196 C200 1.397 . S
C197 C195 1.397 . S
C197 C198 1.384 . S
C197 H220 0.930 . S
C198 C197 1.384 . S
C198 C199 1.377 . S
C198 C201 1.481 . S
C199 C198 1.377 . S
C199 C200 1.389 . S
C199 H221 0.929 . S
C200 C196 1.397 . S
C200 C199 1.389 . S
C200 H222 0.931 . S
C201 C198 1.481 . S
C201 C202 1.387 . S
C201 C206 1.390 . S
C202 C201 1.387 . S
C202 C203 1.401 . S
C202 H223 0.930 . S
C203 C202 1.401 . S
C203 C204 1.376 . S
C203 C212 1.511 . S
C204 C203 1.376 . S
C204 C205 1.392 . S
C204 H225 0.931 . S
C205 C204 1.392 . S
C205 C206 1.361 . S
C205 C207 1.500 . S
C206 C201 1.390 . S
C206 C205 1.361 . S
C206 H224 0.931 . S
C207 C205 1.500 . S
C207 C208 1.371 . S
C207 C209 1.365 . S
C208 C207 1.371 . S
C208 C218 1.386 1_565 S
C208 H226 0.931 . S
C209 C207 1.365 . S
C209 C210 1.409 1_565 S
C209 H227 0.929 . S
C210 C209 1.409 1_545 S
C210 C211 1.380 . S
C210 H228 0.930 . S
C211 C210 1.380 . S
C211 C218 1.357 . S
C212 C203 1.511 . S
C212 C213 1.341 . S
C212 C214 1.371 . S
C213 C212 1.341 . S
C213 C217 1.394 1_455 S
C213 H229 0.930 . S
C214 C212 1.371 . S
C214 C215 1.392 . S
C214 H230 0.931 . S
C215 C214 1.392 . S
C215 C216 1.331 1_455 S
C215 H233 0.932 . S
C216 C215 1.331 1_655 S
C216 C217 1.336 . S
C217 C213 1.394 1_655 S
C217 C216 1.336 . S
C217 H232 0.929 . S
C218 C208 1.386 1_545 S
C218 C211 1.357 . S
C218 H231 0.928 . S
H219 C195 0.931 . S
H220 C197 0.930 . S
H221 C199 0.929 . S
H222 C200 0.931 . S
H223 C202 0.930 . S
H224 C206 0.931 . S
H225 C204 0.931 . S
H226 C208 0.931 . S
H227 C209 0.929 . S
H228 C210 0.930 . S
H229 C213 0.930 . S
H230 C214 0.931 . S
H231 C218 0.928 . S
H232 C217 0.929 . S
H233 C215 0.932 . S
C234 C235 1.386 . S
C234 C236 1.397 . S
C234 H258 0.931 . S
C235 C234 1.386 . S
C235 C239 1.397 1_655 S
C236 C234 1.397 . S
C236 C237 1.384 . S
C236 H259 0.930 . S
C237 C236 1.384 . S
C237 C238 1.377 . S
C237 C240 1.481 . S
C238 C237 1.377 . S
C238 C239 1.389 1_655 S
C238 H260 0.935 . S
C239 C235 1.397 1_455 S
C239 C238 1.389 1_455 S
C239 H261 0.931 . S
C240 C237 1.481 . S
C240 C241 1.387 . S
C240 C245 1.390 . S
C241 C240 1.387 . S
C241 C242 1.401 . S
C241 H262 0.930 . S
C242 C241 1.401 . S
C242 C243 1.376 . S
C242 C251 1.511 . S
C243 C242 1.376 . S
C243 C244 1.392 . S
C243 H264 0.931 . S
C244 C243 1.392 . S
C244 C245 1.361 . S
C244 C246 1.500 . S
C245 C240 1.390 . S
C245 C244 1.361 . S
C245 H263 0.931 . S
C246 C244 1.500 . S
C246 C247 1.371 . S
C246 C248 1.365 . S
C247 C246 1.371 . S
C247 C257 1.386 . S
C247 H265 0.931 . S
C248 C246 1.365 . S
C248 C249 1.409 . S
C248 H266 0.929 . S
C249 C248 1.409 . S
C249 C250 1.380 . S
C249 H267 0.930 . S
C250 C249 1.380 . S
C250 C257 1.357 . S
C251 C242 1.511 . S
C251 C252 1.341 . S
C251 C253 1.371 . S
C252 C251 1.341 . S
C252 C256 1.394 . S
C252 H268 0.930 . S
C253 C251 1.371 . S
C253 C254 1.392 . S
C253 H269 0.931 . S
C254 C253 1.392 . S
C254 C255 1.331 . S
C254 H272 0.932 . S
C255 C254 1.331 . S
C255 C256 1.336 . S
C256 C252 1.394 . S
C256 C255 1.336 . S
C256 H271 0.929 . S
C257 C247 1.386 . S
C257 C250 1.357 . S
C257 H270 0.928 . S
H258 C234 0.931 . S
H259 C236 0.930 . S
H260 C238 0.935 . S
H261 C239 0.931 . S
H262 C241 0.930 . S
H263 C245 0.931 . S
H264 C243 0.931 . S
H265 C247 0.931 . S
H266 C248 0.929 . S
H267 C249 0.930 . S
H268 C252 0.930 . S
H269 C253 0.931 . S
H270 C257 0.928 . S
H271 C256 0.929 . S
H272 C254 0.932 . S
C273 C274 1.386 . S
C273 C275 1.397 . S
C273 H297 0.931 . S
C274 C273 1.386 . S
C274 C278 1.397 . S
C275 C273 1.397 . S
C275 C276 1.384 . S
C275 H298 0.930 . S
C276 C275 1.384 . S
C276 C277 1.377 . S
C276 C279 1.481 . S
C277 C276 1.377 . S
C277 C278 1.389 . S
C277 H299 0.929 . S
C278 C274 1.397 . S
C278 C277 1.389 . S
C278 H300 0.931 . S
C279 C276 1.481 . S
C279 C280 1.387 . S
C279 C284 1.390 . S
C280 C279 1.387 . S
C280 C281 1.401 . S
C280 H301 0.930 . S
C281 C280 1.401 . S
C281 C282 1.376 . S
C281 C290 1.511 . S
C282 C281 1.376 . S
C282 C283 1.392 . S
C282 H303 0.931 . S
C283 C282 1.392 . S
C283 C284 1.361 . S
C283 C285 1.500 . S
C284 C279 1.390 . S
C284 C283 1.361 . S
C284 H302 0.931 . S
C285 C283 1.500 . S
C285 C286 1.371 . S
C285 C287 1.365 . S
C286 C285 1.371 . S
C286 C296 1.386 . S
C286 H304 0.931 . S
C287 C285 1.365 . S
C287 C288 1.409 . S
C287 H305 0.929 . S
C288 C287 1.409 . S
C288 C289 1.380 . S
C288 H306 0.930 . S
C289 C288 1.380 . S
C289 C296 1.357 . S
C290 C281 1.511 . S
C290 C291 1.341 . S
C290 C292 1.371 . S
C291 C290 1.341 . S
C291 C295 1.394 . S
C291 H307 0.930 . S
C292 C290 1.371 . S
C292 C293 1.392 . S
C292 H308 0.931 . S
C293 C292 1.392 . S
C293 C294 1.331 . S
C293 H311 0.932 . S
C294 C293 1.331 . S
C294 C295 1.336 . S
C295 C291 1.394 . S
C295 C294 1.336 . S
C295 H310 0.929 . S
C296 C286 1.386 . S
C296 C289 1.357 . S
C296 H309 0.928 . S
H297 C273 0.931 . S
H298 C275 0.930 . S
H299 C277 0.929 . S
H300 C278 0.931 . S
H301 C280 0.930 . S
H302 C284 0.931 . S
H303 C282 0.931 . S
H304 C286 0.931 . S
H305 C287 0.929 . S
H306 C288 0.930 . S
H307 C291 0.930 . S
H308 C292 0.931 . S
H309 C296 0.928 . S
H310 C295 0.929 . S
H311 C293 0.932 . S
C312 C313 1.386 . S
C312 C314 1.397 . S
C312 H336 0.931 . S
C313 C312 1.386 . S
C313 C317 1.397 1_545 S
C314 C312 1.397 . S
C314 C315 1.384 . S
C314 H337 0.930 . S
C315 C314 1.384 . S
C315 C316 1.377 . S
C315 C318 1.481 . S
C316 C315 1.377 . S
C316 C317 1.389 1_545 S
C316 H338 0.929 1_545 S
C317 C313 1.397 1_565 S
C317 C316 1.389 1_565 S
C317 H339 0.931 . S
C318 C315 1.481 . S
C318 C319 1.387 . S
C318 C323 1.390 . S
C319 C318 1.387 . S
C319 C320 1.401 . S
C319 H340 0.930 . S
C320 C319 1.401 . S
C320 C321 1.376 . S
C320 C329 1.511 . S
C321 C320 1.376 . S
C321 C322 1.392 . S
C321 H342 0.931 . S
C322 C321 1.392 . S
C322 C323 1.361 . S
C322 C324 1.500 . S
C323 C318 1.390 . S
C323 C322 1.361 . S
C323 H341 0.931 . S
C324 C322 1.500 . S
C324 C325 1.371 . S
C324 C326 1.365 . S
C325 C324 1.371 . S
C325 C335 1.386 . S
C325 H343 0.931 . S
C326 C324 1.365 . S
C326 C327 1.409 . S
C326 H344 0.929 . S
C327 C326 1.409 . S
C327 C328 1.380 . S
C327 H345 0.930 . S
C328 C327 1.380 . S
C328 C335 1.357 . S
C329 C320 1.511 . S
C329 C330 1.341 . S
C329 C331 1.371 . S
C330 C329 1.341 . S
C330 C334 1.394 . S
C330 H346 0.930 . S
C331 C329 1.371 . S
C331 C332 1.392 . S
C331 H347 0.931 . S
C332 C331 1.392 . S
C332 C333 1.331 . S
C332 H350 0.932 . S
C333 C332 1.331 . S
C333 C334 1.336 . S
C334 C330 1.394 . S
C334 C333 1.336 . S
C334 H349 0.929 . S
C335 C325 1.386 . S
C335 C328 1.357 . S
C335 H348 0.928 . S
H336 C312 0.931 . S
H337 C314 0.930 . S
H338 C316 0.929 1_565 S
H339 C317 0.931 . S
H340 C319 0.930 . S
H341 C323 0.931 . S
H342 C321 0.931 . S
H343 C325 0.931 . S
H344 C326 0.929 . S
H345 C327 0.930 . S
H346 C330 0.930 . S
H347 C331 0.931 . S
H348 C335 0.928 . S
H349 C334 0.929 . S
H350 C332 0.932 . S
C351 C352 1.386 . S
C351 C353 1.397 . S
C351 H375 0.931 . S
C352 C351 1.386 . S
C352 C356 1.397 . S
C353 C351 1.397 . S
C353 C354 1.384 . S
C353 H376 0.930 . S
C354 C353 1.384 . S
C354 C355 1.377 . S
C354 C357 1.481 . S
C355 C354 1.377 . S
C355 C356 1.389 . S
C355 H377 0.929 . S
C356 C352 1.397 . S
C356 C355 1.389 . S
C356 H378 0.931 . S
C357 C354 1.481 . S
C357 C358 1.387 . S
C357 C362 1.390 . S
C358 C357 1.387 . S
C358 C359 1.401 . S
C358 H379 0.930 . S
C359 C358 1.401 . S
C359 C360 1.376 . S
C359 C368 1.511 . S
C360 C359 1.376 . S
C360 C361 1.392 . S
C360 H381 0.931 . S
C361 C360 1.392 . S
C361 C362 1.361 . S
C361 C363 1.500 . S
C362 C357 1.390 . S
C362 C361 1.361 . S
C362 H380 0.931 . S
C363 C361 1.500 . S
C363 C364 1.371 . S
C363 C365 1.365 . S
C364 C363 1.371 . S
C364 C374 1.386 . S
C364 H382 0.931 . S
C365 C363 1.365 . S
C365 C366 1.409 . S
C365 H383 0.929 . S
C366 C365 1.409 . S
C366 C367 1.380 . S
C366 H384 0.930 . S
C367 C366 1.380 . S
C367 C374 1.357 . S
C368 C359 1.511 . S
C368 C369 1.341 . S
C368 C370 1.371 . S
C369 C368 1.341 . S
C369 C373 1.394 . S
C369 H385 0.930 . S
C370 C368 1.371 . S
C370 C371 1.392 . S
C370 H386 0.931 . S
C371 C370 1.392 . S
C371 C372 1.331 . S
C371 H389 0.929 . S
C372 C371 1.331 . S
C372 C373 1.336 . S
C373 C369 1.394 . S
C373 C372 1.336 . S
C373 H388 0.929 . S
C374 C364 1.386 . S
C374 C367 1.357 . S
C374 H387 0.928 . S
H375 C351 0.931 . S
H376 C353 0.930 . S
H377 C355 0.929 . S
H378 C356 0.931 . S
H379 C358 0.930 . S
H380 C362 0.931 . S
H381 C360 0.931 . S
H382 C364 0.931 . S
H383 C365 0.929 . S
H384 C366 0.930 . S
H385 C369 0.930 . S
H386 C370 0.931 . S
H387 C374 0.928 . S
H388 C373 0.929 . S
H389 C371 0.929 . S
C390 C391 1.386 . S
C390 C392 1.397 . S
C390 H414 0.931 . S
C391 C390 1.386 . S
C391 C395 1.397 . S
C392 C390 1.397 . S
C392 C393 1.384 . S
C392 H415 0.930 . S
C393 C392 1.384 . S
C393 C394 1.377 . S
C393 C396 1.481 . S
C394 C393 1.377 . S
C394 C395 1.389 . S
C394 H416 0.929 . S
C395 C391 1.397 . S
C395 C394 1.389 . S
C395 H417 0.931 . S
C396 C393 1.481 . S
C396 C397 1.387 . S
C396 C401 1.390 . S
C397 C396 1.387 . S
C397 C398 1.401 . S
C397 H418 0.930 . S
C398 C397 1.401 . S
C398 C399 1.376 . S
C398 C407 1.511 . S
C399 C398 1.376 . S
C399 C400 1.392 . S
C399 H420 0.931 . S
C400 C399 1.392 . S
C400 C401 1.361 . S
C400 C402 1.500 . S
C401 C396 1.390 . S
C401 C400 1.361 . S
C401 H419 0.931 . S
C402 C400 1.500 . S
C402 C403 1.371 . S
C402 C404 1.365 . S
C403 C402 1.371 . S
C403 C413 1.385 . S
C403 H421 0.931 . S
C404 C402 1.365 . S
C404 C405 1.409 . S
C404 H422 0.929 . S
C405 C404 1.409 . S
C405 C406 1.380 . S
C405 H423 0.930 . S
C406 C405 1.380 . S
C406 C413 1.355 . S
C407 C398 1.511 . S
C407 C408 1.341 . S
C407 C409 1.371 . S
C408 C407 1.341 . S
C408 C412 1.394 . S
C408 H424 0.930 . S
C409 C407 1.371 . S
C409 C410 1.392 . S
C409 H425 0.931 . S
C410 C409 1.392 . S
C410 C411 1.331 . S
C410 H428 0.932 1_556 S
C411 C410 1.331 . S
C411 C412 1.336 . S
C412 C408 1.394 . S
C412 C411 1.336 . S
C412 H427 0.929 . S
C413 C403 1.385 . S
C413 C406 1.355 . S
C413 H426 0.931 1_556 S
H414 C390 0.931 . S
H415 C392 0.930 . S
H416 C394 0.929 . S
H417 C395 0.931 . S
H418 C397 0.930 . S
H419 C401 0.931 . S
H420 C399 0.931 . S
H421 C403 0.931 . S
H422 C404 0.929 . S
H423 C405 0.930 . S
H424 C408 0.930 . S
H425 C409 0.931 . S
H426 C413 0.931 1_554 S
H427 C412 0.929 . S
H428 C410 0.932 1_554 S
C429 C430 1.386 . S
C429 C431 1.397 . S
C429 H453 0.931 . S
C430 C429 1.386 . S
C430 C434 1.397 . S
C431 C429 1.397 . S
C431 C432 1.384 . S
C431 H454 0.930 . S
C432 C431 1.384 . S
C432 C433 1.377 . S
C432 C435 1.481 . S
C433 C432 1.377 . S
C433 C434 1.389 . S
C433 H455 0.929 . S
C434 C430 1.397 . S
C434 C433 1.389 . S
C434 H456 0.931 . S
C435 C432 1.481 . S
C435 C436 1.387 . S
C435 C440 1.390 . S
C436 C435 1.387 . S
C436 C437 1.401 . S
C436 H457 0.930 . S
C437 C436 1.401 . S
C437 C438 1.376 . S
C437 C446 1.511 . S
C438 C437 1.376 . S
C438 C439 1.392 . S
C438 H459 0.931 . S
C439 C438 1.392 . S
C439 C440 1.361 . S
C439 C441 1.500 . S
C440 C435 1.390 . S
C440 C439 1.361 . S
C440 H458 0.931 . S
C441 C439 1.500 . S
C441 C442 1.371 . S
C441 C443 1.365 . S
C442 C441 1.371 . S
C442 C452 1.386 . S
C442 H460 0.931 . S
C443 C441 1.365 . S
C443 C444 1.409 . S
C443 H461 0.929 . S
C444 C443 1.409 . S
C444 C445 1.380 . S
C444 H462 0.930 . S
C445 C444 1.380 . S
C445 C452 1.357 . S
C446 C437 1.511 . S
C446 C447 1.341 . S
C446 C448 1.371 . S
C447 C446 1.341 . S
C447 C451 1.394 . S
C447 H463 0.930 . S
C448 C446 1.371 . S
C448 C449 1.392 . S
C448 H464 0.931 . S
C449 C448 1.392 . S
C449 C450 1.331 . S
C449 H467 0.932 1_556 S
C450 C449 1.331 . S
C450 C451 1.336 . S
C451 C447 1.394 . S
C451 C450 1.336 . S
C451 H466 0.929 . S
C452 C442 1.386 . S
C452 C445 1.357 . S
C452 H465 0.951 . S
H453 C429 0.931 . S
H454 C431 0.930 . S
H455 C433 0.929 . S
H456 C434 0.931 . S
H457 C436 0.930 . S
H458 C440 0.931 . S
H459 C438 0.931 . S
H460 C442 0.931 . S
H461 C443 0.929 . S
H462 C444 0.930 . S
H463 C447 0.930 . S
H464 C448 0.931 . S
H465 C452 0.951 . S
H466 C451 0.929 . S
H467 C449 0.932 1_554 S
C468 C469 1.386 . S
C468 C470 1.397 . S
C468 H492 0.931 . S
C469 C468 1.386 . S
C469 C473 1.397 . S
C470 C468 1.397 . S
C470 C471 1.384 . S
C470 H493 0.930 . S
C471 C470 1.384 . S
C471 C472 1.377 . S
C471 C474 1.481 . S
C472 C471 1.377 . S
C472 C473 1.389 . S
C472 H494 0.929 . S
C473 C469 1.397 . S
C473 C472 1.389 . S
C473 H495 0.931 . S
C474 C471 1.481 . S
C474 C475 1.387 . S
C474 C479 1.390 . S
C475 C474 1.387 . S
C475 C476 1.401 . S
C475 H496 0.930 . S
C476 C475 1.401 . S
C476 C477 1.376 . S
C476 C485 1.511 . S
C477 C476 1.376 . S
C477 C478 1.392 . S
C477 H498 0.931 . S
C478 C477 1.392 . S
C478 C479 1.361 . S
C478 C480 1.500 . S
C479 C474 1.390 . S
C479 C478 1.361 . S
C479 H497 0.931 . S
C480 C478 1.500 . S
C480 C481 1.371 . S
C480 C482 1.365 . S
C481 C480 1.371 . S
C481 C491 1.386 . S
C481 H499 0.931 . S
C482 C480 1.365 . S
C482 C483 1.409 . S
C482 H500 0.929 . S
C483 C482 1.409 . S
C483 C484 1.380 . S
C483 H501 0.930 . S
C484 C483 1.380 . S
C484 C491 1.357 . S
C485 C476 1.511 . S
C485 C486 1.341 . S
C485 C487 1.371 . S
C486 C485 1.341 . S
C486 C490 1.394 . S
C486 H502 0.930 . S
C487 C485 1.371 . S
C487 C488 1.392 . S
C487 H503 0.931 . S
C488 C487 1.392 . S
C488 C489 1.331 . S
C488 H506 0.932 1_554 S
C489 C488 1.331 . S
C489 C490 1.336 . S
C490 C486 1.394 . S
C490 C489 1.336 . S
C490 H505 0.929 . S
C491 C481 1.386 . S
C491 C484 1.357 . S
C491 H504 0.928 1_554 S
H492 C468 0.931 . S
H493 C470 0.930 . S
H494 C472 0.929 . S
H495 C473 0.931 . S
H496 C475 0.930 . S
H497 C479 0.931 . S
H498 C477 0.931 . S
H499 C481 0.931 . S
H500 C482 0.929 . S
H501 C483 0.930 . S
H502 C486 0.930 . S
H503 C487 0.931 . S
H504 C491 0.928 1_556 S
H505 C490 0.929 . S
H506 C488 0.932 1_556 S
C507 C508 1.386 . S
C507 C509 1.397 . S
C507 H531 0.931 . S
C508 C507 1.386 . S
C508 C512 1.397 . S
C509 C507 1.397 . S
C509 C510 1.384 . S
C509 H532 0.930 . S
C510 C509 1.384 . S
C510 C511 1.377 . S
C510 C513 1.481 . S
C511 C510 1.377 . S
C511 C512 1.389 . S
C511 H533 0.929 . S
C512 C508 1.397 . S
C512 C511 1.389 . S
C512 H534 0.931 . S
C513 C510 1.481 . S
C513 C514 1.387 . S
C513 C518 1.390 . S
C514 C513 1.387 . S
C514 C515 1.401 . S
C514 H535 0.930 . S
C515 C514 1.401 . S
C515 C516 1.376 . S
C515 C524 1.511 . S
C516 C515 1.376 . S
C516 C517 1.392 . S
C516 H537 0.931 . S
C517 C516 1.392 . S
C517 C518 1.361 . S
C517 C519 1.500 . S
C518 C513 1.390 . S
C518 C517 1.361 . S
C518 H536 0.931 . S
C519 C517 1.500 . S
C519 C520 1.371 . S
C519 C521 1.365 . S
C520 C519 1.371 . S
C520 C530 1.386 . S
C520 H538 0.931 . S
C521 C519 1.365 . S
C521 C522 1.409 . S
C521 H539 0.929 . S
C522 C521 1.409 . S
C522 C523 1.380 . S
C522 H540 0.930 . S
C523 C522 1.380 . S
C523 C530 1.357 . S
C524 C515 1.511 . S
C524 C525 1.341 . S
C524 C526 1.371 . S
C525 C524 1.341 . S
C525 C529 1.394 . S
C525 H541 0.930 . S
C526 C524 1.371 . S
C526 C527 1.392 . S
C526 H542 0.931 . S
C527 C526 1.392 . S
C527 C528 1.331 . S
C527 H545 0.932 . S
C528 C527 1.331 . S
C528 C529 1.336 . S
C529 C525 1.394 . S
C529 C528 1.336 . S
C529 H544 0.929 . S
C530 C520 1.386 . S
C530 C523 1.357 . S
C530 H543 0.928 1_554 S
H531 C507 0.931 . S
H532 C509 0.930 . S
H533 C511 0.929 . S
H534 C512 0.931 . S
H535 C514 0.930 . S
H536 C518 0.931 . S
H537 C516 0.931 . S
H538 C520 0.931 . S
H539 C521 0.929 . S
H540 C522 0.930 . S
H541 C525 0.930 . S
H542 C526 0.931 . S
H543 C530 0.928 1_556 S
H544 C529 0.929 . S
H545 C527 0.932 . S
C546 C547 1.386 . S
C546 C548 1.397 . S
C546 H570 0.931 . S
C547 C546 1.386 . S
C547 C551 1.397 . S
C548 C546 1.397 . S
C548 C549 1.384 . S
C548 H571 0.930 . S
C549 C548 1.384 . S
C549 C550 1.377 . S
C549 C552 1.481 . S
C550 C549 1.377 . S
C550 C551 1.389 . S
C550 H572 0.929 . S
C551 C547 1.397 . S
C551 C550 1.389 . S
C551 H573 0.931 . S
C552 C549 1.481 . S
C552 C553 1.387 . S
C552 C557 1.390 . S
C553 C552 1.387 . S
C553 C554 1.401 . S
C553 H574 0.930 . S
C554 C553 1.401 . S
C554 C555 1.376 . S
C554 C563 1.511 . S
C555 C554 1.376 . S
C555 C556 1.392 . S
C555 H576 0.931 . S
C556 C555 1.392 . S
C556 C557 1.361 . S
C556 C558 1.500 . S
C557 C552 1.390 . S
C557 C556 1.361 . S
C557 H575 0.931 . S
C558 C556 1.500 . S
C558 C559 1.371 . S
C558 C560 1.365 . S
C559 C558 1.371 . S
C559 C569 1.386 . S
C559 H577 0.931 . S
C560 C558 1.365 . S
C560 C561 1.409 . S
C560 H578 0.929 . S
C561 C560 1.409 . S
C561 C562 1.380 . S
C561 H579 0.930 . S
C562 C561 1.380 . S
C562 C569 1.357 . S
C563 C554 1.511 . S
C563 C564 1.341 . S
C563 C565 1.371 . S
C564 C563 1.341 . S
C564 C568 1.394 . S
C564 H580 0.930 . S
C565 C563 1.371 . S
C565 C566 1.392 . S
C565 H581 0.931 . S
C566 C565 1.392 . S
C566 C567 1.331 . S
C566 H584 0.932 . S
C567 C566 1.331 . S
C567 C568 1.336 . S
C568 C564 1.394 . S
C568 C567 1.336 . S
C568 H583 0.929 . S
C569 C559 1.386 . S
C569 C562 1.357 . S
C569 H582 0.928 . S
H570 C546 0.931 . S
H571 C548 0.930 . S
H572 C550 0.929 . S
H573 C551 0.931 . S
H574 C553 0.930 . S
H575 C557 0.931 . S
H576 C555 0.931 . S
H577 C559 0.931 . S
H578 C560 0.929 . S
H579 C561 0.930 . S
H580 C564 0.930 . S
H581 C565 0.931 . S
H582 C569 0.928 . S
H583 C568 0.929 . S
H584 C566 0.932 . S
C585 C586 1.381 1_565 S
C585 C587 1.397 . S
C585 H609 0.931 . S
C586 C585 1.381 1_545 S
C586 C590 1.400 . S
C587 C585 1.397 . S
C587 C588 1.384 . S
C587 H610 0.930 . S
C588 C587 1.384 . S
C588 C589 1.377 1_565 S
C588 C591 1.481 . S
C589 C588 1.377 1_545 S
C589 C590 1.389 . S
C589 H611 0.929 . S
C590 C586 1.400 . S
C590 C589 1.389 . S
C590 H612 0.931 . S
C591 C588 1.481 . S
C591 C592 1.387 . S
C591 C596 1.390 . S
C592 C591 1.387 . S
C592 C593 1.401 . S
C592 H613 0.930 . S
C593 C592 1.401 . S
C593 C594 1.376 . S
C593 C602 1.511 . S
C594 C593 1.376 . S
C594 C595 1.392 . S
C594 H615 0.931 . S
C595 C594 1.392 . S
C595 C596 1.361 . S
C595 C597 1.500 . S
C596 C591 1.390 . S
C596 C595 1.361 . S
C596 H614 0.931 . S
C597 C595 1.500 . S
C597 C598 1.371 . S
C597 C599 1.365 . S
C598 C597 1.371 . S
C598 C608 1.386 . S
C598 H616 0.931 . S
C599 C597 1.365 . S
C599 C600 1.409 . S
C599 H617 0.929 . S
C600 C599 1.409 . S
C600 C601 1.380 . S
C600 H618 0.930 . S
C601 C600 1.380 . S
C601 C608 1.357 . S
C602 C593 1.511 . S
C602 C603 1.341 . S
C602 C604 1.371 . S
C603 C602 1.341 . S
C603 C607 1.394 . S
C603 H619 0.930 . S
C604 C602 1.371 . S
C604 C605 1.392 . S
C604 H620 0.931 . S
C605 C604 1.392 . S
C605 C606 1.331 . S
C605 H623 0.932 . S
C606 C605 1.331 . S
C606 C607 1.336 . S
C607 C603 1.394 . S
C607 C606 1.336 . S
C607 H622 0.929 . S
C608 C598 1.386 . S
C608 C601 1.357 . S
C608 H621 0.928 . S
H609 C585 0.931 . S
H610 C587 0.930 . S
H611 C589 0.929 . S
H612 C590 0.931 . S
H613 C592 0.930 . S
H614 C596 0.931 . S
H615 C594 0.931 . S
H616 C598 0.931 . S
H617 C599 0.929 . S
H618 C600 0.930 . S
H619 C603 0.930 . S
H620 C604 0.931 . S
H621 C608 0.928 . S
H622 C607 0.929 . S
H623 C605 0.932 . S
C624 C625 1.386 1_655 S
C624 C626 1.397 1_655 S
C624 H648 0.931 . S
C625 C624 1.386 1_455 S
C625 C629 1.397 . S
C626 C624 1.397 1_455 S
C626 C627 1.384 . S
C626 H649 0.930 . S
C627 C626 1.384 . S
C627 C628 1.377 . S
C627 C630 1.481 . S
C628 C627 1.377 . S
C628 C629 1.389 . S
C628 H650 0.929 . S
C629 C625 1.397 . S
C629 C628 1.389 . S
C629 H651 0.931 . S
C630 C627 1.481 . S
C630 C631 1.387 . S
C630 C635 1.390 . S
C631 C630 1.387 . S
C631 C632 1.401 . S
C631 H652 0.930 . S
C632 C631 1.401 . S
C632 C633 1.376 . S
C632 C641 1.511 . S
C633 C632 1.376 . S
C633 C634 1.392 . S
C633 H654 0.931 . S
C634 C633 1.392 . S
C634 C635 1.361 . S
C634 C636 1.500 . S
C635 C630 1.390 . S
C635 C634 1.361 . S
C635 H653 0.931 . S
C636 C634 1.500 . S
C636 C637 1.371 . S
C636 C638 1.365 . S
C637 C636 1.371 . S
C637 C647 1.386 . S
C637 H655 0.931 . S
C638 C636 1.365 . S
C638 C639 1.409 . S
C638 H656 0.929 . S
C639 C638 1.409 . S
C639 C640 1.380 . S
C639 H657 0.930 . S
C640 C639 1.380 . S
C640 C647 1.357 . S
C641 C632 1.511 . S
C641 C642 1.341 . S
C641 C643 1.371 . S
C642 C641 1.341 . S
C642 C646 1.394 . S
C642 H658 0.930 . S
C643 C641 1.371 . S
C643 C644 1.392 . S
C643 H659 0.931 . S
C644 C643 1.392 . S
C644 C645 1.331 . S
C644 H662 0.932 . S
C645 C644 1.331 . S
C645 C646 1.336 . S
C646 C642 1.394 . S
C646 C645 1.336 . S
C646 H661 0.929 . S
C647 C637 1.386 . S
C647 C640 1.357 . S
C647 H660 0.928 . S
H648 C624 0.931 . S
H649 C626 0.930 . S
H650 C628 0.929 . S
H651 C629 0.931 . S
H652 C631 0.930 . S
H653 C635 0.931 . S
H654 C633 0.931 . S
H655 C637 0.931 . S
H656 C638 0.929 . S
H657 C639 0.930 . S
H658 C642 0.930 . S
H659 C643 0.931 . S
H660 C647 0.928 . S
H661 C646 0.929 . S
H662 C644 0.932 . S
C663 C664 1.386 . S
C663 C665 1.397 . S
C663 H687 0.931 . S
C664 C663 1.386 . S
C664 C668 1.397 . S
C665 C663 1.397 . S
C665 C666 1.384 . S
C665 H688 0.930 . S
C666 C665 1.384 . S
C666 C667 1.377 . S
C666 C669 1.481 . S
C667 C666 1.377 . S
C667 C668 1.389 . S
C667 H689 0.929 . S
C668 C664 1.397 . S
C668 C667 1.389 . S
C668 H690 0.931 . S
C669 C666 1.481 . S
C669 C670 1.387 . S
C669 C674 1.390 . S
C670 C669 1.387 . S
C670 C671 1.401 . S
C670 H691 0.930 . S
C671 C670 1.401 . S
C671 C672 1.376 . S
C671 C680 1.511 . S
C672 C671 1.376 . S
C672 C673 1.392 . S
C672 H693 0.931 . S
C673 C672 1.392 . S
C673 C674 1.361 . S
C673 C675 1.500 . S
C674 C669 1.390 . S
C674 C673 1.361 . S
C674 H692 0.931 . S
C675 C673 1.500 . S
C675 C676 1.371 . S
C675 C677 1.365 . S
C676 C675 1.371 . S
C676 C686 1.386 . S
C676 H694 0.931 . S
C677 C675 1.365 . S
C677 C678 1.409 . S
C677 H695 0.929 . S
C678 C677 1.409 . S
C678 C679 1.380 . S
C678 H696 0.930 . S
C679 C678 1.380 . S
C679 C686 1.357 . S
C680 C671 1.511 . S
C680 C681 1.341 . S
C680 C682 1.371 . S
C681 C680 1.341 . S
C681 C685 1.394 . S
C681 H697 0.930 . S
C682 C680 1.371 . S
C682 C683 1.392 . S
C682 H698 0.931 . S
C683 C682 1.392 . S
C683 C684 1.331 . S
C683 H701 0.932 . S
C684 C683 1.331 . S
C684 C685 1.336 . S
C685 C681 1.394 . S
C685 C684 1.336 . S
C685 H700 0.929 . S
C686 C676 1.386 . S
C686 C679 1.357 . S
C686 H699 0.928 . S
H687 C663 0.931 . S
H688 C665 0.930 . S
H689 C667 0.929 . S
H690 C668 0.931 . S
H691 C670 0.930 . S
H692 C674 0.931 . S
H693 C672 0.931 . S
H694 C676 0.931 . S
H695 C677 0.929 . S
H696 C678 0.930 . S
H697 C681 0.930 . S
H698 C682 0.931 . S
H699 C686 0.928 . S
H700 C685 0.929 . S
H701 C683 0.932 . S
Tb702 O705 2.453 . S
Tb702 O706 2.596 1_545 S
Tb702 O707 2.374 1_545 S
Tb702 O715 2.343 1_554 S
Tb702 O717 2.353 . S
Tb702 O719 2.427 1_554 S
Tb702 O720 2.513 1_554 S
C703 O707 1.251 . S
C703 O709 1.254 1_554 S
Tb704 O706 2.343 1_556 S
Tb704 O709 2.357 . S
Tb704 O712 2.427 1_556 S
Tb704 O713 2.513 1_556 S
Tb704 O714 2.453 . S
Tb704 O715 2.596 1_565 S
Tb704 O716 2.374 1_565 S
O705 Tb702 2.453 . S
O705 C721 1.245 . S
O706 Tb702 2.596 1_565 S
O706 Tb704 2.343 1_554 S
O706 C721 1.259 1_565 S
O707 Tb702 2.374 1_565 S
O707 C703 1.251 . S
C708 O712 1.275 . S
C708 O713 1.246 . S
O709 C703 1.254 1_556 S
O709 Tb704 2.357 . S
C710 O714 1.245 . S
C710 O715 1.259 1_565 S
C711 O716 1.250 . S
C711 O717 1.263 1_556 S
O712 Tb704 2.427 1_554 S
O712 C708 1.275 . S
O713 Tb704 2.513 1_554 S
O713 C708 1.246 . S
O714 Tb704 2.453 . S
O714 C710 1.245 . S
O715 Tb702 2.343 1_556 S
O715 Tb704 2.596 1_545 S
O715 C710 1.259 1_545 S
O716 Tb704 2.374 1_545 S
O716 C711 1.250 . S
O717 Tb702 2.353 . S
O717 C711 1.263 1_554 S
C718 O719 1.275 . S
C718 O720 1.246 . S
O719 Tb702 2.427 1_556 S
O719 C718 1.275 . S
O720 Tb702 2.513 1_556 S
O720 C718 1.246 . S
C721 O705 1.245 . S
C721 O706 1.259 1_545 S
Tb722 O725 2.453 . S
Tb722 O726 2.596 1_655 S
Tb722 O727 2.374 1_655 S
Tb722 O735 2.343 1_554 S
Tb722 O737 2.353 . S
Tb722 O739 2.427 1_554 S
Tb722 O740 2.513 1_554 S
C723 O727 1.251 . S
C723 O729 1.263 . S
Tb724 O726 2.343 1_556 S
Tb724 O729 2.353 1_556 S
Tb724 O732 2.427 1_556 S
Tb724 O733 2.513 1_556 S
Tb724 O734 2.453 . S
Tb724 O735 2.596 1_455 S
Tb724 O736 2.374 1_455 S
O725 Tb722 2.453 . S
O725 C741 1.245 1_655 S
O726 Tb722 2.596 1_455 S
O726 Tb724 2.343 1_554 S
O726 C741 1.259 . S
O727 Tb722 2.374 1_455 S
O727 C723 1.251 . S
C728 O732 1.275 . S
C728 O733 1.246 . S
O729 C723 1.263 . S
O729 Tb724 2.353 1_554 S
C730 O734 1.245 1_655 S
C730 O735 1.259 . S
C731 O736 1.250 . S
C731 O737 1.263 1_556 S
O732 Tb724 2.427 1_554 S
O732 C728 1.275 . S
O733 Tb724 2.513 1_554 S
O733 C728 1.246 . S
O734 Tb724 2.453 . S
O734 C730 1.245 1_455 S
O735 Tb722 2.343 1_556 S
O735 Tb724 2.596 1_655 S
O735 C730 1.259 . S
O736 Tb724 2.374 1_655 S
O736 C731 1.250 . S
O737 Tb722 2.353 . S
O737 C731 1.263 1_554 S
C738 O739 1.275 . S
C738 O740 1.246 . S
O739 Tb722 2.427 1_556 S
O739 C738 1.275 . S
O740 Tb722 2.513 1_556 S
O740 C738 1.246 . S
C741 O725 1.245 1_455 S
C741 O726 1.259 . S
Tb742 O745 2.453 . S
Tb742 O746 2.596 . S
Tb742 O747 2.374 . S
Tb742 O755 2.343 1_556 S
Tb742 O757 2.353 1_556 S
Tb742 O759 2.427 1_556 S
Tb742 O760 2.513 1_556 S
C743 O747 1.251 . S
C743 O749 1.263 1_556 S
Tb744 O746 2.343 1_554 S
Tb744 O749 2.353 . S
Tb744 O752 2.427 1_554 S
Tb744 O753 2.513 1_554 S
Tb744 O754 2.453 . S
Tb744 O755 2.596 . S
Tb744 O756 2.374 . S
O745 Tb742 2.453 . S
O745 C761 1.245 . S
O746 Tb742 2.596 . S
O746 Tb744 2.343 1_556 S
O746 C761 1.259 . S
O747 Tb742 2.374 . S
O747 C743 1.251 . S
C748 O752 1.275 . S
C748 O753 1.246 . S
O749 C743 1.263 1_554 S
O749 Tb744 2.353 . S
C750 O754 1.245 . S
C750 O755 1.259 . S
C751 O756 1.250 . S
C751 O757 1.263 . S
O752 Tb744 2.427 1_556 S
O752 C748 1.275 . S
O753 Tb744 2.513 1_556 S
O753 C748 1.246 . S
O754 Tb744 2.453 . S
O754 C750 1.245 . S
O755 Tb742 2.343 1_554 S
O755 Tb744 2.596 . S
O755 C750 1.259 . S
O756 Tb744 2.374 . S
O756 C751 1.250 . S
O757 Tb742 2.353 1_554 S
O757 C751 1.263 . S
C758 O759 1.275 . S
C758 O760 1.246 . S
O759 Tb742 2.427 1_554 S
O759 C758 1.275 . S
O760 Tb742 2.513 1_554 S
O760 C758 1.246 . S
C761 O745 1.245 . S
C761 O746 1.259 . S
Tb762 O765 2.453 . S
Tb762 O766 2.596 . S
Tb762 O767 2.374 . S
Tb762 O775 2.343 . S
Tb762 O777 2.353 . S
Tb762 O779 2.427 . S
Tb762 O780 2.513 . S
C763 O767 1.251 . S
C763 O769 1.263 . S
Tb764 O766 2.343 . S
Tb764 O769 2.353 . S
Tb764 O772 2.427 . S
Tb764 O773 2.513 . S
Tb764 O774 2.453 . S
Tb764 O775 2.596 . S
Tb764 O776 2.374 . S
O765 Tb762 2.453 . S
O765 C781 1.245 . S
O766 Tb762 2.596 . S
O766 Tb764 2.343 . S
O766 C781 1.259 . S
O767 Tb762 2.374 . S
O767 C763 1.251 . S
C768 O772 1.275 . S
C768 O773 1.246 . S
O769 C763 1.263 . S
O769 Tb764 2.353 . S
C770 O774 1.245 . S
C770 O775 1.259 . S
C771 O776 1.250 . S
C771 O777 1.263 . S
O772 Tb764 2.427 . S
O772 C768 1.275 . S
O773 Tb764 2.513 . S
O773 C768 1.246 . S
O774 Tb764 2.453 . S
O774 C770 1.245 . S
O775 Tb762 2.343 . S
O775 Tb764 2.596 . S
O775 C770 1.259 . S
O776 Tb764 2.374 . S
O776 C771 1.250 . S
O777 Tb762 2.353 . S
O777 C771 1.263 . S
C778 O779 1.275 . S
C778 O780 1.246 . S
O779 Tb762 2.427 . S
O779 C778 1.275 . S
O780 Tb762 2.513 . S
O780 C778 1.246 . S
C781 O765 1.245 . S
C781 O766 1.259 . S
Tb782 O785 2.453 . S
Tb782 O786 2.596 . S
Tb782 O787 2.374 . S
Tb782 O795 2.343 . S
Tb782 O797 2.353 . S
Tb782 O799 2.427 . S
Tb782 O800 2.513 . S
C783 O787 1.251 . S
C783 O789 1.263 . S
Tb784 O786 2.343 . S
Tb784 O789 2.353 . S
Tb784 O792 2.427 . S
Tb784 O793 2.513 . S
Tb784 O794 2.453 . S
Tb784 O795 2.596 . S
Tb784 O796 2.374 . S
O785 Tb782 2.453 . S
O785 C801 1.245 . S
O786 Tb782 2.596 . S
O786 Tb784 2.343 . S
O786 C801 1.259 . S
O787 Tb782 2.374 . S
O787 C783 1.251 . S
C788 O792 1.275 . S
C788 O793 1.246 . S
O789 C783 1.263 . S
O789 Tb784 2.353 . S
C790 O794 1.245 . S
C790 O795 1.259 . S
C791 O796 1.250 . S
C791 O797 1.263 . S
O792 Tb784 2.427 . S
O792 C788 1.275 . S
O793 Tb784 2.513 . S
O793 C788 1.246 . S
O794 Tb784 2.453 . S
O794 C790 1.245 . S
O795 Tb782 2.343 . S
O795 Tb784 2.596 . S
O795 C790 1.259 . S
O796 Tb784 2.374 . S
O796 C791 1.250 . S
O797 Tb782 2.353 . S
O797 C791 1.263 . S
C798 O799 1.275 . S
C798 O800 1.246 . S
O799 Tb782 2.427 . S
O799 C798 1.275 . S
O800 Tb782 2.513 . S
O800 C798 1.246 . S
C801 O785 1.245 . S
C801 O786 1.259 . S
Tb802 O805 2.453 . S
Tb802 O806 2.596 . S
Tb802 O807 2.374 . S
Tb802 O815 2.343 . S
Tb802 O817 2.353 . S
Tb802 O819 2.427 . S
Tb802 O820 2.513 . S
C803 O807 1.251 . S
C803 O809 1.263 . S
Tb804 O806 2.343 . S
Tb804 O809 2.353 . S
Tb804 O812 2.427 . S
Tb804 O813 2.513 . S
Tb804 O814 2.453 . S
Tb804 O815 2.596 . S
Tb804 O816 2.374 . S
O805 Tb802 2.453 . S
O805 C821 1.245 . S
O806 Tb802 2.596 . S
O806 Tb804 2.343 . S
O806 C821 1.259 . S
O807 Tb802 2.374 . S
O807 C803 1.251 . S
C808 O812 1.275 . S
C808 O813 1.246 . S
O809 C803 1.263 . S
O809 Tb804 2.353 . S
C810 O814 1.245 . S
C810 O815 1.259 . S
C811 O816 1.250 . S
C811 O817 1.263 . S
O812 Tb804 2.427 . S
O812 C808 1.275 . S
O813 Tb804 2.513 . S
O813 C808 1.246 . S
O814 Tb804 2.453 . S
O814 C810 1.245 . S
O815 Tb802 2.343 . S
O815 Tb804 2.596 . S
O815 C810 1.259 . S
O816 Tb804 2.374 . S
O816 C811 1.250 . S
O817 Tb802 2.353 . S
O817 C811 1.263 . S
C818 O819 1.275 . S
C818 O820 1.246 . S
O819 Tb802 2.427 . S
O819 C818 1.275 . S
O820 Tb802 2.513 . S
O820 C818 1.246 . S
C821 O805 1.245 . S
C821 O806 1.259 . S
Tb822 O825 2.453 . S
Tb822 O826 2.596 . S
Tb822 O827 2.374 . S
Tb822 O835 2.343 . S
Tb822 O837 2.353 . S
Tb822 O839 2.427 . S
Tb822 O840 2.513 . S
C823 O827 1.251 . S
C823 O829 1.263 . S
Tb824 O826 2.343 . S
Tb824 O829 2.353 . S
Tb824 O832 2.427 . S
Tb824 O833 2.513 . S
Tb824 O834 2.453 . S
Tb824 O835 2.596 . S
Tb824 O836 2.374 . S
O825 Tb822 2.453 . S
O825 C841 1.245 . S
O826 Tb822 2.596 . S
O826 Tb824 2.343 . S
O826 C841 1.259 . S
O827 Tb822 2.374 . S
O827 C823 1.251 . S
C828 O832 1.275 . S
C828 O833 1.246 . S
O829 C823 1.263 . S
O829 Tb824 2.353 . S
C830 O834 1.245 . S
C830 O835 1.259 . S
C831 O836 1.250 . S
C831 O837 1.263 . S
O832 Tb824 2.427 . S
O832 C828 1.275 . S
O833 Tb824 2.513 . S
O833 C828 1.246 . S
O834 Tb824 2.453 . S
O834 C830 1.245 . S
O835 Tb822 2.343 . S
O835 Tb824 2.596 . S
O835 C830 1.259 . S
O836 Tb824 2.374 . S
O836 C831 1.250 . S
O837 Tb822 2.353 . S
O837 C831 1.263 . S
C838 O839 1.275 . S
C838 O840 1.246 . S
O839 Tb822 2.427 . S
O839 C838 1.275 . S
O840 Tb822 2.513 . S
O840 C838 1.246 . S
C841 O825 1.245 . S
C841 O826 1.259 . S
Tb842 O845 2.453 . S
Tb842 O846 2.596 . S
Tb842 O847 2.374 . S
Tb842 O855 2.343 . S
Tb842 O857 2.353 . S
Tb842 O859 2.427 . S
Tb842 O860 2.513 . S
C843 O847 1.251 . S
C843 O849 1.263 . S
Tb844 O846 2.343 . S
Tb844 O849 2.353 . S
Tb844 O852 2.427 . S
Tb844 O853 2.513 . S
Tb844 O854 2.453 . S
Tb844 O855 2.596 . S
Tb844 O856 2.374 . S
O845 Tb842 2.453 . S
O845 C861 1.245 . S
O846 Tb842 2.596 . S
O846 Tb844 2.343 . S
O846 C861 1.259 . S
O847 Tb842 2.374 . S
O847 C843 1.251 . S
C848 O852 1.275 . S
C848 O853 1.246 . S
O849 C843 1.263 . S
O849 Tb844 2.353 . S
C850 O854 1.245 . S
C850 O855 1.259 . S
C851 O856 1.250 . S
C851 O857 1.263 . S
O852 Tb844 2.427 . S
O852 C848 1.275 . S
O853 Tb844 2.513 . S
O853 C848 1.246 . S
O854 Tb844 2.453 . S
O854 C850 1.245 . S
O855 Tb842 2.343 . S
O855 Tb844 2.596 . S
O855 C850 1.259 . S
O856 Tb844 2.374 . S
O856 C851 1.250 . S
O857 Tb842 2.353 . S
O857 C851 1.263 . S
C858 O859 1.275 . S
C858 O860 1.246 . S
O859 Tb842 2.427 . S
O859 C858 1.275 . S
O860 Tb842 2.513 . S
O860 C858 1.246 . S
C861 O845 1.245 . S
C861 O846 1.259 . S
Tb862 O865 2.453 . S
Tb862 O866 2.596 . S
Tb862 O867 2.374 . S
Tb862 O875 2.343 . S
Tb862 O877 2.353 . S
Tb862 O879 2.427 . S
Tb862 O880 2.513 . S
C863 O867 1.251 . S
C863 O869 1.263 . S
Tb864 O866 2.343 . S
Tb864 O869 2.353 . S
Tb864 O872 2.427 . S
Tb864 O873 2.513 . S
Tb864 O874 2.453 . S
Tb864 O875 2.596 . S
Tb864 O876 2.374 . S
O865 Tb862 2.453 . S
O865 C881 1.245 . S
O866 Tb862 2.596 . S
O866 Tb864 2.343 . S
O866 C881 1.259 . S
O867 Tb862 2.374 . S
O867 C863 1.251 . S
C868 O872 1.275 . S
C868 O873 1.246 . S
O869 C863 1.263 . S
O869 Tb864 2.353 . S
C870 O874 1.245 . S
C870 O875 1.259 . S
C871 O876 1.250 . S
C871 O877 1.263 . S
O872 Tb864 2.427 . S
O872 C868 1.275 . S
O873 Tb864 2.513 . S
O873 C868 1.246 . S
O874 Tb864 2.453 . S
O874 C870 1.245 . S
O875 Tb862 2.343 . S
O875 Tb864 2.596 . S
O875 C870 1.259 . S
O876 Tb864 2.374 . S
O876 C871 1.250 . S
O877 Tb862 2.353 . S
O877 C871 1.263 . S
C878 O879 1.275 . S
C878 O880 1.246 . S
O879 Tb862 2.427 . S
O879 C878 1.275 . S
O880 Tb862 2.513 . S
O880 C878 1.246 . S
C881 O865 1.245 . S
C881 O866 1.259 . S
C528 C708 1.863 . S
C562 C728 1.592 . S
C484 C751 1.718 . S
C445 C731 1.617 . S
C748 C367 1.731 . S
C411 C711 1.693 . S
C718 C450 1.857 . S
C738 C372 1.553 . S
C406 C743 1.711 . S
C523 C723 1.607 . S
C567 C758 1.676 . S
C703 C489 1.692 . S
C768 C60 1.863 . S
C94 C788 1.592 . S
C16 C811 1.718 . S
C679 C791 1.617 . S
C601 C808 1.731 . S
C645 C771 1.693 . S
C684 C778 1.857 . S
C606 C798 1.553 . S
C803 C640 1.711 . S
C55 C783 1.607 . S
C818 C99 1.675 . S
C21 C763 1.692 . S
C828 C294 1.862 . S
C328 C848 1.592 . S
C871 C250 1.718 . S
C851 C211 1.617 . S
C868 C133 1.731 . S
C177 C831 1.693 . S
C216 C838 1.856 . S
C138 C858 1.553 . S
C863 C172 1.711 . S
C289 C843 1.607 . S
C333 C878 1.676 . S
C255 C823 1.692 . S
C586 C721 1.313 . S
C741 C625 1.676 . S
C664 C750 1.545 . S
C235 C730 1.695 . S
C274 C761 1.524 . S
C710 C313 1.292 1_565 S
C118 C781 1.313 . S
C157 C801 1.676 . S
C196 C810 1.545 . S
C469 C790 1.695 . S
C821 C508 1.524 . S
C547 C770 1.292 . S
C352 C841 1.313 . S
C391 C861 1.676 . S
C870 C430 1.545 . S
C1 C850 1.695 . S
C40 C881 1.524 . S
C79 C830 1.292 . S
