# Generated by pormake.
# Topology rtl, (3,6)-cn, num edge types: 1
# Building blocks:
#     Node 0, Type 0, BuildingBlock: ESEHIV_clean_linker_0, # of connection points: 3
#     Node 1, Type 0, BuildingBlock: ESEHIV_clean_linker_0, # of connection points: 3
#     Node 2, Type 0, BuildingBlock: ESEHIV_clean_linker_0, # of connection points: 3
#     Node 3, Type 0, BuildingBlock: ESEHIV_clean_linker_0, # of connection points: 3
#     Node 4, Type 1, BuildingBlock: KUMBOL_clean_sbu_1, # of connection points: 6
#     Node 5, Type 1, BuildingBlock: KUMBOL_clean_sbu_1, # of connection points: 6
#     Edge 6, Type (0, 1), BuildingBlock: TEMPAE_clean_linker_10, # of connection points: 2
#     Edge 7, Type (0, 1), BuildingBlock: TEMPAE_clean_linker_10, # of connection points: 2
#     Edge 8, Type (0, 1), BuildingBlock: TEMPAE_clean_linker_10, # of connection points: 2
#     Edge 9, Type (0, 1), BuildingBlock: TEMPAE_clean_linker_10, # of connection points: 2
#     Edge 10, Type (0, 1), BuildingBlock: TEMPAE_clean_linker_10, # of connection points: 2
#     Edge 11, Type (0, 1), BuildingBlock: TEMPAE_clean_linker_10, # of connection points: 2
#     Edge 12, Type (0, 1), BuildingBlock: TEMPAE_clean_linker_10, # of connection points: 2
#     Edge 13, Type (0, 1), BuildingBlock: TEMPAE_clean_linker_10, # of connection points: 2
#     Edge 14, Type (0, 1), BuildingBlock: TEMPAE_clean_linker_10, # of connection points: 2
#     Edge 15, Type (0, 1), BuildingBlock: TEMPAE_clean_linker_10, # of connection points: 2
#     Edge 16, Type (0, 1), BuildingBlock: TEMPAE_clean_linker_10, # of connection points: 2
#     Edge 17, Type (0, 1), BuildingBlock: TEMPAE_clean_linker_10, # of connection points: 2
# Relax obj value: 0.018
# Max RMSD: 0.116
# Mean RMSD: 0.069
data_MOF--net-rtl--node1-KUMBOL_clean_sbu_1--node2-ESEHIV_clean_linker_0--edge1-TEMPAE_clean_linker_10
_symmetry_space_group_name_H-M    P1
_symmetry_Int_Tables_number       1
_symmetry_cell_setting            triclinic
loop_
_symmetry_equiv_pos_as_xyz
'x, y, z'
_cell_length_a     31.107695
_cell_length_b     31.892368
_cell_length_c     28.320198
_cell_angle_alpha  77.414429
_cell_angle_beta   99.549116
_cell_angle_gamma 90.953211
loop_
_atom_site_label
_atom_site_type_symbol
_atom_site_fract_x
_atom_site_fract_y
_atom_site_fract_z
_atom_type_partial_charge
H0 H 0.17756 0.90873 0.01389 0.0
H1 H 0.26426 0.80898 0.10472 0.0
H2 H 0.25022 0.82992 0.94785 0.0
C3 C 0.20099 0.88309 0.01701 0.0
C4 C 0.21178 0.87271 0.97465 0.0
C5 C 0.21958 0.86009 0.06379 0.0
C6 C 0.25033 0.82722 0.06856 0.0
C7 C 0.26194 0.81689 0.02661 0.0
C8 C 0.24265 0.83965 0.97995 0.0
H9 H 0.63792 0.6345 0.64292 0.0
H10 H 0.7318 0.70611 0.56438 0.0
H11 H 0.7176 0.72704 0.70609 0.0
C12 C 0.66268 0.65885 0.64077 0.0
C13 C 0.67539 0.67915 0.68023 0.0
C14 C 0.68294 0.66844 0.59913 0.0
C15 C 0.7162 0.69857 0.59667 0.0
C16 C 0.72841 0.72014 0.63488 0.0
C17 C 0.70798 0.7104 0.67657 0.0
H18 H 0.8458 0.10006 0.07353 0.0
H19 H 0.78121 0.18188 0.14402 0.0
H20 H 0.75648 0.20065 0.98778 0.0
C21 C 0.82328 0.12616 0.07152 0.0
C22 C 0.8032 0.14976 0.02524 0.0
C23 C 0.81498 0.13683 0.11503 0.0
C24 C 0.78672 0.17174 0.11135 0.0
C25 C 0.7653 0.19419 0.0658 0.0
C26 C 0.77314 0.18287 0.02298 0.0
H27 H 0.35854 0.39126 0.4518 0.0
H28 H 0.26968 0.30433 0.52233 0.0
H29 H 0.29059 0.29774 0.37863 0.0
C30 C 0.33582 0.36529 0.45109 0.0
C31 C 0.32792 0.34646 0.40967 0.0
C32 C 0.31435 0.35109 0.49165 0.0
C33 C 0.28554 0.31677 0.49096 0.0
C34 C 0.27734 0.29747 0.4506 0.0
C35 C 0.29832 0.31232 0.41007 0.0
C36 C 0.93795 0.12954 0.48373 0.0
C37 C 0.86706 0.10936 0.44589 0.0
C38 C 0.9054 0.0993 0.48087 0.0
C39 C 0.86219 0.14984 0.41355 0.0
C40 C 0.93312 0.17022 0.4514 0.0
C41 C 0.89511 0.18015 0.41628 0.0
N42 N 0.97486 0.11868 0.51726 0.0
C43 C 0.00765 0.14723 0.5214 0.0
C44 C 0.96692 0.19952 0.45495 0.0
C45 C 0.00427 0.18801 0.49023 0.0
Gd46 Gd 0.04342 0.95545 0.52754 0.0
Gd47 Gd 0.97905 0.04866 0.56525 0.0
N48 N 0.91165 0.05983 0.51172 0.0
C49 C 0.83474 0.07843 0.44444 0.0
C50 C 0.87914 0.03057 0.5123 0.0
C51 C 0.84058 0.03911 0.47824 0.0
H52 H 0.88217 0.00092 0.53932 0.0
H53 H 0.81521 0.01546 0.47837 0.0
H54 H 0.13874 0.0067 0.55185 0.0
H55 H 0.03629 0.13866 0.54906 0.0
H56 H 0.20649 0.99424 0.61147 0.0
H57 H 0.80487 0.08487 0.41802 0.0
H58 H 0.83305 0.15803 0.38629 0.0
H59 H 0.98646 0.86558 0.55066 0.0
H60 H 0.96448 0.23107 0.4307 0.0
H61 H 0.03047 0.21051 0.49343 0.0
H62 H 0.19389 0.85133 0.70504 0.0
H63 H 0.89091 0.21117 0.39096 0.0
H64 H 0.06296 0.77544 0.66734 0.0
H65 H 0.9948 0.7945 0.6077 0.0
N66 N 0.04864 0.88682 0.57879 0.0
C67 C 0.08666 0.87686 0.61071 0.0
C68 C 0.01601 0.85781 0.57711 0.0
C69 C 0.05942 0.8067 0.64249 0.0
C70 C 0.02082 0.81739 0.60901 0.0
C71 C 0.09292 0.83653 0.6437 0.0
H72 H 0.13723 0.79681 0.70312 0.0
N73 N 0.11092 0.94722 0.5809 0.0
C74 C 0.11859 0.90794 0.61197 0.0
C75 C 0.18912 0.93079 0.6464 0.0
C76 C 0.15766 0.89897 0.64601 0.0
C77 C 0.14263 0.97733 0.57927 0.0
C78 C 0.18177 0.96992 0.61248 0.0
O79 O 0.98133 0.05316 0.48484 0.0
O80 O 0.98207 0.98315 0.47677 0.0
O81 O 0.08549 0.95974 0.47272 0.0
O82 O 0.04558 0.90407 0.48876 0.0
O83 O 0.95607 0.97986 0.58558 0.0
O84 O 0.97125 0.94616 0.52543 0.0
O85 O 0.039 0.95087 0.60751 0.0
O86 O 0.04138 0.0212 0.61308 0.0
O87 O 0.94181 0.0383 0.62504 0.0
O88 O 0.97675 0.0974 0.6077 0.0
O89 O 0.06462 0.02454 0.50386 0.0
O90 O 0.05105 0.05762 0.56493 0.0
C91 C 0.97234 0.02397 0.4587 0.0
C92 C 0.95011 0.94873 0.56132 0.0
C93 C 0.05661 0.92819 0.40724 0.0
C94 C 0.07328 0.9283 0.32631 0.0
C95 C 0.99984 0.94535 0.33564 0.0
C96 C 0.01306 0.93902 0.38623 0.0
C97 C 0.02982 0.94034 0.30566 0.0
C98 C 0.0866 0.92235 0.37724 0.0
C99 C 0.07118 0.92452 0.46 0.0
C100 C 0.16412 0.85869 0.6786 0.0
C101 C 0.13189 0.82757 0.67741 0.0
H102 H 0.21948 0.9252 0.67209 0.0
C103 C 0.04786 0.98036 0.63327 0.0
C104 C 0.07031 0.05628 0.52722 0.0
C105 C 0.9125 0.10029 0.64112 0.0
C106 C 0.86816 0.12045 0.69653 0.0
C107 C 0.85012 0.14852 0.60832 0.0
C108 C 0.8855 0.12583 0.60097 0.0
C109 C 0.84149 0.14602 0.65571 0.0
C110 C 0.90363 0.09748 0.68868 0.0
C111 C 0.94995 0.07614 0.63437 0.0
H112 H 0.96627 0.95383 0.31962 0.0
H113 H 0.98941 0.94241 0.40906 0.0
H114 H 0.01885 0.9448 0.2665 0.0
H115 H 0.12022 0.9136 0.39336 0.0
H116 H 0.82949 0.16838 0.57721 0.0
H117 H 0.89183 0.12839 0.5641 0.0
H118 H 0.81439 0.16473 0.6604 0.0
H119 H 0.92428 0.07715 0.71948 0.0
C120 C 0.6433 0.54615 0.04938 0.0
C121 C 0.64189 0.6232 0.01642 0.0
C122 C 0.62268 0.58602 0.04044 0.0
C123 C 0.6812 0.61944 0.99934 0.0
C124 C 0.68397 0.54263 0.03456 0.0
C125 C 0.7021 0.57921 0.00817 0.0
N126 N 0.62522 0.5115 0.07568 0.0
C127 C 0.64902 0.47419 0.09405 0.0
C128 C 0.70611 0.50288 0.04863 0.0
C129 C 0.68904 0.46881 0.07953 0.0
Gd130 Gd 0.46646 0.47793 0.99515 0.0
Gd131 Gd 0.55561 0.52364 0.09352 0.0
N132 N 0.58416 0.58855 0.05635 0.0
C133 C 0.62127 0.6631 0.01101 0.0
C134 C 0.56505 0.62743 0.05365 0.0
C135 C 0.58303 0.66527 0.03036 0.0
H136 H 0.53541 0.62892 0.06848 0.0
H137 H 0.5673 0.69601 0.02714 0.0
H138 H 0.51756 0.38793 0.98511 0.0
H139 H 0.63756 0.4485 0.12032 0.0
H140 H 0.51399 0.30969 0.01547 0.0
H141 H 0.63498 0.69243 0.99271 0.0
H142 H 0.69625 0.64758 0.98032 0.0
H143 H 0.37019 0.51885 0.99915 0.0
H144 H 0.73738 0.4988 0.03794 0.0
H145 H 0.70701 0.43862 0.09287 0.0
H146 H 0.38264 0.29156 0.08526 0.0
H147 H 0.73302 0.577 0.99594 0.0
H148 H 0.29222 0.41698 0.06352 0.0
H149 H 0.30083 0.49399 0.02706 0.0
N150 N 0.39989 0.4567 0.01992 0.0
C151 C 0.39513 0.41412 0.03757 0.0
C152 C 0.36633 0.48523 0.01471 0.0
C153 C 0.32247 0.42773 0.05108 0.0
C154 C 0.32718 0.47123 0.03047 0.0
C155 C 0.35655 0.39848 0.05448 0.0
H156 H 0.32373 0.3416 0.08684 0.0
N157 N 0.46347 0.40233 0.01655 0.0
C158 C 0.42833 0.3861 0.03664 0.0
C159 C 0.45597 0.3138 0.04669 0.0
C160 C 0.42378 0.34143 0.05268 0.0
C161 C 0.49255 0.37535 0.00626 0.0
C162 C 0.49005 0.33083 0.02244 0.0
O163 O 0.53887 0.55847 0.01336 0.0
O164 O 0.53163 0.50128 0.97758 0.0
O165 O 0.44313 0.45271 0.93018 0.0
O166 O 0.43956 0.52103 0.92648 0.0
O167 O 0.48906 0.55502 0.07883 0.0
O168 O 0.45187 0.54536 1.00303 0.0
O169 O 0.45073 0.47736 0.07095 0.0
O170 O 0.51779 0.46441 0.11983 0.0
O171 O 0.53978 0.54595 0.15627 0.0
O172 O 0.6061 0.5292 0.15429 0.0
O173 O 0.53658 0.45418 0.0118 0.0
O174 O 0.55976 0.45268 0.09354 0.0
C175 C 0.54306 0.54101 0.97653 0.0
C176 C 0.45823 0.56539 0.03991 0.0
C177 C 0.38902 0.49291 0.86908 0.0
C178 C 0.34864 0.47996 0.79208 0.0
C179 C 0.31458 0.51976 0.84065 0.0
C180 C 0.35261 0.51514 0.87555 0.0
C181 C 0.31264 0.50262 0.79893 0.0
C182 C 0.38664 0.47495 0.8276 0.0
C183 C 0.43073 0.49023 0.90302 0.0
C184 C 0.38647 0.32575 0.07222 0.0
C185 C 0.35287 0.35423 0.07301 0.0
H186 H 0.45376 0.27928 0.0586 0.0
C187 C 0.47503 0.46281 0.11402 0.0
C188 C 0.55886 0.43603 0.0548 0.0
C189 C 0.58496 0.51677 0.23168 0.0
C190 C 0.59953 0.51759 0.31909 0.0
C191 C 0.59612 0.44973 0.29235 0.0
C192 C 0.58789 0.47178 0.24341 0.0
C193 C 0.60218 0.47232 0.32993 0.0
C194 C 0.59025 0.5395 0.26944 0.0
C195 C 0.57941 0.54035 0.18027 0.0
H196 H 0.28665 0.53708 0.84569 0.0
H197 H 0.35374 0.52944 0.90706 0.0
H198 H 0.28293 0.50677 0.77218 0.0
H199 H 0.41487 0.45815 0.82221 0.0
H200 H 0.59882 0.41501 0.3012 0.0
H201 H 0.5847 0.45384 0.21469 0.0
H202 H 0.61018 0.45422 0.36741 0.0
H203 H 0.58763 0.57427 0.25989 0.0
C204 C 0.26202 0.21923 0.46096 0.0
C205 C 0.24646 0.26164 0.45178 0.0
C206 C 0.23383 0.18454 0.47007 0.0
C207 C 0.189 0.19266 0.46927 0.0
C208 C 0.17291 0.23563 0.45765 0.0
C209 C 0.20198 0.26963 0.44963 0.0
C210 C 0.2524 0.13928 0.48304 0.0
C211 C 0.1253 0.24572 0.45565 0.0
C212 C 0.10822 0.10199 0.46364 0.0
C213 C 0.10161 0.09013 0.51252 0.0
C214 C 0.13662 0.13526 0.44892 0.0
C215 C 0.15955 0.15652 0.48414 0.0
C216 C 0.15361 0.14396 0.53377 0.0
C217 C 0.12445 0.11118 0.54726 0.0
C218 C 0.1414 0.14823 0.39555 0.0
C219 C 0.17788 0.16531 0.57266 0.0
H220 H 0.2966 0.21326 0.46324 0.0
H221 H 0.19018 0.30256 0.44286 0.0
H222 H 0.24962 0.12436 0.52163 0.0
H223 H 0.23357 0.11939 0.45956 0.0
H224 H 0.28723 0.13829 0.47886 0.0
H225 H 0.11723 0.28041 0.44101 0.0
H226 H 0.1045 0.22688 0.43239 0.0
H227 H 0.11687 0.2364 0.49305 0.0
H228 H 0.09034 0.08595 0.43664 0.0
H229 H 0.1197 0.10181 0.58517 0.0
H230 H 0.17611 0.14576 0.39168 0.0
H231 H 0.13084 0.1823 0.38079 0.0
H232 H 0.12184 0.12804 0.37288 0.0
H233 H 0.21351 0.16328 0.57299 0.0
H234 H 0.17109 0.15047 0.6099 0.0
H235 H 0.16852 0.19989 0.56418 0.0
C236 C 0.2829 0.73946 0.05686 0.0
C237 C 0.29185 0.78037 0.03086 0.0
C238 C 0.30918 0.70383 0.05806 0.0
C239 C 0.34558 0.70964 0.03336 0.0
C240 C 0.35516 0.75111 0.00779 0.0
C241 C 0.32785 0.786 0.00646 0.0
C242 C 0.29769 0.65995 0.08511 0.0
C243 C 0.39419 0.7586 0.98185 0.0
C244 C 0.43653 0.6258 0.07484 0.0
C245 C 0.42905 0.60216 0.03791 0.0
C246 C 0.40969 0.66091 0.07365 0.0
C247 C 0.37411 0.67242 0.03495 0.0
C248 C 0.36603 0.64863 0.99773 0.0
C249 C 0.39382 0.61393 0.99944 0.0
C250 C 0.41958 0.68586 0.1137 0.0
C251 C 0.32804 0.65981 0.95614 0.0
H252 H 0.25461 0.73519 0.0751 0.0
H253 H 0.33462 0.81779 0.98642 0.0
H254 H 0.29235 0.63773 0.0596 0.0
H255 H 0.32509 0.64636 0.1146 0.0
H256 H 0.2679 0.66087 0.10177 0.0
H257 H 0.39746 0.79299 0.96437 0.0
H258 H 0.42444 0.74764 0.00829 0.0
H259 H 0.39151 0.73949 0.95316 0.0
H260 H 0.46362 0.61713 0.10478 0.0
H261 H 0.38779 0.59604 0.97065 0.0
H262 H 0.39138 0.68494 0.13327 0.0
H263 H 0.42494 0.72007 0.09744 0.0
H264 H 0.44887 0.673 0.14091 0.0
H265 H 0.29713 0.65916 0.97099 0.0
H266 H 0.32557 0.63736 0.93086 0.0
H267 H 0.3314 0.69291 0.93476 0.0
C268 C 0.8049 0.74241 0.62866 0.0
C269 C 0.76187 0.75356 0.63011 0.0
C270 C 0.83629 0.77415 0.62028 0.0
C271 C 0.82392 0.81807 0.61176 0.0
C272 C 0.78047 0.82936 0.61371 0.0
C273 C 0.75004 0.79686 0.62343 0.0
C274 C 0.88249 0.76073 0.61967 0.0
C275 C 0.76575 0.87579 0.60379 0.0
C276 C 0.91121 0.90209 0.62293 0.0
C277 C 0.91739 0.91596 0.57412 0.0
C278 C 0.88121 0.86993 0.63586 0.0
C279 C 0.85598 0.85217 0.59884 0.0
C280 C 0.86163 0.86675 0.54932 0.0
C281 C 0.89271 0.89806 0.53765 0.0
C282 C 0.87702 0.85448 0.68918 0.0
C283 C 0.83471 0.84939 0.5086 0.0
H284 H 0.81383 0.7088 0.63378 0.0
H285 H 0.71655 0.80531 0.62407 0.0
H286 H 0.89053 0.772 0.58231 0.0
H287 H 0.90574 0.77585 0.64486 0.0
H288 H 0.88756 0.72531 0.63062 0.0
H289 H 0.7311 0.87916 0.6077 0.0
H290 H 0.78628 0.89275 0.62934 0.0
H291 H 0.76976 0.89214 0.566 0.0
H292 H 0.93065 0.91565 0.65121 0.0
H293 H 0.89729 0.90905 0.49982 0.0
H294 H 0.88425 0.81943 0.70084 0.0
H295 H 0.84308 0.85963 0.69432 0.0
H296 H 0.89941 0.87121 0.71354 0.0
H297 H 0.84117 0.81439 0.51433 0.0
H298 H 0.84181 0.8654 0.47183 0.0
H299 H 0.79948 0.85383 0.50904 0.0
C300 C 0.69152 0.22902 0.04181 0.0
C301 C 0.73527 0.23015 0.06331 0.0
C302 C 0.66222 0.26212 0.04132 0.0
C303 C 0.67751 0.29737 0.0619 0.0
C304 C 0.7219 0.29886 0.08301 0.0
C305 C 0.75023 0.26491 0.08388 0.0
C306 C 0.61491 0.25923 0.01922 0.0
C307 C 0.73953 0.33649 0.10414 0.0
C308 C 0.61121 0.40098 0.0178 0.0
C309 C 0.5894 0.40074 0.0573 0.0
C310 C 0.6405 0.36777 0.01915 0.0
C311 C 0.64721 0.33312 0.06053 0.0
C312 C 0.62502 0.33267 0.10047 0.0
C313 C 0.59666 0.36693 0.09862 0.0
C314 C 0.66434 0.36987 0.9764 0.0
C315 C 0.63095 0.29586 0.14485 0.0
H316 H 0.68012 0.2018 0.02633 0.0
H317 H 0.78424 0.26563 0.10024 0.0
H318 H 0.59388 0.26059 0.04693 0.0
H319 H 0.60548 0.28706 0.98816 0.0
H320 H 0.60813 0.2292 0.00572 0.0
H321 H 0.77467 0.33217 0.12023 0.0
H322 H 0.73521 0.36633 0.07496 0.0
H323 H 0.72108 0.34117 0.13298 0.0
H324 H 0.60586 0.42758 0.98611 0.0
H325 H 0.57949 0.36692 0.12896 0.0
H326 H 0.65606 0.34181 0.95961 0.0
H327 H 0.70007 0.36839 0.98938 0.0
H328 H 0.65621 0.3997 0.94762 0.0
H329 H 0.62203 0.26528 0.13342 0.0
H330 H 0.61078 0.30017 0.17242 0.0
H331 H 0.66568 0.29271 0.16254 0.0
C332 C 0.23202 0.88213 0.14436 0.0
C333 C 0.20373 0.86834 0.10717 0.0
C334 C 0.21607 0.8925 0.18408 0.0
C335 C 0.17109 0.88801 0.18672 0.0
C336 C 0.14281 0.87269 0.14988 0.0
C337 C 0.15946 0.86344 0.11027 0.0
C338 C 0.24693 0.90941 0.22231 0.0
C339 C 0.0948 0.8667 0.15183 0.0
C340 C 0.12512 0.88024 0.3039 0.0
C341 C 0.10391 0.92029 0.29454 0.0
C342 C 0.14927 0.8699 0.2702 0.0
C343 C 0.15268 0.90071 0.22674 0.0
C344 C 0.13369 0.94222 0.21887 0.0
C345 C 0.10906 0.95137 0.25269 0.0
C346 C 0.16848 0.82511 0.27949 0.0
C347 C 0.13731 0.97619 0.17341 0.0
H348 H 0.26627 0.88595 0.14156 0.0
H349 H 0.13784 0.85238 0.08149 0.0
H350 H 0.23724 0.94287 0.22175 0.0
H351 H 0.24506 0.88997 0.25948 0.0
H352 H 0.28125 0.90913 0.21612 0.0
H353 H 0.07789 0.85212 0.12175 0.0
H354 H 0.09028 0.84585 0.18744 0.0
H355 H 0.07887 0.89821 0.14905 0.0
H356 H 0.12082 0.85619 0.33624 0.0
H357 H 0.09287 0.98248 0.24587 0.0
H358 H 0.20279 0.82629 0.27329 0.0
H359 H 0.14991 0.80741 0.2533 0.0
H360 H 0.16738 0.80674 0.3174 0.0
H361 H 0.17159 0.97866 0.16702 0.0
H362 H 0.12573 0.00826 0.17595 0.0
H363 H 0.11748 0.96708 0.14097 0.0
C364 C 0.61092 0.658 0.7225 0.0
C365 C 0.65567 0.66614 0.72565 0.0
C366 C 0.59265 0.64109 0.76462 0.0
C367 C 0.61969 0.63217 0.81121 0.0
C368 C 0.66451 0.64206 0.81493 0.0
C369 C 0.68197 0.65896 0.77212 0.0
C370 C 0.54467 0.63112 0.75902 0.0
C371 C 0.69429 0.63347 0.86398 0.0
C372 C 0.56332 0.60976 0.92357 0.0
C373 C 0.56353 0.56475 0.93525 0.0
C374 C 0.58247 0.63231 0.88409 0.0
C375 C 0.60168 0.60921 0.85523 0.0
C376 C 0.60217 0.5637 0.86717 0.0
C377 C 0.58312 0.54207 0.90698 0.0
C378 C 0.58167 0.68079 0.87295 0.0
C379 C 0.62239 0.53776 0.8375 0.0
H380 H 0.59022 0.66418 0.68684 0.0
H381 H 0.71661 0.66491 0.77493 0.0
H382 H 0.54053 0.59589 0.76987 0.0
H383 H 0.52875 0.64614 0.78367 0.0
H384 H 0.52755 0.64261 0.72075 0.0
H385 H 0.7284 0.64284 0.8607 0.0
H386 H 0.68222 0.6516 0.88856 0.0
H387 H 0.69417 0.59885 0.88181 0.0
H388 H 0.54765 0.62738 0.9449 0.0
H389 H 0.58364 0.50723 0.91602 0.0
H390 H 0.56388 0.69349 0.83529 0.0
H391 H 0.61541 0.69281 0.87425 0.0
H392 H 0.56588 0.6939 0.89924 0.0
H393 H 0.6051 0.5451 0.799 0.0
H394 H 0.6211 0.5026 0.85239 0.0
H395 H 0.65694 0.54664 0.83679 0.0
C396 C 0.87993 0.09833 0.17254 0.0
C397 C 0.83653 0.11322 0.16452 0.0
C398 C 0.90155 0.0801 0.22006 0.0
C399 C 0.87976 0.07803 0.26057 0.0
C400 C 0.83568 0.09168 0.25272 0.0
C401 C 0.81436 0.10811 0.20478 0.0
C402 C 0.94819 0.06437 0.22711 0.0
C403 C 0.81162 0.09093 0.2951 0.0
C404 C 0.92413 0.00806 0.38517 0.0
C405 C 0.94863 0.03752 0.40809 0.0
C406 C 0.90227 0.02051 0.3367 0.0
C407 C 0.90368 0.06383 0.31137 0.0
C408 C 0.92723 0.09403 0.33495 0.0
C409 C 0.94997 0.08034 0.38277 0.0
C410 C 0.87766 0.98736 0.31266 0.0
C411 C 0.92803 0.1409 0.30989 0.0
H412 H 0.89762 0.10221 0.14204 0.0
H413 H 0.78041 0.11803 0.19906 0.0
H414 H 0.97003 0.08526 0.24657 0.0
H415 H 0.952 0.0313 0.25024 0.0
H416 H 0.95906 0.06432 0.19169 0.0
H417 H 0.77693 0.10135 0.28263 0.0
H418 H 0.81287 0.05821 0.31881 0.0
H419 H 0.8277 0.11259 0.31817 0.0
H420 H 0.92178 0.97526 0.40518 0.0
H421 H 0.96882 0.10327 0.40037 0.0
H422 H 0.88796 0.98775 0.27688 0.0
H423 H 0.84224 0.99513 0.30518 0.0
H424 H 0.88292 0.95439 0.33591 0.0
H425 H 0.942 0.14434 0.27571 0.0
H426 H 0.94743 0.16029 0.33368 0.0
H427 H 0.89427 0.15437 0.2994 0.0
C428 C 0.36259 0.38647 0.5522 0.0
C429 C 0.32132 0.37201 0.5347 0.0
C430 C 0.36925 0.40532 0.59332 0.0
C431 C 0.33408 0.40901 0.61827 0.0
C432 C 0.29243 0.39458 0.60083 0.0
C433 C 0.28644 0.37692 0.55901 0.0
C434 C 0.41398 0.42108 0.61024 0.0
C435 C 0.25413 0.39743 0.62662 0.0
C436 C 0.35673 0.41867 0.75176 0.0
C437 C 0.34672 0.46215 0.74755 0.0
C438 C 0.35332 0.40103 0.70995 0.0
C439 C 0.34056 0.42777 0.66277 0.0
C440 C 0.33174 0.47203 0.65834 0.0
C441 C 0.33443 0.48857 0.70082 0.0
C442 C 0.36212 0.35354 0.71636 0.0
C443 C 0.31899 0.50182 0.60873 0.0
H444 H 0.38996 0.38247 0.53429 0.0
H445 H 0.25415 0.36698 0.5453 0.0
H446 H 0.41189 0.45536 0.61214 0.0
H447 H 0.42709 0.4027 0.64772 0.0
H448 H 0.43736 0.41779 0.58551 0.0
H449 H 0.22417 0.38358 0.60925 0.0
H450 H 0.26209 0.38013 0.66557 0.0
H451 H 0.24711 0.43147 0.62635 0.0
H452 H 0.36604 0.3982 0.78793 0.0
H453 H 0.32718 0.52232 0.69755 0.0
H454 H 0.38762 0.34829 0.69502 0.0
H455 H 0.33212 0.33797 0.70191 0.0
H456 H 0.37285 0.3374 0.75541 0.0
H457 H 0.34341 0.49937 0.58495 0.0
H458 H 0.31621 0.53587 0.61143 0.0
H459 H 0.2872 0.49225 0.59036 0.0
C460 C 0.62791 0.65537 0.52941 0.0
C461 C 0.6693 0.64687 0.55806 0.0
C462 C 0.6148 0.63574 0.48963 0.0
C463 C 0.64344 0.60611 0.47926 0.0
C464 C 0.68511 0.59704 0.50875 0.0
C465 C 0.69777 0.61802 0.54747 0.0
C466 C 0.57059 0.64708 0.45836 0.0
C467 C 0.71621 0.56498 0.49961 0.0
C468 C 0.59617 0.52496 0.40526 0.0
C469 C 0.60844 0.54166 0.35935 0.0
C470 C 0.60716 0.54565 0.44449 0.0
C471 C 0.63001 0.58467 0.43748 0.0
C472 C 0.64117 0.60256 0.39091 0.0
C473 C 0.63078 0.58062 0.35268 0.0
C474 C 0.59515 0.52523 0.49379 0.0
C475 C 0.6648 0.64456 0.38167 0.0
H476 H 0.60613 0.67796 0.5377 0.0
H477 H 0.72971 0.61148 0.56997 0.0
H478 H 0.57439 0.65998 0.41962 0.0
H479 H 0.55065 0.61786 0.45917 0.0
H480 H 0.55256 0.6713 0.47081 0.0
H481 H 0.74681 0.56057 0.52684 0.0
H482 H 0.70036 0.53339 0.50108 0.0
H483 H 0.72467 0.57574 0.46239 0.0
H484 H 0.57811 0.49544 0.41076 0.0
H485 H 0.6412 0.59364 0.31786 0.0
H486 H 0.57452 0.54774 0.50559 0.0
H487 H 0.6251 0.51828 0.52181 0.0
H488 H 0.57731 0.49483 0.4932 0.0
H489 H 0.64712 0.66979 0.39278 0.0
H490 H 0.66823 0.65576 0.34251 0.0
H491 H 0.69782 0.64083 0.40422 0.0
C492 C 0.81957 0.09966 0.97258 0.0
C493 C 0.81469 0.14161 0.97903 0.0
C494 C 0.82939 0.09228 0.9283 0.0
C495 C 0.83419 0.12768 0.88962 0.0
C496 C 0.82987 0.17003 0.89621 0.0
C497 C 0.82049 0.17644 0.94084 0.0
C498 C 0.83415 0.04668 0.92269 0.0
C499 C 0.83475 0.20869 0.85592 0.0
C500 C 0.89422 0.11931 0.78567 0.0
C501 C 0.85959 0.11866 0.74713 0.0
C502 C 0.8865 0.1202 0.8329 0.0
C503 C 0.84308 0.12095 0.84173 0.0
C504 C 0.80801 0.119 0.80345 0.0
C505 C 0.81669 0.11769 0.75671 0.0
C506 C 0.92478 0.12203 0.87284 0.0
C507 C 0.76124 0.11988 0.81137 0.0
H508 H 0.81493 0.0726 1.00179 0.0
H509 H 0.81782 0.20896 0.94589 0.0
H510 H 0.80883 0.04041 0.89265 0.0
H511 H 0.86632 0.04187 0.9124 0.0
H512 H 0.83112 0.02274 0.95685 0.0
H513 H 0.83042 0.23949 0.86699 0.0
H514 H 0.86748 0.20805 0.8454 0.0
H515 H 0.81033 0.20779 0.82281 0.0
H516 H 0.92746 0.12053 0.77861 0.0
H517 H 0.78976 0.11633 0.72745 0.0
H518 H 0.92176 0.09745 0.90643 0.0
H519 H 0.92511 0.15389 0.88261 0.0
H520 H 0.95642 0.11681 0.86146 0.0
H521 H 0.75619 0.09443 0.84344 0.0
H522 H 0.73784 0.11531 0.77881 0.0
H523 H 0.75367 0.15118 0.81953 0.0
C524 C 0.36041 0.33505 0.33693 0.0
C525 C 0.35004 0.36281 0.36601 0.0
C526 C 0.3803 0.35022 0.29543 0.0
C527 C 0.39169 0.39395 0.28339 0.0
C528 C 0.38223 0.42201 0.31291 0.0
C529 C 0.36084 0.40639 0.35306 0.0
C530 C 0.38919 0.31938 0.26442 0.0
C531 C 0.39464 0.4687 0.302 0.0
C532 C 0.47872 0.42495 0.2024 0.0
C533 C 0.45372 0.44441 0.15716 0.0
C534 C 0.45909 0.40844 0.24374 0.0
C535 C 0.41312 0.41057 0.23965 0.0
C536 C 0.38763 0.42947 0.1939 0.0
C537 C 0.40826 0.4467 0.15359 0.0
C538 C 0.48777 0.38983 0.29206 0.0
C539 C 0.33848 0.43129 0.18738 0.0
H540 H 0.35336 0.3012 0.34665 0.0
H541 H 0.35222 0.42874 0.37393 0.0
H542 H 0.37379 0.33177 0.22568 0.0
H543 H 0.42478 0.31667 0.26498 0.0
H544 H 0.37669 0.28678 0.27739 0.0
H545 H 0.38702 0.48585 0.32989 0.0
H546 H 0.43005 0.47126 0.3006 0.0
H547 H 0.37703 0.48524 0.26551 0.0
H548 H 0.5138 0.42273 0.2057 0.0
H549 H 0.38864 0.46237 0.11935 0.0
H550 H 0.47498 0.35894 0.31032 0.0
H551 H 0.48807 0.41243 0.31687 0.0
H552 H 0.52186 0.38435 0.28751 0.0
H553 H 0.32585 0.39813 0.19386 0.0
H554 H 0.32346 0.44876 0.15007 0.0
H555 H 0.32777 0.44728 0.21464 0.0
C556 C 0.21009 0.90146 0.88437 0.0
C557 C 0.18852 0.89393 0.92515 0.0
C558 C 0.1874 0.91756 0.83691 0.0
C559 C 0.14237 0.92753 0.83028 0.0
C560 C 0.12079 0.92193 0.87131 0.0
C561 C 0.14394 0.90459 0.91814 0.0
C562 C 0.21123 0.92246 0.79374 0.0
C563 C 0.07288 0.93292 0.8656 0.0
C564 C 0.0907 0.99797 0.70895 0.0
C565 C 0.07043 0.96733 0.68441 0.0
C566 C 0.11385 0.98557 0.75681 0.0
C567 C 0.11724 0.94149 0.78017 0.0
C568 C 0.09641 0.91051 0.75578 0.0
C569 C 0.07266 0.92392 0.70848 0.0
C570 C 0.13481 0.01952 0.7823 0.0
C571 C 0.09977 0.86311 0.7793 0.0
H572 H 0.24466 0.89416 0.8894 0.0
H573 H 0.12659 0.89818 0.94903 0.0
H574 H 0.19701 0.9008 0.7697 0.0
H575 H 0.20718 0.95576 0.77136 0.0
H576 H 0.24662 0.91473 0.80526 0.0
H577 H 0.06202 0.93056 0.90152 0.0
H578 H 0.06578 0.966 0.84332 0.0
H579 H 0.05327 0.91073 0.84586 0.0
H580 H 0.08887 0.03165 0.69064 0.0
H581 H 0.05605 0.90025 0.69024 0.0
H582 H 0.17066 0.01413 0.79095 0.0
H583 H 0.12297 0.01727 0.81762 0.0
H584 H 0.12783 0.05253 0.75964 0.0
H585 H 0.13439 0.8522 0.78654 0.0
H586 H 0.08053 0.84335 0.75586 0.0
H587 H 0.08817 0.85705 0.81511 0.0
loop_
_geom_bond_atom_site_label_1
_geom_bond_atom_site_label_2
_geom_bond_distance
_geom_bond_site_symmetry_2
_ccdc_geom_bond_type
H0 C3 0.931 . S
H1 C6 0.928 . S
H2 C8 0.930 . S
C3 H0 0.931 . S
C3 C4 1.413 1_554 S
C3 C5 1.360 . S
C4 C3 1.413 1_556 S
C4 C8 1.429 . S
C5 C3 1.360 . S
C5 C6 1.372 . S
C6 H1 0.928 . S
C6 C5 1.372 . S
C6 C7 1.404 . S
C7 C6 1.404 . S
C7 C8 1.391 1_554 S
C8 H2 0.930 . S
C8 C4 1.429 . S
C8 C7 1.391 1_556 S
H9 C12 0.931 . S
H10 C15 0.928 . S
H11 C17 0.930 . S
C12 H9 0.931 . S
C12 C13 1.413 . S
C12 C14 1.360 . S
C13 C12 1.413 . S
C13 C17 1.429 . S
C14 C12 1.360 . S
C14 C15 1.372 . S
C15 H10 0.928 . S
C15 C14 1.372 . S
C15 C16 1.404 . S
C16 C15 1.404 . S
C16 C17 1.391 . S
C17 H11 0.930 . S
C17 C13 1.429 . S
C17 C16 1.391 . S
H18 C21 0.931 . S
H19 C24 0.928 . S
H20 C26 0.930 1_556 S
C21 H18 0.931 . S
C21 C22 1.413 . S
C21 C23 1.360 . S
C22 C21 1.413 . S
C22 C26 1.429 . S
C23 C21 1.360 . S
C23 C24 1.372 . S
C24 H19 0.928 . S
C24 C23 1.372 . S
C24 C25 1.404 . S
C25 C24 1.404 . S
C25 C26 1.391 . S
C26 H20 0.930 1_554 S
C26 C22 1.429 . S
C26 C25 1.391 . S
H27 C30 0.931 . S
H28 C33 0.928 . S
H29 C35 0.930 . S
C30 H27 0.931 . S
C30 C31 1.413 . S
C30 C32 1.360 . S
C31 C30 1.413 . S
C31 C35 1.429 . S
C32 C30 1.360 . S
C32 C33 1.372 . S
C33 H28 0.928 . S
C33 C32 1.372 . S
C33 C34 1.404 . S
C34 C33 1.404 . S
C34 C35 1.391 . S
C35 H29 0.930 . S
C35 C31 1.429 . S
C35 C34 1.391 . S
C36 C38 1.422 . S
C36 C40 1.415 . S
C36 N42 1.369 . S
C37 C38 1.421 . S
C37 C39 1.417 . S
C37 C49 1.422 . S
C38 C36 1.422 . S
C38 C37 1.421 . S
C38 N48 1.359 . S
C39 C37 1.417 . S
C39 C41 1.329 . S
C39 H58 0.930 . S
C40 C36 1.415 . S
C40 C41 1.437 . S
C40 C44 1.413 . S
C41 C39 1.329 . S
C41 C40 1.437 . S
C41 H63 0.929 . S
N42 C36 1.369 . S
N42 C43 1.338 . S
N42 Gd47 2.622 . S
C43 N42 1.338 . S
C43 C45 1.378 . S
C43 H55 0.929 1_655 S
C44 C40 1.413 . S
C44 C45 1.348 . S
C44 H60 0.931 . S
C45 C43 1.378 . S
C45 C44 1.348 . S
C45 H61 0.930 1_655 S
Gd46 N66 2.622 . S
Gd46 N73 2.570 . S
Gd46 O80 2.346 1_465 S
Gd46 O81 2.468 . S
Gd46 O82 2.427 . S
Gd46 O84 2.388 1_455 S
Gd46 O85 2.386 . S
Gd46 O89 2.307 1_565 S
Gd46 C99 2.805 . S
Gd47 N42 2.622 . S
Gd47 N48 2.570 . S
Gd47 O79 2.386 . S
Gd47 O83 2.307 1_545 S
Gd47 O86 2.353 1_655 S
Gd47 O87 2.468 . S
Gd47 O88 2.427 . S
Gd47 O90 2.388 1_655 S
Gd47 C111 2.805 . S
N48 C38 1.359 . S
N48 Gd47 2.570 . S
N48 C50 1.343 . S
C49 C37 1.422 . S
C49 C51 1.321 . S
C49 H57 0.931 . S
C50 N48 1.343 . S
C50 C51 1.390 . S
C50 H52 0.931 . S
C51 C49 1.321 . S
C51 C50 1.390 . S
C51 H53 0.930 . S
H52 C50 0.931 . S
H53 C51 0.930 . S
H54 C77 0.931 . S
H55 C43 0.929 1_455 S
H56 C78 0.930 . S
H57 C49 0.931 . S
H58 C39 0.930 . S
H59 C68 0.929 1_655 S
H60 C44 0.931 . S
H61 C45 0.930 1_455 S
H62 C100 0.930 . S
H63 C41 0.929 . S
H64 C69 0.931 . S
H65 C70 0.930 1_655 S
N66 Gd46 2.622 . S
N66 C67 1.369 . S
N66 C68 1.338 . S
C67 N66 1.369 . S
C67 C71 1.415 . S
C67 C74 1.422 . S
C68 H59 0.929 1_455 S
C68 N66 1.338 . S
C68 C70 1.378 . S
C69 H64 0.931 . S
C69 C70 1.348 . S
C69 C71 1.413 . S
C70 H65 0.930 1_455 S
C70 C68 1.378 . S
C70 C69 1.348 . S
C71 C67 1.415 . S
C71 C69 1.413 . S
C71 C101 1.437 . S
H72 C101 0.929 . S
N73 Gd46 2.570 . S
N73 C74 1.359 . S
N73 C77 1.343 . S
C74 C67 1.422 . S
C74 N73 1.359 . S
C74 C76 1.421 . S
C75 C76 1.422 . S
C75 C78 1.321 . S
C75 H102 0.931 . S
C76 C74 1.421 . S
C76 C75 1.422 . S
C76 C100 1.417 . S
C77 H54 0.931 . S
C77 N73 1.343 . S
C77 C78 1.390 . S
C78 H56 0.930 . S
C78 C75 1.321 . S
C78 C77 1.390 . S
O79 Gd47 2.386 . S
O79 C91 1.265 . S
O80 Gd46 2.346 1_645 S
O80 C91 1.253 . S
O81 Gd46 2.468 . S
O81 C99 1.263 . S
O82 Gd46 2.427 . S
O82 C99 1.252 . S
O83 Gd47 2.307 1_565 S
O83 C92 1.261 . S
O84 Gd46 2.388 1_655 S
O84 C92 1.252 . S
O85 Gd46 2.386 . S
O85 C103 1.265 . S
O86 Gd47 2.353 1_455 S
O86 C103 1.242 1_545 S
O87 Gd47 2.468 . S
O87 C111 1.263 . S
O88 Gd47 2.427 . S
O88 C111 1.252 . S
O89 Gd46 2.307 1_545 S
O89 C104 1.261 . S
O90 Gd47 2.388 1_455 S
O90 C104 1.252 . S
C91 O79 1.265 . S
C91 O80 1.253 . S
C92 O83 1.261 . S
C92 O84 1.252 . S
C93 C96 1.394 . S
C93 C98 1.370 . S
C93 C99 1.500 . S
C94 C97 1.383 . S
C94 C98 1.395 . S
C95 C96 1.396 . S
C95 C97 1.365 . S
C95 H112 0.929 . S
C96 C93 1.394 . S
C96 C95 1.396 . S
C96 H113 0.930 . S
C97 C94 1.383 . S
C97 C95 1.365 . S
C97 H114 0.931 . S
C98 C93 1.370 . S
C98 C94 1.395 . S
C98 H115 0.930 . S
C99 Gd46 2.805 . S
C99 O81 1.263 . S
C99 O82 1.252 . S
C99 C93 1.500 . S
C100 H62 0.930 . S
C100 C76 1.417 . S
C100 C101 1.329 . S
C101 C71 1.437 . S
C101 H72 0.929 . S
C101 C100 1.329 . S
H102 C75 0.931 . S
C103 O85 1.265 . S
C103 O86 1.242 1_565 S
C104 O89 1.261 . S
C104 O90 1.252 . S
C105 C108 1.394 . S
C105 C110 1.370 . S
C105 C111 1.500 . S
C106 C109 1.383 . S
C106 C110 1.395 . S
C107 C108 1.396 . S
C107 C109 1.365 . S
C107 H116 0.929 . S
C108 C105 1.394 . S
C108 C107 1.396 . S
C108 H117 0.930 . S
C109 C106 1.383 . S
C109 C107 1.365 . S
C109 H118 0.931 . S
C110 C105 1.370 . S
C110 C106 1.395 . S
C110 H119 0.930 . S
C111 Gd47 2.805 . S
C111 O87 1.263 . S
C111 O88 1.252 . S
C111 C105 1.500 . S
H112 C95 0.929 . S
H113 C96 0.930 . S
H114 C97 0.931 . S
H115 C98 0.930 . S
H116 C107 0.929 . S
H117 C108 0.930 . S
H118 C109 0.931 . S
H119 C110 0.930 . S
C120 C122 1.422 . S
C120 C124 1.415 . S
C120 N126 1.369 . S
C121 C122 1.421 . S
C121 C123 1.417 . S
C121 C133 1.422 . S
C122 C120 1.422 . S
C122 C121 1.421 . S
C122 N132 1.359 . S
C123 C121 1.417 . S
C123 C125 1.329 . S
C123 H142 0.930 . S
C124 C120 1.415 . S
C124 C125 1.437 . S
C124 C128 1.413 . S
C125 C123 1.329 . S
C125 C124 1.437 . S
C125 H147 0.929 . S
N126 C120 1.369 . S
N126 C127 1.338 . S
N126 Gd131 2.622 . S
C127 N126 1.338 . S
C127 C129 1.378 . S
C127 H139 0.929 . S
C128 C124 1.413 . S
C128 C129 1.348 . S
C128 H144 0.931 . S
C129 C127 1.378 . S
C129 C128 1.348 . S
C129 H145 0.930 . S
Gd130 N150 2.623 . S
Gd130 N157 2.570 1_556 S
Gd130 O164 2.353 . S
Gd130 O165 2.468 . S
Gd130 O166 2.427 . S
Gd130 O168 2.388 1_556 S
Gd130 O169 2.386 1_556 S
Gd130 O173 2.307 1_556 S
Gd130 C183 2.805 . S
Gd131 N126 2.622 . S
Gd131 N132 2.570 . S
Gd131 O163 2.386 . S
Gd131 O167 2.307 . S
Gd131 O170 2.353 . S
Gd131 O171 2.468 . S
Gd131 O172 2.427 . S
Gd131 O174 2.388 . S
Gd131 C195 2.805 . S
N132 C122 1.359 . S
N132 Gd131 2.570 . S
N132 C134 1.343 . S
C133 C121 1.422 . S
C133 C135 1.321 . S
C133 H141 0.931 . S
C134 N132 1.343 . S
C134 C135 1.390 . S
C134 H136 0.931 . S
C135 C133 1.321 . S
C135 C134 1.390 . S
C135 H137 0.930 . S
H136 C134 0.931 . S
H137 C135 0.930 . S
H138 C161 0.931 . S
H139 C127 0.929 . S
H140 C162 0.930 . S
H141 C133 0.931 . S
H142 C123 0.930 . S
H143 C152 0.929 . S
H144 C128 0.931 . S
H145 C129 0.930 . S
H146 C184 0.930 . S
H147 C125 0.929 . S
H148 C153 0.931 . S
H149 C154 0.930 . S
N150 Gd130 2.623 . S
N150 C151 1.367 1_556 S
N150 C152 1.337 . S
C151 N150 1.367 1_554 S
C151 C155 1.415 . S
C151 C158 1.422 . S
C152 H143 0.929 . S
C152 N150 1.337 . S
C152 C154 1.378 . S
C153 H148 0.931 . S
C153 C154 1.348 1_554 S
C153 C155 1.413 . S
C154 H149 0.930 . S
C154 C152 1.378 . S
C154 C153 1.348 1_556 S
C155 C151 1.415 . S
C155 C153 1.413 . S
C155 C185 1.437 . S
H156 C185 0.929 . S
N157 Gd130 2.570 1_554 S
N157 C158 1.359 . S
N157 C161 1.343 . S
C158 C151 1.422 . S
C158 N157 1.359 . S
C158 C160 1.421 . S
C159 C160 1.422 . S
C159 C162 1.321 . S
C159 H186 0.931 . S
C160 C158 1.421 . S
C160 C159 1.422 . S
C160 C184 1.417 . S
C161 H138 0.931 . S
C161 N157 1.343 . S
C161 C162 1.390 . S
C162 H140 0.930 . S
C162 C159 1.321 . S
C162 C161 1.390 . S
O163 Gd131 2.386 . S
O163 C175 1.265 1_554 S
O164 Gd130 2.353 . S
O164 C175 1.242 . S
O165 Gd130 2.468 . S
O165 C183 1.263 . S
O166 Gd130 2.427 . S
O166 C183 1.252 . S
O167 Gd131 2.307 . S
O167 C176 1.261 . S
O168 Gd130 2.388 1_554 S
O168 C176 1.252 . S
O169 Gd130 2.386 1_554 S
O169 C187 1.265 . S
O170 Gd131 2.353 . S
O170 C187 1.242 . S
O171 Gd131 2.468 . S
O171 C195 1.263 . S
O172 Gd131 2.427 . S
O172 C195 1.252 . S
O173 Gd130 2.307 1_554 S
O173 C188 1.261 . S
O174 Gd131 2.388 . S
O174 C188 1.252 . S
C175 O163 1.265 1_556 S
C175 O164 1.242 . S
C176 O167 1.261 . S
C176 O168 1.252 . S
C177 C180 1.394 . S
C177 C182 1.370 . S
C177 C183 1.500 . S
C178 C181 1.383 . S
C178 C182 1.395 . S
C179 C180 1.396 . S
C179 C181 1.365 . S
C179 H196 0.929 . S
C180 C177 1.394 . S
C180 C179 1.396 . S
C180 H197 0.930 . S
C181 C178 1.383 . S
C181 C179 1.365 . S
C181 H198 0.931 . S
C182 C177 1.370 . S
C182 C178 1.395 . S
C182 H199 0.930 . S
C183 Gd130 2.805 . S
C183 O165 1.263 . S
C183 O166 1.252 . S
C183 C177 1.500 . S
C184 H146 0.930 . S
C184 C160 1.417 . S
C184 C185 1.329 . S
C185 C155 1.437 . S
C185 H156 0.929 . S
C185 C184 1.329 . S
H186 C159 0.931 . S
C187 O169 1.265 . S
C187 O170 1.242 . S
C188 O173 1.261 . S
C188 O174 1.252 . S
C189 C192 1.394 . S
C189 C194 1.370 . S
C189 C195 1.500 . S
C190 C193 1.383 . S
C190 C194 1.395 . S
C191 C192 1.396 . S
C191 C193 1.365 . S
C191 H200 0.929 . S
C192 C189 1.394 . S
C192 C191 1.396 . S
C192 H201 0.930 . S
C193 C190 1.383 . S
C193 C191 1.365 . S
C193 H202 0.931 . S
C194 C189 1.370 . S
C194 C190 1.395 . S
C194 H203 0.930 . S
C195 Gd131 2.805 . S
C195 O171 1.263 . S
C195 O172 1.252 . S
C195 C189 1.500 . S
H196 C179 0.929 . S
H197 C180 0.930 . S
H198 C181 0.931 . S
H199 C182 0.930 . S
H200 C191 0.929 . S
H201 C192 0.930 . S
H202 C193 0.931 . S
H203 C194 0.930 . S
C204 C205 1.391 . S
C204 C206 1.394 . S
C204 H220 0.931 . S
C205 C204 1.391 . S
C205 C209 1.376 . S
C206 C204 1.394 . S
C206 C207 1.369 . S
C206 C210 1.531 . S
C207 C206 1.369 . S
C207 C208 1.410 . S
C207 C215 1.503 . S
C208 C207 1.410 . S
C208 C209 1.392 . S
C208 C211 1.511 . S
C209 C205 1.376 . S
C209 C208 1.392 . S
C209 H221 0.929 . S
C210 C206 1.531 . S
C210 H222 0.960 . S
C210 H223 0.962 . S
C210 H224 0.960 . S
C211 C208 1.511 . S
C211 H225 0.961 . S
C211 H226 0.961 . S
C211 H227 0.961 . S
C212 C213 1.370 . S
C212 C214 1.363 . S
C212 H228 0.931 . S
C213 C212 1.370 . S
C213 C217 1.408 . S
C214 C212 1.363 . S
C214 C215 1.370 . S
C214 C218 1.524 . S
C215 C207 1.503 . S
C215 C214 1.370 . S
C215 C216 1.403 . S
C216 C215 1.403 . S
C216 C217 1.404 . S
C216 C219 1.539 . S
C217 C213 1.408 . S
C217 C216 1.404 . S
C217 H229 0.930 . S
C218 C214 1.524 . S
C218 H230 0.956 . S
C218 H231 0.961 . S
C218 H232 0.961 . S
C219 C216 1.539 . S
C219 H233 0.958 . S
C219 H234 0.961 . S
C219 H235 0.960 . S
H220 C204 0.931 . S
H221 C209 0.929 . S
H222 C210 0.960 . S
H223 C210 0.962 . S
H224 C210 0.960 . S
H225 C211 0.961 . S
H226 C211 0.961 . S
H227 C211 0.961 . S
H228 C212 0.931 . S
H229 C217 0.930 . S
H230 C218 0.956 . S
H231 C218 0.961 . S
H232 C218 0.961 . S
H233 C219 0.958 . S
H234 C219 0.961 . S
H235 C219 0.960 . S
C236 C237 1.391 . S
C236 C238 1.394 . S
C236 H252 0.931 . S
C237 C236 1.391 . S
C237 C241 1.376 . S
C238 C236 1.394 . S
C238 C239 1.369 . S
C238 C242 1.531 1_554 S
C239 C238 1.369 . S
C239 C240 1.410 . S
C239 C247 1.503 . S
C240 C239 1.410 . S
C240 C241 1.392 . S
C240 C243 1.511 . S
C241 C237 1.376 . S
C241 C240 1.392 . S
C241 H253 0.929 . S
C242 C238 1.531 1_556 S
C242 H254 0.960 . S
C242 H255 0.962 1_556 S
C242 H256 0.960 . S
C243 C240 1.511 . S
C243 H257 0.961 . S
C243 H258 0.961 . S
C243 H259 0.961 . S
C244 C245 1.370 . S
C244 C246 1.363 . S
C244 H260 0.931 . S
C245 C244 1.370 . S
C245 C249 1.408 1_554 S
C246 C244 1.363 . S
C246 C247 1.370 . S
C246 C250 1.524 . S
C247 C239 1.503 . S
C247 C246 1.370 . S
C247 C248 1.403 1_554 S
C248 C247 1.403 1_556 S
C248 C249 1.404 . S
C248 C251 1.539 . S
C249 C245 1.408 1_556 S
C249 C248 1.404 . S
C249 H261 0.930 . S
C250 C246 1.524 . S
C250 H262 0.956 . S
C250 H263 0.961 . S
C250 H264 0.961 . S
C251 C248 1.539 . S
C251 H265 0.958 . S
C251 H266 0.961 . S
C251 H267 0.960 . S
H252 C236 0.931 . S
H253 C241 0.929 . S
H254 C242 0.960 . S
H255 C242 0.962 1_554 S
H256 C242 0.960 . S
H257 C243 0.961 . S
H258 C243 0.961 . S
H259 C243 0.961 . S
H260 C244 0.931 . S
H261 C249 0.930 . S
H262 C250 0.956 . S
H263 C250 0.961 . S
H264 C250 0.961 . S
H265 C251 0.958 . S
H266 C251 0.961 . S
H267 C251 0.960 . S
C268 C269 1.391 . S
C268 C270 1.394 . S
C268 H284 0.931 . S
C269 C268 1.391 . S
C269 C273 1.376 . S
C270 C268 1.394 . S
C270 C271 1.369 . S
C270 C274 1.531 . S
C271 C270 1.369 . S
C271 C272 1.410 . S
C271 C279 1.503 . S
C272 C271 1.410 . S
C272 C273 1.392 . S
C272 C275 1.511 . S
C273 C269 1.376 . S
C273 C272 1.392 . S
C273 H285 0.929 . S
C274 C270 1.531 . S
C274 H286 0.960 . S
C274 H287 0.962 . S
C274 H288 0.960 . S
C275 C272 1.511 . S
C275 H289 0.961 . S
C275 H290 0.961 . S
C275 H291 0.961 . S
C276 C277 1.370 . S
C276 C278 1.363 . S
C276 H292 0.931 . S
C277 C276 1.370 . S
C277 C281 1.408 . S
C278 C276 1.363 . S
C278 C279 1.370 . S
C278 C282 1.524 . S
C279 C271 1.503 . S
C279 C278 1.370 . S
C279 C280 1.403 . S
C280 C279 1.403 . S
C280 C281 1.404 . S
C280 C283 1.539 . S
C281 C277 1.408 . S
C281 C280 1.404 . S
C281 H293 0.930 . S
C282 C278 1.524 . S
C282 H294 0.956 . S
C282 H295 0.961 . S
C282 H296 0.961 . S
C283 C280 1.539 . S
C283 H297 0.958 . S
C283 H298 0.961 . S
C283 H299 0.960 . S
H284 C268 0.931 . S
H285 C273 0.929 . S
H286 C274 0.960 . S
H287 C274 0.962 . S
H288 C274 0.960 . S
H289 C275 0.961 . S
H290 C275 0.961 . S
H291 C275 0.961 . S
H292 C276 0.931 . S
H293 C281 0.930 . S
H294 C282 0.956 . S
H295 C282 0.961 . S
H296 C282 0.961 . S
H297 C283 0.958 . S
H298 C283 0.961 . S
H299 C283 0.960 . S
C300 C301 1.391 . S
C300 C302 1.394 . S
C300 H316 0.931 1_554 S
C301 C300 1.391 . S
C301 C305 1.376 . S
C302 C300 1.394 . S
C302 C303 1.369 . S
C302 C306 1.531 1_554 S
C303 C302 1.369 . S
C303 C304 1.410 . S
C303 C311 1.503 . S
C304 C303 1.410 . S
C304 C305 1.392 . S
C304 C307 1.511 . S
C305 C301 1.376 . S
C305 C304 1.392 . S
C305 H317 0.929 . S
C306 C302 1.531 1_556 S
C306 H318 0.960 . S
C306 H319 0.962 . S
C306 H320 0.960 . S
C307 C304 1.511 . S
C307 H321 0.961 . S
C307 H322 0.961 . S
C307 H323 0.961 . S
C308 C309 1.370 . S
C308 C310 1.363 . S
C308 H324 0.931 . S
C309 C308 1.370 . S
C309 C313 1.408 . S
C310 C308 1.363 . S
C310 C311 1.370 . S
C310 C314 1.524 . S
C311 C303 1.503 . S
C311 C310 1.370 . S
C311 C312 1.403 . S
C312 C311 1.403 . S
C312 C313 1.404 . S
C312 C315 1.539 . S
C313 C309 1.408 . S
C313 C312 1.404 . S
C313 H325 0.930 . S
C314 C310 1.524 . S
C314 H326 0.956 1_554 S
C314 H327 0.961 . S
C314 H328 0.961 . S
C315 C312 1.539 . S
C315 H329 0.958 . S
C315 H330 0.961 . S
C315 H331 0.960 . S
H316 C300 0.931 1_556 S
H317 C305 0.929 . S
H318 C306 0.960 . S
H319 C306 0.962 . S
H320 C306 0.960 . S
H321 C307 0.961 . S
H322 C307 0.961 . S
H323 C307 0.961 . S
H324 C308 0.931 . S
H325 C313 0.930 . S
H326 C314 0.956 1_556 S
H327 C314 0.961 . S
H328 C314 0.961 . S
H329 C315 0.958 . S
H330 C315 0.961 . S
H331 C315 0.960 . S
C332 C333 1.391 . S
C332 C334 1.394 . S
C332 H348 0.931 . S
C333 C332 1.391 . S
C333 C337 1.376 . S
C334 C332 1.394 . S
C334 C335 1.369 . S
C334 C338 1.531 . S
C335 C334 1.369 . S
C335 C336 1.410 . S
C335 C343 1.503 . S
C336 C335 1.410 . S
C336 C337 1.392 . S
C336 C339 1.511 . S
C337 C333 1.376 . S
C337 C336 1.392 . S
C337 H349 0.929 . S
C338 C334 1.531 . S
C338 H350 0.960 . S
C338 H351 0.962 . S
C338 H352 0.960 . S
C339 C336 1.511 . S
C339 H353 0.961 . S
C339 H354 0.961 . S
C339 H355 0.961 . S
C340 C341 1.370 . S
C340 C342 1.363 . S
C340 H356 0.931 . S
C341 C340 1.370 . S
C341 C345 1.408 . S
C342 C340 1.363 . S
C342 C343 1.370 . S
C342 C346 1.524 . S
C343 C335 1.503 . S
C343 C342 1.370 . S
C343 C344 1.403 . S
C344 C343 1.403 . S
C344 C345 1.404 . S
C344 C347 1.539 1_565 S
C345 C341 1.408 . S
C345 C344 1.404 . S
C345 H357 0.930 1_565 S
C346 C342 1.524 . S
C346 H358 0.956 . S
C346 H359 0.961 . S
C346 H360 0.961 . S
C347 C344 1.539 1_545 S
C347 H361 0.958 . S
C347 H362 0.961 . S
C347 H363 0.960 1_545 S
H348 C332 0.931 . S
H349 C337 0.929 . S
H350 C338 0.960 . S
H351 C338 0.962 . S
H352 C338 0.960 . S
H353 C339 0.961 . S
H354 C339 0.961 . S
H355 C339 0.961 . S
H356 C340 0.931 . S
H357 C345 0.930 1_545 S
H358 C346 0.956 . S
H359 C346 0.961 . S
H360 C346 0.961 . S
H361 C347 0.958 . S
H362 C347 0.961 . S
H363 C347 0.960 1_565 S
C364 C365 1.391 . S
C364 C366 1.394 . S
C364 H380 0.931 . S
C365 C364 1.391 . S
C365 C369 1.376 . S
C366 C364 1.394 . S
C366 C367 1.369 . S
C366 C370 1.531 . S
C367 C366 1.369 . S
C367 C368 1.410 . S
C367 C375 1.503 . S
C368 C367 1.410 . S
C368 C369 1.392 . S
C368 C371 1.511 . S
C369 C365 1.376 . S
C369 C368 1.392 . S
C369 H381 0.929 . S
C370 C366 1.531 . S
C370 H382 0.960 . S
C370 H383 0.962 . S
C370 H384 0.960 . S
C371 C368 1.511 . S
C371 H385 0.961 . S
C371 H386 0.961 . S
C371 H387 0.961 . S
C372 C373 1.370 . S
C372 C374 1.363 . S
C372 H388 0.931 . S
C373 C372 1.370 . S
C373 C377 1.408 . S
C374 C372 1.363 . S
C374 C375 1.370 . S
C374 C378 1.524 . S
C375 C367 1.503 . S
C375 C374 1.370 . S
C375 C376 1.403 . S
C376 C375 1.403 . S
C376 C377 1.404 . S
C376 C379 1.539 . S
C377 C373 1.408 . S
C377 C376 1.404 . S
C377 H389 0.930 . S
C378 C374 1.524 . S
C378 H390 0.956 . S
C378 H391 0.961 . S
C378 H392 0.961 . S
C379 C376 1.539 . S
C379 H393 0.958 . S
C379 H394 0.961 . S
C379 H395 0.960 . S
H380 C364 0.931 . S
H381 C369 0.929 . S
H382 C370 0.960 . S
H383 C370 0.962 . S
H384 C370 0.960 . S
H385 C371 0.961 . S
H386 C371 0.961 . S
H387 C371 0.961 . S
H388 C372 0.931 . S
H389 C377 0.930 . S
H390 C378 0.956 . S
H391 C378 0.961 . S
H392 C378 0.961 . S
H393 C379 0.958 . S
H394 C379 0.961 . S
H395 C379 0.960 . S
C396 C397 1.391 . S
C396 C398 1.394 . S
C396 H412 0.931 . S
C397 C396 1.391 . S
C397 C401 1.376 . S
C398 C396 1.394 . S
C398 C399 1.369 . S
C398 C402 1.531 . S
C399 C398 1.369 . S
C399 C400 1.410 . S
C399 C407 1.503 . S
C400 C399 1.410 . S
C400 C401 1.392 . S
C400 C403 1.511 . S
C401 C397 1.376 . S
C401 C400 1.392 . S
C401 H413 0.929 . S
C402 C398 1.531 . S
C402 H414 0.960 . S
C402 H415 0.962 . S
C402 H416 0.960 . S
C403 C400 1.511 . S
C403 H417 0.961 . S
C403 H418 0.961 . S
C403 H419 0.961 . S
C404 C405 1.370 . S
C404 C406 1.363 . S
C404 H420 0.931 . S
C405 C404 1.370 . S
C405 C409 1.408 . S
C406 C404 1.363 . S
C406 C407 1.370 . S
C406 C410 1.524 . S
C407 C399 1.503 . S
C407 C406 1.370 . S
C407 C408 1.403 . S
C408 C407 1.403 . S
C408 C409 1.404 . S
C408 C411 1.539 . S
C409 C405 1.408 . S
C409 C408 1.404 . S
C409 H421 0.930 . S
C410 C406 1.524 . S
C410 H422 0.956 . S
C410 H423 0.961 . S
C410 H424 0.961 1_545 S
C411 C408 1.539 . S
C411 H425 0.958 . S
C411 H426 0.961 . S
C411 H427 0.960 . S
H412 C396 0.931 . S
H413 C401 0.929 . S
H414 C402 0.960 . S
H415 C402 0.962 . S
H416 C402 0.960 . S
H417 C403 0.961 . S
H418 C403 0.961 . S
H419 C403 0.961 . S
H420 C404 0.931 . S
H421 C409 0.930 . S
H422 C410 0.956 . S
H423 C410 0.961 . S
H424 C410 0.961 1_565 S
H425 C411 0.958 . S
H426 C411 0.961 . S
H427 C411 0.960 . S
C428 C429 1.391 . S
C428 C430 1.394 . S
C428 H444 0.931 . S
C429 C428 1.391 . S
C429 C433 1.376 . S
C430 C428 1.394 . S
C430 C431 1.369 . S
C430 C434 1.531 . S
C431 C430 1.369 . S
C431 C432 1.410 . S
C431 C439 1.503 . S
C432 C431 1.410 . S
C432 C433 1.392 . S
C432 C435 1.511 . S
C433 C429 1.376 . S
C433 C432 1.392 . S
C433 H445 0.929 . S
C434 C430 1.531 . S
C434 H446 0.960 . S
C434 H447 0.962 . S
C434 H448 0.960 . S
C435 C432 1.511 . S
C435 H449 0.961 . S
C435 H450 0.961 . S
C435 H451 0.961 . S
C436 C437 1.370 . S
C436 C438 1.363 . S
C436 H452 0.931 . S
C437 C436 1.370 . S
C437 C441 1.408 . S
C438 C436 1.363 . S
C438 C439 1.370 . S
C438 C442 1.524 . S
C439 C431 1.503 . S
C439 C438 1.370 . S
C439 C440 1.403 . S
C440 C439 1.403 . S
C440 C441 1.404 . S
C440 C443 1.539 . S
C441 C437 1.408 . S
C441 C440 1.404 . S
C441 H453 0.930 . S
C442 C438 1.524 . S
C442 H454 0.956 . S
C442 H455 0.961 . S
C442 H456 0.961 . S
C443 C440 1.539 . S
C443 H457 0.958 . S
C443 H458 0.961 . S
C443 H459 0.960 . S
H444 C428 0.931 . S
H445 C433 0.929 . S
H446 C434 0.960 . S
H447 C434 0.962 . S
H448 C434 0.960 . S
H449 C435 0.961 . S
H450 C435 0.961 . S
H451 C435 0.961 . S
H452 C436 0.931 . S
H453 C441 0.930 . S
H454 C442 0.956 . S
H455 C442 0.961 . S
H456 C442 0.961 . S
H457 C443 0.958 . S
H458 C443 0.961 . S
H459 C443 0.960 . S
C460 C461 1.391 . S
C460 C462 1.394 . S
C460 H476 0.931 . S
C461 C460 1.391 . S
C461 C465 1.376 . S
C462 C460 1.394 . S
C462 C463 1.369 . S
C462 C466 1.531 . S
C463 C462 1.369 . S
C463 C464 1.410 . S
C463 C471 1.503 . S
C464 C463 1.410 . S
C464 C465 1.392 . S
C464 C467 1.511 . S
C465 C461 1.376 . S
C465 C464 1.392 . S
C465 H477 0.929 . S
C466 C462 1.531 . S
C466 H478 0.960 . S
C466 H479 0.962 . S
C466 H480 0.960 . S
C467 C464 1.511 . S
C467 H481 0.961 . S
C467 H482 0.961 . S
C467 H483 0.961 . S
C468 C469 1.370 . S
C468 C470 1.363 . S
C468 H484 0.931 . S
C469 C468 1.370 . S
C469 C473 1.408 . S
C470 C468 1.363 . S
C470 C471 1.370 . S
C470 C474 1.524 . S
C471 C463 1.503 . S
C471 C470 1.370 . S
C471 C472 1.403 . S
C472 C471 1.403 . S
C472 C473 1.404 . S
C472 C475 1.539 . S
C473 C469 1.408 . S
C473 C472 1.404 . S
C473 H485 0.930 . S
C474 C470 1.524 . S
C474 H486 0.956 . S
C474 H487 0.961 . S
C474 H488 0.961 . S
C475 C472 1.539 . S
C475 H489 0.958 . S
C475 H490 0.961 . S
C475 H491 0.960 . S
H476 C460 0.931 . S
H477 C465 0.929 . S
H478 C466 0.960 . S
H479 C466 0.962 . S
H480 C466 0.960 . S
H481 C467 0.961 . S
H482 C467 0.961 . S
H483 C467 0.961 . S
H484 C468 0.931 . S
H485 C473 0.930 . S
H486 C474 0.956 . S
H487 C474 0.961 . S
H488 C474 0.961 . S
H489 C475 0.958 . S
H490 C475 0.961 . S
H491 C475 0.960 . S
C492 C493 1.391 . S
C492 C494 1.394 . S
C492 H508 0.931 1_556 S
C493 C492 1.391 . S
C493 C497 1.376 . S
C494 C492 1.394 . S
C494 C495 1.369 . S
C494 C498 1.531 . S
C495 C494 1.369 . S
C495 C496 1.410 . S
C495 C503 1.503 . S
C496 C495 1.410 . S
C496 C497 1.392 . S
C496 C499 1.511 . S
C497 C493 1.376 . S
C497 C496 1.392 . S
C497 H509 0.929 . S
C498 C494 1.531 . S
C498 H510 0.960 . S
C498 H511 0.962 . S
C498 H512 0.973 . S
C499 C496 1.511 . S
C499 H513 0.961 . S
C499 H514 0.961 . S
C499 H515 0.961 . S
C500 C501 1.370 . S
C500 C502 1.363 . S
C500 H516 0.931 . S
C501 C500 1.370 . S
C501 C505 1.408 . S
C502 C500 1.363 . S
C502 C503 1.370 . S
C502 C506 1.524 . S
C503 C495 1.503 . S
C503 C502 1.370 . S
C503 C504 1.403 . S
C504 C503 1.403 . S
C504 C505 1.404 . S
C504 C507 1.539 . S
C505 C501 1.408 . S
C505 C504 1.404 . S
C505 H517 0.930 . S
C506 C502 1.524 . S
C506 H518 0.956 . S
C506 H519 0.961 . S
C506 H520 0.961 . S
C507 C504 1.539 . S
C507 H521 0.948 1_545 S
C507 H522 0.961 . S
C507 H523 0.960 . S
H508 C492 0.931 1_554 S
H509 C497 0.929 . S
H510 C498 0.960 . S
H511 C498 0.962 . S
H512 C498 0.973 . S
H513 C499 0.961 . S
H514 C499 0.961 . S
H515 C499 0.961 . S
H516 C500 0.931 . S
H517 C505 0.930 . S
H518 C506 0.956 . S
H519 C506 0.961 . S
H520 C506 0.961 . S
H521 C507 0.948 1_565 S
H522 C507 0.961 . S
H523 C507 0.960 . S
C524 C525 1.391 . S
C524 C526 1.394 . S
C524 H540 0.931 . S
C525 C524 1.391 . S
C525 C529 1.376 . S
C526 C524 1.394 . S
C526 C527 1.369 . S
C526 C530 1.531 . S
C527 C526 1.369 . S
C527 C528 1.410 . S
C527 C535 1.503 . S
C528 C527 1.410 . S
C528 C529 1.392 . S
C528 C531 1.511 . S
C529 C525 1.376 . S
C529 C528 1.392 . S
C529 H541 0.929 . S
C530 C526 1.531 . S
C530 H542 0.960 . S
C530 H543 0.962 . S
C530 H544 0.960 . S
C531 C528 1.511 . S
C531 H545 0.961 . S
C531 H546 0.961 . S
C531 H547 0.961 . S
C532 C533 1.370 . S
C532 C534 1.363 . S
C532 H548 0.931 . S
C533 C532 1.370 . S
C533 C537 1.408 . S
C534 C532 1.363 . S
C534 C535 1.370 . S
C534 C538 1.524 . S
C535 C527 1.503 . S
C535 C534 1.370 . S
C535 C536 1.403 . S
C536 C535 1.403 . S
C536 C537 1.404 . S
C536 C539 1.539 . S
C537 C533 1.408 . S
C537 C536 1.404 . S
C537 H549 0.930 . S
C538 C534 1.524 . S
C538 H550 0.956 . S
C538 H551 0.961 . S
C538 H552 0.961 . S
C539 C536 1.539 . S
C539 H553 0.958 . S
C539 H554 0.961 . S
C539 H555 0.960 . S
H540 C524 0.931 . S
H541 C529 0.929 . S
H542 C530 0.960 . S
H543 C530 0.962 . S
H544 C530 0.960 . S
H545 C531 0.961 . S
H546 C531 0.961 . S
H547 C531 0.961 . S
H548 C532 0.931 . S
H549 C537 0.930 . S
H550 C538 0.956 . S
H551 C538 0.961 . S
H552 C538 0.961 . S
H553 C539 0.958 . S
H554 C539 0.961 . S
H555 C539 0.960 . S
C556 C557 1.391 . S
C556 C558 1.394 . S
C556 H572 0.931 . S
C557 C556 1.391 . S
C557 C561 1.376 . S
C558 C556 1.394 . S
C558 C559 1.369 . S
C558 C562 1.531 . S
C559 C558 1.369 . S
C559 C560 1.410 . S
C559 C567 1.503 . S
C560 C559 1.410 . S
C560 C561 1.392 . S
C560 C563 1.511 . S
C561 C557 1.376 . S
C561 C560 1.392 . S
C561 H573 0.929 . S
C562 C558 1.531 . S
C562 H574 0.960 . S
C562 H575 0.962 . S
C562 H576 0.960 . S
C563 C560 1.511 . S
C563 H577 0.961 . S
C563 H578 0.961 . S
C563 H579 0.961 . S
C564 C565 1.370 . S
C564 C566 1.363 . S
C564 H580 0.931 1_565 S
C565 C564 1.370 . S
C565 C569 1.408 . S
C566 C564 1.363 . S
C566 C567 1.370 . S
C566 C570 1.524 1_565 S
C567 C559 1.503 . S
C567 C566 1.370 . S
C567 C568 1.403 . S
C568 C567 1.403 . S
C568 C569 1.404 . S
C568 C571 1.539 . S
C569 C565 1.408 . S
C569 C568 1.404 . S
C569 H581 0.930 . S
C570 C566 1.524 1_545 S
C570 H582 0.956 1_545 S
C570 H583 0.961 . S
C570 H584 0.961 . S
C571 C568 1.539 . S
C571 H585 0.958 . S
C571 H586 0.961 . S
C571 H587 0.960 . S
H572 C556 0.931 . S
H573 C561 0.929 . S
H574 C562 0.960 . S
H575 C562 0.962 . S
H576 C562 0.960 . S
H577 C563 0.961 . S
H578 C563 0.961 . S
H579 C563 0.961 . S
H580 C564 0.931 1_545 S
H581 C569 0.930 . S
H582 C570 0.956 1_565 S
H583 C570 0.961 . S
H584 C570 0.961 . S
H585 C571 0.958 . S
H586 C571 0.961 . S
H587 C571 0.960 . S
C213 C104 1.539 . S
C205 C34 1.555 . S
C237 C7 1.542 . S
C245 C176 1.525 . S
C269 C16 1.558 . S
C277 C92 1.542 . S
C301 C25 1.551 . S
C309 C188 1.529 . S
C341 C94 1.369 . S
C333 C5 1.521 . S
C373 C175 1.563 . S
C365 C13 1.545 . S
C397 C23 1.530 . S
C405 C91 1.550 . S
C429 C32 1.516 . S
C437 C178 1.348 . S
C469 C190 1.366 . S
C461 C14 1.509 . S
C501 C106 1.380 . S
C493 C22 1.526 1_556 S
C533 C187 1.562 . S
C525 C31 1.559 . S
C557 C4 1.518 . S
C565 C103 1.546 . S
