# Generated by pormake.
# Topology anh, (6,3)-cn, num edge types: 1
# Building blocks:
#     Node 0, Type 0, BuildingBlock: NUHQIS_clean_sbu_0, # of connection points: 6
#     Node 1, Type 0, BuildingBlock: NUHQIS_clean_sbu_0, # of connection points: 6
#     Node 2, Type 0, BuildingBlock: NUHQIS_clean_sbu_0, # of connection points: 6
#     Node 3, Type 1, BuildingBlock: KAKCAD_clean_linker_0, # of connection points: 3
#     Node 4, Type 1, BuildingBlock: KAKCAD_clean_linker_0, # of connection points: 3
#     Node 5, Type 1, BuildingBlock: KAKCAD_clean_linker_0, # of connection points: 3
#     Node 6, Type 1, BuildingBlock: KAKCAD_clean_linker_0, # of connection points: 3
#     Node 7, Type 1, BuildingBlock: KAKCAD_clean_linker_0, # of connection points: 3
#     Node 8, Type 1, BuildingBlock: KAKCAD_clean_linker_0, # of connection points: 3
#     Edge 9, Type (0, 1), BuildingBlock: UVAHIK_clean_linker_0, # of connection points: 2
#     Edge 10, Type (0, 1), BuildingBlock: UVAHIK_clean_linker_0, # of connection points: 2
#     Edge 11, Type (0, 1), BuildingBlock: UVAHIK_clean_linker_0, # of connection points: 2
#     Edge 12, Type (0, 1), BuildingBlock: UVAHIK_clean_linker_0, # of connection points: 2
#     Edge 13, Type (0, 1), BuildingBlock: UVAHIK_clean_linker_0, # of connection points: 2
#     Edge 14, Type (0, 1), BuildingBlock: UVAHIK_clean_linker_0, # of connection points: 2
#     Edge 15, Type (0, 1), BuildingBlock: UVAHIK_clean_linker_0, # of connection points: 2
#     Edge 16, Type (0, 1), BuildingBlock: UVAHIK_clean_linker_0, # of connection points: 2
#     Edge 17, Type (0, 1), BuildingBlock: UVAHIK_clean_linker_0, # of connection points: 2
#     Edge 18, Type (0, 1), BuildingBlock: UVAHIK_clean_linker_0, # of connection points: 2
#     Edge 19, Type (0, 1), BuildingBlock: UVAHIK_clean_linker_0, # of connection points: 2
#     Edge 20, Type (0, 1), BuildingBlock: UVAHIK_clean_linker_0, # of connection points: 2
#     Edge 21, Type (0, 1), BuildingBlock: UVAHIK_clean_linker_0, # of connection points: 2
#     Edge 22, Type (0, 1), BuildingBlock: UVAHIK_clean_linker_0, # of connection points: 2
#     Edge 23, Type (0, 1), BuildingBlock: UVAHIK_clean_linker_0, # of connection points: 2
#     Edge 24, Type (0, 1), BuildingBlock: UVAHIK_clean_linker_0, # of connection points: 2
#     Edge 25, Type (0, 1), BuildingBlock: UVAHIK_clean_linker_0, # of connection points: 2
#     Edge 26, Type (0, 1), BuildingBlock: UVAHIK_clean_linker_0, # of connection points: 2
# Relax obj value: 0.202
# Max RMSD: 0.184
# Mean RMSD: 0.149
data_MOF--net-anh--node1-NUHQIS_clean_sbu_0--node2-KAKCAD_clean_linker_0--edge1-UVAHIK_clean_linker_0
_symmetry_space_group_name_H-M    P1
_symmetry_Int_Tables_number       1
_symmetry_cell_setting            triclinic
loop_
_symmetry_equiv_pos_as_xyz
'x, y, z'
_cell_length_a     46.745415
_cell_length_b     46.783462
_cell_length_c     83.093071
_cell_angle_alpha  90.483014
_cell_angle_beta   92.89724
_cell_angle_gamma 119.94275
loop_
_atom_site_label
_atom_site_type_symbol
_atom_site_fract_x
_atom_site_fract_y
_atom_site_fract_z
_atom_type_partial_charge
Tb0 Tb 0.08639 0.53105 0.15359 0.0
Eu1 Eu 0.04765 0.57092 0.1517 0.0
C2 C 0.06835 0.55255 0.18494 0.0
C3 C 1.00594 0.48972 0.1547 0.0
C4 C 0.14889 0.50796 0.16528 0.0
C5 C 0.17818 0.49042 0.18397 0.0
C6 C 0.14914 0.48411 0.17529 0.0
C7 C 0.17779 0.53873 0.16452 0.0
C8 C 0.20692 0.54492 0.17304 0.0
C9 C 0.20763 0.52061 0.18263 0.0
C10 C 0.11805 0.50071 0.15622 0.0
O11 O 0.06725 0.52531 0.12837 0.0
O12 O 0.06726 0.57377 0.12714 0.0
O13 O 0.10145 0.61226 0.15772 0.0
O14 O 0.12829 0.5834 0.15318 0.0
C15 C 0.06767 0.54907 0.11985 0.0
O16 O 1.01356 0.58337 0.13907 0.0
O17 O 1.03558 0.60576 0.16275 0.0
O18 O 0.04361 0.55181 0.17656 0.0
O19 O 0.09253 0.55265 0.17765 0.0
O20 O 1.03485 0.49145 0.15796 0.0
O21 O 1.00538 0.51639 0.14989 0.0
C22 C 0.12938 0.61186 0.15642 0.0
O23 O 0.09371 0.49523 0.16504 0.0
O24 O 0.1205 0.51958 0.14426 0.0
C25 C 0.97879 0.58552 0.1581 0.0
C26 C 0.91908 0.55612 0.17375 0.0
C27 C 0.92494 0.53809 0.16207 0.0
C28 C 0.95444 0.55255 0.15438 0.0
C29 C 0.97287 0.60388 0.16954 0.0
C30 C 0.94317 0.58932 0.17729 0.0
C31 C 1.01177 0.59888 0.15181 0.0
H32 H 0.17776 0.47136 0.19143 0.0
H33 H 0.12689 0.46045 0.17628 0.0
H34 H 0.17812 0.55783 0.15711 0.0
H35 H 0.22918 0.56825 0.1715 0.0
H36 H 0.90658 0.51275 0.15873 0.0
H37 H 0.95837 0.53756 0.14575 0.0
H38 H 0.99157 0.62915 0.17279 0.0
H39 H 0.9393 0.60383 0.18623 0.0
Tb40 Tb 0.60452 0.06935 0.48941 0.0
Eu41 Eu 0.52602 0.03305 0.48522 0.0
C42 C 0.56323 0.04687 0.51939 0.0
C43 C 0.56531 0.98995 0.48943 0.0
C44 C 0.68643 0.14001 0.49628 0.0
C45 C 0.72521 0.18873 0.51253 0.0
C46 C 0.71067 0.15492 0.50898 0.0
C47 C 0.67748 0.15944 0.48688 0.0
C48 C 0.69216 0.19322 0.49032 0.0
C49 C 0.71571 0.20815 0.50338 0.0
C50 C 0.66615 0.10397 0.495 0.0
O51 O 0.59612 0.07157 0.46325 0.0
O52 O 0.53986 0.03782 0.45947 0.0
O53 O 0.54053 0.08734 0.48201 0.0
O54 O 0.59274 0.10981 0.49393 0.0
C55 C 0.569 0.0556 0.45369 0.0
O56 O 0.47848 0.99285 0.47545 0.0
O57 O 0.47989 0.02863 0.49259 0.0
O58 O 0.54055 0.04987 0.51111 0.0
O59 O 0.58648 0.04543 0.512 0.0
O60 O 0.5929 1.01715 0.48605 0.0
O61 O 0.53818 0.99166 0.49147 0.0
C62 C 0.56735 0.11329 0.48866 0.0
O63 O 0.64527 0.0918 0.50617 0.0
O64 O 0.65229 0.09072 0.48083 0.0
C65 C 0.44017 0.97321 0.49586 0.0
C66 C 0.40157 0.92447 0.51743 0.0
C67 C 0.4222 0.91973 0.50731 0.0
C68 C 0.4414 0.94386 0.49671 0.0
C69 C 0.41989 0.97822 0.50604 0.0
C70 C 0.40087 0.95416 0.51678 0.0
C71 C 0.46184 0.99972 0.48541 0.0
H72 H 0.74309 0.19942 0.52274 0.0
H73 H 0.71724 0.14013 0.51662 0.0
H74 H 0.65825 0.14834 0.47724 0.0
H75 H 0.68479 0.20755 0.48282 0.0
H76 H 0.42283 0.8969 0.50718 0.0
H77 H 0.45714 0.9394 0.48919 0.0
H78 H 0.41896 1.0009 0.50577 0.0
H79 H 0.38544 0.95871 0.52448 0.0
Tb80 Tb 0.58319 0.58435 0.82089 0.0
Eu81 Eu 0.5427 0.50595 0.81732 0.0
C82 C 0.56627 0.54225 0.85111 0.0
C83 C 0.6245 0.5448 0.82147 0.0
C84 C 0.60413 0.66706 0.83465 0.0
C85 C 0.61917 0.71312 0.85342 0.0
C86 C 0.62807 0.69368 0.84443 0.0
C87 C 0.57104 0.65949 0.83432 0.0
C88 C 0.56218 0.67894 0.84317 0.0
C89 C 0.58616 0.70621 0.85271 0.0
C90 C 0.61328 0.64595 0.82569 0.0
O91 O 0.58649 0.57297 0.79554 0.0
O92 O 0.53873 0.52343 0.79254 0.0
O93 O 0.50318 0.51936 0.82359 0.0
O94 O 0.53098 0.57457 0.81896 0.0
C95 C 0.56272 0.54933 0.78618 0.0
O96 O 0.53092 0.45852 0.80626 0.0
O97 O 0.50285 0.46035 0.82589 0.0
O98 O 0.56682 0.51944 0.84226 0.0
O99 O 0.56365 0.56593 0.84421 0.0
O100 O 0.6236 0.57217 0.82472 0.0
O101 O 0.59681 0.51738 0.81673 0.0
C102 C 0.50315 0.54747 0.82217 0.0
O103 O 0.61887 0.62618 0.83452 0.0
O104 O 0.59508 0.63097 0.81254 0.0
C105 C 0.51502 0.41756 0.82597 0.0
C106 C 0.52549 0.37341 0.84482 0.0
C107 C 0.54941 0.39437 0.83438 0.0
C108 C 0.54432 0.41635 0.82512 0.0
C109 C 0.49125 0.39692 0.83646 0.0
C110 C 0.4965 0.3752 0.84587 0.0
C111 C 0.50989 0.44183 0.81704 0.0
H112 H 0.63818 0.73376 0.86076 0.0
H113 H 0.65362 0.69945 0.84508 0.0
H114 H 0.552 0.63874 0.82706 0.0
H115 H 0.53666 0.67322 0.84203 0.0
H116 H 0.57171 0.39319 0.83299 0.0
H117 H 0.56333 0.43231 0.8173 0.0
H118 H 0.46869 0.39781 0.83749 0.0
H119 H 0.47774 0.35967 0.85389 0.0
C120 C 0.58892 0.08883 0.26949 0.0
C121 C 0.57764 0.05971 0.27811 0.0
C122 C 0.5882 0.08799 0.25253 0.0
C123 C 0.57648 0.05801 0.2436 0.0
C124 C 0.56569 0.02898 0.2523 0.0
C125 C 0.56609 0.0298 0.26923 0.0
C126 C 0.57512 0.05686 0.22536 0.0
C127 C 0.59975 0.08269 0.2169 0.0
C128 C 0.59927 0.08283 0.19985 0.0
C129 C 0.57236 0.05415 0.19111 0.0
C130 C 0.54683 1.02691 0.1995 0.0
C131 C 0.54907 0.02978 0.21651 0.0
C132 C 0.51736 0.99434 0.19191 0.0
C133 C 0.49302 0.99295 0.18053 0.0
C134 C 0.51002 0.96372 0.1985 0.0
C135 C 0.48 0.93383 0.19453 0.0
C136 C 0.45495 0.93216 0.18352 0.0
C137 C 0.62758 0.11407 0.1925 0.0
C138 C 0.6373 0.14588 0.19917 0.0
C139 C 0.64849 0.11332 0.18092 0.0
C140 C 0.67787 0.14266 0.17672 0.0
C141 C 0.68805 0.17447 0.18383 0.0
C142 C 0.66639 0.1749 0.19506 0.0
C143 C 0.46272 0.96272 0.17644 0.0
H144 H 0.59765 0.11231 0.27584 0.0
H145 H 0.59627 0.11088 0.24643 0.0
H146 H 0.55718 1.00544 0.24606 0.0
H147 H 0.55771 1.00691 0.27538 0.0
H148 H 0.62021 0.10299 0.22379 0.0
H149 H 0.52963 1.01052 0.22304 0.0
H150 H 0.57131 0.05305 0.17807 0.0
H151 H 0.49671 1.01552 0.17524 0.0
H152 H 0.52736 0.96298 0.20741 0.0
H153 H 0.47627 0.91216 0.20074 0.0
H154 H 0.62258 0.14839 0.20814 0.0
H155 H 0.64287 0.08982 0.1755 0.0
H156 H 0.44522 0.96365 0.16775 0.0
H157 H 0.6722 0.19771 0.20129 0.0
H158 H 0.69272 0.14011 0.16788 0.0
C159 C 0.54385 0.55866 0.60095 0.0
C160 C 0.56687 0.55392 0.61045 0.0
C161 C 0.54411 0.55865 0.58403 0.0
C162 C 0.56707 0.55339 0.57605 0.0
C163 C 0.58995 0.54843 0.58554 0.0
C164 C 0.59001 0.54893 0.60247 0.0
C165 C 0.56717 0.55311 0.55793 0.0
C166 C 0.56486 0.57767 0.54927 0.0
C167 C 0.56503 0.57867 0.53228 0.0
C168 C 0.56739 0.55262 0.52383 0.0
C169 C 0.56964 0.52681 0.53246 0.0
C170 C 0.56958 0.5283 0.54946 0.0
C171 C 0.57251 0.49773 0.52507 0.0
C172 C 0.5489 0.47394 0.51364 0.0
C173 C 0.5963 0.49011 0.53181 0.0
C174 C 0.59619 0.46042 0.5278 0.0
C175 C 0.57217 0.43595 0.51673 0.0
C176 C 0.56227 0.60753 0.52468 0.0
C177 C 0.538 0.61492 0.52966 0.0
C178 C 0.58645 0.6315 0.5151 0.0
C179 C 0.5867 0.66146 0.51116 0.0
C180 C 0.56273 0.66917 0.51654 0.0
C181 C 0.53816 0.64455 0.52573 0.0
C182 C 0.54871 0.44391 0.5096 0.0
H183 H 0.52581 0.56282 0.60662 0.0
H184 H 0.52598 0.56235 0.57716 0.0
H185 H 0.60814 0.54453 0.57986 0.0
H186 H 0.60796 0.54494 0.60932 0.0
H187 H 0.56367 0.59697 0.55599 0.0
H188 H 0.57066 0.50919 0.5563 0.0
H189 H 0.56747 0.55244 0.51081 0.0
H190 H 0.5296 0.47782 0.50824 0.0
H191 H 0.61485 0.50699 0.54079 0.0
H192 H 0.61466 0.45636 0.53401 0.0
H193 H 0.51904 0.59793 0.53722 0.0
H194 H 0.60615 0.62781 0.51118 0.0
H195 H 0.52975 0.42677 0.50088 0.0
H196 H 0.51927 0.64845 0.53054 0.0
H197 H 0.60612 0.67876 0.50393 0.0
C198 C 0.09762 0.56743 0.93621 0.0
C199 C 0.06974 0.54441 0.94412 0.0
C200 C 0.09741 0.56743 0.91928 0.0
C201 C 0.06914 0.54476 0.90971 0.0
C202 C 1.04125 0.52179 0.91761 0.0
C203 C 1.04163 0.52146 0.93454 0.0
C204 C 0.06852 0.54531 0.8916 0.0
C205 C 0.09518 0.54782 0.88334 0.0
C206 C 0.09572 0.54847 0.86633 0.0
C207 C 0.06702 0.54631 0.85747 0.0
C208 C 1.03914 0.54368 0.8657 0.0
C209 C 1.04117 0.54335 0.88271 0.0
C210 C 1.00685 0.54073 0.85789 0.0
C211 C 1.00603 0.56418 0.84749 0.0
C212 C 0.97583 0.51703 0.86339 0.0
C213 C 0.94606 0.51726 0.85932 0.0
C214 C 0.94496 0.54114 0.84931 0.0
C215 C 0.12725 0.55171 0.85912 0.0
C216 C 0.15894 0.57377 0.86658 0.0
C217 C 0.12679 0.53031 0.84682 0.0
C218 C 0.1563 0.53038 0.84267 0.0
C219 C 0.18796 0.55189 0.85057 0.0
C220 C 0.18813 0.57379 0.86252 0.0
C221 C 0.97593 0.56435 0.8433 0.0
H222 H 0.11982 0.58531 0.94314 0.0
H223 H 0.11927 0.58561 0.91365 0.0
H224 H 1.01911 0.5038 0.91068 0.0
H225 H 1.01961 0.50353 0.94014 0.0
H226 H 0.11569 0.54852 0.89039 0.0
H227 H 1.0212 0.5422 0.88929 0.0
H228 H 0.0664 0.54666 0.84444 0.0
H229 H 1.02893 0.58336 0.84308 0.0
H230 H 0.97466 0.49855 0.87152 0.0
H231 H 0.92399 0.49896 0.86469 0.0
H232 H 0.16122 0.59084 0.87611 0.0
H233 H 0.10338 0.51249 0.84077 0.0
H234 H 0.97728 0.58317 0.8354 0.0
H235 H 0.21082 0.59069 0.86936 0.0
H236 H 0.15397 0.51316 0.83323 0.0
C237 C 1.0282 0.56149 0.3636 0.0
C238 C 0.0582 0.56817 0.3573 0.0
C239 C 1.02622 0.56505 0.38012 0.0
C240 C 0.05408 0.57498 0.39084 0.0
C241 C 0.08399 0.58121 0.38459 0.0
C242 C 0.08606 0.57798 0.36801 0.0
C243 C 0.05184 0.57897 0.40843 0.0
C244 C 1.02306 0.55681 0.41605 0.0
C245 C 1.02064 0.56068 0.43259 0.0
C246 C 0.04686 0.58714 0.44142 0.0
C247 C 0.07585 0.60899 0.43421 0.0
C248 C 0.07839 0.60487 0.41771 0.0
C249 C 0.10366 0.63455 0.44458 0.0
C250 C 0.0976 0.65309 0.45587 0.0
C251 C 0.13469 0.63662 0.44517 0.0
C252 C 0.15851 0.65528 0.45754 0.0
C253 C 0.1516 0.67211 0.46948 0.0
C254 C 0.99151 0.53692 0.44112 0.0
C255 C 0.95914 0.52578 0.43469 0.0
C256 C 0.99625 0.52691 0.45643 0.0
C257 C 0.96943 0.50737 0.46543 0.0
C258 C 0.937 0.49654 0.45921 0.0
C259 C 0.93207 0.5057 0.44367 0.0
C260 C 0.12121 0.67151 0.46823 0.0
H261 H 1.00608 0.55336 0.35577 0.0
H262 H 1.00287 0.56041 0.38446 0.0
H263 H 0.10583 0.58844 0.3925 0.0
H264 H 0.10966 0.58365 0.36359 0.0
H265 H 1.00298 0.53596 0.40926 0.0
H266 H 0.10073 0.62222 0.41213 0.0
H267 H 0.04503 0.59035 0.4542 0.0
H268 H 0.07385 0.65194 0.45561 0.0
H269 H 0.13983 0.62235 0.43666 0.0
H270 H 0.18199 0.65586 0.45797 0.0
H271 H 0.9548 0.53323 0.42294 0.0
H272 H 1.02088 0.53461 0.46161 0.0
H273 H 0.11493 0.68399 0.47723 0.0
H274 H 0.90735 0.49731 0.43842 0.0
H275 H 0.97427 0.50121 0.47741 0.0
C276 C 0.50089 0.98497 0.69603 0.0
C277 C 0.51906 1.01597 0.6893 0.0
C278 C 0.49508 0.98263 0.71244 0.0
C279 C 0.50773 1.01128 0.72248 0.0
C280 C 0.5262 0.04227 0.71567 0.0
C281 C 0.53157 0.04458 0.69925 0.0
C282 C 0.50234 1.00896 0.74003 0.0
C283 C 0.50345 0.9839 0.74889 0.0
C284 C 0.50076 0.98324 0.76562 0.0
C285 C 0.49594 1.00687 0.77343 0.0
C286 C 0.49504 0.03203 0.76493 0.0
C287 C 0.49807 0.03299 0.74823 0.0
C288 C 0.49545 0.05924 0.77424 0.0
C289 C 0.47353 0.05209 0.78652 0.0
C290 C 0.5217 0.09161 0.77307 0.0
C291 C 0.52743 0.11583 0.78474 0.0
C292 C 0.50689 0.10806 0.79771 0.0
C293 C 0.50619 0.96031 0.77559 0.0
C294 C 0.48485 0.9261 0.7739 0.0
C295 C 0.53088 0.97331 0.78821 0.0
C296 C 0.53337 0.95266 0.79942 0.0
C297 C 0.51126 0.9185 0.79823 0.0
C298 C 0.48728 0.90528 0.78521 0.0
C299 C 0.47917 0.07629 0.79815 0.0
H300 H 0.49074 0.96256 0.68855 0.0
H301 H 0.4804 0.95839 0.71721 0.0
H302 H 0.53708 0.06485 0.72305 0.0
H303 H 0.54605 0.06877 0.69437 0.0
H304 H 0.50824 0.96608 0.74302 0.0
H305 H 0.49737 0.05263 0.74172 0.0
H306 H 0.49469 1.00666 0.78645 0.0
H307 H 0.45314 1.02723 0.78766 0.0
H308 H 0.53911 0.09762 0.76379 0.0
H309 H 0.54857 0.14035 0.78393 0.0
H310 H 0.46554 0.9157 0.76427 0.0
H311 H 0.54758 0.99971 0.78971 0.0
H312 H 0.46291 0.06958 0.80798 0.0
H313 H 0.47021 0.87896 0.7839 0.0
H314 H 0.5519 0.96365 0.80936 0.0
C315 C 0.54162 0.46394 0.02843 0.0
C316 C 0.54457 0.49287 0.02193 0.0
C317 C 0.5368 0.45815 0.04481 0.0
C318 C 0.53427 0.48092 0.0549 0.0
C319 C 0.5375 0.50996 0.04842 0.0
C320 C 0.54282 0.51597 0.03211 0.0
C321 C 0.5277 0.47425 0.07208 0.0
C322 C 0.54756 0.46597 0.08205 0.0
C323 C 0.54251 0.46168 0.09859 0.0
C324 C 0.5162 0.46362 0.10477 0.0
C325 C 0.49694 0.47283 0.09516 0.0
C326 C 0.50275 0.47814 0.07879 0.0
C327 C 0.47454 0.48139 0.10316 0.0
C328 C 0.45451 0.46101 0.11501 0.0
C329 C 0.47789 0.51273 0.10133 0.0
C330 C 0.46368 0.5245 0.11204 0.0
C331 C 0.44613 0.50512 0.12476 0.0
C332 C 0.56675 0.45962 0.11004 0.0
C333 C 0.58037 0.43953 0.10673 0.0
C334 C 0.57649 0.47843 0.12462 0.0
C335 C 0.59883 0.47694 0.13574 0.0
C336 C 0.61278 0.45721 0.13247 0.0
C337 C 0.60319 0.43827 0.1179 0.0
C338 C 0.44058 0.47284 0.12577 0.0
H339 H 0.54311 0.44585 0.02083 0.0
H340 H 0.53433 0.43557 0.04954 0.0
H341 H 0.53596 0.52805 0.05599 0.0
H342 H 0.54482 0.53837 0.02737 0.0
H343 H 0.5681 0.46496 0.07715 0.0
H344 H 0.48803 0.48552 0.07132 0.0
H345 H 0.5122 0.46026 0.11752 0.0
H346 H 0.45128 0.43661 0.11655 0.0
H347 H 0.49348 0.52906 0.0924 0.0
H348 H 0.4681 0.54943 0.11098 0.0
H349 H 0.5733 0.42477 0.09559 0.0
H350 H 0.56712 0.49478 0.12743 0.0
H351 H 0.4264 0.45714 0.13523 0.0
H352 H 0.61384 0.42309 0.11499 0.0
H353 H 0.60537 0.49154 0.14691 0.0
C354 C 0.24634 0.49914 0.18794 0.0
C355 C 0.23977 0.52521 0.18931 0.0
C356 C 0.27856 0.50501 0.19019 0.0
C357 C 0.34899 0.5215 0.19383 0.0
H358 H 0.39665 0.59138 0.16445 0.0
C359 C 0.44119 0.51504 0.15379 0.0
C360 C 0.43498 0.51889 0.13746 0.0
C361 C 0.42866 0.52582 0.16585 0.0
C362 C 0.38389 0.57195 0.17279 0.0
H363 H 0.26114 0.57698 0.19636 0.0
H364 H 0.31779 0.58739 0.20004 0.0
H365 H 0.35141 0.58984 0.17824 0.0
H366 H 0.41234 0.53836 0.12089 0.0
H367 H 0.38939 0.55617 0.14181 0.0
H368 H 0.37898 0.50152 0.18698 0.0
C369 C 0.29799 0.5625 0.19696 0.0
C370 C 0.35823 0.57133 0.18093 0.0
C371 C 0.2656 0.55657 0.19476 0.0
C372 C 0.41744 0.53513 0.1334 0.0
C373 C 0.40462 0.54562 0.14544 0.0
C374 C 0.37438 0.52188 0.18553 0.0
C375 C 0.305 0.53715 0.1938 0.0
C376 C 0.33899 0.54475 0.19063 0.0
C377 C 0.40942 0.54038 0.16179 0.0
C378 C 0.39054 0.54588 0.17409 0.0
H379 H 0.2272 0.47471 0.18367 0.0
H380 H 0.28292 0.48488 0.18748 0.0
H381 H 0.33513 0.50116 0.20155 0.0
H382 H 0.45534 0.50321 0.15722 0.0
H383 H 0.43324 0.52186 0.17831 0.0
C384 C 0.712 0.25982 0.50532 0.0
C385 C 0.73085 0.24403 0.50709 0.0
C386 C 0.72733 0.29421 0.50657 0.0
C387 C 0.80778 0.37038 0.51712 0.0
H388 H 0.79236 0.3982 0.47531 0.0
C389 C 0.90999 0.45141 0.47855 0.0
C390 C 0.90872 0.4754 0.46897 0.0
C391 C 0.88395 0.43162 0.48793 0.0
C392 C 0.79643 0.39136 0.48728 0.0
H393 H 0.78013 0.25182 0.51271 0.0
H394 H 0.80668 0.3114 0.51499 0.0
H395 H 0.75133 0.34516 0.48492 0.0
H396 H 0.879 0.49754 0.46188 0.0
H397 H 0.8324 0.46142 0.47786 0.0
H398 H 0.85437 0.41534 0.51873 0.0
C399 C 0.78005 0.29736 0.51277 0.0
C400 C 0.77289 0.36094 0.49281 0.0
C401 C 0.76483 0.26311 0.51138 0.0
C402 C 0.88057 0.47902 0.46898 0.0
C403 C 0.85413 0.45872 0.47825 0.0
C404 C 0.83131 0.40076 0.51158 0.0
C405 C 0.76169 0.31332 0.5098 0.0
C406 C 0.77953 0.34921 0.50723 0.0
C407 C 0.8557 0.4349 0.48782 0.0
C408 C 0.82681 0.41031 0.49611 0.0
H409 H 0.68557 0.24569 0.50243 0.0
H410 H 0.7126 0.3059 0.50433 0.0
H411 H 0.81314 0.36216 0.52844 0.0
H412 H 0.93081 0.44727 0.47853 0.0
H413 H 0.88538 0.41271 0.49478 0.0
C414 C 0.54559 0.71745 0.86611 0.0
C415 C 0.57708 0.72927 0.86018 0.0
C416 C 0.53351 0.73893 0.86875 0.0
C417 C 0.55488 0.82701 0.86684 0.0
H418 H 0.47968 0.79143 0.83557 0.0
C419 C 0.54397 0.9025 0.81692 0.0
C420 C 0.51306 0.89721 0.81084 0.0
C421 C 0.54607 0.88341 0.82916 0.0
C422 C 0.50002 0.80171 0.84469 0.0
H423 H 0.62212 0.77349 0.85441 0.0
H424 H 0.60137 0.81068 0.85916 0.0
H425 H 0.49462 0.75441 0.84887 0.0
H426 H 0.46009 0.86814 0.81303 0.0
H427 H 0.46376 0.83407 0.83435 0.0
H428 H 0.56161 0.87464 0.86168 0.0
C429 C 0.58584 0.78491 0.86176 0.0
C430 C 0.50857 0.78041 0.85239 0.0
C431 C 0.59778 0.76346 0.85898 0.0
C432 C 0.48422 0.87241 0.81733 0.0
C433 C 0.48633 0.85317 0.82961 0.0
C434 C 0.54626 0.84832 0.85917 0.0
C435 C 0.55289 0.77257 0.86567 0.0
C436 C 0.53737 0.7931 0.86271 0.0
C437 C 0.51731 0.85847 0.83562 0.0
C438 C 0.52007 0.836 0.84724 0.0
H439 H 0.5294 0.6913 0.86763 0.0
H440 H 0.5082 0.72886 0.87201 0.0
H441 H 0.57686 0.83736 0.87497 0.0
H442 H 0.5666 0.9211 0.812 0.0
H443 H 0.57027 0.88747 0.83317 0.0
C444 C 0.87157 0.50701 0.18525 0.0
C445 C 0.88692 0.54044 0.1813 0.0
C446 C 0.83829 0.49004 0.18867 0.0
C447 C 0.76748 0.46093 0.17531 0.0
H448 H 0.71908 0.49964 0.19329 0.0
C449 C 0.66272 0.4885 0.15126 0.0
C450 C 0.63852 0.45816 0.14399 0.0
C451 C 0.68729 0.49017 0.16202 0.0
C452 C 0.73213 0.48819 0.18836 0.0
H453 H 0.88053 0.58317 0.17965 0.0
H454 H 0.82269 0.55374 0.18568 0.0
H455 H 0.77626 0.51931 0.20308 0.0
H456 H 0.6208 0.40559 0.14254 0.0
H457 H 0.66463 0.40864 0.16125 0.0
H458 H 0.7246 0.43201 0.15956 0.0
C459 C 0.83625 0.54054 0.18616 0.0
C460 C 0.76476 0.49938 0.194 0.0
C461 C 0.86945 0.55745 0.18264 0.0
C462 C 0.63933 0.42936 0.14784 0.0
C463 C 0.66419 0.43106 0.15864 0.0
C464 C 0.73494 0.44991 0.1696 0.0
C465 C 0.81991 0.50631 0.18835 0.0
C466 C 0.78334 0.48728 0.1868 0.0
C467 C 0.68853 0.46158 0.16576 0.0
C468 C 0.71775 0.46499 0.17533 0.0
H469 H 0.88475 0.49347 0.18475 0.0
H470 H 0.82639 0.46376 0.19053 0.0
H471 H 0.78117 0.45117 0.16948 0.0
H472 H 0.66328 0.51127 0.14829 0.0
H473 H 0.70624 0.51423 0.16685 0.0
C474 C 0.34527 0.88957 0.52741 0.0
C475 C 0.37823 0.89687 0.5271 0.0
C476 C 0.32109 0.85912 0.53252 0.0
C477 C 0.30724 0.77772 0.52667 0.0
H478 H 0.21911 0.75798 0.53628 0.0
C479 C 0.19324 0.67583 0.49102 0.0
C480 C 0.17536 0.68944 0.48349 0.0
C481 C 0.21572 0.69245 0.50416 0.0
C482 C 0.24362 0.76275 0.53383 0.0
H483 H 0.41255 0.88014 0.53433 0.0
H484 H 0.36996 0.82637 0.54285 0.0
H485 H 0.26713 0.80711 0.54867 0.0
H486 H 0.16685 0.73098 0.484 0.0
H487 H 0.20572 0.75973 0.5068 0.0
H488 H 0.28381 0.73516 0.5107 0.0
C489 C 0.36284 0.84409 0.53895 0.0
C490 C 0.27109 0.7908 0.54095 0.0
C491 C 0.38713 0.87475 0.53393 0.0
C492 C 0.17979 0.71953 0.48964 0.0
C493 C 0.20193 0.73591 0.50282 0.0
C494 C 0.2798 0.74965 0.5196 0.0
C495 C 0.32932 0.83521 0.5373 0.0
C496 C 0.30298 0.80002 0.53632 0.0
C497 C 0.22043 0.72279 0.51011 0.0
C498 C 0.24779 0.74351 0.52211 0.0
H499 H 0.33742 0.90591 0.52225 0.0
H500 H 0.29553 0.85315 0.53097 0.0
H501 H 0.33144 0.78394 0.52287 0.0
H502 H 0.1899 0.65235 0.48676 0.0
H503 H 0.2298 0.6819 0.50952 0.0
C504 C 0.56081 0.35346 0.85889 0.0
C505 C 0.5294 0.34755 0.85318 0.0
C506 C 0.56551 0.32717 0.86311 0.0
C507 C 0.52132 0.23522 0.86573 0.0
H508 H 0.58321 0.24253 0.83447 0.0
C509 C 0.49042 0.13646 0.81779 0.0
C510 C 0.51522 0.13242 0.81115 0.0
C511 C 0.49843 0.16003 0.83017 0.0
C512 C 0.56647 0.23995 0.84363 0.0
H513 H 0.47769 0.30987 0.8492 0.0
H514 H 0.48577 0.26453 0.85654 0.0
H515 H 0.58691 0.29203 0.84586 0.0
H516 H 0.56757 0.14834 0.81291 0.0
H517 H 0.58167 0.18995 0.83444 0.0
H518 H 0.49922 0.18284 0.86237 0.0
C519 C 0.50687 0.28929 0.85788 0.0
C520 C 0.56867 0.26849 0.85024 0.0
C521 C 0.50222 0.31544 0.85358 0.0
C522 C 0.54805 0.15151 0.81755 0.0
C523 C 0.55608 0.17508 0.82997 0.0
C524 C 0.51912 0.20662 0.8591 0.0
C525 C 0.53883 0.29462 0.86176 0.0
C526 C 0.5446 0.26633 0.86042 0.0
C527 C 0.53143 0.18001 0.8362 0.0
C528 C 0.54024 0.20878 0.84713 0.0
H529 H 0.58211 0.37812 0.85917 0.0
H530 H 0.59034 0.33205 0.86629 0.0
H531 H 0.50289 0.23288 0.87384 0.0
H532 H 0.46494 0.12221 0.81305 0.0
H533 H 0.47893 0.16369 0.83443 0.0
C534 C 0.59387 0.95429 0.49057 0.0
C535 C 0.56509 0.95692 0.49169 0.0
C536 C 0.5938 0.92403 0.49301 0.0
C537 C 0.54101 0.83554 0.50858 0.0
H538 H 0.6072 0.82083 0.49018 0.0
C539 C 0.53445 0.70518 0.51316 0.0
C540 C 0.56333 0.70231 0.51303 0.0
C541 C 0.53491 0.73552 0.51051 0.0
C542 C 0.58852 0.82416 0.49568 0.0
H543 H 0.51327 0.92752 0.49637 0.0
H544 H 0.51288 0.87564 0.50027 0.0
H545 H 0.60737 0.87234 0.48581 0.0
H546 H 0.61586 0.73211 0.50972 0.0
H547 H 0.61662 0.78395 0.5051 0.0
H548 H 0.52212 0.78734 0.51841 0.0
C549 C 0.5361 0.8971 0.49776 0.0
C550 C 0.58862 0.85442 0.49312 0.0
C551 C 0.53621 0.92738 0.49534 0.0
C552 C 0.59266 0.73197 0.50983 0.0
C553 C 0.5931 0.76238 0.50714 0.0
C554 C 0.54087 0.80528 0.5111 0.0
C555 C 0.56492 0.89433 0.49671 0.0
C556 C 0.56485 0.86121 0.49948 0.0
C557 C 0.56425 0.76525 0.50747 0.0
C558 C 0.56459 0.79848 0.50473 0.0
H559 H 0.6169 0.97591 0.48791 0.0
H560 H 0.61697 0.92433 0.49221 0.0
H561 H 0.52237 0.83881 0.51414 0.0
H562 H 0.51084 0.68369 0.51512 0.0
H563 H 0.51167 0.73528 0.51061 0.0
C564 C 0.66056 0.51709 0.81928 0.0
C565 C 0.65756 0.54471 0.82376 0.0
C566 C 0.69097 0.51693 0.82162 0.0
C567 C 0.78483 0.57339 0.83402 0.0
H568 H 0.78386 0.49031 0.83379 0.0
C569 C 0.91144 0.57042 0.84062 0.0
C570 C 0.91212 0.54179 0.84563 0.0
C571 C 0.88128 0.57096 0.83774 0.0
C572 C 0.78531 0.51409 0.83414 0.0
H573 H 0.68621 0.59402 0.83461 0.0
H574 H 0.73794 0.59363 0.83902 0.0
H575 H 0.7325 0.49079 0.83005 0.0
H576 H 0.87839 0.49059 0.85086 0.0
H577 H 0.82766 0.49192 0.84669 0.0
H578 H 0.83757 0.59661 0.83872 0.0
C579 C 0.7171 0.5719 0.83326 0.0
C580 C 0.75501 0.51439 0.83166 0.0
C581 C 0.68676 0.57213 0.83078 0.0
C582 C 0.88046 0.51372 0.8474 0.0
C583 C 0.85041 0.51434 0.84466 0.0
C584 C 0.81513 0.57308 0.83663 0.0
C585 C 0.72036 0.5443 0.82875 0.0
C586 C 0.75362 0.54404 0.83149 0.0
C587 C 0.84964 0.54295 0.83973 0.0
C588 C 0.8165 0.54341 0.83679 0.0
H589 H 0.63922 0.49527 0.81382 0.0
H590 H 0.69117 0.49503 0.81756 0.0
H591 H 0.78632 0.59718 0.83386 0.0
H592 H 0.9344 0.59301 0.83908 0.0
H593 H 0.88314 0.59375 0.83379 0.0
C594 C 0.16492 0.67447 0.16397 0.0
C595 C 0.16295 0.64455 0.15881 0.0
C596 C 0.19564 0.70467 0.16637 0.0
C597 C 0.29128 0.74167 0.1681 0.0
H598 H 0.29191 0.82458 0.17009 0.0
C599 C 0.41771 0.86775 0.18316 0.0
C600 C 0.42141 0.89918 0.17991 0.0
C601 C 0.38702 0.83765 0.18049 0.0
C602 C 0.29296 0.80204 0.16946 0.0
H603 H 0.19402 0.62479 0.15217 0.0
H604 H 0.24659 0.6765 0.1558 0.0
H605 H 0.24006 0.77337 0.16541 0.0
H606 H 0.39252 0.9209 0.17078 0.0
H607 H 0.34054 0.86957 0.16563 0.0
H608 H 0.34424 0.77038 0.17151 0.0
C609 C 0.22443 0.67699 0.15841 0.0
C610 C 0.26229 0.77175 0.16694 0.0
C611 C 0.19365 0.64669 0.15615 0.0
C612 C 0.39212 0.89815 0.17351 0.0
C613 C 0.36139 0.86793 0.1707 0.0
C614 C 0.32196 0.77197 0.17048 0.0
C615 C 0.22658 0.70713 0.16364 0.0
C616 C 0.26026 0.74039 0.16623 0.0
C617 C 0.35766 0.83653 0.17417 0.0
C618 C 0.32398 0.80333 0.17132 0.0
H619 H 0.14244 0.67465 0.16635 0.0
H620 H 0.19475 0.72607 0.17065 0.0
H621 H 0.29227 0.71909 0.16791 0.0
H622 H 0.43873 0.86587 0.18775 0.0
H623 H 0.38665 0.81513 0.18368 0.0
C624 C 0.54046 0.15037 0.48714 0.0
C625 C 0.56841 0.14682 0.49094 0.0
C626 C 0.54094 0.18088 0.48964 0.0
C627 C 0.59294 0.26872 0.50999 0.0
H628 H 0.52922 0.28479 0.48633 0.0
C629 C 0.60025 0.39961 0.51548 0.0
C630 C 0.57161 0.40275 0.51308 0.0
C631 C 0.59979 0.36921 0.51271 0.0
C632 C 0.54719 0.28108 0.49331 0.0
H633 H 0.61932 0.17495 0.50048 0.0
H634 H 0.62052 0.22738 0.50447 0.0
H635 H 0.52889 0.23318 0.48176 0.0
H636 H 0.51949 0.37331 0.50554 0.0
H637 H 0.51874 0.32139 0.5007 0.0
H638 H 0.61132 0.31675 0.52146 0.0
C639 C 0.59755 0.20638 0.49977 0.0
C640 C 0.547 0.25073 0.49065 0.0
C641 C 0.597 0.17579 0.49732 0.0
C642 C 0.54252 0.37328 0.50749 0.0
C643 C 0.54208 0.34281 0.50466 0.0
C644 C 0.5932 0.2991 0.51261 0.0
C645 C 0.56948 0.21002 0.49607 0.0
C646 C 0.56984 0.24339 0.4989 0.0
C647 C 0.57069 0.33967 0.50726 0.0
C648 C 0.57032 0.30637 0.50437 0.0
H649 H 0.51767 0.12922 0.48231 0.0
H650 H 0.51828 0.18115 0.48671 0.0
H651 H 0.61089 0.26508 0.51703 0.0
H652 H 0.62371 0.42094 0.51936 0.0
H653 H 0.62286 0.36924 0.51465 0.0
C654 C 0.44202 0.52041 0.82959 0.0
C655 C 0.4709 0.54836 0.82458 0.0
C656 C 0.41227 0.52089 0.83208 0.0
C657 C 0.37564 0.57935 0.83485 0.0
H658 H 0.29282 0.49706 0.83542 0.0
C659 C 0.25237 0.57879 0.85084 0.0
C660 C 0.22028 0.55151 0.8468 0.0
C661 C 0.28198 0.57832 0.848 0.0
C662 C 0.31534 0.52064 0.8352 0.0
H663 H 0.48927 0.59914 0.81831 0.0
H664 H 0.4382 0.59995 0.82216 0.0
H665 H 0.34323 0.49659 0.83052 0.0
H666 H 0.19672 0.50189 0.83607 0.0
H667 H 0.24718 0.50148 0.83068 0.0
H668 H 0.34759 0.60346 0.83894 0.0
C669 C 0.4383 0.57733 0.82455 0.0
C670 C 0.34517 0.52036 0.83256 0.0
C671 C 0.46818 0.57688 0.82217 0.0
C672 C 0.22005 0.52386 0.83944 0.0
C673 C 0.24976 0.52347 0.83649 0.0
C674 C 0.34578 0.57964 0.83739 0.0
C675 C 0.40923 0.54933 0.82962 0.0
C676 C 0.37648 0.54969 0.83235 0.0
C677 C 0.28185 0.55066 0.84073 0.0
C678 C 0.31451 0.5503 0.83772 0.0
H679 H 0.44235 0.4978 0.83178 0.0
H680 H 0.39172 0.49862 0.83623 0.0
H681 H 0.3983 0.60289 0.83507 0.0
H682 H 0.25511 0.60121 0.8562 0.0
H683 H 0.30516 0.60003 0.85181 0.0
C684 C 0.97285 0.42884 0.16333 0.0
C685 C 0.97321 0.45709 0.15705 0.0
C686 C 0.94283 0.399 0.1659 0.0
C687 C 0.84741 0.36148 0.16651 0.0
H688 H 0.84784 0.27941 0.17055 0.0
C689 C 0.7253 0.23874 0.18297 0.0
C690 C 0.72067 0.20666 0.18 0.0
C691 C 0.75528 0.26826 0.18007 0.0
C692 C 0.84652 0.30172 0.16934 0.0
H693 H 0.93998 0.47419 0.14861 0.0
H694 H 0.8886 0.42308 0.1526 0.0
H695 H 0.89855 0.32978 0.16553 0.0
H696 H 0.74697 0.18306 0.17112 0.0
H697 H 0.79771 0.23337 0.16564 0.0
H698 H 0.79522 0.33331 0.16976 0.0
C699 C 0.91157 0.42371 0.15593 0.0
C700 C 0.87652 0.33152 0.16662 0.0
C701 C 0.94163 0.45361 0.15344 0.0
C702 C 0.74819 0.20637 0.17364 0.0
C703 C 0.7782 0.236 0.17064 0.0
C704 C 0.8174 0.33168 0.16914 0.0
C705 C 0.91104 0.39529 0.16229 0.0
C706 C 0.87811 0.36255 0.16515 0.0
C707 C 0.78291 0.26807 0.17381 0.0
C708 C 0.81582 0.30067 0.17071 0.0
H709 H 0.99607 0.42977 0.16649 0.0
H710 H 0.94494 0.37894 0.17104 0.0
H711 H 0.84623 0.38393 0.16574 0.0
H712 H 0.70554 0.24151 0.18752 0.0
H713 H 0.75659 0.29143 0.18303 0.0
C714 C 0.07524 0.576 0.09297 0.0
C715 C 0.0681 0.5479 0.10183 0.0
C716 C 0.07586 0.57522 0.07609 0.0
C717 C 0.04444 0.5187 0.03987 0.0
H718 H 0.11523 0.59177 0.01906 0.0
C719 C 0.05651 0.51478 0.97048 0.0
C720 C 0.06988 0.54447 0.96223 0.0
C721 C 0.05666 0.51486 0.98741 0.0
C722 C 0.09487 0.57131 0.02453 0.0
H723 H 0.05573 0.49673 0.0996 0.0
H724 H 0.05625 0.49522 0.07014 0.0
H725 H 0.11442 0.59255 0.04833 0.0
H726 H 0.09331 0.59757 0.96555 0.0
H727 H 0.09273 0.5978 -0.00516 0.0
H728 H 1.02428 0.49777 0.01617 0.0
C729 C 0.06149 0.51796 0.07631 0.0
C730 C 0.09454 0.57173 0.04144 0.0
C731 C 0.06137 0.51888 0.09325 0.0
C732 C 0.08323 0.57423 0.97145 0.0
C733 C 0.08299 0.57431 0.98836 0.0
C734 C 0.0445 0.51846 0.02294 0.0
C735 C 0.06889 0.54617 0.06747 0.0
C736 C 0.06934 0.54545 0.04939 0.0
C737 C 0.06981 0.54463 -0.00329 0.0
C738 C 0.06974 0.54477 0.01492 0.0
H739 H 0.0806 0.59883 0.0991 0.0
H740 H 0.08134 0.59734 0.06975 0.0
H741 H 1.02439 0.49819 0.04551 0.0
H742 H 0.04638 0.49138 0.96384 0.0
H743 H 0.04684 0.49143 0.99319 0.0
C744 C 0.60045 0.07966 0.42861 0.0
C745 C 0.57105 0.05742 0.43571 0.0
C746 C 0.6019 0.08107 0.41171 0.0
C747 C 0.5471 0.05456 0.37323 0.0
H748 H 0.62792 0.07456 0.35332 0.0
C749 C 0.55065 0.03594 0.30416 0.0
C750 C 0.57758 0.06038 0.29623 0.0
C751 C 0.55039 0.03654 0.32107 0.0
C752 C 0.60519 0.06922 0.35866 0.0
H753 H 0.52022 1.01881 0.43028 0.0
H754 H 0.52293 1.02057 0.4012 0.0
H755 H 0.6266 0.07371 0.38265 0.0
H756 H 0.62565 0.10445 0.3002 0.0
H757 H 0.62528 0.10538 0.32965 0.0
H758 H 0.52557 0.04942 0.34921 0.0
C759 C 0.54479 0.03772 0.40855 0.0
C760 C 0.60443 0.06882 0.37558 0.0
C761 C 0.54328 0.03652 0.42538 0.0
C762 C 0.60435 0.08534 0.3058 0.0
C763 C 0.60427 0.08571 0.32274 0.0
C764 C 0.54779 0.05463 0.35635 0.0
C765 C 0.57405 0.0601 0.40135 0.0
C766 C 0.5753 0.06134 0.3832 0.0
C767 C 0.57721 0.06138 0.33065 0.0
C768 C 0.5768 0.06186 0.34876 0.0
H769 H 0.62236 0.09625 0.4361 0.0
H770 H 0.62483 0.09901 0.40681 0.0
H771 H 0.52434 0.04947 0.37845 0.0
H772 H 0.52944 1.01648 0.29727 0.0
H773 H 0.52923 1.01719 0.32665 0.0
C774 C 0.59215 0.57353 0.76071 0.0
C775 C 0.56337 0.55112 0.76818 0.0
C776 C 0.59283 0.57424 0.74379 0.0
C777 C 0.54547 0.52427 0.70586 0.0
H778 H 0.60181 0.60581 0.68506 0.0
C779 C 0.53678 0.53753 0.63629 0.0
C780 C 0.56668 0.55407 0.62856 0.0
C781 C 0.5366 0.53733 0.65321 0.0
C782 C 0.58609 0.58274 0.69066 0.0
H783 H 0.5124 0.51241 0.76345 0.0
H784 H 0.51309 0.51442 0.73424 0.0
H785 H 0.60076 0.60556 0.71437 0.0
H786 H 0.61988 0.58391 0.63283 0.0
H787 H 0.61954 0.58389 0.66229 0.0
H788 H 0.53026 0.50176 0.68202 0.0
C789 C 0.53568 0.53083 0.74132 0.0
C790 C 0.58556 0.58251 0.70758 0.0
C791 C 0.53516 0.52983 0.7582 0.0
C792 C 0.59638 0.57068 0.6383 0.0
C793 C 0.59617 0.57091 0.65523 0.0
C794 C 0.54568 0.52463 0.68895 0.0
C795 C 0.5646 0.55283 0.73374 0.0
C796 C 0.56525 0.55324 0.71554 0.0
C797 C 0.56628 0.55409 0.66296 0.0
C798 C 0.56603 0.55384 0.68107 0.0
H799 H 0.61445 0.59019 0.76794 0.0
H800 H 0.61584 0.59124 0.73864 0.0
H801 H 0.53002 0.50096 0.7113 0.0
H802 H 0.51342 0.52427 0.62924 0.0
H803 H 0.51307 0.52431 0.65868 0.0
C804 C 0.57828 0.03071 0.54578 0.0
C805 C 0.56193 0.04453 0.53704 0.0
C806 C 0.576 1.02776 0.56248 0.0
C807 C 0.56144 0.0634 0.59811 0.0
H808 H 0.5296 0.97767 0.61659 0.0
C809 C 0.51888 0.04016 0.66265 0.0
C810 C 0.52502 1.01867 0.67193 0.0
C811 C 0.52503 0.04329 0.64632 0.0
C812 C 0.5391 1.00193 0.61171 0.0
H813 H 0.53096 0.06667 0.53889 0.0
H814 H 0.52765 0.06218 0.56803 0.0
H815 H 0.53894 0.98389 0.58787 0.0
H816 H 0.54262 0.98376 0.67155 0.0
H817 H 0.55438 0.98987 0.64309 0.0
H818 H 0.56226 0.08179 0.62182 0.0
C819 C 0.54197 0.05342 0.56197 0.0
C820 C 0.54433 1.0054 0.59526 0.0
C821 C 0.54374 0.05581 0.5453 0.0
C822 C 0.53739 1.00027 0.66459 0.0
C823 C 0.544 1.00373 0.64828 0.0
C824 C 0.5567 0.06008 0.61458 0.0
C825 C 0.55791 0.03922 0.57069 0.0
C826 C 0.55503 0.03605 0.58829 0.0
C827 C 0.53796 1.02535 0.63893 0.0
C828 C 0.5449 0.02918 0.62156 0.0
H829 H 0.59237 1.0217 0.5397 0.0
H830 H 0.58855 1.0168 0.56899 0.0
H831 H 0.57008 0.08738 0.59301 0.0
H832 H 0.50894 0.05431 0.668 0.0
H833 H 0.51927 0.05955 0.63945 0.0
C834 C 0.55569 0.55675 0.87843 0.0
C835 C 0.56694 0.54002 0.86881 0.0
C836 C 0.55461 0.55282 0.89511 0.0
C837 C 0.55438 0.49584 0.92608 0.0
H838 H 0.57021 0.5673 0.95577 0.0
C839 C 0.52749 0.47375 0.99306 0.0
C840 C 0.54857 0.4986 0.00449 0.0
C841 C 0.53038 0.47946 0.97659 0.0
C842 C 0.5661 0.54716 0.94768 0.0
H843 H 0.58724 0.50725 0.86913 0.0
H844 H 0.58659 0.5014 0.89814 0.0
H845 H 0.57566 0.57701 0.92708 0.0
H846 H 0.58962 0.54865 0.00776 0.0
H847 H 0.59552 0.55839 0.979 0.0
H848 H 0.54617 0.46636 0.94668 0.0
C849 C 0.57743 0.5166 0.89286 0.0
C850 C 0.56874 0.5526 0.93117 0.0
C851 C 0.57803 0.52014 0.87621 0.0
C852 C 0.57287 0.52917 -0.00083 0.0
C853 C 0.57608 0.53477 0.98269 0.0
C854 C 0.55215 0.49052 0.94258 0.0
C855 C 0.5652 0.53244 0.90251 0.0
C856 C 0.56282 0.52698 0.92014 0.0
C857 C 0.55475 0.51004 0.97118 0.0
C858 C 0.5578 0.51603 0.95361 0.0
H859 H 0.54686 0.57215 0.87303 0.0
H860 H 0.54467 0.5651 0.9021 0.0
H861 H 0.54909 0.47531 0.91798 0.0
H862 H 0.50823 0.45011 -0.00314 0.0
H863 H 0.51307 0.46004 0.96813 0.0
C864 C 0.09109 0.54747 0.21209 0.0
C865 C 0.06868 0.55318 0.20273 0.0
C866 C 0.09056 0.5473 0.22891 0.0
C867 C 1.03641 0.53967 0.26176 0.0
H868 H 0.11819 0.57944 0.28868 0.0
C869 C 1.0429 0.57478 0.32875 0.0
C870 C 0.06039 0.56527 0.33962 0.0
C871 C 0.04434 0.57159 0.31215 0.0
C872 C 0.09518 0.56795 0.28129 0.0
H873 H 1.02866 0.56392 0.20364 0.0
H874 H 1.02835 0.56454 0.23284 0.0
H875 H 0.12008 0.57729 0.25937 0.0
H876 H 0.09325 0.545 0.34145 0.0
H877 H 0.0964 0.5403 0.31236 0.0
H878 H 1.01164 0.53126 0.28367 0.0
C879 C 0.04573 0.55925 0.22726 0.0
C880 C 0.09621 0.56663 0.26452 0.0
C881 C 0.04607 0.55913 0.2105 0.0
C882 C 0.07981 0.55297 0.33345 0.0
C883 C 0.08155 0.55014 0.3168 0.0
C884 C 1.03543 0.54132 0.27847 0.0
C885 C 0.06776 0.55306 0.23669 0.0
C886 C 0.06683 0.55284 0.25454 0.0
C887 C 0.0636 0.55919 0.30602 0.0
C888 C 0.06479 0.5558 0.28838 0.0
H889 H 0.10872 0.54266 0.20642 0.0
H890 H 0.10766 0.54213 0.23578 0.0
H891 H 1.01326 0.52813 0.25449 0.0
H892 H 1.02832 0.58507 0.33303 0.0
H893 H 1.0307 0.57926 0.30408 0.0
loop_
_geom_bond_atom_site_label_1
_geom_bond_atom_site_label_2
_geom_bond_distance
_geom_bond_site_symmetry_2
_ccdc_geom_bond_type
Tb0 C10 2.825 . S
Tb0 O11 2.347 . S
Tb0 O14 2.366 . S
Tb0 O19 2.418 . S
Tb0 O20 2.384 1_455 S
Tb0 O23 2.479 . S
Tb0 O24 2.471 . S
Eu1 O12 2.418 . S
Eu1 O13 2.384 . S
Eu1 O16 2.479 1_455 S
Eu1 O17 2.471 1_455 S
Eu1 O18 2.347 . S
Eu1 O21 2.366 1_455 S
Eu1 C31 2.825 1_455 S
C2 O18 1.259 . S
C2 O19 1.265 . S
C3 O20 1.255 . S
C3 O21 1.265 . S
C4 C6 1.380 . S
C4 C7 1.374 . S
C4 C10 1.507 . S
C5 C6 1.384 . S
C5 C9 1.387 . S
C5 H32 0.930 . S
C6 C4 1.380 . S
C6 C5 1.384 . S
C6 H33 0.931 . S
C7 C4 1.374 . S
C7 C8 1.390 . S
C7 H34 0.930 . S
C8 C7 1.390 . S
C8 C9 1.391 . S
C8 H35 0.930 . S
C9 C5 1.387 . S
C9 C8 1.391 . S
C10 Tb0 2.825 . S
C10 C4 1.507 . S
C10 O23 1.238 . S
C10 O24 1.247 . S
O11 Tb0 2.347 . S
O11 C15 1.259 . S
O12 Eu1 2.418 . S
O12 C15 1.265 . S
O13 Eu1 2.384 . S
O13 C22 1.255 . S
O14 Tb0 2.366 . S
O14 C22 1.265 . S
C15 O11 1.259 . S
C15 O12 1.265 . S
O16 Eu1 2.479 1_655 S
O16 C31 1.238 . S
O17 Eu1 2.471 1_655 S
O17 C31 1.247 . S
O18 Eu1 2.347 . S
O18 C2 1.259 . S
O19 Tb0 2.418 . S
O19 C2 1.265 . S
O20 Tb0 2.384 1_655 S
O20 C3 1.255 . S
O21 Eu1 2.366 1_655 S
O21 C3 1.265 . S
C22 O13 1.255 . S
C22 O14 1.265 . S
O23 Tb0 2.479 . S
O23 C10 1.238 . S
O24 Tb0 2.471 . S
O24 C10 1.247 . S
C25 C28 1.380 . S
C25 C29 1.374 . S
C25 C31 1.507 . S
C26 C27 1.387 . S
C26 C30 1.391 . S
C27 C26 1.387 . S
C27 C28 1.384 . S
C27 H36 0.930 . S
C28 C25 1.380 . S
C28 C27 1.384 . S
C28 H37 0.931 . S
C29 C25 1.374 . S
C29 C30 1.390 . S
C29 H38 0.930 . S
C30 C26 1.391 . S
C30 C29 1.390 . S
C30 H39 0.930 . S
C31 Eu1 2.825 1_655 S
C31 O16 1.238 . S
C31 O17 1.247 . S
C31 C25 1.507 . S
H32 C5 0.930 . S
H33 C6 0.931 . S
H34 C7 0.930 . S
H35 C8 0.930 . S
H36 C27 0.930 . S
H37 C28 0.931 . S
H38 C29 0.930 . S
H39 C30 0.930 . S
Tb40 C50 2.825 . S
Tb40 O51 2.347 . S
Tb40 O54 2.366 . S
Tb40 O59 2.418 . S
Tb40 O60 2.384 . S
Tb40 O63 2.479 . S
Tb40 O64 2.471 . S
Eu41 O52 2.418 . S
Eu41 O53 2.384 . S
Eu41 O56 2.479 1_545 S
Eu41 O57 2.471 1_545 S
Eu41 O58 2.347 . S
Eu41 O61 2.366 1_545 S
Eu41 C71 2.825 1_545 S
C42 O58 1.259 . S
C42 O59 1.265 . S
C43 O60 1.255 1_565 S
C43 O61 1.265 . S
C44 C46 1.380 . S
C44 C47 1.374 . S
C44 C50 1.507 . S
C45 C46 1.384 . S
C45 C49 1.387 . S
C45 H72 0.930 . S
C46 C44 1.380 . S
C46 C45 1.384 . S
C46 H73 0.931 . S
C47 C44 1.374 . S
C47 C48 1.390 . S
C47 H74 0.930 . S
C48 C47 1.390 . S
C48 C49 1.391 . S
C48 H75 0.930 . S
C49 C45 1.387 . S
C49 C48 1.391 . S
C50 Tb40 2.825 . S
C50 C44 1.507 . S
C50 O63 1.238 . S
C50 O64 1.247 . S
O51 Tb40 2.347 . S
O51 C55 1.259 . S
O52 Eu41 2.418 . S
O52 C55 1.265 . S
O53 Eu41 2.384 . S
O53 C62 1.255 . S
O54 Tb40 2.366 . S
O54 C62 1.265 . S
C55 O51 1.259 . S
C55 O52 1.265 . S
O56 Eu41 2.479 1_565 S
O56 C71 1.238 . S
O57 Eu41 2.471 1_565 S
O57 C71 1.247 . S
O58 Eu41 2.347 . S
O58 C42 1.259 . S
O59 Tb40 2.418 . S
O59 C42 1.265 . S
O60 Tb40 2.384 . S
O60 C43 1.255 1_545 S
O61 Eu41 2.366 1_565 S
O61 C43 1.265 . S
C62 O53 1.255 . S
C62 O54 1.265 . S
O63 Tb40 2.479 . S
O63 C50 1.238 . S
O64 Tb40 2.471 . S
O64 C50 1.247 . S
C65 C68 1.380 . S
C65 C69 1.374 . S
C65 C71 1.507 . S
C66 C67 1.387 . S
C66 C70 1.391 . S
C67 C66 1.387 . S
C67 C68 1.384 . S
C67 H76 0.930 . S
C68 C65 1.380 . S
C68 C67 1.384 . S
C68 H77 0.931 . S
C69 C65 1.374 . S
C69 C70 1.390 . S
C69 H78 0.930 . S
C70 C66 1.391 . S
C70 C69 1.390 . S
C70 H79 0.930 . S
C71 Eu41 2.825 1_565 S
C71 O56 1.238 . S
C71 O57 1.247 . S
C71 C65 1.507 . S
H72 C45 0.930 . S
H73 C46 0.931 . S
H74 C47 0.930 . S
H75 C48 0.930 . S
H76 C67 0.930 . S
H77 C68 0.931 . S
H78 C69 0.930 . S
H79 C70 0.930 . S
Tb80 C90 2.825 . S
Tb80 O91 2.347 . S
Tb80 O94 2.366 . S
Tb80 O99 2.418 . S
Tb80 O100 2.384 . S
Tb80 O103 2.479 . S
Tb80 O104 2.471 . S
Eu81 O92 2.418 . S
Eu81 O93 2.384 . S
Eu81 O96 2.479 . S
Eu81 O97 2.471 . S
Eu81 O98 2.347 . S
Eu81 O101 2.366 . S
Eu81 C111 2.825 . S
C82 O98 1.259 . S
C82 O99 1.265 . S
C83 O100 1.255 . S
C83 O101 1.265 . S
C84 C86 1.380 . S
C84 C87 1.374 . S
C84 C90 1.507 . S
C85 C86 1.384 . S
C85 C89 1.387 . S
C85 H112 0.930 . S
C86 C84 1.380 . S
C86 C85 1.384 . S
C86 H113 0.931 . S
C87 C84 1.374 . S
C87 C88 1.390 . S
C87 H114 0.930 . S
C88 C87 1.390 . S
C88 C89 1.391 . S
C88 H115 0.930 . S
C89 C85 1.387 . S
C89 C88 1.391 . S
C90 Tb80 2.825 . S
C90 C84 1.507 . S
C90 O103 1.238 . S
C90 O104 1.247 . S
O91 Tb80 2.347 . S
O91 C95 1.259 . S
O92 Eu81 2.418 . S
O92 C95 1.265 . S
O93 Eu81 2.384 . S
O93 C102 1.255 . S
O94 Tb80 2.366 . S
O94 C102 1.265 . S
C95 O91 1.259 . S
C95 O92 1.265 . S
O96 Eu81 2.479 . S
O96 C111 1.238 . S
O97 Eu81 2.471 . S
O97 C111 1.247 . S
O98 Eu81 2.347 . S
O98 C82 1.259 . S
O99 Tb80 2.418 . S
O99 C82 1.265 . S
O100 Tb80 2.384 . S
O100 C83 1.255 . S
O101 Eu81 2.366 . S
O101 C83 1.265 . S
C102 O93 1.255 . S
C102 O94 1.265 . S
O103 Tb80 2.479 . S
O103 C90 1.238 . S
O104 Tb80 2.471 . S
O104 C90 1.247 . S
C105 C108 1.380 . S
C105 C109 1.374 . S
C105 C111 1.507 . S
C106 C107 1.387 . S
C106 C110 1.391 . S
C107 C106 1.387 . S
C107 C108 1.384 . S
C107 H116 0.930 . S
C108 C105 1.380 . S
C108 C107 1.384 . S
C108 H117 0.931 . S
C109 C105 1.374 . S
C109 C110 1.390 . S
C109 H118 0.930 . S
C110 C106 1.391 . S
C110 C109 1.390 . S
C110 H119 0.930 . S
C111 Eu81 2.825 . S
C111 O96 1.238 . S
C111 O97 1.247 . S
C111 C105 1.507 . S
H112 C85 0.930 . S
H113 C86 0.931 . S
H114 C87 0.930 . S
H115 C88 0.930 . S
H116 C107 0.930 . S
H117 C108 0.931 . S
H118 C109 0.930 . S
H119 C110 0.930 . S
C120 C121 1.386 . S
C120 C122 1.397 . S
C120 H144 0.931 . S
C121 C120 1.386 . S
C121 C125 1.397 1_545 S
C122 C120 1.397 . S
C122 C123 1.384 . S
C122 H145 0.930 . S
C123 C122 1.384 . S
C123 C124 1.377 1_545 S
C123 C126 1.481 . S
C124 C123 1.377 1_565 S
C124 C125 1.389 . S
C124 H146 0.929 . S
C125 C121 1.397 1_565 S
C125 C124 1.389 . S
C125 H147 0.931 . S
C126 C123 1.481 . S
C126 C127 1.387 . S
C126 C131 1.390 1_545 S
C127 C126 1.387 . S
C127 C128 1.401 . S
C127 H148 0.930 . S
C128 C127 1.401 . S
C128 C129 1.376 . S
C128 C137 1.511 . S
C129 C128 1.376 . S
C129 C130 1.392 1_545 S
C129 H150 0.931 . S
C130 C129 1.392 1_565 S
C130 C131 1.361 . S
C130 C132 1.500 . S
C131 C126 1.390 1_565 S
C131 C130 1.361 . S
C131 H149 0.931 . S
C132 C130 1.500 . S
C132 C133 1.371 . S
C132 C134 1.365 . S
C133 C132 1.371 . S
C133 C143 1.386 . S
C133 H151 0.931 . S
C134 C132 1.365 . S
C134 C135 1.409 . S
C134 H152 0.929 . S
C135 C134 1.409 . S
C135 C136 1.380 . S
C135 H153 0.930 . S
C136 C135 1.380 . S
C136 C143 1.357 . S
C137 C128 1.511 . S
C137 C138 1.341 . S
C137 C139 1.371 . S
C138 C137 1.341 . S
C138 C142 1.394 . S
C138 H154 0.930 . S
C139 C137 1.371 . S
C139 C140 1.392 . S
C139 H155 0.931 . S
C140 C139 1.392 . S
C140 C141 1.331 . S
C140 H158 0.932 . S
C141 C140 1.331 . S
C141 C142 1.336 . S
C142 C138 1.394 . S
C142 C141 1.336 . S
C142 H157 0.929 . S
C143 C133 1.386 . S
C143 C136 1.357 . S
C143 H156 0.928 . S
H144 C120 0.931 . S
H145 C122 0.930 . S
H146 C124 0.929 . S
H147 C125 0.931 . S
H148 C127 0.930 . S
H149 C131 0.931 . S
H150 C129 0.931 . S
H151 C133 0.931 . S
H152 C134 0.929 . S
H153 C135 0.930 . S
H154 C138 0.930 . S
H155 C139 0.931 . S
H156 C143 0.928 . S
H157 C142 0.929 . S
H158 C140 0.932 . S
C159 C160 1.386 . S
C159 C161 1.397 . S
C159 H183 0.931 . S
C160 C159 1.386 . S
C160 C164 1.397 . S
C161 C159 1.397 . S
C161 C162 1.384 . S
C161 H184 0.930 . S
C162 C161 1.384 . S
C162 C163 1.377 . S
C162 C165 1.481 . S
C163 C162 1.377 . S
C163 C164 1.389 . S
C163 H185 0.929 . S
C164 C160 1.397 . S
C164 C163 1.389 . S
C164 H186 0.931 . S
C165 C162 1.481 . S
C165 C166 1.387 . S
C165 C170 1.390 . S
C166 C165 1.387 . S
C166 C167 1.401 . S
C166 H187 0.930 . S
C167 C166 1.401 . S
C167 C168 1.376 . S
C167 C176 1.511 . S
C168 C167 1.376 . S
C168 C169 1.392 . S
C168 H189 0.931 . S
C169 C168 1.392 . S
C169 C170 1.361 . S
C169 C171 1.500 . S
C170 C165 1.390 . S
C170 C169 1.361 . S
C170 H188 0.931 . S
C171 C169 1.500 . S
C171 C172 1.371 . S
C171 C173 1.365 . S
C172 C171 1.371 . S
C172 C182 1.386 . S
C172 H190 0.931 . S
C173 C171 1.365 . S
C173 C174 1.409 . S
C173 H191 0.929 . S
C174 C173 1.409 . S
C174 C175 1.380 . S
C174 H192 0.930 . S
C175 C174 1.380 . S
C175 C182 1.357 . S
C176 C167 1.511 . S
C176 C177 1.341 . S
C176 C178 1.371 . S
C177 C176 1.341 . S
C177 C181 1.394 . S
C177 H193 0.930 . S
C178 C176 1.371 . S
C178 C179 1.392 . S
C178 H194 0.931 . S
C179 C178 1.392 . S
C179 C180 1.331 . S
C179 H197 0.932 . S
C180 C179 1.331 . S
C180 C181 1.336 . S
C181 C177 1.394 . S
C181 C180 1.336 . S
C181 H196 0.929 . S
C182 C172 1.386 . S
C182 C175 1.357 . S
C182 H195 0.928 . S
H183 C159 0.931 . S
H184 C161 0.930 . S
H185 C163 0.929 . S
H186 C164 0.931 . S
H187 C166 0.930 . S
H188 C170 0.931 . S
H189 C168 0.931 . S
H190 C172 0.931 . S
H191 C173 0.929 . S
H192 C174 0.930 . S
H193 C177 0.930 . S
H194 C178 0.931 . S
H195 C182 0.928 . S
H196 C181 0.929 . S
H197 C179 0.932 . S
C198 C199 1.386 . S
C198 C200 1.397 . S
C198 H222 0.931 . S
C199 C198 1.386 . S
C199 C203 1.397 1_455 S
C200 C198 1.397 . S
C200 C201 1.384 . S
C200 H223 0.930 . S
C201 C200 1.384 . S
C201 C202 1.377 1_455 S
C201 C204 1.481 . S
C202 C201 1.377 1_655 S
C202 C203 1.389 . S
C202 H224 0.929 . S
C203 C199 1.397 1_655 S
C203 C202 1.389 . S
C203 H225 0.931 . S
C204 C201 1.481 . S
C204 C205 1.387 . S
C204 C209 1.390 1_455 S
C205 C204 1.387 . S
C205 C206 1.401 . S
C205 H226 0.930 . S
C206 C205 1.401 . S
C206 C207 1.376 . S
C206 C215 1.511 . S
C207 C206 1.376 . S
C207 C208 1.392 1_455 S
C207 H228 0.931 . S
C208 C207 1.392 1_655 S
C208 C209 1.361 . S
C208 C210 1.500 . S
C209 C204 1.390 1_655 S
C209 C208 1.361 . S
C209 H227 0.931 . S
C210 C208 1.500 . S
C210 C211 1.371 . S
C210 C212 1.365 . S
C211 C210 1.371 . S
C211 C221 1.386 . S
C211 H229 0.931 . S
C212 C210 1.365 . S
C212 C213 1.409 . S
C212 H230 0.929 . S
C213 C212 1.409 . S
C213 C214 1.380 . S
C213 H231 0.930 . S
C214 C213 1.380 . S
C214 C221 1.357 . S
C215 C206 1.511 . S
C215 C216 1.341 . S
C215 C217 1.371 . S
C216 C215 1.341 . S
C216 C220 1.394 . S
C216 H232 0.930 . S
C217 C215 1.371 . S
C217 C218 1.392 . S
C217 H233 0.931 . S
C218 C217 1.392 . S
C218 C219 1.331 . S
C218 H236 0.932 . S
C219 C218 1.331 . S
C219 C220 1.336 . S
C220 C216 1.394 . S
C220 C219 1.336 . S
C220 H235 0.929 . S
C221 C211 1.386 . S
C221 C214 1.357 . S
C221 H234 0.928 . S
H222 C198 0.931 . S
H223 C200 0.930 . S
H224 C202 0.929 . S
H225 C203 0.931 . S
H226 C205 0.930 . S
H227 C209 0.931 . S
H228 C207 0.931 . S
H229 C211 0.931 . S
H230 C212 0.929 . S
H231 C213 0.930 . S
H232 C216 0.930 . S
H233 C217 0.931 . S
H234 C221 0.928 . S
H235 C220 0.929 . S
H236 C218 0.932 . S
C237 C238 1.386 1_655 S
C237 C239 1.397 . S
C237 H261 0.931 . S
C238 C237 1.386 1_455 S
C238 C242 1.397 . S
C239 C237 1.397 . S
C239 C240 1.384 1_655 S
C239 H262 0.930 . S
C240 C239 1.384 1_455 S
C240 C241 1.377 . S
C240 C243 1.481 . S
C241 C240 1.377 . S
C241 C242 1.389 . S
C241 H263 0.929 . S
C242 C238 1.397 . S
C242 C241 1.389 . S
C242 H264 0.931 . S
C243 C240 1.481 . S
C243 C244 1.387 1_455 S
C243 C248 1.390 . S
C244 C243 1.387 1_655 S
C244 C245 1.401 . S
C244 H265 0.930 . S
C245 C244 1.401 . S
C245 C246 1.376 1_655 S
C245 C254 1.511 . S
C246 C245 1.376 1_455 S
C246 C247 1.392 . S
C246 H267 0.931 . S
C247 C246 1.392 . S
C247 C248 1.361 . S
C247 C249 1.500 . S
C248 C243 1.390 . S
C248 C247 1.361 . S
C248 H266 0.931 . S
C249 C247 1.500 . S
C249 C250 1.371 . S
C249 C251 1.365 . S
C250 C249 1.371 . S
C250 C260 1.386 . S
C250 H268 0.931 . S
C251 C249 1.365 . S
C251 C252 1.409 . S
C251 H269 0.929 . S
C252 C251 1.409 . S
C252 C253 1.380 . S
C252 H270 0.930 . S
C253 C252 1.380 . S
C253 C260 1.357 . S
C254 C245 1.511 . S
C254 C255 1.341 . S
C254 C256 1.371 . S
C255 C254 1.341 . S
C255 C259 1.394 . S
C255 H271 0.930 . S
C256 C254 1.371 . S
C256 C257 1.392 . S
C256 H272 0.931 . S
C257 C256 1.392 . S
C257 C258 1.331 . S
C257 H275 0.932 . S
C258 C257 1.331 . S
C258 C259 1.336 . S
C259 C255 1.394 . S
C259 C258 1.336 . S
C259 H274 0.929 . S
C260 C250 1.386 . S
C260 C253 1.357 . S
C260 H273 0.928 . S
H261 C237 0.931 . S
H262 C239 0.930 . S
H263 C241 0.929 . S
H264 C242 0.931 . S
H265 C244 0.930 . S
H266 C248 0.931 . S
H267 C246 0.931 . S
H268 C250 0.931 . S
H269 C251 0.929 . S
H270 C252 0.930 . S
H271 C255 0.930 . S
H272 C256 0.931 . S
H273 C260 0.928 . S
H274 C259 0.929 . S
H275 C257 0.932 . S
C276 C277 1.386 1_565 S
C276 C278 1.397 . S
C276 H300 0.931 . S
C277 C276 1.386 1_545 S
C277 C281 1.397 . S
C278 C276 1.397 . S
C278 C279 1.384 1_565 S
C278 H301 0.930 . S
C279 C278 1.384 1_545 S
C279 C280 1.377 . S
C279 C282 1.481 . S
C280 C279 1.377 . S
C280 C281 1.389 . S
C280 H302 0.929 . S
C281 C277 1.397 . S
C281 C280 1.389 . S
C281 H303 0.931 . S
C282 C279 1.481 . S
C282 C283 1.387 1_545 S
C282 C287 1.390 . S
C283 C282 1.387 1_565 S
C283 C284 1.401 . S
C283 H304 0.930 . S
C284 C283 1.401 . S
C284 C285 1.359 1_565 S
C284 C293 1.511 . S
C285 C284 1.359 1_545 S
C285 C286 1.409 . S
C285 H306 0.931 . S
C286 C285 1.409 . S
C286 C287 1.361 . S
C286 C288 1.500 . S
C287 C282 1.390 . S
C287 C286 1.361 . S
C287 H305 0.931 . S
C288 C286 1.500 . S
C288 C289 1.371 . S
C288 C290 1.365 . S
C289 C288 1.371 . S
C289 C299 1.386 . S
C289 H307 0.931 . S
C290 C288 1.365 . S
C290 C291 1.409 . S
C290 H308 0.929 . S
C291 C290 1.409 . S
C291 C292 1.380 . S
C291 H309 0.930 . S
C292 C291 1.380 . S
C292 C299 1.357 . S
C293 C284 1.511 . S
C293 C294 1.341 . S
C293 C295 1.371 . S
C294 C293 1.341 . S
C294 C298 1.394 . S
C294 H310 0.930 . S
C295 C293 1.371 . S
C295 C296 1.392 . S
C295 H311 0.931 . S
C296 C295 1.392 . S
C296 C297 1.331 . S
C296 H314 0.932 . S
C297 C296 1.331 . S
C297 C298 1.336 . S
C298 C294 1.394 . S
C298 C297 1.336 . S
C298 H313 0.929 . S
C299 C289 1.386 . S
C299 C292 1.357 . S
C299 H312 0.928 . S
H300 C276 0.931 . S
H301 C278 0.930 . S
H302 C280 0.929 . S
H303 C281 0.931 . S
H304 C283 0.930 . S
H305 C287 0.931 . S
H306 C285 0.931 . S
H307 C289 0.931 . S
H308 C290 0.929 . S
H309 C291 0.930 . S
H310 C294 0.930 . S
H311 C295 0.931 . S
H312 C299 0.928 . S
H313 C298 0.929 . S
H314 C296 0.932 . S
C315 C316 1.386 . S
C315 C317 1.397 . S
C315 H339 0.931 . S
C316 C315 1.386 . S
C316 C320 1.397 . S
C317 C315 1.397 . S
C317 C318 1.384 . S
C317 H340 0.930 . S
C318 C317 1.384 . S
C318 C319 1.377 . S
C318 C321 1.481 . S
C319 C318 1.377 . S
C319 C320 1.389 . S
C319 H341 0.929 . S
C320 C316 1.397 . S
C320 C319 1.389 . S
C320 H342 0.931 . S
C321 C318 1.481 . S
C321 C322 1.387 . S
C321 C326 1.390 . S
C322 C321 1.387 . S
C322 C323 1.401 . S
C322 H343 0.930 . S
C323 C322 1.401 . S
C323 C324 1.376 . S
C323 C332 1.511 . S
C324 C323 1.376 . S
C324 C325 1.392 . S
C324 H345 0.931 . S
C325 C324 1.392 . S
C325 C326 1.361 . S
C325 C327 1.500 . S
C326 C321 1.390 . S
C326 C325 1.361 . S
C326 H344 0.931 . S
C327 C325 1.500 . S
C327 C328 1.371 . S
C327 C329 1.365 . S
C328 C327 1.371 . S
C328 C338 1.386 . S
C328 H346 0.931 . S
C329 C327 1.365 . S
C329 C330 1.409 . S
C329 H347 0.929 . S
C330 C329 1.409 . S
C330 C331 1.380 . S
C330 H348 0.930 . S
C331 C330 1.380 . S
C331 C338 1.357 . S
C332 C323 1.511 . S
C332 C333 1.341 . S
C332 C334 1.371 . S
C333 C332 1.341 . S
C333 C337 1.394 . S
C333 H349 0.930 . S
C334 C332 1.371 . S
C334 C335 1.392 . S
C334 H350 0.931 . S
C335 C334 1.392 . S
C335 C336 1.331 . S
C335 H353 0.932 . S
C336 C335 1.331 . S
C336 C337 1.336 . S
C337 C333 1.394 . S
C337 C336 1.336 . S
C337 H352 0.929 . S
C338 C328 1.386 . S
C338 C331 1.357 . S
C338 H351 0.928 . S
H339 C315 0.931 . S
H340 C317 0.930 . S
H341 C319 0.929 . S
H342 C320 0.931 . S
H343 C322 0.930 . S
H344 C326 0.931 . S
H345 C324 0.931 . S
H346 C328 0.931 . S
H347 C329 0.929 . S
H348 C330 0.930 . S
H349 C333 0.930 . S
H350 C334 0.931 . S
H351 C338 0.928 . S
H352 C337 0.929 . S
H353 C335 0.932 . S
C354 C355 1.349 . S
C354 C356 1.327 . S
C354 H379 0.950 . S
C355 C354 1.349 . S
C355 C371 1.349 . S
C356 C354 1.327 . S
C356 C375 1.429 . S
C356 H380 0.950 . S
C357 C374 1.574 . S
C357 C376 1.368 . S
C357 H381 0.949 . S
H358 C362 0.949 . S
C359 C360 1.349 . S
C359 C361 1.327 . S
C359 H382 0.950 . S
C360 C359 1.349 . S
C360 C372 1.349 . S
C361 C359 1.327 . S
C361 C377 1.429 . S
C361 H383 0.950 . S
C362 H358 0.949 . S
C362 C370 1.574 . S
C362 C378 1.368 . S
H363 C371 0.950 . S
H364 C369 0.950 . S
H365 C370 0.949 . S
H366 C372 0.950 . S
H367 C373 0.950 . S
H368 C374 0.949 . S
C369 H364 0.950 . S
C369 C371 1.327 . S
C369 C375 1.429 . S
C370 C362 1.574 . S
C370 H365 0.949 . S
C370 C376 1.368 . S
C371 C355 1.349 . S
C371 H363 0.950 . S
C371 C369 1.327 . S
C372 C360 1.349 . S
C372 H366 0.950 . S
C372 C373 1.327 . S
C373 H367 0.950 . S
C373 C372 1.327 . S
C373 C377 1.429 . S
C374 C357 1.574 . S
C374 H368 0.949 . S
C374 C378 1.368 . S
C375 C356 1.429 . S
C375 C369 1.429 . S
C375 C376 1.523 . S
C376 C357 1.368 . S
C376 C370 1.368 . S
C376 C375 1.523 . S
C377 C361 1.429 . S
C377 C373 1.429 . S
C377 C378 1.523 . S
C378 C362 1.368 . S
C378 C374 1.368 . S
C378 C377 1.523 . S
H379 C354 0.950 . S
H380 C356 0.950 . S
H381 C357 0.949 . S
H382 C359 0.950 . S
H383 C361 0.950 . S
C384 C385 1.349 . S
C384 C386 1.327 . S
C384 H409 0.950 . S
C385 C384 1.349 . S
C385 C401 1.349 . S
C386 C384 1.327 . S
C386 C405 1.429 . S
C386 H410 0.950 . S
C387 C404 1.574 . S
C387 C406 1.368 . S
C387 H411 0.949 . S
H388 C392 0.949 . S
C389 C390 1.349 . S
C389 C391 1.327 . S
C389 H412 0.950 . S
C390 C389 1.349 . S
C390 C402 1.349 . S
C391 C389 1.327 . S
C391 C407 1.429 . S
C391 H413 0.950 . S
C392 H388 0.949 . S
C392 C400 1.574 . S
C392 C408 1.368 . S
H393 C401 0.950 . S
H394 C399 0.950 . S
H395 C400 0.949 . S
H396 C402 0.950 . S
H397 C403 0.950 . S
H398 C404 0.949 . S
C399 H394 0.950 . S
C399 C401 1.327 . S
C399 C405 1.429 . S
C400 C392 1.574 . S
C400 H395 0.949 . S
C400 C406 1.368 . S
C401 C385 1.349 . S
C401 H393 0.950 . S
C401 C399 1.327 . S
C402 C390 1.349 . S
C402 H396 0.950 . S
C402 C403 1.327 . S
C403 H397 0.950 . S
C403 C402 1.327 . S
C403 C407 1.429 . S
C404 C387 1.574 . S
C404 H398 0.949 . S
C404 C408 1.368 . S
C405 C386 1.429 . S
C405 C399 1.429 . S
C405 C406 1.523 . S
C406 C387 1.368 . S
C406 C400 1.368 . S
C406 C405 1.523 . S
C407 C391 1.429 . S
C407 C403 1.429 . S
C407 C408 1.523 . S
C408 C392 1.368 . S
C408 C404 1.368 . S
C408 C407 1.523 . S
H409 C384 0.950 . S
H410 C386 0.950 . S
H411 C387 0.949 . S
H412 C389 0.950 . S
H413 C391 0.950 . S
C414 C415 1.349 . S
C414 C416 1.327 . S
C414 H439 0.950 . S
C415 C414 1.349 . S
C415 C431 1.349 . S
C416 C414 1.327 . S
C416 C435 1.429 . S
C416 H440 0.950 . S
C417 C434 1.574 . S
C417 C436 1.368 . S
C417 H441 0.949 . S
H418 C422 0.949 . S
C419 C420 1.349 . S
C419 C421 1.327 . S
C419 H442 0.950 . S
C420 C419 1.349 . S
C420 C432 1.349 . S
C421 C419 1.327 . S
C421 C437 1.429 . S
C421 H443 0.950 . S
C422 H418 0.949 . S
C422 C430 1.574 . S
C422 C438 1.368 . S
H423 C431 0.950 . S
H424 C429 0.950 . S
H425 C430 0.949 . S
H426 C432 0.950 . S
H427 C433 0.950 . S
H428 C434 0.949 . S
C429 H424 0.950 . S
C429 C431 1.327 . S
C429 C435 1.429 . S
C430 C422 1.574 . S
C430 H425 0.949 . S
C430 C436 1.368 . S
C431 C415 1.349 . S
C431 H423 0.950 . S
C431 C429 1.327 . S
C432 C420 1.349 . S
C432 H426 0.950 . S
C432 C433 1.327 . S
C433 H427 0.950 . S
C433 C432 1.327 . S
C433 C437 1.429 . S
C434 C417 1.574 . S
C434 H428 0.949 . S
C434 C438 1.368 . S
C435 C416 1.429 . S
C435 C429 1.429 . S
C435 C436 1.523 . S
C436 C417 1.368 . S
C436 C430 1.368 . S
C436 C435 1.523 . S
C437 C421 1.429 . S
C437 C433 1.429 . S
C437 C438 1.523 . S
C438 C422 1.368 . S
C438 C434 1.368 . S
C438 C437 1.523 . S
H439 C414 0.950 . S
H440 C416 0.950 . S
H441 C417 0.949 . S
H442 C419 0.950 . S
H443 C421 0.950 . S
C444 C445 1.349 . S
C444 C446 1.327 . S
C444 H469 0.950 . S
C445 C444 1.349 . S
C445 C461 1.349 . S
C446 C444 1.327 . S
C446 C465 1.429 . S
C446 H470 0.950 . S
C447 C464 1.574 . S
C447 C466 1.368 . S
C447 H471 0.949 . S
H448 C452 0.949 . S
C449 C450 1.349 . S
C449 C451 1.327 . S
C449 H472 0.950 . S
C450 C449 1.349 . S
C450 C462 1.349 . S
C451 C449 1.327 . S
C451 C467 1.429 . S
C451 H473 0.950 . S
C452 H448 0.949 . S
C452 C460 1.574 . S
C452 C468 1.368 . S
H453 C461 0.950 . S
H454 C459 0.950 . S
H455 C460 0.949 . S
H456 C462 0.950 . S
H457 C463 0.950 . S
H458 C464 0.949 . S
C459 H454 0.950 . S
C459 C461 1.327 . S
C459 C465 1.429 . S
C460 C452 1.574 . S
C460 H455 0.949 . S
C460 C466 1.368 . S
C461 C445 1.349 . S
C461 H453 0.950 . S
C461 C459 1.327 . S
C462 C450 1.349 . S
C462 H456 0.950 . S
C462 C463 1.327 . S
C463 H457 0.950 . S
C463 C462 1.327 . S
C463 C467 1.429 . S
C464 C447 1.574 . S
C464 H458 0.949 . S
C464 C468 1.368 . S
C465 C446 1.429 . S
C465 C459 1.429 . S
C465 C466 1.523 . S
C466 C447 1.368 . S
C466 C460 1.368 . S
C466 C465 1.523 . S
C467 C451 1.429 . S
C467 C463 1.429 . S
C467 C468 1.523 . S
C468 C452 1.368 . S
C468 C464 1.368 . S
C468 C467 1.523 . S
H469 C444 0.950 . S
H470 C446 0.950 . S
H471 C447 0.949 . S
H472 C449 0.950 . S
H473 C451 0.950 . S
C474 C475 1.349 . S
C474 C476 1.327 . S
C474 H499 0.950 . S
C475 C474 1.349 . S
C475 C491 1.349 . S
C476 C474 1.327 . S
C476 C495 1.429 . S
C476 H500 0.950 . S
C477 C494 1.574 . S
C477 C496 1.368 . S
C477 H501 0.949 . S
H478 C482 0.949 . S
C479 C480 1.349 . S
C479 C481 1.327 . S
C479 H502 0.950 . S
C480 C479 1.349 . S
C480 C492 1.349 . S
C481 C479 1.327 . S
C481 C497 1.429 . S
C481 H503 0.950 . S
C482 H478 0.949 . S
C482 C490 1.574 . S
C482 C498 1.368 . S
H483 C491 0.950 . S
H484 C489 0.950 . S
H485 C490 0.949 . S
H486 C492 0.950 . S
H487 C493 0.950 . S
H488 C494 0.949 . S
C489 H484 0.950 . S
C489 C491 1.327 . S
C489 C495 1.429 . S
C490 C482 1.574 . S
C490 H485 0.949 . S
C490 C496 1.368 . S
C491 C475 1.349 . S
C491 H483 0.950 . S
C491 C489 1.327 . S
C492 C480 1.349 . S
C492 H486 0.950 . S
C492 C493 1.327 . S
C493 H487 0.950 . S
C493 C492 1.327 . S
C493 C497 1.429 . S
C494 C477 1.574 . S
C494 H488 0.949 . S
C494 C498 1.368 . S
C495 C476 1.429 . S
C495 C489 1.429 . S
C495 C496 1.523 . S
C496 C477 1.368 . S
C496 C490 1.368 . S
C496 C495 1.523 . S
C497 C481 1.429 . S
C497 C493 1.429 . S
C497 C498 1.523 . S
C498 C482 1.368 . S
C498 C494 1.368 . S
C498 C497 1.523 . S
H499 C474 0.950 . S
H500 C476 0.950 . S
H501 C477 0.949 . S
H502 C479 0.950 . S
H503 C481 0.950 . S
C504 C505 1.349 . S
C504 C506 1.327 . S
C504 H529 0.950 . S
C505 C504 1.349 . S
C505 C521 1.349 . S
C506 C504 1.327 . S
C506 C525 1.429 . S
C506 H530 0.950 . S
C507 C524 1.574 . S
C507 C526 1.368 . S
C507 H531 0.949 . S
H508 C512 0.949 . S
C509 C510 1.349 . S
C509 C511 1.327 . S
C509 H532 0.950 . S
C510 C509 1.349 . S
C510 C522 1.349 . S
C511 C509 1.327 . S
C511 C527 1.429 . S
C511 H533 0.950 . S
C512 H508 0.949 . S
C512 C520 1.574 . S
C512 C528 1.368 . S
H513 C521 0.950 . S
H514 C519 0.950 . S
H515 C520 0.949 . S
H516 C522 0.950 . S
H517 C523 0.950 . S
H518 C524 0.949 . S
C519 H514 0.950 . S
C519 C521 1.327 . S
C519 C525 1.429 . S
C520 C512 1.574 . S
C520 H515 0.949 . S
C520 C526 1.368 . S
C521 C505 1.349 . S
C521 H513 0.950 . S
C521 C519 1.327 . S
C522 C510 1.349 . S
C522 H516 0.950 . S
C522 C523 1.327 . S
C523 H517 0.950 . S
C523 C522 1.327 . S
C523 C527 1.429 . S
C524 C507 1.574 . S
C524 H518 0.949 . S
C524 C528 1.368 . S
C525 C506 1.429 . S
C525 C519 1.429 . S
C525 C526 1.523 . S
C526 C507 1.368 . S
C526 C520 1.368 . S
C526 C525 1.523 . S
C527 C511 1.429 . S
C527 C523 1.429 . S
C527 C528 1.523 . S
C528 C512 1.368 . S
C528 C524 1.368 . S
C528 C527 1.523 . S
H529 C504 0.950 . S
H530 C506 0.950 . S
H531 C507 0.949 . S
H532 C509 0.950 . S
H533 C511 0.950 . S
C534 C535 1.349 . S
C534 C536 1.327 . S
C534 H559 0.950 . S
C535 C534 1.349 . S
C535 C551 1.349 . S
C536 C534 1.327 . S
C536 C555 1.429 . S
C536 H560 0.950 . S
C537 C554 1.574 . S
C537 C556 1.368 . S
C537 H561 0.949 . S
H538 C542 0.949 . S
C539 C540 1.349 . S
C539 C541 1.327 . S
C539 H562 0.950 . S
C540 C539 1.349 . S
C540 C552 1.349 . S
C541 C539 1.327 . S
C541 C557 1.429 . S
C541 H563 0.950 . S
C542 H538 0.949 . S
C542 C550 1.574 . S
C542 C558 1.368 . S
H543 C551 0.950 . S
H544 C549 0.950 . S
H545 C550 0.949 . S
H546 C552 0.950 . S
H547 C553 0.950 . S
H548 C554 0.949 . S
C549 H544 0.950 . S
C549 C551 1.327 . S
C549 C555 1.429 . S
C550 C542 1.574 . S
C550 H545 0.949 . S
C550 C556 1.368 . S
C551 C535 1.349 . S
C551 H543 0.950 . S
C551 C549 1.327 . S
C552 C540 1.349 . S
C552 H546 0.950 . S
C552 C553 1.327 . S
C553 H547 0.950 . S
C553 C552 1.327 . S
C553 C557 1.429 . S
C554 C537 1.574 . S
C554 H548 0.949 . S
C554 C558 1.368 . S
C555 C536 1.429 . S
C555 C549 1.429 . S
C555 C556 1.523 . S
C556 C537 1.368 . S
C556 C550 1.368 . S
C556 C555 1.523 . S
C557 C541 1.429 . S
C557 C553 1.429 . S
C557 C558 1.523 . S
C558 C542 1.368 . S
C558 C554 1.368 . S
C558 C557 1.523 . S
H559 C534 0.950 . S
H560 C536 0.950 . S
H561 C537 0.949 . S
H562 C539 0.950 . S
H563 C541 0.950 . S
C564 C565 1.349 . S
C564 C566 1.327 . S
C564 H589 0.950 . S
C565 C564 1.349 . S
C565 C581 1.349 . S
C566 C564 1.327 . S
C566 C585 1.429 . S
C566 H590 0.950 . S
C567 C584 1.574 . S
C567 C586 1.368 . S
C567 H591 0.949 . S
H568 C572 0.949 . S
C569 C570 1.349 . S
C569 C571 1.327 . S
C569 H592 0.950 . S
C570 C569 1.349 . S
C570 C582 1.349 . S
C571 C569 1.327 . S
C571 C587 1.429 . S
C571 H593 0.950 . S
C572 H568 0.949 . S
C572 C580 1.574 . S
C572 C588 1.368 . S
H573 C581 0.950 . S
H574 C579 0.950 . S
H575 C580 0.949 . S
H576 C582 0.950 . S
H577 C583 0.950 . S
H578 C584 0.949 . S
C579 H574 0.950 . S
C579 C581 1.327 . S
C579 C585 1.429 . S
C580 C572 1.574 . S
C580 H575 0.949 . S
C580 C586 1.368 . S
C581 C565 1.349 . S
C581 H573 0.950 . S
C581 C579 1.327 . S
C582 C570 1.349 . S
C582 H576 0.950 . S
C582 C583 1.327 . S
C583 H577 0.950 . S
C583 C582 1.327 . S
C583 C587 1.429 . S
C584 C567 1.574 . S
C584 H578 0.949 . S
C584 C588 1.368 . S
C585 C566 1.429 . S
C585 C579 1.429 . S
C585 C586 1.523 . S
C586 C567 1.368 . S
C586 C580 1.368 . S
C586 C585 1.523 . S
C587 C571 1.429 . S
C587 C583 1.429 . S
C587 C588 1.523 . S
C588 C572 1.368 . S
C588 C584 1.368 . S
C588 C587 1.523 . S
H589 C564 0.950 . S
H590 C566 0.950 . S
H591 C567 0.949 . S
H592 C569 0.950 . S
H593 C571 0.950 . S
C594 C595 1.349 . S
C594 C596 1.327 . S
C594 H619 0.950 . S
C595 C594 1.349 . S
C595 C611 1.349 . S
C596 C594 1.327 . S
C596 C615 1.429 . S
C596 H620 0.950 . S
C597 C614 1.574 . S
C597 C616 1.368 . S
C597 H621 0.949 . S
H598 C602 0.949 . S
C599 C600 1.349 . S
C599 C601 1.327 . S
C599 H622 0.950 . S
C600 C599 1.349 . S
C600 C612 1.349 . S
C601 C599 1.327 . S
C601 C617 1.429 . S
C601 H623 0.950 . S
C602 H598 0.949 . S
C602 C610 1.574 . S
C602 C618 1.368 . S
H603 C611 0.950 . S
H604 C609 0.950 . S
H605 C610 0.949 . S
H606 C612 0.950 . S
H607 C613 0.950 . S
H608 C614 0.949 . S
C609 H604 0.950 . S
C609 C611 1.327 . S
C609 C615 1.429 . S
C610 C602 1.574 . S
C610 H605 0.949 . S
C610 C616 1.368 . S
C611 C595 1.349 . S
C611 H603 0.950 . S
C611 C609 1.327 . S
C612 C600 1.349 . S
C612 H606 0.950 . S
C612 C613 1.327 . S
C613 H607 0.950 . S
C613 C612 1.327 . S
C613 C617 1.429 . S
C614 C597 1.574 . S
C614 H608 0.949 . S
C614 C618 1.368 . S
C615 C596 1.429 . S
C615 C609 1.429 . S
C615 C616 1.523 . S
C616 C597 1.368 . S
C616 C610 1.368 . S
C616 C615 1.523 . S
C617 C601 1.429 . S
C617 C613 1.429 . S
C617 C618 1.523 . S
C618 C602 1.368 . S
C618 C614 1.368 . S
C618 C617 1.523 . S
H619 C594 0.950 . S
H620 C596 0.950 . S
H621 C597 0.949 . S
H622 C599 0.950 . S
H623 C601 0.950 . S
C624 C625 1.349 . S
C624 C626 1.327 . S
C624 H649 0.950 . S
C625 C624 1.349 . S
C625 C641 1.349 . S
C626 C624 1.327 . S
C626 C645 1.429 . S
C626 H650 0.950 . S
C627 C644 1.574 . S
C627 C646 1.368 . S
C627 H651 0.949 . S
H628 C632 0.949 . S
C629 C630 1.349 . S
C629 C631 1.327 . S
C629 H652 0.950 . S
C630 C629 1.349 . S
C630 C642 1.349 . S
C631 C629 1.327 . S
C631 C647 1.429 . S
C631 H653 0.950 . S
C632 H628 0.949 . S
C632 C640 1.574 . S
C632 C648 1.368 . S
H633 C641 0.950 . S
H634 C639 0.950 . S
H635 C640 0.949 . S
H636 C642 0.950 . S
H637 C643 0.950 . S
H638 C644 0.949 . S
C639 H634 0.950 . S
C639 C641 1.327 . S
C639 C645 1.429 . S
C640 C632 1.574 . S
C640 H635 0.949 . S
C640 C646 1.368 . S
C641 C625 1.349 . S
C641 H633 0.950 . S
C641 C639 1.327 . S
C642 C630 1.349 . S
C642 H636 0.950 . S
C642 C643 1.327 . S
C643 H637 0.950 . S
C643 C642 1.327 . S
C643 C647 1.429 . S
C644 C627 1.574 . S
C644 H638 0.949 . S
C644 C648 1.368 . S
C645 C626 1.429 . S
C645 C639 1.429 . S
C645 C646 1.523 . S
C646 C627 1.368 . S
C646 C640 1.368 . S
C646 C645 1.523 . S
C647 C631 1.429 . S
C647 C643 1.429 . S
C647 C648 1.523 . S
C648 C632 1.368 . S
C648 C644 1.368 . S
C648 C647 1.523 . S
H649 C624 0.950 . S
H650 C626 0.950 . S
H651 C627 0.949 . S
H652 C629 0.950 . S
H653 C631 0.950 . S
C654 C655 1.349 . S
C654 C656 1.327 . S
C654 H679 0.950 . S
C655 C654 1.349 . S
C655 C671 1.349 . S
C656 C654 1.327 . S
C656 C675 1.429 . S
C656 H680 0.950 . S
C657 C674 1.574 . S
C657 C676 1.368 . S
C657 H681 0.949 . S
H658 C662 0.949 . S
C659 C660 1.349 . S
C659 C661 1.327 . S
C659 H682 0.950 . S
C660 C659 1.349 . S
C660 C672 1.349 . S
C661 C659 1.327 . S
C661 C677 1.429 . S
C661 H683 0.950 . S
C662 H658 0.949 . S
C662 C670 1.574 . S
C662 C678 1.368 . S
H663 C671 0.950 . S
H664 C669 0.950 . S
H665 C670 0.949 . S
H666 C672 0.950 . S
H667 C673 0.950 . S
H668 C674 0.949 . S
C669 H664 0.950 . S
C669 C671 1.327 . S
C669 C675 1.429 . S
C670 C662 1.574 . S
C670 H665 0.949 . S
C670 C676 1.368 . S
C671 C655 1.349 . S
C671 H663 0.950 . S
C671 C669 1.327 . S
C672 C660 1.349 . S
C672 H666 0.950 . S
C672 C673 1.327 . S
C673 H667 0.950 . S
C673 C672 1.327 . S
C673 C677 1.429 . S
C674 C657 1.574 . S
C674 H668 0.949 . S
C674 C678 1.368 . S
C675 C656 1.429 . S
C675 C669 1.429 . S
C675 C676 1.523 . S
C676 C657 1.368 . S
C676 C670 1.368 . S
C676 C675 1.523 . S
C677 C661 1.429 . S
C677 C673 1.429 . S
C677 C678 1.523 . S
C678 C662 1.368 . S
C678 C674 1.368 . S
C678 C677 1.523 . S
H679 C654 0.950 . S
H680 C656 0.950 . S
H681 C657 0.949 . S
H682 C659 0.950 . S
H683 C661 0.950 . S
C684 C685 1.349 . S
C684 C686 1.327 . S
C684 H709 0.950 . S
C685 C684 1.349 . S
C685 C701 1.349 . S
C686 C684 1.327 . S
C686 C705 1.429 . S
C686 H710 0.950 . S
C687 C704 1.574 . S
C687 C706 1.368 . S
C687 H711 0.949 . S
H688 C692 0.949 . S
C689 C690 1.349 . S
C689 C691 1.327 . S
C689 H712 0.950 . S
C690 C689 1.349 . S
C690 C702 1.349 . S
C691 C689 1.327 . S
C691 C707 1.429 . S
C691 H713 0.950 . S
C692 H688 0.949 . S
C692 C700 1.574 . S
C692 C708 1.368 . S
H693 C701 0.950 . S
H694 C699 0.950 . S
H695 C700 0.949 . S
H696 C702 0.950 . S
H697 C703 0.950 . S
H698 C704 0.949 . S
C699 H694 0.950 . S
C699 C701 1.327 . S
C699 C705 1.429 . S
C700 C692 1.574 . S
C700 H695 0.949 . S
C700 C706 1.368 . S
C701 C685 1.349 . S
C701 H693 0.950 . S
C701 C699 1.327 . S
C702 C690 1.349 . S
C702 H696 0.950 . S
C702 C703 1.327 . S
C703 H697 0.950 . S
C703 C702 1.327 . S
C703 C707 1.429 . S
C704 C687 1.574 . S
C704 H698 0.949 . S
C704 C708 1.368 . S
C705 C686 1.429 . S
C705 C699 1.429 . S
C705 C706 1.523 . S
C706 C687 1.368 . S
C706 C700 1.368 . S
C706 C705 1.523 . S
C707 C691 1.429 . S
C707 C703 1.429 . S
C707 C708 1.523 . S
C708 C692 1.368 . S
C708 C704 1.368 . S
C708 C707 1.523 . S
H709 C684 0.950 . S
H710 C686 0.950 . S
H711 C687 0.949 . S
H712 C689 0.950 . S
H713 C691 0.950 . S
C714 C715 1.349 . S
C714 C716 1.327 . S
C714 H739 0.950 . S
C715 C714 1.349 . S
C715 C731 1.349 1_455 S
C716 C714 1.327 . S
C716 C735 1.429 . S
C716 H740 0.950 . S
C717 C734 1.574 . S
C717 C736 1.368 1_655 S
C717 H741 0.949 . S
H718 C722 0.949 . S
C719 C720 1.349 1_655 S
C719 C721 1.327 1_556 S
C719 H742 0.950 . S
C720 C719 1.349 1_455 S
C720 C732 1.349 . S
C721 C719 1.327 1_554 S
C721 C737 1.429 1_655 S
C721 H743 0.950 . S
C722 H718 0.949 . S
C722 C730 1.574 . S
C722 C738 1.368 . S
H723 C731 0.950 . S
H724 C729 0.950 . S
H725 C730 0.949 . S
H726 C732 0.950 . S
H727 C733 0.950 . S
H728 C734 0.949 . S
C729 H724 0.950 . S
C729 C731 1.327 . S
C729 C735 1.429 1_655 S
C730 C722 1.574 . S
C730 H725 0.949 . S
C730 C736 1.368 . S
C731 C715 1.349 1_655 S
C731 H723 0.950 . S
C731 C729 1.327 . S
C732 C720 1.349 . S
C732 H726 0.950 . S
C732 C733 1.327 1_556 S
C733 H727 0.950 . S
C733 C732 1.327 1_554 S
C733 C737 1.429 . S
C734 C717 1.574 . S
C734 H728 0.949 . S
C734 C738 1.368 1_655 S
C735 C716 1.429 . S
C735 C729 1.429 1_455 S
C735 C736 1.523 . S
C736 C717 1.368 1_455 S
C736 C730 1.368 . S
C736 C735 1.523 . S
C737 C721 1.429 1_455 S
C737 C733 1.429 . S
C737 C738 1.523 . S
C738 C722 1.368 . S
C738 C734 1.368 1_455 S
C738 C737 1.523 . S
H739 C714 0.950 . S
H740 C716 0.950 . S
H741 C717 0.949 . S
H742 C719 0.950 . S
H743 C721 0.950 . S
C744 C745 1.349 . S
C744 C746 1.327 . S
C744 H769 0.950 . S
C745 C744 1.349 . S
C745 C761 1.349 . S
C746 C744 1.327 . S
C746 C765 1.429 . S
C746 H770 0.950 . S
C747 C764 1.574 . S
C747 C766 1.368 . S
C747 H771 0.949 1_545 S
H748 C752 0.949 . S
C749 C750 1.349 . S
C749 C751 1.327 . S
C749 H772 0.950 1_545 S
C750 C749 1.349 . S
C750 C762 1.349 . S
C751 C749 1.327 . S
C751 C767 1.429 . S
C751 H773 0.950 1_545 S
C752 H748 0.949 . S
C752 C760 1.574 . S
C752 C768 1.368 . S
H753 C761 0.950 1_565 S
H754 C759 0.950 1_565 S
H755 C760 0.949 . S
H756 C762 0.950 . S
H757 C763 0.950 . S
H758 C764 0.949 1_565 S
C759 H754 0.950 1_545 S
C759 C761 1.327 . S
C759 C765 1.429 . S
C760 C752 1.574 . S
C760 H755 0.949 . S
C760 C766 1.368 . S
C761 C745 1.349 . S
C761 H753 0.950 1_545 S
C761 C759 1.327 . S
C762 C750 1.349 . S
C762 H756 0.950 . S
C762 C763 1.327 . S
C763 H757 0.950 . S
C763 C762 1.327 . S
C763 C767 1.429 . S
C764 C747 1.574 . S
C764 H758 0.949 1_545 S
C764 C768 1.368 . S
C765 C746 1.429 . S
C765 C759 1.429 . S
C765 C766 1.523 . S
C766 C747 1.368 . S
C766 C760 1.368 . S
C766 C765 1.523 . S
C767 C751 1.429 . S
C767 C763 1.429 . S
C767 C768 1.523 . S
C768 C752 1.368 . S
C768 C764 1.368 . S
C768 C767 1.523 . S
H769 C744 0.950 . S
H770 C746 0.950 . S
H771 C747 0.949 1_565 S
H772 C749 0.950 1_565 S
H773 C751 0.950 1_565 S
C774 C775 1.349 . S
C774 C776 1.327 . S
C774 H799 0.950 . S
C775 C774 1.349 . S
C775 C791 1.349 . S
C776 C774 1.327 . S
C776 C795 1.429 . S
C776 H800 0.950 . S
C777 C794 1.574 . S
C777 C796 1.368 . S
C777 H801 0.949 . S
H778 C782 0.949 . S
C779 C780 1.349 . S
C779 C781 1.327 . S
C779 H802 0.950 . S
C780 C779 1.349 . S
C780 C792 1.349 . S
C781 C779 1.327 . S
C781 C797 1.429 . S
C781 H803 0.950 . S
C782 H778 0.949 . S
C782 C790 1.574 . S
C782 C798 1.368 . S
H783 C791 0.950 . S
H784 C789 0.950 . S
H785 C790 0.949 . S
H786 C792 0.950 . S
H787 C793 0.950 . S
H788 C794 0.949 . S
C789 H784 0.950 . S
C789 C791 1.327 . S
C789 C795 1.429 . S
C790 C782 1.574 . S
C790 H785 0.949 . S
C790 C796 1.368 . S
C791 C775 1.349 . S
C791 H783 0.950 . S
C791 C789 1.327 . S
C792 C780 1.349 . S
C792 H786 0.950 . S
C792 C793 1.327 . S
C793 H787 0.950 . S
C793 C792 1.327 . S
C793 C797 1.429 . S
C794 C777 1.574 . S
C794 H788 0.949 . S
C794 C798 1.368 . S
C795 C776 1.429 . S
C795 C789 1.429 . S
C795 C796 1.523 . S
C796 C777 1.368 . S
C796 C790 1.368 . S
C796 C795 1.523 . S
C797 C781 1.429 . S
C797 C793 1.429 . S
C797 C798 1.523 . S
C798 C782 1.368 . S
C798 C794 1.368 . S
C798 C797 1.523 . S
H799 C774 0.950 . S
H800 C776 0.950 . S
H801 C777 0.949 . S
H802 C779 0.950 . S
H803 C781 0.950 . S
C804 C805 1.349 . S
C804 C806 1.327 . S
C804 H829 0.950 1_545 S
C805 C804 1.349 . S
C805 C821 1.349 . S
C806 C804 1.327 . S
C806 C825 1.429 . S
C806 H830 0.950 1_545 S
C807 C824 1.574 . S
C807 C826 1.368 . S
C807 H831 0.949 . S
H808 C812 0.949 . S
C809 C810 1.349 . S
C809 C811 1.327 . S
C809 H832 0.950 . S
C810 C809 1.349 . S
C810 C822 1.349 1_545 S
C811 C809 1.327 . S
C811 C827 1.429 . S
C811 H833 0.950 . S
C812 H808 0.949 . S
C812 C820 1.575 . S
C812 C828 1.368 1_565 S
H813 C821 0.950 . S
H814 C819 0.950 . S
H815 C820 0.967 . S
H816 C822 0.950 . S
H817 C823 0.950 . S
H818 C824 0.949 . S
C819 H814 0.950 . S
C819 C821 1.327 . S
C819 C825 1.429 . S
C820 C812 1.575 . S
C820 H815 0.967 . S
C820 C826 1.347 1_565 S
C821 C805 1.349 . S
C821 H813 0.950 . S
C821 C819 1.327 . S
C822 C810 1.349 1_565 S
C822 H816 0.950 . S
C822 C823 1.327 . S
C823 H817 0.950 . S
C823 C822 1.327 . S
C823 C827 1.429 1_565 S
C824 C807 1.574 . S
C824 H818 0.949 . S
C824 C828 1.368 . S
C825 C806 1.429 . S
C825 C819 1.429 . S
C825 C826 1.523 . S
C826 C807 1.368 . S
C826 C820 1.347 1_545 S
C826 C825 1.523 . S
C827 C811 1.429 . S
C827 C823 1.429 1_545 S
C827 C828 1.523 . S
C828 C812 1.368 1_545 S
C828 C824 1.368 . S
C828 C827 1.523 . S
H829 C804 0.950 1_565 S
H830 C806 0.950 1_565 S
H831 C807 0.949 . S
H832 C809 0.950 . S
H833 C811 0.950 . S
C834 C835 1.349 . S
C834 C836 1.327 . S
C834 H859 0.950 . S
C835 C834 1.349 . S
C835 C851 1.349 . S
C836 C834 1.327 . S
C836 C855 1.429 . S
C836 H860 0.950 . S
C837 C854 1.574 . S
C837 C856 1.368 . S
C837 H861 0.949 . S
H838 C842 0.949 . S
C839 C840 1.349 . S
C839 C841 1.327 1_554 S
C839 H862 0.950 . S
C840 C839 1.349 . S
C840 C852 1.349 . S
C841 C839 1.327 1_556 S
C841 C857 1.429 . S
C841 H863 0.950 . S
C842 H838 0.949 . S
C842 C850 1.574 . S
C842 C858 1.368 . S
H843 C851 0.950 . S
H844 C849 0.950 . S
H845 C850 0.949 . S
H846 C852 0.950 . S
H847 C853 0.950 . S
H848 C854 0.949 . S
C849 H844 0.950 . S
C849 C851 1.327 . S
C849 C855 1.429 . S
C850 C842 1.574 . S
C850 H845 0.949 . S
C850 C856 1.368 . S
C851 C835 1.349 . S
C851 H843 0.950 . S
C851 C849 1.327 . S
C852 C840 1.349 . S
C852 H846 0.950 . S
C852 C853 1.327 1_554 S
C853 H847 0.950 . S
C853 C852 1.327 1_556 S
C853 C857 1.429 . S
C854 C837 1.574 . S
C854 H848 0.949 . S
C854 C858 1.368 . S
C855 C836 1.429 . S
C855 C849 1.429 . S
C855 C856 1.523 . S
C856 C837 1.368 . S
C856 C850 1.368 . S
C856 C855 1.523 . S
C857 C841 1.429 . S
C857 C853 1.429 . S
C857 C858 1.523 . S
C858 C842 1.368 . S
C858 C854 1.368 . S
C858 C857 1.523 . S
H859 C834 0.950 . S
H860 C836 0.950 . S
H861 C837 0.949 . S
H862 C839 0.950 . S
H863 C841 0.950 . S
C864 C865 1.349 . S
C864 C866 1.327 . S
C864 H889 0.950 . S
C865 C864 1.349 . S
C865 C881 1.349 . S
C866 C864 1.327 . S
C866 C885 1.429 . S
C866 H890 0.950 . S
C867 C884 1.574 . S
C867 C886 1.368 . S
C867 H891 0.949 . S
H868 C872 0.949 . S
C869 C870 1.349 . S
C869 C871 1.327 . S
C869 H892 0.950 . S
C870 C869 1.349 . S
C870 C882 1.349 . S
C871 C869 1.327 . S
C871 C887 1.429 . S
C871 H893 0.950 . S
C872 H868 0.949 . S
C872 C880 1.574 . S
C872 C888 1.368 . S
H873 C881 0.950 . S
H874 C879 0.950 . S
H875 C880 0.949 . S
H876 C882 0.950 . S
H877 C883 0.950 . S
H878 C884 0.949 . S
C879 H874 0.950 . S
C879 C881 1.327 . S
C879 C885 1.429 . S
C880 C872 1.574 . S
C880 H875 0.949 . S
C880 C886 1.368 . S
C881 C865 1.349 . S
C881 H873 0.950 . S
C881 C879 1.327 . S
C882 C870 1.349 . S
C882 H876 0.950 . S
C882 C883 1.327 . S
C883 H877 0.950 . S
C883 C882 1.327 . S
C883 C887 1.429 . S
C884 C867 1.574 . S
C884 H878 0.949 . S
C884 C888 1.368 . S
C885 C866 1.429 . S
C885 C879 1.429 . S
C885 C886 1.523 . S
C886 C867 1.368 . S
C886 C880 1.368 . S
C886 C885 1.523 . S
C887 C871 1.429 . S
C887 C883 1.429 . S
C887 C888 1.523 . S
C888 C872 1.368 . S
C888 C884 1.368 . S
C888 C887 1.523 . S
H889 C864 0.950 . S
H890 C866 0.950 . S
H891 C867 0.949 . S
H892 C869 0.950 . S
H893 C871 0.950 . S
C355 C9 0.413 . S
C360 C331 0.386 . S
C385 C49 0.256 . S
C390 C258 0.248 . S
C415 C89 0.251 . S
C420 C297 0.261 . S
C445 C26 0.334 . S
C450 C336 0.239 . S
C480 C253 0.307 . S
C475 C66 0.398 . S
C510 C292 0.330 . S
C505 C106 0.424 . S
C535 C43 2.884 . S
C540 C180 2.847 . S
C565 C83 3.053 . S
C570 C214 3.003 . S
C595 C22 3.107 . S
C600 C136 3.051 . S
C630 C175 3.042 . S
C625 C62 3.095 . S
C660 C219 2.879 . S
C655 C102 2.920 . S
C685 C3 2.872 . S
C690 C141 2.840 . S
C720 C199 1.776 . S
C715 C15 1.717 . S
C745 C55 1.731 . S
C750 C121 1.776 . S
C775 C95 1.726 . S
C780 C160 1.771 . S
C810 C277 1.101 . S
C805 C42 1.084 . S
C840 C316 1.108 . S
C835 C82 1.092 . S
C865 C2 1.084 . S
C870 C238 1.098 . S
