# Generated by pormake.
# Topology ftw, (4,12)-cn, num edge types: 1
# Building blocks:
#     Node 0, Type 0, BuildingBlock: KUFVIS_clean_linker_0, # of connection points: 4
#     Node 1, Type 0, BuildingBlock: KUFVIS_clean_linker_0, # of connection points: 4
#     Node 2, Type 0, BuildingBlock: KUFVIS_clean_linker_0, # of connection points: 4
#     Node 3, Type 1, BuildingBlock: QEWDON_clean_sbu_0, # of connection points: 12
#     Edge 4, Type (0, 1), BuildingBlock: FUNLAD_clean_linker_1, # of connection points: 2
#     Edge 5, Type (0, 1), BuildingBlock: FUNLAD_clean_linker_1, # of connection points: 2
#     Edge 6, Type (0, 1), BuildingBlock: FUNLAD_clean_linker_1, # of connection points: 2
#     Edge 7, Type (0, 1), BuildingBlock: FUNLAD_clean_linker_1, # of connection points: 2
#     Edge 8, Type (0, 1), BuildingBlock: FUNLAD_clean_linker_1, # of connection points: 2
#     Edge 9, Type (0, 1), BuildingBlock: FUNLAD_clean_linker_1, # of connection points: 2
#     Edge 10, Type (0, 1), BuildingBlock: FUNLAD_clean_linker_1, # of connection points: 2
#     Edge 11, Type (0, 1), BuildingBlock: FUNLAD_clean_linker_1, # of connection points: 2
#     Edge 12, Type (0, 1), BuildingBlock: FUNLAD_clean_linker_1, # of connection points: 2
#     Edge 13, Type (0, 1), BuildingBlock: FUNLAD_clean_linker_1, # of connection points: 2
#     Edge 14, Type (0, 1), BuildingBlock: FUNLAD_clean_linker_1, # of connection points: 2
#     Edge 15, Type (0, 1), BuildingBlock: FUNLAD_clean_linker_1, # of connection points: 2
# Relax obj value: 0.101
# Max RMSD: 0.259
# Mean RMSD: 0.192
data_MOF--net-ftw--node1-QEWDON_clean_sbu_0--node2-KUFVIS_clean_linker_0--edge1-FUNLAD_clean_linker_1
_symmetry_space_group_name_H-M    P1
_symmetry_Int_Tables_number       1
_symmetry_cell_setting            triclinic
loop_
_symmetry_equiv_pos_as_xyz
'x, y, z'
_cell_length_a     23.450122
_cell_length_b     27.228529
_cell_length_c     26.224427
_cell_angle_alpha  90.125225
_cell_angle_beta   89.979396
_cell_angle_gamma 90.154812
loop_
_atom_site_label
_atom_site_type_symbol
_atom_site_fract_x
_atom_site_fract_y
_atom_site_fract_z
_atom_type_partial_charge
H0 H 0.03002 0.32893 0.51218 0.0
H1 H 0.00248 0.4601 0.59804 0.0
H2 H 0.98941 0.46094 0.4325 0.0
H3 H 0.01502 0.53675 0.43705 0.0
H4 H 0.98051 0.66921 0.51868 0.0
H5 H 0.9636 0.53172 0.59608 0.0
C6 C 0.01921 0.36769 0.51312 0.0
C7 C 0.01038 0.39265 0.46756 0.0
C8 C 0.01348 0.39148 0.55988 0.0
C9 C 0.00239 0.4423 0.56121 0.0
C10 C -0.00486 0.4696 0.51541 0.0
C11 C -0.00314 0.443 0.46858 0.0
C12 C 0.98919 0.52533 0.51622 0.0
C13 C 0.00118 0.55383 0.47213 0.0
C14 C -0.00434 0.60528 0.47236 0.0
C15 C 0.98271 0.62943 0.51805 0.0
C16 C 0.97347 0.60291 0.56306 0.0
C17 C 0.97398 0.55115 0.56142 0.0
H18 H 0.48457 0.00585 0.69998 0.0
H19 H 0.57798 0.98883 0.56081 0.0
H20 H 0.39612 0.01514 0.55814 0.0
H21 H 0.3999 0.98772 0.47986 0.0
H22 H 0.49442 0.02121 0.3449 0.0
H23 H 0.57982 0.02468 0.48857 0.0
C24 C 0.48571 0.00329 0.65896 0.0
C25 C 0.43415 0.00717 0.63184 0.0
C26 C 0.53809 0.99799 0.63329 0.0
C27 C 0.53785 0.99579 0.57968 0.0
C28 C 0.48742 0.00278 0.55088 0.0
C29 C 0.4357 0.00877 0.57814 0.0
C30 C 0.48953 0.00541 0.49304 0.0
C31 C 0.44017 0.99756 0.46261 0.0
C32 C 0.44207 0.00402 0.40928 0.0
C33 C 0.49391 0.01551 0.38575 0.0
C34 C 0.54431 0.02007 0.41403 0.0
C35 C 0.54122 0.01714 0.46747 0.0
H36 H 0.50525 0.6589 0.03567 0.0
H37 H 0.58059 0.51868 0.06145 0.0
H38 H 0.41389 0.52923 0.99138 0.0
H39 H 0.39965 0.46169 0.03774 0.0
H40 H 0.47441 0.32124 0.01182 0.0
H41 H 0.58142 0.44932 0.01325 0.0
C42 C 0.50276 0.61934 0.03171 0.0
C43 C 0.4542 0.59701 0.01095 0.0
C44 C 0.54852 0.59124 0.04851 0.0
C45 C 0.5455 0.53998 0.04642 0.0
C46 C 0.49646 0.51678 0.02664 0.0
C47 C 0.45149 0.54594 0.00808 0.0
C48 C 0.49142 0.46247 0.02556 0.0
C49 C 0.43743 0.44001 0.03045 0.0
C50 C 0.43161 0.38941 0.02391 0.0
C51 C 0.47958 0.3607 0.01608 0.0
C52 C 0.53387 0.38156 0.01452 0.0
C53 C 0.53985 0.43272 0.0179 0.0
Zn54 Zn 0.05108 0.06927 0.98171 0.0
Zn55 Zn 0.05912 0.08187 0.10722 0.0
O56 O 0.03083 0.03662 0.05034 0.0
H57 H 0.02926 0.00133 0.05093 0.0
C58 C -3e-05 0.16414 0.87712 0.0
O59 O 0.01271 0.11941 0.86215 0.0
Zn60 Zn 0.90664 0.91724 0.09401 0.0
Zn61 Zn 0.9242 0.92391 0.96949 0.0
O62 O 0.93718 0.95958 0.03639 0.0
H63 H 0.93526 0.99479 0.03349 0.0
Zn64 Zn 0.94338 0.11472 0.96767 0.0
O65 O 0.9695 0.11141 0.04182 0.0
Zn66 Zn 0.90248 0.09683 0.08632 0.0
H67 H 0.96097 0.11364 1.00589 0.0
Zn68 Zn 0.06137 0.89464 0.97156 0.0
O69 O 0.01832 0.89187 0.03969 0.0
H70 H 0.98503 0.87114 0.04289 0.0
Zn71 Zn 0.07553 0.90242 0.09633 0.0
C72 C 0.00459 0.84059 0.87985 0.0
O73 O 0.964 0.87373 0.88036 0.0
O74 O 0.08275 0.13883 0.99198 0.0
O75 O 0.10649 0.134 0.07439 0.0
O76 O 0.88679 0.85678 0.981 0.0
O77 O 0.85822 0.86443 0.06205 0.0
O78 O 0.85604 0.11726 0.96642 0.0
O79 O 0.83313 0.1193 0.04909 0.0
C80 C 0.11583 0.9965 0.15021 0.0
O81 O 0.14781 0.89558 0.98532 0.0
O82 O 0.14948 0.87993 0.06895 0.0
O83 O 0.88522 0.96201 0.90967 0.0
C84 C 0.10808 0.15535 0.0313 0.0
O85 O 0.09322 0.03246 0.92153 0.0
C86 C 0.85952 0.00485 0.13925 0.0
O87 O 0.97482 0.1705 0.91961 0.0
C88 C 0.8579 0.84217 0.01913 0.0
O89 O 0.04442 0.84273 0.91281 0.0
C90 C 0.95982 0.14287 0.17149 0.0
O91 O 0.11149 0.04301 0.15225 0.0
O92 O 0.08468 0.97316 0.11856 0.0
C93 C 0.81989 0.12324 1.00208 0.0
O94 O 0.85901 0.95826 0.14101 0.0
O95 O 0.89117 0.0261 0.10652 0.0
C96 C 0.00052 0.85827 0.16711 0.0
O97 O 0.91286 0.13576 0.14858 0.0
O98 O 0.00633 0.12356 0.15543 0.0
C99 C 0.17391 0.88261 0.02562 0.0
O100 O 0.05319 0.8617 0.15645 0.0
O101 O 0.96456 0.88081 0.13918 0.0
C102 C 0.84524 0.99228 0.9188 0.0
O103 O 0.83211 0.0024 0.96633 0.0
C104 C 0.14012 0.01035 0.92955 0.0
O105 O 0.15888 0.00648 0.97652 0.0
H106 H 0.06091 0.34645 0.4156 0.0
C107 C 0.02017 0.36509 0.41963 0.0
H108 H 0.9352 0.3677 0.39406 0.0
H109 H 0.07063 0.26021 0.19876 0.0
H110 H 0.11568 0.33932 0.18539 0.0
H111 H 0.10115 0.40736 0.24624 0.0
H112 H 0.04136 0.39668 0.32089 0.0
C113 C 0.97779 0.35339 0.38742 0.0
C114 C 0.9855 0.31291 0.34934 0.0
C115 C 0.02047 0.31958 0.30575 0.0
C116 C 0.02865 0.28022 0.2705 0.0
C117 C 0.06318 0.28846 0.227 0.0
C118 C 0.08924 0.33381 0.21876 0.0
C119 C 0.08111 0.37211 0.25303 0.0
C120 C 0.04693 0.36539 0.2959 0.0
H121 H 0.91788 0.19219 0.2262 0.0
C122 C 0.9592 0.17761 0.21503 0.0
H123 H 0.048 0.18201 0.22711 0.0
H124 H 0.91764 0.2869 0.42989 0.0
H125 H 0.87662 0.20662 0.44591 0.0
H126 H 0.89424 0.13752 0.38707 0.0
H127 H 0.9526 0.14837 0.31173 0.0
C128 C 0.00607 0.19437 0.2391 0.0
C129 C 0.00164 0.2341 0.27871 0.0
C130 C 0.96863 0.22689 0.32356 0.0
C131 C 0.9597 0.2665 0.35827 0.0
C132 C 0.92592 0.25823 0.40226 0.0
C133 C 0.90222 0.21225 0.41205 0.0
C134 C 0.91205 0.17337 0.37888 0.0
C135 C 0.94512 0.18029 0.33536 0.0
H136 H 0.63549 0.04335 0.41132 0.0
C137 C 0.60061 0.02866 0.38859 0.0
H138 H 0.57873 0.99768 0.31693 0.0
H139 H 0.79221 0.11648 0.21953 0.0
H140 H 0.72955 0.18706 0.22489 0.0
H141 H 0.63815 0.18212 0.27121 0.0
H142 H 0.60932 0.10672 0.31344 0.0
C143 C 0.61109 0.01585 0.33973 0.0
C144 C 0.66851 0.02062 0.31578 0.0
C145 C 0.68448 0.06458 0.29062 0.0
C146 C 0.73625 0.06684 0.26213 0.0
C147 C 0.75221 0.112 0.23955 0.0
C148 C 0.71689 0.15296 0.24277 0.0
C149 C 0.66548 0.15021 0.26897 0.0
C150 C 0.64937 0.10671 0.29293 0.0
H151 H 0.782 0.04713 0.15576 0.0
C152 C 0.82006 0.03166 0.17292 0.0
H153 H 0.86135 0.00778 0.23894 0.0
H154 H 0.65261 0.93233 0.36291 0.0
H155 H 0.71316 0.86056 0.35597 0.0
H156 H 0.7998 0.86217 0.3027 0.0
H157 H 0.82662 0.93507 0.25649 0.0
C158 C 0.8227 0.02399 0.22359 0.0
C159 C 0.77086 0.02436 0.25703 0.0
C160 C 0.75535 0.9806 0.28342 0.0
C161 C 0.70458 0.97907 0.3132 0.0
C162 C 0.69032 0.9352 0.33929 0.0
C163 C 0.72471 0.89374 0.33571 0.0
C164 C 0.77352 0.89469 0.30582 0.0
C165 C 0.78867 0.93726 0.2797 0.0
H166 H 0.04473 0.62711 0.40358 0.0
C167 C 0.00608 0.63426 0.42518 0.0
H168 H 0.92971 0.67397 0.43051 0.0
H169 H 0.98638 0.86319 0.30628 0.0
H170 H 0.95956 0.89518 0.38905 0.0
H171 H 0.94333 0.83953 0.4617 0.0
H172 H 0.95318 0.75171 0.45198 0.0
C173 C 0.96857 0.66829 0.40871 0.0
C174 C 0.97928 0.70156 0.36395 0.0
C175 C 0.97396 0.75332 0.37036 0.0
C176 C 0.98407 0.78569 0.32853 0.0
C177 C 0.97879 0.83696 0.33642 0.0
C178 C 0.96363 0.85589 0.38386 0.0
C179 C 0.95443 0.82456 0.42473 0.0
C180 C 0.95986 0.77399 0.41843 0.0
H181 H 0.93606 0.82522 0.21908 0.0
C182 C 0.98131 0.82696 0.21029 0.0
H183 H 0.06352 0.80062 0.22834 0.0
H184 H 0.98032 0.60479 0.33369 0.0
H185 H 0.00896 0.57336 0.25132 0.0
H186 H 0.03485 0.62965 0.18148 0.0
H187 H 0.03097 0.7179 0.19346 0.0
C188 C 0.01849 0.80031 0.23814 0.0
C189 C 0.00068 0.76664 0.28041 0.0
C190 C 0.00517 0.71505 0.27371 0.0
C191 C -0.00722 0.68248 0.31486 0.0
C192 C -0.00702 0.63126 0.30522 0.0
C193 C 0.0085 0.61265 0.25771 0.0
C194 C 0.02292 0.64434 0.21835 0.0
C195 C 0.02081 0.69494 0.22586 0.0
H196 H 0.39018 0.02689 0.34354 0.0
C197 C 0.3907 0.00222 0.37615 0.0
H198 H 0.34814 0.94202 0.41053 0.0
H199 H 0.13409 0.03561 0.28193 0.0
H200 H 0.11537 0.07411 0.36374 0.0
H201 H 0.18177 0.0635 0.43584 0.0
H202 H 0.26749 0.01421 0.42647 0.0
C203 C 0.34844 0.96906 0.38016 0.0
C204 C 0.3032 0.96752 0.34005 0.0
C205 C 0.25266 0.99513 0.34648 0.0
C206 C 0.21459 0.00145 0.30479 0.0
C207 C 0.16491 0.03014 0.3121 0.0
C208 C 0.1535 0.05225 0.35893 0.0
C209 C 0.19088 0.04625 0.39952 0.0
C210 C 0.23992 0.01801 0.39362 0.0
H211 H 0.15073 0.93236 0.19271 0.0
C212 C 0.1557 0.9714 0.18546 0.0
H213 H 0.19882 0.03715 0.2037 0.0
H214 H 0.39224 0.9071 0.31701 0.0
H215 H 0.41138 0.86861 0.23502 0.0
H216 H 0.34641 0.88081 0.16216 0.0
H217 H 0.26179 0.93151 0.17075 0.0
C218 C 0.1949 0.99803 0.21124 0.0
C219 C 0.22706 0.98023 0.25657 0.0
C220 C 0.2757 0.94989 0.25103 0.0
C221 C 0.31362 0.94332 0.29296 0.0
C222 C 0.36245 0.91359 0.28624 0.0
C223 C 0.37383 0.89127 0.23948 0.0
C224 C 0.33722 0.89813 0.19844 0.0
C225 C 0.28876 0.92724 0.20387 0.0
H226 H 0.92892 0.61758 0.63656 0.0
C227 C 0.96347 0.62964 0.61195 0.0
H228 H 0.03216 0.67831 0.60146 0.0
H229 H 0.97135 0.86035 0.7314 0.0
H230 H 0.97435 0.89328 0.64578 0.0
H231 H 0.98051 0.83829 0.57115 0.0
H232 H 0.98464 0.75016 0.5817 0.0
C233 C -0.0029 0.66765 0.62625 0.0
C234 C 0.98644 0.69956 0.67211 0.0
C235 C 0.98171 0.75122 0.66535 0.0
C236 C 0.97616 0.78298 0.70839 0.0
C237 C 0.97415 0.83441 0.70021 0.0
C238 C 0.97602 0.8539 0.6512 0.0
C239 C 0.97965 0.82296 0.60921 0.0
C240 C 0.98233 0.7723 0.61592 0.0
H241 H 0.04489 0.7795 0.83745 0.0
C242 C 0.00733 0.80277 0.83899 0.0
H243 H 0.92979 0.82156 0.80347 0.0
H244 H 0.00329 0.60373 0.70093 0.0
H245 H -0.00561 0.57063 0.78606 0.0
H246 H 0.97279 0.6246 0.85915 0.0
H247 H 0.96164 0.71234 0.84762 0.0
C248 C 0.96665 0.79745 0.80306 0.0
C249 C 0.97343 0.7633 0.7584 0.0
C250 C 0.97641 0.7116 0.76517 0.0
C251 C 0.98497 0.67992 0.72232 0.0
C252 C -0.00696 0.62914 0.73123 0.0
C253 C 0.98869 0.60965 0.78013 0.0
C254 C 0.97682 0.64006 0.82132 0.0
C255 C 0.97086 0.69045 0.81419 0.0
H256 H 0.34416 0.03215 0.64044 0.0
C257 C 0.3784 0.01232 0.65919 0.0
H258 H 0.40044 0.96935 0.7233 0.0
H259 H 0.20753 0.0978 0.84335 0.0
H260 H 0.272 0.16667 0.83224 0.0
H261 H 0.3566 0.15965 0.7768 0.0
H262 H 0.37695 0.0839 0.73169 0.0
C263 C 0.36854 0.99255 0.70558 0.0
C264 C 0.31376 0.99915 0.73408 0.0
C265 C 0.30228 0.04387 0.76002 0.0
C266 C 0.25391 0.04771 0.79274 0.0
C267 C 0.24374 0.09273 0.81831 0.0
C268 C 0.28042 0.13259 0.81229 0.0
C269 C 0.32801 0.12864 0.78104 0.0
C270 C 0.33911 0.08491 0.75522 0.0
H271 H 0.21721 0.9764 0.8968 0.0
C272 C 0.17801 0.99539 0.88698 0.0
H273 H 0.13286 0.03149 0.82836 0.0
H274 H 0.32051 0.90962 0.68745 0.0
H275 H 0.25541 0.84084 0.69837 0.0
H276 H 0.17241 0.84729 0.75586 0.0
H277 H 0.15391 0.92267 0.80293 0.0
C278 C 0.17019 0.01007 0.83848 0.0
C279 C 0.21763 0.0066 0.80049 0.0
C280 C 0.22792 0.96248 0.77328 0.0
C281 C 0.27594 0.95876 0.74009 0.0
C282 C 0.28503 0.91422 0.71342 0.0
C283 C 0.2479 0.87456 0.71923 0.0
C284 C 0.20114 0.87821 0.7516 0.0
C285 C 0.19107 0.92156 0.77845 0.0
H286 H 0.06261 0.33984 0.60695 0.0
C287 C 0.02422 0.36218 0.60634 0.0
H288 H 0.94394 0.37389 0.64032 0.0
H289 H 0.93898 0.16526 0.74752 0.0
H290 H 0.86204 0.15769 0.68637 0.0
H291 H 0.84426 0.22282 0.62318 0.0
H292 H 0.90331 0.29608 0.62082 0.0
C293 C 0.9849 0.35551 0.64299 0.0
C294 C -0.00634 0.31741 0.68333 0.0
C295 C 0.95834 0.27497 0.68454 0.0
C296 C 0.96896 0.23705 0.72067 0.0
C297 C 0.93309 0.19506 0.72082 0.0
C298 C 0.88869 0.19021 0.68592 0.0
C299 C 0.87871 0.22689 0.65035 0.0
C300 C 0.91292 0.26883 0.64948 0.0
H301 H 0.98918 0.24166 0.85449 0.0
C302 C 0.00589 0.20642 0.84198 0.0
H303 H 0.03914 0.16616 0.77989 0.0
H304 H 0.06618 0.39555 0.69512 0.0
H305 H 0.14976 0.3988 0.74914 0.0
H306 H 0.17427 0.32976 0.80465 0.0
H307 H 0.11211 0.25769 0.81067 0.0
C308 C 0.02461 0.20163 0.79372 0.0
C309 C 0.01507 0.24133 0.75544 0.0
C310 C 0.05136 0.28301 0.75326 0.0
C311 C 0.03966 0.32165 0.71823 0.0
C312 C 0.0748 0.364 0.71885 0.0
C313 C 0.12259 0.3666 0.75007 0.0
C314 C 0.13594 0.32775 0.78198 0.0
C315 C 0.10029 0.2867 0.78461 0.0
H316 H 0.63284 0.99539 0.63706 0.0
C317 C 0.59448 0.99628 0.66039 0.0
H318 H 0.56511 0.99566 0.73708 0.0
H319 H 0.78582 0.90132 0.8307 0.0
H320 H 0.73055 0.82723 0.8175 0.0
H321 H 0.64209 0.82861 0.76664 0.0
H322 H 0.60847 0.90442 0.72853 0.0
C323 C 0.60127 0.99654 0.71148 0.0
C324 C 0.65878 0.99481 0.73591 0.0
C325 C 0.67838 0.95016 0.75729 0.0
C326 C 0.72959 0.9493 0.78638 0.0
C327 C 0.7475 0.90421 0.80797 0.0
C328 C 0.7161 0.8613 0.80076 0.0
C329 C 0.6663 0.86211 0.77215 0.0
C330 C 0.64743 0.90589 0.7506 0.0
H331 H 0.76865 0.02898 0.8888 0.0
C332 C 0.80638 0.00841 0.87772 0.0
H333 H 0.84751 0.96986 0.8184 0.0
H334 H 0.63523 0.08612 0.69813 0.0
H335 H 0.69222 0.15998 0.70943 0.0
H336 H 0.78141 0.1582 0.75927 0.0
H337 H 0.81432 0.08239 0.79817 0.0
C338 C 0.81119 0.99222 0.82943 0.0
C339 C 0.761 0.99321 0.79452 0.0
C340 C 0.74284 0.03748 0.77137 0.0
C341 C 0.69162 0.03833 0.74209 0.0
C342 C 0.67395 0.0833 0.72032 0.0
C343 C 0.70625 0.12595 0.72655 0.0
C344 C 0.75649 0.12496 0.75465 0.0
C345 C 0.77479 0.08133 0.7769 0.0
H346 H 0.37312 0.33253 0.99746 0.0
C347 C 0.37623 0.36461 0.02227 0.0
H348 H 0.33661 0.40296 0.08301 0.0
H349 H 0.18729 0.23657 0.94627 0.0
H350 H 0.18075 0.29975 0.88296 0.0
H351 H 0.22003 0.38297 0.89874 0.0
H352 H 0.26769 0.40161 0.97928 0.0
C353 C 0.33337 0.37414 0.05445 0.0
C354 C 0.28709 0.33724 0.05673 0.0
C355 C 0.25411 0.32894 0.0124 0.0
C356 C 0.22768 0.28275 1.00463 0.0
C357 C 0.20347 0.27251 0.95632 0.0
C358 C 0.20053 0.30846 0.91892 0.0
C359 C 0.22278 0.35501 0.92791 0.0
C360 C 0.24989 0.36521 0.974 0.0
H361 H 0.11788 0.23428 0.01809 0.0
C362 C 0.14033 0.20069 0.02766 0.0
H363 H 0.21708 0.16639 0.04796 0.0
H364 H 0.34434 0.34324 0.14733 0.0
H365 H 0.34834 0.28053 0.21295 0.0
H366 H 0.29483 0.20292 0.20336 0.0
H367 H 0.23792 0.18724 0.12821 0.0
C368 C 0.196 0.20078 0.03872 0.0
C369 C 0.22825 0.24729 0.04414 0.0
C370 C 0.25844 0.25678 0.09003 0.0
C371 C 0.28832 0.3018 0.0961 0.0
C372 C 0.32075 0.3096 0.14095 0.0
C373 C 0.32319 0.27403 0.17898 0.0
C374 C 0.29308 0.23036 0.17358 0.0
C375 C 0.26065 0.22178 0.12996 0.0
H376 H 0.36167 0.6104 0.00722 0.0
C377 C 0.40322 0.62634 0.99882 0.0
H378 H 0.44738 0.69075 0.97637 0.0
H379 H 0.2086 0.79908 0.93717 0.0
H380 H 0.22788 0.77501 0.84991 0.0
H381 H 0.30814 0.71989 0.82951 0.0
H382 H 0.3692 0.68817 0.89671 0.0
C383 C 0.40703 0.67408 0.98709 0.0
C384 C 0.35937 0.70727 0.99881 0.0
C385 C 0.3256 0.72642 0.95895 0.0
C386 C 0.28057 0.75915 0.97057 0.0
C387 C 0.24505 0.77574 0.93042 0.0
C388 C 0.25528 0.76178 0.88011 0.0
C389 C 0.30039 0.73068 0.86865 0.0
C390 C 0.33516 0.71288 0.9075 0.0
H391 H 0.25959 0.86848 0.99392 0.0
C392 C 0.22605 0.85482 0.01878 0.0
H393 H 0.19019 0.79401 0.05732 0.0
H394 H 0.41705 0.67701 0.08497 0.0
H395 H 0.39549 0.6989 0.1721 0.0
H396 H 0.31702 0.75599 0.19204 0.0
H397 H 0.25994 0.79128 0.12459 0.0
C398 C 0.22551 0.80813 0.03467 0.0
C399 C 0.27122 0.77357 0.02191 0.0
C400 C 0.30382 0.75334 0.06193 0.0
C401 C 0.34845 0.7203 0.0504 0.0
C402 C 0.38162 0.70147 0.09114 0.0
C403 C 0.36993 0.714 0.14158 0.0
C404 C 0.32582 0.74611 0.15281 0.0
C405 C 0.29327 0.76596 0.11362 0.0
H406 H 0.56967 0.30863 1.00428 0.0
C407 C 0.58163 0.34713 0.00877 0.0
H408 H 0.65321 0.39463 0.0183 0.0
H409 H 0.76444 0.2 0.1127 0.0
H410 H 0.77997 0.25948 0.17956 0.0
H411 H 0.74785 0.34513 0.17004 0.0
H412 H 0.70133 0.37196 0.09211 0.0
C413 C 0.63744 0.35781 0.01105 0.0
C414 C 0.67688 0.31536 0.00918 0.0
C415 C 0.70381 0.30019 0.05461 0.0
C416 C 0.72063 0.25039 0.06039 0.0
C417 C 0.74903 0.23673 0.10601 0.0
C418 C 0.75847 0.27069 0.14498 0.0
C419 C 0.74043 0.31893 0.13963 0.0
C420 C 0.71347 0.33376 0.09497 0.0
H421 H 0.76972 0.16804 0.95191 0.0
C422 C 0.76807 0.14968 0.98865 0.0
H423 H 0.73016 0.1462 0.0609 0.0
H424 H 0.6448 0.33721 0.91233 0.0
H425 H 0.62129 0.27791 0.84543 0.0
H426 H 0.63026 0.18885 0.86136 0.0
H427 H 0.66638 0.15894 0.94246 0.0
C428 C 0.73147 0.16511 0.02452 0.0
C429 C 0.70834 0.21576 0.02095 0.0
C430 C 0.68176 0.23173 0.97532 0.0
C431 C 0.6713 0.28226 0.96787 0.0
C432 C 0.6509 0.2985 0.92005 0.0
C433 C 0.63731 0.26501 0.88169 0.0
C434 C 0.6426 0.21492 0.89059 0.0
C435 C 0.66405 0.19826 0.93699 0.0
H436 H 0.59182 0.65216 0.08666 0.0
C437 C 0.59918 0.61769 0.06657 0.0
H438 H 0.65754 0.57743 0.02214 0.0
H439 H 0.74257 0.78559 0.94484 0.0
H440 H 0.70775 0.74733 0.86742 0.0
H441 H 0.66579 0.66422 0.86915 0.0
H442 H 0.65783 0.61926 0.94835 0.0
C443 C 0.6506 0.60942 0.04617 0.0
C444 C 0.69083 0.65141 0.0434 0.0
C445 C 0.69811 0.67581 0.99605 0.0
C446 C 0.72401 0.72297 0.99472 0.0
C447 C 0.72608 0.74859 0.94771 0.0
C448 C 0.70554 0.72732 0.90299 0.0
C449 C 0.68176 0.68061 0.904 0.0
C450 C 0.67754 0.65515 0.94987 0.0
H451 H 0.83934 0.76858 0.98862 0.0
C452 C 0.82407 0.79744 0.01384 0.0
H453 H 0.75977 0.82137 0.0641 0.0
H454 H 0.68767 0.61218 0.13917 0.0
H455 H 0.72034 0.65132 0.2173 0.0
H456 H 0.76581 0.73313 0.21519 0.0
H457 H 0.7791 0.77602 0.13539 0.0
C458 C 0.7752 0.792 0.03958 0.0
C459 C 0.74499 0.74431 0.04042 0.0
C460 C 0.73855 0.71958 0.08757 0.0
C461 C 0.71193 0.67281 0.08895 0.0
C462 C 0.70641 0.64844 0.13635 0.0
C463 C 0.72535 0.6703 0.18135 0.0
C464 C 0.75099 0.7163 0.18015 0.0
C465 C 0.75816 0.74062 0.13393 0.0
loop_
_geom_bond_atom_site_label_1
_geom_bond_atom_site_label_2
_geom_bond_distance
_geom_bond_site_symmetry_2
_ccdc_geom_bond_type
H0 C6 0.930 . S
H1 C9 0.931 . S
H2 C11 0.931 . S
H3 C13 0.930 . S
H4 C15 0.930 . S
H5 C17 0.931 . S
C6 H0 0.930 . S
C6 C7 1.381 . S
C6 C8 1.393 1_655 S
C7 C6 1.381 . S
C7 C11 1.382 . S
C8 C6 1.393 1_455 S
C8 C9 1.400 . S
C9 H1 0.931 . S
C9 C8 1.400 . S
C9 C10 1.375 . S
C10 C9 1.375 . S
C10 C11 1.415 1_455 S
C10 C12 1.501 . S
C11 H2 0.931 . S
C11 C7 1.382 . S
C11 C10 1.415 1_655 S
C12 C10 1.501 . S
C12 C13 1.384 . S
C12 C17 1.408 1_455 S
C13 H3 0.930 . S
C13 C12 1.384 . S
C13 C14 1.389 . S
C14 C13 1.389 . S
C14 C15 1.405 . S
C15 H4 0.930 . S
C15 C14 1.405 . S
C15 C16 1.364 1_455 S
C16 C15 1.364 1_655 S
C16 C17 1.400 . S
C17 H5 0.931 . S
C17 C12 1.408 1_655 S
C17 C16 1.400 . S
H18 C24 0.930 . S
H19 C27 0.931 . S
H20 C29 0.931 . S
H21 C31 0.930 . S
H22 C33 0.930 . S
H23 C35 0.931 . S
C24 H18 0.930 . S
C24 C25 1.380 . S
C24 C26 1.394 1_545 S
C25 C24 1.380 . S
C25 C29 1.382 . S
C26 C24 1.394 1_565 S
C26 C27 1.400 . S
C27 H19 0.931 . S
C27 C26 1.400 . S
C27 C28 1.375 . S
C28 C27 1.375 . S
C28 C29 1.415 1_565 S
C28 C30 1.501 . S
C29 H20 0.931 . S
C29 C25 1.382 . S
C29 C28 1.415 1_545 S
C30 C28 1.501 . S
C30 C31 1.384 . S
C30 C35 1.408 1_565 S
C31 H21 0.930 . S
C31 C30 1.384 . S
C31 C32 1.389 . S
C32 C31 1.389 . S
C32 C33 1.405 . S
C33 H22 0.930 . S
C33 C32 1.405 . S
C33 C34 1.364 1_565 S
C34 C33 1.364 1_545 S
C34 C35 1.400 . S
C35 H23 0.931 . S
C35 C30 1.408 1_545 S
C35 C34 1.400 . S
H36 C42 0.930 . S
H37 C45 0.931 . S
H38 C47 0.931 . S
H39 C49 0.930 . S
H40 C51 0.930 . S
H41 C53 0.931 . S
C42 H36 0.930 . S
C42 C43 1.380 . S
C42 C44 1.394 . S
C43 C42 1.380 . S
C43 C47 1.382 . S
C44 C42 1.394 . S
C44 C45 1.400 . S
C45 H37 0.931 . S
C45 C44 1.400 . S
C45 C46 1.375 . S
C46 C45 1.375 . S
C46 C47 1.415 . S
C46 C48 1.501 . S
C47 H38 0.931 . S
C47 C43 1.382 . S
C47 C46 1.415 . S
C48 C46 1.501 . S
C48 C49 1.384 . S
C48 C53 1.408 . S
C49 H39 0.930 . S
C49 C48 1.384 . S
C49 C50 1.389 . S
C50 C49 1.389 . S
C50 C51 1.405 . S
C51 H40 0.930 . S
C51 C50 1.405 . S
C51 C52 1.364 . S
C52 C51 1.364 . S
C52 C53 1.400 . S
C53 H41 0.931 . S
C53 C48 1.408 . S
C53 C52 1.400 . S
Zn54 O56 1.933 1_556 S
Zn54 O74 1.985 . S
Zn54 O85 1.955 . S
Zn55 O56 1.911 . S
Zn55 O75 1.970 . S
Zn55 O91 1.945 . S
Zn55 O98 1.981 . S
O56 Zn54 1.933 1_554 S
O56 Zn55 1.911 . S
O56 H57 0.841 . S
H57 O56 0.841 . S
C58 O59 1.246 . S
C58 O87 1.276 1_455 S
O59 C58 1.246 . S
Zn60 O62 1.911 . S
Zn60 O77 1.970 . S
Zn60 O94 1.945 . S
Zn60 O101 1.981 . S
Zn61 O62 1.933 1_556 S
Zn61 O76 1.985 . S
Zn61 O83 1.955 . S
O62 Zn60 1.911 . S
O62 Zn61 1.933 1_554 S
O62 H63 0.841 . S
H63 O62 0.841 . S
Zn64 O65 1.933 1_556 S
Zn64 O78 1.985 . S
Zn64 O87 1.955 . S
O65 Zn64 1.933 1_554 S
O65 Zn66 1.911 . S
O65 H67 0.841 . S
Zn66 O65 1.911 . S
Zn66 O79 1.970 . S
Zn66 O95 1.981 . S
Zn66 O97 1.945 . S
H67 O65 0.841 . S
Zn68 O69 1.933 1_556 S
Zn68 O81 1.985 . S
Zn68 O89 1.955 . S
O69 Zn68 1.933 1_554 S
O69 H70 0.841 . S
O69 Zn71 1.911 . S
H70 O69 0.841 . S
Zn71 O69 1.911 . S
Zn71 O82 1.970 . S
Zn71 O92 1.981 . S
Zn71 O100 1.945 . S
C72 O73 1.246 . S
C72 O89 1.276 1_655 S
O73 C72 1.246 . S
O74 Zn54 1.985 . S
O74 C84 1.245 1_556 S
O75 Zn55 1.970 . S
O75 C84 1.263 . S
O76 Zn61 1.985 . S
O76 C88 1.245 1_556 S
O77 Zn60 1.970 . S
O77 C88 1.263 . S
O78 Zn64 1.985 . S
O78 C93 1.245 1_556 S
O79 Zn66 1.970 . S
O79 C93 1.263 . S
C80 O91 1.262 . S
C80 O92 1.245 1_545 S
O81 Zn68 1.985 . S
O81 C99 1.245 1_556 S
O82 Zn71 1.970 . S
O82 C99 1.263 . S
O83 Zn61 1.955 . S
O83 C102 1.276 1_565 S
C84 O74 1.245 1_554 S
C84 O75 1.263 . S
O85 Zn54 1.955 . S
O85 C104 1.276 1_545 S
C86 O94 1.261 1_545 S
C86 O95 1.245 . S
O87 C58 1.276 1_655 S
O87 Zn64 1.955 . S
C88 O76 1.245 1_554 S
C88 O77 1.263 . S
O89 Zn68 1.955 . S
O89 C72 1.276 1_455 S
C90 O97 1.247 1_455 S
C90 O98 1.253 . S
O91 Zn55 1.945 . S
O91 C80 1.262 . S
O92 Zn71 1.981 . S
O92 C80 1.245 1_565 S
C93 O78 1.245 1_554 S
C93 O79 1.263 . S
O94 Zn60 1.945 . S
O94 C86 1.261 1_565 S
O95 Zn66 1.981 . S
O95 C86 1.245 . S
C96 O100 1.280 . S
C96 O101 1.235 1_455 S
O97 Zn66 1.945 . S
O97 C90 1.247 1_655 S
O98 Zn55 1.981 . S
O98 C90 1.253 . S
C99 O81 1.245 1_554 S
C99 O82 1.263 . S
O100 Zn71 1.945 . S
O100 C96 1.280 . S
O101 Zn60 1.981 . S
O101 C96 1.235 1_655 S
C102 O83 1.276 1_545 S
C102 O103 1.246 . S
O103 C102 1.246 . S
C104 O85 1.276 1_565 S
C104 O105 1.246 . S
O105 C104 1.246 . S
H106 C107 0.951 1_455 S
C107 H106 0.951 1_655 S
C107 C113 1.265 . S
H108 C113 0.950 . S
H109 C117 0.949 . S
H110 C118 0.950 . S
H111 C119 0.951 . S
H112 C120 0.951 . S
C113 C107 1.265 . S
C113 H108 0.950 . S
C113 C114 1.478 . S
C114 C113 1.478 . S
C114 C115 1.397 1_655 S
C114 C131 1.394 . S
C115 C114 1.397 1_455 S
C115 C116 1.438 . S
C115 C120 1.429 . S
C116 C115 1.438 . S
C116 C117 1.428 . S
C116 C129 1.394 . S
C117 H109 0.949 . S
C117 C116 1.428 . S
C117 C118 1.345 . S
C118 H110 0.950 . S
C118 C117 1.345 . S
C118 C119 1.424 . S
C119 H111 0.951 . S
C119 C118 1.424 . S
C119 C120 1.347 . S
C120 H112 0.951 . S
C120 C115 1.429 . S
C120 C119 1.347 . S
H121 C122 0.951 1_655 S
C122 H121 0.951 1_455 S
C122 C128 1.265 . S
H123 C128 0.950 . S
H124 C132 0.949 . S
H125 C133 0.950 . S
H126 C134 0.951 . S
H127 C135 0.951 . S
C128 C122 1.265 . S
C128 H123 0.950 . S
C128 C129 1.478 . S
C129 C116 1.394 . S
C129 C128 1.478 . S
C129 C130 1.397 1_455 S
C130 C129 1.397 1_655 S
C130 C131 1.438 . S
C130 C135 1.429 . S
C131 C114 1.394 . S
C131 C130 1.438 . S
C131 C132 1.428 . S
C132 H124 0.949 . S
C132 C131 1.428 . S
C132 C133 1.345 . S
C133 H125 0.950 . S
C133 C132 1.345 . S
C133 C134 1.424 . S
C134 H126 0.951 . S
C134 C133 1.424 . S
C134 C135 1.347 . S
C135 H127 0.951 . S
C135 C130 1.429 . S
C135 C134 1.347 . S
H136 C137 0.951 . S
C137 H136 0.951 . S
C137 C143 1.265 . S
H138 C143 0.950 . S
H139 C147 0.949 . S
H140 C148 0.950 . S
H141 C149 0.951 . S
H142 C150 0.951 . S
C143 C137 1.265 . S
C143 H138 0.950 . S
C143 C144 1.478 . S
C144 C143 1.478 . S
C144 C145 1.397 . S
C144 C161 1.394 1_545 S
C145 C144 1.397 . S
C145 C146 1.438 . S
C145 C150 1.429 . S
C146 C145 1.438 . S
C146 C147 1.428 . S
C146 C159 1.394 . S
C147 H139 0.949 . S
C147 C146 1.428 . S
C147 C148 1.345 . S
C148 H140 0.950 . S
C148 C147 1.345 . S
C148 C149 1.424 . S
C149 H141 0.951 . S
C149 C148 1.424 . S
C149 C150 1.347 . S
C150 H142 0.951 . S
C150 C145 1.429 . S
C150 C149 1.347 . S
H151 C152 0.951 . S
C152 H151 0.951 . S
C152 C158 1.265 . S
H153 C158 0.950 . S
H154 C162 0.949 . S
H155 C163 0.950 . S
H156 C164 0.951 . S
H157 C165 0.951 . S
C158 C152 1.265 . S
C158 H153 0.950 . S
C158 C159 1.478 . S
C159 C146 1.394 . S
C159 C158 1.478 . S
C159 C160 1.397 1_545 S
C160 C159 1.397 1_565 S
C160 C161 1.438 . S
C160 C165 1.429 . S
C161 C144 1.394 1_565 S
C161 C160 1.438 . S
C161 C162 1.428 . S
C162 H154 0.949 . S
C162 C161 1.428 . S
C162 C163 1.345 . S
C163 H155 0.950 . S
C163 C162 1.345 . S
C163 C164 1.424 . S
C164 H156 0.951 . S
C164 C163 1.424 . S
C164 C165 1.347 . S
C165 H157 0.951 . S
C165 C160 1.429 . S
C165 C164 1.347 . S
H166 C167 0.951 . S
C167 H166 0.951 . S
C167 C173 1.265 1_455 S
H168 C173 0.950 . S
H169 C177 0.949 . S
H170 C178 0.950 . S
H171 C179 0.951 . S
H172 C180 0.951 . S
C173 C167 1.265 1_655 S
C173 H168 0.950 . S
C173 C174 1.478 . S
C174 C173 1.478 . S
C174 C175 1.397 . S
C174 C191 1.394 1_655 S
C175 C174 1.397 . S
C175 C176 1.438 . S
C175 C180 1.429 . S
C176 C175 1.438 . S
C176 C177 1.428 . S
C176 C189 1.394 1_655 S
C177 H169 0.949 . S
C177 C176 1.428 . S
C177 C178 1.345 . S
C178 H170 0.950 . S
C178 C177 1.345 . S
C178 C179 1.424 . S
C179 H171 0.951 . S
C179 C178 1.424 . S
C179 C180 1.347 . S
C180 H172 0.951 . S
C180 C175 1.429 . S
C180 C179 1.347 . S
H181 C182 0.951 . S
C182 H181 0.951 . S
C182 C188 1.265 1_655 S
H183 C188 0.950 . S
H184 C192 0.949 . S
H185 C193 0.950 . S
H186 C194 0.951 . S
H187 C195 0.951 . S
C188 C182 1.265 1_455 S
C188 H183 0.950 . S
C188 C189 1.478 . S
C189 C176 1.394 1_455 S
C189 C188 1.478 . S
C189 C190 1.397 . S
C190 C189 1.397 . S
C190 C191 1.438 . S
C190 C195 1.429 . S
C191 C174 1.394 1_455 S
C191 C190 1.438 . S
C191 C192 1.428 . S
C192 H184 0.949 . S
C192 C191 1.428 . S
C192 C193 1.345 . S
C193 H185 0.950 . S
C193 C192 1.345 . S
C193 C194 1.424 . S
C194 H186 0.951 . S
C194 C193 1.424 . S
C194 C195 1.347 . S
C195 H187 0.951 . S
C195 C190 1.429 . S
C195 C194 1.347 . S
H196 C197 0.951 1_545 S
C197 H196 0.951 1_565 S
C197 C203 1.265 . S
H198 C203 0.950 . S
H199 C207 0.949 . S
H200 C208 0.950 . S
H201 C209 0.951 . S
H202 C210 0.951 . S
C203 C197 1.265 . S
C203 H198 0.950 . S
C203 C204 1.478 . S
C204 C203 1.478 . S
C204 C205 1.397 1_565 S
C204 C221 1.394 . S
C205 C204 1.397 1_545 S
C205 C206 1.438 . S
C205 C210 1.429 . S
C206 C205 1.438 . S
C206 C207 1.428 . S
C206 C219 1.394 1_545 S
C207 H199 0.949 . S
C207 C206 1.428 . S
C207 C208 1.345 . S
C208 H200 0.950 . S
C208 C207 1.345 . S
C208 C209 1.424 . S
C209 H201 0.951 . S
C209 C208 1.424 . S
C209 C210 1.347 . S
C210 H202 0.951 . S
C210 C205 1.429 . S
C210 C209 1.347 . S
H211 C212 0.951 . S
C212 H211 0.951 . S
C212 C218 1.265 1_565 S
H213 C218 0.950 . S
H214 C222 0.949 . S
H215 C223 0.950 . S
H216 C224 0.951 . S
H217 C225 0.951 . S
C218 C212 1.265 1_545 S
C218 H213 0.950 . S
C218 C219 1.478 1_545 S
C219 C206 1.394 1_565 S
C219 C218 1.478 1_565 S
C219 C220 1.397 . S
C220 C219 1.397 . S
C220 C221 1.438 . S
C220 C225 1.429 . S
C221 C204 1.394 . S
C221 C220 1.438 . S
C221 C222 1.428 . S
C222 H214 0.949 . S
C222 C221 1.428 . S
C222 C223 1.345 . S
C223 H215 0.950 . S
C223 C222 1.345 . S
C223 C224 1.424 . S
C224 H216 0.951 . S
C224 C223 1.424 . S
C224 C225 1.347 . S
C225 H217 0.951 . S
C225 C220 1.429 . S
C225 C224 1.347 . S
H226 C227 0.951 . S
C227 H226 0.951 . S
C227 C233 1.265 1_655 S
H228 C233 0.950 . S
H229 C237 0.949 . S
H230 C238 0.950 . S
H231 C239 0.951 . S
H232 C240 0.951 . S
C233 C227 1.265 1_455 S
C233 H228 0.950 . S
C233 C234 1.479 . S
C234 C233 1.479 . S
C234 C235 1.396 1_455 S
C234 C251 1.393 1_455 S
C235 C234 1.396 1_655 S
C235 C236 1.438 . S
C235 C240 1.429 1_655 S
C236 C235 1.438 . S
C236 C237 1.428 . S
C236 C249 1.394 . S
C237 H229 0.949 . S
C237 C236 1.428 . S
C237 C238 1.345 . S
C238 H230 0.950 . S
C238 C237 1.345 . S
C238 C239 1.424 1_655 S
C239 H231 0.951 . S
C239 C238 1.424 1_455 S
C239 C240 1.347 . S
C240 H232 0.951 . S
C240 C235 1.429 1_455 S
C240 C239 1.347 . S
H241 C242 0.951 1_455 S
C242 H241 0.951 1_655 S
C242 C248 1.265 . S
H243 C248 0.950 . S
H244 C252 0.949 1_455 S
H245 C253 0.950 . S
H246 C254 0.951 . S
H247 C255 0.951 . S
C248 C242 1.265 . S
C248 H243 0.950 . S
C248 C249 1.478 . S
C249 C236 1.394 . S
C249 C248 1.478 . S
C249 C250 1.397 . S
C250 C249 1.397 . S
C250 C251 1.438 . S
C250 C255 1.429 . S
C251 C234 1.393 1_655 S
C251 C250 1.438 . S
C251 C252 1.428 . S
C252 H244 0.949 1_655 S
C252 C251 1.428 . S
C252 C253 1.345 . S
C253 H245 0.950 . S
C253 C252 1.345 . S
C253 C254 1.424 . S
C254 H246 0.951 . S
C254 C253 1.424 . S
C254 C255 1.347 . S
C255 H247 0.951 . S
C255 C250 1.429 . S
C255 C254 1.347 . S
H256 C257 0.951 . S
C257 H256 0.951 . S
C257 C263 1.265 . S
H258 C263 0.950 . S
H259 C267 0.949 . S
H260 C268 0.950 . S
H261 C269 0.951 . S
H262 C270 0.951 . S
C263 C257 1.265 . S
C263 H258 0.950 . S
C263 C264 1.478 . S
C264 C263 1.478 . S
C264 C265 1.396 . S
C264 C281 1.395 1_545 S
C265 C264 1.396 . S
C265 C266 1.438 . S
C265 C270 1.429 . S
C266 C265 1.438 . S
C266 C267 1.428 . S
C266 C279 1.394 1_545 S
C267 H259 0.949 . S
C267 C266 1.428 . S
C267 C268 1.345 . S
C268 H260 0.950 . S
C268 C267 1.345 . S
C268 C269 1.424 . S
C269 H261 0.951 . S
C269 C268 1.424 . S
C269 C270 1.347 . S
C270 H262 0.951 . S
C270 C265 1.429 . S
C270 C269 1.347 . S
H271 C272 0.951 . S
C272 H271 0.951 . S
C272 C278 1.265 . S
H273 C278 0.950 . S
H274 C282 0.949 . S
H275 C283 0.950 . S
H276 C284 0.951 . S
H277 C285 0.951 . S
C278 C272 1.265 . S
C278 H273 0.950 . S
C278 C279 1.478 . S
C279 C266 1.394 1_565 S
C279 C278 1.478 . S
C279 C280 1.397 . S
C280 C279 1.397 . S
C280 C281 1.438 . S
C280 C285 1.429 . S
C281 C264 1.395 1_565 S
C281 C280 1.438 . S
C281 C282 1.428 . S
C282 H274 0.949 . S
C282 C281 1.428 . S
C282 C283 1.345 . S
C283 H275 0.950 . S
C283 C282 1.345 . S
C283 C284 1.424 . S
C284 H276 0.951 . S
C284 C283 1.424 . S
C284 C285 1.347 . S
C285 H277 0.951 . S
C285 C280 1.429 . S
C285 C284 1.347 . S
H286 C287 0.951 . S
C287 H286 0.951 . S
C287 C293 1.265 1_455 S
H288 C293 0.950 . S
H289 C297 0.949 . S
H290 C298 0.950 . S
H291 C299 0.951 . S
H292 C300 0.951 . S
C293 C287 1.265 1_655 S
C293 H288 0.950 . S
C293 C294 1.478 1_655 S
C294 C293 1.478 1_455 S
C294 C295 1.397 1_455 S
C294 C311 1.394 . S
C295 C294 1.397 1_655 S
C295 C296 1.438 . S
C295 C300 1.429 . S
C296 C295 1.438 . S
C296 C297 1.428 . S
C296 C309 1.394 1_655 S
C297 H289 0.949 . S
C297 C296 1.428 . S
C297 C298 1.345 . S
C298 H290 0.950 . S
C298 C297 1.345 . S
C298 C299 1.424 . S
C299 H291 0.951 . S
C299 C298 1.424 . S
C299 C300 1.347 . S
C300 H292 0.951 . S
C300 C295 1.429 . S
C300 C299 1.347 . S
H301 C302 0.951 1_655 S
C302 H301 0.951 1_455 S
C302 C308 1.265 . S
H303 C308 0.950 . S
H304 C312 0.949 . S
H305 C313 0.950 . S
H306 C314 0.951 . S
H307 C315 0.951 . S
C308 C302 1.265 . S
C308 H303 0.950 . S
C308 C309 1.478 . S
C309 C296 1.394 1_455 S
C309 C308 1.478 . S
C309 C310 1.397 . S
C310 C309 1.397 . S
C310 C311 1.438 . S
C310 C315 1.429 . S
C311 C294 1.394 . S
C311 C310 1.438 . S
C311 C312 1.428 . S
C312 H304 0.949 . S
C312 C311 1.428 . S
C312 C313 1.345 . S
C313 H305 0.950 . S
C313 C312 1.345 . S
C313 C314 1.424 . S
C314 H306 0.951 . S
C314 C313 1.424 . S
C314 C315 1.347 . S
C315 H307 0.951 . S
C315 C310 1.429 . S
C315 C314 1.347 . S
H316 C317 0.951 1_545 S
C317 H316 0.951 1_565 S
C317 C323 1.265 . S
H318 C323 0.950 . S
H319 C327 0.949 . S
H320 C328 0.950 . S
H321 C329 0.951 . S
H322 C330 0.951 . S
C323 C317 1.265 . S
C323 H318 0.950 . S
C323 C324 1.478 . S
C324 C323 1.478 . S
C324 C325 1.397 . S
C324 C341 1.394 1_565 S
C325 C324 1.397 . S
C325 C326 1.438 . S
C325 C330 1.429 . S
C326 C325 1.438 . S
C326 C327 1.428 . S
C326 C339 1.394 1_565 S
C327 H319 0.949 . S
C327 C326 1.428 . S
C327 C328 1.345 . S
C328 H320 0.950 . S
C328 C327 1.345 . S
C328 C329 1.424 . S
C329 H321 0.951 . S
C329 C328 1.424 . S
C329 C330 1.347 . S
C330 H322 0.951 . S
C330 C325 1.429 . S
C330 C329 1.347 . S
H331 C332 0.951 . S
C332 H331 0.951 . S
C332 C338 1.265 . S
H333 C338 0.950 . S
H334 C342 0.949 . S
H335 C343 0.950 . S
H336 C344 0.951 . S
H337 C345 0.951 . S
C338 C332 1.265 . S
C338 H333 0.950 . S
C338 C339 1.478 . S
C339 C326 1.394 1_545 S
C339 C338 1.478 . S
C339 C340 1.397 . S
C340 C339 1.397 . S
C340 C341 1.438 . S
C340 C345 1.429 . S
C341 C324 1.394 1_545 S
C341 C340 1.438 . S
C341 C342 1.428 . S
C342 H334 0.949 . S
C342 C341 1.428 . S
C342 C343 1.345 . S
C343 H335 0.950 . S
C343 C342 1.345 . S
C343 C344 1.424 . S
C344 H336 0.951 . S
C344 C343 1.424 . S
C344 C345 1.347 . S
C345 H337 0.951 . S
C345 C340 1.429 . S
C345 C344 1.347 . S
H346 C347 0.951 . S
C347 H346 0.951 . S
C347 C353 1.265 . S
H348 C353 0.950 . S
H349 C357 0.949 . S
H350 C358 0.950 . S
H351 C359 0.951 . S
H352 C360 0.951 . S
C353 C347 1.265 . S
C353 H348 0.950 . S
C353 C354 1.478 . S
C354 C353 1.478 . S
C354 C355 1.397 1_554 S
C354 C371 1.394 . S
C355 C354 1.397 1_556 S
C355 C356 1.438 . S
C355 C360 1.429 . S
C356 C355 1.438 . S
C356 C357 1.428 . S
C356 C369 1.394 1_556 S
C357 H349 0.949 . S
C357 C356 1.428 . S
C357 C358 1.345 . S
C358 H350 0.950 . S
C358 C357 1.345 . S
C358 C359 1.424 . S
C359 H351 0.951 . S
C359 C358 1.424 . S
C359 C360 1.347 . S
C360 H352 0.951 . S
C360 C355 1.429 . S
C360 C359 1.347 . S
H361 C362 0.951 . S
C362 H361 0.951 . S
C362 C368 1.265 . S
H363 C368 0.950 . S
H364 C372 0.949 . S
H365 C373 0.950 . S
H366 C374 0.951 . S
H367 C375 0.951 . S
C368 C362 1.265 . S
C368 H363 0.950 . S
C368 C369 1.478 . S
C369 C356 1.394 1_554 S
C369 C368 1.478 . S
C369 C370 1.397 . S
C370 C369 1.397 . S
C370 C371 1.438 . S
C370 C375 1.429 . S
C371 C354 1.394 . S
C371 C370 1.438 . S
C371 C372 1.428 . S
C372 H364 0.949 . S
C372 C371 1.428 . S
C372 C373 1.345 . S
C373 H365 0.950 . S
C373 C372 1.345 . S
C373 C374 1.424 . S
C374 H366 0.951 . S
C374 C373 1.424 . S
C374 C375 1.347 . S
C375 H367 0.951 . S
C375 C370 1.429 . S
C375 C374 1.347 . S
H376 C377 0.951 . S
C377 H376 0.951 . S
C377 C383 1.265 . S
H378 C383 0.950 1_556 S
H379 C387 0.949 . S
H380 C388 0.950 . S
H381 C389 0.951 . S
H382 C390 0.951 . S
C383 C377 1.265 . S
C383 H378 0.950 1_554 S
C383 C384 1.478 . S
C384 C383 1.478 . S
C384 C385 1.397 1_554 S
C384 C401 1.394 . S
C385 C384 1.397 1_556 S
C385 C386 1.438 . S
C385 C390 1.429 . S
C386 C385 1.438 . S
C386 C387 1.428 . S
C386 C399 1.394 1_556 S
C387 H379 0.949 . S
C387 C386 1.428 . S
C387 C388 1.345 . S
C388 H380 0.950 . S
C388 C387 1.345 . S
C388 C389 1.424 . S
C389 H381 0.951 . S
C389 C388 1.424 . S
C389 C390 1.347 . S
C390 H382 0.951 . S
C390 C385 1.429 . S
C390 C389 1.347 . S
H391 C392 0.951 1_556 S
C392 H391 0.951 1_554 S
C392 C398 1.265 . S
H393 C398 0.950 . S
H394 C402 0.949 . S
H395 C403 0.950 . S
H396 C404 0.951 . S
H397 C405 0.951 . S
C398 C392 1.265 . S
C398 H393 0.950 . S
C398 C399 1.478 . S
C399 C386 1.394 1_554 S
C399 C398 1.478 . S
C399 C400 1.397 . S
C400 C399 1.397 . S
C400 C401 1.438 . S
C400 C405 1.429 . S
C401 C384 1.394 . S
C401 C400 1.438 . S
C401 C402 1.428 . S
C402 H394 0.949 . S
C402 C401 1.428 . S
C402 C403 1.345 . S
C403 H395 0.950 . S
C403 C402 1.345 . S
C403 C404 1.424 . S
C404 H396 0.951 . S
C404 C403 1.424 . S
C404 C405 1.347 . S
C405 H397 0.951 . S
C405 C400 1.429 . S
C405 C404 1.347 . S
H406 C407 0.951 . S
C407 H406 0.951 . S
C407 C413 1.265 . S
H408 C413 0.950 . S
H409 C417 0.949 . S
H410 C418 0.950 . S
H411 C419 0.951 . S
H412 C420 0.951 . S
C413 C407 1.265 . S
C413 H408 0.950 . S
C413 C414 1.478 . S
C414 C413 1.478 . S
C414 C415 1.397 . S
C414 C431 1.394 1_554 S
C415 C414 1.397 . S
C415 C416 1.438 . S
C415 C420 1.429 . S
C416 C415 1.438 . S
C416 C417 1.428 . S
C416 C429 1.394 . S
C417 H409 0.949 . S
C417 C416 1.428 . S
C417 C418 1.345 . S
C418 H410 0.950 . S
C418 C417 1.345 . S
C418 C419 1.424 . S
C419 H411 0.951 . S
C419 C418 1.424 . S
C419 C420 1.347 . S
C420 H412 0.951 . S
C420 C415 1.429 . S
C420 C419 1.347 . S
H421 C422 0.951 . S
C422 H421 0.951 . S
C422 C428 1.265 . S
H423 C428 0.950 . S
H424 C432 0.949 . S
H425 C433 0.950 . S
H426 C434 0.951 . S
H427 C435 0.951 . S
C428 C422 1.265 . S
C428 H423 0.950 . S
C428 C429 1.478 . S
C429 C416 1.394 . S
C429 C428 1.478 . S
C429 C430 1.397 1_554 S
C430 C429 1.397 1_556 S
C430 C431 1.438 . S
C430 C435 1.429 . S
C431 C414 1.394 1_556 S
C431 C430 1.438 . S
C431 C432 1.428 . S
C432 H424 0.949 . S
C432 C431 1.428 . S
C432 C433 1.345 . S
C433 H425 0.950 . S
C433 C432 1.345 . S
C433 C434 1.424 . S
C434 H426 0.951 . S
C434 C433 1.424 . S
C434 C435 1.347 . S
C435 H427 0.951 . S
C435 C430 1.429 . S
C435 C434 1.347 . S
H436 C437 0.951 . S
C437 H436 0.951 . S
C437 C443 1.265 . S
H438 C443 0.950 1_556 S
H439 C447 0.949 . S
H440 C448 0.950 . S
H441 C449 0.951 . S
H442 C450 0.951 . S
C443 C437 1.265 . S
C443 H438 0.950 1_554 S
C443 C444 1.478 . S
C444 C443 1.478 . S
C444 C445 1.397 1_554 S
C444 C461 1.394 . S
C445 C444 1.397 1_556 S
C445 C446 1.438 . S
C445 C450 1.429 . S
C446 C445 1.438 . S
C446 C447 1.428 . S
C446 C459 1.394 1_556 S
C447 H439 0.949 . S
C447 C446 1.428 . S
C447 C448 1.345 . S
C448 H440 0.950 . S
C448 C447 1.345 . S
C448 C449 1.424 . S
C449 H441 0.951 . S
C449 C448 1.424 . S
C449 C450 1.347 . S
C450 H442 0.951 . S
C450 C445 1.429 . S
C450 C449 1.347 . S
H451 C452 0.960 . S
C452 H451 0.960 . S
C452 C458 1.265 . S
H453 C458 0.950 . S
H454 C462 0.949 . S
H455 C463 0.950 . S
H456 C464 0.951 . S
H457 C465 0.951 . S
C458 C452 1.265 . S
C458 H453 0.950 . S
C458 C459 1.478 . S
C459 C446 1.394 1_554 S
C459 C458 1.478 . S
C459 C460 1.397 . S
C460 C459 1.397 . S
C460 C461 1.438 . S
C460 C465 1.429 . S
C461 C444 1.394 . S
C461 C460 1.438 . S
C461 C462 1.428 . S
C462 H454 0.949 . S
C462 C461 1.428 . S
C462 C463 1.345 . S
C463 H455 0.950 . S
C463 C462 1.345 . S
C463 C464 1.424 . S
C464 H456 0.951 . S
C464 C463 1.424 . S
C464 C465 1.347 . S
C465 H457 0.951 . S
C465 C460 1.429 . S
C465 C464 1.347 . S
C122 C90 1.957 . S
C107 C7 2.055 . S
C152 C86 1.236 . S
C137 C34 1.360 . S
C182 C96 2.026 1_655 S
C167 C14 2.087 . S
C212 C80 1.343 1_565 S
C197 C32 1.321 . S
C227 C16 2.194 . S
C242 C72 2.069 . S
C272 C104 1.322 . S
C257 C25 1.476 . S
C287 C8 2.175 . S
C302 C58 2.041 . S
C317 C26 1.471 . S
C332 C102 1.309 . S
C347 C50 1.004 . S
C362 C84 1.075 . S
C377 C43 1.100 . S
C392 C99 1.106 . S
C422 C93 0.983 . S
C407 C52 1.006 . S
C452 C88 1.068 . S
C437 C44 1.007 . S
