# Generated by pormake.
# Topology ssa, (4,4)-cn, num edge types: 1
# Building blocks:
#     Node 0, Type 0, BuildingBlock: ESEHIV_clean_sbu_0, # of connection points: 4
#     Node 1, Type 0, BuildingBlock: ESEHIV_clean_sbu_0, # of connection points: 4
#     Node 2, Type 0, BuildingBlock: ESEHIV_clean_sbu_0, # of connection points: 4
#     Node 3, Type 0, BuildingBlock: ESEHIV_clean_sbu_0, # of connection points: 4
#     Node 4, Type 0, BuildingBlock: ESEHIV_clean_sbu_0, # of connection points: 4
#     Node 5, Type 0, BuildingBlock: ESEHIV_clean_sbu_0, # of connection points: 4
#     Node 6, Type 1, BuildingBlock: MIFKUJ_clean_linker_1, # of connection points: 4
#     Node 7, Type 1, BuildingBlock: MIFKUJ_clean_linker_1, # of connection points: 4
#     Node 8, Type 1, BuildingBlock: MIFKUJ_clean_linker_1, # of connection points: 4
#     Node 9, Type 1, BuildingBlock: MIFKUJ_clean_linker_1, # of connection points: 4
#     Node 10, Type 1, BuildingBlock: MIFKUJ_clean_linker_1, # of connection points: 4
#     Node 11, Type 1, BuildingBlock: MIFKUJ_clean_linker_1, # of connection points: 4
#     Edge 12, Type (0, 1), BuildingBlock: XUDNAN_clean_linker_2, # of connection points: 2
#     Edge 13, Type (0, 1), BuildingBlock: XUDNAN_clean_linker_2, # of connection points: 2
#     Edge 14, Type (0, 1), BuildingBlock: XUDNAN_clean_linker_2, # of connection points: 2
#     Edge 15, Type (0, 1), BuildingBlock: XUDNAN_clean_linker_2, # of connection points: 2
#     Edge 16, Type (0, 1), BuildingBlock: XUDNAN_clean_linker_2, # of connection points: 2
#     Edge 17, Type (0, 1), BuildingBlock: XUDNAN_clean_linker_2, # of connection points: 2
#     Edge 18, Type (0, 1), BuildingBlock: XUDNAN_clean_linker_2, # of connection points: 2
#     Edge 19, Type (0, 1), BuildingBlock: XUDNAN_clean_linker_2, # of connection points: 2
#     Edge 20, Type (0, 1), BuildingBlock: XUDNAN_clean_linker_2, # of connection points: 2
#     Edge 21, Type (0, 1), BuildingBlock: XUDNAN_clean_linker_2, # of connection points: 2
#     Edge 22, Type (0, 1), BuildingBlock: XUDNAN_clean_linker_2, # of connection points: 2
#     Edge 23, Type (0, 1), BuildingBlock: XUDNAN_clean_linker_2, # of connection points: 2
#     Edge 24, Type (0, 1), BuildingBlock: XUDNAN_clean_linker_2, # of connection points: 2
#     Edge 25, Type (0, 1), BuildingBlock: XUDNAN_clean_linker_2, # of connection points: 2
#     Edge 26, Type (0, 1), BuildingBlock: XUDNAN_clean_linker_2, # of connection points: 2
#     Edge 27, Type (0, 1), BuildingBlock: XUDNAN_clean_linker_2, # of connection points: 2
#     Edge 28, Type (0, 1), BuildingBlock: XUDNAN_clean_linker_2, # of connection points: 2
#     Edge 29, Type (0, 1), BuildingBlock: XUDNAN_clean_linker_2, # of connection points: 2
#     Edge 30, Type (0, 1), BuildingBlock: XUDNAN_clean_linker_2, # of connection points: 2
#     Edge 31, Type (0, 1), BuildingBlock: XUDNAN_clean_linker_2, # of connection points: 2
#     Edge 32, Type (0, 1), BuildingBlock: XUDNAN_clean_linker_2, # of connection points: 2
#     Edge 33, Type (0, 1), BuildingBlock: XUDNAN_clean_linker_2, # of connection points: 2
#     Edge 34, Type (0, 1), BuildingBlock: XUDNAN_clean_linker_2, # of connection points: 2
#     Edge 35, Type (0, 1), BuildingBlock: XUDNAN_clean_linker_2, # of connection points: 2
# Relax obj value: 0.007
# Max RMSD: 0.106
# Mean RMSD: 0.056
data_MOF--net-ssa--node1-ESEHIV_clean_sbu_0--node2-MIFKUJ_clean_linker_1--edge1-XUDNAN_clean_linker_2
_symmetry_space_group_name_H-M    P1
_symmetry_Int_Tables_number       1
_symmetry_cell_setting            triclinic
loop_
_symmetry_equiv_pos_as_xyz
'x, y, z'
_cell_length_a     60.300955
_cell_length_b     63.870934
_cell_length_c     39.836237
_cell_angle_alpha  88.690405
_cell_angle_beta   90.729624
_cell_angle_gamma 121.83523
loop_
_atom_site_label
_atom_site_type_symbol
_atom_site_fract_x
_atom_site_fract_y
_atom_site_fract_z
_atom_type_partial_charge
Cu0 Cu 1.00425 0.5014 0.02525 0.0
N1 N 0.97079 0.47512 0.03445 0.0
N2 N 0.93143 0.4424 0.02345 0.0
C3 C 0.95468 0.45996 0.01072 0.0
C4 C 0.93306 0.44661 0.05674 0.0
C5 C 0.95744 0.46696 0.06346 0.0
O6 O 1.00114 0.51082 0.97925 0.0
C7 C 0.05221 0.50166 0.02641 0.0
O8 O 0.06312 0.52363 0.01211 0.0
H9 H 0.96025 0.46146 0.98467 0.0
H10 H 0.96491 0.47515 0.08767 0.0
N11 N 0.01367 0.52632 0.05629 0.0
N12 N 0.03773 0.55514 0.09399 0.0
C13 C 0.03742 0.54032 0.07018 0.0
C14 C 0.99825 0.5324 0.07202 0.0
C15 C 0.0131 0.55033 0.09513 0.0
C16 C 0.99237 0.52487 0.97346 0.0
O17 O 0.99192 0.53799 0.99803 0.0
H18 H 0.05414 0.53945 0.06334 0.0
H19 H 0.97755 0.52395 0.06754 0.0
O20 O 0.02764 0.48917 0.03121 0.0
H21 H 0.91776 0.43586 0.07489 0.0
H22 H 1.0061 0.55856 0.11215 0.0
Cu23 Cu 0.52387 0.01844 0.49696 0.0
N24 N 0.54202 0.00733 0.47224 0.0
N25 N 0.54849 0.983 0.43932 0.0
C26 C 0.53171 0.98982 0.44857 0.0
C27 C 0.57021 0.99683 0.4577 0.0
C28 C 0.56618 0.01173 0.47793 0.0
O29 O 0.48682 0.99652 0.48775 0.0
C30 C 0.5554 0.03884 0.55164 0.0
O31 O 0.57102 0.05256 0.52712 0.0
H32 H 0.5118 0.98124 0.43968 0.0
H33 H 0.57964 0.02404 0.49653 0.0
N34 N 0.53308 0.05074 0.48589 0.0
N35 N 0.54134 0.08831 0.49769 0.0
C36 C 0.52762 0.0641 0.50604 0.0
C37 C 0.55058 0.06694 0.46351 0.0
C38 C 0.55572 0.09017 0.47074 0.0
C39 C 0.47856 1.00058 0.46028 0.0
O40 O 0.49507 0.01916 0.44092 0.0
H41 H 0.51577 0.05651 0.52842 0.0
H42 H 0.56033 0.06248 0.44496 0.0
O43 O 0.53284 0.02051 0.54455 0.0
H44 H 0.5876 0.99587 0.45709 0.0
H45 H 0.56992 0.10722 0.45821 0.0
Cu46 Cu 0.52893 0.50451 0.01606 0.0
N47 N 0.52527 0.47352 0.02104 0.0
N48 N 0.52596 0.44058 0.00491 0.0
C49 C 0.53082 0.46308 0.99614 0.0
C50 C 0.51699 0.43646 0.03668 0.0
C51 C 0.51682 0.45701 0.04676 0.0
O52 O 0.5511 0.51926 0.97694 0.0
C53 C 0.47494 0.48563 0.02497 0.0
O54 O 0.47428 0.46638 0.03847 0.0
H55 H 0.53806 0.47172 0.97175 0.0
H56 H 0.51081 0.45962 0.07098 0.0
N57 N 0.54431 0.52538 0.05255 0.0
N58 N 0.55546 0.55837 0.08363 0.0
C59 C 0.54711 0.5477 0.05343 0.0
C60 C 0.55106 0.52156 0.08336 0.0
C61 C 0.55799 0.54194 0.10263 0.0
C62 C 0.5745 0.52444 0.98007 0.0
O63 O 0.58275 0.52267 0.01008 0.0
H64 H 0.54174 0.55534 0.03263 0.0
H65 H 0.55014 0.50486 0.09159 0.0
O66 O 0.49571 0.50232 0.01048 0.0
H67 H 0.51147 0.42005 0.05162 0.0
H68 H 0.56401 0.54425 0.12867 0.0
Cu69 Cu 0.01815 0.49069 0.53531 0.0
N70 N 0.03925 0.47831 0.525 0.0
N71 N 0.06308 0.4691 0.49303 0.0
C72 C 0.04433 0.47462 0.49361 0.0
C73 C 0.06993 0.46918 0.52546 0.0
C74 C 0.05525 0.47492 0.5451 0.0
O75 O 0.0268 0.51756 0.50325 0.0
C76 C 0.9753 0.44472 0.55337 0.0
O77 O 0.99412 0.4414 0.56322 0.0
H78 H 0.03558 0.4775 0.4715 0.0
H79 H 0.05701 0.4775 0.57192 0.0
N80 N 0.02454 0.50407 0.57788 0.0
N81 N 0.01361 0.52017 0.6189 0.0
C82 C 0.01796 0.52045 0.58577 0.0
C83 C 0.02476 0.49325 0.60718 0.0
C84 C 0.01797 0.50315 0.63257 0.0
C85 C 0.05113 0.53359 0.50031 0.0
O86 O 0.06773 0.53084 0.51862 0.0
H87 H 0.01252 0.52953 0.56708 0.0
H88 H 0.02616 0.47709 0.60949 0.0
O89 O 0.9813 0.46448 0.53713 0.0
H90 H 0.08493 0.46595 0.53432 0.0
H91 H 0.01374 0.49645 0.65832 0.0
Cu92 Cu 0.48115 0.98968 0.00453 0.0
N93 N 0.46236 0.99219 0.96851 0.0
N94 N 0.45448 0.01055 0.92557 0.0
C95 C 0.46935 0.01369 0.95279 0.0
C96 C 0.43714 0.98605 0.92425 0.0
C97 C 0.44198 0.97477 0.95085 0.0
O98 O 0.51491 0.02058 1.00311 0.0
C99 C 0.43998 0.96261 0.04832 0.0
O100 O 0.43124 0.94893 0.02153 0.0
H101 H 0.48587 0.03124 0.96038 0.0
H102 H 0.43164 0.95521 0.95628 0.0
N103 N 0.48707 0.96405 0.99952 0.0
N104 N 0.50139 0.93919 0.01344 0.0
C105 C 0.5037 0.96101 0.01874 0.0
C106 C 0.47397 0.94353 0.98115 0.0
C107 C 0.48266 0.92803 0.98991 0.0
C108 C 0.52809 0.02385 0.97658 0.0
O109 O 0.51902 0.00579 0.95514 0.0
H110 H 0.51605 0.97385 0.03778 0.0
H111 H 0.45839 0.93951 0.96379 0.0
O112 O 0.46202 0.98284 0.04664 0.0
H113 H 0.42223 0.97689 0.90525 0.0
H114 H 0.47526 0.90971 0.98057 0.0
Cu115 Cu 0.50192 0.50259 0.53046 0.0
N116 N 0.51015 0.53505 0.52719 0.0
N117 N 0.51833 0.56883 0.49843 0.0
C118 C 0.5202 0.54869 0.49901 0.0
C119 C 0.50704 0.56805 0.52788 0.0
C120 C 0.50177 0.54702 0.54545 0.0
O121 O 0.48069 0.48746 0.49057 0.0
C122 C 0.55107 0.51624 0.5545 0.0
O123 O 0.5488 0.53372 0.56746 0.0
H124 H 0.52699 0.54286 0.47831 0.0
H125 H 0.49055 0.53997 0.56834 0.0
N126 N 0.48361 0.48648 0.56949 0.0
N127 N 0.46979 0.45612 0.60786 0.0
C128 C 0.47242 0.46205 0.57486 0.0
C129 C 0.4881 0.49628 0.60024 0.0
C130 C 0.47961 0.47757 0.62397 0.0
C131 C 0.45856 0.4856 0.4898 0.0
O132 O 0.45031 0.49053 0.51713 0.0
H133 H 0.46972 0.44944 0.55524 0.0
H134 H 0.49981 0.51577 0.60522 0.0
O135 O 0.53347 0.50129 0.53438 0.0
H136 H 0.50095 0.58053 0.53491 0.0
H137 H 0.48286 0.47979 0.65079 0.0
H138 H 0.21046 0.45051 0.17149 0.0
H139 H 0.17534 0.44857 0.13778 0.0
H140 H 0.18456 0.51136 0.18965 0.0
H141 H 0.22017 0.51348 0.22304 0.0
H142 H 0.26081 0.48686 0.17437 0.0
H143 H 0.18868 0.44538 0.25281 0.0
H144 H 0.1532 0.44019 0.28818 0.0
H145 H 0.20746 0.50751 0.33907 0.0
H146 H 0.24284 0.51232 0.30394 0.0
H147 H 0.33568 0.51926 0.25151 0.0
H148 H 0.36993 0.51865 0.2846 0.0
H149 H 0.31152 0.45104 0.33381 0.0
H150 H 0.27753 0.45142 0.30035 0.0
H151 H 0.26143 0.48193 0.29862 0.0
H152 H 0.30788 0.52158 0.16874 0.0
H153 H 0.34091 0.52575 0.13036 0.0
H154 H 0.34077 0.46524 0.18176 0.0
H155 H 0.30574 0.4597 0.2181 0.0
C156 C 0.21785 0.482 0.20004 0.0
C157 C 0.20492 0.46386 0.17568 0.0
C158 C 0.18471 0.46268 0.15654 0.0
C159 C 0.17702 0.47974 0.16108 0.0
C160 C 0.19011 0.49804 0.18536 0.0
C161 C 0.21029 0.49912 0.2047 0.0
C162 C 0.23987 0.48336 0.21944 0.0
C163 C 0.26109 0.48589 0.20159 0.0
C164 C 0.24018 0.4822 0.25493 0.0
C165 C 0.21838 0.47934 0.27555 0.0
C166 C 0.19286 0.45912 0.27138 0.0
C167 C 0.17258 0.45621 0.29161 0.0
C168 C 0.17744 0.47342 0.31653 0.0
C169 C 0.20306 0.49369 0.32052 0.0
C170 C 0.2233 0.49655 0.30033 0.0
C171 C 0.30392 0.48525 0.27309 0.0
C172 C 0.33026 0.50412 0.26908 0.0
C173 C 0.34984 0.50377 0.28806 0.0
C174 C 0.34347 0.4848 0.31191 0.0
C175 C 0.3171 0.46606 0.31596 0.0
C176 C 0.29763 0.46626 0.29677 0.0
C177 C 0.28263 0.48533 0.25356 0.0
C178 C 0.26146 0.48313 0.27141 0.0
C179 C 0.28261 0.48717 0.21796 0.0
C180 C 0.30438 0.49048 0.19666 0.0
C181 C 0.31485 0.5091 0.1717 0.0
C182 C 0.3341 0.51167 0.14992 0.0
C183 C 0.34387 0.49599 0.15286 0.0
C184 C 0.33358 0.47749 0.17823 0.0
C185 C 0.3138 0.47456 0.19956 0.0
H186 H 0.69378 0.23185 0.83658 0.0
H187 H 0.66134 0.20031 0.87479 0.0
H188 H 0.67982 0.14803 0.83839 0.0
H189 H 0.71203 0.17963 0.80006 0.0
H190 H 0.74692 0.24978 0.83504 0.0
H191 H 0.67348 0.21095 0.75198 0.0
H192 H 0.6381 0.17262 0.72739 0.0
H193 H 0.69351 0.15197 0.70309 0.0
H194 H 0.72885 0.19052 0.72691 0.0
H195 H 0.81892 0.28902 0.75534 0.0
H196 H 0.85112 0.32209 0.71873 0.0
H197 H 0.78886 0.32111 0.66239 0.0
H198 H 0.75691 0.28904 0.70017 0.0
H199 H 0.74376 0.24358 0.71105 0.0
H200 H 0.80136 0.26546 0.82859 0.0
H201 H 0.82925 0.29515 0.87077 0.0
H202 H 0.80649 0.34541 0.8347 0.0
H203 H 0.77844 0.31542 0.79212 0.0
C204 C 0.70509 0.20803 0.81512 0.0
C205 C 0.69073 0.21354 0.83675 0.0
C206 C 0.67231 0.19552 0.85875 0.0
C207 C 0.66795 0.17159 0.85976 0.0
C208 C 0.68235 0.16612 0.83795 0.0
C209 C 0.70078 0.18417 0.81595 0.0
C210 C 0.72545 0.22766 0.79297 0.0
C211 C 0.74622 0.24854 0.80787 0.0
C212 C 0.7248 0.22575 0.7577 0.0
C213 C 0.70372 0.20355 0.741 0.0
C214 C 0.67798 0.19826 0.741 0.0
C215 C 0.65785 0.1764 0.72713 0.0
C216 C 0.66312 0.15932 0.7137 0.0
C217 C 0.68893 0.16473 0.71366 0.0
C218 C 0.70911 0.1868 0.7269 0.0
C219 C 0.78536 0.28669 0.73104 0.0
C220 C 0.81218 0.29623 0.73554 0.0
C221 C 0.83063 0.31495 0.71415 0.0
C222 C 0.82272 0.32444 0.68747 0.0
C223 C 0.79583 0.31468 0.68292 0.0
C224 C 0.77744 0.29609 0.7044 0.0
C225 C 0.76536 0.26641 0.7531 0.0
C226 C 0.74456 0.24515 0.73815 0.0
C227 C 0.76635 0.26769 0.7886 0.0
C228 C 0.78784 0.28825 0.80735 0.0
C229 C 0.80295 0.28317 0.8291 0.0
C230 C 0.81871 0.30004 0.85332 0.0
C231 C 0.81959 0.32233 0.85637 0.0
C232 C 0.80611 0.32833 0.83284 0.0
C233 C 0.79019 0.31129 0.8085 0.0
H234 H 0.58222 0.82848 0.30716 0.0
H235 H 0.57869 0.86133 0.33161 0.0
H236 H 0.50169 0.83006 0.28801 0.0
H237 H 0.50628 0.79829 0.2621 0.0
H238 H 0.5453 0.77372 0.31311 0.0
H239 H 0.57951 0.84193 0.23281 0.0
H240 H 0.57708 0.87158 0.19588 0.0
H241 H 0.51733 0.81157 0.13737 0.0
H242 H 0.51816 0.78214 0.17625 0.0
H243 H 0.52188 0.72691 0.18231 0.0
H244 H 0.52519 0.69586 0.15198 0.0
H245 H 0.58422 0.70314 0.22143 0.0
H246 H 0.58182 0.73516 0.25105 0.0
H247 H 0.55303 0.77222 0.18954 0.0
H248 H 0.51028 0.70525 0.26705 0.0
H249 H 0.50548 0.67094 0.30142 0.0
H250 H 0.57179 0.722 0.36127 0.0
H251 H 0.5767 0.75637 0.32647 0.0
C252 C 0.54461 0.81107 0.28263 0.0
C253 C 0.56459 0.82876 0.303 0.0
C254 C 0.56241 0.84748 0.31715 0.0
C255 C 0.5399 0.84865 0.31187 0.0
C256 C 0.51961 0.83034 0.29212 0.0
C257 C 0.52204 0.81192 0.27748 0.0
C258 C 0.54759 0.79205 0.26612 0.0
C259 C 0.54731 0.77352 0.28612 0.0
C260 C 0.54924 0.79132 0.23078 0.0
C261 C 0.54861 0.80972 0.20787 0.0
C262 C 0.56543 0.83515 0.21252 0.0
C263 C 0.56436 0.85214 0.19089 0.0
C264 C 0.54692 0.8441 0.16352 0.0
C265 C 0.53057 0.81859 0.15852 0.0
C266 C 0.53127 0.80165 0.18056 0.0
C267 C 0.55153 0.73351 0.21917 0.0
C268 C 0.53567 0.722 0.19106 0.0
C269 C 0.53747 0.70415 0.17378 0.0
C270 C 0.55494 0.69708 0.18438 0.0
C271 C 0.5704 0.70807 0.21294 0.0
C272 C 0.56896 0.72634 0.2299 0.0
C273 C 0.55017 0.75342 0.23634 0.0
C274 C 0.55098 0.77229 0.21654 0.0
C275 C 0.54787 0.75389 0.27167 0.0
C276 C 0.54417 0.73331 0.29379 0.0
C277 C 0.52388 0.70907 0.28746 0.0
C278 C 0.52116 0.68949 0.30709 0.0
C279 C 0.53844 0.69379 0.33377 0.0
C280 C 0.55814 0.71816 0.34092 0.0
C281 C 0.56099 0.73778 0.32106 0.0
H282 H 0.73023 0.49086 0.68068 0.0
H283 H 0.69261 0.48698 0.6502 0.0
H284 H 0.69879 0.54645 0.70705 0.0
H285 H 0.73713 0.55115 0.73656 0.0
H286 H 0.78099 0.52686 0.68878 0.0
H287 H 0.70302 0.48598 0.76278 0.0
H288 H 0.66814 0.48695 0.79233 0.0
H289 H 0.72606 0.55116 0.84587 0.0
H290 H 0.76069 0.55024 0.81614 0.0
H291 H 0.82203 0.54251 0.82791 0.0
H292 H 0.85463 0.53831 0.85893 0.0
H293 H 0.85028 0.4882 0.78404 0.0
H294 H 0.81571 0.49028 0.75583 0.0
H295 H 0.77394 0.51541 0.81271 0.0
H296 H 0.8485 0.56342 0.74411 0.0
H297 H 0.88928 0.57018 0.72118 0.0
H298 H 0.8455 0.50481 0.66186 0.0
H299 H 0.80462 0.49822 0.68476 0.0
C300 C 0.73627 0.52098 0.71146 0.0
C301 C 0.72389 0.50344 0.68615 0.0
C302 C 0.70242 0.50119 0.66876 0.0
C303 C 0.69293 0.51638 0.67646 0.0
C304 C 0.70585 0.53455 0.70077 0.0
C305 C 0.7276 0.5371 0.71775 0.0
C306 C 0.75731 0.5214 0.73215 0.0
C307 C 0.77924 0.52411 0.71582 0.0
C308 C 0.75589 0.51907 0.76773 0.0
C309 C 0.73447 0.51819 0.78701 0.0
C310 C 0.70816 0.50025 0.78088 0.0
C311 C 0.68827 0.50088 0.79768 0.0
C312 C 0.69436 0.5192 0.82133 0.0
C313 C 0.72073 0.53669 0.82804 0.0
C314 C 0.74055 0.53618 0.81107 0.0
C315 C 0.81667 0.51718 0.78894 0.0
C316 C 0.82783 0.53032 0.81851 0.0
C317 C 0.84691 0.52817 0.83598 0.0
C318 C 0.85567 0.51311 0.82407 0.0
C319 C 0.84408 0.49973 0.79465 0.0
C320 C 0.82452 0.50133 0.77786 0.0
C321 C 0.79716 0.52016 0.76924 0.0
C322 C 0.77564 0.51817 0.78568 0.0
C323 C 0.79948 0.52435 0.73401 0.0
C324 C 0.8236 0.53024 0.71625 0.0
C325 C 0.84768 0.55081 0.72568 0.0
C326 C 0.87093 0.55466 0.71257 0.0
C327 C 0.87051 0.53789 0.68999 0.0
C328 C 0.84633 0.51786 0.6795 0.0
C329 C 0.82301 0.51421 0.69227 0.0
H330 H 0.25518 0.82086 0.23586 0.0
H331 H 0.28876 0.85558 0.2024 0.0
H332 H 0.34866 0.8541 0.26105 0.0
H333 H 0.31504 0.81911 0.29395 0.0
H334 H 0.24564 0.77453 0.24239 0.0
H335 H 0.25978 0.83756 0.32662 0.0
H336 H 0.29176 0.87557 0.35423 0.0
H337 H 0.33397 0.84114 0.38745 0.0
H338 H 0.30069 0.80273 0.36172 0.0
H339 H 0.22598 0.7293 0.37696 0.0
H340 H 0.19113 0.69302 0.40626 0.0
H341 H 0.13478 0.6917 0.33667 0.0
H342 H 0.16945 0.729 0.30921 0.0
H343 H 0.23879 0.77456 0.36643 0.0
H344 H 0.21595 0.70718 0.29484 0.0
H345 H 0.18662 0.67036 0.263 0.0
H346 H 0.16596 0.71318 0.19917 0.0
H347 H 0.1945 0.74972 0.23212 0.0
C348 C 0.28249 0.81755 0.26785 0.0
C349 C 0.27554 0.82806 0.2416 0.0
C350 C 0.29477 0.84789 0.22245 0.0
C351 C 0.32141 0.85769 0.22913 0.0
C352 C 0.32834 0.84729 0.25563 0.0
C353 C 0.30909 0.82731 0.27457 0.0
C354 C 0.26188 0.79572 0.28709 0.0
C355 C 0.2439 0.77462 0.26946 0.0
C356 C 0.26011 0.79545 0.3225 0.0
C357 C 0.27804 0.8175 0.34205 0.0
C358 C 0.27569 0.83817 0.34046 0.0
C359 C 0.29422 0.85997 0.35596 0.0
C360 C 0.31588 0.86175 0.37268 0.0
C361 C 0.31752 0.84055 0.37525 0.0
C362 C 0.29858 0.81856 0.36038 0.0
C363 C 0.20054 0.73176 0.34044 0.0
C364 C 0.20607 0.7214 0.3683 0.0
C365 C 0.18606 0.70036 0.38478 0.0
C366 C 0.15999 0.68902 0.37367 0.0
C367 C 0.15446 0.69987 0.34627 0.0
C368 C 0.17442 0.72111 0.33015 0.0
C369 C 0.22207 0.75328 0.32164 0.0
C370 C 0.24035 0.77433 0.33936 0.0
C371 C 0.22431 0.75333 0.28622 0.0
C372 C 0.20717 0.73114 0.26614 0.0
C373 C 0.20494 0.70859 0.27416 0.0
C374 C 0.18834 0.6876 0.2557 0.0
C375 C 0.17388 0.68879 0.22855 0.0
C376 C 0.17648 0.71152 0.22025 0.0
C377 C 0.19299 0.73248 0.23884 0.0
H378 H 0.54131 0.31743 0.7695 0.0
H379 H 0.54821 0.34865 0.8089 0.0
H380 H 0.49292 0.29192 0.87725 0.0
H381 H 0.48448 0.26064 0.83612 0.0
H382 H 0.50927 0.24336 0.8128 0.0
H383 H 0.53308 0.30826 0.69403 0.0
H384 H 0.52115 0.33716 0.67149 0.0
H385 H 0.45179 0.30186 0.73295 0.0
H386 H 0.46395 0.27334 0.75581 0.0
H387 H 0.48149 0.21113 0.67255 0.0
H388 H 0.49125 0.18878 0.63172 0.0
H389 H 0.56012 0.20573 0.68831 0.0
H390 H 0.55032 0.22787 0.72892 0.0
H391 H 0.50738 0.25844 0.69026 0.0
H392 H 0.46971 0.18468 0.74539 0.0
H393 H 0.46109 0.14492 0.76589 0.0
H394 H 0.5289 0.18172 0.83032 0.0
H395 H 0.53704 0.22174 0.81006 0.0
C396 C 0.51201 0.28651 0.79931 0.0
C397 C 0.5301 0.3116 0.79253 0.0
C398 C 0.53445 0.32954 0.81559 0.0
C399 C 0.52141 0.32295 0.84669 0.0
C400 C 0.50319 0.29781 0.85351 0.0
C401 C 0.49854 0.27981 0.83008 0.0
C402 C 0.50839 0.26757 0.77474 0.0
C403 C 0.50887 0.24677 0.78609 0.0
C404 C 0.50598 0.2707 0.73979 0.0
C405 C 0.49946 0.28874 0.72668 0.0
C406 C 0.51539 0.30685 0.70273 0.0
C407 C 0.50864 0.32337 0.69003 0.0
C408 C 0.48555 0.32164 0.7005 0.0
C409 C 0.46962 0.30348 0.72438 0.0
C410 C 0.47661 0.28729 0.73753 0.0
C411 C 0.51514 0.22117 0.70386 0.0
C412 C 0.49864 0.20997 0.67618 0.0
C413 C 0.50413 0.19707 0.65301 0.0
C414 C 0.5265 0.19558 0.65677 0.0
C415 C 0.54287 0.20672 0.68459 0.0
C416 C 0.53719 0.21927 0.70791 0.0
C417 C 0.50999 0.23539 0.72841 0.0
C418 C 0.50783 0.25519 0.71703 0.0
C419 C 0.50859 0.23014 0.76329 0.0
C420 C 0.50419 0.2062 0.7759 0.0
C421 C 0.48289 0.18422 0.76372 0.0
C422 C 0.47805 0.16145 0.77538 0.0
C423 C 0.49445 0.16003 0.79953 0.0
C424 C 0.51576 0.18211 0.81191 0.0
C425 C 0.52051 0.205 0.8003 0.0
H426 H 0.10268 0.53013 0.04898 0.0
H427 H 0.03814 0.45433 0.04197 0.0
H428 H 0.06346 0.44051 0.07454 0.0
H429 H 0.15578 0.51832 0.04434 0.0
H430 H 0.17554 0.54137 0.07475 0.0
H431 H 0.15319 0.54501 0.04851 0.0
H432 H 0.13146 0.54918 0.10153 0.0
H433 H 0.15355 0.54531 0.12795 0.0
H434 H 0.1188 0.52514 0.13337 0.0
H435 H 0.09497 0.43507 0.10977 0.0
H436 H 0.13051 0.43822 0.14502 0.0
H437 H 0.17436 0.51772 0.13071 0.0
C438 C 0.09413 0.51057 0.05361 0.0
C439 C 0.06856 0.49323 0.04248 0.0
C440 C 0.05776 0.46788 0.04998 0.0
C441 C 0.07198 0.45988 0.06851 0.0
C442 C 0.09691 0.47747 0.07969 0.0
C443 C 0.10792 0.50229 0.07252 0.0
C444 C 0.13448 0.51749 0.08908 0.0
C445 C 0.15602 0.53136 0.06258 0.0
C446 C 0.13457 0.53533 0.11448 0.0
C447 C 0.1367 0.49733 0.10663 0.0
C448 C 0.11484 0.47439 0.10074 0.0
C449 C 0.11225 0.45292 0.11437 0.0
C450 C 0.13261 0.4549 0.13428 0.0
C451 C 0.15533 0.47819 0.14057 0.0
C452 C 0.15721 0.49967 0.12663 0.0
H453 H 0.56392 0.08251 0.5701 0.0
H454 H 0.56459 0.01875 0.60767 0.0
H455 H 0.58755 0.04154 0.65912 0.0
H456 H 0.62567 0.12512 0.59206 0.0
H457 H 0.61947 0.14883 0.60296 0.0
H458 H 0.59862 0.12573 0.57348 0.0
H459 H 0.55835 0.11412 0.6103 0.0
H460 H 0.5794 0.1375 0.63961 0.0
H461 H 0.55812 0.10608 0.65401 0.0
H462 H 0.61829 0.07411 0.69955 0.0
H463 H 0.65082 0.11235 0.72824 0.0
H464 H 0.62879 0.15445 0.66476 0.0
C465 C 0.56787 0.07303 0.58995 0.0
C466 C 0.56217 0.04884 0.58557 0.0
C467 C 0.56829 0.03709 0.61122 0.0
C468 C 0.58142 0.04997 0.64033 0.0
C469 C 0.58784 0.07433 0.64328 0.0
C470 C 0.58076 0.08556 0.619 0.0
C471 C 0.59235 0.1126 0.62595 0.0
C472 C 0.61008 0.12902 0.5969 0.0
C473 C 0.57077 0.11789 0.63293 0.0
C474 C 0.60804 0.11523 0.65722 0.0
C475 C 0.60511 0.09295 0.66698 0.0
C476 C 0.62014 0.09147 0.69273 0.0
C477 C 0.63868 0.11325 0.70871 0.0
C478 C 0.64195 0.13617 0.69894 0.0
C479 C 0.6261 0.13703 0.67329 0.0
H480 H 0.5523 0.57273 0.14694 0.0
H481 H 0.56667 0.59718 0.04253 0.0
H482 H 0.56925 0.63551 0.0576 0.0
H483 H 0.51238 0.5963 0.16617 0.0
H484 H 0.52523 0.60607 0.20783 0.0
H485 H 0.52556 0.58074 0.18944 0.0
H486 H 0.57548 0.60305 0.19898 0.0
H487 H 0.57528 0.62841 0.21757 0.0
H488 H 0.59643 0.63393 0.18251 0.0
H489 H 0.56747 0.66991 0.08272 0.0
H490 H 0.56369 0.69949 0.11728 0.0
H491 H 0.5525 0.65452 0.20622 0.0
C492 C 0.55643 0.5863 0.12733 0.0
C493 C 0.55902 0.58166 0.09339 0.0
C494 C 0.5641 0.59992 0.06854 0.0
C495 C 0.56578 0.62191 0.07689 0.0
C496 C 0.56262 0.62566 0.11032 0.0
C497 C 0.55831 0.60853 0.13527 0.0
C498 C 0.55513 0.6171 0.16918 0.0
C499 C 0.52796 0.59897 0.18402 0.0
C500 C 0.57688 0.62085 0.19349 0.0
C501 C 0.55801 0.64153 0.15923 0.0
C502 C 0.56227 0.646 0.12509 0.0
C503 C 0.56441 0.66675 0.10953 0.0
C504 C 0.56212 0.68338 0.12931 0.0
C505 C 0.5579 0.67934 0.16436 0.0
C506 C 0.55605 0.65821 0.17953 0.0
H507 H 0.96851 0.49304 0.65319 0.0
H508 H 0.0229 0.56624 0.61359 0.0
H509 H 0.99288 0.57976 0.63013 0.0
H510 H 0.9126 0.49001 0.62231 0.0
H511 H 0.892 0.47286 0.65752 0.0
H512 H 0.91918 0.46992 0.64712 0.0
H513 H 0.93772 0.48251 0.70732 0.0
H514 H 0.91036 0.48512 0.71811 0.0
H515 H 0.94318 0.51087 0.724 0.0
H516 H 0.95568 0.58432 0.64815 0.0
H517 H 0.91392 0.57957 0.66537 0.0
H518 H 0.88302 0.50254 0.69015 0.0
C519 C 0.97443 0.51212 0.64916 0.0
C520 C 0.99823 0.5289 0.63302 0.0
C521 C 1.00492 0.55341 0.62658 0.0
C522 C 0.98799 0.56114 0.63578 0.0
C523 C 0.96434 0.54398 0.651 0.0
C524 C 0.95756 0.51996 0.65764 0.0
C525 C 0.93012 0.50456 0.67153 0.0
C526 C 0.91245 0.48308 0.64822 0.0
C527 C 0.93037 0.49522 0.70737 0.0
C528 C 0.92241 0.52358 0.67138 0.0
C529 C 0.94249 0.54627 0.65982 0.0
C530 C 0.93986 0.56667 0.65735 0.0
C531 C 0.91613 0.56382 0.66715 0.0
C532 C 0.89527 0.54067 0.67882 0.0
C533 C 0.89854 0.52036 0.68087 0.0
H534 H 0.39029 0.92339 0.05609 0.0
H535 H 0.45621 0.97942 0.11268 0.0
H536 H 0.43231 0.95987 0.16569 0.0
H537 H 0.33907 0.91736 0.11107 0.0
H538 H 0.31884 0.88456 0.10525 0.0
H539 H 0.34052 0.90416 0.07226 0.0
H540 H 0.3618 0.87795 0.07154 0.0
H541 H 0.34032 0.85837 0.10462 0.0
H542 H 0.37517 0.87346 0.10983 0.0
H543 H 0.40192 0.93162 0.21275 0.0
H544 H 0.3674 0.89887 0.249 0.0
H545 H 0.32191 0.86203 0.16051 0.0
C546 C 0.39966 0.93183 0.07957 0.0
C547 C 0.42515 0.95299 0.08021 0.0
C548 C 0.43663 0.96333 0.11154 0.0
C549 C 0.42322 0.95229 0.14176 0.0
C550 C 0.39828 0.93109 0.14016 0.0
C551 C 0.38656 0.92116 0.10975 0.0
C552 C 0.36004 0.89788 0.11454 0.0
C553 C 0.33834 0.9012 0.09992 0.0
C554 C 0.35931 0.87561 0.09923 0.0
C555 C 0.3587 0.89591 0.15244 0.0
C556 C 0.38088 0.9152 0.16688 0.0
C557 C 0.38439 0.9166 0.20163 0.0
C558 C 0.36476 0.89784 0.22201 0.0
C559 C 0.34185 0.87796 0.20763 0.0
C560 C 0.33891 0.8772 0.17236 0.0
H561 H 0.50436 0.45101 0.64505 0.0
H562 H 0.42747 0.41058 0.6003 0.0
H563 H 0.42212 0.37121 0.62128 0.0
H564 H 0.5223 0.40816 0.62235 0.0
H565 H 0.54121 0.41249 0.65984 0.0
H566 H 0.53765 0.43711 0.64369 0.0
H567 H 0.51958 0.43946 0.7013 0.0
H568 H 0.52292 0.41469 0.71746 0.0
H569 H 0.49173 0.41214 0.71912 0.0
H570 H 0.42567 0.33656 0.64705 0.0
H571 H 0.43872 0.30881 0.67215 0.0
H572 H 0.51476 0.37206 0.69634 0.0
C573 C 0.48624 0.43384 0.64034 0.0
C574 C 0.46599 0.43357 0.62186 0.0
C575 C 0.44289 0.41089 0.61494 0.0
C576 C 0.43977 0.3886 0.62671 0.0
C577 C 0.46021 0.38943 0.64475 0.0
C578 C 0.48311 0.41147 0.65122 0.0
C579 C 0.50283 0.40728 0.669 0.0
C580 C 0.52745 0.41682 0.64743 0.0
C581 C 0.50965 0.41909 0.70379 0.0
C582 C 0.4874 0.37942 0.67182 0.0
C583 C 0.46278 0.36948 0.65797 0.0
C584 C 0.4449 0.34413 0.65789 0.0
C585 C 0.45244 0.32855 0.67224 0.0
C586 C 0.47772 0.33836 0.68601 0.0
C587 C 0.49538 0.36412 0.68572 0.0
H588 H 0.56671 0.95214 0.4447 0.0
H589 H 0.51903 0.96992 0.38272 0.0
H590 H 0.51136 0.93734 0.34318 0.0
H591 H 0.59708 0.93932 0.37821 0.0
H592 H 0.59632 0.914 0.40029 0.0
H593 H 0.59802 0.9387 0.42346 0.0
H594 H 0.55643 0.90721 0.45656 0.0
H595 H 0.55465 0.88241 0.43357 0.0
H596 H 0.5271 0.88624 0.43395 0.0
H597 H 0.51084 0.90401 0.30908 0.0
H598 H 0.51489 0.87104 0.28497 0.0
H599 H 0.56034 0.87301 0.37177 0.0
C600 C 0.5548 0.94929 0.42269 0.0
C601 C 0.54363 0.96372 0.41659 0.0
C602 C 0.52769 0.95904 0.38788 0.0
C603 C 0.52334 0.94065 0.36526 0.0
C604 C 0.53479 0.92687 0.37193 0.0
C605 C 0.54996 0.9308 0.40015 0.0
C606 C 0.55952 0.91309 0.40199 0.0
C607 C 0.58952 0.92712 0.40092 0.0
C608 C 0.54878 0.89624 0.43338 0.0
C609 C 0.54763 0.89875 0.37017 0.0
C610 C 0.53357 0.90706 0.35308 0.0
C611 C 0.52149 0.89713 0.32252 0.0
C612 C 0.52374 0.87816 0.30915 0.0
C613 C 0.5377 0.86894 0.32644 0.0
C614 C 0.54973 0.87956 0.35748 0.0
H615 H 0.6238 0.53283 0.97946 0.0
H616 H 0.56058 0.52106 0.91337 0.0
H617 H 0.58493 0.51965 0.8648 0.0
H618 H 0.67755 0.57085 0.92132 0.0
H619 H 0.69572 0.55715 0.93528 0.0
H620 H 0.67423 0.55942 0.96392 0.0
H621 H 0.65003 0.51231 0.97549 0.0
H622 H 0.67116 0.50978 0.94659 0.0
H623 H 0.63627 0.4915 0.94086 0.0
H624 H 0.61503 0.51621 0.82412 0.0
H625 H 0.64936 0.51362 0.79454 0.0
H626 H 0.69201 0.52708 0.88813 0.0
C627 C 0.61522 0.53045 0.95472 0.0
C628 C 0.59031 0.52718 0.95023 0.0
C629 C 0.57973 0.52382 0.91742 0.0
C630 C 0.59338 0.5229 0.8897 0.0
C631 C 0.61758 0.52547 0.89523 0.0
C632 C 0.62849 0.52943 0.92693 0.0
C633 C 0.65418 0.53055 0.92661 0.0
C634 C 0.67676 0.55601 0.93742 0.0
C635 C 0.65281 0.5098 0.94869 0.0
C636 C 0.65601 0.52641 0.8898 0.0
C637 C 0.63475 0.52349 0.87204 0.0
C638 C 0.63185 0.51866 0.83777 0.0
C639 C 0.65133 0.51703 0.82125 0.0
C640 C 0.67341 0.52025 0.839 0.0
C641 C 0.6756 0.52493 0.87374 0.0
H642 H 0.10014 0.56104 0.47458 0.0
H643 H 0.02537 0.55563 0.47493 0.0
H644 H 0.04458 0.59447 0.44109 0.0
H645 H 0.14008 0.62508 0.48333 0.0
H646 H 0.16535 0.62872 0.45564 0.0
H647 H 0.1453 0.60002 0.47812 0.0
H648 H 0.13209 0.57645 0.42213 0.0
H649 H 0.15233 0.60507 0.39947 0.0
H650 H 0.11828 0.58566 0.38886 0.0
H651 H 0.07368 0.63606 0.41099 0.0
H652 H 0.10852 0.67457 0.38419 0.0
H653 H 0.16319 0.65063 0.40114 0.0
C654 C 0.08769 0.56787 0.46733 0.0
C655 C 0.06128 0.55539 0.47749 0.0
C656 C 0.04562 0.56486 0.46727 0.0
C657 C 0.0564 0.58693 0.44818 0.0
C658 C 0.08273 0.59903 0.43915 0.0
C659 C 0.098 0.58957 0.44802 0.0
C660 C 0.12574 0.60598 0.43551 0.0
C661 C 0.14525 0.61551 0.46491 0.0
C662 C 0.1325 0.59249 0.40997 0.0
C663 C 0.12397 0.62657 0.41882 0.0
C664 C 0.09906 0.6223 0.42114 0.0
C665 C 0.09313 0.63934 0.40861 0.0
C666 C 0.1131 0.66117 0.39322 0.0
C667 C 0.13879 0.66583 0.39024 0.0
C668 C 0.14401 0.64804 0.40322 0.0
H669 H 0.4746 0.059 0.93783 0.0
H670 H 0.44306 0.00498 0.85892 0.0
H671 H 0.45133 0.03774 0.81755 0.0
H672 H 0.44845 0.0948 0.90786 0.0
H673 H 0.47672 0.12384 0.9196 0.0
H674 H 0.46851 0.09611 0.94269 0.0
H675 H 0.51473 0.1044 0.93123 0.0
H676 H 0.52304 0.13208 0.90785 0.0
H677 H 0.52616 0.10849 0.88858 0.0
H678 H 0.46388 0.07657 0.78473 0.0
H679 H 0.47683 0.11801 0.76332 0.0
H680 H 0.49911 0.14644 0.86419 0.0
C681 C 0.46956 0.05405 0.91183 0.0
C682 C 0.4582 0.02939 0.90162 0.0
C683 C 0.45149 0.02366 0.86741 0.0
C684 C 0.45634 0.04219 0.84369 0.0
C685 C 0.46783 0.06633 0.85461 0.0
C686 C 0.47418 0.07227 0.8879 0.0
C687 C 0.48582 0.09953 0.89327 0.0
C688 C 0.46885 0.10381 0.91726 0.0
C689 C 0.51412 0.11185 0.90598 0.0
C690 C 0.48478 0.10799 0.85779 0.0
C691 C 0.4746 0.0886 0.83583 0.0
C692 C 0.47171 0.09186 0.80174 0.0
C693 C 0.47898 0.11547 0.78987 0.0
C694 C 0.48878 0.13554 0.81207 0.0
C695 C 0.49197 0.13165 0.84643 0.0
H696 H 0.40827 0.47409 0.48237 0.0
H697 H 0.47654 0.49068 0.42503 0.0
H698 H 0.45417 0.4911 0.37262 0.0
H699 H 0.35935 0.43426 0.42012 0.0
H700 H 0.33825 0.44542 0.42955 0.0
H701 H 0.35904 0.44458 0.46176 0.0
H702 H 0.37904 0.49115 0.47171 0.0
H703 H 0.35857 0.49222 0.43933 0.0
H704 H 0.39349 0.51273 0.43697 0.0
H705 H 0.42525 0.4934 0.32688 0.0
H706 H 0.39137 0.49403 0.29181 0.0
H707 H 0.34223 0.47541 0.37968 0.0
C708 C 0.41839 0.47736 0.45875 0.0
C709 C 0.44414 0.48222 0.45783 0.0
C710 C 0.45671 0.48659 0.42636 0.0
C711 C 0.44419 0.48702 0.39648 0.0
C712 C 0.41902 0.48277 0.39844 0.0
C713 C 0.40615 0.47767 0.42879 0.0
C714 C 0.37951 0.47442 0.42446 0.0
C715 C 0.35775 0.44811 0.43457 0.0
C716 C 0.37756 0.49379 0.44429 0.0
C717 C 0.37946 0.47887 0.38698 0.0
C718 C 0.4024 0.48371 0.37233 0.0
C719 C 0.40713 0.48936 0.33811 0.0
C720 C 0.38785 0.48985 0.31841 0.0
C721 C 0.36405 0.48461 0.3329 0.0
C722 C 0.35998 0.47908 0.36769 0.0
H723 H 0.91973 0.44301 0.95739 0.0
H724 H 0.89547 0.3968 0.04753 0.0
H725 H 0.86194 0.36177 0.01474 0.0
H726 H 0.85454 0.41545 0.91879 0.0
H727 H 0.86718 0.41823 0.87708 0.0
H728 H 0.88724 0.4401 0.90859 0.0
H729 H 0.92306 0.43002 0.89861 0.0
H730 H 0.90288 0.40801 0.86742 0.0
H731 H 0.91484 0.39855 0.90264 0.0
H732 H 0.83436 0.33103 0.97169 0.0
H733 H 0.81277 0.30659 0.9214 0.0
H734 H 0.85478 0.37253 0.85866 0.0
C735 C 0.90726 0.42558 0.97032 0.0
C736 C 0.91028 0.42263 0.00509 0.0
C737 C 0.89333 0.39958 0.02107 0.0
C738 C 0.87431 0.37956 1.00261 0.0
C739 C 0.87233 0.38297 0.96826 0.0
C740 C 0.88816 0.40545 0.95229 0.0
C741 C 0.88281 0.40392 0.91483 0.0
C742 C 0.87231 0.4204 0.9042 0.0
C743 C 0.90736 0.41051 0.8947 0.0
C744 C 0.86194 0.37683 0.91209 0.0
C745 C 0.85615 0.36518 0.94329 0.0
C746 C 0.83852 0.33997 0.94719 0.0
C747 C 0.82653 0.32624 0.91846 0.0
C748 C 0.83221 0.33769 0.8862 0.0
C749 C 0.84992 0.36339 0.88306 0.0
H750 H 0.97687 0.55555 0.94866 0.0
H751 H 0.97015 0.48564 0.9309 0.0
H752 H 0.93568 0.47571 0.88888 0.0
H753 H 0.91136 0.53506 0.94469 0.0
H754 H 0.91487 0.56166 0.9228 0.0
H755 H 0.94106 0.56474 0.94868 0.0
H756 H 0.97299 0.58332 0.89837 0.0
H757 H 0.947 0.58078 0.87243 0.0
H758 H 0.96473 0.56678 0.85959 0.0
H759 H 0.89732 0.47075 0.85559 0.0
H760 H 0.86233 0.47336 0.82762 0.0
H761 H 0.89679 0.54836 0.86251 0.0
C762 C 0.9687 0.53846 0.93522 0.0
C763 C 0.97627 0.5214 0.94313 0.0
C764 C 0.96488 0.49912 0.92518 0.0
C765 C 0.94514 0.49324 0.90137 0.0
C766 C 0.9374 0.51005 0.89519 0.0
C767 C 0.94931 0.5325 0.91095 0.0
C768 C 0.93688 0.54701 0.90052 0.0
C769 C 0.92536 0.55243 0.93099 0.0
C770 C 0.95657 0.57089 0.88159 0.0
C771 C 0.91555 0.52889 0.8773 0.0
C772 C 0.91613 0.50766 0.87466 0.0
C773 C 0.89717 0.48759 0.85669 0.0
C774 C 0.87736 0.48938 0.8406 0.0
C775 C 0.87669 0.51127 0.842 0.0
C776 C 0.89629 0.53124 0.86075 0.0
H777 H 0.44348 0.9523 0.47971 0.0
H778 H 0.45317 0.01108 0.41263 0.0
H779 H 0.41069 0.98261 0.3866 0.0
H780 H 0.41677 0.90607 0.42027 0.0
H781 H 0.39365 0.88171 0.4479 0.0
H782 H 0.42322 0.90722 0.46472 0.0
H783 H 0.39627 0.91622 0.50555 0.0
H784 H 0.36657 0.89054 0.48906 0.0
H785 H 0.37109 0.92078 0.48913 0.0
H786 H 0.3706 0.94742 0.36308 0.0
H787 H 0.33386 0.90762 0.34471 0.0
H788 H 0.34792 0.871 0.42821 0.0
C789 C 0.43628 0.95928 0.46018 0.0
C790 C 0.45158 0.98393 0.44827 0.0
C791 C 0.4418 0.99228 0.42214 0.0
C792 C 0.41764 0.97627 0.40723 0.0
C793 C 0.40337 0.95194 0.41879 0.0
C794 C 0.41211 0.94344 0.44484 0.0
C795 C 0.39364 0.91593 0.45068 0.0
C796 C 0.40766 0.90192 0.44558 0.0
C797 C 0.38115 0.91056 0.48569 0.0
C798 C 0.37366 0.91031 0.42324 0.0
C799 C 0.37963 0.93142 0.40536 0.0
C800 C 0.36527 0.93081 0.37739 0.0
C801 C 0.34422 0.90801 0.3673 0.0
C802 C 0.33744 0.88596 0.38524 0.0
C803 C 0.35239 0.88734 0.41382 0.0
H804 H 0.49124 0.39335 0.98722 0.0
H805 H 0.57126 0.45372 0.97512 0.0
H806 H 0.57951 0.42891 0.93616 0.0
H807 H 0.50259 0.34225 0.9806 0.0
H808 H 0.47348 0.3236 0.9562 0.0
H809 H 0.47459 0.34499 0.98592 0.0
H810 H 0.46216 0.36557 0.93876 0.0
H811 H 0.46107 0.34429 0.90892 0.0
H812 H 0.48177 0.37701 0.90122 0.0
H813 H 0.57881 0.39815 0.89794 0.0
H814 H 0.56889 0.36478 0.85944 0.0
H815 H 0.48788 0.32516 0.89175 0.0
C816 C 0.51058 0.40096 0.97684 0.0
C817 C 0.53085 0.42517 0.98449 0.0
C818 C 0.55571 0.43507 0.96972 0.0
C819 C 0.56052 0.42111 0.94768 0.0
C820 C 0.5401 0.39738 0.94026 0.0
C821 C 0.51555 0.3874 0.95412 0.0
C822 C 0.49655 0.36225 0.93965 0.0
C823 C 0.4862 0.34208 0.96724 0.0
C824 C 0.47406 0.3623 0.92103 0.0
C825 C 0.51423 0.35975 0.91542 0.0
C826 C 0.53933 0.3801 0.91659 0.0
C827 C 0.55918 0.3822 0.8966 0.0
C828 C 0.55322 0.36317 0.87448 0.0
C829 C 0.52745 0.34233 0.87189 0.0
C830 C 0.50781 0.34063 0.89309 0.0
H831 H 0.11293 0.47957 0.48712 0.0
H832 H 0.04066 0.45298 0.43194 0.0
H833 H 0.06182 0.45061 0.38072 0.0
H834 H 0.15561 0.51728 0.42158 0.0
H835 H 0.18044 0.51047 0.43141 0.0
H836 H 0.15937 0.50924 0.46404 0.0
H837 H 0.14549 0.46419 0.47874 0.0
H838 H 0.16667 0.46534 0.44631 0.0
H839 H 0.13253 0.4415 0.44625 0.0
H840 H 0.09135 0.45226 0.33505 0.0
H841 H 0.12687 0.45756 0.29861 0.0
H842 H 0.17943 0.48208 0.38419 0.0
C843 C 0.10138 0.47286 0.46446 0.0
C844 C 0.07507 0.46644 0.46363 0.0
C845 C 0.06089 0.45823 0.43315 0.0
C846 C 0.07271 0.45671 0.40396 0.0
C847 C 0.09874 0.46343 0.40561 0.0
C848 C 0.11289 0.47127 0.4351 0.0
C849 C 0.14075 0.47798 0.43 0.0
C850 C 0.16018 0.50537 0.43718 0.0
C851 C 0.1467 0.46125 0.4516 0.0
C852 C 0.14011 0.47276 0.39299 0.0
C853 C 0.1157 0.46435 0.37938 0.0
C854 C 0.1105 0.45866 0.34551 0.0
C855 C 0.13077 0.46161 0.32504 0.0
C856 C 0.15598 0.47018 0.33847 0.0
C857 C 0.16052 0.47575 0.37298 0.0
H858 H 0.55405 0.03689 0.91692 0.0
H859 H 0.55347 0.06628 0.01385 0.0
H860 H 0.58993 0.10743 0.9951 0.0
H861 H 0.62355 0.07243 0.90318 0.0
H862 H 0.62034 0.07646 0.85882 0.0
H863 H 0.59523 0.04942 0.88072 0.0
H864 H 0.56071 0.05925 0.85996 0.0
H865 H 0.5857 0.08637 0.83811 0.0
H866 H 0.56534 0.08891 0.86844 0.0
H867 H 0.62612 0.14572 0.96443 0.0
H868 H 0.6585 0.17743 0.92527 0.0
H869 H 0.63346 0.12238 0.84822 0.0
C870 C 0.56171 0.05184 0.9345 0.0
C871 C 0.55101 0.04828 0.96703 0.0
C872 C 0.56146 0.06852 0.98891 0.0
C873 C 0.58213 0.09194 0.97844 0.0
C874 C 0.59199 0.09479 0.94599 0.0
C875 C 0.58205 0.07522 0.9244 0.0
C876 C 0.59527 0.08307 0.89045 0.0
C877 C 0.60944 0.06954 0.88286 0.0
C878 C 0.57558 0.07917 0.86261 0.0
C879 C 0.61441 0.11017 0.89621 0.0
C880 C 0.61227 0.11665 0.92836 0.0
C881 C 0.62788 0.14081 0.93922 0.0
C882 C 0.64611 0.15874 0.91668 0.0
C883 C 0.64858 0.15247 0.88356 0.0
C884 C 0.6324 0.12779 0.87342 0.0
H885 H 0.52927 0.61602 0.49902 0.0
H886 H 0.51597 0.55747 0.4326 0.0
H887 H 0.52147 0.58383 0.38366 0.0
H888 H 0.49373 0.63619 0.45009 0.0
H889 H 0.51569 0.66844 0.45838 0.0
H890 H 0.51221 0.64551 0.48862 0.0
H891 H 0.56212 0.66385 0.48688 0.0
H892 H 0.56575 0.68686 0.45663 0.0
H893 H 0.57776 0.66711 0.44717 0.0
H894 H 0.52643 0.61546 0.3418 0.0
H895 H 0.53121 0.65104 0.30948 0.0
H896 H 0.5406 0.68916 0.40237 0.0
C897 C 0.52763 0.60881 0.47418 0.0
C898 C 0.52254 0.58475 0.46982 0.0
C899 C 0.52052 0.57599 0.43682 0.0
C900 C 0.5234 0.59078 0.40873 0.0
C901 C 0.52832 0.61431 0.41394 0.0
C902 C 0.53048 0.62336 0.44577 0.0
C903 C 0.53519 0.64913 0.44423 0.0
C904 C 0.51287 0.64985 0.46134 0.0
C905 C 0.56179 0.66784 0.45964 0.0
C906 C 0.53508 0.653 0.40657 0.0
C907 C 0.53111 0.63266 0.38962 0.0
C908 C 0.52961 0.63154 0.35474 0.0
C909 C 0.53219 0.65175 0.33664 0.0
C910 C 0.53621 0.67279 0.35343 0.0
C911 C 0.53782 0.67342 0.38887 0.0
H912 H 0.50358 0.0871 0.53594 0.0
H913 H 0.58443 0.13401 0.50532 0.0
H914 H 0.58925 0.1666 0.54241 0.0
H915 H 0.48977 0.13585 0.54072 0.0
H916 H 0.46892 0.12245 0.57693 0.0
H917 H 0.47172 0.10291 0.5476 0.0
H918 H 0.48551 0.0842 0.59599 0.0
H919 H 0.48243 0.10358 0.6253 0.0
H920 H 0.51268 0.10444 0.62243 0.0
H921 H 0.58592 0.19332 0.58496 0.0
H922 H 0.57388 0.21344 0.62706 0.0
H923 H 0.49479 0.14982 0.62915 0.0
C924 C 0.52226 0.10428 0.53694 0.0
C925 C 0.5436 0.10801 0.51752 0.0
C926 C 0.56768 0.13084 0.51941 0.0
C927 C 0.57065 0.1494 0.54064 0.0
C928 C 0.5493 0.14502 0.55962 0.0
C929 C 0.52548 0.12312 0.55774 0.0
C930 C 0.50558 0.12317 0.58065 0.0
C931 C 0.48265 0.12097 0.56025 0.0
C932 C 0.496 0.10263 0.60768 0.0
C933 C 0.52199 0.14847 0.59588 0.0
C934 C 0.54721 0.16067 0.58359 0.0
C935 C 0.56619 0.18401 0.59458 0.0
C936 C 0.5592 0.19524 0.61861 0.0
C937 C 0.5334 0.18325 0.63129 0.0
C938 C 0.51458 0.15956 0.61961 0.0
H939 H 0.42686 0.45345 0.05234 0.0
H940 H 0.47766 0.52978 0.02023 0.0
H941 H 0.44803 0.54024 0.04658 0.0
H942 H 0.36413 0.45198 0.04224 0.0
H943 H 0.35011 0.43216 0.07873 0.0
H944 H 0.37348 0.43017 0.05341 0.0
H945 H 0.40189 0.43735 0.10632 0.0
H946 H 0.37897 0.43988 0.13167 0.0
H947 H 0.41276 0.46456 0.13069 0.0
H948 H 0.41714 0.54362 0.08421 0.0
H949 H 0.38401 0.5389 0.12415 0.0
H950 H 0.35116 0.45976 0.12848 0.0
C951 C 0.43135 0.47222 0.04996 0.0
C952 C 0.45457 0.49077 0.03414 0.0
C953 C 0.45988 0.51518 0.0319 0.0
C954 C 0.44322 0.52134 0.04696 0.0
C955 C 0.42111 0.50282 0.06363 0.0
C956 C 0.41479 0.47863 0.06454 0.0
C957 C 0.39055 0.46247 0.08548 0.0
C958 C 0.36824 0.44305 0.06366 0.0
C959 C 0.39641 0.45037 0.1153 0.0
C960 C 0.3848 0.48152 0.09721 0.0
C961 C 0.40265 0.50465 0.08433 0.0
C962 C 0.40256 0.52547 0.09366 0.0
C963 C 0.38349 0.52253 0.11634 0.0
C964 C 0.36445 0.49887 0.1293 0.0
C965 C 0.3653 0.47815 0.11937 0.0
H966 H 0.95628 0.39966 0.58401 0.0
H967 H 0.93406 0.45188 0.55415 0.0
H968 H 0.89188 0.42614 0.58366 0.0
H969 H 0.89101 0.34369 0.57733 0.0
H970 H 0.89617 0.32923 0.61343 0.0
H971 H 0.92343 0.35079 0.58762 0.0
H972 H 0.9468 0.37664 0.64011 0.0
H973 H 0.9195 0.35538 0.66601 0.0
H974 H 0.93057 0.38769 0.66532 0.0
H975 H 0.8535 0.3961 0.62067 0.0
H976 H 0.82149 0.3636 0.65916 0.0
H977 H 0.86869 0.33064 0.6635 0.0
C978 C 0.94237 0.4055 0.58306 0.0
C979 C 0.94847 0.42776 0.56652 0.0
C980 C 0.92975 0.43478 0.56625 0.0
C981 C 0.90577 0.42032 0.58311 0.0
C982 C 0.9007 0.39878 0.59987 0.0
C983 C 0.91839 0.39127 0.5996 0.0
C984 C 0.90876 0.36788 0.62044 0.0
C985 C 0.90459 0.34664 0.59838 0.0
C986 C 0.92752 0.37217 0.6497 0.0
C987 C 0.88303 0.36354 0.63302 0.0
C988 C 0.87868 0.38152 0.62084 0.0
C989 C 0.85657 0.38176 0.62992 0.0
C990 C 0.8384 0.36309 0.65174 0.0
C991 C 0.84231 0.3443 0.66438 0.0
C992 C 0.86506 0.34472 0.65469 0.0
H993 H 0.47778 0.89317 0.04026 0.0
H994 H 0.55212 0.96205 0.03131 0.0
H995 H 0.57272 0.94485 0.06756 0.0
H996 H 0.48473 0.88304 0.12682 0.0
H997 H 0.4684 0.85003 0.12379 0.0
H998 H 0.46025 0.8671 0.09498 0.0
H999 H 0.47058 0.84856 0.04467 0.0
H1000 H 0.4787 0.83138 0.07336 0.0
H1001 H 0.50205 0.85173 0.04224 0.0
H1002 H 0.5848 0.91983 0.10492 0.0
H1003 H 0.58727 0.89004 0.14277 0.0
H1004 H 0.50373 0.83906 0.13118 0.0
C1005 C 0.49849 0.90438 0.04547 0.0
C1006 C 0.51359 0.92873 0.03273 0.0
C1007 C 0.54043 0.94327 0.04081 0.0
C1008 C 0.55221 0.93365 0.06124 0.0
C1009 C 0.53671 0.90959 0.07373 0.0
C1010 C 0.51039 0.89523 0.06635 0.0
C1011 C 0.4977 0.87057 0.08468 0.0
C1012 C 0.47652 0.86752 0.10901 0.0
C1013 C 0.48661 0.84931 0.05974 0.0
C1014 C 0.52101 0.87324 0.10341 0.0
C1015 C 0.54337 0.89574 0.09654 0.0
C1016 C 0.56736 0.90221 0.11069 0.0
C1017 C 0.56849 0.8852 0.13245 0.0
C1018 C 0.54569 0.8621 0.14028 0.0
C1019 C 0.52167 0.85627 0.12548 0.0
H1020 H 0.60144 0.52914 0.54047 0.0
H1021 H 0.53798 0.48891 0.61119 0.0
H1022 H 0.56697 0.48277 0.64903 0.0
H1023 H 0.63162 0.49117 0.55567 0.0
H1024 H 0.66431 0.5176 0.55136 0.0
H1025 H 0.63785 0.51658 0.5283 0.0
H1026 H 0.64959 0.5581 0.55401 0.0
H1027 H 0.67583 0.5591 0.57747 0.0
H1028 H 0.6508 0.56091 0.59903 0.0
H1029 H 0.60363 0.48489 0.68175 0.0
H1030 H 0.64539 0.49278 0.70585 0.0
H1031 H 0.68528 0.5301 0.61355 0.0
C1032 C 0.59355 0.51831 0.56338 0.0
C1033 C 0.56742 0.50897 0.57278 0.0
C1034 C 0.55783 0.49563 0.6034 0.0
C1035 C 0.57415 0.49214 0.62503 0.0
C1036 C 0.59999 0.50188 0.61547 0.0
C1037 C 0.6096 0.51436 0.58516 0.0
C1038 C 0.63851 0.52393 0.58184 0.0
C1039 C 0.64335 0.51158 0.55255 0.0
C1040 C 0.65462 0.55219 0.57786 0.0
C1041 C 0.64377 0.51561 0.61539 0.0
C1042 C 0.62122 0.50286 0.63434 0.0
C1043 C 0.62132 0.49448 0.66695 0.0
C1044 C 0.64505 0.4991 0.68048 0.0
C1045 C 0.66827 0.51183 0.6614 0.0
C1046 C 0.66763 0.52009 0.62841 0.0
H1047 H 0.04573 0.59632 0.12454 0.0
H1048 H 0.07981 0.55187 0.11021 0.0
H1049 H 0.1182 0.58118 0.14311 0.0
H1050 H 0.10484 0.65493 0.11843 0.0
H1051 H 0.09623 0.66877 0.15061 0.0
H1052 H 0.07103 0.64407 0.12626 0.0
H1053 H 0.04911 0.61905 0.18086 0.0
H1054 H 0.07417 0.64375 0.2054 0.0
H1055 H 0.06801 0.613 0.2105 0.0
H1056 H 0.15343 0.61575 0.17647 0.0
H1057 H 0.18274 0.65295 0.20886 0.0
H1058 H 0.12515 0.67414 0.20349 0.0
C1059 C 0.0611 0.59259 0.12862 0.0
C1060 C 0.05973 0.57184 0.11446 0.0
C1061 C 0.0805 0.56783 0.12015 0.0
C1062 C 0.10238 0.5843 0.13906 0.0
C1063 C 0.1032 0.60467 0.15231 0.0
C1064 C 0.08309 0.60883 0.14751 0.0
C1065 C 0.08898 0.63227 0.16431 0.0
C1066 C 0.09035 0.65112 0.13834 0.0
C1067 C 0.06887 0.62667 0.19191 0.0
C1068 C 0.1156 0.64068 0.1791 0.0
C1069 C 0.12342 0.62448 0.17191 0.0
C1070 C 0.14744 0.62848 0.18251 0.0
C1071 C 0.16389 0.6496 0.20106 0.0
C1072 C 0.15625 0.66645 0.20888 0.0
C1073 C 0.13172 0.66179 0.19768 0.0
loop_
_geom_bond_atom_site_label_1
_geom_bond_atom_site_label_2
_geom_bond_distance
_geom_bond_site_symmetry_2
_ccdc_geom_bond_type
Cu0 N1 1.999 1_454 S
Cu0 O6 1.974 1_454 S
Cu0 N11 1.985 . S
Cu0 O20 1.959 . S
N1 Cu0 1.999 1_656 S
N1 C3 1.263 . S
N1 C5 1.389 1_556 S
N2 C3 1.358 . S
N2 C4 1.400 . S
C3 N1 1.263 . S
C3 N2 1.358 . S
C3 H9 0.930 . S
C4 N2 1.400 . S
C4 C5 1.351 1_556 S
C4 H21 0.930 . S
C5 N1 1.389 1_554 S
C5 C4 1.351 1_554 S
C5 H10 0.930 . S
O6 Cu0 1.974 1_656 S
O6 C16 1.282 . S
C7 O8 1.261 1_554 S
C7 O20 1.251 . S
O8 C7 1.261 1_556 S
H9 C3 0.930 . S
H10 C5 0.930 . S
N11 Cu0 1.985 . S
N11 C13 1.335 . S
N11 C14 1.390 . S
N12 C13 1.345 . S
N12 C15 1.336 . S
C13 N11 1.335 . S
C13 N12 1.345 . S
C13 H18 0.930 . S
C14 N11 1.390 . S
C14 C15 1.346 . S
C14 H19 0.930 1_554 S
C15 N12 1.336 . S
C15 C14 1.346 . S
C15 H22 0.929 . S
C16 O6 1.282 . S
C16 O17 1.216 1_655 S
O17 C16 1.216 1_455 S
H18 C13 0.930 . S
H19 C14 0.930 1_556 S
O20 Cu0 1.959 . S
O20 C7 1.251 . S
H21 C4 0.930 . S
H22 C15 0.929 . S
Cu23 N24 1.999 . S
Cu23 O29 1.974 . S
Cu23 N34 1.985 1_565 S
Cu23 O43 1.959 1_565 S
N24 Cu23 1.999 . S
N24 C26 1.263 . S
N24 C28 1.389 . S
N25 C26 1.358 . S
N25 C27 1.400 . S
C26 N24 1.263 . S
C26 N25 1.358 . S
C26 H32 0.930 . S
C27 N25 1.400 . S
C27 C28 1.351 . S
C27 H44 0.930 . S
C28 N24 1.389 . S
C28 C27 1.351 . S
C28 H33 0.930 . S
O29 Cu23 1.974 . S
O29 C39 1.282 . S
C30 O31 1.261 . S
C30 O43 1.251 . S
O31 C30 1.261 . S
H32 C26 0.930 . S
H33 C28 0.930 . S
N34 Cu23 1.985 1_545 S
N34 C36 1.335 . S
N34 C37 1.390 . S
N35 C36 1.345 . S
N35 C38 1.336 . S
C36 N34 1.335 . S
C36 N35 1.345 . S
C36 H41 0.930 . S
C37 N34 1.390 . S
C37 C38 1.346 . S
C37 H42 0.930 . S
C38 N35 1.336 . S
C38 C37 1.346 . S
C38 H45 0.929 . S
C39 O29 1.282 . S
C39 O40 1.216 . S
O40 C39 1.216 . S
H41 C36 0.930 . S
H42 C37 0.930 . S
O43 Cu23 1.959 1_545 S
O43 C30 1.251 . S
H44 C27 0.930 . S
H45 C38 0.929 . S
Cu46 N47 1.999 1_554 S
Cu46 O52 1.974 1_554 S
Cu46 N57 1.985 . S
Cu46 O66 1.959 . S
N47 Cu46 1.999 1_556 S
N47 C49 1.263 . S
N47 C51 1.389 . S
N48 C49 1.358 . S
N48 C50 1.400 . S
C49 N47 1.263 . S
C49 N48 1.358 . S
C49 H55 0.930 . S
C50 N48 1.400 . S
C50 C51 1.351 . S
C50 H67 0.930 . S
C51 N47 1.389 . S
C51 C50 1.351 . S
C51 H56 0.930 . S
O52 Cu46 1.974 1_556 S
O52 C62 1.282 . S
C53 O54 1.261 . S
C53 O66 1.251 . S
O54 C53 1.261 . S
H55 C49 0.930 . S
H56 C51 0.930 . S
N57 Cu46 1.985 . S
N57 C59 1.335 . S
N57 C60 1.390 . S
N58 C59 1.345 . S
N58 C61 1.336 . S
C59 N57 1.335 . S
C59 N58 1.345 . S
C59 H64 0.930 . S
C60 N57 1.390 . S
C60 C61 1.346 . S
C60 H65 0.930 . S
C61 N58 1.336 . S
C61 C60 1.346 . S
C61 H68 0.929 . S
C62 O52 1.282 . S
C62 O63 1.216 1_556 S
O63 C62 1.216 1_554 S
H64 C59 0.930 . S
H65 C60 0.930 . S
O66 Cu46 1.959 . S
O66 C53 1.251 . S
H67 C50 0.930 . S
H68 C61 0.929 . S
Cu69 N70 1.999 1_655 S
Cu69 O75 1.974 1_655 S
Cu69 N80 1.985 . S
Cu69 O89 1.959 . S
N70 Cu69 1.999 1_455 S
N70 C72 1.263 . S
N70 C74 1.389 1_455 S
N71 C72 1.358 . S
N71 C73 1.400 . S
C72 N70 1.263 . S
C72 N71 1.358 . S
C72 H78 0.930 . S
C73 N71 1.400 . S
C73 C74 1.351 1_455 S
C73 H90 0.930 . S
C74 N70 1.389 1_655 S
C74 C73 1.351 1_655 S
C74 H79 0.930 . S
O75 Cu69 1.974 1_455 S
O75 C85 1.282 . S
C76 O77 1.261 . S
C76 O89 1.251 . S
O77 C76 1.261 . S
H78 C72 0.930 . S
H79 C74 0.930 . S
N80 Cu69 1.985 . S
N80 C82 1.335 . S
N80 C83 1.390 . S
N81 C82 1.345 . S
N81 C84 1.336 . S
C82 N80 1.335 . S
C82 N81 1.345 . S
C82 H87 0.930 . S
C83 N80 1.390 . S
C83 C84 1.346 . S
C83 H88 0.930 1_655 S
C84 N81 1.336 . S
C84 C83 1.346 . S
C84 H91 0.929 . S
C85 O75 1.282 . S
C85 O86 1.216 . S
O86 C85 1.216 . S
H87 C82 0.930 . S
H88 C83 0.930 1_455 S
O89 Cu69 1.959 . S
O89 C76 1.251 . S
H90 C73 0.930 . S
H91 C84 0.929 . S
Cu92 N93 1.999 . S
Cu92 O98 1.973 . S
Cu92 N103 1.985 1_545 S
Cu92 O112 1.959 1_545 S
N93 Cu92 1.999 . S
N93 C95 1.263 1_554 S
N93 C97 1.389 . S
N94 C95 1.358 . S
N94 C96 1.400 1_556 S
C95 N93 1.263 1_556 S
C95 N94 1.358 . S
C95 H101 0.930 . S
C96 N94 1.400 1_554 S
C96 C97 1.351 . S
C96 H113 0.930 . S
C97 N93 1.389 . S
C97 C96 1.351 . S
C97 H102 0.930 . S
O98 Cu92 1.973 . S
O98 C108 1.283 1_554 S
C99 O100 1.261 . S
C99 O112 1.251 . S
O100 C99 1.261 . S
H101 C95 0.930 . S
H102 C97 0.930 . S
N103 Cu92 1.985 1_565 S
N103 C105 1.335 . S
N103 C106 1.390 . S
N104 C105 1.345 . S
N104 C107 1.336 . S
C105 N103 1.335 . S
C105 N104 1.345 . S
C105 H110 0.930 . S
C106 N103 1.390 . S
C106 C107 1.346 . S
C106 H111 0.933 . S
C107 N104 1.336 . S
C107 C106 1.346 . S
C107 H114 0.929 . S
C108 O98 1.283 1_556 S
C108 O109 1.216 . S
O109 C108 1.216 . S
H110 C105 0.930 . S
H111 C106 0.933 . S
O112 Cu92 1.959 1_565 S
O112 C99 1.251 . S
H113 C96 0.930 . S
H114 C107 0.929 . S
Cu115 N116 1.999 . S
Cu115 O121 1.974 . S
Cu115 N126 1.985 . S
Cu115 O135 1.959 . S
N116 Cu115 1.999 . S
N116 C118 1.263 . S
N116 C120 1.389 . S
N117 C118 1.358 . S
N117 C119 1.400 . S
C118 N116 1.263 . S
C118 N117 1.358 . S
C118 H124 0.930 . S
C119 N117 1.400 . S
C119 C120 1.351 . S
C119 H136 0.930 . S
C120 N116 1.389 . S
C120 C119 1.351 . S
C120 H125 0.930 . S
O121 Cu115 1.974 . S
O121 C131 1.282 . S
C122 O123 1.261 . S
C122 O135 1.251 . S
O123 C122 1.261 . S
H124 C118 0.930 . S
H125 C120 0.930 . S
N126 Cu115 1.985 . S
N126 C128 1.335 . S
N126 C129 1.390 . S
N127 C128 1.345 . S
N127 C130 1.336 . S
C128 N126 1.335 . S
C128 N127 1.345 . S
C128 H133 0.930 . S
C129 N126 1.390 . S
C129 C130 1.346 . S
C129 H134 0.930 . S
C130 N127 1.336 . S
C130 C129 1.346 . S
C130 H137 0.929 . S
C131 O121 1.282 . S
C131 O132 1.216 . S
O132 C131 1.216 . S
H133 C128 0.930 . S
H134 C129 0.930 . S
O135 Cu115 1.959 . S
O135 C122 1.251 . S
H136 C119 0.930 . S
H137 C130 0.929 . S
H138 C157 0.949 . S
H139 C158 0.950 . S
H140 C160 0.950 . S
H141 C161 0.950 . S
H142 C163 0.950 . S
H143 C166 0.950 . S
H144 C167 0.950 . S
H145 C169 0.951 . S
H146 C170 0.949 . S
H147 C172 0.949 . S
H148 C173 0.950 . S
H149 C175 0.950 . S
H150 C176 0.950 . S
H151 C178 0.950 . S
H152 C181 0.950 . S
H153 C182 0.950 . S
H154 C184 0.951 . S
H155 C185 0.949 . S
C156 C157 1.376 . S
C156 C161 1.386 . S
C156 C162 1.483 . S
C157 H138 0.949 . S
C157 C156 1.376 . S
C157 C158 1.397 . S
C158 H139 0.950 . S
C158 C157 1.397 . S
C158 C159 1.391 . S
C159 C158 1.391 . S
C159 C160 1.405 . S
C160 H140 0.950 . S
C160 C159 1.405 . S
C160 C161 1.367 . S
C161 H141 0.950 . S
C161 C156 1.386 . S
C161 C160 1.367 . S
C162 C156 1.483 . S
C162 C163 1.382 . S
C162 C164 1.403 . S
C163 H142 0.950 . S
C163 C162 1.382 . S
C163 C179 1.411 . S
C164 C162 1.403 . S
C164 C165 1.489 . S
C164 C178 1.411 . S
C165 C164 1.489 . S
C165 C166 1.383 . S
C165 C170 1.382 . S
C166 H143 0.950 . S
C166 C165 1.383 . S
C166 C167 1.395 . S
C167 H144 0.950 . S
C167 C166 1.395 . S
C167 C168 1.288 . S
C168 C167 1.288 . S
C168 C169 1.392 . S
C169 H145 0.951 . S
C169 C168 1.392 . S
C169 C170 1.392 . S
C170 H146 0.949 . S
C170 C165 1.382 . S
C170 C169 1.392 . S
C171 C172 1.376 . S
C171 C176 1.386 . S
C171 C177 1.483 . S
C172 H147 0.949 . S
C172 C171 1.376 . S
C172 C173 1.397 . S
C173 H148 0.950 . S
C173 C172 1.397 . S
C173 C174 1.391 . S
C174 C173 1.391 . S
C174 C175 1.405 . S
C175 H149 0.950 . S
C175 C174 1.405 . S
C175 C176 1.367 . S
C176 H150 0.950 . S
C176 C171 1.386 . S
C176 C175 1.367 . S
C177 C171 1.483 . S
C177 C178 1.382 . S
C177 C179 1.403 . S
C178 H151 0.950 . S
C178 C164 1.411 . S
C178 C177 1.382 . S
C179 C163 1.411 . S
C179 C177 1.403 . S
C179 C180 1.489 . S
C180 C179 1.489 . S
C180 C181 1.383 . S
C180 C185 1.382 . S
C181 H152 0.950 . S
C181 C180 1.383 . S
C181 C182 1.395 . S
C182 H153 0.950 . S
C182 C181 1.395 . S
C182 C183 1.288 . S
C183 C182 1.288 . S
C183 C184 1.392 . S
C184 H154 0.951 . S
C184 C183 1.392 . S
C184 C185 1.392 . S
C185 H155 0.949 . S
C185 C180 1.382 . S
C185 C184 1.392 . S
H186 C205 0.949 . S
H187 C206 0.950 . S
H188 C208 0.950 . S
H189 C209 0.950 . S
H190 C211 0.950 . S
H191 C214 0.950 . S
H192 C215 0.950 . S
H193 C217 0.951 . S
H194 C218 0.949 . S
H195 C220 0.949 . S
H196 C221 0.950 . S
H197 C223 0.950 . S
H198 C224 0.950 . S
H199 C226 0.950 . S
H200 C229 0.950 . S
H201 C230 0.950 . S
H202 C232 0.951 . S
H203 C233 0.949 . S
C204 C205 1.376 . S
C204 C209 1.386 . S
C204 C210 1.483 . S
C205 H186 0.949 . S
C205 C204 1.376 . S
C205 C206 1.397 . S
C206 H187 0.950 . S
C206 C205 1.397 . S
C206 C207 1.391 . S
C207 C206 1.391 . S
C207 C208 1.405 . S
C208 H188 0.950 . S
C208 C207 1.405 . S
C208 C209 1.367 . S
C209 H189 0.950 . S
C209 C204 1.386 . S
C209 C208 1.367 . S
C210 C204 1.483 . S
C210 C211 1.382 . S
C210 C212 1.403 . S
C211 H190 0.950 . S
C211 C210 1.382 . S
C211 C227 1.411 . S
C212 C210 1.403 . S
C212 C213 1.489 . S
C212 C226 1.411 . S
C213 C212 1.489 . S
C213 C214 1.383 . S
C213 C218 1.382 . S
C214 H191 0.950 . S
C214 C213 1.383 . S
C214 C215 1.395 . S
C215 H192 0.950 . S
C215 C214 1.395 . S
C215 C216 1.288 . S
C216 C215 1.288 . S
C216 C217 1.392 . S
C217 H193 0.951 . S
C217 C216 1.392 . S
C217 C218 1.392 . S
C218 H194 0.949 . S
C218 C213 1.382 . S
C218 C217 1.392 . S
C219 C220 1.376 . S
C219 C224 1.386 . S
C219 C225 1.483 . S
C220 H195 0.949 . S
C220 C219 1.376 . S
C220 C221 1.397 . S
C221 H196 0.950 . S
C221 C220 1.397 . S
C221 C222 1.391 . S
C222 C221 1.391 . S
C222 C223 1.405 . S
C223 H197 0.950 . S
C223 C222 1.405 . S
C223 C224 1.367 . S
C224 H198 0.950 . S
C224 C219 1.386 . S
C224 C223 1.367 . S
C225 C219 1.483 . S
C225 C226 1.382 . S
C225 C227 1.403 . S
C226 H199 0.950 . S
C226 C212 1.411 . S
C226 C225 1.382 . S
C227 C211 1.411 . S
C227 C225 1.403 . S
C227 C228 1.489 . S
C228 C227 1.489 . S
C228 C229 1.383 . S
C228 C233 1.382 . S
C229 H200 0.950 . S
C229 C228 1.383 . S
C229 C230 1.395 . S
C230 H201 0.950 . S
C230 C229 1.395 . S
C230 C231 1.288 . S
C231 C230 1.288 . S
C231 C232 1.392 . S
C232 H202 0.951 . S
C232 C231 1.392 . S
C232 C233 1.392 . S
C233 H203 0.949 . S
C233 C228 1.382 . S
C233 C232 1.392 . S
H234 C253 0.949 . S
H235 C254 0.950 . S
H236 C256 0.950 . S
H237 C257 0.950 . S
H238 C259 0.950 . S
H239 C262 0.950 . S
H240 C263 0.950 . S
H241 C265 0.951 . S
H242 C266 0.949 . S
H243 C268 0.949 . S
H244 C269 0.950 . S
H245 C271 0.950 . S
H246 C272 0.950 . S
H247 C274 0.950 . S
H248 C277 0.950 . S
H249 C278 0.950 . S
H250 C280 0.951 . S
H251 C281 0.949 . S
C252 C253 1.376 . S
C252 C257 1.386 . S
C252 C258 1.483 . S
C253 H234 0.949 . S
C253 C252 1.376 . S
C253 C254 1.397 . S
C254 H235 0.950 . S
C254 C253 1.397 . S
C254 C255 1.391 . S
C255 C254 1.391 . S
C255 C256 1.405 . S
C256 H236 0.950 . S
C256 C255 1.405 . S
C256 C257 1.367 . S
C257 H237 0.950 . S
C257 C252 1.386 . S
C257 C256 1.367 . S
C258 C252 1.483 . S
C258 C259 1.382 . S
C258 C260 1.403 . S
C259 H238 0.950 . S
C259 C258 1.382 . S
C259 C275 1.411 . S
C260 C258 1.403 . S
C260 C261 1.489 . S
C260 C274 1.411 . S
C261 C260 1.489 . S
C261 C262 1.383 . S
C261 C266 1.382 . S
C262 H239 0.950 . S
C262 C261 1.383 . S
C262 C263 1.395 . S
C263 H240 0.950 . S
C263 C262 1.395 . S
C263 C264 1.288 . S
C264 C263 1.288 . S
C264 C265 1.392 . S
C265 H241 0.951 . S
C265 C264 1.392 . S
C265 C266 1.392 . S
C266 H242 0.949 . S
C266 C261 1.382 . S
C266 C265 1.392 . S
C267 C268 1.376 . S
C267 C272 1.386 . S
C267 C273 1.483 . S
C268 H243 0.949 . S
C268 C267 1.376 . S
C268 C269 1.397 . S
C269 H244 0.950 . S
C269 C268 1.397 . S
C269 C270 1.391 . S
C270 C269 1.391 . S
C270 C271 1.405 . S
C271 H245 0.950 . S
C271 C270 1.405 . S
C271 C272 1.367 . S
C272 H246 0.950 . S
C272 C267 1.386 . S
C272 C271 1.367 . S
C273 C267 1.483 . S
C273 C274 1.382 . S
C273 C275 1.403 . S
C274 H247 0.950 . S
C274 C260 1.411 . S
C274 C273 1.382 . S
C275 C259 1.411 . S
C275 C273 1.403 . S
C275 C276 1.489 . S
C276 C275 1.489 . S
C276 C277 1.383 . S
C276 C281 1.382 . S
C277 H248 0.950 . S
C277 C276 1.383 . S
C277 C278 1.395 . S
C278 H249 0.950 . S
C278 C277 1.395 . S
C278 C279 1.288 . S
C279 C278 1.288 . S
C279 C280 1.392 . S
C280 H250 0.951 . S
C280 C279 1.392 . S
C280 C281 1.392 . S
C281 H251 0.949 . S
C281 C276 1.382 . S
C281 C280 1.392 . S
H282 C301 0.949 . S
H283 C302 0.950 . S
H284 C304 0.950 . S
H285 C305 0.950 . S
H286 C307 0.950 . S
H287 C310 0.950 . S
H288 C311 0.950 . S
H289 C313 0.951 . S
H290 C314 0.949 . S
H291 C316 0.949 . S
H292 C317 0.950 . S
H293 C319 0.950 . S
H294 C320 0.950 . S
H295 C322 0.950 . S
H296 C325 0.950 . S
H297 C326 0.950 . S
H298 C328 0.951 . S
H299 C329 0.949 . S
C300 C301 1.376 . S
C300 C305 1.386 . S
C300 C306 1.483 . S
C301 H282 0.949 . S
C301 C300 1.376 . S
C301 C302 1.397 . S
C302 H283 0.950 . S
C302 C301 1.397 . S
C302 C303 1.391 . S
C303 C302 1.391 . S
C303 C304 1.405 . S
C304 H284 0.950 . S
C304 C303 1.405 . S
C304 C305 1.367 . S
C305 H285 0.950 . S
C305 C300 1.386 . S
C305 C304 1.367 . S
C306 C300 1.483 . S
C306 C307 1.382 . S
C306 C308 1.403 . S
C307 H286 0.950 . S
C307 C306 1.382 . S
C307 C323 1.411 . S
C308 C306 1.403 . S
C308 C309 1.489 . S
C308 C322 1.411 . S
C309 C308 1.489 . S
C309 C310 1.383 . S
C309 C314 1.382 . S
C310 H287 0.950 . S
C310 C309 1.383 . S
C310 C311 1.395 . S
C311 H288 0.950 . S
C311 C310 1.395 . S
C311 C312 1.288 . S
C312 C311 1.288 . S
C312 C313 1.392 . S
C313 H289 0.951 . S
C313 C312 1.392 . S
C313 C314 1.392 . S
C314 H290 0.949 . S
C314 C309 1.382 . S
C314 C313 1.392 . S
C315 C316 1.376 . S
C315 C320 1.386 . S
C315 C321 1.483 . S
C316 H291 0.949 . S
C316 C315 1.376 . S
C316 C317 1.397 . S
C317 H292 0.950 . S
C317 C316 1.397 . S
C317 C318 1.391 . S
C318 C317 1.391 . S
C318 C319 1.405 . S
C319 H293 0.950 . S
C319 C318 1.405 . S
C319 C320 1.367 . S
C320 H294 0.950 . S
C320 C315 1.386 . S
C320 C319 1.367 . S
C321 C315 1.483 . S
C321 C322 1.382 . S
C321 C323 1.403 . S
C322 H295 0.950 . S
C322 C308 1.411 . S
C322 C321 1.382 . S
C323 C307 1.411 . S
C323 C321 1.403 . S
C323 C324 1.489 . S
C324 C323 1.489 . S
C324 C325 1.383 . S
C324 C329 1.382 . S
C325 H296 0.950 . S
C325 C324 1.383 . S
C325 C326 1.395 . S
C326 H297 0.950 . S
C326 C325 1.395 . S
C326 C327 1.288 . S
C327 C326 1.288 . S
C327 C328 1.392 . S
C328 H298 0.951 . S
C328 C327 1.392 . S
C328 C329 1.392 . S
C329 H299 0.949 . S
C329 C324 1.382 . S
C329 C328 1.392 . S
H330 C349 0.949 . S
H331 C350 0.950 . S
H332 C352 0.950 . S
H333 C353 0.950 . S
H334 C355 0.950 . S
H335 C358 0.950 . S
H336 C359 0.950 . S
H337 C361 0.951 . S
H338 C362 0.949 . S
H339 C364 0.949 . S
H340 C365 0.950 . S
H341 C367 0.950 . S
H342 C368 0.950 . S
H343 C370 0.950 . S
H344 C373 0.950 . S
H345 C374 0.950 . S
H346 C376 0.951 . S
H347 C377 0.949 . S
C348 C349 1.376 . S
C348 C353 1.386 . S
C348 C354 1.483 . S
C349 H330 0.949 . S
C349 C348 1.376 . S
C349 C350 1.397 . S
C350 H331 0.950 . S
C350 C349 1.397 . S
C350 C351 1.391 . S
C351 C350 1.391 . S
C351 C352 1.405 . S
C352 H332 0.950 . S
C352 C351 1.405 . S
C352 C353 1.367 . S
C353 H333 0.950 . S
C353 C348 1.386 . S
C353 C352 1.367 . S
C354 C348 1.483 . S
C354 C355 1.382 . S
C354 C356 1.403 . S
C355 H334 0.950 . S
C355 C354 1.382 . S
C355 C371 1.411 . S
C356 C354 1.403 . S
C356 C357 1.489 . S
C356 C370 1.411 . S
C357 C356 1.489 . S
C357 C358 1.383 . S
C357 C362 1.382 . S
C358 H335 0.950 . S
C358 C357 1.383 . S
C358 C359 1.395 . S
C359 H336 0.950 . S
C359 C358 1.395 . S
C359 C360 1.288 . S
C360 C359 1.288 . S
C360 C361 1.392 . S
C361 H337 0.951 . S
C361 C360 1.392 . S
C361 C362 1.392 . S
C362 H338 0.949 . S
C362 C357 1.382 . S
C362 C361 1.392 . S
C363 C364 1.376 . S
C363 C368 1.386 . S
C363 C369 1.483 . S
C364 H339 0.949 . S
C364 C363 1.376 . S
C364 C365 1.397 . S
C365 H340 0.950 . S
C365 C364 1.397 . S
C365 C366 1.391 . S
C366 C365 1.391 . S
C366 C367 1.405 . S
C367 H341 0.950 . S
C367 C366 1.405 . S
C367 C368 1.367 . S
C368 H342 0.950 . S
C368 C363 1.386 . S
C368 C367 1.367 . S
C369 C363 1.483 . S
C369 C370 1.382 . S
C369 C371 1.403 . S
C370 H343 0.950 . S
C370 C356 1.411 . S
C370 C369 1.382 . S
C371 C355 1.411 . S
C371 C369 1.403 . S
C371 C372 1.489 . S
C372 C371 1.489 . S
C372 C373 1.383 . S
C372 C377 1.382 . S
C373 H344 0.950 . S
C373 C372 1.383 . S
C373 C374 1.395 . S
C374 H345 0.950 . S
C374 C373 1.395 . S
C374 C375 1.288 . S
C375 C374 1.288 . S
C375 C376 1.392 . S
C376 H346 0.951 . S
C376 C375 1.392 . S
C376 C377 1.392 . S
C377 H347 0.949 . S
C377 C372 1.382 . S
C377 C376 1.392 . S
H378 C397 0.949 . S
H379 C398 0.950 . S
H380 C400 0.950 . S
H381 C401 0.950 . S
H382 C403 0.950 . S
H383 C406 0.950 . S
H384 C407 0.950 . S
H385 C409 0.951 . S
H386 C410 0.949 . S
H387 C412 0.949 . S
H388 C413 0.950 . S
H389 C415 0.950 . S
H390 C416 0.950 . S
H391 C418 0.950 . S
H392 C421 0.950 . S
H393 C422 0.950 . S
H394 C424 0.951 . S
H395 C425 0.949 . S
C396 C397 1.376 . S
C396 C401 1.386 . S
C396 C402 1.483 . S
C397 H378 0.949 . S
C397 C396 1.376 . S
C397 C398 1.397 . S
C398 H379 0.950 . S
C398 C397 1.397 . S
C398 C399 1.391 . S
C399 C398 1.391 . S
C399 C400 1.405 . S
C400 H380 0.950 . S
C400 C399 1.405 . S
C400 C401 1.367 . S
C401 H381 0.950 . S
C401 C396 1.386 . S
C401 C400 1.367 . S
C402 C396 1.483 . S
C402 C403 1.382 . S
C402 C404 1.403 . S
C403 H382 0.950 . S
C403 C402 1.382 . S
C403 C419 1.411 . S
C404 C402 1.403 . S
C404 C405 1.489 . S
C404 C418 1.411 . S
C405 C404 1.489 . S
C405 C406 1.383 . S
C405 C410 1.382 . S
C406 H383 0.950 . S
C406 C405 1.383 . S
C406 C407 1.395 . S
C407 H384 0.950 . S
C407 C406 1.395 . S
C407 C408 1.288 . S
C408 C407 1.288 . S
C408 C409 1.392 . S
C409 H385 0.951 . S
C409 C408 1.392 . S
C409 C410 1.392 . S
C410 H386 0.949 . S
C410 C405 1.382 . S
C410 C409 1.392 . S
C411 C412 1.376 . S
C411 C416 1.386 . S
C411 C417 1.483 . S
C412 H387 0.949 . S
C412 C411 1.376 . S
C412 C413 1.397 . S
C413 H388 0.950 . S
C413 C412 1.397 . S
C413 C414 1.391 . S
C414 C413 1.391 . S
C414 C415 1.405 . S
C415 H389 0.950 . S
C415 C414 1.405 . S
C415 C416 1.367 . S
C416 H390 0.950 . S
C416 C411 1.386 . S
C416 C415 1.367 . S
C417 C411 1.483 . S
C417 C418 1.382 . S
C417 C419 1.403 . S
C418 H391 0.950 . S
C418 C404 1.411 . S
C418 C417 1.382 . S
C419 C403 1.411 . S
C419 C417 1.403 . S
C419 C420 1.489 . S
C420 C419 1.489 . S
C420 C421 1.383 . S
C420 C425 1.382 . S
C421 H392 0.950 . S
C421 C420 1.383 . S
C421 C422 1.395 . S
C422 H393 0.950 . S
C422 C421 1.395 . S
C422 C423 1.288 . S
C423 C422 1.288 . S
C423 C424 1.392 . S
C424 H394 0.951 . S
C424 C423 1.392 . S
C424 C425 1.392 . S
C425 H395 0.949 . S
C425 C420 1.382 . S
C425 C424 1.392 . S
H426 C438 0.930 . S
H427 C440 0.930 . S
H428 C441 0.930 . S
H429 C445 0.959 . S
H430 C445 0.959 . S
H431 C445 0.961 . S
H432 C446 0.960 . S
H433 C446 0.961 . S
H434 C446 0.959 . S
H435 C449 0.929 . S
H436 C450 0.931 . S
H437 C452 0.930 . S
C438 H426 0.930 . S
C438 C439 1.399 . S
C438 C443 1.399 . S
C439 C438 1.399 . S
C439 C440 1.376 . S
C440 H427 0.930 . S
C440 C439 1.376 . S
C440 C441 1.388 . S
C441 H428 0.930 . S
C441 C440 1.388 . S
C441 C442 1.390 . S
C442 C441 1.390 . S
C442 C443 1.394 . S
C442 C448 1.465 . S
C443 C438 1.399 . S
C443 C442 1.394 . S
C443 C444 1.516 . S
C444 C443 1.516 . S
C444 C445 1.502 . S
C444 C446 1.561 . S
C444 C447 1.526 . S
C445 H429 0.959 . S
C445 H430 0.959 . S
C445 H431 0.961 . S
C445 C444 1.502 . S
C446 H432 0.960 . S
C446 H433 0.961 . S
C446 H434 0.959 . S
C446 C444 1.561 . S
C447 C444 1.526 . S
C447 C448 1.396 . S
C447 C452 1.390 . S
C448 C442 1.465 . S
C448 C447 1.396 . S
C448 C449 1.399 . S
C449 H435 0.929 . S
C449 C448 1.399 . S
C449 C450 1.385 . S
C450 H436 0.931 . S
C450 C449 1.385 . S
C450 C451 1.389 . S
C451 C450 1.389 . S
C451 C452 1.387 . S
C452 H437 0.930 . S
C452 C447 1.390 . S
C452 C451 1.387 . S
H453 C465 0.930 . S
H454 C467 0.930 . S
H455 C468 0.930 . S
H456 C472 0.959 . S
H457 C472 0.959 . S
H458 C472 0.961 . S
H459 C473 0.960 . S
H460 C473 0.961 . S
H461 C473 0.959 . S
H462 C476 0.929 . S
H463 C477 0.931 . S
H464 C479 0.930 . S
C465 H453 0.930 . S
C465 C466 1.399 . S
C465 C470 1.399 . S
C466 C465 1.399 . S
C466 C467 1.376 . S
C467 H454 0.930 . S
C467 C466 1.376 . S
C467 C468 1.388 . S
C468 H455 0.930 . S
C468 C467 1.388 . S
C468 C469 1.390 . S
C469 C468 1.390 . S
C469 C470 1.394 . S
C469 C475 1.465 . S
C470 C465 1.399 . S
C470 C469 1.394 . S
C470 C471 1.516 . S
C471 C470 1.516 . S
C471 C472 1.502 . S
C471 C473 1.561 . S
C471 C474 1.526 . S
C472 H456 0.959 . S
C472 H457 0.959 . S
C472 H458 0.961 . S
C472 C471 1.502 . S
C473 H459 0.960 . S
C473 H460 0.961 . S
C473 H461 0.959 . S
C473 C471 1.561 . S
C474 C471 1.526 . S
C474 C475 1.396 . S
C474 C479 1.390 . S
C475 C469 1.465 . S
C475 C474 1.396 . S
C475 C476 1.399 . S
C476 H462 0.929 . S
C476 C475 1.399 . S
C476 C477 1.385 . S
C477 H463 0.931 . S
C477 C476 1.385 . S
C477 C478 1.389 . S
C478 C477 1.389 . S
C478 C479 1.387 . S
C479 H464 0.930 . S
C479 C474 1.390 . S
C479 C478 1.387 . S
H480 C492 0.930 . S
H481 C494 0.930 . S
H482 C495 0.930 . S
H483 C499 0.959 . S
H484 C499 0.959 . S
H485 C499 0.961 . S
H486 C500 0.960 . S
H487 C500 0.961 . S
H488 C500 0.959 . S
H489 C503 0.929 . S
H490 C504 0.931 . S
H491 C506 0.930 . S
C492 H480 0.930 . S
C492 C493 1.399 . S
C492 C497 1.399 . S
C493 C492 1.399 . S
C493 C494 1.376 . S
C494 H481 0.930 . S
C494 C493 1.376 . S
C494 C495 1.388 . S
C495 H482 0.930 . S
C495 C494 1.388 . S
C495 C496 1.390 . S
C496 C495 1.390 . S
C496 C497 1.394 . S
C496 C502 1.465 . S
C497 C492 1.399 . S
C497 C496 1.394 . S
C497 C498 1.516 . S
C498 C497 1.516 . S
C498 C499 1.502 . S
C498 C500 1.561 . S
C498 C501 1.526 . S
C499 H483 0.959 . S
C499 H484 0.959 . S
C499 H485 0.961 . S
C499 C498 1.502 . S
C500 H486 0.960 . S
C500 H487 0.961 . S
C500 H488 0.959 . S
C500 C498 1.561 . S
C501 C498 1.526 . S
C501 C502 1.396 . S
C501 C506 1.390 . S
C502 C496 1.465 . S
C502 C501 1.396 . S
C502 C503 1.399 . S
C503 H489 0.929 . S
C503 C502 1.399 . S
C503 C504 1.385 . S
C504 H490 0.931 . S
C504 C503 1.385 . S
C504 C505 1.389 . S
C505 C504 1.389 . S
C505 C506 1.387 . S
C506 H491 0.930 . S
C506 C501 1.390 . S
C506 C505 1.387 . S
H507 C519 0.930 . S
H508 C521 0.930 . S
H509 C522 0.930 . S
H510 C526 0.959 . S
H511 C526 0.959 . S
H512 C526 0.961 . S
H513 C527 0.960 . S
H514 C527 0.961 . S
H515 C527 0.959 . S
H516 C530 0.929 . S
H517 C531 0.931 . S
H518 C533 0.930 . S
C519 H507 0.930 . S
C519 C520 1.399 . S
C519 C524 1.399 . S
C520 C519 1.399 . S
C520 C521 1.376 . S
C521 H508 0.930 . S
C521 C520 1.376 . S
C521 C522 1.388 . S
C522 H509 0.930 . S
C522 C521 1.388 . S
C522 C523 1.390 . S
C523 C522 1.390 . S
C523 C524 1.394 . S
C523 C529 1.465 . S
C524 C519 1.399 . S
C524 C523 1.394 . S
C524 C525 1.516 . S
C525 C524 1.516 . S
C525 C526 1.502 . S
C525 C527 1.561 . S
C525 C528 1.526 . S
C526 H510 0.959 . S
C526 H511 0.959 . S
C526 H512 0.961 . S
C526 C525 1.502 . S
C527 H513 0.960 . S
C527 H514 0.961 . S
C527 H515 0.959 . S
C527 C525 1.561 . S
C528 C525 1.526 . S
C528 C529 1.396 . S
C528 C533 1.390 . S
C529 C523 1.465 . S
C529 C528 1.396 . S
C529 C530 1.399 . S
C530 H516 0.929 . S
C530 C529 1.399 . S
C530 C531 1.385 . S
C531 H517 0.931 . S
C531 C530 1.385 . S
C531 C532 1.389 . S
C532 C531 1.389 . S
C532 C533 1.387 . S
C533 H518 0.930 . S
C533 C528 1.390 . S
C533 C532 1.387 . S
H534 C546 0.930 . S
H535 C548 0.930 . S
H536 C549 0.930 . S
H537 C553 0.959 . S
H538 C553 0.959 . S
H539 C553 0.961 . S
H540 C554 0.960 . S
H541 C554 0.961 . S
H542 C554 0.959 . S
H543 C557 0.929 . S
H544 C558 0.931 . S
H545 C560 0.930 . S
C546 H534 0.930 . S
C546 C547 1.399 . S
C546 C551 1.399 . S
C547 C546 1.399 . S
C547 C548 1.376 . S
C548 H535 0.930 . S
C548 C547 1.376 . S
C548 C549 1.388 . S
C549 H536 0.930 . S
C549 C548 1.388 . S
C549 C550 1.390 . S
C550 C549 1.390 . S
C550 C551 1.394 . S
C550 C556 1.465 . S
C551 C546 1.399 . S
C551 C550 1.394 . S
C551 C552 1.516 . S
C552 C551 1.516 . S
C552 C553 1.502 . S
C552 C554 1.561 . S
C552 C555 1.526 . S
C553 H537 0.959 . S
C553 H538 0.959 . S
C553 H539 0.961 . S
C553 C552 1.502 . S
C554 H540 0.960 . S
C554 H541 0.961 . S
C554 H542 0.959 . S
C554 C552 1.561 . S
C555 C552 1.526 . S
C555 C556 1.396 . S
C555 C560 1.390 . S
C556 C550 1.465 . S
C556 C555 1.396 . S
C556 C557 1.399 . S
C557 H543 0.929 . S
C557 C556 1.399 . S
C557 C558 1.385 . S
C558 H544 0.931 . S
C558 C557 1.385 . S
C558 C559 1.389 . S
C559 C558 1.389 . S
C559 C560 1.387 . S
C560 H545 0.930 . S
C560 C555 1.390 . S
C560 C559 1.387 . S
H561 C573 0.930 . S
H562 C575 0.930 . S
H563 C576 0.930 . S
H564 C580 0.959 . S
H565 C580 0.959 . S
H566 C580 0.961 . S
H567 C581 0.960 . S
H568 C581 0.961 . S
H569 C581 0.959 . S
H570 C584 0.929 . S
H571 C585 0.931 . S
H572 C587 0.930 . S
C573 H561 0.930 . S
C573 C574 1.399 . S
C573 C578 1.399 . S
C574 C573 1.399 . S
C574 C575 1.376 . S
C575 H562 0.930 . S
C575 C574 1.376 . S
C575 C576 1.388 . S
C576 H563 0.930 . S
C576 C575 1.388 . S
C576 C577 1.390 . S
C577 C576 1.390 . S
C577 C578 1.394 . S
C577 C583 1.465 . S
C578 C573 1.399 . S
C578 C577 1.394 . S
C578 C579 1.516 . S
C579 C578 1.516 . S
C579 C580 1.502 . S
C579 C581 1.561 . S
C579 C582 1.526 . S
C580 H564 0.959 . S
C580 H565 0.959 . S
C580 H566 0.961 . S
C580 C579 1.502 . S
C581 H567 0.960 . S
C581 H568 0.961 . S
C581 H569 0.959 . S
C581 C579 1.561 . S
C582 C579 1.526 . S
C582 C583 1.396 . S
C582 C587 1.390 . S
C583 C577 1.465 . S
C583 C582 1.396 . S
C583 C584 1.399 . S
C584 H570 0.929 . S
C584 C583 1.399 . S
C584 C585 1.385 . S
C585 H571 0.931 . S
C585 C584 1.385 . S
C585 C586 1.389 . S
C586 C585 1.389 . S
C586 C587 1.387 . S
C587 H572 0.930 . S
C587 C582 1.390 . S
C587 C586 1.387 . S
H588 C600 0.930 . S
H589 C602 0.930 . S
H590 C603 0.930 . S
H591 C607 0.959 . S
H592 C607 0.959 . S
H593 C607 0.961 . S
H594 C608 0.960 . S
H595 C608 0.961 . S
H596 C608 0.959 . S
H597 C611 0.929 . S
H598 C612 0.931 . S
H599 C614 0.930 . S
C600 H588 0.930 . S
C600 C601 1.399 . S
C600 C605 1.399 . S
C601 C600 1.399 . S
C601 C602 1.376 . S
C602 H589 0.930 . S
C602 C601 1.376 . S
C602 C603 1.388 . S
C603 H590 0.930 . S
C603 C602 1.388 . S
C603 C604 1.390 . S
C604 C603 1.390 . S
C604 C605 1.394 . S
C604 C610 1.465 . S
C605 C600 1.399 . S
C605 C604 1.394 . S
C605 C606 1.516 . S
C606 C605 1.516 . S
C606 C607 1.502 . S
C606 C608 1.561 . S
C606 C609 1.526 . S
C607 H591 0.959 . S
C607 H592 0.959 . S
C607 H593 0.961 . S
C607 C606 1.502 . S
C608 H594 0.960 . S
C608 H595 0.961 . S
C608 H596 0.959 . S
C608 C606 1.561 . S
C609 C606 1.526 . S
C609 C610 1.396 . S
C609 C614 1.390 . S
C610 C604 1.465 . S
C610 C609 1.396 . S
C610 C611 1.399 . S
C611 H597 0.929 . S
C611 C610 1.399 . S
C611 C612 1.385 . S
C612 H598 0.931 . S
C612 C611 1.385 . S
C612 C613 1.389 . S
C613 C612 1.389 . S
C613 C614 1.387 . S
C614 H599 0.930 . S
C614 C609 1.390 . S
C614 C613 1.387 . S
H615 C627 0.930 . S
H616 C629 0.930 . S
H617 C630 0.930 . S
H618 C634 0.959 . S
H619 C634 0.959 . S
H620 C634 0.961 . S
H621 C635 0.960 . S
H622 C635 0.961 . S
H623 C635 0.959 . S
H624 C638 0.929 . S
H625 C639 0.931 . S
H626 C641 0.930 . S
C627 H615 0.930 . S
C627 C628 1.399 . S
C627 C632 1.399 . S
C628 C627 1.399 . S
C628 C629 1.376 . S
C629 H616 0.930 . S
C629 C628 1.376 . S
C629 C630 1.388 . S
C630 H617 0.930 . S
C630 C629 1.388 . S
C630 C631 1.390 . S
C631 C630 1.390 . S
C631 C632 1.394 . S
C631 C637 1.465 . S
C632 C627 1.399 . S
C632 C631 1.394 . S
C632 C633 1.516 . S
C633 C632 1.516 . S
C633 C634 1.502 . S
C633 C635 1.561 . S
C633 C636 1.526 . S
C634 H618 0.959 . S
C634 H619 0.959 . S
C634 H620 0.961 . S
C634 C633 1.502 . S
C635 H621 0.960 . S
C635 H622 0.961 . S
C635 H623 0.959 . S
C635 C633 1.561 . S
C636 C633 1.526 . S
C636 C637 1.396 . S
C636 C641 1.390 . S
C637 C631 1.465 . S
C637 C636 1.396 . S
C637 C638 1.399 . S
C638 H624 0.929 . S
C638 C637 1.399 . S
C638 C639 1.385 . S
C639 H625 0.931 . S
C639 C638 1.385 . S
C639 C640 1.389 . S
C640 C639 1.389 . S
C640 C641 1.387 . S
C641 H626 0.930 . S
C641 C636 1.390 . S
C641 C640 1.387 . S
H642 C654 0.930 . S
H643 C656 0.930 . S
H644 C657 0.930 . S
H645 C661 0.959 . S
H646 C661 0.959 . S
H647 C661 0.961 . S
H648 C662 0.960 . S
H649 C662 0.961 . S
H650 C662 0.959 . S
H651 C665 0.929 . S
H652 C666 0.931 . S
H653 C668 0.930 . S
C654 H642 0.930 . S
C654 C655 1.399 . S
C654 C659 1.399 . S
C655 C654 1.399 . S
C655 C656 1.376 . S
C656 H643 0.930 . S
C656 C655 1.376 . S
C656 C657 1.388 . S
C657 H644 0.930 . S
C657 C656 1.388 . S
C657 C658 1.390 . S
C658 C657 1.390 . S
C658 C659 1.394 . S
C658 C664 1.465 . S
C659 C654 1.399 . S
C659 C658 1.394 . S
C659 C660 1.516 . S
C660 C659 1.516 . S
C660 C661 1.502 . S
C660 C662 1.561 . S
C660 C663 1.526 . S
C661 H645 0.959 . S
C661 H646 0.959 . S
C661 H647 0.961 . S
C661 C660 1.502 . S
C662 H648 0.960 . S
C662 H649 0.961 . S
C662 H650 0.959 . S
C662 C660 1.561 . S
C663 C660 1.526 . S
C663 C664 1.396 . S
C663 C668 1.390 . S
C664 C658 1.465 . S
C664 C663 1.396 . S
C664 C665 1.399 . S
C665 H651 0.929 . S
C665 C664 1.399 . S
C665 C666 1.385 . S
C666 H652 0.931 . S
C666 C665 1.385 . S
C666 C667 1.389 . S
C667 C666 1.389 . S
C667 C668 1.387 . S
C668 H653 0.930 . S
C668 C663 1.390 . S
C668 C667 1.387 . S
H669 C681 0.930 . S
H670 C683 0.930 . S
H671 C684 0.930 . S
H672 C688 0.959 . S
H673 C688 0.959 . S
H674 C688 0.961 . S
H675 C689 0.960 . S
H676 C689 0.961 . S
H677 C689 0.959 . S
H678 C692 0.929 . S
H679 C693 0.931 . S
H680 C695 0.930 . S
C681 H669 0.930 . S
C681 C682 1.399 . S
C681 C686 1.399 . S
C682 C681 1.399 . S
C682 C683 1.376 . S
C683 H670 0.930 . S
C683 C682 1.376 . S
C683 C684 1.388 . S
C684 H671 0.930 . S
C684 C683 1.388 . S
C684 C685 1.390 . S
C685 C684 1.390 . S
C685 C686 1.394 . S
C685 C691 1.465 . S
C686 C681 1.399 . S
C686 C685 1.394 . S
C686 C687 1.516 . S
C687 C686 1.516 . S
C687 C688 1.502 . S
C687 C689 1.561 . S
C687 C690 1.526 . S
C688 H672 0.959 . S
C688 H673 0.959 . S
C688 H674 0.961 . S
C688 C687 1.502 . S
C689 H675 0.960 . S
C689 H676 0.961 . S
C689 H677 0.959 . S
C689 C687 1.561 . S
C690 C687 1.526 . S
C690 C691 1.396 . S
C690 C695 1.390 . S
C691 C685 1.465 . S
C691 C690 1.396 . S
C691 C692 1.399 . S
C692 H678 0.929 . S
C692 C691 1.399 . S
C692 C693 1.385 . S
C693 H679 0.931 . S
C693 C692 1.385 . S
C693 C694 1.389 . S
C694 C693 1.389 . S
C694 C695 1.387 . S
C695 H680 0.930 . S
C695 C690 1.390 . S
C695 C694 1.387 . S
H696 C708 0.930 . S
H697 C710 0.930 . S
H698 C711 0.930 . S
H699 C715 0.959 . S
H700 C715 0.959 . S
H701 C715 0.961 . S
H702 C716 0.960 . S
H703 C716 0.961 . S
H704 C716 0.959 . S
H705 C719 0.929 . S
H706 C720 0.931 . S
H707 C722 0.930 . S
C708 H696 0.930 . S
C708 C709 1.399 . S
C708 C713 1.399 . S
C709 C708 1.399 . S
C709 C710 1.376 . S
C710 H697 0.930 . S
C710 C709 1.376 . S
C710 C711 1.388 . S
C711 H698 0.930 . S
C711 C710 1.388 . S
C711 C712 1.390 . S
C712 C711 1.390 . S
C712 C713 1.394 . S
C712 C718 1.465 . S
C713 C708 1.399 . S
C713 C712 1.394 . S
C713 C714 1.516 . S
C714 C713 1.516 . S
C714 C715 1.502 . S
C714 C716 1.561 . S
C714 C717 1.526 . S
C715 H699 0.959 . S
C715 H700 0.959 . S
C715 H701 0.961 . S
C715 C714 1.502 . S
C716 H702 0.960 . S
C716 H703 0.961 . S
C716 H704 0.959 . S
C716 C714 1.561 . S
C717 C714 1.526 . S
C717 C718 1.396 . S
C717 C722 1.390 . S
C718 C712 1.465 . S
C718 C717 1.396 . S
C718 C719 1.399 . S
C719 H705 0.929 . S
C719 C718 1.399 . S
C719 C720 1.385 . S
C720 H706 0.931 . S
C720 C719 1.385 . S
C720 C721 1.389 . S
C721 C720 1.389 . S
C721 C722 1.387 . S
C722 H707 0.930 . S
C722 C717 1.390 . S
C722 C721 1.387 . S
H723 C735 0.930 . S
H724 C737 0.930 . S
H725 C738 0.930 . S
H726 C742 0.959 . S
H727 C742 0.959 . S
H728 C742 0.961 . S
H729 C743 0.960 . S
H730 C743 0.961 . S
H731 C743 0.959 . S
H732 C746 0.929 . S
H733 C747 0.931 . S
H734 C749 0.930 . S
C735 H723 0.930 . S
C735 C736 1.399 . S
C735 C740 1.399 . S
C736 C735 1.399 . S
C736 C737 1.376 . S
C737 H724 0.930 . S
C737 C736 1.376 . S
C737 C738 1.388 . S
C738 H725 0.930 . S
C738 C737 1.388 . S
C738 C739 1.390 . S
C739 C738 1.390 . S
C739 C740 1.394 . S
C739 C745 1.465 . S
C740 C735 1.399 . S
C740 C739 1.394 . S
C740 C741 1.516 . S
C741 C740 1.516 . S
C741 C742 1.502 . S
C741 C743 1.561 . S
C741 C744 1.526 . S
C742 H726 0.959 . S
C742 H727 0.959 . S
C742 H728 0.961 . S
C742 C741 1.502 . S
C743 H729 0.960 . S
C743 H730 0.961 . S
C743 H731 0.959 . S
C743 C741 1.561 . S
C744 C741 1.526 . S
C744 C745 1.396 . S
C744 C749 1.390 . S
C745 C739 1.465 . S
C745 C744 1.396 . S
C745 C746 1.399 . S
C746 H732 0.929 . S
C746 C745 1.399 . S
C746 C747 1.385 . S
C747 H733 0.931 . S
C747 C746 1.385 . S
C747 C748 1.389 . S
C748 C747 1.389 . S
C748 C749 1.387 . S
C749 H734 0.930 . S
C749 C744 1.390 . S
C749 C748 1.387 . S
H750 C762 0.930 . S
H751 C764 0.930 . S
H752 C765 0.930 . S
H753 C769 0.959 . S
H754 C769 0.959 . S
H755 C769 0.961 . S
H756 C770 0.960 . S
H757 C770 0.961 . S
H758 C770 0.959 . S
H759 C773 0.929 . S
H760 C774 0.931 . S
H761 C776 0.930 . S
C762 H750 0.930 . S
C762 C763 1.399 . S
C762 C767 1.399 . S
C763 C762 1.399 . S
C763 C764 1.376 . S
C764 H751 0.930 . S
C764 C763 1.376 . S
C764 C765 1.388 . S
C765 H752 0.930 . S
C765 C764 1.388 . S
C765 C766 1.390 . S
C766 C765 1.390 . S
C766 C767 1.394 . S
C766 C772 1.465 . S
C767 C762 1.399 . S
C767 C766 1.394 . S
C767 C768 1.516 . S
C768 C767 1.516 . S
C768 C769 1.502 . S
C768 C770 1.561 . S
C768 C771 1.526 . S
C769 H753 0.959 . S
C769 H754 0.959 . S
C769 H755 0.961 . S
C769 C768 1.502 . S
C770 H756 0.960 . S
C770 H757 0.961 . S
C770 H758 0.959 . S
C770 C768 1.561 . S
C771 C768 1.526 . S
C771 C772 1.396 . S
C771 C776 1.390 . S
C772 C766 1.465 . S
C772 C771 1.396 . S
C772 C773 1.399 . S
C773 H759 0.929 . S
C773 C772 1.399 . S
C773 C774 1.385 . S
C774 H760 0.931 . S
C774 C773 1.385 . S
C774 C775 1.389 . S
C775 C774 1.389 . S
C775 C776 1.387 . S
C776 H761 0.930 . S
C776 C771 1.390 . S
C776 C775 1.387 . S
H777 C789 0.930 . S
H778 C791 0.930 . S
H779 C792 0.930 . S
H780 C796 0.959 . S
H781 C796 0.959 . S
H782 C796 0.961 . S
H783 C797 0.960 . S
H784 C797 0.961 . S
H785 C797 0.959 . S
H786 C800 0.929 . S
H787 C801 0.931 . S
H788 C803 0.930 . S
C789 H777 0.930 . S
C789 C790 1.399 . S
C789 C794 1.399 . S
C790 C789 1.399 . S
C790 C791 1.376 . S
C791 H778 0.930 . S
C791 C790 1.376 . S
C791 C792 1.388 . S
C792 H779 0.930 . S
C792 C791 1.388 . S
C792 C793 1.390 . S
C793 C792 1.390 . S
C793 C794 1.394 . S
C793 C799 1.465 . S
C794 C789 1.399 . S
C794 C793 1.394 . S
C794 C795 1.516 . S
C795 C794 1.516 . S
C795 C796 1.502 . S
C795 C797 1.561 . S
C795 C798 1.526 . S
C796 H780 0.959 . S
C796 H781 0.959 . S
C796 H782 0.961 . S
C796 C795 1.502 . S
C797 H783 0.960 . S
C797 H784 0.961 . S
C797 H785 0.959 . S
C797 C795 1.561 . S
C798 C795 1.526 . S
C798 C799 1.396 . S
C798 C803 1.390 . S
C799 C793 1.465 . S
C799 C798 1.396 . S
C799 C800 1.399 . S
C800 H786 0.929 . S
C800 C799 1.399 . S
C800 C801 1.385 . S
C801 H787 0.931 . S
C801 C800 1.385 . S
C801 C802 1.389 . S
C802 C801 1.389 . S
C802 C803 1.387 . S
C803 H788 0.930 . S
C803 C798 1.390 . S
C803 C802 1.387 . S
H804 C816 0.930 . S
H805 C818 0.930 . S
H806 C819 0.930 . S
H807 C823 0.959 . S
H808 C823 0.959 . S
H809 C823 0.961 . S
H810 C824 0.960 . S
H811 C824 0.961 . S
H812 C824 0.959 . S
H813 C827 0.929 . S
H814 C828 0.931 . S
H815 C830 0.930 . S
C816 H804 0.930 . S
C816 C817 1.399 . S
C816 C821 1.399 . S
C817 C816 1.399 . S
C817 C818 1.376 . S
C818 H805 0.930 . S
C818 C817 1.376 . S
C818 C819 1.388 . S
C819 H806 0.930 . S
C819 C818 1.388 . S
C819 C820 1.390 . S
C820 C819 1.390 . S
C820 C821 1.394 . S
C820 C826 1.465 . S
C821 C816 1.399 . S
C821 C820 1.394 . S
C821 C822 1.516 . S
C822 C821 1.516 . S
C822 C823 1.502 . S
C822 C824 1.561 . S
C822 C825 1.526 . S
C823 H807 0.959 . S
C823 H808 0.959 . S
C823 H809 0.961 . S
C823 C822 1.502 . S
C824 H810 0.960 . S
C824 H811 0.961 . S
C824 H812 0.959 . S
C824 C822 1.561 . S
C825 C822 1.526 . S
C825 C826 1.396 . S
C825 C830 1.390 . S
C826 C820 1.465 . S
C826 C825 1.396 . S
C826 C827 1.399 . S
C827 H813 0.929 . S
C827 C826 1.399 . S
C827 C828 1.385 . S
C828 H814 0.931 . S
C828 C827 1.385 . S
C828 C829 1.389 . S
C829 C828 1.389 . S
C829 C830 1.387 . S
C830 H815 0.930 . S
C830 C825 1.390 . S
C830 C829 1.387 . S
H831 C843 0.930 . S
H832 C845 0.930 . S
H833 C846 0.930 . S
H834 C850 0.959 . S
H835 C850 0.959 . S
H836 C850 0.961 . S
H837 C851 0.960 . S
H838 C851 0.961 . S
H839 C851 0.959 . S
H840 C854 0.929 . S
H841 C855 0.931 . S
H842 C857 0.930 . S
C843 H831 0.930 . S
C843 C844 1.399 . S
C843 C848 1.399 . S
C844 C843 1.399 . S
C844 C845 1.376 . S
C845 H832 0.930 . S
C845 C844 1.376 . S
C845 C846 1.388 . S
C846 H833 0.930 . S
C846 C845 1.388 . S
C846 C847 1.390 . S
C847 C846 1.390 . S
C847 C848 1.394 . S
C847 C853 1.465 . S
C848 C843 1.399 . S
C848 C847 1.394 . S
C848 C849 1.516 . S
C849 C848 1.516 . S
C849 C850 1.502 . S
C849 C851 1.561 . S
C849 C852 1.526 . S
C850 H834 0.959 . S
C850 H835 0.959 . S
C850 H836 0.961 . S
C850 C849 1.502 . S
C851 H837 0.960 . S
C851 H838 0.961 . S
C851 H839 0.959 . S
C851 C849 1.561 . S
C852 C849 1.526 . S
C852 C853 1.396 . S
C852 C857 1.390 . S
C853 C847 1.465 . S
C853 C852 1.396 . S
C853 C854 1.399 . S
C854 H840 0.929 . S
C854 C853 1.399 . S
C854 C855 1.385 . S
C855 H841 0.931 . S
C855 C854 1.385 . S
C855 C856 1.389 . S
C856 C855 1.389 . S
C856 C857 1.387 . S
C857 H842 0.930 . S
C857 C852 1.390 . S
C857 C856 1.387 . S
H858 C870 0.930 . S
H859 C872 0.930 . S
H860 C873 0.930 . S
H861 C877 0.959 . S
H862 C877 0.959 . S
H863 C877 0.961 . S
H864 C878 0.960 . S
H865 C878 0.961 . S
H866 C878 0.959 . S
H867 C881 0.929 . S
H868 C882 0.931 . S
H869 C884 0.930 . S
C870 H858 0.930 . S
C870 C871 1.399 . S
C870 C875 1.399 . S
C871 C870 1.399 . S
C871 C872 1.376 . S
C872 H859 0.930 . S
C872 C871 1.376 . S
C872 C873 1.388 . S
C873 H860 0.930 . S
C873 C872 1.388 . S
C873 C874 1.390 . S
C874 C873 1.390 . S
C874 C875 1.394 . S
C874 C880 1.465 . S
C875 C870 1.399 . S
C875 C874 1.394 . S
C875 C876 1.516 . S
C876 C875 1.516 . S
C876 C877 1.502 . S
C876 C878 1.561 . S
C876 C879 1.526 . S
C877 H861 0.959 . S
C877 H862 0.959 . S
C877 H863 0.961 . S
C877 C876 1.502 . S
C878 H864 0.960 . S
C878 H865 0.961 . S
C878 H866 0.959 . S
C878 C876 1.561 . S
C879 C876 1.526 . S
C879 C880 1.396 . S
C879 C884 1.390 . S
C880 C874 1.465 . S
C880 C879 1.396 . S
C880 C881 1.399 . S
C881 H867 0.929 . S
C881 C880 1.399 . S
C881 C882 1.385 . S
C882 H868 0.931 . S
C882 C881 1.385 . S
C882 C883 1.389 . S
C883 C882 1.389 . S
C883 C884 1.387 . S
C884 H869 0.930 . S
C884 C879 1.390 . S
C884 C883 1.387 . S
H885 C897 0.930 . S
H886 C899 0.930 . S
H887 C900 0.930 . S
H888 C904 0.959 . S
H889 C904 0.959 . S
H890 C904 0.961 . S
H891 C905 0.960 . S
H892 C905 0.961 . S
H893 C905 0.959 . S
H894 C908 0.929 . S
H895 C909 0.931 . S
H896 C911 0.930 . S
C897 H885 0.930 . S
C897 C898 1.399 . S
C897 C902 1.399 . S
C898 C897 1.399 . S
C898 C899 1.376 . S
C899 H886 0.930 . S
C899 C898 1.376 . S
C899 C900 1.388 . S
C900 H887 0.930 . S
C900 C899 1.388 . S
C900 C901 1.390 . S
C901 C900 1.390 . S
C901 C902 1.394 . S
C901 C907 1.465 . S
C902 C897 1.399 . S
C902 C901 1.394 . S
C902 C903 1.516 . S
C903 C902 1.516 . S
C903 C904 1.502 . S
C903 C905 1.561 . S
C903 C906 1.526 . S
C904 H888 0.959 . S
C904 H889 0.959 . S
C904 H890 0.961 . S
C904 C903 1.502 . S
C905 H891 0.960 . S
C905 H892 0.961 . S
C905 H893 0.959 . S
C905 C903 1.561 . S
C906 C903 1.526 . S
C906 C907 1.396 . S
C906 C911 1.390 . S
C907 C901 1.465 . S
C907 C906 1.396 . S
C907 C908 1.399 . S
C908 H894 0.929 . S
C908 C907 1.399 . S
C908 C909 1.385 . S
C909 H895 0.931 . S
C909 C908 1.385 . S
C909 C910 1.389 . S
C910 C909 1.389 . S
C910 C911 1.387 . S
C911 H896 0.930 . S
C911 C906 1.390 . S
C911 C910 1.387 . S
H912 C924 0.930 . S
H913 C926 0.930 . S
H914 C927 0.930 . S
H915 C931 0.959 . S
H916 C931 0.959 . S
H917 C931 0.961 . S
H918 C932 0.960 . S
H919 C932 0.961 . S
H920 C932 0.959 . S
H921 C935 0.929 . S
H922 C936 0.931 . S
H923 C938 0.930 . S
C924 H912 0.930 . S
C924 C925 1.399 . S
C924 C929 1.399 . S
C925 C924 1.399 . S
C925 C926 1.376 . S
C926 H913 0.930 . S
C926 C925 1.376 . S
C926 C927 1.388 . S
C927 H914 0.930 . S
C927 C926 1.388 . S
C927 C928 1.390 . S
C928 C927 1.390 . S
C928 C929 1.394 . S
C928 C934 1.465 . S
C929 C924 1.399 . S
C929 C928 1.394 . S
C929 C930 1.516 . S
C930 C929 1.516 . S
C930 C931 1.502 . S
C930 C932 1.561 . S
C930 C933 1.526 . S
C931 H915 0.959 . S
C931 H916 0.959 . S
C931 H917 0.961 . S
C931 C930 1.502 . S
C932 H918 0.960 . S
C932 H919 0.961 . S
C932 H920 0.959 . S
C932 C930 1.561 . S
C933 C930 1.526 . S
C933 C934 1.396 . S
C933 C938 1.390 . S
C934 C928 1.465 . S
C934 C933 1.396 . S
C934 C935 1.399 . S
C935 H921 0.929 . S
C935 C934 1.399 . S
C935 C936 1.385 . S
C936 H922 0.931 . S
C936 C935 1.385 . S
C936 C937 1.389 . S
C937 C936 1.389 . S
C937 C938 1.387 . S
C938 H923 0.930 . S
C938 C933 1.390 . S
C938 C937 1.387 . S
H939 C951 0.930 . S
H940 C953 0.930 . S
H941 C954 0.930 . S
H942 C958 0.959 . S
H943 C958 0.959 . S
H944 C958 0.961 . S
H945 C959 0.960 . S
H946 C959 0.961 . S
H947 C959 0.959 . S
H948 C962 0.929 . S
H949 C963 0.931 . S
H950 C965 0.930 . S
C951 H939 0.930 . S
C951 C952 1.399 . S
C951 C956 1.399 . S
C952 C951 1.399 . S
C952 C953 1.376 . S
C953 H940 0.930 . S
C953 C952 1.376 . S
C953 C954 1.388 . S
C954 H941 0.930 . S
C954 C953 1.388 . S
C954 C955 1.390 . S
C955 C954 1.390 . S
C955 C956 1.394 . S
C955 C961 1.465 . S
C956 C951 1.399 . S
C956 C955 1.394 . S
C956 C957 1.516 . S
C957 C956 1.516 . S
C957 C958 1.502 . S
C957 C959 1.561 . S
C957 C960 1.526 . S
C958 H942 0.959 . S
C958 H943 0.959 . S
C958 H944 0.961 . S
C958 C957 1.502 . S
C959 H945 0.960 . S
C959 H946 0.961 . S
C959 H947 0.959 . S
C959 C957 1.561 . S
C960 C957 1.526 . S
C960 C961 1.396 . S
C960 C965 1.390 . S
C961 C955 1.465 . S
C961 C960 1.396 . S
C961 C962 1.399 . S
C962 H948 0.929 . S
C962 C961 1.399 . S
C962 C963 1.385 . S
C963 H949 0.931 . S
C963 C962 1.385 . S
C963 C964 1.389 . S
C964 C963 1.389 . S
C964 C965 1.387 . S
C965 H950 0.930 . S
C965 C960 1.390 . S
C965 C964 1.387 . S
H966 C978 0.930 . S
H967 C980 0.930 . S
H968 C981 0.930 . S
H969 C985 0.959 . S
H970 C985 0.959 . S
H971 C985 0.961 . S
H972 C986 0.960 . S
H973 C986 0.961 . S
H974 C986 0.959 . S
H975 C989 0.929 . S
H976 C990 0.931 . S
H977 C992 0.930 . S
C978 H966 0.930 . S
C978 C979 1.399 . S
C978 C983 1.399 . S
C979 C978 1.399 . S
C979 C980 1.376 . S
C980 H967 0.930 . S
C980 C979 1.376 . S
C980 C981 1.388 . S
C981 H968 0.930 . S
C981 C980 1.388 . S
C981 C982 1.390 . S
C982 C981 1.390 . S
C982 C983 1.394 . S
C982 C988 1.465 . S
C983 C978 1.399 . S
C983 C982 1.394 . S
C983 C984 1.516 . S
C984 C983 1.516 . S
C984 C985 1.502 . S
C984 C986 1.561 . S
C984 C987 1.526 . S
C985 H969 0.959 . S
C985 H970 0.959 . S
C985 H971 0.961 . S
C985 C984 1.502 . S
C986 H972 0.960 . S
C986 H973 0.961 . S
C986 H974 0.959 . S
C986 C984 1.561 . S
C987 C984 1.526 . S
C987 C988 1.396 . S
C987 C992 1.390 . S
C988 C982 1.465 . S
C988 C987 1.396 . S
C988 C989 1.399 . S
C989 H975 0.929 . S
C989 C988 1.399 . S
C989 C990 1.385 . S
C990 H976 0.931 . S
C990 C989 1.385 . S
C990 C991 1.389 . S
C991 C990 1.389 . S
C991 C992 1.387 . S
C992 H977 0.930 . S
C992 C987 1.390 . S
C992 C991 1.387 . S
H993 C1005 0.930 . S
H994 C1007 0.930 . S
H995 C1008 0.930 . S
H996 C1012 0.959 . S
H997 C1012 0.959 . S
H998 C1012 0.961 . S
H999 C1013 0.960 . S
H1000 C1013 0.961 . S
H1001 C1013 0.959 . S
H1002 C1016 0.929 . S
H1003 C1017 0.931 . S
H1004 C1019 0.930 . S
C1005 H993 0.930 . S
C1005 C1006 1.399 . S
C1005 C1010 1.399 . S
C1006 C1005 1.399 . S
C1006 C1007 1.376 . S
C1007 H994 0.930 . S
C1007 C1006 1.376 . S
C1007 C1008 1.388 . S
C1008 H995 0.930 . S
C1008 C1007 1.388 . S
C1008 C1009 1.390 . S
C1009 C1008 1.390 . S
C1009 C1010 1.394 . S
C1009 C1015 1.465 . S
C1010 C1005 1.399 . S
C1010 C1009 1.394 . S
C1010 C1011 1.516 . S
C1011 C1010 1.516 . S
C1011 C1012 1.502 . S
C1011 C1013 1.561 . S
C1011 C1014 1.526 . S
C1012 H996 0.959 . S
C1012 H997 0.959 . S
C1012 H998 0.961 . S
C1012 C1011 1.502 . S
C1013 H999 0.960 . S
C1013 H1000 0.961 . S
C1013 H1001 0.959 . S
C1013 C1011 1.561 . S
C1014 C1011 1.526 . S
C1014 C1015 1.396 . S
C1014 C1019 1.390 . S
C1015 C1009 1.465 . S
C1015 C1014 1.396 . S
C1015 C1016 1.399 . S
C1016 H1002 0.929 . S
C1016 C1015 1.399 . S
C1016 C1017 1.385 . S
C1017 H1003 0.931 . S
C1017 C1016 1.385 . S
C1017 C1018 1.389 . S
C1018 C1017 1.389 . S
C1018 C1019 1.387 . S
C1019 H1004 0.930 . S
C1019 C1014 1.390 . S
C1019 C1018 1.387 . S
H1020 C1032 0.930 . S
H1021 C1034 0.930 . S
H1022 C1035 0.930 . S
H1023 C1039 0.959 . S
H1024 C1039 0.959 . S
H1025 C1039 0.961 . S
H1026 C1040 0.960 . S
H1027 C1040 0.961 . S
H1028 C1040 0.959 . S
H1029 C1043 0.929 . S
H1030 C1044 0.931 . S
H1031 C1046 0.930 . S
C1032 H1020 0.930 . S
C1032 C1033 1.399 . S
C1032 C1037 1.399 . S
C1033 C1032 1.399 . S
C1033 C1034 1.376 . S
C1034 H1021 0.930 . S
C1034 C1033 1.376 . S
C1034 C1035 1.388 . S
C1035 H1022 0.930 . S
C1035 C1034 1.388 . S
C1035 C1036 1.390 . S
C1036 C1035 1.390 . S
C1036 C1037 1.394 . S
C1036 C1042 1.465 . S
C1037 C1032 1.399 . S
C1037 C1036 1.394 . S
C1037 C1038 1.516 . S
C1038 C1037 1.516 . S
C1038 C1039 1.502 . S
C1038 C1040 1.561 . S
C1038 C1041 1.526 . S
C1039 H1023 0.959 . S
C1039 H1024 0.959 . S
C1039 H1025 0.961 . S
C1039 C1038 1.502 . S
C1040 H1026 0.960 . S
C1040 H1027 0.961 . S
C1040 H1028 0.959 . S
C1040 C1038 1.561 . S
C1041 C1038 1.526 . S
C1041 C1042 1.396 . S
C1041 C1046 1.390 . S
C1042 C1036 1.465 . S
C1042 C1041 1.396 . S
C1042 C1043 1.399 . S
C1043 H1029 0.929 . S
C1043 C1042 1.399 . S
C1043 C1044 1.385 . S
C1044 H1030 0.931 . S
C1044 C1043 1.385 . S
C1044 C1045 1.389 . S
C1045 C1044 1.389 . S
C1045 C1046 1.387 . S
C1046 H1031 0.930 . S
C1046 C1041 1.390 . S
C1046 C1045 1.387 . S
H1047 C1059 0.930 . S
H1048 C1061 0.930 . S
H1049 C1062 0.930 . S
H1050 C1066 0.959 . S
H1051 C1066 0.959 . S
H1052 C1066 0.961 . S
H1053 C1067 0.960 . S
H1054 C1067 0.961 . S
H1055 C1067 0.959 . S
H1056 C1070 0.929 . S
H1057 C1071 0.931 . S
H1058 C1073 0.930 . S
C1059 H1047 0.930 . S
C1059 C1060 1.399 . S
C1059 C1064 1.399 . S
C1060 C1059 1.399 . S
C1060 C1061 1.376 . S
C1061 H1048 0.930 . S
C1061 C1060 1.376 . S
C1061 C1062 1.388 . S
C1062 H1049 0.930 . S
C1062 C1061 1.388 . S
C1062 C1063 1.390 . S
C1063 C1062 1.390 . S
C1063 C1064 1.394 . S
C1063 C1069 1.465 . S
C1064 C1059 1.399 . S
C1064 C1063 1.394 . S
C1064 C1065 1.516 . S
C1065 C1064 1.516 . S
C1065 C1066 1.502 . S
C1065 C1067 1.561 . S
C1065 C1068 1.526 . S
C1066 H1050 0.959 . S
C1066 H1051 0.959 . S
C1066 H1052 0.961 . S
C1066 C1065 1.502 . S
C1067 H1053 0.960 . S
C1067 H1054 0.961 . S
C1067 H1055 0.959 . S
C1067 C1065 1.561 . S
C1068 C1065 1.526 . S
C1068 C1069 1.396 . S
C1068 C1073 1.390 . S
C1069 C1063 1.465 . S
C1069 C1068 1.396 . S
C1069 C1070 1.399 . S
C1070 H1056 0.929 . S
C1070 C1069 1.399 . S
C1070 C1071 1.385 . S
C1071 H1057 0.931 . S
C1071 C1070 1.385 . S
C1071 C1072 1.389 . S
C1072 C1071 1.389 . S
C1072 C1073 1.387 . S
C1073 H1058 0.930 . S
C1073 C1068 1.390 . S
C1073 C1072 1.387 . S
C439 C7 1.845 . S
C451 C159 1.858 . S
C466 C30 1.609 . S
C478 C216 1.630 . S
C505 C270 1.745 . S
C493 N58 1.664 . S
C532 C327 1.456 . S
C520 N81 1.415 . S
C559 C351 1.749 . S
C547 C99 1.758 . S
C586 C408 1.553 . S
C574 N127 1.447 . S
C601 N25 1.736 . S
C613 C255 1.719 . S
C628 C62 1.624 . S
C640 C312 1.605 . S
C667 C366 1.795 . S
C655 C85 1.782 . S
C694 C423 1.499 . S
C682 N94 1.539 . S
C709 C131 1.806 . S
C721 C174 1.742 . S
C748 C231 1.488 . S
C736 N2 1.442 . S
C775 C318 1.775 . S
C763 C16 1.814 . S
C790 C39 1.555 . S
C802 C360 1.561 . S
C829 C399 1.716 . S
C817 N48 1.706 . S
C844 N71 1.423 . S
C856 C168 1.440 . S
C871 C108 1.773 . S
C883 C207 1.727 . S
C898 N117 1.447 . S
C910 C279 1.533 . S
C925 N35 1.723 . S
C937 C414 1.700 . S
C964 C183 1.605 . S
C952 C53 1.626 . S
C979 C76 1.833 . S
C991 C222 1.815 . S
C1006 N104 1.447 . S
C1018 C264 1.510 . S
C1033 C122 1.745 . S
C1045 C303 1.715 . S
C1060 N12 1.451 . S
C1072 C375 1.456 . S
